# Generated by pormake.
# Topology snz, (6)-cn, num edge types: 1
# Building blocks:
#     Node 0, Type 0, BuildingBlock: KUMJIN_clean_sbu_1, # of connection points: 6
#     Node 1, Type 0, BuildingBlock: KUMJIN_clean_sbu_1, # of connection points: 6
#     Node 2, Type 0, BuildingBlock: KUMJIN_clean_sbu_1, # of connection points: 6
#     Node 3, Type 0, BuildingBlock: KUMJIN_clean_sbu_1, # of connection points: 6
#     Node 4, Type 0, BuildingBlock: KUMJIN_clean_sbu_1, # of connection points: 6
#     Node 5, Type 0, BuildingBlock: KUMJIN_clean_sbu_1, # of connection points: 6
#     Node 6, Type 0, BuildingBlock: KUMJIN_clean_sbu_1, # of connection points: 6
#     Node 7, Type 0, BuildingBlock: KUMJIN_clean_sbu_1, # of connection points: 6
#     Node 8, Type 0, BuildingBlock: KUMJIN_clean_sbu_1, # of connection points: 6
#     Edge 9, Type (0, 0), BuildingBlock: AJUNOK_clean_linker_0, # of connection points: 2
#     Edge 10, Type (0, 0), BuildingBlock: AJUNOK_clean_linker_0, # of connection points: 2
#     Edge 11, Type (0, 0), BuildingBlock: AJUNOK_clean_linker_0, # of connection points: 2
#     Edge 12, Type (0, 0), BuildingBlock: AJUNOK_clean_linker_0, # of connection points: 2
#     Edge 13, Type (0, 0), BuildingBlock: AJUNOK_clean_linker_0, # of connection points: 2
#     Edge 14, Type (0, 0), BuildingBlock: AJUNOK_clean_linker_0, # of connection points: 2
#     Edge 15, Type (0, 0), BuildingBlock: AJUNOK_clean_linker_0, # of connection points: 2
#     Edge 16, Type (0, 0), BuildingBlock: AJUNOK_clean_linker_0, # of connection points: 2
#     Edge 17, Type (0, 0), BuildingBlock: AJUNOK_clean_linker_0, # of connection points: 2
#     Edge 18, Type (0, 0), BuildingBlock: AJUNOK_clean_linker_0, # of connection points: 2
#     Edge 19, Type (0, 0), BuildingBlock: AJUNOK_clean_linker_0, # of connection points: 2
#     Edge 20, Type (0, 0), BuildingBlock: AJUNOK_clean_linker_0, # of connection points: 2
#     Edge 21, Type (0, 0), BuildingBlock: AJUNOK_clean_linker_0, # of connection points: 2
#     Edge 22, Type (0, 0), BuildingBlock: AJUNOK_clean_linker_0, # of connection points: 2
#     Edge 23, Type (0, 0), BuildingBlock: AJUNOK_clean_linker_0, # of connection points: 2
#     Edge 24, Type (0, 0), BuildingBlock: AJUNOK_clean_linker_0, # of connection points: 2
#     Edge 25, Type (0, 0), BuildingBlock: AJUNOK_clean_linker_0, # of connection points: 2
#     Edge 26, Type (0, 0), BuildingBlock: AJUNOK_clean_linker_0, # of connection points: 2
#     Edge 27, Type (0, 0), BuildingBlock: AJUNOK_clean_linker_0, # of connection points: 2
#     Edge 28, Type (0, 0), BuildingBlock: AJUNOK_clean_linker_0, # of connection points: 2
#     Edge 29, Type (0, 0), BuildingBlock: AJUNOK_clean_linker_0, # of connection points: 2
#     Edge 30, Type (0, 0), BuildingBlock: AJUNOK_clean_linker_0, # of connection points: 2
#     Edge 31, Type (0, 0), BuildingBlock: AJUNOK_clean_linker_0, # of connection points: 2
#     Edge 32, Type (0, 0), BuildingBlock: AJUNOK_clean_linker_0, # of connection points: 2
#     Edge 33, Type (0, 0), BuildingBlock: AJUNOK_clean_linker_0, # of connection points: 2
#     Edge 34, Type (0, 0), BuildingBlock: AJUNOK_clean_linker_0, # of connection points: 2
#     Edge 35, Type (0, 0), BuildingBlock: AJUNOK_clean_linker_0, # of connection points: 2
# Relax obj value: 0.376
# Max RMSD: 0.184
# Mean RMSD: 0.126
data_MOF--net-snz--node1-KUMJIN_clean_sbu_1--edge1-AJUNOK_clean_linker_0
_symmetry_space_group_name_H-M    P1
_symmetry_Int_Tables_number       1
_symmetry_cell_setting            triclinic
loop_
_symmetry_equiv_pos_as_xyz
'x, y, z'
_cell_length_a     53.562352
_cell_length_b     40.349285
_cell_length_c     12.68166
_cell_angle_alpha  96.482269
_cell_angle_beta   95.018665
_cell_angle_gamma 122.07412
loop_
_atom_site_label
_atom_site_type_symbol
_atom_site_fract_x
_atom_site_fract_y
_atom_site_fract_z
_atom_type_partial_charge
Eu0 Eu 0.03985 0.50917 0.23529 0.0
C1 C 0.16482 0.53536 0.16411 0.0
N2 N 0.13686 0.50192 0.13892 0.0
C3 C 0.14891 0.48093 0.97721 0.0
C4 C 0.1857 0.5437 0.09421 0.0
C5 C 0.1293 0.47358 1.05042 0.0
C6 C 0.17702 0.51658 0.99802 0.0
C7 C 0.20387 0.58961 0.30206 0.0
C8 C 0.17367 0.55834 0.26604 0.0
C9 C 0.22419 0.60006 0.22991 0.0
C10 C 0.21505 0.57727 0.12578 0.0
Eu11 Eu 0.10396 0.49297 0.26248 0.0
N12 N 0.15371 0.54664 0.33457 0.0
C13 C 0.21319 0.60735 0.41142 0.0
C14 C 0.16329 0.56156 0.44276 0.0
C15 C 0.19294 0.59274 0.4824 0.0
H16 H 0.10764 0.44579 1.03489 0.0
H17 H 0.20022 0.60518 0.56776 0.0
H18 H 0.01931 0.52502 0.46981 0.0
H19 H 0.96364 0.41522 0.85207 0.0
H20 H 0.14774 0.54991 0.49814 0.0
H21 H 0.23632 0.63068 0.44301 0.0
H22 H 0.01181 0.46448 0.96465 0.0
H23 H 0.14241 0.459 0.90527 0.0
H24 H 0.24738 0.62438 0.25555 0.0
H25 H 0.23131 0.58447 1.07267 0.0
H26 H 0.97626 0.4921 0.56257 0.0
H27 H 0.19238 0.52192 0.9421 0.0
H28 H 0.91888 0.37787 0.93328 0.0
N29 N 0.9989 0.48002 0.32882 0.0
C30 C 0.97224 0.44958 0.26967 0.0
C31 C 0.97498 0.47911 0.48121 0.0
C32 C 0.94621 0.43135 0.31707 0.0
C33 C 0.99981 0.49685 0.42996 0.0
C34 C 0.94819 0.4456 0.42522 0.0
N35 N 0.99526 0.45786 0.11373 0.0
C36 C 0.99297 0.44937 1.00422 0.0
C37 C 0.94209 0.40906 0.09579 0.0
C38 C 0.97019 0.43876 0.15941 0.0
C39 C 0.94007 0.40013 0.98465 0.0
C40 C 0.96544 0.42091 0.93869 0.0
H41 H 0.92875 0.4323 0.46433 0.0
H42 H 0.89868 0.38632 0.28999 0.0
H43 H 0.89513 0.36652 0.09652 0.0
O44 O 1.01037 0.52525 0.1606 0.0
O45 O 0.02506 0.44298 0.21996 0.0
O46 O 0.06172 0.44247 0.14355 0.0
O47 O 0.04023 0.5612 0.3101 0.0
O48 O 0.05707 0.51443 1.06329 0.0
O49 O 0.09042 0.49477 1.07231 0.0
O50 O 0.08922 0.44107 0.34007 0.0
O51 O 0.11583 0.55704 0.33806 0.0
O52 O 0.0856 0.564 0.22056 0.0
O53 O 0.13228 0.4689 0.29256 0.0
O54 O 0.09045 0.4951 0.43973 0.0
O55 O 0.05633 0.51308 0.42755 0.0
C56 C 0.03352 0.42366 0.15692 0.0
C57 C 0.0258 0.59241 0.19148 0.0
C58 C 1.00723 0.62609 0.09294 0.0
C59 C 0.03701 0.65677 0.09353 0.0
C60 C 0.05513 0.62433 0.19514 0.0
C61 C 0.06075 0.65609 0.14543 0.0
C62 C 1.00173 0.59363 0.14178 0.0
C63 C 0.07408 0.50486 1.01122 0.0
C64 C 0.02018 0.55678 0.23325 0.0
C65 C 0.91872 0.4008 0.25442 0.0
C66 C 0.91668 0.38962 0.14423 0.0
C67 C 0.11005 0.58101 0.29337 0.0
C68 C 0.11007 0.40076 0.31821 0.0
C69 C 0.12486 0.35342 0.35699 0.0
C70 C 0.09852 0.32308 0.28645 0.0
C71 C 0.08506 0.36944 0.24611 0.0
C72 C 0.13021 0.39263 0.37429 0.0
C73 C 0.07925 0.3311 0.23101 0.0
C74 C 0.07333 0.50451 0.49079 0.0
C75 C 0.11346 0.44064 0.33868 0.0
H76 H 0.04194 0.68173 1.055 0.0
H77 H 0.0736 0.62424 0.23546 0.0
H78 H 0.08358 0.68028 0.14708 0.0
H79 H 0.97893 0.56888 0.13811 0.0
H80 H 0.09253 0.29254 0.27418 0.0
H81 H 0.06928 0.37441 0.20399 0.0
H82 H 0.14978 0.4165 0.43019 0.0
H83 H 0.0593 0.30715 0.1768 0.0
Eu84 Eu 0.54932 0.52998 1.01685 0.0
C85 C 0.61367 0.44472 0.10704 0.0
N86 N 0.62444 0.48335 0.1493 0.0
C87 C 0.6483 0.47818 0.31082 0.0
C88 C 0.61941 0.42113 0.16638 0.0
C89 C 0.64218 0.50042 0.24907 0.0
C90 C 0.63656 0.43822 0.2699 0.0
C91 C 0.58847 0.3901 0.95325 0.0
C92 C 0.59833 0.4293 1.00177 0.0
C93 C 0.59324 0.3662 1.01331 0.0
C94 C 0.60865 0.38166 0.11963 0.0
Eu95 Eu 0.61147 0.51846 1.0401 0.0
N96 N 0.59442 0.4534 0.9449 0.0
C97 C 0.57491 0.37645 0.84471 0.0
C98 C 0.58289 0.44085 0.83698 0.0
C99 C 0.57247 0.40211 0.78607 0.0
H100 H 0.6523 0.53173 0.28008 0.0
H101 H 0.56253 0.39207 0.70147 0.0
H102 H 0.49903 0.48494 0.78884 0.0
H103 H 0.58059 0.66455 0.29823 0.0
H104 H 0.58053 0.45988 0.79008 0.0
H105 H 0.56695 0.34651 0.80479 0.0
H106 H 0.579 0.60328 0.23668 0.0
H107 H 0.66236 0.492 0.38954 0.0
H108 H 0.58578 0.33605 0.97737 0.0
H109 H 0.61278 0.36314 0.16416 0.0
H110 H 0.46948 0.49931 0.663 0.0
H111 H 0.64152 0.42113 0.31769 0.0
H112 H 0.55433 0.68523 0.17988 0.0
N113 N 0.51931 0.54054 0.89571 0.0
C114 C 0.52099 0.57537 0.92003 0.0
C115 C 0.48395 0.52101 0.73477 0.0
C116 C 0.50407 0.58444 0.85192 0.0
C117 C 0.50075 0.51303 0.80575 0.0
C118 C 0.48575 0.55699 0.75757 0.0
N119 N 0.55334 0.59033 1.08216 0.0
C120 C 0.5677 0.61215 0.18347 0.0
C121 C 0.53847 0.63559 1.04905 0.0
C122 C 0.53825 0.60081 1.01673 0.0
C123 C 0.55411 0.65882 0.15112 0.0
C124 C 0.56874 0.64701 0.21866 0.0
H125 H 0.47245 0.56291 0.70307 0.0
H126 H 0.49243 0.62743 0.83035 0.0
H127 H 0.52211 0.67185 1.00369 0.0
O128 O 0.52791 0.48837 0.12385 0.0
O129 O 0.59316 0.59136 1.02812 0.0
O130 O 0.62611 0.58269 0.1259 0.0
O131 O 0.50338 0.50884 1.03443 0.0
O132 O 0.56486 0.53395 0.20857 0.0
O133 O 0.60567 0.52933 0.22634 0.0
O134 O 0.64251 0.54155 0.925 0.0
O135 O 0.56392 0.45938 1.03242 0.0
O136 O 0.5364 0.47023 0.9153 0.0
O137 O 0.65878 0.53931 1.08246 0.0
O138 O 0.60201 0.52905 0.85772 0.0
O139 O 0.55707 0.52331 0.83239 0.0
C140 C 0.61906 0.60719 0.09197 0.0
C141 C 0.47563 0.44573 1.08355 0.0
C142 C 0.43608 0.39452 0.16006 0.0
C143 C 0.42409 0.3693 1.05859 0.0
C144 C 0.46373 0.42053 0.9823 0.0
C145 C 0.43832 0.38208 0.97051 0.0
C146 C 0.46194 0.43256 0.17221 0.0
C147 C 0.58517 0.53196 0.27482 0.0
C148 C 0.50252 0.48571 0.10041 0.0
C149 C 0.50524 0.6199 0.88167 0.0
C150 C 0.52223 0.64528 0.98031 0.0
C151 C 0.5391 0.44431 0.96099 0.0
C152 C 0.6822 0.53062 0.94133 0.0
C153 C 0.72948 0.54264 0.89334 0.0
C154 C 0.7169 0.50133 0.87627 0.0
C155 C 0.67062 0.48976 0.92455 0.0
C156 C 0.71112 0.55667 0.91978 0.0
C157 C 0.68762 0.47518 0.89061 0.0
C158 C 0.58031 0.52726 0.7886 0.0
C159 C 0.66519 0.5464 0.98797 0.0
H160 H 0.40361 0.34018 1.04714 0.0
H161 H 0.47407 0.43057 0.91301 0.0
H162 H 0.42954 0.36238 0.89288 0.0
H163 H 0.47105 0.45221 0.25046 0.0
H164 H 0.72949 0.48895 0.85095 0.0
H165 H 0.64854 0.46902 0.93797 0.0
H166 H 0.71955 0.58795 0.92676 0.0
H167 H 0.67823 0.44347 0.87736 0.0
Eu168 Eu 0.61656 0.15818 0.9174 0.0
C169 C 0.52335 0.97706 0.6895 0.0
N170 N 0.52181 1.00973 0.69574 0.0
C171 C 0.49113 0.98393 0.52022 0.0
C172 C 0.50967 0.94707 0.59601 0.0
C173 C 0.50475 1.0126 0.61515 0.0
C174 C 0.49411 0.9514 0.50971 0.0
C175 C 0.53439 0.93577 0.78229 0.0
C176 C 0.53569 0.97158 0.78124 0.0
C177 C 0.52285 0.90714 0.68696 0.0
C178 C 0.51053 0.91281 0.59389 0.0
Eu179 Eu 0.54755 0.0583 0.85618 0.0
N180 N 0.54587 0.99928 0.87274 0.0
C181 C 0.54301 0.92879 0.88051 0.0
C182 C 0.55169 0.99104 0.9701 0.0
C183 C 0.55095 0.95609 0.97524 0.0
H184 H 0.50234 0.03769 0.62339 0.0
H185 H 0.5566 0.95031 1.05214 0.0
H186 H 0.66098 0.18744 0.15526 0.0
H187 H 0.59069 0.24666 0.68398 0.0
H188 H 0.55785 1.01209 1.04351 0.0
H189 H 0.54227 0.90162 0.88478 0.0
H190 H 0.59059 0.18803 0.71536 0.0
H191 H 0.47831 0.98688 0.45542 0.0
H192 H 0.52207 0.87971 0.68574 0.0
H193 H 0.50051 0.88968 0.52232 0.0
H194 H 0.69086 0.247 0.29909 0.0
H195 H 0.48327 0.92901 0.43653 0.0
H196 H 0.61628 0.30738 0.82526 0.0
N197 N 0.64606 0.21481 1.05651 0.0
C198 C 0.6466 0.24817 1.04531 0.0
C199 C 0.67851 0.24778 0.22821 0.0
C200 C 0.66275 0.28267 0.12677 0.0
C201 C 0.66179 0.21417 0.14606 0.0
C202 C 0.67878 0.2821 0.21905 0.0
N203 N 0.61689 0.21461 0.87347 0.0
C204 C 0.60281 0.2143 0.77742 0.0
C205 C 0.63174 0.28243 0.93636 0.0
C206 C 0.63148 0.24806 0.95113 0.0
C207 C 0.61676 0.28171 0.83937 0.0
C208 C 0.60239 0.24757 0.75938 0.0
H209 H 0.69154 0.30801 0.28323 0.0
H210 H 0.67469 0.34329 0.17525 0.0
H211 H 0.64729 0.34298 1.00866 0.0
O212 O 0.64024 0.13522 0.8312 0.0
O213 O 0.57219 0.15878 0.90765 0.0
O214 O 0.53943 0.10246 0.78577 0.0
O215 O 0.66488 0.19629 0.91297 0.0
O216 O 0.60194 0.13978 0.72195 0.0
O217 O 0.56045 0.07603 0.68214 0.0
O218 O 0.51782 0.06862 0.94367 0.0
O219 O 0.59037 0.05775 0.89205 0.0
O220 O 0.61962 0.11533 1.01231 0.0
O221 O 0.50328 1.00886 0.86362 0.0
O222 O 0.56118 0.07839 1.05367 0.0
O223 O 0.60274 0.14254 0.09346 0.0
C224 C 0.54606 0.13672 0.83989 0.0
C225 C 0.69265 0.16458 0.90672 0.0
C226 C 0.73965 0.16445 0.90328 0.0
C227 C 0.73818 0.15676 1.00867 0.0
C228 C 0.69332 0.15735 1.0118 0.0
C229 C 0.71553 0.1534 1.0618 0.0
C230 C 0.71652 0.1687 0.85181 0.0
C231 C 0.58127 0.10809 0.64543 0.0
C232 C 0.66699 0.16815 0.86067 0.0
C233 C 0.66263 0.31665 0.11323 0.0
C234 C 0.64706 0.31648 1.01836 0.0
C235 C 0.6118 0.07873 0.97637 0.0
C236 C 0.46499 0.01944 0.894 0.0
C237 C 0.41977 0.99844 0.97101 0.0
C238 C 0.40246 0.97691 0.86827 0.0
C239 C 0.44745 0.99887 0.7918 0.0
C240 C 0.45117 0.02125 0.9809 0.0
C241 C 0.41632 0.97826 0.77897 0.0
C242 C 0.58117 0.11079 0.13058 0.0
C243 C 0.49616 0.03092 0.91882 0.0
H244 H 0.75508 0.15376 1.05152 0.0
H245 H 0.67646 0.15494 1.05615 0.0
H246 H 0.71528 0.14781 0.14327 0.0
H247 H 0.71689 0.17463 0.77064 0.0
H248 H 0.37837 0.95746 0.8567 0.0
H249 H 0.4576 0.99682 0.72346 0.0
H250 H 0.46519 0.03813 1.05859 0.0
H251 H 0.40283 0.96121 0.70077 0.0
Eu252 Eu 0.69778 0.87615 0.29419 0.0
C253 C 0.82541 0.9106 0.22667 0.0
N254 N 0.79817 0.87573 0.19998 0.0
C255 C 0.8134 0.85534 1.04671 0.0
C256 C 0.84738 0.91988 0.16115 0.0
C257 C 0.79245 0.84727 0.11478 0.0
C258 C 0.84075 0.89214 1.0687 0.0
C259 C 0.86159 0.96894 0.36172 0.0
C260 C 0.8324 0.93496 0.32575 0.0
C261 C 0.88282 0.97988 0.29305 0.0
C262 C 0.87571 0.95545 0.19284 0.0
Eu263 Eu 0.76344 0.86654 0.31522 0.0
N264 N 0.81151 0.92334 0.39103 0.0
C265 C 0.86892 0.98993 0.46731 0.0
C266 C 0.81923 0.94178 0.49659 0.0
C267 C 0.84782 0.97582 0.53567 0.0
H268 H 0.77131 0.81873 0.09817 0.0
H269 H 0.85352 0.99122 0.61828 0.0
H270 H 0.68772 0.91696 0.51881 0.0
H271 H 0.61327 0.75713 0.96646 0.0
H272 H 0.803 0.93109 0.54972 0.0
H273 H 0.89106 0.01625 0.49786 0.0
H274 H 0.66384 0.81193 1.05566 0.0
H275 H 0.8085 0.83315 0.97759 0.0
H276 H 0.90517 1.00634 0.31845 0.0
H277 H 0.89271 0.96344 0.14263 0.0
H278 H 0.64652 0.90467 0.61629 0.0
H279 H 0.85705 0.89815 1.01637 0.0
H280 H 0.57077 0.73558 1.06352 0.0
N281 N 0.66037 0.86495 0.39808 0.0
C282 C 0.63236 0.83256 0.35826 0.0
C283 C 0.64226 0.88401 0.54425 0.0
C284 C 0.60825 0.8242 0.41216 0.0
C285 C 0.66549 0.89103 0.48845 0.0
C286 C 0.61363 0.85008 0.50709 0.0
N287 N 0.65054 0.82057 0.20435 0.0
C288 C 0.64561 0.80275 0.0997 0.0
C289 C 0.59789 0.77857 0.20982 0.0
C290 C 0.62726 0.80985 0.25828 0.0
C291 C 0.59303 0.75918 0.10427 0.0
C292 C 0.61694 0.77151 1.0488 0.0
H293 H 0.59567 0.84479 0.55045 0.0
H294 H 0.56058 0.78459 0.40758 0.0
H295 H 0.55145 0.74493 0.23005 0.0
O296 O 0.71393 0.93388 0.24057 0.0
O297 O 0.6839 0.80913 0.27349 0.0
O298 O 0.72255 0.80921 0.20988 0.0
O299 O 0.66726 0.89381 0.23921 0.0
O300 O 0.71179 0.87374 0.1165 0.0
O301 O 0.75077 0.86492 0.12467 0.0
O302 O 0.75165 0.81662 0.39757 0.0
O303 O 0.77511 0.93108 0.33469 0.0
O304 O 0.73853 0.92846 0.41756 0.0
O305 O 0.79581 0.85071 0.35631 0.0
O306 O 0.75062 0.87068 0.49545 0.0
O307 O 0.70877 0.87377 0.48381 0.0
C308 C 0.69478 0.78915 0.228 0.0
C309 C 0.68334 0.96166 0.25676 0.0
C310 C 0.66336 1.00429 0.22564 0.0
C311 C 0.66451 1.01109 0.33827 0.0
C312 C 0.68767 0.97451 0.36762 0.0
C313 C 0.67756 0.99793 0.40782 0.0
C314 C 0.67177 0.97748 0.18485 0.0
C315 C 0.7312 0.86955 1.0639 0.0
C316 C 0.6874 0.92825 0.22003 0.0
C317 C 0.57931 0.79159 0.36695 0.0
C318 C 0.57412 0.76895 0.26584 0.0
C319 C 0.76652 0.94892 0.40154 0.0
C320 C 0.77732 0.78395 0.36635 0.0
C321 C 0.79871 0.74448 0.39571 0.0
C322 C 0.77531 0.71317 0.31849 0.0
C323 C 0.75542 0.75315 0.28361 0.0
C324 C 0.79937 0.77989 0.42101 0.0
C325 C 0.75411 0.7176 0.26123 0.0
C326 C 0.72963 0.87162 0.54635 0.0
C327 C 0.77746 0.82035 0.39687 0.0
H328 H 0.65513 0.02664 0.37452 0.0
H329 H 0.69773 0.96489 0.42364 0.0
H330 H 0.67929 1.00531 0.49404 0.0
H331 H 0.66922 0.96877 0.09873 0.0
H332 H 0.7735 0.68512 0.30534 0.0
H333 H 0.739 0.75627 0.23791 0.0
H334 H 0.81684 0.80406 0.48309 0.0
H335 H 0.73635 0.6933 0.20048 0.0
Eu336 Eu 0.19159 0.84916 0.48471 0.0
C337 C 0.28305 0.79614 0.61043 0.0
N338 N 0.2852 0.83135 0.63265 0.0
C339 C 0.32162 0.85209 0.79114 0.0
C340 C 0.29989 0.7872 0.67945 0.0
C341 C 0.30448 0.85961 0.72029 0.0
C342 C 0.31899 0.81549 0.77153 0.0
C343 C 0.26505 0.73513 0.48396 0.0
C344 C 0.2657 0.77035 0.5142 0.0
C345 C 0.28071 0.72521 0.55465 0.0
C346 C 0.29801 0.75113 0.65233 0.0
Eu347 Eu 0.25501 0.84136 0.51079 0.0
N348 N 0.25125 0.78111 0.4467 0.0
C349 C 0.24971 0.71182 0.38169 0.0
C350 C 0.23752 0.75944 0.34484 0.0
C351 C 0.23605 0.72415 0.31165 0.0
H352 H 0.30648 0.88792 0.73541 0.0
H353 H 0.22461 0.70666 0.23171 0.0
H354 H 0.14739 0.82454 0.24276 0.0
H355 H 0.23555 0.98053 0.80439 0.0
H356 H 0.22695 0.7687 0.28971 0.0
H357 H 0.24922 0.68509 0.35438 0.0
H358 H 0.22265 0.91373 0.72864 0.0
H359 H 0.33677 0.87446 0.86087 0.0
H360 H 0.28033 0.69817 0.53316 0.0
H361 H 0.31061 0.74359 0.70469 0.0
H362 H 0.13079 0.85663 0.12638 0.0
H363 H 0.33236 0.80978 0.8264 0.0
H364 H 0.22411 0.01839 0.69134 0.0
N365 N 0.17268 0.87581 0.36771 0.0
C366 C 0.18054 0.91375 0.40453 0.0
C367 C 0.14491 0.87309 0.20405 0.0
C368 C 0.17142 0.93313 0.34019 0.0
C369 C 0.15434 0.85499 0.27038 0.0
C370 C 0.15378 0.91246 0.23846 0.0
N371 N 0.20379 0.9127 0.57198 0.0
C372 C 0.21681 0.92908 0.67792 0.0
C373 C 0.20338 0.97115 0.55056 0.0
C374 C 0.19618 0.93248 0.50944 0.0
C375 C 0.21806 0.98868 0.65724 0.0
C376 C 0.2245 0.96737 0.72139 0.0
H377 H 0.14633 0.92634 0.1869 0.0
H378 H 0.1729 0.98748 0.33131 0.0
H379 H 0.20116 0.02089 0.51478 0.0
O380 O 0.15523 0.79928 0.54401 0.0
O381 O 0.23793 0.90987 0.49477 0.0
O382 O 0.26742 0.90125 0.6096 0.0
O383 O 0.14919 0.84411 0.49411 0.0
O384 O 0.2033 0.84524 0.67291 0.0
O385 O 0.24686 0.84705 0.69488 0.0
O386 O 0.27702 0.88374 0.40612 0.0
O387 O 0.21117 0.77989 0.49882 0.0
O388 O 0.17961 0.78745 0.38968 0.0
O389 O 0.3009 0.862 0.49393 0.0
O390 O 0.23966 0.83731 0.31912 0.0
O391 O 0.19931 0.8429 0.30022 0.0
C392 C 0.26326 0.92609 0.56401 0.0
C393 C 0.10578 0.78028 0.47339 0.0
C394 C 0.05167 0.74287 0.47133 0.0
C395 C 0.04698 0.72777 0.36115 0.0
C396 C 0.10042 0.76407 0.36409 0.0
C397 C 0.07123 0.739 0.30794 0.0
C398 C 0.08128 0.76987 0.52708 0.0
C399 C 0.22451 0.84545 0.74049 0.0
C400 C 0.13668 0.81064 0.52819 0.0
C401 C 0.17946 0.97205 0.38008 0.0
C402 C 0.19546 0.99103 0.48475 0.0
C403 C 0.18615 0.76326 0.42903 0.0
C404 C 0.32958 0.92514 0.44477 0.0
C405 C 0.36817 0.97507 0.36187 0.0
C406 C 0.38315 0.9992 0.46411 0.0
C407 C 0.34451 0.94913 0.54681 0.0
C408 C 0.34128 0.93834 0.35307 0.0
C409 C 0.37106 0.98642 0.55608 0.0
C410 C 0.21987 0.84023 0.25284 0.0
C411 C 0.30215 0.8857 0.42931 0.0
H412 H 0.02448 0.70777 0.31584 0.0
H413 H 0.11883 0.7715 0.32158 0.0
H414 H 0.06751 0.72888 0.22241 0.0
H415 H 0.08519 0.78259 0.61146 0.0
H416 H 0.40419 0.02759 0.47266 0.0
H417 H 0.3358 0.93895 0.61863 0.0
H418 H 0.33001 0.91909 0.27465 0.0
H419 H 0.38257 1.00509 0.63473 0.0
Eu420 Eu 0.25398 0.30729 0.67155 0.0
C421 C 0.15569 0.11957 0.47679 0.0
N422 N 0.15656 0.15328 0.46756 0.0
C423 C 0.12394 0.12148 0.29603 0.0
C424 C 0.13939 0.08552 0.394 0.0
C425 C 0.14075 0.15462 0.3795 0.0
C426 C 0.12354 0.08691 0.30263 0.0
C427 C 0.1694 0.08382 0.58403 0.0
C428 C 0.17027 0.1187 0.5709 0.0
C429 C 0.15401 0.05025 0.50053 0.0
C430 C 0.13898 0.05106 0.40581 0.0
Eu431 Eu 0.18584 0.20875 0.60963 0.0
N432 N 0.18466 0.15156 0.65052 0.0
C433 C 0.18372 0.08351 0.68115 0.0
C434 C 0.19793 0.15081 0.74684 0.0
C435 C 0.19788 0.11708 0.76308 0.0
H436 H 0.14145 0.18153 0.37305 0.0
H437 H 0.20899 0.11714 0.83869 0.0
H438 H 0.30091 0.32495 0.89508 0.0
H439 H 0.24166 0.41547 0.48918 0.0
H440 H 0.2098 0.17662 0.81049 0.0
H441 H 0.18374 0.05742 0.69402 0.0
H442 H 0.23936 0.35281 0.49193 0.0
H443 H 0.11154 0.12277 0.22622 0.0
H444 H 0.15317 0.02327 0.50914 0.0
H445 H 0.12677 0.02472 0.34281 0.0
H446 H 0.33016 0.37688 1.05822 0.0
H447 H 0.11066 0.06135 0.2375 0.0
H448 H 0.26332 0.46727 0.65466 0.0
N449 N 0.28441 0.35683 0.82648 0.0
C450 C 0.28506 0.3911 0.83524 0.0
C451 C 0.31751 0.38126 0.9964 0.0
C452 C 0.30163 0.42173 0.92661 0.0
C453 C 0.30101 0.35196 0.90375 0.0
C454 C 0.31755 0.41613 1.00857 0.0
N455 N 0.25736 0.36771 0.65909 0.0
C456 C 0.24837 0.37494 0.56501 0.0
C457 C 0.27354 0.43339 0.75027 0.0
C458 C 0.27109 0.39675 0.7486 0.0
C459 C 0.26193 0.43957 0.65667 0.0
C460 C 0.24978 0.41047 0.56303 0.0
H461 H 0.33056 0.43893 1.08008 0.0
H462 H 0.31502 0.48114 1.0013 0.0
H463 H 0.29048 0.49141 0.84659 0.0
O464 O 0.27701 0.29046 0.56546 0.0
O465 O 0.21135 0.3084 0.64991 0.0
O466 O 0.18371 0.25366 0.52058 0.0
O467 O 0.29896 0.35186 0.65334 0.0
O468 O 0.23958 0.28925 0.47391 0.0
O469 O 0.19998 0.22392 0.43399 0.0
O470 O 0.16109 0.22991 0.69568 0.0
O471 O 0.23024 0.20752 0.62329 0.0
O472 O 0.26248 0.26392 0.74528 0.0
O473 O 0.13716 0.16981 0.6078 0.0
O474 O 0.20015 0.22695 0.80567 0.0
O475 O 0.24212 0.29037 0.84648 0.0
C476 C 0.19027 0.28898 0.56458 0.0
C477 C 0.33008 0.33076 0.60075 0.0
C478 C 0.37506 0.35047 0.52511 0.0
C479 C 0.38946 0.35225 0.62584 0.0
C480 C 0.34466 0.33316 0.70105 0.0
C481 C 0.37406 0.34285 0.71265 0.0
C482 C 0.34478 0.33753 0.51249 0.0
C483 C 0.22065 0.25634 0.39689 0.0
C484 C 0.30119 0.32656 0.5874 0.0
C485 C 0.30265 0.45739 0.93139 0.0
C486 C 0.28864 0.46322 0.84333 0.0
C487 C 0.25621 0.22965 0.6924 0.0
C488 C 0.10929 0.20147 0.61383 0.0
C489 C 0.0603 0.19691 0.61024 0.0
C490 C 0.0645 0.21079 0.51227 0.0
C491 C 0.11104 0.21408 0.51468 0.0
C492 C 0.08346 0.19288 0.66245 0.0
C493 C 0.08933 0.21914 0.46563 0.0
C494 C 0.22096 0.25848 0.88263 0.0
C495 C 0.13449 0.1972 0.66118 0.0
H496 H 0.41274 0.36203 0.6385 0.0
H497 H 0.33367 0.32859 0.77041 0.0
H498 H 0.38518 0.34456 0.79016 0.0
H499 H 0.33278 0.33429 0.43462 0.0
H500 H 0.04839 0.21549 0.47081 0.0
H501 H 0.12936 0.22008 0.47381 0.0
H502 H 0.08119 0.18255 0.73832 0.0
H503 H 0.09171 0.22954 0.38979 0.0
Eu504 Eu 0.39816 0.17309 0.89154 0.0
C505 C 0.36424 0.14507 0.4088 0.0
N506 N 0.38453 0.14539 0.48169 0.0
C507 C 0.37025 0.08089 0.38795 0.0
C508 C 0.34559 0.11216 0.32428 0.0
C509 C 0.3882 0.11405 0.47073 0.0
C510 C 0.34897 0.07998 0.31407 0.0
C511 C 0.33996 0.17772 0.35043 0.0
C512 C 0.3618 0.17755 0.42044 0.0
C513 C 0.32007 0.14401 0.27071 0.0
C514 C 0.32334 0.11171 0.25571 0.0
Eu515 Eu 0.40771 0.19855 0.63671 0.0
N516 N 0.38062 0.20891 0.50098 0.0
C517 C 0.33842 0.21144 0.36415 0.0
C518 C 0.38017 0.24267 0.51154 0.0
C519 C 0.35908 0.2444 0.44346 0.0
H520 H 0.40387 0.11362 0.52925 0.0
H521 H 0.35819 0.27068 0.45402 0.0
H522 H 0.33585 0.08293 0.86899 0.0
H523 H 0.42841 0.31086 0.16319 0.0
H524 H 0.39529 0.26769 0.57579 0.0
H525 H 0.3215 0.21241 0.31393 0.0
H526 H 0.43863 0.2679 1.05906 0.0
H527 H 0.37231 0.05556 0.38254 0.0
H528 H 0.30193 0.14245 0.2209 0.0
H529 H 0.30817 0.08621 0.19245 0.0
H530 H 0.28317 0.0538 0.8907 0.0
H531 H 0.33488 0.054 0.25093 0.0
H532 H 0.37639 0.28872 0.18285 0.0
N533 N 0.34971 0.14191 0.93659 0.0
C534 C 0.34231 0.16538 0.99122 0.0
C535 C 0.29948 0.08537 0.91795 0.0
C536 C 0.31237 0.15053 1.00208 0.0
C537 C 0.32928 0.10194 0.90532 0.0
C538 C 0.2908 0.11 0.96397 0.0
N539 N 0.39328 0.21775 1.01862 0.0
C540 C 0.41585 0.25568 1.06699 0.0
C541 C 0.35765 0.22988 0.0895 0.0
C542 C 0.36472 0.20454 1.03292 0.0
C543 C 0.38083 0.26848 0.1379 0.0
C544 C 0.41007 0.28106 0.1277 0.0
H545 H 0.26759 0.09733 0.97174 0.0
H546 H 0.28203 0.16597 1.05746 0.0
H547 H 0.32183 0.23556 0.13516 0.0
O548 O 0.40151 0.15358 1.03957 0.0
O549 O 0.35616 0.1686 0.79231 0.0
O550 O 0.38073 0.22128 0.71441 0.0
O551 O 0.40548 0.12427 0.89427 0.0
O552 O 0.44111 0.23779 0.89888 0.0
O553 O 0.41945 0.25118 0.76738 0.0
O554 O 0.45684 0.22726 0.65845 0.0
O555 O 0.43155 0.16608 0.69383 0.0
O556 O 0.44659 0.19645 0.8669 0.0
O557 O 0.43571 0.2469 0.55592 0.0
O558 O 0.36346 0.13363 0.62172 0.0
O559 O 0.37832 0.11656 0.76485 0.0
C560 C 0.35627 0.19732 0.75023 0.0
C561 C 0.43264 0.12908 1.06078 0.0
C562 C 0.48118 0.19567 0.2838 0.0
C563 C 0.45837 0.14727 0.3663 0.0
C564 C 0.41775 0.09136 0.14332 0.0
C565 C 0.42925 0.09963 0.28694 0.0
C566 C 0.46354 0.17971 0.11271 0.0
C567 C 0.4418 0.26513 0.84744 0.0
C568 C 0.40754 0.12787 0.99804 0.0
C569 C 0.30501 0.17651 1.05059 0.0
C570 C 0.32766 0.21606 0.09506 0.0
C571 C 0.45063 0.17741 0.7856 0.0
C572 C 0.4774 0.24863 0.49744 0.0
C573 C 0.43508 0.18531 0.2682 0.0
C574 C 0.46046 0.23508 0.18929 0.0
C575 C 0.49725 0.28908 0.41885 0.0
C576 C 0.44959 0.19874 0.43509 0.0
C577 C 0.48881 0.28203 0.274 0.0
C578 C 0.35946 0.10524 0.67586 0.0
C579 C 0.46087 0.25062 0.59042 0.0
H580 H 0.46502 0.1499 0.45175 0.0
H581 H 0.39738 0.06362 0.10748 0.0
H582 H 0.41818 0.07472 0.32751 0.0
H583 H 0.47331 0.19965 1.05704 0.0
H584 H 0.4557 0.2337 0.10402 0.0
H585 H 0.49002 0.27183 0.47393 0.0
H586 H 0.4387 0.17747 0.48579 0.0
H587 H 0.50118 0.30748 0.23608 0.0
Eu588 Eu 0.90928 0.21457 0.67312 0.0
C589 C 0.89097 0.07247 0.90614 0.0
N590 N 0.87498 0.08946 0.89992 0.0
C591 C 0.82941 0.02555 0.88488 0.0
C592 C 0.87672 0.0309 0.89687 0.0
C593 C 0.84472 0.06703 0.89689 0.0
C594 C 0.84543 1.00728 0.88235 0.0
C595 C 0.93903 0.08149 0.95778 0.0
C596 C 0.92156 0.09729 0.93563 0.0
C597 C 0.92533 0.03997 0.93978 0.0
C598 C 0.89416 1.01466 0.90921 0.0
Eu599 Eu 0.90214 0.15949 0.90626 0.0
N600 N 0.93366 0.13704 0.95616 0.0
C601 C 0.96924 0.10784 1.00413 0.0
C602 C 0.9622 0.1624 1.01148 0.0
C603 C 0.98067 0.14841 1.03377 0.0
H604 H 0.83234 0.0812 0.89925 0.0
H605 H 1.0036 0.16886 1.07435 0.0
H606 H 0.91246 0.29759 0.77026 0.0
H607 H 0.87035 0.13205 0.25887 0.0
H608 H 0.9709 0.19371 1.03588 0.0
H609 H 0.98345 0.09696 1.02264 0.0
H610 H 0.90129 0.158 0.44127 0.0
H611 H 0.80531 1.00774 0.87802 0.0
H612 H 0.93842 0.02721 0.9547 0.0
H613 H 0.88368 0.98276 0.90097 0.0
H614 H 0.89132 0.33603 0.71848 0.0
H615 H 0.83359 0.97521 0.87459 0.0
H616 H 0.84032 0.15887 0.20081 0.0
N617 N 0.89017 0.25318 0.62771 0.0
C618 C 0.87282 0.24149 0.52957 0.0
C619 C 0.8857 0.30927 0.6649 0.0
C620 C 0.86012 0.26238 0.49654 0.0
C621 C 0.89758 0.28733 0.69413 0.0
C622 C 0.86642 0.29633 0.56647 0.0
N623 N 0.88517 0.19425 0.49051 0.0
C624 C 0.88717 0.1685 0.41776 0.0
C625 C 0.85356 0.1988 0.35355 0.0
C626 C 0.86991 0.21058 0.45893 0.0
C627 C 0.85293 0.1692 0.28207 0.0
C628 C 0.86999 0.15415 0.3143 0.0
H629 H 0.85727 0.31339 0.54391 0.0
H630 H 0.83249 0.26516 0.36678 0.0
H631 H 0.82643 0.20903 0.24169 0.0
O632 O 0.93794 0.25499 0.57333 0.0
O633 O 0.87306 0.21143 0.76503 0.0
O634 O 0.85882 0.15654 0.84359 0.0
O635 O 0.95794 0.25295 0.72611 0.0
O636 O 0.87634 0.1459 0.60874 0.0
O637 O 0.86763 0.11528 0.7568 0.0
O638 O 0.89669 0.19674 1.02899 0.0
O639 O 0.94569 0.18385 0.83698 0.0
O640 O 0.92773 0.17401 0.66071 0.0
O641 O 0.89669 0.14576 1.0666 0.0
O642 O 0.94348 0.22425 0.92904 0.0
O643 O 0.92003 0.24939 0.84715 0.0
C644 C 0.85328 0.18229 0.80928 0.0
C645 C 0.9818 0.31483 0.66508 0.0
C646 C 1.00969 0.37255 0.58136 0.0
C647 C 1.01044 0.39724 0.67013 0.0
C648 C 0.98136 0.3394 0.75135 0.0
C649 C 0.99756 0.38076 0.75748 0.0
C650 C 0.99811 0.33227 0.58587 0.0
C651 C 0.86175 0.11362 0.65239 0.0
C652 C 0.9623 0.27093 0.64434 0.0
C653 C 0.84269 0.24975 0.39333 0.0
C654 C 0.83928 0.21784 0.32207 0.0
C655 C 0.94843 0.17812 0.73577 0.0
C656 C 0.92696 0.2056 0.19107 0.0
C657 C 0.96914 0.27212 0.27602 0.0
C658 C 0.9821 0.25461 0.32973 0.0
C659 C 0.93987 0.18896 0.24881 0.0
C660 C 0.9415 0.24718 0.20669 0.0
C661 C 0.96735 0.21341 0.31717 0.0
C662 C 0.94144 0.25508 0.92158 0.0
C663 C 0.90066 0.17983 0.105 0.0
H664 H 0.01899 0.42822 0.66866 0.0
H665 H 0.96773 0.32679 0.81105 0.0
H666 H 0.99827 0.39969 0.8263 0.0
H667 H 0.9974 0.31282 0.51817 0.0
H668 H 1.00323 0.27266 0.38485 0.0
H669 H 0.92915 0.15699 0.23887 0.0
H670 H 0.93145 0.25999 0.16339 0.0
H671 H 0.9773 0.20039 0.36041 0.0
Eu672 Eu 0.91875 0.7238 0.85619 0.0
C673 C 0.82027 0.54384 0.69607 0.0
N674 N 0.85073 0.56407 0.70963 0.0
C675 C 0.84972 0.51255 0.79124 0.0
C676 C 0.80353 0.5074 0.73194 0.0
C677 C 0.86537 0.54804 0.75247 0.0
C678 C 0.8187 0.49222 0.78143 0.0
C679 C 0.77394 0.53714 0.62249 0.0
C680 C 0.8055 0.55836 0.64105 0.0
C681 C 0.75745 0.50156 0.66093 0.0
C682 C 0.77217 0.48674 0.71548 0.0
Eu683 Eu 0.87391 0.62097 0.62776 0.0
N684 N 0.82183 0.59247 0.60256 0.0
C685 C 0.75979 0.55175 0.56331 0.0
C686 C 0.80809 0.60571 0.53999 0.0
C687 C 0.77695 0.58602 0.52112 0.0
H688 H 0.88899 0.56142 0.75361 0.0
H689 H 0.76621 0.59697 0.47279 0.0
H690 H 0.94835 0.79837 0.72261 0.0
H691 H 0.9731 0.71215 0.22292 0.0
H692 H 0.82117 0.63145 0.50442 0.0
H693 H 0.73562 0.5363 0.5477 0.0
H694 H 0.93075 0.70236 0.09651 0.0
H695 H 0.86154 0.50034 0.82621 0.0
H696 H 0.73322 0.48493 0.64742 0.0
H697 H 0.75906 0.45892 0.74336 0.0
H698 H 0.99849 0.85354 0.70038 0.0
H699 H 0.80662 0.46441 0.81023 0.0
H700 H 0.02484 0.75399 0.18861 0.0
N701 N 0.96588 0.7758 0.82937 0.0
C702 C 0.99049 0.78186 0.89034 0.0
C703 C 0.99657 0.83329 0.75312 0.0
C704 C 0.01945 0.81229 0.8794 0.0
C705 C 0.96832 0.80218 0.76572 0.0
C706 C 0.02228 0.83764 0.80782 0.0
N707 N 0.95817 0.73567 0.98843 0.0
C708 C 0.95325 0.71988 1.07992 0.0
C709 C 1.01137 0.76792 1.043 0.0
C710 C 0.98646 0.76052 0.97183 0.0
C711 C 1.00632 0.74907 0.1321 0.0
C712 C 0.97715 0.72561 0.15193 0.0
H713 H 0.04413 0.86162 0.79769 0.0
H714 H 0.06694 0.84066 0.93661 0.0
H715 H 0.05984 0.80133 1.07936 0.0
O716 O 0.90307 0.76371 0.84997 0.0
O717 O 0.93922 0.72105 0.70469 0.0
O718 O 0.92443 0.65551 0.65617 0.0
O719 O 0.92104 0.76068 1.00323 0.0
O720 O 0.90846 0.6653 0.90448 0.0
O721 O 0.91044 0.62951 0.7546 0.0
O722 O 0.88148 0.61872 0.46221 0.0
O723 O 0.85149 0.64533 0.72085 0.0
O724 O 0.87688 0.66885 0.89251 0.0
O725 O 0.85714 0.56393 0.52118 0.0
O726 O 0.87808 0.67453 0.56468 0.0
O727 O 0.88756 0.72001 0.71734 0.0
C728 C 0.94353 0.69371 0.65903 0.0
C729 C 0.88114 0.77035 0.99516 0.0
C730 C 0.83503 0.72313 1.05155 0.0
C731 C 0.83562 0.75456 0.11455 0.0
C732 C 0.88245 0.80188 1.06034 0.0
C733 C 0.85881 0.79406 0.11557 0.0
C734 C 0.85532 0.73234 0.98011 0.0
C735 C 0.91695 0.64271 0.85941 0.0
C736 C 0.90737 0.77476 0.95337 0.0
C737 C 0.04445 0.81793 0.94497 0.0
C738 C 0.04041 0.79557 1.02637 0.0
C739 C 0.8516 0.646 0.82341 0.0
C740 C 0.83513 0.56719 0.35742 0.0
C741 C 0.8077 0.58649 0.24324 0.0
C742 C 0.78247 0.5473 0.22336 0.0
C743 C 0.81016 0.52775 0.3346 0.0
C744 C 0.83291 0.59609 0.31504 0.0
C745 C 0.7838 0.51809 0.26925 0.0
C746 C 0.87717 0.70448 0.6143 0.0
C747 C 0.86204 0.58033 0.4366 0.0
H748 H 0.82004 0.7487 0.16963 0.0
H749 H 0.90191 0.83197 1.07102 0.0
H750 H 0.85982 0.81828 0.1666 0.0
H751 H 0.85434 0.70846 0.92874 0.0
H752 H 0.76241 0.53877 0.16918 0.0
H753 H 0.81076 0.50482 0.36936 0.0
H754 H 0.85133 0.62701 0.33721 0.0
H755 H 0.7645 0.48775 0.25269 0.0
C756 C 0.08728 0.48964 0.80883 0.0
C757 C 0.07421 0.50517 0.8784 0.0
C758 C 0.08697 0.48969 0.69113 0.0
C759 C 0.07358 0.50528 0.62452 0.0
H760 H 0.09805 0.47646 0.84566 0.0
H761 H 0.09761 0.47659 0.65116 0.0
S762 S 0.03677 0.55215 0.7581 0.0
N763 N 0.04741 0.53783 0.86022 0.0
N764 N 0.04765 0.53901 0.65225 0.0
C765 C 0.06076 0.52132 0.69368 0.0
C766 C 0.06085 0.52096 0.81329 0.0
C767 C 0.55918 0.52588 0.57804 0.0
C768 C 0.58188 0.52896 0.65756 0.0
C769 C 0.56042 0.52727 0.4617 0.0
C770 C 0.58454 0.53192 0.40727 0.0
H771 H 0.53945 0.52212 0.60589 0.0
H772 H 0.54145 0.52423 0.41292 0.0
S773 S 0.65153 0.543 0.57039 0.0
N774 N 0.63043 0.53781 0.66267 0.0
N775 N 0.63283 0.54074 0.45619 0.0
C776 C 0.60746 0.53533 0.4863 0.0
C777 C 0.60617 0.53384 0.60466 0.0
C778 C 0.56103 0.07596 0.42611 0.0
C779 C 0.58125 0.10894 0.51372 0.0
C780 C 0.561 0.07662 0.30917 0.0
C781 C 0.58117 0.11038 0.26257 0.0
H782 H 0.54451 0.04827 0.44778 0.0
H783 H 0.54443 0.04937 0.25373 0.0
S784 S 0.63935 0.20653 0.44775 0.0
N785 N 0.62257 0.17772 0.53462 0.0
N786 N 0.62239 0.17899 0.32631 0.0
C787 C 0.60141 0.14357 0.3493 0.0
C788 C 0.60148 0.14287 0.46833 0.0
C789 C 0.75297 0.87297 0.75392 0.0
C790 C 0.72993 0.87109 0.67904 0.0
C791 C 0.75331 0.87231 0.87121 0.0
C792 C 0.73072 0.86986 0.93144 0.0
H793 H 0.77169 0.8751 0.72144 0.0
H794 H 0.77227 0.87407 0.91583 0.0
S795 S 0.6635 0.86214 0.78389 0.0
N796 N 0.68252 0.86487 0.68583 0.0
N797 N 0.68349 0.86459 0.8947 0.0
C798 C 0.70755 0.8678 0.85777 0.0
C799 C 0.70708 0.86815 0.73828 0.0
C800 C 0.20031 0.84208 0.92789 0.0
C801 C 0.22346 0.84422 0.87192 0.0
C802 C 0.1992 0.8407 1.04414 0.0
C803 C 0.22097 0.84099 0.12152 0.0
H804 H 0.18218 0.84147 0.88072 0.0
H805 H 0.18038 0.83932 1.07368 0.0
S806 S 0.2879 0.84774 1.0292 0.0
N807 N 0.26979 0.84741 0.91632 0.0
N808 N 0.26771 0.84481 0.1232 0.0
C809 C 0.2443 0.84336 1.06698 0.0
C810 C 0.2455 0.84491 0.94874 0.0
C811 C 0.2405 0.29117 0.10139 0.0
C812 C 0.22088 0.25773 1.01414 0.0
C813 C 0.24039 0.29069 0.21831 0.0
C814 C 0.22077 0.25666 0.26503 0.0
H815 H 0.25662 0.31906 1.07937 0.0
H816 H 0.25641 0.31828 0.27361 0.0
S817 S 0.16466 0.15925 1.0806 0.0
N818 N 0.18088 0.18827 0.99351 0.0
N819 N 0.18101 0.18723 0.20186 0.0
C820 C 0.20125 0.223 0.17859 0.0
C821 C 0.20122 0.22355 1.05961 0.0
C822 C 0.4211 0.19097 0.27259 0.0
C823 C 0.42984 0.15335 0.23008 0.0
C824 C 0.44657 0.24193 0.34595 0.0
C825 C 0.48625 0.22724 0.32962 0.0
H826 H 0.39542 0.18388 0.25608 0.0
H827 H 0.44291 0.26542 0.37342 0.0
S828 S 0.51612 0.15034 0.21384 0.0
N829 N 0.4791 0.11624 0.1709 0.0
N830 N 0.52395 0.19521 0.27593 0.0
C831 C 0.49485 0.18986 0.27186 0.0
C832 C 0.46868 0.139 0.20211 0.0
C833 C 0.02801 0.37497 0.41255 0.0
C834 C 1.00982 0.38198 0.47209 0.0
C835 C 0.01454 0.34121 0.33016 0.0
C836 C 0.98309 0.31588 0.30438 0.0
H837 H 0.05129 0.38841 0.44688 0.0
H838 H 0.02824 0.33126 0.30065 0.0
S839 S 0.92944 0.33995 0.39302 0.0
N840 N 0.96239 0.37632 0.46212 0.0
N841 N 0.93604 0.31117 0.3137 0.0
C842 C 0.96632 0.33117 0.33966 0.0
C843 C 0.98062 0.36667 0.41942 0.0
C844 C 0.83893 0.64235 0.15393 0.0
C845 C 0.81091 0.61766 0.18302 0.0
C846 C 0.84575 0.67574 0.11268 0.0
C847 C 0.82431 0.68508 0.08963 0.0
H848 H 0.85644 0.63651 0.16531 0.0
H849 H 0.86858 0.69473 0.10012 0.0
S850 S 0.74574 0.62657 0.13334 0.0
N851 N 0.76055 0.603 0.1798 0.0
N852 N 0.77258 0.66464 0.08856 0.0
C853 C 0.79533 0.65936 0.11071 0.0
C854 C 0.78869 0.62564 0.1589 0.0
C855 C 0.17109 0.33567 0.57139 0.0
C856 C 0.17565 0.30804 0.51158 0.0
C857 C 0.15611 0.35197 0.52174 0.0
C858 C 0.14538 0.34196 0.4094 0.0
H859 H 0.17836 0.34391 0.65795 0.0
H860 H 0.15197 0.3714 0.57237 0.0
S861 S 0.15601 0.27625 0.21364 0.0
N862 N 0.17042 0.27466 0.3319 0.0
N863 N 0.1442 0.30618 0.23925 0.0
C864 C 0.1516 0.31632 0.34855 0.0
C865 C 0.16611 0.29919 0.39911 0.0
C866 C 0.63794 0.6795 1.06401 0.0
C867 C 0.63929 0.65362 0.12868 0.0
C868 C 0.6556 0.7222 0.09532 0.0
C869 C 0.67526 0.74261 0.19577 0.0
H870 H 0.62324 0.6666 0.98644 0.0
H871 H 0.65389 0.73938 1.03896 0.0
S872 S 0.68655 0.69045 0.40114 0.0
N873 N 0.66256 0.65345 0.3014 0.0
N874 N 0.69362 0.73186 0.36181 0.0
C875 C 0.67638 0.71715 0.26234 0.0
C876 C 0.65911 0.67366 0.22898 0.0
C877 C 0.42146 0.99448 0.16743 0.0
C878 C 0.40598 0.9939 1.0703 0.0
C879 C 0.40978 0.99075 0.26267 0.0
C880 C 0.38176 0.98525 0.26469 0.0
H881 H 0.44253 0.99662 0.17023 0.0
H882 H 0.42222 0.9904 0.33425 0.0
S883 S 0.3319 0.98236 1.03691 0.0
N884 N 0.36099 0.98854 0.98505 0.0
N885 N 0.33871 0.98005 0.16448 0.0
C886 C 0.36575 0.98433 0.16939 0.0
C887 C 0.37776 0.98854 1.07195 0.0
C888 C 0.49501 0.12458 0.7521 0.0
C889 C 0.52275 0.14902 0.82534 0.0
C890 C 0.47268 0.13411 0.73821 0.0
C891 C 0.47594 0.16866 0.79747 0.0
H892 H 0.49019 0.09718 0.70447 0.0
H893 H 0.45221 0.11347 0.6813 0.0
S894 S 0.54459 0.24501 0.99556 0.0
N895 N 0.55183 0.21105 0.95542 0.0
N896 N 0.51107 0.22886 0.9289 0.0
C897 C 0.50376 0.19377 0.86961 0.0
C898 C 0.52656 0.18412 0.88352 0.0
C899 C 0.95779 0.32087 1.04705 0.0
C900 C 0.96544 0.29716 0.98522 0.0
C901 C 0.97972 0.36017 0.10486 0.0
C902 C 1.01055 0.38005 0.09792 0.0
H903 H 0.93456 0.30851 1.05367 0.0
H904 H 0.97223 0.37486 0.15688 0.0
S905 S 0.04247 0.33321 0.93578 0.0
N906 N 1.00674 0.29727 0.92069 0.0
N907 N 0.0466 0.37203 1.01387 0.0
C908 C 0.01829 0.35701 1.03257 0.0
C909 C 0.99627 0.31583 0.98042 0.0
C910 C 0.79953 0.62904 0.81905 0.0
C911 C 0.82231 0.62373 0.85828 0.0
C912 C 0.76987 0.60345 0.83313 0.0
C913 C 0.76162 0.5708 0.88458 0.0
H914 H 0.80454 0.65257 0.77427 0.0
H915 H 0.75311 0.6084 0.79932 0.0
S916 S 0.81356 0.54417 1.00088 0.0
N917 N 0.83518 0.58427 0.9512 0.0
N918 N 0.77954 0.53529 0.97611 0.0
C919 C 0.78453 0.56552 0.92493 0.0
C920 C 0.81482 0.5922 0.91231 0.0
C921 C 0.96261 0.64068 0.87535 0.0
C922 C 0.93865 0.63705 0.92222 0.0
C923 C 0.98407 0.63617 0.93048 0.0
C924 C 0.98254 0.62768 1.03513 0.0
H925 H 0.96521 0.64785 0.79573 0.0
H926 H 1.0022 0.6396 0.89076 0.0
S927 S 0.92362 0.61391 0.19321 0.0
N928 N 0.91382 0.62293 1.07795 0.0
N929 N 0.95476 0.61534 0.1836 0.0
C930 C 0.95838 0.62324 1.08274 0.0
C931 C 0.93634 0.6278 1.02597 0.0
C932 C 0.51179 0.37114 0.99896 0.0
C933 C 0.51499 0.39834 0.93038 0.0
C934 C 0.48894 0.32907 0.97272 0.0
C935 C 0.46722 0.3108 0.87614 0.0
H936 H 0.52705 0.3825 1.07498 0.0
H937 H 0.48834 0.31074 1.02973 0.0
S938 S 0.46819 0.36649 0.65912 0.0
N939 N 0.49578 0.40147 0.7543 0.0
N940 N 0.45349 0.32481 0.70697 0.0
C941 C 0.471 0.3376 0.80548 0.0
C942 C 0.4944 0.38018 0.83173 0.0
C943 C 0.79917 0.14174 0.84271 0.0
C944 C 0.82318 0.17749 0.82031 0.0
C945 C 0.77162 0.13689 0.85961 0.0
C946 C 0.76597 0.16738 0.85541 0.0
H947 H 0.80179 0.1172 0.84951 0.0
H948 H 0.75481 0.1092 0.88082 0.0
S949 S 0.82062 0.26702 0.79852 0.0
N950 N 0.83851 0.24398 0.7927 0.0
N951 N 0.78732 0.23483 0.82535 0.0
C952 C 0.78932 0.20284 0.82982 0.0
C953 C 0.81754 0.20786 0.81225 0.0
C954 C 0.6231 0.0244 0.99246 0.0
C955 C 0.62626 0.0606 1.03666 0.0
C956 C 0.63549 1.00672 1.05114 0.0
C957 C 0.65264 0.02489 0.15627 0.0
H958 H 0.61039 1.00904 0.91219 0.0
H959 H 0.63094 0.97809 1.01432 0.0
S960 S 0.67096 0.12274 0.3046 0.0
N961 N 0.64831 0.11383 0.19347 0.0
N962 N 0.67541 0.08517 0.29389 0.0
C963 C 0.65764 0.06262 0.19762 0.0
C964 C 0.64359 0.07919 0.14084 0.0
C965 C 0.14803 0.69646 0.29148 0.0
C966 C 0.16645 0.71675 0.39428 0.0
C967 C 0.13115 0.65371 0.25902 0.0
C968 C 0.13032 0.62763 0.32789 0.0
H969 H 0.14707 0.7138 0.23395 0.0
H970 H 0.11844 0.64093 0.17795 0.0
S971 S 0.1741 0.66432 0.60672 0.0
N972 N 0.18296 0.70576 0.56375 0.0
N973 N 0.15038 0.62742 0.50654 0.0
C974 C 0.14871 0.64766 0.43068 0.0
C975 C 0.1666 0.69113 0.46261 0.0
C976 C 0.42684 0.36349 0.32397 0.0
C977 C 0.42044 0.38309 0.25205 0.0
C978 C 0.41199 0.35275 0.41196 0.0
C979 C 0.39144 0.36315 0.43376 0.0
H980 H 0.44345 0.35654 0.31258 0.0
H981 H 0.4165 0.33598 0.46254 0.0
S982 S 0.37262 0.42284 0.28132 0.0
N983 N 0.39509 0.41639 0.21329 0.0
N984 N 0.36934 0.40004 0.38437 0.0
C985 C 0.38673 0.38554 0.36619 0.0
C986 C 0.40087 0.39482 0.27433 0.0
C987 C 0.85406 0.71336 0.44629 0.0
C988 C 0.85858 0.71696 0.55891 0.0
C989 C 0.83556 0.72377 0.39445 0.0
C990 C 0.82093 0.73823 0.45293 0.0
H991 H 0.86464 0.70218 0.39783 0.0
H992 H 0.83234 0.71995 0.30771 0.0
S993 S 0.82239 0.74897 0.74738 0.0
N994 N 0.8446 0.73315 0.7261 0.0
N995 N 0.81067 0.75316 0.62798 0.0
C996 C 0.82506 0.7417 0.56497 0.0
C997 C 0.84361 0.73089 0.61795 0.0
C998 C 0.33511 0.0314 0.6967 0.0
C999 C 0.3345 0.05973 0.64055 0.0
C1000 C 0.31239 0.98963 0.67282 0.0
C1001 C 0.2872 0.97213 0.58919 0.0
H1002 H 0.35349 0.0416 0.76188 0.0
H1003 H 0.31476 0.97076 0.7215 0.0
S1004 S 0.27315 0.0315 0.41601 0.0
N1005 N 0.30477 0.06567 0.49759 0.0
N1006 N 0.26353 0.98836 0.44965 0.0
C1007 C 0.28618 0.99997 0.53177 0.0
C1008 C 0.30922 0.04288 0.55753 0.0
C1009 C 0.97746 0.16436 0.60527 0.0
C1010 C 0.97687 0.18107 0.70824 0.0
C1011 C 1.00373 0.16743 0.57786 0.0
C1012 C 0.03139 0.1877 0.65102 0.0
H1013 H 0.9574 0.14884 0.54441 0.0
H1014 H 1.00247 0.15438 0.49653 0.0
S1015 S 0.04304 0.23869 0.93038 0.0
N1016 N 1.00745 0.21991 0.88349 0.0
N1017 N 0.056 0.22536 0.83188 0.0
C1018 C 0.03105 0.20413 0.75469 0.0
C1019 C 1.00424 0.20102 0.7829 0.0
C1020 C 0.33061 0.23546 0.79997 0.0
C1021 C 0.3292 0.20257 0.73896 0.0
C1022 C 0.30698 0.2426 0.78664 0.0
C1023 C 0.28013 0.21824 0.70882 0.0
H1024 H 0.35042 0.25629 0.85959 0.0
H1025 H 0.31011 0.26819 0.83841 0.0
S1026 S 0.26445 0.12789 0.52481 0.0
N1027 N 0.29762 0.1449 0.59638 0.0
N1028 N 0.2545 0.15861 0.56941 0.0
C1029 C 0.27838 0.185 0.64733 0.0
C1030 C 0.30233 0.17732 0.66241 0.0
C1031 C 0.78773 1.00752 0.56384 0.0
C1032 C 0.78956 0.99233 0.4605 0.0
C1033 C 0.81059 0.0463 0.6231 0.0
C1034 C 0.83676 0.07285 0.58308 0.0
H1035 H 0.76877 0.98885 0.601 0.0
H1036 H 0.80754 0.05562 0.70166 0.0
S1037 S 0.8527 0.04903 0.31518 0.0
N1038 N 0.82 1.0088 0.31983 0.0
N1039 N 0.86234 0.0798 0.4306 0.0
C1040 C 0.83852 0.0583 0.47899 0.0
C1041 C 0.81531 0.01887 0.41857 0.0
C1042 C 0.99174 0.74587 0.60516 0.0
C1043 C 0.97142 0.70586 0.61258 0.0
C1044 C 0.01831 0.7581 0.5641 0.0
C1045 C 0.02528 0.73048 0.52548 0.0
H1046 H 0.98677 0.76789 0.62836 0.0
H1047 H 0.03297 0.78917 0.55903 0.0
S1048 S 0.97959 0.62171 0.51861 0.0
N1049 N 0.96047 0.63828 0.5733 0.0
N1050 N 1.00972 0.66129 0.49354 0.0
C1051 C 1.00513 0.69031 0.52994 0.0
C1052 C 0.97837 0.67793 0.57355 0.0
loop_
_geom_bond_atom_site_label_1
_geom_bond_atom_site_label_2
_geom_bond_distance
_geom_bond_site_symmetry_2
_ccdc_geom_bond_type
Eu0 N29 2.600 . S
Eu0 N35 2.562 . S
Eu0 O44 2.462 . S
Eu0 O45 2.373 . S
Eu0 O47 2.432 . S
Eu0 O48 2.291 1_655 S
Eu0 O52 2.335 1_655 S
Eu0 O55 2.372 1_655 S
Eu0 C64 2.787 . S
C1 N2 1.365 . S
C1 C4 1.405 . S
C1 C8 1.448 . S
N2 C1 1.365 . S
N2 C5 1.319 . S
N2 Eu11 2.600 . S
C3 C5 1.397 1_556 S
C3 C6 1.367 1_556 S
C3 H23 0.931 . S
C4 C1 1.405 . S
C4 C6 1.403 . S
C4 C10 1.439 . S
C5 N2 1.319 . S
C5 C3 1.397 1_554 S
C5 H16 0.930 1_554 S
C6 C3 1.367 1_554 S
C6 C4 1.403 . S
C6 H27 0.929 . S
C7 C8 1.430 . S
C7 C9 1.387 . S
C7 C13 1.404 . S
C8 C1 1.448 . S
C8 C7 1.430 . S
C8 N12 1.351 . S
C9 C7 1.387 . S
C9 C10 1.374 . S
C9 H24 0.931 . S
C10 C4 1.439 . S
C10 C9 1.374 . S
C10 H25 0.931 . S
Eu11 N2 2.600 . S
Eu11 N12 2.562 . S
Eu11 O46 2.335 . S
Eu11 O49 2.365 1_554 S
Eu11 O50 2.462 . S
Eu11 O51 2.373 . S
Eu11 O53 2.432 . S
Eu11 O54 2.291 . S
Eu11 C75 2.787 . S
N12 C8 1.351 . S
N12 Eu11 2.562 . S
N12 C14 1.325 . S
C13 C7 1.404 . S
C13 C15 1.366 . S
C13 H21 0.930 . S
C14 N12 1.325 . S
C14 C15 1.416 . S
C14 H20 0.929 . S
C15 C13 1.366 . S
C15 C14 1.416 . S
C15 H17 0.930 . S
H16 C5 0.930 1_556 S
H17 C15 0.930 . S
H18 C33 0.930 . S
H19 C40 0.930 . S
H20 C14 0.929 . S
H21 C13 0.930 . S
H22 C36 0.929 . S
H23 C3 0.931 . S
H24 C9 0.931 . S
H25 C10 0.931 . S
H26 C31 0.931 . S
H27 C6 0.929 . S
H28 C39 0.930 . S
N29 Eu0 2.600 . S
N29 C30 1.365 . S
N29 C33 1.319 . S
C30 N29 1.365 . S
C30 C32 1.405 . S
C30 C38 1.448 . S
C31 H26 0.931 . S
C31 C33 1.397 . S
C31 C34 1.367 . S
C32 C30 1.405 . S
C32 C34 1.403 . S
C32 C65 1.439 . S
C33 H18 0.930 . S
C33 N29 1.319 . S
C33 C31 1.397 . S
C34 C31 1.367 . S
C34 C32 1.403 . S
C34 H41 0.929 . S
N35 Eu0 2.562 . S
N35 C36 1.325 1_554 S
N35 C38 1.351 . S
C36 H22 0.929 . S
C36 N35 1.325 1_556 S
C36 C40 1.416 . S
C37 C38 1.430 1_556 S
C37 C39 1.404 . S
C37 C66 1.387 . S
C38 C30 1.448 . S
C38 N35 1.351 . S
C38 C37 1.430 1_554 S
C39 H28 0.930 . S
C39 C37 1.404 . S
C39 C40 1.366 . S
C40 H19 0.930 . S
C40 C36 1.416 . S
C40 C39 1.366 . S
H41 C34 0.929 . S
H42 C65 0.931 . S
H43 C66 0.931 . S
O44 Eu0 2.462 . S
O44 C64 1.252 . S
O45 Eu0 2.373 . S
O45 C56 1.249 . S
O46 Eu11 2.335 . S
O46 C56 1.264 1_455 S
O47 Eu0 2.432 . S
O47 C64 1.268 . S
O48 Eu0 2.291 1_455 S
O48 C63 1.255 1_554 S
O49 Eu11 2.365 1_556 S
O49 C63 1.258 . S
O50 Eu11 2.462 . S
O50 C75 1.252 . S
O51 Eu11 2.373 . S
O51 C67 1.249 . S
O52 Eu0 2.335 1_455 S
O52 C67 1.264 . S
O53 Eu11 2.432 . S
O53 C75 1.268 . S
O54 Eu11 2.291 . S
O54 C74 1.255 . S
O55 Eu0 2.372 1_455 S
O55 C74 1.257 . S
C56 O45 1.249 . S
C56 O46 1.264 1_655 S
C57 C60 1.382 . S
C57 C62 1.390 . S
C57 C64 1.506 . S
C58 C59 1.398 1_556 S
C58 C62 1.392 1_556 S
C59 C58 1.398 1_554 S
C59 C61 1.372 . S
C59 H76 0.931 . S
C60 C57 1.382 . S
C60 C61 1.390 . S
C60 H77 0.931 . S
C61 C59 1.372 . S
C61 C60 1.390 . S
C61 H78 0.929 . S
C62 C57 1.390 . S
C62 C58 1.392 1_554 S
C62 H79 0.930 1_554 S
C63 O48 1.255 1_556 S
C63 O49 1.258 . S
C64 Eu0 2.787 . S
C64 O44 1.252 . S
C64 O47 1.268 . S
C64 C57 1.506 . S
C65 C32 1.439 . S
C65 H42 0.931 . S
C65 C66 1.374 1_554 S
C66 C37 1.387 . S
C66 H43 0.931 . S
C66 C65 1.374 1_556 S
C67 O51 1.249 . S
C67 O52 1.264 . S
C68 C71 1.382 . S
C68 C72 1.390 . S
C68 C75 1.506 . S
C69 C70 1.398 . S
C69 C72 1.392 . S
C70 C69 1.398 . S
C70 C73 1.372 . S
C70 H80 0.931 . S
C71 C68 1.382 . S
C71 C73 1.390 . S
C71 H81 0.931 . S
C72 C68 1.390 . S
C72 C69 1.392 . S
C72 H82 0.930 . S
C73 C70 1.372 . S
C73 C71 1.390 . S
C73 H83 0.929 . S
C74 O54 1.255 . S
C74 O55 1.257 . S
C75 Eu11 2.787 . S
C75 O50 1.252 . S
C75 O53 1.268 . S
C75 C68 1.506 . S
H76 C59 0.931 . S
H77 C60 0.931 . S
H78 C61 0.929 . S
H79 C62 0.930 1_556 S
H80 C70 0.931 . S
H81 C71 0.931 . S
H82 C72 0.930 . S
H83 C73 0.929 . S
Eu84 N113 2.600 1_554 S
Eu84 N119 2.562 . S
Eu84 O128 2.462 . S
Eu84 O129 2.373 . S
Eu84 O131 2.432 1_554 S
Eu84 O132 2.291 . S
Eu84 O136 2.335 . S
Eu84 O139 2.372 1_554 S
Eu84 C148 2.787 . S
C85 N86 1.365 . S
C85 C88 1.405 . S
C85 C92 1.448 . S
N86 C85 1.365 . S
N86 C89 1.319 . S
N86 Eu95 2.600 . S
C87 C89 1.397 . S
C87 C90 1.367 . S
C87 H107 0.931 . S
C88 C85 1.405 . S
C88 C90 1.403 . S
C88 C94 1.439 . S
C89 N86 1.319 . S
C89 C87 1.397 . S
C89 H100 0.930 . S
C90 C87 1.367 . S
C90 C88 1.403 . S
C90 H111 0.929 . S
C91 C92 1.430 1_556 S
C91 C93 1.387 . S
C91 C97 1.404 . S
C92 C85 1.448 . S
C92 C91 1.430 1_554 S
C92 N96 1.351 1_554 S
C93 C91 1.387 . S
C93 C94 1.374 1_556 S
C93 H108 0.931 . S
C94 C88 1.439 . S
C94 C93 1.374 1_554 S
C94 H109 0.931 . S
Eu95 N86 2.600 . S
Eu95 N96 2.562 1_554 S
Eu95 O130 2.335 . S
Eu95 O133 2.372 . S
Eu95 O134 2.462 1_554 S
Eu95 O135 2.373 . S
Eu95 O137 2.432 . S
Eu95 O138 2.291 1_554 S
Eu95 C159 2.787 . S
N96 C92 1.351 1_556 S
N96 Eu95 2.562 1_556 S
N96 C98 1.325 . S
C97 C91 1.404 . S
C97 C99 1.366 . S
C97 H105 0.930 . S
C98 N96 1.325 . S
C98 C99 1.416 . S
C98 H104 0.929 . S
C99 C97 1.366 . S
C99 C98 1.416 . S
C99 H101 0.930 . S
H100 C89 0.930 . S
H101 C99 0.930 . S
H102 C117 0.930 . S
H103 C124 0.930 . S
H104 C98 0.929 . S
H105 C97 0.930 . S
H106 C120 0.929 . S
H107 C87 0.931 . S
H108 C93 0.931 . S
H109 C94 0.931 . S
H110 C115 0.931 . S
H111 C90 0.929 . S
H112 C123 0.930 . S
N113 Eu84 2.600 1_556 S
N113 C114 1.365 1_556 S
N113 C117 1.319 . S
C114 N113 1.365 1_554 S
C114 C116 1.405 1_554 S
C114 C122 1.448 . S
C115 H110 0.931 . S
C115 C117 1.397 . S
C115 C118 1.367 . S
C116 C114 1.405 1_556 S
C116 C118 1.403 . S
C116 C149 1.439 1_556 S
C117 H102 0.930 . S
C117 N113 1.319 . S
C117 C115 1.397 . S
C118 C115 1.367 . S
C118 C116 1.403 . S
C118 H125 0.929 . S
N119 Eu84 2.562 . S
N119 C120 1.325 . S
N119 C122 1.351 . S
C120 H106 0.929 . S
C120 N119 1.325 . S
C120 C124 1.416 . S
C121 C122 1.430 . S
C121 C123 1.404 . S
C121 C150 1.387 . S
C122 C114 1.448 . S
C122 N119 1.351 . S
C122 C121 1.430 . S
C123 H112 0.930 . S
C123 C121 1.404 . S
C123 C124 1.366 . S
C124 H103 0.930 . S
C124 C120 1.416 . S
C124 C123 1.366 . S
H125 C118 0.929 . S
H126 C149 0.931 . S
H127 C150 0.931 . S
O128 Eu84 2.462 . S
O128 C148 1.252 . S
O129 Eu84 2.373 . S
O129 C140 1.249 . S
O130 Eu95 2.335 . S
O130 C140 1.264 . S
O131 Eu84 2.432 1_556 S
O131 C148 1.268 1_556 S
O132 Eu84 2.291 . S
O132 C147 1.255 . S
O133 Eu95 2.372 . S
O133 C147 1.257 . S
O134 Eu95 2.462 1_556 S
O134 C159 1.252 1_556 S
O135 Eu95 2.373 . S
O135 C151 1.249 . S
O136 Eu84 2.335 . S
O136 C151 1.264 . S
O137 Eu95 2.432 . S
O137 C159 1.268 . S
O138 Eu95 2.291 1_556 S
O138 C158 1.255 . S
O139 Eu84 2.372 1_556 S
O139 C158 1.257 . S
C140 O129 1.249 . S
C140 O130 1.264 . S
C141 C144 1.382 1_554 S
C141 C146 1.390 . S
C141 C148 1.506 . S
C142 C143 1.398 . S
C142 C146 1.392 . S
C143 C142 1.398 . S
C143 C145 1.372 . S
C143 H160 0.931 . S
C144 C141 1.382 1_556 S
C144 C145 1.390 1_556 S
C144 H161 0.931 . S
C145 C143 1.372 . S
C145 C144 1.390 1_554 S
C145 H162 0.929 1_554 S
C146 C141 1.390 . S
C146 C142 1.392 . S
C146 H163 0.930 . S
C147 O132 1.255 . S
C147 O133 1.257 . S
C148 Eu84 2.787 . S
C148 O128 1.252 . S
C148 O131 1.268 1_554 S
C148 C141 1.506 . S
C149 C116 1.439 1_554 S
C149 H126 0.931 . S
C149 C150 1.374 . S
C150 C121 1.387 . S
C150 H127 0.931 . S
C150 C149 1.374 . S
C151 O135 1.249 . S
C151 O136 1.264 . S
C152 C155 1.382 . S
C152 C156 1.390 1_554 S
C152 C159 1.506 . S
C153 C154 1.398 1_556 S
C153 C156 1.392 . S
C154 C153 1.398 1_554 S
C154 C157 1.372 . S
C154 H164 0.931 . S
C155 C152 1.382 . S
C155 C157 1.390 . S
C155 H165 0.931 . S
C156 C152 1.390 1_556 S
C156 C153 1.392 . S
C156 H166 0.930 . S
C157 C154 1.372 . S
C157 C155 1.390 . S
C157 H167 0.929 . S
C158 O138 1.255 . S
C158 O139 1.257 . S
C159 Eu95 2.787 . S
C159 O134 1.252 1_554 S
C159 O137 1.268 . S
C159 C152 1.506 . S
H160 C143 0.931 . S
H161 C144 0.931 . S
H162 C145 0.929 1_556 S
H163 C146 0.930 . S
H164 C154 0.931 . S
H165 C155 0.931 . S
H166 C156 0.930 . S
H167 C157 0.929 . S
Eu168 N197 2.600 . S
Eu168 N203 2.562 1_554 S
Eu168 O212 2.462 1_554 S
Eu168 O213 2.373 . S
Eu168 O215 2.432 . S
Eu168 O216 2.291 1_554 S
Eu168 O220 2.335 . S
Eu168 O223 2.372 . S
Eu168 C232 2.787 . S
C169 N170 1.365 . S
C169 C172 1.405 . S
C169 C176 1.448 . S
N170 C169 1.365 . S
N170 C173 1.319 . S
N170 Eu179 2.600 1_565 S
C171 C173 1.397 . S
C171 C174 1.367 . S
C171 H191 0.931 . S
C172 C169 1.405 . S
C172 C174 1.403 . S
C172 C178 1.439 . S
C173 N170 1.319 . S
C173 C171 1.397 . S
C173 H184 0.930 . S
C174 C171 1.367 . S
C174 C172 1.403 . S
C174 H195 0.929 . S
C175 C176 1.430 1_554 S
C175 C177 1.387 1_554 S
C175 C181 1.404 . S
C176 C169 1.448 . S
C176 C175 1.430 1_556 S
C176 N180 1.351 1_556 S
C177 C175 1.387 1_556 S
C177 C178 1.374 . S
C177 H192 0.931 1_556 S
C178 C172 1.439 . S
C178 C177 1.374 . S
C178 H193 0.931 . S
Eu179 N170 2.600 1_545 S
Eu179 N180 2.562 1_546 S
Eu179 O214 2.335 . S
Eu179 O217 2.372 . S
Eu179 O218 2.462 1_556 S
Eu179 O219 2.373 . S
Eu179 O221 2.432 . S
Eu179 O222 2.291 1_556 S
Eu179 C243 2.787 . S
N180 C176 1.351 1_554 S
N180 Eu179 2.562 1_564 S
N180 C182 1.325 . S
C181 C175 1.404 . S
C181 C183 1.366 . S
C181 H189 0.930 . S
C182 N180 1.325 . S
C182 C183 1.416 . S
C182 H188 0.929 1_565 S
C183 C181 1.366 . S
C183 C182 1.416 . S
C183 H185 0.930 . S
H184 C173 0.930 . S
H185 C183 0.930 . S
H186 C201 0.930 . S
H187 C208 0.930 . S
H188 C182 0.929 1_545 S
H189 C181 0.930 . S
H190 C204 0.929 . S
H191 C171 0.931 . S
H192 C177 0.931 1_554 S
H193 C178 0.931 . S
H194 C199 0.931 . S
H195 C174 0.929 . S
H196 C207 0.930 . S
N197 Eu168 2.600 . S
N197 C198 1.365 . S
N197 C201 1.319 . S
C198 N197 1.365 . S
C198 C200 1.405 . S
C198 C206 1.448 . S
C199 H194 0.931 . S
C199 C201 1.397 . S
C199 C202 1.367 . S
C200 C198 1.405 . S
C200 C202 1.403 . S
C200 C233 1.439 . S
C201 H186 0.930 . S
C201 N197 1.319 . S
C201 C199 1.397 . S
C202 C199 1.367 . S
C202 C200 1.403 . S
C202 H209 0.929 . S
N203 Eu168 2.562 1_556 S
N203 C204 1.325 . S
N203 C206 1.351 1_556 S
C204 H190 0.929 . S
C204 N203 1.325 . S
C204 C208 1.416 . S
C205 C206 1.430 1_556 S
C205 C207 1.404 . S
C205 C234 1.387 1_556 S
C206 C198 1.448 . S
C206 N203 1.351 1_554 S
C206 C205 1.430 1_554 S
C207 H196 0.930 . S
C207 C205 1.404 . S
C207 C208 1.366 . S
C208 H187 0.930 . S
C208 C204 1.416 . S
C208 C207 1.366 . S
H209 C202 0.929 . S
H210 C233 0.931 . S
H211 C234 0.931 . S
O212 Eu168 2.462 1_556 S
O212 C232 1.252 1_556 S
O213 Eu168 2.373 . S
O213 C224 1.249 1_554 S
O214 Eu179 2.335 . S
O214 C224 1.264 . S
O215 Eu168 2.432 . S
O215 C232 1.268 . S
O216 Eu168 2.291 1_556 S
O216 C231 1.255 . S
O217 Eu179 2.372 . S
O217 C231 1.257 . S
O218 Eu179 2.462 1_554 S
O218 C243 1.252 1_554 S
O219 Eu179 2.373 . S
O219 C235 1.249 1_556 S
O220 Eu168 2.335 . S
O220 C235 1.264 . S
O221 Eu179 2.432 . S
O221 C243 1.268 . S
O222 Eu179 2.291 1_554 S
O222 C242 1.255 . S
O223 Eu168 2.372 . S
O223 C242 1.257 . S
C224 O213 1.249 1_556 S
C224 O214 1.264 . S
C225 C228 1.382 . S
C225 C230 1.390 1_554 S
C225 C232 1.506 . S
C226 C227 1.398 1_556 S
C226 C230 1.392 . S
C227 C226 1.398 1_554 S
C227 C229 1.372 . S
C227 H244 0.931 . S
C228 C225 1.382 . S
C228 C229 1.390 . S
C228 H245 0.931 . S
C229 C227 1.372 . S
C229 C228 1.390 . S
C229 H246 0.929 . S
C230 C225 1.390 1_556 S
C230 C226 1.392 . S
C230 H247 0.930 . S
C231 O216 1.255 . S
C231 O217 1.257 . S
C232 Eu168 2.787 . S
C232 O212 1.252 1_554 S
C232 O215 1.268 . S
C232 C225 1.506 . S
C233 C200 1.439 . S
C233 H210 0.931 . S
C233 C234 1.374 . S
C234 C205 1.387 1_554 S
C234 H211 0.931 . S
C234 C233 1.374 . S
C235 O219 1.249 1_554 S
C235 O220 1.264 . S
C236 C239 1.384 . S
C236 C240 1.384 1_566 S
C236 C243 1.511 1_565 S
C237 C238 1.398 1_554 S
C237 C240 1.392 1_565 S
C238 C237 1.398 1_556 S
C238 C241 1.372 . S
C238 H248 0.931 . S
C239 C236 1.384 . S
C239 C241 1.390 . S
C239 H249 0.931 . S
C240 C236 1.384 1_544 S
C240 C237 1.392 1_545 S
C240 H250 0.930 . S
C241 C238 1.372 . S
C241 C239 1.390 . S
C241 H251 0.929 . S
C242 O222 1.255 . S
C242 O223 1.257 . S
C243 Eu179 2.787 . S
C243 O218 1.252 1_556 S
C243 O221 1.268 . S
C243 C236 1.511 1_545 S
H244 C227 0.931 . S
H245 C228 0.931 . S
H246 C229 0.929 . S
H247 C230 0.930 . S
H248 C238 0.931 . S
H249 C239 0.931 . S
H250 C240 0.930 . S
H251 C241 0.929 . S
Eu252 N281 2.600 . S
Eu252 N287 2.562 . S
Eu252 O296 2.462 . S
Eu252 O297 2.373 . S
Eu252 O299 2.432 . S
Eu252 O300 2.291 . S
Eu252 O304 2.335 . S
Eu252 O307 2.372 . S
Eu252 C316 2.787 . S
C253 N254 1.365 . S
C253 C256 1.405 . S
C253 C260 1.448 . S
N254 C253 1.365 . S
N254 C257 1.319 . S
N254 Eu263 2.600 . S
C255 C257 1.397 . S
C255 C258 1.367 . S
C255 H275 0.931 1_554 S
C256 C253 1.405 . S
C256 C258 1.403 . S
C256 C262 1.439 . S
C257 N254 1.319 . S
C257 C255 1.397 . S
C257 H268 0.930 . S
C258 C255 1.367 . S
C258 C256 1.403 . S
C258 H279 0.929 . S
C259 C260 1.430 . S
C259 C261 1.387 . S
C259 C265 1.404 . S
C260 C253 1.448 . S
C260 C259 1.430 . S
C260 N264 1.351 . S
C261 C259 1.387 . S
C261 C262 1.374 . S
C261 H276 0.931 1_565 S
C262 C256 1.439 . S
C262 C261 1.374 . S
C262 H277 0.931 1_565 S
Eu263 N254 2.600 . S
Eu263 N264 2.562 . S
Eu263 O298 2.335 . S
Eu263 O301 2.372 . S
Eu263 O302 2.462 . S
Eu263 O303 2.373 . S
Eu263 O305 2.432 . S
Eu263 O306 2.291 . S
Eu263 C327 2.787 . S
N264 C260 1.351 . S
N264 Eu263 2.562 . S
N264 C266 1.325 . S
C265 C259 1.404 . S
C265 C267 1.366 . S
C265 H273 0.930 . S
C266 N264 1.325 . S
C266 C267 1.416 . S
C266 H272 0.929 . S
C267 C265 1.366 . S
C267 C266 1.416 . S
C267 H269 0.930 . S
H268 C257 0.930 . S
H269 C267 0.930 . S
H270 C285 0.930 . S
H271 C292 0.930 . S
H272 C266 0.929 . S
H273 C265 0.930 . S
H274 C288 0.929 . S
H275 C255 0.931 1_556 S
H276 C261 0.931 1_545 S
H277 C262 0.931 1_545 S
H278 C283 0.931 . S
H279 C258 0.929 . S
H280 C291 0.930 . S
N281 Eu252 2.600 . S
N281 C282 1.365 . S
N281 C285 1.319 . S
C282 N281 1.365 . S
C282 C284 1.405 . S
C282 C290 1.448 . S
C283 H278 0.931 . S
C283 C285 1.397 . S
C283 C286 1.367 . S
C284 C282 1.405 . S
C284 C286 1.403 . S
C284 C317 1.439 . S
C285 H270 0.930 . S
C285 N281 1.319 . S
C285 C283 1.397 . S
C286 C283 1.367 . S
C286 C284 1.403 . S
C286 H293 0.929 . S
N287 Eu252 2.562 . S
N287 C288 1.325 1_554 S
N287 C290 1.351 . S
C288 H274 0.929 . S
C288 N287 1.325 1_556 S
C288 C292 1.416 . S
C289 C290 1.430 . S
C289 C291 1.404 1_554 S
C289 C318 1.387 . S
C290 C282 1.448 . S
C290 N287 1.351 . S
C290 C289 1.430 . S
C291 H280 0.930 . S
C291 C289 1.404 1_556 S
C291 C292 1.366 . S
C292 H271 0.930 . S
C292 C288 1.416 . S
C292 C291 1.366 . S
H293 C286 0.929 . S
H294 C317 0.931 . S
H295 C318 0.931 . S
O296 Eu252 2.462 . S
O296 C316 1.252 . S
O297 Eu252 2.373 . S
O297 C308 1.249 . S
O298 Eu263 2.335 . S
O298 C308 1.264 . S
O299 Eu252 2.432 . S
O299 C316 1.268 . S
O300 Eu252 2.291 . S
O300 C315 1.255 . S
O301 Eu263 2.372 . S
O301 C315 1.257 . S
O302 Eu263 2.462 . S
O302 C327 1.252 . S
O303 Eu263 2.373 . S
O303 C319 1.249 . S
O304 Eu252 2.335 . S
O304 C319 1.264 . S
O305 Eu263 2.432 . S
O305 C327 1.268 . S
O306 Eu263 2.291 . S
O306 C326 1.255 . S
O307 Eu252 2.372 . S
O307 C326 1.257 . S
C308 O297 1.249 . S
C308 O298 1.264 . S
C309 C312 1.382 . S
C309 C314 1.390 . S
C309 C316 1.506 . S
C310 C311 1.398 . S
C310 C314 1.392 . S
C311 C310 1.398 . S
C311 C313 1.372 . S
C311 H328 0.931 . S
C312 C309 1.382 . S
C312 C313 1.390 . S
C312 H329 0.931 . S
C313 C311 1.372 . S
C313 C312 1.390 . S
C313 H330 0.929 . S
C314 C309 1.390 . S
C314 C310 1.392 . S
C314 H331 0.930 . S
C315 O300 1.255 . S
C315 O301 1.257 . S
C316 Eu252 2.787 . S
C316 O296 1.252 . S
C316 O299 1.268 . S
C316 C309 1.506 . S
C317 C284 1.439 . S
C317 H294 0.931 . S
C317 C318 1.374 . S
C318 C289 1.387 . S
C318 H295 0.931 . S
C318 C317 1.374 . S
C319 O303 1.249 . S
C319 O304 1.264 . S
C320 C323 1.382 . S
C320 C324 1.390 . S
C320 C327 1.506 . S
C321 C322 1.398 . S
C321 C324 1.392 . S
C322 C321 1.398 . S
C322 C325 1.372 . S
C322 H332 0.931 . S
C323 C320 1.382 . S
C323 C325 1.390 . S
C323 H333 0.931 . S
C324 C320 1.390 . S
C324 C321 1.392 . S
C324 H334 0.930 . S
C325 C322 1.372 . S
C325 C323 1.390 . S
C325 H335 0.929 . S
C326 O306 1.255 . S
C326 O307 1.257 . S
C327 Eu263 2.787 . S
C327 O302 1.252 . S
C327 O305 1.268 . S
C327 C320 1.506 . S
H328 C311 0.931 . S
H329 C312 0.931 . S
H330 C313 0.929 . S
H331 C314 0.930 . S
H332 C322 0.931 . S
H333 C323 0.931 . S
H334 C324 0.930 . S
H335 C325 0.929 . S
Eu336 N365 2.600 . S
Eu336 N371 2.562 . S
Eu336 O380 2.462 . S
Eu336 O381 2.373 . S
Eu336 O383 2.432 . S
Eu336 O384 2.291 . S
Eu336 O388 2.335 . S
Eu336 O391 2.372 . S
Eu336 C400 2.787 . S
C337 N338 1.365 . S
C337 C340 1.405 . S
C337 C344 1.448 . S
N338 C337 1.365 . S
N338 C341 1.319 . S
N338 Eu347 2.600 . S
C339 C341 1.397 . S
C339 C342 1.367 . S
C339 H359 0.931 . S
C340 C337 1.405 . S
C340 C342 1.403 . S
C340 C346 1.439 . S
C341 N338 1.319 . S
C341 C339 1.397 . S
C341 H352 0.930 . S
C342 C339 1.367 . S
C342 C340 1.403 . S
C342 H363 0.929 . S
C343 C344 1.430 . S
C343 C345 1.387 . S
C343 C349 1.404 . S
C344 C337 1.448 . S
C344 C343 1.430 . S
C344 N348 1.351 . S
C345 C343 1.387 . S
C345 C346 1.374 . S
C345 H360 0.931 . S
C346 C340 1.439 . S
C346 C345 1.374 . S
C346 H361 0.931 . S
Eu347 N338 2.600 . S
Eu347 N348 2.562 . S
Eu347 O382 2.335 . S
Eu347 O385 2.372 . S
Eu347 O386 2.462 . S
Eu347 O387 2.373 . S
Eu347 O389 2.432 . S
Eu347 O390 2.291 . S
Eu347 C411 2.787 . S
N348 C344 1.351 . S
N348 Eu347 2.562 . S
N348 C350 1.325 . S
C349 C343 1.404 . S
C349 C351 1.366 . S
C349 H357 0.930 . S
C350 N348 1.325 . S
C350 C351 1.416 . S
C350 H356 0.929 . S
C351 C349 1.366 . S
C351 C350 1.416 . S
C351 H353 0.930 1_554 S
H352 C341 0.930 . S
H353 C351 0.930 1_556 S
H354 C369 0.930 . S
H355 C376 0.930 . S
H356 C350 0.929 . S
H357 C349 0.930 . S
H358 C372 0.929 . S
H359 C339 0.931 . S
H360 C345 0.931 . S
H361 C346 0.931 . S
H362 C367 0.931 1_556 S
H363 C342 0.929 . S
H364 C375 0.930 . S
N365 Eu336 2.600 . S
N365 C366 1.365 . S
N365 C369 1.319 . S
C366 N365 1.365 . S
C366 C368 1.405 . S
C366 C374 1.448 . S
C367 H362 0.931 1_554 S
C367 C369 1.397 . S
C367 C370 1.367 . S
C368 C366 1.405 . S
C368 C370 1.403 . S
C368 C401 1.439 . S
C369 H354 0.930 . S
C369 N365 1.319 . S
C369 C367 1.397 . S
C370 C367 1.367 . S
C370 C368 1.403 . S
C370 H377 0.929 . S
N371 Eu336 2.562 . S
N371 C372 1.325 . S
N371 C374 1.351 . S
C372 H358 0.929 . S
C372 N371 1.325 . S
C372 C376 1.416 . S
C373 C374 1.430 . S
C373 C375 1.404 . S
C373 C402 1.387 . S
C374 C366 1.448 . S
C374 N371 1.351 . S
C374 C373 1.430 . S
C375 H364 0.930 . S
C375 C373 1.404 . S
C375 C376 1.366 . S
C376 H355 0.930 . S
C376 C372 1.416 . S
C376 C375 1.366 . S
H377 C370 0.929 . S
H378 C401 0.931 1_545 S
H379 C402 0.931 1_545 S
O380 Eu336 2.462 . S
O380 C400 1.252 . S
O381 Eu336 2.373 . S
O381 C392 1.249 . S
O382 Eu347 2.335 . S
O382 C392 1.264 . S
O383 Eu336 2.432 . S
O383 C400 1.268 . S
O384 Eu336 2.291 . S
O384 C399 1.255 . S
O385 Eu347 2.372 . S
O385 C399 1.257 . S
O386 Eu347 2.462 . S
O386 C411 1.252 . S
O387 Eu347 2.373 . S
O387 C403 1.249 . S
O388 Eu336 2.335 . S
O388 C403 1.264 . S
O389 Eu347 2.432 . S
O389 C411 1.268 . S
O390 Eu347 2.291 . S
O390 C410 1.255 . S
O391 Eu336 2.372 . S
O391 C410 1.257 . S
C392 O381 1.249 . S
C392 O382 1.264 . S
C393 C396 1.382 . S
C393 C398 1.390 . S
C393 C400 1.506 . S
C394 C395 1.398 1_455 S
C394 C398 1.392 . S
C395 C394 1.398 1_655 S
C395 C397 1.372 . S
C395 H412 0.931 . S
C396 C393 1.382 . S
C396 C397 1.390 1_455 S
C396 H413 0.931 . S
C397 C395 1.372 . S
C397 C396 1.390 1_655 S
C397 H414 0.929 . S
C398 C393 1.390 . S
C398 C394 1.392 . S
C398 H415 0.930 . S
C399 O384 1.255 . S
C399 O385 1.257 . S
C400 Eu336 2.787 . S
C400 O380 1.252 . S
C400 O383 1.268 . S
C400 C393 1.506 . S
C401 C368 1.439 . S
C401 H378 0.931 1_565 S
C401 C402 1.374 . S
C402 C373 1.387 . S
C402 H379 0.931 1_565 S
C402 C401 1.374 . S
C403 O387 1.249 . S
C403 O388 1.264 . S
C404 C407 1.382 . S
C404 C408 1.390 . S
C404 C411 1.506 . S
C405 C406 1.398 . S
C405 C408 1.392 . S
C406 C405 1.398 . S
C406 C409 1.372 . S
C406 H416 0.931 . S
C407 C404 1.382 . S
C407 C409 1.390 . S
C407 H417 0.931 . S
C408 C404 1.390 . S
C408 C405 1.392 . S
C408 H418 0.930 . S
C409 C406 1.372 . S
C409 C407 1.390 . S
C409 H419 0.929 . S
C410 O390 1.255 . S
C410 O391 1.257 . S
C411 Eu347 2.787 . S
C411 O386 1.252 . S
C411 O389 1.268 . S
C411 C404 1.506 . S
H412 C395 0.931 . S
H413 C396 0.931 . S
H414 C397 0.929 . S
H415 C398 0.930 . S
H416 C406 0.931 . S
H417 C407 0.931 . S
H418 C408 0.930 . S
H419 C409 0.929 . S
Eu420 N449 2.600 . S
Eu420 N455 2.562 . S
Eu420 O464 2.462 . S
Eu420 O465 2.373 . S
Eu420 O467 2.432 . S
Eu420 O468 2.291 . S
Eu420 O472 2.335 . S
Eu420 O475 2.372 . S
Eu420 C484 2.787 . S
C421 N422 1.365 . S
C421 C424 1.405 . S
C421 C428 1.448 . S
N422 C421 1.365 . S
N422 C425 1.319 . S
N422 Eu431 2.600 . S
C423 C425 1.397 . S
C423 C426 1.367 . S
C423 H443 0.931 1_554 S
C424 C421 1.405 . S
C424 C426 1.403 . S
C424 C430 1.439 . S
C425 N422 1.319 . S
C425 C423 1.397 . S
C425 H436 0.930 . S
C426 C423 1.367 . S
C426 C424 1.403 . S
C426 H447 0.929 . S
C427 C428 1.430 . S
C427 C429 1.387 . S
C427 C433 1.404 . S
C428 C421 1.448 . S
C428 C427 1.430 . S
C428 N432 1.351 . S
C429 C427 1.387 . S
C429 C430 1.374 . S
C429 H444 0.931 . S
C430 C424 1.439 . S
C430 C429 1.374 . S
C430 H445 0.931 1_545 S
Eu431 N422 2.600 . S
Eu431 N432 2.562 . S
Eu431 O466 2.335 . S
Eu431 O469 2.372 . S
Eu431 O470 2.462 . S
Eu431 O471 2.373 . S
Eu431 O473 2.432 . S
Eu431 O474 2.291 . S
Eu431 C495 2.787 . S
N432 C428 1.351 . S
N432 Eu431 2.562 . S
N432 C434 1.325 . S
C433 C427 1.404 . S
C433 C435 1.366 . S
C433 H441 0.930 . S
C434 N432 1.325 . S
C434 C435 1.416 . S
C434 H440 0.929 . S
C435 C433 1.366 . S
C435 C434 1.416 . S
C435 H437 0.930 . S
H436 C425 0.930 . S
H437 C435 0.930 . S
H438 C453 0.930 . S
H439 C460 0.930 . S
H440 C434 0.929 . S
H441 C433 0.930 . S
H442 C456 0.929 . S
H443 C423 0.931 1_556 S
H444 C429 0.931 . S
H445 C430 0.931 1_565 S
H446 C451 0.931 . S
H447 C426 0.929 . S
H448 C459 0.930 . S
N449 Eu420 2.600 . S
N449 C450 1.365 . S
N449 C453 1.319 . S
C450 N449 1.365 . S
C450 C452 1.405 . S
C450 C458 1.448 . S
C451 H446 0.931 . S
C451 C453 1.397 . S
C451 C454 1.367 . S
C452 C450 1.405 . S
C452 C454 1.403 . S
C452 C485 1.439 . S
C453 H438 0.930 . S
C453 N449 1.319 . S
C453 C451 1.397 . S
C454 C451 1.367 . S
C454 C452 1.403 . S
C454 H461 0.929 . S
N455 Eu420 2.562 . S
N455 C456 1.325 . S
N455 C458 1.351 . S
C456 H442 0.929 . S
C456 N455 1.325 . S
C456 C460 1.416 . S
C457 C458 1.430 . S
C457 C459 1.404 . S
C457 C486 1.387 . S
C458 C450 1.448 . S
C458 N455 1.351 . S
C458 C457 1.430 . S
C459 H448 0.930 . S
C459 C457 1.404 . S
C459 C460 1.366 . S
C460 H439 0.930 . S
C460 C456 1.416 . S
C460 C459 1.366 . S
H461 C454 0.929 . S
H462 C485 0.931 . S
H463 C486 0.931 . S
O464 Eu420 2.462 . S
O464 C484 1.252 . S
O465 Eu420 2.373 . S
O465 C476 1.249 . S
O466 Eu431 2.335 . S
O466 C476 1.264 . S
O467 Eu420 2.432 . S
O467 C484 1.268 . S
O468 Eu420 2.291 . S
O468 C483 1.255 . S
O469 Eu431 2.372 . S
O469 C483 1.257 . S
O470 Eu431 2.462 . S
O470 C495 1.252 . S
O471 Eu431 2.373 . S
O471 C487 1.249 . S
O472 Eu420 2.335 . S
O472 C487 1.264 . S
O473 Eu431 2.432 . S
O473 C495 1.268 . S
O474 Eu431 2.291 . S
O474 C494 1.255 . S
O475 Eu420 2.372 . S
O475 C494 1.257 . S
C476 O465 1.249 . S
C476 O466 1.264 . S
C477 C480 1.382 . S
C477 C482 1.390 . S
C477 C484 1.506 . S
C478 C479 1.398 . S
C478 C482 1.392 . S
C479 C478 1.398 . S
C479 C481 1.372 . S
C479 H496 0.931 . S
C480 C477 1.382 . S
C480 C481 1.390 . S
C480 H497 0.931 . S
C481 C479 1.372 . S
C481 C480 1.390 . S
C481 H498 0.929 . S
C482 C477 1.390 . S
C482 C478 1.392 . S
C482 H499 0.930 . S
C483 O468 1.255 . S
C483 O469 1.257 . S
C484 Eu420 2.787 . S
C484 O464 1.252 . S
C484 O467 1.268 . S
C484 C477 1.506 . S
C485 C452 1.439 . S
C485 H462 0.931 . S
C485 C486 1.374 . S
C486 C457 1.387 . S
C486 H463 0.931 . S
C486 C485 1.374 . S
C487 O471 1.249 . S
C487 O472 1.264 . S
C488 C491 1.382 . S
C488 C492 1.390 . S
C488 C495 1.506 . S
C489 C490 1.398 1_455 S
C489 C492 1.392 . S
C490 C489 1.398 1_655 S
C490 C493 1.372 1_655 S
C490 H500 0.931 . S
C491 C488 1.382 . S
C491 C493 1.390 . S
C491 H501 0.931 . S
C492 C488 1.390 . S
C492 C489 1.392 . S
C492 H502 0.930 . S
C493 C490 1.372 1_455 S
C493 C491 1.390 . S
C493 H503 0.929 1_455 S
C494 O474 1.255 . S
C494 O475 1.257 . S
C495 Eu431 2.787 . S
C495 O470 1.252 . S
C495 O473 1.268 . S
C495 C488 1.506 . S
H496 C479 0.931 . S
H497 C480 0.931 . S
H498 C481 0.929 . S
H499 C482 0.930 . S
H500 C490 0.931 . S
H501 C491 0.931 . S
H502 C492 0.930 . S
H503 C493 0.929 1_655 S
Eu504 N533 2.600 . S
Eu504 N539 2.562 . S
Eu504 O548 2.462 . S
Eu504 O549 2.373 . S
Eu504 O551 2.432 . S
Eu504 O552 2.291 . S
Eu504 O556 2.335 . S
Eu504 O559 2.372 . S
Eu504 C568 2.787 . S
C505 N506 1.365 . S
C505 C508 1.405 . S
C505 C512 1.448 . S
N506 C505 1.365 . S
N506 C509 1.319 . S
N506 Eu515 2.600 . S
C507 C509 1.397 . S
C507 C510 1.367 . S
C507 H527 0.931 . S
C508 C505 1.405 . S
C508 C510 1.403 . S
C508 C514 1.439 . S
C509 N506 1.319 . S
C509 C507 1.397 . S
C509 H520 0.930 . S
C510 C507 1.367 . S
C510 C508 1.403 . S
C510 H531 0.929 . S
C511 C512 1.430 . S
C511 C513 1.387 . S
C511 C517 1.404 . S
C512 C505 1.448 . S
C512 C511 1.430 . S
C512 N516 1.351 . S
C513 C511 1.387 . S
C513 C514 1.374 . S
C513 H528 0.931 . S
C514 C508 1.439 . S
C514 C513 1.374 . S
C514 H529 0.931 . S
Eu515 N506 2.600 . S
Eu515 N516 2.562 . S
Eu515 O550 2.335 . S
Eu515 O553 2.372 . S
Eu515 O554 2.462 . S
Eu515 O555 2.373 . S
Eu515 O557 2.432 . S
Eu515 O558 2.291 . S
Eu515 C579 2.787 . S
N516 C512 1.351 . S
N516 Eu515 2.562 . S
N516 C518 1.325 . S
C517 C511 1.404 . S
C517 C519 1.366 . S
C517 H525 0.930 . S
C518 N516 1.325 . S
C518 C519 1.416 . S
C518 H524 0.929 . S
C519 C517 1.366 . S
C519 C518 1.416 . S
C519 H521 0.930 . S
H520 C509 0.930 . S
H521 C519 0.930 . S
H522 C537 0.930 . S
H523 C544 0.930 . S
H524 C518 0.929 . S
H525 C517 0.930 . S
H526 C540 0.929 . S
H527 C507 0.931 . S
H528 C513 0.931 . S
H529 C514 0.931 . S
H530 C535 0.931 . S
H531 C510 0.929 . S
H532 C543 0.930 . S
N533 Eu504 2.600 . S
N533 C534 1.365 . S
N533 C537 1.319 . S
C534 N533 1.365 . S
C534 C536 1.405 . S
C534 C542 1.448 . S
C535 H530 0.931 . S
C535 C537 1.397 . S
C535 C538 1.367 . S
C536 C534 1.405 . S
C536 C538 1.403 . S
C536 C569 1.439 . S
C537 H522 0.930 . S
C537 N533 1.319 . S
C537 C535 1.397 . S
C538 C535 1.367 . S
C538 C536 1.403 . S
C538 H545 0.929 . S
N539 Eu504 2.562 . S
N539 C540 1.325 . S
N539 C542 1.351 . S
C540 H526 0.929 . S
C540 N539 1.325 . S
C540 C544 1.416 . S
C541 C542 1.430 . S
C541 C543 1.404 . S
C541 C570 1.387 . S
C542 C534 1.448 . S
C542 N539 1.351 . S
C542 C541 1.430 . S
C543 H532 0.930 . S
C543 C541 1.404 . S
C543 C544 1.366 . S
C544 H523 0.930 . S
C544 C540 1.416 . S
C544 C543 1.366 . S
H545 C538 0.929 . S
H546 C569 0.931 . S
H547 C570 0.931 . S
O548 Eu504 2.462 . S
O548 C568 1.252 . S
O549 Eu504 2.373 . S
O549 C560 1.249 . S
O550 Eu515 2.335 . S
O550 C560 1.264 . S
O551 Eu504 2.432 . S
O551 C568 1.268 . S
O552 Eu504 2.291 . S
O552 C567 1.255 . S
O553 Eu515 2.372 . S
O553 C567 1.257 . S
O554 Eu515 2.462 . S
O554 C579 1.252 . S
O555 Eu515 2.373 . S
O555 C571 1.249 . S
O556 Eu504 2.335 . S
O556 C571 1.264 . S
O557 Eu515 2.432 . S
O557 C579 1.268 . S
O558 Eu515 2.291 . S
O558 C578 1.255 . S
O559 Eu504 2.372 . S
O559 C578 1.257 . S
C560 O549 1.249 . S
C560 O550 1.264 . S
C561 C564 1.382 . S
C561 C566 1.390 . S
C561 C568 1.506 1_554 S
C562 C563 1.398 . S
C562 C566 1.392 . S
C563 C562 1.398 . S
C563 C565 1.372 . S
C563 H580 0.931 . S
C564 C561 1.382 . S
C564 C565 1.390 . S
C564 H581 0.931 . S
C565 C563 1.372 . S
C565 C564 1.390 . S
C565 H582 0.929 . S
C566 C561 1.390 . S
C566 C562 1.392 . S
C566 H583 0.930 . S
C567 O552 1.255 . S
C567 O553 1.257 . S
C568 Eu504 2.787 . S
C568 O548 1.252 . S
C568 O551 1.268 . S
C568 C561 1.506 1_556 S
C569 C536 1.439 . S
C569 H546 0.931 . S
C569 C570 1.374 . S
C570 C541 1.387 . S
C570 H547 0.931 . S
C570 C569 1.374 . S
C571 O555 1.249 . S
C571 O556 1.264 . S
C572 C575 1.382 . S
C572 C576 1.390 . S
C572 C579 1.506 . S
C573 C574 1.398 . S
C573 C576 1.392 . S
C574 C573 1.398 . S
C574 C577 1.372 . S
C574 H584 0.931 . S
C575 C572 1.382 . S
C575 C577 1.390 . S
C575 H585 0.931 . S
C576 C572 1.390 . S
C576 C573 1.392 . S
C576 H586 0.930 . S
C577 C574 1.372 . S
C577 C575 1.390 . S
C577 H587 0.929 . S
C578 O558 1.255 . S
C578 O559 1.257 . S
C579 Eu515 2.787 . S
C579 O554 1.252 . S
C579 O557 1.268 . S
C579 C572 1.506 . S
H580 C563 0.931 . S
H581 C564 0.931 . S
H582 C565 0.929 . S
H583 C566 0.930 . S
H584 C574 0.931 . S
H585 C575 0.931 . S
H586 C576 0.930 . S
H587 C577 0.929 . S
Eu588 N617 2.600 . S
Eu588 N623 2.562 . S
Eu588 O632 2.462 . S
Eu588 O633 2.373 . S
Eu588 O635 2.432 . S
Eu588 O636 2.291 . S
Eu588 O640 2.335 . S
Eu588 O643 2.372 . S
Eu588 C652 2.787 . S
C589 N590 1.365 . S
C589 C592 1.405 . S
C589 C596 1.448 . S
N590 C589 1.365 . S
N590 C593 1.319 . S
N590 Eu599 2.600 . S
C591 C593 1.397 . S
C591 C594 1.367 . S
C591 H611 0.931 1_545 S
C592 C589 1.405 . S
C592 C594 1.403 . S
C592 C598 1.439 . S
C593 N590 1.319 . S
C593 C591 1.397 . S
C593 H604 0.930 . S
C594 C591 1.367 . S
C594 C592 1.403 . S
C594 H615 0.929 . S
C595 C596 1.430 . S
C595 C597 1.387 . S
C595 C601 1.404 1_655 S
C596 C589 1.448 . S
C596 C595 1.430 . S
C596 N600 1.351 . S
C597 C595 1.387 . S
C597 C598 1.374 . S
C597 H612 0.931 1_655 S
C598 C592 1.439 . S
C598 C597 1.374 . S
C598 H613 0.931 . S
Eu599 N590 2.600 . S
Eu599 N600 2.562 . S
Eu599 O634 2.335 . S
Eu599 O637 2.372 . S
Eu599 O638 2.462 . S
Eu599 O639 2.373 . S
Eu599 O641 2.432 . S
Eu599 O642 2.291 . S
Eu599 C663 2.787 . S
N600 C596 1.351 . S
N600 Eu599 2.562 . S
N600 C602 1.325 . S
C601 C595 1.404 1_455 S
C601 C603 1.403 . S
C601 H609 0.930 . S
C602 N600 1.325 . S
C602 C603 1.374 1_655 S
C602 H608 0.929 . S
C603 C601 1.403 . S
C603 C602 1.374 1_455 S
C603 H605 0.936 . S
H604 C593 0.930 . S
H605 C603 0.936 . S
H606 C621 0.930 . S
H607 C628 0.930 . S
H608 C602 0.929 . S
H609 C601 0.930 . S
H610 C624 0.929 . S
H611 C591 0.931 1_565 S
H612 C597 0.931 1_455 S
H613 C598 0.931 . S
H614 C619 0.931 . S
H615 C594 0.929 . S
H616 C627 0.930 . S
N617 Eu588 2.600 . S
N617 C618 1.365 . S
N617 C621 1.319 . S
C618 N617 1.365 . S
C618 C620 1.405 . S
C618 C626 1.448 . S
C619 H614 0.931 . S
C619 C621 1.397 . S
C619 C622 1.367 . S
C620 C618 1.405 . S
C620 C622 1.403 . S
C620 C653 1.439 . S
C621 H606 0.930 . S
C621 N617 1.319 . S
C621 C619 1.397 . S
C622 C619 1.367 . S
C622 C620 1.403 . S
C622 H629 0.929 . S
N623 Eu588 2.562 . S
N623 C624 1.325 . S
N623 C626 1.351 . S
C624 H610 0.929 . S
C624 N623 1.325 . S
C624 C628 1.416 . S
C625 C626 1.430 . S
C625 C627 1.404 . S
C625 C654 1.387 . S
C626 C618 1.448 . S
C626 N623 1.351 . S
C626 C625 1.430 . S
C627 H616 0.930 . S
C627 C625 1.404 . S
C627 C628 1.366 . S
C628 H607 0.930 . S
C628 C624 1.416 . S
C628 C627 1.366 . S
H629 C622 0.929 . S
H630 C653 0.931 . S
H631 C654 0.931 . S
O632 Eu588 2.462 . S
O632 C652 1.252 . S
O633 Eu588 2.373 . S
O633 C644 1.249 . S
O634 Eu599 2.335 . S
O634 C644 1.264 . S
O635 Eu588 2.432 . S
O635 C652 1.268 . S
O636 Eu588 2.291 . S
O636 C651 1.255 . S
O637 Eu599 2.372 . S
O637 C651 1.257 . S
O638 Eu599 2.462 . S
O638 C663 1.252 . S
O639 Eu599 2.373 . S
O639 C655 1.249 . S
O640 Eu588 2.335 . S
O640 C655 1.264 . S
O641 Eu599 2.432 . S
O641 C663 1.268 . S
O642 Eu599 2.291 . S
O642 C662 1.255 . S
O643 Eu588 2.372 . S
O643 C662 1.257 . S
C644 O633 1.249 . S
C644 O634 1.264 . S
C645 C648 1.382 . S
C645 C650 1.390 . S
C645 C652 1.506 . S
C646 C647 1.398 . S
C646 C650 1.392 . S
C647 C646 1.398 . S
C647 C649 1.372 . S
C647 H664 0.931 . S
C648 C645 1.382 . S
C648 C649 1.390 . S
C648 H665 0.931 . S
C649 C647 1.372 . S
C649 C648 1.390 . S
C649 H666 0.929 . S
C650 C645 1.390 . S
C650 C646 1.392 . S
C650 H667 0.930 . S
C651 O636 1.255 . S
C651 O637 1.257 . S
C652 Eu588 2.787 . S
C652 O632 1.252 . S
C652 O635 1.268 . S
C652 C645 1.506 . S
C653 C620 1.439 . S
C653 H630 0.931 . S
C653 C654 1.374 . S
C654 C625 1.387 . S
C654 H631 0.931 . S
C654 C653 1.374 . S
C655 O639 1.249 . S
C655 O640 1.264 . S
C656 C659 1.382 . S
C656 C660 1.390 . S
C656 C663 1.506 1_554 S
C657 C658 1.398 . S
C657 C660 1.392 . S
C658 C657 1.398 . S
C658 C661 1.372 . S
C658 H668 0.931 . S
C659 C656 1.382 . S
C659 C661 1.390 . S
C659 H669 0.931 . S
C660 C656 1.390 . S
C660 C657 1.392 . S
C660 H670 0.930 . S
C661 C658 1.372 . S
C661 C659 1.390 . S
C661 H671 0.929 . S
C662 O642 1.255 . S
C662 O643 1.257 . S
C663 Eu599 2.787 . S
C663 O638 1.252 . S
C663 O641 1.268 . S
C663 C656 1.506 1_556 S
H664 C647 0.931 . S
H665 C648 0.931 . S
H666 C649 0.929 . S
H667 C650 0.930 . S
H668 C658 0.931 . S
H669 C659 0.931 . S
H670 C660 0.930 . S
H671 C661 0.929 . S
Eu672 N701 2.600 . S
Eu672 N707 2.562 . S
Eu672 O716 2.462 . S
Eu672 O717 2.373 . S
Eu672 O719 2.432 . S
Eu672 O720 2.291 . S
Eu672 O724 2.335 . S
Eu672 O727 2.372 . S
Eu672 C736 2.787 . S
C673 N674 1.365 . S
C673 C676 1.405 . S
C673 C680 1.448 . S
N674 C673 1.365 . S
N674 C677 1.319 . S
N674 Eu683 2.600 . S
C675 C677 1.397 . S
C675 C678 1.367 . S
C675 H695 0.931 . S
C676 C673 1.405 . S
C676 C678 1.403 . S
C676 C682 1.439 . S
C677 N674 1.319 . S
C677 C675 1.397 . S
C677 H688 0.930 . S
C678 C675 1.367 . S
C678 C676 1.403 . S
C678 H699 0.929 . S
C679 C680 1.430 . S
C679 C681 1.387 . S
C679 C685 1.404 . S
C680 C673 1.448 . S
C680 C679 1.430 . S
C680 N684 1.351 . S
C681 C679 1.387 . S
C681 C682 1.374 . S
C681 H696 0.931 . S
C682 C676 1.439 . S
C682 C681 1.374 . S
C682 H697 0.931 . S
Eu683 N674 2.600 . S
Eu683 N684 2.562 . S
Eu683 O718 2.335 . S
Eu683 O721 2.372 . S
Eu683 O722 2.462 . S
Eu683 O723 2.373 . S
Eu683 O725 2.432 . S
Eu683 O726 2.291 . S
Eu683 C747 2.787 . S
N684 C680 1.351 . S
N684 Eu683 2.562 . S
N684 C686 1.325 . S
C685 C679 1.404 . S
C685 C687 1.366 . S
C685 H693 0.930 . S
C686 N684 1.325 . S
C686 C687 1.416 . S
C686 H692 0.929 . S
C687 C685 1.366 . S
C687 C686 1.416 . S
C687 H689 0.930 . S
H688 C677 0.930 . S
H689 C687 0.930 . S
H690 C705 0.930 . S
H691 C712 0.930 . S
H692 C686 0.929 . S
H693 C685 0.930 . S
H694 C708 0.929 . S
H695 C675 0.931 . S
H696 C681 0.931 . S
H697 C682 0.931 . S
H698 C703 0.931 . S
H699 C678 0.929 . S
H700 C711 0.930 . S
N701 Eu672 2.600 . S
N701 C702 1.365 . S
N701 C705 1.319 . S
C702 N701 1.365 . S
C702 C704 1.405 . S
C702 C710 1.448 . S
C703 H698 0.931 . S
C703 C705 1.397 . S
C703 C706 1.367 . S
C704 C702 1.405 . S
C704 C706 1.403 . S
C704 C737 1.439 1_655 S
C705 H690 0.930 . S
C705 N701 1.319 . S
C705 C703 1.397 . S
C706 C703 1.367 . S
C706 C704 1.403 . S
C706 H713 0.929 . S
N707 Eu672 2.562 . S
N707 C708 1.325 . S
N707 C710 1.351 . S
C708 H694 0.929 . S
C708 N707 1.325 . S
C708 C712 1.416 1_655 S
C709 C710 1.430 1_455 S
C709 C711 1.404 . S
C709 C738 1.387 . S
C710 C702 1.448 . S
C710 N707 1.351 . S
C710 C709 1.430 1_655 S
C711 H700 0.930 . S
C711 C709 1.404 . S
C711 C712 1.366 . S
C712 H691 0.930 . S
C712 C708 1.416 1_455 S
C712 C711 1.366 . S
H713 C706 0.929 . S
H714 C737 0.931 . S
H715 C738 0.931 . S
O716 Eu672 2.462 . S
O716 C736 1.252 . S
O717 Eu672 2.373 . S
O717 C728 1.249 . S
O718 Eu683 2.335 . S
O718 C728 1.264 . S
O719 Eu672 2.432 . S
O719 C736 1.268 . S
O720 Eu672 2.291 . S
O720 C735 1.255 . S
O721 Eu683 2.372 . S
O721 C735 1.257 . S
O722 Eu683 2.462 . S
O722 C747 1.252 . S
O723 Eu683 2.373 . S
O723 C739 1.249 . S
O724 Eu672 2.335 . S
O724 C739 1.264 . S
O725 Eu683 2.432 . S
O725 C747 1.268 . S
O726 Eu683 2.291 . S
O726 C746 1.255 . S
O727 Eu672 2.372 . S
O727 C746 1.257 . S
C728 O717 1.249 . S
C728 O718 1.264 . S
C729 C732 1.382 . S
C729 C734 1.390 . S
C729 C736 1.506 1_554 S
C730 C731 1.398 . S
C730 C734 1.392 . S
C731 C730 1.398 . S
C731 C733 1.372 . S
C731 H748 0.931 . S
C732 C729 1.382 . S
C732 C733 1.390 . S
C732 H749 0.931 . S
C733 C731 1.372 . S
C733 C732 1.390 . S
C733 H750 0.929 . S
C734 C729 1.390 . S
C734 C730 1.392 . S
C734 H751 0.930 . S
C735 O720 1.255 . S
C735 O721 1.257 . S
C736 Eu672 2.787 . S
C736 O716 1.252 . S
C736 O719 1.268 . S
C736 C729 1.506 1_556 S
C737 C704 1.439 1_455 S
C737 H714 0.931 . S
C737 C738 1.374 . S
C738 C709 1.387 . S
C738 H715 0.931 . S
C738 C737 1.374 . S
C739 O723 1.249 . S
C739 O724 1.264 . S
C740 C743 1.382 . S
C740 C744 1.390 . S
C740 C747 1.506 . S
C741 C742 1.398 . S
C741 C744 1.392 . S
C742 C741 1.398 . S
C742 C745 1.372 . S
C742 H752 0.931 . S
C743 C740 1.382 . S
C743 C745 1.390 . S
C743 H753 0.931 . S
C744 C740 1.390 . S
C744 C741 1.392 . S
C744 H754 0.930 . S
C745 C742 1.372 . S
C745 C743 1.390 . S
C745 H755 0.929 . S
C746 O726 1.255 . S
C746 O727 1.257 . S
C747 Eu683 2.787 . S
C747 O722 1.252 . S
C747 O725 1.268 . S
C747 C740 1.506 . S
H748 C731 0.931 . S
H749 C732 0.931 . S
H750 C733 0.929 . S
H751 C734 0.930 . S
H752 C742 0.931 . S
H753 C743 0.931 . S
H754 C744 0.930 . S
H755 C745 0.929 . S
C756 C757 1.369 . S
C756 C758 1.419 . S
C756 H760 0.930 . S
C757 C756 1.369 . S
C757 C766 1.429 . S
C758 C756 1.419 . S
C758 C759 1.363 . S
C758 H761 0.929 . S
C759 C758 1.363 . S
C759 C765 1.428 . S
H760 C756 0.930 . S
H761 C758 0.929 . S
S762 N763 1.613 . S
S762 N764 1.610 . S
N763 S762 1.613 . S
N763 C766 1.350 . S
N764 S762 1.610 . S
N764 C765 1.351 . S
C765 C759 1.428 . S
C765 N764 1.351 . S
C765 C766 1.434 . S
C766 C757 1.429 . S
C766 N763 1.350 . S
C766 C765 1.434 . S
C767 C768 1.369 . S
C767 C769 1.419 . S
C767 H771 0.930 . S
C768 C767 1.369 . S
C768 C777 1.429 . S
C769 C767 1.419 . S
C769 C770 1.363 . S
C769 H772 0.929 . S
C770 C769 1.363 . S
C770 C776 1.428 . S
H771 C767 0.930 . S
H772 C769 0.929 . S
S773 N774 1.613 . S
S773 N775 1.610 . S
N774 S773 1.613 . S
N774 C777 1.350 . S
N775 S773 1.610 . S
N775 C776 1.351 . S
C776 C770 1.428 . S
C776 N775 1.351 . S
C776 C777 1.434 . S
C777 C768 1.429 . S
C777 N774 1.350 . S
C777 C776 1.434 . S
C778 C779 1.369 . S
C778 C780 1.419 . S
C778 H782 0.930 . S
C779 C778 1.369 . S
C779 C788 1.429 . S
C780 C778 1.419 . S
C780 C781 1.363 . S
C780 H783 0.929 . S
C781 C780 1.363 . S
C781 C787 1.428 . S
H782 C778 0.930 . S
H783 C780 0.929 . S
S784 N785 1.613 . S
S784 N786 1.610 . S
N785 S784 1.613 . S
N785 C788 1.350 . S
N786 S784 1.610 . S
N786 C787 1.351 . S
C787 C781 1.428 . S
C787 N786 1.351 . S
C787 C788 1.434 . S
C788 C779 1.429 . S
C788 N785 1.350 . S
C788 C787 1.434 . S
C789 C790 1.369 . S
C789 C791 1.419 . S
C789 H793 0.930 . S
C790 C789 1.369 . S
C790 C799 1.429 . S
C791 C789 1.419 . S
C791 C792 1.363 . S
C791 H794 0.929 . S
C792 C791 1.363 . S
C792 C798 1.428 . S
H793 C789 0.930 . S
H794 C791 0.929 . S
S795 N796 1.613 . S
S795 N797 1.610 . S
N796 S795 1.613 . S
N796 C799 1.350 . S
N797 S795 1.610 . S
N797 C798 1.351 . S
C798 C792 1.428 . S
C798 N797 1.351 . S
C798 C799 1.434 . S
C799 C790 1.429 . S
C799 N796 1.350 . S
C799 C798 1.434 . S
C800 C801 1.369 . S
C800 C802 1.419 . S
C800 H804 0.930 . S
C801 C800 1.369 . S
C801 C810 1.429 . S
C802 C800 1.419 . S
C802 C803 1.363 . S
C802 H805 0.929 . S
C803 C802 1.363 . S
C803 C809 1.428 . S
H804 C800 0.930 . S
H805 C802 0.929 . S
S806 N807 1.613 . S
S806 N808 1.610 . S
N807 S806 1.613 . S
N807 C810 1.350 . S
N808 S806 1.610 . S
N808 C809 1.351 . S
C809 C803 1.428 . S
C809 N808 1.351 . S
C809 C810 1.434 . S
C810 C801 1.429 . S
C810 N807 1.350 . S
C810 C809 1.434 . S
C811 C812 1.369 . S
C811 C813 1.419 . S
C811 H815 0.930 . S
C812 C811 1.369 . S
C812 C821 1.429 . S
C813 C811 1.419 . S
C813 C814 1.363 . S
C813 H816 0.929 . S
C814 C813 1.363 . S
C814 C820 1.428 . S
H815 C811 0.930 . S
H816 C813 0.929 . S
S817 N818 1.613 . S
S817 N819 1.610 . S
N818 S817 1.613 . S
N818 C821 1.350 . S
N819 S817 1.610 . S
N819 C820 1.351 . S
C820 C814 1.428 . S
C820 N819 1.351 . S
C820 C821 1.434 . S
C821 C812 1.429 . S
C821 N818 1.350 . S
C821 C820 1.434 . S
C822 C823 1.369 . S
C822 C824 1.419 . S
C822 H826 0.930 . S
C823 C822 1.369 . S
C823 C832 1.429 . S
C824 C822 1.419 . S
C824 C825 1.363 . S
C824 H827 0.929 . S
C825 C824 1.363 . S
C825 C831 1.428 . S
H826 C822 0.930 . S
H827 C824 0.929 . S
S828 N829 1.613 . S
S828 N830 1.610 . S
N829 S828 1.613 . S
N829 C832 1.350 . S
N830 S828 1.610 . S
N830 C831 1.351 . S
C831 C825 1.428 . S
C831 N830 1.351 . S
C831 C832 1.434 . S
C832 C823 1.429 . S
C832 N829 1.350 . S
C832 C831 1.434 . S
C833 C834 1.369 . S
C833 C835 1.419 . S
C833 H837 0.930 . S
C834 C833 1.369 . S
C834 C843 1.429 . S
C835 C833 1.419 . S
C835 C836 1.363 . S
C835 H838 0.929 . S
C836 C835 1.363 . S
C836 C842 1.428 . S
H837 C833 0.930 . S
H838 C835 0.929 . S
S839 N840 1.613 . S
S839 N841 1.610 . S
N840 S839 1.613 . S
N840 C843 1.350 . S
N841 S839 1.610 . S
N841 C842 1.351 . S
C842 C836 1.428 . S
C842 N841 1.351 . S
C842 C843 1.434 . S
C843 C834 1.429 . S
C843 N840 1.350 . S
C843 C842 1.434 . S
C844 C845 1.369 . S
C844 C846 1.419 . S
C844 H848 0.930 . S
C845 C844 1.369 . S
C845 C854 1.429 . S
C846 C844 1.419 . S
C846 C847 1.363 . S
C846 H849 0.929 . S
C847 C846 1.363 . S
C847 C853 1.428 . S
H848 C844 0.930 . S
H849 C846 0.929 . S
S850 N851 1.613 . S
S850 N852 1.610 . S
N851 S850 1.613 . S
N851 C854 1.350 . S
N852 S850 1.610 . S
N852 C853 1.351 . S
C853 C847 1.428 . S
C853 N852 1.351 . S
C853 C854 1.434 . S
C854 C845 1.429 . S
C854 N851 1.350 . S
C854 C853 1.434 . S
C855 C856 1.369 . S
C855 C857 1.419 . S
C855 H859 0.930 . S
C856 C855 1.369 . S
C856 C865 1.429 . S
C857 C855 1.419 . S
C857 C858 1.363 . S
C857 H860 0.929 . S
C858 C857 1.363 . S
C858 C864 1.428 . S
H859 C855 0.930 . S
H860 C857 0.929 . S
S861 N862 1.613 . S
S861 N863 1.610 . S
N862 S861 1.613 . S
N862 C865 1.350 . S
N863 S861 1.610 . S
N863 C864 1.351 . S
C864 C858 1.428 . S
C864 N863 1.351 . S
C864 C865 1.434 . S
C865 C856 1.429 . S
C865 N862 1.350 . S
C865 C864 1.434 . S
C866 C867 1.369 . S
C866 C868 1.419 . S
C866 H870 0.930 . S
C867 C866 1.369 . S
C867 C876 1.429 . S
C868 C866 1.419 . S
C868 C869 1.363 . S
C868 H871 0.929 . S
C869 C868 1.363 . S
C869 C875 1.428 . S
H870 C866 0.930 . S
H871 C868 0.929 . S
S872 N873 1.613 . S
S872 N874 1.610 . S
N873 S872 1.613 . S
N873 C876 1.350 . S
N874 S872 1.610 . S
N874 C875 1.351 . S
C875 C869 1.428 . S
C875 N874 1.351 . S
C875 C876 1.434 . S
C876 C867 1.429 . S
C876 N873 1.350 . S
C876 C875 1.434 . S
C877 C878 1.369 . S
C877 C879 1.419 . S
C877 H881 0.930 . S
C878 C877 1.369 . S
C878 C887 1.443 . S
C879 C877 1.419 . S
C879 C880 1.363 . S
C879 H882 0.929 . S
C880 C879 1.363 . S
C880 C886 1.428 . S
H881 C877 0.930 . S
H882 C879 0.929 . S
S883 N884 1.613 . S
S883 N885 1.610 1_545 S
N884 S883 1.613 . S
N884 C887 1.331 1_545 S
N885 S883 1.610 1_565 S
N885 C886 1.351 . S
C886 C880 1.428 . S
C886 N885 1.351 . S
C886 C887 1.437 . S
C887 C878 1.443 . S
C887 N884 1.331 1_565 S
C887 C886 1.437 . S
C888 C889 1.369 . S
C888 C890 1.419 . S
C888 H892 0.930 . S
C889 C888 1.369 . S
C889 C898 1.429 . S
C890 C888 1.419 . S
C890 C891 1.363 . S
C890 H893 0.929 . S
C891 C890 1.363 . S
C891 C897 1.428 . S
H892 C888 0.930 . S
H893 C890 0.929 . S
S894 N895 1.613 . S
S894 N896 1.610 1_554 S
N895 S894 1.613 . S
N895 C898 1.350 1_554 S
N896 S894 1.610 1_556 S
N896 C897 1.351 . S
C897 C891 1.428 . S
C897 N896 1.351 . S
C897 C898 1.434 . S
C898 C889 1.429 . S
C898 N895 1.350 1_556 S
C898 C897 1.434 . S
C899 C900 1.369 . S
C899 C901 1.419 . S
C899 H903 0.930 . S
C900 C899 1.369 . S
C900 C909 1.429 . S
C901 C899 1.419 . S
C901 C902 1.363 1_556 S
C901 H904 0.929 . S
C902 C901 1.363 1_554 S
C902 C908 1.428 1_554 S
H903 C899 0.930 . S
H904 C901 0.929 . S
S905 N906 1.613 1_455 S
S905 N907 1.610 1_556 S
N906 S905 1.613 1_655 S
N906 C909 1.350 . S
N907 S905 1.610 1_554 S
N907 C908 1.351 1_454 S
C908 C902 1.428 1_556 S
C908 N907 1.351 1_656 S
C908 C909 1.434 . S
C909 C900 1.429 . S
C909 N906 1.350 . S
C909 C908 1.434 . S
C910 C911 1.369 . S
C910 C912 1.419 . S
C910 H914 0.930 . S
C911 C910 1.369 . S
C911 C920 1.429 . S
C912 C910 1.419 . S
C912 C913 1.363 . S
C912 H915 0.929 . S
C913 C912 1.363 . S
C913 C919 1.428 . S
H914 C910 0.930 . S
H915 C912 0.929 . S
S916 N917 1.613 . S
S916 N918 1.610 . S
N917 S916 1.613 . S
N917 C920 1.350 . S
N918 S916 1.610 . S
N918 C919 1.351 . S
C919 C913 1.428 . S
C919 N918 1.351 . S
C919 C920 1.434 . S
C920 C911 1.429 . S
C920 N917 1.350 . S
C920 C919 1.434 . S
C921 C922 1.369 . S
C921 C923 1.419 . S
C921 H925 0.930 . S
C922 C921 1.369 . S
C922 C931 1.429 . S
C923 C921 1.419 . S
C923 C924 1.363 . S
C923 H926 0.929 . S
C924 C923 1.363 . S
C924 C930 1.428 . S
H925 C921 0.930 . S
H926 C923 0.929 . S
S927 N928 1.613 . S
S927 N929 1.610 . S
N928 S927 1.613 . S
N928 C931 1.350 . S
N929 S927 1.610 . S
N929 C930 1.351 . S
C930 C924 1.428 . S
C930 N929 1.351 . S
C930 C931 1.434 . S
C931 C922 1.429 . S
C931 N928 1.350 . S
C931 C930 1.434 . S
C932 C933 1.369 . S
C932 C934 1.419 . S
C932 H936 0.930 . S
C933 C932 1.369 . S
C933 C942 1.429 . S
C934 C932 1.419 . S
C934 C935 1.363 . S
C934 H937 0.929 . S
C935 C934 1.363 . S
C935 C941 1.428 . S
H936 C932 0.930 . S
H937 C934 0.929 . S
S938 N939 1.613 . S
S938 N940 1.610 . S
N939 S938 1.613 . S
N939 C942 1.350 . S
N940 S938 1.610 . S
N940 C941 1.351 . S
C941 C935 1.428 . S
C941 N940 1.351 . S
C941 C942 1.434 . S
C942 C933 1.429 . S
C942 N939 1.350 . S
C942 C941 1.434 . S
C943 C944 1.369 . S
C943 C945 1.419 . S
C943 H947 0.930 . S
C944 C943 1.369 . S
C944 C953 1.429 . S
C945 C943 1.419 . S
C945 C946 1.363 . S
C945 H948 0.929 . S
C946 C945 1.363 . S
C946 C952 1.428 . S
H947 C943 0.930 . S
H948 C945 0.929 . S
S949 N950 1.613 . S
S949 N951 1.610 . S
N950 S949 1.613 . S
N950 C953 1.350 . S
N951 S949 1.610 . S
N951 C952 1.351 . S
C952 C946 1.428 . S
C952 N951 1.351 . S
C952 C953 1.434 . S
C953 C944 1.429 . S
C953 N950 1.350 . S
C953 C952 1.434 . S
C954 C955 1.369 1_556 S
C954 C956 1.419 1_545 S
C954 H958 0.930 . S
C955 C954 1.369 1_554 S
C955 C964 1.429 . S
C956 C954 1.419 1_565 S
C956 C957 1.363 1_556 S
C956 H959 0.929 . S
C957 C956 1.363 1_554 S
C957 C963 1.428 1_565 S
H958 C954 0.930 . S
H959 C956 0.929 . S
S960 N961 1.613 . S
S960 N962 1.610 . S
N961 S960 1.613 . S
N961 C964 1.350 . S
N962 S960 1.610 . S
N962 C963 1.351 . S
C963 C957 1.428 1_545 S
C963 N962 1.351 . S
C963 C964 1.434 . S
C964 C955 1.429 . S
C964 N961 1.350 . S
C964 C963 1.434 . S
C965 C966 1.369 . S
C965 C967 1.419 . S
C965 H969 0.930 . S
C966 C965 1.369 . S
C966 C975 1.429 . S
C967 C965 1.419 . S
C967 C968 1.363 . S
C967 H970 0.929 . S
C968 C967 1.363 . S
C968 C974 1.428 . S
H969 C965 0.930 . S
H970 C967 0.929 . S
S971 N972 1.613 . S
S971 N973 1.610 . S
N972 S971 1.613 . S
N972 C975 1.350 . S
N973 S971 1.610 . S
N973 C974 1.351 . S
C974 C968 1.428 . S
C974 N973 1.351 . S
C974 C975 1.434 . S
C975 C966 1.429 . S
C975 N972 1.350 . S
C975 C974 1.434 . S
C976 C977 1.369 . S
C976 C978 1.419 . S
C976 H980 0.930 . S
C977 C976 1.369 . S
C977 C986 1.429 . S
C978 C976 1.419 . S
C978 C979 1.363 . S
C978 H981 0.929 . S
C979 C978 1.363 . S
C979 C985 1.428 . S
H980 C976 0.930 . S
H981 C978 0.929 . S
S982 N983 1.613 . S
S982 N984 1.610 . S
N983 S982 1.613 . S
N983 C986 1.350 . S
N984 S982 1.610 . S
N984 C985 1.351 . S
C985 C979 1.428 . S
C985 N984 1.351 . S
C985 C986 1.434 . S
C986 C977 1.429 . S
C986 N983 1.350 . S
C986 C985 1.434 . S
C987 C988 1.369 . S
C987 C989 1.419 . S
C987 H991 0.930 . S
C988 C987 1.369 . S
C988 C997 1.429 . S
C989 C987 1.419 . S
C989 C990 1.363 . S
C989 H992 0.929 . S
C990 C989 1.363 . S
C990 C996 1.428 . S
H991 C987 0.930 . S
H992 C989 0.929 . S
S993 N994 1.613 . S
S993 N995 1.610 . S
N994 S993 1.613 . S
N994 C997 1.350 . S
N995 S993 1.610 . S
N995 C996 1.351 . S
C996 C990 1.428 . S
C996 N995 1.351 . S
C996 C997 1.434 . S
C997 C988 1.429 . S
C997 N994 1.350 . S
C997 C996 1.434 . S
C998 C999 1.369 . S
C998 C1000 1.413 1_545 S
C998 H1002 0.930 . S
C999 C998 1.369 . S
C999 C1008 1.429 . S
C1000 C998 1.413 1_565 S
C1000 C1001 1.373 . S
C1000 H1003 0.925 . S
C1001 C1000 1.373 . S
C1001 C1007 1.428 . S
H1002 C998 0.930 . S
H1003 C1000 0.925 . S
S1004 N1005 1.613 1_565 S
S1004 N1006 1.610 . S
N1005 S1004 1.613 1_545 S
N1005 C1008 1.350 . S
N1006 S1004 1.610 . S
N1006 C1007 1.351 . S
C1007 C1001 1.428 . S
C1007 N1006 1.351 . S
C1007 C1008 1.434 1_565 S
C1008 C999 1.429 . S
C1008 N1005 1.350 . S
C1008 C1007 1.434 1_545 S
C1009 C1010 1.369 . S
C1009 C1011 1.419 . S
C1009 H1013 0.930 . S
C1010 C1009 1.369 . S
C1010 C1019 1.429 . S
C1011 C1009 1.419 . S
C1011 C1012 1.369 . S
C1011 H1014 0.929 . S
C1012 C1011 1.369 . S
C1012 C1018 1.429 1_655 S
H1013 C1009 0.930 . S
H1014 C1011 0.929 . S
S1015 N1016 1.613 . S
S1015 N1017 1.610 . S
N1016 S1015 1.613 . S
N1016 C1019 1.350 1_455 S
N1017 S1015 1.610 . S
N1017 C1018 1.351 . S
C1018 C1012 1.429 1_455 S
C1018 N1017 1.351 . S
C1018 C1019 1.434 1_455 S
C1019 C1010 1.429 . S
C1019 N1016 1.350 1_655 S
C1019 C1018 1.434 1_655 S
C1020 C1021 1.369 . S
C1020 C1022 1.419 . S
C1020 H1024 0.930 . S
C1021 C1020 1.369 . S
C1021 C1030 1.429 . S
C1022 C1020 1.419 . S
C1022 C1023 1.363 . S
C1022 H1025 0.929 . S
C1023 C1022 1.363 . S
C1023 C1029 1.428 . S
H1024 C1020 0.930 . S
H1025 C1022 0.929 . S
S1026 N1027 1.613 . S
S1026 N1028 1.610 . S
N1027 S1026 1.613 . S
N1027 C1030 1.350 . S
N1028 S1026 1.610 . S
N1028 C1029 1.351 . S
C1029 C1023 1.428 . S
C1029 N1028 1.351 . S
C1029 C1030 1.434 . S
C1030 C1021 1.429 . S
C1030 N1027 1.350 . S
C1030 C1029 1.434 . S
C1031 C1032 1.369 . S
C1031 C1033 1.419 1_565 S
C1031 H1035 0.930 . S
C1032 C1031 1.369 . S
C1032 C1041 1.429 1_565 S
C1033 C1031 1.419 1_545 S
C1033 C1034 1.363 . S
C1033 H1036 0.929 . S
C1034 C1033 1.363 . S
C1034 C1040 1.428 . S
H1035 C1031 0.930 . S
H1036 C1033 0.929 . S
S1037 N1038 1.613 . S
S1037 N1039 1.610 . S
N1038 S1037 1.613 . S
N1038 C1041 1.350 . S
N1039 S1037 1.610 . S
N1039 C1040 1.351 . S
C1040 C1034 1.428 . S
C1040 N1039 1.351 . S
C1040 C1041 1.434 . S
C1041 C1032 1.429 1_545 S
C1041 N1038 1.350 . S
C1041 C1040 1.434 . S
C1042 C1043 1.369 . S
C1042 C1044 1.419 1_655 S
C1042 H1046 0.929 1_655 S
C1043 C1042 1.369 . S
C1043 C1052 1.429 . S
C1044 C1042 1.419 1_455 S
C1044 C1045 1.363 1_455 S
C1044 H1047 0.929 . S
C1045 C1044 1.363 1_655 S
C1045 C1051 1.428 . S
H1046 C1042 0.929 1_455 S
H1047 C1044 0.929 . S
S1048 N1049 1.613 . S
S1048 N1050 1.610 . S
N1049 S1048 1.613 . S
N1049 C1052 1.350 . S
N1050 S1048 1.610 . S
N1050 C1051 1.351 . S
C1051 C1045 1.428 . S
C1051 N1050 1.351 . S
C1051 C1052 1.434 . S
C1052 C1043 1.429 . S
C1052 N1049 1.350 . S
C1052 C1051 1.434 . S
C757 C63 3.558 . S
C759 C74 3.556 . S
C768 C158 3.582 . S
C770 C147 3.580 . S
C779 C231 3.609 . S
C781 C242 3.607 . S
C790 C326 3.555 . S
C792 C315 3.558 1_556 S
C801 C399 3.582 . S
C803 C410 3.580 1_556 S
C812 C494 3.609 . S
C814 C483 3.608 1_556 S
C823 C573 0.521 . S
C825 C562 0.505 . S
C834 C646 1.132 . S
C836 C657 1.130 . S
C845 C741 0.765 . S
C847 C730 0.735 . S
C856 C476 1.588 . S
C858 C69 1.272 . S
C867 C140 2.126 . S
C869 C308 2.127 . S
C878 C237 0.965 . S
C880 C405 0.973 . S
C889 C224 2.519 . S
C891 C571 2.519 . S
C900 C662 1.670 . S
C902 C56 1.650 . S
C911 C739 1.335 . S
C913 C153 1.351 . S
C922 C735 1.088 . S
C924 C58 1.057 . S
C933 C151 2.083 1_556 S
C935 C567 2.100 . S
C944 C644 2.024 . S
C946 C226 2.004 . S
C955 C235 1.588 . S
C957 C310 1.277 . S
C966 C403 2.123 . S
C968 C67 2.129 . S
C977 C142 0.965 . S
C979 C478 0.962 . S
C988 C746 1.081 . S
C990 C321 1.060 . S
C999 C578 2.102 . S
C1001 C392 2.085 . S
C1010 C655 2.030 . S
C1012 C489 2.001 1_655 S
C1021 C560 2.518 . S
C1023 C487 2.520 . S
C1032 C319 1.652 . S
C1034 C651 1.672 . S
C1043 C728 1.330 . S
C1045 C394 1.350 1_655 S
