# Generated by pormake.
# Topology umj, (4)-cn, num edge types: 1
# Building blocks:
#     Node 0, Type 0, BuildingBlock: MUDLON_clean_sbu_0, # of connection points: 4
#     Node 1, Type 0, BuildingBlock: MUDLON_clean_sbu_0, # of connection points: 4
#     Node 2, Type 0, BuildingBlock: MUDLON_clean_sbu_0, # of connection points: 4
#     Node 3, Type 0, BuildingBlock: MUDLON_clean_sbu_0, # of connection points: 4
#     Node 4, Type 0, BuildingBlock: MUDLON_clean_sbu_0, # of connection points: 4
#     Node 5, Type 0, BuildingBlock: MUDLON_clean_sbu_0, # of connection points: 4
#     Node 6, Type 0, BuildingBlock: MUDLON_clean_sbu_0, # of connection points: 4
#     Node 7, Type 0, BuildingBlock: MUDLON_clean_sbu_0, # of connection points: 4
#     Node 8, Type 0, BuildingBlock: MUDLON_clean_sbu_0, # of connection points: 4
#     Node 9, Type 0, BuildingBlock: MUDLON_clean_sbu_0, # of connection points: 4
#     Node 10, Type 0, BuildingBlock: MUDLON_clean_sbu_0, # of connection points: 4
#     Node 11, Type 0, BuildingBlock: MUDLON_clean_sbu_0, # of connection points: 4
#     Edge 12, Type (0, 0), BuildingBlock: XIVTED_clean_linker_0, # of connection points: 2
#     Edge 13, Type (0, 0), BuildingBlock: XIVTED_clean_linker_0, # of connection points: 2
#     Edge 14, Type (0, 0), BuildingBlock: XIVTED_clean_linker_0, # of connection points: 2
#     Edge 15, Type (0, 0), BuildingBlock: XIVTED_clean_linker_0, # of connection points: 2
#     Edge 16, Type (0, 0), BuildingBlock: XIVTED_clean_linker_0, # of connection points: 2
#     Edge 17, Type (0, 0), BuildingBlock: XIVTED_clean_linker_0, # of connection points: 2
#     Edge 18, Type (0, 0), BuildingBlock: XIVTED_clean_linker_0, # of connection points: 2
#     Edge 19, Type (0, 0), BuildingBlock: XIVTED_clean_linker_0, # of connection points: 2
#     Edge 20, Type (0, 0), BuildingBlock: XIVTED_clean_linker_0, # of connection points: 2
#     Edge 21, Type (0, 0), BuildingBlock: XIVTED_clean_linker_0, # of connection points: 2
#     Edge 22, Type (0, 0), BuildingBlock: XIVTED_clean_linker_0, # of connection points: 2
#     Edge 23, Type (0, 0), BuildingBlock: XIVTED_clean_linker_0, # of connection points: 2
#     Edge 24, Type (0, 0), BuildingBlock: XIVTED_clean_linker_0, # of connection points: 2
#     Edge 25, Type (0, 0), BuildingBlock: XIVTED_clean_linker_0, # of connection points: 2
#     Edge 26, Type (0, 0), BuildingBlock: XIVTED_clean_linker_0, # of connection points: 2
#     Edge 27, Type (0, 0), BuildingBlock: XIVTED_clean_linker_0, # of connection points: 2
#     Edge 28, Type (0, 0), BuildingBlock: XIVTED_clean_linker_0, # of connection points: 2
#     Edge 29, Type (0, 0), BuildingBlock: XIVTED_clean_linker_0, # of connection points: 2
#     Edge 30, Type (0, 0), BuildingBlock: XIVTED_clean_linker_0, # of connection points: 2
#     Edge 31, Type (0, 0), BuildingBlock: XIVTED_clean_linker_0, # of connection points: 2
#     Edge 32, Type (0, 0), BuildingBlock: XIVTED_clean_linker_0, # of connection points: 2
#     Edge 33, Type (0, 0), BuildingBlock: XIVTED_clean_linker_0, # of connection points: 2
#     Edge 34, Type (0, 0), BuildingBlock: XIVTED_clean_linker_0, # of connection points: 2
#     Edge 35, Type (0, 0), BuildingBlock: XIVTED_clean_linker_0, # of connection points: 2
# Relax obj value: 0.017
# Max RMSD: 0.120
# Mean RMSD: 0.120
data_MOF--net-umj--node1-MUDLON_clean_sbu_0--edge1-XIVTED_clean_linker_0
_symmetry_space_group_name_H-M    P1
_symmetry_Int_Tables_number       1
_symmetry_cell_setting            triclinic
loop_
_symmetry_equiv_pos_as_xyz
'x, y, z'
_cell_length_a     30.893012
_cell_length_b     30.860813
_cell_length_c     88.737452
_cell_angle_alpha  90.058344
_cell_angle_beta   89.90451
_cell_angle_gamma 119.99143
loop_
_atom_site_label
_atom_site_type_symbol
_atom_site_fract_x
_atom_site_fract_y
_atom_site_fract_z
_atom_type_partial_charge
Mg0 Mg 0.04556 0.27172 0.09338 0.0
C1 C 0.01833 0.25188 0.12434 0.0
O2 O 0.97714 0.2317 0.11629 0.0
C3 C 0.08517 0.30781 0.06402 0.0
O4 O 0.03705 0.29217 0.06367 0.0
C5 C 0.04132 0.36152 0.09314 0.0
O6 O 0.08751 0.37287 0.09606 0.0
O7 O 0.0086 0.31563 0.09128 0.0
O8 O 0.06008 0.27453 0.11743 0.0
O9 O 0.00905 0.19246 0.08795 0.0
C10 C 0.04173 0.17878 0.08756 0.0
O11 O 0.08868 0.21269 0.08995 0.0
O12 O 0.1044 0.30547 0.07647 0.0
Mg13 Mg 0.77452 0.04378 0.4268 0.0
C14 C 0.76772 0.01698 0.45775 0.0
O15 O 0.74746 0.9757 0.4497 0.0
C16 C 0.77659 0.08294 0.39744 0.0
O17 O 0.74373 0.03487 0.39719 0.0
C18 C 0.6801 0.03833 0.42685 0.0
O19 O 0.71461 0.08459 0.42993 0.0
O20 O 0.69367 0.00599 0.4248 0.0
O21 O 0.78622 0.05869 0.45084 0.0
O22 O 0.81766 0.00773 0.42137 0.0
C23 C 0.86391 0.04069 0.42097 0.0
O24 O 0.87665 0.08762 0.42337 0.0
O25 O 0.79891 0.1023 0.4098 0.0
Mg26 Mg 0.72855 0.77259 0.7606 0.0
C27 C 0.74426 0.76026 0.79154 0.0
O28 O 0.76049 0.73566 0.78339 0.0
C29 C 0.69377 0.77741 0.73124 0.0
O30 O 0.70993 0.74531 0.73082 0.0
C31 C 0.63905 0.6782 0.75976 0.0
O32 O 0.62707 0.71262 0.76275 0.0
O33 O 0.68507 0.69182 0.75807 0.0
O34 O 0.72561 0.78345 0.78472 0.0
O35 O 0.80771 0.81538 0.75522 0.0
C36 C 0.82135 0.86177 0.75515 0.0
O37 O 0.78751 0.87471 0.75786 0.0
O38 O 0.69525 0.79834 0.74377 0.0
Mg39 Mg 0.95677 0.72849 0.0934 0.0
C40 C 0.98493 0.74916 0.12421 0.0
O41 O 0.02578 0.76894 0.11596 0.0
C42 C 0.91642 0.69123 0.06414 0.0
O43 O 0.96416 0.70518 0.06377 0.0
C44 C 0.96065 0.63842 0.09325 0.0
O45 O 0.91452 0.6272 0.09625 0.0
O46 O 0.99341 0.68425 0.09129 0.0
O47 O 0.94289 0.72637 0.11749 0.0
O48 O 0.99348 0.80769 0.08788 0.0
C49 C 0.96086 0.82146 0.08761 0.0
O50 O 0.91394 0.78764 0.09015 0.0
O51 O 0.89775 0.69498 0.07656 0.0
Mg52 Mg 0.23043 0.95822 0.42621 0.0
C53 C 0.23731 0.9853 0.45713 0.0
O54 O 0.25842 0.02648 0.44903 0.0
C55 C 0.22811 0.91894 0.39681 0.0
O56 O 0.2613 0.96691 0.39656 0.0
C57 C 0.32469 0.96315 0.42614 0.0
O58 O 0.29003 0.91678 0.42903 0.0
O59 O 0.31129 0.99566 0.42423 0.0
O60 O 0.21831 0.94347 0.45026 0.0
O61 O 0.18766 0.99464 0.42082 0.0
C62 C 0.14138 0.96176 0.42042 0.0
O63 O 0.12852 0.91478 0.42276 0.0
O64 O 0.20577 0.8997 0.40919 0.0
Mg65 Mg 0.271 0.22749 0.7595 0.0
C66 C 0.25172 0.23493 0.79048 0.0
O67 O 0.2309 0.25539 0.78245 0.0
C68 C 0.30788 0.2249 0.73006 0.0
O69 O 0.29344 0.25835 0.72978 0.0
C70 C 0.35999 0.32204 0.75934 0.0
O71 O 0.37184 0.28755 0.76233 0.0
O72 O 0.31407 0.30838 0.75739 0.0
O73 O 0.27454 0.21605 0.78353 0.0
O74 O 0.19173 0.18463 0.7543 0.0
C75 C 0.17815 0.13828 0.75378 0.0
O76 O 0.21218 0.12521 0.75589 0.0
O77 O 0.30459 0.20257 0.74245 0.0
Mg78 Mg 0.72642 0.95443 0.60147 0.0
C79 C 0.74619 0.98157 0.57053 0.0
O80 O 0.76596 0.02281 0.57859 0.0
C81 C 0.68988 0.91462 0.63086 0.0
O82 O 0.70447 0.96257 0.63121 0.0
C83 C 0.63698 0.95925 0.60166 0.0
O84 O 0.62532 0.91292 0.5987 0.0
O85 O 0.68287 0.99174 0.60358 0.0
O86 O 0.72375 0.93977 0.57743 0.0
O87 O 0.80558 0.99094 0.60685 0.0
C88 C 0.8191 0.95812 0.60722 0.0
O89 O 0.78511 0.91114 0.60485 0.0
O90 O 0.69284 0.89564 0.6184 0.0
Mg91 Mg 0.77533 0.73526 0.93526 0.0
C92 C 0.77292 0.75895 0.90434 0.0
O93 O 0.75633 0.78337 0.91241 0.0
C94 C 0.77656 0.69742 0.9646 0.0
O95 O 0.74393 0.7129 0.96488 0.0
C96 C 0.68078 0.64656 0.935 0.0
O97 O 0.71527 0.63475 0.93197 0.0
O98 O 0.69443 0.69247 0.93712 0.0
O99 O 0.7874 0.73223 0.91122 0.0
O100 O 0.81857 0.8144 0.94078 0.0
C101 C 0.86477 0.82768 0.94143 0.0
O102 O 0.87761 0.79345 0.9393 0.0
O103 O 0.799 0.7005 0.95223 0.0
Mg104 Mg 0.04472 0.77329 0.2679 0.0
C105 C 0.01667 0.76618 0.23709 0.0
O106 O 0.97582 0.74559 0.24533 0.0
C107 C 0.08469 0.77616 0.29716 0.0
O108 O 0.03678 0.74287 0.29751 0.0
C109 C 0.04062 0.67933 0.26791 0.0
O110 O 0.08672 0.71428 0.26487 0.0
O111 O 0.00789 0.69238 0.26994 0.0
O112 O 0.05868 0.78501 0.24381 0.0
O113 O 0.00822 0.81595 0.27345 0.0
C114 C 0.04092 0.86234 0.27375 0.0
O115 O 0.08782 0.87536 0.27123 0.0
O116 O 0.10363 0.79846 0.28476 0.0
Mg117 Mg 0.26797 0.04034 0.60104 0.0
C118 C 0.24818 0.01305 0.57012 0.0
O119 O 0.22748 0.97189 0.57822 0.0
C120 C 0.30465 0.07979 0.6304 0.0
O121 O 0.28925 0.03167 0.63071 0.0
C122 C 0.35699 0.0349 0.60122 0.0
O123 O 0.3688 0.08122 0.59819 0.0
O124 O 0.31105 0.00256 0.60317 0.0
O125 O 0.27115 0.05488 0.57698 0.0
O126 O 0.18882 0.00434 0.60646 0.0
C127 C 0.17546 0.03728 0.60678 0.0
O128 O 0.20956 0.08418 0.60433 0.0
O129 O 0.30195 0.09907 0.61799 0.0
Mg130 Mg 0.23084 0.277 0.93422 0.0
C131 C 0.23821 0.25692 0.90327 0.0
O132 O 0.25957 0.23708 0.91133 0.0
C133 C 0.22718 0.31344 0.96357 0.0
O134 O 0.26044 0.29876 0.96393 0.0
C135 C 0.32512 0.36658 0.9345 0.0
O136 O 0.29058 0.37836 0.93154 0.0
O137 O 0.31162 0.32061 0.93636 0.0
O138 O 0.21897 0.27949 0.91017 0.0
O139 O 0.18819 0.19785 0.93975 0.0
C140 C 0.14187 0.18432 0.93998 0.0
O141 O 0.12898 0.21824 0.93733 0.0
O142 O 0.20543 0.31059 0.95111 0.0
Mg143 Mg 0.95636 0.22787 0.26809 0.0
C144 C 0.98301 0.23432 0.23714 0.0
O145 O 0.02427 0.2553 0.24516 0.0
C146 C 0.91727 0.22557 0.29752 0.0
O147 O 0.96514 0.259 0.2977 0.0
C148 C 0.96043 0.32182 0.26811 0.0
O149 O 0.91422 0.2868 0.26527 0.0
O150 O 0.99324 0.30882 0.26999 0.0
O151 O 0.94133 0.21551 0.24408 0.0
O152 O 0.9931 0.18535 0.27347 0.0
C153 C 0.96041 0.13897 0.27389 0.0
O154 O 0.91343 0.12588 0.27155 0.0
O155 O 0.89802 0.203 0.28517 0.0
H156 H 0.90691 0.19628 0.21618 0.0
H157 H 0.09434 0.28934 0.14531 0.0
H158 H 0.06767 0.27316 0.2201 0.0
H159 H 0.93355 0.20677 0.14135 0.0
H160 H 0.08543 0.28375 0.17282 0.0
H161 H 0.91574 0.19953 0.18867 0.0
C162 C 0.94397 0.21371 0.21128 0.0
C163 C 0.98654 0.23449 0.22048 0.0
C164 C 0.05212 0.26679 0.16591 0.0
C165 C 0.99704 0.23851 0.18904 0.0
C166 C 0.05725 0.27 0.15021 0.0
C167 C 0.0147 0.24857 0.141 0.0
C168 C 0.00412 0.24206 0.17243 0.0
C169 C 0.96749 0.22392 0.14798 0.0
C170 C 0.94905 0.2156 0.19557 0.0
C171 C 0.03372 0.25666 0.21349 0.0
N172 N 0.96349 0.22144 0.16323 0.0
N173 N 0.03767 0.25815 0.19823 0.0
H174 H 0.80391 0.09311 0.47875 0.0
H175 H 0.71029 0.90547 0.54953 0.0
H176 H 0.72942 0.93226 0.47475 0.0
H177 H 0.79069 0.06645 0.55355 0.0
H178 H 0.71683 0.91439 0.52203 0.0
H179 H 0.79956 0.08424 0.50626 0.0
C180 C 0.78678 0.05602 0.48364 0.0
C181 C 0.76699 0.01343 0.47442 0.0
C182 C 0.7331 0.94774 0.52895 0.0
C183 C 0.7617 0.0029 0.50584 0.0
C184 C 0.72934 0.94261 0.54465 0.0
C185 C 0.7499 0.9852 0.55388 0.0
C186 C 0.75751 0.9958 0.52246 0.0
C187 C 0.77421 0.03247 0.54692 0.0
C188 C 0.78426 0.05092 0.49934 0.0
C189 C 0.74517 0.96622 0.48138 0.0
N190 N 0.77725 0.03647 0.53167 0.0
N191 N 0.74304 0.96225 0.49664 0.0
H192 H 0.77737 0.70899 0.80841 0.0
H193 H 0.74662 0.81567 0.88736 0.0
H194 H 0.72152 0.81175 0.81261 0.0
H195 H 0.79555 0.70735 0.88329 0.0
H196 H 0.73998 0.81678 0.86005 0.0
H197 H 0.78616 0.70963 0.83567 0.0
C198 C 0.7669 0.73178 0.81506 0.0
C199 C 0.74866 0.76045 0.80817 0.0
C200 C 0.75226 0.79281 0.86509 0.0
C201 C 0.75886 0.76132 0.83956 0.0
C202 C 0.75617 0.79215 0.88073 0.0
C203 C 0.77158 0.7612 0.88767 0.0
C204 C 0.76381 0.7623 0.85624 0.0
C205 C 0.78354 0.73176 0.87843 0.0
C206 C 0.77199 0.73206 0.83067 0.0
C207 C 0.73567 0.78906 0.81743 0.0
N208 N 0.77928 0.73296 0.86318 0.0
N209 N 0.74109 0.78881 0.83265 0.0
H210 H 0.0705 0.79487 0.14079 0.0
H211 H 0.93119 0.72749 0.2205 0.0
H212 H 0.90993 0.71258 0.14561 0.0
H213 H 0.09168 0.80295 0.21569 0.0
H214 H 0.92292 0.72423 0.1932 0.0
H215 H 0.07879 0.80049 0.16808 0.0
C216 C 0.03684 0.77798 0.14758 0.0
C217 C 0.98933 0.75309 0.14085 0.0
C218 C 0.95997 0.74156 0.19808 0.0
C219 C 0.9988 0.75951 0.17229 0.0
C220 C 0.96484 0.74352 0.21371 0.0
C221 C 0.01231 0.76552 0.22045 0.0
C222 C 0.00287 0.76176 0.189 0.0
C223 C 0.05438 0.78563 0.211 0.0
C224 C 0.04172 0.78123 0.16321 0.0
C225 C 0.94725 0.73206 0.15029 0.0
N226 N 0.04865 0.78323 0.19575 0.0
N227 N 0.95299 0.73573 0.16554 0.0
H228 H 0.20224 0.92803 0.55321 0.0
H229 H 0.27666 0.07034 0.47402 0.0
H230 H 0.28715 0.08885 0.54899 0.0
H231 H 0.19843 0.90945 0.47824 0.0
H232 H 0.27851 0.07765 0.50135 0.0
H233 H 0.19828 0.92071 0.52588 0.0
C234 C 0.22005 0.96195 0.54655 0.0
C235 C 0.24518 0.00924 0.55346 0.0
C236 C 0.26089 0.04071 0.49634 0.0
C237 C 0.24069 0.00089 0.52198 0.0
C238 C 0.25974 0.0364 0.48069 0.0
C239 C 0.23735 0.98909 0.47378 0.0
C240 C 0.23945 0.99743 0.50525 0.0
C241 C 0.21609 0.94663 0.48306 0.0
C242 C 0.21775 0.95763 0.53089 0.0
C243 C 0.26742 0.05168 0.54417 0.0
N244 N 0.21769 0.95182 0.49833 0.0
N245 N 0.26468 0.04648 0.5289 0.0
H246 H 0.2912 0.19829 0.81143 0.0
H247 H 0.19844 0.29316 0.8823 0.0
H248 H 0.20609 0.274 0.80753 0.0
H249 H 0.27814 0.21196 0.88627 0.0
H250 H 0.20079 0.28656 0.8548 0.0
H251 H 0.28682 0.20277 0.83895 0.0
C252 C 0.27154 0.21572 0.81634 0.0
C253 C 0.24906 0.23581 0.80715 0.0
C254 C 0.21769 0.27013 0.86171 0.0
C255 C 0.24395 0.24123 0.83858 0.0
C256 C 0.21633 0.27392 0.87741 0.0
C257 C 0.23812 0.25315 0.88662 0.0
C258 C 0.24109 0.24548 0.8552 0.0
C259 C 0.26084 0.22861 0.87965 0.0
C260 C 0.26904 0.21831 0.83205 0.0
C261 C 0.22406 0.25801 0.81414 0.0
N262 N 0.26178 0.22553 0.8644 0.0
N263 N 0.22227 0.26019 0.8294 0.0
H264 H 0.18014 0.32459 0.05846 0.0
H265 H 0.14646 0.32616 0.96916 0.0
H266 H 0.05485 0.32449 0.03696 0.0
H267 H 0.2742 0.33129 0.99065 0.0
H268 H 0.11752 0.33669 0.99391 0.0
H269 H 0.22065 0.33806 0.03378 0.0
C270 C 0.16149 0.32808 0.0486 0.0
C271 C 0.11378 0.32268 0.04975 0.0
C272 C 0.15221 0.33609 0.99317 0.0
C273 C 0.15952 0.33767 0.0215 0.0
C274 C 0.16877 0.33025 0.97904 0.0
C275 C 0.21238 0.32711 0.97787 0.0
C276 C 0.17942 0.33866 1.00619 0.0
C277 C 0.23992 0.33274 0.99104 0.0
C278 C 0.18452 0.33565 0.0345 0.0
C279 C 0.09136 0.32768 0.03659 0.0
N280 N 0.22273 0.33767 1.00464 0.0
N281 N 0.11415 0.33435 0.02302 0.0
H282 H 0.72679 0.05347 0.37079 0.0
H283 H 0.94658 0.27526 0.32422 0.0
H284 H 0.857 0.17622 0.39134 0.0
H285 H 0.82458 0.1444 0.30367 0.0
H286 H 0.90679 0.2469 0.34874 0.0
H287 H 0.7546 0.09366 0.34631 0.0
C288 C 0.76107 0.08923 0.37019 0.0
C289 C 0.79004 0.11121 0.38312 0.0
C290 C 0.88839 0.22458 0.33887 0.0
C291 C 0.82221 0.15735 0.35501 0.0
C292 C 0.91106 0.24073 0.32483 0.0
C293 C 0.88919 0.21174 0.31188 0.0
C294 C 0.84351 0.17895 0.34004 0.0
C295 C 0.84289 0.16774 0.31336 0.0
C296 C 0.77689 0.11213 0.35617 0.0
C297 C 0.83368 0.15783 0.38166 0.0
N298 N 0.82184 0.15237 0.32723 0.0
N299 N 0.84876 0.1791 0.3678 0.0
H300 H 0.67707 0.85578 0.72576 0.0
H301 H 0.6768 0.82099 0.63641 0.0
H302 H 0.67767 0.73073 0.70413 0.0
H303 H 0.67214 0.94406 0.65797 0.0
H304 H 0.6659 0.78143 0.66113 0.0
H305 H 0.66413 0.88315 0.70108 0.0
C306 C 0.67379 0.83374 0.71587 0.0
C307 C 0.67918 0.79137 0.71698 0.0
C308 C 0.66668 0.81684 0.66042 0.0
C309 C 0.6648 0.82249 0.68874 0.0
C310 C 0.67275 0.8393 0.6463 0.0
C311 C 0.6761 0.88618 0.64515 0.0
C312 C 0.66411 0.84156 0.67344 0.0
C313 C 0.67051 0.90821 0.65833 0.0
C314 C 0.66654 0.84939 0.70178 0.0
C315 C 0.67448 0.76409 0.70379 0.0
N316 N 0.66535 0.88601 0.67193 0.0
N317 N 0.6681 0.78038 0.69023 0.0
H318 H 0.94409 0.66935 0.03737 0.0
H319 H 0.72715 0.67795 0.99135 0.0
H320 H 0.8246 0.68201 0.05825 0.0
H321 H 0.85571 0.68247 0.97052 0.0
H322 H 0.75441 0.66441 0.01574 0.0
H323 H 0.90421 0.65896 1.01295 0.0
C324 C 0.90908 0.6694 0.03685 0.0
C325 C 0.88798 0.6773 0.04986 0.0
C326 C 0.77645 0.66784 1.00584 0.0
C327 C 0.84223 0.66565 0.02182 0.0
C328 C 0.76093 0.67558 0.99187 0.0
C329 C 0.78963 0.68209 0.97888 0.0
C330 C 0.82114 0.66673 1.0069 0.0
C331 C 0.83264 0.67798 0.98025 0.0
C332 C 0.88637 0.66348 0.02287 0.0
C333 C 0.8423 0.67632 0.0485 0.0
N334 N 0.84741 0.67111 0.99405 0.0
N335 N 0.82121 0.67123 0.03468 0.0
H336 H 0.05613 0.72658 0.32389 0.0
H337 H 0.27723 0.94837 0.37 0.0
H338 H 0.17753 0.85739 0.30308 0.0
H339 H 0.14741 0.82577 0.39082 0.0
H340 H 0.24873 0.90821 0.34555 0.0
H341 H 0.09657 0.75503 0.34829 0.0
C342 C 0.09165 0.76112 0.32442 0.0
C343 C 0.11317 0.79007 0.31143 0.0
C344 C 0.22668 0.88977 0.35546 0.0
C345 C 0.1596 0.82297 0.33946 0.0
C346 C 0.2429 0.91265 0.36946 0.0
C347 C 0.21424 0.89071 0.38247 0.0
C348 C 0.18129 0.84459 0.35439 0.0
C349 C 0.1705 0.84414 0.38108 0.0
C350 C 0.11469 0.77732 0.33839 0.0
C351 C 0.1595 0.83408 0.3128 0.0
N352 N 0.15505 0.82288 0.36724 0.0
N353 N 0.18092 0.84951 0.32662 0.0
H354 H 0.32437 0.05034 0.65716 0.0
H355 H 0.32844 0.27412 0.70327 0.0
H356 H 0.31824 0.1735 0.63633 0.0
H357 H 0.31886 0.14325 0.72409 0.0
H358 H 0.33946 0.24503 0.67882 0.0
H359 H 0.33704 0.09105 0.68156 0.0
C360 C 0.3262 0.08629 0.65768 0.0
C361 C 0.3195 0.10825 0.64469 0.0
C362 C 0.33548 0.22287 0.68873 0.0
C363 C 0.33384 0.155 0.67273 0.0
C364 C 0.32919 0.23944 0.70273 0.0
C365 C 0.32199 0.21066 0.71574 0.0
C366 C 0.33439 0.17702 0.68766 0.0
C367 C 0.32398 0.16644 0.71435 0.0
C368 C 0.33344 0.10949 0.67166 0.0
C369 C 0.32292 0.15512 0.64606 0.0
N370 N 0.32942 0.15066 0.70051 0.0
N371 N 0.32929 0.1767 0.65988 0.0
H372 H 0.89524 0.53815 0.09348 0.0
H373 H 0.10665 0.46177 0.09308 0.0
H374 H 0.05288 0.64561 0.09041 0.0
H375 H 0.94894 0.35417 0.09062 0.0
H376 H 0.08761 0.52927 0.09208 0.0
H377 H 0.9142 0.47058 0.09241 0.0
C378 C 0.93396 0.54762 0.09257 0.0
C379 C 0.97263 0.59775 0.09212 0.0
C380 C 0.05712 0.49097 0.0917 0.0
C381 C 0.99453 0.52012 0.09091 0.0
C382 C 0.06789 0.45225 0.09231 0.0
C383 C 0.02924 0.40211 0.09202 0.0
C384 C 0.00724 0.47967 0.09088 0.0
C385 C 0.97986 0.39224 0.0909 0.0
C386 C 0.94469 0.50887 0.09192 0.0
C387 C 0.02195 0.60755 0.09082 0.0
N388 N 0.97025 0.43073 0.09046 0.0
N389 N 0.03152 0.56904 0.09034 0.0
H390 H 0.59591 0.94569 0.42354 0.0
H391 H 0.40911 0.05594 0.42353 0.0
H392 H 0.64431 0.10292 0.42741 0.0
H393 H 0.36036 0.89843 0.42635 0.0
H394 H 0.49597 0.07413 0.42267 0.0
H395 H 0.5091 0.92754 0.4223 0.0
C396 C 0.58831 0.97633 0.42409 0.0
C397 C 0.62736 0.0258 0.42567 0.0
C398 C 0.46617 0.03559 0.42345 0.0
C399 C 0.52847 0.00549 0.42422 0.0
C400 C 0.41664 0.02525 0.42392 0.0
C401 C 0.37747 0.97568 0.42511 0.0
C402 C 0.47644 0.99603 0.42409 0.0
C403 C 0.38936 0.93729 0.42554 0.0
C404 C 0.53882 0.96601 0.4234 0.0
C405 C 0.6154 0.06414 0.42629 0.0
N406 N 0.4377 0.94826 0.42505 0.0
N407 N 0.5671 0.05318 0.42558 0.0
H408 H 0.35126 0.40612 0.75613 0.0
H409 H 0.64792 0.59408 0.75698 0.0
H410 H 0.46036 0.35822 0.7599 0.0
H411 H 0.53868 0.64216 0.75945 0.0
H412 H 0.57957 0.50707 0.75574 0.0
H413 H 0.41966 0.49317 0.75505 0.0
C414 C 0.3895 0.41388 0.75668 0.0
C415 C 0.40007 0.3749 0.75821 0.0
C416 C 0.57065 0.53675 0.75652 0.0
C417 C 0.47838 0.47407 0.75695 0.0
C418 C 0.60965 0.58637 0.75721 0.0
C419 C 0.59902 0.62539 0.75843 0.0
C420 C 0.52077 0.52623 0.75699 0.0
C421 C 0.5487 0.61327 0.75864 0.0
C422 C 0.42854 0.46351 0.75609 0.0
C423 C 0.45037 0.38707 0.75884 0.0
N424 N 0.51151 0.56484 0.75795 0.0
N425 N 0.48757 0.4355 0.75823 0.0
H426 H 0.34846 0.94209 0.60425 0.0
H427 H 0.64531 0.052 0.60459 0.0
H428 H 0.45731 0.09943 0.601 0.0
H429 H 0.53666 0.89463 0.60128 0.0
H430 H 0.57667 0.07025 0.60557 0.0
H431 H 0.41704 0.92378 0.60544 0.0
C432 C 0.38668 0.97272 0.60383 0.0
C433 C 0.39714 0.02227 0.60243 0.0
C434 C 0.56795 0.03173 0.60465 0.0
C435 C 0.47563 0.00177 0.60382 0.0
C436 C 0.60711 0.02135 0.60412 0.0
C437 C 0.59674 0.97181 0.60276 0.0
C438 C 0.51816 0.99224 0.6039 0.0
C439 C 0.54649 0.93346 0.60222 0.0
C440 C 0.42581 0.96231 0.6045 0.0
C441 C 0.44741 0.06058 0.60198 0.0
N442 N 0.50915 0.94448 0.60278 0.0
N443 N 0.48471 0.04953 0.60265 0.0
H444 H 0.4093 0.35806 0.93739 0.0
H445 H 0.59659 0.65515 0.93805 0.0
H446 H 0.36094 0.46704 0.93437 0.0
H447 H 0.64476 0.54613 0.93433 0.0
H448 H 0.50964 0.58654 0.93899 0.0
H449 H 0.49615 0.42667 0.93857 0.0
C450 C 0.41692 0.39633 0.93702 0.0
C451 C 0.37787 0.4068 0.93569 0.0
C452 C 0.53934 0.57774 0.93799 0.0
C453 C 0.47683 0.48535 0.93705 0.0
C454 C 0.58891 0.61688 0.93748 0.0
C455 C 0.62794 0.6064 0.93602 0.0
C456 C 0.5289 0.52788 0.93712 0.0
C457 C 0.61588 0.55607 0.93535 0.0
C458 C 0.46644 0.43548 0.93767 0.0
C459 C 0.38986 0.45713 0.93529 0.0
N460 N 0.56751 0.51877 0.93589 0.0
N461 N 0.4382 0.49446 0.93595 0.0
H462 H 0.10607 0.6446 0.26756 0.0
H463 H 0.89496 0.35654 0.26808 0.0
H464 H 0.94843 0.59417 0.27079 0.0
H465 H 0.05273 0.40705 0.27055 0.0
H466 H 0.91387 0.44308 0.26902 0.0
H467 H 0.08721 0.55809 0.2686 0.0
C468 C 0.06737 0.6153 0.26851 0.0
C469 C 0.02868 0.62668 0.26901 0.0
C470 C 0.9444 0.43535 0.26941 0.0
C471 C 0.00688 0.52718 0.27019 0.0
C472 C 0.9337 0.38587 0.26884 0.0
C473 C 0.97241 0.3745 0.26915 0.0
C474 C 0.99426 0.47403 0.27023 0.0
C475 C 0.02177 0.41411 0.27025 0.0
C476 C 0.0567 0.56583 0.26914 0.0
C477 C 0.97938 0.5871 0.27034 0.0
N478 N 0.0313 0.4622 0.27066 0.0
N479 N 0.96986 0.53903 0.2708 0.0
H480 H 0.9481 0.09513 0.08533 0.0
H481 H 0.05449 0.90506 0.0852 0.0
H482 H 0.10523 0.14196 0.08499 0.0
H483 H 0.89737 0.85829 0.08517 0.0
H484 H 0.07402 0.9923 0.08343 0.0
H485 H 0.92858 0.00789 0.08358 0.0
C486 C 0.97844 0.08713 0.08478 0.0
C487 C 0.02832 0.12591 0.08541 0.0
C488 C 0.03526 0.96286 0.08372 0.0
C489 C 0.00641 0.02632 0.08348 0.0
C490 C 0.02415 0.91307 0.08471 0.0
C491 C 0.97428 0.87431 0.08544 0.0
C492 C 0.9962 0.97389 0.08348 0.0
C493 C 0.93642 0.88691 0.08475 0.0
C494 C 0.96734 0.03734 0.0838 0.0
C495 C 0.06618 0.11332 0.08464 0.0
N496 N 0.94816 0.9355 0.08389 0.0
N497 N 0.05445 0.06473 0.0838 0.0
H498 H 0.85448 0.94728 0.4185 0.0
H499 H 0.15093 0.05532 0.4184 0.0
H500 H 0.96412 0.10479 0.41853 0.0
H501 H 0.04124 0.89785 0.41782 0.0
H502 H 0.08299 0.07444 0.4168 0.0
H503 H 0.92246 0.92829 0.41661 0.0
C504 C 0.89273 0.97782 0.41801 0.0
C505 C 0.90357 0.02764 0.41878 0.0
C506 C 0.07387 0.0357 0.41693 0.0
C507 C 0.98153 0.00633 0.41668 0.0
C508 C 0.11268 0.02483 0.41782 0.0
C509 C 0.10181 0.97497 0.41835 0.0
C510 C 0.0239 0.99641 0.41659 0.0
C511 C 0.05147 0.93689 0.41756 0.0
C512 C 0.93156 0.96701 0.41695 0.0
C513 C 0.95391 0.06576 0.41808 0.0
N514 N 0.01448 0.9484 0.4168 0.0
N515 N 0.99093 0.05432 0.41715 0.0
H516 H 0.09447 0.14832 0.75235 0.0
H517 H 0.90477 0.8518 0.75199 0.0
H518 H 0.14135 0.03798 0.7509 0.0
H519 H 0.85802 0.96226 0.75328 0.0
H520 H 0.9918 0.91955 0.74992 0.0
H521 H 0.00726 0.08064 0.751 0.0
C522 C 0.08647 0.10998 0.75164 0.0
C523 C 0.12526 0.09885 0.75185 0.0
C524 C 0.9624 0.92888 0.75058 0.0
C525 C 0.02573 0.02122 0.75037 0.0
C526 C 0.91274 0.89018 0.75174 0.0
C527 C 0.87406 0.90131 0.75291 0.0
C528 C 0.97338 0.979 0.7506 0.0
C529 C 0.88659 0.95181 0.75251 0.0
C530 C 0.03671 0.07131 0.7509 0.0
C531 C 0.1127 0.04841 0.75089 0.0
N532 N 0.93506 0.98869 0.75147 0.0
N533 N 0.06412 0.01155 0.75027 0.0
H534 H 0.90293 0.05173 0.60923 0.0
H535 H 0.09166 0.94388 0.60935 0.0
H536 H 0.85548 0.89429 0.60988 0.0
H537 H 0.13921 0.10136 0.60909 0.0
H538 H 0.00469 0.92486 0.61121 0.0
H539 H 0.98999 0.07093 0.61086 0.0
C540 C 0.91076 0.02126 0.60983 0.0
C541 C 0.87187 0.97138 0.60931 0.0
C542 C 0.03424 0.96359 0.61083 0.0
C543 C 0.97122 0.99292 0.61111 0.0
C544 C 0.08387 0.97441 0.60979 0.0
C545 C 0.12276 0.02423 0.60896 0.0
C546 C 0.0235 0.00288 0.61103 0.0
C547 C 0.11047 0.06234 0.60959 0.0
C548 C 0.96044 0.03218 0.61073 0.0
C549 C 0.88422 0.93335 0.61013 0.0
N550 N 0.06202 0.05088 0.61051 0.0
N551 N 0.93271 0.94489 0.61091 0.0
H552 H 0.85521 0.91171 0.94301 0.0
H553 H 0.15157 0.10062 0.94297 0.0
H554 H 0.96487 0.86405 0.94436 0.0
H555 H 0.04164 0.148 0.94225 0.0
H556 H 0.0837 0.01361 0.94514 0.0
H557 H 0.92308 0.99886 0.94442 0.0
C558 C 0.89345 0.91952 0.94372 0.0
C559 C 0.90433 0.88053 0.94345 0.0
C560 C 0.07452 0.04314 0.94459 0.0
C561 C 0.98219 0.98002 0.94499 0.0
C562 C 0.11328 0.09279 0.94337 0.0
C563 C 0.10232 0.13164 0.94232 0.0
C564 C 0.02451 0.03235 0.94474 0.0
C565 C 0.05195 0.1193 0.94291 0.0
C566 C 0.93222 0.96926 0.94449 0.0
C567 C 0.95465 0.89287 0.94441 0.0
N568 N 0.01501 0.07083 0.944 0.0
N569 N 0.99163 0.94143 0.94505 0.0
H570 H 0.94737 0.8524 0.27621 0.0
H571 H 0.05404 0.14898 0.27599 0.0
H572 H 0.10454 0.96271 0.27615 0.0
H573 H 0.89689 0.03866 0.27653 0.0
H574 H 0.07352 0.08124 0.27771 0.0
H575 H 0.92797 0.92018 0.278 0.0
C576 C 0.97775 0.89075 0.27668 0.0
C577 C 0.0276 0.90184 0.27593 0.0
C578 C 0.03476 0.07193 0.27754 0.0
C579 C 0.00582 0.97958 0.2779 0.0
C580 C 0.02369 0.11063 0.27658 0.0
C581 C 0.97382 0.09953 0.27601 0.0
C582 C 0.99567 0.02184 0.27791 0.0
C583 C 0.93594 0.04907 0.27683 0.0
C584 C 0.96671 0.92948 0.27768 0.0
C585 C 0.0655 0.95231 0.2766 0.0
N586 N 0.94763 0.0122 0.27766 0.0
N587 N 0.05384 0.98921 0.27746 0.0
loop_
_geom_bond_atom_site_label_1
_geom_bond_atom_site_label_2
_geom_bond_distance
_geom_bond_site_symmetry_2
_ccdc_geom_bond_type
Mg0 O7 2.141 . S
Mg0 O8 2.048 . S
Mg0 O9 2.048 . S
Mg0 O12 2.141 . S
C1 O2 1.313 . S
C1 O8 1.195 . S
O2 C1 1.313 . S
C3 O4 1.245 . S
C3 O12 1.289 . S
O4 C3 1.245 . S
C5 O6 1.245 . S
C5 O7 1.289 . S
O6 C5 1.245 . S
O7 Mg0 2.141 . S
O7 C5 1.289 . S
O8 Mg0 2.048 . S
O8 C1 1.195 . S
O9 Mg0 2.048 . S
O9 C10 1.195 . S
C10 O9 1.195 . S
C10 O11 1.313 . S
O11 C10 1.313 . S
O12 Mg0 2.141 . S
O12 C3 1.289 . S
Mg13 O20 2.141 . S
Mg13 O21 2.048 . S
Mg13 O22 2.048 . S
Mg13 O25 2.141 . S
C14 O15 1.313 . S
C14 O21 1.195 . S
O15 C14 1.313 . S
C16 O17 1.245 . S
C16 O25 1.289 . S
O17 C16 1.245 . S
C18 O19 1.245 . S
C18 O20 1.289 . S
O19 C18 1.245 . S
O20 Mg13 2.141 . S
O20 C18 1.289 . S
O21 Mg13 2.048 . S
O21 C14 1.195 . S
O22 Mg13 2.048 . S
O22 C23 1.195 . S
C23 O22 1.195 . S
C23 O24 1.313 . S
O24 C23 1.313 . S
O25 Mg13 2.141 . S
O25 C16 1.289 . S
Mg26 O33 2.141 . S
Mg26 O34 2.048 . S
Mg26 O35 2.048 . S
Mg26 O38 2.141 . S
C27 O28 1.313 . S
C27 O34 1.195 . S
O28 C27 1.313 . S
C29 O30 1.245 . S
C29 O38 1.289 . S
O30 C29 1.245 . S
C31 O32 1.245 . S
C31 O33 1.289 . S
O32 C31 1.245 . S
O33 Mg26 2.141 . S
O33 C31 1.289 . S
O34 Mg26 2.048 . S
O34 C27 1.195 . S
O35 Mg26 2.048 . S
O35 C36 1.195 . S
C36 O35 1.195 . S
C36 O37 1.313 . S
O37 C36 1.313 . S
O38 Mg26 2.141 . S
O38 C29 1.289 . S
Mg39 O46 2.141 . S
Mg39 O47 2.048 . S
Mg39 O48 2.048 . S
Mg39 O51 2.141 . S
C40 O41 1.313 . S
C40 O47 1.195 . S
O41 C40 1.313 . S
C42 O43 1.245 . S
C42 O51 1.289 . S
O43 C42 1.245 . S
C44 O45 1.245 . S
C44 O46 1.289 . S
O45 C44 1.245 . S
O46 Mg39 2.141 . S
O46 C44 1.289 . S
O47 Mg39 2.048 . S
O47 C40 1.195 . S
O48 Mg39 2.048 . S
O48 C49 1.195 . S
C49 O48 1.195 . S
C49 O50 1.313 . S
O50 C49 1.313 . S
O51 Mg39 2.141 . S
O51 C42 1.289 . S
Mg52 O59 2.141 . S
Mg52 O60 2.048 . S
Mg52 O61 2.048 . S
Mg52 O64 2.141 . S
C53 O54 1.313 . S
C53 O60 1.195 . S
O54 C53 1.313 . S
C55 O56 1.245 . S
C55 O64 1.289 . S
O56 C55 1.245 . S
C57 O58 1.245 . S
C57 O59 1.289 . S
O58 C57 1.245 . S
O59 Mg52 2.141 . S
O59 C57 1.289 . S
O60 Mg52 2.048 . S
O60 C53 1.195 . S
O61 Mg52 2.048 . S
O61 C62 1.195 . S
C62 O61 1.195 . S
C62 O63 1.313 . S
O63 C62 1.313 . S
O64 Mg52 2.141 . S
O64 C55 1.289 . S
Mg65 O72 2.141 . S
Mg65 O73 2.048 . S
Mg65 O74 2.048 . S
Mg65 O77 2.141 . S
C66 O67 1.313 . S
C66 O73 1.195 . S
O67 C66 1.313 . S
C68 O69 1.245 . S
C68 O77 1.289 . S
O69 C68 1.245 . S
C70 O71 1.245 . S
C70 O72 1.289 . S
O71 C70 1.245 . S
O72 Mg65 2.141 . S
O72 C70 1.289 . S
O73 Mg65 2.048 . S
O73 C66 1.195 . S
O74 Mg65 2.048 . S
O74 C75 1.195 . S
C75 O74 1.195 . S
C75 O76 1.313 . S
O76 C75 1.313 . S
O77 Mg65 2.141 . S
O77 C68 1.289 . S
Mg78 O85 2.141 . S
Mg78 O86 2.048 . S
Mg78 O87 2.048 . S
Mg78 O90 2.141 . S
C79 O80 1.313 . S
C79 O86 1.195 . S
O80 C79 1.313 . S
C81 O82 1.245 . S
C81 O90 1.289 . S
O82 C81 1.245 . S
C83 O84 1.245 . S
C83 O85 1.289 . S
O84 C83 1.245 . S
O85 Mg78 2.141 . S
O85 C83 1.289 . S
O86 Mg78 2.048 . S
O86 C79 1.195 . S
O87 Mg78 2.048 . S
O87 C88 1.195 . S
C88 O87 1.195 . S
C88 O89 1.313 . S
O89 C88 1.313 . S
O90 Mg78 2.141 . S
O90 C81 1.289 . S
Mg91 O98 2.141 . S
Mg91 O99 2.048 . S
Mg91 O100 2.048 . S
Mg91 O103 2.141 . S
C92 O93 1.313 . S
C92 O99 1.195 . S
O93 C92 1.313 . S
C94 O95 1.245 . S
C94 O103 1.289 . S
O95 C94 1.245 . S
C96 O97 1.245 . S
C96 O98 1.289 . S
O97 C96 1.245 . S
O98 Mg91 2.141 . S
O98 C96 1.289 . S
O99 Mg91 2.048 . S
O99 C92 1.195 . S
O100 Mg91 2.048 . S
O100 C101 1.195 . S
C101 O100 1.195 . S
C101 O102 1.313 . S
O102 C101 1.313 . S
O103 Mg91 2.141 . S
O103 C94 1.289 . S
Mg104 O111 2.141 . S
Mg104 O112 2.048 . S
Mg104 O113 2.048 . S
Mg104 O116 2.141 . S
C105 O106 1.313 . S
C105 O112 1.195 . S
O106 C105 1.313 . S
C107 O108 1.245 . S
C107 O116 1.289 . S
O108 C107 1.245 . S
C109 O110 1.245 . S
C109 O111 1.289 . S
O110 C109 1.245 . S
O111 Mg104 2.141 . S
O111 C109 1.289 . S
O112 Mg104 2.048 . S
O112 C105 1.195 . S
O113 Mg104 2.048 . S
O113 C114 1.195 . S
C114 O113 1.195 . S
C114 O115 1.313 . S
O115 C114 1.313 . S
O116 Mg104 2.141 . S
O116 C107 1.289 . S
Mg117 O124 2.141 . S
Mg117 O125 2.048 . S
Mg117 O126 2.048 . S
Mg117 O129 2.141 . S
C118 O119 1.313 . S
C118 O125 1.195 . S
O119 C118 1.313 . S
C120 O121 1.245 . S
C120 O129 1.289 . S
O121 C120 1.245 . S
C122 O123 1.245 . S
C122 O124 1.289 . S
O123 C122 1.245 . S
O124 Mg117 2.141 . S
O124 C122 1.289 . S
O125 Mg117 2.048 . S
O125 C118 1.195 . S
O126 Mg117 2.048 . S
O126 C127 1.195 . S
C127 O126 1.195 . S
C127 O128 1.313 . S
O128 C127 1.313 . S
O129 Mg117 2.141 . S
O129 C120 1.289 . S
Mg130 O137 2.141 . S
Mg130 O138 2.048 . S
Mg130 O139 2.048 . S
Mg130 O142 2.141 . S
C131 O132 1.313 . S
C131 O138 1.195 . S
O132 C131 1.313 . S
C133 O134 1.245 . S
C133 O142 1.289 . S
O134 C133 1.245 . S
C135 O136 1.245 . S
C135 O137 1.289 . S
O136 C135 1.245 . S
O137 Mg130 2.141 . S
O137 C135 1.289 . S
O138 Mg130 2.048 . S
O138 C131 1.195 . S
O139 Mg130 2.048 . S
O139 C140 1.195 . S
C140 O139 1.195 . S
C140 O141 1.313 . S
O141 C140 1.313 . S
O142 Mg130 2.141 . S
O142 C133 1.289 . S
Mg143 O150 2.141 . S
Mg143 O151 2.048 . S
Mg143 O152 2.048 . S
Mg143 O155 2.141 . S
C144 O145 1.313 . S
C144 O151 1.195 . S
O145 C144 1.313 . S
C146 O147 1.245 . S
C146 O155 1.289 . S
O147 C146 1.245 . S
C148 O149 1.245 . S
C148 O150 1.289 . S
O149 C148 1.245 . S
O150 Mg143 2.141 . S
O150 C148 1.289 . S
O151 Mg143 2.048 . S
O151 C144 1.195 . S
O152 Mg143 2.048 . S
O152 C153 1.195 . S
C153 O152 1.195 . S
C153 O154 1.313 . S
O154 C153 1.313 . S
O155 Mg143 2.141 . S
O155 C146 1.289 . S
H156 C162 0.930 . S
H157 C166 0.930 . S
H158 C171 0.929 . S
H159 C169 0.929 . S
H160 C164 0.929 . S
H161 C170 0.929 . S
C162 H156 0.930 . S
C162 C163 1.367 1_455 S
C162 C170 1.378 . S
C163 C162 1.367 1_655 S
C163 C171 1.433 . S
C164 H160 0.929 . S
C164 C166 1.378 . S
C164 C168 1.350 1_655 S
C165 C168 1.463 1_655 S
C165 C170 1.350 1_655 S
C165 N173 1.427 . S
C166 H157 0.930 . S
C166 C164 1.378 . S
C166 C167 1.367 1_655 S
C167 C166 1.367 1_455 S
C167 C169 1.433 . S
C168 C164 1.350 1_455 S
C168 C165 1.463 1_455 S
C168 N172 1.427 . S
C169 H159 0.929 . S
C169 C167 1.433 . S
C169 N172 1.384 . S
C170 H161 0.929 . S
C170 C162 1.378 . S
C170 C165 1.350 1_455 S
C171 H158 0.929 . S
C171 C163 1.433 . S
C171 N173 1.384 . S
N172 C168 1.427 . S
N172 C169 1.384 . S
N173 C165 1.427 . S
N173 C171 1.384 . S
H174 C180 0.930 . S
H175 C184 0.930 . S
H176 C189 0.929 . S
H177 C187 0.929 . S
H178 C182 0.929 . S
H179 C188 0.929 . S
C180 H174 0.930 . S
C180 C181 1.367 . S
C180 C188 1.378 1_545 S
C181 C180 1.367 . S
C181 C189 1.433 . S
C182 H178 0.929 . S
C182 C184 1.378 1_545 S
C182 C186 1.350 1_545 S
C183 C186 1.463 1_545 S
C183 C188 1.350 1_545 S
C183 N191 1.427 . S
C184 H175 0.930 . S
C184 C182 1.378 1_565 S
C184 C185 1.367 . S
C185 C184 1.367 . S
C185 C187 1.433 . S
C186 C182 1.350 1_565 S
C186 C183 1.463 1_565 S
C186 N190 1.427 . S
C187 H177 0.929 . S
C187 C185 1.433 . S
C187 N190 1.384 . S
C188 H179 0.929 . S
C188 C180 1.378 1_565 S
C188 C183 1.350 1_565 S
C189 H176 0.929 . S
C189 C181 1.433 . S
C189 N191 1.384 . S
N190 C186 1.427 . S
N190 C187 1.384 . S
N191 C183 1.427 . S
N191 C189 1.384 . S
H192 C198 0.930 . S
H193 C202 0.930 . S
H194 C207 0.929 . S
H195 C205 0.929 . S
H196 C200 0.929 . S
H197 C206 0.929 . S
C198 H192 0.930 . S
C198 C199 1.367 . S
C198 C206 1.378 . S
C199 C198 1.367 . S
C199 C207 1.433 . S
C200 H196 0.929 . S
C200 C202 1.378 . S
C200 C204 1.350 . S
C201 C204 1.463 . S
C201 C206 1.350 . S
C201 N209 1.427 . S
C202 H193 0.930 . S
C202 C200 1.378 . S
C202 C203 1.367 . S
C203 C202 1.367 . S
C203 C205 1.433 . S
C204 C200 1.350 . S
C204 C201 1.463 . S
C204 N208 1.427 . S
C205 H195 0.929 . S
C205 C203 1.433 . S
C205 N208 1.384 . S
C206 H197 0.929 . S
C206 C198 1.378 . S
C206 C201 1.350 . S
C207 H194 0.929 . S
C207 C199 1.433 . S
C207 N209 1.384 . S
N208 C204 1.427 . S
N208 C205 1.384 . S
N209 C201 1.427 . S
N209 C207 1.384 . S
H210 C216 0.930 . S
H211 C220 0.930 . S
H212 C225 0.928 . S
H213 C223 0.928 . S
H214 C218 0.929 . S
H215 C224 0.929 . S
C216 H210 0.930 . S
C216 C217 1.367 . S
C216 C224 1.378 . S
C217 C216 1.367 . S
C217 C225 1.433 1_655 S
C218 H214 0.929 . S
C218 C220 1.378 . S
C218 C222 1.350 . S
C219 C222 1.463 1_655 S
C219 C224 1.350 . S
C219 N227 1.427 1_655 S
C220 H211 0.930 . S
C220 C218 1.378 . S
C220 C221 1.367 . S
C221 C220 1.367 . S
C221 C223 1.432 1_455 S
C222 C218 1.350 . S
C222 C219 1.463 1_455 S
C222 N226 1.427 1_455 S
C223 H213 0.928 . S
C223 C221 1.432 1_655 S
C223 N226 1.386 . S
C224 H215 0.929 . S
C224 C216 1.378 . S
C224 C219 1.350 . S
C225 H212 0.928 . S
C225 C217 1.433 1_455 S
C225 N227 1.385 . S
N226 C222 1.427 1_655 S
N226 C223 1.386 . S
N227 C219 1.427 1_455 S
N227 C225 1.385 . S
H228 C234 0.930 . S
H229 C238 0.930 . S
H230 C243 0.929 . S
H231 C241 0.929 . S
H232 C236 0.929 . S
H233 C242 0.929 . S
C234 H228 0.930 . S
C234 C235 1.367 . S
C234 C242 1.378 . S
C235 C234 1.367 . S
C235 C243 1.433 1_545 S
C236 H232 0.929 . S
C236 C238 1.378 . S
C236 C240 1.350 . S
C237 C240 1.463 1_545 S
C237 C242 1.350 . S
C237 N245 1.427 1_545 S
C238 H229 0.930 . S
C238 C236 1.378 . S
C238 C239 1.367 . S
C239 C238 1.367 . S
C239 C241 1.433 1_565 S
C240 C236 1.350 . S
C240 C237 1.463 1_565 S
C240 N244 1.427 1_565 S
C241 H231 0.929 . S
C241 C239 1.433 1_545 S
C241 N244 1.384 . S
C242 H233 0.929 . S
C242 C234 1.378 . S
C242 C237 1.350 . S
C243 H230 0.929 . S
C243 C235 1.433 1_565 S
C243 N245 1.384 . S
N244 C240 1.427 1_545 S
N244 C241 1.384 . S
N245 C237 1.427 1_565 S
N245 C243 1.384 . S
H246 C252 0.930 . S
H247 C256 0.930 . S
H248 C261 0.929 . S
H249 C259 0.929 . S
H250 C254 0.929 . S
H251 C260 0.929 . S
C252 H246 0.930 . S
C252 C253 1.367 . S
C252 C260 1.378 . S
C253 C252 1.367 . S
C253 C261 1.433 . S
C254 H250 0.929 . S
C254 C256 1.378 . S
C254 C258 1.350 . S
C255 C258 1.463 . S
C255 C260 1.350 . S
C255 N263 1.427 . S
C256 H247 0.930 . S
C256 C254 1.378 . S
C256 C257 1.367 . S
C257 C256 1.367 . S
C257 C259 1.433 . S
C258 C254 1.350 . S
C258 C255 1.463 . S
C258 N262 1.427 . S
C259 H249 0.929 . S
C259 C257 1.433 . S
C259 N262 1.384 . S
C260 H251 0.929 . S
C260 C252 1.378 . S
C260 C255 1.350 . S
C261 H248 0.929 . S
C261 C253 1.433 . S
C261 N263 1.384 . S
N262 C258 1.427 . S
N262 C259 1.384 . S
N263 C255 1.427 . S
N263 C261 1.384 . S
H264 C270 0.930 . S
H265 C274 0.930 . S
H266 C279 0.929 . S
H267 C277 0.929 . S
H268 C272 0.929 . S
H269 C278 0.929 . S
C270 H264 0.930 . S
C270 C271 1.367 . S
C270 C278 1.378 . S
C271 C270 1.367 . S
C271 C279 1.433 . S
C272 H268 0.929 . S
C272 C274 1.378 . S
C272 C276 1.350 . S
C273 C276 1.463 1_554 S
C273 C278 1.350 . S
C273 N281 1.427 . S
C274 H265 0.930 . S
C274 C272 1.378 . S
C274 C275 1.367 . S
C275 C274 1.367 . S
C275 C277 1.433 . S
C276 C272 1.350 . S
C276 C273 1.463 1_556 S
C276 N280 1.427 . S
C277 H267 0.929 . S
C277 C275 1.433 . S
C277 N280 1.384 . S
C278 H269 0.929 . S
C278 C270 1.378 . S
C278 C273 1.350 . S
C279 H266 0.929 . S
C279 C271 1.433 . S
C279 N281 1.384 . S
N280 C276 1.427 . S
N280 C277 1.384 . S
N281 C273 1.427 . S
N281 C279 1.384 . S
H282 C288 0.930 . S
H283 C292 0.930 . S
H284 C297 0.929 . S
H285 C295 0.929 . S
H286 C290 0.929 . S
H287 C296 0.929 . S
C288 H282 0.930 . S
C288 C289 1.367 . S
C288 C296 1.378 . S
C289 C288 1.367 . S
C289 C297 1.433 . S
C290 H286 0.929 . S
C290 C292 1.378 . S
C290 C294 1.350 . S
C291 C294 1.463 . S
C291 C296 1.350 . S
C291 N299 1.427 . S
C292 H283 0.930 . S
C292 C290 1.378 . S
C292 C293 1.367 . S
C293 C292 1.367 . S
C293 C295 1.433 . S
C294 C290 1.350 . S
C294 C291 1.463 . S
C294 N298 1.427 . S
C295 H285 0.929 . S
C295 C293 1.433 . S
C295 N298 1.384 . S
C296 H287 0.929 . S
C296 C288 1.378 . S
C296 C291 1.350 . S
C297 H284 0.929 . S
C297 C289 1.433 . S
C297 N299 1.384 . S
N298 C294 1.427 . S
N298 C295 1.384 . S
N299 C291 1.427 . S
N299 C297 1.384 . S
H300 C306 0.930 . S
H301 C310 0.930 . S
H302 C315 0.929 . S
H303 C313 0.929 . S
H304 C308 0.929 . S
H305 C314 0.929 . S
C306 H300 0.930 . S
C306 C307 1.367 . S
C306 C314 1.378 . S
C307 C306 1.367 . S
C307 C315 1.433 . S
C308 H304 0.929 . S
C308 C310 1.378 . S
C308 C312 1.350 . S
C309 C312 1.463 . S
C309 C314 1.350 . S
C309 N317 1.427 . S
C310 H301 0.930 . S
C310 C308 1.378 . S
C310 C311 1.367 . S
C311 C310 1.367 . S
C311 C313 1.433 . S
C312 C308 1.350 . S
C312 C309 1.463 . S
C312 N316 1.427 . S
C313 H303 0.929 . S
C313 C311 1.433 . S
C313 N316 1.384 . S
C314 H305 0.929 . S
C314 C306 1.378 . S
C314 C309 1.350 . S
C315 H302 0.929 . S
C315 C307 1.433 . S
C315 N317 1.384 . S
N316 C312 1.427 . S
N316 C313 1.384 . S
N317 C309 1.427 . S
N317 C315 1.384 . S
H318 C324 0.930 . S
H319 C328 0.930 . S
H320 C333 0.929 . S
H321 C331 0.929 . S
H322 C326 0.929 . S
H323 C332 0.929 . S
C324 H318 0.930 . S
C324 C325 1.367 . S
C324 C332 1.378 . S
C325 C324 1.367 . S
C325 C333 1.433 . S
C326 H322 0.929 . S
C326 C328 1.378 . S
C326 C330 1.350 . S
C327 C330 1.463 1_554 S
C327 C332 1.350 . S
C327 N335 1.427 . S
C328 H319 0.930 . S
C328 C326 1.378 . S
C328 C329 1.367 . S
C329 C328 1.367 . S
C329 C331 1.433 . S
C330 C326 1.350 . S
C330 C327 1.463 1_556 S
C330 N334 1.427 . S
C331 H321 0.929 . S
C331 C329 1.433 . S
C331 N334 1.384 . S
C332 H323 0.929 . S
C332 C324 1.378 . S
C332 C327 1.350 . S
C333 H320 0.929 . S
C333 C325 1.433 . S
C333 N335 1.384 . S
N334 C330 1.427 . S
N334 C331 1.384 . S
N335 C327 1.427 . S
N335 C333 1.384 . S
H336 C342 0.930 . S
H337 C346 0.930 . S
H338 C351 0.929 . S
H339 C349 0.929 . S
H340 C344 0.929 . S
H341 C350 0.929 . S
C342 H336 0.930 . S
C342 C343 1.367 . S
C342 C350 1.378 . S
C343 C342 1.367 . S
C343 C351 1.433 . S
C344 H340 0.929 . S
C344 C346 1.378 . S
C344 C348 1.350 . S
C345 C348 1.463 . S
C345 C350 1.350 . S
C345 N353 1.427 . S
C346 H337 0.930 . S
C346 C344 1.378 . S
C346 C347 1.367 . S
C347 C346 1.367 . S
C347 C349 1.433 . S
C348 C344 1.350 . S
C348 C345 1.463 . S
C348 N352 1.427 . S
C349 H339 0.929 . S
C349 C347 1.433 . S
C349 N352 1.384 . S
C350 H341 0.929 . S
C350 C342 1.378 . S
C350 C345 1.350 . S
C351 H338 0.929 . S
C351 C343 1.433 . S
C351 N353 1.384 . S
N352 C348 1.427 . S
N352 C349 1.384 . S
N353 C345 1.427 . S
N353 C351 1.384 . S
H354 C360 0.930 . S
H355 C364 0.930 . S
H356 C369 0.929 . S
H357 C367 0.929 . S
H358 C362 0.929 . S
H359 C368 0.929 . S
C360 H354 0.930 . S
C360 C361 1.367 . S
C360 C368 1.378 . S
C361 C360 1.367 . S
C361 C369 1.433 . S
C362 H358 0.929 . S
C362 C364 1.378 . S
C362 C366 1.350 . S
C363 C366 1.463 . S
C363 C368 1.350 . S
C363 N371 1.427 . S
C364 H355 0.930 . S
C364 C362 1.378 . S
C364 C365 1.367 . S
C365 C364 1.367 . S
C365 C367 1.433 . S
C366 C362 1.350 . S
C366 C363 1.463 . S
C366 N370 1.427 . S
C367 H357 0.929 . S
C367 C365 1.433 . S
C367 N370 1.384 . S
C368 H359 0.929 . S
C368 C360 1.378 . S
C368 C363 1.350 . S
C369 H356 0.929 . S
C369 C361 1.433 . S
C369 N371 1.384 . S
N370 C366 1.427 . S
N370 C367 1.384 . S
N371 C363 1.427 . S
N371 C369 1.384 . S
H372 C378 0.930 . S
H373 C382 0.930 . S
H374 C387 0.929 . S
H375 C385 0.930 . S
H376 C380 0.929 . S
H377 C386 0.929 . S
C378 H372 0.930 . S
C378 C379 1.367 . S
C378 C386 1.378 . S
C379 C378 1.367 . S
C379 C387 1.434 1_655 S
C380 H376 0.929 . S
C380 C382 1.378 . S
C380 C384 1.350 . S
C381 C384 1.463 1_655 S
C381 C386 1.350 . S
C381 N389 1.427 1_655 S
C382 H373 0.930 . S
C382 C380 1.378 . S
C382 C383 1.367 . S
C383 C382 1.367 . S
C383 C385 1.422 1_455 S
C384 C380 1.350 . S
C384 C381 1.463 1_455 S
C384 N388 1.427 1_455 S
C385 H375 0.930 . S
C385 C383 1.422 1_655 S
C385 N388 1.394 . S
C386 H377 0.929 . S
C386 C378 1.378 . S
C386 C381 1.350 . S
C387 H374 0.929 . S
C387 C379 1.434 1_455 S
C387 N389 1.383 . S
N388 C384 1.427 1_655 S
N388 C385 1.394 . S
N389 C381 1.427 1_455 S
N389 C387 1.383 . S
H390 C396 0.940 . S
H391 C400 0.944 . S
H392 C405 0.929 . S
H393 C403 0.929 . S
H394 C398 0.929 . S
H395 C404 0.929 . S
C396 H390 0.940 . S
C396 C397 1.367 . S
C396 C404 1.378 1_545 S
C397 C396 1.367 . S
C397 C405 1.433 . S
C398 H394 0.929 . S
C398 C400 1.378 1_545 S
C398 C402 1.350 1_545 S
C399 C402 1.463 1_545 S
C399 C404 1.350 1_545 S
C399 N407 1.427 . S
C400 H391 0.944 . S
C400 C398 1.378 1_565 S
C400 C401 1.367 . S
C401 C400 1.367 . S
C401 C403 1.433 . S
C402 C398 1.350 1_565 S
C402 C399 1.463 1_565 S
C402 N406 1.427 . S
C403 H393 0.929 . S
C403 C401 1.433 . S
C403 N406 1.384 . S
C404 H395 0.929 . S
C404 C396 1.378 1_565 S
C404 C399 1.350 1_565 S
C405 H392 0.929 . S
C405 C397 1.433 . S
C405 N407 1.384 . S
N406 C402 1.427 . S
N406 C403 1.384 . S
N407 C399 1.427 . S
N407 C405 1.384 . S
H408 C414 0.930 . S
H409 C418 0.930 . S
H410 C423 0.929 . S
H411 C421 0.929 . S
H412 C416 0.929 . S
H413 C422 0.929 . S
C414 H408 0.930 . S
C414 C415 1.367 . S
C414 C422 1.378 . S
C415 C414 1.367 . S
C415 C423 1.433 . S
C416 H412 0.929 . S
C416 C418 1.378 . S
C416 C420 1.350 . S
C417 C420 1.463 . S
C417 C422 1.350 . S
C417 N425 1.427 . S
C418 H409 0.930 . S
C418 C416 1.378 . S
C418 C419 1.367 . S
C419 C418 1.367 . S
C419 C421 1.433 . S
C420 C416 1.350 . S
C420 C417 1.463 . S
C420 N424 1.427 . S
C421 H411 0.929 . S
C421 C419 1.433 . S
C421 N424 1.384 . S
C422 H413 0.929 . S
C422 C414 1.378 . S
C422 C417 1.350 . S
C423 H410 0.929 . S
C423 C415 1.433 . S
C423 N425 1.384 . S
N424 C420 1.427 . S
N424 C421 1.384 . S
N425 C417 1.427 . S
N425 C423 1.384 . S
H426 C432 0.930 1_565 S
H427 C436 0.930 1_545 S
H428 C441 0.929 . S
H429 C439 0.929 . S
H430 C434 0.929 . S
H431 C440 0.929 . S
C432 H426 0.930 1_545 S
C432 C433 1.367 . S
C432 C440 1.378 1_545 S
C433 C432 1.367 . S
C433 C441 1.433 . S
C434 H430 0.929 . S
C434 C436 1.378 1_545 S
C434 C438 1.350 1_545 S
C435 C438 1.463 1_545 S
C435 C440 1.350 1_545 S
C435 N443 1.427 . S
C436 H427 0.930 1_565 S
C436 C434 1.378 1_565 S
C436 C437 1.367 . S
C437 C436 1.367 . S
C437 C439 1.433 . S
C438 C434 1.350 1_565 S
C438 C435 1.463 1_565 S
C438 N442 1.427 . S
C439 H429 0.929 . S
C439 C437 1.433 . S
C439 N442 1.384 . S
C440 H431 0.929 . S
C440 C432 1.378 1_565 S
C440 C435 1.350 1_565 S
C441 H428 0.929 . S
C441 C433 1.433 . S
C441 N443 1.384 . S
N442 C438 1.427 . S
N442 C439 1.384 . S
N443 C435 1.427 . S
N443 C441 1.384 . S
H444 C450 0.930 . S
H445 C454 0.930 . S
H446 C459 0.929 . S
H447 C457 0.929 . S
H448 C452 0.929 . S
H449 C458 0.929 . S
C450 H444 0.930 . S
C450 C451 1.367 . S
C450 C458 1.378 . S
C451 C450 1.367 . S
C451 C459 1.433 . S
C452 H448 0.929 . S
C452 C454 1.378 . S
C452 C456 1.350 . S
C453 C456 1.463 . S
C453 C458 1.350 . S
C453 N461 1.427 . S
C454 H445 0.930 . S
C454 C452 1.378 . S
C454 C455 1.367 . S
C455 C454 1.367 . S
C455 C457 1.433 . S
C456 C452 1.350 . S
C456 C453 1.463 . S
C456 N460 1.427 . S
C457 H447 0.929 . S
C457 C455 1.433 . S
C457 N460 1.384 . S
C458 H449 0.929 . S
C458 C450 1.378 . S
C458 C453 1.350 . S
C459 H446 0.929 . S
C459 C451 1.433 . S
C459 N461 1.384 . S
N460 C456 1.427 . S
N460 C457 1.384 . S
N461 C453 1.427 . S
N461 C459 1.384 . S
H462 C468 0.930 . S
H463 C472 0.930 . S
H464 C477 0.929 . S
H465 C475 0.929 . S
H466 C470 0.929 . S
H467 C476 0.929 . S
C468 H462 0.930 . S
C468 C469 1.367 . S
C468 C476 1.378 . S
C469 C468 1.367 . S
C469 C477 1.433 . S
C470 H466 0.929 . S
C470 C472 1.378 . S
C470 C474 1.350 . S
C471 C474 1.463 1_455 S
C471 C476 1.350 . S
C471 N479 1.427 1_455 S
C472 H463 0.930 . S
C472 C470 1.378 . S
C472 C473 1.367 . S
C473 C472 1.367 . S
C473 C475 1.433 . S
C474 C470 1.350 . S
C474 C471 1.463 1_655 S
C474 N478 1.427 1_655 S
C475 H465 0.929 . S
C475 C473 1.433 . S
C475 N478 1.384 1_655 S
C476 H467 0.929 . S
C476 C468 1.378 . S
C476 C471 1.350 . S
C477 H464 0.929 . S
C477 C469 1.433 . S
C477 N479 1.384 1_455 S
N478 C474 1.427 1_455 S
N478 C475 1.384 1_455 S
N479 C471 1.427 1_655 S
N479 C477 1.384 1_655 S
H480 C486 0.930 1_655 S
H481 C490 0.930 1_455 S
H482 C495 0.929 . S
H483 C493 0.929 . S
H484 C488 0.929 . S
H485 C494 0.929 . S
C486 H480 0.930 1_455 S
C486 C487 1.367 . S
C486 C494 1.378 1_455 S
C487 C486 1.367 . S
C487 C495 1.433 . S
C488 H484 0.929 . S
C488 C490 1.378 1_455 S
C488 C492 1.350 1_455 S
C489 C492 1.463 1_445 S
C489 C494 1.350 1_455 S
C489 N497 1.427 . S
C490 H481 0.930 1_655 S
C490 C488 1.378 1_655 S
C490 C491 1.367 . S
C491 C490 1.367 . S
C491 C493 1.433 . S
C492 C488 1.350 1_655 S
C492 C489 1.463 1_665 S
C492 N496 1.427 . S
C493 H483 0.929 . S
C493 C491 1.433 . S
C493 N496 1.384 . S
C494 H485 0.929 . S
C494 C486 1.378 1_655 S
C494 C489 1.350 1_655 S
C495 H482 0.929 . S
C495 C487 1.433 . S
C495 N497 1.384 . S
N496 C492 1.427 . S
N496 C493 1.384 . S
N497 C489 1.427 . S
N497 C495 1.384 . S
H498 C504 0.930 . S
H499 C508 0.930 . S
H500 C513 0.929 . S
H501 C511 0.929 . S
H502 C506 0.929 1_545 S
H503 C512 0.929 1_565 S
C504 H498 0.930 . S
C504 C505 1.367 . S
C504 C512 1.378 . S
C505 C504 1.367 . S
C505 C513 1.433 . S
C506 H502 0.929 1_565 S
C506 C508 1.378 . S
C506 C510 1.350 . S
C507 C510 1.463 1_645 S
C507 C512 1.350 . S
C507 N515 1.427 . S
C508 H499 0.930 . S
C508 C506 1.378 . S
C508 C509 1.367 . S
C509 C508 1.367 . S
C509 C511 1.433 . S
C510 C506 1.350 . S
C510 C507 1.463 1_465 S
C510 N514 1.427 . S
C511 H501 0.929 . S
C511 C509 1.433 . S
C511 N514 1.384 . S
C512 H503 0.929 1_545 S
C512 C504 1.378 . S
C512 C507 1.350 . S
C513 H500 0.929 . S
C513 C505 1.433 . S
C513 N515 1.384 . S
N514 C510 1.427 . S
N514 C511 1.384 . S
N515 C507 1.427 . S
N515 C513 1.384 . S
H516 C522 0.930 . S
H517 C526 0.930 . S
H518 C531 0.929 . S
H519 C529 0.929 . S
H520 C524 0.929 . S
H521 C530 0.929 . S
C522 H516 0.930 . S
C522 C523 1.367 . S
C522 C530 1.378 . S
C523 C522 1.367 . S
C523 C531 1.433 . S
C524 H520 0.929 . S
C524 C526 1.378 . S
C524 C528 1.350 . S
C525 C528 1.463 1_445 S
C525 C530 1.350 . S
C525 N533 1.427 . S
C526 H517 0.930 . S
C526 C524 1.378 . S
C526 C527 1.367 . S
C527 C526 1.367 . S
C527 C529 1.433 . S
C528 C524 1.350 . S
C528 C525 1.463 1_665 S
C528 N532 1.427 . S
C529 H519 0.929 . S
C529 C527 1.433 . S
C529 N532 1.384 . S
C530 H521 0.929 . S
C530 C522 1.378 . S
C530 C525 1.350 . S
C531 H518 0.929 . S
C531 C523 1.433 . S
C531 N533 1.384 . S
N532 C528 1.427 . S
N532 C529 1.384 . S
N533 C525 1.427 . S
N533 C531 1.384 . S
H534 C540 0.930 . S
H535 C544 0.930 . S
H536 C549 0.929 . S
H537 C547 0.929 . S
H538 C542 0.929 . S
H539 C548 0.929 . S
C540 H534 0.930 . S
C540 C541 1.367 . S
C540 C548 1.378 1_565 S
C541 C540 1.367 . S
C541 C549 1.433 . S
C542 H538 0.929 . S
C542 C544 1.378 1_565 S
C542 C546 1.350 1_565 S
C543 C546 1.463 1_665 S
C543 C548 1.350 1_565 S
C543 N551 1.427 . S
C544 H535 0.930 . S
C544 C542 1.378 1_545 S
C544 C545 1.367 . S
C545 C544 1.367 . S
C545 C547 1.433 . S
C546 C542 1.350 1_545 S
C546 C543 1.463 1_445 S
C546 N550 1.427 . S
C547 H537 0.929 . S
C547 C545 1.433 . S
C547 N550 1.384 . S
C548 H539 0.929 . S
C548 C540 1.378 1_545 S
C548 C543 1.350 1_545 S
C549 H536 0.929 . S
C549 C541 1.433 . S
C549 N551 1.384 . S
N550 C546 1.427 . S
N550 C547 1.384 . S
N551 C543 1.427 . S
N551 C549 1.384 . S
H552 C558 0.930 . S
H553 C562 0.930 . S
H554 C567 0.929 . S
H555 C565 0.929 . S
H556 C560 0.929 . S
H557 C566 0.929 . S
C558 H552 0.930 . S
C558 C559 1.367 . S
C558 C566 1.378 . S
C559 C558 1.367 . S
C559 C567 1.433 . S
C560 H556 0.929 . S
C560 C562 1.378 . S
C560 C564 1.350 . S
C561 C564 1.463 1_665 S
C561 C566 1.350 . S
C561 N569 1.427 . S
C562 H553 0.930 . S
C562 C560 1.378 . S
C562 C563 1.367 . S
C563 C562 1.367 . S
C563 C565 1.433 . S
C564 C560 1.350 . S
C564 C561 1.463 1_445 S
C564 N568 1.427 . S
C565 H555 0.929 . S
C565 C563 1.433 . S
C565 N568 1.384 . S
C566 H557 0.929 . S
C566 C558 1.378 . S
C566 C561 1.350 . S
C567 H554 0.929 . S
C567 C559 1.433 . S
C567 N569 1.384 . S
N568 C564 1.427 . S
N568 C565 1.384 . S
N569 C561 1.427 . S
N569 C567 1.384 . S
H570 C576 0.930 . S
H571 C580 0.930 . S
H572 C585 0.929 . S
H573 C583 0.929 . S
H574 C578 0.929 1_455 S
H575 C584 0.929 1_655 S
C576 H570 0.930 . S
C576 C577 1.367 . S
C576 C584 1.378 . S
C577 C576 1.367 . S
C577 C585 1.433 . S
C578 H574 0.929 1_655 S
C578 C580 1.378 . S
C578 C582 1.350 . S
C579 C582 1.463 1_465 S
C579 C584 1.350 . S
C579 N587 1.427 . S
C580 H571 0.930 . S
C580 C578 1.378 . S
C580 C581 1.367 . S
C581 C580 1.367 . S
C581 C583 1.433 . S
C582 C578 1.350 . S
C582 C579 1.463 1_645 S
C582 N586 1.427 . S
C583 H573 0.929 . S
C583 C581 1.433 . S
C583 N586 1.384 . S
C584 H575 0.929 1_455 S
C584 C576 1.378 . S
C584 C579 1.350 . S
C585 H572 0.929 . S
C585 C577 1.433 . S
C585 N587 1.384 . S
N586 C582 1.427 . S
N586 C583 1.384 . S
N587 C579 1.427 . S
N587 C585 1.384 . S
C163 C144 1.505 . S
C167 C1 1.507 . S
C181 C14 1.504 . S
C185 C79 1.507 . S
C199 C27 1.503 . S
C203 C92 1.502 . S
C217 C40 1.506 . S
C221 C105 1.503 . S
C235 C118 1.505 . S
C239 C53 1.503 . S
C253 C66 1.508 . S
C257 C131 1.506 . S
C271 C3 1.516 . S
C275 C133 1.514 . S
C289 C16 1.507 . S
C293 C146 1.508 . S
C307 C29 1.512 . S
C311 C81 1.514 . S
C325 C42 1.509 . S
C329 C94 1.508 . S
C343 C107 1.511 . S
C347 C55 1.509 . S
C361 C120 1.508 . S
C365 C68 1.508 . S
C379 C44 1.783 . S
C383 C5 1.783 . S
C397 C18 1.780 . S
C401 C57 1.779 . S
C415 C70 1.781 . S
C419 C31 1.780 . S
C433 C122 1.780 . S
C437 C83 1.779 . S
C451 C135 1.781 . S
C455 C96 1.780 . S
C469 C109 1.782 . S
C473 C148 1.782 . S
C487 C10 1.664 . S
C491 C49 1.665 . S
C505 C23 1.665 . S
C509 C62 1.667 . S
C523 C75 1.665 . S
C527 C36 1.666 . S
C541 C88 1.666 . S
C545 C127 1.664 . S
C559 C101 1.666 . S
C563 C140 1.668 . S
C577 C114 1.665 . S
C581 C153 1.667 . S
