# Generated by pormake.
# Topology wka, (5)-cn, num edge types: 1
# Building blocks:
#     Node 0, Type 0, BuildingBlock: XOMCOT_clean_sbu_0, # of connection points: 5
#     Node 1, Type 0, BuildingBlock: XOMCOT_clean_sbu_0, # of connection points: 5
#     Node 2, Type 0, BuildingBlock: XOMCOT_clean_sbu_0, # of connection points: 5
#     Node 3, Type 0, BuildingBlock: XOMCOT_clean_sbu_0, # of connection points: 5
#     Node 4, Type 0, BuildingBlock: XOMCOT_clean_sbu_0, # of connection points: 5
#     Node 5, Type 0, BuildingBlock: XOMCOT_clean_sbu_0, # of connection points: 5
#     Node 6, Type 0, BuildingBlock: XOMCOT_clean_sbu_0, # of connection points: 5
#     Node 7, Type 0, BuildingBlock: XOMCOT_clean_sbu_0, # of connection points: 5
#     Node 8, Type 0, BuildingBlock: XOMCOT_clean_sbu_0, # of connection points: 5
#     Node 9, Type 0, BuildingBlock: XOMCOT_clean_sbu_0, # of connection points: 5
#     Node 10, Type 0, BuildingBlock: XOMCOT_clean_sbu_0, # of connection points: 5
#     Node 11, Type 0, BuildingBlock: XOMCOT_clean_sbu_0, # of connection points: 5
#     Edge 12, Type (0, 0), BuildingBlock: XUDNAN_clean_linker_2, # of connection points: 2
#     Edge 13, Type (0, 0), BuildingBlock: XUDNAN_clean_linker_2, # of connection points: 2
#     Edge 14, Type (0, 0), BuildingBlock: XUDNAN_clean_linker_2, # of connection points: 2
#     Edge 15, Type (0, 0), BuildingBlock: XUDNAN_clean_linker_2, # of connection points: 2
#     Edge 16, Type (0, 0), BuildingBlock: XUDNAN_clean_linker_2, # of connection points: 2
#     Edge 17, Type (0, 0), BuildingBlock: XUDNAN_clean_linker_2, # of connection points: 2
#     Edge 18, Type (0, 0), BuildingBlock: XUDNAN_clean_linker_2, # of connection points: 2
#     Edge 19, Type (0, 0), BuildingBlock: XUDNAN_clean_linker_2, # of connection points: 2
#     Edge 20, Type (0, 0), BuildingBlock: XUDNAN_clean_linker_2, # of connection points: 2
#     Edge 21, Type (0, 0), BuildingBlock: XUDNAN_clean_linker_2, # of connection points: 2
#     Edge 22, Type (0, 0), BuildingBlock: XUDNAN_clean_linker_2, # of connection points: 2
#     Edge 23, Type (0, 0), BuildingBlock: XUDNAN_clean_linker_2, # of connection points: 2
#     Edge 24, Type (0, 0), BuildingBlock: XUDNAN_clean_linker_2, # of connection points: 2
#     Edge 25, Type (0, 0), BuildingBlock: XUDNAN_clean_linker_2, # of connection points: 2
#     Edge 26, Type (0, 0), BuildingBlock: XUDNAN_clean_linker_2, # of connection points: 2
#     Edge 27, Type (0, 0), BuildingBlock: XUDNAN_clean_linker_2, # of connection points: 2
#     Edge 28, Type (0, 0), BuildingBlock: XUDNAN_clean_linker_2, # of connection points: 2
#     Edge 29, Type (0, 0), BuildingBlock: XUDNAN_clean_linker_2, # of connection points: 2
#     Edge 30, Type (0, 0), BuildingBlock: XUDNAN_clean_linker_2, # of connection points: 2
#     Edge 31, Type (0, 0), BuildingBlock: XUDNAN_clean_linker_2, # of connection points: 2
#     Edge 32, Type (0, 0), BuildingBlock: XUDNAN_clean_linker_2, # of connection points: 2
#     Edge 33, Type (0, 0), BuildingBlock: XUDNAN_clean_linker_2, # of connection points: 2
#     Edge 34, Type (0, 0), BuildingBlock: XUDNAN_clean_linker_2, # of connection points: 2
#     Edge 35, Type (0, 0), BuildingBlock: XUDNAN_clean_linker_2, # of connection points: 2
#     Edge 36, Type (0, 0), BuildingBlock: XUDNAN_clean_linker_2, # of connection points: 2
#     Edge 37, Type (0, 0), BuildingBlock: XUDNAN_clean_linker_2, # of connection points: 2
#     Edge 38, Type (0, 0), BuildingBlock: XUDNAN_clean_linker_2, # of connection points: 2
#     Edge 39, Type (0, 0), BuildingBlock: XUDNAN_clean_linker_2, # of connection points: 2
#     Edge 40, Type (0, 0), BuildingBlock: XUDNAN_clean_linker_2, # of connection points: 2
#     Edge 41, Type (0, 0), BuildingBlock: XUDNAN_clean_linker_2, # of connection points: 2
# Relax obj value: 0.222
# Max RMSD: 0.185
# Mean RMSD: 0.185
data_MOF--net-wka--node1-XOMCOT_clean_sbu_0--edge1-XUDNAN_clean_linker_2
_symmetry_space_group_name_H-M    P1
_symmetry_Int_Tables_number       1
_symmetry_cell_setting            triclinic
loop_
_symmetry_equiv_pos_as_xyz
'x, y, z'
_cell_length_a     67.091344
_cell_length_b     67.124923
_cell_length_c     17.209988
_cell_angle_alpha  90.014213
_cell_angle_beta   89.938593
_cell_angle_gamma 120.0061
loop_
_atom_site_label
_atom_site_type_symbol
_atom_site_fract_x
_atom_site_fract_y
_atom_site_fract_z
_atom_type_partial_charge
Co0 Co 0.10996 0.40717 0.09562 0.0
C1 C 0.09966 0.4064 0.26468 0.0
C2 C 0.07731 0.37443 0.20806 0.0
C3 C 0.07225 0.37186 0.28592 0.0
N4 N 0.09394 0.39632 0.19396 0.0
N5 N 0.08637 0.39195 0.32134 0.0
H6 H 0.11396 0.42339 0.2757 0.0
H7 H 0.07014 0.3608 0.16539 0.0
C8 C 0.06012 0.3818 0.04732 0.0
O9 O 0.05559 0.39231 0.10319 0.0
N10 N 0.1259 0.41718 0.99745 0.0
C11 C 0.14165 0.43883 0.97678 0.0
C12 C 0.14267 0.44013 0.89658 0.0
C13 C 0.11825 0.40554 0.93038 0.0
N14 N 0.12755 0.41922 0.86795 0.0
C15 C 0.11286 0.45002 0.14153 0.0
C16 C 0.08923 0.45317 0.01516 0.0
C17 C 0.09865 0.47134 0.0687 0.0
C18 C 0.1105 0.4695 0.13294 0.0
C19 C 0.09228 0.43428 0.02534 0.0
N20 N 0.10332 0.43238 0.08923 0.0
H21 H 0.12354 0.44987 0.18783 0.0
H22 H 0.08652 0.42166 0.97948 0.0
H23 H 0.14981 0.45317 0.01661 0.0
H24 H 0.10444 0.3879 0.9269 0.0
O25 O 0.13914 0.42274 0.14961 0.0
O26 O 0.12177 0.38646 0.10963 0.0
O27 O 0.08063 0.38555 0.03799 0.0
C28 C 0.13911 0.40336 0.14515 0.0
H29 H 0.06014 0.35606 0.31496 0.0
H30 H 0.15177 0.4557 0.86245 0.0
H31 H 0.08002 0.45371 0.96432 0.0
H32 H 0.11886 0.48344 0.1743 0.0
Co33 Co 0.70047 0.11279 0.24072 0.0
C34 C 0.69449 0.10257 0.41112 0.0
C35 C 0.70739 0.08381 0.34816 0.0
C36 C 0.70661 0.07852 0.42531 0.0
N37 N 0.69947 0.09859 0.33899 0.0
N38 N 0.69853 0.09036 0.46464 0.0
H39 H 0.68862 0.11439 0.42525 0.0
H40 H 0.7139 0.07778 0.30171 0.0
C41 C 0.66937 0.06237 0.21731 0.0
O42 O 0.66001 0.06223 0.28458 0.0
N43 N 0.70256 0.1264 0.14122 0.0
C44 C 0.69517 0.14069 0.11712 0.0
C45 C 0.69559 0.14106 0.03679 0.0
C46 C 0.708 0.11898 0.07693 0.0
N47 N 0.70335 0.12705 0.01207 0.0
C48 C 0.66933 0.12517 0.30959 0.0
C49 C 0.63227 0.09947 0.21306 0.0
C50 C 0.63075 0.11408 0.26791 0.0
C51 C 0.64953 0.12682 0.31705 0.0
C52 C 0.65252 0.09838 0.20734 0.0
N53 N 0.6706 0.11066 0.2568 0.0
H54 H 0.68409 0.13662 0.34392 0.0
H55 H 0.65401 0.0887 0.15989 0.0
H56 H 0.68833 0.14879 0.15457 0.0
H57 H 0.71387 0.10663 0.07818 0.0
O58 O 0.71971 0.14284 0.28483 0.0
O59 O 0.73275 0.12131 0.23337 0.0
O60 O 0.68569 0.08126 0.18981 0.0
C61 C 0.73719 0.14031 0.26851 0.0
H62 H 0.71249 0.06764 0.45079 0.0
H63 H 0.68891 0.14941 0.9998 0.0
H64 H 0.61848 0.09 0.17197 0.0
H65 H 0.64925 0.13862 0.35941 0.0
Co66 Co 0.59723 0.70704 0.38307 0.0
C67 C 0.59455 0.6942 0.5481 0.0
C68 C 0.62885 0.70819 0.50462 0.0
C69 C 0.62911 0.70502 0.58379 0.0
N70 N 0.60705 0.701 0.48206 0.0
N71 N 0.60745 0.69625 0.61101 0.0
H72 H 0.57685 0.68998 0.55164 0.0
H73 H 0.64375 0.71639 0.46698 0.0
C74 C 0.62514 0.68464 0.3363 0.0
O75 O 0.61651 0.67008 0.39452 0.0
N76 N 0.5872 0.7132 0.28505 0.0
C77 C 0.56797 0.71449 0.2743 0.0
C78 C 0.56343 0.71336 0.19597 0.0
C79 C 0.59414 0.71143 0.21293 0.0
N80 N 0.57985 0.71132 0.15769 0.0
C81 C 0.5525 0.66921 0.42102 0.0
C82 C 0.55278 0.63768 0.31851 0.0
C83 C 0.53402 0.63075 0.36846 0.0
C84 C 0.53365 0.6469 0.41865 0.0
C85 C 0.57104 0.66034 0.32146 0.0
N86 N 0.57155 0.67543 0.37609 0.0
H87 H 0.55149 0.68152 0.45851 0.0
H88 H 0.58437 0.66564 0.27836 0.0
H89 H 0.55698 0.71453 0.32022 0.0
H90 H 0.6081 0.70827 0.20081 0.0
O91 O 0.58216 0.72103 0.43841 0.0
O92 O 0.6184 0.73955 0.39868 0.0
O93 O 0.61906 0.69969 0.32542 0.0
C94 C 0.60171 0.74017 0.43508 0.0
H95 H 0.64422 0.70976 0.61876 0.0
H96 H 0.54855 0.71284 0.16952 0.0
H97 H 0.55313 0.62578 0.27672 0.0
H98 H 0.51905 0.64225 0.45647 0.0
Co99 Co 0.88898 0.58097 0.58092 0.0
C100 C 0.89793 0.58558 0.7516 0.0
C101 C 0.91996 0.61683 0.69087 0.0
C102 C 0.92435 0.62071 0.769 0.0
N103 N 0.90407 0.5945 0.67925 0.0
N104 N 0.91044 0.60103 0.80694 0.0
H105 H 0.88389 0.56855 0.7644 0.0
H106 H 0.92712 0.6299 0.64634 0.0
C107 C 0.93778 0.6112 0.52731 0.0
O108 O 0.94439 0.60246 0.58325 0.0
N109 N 0.8737 0.56836 0.48308 0.0
C110 C 0.86072 0.546 0.46331 0.0
C111 C 0.85936 0.54444 0.38313 0.0
C112 C 0.87924 0.58 0.4156 0.0
N113 N 0.87138 0.56588 0.3537 0.0
C114 C 0.89751 0.54556 0.63777 0.0
C115 C 0.91848 0.54165 0.50484 0.0
C116 C 0.91517 0.5272 0.56794 0.0
C117 C 0.90466 0.52932 0.63508 0.0
C118 C 0.91158 0.55811 0.5107 0.0
N119 N 0.90158 0.56026 0.57727 0.0
H120 H 0.88777 0.54545 0.68731 0.0
H121 H 0.91375 0.56871 0.46063 0.0
H122 H 0.85486 0.53178 0.50358 0.0
H123 H 0.89074 0.59834 0.41117 0.0
O124 O 0.86085 0.56103 0.6347 0.0
O125 O 0.87092 0.59619 0.59424 0.0
O126 O 0.91654 0.6055 0.5214 0.0
C127 C 0.8559 0.57737 0.62952 0.0
H128 H 0.93601 0.63702 0.7961 0.0
H129 H 0.85236 0.52876 0.34935 0.0
H130 H 0.92617 0.54013 0.45142 0.0
H131 H 0.90115 0.51785 0.68396 0.0
Co132 Co 0.29684 0.88375 0.72359 0.0
C133 C 0.30913 0.8941 0.88885 0.0
C134 C 0.29467 0.91388 0.84484 0.0
C135 C 0.29731 0.91704 0.92434 0.0
N136 N 0.30246 0.89973 0.82243 0.0
N137 N 0.3064 0.9045 0.95182 0.0
H138 H 0.31367 0.88088 0.89269 0.0
H139 H 0.28639 0.92037 0.80681 0.0
C140 C 0.32042 0.93416 0.67715 0.0
O141 O 0.33358 0.93978 0.73906 0.0
N142 N 0.29102 0.86724 0.62633 0.0
C143 C 0.29141 0.84751 0.61634 0.0
C144 C 0.29234 0.84387 0.53804 0.0
C145 C 0.29143 0.87513 0.55385 0.0
N146 N 0.29251 0.86136 0.49893 0.0
C147 C 0.3339 0.87597 0.766 0.0
C148 C 0.36651 0.90763 0.6658 0.0
C149 C 0.37301 0.89585 0.71773 0.0
C150 C 0.35621 0.87935 0.76673 0.0
C151 C 0.34391 0.90344 0.66623 0.0
N152 N 0.32828 0.88899 0.71984 0.0
H153 H 0.32112 0.8626 0.80231 0.0
H154 H 0.3391 0.91153 0.62188 0.0
H155 H 0.29271 0.83737 0.66276 0.0
H156 H 0.29279 0.89144 0.54122 0.0
O157 O 0.28178 0.8548 0.77953 0.0
O158 O 0.26438 0.87322 0.73605 0.0
O159 O 0.30549 0.91308 0.66418 0.0
C160 C 0.26298 0.85581 0.77409 0.0
H161 H 0.292 0.92698 0.9593 0.0
H162 H 0.29404 0.8301 0.5121 0.0
H163 H 0.37871 0.91968 0.62419 0.0
H164 H 0.36032 0.86935 0.80617 0.0
Co165 Co 0.407 0.30618 0.96972 0.0
C166 C 0.40236 0.30812 0.14115 0.0
C167 C 0.37375 0.30639 0.08027 0.0
C168 C 0.3687 0.30377 0.15824 0.0
N169 N 0.39512 0.30966 0.0691 0.0
N170 N 0.38666 0.30472 0.19636 0.0
H171 H 0.41751 0.30686 0.15267 0.0
H172 H 0.36165 0.30391 0.03477 0.0
C173 C 0.38542 0.33428 0.92161 0.0
O174 O 0.39558 0.34825 0.98035 0.0
N175 N 0.41771 0.30172 0.87087 0.0
C176 C 0.4392 0.3073 0.84936 0.0
C177 C 0.43918 0.30357 0.77035 0.0
C178 C 0.40493 0.29432 0.80594 0.0
N179 N 0.41757 0.29542 0.74343 0.0
C180 C 0.44802 0.34394 0.03472 0.0
C181 C 0.45663 0.37473 0.91516 0.0
C182 C 0.47127 0.38207 0.97995 0.0
C183 C 0.46695 0.36614 0.03952 0.0
C184 C 0.43794 0.35228 0.91256 0.0
N185 N 0.43317 0.33748 0.97355 0.0
H186 H 0.44571 0.33181 0.07951 0.0
H187 H 0.4273 0.34679 0.86111 0.0
H188 H 0.45395 0.31442 0.88766 0.0
H189 H 0.3869 0.28929 0.80395 0.0
O190 O 0.42059 0.29017 0.02039 0.0
O191 O 0.38489 0.27364 0.97484 0.0
O192 O 0.38769 0.31665 0.91181 0.0
C193 C 0.40082 0.27151 0.01065 0.0
H194 H 0.35249 0.29999 0.18427 0.0
H195 H 0.45398 0.30704 0.7353 0.0
H196 H 0.45942 0.38624 0.86709 0.0
H197 H 0.47835 0.3706 0.08901 0.0
Co198 Co 0.58489 0.88726 0.77983 0.0
C199 C 0.58952 0.89802 0.61003 0.0
C200 C 0.61983 0.92015 0.67511 0.0
C201 C 0.62484 0.92447 0.59766 0.0
N202 N 0.59754 0.90394 0.6835 0.0
N203 N 0.6058 0.91052 0.55627 0.0
H204 H 0.57277 0.88383 0.59591 0.0
H205 H 0.63218 0.92712 0.72195 0.0
C206 C 0.60782 0.93717 0.83293 0.0
O207 O 0.60158 0.94337 0.76926 0.0
N208 N 0.5738 0.8711 0.87717 0.0
C209 C 0.55215 0.85876 0.90458 0.0
C210 C 0.55317 0.85736 0.98461 0.0
C211 C 0.5875 0.87626 0.93972 0.0
N212 N 0.5755 0.8688 0.0067 0.0
C213 C 0.54233 0.88094 0.71736 0.0
C214 C 0.53587 0.90781 0.82477 0.0
C215 C 0.52018 0.898 0.76359 0.0
C216 C 0.52323 0.88395 0.71051 0.0
C217 C 0.55446 0.904 0.83024 0.0
N218 N 0.55832 0.8918 0.7744 0.0
H219 H 0.54393 0.86947 0.67744 0.0
H220 H 0.56535 0.91046 0.88071 0.0
H221 H 0.53676 0.85316 0.87025 0.0
H222 H 0.60597 0.8871 0.93607 0.0
O223 O 0.57255 0.85845 0.72426 0.0
O224 O 0.60758 0.87754 0.77467 0.0
O225 O 0.60309 0.91637 0.84269 0.0
C226 C 0.59248 0.85999 0.73462 0.0
H227 H 0.64178 0.93583 0.57415 0.0
H228 H 0.53856 0.85041 0.02364 0.0
H229 H 0.53351 0.91795 0.86895 0.0
H230 H 0.51112 0.87556 0.66357 0.0
Co231 Co 0.69417 0.5853 0.90655 0.0
C232 C 0.68434 0.58835 0.74016 0.0
C233 C 0.7106 0.6206 0.78561 0.0
C234 C 0.70866 0.62312 0.70709 0.0
N235 N 0.69518 0.59884 0.80643 0.0
N236 N 0.69214 0.60278 0.67883 0.0
H237 H 0.67219 0.57025 0.73513 0.0
H238 H 0.72296 0.63352 0.82453 0.0
C239 C 0.68231 0.62216 0.9378 0.0
O240 O 0.67146 0.6173 0.87096 0.0
N241 N 0.69363 0.57186 0.00598 0.0
C242 C 0.68501 0.54921 0.01928 0.0
C243 C 0.68167 0.54526 0.09789 0.0
C244 C 0.69586 0.58146 0.07657 0.0
N245 N 0.68846 0.56554 0.13338 0.0
C246 C 0.6514 0.54585 0.86153 0.0
C247 C 0.62406 0.55149 0.96894 0.0
C248 C 0.61466 0.53075 0.92748 0.0
C249 C 0.62859 0.52835 0.8718 0.0
C250 C 0.64707 0.56832 0.95815 0.0
N251 N 0.66059 0.56565 0.90432 0.0
H252 H 0.66207 0.54252 0.82297 0.0
H253 H 0.65414 0.58249 0.99817 0.0
H254 H 0.67973 0.53621 0.9746 0.0
H255 H 0.70088 0.59929 0.08611 0.0
O256 O 0.70235 0.56459 0.85748 0.0
O257 O 0.72759 0.59917 0.90138 0.0
O258 O 0.69222 0.61112 0.96047 0.0
C259 C 0.72373 0.58025 0.8671 0.0
H260 H 0.71907 0.63847 0.67313 0.0
H261 H 0.67364 0.52866 0.12639 0.0
H262 H 0.61413 0.55437 0.01254 0.0
H263 H 0.62255 0.51247 0.83981 0.0
Co264 Co 0.10818 0.69298 0.09508 0.0
C265 C 0.09679 0.68273 0.92784 0.0
C266 C 0.08307 0.70285 0.97534 0.0
C267 C 0.07878 0.70049 0.89653 0.0
N268 N 0.09421 0.6915 0.99503 0.0
N269 N 0.0874 0.68774 0.86719 0.0
H270 H 0.10662 0.67418 0.92142 0.0
H271 H 0.079 0.71276 0.01521 0.0
C272 C 0.05703 0.66861 0.12459 0.0
O273 O 0.05323 0.65941 0.05501 0.0
N274 N 0.12232 0.69492 0.19409 0.0
C275 C 0.14 0.6912 0.20705 0.0
C276 C 0.14177 0.68887 0.28579 0.0
C277 C 0.11386 0.69529 0.26481 0.0
N278 N 0.12532 0.69143 0.32159 0.0
C279 C 0.11842 0.65909 0.0375 0.0
C280 C 0.08542 0.62178 0.11963 0.0
C281 C 0.09946 0.61848 0.06693 0.0
C282 C 0.11644 0.63762 0.02701 0.0
C283 C 0.08789 0.6437 0.12802 0.0
N284 N 0.10344 0.66185 0.0839 0.0
H285 H 0.13206 0.67352 0.00713 0.0
H286 H 0.0776 0.64593 0.17145 0.0
H287 H 0.14986 0.68876 0.16215 0.0
H288 H 0.09859 0.69654 0.2745 0.0
O289 O 0.1382 0.71013 0.04733 0.0
O290 O 0.11889 0.72576 0.09775 0.0
O291 O 0.07755 0.68159 0.14914 0.0
C292 C 0.13708 0.72856 0.06089 0.0
H293 H 0.07051 0.708 0.86325 0.0
H294 H 0.15343 0.68447 0.3143 0.0
H295 H 0.07253 0.60757 0.15355 0.0
H296 H 0.12836 0.63611 0.9883 0.0
Co297 Co 0.41264 0.11224 0.27704 0.0
C298 C 0.40949 0.10911 0.1067 0.0
C299 C 0.37888 0.08245 0.15936 0.0
C300 C 0.37505 0.08248 0.0806 0.0
N301 N 0.40075 0.09887 0.1756 0.0
N302 N 0.39431 0.09951 0.04833 0.0
H303 H 0.42571 0.12475 0.09967 0.0
H304 H 0.36592 0.07249 0.2024 0.0
C305 C 0.39135 0.06165 0.30411 0.0
O306 O 0.40056 0.0602 0.23848 0.0
N307 N 0.42405 0.12603 0.37679 0.0
C308 C 0.44463 0.14482 0.39078 0.0
C309 C 0.44584 0.15015 0.46838 0.0
C310 C 0.41299 0.12007 0.44553 0.0
N311 N 0.42595 0.13459 0.5025 0.0
C312 C 0.45635 0.12319 0.21286 0.0
C313 C 0.4663 0.09781 0.31587 0.0
C314 C 0.48313 0.1122 0.26245 0.0
C315 C 0.47779 0.12469 0.20982 0.0
C316 C 0.44499 0.09693 0.31734 0.0
N317 N 0.43998 0.1092 0.26512 0.0
H318 H 0.4538 0.13475 0.17675 0.0
H319 H 0.43321 0.08749 0.3638 0.0
H320 H 0.45772 0.15411 0.34735 0.0
H321 H 0.39567 0.10581 0.45331 0.0
O322 O 0.42453 0.14253 0.23305 0.0
O323 O 0.3894 0.1214 0.28099 0.0
O324 O 0.39467 0.08106 0.32851 0.0
C325 C 0.40451 0.14034 0.24685 0.0
H326 H 0.35883 0.07228 0.05074 0.0
H327 H 0.46028 0.16426 0.49759 0.0
H328 H 0.47009 0.08848 0.35924 0.0
H329 H 0.4905 0.13639 0.1687 0.0
Co330 Co 0.31175 0.42156 0.4267 0.0
C331 C 0.31369 0.41586 0.25675 0.0
C332 C 0.31306 0.38808 0.32072 0.0
C333 C 0.31176 0.3831 0.24277 0.0
N334 N 0.31422 0.40857 0.32943 0.0
N335 N 0.31199 0.40048 0.20268 0.0
H336 H 0.31306 0.43132 0.24399 0.0
H337 H 0.31206 0.37693 0.36771 0.0
C338 C 0.33852 0.41125 0.54081 0.0
O339 O 0.34829 0.433 0.56128 0.0
N340 N 0.30814 0.43326 0.52637 0.0
C341 C 0.31378 0.4545 0.55163 0.0
C342 C 0.31003 0.45359 0.63079 0.0
C343 C 0.29992 0.41973 0.58984 0.0
N344 N 0.30159 0.4317 0.65481 0.0
C345 C 0.34645 0.46912 0.40078 0.0
C346 C 0.38288 0.46121 0.38649 0.0
C347 C 0.38762 0.4841 0.38818 0.0
C348 C 0.36879 0.48783 0.39315 0.0
C349 C 0.36042 0.44318 0.39685 0.0
N350 N 0.34273 0.44734 0.40963 0.0
H351 H 0.33213 0.47217 0.39928 0.0
H352 H 0.35728 0.42576 0.39478 0.0
H353 H 0.32047 0.46985 0.51707 0.0
H354 H 0.2944 0.40159 0.58899 0.0
O355 O 0.29413 0.43346 0.37603 0.0
O356 O 0.2794 0.39889 0.42975 0.0
O357 O 0.32408 0.40369 0.48463 0.0
C358 C 0.27603 0.41369 0.39153 0.0
H359 H 0.30998 0.3675 0.21771 0.0
H360 H 0.31377 0.46807 0.66784 0.0
H361 H 0.39634 0.45706 0.37716 0.0
H362 H 0.37109 0.50496 0.39229 0.0
Co363 Co 0.90151 0.30596 0.54227 0.0
C364 C 0.9096 0.30872 0.37232 0.0
C365 C 0.937 0.3085 0.43601 0.0
C366 C 0.94076 0.30744 0.3579 0.0
N367 N 0.91743 0.30924 0.44506 0.0
N368 N 0.92344 0.30738 0.31793 0.0
H369 H 0.89336 0.30778 0.35964 0.0
H370 H 0.94725 0.3076 0.48279 0.0
C371 C 0.9377 0.33046 0.66103 0.0
O372 O 0.92584 0.3404 0.68124 0.0
N373 N 0.88556 0.30156 0.64136 0.0
C374 C 0.87061 0.30804 0.66685 0.0
C375 C 0.86762 0.30424 0.74596 0.0
C376 C 0.89022 0.2927 0.70463 0.0
N377 N 0.88036 0.29497 0.76995 0.0
C378 C 0.89024 0.34191 0.51952 0.0
C379 C 0.93513 0.37791 0.52128 0.0
C380 C 0.9172 0.3829 0.52202 0.0
C381 C 0.89449 0.36455 0.51745 0.0
C382 C 0.93005 0.35508 0.52301 0.0
N383 N 0.90783 0.33749 0.5298 0.0
H384 H 0.87277 0.32794 0.51379 0.0
H385 H 0.94412 0.35162 0.52126 0.0
H386 H 0.86274 0.3156 0.63248 0.0
H387 H 0.90239 0.2866 0.70351 0.0
O388 O 0.87232 0.28999 0.48913 0.0
O389 O 0.89061 0.27324 0.53998 0.0
O390 O 0.93121 0.31667 0.60285 0.0
C391 C 0.87296 0.2712 0.5015 0.0
H392 H 0.95474 0.30595 0.33267 0.0
H393 H 0.85744 0.30873 0.78306 0.0
H394 H 0.95295 0.39155 0.52047 0.0
H395 H 0.8801 0.36759 0.5149 0.0
H396 H 0.09384 0.58547 0.17453 0.0
H397 H 0.09941 0.59963 0.92693 0.0
H398 H 0.09858 0.56312 0.90125 0.0
H399 H 0.12994 0.56112 0.17854 0.0
H400 H 0.11325 0.53916 0.24909 0.0
H401 H 0.1127 0.56571 0.24889 0.0
H402 H 0.06828 0.54306 0.23631 0.0
H403 H 0.06866 0.5164 0.23716 0.0
H404 H 0.05512 0.52274 0.15807 0.0
H405 H 0.10006 0.52703 0.90206 0.0
H406 H 0.10193 0.49206 0.92839 0.0
H407 H 0.09374 0.49957 0.17539 0.0
C408 C 0.09444 0.58064 0.11491 0.0
C409 C 0.0968 0.59545 0.05269 0.0
C410 C 0.09788 0.58869 0.97551 0.0
C411 C 0.09732 0.56795 0.96028 0.0
C412 C 0.09553 0.55401 0.02281 0.0
C413 C 0.09391 0.55989 0.09856 0.0
C414 C 0.09285 0.54198 0.15495 0.0
C415 C 0.11341 0.55263 0.21117 0.0
C416 C 0.06986 0.53036 0.19922 0.0
C417 C 0.09448 0.52538 0.09896 0.0
C418 C 0.09596 0.5327 0.02311 0.0
C419 C 0.09849 0.52086 0.96109 0.0
C420 C 0.09936 0.50086 0.97675 0.0
C421 C 0.09755 0.49266 0.05392 0.0
C422 C 0.09515 0.50526 0.11576 0.0
H423 H 0.49778 0.08041 0.26414 0.0
H424 H 0.52222 0.15368 0.27071 0.0
H425 H 0.56232 0.16178 0.27435 0.0
H426 H 0.5414 0.0814 0.3922 0.0
H427 H 0.54425 0.05999 0.33786 0.0
H428 H 0.51725 0.05971 0.33821 0.0
H429 H 0.51795 0.06137 0.18778 0.0
H430 H 0.54498 0.06173 0.18698 0.0
H431 H 0.54253 0.08426 0.13891 0.0
H432 H 0.59939 0.16228 0.27601 0.0
H433 H 0.63203 0.15521 0.27358 0.0
H434 H 0.58447 0.08162 0.26374 0.0
C435 C 0.51163 0.0981 0.26693 0.0
C436 C 0.50699 0.11645 0.2668 0.0
C437 C 0.52547 0.13942 0.26987 0.0
C438 C 0.54827 0.14418 0.27229 0.0
C439 C 0.55234 0.1258 0.27134 0.0
C440 C 0.53463 0.10321 0.26857 0.0
C441 C 0.544 0.08679 0.26606 0.0
C442 C 0.53627 0.07104 0.33787 0.0
C443 C 0.53694 0.07271 0.19043 0.0
C444 C 0.56968 0.10372 0.26786 0.0
C445 C 0.57401 0.1261 0.27132 0.0
C446 C 0.59626 0.14484 0.27367 0.0
C447 C 0.61468 0.14064 0.27268 0.0
C448 C 0.61079 0.11787 0.26918 0.0
C449 C 0.58794 0.09919 0.26626 0.0
H450 H 0.40426 0.52852 0.33108 0.0
H451 H 0.42663 0.4848 0.4425 0.0
H452 H 0.46649 0.51659 0.43917 0.0
H453 H 0.45418 0.56198 0.21112 0.0
H454 H 0.45443 0.58861 0.22774 0.0
H455 H 0.42766 0.56171 0.23094 0.0
H456 H 0.41981 0.57122 0.36964 0.0
H457 H 0.44649 0.59818 0.36674 0.0
H458 H 0.44105 0.57812 0.44456 0.0
H459 H 0.50417 0.55316 0.42529 0.0
H460 H 0.53635 0.59331 0.41376 0.0
H461 H 0.48917 0.61439 0.32642 0.0
C462 C 0.41735 0.52545 0.35535 0.0
C463 C 0.41193 0.50366 0.38562 0.0
C464 C 0.43005 0.50084 0.41613 0.0
C465 C 0.45288 0.51893 0.41526 0.0
C466 C 0.45748 0.54003 0.38514 0.0
C467 C 0.44021 0.54351 0.35681 0.0
C468 C 0.4496 0.56838 0.33303 0.0
C469 C 0.44627 0.57027 0.2455 0.0
C470 C 0.43858 0.57963 0.3814 0.0
C471 C 0.4748 0.57832 0.35296 0.0
C472 C 0.47904 0.56156 0.3816 0.0
C473 C 0.50106 0.56646 0.40319 0.0
C474 C 0.5192 0.5892 0.3963 0.0
C475 C 0.51505 0.60669 0.36944 0.0
C476 C 0.49263 0.60119 0.34724 0.0
H477 H 0.89746 0.40495 0.44588 0.0
H478 H 0.94794 0.41502 0.62195 0.0
H479 H 0.95512 0.4543 0.64542 0.0
H480 H 0.92774 0.46419 0.37052 0.0
H481 H 0.90149 0.46484 0.35532 0.0
H482 H 0.90142 0.43802 0.34815 0.0
H483 H 0.86901 0.41998 0.45148 0.0
H484 H 0.86896 0.4467 0.45887 0.0
H485 H 0.8732 0.43384 0.54459 0.0
H486 H 0.95411 0.49078 0.65934 0.0
H487 H 0.94602 0.52296 0.65824 0.0
H488 H 0.89747 0.49026 0.47018 0.0
C489 C 0.91015 0.4155 0.48889 0.0
C490 C 0.92226 0.40697 0.53173 0.0
C491 C 0.93875 0.42133 0.58749 0.0
C492 C 0.94288 0.44363 0.60149 0.0
C493 C 0.93055 0.45145 0.55878 0.0
C494 C 0.91466 0.43794 0.50314 0.0
C495 C 0.9032 0.45029 0.46726 0.0
C496 C 0.90881 0.45459 0.38013 0.0
C497 C 0.87705 0.43691 0.48143 0.0
C498 C 0.91475 0.47261 0.51277 0.0
C499 C 0.93049 0.47291 0.56522 0.0
C500 C 0.94216 0.49095 0.61756 0.0
C501 C 0.93747 0.50909 0.61667 0.0
C502 C 0.92148 0.50912 0.5633 0.0
C503 C 0.9102 0.4908 0.51016 0.0
H504 H 0.38852 0.86493 0.71882 0.0
H505 H 0.4119 0.93797 0.72442 0.0
H506 H 0.45218 0.94653 0.73541 0.0
H507 H 0.4288 0.8656 0.85574 0.0
H508 H 0.43301 0.8445 0.8049 0.0
H509 H 0.40608 0.84414 0.79631 0.0
H510 H 0.4104 0.84665 0.64642 0.0
H511 H 0.43732 0.84697 0.65454 0.0
H512 H 0.4361 0.86976 0.60339 0.0
H513 H 0.4896 0.947 0.75303 0.0
H514 H 0.52197 0.93947 0.76644 0.0
H515 H 0.47445 0.86624 0.74383 0.0
C516 C 0.40215 0.88271 0.72236 0.0
C517 C 0.39716 0.90082 0.72098 0.0
C518 C 0.41542 0.92388 0.72482 0.0
C519 C 0.43831 0.92889 0.73142 0.0
C520 C 0.44264 0.91065 0.73319 0.0
C521 C 0.42511 0.88803 0.72793 0.0
C522 C 0.43447 0.87164 0.73032 0.0
C523 C 0.42503 0.85552 0.80103 0.0
C524 C 0.42926 0.85795 0.65412 0.0
C525 C 0.45997 0.88856 0.7387 0.0
C526 C 0.4643 0.91096 0.74073 0.0
C527 C 0.48645 0.92955 0.75086 0.0
C528 C 0.50468 0.92512 0.75878 0.0
C529 C 0.50067 0.90232 0.75573 0.0
C530 C 0.47801 0.88385 0.74533 0.0
H531 H 0.58282 0.49653 0.83104 0.0
H532 H 0.59434 0.51918 0.07183 0.0
H533 H 0.55763 0.48537 0.10828 0.0
H534 H 0.52014 0.47039 0.83022 0.0
H535 H 0.51591 0.44647 0.77077 0.0
H536 H 0.5419 0.47391 0.76113 0.0
H537 H 0.56629 0.4545 0.78737 0.0
H538 H 0.54041 0.42704 0.7971 0.0
H539 H 0.56126 0.43776 0.8746 0.0
H540 H 0.52089 0.44808 0.12116 0.0
H541 H 0.48697 0.4093 0.10961 0.0
H542 H 0.50055 0.4091 0.86283 0.0
C543 C 0.57764 0.49453 0.89142 0.0
C544 C 0.59154 0.51096 0.94805 0.0
C545 C 0.58388 0.50745 0.02644 0.0
C546 C 0.56305 0.4881 0.04811 0.0
C547 C 0.55003 0.4722 0.99107 0.0
C548 C 0.55701 0.47512 0.91438 0.0
C549 C 0.54053 0.45462 0.86558 0.0
C550 C 0.52893 0.46178 0.80324 0.0
C551 C 0.55286 0.44278 0.82904 0.0
C552 C 0.52343 0.4396 0.92718 0.0
C553 C 0.52912 0.4502 0.99896 0.0
C554 C 0.51624 0.43959 0.06523 0.0
C555 C 0.4971 0.41746 0.05815 0.0
C556 C 0.49108 0.40599 0.98543 0.0
C557 C 0.50442 0.41742 0.91908 0.0
H558 H 0.01625 0.37484 0.03739 0.0
H559 H 0.06394 0.3586 0.92204 0.0
H560 H 0.03672 0.3413 0.81321 0.0
H561 H 0.96296 0.32193 0.97179 0.0
H562 H 0.94733 0.33708 0.96032 0.0
H563 H 0.96923 0.34598 0.03399 0.0
H564 H 0.99029 0.38727 0.97755 0.0
H565 H 0.96843 0.37875 0.90434 0.0
H566 H 0.99823 0.39152 0.87623 0.0
H567 H 0.00566 0.32904 0.71059 0.0
H568 H 0.97291 0.32209 0.62573 0.0
H569 H 0.94593 0.34615 0.80982 0.0
C570 C 0.02078 0.36718 0.99019 0.0
C571 C 0.04239 0.36834 0.98802 0.0
C572 C 0.04761 0.35815 0.92484 0.0
C573 C 0.03219 0.34816 0.86278 0.0
C574 C 0.01137 0.34801 0.86548 0.0
C575 C 0.00548 0.35691 0.92825 0.0
C576 C 0.98258 0.35568 0.91534 0.0
C577 C 0.96447 0.3392 0.97387 0.0
C578 C 0.98505 0.37974 0.91852 0.0
C579 C 0.97712 0.34582 0.83405 0.0
C580 C 0.99365 0.34108 0.8066 0.0
C581 C 0.99247 0.33246 0.73183 0.0
C582 C 0.9739 0.32862 0.68398 0.0
C583 C 0.95705 0.33378 0.71089 0.0
C584 C 0.95868 0.34227 0.78714 0.0
H585 H 0.63636 0.98438 0.83384 0.0
H586 H 0.59765 0.92544 0.98409 0.0
H587 H 0.61064 0.95075 0.09888 0.0
H588 H 0.68463 0.01418 0.96534 0.0
H589 H 0.68967 0.04266 0.94642 0.0
H590 H 0.67798 0.02109 0.87114 0.0
H591 H 0.64271 0.02579 0.85371 0.0
H592 H 0.65348 0.04817 0.926 0.0
H593 H 0.62519 0.02345 0.93657 0.0
H594 H 0.62592 0.98241 0.1966 0.0
H595 H 0.64351 0.01854 0.27186 0.0
H596 H 0.67313 0.05734 0.06043 0.0
C597 C 0.63077 0.97688 0.89102 0.0
C598 C 0.61636 0.95289 0.90041 0.0
C599 C 0.60926 0.94367 0.97597 0.0
C600 C 0.61638 0.95794 0.04145 0.0
C601 C 0.6307 0.98147 0.03054 0.0
C602 C 0.63796 0.99093 0.95742 0.0
C603 C 0.65336 0.01684 0.96247 0.0
C604 C 0.67785 0.02412 0.93458 0.0
C605 C 0.64307 0.02929 0.91696 0.0
C606 C 0.65294 0.02047 0.04934 0.0
C607 C 0.63987 0.9998 0.08745 0.0
C608 C 0.63635 0.99871 0.16749 0.0
C609 C 0.64637 0.01933 0.20971 0.0
C610 C 0.65985 0.04076 0.17198 0.0
C611 C 0.66326 0.04122 0.09082 0.0
H612 H 0.63612 0.65017 0.32459 0.0
H613 H 0.64518 0.71161 0.20843 0.0
H614 H 0.66342 0.70374 0.09779 0.0
H615 H 0.69111 0.65536 0.25632 0.0
H616 H 0.67851 0.62469 0.24489 0.0
H617 H 0.66767 0.63599 0.31826 0.0
H618 H 0.6267 0.61213 0.26074 0.0
H619 H 0.63752 0.60089 0.18734 0.0
H620 H 0.62206 0.61531 0.15941 0.0
H621 H 0.67566 0.68655 0.99239 0.0
H622 H 0.68475 0.66291 0.90465 0.0
H623 H 0.67151 0.61477 0.0923 0.0
C624 C 0.64236 0.66223 0.27666 0.0
C625 C 0.6389 0.68137 0.2751 0.0
C626 C 0.64725 0.69664 0.21084 0.0
C627 C 0.65778 0.6924 0.14765 0.0
C628 C 0.66033 0.67307 0.15001 0.0
C629 C 0.65325 0.65843 0.21335 0.0
C630 C 0.65733 0.63841 0.19963 0.0
C631 C 0.67469 0.63865 0.25826 0.0
C632 C 0.63454 0.61533 0.20189 0.0
C633 C 0.66737 0.6439 0.11828 0.0
C634 C 0.66879 0.66389 0.09053 0.0
C635 C 0.67526 0.67122 0.01412 0.0
C636 C 0.68034 0.65772 0.96472 0.0
C637 C 0.67934 0.63741 0.99235 0.0
C638 C 0.67311 0.63063 0.07044 0.0
H639 H 0.9834 0.62339 0.51424 0.0
H640 H 0.92942 0.62946 0.397 0.0
H641 H 0.95445 0.64576 0.28229 0.0
H642 H 0.03164 0.67761 0.43562 0.0
H643 H 0.05034 0.66561 0.42819 0.0
H644 H 0.02856 0.65562 0.50274 0.0
H645 H 0.01228 0.61383 0.45407 0.0
H646 H 0.03381 0.62373 0.37886 0.0
H647 H 0.00375 0.60709 0.35383 0.0
H648 H 0.9833 0.65621 0.17389 0.0
H649 H 0.01647 0.66613 0.087 0.0
H650 H 0.05323 0.6573 0.2786 0.0
C651 C 0.97697 0.62858 0.46515 0.0
C652 C 0.95419 0.62469 0.4643 0.0
C653 C 0.9466 0.63187 0.39884 0.0
C654 C 0.96073 0.6412 0.33328 0.0
C655 C 0.98271 0.6439 0.33483 0.0
C656 C 0.99105 0.63839 0.39982 0.0
C657 C 0.0153 0.64286 0.38617 0.0
C658 C 0.03247 0.66154 0.44144 0.0
C659 C 0.01633 0.62055 0.39366 0.0
C660 C 0.0191 0.65132 0.30291 0.0
C661 C 0.99996 0.6515 0.27401 0.0
C662 C 0.9986 0.65672 0.19643 0.0
C663 C 0.01741 0.66219 0.14746 0.0
C664 C 0.03742 0.66283 0.17667 0.0
C665 C 0.03829 0.65744 0.25545 0.0
H666 H 0.3928 0.05561 0.46072 0.0
H667 H 0.35801 0.02042 0.24916 0.0
H668 H 0.33369 0.98489 0.3245 0.0
H669 H 0.39617 0.00848 0.54057 0.0
H670 H 0.3919 0.01417 0.63976 0.0
H671 H 0.40479 0.03741 0.57083 0.0
H672 H 0.37306 0.0482 0.59773 0.0
H673 H 0.36155 0.02587 0.67067 0.0
H674 H 0.34328 0.02608 0.59427 0.0
H675 H 0.31247 0.95388 0.42343 0.0
H676 H 0.30003 0.92721 0.53382 0.0
H677 H 0.35213 0.98076 0.6792 0.0
C678 C 0.37986 0.04043 0.43071 0.0
C679 C 0.37695 0.04066 0.34955 0.0
C680 C 0.36033 0.02047 0.31147 0.0
C681 C 0.3464 1.00032 0.35379 0.0
C682 C 0.34968 1.00059 0.43386 0.0
C683 C 0.36629 0.01995 0.47177 0.0
C684 C 0.36754 0.01505 0.55711 0.0
C685 C 0.39152 0.019 0.57827 0.0
C686 C 0.36095 0.02964 0.60812 0.0
C687 C 0.34935 0.98979 0.56101 0.0
C688 C 0.33882 0.98204 0.4897 0.0
C689 C 0.32092 0.95962 0.47913 0.0
C690 C 0.31409 0.94448 0.54238 0.0
C691 C 0.32563 0.95147 0.61482 0.0
C692 C 0.34317 0.97467 0.62443 0.0
H693 H 0.38033 0.37245 0.91469 0.0
H694 H 0.3643 0.30992 0.79003 0.0
H695 H 0.34857 0.32179 0.68184 0.0
H696 H 0.32917 0.37531 0.84627 0.0
H697 H 0.345 0.40619 0.83881 0.0
H698 H 0.35288 0.39195 0.91114 0.0
H699 H 0.3946 0.41205 0.85809 0.0
H700 H 0.38706 0.42655 0.78605 0.0
H701 H 0.39948 0.40933 0.75657 0.0
H702 H 0.33713 0.34172 0.5826 0.0
H703 H 0.3306 0.36831 0.50101 0.0
H704 H 0.35469 0.41791 0.68945 0.0
C705 C 0.37309 0.36102 0.86539 0.0
C706 C 0.37358 0.34024 0.86107 0.0
C707 C 0.36413 0.32591 0.79497 0.0
C708 C 0.35509 0.33247 0.73311 0.0
C709 C 0.35539 0.35332 0.73837 0.0
C710 C 0.36391 0.36728 0.80317 0.0
C711 C 0.3633 0.38937 0.79246 0.0
C712 C 0.3466 0.39078 0.85064 0.0
C713 C 0.38755 0.41057 0.79863 0.0
C714 C 0.35408 0.38605 0.71037 0.0
C715 C 0.3492 0.36498 0.68065 0.0
C716 C 0.34075 0.35822 0.60543 0.0
C717 C 0.33716 0.37343 0.55946 0.0
C718 C 0.34238 0.39522 0.58859 0.0
C719 C 0.35084 0.40148 0.66514 0.0
H720 H 0.18196 0.43693 0.19238 0.0
H721 H 0.13712 0.36289 0.18225 0.0
H722 H 0.16671 0.35757 0.2491 0.0
H723 H 0.23448 0.43641 0.15361 0.0
H724 H 0.25165 0.46015 0.21771 0.0
H725 H 0.22663 0.45808 0.17138 0.0
H726 H 0.21032 0.45995 0.30608 0.0
H727 H 0.23522 0.46186 0.35292 0.0
H728 H 0.20679 0.43943 0.38008 0.0
H729 H 0.20077 0.36032 0.31983 0.0
H730 H 0.23836 0.37081 0.37848 0.0
H731 H 0.26189 0.44298 0.33648 0.0
C732 C 0.17839 0.41961 0.20431 0.0
C733 C 0.15724 0.40031 0.18237 0.0
C734 C 0.15325 0.37791 0.19831 0.0
C735 C 0.16989 0.37472 0.23661 0.0
C736 C 0.19053 0.3941 0.25782 0.0
C737 C 0.19496 0.41611 0.24144 0.0
C738 C 0.21888 0.43398 0.26788 0.0
C739 C 0.23379 0.44797 0.19851 0.0
C740 C 0.21772 0.44973 0.33046 0.0
C741 C 0.22721 0.41858 0.30159 0.0
C742 C 0.21048 0.39566 0.29612 0.0
C743 C 0.21404 0.37821 0.32417 0.0
C744 C 0.23541 0.38434 0.35768 0.0
C745 C 0.25302 0.40769 0.36192 0.0
C746 C 0.24876 0.42499 0.33384 0.0
H747 H 0.75201 0.18469 0.30971 0.0
H748 H 0.77476 0.13477 0.28864 0.0
H749 H 0.8123 0.16278 0.34697 0.0
H750 H 0.8073 0.23513 0.2633 0.0
H751 H 0.80304 0.25318 0.33093 0.0
H752 H 0.77861 0.22938 0.28512 0.0
H753 H 0.761 0.21337 0.42073 0.0
H754 H 0.78551 0.23694 0.467 0.0
H755 H 0.77748 0.20773 0.49101 0.0
H756 H 0.84641 0.19577 0.41704 0.0
H757 H 0.87546 0.23203 0.47963 0.0
H758 H 0.83033 0.26033 0.44892 0.0
C759 C 0.76498 0.17972 0.3165 0.0
C760 C 0.76054 0.15758 0.29469 0.0
C761 C 0.77793 0.15173 0.30443 0.0
C762 C 0.79922 0.16747 0.33791 0.0
C763 C 0.80286 0.18904 0.3603 0.0
C764 C 0.78631 0.19525 0.34878 0.0
C765 C 0.79434 0.2194 0.37754 0.0
C766 C 0.79592 0.2352 0.3102 0.0
C767 C 0.77865 0.21934 0.44295 0.0
C768 C 0.81793 0.2258 0.40802 0.0
C769 C 0.82252 0.20805 0.3982 0.0
C770 C 0.84304 0.20984 0.42429 0.0
C771 C 0.85937 0.23042 0.46017 0.0
C772 C 0.85515 0.24898 0.46889 0.0
C773 C 0.8341 0.24649 0.44264 0.0
H774 H 0.56325 0.81952 0.66057 0.0
H775 H 0.63509 0.86438 0.71988 0.0
H776 H 0.64544 0.83926 0.64604 0.0
H777 H 0.56386 0.76608 0.6763 0.0
H778 H 0.54439 0.75281 0.596 0.0
H779 H 0.54281 0.77439 0.6535 0.0
H780 H 0.54777 0.79812 0.52877 0.0
H781 H 0.54962 0.77673 0.47095 0.0
H782 H 0.57239 0.80632 0.46702 0.0
H783 H 0.64813 0.8101 0.56064 0.0
H784 H 0.64248 0.7769 0.48156 0.0
H785 H 0.56874 0.75018 0.483 0.0
C786 C 0.58114 0.82397 0.65855 0.0
C787 C 0.59837 0.8439 0.6961 0.0
C788 C 0.62158 0.84913 0.69199 0.0
C789 C 0.62765 0.83504 0.6498 0.0
C790 C 0.61028 0.81569 0.61255 0.0
C791 C 0.58746 0.80998 0.61737 0.0
C792 C 0.57207 0.78802 0.57314 0.0
C793 C 0.55476 0.76921 0.62802 0.0
C794 C 0.55974 0.79258 0.506 0.0
C795 C 0.58977 0.78221 0.54295 0.0
C796 C 0.61175 0.79856 0.5654 0.0
C797 C 0.63099 0.79713 0.54311 0.0
C798 C 0.62763 0.77829 0.49785 0.0
C799 C 0.60519 0.76099 0.47633 0.0
C800 C 0.58608 0.76312 0.49888 0.0
H801 H 0.76784 0.61233 0.81969 0.0
H802 H 0.72101 0.53905 0.8479 0.0
H803 H 0.74991 0.53095 0.79123 0.0
H804 H 0.78987 0.60799 0.63481 0.0
H805 H 0.81902 0.63051 0.65266 0.0
H806 H 0.79544 0.63113 0.70053 0.0
H807 H 0.81386 0.63309 0.83458 0.0
H808 H 0.83761 0.63269 0.78706 0.0
H809 H 0.82118 0.61149 0.86009 0.0
H810 H 0.78273 0.53024 0.73055 0.0
H811 H 0.81839 0.53686 0.6673 0.0
H812 H 0.84462 0.61055 0.67093 0.0
C813 C 0.76392 0.59464 0.81499 0.0
C814 C 0.74226 0.57629 0.83869 0.0
C815 C 0.73749 0.55334 0.8302 0.0
C816 C 0.7538 0.54856 0.79813 0.0
C817 C 0.77478 0.5669 0.77404 0.0
C818 C 0.78 0.58949 0.78183 0.0
C819 C 0.80364 0.60578 0.74796 0.0
C820 C 0.80188 0.61967 0.67995 0.0
C821 C 0.82004 0.6217 0.8112 0.0
C822 C 0.81075 0.58874 0.71992 0.0
C823 C 0.79379 0.56645 0.73627 0.0
C824 C 0.79616 0.5476 0.71736 0.0
C825 C 0.81651 0.55157 0.68137 0.0
C826 C 0.83426 0.57419 0.66385 0.0
C827 C 0.83125 0.59305 0.6829 0.0
H828 H 0.25255 0.8139 0.8343 0.0
H829 H 0.22554 0.86026 0.80771 0.0
H830 H 0.19123 0.83375 0.88468 0.0
H831 H 0.19791 0.7615 0.81537 0.0
H832 H 0.20501 0.74604 0.88527 0.0
H833 H 0.22747 0.76896 0.82942 0.0
H834 H 0.24832 0.78916 0.95698 0.0
H835 H 0.22576 0.76642 0.01325 0.0
H836 H 0.23314 0.79586 0.02944 0.0
H837 H 0.16024 0.80241 0.96816 0.0
H838 H 0.13315 0.76687 0.03873 0.0
H839 H 0.17986 0.7405 0.00588 0.0
C840 C 0.23937 0.81843 0.84444 0.0
C841 C 0.2417 0.83914 0.81511 0.0
C842 C 0.22404 0.84441 0.82928 0.0
C843 C 0.20457 0.82954 0.87337 0.0
C844 C 0.20292 0.80936 0.90229 0.0
C845 C 0.21971 0.80365 0.88746 0.0
C846 C 0.21346 0.78059 0.92281 0.0
C847 C 0.2108 0.76325 0.85944 0.0
C848 C 0.23123 0.78317 0.98427 0.0
C849 C 0.19053 0.77419 0.95983 0.0
C850 C 0.18487 0.79112 0.94826 0.0
C851 C 0.16449 0.78902 0.9774 0.0
C852 C 0.14927 0.76885 0.01783 0.0
C853 C 0.15442 0.75097 0.02788 0.0
C854 C 0.17547 0.7539 0.99921 0.0
H855 H 0.43445 0.18284 0.18909 0.0
H856 H 0.3621 0.13715 0.23939 0.0
H857 H 0.35296 0.16547 0.18179 0.0
H858 H 0.43549 0.23596 0.23218 0.0
H859 H 0.4555 0.25154 0.15508 0.0
H860 H 0.45601 0.2277 0.201 0.0
H861 H 0.45099 0.20833 0.06653 0.0
H862 H 0.45019 0.23197 0.02016 0.0
H863 H 0.42683 0.20298 0.00639 0.0
H864 H 0.35183 0.19836 0.11235 0.0
H865 H 0.35911 0.23441 0.04817 0.0
H866 H 0.43239 0.25877 0.04873 0.0
C867 C 0.41668 0.17884 0.18866 0.0
C868 C 0.39896 0.15782 0.21884 0.0
C869 C 0.37595 0.15322 0.21701 0.0
C870 C 0.3706 0.16915 0.18405 0.0
C871 C 0.38849 0.18959 0.15374 0.0
C872 C 0.4111 0.19455 0.15664 0.0
C873 C 0.42723 0.21772 0.12063 0.0
C874 C 0.44458 0.2342 0.18083 0.0
C875 C 0.43953 0.21509 0.04919 0.0
C876 C 0.41021 0.22518 0.09732 0.0
C877 C 0.38791 0.20862 0.11591 0.0
C878 C 0.36923 0.21148 0.098 0.0
C879 C 0.37351 0.23193 0.0612 0.0
C880 C 0.3963 0.24933 0.04373 0.0
C881 C 0.4148 0.2458 0.06184 0.0
H882 H 0.12548 0.41735 0.40517 0.0
H883 H 0.05128 0.37506 0.42342 0.0
H884 H 0.054 0.37913 0.56617 0.0
H885 H 0.13853 0.39439 0.56881 0.0
H886 H 0.16273 0.42118 0.60048 0.0
H887 H 0.15504 0.41675 0.49919 0.0
H888 H 0.15175 0.45357 0.49774 0.0
H889 H 0.15961 0.45826 0.59899 0.0
H890 H 0.13324 0.45658 0.56698 0.0
H891 H 0.06452 0.38601 0.70475 0.0
H892 H 0.08233 0.39545 0.8342 0.0
H893 H 0.15011 0.43276 0.7294 0.0
C894 C 0.10982 0.40941 0.43929 0.0
C895 C 0.08812 0.39597 0.40364 0.0
C896 C 0.06801 0.38531 0.45001 0.0
C897 C 0.0694 0.38762 0.53086 0.0
C898 C 0.09105 0.40062 0.56436 0.0
C899 C 0.11092 0.41141 0.52036 0.0
C900 C 0.13208 0.42336 0.57173 0.0
C901 C 0.14803 0.41331 0.5593 0.0
C902 C 0.14492 0.4495 0.55804 0.0
C903 C 0.12094 0.41731 0.65142 0.0
C904 C 0.09724 0.4043 0.64538 0.0
C905 C 0.08305 0.39615 0.71029 0.0
C906 C 0.09334 0.40134 0.78354 0.0
C907 C 0.11759 0.41436 0.79155 0.0
C908 C 0.13155 0.42272 0.72459 0.0
H909 H 0.70604 0.14839 0.8743 0.0
H910 H 0.69715 0.08506 0.97471 0.0
H911 H 0.69321 0.06879 0.84512 0.0
H912 H 0.66573 0.12177 0.7152 0.0
H913 H 0.68322 0.14369 0.64556 0.0
H914 H 0.68481 0.15084 0.74716 0.0
H915 H 0.7289 0.16687 0.74551 0.0
H916 H 0.72744 0.15993 0.64384 0.0
H917 H 0.73992 0.14881 0.71169 0.0
H918 H 0.68964 0.0585 0.70865 0.0
H919 H 0.69014 0.05635 0.56593 0.0
H920 H 0.70265 0.12628 0.55045 0.0
C921 C 0.7031 0.13106 0.86892 0.0
C922 C 0.70184 0.11806 0.93516 0.0
C923 C 0.69835 0.09554 0.92557 0.0
C924 C 0.69588 0.08596 0.85207 0.0
C925 C 0.69697 0.09905 0.78843 0.0
C926 C 0.70075 0.12118 0.79546 0.0
C927 C 0.70223 0.1317 0.71637 0.0
C928 C 0.68284 0.13733 0.70546 0.0
C929 C 0.72604 0.15309 0.70362 0.0
C930 C 0.69877 0.11195 0.66461 0.0
C931 C 0.69553 0.09325 0.70775 0.0
C932 C 0.69225 0.07303 0.67379 0.0
C933 C 0.69269 0.07201 0.59291 0.0
C934 C 0.69654 0.09115 0.54729 0.0
C935 C 0.69934 0.11126 0.58374 0.0
H936 H 0.63346 0.71614 0.74113 0.0
H937 H 0.56381 0.6689 0.66329 0.0
H938 H 0.54951 0.6671 0.79607 0.0
H939 H 0.62677 0.68803 0.93357 0.0
H940 H 0.6447 0.71512 0.98149 0.0
H941 H 0.64977 0.71151 0.88098 0.0
H942 H 0.64617 0.7471 0.84501 0.0
H943 H 0.64074 0.75056 0.94514 0.0
H944 H 0.62043 0.74764 0.87127 0.0
H945 H 0.54205 0.67337 0.93296 0.0
H946 H 0.54248 0.68416 0.07033 0.0
H947 H 0.61693 0.72538 0.06312 0.0
C948 C 0.61529 0.70499 0.75208 0.0
C949 C 0.59975 0.69298 0.69088 0.0
C950 C 0.57604 0.67875 0.70833 0.0
C951 C 0.56772 0.67746 0.78385 0.0
C952 C 0.58336 0.69011 0.842 0.0
C953 C 0.60669 0.70324 0.82761 0.0
C954 C 0.61968 0.71548 0.90073 0.0
C955 C 0.6362 0.70702 0.92565 0.0
C956 C 0.6325 0.74175 0.88985 0.0
C957 C 0.59988 0.7077 0.95759 0.0
C958 C 0.57909 0.69309 0.92233 0.0
C959 C 0.55823 0.68456 0.96157 0.0
C960 C 0.55862 0.69097 0.03925 0.0
C961 C 0.57972 0.70563 0.07704 0.0
C962 C 0.6006 0.71399 0.03561 0.0
H963 H 0.87188 0.574 0.89178 0.0
H964 H 0.94551 0.62045 0.909 0.0
H965 H 0.94332 0.61512 0.0513 0.0
H966 H 0.85686 0.59323 0.0643 0.0
H967 H 0.834 0.5651 0.09208 0.0
H968 H 0.84139 0.57174 0.99108 0.0
H969 H 0.84766 0.53679 0.97899 0.0
H970 H 0.8403 0.53003 0.08002 0.0
H971 H 0.86742 0.53436 0.0439 0.0
H972 H 0.93351 0.60487 0.18947 0.0
H973 H 0.91616 0.59185 0.31907 0.0
H974 H 0.84851 0.55293 0.2157 0.0
C975 C 0.88754 0.58279 0.92555 0.0
C976 C 0.90892 0.59759 0.88962 0.0
C977 C 0.92899 0.60921 0.93569 0.0
C978 C 0.92793 0.60616 0.0163 0.0
C979 C 0.90661 0.59152 0.04992 0.0
C980 C 0.88674 0.5801 0.00636 0.0
C981 C 0.86593 0.56607 0.05783 0.0
C982 C 0.84852 0.57455 0.0509 0.0
C983 C 0.85467 0.54028 0.03905 0.0
C984 C 0.87726 0.57146 0.13714 0.0
C985 C 0.90077 0.58607 0.13076 0.0
C986 C 0.91511 0.59364 0.19531 0.0
C987 C 0.90512 0.5864 0.26859 0.0
C988 C 0.88103 0.57201 0.27705 0.0
C989 C 0.86695 0.56408 0.21041 0.0
H990 H 0.27628 0.88244 0.40394 0.0
H991 H 0.32093 0.85303 0.41076 0.0
H992 H 0.33123 0.86353 0.2733 0.0
H993 H 0.25457 0.86283 0.21185 0.0
H994 H 0.25345 0.88826 0.18574 0.0
H995 H 0.25044 0.87945 0.28588 0.0
H996 H 0.28434 0.91958 0.32288 0.0
H997 H 0.28766 0.92847 0.22265 0.0
H998 H 0.31175 0.9303 0.27514 0.0
H999 H 0.33708 0.87738 0.13681 0.0
H1000 H 0.33508 0.88998 0.00444 0.0
H1001 H 0.2849 0.90864 0.0816 0.0
C1002 C 0.28827 0.87832 0.37631 0.0
C1003 C 0.29774 0.86683 0.41785 0.0
C1004 C 0.31322 0.86151 0.37977 0.0
C1005 C 0.31936 0.86762 0.30196 0.0
C1006 C 0.30977 0.87895 0.26271 0.0
C1007 C 0.29436 0.88404 0.29809 0.0
C1008 C 0.28571 0.89527 0.2411 0.0
C1009 C 0.25949 0.88057 0.23052 0.0
C1010 C 0.29279 0.91987 0.26699 0.0
C1011 C 0.29848 0.89541 0.16802 0.0
C1012 C 0.31253 0.88625 0.18245 0.0
C1013 C 0.32598 0.88439 0.12456 0.0
C1014 C 0.32459 0.89148 0.04928 0.0
C1015 C 0.30954 0.89997 0.03171 0.0
C1016 C 0.29667 0.90237 0.09268 0.0
H1017 H 0.44256 0.31643 0.61335 0.0
H1018 H 0.37455 0.2653 0.69352 0.0
H1019 H 0.35965 0.26118 0.56017 0.0
H1020 H 0.42462 0.34405 0.48148 0.0
H1021 H 0.44589 0.34919 0.40818 0.0
H1022 H 0.45189 0.34693 0.50869 0.0
H1023 H 0.46039 0.31431 0.47453 0.0
H1024 H 0.45463 0.31662 0.37366 0.0
H1025 H 0.43913 0.28931 0.42283 0.0
H1026 H 0.35137 0.26471 0.42158 0.0
H1027 H 0.35063 0.27422 0.28364 0.0
H1028 H 0.42403 0.32249 0.291 0.0
C1029 C 0.42468 0.30396 0.60251 0.0
C1030 C 0.4097 0.29122 0.66404 0.0
C1031 C 0.38628 0.27543 0.64757 0.0
C1032 C 0.37768 0.27288 0.57193 0.0
C1033 C 0.39274 0.28611 0.51307 0.0
C1034 C 0.4158 0.30116 0.5271 0.0
C1035 C 0.42804 0.31399 0.45373 0.0
C1036 C 0.4382 0.34008 0.46365 0.0
C1037 C 0.44665 0.3082 0.42978 0.0
C1038 C 0.40815 0.30406 0.39677 0.0
C1039 C 0.38798 0.28798 0.43235 0.0
C1040 C 0.36709 0.27713 0.39284 0.0
C1041 C 0.3668 0.2828 0.31472 0.0
C1042 C 0.38726 0.29915 0.27678 0.0
C1043 C 0.40821 0.30977 0.31843 0.0
H1044 H 0.55508 0.84962 0.14638 0.0
H1045 H 0.61652 0.90667 0.0445 0.0
H1046 H 0.62985 0.923 0.17301 0.0
H1047 H 0.54652 0.88148 0.2947 0.0
H1048 H 0.53814 0.8598 0.36899 0.0
H1049 H 0.53299 0.85151 0.26822 0.0
H1050 H 0.55579 0.82993 0.28232 0.0
H1051 H 0.56078 0.83794 0.38338 0.0
H1052 H 0.58476 0.84503 0.31968 0.0
H1053 H 0.63545 0.93546 0.30925 0.0
H1054 H 0.63564 0.94072 0.44995 0.0
H1055 H 0.57261 0.87456 0.47004 0.0
C1056 C 0.57139 0.86546 0.1511 0.0
C1057 C 0.58442 0.87683 0.08401 0.0
C1058 C 0.60592 0.89737 0.09359 0.0
C1059 C 0.61375 0.90699 0.16692 0.0
C1060 C 0.60025 0.89572 0.23108 0.0
C1061 C 0.57979 0.87517 0.22459 0.0
C1062 C 0.56901 0.86658 0.30413 0.0
C1063 C 0.54526 0.86474 0.30928 0.0
C1064 C 0.5675 0.8435 0.32351 0.0
C1065 C 0.58647 0.88581 0.35552 0.0
C1066 C 0.6042 0.90245 0.31167 0.0
C1067 C 0.62194 0.92231 0.34467 0.0
C1068 C 0.62192 0.92506 0.42516 0.0
C1069 C 0.60447 0.90788 0.47261 0.0
C1070 C 0.58633 0.88808 0.43654 0.0
H1071 H 0.71784 0.59886 0.23069 0.0
H1072 H 0.64925 0.53974 0.21338 0.0
H1073 H 0.64147 0.54534 0.34982 0.0
H1074 H 0.72824 0.58583 0.42035 0.0
H1075 H 0.74483 0.61531 0.45189 0.0
H1076 H 0.74417 0.60835 0.35059 0.0
H1077 H 0.72932 0.63656 0.31424 0.0
H1078 H 0.73147 0.64398 0.41578 0.0
H1079 H 0.7047 0.6341 0.36535 0.0
H1080 H 0.64173 0.55623 0.48827 0.0
H1081 H 0.65088 0.57 0.62362 0.0
H1082 H 0.72004 0.62097 0.55303 0.0
C1083 C 0.70114 0.58736 0.25582 0.0
C1084 C 0.6841 0.56889 0.2124 0.0
C1085 C 0.66252 0.55383 0.24659 0.0
C1086 C 0.6579 0.55702 0.32348 0.0
C1087 C 0.67515 0.57527 0.36525 0.0
C1088 C 0.69641 0.5901 0.33297 0.0
C1089 C 0.71264 0.60696 0.39275 0.0
C1090 C 0.7337 0.60392 0.40459 0.0
C1091 C 0.71996 0.63187 0.37058 0.0
C1092 C 0.69716 0.59925 0.46354 0.0
C1093 C 0.67555 0.58112 0.44615 0.0
C1094 C 0.65856 0.57048 0.50261 0.0
C1095 C 0.66393 0.57834 0.57928 0.0
C1096 C 0.68615 0.59653 0.59881 0.0
C1097 C 0.7028 0.60732 0.53972 0.0
H1098 H 0.11409 0.71612 0.41801 0.0
H1099 H 0.12072 0.65528 0.40385 0.0
H1100 H 0.10801 0.64586 0.54053 0.0
H1101 H 0.13728 0.73141 0.60886 0.0
H1102 H 0.1189 0.74243 0.639 0.0
H1103 H 0.12625 0.74321 0.538 0.0
H1104 H 0.08263 0.71993 0.50089 0.0
H1105 H 0.07596 0.72045 0.60212 0.0
H1106 H 0.06423 0.69345 0.55171 0.0
H1107 H 0.09566 0.64356 0.67782 0.0
H1108 H 0.08786 0.65027 0.81245 0.0
H1109 H 0.09126 0.71386 0.74086 0.0
C1110 C 0.11259 0.70074 0.44394 0.0
C1111 C 0.11829 0.68635 0.40118 0.0
C1112 C 0.11657 0.66653 0.43645 0.0
C1113 C 0.10918 0.66097 0.51352 0.0
C1114 C 0.10378 0.67555 0.55445 0.0
C1115 C 0.10563 0.69518 0.52139 0.0
C1116 C 0.10078 0.70897 0.5805 0.0
C1117 C 0.12207 0.73291 0.59228 0.0
C1118 C 0.07965 0.71081 0.5573 0.0
C1119 C 0.09589 0.69399 0.65179 0.0
C1120 C 0.09746 0.67468 0.63507 0.0
C1121 C 0.09436 0.65859 0.69171 0.0
C1122 C 0.09004 0.6626 0.76797 0.0
C1123 C 0.08905 0.68261 0.78711 0.0
C1124 C 0.09158 0.69826 0.72778 0.0
H1125 H 0.40034 0.09646 0.58978 0.0
H1126 H 0.43862 0.171 0.59751 0.0
H1127 H 0.43099 0.16989 0.73822 0.0
H1128 H 0.35647 0.08809 0.74195 0.0
H1129 H 0.35621 0.06265 0.77692 0.0
H1130 H 0.3621 0.07073 0.676 0.0
H1131 H 0.40137 0.07013 0.69213 0.0
H1132 H 0.39403 0.06239 0.79243 0.0
H1133 H 0.42092 0.08759 0.76723 0.0
H1134 H 0.4223 0.16087 0.87807 0.0
H1135 H 0.41381 0.1444 0.01017 0.0
H1136 H 0.38121 0.07559 0.91353 0.0
C1137 C 0.4066 0.11251 0.62092 0.0
C1138 C 0.42001 0.13383 0.58305 0.0
C1139 C 0.42846 0.15451 0.62578 0.0
C1140 C 0.42405 0.15405 0.70544 0.0
C1141 C 0.41112 0.13275 0.74137 0.0
C1142 C 0.40247 0.11233 0.70069 0.0
C1143 C 0.39068 0.09178 0.75457 0.0
C1144 C 0.36484 0.07744 0.73628 0.0
C1145 C 0.40243 0.0771 0.75137 0.0
C1146 C 0.39467 0.10385 0.83206 0.0
C1147 C 0.40623 0.12748 0.82285 0.0
C1148 C 0.41308 0.1424 0.88601 0.0
C1149 C 0.40835 0.13291 0.96067 0.0
C1150 C 0.397 0.10877 0.97146 0.0
C1151 C 0.38964 0.09407 0.90637 0.0
H1152 H 0.32194 0.45646 0.78634 0.0
H1153 H 0.27484 0.38746 0.70281 0.0
H1154 H 0.27317 0.37213 0.83391 0.0
H1155 H 0.35327 0.4415 0.91774 0.0
H1156 H 0.3561 0.46184 0.99132 0.0
H1157 H 0.35356 0.46758 0.89068 0.0
H1158 H 0.31839 0.47222 0.92436 0.0
H1159 H 0.32093 0.46652 0.02508 0.0
H1160 H 0.29414 0.44932 0.9745 0.0
H1161 H 0.2776 0.36392 0.97195 0.0
H1162 H 0.28564 0.36367 0.11149 0.0
H1163 H 0.32866 0.43799 0.10823 0.0
C1164 C 0.31092 0.43819 0.79565 0.0
C1165 C 0.29865 0.4232 0.73353 0.0
C1166 C 0.28473 0.39932 0.74869 0.0
C1167 C 0.28358 0.39041 0.82317 0.0
C1168 C 0.29623 0.4056 0.88242 0.0
C1169 C 0.30942 0.429 0.86993 0.0
C1170 C 0.32127 0.44152 0.94412 0.0
C1171 C 0.34761 0.45383 0.93539 0.0
C1172 C 0.3132 0.45839 0.96844 0.0
C1173 C 0.31267 0.42145 0.0001 0.0
C1174 C 0.2984 0.40089 0.96297 0.0
C1175 C 0.28869 0.37991 0.00179 0.0
C1176 C 0.2935 0.37993 0.08094 0.0
C1177 C 0.30782 0.4008 0.12071 0.0
C1178 C 0.3175 0.42182 0.07947 0.0
H1179 H 0.90153 0.323 0.22366 0.0
H1180 H 0.93471 0.28169 0.22621 0.0
H1181 H 0.92616 0.27324 0.087 0.0
H1182 H 0.85576 0.28728 0.09154 0.0
H1183 H 0.85612 0.31106 0.04156 0.0
H1184 H 0.86479 0.31401 0.1419 0.0
H1185 H 0.90387 0.34973 0.10725 0.0
H1186 H 0.89545 0.34699 0.00673 0.0
H1187 H 0.92171 0.34756 0.03326 0.0
H1188 H 0.91294 0.26804 0.94932 0.0
H1189 H 0.89877 0.269 0.81861 0.0
H1190 H 0.87553 0.31511 0.90206 0.0
C1191 C 0.90692 0.31214 0.19482 0.0
C1192 C 0.91885 0.30306 0.23591 0.0
C1193 C 0.92585 0.28911 0.19592 0.0
C1194 C 0.9209 0.28405 0.11691 0.0
C1195 C 0.90902 0.29314 0.07829 0.0
C1196 C 0.90231 0.30708 0.1155 0.0
C1197 C 0.89023 0.31504 0.05958 0.0
C1198 C 0.86524 0.30632 0.08519 0.0
C1199 C 0.90362 0.34139 0.05119 0.0
C1200 C 0.89116 0.3033 0.98536 0.0
C1201 C 0.9019 0.29062 0.99783 0.0
C1202 C 0.90466 0.27808 0.93862 0.0
C1203 C 0.8966 0.27883 0.86422 0.0
C1204 C 0.88614 0.2923 0.84887 0.0
C1205 C 0.88319 0.30444 0.91112 0.0
loop_
_geom_bond_atom_site_label_1
_geom_bond_atom_site_label_2
_geom_bond_distance
_geom_bond_site_symmetry_2
_ccdc_geom_bond_type
Co0 N4 2.148 . S
Co0 N10 2.128 1_554 S
Co0 N20 2.194 . S
Co0 O25 2.351 . S
Co0 O26 2.155 . S
Co0 O27 2.096 . S
C1 N4 1.301 . S
C1 N5 1.328 . S
C1 H6 0.930 . S
C2 C3 1.333 . S
C2 N4 1.317 . S
C2 H7 0.930 . S
C3 C2 1.333 . S
C3 N5 1.350 . S
C3 H29 0.931 . S
N4 Co0 2.148 . S
N4 C1 1.301 . S
N4 C2 1.317 . S
N5 C1 1.328 . S
N5 C3 1.350 . S
H6 C1 0.930 . S
H7 C2 0.930 . S
C8 O9 1.224 1_556 S
C8 O27 1.247 1_556 S
O9 C8 1.224 1_554 S
N10 Co0 2.128 1_556 S
N10 C11 1.355 . S
N10 C13 1.311 . S
C11 N10 1.355 . S
C11 C12 1.363 . S
C11 H23 0.929 . S
C12 C11 1.363 . S
C12 N14 1.375 . S
C12 H30 0.931 . S
C13 N10 1.311 . S
C13 N14 1.347 . S
C13 H24 0.929 . S
N14 C12 1.375 . S
N14 C13 1.347 . S
C15 C18 1.365 . S
C15 N20 1.328 . S
C15 H21 0.929 . S
C16 C17 1.362 . S
C16 C19 1.378 . S
C16 H31 0.929 . S
C17 C16 1.362 . S
C17 C18 1.366 . S
C18 C15 1.365 . S
C18 C17 1.366 . S
C18 H32 0.930 . S
C19 C16 1.378 . S
C19 N20 1.315 . S
C19 H22 0.930 . S
N20 Co0 2.194 . S
N20 C15 1.328 . S
N20 C19 1.315 . S
H21 C15 0.929 . S
H22 C19 0.930 . S
H23 C11 0.929 . S
H24 C13 0.929 . S
O25 Co0 2.351 . S
O25 C28 1.244 . S
O26 Co0 2.155 . S
O26 C28 1.240 . S
O27 Co0 2.096 . S
O27 C8 1.247 1_554 S
C28 O25 1.244 . S
C28 O26 1.240 . S
H29 C3 0.931 . S
H30 C12 0.931 . S
H31 C16 0.929 . S
H32 C18 0.930 . S
Co33 N37 2.148 . S
Co33 N43 2.128 . S
Co33 N53 2.194 . S
Co33 O58 2.351 . S
Co33 O59 2.155 . S
Co33 O60 2.096 . S
C34 N37 1.301 . S
C34 N38 1.328 . S
C34 H39 0.930 . S
C35 C36 1.333 . S
C35 N37 1.317 . S
C35 H40 0.930 . S
C36 C35 1.333 . S
C36 N38 1.350 . S
C36 H62 0.931 . S
N37 Co33 2.148 . S
N37 C34 1.301 . S
N37 C35 1.317 . S
N38 C34 1.328 . S
N38 C36 1.350 . S
H39 C34 0.930 . S
H40 C35 0.930 . S
C41 O42 1.224 . S
C41 O60 1.247 . S
O42 C41 1.224 . S
N43 Co33 2.128 . S
N43 C44 1.355 . S
N43 C46 1.311 . S
C44 N43 1.355 . S
C44 C45 1.363 . S
C44 H56 0.929 . S
C45 C44 1.363 . S
C45 N47 1.375 1_554 S
C45 H63 0.931 1_554 S
C46 N43 1.311 . S
C46 N47 1.347 1_554 S
C46 H57 0.929 . S
N47 C45 1.375 1_556 S
N47 C46 1.347 1_556 S
C48 C51 1.365 . S
C48 N53 1.328 . S
C48 H54 0.929 . S
C49 C50 1.362 . S
C49 C52 1.378 . S
C49 H64 0.929 . S
C50 C49 1.362 . S
C50 C51 1.366 . S
C51 C48 1.365 . S
C51 C50 1.366 . S
C51 H65 0.930 . S
C52 C49 1.378 . S
C52 N53 1.315 . S
C52 H55 0.930 . S
N53 Co33 2.194 . S
N53 C48 1.328 . S
N53 C52 1.315 . S
H54 C48 0.929 . S
H55 C52 0.930 . S
H56 C44 0.929 . S
H57 C46 0.929 . S
O58 Co33 2.351 . S
O58 C61 1.244 . S
O59 Co33 2.155 . S
O59 C61 1.240 . S
O60 Co33 2.096 . S
O60 C41 1.247 . S
C61 O58 1.244 . S
C61 O59 1.240 . S
H62 C36 0.931 . S
H63 C45 0.931 1_556 S
H64 C49 0.929 . S
H65 C51 0.930 . S
Co66 N70 2.148 . S
Co66 N76 2.128 . S
Co66 N86 2.194 . S
Co66 O91 2.351 . S
Co66 O92 2.155 . S
Co66 O93 2.096 . S
C67 N70 1.301 . S
C67 N71 1.328 . S
C67 H72 0.930 . S
C68 C69 1.333 . S
C68 N70 1.317 . S
C68 H73 0.930 . S
C69 C68 1.333 . S
C69 N71 1.350 . S
C69 H95 0.931 . S
N70 Co66 2.148 . S
N70 C67 1.301 . S
N70 C68 1.317 . S
N71 C67 1.328 . S
N71 C69 1.350 . S
H72 C67 0.930 . S
H73 C68 0.930 . S
C74 O75 1.224 . S
C74 O93 1.247 . S
O75 C74 1.224 . S
N76 Co66 2.128 . S
N76 C77 1.355 . S
N76 C79 1.311 . S
C77 N76 1.355 . S
C77 C78 1.363 . S
C77 H89 0.929 . S
C78 C77 1.363 . S
C78 N80 1.375 . S
C78 H96 0.931 . S
C79 N76 1.311 . S
C79 N80 1.347 . S
C79 H90 0.929 . S
N80 C78 1.375 . S
N80 C79 1.347 . S
C81 C84 1.365 . S
C81 N86 1.328 . S
C81 H87 0.929 . S
C82 C83 1.362 . S
C82 C85 1.378 . S
C82 H97 0.929 . S
C83 C82 1.362 . S
C83 C84 1.366 . S
C84 C81 1.365 . S
C84 C83 1.366 . S
C84 H98 0.930 . S
C85 C82 1.378 . S
C85 N86 1.315 . S
C85 H88 0.930 . S
N86 Co66 2.194 . S
N86 C81 1.328 . S
N86 C85 1.315 . S
H87 C81 0.929 . S
H88 C85 0.930 . S
H89 C77 0.929 . S
H90 C79 0.929 . S
O91 Co66 2.351 . S
O91 C94 1.244 . S
O92 Co66 2.155 . S
O92 C94 1.240 . S
O93 Co66 2.096 . S
O93 C74 1.247 . S
C94 O91 1.244 . S
C94 O92 1.240 . S
H95 C69 0.931 . S
H96 C78 0.931 . S
H97 C82 0.929 . S
H98 C84 0.930 . S
Co99 N103 2.148 . S
Co99 N109 2.128 . S
Co99 N119 2.194 . S
Co99 O124 2.351 . S
Co99 O125 2.155 . S
Co99 O126 2.096 . S
C100 N103 1.301 . S
C100 N104 1.328 . S
C100 H105 0.930 . S
C101 C102 1.333 . S
C101 N103 1.317 . S
C101 H106 0.930 . S
C102 C101 1.333 . S
C102 N104 1.350 . S
C102 H128 0.931 . S
N103 Co99 2.148 . S
N103 C100 1.301 . S
N103 C101 1.317 . S
N104 C100 1.328 . S
N104 C102 1.350 . S
H105 C100 0.930 . S
H106 C101 0.930 . S
C107 O108 1.224 . S
C107 O126 1.247 . S
O108 C107 1.224 . S
N109 Co99 2.128 . S
N109 C110 1.355 . S
N109 C112 1.311 . S
C110 N109 1.355 . S
C110 C111 1.363 . S
C110 H122 0.929 . S
C111 C110 1.363 . S
C111 N113 1.375 . S
C111 H129 0.931 . S
C112 N109 1.311 . S
C112 N113 1.347 . S
C112 H123 0.929 . S
N113 C111 1.375 . S
N113 C112 1.347 . S
C114 C117 1.365 . S
C114 N119 1.328 . S
C114 H120 0.929 . S
C115 C116 1.362 . S
C115 C118 1.378 . S
C115 H130 0.929 . S
C116 C115 1.362 . S
C116 C117 1.366 . S
C117 C114 1.365 . S
C117 C116 1.366 . S
C117 H131 0.930 . S
C118 C115 1.378 . S
C118 N119 1.315 . S
C118 H121 0.930 . S
N119 Co99 2.194 . S
N119 C114 1.328 . S
N119 C118 1.315 . S
H120 C114 0.929 . S
H121 C118 0.930 . S
H122 C110 0.929 . S
H123 C112 0.929 . S
O124 Co99 2.351 . S
O124 C127 1.244 . S
O125 Co99 2.155 . S
O125 C127 1.240 . S
O126 Co99 2.096 . S
O126 C107 1.247 . S
C127 O124 1.244 . S
C127 O125 1.240 . S
H128 C102 0.931 . S
H129 C111 0.931 . S
H130 C115 0.929 . S
H131 C117 0.930 . S
Co132 N136 2.148 . S
Co132 N142 2.128 . S
Co132 N152 2.194 . S
Co132 O157 2.351 . S
Co132 O158 2.155 . S
Co132 O159 2.096 . S
C133 N136 1.301 . S
C133 N137 1.328 . S
C133 H138 0.930 . S
C134 C135 1.333 . S
C134 N136 1.317 . S
C134 H139 0.930 . S
C135 C134 1.333 . S
C135 N137 1.350 . S
C135 H161 0.931 . S
N136 Co132 2.148 . S
N136 C133 1.301 . S
N136 C134 1.317 . S
N137 C133 1.328 . S
N137 C135 1.350 . S
H138 C133 0.930 . S
H139 C134 0.930 . S
C140 O141 1.224 . S
C140 O159 1.247 . S
O141 C140 1.224 . S
N142 Co132 2.128 . S
N142 C143 1.355 . S
N142 C145 1.311 . S
C143 N142 1.355 . S
C143 C144 1.363 . S
C143 H155 0.929 . S
C144 C143 1.363 . S
C144 N146 1.375 . S
C144 H162 0.931 . S
C145 N142 1.311 . S
C145 N146 1.347 . S
C145 H156 0.929 . S
N146 C144 1.375 . S
N146 C145 1.347 . S
C147 C150 1.365 . S
C147 N152 1.328 . S
C147 H153 0.929 . S
C148 C149 1.362 . S
C148 C151 1.378 . S
C148 H163 0.929 . S
C149 C148 1.362 . S
C149 C150 1.366 . S
C150 C147 1.365 . S
C150 C149 1.366 . S
C150 H164 0.930 . S
C151 C148 1.378 . S
C151 N152 1.315 . S
C151 H154 0.930 . S
N152 Co132 2.194 . S
N152 C147 1.328 . S
N152 C151 1.315 . S
H153 C147 0.929 . S
H154 C151 0.930 . S
H155 C143 0.929 . S
H156 C145 0.929 . S
O157 Co132 2.351 . S
O157 C160 1.244 . S
O158 Co132 2.155 . S
O158 C160 1.240 . S
O159 Co132 2.096 . S
O159 C140 1.247 . S
C160 O157 1.244 . S
C160 O158 1.240 . S
H161 C135 0.931 . S
H162 C144 0.931 . S
H163 C148 0.929 . S
H164 C150 0.930 . S
Co165 N169 2.148 1_556 S
Co165 N175 2.128 . S
Co165 N185 2.194 . S
Co165 O190 2.351 . S
Co165 O191 2.155 . S
Co165 O192 2.096 . S
C166 N169 1.301 . S
C166 N170 1.328 . S
C166 H171 0.930 . S
C167 C168 1.333 . S
C167 N169 1.317 . S
C167 H172 0.930 1_554 S
C168 C167 1.333 . S
C168 N170 1.350 . S
C168 H194 0.931 . S
N169 Co165 2.148 1_554 S
N169 C166 1.301 . S
N169 C167 1.317 . S
N170 C166 1.328 . S
N170 C168 1.350 . S
H171 C166 0.930 . S
H172 C167 0.930 1_556 S
C173 O174 1.224 . S
C173 O192 1.247 . S
O174 C173 1.224 . S
N175 Co165 2.128 . S
N175 C176 1.355 . S
N175 C178 1.311 . S
C176 N175 1.355 . S
C176 C177 1.363 . S
C176 H188 0.929 . S
C177 C176 1.363 . S
C177 N179 1.375 . S
C177 H195 0.931 . S
C178 N175 1.311 . S
C178 N179 1.347 . S
C178 H189 0.929 . S
N179 C177 1.375 . S
N179 C178 1.347 . S
C180 C183 1.365 . S
C180 N185 1.328 . S
C180 H186 0.929 . S
C181 C182 1.362 . S
C181 C184 1.378 . S
C181 H196 0.929 . S
C182 C181 1.362 . S
C182 C183 1.366 . S
C183 C180 1.365 . S
C183 C182 1.366 . S
C183 H197 0.930 . S
C184 C181 1.378 . S
C184 N185 1.315 . S
C184 H187 0.930 . S
N185 Co165 2.194 . S
N185 C180 1.328 . S
N185 C184 1.315 . S
H186 C180 0.929 . S
H187 C184 0.930 . S
H188 C176 0.929 . S
H189 C178 0.929 . S
O190 Co165 2.351 . S
O190 C193 1.244 . S
O191 Co165 2.155 . S
O191 C193 1.240 . S
O192 Co165 2.096 . S
O192 C173 1.247 . S
C193 O190 1.244 . S
C193 O191 1.240 . S
H194 C168 0.931 . S
H195 C177 0.931 . S
H196 C181 0.929 . S
H197 C183 0.930 . S
Co198 N202 2.148 . S
Co198 N208 2.128 . S
Co198 N218 2.194 . S
Co198 O223 2.351 . S
Co198 O224 2.155 . S
Co198 O225 2.096 . S
C199 N202 1.301 . S
C199 N203 1.328 . S
C199 H204 0.930 . S
C200 C201 1.333 . S
C200 N202 1.317 . S
C200 H205 0.930 . S
C201 C200 1.333 . S
C201 N203 1.350 . S
C201 H227 0.931 . S
N202 Co198 2.148 . S
N202 C199 1.301 . S
N202 C200 1.317 . S
N203 C199 1.328 . S
N203 C201 1.350 . S
H204 C199 0.930 . S
H205 C200 0.930 . S
C206 O207 1.224 . S
C206 O225 1.247 . S
O207 C206 1.224 . S
N208 Co198 2.128 . S
N208 C209 1.355 . S
N208 C211 1.311 . S
C209 N208 1.355 . S
C209 C210 1.363 . S
C209 H221 0.929 . S
C210 C209 1.363 . S
C210 N212 1.375 1_556 S
C210 H228 0.931 1_556 S
C211 N208 1.311 . S
C211 N212 1.347 1_556 S
C211 H222 0.929 . S
N212 C210 1.375 1_554 S
N212 C211 1.347 1_554 S
C213 C216 1.365 . S
C213 N218 1.328 . S
C213 H219 0.929 . S
C214 C215 1.362 . S
C214 C217 1.378 . S
C214 H229 0.929 . S
C215 C214 1.362 . S
C215 C216 1.366 . S
C216 C213 1.365 . S
C216 C215 1.366 . S
C216 H230 0.930 . S
C217 C214 1.378 . S
C217 N218 1.315 . S
C217 H220 0.930 . S
N218 Co198 2.194 . S
N218 C213 1.328 . S
N218 C217 1.315 . S
H219 C213 0.929 . S
H220 C217 0.930 . S
H221 C209 0.929 . S
H222 C211 0.929 . S
O223 Co198 2.351 . S
O223 C226 1.244 . S
O224 Co198 2.155 . S
O224 C226 1.240 . S
O225 Co198 2.096 . S
O225 C206 1.247 . S
C226 O223 1.244 . S
C226 O224 1.240 . S
H227 C201 0.931 . S
H228 C210 0.931 1_554 S
H229 C214 0.929 . S
H230 C216 0.930 . S
Co231 N235 2.148 . S
Co231 N241 2.128 1_556 S
Co231 N251 2.194 . S
Co231 O256 2.351 . S
Co231 O257 2.155 . S
Co231 O258 2.096 . S
C232 N235 1.301 . S
C232 N236 1.328 . S
C232 H237 0.930 . S
C233 C234 1.333 . S
C233 N235 1.317 . S
C233 H238 0.930 . S
C234 C233 1.333 . S
C234 N236 1.350 . S
C234 H260 0.931 . S
N235 Co231 2.148 . S
N235 C232 1.301 . S
N235 C233 1.317 . S
N236 C232 1.328 . S
N236 C234 1.350 . S
H237 C232 0.930 . S
H238 C233 0.930 . S
C239 O240 1.224 . S
C239 O258 1.247 1_554 S
O240 C239 1.224 . S
N241 Co231 2.128 1_554 S
N241 C242 1.355 . S
N241 C244 1.311 . S
C242 N241 1.355 . S
C242 C243 1.363 . S
C242 H254 0.929 . S
C243 C242 1.363 . S
C243 N245 1.375 . S
C243 H261 0.931 . S
C244 N241 1.311 . S
C244 N245 1.347 . S
C244 H255 0.929 . S
N245 C243 1.375 . S
N245 C244 1.347 . S
C246 C249 1.365 . S
C246 N251 1.328 . S
C246 H252 0.929 . S
C247 C248 1.362 . S
C247 C250 1.378 . S
C247 H262 0.929 . S
C248 C247 1.362 . S
C248 C249 1.366 . S
C249 C246 1.365 . S
C249 C248 1.366 . S
C249 H263 0.930 . S
C250 C247 1.378 . S
C250 N251 1.315 . S
C250 H253 0.930 . S
N251 Co231 2.194 . S
N251 C246 1.328 . S
N251 C250 1.315 . S
H252 C246 0.929 . S
H253 C250 0.930 . S
H254 C242 0.929 . S
H255 C244 0.929 . S
O256 Co231 2.351 . S
O256 C259 1.244 . S
O257 Co231 2.155 . S
O257 C259 1.240 . S
O258 Co231 2.096 . S
O258 C239 1.247 1_556 S
C259 O256 1.244 . S
C259 O257 1.240 . S
H260 C234 0.931 . S
H261 C243 0.931 . S
H262 C247 0.929 . S
H263 C249 0.930 . S
Co264 N268 2.148 1_554 S
Co264 N274 2.128 . S
Co264 N284 2.194 . S
Co264 O289 2.351 . S
Co264 O290 2.155 . S
Co264 O291 2.096 . S
C265 N268 1.301 . S
C265 N269 1.328 . S
C265 H270 0.930 . S
C266 C267 1.333 . S
C266 N268 1.317 . S
C266 H271 0.930 1_556 S
C267 C266 1.333 . S
C267 N269 1.350 . S
C267 H293 0.931 . S
N268 Co264 2.148 1_556 S
N268 C265 1.301 . S
N268 C266 1.317 . S
N269 C265 1.328 . S
N269 C267 1.350 . S
H270 C265 0.930 . S
H271 C266 0.930 1_554 S
C272 O273 1.224 . S
C272 O291 1.247 . S
O273 C272 1.224 . S
N274 Co264 2.128 . S
N274 C275 1.355 . S
N274 C277 1.311 . S
C275 N274 1.355 . S
C275 C276 1.363 . S
C275 H287 0.929 . S
C276 C275 1.363 . S
C276 N278 1.375 . S
C276 H294 0.931 . S
C277 N274 1.311 . S
C277 N278 1.347 . S
C277 H288 0.929 . S
N278 C276 1.375 . S
N278 C277 1.347 . S
C279 C282 1.365 . S
C279 N284 1.328 . S
C279 H285 0.929 . S
C280 C281 1.362 . S
C280 C283 1.378 . S
C280 H295 0.929 . S
C281 C280 1.362 . S
C281 C282 1.366 . S
C282 C279 1.365 . S
C282 C281 1.366 . S
C282 H296 0.930 . S
C283 C280 1.378 . S
C283 N284 1.315 . S
C283 H286 0.930 . S
N284 Co264 2.194 . S
N284 C279 1.328 . S
N284 C283 1.315 . S
H285 C279 0.929 . S
H286 C283 0.930 . S
H287 C275 0.929 . S
H288 C277 0.929 . S
O289 Co264 2.351 . S
O289 C292 1.244 . S
O290 Co264 2.155 . S
O290 C292 1.240 . S
O291 Co264 2.096 . S
O291 C272 1.247 . S
C292 O289 1.244 . S
C292 O290 1.240 . S
H293 C267 0.931 . S
H294 C276 0.931 . S
H295 C280 0.929 . S
H296 C282 0.930 . S
Co297 N301 2.148 . S
Co297 N307 2.128 . S
Co297 N317 2.194 . S
Co297 O322 2.351 . S
Co297 O323 2.155 . S
Co297 O324 2.096 . S
C298 N301 1.301 . S
C298 N302 1.328 . S
C298 H303 0.930 . S
C299 C300 1.333 . S
C299 N301 1.317 . S
C299 H304 0.930 . S
C300 C299 1.333 . S
C300 N302 1.350 . S
C300 H326 0.931 . S
N301 Co297 2.148 . S
N301 C298 1.301 . S
N301 C299 1.317 . S
N302 C298 1.328 . S
N302 C300 1.350 . S
H303 C298 0.930 . S
H304 C299 0.930 . S
C305 O306 1.224 . S
C305 O324 1.247 . S
O306 C305 1.224 . S
N307 Co297 2.128 . S
N307 C308 1.355 . S
N307 C310 1.311 . S
C308 N307 1.355 . S
C308 C309 1.363 . S
C308 H320 0.929 . S
C309 C308 1.363 . S
C309 N311 1.375 . S
C309 H327 0.931 . S
C310 N307 1.311 . S
C310 N311 1.347 . S
C310 H321 0.929 . S
N311 C309 1.375 . S
N311 C310 1.347 . S
C312 C315 1.365 . S
C312 N317 1.328 . S
C312 H318 0.929 . S
C313 C314 1.362 . S
C313 C316 1.378 . S
C313 H328 0.929 . S
C314 C313 1.362 . S
C314 C315 1.366 . S
C315 C312 1.365 . S
C315 C314 1.366 . S
C315 H329 0.930 . S
C316 C313 1.378 . S
C316 N317 1.315 . S
C316 H319 0.930 . S
N317 Co297 2.194 . S
N317 C312 1.328 . S
N317 C316 1.315 . S
H318 C312 0.929 . S
H319 C316 0.930 . S
H320 C308 0.929 . S
H321 C310 0.929 . S
O322 Co297 2.351 . S
O322 C325 1.244 . S
O323 Co297 2.155 . S
O323 C325 1.240 . S
O324 Co297 2.096 . S
O324 C305 1.247 . S
C325 O322 1.244 . S
C325 O323 1.240 . S
H326 C300 0.931 . S
H327 C309 0.931 . S
H328 C313 0.929 . S
H329 C315 0.930 . S
Co330 N334 2.148 . S
Co330 N340 2.128 . S
Co330 N350 2.194 . S
Co330 O355 2.351 . S
Co330 O356 2.155 . S
Co330 O357 2.096 . S
C331 N334 1.301 . S
C331 N335 1.328 . S
C331 H336 0.930 . S
C332 C333 1.333 . S
C332 N334 1.317 . S
C332 H337 0.930 . S
C333 C332 1.333 . S
C333 N335 1.350 . S
C333 H359 0.931 . S
N334 Co330 2.148 . S
N334 C331 1.301 . S
N334 C332 1.317 . S
N335 C331 1.328 . S
N335 C333 1.350 . S
H336 C331 0.930 . S
H337 C332 0.930 . S
C338 O339 1.224 . S
C338 O357 1.247 . S
O339 C338 1.224 . S
N340 Co330 2.128 . S
N340 C341 1.355 . S
N340 C343 1.311 . S
C341 N340 1.355 . S
C341 C342 1.363 . S
C341 H353 0.929 . S
C342 C341 1.363 . S
C342 N344 1.375 . S
C342 H360 0.931 . S
C343 N340 1.311 . S
C343 N344 1.347 . S
C343 H354 0.929 . S
N344 C342 1.375 . S
N344 C343 1.347 . S
C345 C348 1.365 . S
C345 N350 1.328 . S
C345 H351 0.929 . S
C346 C347 1.362 . S
C346 C349 1.378 . S
C346 H361 0.929 . S
C347 C346 1.362 . S
C347 C348 1.366 . S
C348 C345 1.365 . S
C348 C347 1.366 . S
C348 H362 0.930 . S
C349 C346 1.378 . S
C349 N350 1.315 . S
C349 H352 0.930 . S
N350 Co330 2.194 . S
N350 C345 1.328 . S
N350 C349 1.315 . S
H351 C345 0.929 . S
H352 C349 0.930 . S
H353 C341 0.929 . S
H354 C343 0.929 . S
O355 Co330 2.351 . S
O355 C358 1.244 . S
O356 Co330 2.155 . S
O356 C358 1.240 . S
O357 Co330 2.096 . S
O357 C338 1.247 . S
C358 O355 1.244 . S
C358 O356 1.240 . S
H359 C333 0.931 . S
H360 C342 0.931 . S
H361 C346 0.929 . S
H362 C348 0.930 . S
Co363 N367 2.148 . S
Co363 N373 2.128 . S
Co363 N383 2.194 . S
Co363 O388 2.351 . S
Co363 O389 2.155 . S
Co363 O390 2.096 . S
C364 N367 1.301 . S
C364 N368 1.328 . S
C364 H369 0.930 . S
C365 C366 1.333 . S
C365 N367 1.317 . S
C365 H370 0.930 . S
C366 C365 1.333 . S
C366 N368 1.350 . S
C366 H392 0.931 . S
N367 Co363 2.148 . S
N367 C364 1.301 . S
N367 C365 1.317 . S
N368 C364 1.328 . S
N368 C366 1.350 . S
H369 C364 0.930 . S
H370 C365 0.930 . S
C371 O372 1.224 . S
C371 O390 1.247 . S
O372 C371 1.224 . S
N373 Co363 2.128 . S
N373 C374 1.355 . S
N373 C376 1.311 . S
C374 N373 1.355 . S
C374 C375 1.363 . S
C374 H386 0.929 . S
C375 C374 1.363 . S
C375 N377 1.375 . S
C375 H393 0.931 . S
C376 N373 1.311 . S
C376 N377 1.347 . S
C376 H387 0.929 . S
N377 C375 1.375 . S
N377 C376 1.347 . S
C378 C381 1.365 . S
C378 N383 1.328 . S
C378 H384 0.929 . S
C379 C380 1.362 . S
C379 C382 1.378 . S
C379 H394 0.929 . S
C380 C379 1.362 . S
C380 C381 1.366 . S
C381 C378 1.365 . S
C381 C380 1.366 . S
C381 H395 0.930 . S
C382 C379 1.378 . S
C382 N383 1.315 . S
C382 H385 0.930 . S
N383 Co363 2.194 . S
N383 C378 1.328 . S
N383 C382 1.315 . S
H384 C378 0.929 . S
H385 C382 0.930 . S
H386 C374 0.929 . S
H387 C376 0.929 . S
O388 Co363 2.351 . S
O388 C391 1.244 . S
O389 Co363 2.155 . S
O389 C391 1.240 . S
O390 Co363 2.096 . S
O390 C371 1.247 . S
C391 O388 1.244 . S
C391 O389 1.240 . S
H392 C366 0.931 . S
H393 C375 0.931 . S
H394 C379 0.929 . S
H395 C381 0.930 . S
H396 C408 0.930 . S
H397 C410 0.930 1_556 S
H398 C411 0.930 . S
H399 C415 0.959 . S
H400 C415 0.959 . S
H401 C415 0.961 . S
H402 C416 0.960 . S
H403 C416 0.961 . S
H404 C416 0.959 . S
H405 C419 0.929 . S
H406 C420 0.931 . S
H407 C422 0.930 . S
C408 H396 0.930 . S
C408 C409 1.399 . S
C408 C413 1.399 . S
C409 C408 1.399 . S
C409 C410 1.376 . S
C410 H397 0.930 1_554 S
C410 C409 1.376 . S
C410 C411 1.388 1_554 S
C411 H398 0.930 . S
C411 C410 1.388 1_556 S
C411 C412 1.390 1_556 S
C412 C411 1.390 1_554 S
C412 C413 1.394 . S
C412 C418 1.465 . S
C413 C408 1.399 . S
C413 C412 1.394 . S
C413 C414 1.516 . S
C414 C413 1.516 . S
C414 C415 1.502 . S
C414 C416 1.561 . S
C414 C417 1.526 . S
C415 H399 0.959 . S
C415 H400 0.959 . S
C415 H401 0.961 . S
C415 C414 1.502 . S
C416 H402 0.960 . S
C416 H403 0.961 . S
C416 H404 0.959 . S
C416 C414 1.561 . S
C417 C414 1.526 . S
C417 C418 1.396 . S
C417 C422 1.390 . S
C418 C412 1.465 . S
C418 C417 1.396 . S
C418 C419 1.399 1_554 S
C419 H405 0.929 . S
C419 C418 1.399 1_556 S
C419 C420 1.385 . S
C420 H406 0.931 . S
C420 C419 1.385 . S
C420 C421 1.389 1_556 S
C421 C420 1.389 1_554 S
C421 C422 1.387 . S
C422 H407 0.930 . S
C422 C417 1.390 . S
C422 C421 1.387 . S
H423 C435 0.930 . S
H424 C437 0.930 . S
H425 C438 0.930 . S
H426 C442 0.959 . S
H427 C442 0.959 . S
H428 C442 0.961 . S
H429 C443 0.960 . S
H430 C443 0.961 . S
H431 C443 0.959 . S
H432 C446 0.929 . S
H433 C447 0.931 . S
H434 C449 0.930 . S
C435 H423 0.930 . S
C435 C436 1.399 . S
C435 C440 1.399 . S
C436 C435 1.399 . S
C436 C437 1.376 . S
C437 H424 0.930 . S
C437 C436 1.376 . S
C437 C438 1.388 . S
C438 H425 0.930 . S
C438 C437 1.388 . S
C438 C439 1.390 . S
C439 C438 1.390 . S
C439 C440 1.394 . S
C439 C445 1.465 . S
C440 C435 1.399 . S
C440 C439 1.394 . S
C440 C441 1.516 . S
C441 C440 1.516 . S
C441 C442 1.502 . S
C441 C443 1.561 . S
C441 C444 1.526 . S
C442 H426 0.959 . S
C442 H427 0.959 . S
C442 H428 0.961 . S
C442 C441 1.502 . S
C443 H429 0.960 . S
C443 H430 0.961 . S
C443 H431 0.959 . S
C443 C441 1.561 . S
C444 C441 1.526 . S
C444 C445 1.396 . S
C444 C449 1.390 . S
C445 C439 1.465 . S
C445 C444 1.396 . S
C445 C446 1.399 . S
C446 H432 0.929 . S
C446 C445 1.399 . S
C446 C447 1.385 . S
C447 H433 0.931 . S
C447 C446 1.385 . S
C447 C448 1.389 . S
C448 C447 1.389 . S
C448 C449 1.387 . S
C449 H434 0.930 . S
C449 C444 1.390 . S
C449 C448 1.387 . S
H450 C462 0.930 . S
H451 C464 0.930 . S
H452 C465 0.930 . S
H453 C469 0.959 . S
H454 C469 0.959 . S
H455 C469 0.961 . S
H456 C470 0.960 . S
H457 C470 0.961 . S
H458 C470 0.959 . S
H459 C473 0.929 . S
H460 C474 0.931 . S
H461 C476 0.930 . S
C462 H450 0.930 . S
C462 C463 1.399 . S
C462 C467 1.399 . S
C463 C462 1.399 . S
C463 C464 1.376 . S
C464 H451 0.930 . S
C464 C463 1.376 . S
C464 C465 1.388 . S
C465 H452 0.930 . S
C465 C464 1.388 . S
C465 C466 1.390 . S
C466 C465 1.390 . S
C466 C467 1.394 . S
C466 C472 1.465 . S
C467 C462 1.399 . S
C467 C466 1.394 . S
C467 C468 1.516 . S
C468 C467 1.516 . S
C468 C469 1.502 . S
C468 C470 1.561 . S
C468 C471 1.526 . S
C469 H453 0.959 . S
C469 H454 0.959 . S
C469 H455 0.961 . S
C469 C468 1.502 . S
C470 H456 0.960 . S
C470 H457 0.961 . S
C470 H458 0.959 . S
C470 C468 1.561 . S
C471 C468 1.526 . S
C471 C472 1.396 . S
C471 C476 1.390 . S
C472 C466 1.465 . S
C472 C471 1.396 . S
C472 C473 1.399 . S
C473 H459 0.929 . S
C473 C472 1.399 . S
C473 C474 1.385 . S
C474 H460 0.931 . S
C474 C473 1.385 . S
C474 C475 1.389 . S
C475 C474 1.389 . S
C475 C476 1.387 . S
C476 H461 0.930 . S
C476 C471 1.390 . S
C476 C475 1.387 . S
H477 C489 0.930 . S
H478 C491 0.930 . S
H479 C492 0.930 . S
H480 C496 0.959 . S
H481 C496 0.959 . S
H482 C496 0.961 . S
H483 C497 0.960 . S
H484 C497 0.961 . S
H485 C497 0.959 . S
H486 C500 0.929 . S
H487 C501 0.931 . S
H488 C503 0.930 . S
C489 H477 0.930 . S
C489 C490 1.399 . S
C489 C494 1.399 . S
C490 C489 1.399 . S
C490 C491 1.376 . S
C491 H478 0.930 . S
C491 C490 1.376 . S
C491 C492 1.388 . S
C492 H479 0.930 . S
C492 C491 1.388 . S
C492 C493 1.390 . S
C493 C492 1.390 . S
C493 C494 1.394 . S
C493 C499 1.465 . S
C494 C489 1.399 . S
C494 C493 1.394 . S
C494 C495 1.516 . S
C495 C494 1.516 . S
C495 C496 1.502 . S
C495 C497 1.561 . S
C495 C498 1.526 . S
C496 H480 0.959 . S
C496 H481 0.959 . S
C496 H482 0.961 . S
C496 C495 1.502 . S
C497 H483 0.960 . S
C497 H484 0.961 . S
C497 H485 0.959 . S
C497 C495 1.561 . S
C498 C495 1.526 . S
C498 C499 1.396 . S
C498 C503 1.390 . S
C499 C493 1.465 . S
C499 C498 1.396 . S
C499 C500 1.399 . S
C500 H486 0.929 . S
C500 C499 1.399 . S
C500 C501 1.385 . S
C501 H487 0.931 . S
C501 C500 1.385 . S
C501 C502 1.389 . S
C502 C501 1.389 . S
C502 C503 1.387 . S
C503 H488 0.930 . S
C503 C498 1.390 . S
C503 C502 1.387 . S
H504 C516 0.930 . S
H505 C518 0.930 . S
H506 C519 0.930 . S
H507 C523 0.959 . S
H508 C523 0.959 . S
H509 C523 0.961 . S
H510 C524 0.960 . S
H511 C524 0.961 . S
H512 C524 0.959 . S
H513 C527 0.929 . S
H514 C528 0.931 . S
H515 C530 0.930 . S
C516 H504 0.930 . S
C516 C517 1.399 . S
C516 C521 1.399 . S
C517 C516 1.399 . S
C517 C518 1.376 . S
C518 H505 0.930 . S
C518 C517 1.376 . S
C518 C519 1.388 . S
C519 H506 0.930 . S
C519 C518 1.388 . S
C519 C520 1.390 . S
C520 C519 1.390 . S
C520 C521 1.394 . S
C520 C526 1.465 . S
C521 C516 1.399 . S
C521 C520 1.394 . S
C521 C522 1.516 . S
C522 C521 1.516 . S
C522 C523 1.502 . S
C522 C524 1.561 . S
C522 C525 1.526 . S
C523 H507 0.959 . S
C523 H508 0.959 . S
C523 H509 0.961 . S
C523 C522 1.502 . S
C524 H510 0.960 . S
C524 H511 0.961 . S
C524 H512 0.959 . S
C524 C522 1.561 . S
C525 C522 1.526 . S
C525 C526 1.396 . S
C525 C530 1.390 . S
C526 C520 1.465 . S
C526 C525 1.396 . S
C526 C527 1.399 . S
C527 H513 0.929 . S
C527 C526 1.399 . S
C527 C528 1.385 . S
C528 H514 0.931 . S
C528 C527 1.385 . S
C528 C529 1.389 . S
C529 C528 1.389 . S
C529 C530 1.387 . S
C530 H515 0.930 . S
C530 C525 1.390 . S
C530 C529 1.387 . S
H531 C543 0.930 . S
H532 C545 0.930 1_554 S
H533 C546 0.925 1_554 S
H534 C550 0.959 . S
H535 C550 0.959 . S
H536 C550 0.961 . S
H537 C551 0.960 . S
H538 C551 0.961 . S
H539 C551 0.959 . S
H540 C554 0.929 1_554 S
H541 C555 0.931 1_554 S
H542 C557 0.930 . S
C543 H531 0.930 . S
C543 C544 1.399 . S
C543 C548 1.399 . S
C544 C543 1.399 . S
C544 C545 1.376 . S
C545 H532 0.930 1_556 S
C545 C544 1.376 . S
C545 C546 1.389 . S
C546 H533 0.925 1_556 S
C546 C545 1.389 . S
C546 C547 1.394 . S
C547 C546 1.394 . S
C547 C548 1.394 . S
C547 C553 1.465 . S
C548 C543 1.399 . S
C548 C547 1.394 . S
C548 C549 1.516 . S
C549 C548 1.516 . S
C549 C550 1.502 . S
C549 C551 1.561 . S
C549 C552 1.526 . S
C550 H534 0.959 . S
C550 H535 0.959 . S
C550 H536 0.961 . S
C550 C549 1.502 . S
C551 H537 0.960 . S
C551 H538 0.961 . S
C551 H539 0.959 . S
C551 C549 1.561 . S
C552 C549 1.526 . S
C552 C553 1.396 . S
C552 C557 1.390 . S
C553 C547 1.465 . S
C553 C552 1.396 . S
C553 C554 1.399 . S
C554 H540 0.929 1_556 S
C554 C553 1.399 . S
C554 C555 1.385 . S
C555 H541 0.931 1_556 S
C555 C554 1.385 . S
C555 C556 1.389 . S
C556 C555 1.389 . S
C556 C557 1.387 . S
C557 H542 0.930 . S
C557 C552 1.390 . S
C557 C556 1.387 . S
H558 C570 0.930 1_554 S
H559 C572 0.930 . S
H560 C573 0.930 . S
H561 C577 0.959 . S
H562 C577 0.959 . S
H563 C577 0.961 . S
H564 C578 0.960 1_554 S
H565 C578 0.961 . S
H566 C578 0.959 . S
H567 C581 0.929 1_455 S
H568 C582 0.931 . S
H569 C584 0.930 . S
C570 H558 0.930 1_556 S
C570 C571 1.399 . S
C570 C575 1.399 . S
C571 C570 1.399 . S
C571 C572 1.376 . S
C572 H559 0.930 . S
C572 C571 1.376 . S
C572 C573 1.388 . S
C573 H560 0.930 . S
C573 C572 1.388 . S
C573 C574 1.390 . S
C574 C573 1.390 . S
C574 C575 1.394 . S
C574 C580 1.465 1_455 S
C575 C570 1.399 . S
C575 C574 1.394 . S
C575 C576 1.516 1_455 S
C576 C575 1.516 1_655 S
C576 C577 1.502 . S
C576 C578 1.561 . S
C576 C579 1.526 . S
C577 H561 0.959 . S
C577 H562 0.959 . S
C577 H563 0.961 . S
C577 C576 1.502 . S
C578 H564 0.960 1_556 S
C578 H565 0.961 . S
C578 H566 0.959 . S
C578 C576 1.561 . S
C579 C576 1.526 . S
C579 C580 1.396 . S
C579 C584 1.390 . S
C580 C574 1.465 1_655 S
C580 C579 1.396 . S
C580 C581 1.399 . S
C581 H567 0.929 1_655 S
C581 C580 1.399 . S
C581 C582 1.385 . S
C582 H568 0.931 . S
C582 C581 1.385 . S
C582 C583 1.389 . S
C583 C582 1.389 . S
C583 C584 1.387 . S
C584 H569 0.930 . S
C584 C579 1.390 . S
C584 C583 1.387 . S
H585 C597 0.930 . S
H586 C599 0.930 . S
H587 C600 0.930 . S
H588 C604 0.959 . S
H589 C604 0.959 . S
H590 C604 0.961 . S
H591 C605 0.960 . S
H592 C605 0.961 . S
H593 C605 0.959 . S
H594 C608 0.929 1_565 S
H595 C609 0.931 . S
H596 C611 0.930 . S
C597 H585 0.930 . S
C597 C598 1.399 . S
C597 C602 1.399 . S
C598 C597 1.399 . S
C598 C599 1.376 . S
C599 H586 0.930 . S
C599 C598 1.376 . S
C599 C600 1.388 1_556 S
C600 H587 0.930 . S
C600 C599 1.388 1_554 S
C600 C601 1.390 . S
C601 C600 1.390 . S
C601 C602 1.394 1_554 S
C601 C607 1.465 1_565 S
C602 C597 1.399 . S
C602 C601 1.394 1_556 S
C602 C603 1.516 1_565 S
C603 C602 1.516 1_545 S
C603 C604 1.502 . S
C603 C605 1.561 . S
C603 C606 1.526 1_556 S
C604 H588 0.959 . S
C604 H589 0.959 . S
C604 H590 0.961 . S
C604 C603 1.502 . S
C605 H591 0.960 . S
C605 H592 0.961 . S
C605 H593 0.959 . S
C605 C603 1.561 . S
C606 C603 1.526 1_554 S
C606 C607 1.396 . S
C606 C611 1.390 . S
C607 C601 1.465 1_545 S
C607 C606 1.396 . S
C607 C608 1.399 . S
C608 H594 0.929 1_545 S
C608 C607 1.399 . S
C608 C609 1.385 . S
C609 H595 0.931 . S
C609 C608 1.385 . S
C609 C610 1.389 . S
C610 C609 1.389 . S
C610 C611 1.387 . S
C611 H596 0.930 . S
C611 C606 1.390 . S
C611 C610 1.387 . S
H612 C624 0.930 . S
H613 C626 0.930 . S
H614 C627 0.930 . S
H615 C631 0.959 . S
H616 C631 0.959 . S
H617 C631 0.961 . S
H618 C632 0.960 . S
H619 C632 0.961 . S
H620 C632 0.959 . S
H621 C635 0.929 . S
H622 C636 0.931 . S
H623 C638 0.930 . S
C624 H612 0.930 . S
C624 C625 1.399 . S
C624 C629 1.399 . S
C625 C624 1.399 . S
C625 C626 1.376 . S
C626 H613 0.930 . S
C626 C625 1.376 . S
C626 C627 1.388 . S
C627 H614 0.930 . S
C627 C626 1.388 . S
C627 C628 1.390 . S
C628 C627 1.390 . S
C628 C629 1.394 . S
C628 C634 1.465 . S
C629 C624 1.399 . S
C629 C628 1.394 . S
C629 C630 1.516 . S
C630 C629 1.516 . S
C630 C631 1.502 . S
C630 C632 1.561 . S
C630 C633 1.526 . S
C631 H615 0.959 . S
C631 H616 0.959 . S
C631 H617 0.961 . S
C631 C630 1.502 . S
C632 H618 0.960 . S
C632 H619 0.961 . S
C632 H620 0.959 . S
C632 C630 1.561 . S
C633 C630 1.526 . S
C633 C634 1.396 . S
C633 C638 1.390 . S
C634 C628 1.465 . S
C634 C633 1.396 . S
C634 C635 1.399 . S
C635 H621 0.929 . S
C635 C634 1.399 . S
C635 C636 1.385 1_554 S
C636 H622 0.931 . S
C636 C635 1.385 1_556 S
C636 C637 1.389 1_556 S
C637 C636 1.389 1_554 S
C637 C638 1.387 . S
C638 H623 0.930 . S
C638 C633 1.390 . S
C638 C637 1.387 . S
H639 C651 0.930 . S
H640 C653 0.930 . S
H641 C654 0.930 . S
H642 C658 0.959 . S
H643 C658 0.959 . S
H644 C658 0.961 . S
H645 C659 0.960 . S
H646 C659 0.953 1_455 S
H647 C659 0.959 . S
H648 C662 0.929 . S
H649 C663 0.931 . S
H650 C665 0.930 . S
C651 H639 0.930 . S
C651 C652 1.399 . S
C651 C656 1.399 . S
C652 C651 1.399 . S
C652 C653 1.376 . S
C653 H640 0.930 . S
C653 C652 1.376 . S
C653 C654 1.388 . S
C654 H641 0.930 . S
C654 C653 1.388 . S
C654 C655 1.390 . S
C655 C654 1.390 . S
C655 C656 1.394 . S
C655 C661 1.465 1_655 S
C656 C651 1.399 . S
C656 C655 1.394 . S
C656 C657 1.516 1_655 S
C657 C656 1.516 1_455 S
C657 C658 1.502 . S
C657 C659 1.561 1_455 S
C657 C660 1.526 . S
C658 H642 0.959 . S
C658 H643 0.959 . S
C658 H644 0.961 . S
C658 C657 1.502 . S
C659 H645 0.960 . S
C659 H646 0.953 1_655 S
C659 H647 0.959 . S
C659 C657 1.561 1_655 S
C660 C657 1.526 . S
C660 C661 1.396 . S
C660 C665 1.390 . S
C661 C655 1.465 1_455 S
C661 C660 1.396 . S
C661 C662 1.399 . S
C662 H648 0.929 . S
C662 C661 1.399 . S
C662 C663 1.385 . S
C663 H649 0.931 . S
C663 C662 1.385 . S
C663 C664 1.389 . S
C664 C663 1.389 . S
C664 C665 1.387 . S
C665 H650 0.930 . S
C665 C660 1.390 . S
C665 C664 1.387 . S
H666 C678 0.930 . S
H667 C680 0.930 . S
H668 C681 0.930 1_565 S
H669 C685 0.959 . S
H670 C685 0.959 . S
H671 C685 0.961 . S
H672 C686 0.960 . S
H673 C686 0.961 . S
H674 C686 0.959 . S
H675 C689 0.929 . S
H676 C690 0.931 . S
H677 C692 0.930 . S
C678 H666 0.930 . S
C678 C679 1.399 . S
C678 C683 1.399 . S
C679 C678 1.399 . S
C679 C680 1.376 . S
C680 H667 0.930 . S
C680 C679 1.376 . S
C680 C681 1.388 . S
C681 H668 0.930 1_545 S
C681 C680 1.388 . S
C681 C682 1.390 . S
C682 C681 1.390 . S
C682 C683 1.394 . S
C682 C688 1.465 1_545 S
C683 C678 1.399 . S
C683 C682 1.394 . S
C683 C684 1.516 . S
C684 C683 1.516 . S
C684 C685 1.502 . S
C684 C686 1.561 . S
C684 C687 1.526 1_545 S
C685 H669 0.959 . S
C685 H670 0.959 . S
C685 H671 0.961 . S
C685 C684 1.502 . S
C686 H672 0.960 . S
C686 H673 0.961 . S
C686 H674 0.959 . S
C686 C684 1.561 . S
C687 C684 1.526 1_565 S
C687 C688 1.396 . S
C687 C692 1.390 . S
C688 C682 1.465 1_565 S
C688 C687 1.396 . S
C688 C689 1.399 . S
C689 H675 0.929 . S
C689 C688 1.399 . S
C689 C690 1.385 . S
C690 H676 0.931 . S
C690 C689 1.385 . S
C690 C691 1.389 . S
C691 C690 1.389 . S
C691 C692 1.387 . S
C692 H677 0.930 . S
C692 C687 1.390 . S
C692 C691 1.387 . S
H693 C705 0.930 . S
H694 C707 0.930 . S
H695 C708 0.930 . S
H696 C712 0.959 . S
H697 C712 0.959 . S
H698 C712 0.961 . S
H699 C713 0.960 . S
H700 C713 0.961 . S
H701 C713 0.959 . S
H702 C716 0.929 . S
H703 C717 0.931 . S
H704 C719 0.930 . S
C705 H693 0.930 . S
C705 C706 1.399 . S
C705 C710 1.399 . S
C706 C705 1.399 . S
C706 C707 1.376 . S
C707 H694 0.930 . S
C707 C706 1.376 . S
C707 C708 1.388 . S
C708 H695 0.930 . S
C708 C707 1.388 . S
C708 C709 1.390 . S
C709 C708 1.390 . S
C709 C710 1.394 . S
C709 C715 1.465 . S
C710 C705 1.399 . S
C710 C709 1.394 . S
C710 C711 1.516 . S
C711 C710 1.516 . S
C711 C712 1.502 . S
C711 C713 1.561 . S
C711 C714 1.526 . S
C712 H696 0.959 . S
C712 H697 0.959 . S
C712 H698 0.961 . S
C712 C711 1.502 . S
C713 H699 0.960 . S
C713 H700 0.961 . S
C713 H701 0.959 . S
C713 C711 1.561 . S
C714 C711 1.526 . S
C714 C715 1.396 . S
C714 C719 1.390 . S
C715 C709 1.465 . S
C715 C714 1.396 . S
C715 C716 1.399 . S
C716 H702 0.929 . S
C716 C715 1.399 . S
C716 C717 1.385 . S
C717 H703 0.931 . S
C717 C716 1.385 . S
C717 C718 1.389 . S
C718 C717 1.389 . S
C718 C719 1.387 . S
C719 H704 0.930 . S
C719 C714 1.390 . S
C719 C718 1.387 . S
H720 C732 0.930 . S
H721 C734 0.930 . S
H722 C735 0.930 . S
H723 C739 0.959 . S
H724 C739 0.959 . S
H725 C739 0.961 . S
H726 C740 0.960 . S
H727 C740 0.961 . S
H728 C740 0.959 . S
H729 C743 0.929 . S
H730 C744 0.931 . S
H731 C746 0.930 . S
C732 H720 0.930 . S
C732 C733 1.399 . S
C732 C737 1.399 . S
C733 C732 1.399 . S
C733 C734 1.376 . S
C734 H721 0.930 . S
C734 C733 1.376 . S
C734 C735 1.388 . S
C735 H722 0.930 . S
C735 C734 1.388 . S
C735 C736 1.390 . S
C736 C735 1.390 . S
C736 C737 1.394 . S
C736 C742 1.465 . S
C737 C732 1.399 . S
C737 C736 1.394 . S
C737 C738 1.516 . S
C738 C737 1.516 . S
C738 C739 1.502 . S
C738 C740 1.561 . S
C738 C741 1.526 . S
C739 H723 0.959 . S
C739 H724 0.959 . S
C739 H725 0.961 . S
C739 C738 1.502 . S
C740 H726 0.960 . S
C740 H727 0.961 . S
C740 H728 0.959 . S
C740 C738 1.561 . S
C741 C738 1.526 . S
C741 C742 1.396 . S
C741 C746 1.390 . S
C742 C736 1.465 . S
C742 C741 1.396 . S
C742 C743 1.399 . S
C743 H729 0.929 . S
C743 C742 1.399 . S
C743 C744 1.385 . S
C744 H730 0.931 . S
C744 C743 1.385 . S
C744 C745 1.389 . S
C745 C744 1.389 . S
C745 C746 1.387 . S
C746 H731 0.930 . S
C746 C741 1.390 . S
C746 C745 1.387 . S
H747 C759 0.930 . S
H748 C761 0.930 . S
H749 C762 0.930 . S
H750 C766 0.959 . S
H751 C766 0.959 . S
H752 C766 0.961 . S
H753 C767 0.960 . S
H754 C767 0.961 . S
H755 C767 0.959 . S
H756 C770 0.929 . S
H757 C771 0.931 . S
H758 C773 0.930 . S
C759 H747 0.930 . S
C759 C760 1.399 . S
C759 C764 1.399 . S
C760 C759 1.399 . S
C760 C761 1.376 . S
C761 H748 0.930 . S
C761 C760 1.376 . S
C761 C762 1.388 . S
C762 H749 0.930 . S
C762 C761 1.388 . S
C762 C763 1.390 . S
C763 C762 1.390 . S
C763 C764 1.394 . S
C763 C769 1.465 . S
C764 C759 1.399 . S
C764 C763 1.394 . S
C764 C765 1.516 . S
C765 C764 1.516 . S
C765 C766 1.502 . S
C765 C767 1.561 . S
C765 C768 1.526 . S
C766 H750 0.959 . S
C766 H751 0.959 . S
C766 H752 0.961 . S
C766 C765 1.502 . S
C767 H753 0.960 . S
C767 H754 0.961 . S
C767 H755 0.959 . S
C767 C765 1.561 . S
C768 C765 1.526 . S
C768 C769 1.396 . S
C768 C773 1.390 . S
C769 C763 1.465 . S
C769 C768 1.396 . S
C769 C770 1.399 . S
C770 H756 0.929 . S
C770 C769 1.399 . S
C770 C771 1.385 . S
C771 H757 0.931 . S
C771 C770 1.385 . S
C771 C772 1.389 . S
C772 C771 1.389 . S
C772 C773 1.387 . S
C773 H758 0.930 . S
C773 C768 1.390 . S
C773 C772 1.387 . S
H774 C786 0.930 . S
H775 C788 0.930 . S
H776 C789 0.930 . S
H777 C793 0.959 . S
H778 C793 0.959 . S
H779 C793 0.961 . S
H780 C794 0.960 . S
H781 C794 0.961 . S
H782 C794 0.959 . S
H783 C797 0.929 . S
H784 C798 0.931 . S
H785 C800 0.930 . S
C786 H774 0.930 . S
C786 C787 1.399 . S
C786 C791 1.399 . S
C787 C786 1.399 . S
C787 C788 1.376 . S
C788 H775 0.930 . S
C788 C787 1.376 . S
C788 C789 1.388 . S
C789 H776 0.930 . S
C789 C788 1.388 . S
C789 C790 1.390 . S
C790 C789 1.390 . S
C790 C791 1.394 . S
C790 C796 1.465 . S
C791 C786 1.399 . S
C791 C790 1.394 . S
C791 C792 1.516 . S
C792 C791 1.516 . S
C792 C793 1.502 . S
C792 C794 1.561 . S
C792 C795 1.526 . S
C793 H777 0.959 . S
C793 H778 0.959 . S
C793 H779 0.961 . S
C793 C792 1.502 . S
C794 H780 0.960 . S
C794 H781 0.961 . S
C794 H782 0.959 . S
C794 C792 1.561 . S
C795 C792 1.526 . S
C795 C796 1.396 . S
C795 C800 1.390 . S
C796 C790 1.465 . S
C796 C795 1.396 . S
C796 C797 1.399 . S
C797 H783 0.929 . S
C797 C796 1.399 . S
C797 C798 1.385 . S
C798 H784 0.931 . S
C798 C797 1.385 . S
C798 C799 1.389 . S
C799 C798 1.389 . S
C799 C800 1.387 . S
C800 H785 0.930 . S
C800 C795 1.390 . S
C800 C799 1.387 . S
H801 C813 0.930 . S
H802 C815 0.930 . S
H803 C816 0.930 . S
H804 C820 0.959 . S
H805 C820 0.959 . S
H806 C820 0.961 . S
H807 C821 0.960 . S
H808 C821 0.961 . S
H809 C821 0.959 . S
H810 C824 0.929 . S
H811 C825 0.931 . S
H812 C827 0.930 . S
C813 H801 0.930 . S
C813 C814 1.399 . S
C813 C818 1.399 . S
C814 C813 1.399 . S
C814 C815 1.376 . S
C815 H802 0.930 . S
C815 C814 1.376 . S
C815 C816 1.388 . S
C816 H803 0.930 . S
C816 C815 1.388 . S
C816 C817 1.390 . S
C817 C816 1.390 . S
C817 C818 1.394 . S
C817 C823 1.465 . S
C818 C813 1.399 . S
C818 C817 1.394 . S
C818 C819 1.516 . S
C819 C818 1.516 . S
C819 C820 1.502 . S
C819 C821 1.561 . S
C819 C822 1.526 . S
C820 H804 0.959 . S
C820 H805 0.959 . S
C820 H806 0.961 . S
C820 C819 1.502 . S
C821 H807 0.960 . S
C821 H808 0.961 . S
C821 H809 0.959 . S
C821 C819 1.561 . S
C822 C819 1.526 . S
C822 C823 1.396 . S
C822 C827 1.390 . S
C823 C817 1.465 . S
C823 C822 1.396 . S
C823 C824 1.399 . S
C824 H810 0.929 . S
C824 C823 1.399 . S
C824 C825 1.385 . S
C825 H811 0.931 . S
C825 C824 1.385 . S
C825 C826 1.389 . S
C826 C825 1.389 . S
C826 C827 1.387 . S
C827 H812 0.930 . S
C827 C822 1.390 . S
C827 C826 1.387 . S
H828 C840 0.930 . S
H829 C842 0.930 . S
H830 C843 0.930 . S
H831 C847 0.959 . S
H832 C847 0.959 . S
H833 C847 0.961 . S
H834 C848 0.960 . S
H835 C848 0.961 1_554 S
H836 C848 0.959 . S
H837 C851 0.929 . S
H838 C852 0.931 . S
H839 C854 0.930 . S
C840 H828 0.930 . S
C840 C841 1.399 . S
C840 C845 1.399 . S
C841 C840 1.399 . S
C841 C842 1.376 . S
C842 H829 0.930 . S
C842 C841 1.376 . S
C842 C843 1.388 . S
C843 H830 0.930 . S
C843 C842 1.388 . S
C843 C844 1.390 . S
C844 C843 1.390 . S
C844 C845 1.394 . S
C844 C850 1.465 . S
C845 C840 1.399 . S
C845 C844 1.394 . S
C845 C846 1.516 . S
C846 C845 1.516 . S
C846 C847 1.502 1_556 S
C846 C848 1.561 . S
C846 C849 1.526 . S
C847 H831 0.959 . S
C847 H832 0.959 . S
C847 H833 0.961 . S
C847 C846 1.502 1_554 S
C848 H834 0.960 . S
C848 H835 0.961 1_556 S
C848 H836 0.959 . S
C848 C846 1.561 . S
C849 C846 1.526 . S
C849 C850 1.396 . S
C849 C854 1.390 1_556 S
C850 C844 1.465 . S
C850 C849 1.396 . S
C850 C851 1.399 . S
C851 H837 0.929 . S
C851 C850 1.399 . S
C851 C852 1.385 . S
C852 H838 0.931 . S
C852 C851 1.385 . S
C852 C853 1.389 1_556 S
C853 C852 1.389 1_554 S
C853 C854 1.387 . S
C854 H839 0.930 . S
C854 C849 1.390 1_554 S
C854 C853 1.387 . S
H855 C867 0.930 . S
H856 C869 0.930 . S
H857 C870 0.930 . S
H858 C874 0.959 . S
H859 C874 0.959 . S
H860 C874 0.961 . S
H861 C875 0.960 . S
H862 C875 0.961 1_556 S
H863 C875 0.959 . S
H864 C878 0.929 . S
H865 C879 0.931 . S
H866 C881 0.930 . S
C867 H855 0.930 . S
C867 C868 1.399 . S
C867 C872 1.399 . S
C868 C867 1.399 . S
C868 C869 1.376 . S
C869 H856 0.930 . S
C869 C868 1.376 . S
C869 C870 1.388 . S
C870 H857 0.930 . S
C870 C869 1.388 . S
C870 C871 1.390 . S
C871 C870 1.390 . S
C871 C872 1.394 . S
C871 C877 1.465 . S
C872 C867 1.399 . S
C872 C871 1.394 . S
C872 C873 1.516 . S
C873 C872 1.516 . S
C873 C874 1.502 1_554 S
C873 C875 1.561 . S
C873 C876 1.526 . S
C874 H858 0.959 . S
C874 H859 0.959 . S
C874 H860 0.961 . S
C874 C873 1.502 1_556 S
C875 H861 0.960 . S
C875 H862 0.961 1_554 S
C875 H863 0.959 . S
C875 C873 1.561 . S
C876 C873 1.526 . S
C876 C877 1.396 . S
C876 C881 1.390 1_554 S
C877 C871 1.465 . S
C877 C876 1.396 . S
C877 C878 1.399 . S
C878 H864 0.929 . S
C878 C877 1.399 . S
C878 C879 1.385 . S
C879 H865 0.931 . S
C879 C878 1.385 . S
C879 C880 1.389 1_554 S
C880 C879 1.389 1_556 S
C880 C881 1.387 . S
C881 H866 0.930 . S
C881 C876 1.390 1_556 S
C881 C880 1.387 . S
H882 C894 0.930 . S
H883 C896 0.930 . S
H884 C897 0.930 . S
H885 C901 0.959 . S
H886 C901 0.959 . S
H887 C901 0.961 . S
H888 C902 0.960 . S
H889 C902 0.961 . S
H890 C902 0.959 . S
H891 C905 0.929 . S
H892 C906 0.931 . S
H893 C908 0.930 . S
C894 H882 0.930 . S
C894 C895 1.399 . S
C894 C899 1.399 . S
C895 C894 1.399 . S
C895 C896 1.376 . S
C896 H883 0.930 . S
C896 C895 1.376 . S
C896 C897 1.388 . S
C897 H884 0.930 . S
C897 C896 1.388 . S
C897 C898 1.390 . S
C898 C897 1.390 . S
C898 C899 1.394 . S
C898 C904 1.465 . S
C899 C894 1.399 . S
C899 C898 1.394 . S
C899 C900 1.516 . S
C900 C899 1.516 . S
C900 C901 1.502 . S
C900 C902 1.561 . S
C900 C903 1.526 . S
C901 H885 0.959 . S
C901 H886 0.959 . S
C901 H887 0.961 . S
C901 C900 1.502 . S
C902 H888 0.960 . S
C902 H889 0.961 . S
C902 H890 0.959 . S
C902 C900 1.561 . S
C903 C900 1.526 . S
C903 C904 1.396 . S
C903 C908 1.390 . S
C904 C898 1.465 . S
C904 C903 1.396 . S
C904 C905 1.399 . S
C905 H891 0.929 . S
C905 C904 1.399 . S
C905 C906 1.385 . S
C906 H892 0.931 . S
C906 C905 1.385 . S
C906 C907 1.389 . S
C907 C906 1.389 . S
C907 C908 1.387 . S
C908 H893 0.930 . S
C908 C903 1.390 . S
C908 C907 1.387 . S
H909 C921 0.930 . S
H910 C923 0.930 . S
H911 C924 0.930 . S
H912 C928 0.959 . S
H913 C928 0.959 . S
H914 C928 0.961 . S
H915 C929 0.960 . S
H916 C929 0.961 . S
H917 C929 0.959 . S
H918 C932 0.929 . S
H919 C933 0.931 . S
H920 C935 0.930 . S
C921 H909 0.930 . S
C921 C922 1.399 . S
C921 C926 1.399 . S
C922 C921 1.399 . S
C922 C923 1.376 . S
C923 H910 0.930 . S
C923 C922 1.376 . S
C923 C924 1.388 . S
C924 H911 0.930 . S
C924 C923 1.388 . S
C924 C925 1.390 . S
C925 C924 1.390 . S
C925 C926 1.394 . S
C925 C931 1.465 . S
C926 C921 1.399 . S
C926 C925 1.394 . S
C926 C927 1.516 . S
C927 C926 1.516 . S
C927 C928 1.502 . S
C927 C929 1.561 . S
C927 C930 1.526 . S
C928 H912 0.959 . S
C928 H913 0.959 . S
C928 H914 0.961 . S
C928 C927 1.502 . S
C929 H915 0.960 . S
C929 H916 0.961 . S
C929 H917 0.959 . S
C929 C927 1.561 . S
C930 C927 1.526 . S
C930 C931 1.396 . S
C930 C935 1.390 . S
C931 C925 1.465 . S
C931 C930 1.396 . S
C931 C932 1.399 . S
C932 H918 0.929 . S
C932 C931 1.399 . S
C932 C933 1.385 . S
C933 H919 0.931 . S
C933 C932 1.385 . S
C933 C934 1.389 . S
C934 C933 1.389 . S
C934 C935 1.387 . S
C935 H920 0.930 . S
C935 C930 1.390 . S
C935 C934 1.387 . S
H936 C948 0.930 . S
H937 C950 0.930 . S
H938 C951 0.930 . S
H939 C955 0.959 . S
H940 C955 0.959 . S
H941 C955 0.961 . S
H942 C956 0.960 . S
H943 C956 0.961 . S
H944 C956 0.959 . S
H945 C959 0.929 . S
H946 C960 0.931 . S
H947 C962 0.930 . S
C948 H936 0.930 . S
C948 C949 1.399 . S
C948 C953 1.399 . S
C949 C948 1.399 . S
C949 C950 1.376 . S
C950 H937 0.930 . S
C950 C949 1.376 . S
C950 C951 1.388 . S
C951 H938 0.930 . S
C951 C950 1.388 . S
C951 C952 1.390 . S
C952 C951 1.390 . S
C952 C953 1.394 . S
C952 C958 1.465 . S
C953 C948 1.399 . S
C953 C952 1.394 . S
C953 C954 1.516 . S
C954 C953 1.516 . S
C954 C955 1.502 . S
C954 C956 1.561 . S
C954 C957 1.526 . S
C955 H939 0.959 . S
C955 H940 0.959 . S
C955 H941 0.961 . S
C955 C954 1.502 . S
C956 H942 0.960 . S
C956 H943 0.961 . S
C956 H944 0.959 . S
C956 C954 1.561 . S
C957 C954 1.526 . S
C957 C958 1.396 . S
C957 C962 1.390 1_556 S
C958 C952 1.465 . S
C958 C957 1.396 . S
C958 C959 1.399 . S
C959 H945 0.929 . S
C959 C958 1.399 . S
C959 C960 1.385 1_556 S
C960 H946 0.931 . S
C960 C959 1.385 1_554 S
C960 C961 1.389 . S
C961 C960 1.389 . S
C961 C962 1.387 . S
C962 H947 0.930 . S
C962 C957 1.390 1_554 S
C962 C961 1.387 . S
H963 C975 0.930 . S
H964 C977 0.930 . S
H965 C978 0.930 1_554 S
H966 C982 0.959 . S
H967 C982 0.959 . S
H968 C982 0.961 1_556 S
H969 C983 0.960 1_556 S
H970 C983 0.961 . S
H971 C983 0.959 . S
H972 C986 0.929 . S
H973 C987 0.931 . S
H974 C989 0.930 . S
C975 H963 0.930 . S
C975 C976 1.399 . S
C975 C980 1.399 . S
C976 C975 1.399 . S
C976 C977 1.376 . S
C977 H964 0.930 . S
C977 C976 1.376 . S
C977 C978 1.388 . S
C978 H965 0.930 1_556 S
C978 C977 1.388 . S
C978 C979 1.390 1_556 S
C979 C978 1.390 1_554 S
C979 C980 1.394 1_554 S
C979 C985 1.465 . S
C980 C975 1.399 . S
C980 C979 1.394 1_556 S
C980 C981 1.516 1_556 S
C981 C980 1.516 1_554 S
C981 C982 1.502 . S
C981 C983 1.561 . S
C981 C984 1.526 . S
C982 H966 0.959 . S
C982 H967 0.959 . S
C982 H968 0.961 1_554 S
C982 C981 1.502 . S
C983 H969 0.960 1_554 S
C983 H970 0.961 . S
C983 H971 0.959 . S
C983 C981 1.561 . S
C984 C981 1.526 . S
C984 C985 1.396 . S
C984 C989 1.390 . S
C985 C979 1.465 . S
C985 C984 1.396 . S
C985 C986 1.399 . S
C986 H972 0.929 . S
C986 C985 1.399 . S
C986 C987 1.385 . S
C987 H973 0.931 . S
C987 C986 1.385 . S
C987 C988 1.389 . S
C988 C987 1.389 . S
C988 C989 1.387 . S
C989 H974 0.930 . S
C989 C984 1.390 . S
C989 C988 1.387 . S
H990 C1002 0.930 . S
H991 C1004 0.930 . S
H992 C1005 0.930 . S
H993 C1009 0.959 . S
H994 C1009 0.959 . S
H995 C1009 0.961 . S
H996 C1010 0.960 . S
H997 C1010 0.961 . S
H998 C1010 0.959 . S
H999 C1013 0.929 . S
H1000 C1014 0.931 . S
H1001 C1016 0.930 . S
C1002 H990 0.930 . S
C1002 C1003 1.399 . S
C1002 C1007 1.399 . S
C1003 C1002 1.399 . S
C1003 C1004 1.376 . S
C1004 H991 0.930 . S
C1004 C1003 1.376 . S
C1004 C1005 1.388 . S
C1005 H992 0.930 . S
C1005 C1004 1.388 . S
C1005 C1006 1.390 . S
C1006 C1005 1.390 . S
C1006 C1007 1.394 . S
C1006 C1012 1.465 . S
C1007 C1002 1.399 . S
C1007 C1006 1.394 . S
C1007 C1008 1.516 . S
C1008 C1007 1.516 . S
C1008 C1009 1.502 . S
C1008 C1010 1.561 . S
C1008 C1011 1.526 . S
C1009 H993 0.959 . S
C1009 H994 0.959 . S
C1009 H995 0.961 . S
C1009 C1008 1.502 . S
C1010 H996 0.960 . S
C1010 H997 0.961 . S
C1010 H998 0.959 . S
C1010 C1008 1.561 . S
C1011 C1008 1.526 . S
C1011 C1012 1.396 . S
C1011 C1016 1.390 . S
C1012 C1006 1.465 . S
C1012 C1011 1.396 . S
C1012 C1013 1.399 . S
C1013 H999 0.929 . S
C1013 C1012 1.399 . S
C1013 C1014 1.385 . S
C1014 H1000 0.931 . S
C1014 C1013 1.385 . S
C1014 C1015 1.389 . S
C1015 C1014 1.389 . S
C1015 C1016 1.387 . S
C1016 H1001 0.930 . S
C1016 C1011 1.390 . S
C1016 C1015 1.387 . S
H1017 C1029 0.930 . S
H1018 C1031 0.930 . S
H1019 C1032 0.930 . S
H1020 C1036 0.959 . S
H1021 C1036 0.959 . S
H1022 C1036 0.961 . S
H1023 C1037 0.960 . S
H1024 C1037 0.961 . S
H1025 C1037 0.959 . S
H1026 C1040 0.929 . S
H1027 C1041 0.931 . S
H1028 C1043 0.930 . S
C1029 H1017 0.930 . S
C1029 C1030 1.399 . S
C1029 C1034 1.399 . S
C1030 C1029 1.399 . S
C1030 C1031 1.376 . S
C1031 H1018 0.930 . S
C1031 C1030 1.376 . S
C1031 C1032 1.388 . S
C1032 H1019 0.930 . S
C1032 C1031 1.388 . S
C1032 C1033 1.390 . S
C1033 C1032 1.390 . S
C1033 C1034 1.394 . S
C1033 C1039 1.465 . S
C1034 C1029 1.399 . S
C1034 C1033 1.394 . S
C1034 C1035 1.516 . S
C1035 C1034 1.516 . S
C1035 C1036 1.502 . S
C1035 C1037 1.561 . S
C1035 C1038 1.526 . S
C1036 H1020 0.959 . S
C1036 H1021 0.959 . S
C1036 H1022 0.961 . S
C1036 C1035 1.502 . S
C1037 H1023 0.960 . S
C1037 H1024 0.961 . S
C1037 H1025 0.959 . S
C1037 C1035 1.561 . S
C1038 C1035 1.526 . S
C1038 C1039 1.396 . S
C1038 C1043 1.390 . S
C1039 C1033 1.465 . S
C1039 C1038 1.396 . S
C1039 C1040 1.399 . S
C1040 H1026 0.929 . S
C1040 C1039 1.399 . S
C1040 C1041 1.385 . S
C1041 H1027 0.931 . S
C1041 C1040 1.385 . S
C1041 C1042 1.389 . S
C1042 C1041 1.389 . S
C1042 C1043 1.387 . S
C1043 H1028 0.930 . S
C1043 C1038 1.390 . S
C1043 C1042 1.387 . S
H1044 C1056 0.930 . S
H1045 C1058 0.930 . S
H1046 C1059 0.930 . S
H1047 C1063 0.959 . S
H1048 C1063 0.959 . S
H1049 C1063 0.961 . S
H1050 C1064 0.960 . S
H1051 C1064 0.961 . S
H1052 C1064 0.959 . S
H1053 C1067 0.929 . S
H1054 C1068 0.931 . S
H1055 C1070 0.930 . S
C1056 H1044 0.930 . S
C1056 C1057 1.399 . S
C1056 C1061 1.399 . S
C1057 C1056 1.399 . S
C1057 C1058 1.376 . S
C1058 H1045 0.930 . S
C1058 C1057 1.376 . S
C1058 C1059 1.388 . S
C1059 H1046 0.930 . S
C1059 C1058 1.388 . S
C1059 C1060 1.390 . S
C1060 C1059 1.390 . S
C1060 C1061 1.394 . S
C1060 C1066 1.465 . S
C1061 C1056 1.399 . S
C1061 C1060 1.394 . S
C1061 C1062 1.516 . S
C1062 C1061 1.516 . S
C1062 C1063 1.502 . S
C1062 C1064 1.561 . S
C1062 C1065 1.526 . S
C1063 H1047 0.959 . S
C1063 H1048 0.959 . S
C1063 H1049 0.961 . S
C1063 C1062 1.502 . S
C1064 H1050 0.960 . S
C1064 H1051 0.961 . S
C1064 H1052 0.959 . S
C1064 C1062 1.561 . S
C1065 C1062 1.526 . S
C1065 C1066 1.396 . S
C1065 C1070 1.390 . S
C1066 C1060 1.465 . S
C1066 C1065 1.396 . S
C1066 C1067 1.399 . S
C1067 H1053 0.929 . S
C1067 C1066 1.399 . S
C1067 C1068 1.385 . S
C1068 H1054 0.931 . S
C1068 C1067 1.385 . S
C1068 C1069 1.389 . S
C1069 C1068 1.389 . S
C1069 C1070 1.387 . S
C1070 H1055 0.930 . S
C1070 C1065 1.390 . S
C1070 C1069 1.387 . S
H1071 C1083 0.930 . S
H1072 C1085 0.930 . S
H1073 C1086 0.930 . S
H1074 C1090 0.959 . S
H1075 C1090 0.959 . S
H1076 C1090 0.961 . S
H1077 C1091 0.960 . S
H1078 C1091 0.961 . S
H1079 C1091 0.959 . S
H1080 C1094 0.929 . S
H1081 C1095 0.931 . S
H1082 C1097 0.930 . S
C1083 H1071 0.930 . S
C1083 C1084 1.399 . S
C1083 C1088 1.399 . S
C1084 C1083 1.399 . S
C1084 C1085 1.376 . S
C1085 H1072 0.930 . S
C1085 C1084 1.376 . S
C1085 C1086 1.388 . S
C1086 H1073 0.930 . S
C1086 C1085 1.388 . S
C1086 C1087 1.390 . S
C1087 C1086 1.390 . S
C1087 C1088 1.394 . S
C1087 C1093 1.465 . S
C1088 C1083 1.399 . S
C1088 C1087 1.394 . S
C1088 C1089 1.516 . S
C1089 C1088 1.516 . S
C1089 C1090 1.502 . S
C1089 C1091 1.561 . S
C1089 C1092 1.526 . S
C1090 H1074 0.959 . S
C1090 H1075 0.959 . S
C1090 H1076 0.961 . S
C1090 C1089 1.502 . S
C1091 H1077 0.960 . S
C1091 H1078 0.961 . S
C1091 H1079 0.959 . S
C1091 C1089 1.561 . S
C1092 C1089 1.526 . S
C1092 C1093 1.396 . S
C1092 C1097 1.390 . S
C1093 C1087 1.465 . S
C1093 C1092 1.396 . S
C1093 C1094 1.399 . S
C1094 H1080 0.929 . S
C1094 C1093 1.399 . S
C1094 C1095 1.385 . S
C1095 H1081 0.931 . S
C1095 C1094 1.385 . S
C1095 C1096 1.389 . S
C1096 C1095 1.389 . S
C1096 C1097 1.387 . S
C1097 H1082 0.930 . S
C1097 C1092 1.390 . S
C1097 C1096 1.387 . S
H1098 C1110 0.930 . S
H1099 C1112 0.930 . S
H1100 C1113 0.930 . S
H1101 C1117 0.959 . S
H1102 C1117 0.959 . S
H1103 C1117 0.961 . S
H1104 C1118 0.960 . S
H1105 C1118 0.961 . S
H1106 C1118 0.959 . S
H1107 C1121 0.929 . S
H1108 C1122 0.931 . S
H1109 C1124 0.930 . S
C1110 H1098 0.930 . S
C1110 C1111 1.399 . S
C1110 C1115 1.399 . S
C1111 C1110 1.399 . S
C1111 C1112 1.376 . S
C1112 H1099 0.930 . S
C1112 C1111 1.376 . S
C1112 C1113 1.388 . S
C1113 H1100 0.930 . S
C1113 C1112 1.388 . S
C1113 C1114 1.390 . S
C1114 C1113 1.390 . S
C1114 C1115 1.394 . S
C1114 C1120 1.465 . S
C1115 C1110 1.399 . S
C1115 C1114 1.394 . S
C1115 C1116 1.516 . S
C1116 C1115 1.516 . S
C1116 C1117 1.502 . S
C1116 C1118 1.561 . S
C1116 C1119 1.526 . S
C1117 H1101 0.959 . S
C1117 H1102 0.959 . S
C1117 H1103 0.961 . S
C1117 C1116 1.502 . S
C1118 H1104 0.960 . S
C1118 H1105 0.961 . S
C1118 H1106 0.959 . S
C1118 C1116 1.561 . S
C1119 C1116 1.526 . S
C1119 C1120 1.396 . S
C1119 C1124 1.390 . S
C1120 C1114 1.465 . S
C1120 C1119 1.396 . S
C1120 C1121 1.399 . S
C1121 H1107 0.929 . S
C1121 C1120 1.399 . S
C1121 C1122 1.385 . S
C1122 H1108 0.931 . S
C1122 C1121 1.385 . S
C1122 C1123 1.389 . S
C1123 C1122 1.389 . S
C1123 C1124 1.387 . S
C1124 H1109 0.930 . S
C1124 C1119 1.390 . S
C1124 C1123 1.387 . S
H1125 C1137 0.930 . S
H1126 C1139 0.930 . S
H1127 C1140 0.930 . S
H1128 C1144 0.959 . S
H1129 C1144 0.959 . S
H1130 C1144 0.961 . S
H1131 C1145 0.960 . S
H1132 C1145 0.961 . S
H1133 C1145 0.959 . S
H1134 C1148 0.929 . S
H1135 C1149 0.931 1_554 S
H1136 C1151 0.930 . S
C1137 H1125 0.930 . S
C1137 C1138 1.399 . S
C1137 C1142 1.399 . S
C1138 C1137 1.399 . S
C1138 C1139 1.376 . S
C1139 H1126 0.930 . S
C1139 C1138 1.376 . S
C1139 C1140 1.388 . S
C1140 H1127 0.930 . S
C1140 C1139 1.388 . S
C1140 C1141 1.390 . S
C1141 C1140 1.390 . S
C1141 C1142 1.394 . S
C1141 C1147 1.465 . S
C1142 C1137 1.399 . S
C1142 C1141 1.394 . S
C1142 C1143 1.516 . S
C1143 C1142 1.516 . S
C1143 C1144 1.502 . S
C1143 C1145 1.561 . S
C1143 C1146 1.526 . S
C1144 H1128 0.959 . S
C1144 H1129 0.959 . S
C1144 H1130 0.961 . S
C1144 C1143 1.502 . S
C1145 H1131 0.960 . S
C1145 H1132 0.961 . S
C1145 H1133 0.959 . S
C1145 C1143 1.561 . S
C1146 C1143 1.526 . S
C1146 C1147 1.396 . S
C1146 C1151 1.390 . S
C1147 C1141 1.465 . S
C1147 C1146 1.396 . S
C1147 C1148 1.399 . S
C1148 H1134 0.929 . S
C1148 C1147 1.399 . S
C1148 C1149 1.385 . S
C1149 H1135 0.931 1_556 S
C1149 C1148 1.385 . S
C1149 C1150 1.389 . S
C1150 C1149 1.389 . S
C1150 C1151 1.387 . S
C1151 H1136 0.930 . S
C1151 C1146 1.390 . S
C1151 C1150 1.387 . S
H1152 C1164 0.930 . S
H1153 C1166 0.930 . S
H1154 C1167 0.930 . S
H1155 C1171 0.959 . S
H1156 C1171 0.959 . S
H1157 C1171 0.961 . S
H1158 C1172 0.960 . S
H1159 C1172 0.961 1_554 S
H1160 C1172 0.959 . S
H1161 C1175 0.929 . S
H1162 C1176 0.931 . S
H1163 C1178 0.930 . S
C1164 H1152 0.930 . S
C1164 C1165 1.399 . S
C1164 C1169 1.399 . S
C1165 C1164 1.399 . S
C1165 C1166 1.376 . S
C1166 H1153 0.930 . S
C1166 C1165 1.376 . S
C1166 C1167 1.388 . S
C1167 H1154 0.930 . S
C1167 C1166 1.388 . S
C1167 C1168 1.390 . S
C1168 C1167 1.390 . S
C1168 C1169 1.394 . S
C1168 C1174 1.465 . S
C1169 C1164 1.399 . S
C1169 C1168 1.394 . S
C1169 C1170 1.516 . S
C1170 C1169 1.516 . S
C1170 C1171 1.502 . S
C1170 C1172 1.561 . S
C1170 C1173 1.526 1_556 S
C1171 H1155 0.959 . S
C1171 H1156 0.959 . S
C1171 H1157 0.961 . S
C1171 C1170 1.502 . S
C1172 H1158 0.960 . S
C1172 H1159 0.961 1_556 S
C1172 H1160 0.959 . S
C1172 C1170 1.561 . S
C1173 C1170 1.526 1_554 S
C1173 C1174 1.396 1_554 S
C1173 C1178 1.390 . S
C1174 C1168 1.465 . S
C1174 C1173 1.396 1_556 S
C1174 C1175 1.399 1_556 S
C1175 H1161 0.929 . S
C1175 C1174 1.399 1_554 S
C1175 C1176 1.385 . S
C1176 H1162 0.931 . S
C1176 C1175 1.385 . S
C1176 C1177 1.389 . S
C1177 C1176 1.389 . S
C1177 C1178 1.387 . S
C1178 H1163 0.930 . S
C1178 C1173 1.390 . S
C1178 C1177 1.387 . S
H1179 C1191 0.930 . S
H1180 C1193 0.930 . S
H1181 C1194 0.930 . S
H1182 C1198 0.959 . S
H1183 C1198 0.959 . S
H1184 C1198 0.961 . S
H1185 C1199 0.960 . S
H1186 C1199 0.961 . S
H1187 C1199 0.959 . S
H1188 C1202 0.929 . S
H1189 C1203 0.931 . S
H1190 C1205 0.930 . S
C1191 H1179 0.930 . S
C1191 C1192 1.399 . S
C1191 C1196 1.399 . S
C1192 C1191 1.399 . S
C1192 C1193 1.376 . S
C1193 H1180 0.930 . S
C1193 C1192 1.376 . S
C1193 C1194 1.388 . S
C1194 H1181 0.930 . S
C1194 C1193 1.388 . S
C1194 C1195 1.390 . S
C1195 C1194 1.390 . S
C1195 C1196 1.394 . S
C1195 C1201 1.465 . S
C1196 C1191 1.399 . S
C1196 C1195 1.394 . S
C1196 C1197 1.516 . S
C1197 C1196 1.516 . S
C1197 C1198 1.502 . S
C1197 C1199 1.561 . S
C1197 C1200 1.526 . S
C1198 H1182 0.959 . S
C1198 H1183 0.959 . S
C1198 H1184 0.961 . S
C1198 C1197 1.502 . S
C1199 H1185 0.960 . S
C1199 H1186 0.961 . S
C1199 H1187 0.959 . S
C1199 C1197 1.561 . S
C1200 C1197 1.526 . S
C1200 C1201 1.396 . S
C1200 C1205 1.390 1_554 S
C1201 C1195 1.465 . S
C1201 C1200 1.396 . S
C1201 C1202 1.399 . S
C1202 H1188 0.929 . S
C1202 C1201 1.399 . S
C1202 C1203 1.385 1_554 S
C1203 H1189 0.931 . S
C1203 C1202 1.385 1_556 S
C1203 C1204 1.389 . S
C1204 C1203 1.389 . S
C1204 C1205 1.387 . S
C1205 H1190 0.930 . S
C1205 C1200 1.390 1_556 S
C1205 C1204 1.387 . S
C409 C281 1.607 . S
C421 C17 1.622 . S
C436 C314 1.626 . S
C448 C50 1.624 . S
C463 C347 1.627 . S
C475 C83 1.613 . S
C490 C380 1.627 . S
C502 C116 1.620 . S
C517 C149 1.613 . S
C529 C215 1.607 . S
C544 C248 1.627 . S
C556 C182 1.618 . S
C571 C8 1.116 . S
C583 C371 1.171 . S
C598 C206 1.122 . S
C610 C41 1.192 . S
C625 C74 1.138 . S
C637 C239 1.207 . S
C652 C107 1.176 . S
C664 C272 1.211 . S
C679 C305 1.214 . S
C691 C140 1.160 . S
C706 C173 1.130 . S
C718 C338 1.136 . S
C733 C28 1.368 . S
C745 C358 1.358 . S
C760 C61 1.382 . S
C772 C391 1.335 . S
C787 C226 1.382 . S
C799 C94 1.336 . S
C814 C259 1.354 . S
C826 C127 1.351 . S
C841 C160 1.379 . S
C853 C292 1.333 . S
C868 C325 1.381 . S
C880 C193 1.334 . S
C895 N5 1.056 . S
C907 N14 1.070 . S
C922 N47 1.074 . S
C934 N38 1.053 . S
C949 N71 1.070 . S
C961 N80 1.046 . S
C976 N104 1.054 . S
C988 N113 1.072 . S
C1003 N146 1.045 . S
C1015 N137 1.070 1_554 S
C1030 N179 1.056 . S
C1042 N170 1.060 . S
C1057 N212 1.074 . S
C1069 N203 1.053 . S
C1084 N245 1.048 . S
C1096 N236 1.069 . S
C1111 N278 1.046 . S
C1123 N269 1.069 . S
C1138 N311 1.045 . S
C1150 N302 1.068 1_556 S
C1165 N344 1.070 . S
C1177 N335 1.053 . S
C1192 N368 1.052 . S
C1204 N377 1.071 . S
