# Generated by pormake.
# Topology uoy, (4)-cn, num edge types: 1
# Building blocks:
#     Node 0, Type 0, BuildingBlock: AZAVOO_clean_sbu_0, # of connection points: 4
#     Node 1, Type 0, BuildingBlock: AZAVOO_clean_sbu_0, # of connection points: 4
#     Node 2, Type 0, BuildingBlock: AZAVOO_clean_sbu_0, # of connection points: 4
#     Node 3, Type 0, BuildingBlock: AZAVOO_clean_sbu_0, # of connection points: 4
#     Node 4, Type 0, BuildingBlock: AZAVOO_clean_sbu_0, # of connection points: 4
#     Node 5, Type 0, BuildingBlock: AZAVOO_clean_sbu_0, # of connection points: 4
#     Node 6, Type 0, BuildingBlock: AZAVOO_clean_sbu_0, # of connection points: 4
#     Node 7, Type 0, BuildingBlock: AZAVOO_clean_sbu_0, # of connection points: 4
#     Node 8, Type 0, BuildingBlock: AZAVOO_clean_sbu_0, # of connection points: 4
#     Node 9, Type 0, BuildingBlock: AZAVOO_clean_sbu_0, # of connection points: 4
#     Node 10, Type 0, BuildingBlock: AZAVOO_clean_sbu_0, # of connection points: 4
#     Node 11, Type 0, BuildingBlock: AZAVOO_clean_sbu_0, # of connection points: 4
#     Node 12, Type 0, BuildingBlock: AZAVOO_clean_sbu_0, # of connection points: 4
#     Node 13, Type 0, BuildingBlock: AZAVOO_clean_sbu_0, # of connection points: 4
#     Node 14, Type 0, BuildingBlock: AZAVOO_clean_sbu_0, # of connection points: 4
#     Node 15, Type 0, BuildingBlock: AZAVOO_clean_sbu_0, # of connection points: 4
#     Edge 16, Type (0, 0), BuildingBlock: UVAHIK_clean_linker_0, # of connection points: 2
#     Edge 17, Type (0, 0), BuildingBlock: UVAHIK_clean_linker_0, # of connection points: 2
#     Edge 18, Type (0, 0), BuildingBlock: UVAHIK_clean_linker_0, # of connection points: 2
#     Edge 19, Type (0, 0), BuildingBlock: UVAHIK_clean_linker_0, # of connection points: 2
#     Edge 20, Type (0, 0), BuildingBlock: UVAHIK_clean_linker_0, # of connection points: 2
#     Edge 21, Type (0, 0), BuildingBlock: UVAHIK_clean_linker_0, # of connection points: 2
#     Edge 22, Type (0, 0), BuildingBlock: UVAHIK_clean_linker_0, # of connection points: 2
#     Edge 23, Type (0, 0), BuildingBlock: UVAHIK_clean_linker_0, # of connection points: 2
#     Edge 24, Type (0, 0), BuildingBlock: UVAHIK_clean_linker_0, # of connection points: 2
#     Edge 25, Type (0, 0), BuildingBlock: UVAHIK_clean_linker_0, # of connection points: 2
#     Edge 26, Type (0, 0), BuildingBlock: UVAHIK_clean_linker_0, # of connection points: 2
#     Edge 27, Type (0, 0), BuildingBlock: UVAHIK_clean_linker_0, # of connection points: 2
#     Edge 28, Type (0, 0), BuildingBlock: UVAHIK_clean_linker_0, # of connection points: 2
#     Edge 29, Type (0, 0), BuildingBlock: UVAHIK_clean_linker_0, # of connection points: 2
#     Edge 30, Type (0, 0), BuildingBlock: UVAHIK_clean_linker_0, # of connection points: 2
#     Edge 31, Type (0, 0), BuildingBlock: UVAHIK_clean_linker_0, # of connection points: 2
#     Edge 32, Type (0, 0), BuildingBlock: UVAHIK_clean_linker_0, # of connection points: 2
#     Edge 33, Type (0, 0), BuildingBlock: UVAHIK_clean_linker_0, # of connection points: 2
#     Edge 34, Type (0, 0), BuildingBlock: UVAHIK_clean_linker_0, # of connection points: 2
#     Edge 35, Type (0, 0), BuildingBlock: UVAHIK_clean_linker_0, # of connection points: 2
#     Edge 36, Type (0, 0), BuildingBlock: UVAHIK_clean_linker_0, # of connection points: 2
#     Edge 37, Type (0, 0), BuildingBlock: UVAHIK_clean_linker_0, # of connection points: 2
#     Edge 38, Type (0, 0), BuildingBlock: UVAHIK_clean_linker_0, # of connection points: 2
#     Edge 39, Type (0, 0), BuildingBlock: UVAHIK_clean_linker_0, # of connection points: 2
#     Edge 40, Type (0, 0), BuildingBlock: UVAHIK_clean_linker_0, # of connection points: 2
#     Edge 41, Type (0, 0), BuildingBlock: UVAHIK_clean_linker_0, # of connection points: 2
#     Edge 42, Type (0, 0), BuildingBlock: UVAHIK_clean_linker_0, # of connection points: 2
#     Edge 43, Type (0, 0), BuildingBlock: UVAHIK_clean_linker_0, # of connection points: 2
#     Edge 44, Type (0, 0), BuildingBlock: UVAHIK_clean_linker_0, # of connection points: 2
#     Edge 45, Type (0, 0), BuildingBlock: UVAHIK_clean_linker_0, # of connection points: 2
#     Edge 46, Type (0, 0), BuildingBlock: UVAHIK_clean_linker_0, # of connection points: 2
#     Edge 47, Type (0, 0), BuildingBlock: UVAHIK_clean_linker_0, # of connection points: 2
# Relax obj value: 0.168
# Max RMSD: 0.197
# Mean RMSD: 0.197
data_MOF--net-uoy--node1-AZAVOO_clean_sbu_0--edge1-UVAHIK_clean_linker_0
_symmetry_space_group_name_H-M    P1
_symmetry_Int_Tables_number       1
_symmetry_cell_setting            triclinic
loop_
_symmetry_equiv_pos_as_xyz
'x, y, z'
_cell_length_a     33.986751
_cell_length_b     33.917371
_cell_length_c     140.04478
_cell_angle_alpha  89.998055
_cell_angle_beta   89.915985
_cell_angle_gamma 89.968787
loop_
_atom_site_label
_atom_site_type_symbol
_atom_site_fract_x
_atom_site_fract_y
_atom_site_fract_z
_atom_type_partial_charge
Mg0 Mg 0.26942 0.10613 0.16592 0.0
O1 O 0.32264 0.06458 0.16467 0.0
O2 O 0.32001 0.03654 0.15026 0.0
Mg3 Mg 0.26635 0.06056 0.14229 0.0
C4 C 0.33667 0.04135 0.15835 0.0
C5 C 0.2516 0.12583 0.18699 0.0
O6 O 0.21783 0.13457 0.18295 0.0
O7 O 0.22694 0.05465 0.16781 0.0
O8 O 0.22314 0.03188 0.15288 0.0
O9 O 0.30432 0.15564 0.15976 0.0
O10 O 0.26911 0.11394 0.15118 0.0
C11 C 0.21203 0.03149 0.1616 0.0
C12 C 0.29297 0.1434 0.15145 0.0
O13 O 0.27907 0.11163 0.18188 0.0
Mg14 Mg 0.80144 0.71561 0.43376 0.0
O15 O 0.8447 0.75899 0.42688 0.0
O16 O 0.83513 0.75793 0.41111 0.0
Mg17 Mg 0.78819 0.71117 0.40796 0.0
C18 C 0.85242 0.77163 0.41849 0.0
C19 C 0.8389 0.69115 0.4531 0.0
O20 O 0.82668 0.65653 0.45012 0.0
O21 O 0.83863 0.66301 0.42925 0.0
O22 O 0.82758 0.66078 0.41355 0.0
O23 O 0.75779 0.7646 0.43407 0.0
O24 O 0.7634 0.72122 0.42229 0.0
C25 C 0.84344 0.64684 0.42111 0.0
C26 C 0.74777 0.75301 0.42561 0.0
O27 O 0.83401 0.72109 0.44778 0.0
Mg28 Mg 0.23115 0.33844 0.68176 0.0
O29 O 0.18347 0.38603 0.68025 0.0
O30 O 0.19435 0.41908 0.66672 0.0
Mg31 Mg 0.25029 0.39448 0.65991 0.0
C32 C 0.17401 0.41262 0.67423 0.0
C33 C 0.20386 0.29364 0.69986 0.0
O34 O 0.20925 0.26424 0.69389 0.0
O35 O 0.27715 0.38374 0.68631 0.0
O36 O 0.28817 0.41529 0.67253 0.0
O37 O 0.19463 0.2973 0.67299 0.0
O38 O 0.23946 0.33753 0.66702 0.0
C39 C 0.29529 0.40977 0.68139 0.0
C40 C 0.21217 0.31192 0.66558 0.0
O41 O 0.21119 0.32853 0.69708 0.0
Mg42 Mg 0.76131 0.78848 0.93627 0.0
O43 O 0.71278 0.74958 0.92963 0.0
O44 O 0.72277 0.74935 0.91385 0.0
Mg45 Mg 0.77352 0.79109 0.91042 0.0
C46 C 0.70424 0.73738 0.92124 0.0
C47 C 0.72916 0.81964 0.95555 0.0
O48 O 0.74655 0.85147 0.95227 0.0
O49 O 0.73004 0.84492 0.93176 0.0
O50 O 0.73942 0.84522 0.916 0.0
O51 O 0.7973 0.73395 0.9366 0.0
O52 O 0.79746 0.77666 0.92461 0.0
C53 C 0.72582 0.86104 0.9236 0.0
C54 C 0.80639 0.74215 0.92784 0.0
O55 O 0.72917 0.78858 0.95048 0.0
Mg56 Mg 0.22495 0.36326 0.0477 0.0
O57 O 0.27587 0.40677 0.04963 0.0
O58 O 0.26892 0.43669 0.06374 0.0
Mg59 Mg 0.21365 0.41215 0.07087 0.0
C60 C 0.28766 0.43118 0.05595 0.0
C61 C 0.24782 0.32307 0.02881 0.0
O62 O 0.24112 0.29262 0.03438 0.0
O63 O 0.18151 0.41315 0.04468 0.0
O64 O 0.17461 0.43932 0.05923 0.0
O65 O 0.26073 0.31679 0.05473 0.0
O66 O 0.22122 0.35747 0.06254 0.0
C67 C 0.16573 0.438 0.05037 0.0
C68 C 0.24758 0.33011 0.06278 0.0
O69 O 0.24174 0.35753 0.03205 0.0
Mg70 Mg 0.67307 0.77646 0.31904 0.0
O71 O 0.62695 0.8226 0.31503 0.0
O72 O 0.57475 0.81636 0.32459 0.0
Mg73 Mg 0.58717 0.76434 0.33452 0.0
C74 C 0.5929 0.83363 0.31778 0.0
C75 C 0.71341 0.82531 0.30298 0.0
O76 O 0.70424 0.85397 0.30889 0.0
O77 O 0.6376 0.72801 0.31179 0.0
O78 O 0.58669 0.72146 0.32178 0.0
O79 O 0.6975 0.81831 0.32977 0.0
O80 O 0.65092 0.77459 0.33286 0.0
C81 C 0.6055 0.71133 0.31426 0.0
C82 C 0.67213 0.80375 0.33571 0.0
O83 O 0.70527 0.78996 0.30524 0.0
Mg84 Mg 0.25831 0.15964 0.55456 0.0
O85 O 0.20888 0.11384 0.55494 0.0
O86 O 0.21514 0.07735 0.56811 0.0
Mg87 Mg 0.26947 0.09941 0.57608 0.0
C88 C 0.19708 0.08621 0.56042 0.0
C89 C 0.20814 0.18115 0.53687 0.0
O90 O 0.18152 0.18315 0.54366 0.0
O91 O 0.30327 0.113 0.55025 0.0
O92 O 0.30978 0.07897 0.56382 0.0
O93 O 0.22044 0.20048 0.56299 0.0
O94 O 0.26192 0.15788 0.56942 0.0
C95 C 0.31914 0.08543 0.55512 0.0
C96 C 0.23461 0.18382 0.57056 0.0
O97 O 0.24337 0.17235 0.53905 0.0
Mg98 Mg 0.77139 0.7497 0.82827 0.0
O99 O 0.8246 0.70865 0.82997 0.0
O100 O 0.84454 0.7117 0.84513 0.0
Mg101 Mg 0.80756 0.75886 0.85267 0.0
C102 C 0.84701 0.69721 0.83673 0.0
C103 C 0.74185 0.73585 0.80807 0.0
O104 O 0.70927 0.73697 0.81313 0.0
O105 O 0.81092 0.80426 0.82758 0.0
O106 O 0.83057 0.80787 0.84276 0.0
O107 O 0.73477 0.69928 0.83335 0.0
O108 O 0.75923 0.74565 0.84278 0.0
C109 C 0.83023 0.82126 0.83422 0.0
C110 C 0.74137 0.71241 0.84187 0.0
O111 O 0.77451 0.74106 0.81227 0.0
Mg112 Mg 0.72769 0.65553 0.68618 0.0
O113 O 0.77865 0.61188 0.68376 0.0
O114 O 0.77185 0.58798 0.66898 0.0
Mg115 Mg 0.71654 0.61427 0.66228 0.0
C116 C 0.79052 0.5902 0.67687 0.0
C117 C 0.71046 0.66123 0.70751 0.0
O118 O 0.67532 0.6646 0.70369 0.0
O119 O 0.68377 0.60576 0.68807 0.0
O120 O 0.6759 0.58341 0.67321 0.0
O121 O 0.7644 0.70362 0.6801 0.0
O122 O 0.7243 0.66607 0.67162 0.0
C123 C 0.66722 0.58283 0.68209 0.0
C124 C 0.75074 0.6933 0.67184 0.0
O125 O 0.73998 0.6565 0.70206 0.0
Mg126 Mg 0.4567 0.28954 0.91772 0.0
O127 O 0.49542 0.34497 0.91627 0.0
O128 O 0.52014 0.34413 0.90148 0.0
Mg129 Mg 0.497 0.28995 0.89353 0.0
C130 C 0.5165 0.36027 0.90968 0.0
C131 C 0.4427 0.26737 0.9387 0.0
O132 O 0.43863 0.23323 0.93438 0.0
O133 O 0.51034 0.24934 0.91875 0.0
O134 O 0.53003 0.24721 0.90354 0.0
O135 O 0.40458 0.32257 0.91244 0.0
O136 O 0.44562 0.28999 0.90308 0.0
C137 C 0.53278 0.23574 0.91221 0.0
C138 C 0.41519 0.31243 0.90391 0.0
O139 O 0.45292 0.29719 0.9338 0.0
Mg140 Mg 0.76892 0.79843 0.18513 0.0
O141 O 0.72384 0.84095 0.17856 0.0
O142 O 0.72626 0.8334 0.16273 0.0
Mg143 Mg 0.77486 0.78884 0.15921 0.0
C144 C 0.71141 0.8492 0.17019 0.0
C145 C 0.79326 0.83416 0.2045 0.0
O146 O 0.82758 0.82385 0.20096 0.0
O147 O 0.81988 0.83867 0.18097 0.0
O148 O 0.82309 0.82958 0.1652 0.0
O149 O 0.72208 0.7521 0.18485 0.0
O150 O 0.76567 0.76198 0.17331 0.0
C151 C 0.83605 0.84514 0.17289 0.0
C152 C 0.73485 0.74395 0.17636 0.0
O153 O 0.76248 0.82852 0.19954 0.0
Mg154 Mg 0.10745 0.21552 0.41645 0.0
O155 O 0.06826 0.16068 0.41467 0.0
O156 O 0.04403 0.1624 0.39984 0.0
Mg157 Mg 0.06858 0.21646 0.39208 0.0
C158 C 0.04719 0.14592 0.40801 0.0
C159 C 0.11597 0.2376 0.43765 0.0
O160 O 0.12184 0.27173 0.43344 0.0
O161 O 0.0541 0.25614 0.41729 0.0
O162 O 0.03538 0.25914 0.40202 0.0
O163 O 0.16012 0.18239 0.41111 0.0
O164 O 0.11864 0.21535 0.40194 0.0
C165 C 0.03223 0.27025 0.41072 0.0
C166 C 0.14884 0.19271 0.40264 0.0
O167 O 0.10829 0.20763 0.43254 0.0
Mg168 Mg 0.75038 0.85418 0.56353 0.0
O169 O 0.79899 0.89998 0.56163 0.0
O170 O 0.79289 0.94607 0.5729 0.0
Mg171 Mg 0.73895 0.92987 0.58189 0.0
C172 C 0.8107 0.93152 0.56568 0.0
C173 C 0.80109 0.8181 0.54758 0.0
O174 O 0.82717 0.82285 0.5544 0.0
O175 O 0.70497 0.89588 0.55721 0.0
O176 O 0.69795 0.93984 0.56898 0.0
O177 O 0.78891 0.82114 0.57339 0.0
O178 O 0.74699 0.86727 0.57806 0.0
C179 C 0.68865 0.9265 0.56074 0.0
C180 C 0.77468 0.84279 0.58018 0.0
O181 O 0.76573 0.82882 0.54904 0.0
Mg182 Mg 0.09077 0.25288 0.81786 0.0
O183 O 0.05198 0.30636 0.82182 0.0
O184 O 0.04382 0.30394 0.83765 0.0
Mg185 Mg 0.07651 0.25072 0.84374 0.0
C186 C 0.03801 0.32051 0.82959 0.0
C187 C 0.08184 0.23082 0.79667 0.0
O188 O 0.08952 0.19641 0.80056 0.0
O189 O 0.03966 0.20985 0.8199 0.0
O190 O 0.03642 0.20698 0.8358 0.0
O191 O 0.14473 0.28906 0.81996 0.0
O192 O 0.11632 0.25443 0.83141 0.0
C193 C 0.02529 0.19531 0.82756 0.0
C194 C 0.14325 0.27904 0.82886 0.0
O195 O 0.07773 0.26064 0.80207 0.0
Mg196 Mg 0.73202 0.66078 0.06779 0.0
O197 O 0.68511 0.61468 0.06451 0.0
O198 O 0.69191 0.56368 0.07442 0.0
Mg199 Mg 0.74499 0.57719 0.08393 0.0
C200 C 0.67409 0.5811 0.0676 0.0
C201 C 0.71422 0.72747 0.05281 0.0
O202 O 0.72059 0.7504 0.06021 0.0
O203 O 0.77934 0.62366 0.06059 0.0
O204 O 0.7869 0.57425 0.07098 0.0
O205 O 0.69141 0.6874 0.07848 0.0
O206 O 0.73505 0.64099 0.08182 0.0
C207 C 0.79628 0.59188 0.06323 0.0
C208 C 0.70622 0.66289 0.0846 0.0
O209 O 0.71719 0.69035 0.05376 0.0
Mg210 Mg 0.37321 0.28264 0.30058 0.0
O211 O 0.41668 0.23116 0.30167 0.0
O212 O 0.44608 0.23453 0.3159 0.0
Mg213 Mg 0.42125 0.28768 0.32388 0.0
C214 C 0.44098 0.21786 0.30782 0.0
C215 C 0.33293 0.27281 0.28121 0.0
O216 O 0.30359 0.28348 0.28676 0.0
O217 O 0.42307 0.32638 0.29828 0.0
O218 O 0.44903 0.32994 0.3129 0.0
O219 O 0.32704 0.24481 0.3069 0.0
O220 O 0.36674 0.28256 0.31543 0.0
C221 C 0.44783 0.34082 0.30417 0.0
C222 C 0.33958 0.25599 0.31519 0.0
O223 O 0.36734 0.27102 0.28471 0.0
C224 C 0.27593 0.27588 0.07259 0.0
C225 C 0.26335 0.31515 0.07188 0.0
C226 C 0.28876 0.26074 0.08132 0.0
C227 C 0.28075 0.28065 0.10728 0.0
H228 H 0.35435 0.19347 0.10886 0.0
C229 C 0.30243 0.14496 0.13376 0.0
C230 C 0.30477 0.16404 0.14264 0.0
C231 C 0.3078 0.1661 0.12531 0.0
C232 C 0.33402 0.21804 0.10851 0.0
H233 H 0.25707 0.37021 0.07956 0.0
H234 H 0.28062 0.34445 0.0947 0.0
H235 H 0.34434 0.22689 0.0936 0.0
H236 H 0.31662 0.21972 0.14968 0.0
H237 H 0.32501 0.25696 0.13484 0.0
H238 H 0.27048 0.27158 0.12219 0.0
C239 C 0.27905 0.32469 0.08864 0.0
C240 C 0.32797 0.23699 0.09977 0.0
C241 C 0.2655 0.33955 0.07995 0.0
C242 C 0.31467 0.20424 0.14293 0.0
C243 C 0.31933 0.22557 0.13446 0.0
C244 C 0.28732 0.26215 0.11603 0.0
C245 C 0.29006 0.28484 0.08951 0.0
C246 C 0.30041 0.26784 0.09898 0.0
C247 C 0.315 0.20682 0.12558 0.0
C248 C 0.31324 0.23006 0.11667 0.0
H249 H 0.27456 0.25643 0.06646 0.0
H250 H 0.29634 0.22978 0.0817 0.0
H251 H 0.25881 0.30376 0.10697 0.0
H252 H 0.29528 0.11399 0.1333 0.0
H253 H 0.30407 0.15101 0.11855 0.0
C254 C 0.7334 0.81838 0.41826 0.0
C255 C 0.72456 0.77814 0.41922 0.0
C256 C 0.71764 0.84 0.41065 0.0
C257 C 0.64435 0.83841 0.39119 0.0
H258 H 0.73227 0.86234 0.37451 0.0
C259 C 0.64324 0.80013 0.35205 0.0
C260 C 0.66751 0.81969 0.34547 0.0
C261 C 0.64207 0.81198 0.36157 0.0
C262 C 0.70706 0.85721 0.37908 0.0
H263 H 0.69048 0.72954 0.41363 0.0
H264 H 0.66185 0.76745 0.40058 0.0
H265 H 0.74345 0.85372 0.3915 0.0
H266 H 0.70765 0.86873 0.34355 0.0
H267 H 0.7054 0.88976 0.36024 0.0
H268 H 0.6082 0.83992 0.37871 0.0
C269 C 0.68095 0.78239 0.4056 0.0
C270 C 0.71355 0.85225 0.38885 0.0
C271 C 0.69746 0.76062 0.41302 0.0
C272 C 0.68894 0.85283 0.34849 0.0
C273 C 0.68767 0.86484 0.35805 0.0
C274 C 0.63773 0.84394 0.38144 0.0
C275 C 0.6921 0.82179 0.40412 0.0
C276 C 0.68268 0.84041 0.39486 0.0
C277 C 0.66506 0.84382 0.36476 0.0
C278 C 0.66947 0.85075 0.37519 0.0
H279 H 0.75471 0.83225 0.42292 0.0
H280 H 0.7269 0.87024 0.40959 0.0
H281 H 0.62002 0.82967 0.39573 0.0
H282 H 0.62646 0.7744 0.34998 0.0
H283 H 0.62492 0.79447 0.36652 0.0
C284 C 0.18844 0.22047 0.58137 0.0
C285 C 0.21936 0.19336 0.58018 0.0
C286 C 0.17595 0.23134 0.59052 0.0
C287 C 0.18279 0.20385 0.61617 0.0
H288 H 0.17766 0.31668 0.62044 0.0
C289 C 0.22104 0.31681 0.64792 0.0
C290 C 0.20124 0.30021 0.65576 0.0
C291 C 0.21283 0.30438 0.63866 0.0
C292 C 0.17864 0.28507 0.61935 0.0
H293 H 0.26077 0.15577 0.58767 0.0
H294 H 0.23917 0.17472 0.60354 0.0
H295 H 0.18233 0.29144 0.60419 0.0
H296 H 0.15678 0.25778 0.65999 0.0
H297 H 0.14277 0.23553 0.6437 0.0
H298 H 0.18134 0.19769 0.63138 0.0
C299 C 0.22411 0.18718 0.59743 0.0
C300 C 0.18095 0.27058 0.61003 0.0
C301 C 0.23667 0.17646 0.58831 0.0
C302 C 0.17249 0.2712 0.6541 0.0
C303 C 0.16452 0.25842 0.64479 0.0
C304 C 0.18036 0.21836 0.62549 0.0
C305 C 0.19405 0.2152 0.59865 0.0
C306 C 0.18443 0.22988 0.60836 0.0
C307 C 0.18486 0.27474 0.63699 0.0
C308 C 0.17968 0.25918 0.62718 0.0
H309 H 0.17437 0.23388 0.57524 0.0
H310 H 0.15253 0.25281 0.59124 0.0
H311 H 0.18487 0.17229 0.61509 0.0
H312 H 0.24376 0.33872 0.64891 0.0
H313 H 0.22959 0.31695 0.63282 0.0
C314 C 0.75647 0.65062 0.85068 0.0
C315 C 0.73703 0.68712 0.85029 0.0
C316 C 0.76229 0.63192 0.85948 0.0
C317 C 0.73694 0.63573 0.88528 0.0
H318 H 0.84978 0.63972 0.88923 0.0
C319 C 0.83388 0.71909 0.91241 0.0
C320 C 0.81426 0.71032 0.92095 0.0
C321 C 0.83044 0.69407 0.90455 0.0
C322 C 0.81824 0.63743 0.88825 0.0
H323 H 0.70588 0.73134 0.85845 0.0
H324 H 0.71458 0.69821 0.87373 0.0
H325 H 0.82378 0.63521 0.87305 0.0
H326 H 0.77866 0.66686 0.92832 0.0
H327 H 0.77205 0.62335 0.91451 0.0
H328 H 0.7313 0.64152 0.90039 0.0
C329 C 0.72541 0.68385 0.86733 0.0
C330 C 0.80332 0.63457 0.87899 0.0
C331 C 0.7205 0.70294 0.85861 0.0
C332 C 0.79444 0.67413 0.92183 0.0
C333 C 0.7904 0.64934 0.91391 0.0
C334 C 0.75187 0.63823 0.89454 0.0
C335 C 0.74796 0.64915 0.86792 0.0
C336 C 0.76254 0.63652 0.8774 0.0
C337 C 0.80674 0.66012 0.90506 0.0
C338 C 0.79259 0.64204 0.89605 0.0
H339 H 0.7701 0.63838 0.84434 0.0
H340 H 0.78001 0.60538 0.85976 0.0
H341 H 0.70537 0.63689 0.88424 0.0
H342 H 0.84918 0.74689 0.91155 0.0
H343 H 0.84309 0.70352 0.89783 0.0
C344 C 0.82122 0.81403 0.59207 0.0
C345 C 0.78873 0.83827 0.59008 0.0
C346 C 0.83069 0.80443 0.60148 0.0
C347 C 0.80595 0.82478 0.62699 0.0
H348 H 0.81458 0.71114 0.62929 0.0
C349 C 0.75146 0.6984 0.65406 0.0
C350 C 0.76586 0.71111 0.66293 0.0
C351 C 0.76473 0.71567 0.64564 0.0
C352 C 0.8126 0.74295 0.62877 0.0
H353 H 0.74257 0.87399 0.59638 0.0
H354 H 0.75842 0.85653 0.61278 0.0
H355 H 0.82043 0.74171 0.61367 0.0
H356 H 0.80547 0.75212 0.66992 0.0
H357 H 0.82822 0.78294 0.65508 0.0
H358 H 0.79563 0.82537 0.64209 0.0
C359 C 0.77699 0.84529 0.60711 0.0
C360 C 0.81638 0.76059 0.61983 0.0
C361 C 0.76768 0.85509 0.59769 0.0
C362 C 0.79391 0.74158 0.66319 0.0
C363 C 0.8069 0.75926 0.65472 0.0
C364 C 0.80225 0.80706 0.63596 0.0
C365 C 0.80766 0.81865 0.60908 0.0
C366 C 0.81168 0.80155 0.61878 0.0
C367 C 0.7924 0.74637 0.64587 0.0
C368 C 0.80404 0.76584 0.63685 0.0
H369 H 0.83839 0.80111 0.58635 0.0
H370 H 0.85497 0.78445 0.60278 0.0
H371 H 0.80268 0.85645 0.62642 0.0
H372 H 0.72943 0.67551 0.65359 0.0
H373 H 0.75242 0.70571 0.63893 0.0
C374 C 0.35172 0.3338 0.89668 0.0
C375 C 0.39153 0.32383 0.89552 0.0
C376 C 0.32747 0.33891 0.88874 0.0
C377 C 0.3226 0.30936 0.8633 0.0
H378 H 0.22661 0.37119 0.86402 0.0
C379 C 0.20899 0.3077 0.8327 0.0
C380 C 0.17174 0.29503 0.8358 0.0
C381 C 0.23748 0.31933 0.83931 0.0
C382 C 0.25348 0.35403 0.86371 0.0
H383 H 0.43791 0.31448 0.88514 0.0
H384 H 0.39622 0.32526 0.87127 0.0
H385 H 0.27529 0.37888 0.87669 0.0
H386 H 0.13439 0.28691 0.8482 0.0
H387 H 0.18386 0.30791 0.85972 0.0
H388 H 0.30061 0.28477 0.85028 0.0
C389 C 0.38316 0.32749 0.87831 0.0
C390 C 0.28127 0.35815 0.871 0.0
C391 C 0.40723 0.32157 0.88626 0.0
C392 C 0.16289 0.29603 0.84559 0.0
C393 C 0.19108 0.30841 0.85219 0.0
C394 C 0.29518 0.30586 0.85594 0.0
C395 C 0.34265 0.33492 0.87943 0.0
C396 C 0.31571 0.33501 0.87103 0.0
C397 C 0.22887 0.31934 0.84912 0.0
C398 C 0.25997 0.32739 0.85621 0.0
H399 H 0.33873 0.33557 0.90374 0.0
H400 H 0.29643 0.34401 0.88996 0.0
H401 H 0.34825 0.29045 0.86311 0.0
H402 H 0.21664 0.30721 0.82519 0.0
H403 H 0.26644 0.3277 0.83679 0.0
C404 C 0.71033 0.6367 0.10121 0.0
C405 C 0.69055 0.65974 0.09441 0.0
C406 C 0.6981 0.63647 0.11071 0.0
C407 C 0.64892 0.70129 0.12782 0.0
H408 H 0.67333 0.61466 0.14489 0.0
C409 C 0.67286 0.72889 0.16763 0.0
C410 C 0.71222 0.71972 0.16968 0.0
C411 C 0.65474 0.71284 0.15954 0.0
C412 C 0.6656 0.63889 0.14021 0.0
H413 H 0.64097 0.69889 0.09213 0.0
H414 H 0.61926 0.6982 0.10878 0.0
H415 H 0.66875 0.60269 0.12773 0.0
H416 H 0.76268 0.68492 0.16548 0.0
H417 H 0.73084 0.65583 0.15159 0.0
H418 H 0.64763 0.73778 0.14027 0.0
C419 C 0.64465 0.68075 0.10677 0.0
C420 C 0.66329 0.63218 0.13039 0.0
C421 C 0.65705 0.68111 0.09724 0.0
C422 C 0.73215 0.69201 0.16405 0.0
C423 C 0.71384 0.67529 0.15614 0.0
C424 C 0.65077 0.70789 0.13765 0.0
C425 C 0.66562 0.65914 0.11367 0.0
C426 C 0.65722 0.66376 0.12404 0.0
C427 C 0.67559 0.68683 0.15356 0.0
C428 C 0.66126 0.67718 0.14387 0.0
H429 H 0.73634 0.62003 0.09929 0.0
H430 H 0.71553 0.62009 0.11582 0.0
H431 H 0.64433 0.72638 0.12317 0.0
H432 H 0.65726 0.75077 0.17182 0.0
H433 H 0.62531 0.72234 0.15766 0.0
C434 C 0.15029 0.17067 0.38573 0.0
C435 C 0.17066 0.18093 0.39405 0.0
C436 C 0.17035 0.16682 0.37708 0.0
C437 C 0.27092 0.16939 0.36587 0.0
H438 H 0.21275 0.21645 0.34497 0.0
C439 C 0.33991 0.247 0.33298 0.0
C440 C 0.32373 0.23803 0.32401 0.0
C441 C 0.32335 0.23145 0.34131 0.0
C442 C 0.2292 0.20273 0.35069 0.0
H443 H 0.22788 0.19309 0.40011 0.0
H444 H 0.26287 0.18856 0.38495 0.0
H445 H 0.17959 0.20351 0.35996 0.0
H446 H 0.27803 0.20498 0.31674 0.0
H447 H 0.24859 0.17877 0.33132 0.0
H448 H 0.32127 0.1714 0.3566 0.0
C449 C 0.23167 0.18217 0.38505 0.0
C450 C 0.21016 0.19497 0.35931 0.0
C451 C 0.21167 0.18494 0.39375 0.0
C452 C 0.29117 0.21255 0.32354 0.0
C453 C 0.2743 0.19751 0.33186 0.0
C454 C 0.29017 0.17788 0.35728 0.0
C455 C 0.21102 0.17445 0.37653 0.0
C456 C 0.23079 0.17859 0.36707 0.0
C457 C 0.28997 0.20719 0.34083 0.0
C458 C 0.26949 0.19497 0.34966 0.0
H459 H 0.11869 0.16669 0.38586 0.0
H460 H 0.15361 0.15938 0.37076 0.0
H461 H 0.28767 0.15617 0.37161 0.0
H462 H 0.36482 0.26662 0.33362 0.0
H463 H 0.33567 0.2397 0.34816 0.0
C464 C 0.22913 0.15361 0.20264 0.0
C465 C 0.25895 0.13629 0.19708 0.0
C466 C 0.23705 0.16672 0.2119 0.0
C467 C 0.31898 0.20055 0.22685 0.0
H468 H 0.24524 0.18589 0.2477 0.0
C469 C 0.35565 0.24302 0.26578 0.0
C470 C 0.32537 0.25968 0.27131 0.0
C471 C 0.34776 0.22801 0.25669 0.0
C472 C 0.26592 0.19066 0.24192 0.0
H473 H 0.32013 0.11788 0.19701 0.0
H474 H 0.33381 0.14056 0.21318 0.0
H475 H 0.23075 0.15775 0.23207 0.0
H476 H 0.26331 0.27471 0.27153 0.0
H477 H 0.24974 0.24919 0.25561 0.0
H478 H 0.35399 0.23376 0.23666 0.0
C479 C 0.30447 0.14449 0.21033 0.0
C480 C 0.25764 0.17443 0.23298 0.0
C481 C 0.29653 0.13125 0.20108 0.0
C482 C 0.28726 0.26188 0.26747 0.0
C483 C 0.27941 0.24698 0.25838 0.0
C484 C 0.32719 0.21688 0.23578 0.0
C485 C 0.27498 0.16287 0.21578 0.0
C486 C 0.28408 0.17924 0.22535 0.0
C487 C 0.30946 0.22945 0.25293 0.0
C488 C 0.30073 0.21218 0.24342 0.0
H489 H 0.19986 0.1579 0.19977 0.0
H490 H 0.21378 0.18102 0.2159 0.0
H491 H 0.33961 0.20532 0.22106 0.0
H492 H 0.38531 0.24074 0.26855 0.0
H493 H 0.3715 0.21436 0.25272 0.0
C494 C 0.85041 0.66504 0.46957 0.0
C495 C 0.85196 0.69654 0.46307 0.0
C496 C 0.8557 0.67178 0.47933 0.0
C497 C 0.88475 0.74729 0.4973 0.0
H498 H 0.79744 0.70376 0.51171 0.0
C499 C 0.85214 0.79017 0.53659 0.0
C500 C 0.81258 0.79966 0.53845 0.0
C501 C 0.8629 0.77246 0.52797 0.0
C502 C 0.82206 0.71602 0.50779 0.0
H503 H 0.86384 0.75911 0.46157 0.0
H504 H 0.87248 0.7709 0.47853 0.0
H505 H 0.80943 0.68121 0.49547 0.0
H506 H 0.75329 0.79798 0.53274 0.0
H507 H 0.77209 0.76737 0.51769 0.0
H508 H 0.89594 0.78367 0.50949 0.0
C509 C 0.86736 0.74098 0.47614 0.0
C510 C 0.8293 0.70272 0.49853 0.0
C511 C 0.86206 0.73426 0.46641 0.0
C512 C 0.784 0.791 0.53153 0.0
C513 C 0.79472 0.77315 0.52294 0.0
C514 C 0.87753 0.76056 0.50658 0.0
C515 C 0.86273 0.7101 0.48274 0.0
C516 C 0.86 0.71904 0.49308 0.0
C517 C 0.83426 0.76368 0.52107 0.0
C518 C 0.84535 0.74591 0.5118 0.0
H519 H 0.84313 0.63553 0.46721 0.0
H520 H 0.85263 0.64729 0.48424 0.0
H521 H 0.90885 0.76012 0.4933 0.0
H522 H 0.87485 0.79647 0.54179 0.0
H523 H 0.89356 0.76536 0.52672 0.0
C524 C 0.17916 0.31788 0.71569 0.0
C525 C 0.18835 0.28629 0.70958 0.0
C526 C 0.16384 0.31087 0.7248 0.0
C527 C 0.15838 0.23492 0.74348 0.0
H528 H 0.07291 0.29895 0.75334 0.0
C529 C 0.09044 0.20299 0.78024 0.0
C530 C 0.08442 0.23584 0.78618 0.0
C531 C 0.09843 0.20801 0.77053 0.0
C532 C 0.09695 0.28099 0.75071 0.0
H533 H 0.18866 0.22254 0.70826 0.0
H534 H 0.16198 0.21037 0.72415 0.0
H535 H 0.09728 0.31026 0.73716 0.0
H536 H 0.08009 0.29966 0.78648 0.0
H537 H 0.09455 0.30843 0.76959 0.0
H538 H 0.15873 0.20615 0.75705 0.0
C539 C 0.16685 0.24055 0.72191 0.0
C540 C 0.11092 0.28749 0.74145 0.0
C541 C 0.182 0.24755 0.71279 0.0
C542 C 0.0846 0.27371 0.78211 0.0
C543 C 0.09275 0.27874 0.7724 0.0
C544 C 0.14453 0.22851 0.75274 0.0
C545 C 0.15756 0.27213 0.72801 0.0
C546 C 0.14193 0.26465 0.73775 0.0
C547 C 0.10072 0.246 0.76654 0.0
C548 C 0.11378 0.25158 0.75649 0.0
H549 H 0.18369 0.34809 0.71343 0.0
H550 H 0.15745 0.33581 0.72938 0.0
H551 H 0.18269 0.21721 0.74089 0.0
H552 H 0.09016 0.17338 0.78314 0.0
H553 H 0.1036 0.18212 0.76618 0.0
C554 C 0.69361 0.71938 0.03583 0.0
C555 C 0.70471 0.74433 0.04336 0.0
C556 C 0.68666 0.73463 0.02674 0.0
C557 C 0.71636 0.81584 0.01141 0.0
H558 H 0.63637 0.77322 -0.0054 0.0
C559 C 0.71677 0.85192 0.97135 0.0
C560 C 0.71388 0.81858 0.96544 0.0
C561 C 0.70689 0.84947 0.98103 0.0
C562 C 0.65883 0.78545 -0.00079 0.0
H563 H 0.71599 0.80507 0.04736 0.0
H564 H 0.70408 0.83176 0.03139 0.0
H565 H 0.63519 0.75679 0.01157 0.0
H566 H 0.69615 0.75717 0.96489 0.0
H567 H 0.67955 0.75274 0.98173 0.0
H568 H 0.7411 0.84303 -0.00098 0.0
C569 C 0.70092 0.80034 0.03255 0.0
C570 C 0.65812 0.77608 0.00892 0.0
C571 C 0.70764 0.78508 0.04168 0.0
C572 C 0.69888 0.78337 0.96926 0.0
C573 C 0.68905 0.78091 0.97892 0.0
C574 C 0.71713 0.82513 0.0017 0.0
C575 C 0.69079 0.77518 0.02496 0.0
C576 C 0.68758 0.79023 0.01506 0.0
C577 C 0.69389 0.81365 0.98496 0.0
C578 C 0.68906 0.80908 -0.00456 0.0
H579 H 0.6909 0.68786 0.03689 0.0
H580 H 0.67947 0.71439 0.02102 0.0
H581 H 0.73969 0.82688 0.01594 0.0
H582 H 0.72788 0.87961 0.9686 0.0
H583 H 0.71037 0.87536 0.98547 0.0
C584 C 0.2728 0.27916 0.01578 0.0
C585 C 0.26612 0.31737 0.01931 0.0
C586 C 0.29284 0.27352 0.00717 0.0
C587 C 0.36347 0.32208 0.99109 0.0
H588 H 0.32817 0.24397 0.9728 0.0
C589 C 0.42633 0.30991 0.95279 0.0
C590 C 0.42961 0.27217 0.94872 0.0
C591 C 0.40899 0.31486 0.96177 0.0
C592 C 0.33881 0.26547 0.9779 0.0
H593 H 0.27454 0.37969 0.01647 0.0
H594 H 0.30932 0.3698 0.0014 0.0
H595 H 0.29105 0.25415 0.98749 0.0
H596 H 0.41933 0.20982 0.95111 0.0
H597 H 0.3898 0.21841 0.96684 0.0
H598 H 0.41127 0.33338 0.9815 0.0
C599 C 0.29942 0.34421 0.00536 0.0
C600 C 0.31742 0.2714 0.9863 0.0
C601 C 0.27921 0.34986 0.01395 0.0
C602 C 0.41695 0.23933 0.95401 0.0
C603 C 0.39974 0.24428 0.963 0.0
C604 C 0.38495 0.31607 0.98269 0.0
C605 C 0.30678 0.30596 0.00192 0.0
C606 C 0.32944 0.29983 0.99297 0.0
C607 C 0.39468 0.28217 0.96688 0.0
C608 C 0.37283 0.28774 0.97599 0.0
H609 H 0.26316 0.25348 0.01974 0.0
H610 H 0.29833 0.24368 0.00475 0.0
H611 H 0.37382 0.34378 -0.00383 0.0
H612 H 0.43576 0.33584 0.9489 0.0
H613 H 0.40533 0.34449 0.96452 0.0
C614 C 0.74207 0.80331 0.28743 0.0
C615 C 0.73021 0.83415 0.29348 0.0
C616 C 0.7552 0.81123 0.27819 0.0
C617 C 0.74463 0.88365 0.25909 0.0
H618 H 0.8274 0.82159 0.24734 0.0
C619 C 0.7531 0.8525 0.21882 0.0
C620 C 0.79013 0.84748 0.21452 0.0
C621 C 0.75011 0.85985 0.22861 0.0
C622 C 0.80469 0.83976 0.25053 0.0
H623 H 0.72388 0.89763 0.29468 0.0
H624 H 0.7469 0.91144 0.27848 0.0
H625 H 0.81637 0.81694 0.26448 0.0
H626 H 0.85315 0.8491 0.21696 0.0
H627 H 0.84789 0.86234 0.23402 0.0
H628 H 0.73254 0.90598 0.24509 0.0
C629 C 0.74577 0.88114 0.2809 0.0
C630 C 0.79809 0.83671 0.26033 0.0
C631 C 0.73278 0.87321 0.29018 0.0
C632 C 0.82415 0.85234 0.22009 0.0
C633 C 0.82116 0.85979 0.22987 0.0
C634 C 0.75122 0.88669 0.24927 0.0
C635 C 0.75669 0.85016 0.27478 0.0
C636 C 0.76731 0.85779 0.26467 0.0
C637 C 0.7841 0.86248 0.23428 0.0
C638 C 0.78067 0.86399 0.24484 0.0
H639 H 0.74048 0.77289 0.28976 0.0
H640 H 0.76287 0.78667 0.27361 0.0
H641 H 0.72055 0.90014 0.26223 0.0
H642 H 0.72631 0.84908 0.21472 0.0
H643 H 0.7211 0.8614 0.23179 0.0
C644 C 0.11587 0.19691 0.45259 0.0
C645 C 0.12082 0.23365 0.4481 0.0
C646 C 0.1228 0.19276 0.46237 0.0
C647 C 0.17823 0.23822 0.48199 0.0
H648 H 0.11213 0.17263 0.49804 0.0
C649 C 0.22572 0.18781 0.51956 0.0
C650 C 0.19711 0.18856 0.52681 0.0
C651 C 0.21519 0.19454 0.51006 0.0
C652 C 0.13069 0.19129 0.49367 0.0
H653 H 0.13585 0.29509 0.45042 0.0
H654 H 0.1477 0.28783 0.46749 0.0
H655 H 0.09447 0.18295 0.48134 0.0
H656 H 0.13497 0.19701 0.52978 0.0
H657 H 0.11669 0.20895 0.5132 0.0
H658 H 0.21432 0.24679 0.49433 0.0
C659 C 0.13897 0.26214 0.46342 0.0
C660 C 0.12079 0.19689 0.48408 0.0
C661 C 0.13196 0.26632 0.45365 0.0
C662 C 0.15774 0.1962 0.52436 0.0
C663 C 0.1472 0.20282 0.51486 0.0
C664 C 0.1882 0.23252 0.49156 0.0
C665 C 0.1349 0.22522 0.46787 0.0
C666 C 0.14454 0.22029 0.47813 0.0
C667 C 0.17581 0.20207 0.5076 0.0
C668 C 0.16466 0.20885 0.4975 0.0
H669 H 0.1073 0.17115 0.44852 0.0
H670 H 0.11977 0.16384 0.46557 0.0
H671 H 0.19737 0.25608 0.47757 0.0
H672 H 0.25629 0.18191 0.52121 0.0
H673 H 0.23784 0.19327 0.50462 0.0
C674 C 0.75337 0.6654 0.722 0.0
C675 C 0.71557 0.66461 0.71794 0.0
C676 C 0.75805 0.67043 0.73183 0.0
C677 C 0.7054 0.66219 0.75478 0.0
H678 H 0.78167 0.73902 0.76358 0.0
C679 C 0.70413 0.72199 0.79315 0.0
C680 C 0.74047 0.72716 0.79774 0.0
C681 C 0.70265 0.71273 0.78345 0.0
C682 C 0.76063 0.71707 0.76125 0.0
H683 H 0.65305 0.66764 0.72103 0.0
H684 H 0.66125 0.67654 0.73816 0.0
H685 H 0.77657 0.7245 0.74657 0.0
H686 H 0.80381 0.7268 0.79577 0.0
H687 H 0.8012 0.71027 0.77883 0.0
H688 H 0.68925 0.65491 0.76943 0.0
C689 C 0.68725 0.67301 0.73375 0.0
C690 C 0.75772 0.70876 0.75151 0.0
C691 C 0.68257 0.66816 0.72393 0.0
C692 C 0.77533 0.72313 0.79242 0.0
C693 C 0.77385 0.71381 0.78271 0.0
C694 C 0.70836 0.67043 0.76451 0.0
C695 C 0.72502 0.67454 0.7378 0.0
C696 C 0.72977 0.68155 0.74817 0.0
C697 C 0.73748 0.70834 0.77814 0.0
C698 C 0.73568 0.6983 0.76784 0.0
H699 H 0.77939 0.66264 0.71757 0.0
H700 H 0.7875 0.67108 0.73477 0.0
H701 H 0.68402 0.64063 0.75242 0.0
H702 H 0.67673 0.72504 0.79704 0.0
H703 H 0.67416 0.70938 0.7801 0.0
C704 C 0.15866 0.98414 0.15718 0.0
C705 C 0.17729 0.00718 0.1642 0.0
C706 C 0.12219 0.96681 0.15897 0.0
C707 C 0.05207 0.93565 0.17737 0.0
H708 H 0.97493 0.95642 0.15761 0.0
C709 C 0.88942 0.88518 0.18073 0.0
C710 C 0.87269 0.86887 0.17244 0.0
C711 C 0.92575 0.90461 0.18032 0.0
C712 C 0.99613 0.94998 0.16316 0.0
H713 H 0.17319 0.02769 0.17885 0.0
H714 H 0.10942 0.99676 0.182 0.0
H715 H 0.04138 0.98216 0.15595 0.0
H716 H 0.88088 0.861 0.15717 0.0
H717 H 0.94397 0.89402 0.1565 0.0
H718 H 0.00702 0.90253 0.18447 0.0
C719 C 0.12316 0.99255 0.17509 0.0
C720 C 0.03421 0.96478 0.1622 0.0
C721 C 0.15967 0.01023 0.17328 0.0
C722 C 0.89268 0.87328 0.16371 0.0
C723 C 0.92891 0.89249 0.16331 0.0
C724 C 0.01393 0.92044 0.17829 0.0
C725 C 0.10352 0.97179 0.16784 0.0
C726 C 0.06275 0.95729 0.16922 0.0
C727 C 0.94613 0.90814 0.17161 0.0
C728 C 0.98567 0.92693 0.17111 0.0
H729 H 0.1714 0.98077 0.15013 0.0
H730 H 0.10806 0.95028 0.15332 0.0
H731 H 0.07353 0.92946 0.18288 0.0
H732 H 0.87482 0.8824 0.18758 0.0
H733 H 0.93791 0.91677 0.18683 0.0
C734 C 0.98355 0.32149 0.40562 0.0
C735 C 0.00618 0.30422 0.41291 0.0
C736 C 0.96456 0.35747 0.4071 0.0
C737 C 0.93031 0.42852 0.4252 0.0
H738 H 0.94839 0.50464 0.40499 0.0
C739 C 0.88279 0.59212 0.4286 0.0
C740 C 0.86567 0.60926 0.42045 0.0
C741 C 0.90106 0.55518 0.42805 0.0
C742 C 0.94264 0.48368 0.41066 0.0
H743 H 0.02426 0.31014 0.4277 0.0
H744 H 0.99075 0.373 0.43027 0.0
H745 H 0.97481 0.43827 0.40349 0.0
H746 H 0.85497 0.60106 0.4053 0.0
H747 H 0.88614 0.53683 0.40438 0.0
H748 H 0.89764 0.4739 0.43231 0.0
C749 C 0.98796 0.35862 0.42341 0.0
C750 C 0.95779 0.44561 0.40979 0.0
C751 C 0.00716 0.32259 0.42192 0.0
C752 C 0.86797 0.58895 0.41171 0.0
C753 C 0.88606 0.55207 0.41118 0.0
C754 C 0.91487 0.46665 0.42604 0.0
C755 C 0.96755 0.37701 0.4159 0.0
C756 C 0.95151 0.41749 0.417 0.0
C757 C 0.90259 0.53455 0.41934 0.0
C758 C 0.92058 0.4946 0.41873 0.0
H759 H 0.98176 0.30808 0.39861 0.0
H760 H 0.94832 0.37054 0.40124 0.0
H761 H 0.92492 0.40741 0.43086 0.0
H762 H 0.88165 0.60695 0.43544 0.0
H763 H 0.91399 0.54281 0.43444 0.0
C764 C 0.35263 0.41249 0.69259 0.0
C765 C 0.32923 0.43076 0.68559 0.0
C766 C 0.38927 0.42836 0.69504 0.0
C767 C 0.47523 0.45051 0.69072 0.0
H768 H 0.49593 0.56202 0.69419 0.0
C769 C 0.61846 0.52855 0.67937 0.0
C770 C 0.63365 0.55828 0.68531 0.0
C771 C 0.58321 0.5096 0.68169 0.0
C772 C 0.49065 0.53071 0.69338 0.0
H773 H 0.32436 0.48147 0.67625 0.0
H774 H 0.38772 0.50965 0.6807 0.0
H775 H 0.42814 0.53791 0.69456 0.0
H776 H 0.62466 0.58997 0.69861 0.0
H777 H 0.56277 0.55722 0.70256 0.0
H778 H 0.53759 0.44363 0.68905 0.0
C779 C 0.37801 0.48291 0.68422 0.0
C780 C 0.45188 0.51699 0.69354 0.0
C781 C 0.34179 0.46671 0.68164 0.0
C782 C 0.61382 0.5672 0.69387 0.0
C783 C 0.57826 0.54864 0.69612 0.0
C784 C 0.51397 0.46432 0.69042 0.0
C785 C 0.4027 0.46319 0.69068 0.0
C786 C 0.44374 0.47689 0.69202 0.0
C787 C 0.56218 0.52032 0.68994 0.0
C788 C 0.52198 0.50467 0.69156 0.0
H789 H 0.34383 0.38463 0.69571 0.0
H790 H 0.40769 0.41272 0.70008 0.0
H791 H 0.46977 0.4195 0.68944 0.0
H792 H 0.63306 0.52087 0.67274 0.0
H793 H 0.57137 0.48805 0.67677 0.0
C794 C 0.55872 0.18391 0.92345 0.0
C795 C 0.55944 0.20223 0.91442 0.0
C796 C 0.57907 0.14855 0.92499 0.0
C797 C 0.61352 0.06245 0.91153 0.0
H798 H 0.67244 0.03663 0.93437 0.0
C799 C 0.70485 0.92019 0.91415 0.0
C800 C 0.7059 0.89993 0.92291 0.0
C801 C 0.68736 0.95735 0.91348 0.0
C802 C 0.65564 0.04319 0.928 0.0
H803 H 0.58437 0.19886 0.90016 0.0
H804 H 0.6198 0.13761 0.90289 0.0
H805 H 0.64308 0.10213 0.9327 0.0
H806 H 0.68892 0.90296 0.93783 0.0
H807 H 0.65763 0.96756 0.93661 0.0
H808 H 0.62531 0.00367 0.90686 0.0
C809 C 0.60292 0.15019 0.90871 0.0
C810 C 0.63896 0.08077 0.92704 0.0
C811 C 0.58277 0.1855 0.90717 0.0
C812 C 0.68871 0.91772 0.93098 0.0
C813 C 0.67101 0.95492 0.93029 0.0
C814 C 0.62991 0.02494 0.91252 0.0
C815 C 0.60042 0.13073 0.91755 0.0
C816 C 0.61805 0.09091 0.91874 0.0
C817 C 0.67016 0.97523 0.92153 0.0
C818 C 0.65151 0.01487 0.92072 0.0
H819 H 0.54109 0.19592 0.9292 0.0
H820 H 0.57654 0.13424 0.93188 0.0
H821 H 0.59679 0.06903 0.90515 0.0
H822 H 0.71801 0.90762 0.90779 0.0
H823 H 0.68792 0.97234 0.90666 0.0
C824 C 0.12039 0.49522 0.05258 0.0
C825 C 0.13271 0.46294 0.04704 0.0
C826 C 0.08472 0.51402 0.05069 0.0
C827 C 0.01036 0.55533 0.0443 0.0
H828 H 0.92594 0.47877 0.04271 0.0
C829 C 0.84878 0.60014 0.05072 0.0
C830 C 0.83003 0.57655 0.05763 0.0
C831 C 0.88387 0.58763 0.04643 0.0
C832 C 0.94916 0.50058 0.04307 0.0
H833 H 0.1187 0.42707 0.03468 0.0
H834 H 0.05611 0.45999 0.03138 0.0
H835 H 0.99378 0.45749 0.04041 0.0
H836 H 0.83217 0.52023 0.06496 0.0
H837 H 0.89305 0.4986 0.05753 0.0
H838 H 0.96589 0.59793 0.04758 0.0
C839 C 0.07402 0.47046 0.03725 0.0
C840 C 0.98804 0.48848 0.04164 0.0
C841 C 0.10999 0.4518 0.0391 0.0
C842 C 0.84591 0.53927 0.05972 0.0
C843 C 0.88073 0.52669 0.05539 0.0
C844 C 0.97145 0.56745 0.04571 0.0
C845 C 0.06039 0.50087 0.04323 0.0
C846 C 0.0192 0.51543 0.04261 0.0
C847 C 0.90066 0.55112 0.04887 0.0
C848 C 0.94057 0.53989 0.04547 0.0
H849 H 0.13735 0.50475 0.0587 0.0
H850 H 0.07506 0.53712 0.05549 0.0
H851 H 0.0337 0.57688 0.04498 0.0
H852 H 0.83731 0.62899 0.04892 0.0
H853 H 0.89838 0.60695 0.04137 0.0
C854 C 0.61622 0.65586 0.30264 0.0
C855 C 0.59102 0.67695 0.30877 0.0
C856 C 0.60415 0.62 0.29866 0.0
C857 C 0.58167 0.53279 0.29917 0.0
H858 H 0.47353 0.5116 0.29205 0.0
C859 C 0.50343 0.38748 0.30716 0.0
C860 C 0.47334 0.37396 0.30112 0.0
C861 C 0.52332 0.4225 0.30515 0.0
C862 C 0.50408 0.51693 0.29382 0.0
H863 H 0.53247 0.67833 0.31496 0.0
H864 H 0.51155 0.61617 0.30804 0.0
H865 H 0.49609 0.57953 0.29341 0.0
H866 H 0.44253 0.38526 0.28783 0.0
H867 H 0.47735 0.44659 0.28433 0.0
H868 H 0.58926 0.47017 0.29991 0.0
C869 C 0.54059 0.62717 0.30629 0.0
C870 C 0.51688 0.55589 0.29469 0.0
C871 C 0.55272 0.66272 0.31033 0.0
C872 C 0.4654 0.39493 0.29267 0.0
C873 C 0.48519 0.43017 0.29068 0.0
C874 C 0.56884 0.4938 0.29832 0.0
C875 C 0.5665 0.60485 0.30063 0.0
C876 C 0.55537 0.56423 0.29773 0.0
C877 C 0.51354 0.44492 0.29705 0.0
C878 C 0.5295 0.48546 0.29598 0.0
H879 H 0.6459 0.66605 0.30129 0.0
H880 H 0.62464 0.60358 0.29425 0.0
H881 H 0.61147 0.53819 0.30157 0.0
H882 H 0.51054 0.37193 0.31369 0.0
H883 H 0.54471 0.43314 0.31026 0.0
C884 C 0.64023 0.98146 0.55874 0.0
C885 C 0.6553 0.94508 0.55562 0.0
C886 C 0.60527 0.99631 0.55496 0.0
C887 C 0.53529 0.02792 0.54403 0.0
H888 H 0.45083 0.95117 0.54493 0.0
C889 C 0.37382 0.07758 0.54318 0.0
C890 C 0.35242 0.06285 0.55101 0.0
C891 C 0.40953 0.06017 0.5405 0.0
C892 C 0.47412 0.9729 0.54454 0.0
H893 H 0.64666 0.89695 0.54563 0.0
H894 H 0.58535 0.92296 0.53905 0.0
H895 H 0.51892 0.9291 0.54614 0.0
H896 H 0.35 0.0163 0.56162 0.0
H897 H 0.41192 0.98612 0.55698 0.0
H898 H 0.49041 0.07193 0.54306 0.0
C899 C 0.60058 0.93978 0.54448 0.0
C900 C 0.51318 0.96024 0.54515 0.0
C901 C 0.6358 0.92502 0.54822 0.0
C902 C 0.36591 0.0286 0.55561 0.0
C903 C 0.40134 0.01107 0.55289 0.0
C904 C 0.49624 0.04057 0.5434 0.0
C905 C 0.58442 0.97508 0.54799 0.0
C906 C 0.5441 0.98776 0.54528 0.0
C907 C 0.42425 0.02746 0.54553 0.0
C908 C 0.46518 0.01332 0.54403 0.0
H909 H 0.6546 0.99782 0.56439 0.0
H910 H 0.59347 0.02339 0.5579 0.0
H911 H 0.55852 0.04977 0.54399 0.0
H912 H 0.36418 0.10386 0.53946 0.0
H913 H 0.42635 0.07319 0.53473 0.0
C914 C 0.98906 0.1431 0.8182 0.0
C915 C 0.99858 0.16069 0.82701 0.0
C916 C 0.96907 0.10694 0.81791 0.0
C917 C 0.95918 0.01809 0.8322 0.0
H918 H 0.86639 0.99326 0.8173 0.0
C919 C 0.86914 0.87943 0.8398 0.0
C920 C 0.8514 0.85873 0.83225 0.0
C921 C 0.88759 0.91553 0.83822 0.0
C922 C 0.89271 0.9995 0.82137 0.0
H923 H 0.99215 0.15503 0.8424 0.0
H924 H 0.95787 0.09227 0.84184 0.0
H925 H 0.89592 0.05908 0.81616 0.0
H926 H 0.83962 0.85994 0.81703 0.0
H927 H 0.87274 0.92298 0.81422 0.0
H928 H 0.95674 0.95893 0.83735 0.0
C929 C 0.96621 0.10622 0.83517 0.0
C930 C 0.90945 0.03722 0.82075 0.0
C931 C 0.98574 0.14235 0.83547 0.0
C932 C 0.85299 0.87505 0.82301 0.0
C933 C 0.87174 0.91131 0.82141 0.0
C934 C 0.94284 0.98046 0.83274 0.0
C935 C 0.95864 0.08762 0.82642 0.0
C936 C 0.94228 0.04708 0.82634 0.0
C937 C 0.88925 0.93201 0.82901 0.0
C938 C 0.9088 0.97089 0.82754 0.0
H939 H 0.99841 0.15641 0.81154 0.0
H940 H 0.96346 0.0932 0.81106 0.0
H941 H 0.98503 0.02464 0.83643 0.0
H942 H 0.8683 0.8681 0.84703 0.0
H943 H 0.8999 0.93091 0.84429 0.0
C944 C 0.65785 0.87912 0.16022 0.0
C945 C 0.67634 0.87499 0.16915 0.0
C946 C 0.62249 0.89986 0.15938 0.0
C947 C 0.53694 0.93257 0.17373 0.0
H948 H 0.51291 0.99325 0.15101 0.0
C949 C 0.39343 0.02407 0.1691 0.0
C950 C 0.37478 0.02126 0.16016 0.0
C951 C 0.43058 0.00724 0.17055 0.0
C952 C 0.5191 0.97616 0.15737 0.0
H953 H 0.67268 0.8909 0.18413 0.0
H954 H 0.61143 0.92783 0.18262 0.0
H955 H 0.57811 0.96437 0.15288 0.0
H956 H 0.38047 0.99774 0.1458 0.0
H957 H 0.44499 0.96852 0.14835 0.0
H958 H 0.47779 0.94464 0.17821 0.0
C959 C 0.62389 0.91424 0.1763 0.0
C960 C 0.55647 0.95957 0.15844 0.0
C961 C 0.65921 0.89331 0.17715 0.0
C962 C 0.39387 0.00059 0.15277 0.0
C963 C 0.43105 0.98407 0.15421 0.0
C964 C 0.4996 0.94942 0.17268 0.0
C965 C 0.60475 0.91726 0.16743 0.0
C966 C 0.56576 0.93713 0.16658 0.0
C967 C 0.45001 0.98752 0.16308 0.0
C968 C 0.49012 0.97098 0.16443 0.0
H969 H 0.66999 0.86526 0.1539 0.0
H970 H 0.60842 0.90107 0.15246 0.0
H971 H 0.5428 0.91501 0.18003 0.0
H972 H 0.37962 0.03974 0.17495 0.0
H973 H 0.44452 0.01051 0.17746 0.0
C974 C 0.89857 0.82198 0.42539 0.0
C975 C 0.87923 0.80592 0.41741 0.0
C976 C 0.92007 0.85699 0.42459 0.0
C977 C 0.96516 0.92554 0.40696 0.0
H978 H 0.95101 0.00288 0.42708 0.0
C979 C 0.00775 0.08855 0.40202 0.0
C980 C 0.02753 0.10734 0.40957 0.0
C981 C 0.99131 0.05115 0.40325 0.0
C982 C 0.95564 0.98145 0.42146 0.0
H983 H 0.86854 0.81365 0.40225 0.0
H984 H 0.90554 0.87471 0.40089 0.0
H985 H 0.92102 0.93788 0.42864 0.0
H986 H 0.04476 0.10158 0.42443 0.0
H987 H 0.01584 0.03626 0.42656 0.0
H988 H 0.99918 0.96942 0.3997 0.0
C989 C 0.90453 0.86004 0.40775 0.0
C990 C 0.93855 0.94411 0.42236 0.0
C991 C 0.88314 0.825 0.40854 0.0
C992 C 0.02973 0.08805 0.41845 0.0
C993 C 0.01306 0.05065 0.41969 0.0
C994 C 0.9821 0.9629 0.40605 0.0
C995 C 0.92271 0.87686 0.4158 0.0
C996 C 0.94281 0.91578 0.41508 0.0
C997 C 0.99404 0.0316 0.41207 0.0
C998 C 0.97723 0.99142 0.41324 0.0
H999 H 0.89639 0.80803 0.43233 0.0
H1000 H 0.93428 0.8687 0.4309 0.0
H1001 H 0.96965 0.90427 0.4013 0.0
H1002 H 0.00536 0.10244 0.39508 0.0
H1003 H 0.97628 0.03757 0.39728 0.0
C1004 C 0.11727 0.43452 0.68448 0.0
C1005 C 0.13686 0.43482 0.67563 0.0
C1006 C 0.08094 0.45348 0.68556 0.0
C1007 C 0.01383 0.52525 0.67347 0.0
H1008 H 0.93361 0.47506 0.689 0.0
C1009 C 0.84912 0.55822 0.66933 0.0
C1010 C 0.82899 0.56987 0.67765 0.0
C1011 C 0.88701 0.54255 0.66988 0.0
C1012 C 0.9559 0.48952 0.68471 0.0
H1013 H 0.13359 0.45539 0.66098 0.0
H1014 H 0.07007 0.48705 0.66275 0.0
H1015 H -0.0001 0.44716 0.68846 0.0
H1016 H 0.83244 0.57279 0.6931 0.0
H1017 H 0.89863 0.54408 0.69404 0.0
H1018 H 0.96909 0.56643 0.66939 0.0
C1019 C 0.08307 0.47333 0.66897 0.0
C1020 C 0.99396 0.47374 0.68443 0.0
C1021 C 0.11955 0.4549 0.66793 0.0
C1022 C 0.84718 0.56416 0.68657 0.0
C1023 C 0.88495 0.54772 0.68712 0.0
C1024 C 0.9757 0.54053 0.67363 0.0
C1025 C 0.06309 0.47275 0.67778 0.0
C1026 C 0.02334 0.4911 0.67869 0.0
C1027 C 0.90542 0.53751 0.67875 0.0
C1028 C 0.9463 0.52255 0.67915 0.0
H1029 H 0.12992 0.41948 0.69057 0.0
H1030 H 0.06685 0.45294 0.6925 0.0
H1031 H 0.03578 0.54013 0.66917 0.0
H1032 H 0.83613 0.56234 0.66235 0.0
H1033 H 0.90209 0.53454 0.66334 0.0
C1034 C 0.53461 0.41723 0.92036 0.0
C1035 C 0.53571 0.39902 0.91134 0.0
C1036 C 0.55129 0.45458 0.92173 0.0
C1037 C 0.62144 0.52533 0.91062 0.0
H1038 H 0.56886 0.60212 0.92672 0.0
C1039 C 0.6701 0.68712 0.91108 0.0
C1040 C 0.6764 0.70392 0.92014 0.0
C1041 C 0.65006 0.6514 0.91015 0.0
C1042 C 0.58397 0.58089 0.92225 0.0
H1043 H 0.55528 0.40612 0.89667 0.0
H1044 H 0.58347 0.47106 0.899 0.0
H1045 H 0.54103 0.53605 0.92498 0.0
H1046 H 0.66418 0.69728 0.93527 0.0
H1047 H 0.62874 0.63505 0.93361 0.0
H1048 H 0.66408 0.57023 0.9078 0.0
C1049 C 0.57051 0.45629 0.90509 0.0
C1050 C 0.56815 0.54296 0.92128 0.0
C1051 C 0.5541 0.41898 0.90375 0.0
C1052 C 0.6599 0.68528 0.92819 0.0
C1053 C 0.63957 0.64958 0.92724 0.0
C1054 C 0.63702 0.56323 0.91153 0.0
C1055 C 0.56932 0.47468 0.91409 0.0
C1056 C 0.5866 0.51473 0.91541 0.0
C1057 C 0.63551 0.63167 0.91824 0.0
C1058 C 0.61839 0.59152 0.91731 0.0
H1059 H 0.52076 0.40272 0.92638 0.0
H1060 H 0.55028 0.46757 0.92879 0.0
H1061 H 0.63699 0.50421 0.90621 0.0
H1062 H 0.68215 0.70063 0.90471 0.0
H1063 H 0.64678 0.6387 0.9031 0.0
C1064 C 0.6149 0.58438 0.05697 0.0
C1065 C 0.63759 0.56354 0.06369 0.0
C1066 C 0.57818 0.57021 0.05412 0.0
C1067 C 0.51403 0.48213 0.05398 0.0
H1068 H 0.42929 0.55862 0.05543 0.0
C1069 C 0.33806 0.4809 0.06094 0.0
C1070 C 0.32597 0.45122 0.05459 0.0
C1071 C 0.3759 0.49672 0.06035 0.0
C1072 C 0.45267 0.53697 0.05496 0.0
H1073 H 0.64021 0.51034 0.07228 0.0
H1074 H 0.57611 0.48572 0.0673 0.0
H1075 H 0.49721 0.58027 0.05744 0.0
H1076 H 0.34378 0.41604 0.04236 0.0
H1077 H 0.40996 0.4437 0.04138 0.0
H1078 H 0.46929 0.43863 0.05183 0.0
C1079 C 0.58684 0.51298 0.06423 0.0
C1080 C 0.49158 0.54939 0.05602 0.0
C1081 C 0.62351 0.52723 0.06712 0.0
C1082 C 0.35212 0.43883 0.04739 0.0
C1083 C 0.39011 0.45446 0.04685 0.0
C1084 C 0.4751 0.46974 0.05285 0.0
C1085 C 0.5634 0.53478 0.05787 0.0
C1086 C 0.52262 0.522 0.05572 0.0
C1087 C 0.40259 0.48308 0.05343 0.0
C1088 C 0.44397 0.49693 0.05352 0.0
H1089 H 0.62487 0.61235 0.05412 0.0
H1090 H 0.561 0.58736 0.0491 0.0
H1091 H 0.53737 0.46042 0.05364 0.0
H1092 H 0.31867 0.49123 0.06656 0.0
H1093 H 0.38477 0.51851 0.06558 0.0
C1094 C 0.44966 0.15568 0.29833 0.0
C1095 C 0.46161 0.18022 0.30588 0.0
C1096 C 0.46595 0.11808 0.29723 0.0
C1097 C 0.54898 0.05443 0.30464 0.0
H1098 H 0.47316 0.96942 0.30256 0.0
C1099 C 0.53867 0.88355 0.31658 0.0
C1100 C 0.57554 0.86962 0.31351 0.0
C1101 C 0.52454 0.91999 0.31346 0.0
C1102 C 0.4947 0.99285 0.30309 0.0
H1103 H 0.50159 0.18525 0.3179 0.0
H1104 H 0.52992 0.11987 0.31597 0.0
H1105 H 0.45112 0.03769 0.30114 0.0
H1106 H 0.6254 0.88218 0.30427 0.0
H1107 H 0.60063 0.94577 0.29884 0.0
H1108 H 0.59228 0.00974 0.30702 0.0
C1109 C 0.50802 0.12967 0.31088 0.0
C1110 C 0.48216 0.03191 0.30218 0.0
C1111 C 0.49156 0.16708 0.31202 0.0
C1112 C 0.59702 0.8921 0.30686 0.0
C1113 C 0.58294 0.92864 0.30377 0.0
C1114 C 0.56155 0.01538 0.3055 0.0
C1115 C 0.49479 0.10444 0.30361 0.0
C1116 C 0.50902 0.06313 0.3032 0.0
C1117 C 0.54698 0.94337 0.3072 0.0
C1118 C 0.53438 0.98422 0.30497 0.0
H1119 H 0.4267 0.16489 0.29345 0.0
H1120 H 0.45547 0.09938 0.2915 0.0
H1121 H 0.5704 0.07788 0.30536 0.0
H1122 H 0.52126 0.86698 0.32168 0.0
H1123 H 0.49687 0.93067 0.3163 0.0
C1124 C 0.86151 0.98503 0.56654 0.0
C1125 C 0.84784 0.94991 0.56237 0.0
C1126 C 0.89852 1.00001 0.56416 0.0
C1127 C 0.99489 0.96631 0.55603 0.0
H1128 H 0.01706 0.07814 0.55402 0.0
C1129 C 0.13464 0.08051 0.55098 0.0
C1130 C 0.15947 0.0661 0.55822 0.0
C1131 C 0.0971 0.06459 0.54968 0.0
C1132 C 0.01132 0.04678 0.55442 0.0
H1133 H 0.86176 0.90404 0.55207 0.0
H1134 H 0.92635 0.93027 0.54796 0.0
H1135 H 0.94892 0.05558 0.5548 0.0
H1136 H 0.165 0.02223 0.56942 0.0
H1137 H 0.09965 0.99452 0.56714 0.0
H1138 H 0.05731 0.95757 0.55586 0.0
C1139 C 0.9085 0.94593 0.55314 0.0
C1140 C 0.97234 0.03391 0.55496 0.0
C1141 C 0.87139 0.93105 0.55547 0.0
C1142 C 0.14663 0.03416 0.56381 0.0
C1143 C 0.10923 0.01809 0.56246 0.0
C1144 C 0.03387 0.97919 0.55555 0.0
C1145 C 0.92276 0.98015 0.55759 0.0
C1146 C 0.96374 0.9936 0.55595 0.0
C1147 C 0.08374 0.03371 0.55553 0.0
C1148 C 0.04252 0.01961 0.55492 0.0
H1149 H 0.84413 0.0004 0.57185 0.0
H1150 H 0.90883 0.02627 0.56778 0.0
H1151 H 0.98923 0.93508 0.55686 0.0
H1152 H 0.14361 0.105 0.54652 0.0
H1153 H 0.07824 0.07692 0.54421 0.0
C1154 C 0.89112 0.64354 0.84281 0.0
C1155 C 0.87345 0.66304 0.83506 0.0
C1156 C 0.91181 0.60838 0.84142 0.0
C1157 C 0.91982 0.52495 0.82448 0.0
H1158 H 0.00903 0.49722 0.84034 0.0
C1159 C 0.00876 0.3784 0.82079 0.0
C1160 C 0.0172 0.35904 0.82944 0.0
C1161 C 0.99206 0.41621 0.8208 0.0
C1162 C 0.98403 0.5045 0.83588 0.0
H1163 H 0.86529 0.66162 0.8197 0.0
H1164 H 0.90227 0.60082 0.81726 0.0
H1165 H 0.98095 0.56317 0.84141 0.0
H1166 H 0.01372 0.36416 0.84488 0.0
H1167 H 0.98492 0.42972 0.84487 0.0
H1168 H 0.92324 0.46605 0.81894 0.0
C1169 C 0.89931 0.61223 0.82445 0.0
C1170 C 0.96785 0.54228 0.83651 0.0
C1171 C 0.87836 0.64732 0.82584 0.0
C1172 C 0.00775 0.37805 0.83807 0.0
C1173 C 0.9915 0.41583 0.83808 0.0
C1174 C 0.93628 0.4872 0.82379 0.0
C1175 C 0.91567 0.5919 0.83225 0.0
C1176 C 0.93508 0.55282 0.83094 0.0
C1177 C 0.98392 0.43555 0.82946 0.0
C1178 C 0.96809 0.47638 0.82962 0.0
H1179 H 0.8877 0.65453 0.85002 0.0
H1180 H 0.92346 0.59337 0.84763 0.0
H1181 H 0.8943 0.53177 0.82017 0.0
H1182 H 0.01563 0.36467 0.814 0.0
H1183 H 0.98654 0.43075 0.81405 0.0
loop_
_geom_bond_atom_site_label_1
_geom_bond_atom_site_label_2
_geom_bond_distance
_geom_bond_site_symmetry_2
_ccdc_geom_bond_type
Mg0 O1 2.028 . S
Mg0 O7 1.986 . S
Mg0 O9 2.114 . S
Mg0 O10 2.251 . S
Mg0 O13 2.010 . S
O1 Mg0 2.028 . S
O1 C4 1.250 . S
O2 Mg3 2.028 . S
O2 C4 1.248 . S
Mg3 O2 2.028 . S
Mg3 O8 2.032 . S
Mg3 O10 2.079 . S
C4 O1 1.250 . S
C4 O2 1.248 . S
C5 O6 1.264 . S
C5 O13 1.249 . S
O6 C5 1.264 . S
O7 Mg0 1.986 . S
O7 C11 1.246 . S
O8 Mg3 2.032 . S
O8 C11 1.259 . S
O9 Mg0 2.114 . S
O9 C12 1.252 . S
O10 Mg0 2.251 . S
O10 Mg3 2.079 . S
O10 C12 1.273 . S
C11 O7 1.246 . S
C11 O8 1.259 . S
C12 O9 1.252 . S
C12 O10 1.273 . S
O13 Mg0 2.010 . S
O13 C5 1.249 . S
Mg14 O15 2.028 . S
Mg14 O21 1.986 . S
Mg14 O23 2.114 . S
Mg14 O24 2.251 . S
Mg14 O27 2.010 . S
O15 Mg14 2.028 . S
O15 C18 1.250 . S
O16 Mg17 2.028 . S
O16 C18 1.248 . S
Mg17 O16 2.028 . S
Mg17 O22 2.032 . S
Mg17 O24 2.079 . S
C18 O15 1.250 . S
C18 O16 1.248 . S
C19 O20 1.264 . S
C19 O27 1.249 . S
O20 C19 1.264 . S
O21 Mg14 1.986 . S
O21 C25 1.246 . S
O22 Mg17 2.032 . S
O22 C25 1.259 . S
O23 Mg14 2.114 . S
O23 C26 1.252 . S
O24 Mg14 2.251 . S
O24 Mg17 2.079 . S
O24 C26 1.273 . S
C25 O21 1.246 . S
C25 O22 1.259 . S
C26 O23 1.252 . S
C26 O24 1.273 . S
O27 Mg14 2.010 . S
O27 C19 1.249 . S
Mg28 O29 2.028 . S
Mg28 O35 1.986 . S
Mg28 O37 2.114 . S
Mg28 O38 2.251 . S
Mg28 O41 2.010 . S
O29 Mg28 2.028 . S
O29 C32 1.250 . S
O30 Mg31 2.028 . S
O30 C32 1.248 . S
Mg31 O30 2.028 . S
Mg31 O36 2.032 . S
Mg31 O38 2.079 . S
C32 O29 1.250 . S
C32 O30 1.248 . S
C33 O34 1.264 . S
C33 O41 1.249 . S
O34 C33 1.264 . S
O35 Mg28 1.986 . S
O35 C39 1.246 . S
O36 Mg31 2.032 . S
O36 C39 1.259 . S
O37 Mg28 2.114 . S
O37 C40 1.252 . S
O38 Mg28 2.251 . S
O38 Mg31 2.079 . S
O38 C40 1.273 . S
C39 O35 1.246 . S
C39 O36 1.259 . S
C40 O37 1.252 . S
C40 O38 1.273 . S
O41 Mg28 2.010 . S
O41 C33 1.249 . S
Mg42 O43 2.028 . S
Mg42 O49 1.986 . S
Mg42 O51 2.114 . S
Mg42 O52 2.251 . S
Mg42 O55 2.010 . S
O43 Mg42 2.028 . S
O43 C46 1.250 . S
O44 Mg45 2.028 . S
O44 C46 1.248 . S
Mg45 O44 2.028 . S
Mg45 O50 2.032 . S
Mg45 O52 2.079 . S
C46 O43 1.250 . S
C46 O44 1.248 . S
C47 O48 1.264 . S
C47 O55 1.249 . S
O48 C47 1.264 . S
O49 Mg42 1.986 . S
O49 C53 1.246 . S
O50 Mg45 2.032 . S
O50 C53 1.259 . S
O51 Mg42 2.114 . S
O51 C54 1.252 . S
O52 Mg42 2.251 . S
O52 Mg45 2.079 . S
O52 C54 1.273 . S
C53 O49 1.246 . S
C53 O50 1.259 . S
C54 O51 1.252 . S
C54 O52 1.273 . S
O55 Mg42 2.010 . S
O55 C47 1.249 . S
Mg56 O57 2.028 . S
Mg56 O63 1.986 . S
Mg56 O65 2.114 . S
Mg56 O66 2.251 . S
Mg56 O69 2.010 . S
O57 Mg56 2.028 . S
O57 C60 1.250 . S
O58 Mg59 2.028 . S
O58 C60 1.248 . S
Mg59 O58 2.028 . S
Mg59 O64 2.032 . S
Mg59 O66 2.079 . S
C60 O57 1.250 . S
C60 O58 1.248 . S
C61 O62 1.264 . S
C61 O69 1.249 . S
O62 C61 1.264 . S
O63 Mg56 1.986 . S
O63 C67 1.246 . S
O64 Mg59 2.032 . S
O64 C67 1.259 . S
O65 Mg56 2.114 . S
O65 C68 1.252 . S
O66 Mg56 2.251 . S
O66 Mg59 2.079 . S
O66 C68 1.273 . S
C67 O63 1.246 . S
C67 O64 1.259 . S
C68 O65 1.252 . S
C68 O66 1.273 . S
O69 Mg56 2.010 . S
O69 C61 1.249 . S
Mg70 O71 2.028 . S
Mg70 O77 1.986 . S
Mg70 O79 2.114 . S
Mg70 O80 2.251 . S
Mg70 O83 2.010 . S
O71 Mg70 2.028 . S
O71 C74 1.250 . S
O72 Mg73 2.028 . S
O72 C74 1.248 . S
Mg73 O72 2.028 . S
Mg73 O78 2.032 . S
Mg73 O80 2.079 . S
C74 O71 1.250 . S
C74 O72 1.248 . S
C75 O76 1.264 . S
C75 O83 1.249 . S
O76 C75 1.264 . S
O77 Mg70 1.986 . S
O77 C81 1.246 . S
O78 Mg73 2.032 . S
O78 C81 1.259 . S
O79 Mg70 2.114 . S
O79 C82 1.252 . S
O80 Mg70 2.251 . S
O80 Mg73 2.079 . S
O80 C82 1.273 . S
C81 O77 1.246 . S
C81 O78 1.259 . S
C82 O79 1.252 . S
C82 O80 1.273 . S
O83 Mg70 2.010 . S
O83 C75 1.249 . S
Mg84 O85 2.028 . S
Mg84 O91 1.986 . S
Mg84 O93 2.114 . S
Mg84 O94 2.251 . S
Mg84 O97 2.010 . S
O85 Mg84 2.028 . S
O85 C88 1.250 . S
O86 Mg87 2.028 . S
O86 C88 1.248 . S
Mg87 O86 2.028 . S
Mg87 O92 2.032 . S
Mg87 O94 2.079 . S
C88 O85 1.250 . S
C88 O86 1.248 . S
C89 O90 1.264 . S
C89 O97 1.249 . S
O90 C89 1.264 . S
O91 Mg84 1.986 . S
O91 C95 1.246 . S
O92 Mg87 2.032 . S
O92 C95 1.259 . S
O93 Mg84 2.114 . S
O93 C96 1.252 . S
O94 Mg84 2.251 . S
O94 Mg87 2.079 . S
O94 C96 1.273 . S
C95 O91 1.246 . S
C95 O92 1.259 . S
C96 O93 1.252 . S
C96 O94 1.273 . S
O97 Mg84 2.010 . S
O97 C89 1.249 . S
Mg98 O99 2.028 . S
Mg98 O105 1.986 . S
Mg98 O107 2.114 . S
Mg98 O108 2.251 . S
Mg98 O111 2.010 . S
O99 Mg98 2.028 . S
O99 C102 1.250 . S
O100 Mg101 2.028 . S
O100 C102 1.248 . S
Mg101 O100 2.028 . S
Mg101 O106 2.032 . S
Mg101 O108 2.079 . S
C102 O99 1.250 . S
C102 O100 1.248 . S
C103 O104 1.264 . S
C103 O111 1.249 . S
O104 C103 1.264 . S
O105 Mg98 1.986 . S
O105 C109 1.246 . S
O106 Mg101 2.032 . S
O106 C109 1.259 . S
O107 Mg98 2.114 . S
O107 C110 1.252 . S
O108 Mg98 2.251 . S
O108 Mg101 2.079 . S
O108 C110 1.273 . S
C109 O105 1.246 . S
C109 O106 1.259 . S
C110 O107 1.252 . S
C110 O108 1.273 . S
O111 Mg98 2.010 . S
O111 C103 1.249 . S
Mg112 O113 2.028 . S
Mg112 O119 1.986 . S
Mg112 O121 2.114 . S
Mg112 O122 2.251 . S
Mg112 O125 2.010 . S
O113 Mg112 2.028 . S
O113 C116 1.250 . S
O114 Mg115 2.028 . S
O114 C116 1.248 . S
Mg115 O114 2.028 . S
Mg115 O120 2.032 . S
Mg115 O122 2.079 . S
C116 O113 1.250 . S
C116 O114 1.248 . S
C117 O118 1.264 . S
C117 O125 1.249 . S
O118 C117 1.264 . S
O119 Mg112 1.986 . S
O119 C123 1.246 . S
O120 Mg115 2.032 . S
O120 C123 1.259 . S
O121 Mg112 2.114 . S
O121 C124 1.252 . S
O122 Mg112 2.251 . S
O122 Mg115 2.079 . S
O122 C124 1.273 . S
C123 O119 1.246 . S
C123 O120 1.259 . S
C124 O121 1.252 . S
C124 O122 1.273 . S
O125 Mg112 2.010 . S
O125 C117 1.249 . S
Mg126 O127 2.028 . S
Mg126 O133 1.986 . S
Mg126 O135 2.114 . S
Mg126 O136 2.251 . S
Mg126 O139 2.010 . S
O127 Mg126 2.028 . S
O127 C130 1.250 . S
O128 Mg129 2.028 . S
O128 C130 1.248 . S
Mg129 O128 2.028 . S
Mg129 O134 2.032 . S
Mg129 O136 2.079 . S
C130 O127 1.250 . S
C130 O128 1.248 . S
C131 O132 1.264 . S
C131 O139 1.249 . S
O132 C131 1.264 . S
O133 Mg126 1.986 . S
O133 C137 1.246 . S
O134 Mg129 2.032 . S
O134 C137 1.259 . S
O135 Mg126 2.114 . S
O135 C138 1.252 . S
O136 Mg126 2.251 . S
O136 Mg129 2.079 . S
O136 C138 1.273 . S
C137 O133 1.246 . S
C137 O134 1.259 . S
C138 O135 1.252 . S
C138 O136 1.273 . S
O139 Mg126 2.010 . S
O139 C131 1.249 . S
Mg140 O141 2.028 . S
Mg140 O147 1.986 . S
Mg140 O149 2.114 . S
Mg140 O150 2.251 . S
Mg140 O153 2.010 . S
O141 Mg140 2.028 . S
O141 C144 1.250 . S
O142 Mg143 2.028 . S
O142 C144 1.248 . S
Mg143 O142 2.028 . S
Mg143 O148 2.032 . S
Mg143 O150 2.079 . S
C144 O141 1.250 . S
C144 O142 1.248 . S
C145 O146 1.264 . S
C145 O153 1.249 . S
O146 C145 1.264 . S
O147 Mg140 1.986 . S
O147 C151 1.246 . S
O148 Mg143 2.032 . S
O148 C151 1.259 . S
O149 Mg140 2.114 . S
O149 C152 1.252 . S
O150 Mg140 2.251 . S
O150 Mg143 2.079 . S
O150 C152 1.273 . S
C151 O147 1.246 . S
C151 O148 1.259 . S
C152 O149 1.252 . S
C152 O150 1.273 . S
O153 Mg140 2.010 . S
O153 C145 1.249 . S
Mg154 O155 2.028 . S
Mg154 O161 1.986 . S
Mg154 O163 2.114 . S
Mg154 O164 2.251 . S
Mg154 O167 2.010 . S
O155 Mg154 2.028 . S
O155 C158 1.250 . S
O156 Mg157 2.028 . S
O156 C158 1.248 . S
Mg157 O156 2.028 . S
Mg157 O162 2.032 . S
Mg157 O164 2.079 . S
C158 O155 1.250 . S
C158 O156 1.248 . S
C159 O160 1.264 . S
C159 O167 1.249 . S
O160 C159 1.264 . S
O161 Mg154 1.986 . S
O161 C165 1.246 . S
O162 Mg157 2.032 . S
O162 C165 1.259 . S
O163 Mg154 2.114 . S
O163 C166 1.252 . S
O164 Mg154 2.251 . S
O164 Mg157 2.079 . S
O164 C166 1.273 . S
C165 O161 1.246 . S
C165 O162 1.259 . S
C166 O163 1.252 . S
C166 O164 1.273 . S
O167 Mg154 2.010 . S
O167 C159 1.249 . S
Mg168 O169 2.028 . S
Mg168 O175 1.986 . S
Mg168 O177 2.114 . S
Mg168 O178 2.251 . S
Mg168 O181 2.010 . S
O169 Mg168 2.028 . S
O169 C172 1.250 . S
O170 Mg171 2.028 . S
O170 C172 1.248 . S
Mg171 O170 2.028 . S
Mg171 O176 2.032 . S
Mg171 O178 2.079 . S
C172 O169 1.250 . S
C172 O170 1.248 . S
C173 O174 1.264 . S
C173 O181 1.249 . S
O174 C173 1.264 . S
O175 Mg168 1.986 . S
O175 C179 1.246 . S
O176 Mg171 2.032 . S
O176 C179 1.259 . S
O177 Mg168 2.114 . S
O177 C180 1.252 . S
O178 Mg168 2.251 . S
O178 Mg171 2.079 . S
O178 C180 1.273 . S
C179 O175 1.246 . S
C179 O176 1.259 . S
C180 O177 1.252 . S
C180 O178 1.273 . S
O181 Mg168 2.010 . S
O181 C173 1.249 . S
Mg182 O183 2.028 . S
Mg182 O189 1.986 . S
Mg182 O191 2.114 . S
Mg182 O192 2.251 . S
Mg182 O195 2.010 . S
O183 Mg182 2.028 . S
O183 C186 1.250 . S
O184 Mg185 2.028 . S
O184 C186 1.248 . S
Mg185 O184 2.028 . S
Mg185 O190 2.032 . S
Mg185 O192 2.079 . S
C186 O183 1.250 . S
C186 O184 1.248 . S
C187 O188 1.264 . S
C187 O195 1.249 . S
O188 C187 1.264 . S
O189 Mg182 1.986 . S
O189 C193 1.246 . S
O190 Mg185 2.032 . S
O190 C193 1.259 . S
O191 Mg182 2.114 . S
O191 C194 1.252 . S
O192 Mg182 2.251 . S
O192 Mg185 2.079 . S
O192 C194 1.273 . S
C193 O189 1.246 . S
C193 O190 1.259 . S
C194 O191 1.252 . S
C194 O192 1.273 . S
O195 Mg182 2.010 . S
O195 C187 1.249 . S
Mg196 O197 2.028 . S
Mg196 O203 1.986 . S
Mg196 O205 2.114 . S
Mg196 O206 2.251 . S
Mg196 O209 2.010 . S
O197 Mg196 2.028 . S
O197 C200 1.250 . S
O198 Mg199 2.028 . S
O198 C200 1.248 . S
Mg199 O198 2.028 . S
Mg199 O204 2.032 . S
Mg199 O206 2.079 . S
C200 O197 1.250 . S
C200 O198 1.248 . S
C201 O202 1.264 . S
C201 O209 1.249 . S
O202 C201 1.264 . S
O203 Mg196 1.986 . S
O203 C207 1.246 . S
O204 Mg199 2.032 . S
O204 C207 1.259 . S
O205 Mg196 2.114 . S
O205 C208 1.252 . S
O206 Mg196 2.251 . S
O206 Mg199 2.079 . S
O206 C208 1.273 . S
C207 O203 1.246 . S
C207 O204 1.259 . S
C208 O205 1.252 . S
C208 O206 1.273 . S
O209 Mg196 2.010 . S
O209 C201 1.249 . S
Mg210 O211 2.028 . S
Mg210 O217 1.986 . S
Mg210 O219 2.114 . S
Mg210 O220 2.251 . S
Mg210 O223 2.010 . S
O211 Mg210 2.028 . S
O211 C214 1.250 . S
O212 Mg213 2.028 . S
O212 C214 1.248 . S
Mg213 O212 2.028 . S
Mg213 O218 2.032 . S
Mg213 O220 2.079 . S
C214 O211 1.250 . S
C214 O212 1.248 . S
C215 O216 1.264 . S
C215 O223 1.249 . S
O216 C215 1.264 . S
O217 Mg210 1.986 . S
O217 C221 1.246 . S
O218 Mg213 2.032 . S
O218 C221 1.259 . S
O219 Mg210 2.114 . S
O219 C222 1.252 . S
O220 Mg210 2.251 . S
O220 Mg213 2.079 . S
O220 C222 1.273 . S
C221 O217 1.246 . S
C221 O218 1.259 . S
C222 O219 1.252 . S
C222 O220 1.273 . S
O223 Mg210 2.010 . S
O223 C215 1.249 . S
C224 C225 1.349 . S
C224 C226 1.327 . S
C224 H249 0.950 . S
C225 C224 1.349 . S
C225 C241 1.349 . S
C226 C224 1.327 . S
C226 C245 1.429 . S
C226 H250 0.950 . S
C227 C244 1.574 . S
C227 C246 1.368 . S
C227 H251 0.949 . S
H228 C232 0.949 . S
C229 C230 1.349 . S
C229 C231 1.327 . S
C229 H252 0.950 . S
C230 C229 1.349 . S
C230 C242 1.349 . S
C231 C229 1.327 . S
C231 C247 1.429 . S
C231 H253 0.950 . S
C232 H228 0.949 . S
C232 C240 1.574 . S
C232 C248 1.368 . S
H233 C241 0.950 . S
H234 C239 0.950 . S
H235 C240 0.949 . S
H236 C242 0.950 . S
H237 C243 0.950 . S
H238 C244 0.949 . S
C239 H234 0.950 . S
C239 C241 1.327 . S
C239 C245 1.429 . S
C240 C232 1.574 . S
C240 H235 0.949 . S
C240 C246 1.368 . S
C241 C225 1.349 . S
C241 H233 0.950 . S
C241 C239 1.327 . S
C242 C230 1.349 . S
C242 H236 0.950 . S
C242 C243 1.327 . S
C243 H237 0.950 . S
C243 C242 1.327 . S
C243 C247 1.429 . S
C244 C227 1.574 . S
C244 H238 0.949 . S
C244 C248 1.368 . S
C245 C226 1.429 . S
C245 C239 1.429 . S
C245 C246 1.523 . S
C246 C227 1.368 . S
C246 C240 1.368 . S
C246 C245 1.523 . S
C247 C231 1.429 . S
C247 C243 1.429 . S
C247 C248 1.523 . S
C248 C232 1.368 . S
C248 C244 1.368 . S
C248 C247 1.523 . S
H249 C224 0.950 . S
H250 C226 0.950 . S
H251 C227 0.949 . S
H252 C229 0.950 . S
H253 C231 0.950 . S
C254 C255 1.349 . S
C254 C256 1.327 . S
C254 H279 0.950 . S
C255 C254 1.349 . S
C255 C271 1.349 . S
C256 C254 1.327 . S
C256 C275 1.429 . S
C256 H280 0.950 . S
C257 C274 1.574 . S
C257 C276 1.368 . S
C257 H281 0.949 . S
H258 C262 0.949 . S
C259 C260 1.349 . S
C259 C261 1.327 . S
C259 H282 0.950 . S
C260 C259 1.349 . S
C260 C272 1.349 . S
C261 C259 1.327 . S
C261 C277 1.429 . S
C261 H283 0.950 . S
C262 H258 0.949 . S
C262 C270 1.574 . S
C262 C278 1.368 . S
H263 C271 0.950 . S
H264 C269 0.950 . S
H265 C270 0.949 . S
H266 C272 0.950 . S
H267 C273 0.950 . S
H268 C274 0.949 . S
C269 H264 0.950 . S
C269 C271 1.327 . S
C269 C275 1.429 . S
C270 C262 1.574 . S
C270 H265 0.949 . S
C270 C276 1.368 . S
C271 C255 1.349 . S
C271 H263 0.950 . S
C271 C269 1.327 . S
C272 C260 1.349 . S
C272 H266 0.950 . S
C272 C273 1.327 . S
C273 H267 0.950 . S
C273 C272 1.327 . S
C273 C277 1.429 . S
C274 C257 1.574 . S
C274 H268 0.949 . S
C274 C278 1.368 . S
C275 C256 1.429 . S
C275 C269 1.429 . S
C275 C276 1.523 . S
C276 C257 1.368 . S
C276 C270 1.368 . S
C276 C275 1.523 . S
C277 C261 1.429 . S
C277 C273 1.429 . S
C277 C278 1.523 . S
C278 C262 1.368 . S
C278 C274 1.368 . S
C278 C277 1.523 . S
H279 C254 0.950 . S
H280 C256 0.950 . S
H281 C257 0.949 . S
H282 C259 0.950 . S
H283 C261 0.950 . S
C284 C285 1.349 . S
C284 C286 1.327 . S
C284 H309 0.950 . S
C285 C284 1.349 . S
C285 C301 1.349 . S
C286 C284 1.327 . S
C286 C305 1.429 . S
C286 H310 0.950 . S
C287 C304 1.574 . S
C287 C306 1.368 . S
C287 H311 0.949 . S
H288 C292 0.949 . S
C289 C290 1.349 . S
C289 C291 1.327 . S
C289 H312 0.950 . S
C290 C289 1.349 . S
C290 C302 1.349 . S
C291 C289 1.327 . S
C291 C307 1.429 . S
C291 H313 0.950 . S
C292 H288 0.949 . S
C292 C300 1.574 . S
C292 C308 1.368 . S
H293 C301 0.950 . S
H294 C299 0.950 . S
H295 C300 0.949 . S
H296 C302 0.950 . S
H297 C303 0.950 . S
H298 C304 0.949 . S
C299 H294 0.950 . S
C299 C301 1.327 . S
C299 C305 1.429 . S
C300 C292 1.574 . S
C300 H295 0.949 . S
C300 C306 1.368 . S
C301 C285 1.349 . S
C301 H293 0.950 . S
C301 C299 1.327 . S
C302 C290 1.349 . S
C302 H296 0.950 . S
C302 C303 1.327 . S
C303 H297 0.950 . S
C303 C302 1.327 . S
C303 C307 1.429 . S
C304 C287 1.574 . S
C304 H298 0.949 . S
C304 C308 1.368 . S
C305 C286 1.429 . S
C305 C299 1.429 . S
C305 C306 1.523 . S
C306 C287 1.368 . S
C306 C300 1.368 . S
C306 C305 1.523 . S
C307 C291 1.429 . S
C307 C303 1.429 . S
C307 C308 1.523 . S
C308 C292 1.368 . S
C308 C304 1.368 . S
C308 C307 1.523 . S
H309 C284 0.950 . S
H310 C286 0.950 . S
H311 C287 0.949 . S
H312 C289 0.950 . S
H313 C291 0.950 . S
C314 C315 1.349 . S
C314 C316 1.327 . S
C314 H339 0.950 . S
C315 C314 1.349 . S
C315 C331 1.349 . S
C316 C314 1.327 . S
C316 C335 1.429 . S
C316 H340 0.950 . S
C317 C334 1.574 . S
C317 C336 1.368 . S
C317 H341 0.949 . S
H318 C322 0.949 . S
C319 C320 1.349 . S
C319 C321 1.327 . S
C319 H342 0.950 . S
C320 C319 1.349 . S
C320 C332 1.349 . S
C321 C319 1.327 . S
C321 C337 1.429 . S
C321 H343 0.950 . S
C322 H318 0.949 . S
C322 C330 1.574 . S
C322 C338 1.368 . S
H323 C331 0.950 . S
H324 C329 0.950 . S
H325 C330 0.949 . S
H326 C332 0.950 . S
H327 C333 0.950 . S
H328 C334 0.949 . S
C329 H324 0.950 . S
C329 C331 1.327 . S
C329 C335 1.429 . S
C330 C322 1.574 . S
C330 H325 0.949 . S
C330 C336 1.368 . S
C331 C315 1.349 . S
C331 H323 0.950 . S
C331 C329 1.327 . S
C332 C320 1.349 . S
C332 H326 0.950 . S
C332 C333 1.327 . S
C333 H327 0.950 . S
C333 C332 1.327 . S
C333 C337 1.429 . S
C334 C317 1.574 . S
C334 H328 0.949 . S
C334 C338 1.368 . S
C335 C316 1.429 . S
C335 C329 1.429 . S
C335 C336 1.523 . S
C336 C317 1.368 . S
C336 C330 1.368 . S
C336 C335 1.523 . S
C337 C321 1.429 . S
C337 C333 1.429 . S
C337 C338 1.523 . S
C338 C322 1.368 . S
C338 C334 1.368 . S
C338 C337 1.523 . S
H339 C314 0.950 . S
H340 C316 0.950 . S
H341 C317 0.949 . S
H342 C319 0.950 . S
H343 C321 0.950 . S
C344 C345 1.349 . S
C344 C346 1.327 . S
C344 H369 0.950 . S
C345 C344 1.349 . S
C345 C361 1.349 . S
C346 C344 1.327 . S
C346 C365 1.429 . S
C346 H370 0.950 . S
C347 C364 1.574 . S
C347 C366 1.368 . S
C347 H371 0.949 . S
H348 C352 0.949 . S
C349 C350 1.349 . S
C349 C351 1.327 . S
C349 H372 0.950 . S
C350 C349 1.349 . S
C350 C362 1.349 . S
C351 C349 1.327 . S
C351 C367 1.429 . S
C351 H373 0.950 . S
C352 H348 0.949 . S
C352 C360 1.574 . S
C352 C368 1.368 . S
H353 C361 0.950 . S
H354 C359 0.950 . S
H355 C360 0.949 . S
H356 C362 0.950 . S
H357 C363 0.950 . S
H358 C364 0.949 . S
C359 H354 0.950 . S
C359 C361 1.327 . S
C359 C365 1.429 . S
C360 C352 1.574 . S
C360 H355 0.949 . S
C360 C366 1.368 . S
C361 C345 1.349 . S
C361 H353 0.950 . S
C361 C359 1.327 . S
C362 C350 1.349 . S
C362 H356 0.950 . S
C362 C363 1.327 . S
C363 H357 0.950 . S
C363 C362 1.327 . S
C363 C367 1.429 . S
C364 C347 1.574 . S
C364 H358 0.949 . S
C364 C368 1.368 . S
C365 C346 1.429 . S
C365 C359 1.429 . S
C365 C366 1.523 . S
C366 C347 1.368 . S
C366 C360 1.368 . S
C366 C365 1.523 . S
C367 C351 1.429 . S
C367 C363 1.429 . S
C367 C368 1.523 . S
C368 C352 1.368 . S
C368 C364 1.368 . S
C368 C367 1.523 . S
H369 C344 0.950 . S
H370 C346 0.950 . S
H371 C347 0.949 . S
H372 C349 0.950 . S
H373 C351 0.950 . S
C374 C375 1.349 . S
C374 C376 1.327 . S
C374 H399 0.950 . S
C375 C374 1.349 . S
C375 C391 1.349 . S
C376 C374 1.327 . S
C376 C395 1.429 . S
C376 H400 0.950 . S
C377 C394 1.574 . S
C377 C396 1.368 . S
C377 H401 0.949 . S
H378 C382 0.949 . S
C379 C380 1.349 . S
C379 C381 1.327 . S
C379 H402 0.950 . S
C380 C379 1.349 . S
C380 C392 1.349 . S
C381 C379 1.327 . S
C381 C397 1.429 . S
C381 H403 0.950 . S
C382 H378 0.949 . S
C382 C390 1.574 . S
C382 C398 1.368 . S
H383 C391 0.950 . S
H384 C389 0.950 . S
H385 C390 0.949 . S
H386 C392 0.950 . S
H387 C393 0.950 . S
H388 C394 0.949 . S
C389 H384 0.950 . S
C389 C391 1.327 . S
C389 C395 1.429 . S
C390 C382 1.574 . S
C390 H385 0.949 . S
C390 C396 1.368 . S
C391 C375 1.349 . S
C391 H383 0.950 . S
C391 C389 1.327 . S
C392 C380 1.349 . S
C392 H386 0.950 . S
C392 C393 1.327 . S
C393 H387 0.950 . S
C393 C392 1.327 . S
C393 C397 1.429 . S
C394 C377 1.574 . S
C394 H388 0.949 . S
C394 C398 1.368 . S
C395 C376 1.429 . S
C395 C389 1.429 . S
C395 C396 1.523 . S
C396 C377 1.368 . S
C396 C390 1.368 . S
C396 C395 1.523 . S
C397 C381 1.429 . S
C397 C393 1.429 . S
C397 C398 1.523 . S
C398 C382 1.368 . S
C398 C394 1.368 . S
C398 C397 1.523 . S
H399 C374 0.950 . S
H400 C376 0.950 . S
H401 C377 0.949 . S
H402 C379 0.950 . S
H403 C381 0.950 . S
C404 C405 1.349 . S
C404 C406 1.327 . S
C404 H429 0.950 . S
C405 C404 1.349 . S
C405 C421 1.349 . S
C406 C404 1.327 . S
C406 C425 1.429 . S
C406 H430 0.950 . S
C407 C424 1.574 . S
C407 C426 1.368 . S
C407 H431 0.949 . S
H408 C412 0.949 . S
C409 C410 1.349 . S
C409 C411 1.327 . S
C409 H432 0.950 . S
C410 C409 1.349 . S
C410 C422 1.349 . S
C411 C409 1.327 . S
C411 C427 1.429 . S
C411 H433 0.950 . S
C412 H408 0.949 . S
C412 C420 1.574 . S
C412 C428 1.368 . S
H413 C421 0.950 . S
H414 C419 0.950 . S
H415 C420 0.949 . S
H416 C422 0.950 . S
H417 C423 0.950 . S
H418 C424 0.949 . S
C419 H414 0.950 . S
C419 C421 1.327 . S
C419 C425 1.429 . S
C420 C412 1.574 . S
C420 H415 0.949 . S
C420 C426 1.368 . S
C421 C405 1.349 . S
C421 H413 0.950 . S
C421 C419 1.327 . S
C422 C410 1.349 . S
C422 H416 0.950 . S
C422 C423 1.327 . S
C423 H417 0.950 . S
C423 C422 1.327 . S
C423 C427 1.429 . S
C424 C407 1.574 . S
C424 H418 0.949 . S
C424 C428 1.368 . S
C425 C406 1.429 . S
C425 C419 1.429 . S
C425 C426 1.523 . S
C426 C407 1.368 . S
C426 C420 1.368 . S
C426 C425 1.523 . S
C427 C411 1.429 . S
C427 C423 1.429 . S
C427 C428 1.523 . S
C428 C412 1.368 . S
C428 C424 1.368 . S
C428 C427 1.523 . S
H429 C404 0.950 . S
H430 C406 0.950 . S
H431 C407 0.949 . S
H432 C409 0.950 . S
H433 C411 0.950 . S
C434 C435 1.349 . S
C434 C436 1.327 . S
C434 H459 0.950 . S
C435 C434 1.349 . S
C435 C451 1.349 . S
C436 C434 1.327 . S
C436 C455 1.429 . S
C436 H460 0.950 . S
C437 C454 1.574 . S
C437 C456 1.368 . S
C437 H461 0.949 . S
H438 C442 0.949 . S
C439 C440 1.349 . S
C439 C441 1.327 . S
C439 H462 0.950 . S
C440 C439 1.349 . S
C440 C452 1.349 . S
C441 C439 1.327 . S
C441 C457 1.429 . S
C441 H463 0.950 . S
C442 H438 0.949 . S
C442 C450 1.574 . S
C442 C458 1.368 . S
H443 C451 0.950 . S
H444 C449 0.950 . S
H445 C450 0.949 . S
H446 C452 0.950 . S
H447 C453 0.950 . S
H448 C454 0.949 . S
C449 H444 0.950 . S
C449 C451 1.327 . S
C449 C455 1.429 . S
C450 C442 1.574 . S
C450 H445 0.949 . S
C450 C456 1.368 . S
C451 C435 1.349 . S
C451 H443 0.950 . S
C451 C449 1.327 . S
C452 C440 1.349 . S
C452 H446 0.950 . S
C452 C453 1.327 . S
C453 H447 0.950 . S
C453 C452 1.327 . S
C453 C457 1.429 . S
C454 C437 1.574 . S
C454 H448 0.949 . S
C454 C458 1.368 . S
C455 C436 1.429 . S
C455 C449 1.429 . S
C455 C456 1.523 . S
C456 C437 1.368 . S
C456 C450 1.368 . S
C456 C455 1.523 . S
C457 C441 1.429 . S
C457 C453 1.429 . S
C457 C458 1.523 . S
C458 C442 1.368 . S
C458 C454 1.368 . S
C458 C457 1.523 . S
H459 C434 0.950 . S
H460 C436 0.950 . S
H461 C437 0.949 . S
H462 C439 0.950 . S
H463 C441 0.950 . S
C464 C465 1.349 . S
C464 C466 1.327 . S
C464 H489 0.950 . S
C465 C464 1.349 . S
C465 C481 1.349 . S
C466 C464 1.327 . S
C466 C485 1.429 . S
C466 H490 0.950 . S
C467 C484 1.574 . S
C467 C486 1.368 . S
C467 H491 0.949 . S
H468 C472 0.949 . S
C469 C470 1.349 . S
C469 C471 1.327 . S
C469 H492 0.950 . S
C470 C469 1.349 . S
C470 C482 1.349 . S
C471 C469 1.327 . S
C471 C487 1.429 . S
C471 H493 0.950 . S
C472 H468 0.949 . S
C472 C480 1.574 . S
C472 C488 1.368 . S
H473 C481 0.950 . S
H474 C479 0.950 . S
H475 C480 0.949 . S
H476 C482 0.950 . S
H477 C483 0.950 . S
H478 C484 0.949 . S
C479 H474 0.950 . S
C479 C481 1.327 . S
C479 C485 1.429 . S
C480 C472 1.574 . S
C480 H475 0.949 . S
C480 C486 1.368 . S
C481 C465 1.349 . S
C481 H473 0.950 . S
C481 C479 1.327 . S
C482 C470 1.349 . S
C482 H476 0.950 . S
C482 C483 1.327 . S
C483 H477 0.950 . S
C483 C482 1.327 . S
C483 C487 1.429 . S
C484 C467 1.574 . S
C484 H478 0.949 . S
C484 C488 1.368 . S
C485 C466 1.429 . S
C485 C479 1.429 . S
C485 C486 1.523 . S
C486 C467 1.368 . S
C486 C480 1.368 . S
C486 C485 1.523 . S
C487 C471 1.429 . S
C487 C483 1.429 . S
C487 C488 1.523 . S
C488 C472 1.368 . S
C488 C484 1.368 . S
C488 C487 1.523 . S
H489 C464 0.950 . S
H490 C466 0.950 . S
H491 C467 0.949 . S
H492 C469 0.950 . S
H493 C471 0.950 . S
C494 C495 1.349 . S
C494 C496 1.327 . S
C494 H519 0.950 . S
C495 C494 1.349 . S
C495 C511 1.349 . S
C496 C494 1.327 . S
C496 C515 1.429 . S
C496 H520 0.950 . S
C497 C514 1.574 . S
C497 C516 1.368 . S
C497 H521 0.949 . S
H498 C502 0.949 . S
C499 C500 1.349 . S
C499 C501 1.327 . S
C499 H522 0.950 . S
C500 C499 1.349 . S
C500 C512 1.349 . S
C501 C499 1.327 . S
C501 C517 1.429 . S
C501 H523 0.950 . S
C502 H498 0.949 . S
C502 C510 1.574 . S
C502 C518 1.368 . S
H503 C511 0.950 . S
H504 C509 0.950 . S
H505 C510 0.949 . S
H506 C512 0.950 . S
H507 C513 0.950 . S
H508 C514 0.949 . S
C509 H504 0.950 . S
C509 C511 1.327 . S
C509 C515 1.429 . S
C510 C502 1.574 . S
C510 H505 0.949 . S
C510 C516 1.368 . S
C511 C495 1.349 . S
C511 H503 0.950 . S
C511 C509 1.327 . S
C512 C500 1.349 . S
C512 H506 0.950 . S
C512 C513 1.327 . S
C513 H507 0.950 . S
C513 C512 1.327 . S
C513 C517 1.429 . S
C514 C497 1.574 . S
C514 H508 0.949 . S
C514 C518 1.368 . S
C515 C496 1.429 . S
C515 C509 1.429 . S
C515 C516 1.523 . S
C516 C497 1.368 . S
C516 C510 1.368 . S
C516 C515 1.523 . S
C517 C501 1.429 . S
C517 C513 1.429 . S
C517 C518 1.523 . S
C518 C502 1.368 . S
C518 C514 1.368 . S
C518 C517 1.523 . S
H519 C494 0.950 . S
H520 C496 0.950 . S
H521 C497 0.949 . S
H522 C499 0.950 . S
H523 C501 0.950 . S
C524 C525 1.349 . S
C524 C526 1.327 . S
C524 H549 0.950 . S
C525 C524 1.349 . S
C525 C541 1.349 . S
C526 C524 1.327 . S
C526 C545 1.429 . S
C526 H550 0.950 . S
C527 C544 1.574 . S
C527 C546 1.368 . S
C527 H551 0.949 . S
H528 C532 0.949 . S
C529 C530 1.349 . S
C529 C531 1.327 . S
C529 H552 0.950 . S
C530 C529 1.349 . S
C530 C542 1.349 . S
C531 C529 1.327 . S
C531 C547 1.429 . S
C531 H553 0.950 . S
C532 H528 0.949 . S
C532 C540 1.574 . S
C532 C548 1.368 . S
H533 C541 0.950 . S
H534 C539 0.950 . S
H535 C540 0.949 . S
H536 C542 0.950 . S
H537 C543 0.950 . S
H538 C544 0.949 . S
C539 H534 0.950 . S
C539 C541 1.327 . S
C539 C545 1.429 . S
C540 C532 1.574 . S
C540 H535 0.949 . S
C540 C546 1.368 . S
C541 C525 1.349 . S
C541 H533 0.950 . S
C541 C539 1.327 . S
C542 C530 1.349 . S
C542 H536 0.950 . S
C542 C543 1.327 . S
C543 H537 0.950 . S
C543 C542 1.327 . S
C543 C547 1.429 . S
C544 C527 1.574 . S
C544 H538 0.949 . S
C544 C548 1.368 . S
C545 C526 1.429 . S
C545 C539 1.429 . S
C545 C546 1.523 . S
C546 C527 1.368 . S
C546 C540 1.368 . S
C546 C545 1.523 . S
C547 C531 1.429 . S
C547 C543 1.429 . S
C547 C548 1.523 . S
C548 C532 1.368 . S
C548 C544 1.368 . S
C548 C547 1.523 . S
H549 C524 0.950 . S
H550 C526 0.950 . S
H551 C527 0.949 . S
H552 C529 0.950 . S
H553 C531 0.950 . S
C554 C555 1.349 . S
C554 C556 1.327 . S
C554 H579 0.950 . S
C555 C554 1.349 . S
C555 C571 1.349 . S
C556 C554 1.327 . S
C556 C575 1.429 . S
C556 H580 0.950 . S
C557 C574 1.574 1_554 S
C557 C576 1.368 . S
C557 H581 0.949 . S
H558 C562 0.949 . S
C559 C560 1.349 . S
C559 C561 1.327 . S
C559 H582 0.950 . S
C560 C559 1.349 . S
C560 C572 1.349 . S
C561 C559 1.327 . S
C561 C577 1.429 . S
C561 H583 0.950 . S
C562 H558 0.949 . S
C562 C570 1.574 1_556 S
C562 C578 1.368 . S
H563 C571 0.950 . S
H564 C569 0.950 . S
H565 C570 0.949 . S
H566 C572 0.950 . S
H567 C573 0.950 . S
H568 C574 0.949 . S
C569 H564 0.950 . S
C569 C571 1.327 . S
C569 C575 1.429 . S
C570 C562 1.574 1_554 S
C570 H565 0.949 . S
C570 C576 1.368 . S
C571 C555 1.349 . S
C571 H563 0.950 . S
C571 C569 1.327 . S
C572 C560 1.349 . S
C572 H566 0.950 . S
C572 C573 1.327 . S
C573 H567 0.950 . S
C573 C572 1.327 . S
C573 C577 1.429 . S
C574 C557 1.574 1_556 S
C574 H568 0.949 . S
C574 C578 1.368 . S
C575 C556 1.429 . S
C575 C569 1.429 . S
C575 C576 1.523 . S
C576 C557 1.368 . S
C576 C570 1.368 . S
C576 C575 1.523 . S
C577 C561 1.429 . S
C577 C573 1.429 . S
C577 C578 1.523 . S
C578 C562 1.368 . S
C578 C574 1.368 . S
C578 C577 1.523 . S
H579 C554 0.950 . S
H580 C556 0.950 . S
H581 C557 0.949 . S
H582 C559 0.950 . S
H583 C561 0.950 . S
C584 C585 1.349 . S
C584 C586 1.327 . S
C584 H609 0.950 . S
C585 C584 1.349 . S
C585 C601 1.349 . S
C586 C584 1.327 . S
C586 C605 1.429 . S
C586 H610 0.950 . S
C587 C604 1.574 1_554 S
C587 C606 1.368 . S
C587 H611 0.949 . S
H588 C592 0.949 . S
C589 C590 1.349 . S
C589 C591 1.327 . S
C589 H612 0.950 . S
C590 C589 1.349 . S
C590 C602 1.349 . S
C591 C589 1.327 . S
C591 C607 1.429 . S
C591 H613 0.950 . S
C592 H588 0.949 . S
C592 C600 1.574 1_556 S
C592 C608 1.368 . S
H593 C601 0.950 . S
H594 C599 0.950 . S
H595 C600 0.949 . S
H596 C602 0.950 . S
H597 C603 0.950 . S
H598 C604 0.949 . S
C599 H594 0.950 . S
C599 C601 1.327 . S
C599 C605 1.429 . S
C600 C592 1.574 1_554 S
C600 H595 0.949 . S
C600 C606 1.368 . S
C601 C585 1.349 . S
C601 H593 0.950 . S
C601 C599 1.327 . S
C602 C590 1.349 . S
C602 H596 0.950 . S
C602 C603 1.327 . S
C603 H597 0.950 . S
C603 C602 1.327 . S
C603 C607 1.429 . S
C604 C587 1.574 1_556 S
C604 H598 0.949 . S
C604 C608 1.368 . S
C605 C586 1.429 . S
C605 C599 1.429 . S
C605 C606 1.523 . S
C606 C587 1.368 . S
C606 C600 1.368 . S
C606 C605 1.523 . S
C607 C591 1.429 . S
C607 C603 1.429 . S
C607 C608 1.523 . S
C608 C592 1.368 . S
C608 C604 1.368 . S
C608 C607 1.523 . S
H609 C584 0.950 . S
H610 C586 0.950 . S
H611 C587 0.949 . S
H612 C589 0.950 . S
H613 C591 0.950 . S
C614 C615 1.349 . S
C614 C616 1.327 . S
C614 H639 0.950 . S
C615 C614 1.349 . S
C615 C631 1.349 . S
C616 C614 1.327 . S
C616 C635 1.429 . S
C616 H640 0.950 . S
C617 C634 1.574 . S
C617 C636 1.368 . S
C617 H641 0.949 . S
H618 C622 0.949 . S
C619 C620 1.349 . S
C619 C621 1.327 . S
C619 H642 0.950 . S
C620 C619 1.349 . S
C620 C632 1.349 . S
C621 C619 1.327 . S
C621 C637 1.429 . S
C621 H643 0.950 . S
C622 H618 0.949 . S
C622 C630 1.574 . S
C622 C638 1.368 . S
H623 C631 0.950 . S
H624 C629 0.950 . S
H625 C630 0.949 . S
H626 C632 0.950 . S
H627 C633 0.950 . S
H628 C634 0.949 . S
C629 H624 0.950 . S
C629 C631 1.327 . S
C629 C635 1.429 . S
C630 C622 1.574 . S
C630 H625 0.949 . S
C630 C636 1.368 . S
C631 C615 1.349 . S
C631 H623 0.950 . S
C631 C629 1.327 . S
C632 C620 1.349 . S
C632 H626 0.950 . S
C632 C633 1.327 . S
C633 H627 0.950 . S
C633 C632 1.327 . S
C633 C637 1.429 . S
C634 C617 1.574 . S
C634 H628 0.949 . S
C634 C638 1.368 . S
C635 C616 1.429 . S
C635 C629 1.429 . S
C635 C636 1.523 . S
C636 C617 1.368 . S
C636 C630 1.368 . S
C636 C635 1.523 . S
C637 C621 1.429 . S
C637 C633 1.429 . S
C637 C638 1.523 . S
C638 C622 1.368 . S
C638 C634 1.368 . S
C638 C637 1.523 . S
H639 C614 0.950 . S
H640 C616 0.950 . S
H641 C617 0.949 . S
H642 C619 0.950 . S
H643 C621 0.950 . S
C644 C645 1.349 . S
C644 C646 1.327 . S
C644 H669 0.950 . S
C645 C644 1.349 . S
C645 C661 1.349 . S
C646 C644 1.327 . S
C646 C665 1.429 . S
C646 H670 0.950 . S
C647 C664 1.574 . S
C647 C666 1.368 . S
C647 H671 0.949 . S
H648 C652 0.949 . S
C649 C650 1.349 . S
C649 C651 1.327 . S
C649 H672 0.950 . S
C650 C649 1.349 . S
C650 C662 1.349 . S
C651 C649 1.327 . S
C651 C667 1.429 . S
C651 H673 0.950 . S
C652 H648 0.949 . S
C652 C660 1.574 . S
C652 C668 1.368 . S
H653 C661 0.950 . S
H654 C659 0.950 . S
H655 C660 0.949 . S
H656 C662 0.950 . S
H657 C663 0.950 . S
H658 C664 0.949 . S
C659 H654 0.950 . S
C659 C661 1.327 . S
C659 C665 1.429 . S
C660 C652 1.574 . S
C660 H655 0.949 . S
C660 C666 1.368 . S
C661 C645 1.349 . S
C661 H653 0.950 . S
C661 C659 1.327 . S
C662 C650 1.349 . S
C662 H656 0.950 . S
C662 C663 1.327 . S
C663 H657 0.950 . S
C663 C662 1.327 . S
C663 C667 1.429 . S
C664 C647 1.574 . S
C664 H658 0.949 . S
C664 C668 1.368 . S
C665 C646 1.429 . S
C665 C659 1.429 . S
C665 C666 1.523 . S
C666 C647 1.368 . S
C666 C660 1.368 . S
C666 C665 1.523 . S
C667 C651 1.429 . S
C667 C663 1.429 . S
C667 C668 1.523 . S
C668 C652 1.368 . S
C668 C664 1.368 . S
C668 C667 1.523 . S
H669 C644 0.950 . S
H670 C646 0.950 . S
H671 C647 0.949 . S
H672 C649 0.950 . S
H673 C651 0.950 . S
C674 C675 1.349 . S
C674 C676 1.327 . S
C674 H699 0.950 . S
C675 C674 1.349 . S
C675 C691 1.349 . S
C676 C674 1.327 . S
C676 C695 1.429 . S
C676 H700 0.950 . S
C677 C694 1.574 . S
C677 C696 1.368 . S
C677 H701 0.949 . S
H678 C682 0.949 . S
C679 C680 1.349 . S
C679 C681 1.327 . S
C679 H702 0.950 . S
C680 C679 1.349 . S
C680 C692 1.349 . S
C681 C679 1.327 . S
C681 C697 1.429 . S
C681 H703 0.950 . S
C682 H678 0.949 . S
C682 C690 1.574 . S
C682 C698 1.368 . S
H683 C691 0.950 . S
H684 C689 0.950 . S
H685 C690 0.949 . S
H686 C692 0.950 . S
H687 C693 0.950 . S
H688 C694 0.949 . S
C689 H684 0.950 . S
C689 C691 1.327 . S
C689 C695 1.429 . S
C690 C682 1.574 . S
C690 H685 0.949 . S
C690 C696 1.368 . S
C691 C675 1.349 . S
C691 H683 0.950 . S
C691 C689 1.327 . S
C692 C680 1.349 . S
C692 H686 0.950 . S
C692 C693 1.327 . S
C693 H687 0.950 . S
C693 C692 1.327 . S
C693 C697 1.429 . S
C694 C677 1.574 . S
C694 H688 0.949 . S
C694 C698 1.368 . S
C695 C676 1.429 . S
C695 C689 1.429 . S
C695 C696 1.523 . S
C696 C677 1.368 . S
C696 C690 1.368 . S
C696 C695 1.523 . S
C697 C681 1.429 . S
C697 C693 1.429 . S
C697 C698 1.523 . S
C698 C682 1.368 . S
C698 C694 1.368 . S
C698 C697 1.523 . S
H699 C674 0.950 . S
H700 C676 0.950 . S
H701 C677 0.949 . S
H702 C679 0.950 . S
H703 C681 0.950 . S
C704 C705 1.349 . S
C704 C706 1.327 . S
C704 H729 0.950 . S
C705 C704 1.349 . S
C705 C721 1.349 . S
C706 C704 1.327 . S
C706 C725 1.429 . S
C706 H730 0.950 . S
C707 C724 1.574 1_455 S
C707 C726 1.368 . S
C707 H731 0.949 . S
H708 C712 0.949 . S
C709 C710 1.349 . S
C709 C711 1.327 . S
C709 H732 0.950 . S
C710 C709 1.349 . S
C710 C722 1.349 . S
C711 C709 1.327 . S
C711 C727 1.429 . S
C711 H733 0.950 . S
C712 H708 0.949 . S
C712 C720 1.574 1_655 S
C712 C728 1.368 . S
H713 C721 0.950 . S
H714 C719 0.950 . S
H715 C720 0.949 . S
H716 C722 0.950 . S
H717 C723 0.950 . S
H718 C724 0.949 . S
C719 H714 0.950 . S
C719 C721 1.327 . S
C719 C725 1.429 . S
C720 C712 1.574 1_455 S
C720 H715 0.949 . S
C720 C726 1.368 1_565 S
C721 C705 1.349 . S
C721 H713 0.950 . S
C721 C719 1.327 . S
C722 C710 1.349 . S
C722 H716 0.950 . S
C722 C723 1.327 . S
C723 H717 0.950 . S
C723 C722 1.327 . S
C723 C727 1.429 . S
C724 C707 1.574 1_655 S
C724 H718 0.949 . S
C724 C728 1.368 1_545 S
C725 C706 1.429 . S
C725 C719 1.429 . S
C725 C726 1.523 . S
C726 C707 1.368 . S
C726 C720 1.368 1_545 S
C726 C725 1.523 . S
C727 C711 1.429 . S
C727 C723 1.429 . S
C727 C728 1.523 . S
C728 C712 1.368 . S
C728 C724 1.368 1_565 S
C728 C727 1.523 . S
H729 C704 0.950 . S
H730 C706 0.950 . S
H731 C707 0.949 . S
H732 C709 0.950 . S
H733 C711 0.950 . S
C734 C735 1.349 . S
C734 C736 1.327 . S
C734 H759 0.950 . S
C735 C734 1.349 . S
C735 C751 1.349 . S
C736 C734 1.327 . S
C736 C755 1.429 . S
C736 H760 0.950 . S
C737 C754 1.574 . S
C737 C756 1.368 . S
C737 H761 0.949 . S
H738 C742 0.949 . S
C739 C740 1.349 . S
C739 C741 1.327 . S
C739 H762 0.950 . S
C740 C739 1.349 . S
C740 C752 1.349 . S
C741 C739 1.327 . S
C741 C757 1.429 . S
C741 H763 0.950 . S
C742 H738 0.949 . S
C742 C750 1.574 . S
C742 C758 1.368 . S
H743 C751 0.950 . S
H744 C749 0.950 . S
H745 C750 0.949 . S
H746 C752 0.950 . S
H747 C753 0.950 . S
H748 C754 0.949 . S
C749 H744 0.950 . S
C749 C751 1.327 . S
C749 C755 1.429 . S
C750 C742 1.574 . S
C750 H745 0.949 . S
C750 C756 1.368 1_655 S
C751 C735 1.349 . S
C751 H743 0.950 . S
C751 C749 1.327 . S
C752 C740 1.349 . S
C752 H746 0.950 . S
C752 C753 1.327 . S
C753 H747 0.950 . S
C753 C752 1.327 . S
C753 C757 1.429 . S
C754 C737 1.574 . S
C754 H748 0.949 . S
C754 C758 1.368 1_455 S
C755 C736 1.429 . S
C755 C749 1.429 . S
C755 C756 1.523 . S
C756 C737 1.368 . S
C756 C750 1.368 1_455 S
C756 C755 1.523 . S
C757 C741 1.429 . S
C757 C753 1.429 . S
C757 C758 1.523 . S
C758 C742 1.368 . S
C758 C754 1.368 1_655 S
C758 C757 1.523 . S
H759 C734 0.950 . S
H760 C736 0.950 . S
H761 C737 0.949 . S
H762 C739 0.950 . S
H763 C741 0.950 . S
C764 C765 1.349 . S
C764 C766 1.327 . S
C764 H789 0.950 . S
C765 C764 1.349 . S
C765 C781 1.349 . S
C766 C764 1.327 . S
C766 C785 1.429 . S
C766 H790 0.950 . S
C767 C784 1.574 . S
C767 C786 1.368 . S
C767 H791 0.949 . S
H768 C772 0.949 . S
C769 C770 1.349 . S
C769 C771 1.327 . S
C769 H792 0.950 . S
C770 C769 1.349 . S
C770 C782 1.349 . S
C771 C769 1.327 . S
C771 C787 1.429 . S
C771 H793 0.950 . S
C772 H768 0.949 . S
C772 C780 1.574 . S
C772 C788 1.368 . S
H773 C781 0.950 . S
H774 C779 0.950 . S
H775 C780 0.949 . S
H776 C782 0.950 . S
H777 C783 0.950 . S
H778 C784 0.949 . S
C779 H774 0.950 . S
C779 C781 1.327 . S
C779 C785 1.429 . S
C780 C772 1.574 . S
C780 H775 0.949 . S
C780 C786 1.368 . S
C781 C765 1.349 . S
C781 H773 0.950 . S
C781 C779 1.327 . S
C782 C770 1.349 . S
C782 H776 0.950 . S
C782 C783 1.327 . S
C783 H777 0.950 . S
C783 C782 1.327 . S
C783 C787 1.429 . S
C784 C767 1.574 . S
C784 H778 0.949 . S
C784 C788 1.368 . S
C785 C766 1.429 . S
C785 C779 1.429 . S
C785 C786 1.523 . S
C786 C767 1.368 . S
C786 C780 1.368 . S
C786 C785 1.523 . S
C787 C771 1.429 . S
C787 C783 1.429 . S
C787 C788 1.523 . S
C788 C772 1.368 . S
C788 C784 1.368 . S
C788 C787 1.523 . S
H789 C764 0.950 . S
H790 C766 0.950 . S
H791 C767 0.949 . S
H792 C769 0.950 . S
H793 C771 0.950 . S
C794 C795 1.349 . S
C794 C796 1.327 . S
C794 H819 0.950 . S
C795 C794 1.349 . S
C795 C811 1.349 . S
C796 C794 1.327 . S
C796 C815 1.429 . S
C796 H820 0.950 . S
C797 C814 1.574 1_545 S
C797 C816 1.368 . S
C797 H821 0.949 . S
H798 C802 0.949 . S
C799 C800 1.349 . S
C799 C801 1.327 . S
C799 H822 0.950 . S
C800 C799 1.349 . S
C800 C812 1.349 . S
C801 C799 1.327 . S
C801 C817 1.429 . S
C801 H823 0.950 . S
C802 H798 0.949 . S
C802 C810 1.574 1_565 S
C802 C818 1.368 . S
H803 C811 0.950 . S
H804 C809 0.950 . S
H805 C810 0.949 . S
H806 C812 0.950 . S
H807 C813 0.950 . S
H808 C814 0.949 . S
C809 H804 0.950 . S
C809 C811 1.327 . S
C809 C815 1.429 . S
C810 C802 1.574 1_545 S
C810 H805 0.949 . S
C810 C816 1.368 . S
C811 C795 1.349 . S
C811 H803 0.950 . S
C811 C809 1.327 . S
C812 C800 1.349 . S
C812 H806 0.950 . S
C812 C813 1.327 . S
C813 H807 0.950 . S
C813 C812 1.327 . S
C813 C817 1.429 . S
C814 C797 1.574 1_565 S
C814 H808 0.949 . S
C814 C818 1.368 . S
C815 C796 1.429 . S
C815 C809 1.429 . S
C815 C816 1.523 . S
C816 C797 1.368 . S
C816 C810 1.368 . S
C816 C815 1.523 . S
C817 C801 1.429 . S
C817 C813 1.429 . S
C817 C818 1.523 . S
C818 C802 1.368 . S
C818 C814 1.368 . S
C818 C817 1.523 . S
H819 C794 0.950 . S
H820 C796 0.950 . S
H821 C797 0.949 . S
H822 C799 0.950 . S
H823 C801 0.950 . S
C824 C825 1.349 . S
C824 C826 1.327 . S
C824 H849 0.950 . S
C825 C824 1.349 . S
C825 C841 1.349 . S
C826 C824 1.327 . S
C826 C845 1.429 . S
C826 H850 0.950 . S
C827 C844 1.574 1_455 S
C827 C846 1.368 . S
C827 H851 0.949 . S
H828 C832 0.949 . S
C829 C830 1.349 . S
C829 C831 1.327 . S
C829 H852 0.950 . S
C830 C829 1.349 . S
C830 C842 1.349 . S
C831 C829 1.327 . S
C831 C847 1.429 . S
C831 H853 0.950 . S
C832 H828 0.949 . S
C832 C840 1.574 1_655 S
C832 C848 1.368 . S
H833 C841 0.950 . S
H834 C839 0.950 . S
H835 C840 0.949 . S
H836 C842 0.950 . S
H837 C843 0.950 . S
H838 C844 0.949 . S
C839 H834 0.950 . S
C839 C841 1.327 . S
C839 C845 1.429 . S
C840 C832 1.574 1_455 S
C840 H835 0.949 . S
C840 C846 1.368 . S
C841 C825 1.349 . S
C841 H833 0.950 . S
C841 C839 1.327 . S
C842 C830 1.349 . S
C842 H836 0.950 . S
C842 C843 1.327 . S
C843 H837 0.950 . S
C843 C842 1.327 . S
C843 C847 1.429 . S
C844 C827 1.574 1_655 S
C844 H838 0.949 . S
C844 C848 1.368 . S
C845 C826 1.429 . S
C845 C839 1.429 . S
C845 C846 1.523 . S
C846 C827 1.368 . S
C846 C840 1.368 . S
C846 C845 1.523 . S
C847 C831 1.429 . S
C847 C843 1.429 . S
C847 C848 1.523 . S
C848 C832 1.368 . S
C848 C844 1.368 . S
C848 C847 1.523 . S
H849 C824 0.950 . S
H850 C826 0.950 . S
H851 C827 0.949 . S
H852 C829 0.950 . S
H853 C831 0.950 . S
C854 C855 1.349 . S
C854 C856 1.327 . S
C854 H879 0.950 . S
C855 C854 1.349 . S
C855 C871 1.349 . S
C856 C854 1.327 . S
C856 C875 1.429 . S
C856 H880 0.950 . S
C857 C874 1.574 . S
C857 C876 1.368 . S
C857 H881 0.949 . S
H858 C862 0.949 . S
C859 C860 1.349 . S
C859 C861 1.327 . S
C859 H882 0.950 . S
C860 C859 1.349 . S
C860 C872 1.349 . S
C861 C859 1.327 . S
C861 C877 1.429 . S
C861 H883 0.950 . S
C862 H858 0.949 . S
C862 C870 1.574 . S
C862 C878 1.368 . S
H863 C871 0.950 . S
H864 C869 0.950 . S
H865 C870 0.949 . S
H866 C872 0.950 . S
H867 C873 0.950 . S
H868 C874 0.949 . S
C869 H864 0.950 . S
C869 C871 1.327 . S
C869 C875 1.429 . S
C870 C862 1.574 . S
C870 H865 0.949 . S
C870 C876 1.368 . S
C871 C855 1.349 . S
C871 H863 0.950 . S
C871 C869 1.327 . S
C872 C860 1.349 . S
C872 H866 0.950 . S
C872 C873 1.327 . S
C873 H867 0.950 . S
C873 C872 1.327 . S
C873 C877 1.429 . S
C874 C857 1.574 . S
C874 H868 0.949 . S
C874 C878 1.368 . S
C875 C856 1.429 . S
C875 C869 1.429 . S
C875 C876 1.523 . S
C876 C857 1.368 . S
C876 C870 1.368 . S
C876 C875 1.523 . S
C877 C861 1.429 . S
C877 C873 1.429 . S
C877 C878 1.523 . S
C878 C862 1.368 . S
C878 C874 1.368 . S
C878 C877 1.523 . S
H879 C854 0.950 . S
H880 C856 0.950 . S
H881 C857 0.949 . S
H882 C859 0.950 . S
H883 C861 0.950 . S
C884 C885 1.349 . S
C884 C886 1.327 . S
C884 H909 0.950 . S
C885 C884 1.349 . S
C885 C901 1.349 . S
C886 C884 1.327 . S
C886 C905 1.429 . S
C886 H910 0.950 . S
C887 C904 1.574 . S
C887 C906 1.368 . S
C887 H911 0.949 . S
H888 C892 0.949 . S
C889 C890 1.349 . S
C889 C891 1.327 . S
C889 H912 0.950 . S
C890 C889 1.349 . S
C890 C902 1.349 . S
C891 C889 1.327 . S
C891 C907 1.429 . S
C891 H913 0.950 . S
C892 H888 0.949 . S
C892 C900 1.574 . S
C892 C908 1.368 . S
H893 C901 0.950 . S
H894 C899 0.950 . S
H895 C900 0.949 . S
H896 C902 0.950 . S
H897 C903 0.950 . S
H898 C904 0.949 . S
C899 H894 0.950 . S
C899 C901 1.327 . S
C899 C905 1.429 . S
C900 C892 1.574 . S
C900 H895 0.949 . S
C900 C906 1.368 1_545 S
C901 C885 1.349 . S
C901 H893 0.950 . S
C901 C899 1.327 . S
C902 C890 1.349 . S
C902 H896 0.950 . S
C902 C903 1.327 . S
C903 H897 0.950 . S
C903 C902 1.327 . S
C903 C907 1.429 . S
C904 C887 1.574 . S
C904 H898 0.949 . S
C904 C908 1.368 1_565 S
C905 C886 1.429 . S
C905 C899 1.429 . S
C905 C906 1.523 . S
C906 C887 1.368 . S
C906 C900 1.368 1_565 S
C906 C905 1.523 . S
C907 C891 1.429 . S
C907 C903 1.429 . S
C907 C908 1.523 . S
C908 C892 1.368 . S
C908 C904 1.368 1_545 S
C908 C907 1.523 . S
H909 C884 0.950 . S
H910 C886 0.950 . S
H911 C887 0.949 . S
H912 C889 0.950 . S
H913 C891 0.950 . S
C914 C915 1.349 . S
C914 C916 1.327 . S
C914 H939 0.950 . S
C915 C914 1.349 . S
C915 C931 1.349 . S
C916 C914 1.327 . S
C916 C935 1.429 . S
C916 H940 0.950 . S
C917 C934 1.574 1_545 S
C917 C936 1.368 1_655 S
C917 H941 0.949 . S
H918 C922 0.949 . S
C919 C920 1.349 . S
C919 C921 1.327 . S
C919 H942 0.950 . S
C920 C919 1.349 . S
C920 C932 1.349 . S
C921 C919 1.327 . S
C921 C937 1.429 . S
C921 H943 0.950 . S
C922 H918 0.949 . S
C922 C930 1.574 1_565 S
C922 C938 1.368 1_455 S
H923 C931 0.950 . S
H924 C929 0.950 . S
H925 C930 0.949 . S
H926 C932 0.950 . S
H927 C933 0.950 . S
H928 C934 0.949 . S
C929 H924 0.950 . S
C929 C931 1.327 . S
C929 C935 1.429 . S
C930 C922 1.574 1_545 S
C930 H925 0.949 . S
C930 C936 1.368 . S
C931 C915 1.349 . S
C931 H923 0.950 . S
C931 C929 1.327 . S
C932 C920 1.349 . S
C932 H926 0.950 . S
C932 C933 1.327 . S
C933 H927 0.950 . S
C933 C932 1.327 . S
C933 C937 1.429 . S
C934 C917 1.574 1_565 S
C934 H928 0.949 . S
C934 C938 1.368 . S
C935 C916 1.429 . S
C935 C929 1.429 . S
C935 C936 1.523 . S
C936 C917 1.368 1_455 S
C936 C930 1.368 . S
C936 C935 1.523 . S
C937 C921 1.429 . S
C937 C933 1.429 . S
C937 C938 1.523 . S
C938 C922 1.368 1_655 S
C938 C934 1.368 . S
C938 C937 1.523 . S
H939 C914 0.950 . S
H940 C916 0.950 . S
H941 C917 0.949 . S
H942 C919 0.950 . S
H943 C921 0.950 . S
C944 C945 1.349 . S
C944 C946 1.327 . S
C944 H969 0.950 . S
C945 C944 1.349 . S
C945 C961 1.349 . S
C946 C944 1.327 . S
C946 C965 1.429 . S
C946 H970 0.950 . S
C947 C964 1.574 . S
C947 C966 1.368 1_545 S
C947 H971 0.949 . S
H948 C952 0.949 . S
C949 C950 1.349 . S
C949 C951 1.327 . S
C949 H972 0.950 . S
C950 C949 1.349 . S
C950 C962 1.349 . S
C951 C949 1.327 . S
C951 C967 1.429 . S
C951 H973 0.950 . S
C952 H948 0.949 . S
C952 C960 1.574 . S
C952 C968 1.368 1_565 S
H953 C961 0.950 . S
H954 C959 0.950 . S
H955 C960 0.949 . S
H956 C962 0.950 . S
H957 C963 0.950 . S
H958 C964 0.949 . S
C959 H954 0.950 . S
C959 C961 1.327 . S
C959 C965 1.429 . S
C960 C952 1.574 . S
C960 H955 0.949 . S
C960 C966 1.368 . S
C961 C945 1.349 . S
C961 H953 0.950 . S
C961 C959 1.327 . S
C962 C950 1.349 . S
C962 H956 0.950 . S
C962 C963 1.327 . S
C963 H957 0.950 . S
C963 C962 1.327 . S
C963 C967 1.429 . S
C964 C947 1.574 . S
C964 H958 0.949 . S
C964 C968 1.368 . S
C965 C946 1.429 . S
C965 C959 1.429 . S
C965 C966 1.523 . S
C966 C947 1.368 1_565 S
C966 C960 1.368 . S
C966 C965 1.523 . S
C967 C951 1.429 . S
C967 C963 1.429 . S
C967 C968 1.523 . S
C968 C952 1.368 1_545 S
C968 C964 1.368 . S
C968 C967 1.523 . S
H969 C944 0.950 . S
H970 C946 0.950 . S
H971 C947 0.949 . S
H972 C949 0.950 . S
H973 C951 0.950 . S
C974 C975 1.349 . S
C974 C976 1.327 . S
C974 H999 0.950 . S
C975 C974 1.349 . S
C975 C991 1.349 . S
C976 C974 1.327 . S
C976 C995 1.429 . S
C976 H1000 0.950 . S
C977 C994 1.574 1_565 S
C977 C996 1.368 . S
C977 H1001 0.949 . S
H978 C982 0.949 . S
C979 C980 1.349 . S
C979 C981 1.327 . S
C979 H1002 0.950 . S
C980 C979 1.349 . S
C980 C992 1.349 . S
C981 C979 1.327 . S
C981 C997 1.429 . S
C981 H1003 0.950 . S
C982 H978 0.949 . S
C982 C990 1.574 1_545 S
C982 C998 1.368 . S
H983 C991 0.950 . S
H984 C989 0.950 . S
H985 C990 0.949 . S
H986 C992 0.950 . S
H987 C993 0.950 . S
H988 C994 0.949 . S
C989 H984 0.950 . S
C989 C991 1.327 . S
C989 C995 1.429 . S
C990 C982 1.574 1_565 S
C990 H985 0.949 . S
C990 C996 1.368 1_455 S
C991 C975 1.349 . S
C991 H983 0.950 . S
C991 C989 1.327 . S
C992 C980 1.349 . S
C992 H986 0.950 . S
C992 C993 1.327 . S
C993 H987 0.950 . S
C993 C992 1.327 . S
C993 C997 1.429 . S
C994 C977 1.574 1_545 S
C994 H988 0.949 . S
C994 C998 1.368 1_655 S
C995 C976 1.429 . S
C995 C989 1.429 . S
C995 C996 1.523 . S
C996 C977 1.368 . S
C996 C990 1.368 1_655 S
C996 C995 1.523 . S
C997 C981 1.429 . S
C997 C993 1.429 . S
C997 C998 1.523 . S
C998 C982 1.368 . S
C998 C994 1.368 1_455 S
C998 C997 1.523 . S
H999 C974 0.950 . S
H1000 C976 0.950 . S
H1001 C977 0.949 . S
H1002 C979 0.950 . S
H1003 C981 0.950 . S
C1004 C1005 1.349 . S
C1004 C1006 1.327 . S
C1004 H1029 0.950 . S
C1005 C1004 1.349 . S
C1005 C1021 1.349 . S
C1006 C1004 1.327 . S
C1006 C1025 1.429 . S
C1006 H1030 0.950 . S
C1007 C1024 1.574 1_455 S
C1007 C1026 1.368 . S
C1007 H1031 0.949 . S
H1008 C1012 0.949 . S
C1009 C1010 1.349 . S
C1009 C1011 1.327 . S
C1009 H1032 0.950 . S
C1010 C1009 1.349 . S
C1010 C1022 1.349 . S
C1011 C1009 1.327 . S
C1011 C1027 1.429 . S
C1011 H1033 0.950 . S
C1012 H1008 0.949 . S
C1012 C1020 1.574 1_655 S
C1012 C1028 1.368 . S
H1013 C1021 0.950 . S
H1014 C1019 0.950 . S
H1015 C1020 0.949 . S
H1016 C1022 0.950 . S
H1017 C1023 0.950 . S
H1018 C1024 0.949 . S
C1019 H1014 0.950 . S
C1019 C1021 1.327 . S
C1019 C1025 1.429 . S
C1020 C1012 1.574 1_455 S
C1020 H1015 0.949 . S
C1020 C1026 1.368 . S
C1021 C1005 1.349 . S
C1021 H1013 0.950 . S
C1021 C1019 1.327 . S
C1022 C1010 1.349 . S
C1022 H1016 0.950 . S
C1022 C1023 1.327 . S
C1023 H1017 0.950 . S
C1023 C1022 1.327 . S
C1023 C1027 1.429 . S
C1024 C1007 1.574 1_655 S
C1024 H1018 0.949 . S
C1024 C1028 1.368 . S
C1025 C1006 1.429 . S
C1025 C1019 1.429 . S
C1025 C1026 1.523 . S
C1026 C1007 1.368 . S
C1026 C1020 1.368 . S
C1026 C1025 1.523 . S
C1027 C1011 1.429 . S
C1027 C1023 1.429 . S
C1027 C1028 1.523 . S
C1028 C1012 1.368 . S
C1028 C1024 1.368 . S
C1028 C1027 1.523 . S
H1029 C1004 0.950 . S
H1030 C1006 0.950 . S
H1031 C1007 0.949 . S
H1032 C1009 0.950 . S
H1033 C1011 0.950 . S
C1034 C1035 1.349 . S
C1034 C1036 1.327 . S
C1034 H1059 0.950 . S
C1035 C1034 1.349 . S
C1035 C1051 1.349 . S
C1036 C1034 1.327 . S
C1036 C1055 1.429 . S
C1036 H1060 0.950 . S
C1037 C1054 1.574 . S
C1037 C1056 1.368 . S
C1037 H1061 0.949 . S
H1038 C1042 0.949 . S
C1039 C1040 1.349 . S
C1039 C1041 1.327 . S
C1039 H1062 0.950 . S
C1040 C1039 1.349 . S
C1040 C1052 1.349 . S
C1041 C1039 1.327 . S
C1041 C1057 1.429 . S
C1041 H1063 0.950 . S
C1042 H1038 0.949 . S
C1042 C1050 1.574 . S
C1042 C1058 1.368 . S
H1043 C1051 0.950 . S
H1044 C1049 0.950 . S
H1045 C1050 0.949 . S
H1046 C1052 0.950 . S
H1047 C1053 0.950 . S
H1048 C1054 0.949 . S
C1049 H1044 0.950 . S
C1049 C1051 1.327 . S
C1049 C1055 1.429 . S
C1050 C1042 1.574 . S
C1050 H1045 0.949 . S
C1050 C1056 1.368 . S
C1051 C1035 1.349 . S
C1051 H1043 0.950 . S
C1051 C1049 1.327 . S
C1052 C1040 1.349 . S
C1052 H1046 0.950 . S
C1052 C1053 1.327 . S
C1053 H1047 0.950 . S
C1053 C1052 1.327 . S
C1053 C1057 1.429 . S
C1054 C1037 1.574 . S
C1054 H1048 0.949 . S
C1054 C1058 1.368 . S
C1055 C1036 1.429 . S
C1055 C1049 1.429 . S
C1055 C1056 1.523 . S
C1056 C1037 1.368 . S
C1056 C1050 1.368 . S
C1056 C1055 1.523 . S
C1057 C1041 1.429 . S
C1057 C1053 1.429 . S
C1057 C1058 1.523 . S
C1058 C1042 1.368 . S
C1058 C1054 1.368 . S
C1058 C1057 1.523 . S
H1059 C1034 0.950 . S
H1060 C1036 0.950 . S
H1061 C1037 0.949 . S
H1062 C1039 0.950 . S
H1063 C1041 0.950 . S
C1064 C1065 1.349 . S
C1064 C1066 1.327 . S
C1064 H1089 0.950 . S
C1065 C1064 1.349 . S
C1065 C1081 1.349 . S
C1066 C1064 1.327 . S
C1066 C1085 1.429 . S
C1066 H1090 0.950 . S
C1067 C1084 1.574 . S
C1067 C1086 1.368 . S
C1067 H1091 0.949 . S
H1068 C1072 0.949 . S
C1069 C1070 1.349 . S
C1069 C1071 1.327 . S
C1069 H1092 0.950 . S
C1070 C1069 1.349 . S
C1070 C1082 1.349 . S
C1071 C1069 1.327 . S
C1071 C1087 1.429 . S
C1071 H1093 0.950 . S
C1072 H1068 0.949 . S
C1072 C1080 1.574 . S
C1072 C1088 1.368 . S
H1073 C1081 0.950 . S
H1074 C1079 0.950 . S
H1075 C1080 0.949 . S
H1076 C1082 0.950 . S
H1077 C1083 0.950 . S
H1078 C1084 0.949 . S
C1079 H1074 0.950 . S
C1079 C1081 1.327 . S
C1079 C1085 1.429 . S
C1080 C1072 1.574 . S
C1080 H1075 0.949 . S
C1080 C1086 1.368 . S
C1081 C1065 1.349 . S
C1081 H1073 0.950 . S
C1081 C1079 1.327 . S
C1082 C1070 1.349 . S
C1082 H1076 0.950 . S
C1082 C1083 1.327 . S
C1083 H1077 0.950 . S
C1083 C1082 1.327 . S
C1083 C1087 1.429 . S
C1084 C1067 1.574 . S
C1084 H1078 0.949 . S
C1084 C1088 1.368 . S
C1085 C1066 1.429 . S
C1085 C1079 1.429 . S
C1085 C1086 1.523 . S
C1086 C1067 1.368 . S
C1086 C1080 1.368 . S
C1086 C1085 1.523 . S
C1087 C1071 1.429 . S
C1087 C1083 1.429 . S
C1087 C1088 1.523 . S
C1088 C1072 1.368 . S
C1088 C1084 1.368 . S
C1088 C1087 1.523 . S
H1089 C1064 0.950 . S
H1090 C1066 0.950 . S
H1091 C1067 0.949 . S
H1092 C1069 0.950 . S
H1093 C1071 0.950 . S
C1094 C1095 1.349 . S
C1094 C1096 1.327 . S
C1094 H1119 0.950 . S
C1095 C1094 1.349 . S
C1095 C1111 1.349 . S
C1096 C1094 1.327 . S
C1096 C1115 1.429 . S
C1096 H1120 0.950 . S
C1097 C1114 1.574 1_545 S
C1097 C1116 1.368 . S
C1097 H1121 0.949 . S
H1098 C1102 0.949 . S
C1099 C1100 1.349 . S
C1099 C1101 1.327 . S
C1099 H1122 0.950 . S
C1100 C1099 1.349 . S
C1100 C1112 1.349 . S
C1101 C1099 1.327 . S
C1101 C1117 1.429 . S
C1101 H1123 0.950 . S
C1102 H1098 0.949 . S
C1102 C1110 1.574 1_565 S
C1102 C1118 1.368 . S
H1103 C1111 0.950 . S
H1104 C1109 0.950 . S
H1105 C1110 0.949 . S
H1106 C1112 0.950 . S
H1107 C1113 0.950 . S
H1108 C1114 0.949 . S
C1109 H1104 0.950 . S
C1109 C1111 1.327 . S
C1109 C1115 1.429 . S
C1110 C1102 1.574 1_545 S
C1110 H1105 0.949 . S
C1110 C1116 1.368 . S
C1111 C1095 1.349 . S
C1111 H1103 0.950 . S
C1111 C1109 1.327 . S
C1112 C1100 1.349 . S
C1112 H1106 0.950 . S
C1112 C1113 1.327 . S
C1113 H1107 0.950 . S
C1113 C1112 1.327 . S
C1113 C1117 1.429 . S
C1114 C1097 1.574 1_565 S
C1114 H1108 0.949 . S
C1114 C1118 1.368 . S
C1115 C1096 1.429 . S
C1115 C1109 1.429 . S
C1115 C1116 1.523 . S
C1116 C1097 1.368 . S
C1116 C1110 1.368 . S
C1116 C1115 1.523 . S
C1117 C1101 1.429 . S
C1117 C1113 1.429 . S
C1117 C1118 1.523 . S
C1118 C1102 1.368 . S
C1118 C1114 1.368 . S
C1118 C1117 1.523 . S
H1119 C1094 0.950 . S
H1120 C1096 0.950 . S
H1121 C1097 0.949 . S
H1122 C1099 0.950 . S
H1123 C1101 0.950 . S
C1124 C1125 1.349 . S
C1124 C1126 1.327 . S
C1124 H1149 0.950 . S
C1125 C1124 1.349 . S
C1125 C1141 1.349 . S
C1126 C1124 1.327 . S
C1126 C1145 1.429 . S
C1126 H1150 0.950 . S
C1127 C1144 1.574 1_655 S
C1127 C1146 1.368 1_545 S
C1127 H1151 0.949 . S
H1128 C1132 0.949 . S
C1129 C1130 1.349 . S
C1129 C1131 1.327 . S
C1129 H1152 0.950 . S
C1130 C1129 1.349 . S
C1130 C1142 1.349 . S
C1131 C1129 1.327 . S
C1131 C1147 1.429 . S
C1131 H1153 0.950 . S
C1132 H1128 0.949 . S
C1132 C1140 1.574 1_455 S
C1132 C1148 1.368 1_565 S
H1133 C1141 0.950 . S
H1134 C1139 0.950 . S
H1135 C1140 0.949 . S
H1136 C1142 0.950 . S
H1137 C1143 0.950 . S
H1138 C1144 0.949 . S
C1139 H1134 0.950 . S
C1139 C1141 1.327 . S
C1139 C1145 1.429 . S
C1140 C1132 1.574 1_655 S
C1140 H1135 0.949 . S
C1140 C1146 1.368 . S
C1141 C1125 1.349 . S
C1141 H1133 0.950 . S
C1141 C1139 1.327 . S
C1142 C1130 1.349 . S
C1142 H1136 0.950 . S
C1142 C1143 1.327 . S
C1143 H1137 0.950 . S
C1143 C1142 1.327 . S
C1143 C1147 1.429 . S
C1144 C1127 1.574 1_455 S
C1144 H1138 0.949 . S
C1144 C1148 1.368 . S
C1145 C1126 1.429 . S
C1145 C1139 1.429 . S
C1145 C1146 1.523 . S
C1146 C1127 1.368 1_565 S
C1146 C1140 1.368 . S
C1146 C1145 1.523 . S
C1147 C1131 1.429 . S
C1147 C1143 1.429 . S
C1147 C1148 1.523 . S
C1148 C1132 1.368 1_545 S
C1148 C1144 1.368 . S
C1148 C1147 1.523 . S
H1149 C1124 0.950 . S
H1150 C1126 0.950 . S
H1151 C1127 0.949 . S
H1152 C1129 0.950 . S
H1153 C1131 0.950 . S
C1154 C1155 1.349 . S
C1154 C1156 1.327 . S
C1154 H1179 0.950 . S
C1155 C1154 1.349 . S
C1155 C1171 1.349 . S
C1156 C1154 1.327 . S
C1156 C1175 1.429 . S
C1156 H1180 0.950 . S
C1157 C1174 1.574 . S
C1157 C1176 1.368 1_455 S
C1157 H1181 0.949 . S
H1158 C1162 0.949 . S
C1159 C1160 1.349 . S
C1159 C1161 1.327 . S
C1159 H1182 0.950 . S
C1160 C1159 1.349 . S
C1160 C1172 1.349 . S
C1161 C1159 1.327 . S
C1161 C1177 1.429 . S
C1161 H1183 0.950 . S
C1162 H1158 0.949 . S
C1162 C1170 1.574 . S
C1162 C1178 1.368 1_655 S
H1163 C1171 0.950 . S
H1164 C1169 0.950 . S
H1165 C1170 0.949 . S
H1166 C1172 0.950 . S
H1167 C1173 0.950 . S
H1168 C1174 0.949 . S
C1169 H1164 0.950 . S
C1169 C1171 1.327 . S
C1169 C1175 1.429 . S
C1170 C1162 1.574 . S
C1170 H1165 0.949 . S
C1170 C1176 1.368 . S
C1171 C1155 1.349 . S
C1171 H1163 0.950 . S
C1171 C1169 1.327 . S
C1172 C1160 1.349 . S
C1172 H1166 0.950 . S
C1172 C1173 1.327 . S
C1173 H1167 0.950 . S
C1173 C1172 1.327 . S
C1173 C1177 1.429 . S
C1174 C1157 1.574 . S
C1174 H1168 0.949 . S
C1174 C1178 1.368 . S
C1175 C1156 1.429 . S
C1175 C1169 1.429 . S
C1175 C1176 1.523 . S
C1176 C1157 1.368 1_655 S
C1176 C1170 1.368 . S
C1176 C1175 1.523 . S
C1177 C1161 1.429 . S
C1177 C1173 1.429 . S
C1177 C1178 1.523 . S
C1178 C1162 1.368 1_455 S
C1178 C1174 1.368 . S
C1178 C1177 1.523 . S
H1179 C1154 0.950 . S
H1180 C1156 0.950 . S
H1181 C1157 0.949 . S
H1182 C1159 0.950 . S
H1183 C1161 0.950 . S
C225 C68 0.845 . S
C230 C12 0.845 . S
C255 C26 0.845 . S
C260 C82 0.845 . S
C285 C96 0.845 . S
C290 C40 0.845 . S
C315 C110 0.845 . S
C320 C54 0.845 . S
C345 C180 0.845 . S
C350 C124 0.845 . S
C375 C138 0.845 . S
C380 C194 0.845 . S
C405 C208 0.845 . S
C410 C152 0.845 . S
C435 C166 0.845 . S
C440 C222 0.845 . S
C465 C5 0.988 . S
C470 C215 0.988 . S
C495 C19 0.988 . S
C500 C173 0.988 . S
C525 C33 0.988 . S
C530 C187 0.988 . S
C555 C201 0.988 . S
C560 C47 0.988 . S
C585 C61 0.988 . S
C590 C131 0.988 . S
C615 C75 0.988 . S
C620 C145 0.988 . S
C645 C159 0.988 . S
C650 C89 0.988 . S
C675 C117 0.988 . S
C680 C103 0.988 . S
C705 C11 1.424 . S
C710 C151 1.424 . S
C735 C165 1.423 . S
C740 C25 1.424 . S
C765 C39 1.424 . S
C770 C123 1.424 . S
C795 C137 1.424 . S
C800 C53 1.423 . S
C825 C67 1.423 . S
C830 C207 1.424 . S
C855 C81 1.424 . S
C860 C221 1.424 . S
C885 C179 1.423 . S
C890 C95 1.424 . S
C915 C193 1.424 . S
C920 C109 1.424 . S
C945 C144 1.573 . S
C950 C4 1.573 . S
C975 C18 1.573 . S
C980 C158 1.573 . S
C1005 C32 1.573 . S
C1010 C116 1.573 . S
C1035 C130 1.573 . S
C1040 C46 1.573 . S
C1065 C200 1.573 . S
C1070 C60 1.573 . S
C1095 C214 1.573 . S
C1100 C74 1.573 . S
C1125 C172 1.573 . S
C1130 C88 1.573 . S
C1155 C102 1.573 . S
C1160 C186 1.573 . S
