# Generated by pormake.
# Topology umg, (4)-cn, num edge types: 1
# Building blocks:
#     Node 0, Type 0, BuildingBlock: MUDLON_clean_sbu_0, # of connection points: 4
#     Node 1, Type 0, BuildingBlock: MUDLON_clean_sbu_0, # of connection points: 4
#     Node 2, Type 0, BuildingBlock: MUDLON_clean_sbu_0, # of connection points: 4
#     Node 3, Type 0, BuildingBlock: MUDLON_clean_sbu_0, # of connection points: 4
#     Node 4, Type 0, BuildingBlock: MUDLON_clean_sbu_0, # of connection points: 4
#     Node 5, Type 0, BuildingBlock: MUDLON_clean_sbu_0, # of connection points: 4
#     Node 6, Type 0, BuildingBlock: MUDLON_clean_sbu_0, # of connection points: 4
#     Node 7, Type 0, BuildingBlock: MUDLON_clean_sbu_0, # of connection points: 4
#     Node 8, Type 0, BuildingBlock: MUDLON_clean_sbu_0, # of connection points: 4
#     Node 9, Type 0, BuildingBlock: MUDLON_clean_sbu_0, # of connection points: 4
#     Node 10, Type 0, BuildingBlock: MUDLON_clean_sbu_0, # of connection points: 4
#     Node 11, Type 0, BuildingBlock: MUDLON_clean_sbu_0, # of connection points: 4
#     Edge 12, Type (0, 0), BuildingBlock: UVAHIK_clean_linker_0, # of connection points: 2
#     Edge 13, Type (0, 0), BuildingBlock: UVAHIK_clean_linker_0, # of connection points: 2
#     Edge 14, Type (0, 0), BuildingBlock: UVAHIK_clean_linker_0, # of connection points: 2
#     Edge 15, Type (0, 0), BuildingBlock: UVAHIK_clean_linker_0, # of connection points: 2
#     Edge 16, Type (0, 0), BuildingBlock: UVAHIK_clean_linker_0, # of connection points: 2
#     Edge 17, Type (0, 0), BuildingBlock: UVAHIK_clean_linker_0, # of connection points: 2
#     Edge 18, Type (0, 0), BuildingBlock: UVAHIK_clean_linker_0, # of connection points: 2
#     Edge 19, Type (0, 0), BuildingBlock: UVAHIK_clean_linker_0, # of connection points: 2
#     Edge 20, Type (0, 0), BuildingBlock: UVAHIK_clean_linker_0, # of connection points: 2
#     Edge 21, Type (0, 0), BuildingBlock: UVAHIK_clean_linker_0, # of connection points: 2
#     Edge 22, Type (0, 0), BuildingBlock: UVAHIK_clean_linker_0, # of connection points: 2
#     Edge 23, Type (0, 0), BuildingBlock: UVAHIK_clean_linker_0, # of connection points: 2
#     Edge 24, Type (0, 0), BuildingBlock: UVAHIK_clean_linker_0, # of connection points: 2
#     Edge 25, Type (0, 0), BuildingBlock: UVAHIK_clean_linker_0, # of connection points: 2
#     Edge 26, Type (0, 0), BuildingBlock: UVAHIK_clean_linker_0, # of connection points: 2
#     Edge 27, Type (0, 0), BuildingBlock: UVAHIK_clean_linker_0, # of connection points: 2
#     Edge 28, Type (0, 0), BuildingBlock: UVAHIK_clean_linker_0, # of connection points: 2
#     Edge 29, Type (0, 0), BuildingBlock: UVAHIK_clean_linker_0, # of connection points: 2
#     Edge 30, Type (0, 0), BuildingBlock: UVAHIK_clean_linker_0, # of connection points: 2
#     Edge 31, Type (0, 0), BuildingBlock: UVAHIK_clean_linker_0, # of connection points: 2
#     Edge 32, Type (0, 0), BuildingBlock: UVAHIK_clean_linker_0, # of connection points: 2
#     Edge 33, Type (0, 0), BuildingBlock: UVAHIK_clean_linker_0, # of connection points: 2
#     Edge 34, Type (0, 0), BuildingBlock: UVAHIK_clean_linker_0, # of connection points: 2
#     Edge 35, Type (0, 0), BuildingBlock: UVAHIK_clean_linker_0, # of connection points: 2
# Relax obj value: 0.016
# Max RMSD: 0.186
# Mean RMSD: 0.186
data_MOF--net-umg--node1-MUDLON_clean_sbu_0--edge1-UVAHIK_clean_linker_0
_symmetry_space_group_name_H-M    P1
_symmetry_Int_Tables_number       1
_symmetry_cell_setting            triclinic
loop_
_symmetry_equiv_pos_as_xyz
'x, y, z'
_cell_length_a     38.468773
_cell_length_b     38.47353
_cell_length_c     115.36089
_cell_angle_alpha  90.152209
_cell_angle_beta   89.97434
_cell_angle_gamma 119.94091
loop_
_atom_site_label
_atom_site_type_symbol
_atom_site_fract_x
_atom_site_fract_y
_atom_site_fract_z
_atom_type_partial_charge
Mg0 Mg 0.32238 0.6144 0.09664 0.0
C1 C 0.31728 0.66141 0.076 0.0
O2 O 0.28421 0.65459 0.08127 0.0
C3 C 0.37004 0.65853 0.11853 0.0
O4 O 0.39899 0.65513 0.11361 0.0
C5 C 0.38811 0.5971 0.09148 0.0
O6 O 0.40059 0.63189 0.08641 0.0
O7 O 0.35405 0.58037 0.09648 0.0
O8 O 0.34003 0.65064 0.08089 0.0
O9 O 0.25671 0.57859 0.09629 0.0
C10 C 0.23858 0.5948 0.10118 0.0
O11 O 0.26016 0.62959 0.10636 0.0
O12 O 0.33736 0.64694 0.11306 0.0
Mg13 Mg 0.72572 0.3081 0.4293 0.0
C14 C 0.67285 0.30311 0.4089 0.0
O15 O 0.6471 0.26979 0.41413 0.0
C16 C 0.72924 0.31888 0.45431 0.0
O17 O 0.75139 0.30248 0.45206 0.0
C18 C 0.80723 0.37563 0.42565 0.0
O19 O 0.78378 0.39037 0.4232 0.0
O20 O 0.79106 0.33879 0.42844 0.0
O21 O 0.70644 0.326 0.41374 0.0
O22 O 0.69485 0.24249 0.4294 0.0
C23 C 0.66105 0.22519 0.43455 0.0
O24 O 0.6487 0.24755 0.43972 0.0
O25 O 0.71283 0.3265 0.44587 0.0
Mg26 Mg 0.42674 0.71412 0.76496 0.0
C27 C 0.38522 0.66915 0.74282 0.0
O28 O 0.40015 0.64673 0.74619 0.0
C29 C 0.41738 0.70242 0.79003 0.0
O30 O 0.45447 0.71122 0.78794 0.0
C31 C 0.44101 0.79583 0.76604 0.0
O32 O 0.40218 0.7725 0.7675 0.0
O33 O 0.46243 0.77942 0.76463 0.0
O34 O 0.38946 0.69777 0.74933 0.0
O35 O 0.46004 0.68156 0.76497 0.0
C36 C 0.44007 0.64536 0.76844 0.0
O37 O 0.40265 0.6314 0.77166 0.0
O38 O 0.39537 0.70063 0.78155 0.0
Mg39 Mg 0.7316 0.43143 0.09767 0.0
C40 C 0.6753 0.37782 0.0786 0.0
O41 O 0.65086 0.38795 0.08354 0.0
C42 C 0.69737 0.37493 0.11951 0.0
O43 O 0.66727 0.3494 0.11302 0.0
C44 C 0.66838 0.45264 0.103 0.0
O45 O 0.65753 0.42079 0.10945 0.0
O46 O 0.70042 0.46605 0.09704 0.0
O47 O 0.70923 0.38894 0.08326 0.0
O48 O 0.79661 0.46609 0.09538 0.0
C49 C 0.81264 0.44547 0.09229 0.0
O50 O 0.78918 0.40703 0.0902 0.0
O51 O 0.725 0.40718 0.11507 0.0
Mg52 Mg 0.31562 0.71792 0.42886 0.0
C53 C 0.30887 0.66869 0.40737 0.0
O54 O 0.27222 0.64665 0.41133 0.0
C55 C 0.32522 0.72128 0.45389 0.0
O56 O 0.30907 0.74355 0.45151 0.0
C57 C 0.23303 0.6529 0.43381 0.0
O58 O 0.2557 0.63996 0.43842 0.0
O59 O 0.25005 0.68732 0.42903 0.0
O60 O 0.3341 0.69854 0.41334 0.0
O61 O 0.34639 0.78335 0.42809 0.0
C62 C 0.38291 0.79982 0.4249 0.0
O63 O 0.39759 0.77667 0.42197 0.0
O64 O 0.33313 0.70476 0.44551 0.0
Mg65 Mg 0.61058 0.30536 0.76721 0.0
C66 C 0.62739 0.33327 0.74304 0.0
O67 O 0.59173 0.32867 0.74506 0.0
C68 C 0.62565 0.29775 0.79177 0.0
O69 O 0.58862 0.26873 0.79006 0.0
C70 C 0.59824 0.22428 0.76444 0.0
O71 O 0.63716 0.24812 0.76339 0.0
O72 O 0.57635 0.24006 0.76606 0.0
O73 O 0.64519 0.326 0.75117 0.0
O74 O 0.57644 0.33668 0.76858 0.0
C75 C 0.5986 0.37472 0.76852 0.0
O76 O 0.63767 0.39001 0.76789 0.0
O77 O 0.64517 0.31959 0.7832 0.0
Mg78 Mg 0.42654 0.7178 0.5992 0.0
C79 C 0.38374 0.67082 0.62089 0.0
O80 O 0.39783 0.64797 0.61718 0.0
C81 C 0.4207 0.7176 0.57412 0.0
O82 O 0.45925 0.73706 0.57653 0.0
C83 C 0.44193 0.651 0.5949 0.0
O84 O 0.40533 0.63756 0.59098 0.0
O85 O 0.46077 0.68638 0.59909 0.0
O86 O 0.38882 0.70033 0.6147 0.0
O87 O 0.46152 0.78315 0.59985 0.0
C88 C 0.43975 0.79939 0.5991 0.0
O89 O 0.40075 0.77593 0.59807 0.0
O90 O 0.39594 0.70419 0.58251 0.0
Mg91 Mg 0.723 0.41739 0.93577 0.0
C92 C 0.67007 0.36963 0.95621 0.0
O93 O 0.64434 0.3775 0.95106 0.0
C94 C 0.73175 0.4075 0.91093 0.0
O95 O 0.75918 0.44479 0.91318 0.0
C96 C 0.80507 0.43278 0.94046 0.0
O97 O 0.78208 0.39548 0.9438 0.0
O98 O 0.78845 0.45217 0.93679 0.0
O99 O 0.70354 0.38018 0.95133 0.0
O100 O 0.6919 0.452 0.93559 0.0
C101 C 0.658 0.43538 0.93048 0.0
O102 O 0.64569 0.40064 0.92534 0.0
O103 O 0.71013 0.3857 0.91924 0.0
Mg104 Mg 0.3147 0.71218 0.26332 0.0
C105 C 0.30785 0.66403 0.28502 0.0
O106 O 0.27128 0.64147 0.28103 0.0
C107 C 0.36364 0.7156 0.24174 0.0
O108 O 0.39261 0.74737 0.24688 0.0
C109 C 0.3807 0.7949 0.26844 0.0
O110 O 0.39347 0.77236 0.27322 0.0
O111 O 0.3463 0.77783 0.26361 0.0
O112 O 0.33295 0.69367 0.27901 0.0
O113 O 0.24898 0.68232 0.26352 0.0
C114 C 0.23081 0.64839 0.25842 0.0
O115 O 0.25235 0.63528 0.25315 0.0
O116 O 0.33035 0.695 0.24695 0.0
Mg117 Mg 0.60992 0.30935 0.59859 0.0
C118 C 0.62729 0.33617 0.62283 0.0
O119 O 0.59144 0.33127 0.62095 0.0
C120 C 0.62058 0.30492 0.57383 0.0
O121 O 0.58246 0.27964 0.57585 0.0
C122 C 0.59797 0.37863 0.59793 0.0
O123 O 0.63697 0.39378 0.59881 0.0
O124 O 0.57575 0.34062 0.59754 0.0
O125 O 0.64512 0.32954 0.61455 0.0
O126 O 0.57579 0.24399 0.59944 0.0
C127 C 0.598 0.22821 0.60007 0.0
O128 O 0.6371 0.25206 0.6003 0.0
O129 O 0.64315 0.32378 0.58237 0.0
Mg130 Mg 0.31415 0.59995 0.93335 0.0
C131 C 0.31009 0.65014 0.95322 0.0
O132 O 0.27564 0.64042 0.94828 0.0
C133 C 0.335 0.65905 0.91218 0.0
O134 O 0.32343 0.67989 0.91851 0.0
C135 C 0.229 0.57731 0.92766 0.0
O136 O 0.24927 0.6084 0.9209 0.0
O137 O 0.24826 0.5649 0.93374 0.0
O138 O 0.33327 0.63988 0.94834 0.0
O139 O 0.34426 0.56479 0.93509 0.0
C140 C 0.38087 0.58505 0.9382 0.0
O141 O 0.39589 0.62335 0.94056 0.0
O142 O 0.33443 0.62832 0.91645 0.0
Mg143 Mg 0.72335 0.30362 0.26511 0.0
C144 C 0.67166 0.29782 0.28598 0.0
O145 O 0.6456 0.26444 0.28078 0.0
C146 C 0.73152 0.34884 0.24274 0.0
O147 O 0.76851 0.37042 0.24652 0.0
C148 C 0.65933 0.22029 0.25965 0.0
O149 O 0.64667 0.24229 0.25447 0.0
O150 O 0.69299 0.23795 0.26489 0.0
O151 O 0.70495 0.3207 0.28103 0.0
O152 O 0.78908 0.33462 0.26542 0.0
C153 C 0.80652 0.36877 0.27042 0.0
O154 O 0.78429 0.38159 0.27542 0.0
O155 O 0.70573 0.32087 0.24909 0.0
C156 C 0.29187 0.6758 0.97087 0.0
C157 C 0.31842 0.66622 0.96523 0.0
C158 C 0.29608 0.68501 0.9827 0.0
C159 C 0.36461 0.70952 1.00812 0.0
H160 H 0.26474 0.65504 0.02523 0.0
C161 C 0.35524 0.67497 0.05727 0.0
C162 C 0.3243 0.67502 0.06376 0.0
C163 C 0.35801 0.68186 0.04531 0.0
C164 C 0.2929 0.67113 0.02061 0.0
H165 H 0.37163 0.66102 0.96752 0.0
H166 H 0.37862 0.67649 0.98816 0.0
H167 H 0.26342 0.6532 1.0042 0.0
H168 H 0.27362 0.685 0.06286 0.0
H169 H 0.27882 0.69756 0.04208 0.0
H170 H 0.39405 0.72644 0.02465 0.0
C171 C 0.35473 0.67729 0.98343 0.0
C172 C 0.29215 0.67009 1.00851 0.0
C173 C 0.35061 0.66824 0.97158 0.0
C174 C 0.29762 0.68438 0.05813 0.0
C175 C 0.30043 0.69133 0.04618 0.0
C176 C 0.36536 0.71051 0.02027 0.0
C177 C 0.32685 0.6847 0.98922 0.0
C178 C 0.32798 0.68889 1.00209 0.0
C179 C 0.32995 0.68904 0.03956 0.0
C180 C 0.32951 0.69096 0.02666 0.0
H181 H 0.26694 0.67488 0.96623 0.0
H182 H 0.27458 0.69141 0.98682 0.0
H183 H 0.39275 0.72475 1.00346 0.0
H184 H 0.37632 0.66787 0.06133 0.0
H185 H 0.38097 0.67961 0.04049 0.0
C186 C 0.69637 0.34133 0.39022 0.0
C187 C 0.66572 0.31026 0.39673 0.0
C188 C 0.6918 0.3442 0.37829 0.0
C189 C 0.63667 0.27923 0.3536 0.0
H190 H 0.68264 0.37922 0.33657 0.0
C191 C 0.62899 0.27913 0.30385 0.0
C192 C 0.66494 0.30552 0.29816 0.0
C193 C 0.62465 0.28307 0.31574 0.0
C194 C 0.66979 0.35104 0.3412 0.0
H195 H 0.60517 0.25951 0.3959 0.0
H196 H 0.59701 0.26491 0.37516 0.0
H197 H 0.68276 0.38036 0.35776 0.0
H198 H 0.72378 0.35807 0.30042 0.0
H199 H 0.71639 0.36462 0.32115 0.0
H200 H 0.62459 0.24987 0.33713 0.0
C201 C 0.62495 0.28652 0.37922 0.0
C202 C 0.66985 0.3517 0.35334 0.0
C203 C 0.62954 0.28359 0.39114 0.0
C204 C 0.69568 0.33718 0.30452 0.0
C205 C 0.69136 0.34106 0.31642 0.0
C206 C 0.63662 0.27857 0.34149 0.0
C207 C 0.65645 0.31614 0.37258 0.0
C208 C 0.65367 0.31579 0.35969 0.0
C209 C 0.65617 0.31343 0.32224 0.0
C210 C 0.65356 0.31446 0.33512 0.0
H211 H 0.72464 0.36242 0.39424 0.0
H212 H 0.71679 0.36723 0.37345 0.0
H213 H 0.62468 0.25101 0.35817 0.0
H214 H 0.60457 0.2546 0.29921 0.0
H215 H 0.59683 0.26174 0.3199 0.0
C216 C 0.36254 0.69424 0.72594 0.0
C217 C 0.36935 0.66474 0.73085 0.0
C218 C 0.35327 0.69279 0.71414 0.0
C219 C 0.32211 0.62688 0.68794 0.0
H220 H 0.38623 0.72673 0.67147 0.0
C221 C 0.36344 0.63367 0.63972 0.0
C222 C 0.3681 0.66595 0.6329 0.0
C223 C 0.35437 0.63183 0.65151 0.0
C224 C 0.36742 0.69871 0.67591 0.0
H225 H 0.36948 0.60938 0.72734 0.0
H226 H 0.3536 0.60697 0.70687 0.0
H227 H 0.38647 0.72651 0.69256 0.0
H228 H 0.36468 0.72055 0.63303 0.0
H229 H 0.34853 0.71716 0.65363 0.0
H230 H 0.30412 0.5989 0.67125 0.0
C231 C 0.35517 0.63115 0.71209 0.0
C232 C 0.36756 0.69858 0.68804 0.0
C233 C 0.36456 0.63268 0.72385 0.0
C234 C 0.36144 0.69532 0.63803 0.0
C235 C 0.35246 0.69354 0.64986 0.0
C236 C 0.32198 0.62701 0.6758 0.0
C237 C 0.35037 0.66169 0.70701 0.0
C238 C 0.34568 0.66252 0.6942 0.0
C239 C 0.34974 0.66224 0.6568 0.0
C240 C 0.34541 0.66278 0.66964 0.0
H241 H 0.3659 0.71931 0.73109 0.0
H242 H 0.34923 0.7165 0.71053 0.0
H243 H 0.30436 0.59868 0.69241 0.0
H244 H 0.36828 0.61047 0.63605 0.0
H245 H 0.35291 0.6075 0.65659 0.0
C246 C 0.63027 0.35068 0.06124 0.0
C247 C 0.66678 0.36075 0.0667 0.0
C248 C 0.6247 0.34109 0.04944 0.0
C249 C 0.66796 0.31694 0.02374 0.0
H250 H 0.62244 0.37216 1.00704 0.0
C251 C 0.69367 0.35418 0.97477 0.0
C252 C 0.66302 0.35499 0.96835 0.0
C253 C 0.6892 0.34634 0.98669 0.0
C254 C 0.63452 0.35583 1.01154 0.0
H255 H 0.72517 0.36614 0.06416 0.0
H256 H 0.71567 0.34997 0.04357 0.0
H257 H 0.6231 0.37317 0.02807 0.0
H258 H 0.60256 0.34547 0.96928 0.0
H259 H 0.59455 0.3312 0.98998 0.0
H260 H 0.68039 0.30065 1.00709 0.0
C261 C 0.69114 0.34913 0.04841 0.0
C262 C 0.63488 0.35639 0.02364 0.0
C263 C 0.69666 0.35858 0.06024 0.0
C264 C 0.62693 0.34547 0.97397 0.0
C265 C 0.62242 0.33753 0.98587 0.0
C266 C 0.66762 0.3164 1.01159 0.0
C267 C 0.65555 0.34147 0.04278 0.0
C268 C 0.65205 0.33741 0.02991 0.0
C269 C 0.65393 0.33903 0.99245 0.0
C270 C 0.65133 0.33629 1.00534 0.0
H271 H 0.60646 0.35168 0.06598 0.0
H272 H 0.59657 0.33448 0.04544 0.0
H273 H 0.68099 0.30159 0.02829 0.0
H274 H 0.72189 0.36137 0.97072 0.0
H275 H 0.71421 0.34802 0.99148 0.0
C276 C 0.28868 0.62751 0.30398 0.0
C277 C 0.3175 0.65884 0.29713 0.0
C278 C 0.29523 0.62564 0.31582 0.0
C279 C 0.35103 0.69222 0.34011 0.0
H280 H 0.30986 0.59234 0.357 0.0
C281 C 0.35477 0.69056 0.39008 0.0
C282 C 0.31845 0.66261 0.39533 0.0
C283 C 0.36112 0.68782 0.37823 0.0
C284 C 0.32145 0.6205 0.35242 0.0
H285 H 0.37685 0.71161 0.29727 0.0
H286 H 0.38843 0.70811 0.31794 0.0
H287 H 0.30957 0.59152 0.33584 0.0
H288 H 0.26128 0.6086 0.39236 0.0
H289 H 0.27219 0.60403 0.37179 0.0
H290 H 0.36179 0.72111 0.35664 0.0
C291 C 0.36045 0.68531 0.31416 0.0
C292 C 0.32128 0.62003 0.34028 0.0
C293 C 0.35392 0.68715 0.3023 0.0
C294 C 0.28957 0.63071 0.3886 0.0
C295 C 0.29595 0.62794 0.37679 0.0
C296 C 0.35119 0.69269 0.35223 0.0
C297 C 0.33078 0.65507 0.32113 0.0
C298 C 0.33531 0.65581 0.33397 0.0
C299 C 0.33137 0.65701 0.37139 0.0
C300 C 0.33564 0.65676 0.35854 0.0
H301 H 0.2603 0.60516 0.30029 0.0
H302 H 0.27154 0.60215 0.32091 0.0
H303 H 0.36153 0.7203 0.33556 0.0
H304 H 0.37772 0.71544 0.39501 0.0
H305 H 0.389 0.71037 0.37439 0.0
C306 C 0.67282 0.33447 0.7271 0.0
C307 C 0.6446 0.34455 0.73126 0.0
C308 C 0.68485 0.34115 0.71544 0.0
C309 C 0.68449 0.39654 0.68912 0.0
H310 H 0.67024 0.3032 0.67214 0.0
C311 C 0.63028 0.36522 0.64234 0.0
C312 C 0.64467 0.34704 0.63462 0.0
C313 C 0.64268 0.37182 0.65388 0.0
C314 C 0.67532 0.32989 0.67675 0.0
H315 H 0.60853 0.37135 0.72667 0.0
H316 H 0.62962 0.38327 0.70655 0.0
H317 H 0.67016 0.3026 0.69332 0.0
H318 H 0.6844 0.32259 0.63285 0.0
H319 H 0.70583 0.33367 0.65325 0.0
H320 H 0.68768 0.4231 0.67259 0.0
C321 C 0.64255 0.37024 0.71219 0.0
C322 C 0.67527 0.32955 0.6889 0.0
C323 C 0.63019 0.3631 0.72372 0.0
C324 C 0.67292 0.3368 0.6386 0.0
C325 C 0.68499 0.34292 0.65027 0.0
C326 C 0.68454 0.39688 0.67701 0.0
C327 C 0.66942 0.35869 0.70783 0.0
C328 C 0.67822 0.36226 0.6952 0.0
C329 C 0.66956 0.36007 0.65806 0.0
C330 C 0.67831 0.36295 0.67069 0.0
H331 H 0.68432 0.32 0.73272 0.0
H332 H 0.70569 0.33204 0.71234 0.0
H333 H 0.68761 0.42251 0.69373 0.0
H334 H 0.60859 0.37359 0.63952 0.0
H335 H 0.62974 0.38455 0.65965 0.0
C336 C 0.33332 0.68112 0.22293 0.0
C337 C 0.36757 0.70697 0.22942 0.0
C338 C 0.33612 0.67603 0.21103 0.0
C339 C 0.40311 0.72474 0.18569 0.0
H340 H 0.32913 0.62419 0.1707 0.0
C341 C 0.40958 0.68625 0.13693 0.0
C342 C 0.3728 0.66964 0.13096 0.0
C343 C 0.41117 0.69264 0.14893 0.0
C344 C 0.34986 0.6525 0.17477 0.0
H345 H 0.43195 0.74654 0.22856 0.0
H346 H 0.43718 0.7364 0.20789 0.0
H347 H 0.3288 0.62947 0.19173 0.0
H348 H 0.30903 0.64769 0.13291 0.0
H349 H 0.31186 0.65822 0.15382 0.0
H350 H 0.42471 0.74714 0.16859 0.0
C351 C 0.40785 0.721 0.2119 0.0
C352 C 0.3496 0.65566 0.18684 0.0
C353 C 0.40495 0.72655 0.2238 0.0
C354 C 0.33788 0.66059 0.13721 0.0
C355 C 0.3394 0.66634 0.1492 0.0
C356 C 0.4038 0.72131 0.17361 0.0
C357 C 0.37336 0.69613 0.20531 0.0
C358 C 0.37575 0.69202 0.19248 0.0
C359 C 0.37593 0.68189 0.15521 0.0
C360 C 0.37674 0.68534 0.16803 0.0
H361 H 0.30397 0.66583 0.22695 0.0
H362 H 0.30871 0.65722 0.20629 0.0
H363 H 0.42332 0.75342 0.18964 0.0
H364 H 0.437 0.69356 0.13237 0.0
H365 H 0.43972 0.70465 0.15336 0.0
C366 C 0.73876 0.31432 0.47555 0.0
C367 C 0.72232 0.32602 0.46652 0.0
C368 C 0.73104 0.31884 0.48711 0.0
C369 C 0.65748 0.32803 0.50545 0.0
H370 H 0.73599 0.34849 0.52948 0.0
C371 C 0.61074 0.28672 0.55284 0.0
C372 C 0.63563 0.31176 0.56175 0.0
C373 C 0.62345 0.29343 0.54133 0.0
C374 C 0.71383 0.34328 0.5229 0.0
H375 H 0.68573 0.35277 0.46257 0.0
H376 H 0.67268 0.36132 0.48284 0.0
H377 H 0.7554 0.35389 0.50918 0.0
H378 H 0.69367 0.3635 0.56552 0.0
H379 H 0.71587 0.37565 0.54529 0.0
H380 H 0.61607 0.31796 0.51915 0.0
C381 C 0.69106 0.34798 0.48095 0.0
C382 C 0.72483 0.34589 0.51123 0.0
C383 C 0.69868 0.34328 0.46933 0.0
C384 C 0.67386 0.34357 0.55886 0.0
C385 C 0.68657 0.35046 0.54728 0.0
C386 C 0.64657 0.32567 0.51711 0.0
C387 C 0.70684 0.33542 0.48999 0.0
C388 C 0.69653 0.33736 0.50235 0.0
C389 C 0.66134 0.32559 0.53835 0.0
C390 C 0.67431 0.33228 0.52599 0.0
H391 H 0.75706 0.30084 0.47373 0.0
H392 H 0.74312 0.30811 0.49379 0.0
H393 H 0.63478 0.32102 0.49889 0.0
H394 H 0.58123 0.26171 0.55475 0.0
H395 H 0.60359 0.27301 0.53477 0.0
C396 C 0.421 0.68257 0.81031 0.0
C397 C 0.40258 0.69511 0.80211 0.0
C398 C 0.40935 0.6777 0.82191 0.0
C399 C 0.36947 0.7141 0.84421 0.0
H400 H 0.34907 0.61779 0.86055 0.0
C401 C 0.32962 0.68915 0.89341 0.0
C402 C 0.34414 0.66779 0.8997 0.0
C403 C 0.33443 0.69303 0.88134 0.0
C404 C 0.35522 0.64516 0.85619 0.0
H405 H 0.35738 0.71233 0.79962 0.0
H406 H 0.33751 0.70466 0.82015 0.0
H407 H 0.36 0.6222 0.8397 0.0
H408 H 0.37703 0.63575 0.89839 0.0
H409 H 0.38682 0.64382 0.87757 0.0
H410 H 0.36635 0.73781 0.86077 0.0
C411 C 0.36074 0.69828 0.81748 0.0
C412 C 0.36111 0.64747 0.84421 0.0
C413 C 0.3719 0.70239 0.80575 0.0
C414 C 0.36506 0.65197 0.89377 0.0
C415 C 0.37031 0.65628 0.88179 0.0
C416 C 0.36408 0.71203 0.85627 0.0
C417 C 0.37944 0.68589 0.82565 0.0
C418 C 0.36888 0.68214 0.83813 0.0
C419 C 0.35423 0.67598 0.87535 0.0
C420 C 0.3576 0.67777 0.86244 0.0
H421 H 0.44467 0.67665 0.80776 0.0
H422 H 0.42447 0.66842 0.82803 0.0
H423 H 0.37573 0.74132 0.83973 0.0
H424 H 0.31317 0.70149 0.89773 0.0
H425 H 0.32147 0.70824 0.87669 0.0
C426 C 0.73068 0.39637 0.13887 0.0
C427 C 0.69772 0.36888 0.1322 0.0
C428 C 0.7303 0.39311 0.15092 0.0
C429 C 0.68239 0.32356 0.17531 0.0
H430 H 0.72582 0.42234 0.19306 0.0
C431 C 0.68499 0.32506 0.22556 0.0
C432 C 0.72165 0.35342 0.23061 0.0
C433 C 0.67785 0.32693 0.21374 0.0
C434 C 0.71378 0.3945 0.18824 0.0
H435 H 0.63883 0.31567 0.13299 0.0
H436 H 0.63817 0.30998 0.15414 0.0
H437 H 0.72169 0.42437 0.17203 0.0
H438 H 0.7789 0.4068 0.22726 0.0
H439 H 0.76649 0.41003 0.20674 0.0
H440 H 0.67505 0.29379 0.19156 0.0
C441 C 0.66438 0.33402 0.14998 0.0
C442 C 0.71146 0.39565 0.17618 0.0
C443 C 0.66473 0.33731 0.13787 0.0
C444 C 0.75033 0.38449 0.22367 0.0
C445 C 0.74312 0.38645 0.21189 0.0
C446 C 0.68471 0.3224 0.18741 0.0
C447 C 0.69694 0.36231 0.15665 0.0
C448 C 0.69644 0.36031 0.16954 0.0
C449 C 0.70709 0.35733 0.20673 0.0
C450 C 0.70109 0.35797 0.194 0.0
H451 H 0.75678 0.42089 0.13482 0.0
H452 H 0.75628 0.41486 0.15576 0.0
H453 H 0.67091 0.29583 0.17046 0.0
H454 H 0.66225 0.30071 0.23066 0.0
H455 H 0.64959 0.30433 0.21006 0.0
C456 C 0.43592 0.72945 0.55299 0.0
C457 C 0.40732 0.71183 0.56186 0.0
C458 C 0.42419 0.72469 0.54138 0.0
C459 C 0.3375 0.70081 0.52259 0.0
H460 H 0.4059 0.69457 0.49893 0.0
C461 C 0.32701 0.73728 0.47494 0.0
C462 C 0.33291 0.71546 0.46613 0.0
C463 C 0.3334 0.73194 0.48654 0.0
C464 C 0.3861 0.69572 0.5054 0.0
H465 H 0.34381 0.67493 0.56546 0.0
H466 H 0.32319 0.66616 0.54509 0.0
H467 H 0.42106 0.69238 0.51932 0.0
H468 H 0.35008 0.67069 0.46262 0.0
H469 H 0.36087 0.66094 0.48299 0.0
H470 H 0.30227 0.70367 0.50868 0.0
C471 C 0.35477 0.68414 0.54716 0.0
C472 C 0.3951 0.695 0.51712 0.0
C473 C 0.36657 0.68903 0.55883 0.0
C474 C 0.34544 0.68809 0.4692 0.0
C475 C 0.35171 0.6826 0.48087 0.0
C476 C 0.32839 0.70135 0.51087 0.0
C477 C 0.3835 0.70199 0.53829 0.0
C478 C 0.37144 0.69844 0.52586 0.0
C479 C 0.34567 0.70444 0.4897 0.0
C480 C 0.35309 0.69972 0.50213 0.0
H481 H 0.46759 0.74737 0.55498 0.0
H482 H 0.44712 0.7396 0.53484 0.0
H483 H 0.31868 0.70371 0.52905 0.0
H484 H 0.3176 0.75881 0.4729 0.0
H485 H 0.32932 0.74997 0.49304 0.0
C486 C 0.69188 0.35561 0.89571 0.0
C487 C 0.72507 0.39275 0.89879 0.0
C488 C 0.68455 0.34364 0.88405 0.0
C489 C 0.70689 0.38663 0.85454 0.0
H490 H 0.66608 0.27651 0.84477 0.0
C491 C 0.67906 0.34105 0.80621 0.0
C492 C 0.64241 0.30633 0.80368 0.0
C493 C 0.69262 0.35043 0.81768 0.0
C494 C 0.67727 0.30737 0.84737 0.0
H495 H 0.77745 0.44566 0.8921 0.0
H496 H 0.76498 0.42464 0.87194 0.0
H497 H 0.68246 0.29459 0.86516 0.0
H498 H 0.59205 0.25351 0.8112 0.0
H499 H 0.61545 0.26998 0.83108 0.0
H500 H 0.70119 0.39939 0.83683 0.0
C501 C 0.74411 0.40507 0.87844 0.0
C502 C 0.68658 0.3177 0.85906 0.0
C503 C 0.75136 0.41702 0.89004 0.0
C504 C 0.62038 0.28057 0.81282 0.0
C505 C 0.63395 0.28986 0.82425 0.0
C506 C 0.69759 0.37632 0.84287 0.0
C507 C 0.71028 0.36856 0.87526 0.0
C508 C 0.7013 0.35743 0.8628 0.0
C509 C 0.66991 0.3252 0.82686 0.0
C510 C 0.68238 0.33651 0.83915 0.0
H511 H 0.67103 0.33625 0.90224 0.0
H512 H 0.65804 0.31544 0.8819 0.0
H513 H 0.71752 0.4174 0.85713 0.0
H514 H 0.69679 0.36147 0.79937 0.0
H515 H 0.72074 0.37764 0.81938 0.0
C516 C 0.87321 0.44035 0.0873 0.0
C517 C 0.85684 0.46291 0.09192 0.0
C518 C 0.91449 0.45478 0.08772 0.0
C519 C 1.01308 0.54707 0.09233 0.0
H520 H 0.0482 0.47099 0.09959 0.0
C521 C 0.17628 0.59789 0.10514 0.0
C522 C 0.19445 0.57733 0.10026 0.0
C523 C 0.13523 0.58341 0.10382 0.0
C524 C 0.03892 0.49253 0.09742 0.0
H525 H 0.87127 0.51887 0.1004 0.0
H526 H 0.94343 0.54394 0.1013 0.0
H527 H 0.97676 0.44776 0.09776 0.0
H528 H 0.18331 0.52484 0.09033 0.0
H529 H 0.11119 0.4993 0.08807 0.0
H530 H 0.07531 0.59191 0.09218 0.0
C531 C 0.92433 0.51521 0.09719 0.0
C532 C 0.99791 0.47924 0.09636 0.0
C533 C 0.88292 0.50081 0.09672 0.0
C534 C 0.17027 0.54137 0.09421 0.0
C535 C 0.12896 0.52671 0.09294 0.0
C536 C 0.05405 0.56037 0.09346 0.0
C537 C 0.94061 0.49212 0.09283 0.0
C538 C 0.9844 0.50634 0.09382 0.0
C539 C 0.11107 0.54786 0.09763 0.0
C540 C 0.06748 0.5333 0.09607 0.0
H541 H 0.85406 0.41116 0.08345 0.0
H542 H 0.92591 0.43653 0.08403 0.0
H543 H 1.00392 0.5687 0.09018 0.0
H544 H 0.19384 0.62559 0.10991 0.0
H545 H 0.12234 0.60006 0.10772 0.0
C546 C 0.64491 0.15625 0.42785 0.0
C547 C 0.63407 0.18105 0.43397 0.0
C548 C 0.61801 0.11493 0.42687 0.0
C549 C 0.52489 0.03181 0.4399 0.0
H550 H 0.51614 0.97892 0.41052 0.0
C551 C 0.39785 0.86933 0.43049 0.0
C552 C 0.40966 0.844 0.42513 0.0
C553 C 0.42466 0.91069 0.43134 0.0
C554 C 0.5184 0.99318 0.41881 0.0
H555 H 0.58654 0.18165 0.44397 0.0
H556 H 0.53983 0.11029 0.44213 0.0
H557 H 0.56513 0.05 0.41275 0.0
H558 H 0.45861 0.84251 0.41622 0.0
H559 H 0.50501 0.91425 0.41768 0.0
H560 H 0.47794 0.97499 0.44593 0.0
C561 C 0.56921 0.12239 0.43822 0.0
C562 C 0.54664 0.03393 0.42011 0.0
C563 C 0.59604 0.16351 0.43922 0.0
C564 C 0.44847 0.86109 0.42041 0.0
C565 C 0.47508 0.90233 0.42118 0.0
C566 C 0.49654 0.99112 0.43859 0.0
C567 C 0.57967 0.09751 0.43198 0.0
C568 C 0.55028 0.05382 0.43067 0.0
C569 C 0.46371 0.92763 0.42676 0.0
C570 C 0.49298 0.97127 0.42803 0.0
H571 H 0.67398 0.16877 0.42372 0.0
H572 H 0.62731 0.09662 0.42214 0.0
H573 H 0.52722 0.0459 0.44823 0.0
H574 H 0.3682 0.85713 0.43422 0.0
H575 H 0.41482 0.92943 0.43558 0.0
C576 C 0.60694 0.44334 0.76722 0.0
C577 C 0.58151 0.40183 0.76869 0.0
C578 C 0.59159 0.46945 0.76724 0.0
C579 C 0.49722 0.47229 0.76354 0.0
H580 H 0.55916 0.57738 0.77773 0.0
C581 C 0.43264 0.57747 0.77104 0.0
C582 C 0.45732 0.6184 0.76846 0.0
C583 C 0.44803 0.55139 0.77098 0.0
C584 C 0.54172 0.54832 0.77362 0.0
H585 H 0.51984 0.35524 0.77138 0.0
H586 H 0.49296 0.40099 0.77164 0.0
H587 H 0.58459 0.53067 0.77815 0.0
H588 H 0.51776 0.66403 0.76387 0.0
H589 H 0.54483 0.61831 0.76383 0.0
H590 H 0.45411 0.48989 0.75917 0.0
C591 C 0.52482 0.41328 0.77028 0.0
C592 C 0.55627 0.52147 0.77385 0.0
C593 C 0.54023 0.38703 0.7702 0.0
C594 C 0.49796 0.63269 0.76589 0.0
C595 C 0.51348 0.60654 0.76592 0.0
C596 C 0.48256 0.49906 0.76338 0.0
C597 C 0.55035 0.45488 0.7688 0.0
C598 C 0.53429 0.48311 0.76879 0.0
C599 C 0.48859 0.56552 0.76842 0.0
C600 C 0.50464 0.53741 0.76841 0.0
H601 H 0.63888 0.45583 0.76595 0.0
H602 H 0.61211 0.50109 0.76584 0.0
H603 H 0.47977 0.44335 0.75938 0.0
H604 H 0.4012 0.56535 0.77308 0.0
H605 H 0.42817 0.52013 0.7731 0.0
C606 C 0.53949 0.15745 0.5995 0.0
C607 C 0.58102 0.18406 0.6003 0.0
C608 C 0.52422 0.11586 0.59952 0.0
C609 C 0.55451 0.03943 0.59413 0.0
H610 H 0.4578 0.96924 0.61122 0.0
C611 C 0.49863 0.86984 0.60042 0.0
C612 C 0.45709 0.84359 0.59938 0.0
C613 C 0.51423 0.91149 0.60068 0.0
C614 C 0.48465 0.98836 0.60631 0.0
H615 H 0.63897 0.18767 0.60188 0.0
H616 H 0.61245 0.11566 0.60204 0.0
H617 H 0.48324 0.04135 0.61125 0.0
H618 H 0.39946 0.84069 0.59775 0.0
H619 H 0.42656 0.91276 0.59809 0.0
H620 H 0.55589 0.98643 0.58917 0.0
C621 C 0.59162 0.12672 0.60121 0.0
C622 C 0.49919 0.02974 0.60631 0.0
C623 C 0.60682 0.16813 0.60119 0.0
C624 C 0.43161 0.85992 0.5986 0.0
C625 C 0.44713 0.90137 0.59888 0.0
C626 C 0.53997 0.99804 0.59413 0.0
C627 C 0.55016 0.09999 0.60032 0.0
C628 C 0.53431 0.05583 0.60022 0.0
C629 C 0.48861 0.92774 0.59994 0.0
C630 C 0.50479 0.97195 0.60019 0.0
H631 H 0.51879 0.16872 0.59878 0.0
H632 H 0.49214 0.09614 0.59871 0.0
H633 H 0.58131 0.05853 0.58919 0.0
H634 H 0.51907 0.85825 0.60105 0.0
H635 H 0.54631 0.93094 0.60161 0.0
C636 C 0.39555 0.52962 0.93348 0.0
C637 C 0.40747 0.56738 0.93841 0.0
C638 C 0.42239 0.51496 0.93293 0.0
C639 C 0.53175 0.55021 0.93389 0.0
H640 H 0.49618 0.43743 0.93806 0.0
C641 C 0.64203 0.48852 0.93699 0.0
C642 C 0.63089 0.45245 0.93107 0.0
C643 C 0.61511 0.50297 0.93796 0.0
C644 C 0.50655 0.46899 0.93677 0.0
H645 H 0.45647 0.61862 0.94703 0.0
H646 H 0.50261 0.59283 0.9463 0.0
H647 H 0.44801 0.46082 0.93983 0.0
H648 H 0.58286 0.40371 0.92137 0.0
H649 H 0.53636 0.42891 0.92302 0.0
H650 H 0.59034 0.55835 0.9309 0.0
C651 C 0.473 0.57488 0.94257 0.0
C652 C 0.47888 0.4824 0.93777 0.0
C653 C 0.44635 0.58956 0.94307 0.0
C654 C 0.59249 0.43153 0.92603 0.0
C655 C 0.56562 0.44582 0.92704 0.0
C656 C 0.55944 0.53682 0.93295 0.0
C657 C 0.46168 0.53768 0.93734 0.0
C658 C 0.49108 0.5232 0.93633 0.0
C659 C 0.57641 0.48153 0.93309 0.0
C660 C 0.54717 0.49603 0.93434 0.0
H661 H 0.36588 0.51185 0.92977 0.0
H662 H 0.41267 0.48633 0.92874 0.0
H663 H 0.54218 0.58173 0.93251 0.0
H664 H 0.67131 0.50533 0.941 0.0
H665 H 0.62428 0.53048 0.94274 0.0
C666 C 0.16787 0.58536 0.25307 0.0
C667 C 0.1866 0.62201 0.25914 0.0
C668 C 0.12676 0.55876 0.25421 0.0
C669 C 0.04149 0.53182 0.27398 0.0
H670 H 0.97801 0.47096 0.24749 0.0
C671 C 0.86883 0.43242 0.27582 0.0
C672 C 0.85068 0.39566 0.2698 0.0
C673 C 0.90987 0.45948 0.27472 0.0
C674 C 0.9954 0.4873 0.25501 0.0
H675 H 0.1764 0.65972 0.27103 0.0
H676 H 0.10424 0.6133 0.27295 0.0
H677 H 0.0486 0.52073 0.2449 0.0
H678 H 0.86181 0.35827 0.25804 0.0
H679 H 0.93376 0.40549 0.25618 0.0
H680 H 0.98824 0.49838 0.28409 0.0
C681 C 0.12165 0.605 0.2674 0.0
C682 C 0.0359 0.51597 0.25352 0.0
C683 C 0.16294 0.63176 0.26623 0.0
C684 C 0.87482 0.38628 0.26281 0.0
C685 C 0.91599 0.41351 0.26166 0.0
C686 C 1.00097 0.50317 0.27547 0.0
C687 C 0.1031 0.56799 0.26146 0.0
C688 C 0.05954 0.53855 0.26299 0.0
C689 C 0.93396 0.45062 0.26754 0.0
C690 C 0.97739 0.48048 0.26601 0.0
H691 H 0.18509 0.57677 0.24753 0.0
H692 H 0.11373 0.5304 0.24963 0.0
H693 H 0.05889 0.54812 0.2815 0.0
H694 H 0.8512 0.44071 0.28128 0.0
H695 H 0.92249 0.48789 0.27926 0.0
C696 C 0.64976 0.50135 0.09437 0.0
C697 C 0.64148 0.46985 0.10205 0.0
C698 C 0.62261 0.51541 0.0931 0.0
C699 C 0.51548 0.48392 0.09751 0.0
H700 H 0.55209 0.59752 0.09524 0.0
C701 C 0.40633 0.54696 0.09915 0.0
C702 C 0.41504 0.57985 0.092 0.0
C703 C 0.43357 0.53294 0.10015 0.0
C704 C 0.54132 0.56563 0.09571 0.0
H705 H 0.59855 0.42915 0.11464 0.0
H706 H 0.55177 0.45376 0.11249 0.0
H707 H 0.60096 0.5752 0.09738 0.0
H708 H 0.4587 0.62296 0.08002 0.0
H709 H 0.50551 0.59815 0.08159 0.0
H710 H 0.45587 0.47428 0.0958 0.0
C711 C 0.57882 0.46722 0.1073 0.0
C712 C 0.56941 0.55286 0.09694 0.0
C713 C 0.60588 0.45331 0.10858 0.0
C714 C 0.4511 0.59774 0.08568 0.0
C715 C 0.47817 0.58369 0.08664 0.0
C716 C 0.4874 0.49667 0.09624 0.0
C717 C 0.58657 0.49815 0.09946 0.0
C718 C 0.55684 0.51186 0.0979 0.0
C719 C 0.47007 0.55144 0.094 0.0
C720 C 0.49992 0.53771 0.09534 0.0
H721 H 0.67683 0.51469 0.08918 0.0
H722 H 0.6294 0.53913 0.08693 0.0
H723 H 0.50476 0.45205 0.09804 0.0
H724 H 0.37892 0.53261 0.10417 0.0
H725 H 0.42646 0.50825 0.10597 0.0
C726 C 0.86804 0.44191 0.42152 0.0
C727 C 0.85138 0.40254 0.42576 0.0
C728 C 0.90929 0.46854 0.42217 0.0
C729 C 0.99934 0.48814 0.43853 0.0
H730 H 0.05627 0.55972 0.41304 0.0
C731 C 0.17168 0.58733 0.43819 0.0
C732 C 0.18888 0.626 0.43339 0.0
C733 C 0.13049 0.56068 0.43735 0.0
C734 C 0.04075 0.54038 0.42031 0.0
H735 H 0.86524 0.36011 0.43385 0.0
H736 H 0.93759 0.40678 0.43498 0.0
H737 H 0.98503 0.51097 0.41106 0.0
H738 H 0.17596 0.66719 0.42413 0.0
H739 H 0.10367 0.62078 0.42284 0.0
H740 H 0.05484 0.51771 0.44784 0.0
C741 C 0.9185 0.41703 0.43122 0.0
C742 C 0.99991 0.51228 0.41915 0.0
C743 C 0.87712 0.39021 0.4305 0.0
C744 C 0.16369 0.63762 0.4279 0.0
C745 C 0.1223 0.61088 0.42708 0.0
C746 C 0.04012 0.51634 0.43971 0.0
C747 C 0.93502 0.45661 0.42713 0.0
C748 C 0.97872 0.48578 0.42824 0.0
C749 C 0.10521 0.57195 0.43174 0.0
C750 C 0.06143 0.54278 0.4306 0.0
H751 H 0.84913 0.45246 0.41781 0.0
H752 H 0.92091 0.49888 0.41905 0.0
H753 H 0.98377 0.46867 0.44577 0.0
H754 H 0.19013 0.57723 0.44245 0.0
H755 H 0.11863 0.53083 0.44089 0.0
C756 C 0.54018 0.15363 0.76611 0.0
C757 C 0.58118 0.18014 0.76413 0.0
C758 C 0.52498 0.11206 0.76617 0.0
C759 C 0.54838 0.03374 0.75651 0.0
H760 H 0.47125 0.96911 0.78004 0.0
C761 C 0.49951 0.86616 0.76391 0.0
C762 C 0.45846 0.84004 0.76594 0.0
C763 C 0.51509 0.90781 0.76371 0.0
C764 C 0.4925 0.98664 0.77334 0.0
H765 H 0.63824 0.18361 0.76054 0.0
H766 H 0.6119 0.11161 0.76073 0.0
H767 H 0.49603 0.04103 0.77934 0.0
H768 H 0.40166 0.83735 0.76938 0.0
H769 H 0.42862 0.90937 0.76894 0.0
H770 H 0.54483 0.97929 0.75052 0.0
C771 C 0.59132 0.12272 0.76211 0.0
C772 C 0.50663 0.0279 0.77292 0.0
C773 C 0.60647 0.16413 0.76208 0.0
C774 C 0.43346 0.8565 0.76782 0.0
C775 C 0.44898 0.89793 0.76764 0.0
C776 C 0.53424 0.99245 0.75693 0.0
C777 C 0.55043 0.09611 0.7642 0.0
C778 C 0.53474 0.052 0.7645 0.0
C779 C 0.48996 0.92418 0.76559 0.0
C780 C 0.50603 0.96835 0.76533 0.0
H781 H 0.51988 0.16496 0.76771 0.0
H782 H 0.49323 0.0924 0.76768 0.0
H783 H 0.56962 0.05128 0.74981 0.0
H784 H 0.51958 0.85447 0.76244 0.0
H785 H 0.5469 0.9272 0.76221 0.0
C786 C 0.43523 0.58361 0.59173 0.0
C787 C 0.45913 0.62402 0.59505 0.0
C788 C 0.45037 0.55734 0.59211 0.0
C789 C 0.54399 0.5537 0.59191 0.0
H790 H 0.4776 0.44725 0.60467 0.0
C791 C 0.60617 0.44705 0.59981 0.0
C792 C 0.58105 0.40584 0.59768 0.0
C793 C 0.59107 0.47335 0.59953 0.0
C794 C 0.49635 0.47662 0.60092 0.0
H795 H 0.51799 0.66858 0.60126 0.0
H796 H 0.54465 0.62256 0.60184 0.0
H797 H 0.4524 0.49415 0.60416 0.0
H798 H 0.52017 0.35993 0.59358 0.0
H799 H 0.49379 0.40604 0.59285 0.0
H800 H 0.58771 0.53613 0.5885 0.0
C801 C 0.51411 0.61134 0.59893 0.0
C802 C 0.48194 0.50358 0.60067 0.0
C803 C 0.49881 0.63766 0.59864 0.0
C804 C 0.54029 0.39149 0.59529 0.0
C805 C 0.52516 0.41794 0.59493 0.0
C806 C 0.5583 0.52666 0.59208 0.0
C807 C 0.48991 0.5708 0.59574 0.0
C808 C 0.50561 0.54244 0.59617 0.0
C809 C 0.55043 0.45928 0.59702 0.0
C810 C 0.53473 0.48776 0.59663 0.0
H811 H 0.40455 0.572 0.5889 0.0
H812 H 0.43114 0.52648 0.58944 0.0
H813 H 0.56271 0.58319 0.58823 0.0
H814 H 0.63768 0.45916 0.60177 0.0
H815 H 0.6113 0.50474 0.60142 0.0
C816 C 0.16212 0.52769 0.93635 0.0
C817 C 0.185 0.56011 0.9289 0.0
C818 C 0.12103 0.5136 0.9379 0.0
C819 C 0.04577 0.54613 0.93537 0.0
H820 H 0.96817 0.43244 0.93539 0.0
C821 C 0.87416 0.48543 0.93404 0.0
C822 C 0.84924 0.45011 0.9402 0.0
C823 C 0.9154 0.49945 0.93308 0.0
C824 C 0.98944 0.46431 0.93559 0.0
H825 H 0.18228 0.60257 0.91709 0.0
H826 H 0.11114 0.57806 0.91981 0.0
H827 H 0.03923 0.45473 0.933 0.0
H828 H 0.84841 0.40272 0.95056 0.0
H829 H 0.92005 0.4276 0.94915 0.0
H830 H 0.99619 0.55584 0.93804 0.0
C831 C 0.1249 0.56377 0.92454 0.0
C832 C 0.03021 0.47705 0.93419 0.0
C833 C 0.16572 0.57762 0.92293 0.0
C834 C 0.86665 0.42985 0.94566 0.0
C835 C 0.90779 0.44397 0.94477 0.0
C836 C 1.00504 0.53341 0.93684 0.0
C837 C 0.1021 0.53186 0.93212 0.0
C838 C 0.05884 0.51812 0.93399 0.0
C839 C 0.93269 0.47861 0.93833 0.0
C840 C 0.97626 0.49232 0.93692 0.0
H841 H 0.17603 0.51358 0.9411 0.0
H842 H 0.1043 0.48903 0.94384 0.0
H843 H 0.06714 0.578 0.93542 0.0
H844 H 0.86165 0.50161 0.92968 0.0
H845 H 0.9335 0.52602 0.92795 0.0
C846 C 0.44454 0.85676 0.27397 0.0
C847 C 0.40762 0.83906 0.26805 0.0
C848 C 0.47143 0.89791 0.27315 0.0
C849 C 0.49856 0.98532 0.25441 0.0
H850 H 0.55906 0.04614 0.2813 0.0
C851 C 0.59624 0.15793 0.25398 0.0
C852 C 0.63287 0.17605 0.26005 0.0
C853 C 0.56966 0.11672 0.25479 0.0
C854 C 0.54285 0.02951 0.27366 0.0
H855 H 0.36978 0.85108 0.25678 0.0
H856 H 0.41677 0.92324 0.25542 0.0
H857 H 0.50963 0.97516 0.2833 0.0
H858 H 0.67055 0.16473 0.27158 0.0
H859 H 0.62419 0.09242 0.27292 0.0
H860 H 0.53181 0.03961 0.24476 0.0
C861 C 0.42502 0.90503 0.2606 0.0
C862 C 0.51438 0.9888 0.27482 0.0
C863 C 0.39795 0.86373 0.26145 0.0
C864 C 0.6426 0.15174 0.2668 0.0
C865 C 0.61587 0.11035 0.26763 0.0
C866 C 0.52707 0.02601 0.25325 0.0
C867 C 0.46223 0.92257 0.26639 0.0
C868 C 0.49184 0.96617 0.26521 0.0
C869 C 0.5789 0.09238 0.2617 0.0
C870 C 0.54954 0.04868 0.26286 0.0
H871 H 0.45305 0.83872 0.27913 0.0
H872 H 0.49995 0.91023 0.27761 0.0
H873 H 0.48229 0.96868 0.24678 0.0
H874 H 0.58766 0.17567 0.2487 0.0
H875 H 0.54132 0.10413 0.25023 0.0
loop_
_geom_bond_atom_site_label_1
_geom_bond_atom_site_label_2
_geom_bond_distance
_geom_bond_site_symmetry_2
_ccdc_geom_bond_type
Mg0 O7 2.141 . S
Mg0 O8 2.048 . S
Mg0 O9 2.048 . S
Mg0 O12 2.141 . S
C1 O2 1.313 . S
C1 O8 1.195 . S
O2 C1 1.313 . S
C3 O4 1.245 . S
C3 O12 1.289 . S
O4 C3 1.245 . S
C5 O6 1.245 . S
C5 O7 1.289 . S
O6 C5 1.245 . S
O7 Mg0 2.141 . S
O7 C5 1.289 . S
O8 Mg0 2.048 . S
O8 C1 1.195 . S
O9 Mg0 2.048 . S
O9 C10 1.195 . S
C10 O9 1.195 . S
C10 O11 1.313 . S
O11 C10 1.313 . S
O12 Mg0 2.141 . S
O12 C3 1.289 . S
Mg13 O20 2.141 . S
Mg13 O21 2.048 . S
Mg13 O22 2.048 . S
Mg13 O25 2.141 . S
C14 O15 1.313 . S
C14 O21 1.195 . S
O15 C14 1.313 . S
C16 O17 1.245 . S
C16 O25 1.289 . S
O17 C16 1.245 . S
C18 O19 1.245 . S
C18 O20 1.289 . S
O19 C18 1.245 . S
O20 Mg13 2.141 . S
O20 C18 1.289 . S
O21 Mg13 2.048 . S
O21 C14 1.195 . S
O22 Mg13 2.048 . S
O22 C23 1.195 . S
C23 O22 1.195 . S
C23 O24 1.313 . S
O24 C23 1.313 . S
O25 Mg13 2.141 . S
O25 C16 1.289 . S
Mg26 O33 2.141 . S
Mg26 O34 2.048 . S
Mg26 O35 2.048 . S
Mg26 O38 2.141 . S
C27 O28 1.313 . S
C27 O34 1.195 . S
O28 C27 1.313 . S
C29 O30 1.245 . S
C29 O38 1.289 . S
O30 C29 1.245 . S
C31 O32 1.245 . S
C31 O33 1.289 . S
O32 C31 1.245 . S
O33 Mg26 2.141 . S
O33 C31 1.289 . S
O34 Mg26 2.048 . S
O34 C27 1.195 . S
O35 Mg26 2.048 . S
O35 C36 1.195 . S
C36 O35 1.195 . S
C36 O37 1.313 . S
O37 C36 1.313 . S
O38 Mg26 2.141 . S
O38 C29 1.289 . S
Mg39 O46 2.141 . S
Mg39 O47 2.048 . S
Mg39 O48 2.048 . S
Mg39 O51 2.141 . S
C40 O41 1.313 . S
C40 O47 1.195 . S
O41 C40 1.313 . S
C42 O43 1.245 . S
C42 O51 1.289 . S
O43 C42 1.245 . S
C44 O45 1.245 . S
C44 O46 1.289 . S
O45 C44 1.245 . S
O46 Mg39 2.141 . S
O46 C44 1.289 . S
O47 Mg39 2.048 . S
O47 C40 1.195 . S
O48 Mg39 2.048 . S
O48 C49 1.195 . S
C49 O48 1.195 . S
C49 O50 1.313 . S
O50 C49 1.313 . S
O51 Mg39 2.141 . S
O51 C42 1.289 . S
Mg52 O59 2.141 . S
Mg52 O60 2.048 . S
Mg52 O61 2.048 . S
Mg52 O64 2.141 . S
C53 O54 1.313 . S
C53 O60 1.195 . S
O54 C53 1.313 . S
C55 O56 1.245 . S
C55 O64 1.289 . S
O56 C55 1.245 . S
C57 O58 1.245 . S
C57 O59 1.289 . S
O58 C57 1.245 . S
O59 Mg52 2.141 . S
O59 C57 1.289 . S
O60 Mg52 2.048 . S
O60 C53 1.195 . S
O61 Mg52 2.048 . S
O61 C62 1.195 . S
C62 O61 1.195 . S
C62 O63 1.313 . S
O63 C62 1.313 . S
O64 Mg52 2.141 . S
O64 C55 1.289 . S
Mg65 O72 2.141 . S
Mg65 O73 2.048 . S
Mg65 O74 2.048 . S
Mg65 O77 2.141 . S
C66 O67 1.313 . S
C66 O73 1.195 . S
O67 C66 1.313 . S
C68 O69 1.245 . S
C68 O77 1.289 . S
O69 C68 1.245 . S
C70 O71 1.245 . S
C70 O72 1.289 . S
O71 C70 1.245 . S
O72 Mg65 2.141 . S
O72 C70 1.289 . S
O73 Mg65 2.048 . S
O73 C66 1.195 . S
O74 Mg65 2.048 . S
O74 C75 1.195 . S
C75 O74 1.195 . S
C75 O76 1.313 . S
O76 C75 1.313 . S
O77 Mg65 2.141 . S
O77 C68 1.289 . S
Mg78 O85 2.141 . S
Mg78 O86 2.048 . S
Mg78 O87 2.048 . S
Mg78 O90 2.141 . S
C79 O80 1.313 . S
C79 O86 1.195 . S
O80 C79 1.313 . S
C81 O82 1.245 . S
C81 O90 1.289 . S
O82 C81 1.245 . S
C83 O84 1.245 . S
C83 O85 1.289 . S
O84 C83 1.245 . S
O85 Mg78 2.141 . S
O85 C83 1.289 . S
O86 Mg78 2.048 . S
O86 C79 1.195 . S
O87 Mg78 2.048 . S
O87 C88 1.195 . S
C88 O87 1.195 . S
C88 O89 1.313 . S
O89 C88 1.313 . S
O90 Mg78 2.141 . S
O90 C81 1.289 . S
Mg91 O98 2.141 . S
Mg91 O99 2.048 . S
Mg91 O100 2.048 . S
Mg91 O103 2.141 . S
C92 O93 1.313 . S
C92 O99 1.195 . S
O93 C92 1.313 . S
C94 O95 1.245 . S
C94 O103 1.289 . S
O95 C94 1.245 . S
C96 O97 1.245 . S
C96 O98 1.289 . S
O97 C96 1.245 . S
O98 Mg91 2.141 . S
O98 C96 1.289 . S
O99 Mg91 2.048 . S
O99 C92 1.195 . S
O100 Mg91 2.048 . S
O100 C101 1.195 . S
C101 O100 1.195 . S
C101 O102 1.313 . S
O102 C101 1.313 . S
O103 Mg91 2.141 . S
O103 C94 1.289 . S
Mg104 O111 2.141 . S
Mg104 O112 2.048 . S
Mg104 O113 2.048 . S
Mg104 O116 2.141 . S
C105 O106 1.313 . S
C105 O112 1.195 . S
O106 C105 1.313 . S
C107 O108 1.245 . S
C107 O116 1.289 . S
O108 C107 1.245 . S
C109 O110 1.245 . S
C109 O111 1.289 . S
O110 C109 1.245 . S
O111 Mg104 2.141 . S
O111 C109 1.289 . S
O112 Mg104 2.048 . S
O112 C105 1.195 . S
O113 Mg104 2.048 . S
O113 C114 1.195 . S
C114 O113 1.195 . S
C114 O115 1.313 . S
O115 C114 1.313 . S
O116 Mg104 2.141 . S
O116 C107 1.289 . S
Mg117 O124 2.141 . S
Mg117 O125 2.048 . S
Mg117 O126 2.048 . S
Mg117 O129 2.141 . S
C118 O119 1.313 . S
C118 O125 1.195 . S
O119 C118 1.313 . S
C120 O121 1.245 . S
C120 O129 1.289 . S
O121 C120 1.245 . S
C122 O123 1.245 . S
C122 O124 1.289 . S
O123 C122 1.245 . S
O124 Mg117 2.141 . S
O124 C122 1.289 . S
O125 Mg117 2.048 . S
O125 C118 1.195 . S
O126 Mg117 2.048 . S
O126 C127 1.195 . S
C127 O126 1.195 . S
C127 O128 1.313 . S
O128 C127 1.313 . S
O129 Mg117 2.141 . S
O129 C120 1.289 . S
Mg130 O137 2.141 . S
Mg130 O138 2.048 . S
Mg130 O139 2.048 . S
Mg130 O142 2.141 . S
C131 O132 1.313 . S
C131 O138 1.195 . S
O132 C131 1.313 . S
C133 O134 1.245 . S
C133 O142 1.289 . S
O134 C133 1.245 . S
C135 O136 1.245 . S
C135 O137 1.289 . S
O136 C135 1.245 . S
O137 Mg130 2.141 . S
O137 C135 1.289 . S
O138 Mg130 2.048 . S
O138 C131 1.195 . S
O139 Mg130 2.048 . S
O139 C140 1.195 . S
C140 O139 1.195 . S
C140 O141 1.313 . S
O141 C140 1.313 . S
O142 Mg130 2.141 . S
O142 C133 1.289 . S
Mg143 O150 2.141 . S
Mg143 O151 2.048 . S
Mg143 O152 2.048 . S
Mg143 O155 2.141 . S
C144 O145 1.313 . S
C144 O151 1.195 . S
O145 C144 1.313 . S
C146 O147 1.245 . S
C146 O155 1.289 . S
O147 C146 1.245 . S
C148 O149 1.245 . S
C148 O150 1.289 . S
O149 C148 1.245 . S
O150 Mg143 2.141 . S
O150 C148 1.289 . S
O151 Mg143 2.048 . S
O151 C144 1.195 . S
O152 Mg143 2.048 . S
O152 C153 1.195 . S
C153 O152 1.195 . S
C153 O154 1.313 . S
O154 C153 1.313 . S
O155 Mg143 2.141 . S
O155 C146 1.289 . S
C156 C157 1.349 . S
C156 C158 1.327 . S
C156 H181 0.950 . S
C157 C156 1.349 . S
C157 C173 1.349 . S
C158 C156 1.327 . S
C158 C177 1.429 . S
C158 H182 0.950 . S
C159 C176 1.574 1_556 S
C159 C178 1.368 . S
C159 H183 0.949 . S
H160 C164 0.949 . S
C161 C162 1.349 . S
C161 C163 1.327 . S
C161 H184 0.950 . S
C162 C161 1.349 . S
C162 C174 1.349 . S
C163 C161 1.327 . S
C163 C179 1.429 . S
C163 H185 0.950 . S
C164 H160 0.949 . S
C164 C172 1.574 1_554 S
C164 C180 1.368 . S
H165 C173 0.950 . S
H166 C171 0.950 . S
H167 C172 0.949 . S
H168 C174 0.950 . S
H169 C175 0.950 . S
H170 C176 0.949 . S
C171 H166 0.950 . S
C171 C173 1.327 . S
C171 C177 1.429 . S
C172 C164 1.574 1_556 S
C172 H167 0.949 . S
C172 C178 1.368 . S
C173 C157 1.349 . S
C173 H165 0.950 . S
C173 C171 1.327 . S
C174 C162 1.349 . S
C174 H168 0.950 . S
C174 C175 1.327 . S
C175 H169 0.950 . S
C175 C174 1.327 . S
C175 C179 1.429 . S
C176 C159 1.574 1_554 S
C176 H170 0.949 . S
C176 C180 1.368 . S
C177 C158 1.429 . S
C177 C171 1.429 . S
C177 C178 1.523 . S
C178 C159 1.368 . S
C178 C172 1.368 . S
C178 C177 1.523 . S
C179 C163 1.429 . S
C179 C175 1.429 . S
C179 C180 1.523 . S
C180 C164 1.368 . S
C180 C176 1.368 . S
C180 C179 1.523 . S
H181 C156 0.950 . S
H182 C158 0.950 . S
H183 C159 0.949 . S
H184 C161 0.950 . S
H185 C163 0.950 . S
C186 C187 1.349 . S
C186 C188 1.327 . S
C186 H211 0.950 . S
C187 C186 1.349 . S
C187 C203 1.349 . S
C188 C186 1.327 . S
C188 C207 1.429 . S
C188 H212 0.950 . S
C189 C206 1.574 . S
C189 C208 1.368 . S
C189 H213 0.949 . S
H190 C194 0.949 . S
C191 C192 1.349 . S
C191 C193 1.327 . S
C191 H214 0.950 . S
C192 C191 1.349 . S
C192 C204 1.349 . S
C193 C191 1.327 . S
C193 C209 1.429 . S
C193 H215 0.950 . S
C194 H190 0.949 . S
C194 C202 1.574 . S
C194 C210 1.368 . S
H195 C203 0.950 . S
H196 C201 0.950 . S
H197 C202 0.949 . S
H198 C204 0.950 . S
H199 C205 0.950 . S
H200 C206 0.949 . S
C201 H196 0.950 . S
C201 C203 1.327 . S
C201 C207 1.429 . S
C202 C194 1.574 . S
C202 H197 0.949 . S
C202 C208 1.368 . S
C203 C187 1.349 . S
C203 H195 0.950 . S
C203 C201 1.327 . S
C204 C192 1.349 . S
C204 H198 0.950 . S
C204 C205 1.327 . S
C205 H199 0.950 . S
C205 C204 1.327 . S
C205 C209 1.429 . S
C206 C189 1.574 . S
C206 H200 0.949 . S
C206 C210 1.368 . S
C207 C188 1.429 . S
C207 C201 1.429 . S
C207 C208 1.523 . S
C208 C189 1.368 . S
C208 C202 1.368 . S
C208 C207 1.523 . S
C209 C193 1.429 . S
C209 C205 1.429 . S
C209 C210 1.523 . S
C210 C194 1.368 . S
C210 C206 1.368 . S
C210 C209 1.523 . S
H211 C186 0.950 . S
H212 C188 0.950 . S
H213 C189 0.949 . S
H214 C191 0.950 . S
H215 C193 0.950 . S
C216 C217 1.349 . S
C216 C218 1.327 . S
C216 H241 0.950 . S
C217 C216 1.349 . S
C217 C233 1.349 . S
C218 C216 1.327 . S
C218 C237 1.429 . S
C218 H242 0.950 . S
C219 C236 1.574 . S
C219 C238 1.368 . S
C219 H243 0.949 . S
H220 C224 0.949 . S
C221 C222 1.349 . S
C221 C223 1.327 . S
C221 H244 0.950 . S
C222 C221 1.349 . S
C222 C234 1.349 . S
C223 C221 1.327 . S
C223 C239 1.429 . S
C223 H245 0.950 . S
C224 H220 0.949 . S
C224 C232 1.574 . S
C224 C240 1.368 . S
H225 C233 0.950 . S
H226 C231 0.950 . S
H227 C232 0.949 . S
H228 C234 0.950 . S
H229 C235 0.950 . S
H230 C236 0.949 . S
C231 H226 0.950 . S
C231 C233 1.327 . S
C231 C237 1.429 . S
C232 C224 1.574 . S
C232 H227 0.949 . S
C232 C238 1.368 . S
C233 C217 1.349 . S
C233 H225 0.950 . S
C233 C231 1.327 . S
C234 C222 1.349 . S
C234 H228 0.950 . S
C234 C235 1.327 . S
C235 H229 0.950 . S
C235 C234 1.327 . S
C235 C239 1.429 . S
C236 C219 1.574 . S
C236 H230 0.949 . S
C236 C240 1.368 . S
C237 C218 1.429 . S
C237 C231 1.429 . S
C237 C238 1.523 . S
C238 C219 1.368 . S
C238 C232 1.368 . S
C238 C237 1.523 . S
C239 C223 1.429 . S
C239 C235 1.429 . S
C239 C240 1.523 . S
C240 C224 1.368 . S
C240 C236 1.368 . S
C240 C239 1.523 . S
H241 C216 0.950 . S
H242 C218 0.950 . S
H243 C219 0.949 . S
H244 C221 0.950 . S
H245 C223 0.950 . S
C246 C247 1.349 . S
C246 C248 1.327 . S
C246 H271 0.950 . S
C247 C246 1.349 . S
C247 C263 1.349 . S
C248 C246 1.327 . S
C248 C267 1.429 . S
C248 H272 0.950 . S
C249 C266 1.574 1_554 S
C249 C268 1.368 . S
C249 H273 0.949 . S
H250 C254 0.949 . S
C251 C252 1.349 . S
C251 C253 1.327 . S
C251 H274 0.950 . S
C252 C251 1.349 . S
C252 C264 1.349 . S
C253 C251 1.327 . S
C253 C269 1.429 . S
C253 H275 0.950 . S
C254 H250 0.949 . S
C254 C262 1.574 1_556 S
C254 C270 1.368 . S
H255 C263 0.950 . S
H256 C261 0.950 . S
H257 C262 0.949 . S
H258 C264 0.950 . S
H259 C265 0.950 . S
H260 C266 0.949 . S
C261 H256 0.950 . S
C261 C263 1.327 . S
C261 C267 1.429 . S
C262 C254 1.574 1_554 S
C262 H257 0.949 . S
C262 C268 1.368 . S
C263 C247 1.349 . S
C263 H255 0.950 . S
C263 C261 1.327 . S
C264 C252 1.349 . S
C264 H258 0.950 . S
C264 C265 1.327 . S
C265 H259 0.950 . S
C265 C264 1.327 . S
C265 C269 1.429 . S
C266 C249 1.574 1_556 S
C266 H260 0.949 . S
C266 C270 1.368 . S
C267 C248 1.429 . S
C267 C261 1.429 . S
C267 C268 1.523 . S
C268 C249 1.368 . S
C268 C262 1.368 . S
C268 C267 1.523 . S
C269 C253 1.429 . S
C269 C265 1.429 . S
C269 C270 1.523 . S
C270 C254 1.368 . S
C270 C266 1.368 . S
C270 C269 1.523 . S
H271 C246 0.950 . S
H272 C248 0.950 . S
H273 C249 0.949 . S
H274 C251 0.950 . S
H275 C253 0.950 . S
C276 C277 1.349 . S
C276 C278 1.327 . S
C276 H301 0.950 . S
C277 C276 1.349 . S
C277 C293 1.349 . S
C278 C276 1.327 . S
C278 C297 1.429 . S
C278 H302 0.950 . S
C279 C296 1.574 . S
C279 C298 1.368 . S
C279 H303 0.949 . S
H280 C284 0.949 . S
C281 C282 1.349 . S
C281 C283 1.327 . S
C281 H304 0.950 . S
C282 C281 1.349 . S
C282 C294 1.349 . S
C283 C281 1.327 . S
C283 C299 1.429 . S
C283 H305 0.950 . S
C284 H280 0.949 . S
C284 C292 1.574 . S
C284 C300 1.368 . S
H285 C293 0.950 . S
H286 C291 0.950 . S
H287 C292 0.949 . S
H288 C294 0.950 . S
H289 C295 0.950 . S
H290 C296 0.949 . S
C291 H286 0.950 . S
C291 C293 1.327 . S
C291 C297 1.429 . S
C292 C284 1.574 . S
C292 H287 0.949 . S
C292 C298 1.368 . S
C293 C277 1.349 . S
C293 H285 0.950 . S
C293 C291 1.327 . S
C294 C282 1.349 . S
C294 H288 0.950 . S
C294 C295 1.327 . S
C295 H289 0.950 . S
C295 C294 1.327 . S
C295 C299 1.429 . S
C296 C279 1.574 . S
C296 H290 0.949 . S
C296 C300 1.368 . S
C297 C278 1.429 . S
C297 C291 1.429 . S
C297 C298 1.523 . S
C298 C279 1.368 . S
C298 C292 1.368 . S
C298 C297 1.523 . S
C299 C283 1.429 . S
C299 C295 1.429 . S
C299 C300 1.523 . S
C300 C284 1.368 . S
C300 C296 1.368 . S
C300 C299 1.523 . S
H301 C276 0.950 . S
H302 C278 0.950 . S
H303 C279 0.949 . S
H304 C281 0.950 . S
H305 C283 0.950 . S
C306 C307 1.349 . S
C306 C308 1.327 . S
C306 H331 0.950 . S
C307 C306 1.349 . S
C307 C323 1.349 . S
C308 C306 1.327 . S
C308 C327 1.429 . S
C308 H332 0.950 . S
C309 C326 1.574 . S
C309 C328 1.368 . S
C309 H333 0.949 . S
H310 C314 0.949 . S
C311 C312 1.349 . S
C311 C313 1.327 . S
C311 H334 0.950 . S
C312 C311 1.349 . S
C312 C324 1.349 . S
C313 C311 1.327 . S
C313 C329 1.429 . S
C313 H335 0.950 . S
C314 H310 0.949 . S
C314 C322 1.574 . S
C314 C330 1.368 . S
H315 C323 0.950 . S
H316 C321 0.950 . S
H317 C322 0.949 . S
H318 C324 0.950 . S
H319 C325 0.950 . S
H320 C326 0.949 . S
C321 H316 0.950 . S
C321 C323 1.327 . S
C321 C327 1.429 . S
C322 C314 1.574 . S
C322 H317 0.949 . S
C322 C328 1.368 . S
C323 C307 1.349 . S
C323 H315 0.950 . S
C323 C321 1.327 . S
C324 C312 1.349 . S
C324 H318 0.950 . S
C324 C325 1.327 . S
C325 H319 0.950 . S
C325 C324 1.327 . S
C325 C329 1.429 . S
C326 C309 1.574 . S
C326 H320 0.949 . S
C326 C330 1.368 . S
C327 C308 1.429 . S
C327 C321 1.429 . S
C327 C328 1.523 . S
C328 C309 1.368 . S
C328 C322 1.368 . S
C328 C327 1.523 . S
C329 C313 1.429 . S
C329 C325 1.429 . S
C329 C330 1.523 . S
C330 C314 1.368 . S
C330 C326 1.368 . S
C330 C329 1.523 . S
H331 C306 0.950 . S
H332 C308 0.950 . S
H333 C309 0.949 . S
H334 C311 0.950 . S
H335 C313 0.950 . S
C336 C337 1.349 . S
C336 C338 1.327 . S
C336 H361 0.950 . S
C337 C336 1.349 . S
C337 C353 1.349 . S
C338 C336 1.327 . S
C338 C357 1.429 . S
C338 H362 0.950 . S
C339 C356 1.574 . S
C339 C358 1.368 . S
C339 H363 0.949 . S
H340 C344 0.949 . S
C341 C342 1.349 . S
C341 C343 1.327 . S
C341 H364 0.950 . S
C342 C341 1.349 . S
C342 C354 1.349 . S
C343 C341 1.327 . S
C343 C359 1.429 . S
C343 H365 0.950 . S
C344 H340 0.949 . S
C344 C352 1.574 . S
C344 C360 1.368 . S
H345 C353 0.950 . S
H346 C351 0.950 . S
H347 C352 0.949 . S
H348 C354 0.950 . S
H349 C355 0.950 . S
H350 C356 0.949 . S
C351 H346 0.950 . S
C351 C353 1.327 . S
C351 C357 1.429 . S
C352 C344 1.574 . S
C352 H347 0.949 . S
C352 C358 1.368 . S
C353 C337 1.349 . S
C353 H345 0.950 . S
C353 C351 1.327 . S
C354 C342 1.349 . S
C354 H348 0.950 . S
C354 C355 1.327 . S
C355 H349 0.950 . S
C355 C354 1.327 . S
C355 C359 1.429 . S
C356 C339 1.574 . S
C356 H350 0.949 . S
C356 C360 1.368 . S
C357 C338 1.429 . S
C357 C351 1.429 . S
C357 C358 1.523 . S
C358 C339 1.368 . S
C358 C352 1.368 . S
C358 C357 1.523 . S
C359 C343 1.429 . S
C359 C355 1.429 . S
C359 C360 1.523 . S
C360 C344 1.368 . S
C360 C356 1.368 . S
C360 C359 1.523 . S
H361 C336 0.950 . S
H362 C338 0.950 . S
H363 C339 0.949 . S
H364 C341 0.950 . S
H365 C343 0.950 . S
C366 C367 1.349 . S
C366 C368 1.327 . S
C366 H391 0.950 . S
C367 C366 1.349 . S
C367 C383 1.349 . S
C368 C366 1.327 . S
C368 C387 1.429 . S
C368 H392 0.950 . S
C369 C386 1.574 . S
C369 C388 1.368 . S
C369 H393 0.949 . S
H370 C374 0.949 . S
C371 C372 1.349 . S
C371 C373 1.327 . S
C371 H394 0.950 . S
C372 C371 1.349 . S
C372 C384 1.349 . S
C373 C371 1.327 . S
C373 C389 1.429 . S
C373 H395 0.950 . S
C374 H370 0.949 . S
C374 C382 1.574 . S
C374 C390 1.368 . S
H375 C383 0.950 . S
H376 C381 0.950 . S
H377 C382 0.949 . S
H378 C384 0.950 . S
H379 C385 0.950 . S
H380 C386 0.949 . S
C381 H376 0.950 . S
C381 C383 1.327 . S
C381 C387 1.429 . S
C382 C374 1.574 . S
C382 H377 0.949 . S
C382 C388 1.368 . S
C383 C367 1.349 . S
C383 H375 0.950 . S
C383 C381 1.327 . S
C384 C372 1.349 . S
C384 H378 0.950 . S
C384 C385 1.327 . S
C385 H379 0.950 . S
C385 C384 1.327 . S
C385 C389 1.429 . S
C386 C369 1.574 . S
C386 H380 0.949 . S
C386 C390 1.368 . S
C387 C368 1.429 . S
C387 C381 1.429 . S
C387 C388 1.523 . S
C388 C369 1.368 . S
C388 C382 1.368 . S
C388 C387 1.523 . S
C389 C373 1.429 . S
C389 C385 1.429 . S
C389 C390 1.523 . S
C390 C374 1.368 . S
C390 C386 1.368 . S
C390 C389 1.523 . S
H391 C366 0.950 . S
H392 C368 0.950 . S
H393 C369 0.949 . S
H394 C371 0.950 . S
H395 C373 0.950 . S
C396 C397 1.349 . S
C396 C398 1.327 . S
C396 H421 0.950 . S
C397 C396 1.349 . S
C397 C413 1.349 . S
C398 C396 1.327 . S
C398 C417 1.429 . S
C398 H422 0.950 . S
C399 C416 1.574 . S
C399 C418 1.368 . S
C399 H423 0.949 . S
H400 C404 0.949 . S
C401 C402 1.349 . S
C401 C403 1.327 . S
C401 H424 0.950 . S
C402 C401 1.349 . S
C402 C414 1.349 . S
C403 C401 1.327 . S
C403 C419 1.429 . S
C403 H425 0.950 . S
C404 H400 0.949 . S
C404 C412 1.574 . S
C404 C420 1.368 . S
H405 C413 0.950 . S
H406 C411 0.950 . S
H407 C412 0.949 . S
H408 C414 0.950 . S
H409 C415 0.950 . S
H410 C416 0.949 . S
C411 H406 0.950 . S
C411 C413 1.327 . S
C411 C417 1.429 . S
C412 C404 1.574 . S
C412 H407 0.949 . S
C412 C418 1.368 . S
C413 C397 1.349 . S
C413 H405 0.950 . S
C413 C411 1.327 . S
C414 C402 1.349 . S
C414 H408 0.950 . S
C414 C415 1.327 . S
C415 H409 0.950 . S
C415 C414 1.327 . S
C415 C419 1.429 . S
C416 C399 1.574 . S
C416 H410 0.949 . S
C416 C420 1.368 . S
C417 C398 1.429 . S
C417 C411 1.429 . S
C417 C418 1.523 . S
C418 C399 1.368 . S
C418 C412 1.368 . S
C418 C417 1.523 . S
C419 C403 1.429 . S
C419 C415 1.429 . S
C419 C420 1.523 . S
C420 C404 1.368 . S
C420 C416 1.368 . S
C420 C419 1.523 . S
H421 C396 0.950 . S
H422 C398 0.950 . S
H423 C399 0.949 . S
H424 C401 0.950 . S
H425 C403 0.950 . S
C426 C427 1.349 . S
C426 C428 1.327 . S
C426 H451 0.950 . S
C427 C426 1.349 . S
C427 C443 1.349 . S
C428 C426 1.327 . S
C428 C447 1.429 . S
C428 H452 0.950 . S
C429 C446 1.574 . S
C429 C448 1.368 . S
C429 H453 0.949 . S
H430 C434 0.949 . S
C431 C432 1.349 . S
C431 C433 1.327 . S
C431 H454 0.950 . S
C432 C431 1.349 . S
C432 C444 1.349 . S
C433 C431 1.327 . S
C433 C449 1.429 . S
C433 H455 0.950 . S
C434 H430 0.949 . S
C434 C442 1.574 . S
C434 C450 1.368 . S
H435 C443 0.950 . S
H436 C441 0.950 . S
H437 C442 0.949 . S
H438 C444 0.950 . S
H439 C445 0.950 . S
H440 C446 0.949 . S
C441 H436 0.950 . S
C441 C443 1.327 . S
C441 C447 1.429 . S
C442 C434 1.574 . S
C442 H437 0.949 . S
C442 C448 1.368 . S
C443 C427 1.349 . S
C443 H435 0.950 . S
C443 C441 1.327 . S
C444 C432 1.349 . S
C444 H438 0.950 . S
C444 C445 1.327 . S
C445 H439 0.950 . S
C445 C444 1.327 . S
C445 C449 1.429 . S
C446 C429 1.574 . S
C446 H440 0.949 . S
C446 C450 1.368 . S
C447 C428 1.429 . S
C447 C441 1.429 . S
C447 C448 1.523 . S
C448 C429 1.368 . S
C448 C442 1.368 . S
C448 C447 1.523 . S
C449 C433 1.429 . S
C449 C445 1.429 . S
C449 C450 1.523 . S
C450 C434 1.368 . S
C450 C446 1.368 . S
C450 C449 1.523 . S
H451 C426 0.950 . S
H452 C428 0.950 . S
H453 C429 0.949 . S
H454 C431 0.950 . S
H455 C433 0.950 . S
C456 C457 1.349 . S
C456 C458 1.327 . S
C456 H481 0.950 . S
C457 C456 1.349 . S
C457 C473 1.349 . S
C458 C456 1.327 . S
C458 C477 1.429 . S
C458 H482 0.950 . S
C459 C476 1.574 . S
C459 C478 1.368 . S
C459 H483 0.949 . S
H460 C464 0.949 . S
C461 C462 1.349 . S
C461 C463 1.327 . S
C461 H484 0.950 . S
C462 C461 1.349 . S
C462 C474 1.349 . S
C463 C461 1.327 . S
C463 C479 1.429 . S
C463 H485 0.950 . S
C464 H460 0.949 . S
C464 C472 1.574 . S
C464 C480 1.368 . S
H465 C473 0.950 . S
H466 C471 0.950 . S
H467 C472 0.949 . S
H468 C474 0.950 . S
H469 C475 0.950 . S
H470 C476 0.949 . S
C471 H466 0.950 . S
C471 C473 1.327 . S
C471 C477 1.429 . S
C472 C464 1.574 . S
C472 H467 0.949 . S
C472 C478 1.368 . S
C473 C457 1.349 . S
C473 H465 0.950 . S
C473 C471 1.327 . S
C474 C462 1.349 . S
C474 H468 0.950 . S
C474 C475 1.327 . S
C475 H469 0.950 . S
C475 C474 1.327 . S
C475 C479 1.429 . S
C476 C459 1.574 . S
C476 H470 0.949 . S
C476 C480 1.368 . S
C477 C458 1.429 . S
C477 C471 1.429 . S
C477 C478 1.523 . S
C478 C459 1.368 . S
C478 C472 1.368 . S
C478 C477 1.523 . S
C479 C463 1.429 . S
C479 C475 1.429 . S
C479 C480 1.523 . S
C480 C464 1.368 . S
C480 C476 1.368 . S
C480 C479 1.523 . S
H481 C456 0.950 . S
H482 C458 0.950 . S
H483 C459 0.949 . S
H484 C461 0.950 . S
H485 C463 0.950 . S
C486 C487 1.349 . S
C486 C488 1.327 . S
C486 H511 0.950 . S
C487 C486 1.349 . S
C487 C503 1.349 . S
C488 C486 1.327 . S
C488 C507 1.429 . S
C488 H512 0.950 . S
C489 C506 1.574 . S
C489 C508 1.368 . S
C489 H513 0.949 . S
H490 C494 0.949 . S
C491 C492 1.349 . S
C491 C493 1.327 . S
C491 H514 0.950 . S
C492 C491 1.349 . S
C492 C504 1.349 . S
C493 C491 1.327 . S
C493 C509 1.429 . S
C493 H515 0.950 . S
C494 H490 0.949 . S
C494 C502 1.574 . S
C494 C510 1.368 . S
H495 C503 0.950 . S
H496 C501 0.950 . S
H497 C502 0.949 . S
H498 C504 0.950 . S
H499 C505 0.950 . S
H500 C506 0.949 . S
C501 H496 0.950 . S
C501 C503 1.327 . S
C501 C507 1.429 . S
C502 C494 1.574 . S
C502 H497 0.949 . S
C502 C508 1.368 . S
C503 C487 1.349 . S
C503 H495 0.950 . S
C503 C501 1.327 . S
C504 C492 1.349 . S
C504 H498 0.950 . S
C504 C505 1.327 . S
C505 H499 0.950 . S
C505 C504 1.327 . S
C505 C509 1.429 . S
C506 C489 1.574 . S
C506 H500 0.949 . S
C506 C510 1.368 . S
C507 C488 1.429 . S
C507 C501 1.429 . S
C507 C508 1.523 . S
C508 C489 1.368 . S
C508 C502 1.368 . S
C508 C507 1.523 . S
C509 C493 1.429 . S
C509 C505 1.429 . S
C509 C510 1.523 . S
C510 C494 1.368 . S
C510 C506 1.368 . S
C510 C509 1.523 . S
H511 C486 0.950 . S
H512 C488 0.950 . S
H513 C489 0.949 . S
H514 C491 0.950 . S
H515 C493 0.950 . S
C516 C517 1.349 . S
C516 C518 1.327 . S
C516 H541 0.950 . S
C517 C516 1.349 . S
C517 C533 1.349 . S
C518 C516 1.327 . S
C518 C537 1.429 . S
C518 H542 0.950 . S
C519 C536 1.574 1_655 S
C519 C538 1.368 . S
C519 H543 0.949 . S
H520 C524 0.949 . S
C521 C522 1.349 . S
C521 C523 1.327 . S
C521 H544 0.950 . S
C522 C521 1.349 . S
C522 C534 1.349 . S
C523 C521 1.327 . S
C523 C539 1.429 . S
C523 H545 0.950 . S
C524 H520 0.949 . S
C524 C532 1.574 1_455 S
C524 C540 1.368 . S
H525 C533 0.950 . S
H526 C531 0.950 . S
H527 C532 0.949 . S
H528 C534 0.950 . S
H529 C535 0.950 . S
H530 C536 0.949 . S
C531 H526 0.950 . S
C531 C533 1.327 . S
C531 C537 1.429 . S
C532 C524 1.574 1_655 S
C532 H527 0.949 . S
C532 C538 1.368 . S
C533 C517 1.349 . S
C533 H525 0.950 . S
C533 C531 1.327 . S
C534 C522 1.349 . S
C534 H528 0.950 . S
C534 C535 1.327 . S
C535 H529 0.950 . S
C535 C534 1.327 . S
C535 C539 1.429 . S
C536 C519 1.574 1_455 S
C536 H530 0.949 . S
C536 C540 1.368 . S
C537 C518 1.429 . S
C537 C531 1.429 . S
C537 C538 1.523 . S
C538 C519 1.368 . S
C538 C532 1.368 . S
C538 C537 1.523 . S
C539 C523 1.429 . S
C539 C535 1.429 . S
C539 C540 1.523 . S
C540 C524 1.368 . S
C540 C536 1.368 . S
C540 C539 1.523 . S
H541 C516 0.950 . S
H542 C518 0.950 . S
H543 C519 0.949 . S
H544 C521 0.950 . S
H545 C523 0.950 . S
C546 C547 1.349 . S
C546 C548 1.327 . S
C546 H571 0.950 . S
C547 C546 1.349 . S
C547 C563 1.349 . S
C548 C546 1.327 . S
C548 C567 1.429 . S
C548 H572 0.950 . S
C549 C566 1.574 1_545 S
C549 C568 1.368 . S
C549 H573 0.949 . S
H550 C554 0.949 . S
C551 C552 1.349 . S
C551 C553 1.327 . S
C551 H574 0.950 . S
C552 C551 1.349 . S
C552 C564 1.349 . S
C553 C551 1.327 . S
C553 C569 1.429 . S
C553 H575 0.950 . S
C554 H550 0.949 . S
C554 C562 1.574 1_565 S
C554 C570 1.368 . S
H555 C563 0.950 . S
H556 C561 0.950 . S
H557 C562 0.949 . S
H558 C564 0.950 . S
H559 C565 0.950 . S
H560 C566 0.949 . S
C561 H556 0.950 . S
C561 C563 1.327 . S
C561 C567 1.429 . S
C562 C554 1.574 1_545 S
C562 H557 0.949 . S
C562 C568 1.368 . S
C563 C547 1.349 . S
C563 H555 0.950 . S
C563 C561 1.327 . S
C564 C552 1.349 . S
C564 H558 0.950 . S
C564 C565 1.327 . S
C565 H559 0.950 . S
C565 C564 1.327 . S
C565 C569 1.429 . S
C566 C549 1.574 1_565 S
C566 H560 0.949 . S
C566 C570 1.368 . S
C567 C548 1.429 . S
C567 C561 1.429 . S
C567 C568 1.523 . S
C568 C549 1.368 . S
C568 C562 1.368 . S
C568 C567 1.523 . S
C569 C553 1.429 . S
C569 C565 1.429 . S
C569 C570 1.523 . S
C570 C554 1.368 . S
C570 C566 1.368 . S
C570 C569 1.523 . S
H571 C546 0.950 . S
H572 C548 0.950 . S
H573 C549 0.949 . S
H574 C551 0.950 . S
H575 C553 0.950 . S
C576 C577 1.349 . S
C576 C578 1.327 . S
C576 H601 0.950 . S
C577 C576 1.349 . S
C577 C593 1.349 . S
C578 C576 1.327 . S
C578 C597 1.429 . S
C578 H602 0.950 . S
C579 C596 1.574 . S
C579 C598 1.368 . S
C579 H603 0.949 . S
H580 C584 0.949 . S
C581 C582 1.349 . S
C581 C583 1.327 . S
C581 H604 0.950 . S
C582 C581 1.349 . S
C582 C594 1.349 . S
C583 C581 1.327 . S
C583 C599 1.429 . S
C583 H605 0.950 . S
C584 H580 0.949 . S
C584 C592 1.574 . S
C584 C600 1.368 . S
H585 C593 0.950 . S
H586 C591 0.950 . S
H587 C592 0.949 . S
H588 C594 0.950 . S
H589 C595 0.950 . S
H590 C596 0.949 . S
C591 H586 0.950 . S
C591 C593 1.327 . S
C591 C597 1.429 . S
C592 C584 1.574 . S
C592 H587 0.949 . S
C592 C598 1.368 . S
C593 C577 1.349 . S
C593 H585 0.950 . S
C593 C591 1.327 . S
C594 C582 1.349 . S
C594 H588 0.950 . S
C594 C595 1.327 . S
C595 H589 0.950 . S
C595 C594 1.327 . S
C595 C599 1.429 . S
C596 C579 1.574 . S
C596 H590 0.949 . S
C596 C600 1.368 . S
C597 C578 1.429 . S
C597 C591 1.429 . S
C597 C598 1.523 . S
C598 C579 1.368 . S
C598 C592 1.368 . S
C598 C597 1.523 . S
C599 C583 1.429 . S
C599 C595 1.429 . S
C599 C600 1.523 . S
C600 C584 1.368 . S
C600 C596 1.368 . S
C600 C599 1.523 . S
H601 C576 0.950 . S
H602 C578 0.950 . S
H603 C579 0.949 . S
H604 C581 0.950 . S
H605 C583 0.950 . S
C606 C607 1.349 . S
C606 C608 1.327 . S
C606 H631 0.950 . S
C607 C606 1.349 . S
C607 C623 1.349 . S
C608 C606 1.327 . S
C608 C627 1.429 . S
C608 H632 0.950 . S
C609 C626 1.574 1_545 S
C609 C628 1.368 . S
C609 H633 0.949 . S
H610 C614 0.949 . S
C611 C612 1.349 . S
C611 C613 1.327 . S
C611 H634 0.950 . S
C612 C611 1.349 . S
C612 C624 1.349 . S
C613 C611 1.327 . S
C613 C629 1.429 . S
C613 H635 0.950 . S
C614 H610 0.949 . S
C614 C622 1.574 1_565 S
C614 C630 1.368 . S
H615 C623 0.950 . S
H616 C621 0.950 . S
H617 C622 0.949 . S
H618 C624 0.950 . S
H619 C625 0.950 . S
H620 C626 0.949 . S
C621 H616 0.950 . S
C621 C623 1.327 . S
C621 C627 1.429 . S
C622 C614 1.574 1_545 S
C622 H617 0.949 . S
C622 C628 1.368 . S
C623 C607 1.349 . S
C623 H615 0.950 . S
C623 C621 1.327 . S
C624 C612 1.349 . S
C624 H618 0.950 . S
C624 C625 1.327 . S
C625 H619 0.950 . S
C625 C624 1.327 . S
C625 C629 1.429 . S
C626 C609 1.574 1_565 S
C626 H620 0.949 . S
C626 C630 1.368 . S
C627 C608 1.429 . S
C627 C621 1.429 . S
C627 C628 1.523 . S
C628 C609 1.368 . S
C628 C622 1.368 . S
C628 C627 1.523 . S
C629 C613 1.429 . S
C629 C625 1.429 . S
C629 C630 1.523 . S
C630 C614 1.368 . S
C630 C626 1.368 . S
C630 C629 1.523 . S
H631 C606 0.950 . S
H632 C608 0.950 . S
H633 C609 0.949 . S
H634 C611 0.950 . S
H635 C613 0.950 . S
C636 C637 1.349 . S
C636 C638 1.327 . S
C636 H661 0.950 . S
C637 C636 1.349 . S
C637 C653 1.349 . S
C638 C636 1.327 . S
C638 C657 1.429 . S
C638 H662 0.950 . S
C639 C656 1.574 . S
C639 C658 1.368 . S
C639 H663 0.949 . S
H640 C644 0.949 . S
C641 C642 1.349 . S
C641 C643 1.327 . S
C641 H664 0.950 . S
C642 C641 1.349 . S
C642 C654 1.349 . S
C643 C641 1.327 . S
C643 C659 1.429 . S
C643 H665 0.950 . S
C644 H640 0.949 . S
C644 C652 1.574 . S
C644 C660 1.368 . S
H645 C653 0.950 . S
H646 C651 0.950 . S
H647 C652 0.949 . S
H648 C654 0.950 . S
H649 C655 0.950 . S
H650 C656 0.949 . S
C651 H646 0.950 . S
C651 C653 1.327 . S
C651 C657 1.429 . S
C652 C644 1.574 . S
C652 H647 0.949 . S
C652 C658 1.368 . S
C653 C637 1.349 . S
C653 H645 0.950 . S
C653 C651 1.327 . S
C654 C642 1.349 . S
C654 H648 0.950 . S
C654 C655 1.327 . S
C655 H649 0.950 . S
C655 C654 1.327 . S
C655 C659 1.429 . S
C656 C639 1.574 . S
C656 H650 0.949 . S
C656 C660 1.368 . S
C657 C638 1.429 . S
C657 C651 1.429 . S
C657 C658 1.523 . S
C658 C639 1.368 . S
C658 C652 1.368 . S
C658 C657 1.523 . S
C659 C643 1.429 . S
C659 C655 1.429 . S
C659 C660 1.523 . S
C660 C644 1.368 . S
C660 C656 1.368 . S
C660 C659 1.523 . S
H661 C636 0.950 . S
H662 C638 0.950 . S
H663 C639 0.949 . S
H664 C641 0.950 . S
H665 C643 0.950 . S
C666 C667 1.349 . S
C666 C668 1.327 . S
C666 H691 0.950 . S
C667 C666 1.349 . S
C667 C683 1.349 . S
C668 C666 1.327 . S
C668 C687 1.429 . S
C668 H692 0.950 . S
C669 C686 1.574 1_455 S
C669 C688 1.368 . S
C669 H693 0.949 . S
H670 C674 0.949 . S
C671 C672 1.349 . S
C671 C673 1.327 . S
C671 H694 0.950 . S
C672 C671 1.349 . S
C672 C684 1.349 . S
C673 C671 1.327 . S
C673 C689 1.429 . S
C673 H695 0.950 . S
C674 H670 0.949 . S
C674 C682 1.574 1_655 S
C674 C690 1.368 . S
H675 C683 0.950 . S
H676 C681 0.950 . S
H677 C682 0.949 . S
H678 C684 0.950 . S
H679 C685 0.950 . S
H680 C686 0.949 . S
C681 H676 0.950 . S
C681 C683 1.327 . S
C681 C687 1.429 . S
C682 C674 1.574 1_455 S
C682 H677 0.949 . S
C682 C688 1.368 . S
C683 C667 1.349 . S
C683 H675 0.950 . S
C683 C681 1.327 . S
C684 C672 1.349 . S
C684 H678 0.950 . S
C684 C685 1.327 . S
C685 H679 0.950 . S
C685 C684 1.327 . S
C685 C689 1.429 . S
C686 C669 1.574 1_655 S
C686 H680 0.949 . S
C686 C690 1.368 . S
C687 C668 1.429 . S
C687 C681 1.429 . S
C687 C688 1.523 . S
C688 C669 1.368 . S
C688 C682 1.368 . S
C688 C687 1.523 . S
C689 C673 1.429 . S
C689 C685 1.429 . S
C689 C690 1.523 . S
C690 C674 1.368 . S
C690 C686 1.368 . S
C690 C689 1.523 . S
H691 C666 0.950 . S
H692 C668 0.950 . S
H693 C669 0.949 . S
H694 C671 0.950 . S
H695 C673 0.950 . S
C696 C697 1.349 . S
C696 C698 1.327 . S
C696 H721 0.950 . S
C697 C696 1.349 . S
C697 C713 1.349 . S
C698 C696 1.327 . S
C698 C717 1.429 . S
C698 H722 0.950 . S
C699 C716 1.574 . S
C699 C718 1.368 . S
C699 H723 0.949 . S
H700 C704 0.949 . S
C701 C702 1.349 . S
C701 C703 1.327 . S
C701 H724 0.950 . S
C702 C701 1.349 . S
C702 C714 1.349 . S
C703 C701 1.327 . S
C703 C719 1.429 . S
C703 H725 0.950 . S
C704 H700 0.949 . S
C704 C712 1.574 . S
C704 C720 1.368 . S
H705 C713 0.950 . S
H706 C711 0.950 . S
H707 C712 0.949 . S
H708 C714 0.950 . S
H709 C715 0.950 . S
H710 C716 0.949 . S
C711 H706 0.950 . S
C711 C713 1.327 . S
C711 C717 1.429 . S
C712 C704 1.574 . S
C712 H707 0.949 . S
C712 C718 1.368 . S
C713 C697 1.349 . S
C713 H705 0.950 . S
C713 C711 1.327 . S
C714 C702 1.349 . S
C714 H708 0.950 . S
C714 C715 1.327 . S
C715 H709 0.950 . S
C715 C714 1.327 . S
C715 C719 1.429 . S
C716 C699 1.574 . S
C716 H710 0.949 . S
C716 C720 1.368 . S
C717 C698 1.429 . S
C717 C711 1.429 . S
C717 C718 1.523 . S
C718 C699 1.368 . S
C718 C712 1.368 . S
C718 C717 1.523 . S
C719 C703 1.429 . S
C719 C715 1.429 . S
C719 C720 1.523 . S
C720 C704 1.368 . S
C720 C716 1.368 . S
C720 C719 1.523 . S
H721 C696 0.950 . S
H722 C698 0.950 . S
H723 C699 0.949 . S
H724 C701 0.950 . S
H725 C703 0.950 . S
C726 C727 1.349 . S
C726 C728 1.327 . S
C726 H751 0.950 . S
C727 C726 1.349 . S
C727 C743 1.349 . S
C728 C726 1.327 . S
C728 C747 1.429 . S
C728 H752 0.950 . S
C729 C746 1.574 1_655 S
C729 C748 1.368 . S
C729 H753 0.949 . S
H730 C734 0.949 . S
C731 C732 1.349 . S
C731 C733 1.327 . S
C731 H754 0.950 . S
C732 C731 1.349 . S
C732 C744 1.349 . S
C733 C731 1.327 . S
C733 C749 1.429 . S
C733 H755 0.950 . S
C734 H730 0.949 . S
C734 C742 1.574 1_455 S
C734 C750 1.368 . S
H735 C743 0.950 . S
H736 C741 0.950 . S
H737 C742 0.949 . S
H738 C744 0.950 . S
H739 C745 0.950 . S
H740 C746 0.949 . S
C741 H736 0.950 . S
C741 C743 1.327 . S
C741 C747 1.429 . S
C742 C734 1.574 1_655 S
C742 H737 0.949 . S
C742 C748 1.368 . S
C743 C727 1.349 . S
C743 H735 0.950 . S
C743 C741 1.327 . S
C744 C732 1.349 . S
C744 H738 0.950 . S
C744 C745 1.327 . S
C745 H739 0.950 . S
C745 C744 1.327 . S
C745 C749 1.429 . S
C746 C729 1.574 1_455 S
C746 H740 0.949 . S
C746 C750 1.368 . S
C747 C728 1.429 . S
C747 C741 1.429 . S
C747 C748 1.523 . S
C748 C729 1.368 . S
C748 C742 1.368 . S
C748 C747 1.523 . S
C749 C733 1.429 . S
C749 C745 1.429 . S
C749 C750 1.523 . S
C750 C734 1.368 . S
C750 C746 1.368 . S
C750 C749 1.523 . S
H751 C726 0.950 . S
H752 C728 0.950 . S
H753 C729 0.949 . S
H754 C731 0.950 . S
H755 C733 0.950 . S
C756 C757 1.349 . S
C756 C758 1.327 . S
C756 H781 0.950 . S
C757 C756 1.349 . S
C757 C773 1.349 . S
C758 C756 1.327 . S
C758 C777 1.429 . S
C758 H782 0.950 . S
C759 C776 1.574 1_545 S
C759 C778 1.368 . S
C759 H783 0.949 . S
H760 C764 0.949 . S
C761 C762 1.349 . S
C761 C763 1.327 . S
C761 H784 0.950 . S
C762 C761 1.349 . S
C762 C774 1.349 . S
C763 C761 1.327 . S
C763 C779 1.429 . S
C763 H785 0.950 . S
C764 H760 0.949 . S
C764 C772 1.574 1_565 S
C764 C780 1.368 . S
H765 C773 0.950 . S
H766 C771 0.950 . S
H767 C772 0.949 . S
H768 C774 0.950 . S
H769 C775 0.950 . S
H770 C776 0.949 . S
C771 H766 0.950 . S
C771 C773 1.327 . S
C771 C777 1.429 . S
C772 C764 1.574 1_545 S
C772 H767 0.949 . S
C772 C778 1.368 . S
C773 C757 1.349 . S
C773 H765 0.950 . S
C773 C771 1.327 . S
C774 C762 1.349 . S
C774 H768 0.950 . S
C774 C775 1.327 . S
C775 H769 0.950 . S
C775 C774 1.327 . S
C775 C779 1.429 . S
C776 C759 1.574 1_565 S
C776 H770 0.949 . S
C776 C780 1.368 . S
C777 C758 1.429 . S
C777 C771 1.429 . S
C777 C778 1.523 . S
C778 C759 1.368 . S
C778 C772 1.368 . S
C778 C777 1.523 . S
C779 C763 1.429 . S
C779 C775 1.429 . S
C779 C780 1.523 . S
C780 C764 1.368 . S
C780 C776 1.368 . S
C780 C779 1.523 . S
H781 C756 0.950 . S
H782 C758 0.950 . S
H783 C759 0.949 . S
H784 C761 0.950 . S
H785 C763 0.950 . S
C786 C787 1.349 . S
C786 C788 1.327 . S
C786 H811 0.950 . S
C787 C786 1.349 . S
C787 C803 1.349 . S
C788 C786 1.327 . S
C788 C807 1.429 . S
C788 H812 0.950 . S
C789 C806 1.574 . S
C789 C808 1.368 . S
C789 H813 0.949 . S
H790 C794 0.949 . S
C791 C792 1.349 . S
C791 C793 1.327 . S
C791 H814 0.950 . S
C792 C791 1.349 . S
C792 C804 1.349 . S
C793 C791 1.327 . S
C793 C809 1.429 . S
C793 H815 0.950 . S
C794 H790 0.949 . S
C794 C802 1.574 . S
C794 C810 1.368 . S
H795 C803 0.950 . S
H796 C801 0.950 . S
H797 C802 0.949 . S
H798 C804 0.950 . S
H799 C805 0.950 . S
H800 C806 0.949 . S
C801 H796 0.950 . S
C801 C803 1.327 . S
C801 C807 1.429 . S
C802 C794 1.574 . S
C802 H797 0.949 . S
C802 C808 1.368 . S
C803 C787 1.349 . S
C803 H795 0.950 . S
C803 C801 1.327 . S
C804 C792 1.349 . S
C804 H798 0.950 . S
C804 C805 1.327 . S
C805 H799 0.950 . S
C805 C804 1.327 . S
C805 C809 1.429 . S
C806 C789 1.574 . S
C806 H800 0.949 . S
C806 C810 1.368 . S
C807 C788 1.429 . S
C807 C801 1.429 . S
C807 C808 1.523 . S
C808 C789 1.368 . S
C808 C802 1.368 . S
C808 C807 1.523 . S
C809 C793 1.429 . S
C809 C805 1.429 . S
C809 C810 1.523 . S
C810 C794 1.368 . S
C810 C806 1.368 . S
C810 C809 1.523 . S
H811 C786 0.950 . S
H812 C788 0.950 . S
H813 C789 0.949 . S
H814 C791 0.950 . S
H815 C793 0.950 . S
C816 C817 1.349 . S
C816 C818 1.327 . S
C816 H841 0.950 . S
C817 C816 1.349 . S
C817 C833 1.349 . S
C818 C816 1.327 . S
C818 C837 1.429 . S
C818 H842 0.950 . S
C819 C836 1.574 1_455 S
C819 C838 1.368 . S
C819 H843 0.949 . S
H820 C824 0.949 . S
C821 C822 1.349 . S
C821 C823 1.327 . S
C821 H844 0.950 . S
C822 C821 1.349 . S
C822 C834 1.349 . S
C823 C821 1.327 . S
C823 C839 1.429 . S
C823 H845 0.950 . S
C824 H820 0.949 . S
C824 C832 1.574 1_655 S
C824 C840 1.368 . S
H825 C833 0.950 . S
H826 C831 0.950 . S
H827 C832 0.949 . S
H828 C834 0.950 . S
H829 C835 0.950 . S
H830 C836 0.949 . S
C831 H826 0.950 . S
C831 C833 1.327 . S
C831 C837 1.429 . S
C832 C824 1.574 1_455 S
C832 H827 0.949 . S
C832 C838 1.368 . S
C833 C817 1.349 . S
C833 H825 0.950 . S
C833 C831 1.327 . S
C834 C822 1.349 . S
C834 H828 0.950 . S
C834 C835 1.327 . S
C835 H829 0.950 . S
C835 C834 1.327 . S
C835 C839 1.429 . S
C836 C819 1.574 1_655 S
C836 H830 0.949 . S
C836 C840 1.368 . S
C837 C818 1.429 . S
C837 C831 1.429 . S
C837 C838 1.523 . S
C838 C819 1.368 . S
C838 C832 1.368 . S
C838 C837 1.523 . S
C839 C823 1.429 . S
C839 C835 1.429 . S
C839 C840 1.523 . S
C840 C824 1.368 . S
C840 C836 1.368 . S
C840 C839 1.523 . S
H841 C816 0.950 . S
H842 C818 0.950 . S
H843 C819 0.949 . S
H844 C821 0.950 . S
H845 C823 0.950 . S
C846 C847 1.349 . S
C846 C848 1.327 . S
C846 H871 0.950 . S
C847 C846 1.349 . S
C847 C863 1.349 . S
C848 C846 1.327 . S
C848 C867 1.429 . S
C848 H872 0.950 . S
C849 C866 1.574 1_565 S
C849 C868 1.368 . S
C849 H873 0.949 . S
H850 C854 0.949 . S
C851 C852 1.349 . S
C851 C853 1.327 . S
C851 H874 0.950 . S
C852 C851 1.349 . S
C852 C864 1.349 . S
C853 C851 1.327 . S
C853 C869 1.429 . S
C853 H875 0.950 . S
C854 H850 0.949 . S
C854 C862 1.574 1_545 S
C854 C870 1.368 . S
H855 C863 0.950 . S
H856 C861 0.950 . S
H857 C862 0.949 . S
H858 C864 0.950 . S
H859 C865 0.950 . S
H860 C866 0.949 . S
C861 H856 0.950 . S
C861 C863 1.327 . S
C861 C867 1.429 . S
C862 C854 1.574 1_565 S
C862 H857 0.949 . S
C862 C868 1.368 . S
C863 C847 1.349 . S
C863 H855 0.950 . S
C863 C861 1.327 . S
C864 C852 1.349 . S
C864 H858 0.950 . S
C864 C865 1.327 . S
C865 H859 0.950 . S
C865 C864 1.327 . S
C865 C869 1.429 . S
C866 C849 1.574 1_545 S
C866 H860 0.949 . S
C866 C870 1.368 . S
C867 C848 1.429 . S
C867 C861 1.429 . S
C867 C868 1.523 . S
C868 C849 1.368 . S
C868 C862 1.368 . S
C868 C867 1.523 . S
C869 C853 1.429 . S
C869 C865 1.429 . S
C869 C870 1.523 . S
C870 C854 1.368 . S
C870 C866 1.368 . S
C870 C869 1.523 . S
H871 C846 0.950 . S
H872 C848 0.950 . S
H873 C849 0.949 . S
H874 C851 0.950 . S
H875 C853 0.950 . S
C157 C131 1.561 . S
C162 C1 1.561 . S
C187 C14 1.561 . S
C192 C144 1.561 . S
C217 C27 1.561 . S
C222 C79 1.561 . S
C247 C40 1.561 . S
C252 C92 1.561 . S
C277 C105 1.561 . S
C282 C53 1.561 . S
C307 C66 1.561 . S
C312 C118 1.561 . S
C337 C107 1.573 . S
C342 C3 1.573 . S
C367 C16 1.573 . S
C372 C120 1.573 . S
C397 C29 1.573 . S
C402 C133 1.573 . S
C427 C42 1.573 . S
C432 C146 1.573 . S
C457 C81 1.573 . S
C462 C55 1.573 . S
C487 C94 1.573 . S
C492 C68 1.573 . S
C517 C49 1.766 . S
C522 C10 1.766 . S
C547 C23 1.765 . S
C552 C62 1.765 . S
C577 C75 1.766 . S
C582 C36 1.766 . S
C607 C127 1.766 . S
C612 C88 1.766 . S
C637 C140 1.766 . S
C642 C101 1.766 . S
C667 C114 1.765 . S
C672 C153 1.765 . S
C697 C44 1.865 . S
C702 C5 1.865 . S
C727 C18 1.865 . S
C732 C57 1.865 . S
C757 C70 1.866 . S
C762 C31 1.866 . S
C787 C83 1.865 . S
C792 C122 1.865 . S
C817 C135 1.866 . S
C822 C96 1.866 . S
C847 C109 1.865 . S
C852 C148 1.865 . S
