# Generated by pormake.
# Topology zfq, (5)-cn, num edge types: 1
# Building blocks:
#     Node 0, Type 0, BuildingBlock: BEQFEK_clean_sbu_0, # of connection points: 5
#     Node 1, Type 0, BuildingBlock: BEQFEK_clean_sbu_0, # of connection points: 5
#     Node 2, Type 0, BuildingBlock: BEQFEK_clean_sbu_0, # of connection points: 5
#     Node 3, Type 0, BuildingBlock: BEQFEK_clean_sbu_0, # of connection points: 5
#     Node 4, Type 0, BuildingBlock: BEQFEK_clean_sbu_0, # of connection points: 5
#     Node 5, Type 0, BuildingBlock: BEQFEK_clean_sbu_0, # of connection points: 5
#     Node 6, Type 0, BuildingBlock: BEQFEK_clean_sbu_0, # of connection points: 5
#     Node 7, Type 0, BuildingBlock: BEQFEK_clean_sbu_0, # of connection points: 5
#     Node 8, Type 0, BuildingBlock: BEQFEK_clean_sbu_0, # of connection points: 5
#     Node 9, Type 0, BuildingBlock: BEQFEK_clean_sbu_0, # of connection points: 5
#     Node 10, Type 0, BuildingBlock: BEQFEK_clean_sbu_0, # of connection points: 5
#     Node 11, Type 0, BuildingBlock: BEQFEK_clean_sbu_0, # of connection points: 5
#     Node 12, Type 0, BuildingBlock: BEQFEK_clean_sbu_0, # of connection points: 5
#     Node 13, Type 0, BuildingBlock: BEQFEK_clean_sbu_0, # of connection points: 5
#     Node 14, Type 0, BuildingBlock: BEQFEK_clean_sbu_0, # of connection points: 5
#     Node 15, Type 0, BuildingBlock: BEQFEK_clean_sbu_0, # of connection points: 5
#     Edge 16, Type (0, 0), BuildingBlock: XUDNAN_clean_linker_2, # of connection points: 2
#     Edge 17, Type (0, 0), BuildingBlock: XUDNAN_clean_linker_2, # of connection points: 2
#     Edge 18, Type (0, 0), BuildingBlock: XUDNAN_clean_linker_2, # of connection points: 2
#     Edge 19, Type (0, 0), BuildingBlock: XUDNAN_clean_linker_2, # of connection points: 2
#     Edge 20, Type (0, 0), BuildingBlock: XUDNAN_clean_linker_2, # of connection points: 2
#     Edge 21, Type (0, 0), BuildingBlock: XUDNAN_clean_linker_2, # of connection points: 2
#     Edge 22, Type (0, 0), BuildingBlock: XUDNAN_clean_linker_2, # of connection points: 2
#     Edge 23, Type (0, 0), BuildingBlock: XUDNAN_clean_linker_2, # of connection points: 2
#     Edge 24, Type (0, 0), BuildingBlock: XUDNAN_clean_linker_2, # of connection points: 2
#     Edge 25, Type (0, 0), BuildingBlock: XUDNAN_clean_linker_2, # of connection points: 2
#     Edge 26, Type (0, 0), BuildingBlock: XUDNAN_clean_linker_2, # of connection points: 2
#     Edge 27, Type (0, 0), BuildingBlock: XUDNAN_clean_linker_2, # of connection points: 2
#     Edge 28, Type (0, 0), BuildingBlock: XUDNAN_clean_linker_2, # of connection points: 2
#     Edge 29, Type (0, 0), BuildingBlock: XUDNAN_clean_linker_2, # of connection points: 2
#     Edge 30, Type (0, 0), BuildingBlock: XUDNAN_clean_linker_2, # of connection points: 2
#     Edge 31, Type (0, 0), BuildingBlock: XUDNAN_clean_linker_2, # of connection points: 2
#     Edge 32, Type (0, 0), BuildingBlock: XUDNAN_clean_linker_2, # of connection points: 2
#     Edge 33, Type (0, 0), BuildingBlock: XUDNAN_clean_linker_2, # of connection points: 2
#     Edge 34, Type (0, 0), BuildingBlock: XUDNAN_clean_linker_2, # of connection points: 2
#     Edge 35, Type (0, 0), BuildingBlock: XUDNAN_clean_linker_2, # of connection points: 2
#     Edge 36, Type (0, 0), BuildingBlock: XUDNAN_clean_linker_2, # of connection points: 2
#     Edge 37, Type (0, 0), BuildingBlock: XUDNAN_clean_linker_2, # of connection points: 2
#     Edge 38, Type (0, 0), BuildingBlock: XUDNAN_clean_linker_2, # of connection points: 2
#     Edge 39, Type (0, 0), BuildingBlock: XUDNAN_clean_linker_2, # of connection points: 2
#     Edge 40, Type (0, 0), BuildingBlock: XUDNAN_clean_linker_2, # of connection points: 2
#     Edge 41, Type (0, 0), BuildingBlock: XUDNAN_clean_linker_2, # of connection points: 2
#     Edge 42, Type (0, 0), BuildingBlock: XUDNAN_clean_linker_2, # of connection points: 2
#     Edge 43, Type (0, 0), BuildingBlock: XUDNAN_clean_linker_2, # of connection points: 2
#     Edge 44, Type (0, 0), BuildingBlock: XUDNAN_clean_linker_2, # of connection points: 2
#     Edge 45, Type (0, 0), BuildingBlock: XUDNAN_clean_linker_2, # of connection points: 2
#     Edge 46, Type (0, 0), BuildingBlock: XUDNAN_clean_linker_2, # of connection points: 2
#     Edge 47, Type (0, 0), BuildingBlock: XUDNAN_clean_linker_2, # of connection points: 2
#     Edge 48, Type (0, 0), BuildingBlock: XUDNAN_clean_linker_2, # of connection points: 2
#     Edge 49, Type (0, 0), BuildingBlock: XUDNAN_clean_linker_2, # of connection points: 2
#     Edge 50, Type (0, 0), BuildingBlock: XUDNAN_clean_linker_2, # of connection points: 2
#     Edge 51, Type (0, 0), BuildingBlock: XUDNAN_clean_linker_2, # of connection points: 2
#     Edge 52, Type (0, 0), BuildingBlock: XUDNAN_clean_linker_2, # of connection points: 2
#     Edge 53, Type (0, 0), BuildingBlock: XUDNAN_clean_linker_2, # of connection points: 2
#     Edge 54, Type (0, 0), BuildingBlock: XUDNAN_clean_linker_2, # of connection points: 2
#     Edge 55, Type (0, 0), BuildingBlock: XUDNAN_clean_linker_2, # of connection points: 2
# Relax obj value: 0.119
# Max RMSD: 0.179
# Mean RMSD: 0.179
data_MOF--net-zfq--node1-BEQFEK_clean_sbu_0--edge1-XUDNAN_clean_linker_2
_symmetry_space_group_name_H-M    P1
_symmetry_Int_Tables_number       1
_symmetry_cell_setting            triclinic
loop_
_symmetry_equiv_pos_as_xyz
'x, y, z'
_cell_length_a     29.138658
_cell_length_b     29.206946
_cell_length_c     76.601365
_cell_angle_alpha  89.989406
_cell_angle_beta   89.899322
_cell_angle_gamma 90.017586
loop_
_atom_site_label
_atom_site_type_symbol
_atom_site_fract_x
_atom_site_fract_y
_atom_site_fract_z
_atom_type_partial_charge
Co0 Co 0.18127 0.15951 0.15355 0.0
Co1 Co 0.19366 0.17981 0.11327 0.0
C2 C 0.13698 0.24078 0.13401 0.0
O3 O 0.14632 0.21476 0.14688 0.0
O4 O 0.15426 0.23364 0.11893 0.0
C5 C 0.1432 0.16506 0.18709 0.0
O6 O 0.10651 0.17047 0.17736 0.0
C7 C 0.20909 0.20573 0.07573 0.0
C8 C 0.23811 0.14036 0.06622 0.0
C9 C 0.22495 0.18357 0.0608 0.0
N10 N 0.21279 0.1766 0.08932 0.0
N11 N 0.23058 0.13788 0.0835 0.0
C12 C 0.18746 0.25202 0.07694 0.0
H13 H 0.15167 0.24833 0.08172 0.0
H14 H 0.20634 0.27289 0.08668 0.0
H15 H 0.18736 0.26979 0.06414 0.0
C16 C 0.2818 0.1546 0.15163 0.0
N17 N 0.24073 0.16163 0.14419 0.0
N18 N 0.24644 0.17534 0.12801 0.0
C19 C 0.29177 0.18003 0.12487 0.0
C20 C 0.31623 0.16661 0.13975 0.0
C21 C 0.28687 0.13358 0.16936 0.0
H22 H 0.25736 0.11065 0.17212 0.0
H23 H 0.2869 0.16104 0.17937 0.0
H24 H 0.31915 0.11361 0.17033 0.0
O25 O 0.14675 0.10748 0.14435 0.0
O26 O 0.15264 0.12528 0.11625 0.0
H27 H 0.31903 0.17317 0.09908 0.0
H28 H 0.34176 0.22117 0.11117 0.0
C29 C 0.31041 0.20081 0.10846 0.0
H30 H 0.28438 0.22344 0.10238 0.0
H31 H 0.23651 0.10922 0.09131 0.0
O32 O 0.18161 0.15816 0.17961 0.0
C33 C 0.13673 0.10006 0.12844 0.0
Co34 Co 0.15927 0.82404 0.85351 0.0
Co35 Co 0.15881 0.82963 0.89453 0.0
C36 C 0.2285 0.87953 0.87273 0.0
O37 O 0.21253 0.86348 0.85856 0.0
O38 O 0.21105 0.86893 0.88744 0.0
C39 C 0.1592 0.85317 0.81947 0.0
O40 O 0.15743 0.89115 0.82864 0.0
C41 C 0.19555 0.81408 0.92956 0.0
C42 C 0.13345 0.8209 0.94597 0.0
C43 C 0.18003 0.81163 0.94666 0.0
N44 N 0.15974 0.82425 0.91926 0.0
N45 N 0.12283 0.82887 0.92916 0.0
C46 C 0.2425 0.80321 0.92282 0.0
H47 H 0.24089 0.79327 0.90885 0.0
H48 H 0.25828 0.77527 0.93059 0.0
H49 H 0.26444 0.83411 0.924 0.0
C50 C 0.16823 0.72351 0.8625 0.0
N51 N 0.16346 0.76826 0.86661 0.0
N52 N 0.15854 0.77181 0.88361 0.0
C53 C 0.15588 0.72993 0.8907 0.0
C54 C 0.16384 0.69735 0.87776 0.0
C55 C 0.17948 0.70702 0.84451 0.0
H56 H 0.19385 0.73528 0.83653 0.0
H57 H 0.20462 0.67851 0.84506 0.0
H58 H 0.14769 0.69447 0.83816 0.0
O59 O 0.10193 0.8602 0.85968 0.0
O60 O 0.10332 0.86123 0.88867 0.0
H61 H 0.12266 0.68765 0.91026 0.0
H62 H 0.16802 0.72443 0.91823 0.0
C63 C 0.13898 0.72179 0.90895 0.0
H64 H 0.11308 0.74801 0.91244 0.0
H65 H 0.09018 0.83642 0.92438 0.0
O66 O 0.15947 0.81516 0.82761 0.0
C67 C 0.08448 0.87188 0.87434 0.0
Co68 Co 0.82776 0.82419 0.1484 0.0
Co69 Co 0.82993 0.80353 0.10793 0.0
C70 C 0.88005 0.74431 0.13308 0.0
O71 O 0.86755 0.7691 0.14594 0.0
O72 O 0.86628 0.75244 0.11761 0.0
C73 C 0.84075 0.82994 0.18623 0.0
O74 O 0.88452 0.82274 0.18314 0.0
C75 C 0.81869 0.75909 0.07333 0.0
C76 C 0.80701 0.81955 0.05658 0.0
C77 C 0.80851 0.77215 0.05629 0.0
N78 N 0.82188 0.79706 0.08323 0.0
N79 N 0.81552 0.83303 0.07305 0.0
C80 C 0.82667 0.71167 0.08009 0.0
H81 H 0.79621 0.70031 0.08765 0.0
H82 H 0.8334 0.68716 0.06933 0.0
H83 H 0.85658 0.71157 0.08898 0.0
C84 C 0.72773 0.82495 0.14106 0.0
N85 N 0.77162 0.81926 0.13588 0.0
N86 N 0.77225 0.80918 0.11916 0.0
C87 C 0.72874 0.80724 0.11322 0.0
C88 C 0.69899 0.81753 0.12688 0.0
C89 C 0.71397 0.83996 0.15899 0.0
H90 H 0.73693 0.86791 0.16344 0.0
H91 H 0.71772 0.81068 0.16811 0.0
H92 H 0.67799 0.8523 0.15937 0.0
O93 O 0.8648 0.87628 0.13978 0.0
O94 O 0.86707 0.85971 0.11145 0.0
H95 H 0.72383 0.82144 0.08592 0.0
H96 H 0.67907 0.7842 0.09405 0.0
C97 C 0.71595 0.7931 0.09509 0.0
H98 H 0.73639 0.76281 0.09122 0.0
H99 H 0.81583 0.86683 0.07746 0.0
O100 O 0.81288 0.83222 0.17351 0.0
C101 C 0.87868 0.88481 0.12432 0.0
Co102 Co 0.81537 0.17303 0.84661 0.0
Co103 Co 0.79248 0.18833 0.886 0.0
C104 C 0.73479 0.12735 0.86596 0.0
O105 O 0.76114 0.13406 0.85287 0.0
O106 O 0.73996 0.14966 0.88008 0.0
C107 C 0.7966 0.18873 0.80986 0.0
O108 O 0.76105 0.21269 0.81515 0.0
C109 C 0.75793 0.2005 0.92202 0.0
C110 C 0.81448 0.24089 0.93354 0.0
C111 C 0.77247 0.2211 0.93737 0.0
N112 N 0.79005 0.20782 0.9097 0.0
N113 N 0.82381 0.23174 0.91671 0.0
C114 C 0.71344 0.17641 0.91878 0.0
H115 H 0.69822 0.18895 0.90641 0.0
H116 H 0.68867 0.18204 0.92958 0.0
H117 H 0.72001 0.13918 0.91733 0.0
C118 C 0.8239 0.27429 0.84809 0.0
N119 N 0.81253 0.23362 0.85514 0.0
N120 N 0.79753 0.24004 0.8711 0.0
C121 C 0.79511 0.2853 0.8743 0.0
C122 C 0.81284 0.30907 0.85993 0.0
C123 C 0.85015 0.27849 0.83134 0.0
H124 H 0.86941 0.24648 0.82867 0.0
H125 H 0.82586 0.28428 0.82042 0.0
H126 H 0.87467 0.30753 0.8319 0.0
O127 O 0.8677 0.14175 0.85657 0.0
O128 O 0.84736 0.14705 0.88441 0.0
H129 H 0.79815 0.31175 0.90036 0.0
H130 H 0.75407 0.33711 0.88696 0.0
C131 C 0.77211 0.30473 0.89016 0.0
H132 H 0.74684 0.27996 0.89549 0.0
H133 H 0.85322 0.24192 0.90995 0.0
O134 O 0.82319 0.17072 0.82104 0.0
C135 C 0.87385 0.13163 0.87251 0.0
Co136 Co 0.83091 0.15789 0.64622 0.0
Co137 Co 0.81498 0.17118 0.60612 0.0
C138 C 0.87547 0.23429 0.62562 0.0
O139 O 0.86658 0.21357 0.63987 0.0
O140 O 0.85778 0.22191 0.61118 0.0
C141 C 0.81883 0.18448 0.68193 0.0
O142 O 0.80212 0.22227 0.67514 0.0
C143 C 0.80048 0.20406 0.57002 0.0
C144 C 0.77239 0.14143 0.55782 0.0
C145 C 0.78619 0.18577 0.55423 0.0
N146 N 0.79544 0.17177 0.5824 0.0
N147 N 0.77815 0.13466 0.57504 0.0
C148 C 0.82269 0.24951 0.57311 0.0
H149 H 0.85976 0.24418 0.57571 0.0
H150 H 0.80741 0.26572 0.58486 0.0
H151 H 0.819 0.27259 0.5617 0.0
C152 C 0.72974 0.15482 0.64599 0.0
N153 N 0.77026 0.1596 0.6378 0.0
N154 N 0.76322 0.17082 0.62143 0.0
C155 C 0.7178 0.17703 0.61896 0.0
C156 C 0.69459 0.16682 0.63451 0.0
C157 C 0.72517 0.13431 0.66384 0.0
H158 H 0.75403 0.11048 0.66638 0.0
H159 H 0.72619 0.16183 0.6738 0.0
H160 H 0.69233 0.11535 0.66516 0.0
O161 O 0.86399 0.10556 0.63666 0.0
O162 O 0.85282 0.1144 0.60824 0.0
H163 H 0.68736 0.16795 0.59383 0.0
H164 H 0.66799 0.2184 0.60533 0.0
C165 C 0.69813 0.19641 0.6025 0.0
H166 H 0.72426 0.21719 0.59556 0.0
H167 H 0.77173 0.10415 0.58171 0.0
O168 O 0.8323 0.15256 0.6719 0.0
C169 C 0.87063 0.09282 0.621 0.0
Co170 Co 0.15709 0.17391 0.35225 0.0
Co171 Co 0.18121 0.17196 0.39251 0.0
C172 C 0.24129 0.12562 0.36725 0.0
O173 O 0.21435 0.13858 0.35512 0.0
O174 O 0.23433 0.13704 0.38312 0.0
C175 C 0.17566 0.17918 0.31498 0.0
O176 O 0.21817 0.17009 0.31946 0.0
C177 C 0.21895 0.18042 0.42862 0.0
C178 C 0.15504 0.19768 0.44276 0.0
C179 C 0.20166 0.19105 0.44507 0.0
N180 N 0.18392 0.18092 0.41717 0.0
N181 N 0.14587 0.19079 0.42579 0.0
C182 C 0.26804 0.17344 0.42358 0.0
H183 H 0.27359 0.18372 0.40979 0.0
H184 H 0.29114 0.19333 0.43224 0.0
H185 H 0.27662 0.13658 0.42487 0.0
C186 C 0.15214 0.2731 0.35951 0.0
N187 N 0.16003 0.22966 0.36453 0.0
N188 N 0.17241 0.22919 0.38104 0.0
C189 C 0.17373 0.2726 0.38697 0.0
C190 C 0.16041 0.30191 0.37359 0.0
C191 C 0.13499 0.2861 0.34178 0.0
H192 H 0.10934 0.26068 0.33727 0.0
H193 H 0.16415 0.28581 0.33244 0.0
H194 H 0.11915 0.32064 0.34184 0.0
O195 O 0.10756 0.13487 0.36144 0.0
O196 O 0.12698 0.13212 0.3894 0.0
H197 H 0.16224 0.28219 0.41428 0.0
H198 H 0.203 0.32176 0.40493 0.0
C199 C 0.19062 0.28584 0.40471 0.0
H200 H 0.21912 0.26301 0.40867 0.0
H201 H 0.11365 0.1937 0.41997 0.0
O202 O 0.14524 0.18334 0.32683 0.0
C203 C 0.1011 0.12005 0.37687 0.0
Co204 Co 0.17904 0.83393 0.65424 0.0
Co205 Co 0.19113 0.80402 0.61486 0.0
C206 C 0.1343 0.74855 0.63835 0.0
O207 O 0.14377 0.77671 0.65056 0.0
O208 O 0.15151 0.75291 0.6231 0.0
C209 C 0.18001 0.81742 0.69168 0.0
O210 O 0.17975 0.77393 0.68731 0.0
C211 C 0.19913 0.77011 0.57799 0.0
C212 C 0.24899 0.82072 0.56794 0.0
C213 C 0.22332 0.78297 0.56299 0.0
N214 N 0.21093 0.79865 0.59107 0.0
N215 N 0.24032 0.82898 0.58485 0.0
C216 C 0.16231 0.73465 0.57956 0.0
H217 H 0.13769 0.74415 0.58999 0.0
H218 H 0.17813 0.70133 0.58303 0.0
H219 H 0.1435 0.73082 0.56706 0.0
C220 C 0.27968 0.83907 0.65199 0.0
N221 N 0.23851 0.82982 0.64494 0.0
N222 N 0.24411 0.81197 0.62936 0.0
C223 C 0.28946 0.80621 0.62646 0.0
C224 C 0.31394 0.82403 0.6406 0.0
C225 C 0.28516 0.86486 0.66875 0.0
H226 H 0.25598 0.88878 0.67059 0.0
H227 H 0.28513 0.84033 0.67982 0.0
H228 H 0.31763 0.88472 0.66886 0.0
O229 O 0.14404 0.88179 0.64255 0.0
O230 O 0.15047 0.85923 0.61498 0.0
H231 H 0.31949 0.80252 0.60095 0.0
H232 H 0.33854 0.75867 0.61573 0.0
C233 C 0.30837 0.77902 0.6115 0.0
H234 H 0.28186 0.75551 0.60625 0.0
H235 H 0.25419 0.85574 0.59217 0.0
O236 O 0.18033 0.84774 0.67974 0.0
C237 C 0.13419 0.88631 0.62647 0.0
Co238 Co 0.81244 0.83608 0.34713 0.0
Co239 Co 0.79271 0.81951 0.38698 0.0
C240 C 0.73598 0.8844 0.36775 0.0
O241 O 0.76071 0.87717 0.35426 0.0
O242 O 0.74182 0.86158 0.38172 0.0
C243 C 0.77883 0.83361 0.31257 0.0
O244 O 0.73975 0.83022 0.32105 0.0
C245 C 0.76374 0.81099 0.42406 0.0
C246 C 0.81537 0.76157 0.4336 0.0
C247 C 0.77788 0.78728 0.43888 0.0
N248 N 0.79119 0.79894 0.41066 0.0
N249 N 0.82218 0.76979 0.41654 0.0
C250 C 0.72838 0.84804 0.42296 0.0
H251 H 0.69645 0.83378 0.41725 0.0
H252 H 0.7207 0.86275 0.43598 0.0
H253 H 0.74079 0.87588 0.41432 0.0
C254 C 0.81523 0.73498 0.3477 0.0
N255 N 0.80692 0.77546 0.35546 0.0
N256 N 0.79348 0.76841 0.37159 0.0
C257 C 0.7893 0.72298 0.37427 0.0
C258 C 0.80404 0.69975 0.35931 0.0
C259 C 0.83849 0.73112 0.33031 0.0
H260 H 0.86014 0.76171 0.32788 0.0
H261 H 0.81212 0.72929 0.3199 0.0
H262 H 0.86046 0.70016 0.32967 0.0
O263 O 0.86729 0.86415 0.35675 0.0
O264 O 0.8506 0.85622 0.38491 0.0
H265 H 0.79404 0.69305 0.39975 0.0
H266 H 0.74713 0.67191 0.38679 0.0
C267 C 0.76725 0.7029 0.39021 0.0
H268 H 0.74415 0.72831 0.39644 0.0
H269 H 0.84835 0.75583 0.40889 0.0
O270 O 0.81589 0.83647 0.32122 0.0
C271 C 0.87649 0.87132 0.37274 0.0
Co272 Co 0.67882 0.66794 0.65166 0.0
Co273 Co 0.6882 0.69561 0.61253 0.0
C274 C 0.63352 0.7528 0.6358 0.0
O275 O 0.64371 0.72469 0.64788 0.0
O276 O 0.64937 0.74786 0.62039 0.0
C277 C 0.69753 0.69044 0.68675 0.0
O278 O 0.71755 0.72617 0.67962 0.0
C279 C 0.69569 0.7319 0.57636 0.0
C280 C 0.74212 0.68017 0.56482 0.0
C281 C 0.71814 0.7198 0.56102 0.0
N282 N 0.70616 0.70069 0.58866 0.0
N283 N 0.73361 0.66978 0.5816 0.0
C284 C 0.66682 0.77336 0.57964 0.0
H285 H 0.63056 0.76266 0.58142 0.0
H286 H 0.6781 0.79021 0.59187 0.0
H287 H 0.66913 0.79821 0.56872 0.0
C288 C 0.77887 0.66198 0.64908 0.0
N289 N 0.73763 0.67098 0.64211 0.0
N290 N 0.7427 0.68843 0.62646 0.0
C291 C 0.78804 0.69429 0.62341 0.0
C292 C 0.81285 0.67734 0.63767 0.0
C293 C 0.78482 0.63505 0.66558 0.0
H294 H 0.75491 0.61214 0.66764 0.0
H295 H 0.78698 0.65872 0.67686 0.0
H296 H 0.81661 0.61416 0.66506 0.0
O297 O 0.64366 0.61883 0.6414 0.0
O298 O 0.64677 0.64018 0.61362 0.0
H299 H 0.81732 0.6947 0.59779 0.0
H300 H 0.83698 0.74036 0.61169 0.0
C301 C 0.80664 0.71961 0.60794 0.0
H302 H 0.78006 0.74251 0.60238 0.0
H303 H 0.74679 0.64163 0.58833 0.0
O304 O 0.68025 0.65974 0.67704 0.0
C305 C 0.63189 0.61352 0.62558 0.0
Co306 Co 0.67021 0.33153 0.35024 0.0
Co307 Co 0.68076 0.34118 0.39073 0.0
C308 C 0.75028 0.37949 0.36527 0.0
O309 O 0.73034 0.36052 0.35241 0.0
O310 O 0.73501 0.37465 0.38078 0.0
C311 C 0.69049 0.30675 0.31484 0.0
O312 O 0.73056 0.29426 0.32106 0.0
C313 C 0.72388 0.32685 0.42514 0.0
C314 C 0.66334 0.32921 0.44252 0.0
C315 C 0.71022 0.32137 0.44241 0.0
N316 N 0.68654 0.33631 0.41549 0.0
N317 N 0.65064 0.33846 0.42602 0.0
C318 C 0.77159 0.32431 0.41789 0.0
H319 H 0.77742 0.35312 0.40874 0.0
H320 H 0.77587 0.29204 0.41043 0.0
H321 H 0.79769 0.32593 0.42839 0.0
C322 C 0.65764 0.23453 0.35924 0.0
N323 N 0.66505 0.27838 0.36375 0.0
N324 N 0.6712 0.28124 0.38072 0.0
C325 C 0.66862 0.23857 0.38755 0.0
C326 C 0.66007 0.20749 0.3741 0.0
C327 C 0.64677 0.2192 0.34106 0.0
H328 H 0.62404 0.2445 0.33464 0.0
H329 H 0.67907 0.21677 0.33343 0.0
H330 H 0.62958 0.18529 0.34103 0.0
O331 O 0.62613 0.3783 0.35728 0.0
O332 O 0.62791 0.38314 0.38618 0.0
H333 H 0.65087 0.24437 0.41455 0.0
H334 H 0.67755 0.1904 0.40894 0.0
C335 C 0.67742 0.22769 0.40634 0.0
H336 H 0.71126 0.24158 0.41014 0.0
H337 H 0.61716 0.34475 0.42183 0.0
O338 O 0.65967 0.32112 0.32521 0.0
C339 C 0.61232 0.39613 0.37147 0.0
Co340 Co 0.32305 0.33953 0.65248 0.0
Co341 Co 0.3266 0.31878 0.61194 0.0
C342 C 0.37821 0.26126 0.63743 0.0
O343 O 0.3632 0.2856 0.65003 0.0
O344 O 0.3659 0.26888 0.62171 0.0
C345 C 0.31732 0.3233 0.69012 0.0
O346 O 0.3326 0.28215 0.68638 0.0
C347 C 0.31338 0.27645 0.57695 0.0
C348 C 0.31298 0.33878 0.56056 0.0
C349 C 0.30849 0.29165 0.55985 0.0
N350 N 0.32021 0.31316 0.58725 0.0
N351 N 0.32049 0.35014 0.5773 0.0
C352 C 0.30835 0.22861 0.58361 0.0
H353 H 0.29957 0.22885 0.59772 0.0
H354 H 0.2816 0.21002 0.57613 0.0
H355 H 0.34142 0.21031 0.58188 0.0
C356 C 0.2232 0.33197 0.64549 0.0
N357 N 0.26723 0.33083 0.64012 0.0
N358 N 0.26841 0.32363 0.62316 0.0
C359 C 0.22503 0.32163 0.61709 0.0
C360 C 0.19474 0.32659 0.63105 0.0
C361 C 0.20926 0.33484 0.66428 0.0
H362 H 0.21367 0.37055 0.66892 0.0
H363 H 0.23172 0.31242 0.67221 0.0
H364 H 0.17318 0.324 0.6663 0.0
O365 O 0.35883 0.39256 0.64317 0.0
O366 O 0.361 0.37576 0.61494 0.0
H367 H 0.23492 0.34278 0.5906 0.0
H368 H 0.17674 0.32784 0.59565 0.0
C369 C 0.2131 0.3188 0.59811 0.0
H370 H 0.21975 0.28356 0.59334 0.0
H371 H 0.32466 0.38339 0.58202 0.0
O372 O 0.31087 0.3519 0.67781 0.0
C373 C 0.37179 0.40151 0.62763 0.0
Co374 Co 0.31044 0.67432 0.34806 0.0
Co375 Co 0.30582 0.684 0.38897 0.0
C376 C 0.24341 0.62083 0.37062 0.0
O377 O 0.26179 0.63145 0.35607 0.0
O378 O 0.25583 0.63985 0.3848 0.0
C379 C 0.31914 0.65457 0.31066 0.0
O380 O 0.3408 0.61697 0.31519 0.0
C381 C 0.2781 0.69335 0.42606 0.0
C382 C 0.33627 0.73329 0.43655 0.0
C383 C 0.29484 0.71346 0.44119 0.0
N384 N 0.30843 0.70088 0.41309 0.0
N385 N 0.3432 0.72454 0.4195 0.0
C386 C 0.23264 0.67047 0.42356 0.0
H387 H 0.23794 0.63292 0.42263 0.0
H388 H 0.21696 0.68225 0.41116 0.0
H389 H 0.20886 0.67791 0.43452 0.0
C390 C 0.31247 0.77378 0.35074 0.0
N391 N 0.3067 0.73258 0.35816 0.0
N392 N 0.29923 0.7375 0.37493 0.0
C393 C 0.29587 0.78263 0.37854 0.0
C394 C 0.30468 0.8076 0.36326 0.0
C395 C 0.33246 0.77944 0.33282 0.0
H396 H 0.35504 0.74999 0.32967 0.0
H397 H 0.30433 0.78044 0.32309 0.0
H398 H 0.3531 0.81125 0.33182 0.0
O399 O 0.36923 0.6483 0.35431 0.0
O400 O 0.36545 0.65172 0.38337 0.0
H401 H 0.31295 0.80878 0.40378 0.0
H402 H 0.26098 0.8323 0.3946 0.0
C403 C 0.28185 0.80075 0.39602 0.0
H404 H 0.26135 0.77483 0.40318 0.0
H405 H 0.37141 0.73526 0.41215 0.0
O406 O 0.30428 0.68145 0.32242 0.0
C407 C 0.3863 0.64057 0.3693 0.0
Co408 Co 0.33055 0.65474 0.14946 0.0
Co409 Co 0.32082 0.66711 0.10887 0.0
C410 C 0.37995 0.72947 0.12913 0.0
O411 O 0.37045 0.70751 0.14305 0.0
O412 O 0.3613 0.71922 0.11463 0.0
C413 C 0.31419 0.69016 0.18295 0.0
O414 O 0.30378 0.72607 0.17341 0.0
C415 C 0.30536 0.70246 0.07332 0.0
C416 C 0.28202 0.63982 0.05977 0.0
C417 C 0.29052 0.68601 0.05731 0.0
N418 N 0.30566 0.66747 0.08472 0.0
N419 N 0.29209 0.63008 0.07649 0.0
C420 C 0.3154 0.75106 0.07817 0.0
H421 H 0.30478 0.75758 0.09186 0.0
H422 H 0.29743 0.77527 0.06935 0.0
H423 H 0.35291 0.75707 0.07714 0.0
C424 C 0.22829 0.65368 0.14654 0.0
N425 N 0.27068 0.65852 0.13963 0.0
N426 N 0.2669 0.66565 0.12273 0.0
C427 C 0.22209 0.66652 0.11842 0.0
C428 C 0.19612 0.65845 0.13331 0.0
C429 C 0.21885 0.64117 0.16514 0.0
H430 H 0.2462 0.61832 0.17015 0.0
H431 H 0.21829 0.67279 0.17316 0.0
H432 H 0.18509 0.62388 0.16648 0.0
O433 O 0.36336 0.59989 0.14098 0.0
O434 O 0.35765 0.61104 0.11237 0.0
H435 H 0.20712 0.64531 0.09235 0.0
H436 H 0.16804 0.68775 0.10084 0.0
C437 C 0.20442 0.6766 0.10049 0.0
H438 H 0.22525 0.70403 0.09439 0.0
H439 H 0.28896 0.59803 0.0824 0.0
O440 O 0.32694 0.65365 0.17534 0.0
C441 C 0.37241 0.58811 0.12533 0.0
Co442 Co 0.67887 0.68001 0.85026 0.0
Co443 Co 0.68139 0.66715 0.89074 0.0
C444 C 0.75373 0.62676 0.8675 0.0
O445 O 0.73519 0.6453 0.85424 0.0
O446 O 0.73722 0.63257 0.88279 0.0
C447 C 0.70461 0.70394 0.81453 0.0
O448 O 0.74599 0.71351 0.82025 0.0
C449 C 0.71245 0.67038 0.92754 0.0
C450 C 0.6457 0.66763 0.94129 0.0
C451 C 0.69259 0.66947 0.94405 0.0
N452 N 0.67861 0.66929 0.91561 0.0
N453 N 0.63889 0.66773 0.92394 0.0
C454 C 0.76239 0.66877 0.92299 0.0
H455 H 0.76992 0.63574 0.91643 0.0
H456 H 0.77051 0.69646 0.91356 0.0
H457 H 0.78454 0.67182 0.93468 0.0
C458 C 0.66995 0.77649 0.85978 0.0
N459 N 0.67505 0.73227 0.86411 0.0
N460 N 0.67795 0.72819 0.88116 0.0
C461 C 0.67604 0.77054 0.88827 0.0
C462 C 0.67098 0.80262 0.87489 0.0
C463 C 0.66113 0.79269 0.84153 0.0
H464 H 0.63828 0.76821 0.83472 0.0
H465 H 0.69413 0.79438 0.83431 0.0
H466 H 0.64476 0.82698 0.84139 0.0
O467 O 0.62808 0.63926 0.85498 0.0
O468 O 0.62741 0.6287 0.88356 0.0
H469 H 0.6498 0.76916 0.91431 0.0
H470 H 0.68806 0.81668 0.90996 0.0
C471 C 0.68145 0.77993 0.90736 0.0
H472 H 0.71041 0.75956 0.91257 0.0
H473 H 0.60705 0.66629 0.91775 0.0
O474 O 0.67345 0.69223 0.82522 0.0
C475 C 0.61108 0.62064 0.86846 0.0
Co476 Co 0.68279 0.32855 0.15107 0.0
Co477 Co 0.69084 0.29713 0.11232 0.0
C478 C 0.63604 0.24257 0.1361 0.0
O479 O 0.6464 0.27207 0.1477 0.0
O480 O 0.65238 0.24526 0.12068 0.0
C481 C 0.69989 0.30961 0.1869 0.0
O482 O 0.71965 0.27256 0.18072 0.0
C483 C 0.69231 0.26645 0.07525 0.0
C484 C 0.74429 0.31441 0.06482 0.0
C485 C 0.71497 0.27933 0.05998 0.0
N486 N 0.70828 0.29247 0.08842 0.0
N487 N 0.73898 0.32122 0.08202 0.0
C488 C 0.65294 0.2339 0.07708 0.0
H489 H 0.62997 0.24496 0.08784 0.0
H490 H 0.66639 0.19936 0.08027 0.0
H491 H 0.63295 0.23186 0.06479 0.0
C492 C 0.78325 0.33264 0.148 0.0
N493 N 0.74151 0.32364 0.14143 0.0
N494 N 0.74563 0.30456 0.12602 0.0
C495 C 0.79067 0.29744 0.12279 0.0
C496 C 0.8165 0.31569 0.13654 0.0
C497 C 0.79019 0.36053 0.16419 0.0
H498 H 0.76046 0.38363 0.16629 0.0
H499 H 0.7928 0.33746 0.17564 0.0
H500 H 0.82199 0.38132 0.16323 0.0
O501 O 0.64854 0.37766 0.14035 0.0
O502 O 0.64962 0.3524 0.11307 0.0
H503 H 0.81971 0.29159 0.09718 0.0
H504 H 0.8372 0.2474 0.11212 0.0
C505 C 0.80786 0.26894 0.1079 0.0
H506 H 0.78013 0.24654 0.10286 0.0
H507 H 0.7557 0.34622 0.08937 0.0
O508 O 0.68392 0.33918 0.17639 0.0
C509 C 0.63585 0.38091 0.12456 0.0
Co510 Co 0.30141 0.32712 0.85167 0.0
Co511 Co 0.32447 0.32112 0.89205 0.0
C512 C 0.24548 0.37752 0.87693 0.0
O513 O 0.25073 0.36493 0.86115 0.0
O514 O 0.27166 0.36255 0.88894 0.0
C515 C 0.28742 0.35978 0.81755 0.0
O516 O 0.28253 0.39771 0.82658 0.0
C517 C 0.29542 0.29005 0.92675 0.0
C518 C 0.35522 0.30642 0.94327 0.0
C519 C 0.31139 0.28792 0.94385 0.0
N520 N 0.3284 0.30838 0.91661 0.0
N521 N 0.36404 0.3182 0.92657 0.0
C522 C 0.24867 0.27763 0.92017 0.0
H523 H 0.24101 0.29602 0.90787 0.0
H524 H 0.24742 0.24042 0.91736 0.0
H525 H 0.22212 0.28565 0.93012 0.0
C526 C 0.30323 0.22627 0.85586 0.0
N527 N 0.3056 0.26889 0.86247 0.0
N528 N 0.31821 0.26654 0.87894 0.0
C529 C 0.32574 0.22246 0.88318 0.0
C530 C 0.31613 0.19529 0.86875 0.0
C531 C 0.28786 0.21586 0.83766 0.0
H532 H 0.26236 0.24162 0.83331 0.0
H533 H 0.27244 0.18118 0.83683 0.0
H534 H 0.31789 0.21752 0.82875 0.0
O535 O 0.35888 0.36166 0.856 0.0
O536 O 0.37847 0.35602 0.884 0.0
H537 H 0.36619 0.17487 0.89831 0.0
H538 H 0.3193 0.20131 0.90982 0.0
C539 C 0.34677 0.20723 0.90004 0.0
H540 H 0.37028 0.23395 0.90509 0.0
H541 H 0.39426 0.33323 0.92201 0.0
O542 O 0.29525 0.32265 0.82571 0.0
C543 C 0.38592 0.37089 0.8686 0.0
H544 H 0.21156 0.15416 0.2117 0.0
H545 H 0.06659 0.1854 0.20611 0.0
H546 H 0.0598 0.19412 0.23798 0.0
H547 H 0.20046 0.08828 0.25132 0.0
H548 H 0.25324 0.10921 0.26062 0.0
H549 H 0.24697 0.10577 0.23727 0.0
H550 H 0.26706 0.19191 0.23461 0.0
H551 H 0.2732 0.19565 0.25796 0.0
H552 H 0.23413 0.23336 0.24676 0.0
H553 H 0.06827 0.19964 0.2704 0.0
H554 H 0.09116 0.19925 0.30139 0.0
H555 H 0.2305 0.16416 0.28624 0.0
C556 C 0.17839 0.16278 0.21718 0.0
C557 C 0.1396 0.16908 0.20635 0.0
C558 C 0.09681 0.1803 0.21408 0.0
C559 C 0.09258 0.18545 0.2322 0.0
C560 C 0.13142 0.17922 0.24248 0.0
C561 C 0.17348 0.16797 0.2353 0.0
C562 C 0.20963 0.16266 0.24938 0.0
C563 C 0.22868 0.11356 0.24966 0.0
C564 C 0.24828 0.19801 0.24703 0.0
C565 C 0.18127 0.17268 0.26556 0.0
C566 C 0.13627 0.18226 0.26126 0.0
C567 C 0.10342 0.1922 0.27394 0.0
C568 C 0.11679 0.19192 0.29152 0.0
C569 C 0.16262 0.1817 0.2963 0.0
C570 C 0.19524 0.17229 0.28305 0.0
H571 H 0.17524 0.76178 0.72075 0.0
H572 H 0.18119 0.90443 0.70482 0.0
H573 H 0.17654 0.92815 0.73564 0.0
H574 H 0.09461 0.77708 0.75579 0.0
H575 H 0.12143 0.73584 0.76999 0.0
H576 H 0.12597 0.72953 0.74666 0.0
H577 H 0.21462 0.72796 0.74905 0.0
H578 H 0.21035 0.73413 0.7724 0.0
H579 H 0.24389 0.77433 0.75987 0.0
H580 H 0.16986 0.93688 0.7678 0.0
H581 H 0.16338 0.93048 0.7997 0.0
H582 H 0.16225 0.78213 0.79545 0.0
C583 C 0.17575 0.79801 0.72374 0.0
C584 C 0.17854 0.83125 0.71031 0.0
C585 C 0.17903 0.87829 0.71482 0.0
C586 C 0.17639 0.89214 0.73231 0.0
C587 C 0.17336 0.85859 0.74518 0.0
C588 C 0.17317 0.81249 0.74118 0.0
C589 C 0.16944 0.78358 0.75761 0.0
C590 C 0.12523 0.75481 0.7575 0.0
C591 C 0.21212 0.75321 0.75986 0.0
C592 C 0.16746 0.8207 0.77145 0.0
C593 C 0.16972 0.86366 0.76392 0.0
C594 C 0.16818 0.90345 0.77387 0.0
C595 C 0.16442 0.89937 0.79202 0.0
C596 C 0.16231 0.85578 0.80015 0.0
C597 C 0.16381 0.81592 0.78965 0.0
H598 H 0.85381 0.82992 0.29067 0.0
H599 H 0.70504 0.83921 0.29075 0.0
H600 H 0.70524 0.8411 0.25858 0.0
H601 H 0.87339 0.90486 0.25382 0.0
H602 H 0.92029 0.87144 0.24525 0.0
H603 H 0.90879 0.87167 0.26837 0.0
H604 H 0.90245 0.78317 0.26815 0.0
H605 H 0.91403 0.78267 0.24505 0.0
H606 H 0.86278 0.75585 0.25342 0.0
H607 H 0.72114 0.84217 0.22659 0.0
H608 H 0.75146 0.83944 0.19662 0.0
H609 H 0.89007 0.82795 0.21694 0.0
C610 C 0.82128 0.83252 0.28392 0.0
C611 C 0.77938 0.83456 0.29325 0.0
C612 C 0.73756 0.83759 0.28392 0.0
C613 C 0.73731 0.83879 0.26563 0.0
C614 C 0.77914 0.83678 0.25685 0.0
C615 C 0.82036 0.83352 0.26564 0.0
C616 C 0.86037 0.83091 0.25298 0.0
C617 C 0.89261 0.87218 0.25524 0.0
C618 C 0.88643 0.78544 0.25502 0.0
C619 C 0.83511 0.83306 0.23571 0.0
C620 C 0.78831 0.83671 0.23829 0.0
C621 C 0.75772 0.83926 0.2244 0.0
C622 C 0.77536 0.83769 0.20739 0.0
C623 C 0.82318 0.83335 0.20436 0.0
C624 C 0.85336 0.83124 0.21878 0.0
H625 H 0.77468 0.23452 0.70726 0.0
H626 H 0.86828 0.1205 0.69973 0.0
H627 H 0.87293 0.10993 0.73161 0.0
H628 H 0.82737 0.28018 0.74604 0.0
H629 H 0.77368 0.29495 0.75631 0.0
H630 H 0.77815 0.29426 0.73286 0.0
H631 H 0.71004 0.23735 0.73119 0.0
H632 H 0.70534 0.23788 0.75464 0.0
H633 H 0.71269 0.18439 0.74324 0.0
H634 H 0.86897 0.1125 0.76402 0.0
H635 H 0.85369 0.12551 0.79526 0.0
H636 H 0.76021 0.23598 0.78204 0.0
C637 C 0.7963 0.20747 0.71234 0.0
C638 C 0.82131 0.17846 0.70104 0.0
C639 C 0.8488 0.14311 0.70815 0.0
C640 C 0.85175 0.13688 0.72623 0.0
C641 C 0.8267 0.16602 0.73701 0.0
C642 C 0.79924 0.20042 0.73037 0.0
C643 C 0.77506 0.22624 0.74488 0.0
C644 C 0.78944 0.27691 0.74503 0.0
C645 C 0.72268 0.22114 0.7434 0.0
C646 C 0.79344 0.20107 0.76069 0.0
C647 C 0.82338 0.16667 0.75581 0.0
C648 C 0.84546 0.13919 0.76802 0.0
C649 C 0.83661 0.14696 0.78574 0.0
C650 C 0.80565 0.18167 0.79108 0.0
C651 C 0.78378 0.20899 0.77835 0.0
H652 H 0.74997 0.73167 0.712 0.0
H653 H 0.63255 0.64232 0.70438 0.0
H654 H 0.62039 0.63924 0.73619 0.0
H655 H 0.79197 0.67386 0.75043 0.0
H656 H 0.81099 0.72565 0.76098 0.0
H657 H 0.80973 0.72235 0.73751 0.0
H658 H 0.75825 0.79462 0.73646 0.0
H659 H 0.75911 0.79798 0.75995 0.0
H660 H 0.7051 0.79541 0.74855 0.0
H661 H 0.61895 0.64754 0.76818 0.0
H662 H 0.63312 0.65943 0.79943 0.0
H663 H 0.75457 0.73968 0.78708 0.0
C664 C 0.72171 0.71156 0.71707 0.0
C665 C 0.69203 0.68739 0.70579 0.0
C666 C 0.65574 0.66094 0.71284 0.0
C667 C 0.64839 0.6592 0.73085 0.0
C668 C 0.67799 0.68362 0.74162 0.0
C669 C 0.71433 0.70876 0.73509 0.0
C670 C 0.74211 0.73008 0.74971 0.0
C671 C 0.79163 0.71188 0.74965 0.0
C672 C 0.74106 0.78264 0.7486 0.0
C673 C 0.71556 0.71295 0.76543 0.0
C674 C 0.67836 0.68679 0.76037 0.0
C675 C 0.64807 0.66773 0.77236 0.0
C676 C 0.65638 0.67491 0.79009 0.0
C677 C 0.69507 0.7004 0.79569 0.0
C678 C 0.72487 0.71991 0.78317 0.0
H679 H 0.74088 0.26617 0.2887 0.0
H680 H 0.62287 0.35368 0.29807 0.0
H681 H 0.61312 0.36386 0.2664 0.0
H682 H 0.78645 0.32719 0.25251 0.0
H683 H 0.80355 0.277 0.24046 0.0
H684 H 0.80102 0.27523 0.26394 0.0
H685 H 0.74568 0.20586 0.26257 0.0
H686 H 0.74838 0.20713 0.23908 0.0
H687 H 0.69361 0.21014 0.25 0.0
H688 H 0.61923 0.3694 0.23417 0.0
H689 H 0.63549 0.36293 0.20269 0.0
H690 H 0.74678 0.26845 0.21372 0.0
C691 C 0.71279 0.28715 0.28406 0.0
C692 C 0.68273 0.30924 0.29584 0.0
C693 C 0.64623 0.33627 0.28929 0.0
C694 C 0.64049 0.34245 0.27133 0.0
C695 C 0.67114 0.32088 0.26008 0.0
C696 C 0.70611 0.29316 0.26611 0.0
C697 C 0.73385 0.27357 0.25112 0.0
C698 C 0.7842 0.2892 0.25207 0.0
C699 C 0.73013 0.22106 0.25067 0.0
C700 C 0.70933 0.29519 0.23577 0.0
C701 C 0.67354 0.32265 0.24129 0.0
C702 C 0.64684 0.34763 0.22964 0.0
C703 C 0.65653 0.34394 0.21181 0.0
C704 C 0.69226 0.31505 0.2058 0.0
C705 C 0.71903 0.29048 0.21797 0.0
H706 H 0.30981 0.29144 0.79408 0.0
H707 H 0.26179 0.43196 0.79716 0.0
H708 H 0.26209 0.43691 0.76506 0.0
H709 H 0.3865 0.30872 0.75836 0.0
H710 H 0.37503 0.25423 0.74822 0.0
H711 H 0.36882 0.26058 0.77149 0.0
H712 H 0.28492 0.23168 0.76958 0.0
H713 H 0.29091 0.2251 0.7463 0.0
H714 H 0.24528 0.25987 0.75508 0.0
H715 H 0.26971 0.42787 0.73269 0.0
H716 H 0.28446 0.40531 0.70216 0.0
H717 H 0.3284 0.27095 0.71977 0.0
C718 C 0.29891 0.32308 0.78799 0.0
C719 C 0.28566 0.36128 0.79819 0.0
C720 C 0.27209 0.40221 0.78969 0.0
C721 C 0.27207 0.40538 0.77143 0.0
C722 C 0.28576 0.36736 0.76177 0.0
C723 C 0.29889 0.32695 0.76972 0.0
C724 C 0.3134 0.2917 0.75625 0.0
C725 C 0.36394 0.27802 0.75873 0.0
C726 C 0.28173 0.2496 0.75684 0.0
C727 C 0.3067 0.31878 0.73953 0.0
C728 C 0.29053 0.36226 0.74304 0.0
C729 C 0.28224 0.39384 0.72977 0.0
C730 C 0.29079 0.3807 0.71245 0.0
C731 C 0.30763 0.33637 0.7085 0.0
C732 C 0.31548 0.30507 0.7223 0.0
H733 H 0.34619 0.60568 0.2816 0.0
H734 H 0.27776 0.73108 0.29753 0.0
H735 H 0.26854 0.75296 0.26671 0.0
H736 H 0.40806 0.65374 0.24553 0.0
H737 H 0.40144 0.60419 0.23173 0.0
H738 H 0.40217 0.59765 0.25511 0.0
H739 H 0.32346 0.55646 0.25394 0.0
H740 H 0.32251 0.56282 0.23055 0.0
H741 H 0.27557 0.58432 0.24353 0.0
H742 H 0.26832 0.7626 0.23438 0.0
H743 H 0.27561 0.75847 0.20236 0.0
H744 H 0.34287 0.62636 0.20705 0.0
C745 C 0.32913 0.63765 0.27861 0.0
C746 C 0.31282 0.66668 0.29203 0.0
C747 C 0.29068 0.70826 0.28753 0.0
C748 C 0.28522 0.72103 0.27004 0.0
C749 C 0.30187 0.69183 0.25715 0.0
C750 C 0.32321 0.65092 0.26117 0.0
C751 C 0.33812 0.62599 0.24475 0.0
C752 C 0.39056 0.62006 0.24426 0.0
C753 C 0.31343 0.57966 0.2431 0.0
C754 C 0.32202 0.65943 0.23092 0.0
C755 C 0.30127 0.69718 0.23839 0.0
C756 C 0.28435 0.73314 0.22836 0.0
C757 C 0.28875 0.7305 0.21017 0.0
C758 C 0.30975 0.69209 0.20218 0.0
C759 C 0.32645 0.65607 0.21275 0.0
H760 H 0.08421 0.04995 0.15128 0.0
H761 H 0.10844 0.07257 0.09596 0.0
H762 H 0.04311 0.02209 0.08895 0.0
H763 H 0.05045 0.93029 0.14776 0.0
H764 H 0.00754 0.93523 0.16463 0.0
H765 H 0.05761 0.97135 0.16512 0.0
H766 H 0.00509 0.04294 0.1662 0.0
H767 H 0.95487 0.00706 0.16538 0.0
H768 H 0.96292 0.05144 0.14931 0.0
H769 H 0.97359 0.97144 0.08797 0.0
H770 H 0.90836 0.91922 0.09302 0.0
H771 H 0.92893 0.93088 0.149 0.0
C772 C 0.07636 0.04376 0.13767 0.0
C773 C 0.10162 0.06519 0.12417 0.0
C774 C 0.08973 0.05648 0.10654 0.0
C775 C 0.05255 0.02801 0.10242 0.0
C776 C 0.02761 0.00854 0.11606 0.0
C777 C 0.03929 0.01563 0.13332 0.0
C778 C 0.00658 0.99106 0.14552 0.0
C779 C 0.03207 0.95483 0.15639 0.0
C780 C 0.98085 0.02518 0.15729 0.0
C781 C 0.97461 0.96911 0.13242 0.0
C782 C 0.98728 0.9797 0.1155 0.0
C783 C 0.96336 0.96284 0.10116 0.0
C784 C 0.92624 0.93334 0.10418 0.0
C785 C 0.91336 0.92104 0.12141 0.0
C786 C 0.93749 0.93998 0.13568 0.0
H787 H 0.93933 0.09428 0.851 0.0
H788 H 0.88169 0.08459 0.90324 0.0
H789 H 0.92551 0.01366 0.90821 0.0
H790 H 0.9367 0.97638 0.84109 0.0
H791 H 0.99067 0.97553 0.82955 0.0
H792 H 0.95691 0.02717 0.83012 0.0
H793 H 0.02552 0.07229 0.84304 0.0
H794 H 0.05988 0.02112 0.84204 0.0
H795 H 0.05343 0.05126 0.86243 0.0
H796 H 0.97027 0.9417 0.90684 0.0
H797 H 0.02503 0.87929 0.90141 0.0
H798 H 0.0555 0.93566 0.85021 0.0
C799 C 0.93655 0.07776 0.86362 0.0
C800 C 0.90694 0.09498 0.87673 0.0
C801 C 0.90429 0.07226 0.89304 0.0
C802 C 0.92868 0.03168 0.89592 0.0
C803 C 0.95582 0.0146 0.88243 0.0
C804 C 0.96084 0.03736 0.86676 0.0
C805 C 0.99282 0.01181 0.85454 0.0
C806 C 0.96776 0.99684 0.83784 0.0
C807 C 0.03545 0.04084 0.85027 0.0
C808 C 0.00489 0.97097 0.86581 0.0
C809 C 0.98259 0.97313 0.88175 0.0
C810 C 0.98822 0.93976 0.89448 0.0
C811 C 0.01922 0.90433 0.89121 0.0
C812 C 0.04454 0.90271 0.87539 0.0
C813 C 0.03617 0.93568 0.8623 0.0
H814 H 0.91899 0.04441 0.64522 0.0
H815 H 0.90173 0.06075 0.58926 0.0
H816 H 0.96822 0.00972 0.58423 0.0
H817 H 0.03823 0.0501 0.64539 0.0
H818 H 0.04586 0.00826 0.66244 0.0
H819 H 0.99411 0.04178 0.66162 0.0
H820 H 0.94478 0.96788 0.66088 0.0
H821 H 0.99633 0.93407 0.66212 0.0
H822 H 0.95631 0.92495 0.64454 0.0
H823 H 0.04008 0.95978 0.58566 0.0
H824 H 0.10733 0.91214 0.59342 0.0
H825 H 0.07756 0.93342 0.64839 0.0
C826 C 0.92842 0.03666 0.63186 0.0
C827 C 0.90497 0.05654 0.61764 0.0
C828 C 0.91894 0.04568 0.60038 0.0
C829 C 0.95682 0.01693 0.5974 0.0
C830 C 0.98021 -0.00059 0.61179 0.0
C831 C 0.96613 0.00856 0.62867 0.0
C832 C 0.99784 0.9873 0.64196 0.0
C833 C 0.02033 0.02407 0.65352 0.0
C834 C 0.97229 0.95141 0.65302 0.0
C835 C 0.03247 0.96519 0.62996 0.0
C836 C 0.02174 0.97216 0.6126 0.0
C837 C 0.04873 0.95411 0.59922 0.0
C838 C 0.08699 0.92734 0.60375 0.0
C839 C 0.098 0.91933 0.62151 0.0
C840 C 0.07061 0.93928 0.63469 0.0
H841 H 0.05198 0.07218 0.35251 0.0
H842 H 0.07198 0.08647 0.40843 0.0
H843 H 0.01942 0.0215 0.41354 0.0
H844 H 0.93189 0.04212 0.35418 0.0
H845 H 0.9365 0.00197 0.3364 0.0
H846 H 0.97459 0.05042 0.33741 0.0
H847 H 0.04441 0.99547 0.33582 0.0
H848 H 0.00649 0.94681 0.33512 0.0
H849 H 0.04998 0.95041 0.35177 0.0
H850 H 0.96502 0.95436 0.41247 0.0
H851 H 0.90947 0.89326 0.40528 0.0
H852 H 0.92785 0.92236 0.35008 0.0
C853 C 0.0449 0.06213 0.36586 0.0
C854 C 0.06598 0.08453 0.38006 0.0
C855 C 0.05615 0.06987 0.39732 0.0
C856 C 0.02649 0.0329 0.40037 0.0
C857 C 0.00717 0.01091 0.38603 0.0
C858 C 0.01575 0.02519 0.36913 0.0
C859 C 0.99091 0.99569 0.35598 0.0
C860 C 0.95642 0.02425 0.34538 0.0
C861 C 0.02499 0.97061 0.34397 0.0
C862 C 0.96681 0.96271 0.36812 0.0
C863 C 0.97665 0.97191 0.3854 0.0
C864 C 0.95715 0.94672 0.39898 0.0
C865 C 0.9258 0.91199 0.39476 0.0
C866 C 0.91442 0.90284 0.37712 0.0
C867 C 0.93609 0.92804 0.36369 0.0
H868 H 0.42926 0.44347 0.65098 0.0
H869 H 0.39018 0.44241 0.59633 0.0
H870 H 0.45363 0.49551 0.58954 0.0
H871 H 0.4654 0.56384 0.6528 0.0
H872 H 0.51243 0.55139 0.66729 0.0
H873 H 0.46143 0.51658 0.66787 0.0
H874 H 0.51133 0.4443 0.66276 0.0
H875 H 0.56235 0.47899 0.66177 0.0
H876 H 0.54822 0.44155 0.64387 0.0
H877 H 0.52413 0.54569 0.58848 0.0
H878 H 0.59275 0.59363 0.59375 0.0
H879 H 0.58652 0.55886 0.64886 0.0
C880 C 0.4333 0.45532 0.63767 0.0
C881 C 0.40461 0.43904 0.62421 0.0
C882 C 0.41169 0.45458 0.60687 0.0
C883 C 0.44772 0.48461 0.60286 0.0
C884 C 0.47644 0.49868 0.61633 0.0
C885 C 0.46935 0.48493 0.63341 0.0
C886 C 0.50607 0.50368 0.64536 0.0
C887 C 0.48508 0.53579 0.65914 0.0
C888 C 0.53361 0.4648 0.65394 0.0
C889 C 0.53502 0.52981 0.63231 0.0
C890 C 0.51743 0.52665 0.61564 0.0
C891 C 0.53822 0.5485 0.6015 0.0
C892 C 0.57735 0.57539 0.60459 0.0
C893 C 0.59524 0.57994 0.62169 0.0
C894 C 0.57409 0.55597 0.63559 0.0
H895 H 0.41428 0.57705 0.39358 0.0
H896 H 0.45547 0.64603 0.34587 0.0
H897 H 0.5219 0.59461 0.34323 0.0
H898 H 0.53458 0.54944 0.40929 0.0
H899 H 0.51698 0.49432 0.41751 0.0
H900 H 0.47715 0.54156 0.41755 0.0
H901 H 0.41931 0.49253 0.40002 0.0
H902 H 0.45912 0.44547 0.39963 0.0
H903 H 0.43674 0.46798 0.37945 0.0
H904 H 0.5744 0.5302 0.34268 0.0
H905 H 0.61725 0.45847 0.3457 0.0
H906 H 0.54575 0.42917 0.39424 0.0
C907 C 0.43839 0.5823 0.38299 0.0
C908 C 0.43012 0.61562 0.36998 0.0
C909 C 0.4614 0.62076 0.35598 0.0
C910 C 0.49924 0.5918 0.35439 0.0
C911 C 0.5054 0.55797 0.36695 0.0
C912 C 0.47647 0.5533 0.38115 0.0
C913 C 0.489 0.51122 0.39181 0.0
C914 C 0.50541 0.52497 0.41013 0.0
C915 C 0.44863 0.47731 0.39277 0.0
C916 C 0.52817 0.49217 0.38093 0.0
C917 C 0.53694 0.52009 0.36673 0.0
C918 C 0.56859 0.50845 0.35391 0.0
C919 C 0.59233 0.46731 0.35566 0.0
C920 C 0.58465 0.43821 0.37017 0.0
C921 C 0.55247 0.45103 0.38311 0.0
H922 H 0.59246 0.43938 0.14694 0.0
H923 H 0.59471 0.39592 0.09271 0.0
H924 H 0.5254 0.44251 0.08708 0.0
H925 H 0.47307 0.4332 0.15252 0.0
H926 H 0.46932 0.48267 0.16651 0.0
H927 H 0.52116 0.44917 0.16598 0.0
H928 H 0.56873 0.52132 0.15804 0.0
H929 H 0.5172 0.55525 0.15895 0.0
H930 H 0.55212 0.55555 0.13951 0.0
H931 H 0.45381 0.49168 0.08787 0.0
H932 H 0.38926 0.5438 0.09444 0.0
H933 H 0.43336 0.55124 0.14848 0.0
C934 C 0.57907 0.44018 0.13377 0.0
C935 C 0.59921 0.41407 0.12025 0.0
C936 C 0.58008 0.41586 0.10326 0.0
C937 C 0.54057 0.44199 0.09997 0.0
C938 C 0.5207 0.46592 0.1138 0.0
C939 C 0.53963 0.46556 0.13031 0.0
C940 C 0.51124 0.4931 0.14308 0.0
C941 C 0.4926 0.4627 0.15789 0.0
C942 C 0.53897 0.53372 0.15031 0.0
C943 C 0.47315 0.50901 0.1312 0.0
C944 C 0.47916 0.49307 0.11436 0.0
C945 C 0.44877 0.50431 0.10102 0.0
C946 C 0.41211 0.53374 0.1049 0.0
C947 C 0.40607 0.55131 0.12201 0.0
C948 C 0.43654 0.53785 0.13535 0.0
H949 H 0.44097 0.41429 0.89281 0.0
H950 H 0.41528 0.40272 0.83708 0.0
H951 H 0.46941 0.46551 0.83154 0.0
H952 H 0.44741 0.53449 0.89437 0.0
H953 H 0.49352 0.53737 0.90999 0.0
H954 H 0.45532 0.48888 0.90994 0.0
H955 H 0.52432 0.43373 0.90644 0.0
H956 H 0.56284 0.48199 0.90679 0.0
H957 H 0.56432 0.44236 0.88876 0.0
H958 H 0.51944 0.53282 0.83189 0.0
H959 H 0.57205 0.59638 0.8376 0.0
H960 H 0.569 0.5649 0.8931 0.0
C961 C 0.44749 0.42431 0.87942 0.0
C962 C 0.42371 0.40359 0.86538 0.0
C963 C 0.43289 0.41806 0.84806 0.0
C964 C 0.46353 0.45381 0.84476 0.0
C965 C 0.48502 0.47455 0.85889 0.0
C966 C 0.47823 0.46001 0.87584 0.0
C967 C 0.50545 0.48914 0.88858 0.0
C968 C 0.4735 0.51393 0.90148 0.0
C969 C 0.54138 0.46007 0.89821 0.0
C970 C 0.52795 0.52262 0.87607 0.0
C971 C 0.51529 0.51349 0.85905 0.0
C972 C 0.53017 0.54006 0.84513 0.0
C973 C 0.55995 0.57632 0.84857 0.0
C974 C 0.57502 0.58564 0.86582 0.0
C975 C 0.55819 0.5587 0.87979 0.0
H976 H 0.31915 0.31855 0.97757 0.0
H977 H 0.2542 0.21329 0.9462 0.0
H978 H 0.21816 0.18123 0.97254 0.0
H979 H 0.34704 0.24649 0.01295 0.0
H980 H 0.33658 0.28869 0.02965 0.0
H981 H 0.35348 0.30656 0.00809 0.0
H982 H 0.28113 0.3578 0.00607 0.0
H983 H 0.26388 0.33989 0.02763 0.0
H984 H 0.22524 0.3328 0.00948 0.0
H985 H 0.19478 0.15615 0.00225 0.0
H986 H 0.18652 0.13893 0.03366 0.0
H987 H 0.26585 0.25984 0.04645 0.0
C988 C 0.29676 0.28917 0.97623 0.0
C989 C 0.28829 0.26944 0.95966 0.0
C990 C 0.25963 0.2304 0.95852 0.0
C991 C 0.23929 0.2116 0.9735 0.0
C992 C 0.24801 0.23208 0.98957 0.0
C993 C 0.27608 0.26998 0.99109 0.0
C994 C 0.28202 0.28357 0.01009 0.0
C995 C 0.33279 0.28116 0.01551 0.0
C996 C 0.26186 0.33136 0.01352 0.0
C997 C 0.25382 0.24667 0.01904 0.0
C998 C 0.23426 0.21758 0.00689 0.0
C999 C 0.20925 0.17909 0.01187 0.0
C1000 C 0.20473 0.16959 0.02971 0.0
C1001 C 0.22474 0.19858 0.04239 0.0
C1002 C 0.24906 0.23798 0.03699 0.0
H1003 H 0.21649 0.67896 0.03611 0.0
H1004 H 0.34662 0.74933 0.04167 0.0
H1005 H 0.33325 0.78938 0.01359 0.0
H1006 H 0.22093 0.66231 0.98997 0.0
H1007 H 0.16051 0.67248 0.98679 0.0
H1008 H 0.1807 0.6496 0.00721 0.0
H1009 H 0.14148 0.71631 0.02386 0.0
H1010 H 0.121 0.73928 0.0035 0.0
H1011 H 0.15469 0.77457 0.01791 0.0
H1012 H 0.30623 0.81923 0.98418 0.0
H1013 H 0.26521 0.84083 0.95708 0.0
H1014 H 0.15173 0.7529 0.97187 0.0
C1015 C 0.24211 0.70286 0.0314 0.0
C1016 C 0.28242 0.71141 0.04099 0.0
C1017 C 0.31519 0.74296 0.03455 0.0
C1018 C 0.30801 0.76555 0.0186 0.0
C1019 C 0.26776 0.75634 0.00942 0.0
C1020 C 0.23516 0.72609 0.0157 0.0
C1021 C 0.19434 0.72282 0.00362 0.0
C1022 C 0.18883 0.6739 0.99648 0.0
C1023 C 0.15028 0.73924 0.01277 0.0
C1024 C 0.20912 0.7557 0.98946 0.0
C1025 C 0.25173 0.77442 0.99291 0.0
C1026 C 0.27279 0.80489 0.98139 0.0
C1027 C 0.24947 0.8167 0.966 0.0
C1028 C 0.20554 0.7983 0.96245 0.0
C1029 C 0.18521 0.76762 0.97437 0.0
H1030 H 0.75754 0.72991 0.95575 0.0
H1031 H 0.67367 0.61466 0.97167 0.0
H1032 H 0.70169 0.62287 0.00194 0.0
H1033 H 0.85555 0.70836 0.98635 0.0
H1034 H 0.86352 0.76868 0.9903 0.0
H1035 H 0.84242 0.74929 0.96946 0.0
H1036 H 0.77145 0.802 0.97283 0.0
H1037 H 0.79207 0.82125 0.99369 0.0
H1038 H 0.73556 0.79656 0.99192 0.0
H1039 H 0.73057 0.64946 0.03078 0.0
H1040 H 0.7584 0.69245 0.05629 0.0
H1041 H 0.82527 0.78991 0.0219 0.0
C1042 C 0.7466 0.70535 0.9655 0.0
C1043 C 0.71446 0.67088 0.96138 0.0
C1044 C 0.6989 0.6408 0.9746 0.0
C1045 C 0.7147 0.64514 0.99178 0.0
C1046 C 0.7459 0.67991 0.99553 0.0
C1047 C 0.76188 0.70942 0.98276 0.0
C1048 C 0.79173 0.74662 0.99057 0.0
C1049 C 0.84125 0.743 0.98377 0.0
C1050 C 0.77147 0.79441 0.98705 0.0
C1051 C 0.78886 0.73422 0.00975 0.0
C1052 C 0.76276 0.69528 0.0123 0.0
C1053 C 0.75226 0.67917 0.02895 0.0
C1054 C 0.7687 0.70358 0.0434 0.0
C1055 C 0.79563 0.74351 0.04112 0.0
C1056 C 0.80578 0.75882 0.02404 0.0
H1057 H 0.76434 0.29403 0.95887 0.0
H1058 H 0.73386 0.14919 0.95515 0.0
H1059 H 0.70663 0.14944 0.98582 0.0
H1060 H 0.80984 0.29216 1.00013 0.0
H1061 H 0.78655 0.3464 0.00703 0.0
H1062 H 0.79711 0.33593 0.98426 0.0
H1063 H 0.71222 0.35477 0.97715 0.0
H1064 H 0.70141 0.36562 0.99995 0.0
H1065 H 0.66697 0.32446 0.98832 0.0
H1066 H 0.69391 0.16389 0.01817 0.0
H1067 H 0.69369 0.19174 0.04862 0.0
H1068 H 0.72896 0.3279 0.03034 0.0
C1069 C 0.75082 0.26266 0.96442 0.0
C1070 C 0.75038 0.22179 0.95468 0.0
C1071 C 0.73329 0.18111 0.96234 0.0
C1072 C 0.718 0.18092 0.97974 0.0
C1073 C 0.7196 0.22182 0.98914 0.0
C1074 C 0.73502 0.26207 0.98162 0.0
C1075 C 0.73639 0.30074 0.99469 0.0
C1076 C 0.78537 0.31989 0.99664 0.0
C1077 C 0.7022 0.33863 0.98973 0.0
C1078 C 0.72113 0.27564 0.01093 0.0
C1079 C 0.71117 0.23027 0.00753 0.0
C1080 C 0.70026 0.19968 0.02091 0.0
C1081 C 0.69983 0.21592 0.03819 0.0
C1082 C 0.71005 0.26234 0.04186 0.0
C1083 C 0.72028 0.29238 0.02796 0.0
H1084 H 0.74604 0.26485 0.5428 0.0
H1085 H 0.82948 0.15021 0.52607 0.0
H1086 H 0.82767 0.17899 0.49571 0.0
H1087 H 0.67228 0.26242 0.50744 0.0
H1088 H 0.66499 0.32352 0.50561 0.0
H1089 H 0.67914 0.29848 0.52636 0.0
H1090 H 0.75056 0.35103 0.52863 0.0
H1091 H 0.73652 0.37638 0.50785 0.0
H1092 H 0.79229 0.35125 0.51123 0.0
H1093 H 0.80974 0.21466 0.4671 0.0
H1094 H 0.77428 0.25283 0.44184 0.0
H1095 H 0.70144 0.34454 0.47674 0.0
C1096 C 0.76507 0.24682 0.53278 0.0
C1097 C 0.78874 0.20599 0.53666 0.0
C1098 C 0.81171 0.18193 0.52324 0.0
C1099 C 0.81102 0.19812 0.50603 0.0
C1100 C 0.78689 0.23822 0.5025 0.0
C1101 C 0.76422 0.26227 0.51547 0.0
C1102 C 0.73665 0.30145 0.50787 0.0
C1103 C 0.68523 0.29611 0.51207 0.0
C1104 C 0.75512 0.34778 0.51428 0.0
C1105 C 0.74618 0.29472 0.48859 0.0
C1106 C 0.77595 0.25862 0.48582 0.0
C1107 C 0.78737 0.24377 0.46908 0.0
C1108 C 0.7674 0.26602 0.45479 0.0
C1109 C 0.73637 0.30272 0.45731 0.0
C1110 C 0.72595 0.31731 0.47445 0.0
H1111 H 0.1862 0.25859 0.46844 0.0
H1112 H 0.27084 0.13886 0.45947 0.0
H1113 H 0.30656 0.14932 0.48862 0.0
H1114 H 0.27227 0.32523 0.49037 0.0
H1115 H 0.23159 0.35104 0.50514 0.0
H1116 H 0.21347 0.3332 0.48374 0.0
H1117 H 0.14972 0.28315 0.49774 0.0
H1118 H 0.168 0.30043 0.51919 0.0
H1119 H 0.16506 0.24049 0.51371 0.0
H1120 H 0.33042 0.17247 0.51975 0.0
H1121 H 0.34569 0.21045 0.54817 0.0
H1122 H 0.24642 0.31561 0.53537 0.0
C1123 C 0.21238 0.23462 0.47258 0.0
C1124 C 0.22601 0.19808 0.46175 0.0
C1125 C 0.26049 0.16752 0.46753 0.0
C1126 C 0.28059 0.17298 0.4841 0.0
C1127 C 0.26593 0.20932 0.49457 0.0
C1128 C 0.23299 0.2399 0.48887 0.0
C1129 C 0.22374 0.27681 0.50222 0.0
C1130 C 0.23602 0.32437 0.49493 0.0
C1131 C 0.17366 0.27508 0.50859 0.0
C1132 C 0.25653 0.26236 0.51641 0.0
C1133 C 0.28028 0.22307 0.51196 0.0
C1134 C 0.31205 0.20329 0.52332 0.0
C1135 C 0.32025 0.22479 0.53947 0.0
C1136 C 0.29707 0.26575 0.5439 0.0
C1137 C 0.26471 0.28436 0.53225 0.0
H1138 H 0.24445 0.82779 0.53298 0.0
H1139 H 0.20637 0.69337 0.55237 0.0
H1140 H 0.21268 0.66234 0.52252 0.0
H1141 H 0.19048 0.82029 0.49001 0.0
H1142 H 0.23738 0.8496 0.47946 0.0
H1143 H 0.22344 0.8622 0.50188 0.0
H1144 H 0.30705 0.84341 0.51092 0.0
H1145 H 0.32121 0.83067 0.48858 0.0
H1146 H 0.33111 0.78846 0.50532 0.0
H1147 H 0.22843 0.64513 0.49037 0.0
H1148 H 0.25629 0.64284 0.45977 0.0
H1149 H 0.28896 0.78738 0.4625 0.0
C1150 C 0.23662 0.79193 0.53099 0.0
C1151 C 0.22339 0.76349 0.54506 0.0
C1152 C 0.21449 0.71654 0.54181 0.0
C1153 C 0.21849 0.69842 0.52486 0.0
C1154 C 0.2319 0.72755 0.51134 0.0
C1155 C 0.24104 0.7733 0.51429 0.0
C1156 C 0.25877 0.79677 0.49803 0.0
C1157 C 0.22552 0.83444 0.49199 0.0
C1158 C 0.30742 0.81593 0.50089 0.0
C1159 C 0.25909 0.75693 0.48546 0.0
C1160 C 0.24276 0.71739 0.49323 0.0
C1161 C 0.24086 0.67601 0.48415 0.0
C1162 C 0.2565 0.67504 0.46677 0.0
C1163 C 0.27422 0.71506 0.45881 0.0
C1164 C 0.27531 0.75639 0.46829 0.0
H1165 H 0.82593 0.7758 0.46886 0.0
H1166 H 0.68765 0.79648 0.44956 0.0
H1167 H 0.65787 0.79171 0.47972 0.0
H1168 H 0.79714 0.69068 0.49844 0.0
H1169 H 0.83826 0.70757 0.51477 0.0
H1170 H 0.84905 0.72002 0.49215 0.0
H1171 H 0.85832 0.80615 0.49957 0.0
H1172 H 0.8475 0.79393 0.52227 0.0
H1173 H 0.81292 0.8356 0.51098 0.0
H1174 H 0.64273 0.77755 0.51196 0.0
H1175 H 0.64348 0.75076 0.54268 0.0
H1176 H 0.79126 0.73588 0.54011 0.0
C1177 C 0.78945 0.78027 0.47099 0.0
C1178 C 0.75933 0.78809 0.4569 0.0
C1179 C 0.71169 0.79256 0.4602 0.0
C1180 C 0.6944 0.7895 0.4773 0.0
C1181 C 0.72517 0.78163 0.4909 0.0
C1182 C 0.77172 0.77693 0.48787 0.0
C1183 C 0.79723 0.76423 0.50434 0.0
C1184 C 0.82184 0.71787 0.50229 0.0
C1185 C 0.83098 0.80225 0.5096 0.0
C1186 C 0.75766 0.76111 0.51705 0.0
C1187 C 0.71642 0.77212 0.5092 0.0
C1188 C 0.67493 0.76956 0.51829 0.0
C1189 C 0.67565 0.75462 0.53574 0.0
C1190 C 0.71752 0.74205 0.54374 0.0
C1191 C 0.75889 0.74586 0.53431 0.0
H1192 H 0.57772 0.19877 0.11315 0.0
H1193 H 0.60529 0.2185 0.16831 0.0
H1194 H 0.528 0.19085 0.17543 0.0
H1195 H 0.47164 0.23854 0.11236 0.0
H1196 H 0.44547 0.19765 0.09784 0.0
H1197 H 0.5062 0.20803 0.09665 0.0
H1198 H 0.52323 0.12206 0.10154 0.0
H1199 H 0.46236 0.11093 0.10219 0.0
H1200 H 0.49836 0.09295 0.12003 0.0
H1201 H 0.44394 0.18684 0.17581 0.0
H1202 H 0.36137 0.18596 0.17031 0.0
H1203 H 0.38704 0.15279 0.11589 0.0
C1204 C 0.56837 0.19484 0.12675 0.0
C1205 C 0.59749 0.21119 0.14015 0.0
C1206 C 0.58357 0.20646 0.1578 0.0
C1207 C 0.53961 0.19081 0.162 0.0
C1208 C 0.51037 0.17852 0.14846 0.0
C1209 C 0.52458 0.17832 0.13123 0.0
C1210 C 0.48477 0.16676 0.1192 0.0
C1211 C 0.47657 0.20504 0.10573 0.0
C1212 C 0.49265 0.1204 0.11021 0.0
C1213 C 0.44567 0.16401 0.13229 0.0
C1214 C 0.46135 0.17113 0.14906 0.0
C1215 C 0.43133 0.17832 0.16293 0.0
C1216 C 0.38413 0.17731 0.15967 0.0
C1217 C 0.36687 0.16742 0.1428 0.0
C1218 C 0.39848 0.16022 0.12899 0.0
H1219 H 0.14763 0.62374 0.85498 0.0
H1220 H 0.20043 0.65623 0.90652 0.0
H1221 H 0.20451 0.57502 0.91347 0.0
H1222 H 0.0926 0.51252 0.86363 0.0
H1223 H 0.11664 0.48558 0.84453 0.0
H1224 H 0.10487 0.54621 0.84446 0.0
H1225 H 0.18944 0.56339 0.83614 0.0
H1226 H 0.20094 0.50291 0.83576 0.0
H1227 H 0.23494 0.54011 0.84935 0.0
H1228 H 0.20448 0.49179 0.91531 0.0
H1229 H 0.22933 0.41344 0.9091 0.0
H1230 H 0.19663 0.43297 0.85424 0.0
C1231 C 0.15989 0.61404 0.86775 0.0
C1232 C 0.1703 0.64721 0.88065 0.0
C1233 C 0.18801 0.63219 0.89691 0.0
C1234 C 0.19094 0.5858 0.90099 0.0
C1235 C 0.17881 0.55418 0.8883 0.0
C1236 C 0.16606 0.56745 0.8717 0.0
C1237 C 0.1657 0.52657 0.85942 0.0
C1238 C 0.11705 0.51718 0.85261 0.0
C1239 C 0.19979 0.53366 0.84428 0.0
C1240 C 0.1814 0.48884 0.87173 0.0
C1241 C 0.18617 0.50546 0.8885 0.0
C1242 C 0.2013 0.47826 0.90221 0.0
C1243 C 0.21528 0.43364 0.89852 0.0
C1244 C 0.21585 0.41721 0.88111 0.0
C1245 C 0.19645 0.44442 0.86768 0.0
H1246 H 0.45063 0.73055 0.15227 0.0
H1247 H 0.40121 0.79605 0.1051 0.0
H1248 H 0.47605 0.83501 0.10168 0.0
H1249 H 0.53017 0.82429 0.16733 0.0
H1250 H 0.57213 0.78299 0.17443 0.0
H1251 H 0.51185 0.76924 0.1754 0.0
H1252 H 0.52688 0.69652 0.15688 0.0
H1253 H 0.58688 0.71026 0.15562 0.0
H1254 H 0.55434 0.70203 0.13588 0.0
H1255 H 0.55946 0.85756 0.10108 0.0
H1256 H 0.64417 0.86121 0.1032 0.0
H1257 H 0.63961 0.77615 0.14952 0.0
C1258 C 0.45476 0.75468 0.14165 0.0
C1259 C 0.4198 0.76089 0.12911 0.0
C1260 C 0.42731 0.7913 0.11499 0.0
C1261 C 0.46972 0.81356 0.11295 0.0
C1262 C 0.50424 0.8049 0.12512 0.0
C1263 C 0.49707 0.77635 0.13926 0.0
C1264 C 0.54125 0.76747 0.14909 0.0
C1265 C 0.53869 0.78719 0.16766 0.0
C1266 C 0.553 0.71604 0.14937 0.0
C1267 C 0.57475 0.7941 0.13792 0.0
C1268 C 0.55267 0.81627 0.12437 0.0
C1269 C 0.57697 0.84082 0.11176 0.0
C1270 C 0.625 0.84239 0.11298 0.0
C1271 C 0.6482 0.8189 0.1265 0.0
C1272 C 0.62261 0.79504 0.13922 0.0
H1273 H 0.7897 0.5645 0.89092 0.0
H1274 H 0.79118 0.60285 0.83614 0.0
H1275 H 0.8194 0.52654 0.82844 0.0
H1276 H 0.89624 0.48226 0.8867 0.0
H1277 H 0.87125 0.44445 0.90271 0.0
H1278 H 0.86284 0.50546 0.90444 0.0
H1279 H 0.7751 0.49217 0.9053 0.0
H1280 H 0.78286 0.43151 0.90293 0.0
H1281 H 0.74782 0.46226 0.88752 0.0
H1282 H 0.81716 0.4425 0.82606 0.0
H1283 H 0.80867 0.3597 0.82961 0.0
H1284 H 0.82843 0.37464 0.88551 0.0
C1285 C 0.79847 0.55773 0.87743 0.0
C1286 C 0.78722 0.58948 0.86415 0.0
C1287 C 0.79884 0.57908 0.8466 0.0
C1288 C 0.81496 0.53565 0.84203 0.0
C1289 C 0.82142 0.50362 0.85522 0.0
C1290 C 0.81601 0.5147 0.87267 0.0
C1291 C 0.82192 0.47258 0.88406 0.0
C1292 C 0.86568 0.47642 0.89513 0.0
C1293 C 0.77939 0.46418 0.89562 0.0
C1294 C 0.82686 0.43583 0.8702 0.0
C1295 C 0.82631 0.45452 0.85366 0.0
C1296 C 0.82077 0.42733 0.83888 0.0
C1297 C 0.81627 0.37992 0.84104 0.0
C1298 C 0.81906 0.35956 0.8578 0.0
C1299 C 0.82565 0.38831 0.87248 0.0
H1300 H 0.43152 0.21299 0.61385 0.0
H1301 H 0.41494 0.24101 0.66922 0.0
H1302 H 0.49168 0.21019 0.67477 0.0
H1303 H 0.5048 0.10385 0.62081 0.0
H1304 H 0.53875 0.11686 0.60175 0.0
H1305 H 0.47883 0.13224 0.60241 0.0
H1306 H 0.50079 0.21609 0.59537 0.0
H1307 H 0.56071 0.20148 0.59518 0.0
H1308 H 0.54017 0.24597 0.6095 0.0
H1309 H 0.57505 0.20081 0.67307 0.0
H1310 H 0.65611 0.19343 0.66556 0.0
H1311 H 0.61915 0.15496 0.61264 0.0
C1312 C 0.44317 0.21068 0.62723 0.0
C1313 C 0.41723 0.23005 0.64104 0.0
C1314 C 0.43405 0.2268 0.65836 0.0
C1315 C 0.47777 0.20931 0.66169 0.0
C1316 C 0.50377 0.19365 0.64768 0.0
C1317 C 0.48662 0.19222 0.63088 0.0
C1318 C 0.5233 0.1763 0.61811 0.0
C1319 C 0.51066 0.12952 0.61031 0.0
C1320 C 0.53171 0.21211 0.6037 0.0
C1321 C 0.56431 0.17245 0.63022 0.0
C1322 C 0.5521 0.18287 0.64718 0.0
C1323 C 0.5848 0.1897 0.6601 0.0
C1324 C 0.6311 0.18491 0.6557 0.0
C1325 C 0.64473 0.17151 0.63868 0.0
C1326 C 0.61046 0.16483 0.62583 0.0
H1327 H 0.1951 0.36244 0.34989 0.0
H1328 H 0.12046 0.35493 0.39877 0.0
H1329 H 0.12324 0.43934 0.40127 0.0
H1330 H 0.27058 0.4461 0.36162 0.0
H1331 H 0.27184 0.47515 0.34087 0.0
H1332 H 0.25801 0.41528 0.3418 0.0
H1333 H 0.1814 0.43086 0.3257 0.0
H1334 H 0.19506 0.49103 0.32472 0.0
H1335 H 0.14179 0.47244 0.3344 0.0
H1336 H 0.14493 0.52248 0.40061 0.0
H1337 H 0.1828 0.59753 0.39663 0.0
H1338 H 0.23842 0.55121 0.34712 0.0
C1339 C 0.17802 0.37872 0.3608 0.0
C1340 C 0.15756 0.35243 0.37414 0.0
C1341 C 0.13666 0.37467 0.3885 0.0
C1342 C 0.13769 0.42253 0.38993 0.0
C1343 C 0.15901 0.44756 0.37671 0.0
C1344 C 0.1783 0.42641 0.36231 0.0
C1345 C 0.20253 0.46057 0.35066 0.0
C1346 C 0.25375 0.44856 0.34864 0.0
C1347 C 0.17876 0.46392 0.33281 0.0
C1348 C 0.19579 0.5039 0.36118 0.0
C1349 C 0.17014 0.49588 0.37607 0.0
C1350 C 0.16401 0.52952 0.38878 0.0
C1351 C 0.18568 0.57201 0.38643 0.0
C1352 C 0.21298 0.58042 0.37146 0.0
C1353 C 0.21669 0.54633 0.35846 0.0
H1354 H 0.57353 0.79184 0.61236 0.0
H1355 H 0.60553 0.7833 0.66757 0.0
H1356 H 0.5285 0.81165 0.67477 0.0
H1357 H 0.49263 0.89751 0.61698 0.0
H1358 H 0.45578 0.87515 0.60014 0.0
H1359 H 0.51683 0.86524 0.59914 0.0
H1360 H 0.50138 0.77819 0.597 0.0
H1361 H 0.44056 0.78745 0.59857 0.0
H1362 H 0.46875 0.75023 0.61396 0.0
H1363 H 0.44427 0.81523 0.67601 0.0
H1364 H 0.36114 0.81346 0.67137 0.0
H1365 H 0.38264 0.83398 0.61581 0.0
C1366 C 0.56522 0.79849 0.62591 0.0
C1367 C 0.59547 0.78505 0.6394 0.0
C1368 C 0.5829 0.79316 0.65701 0.0
C1369 C 0.53911 0.80922 0.66125 0.0
C1370 C 0.50867 0.81845 0.64774 0.0
C1371 C 0.52158 0.81531 0.63039 0.0
C1372 C 0.48071 0.82347 0.6185 0.0
C1373 C 0.48685 0.86801 0.60808 0.0
C1374 C 0.4724 0.78238 0.6063 0.0
C1375 C 0.44256 0.82807 0.6319 0.0
C1376 C 0.45954 0.825 0.64866 0.0
C1377 C 0.43061 0.82042 0.66304 0.0
C1378 C 0.38313 0.81978 0.66025 0.0
C1379 C 0.36464 0.82515 0.64328 0.0
C1380 C 0.39513 0.8299 0.62898 0.0
H1381 H 0.82258 0.6322 0.38376 0.0
H1382 H 0.79274 0.65149 0.32873 0.0
H1383 H 0.80027 0.56882 0.32404 0.0
H1384 H 0.89202 0.52619 0.38184 0.0
H1385 H 0.86264 0.50112 0.40023 0.0
H1386 H 0.86939 0.56241 0.39885 0.0
H1387 H 0.78132 0.57332 0.4017 0.0
H1388 H 0.77472 0.51237 0.40355 0.0
H1389 H 0.74381 0.54326 0.38692 0.0
H1390 H 0.80451 0.48424 0.3254 0.0
H1391 H 0.78064 0.40638 0.3331 0.0
H1392 H 0.79 0.44081 0.38814 0.0
C1393 C 0.81742 0.61946 0.37069 0.0
C1394 C 0.80839 0.6493 0.35654 0.0
C1395 C 0.80223 0.63025 0.33969 0.0
C1396 C 0.80623 0.58301 0.33689 0.0
C1397 C 0.81483 0.55473 0.35115 0.0
C1398 C 0.81868 0.57214 0.36783 0.0
C1399 C 0.8172 0.5342 0.38136 0.0
C1400 C 0.86305 0.53079 0.39115 0.0
C1401 C 0.77686 0.54119 0.39412 0.0
C1402 C 0.80988 0.49291 0.36968 0.0
C1403 C 0.81128 0.5054 0.35228 0.0
C1404 C 0.80324 0.47403 0.33897 0.0
C1405 C 0.78981 0.42964 0.34354 0.0
C1406 C 0.78245 0.41754 0.36127 0.0
C1407 C 0.79545 0.44881 0.37449 0.0
H1408 H 0.07671 0.71025 0.6139 0.0
H1409 H 0.10126 0.71947 0.66966 0.0
H1410 H 0.02285 0.69252 0.67537 0.0
H1411 H 0.97199 0.75367 0.61344 0.0
H1412 H 0.94551 0.71665 0.59756 0.0
H1413 H 0.00658 0.72535 0.59715 0.0
H1414 H 0.02085 0.63818 0.59964 0.0
H1415 H 0.95967 0.62883 0.59944 0.0
H1416 H 0.99397 0.6062 0.617 0.0
H1417 H 0.93887 0.68988 0.67494 0.0
H1418 H 0.85665 0.69107 0.66883 0.0
H1419 H 0.88456 0.66966 0.61373 0.0
C1420 C 0.06644 0.7041 0.62728 0.0
C1421 C 0.09511 0.71721 0.64134 0.0
C1422 C 0.07995 0.70979 0.65869 0.0
C1423 C 0.03534 0.69456 0.66208 0.0
C1424 C 0.00667 0.6856 0.64798 0.0
C1425 C 0.02193 0.68821 0.63091 0.0
C1426 C 0.98258 0.68034 0.61824 0.0
C1427 C 0.97633 0.72146 0.60588 0.0
C1428 C 0.98969 0.63572 0.60797 0.0
C1429 C 0.9426 0.67617 0.63088 0.0
C1430 C 0.95747 0.67949 0.64794 0.0
C1431 C 0.92686 0.68432 0.66175 0.0
C1432 C 0.87986 0.68453 0.65812 0.0
C1433 C 0.86336 0.67821 0.64089 0.0
C1434 C 0.89552 0.67395 0.6271 0.0
H1435 H 0.74325 0.95937 0.34688 0.0
H1436 H 0.66703 0.90543 0.39102 0.0
H1437 H 0.6325 0.98183 0.39584 0.0
H1438 H 0.77541 0.05801 0.36703 0.0
H1439 H 0.77261 0.0942 0.348 0.0
H1440 H 0.78333 0.03395 0.34556 0.0
H1441 H 0.71335 0.02634 0.32493 0.0
H1442 H 0.70274 0.08688 0.32706 0.0
H1443 H 0.65789 0.04641 0.33205 0.0
H1444 H 0.6131 0.06682 0.39769 0.0
H1445 H 0.61149 0.15172 0.39647 0.0
H1446 H 0.70703 0.14891 0.35308 0.0
C1447 C 0.71783 0.963 0.35712 0.0
C1448 C 0.70721 0.92617 0.36838 0.0
C1449 C 0.67514 0.93299 0.38206 0.0
C1450 C 0.65544 0.9763 0.38491 0.0
C1451 C 0.6684 0.01242 0.37404 0.0
C1452 C 0.69877 0.00603 0.36036 0.0
C1453 C 0.71184 0.05102 0.35191 0.0
C1454 C 0.76386 0.05978 0.35322 0.0
C1455 C 0.69546 0.05275 0.33286 0.0
C1456 C 0.68503 0.08392 0.36322 0.0
C1457 C 0.65944 0.06116 0.37571 0.0
C1458 C 0.63289 0.08489 0.3879 0.0
C1459 C 0.63255 0.13302 0.38725 0.0
C1460 C 0.65935 0.15675 0.37476 0.0
C1461 C 0.68571 0.13167 0.36262 0.0
H1462 H 0.14029 0.26695 0.61301 0.0
H1463 H 0.13429 0.38292 0.64825 0.0
H1464 H 0.04953 0.37715 0.64889 0.0
H1465 H 0.03796 0.30027 0.58753 0.0
H1466 H 0.02099 0.24154 0.58427 0.0
H1467 H 0.08088 0.25593 0.58639 0.0
H1468 H 0.08865 0.19811 0.61192 0.0
H1469 H 0.02898 0.18349 0.60983 0.0
H1470 H 0.05095 0.20301 0.63051 0.0
H1471 H 0.96618 0.3511 0.64859 0.0
H1472 H 0.89142 0.31106 0.64535 0.0
H1473 H 0.95179 0.22107 0.60675 0.0
C1474 C 0.12115 0.2919 0.62051 0.0
C1475 C 0.14384 0.32519 0.63066 0.0
C1476 C 0.11756 0.35655 0.64063 0.0
C1477 C 0.06944 0.35385 0.64093 0.0
C1478 C 0.04814 0.32043 0.63078 0.0
C1479 C 0.07322 0.29059 0.62051 0.0
C1480 C 0.0424 0.25735 0.61097 0.0
C1481 C 0.04576 0.26421 0.59111 0.0
C1482 C 0.0534 0.20757 0.61612 0.0
C1483 C 0.99607 0.27219 0.61786 0.0
C1484 C -5e-05 0.3084 0.6294 0.0
C1485 C 0.96243 0.32385 0.63913 0.0
C1486 C 0.92016 0.30116 0.6372 0.0
C1487 C 0.91576 0.26446 0.6253 0.0
C1488 C 0.95391 0.25058 0.61529 0.0
H1489 H 0.28725 0.06836 0.38994 0.0
H1490 H 0.26679 0.09693 0.33486 0.0
H1491 H 0.29255 0.01952 0.3276 0.0
H1492 H 0.39192 0.98499 0.38166 0.0
H1493 H 0.3739 0.95016 0.39985 0.0
H1494 H 0.36604 0.01139 0.40053 0.0
H1495 H 0.27981 0.99865 0.40689 0.0
H1496 H 0.28668 0.93765 0.40553 0.0
H1497 H 0.24567 0.9661 0.39168 0.0
H1498 H 0.28768 0.93619 0.32769 0.0
H1499 H 0.28177 0.85431 0.33352 0.0
H1500 H 0.32598 0.87727 0.38695 0.0
C1501 C 0.29084 0.05925 0.37631 0.0
C1502 C 0.27398 0.08843 0.36302 0.0
C1503 C 0.27878 0.07508 0.34532 0.0
C1504 C 0.29342 0.03102 0.34102 0.0
C1505 C 0.30522 0.00144 0.3545 0.0
C1506 C 0.30681 0.0155 0.37173 0.0
C1507 C 0.31746 0.97532 0.38367 0.0
C1508 C 0.36518 0.98079 0.39191 0.0
C1509 C 0.28017 0.96911 0.39776 0.0
C1510 C 0.31685 0.93623 0.37063 0.0
C1511 C 0.30934 0.95226 0.35393 0.0
C1512 C 0.29723 0.92302 0.34038 0.0
C1513 C 0.29431 0.87617 0.34383 0.0
C1514 C 0.30586 0.85817 0.36045 0.0
C1515 C 0.31745 0.88905 0.374 0.0
H1516 H 0.94931 0.75018 0.1567 0.0
H1517 H 0.89928 0.66813 0.1136 0.0
H1518 H 0.97316 0.6268 0.11264 0.0
H1519 H 0.05224 0.77101 0.13932 0.0
H1520 H 0.08541 0.76967 0.15916 0.0
H1521 H 0.0255 0.78383 0.16 0.0
H1522 H 0.01091 0.71822 0.18207 0.0
H1523 H 0.07116 0.70417 0.18155 0.0
H1524 H 0.02895 0.66082 0.1768 0.0
H1525 H 0.05576 0.60542 0.11248 0.0
H1526 H 0.14057 0.60516 0.11325 0.0
H1527 H 0.13833 0.70347 0.15557 0.0
C1528 C 0.95306 0.72189 0.14767 0.0
C1529 C 0.91832 0.71173 0.13542 0.0
C1530 C 0.92525 0.67596 0.12324 0.0
C1531 C 0.9671 0.65229 0.12263 0.0
C1532 C 0.00165 0.66487 0.13427 0.0
C1533 C 0.99495 0.69858 0.1467 0.0
C1534 C 0.03952 0.71075 0.15578 0.0
C1535 C 0.05133 0.76181 0.15341 0.0
C1536 C 0.0375 0.69769 0.1752 0.0
C1537 C 0.07272 0.68036 0.14593 0.0
C1538 C 0.05003 0.6534 0.13386 0.0
C1539 C 0.07377 0.62564 0.12212 0.0
C1540 C 0.12185 0.62597 0.12255 0.0
C1541 C 0.14564 0.65426 0.13448 0.0
C1542 C 0.12076 0.68092 0.14657 0.0
H1543 H 0.71924 0.86177 0.85465 0.0
H1544 H 0.62089 0.85767 0.89712 0.0
H1545 H 0.61884 0.94267 0.89745 0.0
H1546 H 0.7819 0.95764 0.86804 0.0
H1547 H 0.79009 0.9795 0.84625 0.0
H1548 H 0.78241 0.91911 0.84965 0.0
H1549 H 0.71397 0.91974 0.828 0.0
H1550 H 0.72107 0.98047 0.82478 0.0
H1551 H 0.66645 0.95799 0.83179 0.0
H1552 H 0.63323 0.02871 0.89423 0.0
H1553 H 0.66403 0.10625 0.88844 0.0
H1554 H 0.74537 0.05174 0.84576 0.0
C1555 C 0.69668 0.87868 0.86385 0.0
C1556 C 0.67017 0.85329 0.87584 0.0
C1557 C 0.64192 0.87664 0.88796 0.0
C1558 C 0.64013 0.9248 0.88808 0.0
C1559 C 0.66613 0.94879 0.87577 0.0
C1560 C 0.69366 0.9263 0.86384 0.0
C1561 C 0.71918 0.9594 0.85219 0.0
C1562 C 0.77146 0.95357 0.85417 0.0
C1563 C 0.70426 0.95408 0.83306 0.0
C1564 C 0.70286 0.00435 0.85972 0.0
C1565 C 0.67219 0.99775 0.8733 0.0
C1566 C 0.65642 0.03429 0.88339 0.0
C1567 C 0.67389 0.07827 0.87995 0.0
C1568 C 0.70649 0.08528 0.86644 0.0
C1569 C 0.71946 0.04797 0.85582 0.0
H1570 H 0.88553 0.3188 0.11138 0.0
H1571 H 0.86405 0.30803 0.16735 0.0
H1572 H 0.94695 0.30955 0.17193 0.0
H1573 H 0.97008 0.23331 0.1121 0.0
H1574 H 0.00341 0.25695 0.09441 0.0
H1575 H 0.94276 0.26779 0.09559 0.0
H1576 H 0.95905 0.35504 0.09461 0.0
H1577 H 0.01996 0.34426 0.09384 0.0
H1578 H 0.99634 0.38033 0.1107 0.0
H1579 H 0.03102 0.30646 0.17091 0.0
H1580 H 0.1083 0.27741 0.16466 0.0
H1581 H 0.07676 0.27429 0.10931 0.0
C1582 C 0.89793 0.3168 0.12462 0.0
C1583 C 0.86737 0.31538 0.13903 0.0
C1584 C 0.88593 0.31233 0.15608 0.0
C1585 C 0.93336 0.31276 0.15885 0.0
C1586 C 0.96231 0.31447 0.14441 0.0
C1587 C 0.9454 0.31477 0.1276 0.0
C1588 C 0.98365 0.30698 0.11442 0.0
C1589 C 0.97443 0.26368 0.1035 0.0
C1590 C 0.99012 0.34918 0.1027 0.0
C1591 C 0.02435 0.30068 0.12656 0.0
C1592 C 0.01135 0.30736 0.14374 0.0
C1593 C 0.04172 0.30122 0.15752 0.0
C1594 C 0.08568 0.28481 0.15381 0.0
C1595 C 0.09854 0.27329 0.1365 0.0
C1596 C 0.06825 0.28355 0.12261 0.0
H1597 H 0.24107 0.94676 0.89675 0.0
H1598 H 0.287 0.9006 0.84584 0.0
H1599 H 0.32607 0.97468 0.8412 0.0
H1600 H 0.20749 0.04993 0.8835 0.0
H1601 H 0.22364 0.08166 0.90271 0.0
H1602 H 0.21082 0.02172 0.9044 0.0
H1603 H 0.29053 0.00633 0.91814 0.0
H1604 H 0.30344 0.06662 0.9168 0.0
H1605 H 0.34163 0.02541 0.907 0.0
H1606 H 0.34785 0.05773 0.83991 0.0
H1607 H 0.351 0.14217 0.84227 0.0
H1608 H 0.28458 0.13461 0.89286 0.0
C1609 C 0.26125 0.95134 0.88499 0.0
C1610 C 0.26157 0.91775 0.87176 0.0
C1611 C 0.28681 0.92574 0.85624 0.0
C1612 C 0.30913 0.9677 0.8535 0.0
C1613 C 0.3058 0.00121 0.8664 0.0
C1614 C 0.28282 0.99329 0.88194 0.0
C1615 C 0.27779 0.03679 0.89249 0.0
C1616 C 0.22694 0.04817 0.89596 0.0
C1617 C 0.30499 0.03358 0.90962 0.0
C1618 C 0.29944 0.0708 0.88011 0.0
C1619 C 0.31649 0.04958 0.86533 0.0
C1620 C 0.33523 0.0746 0.85154 0.0
C1621 C 0.33632 0.12251 0.85288 0.0
C1622 C 0.31794 0.14476 0.86773 0.0
C1623 C 0.2998 0.11842 0.88154 0.0
loop_
_geom_bond_atom_site_label_1
_geom_bond_atom_site_label_2
_geom_bond_distance
_geom_bond_site_symmetry_2
_ccdc_geom_bond_type
Co0 O3 1.970 . S
Co0 N17 1.989 . S
Co0 O25 1.967 . S
Co0 O32 1.920 . S
Co1 O4 1.966 . S
Co1 N10 2.022 . S
Co1 N18 1.993 . S
Co1 O26 1.941 . S
C2 O3 1.258 . S
C2 O4 1.263 . S
O3 Co0 1.970 . S
O3 C2 1.258 . S
O4 Co1 1.966 . S
O4 C2 1.263 . S
C5 O6 1.235 . S
C5 O32 1.289 . S
O6 C5 1.235 . S
C7 C9 1.400 . S
C7 N10 1.351 . S
C7 C12 1.501 . S
C8 C9 1.387 . S
C8 N11 1.341 . S
C9 C7 1.400 . S
C9 C8 1.387 . S
N10 Co1 2.022 . S
N10 C7 1.351 . S
N10 N11 1.365 . S
N11 C8 1.341 . S
N11 N10 1.365 . S
N11 H31 0.862 . S
C12 C7 1.501 . S
C12 H13 0.961 . S
C12 H14 0.961 . S
C12 H15 0.960 . S
H13 C12 0.961 . S
H14 C12 0.961 . S
H15 C12 0.960 . S
C16 N17 1.342 . S
C16 C20 1.401 . S
C16 C21 1.499 . S
N17 Co0 1.989 . S
N17 C16 1.342 . S
N17 N18 1.388 . S
N18 Co1 1.993 . S
N18 N17 1.388 . S
N18 C19 1.346 . S
C19 N18 1.346 . S
C19 C20 1.396 . S
C19 C29 1.510 . S
C20 C16 1.401 . S
C20 C19 1.396 . S
C21 C16 1.499 . S
C21 H22 0.959 . S
C21 H23 0.960 . S
C21 H24 0.961 . S
H22 C21 0.959 . S
H23 C21 0.960 . S
H24 C21 0.961 . S
O25 Co0 1.967 . S
O25 C33 1.258 . S
O26 Co1 1.941 . S
O26 C33 1.266 . S
H27 C29 0.959 . S
H28 C29 0.961 . S
C29 C19 1.510 . S
C29 H27 0.959 . S
C29 H28 0.961 . S
C29 H30 0.960 . S
H30 C29 0.960 . S
H31 N11 0.862 . S
O32 Co0 1.920 . S
O32 C5 1.289 . S
C33 O25 1.258 . S
C33 O26 1.266 . S
Co34 O37 1.970 . S
Co34 N51 1.989 . S
Co34 O59 1.967 . S
Co34 O66 1.920 . S
Co35 O38 1.966 . S
Co35 N44 2.022 . S
Co35 N52 1.993 . S
Co35 O60 1.941 . S
C36 O37 1.258 . S
C36 O38 1.263 . S
O37 Co34 1.970 . S
O37 C36 1.258 . S
O38 Co35 1.966 . S
O38 C36 1.263 . S
C39 O40 1.235 . S
C39 O66 1.289 . S
O40 C39 1.235 . S
C41 C43 1.400 . S
C41 N44 1.351 . S
C41 C46 1.501 . S
C42 C43 1.387 . S
C42 N45 1.341 . S
C43 C41 1.400 . S
C43 C42 1.387 . S
N44 Co35 2.022 . S
N44 C41 1.351 . S
N44 N45 1.365 . S
N45 C42 1.341 . S
N45 N44 1.365 . S
N45 H65 0.862 . S
C46 C41 1.501 . S
C46 H47 0.961 . S
C46 H48 0.961 . S
C46 H49 0.960 . S
H47 C46 0.961 . S
H48 C46 0.961 . S
H49 C46 0.960 . S
C50 N51 1.342 . S
C50 C54 1.401 . S
C50 C55 1.499 . S
N51 Co34 1.989 . S
N51 C50 1.342 . S
N51 N52 1.388 . S
N52 Co35 1.993 . S
N52 N51 1.388 . S
N52 C53 1.346 . S
C53 N52 1.346 . S
C53 C54 1.396 . S
C53 C63 1.510 . S
C54 C50 1.401 . S
C54 C53 1.396 . S
C55 C50 1.499 . S
C55 H56 0.959 . S
C55 H57 0.960 . S
C55 H58 0.961 . S
H56 C55 0.959 . S
H57 C55 0.960 . S
H58 C55 0.961 . S
O59 Co34 1.967 . S
O59 C67 1.258 . S
O60 Co35 1.941 . S
O60 C67 1.266 . S
H61 C63 0.959 . S
H62 C63 0.961 . S
C63 C53 1.510 . S
C63 H61 0.959 . S
C63 H62 0.961 . S
C63 H64 0.960 . S
H64 C63 0.960 . S
H65 N45 0.862 . S
O66 Co34 1.920 . S
O66 C39 1.289 . S
C67 O59 1.258 . S
C67 O60 1.266 . S
Co68 O71 1.970 . S
Co68 N85 1.989 . S
Co68 O93 1.967 . S
Co68 O100 1.920 . S
Co69 O72 1.966 . S
Co69 N78 2.022 . S
Co69 N86 1.993 . S
Co69 O94 1.941 . S
C70 O71 1.258 . S
C70 O72 1.263 . S
O71 Co68 1.970 . S
O71 C70 1.258 . S
O72 Co69 1.966 . S
O72 C70 1.263 . S
C73 O74 1.235 . S
C73 O100 1.289 . S
O74 C73 1.235 . S
C75 C77 1.400 . S
C75 N78 1.351 . S
C75 C80 1.501 . S
C76 C77 1.387 . S
C76 N79 1.341 . S
C77 C75 1.400 . S
C77 C76 1.387 . S
N78 Co69 2.022 . S
N78 C75 1.351 . S
N78 N79 1.365 . S
N79 C76 1.341 . S
N79 N78 1.365 . S
N79 H99 0.862 . S
C80 C75 1.501 . S
C80 H81 0.961 . S
C80 H82 0.961 . S
C80 H83 0.960 . S
H81 C80 0.961 . S
H82 C80 0.961 . S
H83 C80 0.960 . S
C84 N85 1.342 . S
C84 C88 1.401 . S
C84 C89 1.499 . S
N85 Co68 1.989 . S
N85 C84 1.342 . S
N85 N86 1.388 . S
N86 Co69 1.993 . S
N86 N85 1.388 . S
N86 C87 1.346 . S
C87 N86 1.346 . S
C87 C88 1.396 . S
C87 C97 1.510 . S
C88 C84 1.401 . S
C88 C87 1.396 . S
C89 C84 1.499 . S
C89 H90 0.959 . S
C89 H91 0.960 . S
C89 H92 0.961 . S
H90 C89 0.959 . S
H91 C89 0.960 . S
H92 C89 0.961 . S
O93 Co68 1.967 . S
O93 C101 1.258 . S
O94 Co69 1.941 . S
O94 C101 1.266 . S
H95 C97 0.959 . S
H96 C97 0.961 . S
C97 C87 1.510 . S
C97 H95 0.959 . S
C97 H96 0.961 . S
C97 H98 0.960 . S
H98 C97 0.960 . S
H99 N79 0.862 . S
O100 Co68 1.920 . S
O100 C73 1.289 . S
C101 O93 1.258 . S
C101 O94 1.266 . S
Co102 O105 1.970 . S
Co102 N119 1.989 . S
Co102 O127 1.967 . S
Co102 O134 1.920 . S
Co103 O106 1.966 . S
Co103 N112 2.022 . S
Co103 N120 1.993 . S
Co103 O128 1.941 . S
C104 O105 1.258 . S
C104 O106 1.263 . S
O105 Co102 1.970 . S
O105 C104 1.258 . S
O106 Co103 1.966 . S
O106 C104 1.263 . S
C107 O108 1.235 . S
C107 O134 1.289 . S
O108 C107 1.235 . S
C109 C111 1.400 . S
C109 N112 1.351 . S
C109 C114 1.501 . S
C110 C111 1.387 . S
C110 N113 1.341 . S
C111 C109 1.400 . S
C111 C110 1.387 . S
N112 Co103 2.022 . S
N112 C109 1.351 . S
N112 N113 1.365 . S
N113 C110 1.341 . S
N113 N112 1.365 . S
N113 H133 0.862 . S
C114 C109 1.501 . S
C114 H115 0.961 . S
C114 H116 0.961 . S
C114 H117 0.960 . S
H115 C114 0.961 . S
H116 C114 0.961 . S
H117 C114 0.960 . S
C118 N119 1.342 . S
C118 C122 1.401 . S
C118 C123 1.499 . S
N119 Co102 1.989 . S
N119 C118 1.342 . S
N119 N120 1.388 . S
N120 Co103 1.993 . S
N120 N119 1.388 . S
N120 C121 1.346 . S
C121 N120 1.346 . S
C121 C122 1.396 . S
C121 C131 1.510 . S
C122 C118 1.401 . S
C122 C121 1.396 . S
C123 C118 1.499 . S
C123 H124 0.959 . S
C123 H125 0.960 . S
C123 H126 0.961 . S
H124 C123 0.959 . S
H125 C123 0.960 . S
H126 C123 0.961 . S
O127 Co102 1.967 . S
O127 C135 1.258 . S
O128 Co103 1.941 . S
O128 C135 1.266 . S
H129 C131 0.959 . S
H130 C131 0.961 . S
C131 C121 1.510 . S
C131 H129 0.959 . S
C131 H130 0.961 . S
C131 H132 0.960 . S
H132 C131 0.960 . S
H133 N113 0.862 . S
O134 Co102 1.920 . S
O134 C107 1.289 . S
C135 O127 1.258 . S
C135 O128 1.266 . S
Co136 O139 1.970 . S
Co136 N153 1.989 . S
Co136 O161 1.967 . S
Co136 O168 1.920 . S
Co137 O140 1.966 . S
Co137 N146 2.022 . S
Co137 N154 1.993 . S
Co137 O162 1.941 . S
C138 O139 1.258 . S
C138 O140 1.263 . S
O139 Co136 1.970 . S
O139 C138 1.258 . S
O140 Co137 1.966 . S
O140 C138 1.263 . S
C141 O142 1.235 . S
C141 O168 1.289 . S
O142 C141 1.235 . S
C143 C145 1.400 . S
C143 N146 1.351 . S
C143 C148 1.501 . S
C144 C145 1.387 . S
C144 N147 1.341 . S
C145 C143 1.400 . S
C145 C144 1.387 . S
N146 Co137 2.022 . S
N146 C143 1.351 . S
N146 N147 1.365 . S
N147 C144 1.341 . S
N147 N146 1.365 . S
N147 H167 0.862 . S
C148 C143 1.501 . S
C148 H149 0.961 . S
C148 H150 0.961 . S
C148 H151 0.960 . S
H149 C148 0.961 . S
H150 C148 0.961 . S
H151 C148 0.960 . S
C152 N153 1.342 . S
C152 C156 1.401 . S
C152 C157 1.499 . S
N153 Co136 1.989 . S
N153 C152 1.342 . S
N153 N154 1.388 . S
N154 Co137 1.993 . S
N154 N153 1.388 . S
N154 C155 1.346 . S
C155 N154 1.346 . S
C155 C156 1.396 . S
C155 C165 1.510 . S
C156 C152 1.401 . S
C156 C155 1.396 . S
C157 C152 1.499 . S
C157 H158 0.959 . S
C157 H159 0.960 . S
C157 H160 0.961 . S
H158 C157 0.959 . S
H159 C157 0.960 . S
H160 C157 0.961 . S
O161 Co136 1.967 . S
O161 C169 1.258 . S
O162 Co137 1.941 . S
O162 C169 1.266 . S
H163 C165 0.959 . S
H164 C165 0.961 . S
C165 C155 1.510 . S
C165 H163 0.959 . S
C165 H164 0.961 . S
C165 H166 0.960 . S
H166 C165 0.960 . S
H167 N147 0.862 . S
O168 Co136 1.920 . S
O168 C141 1.289 . S
C169 O161 1.258 . S
C169 O162 1.266 . S
Co170 O173 1.970 . S
Co170 N187 1.989 . S
Co170 O195 1.967 . S
Co170 O202 1.920 . S
Co171 O174 1.966 . S
Co171 N180 2.022 . S
Co171 N188 1.993 . S
Co171 O196 1.941 . S
C172 O173 1.258 . S
C172 O174 1.263 . S
O173 Co170 1.970 . S
O173 C172 1.258 . S
O174 Co171 1.966 . S
O174 C172 1.263 . S
C175 O176 1.235 . S
C175 O202 1.289 . S
O176 C175 1.235 . S
C177 C179 1.400 . S
C177 N180 1.351 . S
C177 C182 1.501 . S
C178 C179 1.387 . S
C178 N181 1.341 . S
C179 C177 1.400 . S
C179 C178 1.387 . S
N180 Co171 2.022 . S
N180 C177 1.351 . S
N180 N181 1.365 . S
N181 C178 1.341 . S
N181 N180 1.365 . S
N181 H201 0.862 . S
C182 C177 1.501 . S
C182 H183 0.961 . S
C182 H184 0.961 . S
C182 H185 0.960 . S
H183 C182 0.961 . S
H184 C182 0.961 . S
H185 C182 0.960 . S
C186 N187 1.342 . S
C186 C190 1.401 . S
C186 C191 1.499 . S
N187 Co170 1.989 . S
N187 C186 1.342 . S
N187 N188 1.388 . S
N188 Co171 1.993 . S
N188 N187 1.388 . S
N188 C189 1.346 . S
C189 N188 1.346 . S
C189 C190 1.396 . S
C189 C199 1.510 . S
C190 C186 1.401 . S
C190 C189 1.396 . S
C191 C186 1.499 . S
C191 H192 0.959 . S
C191 H193 0.960 . S
C191 H194 0.961 . S
H192 C191 0.959 . S
H193 C191 0.960 . S
H194 C191 0.961 . S
O195 Co170 1.967 . S
O195 C203 1.258 . S
O196 Co171 1.941 . S
O196 C203 1.266 . S
H197 C199 0.959 . S
H198 C199 0.961 . S
C199 C189 1.510 . S
C199 H197 0.959 . S
C199 H198 0.961 . S
C199 H200 0.960 . S
H200 C199 0.960 . S
H201 N181 0.862 . S
O202 Co170 1.920 . S
O202 C175 1.289 . S
C203 O195 1.258 . S
C203 O196 1.266 . S
Co204 O207 1.970 . S
Co204 N221 1.989 . S
Co204 O229 1.967 . S
Co204 O236 1.920 . S
Co205 O208 1.966 . S
Co205 N214 2.022 . S
Co205 N222 1.993 . S
Co205 O230 1.941 . S
C206 O207 1.258 . S
C206 O208 1.263 . S
O207 Co204 1.970 . S
O207 C206 1.258 . S
O208 Co205 1.966 . S
O208 C206 1.263 . S
C209 O210 1.235 . S
C209 O236 1.289 . S
O210 C209 1.235 . S
C211 C213 1.400 . S
C211 N214 1.351 . S
C211 C216 1.501 . S
C212 C213 1.387 . S
C212 N215 1.341 . S
C213 C211 1.400 . S
C213 C212 1.387 . S
N214 Co205 2.022 . S
N214 C211 1.351 . S
N214 N215 1.365 . S
N215 C212 1.341 . S
N215 N214 1.365 . S
N215 H235 0.862 . S
C216 C211 1.501 . S
C216 H217 0.961 . S
C216 H218 0.961 . S
C216 H219 0.960 . S
H217 C216 0.961 . S
H218 C216 0.961 . S
H219 C216 0.960 . S
C220 N221 1.342 . S
C220 C224 1.401 . S
C220 C225 1.499 . S
N221 Co204 1.989 . S
N221 C220 1.342 . S
N221 N222 1.388 . S
N222 Co205 1.993 . S
N222 N221 1.388 . S
N222 C223 1.346 . S
C223 N222 1.346 . S
C223 C224 1.396 . S
C223 C233 1.510 . S
C224 C220 1.401 . S
C224 C223 1.396 . S
C225 C220 1.499 . S
C225 H226 0.959 . S
C225 H227 0.960 . S
C225 H228 0.961 . S
H226 C225 0.959 . S
H227 C225 0.960 . S
H228 C225 0.961 . S
O229 Co204 1.967 . S
O229 C237 1.258 . S
O230 Co205 1.941 . S
O230 C237 1.266 . S
H231 C233 0.959 . S
H232 C233 0.961 . S
C233 C223 1.510 . S
C233 H231 0.959 . S
C233 H232 0.961 . S
C233 H234 0.960 . S
H234 C233 0.960 . S
H235 N215 0.862 . S
O236 Co204 1.920 . S
O236 C209 1.289 . S
C237 O229 1.258 . S
C237 O230 1.266 . S
Co238 O241 1.970 . S
Co238 N255 1.989 . S
Co238 O263 1.967 . S
Co238 O270 1.920 . S
Co239 O242 1.966 . S
Co239 N248 2.022 . S
Co239 N256 1.993 . S
Co239 O264 1.941 . S
C240 O241 1.258 . S
C240 O242 1.263 . S
O241 Co238 1.970 . S
O241 C240 1.258 . S
O242 Co239 1.966 . S
O242 C240 1.263 . S
C243 O244 1.235 . S
C243 O270 1.289 . S
O244 C243 1.235 . S
C245 C247 1.400 . S
C245 N248 1.351 . S
C245 C250 1.501 . S
C246 C247 1.387 . S
C246 N249 1.341 . S
C247 C245 1.400 . S
C247 C246 1.387 . S
N248 Co239 2.022 . S
N248 C245 1.351 . S
N248 N249 1.365 . S
N249 C246 1.341 . S
N249 N248 1.365 . S
N249 H269 0.862 . S
C250 C245 1.501 . S
C250 H251 0.961 . S
C250 H252 0.961 . S
C250 H253 0.960 . S
H251 C250 0.961 . S
H252 C250 0.961 . S
H253 C250 0.960 . S
C254 N255 1.342 . S
C254 C258 1.401 . S
C254 C259 1.499 . S
N255 Co238 1.989 . S
N255 C254 1.342 . S
N255 N256 1.388 . S
N256 Co239 1.993 . S
N256 N255 1.388 . S
N256 C257 1.346 . S
C257 N256 1.346 . S
C257 C258 1.396 . S
C257 C267 1.510 . S
C258 C254 1.401 . S
C258 C257 1.396 . S
C259 C254 1.499 . S
C259 H260 0.959 . S
C259 H261 0.960 . S
C259 H262 0.961 . S
H260 C259 0.959 . S
H261 C259 0.960 . S
H262 C259 0.961 . S
O263 Co238 1.967 . S
O263 C271 1.258 . S
O264 Co239 1.941 . S
O264 C271 1.266 . S
H265 C267 0.959 . S
H266 C267 0.961 . S
C267 C257 1.510 . S
C267 H265 0.959 . S
C267 H266 0.961 . S
C267 H268 0.960 . S
H268 C267 0.960 . S
H269 N249 0.862 . S
O270 Co238 1.920 . S
O270 C243 1.289 . S
C271 O263 1.258 . S
C271 O264 1.266 . S
Co272 O275 1.970 . S
Co272 N289 1.989 . S
Co272 O297 1.967 . S
Co272 O304 1.920 . S
Co273 O276 1.966 . S
Co273 N282 2.022 . S
Co273 N290 1.993 . S
Co273 O298 1.941 . S
C274 O275 1.258 . S
C274 O276 1.263 . S
O275 Co272 1.970 . S
O275 C274 1.258 . S
O276 Co273 1.966 . S
O276 C274 1.263 . S
C277 O278 1.235 . S
C277 O304 1.289 . S
O278 C277 1.235 . S
C279 C281 1.400 . S
C279 N282 1.351 . S
C279 C284 1.501 . S
C280 C281 1.387 . S
C280 N283 1.341 . S
C281 C279 1.400 . S
C281 C280 1.387 . S
N282 Co273 2.022 . S
N282 C279 1.351 . S
N282 N283 1.365 . S
N283 C280 1.341 . S
N283 N282 1.365 . S
N283 H303 0.862 . S
C284 C279 1.501 . S
C284 H285 0.961 . S
C284 H286 0.961 . S
C284 H287 0.960 . S
H285 C284 0.961 . S
H286 C284 0.961 . S
H287 C284 0.960 . S
C288 N289 1.342 . S
C288 C292 1.401 . S
C288 C293 1.499 . S
N289 Co272 1.989 . S
N289 C288 1.342 . S
N289 N290 1.388 . S
N290 Co273 1.993 . S
N290 N289 1.388 . S
N290 C291 1.346 . S
C291 N290 1.346 . S
C291 C292 1.396 . S
C291 C301 1.510 . S
C292 C288 1.401 . S
C292 C291 1.396 . S
C293 C288 1.499 . S
C293 H294 0.959 . S
C293 H295 0.960 . S
C293 H296 0.961 . S
H294 C293 0.959 . S
H295 C293 0.960 . S
H296 C293 0.961 . S
O297 Co272 1.967 . S
O297 C305 1.258 . S
O298 Co273 1.941 . S
O298 C305 1.266 . S
H299 C301 0.959 . S
H300 C301 0.961 . S
C301 C291 1.510 . S
C301 H299 0.959 . S
C301 H300 0.961 . S
C301 H302 0.960 . S
H302 C301 0.960 . S
H303 N283 0.862 . S
O304 Co272 1.920 . S
O304 C277 1.289 . S
C305 O297 1.258 . S
C305 O298 1.266 . S
Co306 O309 1.970 . S
Co306 N323 1.989 . S
Co306 O331 1.967 . S
Co306 O338 1.920 . S
Co307 O310 1.966 . S
Co307 N316 2.022 . S
Co307 N324 1.993 . S
Co307 O332 1.941 . S
C308 O309 1.258 . S
C308 O310 1.263 . S
O309 Co306 1.970 . S
O309 C308 1.258 . S
O310 Co307 1.966 . S
O310 C308 1.263 . S
C311 O312 1.235 . S
C311 O338 1.289 . S
O312 C311 1.235 . S
C313 C315 1.400 . S
C313 N316 1.351 . S
C313 C318 1.501 . S
C314 C315 1.387 . S
C314 N317 1.341 . S
C315 C313 1.400 . S
C315 C314 1.387 . S
N316 Co307 2.022 . S
N316 C313 1.351 . S
N316 N317 1.365 . S
N317 C314 1.341 . S
N317 N316 1.365 . S
N317 H337 0.862 . S
C318 C313 1.501 . S
C318 H319 0.961 . S
C318 H320 0.961 . S
C318 H321 0.960 . S
H319 C318 0.961 . S
H320 C318 0.961 . S
H321 C318 0.960 . S
C322 N323 1.342 . S
C322 C326 1.401 . S
C322 C327 1.499 . S
N323 Co306 1.989 . S
N323 C322 1.342 . S
N323 N324 1.388 . S
N324 Co307 1.993 . S
N324 N323 1.388 . S
N324 C325 1.346 . S
C325 N324 1.346 . S
C325 C326 1.396 . S
C325 C335 1.510 . S
C326 C322 1.401 . S
C326 C325 1.396 . S
C327 C322 1.499 . S
C327 H328 0.959 . S
C327 H329 0.960 . S
C327 H330 0.961 . S
H328 C327 0.959 . S
H329 C327 0.960 . S
H330 C327 0.961 . S
O331 Co306 1.967 . S
O331 C339 1.258 . S
O332 Co307 1.941 . S
O332 C339 1.266 . S
H333 C335 0.959 . S
H334 C335 0.961 . S
C335 C325 1.510 . S
C335 H333 0.959 . S
C335 H334 0.961 . S
C335 H336 0.960 . S
H336 C335 0.960 . S
H337 N317 0.862 . S
O338 Co306 1.920 . S
O338 C311 1.289 . S
C339 O331 1.258 . S
C339 O332 1.266 . S
Co340 O343 1.970 . S
Co340 N357 1.989 . S
Co340 O365 1.967 . S
Co340 O372 1.920 . S
Co341 O344 1.966 . S
Co341 N350 2.022 . S
Co341 N358 1.993 . S
Co341 O366 1.941 . S
C342 O343 1.258 . S
C342 O344 1.263 . S
O343 Co340 1.970 . S
O343 C342 1.258 . S
O344 Co341 1.966 . S
O344 C342 1.263 . S
C345 O346 1.235 . S
C345 O372 1.289 . S
O346 C345 1.235 . S
C347 C349 1.400 . S
C347 N350 1.351 . S
C347 C352 1.501 . S
C348 C349 1.387 . S
C348 N351 1.341 . S
C349 C347 1.400 . S
C349 C348 1.387 . S
N350 Co341 2.022 . S
N350 C347 1.351 . S
N350 N351 1.365 . S
N351 C348 1.341 . S
N351 N350 1.365 . S
N351 H371 0.862 . S
C352 C347 1.501 . S
C352 H353 0.961 . S
C352 H354 0.961 . S
C352 H355 0.960 . S
H353 C352 0.961 . S
H354 C352 0.961 . S
H355 C352 0.960 . S
C356 N357 1.342 . S
C356 C360 1.401 . S
C356 C361 1.499 . S
N357 Co340 1.989 . S
N357 C356 1.342 . S
N357 N358 1.388 . S
N358 Co341 1.993 . S
N358 N357 1.388 . S
N358 C359 1.346 . S
C359 N358 1.346 . S
C359 C360 1.396 . S
C359 C369 1.510 . S
C360 C356 1.401 . S
C360 C359 1.396 . S
C361 C356 1.499 . S
C361 H362 0.959 . S
C361 H363 0.960 . S
C361 H364 0.961 . S
H362 C361 0.959 . S
H363 C361 0.960 . S
H364 C361 0.961 . S
O365 Co340 1.967 . S
O365 C373 1.258 . S
O366 Co341 1.941 . S
O366 C373 1.266 . S
H367 C369 0.959 . S
H368 C369 0.961 . S
C369 C359 1.510 . S
C369 H367 0.959 . S
C369 H368 0.961 . S
C369 H370 0.960 . S
H370 C369 0.960 . S
H371 N351 0.862 . S
O372 Co340 1.920 . S
O372 C345 1.289 . S
C373 O365 1.258 . S
C373 O366 1.266 . S
Co374 O377 1.970 . S
Co374 N391 1.989 . S
Co374 O399 1.967 . S
Co374 O406 1.920 . S
Co375 O378 1.966 . S
Co375 N384 2.022 . S
Co375 N392 1.993 . S
Co375 O400 1.941 . S
C376 O377 1.258 . S
C376 O378 1.263 . S
O377 Co374 1.970 . S
O377 C376 1.258 . S
O378 Co375 1.966 . S
O378 C376 1.263 . S
C379 O380 1.235 . S
C379 O406 1.289 . S
O380 C379 1.235 . S
C381 C383 1.400 . S
C381 N384 1.351 . S
C381 C386 1.501 . S
C382 C383 1.387 . S
C382 N385 1.341 . S
C383 C381 1.400 . S
C383 C382 1.387 . S
N384 Co375 2.022 . S
N384 C381 1.351 . S
N384 N385 1.365 . S
N385 C382 1.341 . S
N385 N384 1.365 . S
N385 H405 0.862 . S
C386 C381 1.501 . S
C386 H387 0.961 . S
C386 H388 0.961 . S
C386 H389 0.960 . S
H387 C386 0.961 . S
H388 C386 0.961 . S
H389 C386 0.960 . S
C390 N391 1.342 . S
C390 C394 1.401 . S
C390 C395 1.499 . S
N391 Co374 1.989 . S
N391 C390 1.342 . S
N391 N392 1.388 . S
N392 Co375 1.993 . S
N392 N391 1.388 . S
N392 C393 1.346 . S
C393 N392 1.346 . S
C393 C394 1.396 . S
C393 C403 1.510 . S
C394 C390 1.401 . S
C394 C393 1.396 . S
C395 C390 1.499 . S
C395 H396 0.959 . S
C395 H397 0.960 . S
C395 H398 0.961 . S
H396 C395 0.959 . S
H397 C395 0.960 . S
H398 C395 0.961 . S
O399 Co374 1.967 . S
O399 C407 1.258 . S
O400 Co375 1.941 . S
O400 C407 1.266 . S
H401 C403 0.959 . S
H402 C403 0.961 . S
C403 C393 1.510 . S
C403 H401 0.959 . S
C403 H402 0.961 . S
C403 H404 0.960 . S
H404 C403 0.960 . S
H405 N385 0.862 . S
O406 Co374 1.920 . S
O406 C379 1.289 . S
C407 O399 1.258 . S
C407 O400 1.266 . S
Co408 O411 1.970 . S
Co408 N425 1.989 . S
Co408 O433 1.967 . S
Co408 O440 1.920 . S
Co409 O412 1.966 . S
Co409 N418 2.022 . S
Co409 N426 1.993 . S
Co409 O434 1.941 . S
C410 O411 1.258 . S
C410 O412 1.263 . S
O411 Co408 1.970 . S
O411 C410 1.258 . S
O412 Co409 1.966 . S
O412 C410 1.263 . S
C413 O414 1.235 . S
C413 O440 1.289 . S
O414 C413 1.235 . S
C415 C417 1.400 . S
C415 N418 1.351 . S
C415 C420 1.501 . S
C416 C417 1.387 . S
C416 N419 1.341 . S
C417 C415 1.400 . S
C417 C416 1.387 . S
N418 Co409 2.022 . S
N418 C415 1.351 . S
N418 N419 1.365 . S
N419 C416 1.341 . S
N419 N418 1.365 . S
N419 H439 0.862 . S
C420 C415 1.501 . S
C420 H421 0.961 . S
C420 H422 0.961 . S
C420 H423 0.960 . S
H421 C420 0.961 . S
H422 C420 0.961 . S
H423 C420 0.960 . S
C424 N425 1.342 . S
C424 C428 1.401 . S
C424 C429 1.499 . S
N425 Co408 1.989 . S
N425 C424 1.342 . S
N425 N426 1.388 . S
N426 Co409 1.993 . S
N426 N425 1.388 . S
N426 C427 1.346 . S
C427 N426 1.346 . S
C427 C428 1.396 . S
C427 C437 1.510 . S
C428 C424 1.401 . S
C428 C427 1.396 . S
C429 C424 1.499 . S
C429 H430 0.959 . S
C429 H431 0.960 . S
C429 H432 0.961 . S
H430 C429 0.959 . S
H431 C429 0.960 . S
H432 C429 0.961 . S
O433 Co408 1.967 . S
O433 C441 1.258 . S
O434 Co409 1.941 . S
O434 C441 1.266 . S
H435 C437 0.959 . S
H436 C437 0.961 . S
C437 C427 1.510 . S
C437 H435 0.959 . S
C437 H436 0.961 . S
C437 H438 0.960 . S
H438 C437 0.960 . S
H439 N419 0.862 . S
O440 Co408 1.920 . S
O440 C413 1.289 . S
C441 O433 1.258 . S
C441 O434 1.266 . S
Co442 O445 1.970 . S
Co442 N459 1.989 . S
Co442 O467 1.967 . S
Co442 O474 1.920 . S
Co443 O446 1.966 . S
Co443 N452 2.022 . S
Co443 N460 1.993 . S
Co443 O468 1.941 . S
C444 O445 1.258 . S
C444 O446 1.263 . S
O445 Co442 1.970 . S
O445 C444 1.258 . S
O446 Co443 1.966 . S
O446 C444 1.263 . S
C447 O448 1.235 . S
C447 O474 1.289 . S
O448 C447 1.235 . S
C449 C451 1.400 . S
C449 N452 1.351 . S
C449 C454 1.501 . S
C450 C451 1.387 . S
C450 N453 1.341 . S
C451 C449 1.400 . S
C451 C450 1.387 . S
N452 Co443 2.022 . S
N452 C449 1.351 . S
N452 N453 1.365 . S
N453 C450 1.341 . S
N453 N452 1.365 . S
N453 H473 0.862 . S
C454 C449 1.501 . S
C454 H455 0.961 . S
C454 H456 0.961 . S
C454 H457 0.960 . S
H455 C454 0.961 . S
H456 C454 0.961 . S
H457 C454 0.960 . S
C458 N459 1.342 . S
C458 C462 1.401 . S
C458 C463 1.499 . S
N459 Co442 1.989 . S
N459 C458 1.342 . S
N459 N460 1.388 . S
N460 Co443 1.993 . S
N460 N459 1.388 . S
N460 C461 1.346 . S
C461 N460 1.346 . S
C461 C462 1.396 . S
C461 C471 1.510 . S
C462 C458 1.401 . S
C462 C461 1.396 . S
C463 C458 1.499 . S
C463 H464 0.959 . S
C463 H465 0.960 . S
C463 H466 0.961 . S
H464 C463 0.959 . S
H465 C463 0.960 . S
H466 C463 0.961 . S
O467 Co442 1.967 . S
O467 C475 1.258 . S
O468 Co443 1.941 . S
O468 C475 1.266 . S
H469 C471 0.959 . S
H470 C471 0.961 . S
C471 C461 1.510 . S
C471 H469 0.959 . S
C471 H470 0.961 . S
C471 H472 0.960 . S
H472 C471 0.960 . S
H473 N453 0.862 . S
O474 Co442 1.920 . S
O474 C447 1.289 . S
C475 O467 1.258 . S
C475 O468 1.266 . S
Co476 O479 1.970 . S
Co476 N493 1.989 . S
Co476 O501 1.967 . S
Co476 O508 1.920 . S
Co477 O480 1.966 . S
Co477 N486 2.022 . S
Co477 N494 1.993 . S
Co477 O502 1.941 . S
C478 O479 1.258 . S
C478 O480 1.263 . S
O479 Co476 1.970 . S
O479 C478 1.258 . S
O480 Co477 1.966 . S
O480 C478 1.263 . S
C481 O482 1.235 . S
C481 O508 1.289 . S
O482 C481 1.235 . S
C483 C485 1.400 . S
C483 N486 1.351 . S
C483 C488 1.501 . S
C484 C485 1.387 . S
C484 N487 1.341 . S
C485 C483 1.400 . S
C485 C484 1.387 . S
N486 Co477 2.022 . S
N486 C483 1.351 . S
N486 N487 1.365 . S
N487 C484 1.341 . S
N487 N486 1.365 . S
N487 H507 0.862 . S
C488 C483 1.501 . S
C488 H489 0.961 . S
C488 H490 0.961 . S
C488 H491 0.960 . S
H489 C488 0.961 . S
H490 C488 0.961 . S
H491 C488 0.960 . S
C492 N493 1.342 . S
C492 C496 1.401 . S
C492 C497 1.499 . S
N493 Co476 1.989 . S
N493 C492 1.342 . S
N493 N494 1.388 . S
N494 Co477 1.993 . S
N494 N493 1.388 . S
N494 C495 1.346 . S
C495 N494 1.346 . S
C495 C496 1.396 . S
C495 C505 1.510 . S
C496 C492 1.401 . S
C496 C495 1.396 . S
C497 C492 1.499 . S
C497 H498 0.959 . S
C497 H499 0.960 . S
C497 H500 0.961 . S
H498 C497 0.959 . S
H499 C497 0.960 . S
H500 C497 0.961 . S
O501 Co476 1.967 . S
O501 C509 1.258 . S
O502 Co477 1.941 . S
O502 C509 1.266 . S
H503 C505 0.959 . S
H504 C505 0.961 . S
C505 C495 1.510 . S
C505 H503 0.959 . S
C505 H504 0.961 . S
C505 H506 0.960 . S
H506 C505 0.960 . S
H507 N487 0.862 . S
O508 Co476 1.920 . S
O508 C481 1.289 . S
C509 O501 1.258 . S
C509 O502 1.266 . S
Co510 O513 1.970 . S
Co510 N527 1.989 . S
Co510 O535 1.967 . S
Co510 O542 1.920 . S
Co511 O514 1.966 . S
Co511 N520 2.022 . S
Co511 N528 1.993 . S
Co511 O536 1.941 . S
C512 O513 1.258 . S
C512 O514 1.263 . S
O513 Co510 1.970 . S
O513 C512 1.258 . S
O514 Co511 1.966 . S
O514 C512 1.263 . S
C515 O516 1.235 . S
C515 O542 1.289 . S
O516 C515 1.235 . S
C517 C519 1.400 . S
C517 N520 1.351 . S
C517 C522 1.501 . S
C518 C519 1.387 . S
C518 N521 1.341 . S
C519 C517 1.400 . S
C519 C518 1.387 . S
N520 Co511 2.022 . S
N520 C517 1.351 . S
N520 N521 1.365 . S
N521 C518 1.341 . S
N521 N520 1.365 . S
N521 H541 0.862 . S
C522 C517 1.501 . S
C522 H523 0.961 . S
C522 H524 0.961 . S
C522 H525 0.960 . S
H523 C522 0.961 . S
H524 C522 0.961 . S
H525 C522 0.960 . S
C526 N527 1.342 . S
C526 C530 1.401 . S
C526 C531 1.499 . S
N527 Co510 1.989 . S
N527 C526 1.342 . S
N527 N528 1.388 . S
N528 Co511 1.993 . S
N528 N527 1.388 . S
N528 C529 1.346 . S
C529 N528 1.346 . S
C529 C530 1.396 . S
C529 C539 1.510 . S
C530 C526 1.401 . S
C530 C529 1.396 . S
C531 C526 1.499 . S
C531 H532 0.959 . S
C531 H533 0.960 . S
C531 H534 0.961 . S
H532 C531 0.959 . S
H533 C531 0.960 . S
H534 C531 0.961 . S
O535 Co510 1.967 . S
O535 C543 1.258 . S
O536 Co511 1.941 . S
O536 C543 1.266 . S
H537 C539 0.959 . S
H538 C539 0.961 . S
C539 C529 1.510 . S
C539 H537 0.959 . S
C539 H538 0.961 . S
C539 H540 0.960 . S
H540 C539 0.960 . S
H541 N521 0.862 . S
O542 Co510 1.920 . S
O542 C515 1.289 . S
C543 O535 1.258 . S
C543 O536 1.266 . S
H544 C556 0.930 . S
H545 C558 0.930 . S
H546 C559 0.930 . S
H547 C563 0.959 . S
H548 C563 0.959 . S
H549 C563 0.961 . S
H550 C564 0.960 . S
H551 C564 0.961 . S
H552 C564 0.959 . S
H553 C567 0.929 . S
H554 C568 0.931 . S
H555 C570 0.930 . S
C556 H544 0.930 . S
C556 C557 1.399 . S
C556 C561 1.399 . S
C557 C556 1.399 . S
C557 C558 1.376 . S
C558 H545 0.930 . S
C558 C557 1.376 . S
C558 C559 1.388 . S
C559 H546 0.930 . S
C559 C558 1.388 . S
C559 C560 1.390 . S
C560 C559 1.390 . S
C560 C561 1.394 . S
C560 C566 1.465 . S
C561 C556 1.399 . S
C561 C560 1.394 . S
C561 C562 1.516 . S
C562 C561 1.516 . S
C562 C563 1.502 . S
C562 C564 1.561 . S
C562 C565 1.526 . S
C563 H547 0.959 . S
C563 H548 0.959 . S
C563 H549 0.961 . S
C563 C562 1.502 . S
C564 H550 0.960 . S
C564 H551 0.961 . S
C564 H552 0.959 . S
C564 C562 1.561 . S
C565 C562 1.526 . S
C565 C566 1.396 . S
C565 C570 1.390 . S
C566 C560 1.465 . S
C566 C565 1.396 . S
C566 C567 1.399 . S
C567 H553 0.929 . S
C567 C566 1.399 . S
C567 C568 1.385 . S
C568 H554 0.931 . S
C568 C567 1.385 . S
C568 C569 1.389 . S
C569 C568 1.389 . S
C569 C570 1.387 . S
C570 H555 0.930 . S
C570 C565 1.390 . S
C570 C569 1.387 . S
H571 C583 0.930 . S
H572 C585 0.930 . S
H573 C586 0.930 . S
H574 C590 0.959 . S
H575 C590 0.959 . S
H576 C590 0.961 . S
H577 C591 0.960 . S
H578 C591 0.961 . S
H579 C591 0.959 . S
H580 C594 0.929 . S
H581 C595 0.931 . S
H582 C597 0.930 . S
C583 H571 0.930 . S
C583 C584 1.399 . S
C583 C588 1.399 . S
C584 C583 1.399 . S
C584 C585 1.376 . S
C585 H572 0.930 . S
C585 C584 1.376 . S
C585 C586 1.388 . S
C586 H573 0.930 . S
C586 C585 1.388 . S
C586 C587 1.390 . S
C587 C586 1.390 . S
C587 C588 1.394 . S
C587 C593 1.465 . S
C588 C583 1.399 . S
C588 C587 1.394 . S
C588 C589 1.516 . S
C589 C588 1.516 . S
C589 C590 1.502 . S
C589 C591 1.561 . S
C589 C592 1.526 . S
C590 H574 0.959 . S
C590 H575 0.959 . S
C590 H576 0.961 . S
C590 C589 1.502 . S
C591 H577 0.960 . S
C591 H578 0.961 . S
C591 H579 0.959 . S
C591 C589 1.561 . S
C592 C589 1.526 . S
C592 C593 1.396 . S
C592 C597 1.390 . S
C593 C587 1.465 . S
C593 C592 1.396 . S
C593 C594 1.399 . S
C594 H580 0.929 . S
C594 C593 1.399 . S
C594 C595 1.385 . S
C595 H581 0.931 . S
C595 C594 1.385 . S
C595 C596 1.389 . S
C596 C595 1.389 . S
C596 C597 1.387 . S
C597 H582 0.930 . S
C597 C592 1.390 . S
C597 C596 1.387 . S
H598 C610 0.930 . S
H599 C612 0.930 . S
H600 C613 0.930 . S
H601 C617 0.959 . S
H602 C617 0.959 . S
H603 C617 0.961 . S
H604 C618 0.960 . S
H605 C618 0.961 . S
H606 C618 0.959 . S
H607 C621 0.929 . S
H608 C622 0.931 . S
H609 C624 0.930 . S
C610 H598 0.930 . S
C610 C611 1.399 . S
C610 C615 1.399 . S
C611 C610 1.399 . S
C611 C612 1.376 . S
C612 H599 0.930 . S
C612 C611 1.376 . S
C612 C613 1.388 . S
C613 H600 0.930 . S
C613 C612 1.388 . S
C613 C614 1.390 . S
C614 C613 1.390 . S
C614 C615 1.394 . S
C614 C620 1.465 . S
C615 C610 1.399 . S
C615 C614 1.394 . S
C615 C616 1.516 . S
C616 C615 1.516 . S
C616 C617 1.502 . S
C616 C618 1.561 . S
C616 C619 1.526 . S
C617 H601 0.959 . S
C617 H602 0.959 . S
C617 H603 0.961 . S
C617 C616 1.502 . S
C618 H604 0.960 . S
C618 H605 0.961 . S
C618 H606 0.959 . S
C618 C616 1.561 . S
C619 C616 1.526 . S
C619 C620 1.396 . S
C619 C624 1.390 . S
C620 C614 1.465 . S
C620 C619 1.396 . S
C620 C621 1.399 . S
C621 H607 0.929 . S
C621 C620 1.399 . S
C621 C622 1.385 . S
C622 H608 0.931 . S
C622 C621 1.385 . S
C622 C623 1.389 . S
C623 C622 1.389 . S
C623 C624 1.387 . S
C624 H609 0.930 . S
C624 C619 1.390 . S
C624 C623 1.387 . S
H625 C637 0.930 . S
H626 C639 0.930 . S
H627 C640 0.930 . S
H628 C644 0.959 . S
H629 C644 0.959 . S
H630 C644 0.961 . S
H631 C645 0.960 . S
H632 C645 0.961 . S
H633 C645 0.959 . S
H634 C648 0.929 . S
H635 C649 0.931 . S
H636 C651 0.930 . S
C637 H625 0.930 . S
C637 C638 1.399 . S
C637 C642 1.399 . S
C638 C637 1.399 . S
C638 C639 1.376 . S
C639 H626 0.930 . S
C639 C638 1.376 . S
C639 C640 1.388 . S
C640 H627 0.930 . S
C640 C639 1.388 . S
C640 C641 1.390 . S
C641 C640 1.390 . S
C641 C642 1.394 . S
C641 C647 1.465 . S
C642 C637 1.399 . S
C642 C641 1.394 . S
C642 C643 1.516 . S
C643 C642 1.516 . S
C643 C644 1.502 . S
C643 C645 1.561 . S
C643 C646 1.526 . S
C644 H628 0.959 . S
C644 H629 0.959 . S
C644 H630 0.961 . S
C644 C643 1.502 . S
C645 H631 0.960 . S
C645 H632 0.961 . S
C645 H633 0.959 . S
C645 C643 1.561 . S
C646 C643 1.526 . S
C646 C647 1.396 . S
C646 C651 1.390 . S
C647 C641 1.465 . S
C647 C646 1.396 . S
C647 C648 1.399 . S
C648 H634 0.929 . S
C648 C647 1.399 . S
C648 C649 1.385 . S
C649 H635 0.931 . S
C649 C648 1.385 . S
C649 C650 1.389 . S
C650 C649 1.389 . S
C650 C651 1.387 . S
C651 H636 0.930 . S
C651 C646 1.390 . S
C651 C650 1.387 . S
H652 C664 0.930 . S
H653 C666 0.930 . S
H654 C667 0.930 . S
H655 C671 0.959 . S
H656 C671 0.959 . S
H657 C671 0.961 . S
H658 C672 0.960 . S
H659 C672 0.961 . S
H660 C672 0.959 . S
H661 C675 0.929 . S
H662 C676 0.931 . S
H663 C678 0.930 . S
C664 H652 0.930 . S
C664 C665 1.399 . S
C664 C669 1.399 . S
C665 C664 1.399 . S
C665 C666 1.376 . S
C666 H653 0.930 . S
C666 C665 1.376 . S
C666 C667 1.388 . S
C667 H654 0.930 . S
C667 C666 1.388 . S
C667 C668 1.390 . S
C668 C667 1.390 . S
C668 C669 1.394 . S
C668 C674 1.465 . S
C669 C664 1.399 . S
C669 C668 1.394 . S
C669 C670 1.516 . S
C670 C669 1.516 . S
C670 C671 1.502 . S
C670 C672 1.561 . S
C670 C673 1.526 . S
C671 H655 0.959 . S
C671 H656 0.959 . S
C671 H657 0.961 . S
C671 C670 1.502 . S
C672 H658 0.960 . S
C672 H659 0.961 . S
C672 H660 0.959 . S
C672 C670 1.561 . S
C673 C670 1.526 . S
C673 C674 1.396 . S
C673 C678 1.390 . S
C674 C668 1.465 . S
C674 C673 1.396 . S
C674 C675 1.399 . S
C675 H661 0.929 . S
C675 C674 1.399 . S
C675 C676 1.385 . S
C676 H662 0.931 . S
C676 C675 1.385 . S
C676 C677 1.389 . S
C677 C676 1.389 . S
C677 C678 1.387 . S
C678 H663 0.930 . S
C678 C673 1.390 . S
C678 C677 1.387 . S
H679 C691 0.930 . S
H680 C693 0.930 . S
H681 C694 0.930 . S
H682 C698 0.959 . S
H683 C698 0.959 . S
H684 C698 0.961 . S
H685 C699 0.960 . S
H686 C699 0.961 . S
H687 C699 0.959 . S
H688 C702 0.929 . S
H689 C703 0.931 . S
H690 C705 0.930 . S
C691 H679 0.930 . S
C691 C692 1.399 . S
C691 C696 1.399 . S
C692 C691 1.399 . S
C692 C693 1.376 . S
C693 H680 0.930 . S
C693 C692 1.376 . S
C693 C694 1.388 . S
C694 H681 0.930 . S
C694 C693 1.388 . S
C694 C695 1.390 . S
C695 C694 1.390 . S
C695 C696 1.394 . S
C695 C701 1.465 . S
C696 C691 1.399 . S
C696 C695 1.394 . S
C696 C697 1.516 . S
C697 C696 1.516 . S
C697 C698 1.502 . S
C697 C699 1.561 . S
C697 C700 1.526 . S
C698 H682 0.959 . S
C698 H683 0.959 . S
C698 H684 0.961 . S
C698 C697 1.502 . S
C699 H685 0.960 . S
C699 H686 0.961 . S
C699 H687 0.959 . S
C699 C697 1.561 . S
C700 C697 1.526 . S
C700 C701 1.396 . S
C700 C705 1.390 . S
C701 C695 1.465 . S
C701 C700 1.396 . S
C701 C702 1.399 . S
C702 H688 0.929 . S
C702 C701 1.399 . S
C702 C703 1.385 . S
C703 H689 0.931 . S
C703 C702 1.385 . S
C703 C704 1.389 . S
C704 C703 1.389 . S
C704 C705 1.387 . S
C705 H690 0.930 . S
C705 C700 1.390 . S
C705 C704 1.387 . S
H706 C718 0.930 . S
H707 C720 0.930 . S
H708 C721 0.930 . S
H709 C725 0.959 . S
H710 C725 0.959 . S
H711 C725 0.961 . S
H712 C726 0.960 . S
H713 C726 0.961 . S
H714 C726 0.959 . S
H715 C729 0.929 . S
H716 C730 0.931 . S
H717 C732 0.930 . S
C718 H706 0.930 . S
C718 C719 1.399 . S
C718 C723 1.399 . S
C719 C718 1.399 . S
C719 C720 1.376 . S
C720 H707 0.930 . S
C720 C719 1.376 . S
C720 C721 1.388 . S
C721 H708 0.930 . S
C721 C720 1.388 . S
C721 C722 1.390 . S
C722 C721 1.390 . S
C722 C723 1.394 . S
C722 C728 1.465 . S
C723 C718 1.399 . S
C723 C722 1.394 . S
C723 C724 1.516 . S
C724 C723 1.516 . S
C724 C725 1.502 . S
C724 C726 1.561 . S
C724 C727 1.526 . S
C725 H709 0.959 . S
C725 H710 0.959 . S
C725 H711 0.961 . S
C725 C724 1.502 . S
C726 H712 0.960 . S
C726 H713 0.961 . S
C726 H714 0.959 . S
C726 C724 1.561 . S
C727 C724 1.526 . S
C727 C728 1.396 . S
C727 C732 1.390 . S
C728 C722 1.465 . S
C728 C727 1.396 . S
C728 C729 1.399 . S
C729 H715 0.929 . S
C729 C728 1.399 . S
C729 C730 1.385 . S
C730 H716 0.931 . S
C730 C729 1.385 . S
C730 C731 1.389 . S
C731 C730 1.389 . S
C731 C732 1.387 . S
C732 H717 0.930 . S
C732 C727 1.390 . S
C732 C731 1.387 . S
H733 C745 0.930 . S
H734 C747 0.930 . S
H735 C748 0.930 . S
H736 C752 0.959 . S
H737 C752 0.959 . S
H738 C752 0.961 . S
H739 C753 0.960 . S
H740 C753 0.961 . S
H741 C753 0.959 . S
H742 C756 0.929 . S
H743 C757 0.931 . S
H744 C759 0.930 . S
C745 H733 0.930 . S
C745 C746 1.399 . S
C745 C750 1.399 . S
C746 C745 1.399 . S
C746 C747 1.376 . S
C747 H734 0.930 . S
C747 C746 1.376 . S
C747 C748 1.388 . S
C748 H735 0.930 . S
C748 C747 1.388 . S
C748 C749 1.390 . S
C749 C748 1.390 . S
C749 C750 1.394 . S
C749 C755 1.465 . S
C750 C745 1.399 . S
C750 C749 1.394 . S
C750 C751 1.516 . S
C751 C750 1.516 . S
C751 C752 1.502 . S
C751 C753 1.561 . S
C751 C754 1.526 . S
C752 H736 0.959 . S
C752 H737 0.959 . S
C752 H738 0.961 . S
C752 C751 1.502 . S
C753 H739 0.960 . S
C753 H740 0.961 . S
C753 H741 0.959 . S
C753 C751 1.561 . S
C754 C751 1.526 . S
C754 C755 1.396 . S
C754 C759 1.390 . S
C755 C749 1.465 . S
C755 C754 1.396 . S
C755 C756 1.399 . S
C756 H742 0.929 . S
C756 C755 1.399 . S
C756 C757 1.385 . S
C757 H743 0.931 . S
C757 C756 1.385 . S
C757 C758 1.389 . S
C758 C757 1.389 . S
C758 C759 1.387 . S
C759 H744 0.930 . S
C759 C754 1.390 . S
C759 C758 1.387 . S
H760 C772 0.930 . S
H761 C774 0.930 . S
H762 C775 0.930 . S
H763 C779 0.959 . S
H764 C779 0.959 . S
H765 C779 0.961 . S
H766 C780 0.960 1_455 S
H767 C780 0.961 1_565 S
H768 C780 0.959 . S
H769 C783 0.929 . S
H770 C784 0.931 . S
H771 C786 0.930 . S
C772 H760 0.930 . S
C772 C773 1.399 . S
C772 C777 1.399 . S
C773 C772 1.399 . S
C773 C774 1.376 . S
C774 H761 0.930 . S
C774 C773 1.376 . S
C774 C775 1.388 . S
C775 H762 0.930 . S
C775 C774 1.388 . S
C775 C776 1.390 . S
C776 C775 1.390 . S
C776 C777 1.394 . S
C776 C782 1.465 1_445 S
C777 C772 1.399 . S
C777 C776 1.394 . S
C777 C778 1.516 1_545 S
C778 C777 1.516 1_565 S
C778 C779 1.502 . S
C778 C780 1.561 1_465 S
C778 C781 1.526 1_455 S
C779 H763 0.959 . S
C779 H764 0.959 . S
C779 H765 0.961 . S
C779 C778 1.502 . S
C780 H766 0.960 1_655 S
C780 H767 0.961 1_545 S
C780 H768 0.959 . S
C780 C778 1.561 1_645 S
C781 C778 1.526 1_655 S
C781 C782 1.396 . S
C781 C786 1.390 . S
C782 C776 1.465 1_665 S
C782 C781 1.396 . S
C782 C783 1.399 . S
C783 H769 0.929 . S
C783 C782 1.399 . S
C783 C784 1.385 . S
C784 H770 0.931 . S
C784 C783 1.385 . S
C784 C785 1.389 . S
C785 C784 1.389 . S
C785 C786 1.387 . S
C786 H771 0.930 . S
C786 C781 1.390 . S
C786 C785 1.387 . S
H787 C799 0.930 . S
H788 C801 0.930 . S
H789 C802 0.930 . S
H790 C806 0.959 . S
H791 C806 0.959 . S
H792 C806 0.961 . S
H793 C807 0.961 1_655 S
H794 C807 0.961 1_565 S
H795 C807 0.959 . S
H796 C810 0.929 . S
H797 C811 0.931 . S
H798 C813 0.930 . S
C799 H787 0.930 . S
C799 C800 1.399 . S
C799 C804 1.399 . S
C800 C799 1.399 . S
C800 C801 1.376 . S
C801 H788 0.930 . S
C801 C800 1.376 . S
C801 C802 1.388 . S
C802 H789 0.930 . S
C802 C801 1.388 . S
C802 C803 1.390 . S
C803 C802 1.390 . S
C803 C804 1.394 . S
C803 C809 1.465 1_645 S
C804 C799 1.399 . S
C804 C803 1.394 . S
C804 C805 1.516 1_545 S
C805 C804 1.516 1_565 S
C805 C806 1.502 . S
C805 C807 1.561 1_665 S
C805 C808 1.526 1_655 S
C806 H790 0.959 . S
C806 H791 0.959 . S
C806 H792 0.961 . S
C806 C805 1.502 . S
C807 H793 0.961 1_455 S
C807 H794 0.961 1_545 S
C807 H795 0.959 . S
C807 C805 1.561 1_445 S
C808 C805 1.526 1_455 S
C808 C809 1.396 . S
C808 C813 1.390 . S
C809 C803 1.465 1_465 S
C809 C808 1.396 . S
C809 C810 1.399 . S
C810 H796 0.929 . S
C810 C809 1.399 . S
C810 C811 1.385 . S
C811 H797 0.931 . S
C811 C810 1.385 . S
C811 C812 1.389 . S
C812 C811 1.389 . S
C812 C813 1.387 . S
C813 H798 0.930 . S
C813 C808 1.390 . S
C813 C812 1.387 . S
H814 C826 0.930 . S
H815 C828 0.930 . S
H816 C829 0.951 . S
H817 C833 0.959 . S
H818 C833 0.959 . S
H819 C833 0.961 . S
H820 C834 0.960 . S
H821 C834 0.961 . S
H822 C834 0.959 . S
H823 C837 0.929 . S
H824 C838 0.931 . S
H825 C840 0.930 . S
C826 H814 0.930 . S
C826 C827 1.399 . S
C826 C831 1.399 . S
C827 C826 1.399 . S
C827 C828 1.376 . S
C828 H815 0.930 . S
C828 C827 1.376 . S
C828 C829 1.368 1_655 S
C829 H816 0.951 . S
C829 C828 1.368 1_455 S
C829 C830 1.389 1_455 S
C830 C829 1.389 1_655 S
C830 C831 1.394 . S
C830 C836 1.462 1_645 S
C831 C826 1.399 . S
C831 C830 1.394 . S
C831 C832 1.516 1_545 S
C832 C831 1.516 1_565 S
C832 C833 1.502 . S
C832 C834 1.561 . S
C832 C835 1.526 1_655 S
C833 H817 0.959 . S
C833 H818 0.959 . S
C833 H819 0.961 . S
C833 C832 1.502 . S
C834 H820 0.960 . S
C834 H821 0.961 . S
C834 H822 0.959 . S
C834 C832 1.561 . S
C835 C832 1.526 1_455 S
C835 C836 1.401 . S
C835 C840 1.390 . S
C836 C830 1.462 1_465 S
C836 C835 1.401 . S
C836 C837 1.398 1_565 S
C837 H823 0.929 . S
C837 C836 1.398 1_545 S
C837 C838 1.385 1_545 S
C838 H824 0.931 . S
C838 C837 1.385 1_565 S
C838 C839 1.389 . S
C839 C838 1.389 . S
C839 C840 1.387 . S
C840 H825 0.930 . S
C840 C835 1.390 . S
C840 C839 1.387 . S
H841 C853 0.930 . S
H842 C855 0.930 . S
H843 C856 0.932 . S
H844 C860 0.959 . S
H845 C860 0.959 . S
H846 C860 0.961 . S
H847 C861 0.960 . S
H848 C861 0.961 . S
H849 C861 0.959 . S
H850 C864 0.929 . S
H851 C865 0.931 . S
H852 C867 0.930 . S
C853 H841 0.930 . S
C853 C854 1.399 . S
C853 C858 1.399 . S
C854 C853 1.399 . S
C854 C855 1.376 . S
C855 H842 0.930 . S
C855 C854 1.376 . S
C855 C856 1.386 1_545 S
C856 H843 0.932 . S
C856 C855 1.386 1_565 S
C856 C857 1.390 1_565 S
C857 C856 1.390 1_545 S
C857 C858 1.394 . S
C857 C863 1.461 1_445 S
C858 C853 1.399 . S
C858 C857 1.394 . S
C858 C859 1.516 1_455 S
C859 C858 1.516 1_655 S
C859 C860 1.502 . S
C859 C861 1.561 . S
C859 C862 1.526 1_545 S
C860 H844 0.959 . S
C860 H845 0.959 . S
C860 H846 0.961 . S
C860 C859 1.502 . S
C861 H847 0.960 . S
C861 H848 0.961 . S
C861 H849 0.959 . S
C861 C859 1.561 . S
C862 C859 1.526 1_565 S
C862 C863 1.402 . S
C862 C867 1.390 . S
C863 C857 1.461 1_665 S
C863 C862 1.402 . S
C863 C864 1.398 1_655 S
C864 H850 0.929 . S
C864 C863 1.398 1_455 S
C864 C865 1.385 1_455 S
C865 H851 0.931 . S
C865 C864 1.385 1_655 S
C865 C866 1.389 . S
C866 C865 1.389 . S
C866 C867 1.387 . S
C867 H852 0.930 . S
C867 C862 1.390 . S
C867 C866 1.387 . S
H868 C880 0.930 . S
H869 C882 0.930 . S
H870 C883 0.930 . S
H871 C887 0.959 . S
H872 C887 0.959 . S
H873 C887 0.961 . S
H874 C888 0.960 . S
H875 C888 0.961 . S
H876 C888 0.959 . S
H877 C891 0.929 . S
H878 C892 0.931 . S
H879 C894 0.930 . S
C880 H868 0.930 . S
C880 C881 1.399 . S
C880 C885 1.399 . S
C881 C880 1.399 . S
C881 C882 1.376 . S
C882 H869 0.930 . S
C882 C881 1.376 . S
C882 C883 1.388 . S
C883 H870 0.930 . S
C883 C882 1.388 . S
C883 C884 1.390 . S
C884 C883 1.390 . S
C884 C885 1.394 . S
C884 C890 1.465 . S
C885 C880 1.399 . S
C885 C884 1.394 . S
C885 C886 1.516 . S
C886 C885 1.516 . S
C886 C887 1.502 . S
C886 C888 1.561 . S
C886 C889 1.526 . S
C887 H871 0.959 . S
C887 H872 0.959 . S
C887 H873 0.961 . S
C887 C886 1.502 . S
C888 H874 0.960 . S
C888 H875 0.961 . S
C888 H876 0.959 . S
C888 C886 1.561 . S
C889 C886 1.526 . S
C889 C890 1.396 . S
C889 C894 1.390 . S
C890 C884 1.465 . S
C890 C889 1.396 . S
C890 C891 1.399 . S
C891 H877 0.929 . S
C891 C890 1.399 . S
C891 C892 1.385 . S
C892 H878 0.931 . S
C892 C891 1.385 . S
C892 C893 1.389 . S
C893 C892 1.389 . S
C893 C894 1.387 . S
C894 H879 0.930 . S
C894 C889 1.390 . S
C894 C893 1.387 . S
H895 C907 0.930 . S
H896 C909 0.930 . S
H897 C910 0.930 . S
H898 C914 0.959 . S
H899 C914 0.959 . S
H900 C914 0.961 . S
H901 C915 0.960 . S
H902 C915 0.961 . S
H903 C915 0.959 . S
H904 C918 0.929 . S
H905 C919 0.931 . S
H906 C921 0.930 . S
C907 H895 0.930 . S
C907 C908 1.399 . S
C907 C912 1.399 . S
C908 C907 1.399 . S
C908 C909 1.376 . S
C909 H896 0.930 . S
C909 C908 1.376 . S
C909 C910 1.388 . S
C910 H897 0.930 . S
C910 C909 1.388 . S
C910 C911 1.390 . S
C911 C910 1.390 . S
C911 C912 1.394 . S
C911 C917 1.465 . S
C912 C907 1.399 . S
C912 C911 1.394 . S
C912 C913 1.516 . S
C913 C912 1.516 . S
C913 C914 1.502 . S
C913 C915 1.561 . S
C913 C916 1.526 . S
C914 H898 0.959 . S
C914 H899 0.959 . S
C914 H900 0.961 . S
C914 C913 1.502 . S
C915 H901 0.960 . S
C915 H902 0.961 . S
C915 H903 0.959 . S
C915 C913 1.561 . S
C916 C913 1.526 . S
C916 C917 1.396 . S
C916 C921 1.390 . S
C917 C911 1.465 . S
C917 C916 1.396 . S
C917 C918 1.399 . S
C918 H904 0.929 . S
C918 C917 1.399 . S
C918 C919 1.385 . S
C919 H905 0.931 . S
C919 C918 1.385 . S
C919 C920 1.389 . S
C920 C919 1.389 . S
C920 C921 1.387 . S
C921 H906 0.930 . S
C921 C916 1.390 . S
C921 C920 1.387 . S
H922 C934 0.930 . S
H923 C936 0.930 . S
H924 C937 0.930 . S
H925 C941 0.959 . S
H926 C941 0.959 . S
H927 C941 0.961 . S
H928 C942 0.960 . S
H929 C942 0.961 . S
H930 C942 0.959 . S
H931 C945 0.929 . S
H932 C946 0.931 . S
H933 C948 0.930 . S
C934 H922 0.930 . S
C934 C935 1.399 . S
C934 C939 1.399 . S
C935 C934 1.399 . S
C935 C936 1.376 . S
C936 H923 0.930 . S
C936 C935 1.376 . S
C936 C937 1.388 . S
C937 H924 0.930 . S
C937 C936 1.388 . S
C937 C938 1.390 . S
C938 C937 1.390 . S
C938 C939 1.394 . S
C938 C944 1.465 . S
C939 C934 1.399 . S
C939 C938 1.394 . S
C939 C940 1.516 . S
C940 C939 1.516 . S
C940 C941 1.502 . S
C940 C942 1.561 . S
C940 C943 1.526 . S
C941 H925 0.959 . S
C941 H926 0.959 . S
C941 H927 0.961 . S
C941 C940 1.502 . S
C942 H928 0.960 . S
C942 H929 0.961 . S
C942 H930 0.959 . S
C942 C940 1.561 . S
C943 C940 1.526 . S
C943 C944 1.396 . S
C943 C948 1.390 . S
C944 C938 1.465 . S
C944 C943 1.396 . S
C944 C945 1.399 . S
C945 H931 0.929 . S
C945 C944 1.399 . S
C945 C946 1.385 . S
C946 H932 0.931 . S
C946 C945 1.385 . S
C946 C947 1.389 . S
C947 C946 1.389 . S
C947 C948 1.387 . S
C948 H933 0.930 . S
C948 C943 1.390 . S
C948 C947 1.387 . S
H949 C961 0.930 . S
H950 C963 0.930 . S
H951 C964 0.930 . S
H952 C968 0.959 . S
H953 C968 0.959 . S
H954 C968 0.961 . S
H955 C969 0.960 . S
H956 C969 0.961 . S
H957 C969 0.959 . S
H958 C972 0.929 . S
H959 C973 0.931 . S
H960 C975 0.930 . S
C961 H949 0.930 . S
C961 C962 1.399 . S
C961 C966 1.399 . S
C962 C961 1.399 . S
C962 C963 1.376 . S
C963 H950 0.930 . S
C963 C962 1.376 . S
C963 C964 1.388 . S
C964 H951 0.930 . S
C964 C963 1.388 . S
C964 C965 1.390 . S
C965 C964 1.390 . S
C965 C966 1.394 . S
C965 C971 1.465 . S
C966 C961 1.399 . S
C966 C965 1.394 . S
C966 C967 1.516 . S
C967 C966 1.516 . S
C967 C968 1.502 . S
C967 C969 1.561 . S
C967 C970 1.526 . S
C968 H952 0.959 . S
C968 H953 0.959 . S
C968 H954 0.961 . S
C968 C967 1.502 . S
C969 H955 0.960 . S
C969 H956 0.961 . S
C969 H957 0.959 . S
C969 C967 1.561 . S
C970 C967 1.526 . S
C970 C971 1.396 . S
C970 C975 1.390 . S
C971 C965 1.465 . S
C971 C970 1.396 . S
C971 C972 1.399 . S
C972 H958 0.929 . S
C972 C971 1.399 . S
C972 C973 1.385 . S
C973 H959 0.931 . S
C973 C972 1.385 . S
C973 C974 1.389 . S
C974 C973 1.389 . S
C974 C975 1.387 . S
C975 H960 0.930 . S
C975 C970 1.390 . S
C975 C974 1.387 . S
H976 C988 0.930 . S
H977 C990 0.930 . S
H978 C991 0.930 . S
H979 C995 0.959 . S
H980 C995 0.959 . S
H981 C995 0.961 . S
H982 C996 0.940 1_556 S
H983 C996 0.961 . S
H984 C996 0.959 . S
H985 C999 0.929 . S
H986 C1000 0.931 . S
H987 C1002 0.930 . S
C988 H976 0.930 . S
C988 C989 1.399 . S
C988 C993 1.399 . S
C989 C988 1.399 . S
C989 C990 1.376 . S
C990 H977 0.930 . S
C990 C989 1.376 . S
C990 C991 1.388 . S
C991 H978 0.930 . S
C991 C990 1.388 . S
C991 C992 1.390 . S
C992 C991 1.390 . S
C992 C993 1.394 . S
C992 C998 1.465 1_556 S
C993 C988 1.399 . S
C993 C992 1.394 . S
C993 C994 1.516 1_556 S
C994 C993 1.516 1_554 S
C994 C995 1.502 . S
C994 C996 1.561 . S
C994 C997 1.526 . S
C995 H979 0.959 . S
C995 H980 0.959 . S
C995 H981 0.961 . S
C995 C994 1.502 . S
C996 H982 0.940 1_554 S
C996 H983 0.961 . S
C996 H984 0.959 . S
C996 C994 1.561 . S
C997 C994 1.526 . S
C997 C998 1.396 . S
C997 C1002 1.390 . S
C998 C992 1.465 1_554 S
C998 C997 1.396 . S
C998 C999 1.399 . S
C999 H985 0.929 . S
C999 C998 1.399 . S
C999 C1000 1.385 . S
C1000 H986 0.931 . S
C1000 C999 1.385 . S
C1000 C1001 1.389 . S
C1001 C1000 1.389 . S
C1001 C1002 1.387 . S
C1002 H987 0.930 . S
C1002 C997 1.390 . S
C1002 C1001 1.387 . S
H1003 C1015 0.930 . S
H1004 C1017 0.930 . S
H1005 C1018 0.930 . S
H1006 C1022 0.959 . S
H1007 C1022 0.959 . S
H1008 C1022 0.961 . S
H1009 C1023 0.924 1_554 S
H1010 C1023 1.005 . S
H1011 C1023 0.945 1_554 S
H1012 C1026 0.929 . S
H1013 C1027 0.931 . S
H1014 C1029 0.930 . S
C1015 H1003 0.930 . S
C1015 C1016 1.399 . S
C1015 C1020 1.399 . S
C1016 C1015 1.399 . S
C1016 C1017 1.376 . S
C1017 H1004 0.930 . S
C1017 C1016 1.376 . S
C1017 C1018 1.388 . S
C1018 H1005 0.930 . S
C1018 C1017 1.388 . S
C1018 C1019 1.390 . S
C1019 C1018 1.390 . S
C1019 C1020 1.394 . S
C1019 C1025 1.465 1_554 S
C1020 C1015 1.399 . S
C1020 C1019 1.394 . S
C1020 C1021 1.516 1_554 S
C1021 C1020 1.516 1_556 S
C1021 C1022 1.502 . S
C1021 C1023 1.570 . S
C1021 C1024 1.526 . S
C1022 H1006 0.959 . S
C1022 H1007 0.959 . S
C1022 H1008 0.961 . S
C1022 C1021 1.502 . S
C1023 H1009 0.924 1_556 S
C1023 H1010 1.005 . S
C1023 H1011 0.945 1_556 S
C1023 C1021 1.570 . S
C1024 C1021 1.526 . S
C1024 C1025 1.396 . S
C1024 C1029 1.390 . S
C1025 C1019 1.465 1_556 S
C1025 C1024 1.396 . S
C1025 C1026 1.399 . S
C1026 H1012 0.929 . S
C1026 C1025 1.399 . S
C1026 C1027 1.385 . S
C1027 H1013 0.931 . S
C1027 C1026 1.385 . S
C1027 C1028 1.389 . S
C1028 C1027 1.389 . S
C1028 C1029 1.387 . S
C1029 H1014 0.930 . S
C1029 C1024 1.390 . S
C1029 C1028 1.387 . S
H1030 C1042 0.930 . S
H1031 C1044 0.930 . S
H1032 C1045 0.930 . S
H1033 C1049 0.959 . S
H1034 C1049 0.959 . S
H1035 C1049 0.961 . S
H1036 C1050 0.960 . S
H1037 C1050 0.961 . S
H1038 C1050 0.959 . S
H1039 C1053 0.929 . S
H1040 C1054 0.931 . S
H1041 C1056 0.930 . S
C1042 H1030 0.930 . S
C1042 C1043 1.399 . S
C1042 C1047 1.399 . S
C1043 C1042 1.399 . S
C1043 C1044 1.376 . S
C1044 H1031 0.930 . S
C1044 C1043 1.376 . S
C1044 C1045 1.388 . S
C1045 H1032 0.930 . S
C1045 C1044 1.388 . S
C1045 C1046 1.390 . S
C1046 C1045 1.390 . S
C1046 C1047 1.394 . S
C1046 C1052 1.465 1_556 S
C1047 C1042 1.399 . S
C1047 C1046 1.394 . S
C1047 C1048 1.516 . S
C1048 C1047 1.516 . S
C1048 C1049 1.502 . S
C1048 C1050 1.561 . S
C1048 C1051 1.526 1_556 S
C1049 H1033 0.959 . S
C1049 H1034 0.959 . S
C1049 H1035 0.961 . S
C1049 C1048 1.502 . S
C1050 H1036 0.960 . S
C1050 H1037 0.961 . S
C1050 H1038 0.959 . S
C1050 C1048 1.561 . S
C1051 C1048 1.526 1_554 S
C1051 C1052 1.396 . S
C1051 C1056 1.390 . S
C1052 C1046 1.465 1_554 S
C1052 C1051 1.396 . S
C1052 C1053 1.399 . S
C1053 H1039 0.929 . S
C1053 C1052 1.399 . S
C1053 C1054 1.385 . S
C1054 H1040 0.931 . S
C1054 C1053 1.385 . S
C1054 C1055 1.389 . S
C1055 C1054 1.389 . S
C1055 C1056 1.387 . S
C1056 H1041 0.930 . S
C1056 C1051 1.390 . S
C1056 C1055 1.387 . S
H1057 C1069 0.930 . S
H1058 C1071 0.930 . S
H1059 C1072 0.930 . S
H1060 C1076 0.959 1_554 S
H1061 C1076 0.959 1_554 S
H1062 C1076 0.961 . S
H1063 C1077 0.960 . S
H1064 C1077 0.961 . S
H1065 C1077 0.959 . S
H1066 C1080 0.929 . S
H1067 C1081 0.931 . S
H1068 C1083 0.930 . S
C1069 H1057 0.930 . S
C1069 C1070 1.399 . S
C1069 C1074 1.399 . S
C1070 C1069 1.399 . S
C1070 C1071 1.376 . S
C1071 H1058 0.930 . S
C1071 C1070 1.376 . S
C1071 C1072 1.388 . S
C1072 H1059 0.930 . S
C1072 C1071 1.388 . S
C1072 C1073 1.390 . S
C1073 C1072 1.390 . S
C1073 C1074 1.394 . S
C1073 C1079 1.465 1_556 S
C1074 C1069 1.399 . S
C1074 C1073 1.394 . S
C1074 C1075 1.516 . S
C1075 C1074 1.516 . S
C1075 C1076 1.502 . S
C1075 C1077 1.561 . S
C1075 C1078 1.526 1_556 S
C1076 H1060 0.959 1_556 S
C1076 H1061 0.959 1_556 S
C1076 H1062 0.961 . S
C1076 C1075 1.502 . S
C1077 H1063 0.960 . S
C1077 H1064 0.961 . S
C1077 H1065 0.959 . S
C1077 C1075 1.561 . S
C1078 C1075 1.526 1_554 S
C1078 C1079 1.396 . S
C1078 C1083 1.390 . S
C1079 C1073 1.465 1_554 S
C1079 C1078 1.396 . S
C1079 C1080 1.399 . S
C1080 H1066 0.929 . S
C1080 C1079 1.399 . S
C1080 C1081 1.385 . S
C1081 H1067 0.931 . S
C1081 C1080 1.385 . S
C1081 C1082 1.389 . S
C1082 C1081 1.389 . S
C1082 C1083 1.387 . S
C1083 H1068 0.930 . S
C1083 C1078 1.390 . S
C1083 C1082 1.387 . S
H1084 C1096 0.930 . S
H1085 C1098 0.930 . S
H1086 C1099 0.930 . S
H1087 C1103 0.959 . S
H1088 C1103 0.959 . S
H1089 C1103 0.961 . S
H1090 C1104 0.960 . S
H1091 C1104 0.961 . S
H1092 C1104 0.959 . S
H1093 C1107 0.929 . S
H1094 C1108 0.931 . S
H1095 C1110 0.930 . S
C1096 H1084 0.930 . S
C1096 C1097 1.399 . S
C1096 C1101 1.399 . S
C1097 C1096 1.399 . S
C1097 C1098 1.376 . S
C1098 H1085 0.930 . S
C1098 C1097 1.376 . S
C1098 C1099 1.388 . S
C1099 H1086 0.930 . S
C1099 C1098 1.388 . S
C1099 C1100 1.390 . S
C1100 C1099 1.390 . S
C1100 C1101 1.394 . S
C1100 C1106 1.465 . S
C1101 C1096 1.399 . S
C1101 C1100 1.394 . S
C1101 C1102 1.516 . S
C1102 C1101 1.516 . S
C1102 C1103 1.502 . S
C1102 C1104 1.561 . S
C1102 C1105 1.526 . S
C1103 H1087 0.959 . S
C1103 H1088 0.959 . S
C1103 H1089 0.961 . S
C1103 C1102 1.502 . S
C1104 H1090 0.960 . S
C1104 H1091 0.961 . S
C1104 H1092 0.959 . S
C1104 C1102 1.561 . S
C1105 C1102 1.526 . S
C1105 C1106 1.396 . S
C1105 C1110 1.390 . S
C1106 C1100 1.465 . S
C1106 C1105 1.396 . S
C1106 C1107 1.399 . S
C1107 H1093 0.929 . S
C1107 C1106 1.399 . S
C1107 C1108 1.385 . S
C1108 H1094 0.931 . S
C1108 C1107 1.385 . S
C1108 C1109 1.389 . S
C1109 C1108 1.389 . S
C1109 C1110 1.387 . S
C1110 H1095 0.930 . S
C1110 C1105 1.390 . S
C1110 C1109 1.387 . S
H1111 C1123 0.930 . S
H1112 C1125 0.930 . S
H1113 C1126 0.930 . S
H1114 C1130 0.959 . S
H1115 C1130 0.959 . S
H1116 C1130 0.961 . S
H1117 C1131 0.960 . S
H1118 C1131 0.961 . S
H1119 C1131 0.959 . S
H1120 C1134 0.929 . S
H1121 C1135 0.931 . S
H1122 C1137 0.930 . S
C1123 H1111 0.930 . S
C1123 C1124 1.399 . S
C1123 C1128 1.399 . S
C1124 C1123 1.399 . S
C1124 C1125 1.376 . S
C1125 H1112 0.930 . S
C1125 C1124 1.376 . S
C1125 C1126 1.388 . S
C1126 H1113 0.930 . S
C1126 C1125 1.388 . S
C1126 C1127 1.390 . S
C1127 C1126 1.390 . S
C1127 C1128 1.394 . S
C1127 C1133 1.465 . S
C1128 C1123 1.399 . S
C1128 C1127 1.394 . S
C1128 C1129 1.516 . S
C1129 C1128 1.516 . S
C1129 C1130 1.502 . S
C1129 C1131 1.561 . S
C1129 C1132 1.526 . S
C1130 H1114 0.959 . S
C1130 H1115 0.959 . S
C1130 H1116 0.961 . S
C1130 C1129 1.502 . S
C1131 H1117 0.960 . S
C1131 H1118 0.961 . S
C1131 H1119 0.959 . S
C1131 C1129 1.561 . S
C1132 C1129 1.526 . S
C1132 C1133 1.396 . S
C1132 C1137 1.390 . S
C1133 C1127 1.465 . S
C1133 C1132 1.396 . S
C1133 C1134 1.399 . S
C1134 H1120 0.929 . S
C1134 C1133 1.399 . S
C1134 C1135 1.385 . S
C1135 H1121 0.931 . S
C1135 C1134 1.385 . S
C1135 C1136 1.389 . S
C1136 C1135 1.389 . S
C1136 C1137 1.387 . S
C1137 H1122 0.930 . S
C1137 C1132 1.390 . S
C1137 C1136 1.387 . S
H1138 C1150 0.930 . S
H1139 C1152 0.930 . S
H1140 C1153 0.930 . S
H1141 C1157 0.959 . S
H1142 C1157 0.959 . S
H1143 C1157 0.961 . S
H1144 C1158 0.960 . S
H1145 C1158 0.961 . S
H1146 C1158 0.959 . S
H1147 C1161 0.929 . S
H1148 C1162 0.931 . S
H1149 C1164 0.930 . S
C1150 H1138 0.930 . S
C1150 C1151 1.399 . S
C1150 C1155 1.399 . S
C1151 C1150 1.399 . S
C1151 C1152 1.376 . S
C1152 H1139 0.930 . S
C1152 C1151 1.376 . S
C1152 C1153 1.388 . S
C1153 H1140 0.930 . S
C1153 C1152 1.388 . S
C1153 C1154 1.390 . S
C1154 C1153 1.390 . S
C1154 C1155 1.394 . S
C1154 C1160 1.465 . S
C1155 C1150 1.399 . S
C1155 C1154 1.394 . S
C1155 C1156 1.516 . S
C1156 C1155 1.516 . S
C1156 C1157 1.502 . S
C1156 C1158 1.561 . S
C1156 C1159 1.526 . S
C1157 H1141 0.959 . S
C1157 H1142 0.959 . S
C1157 H1143 0.961 . S
C1157 C1156 1.502 . S
C1158 H1144 0.960 . S
C1158 H1145 0.961 . S
C1158 H1146 0.959 . S
C1158 C1156 1.561 . S
C1159 C1156 1.526 . S
C1159 C1160 1.396 . S
C1159 C1164 1.390 . S
C1160 C1154 1.465 . S
C1160 C1159 1.396 . S
C1160 C1161 1.399 . S
C1161 H1147 0.929 . S
C1161 C1160 1.399 . S
C1161 C1162 1.385 . S
C1162 H1148 0.931 . S
C1162 C1161 1.385 . S
C1162 C1163 1.389 . S
C1163 C1162 1.389 . S
C1163 C1164 1.387 . S
C1164 H1149 0.930 . S
C1164 C1159 1.390 . S
C1164 C1163 1.387 . S
H1165 C1177 0.930 . S
H1166 C1179 0.930 . S
H1167 C1180 0.930 . S
H1168 C1184 0.959 . S
H1169 C1184 0.959 . S
H1170 C1184 0.961 . S
H1171 C1185 0.960 . S
H1172 C1185 0.961 . S
H1173 C1185 0.959 . S
H1174 C1188 0.929 . S
H1175 C1189 0.931 . S
H1176 C1191 0.930 . S
C1177 H1165 0.930 . S
C1177 C1178 1.399 . S
C1177 C1182 1.399 . S
C1178 C1177 1.399 . S
C1178 C1179 1.376 . S
C1179 H1166 0.930 . S
C1179 C1178 1.376 . S
C1179 C1180 1.388 . S
C1180 H1167 0.930 . S
C1180 C1179 1.388 . S
C1180 C1181 1.390 . S
C1181 C1180 1.390 . S
C1181 C1182 1.394 . S
C1181 C1187 1.465 . S
C1182 C1177 1.399 . S
C1182 C1181 1.394 . S
C1182 C1183 1.516 . S
C1183 C1182 1.516 . S
C1183 C1184 1.502 . S
C1183 C1185 1.561 . S
C1183 C1186 1.526 . S
C1184 H1168 0.959 . S
C1184 H1169 0.959 . S
C1184 H1170 0.961 . S
C1184 C1183 1.502 . S
C1185 H1171 0.960 . S
C1185 H1172 0.961 . S
C1185 H1173 0.959 . S
C1185 C1183 1.561 . S
C1186 C1183 1.526 . S
C1186 C1187 1.396 . S
C1186 C1191 1.390 . S
C1187 C1181 1.465 . S
C1187 C1186 1.396 . S
C1187 C1188 1.399 . S
C1188 H1174 0.929 . S
C1188 C1187 1.399 . S
C1188 C1189 1.385 . S
C1189 H1175 0.931 . S
C1189 C1188 1.385 . S
C1189 C1190 1.389 . S
C1190 C1189 1.389 . S
C1190 C1191 1.387 . S
C1191 H1176 0.930 . S
C1191 C1186 1.390 . S
C1191 C1190 1.387 . S
H1192 C1204 0.930 . S
H1193 C1206 0.930 . S
H1194 C1207 0.930 . S
H1195 C1211 0.959 . S
H1196 C1211 0.959 . S
H1197 C1211 0.961 . S
H1198 C1212 0.960 . S
H1199 C1212 0.961 . S
H1200 C1212 0.959 . S
H1201 C1215 0.929 . S
H1202 C1216 0.931 . S
H1203 C1218 0.930 . S
C1204 H1192 0.930 . S
C1204 C1205 1.399 . S
C1204 C1209 1.399 . S
C1205 C1204 1.399 . S
C1205 C1206 1.376 . S
C1206 H1193 0.930 . S
C1206 C1205 1.376 . S
C1206 C1207 1.388 . S
C1207 H1194 0.930 . S
C1207 C1206 1.388 . S
C1207 C1208 1.390 . S
C1208 C1207 1.390 . S
C1208 C1209 1.394 . S
C1208 C1214 1.465 . S
C1209 C1204 1.399 . S
C1209 C1208 1.394 . S
C1209 C1210 1.516 . S
C1210 C1209 1.516 . S
C1210 C1211 1.502 . S
C1210 C1212 1.561 . S
C1210 C1213 1.526 . S
C1211 H1195 0.959 . S
C1211 H1196 0.959 . S
C1211 H1197 0.961 . S
C1211 C1210 1.502 . S
C1212 H1198 0.960 . S
C1212 H1199 0.961 . S
C1212 H1200 0.959 . S
C1212 C1210 1.561 . S
C1213 C1210 1.526 . S
C1213 C1214 1.396 . S
C1213 C1218 1.390 . S
C1214 C1208 1.465 . S
C1214 C1213 1.396 . S
C1214 C1215 1.399 . S
C1215 H1201 0.929 . S
C1215 C1214 1.399 . S
C1215 C1216 1.385 . S
C1216 H1202 0.931 . S
C1216 C1215 1.385 . S
C1216 C1217 1.389 . S
C1217 C1216 1.389 . S
C1217 C1218 1.387 . S
C1218 H1203 0.930 . S
C1218 C1213 1.390 . S
C1218 C1217 1.387 . S
H1219 C1231 0.930 . S
H1220 C1233 0.930 . S
H1221 C1234 0.930 . S
H1222 C1238 0.959 . S
H1223 C1238 0.959 . S
H1224 C1238 0.961 . S
H1225 C1239 0.960 . S
H1226 C1239 0.961 . S
H1227 C1239 0.959 . S
H1228 C1242 0.929 . S
H1229 C1243 0.931 . S
H1230 C1245 0.930 . S
C1231 H1219 0.930 . S
C1231 C1232 1.399 . S
C1231 C1236 1.399 . S
C1232 C1231 1.399 . S
C1232 C1233 1.376 . S
C1233 H1220 0.930 . S
C1233 C1232 1.376 . S
C1233 C1234 1.388 . S
C1234 H1221 0.930 . S
C1234 C1233 1.388 . S
C1234 C1235 1.390 . S
C1235 C1234 1.390 . S
C1235 C1236 1.394 . S
C1235 C1241 1.465 . S
C1236 C1231 1.399 . S
C1236 C1235 1.394 . S
C1236 C1237 1.516 . S
C1237 C1236 1.516 . S
C1237 C1238 1.502 . S
C1237 C1239 1.561 . S
C1237 C1240 1.526 . S
C1238 H1222 0.959 . S
C1238 H1223 0.959 . S
C1238 H1224 0.961 . S
C1238 C1237 1.502 . S
C1239 H1225 0.960 . S
C1239 H1226 0.961 . S
C1239 H1227 0.959 . S
C1239 C1237 1.561 . S
C1240 C1237 1.526 . S
C1240 C1241 1.396 . S
C1240 C1245 1.390 . S
C1241 C1235 1.465 . S
C1241 C1240 1.396 . S
C1241 C1242 1.399 . S
C1242 H1228 0.929 . S
C1242 C1241 1.399 . S
C1242 C1243 1.385 . S
C1243 H1229 0.931 . S
C1243 C1242 1.385 . S
C1243 C1244 1.389 . S
C1244 C1243 1.389 . S
C1244 C1245 1.387 . S
C1245 H1230 0.930 . S
C1245 C1240 1.390 . S
C1245 C1244 1.387 . S
H1246 C1258 0.930 . S
H1247 C1260 0.930 . S
H1248 C1261 0.930 . S
H1249 C1265 0.959 . S
H1250 C1265 0.959 . S
H1251 C1265 0.961 . S
H1252 C1266 0.960 . S
H1253 C1266 0.961 . S
H1254 C1266 0.959 . S
H1255 C1269 0.929 . S
H1256 C1270 0.931 . S
H1257 C1272 0.930 . S
C1258 H1246 0.930 . S
C1258 C1259 1.399 . S
C1258 C1263 1.399 . S
C1259 C1258 1.399 . S
C1259 C1260 1.376 . S
C1260 H1247 0.930 . S
C1260 C1259 1.376 . S
C1260 C1261 1.388 . S
C1261 H1248 0.930 . S
C1261 C1260 1.388 . S
C1261 C1262 1.390 . S
C1262 C1261 1.390 . S
C1262 C1263 1.394 . S
C1262 C1268 1.465 . S
C1263 C1258 1.399 . S
C1263 C1262 1.394 . S
C1263 C1264 1.516 . S
C1264 C1263 1.516 . S
C1264 C1265 1.502 . S
C1264 C1266 1.561 . S
C1264 C1267 1.526 . S
C1265 H1249 0.959 . S
C1265 H1250 0.959 . S
C1265 H1251 0.961 . S
C1265 C1264 1.502 . S
C1266 H1252 0.960 . S
C1266 H1253 0.961 . S
C1266 H1254 0.959 . S
C1266 C1264 1.561 . S
C1267 C1264 1.526 . S
C1267 C1268 1.396 . S
C1267 C1272 1.390 . S
C1268 C1262 1.465 . S
C1268 C1267 1.396 . S
C1268 C1269 1.399 . S
C1269 H1255 0.929 . S
C1269 C1268 1.399 . S
C1269 C1270 1.385 . S
C1270 H1256 0.931 . S
C1270 C1269 1.385 . S
C1270 C1271 1.389 . S
C1271 C1270 1.389 . S
C1271 C1272 1.387 . S
C1272 H1257 0.930 . S
C1272 C1267 1.390 . S
C1272 C1271 1.387 . S
H1273 C1285 0.930 . S
H1274 C1287 0.930 . S
H1275 C1288 0.930 . S
H1276 C1292 0.959 . S
H1277 C1292 0.959 . S
H1278 C1292 0.961 . S
H1279 C1293 0.960 . S
H1280 C1293 0.961 . S
H1281 C1293 0.959 . S
H1282 C1296 0.929 . S
H1283 C1297 0.931 . S
H1284 C1299 0.930 . S
C1285 H1273 0.930 . S
C1285 C1286 1.399 . S
C1285 C1290 1.399 . S
C1286 C1285 1.399 . S
C1286 C1287 1.376 . S
C1287 H1274 0.930 . S
C1287 C1286 1.376 . S
C1287 C1288 1.388 . S
C1288 H1275 0.930 . S
C1288 C1287 1.388 . S
C1288 C1289 1.390 . S
C1289 C1288 1.390 . S
C1289 C1290 1.394 . S
C1289 C1295 1.465 . S
C1290 C1285 1.399 . S
C1290 C1289 1.394 . S
C1290 C1291 1.516 . S
C1291 C1290 1.516 . S
C1291 C1292 1.502 . S
C1291 C1293 1.561 . S
C1291 C1294 1.526 . S
C1292 H1276 0.959 . S
C1292 H1277 0.959 . S
C1292 H1278 0.961 . S
C1292 C1291 1.502 . S
C1293 H1279 0.960 . S
C1293 H1280 0.961 . S
C1293 H1281 0.959 . S
C1293 C1291 1.561 . S
C1294 C1291 1.526 . S
C1294 C1295 1.396 . S
C1294 C1299 1.390 . S
C1295 C1289 1.465 . S
C1295 C1294 1.396 . S
C1295 C1296 1.399 . S
C1296 H1282 0.929 . S
C1296 C1295 1.399 . S
C1296 C1297 1.385 . S
C1297 H1283 0.931 . S
C1297 C1296 1.385 . S
C1297 C1298 1.389 . S
C1298 C1297 1.389 . S
C1298 C1299 1.387 . S
C1299 H1284 0.930 . S
C1299 C1294 1.390 . S
C1299 C1298 1.387 . S
H1300 C1312 0.930 . S
H1301 C1314 0.930 . S
H1302 C1315 0.930 . S
H1303 C1319 0.959 . S
H1304 C1319 0.959 . S
H1305 C1319 0.961 . S
H1306 C1320 0.960 . S
H1307 C1320 0.961 . S
H1308 C1320 0.959 . S
H1309 C1323 0.929 . S
H1310 C1324 0.931 . S
H1311 C1326 0.930 . S
C1312 H1300 0.930 . S
C1312 C1313 1.399 . S
C1312 C1317 1.399 . S
C1313 C1312 1.399 . S
C1313 C1314 1.376 . S
C1314 H1301 0.930 . S
C1314 C1313 1.376 . S
C1314 C1315 1.388 . S
C1315 H1302 0.930 . S
C1315 C1314 1.388 . S
C1315 C1316 1.390 . S
C1316 C1315 1.390 . S
C1316 C1317 1.394 . S
C1316 C1322 1.465 . S
C1317 C1312 1.399 . S
C1317 C1316 1.394 . S
C1317 C1318 1.516 . S
C1318 C1317 1.516 . S
C1318 C1319 1.502 . S
C1318 C1320 1.561 . S
C1318 C1321 1.526 . S
C1319 H1303 0.959 . S
C1319 H1304 0.959 . S
C1319 H1305 0.961 . S
C1319 C1318 1.502 . S
C1320 H1306 0.960 . S
C1320 H1307 0.961 . S
C1320 H1308 0.959 . S
C1320 C1318 1.561 . S
C1321 C1318 1.526 . S
C1321 C1322 1.396 . S
C1321 C1326 1.390 . S
C1322 C1316 1.465 . S
C1322 C1321 1.396 . S
C1322 C1323 1.399 . S
C1323 H1309 0.929 . S
C1323 C1322 1.399 . S
C1323 C1324 1.385 . S
C1324 H1310 0.931 . S
C1324 C1323 1.385 . S
C1324 C1325 1.389 . S
C1325 C1324 1.389 . S
C1325 C1326 1.387 . S
C1326 H1311 0.930 . S
C1326 C1321 1.390 . S
C1326 C1325 1.387 . S
H1327 C1339 0.930 . S
H1328 C1341 0.930 . S
H1329 C1342 0.930 . S
H1330 C1346 0.959 . S
H1331 C1346 0.959 . S
H1332 C1346 0.961 . S
H1333 C1347 0.960 . S
H1334 C1347 0.961 . S
H1335 C1347 0.959 . S
H1336 C1350 0.929 . S
H1337 C1351 0.931 . S
H1338 C1353 0.930 . S
C1339 H1327 0.930 . S
C1339 C1340 1.399 . S
C1339 C1344 1.399 . S
C1340 C1339 1.399 . S
C1340 C1341 1.376 . S
C1341 H1328 0.930 . S
C1341 C1340 1.376 . S
C1341 C1342 1.388 . S
C1342 H1329 0.930 . S
C1342 C1341 1.388 . S
C1342 C1343 1.390 . S
C1343 C1342 1.390 . S
C1343 C1344 1.394 . S
C1343 C1349 1.465 . S
C1344 C1339 1.399 . S
C1344 C1343 1.394 . S
C1344 C1345 1.516 . S
C1345 C1344 1.516 . S
C1345 C1346 1.502 . S
C1345 C1347 1.561 . S
C1345 C1348 1.526 . S
C1346 H1330 0.959 . S
C1346 H1331 0.959 . S
C1346 H1332 0.961 . S
C1346 C1345 1.502 . S
C1347 H1333 0.960 . S
C1347 H1334 0.961 . S
C1347 H1335 0.959 . S
C1347 C1345 1.561 . S
C1348 C1345 1.526 . S
C1348 C1349 1.396 . S
C1348 C1353 1.390 . S
C1349 C1343 1.465 . S
C1349 C1348 1.396 . S
C1349 C1350 1.399 . S
C1350 H1336 0.929 . S
C1350 C1349 1.399 . S
C1350 C1351 1.385 . S
C1351 H1337 0.931 . S
C1351 C1350 1.385 . S
C1351 C1352 1.389 . S
C1352 C1351 1.389 . S
C1352 C1353 1.387 . S
C1353 H1338 0.930 . S
C1353 C1348 1.390 . S
C1353 C1352 1.387 . S
H1354 C1366 0.930 . S
H1355 C1368 0.930 . S
H1356 C1369 0.930 . S
H1357 C1373 0.959 . S
H1358 C1373 0.959 . S
H1359 C1373 0.961 . S
H1360 C1374 0.960 . S
H1361 C1374 0.961 . S
H1362 C1374 0.959 . S
H1363 C1377 0.929 . S
H1364 C1378 0.931 . S
H1365 C1380 0.930 . S
C1366 H1354 0.930 . S
C1366 C1367 1.399 . S
C1366 C1371 1.399 . S
C1367 C1366 1.399 . S
C1367 C1368 1.376 . S
C1368 H1355 0.930 . S
C1368 C1367 1.376 . S
C1368 C1369 1.388 . S
C1369 H1356 0.930 . S
C1369 C1368 1.388 . S
C1369 C1370 1.390 . S
C1370 C1369 1.390 . S
C1370 C1371 1.394 . S
C1370 C1376 1.465 . S
C1371 C1366 1.399 . S
C1371 C1370 1.394 . S
C1371 C1372 1.516 . S
C1372 C1371 1.516 . S
C1372 C1373 1.502 . S
C1372 C1374 1.561 . S
C1372 C1375 1.526 . S
C1373 H1357 0.959 . S
C1373 H1358 0.959 . S
C1373 H1359 0.961 . S
C1373 C1372 1.502 . S
C1374 H1360 0.960 . S
C1374 H1361 0.961 . S
C1374 H1362 0.959 . S
C1374 C1372 1.561 . S
C1375 C1372 1.526 . S
C1375 C1376 1.396 . S
C1375 C1380 1.390 . S
C1376 C1370 1.465 . S
C1376 C1375 1.396 . S
C1376 C1377 1.399 . S
C1377 H1363 0.929 . S
C1377 C1376 1.399 . S
C1377 C1378 1.385 . S
C1378 H1364 0.931 . S
C1378 C1377 1.385 . S
C1378 C1379 1.389 . S
C1379 C1378 1.389 . S
C1379 C1380 1.387 . S
C1380 H1365 0.930 . S
C1380 C1375 1.390 . S
C1380 C1379 1.387 . S
H1381 C1393 0.930 . S
H1382 C1395 0.930 . S
H1383 C1396 0.930 . S
H1384 C1400 0.959 . S
H1385 C1400 0.959 . S
H1386 C1400 0.961 . S
H1387 C1401 0.960 . S
H1388 C1401 0.961 . S
H1389 C1401 0.959 . S
H1390 C1404 0.929 . S
H1391 C1405 0.931 . S
H1392 C1407 0.930 . S
C1393 H1381 0.930 . S
C1393 C1394 1.399 . S
C1393 C1398 1.399 . S
C1394 C1393 1.399 . S
C1394 C1395 1.376 . S
C1395 H1382 0.930 . S
C1395 C1394 1.376 . S
C1395 C1396 1.388 . S
C1396 H1383 0.930 . S
C1396 C1395 1.388 . S
C1396 C1397 1.390 . S
C1397 C1396 1.390 . S
C1397 C1398 1.394 . S
C1397 C1403 1.465 . S
C1398 C1393 1.399 . S
C1398 C1397 1.394 . S
C1398 C1399 1.516 . S
C1399 C1398 1.516 . S
C1399 C1400 1.502 . S
C1399 C1401 1.561 . S
C1399 C1402 1.526 . S
C1400 H1384 0.959 . S
C1400 H1385 0.959 . S
C1400 H1386 0.961 . S
C1400 C1399 1.502 . S
C1401 H1387 0.960 . S
C1401 H1388 0.961 . S
C1401 H1389 0.959 . S
C1401 C1399 1.561 . S
C1402 C1399 1.526 . S
C1402 C1403 1.396 . S
C1402 C1407 1.390 . S
C1403 C1397 1.465 . S
C1403 C1402 1.396 . S
C1403 C1404 1.399 . S
C1404 H1390 0.929 . S
C1404 C1403 1.399 . S
C1404 C1405 1.385 . S
C1405 H1391 0.931 . S
C1405 C1404 1.385 . S
C1405 C1406 1.389 . S
C1406 C1405 1.389 . S
C1406 C1407 1.387 . S
C1407 H1392 0.930 . S
C1407 C1402 1.390 . S
C1407 C1406 1.387 . S
H1408 C1420 0.928 1_455 S
H1409 C1422 0.930 . S
H1410 C1423 0.930 . S
H1411 C1427 0.959 . S
H1412 C1427 0.959 . S
H1413 C1427 0.961 . S
H1414 C1428 0.960 . S
H1415 C1428 0.961 . S
H1416 C1428 0.959 . S
H1417 C1431 0.929 . S
H1418 C1432 0.931 . S
H1419 C1434 0.930 . S
C1420 H1408 0.928 1_655 S
C1420 C1421 1.395 1_655 S
C1420 C1425 1.405 . S
C1421 C1420 1.395 1_455 S
C1421 C1422 1.376 . S
C1422 H1409 0.930 . S
C1422 C1421 1.376 . S
C1422 C1423 1.388 1_455 S
C1423 H1410 0.930 . S
C1423 C1422 1.388 1_655 S
C1423 C1424 1.390 . S
C1424 C1423 1.390 . S
C1424 C1425 1.394 . S
C1424 C1430 1.465 . S
C1425 C1420 1.405 . S
C1425 C1424 1.394 . S
C1425 C1426 1.516 . S
C1426 C1425 1.516 . S
C1426 C1427 1.502 . S
C1426 C1428 1.561 . S
C1426 C1429 1.526 . S
C1427 H1411 0.959 . S
C1427 H1412 0.959 . S
C1427 H1413 0.961 . S
C1427 C1426 1.502 . S
C1428 H1414 0.960 . S
C1428 H1415 0.961 . S
C1428 H1416 0.959 . S
C1428 C1426 1.561 . S
C1429 C1426 1.526 . S
C1429 C1430 1.396 . S
C1429 C1434 1.390 . S
C1430 C1424 1.465 . S
C1430 C1429 1.396 . S
C1430 C1431 1.399 . S
C1431 H1417 0.929 . S
C1431 C1430 1.399 . S
C1431 C1432 1.385 . S
C1432 H1418 0.931 . S
C1432 C1431 1.385 . S
C1432 C1433 1.389 . S
C1433 C1432 1.389 . S
C1433 C1434 1.387 . S
C1434 H1419 0.930 . S
C1434 C1429 1.390 . S
C1434 C1433 1.387 . S
H1435 C1447 0.927 1_565 S
H1436 C1449 0.930 . S
H1437 C1450 0.930 . S
H1438 C1454 0.959 . S
H1439 C1454 0.959 . S
H1440 C1454 0.961 . S
H1441 C1455 0.960 . S
H1442 C1455 0.961 . S
H1443 C1455 0.959 . S
H1444 C1458 0.929 . S
H1445 C1459 0.931 . S
H1446 C1461 0.930 . S
C1447 H1435 0.927 1_545 S
C1447 C1448 1.392 1_545 S
C1447 C1452 1.409 . S
C1448 C1447 1.392 1_565 S
C1448 C1449 1.376 . S
C1449 H1436 0.930 . S
C1449 C1448 1.376 . S
C1449 C1450 1.388 1_565 S
C1450 H1437 0.930 . S
C1450 C1449 1.388 1_545 S
C1450 C1451 1.390 . S
C1451 C1450 1.390 . S
C1451 C1452 1.394 . S
C1451 C1457 1.465 . S
C1452 C1447 1.409 . S
C1452 C1451 1.394 . S
C1452 C1453 1.516 . S
C1453 C1452 1.516 . S
C1453 C1454 1.502 . S
C1453 C1455 1.561 . S
C1453 C1456 1.526 . S
C1454 H1438 0.959 . S
C1454 H1439 0.959 . S
C1454 H1440 0.961 . S
C1454 C1453 1.502 . S
C1455 H1441 0.960 . S
C1455 H1442 0.961 . S
C1455 H1443 0.959 . S
C1455 C1453 1.561 . S
C1456 C1453 1.526 . S
C1456 C1457 1.396 . S
C1456 C1461 1.390 . S
C1457 C1451 1.465 . S
C1457 C1456 1.396 . S
C1457 C1458 1.399 . S
C1458 H1444 0.929 . S
C1458 C1457 1.399 . S
C1458 C1459 1.385 . S
C1459 H1445 0.931 . S
C1459 C1458 1.385 . S
C1459 C1460 1.389 . S
C1460 C1459 1.389 . S
C1460 C1461 1.387 . S
C1461 H1446 0.930 . S
C1461 C1456 1.390 . S
C1461 C1460 1.387 . S
H1462 C1474 0.930 . S
H1463 C1476 0.930 . S
H1464 C1477 0.930 . S
H1465 C1481 0.959 . S
H1466 C1481 0.959 . S
H1467 C1481 0.961 . S
H1468 C1482 0.960 . S
H1469 C1482 0.961 . S
H1470 C1482 0.959 . S
H1471 C1485 0.929 . S
H1472 C1486 0.931 . S
H1473 C1488 0.930 1_655 S
C1474 H1462 0.930 . S
C1474 C1475 1.399 . S
C1474 C1479 1.399 . S
C1475 C1474 1.399 . S
C1475 C1476 1.376 . S
C1476 H1463 0.930 . S
C1476 C1475 1.376 . S
C1476 C1477 1.388 . S
C1477 H1464 0.930 . S
C1477 C1476 1.388 . S
C1477 C1478 1.390 . S
C1478 C1477 1.390 . S
C1478 C1479 1.394 . S
C1478 C1484 1.465 . S
C1479 C1474 1.399 . S
C1479 C1478 1.394 . S
C1479 C1480 1.516 . S
C1480 C1479 1.516 . S
C1480 C1481 1.502 . S
C1480 C1482 1.561 . S
C1480 C1483 1.526 . S
C1481 H1465 0.959 . S
C1481 H1466 0.959 . S
C1481 H1467 0.961 . S
C1481 C1480 1.502 . S
C1482 H1468 0.960 . S
C1482 H1469 0.961 . S
C1482 H1470 0.959 . S
C1482 C1480 1.561 . S
C1483 C1480 1.526 . S
C1483 C1484 1.396 . S
C1483 C1488 1.390 . S
C1484 C1478 1.465 . S
C1484 C1483 1.396 . S
C1484 C1485 1.399 . S
C1485 H1471 0.929 . S
C1485 C1484 1.399 . S
C1485 C1486 1.385 1_455 S
C1486 H1472 0.931 . S
C1486 C1485 1.385 1_655 S
C1486 C1487 1.389 . S
C1487 C1486 1.389 . S
C1487 C1488 1.387 1_655 S
C1488 H1473 0.930 1_455 S
C1488 C1483 1.390 . S
C1488 C1487 1.387 1_455 S
H1489 C1501 0.931 . S
H1490 C1503 0.930 . S
H1491 C1504 0.930 . S
H1492 C1508 0.959 . S
H1493 C1508 0.959 . S
H1494 C1508 0.961 . S
H1495 C1509 0.960 . S
H1496 C1509 0.961 . S
H1497 C1509 0.959 . S
H1498 C1512 0.929 . S
H1499 C1513 0.931 . S
H1500 C1515 0.930 . S
C1501 H1489 0.931 . S
C1501 C1502 1.401 . S
C1501 C1506 1.396 1_545 S
C1502 C1501 1.401 . S
C1502 C1503 1.376 . S
C1503 H1490 0.930 . S
C1503 C1502 1.376 . S
C1503 C1504 1.388 1_545 S
C1504 H1491 0.930 . S
C1504 C1503 1.388 1_565 S
C1504 C1505 1.390 . S
C1505 C1504 1.390 . S
C1505 C1506 1.394 . S
C1505 C1511 1.465 . S
C1506 C1501 1.396 1_565 S
C1506 C1505 1.394 . S
C1506 C1507 1.516 . S
C1507 C1506 1.516 . S
C1507 C1508 1.502 . S
C1507 C1509 1.561 . S
C1507 C1510 1.526 . S
C1508 H1492 0.959 . S
C1508 H1493 0.959 . S
C1508 H1494 0.961 . S
C1508 C1507 1.502 . S
C1509 H1495 0.960 . S
C1509 H1496 0.961 . S
C1509 H1497 0.959 . S
C1509 C1507 1.561 . S
C1510 C1507 1.526 . S
C1510 C1511 1.396 . S
C1510 C1515 1.390 . S
C1511 C1505 1.465 . S
C1511 C1510 1.396 . S
C1511 C1512 1.399 . S
C1512 H1498 0.929 . S
C1512 C1511 1.399 . S
C1512 C1513 1.385 . S
C1513 H1499 0.931 . S
C1513 C1512 1.385 . S
C1513 C1514 1.389 . S
C1514 C1513 1.389 . S
C1514 C1515 1.387 . S
C1515 H1500 0.930 . S
C1515 C1510 1.390 . S
C1515 C1514 1.387 . S
H1516 C1528 0.929 1_655 S
H1517 C1530 0.930 . S
H1518 C1531 0.930 . S
H1519 C1535 0.959 . S
H1520 C1535 0.959 . S
H1521 C1535 0.961 . S
H1522 C1536 0.960 . S
H1523 C1536 0.961 . S
H1524 C1536 0.959 . S
H1525 C1539 0.929 . S
H1526 C1540 0.931 . S
H1527 C1542 0.930 . S
C1528 H1516 0.929 1_455 S
C1528 C1529 1.398 1_455 S
C1528 C1533 1.400 . S
C1529 C1528 1.398 1_655 S
C1529 C1530 1.376 . S
C1530 H1517 0.930 . S
C1530 C1529 1.376 . S
C1530 C1531 1.388 1_655 S
C1531 H1518 0.930 . S
C1531 C1530 1.388 1_455 S
C1531 C1532 1.390 . S
C1532 C1531 1.390 . S
C1532 C1533 1.394 . S
C1532 C1538 1.465 . S
C1533 C1528 1.400 . S
C1533 C1532 1.394 . S
C1533 C1534 1.516 . S
C1534 C1533 1.516 . S
C1534 C1535 1.502 . S
C1534 C1536 1.561 . S
C1534 C1537 1.526 . S
C1535 H1519 0.959 . S
C1535 H1520 0.959 . S
C1535 H1521 0.961 . S
C1535 C1534 1.502 . S
C1536 H1522 0.960 . S
C1536 H1523 0.961 . S
C1536 H1524 0.959 . S
C1536 C1534 1.561 . S
C1537 C1534 1.526 . S
C1537 C1538 1.396 . S
C1537 C1542 1.390 . S
C1538 C1532 1.465 . S
C1538 C1537 1.396 . S
C1538 C1539 1.399 . S
C1539 H1525 0.929 . S
C1539 C1538 1.399 . S
C1539 C1540 1.385 . S
C1540 H1526 0.931 . S
C1540 C1539 1.385 . S
C1540 C1541 1.389 . S
C1541 C1540 1.389 . S
C1541 C1542 1.387 . S
C1542 H1527 0.930 . S
C1542 C1537 1.390 . S
C1542 C1541 1.387 . S
H1543 C1555 0.930 . S
H1544 C1557 0.930 . S
H1545 C1558 0.930 . S
H1546 C1562 0.959 . S
H1547 C1562 0.959 . S
H1548 C1562 0.961 . S
H1549 C1563 0.960 . S
H1550 C1563 0.961 . S
H1551 C1563 0.959 . S
H1552 C1566 0.929 . S
H1553 C1567 0.931 . S
H1554 C1569 0.930 1_545 S
C1555 H1543 0.930 . S
C1555 C1556 1.399 . S
C1555 C1560 1.399 . S
C1556 C1555 1.399 . S
C1556 C1557 1.376 . S
C1557 H1544 0.930 . S
C1557 C1556 1.376 . S
C1557 C1558 1.388 . S
C1558 H1545 0.930 . S
C1558 C1557 1.388 . S
C1558 C1559 1.390 . S
C1559 C1558 1.390 . S
C1559 C1560 1.394 . S
C1559 C1565 1.465 . S
C1560 C1555 1.399 . S
C1560 C1559 1.394 . S
C1560 C1561 1.516 . S
C1561 C1560 1.516 . S
C1561 C1562 1.502 . S
C1561 C1563 1.561 . S
C1561 C1564 1.526 . S
C1562 H1546 0.959 . S
C1562 H1547 0.959 . S
C1562 H1548 0.961 . S
C1562 C1561 1.502 . S
C1563 H1549 0.960 . S
C1563 H1550 0.961 . S
C1563 H1551 0.959 . S
C1563 C1561 1.561 . S
C1564 C1561 1.526 . S
C1564 C1565 1.396 . S
C1564 C1569 1.391 . S
C1565 C1559 1.465 . S
C1565 C1564 1.396 . S
C1565 C1566 1.399 . S
C1566 H1552 0.929 . S
C1566 C1565 1.399 . S
C1566 C1567 1.385 1_565 S
C1567 H1553 0.931 . S
C1567 C1566 1.385 1_545 S
C1567 C1568 1.389 . S
C1568 C1567 1.389 . S
C1568 C1569 1.386 1_545 S
C1569 H1554 0.930 1_565 S
C1569 C1564 1.391 . S
C1569 C1568 1.386 1_565 S
H1570 C1582 0.930 . S
H1571 C1584 0.930 . S
H1572 C1585 0.930 . S
H1573 C1589 0.959 . S
H1574 C1589 0.959 . S
H1575 C1589 0.961 . S
H1576 C1590 0.960 . S
H1577 C1590 0.961 . S
H1578 C1590 0.959 . S
H1579 C1593 0.929 . S
H1580 C1594 0.931 . S
H1581 C1596 0.935 . S
C1582 H1570 0.930 . S
C1582 C1583 1.399 . S
C1582 C1587 1.399 . S
C1583 C1582 1.399 . S
C1583 C1584 1.376 . S
C1584 H1571 0.930 . S
C1584 C1583 1.376 . S
C1584 C1585 1.388 . S
C1585 H1572 0.930 . S
C1585 C1584 1.388 . S
C1585 C1586 1.390 . S
C1586 C1585 1.390 . S
C1586 C1587 1.394 . S
C1586 C1592 1.465 . S
C1587 C1582 1.399 . S
C1587 C1586 1.394 . S
C1587 C1588 1.516 . S
C1588 C1587 1.516 . S
C1588 C1589 1.502 . S
C1588 C1590 1.561 . S
C1588 C1591 1.526 . S
C1589 H1573 0.959 . S
C1589 H1574 0.959 . S
C1589 H1575 0.961 . S
C1589 C1588 1.502 . S
C1590 H1576 0.960 . S
C1590 H1577 0.961 . S
C1590 H1578 0.959 . S
C1590 C1588 1.561 . S
C1591 C1588 1.526 . S
C1591 C1592 1.396 . S
C1591 C1596 1.374 1_655 S
C1592 C1586 1.465 . S
C1592 C1591 1.396 . S
C1592 C1593 1.399 . S
C1593 H1579 0.929 . S
C1593 C1592 1.399 . S
C1593 C1594 1.385 1_655 S
C1594 H1580 0.931 . S
C1594 C1593 1.385 1_455 S
C1594 C1595 1.389 . S
C1595 C1594 1.389 . S
C1595 C1596 1.397 . S
C1596 H1581 0.935 . S
C1596 C1591 1.374 1_455 S
C1596 C1595 1.397 . S
H1597 C1609 0.923 1_565 S
H1598 C1611 0.930 . S
H1599 C1612 0.930 . S
H1600 C1616 0.959 . S
H1601 C1616 0.959 . S
H1602 C1616 0.961 . S
H1603 C1617 0.960 . S
H1604 C1617 0.961 . S
H1605 C1617 0.959 . S
H1606 C1620 0.929 . S
H1607 C1621 0.931 . S
H1608 C1623 0.930 . S
C1609 H1597 0.923 1_545 S
C1609 C1610 1.384 1_545 S
C1609 C1614 1.421 . S
C1610 C1609 1.384 1_565 S
C1610 C1611 1.376 . S
C1611 H1598 0.930 . S
C1611 C1610 1.376 . S
C1611 C1612 1.388 1_565 S
C1612 H1599 0.930 . S
C1612 C1611 1.388 1_545 S
C1612 C1613 1.390 . S
C1613 C1612 1.390 . S
C1613 C1614 1.394 . S
C1613 C1619 1.465 . S
C1614 C1609 1.421 . S
C1614 C1613 1.394 . S
C1614 C1615 1.516 . S
C1615 C1614 1.516 . S
C1615 C1616 1.502 . S
C1615 C1617 1.561 . S
C1615 C1618 1.526 . S
C1616 H1600 0.959 . S
C1616 H1601 0.959 . S
C1616 H1602 0.961 . S
C1616 C1615 1.502 . S
C1617 H1603 0.960 . S
C1617 H1604 0.961 . S
C1617 H1605 0.959 . S
C1617 C1615 1.561 . S
C1618 C1615 1.526 . S
C1618 C1619 1.396 . S
C1618 C1623 1.390 . S
C1619 C1613 1.465 . S
C1619 C1618 1.396 . S
C1619 C1620 1.399 . S
C1620 H1606 0.929 . S
C1620 C1619 1.399 . S
C1620 C1621 1.385 . S
C1621 H1607 0.931 . S
C1621 C1620 1.385 . S
C1621 C1622 1.389 . S
C1622 C1621 1.389 . S
C1622 C1623 1.387 . S
C1623 H1608 0.930 . S
C1623 C1618 1.390 . S
C1623 C1622 1.387 . S
C557 C5 1.683 . S
C569 C175 1.669 . S
C584 C209 1.660 . S
C596 C39 1.684 . S
C611 C243 1.660 . S
C623 C73 1.657 . S
C638 C141 1.670 . S
C650 C107 1.689 . S
C665 C277 1.687 . S
C677 C447 1.687 . S
C692 C311 1.682 . S
C704 C481 1.685 . S
C719 C515 1.683 . S
C731 C345 1.668 . S
C746 C379 1.658 . S
C758 C413 1.665 . S
C773 C33 1.159 . S
C785 C101 1.208 . S
C800 C135 1.218 . S
C812 C67 1.171 . S
C827 C169 1.148 . S
C839 C237 1.233 . S
C854 C203 1.148 . S
C866 C271 1.232 . S
C881 C373 1.159 . S
C893 C305 1.208 . S
C908 C407 1.192 . S
C920 C339 1.181 . S
C935 C509 1.227 . S
C947 C441 1.160 . S
C962 C543 1.220 . S
C974 C475 1.178 . S
C989 C519 1.558 . S
C1001 C9 1.520 . S
C1016 C417 1.574 . S
C1028 C43 1.561 . S
C1043 C451 1.527 . S
C1055 C77 1.566 . S
C1070 C111 1.577 . S
C1082 C485 1.583 . S
C1097 C145 1.526 . S
C1109 C315 1.542 . S
C1124 C179 1.574 . S
C1136 C349 1.581 . S
C1151 C213 1.557 . S
C1163 C383 1.542 . S
C1178 C247 1.561 . S
C1190 C281 1.522 . S
C1205 C478 0.975 . S
C1217 C20 0.984 . S
C1232 C54 0.987 . S
C1244 C512 0.936 . S
C1259 C410 0.945 . S
C1271 C88 0.985 . S
C1286 C444 0.923 . S
C1298 C122 0.986 . S
C1313 C342 0.918 . S
C1325 C156 0.987 . S
C1340 C190 0.980 . S
C1352 C376 0.998 . S
C1367 C274 0.923 . S
C1379 C224 0.986 . S
C1394 C258 0.987 . S
C1406 C308 0.936 . S
C1421 C206 0.985 . S
C1433 C292 0.983 . S
C1448 C240 1.008 . S
C1460 C326 0.982 . S
C1475 C360 0.980 . S
C1487 C138 1.011 . S
C1502 C172 0.927 . S
C1514 C394 0.986 . S
C1529 C70 1.002 . S
C1541 C428 0.982 . S
C1556 C462 0.981 . S
C1568 C104 0.995 . S
C1583 C496 0.984 . S
C1595 C2 0.948 . S
C1610 C36 1.000 . S
C1622 C530 0.982 . S
