# Generated by pormake.
# Topology sxg, (6)-cn, num edge types: 1
# Building blocks:
#     Node 0, Type 0, BuildingBlock: UKALOJ_clean_sbu_0, # of connection points: 6
#     Node 1, Type 0, BuildingBlock: UKALOJ_clean_sbu_0, # of connection points: 6
#     Node 2, Type 0, BuildingBlock: UKALOJ_clean_sbu_0, # of connection points: 6
#     Node 3, Type 0, BuildingBlock: UKALOJ_clean_sbu_0, # of connection points: 6
#     Node 4, Type 0, BuildingBlock: UKALOJ_clean_sbu_0, # of connection points: 6
#     Node 5, Type 0, BuildingBlock: UKALOJ_clean_sbu_0, # of connection points: 6
#     Node 6, Type 0, BuildingBlock: UKALOJ_clean_sbu_0, # of connection points: 6
#     Node 7, Type 0, BuildingBlock: UKALOJ_clean_sbu_0, # of connection points: 6
#     Node 8, Type 0, BuildingBlock: UKALOJ_clean_sbu_0, # of connection points: 6
#     Node 9, Type 0, BuildingBlock: UKALOJ_clean_sbu_0, # of connection points: 6
#     Node 10, Type 0, BuildingBlock: UKALOJ_clean_sbu_0, # of connection points: 6
#     Node 11, Type 0, BuildingBlock: UKALOJ_clean_sbu_0, # of connection points: 6
#     Node 12, Type 0, BuildingBlock: UKALOJ_clean_sbu_0, # of connection points: 6
#     Node 13, Type 0, BuildingBlock: UKALOJ_clean_sbu_0, # of connection points: 6
#     Node 14, Type 0, BuildingBlock: UKALOJ_clean_sbu_0, # of connection points: 6
#     Node 15, Type 0, BuildingBlock: UKALOJ_clean_sbu_0, # of connection points: 6
#     Node 16, Type 0, BuildingBlock: UKALOJ_clean_sbu_0, # of connection points: 6
#     Node 17, Type 0, BuildingBlock: UKALOJ_clean_sbu_0, # of connection points: 6
#     Node 18, Type 0, BuildingBlock: UKALOJ_clean_sbu_0, # of connection points: 6
#     Node 19, Type 0, BuildingBlock: UKALOJ_clean_sbu_0, # of connection points: 6
#     Node 20, Type 0, BuildingBlock: UKALOJ_clean_sbu_0, # of connection points: 6
#     Node 21, Type 0, BuildingBlock: UKALOJ_clean_sbu_0, # of connection points: 6
#     Node 22, Type 0, BuildingBlock: UKALOJ_clean_sbu_0, # of connection points: 6
#     Node 23, Type 0, BuildingBlock: UKALOJ_clean_sbu_0, # of connection points: 6
#     Edge 24, Type (0, 0), BuildingBlock: EZIPEK_clean_linker_0, # of connection points: 2
#     Edge 25, Type (0, 0), BuildingBlock: EZIPEK_clean_linker_0, # of connection points: 2
#     Edge 26, Type (0, 0), BuildingBlock: EZIPEK_clean_linker_0, # of connection points: 2
#     Edge 27, Type (0, 0), BuildingBlock: EZIPEK_clean_linker_0, # of connection points: 2
#     Edge 28, Type (0, 0), BuildingBlock: EZIPEK_clean_linker_0, # of connection points: 2
#     Edge 29, Type (0, 0), BuildingBlock: EZIPEK_clean_linker_0, # of connection points: 2
#     Edge 30, Type (0, 0), BuildingBlock: EZIPEK_clean_linker_0, # of connection points: 2
#     Edge 31, Type (0, 0), BuildingBlock: EZIPEK_clean_linker_0, # of connection points: 2
#     Edge 32, Type (0, 0), BuildingBlock: EZIPEK_clean_linker_0, # of connection points: 2
#     Edge 33, Type (0, 0), BuildingBlock: EZIPEK_clean_linker_0, # of connection points: 2
#     Edge 34, Type (0, 0), BuildingBlock: EZIPEK_clean_linker_0, # of connection points: 2
#     Edge 35, Type (0, 0), BuildingBlock: EZIPEK_clean_linker_0, # of connection points: 2
#     Edge 36, Type (0, 0), BuildingBlock: EZIPEK_clean_linker_0, # of connection points: 2
#     Edge 37, Type (0, 0), BuildingBlock: EZIPEK_clean_linker_0, # of connection points: 2
#     Edge 38, Type (0, 0), BuildingBlock: EZIPEK_clean_linker_0, # of connection points: 2
#     Edge 39, Type (0, 0), BuildingBlock: EZIPEK_clean_linker_0, # of connection points: 2
#     Edge 40, Type (0, 0), BuildingBlock: EZIPEK_clean_linker_0, # of connection points: 2
#     Edge 41, Type (0, 0), BuildingBlock: EZIPEK_clean_linker_0, # of connection points: 2
#     Edge 42, Type (0, 0), BuildingBlock: EZIPEK_clean_linker_0, # of connection points: 2
#     Edge 43, Type (0, 0), BuildingBlock: EZIPEK_clean_linker_0, # of connection points: 2
#     Edge 44, Type (0, 0), BuildingBlock: EZIPEK_clean_linker_0, # of connection points: 2
#     Edge 45, Type (0, 0), BuildingBlock: EZIPEK_clean_linker_0, # of connection points: 2
#     Edge 46, Type (0, 0), BuildingBlock: EZIPEK_clean_linker_0, # of connection points: 2
#     Edge 47, Type (0, 0), BuildingBlock: EZIPEK_clean_linker_0, # of connection points: 2
#     Edge 48, Type (0, 0), BuildingBlock: EZIPEK_clean_linker_0, # of connection points: 2
#     Edge 49, Type (0, 0), BuildingBlock: EZIPEK_clean_linker_0, # of connection points: 2
#     Edge 50, Type (0, 0), BuildingBlock: EZIPEK_clean_linker_0, # of connection points: 2
#     Edge 51, Type (0, 0), BuildingBlock: EZIPEK_clean_linker_0, # of connection points: 2
#     Edge 52, Type (0, 0), BuildingBlock: EZIPEK_clean_linker_0, # of connection points: 2
#     Edge 53, Type (0, 0), BuildingBlock: EZIPEK_clean_linker_0, # of connection points: 2
#     Edge 54, Type (0, 0), BuildingBlock: EZIPEK_clean_linker_0, # of connection points: 2
#     Edge 55, Type (0, 0), BuildingBlock: EZIPEK_clean_linker_0, # of connection points: 2
#     Edge 56, Type (0, 0), BuildingBlock: EZIPEK_clean_linker_0, # of connection points: 2
#     Edge 57, Type (0, 0), BuildingBlock: EZIPEK_clean_linker_0, # of connection points: 2
#     Edge 58, Type (0, 0), BuildingBlock: EZIPEK_clean_linker_0, # of connection points: 2
#     Edge 59, Type (0, 0), BuildingBlock: EZIPEK_clean_linker_0, # of connection points: 2
#     Edge 60, Type (0, 0), BuildingBlock: EZIPEK_clean_linker_0, # of connection points: 2
#     Edge 61, Type (0, 0), BuildingBlock: EZIPEK_clean_linker_0, # of connection points: 2
#     Edge 62, Type (0, 0), BuildingBlock: EZIPEK_clean_linker_0, # of connection points: 2
#     Edge 63, Type (0, 0), BuildingBlock: EZIPEK_clean_linker_0, # of connection points: 2
#     Edge 64, Type (0, 0), BuildingBlock: EZIPEK_clean_linker_0, # of connection points: 2
#     Edge 65, Type (0, 0), BuildingBlock: EZIPEK_clean_linker_0, # of connection points: 2
#     Edge 66, Type (0, 0), BuildingBlock: EZIPEK_clean_linker_0, # of connection points: 2
#     Edge 67, Type (0, 0), BuildingBlock: EZIPEK_clean_linker_0, # of connection points: 2
#     Edge 68, Type (0, 0), BuildingBlock: EZIPEK_clean_linker_0, # of connection points: 2
#     Edge 69, Type (0, 0), BuildingBlock: EZIPEK_clean_linker_0, # of connection points: 2
#     Edge 70, Type (0, 0), BuildingBlock: EZIPEK_clean_linker_0, # of connection points: 2
#     Edge 71, Type (0, 0), BuildingBlock: EZIPEK_clean_linker_0, # of connection points: 2
#     Edge 72, Type (0, 0), BuildingBlock: EZIPEK_clean_linker_0, # of connection points: 2
#     Edge 73, Type (0, 0), BuildingBlock: EZIPEK_clean_linker_0, # of connection points: 2
#     Edge 74, Type (0, 0), BuildingBlock: EZIPEK_clean_linker_0, # of connection points: 2
#     Edge 75, Type (0, 0), BuildingBlock: EZIPEK_clean_linker_0, # of connection points: 2
#     Edge 76, Type (0, 0), BuildingBlock: EZIPEK_clean_linker_0, # of connection points: 2
#     Edge 77, Type (0, 0), BuildingBlock: EZIPEK_clean_linker_0, # of connection points: 2
#     Edge 78, Type (0, 0), BuildingBlock: EZIPEK_clean_linker_0, # of connection points: 2
#     Edge 79, Type (0, 0), BuildingBlock: EZIPEK_clean_linker_0, # of connection points: 2
#     Edge 80, Type (0, 0), BuildingBlock: EZIPEK_clean_linker_0, # of connection points: 2
#     Edge 81, Type (0, 0), BuildingBlock: EZIPEK_clean_linker_0, # of connection points: 2
#     Edge 82, Type (0, 0), BuildingBlock: EZIPEK_clean_linker_0, # of connection points: 2
#     Edge 83, Type (0, 0), BuildingBlock: EZIPEK_clean_linker_0, # of connection points: 2
#     Edge 84, Type (0, 0), BuildingBlock: EZIPEK_clean_linker_0, # of connection points: 2
#     Edge 85, Type (0, 0), BuildingBlock: EZIPEK_clean_linker_0, # of connection points: 2
#     Edge 86, Type (0, 0), BuildingBlock: EZIPEK_clean_linker_0, # of connection points: 2
#     Edge 87, Type (0, 0), BuildingBlock: EZIPEK_clean_linker_0, # of connection points: 2
#     Edge 88, Type (0, 0), BuildingBlock: EZIPEK_clean_linker_0, # of connection points: 2
#     Edge 89, Type (0, 0), BuildingBlock: EZIPEK_clean_linker_0, # of connection points: 2
#     Edge 90, Type (0, 0), BuildingBlock: EZIPEK_clean_linker_0, # of connection points: 2
#     Edge 91, Type (0, 0), BuildingBlock: EZIPEK_clean_linker_0, # of connection points: 2
#     Edge 92, Type (0, 0), BuildingBlock: EZIPEK_clean_linker_0, # of connection points: 2
#     Edge 93, Type (0, 0), BuildingBlock: EZIPEK_clean_linker_0, # of connection points: 2
#     Edge 94, Type (0, 0), BuildingBlock: EZIPEK_clean_linker_0, # of connection points: 2
#     Edge 95, Type (0, 0), BuildingBlock: EZIPEK_clean_linker_0, # of connection points: 2
# Relax obj value: 0.321
# Max RMSD: 0.292
# Mean RMSD: 0.292
data_MOF--net-sxg--node1-UKALOJ_clean_sbu_0--edge1-EZIPEK_clean_linker_0
_symmetry_space_group_name_H-M    P1
_symmetry_Int_Tables_number       1
_symmetry_cell_setting            triclinic
loop_
_symmetry_equiv_pos_as_xyz
'x, y, z'
_cell_length_a     36.187821
_cell_length_b     36.333724
_cell_length_c     36.292065
_cell_angle_alpha  90.152992
_cell_angle_beta   89.965258
_cell_angle_gamma 89.954154
loop_
_atom_site_label
_atom_site_type_symbol
_atom_site_fract_x
_atom_site_fract_y
_atom_site_fract_z
_atom_type_partial_charge
Zn0 Zn 0.03324 0.27253 0.18951 0.0
O1 O 0.99351 0.26236 0.23142 0.0
C2 C 0.01395 0.35321 0.19924 0.0
Zn3 Zn 0.0707 0.30113 0.22875 0.0
C4 C 1.00091 0.27419 0.26368 0.0
O5 O 0.03188 0.28915 0.26994 0.0
C6 C 0.10456 0.29768 0.15331 0.0
O7 O 0.09701 0.25131 0.24044 0.0
O8 O 0.0592 0.22105 0.20335 0.0
N9 N 0.09968 0.32892 0.26788 0.0
C10 C 0.13412 0.34265 0.26932 0.0
C11 C 0.10157 0.37319 0.30764 0.0
N12 N 0.0798 0.34732 0.29248 0.0
N13 N 0.13571 0.37109 0.2932 0.0
C14 C 0.9695 0.26463 0.13372 0.0
C15 C 0.9968 0.2393 0.08829 0.0
N16 N 1.00156 0.25077 0.14678 0.0
N17 N 0.01819 0.23461 0.11844 0.0
N18 N 0.96652 0.25906 0.09706 0.0
H19 H 0.94284 0.27363 0.18526 0.0
H20 H 0.91272 0.27909 0.14743 0.0
H21 H 0.94537 0.31411 0.15492 0.0
C22 C 0.94123 0.284 0.15679 0.0
C23 C 0.16589 0.32999 0.24629 0.0
H24 H 0.15989 0.30328 0.23273 0.0
H25 H 0.1907 0.32702 0.264 0.0
H26 H 0.17239 0.35145 0.22575 0.0
O27 O 0.11068 0.31155 0.18511 0.0
O28 O 0.07415 0.28116 0.14863 0.0
C29 C 0.08544 0.22109 0.22699 0.0
O30 O 0.00682 0.32521 0.17943 0.0
O31 O 0.04204 0.35194 0.21998 0.0
Zn32 Zn 0.4777 0.71956 0.69997 0.0
O33 O 0.52047 0.72143 0.73944 0.0
C34 C 0.48243 0.63667 0.70469 0.0
Zn35 Zn 0.4363 0.69441 0.73732 0.0
C36 C 0.51365 0.7055 0.76994 0.0
O37 O 0.48147 0.69252 0.77585 0.0
C38 C 0.40101 0.71042 0.66648 0.0
O39 O 0.4215 0.74804 0.75558 0.0
O40 O 0.4596 0.77438 0.71647 0.0
N41 N 0.4024 0.66981 0.77504 0.0
C42 C 0.37675 0.64356 0.76909 0.0
C43 C 0.38774 0.64445 0.8268 0.0
N44 N 0.4091 0.67045 0.81094 0.0
N45 N 0.36732 0.62723 0.80098 0.0
C46 C 0.53758 0.72167 0.63835 0.0
C47 C 0.51585 0.76254 0.60237 0.0
N48 N 0.50978 0.73855 0.65668 0.0
N49 N 0.49639 0.76397 0.63413 0.0
N50 N 0.54122 0.7355 0.60411 0.0
H51 H 0.56183 0.69383 0.68391 0.0
H52 H 0.59007 0.69361 0.64339 0.0
H53 H 0.55043 0.66459 0.64485 0.0
C54 C 0.56133 0.6917 0.65368 0.0
C55 C 0.36154 0.63307 0.732 0.0
H56 H 0.34318 0.65544 0.72218 0.0
H57 H 0.34488 0.60753 0.73305 0.0
H58 H 0.38409 0.62931 0.71173 0.0
O59 O 0.39249 0.69812 0.69804 0.0
O60 O 0.43443 0.71838 0.65992 0.0
C61 C 0.43481 0.77727 0.74152 0.0
O62 O 0.49629 0.66454 0.68885 0.0
O63 O 0.45173 0.64058 0.72081 0.0
Zn64 Zn 0.55885 0.20552 0.77431 0.0
O65 O 0.58125 0.25521 0.75541 0.0
C66 C 0.60281 0.21876 0.84189 0.0
Zn67 Zn 0.52503 0.23528 0.81648 0.0
C68 C 0.57036 0.28604 0.76829 0.0
O69 O 0.54573 0.2868 0.7938 0.0
C70 C 0.50901 0.15501 0.81572 0.0
O71 O 0.47891 0.23701 0.78066 0.0
O72 O 0.51426 0.21202 0.73794 0.0
N73 N 0.49715 0.25825 0.86217 0.0
C74 C 0.46419 0.24686 0.87597 0.0
C75 C 0.50115 0.25081 0.92132 0.0
N76 N 0.51944 0.26152 0.89094 0.0
N77 N 0.46644 0.2407 0.91277 0.0
C78 C 0.61991 0.16016 0.73588 0.0
C79 C 0.58567 0.12116 0.70824 0.0
N80 N 0.58524 0.17376 0.73608 0.0
N81 N 0.56425 0.14976 0.71821 0.0
N82 N 0.62063 0.12681 0.71951 0.0
H83 H 0.64866 0.20895 0.7531 0.0
H84 H 0.67786 0.17251 0.73531 0.0
H85 H 0.65819 0.16826 0.7803 0.0
C86 C 0.653 0.17879 0.75213 0.0
C87 C 0.42825 0.25221 0.85649 0.0
H88 H 0.43221 0.25727 0.8267 0.0
H89 H 0.41458 0.27675 0.86859 0.0
H90 H 0.40977 0.22835 0.86114 0.0
O91 O 0.50484 0.18343 0.83561 0.0
O92 O 0.53363 0.15566 0.791 0.0
C93 C 0.48302 0.22434 0.74816 0.0
O94 O 0.60464 0.20059 0.81198 0.0
O95 O 0.57262 0.23394 0.85052 0.0
Zn96 Zn 0.93896 0.80381 0.26608 0.0
O97 O 0.92658 0.75073 0.24636 0.0
C98 C 0.90631 0.78498 0.33795 0.0
Zn99 Zn 0.98209 0.78041 0.30238 0.0
C100 C 0.94078 0.72177 0.26 0.0
O101 O 0.96491 0.72531 0.28556 0.0
C102 C 0.98318 0.86253 0.29981 0.0
O103 O 0.02304 0.78039 0.26105 0.0
O104 O 0.98265 0.80974 0.22657 0.0
N105 N 0.01715 0.76222 0.34354 0.0
C106 C 0.04699 0.77852 0.35911 0.0
C107 C 0.02367 0.74303 0.3995 0.0
N108 N 1.00304 0.74 0.36877 0.0
N109 N 0.05097 0.7677 0.39445 0.0
C110 C 0.87386 0.84997 0.23689 0.0
C111 C 0.88345 0.85134 0.17896 0.0
N112 N 0.90238 0.82713 0.22989 0.0
N113 N 0.90815 0.82779 0.19382 0.0
N114 N 0.8616 0.8655 0.20551 0.0
H115 H 0.84393 0.83415 0.2851 0.0
H116 H 0.83934 0.88181 0.2746 0.0
H117 H 0.88205 0.86489 0.2937 0.0
C118 C 0.85906 0.8585 0.27463 0.0
C119 C 0.07308 0.80373 0.33961 0.0
H120 H 0.07557 0.79512 0.31048 0.0
H121 H 0.10079 0.80291 0.35269 0.0
H122 H 0.0629 0.83245 0.3411 0.0
O123 O 0.99922 0.835 0.31409 0.0
O124 O 0.95218 0.85758 0.28445 0.0
C125 C 0.01518 0.79718 0.23129 0.0
O126 O 0.89667 0.79598 0.30626 0.0
O127 O 0.94038 0.78029 0.34452 0.0
Zn128 Zn 0.23371 0.05997 0.30338 0.0
O129 O 0.25603 0.07477 0.25267 0.0
C130 C 0.16272 0.09457 0.2851 0.0
Zn131 Zn 0.19703 0.01958 0.27674 0.0
C132 C 0.24115 0.06485 0.22263 0.0
O133 O 0.21403 0.04218 0.22322 0.0
C134 C 0.19938 0.01356 0.35886 0.0
O135 O 0.23753 0.97852 0.27312 0.0
O136 O 0.27203 0.01516 0.30735 0.0
N137 N 0.15524 0.98741 0.2547 0.0
C138 C 0.13635 0.95892 0.26956 0.0
C139 C 0.09971 0.98621 0.23274 0.0
N140 N 0.13238 0.00386 0.23148 0.0
N141 N 0.10118 0.95818 0.25692 0.0
C142 C 0.26248 0.12111 0.35456 0.0
C143 C 0.32054 0.11112 0.35622 0.0
N144 N 0.26973 0.09412 0.33006 0.0
N145 N 0.30585 0.08806 0.33096 0.0
N146 N 0.29377 0.13207 0.37133 0.0
H147 H 0.21553 0.15337 0.33936 0.0
H148 H 0.22445 0.15393 0.38771 0.0
H149 H 0.20471 0.11353 0.3667 0.0
C150 C 0.22472 0.1362 0.36285 0.0
C151 C 0.15234 0.93136 0.29566 0.0
H152 H 0.18244 0.92872 0.2909 0.0
H153 H 0.13892 0.90418 0.2917 0.0
H154 H 0.14736 0.94006 0.32451 0.0
O155 O 0.18592 0.99797 0.3305 0.0
O156 O 0.21296 0.04532 0.35529 0.0
C157 C 0.26685 0.98417 0.29163 0.0
O158 O 0.1946 0.10309 0.29681 0.0
O159 O 0.15516 0.06096 0.27998 0.0
Zn160 Zn 0.30995 0.97548 0.78236 0.0
O161 O 0.26736 0.01489 0.7773 0.0
C162 C 0.2988 0.97863 0.8651 0.0
Zn163 Zn 0.27172 0.93365 0.80493 0.0
C164 C 0.23607 0.00776 0.7917 0.0
O165 O 0.23035 0.97621 0.80593 0.0
C166 C 0.34708 0.90203 0.7913 0.0
O167 O 0.25643 0.92019 0.75159 0.0
O168 O 0.29882 0.95534 0.726 0.0
N169 N 0.23489 0.89658 0.82558 0.0
C170 C 0.24103 0.86962 0.85022 0.0
C171 C 0.18264 0.87586 0.84544 0.0
N172 N 0.19859 0.90032 0.82243 0.0
N173 N 0.20884 0.85632 0.86305 0.0
C174 C 0.36817 0.03944 0.7856 0.0
C175 C 0.40393 0.02569 0.74101 0.0
N176 N 0.35145 0.01208 0.76642 0.0
N177 N 0.37383 0.00379 0.73865 0.0
N178 N 0.40126 0.04781 0.77072 0.0
H179 H 0.32255 0.05793 0.81835 0.0
H180 H 0.36257 0.0863 0.82251 0.0
H181 H 0.36277 0.04256 0.84417 0.0
C182 C 0.35297 0.05758 0.81951 0.0
C183 C 0.27847 0.85695 0.86278 0.0
H184 H 0.2913 0.84032 0.84053 0.0
H185 H 0.27697 0.83936 0.88762 0.0
H186 H 0.29654 0.88074 0.86876 0.0
O187 O 0.31464 0.89228 0.80068 0.0
O188 O 0.35357 0.93601 0.78698 0.0
C189 C 0.27255 0.93184 0.72288 0.0
O190 O 0.31495 0.99393 0.83819 0.0
O191 O 0.28444 0.94743 0.85993 0.0
Zn192 Zn 0.69977 0.48023 0.72575 0.0
O193 O 0.74203 0.51934 0.73151 0.0
C194 C 0.70498 0.48812 0.64416 0.0
Zn195 Zn 0.73635 0.43872 0.70028 0.0
C196 C 0.77211 0.51289 0.7144 0.0
O197 O 0.77665 0.48214 0.69793 0.0
C198 C 0.66226 0.40657 0.71607 0.0
O199 O 0.75738 0.42283 0.75159 0.0
O200 O 0.71477 0.45626 0.77943 0.0
N201 N 0.7717 0.40342 0.67346 0.0
C202 C 0.76401 0.3776 0.64783 0.0
C203 C 0.8225 0.38437 0.64852 0.0
N204 N 0.80809 0.4075 0.67395 0.0
N205 N 0.79529 0.36535 0.6318 0.0
C206 C 0.63923 0.54188 0.732 0.0
C207 C 0.60315 0.51575 0.77015 0.0
N208 N 0.65839 0.51375 0.74739 0.0
N209 N 0.63583 0.49809 0.77141 0.0
N210 N 0.60422 0.54311 0.7452 0.0
H211 H 0.68519 0.57055 0.70829 0.0
H212 H 0.64226 0.59627 0.70917 0.0
H213 H 0.64839 0.55982 0.67645 0.0
C214 C 0.65485 0.56871 0.70494 0.0
C215 C 0.72586 0.3649 0.63787 0.0
H216 H 0.71515 0.34722 0.66032 0.0
H217 H 0.72553 0.34846 0.61213 0.0
H218 H 0.70715 0.38876 0.6347 0.0
O219 O 0.69446 0.39636 0.70625 0.0
O220 O 0.65623 0.44066 0.72028 0.0
C221 C 0.7422 0.4339 0.78112 0.0
O222 O 0.69106 0.50347 0.67242 0.0
O223 O 0.71767 0.45583 0.64749 0.0
Zn224 Zn 0.77208 0.57113 0.20104 0.0
O225 O 0.7571 0.5858 0.25411 0.0
C226 C 0.84693 0.60246 0.2123 0.0
Zn227 Zn 0.80962 0.52903 0.22321 0.0
C228 C 0.77335 0.57377 0.28254 0.0
O229 O 0.79947 0.5502 0.27908 0.0
C230 C 0.79743 0.52397 0.14117 0.0
O231 O 0.76797 0.4895 0.23065 0.0
O232 O 0.73136 0.52809 0.20141 0.0
N233 N 0.85232 0.49495 0.23995 0.0
C234 C 0.87211 0.4695 0.22108 0.0
C235 C 0.90468 0.48548 0.26734 0.0
N236 N 0.8728 0.50477 0.26863 0.0
N237 N 0.90523 0.46391 0.23715 0.0
C238 C 0.73951 0.63253 0.1539 0.0
C239 C 0.68135 0.62496 0.15954 0.0
N240 N 0.73433 0.60678 0.17995 0.0
N241 N 0.69817 0.60221 0.18365 0.0
N242 N 0.70687 0.64417 0.14065 0.0
H243 H 0.78923 0.66303 0.16212 0.0
H244 H 0.77425 0.66248 0.11518 0.0
H245 H 0.79497 0.62203 0.13489 0.0
C246 C 0.77648 0.64561 0.14047 0.0
C247 C 0.85935 0.44958 0.18719 0.0
H248 H 0.82908 0.44564 0.18802 0.0
H249 H 0.87257 0.42222 0.18446 0.0
H250 H 0.86738 0.46565 0.16257 0.0
O251 O 0.81345 0.50854 0.16809 0.0
O252 O 0.78443 0.55589 0.14599 0.0
C253 C 0.73678 0.49672 0.21611 0.0
O254 O 0.81448 0.61319 0.2041 0.0
O255 O 0.85262 0.5683 0.21606 0.0
Zn256 Zn 0.27772 0.18696 0.02488 0.0
O257 O 0.2726 0.22652 0.98354 0.0
C258 C 0.3603 0.18318 0.01449 0.0
Zn259 Zn 0.3079 0.22452 0.06116 0.0
C260 C 0.29211 0.25537 0.98667 0.0
O261 O 0.31117 0.26091 0.01554 0.0
C262 C 0.29052 0.1543 0.09951 0.0
O263 O 0.25974 0.25121 0.07738 0.0
O264 O 0.226 0.20827 0.05117 0.0
N265 N 0.34117 0.25908 0.09033 0.0
C266 C 0.35552 0.25718 0.12457 0.0
C267 C 0.39252 0.28923 0.09204 0.0
N268 N 0.36399 0.27949 0.07045 0.0
N269 N 0.38807 0.27518 0.126 0.0
C270 C 0.26402 0.12879 0.96398 0.0
C271 C 0.23033 0.09085 0.99338 0.0
N272 N 0.25161 0.14647 0.99443 0.0
N273 N 0.23025 0.12285 0.01228 0.0
N274 N 0.25186 0.09366 0.96325 0.0
H275 H 0.29363 0.17494 0.9403 0.0
H276 H 0.27174 0.14423 0.9079 0.0
H277 H 0.31274 0.12967 0.93041 0.0
C278 C 0.2871 0.14578 0.93432 0.0
C279 C 0.33904 0.23646 0.15621 0.0
H280 H 0.34805 0.24863 0.18281 0.0
H281 H 0.34845 0.20743 0.15543 0.0
H282 H 0.30855 0.23706 0.1547 0.0
O283 O 0.30235 0.18659 0.10617 0.0
O284 O 0.28185 0.14604 0.06676 0.0
C285 C 0.22805 0.23768 0.07096 0.0
O286 O 0.33063 0.17148 0.99971 0.0
O287 O 0.35718 0.20053 0.04447 0.0
Zn288 Zn 0.77367 0.31713 0.98323 0.0
O289 O 0.76831 0.27425 0.02235 0.0
C290 C 0.85282 0.31668 0.00289 0.0
Zn291 Zn 0.80529 0.28126 0.94449 0.0
C292 C 0.78297 0.24328 0.01439 0.0
O293 O 0.79867 0.23897 0.98336 0.0
C294 C 0.79184 0.35475 0.91116 0.0
O295 O 0.75896 0.26169 0.91766 0.0
O296 O 0.72449 0.29656 0.95391 0.0
N297 N 0.84087 0.24883 0.91566 0.0
C298 C 0.853 0.2489 0.88055 0.0
C299 C 0.89306 0.22023 0.91272 0.0
N300 N 0.86559 0.23058 0.93538 0.0
N301 N 0.88601 0.23161 0.87817 0.0
C302 C 0.75614 0.37451 0.04449 0.0
C303 C 0.72563 0.41303 0.01264 0.0
N304 N 0.74462 0.35641 0.01389 0.0
N305 N 0.72503 0.38049 0.99464 0.0
N306 N 0.74565 0.41013 0.04373 0.0
H307 H 0.76734 0.32804 0.07879 0.0
H308 H 0.76776 0.37178 0.10235 0.0
H309 H 0.80578 0.36016 0.07322 0.0
C310 C 0.77547 0.35733 0.07647 0.0
C311 C 0.83347 0.2671 0.84913 0.0
H312 H 0.80322 0.26698 0.85394 0.0
H313 H 0.83994 0.25276 0.82286 0.0
H314 H 0.84279 0.29605 0.84671 0.0
O315 O 0.80855 0.3247 0.90409 0.0
O316 O 0.77871 0.35962 0.94314 0.0
C317 C 0.72727 0.27307 0.92754 0.0
O318 O 0.82318 0.33325 0.01163 0.0
O319 O 0.85328 0.29793 0.9735 0.0
Zn320 Zn 0.73468 0.69328 0.4792 0.0
O321 O 0.73904 0.73669 0.51859 0.0
C322 C 0.65288 0.69681 0.49706 0.0
Zn323 Zn 0.70268 0.73013 0.44129 0.0
C324 C 0.72431 0.7677 0.51076 0.0
O325 O 0.70936 0.77259 0.47951 0.0
C326 C 0.71714 0.65755 0.40633 0.0
O327 O 0.75327 0.74536 0.41675 0.0
O328 O 0.78589 0.71092 0.4548 0.0
N329 N 0.67372 0.76463 0.40703 0.0
C330 C 0.64488 0.75714 0.38469 0.0
C331 C 0.6548 0.81488 0.3815 0.0
N332 N 0.6798 0.80054 0.40507 0.0
N333 N 0.63269 0.78809 0.36829 0.0
C334 C 0.74662 0.63573 0.54257 0.0
C335 C 0.77551 0.59471 0.51216 0.0
N336 N 0.75935 0.65224 0.51157 0.0
N337 N 0.77787 0.62653 0.49323 0.0
N338 N 0.75531 0.59958 0.54293 0.0
H339 H 0.73743 0.6836 0.57572 0.0
H340 H 0.73358 0.64057 0.60004 0.0
H341 H 0.69729 0.65366 0.56944 0.0
C342 C 0.72757 0.6548 0.57369 0.0
C343 C 0.62889 0.71952 0.37851 0.0
H344 H 0.64534 0.70523 0.35698 0.0
H345 H 0.59995 0.72083 0.36873 0.0
H346 H 0.62987 0.70305 0.40411 0.0
O347 O 0.69819 0.68657 0.40174 0.0
O348 O 0.73213 0.65215 0.43736 0.0
C349 C 0.78443 0.73369 0.42804 0.0
O350 O 0.68217 0.67866 0.50397 0.0
O351 O 0.65242 0.71756 0.46899 0.0
Zn352 Zn 0.20616 0.77272 0.56242 0.0
O353 O 0.25858 0.75516 0.58134 0.0
C354 C 0.22096 0.84321 0.59924 0.0
Zn355 Zn 0.23622 0.8094 0.52349 0.0
C356 C 0.28912 0.76838 0.57003 0.0
O357 O 0.28924 0.79358 0.5455 0.0
C358 C 0.15278 0.80489 0.51142 0.0
O359 O 0.24154 0.76976 0.48195 0.0
O360 O 0.20963 0.73385 0.5189 0.0
N361 N 0.25707 0.85163 0.49181 0.0
C362 C 0.24258 0.86708 0.46116 0.0
C363 C 0.27215 0.90915 0.48949 0.0
N364 N 0.27583 0.87786 0.50899 0.0
N365 N 0.25076 0.90325 0.45972 0.0
C366 C 0.15981 0.73847 0.62598 0.0
C367 C 0.13361 0.69535 0.59596 0.0
N368 N 0.17853 0.7345 0.59402 0.0
N369 N 0.16279 0.70684 0.57613 0.0
N370 N 0.13092 0.71508 0.62726 0.0
H371 H 0.19941 0.7675 0.65891 0.0
H372 H 0.15755 0.75572 0.6828 0.0
H373 H 0.15708 0.79252 0.64997 0.0
C374 C 0.16911 0.76515 0.65612 0.0
C375 C 0.22147 0.84694 0.43198 0.0
H376 H 0.23128 0.81817 0.43025 0.0
H377 H 0.2255 0.86038 0.40485 0.0
H378 H 0.19149 0.84753 0.43815 0.0
O379 O 0.18219 0.82049 0.50035 0.0
O380 O 0.15356 0.78835 0.54205 0.0
C381 C 0.22562 0.73922 0.4882 0.0
O382 O 0.20434 0.81303 0.60495 0.0
O383 O 0.23307 0.84961 0.56709 0.0
Zn384 Zn 0.94545 0.70674 0.77324 0.0
O385 O 0.92052 0.75493 0.75497 0.0
C386 C 0.91286 0.72212 0.84779 0.0
Zn387 Zn 0.98412 0.73962 0.80833 0.0
C388 C 0.93006 0.78662 0.76635 0.0
O389 O 0.95585 0.78956 0.79032 0.0
C390 C 0.00404 0.65954 0.80699 0.0
O391 O 0.02169 0.74483 0.76301 0.0
O392 O 0.98342 0.71076 0.73023 0.0
N393 N 0.01699 0.76689 0.84722 0.0
C394 C 0.04724 0.75296 0.86425 0.0
C395 C 0.01626 0.78108 0.90535 0.0
N396 N 0.99836 0.78506 0.873 0.0
N397 N 0.04663 0.7602 0.90069 0.0
C398 C 0.89018 0.64682 0.74837 0.0
C399 C 0.88831 0.65381 0.69007 0.0
N400 N 0.9119 0.67576 0.74015 0.0
N401 N 0.9108 0.68002 0.70391 0.0
N402 N 0.87509 0.63266 0.7175 0.0
H403 H 0.86092 0.64916 0.79935 0.0
H404 H 0.87463 0.60352 0.78631 0.0
H405 H 0.90854 0.63561 0.8037 0.0
C406 C 0.8834 0.63273 0.78656 0.0
C407 C 0.07956 0.73597 0.84522 0.0
H408 H 0.08057 0.74503 0.81612 0.0
H409 H 0.10548 0.74463 0.85904 0.0
H410 H 0.07793 0.70562 0.84756 0.0
O411 O 0.01186 0.68968 0.82294 0.0
O412 O 0.97415 0.65751 0.78869 0.0
C413 C 0.01404 0.72744 0.73328 0.0
O414 O 0.90516 0.70591 0.81762 0.0
O415 O 0.94532 0.73432 0.85229 0.0
Zn416 Zn 0.52876 0.27035 0.31552 0.0
O417 O 0.48975 0.2611 0.2725 0.0
C418 C 0.5019 0.34882 0.30947 0.0
Zn419 Zn 0.56346 0.30509 0.27848 0.0
C420 C 0.49706 0.27498 0.24098 0.0
O421 O 0.52725 0.29201 0.23594 0.0
C422 C 0.59911 0.29748 0.35085 0.0
O423 O 0.59442 0.25759 0.26556 0.0
O424 O 0.55906 0.2217 0.29845 0.0
N425 N 0.59461 0.33658 0.2432 0.0
C426 C 0.61461 0.36721 0.24997 0.0
C427 C 0.6192 0.35576 0.19251 0.0
N428 N 0.59731 0.32966 0.20742 0.0
N429 N 0.63044 0.37957 0.21874 0.0
C430 C 0.46785 0.25566 0.37472 0.0
C431 C 0.50272 0.23503 0.41693 0.0
N432 N 0.49928 0.24392 0.35794 0.0
N433 N 0.52034 0.23034 0.38451 0.0
N434 N 0.46982 0.2516 0.41175 0.0
H435 H 0.43334 0.25608 0.32679 0.0
H436 H 0.40905 0.2582 0.37004 0.0
H437 H 0.43259 0.29827 0.35438 0.0
C438 C 0.43383 0.26782 0.35501 0.0
C439 C 0.6191 0.38478 0.28719 0.0
H440 H 0.64172 0.37067 0.30218 0.0
H441 H 0.62668 0.4142 0.28516 0.0
H442 H 0.59325 0.38251 0.30338 0.0
O443 O 0.60082 0.31639 0.32175 0.0
O444 O 0.5704 0.27845 0.35636 0.0
C445 C 0.58703 0.22543 0.27716 0.0
O446 O 0.4981 0.31987 0.32878 0.0
O447 O 0.53002 0.35166 0.28884 0.0
Zn448 Zn 0.4368 0.79844 0.23072 0.0
O449 O 0.42341 0.74478 0.24793 0.0
C450 C 0.40072 0.78242 0.15963 0.0
Zn451 Zn 0.47863 0.77505 0.19281 0.0
C452 C 0.43739 0.71641 0.23271 0.0
O453 O 0.46183 0.72037 0.20764 0.0
C454 C 0.48206 0.85739 0.19937 0.0
O455 O 0.52104 0.77279 0.23277 0.0
O456 O 0.48141 0.80049 0.26954 0.0
N457 N 0.51132 0.75657 0.15012 0.0
C458 C 0.54009 0.77225 0.13229 0.0
C459 C 0.51576 0.73365 0.09528 0.0
N460 N 0.49657 0.73238 0.12706 0.0
N461 N 0.54287 0.75891 0.09763 0.0
C462 C 0.37632 0.84755 0.26349 0.0
C463 C 0.38525 0.84371 0.32144 0.0
N464 N 0.40231 0.82153 0.26882 0.0
N465 N 0.40778 0.81906 0.30485 0.0
N466 N 0.36534 0.86183 0.29592 0.0
H467 H 0.34261 0.8382 0.21609 0.0
H468 H 0.34635 0.88578 0.22832 0.0
H469 H 0.38455 0.86272 0.20645 0.0
C470 C 0.36186 0.85953 0.22659 0.0
C471 C 0.56547 0.80044 0.14851 0.0
H472 H 0.56711 0.79679 0.17868 0.0
H473 H 0.5935 0.79783 0.13631 0.0
H474 H 0.5551 0.82846 0.14234 0.0
O475 O 0.4969 0.83027 0.18286 0.0
O476 O 0.45131 0.85245 0.2151 0.0
C477 C 0.51363 0.78755 0.2638 0.0
O478 O 0.39274 0.79434 0.19155 0.0
O479 O 0.43439 0.77585 0.15213 0.0
Zn480 Zn 0.0632 0.19777 0.72519 0.0
O481 O 0.08652 0.24857 0.73936 0.0
C482 C 0.09988 0.2099 0.65253 0.0
Zn483 Zn 0.02496 0.22679 0.6864 0.0
C484 C 0.07459 0.2787 0.72612 0.0
O485 O 0.04859 0.27854 0.70229 0.0
C486 C 0.00781 0.14571 0.69391 0.0
O487 O 0.98477 0.23375 0.72864 0.0
O488 O 0.02359 0.20649 0.76666 0.0
N489 N 0.9933 0.24922 0.64378 0.0
C490 C 0.96237 0.23599 0.62733 0.0
C491 C 0.99444 0.26132 0.5854 0.0
N492 N 0.01262 0.26558 0.61749 0.0
N493 N 0.96299 0.24219 0.59056 0.0
C494 C 0.11868 0.14055 0.75491 0.0
C495 C 0.1176 0.14898 0.81304 0.0
N496 N 0.09641 0.16967 0.76145 0.0
N497 N 0.09566 0.17478 0.79761 0.0
N498 N 0.13229 0.12717 0.78673 0.0
H499 H 0.14873 0.14235 0.70428 0.0
H500 H 0.13796 0.09666 0.71876 0.0
H501 H 0.10217 0.12533 0.69981 0.0
C502 C 0.12715 0.12513 0.71741 0.0
C503 C 0.93054 0.21897 0.64719 0.0
H504 H 0.9045 0.22409 0.63201 0.0
H505 H 0.93433 0.18878 0.64873 0.0
H506 H 0.92818 0.23093 0.67523 0.0
O507 O 1.0002 0.17368 0.67424 0.0
O508 O 0.03634 0.14685 0.71413 0.0
C509 C 0.99251 0.22174 0.76079 0.0
O510 O 0.10465 0.19276 0.68261 0.0
O511 O 0.06802 0.22268 0.64575 0.0
Zn512 Zn 0.76571 0.94294 0.70096 0.0
O513 O 0.75075 0.9181 0.75089 0.0
C514 C 0.83781 0.90556 0.71081 0.0
Zn515 Zn 0.8053 0.97919 0.73134 0.0
C516 C 0.76422 0.92891 0.78148 0.0
O517 O 0.78838 0.95458 0.78235 0.0
C518 C 0.80026 0.99721 0.65035 0.0
O519 O 0.76416 0.02069 0.73865 0.0
O520 O 0.72539 0.98322 0.7106 0.0
N521 N 0.8492 0.00894 0.75434 0.0
C522 C 0.86597 0.03902 0.74012 0.0
C523 C 0.90728 0.00922 0.76928 0.0
N524 N 0.87505 0.99078 0.77278 0.0
N525 N 0.90253 0.03909 0.74792 0.0
C526 C 0.72954 0.88004 0.65559 0.0
C527 C 0.69923 0.91327 0.61786 0.0
N528 N 0.72841 0.91434 0.6698 0.0
N529 N 0.70881 0.93463 0.64661 0.0
N530 N 0.71239 0.879 0.62266 0.0
H531 H 0.7429 0.84914 0.70367 0.0
H532 H 0.73439 0.82158 0.66316 0.0
H533 H 0.77694 0.84641 0.66694 0.0
C534 C 0.74707 0.84743 0.67352 0.0
C535 C 0.84632 0.06877 0.71937 0.0
H536 H 0.81778 0.07113 0.72999 0.0
H537 H 0.85923 0.09602 0.72264 0.0
H538 H 0.84712 0.06294 0.68945 0.0
O539 O 0.81923 0.00384 0.679 0.0
O540 O 0.77836 0.97017 0.65091 0.0
C541 C 0.73203 0.01409 0.72562 0.0
O542 O 0.80768 0.90145 0.69318 0.0
O543 O 0.84415 0.93622 0.72613 0.0
Zn544 Zn 0.68955 0.02355 0.2215 0.0
O545 O 0.72703 0.97964 0.22538 0.0
C546 C 0.68989 0.0144 0.13976 0.0
Zn547 Zn 0.72906 0.06174 0.19483 0.0
C548 C 0.75851 0.98479 0.21087 0.0
O549 O 0.76665 0.01614 0.19762 0.0
C550 C 0.65844 0.10042 0.20699 0.0
O551 O 0.74856 0.08253 0.24411 0.0
O552 O 0.70977 0.04693 0.27449 0.0
N553 N 0.76746 0.08912 0.1649 0.0
C554 C 0.76933 0.12431 0.15373 0.0
C555 C 0.79782 0.09176 0.11386 0.0
N556 N 0.78608 0.06913 0.14062 0.0
N557 N 0.78718 0.12651 0.12114 0.0
C558 C 0.62965 0.96293 0.2313 0.0
C559 C 0.59026 0.99111 0.26462 0.0
N560 N 0.64646 0.99361 0.24437 0.0
N561 N 0.62188 0.01076 0.26538 0.0
N562 N 0.59424 0.96127 0.24287 0.0
H563 H 0.67772 0.93636 0.20788 0.0
H564 H 0.63857 0.90664 0.21591 0.0
H565 H 0.63768 0.9381 0.17834 0.0
C566 C 0.6473 0.93452 0.20702 0.0
C567 C 0.75374 0.15647 0.17437 0.0
H568 H 0.74694 0.14888 0.20317 0.0
H569 H 0.77411 0.1793 0.17433 0.0
H570 H 0.72875 0.16667 0.16026 0.0
O571 O 0.69026 0.10644 0.19325 0.0
O572 O 0.6517 0.06819 0.21845 0.0
C573 C 0.73514 0.07177 0.27452 0.0
O574 O 0.67376 0.00152 0.16803 0.0
O575 O 0.71097 0.04162 0.14442 0.0
Zn576 Zn 0.31163 0.52144 0.2686 0.0
O577 O 0.26821 0.48323 0.26701 0.0
C578 C 0.319 0.50841 0.35139 0.0
Zn579 Zn 0.27826 0.55906 0.3026 0.0
C580 C 0.24001 0.48869 0.28712 0.0
O581 O 0.23676 0.51848 0.30519 0.0
C582 C 0.35067 0.59233 0.28072 0.0
O583 O 0.25537 0.57939 0.25352 0.0
O584 O 0.29176 0.54622 0.21806 0.0
N585 N 0.24547 0.59332 0.33172 0.0
C586 C 0.25417 0.61766 0.35824 0.0
C587 C 0.19536 0.61701 0.35363 0.0
N588 N 0.20896 0.59286 0.3288 0.0
N589 N 0.22333 0.63279 0.37226 0.0
C590 C 0.35815 0.45443 0.25648 0.0
C591 C 0.40524 0.47816 0.23048 0.0
N592 N 0.34735 0.48678 0.24204 0.0
N593 N 0.37648 0.50115 0.22529 0.0
N594 N 0.39469 0.44902 0.25082 0.0
H595 H 0.31246 0.43874 0.29191 0.0
H596 H 0.31452 0.41574 0.24887 0.0
H597 H 0.3461 0.40295 0.28472 0.0
C598 C 0.33173 0.42645 0.2718 0.0
C599 C 0.29274 0.62718 0.37003 0.0
H600 H 0.3036 0.64892 0.35155 0.0
H601 H 0.29339 0.63798 0.3986 0.0
H602 H 0.31113 0.60295 0.36808 0.0
O603 O 0.32092 0.60062 0.29753 0.0
O604 O 0.35525 0.5596 0.26977 0.0
C605 C 0.26661 0.57069 0.2215 0.0
O606 O 0.32929 0.4976 0.3197 0.0
O607 O 0.29913 0.53714 0.35302 0.0
Zn608 Zn 0.2323 0.43336 0.80298 0.0
O609 O 0.25128 0.42002 0.75091 0.0
C610 C 0.15703 0.40332 0.78103 0.0
Zn611 Zn 0.19508 0.47397 0.77733 0.0
C612 C 0.23781 0.43107 0.72071 0.0
O613 O 0.21235 0.45555 0.72158 0.0
C614 C 0.19445 0.47602 0.86159 0.0
O615 O 0.23979 0.5118 0.78021 0.0
O616 O 0.27565 0.47183 0.80891 0.0
N617 N 0.1581 0.51187 0.75758 0.0
C618 C 0.14391 0.54133 0.77534 0.0
C619 C 0.10356 0.52384 0.73627 0.0
N620 N 0.13303 0.50127 0.73311 0.0
N621 N 0.10947 0.54859 0.76326 0.0
C622 C 0.2806 0.38333 0.85347 0.0
C623 C 0.26419 0.33136 0.83148 0.0
N624 N 0.26162 0.38992 0.82232 0.0
N625 N 0.25242 0.35752 0.80826 0.0
N626 N 0.28156 0.34686 0.86033 0.0
H627 H 0.28824 0.43995 0.86972 0.0
H628 H 0.29324 0.40631 0.90666 0.0
H629 H 0.32849 0.41116 0.87272 0.0
C630 C 0.29816 0.41214 0.8771 0.0
C631 C 0.16352 0.56343 0.80422 0.0
H632 H 0.19164 0.55298 0.8091 0.0
H633 H 0.16591 0.59244 0.79528 0.0
H634 H 0.14712 0.56357 0.82994 0.0
O635 O 0.18047 0.4906 0.83297 0.0
O636 O 0.21489 0.44791 0.8571 0.0
C637 C 0.27017 0.50403 0.79621 0.0
O638 O 0.18787 0.39457 0.79501 0.0
O639 O 0.15065 0.43675 0.77423 0.0
Zn640 Zn 0.7252 0.80547 0.97696 0.0
O641 O 0.72889 0.76813 0.02038 0.0
C642 C 0.64284 0.79885 0.98172 0.0
Zn643 Zn 0.70161 0.76565 0.93692 0.0
C644 C 0.71352 0.73711 0.01488 0.0
O645 O 0.70064 0.72927 0.98314 0.0
C646 C 0.71436 0.83478 0.89895 0.0
O647 O 0.75589 0.74846 0.92257 0.0
O648 O 0.7804 0.7905 0.95888 0.0
N649 N 0.67748 0.72652 0.90422 0.0
C650 C 0.65075 0.73145 0.8788 0.0
C651 C 0.6553 0.67369 0.88803 0.0
N652 N 0.68033 0.69059 0.90991 0.0
N653 N 0.63651 0.69892 0.86838 0.0
C654 C 0.72881 0.86563 0.03865 0.0
C655 C 0.75421 0.90836 0.00769 0.0
N656 N 0.74284 0.85005 0.00771 0.0
N657 N 0.7591 0.87675 0.989 0.0
N658 N 0.73478 0.90244 0.03881 0.0
H659 H 0.72345 0.81788 0.07275 0.0
H660 H 0.71063 0.86063 0.09499 0.0
H661 H 0.68047 0.84015 0.06145 0.0
C662 C 0.70979 0.84488 0.06878 0.0
C663 C 0.6381 0.76801 0.86404 0.0
H664 H 0.65862 0.77789 0.84362 0.0
H665 H 0.61111 0.76598 0.84978 0.0
H666 H 0.63568 0.78879 0.88619 0.0
O667 O 0.70372 0.80234 0.89209 0.0
O668 O 0.72193 0.8436 0.93188 0.0
C669 C 0.78446 0.76477 0.93504 0.0
O670 O 0.67005 0.81585 0.99583 0.0
O671 O 0.64782 0.78166 0.95187 0.0
Zn672 Zn 0.2226 0.68986 0.02429 0.0
O673 O 0.22913 0.72668 0.98034 0.0
C674 C 0.13987 0.70179 0.01603 0.0
Zn675 Zn 0.19759 0.73056 0.06295 0.0
C676 C 0.21386 0.75795 0.98527 0.0
O677 O 0.19956 0.76598 0.01637 0.0
C678 C 0.20938 0.66264 0.10308 0.0
O679 O 0.25211 0.7461 0.07805 0.0
O680 O 0.27811 0.70235 0.04457 0.0
N681 N 0.17476 0.77146 0.09481 0.0
C682 C 0.14779 0.76834 0.1203 0.0
C683 C 0.15612 0.82567 0.1111 0.0
N684 N 0.17997 0.80712 0.08916 0.0
N685 N 0.13577 0.80176 0.13085 0.0
C686 C 0.2252 0.6264 0.9638 0.0
C687 C 0.24949 0.58436 0.99654 0.0
N688 N 0.2384 0.64282 0.99477 0.0
N689 N 0.25385 0.61643 0.01458 0.0
N690 N 0.23121 0.58943 0.96458 0.0
H691 H 0.22103 0.67326 0.92838 0.0
H692 H 0.20776 0.63008 0.9071 0.0
H693 H 0.17763 0.65222 0.93985 0.0
C694 C 0.2069 0.64658 0.93286 0.0
C695 C 0.13287 0.73268 0.13511 0.0
H696 H 0.15252 0.72173 0.15581 0.0
H697 H 0.10589 0.73635 0.14909 0.0
H698 H 0.12949 0.712 0.113 0.0
O699 O 0.19674 0.69467 0.10821 0.0
O700 O 0.2174 0.65286 0.07045 0.0
C701 C 0.28105 0.72921 0.06737 0.0
O702 O 0.16689 0.68332 0.00312 0.0
O703 O 0.14377 0.71666 0.04719 0.0
Zn704 Zn 0.28299 0.30901 0.52437 0.0
O705 O 0.28199 0.268 0.48283 0.0
C706 C 0.3663 0.30128 0.52085 0.0
Zn707 Zn 0.30462 0.26789 0.56429 0.0
C708 C 0.29176 0.23527 0.49042 0.0
O709 O 0.30151 0.2272 0.52297 0.0
C710 C 0.29502 0.34349 0.59889 0.0
O711 O 0.25225 0.25422 0.58225 0.0
O712 O 0.22646 0.29254 0.54273 0.0
N713 N 0.3291 0.2299 0.59716 0.0
C714 C 0.33678 0.22998 0.6334 0.0
C715 C 0.37925 0.19934 0.60657 0.0
N716 N 0.35492 0.20985 0.58077 0.0
N717 N 0.36891 0.21225 0.63977 0.0
C718 C 0.28291 0.3637 0.45803 0.0
C719 C 0.24049 0.40154 0.4726 0.0
N720 N 0.26471 0.34919 0.48722 0.0
N721 N 0.23794 0.37257 0.49572 0.0
N722 N 0.26926 0.39738 0.4492 0.0
H723 H 0.32044 0.31768 0.44955 0.0
H724 H 0.30348 0.3362 0.40959 0.0
H725 H 0.33747 0.36236 0.43409 0.0
C726 C 0.31313 0.3442 0.43728 0.0
C727 C 0.31186 0.24476 0.66278 0.0
H728 H 0.28948 0.26192 0.65105 0.0
H729 H 0.29889 0.22114 0.67714 0.0
H730 H 0.32803 0.25988 0.68381 0.0
O731 O 0.30692 0.31105 0.60548 0.0
O732 O 0.28333 0.35009 0.56659 0.0
C733 C 0.22339 0.26818 0.56821 0.0
O734 O 0.34036 0.32148 0.50867 0.0
O735 O 0.35804 0.27901 0.54607 0.0
Zn736 Zn 0.80507 0.2321 0.43433 0.0
O737 O 0.75458 0.25353 0.41929 0.0
C738 C 0.78637 0.16091 0.39841 0.0
Zn739 Zn 0.77935 0.19416 0.47397 0.0
C740 C 0.72451 0.23971 0.43076 0.0
O741 O 0.72529 0.21294 0.45368 0.0
C742 C 0.86236 0.19425 0.47869 0.0
O743 O 0.77742 0.23406 0.51626 0.0
O744 O 0.80813 0.2706 0.479 0.0
N745 N 0.75736 0.15336 0.50599 0.0
C746 C 0.7729 0.13662 0.53524 0.0
C747 C 0.73482 0.09849 0.51166 0.0
N748 N 0.73354 0.12965 0.49153 0.0
N749 N 0.76014 0.10197 0.53858 0.0
C750 C 0.84984 0.26349 0.36922 0.0
C751 C 0.8826 0.30181 0.39945 0.0
N752 N 0.83354 0.26825 0.40232 0.0
N753 N 0.85357 0.29269 0.42062 0.0
N754 N 0.8813 0.2833 0.36731 0.0
H755 H 0.80458 0.2395 0.33922 0.0
H756 H 0.84481 0.25031 0.3116 0.0
H757 H 0.84571 0.21132 0.3417 0.0
C758 C 0.83525 0.23981 0.33867 0.0
C759 C 0.80095 0.15365 0.56041 0.0
H760 H 0.8041 0.18332 0.55503 0.0
H761 H 0.79254 0.15037 0.58955 0.0
H762 H 0.82767 0.13917 0.55713 0.0
O763 O 0.83415 0.17982 0.49364 0.0
O764 O 0.85727 0.21259 0.44965 0.0
C765 C 0.79369 0.26446 0.51033 0.0
O766 O 0.79928 0.19247 0.39058 0.0
O767 O 0.78006 0.15333 0.43181 0.0
C768 C 0.18342 0.40872 0.32319 0.0
C769 C 0.16108 0.40136 0.29221 0.0
C770 C 0.1893 0.45224 0.2584 0.0
C771 C 0.21131 0.46016 0.28969 0.0
N772 N 0.22459 0.45117 0.35429 0.0
N773 N 0.13485 0.42175 0.2347 0.0
C774 C 0.20682 0.44009 0.32297 0.0
C775 C 0.16178 0.4247 0.26095 0.0
N776 N 0.18273 0.385 0.35232 0.0
N777 N 0.19454 0.47122 0.22633 0.0
H778 H 0.11331 0.40282 0.23634 0.0
H779 H 0.13164 0.44032 0.21314 0.0
H780 H 0.21221 0.49376 0.22429 0.0
H781 H 0.18278 0.46349 0.2013 0.0
H782 H 0.20027 0.38688 0.37494 0.0
H783 H 0.16572 0.36182 0.35279 0.0
H784 H 0.21902 0.44042 0.38025 0.0
H785 H 0.2432 0.47301 0.35495 0.0
C786 C 0.28744 0.56516 0.82288 0.0
C787 C 0.29775 0.53348 0.80224 0.0
C788 C 0.35846 0.5607 0.79103 0.0
C789 C 0.34543 0.59454 0.80557 0.0
N790 N 0.29703 0.63035 0.83335 0.0
N791 N 0.3425 0.50146 0.76463 0.0
C792 C 0.30987 0.59708 0.82131 0.0
C793 C 0.33336 0.53105 0.78614 0.0
N794 N 0.25694 0.5642 0.84498 0.0
N795 N 0.39488 0.55726 0.78186 0.0
H796 H 0.32476 0.47928 0.76025 0.0
H797 H 0.36657 0.50011 0.74894 0.0
H798 H 0.41366 0.5787 0.78554 0.0
H799 H 0.40703 0.53246 0.774 0.0
H800 H 0.24976 0.58531 0.86309 0.0
H801 H 0.24108 0.54051 0.84803 0.0
H802 H 0.26977 0.63481 0.84145 0.0
H803 H 0.31312 0.65415 0.83272 0.0
C804 C 0.66291 0.0841 0.68814 0.0
C805 C 0.64893 0.09904 0.72121 0.0
C806 C 0.69027 0.05963 0.75734 0.0
C807 C 0.70329 0.04327 0.72423 0.0
N808 N 0.69689 0.03543 0.65795 0.0
N809 N 0.64052 0.09327 0.78675 0.0
C810 C 0.68785 0.05392 0.68957 0.0
C811 C 0.66029 0.08485 0.75576 0.0
N812 N 0.65291 0.09968 0.65536 0.0
N813 N 0.70579 0.05053 0.79042 0.0
H814 H 0.61685 0.10963 0.78623 0.0
H815 H 0.64507 0.08094 0.81222 0.0
H816 H 0.7256 0.02993 0.79342 0.0
H817 H 0.70044 0.06495 0.8147 0.0
H818 H 0.66341 0.09176 0.62987 0.0
H819 H 0.6358 0.12274 0.6538 0.0
H820 H 0.68276 0.03854 0.63319 0.0
H821 H 0.71756 0.01564 0.65625 0.0
C822 C 0.84738 0.93029 0.21885 0.0
C823 C 0.83716 0.89656 0.20226 0.0
C824 C 0.77704 0.92269 0.18608 0.0
C825 C 0.78529 0.95411 0.20803 0.0
N826 N 0.82554 0.98383 0.25167 0.0
N827 N 0.79158 0.85883 0.17247 0.0
C828 C 0.81988 0.95702 0.22594 0.0
C829 C 0.80181 0.89228 0.18627 0.0
N830 N 0.88338 0.93642 0.22815 0.0
N831 N 0.7463 0.92237 0.16425 0.0
H832 H 0.80946 0.83629 0.17206 0.0
H833 H 0.7648 0.85283 0.16382 0.0
H834 H 0.72789 0.94439 0.16303 0.0
H835 H 0.74087 0.90179 0.14499 0.0
H836 H 0.893 0.9617 0.23777 0.0
H837 H 0.90414 0.91727 0.22261 0.0
H838 H 0.84923 0.98545 0.26791 0.0
H839 H 0.80442 0.00146 0.25989 0.0
C840 C 0.31644 0.21477 0.42931 0.0
C841 C 0.29455 0.20731 0.4609 0.0
C842 C 0.28097 0.14607 0.43653 0.0
C843 C 0.29716 0.15626 0.40252 0.0
N844 N 0.32729 0.20143 0.36477 0.0
N845 N 0.2523 0.16712 0.49303 0.0
C846 C 0.31422 0.19093 0.39842 0.0
C847 C 0.276 0.17312 0.46433 0.0
N848 N 0.34075 0.24347 0.42959 0.0
N849 N 0.27054 0.11042 0.44206 0.0
H850 H 0.24718 0.18661 0.51355 0.0
H851 H 0.23521 0.14413 0.49471 0.0
H852 H 0.27445 0.09005 0.42214 0.0
H853 H 0.26148 0.10046 0.46739 0.0
H854 H 0.35934 0.24854 0.40836 0.0
H855 H 0.34532 0.25956 0.45292 0.0
H856 H 0.33664 0.22796 0.35922 0.0
H857 H 0.32607 0.18433 0.34167 0.0
C858 C 0.21352 0.84661 0.92974 0.0
C859 C 0.204 0.83295 0.89449 0.0
C860 C 0.19401 0.77191 0.9204 0.0
C861 C 0.20985 0.78405 0.95423 0.0
N862 N 0.23835 0.83266 0.98993 0.0
N863 N 0.18745 0.78276 0.85481 0.0
C864 C 0.22022 0.82148 0.95881 0.0
C865 C 0.19464 0.79564 0.88944 0.0
N866 N 0.21646 0.88371 0.93504 0.0
N867 N 0.17678 0.73855 0.9183 0.0
H868 H 0.18693 0.79995 0.83183 0.0
H869 H 0.18445 0.75491 0.84862 0.0
H870 H 0.17385 0.72128 0.94091 0.0
H871 H 0.16198 0.72973 0.89534 0.0
H872 H 0.22007 0.8958 0.96083 0.0
H873 H 0.2117 0.90255 0.91392 0.0
H874 H 0.24996 0.85871 0.99295 0.0
H875 H 0.24487 0.815 0.01153 0.0
C876 C 0.81602 0.28224 0.57321 0.0
C877 C 0.79719 0.29194 0.54034 0.0
C878 C 0.78554 0.35342 0.56555 0.0
C879 C 0.79877 0.34147 0.60025 0.0
N880 N 0.82367 0.29375 0.63861 0.0
N881 N 0.76072 0.33576 0.50609 0.0
C882 C 0.81342 0.30568 0.60447 0.0
C883 C 0.78131 0.32744 0.53652 0.0
N884 N 0.83764 0.25145 0.57402 0.0
N885 N 0.77734 0.38974 0.5605 0.0
H886 H 0.75656 0.3173 0.48443 0.0
H887 H 0.74527 0.35982 0.50366 0.0
H888 H 0.7806 0.40929 0.58136 0.0
H889 H 0.7707 0.40096 0.53497 0.0
H890 H 0.85444 0.2446 0.59621 0.0
H891 H 0.84186 0.23492 0.5509 0.0
H892 H 0.83101 0.2666 0.64418 0.0
H893 H 0.82208 0.31049 0.66196 0.0
C894 C 0.71036 0.65027 0.07348 0.0
C895 C 0.70124 0.66572 0.10811 0.0
C896 C 0.69164 0.72544 0.07945 0.0
C897 C 0.70748 0.7117 0.0462 0.0
N898 N 0.73487 0.661 0.01247 0.0
N899 N 0.6853 0.71785 0.14547 0.0
C900 C 0.71715 0.6739 0.04318 0.0
C901 C 0.69216 0.70324 0.11145 0.0
N902 N 0.71304 0.61295 0.07004 0.0
N903 N 0.67449 0.75889 0.08004 0.0
H904 H 0.68465 0.70178 0.16925 0.0
H905 H 0.68268 0.74601 0.15031 0.0
H906 H 0.67151 0.77496 0.05657 0.0
H907 H 0.65951 0.7687 0.10254 0.0
H908 H 0.71642 0.59951 0.04488 0.0
H909 H 0.70829 0.59528 0.09215 0.0
H910 H 0.74607 0.63466 0.01054 0.0
H911 H 0.74132 0.67747 0.98996 0.0
C912 C 0.42877 0.30877 0.16851 0.0
C913 C 0.41561 0.27497 0.15458 0.0
C914 C 0.45529 0.24096 0.19738 0.0
C915 C 0.46935 0.27483 0.2109 0.0
N916 N 0.4742 0.34132 0.2047 0.0
N917 N 0.42477 0.20977 0.14692 0.0
C918 C 0.45786 0.30884 0.19475 0.0
C919 C 0.43104 0.24121 0.16666 0.0
N920 N 0.41223 0.34081 0.15756 0.0
N921 N 0.46571 0.20844 0.21318 0.0
H922 H 0.40901 0.20941 0.12293 0.0
H923 H 0.4382 0.18494 0.15197 0.0
H924 H 0.48618 0.20647 0.23327 0.0
H925 H 0.45265 0.18351 0.20758 0.0
H926 H 0.41927 0.36681 0.16728 0.0
H927 H 0.38902 0.34138 0.14058 0.0
H928 H 0.47102 0.36575 0.19016 0.0
H929 H 0.49223 0.3442 0.22676 0.0
C930 C 0.92515 0.1945 0.837 0.0
C931 C 0.91171 0.22937 0.84792 0.0
C932 C 0.95071 0.25934 0.80162 0.0
C933 C 0.96521 0.22442 0.79129 0.0
N934 N 0.97179 0.15927 0.80472 0.0
N935 N 0.9206 0.29496 0.84947 0.0
C936 C 0.95443 0.19217 0.81094 0.0
C937 C 0.92669 0.26189 0.83251 0.0
N938 N 0.90894 0.16353 0.851 0.0
N939 N 0.96078 0.29035 0.78286 0.0
H940 H 0.90563 0.29743 0.8739 0.0
H941 H 0.9337 0.31928 0.84183 0.0
H942 H 0.98147 0.29079 0.76289 0.0
H943 H 0.94732 0.31551 0.78607 0.0
H944 H 0.91648 0.13679 0.84405 0.0
H945 H 0.8856 0.16449 0.86783 0.0
H946 H 0.96878 0.13645 0.82171 0.0
H947 H 0.99058 0.15466 0.78353 0.0
C948 C 0.53666 0.78199 0.32969 0.0
C949 C 0.54308 0.79172 0.29223 0.0
C950 C 0.60883 0.8008 0.30578 0.0
C951 C 0.60219 0.79217 0.34312 0.0
N952 N 0.55902 0.78465 0.39272 0.0
N953 N 0.58252 0.82358 0.24913 0.0
C954 C 0.56572 0.78616 0.35573 0.0
C955 C 0.57841 0.80503 0.28153 0.0
N956 N 0.5037 0.76706 0.34027 0.0
N957 N 0.64423 0.80375 0.29317 0.0
H958 H 0.56016 0.82994 0.23224 0.0
H959 H 0.60698 0.83665 0.24153 0.0
H960 H 0.66716 0.80037 0.31022 0.0
H961 H 0.6507 0.80636 0.26531 0.0
H962 H 0.49932 0.75558 0.36618 0.0
H963 H 0.48147 0.76337 0.32252 0.0
H964 H 0.53255 0.78383 0.40396 0.0
H965 H 0.58 0.78771 0.41221 0.0
C966 C 0.08606 0.68521 0.66906 0.0
C967 C 0.09905 0.71706 0.65102 0.0
C968 C 0.05503 0.75534 0.68501 0.0
C969 C 0.04181 0.72362 0.70341 0.0
N970 N 0.03774 0.65682 0.70514 0.0
N971 N 0.08496 0.77831 0.63017 0.0
C972 C 0.05478 0.68797 0.69267 0.0
C973 C 0.08033 0.75102 0.65556 0.0
N974 N 0.10451 0.65265 0.66466 0.0
N975 N 0.04315 0.78957 0.69514 0.0
H976 H 0.10097 0.77475 0.60652 0.0
H977 H 0.06959 0.80257 0.63025 0.0
H978 H 0.02276 0.79383 0.7149 0.0
H979 H 0.0552 0.8137 0.68539 0.0
H980 H 0.09725 0.62825 0.67767 0.0
H981 H 0.12904 0.65038 0.64979 0.0
H982 H 0.04299 0.63068 0.69458 0.0
H983 H 0.01669 0.65673 0.72459 0.0
C984 C 0.86325 0.56579 0.72022 0.0
C985 C 0.85025 0.60197 0.7139 0.0
C986 C 0.78918 0.57777 0.69891 0.0
C987 C 0.8003 0.54242 0.71138 0.0
N988 N 0.84797 0.50291 0.73615 0.0
N989 N 0.80002 0.64343 0.70151 0.0
C990 C 0.83752 0.53627 0.7223 0.0
C991 C 0.81299 0.60824 0.70426 0.0
N992 N 0.90034 0.55979 0.72371 0.0
N993 N 0.75663 0.58193 0.68037 0.0
H994 H 0.81676 0.6664 0.7058 0.0
H995 H 0.77211 0.6497 0.69824 0.0
H996 H 0.73954 0.55976 0.67404 0.0
H997 H 0.74882 0.60637 0.66759 0.0
H998 H 0.91212 0.53366 0.72485 0.0
H999 H 0.91961 0.58109 0.72226 0.0
H1000 H 0.87351 0.49826 0.74849 0.0
H1001 H 0.83028 0.48039 0.73771 0.0
C1002 C 0.64426 0.44619 0.22077 0.0
C1003 C 0.65613 0.40956 0.21454 0.0
C1004 C 0.71806 0.43207 0.20052 0.0
C1005 C 0.70806 0.46757 0.21368 0.0
N1006 N 0.66175 0.50734 0.24078 0.0
N1007 N 0.70587 0.36679 0.20377 0.0
C1008 C 0.67103 0.47457 0.2247 0.0
C1009 C 0.69347 0.40223 0.20574 0.0
N1010 N 0.60736 0.45365 0.2229 0.0
N1011 N 0.75018 0.42716 0.1814 0.0
H1012 H 0.68884 0.34418 0.20856 0.0
H1013 H 0.73375 0.3601 0.2009 0.0
H1014 H 0.76733 0.44903 0.1744 0.0
H1015 H 0.75718 0.40244 0.16851 0.0
H1016 H 0.59675 0.48029 0.22417 0.0
H1017 H 0.58737 0.43314 0.22005 0.0
H1018 H 0.63594 0.51234 0.25251 0.0
H1019 H 0.68078 0.52833 0.24562 0.0
C1020 C 0.35616 0.92867 0.29149 0.0
C1021 C 0.34239 0.89362 0.30139 0.0
C1022 C 0.28151 0.92014 0.31276 0.0
C1023 C 0.29366 0.95384 0.29696 0.0
N1024 N 0.34202 0.98954 0.26831 0.0
N1025 N 0.29215 0.85458 0.31928 0.0
C1026 C 0.33104 0.9582 0.28598 0.0
C1027 C 0.30515 0.88902 0.31178 0.0
N1028 N 0.39333 0.93329 0.28702 0.0
N1029 N 0.24797 0.91826 0.32985 0.0
H1030 H 0.30925 0.83144 0.31944 0.0
H1031 H 0.26425 0.84863 0.32295 0.0
H1032 H 0.2305 0.94087 0.33225 0.0
H1033 H 0.23913 0.89555 0.34491 0.0
H1034 H 0.40575 0.95879 0.28293 0.0
H1035 H 0.41207 0.91178 0.29078 0.0
H1036 H 0.36793 0.99266 0.25624 0.0
H1037 H 0.32426 0.01149 0.26294 0.0
C1038 C 0.17123 0.03137 0.78037 0.0
C1039 C 0.20752 0.03717 0.79408 0.0
C1040 C 0.19351 0.10251 0.80385 0.0
C1041 C 0.15691 0.0964 0.79184 0.0
N1042 N 0.10809 0.05394 0.77767 0.0
N1043 N 0.24827 0.0754 0.83022 0.0
C1044 C 0.14484 0.06032 0.78317 0.0
C1045 C 0.21724 0.07195 0.80919 0.0
N1046 N 0.16246 0.99919 0.76289 0.0
N1047 N 0.20607 0.13758 0.80884 0.0
H1048 H 0.26451 0.05281 0.83708 0.0
H1049 H 0.25502 0.09932 0.84462 0.0
H1050 H 0.1895 0.16067 0.80454 0.0
H1051 H 0.23371 0.14375 0.814 0.0
H1052 H 0.13756 0.99507 0.7491 0.0
H1053 H 0.18123 0.97769 0.75932 0.0
H1054 H 0.09699 0.02769 0.77444 0.0
H1055 H 0.08837 0.07483 0.77971 0.0
C1056 C 0.75061 0.84236 0.5796 0.0
C1057 C 0.71544 0.85146 0.59431 0.0
C1058 C 0.6858 0.81041 0.5499 0.0
C1059 C 0.72136 0.79717 0.53893 0.0
N1060 N 0.78785 0.79941 0.54447 0.0
N1061 N 0.64981 0.84324 0.59604 0.0
C1062 C 0.75386 0.81258 0.5544 0.0
C1063 C 0.68308 0.83536 0.57996 0.0
N1064 N 0.78045 0.86392 0.58775 0.0
N1065 N 0.65458 0.7993 0.53181 0.0
H1066 H 0.64734 0.86053 0.61889 0.0
H1067 H 0.62499 0.83078 0.58876 0.0
H1068 H 0.65417 0.77891 0.51171 0.0
H1069 H 0.62886 0.81164 0.53538 0.0
H1070 H 0.80615 0.86095 0.57517 0.0
H1071 H 0.77857 0.88744 0.60416 0.0
H1072 H 0.81209 0.80641 0.55827 0.0
H1073 H 0.79178 0.77998 0.52364 0.0
C1074 C 0.81823 0.19472 0.04977 0.0
C1075 C 0.78403 0.21285 0.04175 0.0
C1076 C 0.75179 0.16915 0.08168 0.0
C1077 C 0.78619 0.15563 0.09437 0.0
N1078 N 0.8523 0.15455 0.09128 0.0
N1079 N 0.71814 0.2185 0.05292 0.0
C1080 C 0.81945 0.16788 0.07826 0.0
C1081 C 0.75086 0.2007 0.05886 0.0
N1082 N 0.84977 0.20358 0.031 0.0
N1083 N 0.72016 0.14988 0.08873 0.0
H1084 H 0.71484 0.23977 0.03413 0.0
H1085 H 0.6945 0.21345 0.06853 0.0
H1086 H 0.72009 0.12483 0.10266 0.0
H1087 H 0.69467 0.15634 0.07707 0.0
H1088 H 0.87363 0.18759 0.03138 0.0
H1089 H 0.85248 0.22658 0.01427 0.0
H1090 H 0.87816 0.16261 0.08183 0.0
H1091 H 0.85396 0.13684 0.11377 0.0
C1092 C 0.23246 0.67379 0.46633 0.0
C1093 C 0.22295 0.71102 0.4589 0.0
C1094 C 0.21286 0.69592 0.39396 0.0
C1095 C 0.22056 0.65875 0.40182 0.0
N1096 N 0.23002 0.61028 0.44558 0.0
N1097 N 0.19308 0.75449 0.41822 0.0
C1098 C 0.22779 0.64706 0.43819 0.0
C1099 C 0.21004 0.72133 0.42339 0.0
N1100 N 0.24752 0.6642 0.49949 0.0
N1101 N 0.20927 0.70705 0.35824 0.0
H1102 H 0.188 0.77279 0.43973 0.0
H1103 H 0.18011 0.76189 0.3937 0.0
H1104 H 0.21101 0.68882 0.33606 0.0
H1105 H 0.20759 0.73462 0.35058 0.0
H1106 H 0.25876 0.63836 0.50477 0.0
H1107 H 0.2516 0.68278 0.52097 0.0
H1108 H 0.23173 0.59962 0.47213 0.0
H1109 H 0.22692 0.59025 0.42515 0.0
C1110 C 0.26837 0.31222 0.95697 0.0
C1111 C 0.29301 0.28203 0.95634 0.0
C1112 C 0.31467 0.29938 0.89489 0.0
C1113 C 0.28825 0.32807 0.89443 0.0
N1114 N 0.23385 0.35619 0.92106 0.0
N1115 N 0.34273 0.24842 0.92782 0.0
C1116 C 0.26376 0.33347 0.92463 0.0
C1117 C 0.31704 0.27596 0.92608 0.0
N1118 N 0.24931 0.32049 0.98849 0.0
N1119 N 0.33582 0.29348 0.86426 0.0
H1120 H 0.34471 0.23066 0.95019 0.0
H1121 H 0.36318 0.24399 0.90822 0.0
H1122 H 0.33683 0.31215 0.84247 0.0
H1123 H 0.35059 0.26944 0.85936 0.0
H1124 H 0.23414 0.34462 0.99195 0.0
H1125 H 0.25118 0.30475 0.01243 0.0
H1126 H 0.21281 0.35809 0.94055 0.0
H1127 H 0.22779 0.37057 0.89705 0.0
C1128 C 0.57814 0.68397 0.78449 0.0
C1129 C 0.544 0.69906 0.79698 0.0
C1130 C 0.56926 0.70187 0.85966 0.0
C1131 C 0.60464 0.69329 0.84548 0.0
N1132 N 0.64412 0.67855 0.79451 0.0
N1133 N 0.50759 0.72428 0.847 0.0
C1134 C 0.60942 0.68478 0.80793 0.0
C1135 C 0.53943 0.708 0.83491 0.0
N1136 N 0.58014 0.667 0.75101 0.0
N1137 N 0.56463 0.70465 0.89691 0.0
H1138 H 0.48511 0.72948 0.82998 0.0
H1139 H 0.50437 0.73521 0.87335 0.0
H1140 H 0.58641 0.70068 0.91531 0.0
H1141 H 0.53898 0.70754 0.90959 0.0
H1142 H 0.6034 0.65287 0.74166 0.0
H1143 H 0.55685 0.66277 0.73485 0.0
H1144 H 0.65002 0.67636 0.76648 0.0
H1145 H 0.66739 0.67801 0.81146 0.0
C1146 C 0.07917 0.81895 0.21562 0.0
C1147 C 0.04467 0.80445 0.20361 0.0
C1148 C 0.06864 0.80226 0.14042 0.0
C1149 C 0.1045 0.80943 0.15406 0.0
N1150 N 0.14507 0.82318 0.20441 0.0
N1151 N 0.00693 0.78062 0.15389 0.0
C1152 C 0.11004 0.81779 0.19157 0.0
C1153 C 0.03918 0.79628 0.16563 0.0
N1154 N 0.08202 0.83532 0.24938 0.0
N1155 N 0.06328 0.80039 0.10324 0.0
H1156 H 0.98472 0.77525 0.17123 0.0
H1157 H 0.00312 0.77026 0.12739 0.0
H1158 H 0.08483 0.80434 0.08454 0.0
H1159 H 0.03733 0.79844 0.09102 0.0
H1160 H 0.10556 0.84921 0.25827 0.0
H1161 H 0.05935 0.83883 0.2667 0.0
H1162 H 0.15145 0.82518 0.23233 0.0
H1163 H 0.16804 0.82335 0.18702 0.0
C1164 C 0.44015 0.18622 0.70925 0.0
C1165 C 0.45124 0.22142 0.72273 0.0
C1166 C 0.40802 0.25096 0.68041 0.0
C1167 C 0.39385 0.21586 0.67038 0.0
N1168 N 0.3927 0.15047 0.6782 0.0
N1169 N 0.44193 0.2873 0.72484 0.0
C1170 C 0.40879 0.18361 0.68595 0.0
C1171 C 0.43349 0.25374 0.70997 0.0
N1172 N 0.45987 0.15535 0.71796 0.0
N1173 N 0.40014 0.28118 0.65948 0.0
H1174 H 0.46257 0.29121 0.74447 0.0
H1175 H 0.42658 0.31095 0.71939 0.0
H1176 H 0.38437 0.28009 0.63554 0.0
H1177 H 0.41274 0.30666 0.66339 0.0
H1178 H 0.45585 0.12995 0.70524 0.0
H1179 H 0.48173 0.15518 0.73652 0.0
H1180 H 0.40079 0.12568 0.69001 0.0
H1181 H 0.36901 0.14826 0.66195 0.0
C1182 C 0.92812 0.24597 0.33383 0.0
C1183 C 0.91134 0.28053 0.34141 0.0
C1184 C 0.95938 0.31109 0.3055 0.0
C1185 C 0.97166 0.27612 0.29222 0.0
N1186 N 0.9662 0.20989 0.29243 0.0
N1187 N 0.90849 0.34577 0.33169 0.0
C1188 C 0.95528 0.24341 0.30569 0.0
C1189 C 0.92646 0.31306 0.32658 0.0
N1190 N 0.92042 0.21628 0.3555 0.0
N1191 N 0.97862 0.34254 0.29793 0.0
H1192 H 0.8828 0.34764 0.3446 0.0
H1193 H 0.91714 0.37059 0.32038 0.0
H1194 H 1.00106 0.34378 0.28017 0.0
H1195 H 0.97356 0.36755 0.31107 0.0
H1196 H 0.93432 0.19125 0.35329 0.0
H1197 H 0.90328 0.21791 0.37852 0.0
H1198 H 0.95217 0.18558 0.29838 0.0
H1199 H 0.98798 0.20662 0.27386 0.0
C1200 C 0.12187 0.15001 0.29479 0.0
C1201 C 0.13766 0.12371 0.27057 0.0
C1202 C 0.1182 0.16077 0.21726 0.0
C1203 C 0.10109 0.18618 0.24139 0.0
N1204 N 0.07839 0.20025 0.3024 0.0
N1205 N 0.14234 0.09957 0.20829 0.0
C1206 C 0.10053 0.17943 0.28002 0.0
C1207 C 0.1328 0.12749 0.23171 0.0
N1208 N 0.12732 0.14692 0.3319 0.0
N1209 N 0.12269 0.16935 0.18085 0.0
H1210 H 0.15405 0.07504 0.21693 0.0
H1211 H 0.13555 0.09943 0.1804 0.0
H1212 H 0.11295 0.1937 0.1692 0.0
H1213 H 0.13909 0.15398 0.1629 0.0
H1214 H 0.12061 0.16763 0.35064 0.0
H1215 H 0.1403 0.12422 0.34378 0.0
H1216 H 0.07404 0.19452 0.33016 0.0
H1217 H 0.06132 0.2211 0.29244 0.0
C1218 C 0.38779 0.87261 0.74223 0.0
C1219 C 0.37521 0.87384 0.77957 0.0
C1220 C 0.41297 0.81908 0.79267 0.0
C1221 C 0.41976 0.81385 0.75435 0.0
N1222 N 0.41259 0.83621 0.69194 0.0
N1223 N 0.37657 0.84841 0.8407 0.0
C1224 C 0.40766 0.84118 0.72901 0.0
C1225 C 0.38805 0.84706 0.80486 0.0
N1226 N 0.38024 0.90106 0.71881 0.0
N1227 N 0.432 0.79829 0.81758 0.0
H1228 H 0.36137 0.87036 0.8514 0.0
H1229 H 0.38076 0.82708 0.85935 0.0
H1230 H 0.45227 0.77956 0.80948 0.0
H1231 H 0.43099 0.80253 0.84595 0.0
H1232 H 0.39341 0.90453 0.69354 0.0
H1233 H 0.36272 0.9228 0.72515 0.0
H1234 H 0.39997 0.85243 0.67198 0.0
H1235 H 0.42663 0.81413 0.6803 0.0
C1236 C 0.62202 0.37804 0.76576 0.0
C1237 C 0.63376 0.37902 0.72819 0.0
C1238 C 0.59429 0.32514 0.71598 0.0
C1239 C 0.58858 0.32036 0.75451 0.0
N1240 N 0.60345 0.33953 0.81662 0.0
N1241 N 0.63024 0.35341 0.66707 0.0
C1242 C 0.60362 0.34635 0.77955 0.0
C1243 C 0.6197 0.3524 0.70318 0.0
N1244 N 0.62897 0.40684 0.78898 0.0
N1245 N 0.57417 0.30464 0.69155 0.0
H1246 H 0.64562 0.37502 0.65611 0.0
H1247 H 0.62498 0.3322 0.64845 0.0
H1248 H 0.55404 0.28589 0.69993 0.0
H1249 H 0.57453 0.3089 0.6632 0.0
H1250 H 0.61635 0.40951 0.81468 0.0
H1251 H 0.64595 0.42881 0.78236 0.0
H1252 H 0.61779 0.35562 0.83563 0.0
H1253 H 0.59259 0.31578 0.82836 0.0
C1254 C 0.88862 0.65646 0.19747 0.0
C1255 C 0.87672 0.62932 0.22284 0.0
C1256 C 0.91908 0.65528 0.26994 0.0
C1257 C 0.92714 0.68503 0.24589 0.0
N1258 N 0.93275 0.70466 0.18305 0.0
N1259 N 0.88518 0.59895 0.28168 0.0
C1260 C 0.91572 0.68277 0.20846 0.0
C1261 C 0.89366 0.62734 0.25846 0.0
N1262 N 0.87415 0.65701 0.16272 0.0
N1263 N 0.93483 0.65409 0.30412 0.0
H1264 H 0.86321 0.58108 0.27758 0.0
H1265 H 0.90014 0.5922 0.30514 0.0
H1266 H 0.9582 0.66906 0.3112 0.0
H1267 H 0.9258 0.63744 0.32554 0.0
H1268 H 0.87754 0.67882 0.1445 0.0
H1269 H 0.85761 0.6359 0.15242 0.0
H1270 H 0.92828 0.70295 0.15478 0.0
H1271 H 0.9548 0.72171 0.19017 0.0
C1272 C 0.24036 0.12289 0.18573 0.0
C1273 C 0.25155 0.08557 0.18883 0.0
C1274 C 0.29132 0.09345 0.1342 0.0
C1275 C 0.27783 0.12999 0.13011 0.0
N1276 N 0.22981 0.17366 0.14503 0.0
N1277 N 0.28457 0.03366 0.16398 0.0
C1278 C 0.24967 0.14304 0.15393 0.0
C1279 C 0.27596 0.07022 0.16222 0.0
N1280 N 0.2214 0.13979 0.21353 0.0
N1281 N 0.31948 0.08148 0.11213 0.0
H1282 H 0.27439 0.01651 0.18465 0.0
H1283 H 0.29958 0.01979 0.14379 0.0
H1284 H 0.33109 0.0979 0.09161 0.0
H1285 H 0.33302 0.05646 0.11565 0.0
H1286 H 0.21679 0.16811 0.21453 0.0
H1287 H 0.21282 0.12615 0.23701 0.0
H1288 H 0.20635 0.18223 0.15937 0.0
H1289 H 0.23397 0.18776 0.12064 0.0
C1290 C 0.27036 0.8734 0.68755 0.0
C1291 C 0.26413 0.91186 0.68789 0.0
C1292 C 0.22852 0.90593 0.63005 0.0
C1293 C 0.23352 0.86693 0.63081 0.0
N1294 N 0.26283 0.81447 0.6615 0.0
N1295 N 0.23494 0.96505 0.66174 0.0
C1296 C 0.2548 0.85104 0.65985 0.0
C1297 C 0.24293 0.92835 0.65944 0.0
N1298 N 0.29177 0.85755 0.71419 0.0
N1299 N 0.20983 0.92148 0.6013 0.0
H1300 H 0.2459 0.98195 0.6823 0.0
H1301 H 0.21644 0.97859 0.64454 0.0
H1302 H 0.19615 0.90596 0.58133 0.0
H1303 H 0.20868 0.94965 0.59641 0.0
H1304 H 0.29526 0.82917 0.71677 0.0
H1305 H 0.30675 0.87286 0.73322 0.0
H1306 H 0.2559 0.79495 0.6417 0.0
H1307 H 0.2559 0.79495 0.6417 0.0
C1308 C 0.79034 0.42394 0.83095 0.0
C1309 C 0.75443 0.41704 0.81652 0.0
C1310 C 0.74155 0.377 0.86876 0.0
C1311 C 0.77906 0.37912 0.88048 0.0
N1312 N 0.84039 0.40267 0.87046 0.0
N1313 N 0.70223 0.37615 0.81539 0.0
C1314 C 0.80395 0.40199 0.86079 0.0
C1315 C 0.7317 0.39069 0.83373 0.0
N1316 N 0.81103 0.45183 0.81659 0.0
N1317 N 0.71491 0.36201 0.89067 0.0
H1318 H 0.69659 0.38268 0.78804 0.0
H1319 H 0.68689 0.35412 0.82554 0.0
H1320 H 0.71988 0.35277 0.91719 0.0
H1321 H 0.68692 0.36262 0.8838 0.0
H1322 H 0.83617 0.46029 0.82766 0.0
H1323 H 0.80124 0.46867 0.7955 0.0
H1324 H 0.86063 0.41583 0.85492 0.0
H1325 H 0.85064 0.3881 0.89301 0.0
C1326 C 0.73996 0.57497 0.34379 0.0
C1327 C 0.76402 0.59195 0.31808 0.0
C1328 C 0.75226 0.65207 0.34651 0.0
C1329 C 0.72988 0.6351 0.37408 0.0
N1330 N 0.70634 0.57952 0.40169 0.0
N1331 N 0.80017 0.64448 0.30059 0.0
C1332 C 0.72516 0.59617 0.37368 0.0
C1333 C 0.77237 0.62979 0.32139 0.0
N1334 N 0.7301 0.53903 0.33873 0.0
N1335 N 0.75404 0.68953 0.34337 0.0
H1336 H 0.81503 0.629 0.28147 0.0
H1337 H 0.81104 0.67069 0.30491 0.0
H1338 H 0.74059 0.70788 0.36064 0.0
H1339 H 0.7663 0.70279 0.3211 0.0
H1340 H 0.7094 0.52604 0.35379 0.0
H1341 H 0.74147 0.52268 0.31792 0.0
H1342 H 0.7055 0.55112 0.40532 0.0
H1343 H 0.69292 0.59429 0.42245 0.0
C1344 C 0.15998 0.2587 0.07111 0.0
C1345 C 0.19494 0.25574 0.08908 0.0
C1346 C 0.17179 0.2988 0.13603 0.0
C1347 C 0.13508 0.29286 0.12501 0.0
N1348 N 0.09457 0.27361 0.07575 0.0
N1349 N 0.22962 0.26854 0.14528 0.0
C1350 C 0.12917 0.27454 0.09061 0.0
C1351 C 0.19968 0.27471 0.12333 0.0
N1352 N 0.15663 0.24889 0.0349 0.0
N1353 N 0.18052 0.32845 0.15727 0.0
H1354 H 0.2487 0.24779 0.14019 0.0
H1355 H 0.23231 0.28064 0.17126 0.0
H1356 H 0.1611 0.34901 0.16279 0.0
H1357 H 0.20772 0.33494 0.16426 0.0
H1358 H 0.13285 0.2534 0.01943 0.0
H1359 H 0.1788 0.23983 0.01897 0.0
H1360 H 0.08711 0.25611 0.05423 0.0
H1361 H 0.07344 0.29091 0.08489 0.0
C1362 C 0.69375 0.26569 0.86743 0.0
C1363 C 0.6945 0.26009 0.90618 0.0
C1364 C 0.63875 0.22134 0.90122 0.0
C1365 C 0.63659 0.22925 0.86301 0.0
N1366 N 0.65819 0.26526 0.81136 0.0
N1367 N 0.66601 0.23529 0.96082 0.0
C1368 C 0.66325 0.25282 0.84648 0.0
C1369 C 0.66635 0.23883 0.92336 0.0
N1370 N 0.72223 0.28355 0.85029 0.0
N1371 N 0.61498 0.19613 0.91602 0.0
H1372 H 0.68655 0.24619 0.97764 0.0
H1373 H 0.64431 0.22368 0.97557 0.0
H1374 H 0.59491 0.18265 0.90036 0.0
H1375 H 0.61692 0.18619 0.94281 0.0
H1376 H 0.72615 0.28328 0.82185 0.0
H1377 H 0.74317 0.29729 0.86434 0.0
H1378 H 0.6734 0.2866 0.79972 0.0
H1379 H 0.63669 0.25663 0.79464 0.0
C1380 C 0.84238 0.72117 0.3916 0.0
C1381 C 0.81851 0.74672 0.40915 0.0
C1382 C 0.85322 0.79802 0.38143 0.0
C1383 C 0.87792 0.77244 0.36502 0.0
N1384 N 0.90085 0.70992 0.3617 0.0
N1385 N 0.80584 0.80925 0.42759 0.0
C1386 C 0.87414 0.73417 0.3726 0.0
C1387 C 0.82526 0.78515 0.40598 0.0
N1388 N 0.8335 0.68458 0.39081 0.0
N1389 N 0.85651 0.83462 0.37356 0.0
H1390 H 0.78605 0.80069 0.44666 0.0
H1391 H 0.81164 0.83726 0.42927 0.0
H1392 H 0.87842 0.84523 0.35823 0.0
H1393 H 0.83673 0.85419 0.38073 0.0
H1394 H 0.84713 0.66543 0.37425 0.0
H1395 H 0.81043 0.67364 0.40401 0.0
H1396 H 0.902 0.68289 0.37112 0.0
H1397 H 0.92364 0.71734 0.34597 0.0
C1398 C 0.36418 0.7049 0.60732 0.0
C1399 C 0.3721 0.72388 0.64062 0.0
C1400 C 0.3367 0.77697 0.61852 0.0
C1401 C 0.32356 0.75601 0.58857 0.0
N1402 N 0.32495 0.70018 0.553 0.0
N1403 N 0.35862 0.77503 0.68106 0.0
C1404 C 0.33747 0.71992 0.58248 0.0
C1405 C 0.35638 0.75912 0.64707 0.0
N1406 N 0.3822 0.67277 0.59951 0.0
N1407 N 0.33066 0.81404 0.61962 0.0
H1408 H 0.37117 0.76229 0.7034 0.0
H1409 H 0.34463 0.79913 0.68792 0.0
H1410 H 0.31643 0.82795 0.5989 0.0
H1411 H 0.34248 0.83123 0.63939 0.0
H1412 H 0.38039 0.65929 0.57423 0.0
H1413 H 0.40063 0.66055 0.61791 0.0
H1414 H 0.3304 0.67231 0.54901 0.0
H1415 H 0.30818 0.71198 0.53284 0.0
C1416 C 0.90085 0.87645 0.71878 0.0
C1417 C 0.86169 0.87347 0.72137 0.0
C1418 C 0.86871 0.81649 0.75766 0.0
C1419 C 0.90764 0.81878 0.75391 0.0
N1420 N 0.96129 0.8489 0.72901 0.0
N1421 N 0.80818 0.84006 0.74325 0.0
C1422 C 0.9239 0.8484 0.73421 0.0
C1423 C 0.84565 0.84289 0.74012 0.0
N1424 N 0.91597 0.9064 0.7017 0.0
N1425 N 0.85389 0.79029 0.78041 0.0
H1426 H 0.79056 0.86228 0.74014 0.0
H1427 H 0.79429 0.81582 0.74948 0.0
H1428 H 0.86988 0.7731 0.79692 0.0
H1429 H 0.82588 0.78665 0.78528 0.0
H1430 H 0.94384 0.91329 0.70293 0.0
H1431 H 0.90025 0.92531 0.68686 0.0
H1432 H 0.9749 0.86677 0.71126 0.0
H1433 H 0.97896 0.83018 0.74159 0.0
C1434 C 0.60571 0.12668 0.24529 0.0
C1435 C 0.63341 0.13189 0.21804 0.0
C1436 C 0.63465 0.19766 0.23297 0.0
C1437 C 0.6077 0.19258 0.26135 0.0
N1438 N 0.58076 0.14826 0.30309 0.0
N1439 N 0.65863 0.17495 0.17499 0.0
C1440 C 0.59665 0.15597 0.26987 0.0
C1441 C 0.6432 0.16822 0.20857 0.0
N1442 N 0.58594 0.09472 0.24604 0.0
N1443 N 0.65523 0.2291 0.23145 0.0
H1444 H 0.66185 0.15416 0.15532 0.0
H1445 H 0.66339 0.20145 0.1651 0.0
H1446 H 0.65536 0.24857 0.25251 0.0
H1447 H 0.67681 0.23271 0.21276 0.0
H1448 H 0.56354 0.0906 0.26362 0.0
H1449 H 0.58803 0.07499 0.22522 0.0
H1450 H 0.57493 0.12152 0.31165 0.0
H1451 H 0.57926 0.16746 0.3244 0.0
C1452 C 0.42023 0.67168 0.28207 0.0
C1453 C 0.42325 0.67949 0.24388 0.0
C1454 C 0.38476 0.6256 0.2299 0.0
C1455 C 0.37719 0.6213 0.26836 0.0
N1456 N 0.3885 0.63936 0.33126 0.0
N1457 N 0.4107 0.66252 0.18068 0.0
C1458 C 0.39522 0.6441 0.29451 0.0
C1459 C 0.40705 0.65546 0.21755 0.0
N1460 N 0.44289 0.6897 0.3062 0.0
N1461 N 0.36981 0.60174 0.20481 0.0
H1462 H 0.42723 0.68322 0.1699 0.0
H1463 H 0.39571 0.64936 0.16009 0.0
H1464 H 0.3486 0.58357 0.21087 0.0
H1465 H 0.37916 0.59885 0.17785 0.0
H1466 H 0.44461 0.68379 0.33418 0.0
H1467 H 0.46313 0.708 0.29717 0.0
H1468 H 0.39685 0.65789 0.35151 0.0
H1469 H 0.37314 0.6174 0.34154 0.0
C1470 C 0.10982 0.33707 0.71456 0.0
C1471 C 0.09111 0.31361 0.73942 0.0
C1472 C 0.11398 0.35002 0.79188 0.0
C1473 C 0.13169 0.37429 0.76699 0.0
N1474 N 0.14043 0.3951 0.70412 0.0
N1475 N 0.06797 0.30227 0.80065 0.0
C1476 C 0.12746 0.36929 0.72819 0.0
C1477 C 0.09104 0.32142 0.77782 0.0
N1478 N 0.11277 0.32748 0.67818 0.0
N1479 N 0.11937 0.35408 0.82895 0.0
H1480 H 0.05009 0.28184 0.79113 0.0
H1481 H 0.06387 0.3089 0.82828 0.0
H1482 H 0.13411 0.37601 0.84032 0.0
H1483 H 0.11101 0.33468 0.84831 0.0
H1484 H 0.13024 0.34071 0.65966 0.0
H1485 H 0.10013 0.30433 0.66683 0.0
H1486 H 0.13404 0.39518 0.67614 0.0
H1487 H 0.15511 0.41828 0.71213 0.0
C1488 C 0.70574 0.89217 0.8607 0.0
C1489 C 0.72579 0.85955 0.86857 0.0
C1490 C 0.77533 0.8795 0.82718 0.0
C1491 C 0.75321 0.90918 0.81534 0.0
N1492 N 0.69614 0.9432 0.8185 0.0
N1493 N 0.77591 0.81842 0.85265 0.0
C1494 C 0.718 0.91546 0.83152 0.0
C1495 C 0.75949 0.85212 0.84989 0.0
N1496 N 0.67511 0.90076 0.881 0.0
N1497 N 0.81166 0.87763 0.81708 0.0
H1498 H 0.7652 0.79699 0.86823 0.0
H1499 H 0.79866 0.81068 0.83694 0.0
H1500 H 0.82425 0.89746 0.80058 0.0
H1501 H 0.83005 0.85836 0.82781 0.0
H1502 H 0.66142 0.92591 0.87919 0.0
H1503 H 0.6646 0.88338 0.90131 0.0
H1504 H 0.66867 0.94683 0.82625 0.0
H1505 H 0.70509 0.96161 0.79837 0.0
C1506 C 0.72242 0.10802 0.33289 0.0
C1507 C 0.74819 0.09071 0.30895 0.0
C1508 C 0.7994 0.12025 0.34332 0.0
C1509 C 0.7737 0.13516 0.36873 0.0
N1510 N 0.7106 0.13802 0.39116 0.0
N1511 N 0.81187 0.0768 0.29421 0.0
C1512 C 0.73528 0.12704 0.36481 0.0
C1513 C 0.78688 0.0959 0.31502 0.0
N1514 N 0.68577 0.1093 0.32361 0.0
N1515 N 0.83591 0.12963 0.34599 0.0
H1516 H 0.80425 0.0599 0.27242 0.0
H1517 H 0.84 0.07552 0.30006 0.0
H1518 H 0.8466 0.1449 0.3679 0.0
H1519 H 0.85534 0.12409 0.32555 0.0
H1520 H 0.66651 0.12566 0.33736 0.0
H1521 H 0.67495 0.09725 0.2999 0.0
H1522 H 0.68346 0.1285 0.3922 0.0
H1523 H 0.71744 0.1547 0.41341 0.0
C1524 C 0.24349 0.65529 0.16371 0.0
C1525 C 0.22166 0.63944 0.13492 0.0
C1526 C 0.23411 0.57752 0.15993 0.0
C1527 C 0.25374 0.5935 0.1898 0.0
N1528 N 0.27648 0.64756 0.2212 0.0
N1529 N 0.19027 0.58648 0.11006 0.0
C1530 C 0.25777 0.6324 0.19212 0.0
C1531 C 0.21551 0.60077 0.1342 0.0
N1532 N 0.25314 0.69175 0.16277 0.0
N1533 N 0.23327 0.54012 0.15603 0.0
H1534 H 0.17494 0.60281 0.09206 0.0
H1535 H 0.18165 0.55917 0.11033 0.0
H1536 H 0.24565 0.52225 0.17471 0.0
H1537 H 0.22295 0.5268 0.13279 0.0
H1538 H 0.27116 0.70425 0.18122 0.0
H1539 H 0.24682 0.70971 0.14156 0.0
H1540 H 0.27449 0.67508 0.22896 0.0
H1541 H 0.29333 0.63231 0.23869 0.0
C1542 C 0.25903 0.3733 0.6903 0.0
C1543 C 0.25026 0.41117 0.68645 0.0
C1544 C 0.27644 0.40799 0.62351 0.0
C1545 C 0.28775 0.37072 0.62987 0.0
N1546 N 0.30814 0.3308 0.67876 0.0
N1547 N 0.25725 0.46655 0.65055 0.0
C1548 C 0.28464 0.35709 0.66607 0.0
C1549 C 0.26056 0.42923 0.65319 0.0
N1550 N 0.24276 0.35234 0.7169 0.0
N1551 N 0.28236 0.4237 0.58992 0.0
H1552 H 0.24633 0.48279 0.6716 0.0
H1553 H 0.26776 0.48175 0.62865 0.0
H1554 H 0.29995 0.41215 0.57029 0.0
H1555 H 0.2701 0.44832 0.58181 0.0
H1556 H 0.2478 0.32413 0.71911 0.0
H1557 H 0.22114 0.36217 0.73323 0.0
H1558 H 0.30749 0.32178 0.70604 0.0
H1559 H 0.33161 0.32307 0.66396 0.0
C1560 C 0.87701 0.77088 0.88331 0.0
C1561 C 0.88291 0.73287 0.87456 0.0
C1562 C 0.83076 0.7167 0.91513 0.0
C1563 C 0.82163 0.7546 0.9194 0.0
N1564 N 0.83621 0.81835 0.90677 0.0
N1565 N 0.86543 0.66947 0.88246 0.0
C1566 C 0.84532 0.78184 0.90412 0.0
C1567 C 0.85973 0.70578 0.89059 0.0
N1568 N 0.90105 0.79708 0.87088 0.0
N1569 N 0.81271 0.69123 0.93613 0.0
H1570 H 0.88832 0.66016 0.86765 0.0
H1571 H 0.84676 0.6487 0.88899 0.0
H1572 H 0.79301 0.69866 0.95576 0.0
H1573 H 0.81982 0.66349 0.93712 0.0
H1574 H 0.90273 0.82348 0.88198 0.0
H1575 H 0.92051 0.79258 0.85039 0.0
H1576 H 0.84923 0.83913 0.892 0.0
H1577 H 0.81361 0.82847 0.92124 0.0
C1578 C 0.32946 0.71864 0.11531 0.0
C1579 C 0.317 0.73952 0.08498 0.0
C1580 C 0.36305 0.78736 0.10052 0.0
C1581 C 0.37093 0.76899 0.13414 0.0
N1582 N 0.35478 0.72044 0.17669 0.0
N1583 N 0.32114 0.79447 0.04847 0.0
C1584 C 0.35225 0.73554 0.14239 0.0
C1585 C 0.33372 0.77412 0.07744 0.0
N1586 N 0.31973 0.68247 0.11827 0.0
N1587 N 0.38339 0.81744 0.09077 0.0
H1588 H 0.30178 0.78424 0.02978 0.0
H1589 H 0.32882 0.82167 0.04375 0.0
H1590 H 0.40379 0.82858 0.10777 0.0
H1591 H 0.3816 0.82999 0.06507 0.0
H1592 H 0.33079 0.66495 0.13812 0.0
H1593 H 0.30308 0.66921 0.09893 0.0
H1594 H 0.3387 0.69825 0.18518 0.0
H1595 H 0.3705 0.73184 0.19776 0.0
C1596 C 0.16332 0.23197 0.56979 0.0
C1597 C 0.18748 0.25821 0.58595 0.0
C1598 C 0.15837 0.24788 0.64621 0.0
C1599 C 0.13217 0.22325 0.62994 0.0
N1600 N 0.10703 0.19568 0.57489 0.0
N1601 N 0.20155 0.29807 0.63684 0.0
C1602 C 0.13371 0.21671 0.5912 0.0
C1603 C 0.18281 0.26828 0.62331 0.0
N1604 N 0.1696 0.22059 0.53445 0.0
N1605 N 0.1608 0.25163 0.68361 0.0
H1606 H 0.2192 0.31388 0.62055 0.0
H1607 H 0.19656 0.30955 0.6627 0.0
H1608 H 0.14402 0.238 0.70222 0.0
H1609 H 0.18211 0.26584 0.69665 0.0
H1610 H 0.15601 0.19845 0.52225 0.0
H1611 H 0.18999 0.23233 0.51788 0.0
H1612 H 0.10403 0.19324 0.54645 0.0
H1613 H 0.08667 0.18198 0.58989 0.0
C1614 C 0.63131 0.28655 0.41191 0.0
C1615 C 0.63313 0.28897 0.37273 0.0
C1616 C 0.68938 0.25145 0.37348 0.0
C1617 C 0.68999 0.25229 0.41243 0.0
N1618 N 0.66428 0.27509 0.46925 0.0
N1619 N 0.67218 0.28291 0.31815 0.0
C1620 C 0.66161 0.27099 0.43194 0.0
C1621 C 0.66465 0.27445 0.35408 0.0
N1622 N 0.60074 0.29934 0.42996 0.0
N1623 N 0.71209 0.22784 0.35471 0.0
H1624 H 0.65716 0.30119 0.30221 0.0
H1625 H 0.69686 0.27542 0.30531 0.0
H1626 H 0.73022 0.20998 0.36795 0.0
H1627 H 0.7098 0.22303 0.32646 0.0
H1628 H 0.59564 0.29444 0.45776 0.0
H1629 H 0.57975 0.31382 0.41662 0.0
H1630 H 0.64664 0.29179 0.48464 0.0
H1631 H 0.68574 0.26356 0.48456 0.0
C1632 C 0.90188 0.26423 0.07788 0.0
C1633 C 0.93897 0.27411 0.07248 0.0
C1634 C 0.91991 0.31612 0.02283 0.0
C1635 C 0.88222 0.30864 0.03083 0.0
N1636 N 0.83839 0.2825 0.0741 0.0
N1637 N 0.98326 0.31521 0.04503 0.0
C1638 C 0.87357 0.28518 0.06113 0.0
C1639 C 0.94811 0.30169 0.04633 0.0
N1640 N 0.89385 0.23435 0.09917 0.0
N1641 N 0.92874 0.33683 0.99276 0.0
H1642 H 0.00413 0.30596 0.06249 0.0
H1643 H 0.99083 0.33771 0.029 0.0
H1644 H 0.90872 0.34962 0.97652 0.0
H1645 H 0.95567 0.33978 0.98305 0.0
H1646 H 0.86717 0.22529 0.10449 0.0
H1647 H 0.91436 0.21741 0.11014 0.0
H1648 H 0.83141 0.26934 0.09858 0.0
H1649 H 0.8166 0.29653 0.06259 0.0
C1650 C 0.63324 0.71987 0.56027 0.0
C1651 C 0.62371 0.70229 0.52618 0.0
C1652 C 0.55825 0.70501 0.54497 0.0
C1653 C 0.56827 0.72569 0.57661 0.0
N1654 N 0.61374 0.75877 0.61101 0.0
N1655 N 0.57618 0.68081 0.48495 0.0
C1656 C 0.60533 0.73478 0.58314 0.0
C1657 C 0.5858 0.69573 0.51816 0.0
N1658 N 0.66904 0.72303 0.57102 0.0
N1659 N 0.52261 0.69329 0.54133 0.0
H1660 H 0.5957 0.6716 0.46586 0.0
H1661 H 0.54903 0.67909 0.47564 0.0
H1662 H 0.5022 0.69986 0.56058 0.0
H1663 H 0.51389 0.67511 0.5209 0.0
H1664 H 0.67727 0.7302 0.59757 0.0
H1665 H 0.69067 0.71601 0.55421 0.0
H1666 H 0.64006 0.76929 0.6157 0.0
H1667 H 0.59362 0.77086 0.62772 0.0
C1668 C 0.40054 0.17174 0.95732 0.0
C1669 C 0.39517 0.18878 0.99214 0.0
C1670 C 0.435 0.23972 0.97324 0.0
C1671 C 0.44052 0.22358 0.93819 0.0
N1672 N 0.43848 0.16756 0.90231 0.0
N1673 N 0.42706 0.2258 0.03746 0.0
C1674 C 0.42598 0.18759 0.93156 0.0
C1675 C 0.41852 0.21874 1.00157 0.0
N1676 N 0.38278 0.13958 0.94968 0.0
N1677 N 0.44493 0.27537 0.97953 0.0
H1678 H 0.41993 0.20762 0.05847 0.0
H1679 H 0.44589 0.24612 0.04519 0.0
H1680 H 0.45509 0.29234 0.95871 0.0
H1681 H 0.43901 0.28886 0.00427 0.0
H1682 H 0.38171 0.12782 0.92349 0.0
H1683 H 0.36897 0.12484 0.97009 0.0
H1684 H 0.43129 0.14027 0.89731 0.0
H1685 H 0.45928 0.17709 0.88517 0.0
C1686 C 0.11866 0.75892 0.47111 0.0
C1687 C 0.12297 0.79605 0.48381 0.0
C1688 C 0.07744 0.8151 0.43702 0.0
C1689 C 0.07746 0.77889 0.42209 0.0
N1690 N 0.10588 0.71953 0.4188 0.0
N1691 N 0.10861 0.86027 0.47563 0.0
C1692 C 0.1006 0.75192 0.43728 0.0
C1693 C 0.1032 0.82448 0.46552 0.0
N1694 N 0.13074 0.72983 0.4914 0.0
N1695 N 0.05173 0.83991 0.42525 0.0
H1696 H 0.12524 0.86773 0.4979 0.0
H1697 H 0.09808 0.88243 0.46081 0.0
H1698 H 0.03205 0.83347 0.40529 0.0
H1699 H 0.04797 0.86567 0.43734 0.0
H1700 H 0.12542 0.70251 0.48438 0.0
H1701 H 0.14144 0.7325 0.51753 0.0
H1702 H 0.12561 0.70011 0.42652 0.0
H1703 H 0.09354 0.71413 0.39336 0.0
C1704 C 0.04882 0.91747 0.24187 0.0
C1705 C 0.0699 0.93628 0.26863 0.0
C1706 C 0.029 0.91214 0.31704 0.0
C1707 C 0.00658 0.89503 0.28982 0.0
N1708 N 0.98912 0.89396 0.22493 0.0
N1709 N 0.07281 0.96087 0.33032 0.0
C1710 C 0.01429 0.90191 0.25182 0.0
C1711 C 0.05795 0.93637 0.30595 0.0
N1712 N 0.06267 0.91285 0.20715 0.0
N1713 N 0.02271 0.90522 0.35345 0.0
H1714 H 0.09213 0.98063 0.32247 0.0
H1715 H 0.06313 0.96416 0.35717 0.0
H1716 H 1.00012 0.88986 0.36253 0.0
H1717 H 0.04085 0.91332 0.37424 0.0
H1718 H 0.05025 0.89594 0.18749 0.0
H1719 H 0.08879 0.92226 0.19952 0.0
H1720 H 0.9931 0.90111 0.19742 0.0
H1721 H 0.96236 0.88514 0.23003 0.0
C1722 C 0.44275 0.13719 0.80179 0.0
C1723 C 0.47921 0.12635 0.8126 0.0
C1724 C 0.46195 0.0619 0.79987 0.0
C1725 C 0.42821 0.07397 0.7841 0.0
N1726 N 0.38903 0.12324 0.76448 0.0
N1727 N 0.52382 0.07779 0.82059 0.0
C1728 C 0.41943 0.11166 0.78359 0.0
C1729 C 0.48884 0.08841 0.81128 0.0
N1730 N 0.43003 0.17187 0.80834 0.0
N1731 N 0.46766 0.02513 0.80501 0.0
H1732 H 0.54315 0.09606 0.83162 0.0
H1733 H 0.53406 0.05138 0.81602 0.0
H1734 H 0.44822 0.00537 0.79731 0.0
H1735 H 0.49005 0.01448 0.81949 0.0
H1736 H 0.40254 0.17965 0.80493 0.0
H1737 H 0.44557 0.19201 0.82084 0.0
H1738 H 0.38284 0.15081 0.75967 0.0
H1739 H 0.3717 0.10514 0.75035 0.0
C1740 C 0.55231 0.58407 0.76131 0.0
C1741 C 0.57277 0.56524 0.73407 0.0
C1742 C 0.52905 0.5876 0.68698 0.0
C1743 C 0.50767 0.60533 0.71473 0.0
N1744 N 0.49608 0.61026 0.78136 0.0
N1745 N 0.57358 0.53956 0.67278 0.0
C1746 C 0.51779 0.59991 0.75251 0.0
C1747 C 0.55924 0.56432 0.69726 0.0
N1748 N 0.56603 0.58743 0.79622 0.0
N1749 N 0.52049 0.59292 0.65075 0.0
H1750 H 0.5937 0.52042 0.68015 0.0
H1751 H 0.56283 0.53539 0.64648 0.0
H1752 H 0.49701 0.60739 0.64244 0.0
H1753 H 0.5376 0.58451 0.62922 0.0
H1754 H 0.55191 0.60137 0.81714 0.0
H1755 H 0.59259 0.57886 0.80335 0.0
H1756 H 0.46911 0.61992 0.7793 0.0
H1757 H 0.46911 0.61992 0.7793 0.0
C1758 C 0.99385 0.42047 0.20188 0.0
C1759 C 0.98511 0.38253 0.20596 0.0
C1760 C 0.92486 0.39971 0.23337 0.0
C1761 C 0.93287 0.437 0.22746 0.0
N1762 N 0.97181 0.48397 0.20232 0.0
N1763 N 0.94035 0.33655 0.22416 0.0
C1764 C 0.96661 0.44775 0.21076 0.0
C1765 C 0.94978 0.37247 0.22069 0.0
N1766 N 0.02817 0.43037 0.18975 0.0
N1767 N 0.89371 0.39053 0.25274 0.0
H1768 H 0.95984 0.31616 0.22293 0.0
H1769 H 0.91351 0.32692 0.22773 0.0
H1770 H 0.87572 0.41007 0.26382 0.0
H1771 H 0.88657 0.36393 0.2604 0.0
H1772 H 0.03791 0.45731 0.18993 0.0
H1773 H 0.04775 0.41121 0.18087 0.0
H1774 H 0.99404 0.49376 0.18704 0.0
H1775 H 0.95225 0.50412 0.20873 0.0
C1776 C 0.23813 0.04471 0.91823 0.0
C1777 C 0.26402 0.06326 0.94046 0.0
C1778 C 0.31305 0.02198 0.91787 0.0
C1779 C 0.28662 0.00218 0.89682 0.0
N1780 N 0.22132 0.98818 0.88795 0.0
N1781 N 0.32372 0.06306 0.96963 0.0
C1782 C 0.24831 0.01127 0.90057 0.0
C1783 C 0.30089 0.05001 0.9427 0.0
N1784 N 0.20402 0.05987 0.91288 0.0
N1785 N 0.34973 0.01398 0.91419 0.0
H1786 H 0.31514 0.08256 0.98897 0.0
H1787 H 0.34982 0.05217 0.97486 0.0
H1788 H 0.35922 0.99191 0.89831 0.0
H1789 H 0.37058 0.03028 0.92538 0.0
H1790 H 0.1853 0.04997 0.89342 0.0
H1791 H 0.19606 0.08465 0.92516 0.0
H1792 H 0.19331 0.99274 0.8928 0.0
H1793 H 0.22628 0.96224 0.87703 0.0
C1794 C 0.73382 0.45972 0.08868 0.0
C1795 C 0.75887 0.44038 0.06613 0.0
C1796 C 0.80962 0.47959 0.08869 0.0
C1797 C 0.78403 0.50033 0.10996 0.0
N1798 N 0.71937 0.51619 0.12028 0.0
N1799 N 0.81903 0.43657 0.0381 0.0
C1800 C 0.7454 0.49245 0.10681 0.0
C1801 C 0.79641 0.45167 0.06422 0.0
N1802 N 0.69914 0.4459 0.09394 0.0
N1803 N 0.84654 0.48663 0.09186 0.0
H1804 H 0.80987 0.41688 0.01926 0.0
H1805 H 0.84576 0.44579 0.03295 0.0
H1806 H 0.85675 0.50874 0.10719 0.0
H1807 H 0.86695 0.4697 0.08073 0.0
H1808 H 0.68094 0.45611 0.11375 0.0
H1809 H 0.69005 0.42185 0.08105 0.0
H1810 H 0.69115 0.51281 0.1157 0.0
H1811 H 0.72534 0.54159 0.13189 0.0
C1812 C 0.70369 0.56188 0.56859 0.0
C1813 C 0.74192 0.57075 0.56702 0.0
C1814 C 0.75556 0.51734 0.60559 0.0
C1815 C 0.71693 0.51191 0.61247 0.0
N1816 N 0.65414 0.53123 0.60167 0.0
N1817 N 0.80313 0.56165 0.59028 0.0
C1818 C 0.69097 0.535 0.59437 0.0
C1819 C 0.76746 0.54976 0.58731 0.0
N1820 N 0.67981 0.57792 0.54436 0.0
N1821 N 0.78127 0.49168 0.61555 0.0
H1822 H 0.81244 0.58569 0.57766 0.0
H1823 H 0.82213 0.54997 0.6084 0.0
H1824 H 0.77507 0.46622 0.62672 0.0
H1825 H 0.80903 0.49361 0.60814 0.0
H1826 H 0.6522 0.57026 0.54186 0.0
H1827 H 0.68849 0.59645 0.52426 0.0
H1828 H 0.6343 0.55006 0.59291 0.0
H1829 H 0.6437 0.51011 0.61809 0.0
C1830 C 0.19857 0.94013 0.4343 0.0
C1831 C 0.2368 0.93128 0.43528 0.0
C1832 C 0.24996 0.98495 0.39746 0.0
C1833 C 0.2113 0.99009 0.39059 0.0
N1834 N 0.14868 0.97008 0.40123 0.0
N1835 N 0.29763 0.94028 0.41094 0.0
C1836 C 0.18553 0.96676 0.40855 0.0
C1837 C 0.26205 0.95225 0.41478 0.0
N1838 N 0.17507 0.92454 0.45916 0.0
N1839 N 0.27551 0.01116 0.38866 0.0
H1840 H 0.307 0.91582 0.42273 0.0
H1841 H 0.31634 0.95234 0.39275 0.0
H1842 H 0.26911 0.03722 0.37917 0.0
H1843 H 0.3033 0.00893 0.39588 0.0
H1844 H 0.14762 0.93269 0.4621 0.0
H1845 H 0.18403 0.90619 0.47931 0.0
H1846 H 0.12913 0.95104 0.41018 0.0
H1847 H 0.13801 0.99098 0.38467 0.0
C1848 C 0.09144 0.76845 0.95091 0.0
C1849 C 0.06938 0.74481 0.92961 0.0
C1850 C 0.09149 0.69204 0.96614 0.0
C1851 C 0.11088 0.71641 0.99002 0.0
N1852 N 0.11842 0.78059 0.00989 0.0
N1853 N 0.04246 0.68489 0.92091 0.0
C1854 C 0.10757 0.7554 0.98404 0.0
C1855 C 0.06777 0.70672 0.93826 0.0
N1856 N 0.09788 0.80343 0.93883 0.0
N1857 N 0.09543 0.6549 0.97022 0.0
H1858 H 0.02408 0.69502 0.90128 0.0
H1859 H 0.03743 0.65767 0.92827 0.0
H1860 H 0.10983 0.64318 0.99215 0.0
H1861 H 0.08582 0.63587 0.95097 0.0
H1862 H 0.11755 0.82071 0.95074 0.0
H1863 H 0.08654 0.81355 0.91444 0.0
H1864 H 0.11335 0.8087 0.00723 0.0
H1865 H 0.12768 0.77432 0.03608 0.0
C1866 C 0.43832 0.30503 0.44275 0.0
C1867 C 0.44623 0.26658 0.44066 0.0
C1868 C 0.41903 0.25982 0.50186 0.0
C1869 C 0.40149 0.29474 0.49905 0.0
N1870 N 0.4011 0.35406 0.46977 0.0
N1871 N 0.43942 0.20653 0.46771 0.0
C1872 C 0.41296 0.31844 0.47012 0.0
C1873 C 0.43519 0.24375 0.47012 0.0
N1874 N 0.457 0.32889 0.42053 0.0
N1875 N 0.42264 0.24301 0.53521 0.0
H1876 H 0.44955 0.1936 0.44408 0.0
H1877 H 0.42907 0.18866 0.48767 0.0
H1878 H 0.41677 0.25671 0.55983 0.0
H1879 H 0.43697 0.21833 0.53857 0.0
H1880 H 0.45468 0.35739 0.42244 0.0
H1881 H 0.47794 0.3203 0.40278 0.0
H1882 H 0.4048 0.37161 0.44742 0.0
H1883 H 0.38712 0.36583 0.49203 0.0
C1884 C 0.59036 0.81631 0.0245 0.0
C1885 C 0.61106 0.78864 0.00602 0.0
C1886 C 0.58945 0.74315 0.05101 0.0
C1887 C 0.56682 0.7699 0.06779 0.0
N1888 N 0.53827 0.8297 0.06465 0.0
N1889 N 0.61841 0.72262 0.99516 0.0
C1890 C 0.5651 0.80599 0.05291 0.0
C1891 C 0.60678 0.75108 0.01697 0.0
N1892 N 0.59454 0.85229 0.01467 0.0
N1893 N 0.59548 0.71039 0.06838 0.0
H1894 H 0.62849 0.7256 0.9686 0.0
H1895 H 0.61315 0.69515 1.00147 0.0
H1896 H 0.58416 0.70435 0.09411 0.0
H1897 H 0.61496 0.69123 0.05934 0.0
H1898 H 0.58301 0.87404 0.02948 0.0
H1899 H 0.61086 0.86035 0.99238 0.0
H1900 H 0.53355 0.8553 0.05271 0.0
H1901 H 0.51837 0.82225 0.08403 0.0
C1902 C 0.90781 0.17661 0.52967 0.0
C1903 C 0.89677 0.20097 0.50119 0.0
C1904 C 0.92752 0.25169 0.53321 0.0
C1905 C 0.93957 0.22781 0.56138 0.0
N1906 N 0.9525 0.16479 0.57814 0.0
N1907 N 0.91679 0.25522 0.46808 0.0
C1908 C 0.93293 0.18929 0.55744 0.0
C1909 C 0.91291 0.23661 0.50038 0.0
N1910 N 0.89549 0.14116 0.52943 0.0
N1911 N 0.92946 0.28889 0.53781 0.0
H1912 H 0.91291 0.24246 0.44264 0.0
H1913 H 0.93004 0.28066 0.46652 0.0
H1914 H 0.9382 0.30097 0.56242 0.0
H1915 H 0.9184 0.30724 0.51868 0.0
H1916 H 0.89916 0.12325 0.55151 0.0
H1917 H 0.88056 0.13027 0.50736 0.0
H1918 H 0.95087 0.13639 0.57453 0.0
H1919 H 0.97353 0.17296 0.59597 0.0
C1920 C 0.92723 0.10169 0.74419 0.0
C1921 C 0.93052 0.06438 0.73486 0.0
C1922 C 0.98524 0.07928 0.69709 0.0
C1923 C 0.97869 0.11746 0.70279 0.0
N1924 N 0.93537 0.16379 0.72435 0.0
N1925 N 0.9591 0.01759 0.69731 0.0
C1926 C 0.94711 0.12827 0.72388 0.0
C1927 C 0.95868 0.05299 0.70993 0.0
N1928 N 0.90456 0.11172 0.77258 0.0
N1929 N 0.01664 0.06814 0.67943 0.0
H1930 H 0.93962 0.99812 0.70549 0.0
H1931 H 0.97674 0.00846 0.67651 0.0
H1932 H 0.0354 0.08672 0.66803 0.0
H1933 H 0.02491 0.04071 0.6779 0.0
H1934 H 0.90089 0.13879 0.78115 0.0
H1935 H 0.89097 0.09242 0.78897 0.0
H1936 H 0.91031 0.17225 0.73572 0.0
H1937 H 0.94848 0.18412 0.70978 0.0
C1938 C 0.54786 0.91404 0.25781 0.0
C1939 C 0.56504 0.93658 0.23141 0.0
C1940 C 0.52533 0.90983 0.18323 0.0
C1941 C 0.50592 0.88937 0.21036 0.0
N1942 N 0.49263 0.88243 0.27606 0.0
N1943 N 0.56379 0.9631 0.17079 0.0
C1944 C 0.51507 0.89476 0.24844 0.0
C1945 C 0.55199 0.93654 0.19452 0.0
N1946 N 0.56367 0.91006 0.29172 0.0
N1947 N 0.5183 0.90391 0.14674 0.0
H1948 H 0.58204 0.98383 0.17881 0.0
H1949 H 0.55284 0.9666 0.14449 0.0
H1950 H 0.49724 0.88654 0.13758 0.0
H1951 H 0.5346 0.9148 0.12575 0.0
H1952 H 0.5549 0.89051 0.31078 0.0
H1953 H 0.58803 0.92353 0.29913 0.0
H1954 H 0.49725 0.88861 0.30373 0.0
H1955 H 0.46699 0.87042 0.27205 0.0
C1956 C 0.47377 0.41256 0.30828 0.0
C1957 C 0.46991 0.37416 0.30246 0.0
C1958 C 0.41585 0.3858 0.26282 0.0
C1959 C 0.41912 0.42374 0.26946 0.0
N1960 N 0.44402 0.47246 0.30708 0.0
N1961 N 0.43036 0.32438 0.28169 0.0
C1962 C 0.44601 0.43698 0.29478 0.0
C1963 C 0.43841 0.36088 0.28265 0.0
N1964 N 0.50413 0.42574 0.32631 0.0
N1965 N 0.39217 0.37364 0.23613 0.0
H1966 H 0.44721 0.30495 0.29341 0.0
H1967 H 0.40549 0.31365 0.27205 0.0
H1968 H 0.3771 0.39154 0.21947 0.0
H1969 H 0.38942 0.3462 0.22841 0.0
H1970 H 0.51075 0.45361 0.32762 0.0
H1971 H 0.52366 0.40846 0.33848 0.0
H1972 H 0.46082 0.4829 0.3279 0.0
H1973 H 0.42285 0.49029 0.29926 0.0
C1974 C 0.09149 0.61316 0.76957 0.0
C1975 C 0.08398 0.576 0.77662 0.0
C1976 C 0.0256 0.59295 0.80725 0.0
C1977 C 0.03347 0.63077 0.80103 0.0
N1978 N 0.07807 0.67648 0.78049 0.0
N1979 N 0.04868 0.52994 0.80812 0.0
C1980 C 0.06798 0.64067 0.78423 0.0
C1981 C 0.05232 0.56568 0.79717 0.0
N1982 N 0.12013 0.62203 0.7466 0.0
N1983 N 0.99258 0.58312 0.82259 0.0
H1984 H 0.06819 0.50982 0.8015 0.0
H1985 H 0.02821 0.52082 0.82605 0.0
H1986 H 0.97379 0.60236 0.83291 0.0
H1987 H 0.98315 0.5561 0.82385 0.0
H1988 H 0.12586 0.64853 0.73749 0.0
H1989 H 0.13674 0.60228 0.73385 0.0
H1990 H 0.10501 0.68509 0.77533 0.0
H1991 H 0.05996 0.6979 0.7839 0.0
C1992 C 0.68222 0.9347 0.07073 0.0
C1993 C 0.7207 0.93125 0.06275 0.0
C1994 C 0.7292 0.99301 0.08712 0.0
C1995 C 0.6946 0.99158 0.10539 0.0
N1996 N 0.63499 0.96267 0.10947 0.0
N1997 N 0.78192 0.95647 0.07017 0.0
C1998 C 0.67011 0.96258 0.09597 0.0
C1999 C 0.74455 0.9602 0.07315 0.0
N2000 N 0.65715 0.91384 0.05203 0.0
N2001 N 0.74629 0.02574 0.08062 0.0
H2002 H 0.79439 0.93175 0.06239 0.0
H2003 H 0.8001 0.97669 0.0796 0.0
H2004 H 0.73287 0.05084 0.08479 0.0
H2005 H 0.77086 0.02752 0.06565 0.0
H2006 H 0.62871 0.91729 0.05478 0.0
H2007 H 0.66473 0.89642 0.03047 0.0
H2008 H 0.61719 0.94026 0.10699 0.0
H2009 H 0.62428 0.98522 0.1238 0.0
C2010 C 0.17087 0.52675 0.90498 0.0
C2011 C 0.19655 0.4982 0.89685 0.0
C2012 C 0.24377 0.53075 0.93198 0.0
C2013 C 0.21894 0.55972 0.94045 0.0
N2014 N 0.15467 0.57651 0.94697 0.0
N2015 N 0.24707 0.46512 0.92446 0.0
C2016 C 0.18106 0.55541 0.93034 0.0
C2017 C 0.22989 0.49756 0.91708 0.0
N2018 N 0.13642 0.52554 0.88985 0.0
N2019 N 0.28084 0.53496 0.93713 0.0
H2020 H 0.23453 0.43992 0.91867 0.0
H2021 H 0.27049 0.46359 0.94116 0.0
H2022 H 0.29253 0.55996 0.94516 0.0
H2023 H 0.29983 0.51485 0.92908 0.0
H2024 H 0.1177 0.54728 0.89154 0.0
H2025 H 0.12721 0.50286 0.87473 0.0
H2026 H 0.12646 0.57289 0.94271 0.0
H2027 H 0.16084 0.59466 0.96837 0.0
C2028 C 0.29989 0.41893 0.39162 0.0
C2029 C 0.28661 0.42635 0.42746 0.0
C2030 C 0.30571 0.49108 0.41869 0.0
C2031 C 0.31988 0.48188 0.38327 0.0
N2032 N 0.35175 0.4322 0.35275 0.0
N2033 N 0.29059 0.46802 0.47962 0.0
C2034 C 0.32407 0.4442 0.37502 0.0
C2035 C 0.29342 0.46214 0.44258 0.0
N2036 N 0.28703 0.38991 0.37175 0.0
N2037 N 0.30496 0.52689 0.42994 0.0
H2038 H 0.28586 0.44684 0.4983 0.0
H2039 H 0.29768 0.49287 0.49213 0.0
H2040 H 0.31853 0.54765 0.41546 0.0
H2041 H 0.29072 0.53567 0.45335 0.0
H2042 H 0.29554 0.38513 0.34464 0.0
H2043 H 0.2651 0.37385 0.38118 0.0
H2044 H 0.35656 0.40412 0.34868 0.0
H2045 H 0.37178 0.45014 0.34249 0.0
C2046 C 0.792 0.04381 0.55581 0.0
C2047 C 0.77052 0.07502 0.56562 0.0
C2048 C 0.777 0.0598 0.63036 0.0
C2049 C 0.79493 0.02589 0.62112 0.0
N2050 N 0.81666 0.98426 0.57407 0.0
N2051 N 0.73625 0.10877 0.61073 0.0
C2052 C 0.80154 0.01744 0.58343 0.0
C2053 C 0.76133 0.08179 0.60248 0.0
N2054 N 0.80429 0.0402 0.52043 0.0
N2055 N 0.77403 0.07106 0.6659 0.0
H2056 H 0.72309 0.12439 0.59053 0.0
H2057 H 0.72619 0.11381 0.63713 0.0
H2058 H 0.78075 0.05423 0.68741 0.0
H2059 H 0.76684 0.09769 0.67385 0.0
H2060 H 0.82298 0.02004 0.51206 0.0
H2061 H 0.79785 0.05929 0.49999 0.0
H2062 H 0.81844 0.97474 0.54703 0.0
H2063 H 0.82583 0.9654 0.59369 0.0
loop_
_geom_bond_atom_site_label_1
_geom_bond_atom_site_label_2
_geom_bond_distance
_geom_bond_site_symmetry_2
_ccdc_geom_bond_type
Zn0 O1 2.055 1_455 S
Zn0 O8 2.046 . S
Zn0 N16 2.036 1_455 S
Zn0 O28 2.053 . S
Zn0 O30 2.066 1_455 S
O1 Zn0 2.055 1_655 S
O1 C4 1.259 . S
C2 O30 1.256 1_455 S
C2 O31 1.244 . S
Zn3 O5 2.046 . S
Zn3 O7 2.055 . S
Zn3 N9 2.036 . S
Zn3 O27 2.066 . S
Zn3 O31 2.053 . S
C4 O1 1.259 . S
C4 O5 1.254 1_655 S
O5 Zn3 2.046 . S
O5 C4 1.254 1_455 S
C6 O27 1.256 . S
C6 O28 1.244 . S
O7 Zn3 2.055 . S
O7 C29 1.259 . S
O8 Zn0 2.046 . S
O8 C29 1.254 . S
N9 Zn3 2.036 . S
N9 C10 1.298 . S
N9 N12 1.398 . S
C10 N9 1.298 . S
C10 N13 1.367 . S
C10 C23 1.481 . S
C11 N12 1.299 . S
C11 N13 1.379 . S
N12 N9 1.398 . S
N12 C11 1.299 . S
N13 C10 1.367 . S
N13 C11 1.379 . S
C14 N16 1.298 . S
C14 N18 1.367 . S
C14 C22 1.481 . S
C15 N17 1.299 1_655 S
C15 N18 1.379 . S
N16 Zn0 2.036 1_655 S
N16 C14 1.298 . S
N16 N17 1.398 1_655 S
N17 C15 1.299 1_455 S
N17 N16 1.398 1_455 S
N18 C14 1.367 . S
N18 C15 1.379 . S
H19 C22 0.980 . S
H20 C22 0.981 . S
H21 C22 0.981 . S
C22 C14 1.481 . S
C22 H19 0.980 . S
C22 H20 0.981 . S
C22 H21 0.981 . S
C23 C10 1.481 . S
C23 H24 0.980 . S
C23 H25 0.981 . S
C23 H26 0.981 . S
H24 C23 0.980 . S
H25 C23 0.981 . S
H26 C23 0.981 . S
O27 Zn3 2.066 . S
O27 C6 1.256 . S
O28 Zn0 2.053 . S
O28 C6 1.244 . S
C29 O7 1.259 . S
C29 O8 1.254 . S
O30 Zn0 2.066 1_655 S
O30 C2 1.256 1_655 S
O31 C2 1.244 . S
O31 Zn3 2.053 . S
Zn32 O33 2.055 . S
Zn32 O40 2.046 . S
Zn32 N48 2.036 . S
Zn32 O60 2.053 . S
Zn32 O62 2.066 . S
O33 Zn32 2.055 . S
O33 C36 1.259 . S
C34 O62 1.256 . S
C34 O63 1.244 . S
Zn35 O37 2.046 . S
Zn35 O39 2.055 . S
Zn35 N41 2.036 . S
Zn35 O59 2.066 . S
Zn35 O63 2.053 . S
C36 O33 1.259 . S
C36 O37 1.254 . S
O37 Zn35 2.046 . S
O37 C36 1.254 . S
C38 O59 1.256 . S
C38 O60 1.244 . S
O39 Zn35 2.055 . S
O39 C61 1.259 . S
O40 Zn32 2.046 . S
O40 C61 1.254 . S
N41 Zn35 2.036 . S
N41 C42 1.298 . S
N41 N44 1.398 . S
C42 N41 1.298 . S
C42 N45 1.367 . S
C42 C55 1.481 . S
C43 N44 1.299 . S
C43 N45 1.379 . S
N44 N41 1.398 . S
N44 C43 1.299 . S
N45 C42 1.367 . S
N45 C43 1.379 . S
C46 N48 1.298 . S
C46 N50 1.367 . S
C46 C54 1.481 . S
C47 N49 1.299 . S
C47 N50 1.379 . S
N48 Zn32 2.036 . S
N48 C46 1.298 . S
N48 N49 1.398 . S
N49 C47 1.299 . S
N49 N48 1.398 . S
N50 C46 1.367 . S
N50 C47 1.379 . S
H51 C54 0.980 . S
H52 C54 0.981 . S
H53 C54 0.981 . S
C54 C46 1.481 . S
C54 H51 0.980 . S
C54 H52 0.981 . S
C54 H53 0.981 . S
C55 C42 1.481 . S
C55 H56 0.980 . S
C55 H57 0.981 . S
C55 H58 0.981 . S
H56 C55 0.980 . S
H57 C55 0.981 . S
H58 C55 0.981 . S
O59 Zn35 2.066 . S
O59 C38 1.256 . S
O60 Zn32 2.053 . S
O60 C38 1.244 . S
C61 O39 1.259 . S
C61 O40 1.254 . S
O62 Zn32 2.066 . S
O62 C34 1.256 . S
O63 C34 1.244 . S
O63 Zn35 2.053 . S
Zn64 O65 2.055 . S
Zn64 O72 2.046 . S
Zn64 N80 2.036 . S
Zn64 O92 2.053 . S
Zn64 O94 2.066 . S
O65 Zn64 2.055 . S
O65 C68 1.259 . S
C66 O94 1.256 . S
C66 O95 1.244 . S
Zn67 O69 2.046 . S
Zn67 O71 2.055 . S
Zn67 N73 2.036 . S
Zn67 O91 2.066 . S
Zn67 O95 2.053 . S
C68 O65 1.259 . S
C68 O69 1.254 . S
O69 Zn67 2.046 . S
O69 C68 1.254 . S
C70 O91 1.256 . S
C70 O92 1.244 . S
O71 Zn67 2.055 . S
O71 C93 1.259 . S
O72 Zn64 2.046 . S
O72 C93 1.254 . S
N73 Zn67 2.036 . S
N73 C74 1.298 . S
N73 N76 1.398 . S
C74 N73 1.298 . S
C74 N77 1.367 . S
C74 C87 1.481 . S
C75 N76 1.299 . S
C75 N77 1.379 . S
N76 N73 1.398 . S
N76 C75 1.299 . S
N77 C74 1.367 . S
N77 C75 1.379 . S
C78 N80 1.298 . S
C78 N82 1.367 . S
C78 C86 1.481 . S
C79 N81 1.299 . S
C79 N82 1.379 . S
N80 Zn64 2.036 . S
N80 C78 1.298 . S
N80 N81 1.398 . S
N81 C79 1.299 . S
N81 N80 1.398 . S
N82 C78 1.367 . S
N82 C79 1.379 . S
H83 C86 0.980 . S
H84 C86 0.981 . S
H85 C86 0.981 . S
C86 C78 1.481 . S
C86 H83 0.980 . S
C86 H84 0.981 . S
C86 H85 0.981 . S
C87 C74 1.481 . S
C87 H88 0.980 . S
C87 H89 0.981 . S
C87 H90 0.981 . S
H88 C87 0.980 . S
H89 C87 0.981 . S
H90 C87 0.981 . S
O91 Zn67 2.066 . S
O91 C70 1.256 . S
O92 Zn64 2.053 . S
O92 C70 1.244 . S
C93 O71 1.259 . S
C93 O72 1.254 . S
O94 Zn64 2.066 . S
O94 C66 1.256 . S
O95 C66 1.244 . S
O95 Zn67 2.053 . S
Zn96 O97 2.055 . S
Zn96 O104 2.046 . S
Zn96 N112 2.036 . S
Zn96 O124 2.053 . S
Zn96 O126 2.066 . S
O97 Zn96 2.055 . S
O97 C100 1.259 . S
C98 O126 1.256 . S
C98 O127 1.244 . S
Zn99 O101 2.046 . S
Zn99 O103 2.055 1_655 S
Zn99 N105 2.036 1_655 S
Zn99 O123 2.066 1_655 S
Zn99 O127 2.053 . S
C100 O97 1.259 . S
C100 O101 1.254 . S
O101 Zn99 2.046 . S
O101 C100 1.254 . S
C102 O123 1.256 1_655 S
C102 O124 1.244 . S
O103 Zn99 2.055 1_455 S
O103 C125 1.259 . S
O104 Zn96 2.046 . S
O104 C125 1.254 1_655 S
N105 Zn99 2.036 1_455 S
N105 C106 1.298 . S
N105 N108 1.398 1_455 S
C106 N105 1.298 . S
C106 N109 1.367 . S
C106 C119 1.481 . S
C107 N108 1.299 1_455 S
C107 N109 1.379 . S
N108 N105 1.398 1_655 S
N108 C107 1.299 1_655 S
N109 C106 1.367 . S
N109 C107 1.379 . S
C110 N112 1.298 . S
C110 N114 1.367 . S
C110 C118 1.481 . S
C111 N113 1.299 . S
C111 N114 1.379 . S
N112 Zn96 2.036 . S
N112 C110 1.298 . S
N112 N113 1.398 . S
N113 C111 1.299 . S
N113 N112 1.398 . S
N114 C110 1.367 . S
N114 C111 1.379 . S
H115 C118 0.980 . S
H116 C118 0.981 . S
H117 C118 0.981 . S
C118 C110 1.481 . S
C118 H115 0.980 . S
C118 H116 0.981 . S
C118 H117 0.981 . S
C119 C106 1.481 . S
C119 H120 0.980 . S
C119 H121 0.981 . S
C119 H122 0.981 . S
H120 C119 0.980 . S
H121 C119 0.981 . S
H122 C119 0.981 . S
O123 Zn99 2.066 1_455 S
O123 C102 1.256 1_455 S
O124 Zn96 2.053 . S
O124 C102 1.244 . S
C125 O103 1.259 . S
C125 O104 1.254 1_455 S
O126 Zn96 2.066 . S
O126 C98 1.256 . S
O127 C98 1.244 . S
O127 Zn99 2.053 . S
Zn128 O129 2.055 . S
Zn128 O136 2.046 . S
Zn128 N144 2.036 . S
Zn128 O156 2.053 . S
Zn128 O158 2.066 . S
O129 Zn128 2.055 . S
O129 C132 1.259 . S
C130 O158 1.256 . S
C130 O159 1.244 . S
Zn131 O133 2.046 . S
Zn131 O135 2.055 1_545 S
Zn131 N137 2.036 1_545 S
Zn131 O155 2.066 1_545 S
Zn131 O159 2.053 . S
C132 O129 1.259 . S
C132 O133 1.254 . S
O133 Zn131 2.046 . S
O133 C132 1.254 . S
C134 O155 1.256 1_545 S
C134 O156 1.244 . S
O135 Zn131 2.055 1_565 S
O135 C157 1.259 . S
O136 Zn128 2.046 . S
O136 C157 1.254 1_545 S
N137 Zn131 2.036 1_565 S
N137 C138 1.298 . S
N137 N140 1.398 1_565 S
C138 N137 1.298 . S
C138 N141 1.367 . S
C138 C151 1.481 . S
C139 N140 1.299 1_565 S
C139 N141 1.379 . S
N140 N137 1.398 1_545 S
N140 C139 1.299 1_545 S
N141 C138 1.367 . S
N141 C139 1.379 . S
C142 N144 1.298 . S
C142 N146 1.367 . S
C142 C150 1.481 . S
C143 N145 1.299 . S
C143 N146 1.379 . S
N144 Zn128 2.036 . S
N144 C142 1.298 . S
N144 N145 1.398 . S
N145 C143 1.299 . S
N145 N144 1.398 . S
N146 C142 1.367 . S
N146 C143 1.379 . S
H147 C150 0.980 . S
H148 C150 0.981 . S
H149 C150 0.981 . S
C150 C142 1.481 . S
C150 H147 0.980 . S
C150 H148 0.981 . S
C150 H149 0.981 . S
C151 C138 1.481 . S
C151 H152 0.980 . S
C151 H153 0.981 . S
C151 H154 0.981 . S
H152 C151 0.980 . S
H153 C151 0.981 . S
H154 C151 0.981 . S
O155 Zn131 2.066 1_565 S
O155 C134 1.256 1_565 S
O156 Zn128 2.053 . S
O156 C134 1.244 . S
C157 O135 1.259 . S
C157 O136 1.254 1_565 S
O158 Zn128 2.066 . S
O158 C130 1.256 . S
O159 C130 1.244 . S
O159 Zn131 2.053 . S
Zn160 O161 2.055 1_565 S
Zn160 O168 2.046 . S
Zn160 N176 2.036 1_565 S
Zn160 O188 2.053 . S
Zn160 O190 2.066 1_565 S
O161 Zn160 2.055 1_545 S
O161 C164 1.259 . S
C162 O190 1.256 1_565 S
C162 O191 1.244 . S
Zn163 O165 2.046 . S
Zn163 O167 2.055 . S
Zn163 N169 2.036 . S
Zn163 O187 2.066 . S
Zn163 O191 2.053 . S
C164 O161 1.259 . S
C164 O165 1.254 1_545 S
O165 Zn163 2.046 . S
O165 C164 1.254 1_565 S
C166 O187 1.256 . S
C166 O188 1.244 . S
O167 Zn163 2.055 . S
O167 C189 1.259 . S
O168 Zn160 2.046 . S
O168 C189 1.254 . S
N169 Zn163 2.036 . S
N169 C170 1.298 . S
N169 N172 1.398 . S
C170 N169 1.298 . S
C170 N173 1.367 . S
C170 C183 1.481 . S
C171 N172 1.299 . S
C171 N173 1.379 . S
N172 N169 1.398 . S
N172 C171 1.299 . S
N173 C170 1.367 . S
N173 C171 1.379 . S
C174 N176 1.298 . S
C174 N178 1.367 . S
C174 C182 1.481 . S
C175 N177 1.299 1_545 S
C175 N178 1.379 . S
N176 Zn160 2.036 1_545 S
N176 C174 1.298 . S
N176 N177 1.398 1_545 S
N177 C175 1.299 1_565 S
N177 N176 1.398 1_565 S
N178 C174 1.367 . S
N178 C175 1.379 . S
H179 C182 0.980 . S
H180 C182 0.981 . S
H181 C182 0.981 . S
C182 C174 1.481 . S
C182 H179 0.980 . S
C182 H180 0.981 . S
C182 H181 0.981 . S
C183 C170 1.481 . S
C183 H184 0.980 . S
C183 H185 0.981 . S
C183 H186 0.981 . S
H184 C183 0.980 . S
H185 C183 0.981 . S
H186 C183 0.981 . S
O187 Zn163 2.066 . S
O187 C166 1.256 . S
O188 Zn160 2.053 . S
O188 C166 1.244 . S
C189 O167 1.259 . S
C189 O168 1.254 . S
O190 Zn160 2.066 1_545 S
O190 C162 1.256 1_545 S
O191 C162 1.244 . S
O191 Zn163 2.053 . S
Zn192 O193 2.055 . S
Zn192 O200 2.046 . S
Zn192 N208 2.036 . S
Zn192 O220 2.053 . S
Zn192 O222 2.066 . S
O193 Zn192 2.055 . S
O193 C196 1.259 . S
C194 O222 1.256 . S
C194 O223 1.244 . S
Zn195 O197 2.046 . S
Zn195 O199 2.055 . S
Zn195 N201 2.036 . S
Zn195 O219 2.066 . S
Zn195 O223 2.053 . S
C196 O193 1.259 . S
C196 O197 1.254 . S
O197 Zn195 2.046 . S
O197 C196 1.254 . S
C198 O219 1.256 . S
C198 O220 1.244 . S
O199 Zn195 2.055 . S
O199 C221 1.259 . S
O200 Zn192 2.046 . S
O200 C221 1.254 . S
N201 Zn195 2.036 . S
N201 C202 1.298 . S
N201 N204 1.398 . S
C202 N201 1.298 . S
C202 N205 1.367 . S
C202 C215 1.481 . S
C203 N204 1.299 . S
C203 N205 1.379 . S
N204 N201 1.398 . S
N204 C203 1.299 . S
N205 C202 1.367 . S
N205 C203 1.379 . S
C206 N208 1.298 . S
C206 N210 1.367 . S
C206 C214 1.481 . S
C207 N209 1.299 . S
C207 N210 1.379 . S
N208 Zn192 2.036 . S
N208 C206 1.298 . S
N208 N209 1.398 . S
N209 C207 1.299 . S
N209 N208 1.398 . S
N210 C206 1.367 . S
N210 C207 1.379 . S
H211 C214 0.980 . S
H212 C214 0.981 . S
H213 C214 0.981 . S
C214 C206 1.481 . S
C214 H211 0.980 . S
C214 H212 0.981 . S
C214 H213 0.981 . S
C215 C202 1.481 . S
C215 H216 0.980 . S
C215 H217 0.981 . S
C215 H218 0.981 . S
H216 C215 0.980 . S
H217 C215 0.981 . S
H218 C215 0.981 . S
O219 Zn195 2.066 . S
O219 C198 1.256 . S
O220 Zn192 2.053 . S
O220 C198 1.244 . S
C221 O199 1.259 . S
C221 O200 1.254 . S
O222 Zn192 2.066 . S
O222 C194 1.256 . S
O223 C194 1.244 . S
O223 Zn195 2.053 . S
Zn224 O225 2.055 . S
Zn224 O232 2.046 . S
Zn224 N240 2.036 . S
Zn224 O252 2.053 . S
Zn224 O254 2.066 . S
O225 Zn224 2.055 . S
O225 C228 1.259 . S
C226 O254 1.256 . S
C226 O255 1.244 . S
Zn227 O229 2.046 . S
Zn227 O231 2.055 . S
Zn227 N233 2.036 . S
Zn227 O251 2.066 . S
Zn227 O255 2.053 . S
C228 O225 1.259 . S
C228 O229 1.254 . S
O229 Zn227 2.046 . S
O229 C228 1.254 . S
C230 O251 1.256 . S
C230 O252 1.244 . S
O231 Zn227 2.055 . S
O231 C253 1.259 . S
O232 Zn224 2.046 . S
O232 C253 1.254 . S
N233 Zn227 2.036 . S
N233 C234 1.298 . S
N233 N236 1.398 . S
C234 N233 1.298 . S
C234 N237 1.367 . S
C234 C247 1.481 . S
C235 N236 1.299 . S
C235 N237 1.379 . S
N236 N233 1.398 . S
N236 C235 1.299 . S
N237 C234 1.367 . S
N237 C235 1.379 . S
C238 N240 1.298 . S
C238 N242 1.367 . S
C238 C246 1.481 . S
C239 N241 1.299 . S
C239 N242 1.379 . S
N240 Zn224 2.036 . S
N240 C238 1.298 . S
N240 N241 1.398 . S
N241 C239 1.299 . S
N241 N240 1.398 . S
N242 C238 1.367 . S
N242 C239 1.379 . S
H243 C246 0.980 . S
H244 C246 0.981 . S
H245 C246 0.981 . S
C246 C238 1.481 . S
C246 H243 0.980 . S
C246 H244 0.981 . S
C246 H245 0.981 . S
C247 C234 1.481 . S
C247 H248 0.980 . S
C247 H249 0.981 . S
C247 H250 0.981 . S
H248 C247 0.980 . S
H249 C247 0.981 . S
H250 C247 0.981 . S
O251 Zn227 2.066 . S
O251 C230 1.256 . S
O252 Zn224 2.053 . S
O252 C230 1.244 . S
C253 O231 1.259 . S
C253 O232 1.254 . S
O254 Zn224 2.066 . S
O254 C226 1.256 . S
O255 C226 1.244 . S
O255 Zn227 2.053 . S
Zn256 O257 2.055 1_554 S
Zn256 O264 2.046 . S
Zn256 N272 2.036 1_554 S
Zn256 O284 2.053 . S
Zn256 O286 2.066 1_554 S
O257 Zn256 2.055 1_556 S
O257 C260 1.259 . S
C258 O286 1.256 1_554 S
C258 O287 1.244 . S
Zn259 O261 2.046 . S
Zn259 O263 2.055 . S
Zn259 N265 2.036 . S
Zn259 O283 2.066 . S
Zn259 O287 2.053 . S
C260 O257 1.259 . S
C260 O261 1.254 1_556 S
O261 Zn259 2.046 . S
O261 C260 1.254 1_554 S
C262 O283 1.256 . S
C262 O284 1.244 . S
O263 Zn259 2.055 . S
O263 C285 1.259 . S
O264 Zn256 2.046 . S
O264 C285 1.254 . S
N265 Zn259 2.036 . S
N265 C266 1.298 . S
N265 N268 1.398 . S
C266 N265 1.298 . S
C266 N269 1.367 . S
C266 C279 1.481 . S
C267 N268 1.299 . S
C267 N269 1.379 . S
N268 N265 1.398 . S
N268 C267 1.299 . S
N269 C266 1.367 . S
N269 C267 1.379 . S
C270 N272 1.298 . S
C270 N274 1.367 . S
C270 C278 1.481 . S
C271 N273 1.299 1_556 S
C271 N274 1.379 . S
N272 Zn256 2.036 1_556 S
N272 C270 1.298 . S
N272 N273 1.398 1_556 S
N273 C271 1.299 1_554 S
N273 N272 1.398 1_554 S
N274 C270 1.367 . S
N274 C271 1.379 . S
H275 C278 0.980 . S
H276 C278 0.981 . S
H277 C278 0.981 . S
C278 C270 1.481 . S
C278 H275 0.980 . S
C278 H276 0.981 . S
C278 H277 0.981 . S
C279 C266 1.481 . S
C279 H280 0.980 . S
C279 H281 0.981 . S
C279 H282 0.981 . S
H280 C279 0.980 . S
H281 C279 0.981 . S
H282 C279 0.981 . S
O283 Zn259 2.066 . S
O283 C262 1.256 . S
O284 Zn256 2.053 . S
O284 C262 1.244 . S
C285 O263 1.259 . S
C285 O264 1.254 . S
O286 Zn256 2.066 1_556 S
O286 C258 1.256 1_556 S
O287 C258 1.244 . S
O287 Zn259 2.053 . S
Zn288 O289 2.055 1_556 S
Zn288 O296 2.046 . S
Zn288 N304 2.036 1_556 S
Zn288 O316 2.053 . S
Zn288 O318 2.066 1_556 S
O289 Zn288 2.055 1_554 S
O289 C292 1.259 . S
C290 O318 1.256 1_556 S
C290 O319 1.244 . S
Zn291 O293 2.046 . S
Zn291 O295 2.055 . S
Zn291 N297 2.036 . S
Zn291 O315 2.066 . S
Zn291 O319 2.053 . S
C292 O289 1.259 . S
C292 O293 1.254 1_554 S
O293 Zn291 2.046 . S
O293 C292 1.254 1_556 S
C294 O315 1.256 . S
C294 O316 1.244 . S
O295 Zn291 2.055 . S
O295 C317 1.259 . S
O296 Zn288 2.046 . S
O296 C317 1.254 . S
N297 Zn291 2.036 . S
N297 C298 1.298 . S
N297 N300 1.398 . S
C298 N297 1.298 . S
C298 N301 1.367 . S
C298 C311 1.481 . S
C299 N300 1.299 . S
C299 N301 1.379 . S
N300 N297 1.398 . S
N300 C299 1.299 . S
N301 C298 1.367 . S
N301 C299 1.379 . S
C302 N304 1.298 . S
C302 N306 1.367 . S
C302 C310 1.481 . S
C303 N305 1.299 1_554 S
C303 N306 1.379 . S
N304 Zn288 2.036 1_554 S
N304 C302 1.298 . S
N304 N305 1.398 1_554 S
N305 C303 1.299 1_556 S
N305 N304 1.398 1_556 S
N306 C302 1.367 . S
N306 C303 1.379 . S
H307 C310 0.980 . S
H308 C310 0.981 . S
H309 C310 0.981 . S
C310 C302 1.481 . S
C310 H307 0.980 . S
C310 H308 0.981 . S
C310 H309 0.981 . S
C311 C298 1.481 . S
C311 H312 0.980 . S
C311 H313 0.981 . S
C311 H314 0.981 . S
H312 C311 0.980 . S
H313 C311 0.981 . S
H314 C311 0.981 . S
O315 Zn291 2.066 . S
O315 C294 1.256 . S
O316 Zn288 2.053 . S
O316 C294 1.244 . S
C317 O295 1.259 . S
C317 O296 1.254 . S
O318 Zn288 2.066 1_554 S
O318 C290 1.256 1_554 S
O319 C290 1.244 . S
O319 Zn291 2.053 . S
Zn320 O321 2.055 . S
Zn320 O328 2.046 . S
Zn320 N336 2.036 . S
Zn320 O348 2.053 . S
Zn320 O350 2.066 . S
O321 Zn320 2.055 . S
O321 C324 1.259 . S
C322 O350 1.256 . S
C322 O351 1.244 . S
Zn323 O325 2.046 . S
Zn323 O327 2.055 . S
Zn323 N329 2.036 . S
Zn323 O347 2.066 . S
Zn323 O351 2.053 . S
C324 O321 1.259 . S
C324 O325 1.254 . S
O325 Zn323 2.046 . S
O325 C324 1.254 . S
C326 O347 1.256 . S
C326 O348 1.244 . S
O327 Zn323 2.055 . S
O327 C349 1.259 . S
O328 Zn320 2.046 . S
O328 C349 1.254 . S
N329 Zn323 2.036 . S
N329 C330 1.298 . S
N329 N332 1.398 . S
C330 N329 1.298 . S
C330 N333 1.367 . S
C330 C343 1.481 . S
C331 N332 1.299 . S
C331 N333 1.379 . S
N332 N329 1.398 . S
N332 C331 1.299 . S
N333 C330 1.367 . S
N333 C331 1.379 . S
C334 N336 1.298 . S
C334 N338 1.367 . S
C334 C342 1.481 . S
C335 N337 1.299 . S
C335 N338 1.379 . S
N336 Zn320 2.036 . S
N336 C334 1.298 . S
N336 N337 1.398 . S
N337 C335 1.299 . S
N337 N336 1.398 . S
N338 C334 1.367 . S
N338 C335 1.379 . S
H339 C342 0.980 . S
H340 C342 0.981 . S
H341 C342 0.981 . S
C342 C334 1.481 . S
C342 H339 0.980 . S
C342 H340 0.981 . S
C342 H341 0.981 . S
C343 C330 1.481 . S
C343 H344 0.980 . S
C343 H345 0.981 . S
C343 H346 0.981 . S
H344 C343 0.980 . S
H345 C343 0.981 . S
H346 C343 0.981 . S
O347 Zn323 2.066 . S
O347 C326 1.256 . S
O348 Zn320 2.053 . S
O348 C326 1.244 . S
C349 O327 1.259 . S
C349 O328 1.254 . S
O350 Zn320 2.066 . S
O350 C322 1.256 . S
O351 C322 1.244 . S
O351 Zn323 2.053 . S
Zn352 O353 2.055 . S
Zn352 O360 2.046 . S
Zn352 N368 2.036 . S
Zn352 O380 2.053 . S
Zn352 O382 2.066 . S
O353 Zn352 2.055 . S
O353 C356 1.259 . S
C354 O382 1.256 . S
C354 O383 1.244 . S
Zn355 O357 2.046 . S
Zn355 O359 2.055 . S
Zn355 N361 2.036 . S
Zn355 O379 2.066 . S
Zn355 O383 2.053 . S
C356 O353 1.259 . S
C356 O357 1.254 . S
O357 Zn355 2.046 . S
O357 C356 1.254 . S
C358 O379 1.256 . S
C358 O380 1.244 . S
O359 Zn355 2.055 . S
O359 C381 1.259 . S
O360 Zn352 2.046 . S
O360 C381 1.254 . S
N361 Zn355 2.036 . S
N361 C362 1.298 . S
N361 N364 1.398 . S
C362 N361 1.298 . S
C362 N365 1.367 . S
C362 C375 1.481 . S
C363 N364 1.299 . S
C363 N365 1.379 . S
N364 N361 1.398 . S
N364 C363 1.299 . S
N365 C362 1.367 . S
N365 C363 1.379 . S
C366 N368 1.298 . S
C366 N370 1.367 . S
C366 C374 1.481 . S
C367 N369 1.299 . S
C367 N370 1.379 . S
N368 Zn352 2.036 . S
N368 C366 1.298 . S
N368 N369 1.398 . S
N369 C367 1.299 . S
N369 N368 1.398 . S
N370 C366 1.367 . S
N370 C367 1.379 . S
H371 C374 0.980 . S
H372 C374 0.981 . S
H373 C374 0.981 . S
C374 C366 1.481 . S
C374 H371 0.980 . S
C374 H372 0.981 . S
C374 H373 0.981 . S
C375 C362 1.481 . S
C375 H376 0.980 . S
C375 H377 0.981 . S
C375 H378 0.981 . S
H376 C375 0.980 . S
H377 C375 0.981 . S
H378 C375 0.981 . S
O379 Zn355 2.066 . S
O379 C358 1.256 . S
O380 Zn352 2.053 . S
O380 C358 1.244 . S
C381 O359 1.259 . S
C381 O360 1.254 . S
O382 Zn352 2.066 . S
O382 C354 1.256 . S
O383 C354 1.244 . S
O383 Zn355 2.053 . S
Zn384 O385 2.055 . S
Zn384 O392 2.046 . S
Zn384 N400 2.036 . S
Zn384 O412 2.053 . S
Zn384 O414 2.066 . S
O385 Zn384 2.055 . S
O385 C388 1.259 . S
C386 O414 1.256 . S
C386 O415 1.244 . S
Zn387 O389 2.046 . S
Zn387 O391 2.055 1_655 S
Zn387 N393 2.036 1_655 S
Zn387 O411 2.066 1_655 S
Zn387 O415 2.053 . S
C388 O385 1.259 . S
C388 O389 1.254 . S
O389 Zn387 2.046 . S
O389 C388 1.254 . S
C390 O411 1.256 1_655 S
C390 O412 1.244 . S
O391 Zn387 2.055 1_455 S
O391 C413 1.259 . S
O392 Zn384 2.046 . S
O392 C413 1.254 1_655 S
N393 Zn387 2.036 1_455 S
N393 C394 1.298 . S
N393 N396 1.398 1_455 S
C394 N393 1.298 . S
C394 N397 1.367 . S
C394 C407 1.481 . S
C395 N396 1.299 1_455 S
C395 N397 1.379 . S
N396 N393 1.398 1_655 S
N396 C395 1.299 1_655 S
N397 C394 1.367 . S
N397 C395 1.379 . S
C398 N400 1.298 . S
C398 N402 1.367 . S
C398 C406 1.481 . S
C399 N401 1.299 . S
C399 N402 1.379 . S
N400 Zn384 2.036 . S
N400 C398 1.298 . S
N400 N401 1.398 . S
N401 C399 1.299 . S
N401 N400 1.398 . S
N402 C398 1.367 . S
N402 C399 1.379 . S
H403 C406 0.980 . S
H404 C406 0.981 . S
H405 C406 0.981 . S
C406 C398 1.481 . S
C406 H403 0.980 . S
C406 H404 0.981 . S
C406 H405 0.981 . S
C407 C394 1.481 . S
C407 H408 0.980 . S
C407 H409 0.981 . S
C407 H410 0.981 . S
H408 C407 0.980 . S
H409 C407 0.981 . S
H410 C407 0.981 . S
O411 Zn387 2.066 1_455 S
O411 C390 1.256 1_455 S
O412 Zn384 2.053 . S
O412 C390 1.244 . S
C413 O391 1.259 . S
C413 O392 1.254 1_455 S
O414 Zn384 2.066 . S
O414 C386 1.256 . S
O415 C386 1.244 . S
O415 Zn387 2.053 . S
Zn416 O417 2.055 . S
Zn416 O424 2.046 . S
Zn416 N432 2.036 . S
Zn416 O444 2.053 . S
Zn416 O446 2.066 . S
O417 Zn416 2.055 . S
O417 C420 1.259 . S
C418 O446 1.256 . S
C418 O447 1.244 . S
Zn419 O421 2.046 . S
Zn419 O423 2.055 . S
Zn419 N425 2.036 . S
Zn419 O443 2.066 . S
Zn419 O447 2.053 . S
C420 O417 1.259 . S
C420 O421 1.254 . S
O421 Zn419 2.046 . S
O421 C420 1.254 . S
C422 O443 1.256 . S
C422 O444 1.244 . S
O423 Zn419 2.055 . S
O423 C445 1.259 . S
O424 Zn416 2.046 . S
O424 C445 1.254 . S
N425 Zn419 2.036 . S
N425 C426 1.298 . S
N425 N428 1.398 . S
C426 N425 1.298 . S
C426 N429 1.367 . S
C426 C439 1.481 . S
C427 N428 1.299 . S
C427 N429 1.379 . S
N428 N425 1.398 . S
N428 C427 1.299 . S
N429 C426 1.367 . S
N429 C427 1.379 . S
C430 N432 1.298 . S
C430 N434 1.367 . S
C430 C438 1.481 . S
C431 N433 1.299 . S
C431 N434 1.379 . S
N432 Zn416 2.036 . S
N432 C430 1.298 . S
N432 N433 1.398 . S
N433 C431 1.299 . S
N433 N432 1.398 . S
N434 C430 1.367 . S
N434 C431 1.379 . S
H435 C438 0.980 . S
H436 C438 0.981 . S
H437 C438 0.981 . S
C438 C430 1.481 . S
C438 H435 0.980 . S
C438 H436 0.981 . S
C438 H437 0.981 . S
C439 C426 1.481 . S
C439 H440 0.980 . S
C439 H441 0.981 . S
C439 H442 0.981 . S
H440 C439 0.980 . S
H441 C439 0.981 . S
H442 C439 0.981 . S
O443 Zn419 2.066 . S
O443 C422 1.256 . S
O444 Zn416 2.053 . S
O444 C422 1.244 . S
C445 O423 1.259 . S
C445 O424 1.254 . S
O446 Zn416 2.066 . S
O446 C418 1.256 . S
O447 C418 1.244 . S
O447 Zn419 2.053 . S
Zn448 O449 2.055 . S
Zn448 O456 2.046 . S
Zn448 N464 2.036 . S
Zn448 O476 2.053 . S
Zn448 O478 2.066 . S
O449 Zn448 2.055 . S
O449 C452 1.259 . S
C450 O478 1.256 . S
C450 O479 1.244 . S
Zn451 O453 2.046 . S
Zn451 O455 2.055 . S
Zn451 N457 2.036 . S
Zn451 O475 2.066 . S
Zn451 O479 2.053 . S
C452 O449 1.259 . S
C452 O453 1.254 . S
O453 Zn451 2.046 . S
O453 C452 1.254 . S
C454 O475 1.256 . S
C454 O476 1.244 . S
O455 Zn451 2.055 . S
O455 C477 1.259 . S
O456 Zn448 2.046 . S
O456 C477 1.254 . S
N457 Zn451 2.036 . S
N457 C458 1.298 . S
N457 N460 1.398 . S
C458 N457 1.298 . S
C458 N461 1.367 . S
C458 C471 1.481 . S
C459 N460 1.299 . S
C459 N461 1.379 . S
N460 N457 1.398 . S
N460 C459 1.299 . S
N461 C458 1.367 . S
N461 C459 1.379 . S
C462 N464 1.298 . S
C462 N466 1.367 . S
C462 C470 1.481 . S
C463 N465 1.299 . S
C463 N466 1.379 . S
N464 Zn448 2.036 . S
N464 C462 1.298 . S
N464 N465 1.398 . S
N465 C463 1.299 . S
N465 N464 1.398 . S
N466 C462 1.367 . S
N466 C463 1.379 . S
H467 C470 0.980 . S
H468 C470 0.981 . S
H469 C470 0.981 . S
C470 C462 1.481 . S
C470 H467 0.980 . S
C470 H468 0.981 . S
C470 H469 0.981 . S
C471 C458 1.481 . S
C471 H472 0.980 . S
C471 H473 0.981 . S
C471 H474 0.981 . S
H472 C471 0.980 . S
H473 C471 0.981 . S
H474 C471 0.981 . S
O475 Zn451 2.066 . S
O475 C454 1.256 . S
O476 Zn448 2.053 . S
O476 C454 1.244 . S
C477 O455 1.259 . S
C477 O456 1.254 . S
O478 Zn448 2.066 . S
O478 C450 1.256 . S
O479 C450 1.244 . S
O479 Zn451 2.053 . S
Zn480 O481 2.055 . S
Zn480 O488 2.046 . S
Zn480 N496 2.036 . S
Zn480 O508 2.053 . S
Zn480 O510 2.066 . S
O481 Zn480 2.055 . S
O481 C484 1.259 . S
C482 O510 1.256 . S
C482 O511 1.244 . S
Zn483 O485 2.046 . S
Zn483 O487 2.055 1_455 S
Zn483 N489 2.036 1_455 S
Zn483 O507 2.066 1_455 S
Zn483 O511 2.053 . S
C484 O481 1.259 . S
C484 O485 1.254 . S
O485 Zn483 2.046 . S
O485 C484 1.254 . S
C486 O507 1.256 1_455 S
C486 O508 1.244 . S
O487 Zn483 2.055 1_655 S
O487 C509 1.259 . S
O488 Zn480 2.046 . S
O488 C509 1.254 1_455 S
N489 Zn483 2.036 1_655 S
N489 C490 1.298 . S
N489 N492 1.398 1_655 S
C490 N489 1.298 . S
C490 N493 1.367 . S
C490 C503 1.481 . S
C491 N492 1.299 1_655 S
C491 N493 1.379 . S
N492 N489 1.398 1_455 S
N492 C491 1.299 1_455 S
N493 C490 1.367 . S
N493 C491 1.379 . S
C494 N496 1.298 . S
C494 N498 1.367 . S
C494 C502 1.481 . S
C495 N497 1.299 . S
C495 N498 1.379 . S
N496 Zn480 2.036 . S
N496 C494 1.298 . S
N496 N497 1.398 . S
N497 C495 1.299 . S
N497 N496 1.398 . S
N498 C494 1.367 . S
N498 C495 1.379 . S
H499 C502 0.980 . S
H500 C502 0.981 . S
H501 C502 0.981 . S
C502 C494 1.481 . S
C502 H499 0.980 . S
C502 H500 0.981 . S
C502 H501 0.981 . S
C503 C490 1.481 . S
C503 H504 0.980 . S
C503 H505 0.981 . S
C503 H506 0.981 . S
H504 C503 0.980 . S
H505 C503 0.981 . S
H506 C503 0.981 . S
O507 Zn483 2.066 1_655 S
O507 C486 1.256 1_655 S
O508 Zn480 2.053 . S
O508 C486 1.244 . S
C509 O487 1.259 . S
C509 O488 1.254 1_655 S
O510 Zn480 2.066 . S
O510 C482 1.256 . S
O511 C482 1.244 . S
O511 Zn483 2.053 . S
Zn512 O513 2.055 . S
Zn512 O520 2.046 . S
Zn512 N528 2.036 . S
Zn512 O540 2.053 . S
Zn512 O542 2.066 . S
O513 Zn512 2.055 . S
O513 C516 1.259 . S
C514 O542 1.256 . S
C514 O543 1.244 . S
Zn515 O517 2.046 . S
Zn515 O519 2.055 1_565 S
Zn515 N521 2.036 1_565 S
Zn515 O539 2.066 1_565 S
Zn515 O543 2.053 . S
C516 O513 1.259 . S
C516 O517 1.254 . S
O517 Zn515 2.046 . S
O517 C516 1.254 . S
C518 O539 1.256 1_565 S
C518 O540 1.244 . S
O519 Zn515 2.055 1_545 S
O519 C541 1.259 . S
O520 Zn512 2.046 . S
O520 C541 1.254 1_565 S
N521 Zn515 2.036 1_545 S
N521 C522 1.298 . S
N521 N524 1.398 1_545 S
C522 N521 1.298 . S
C522 N525 1.367 . S
C522 C535 1.481 . S
C523 N524 1.299 1_545 S
C523 N525 1.379 . S
N524 N521 1.398 1_565 S
N524 C523 1.299 1_565 S
N525 C522 1.367 . S
N525 C523 1.379 . S
C526 N528 1.298 . S
C526 N530 1.367 . S
C526 C534 1.481 . S
C527 N529 1.299 . S
C527 N530 1.379 . S
N528 Zn512 2.036 . S
N528 C526 1.298 . S
N528 N529 1.398 . S
N529 C527 1.299 . S
N529 N528 1.398 . S
N530 C526 1.367 . S
N530 C527 1.379 . S
H531 C534 0.980 . S
H532 C534 0.981 . S
H533 C534 0.981 . S
C534 C526 1.481 . S
C534 H531 0.980 . S
C534 H532 0.981 . S
C534 H533 0.981 . S
C535 C522 1.481 . S
C535 H536 0.980 . S
C535 H537 0.981 . S
C535 H538 0.981 . S
H536 C535 0.980 . S
H537 C535 0.981 . S
H538 C535 0.981 . S
O539 Zn515 2.066 1_545 S
O539 C518 1.256 1_545 S
O540 Zn512 2.053 . S
O540 C518 1.244 . S
C541 O519 1.259 . S
C541 O520 1.254 1_545 S
O542 Zn512 2.066 . S
O542 C514 1.256 . S
O543 C514 1.244 . S
O543 Zn515 2.053 . S
Zn544 O545 2.055 1_545 S
Zn544 O552 2.046 . S
Zn544 N560 2.036 1_545 S
Zn544 O572 2.053 . S
Zn544 O574 2.066 1_545 S
O545 Zn544 2.055 1_565 S
O545 C548 1.259 . S
C546 O574 1.256 1_545 S
C546 O575 1.244 . S
Zn547 O549 2.046 . S
Zn547 O551 2.055 . S
Zn547 N553 2.036 . S
Zn547 O571 2.066 . S
Zn547 O575 2.053 . S
C548 O545 1.259 . S
C548 O549 1.254 1_565 S
O549 Zn547 2.046 . S
O549 C548 1.254 1_545 S
C550 O571 1.256 . S
C550 O572 1.244 . S
O551 Zn547 2.055 . S
O551 C573 1.259 . S
O552 Zn544 2.046 . S
O552 C573 1.254 . S
N553 Zn547 2.036 . S
N553 C554 1.298 . S
N553 N556 1.398 . S
C554 N553 1.298 . S
C554 N557 1.367 . S
C554 C567 1.481 . S
C555 N556 1.299 . S
C555 N557 1.379 . S
N556 N553 1.398 . S
N556 C555 1.299 . S
N557 C554 1.367 . S
N557 C555 1.379 . S
C558 N560 1.298 . S
C558 N562 1.367 . S
C558 C566 1.481 . S
C559 N561 1.299 1_565 S
C559 N562 1.379 . S
N560 Zn544 2.036 1_565 S
N560 C558 1.298 . S
N560 N561 1.398 1_565 S
N561 C559 1.299 1_545 S
N561 N560 1.398 1_545 S
N562 C558 1.367 . S
N562 C559 1.379 . S
H563 C566 0.980 . S
H564 C566 0.981 . S
H565 C566 0.981 . S
C566 C558 1.481 . S
C566 H563 0.980 . S
C566 H564 0.981 . S
C566 H565 0.981 . S
C567 C554 1.481 . S
C567 H568 0.980 . S
C567 H569 0.981 . S
C567 H570 0.981 . S
H568 C567 0.980 . S
H569 C567 0.981 . S
H570 C567 0.981 . S
O571 Zn547 2.066 . S
O571 C550 1.256 . S
O572 Zn544 2.053 . S
O572 C550 1.244 . S
C573 O551 1.259 . S
C573 O552 1.254 . S
O574 Zn544 2.066 1_565 S
O574 C546 1.256 1_565 S
O575 C546 1.244 . S
O575 Zn547 2.053 . S
Zn576 O577 2.055 . S
Zn576 O584 2.046 . S
Zn576 N592 2.036 . S
Zn576 O604 2.053 . S
Zn576 O606 2.066 . S
O577 Zn576 2.055 . S
O577 C580 1.259 . S
C578 O606 1.256 . S
C578 O607 1.244 . S
Zn579 O581 2.046 . S
Zn579 O583 2.055 . S
Zn579 N585 2.036 . S
Zn579 O603 2.066 . S
Zn579 O607 2.053 . S
C580 O577 1.259 . S
C580 O581 1.254 . S
O581 Zn579 2.046 . S
O581 C580 1.254 . S
C582 O603 1.256 . S
C582 O604 1.244 . S
O583 Zn579 2.055 . S
O583 C605 1.259 . S
O584 Zn576 2.046 . S
O584 C605 1.254 . S
N585 Zn579 2.036 . S
N585 C586 1.298 . S
N585 N588 1.398 . S
C586 N585 1.298 . S
C586 N589 1.367 . S
C586 C599 1.481 . S
C587 N588 1.299 . S
C587 N589 1.379 . S
N588 N585 1.398 . S
N588 C587 1.299 . S
N589 C586 1.367 . S
N589 C587 1.379 . S
C590 N592 1.298 . S
C590 N594 1.367 . S
C590 C598 1.481 . S
C591 N593 1.299 . S
C591 N594 1.379 . S
N592 Zn576 2.036 . S
N592 C590 1.298 . S
N592 N593 1.398 . S
N593 C591 1.299 . S
N593 N592 1.398 . S
N594 C590 1.367 . S
N594 C591 1.379 . S
H595 C598 0.980 . S
H596 C598 0.981 . S
H597 C598 0.981 . S
C598 C590 1.481 . S
C598 H595 0.980 . S
C598 H596 0.981 . S
C598 H597 0.981 . S
C599 C586 1.481 . S
C599 H600 0.980 . S
C599 H601 0.981 . S
C599 H602 0.981 . S
H600 C599 0.980 . S
H601 C599 0.981 . S
H602 C599 0.981 . S
O603 Zn579 2.066 . S
O603 C582 1.256 . S
O604 Zn576 2.053 . S
O604 C582 1.244 . S
C605 O583 1.259 . S
C605 O584 1.254 . S
O606 Zn576 2.066 . S
O606 C578 1.256 . S
O607 C578 1.244 . S
O607 Zn579 2.053 . S
Zn608 O609 2.055 . S
Zn608 O616 2.046 . S
Zn608 N624 2.036 . S
Zn608 O636 2.053 . S
Zn608 O638 2.066 . S
O609 Zn608 2.055 . S
O609 C612 1.259 . S
C610 O638 1.256 . S
C610 O639 1.244 . S
Zn611 O613 2.046 . S
Zn611 O615 2.055 . S
Zn611 N617 2.036 . S
Zn611 O635 2.066 . S
Zn611 O639 2.053 . S
C612 O609 1.259 . S
C612 O613 1.254 . S
O613 Zn611 2.046 . S
O613 C612 1.254 . S
C614 O635 1.256 . S
C614 O636 1.244 . S
O615 Zn611 2.055 . S
O615 C637 1.259 . S
O616 Zn608 2.046 . S
O616 C637 1.254 . S
N617 Zn611 2.036 . S
N617 C618 1.298 . S
N617 N620 1.398 . S
C618 N617 1.298 . S
C618 N621 1.367 . S
C618 C631 1.481 . S
C619 N620 1.299 . S
C619 N621 1.379 . S
N620 N617 1.398 . S
N620 C619 1.299 . S
N621 C618 1.367 . S
N621 C619 1.379 . S
C622 N624 1.298 . S
C622 N626 1.367 . S
C622 C630 1.481 . S
C623 N625 1.299 . S
C623 N626 1.379 . S
N624 Zn608 2.036 . S
N624 C622 1.298 . S
N624 N625 1.398 . S
N625 C623 1.299 . S
N625 N624 1.398 . S
N626 C622 1.367 . S
N626 C623 1.379 . S
H627 C630 0.980 . S
H628 C630 0.981 . S
H629 C630 0.981 . S
C630 C622 1.481 . S
C630 H627 0.980 . S
C630 H628 0.981 . S
C630 H629 0.981 . S
C631 C618 1.481 . S
C631 H632 0.980 . S
C631 H633 0.981 . S
C631 H634 0.981 . S
H632 C631 0.980 . S
H633 C631 0.981 . S
H634 C631 0.981 . S
O635 Zn611 2.066 . S
O635 C614 1.256 . S
O636 Zn608 2.053 . S
O636 C614 1.244 . S
C637 O615 1.259 . S
C637 O616 1.254 . S
O638 Zn608 2.066 . S
O638 C610 1.256 . S
O639 C610 1.244 . S
O639 Zn611 2.053 . S
Zn640 O641 2.055 1_556 S
Zn640 O648 2.046 . S
Zn640 N656 2.036 1_556 S
Zn640 O668 2.053 . S
Zn640 O670 2.066 1_556 S
O641 Zn640 2.055 1_554 S
O641 C644 1.259 . S
C642 O670 1.256 1_556 S
C642 O671 1.244 . S
Zn643 O645 2.046 . S
Zn643 O647 2.055 . S
Zn643 N649 2.036 . S
Zn643 O667 2.066 . S
Zn643 O671 2.053 . S
C644 O641 1.259 . S
C644 O645 1.254 1_554 S
O645 Zn643 2.046 . S
O645 C644 1.254 1_556 S
C646 O667 1.256 . S
C646 O668 1.244 . S
O647 Zn643 2.055 . S
O647 C669 1.259 . S
O648 Zn640 2.046 . S
O648 C669 1.254 . S
N649 Zn643 2.036 . S
N649 C650 1.298 . S
N649 N652 1.398 . S
C650 N649 1.298 . S
C650 N653 1.367 . S
C650 C663 1.481 . S
C651 N652 1.299 . S
C651 N653 1.379 . S
N652 N649 1.398 . S
N652 C651 1.299 . S
N653 C650 1.367 . S
N653 C651 1.379 . S
C654 N656 1.298 . S
C654 N658 1.367 . S
C654 C662 1.481 . S
C655 N657 1.299 1_554 S
C655 N658 1.379 . S
N656 Zn640 2.036 1_554 S
N656 C654 1.298 . S
N656 N657 1.398 1_554 S
N657 C655 1.299 1_556 S
N657 N656 1.398 1_556 S
N658 C654 1.367 . S
N658 C655 1.379 . S
H659 C662 0.980 . S
H660 C662 0.981 . S
H661 C662 0.981 . S
C662 C654 1.481 . S
C662 H659 0.980 . S
C662 H660 0.981 . S
C662 H661 0.981 . S
C663 C650 1.481 . S
C663 H664 0.980 . S
C663 H665 0.981 . S
C663 H666 0.981 . S
H664 C663 0.980 . S
H665 C663 0.981 . S
H666 C663 0.981 . S
O667 Zn643 2.066 . S
O667 C646 1.256 . S
O668 Zn640 2.053 . S
O668 C646 1.244 . S
C669 O647 1.259 . S
C669 O648 1.254 . S
O670 Zn640 2.066 1_554 S
O670 C642 1.256 1_554 S
O671 C642 1.244 . S
O671 Zn643 2.053 . S
Zn672 O673 2.055 1_554 S
Zn672 O680 2.046 . S
Zn672 N688 2.036 1_554 S
Zn672 O700 2.053 . S
Zn672 O702 2.066 1_554 S
O673 Zn672 2.055 1_556 S
O673 C676 1.259 . S
C674 O702 1.256 1_554 S
C674 O703 1.244 . S
Zn675 O677 2.046 . S
Zn675 O679 2.055 . S
Zn675 N681 2.036 . S
Zn675 O699 2.066 . S
Zn675 O703 2.053 . S
C676 O673 1.259 . S
C676 O677 1.254 1_556 S
O677 Zn675 2.046 . S
O677 C676 1.254 1_554 S
C678 O699 1.256 . S
C678 O700 1.244 . S
O679 Zn675 2.055 . S
O679 C701 1.259 . S
O680 Zn672 2.046 . S
O680 C701 1.254 . S
N681 Zn675 2.036 . S
N681 C682 1.298 . S
N681 N684 1.398 . S
C682 N681 1.298 . S
C682 N685 1.367 . S
C682 C695 1.481 . S
C683 N684 1.299 . S
C683 N685 1.379 . S
N684 N681 1.398 . S
N684 C683 1.299 . S
N685 C682 1.367 . S
N685 C683 1.379 . S
C686 N688 1.298 . S
C686 N690 1.367 . S
C686 C694 1.481 . S
C687 N689 1.299 1_556 S
C687 N690 1.379 . S
N688 Zn672 2.036 1_556 S
N688 C686 1.298 . S
N688 N689 1.398 1_556 S
N689 C687 1.299 1_554 S
N689 N688 1.398 1_554 S
N690 C686 1.367 . S
N690 C687 1.379 . S
H691 C694 0.980 . S
H692 C694 0.981 . S
H693 C694 0.981 . S
C694 C686 1.481 . S
C694 H691 0.980 . S
C694 H692 0.981 . S
C694 H693 0.981 . S
C695 C682 1.481 . S
C695 H696 0.980 . S
C695 H697 0.981 . S
C695 H698 0.981 . S
H696 C695 0.980 . S
H697 C695 0.981 . S
H698 C695 0.981 . S
O699 Zn675 2.066 . S
O699 C678 1.256 . S
O700 Zn672 2.053 . S
O700 C678 1.244 . S
C701 O679 1.259 . S
C701 O680 1.254 . S
O702 Zn672 2.066 1_556 S
O702 C674 1.256 1_556 S
O703 C674 1.244 . S
O703 Zn675 2.053 . S
Zn704 O705 2.055 . S
Zn704 O712 2.046 . S
Zn704 N720 2.036 . S
Zn704 O732 2.053 . S
Zn704 O734 2.066 . S
O705 Zn704 2.055 . S
O705 C708 1.259 . S
C706 O734 1.256 . S
C706 O735 1.244 . S
Zn707 O709 2.046 . S
Zn707 O711 2.055 . S
Zn707 N713 2.036 . S
Zn707 O731 2.066 . S
Zn707 O735 2.053 . S
C708 O705 1.259 . S
C708 O709 1.254 . S
O709 Zn707 2.046 . S
O709 C708 1.254 . S
C710 O731 1.256 . S
C710 O732 1.244 . S
O711 Zn707 2.055 . S
O711 C733 1.259 . S
O712 Zn704 2.046 . S
O712 C733 1.254 . S
N713 Zn707 2.036 . S
N713 C714 1.298 . S
N713 N716 1.398 . S
C714 N713 1.298 . S
C714 N717 1.367 . S
C714 C727 1.481 . S
C715 N716 1.299 . S
C715 N717 1.379 . S
N716 N713 1.398 . S
N716 C715 1.299 . S
N717 C714 1.367 . S
N717 C715 1.379 . S
C718 N720 1.298 . S
C718 N722 1.367 . S
C718 C726 1.481 . S
C719 N721 1.299 . S
C719 N722 1.379 . S
N720 Zn704 2.036 . S
N720 C718 1.298 . S
N720 N721 1.398 . S
N721 C719 1.299 . S
N721 N720 1.398 . S
N722 C718 1.367 . S
N722 C719 1.379 . S
H723 C726 0.980 . S
H724 C726 0.981 . S
H725 C726 0.981 . S
C726 C718 1.481 . S
C726 H723 0.980 . S
C726 H724 0.981 . S
C726 H725 0.981 . S
C727 C714 1.481 . S
C727 H728 0.980 . S
C727 H729 0.981 . S
C727 H730 0.981 . S
H728 C727 0.980 . S
H729 C727 0.981 . S
H730 C727 0.981 . S
O731 Zn707 2.066 . S
O731 C710 1.256 . S
O732 Zn704 2.053 . S
O732 C710 1.244 . S
C733 O711 1.259 . S
C733 O712 1.254 . S
O734 Zn704 2.066 . S
O734 C706 1.256 . S
O735 C706 1.244 . S
O735 Zn707 2.053 . S
Zn736 O737 2.055 . S
Zn736 O744 2.046 . S
Zn736 N752 2.036 . S
Zn736 O764 2.053 . S
Zn736 O766 2.066 . S
O737 Zn736 2.055 . S
O737 C740 1.259 . S
C738 O766 1.256 . S
C738 O767 1.244 . S
Zn739 O741 2.046 . S
Zn739 O743 2.055 . S
Zn739 N745 2.036 . S
Zn739 O763 2.066 . S
Zn739 O767 2.053 . S
C740 O737 1.259 . S
C740 O741 1.254 . S
O741 Zn739 2.046 . S
O741 C740 1.254 . S
C742 O763 1.256 . S
C742 O764 1.244 . S
O743 Zn739 2.055 . S
O743 C765 1.259 . S
O744 Zn736 2.046 . S
O744 C765 1.254 . S
N745 Zn739 2.036 . S
N745 C746 1.298 . S
N745 N748 1.398 . S
C746 N745 1.298 . S
C746 N749 1.367 . S
C746 C759 1.481 . S
C747 N748 1.299 . S
C747 N749 1.379 . S
N748 N745 1.398 . S
N748 C747 1.299 . S
N749 C746 1.367 . S
N749 C747 1.379 . S
C750 N752 1.298 . S
C750 N754 1.367 . S
C750 C758 1.481 . S
C751 N753 1.299 . S
C751 N754 1.379 . S
N752 Zn736 2.036 . S
N752 C750 1.298 . S
N752 N753 1.398 . S
N753 C751 1.299 . S
N753 N752 1.398 . S
N754 C750 1.367 . S
N754 C751 1.379 . S
H755 C758 0.980 . S
H756 C758 0.981 . S
H757 C758 0.981 . S
C758 C750 1.481 . S
C758 H755 0.980 . S
C758 H756 0.981 . S
C758 H757 0.981 . S
C759 C746 1.481 . S
C759 H760 0.980 . S
C759 H761 0.981 . S
C759 H762 0.981 . S
H760 C759 0.980 . S
H761 C759 0.981 . S
H762 C759 0.981 . S
O763 Zn739 2.066 . S
O763 C742 1.256 . S
O764 Zn736 2.053 . S
O764 C742 1.244 . S
C765 O743 1.259 . S
C765 O744 1.254 . S
O766 Zn736 2.066 . S
O766 C738 1.256 . S
O767 C738 1.244 . S
O767 Zn739 2.053 . S
C768 C769 1.363 . S
C768 C774 1.379 . S
C768 N776 1.356 . S
C769 C768 1.363 . S
C769 C775 1.363 . S
C770 C771 1.363 . S
C770 C775 1.379 . S
C770 N777 1.356 . S
C771 C770 1.363 . S
C771 C774 1.363 . S
N772 C774 1.356 . S
N772 H784 0.984 . S
N772 H785 0.985 . S
N773 C775 1.356 . S
N773 H778 0.984 . S
N773 H779 0.985 . S
C774 C768 1.379 . S
C774 C771 1.363 . S
C774 N772 1.356 . S
C775 C769 1.363 . S
C775 C770 1.379 . S
C775 N773 1.356 . S
N776 C768 1.356 . S
N776 H782 0.984 . S
N776 H783 0.984 . S
N777 C770 1.356 . S
N777 H780 0.984 . S
N777 H781 0.985 . S
H778 N773 0.984 . S
H779 N773 0.985 . S
H780 N777 0.984 . S
H781 N777 0.985 . S
H782 N776 0.984 . S
H783 N776 0.984 . S
H784 N772 0.984 . S
H785 N772 0.985 . S
C786 C787 1.363 . S
C786 C792 1.379 . S
C786 N794 1.356 . S
C787 C786 1.363 . S
C787 C793 1.363 . S
C788 C789 1.363 . S
C788 C793 1.379 . S
C788 N795 1.356 . S
C789 C788 1.363 . S
C789 C792 1.363 . S
N790 C792 1.356 . S
N790 H802 0.984 . S
N790 H803 0.985 . S
N791 C793 1.356 . S
N791 H796 0.984 . S
N791 H797 0.985 . S
C792 C786 1.379 . S
C792 C789 1.363 . S
C792 N790 1.356 . S
C793 C787 1.363 . S
C793 C788 1.379 . S
C793 N791 1.356 . S
N794 C786 1.356 . S
N794 H800 0.984 . S
N794 H801 0.984 . S
N795 C788 1.356 . S
N795 H798 0.984 . S
N795 H799 0.985 . S
H796 N791 0.984 . S
H797 N791 0.985 . S
H798 N795 0.984 . S
H799 N795 0.985 . S
H800 N794 0.984 . S
H801 N794 0.984 . S
H802 N790 0.984 . S
H803 N790 0.985 . S
C804 C805 1.363 . S
C804 C810 1.379 . S
C804 N812 1.356 . S
C805 C804 1.363 . S
C805 C811 1.363 . S
C806 C807 1.363 . S
C806 C811 1.379 . S
C806 N813 1.356 . S
C807 C806 1.363 . S
C807 C810 1.363 . S
N808 C810 1.356 . S
N808 H820 0.984 . S
N808 H821 0.985 1_545 S
N809 C811 1.356 . S
N809 H814 0.984 . S
N809 H815 0.985 . S
C810 C804 1.379 . S
C810 C807 1.363 . S
C810 N808 1.356 . S
C811 C805 1.363 . S
C811 C806 1.379 . S
C811 N809 1.356 . S
N812 C804 1.356 . S
N812 H818 0.984 . S
N812 H819 0.984 . S
N813 C806 1.356 . S
N813 H816 0.984 . S
N813 H817 0.985 . S
H814 N809 0.984 . S
H815 N809 0.985 . S
H816 N813 0.984 . S
H817 N813 0.985 . S
H818 N812 0.984 . S
H819 N812 0.984 . S
H820 N808 0.984 . S
H821 N808 0.985 1_565 S
C822 C823 1.363 . S
C822 C828 1.379 . S
C822 N830 1.356 . S
C823 C822 1.363 . S
C823 C829 1.363 . S
C824 C825 1.363 . S
C824 C829 1.379 . S
C824 N831 1.356 . S
C825 C824 1.363 . S
C825 C828 1.363 . S
N826 C828 1.356 . S
N826 H838 0.984 . S
N826 H839 0.985 . S
N827 C829 1.356 . S
N827 H832 0.984 . S
N827 H833 0.985 . S
C828 C822 1.379 . S
C828 C825 1.363 . S
C828 N826 1.356 . S
C829 C823 1.363 . S
C829 C824 1.379 . S
C829 N827 1.356 . S
N830 C822 1.356 . S
N830 H836 0.984 . S
N830 H837 0.984 . S
N831 C824 1.356 . S
N831 H834 0.984 1_565 S
N831 H835 0.985 . S
H832 N827 0.984 . S
H833 N827 0.985 . S
H834 N831 0.984 1_545 S
H835 N831 0.985 . S
H836 N830 0.984 . S
H837 N830 0.984 . S
H838 N826 0.984 . S
H839 N826 0.985 . S
C840 C841 1.363 . S
C840 C846 1.379 . S
C840 N848 1.356 . S
C841 C840 1.363 . S
C841 C847 1.363 . S
C842 C843 1.363 . S
C842 C847 1.379 . S
C842 N849 1.356 . S
C843 C842 1.363 . S
C843 C846 1.363 . S
N844 C846 1.356 . S
N844 H856 0.984 . S
N844 H857 0.985 . S
N845 C847 1.356 . S
N845 H850 0.984 . S
N845 H851 0.985 . S
C846 C840 1.379 . S
C846 C843 1.363 . S
C846 N844 1.356 . S
C847 C841 1.363 . S
C847 C842 1.379 . S
C847 N845 1.356 . S
N848 C840 1.356 . S
N848 H854 0.984 . S
N848 H855 0.984 . S
N849 C842 1.356 . S
N849 H852 0.984 . S
N849 H853 0.985 . S
H850 N845 0.984 . S
H851 N845 0.985 . S
H852 N849 0.984 . S
H853 N849 0.985 . S
H854 N848 0.984 . S
H855 N848 0.984 . S
H856 N844 0.984 . S
H857 N844 0.985 . S
C858 C859 1.363 . S
C858 C864 1.379 . S
C858 N866 1.356 . S
C859 C858 1.363 . S
C859 C865 1.363 . S
C860 C861 1.363 . S
C860 C865 1.379 . S
C860 N867 1.356 . S
C861 C860 1.363 . S
C861 C864 1.363 . S
N862 C864 1.356 . S
N862 H874 0.984 . S
N862 H875 0.985 1_556 S
N863 C865 1.356 . S
N863 H868 0.984 . S
N863 H869 0.985 . S
C864 C858 1.379 . S
C864 C861 1.363 . S
C864 N862 1.356 . S
C865 C859 1.363 . S
C865 C860 1.379 . S
C865 N863 1.356 . S
N866 C858 1.356 . S
N866 H872 0.984 . S
N866 H873 0.984 . S
N867 C860 1.356 . S
N867 H870 0.984 . S
N867 H871 0.985 . S
H868 N863 0.984 . S
H869 N863 0.985 . S
H870 N867 0.984 . S
H871 N867 0.985 . S
H872 N866 0.984 . S
H873 N866 0.984 . S
H874 N862 0.984 . S
H875 N862 0.985 1_554 S
C876 C877 1.363 . S
C876 C882 1.379 . S
C876 N884 1.356 . S
C877 C876 1.363 . S
C877 C883 1.363 . S
C878 C879 1.363 . S
C878 C883 1.379 . S
C878 N885 1.356 . S
C879 C878 1.363 . S
C879 C882 1.363 . S
N880 C882 1.356 . S
N880 H892 0.984 . S
N880 H893 0.985 . S
N881 C883 1.356 . S
N881 H886 0.984 . S
N881 H887 0.985 . S
C882 C876 1.379 . S
C882 C879 1.363 . S
C882 N880 1.356 . S
C883 C877 1.363 . S
C883 C878 1.379 . S
C883 N881 1.356 . S
N884 C876 1.356 . S
N884 H890 0.984 . S
N884 H891 0.984 . S
N885 C878 1.356 . S
N885 H888 0.984 . S
N885 H889 0.985 . S
H886 N881 0.984 . S
H887 N881 0.985 . S
H888 N885 0.984 . S
H889 N885 0.985 . S
H890 N884 0.984 . S
H891 N884 0.984 . S
H892 N880 0.984 . S
H893 N880 0.985 . S
C894 C895 1.363 . S
C894 C900 1.379 . S
C894 N902 1.356 . S
C895 C894 1.363 . S
C895 C901 1.363 . S
C896 C897 1.363 . S
C896 C901 1.379 . S
C896 N903 1.356 . S
C897 C896 1.363 . S
C897 C900 1.363 . S
N898 C900 1.356 . S
N898 H910 0.984 . S
N898 H911 0.985 . S
N899 C901 1.356 . S
N899 H904 0.984 . S
N899 H905 0.985 . S
C900 C894 1.379 . S
C900 C897 1.363 . S
C900 N898 1.356 . S
C901 C895 1.363 . S
C901 C896 1.379 . S
C901 N899 1.356 . S
N902 C894 1.356 . S
N902 H908 0.984 . S
N902 H909 0.984 . S
N903 C896 1.356 . S
N903 H906 0.984 . S
N903 H907 0.985 . S
H904 N899 0.984 . S
H905 N899 0.985 . S
H906 N903 0.984 . S
H907 N903 0.985 . S
H908 N902 0.984 . S
H909 N902 0.984 . S
H910 N898 0.984 . S
H911 N898 0.985 . S
C912 C913 1.363 . S
C912 C918 1.379 . S
C912 N920 1.356 . S
C913 C912 1.363 . S
C913 C919 1.363 . S
C914 C915 1.363 . S
C914 C919 1.379 . S
C914 N921 1.356 . S
C915 C914 1.363 . S
C915 C918 1.363 . S
N916 C918 1.356 . S
N916 H928 0.984 . S
N916 H929 0.985 . S
N917 C919 1.356 . S
N917 H922 0.984 . S
N917 H923 0.985 . S
C918 C912 1.379 . S
C918 C915 1.363 . S
C918 N916 1.356 . S
C919 C913 1.363 . S
C919 C914 1.379 . S
C919 N917 1.356 . S
N920 C912 1.356 . S
N920 H926 0.984 . S
N920 H927 0.984 . S
N921 C914 1.356 . S
N921 H924 0.984 . S
N921 H925 0.985 . S
H922 N917 0.984 . S
H923 N917 0.985 . S
H924 N921 0.984 . S
H925 N921 0.985 . S
H926 N920 0.984 . S
H927 N920 0.984 . S
H928 N916 0.984 . S
H929 N916 0.985 . S
C930 C931 1.363 . S
C930 C936 1.379 . S
C930 N938 1.356 . S
C931 C930 1.363 . S
C931 C937 1.363 . S
C932 C933 1.363 . S
C932 C937 1.379 . S
C932 N939 1.356 . S
C933 C932 1.363 . S
C933 C936 1.363 . S
N934 C936 1.356 . S
N934 H946 0.984 . S
N934 H947 0.985 1_655 S
N935 C937 1.356 . S
N935 H940 0.984 . S
N935 H941 0.985 . S
C936 C930 1.379 . S
C936 C933 1.363 . S
C936 N934 1.356 . S
C937 C931 1.363 . S
C937 C932 1.379 . S
C937 N935 1.356 . S
N938 C930 1.356 . S
N938 H944 0.984 . S
N938 H945 0.984 . S
N939 C932 1.356 . S
N939 H942 0.984 . S
N939 H943 0.985 . S
H940 N935 0.984 . S
H941 N935 0.985 . S
H942 N939 0.984 . S
H943 N939 0.985 . S
H944 N938 0.984 . S
H945 N938 0.984 . S
H946 N934 0.984 . S
H947 N934 0.985 1_455 S
C948 C949 1.363 . S
C948 C954 1.379 . S
C948 N956 1.356 . S
C949 C948 1.363 . S
C949 C955 1.363 . S
C950 C951 1.363 . S
C950 C955 1.379 . S
C950 N957 1.356 . S
C951 C950 1.363 . S
C951 C954 1.363 . S
N952 C954 1.356 . S
N952 H964 0.984 . S
N952 H965 0.985 . S
N953 C955 1.356 . S
N953 H958 0.984 . S
N953 H959 0.985 . S
C954 C948 1.379 . S
C954 C951 1.363 . S
C954 N952 1.356 . S
C955 C949 1.363 . S
C955 C950 1.379 . S
C955 N953 1.356 . S
N956 C948 1.356 . S
N956 H962 0.984 . S
N956 H963 0.984 . S
N957 C950 1.356 . S
N957 H960 0.984 . S
N957 H961 0.985 . S
H958 N953 0.984 . S
H959 N953 0.985 . S
H960 N957 0.984 . S
H961 N957 0.985 . S
H962 N956 0.984 . S
H963 N956 0.984 . S
H964 N952 0.984 . S
H965 N952 0.985 . S
C966 C967 1.363 . S
C966 C972 1.379 . S
C966 N974 1.356 . S
C967 C966 1.363 . S
C967 C973 1.363 . S
C968 C969 1.363 . S
C968 C973 1.379 . S
C968 N975 1.356 . S
C969 C968 1.363 . S
C969 C972 1.363 . S
N970 C972 1.356 . S
N970 H982 0.984 . S
N970 H983 0.985 . S
N971 C973 1.356 . S
N971 H976 0.984 . S
N971 H977 0.985 . S
C972 C966 1.379 . S
C972 C969 1.363 . S
C972 N970 1.356 . S
C973 C967 1.363 . S
C973 C968 1.379 . S
C973 N971 1.356 . S
N974 C966 1.356 . S
N974 H980 0.984 . S
N974 H981 0.984 . S
N975 C968 1.356 . S
N975 H978 0.984 . S
N975 H979 0.985 . S
H976 N971 0.984 . S
H977 N971 0.985 . S
H978 N975 0.984 . S
H979 N975 0.985 . S
H980 N974 0.984 . S
H981 N974 0.984 . S
H982 N970 0.984 . S
H983 N970 0.985 . S
C984 C985 1.363 . S
C984 C990 1.379 . S
C984 N992 1.356 . S
C985 C984 1.363 . S
C985 C991 1.363 . S
C986 C987 1.363 . S
C986 C991 1.379 . S
C986 N993 1.356 . S
C987 C986 1.363 . S
C987 C990 1.363 . S
N988 C990 1.356 . S
N988 H1000 0.984 . S
N988 H1001 0.985 . S
N989 C991 1.356 . S
N989 H994 0.984 . S
N989 H995 0.985 . S
C990 C984 1.379 . S
C990 C987 1.363 . S
C990 N988 1.356 . S
C991 C985 1.363 . S
C991 C986 1.379 . S
C991 N989 1.356 . S
N992 C984 1.356 . S
N992 H998 0.984 . S
N992 H999 0.984 . S
N993 C986 1.356 . S
N993 H996 0.984 . S
N993 H997 0.985 . S
H994 N989 0.984 . S
H995 N989 0.985 . S
H996 N993 0.984 . S
H997 N993 0.985 . S
H998 N992 0.984 . S
H999 N992 0.984 . S
H1000 N988 0.984 . S
H1001 N988 0.985 . S
C1002 C1003 1.363 . S
C1002 C1008 1.379 . S
C1002 N1010 1.356 . S
C1003 C1002 1.363 . S
C1003 C1009 1.363 . S
C1004 C1005 1.363 . S
C1004 C1009 1.379 . S
C1004 N1011 1.356 . S
C1005 C1004 1.363 . S
C1005 C1008 1.363 . S
N1006 C1008 1.356 . S
N1006 H1018 0.984 . S
N1006 H1019 0.985 . S
N1007 C1009 1.356 . S
N1007 H1012 0.984 . S
N1007 H1013 0.985 . S
C1008 C1002 1.379 . S
C1008 C1005 1.363 . S
C1008 N1006 1.356 . S
C1009 C1003 1.363 . S
C1009 C1004 1.379 . S
C1009 N1007 1.356 . S
N1010 C1002 1.356 . S
N1010 H1016 0.984 . S
N1010 H1017 0.984 . S
N1011 C1004 1.356 . S
N1011 H1014 0.984 . S
N1011 H1015 0.985 . S
H1012 N1007 0.984 . S
H1013 N1007 0.985 . S
H1014 N1011 0.984 . S
H1015 N1011 0.985 . S
H1016 N1010 0.984 . S
H1017 N1010 0.984 . S
H1018 N1006 0.984 . S
H1019 N1006 0.985 . S
C1020 C1021 1.363 . S
C1020 C1026 1.379 . S
C1020 N1028 1.356 . S
C1021 C1020 1.363 . S
C1021 C1027 1.363 . S
C1022 C1023 1.363 . S
C1022 C1027 1.379 . S
C1022 N1029 1.356 . S
C1023 C1022 1.363 . S
C1023 C1026 1.363 . S
N1024 C1026 1.356 . S
N1024 H1036 0.984 . S
N1024 H1037 0.985 1_565 S
N1025 C1027 1.356 . S
N1025 H1030 0.984 . S
N1025 H1031 0.985 . S
C1026 C1020 1.379 . S
C1026 C1023 1.363 . S
C1026 N1024 1.356 . S
C1027 C1021 1.363 . S
C1027 C1022 1.379 . S
C1027 N1025 1.356 . S
N1028 C1020 1.356 . S
N1028 H1034 0.984 . S
N1028 H1035 0.984 . S
N1029 C1022 1.356 . S
N1029 H1032 0.984 . S
N1029 H1033 0.985 . S
H1030 N1025 0.984 . S
H1031 N1025 0.985 . S
H1032 N1029 0.984 . S
H1033 N1029 0.985 . S
H1034 N1028 0.984 . S
H1035 N1028 0.984 . S
H1036 N1024 0.984 . S
H1037 N1024 0.985 1_545 S
C1038 C1039 1.363 . S
C1038 C1044 1.379 . S
C1038 N1046 1.356 . S
C1039 C1038 1.363 . S
C1039 C1045 1.363 . S
C1040 C1041 1.363 . S
C1040 C1045 1.379 . S
C1040 N1047 1.356 . S
C1041 C1040 1.363 . S
C1041 C1044 1.363 . S
N1042 C1044 1.356 . S
N1042 H1054 0.984 . S
N1042 H1055 0.985 . S
N1043 C1045 1.356 . S
N1043 H1048 0.984 1_545 S
N1043 H1049 0.985 . S
C1044 C1038 1.379 . S
C1044 C1041 1.363 . S
C1044 N1042 1.356 . S
C1045 C1039 1.363 . S
C1045 C1040 1.379 . S
C1045 N1043 1.356 . S
N1046 C1038 1.356 . S
N1046 H1052 0.984 . S
N1046 H1053 0.984 . S
N1047 C1040 1.356 . S
N1047 H1050 0.984 . S
N1047 H1051 0.985 . S
H1048 N1043 0.984 1_565 S
H1049 N1043 0.985 . S
H1050 N1047 0.984 . S
H1051 N1047 0.985 . S
H1052 N1046 0.984 . S
H1053 N1046 0.984 . S
H1054 N1042 0.984 . S
H1055 N1042 0.985 . S
C1056 C1057 1.363 . S
C1056 C1062 1.379 . S
C1056 N1064 1.356 . S
C1057 C1056 1.363 . S
C1057 C1063 1.363 . S
C1058 C1059 1.363 . S
C1058 C1063 1.379 . S
C1058 N1065 1.356 . S
C1059 C1058 1.363 . S
C1059 C1062 1.363 . S
N1060 C1062 1.356 . S
N1060 H1072 0.984 . S
N1060 H1073 0.985 . S
N1061 C1063 1.356 . S
N1061 H1066 0.984 . S
N1061 H1067 0.985 . S
C1062 C1056 1.379 . S
C1062 C1059 1.363 . S
C1062 N1060 1.356 . S
C1063 C1057 1.363 . S
C1063 C1058 1.379 . S
C1063 N1061 1.356 . S
N1064 C1056 1.356 . S
N1064 H1070 0.984 . S
N1064 H1071 0.984 . S
N1065 C1058 1.356 . S
N1065 H1068 0.984 . S
N1065 H1069 0.985 . S
H1066 N1061 0.984 . S
H1067 N1061 0.985 . S
H1068 N1065 0.984 . S
H1069 N1065 0.985 . S
H1070 N1064 0.984 . S
H1071 N1064 0.984 . S
H1072 N1060 0.984 . S
H1073 N1060 0.985 . S
C1074 C1075 1.363 . S
C1074 C1080 1.379 . S
C1074 N1082 1.356 . S
C1075 C1074 1.363 . S
C1075 C1081 1.363 . S
C1076 C1077 1.363 . S
C1076 C1081 1.379 . S
C1076 N1083 1.356 . S
C1077 C1076 1.363 . S
C1077 C1080 1.363 . S
N1078 C1080 1.356 . S
N1078 H1090 0.984 . S
N1078 H1091 0.985 . S
N1079 C1081 1.356 . S
N1079 H1084 0.984 . S
N1079 H1085 0.985 . S
C1080 C1074 1.379 . S
C1080 C1077 1.363 . S
C1080 N1078 1.356 . S
C1081 C1075 1.363 . S
C1081 C1076 1.379 . S
C1081 N1079 1.356 . S
N1082 C1074 1.356 . S
N1082 H1088 0.984 . S
N1082 H1089 0.984 . S
N1083 C1076 1.356 . S
N1083 H1086 0.984 . S
N1083 H1087 0.985 . S
H1084 N1079 0.984 . S
H1085 N1079 0.985 . S
H1086 N1083 0.984 . S
H1087 N1083 0.985 . S
H1088 N1082 0.984 . S
H1089 N1082 0.984 . S
H1090 N1078 0.984 . S
H1091 N1078 0.985 . S
C1092 C1093 1.363 . S
C1092 C1098 1.379 . S
C1092 N1100 1.356 . S
C1093 C1092 1.363 . S
C1093 C1099 1.363 . S
C1094 C1095 1.363 . S
C1094 C1099 1.379 . S
C1094 N1101 1.356 . S
C1095 C1094 1.363 . S
C1095 C1098 1.363 . S
N1096 C1098 1.356 . S
N1096 H1108 0.984 . S
N1096 H1109 0.985 . S
N1097 C1099 1.356 . S
N1097 H1102 0.984 . S
N1097 H1103 0.985 . S
C1098 C1092 1.379 . S
C1098 C1095 1.363 . S
C1098 N1096 1.356 . S
C1099 C1093 1.363 . S
C1099 C1094 1.379 . S
C1099 N1097 1.356 . S
N1100 C1092 1.356 . S
N1100 H1106 0.984 . S
N1100 H1107 0.984 . S
N1101 C1094 1.356 . S
N1101 H1104 0.984 . S
N1101 H1105 0.985 . S
H1102 N1097 0.984 . S
H1103 N1097 0.985 . S
H1104 N1101 0.984 . S
H1105 N1101 0.985 . S
H1106 N1100 0.984 . S
H1107 N1100 0.984 . S
H1108 N1096 0.984 . S
H1109 N1096 0.985 . S
C1110 C1111 1.363 . S
C1110 C1116 1.379 . S
C1110 N1118 1.356 . S
C1111 C1110 1.363 . S
C1111 C1117 1.363 . S
C1112 C1113 1.363 . S
C1112 C1117 1.379 . S
C1112 N1119 1.356 . S
C1113 C1112 1.363 . S
C1113 C1116 1.363 . S
N1114 C1116 1.356 . S
N1114 H1126 0.984 . S
N1114 H1127 0.985 . S
N1115 C1117 1.356 . S
N1115 H1120 0.984 . S
N1115 H1121 0.985 . S
C1116 C1110 1.379 . S
C1116 C1113 1.363 . S
C1116 N1114 1.356 . S
C1117 C1111 1.363 . S
C1117 C1112 1.379 . S
C1117 N1115 1.356 . S
N1118 C1110 1.356 . S
N1118 H1124 0.979 1_556 S
N1118 H1125 0.984 1_556 S
N1119 C1112 1.356 . S
N1119 H1122 0.984 . S
N1119 H1123 0.985 . S
H1120 N1115 0.984 . S
H1121 N1115 0.985 . S
H1122 N1119 0.984 . S
H1123 N1119 0.985 . S
H1124 N1118 0.979 1_554 S
H1125 N1118 0.984 1_554 S
H1126 N1114 0.984 . S
H1127 N1114 0.985 . S
C1128 C1129 1.363 . S
C1128 C1134 1.379 . S
C1128 N1136 1.356 . S
C1129 C1128 1.363 . S
C1129 C1135 1.363 . S
C1130 C1131 1.363 . S
C1130 C1135 1.379 . S
C1130 N1137 1.356 . S
C1131 C1130 1.363 . S
C1131 C1134 1.363 . S
N1132 C1134 1.356 . S
N1132 H1144 0.984 . S
N1132 H1145 0.985 . S
N1133 C1135 1.356 . S
N1133 H1138 0.984 . S
N1133 H1139 0.985 . S
C1134 C1128 1.379 . S
C1134 C1131 1.363 . S
C1134 N1132 1.356 . S
C1135 C1129 1.363 . S
C1135 C1130 1.379 . S
C1135 N1133 1.356 . S
N1136 C1128 1.356 . S
N1136 H1142 0.984 . S
N1136 H1143 0.984 . S
N1137 C1130 1.356 . S
N1137 H1140 0.984 . S
N1137 H1141 0.985 . S
H1138 N1133 0.984 . S
H1139 N1133 0.985 . S
H1140 N1137 0.984 . S
H1141 N1137 0.985 . S
H1142 N1136 0.984 . S
H1143 N1136 0.984 . S
H1144 N1132 0.984 . S
H1145 N1132 0.985 . S
C1146 C1147 1.363 . S
C1146 C1152 1.379 . S
C1146 N1154 1.356 . S
C1147 C1146 1.363 . S
C1147 C1153 1.363 . S
C1148 C1149 1.363 . S
C1148 C1153 1.379 . S
C1148 N1155 1.356 . S
C1149 C1148 1.363 . S
C1149 C1152 1.363 . S
N1150 C1152 1.356 . S
N1150 H1162 0.984 . S
N1150 H1163 0.985 . S
N1151 C1153 1.356 . S
N1151 H1156 0.984 . S
N1151 H1157 0.985 . S
C1152 C1146 1.379 . S
C1152 C1149 1.363 . S
C1152 N1150 1.356 . S
C1153 C1147 1.363 . S
C1153 C1148 1.379 . S
C1153 N1151 1.356 . S
N1154 C1146 1.356 . S
N1154 H1160 0.984 . S
N1154 H1161 0.984 1_455 S
N1155 C1148 1.356 . S
N1155 H1158 0.984 . S
N1155 H1159 0.985 . S
H1156 N1151 0.984 . S
H1157 N1151 0.985 . S
H1158 N1155 0.984 . S
H1159 N1155 0.985 . S
H1160 N1154 0.984 . S
H1161 N1154 0.984 1_655 S
H1162 N1150 0.984 . S
H1163 N1150 0.985 . S
C1164 C1165 1.363 . S
C1164 C1170 1.379 . S
C1164 N1172 1.356 . S
C1165 C1164 1.363 . S
C1165 C1171 1.363 . S
C1166 C1167 1.363 . S
C1166 C1171 1.379 . S
C1166 N1173 1.356 . S
C1167 C1166 1.363 . S
C1167 C1170 1.363 . S
N1168 C1170 1.356 . S
N1168 H1180 0.984 . S
N1168 H1181 0.985 . S
N1169 C1171 1.356 . S
N1169 H1174 0.984 . S
N1169 H1175 0.985 . S
C1170 C1164 1.379 . S
C1170 C1167 1.363 . S
C1170 N1168 1.356 . S
C1171 C1165 1.363 . S
C1171 C1166 1.379 . S
C1171 N1169 1.356 . S
N1172 C1164 1.356 . S
N1172 H1178 0.984 . S
N1172 H1179 0.984 . S
N1173 C1166 1.356 . S
N1173 H1176 0.984 . S
N1173 H1177 0.985 . S
H1174 N1169 0.984 . S
H1175 N1169 0.985 . S
H1176 N1173 0.984 . S
H1177 N1173 0.985 . S
H1178 N1172 0.984 . S
H1179 N1172 0.984 . S
H1180 N1168 0.984 . S
H1181 N1168 0.985 . S
C1182 C1183 1.363 . S
C1182 C1188 1.379 . S
C1182 N1190 1.356 . S
C1183 C1182 1.363 . S
C1183 C1189 1.363 . S
C1184 C1185 1.363 . S
C1184 C1189 1.379 . S
C1184 N1191 1.356 . S
C1185 C1184 1.363 . S
C1185 C1188 1.363 . S
N1186 C1188 1.356 . S
N1186 H1198 0.984 . S
N1186 H1199 0.985 . S
N1187 C1189 1.356 . S
N1187 H1192 0.984 . S
N1187 H1193 0.985 . S
C1188 C1182 1.379 . S
C1188 C1185 1.363 . S
C1188 N1186 1.356 . S
C1189 C1183 1.363 . S
C1189 C1184 1.379 . S
C1189 N1187 1.356 . S
N1190 C1182 1.356 . S
N1190 H1196 0.984 . S
N1190 H1197 0.984 . S
N1191 C1184 1.356 . S
N1191 H1194 0.984 1_655 S
N1191 H1195 0.985 . S
H1192 N1187 0.984 . S
H1193 N1187 0.985 . S
H1194 N1191 0.984 1_455 S
H1195 N1191 0.985 . S
H1196 N1190 0.984 . S
H1197 N1190 0.984 . S
H1198 N1186 0.984 . S
H1199 N1186 0.985 . S
C1200 C1201 1.363 . S
C1200 C1206 1.379 . S
C1200 N1208 1.356 . S
C1201 C1200 1.363 . S
C1201 C1207 1.363 . S
C1202 C1203 1.363 . S
C1202 C1207 1.379 . S
C1202 N1209 1.356 . S
C1203 C1202 1.363 . S
C1203 C1206 1.363 . S
N1204 C1206 1.356 . S
N1204 H1216 0.984 . S
N1204 H1217 0.985 . S
N1205 C1207 1.356 . S
N1205 H1210 0.984 . S
N1205 H1211 0.985 . S
C1206 C1200 1.379 . S
C1206 C1203 1.363 . S
C1206 N1204 1.356 . S
C1207 C1201 1.363 . S
C1207 C1202 1.379 . S
C1207 N1205 1.356 . S
N1208 C1200 1.356 . S
N1208 H1214 0.984 . S
N1208 H1215 0.984 . S
N1209 C1202 1.356 . S
N1209 H1212 0.984 . S
N1209 H1213 0.985 . S
H1210 N1205 0.984 . S
H1211 N1205 0.985 . S
H1212 N1209 0.984 . S
H1213 N1209 0.985 . S
H1214 N1208 0.984 . S
H1215 N1208 0.984 . S
H1216 N1204 0.984 . S
H1217 N1204 0.985 . S
C1218 C1219 1.363 . S
C1218 C1224 1.379 . S
C1218 N1226 1.356 . S
C1219 C1218 1.363 . S
C1219 C1225 1.363 . S
C1220 C1221 1.363 . S
C1220 C1225 1.379 . S
C1220 N1227 1.356 . S
C1221 C1220 1.363 . S
C1221 C1224 1.363 . S
N1222 C1224 1.356 . S
N1222 H1234 0.984 . S
N1222 H1235 0.985 . S
N1223 C1225 1.356 . S
N1223 H1228 0.984 . S
N1223 H1229 0.985 . S
C1224 C1218 1.379 . S
C1224 C1221 1.363 . S
C1224 N1222 1.356 . S
C1225 C1219 1.363 . S
C1225 C1220 1.379 . S
C1225 N1223 1.356 . S
N1226 C1218 1.356 . S
N1226 H1232 0.984 . S
N1226 H1233 0.984 . S
N1227 C1220 1.356 . S
N1227 H1230 0.984 . S
N1227 H1231 0.985 . S
H1228 N1223 0.984 . S
H1229 N1223 0.985 . S
H1230 N1227 0.984 . S
H1231 N1227 0.985 . S
H1232 N1226 0.984 . S
H1233 N1226 0.984 . S
H1234 N1222 0.984 . S
H1235 N1222 0.985 . S
C1236 C1237 1.363 . S
C1236 C1242 1.379 . S
C1236 N1244 1.356 . S
C1237 C1236 1.363 . S
C1237 C1243 1.363 . S
C1238 C1239 1.363 . S
C1238 C1243 1.379 . S
C1238 N1245 1.356 . S
C1239 C1238 1.363 . S
C1239 C1242 1.363 . S
N1240 C1242 1.356 . S
N1240 H1252 0.984 . S
N1240 H1253 0.985 . S
N1241 C1243 1.356 . S
N1241 H1246 0.984 . S
N1241 H1247 0.985 . S
C1242 C1236 1.379 . S
C1242 C1239 1.363 . S
C1242 N1240 1.356 . S
C1243 C1237 1.363 . S
C1243 C1238 1.379 . S
C1243 N1241 1.356 . S
N1244 C1236 1.356 . S
N1244 H1250 0.984 . S
N1244 H1251 0.984 . S
N1245 C1238 1.356 . S
N1245 H1248 0.984 . S
N1245 H1249 0.985 . S
H1246 N1241 0.984 . S
H1247 N1241 0.985 . S
H1248 N1245 0.984 . S
H1249 N1245 0.985 . S
H1250 N1244 0.984 . S
H1251 N1244 0.984 . S
H1252 N1240 0.984 . S
H1253 N1240 0.985 . S
C1254 C1255 1.363 . S
C1254 C1260 1.379 . S
C1254 N1262 1.356 . S
C1255 C1254 1.363 . S
C1255 C1261 1.363 . S
C1256 C1257 1.363 . S
C1256 C1261 1.379 . S
C1256 N1263 1.356 . S
C1257 C1256 1.363 . S
C1257 C1260 1.363 . S
N1258 C1260 1.356 . S
N1258 H1270 0.984 . S
N1258 H1271 0.985 . S
N1259 C1261 1.356 . S
N1259 H1264 0.984 . S
N1259 H1265 0.985 . S
C1260 C1254 1.379 . S
C1260 C1257 1.363 . S
C1260 N1258 1.356 . S
C1261 C1255 1.363 . S
C1261 C1256 1.379 . S
C1261 N1259 1.356 . S
N1262 C1254 1.356 . S
N1262 H1268 0.984 . S
N1262 H1269 0.984 . S
N1263 C1256 1.356 . S
N1263 H1266 0.984 . S
N1263 H1267 0.985 . S
H1264 N1259 0.984 . S
H1265 N1259 0.985 . S
H1266 N1263 0.984 . S
H1267 N1263 0.985 . S
H1268 N1262 0.984 . S
H1269 N1262 0.984 . S
H1270 N1258 0.984 . S
H1271 N1258 0.985 . S
C1272 C1273 1.363 . S
C1272 C1278 1.379 . S
C1272 N1280 1.356 . S
C1273 C1272 1.363 . S
C1273 C1279 1.363 . S
C1274 C1275 1.363 . S
C1274 C1279 1.379 . S
C1274 N1281 1.356 . S
C1275 C1274 1.363 . S
C1275 C1278 1.363 . S
N1276 C1278 1.356 . S
N1276 H1288 0.984 . S
N1276 H1289 0.985 . S
N1277 C1279 1.356 . S
N1277 H1282 0.984 . S
N1277 H1283 0.985 . S
C1278 C1272 1.379 . S
C1278 C1275 1.363 . S
C1278 N1276 1.356 . S
C1279 C1273 1.363 . S
C1279 C1274 1.379 . S
C1279 N1277 1.356 . S
N1280 C1272 1.356 . S
N1280 H1286 0.984 . S
N1280 H1287 0.984 . S
N1281 C1274 1.356 . S
N1281 H1284 0.984 . S
N1281 H1285 0.985 . S
H1282 N1277 0.984 . S
H1283 N1277 0.985 . S
H1284 N1281 0.984 . S
H1285 N1281 0.985 . S
H1286 N1280 0.984 . S
H1287 N1280 0.984 . S
H1288 N1276 0.984 . S
H1289 N1276 0.985 . S
C1290 C1291 1.363 . S
C1290 C1296 1.379 . S
C1290 N1298 1.356 . S
C1291 C1290 1.363 . S
C1291 C1297 1.363 . S
C1292 C1293 1.363 . S
C1292 C1297 1.379 . S
C1292 N1299 1.356 . S
C1293 C1292 1.363 . S
C1293 C1296 1.363 . S
N1294 C1296 1.356 . S
N1294 H1306 0.984 . S
N1294 H1307 0.985 . S
N1295 C1297 1.356 . S
N1295 H1300 0.984 . S
N1295 H1301 0.985 . S
C1296 C1290 1.379 . S
C1296 C1293 1.363 . S
C1296 N1294 1.356 . S
C1297 C1291 1.363 . S
C1297 C1292 1.379 . S
C1297 N1295 1.356 . S
N1298 C1290 1.356 . S
N1298 H1304 0.984 . S
N1298 H1305 0.984 . S
N1299 C1292 1.356 . S
N1299 H1302 0.984 . S
N1299 H1303 0.985 . S
H1300 N1295 0.984 . S
H1301 N1295 0.985 . S
H1302 N1299 0.984 . S
H1303 N1299 0.985 . S
H1304 N1298 0.984 . S
H1305 N1298 0.984 . S
H1306 N1294 0.984 . S
H1307 N1294 0.985 . S
C1308 C1309 1.363 . S
C1308 C1314 1.379 . S
C1308 N1316 1.356 . S
C1309 C1308 1.363 . S
C1309 C1315 1.363 . S
C1310 C1311 1.363 . S
C1310 C1315 1.379 . S
C1310 N1317 1.356 . S
C1311 C1310 1.363 . S
C1311 C1314 1.363 . S
N1312 C1314 1.356 . S
N1312 H1324 0.984 . S
N1312 H1325 0.985 . S
N1313 C1315 1.356 . S
N1313 H1318 0.984 . S
N1313 H1319 0.985 . S
C1314 C1308 1.379 . S
C1314 C1311 1.363 . S
C1314 N1312 1.356 . S
C1315 C1309 1.363 . S
C1315 C1310 1.379 . S
C1315 N1313 1.356 . S
N1316 C1308 1.356 . S
N1316 H1322 0.984 . S
N1316 H1323 0.984 . S
N1317 C1310 1.356 . S
N1317 H1320 0.984 . S
N1317 H1321 0.985 . S
H1318 N1313 0.984 . S
H1319 N1313 0.985 . S
H1320 N1317 0.984 . S
H1321 N1317 0.985 . S
H1322 N1316 0.984 . S
H1323 N1316 0.984 . S
H1324 N1312 0.984 . S
H1325 N1312 0.985 . S
C1326 C1327 1.363 . S
C1326 C1332 1.379 . S
C1326 N1334 1.356 . S
C1327 C1326 1.363 . S
C1327 C1333 1.363 . S
C1328 C1329 1.363 . S
C1328 C1333 1.379 . S
C1328 N1335 1.356 . S
C1329 C1328 1.363 . S
C1329 C1332 1.363 . S
N1330 C1332 1.356 . S
N1330 H1342 0.984 . S
N1330 H1343 0.985 . S
N1331 C1333 1.356 . S
N1331 H1336 0.984 . S
N1331 H1337 0.985 . S
C1332 C1326 1.379 . S
C1332 C1329 1.363 . S
C1332 N1330 1.356 . S
C1333 C1327 1.363 . S
C1333 C1328 1.379 . S
C1333 N1331 1.356 . S
N1334 C1326 1.356 . S
N1334 H1340 0.984 . S
N1334 H1341 0.984 . S
N1335 C1328 1.356 . S
N1335 H1338 0.984 . S
N1335 H1339 0.985 . S
H1336 N1331 0.984 . S
H1337 N1331 0.985 . S
H1338 N1335 0.984 . S
H1339 N1335 0.985 . S
H1340 N1334 0.984 . S
H1341 N1334 0.984 . S
H1342 N1330 0.984 . S
H1343 N1330 0.985 . S
C1344 C1345 1.363 . S
C1344 C1350 1.379 . S
C1344 N1352 1.356 . S
C1345 C1344 1.363 . S
C1345 C1351 1.363 . S
C1346 C1347 1.363 . S
C1346 C1351 1.379 . S
C1346 N1353 1.356 . S
C1347 C1346 1.363 . S
C1347 C1350 1.363 . S
N1348 C1350 1.356 . S
N1348 H1360 0.984 . S
N1348 H1361 0.985 . S
N1349 C1351 1.356 . S
N1349 H1354 0.984 . S
N1349 H1355 0.985 . S
C1350 C1344 1.379 . S
C1350 C1347 1.363 . S
C1350 N1348 1.356 . S
C1351 C1345 1.363 . S
C1351 C1346 1.379 . S
C1351 N1349 1.356 . S
N1352 C1344 1.356 . S
N1352 H1358 0.984 . S
N1352 H1359 0.984 . S
N1353 C1346 1.356 . S
N1353 H1356 0.984 . S
N1353 H1357 0.985 . S
H1354 N1349 0.984 . S
H1355 N1349 0.985 . S
H1356 N1353 0.984 . S
H1357 N1353 0.985 . S
H1358 N1352 0.984 . S
H1359 N1352 0.984 . S
H1360 N1348 0.984 . S
H1361 N1348 0.985 . S
C1362 C1363 1.363 . S
C1362 C1368 1.379 . S
C1362 N1370 1.356 . S
C1363 C1362 1.363 . S
C1363 C1369 1.363 . S
C1364 C1365 1.363 . S
C1364 C1369 1.379 . S
C1364 N1371 1.356 . S
C1365 C1364 1.363 . S
C1365 C1368 1.363 . S
N1366 C1368 1.356 . S
N1366 H1378 0.984 . S
N1366 H1379 0.985 . S
N1367 C1369 1.356 . S
N1367 H1372 0.984 . S
N1367 H1373 0.985 . S
C1368 C1362 1.379 . S
C1368 C1365 1.363 . S
C1368 N1366 1.356 . S
C1369 C1363 1.363 . S
C1369 C1364 1.379 . S
C1369 N1367 1.356 . S
N1370 C1362 1.356 . S
N1370 H1376 0.984 . S
N1370 H1377 0.984 . S
N1371 C1364 1.356 . S
N1371 H1374 0.984 . S
N1371 H1375 0.985 . S
H1372 N1367 0.984 . S
H1373 N1367 0.985 . S
H1374 N1371 0.984 . S
H1375 N1371 0.985 . S
H1376 N1370 0.984 . S
H1377 N1370 0.984 . S
H1378 N1366 0.984 . S
H1379 N1366 0.985 . S
C1380 C1381 1.363 . S
C1380 C1386 1.379 . S
C1380 N1388 1.356 . S
C1381 C1380 1.363 . S
C1381 C1387 1.363 . S
C1382 C1383 1.363 . S
C1382 C1387 1.379 . S
C1382 N1389 1.356 . S
C1383 C1382 1.363 . S
C1383 C1386 1.363 . S
N1384 C1386 1.356 . S
N1384 H1396 0.984 . S
N1384 H1397 0.985 . S
N1385 C1387 1.356 . S
N1385 H1390 0.984 . S
N1385 H1391 0.985 . S
C1386 C1380 1.379 . S
C1386 C1383 1.363 . S
C1386 N1384 1.356 . S
C1387 C1381 1.363 . S
C1387 C1382 1.379 . S
C1387 N1385 1.356 . S
N1388 C1380 1.356 . S
N1388 H1394 0.984 . S
N1388 H1395 0.984 . S
N1389 C1382 1.356 . S
N1389 H1392 0.984 . S
N1389 H1393 0.985 . S
H1390 N1385 0.984 . S
H1391 N1385 0.985 . S
H1392 N1389 0.984 . S
H1393 N1389 0.985 . S
H1394 N1388 0.984 . S
H1395 N1388 0.984 . S
H1396 N1384 0.984 . S
H1397 N1384 0.985 . S
C1398 C1399 1.363 . S
C1398 C1404 1.379 . S
C1398 N1406 1.356 . S
C1399 C1398 1.363 . S
C1399 C1405 1.363 . S
C1400 C1401 1.363 . S
C1400 C1405 1.379 . S
C1400 N1407 1.356 . S
C1401 C1400 1.363 . S
C1401 C1404 1.363 . S
N1402 C1404 1.356 . S
N1402 H1414 0.984 . S
N1402 H1415 0.985 . S
N1403 C1405 1.356 . S
N1403 H1408 0.984 . S
N1403 H1409 0.985 . S
C1404 C1398 1.379 . S
C1404 C1401 1.363 . S
C1404 N1402 1.356 . S
C1405 C1399 1.363 . S
C1405 C1400 1.379 . S
C1405 N1403 1.356 . S
N1406 C1398 1.356 . S
N1406 H1412 0.984 . S
N1406 H1413 0.984 . S
N1407 C1400 1.356 . S
N1407 H1410 0.984 . S
N1407 H1411 0.985 . S
H1408 N1403 0.984 . S
H1409 N1403 0.985 . S
H1410 N1407 0.984 . S
H1411 N1407 0.985 . S
H1412 N1406 0.984 . S
H1413 N1406 0.984 . S
H1414 N1402 0.984 . S
H1415 N1402 0.985 . S
C1416 C1417 1.363 . S
C1416 C1422 1.379 . S
C1416 N1424 1.356 . S
C1417 C1416 1.363 . S
C1417 C1423 1.363 . S
C1418 C1419 1.363 . S
C1418 C1423 1.379 . S
C1418 N1425 1.356 . S
C1419 C1418 1.363 . S
C1419 C1422 1.363 . S
N1420 C1422 1.356 . S
N1420 H1432 0.984 . S
N1420 H1433 0.985 . S
N1421 C1423 1.356 . S
N1421 H1426 0.984 . S
N1421 H1427 0.985 . S
C1422 C1416 1.379 . S
C1422 C1419 1.363 . S
C1422 N1420 1.356 . S
C1423 C1417 1.363 . S
C1423 C1418 1.379 . S
C1423 N1421 1.356 . S
N1424 C1416 1.356 . S
N1424 H1430 0.984 . S
N1424 H1431 0.984 . S
N1425 C1418 1.356 . S
N1425 H1428 0.984 . S
N1425 H1429 0.985 . S
H1426 N1421 0.984 . S
H1427 N1421 0.985 . S
H1428 N1425 0.984 . S
H1429 N1425 0.985 . S
H1430 N1424 0.984 . S
H1431 N1424 0.984 . S
H1432 N1420 0.984 . S
H1433 N1420 0.985 . S
C1434 C1435 1.363 . S
C1434 C1440 1.379 . S
C1434 N1442 1.356 . S
C1435 C1434 1.363 . S
C1435 C1441 1.363 . S
C1436 C1437 1.363 . S
C1436 C1441 1.379 . S
C1436 N1443 1.356 . S
C1437 C1436 1.363 . S
C1437 C1440 1.363 . S
N1438 C1440 1.356 . S
N1438 H1450 0.984 . S
N1438 H1451 0.985 . S
N1439 C1441 1.356 . S
N1439 H1444 0.984 . S
N1439 H1445 0.985 . S
C1440 C1434 1.379 . S
C1440 C1437 1.363 . S
C1440 N1438 1.356 . S
C1441 C1435 1.363 . S
C1441 C1436 1.379 . S
C1441 N1439 1.356 . S
N1442 C1434 1.356 . S
N1442 H1448 0.984 . S
N1442 H1449 0.984 . S
N1443 C1436 1.356 . S
N1443 H1446 0.984 . S
N1443 H1447 0.985 . S
H1444 N1439 0.984 . S
H1445 N1439 0.985 . S
H1446 N1443 0.984 . S
H1447 N1443 0.985 . S
H1448 N1442 0.984 . S
H1449 N1442 0.984 . S
H1450 N1438 0.984 . S
H1451 N1438 0.985 . S
C1452 C1453 1.363 . S
C1452 C1458 1.379 . S
C1452 N1460 1.356 . S
C1453 C1452 1.363 . S
C1453 C1459 1.363 . S
C1454 C1455 1.363 . S
C1454 C1459 1.379 . S
C1454 N1461 1.356 . S
C1455 C1454 1.363 . S
C1455 C1458 1.363 . S
N1456 C1458 1.356 . S
N1456 H1468 0.984 . S
N1456 H1469 0.985 . S
N1457 C1459 1.356 . S
N1457 H1462 0.984 . S
N1457 H1463 0.985 . S
C1458 C1452 1.379 . S
C1458 C1455 1.363 . S
C1458 N1456 1.356 . S
C1459 C1453 1.363 . S
C1459 C1454 1.379 . S
C1459 N1457 1.356 . S
N1460 C1452 1.356 . S
N1460 H1466 0.984 . S
N1460 H1467 0.984 . S
N1461 C1454 1.356 . S
N1461 H1464 0.984 . S
N1461 H1465 0.985 . S
H1462 N1457 0.984 . S
H1463 N1457 0.985 . S
H1464 N1461 0.984 . S
H1465 N1461 0.985 . S
H1466 N1460 0.984 . S
H1467 N1460 0.984 . S
H1468 N1456 0.984 . S
H1469 N1456 0.985 . S
C1470 C1471 1.363 . S
C1470 C1476 1.379 . S
C1470 N1478 1.356 . S
C1471 C1470 1.363 . S
C1471 C1477 1.363 . S
C1472 C1473 1.363 . S
C1472 C1477 1.379 . S
C1472 N1479 1.356 . S
C1473 C1472 1.363 . S
C1473 C1476 1.363 . S
N1474 C1476 1.356 . S
N1474 H1486 0.984 . S
N1474 H1487 0.985 . S
N1475 C1477 1.356 . S
N1475 H1480 0.984 . S
N1475 H1481 0.985 . S
C1476 C1470 1.379 . S
C1476 C1473 1.363 . S
C1476 N1474 1.356 . S
C1477 C1471 1.363 . S
C1477 C1472 1.379 . S
C1477 N1475 1.356 . S
N1478 C1470 1.356 . S
N1478 H1484 0.984 . S
N1478 H1485 0.984 . S
N1479 C1472 1.356 . S
N1479 H1482 0.984 . S
N1479 H1483 0.985 . S
H1480 N1475 0.984 . S
H1481 N1475 0.985 . S
H1482 N1479 0.984 . S
H1483 N1479 0.985 . S
H1484 N1478 0.984 . S
H1485 N1478 0.984 . S
H1486 N1474 0.984 . S
H1487 N1474 0.985 . S
C1488 C1489 1.363 . S
C1488 C1494 1.379 . S
C1488 N1496 1.356 . S
C1489 C1488 1.363 . S
C1489 C1495 1.363 . S
C1490 C1491 1.363 . S
C1490 C1495 1.379 . S
C1490 N1497 1.356 . S
C1491 C1490 1.363 . S
C1491 C1494 1.363 . S
N1492 C1494 1.356 . S
N1492 H1504 0.984 . S
N1492 H1505 0.985 . S
N1493 C1495 1.356 . S
N1493 H1498 0.984 . S
N1493 H1499 0.985 . S
C1494 C1488 1.379 . S
C1494 C1491 1.363 . S
C1494 N1492 1.356 . S
C1495 C1489 1.363 . S
C1495 C1490 1.379 . S
C1495 N1493 1.356 . S
N1496 C1488 1.356 . S
N1496 H1502 0.984 . S
N1496 H1503 0.984 . S
N1497 C1490 1.356 . S
N1497 H1500 0.984 . S
N1497 H1501 0.985 . S
H1498 N1493 0.984 . S
H1499 N1493 0.985 . S
H1500 N1497 0.984 . S
H1501 N1497 0.985 . S
H1502 N1496 0.984 . S
H1503 N1496 0.984 . S
H1504 N1492 0.984 . S
H1505 N1492 0.985 . S
C1506 C1507 1.363 . S
C1506 C1512 1.379 . S
C1506 N1514 1.356 . S
C1507 C1506 1.363 . S
C1507 C1513 1.363 . S
C1508 C1509 1.363 . S
C1508 C1513 1.379 . S
C1508 N1515 1.356 . S
C1509 C1508 1.363 . S
C1509 C1512 1.363 . S
N1510 C1512 1.356 . S
N1510 H1522 0.984 . S
N1510 H1523 0.985 . S
N1511 C1513 1.356 . S
N1511 H1516 0.984 . S
N1511 H1517 0.985 . S
C1512 C1506 1.379 . S
C1512 C1509 1.363 . S
C1512 N1510 1.356 . S
C1513 C1507 1.363 . S
C1513 C1508 1.379 . S
C1513 N1511 1.356 . S
N1514 C1506 1.356 . S
N1514 H1520 0.984 . S
N1514 H1521 0.984 . S
N1515 C1508 1.356 . S
N1515 H1518 0.984 . S
N1515 H1519 0.985 . S
H1516 N1511 0.984 . S
H1517 N1511 0.985 . S
H1518 N1515 0.984 . S
H1519 N1515 0.985 . S
H1520 N1514 0.984 . S
H1521 N1514 0.984 . S
H1522 N1510 0.984 . S
H1523 N1510 0.985 . S
C1524 C1525 1.363 . S
C1524 C1530 1.379 . S
C1524 N1532 1.356 . S
C1525 C1524 1.363 . S
C1525 C1531 1.363 . S
C1526 C1527 1.363 . S
C1526 C1531 1.379 . S
C1526 N1533 1.356 . S
C1527 C1526 1.363 . S
C1527 C1530 1.363 . S
N1528 C1530 1.356 . S
N1528 H1540 0.984 . S
N1528 H1541 0.985 . S
N1529 C1531 1.356 . S
N1529 H1534 0.984 . S
N1529 H1535 0.985 . S
C1530 C1524 1.379 . S
C1530 C1527 1.363 . S
C1530 N1528 1.356 . S
C1531 C1525 1.363 . S
C1531 C1526 1.379 . S
C1531 N1529 1.356 . S
N1532 C1524 1.356 . S
N1532 H1538 0.984 . S
N1532 H1539 0.984 . S
N1533 C1526 1.356 . S
N1533 H1536 0.984 . S
N1533 H1537 0.985 . S
H1534 N1529 0.984 . S
H1535 N1529 0.985 . S
H1536 N1533 0.984 . S
H1537 N1533 0.985 . S
H1538 N1532 0.984 . S
H1539 N1532 0.984 . S
H1540 N1528 0.984 . S
H1541 N1528 0.985 . S
C1542 C1543 1.363 . S
C1542 C1548 1.379 . S
C1542 N1550 1.356 . S
C1543 C1542 1.363 . S
C1543 C1549 1.363 . S
C1544 C1545 1.363 . S
C1544 C1549 1.379 . S
C1544 N1551 1.356 . S
C1545 C1544 1.363 . S
C1545 C1548 1.363 . S
N1546 C1548 1.356 . S
N1546 H1558 0.984 . S
N1546 H1559 0.985 . S
N1547 C1549 1.356 . S
N1547 H1552 0.984 . S
N1547 H1553 0.985 . S
C1548 C1542 1.379 . S
C1548 C1545 1.363 . S
C1548 N1546 1.356 . S
C1549 C1543 1.363 . S
C1549 C1544 1.379 . S
C1549 N1547 1.356 . S
N1550 C1542 1.356 . S
N1550 H1556 0.984 . S
N1550 H1557 0.984 . S
N1551 C1544 1.356 . S
N1551 H1554 0.984 . S
N1551 H1555 0.985 . S
H1552 N1547 0.984 . S
H1553 N1547 0.985 . S
H1554 N1551 0.984 . S
H1555 N1551 0.985 . S
H1556 N1550 0.984 . S
H1557 N1550 0.984 . S
H1558 N1546 0.984 . S
H1559 N1546 0.985 . S
C1560 C1561 1.363 . S
C1560 C1566 1.379 . S
C1560 N1568 1.356 . S
C1561 C1560 1.363 . S
C1561 C1567 1.363 . S
C1562 C1563 1.363 . S
C1562 C1567 1.379 . S
C1562 N1569 1.356 . S
C1563 C1562 1.363 . S
C1563 C1566 1.363 . S
N1564 C1566 1.356 . S
N1564 H1576 0.984 . S
N1564 H1577 0.985 . S
N1565 C1567 1.356 . S
N1565 H1570 0.984 . S
N1565 H1571 0.985 . S
C1566 C1560 1.379 . S
C1566 C1563 1.363 . S
C1566 N1564 1.356 . S
C1567 C1561 1.363 . S
C1567 C1562 1.379 . S
C1567 N1565 1.356 . S
N1568 C1560 1.356 . S
N1568 H1574 0.984 . S
N1568 H1575 0.984 . S
N1569 C1562 1.356 . S
N1569 H1572 0.984 . S
N1569 H1573 0.985 . S
H1570 N1565 0.984 . S
H1571 N1565 0.985 . S
H1572 N1569 0.984 . S
H1573 N1569 0.985 . S
H1574 N1568 0.984 . S
H1575 N1568 0.984 . S
H1576 N1564 0.984 . S
H1577 N1564 0.985 . S
C1578 C1579 1.363 . S
C1578 C1584 1.379 . S
C1578 N1586 1.356 . S
C1579 C1578 1.363 . S
C1579 C1585 1.363 . S
C1580 C1581 1.363 . S
C1580 C1585 1.379 . S
C1580 N1587 1.356 . S
C1581 C1580 1.363 . S
C1581 C1584 1.363 . S
N1582 C1584 1.356 . S
N1582 H1594 0.984 . S
N1582 H1595 0.985 . S
N1583 C1585 1.356 . S
N1583 H1588 0.984 . S
N1583 H1589 0.985 . S
C1584 C1578 1.379 . S
C1584 C1581 1.363 . S
C1584 N1582 1.356 . S
C1585 C1579 1.363 . S
C1585 C1580 1.379 . S
C1585 N1583 1.356 . S
N1586 C1578 1.356 . S
N1586 H1592 0.984 . S
N1586 H1593 0.984 . S
N1587 C1580 1.356 . S
N1587 H1590 0.984 . S
N1587 H1591 0.985 . S
H1588 N1583 0.984 . S
H1589 N1583 0.985 . S
H1590 N1587 0.984 . S
H1591 N1587 0.985 . S
H1592 N1586 0.984 . S
H1593 N1586 0.984 . S
H1594 N1582 0.984 . S
H1595 N1582 0.985 . S
C1596 C1597 1.363 . S
C1596 C1602 1.379 . S
C1596 N1604 1.356 . S
C1597 C1596 1.363 . S
C1597 C1603 1.363 . S
C1598 C1599 1.363 . S
C1598 C1603 1.379 . S
C1598 N1605 1.356 . S
C1599 C1598 1.363 . S
C1599 C1602 1.363 . S
N1600 C1602 1.356 . S
N1600 H1612 0.984 . S
N1600 H1613 0.985 . S
N1601 C1603 1.356 . S
N1601 H1606 0.984 . S
N1601 H1607 0.985 . S
C1602 C1596 1.379 . S
C1602 C1599 1.363 . S
C1602 N1600 1.356 . S
C1603 C1597 1.363 . S
C1603 C1598 1.379 . S
C1603 N1601 1.356 . S
N1604 C1596 1.356 . S
N1604 H1610 0.984 . S
N1604 H1611 0.984 . S
N1605 C1598 1.356 . S
N1605 H1608 0.984 . S
N1605 H1609 0.985 . S
H1606 N1601 0.984 . S
H1607 N1601 0.985 . S
H1608 N1605 0.984 . S
H1609 N1605 0.985 . S
H1610 N1604 0.984 . S
H1611 N1604 0.984 . S
H1612 N1600 0.984 . S
H1613 N1600 0.985 . S
C1614 C1615 1.363 . S
C1614 C1620 1.379 . S
C1614 N1622 1.356 . S
C1615 C1614 1.363 . S
C1615 C1621 1.363 . S
C1616 C1617 1.363 . S
C1616 C1621 1.379 . S
C1616 N1623 1.356 . S
C1617 C1616 1.363 . S
C1617 C1620 1.363 . S
N1618 C1620 1.356 . S
N1618 H1630 0.984 . S
N1618 H1631 0.985 . S
N1619 C1621 1.356 . S
N1619 H1624 0.984 . S
N1619 H1625 0.985 . S
C1620 C1614 1.379 . S
C1620 C1617 1.363 . S
C1620 N1618 1.356 . S
C1621 C1615 1.363 . S
C1621 C1616 1.379 . S
C1621 N1619 1.356 . S
N1622 C1614 1.356 . S
N1622 H1628 0.984 . S
N1622 H1629 0.984 . S
N1623 C1616 1.356 . S
N1623 H1626 0.984 . S
N1623 H1627 0.985 . S
H1624 N1619 0.984 . S
H1625 N1619 0.985 . S
H1626 N1623 0.984 . S
H1627 N1623 0.985 . S
H1628 N1622 0.984 . S
H1629 N1622 0.984 . S
H1630 N1618 0.984 . S
H1631 N1618 0.985 . S
C1632 C1633 1.363 . S
C1632 C1638 1.379 . S
C1632 N1640 1.356 . S
C1633 C1632 1.363 . S
C1633 C1639 1.363 . S
C1634 C1635 1.363 . S
C1634 C1639 1.379 . S
C1634 N1641 1.356 1_554 S
C1635 C1634 1.363 . S
C1635 C1638 1.363 . S
N1636 C1638 1.356 . S
N1636 H1648 0.984 . S
N1636 H1649 0.985 . S
N1637 C1639 1.356 . S
N1637 H1642 0.984 . S
N1637 H1643 0.985 . S
C1638 C1632 1.379 . S
C1638 C1635 1.363 . S
C1638 N1636 1.356 . S
C1639 C1633 1.363 . S
C1639 C1634 1.379 . S
C1639 N1637 1.356 . S
N1640 C1632 1.356 . S
N1640 H1646 0.984 . S
N1640 H1647 0.984 . S
N1641 C1634 1.356 1_556 S
N1641 H1644 0.984 . S
N1641 H1645 0.984 . S
H1642 N1637 0.984 . S
H1643 N1637 0.985 . S
H1644 N1641 0.984 . S
H1645 N1641 0.984 . S
H1646 N1640 0.984 . S
H1647 N1640 0.984 . S
H1648 N1636 0.984 . S
H1649 N1636 0.985 . S
C1650 C1651 1.363 . S
C1650 C1656 1.379 . S
C1650 N1658 1.356 . S
C1651 C1650 1.363 . S
C1651 C1657 1.363 . S
C1652 C1653 1.363 . S
C1652 C1657 1.379 . S
C1652 N1659 1.356 . S
C1653 C1652 1.363 . S
C1653 C1656 1.363 . S
N1654 C1656 1.356 . S
N1654 H1666 0.984 . S
N1654 H1667 0.985 . S
N1655 C1657 1.356 . S
N1655 H1660 0.984 . S
N1655 H1661 0.985 . S
C1656 C1650 1.379 . S
C1656 C1653 1.363 . S
C1656 N1654 1.356 . S
C1657 C1651 1.363 . S
C1657 C1652 1.379 . S
C1657 N1655 1.356 . S
N1658 C1650 1.356 . S
N1658 H1664 0.984 . S
N1658 H1665 0.984 . S
N1659 C1652 1.356 . S
N1659 H1662 0.984 . S
N1659 H1663 0.985 . S
H1660 N1655 0.984 . S
H1661 N1655 0.985 . S
H1662 N1659 0.984 . S
H1663 N1659 0.985 . S
H1664 N1658 0.984 . S
H1665 N1658 0.984 . S
H1666 N1654 0.984 . S
H1667 N1654 0.985 . S
C1668 C1669 1.363 . S
C1668 C1674 1.379 . S
C1668 N1676 1.356 . S
C1669 C1668 1.363 . S
C1669 C1675 1.363 . S
C1670 C1671 1.363 . S
C1670 C1675 1.379 . S
C1670 N1677 1.356 . S
C1671 C1670 1.363 . S
C1671 C1674 1.363 . S
N1672 C1674 1.356 . S
N1672 H1684 0.984 . S
N1672 H1685 0.985 . S
N1673 C1675 1.380 . S
N1673 H1678 0.968 1_556 S
N1673 H1679 0.978 1_556 S
C1674 C1668 1.379 . S
C1674 C1671 1.363 . S
C1674 N1672 1.356 . S
C1675 C1669 1.363 . S
C1675 C1670 1.379 . S
C1675 N1673 1.380 . S
N1676 C1668 1.356 . S
N1676 H1682 0.984 . S
N1676 H1683 0.984 . S
N1677 C1670 1.356 . S
N1677 H1680 0.984 . S
N1677 H1681 0.985 . S
H1678 N1673 0.968 1_554 S
H1679 N1673 0.978 1_554 S
H1680 N1677 0.984 . S
H1681 N1677 0.985 . S
H1682 N1676 0.984 . S
H1683 N1676 0.984 . S
H1684 N1672 0.984 . S
H1685 N1672 0.985 . S
C1686 C1687 1.363 . S
C1686 C1692 1.379 . S
C1686 N1694 1.356 . S
C1687 C1686 1.363 . S
C1687 C1693 1.363 . S
C1688 C1689 1.363 . S
C1688 C1693 1.379 . S
C1688 N1695 1.356 . S
C1689 C1688 1.363 . S
C1689 C1692 1.363 . S
N1690 C1692 1.356 . S
N1690 H1702 0.984 . S
N1690 H1703 0.985 . S
N1691 C1693 1.356 . S
N1691 H1696 0.984 . S
N1691 H1697 0.985 . S
C1692 C1686 1.379 . S
C1692 C1689 1.363 . S
C1692 N1690 1.356 . S
C1693 C1687 1.363 . S
C1693 C1688 1.379 . S
C1693 N1691 1.356 . S
N1694 C1686 1.356 . S
N1694 H1700 0.984 . S
N1694 H1701 0.984 . S
N1695 C1688 1.356 . S
N1695 H1698 0.984 . S
N1695 H1699 0.985 . S
H1696 N1691 0.984 . S
H1697 N1691 0.985 . S
H1698 N1695 0.984 . S
H1699 N1695 0.985 . S
H1700 N1694 0.984 . S
H1701 N1694 0.984 . S
H1702 N1690 0.984 . S
H1703 N1690 0.985 . S
C1704 C1705 1.363 . S
C1704 C1710 1.379 . S
C1704 N1712 1.356 . S
C1705 C1704 1.363 . S
C1705 C1711 1.363 . S
C1706 C1707 1.363 . S
C1706 C1711 1.379 . S
C1706 N1713 1.356 . S
C1707 C1706 1.363 . S
C1707 C1710 1.363 . S
N1708 C1710 1.356 1_655 S
N1708 H1720 0.984 . S
N1708 H1721 0.985 . S
N1709 C1711 1.356 . S
N1709 H1714 0.984 . S
N1709 H1715 0.985 . S
C1710 C1704 1.379 . S
C1710 C1707 1.363 . S
C1710 N1708 1.356 1_455 S
C1711 C1705 1.363 . S
C1711 C1706 1.379 . S
C1711 N1709 1.356 . S
N1712 C1704 1.356 . S
N1712 H1718 0.984 . S
N1712 H1719 0.984 . S
N1713 C1706 1.356 . S
N1713 H1716 0.984 . S
N1713 H1717 0.985 . S
H1714 N1709 0.984 . S
H1715 N1709 0.985 . S
H1716 N1713 0.984 . S
H1717 N1713 0.985 . S
H1718 N1712 0.984 . S
H1719 N1712 0.984 . S
H1720 N1708 0.984 . S
H1721 N1708 0.985 . S
C1722 C1723 1.363 . S
C1722 C1728 1.379 . S
C1722 N1730 1.356 . S
C1723 C1722 1.363 . S
C1723 C1729 1.363 . S
C1724 C1725 1.363 . S
C1724 C1729 1.379 . S
C1724 N1731 1.356 . S
C1725 C1724 1.363 . S
C1725 C1728 1.363 . S
N1726 C1728 1.356 . S
N1726 H1738 0.984 . S
N1726 H1739 0.985 . S
N1727 C1729 1.356 . S
N1727 H1732 0.984 . S
N1727 H1733 0.985 . S
C1728 C1722 1.379 . S
C1728 C1725 1.363 . S
C1728 N1726 1.356 . S
C1729 C1723 1.363 . S
C1729 C1724 1.379 . S
C1729 N1727 1.356 . S
N1730 C1722 1.356 . S
N1730 H1736 0.984 . S
N1730 H1737 0.984 . S
N1731 C1724 1.356 . S
N1731 H1734 0.984 . S
N1731 H1735 0.985 . S
H1732 N1727 0.984 . S
H1733 N1727 0.985 . S
H1734 N1731 0.984 . S
H1735 N1731 0.985 . S
H1736 N1730 0.984 . S
H1737 N1730 0.984 . S
H1738 N1726 0.984 . S
H1739 N1726 0.985 . S
C1740 C1741 1.363 . S
C1740 C1746 1.379 . S
C1740 N1748 1.356 . S
C1741 C1740 1.363 . S
C1741 C1747 1.363 . S
C1742 C1743 1.363 . S
C1742 C1747 1.379 . S
C1742 N1749 1.356 . S
C1743 C1742 1.363 . S
C1743 C1746 1.363 . S
N1744 C1746 1.356 . S
N1744 H1756 0.984 . S
N1744 H1757 0.985 . S
N1745 C1747 1.356 . S
N1745 H1750 0.984 . S
N1745 H1751 0.985 . S
C1746 C1740 1.379 . S
C1746 C1743 1.363 . S
C1746 N1744 1.356 . S
C1747 C1741 1.363 . S
C1747 C1742 1.379 . S
C1747 N1745 1.356 . S
N1748 C1740 1.356 . S
N1748 H1754 0.984 . S
N1748 H1755 0.984 . S
N1749 C1742 1.356 . S
N1749 H1752 0.984 . S
N1749 H1753 0.985 . S
H1750 N1745 0.984 . S
H1751 N1745 0.985 . S
H1752 N1749 0.984 . S
H1753 N1749 0.985 . S
H1754 N1748 0.984 . S
H1755 N1748 0.984 . S
H1756 N1744 0.984 . S
H1757 N1744 0.985 . S
C1758 C1759 1.363 . S
C1758 C1764 1.379 . S
C1758 N1766 1.356 . S
C1759 C1758 1.363 . S
C1759 C1765 1.363 . S
C1760 C1761 1.363 . S
C1760 C1765 1.379 . S
C1760 N1767 1.356 . S
C1761 C1760 1.363 . S
C1761 C1764 1.363 . S
N1762 C1764 1.356 . S
N1762 H1774 0.984 . S
N1762 H1775 0.985 . S
N1763 C1765 1.356 . S
N1763 H1768 0.984 . S
N1763 H1769 0.985 . S
C1764 C1758 1.379 . S
C1764 C1761 1.363 . S
C1764 N1762 1.356 . S
C1765 C1759 1.363 . S
C1765 C1760 1.379 . S
C1765 N1763 1.356 . S
N1766 C1758 1.356 . S
N1766 H1772 0.984 . S
N1766 H1773 0.972 1_655 S
N1767 C1760 1.356 . S
N1767 H1770 0.984 . S
N1767 H1771 0.985 . S
H1768 N1763 0.984 . S
H1769 N1763 0.985 . S
H1770 N1767 0.984 . S
H1771 N1767 0.985 . S
H1772 N1766 0.984 . S
H1773 N1766 0.972 1_455 S
H1774 N1762 0.984 . S
H1775 N1762 0.985 . S
C1776 C1777 1.363 . S
C1776 C1782 1.379 . S
C1776 N1784 1.356 . S
C1777 C1776 1.363 . S
C1777 C1783 1.363 . S
C1778 C1779 1.363 . S
C1778 C1783 1.379 . S
C1778 N1785 1.356 . S
C1779 C1778 1.363 . S
C1779 C1782 1.363 . S
N1780 C1782 1.356 . S
N1780 H1792 0.984 . S
N1780 H1793 0.985 1_545 S
N1781 C1783 1.356 . S
N1781 H1786 0.984 . S
N1781 H1787 0.985 . S
C1782 C1776 1.379 . S
C1782 C1779 1.363 . S
C1782 N1780 1.356 . S
C1783 C1777 1.363 . S
C1783 C1778 1.379 . S
C1783 N1781 1.356 . S
N1784 C1776 1.356 . S
N1784 H1790 0.984 . S
N1784 H1791 0.984 . S
N1785 C1778 1.356 . S
N1785 H1788 0.984 . S
N1785 H1789 0.985 . S
H1786 N1781 0.984 . S
H1787 N1781 0.985 . S
H1788 N1785 0.984 . S
H1789 N1785 0.985 . S
H1790 N1784 0.984 . S
H1791 N1784 0.984 . S
H1792 N1780 0.984 . S
H1793 N1780 0.985 1_565 S
C1794 C1795 1.363 . S
C1794 C1800 1.379 . S
C1794 N1802 1.356 . S
C1795 C1794 1.363 . S
C1795 C1801 1.363 . S
C1796 C1797 1.363 . S
C1796 C1801 1.379 . S
C1796 N1803 1.356 . S
C1797 C1796 1.363 . S
C1797 C1800 1.363 . S
N1798 C1800 1.356 . S
N1798 H1810 0.984 . S
N1798 H1811 0.985 . S
N1799 C1801 1.356 . S
N1799 H1804 0.984 . S
N1799 H1805 0.985 . S
C1800 C1794 1.379 . S
C1800 C1797 1.363 . S
C1800 N1798 1.356 . S
C1801 C1795 1.363 . S
C1801 C1796 1.379 . S
C1801 N1799 1.356 . S
N1802 C1794 1.356 . S
N1802 H1808 0.984 . S
N1802 H1809 0.984 . S
N1803 C1796 1.356 . S
N1803 H1806 0.984 . S
N1803 H1807 0.985 . S
H1804 N1799 0.984 . S
H1805 N1799 0.985 . S
H1806 N1803 0.984 . S
H1807 N1803 0.985 . S
H1808 N1802 0.984 . S
H1809 N1802 0.984 . S
H1810 N1798 0.984 . S
H1811 N1798 0.985 . S
C1812 C1813 1.363 . S
C1812 C1818 1.379 . S
C1812 N1820 1.356 . S
C1813 C1812 1.363 . S
C1813 C1819 1.363 . S
C1814 C1815 1.363 . S
C1814 C1819 1.379 . S
C1814 N1821 1.356 . S
C1815 C1814 1.363 . S
C1815 C1818 1.363 . S
N1816 C1818 1.356 . S
N1816 H1828 0.984 . S
N1816 H1829 0.985 . S
N1817 C1819 1.356 . S
N1817 H1822 0.984 . S
N1817 H1823 0.985 . S
C1818 C1812 1.379 . S
C1818 C1815 1.363 . S
C1818 N1816 1.356 . S
C1819 C1813 1.363 . S
C1819 C1814 1.379 . S
C1819 N1817 1.356 . S
N1820 C1812 1.356 . S
N1820 H1826 0.984 . S
N1820 H1827 0.984 . S
N1821 C1814 1.356 . S
N1821 H1824 0.984 . S
N1821 H1825 0.985 . S
H1822 N1817 0.984 . S
H1823 N1817 0.985 . S
H1824 N1821 0.984 . S
H1825 N1821 0.985 . S
H1826 N1820 0.984 . S
H1827 N1820 0.984 . S
H1828 N1816 0.984 . S
H1829 N1816 0.985 . S
C1830 C1831 1.363 . S
C1830 C1836 1.379 . S
C1830 N1838 1.356 . S
C1831 C1830 1.363 . S
C1831 C1837 1.363 . S
C1832 C1833 1.363 . S
C1832 C1837 1.379 . S
C1832 N1839 1.356 . S
C1833 C1832 1.363 . S
C1833 C1836 1.363 . S
N1834 C1836 1.356 . S
N1834 H1846 0.984 . S
N1834 H1847 0.985 . S
N1835 C1837 1.356 . S
N1835 H1840 0.984 . S
N1835 H1841 0.985 . S
C1836 C1830 1.379 . S
C1836 C1833 1.363 . S
C1836 N1834 1.356 . S
C1837 C1831 1.363 . S
C1837 C1832 1.379 . S
C1837 N1835 1.356 . S
N1838 C1830 1.356 . S
N1838 H1844 0.984 . S
N1838 H1845 0.984 . S
N1839 C1832 1.356 . S
N1839 H1842 0.984 1_565 S
N1839 H1843 0.985 1_565 S
H1840 N1835 0.984 . S
H1841 N1835 0.985 . S
H1842 N1839 0.984 1_545 S
H1843 N1839 0.985 1_545 S
H1844 N1838 0.984 . S
H1845 N1838 0.984 . S
H1846 N1834 0.984 . S
H1847 N1834 0.985 . S
C1848 C1849 1.363 . S
C1848 C1854 1.379 . S
C1848 N1856 1.356 . S
C1849 C1848 1.363 . S
C1849 C1855 1.363 . S
C1850 C1851 1.363 . S
C1850 C1855 1.379 . S
C1850 N1857 1.356 . S
C1851 C1850 1.363 . S
C1851 C1854 1.363 . S
N1852 C1854 1.356 1_554 S
N1852 H1864 0.984 . S
N1852 H1865 0.985 . S
N1853 C1855 1.356 . S
N1853 H1858 0.984 . S
N1853 H1859 0.985 . S
C1854 C1848 1.379 . S
C1854 C1851 1.363 . S
C1854 N1852 1.356 1_556 S
C1855 C1849 1.363 . S
C1855 C1850 1.379 . S
C1855 N1853 1.356 . S
N1856 C1848 1.356 . S
N1856 H1862 0.984 . S
N1856 H1863 0.984 . S
N1857 C1850 1.356 . S
N1857 H1860 0.984 . S
N1857 H1861 0.985 . S
H1858 N1853 0.984 . S
H1859 N1853 0.985 . S
H1860 N1857 0.984 . S
H1861 N1857 0.985 . S
H1862 N1856 0.984 . S
H1863 N1856 0.984 . S
H1864 N1852 0.984 . S
H1865 N1852 0.985 . S
C1866 C1867 1.363 . S
C1866 C1872 1.379 . S
C1866 N1874 1.356 . S
C1867 C1866 1.363 . S
C1867 C1873 1.363 . S
C1868 C1869 1.363 . S
C1868 C1873 1.379 . S
C1868 N1875 1.356 . S
C1869 C1868 1.363 . S
C1869 C1872 1.363 . S
N1870 C1872 1.356 . S
N1870 H1882 0.984 . S
N1870 H1883 0.985 . S
N1871 C1873 1.356 . S
N1871 H1876 0.984 . S
N1871 H1877 0.985 . S
C1872 C1866 1.379 . S
C1872 C1869 1.363 . S
C1872 N1870 1.356 . S
C1873 C1867 1.363 . S
C1873 C1868 1.379 . S
C1873 N1871 1.356 . S
N1874 C1866 1.356 . S
N1874 H1880 0.984 . S
N1874 H1881 0.984 . S
N1875 C1868 1.356 . S
N1875 H1878 0.984 . S
N1875 H1879 0.985 . S
H1876 N1871 0.984 . S
H1877 N1871 0.985 . S
H1878 N1875 0.984 . S
H1879 N1875 0.985 . S
H1880 N1874 0.984 . S
H1881 N1874 0.984 . S
H1882 N1870 0.984 . S
H1883 N1870 0.985 . S
C1884 C1885 1.363 . S
C1884 C1890 1.379 . S
C1884 N1892 1.356 . S
C1885 C1884 1.363 . S
C1885 C1891 1.363 . S
C1886 C1887 1.363 . S
C1886 C1891 1.379 . S
C1886 N1893 1.356 . S
C1887 C1886 1.363 . S
C1887 C1890 1.363 . S
N1888 C1890 1.356 . S
N1888 H1900 0.984 . S
N1888 H1901 0.985 . S
N1889 C1891 1.356 1_556 S
N1889 H1894 0.984 . S
N1889 H1895 0.985 . S
C1890 C1884 1.379 . S
C1890 C1887 1.363 . S
C1890 N1888 1.356 . S
C1891 C1885 1.363 . S
C1891 C1886 1.379 . S
C1891 N1889 1.356 1_554 S
N1892 C1884 1.356 . S
N1892 H1898 0.984 . S
N1892 H1899 0.984 . S
N1893 C1886 1.356 . S
N1893 H1896 0.984 . S
N1893 H1897 0.985 . S
H1894 N1889 0.984 . S
H1895 N1889 0.985 . S
H1896 N1893 0.984 . S
H1897 N1893 0.985 . S
H1898 N1892 0.984 . S
H1899 N1892 0.984 . S
H1900 N1888 0.984 . S
H1901 N1888 0.985 . S
C1902 C1903 1.363 . S
C1902 C1908 1.379 . S
C1902 N1910 1.356 . S
C1903 C1902 1.363 . S
C1903 C1909 1.363 . S
C1904 C1905 1.363 . S
C1904 C1909 1.379 . S
C1904 N1911 1.356 . S
C1905 C1904 1.363 . S
C1905 C1908 1.363 . S
N1906 C1908 1.356 . S
N1906 H1918 0.984 . S
N1906 H1919 0.985 . S
N1907 C1909 1.356 . S
N1907 H1912 0.984 . S
N1907 H1913 0.985 . S
C1908 C1902 1.379 . S
C1908 C1905 1.363 . S
C1908 N1906 1.356 . S
C1909 C1903 1.363 . S
C1909 C1904 1.379 . S
C1909 N1907 1.356 . S
N1910 C1902 1.356 . S
N1910 H1916 0.984 . S
N1910 H1917 0.984 . S
N1911 C1904 1.356 . S
N1911 H1914 0.984 . S
N1911 H1915 0.985 . S
H1912 N1907 0.984 . S
H1913 N1907 0.985 . S
H1914 N1911 0.984 . S
H1915 N1911 0.985 . S
H1916 N1910 0.984 . S
H1917 N1910 0.984 . S
H1918 N1906 0.984 . S
H1919 N1906 0.985 . S
C1920 C1921 1.363 . S
C1920 C1926 1.379 . S
C1920 N1928 1.356 . S
C1921 C1920 1.363 . S
C1921 C1927 1.363 . S
C1922 C1923 1.363 . S
C1922 C1927 1.379 . S
C1922 N1929 1.356 . S
C1923 C1922 1.363 . S
C1923 C1926 1.363 . S
N1924 C1926 1.356 . S
N1924 H1936 0.984 . S
N1924 H1937 0.985 . S
N1925 C1927 1.356 . S
N1925 H1930 0.984 . S
N1925 H1931 0.985 . S
C1926 C1920 1.379 . S
C1926 C1923 1.363 . S
C1926 N1924 1.356 . S
C1927 C1921 1.363 . S
C1927 C1922 1.379 . S
C1927 N1925 1.356 . S
N1928 C1920 1.356 . S
N1928 H1934 0.984 . S
N1928 H1935 0.984 . S
N1929 C1922 1.356 . S
N1929 H1932 0.984 1_655 S
N1929 H1933 0.989 . S
H1930 N1925 0.984 . S
H1931 N1925 0.985 . S
H1932 N1929 0.984 1_455 S
H1933 N1929 0.989 . S
H1934 N1928 0.984 . S
H1935 N1928 0.984 . S
H1936 N1924 0.984 . S
H1937 N1924 0.985 . S
C1938 C1939 1.363 . S
C1938 C1944 1.379 . S
C1938 N1946 1.356 . S
C1939 C1938 1.363 . S
C1939 C1945 1.363 . S
C1940 C1941 1.363 . S
C1940 C1945 1.379 . S
C1940 N1947 1.356 . S
C1941 C1940 1.363 . S
C1941 C1944 1.363 . S
N1942 C1944 1.356 . S
N1942 H1954 0.984 . S
N1942 H1955 0.985 . S
N1943 C1945 1.356 . S
N1943 H1948 0.984 . S
N1943 H1949 0.985 . S
C1944 C1938 1.379 . S
C1944 C1941 1.363 . S
C1944 N1942 1.356 . S
C1945 C1939 1.363 . S
C1945 C1940 1.379 . S
C1945 N1943 1.356 . S
N1946 C1938 1.356 . S
N1946 H1952 0.984 . S
N1946 H1953 0.984 . S
N1947 C1940 1.356 . S
N1947 H1950 0.984 . S
N1947 H1951 0.985 . S
H1948 N1943 0.984 . S
H1949 N1943 0.985 . S
H1950 N1947 0.984 . S
H1951 N1947 0.985 . S
H1952 N1946 0.984 . S
H1953 N1946 0.984 . S
H1954 N1942 0.984 . S
H1955 N1942 0.985 . S
C1956 C1957 1.363 . S
C1956 C1962 1.379 . S
C1956 N1964 1.356 . S
C1957 C1956 1.363 . S
C1957 C1963 1.363 . S
C1958 C1959 1.363 . S
C1958 C1963 1.379 . S
C1958 N1965 1.356 . S
C1959 C1958 1.363 . S
C1959 C1962 1.363 . S
N1960 C1962 1.356 . S
N1960 H1972 0.984 . S
N1960 H1973 0.985 . S
N1961 C1963 1.356 . S
N1961 H1966 0.984 . S
N1961 H1967 0.985 . S
C1962 C1956 1.379 . S
C1962 C1959 1.363 . S
C1962 N1960 1.356 . S
C1963 C1957 1.363 . S
C1963 C1958 1.379 . S
C1963 N1961 1.356 . S
N1964 C1956 1.356 . S
N1964 H1970 0.984 . S
N1964 H1971 0.984 . S
N1965 C1958 1.356 . S
N1965 H1968 0.984 . S
N1965 H1969 0.985 . S
H1966 N1961 0.984 . S
H1967 N1961 0.985 . S
H1968 N1965 0.984 . S
H1969 N1965 0.985 . S
H1970 N1964 0.984 . S
H1971 N1964 0.984 . S
H1972 N1960 0.984 . S
H1973 N1960 0.985 . S
C1974 C1975 1.363 . S
C1974 C1980 1.379 . S
C1974 N1982 1.356 . S
C1975 C1974 1.363 . S
C1975 C1981 1.363 . S
C1976 C1977 1.363 . S
C1976 C1981 1.379 . S
C1976 N1983 1.356 . S
C1977 C1976 1.363 . S
C1977 C1980 1.363 . S
N1978 C1980 1.356 . S
N1978 H1990 0.984 . S
N1978 H1991 0.985 . S
N1979 C1981 1.356 . S
N1979 H1984 0.984 . S
N1979 H1985 0.985 . S
C1980 C1974 1.379 . S
C1980 C1977 1.363 . S
C1980 N1978 1.356 . S
C1981 C1975 1.363 . S
C1981 C1976 1.379 . S
C1981 N1979 1.356 . S
N1982 C1974 1.356 . S
N1982 H1988 0.984 . S
N1982 H1989 0.984 . S
N1983 C1976 1.356 . S
N1983 H1986 0.984 1_455 S
N1983 H1987 0.985 . S
H1984 N1979 0.984 . S
H1985 N1979 0.985 . S
H1986 N1983 0.984 1_655 S
H1987 N1983 0.985 . S
H1988 N1982 0.984 . S
H1989 N1982 0.984 . S
H1990 N1978 0.984 . S
H1991 N1978 0.985 . S
C1992 C1993 1.363 . S
C1992 C1998 1.379 . S
C1992 N2000 1.356 . S
C1993 C1992 1.363 . S
C1993 C1999 1.363 . S
C1994 C1995 1.363 . S
C1994 C1999 1.379 . S
C1994 N2001 1.356 1_565 S
C1995 C1994 1.363 . S
C1995 C1998 1.363 . S
N1996 C1998 1.356 . S
N1996 H2008 0.984 . S
N1996 H2009 0.985 . S
N1997 C1999 1.356 . S
N1997 H2002 0.984 . S
N1997 H2003 0.985 . S
C1998 C1992 1.379 . S
C1998 C1995 1.363 . S
C1998 N1996 1.356 . S
C1999 C1993 1.363 . S
C1999 C1994 1.379 . S
C1999 N1997 1.356 . S
N2000 C1992 1.356 . S
N2000 H2006 0.984 . S
N2000 H2007 0.984 . S
N2001 C1994 1.356 1_545 S
N2001 H2004 0.984 . S
N2001 H2005 0.985 . S
H2002 N1997 0.984 . S
H2003 N1997 0.985 . S
H2004 N2001 0.984 . S
H2005 N2001 0.985 . S
H2006 N2000 0.984 . S
H2007 N2000 0.984 . S
H2008 N1996 0.984 . S
H2009 N1996 0.985 . S
C2010 C2011 1.363 . S
C2010 C2016 1.379 . S
C2010 N2018 1.356 . S
C2011 C2010 1.363 . S
C2011 C2017 1.363 . S
C2012 C2013 1.363 . S
C2012 C2017 1.379 . S
C2012 N2019 1.356 . S
C2013 C2012 1.363 . S
C2013 C2016 1.363 . S
N2014 C2016 1.356 . S
N2014 H2026 0.984 . S
N2014 H2027 0.985 . S
N2015 C2017 1.356 . S
N2015 H2020 0.984 . S
N2015 H2021 0.985 . S
C2016 C2010 1.379 . S
C2016 C2013 1.363 . S
C2016 N2014 1.356 . S
C2017 C2011 1.363 . S
C2017 C2012 1.379 . S
C2017 N2015 1.356 . S
N2018 C2010 1.356 . S
N2018 H2024 0.984 . S
N2018 H2025 0.984 . S
N2019 C2012 1.356 . S
N2019 H2022 0.984 . S
N2019 H2023 0.985 . S
H2020 N2015 0.984 . S
H2021 N2015 0.985 . S
H2022 N2019 0.984 . S
H2023 N2019 0.985 . S
H2024 N2018 0.984 . S
H2025 N2018 0.984 . S
H2026 N2014 0.984 . S
H2027 N2014 0.985 . S
C2028 C2029 1.363 . S
C2028 C2034 1.379 . S
C2028 N2036 1.356 . S
C2029 C2028 1.363 . S
C2029 C2035 1.363 . S
C2030 C2031 1.363 . S
C2030 C2035 1.379 . S
C2030 N2037 1.356 . S
C2031 C2030 1.363 . S
C2031 C2034 1.363 . S
N2032 C2034 1.356 . S
N2032 H2044 0.984 . S
N2032 H2045 0.985 . S
N2033 C2035 1.356 . S
N2033 H2038 0.984 . S
N2033 H2039 0.985 . S
C2034 C2028 1.379 . S
C2034 C2031 1.363 . S
C2034 N2032 1.356 . S
C2035 C2029 1.363 . S
C2035 C2030 1.379 . S
C2035 N2033 1.356 . S
N2036 C2028 1.356 . S
N2036 H2042 0.984 . S
N2036 H2043 0.984 . S
N2037 C2030 1.356 . S
N2037 H2040 0.984 . S
N2037 H2041 0.985 . S
H2038 N2033 0.984 . S
H2039 N2033 0.985 . S
H2040 N2037 0.984 . S
H2041 N2037 0.985 . S
H2042 N2036 0.984 . S
H2043 N2036 0.984 . S
H2044 N2032 0.984 . S
H2045 N2032 0.985 . S
C2046 C2047 1.363 . S
C2046 C2052 1.379 . S
C2046 N2054 1.356 . S
C2047 C2046 1.363 . S
C2047 C2053 1.363 . S
C2048 C2049 1.363 . S
C2048 C2053 1.379 . S
C2048 N2055 1.356 . S
C2049 C2048 1.363 . S
C2049 C2052 1.363 . S
N2050 C2052 1.356 . S
N2050 H2062 0.984 . S
N2050 H2063 0.985 1_545 S
N2051 C2053 1.356 . S
N2051 H2056 0.984 . S
N2051 H2057 0.985 . S
C2052 C2046 1.379 . S
C2052 C2049 1.363 . S
C2052 N2050 1.356 . S
C2053 C2047 1.363 . S
C2053 C2048 1.379 . S
C2053 N2051 1.356 . S
N2054 C2046 1.356 . S
N2054 H2060 0.984 . S
N2054 H2061 0.984 . S
N2055 C2048 1.356 . S
N2055 H2058 0.984 . S
N2055 H2059 0.985 . S
H2056 N2051 0.984 . S
H2057 N2051 0.985 . S
H2058 N2055 0.984 . S
H2059 N2055 0.985 . S
H2060 N2054 0.984 . S
H2061 N2054 0.984 . S
H2062 N2050 0.984 . S
H2063 N2050 0.985 1_565 S
C769 N13 1.306 . S
C771 C580 1.466 . S
C787 C637 1.466 . S
C789 N45 1.306 . S
C805 N82 1.306 . S
C807 C541 1.466 . S
C823 N114 1.306 . S
C825 C548 1.466 . S
C841 C708 1.466 . S
C843 N146 1.306 . S
C859 N173 1.306 . S
C861 C676 1.466 . S
C877 C765 1.466 . S
C879 N205 1.306 . S
C895 N242 1.306 . S
C897 C644 1.466 . S
C913 N269 1.306 . S
C915 C420 1.466 . S
C931 N301 1.306 . S
C933 C509 1.466 . S
C949 C477 1.466 . S
C951 N333 1.306 . S
C967 N370 1.306 . S
C969 C413 1.466 . S
C985 N402 1.306 . S
C987 C196 1.466 . S
C1003 N429 1.306 . S
C1005 C253 1.466 . S
C1021 N466 1.306 . S
C1023 C157 1.466 . S
C1039 C164 1.466 . S
C1041 N498 1.306 . S
C1057 N530 1.306 . S
C1059 C324 1.466 . S
C1075 C292 1.466 . S
C1077 N557 1.306 . S
C1093 C381 1.466 . S
C1095 N589 1.306 . S
C1111 C260 1.466 . S
C1113 N626 1.306 . S
C1129 C36 1.466 . S
C1131 N653 1.306 . S
C1147 C125 1.466 . S
C1149 N685 1.306 . S
C1165 C93 1.466 . S
C1167 N717 1.306 . S
C1183 N754 1.306 . S
C1185 C4 1.466 . S
C1201 C130 1.804 . S
C1203 C29 1.837 . S
C1219 C166 1.804 . S
C1221 C61 1.837 . S
C1237 C198 1.804 . S
C1239 C68 1.837 . S
C1255 C226 1.804 . S
C1257 C100 1.837 . S
C1273 C132 1.837 . S
C1275 C262 1.804 . S
C1291 C189 1.837 . S
C1293 C354 1.804 . S
C1309 C221 1.837 . S
C1311 C294 1.804 . S
C1327 C228 1.837 . S
C1329 C326 1.804 . S
C1345 C285 1.837 . S
C1347 C6 1.804 . S
C1363 C317 1.837 . S
C1365 C66 1.804 . S
C1381 C349 1.837 . S
C1383 C98 1.804 . S
C1399 C38 1.804 . S
C1401 C356 1.837 . S
C1417 C514 1.804 . S
C1419 C388 1.837 . S
C1435 C550 1.804 . S
C1437 C445 1.837 . S
C1453 C452 1.837 . S
C1455 C582 1.804 . S
C1471 C484 1.837 . S
C1473 C610 1.804 . S
C1489 C646 1.804 . S
C1491 C516 1.837 . S
C1507 C573 1.837 . S
C1509 C738 1.804 . S
C1525 C678 1.804 . S
C1527 C605 1.837 . S
C1543 C612 1.837 . S
C1545 C710 1.804 . S
C1561 C386 1.804 . S
C1563 C669 1.837 . S
C1579 C701 1.837 . S
C1581 C450 1.804 . S
C1597 C733 1.837 . S
C1599 C482 1.804 . S
C1615 C422 1.804 . S
C1617 C740 1.837 . S
C1633 N18 1.769 . S
C1635 C290 1.789 1_554 S
C1651 C322 1.789 . S
C1653 N50 1.769 . S
C1669 C258 1.789 1_556 S
C1671 N77 1.769 . S
C1687 C358 1.789 . S
C1689 N109 1.769 . S
C1705 N141 1.769 . S
C1707 C102 1.789 1_455 S
C1723 C70 1.789 . S
C1725 N178 1.769 . S
C1741 N210 1.769 . S
C1743 C34 1.789 . S
C1759 C2 1.789 1_655 S
C1761 N237 1.769 . S
C1777 N274 1.769 . S
C1779 C162 1.789 1_545 S
C1795 N306 1.769 . S
C1797 C230 1.789 . S
C1813 N338 1.769 . S
C1815 C194 1.789 . S
C1831 N365 1.769 . S
C1833 C134 1.789 1_565 S
C1849 N397 1.769 . S
C1851 C674 1.789 1_556 S
C1867 N434 1.769 . S
C1869 C706 1.789 . S
C1885 C642 1.789 1_554 S
C1887 N461 1.769 . S
C1903 C742 1.789 . S
C1905 N493 1.769 . S
C1921 N525 1.769 . S
C1923 C486 1.789 1_655 S
C1939 N562 1.769 . S
C1941 C454 1.789 . S
C1957 C418 1.789 . S
C1959 N594 1.769 . S
C1975 N621 1.769 . S
C1977 C390 1.789 1_455 S
C1993 N658 1.769 . S
C1995 C546 1.789 1_565 S
C2011 C614 1.789 . S
C2013 N690 1.769 . S
C2029 N722 1.769 . S
C2031 C578 1.789 . S
C2047 N749 1.769 . S
C2049 C518 1.789 1_545 S
