# Generated by pormake.
# Topology lcy-e, (6)-cn, num edge types: 1
# Building blocks:
#     Node 0, Type 0, BuildingBlock: OJICUG_clean_sbu_0, # of connection points: 6
#     Node 1, Type 0, BuildingBlock: OJICUG_clean_sbu_0, # of connection points: 6
#     Node 2, Type 0, BuildingBlock: OJICUG_clean_sbu_0, # of connection points: 6
#     Node 3, Type 0, BuildingBlock: OJICUG_clean_sbu_0, # of connection points: 6
#     Node 4, Type 0, BuildingBlock: OJICUG_clean_sbu_0, # of connection points: 6
#     Node 5, Type 0, BuildingBlock: OJICUG_clean_sbu_0, # of connection points: 6
#     Node 6, Type 0, BuildingBlock: OJICUG_clean_sbu_0, # of connection points: 6
#     Node 7, Type 0, BuildingBlock: OJICUG_clean_sbu_0, # of connection points: 6
#     Node 8, Type 0, BuildingBlock: OJICUG_clean_sbu_0, # of connection points: 6
#     Node 9, Type 0, BuildingBlock: OJICUG_clean_sbu_0, # of connection points: 6
#     Node 10, Type 0, BuildingBlock: OJICUG_clean_sbu_0, # of connection points: 6
#     Node 11, Type 0, BuildingBlock: OJICUG_clean_sbu_0, # of connection points: 6
#     Edge 12, Type (0, 0), BuildingBlock: EYOCIG_clean_linker_4, # of connection points: 2
#     Edge 13, Type (0, 0), BuildingBlock: EYOCIG_clean_linker_4, # of connection points: 2
#     Edge 14, Type (0, 0), BuildingBlock: EYOCIG_clean_linker_4, # of connection points: 2
#     Edge 15, Type (0, 0), BuildingBlock: EYOCIG_clean_linker_4, # of connection points: 2
#     Edge 16, Type (0, 0), BuildingBlock: EYOCIG_clean_linker_4, # of connection points: 2
#     Edge 17, Type (0, 0), BuildingBlock: EYOCIG_clean_linker_4, # of connection points: 2
#     Edge 18, Type (0, 0), BuildingBlock: EYOCIG_clean_linker_4, # of connection points: 2
#     Edge 19, Type (0, 0), BuildingBlock: EYOCIG_clean_linker_4, # of connection points: 2
#     Edge 20, Type (0, 0), BuildingBlock: EYOCIG_clean_linker_4, # of connection points: 2
#     Edge 21, Type (0, 0), BuildingBlock: EYOCIG_clean_linker_4, # of connection points: 2
#     Edge 22, Type (0, 0), BuildingBlock: EYOCIG_clean_linker_4, # of connection points: 2
#     Edge 23, Type (0, 0), BuildingBlock: EYOCIG_clean_linker_4, # of connection points: 2
#     Edge 24, Type (0, 0), BuildingBlock: EYOCIG_clean_linker_4, # of connection points: 2
#     Edge 25, Type (0, 0), BuildingBlock: EYOCIG_clean_linker_4, # of connection points: 2
#     Edge 26, Type (0, 0), BuildingBlock: EYOCIG_clean_linker_4, # of connection points: 2
#     Edge 27, Type (0, 0), BuildingBlock: EYOCIG_clean_linker_4, # of connection points: 2
#     Edge 28, Type (0, 0), BuildingBlock: EYOCIG_clean_linker_4, # of connection points: 2
#     Edge 29, Type (0, 0), BuildingBlock: EYOCIG_clean_linker_4, # of connection points: 2
#     Edge 30, Type (0, 0), BuildingBlock: EYOCIG_clean_linker_4, # of connection points: 2
#     Edge 31, Type (0, 0), BuildingBlock: EYOCIG_clean_linker_4, # of connection points: 2
#     Edge 32, Type (0, 0), BuildingBlock: EYOCIG_clean_linker_4, # of connection points: 2
#     Edge 33, Type (0, 0), BuildingBlock: EYOCIG_clean_linker_4, # of connection points: 2
#     Edge 34, Type (0, 0), BuildingBlock: EYOCIG_clean_linker_4, # of connection points: 2
#     Edge 35, Type (0, 0), BuildingBlock: EYOCIG_clean_linker_4, # of connection points: 2
#     Edge 36, Type (0, 0), BuildingBlock: EYOCIG_clean_linker_4, # of connection points: 2
#     Edge 37, Type (0, 0), BuildingBlock: EYOCIG_clean_linker_4, # of connection points: 2
#     Edge 38, Type (0, 0), BuildingBlock: EYOCIG_clean_linker_4, # of connection points: 2
#     Edge 39, Type (0, 0), BuildingBlock: EYOCIG_clean_linker_4, # of connection points: 2
#     Edge 40, Type (0, 0), BuildingBlock: EYOCIG_clean_linker_4, # of connection points: 2
#     Edge 41, Type (0, 0), BuildingBlock: EYOCIG_clean_linker_4, # of connection points: 2
#     Edge 42, Type (0, 0), BuildingBlock: EYOCIG_clean_linker_4, # of connection points: 2
#     Edge 43, Type (0, 0), BuildingBlock: EYOCIG_clean_linker_4, # of connection points: 2
#     Edge 44, Type (0, 0), BuildingBlock: EYOCIG_clean_linker_4, # of connection points: 2
#     Edge 45, Type (0, 0), BuildingBlock: EYOCIG_clean_linker_4, # of connection points: 2
#     Edge 46, Type (0, 0), BuildingBlock: EYOCIG_clean_linker_4, # of connection points: 2
#     Edge 47, Type (0, 0), BuildingBlock: EYOCIG_clean_linker_4, # of connection points: 2
# Relax obj value: 0.285
# Max RMSD: 0.291
# Mean RMSD: 0.291
data_MOF--net-lcy-e--node1-OJICUG_clean_sbu_0--edge1-EYOCIG_clean_linker_4
_symmetry_space_group_name_H-M    P1
_symmetry_Int_Tables_number       1
_symmetry_cell_setting            triclinic
loop_
_symmetry_equiv_pos_as_xyz
'x, y, z'
_cell_length_a     29.979562
_cell_length_b     30.017197
_cell_length_c     30.00036
_cell_angle_alpha  90.021762
_cell_angle_beta   90.007409
_cell_angle_gamma 90.015096
loop_
_atom_site_label
_atom_site_type_symbol
_atom_site_fract_x
_atom_site_fract_y
_atom_site_fract_z
_atom_type_partial_charge
Sc0 Sc 0.1213 0.14612 0.39627 0.0
Sc1 Sc 0.16456 0.1882 0.49361 0.0
Sc2 Sc 0.07836 0.24339 0.43868 0.0
O3 O 0.12142 0.19332 0.44358 0.0
C4 C 0.12333 0.23502 0.34469 0.0
C5 C 0.21965 0.15434 0.41353 0.0
C6 C 0.16448 0.29231 0.47415 0.0
C7 C 0.11933 0.09443 0.48513 0.0
C8 C 0.02304 0.16351 0.40475 0.0
C9 C 0.07858 0.22362 0.54277 0.0
O10 O 0.14333 0.19776 0.35046 0.0
O11 O 0.21782 0.18351 0.44412 0.0
O12 O 0.1309 0.293 0.44784 0.0
O13 O 0.09925 0.1003 0.44791 0.0
O14 O 0.025 0.19402 0.43398 0.0
O15 O 0.11211 0.19728 0.54334 0.0
O16 O 0.05395 0.15915 0.37669 0.0
O17 O 0.15356 0.11689 0.49669 0.0
O18 O 0.0656 0.24457 0.50848 0.0
O19 O 0.18865 0.12639 0.40909 0.0
O20 O 0.08925 0.24666 0.36731 0.0
O21 O 0.17745 0.25795 0.49497 0.0
Sc22 Sc 0.09717 0.87168 0.64633 0.0
Sc23 Sc -0.00024 0.82838 0.6883 0.0
Sc24 Sc 0.05458 0.91457 0.74359 0.0
O25 O 0.04977 0.87153 0.69348 0.0
C26 C 0.1487 0.86984 0.73534 0.0
C27 C 0.08002 0.77341 0.6546 0.0
C28 C 0.01916 0.82854 0.79249 0.0
C29 C 0.00831 0.87344 0.59447 0.0
C30 C 0.08846 0.96984 0.66366 0.0
C31 C 0.95042 0.91419 0.72371 0.0
O32 O 0.143 0.84982 0.69806 0.0
O33 O 0.04934 0.77525 0.6837 0.0
O34 O 0.04547 0.8621 0.79322 0.0
O35 O 0.04553 0.89354 0.60038 0.0
O36 O 0.05921 0.96785 0.69418 0.0
O37 O 0.94991 0.8807 0.69732 0.0
O38 O 0.1166 0.93903 0.6593 0.0
O39 O 0.99675 0.83928 0.61695 0.0
O40 O 0.98471 0.92719 0.74471 0.0
O41 O 0.08451 0.80435 0.62663 0.0
O42 O 0.12601 0.90386 0.74693 0.0
O43 O -0.00166 0.81556 0.75809 0.0
Sc44 Sc 0.41511 0.74922 0.93875 0.0
Sc45 Sc 0.32899 0.80456 0.99364 0.0
Sc46 Sc 0.37231 0.8465 0.89631 0.0
O47 O 0.37211 0.79934 0.94363 0.0
C48 C 0.47051 0.82905 0.90493 0.0
C49 C 0.41488 0.769 0.04285 0.0
C50 C 0.37433 0.89827 0.98514 0.0
C51 C 0.32892 0.70043 0.97418 0.0
C52 C 0.37017 0.75757 0.84477 0.0
C53 C 0.27392 0.83847 0.91355 0.0
O54 O 0.46852 0.79855 0.93416 0.0
O55 O 0.38141 0.79542 0.04341 0.0
O56 O 0.3944 0.89235 0.94792 0.0
O57 O 0.3625 0.69968 0.94787 0.0
O58 O 0.3502 0.79485 0.85051 0.0
O59 O 0.27573 0.80932 0.94414 0.0
O60 O 0.40428 0.74596 0.86738 0.0
O61 O 0.316 0.73483 0.99499 0.0
O62 O 0.30498 0.86635 0.90905 0.0
O63 O 0.42783 0.74802 0.00856 0.0
O64 O 0.43965 0.83332 0.8768 0.0
O65 O 0.34009 0.87586 -0.0033 0.0
Sc66 Sc 0.39616 0.12069 0.14627 0.0
Sc67 Sc 0.49355 0.164 0.1883 0.0
Sc68 Sc 0.43855 0.07806 0.24371 0.0
O69 O 0.44348 0.12094 0.19351 0.0
C70 C 0.34452 0.1229 0.23519 0.0
C71 C 0.41343 0.21897 0.15429 0.0
C72 C 0.47398 0.1642 0.29245 0.0
C73 C 0.48511 0.11863 0.09458 0.0
C74 C 0.40478 0.02263 0.16386 0.0
C75 C 0.54271 0.07822 0.22397 0.0
O76 O 0.3503 0.1428 0.19787 0.0
O77 O 0.44405 0.21718 0.18347 0.0
O78 O 0.44761 0.13069 0.29321 0.0
O79 O 0.44785 0.09859 0.10048 0.0
O80 O 0.43398 0.02466 0.19442 0.0
O81 O 0.54329 0.11161 0.19749 0.0
O82 O 0.37664 0.05343 0.15947 0.0
O83 O 0.49665 0.15288 0.11697 0.0
O84 O 0.5084 0.06537 0.24501 0.0
O85 O 0.40893 0.18794 0.12641 0.0
O86 O 0.36712 0.08885 0.24686 0.0
O87 O 0.49489 0.17702 0.25807 0.0
Sc88 Sc 0.66493 0.30404 0.4994 0.0
Sc89 Sc 0.57861 0.24922 0.55452 0.0
Sc90 Sc 0.62197 0.34643 0.59672 0.0
O91 O 0.62182 0.29916 0.54948 0.0
C92 C 0.72024 0.33772 0.57941 0.0
C93 C 0.66451 0.19998 0.51903 0.0
C94 C 0.62367 0.25762 0.64848 0.0
C95 C 0.57876 0.26882 0.45038 0.0
C96 C 0.62017 0.39803 0.50781 0.0
C97 C 0.52357 0.32932 0.5884 0.0
O98 O 0.71826 0.30855 0.54884 0.0
O99 O 0.63097 0.19944 0.54539 0.0
O100 O 0.64381 0.2948 0.64262 0.0
O101 O 0.61239 0.29507 0.44973 0.0
O102 O 0.60009 0.39228 0.54505 0.0
O103 O 0.52541 0.29873 0.55923 0.0
O104 O 0.65424 0.37539 0.49622 0.0
O105 O 0.56576 0.24797 0.48472 0.0
O106 O 0.55456 0.33377 0.61638 0.0
O107 O 0.67754 0.23425 0.49811 0.0
O108 O 0.68939 0.36583 0.58378 0.0
O109 O 0.58955 0.24602 0.62587 0.0
Sc110 Sc 0.93831 0.41425 0.74952 0.0
Sc111 Sc 0.99368 0.32852 0.80485 0.0
Sc112 Sc 0.89619 0.37141 0.84698 0.0
O113 O 0.94347 0.37139 0.79972 0.0
C114 C 0.90433 0.46954 0.82937 0.0
C115 C 0.04252 0.41448 0.76913 0.0
C116 C 0.98516 0.37384 0.89861 0.0
C117 C 0.97395 0.32823 0.70073 0.0
C118 C 0.84451 0.36896 0.75809 0.0
C119 C 0.9138 0.27325 0.83893 0.0
O120 O 0.93355 0.46763 0.79881 0.0
O121 O 0.04324 0.38107 0.79559 0.0
O122 O 0.94782 0.39374 0.89274 0.0
O123 O 0.9475 0.36166 0.70001 0.0
O124 O 0.85039 0.34906 0.7954 0.0
O125 O 0.94436 0.27514 0.80971 0.0
O126 O 0.86693 0.40315 0.74646 0.0
O127 O 0.99495 0.31548 0.73509 0.0
O128 O 0.90932 0.30425 0.86685 0.0
O129 O 0.00813 0.42724 0.74816 0.0
O130 O 0.87635 0.43858 0.83381 0.0
O131 O 0.99683 0.33968 0.87617 0.0
Sc132 Sc 0.9146 0.74327 0.05452 0.0
Sc133 Sc 0.82842 0.68825 -0.00067 0.0
Sc134 Sc 0.87143 0.646 0.09668 0.0
O135 O 0.8715 0.69324 0.04944 0.0
C136 C 0.96977 0.66327 0.08839 0.0
C137 C 0.9145 0.7237 0.95036 0.0
C138 C 0.8734 0.59436 0.00776 0.0
C139 C 0.82859 0.79231 0.01902 0.0
C140 C 0.86949 0.73485 0.1484 0.0
C141 C 0.77316 0.65447 0.07932 0.0
O142 O 0.96789 0.69384 0.05922 0.0
O143 O 0.88095 0.69736 0.94968 0.0
O144 O 0.89343 0.60017 0.04503 0.0
O145 O 0.86212 0.79294 0.04541 0.0
O146 O 0.84942 0.69763 0.14254 0.0
O147 O 0.77509 0.68363 0.04875 0.0
O148 O 0.90366 0.74643 0.12588 0.0
O149 O 0.81564 0.758 -0.00192 0.0
O150 O 0.80406 0.62642 0.08368 0.0
O151 O 0.92745 0.74457 0.98473 0.0
O152 O 0.9388 0.65883 0.11638 0.0
O153 O 0.83929 0.61693 0.99614 0.0
Sc154 Sc 0.49971 0.66418 0.30479 0.0
Sc155 Sc 0.55508 0.57828 0.24966 0.0
Sc156 Sc 0.59724 0.62145 0.34701 0.0
O157 O 0.54993 0.62129 0.29976 0.0
C158 C 0.57965 0.71956 0.33857 0.0
C159 C 0.51938 0.66413 0.20067 0.0
C160 C 0.6489 0.62357 0.25809 0.0
C161 C 0.45088 0.5781 0.26932 0.0
C162 C 0.50831 0.61925 0.39869 0.0
C163 C 0.58912 0.52321 0.32965 0.0
O164 O 0.54905 0.71756 0.3094 0.0
O165 O 0.54586 0.63072 0.20003 0.0
O166 O 0.64303 0.64358 0.29535 0.0
O167 O 0.45016 0.61158 0.29572 0.0
O168 O 0.54563 0.59932 0.39286 0.0
O169 O 0.55991 0.52504 0.29907 0.0
O170 O 0.49662 0.65332 0.37615 0.0
O171 O 0.48526 0.5653 0.24837 0.0
O172 O 0.61707 0.55421 0.33413 0.0
O173 O 0.49836 0.67696 0.235 0.0
O174 O 0.5841 0.6887 0.36662 0.0
O175 O 0.62646 0.58936 0.24653 0.0
Sc176 Sc 0.24387 0.43839 0.07842 0.0
Sc177 Sc 0.18866 0.49323 0.16465 0.0
Sc178 Sc 0.1464 0.39608 0.12122 0.0
O179 O 0.19372 0.44329 0.12145 0.0
C180 C 0.16383 0.4048 0.02305 0.0
C181 C 0.22429 0.54246 0.07886 0.0
C182 C 0.09474 0.48498 0.11947 0.0
C183 C 0.29286 0.47353 0.16459 0.0
C184 C 0.23531 0.34437 0.1231 0.0
C185 C 0.15464 0.41312 0.21958 0.0
O186 O 0.19445 0.43394 0.02508 0.0
O187 O 0.19788 0.54302 0.11235 0.0
O188 O 0.10057 0.44779 0.09934 0.0
O189 O 0.29352 0.44729 0.13098 0.0
O190 O 0.19802 0.35016 0.14311 0.0
O191 O 0.18385 0.44369 0.21779 0.0
O192 O 0.24699 0.36703 0.08908 0.0
O193 O 0.2585 0.49441 0.17756 0.0
O194 O 0.12667 0.40871 0.18858 0.0
O195 O 0.24522 0.50818 0.06585 0.0
O196 O 0.1594 0.37668 0.05385 0.0
O197 O 0.11727 0.49648 0.15365 0.0
Sc198 Sc 0.68819 -0.00058 0.82877 0.0
Sc199 Sc 0.74384 0.05409 0.91484 0.0
Sc200 Sc 0.64641 0.09671 0.87228 0.0
O201 O 0.69357 0.04936 0.87192 0.0
C202 C 0.65437 0.07962 0.77391 0.0
C203 C 0.79248 0.01869 0.8286 0.0
C204 C 0.7355 0.14815 0.87019 0.0
C205 C 0.72382 0.9501 0.9145 0.0
C206 C 0.5945 0.00796 0.8742 0.0
C207 C 0.66403 0.08791 0.97038 0.0
O208 O 0.68347 0.04896 0.77564 0.0
O209 O 0.79332 0.04498 0.86217 0.0
O210 O 0.69813 0.14249 0.85027 0.0
O211 O 0.69729 0.94962 0.88109 0.0
O212 O 0.6005 0.04513 0.89432 0.0
O213 O 0.69454 0.05868 0.9683 0.0
O214 O 0.61681 -0.00349 0.83987 0.0
O215 O 0.74494 0.98431 0.92742 0.0
O216 O 0.65969 0.11608 0.93961 0.0
O217 O 0.758 -0.00208 0.81573 0.0
O218 O 0.62648 0.08414 0.80496 0.0
O219 O 0.7472 0.12544 0.90416 0.0
Sc220 Sc 0.84716 0.89592 0.37136 0.0
Sc221 Sc 0.7497 0.93796 0.41442 0.0
Sc222 Sc 0.80481 0.99318 0.32841 0.0
O223 O 0.79982 0.94309 0.3714 0.0
C224 C 0.89873 0.98485 0.37349 0.0
C225 C 0.82977 0.9042 0.4696 0.0
C226 C 0.76924 0.04207 0.41443 0.0
C227 C 0.75827 0.84417 0.36928 0.0
C228 C 0.83873 0.91329 0.27315 0.0
C229 C 0.70063 0.97344 0.32847 0.0
O230 O 0.89295 0.94759 0.39347 0.0
O231 O 0.79915 0.93333 0.46771 0.0
O232 O 0.79565 0.04276 0.38094 0.0
O233 O 0.79555 0.85005 0.34927 0.0
O234 O 0.8095 0.94381 0.27508 0.0
O235 O 0.7 0.94703 0.36193 0.0
O236 O 0.8668 0.90893 0.30406 0.0
O237 O 0.74664 0.86665 0.40344 0.0
O238 O 0.73497 0.99441 0.3156 0.0
O239 O 0.83424 0.87622 0.43866 0.0
O240 O 0.87621 -0.00362 0.33932 0.0
O241 O 0.74832 0.00771 0.42729 0.0
Sc242 Sc 0.34718 0.59655 0.62172 0.0
Sc243 Sc 0.24972 0.55447 0.57862 0.0
Sc244 Sc 0.30476 0.49934 0.66475 0.0
O245 O 0.29981 0.54939 0.6217 0.0
C246 C 0.39873 0.50762 0.61971 0.0
C247 C 0.32983 0.5882 0.52347 0.0
C248 C 0.26919 0.45036 0.57875 0.0
C249 C 0.25832 0.64833 0.62368 0.0
C250 C 0.33879 0.57925 0.71996 0.0
C251 C 0.20058 0.51913 0.66459 0.0
O252 O 0.39297 0.54487 0.5997 0.0
O253 O 0.2992 0.55906 0.52536 0.0
O254 O 0.29556 0.4497 0.61228 0.0
O255 O 0.29558 0.64245 0.64372 0.0
O256 O 0.30952 0.54875 0.71804 0.0
O257 O 0.19999 0.54545 0.63107 0.0
O258 O 0.36682 0.58363 0.68904 0.0
O259 O 0.24667 0.6258 0.58955 0.0
O260 O 0.2349 0.49818 0.67755 0.0
O261 O 0.3343 0.61619 0.5544 0.0
O262 O 0.37616 0.49607 0.65384 0.0
O263 O 0.24832 0.48471 0.5658 0.0
C264 C 0.21404 0.35801 0.50181 0.0
C265 C 0.18839 0.33218 0.48478 0.0
C266 C 0.2415 0.38465 0.52925 0.0
C267 C 0.25855 0.41048 0.55487 0.0
C268 C 0.85802 0.99098 0.77883 0.0
C269 C 0.83229 0.00803 0.80456 0.0
C270 C 0.88457 0.96355 0.75129 0.0
C271 C 0.91042 0.93797 0.73422 0.0
C272 C 0.27934 0.63482 0.00197 0.0
C273 C 0.30499 0.66059 0.98488 0.0
C274 C 0.2519 0.60823 0.02945 0.0
C275 C 0.23486 0.58239 0.05505 0.0
C276 C 0.60841 0.02861 0.25147 0.0
C277 C 0.58263 0.05429 0.23445 0.0
C278 C 0.63492 0.00108 0.27893 0.0
C279 C 0.6607 0.984 0.30457 0.0
C280 C 0.71398 0.13423 0.49146 0.0
C281 C 0.68835 0.16005 0.50849 0.0
C282 C 0.74149 0.10768 0.464 0.0
C283 C 0.75859 0.08191 0.43835 0.0
C284 C 0.10817 0.46415 0.74153 0.0
C285 C 0.08237 0.43848 0.75855 0.0
C286 C 0.13477 0.49162 0.71409 0.0
C287 C 0.16063 0.50862 0.68846 0.0
C288 C 0.75139 0.88439 0.96395 0.0
C289 C 0.73429 0.91016 0.93833 0.0
C290 C 0.77894 0.8579 0.99143 0.0
C291 C 0.80465 0.83217 0.00848 0.0
C292 C 0.38521 0.52844 0.24172 0.0
C293 C 0.411 0.55412 0.25875 0.0
C294 C 0.35861 0.501 0.21423 0.0
C295 C 0.33278 0.48403 0.18853 0.0
C296 C 0.50164 0.21386 0.35807 0.0
C297 C 0.48459 0.18818 0.33229 0.0
C298 C 0.52915 0.2413 0.38465 0.0
C299 C 0.55484 0.25829 0.41047 0.0
C300 C 0.02903 0.2511 0.60854 0.0
C301 C 0.05469 0.23411 0.5827 0.0
C302 C 0.00155 0.27855 0.63512 0.0
C303 C 0.98452 0.30423 0.6609 0.0
C304 C 0.99147 0.77897 0.85813 0.0
C305 C 0.00852 0.80463 0.83236 0.0
C306 C 0.96401 0.75145 0.88468 0.0
C307 C 0.93838 0.73435 0.91047 0.0
C308 C 0.49181 0.71379 0.13508 0.0
C309 C 0.50885 0.6881 0.16082 0.0
C310 C 0.46436 0.74134 0.10858 0.0
C311 C 0.43873 0.75844 0.08279 0.0
C312 C 0.15009 0.30129 0.29387 0.0
C313 C 0.14143 0.26824 0.3152 0.0
C314 C 0.15637 0.34265 0.27193 0.0
C315 C 0.15885 0.37662 0.25041 0.0
C316 C 0.94187 0.90012 0.54374 0.0
C317 C 0.975 0.89151 0.56504 0.0
C318 C 0.90041 0.90627 0.52185 0.0
C319 C 0.86636 0.90861 0.50038 0.0
C320 C 0.33696 0.6498 0.77223 0.0
C321 C 0.3345 0.6158 0.75075 0.0
C322 C 0.34328 0.69121 0.7941 0.0
C323 C 0.35201 0.7243 0.81537 0.0
C324 C 0.55166 0.09176 0.0441 0.0
C325 C 0.51846 0.10042 0.06528 0.0
C326 C 0.5932 0.08561 0.02235 0.0
C327 C 0.62733 0.08335 0.001 0.0
C328 C 0.65016 0.19139 0.69947 0.0
C329 C 0.64164 0.22442 0.67806 0.0
C330 C 0.65628 0.15005 0.7215 0.0
C331 C 0.65865 0.1161 0.74305 0.0
C332 C 0.09309 0.40706 0.97097 0.0
C333 C 0.1272 0.40934 0.99236 0.0
C334 C 0.05158 0.40086 0.94919 0.0
C335 C 0.01842 0.39213 0.92797 0.0
C336 C 0.83662 0.84264 0.22101 0.0
C337 C 0.8343 0.87667 0.24245 0.0
C338 C 0.84277 0.80121 0.19913 0.0
C339 C 0.85138 0.7681 0.17784 0.0
C340 C 0.40047 0.58617 0.47125 0.0
C341 C 0.36641 0.5838 0.4927 0.0
C342 C 0.44194 0.59239 0.4494 0.0
C343 C 0.47507 0.60107 0.42812 0.0
C344 C 0.27195 0.15614 0.34296 0.0
C345 C 0.25048 0.15861 0.37699 0.0
C346 C 0.29382 0.14981 0.30154 0.0
C347 C 0.3151 0.14108 0.26844 0.0
C348 C 0.09254 0.0438 0.55155 0.0
C349 C 0.10118 0.06505 0.51843 0.0
C350 C 0.08635 0.02195 0.593 0.0
C351 C 0.08402 0.00052 0.62704 0.0
C352 C 0.19947 0.84313 0.80172 0.0
C353 C 0.17815 0.8518 0.76864 0.0
C354 C 0.22143 0.8368 0.84311 0.0
C355 C 0.24299 0.83428 0.87708 0.0
C356 C 0.40719 0.97066 0.09308 0.0
C357 C 0.40938 0.99203 0.12719 0.0
C358 C 0.40112 0.94888 0.05158 0.0
C359 C 0.39251 0.92765 0.01842 0.0
C360 C 0.79403 0.34184 0.69166 0.0
C361 C 0.81521 0.35062 0.72481 0.0
C362 C 0.77229 0.33557 0.65015 0.0
C363 C 0.75092 0.33323 0.61605 0.0
C364 C 0.90634 0.52176 0.89997 0.0
C365 C 0.9087 0.5003 0.86594 0.0
C366 C 0.90014 0.54363 0.9414 0.0
C367 C 0.89151 0.56492 0.97451 0.0
C368 C 0.72114 0.65665 0.15009 0.0
C369 C 0.7425 0.65896 0.11598 0.0
C370 C 0.69939 0.65047 0.1916 0.0
C371 C 0.67821 0.64179 0.22477 0.0
C372 C 0.59356 0.44887 0.44148 0.0
C373 C 0.60216 0.42752 0.47455 0.0
C374 C 0.58733 0.47083 0.40011 0.0
C375 C 0.58488 0.49237 0.36614 0.0
C376 C 0.3016 0.29344 0.14973 0.0
C377 C 0.26854 0.31483 0.14111 0.0
C378 C 0.34298 0.27143 0.15599 0.0
C379 C 0.37694 0.24986 0.15848 0.0
C380 C 0.84327 0.22087 0.83716 0.0
C381 C 0.87728 0.2424 0.83469 0.0
C382 C 0.80185 0.19895 0.84346 0.0
C383 C 0.76875 0.17764 0.85213 0.0
C384 C 0.04404 0.55138 0.09275 0.0
C385 C 0.06533 0.51829 0.10139 0.0
C386 C 0.02212 0.59278 0.08651 0.0
C387 C 0.00061 0.62676 0.08408 0.0
C388 C 0.69186 0.79349 0.34247 0.0
C389 C 0.725 0.81475 0.35111 0.0
C390 C 0.65036 0.77166 0.33634 0.0
C391 C 0.61628 0.75025 0.33406 0.0
C392 C 0.47125 0.39982 0.58658 0.0
C393 C 0.49274 0.36583 0.58412 0.0
C394 C 0.44938 0.44123 0.59288 0.0
C395 C 0.42812 0.47433 0.60158 0.0
C396 C 0.19199 0.69915 0.6504 0.0
C397 C 0.22508 0.67782 0.64177 0.0
C398 C 0.15057 0.7211 0.65658 0.0
C399 C 0.11656 0.7426 0.65895 0.0
C400 C 0.52238 0.8999 0.90724 0.0
C401 C 0.50107 0.86577 0.90949 0.0
C402 C 0.54409 0.94143 0.90111 0.0
C403 C 0.56524 0.97461 0.89244 0.0
C404 C 0.9492 0.05134 0.40045 0.0
C405 C 0.92803 0.01819 0.39172 0.0
C406 C 0.97095 0.09282 0.40674 0.0
C407 C 0.99234 0.12689 0.40914 0.0
loop_
_geom_bond_atom_site_label_1
_geom_bond_atom_site_label_2
_geom_bond_distance
_geom_bond_site_symmetry_2
_ccdc_geom_bond_type
Sc0 O3 2.025 . S
Sc0 O10 2.105 . S
Sc0 O13 2.105 . S
Sc0 O16 2.105 . S
Sc0 O19 2.105 . S
Sc1 O3 2.025 . S
Sc1 O11 2.105 . S
Sc1 O15 2.105 . S
Sc1 O17 2.105 . S
Sc1 O21 2.105 . S
Sc2 O3 2.025 . S
Sc2 O12 2.105 . S
Sc2 O14 2.105 . S
Sc2 O18 2.105 . S
Sc2 O20 2.105 . S
O3 Sc0 2.025 . S
O3 Sc1 2.025 . S
O3 Sc2 2.025 . S
C4 O10 1.268 . S
C4 O20 1.268 . S
C5 O11 1.268 . S
C5 O19 1.268 . S
C6 O12 1.268 . S
C6 O21 1.268 . S
C7 O13 1.268 . S
C7 O17 1.268 . S
C8 O14 1.268 . S
C8 O16 1.268 . S
C9 O15 1.268 . S
C9 O18 1.268 . S
O10 Sc0 2.105 . S
O10 C4 1.268 . S
O11 Sc1 2.105 . S
O11 C5 1.268 . S
O12 Sc2 2.105 . S
O12 C6 1.268 . S
O13 Sc0 2.105 . S
O13 C7 1.268 . S
O14 Sc2 2.105 . S
O14 C8 1.268 . S
O15 Sc1 2.105 . S
O15 C9 1.268 . S
O16 Sc0 2.105 . S
O16 C8 1.268 . S
O17 Sc1 2.105 . S
O17 C7 1.268 . S
O18 Sc2 2.105 . S
O18 C9 1.268 . S
O19 Sc0 2.105 . S
O19 C5 1.268 . S
O20 Sc2 2.105 . S
O20 C4 1.268 . S
O21 Sc1 2.105 . S
O21 C6 1.268 . S
Sc22 O25 2.025 . S
Sc22 O32 2.105 . S
Sc22 O35 2.105 . S
Sc22 O38 2.105 . S
Sc22 O41 2.105 . S
Sc23 O25 2.025 1_655 S
Sc23 O33 2.105 1_655 S
Sc23 O37 2.105 . S
Sc23 O39 2.105 . S
Sc23 O43 2.105 . S
Sc24 O25 2.025 . S
Sc24 O34 2.105 . S
Sc24 O36 2.105 . S
Sc24 O40 2.105 1_455 S
Sc24 O42 2.105 . S
O25 Sc22 2.025 . S
O25 Sc23 2.025 1_455 S
O25 Sc24 2.025 . S
C26 O32 1.268 . S
C26 O42 1.268 . S
C27 O33 1.268 . S
C27 O41 1.268 . S
C28 O34 1.268 . S
C28 O43 1.268 1_455 S
C29 O35 1.268 . S
C29 O39 1.268 1_455 S
C30 O36 1.268 . S
C30 O38 1.268 . S
C31 O37 1.268 . S
C31 O40 1.268 . S
O32 Sc22 2.105 . S
O32 C26 1.268 . S
O33 Sc23 2.105 1_455 S
O33 C27 1.268 . S
O34 Sc24 2.105 . S
O34 C28 1.268 . S
O35 Sc22 2.105 . S
O35 C29 1.268 . S
O36 Sc24 2.105 . S
O36 C30 1.268 . S
O37 Sc23 2.105 . S
O37 C31 1.268 . S
O38 Sc22 2.105 . S
O38 C30 1.268 . S
O39 Sc23 2.105 . S
O39 C29 1.268 1_655 S
O40 Sc24 2.105 1_655 S
O40 C31 1.268 . S
O41 Sc22 2.105 . S
O41 C27 1.268 . S
O42 Sc24 2.105 . S
O42 C26 1.268 . S
O43 Sc23 2.105 . S
O43 C28 1.268 1_655 S
Sc44 O47 2.025 . S
Sc44 O54 2.105 . S
Sc44 O57 2.105 . S
Sc44 O60 2.105 . S
Sc44 O63 2.105 1_556 S
Sc45 O47 2.025 1_554 S
Sc45 O55 2.105 . S
Sc45 O59 2.105 1_554 S
Sc45 O61 2.105 . S
Sc45 O65 2.105 . S
Sc46 O47 2.025 . S
Sc46 O56 2.105 . S
Sc46 O58 2.105 . S
Sc46 O62 2.105 . S
Sc46 O64 2.105 . S
O47 Sc44 2.025 . S
O47 Sc45 2.025 1_556 S
O47 Sc46 2.025 . S
C48 O54 1.268 . S
C48 O64 1.268 . S
C49 O55 1.268 . S
C49 O63 1.268 . S
C50 O56 1.268 . S
C50 O65 1.268 1_556 S
C51 O57 1.268 . S
C51 O61 1.268 1_556 S
C52 O58 1.268 . S
C52 O60 1.268 . S
C53 O59 1.268 . S
C53 O62 1.268 . S
O54 Sc44 2.105 . S
O54 C48 1.268 . S
O55 Sc45 2.105 . S
O55 C49 1.268 . S
O56 Sc46 2.105 . S
O56 C50 1.268 . S
O57 Sc44 2.105 . S
O57 C51 1.268 . S
O58 Sc46 2.105 . S
O58 C52 1.268 . S
O59 Sc45 2.105 1_556 S
O59 C53 1.268 . S
O60 Sc44 2.105 . S
O60 C52 1.268 . S
O61 Sc45 2.105 . S
O61 C51 1.268 1_554 S
O62 Sc46 2.105 . S
O62 C53 1.268 . S
O63 Sc44 2.105 1_554 S
O63 C49 1.268 . S
O64 Sc46 2.105 . S
O64 C48 1.268 . S
O65 Sc45 2.105 . S
O65 C50 1.268 1_554 S
Sc66 O69 2.025 . S
Sc66 O76 2.105 . S
Sc66 O79 2.105 . S
Sc66 O82 2.105 . S
Sc66 O85 2.105 . S
Sc67 O69 2.025 . S
Sc67 O77 2.105 . S
Sc67 O81 2.105 . S
Sc67 O83 2.105 . S
Sc67 O87 2.105 . S
Sc68 O69 2.025 . S
Sc68 O78 2.105 . S
Sc68 O80 2.105 . S
Sc68 O84 2.105 . S
Sc68 O86 2.105 . S
O69 Sc66 2.025 . S
O69 Sc67 2.025 . S
O69 Sc68 2.025 . S
C70 O76 1.268 . S
C70 O86 1.268 . S
C71 O77 1.268 . S
C71 O85 1.268 . S
C72 O78 1.268 . S
C72 O87 1.268 . S
C73 O79 1.268 . S
C73 O83 1.268 . S
C74 O80 1.268 . S
C74 O82 1.268 . S
C75 O81 1.268 . S
C75 O84 1.268 . S
O76 Sc66 2.105 . S
O76 C70 1.268 . S
O77 Sc67 2.105 . S
O77 C71 1.268 . S
O78 Sc68 2.105 . S
O78 C72 1.268 . S
O79 Sc66 2.105 . S
O79 C73 1.268 . S
O80 Sc68 2.105 . S
O80 C74 1.268 . S
O81 Sc67 2.105 . S
O81 C75 1.268 . S
O82 Sc66 2.105 . S
O82 C74 1.268 . S
O83 Sc67 2.105 . S
O83 C73 1.268 . S
O84 Sc68 2.105 . S
O84 C75 1.268 . S
O85 Sc66 2.105 . S
O85 C71 1.268 . S
O86 Sc68 2.105 . S
O86 C70 1.268 . S
O87 Sc67 2.105 . S
O87 C72 1.268 . S
Sc88 O91 2.025 . S
Sc88 O98 2.105 . S
Sc88 O101 2.105 . S
Sc88 O104 2.105 . S
Sc88 O107 2.105 . S
Sc89 O91 2.025 . S
Sc89 O99 2.105 . S
Sc89 O103 2.105 . S
Sc89 O105 2.105 . S
Sc89 O109 2.105 . S
Sc90 O91 2.025 . S
Sc90 O100 2.105 . S
Sc90 O102 2.105 . S
Sc90 O106 2.105 . S
Sc90 O108 2.105 . S
O91 Sc88 2.025 . S
O91 Sc89 2.025 . S
O91 Sc90 2.025 . S
C92 O98 1.268 . S
C92 O108 1.268 . S
C93 O99 1.268 . S
C93 O107 1.268 . S
C94 O100 1.268 . S
C94 O109 1.268 . S
C95 O101 1.268 . S
C95 O105 1.268 . S
C96 O102 1.268 . S
C96 O104 1.268 . S
C97 O103 1.268 . S
C97 O106 1.268 . S
O98 Sc88 2.105 . S
O98 C92 1.268 . S
O99 Sc89 2.105 . S
O99 C93 1.268 . S
O100 Sc90 2.105 . S
O100 C94 1.268 . S
O101 Sc88 2.105 . S
O101 C95 1.268 . S
O102 Sc90 2.105 . S
O102 C96 1.268 . S
O103 Sc89 2.105 . S
O103 C97 1.268 . S
O104 Sc88 2.105 . S
O104 C96 1.268 . S
O105 Sc89 2.105 . S
O105 C95 1.268 . S
O106 Sc90 2.105 . S
O106 C97 1.268 . S
O107 Sc88 2.105 . S
O107 C93 1.268 . S
O108 Sc90 2.105 . S
O108 C92 1.268 . S
O109 Sc89 2.105 . S
O109 C94 1.268 . S
Sc110 O113 2.025 . S
Sc110 O120 2.105 . S
Sc110 O123 2.105 . S
Sc110 O126 2.105 . S
Sc110 O129 2.105 1_655 S
Sc111 O113 2.025 1_455 S
Sc111 O121 2.105 . S
Sc111 O125 2.105 1_455 S
Sc111 O127 2.105 . S
Sc111 O131 2.105 . S
Sc112 O113 2.025 . S
Sc112 O122 2.105 . S
Sc112 O124 2.105 . S
Sc112 O128 2.105 . S
Sc112 O130 2.105 . S
O113 Sc110 2.025 . S
O113 Sc111 2.025 1_655 S
O113 Sc112 2.025 . S
C114 O120 1.268 . S
C114 O130 1.268 . S
C115 O121 1.268 . S
C115 O129 1.268 . S
C116 O122 1.268 . S
C116 O131 1.268 1_655 S
C117 O123 1.268 . S
C117 O127 1.268 1_655 S
C118 O124 1.268 . S
C118 O126 1.268 . S
C119 O125 1.268 . S
C119 O128 1.268 . S
O120 Sc110 2.105 . S
O120 C114 1.268 . S
O121 Sc111 2.105 . S
O121 C115 1.268 . S
O122 Sc112 2.105 . S
O122 C116 1.268 . S
O123 Sc110 2.105 . S
O123 C117 1.268 . S
O124 Sc112 2.105 . S
O124 C118 1.268 . S
O125 Sc111 2.105 1_655 S
O125 C119 1.268 . S
O126 Sc110 2.105 . S
O126 C118 1.268 . S
O127 Sc111 2.105 . S
O127 C117 1.268 1_455 S
O128 Sc112 2.105 . S
O128 C119 1.268 . S
O129 Sc110 2.105 1_455 S
O129 C115 1.268 . S
O130 Sc112 2.105 . S
O130 C114 1.268 . S
O131 Sc111 2.105 . S
O131 C116 1.268 1_455 S
Sc132 O135 2.025 . S
Sc132 O142 2.105 . S
Sc132 O145 2.105 . S
Sc132 O148 2.105 . S
Sc132 O151 2.105 1_554 S
Sc133 O135 2.025 1_556 S
Sc133 O143 2.105 . S
Sc133 O147 2.105 1_556 S
Sc133 O149 2.105 . S
Sc133 O153 2.105 . S
Sc134 O135 2.025 . S
Sc134 O144 2.105 . S
Sc134 O146 2.105 . S
Sc134 O150 2.105 . S
Sc134 O152 2.105 . S
O135 Sc132 2.025 . S
O135 Sc133 2.025 1_554 S
O135 Sc134 2.025 . S
C136 O142 1.268 . S
C136 O152 1.268 . S
C137 O143 1.268 . S
C137 O151 1.268 . S
C138 O144 1.268 . S
C138 O153 1.268 1_554 S
C139 O145 1.268 . S
C139 O149 1.268 1_554 S
C140 O146 1.268 . S
C140 O148 1.268 . S
C141 O147 1.268 . S
C141 O150 1.268 . S
O142 Sc132 2.105 . S
O142 C136 1.268 . S
O143 Sc133 2.105 . S
O143 C137 1.268 . S
O144 Sc134 2.105 . S
O144 C138 1.268 . S
O145 Sc132 2.105 . S
O145 C139 1.268 . S
O146 Sc134 2.105 . S
O146 C140 1.268 . S
O147 Sc133 2.105 1_554 S
O147 C141 1.268 . S
O148 Sc132 2.105 . S
O148 C140 1.268 . S
O149 Sc133 2.105 . S
O149 C139 1.268 1_556 S
O150 Sc134 2.105 . S
O150 C141 1.268 . S
O151 Sc132 2.105 1_556 S
O151 C137 1.268 . S
O152 Sc134 2.105 . S
O152 C136 1.268 . S
O153 Sc133 2.105 . S
O153 C138 1.268 1_556 S
Sc154 O157 2.025 . S
Sc154 O164 2.105 . S
Sc154 O167 2.105 . S
Sc154 O170 2.105 . S
Sc154 O173 2.105 . S
Sc155 O157 2.025 . S
Sc155 O165 2.105 . S
Sc155 O169 2.105 . S
Sc155 O171 2.105 . S
Sc155 O175 2.105 . S
Sc156 O157 2.025 . S
Sc156 O166 2.105 . S
Sc156 O168 2.105 . S
Sc156 O172 2.105 . S
Sc156 O174 2.105 . S
O157 Sc154 2.025 . S
O157 Sc155 2.025 . S
O157 Sc156 2.025 . S
C158 O164 1.268 . S
C158 O174 1.268 . S
C159 O165 1.268 . S
C159 O173 1.268 . S
C160 O166 1.268 . S
C160 O175 1.268 . S
C161 O167 1.268 . S
C161 O171 1.268 . S
C162 O168 1.268 . S
C162 O170 1.268 . S
C163 O169 1.268 . S
C163 O172 1.268 . S
O164 Sc154 2.105 . S
O164 C158 1.268 . S
O165 Sc155 2.105 . S
O165 C159 1.268 . S
O166 Sc156 2.105 . S
O166 C160 1.268 . S
O167 Sc154 2.105 . S
O167 C161 1.268 . S
O168 Sc156 2.105 . S
O168 C162 1.268 . S
O169 Sc155 2.105 . S
O169 C163 1.268 . S
O170 Sc154 2.105 . S
O170 C162 1.268 . S
O171 Sc155 2.105 . S
O171 C161 1.268 . S
O172 Sc156 2.105 . S
O172 C163 1.268 . S
O173 Sc154 2.105 . S
O173 C159 1.268 . S
O174 Sc156 2.105 . S
O174 C158 1.268 . S
O175 Sc155 2.105 . S
O175 C160 1.268 . S
Sc176 O179 2.025 . S
Sc176 O186 2.105 . S
Sc176 O189 2.105 . S
Sc176 O192 2.105 . S
Sc176 O195 2.105 . S
Sc177 O179 2.025 . S
Sc177 O187 2.105 . S
Sc177 O191 2.105 . S
Sc177 O193 2.105 . S
Sc177 O197 2.105 . S
Sc178 O179 2.025 . S
Sc178 O188 2.105 . S
Sc178 O190 2.105 . S
Sc178 O194 2.105 . S
Sc178 O196 2.105 . S
O179 Sc176 2.025 . S
O179 Sc177 2.025 . S
O179 Sc178 2.025 . S
C180 O186 1.268 . S
C180 O196 1.268 . S
C181 O187 1.268 . S
C181 O195 1.268 . S
C182 O188 1.268 . S
C182 O197 1.268 . S
C183 O189 1.268 . S
C183 O193 1.268 . S
C184 O190 1.268 . S
C184 O192 1.268 . S
C185 O191 1.268 . S
C185 O194 1.268 . S
O186 Sc176 2.105 . S
O186 C180 1.268 . S
O187 Sc177 2.105 . S
O187 C181 1.268 . S
O188 Sc178 2.105 . S
O188 C182 1.268 . S
O189 Sc176 2.105 . S
O189 C183 1.268 . S
O190 Sc178 2.105 . S
O190 C184 1.268 . S
O191 Sc177 2.105 . S
O191 C185 1.268 . S
O192 Sc176 2.105 . S
O192 C184 1.268 . S
O193 Sc177 2.105 . S
O193 C183 1.268 . S
O194 Sc178 2.105 . S
O194 C185 1.268 . S
O195 Sc176 2.105 . S
O195 C181 1.268 . S
O196 Sc178 2.105 . S
O196 C180 1.268 . S
O197 Sc177 2.105 . S
O197 C182 1.268 . S
Sc198 O201 2.025 1_565 S
Sc198 O208 2.105 1_565 S
Sc198 O211 2.105 . S
Sc198 O214 2.105 . S
Sc198 O217 2.105 . S
Sc199 O201 2.025 . S
Sc199 O209 2.105 . S
Sc199 O213 2.105 . S
Sc199 O215 2.105 1_545 S
Sc199 O219 2.105 . S
Sc200 O201 2.025 . S
Sc200 O210 2.105 . S
Sc200 O212 2.105 . S
Sc200 O216 2.105 . S
Sc200 O218 2.105 . S
O201 Sc198 2.025 1_545 S
O201 Sc199 2.025 . S
O201 Sc200 2.025 . S
C202 O208 1.268 . S
C202 O218 1.268 . S
C203 O209 1.268 . S
C203 O217 1.268 1_545 S
C204 O210 1.268 . S
C204 O219 1.268 . S
C205 O211 1.268 . S
C205 O215 1.268 . S
C206 O212 1.268 . S
C206 O214 1.268 1_545 S
C207 O213 1.268 . S
C207 O216 1.268 . S
O208 Sc198 2.105 1_545 S
O208 C202 1.268 . S
O209 Sc199 2.105 . S
O209 C203 1.268 . S
O210 Sc200 2.105 . S
O210 C204 1.268 . S
O211 Sc198 2.105 . S
O211 C205 1.268 . S
O212 Sc200 2.105 . S
O212 C206 1.268 . S
O213 Sc199 2.105 . S
O213 C207 1.268 . S
O214 Sc198 2.105 . S
O214 C206 1.268 1_565 S
O215 Sc199 2.105 1_565 S
O215 C205 1.268 . S
O216 Sc200 2.105 . S
O216 C207 1.268 . S
O217 Sc198 2.105 . S
O217 C203 1.268 1_565 S
O218 Sc200 2.105 . S
O218 C202 1.268 . S
O219 Sc199 2.105 . S
O219 C204 1.268 . S
Sc220 O223 2.025 . S
Sc220 O230 2.105 . S
Sc220 O233 2.105 . S
Sc220 O236 2.105 . S
Sc220 O239 2.105 . S
Sc221 O223 2.025 . S
Sc221 O231 2.105 . S
Sc221 O235 2.105 . S
Sc221 O237 2.105 . S
Sc221 O241 2.105 1_565 S
Sc222 O223 2.025 1_545 S
Sc222 O232 2.105 . S
Sc222 O234 2.105 1_545 S
Sc222 O238 2.105 . S
Sc222 O240 2.105 . S
O223 Sc220 2.025 . S
O223 Sc221 2.025 . S
O223 Sc222 2.025 1_565 S
C224 O230 1.268 . S
C224 O240 1.268 1_565 S
C225 O231 1.268 . S
C225 O239 1.268 . S
C226 O232 1.268 . S
C226 O241 1.268 . S
C227 O233 1.268 . S
C227 O237 1.268 . S
C228 O234 1.268 . S
C228 O236 1.268 . S
C229 O235 1.268 . S
C229 O238 1.268 1_565 S
O230 Sc220 2.105 . S
O230 C224 1.268 . S
O231 Sc221 2.105 . S
O231 C225 1.268 . S
O232 Sc222 2.105 . S
O232 C226 1.268 . S
O233 Sc220 2.105 . S
O233 C227 1.268 . S
O234 Sc222 2.105 1_565 S
O234 C228 1.268 . S
O235 Sc221 2.105 . S
O235 C229 1.268 . S
O236 Sc220 2.105 . S
O236 C228 1.268 . S
O237 Sc221 2.105 . S
O237 C227 1.268 . S
O238 Sc222 2.105 . S
O238 C229 1.268 1_545 S
O239 Sc220 2.105 . S
O239 C225 1.268 . S
O240 Sc222 2.105 . S
O240 C224 1.268 1_545 S
O241 Sc221 2.105 1_545 S
O241 C226 1.268 . S
Sc242 O245 2.025 . S
Sc242 O252 2.105 . S
Sc242 O255 2.105 . S
Sc242 O258 2.105 . S
Sc242 O261 2.105 . S
Sc243 O245 2.025 . S
Sc243 O253 2.105 . S
Sc243 O257 2.105 . S
Sc243 O259 2.105 . S
Sc243 O263 2.105 . S
Sc244 O245 2.025 . S
Sc244 O254 2.105 . S
Sc244 O256 2.105 . S
Sc244 O260 2.105 . S
Sc244 O262 2.105 . S
O245 Sc242 2.025 . S
O245 Sc243 2.025 . S
O245 Sc244 2.025 . S
C246 O252 1.268 . S
C246 O262 1.268 . S
C247 O253 1.268 . S
C247 O261 1.268 . S
C248 O254 1.268 . S
C248 O263 1.268 . S
C249 O255 1.268 . S
C249 O259 1.268 . S
C250 O256 1.268 . S
C250 O258 1.268 . S
C251 O257 1.268 . S
C251 O260 1.268 . S
O252 Sc242 2.105 . S
O252 C246 1.268 . S
O253 Sc243 2.105 . S
O253 C247 1.268 . S
O254 Sc244 2.105 . S
O254 C248 1.268 . S
O255 Sc242 2.105 . S
O255 C249 1.268 . S
O256 Sc244 2.105 . S
O256 C250 1.268 . S
O257 Sc243 2.105 . S
O257 C251 1.268 . S
O258 Sc242 2.105 . S
O258 C250 1.268 . S
O259 Sc243 2.105 . S
O259 C249 1.268 . S
O260 Sc244 2.105 . S
O260 C251 1.268 . S
O261 Sc242 2.105 . S
O261 C247 1.268 . S
O262 Sc244 2.105 . S
O262 C246 1.268 . S
O263 Sc243 2.105 . S
O263 C248 1.268 . S
C264 C265 1.170 . S
C264 C266 1.380 . S
C265 C264 1.170 . S
C266 C264 1.380 . S
C266 C267 1.170 . S
C267 C266 1.170 . S
C268 C269 1.170 1_565 S
C268 C270 1.380 . S
C269 C268 1.170 1_545 S
C270 C268 1.380 . S
C270 C271 1.170 . S
C271 C270 1.170 . S
C272 C273 1.170 1_554 S
C272 C274 1.380 . S
C273 C272 1.170 1_556 S
C274 C272 1.380 . S
C274 C275 1.170 . S
C275 C274 1.170 . S
C276 C277 1.170 . S
C276 C278 1.380 . S
C277 C276 1.170 . S
C278 C276 1.380 . S
C278 C279 1.170 1_545 S
C279 C278 1.170 1_565 S
C280 C281 1.170 . S
C280 C282 1.380 . S
C281 C280 1.170 . S
C282 C280 1.380 . S
C282 C283 1.170 . S
C283 C282 1.170 . S
C284 C285 1.170 . S
C284 C286 1.380 . S
C285 C284 1.170 . S
C286 C284 1.380 . S
C286 C287 1.170 . S
C287 C286 1.170 . S
C288 C289 1.170 . S
C288 C290 1.380 . S
C289 C288 1.170 . S
C290 C288 1.380 . S
C290 C291 1.170 1_556 S
C291 C290 1.170 1_554 S
C292 C293 1.170 . S
C292 C294 1.380 . S
C293 C292 1.170 . S
C294 C292 1.380 . S
C294 C295 1.170 . S
C295 C294 1.170 . S
C296 C297 1.170 . S
C296 C298 1.380 . S
C297 C296 1.170 . S
C298 C296 1.380 . S
C298 C299 1.170 . S
C299 C298 1.170 . S
C300 C301 1.170 . S
C300 C302 1.380 . S
C301 C300 1.170 . S
C302 C300 1.380 . S
C302 C303 1.170 1_455 S
C303 C302 1.170 1_655 S
C304 C305 1.170 1_655 S
C304 C306 1.380 . S
C305 C304 1.170 1_455 S
C306 C304 1.380 . S
C306 C307 1.170 . S
C307 C306 1.170 . S
C308 C309 1.170 . S
C308 C310 1.380 . S
C309 C308 1.170 . S
C310 C308 1.380 . S
C310 C311 1.170 . S
C311 C310 1.170 . S
C312 C313 1.170 . S
C312 C314 1.380 . S
C313 C312 1.170 . S
C314 C312 1.380 . S
C314 C315 1.170 . S
C315 C314 1.170 . S
C316 C317 1.170 . S
C316 C318 1.380 . S
C317 C316 1.170 . S
C318 C316 1.380 . S
C318 C319 1.170 . S
C319 C318 1.170 . S
C320 C321 1.170 . S
C320 C322 1.380 . S
C321 C320 1.170 . S
C322 C320 1.380 . S
C322 C323 1.170 . S
C323 C322 1.170 . S
C324 C325 1.170 . S
C324 C326 1.380 . S
C325 C324 1.170 . S
C326 C324 1.380 . S
C326 C327 1.170 . S
C327 C326 1.170 . S
C328 C329 1.170 . S
C328 C330 1.380 . S
C329 C328 1.170 . S
C330 C328 1.380 . S
C330 C331 1.170 . S
C331 C330 1.170 . S
C332 C333 1.170 . S
C332 C334 1.380 . S
C333 C332 1.170 . S
C334 C332 1.380 . S
C334 C335 1.170 . S
C335 C334 1.170 . S
C336 C337 1.170 . S
C336 C338 1.380 . S
C337 C336 1.170 . S
C338 C336 1.380 . S
C338 C339 1.170 . S
C339 C338 1.170 . S
C340 C341 1.170 . S
C340 C342 1.380 . S
C341 C340 1.170 . S
C342 C340 1.380 . S
C342 C343 1.170 . S
C343 C342 1.170 . S
C344 C345 1.170 . S
C344 C346 1.380 . S
C345 C344 1.170 . S
C346 C344 1.380 . S
C346 C347 1.170 . S
C347 C346 1.170 . S
C348 C349 1.170 . S
C348 C350 1.380 . S
C349 C348 1.170 . S
C350 C348 1.380 . S
C350 C351 1.170 . S
C351 C350 1.170 . S
C352 C353 1.170 . S
C352 C354 1.380 . S
C353 C352 1.170 . S
C354 C352 1.380 . S
C354 C355 1.170 . S
C355 C354 1.170 . S
C356 C357 1.170 . S
C356 C358 1.380 . S
C357 C356 1.170 . S
C358 C356 1.380 . S
C358 C359 1.170 . S
C359 C358 1.170 . S
C360 C361 1.170 . S
C360 C362 1.380 . S
C361 C360 1.170 . S
C362 C360 1.380 . S
C362 C363 1.170 . S
C363 C362 1.170 . S
C364 C365 1.170 . S
C364 C366 1.380 . S
C365 C364 1.170 . S
C366 C364 1.380 . S
C366 C367 1.170 . S
C367 C366 1.170 . S
C368 C369 1.170 . S
C368 C370 1.380 . S
C369 C368 1.170 . S
C370 C368 1.380 . S
C370 C371 1.170 . S
C371 C370 1.170 . S
C372 C373 1.170 . S
C372 C374 1.380 . S
C373 C372 1.170 . S
C374 C372 1.380 . S
C374 C375 1.170 . S
C375 C374 1.170 . S
C376 C377 1.170 . S
C376 C378 1.380 . S
C377 C376 1.170 . S
C378 C376 1.380 . S
C378 C379 1.170 . S
C379 C378 1.170 . S
C380 C381 1.170 . S
C380 C382 1.380 . S
C381 C380 1.170 . S
C382 C380 1.380 . S
C382 C383 1.170 . S
C383 C382 1.170 . S
C384 C385 1.170 . S
C384 C386 1.380 . S
C385 C384 1.170 . S
C386 C384 1.380 . S
C386 C387 1.170 . S
C387 C386 1.170 . S
C388 C389 1.170 . S
C388 C390 1.380 . S
C389 C388 1.170 . S
C390 C388 1.380 . S
C390 C391 1.170 . S
C391 C390 1.170 . S
C392 C393 1.170 . S
C392 C394 1.380 . S
C393 C392 1.170 . S
C394 C392 1.380 . S
C394 C395 1.170 . S
C395 C394 1.170 . S
C396 C397 1.170 . S
C396 C398 1.380 . S
C397 C396 1.170 . S
C398 C396 1.380 . S
C398 C399 1.170 . S
C399 C398 1.170 . S
C400 C401 1.170 . S
C400 C402 1.380 . S
C401 C400 1.170 . S
C402 C400 1.380 . S
C402 C403 1.170 . S
C403 C402 1.170 . S
C404 C405 1.170 . S
C404 C406 1.380 . S
C405 C404 1.170 . S
C406 C404 1.380 . S
C406 C407 1.170 . S
C407 C406 1.170 . S
C265 C6 1.178 . S
C267 C248 1.171 . S
C269 C203 1.204 . S
C271 C31 1.218 . S
C273 C51 1.172 . S
C275 C181 1.170 . S
C277 C75 1.178 . S
C279 C229 1.192 . S
C281 C93 1.173 . S
C283 C226 1.185 . S
C285 C115 1.195 . S
C287 C251 1.211 . S
C289 C205 1.203 . S
C291 C139 1.187 . S
C293 C161 1.220 . S
C295 C183 1.226 . S
C297 C72 1.200 . S
C299 C95 1.184 . S
C301 C9 1.197 . S
C303 C117 1.212 . S
C305 C28 1.173 . S
C307 C137 1.183 . S
C309 C159 1.213 . S
C311 C49 1.198 . S
C313 C4 1.566 . S
C315 C185 1.504 . S
C317 C29 1.561 1_655 S
C319 C225 1.548 . S
C321 C250 1.523 . S
C323 C52 1.554 . S
C325 C73 1.581 . S
C327 C207 1.538 1_554 S
C329 C94 1.576 . S
C331 C202 1.498 . S
C333 C180 1.527 1_556 S
C335 C116 1.587 1_455 S
C337 C228 1.547 . S
C339 C140 1.568 . S
C341 C247 1.503 . S
C343 C162 1.567 . S
C345 C5 1.505 . S
C347 C70 1.565 . S
C349 C7 1.564 . S
C351 C30 1.548 1_545 S
C353 C26 1.566 . S
C355 C53 1.504 . S
C357 C74 1.545 1_565 S
C359 C50 1.572 1_554 S
C361 C118 1.564 . S
C363 C92 1.548 . S
C365 C114 1.502 . S
C367 C138 1.568 1_556 S
C369 C141 1.542 . S
C371 C160 1.554 . S
C373 C96 1.553 . S
C375 C163 1.528 . S
C377 C184 1.578 . S
C379 C71 1.498 . S
C381 C119 1.505 . S
C383 C204 1.565 . S
C385 C182 1.575 . S
C387 C136 1.498 1_455 S
C389 C227 1.587 . S
C391 C158 1.527 . S
C393 C97 1.507 . S
C395 C246 1.590 . S
C397 C249 1.587 . S
C399 C27 1.527 . S
C401 C48 1.524 . S
C403 C206 1.588 1_565 S
C405 C224 1.553 1_545 S
C407 C8 1.539 1_655 S
