# Generated by pormake.
# Topology lcy, (6)-cn, num edge types: 1
# Building blocks:
#     Node 0, Type 0, BuildingBlock: IZENUY_clean_sbu_0, # of connection points: 6
#     Node 1, Type 0, BuildingBlock: IZENUY_clean_sbu_0, # of connection points: 6
#     Node 2, Type 0, BuildingBlock: IZENUY_clean_sbu_0, # of connection points: 6
#     Node 3, Type 0, BuildingBlock: IZENUY_clean_sbu_0, # of connection points: 6
#     Edge 4, Type (0, 0), BuildingBlock: CIFDUS_clean_linker_0, # of connection points: 2
#     Edge 5, Type (0, 0), BuildingBlock: CIFDUS_clean_linker_0, # of connection points: 2
#     Edge 6, Type (0, 0), BuildingBlock: CIFDUS_clean_linker_0, # of connection points: 2
#     Edge 7, Type (0, 0), BuildingBlock: CIFDUS_clean_linker_0, # of connection points: 2
#     Edge 8, Type (0, 0), BuildingBlock: CIFDUS_clean_linker_0, # of connection points: 2
#     Edge 9, Type (0, 0), BuildingBlock: CIFDUS_clean_linker_0, # of connection points: 2
#     Edge 10, Type (0, 0), BuildingBlock: CIFDUS_clean_linker_0, # of connection points: 2
#     Edge 11, Type (0, 0), BuildingBlock: CIFDUS_clean_linker_0, # of connection points: 2
#     Edge 12, Type (0, 0), BuildingBlock: CIFDUS_clean_linker_0, # of connection points: 2
#     Edge 13, Type (0, 0), BuildingBlock: CIFDUS_clean_linker_0, # of connection points: 2
#     Edge 14, Type (0, 0), BuildingBlock: CIFDUS_clean_linker_0, # of connection points: 2
#     Edge 15, Type (0, 0), BuildingBlock: CIFDUS_clean_linker_0, # of connection points: 2
# Relax obj value: 0.232
# Max RMSD: 0.227
# Mean RMSD: 0.227
data_MOF--net-lcy--node1-IZENUY_clean_sbu_0--edge1-CIFDUS_clean_linker_0
_symmetry_space_group_name_H-M    P1
_symmetry_Int_Tables_number       1
_symmetry_cell_setting            triclinic
loop_
_symmetry_equiv_pos_as_xyz
'x, y, z'
_cell_length_a     22.552747
_cell_length_b     22.554794
_cell_length_c     22.559264
_cell_angle_alpha  90.000365
_cell_angle_beta   90.003349
_cell_angle_gamma 89.954462
loop_
_atom_site_label
_atom_site_type_symbol
_atom_site_fract_x
_atom_site_fract_y
_atom_site_fract_z
_atom_type_partial_charge
Fe0 Fe 0.43525 0.37983 0.3242 0.0
Fe1 Fe 0.38 0.32462 0.43534 0.0
O2 O 0.37996 0.38006 0.37984 0.0
Fe3 Fe 0.32463 0.43571 0.38 0.0
O4 O 0.29868 0.41394 0.3079 0.0
O5 O 0.38654 0.41126 0.26583 0.0
O6 O 0.41313 0.30767 0.29872 0.0
C7 C 0.41501 0.26205 0.33065 0.0
C8 C 0.42934 0.49773 0.34415 0.0
O9 O 0.4111 0.26597 0.38673 0.0
C10 C 0.34501 0.42941 0.49776 0.0
O11 O 0.49386 0.34834 0.37262 0.0
O12 O 0.45234 0.34629 0.46072 0.0
O13 O 0.37325 0.49407 0.34847 0.0
O14 O 0.46115 0.45199 0.34585 0.0
C15 C 0.2621 0.33125 0.41571 0.0
O16 O 0.34894 0.37332 0.49391 0.0
O17 O 0.34679 0.4613 0.45211 0.0
C18 C 0.49788 0.34425 0.42868 0.0
O19 O 0.30766 0.29919 0.41374 0.0
O20 O 0.26607 0.38733 0.41156 0.0
C21 C 0.33045 0.41552 0.26217 0.0
Fe22 Fe 0.8247 0.0746 0.63 0.0
Fe23 Fe 0.88001 0.18566 0.57465 0.0
O24 O 0.88006 0.13015 0.63009 0.0
Fe25 Fe 0.93549 0.13022 0.68561 0.0
O26 O 0.96131 0.05805 0.66377 0.0
O27 O 0.8734 0.01612 0.6613 0.0
O28 O 0.8466 0.04906 0.55777 0.0
C29 C 0.8447 0.08101 0.51217 0.0
C30 C 0.83085 0.09449 0.74788 0.0
O31 O 0.84877 0.13709 0.51607 0.0
C32 C 0.91527 0.24805 0.67935 0.0
O33 O 0.76609 0.12315 0.59868 0.0
O34 O 0.80773 0.21119 0.59644 0.0
O35 O 0.88693 0.09876 0.74407 0.0
O36 O 0.79897 0.0963 0.70222 0.0
C37 C 0.9979 0.16581 0.58103 0.0
O38 O 0.91121 0.24419 0.62327 0.0
O39 O 0.91347 0.2024 0.71124 0.0
C40 C 0.76215 0.17923 0.59458 0.0
O41 O 0.9523 0.16392 0.54907 0.0
O42 O 0.99399 0.16167 0.6371 0.0
C43 C 0.9295 0.01236 0.66548 0.0
Fe44 Fe 0.07492 0.63024 0.82425 0.0
Fe45 Fe 0.18559 0.57441 0.88001 0.0
O46 O 0.13026 0.63007 0.87984 0.0
Fe47 Fe 0.13027 0.68555 0.93529 0.0
O48 O 0.05796 0.66393 0.96076 0.0
O49 O 0.01634 0.66175 0.87269 0.0
O50 O 0.04906 0.55809 0.84597 0.0
C51 C 0.08087 0.51236 0.84427 0.0
C52 C 0.09516 0.74803 0.83059 0.0
O53 O 0.13696 0.51604 0.84853 0.0
C54 C 0.24816 0.67888 0.91563 0.0
O55 O 0.1236 0.59879 0.76586 0.0
O56 O 0.21149 0.59615 0.80789 0.0
O57 O 0.09915 0.74416 0.88667 0.0
O58 O 0.09699 0.70239 0.79869 0.0
C59 C 0.16527 0.58079 0.99777 0.0
O60 O 0.24417 0.62281 0.91152 0.0
O61 O 0.2026 0.71095 0.91362 0.0
C62 C 0.17969 0.59452 0.76217 0.0
O63 O 0.16346 0.54887 0.95214 0.0
O64 O 0.16138 0.63689 0.99388 0.0
C65 C 0.01239 0.66587 0.92875 0.0
Fe66 Fe 0.57474 0.87989 0.18558 0.0
Fe67 Fe 0.68549 0.93558 0.12998 0.0
O68 O 0.63017 0.87999 0.13007 0.0
Fe69 Fe 0.63027 0.82449 0.07463 0.0
O70 O 0.55797 0.84617 0.04903 0.0
O71 O 0.51625 0.84843 0.13706 0.0
O72 O 0.54888 0.95205 0.16377 0.0
C73 C 0.58067 0.99776 0.16548 0.0
C74 C 0.595 0.76207 0.17931 0.0
O75 O 0.63676 0.99403 0.16129 0.0
C76 C 0.74812 0.831 0.09454 0.0
O77 O 0.62329 0.91136 0.24405 0.0
O78 O 0.71125 0.9139 0.20219 0.0
O79 O 0.59908 0.76593 0.12324 0.0
O80 O 0.59679 0.80771 0.21121 0.0
C81 C 0.66548 0.92916 0.01215 0.0
O82 O 0.74413 0.88708 0.09865 0.0
O83 O 0.70256 0.79901 0.09645 0.0
C84 C 0.67937 0.91567 0.24785 0.0
O85 O 0.66355 0.96111 0.05775 0.0
O86 O 0.66148 0.87307 0.01606 0.0
C87 C 0.51236 0.84429 0.08098 0.0
H88 H 0.24418 0.49156 0.00754 0.0
H89 H 0.1357 0.60975 0.11169 0.0
H90 H 0.17483 0.56542 0.20305 0.0
H91 H 0.24218 0.4955 0.25251 0.0
H92 H 0.35826 0.38484 0.14828 0.0
H93 H 0.31367 0.42379 0.05696 0.0
C94 C 0.22855 0.50712 0.05029 0.0
C95 C 0.1864 0.55317 0.05316 0.0
C96 C 0.25277 0.48294 0.10218 0.0
C97 C 0.16776 0.5741 0.10863 0.0
C98 C 0.19016 0.5488 0.16066 0.0
C99 C 0.25722 0.47938 0.20975 0.0
C100 C 0.30274 0.43667 0.20683 0.0
C101 C 0.2329 0.50348 0.15786 0.0
C102 C 0.32302 0.41736 0.15136 0.0
C103 C 0.29757 0.43965 0.09936 0.0
H104 H 0.76768 0.99551 0.25749 0.0
H105 H 0.65119 0.88558 0.36183 0.0
H106 H 0.69565 0.9247 0.45312 0.0
H107 H 0.76534 0.99226 0.50249 0.0
H108 H 0.87429 0.1097 0.39818 0.0
H109 H 0.83507 0.06536 0.30688 0.0
C110 C 0.75252 0.97959 0.30026 0.0
C111 C 0.70693 0.937 0.30321 0.0
C112 C 0.77678 1.00377 0.35214 0.0
C113 C 0.68649 0.91799 0.35871 0.0
C114 C 0.71187 0.94036 0.4107 0.0
C115 C 0.78103 0.00765 0.45972 0.0
C116 C 0.82337 0.05348 0.45679 0.0
C117 C 0.75678 0.98346 0.40785 0.0
C118 C 0.84209 0.07421 0.40129 0.0
C119 C 0.81965 0.04891 0.34929 0.0
H120 H 0.2683 0.5149 0.75247 0.0
H121 H 0.15149 0.62483 0.64826 0.0
H122 H 0.19603 0.58586 0.55693 0.0
H123 H 0.26572 0.51829 0.5075 0.0
H124 H 0.37496 0.40081 0.61167 0.0
H125 H 0.33584 0.44517 0.70303 0.0
C126 C 0.25309 0.53086 0.70972 0.0
C127 C 0.20737 0.57338 0.70681 0.0
C128 C 0.27739 0.50676 0.65783 0.0
C129 C 0.18688 0.59247 0.65134 0.0
C130 C 0.2123 0.57017 0.59933 0.0
C131 C 0.28151 0.5029 0.55025 0.0
C132 C 0.32387 0.45704 0.55314 0.0
C133 C 0.2573 0.52709 0.60214 0.0
C134 C 0.34272 0.43632 0.60861 0.0
C135 C 0.32034 0.46163 0.66063 0.0
H136 H 0.74494 0.01783 1.0025 0.0
H137 H 0.63581 0.90057 0.89816 0.0
H138 H 0.67501 0.94493 0.80687 0.0
H139 H 0.74245 0.01474 0.7575 0.0
H140 H 0.85912 0.12448 0.86186 0.0
H141 H 0.81466 0.08535 0.95314 0.0
C142 C 0.7292 1.00248 0.95973 0.0
C143 C 0.68681 0.9567 0.95678 0.0
C144 C 0.75345 0.02668 0.90786 0.0
C145 C 0.66804 0.93602 0.90128 0.0
C146 C 0.69048 0.96134 0.84929 0.0
C147 C 0.75765 0.03062 0.80028 0.0
C148 C 0.80329 0.07315 0.80323 0.0
C149 C 0.73339 0.00643 0.85214 0.0
C150 C 0.82378 0.09211 0.85874 0.0
C151 C 0.79841 0.06973 0.91072 0.0
H152 H 0.00744 0.24587 0.4929 0.0
H153 H 0.11193 0.13572 0.60922 0.0
H154 H 0.2032 0.17493 0.56481 0.0
H155 H 0.2525 0.24255 0.49515 0.0
H156 H 0.14805 0.36016 0.38633 0.0
H157 H 0.05676 0.31585 0.4256 0.0
C158 C 0.05024 0.22993 0.50804 0.0
C159 C 0.05324 0.18724 0.55355 0.0
C160 C 0.1021 0.25416 0.48381 0.0
C161 C 0.10877 0.1682 0.57397 0.0
C162 C 0.16075 0.19063 0.54863 0.0
C163 C 0.2097 0.25799 0.4795 0.0
C164 C 0.20673 0.30384 0.43717 0.0
C165 C 0.15785 0.2338 0.50376 0.0
C166 C 0.15119 0.32465 0.41852 0.0
C167 C 0.09921 0.29937 0.44099 0.0
H168 H 0.01568 0.7577 0.74195 0.0
H169 H 0.12501 0.86201 0.85905 0.0
H170 H 0.08577 0.95334 0.81467 0.0
H171 H 0.01815 1.00273 0.74498 0.0
H172 H 0.90128 0.89839 0.63542 0.0
H173 H 0.94588 0.80708 0.67446 0.0
C174 C 0.03145 0.80048 0.75725 0.0
C175 C 0.07389 0.80341 0.803 0.0
C176 C 0.00719 0.85235 0.73305 0.0
C177 C 0.09272 0.85891 0.82363 0.0
C178 C 0.07027 0.91091 0.7983 0.0
C179 C 1.00294 0.95995 0.72912 0.0
C180 C 0.95719 0.95701 0.68668 0.0
C181 C 0.02727 0.90807 0.75326 0.0
C182 C 0.9367 0.9015 0.66772 0.0
C183 C 0.96215 0.8495 0.69006 0.0
H184 H 0.25778 0.76788 0.99475 0.0
H185 H 0.36221 0.64966 0.88657 0.0
H186 H 0.45351 0.69387 0.92592 0.0
H187 H 0.50284 0.76394 0.99313 0.0
H188 H 0.39835 0.87471 0.10884 0.0
H189 H 0.30708 0.83559 0.06432 0.0
C190 C 0.30058 0.75228 0.97925 0.0
C191 C 0.30354 0.70628 0.93708 0.0
C192 C 0.35244 0.77641 1.00357 0.0
C193 C 0.35907 0.68528 0.91863 0.0
C194 C 0.41107 0.71051 0.94115 0.0
C195 C 0.46004 0.78003 0.00811 0.0
C196 C 0.45703 0.82287 0.05348 0.0
C197 C 0.40818 0.75586 0.98382 0.0
C198 C 0.4015 0.84211 0.0737 0.0
C199 C 0.34953 0.81973 0.0483 0.0
H200 H 0.49433 0.25238 0.24187 0.0
H201 H 0.38536 0.14806 0.35928 0.0
H202 H 0.42463 0.05673 0.31492 0.0
H203 H 0.49217 0.00736 0.24515 0.0
H204 H 0.60869 0.11173 0.13527 0.0
H205 H 0.56406 0.20303 0.17431 0.0
C206 C 0.47863 0.2096 0.25725 0.0
C207 C 0.43629 0.20667 0.30308 0.0
C208 C 0.50292 0.15773 0.23305 0.0
C209 C 0.41757 0.15117 0.32379 0.0
C210 C 0.44004 0.09916 0.29848 0.0
C211 C 0.50729 0.05014 0.22922 0.0
C212 C 0.55295 0.0531 0.18669 0.0
C213 C 0.48295 0.10201 0.25336 0.0
C214 C 0.57334 0.10861 0.16764 0.0
C215 C 0.54787 0.1606 0.18997 0.0
H216 H 0.75261 0.26637 0.51354 0.0
H217 H 0.64819 0.15205 0.62563 0.0
H218 H 0.5569 0.19667 0.58647 0.0
H219 H 0.50758 0.26589 0.51836 0.0
H220 H 0.6119 0.37263 0.39889 0.0
H221 H 0.70324 0.33323 0.44311 0.0
C222 C 0.70982 0.25172 0.5299 0.0
C223 C 0.70683 0.20673 0.57311 0.0
C224 C 0.65796 0.27605 0.50572 0.0
C225 C 0.65131 0.1869 0.59273 0.0
C226 C 0.59934 0.21236 0.57033 0.0
C227 C 0.55037 0.28108 0.50248 0.0
C228 C 0.55329 0.32285 0.45612 0.0
C229 C 0.60223 0.25672 0.52664 0.0
C230 C 0.6088 0.34088 0.43479 0.0
C231 C 0.66081 0.31834 0.46002 0.0
H232 H 0.99232 0.50275 0.76465 0.0
H233 H 0.10905 0.39837 0.87448 0.0
H234 H 0.06446 0.30708 0.83555 0.0
H235 H 0.99468 0.25771 0.76809 0.0
H236 H 0.8855 0.36204 0.65072 0.0
H237 H 0.92475 0.45336 0.69497 0.0
C238 C 0.0075 0.45997 0.78059 0.0
C239 C 0.05321 0.45701 0.82308 0.0
C240 C 0.98317 0.40809 0.75651 0.0
C241 C 0.07367 0.40149 0.84214 0.0
C242 C 0.04822 0.34951 0.81987 0.0
C243 C 0.97893 0.30049 0.7527 0.0
C244 C 0.93654 0.30342 0.70691 0.0
C245 C 1.00321 0.35237 0.77683 0.0
C246 C 0.91775 0.35893 0.68618 0.0
C247 C 0.94021 0.41094 0.71143 0.0
H248 H 1.00277 0.74535 0.0174 0.0
H249 H 0.89838 0.63633 0.90008 0.0
H250 H 0.80707 0.67552 0.94456 0.0
H251 H 0.75772 0.74281 0.01458 0.0
H252 H 0.86212 0.85933 0.12444 0.0
H253 H 0.95343 0.81499 0.08508 0.0
C254 C 0.95998 0.72964 1.00205 0.0
C255 C 0.95702 0.68729 0.95624 0.0
C256 C 0.90811 0.75385 0.02634 0.0
C257 C 0.9015 0.66855 0.93556 0.0
C258 C 0.84951 0.69097 0.96094 0.0
C259 C 0.80052 0.758 0.03043 0.0
C260 C 0.80348 0.80355 0.07308 0.0
C261 C 0.85238 0.73381 0.00612 0.0
C262 C 0.859 0.82405 0.092 0.0
C263 C 0.91099 0.79875 0.06948 0.0
H264 H 0.51558 0.75239 0.26803 0.0
H265 H 0.62475 0.64807 0.15065 0.0
H266 H 0.58547 0.55674 0.19487 0.0
H267 H 0.51788 0.50735 0.26452 0.0
H268 H 0.40117 0.61172 0.37437 0.0
H269 H 0.44577 0.70302 0.33546 0.0
C270 C 0.53131 0.70961 0.25263 0.0
C271 C 0.57372 0.70669 0.20685 0.0
C272 C 0.50702 0.65773 0.27674 0.0
C273 C 0.59249 0.65117 0.18611 0.0
C274 C 0.57001 0.59917 0.21134 0.0
C275 C 0.5027 0.55013 0.28047 0.0
C276 C 0.457 0.55308 0.32296 0.0
C277 C 0.52705 0.60201 0.25641 0.0
C278 C 0.43655 0.6086 0.34202 0.0
C279 C 0.46201 0.66059 0.31977 0.0
loop_
_geom_bond_atom_site_label_1
_geom_bond_atom_site_label_2
_geom_bond_distance
_geom_bond_site_symmetry_2
_ccdc_geom_bond_type
Fe0 O2 1.918 . S
Fe0 O5 1.997 . S
Fe0 O6 2.002 . S
Fe0 O11 1.976 . S
Fe0 O14 1.996 . S
Fe1 O2 1.918 . S
Fe1 O9 1.997 . S
Fe1 O12 1.996 . S
Fe1 O16 1.976 . S
Fe1 O19 2.002 . S
O2 Fe0 1.918 . S
O2 Fe1 1.918 . S
O2 Fe3 1.918 . S
Fe3 O2 1.918 . S
Fe3 O4 2.002 . S
Fe3 O13 1.976 . S
Fe3 O17 1.996 . S
Fe3 O20 1.997 . S
O4 Fe3 2.002 . S
O4 C21 1.295 . S
O5 Fe0 1.997 . S
O5 C21 1.235 . S
O6 Fe0 2.002 . S
O6 C7 1.295 . S
C7 O6 1.295 . S
C7 O9 1.235 . S
C8 O13 1.287 . S
C8 O14 1.255 . S
O9 Fe1 1.997 . S
O9 C7 1.235 . S
C10 O16 1.287 . S
C10 O17 1.255 . S
O11 Fe0 1.976 . S
O11 C18 1.287 . S
O12 Fe1 1.996 . S
O12 C18 1.255 . S
O13 Fe3 1.976 . S
O13 C8 1.287 . S
O14 Fe0 1.996 . S
O14 C8 1.255 . S
C15 O19 1.295 . S
C15 O20 1.235 . S
O16 Fe1 1.976 . S
O16 C10 1.287 . S
O17 Fe3 1.996 . S
O17 C10 1.255 . S
C18 O11 1.287 . S
C18 O12 1.255 . S
O19 Fe1 2.002 . S
O19 C15 1.295 . S
O20 Fe3 1.997 . S
O20 C15 1.235 . S
C21 O4 1.295 . S
C21 O5 1.235 . S
Fe22 O24 1.918 . S
Fe22 O27 1.997 . S
Fe22 O28 2.002 . S
Fe22 O33 1.976 . S
Fe22 O36 1.996 . S
Fe23 O24 1.918 . S
Fe23 O31 1.997 . S
Fe23 O34 1.996 . S
Fe23 O38 1.976 . S
Fe23 O41 2.002 . S
O24 Fe22 1.918 . S
O24 Fe23 1.918 . S
O24 Fe25 1.918 . S
Fe25 O24 1.918 . S
Fe25 O26 2.002 . S
Fe25 O35 1.976 . S
Fe25 O39 1.996 . S
Fe25 O42 1.997 . S
O26 Fe25 2.002 . S
O26 C43 1.297 . S
O27 Fe22 1.997 . S
O27 C43 1.236 . S
O28 Fe22 2.002 . S
O28 C29 1.295 . S
C29 O28 1.295 . S
C29 O31 1.235 . S
C30 O35 1.287 . S
C30 O36 1.255 . S
O31 Fe23 1.997 . S
O31 C29 1.235 . S
C32 O38 1.287 . S
C32 O39 1.255 . S
O33 Fe22 1.976 . S
O33 C40 1.287 . S
O34 Fe23 1.996 . S
O34 C40 1.255 . S
O35 Fe25 1.976 . S
O35 C30 1.287 . S
O36 Fe22 1.996 . S
O36 C30 1.255 . S
C37 O41 1.285 1_455 S
C37 O42 1.234 1_455 S
O38 Fe23 1.976 . S
O38 C32 1.287 . S
O39 Fe25 1.996 . S
O39 C32 1.255 . S
C40 O33 1.287 . S
C40 O34 1.255 . S
O41 Fe23 2.002 . S
O41 C37 1.285 1_655 S
O42 Fe25 1.997 . S
O42 C37 1.234 1_655 S
C43 O26 1.297 . S
C43 O27 1.236 . S
Fe44 O46 1.918 . S
Fe44 O49 1.997 . S
Fe44 O50 2.002 . S
Fe44 O55 1.976 . S
Fe44 O58 1.996 . S
Fe45 O46 1.918 . S
Fe45 O53 1.997 . S
Fe45 O56 1.996 . S
Fe45 O60 1.976 . S
Fe45 O63 2.002 . S
O46 Fe44 1.918 . S
O46 Fe45 1.918 . S
O46 Fe47 1.918 . S
Fe47 O46 1.918 . S
Fe47 O48 2.002 . S
Fe47 O57 1.976 . S
Fe47 O61 1.996 . S
Fe47 O64 1.997 . S
O48 Fe47 2.002 . S
O48 C65 1.297 . S
O49 Fe44 1.997 . S
O49 C65 1.236 . S
O50 Fe44 2.002 . S
O50 C51 1.295 . S
C51 O50 1.295 . S
C51 O53 1.235 . S
C52 O57 1.287 . S
C52 O58 1.255 . S
O53 Fe45 1.997 . S
O53 C51 1.235 . S
C54 O60 1.287 . S
C54 O61 1.255 . S
O55 Fe44 1.976 . S
O55 C62 1.287 . S
O56 Fe45 1.996 . S
O56 C62 1.255 . S
O57 Fe47 1.976 . S
O57 C52 1.287 . S
O58 Fe44 1.996 . S
O58 C52 1.255 . S
C59 O63 1.285 1_554 S
C59 O64 1.234 1_554 S
O60 Fe45 1.976 . S
O60 C54 1.287 . S
O61 Fe47 1.996 . S
O61 C54 1.255 . S
C62 O55 1.287 . S
C62 O56 1.255 . S
O63 Fe45 2.002 . S
O63 C59 1.285 1_556 S
O64 Fe47 1.997 . S
O64 C59 1.234 1_556 S
C65 O48 1.297 . S
C65 O49 1.236 . S
Fe66 O68 1.918 . S
Fe66 O71 1.997 . S
Fe66 O72 2.002 . S
Fe66 O77 1.976 . S
Fe66 O80 1.996 . S
Fe67 O68 1.918 . S
Fe67 O75 1.997 . S
Fe67 O78 1.996 . S
Fe67 O82 1.976 . S
Fe67 O85 2.002 . S
O68 Fe66 1.918 . S
O68 Fe67 1.918 . S
O68 Fe69 1.918 . S
Fe69 O68 1.918 . S
Fe69 O70 2.002 . S
Fe69 O79 1.976 . S
Fe69 O83 1.996 . S
Fe69 O86 1.997 . S
O70 Fe69 2.002 . S
O70 C87 1.295 . S
O71 Fe66 1.997 . S
O71 C87 1.235 . S
O72 Fe66 2.002 . S
O72 C73 1.285 1_565 S
C73 O72 1.285 1_545 S
C73 O75 1.234 1_545 S
C74 O79 1.287 . S
C74 O80 1.255 . S
O75 Fe67 1.997 . S
O75 C73 1.234 1_565 S
C76 O82 1.287 . S
C76 O83 1.255 . S
O77 Fe66 1.976 . S
O77 C84 1.287 . S
O78 Fe67 1.996 . S
O78 C84 1.255 . S
O79 Fe69 1.976 . S
O79 C74 1.287 . S
O80 Fe66 1.996 . S
O80 C74 1.255 . S
C81 O85 1.297 . S
C81 O86 1.236 . S
O82 Fe67 1.976 . S
O82 C76 1.287 . S
O83 Fe69 1.996 . S
O83 C76 1.255 . S
C84 O77 1.287 . S
C84 O78 1.255 . S
O85 Fe67 2.002 . S
O85 C81 1.297 . S
O86 Fe69 1.997 . S
O86 C81 1.236 . S
C87 O70 1.295 . S
C87 O71 1.235 . S
H88 C94 0.930 . S
H89 C97 0.930 . S
H90 C98 0.930 . S
H91 C99 0.930 . S
H92 C102 0.930 . S
H93 C103 0.930 . S
C94 H88 0.930 . S
C94 C95 1.355 . S
C94 C96 1.415 . S
C95 C94 1.355 . S
C95 C97 1.419 . S
C96 C94 1.415 . S
C96 C101 1.425 . S
C96 C103 1.409 . S
C97 H89 0.930 . S
C97 C95 1.419 . S
C97 C98 1.362 . S
C98 H90 0.930 . S
C98 C97 1.362 . S
C98 C101 1.409 . S
C99 H91 0.930 . S
C99 C100 1.355 . S
C99 C101 1.415 . S
C100 C99 1.355 . S
C100 C102 1.419 . S
C101 C96 1.425 . S
C101 C98 1.409 . S
C101 C99 1.415 . S
C102 H92 0.930 . S
C102 C100 1.419 . S
C102 C103 1.362 . S
C103 H93 0.930 . S
C103 C96 1.409 . S
C103 C102 1.362 . S
H104 C110 0.930 . S
H105 C113 0.930 . S
H106 C114 0.930 . S
H107 C115 0.930 . S
H108 C118 0.930 . S
H109 C119 0.930 . S
C110 H104 0.930 . S
C110 C111 1.355 . S
C110 C112 1.415 . S
C111 C110 1.355 . S
C111 C113 1.419 . S
C112 C110 1.415 . S
C112 C117 1.425 1_565 S
C112 C119 1.409 . S
C113 H105 0.930 . S
C113 C111 1.419 . S
C113 C114 1.362 1_565 S
C114 H106 0.930 . S
C114 C113 1.362 1_545 S
C114 C117 1.409 . S
C115 H107 0.930 . S
C115 C116 1.355 . S
C115 C117 1.415 . S
C116 C115 1.355 . S
C116 C118 1.419 . S
C117 C112 1.425 1_545 S
C117 C114 1.409 . S
C117 C115 1.415 . S
C118 H108 0.930 . S
C118 C116 1.419 . S
C118 C119 1.362 1_545 S
C119 H109 0.930 . S
C119 C112 1.409 . S
C119 C118 1.362 1_565 S
H120 C126 0.930 . S
H121 C129 0.930 . S
H122 C130 0.930 . S
H123 C131 0.930 . S
H124 C134 0.930 . S
H125 C135 0.930 . S
C126 H120 0.930 . S
C126 C127 1.355 . S
C126 C128 1.415 . S
C127 C126 1.355 . S
C127 C129 1.419 . S
C128 C126 1.415 . S
C128 C133 1.425 . S
C128 C135 1.409 . S
C129 H121 0.930 . S
C129 C127 1.419 . S
C129 C130 1.362 . S
C130 H122 0.930 . S
C130 C129 1.362 . S
C130 C133 1.409 . S
C131 H123 0.930 . S
C131 C132 1.355 . S
C131 C133 1.415 . S
C132 C131 1.355 . S
C132 C134 1.419 . S
C133 C128 1.425 . S
C133 C130 1.409 . S
C133 C131 1.415 . S
C134 H124 0.930 . S
C134 C132 1.419 . S
C134 C135 1.362 . S
C135 H125 0.930 . S
C135 C128 1.409 . S
C135 C134 1.362 . S
H136 C142 0.930 . S
H137 C145 0.930 1_554 S
H138 C146 0.930 . S
H139 C147 0.930 . S
H140 C150 0.930 . S
H141 C151 0.930 . S
C142 H136 0.930 . S
C142 C143 1.355 . S
C142 C144 1.415 1_565 S
C143 C142 1.355 . S
C143 C145 1.419 . S
C144 C142 1.415 1_545 S
C144 C149 1.425 . S
C144 C151 1.409 . S
C145 H137 0.930 1_556 S
C145 C143 1.419 . S
C145 C146 1.362 . S
C146 H138 0.930 . S
C146 C145 1.362 . S
C146 C149 1.409 1_565 S
C147 H139 0.930 . S
C147 C148 1.355 . S
C147 C149 1.415 . S
C148 C147 1.355 . S
C148 C150 1.419 . S
C149 C144 1.425 . S
C149 C146 1.409 1_545 S
C149 C147 1.415 . S
C150 H140 0.930 . S
C150 C148 1.419 . S
C150 C151 1.362 . S
C151 H141 0.930 . S
C151 C144 1.409 . S
C151 C150 1.362 . S
H152 C158 0.930 . S
H153 C161 0.930 1_655 S
H154 C162 0.930 . S
H155 C163 0.930 . S
H156 C166 0.930 . S
H157 C167 0.930 . S
C158 H152 0.930 . S
C158 C159 1.355 . S
C158 C160 1.415 . S
C159 C158 1.355 . S
C159 C161 1.419 . S
C160 C158 1.415 . S
C160 C165 1.425 . S
C160 C167 1.409 . S
C161 H153 0.930 1_455 S
C161 C159 1.419 . S
C161 C162 1.362 . S
C162 H154 0.930 . S
C162 C161 1.362 . S
C162 C165 1.409 . S
C163 H155 0.930 . S
C163 C164 1.355 . S
C163 C165 1.415 . S
C164 C163 1.355 . S
C164 C166 1.419 . S
C165 C160 1.425 . S
C165 C162 1.409 . S
C165 C163 1.415 . S
C166 H156 0.930 . S
C166 C164 1.419 . S
C166 C167 1.362 . S
C167 H157 0.930 . S
C167 C160 1.409 . S
C167 C166 1.362 . S
H168 C174 0.930 . S
H169 C177 0.930 . S
H170 C178 0.930 . S
H171 C179 0.930 1_455 S
H172 C182 0.930 . S
H173 C183 0.930 . S
C174 H168 0.930 . S
C174 C175 1.355 . S
C174 C176 1.415 . S
C175 C174 1.355 . S
C175 C177 1.419 . S
C176 C174 1.415 . S
C176 C181 1.425 . S
C176 C183 1.409 1_455 S
C177 H169 0.930 . S
C177 C175 1.419 . S
C177 C178 1.362 . S
C178 H170 0.930 . S
C178 C177 1.362 . S
C178 C181 1.409 . S
C179 H171 0.930 1_655 S
C179 C180 1.355 . S
C179 C181 1.415 1_655 S
C180 C179 1.355 . S
C180 C182 1.419 . S
C181 C176 1.425 . S
C181 C178 1.409 . S
C181 C179 1.415 1_455 S
C182 H172 0.930 . S
C182 C180 1.419 . S
C182 C183 1.362 . S
C183 H173 0.930 . S
C183 C176 1.409 1_655 S
C183 C182 1.362 . S
H184 C190 0.930 . S
H185 C193 0.930 . S
H186 C194 0.930 . S
H187 C195 0.930 . S
H188 C198 0.930 . S
H189 C199 0.930 . S
C190 H184 0.930 . S
C190 C191 1.355 . S
C190 C192 1.415 . S
C191 C190 1.355 . S
C191 C193 1.419 . S
C192 C190 1.415 . S
C192 C197 1.425 1_556 S
C192 C199 1.409 . S
C193 H185 0.930 . S
C193 C191 1.419 . S
C193 C194 1.362 1_556 S
C194 H186 0.930 . S
C194 C193 1.362 1_554 S
C194 C197 1.409 . S
C195 H187 0.930 . S
C195 C196 1.355 . S
C195 C197 1.415 . S
C196 C195 1.355 . S
C196 C198 1.419 1_554 S
C197 C192 1.425 1_554 S
C197 C194 1.409 . S
C197 C195 1.415 . S
C198 H188 0.930 . S
C198 C196 1.419 1_556 S
C198 C199 1.362 . S
C199 H189 0.930 . S
C199 C192 1.409 . S
C199 C198 1.362 . S
H200 C206 0.930 . S
H201 C209 0.930 . S
H202 C210 0.930 . S
H203 C211 0.930 . S
H204 C214 0.930 1_565 S
H205 C215 0.930 . S
C206 H200 0.930 . S
C206 C207 1.355 . S
C206 C208 1.415 . S
C207 C206 1.355 . S
C207 C209 1.419 . S
C208 C206 1.415 . S
C208 C213 1.425 . S
C208 C215 1.409 . S
C209 H201 0.930 . S
C209 C207 1.419 . S
C209 C210 1.362 . S
C210 H202 0.930 . S
C210 C209 1.362 . S
C210 C213 1.409 . S
C211 H203 0.930 . S
C211 C212 1.355 . S
C211 C213 1.415 . S
C212 C211 1.355 . S
C212 C214 1.419 . S
C213 C208 1.425 . S
C213 C210 1.409 . S
C213 C211 1.415 . S
C214 H204 0.930 1_545 S
C214 C212 1.419 . S
C214 C215 1.362 . S
C215 H205 0.930 . S
C215 C208 1.409 . S
C215 C214 1.362 . S
H216 C222 0.930 . S
H217 C225 0.930 . S
H218 C226 0.930 . S
H219 C227 0.930 . S
H220 C230 0.930 . S
H221 C231 0.930 . S
C222 H216 0.930 . S
C222 C223 1.355 . S
C222 C224 1.415 . S
C223 C222 1.355 . S
C223 C225 1.419 . S
C224 C222 1.415 . S
C224 C229 1.425 . S
C224 C231 1.409 . S
C225 H217 0.930 . S
C225 C223 1.419 . S
C225 C226 1.362 . S
C226 H218 0.930 . S
C226 C225 1.362 . S
C226 C229 1.409 . S
C227 H219 0.930 . S
C227 C228 1.355 . S
C227 C229 1.415 . S
C228 C227 1.355 . S
C228 C230 1.419 . S
C229 C224 1.425 . S
C229 C226 1.409 . S
C229 C227 1.415 . S
C230 H220 0.930 . S
C230 C228 1.419 . S
C230 C231 1.362 . S
C231 H221 0.930 . S
C231 C224 1.409 . S
C231 C230 1.362 . S
H232 C238 0.930 . S
H233 C241 0.930 . S
H234 C242 0.930 . S
H235 C243 0.930 1_455 S
H236 C246 0.930 . S
H237 C247 0.930 . S
C238 H232 0.930 . S
C238 C239 1.355 1_655 S
C238 C240 1.415 . S
C239 C238 1.355 1_455 S
C239 C241 1.419 . S
C240 C238 1.415 . S
C240 C245 1.425 1_655 S
C240 C247 1.409 . S
C241 H233 0.930 . S
C241 C239 1.419 . S
C241 C242 1.362 . S
C242 H234 0.930 . S
C242 C241 1.362 . S
C242 C245 1.409 . S
C243 H235 0.930 1_655 S
C243 C244 1.355 . S
C243 C245 1.415 1_655 S
C244 C243 1.355 . S
C244 C246 1.419 . S
C245 C240 1.425 1_455 S
C245 C242 1.409 . S
C245 C243 1.415 1_455 S
C246 H236 0.930 . S
C246 C244 1.419 . S
C246 C247 1.362 . S
C247 H237 0.930 . S
C247 C240 1.409 . S
C247 C246 1.362 . S
H248 C254 0.930 . S
H249 C257 0.930 . S
H250 C258 0.930 . S
H251 C259 0.930 . S
H252 C262 0.930 . S
H253 C263 0.930 . S
C254 H248 0.930 . S
C254 C255 1.355 . S
C254 C256 1.415 1_556 S
C255 C254 1.355 . S
C255 C257 1.419 . S
C256 C254 1.415 1_554 S
C256 C261 1.425 . S
C256 C263 1.409 . S
C257 H249 0.930 . S
C257 C255 1.419 . S
C257 C258 1.362 . S
C258 H250 0.930 . S
C258 C257 1.362 . S
C258 C261 1.409 1_556 S
C259 H251 0.930 . S
C259 C260 1.355 . S
C259 C261 1.415 . S
C260 C259 1.355 . S
C260 C262 1.419 . S
C261 C256 1.425 . S
C261 C258 1.409 1_554 S
C261 C259 1.415 . S
C262 H252 0.930 . S
C262 C260 1.419 . S
C262 C263 1.362 . S
C263 H253 0.930 . S
C263 C256 1.409 . S
C263 C262 1.362 . S
H264 C270 0.930 . S
H265 C273 0.930 . S
H266 C274 0.930 . S
H267 C275 0.930 . S
H268 C278 0.930 . S
H269 C279 0.930 . S
C270 H264 0.930 . S
C270 C271 1.355 . S
C270 C272 1.415 . S
C271 C270 1.355 . S
C271 C273 1.419 . S
C272 C270 1.415 . S
C272 C277 1.425 . S
C272 C279 1.409 . S
C273 H265 0.930 . S
C273 C271 1.419 . S
C273 C274 1.362 . S
C274 H266 0.930 . S
C274 C273 1.362 . S
C274 C277 1.409 . S
C275 H267 0.930 . S
C275 C276 1.355 . S
C275 C277 1.415 . S
C276 C275 1.355 . S
C276 C278 1.419 . S
C277 C272 1.425 . S
C277 C274 1.409 . S
C277 C275 1.415 . S
C278 H268 0.930 . S
C278 C276 1.419 . S
C278 C279 1.362 . S
C279 H269 0.930 . S
C279 C272 1.409 . S
C279 C278 1.362 . S
C95 C59 1.419 . S
C100 C21 1.450 . S
C111 C84 1.418 . S
C116 C29 1.426 . S
C127 C62 1.388 . S
C132 C10 1.398 . S
C143 C81 1.342 1_556 S
C148 C30 1.399 . S
C159 C37 1.406 . S
C164 C15 1.395 . S
C175 C52 1.390 . S
C180 C43 1.339 1_565 S
C191 C54 1.372 . S
C196 C87 1.378 . S
C207 C7 1.385 . S
C212 C73 1.430 . S
C223 C40 1.318 . S
C228 C18 1.333 . S
C239 C51 1.397 . S
C244 C32 1.440 . S
C255 C65 1.425 1_655 S
C260 C76 1.430 . S
C271 C74 1.396 . S
C276 C8 1.386 . S
