# Generated by pormake.
# Topology unh, (4)-cn, num edge types: 1
# Building blocks:
#     Node 0, Type 0, BuildingBlock: NAWXER_clean_sbu_0, # of connection points: 4
#     Node 1, Type 0, BuildingBlock: NAWXER_clean_sbu_0, # of connection points: 4
#     Node 2, Type 0, BuildingBlock: NAWXER_clean_sbu_0, # of connection points: 4
#     Node 3, Type 0, BuildingBlock: NAWXER_clean_sbu_0, # of connection points: 4
#     Node 4, Type 0, BuildingBlock: NAWXER_clean_sbu_0, # of connection points: 4
#     Node 5, Type 0, BuildingBlock: NAWXER_clean_sbu_0, # of connection points: 4
#     Edge 6, Type (0, 0), BuildingBlock: ZUJKAS_clean_linker_0, # of connection points: 2
#     Edge 7, Type (0, 0), BuildingBlock: ZUJKAS_clean_linker_0, # of connection points: 2
#     Edge 8, Type (0, 0), BuildingBlock: ZUJKAS_clean_linker_0, # of connection points: 2
#     Edge 9, Type (0, 0), BuildingBlock: ZUJKAS_clean_linker_0, # of connection points: 2
#     Edge 10, Type (0, 0), BuildingBlock: ZUJKAS_clean_linker_0, # of connection points: 2
#     Edge 11, Type (0, 0), BuildingBlock: ZUJKAS_clean_linker_0, # of connection points: 2
#     Edge 12, Type (0, 0), BuildingBlock: ZUJKAS_clean_linker_0, # of connection points: 2
#     Edge 13, Type (0, 0), BuildingBlock: ZUJKAS_clean_linker_0, # of connection points: 2
#     Edge 14, Type (0, 0), BuildingBlock: ZUJKAS_clean_linker_0, # of connection points: 2
#     Edge 15, Type (0, 0), BuildingBlock: ZUJKAS_clean_linker_0, # of connection points: 2
#     Edge 16, Type (0, 0), BuildingBlock: ZUJKAS_clean_linker_0, # of connection points: 2
#     Edge 17, Type (0, 0), BuildingBlock: ZUJKAS_clean_linker_0, # of connection points: 2
# Relax obj value: 0.020
# Max RMSD: 0.247
# Mean RMSD: 0.247
data_MOF--net-unh--node1-NAWXER_clean_sbu_0--edge1-ZUJKAS_clean_linker_0
_symmetry_space_group_name_H-M    P1
_symmetry_Int_Tables_number       1
_symmetry_cell_setting            triclinic
loop_
_symmetry_equiv_pos_as_xyz
'x, y, z'
_cell_length_a     58.398531
_cell_length_b     58.379407
_cell_length_c     27.809279
_cell_angle_alpha  90.000533
_cell_angle_beta   89.911023
_cell_angle_gamma 120.04367
loop_
_atom_site_label
_atom_site_type_symbol
_atom_site_fract_x
_atom_site_fract_y
_atom_site_fract_z
_atom_type_partial_charge
C0 C 0.10978 0.55976 0.16064 0.0
C1 C 0.17908 0.61888 0.05077 0.0
O2 O 0.12099 0.5847 0.15623 0.0
Zn3 Zn 0.14404 0.58858 0.10431 0.0
O4 O 0.11663 0.54666 0.13274 0.0
Zn5 Zn 0.14496 0.55647 0.07426 0.0
O6 O 0.1674 0.54396 0.09762 0.0
O7 O 0.17219 0.57895 0.13671 0.0
O8 O 0.17321 0.59477 0.04419 0.0
O9 O 0.16643 0.62403 0.08196 0.0
O10 O 0.11687 0.56985 0.0449 0.0
O11 O 0.12377 0.53796 0.01988 0.0
C12 C 0.17886 0.56127 0.13008 0.0
C13 C 0.11163 0.55078 0.01578 0.0
C14 C 0.56368 0.17635 0.21719 0.0
C15 C 0.55441 0.10744 0.32656 0.0
O16 O 0.54694 0.16458 0.25044 0.0
Zn17 Zn 0.55969 0.14171 0.27065 0.0
O18 O 0.58125 0.1698 0.20838 0.0
Zn19 Zn 0.59178 0.14187 0.23835 0.0
O20 O 0.58799 0.11979 0.18495 0.0
O21 O 0.54985 0.11422 0.21084 0.0
O22 O 0.57392 0.1139 0.29765 0.0
O23 O 0.54104 0.11904 0.3232 0.0
O24 O 0.59808 0.16954 0.30115 0.0
O25 O 0.6273 0.16463 0.2589 0.0
C26 C 0.56301 0.10815 0.1815 0.0
C27 C 0.62223 0.1762 0.29234 0.0
C28 C 0.46154 0.56133 0.34904 0.0
C29 C 0.4519 0.61997 0.46073 0.0
O30 O 0.47497 0.58631 0.35287 0.0
Zn31 Zn 0.45641 0.59001 0.40626 0.0
O32 O 0.44214 0.54812 0.37804 0.0
Zn33 Zn 0.42398 0.55753 0.4373 0.0
O34 O 0.38863 0.54469 0.4153 0.0
O35 O 0.41819 0.57998 0.3759 0.0
O36 O 0.43405 0.59574 0.46797 0.0
O37 O 0.46925 0.62537 0.42845 0.0
O38 O 0.46584 0.57181 0.4654 0.0
O39 O 0.42767 0.53893 0.4905 0.0
C40 C 0.39398 0.5621 0.38319 0.0
C41 C 0.45263 0.55238 0.49433 0.0
C42 C 0.83656 0.44777 0.62805 0.0
C43 C 0.90549 0.45709 0.51829 0.0
O44 O 0.84906 0.46524 0.59624 0.0
Zn45 Zn 0.87139 0.45198 0.57436 0.0
O46 O 0.84247 0.42963 0.6353 0.0
Zn47 Zn 0.8704 0.41922 0.6057 0.0
O48 O 0.89177 0.42232 0.65995 0.0
O49 O 0.89903 0.46096 0.6333 0.0
O50 O 0.89872 0.43734 0.54675 0.0
O51 O 0.89419 0.47074 0.52206 0.0
O52 O 0.84337 0.41392 0.54253 0.0
O53 O 0.84757 0.384 0.58391 0.0
C54 C 0.90426 0.44734 0.66293 0.0
C55 C 0.83641 0.38959 0.55053 0.0
C56 C 0.39333 0.83396 0.79489 0.0
C57 C 0.45134 0.90248 0.68274 0.0
O58 O 0.3878 0.84593 0.76294 0.0
Zn59 Zn 0.42302 0.86852 0.74014 0.0
O60 O 0.41759 0.84033 0.8015 0.0
Zn61 Zn 0.45563 0.86855 0.77008 0.0
O62 O 0.47457 0.89097 0.82301 0.0
O63 O 0.44145 0.89606 0.79917 0.0
O64 O 0.4647 0.89607 0.71076 0.0
O65 O 0.42643 0.8911 0.68756 0.0
O66 O 0.43301 0.84046 0.70863 0.0
O67 O 0.46841 0.84614 0.74734 0.0
C68 C 0.46107 0.90239 0.82751 0.0
C69 C 0.45096 0.83418 0.71531 0.0
C70 C 0.55484 0.4497 0.8486 0.0
C71 C 0.56374 0.39046 0.95962 0.0
O72 O 0.54145 0.4247 0.85206 0.0
Zn73 Zn 0.55977 0.42077 0.90535 0.0
O74 O 0.5741 0.46279 0.87782 0.0
Zn75 Zn 0.59201 0.45302 0.93699 0.0
O76 O 0.62751 0.46582 0.91523 0.0
O77 O 0.59802 0.43091 0.87513 0.0
O78 O 0.5814 0.41465 0.96776 0.0
O79 O 0.54693 0.38526 0.92649 0.0
O80 O 0.55009 0.43875 0.96485 0.0
O81 O 0.58824 0.47152 0.99017 0.0
C82 C 0.62222 0.44865 0.8827 0.0
C83 C 0.56326 0.45809 0.99391 0.0
H84 H 0.11078 0.52993 0.92803 0.0
H85 H 0.07703 0.51655 0.86574 0.0
H86 H 0.03243 0.53997 0.95704 0.0
H87 H 0.06713 0.555 0.01815 0.0
H88 H 0.02959 0.47977 0.86571 0.0
H89 H 0.02694 0.57199 0.83608 0.0
H90 H 0.05237 0.57122 0.8715 0.0
H91 H 0.02068 0.56205 0.89787 0.0
C92 C 0.09393 0.53255 0.93446 0.0
C93 C 0.09157 0.54358 0.97775 0.0
C94 C 0.07462 0.52488 0.89887 0.0
C95 C 0.05225 0.52756 0.90615 0.0
C96 C 0.04984 0.53848 0.94966 0.0
H97 H 0.90674 0.42803 0.75048 0.0
H98 H 0.94212 0.4485 0.80988 0.0
C99 C 0.06956 0.54684 0.9848 0.0
C100 C 0.03079 0.51724 0.86952 0.0
H101 H 0.99015 0.53221 0.8053 0.0
C102 C 0.0212 0.49141 0.85222 0.0
C103 C 0.01999 0.53244 0.85113 0.0
C104 C 0.03075 0.56105 0.86473 0.0
C105 C 1.00108 0.48029 0.81766 0.0
C106 C 0.98912 0.49485 0.80156 0.0
C107 C 0.99895 0.52084 0.81819 0.0
C108 C 0.96658 0.48349 0.76723 0.0
C109 C 0.99347 0.45329 0.79795 0.0
C110 C 0.96766 0.49706 0.72474 0.0
C111 C 0.94697 0.48573 0.69139 0.0
C112 C 0.92507 0.46048 0.69968 0.0
C113 C 0.92363 0.44732 0.74282 0.0
C114 C 0.94395 0.45892 0.77661 0.0
H115 H 0.01002 0.44914 0.80109 0.0
H116 H 0.97659 0.43794 0.81899 0.0
H117 H 0.9876 0.45142 0.75956 0.0
H118 H 0.98478 0.51614 0.71682 0.0
H119 H 0.94854 0.49631 0.65841 0.0
H120 H 0.43923 0.93387 0.84267 0.0
H121 H 0.45212 0.96873 0.9032 0.0
H122 H 0.51177 0.95247 0.95681 0.0
H123 H 0.49905 0.91762 0.8968 0.0
H124 H 0.47931 0.95784 0.02949 0.0
H125 H 0.52258 0.04125 0.89858 0.0
H126 H 0.48937 0.01506 0.88693 0.0
H127 H 0.51625 0.00851 0.88342 0.0
C128 C 0.45505 0.93767 0.8674 0.0
C129 C 0.4682 0.92304 0.86472 0.0
C130 C 0.46244 0.95765 0.90182 0.0
C131 C 0.48305 0.9633 0.93411 0.0
C132 C 0.49584 0.94842 0.93212 0.0
H133 H 0.58564 0.09448 0.1095 0.0
H134 H 0.56363 0.0594 0.05003 0.0
C135 C 0.48857 0.92856 0.89769 0.0
C136 C 0.49168 0.98491 0.96977 0.0
H137 H 0.52384 0.0522 0.9804 0.0
C138 C 0.48881 0.97848 0.01887 0.0
C139 C 0.50426 0.01177 0.95562 0.0
C140 C 0.50855 0.01975 0.90331 0.0
C141 C 0.49856 0.99826 0.0543 0.0
C142 C 0.51132 0.02513 0.04013 0.0
C143 C 0.51384 0.03155 0.99105 0.0
C144 C 0.52409 0.04688 0.07558 0.0
C145 C 0.49607 0.99037 0.10654 0.0
C146 C 0.50908 0.05167 0.10931 0.0
C147 C 0.52162 0.07183 0.14346 0.0
C148 C 0.54938 0.08745 0.14442 0.0
C149 C 0.56424 0.08278 0.10998 0.0
C150 C 0.55171 0.06277 0.07584 0.0
H151 H 0.48955 0.96906 0.11105 0.0
H152 H 0.51525 1.0023 0.12532 0.0
H153 H 0.48131 0.99425 0.12427 0.0
H154 H 0.4877 0.03978 0.10929 0.0
H155 H 0.5096 0.07496 0.1694 0.0
H156 H 0.49818 0.58388 0.27729 0.0
H157 H 0.51028 0.56162 0.21651 0.0
H158 H 0.45295 0.48579 0.2749 0.0
H159 H 0.44065 0.50792 0.33619 0.0
H160 H 0.50458 0.49273 0.25888 0.0
H161 H 0.46657 0.51925 0.09813 0.0
H162 H 0.48728 0.54686 0.1361 0.0
H163 H 0.45609 0.52097 0.15854 0.0
C164 C 0.488 0.56245 0.27716 0.0
C165 C 0.46839 0.54768 0.31159 0.0
C166 C 0.49485 0.54977 0.24217 0.0
C167 C 0.48224 0.52207 0.24081 0.0
C168 C 0.46275 0.5072 0.27517 0.0
H169 H 0.50989 0.43809 0.00572 0.0
H170 H 0.48786 0.45066 0.06687 0.0
C171 C 0.45575 0.51988 0.31011 0.0
C172 C 0.49036 0.50885 0.20464 0.0
H173 H 0.49637 0.50312 0.08369 0.0
C174 C 0.50251 0.49471 0.22058 0.0
C175 C 0.48736 0.51122 0.15474 0.0
C176 C 0.4734 0.52518 0.13572 0.0
C177 C 0.51281 0.48388 0.18782 0.0
C178 C 0.51106 0.48747 0.13794 0.0
C179 C 0.49786 0.50057 0.12198 0.0
C180 C 0.52413 0.47911 0.1019 0.0
C181 C 0.52577 0.46893 0.2068 0.0
C182 C 0.55178 0.49114 0.10116 0.0
C183 C 0.5644 0.48416 0.06627 0.0
C184 C 0.5496 0.46496 0.03133 0.0
C185 C 0.52185 0.45286 0.03222 0.0
C186 C 0.50923 0.46002 0.06706 0.0
H187 H 0.51939 0.46191 0.2442 0.0
H188 H 0.52113 0.45163 0.18366 0.0
H189 H 0.54755 0.48221 0.2069 0.0
H190 H 0.56366 0.50626 0.12723 0.0
H191 H 0.58579 0.49392 0.06663 0.0
H192 H 0.93093 0.42997 0.49283 0.0
H193 H 0.96659 0.44328 0.43337 0.0
H194 H 0.96359 0.5141 0.40274 0.0
H195 H 0.92806 0.50104 0.46139 0.0
H196 H 0.96476 0.45961 0.3265 0.0
H197 H 0.04336 0.53625 0.44219 0.0
H198 H 0.01374 0.50849 0.46658 0.0
H199 H 0.01238 0.5359 0.44052 0.0
C200 C 0.93784 0.44835 0.47336 0.0
C201 C 0.92667 0.46446 0.48196 0.0
C202 C 0.95815 0.45587 0.43942 0.0
C203 C 0.96776 0.47973 0.41407 0.0
C204 C 0.95652 0.49569 0.42226 0.0
H205 H 0.08586 0.58077 0.21478 0.0
H206 H 0.05165 0.55878 0.27578 0.0
C207 C 0.93617 0.48814 0.45575 0.0
C208 C 0.98962 0.48837 0.37899 0.0
H209 H 0.05362 0.5365 0.35965 0.0
C210 C 0.98435 0.47617 0.33375 0.0
C211 C 0.015 0.51001 0.38877 0.0
C212 C 0.02168 0.5234 0.43724 0.0
C213 C 1.00354 0.4859 0.29707 0.0
C214 C 0.02881 0.50804 0.30647 0.0
C215 C 0.03426 0.51958 0.35241 0.0
C216 C 0.04934 0.52077 0.26851 0.0
C217 C 0.99616 0.47324 0.24801 0.0
C218 C 0.05956 0.50676 0.24412 0.0
C219 C 0.07906 0.51927 0.20869 0.0
C220 C 0.08893 0.54612 0.19758 0.0
C221 C 0.07878 0.5601 0.22245 0.0
C222 C 0.0592 0.54755 0.25742 0.0
H223 H 0.97438 0.46076 0.2437 0.0
H224 H 1.00389 0.48848 0.21922 0.0
H225 H 1.00494 0.46038 0.243 0.0
H226 H 0.0527 0.48624 0.2528 0.0
H227 H 0.08661 0.50801 0.19045 0.0
H228 H 0.58107 0.08145 0.35112 0.0
H229 H 0.56755 0.04566 0.41035 0.0
H230 H 0.49741 0.04964 0.44245 0.0
H231 H 0.51068 0.08532 0.38407 0.0
H232 H 0.55016 0.04826 0.51918 0.0
H233 H 0.47612 0.96918 0.40044 0.0
H234 H 0.50453 0.99859 0.37701 0.0
H235 H 0.47692 1.00042 0.40074 0.0
C236 C 0.56281 0.07474 0.37088 0.0
C237 C 0.54695 0.08623 0.3628 0.0
C238 C 0.55516 0.05436 0.40468 0.0
C239 C 0.53145 0.04503 0.4304 0.0
C240 C 0.51573 0.05655 0.4227 0.0
H241 H 0.42962 0.92496 0.62659 0.0
H242 H 0.45147 0.95928 0.56567 0.0
C243 C 0.5234 0.07698 0.38935 0.0
C244 C 0.5227 0.02311 0.46531 0.0
H245 H 0.47548 0.95855 0.4827 0.0
C246 C 0.5341 0.0285 0.51122 0.0
C247 C 0.50166 0.99753 0.45461 0.0
C248 C 0.48908 0.99085 0.40547 0.0
C249 C 0.52418 0.00915 0.54758 0.0
C250 C 0.5027 0.98362 0.53719 0.0
C251 C 0.49192 0.9781 0.49066 0.0
C252 C 0.48993 0.96282 0.57464 0.0
C253 C 0.53594 0.01661 0.59731 0.0
C254 C 0.50422 0.9532 0.59982 0.0
C255 C 0.49178 0.93365 0.63513 0.0
C256 C 0.46474 0.92313 0.64541 0.0
C257 C 0.45045 0.93258 0.61961 0.0
C258 C 0.46292 0.95221 0.58468 0.0
H259 H 0.54777 0.03841 0.60207 0.0
H260 H 0.52023 0.00833 0.62525 0.0
H261 H 0.54924 0.00843 0.60326 0.0
H262 H 0.52493 0.96066 0.59193 0.0
H263 H 0.5033 0.92666 0.65409 0.0
H264 H 0.51904 0.42737 0.77584 0.0
H265 H 0.50694 0.44973 0.7154 0.0
H266 H 0.56271 0.52537 0.77623 0.0
H267 H 0.57504 0.50312 0.8372 0.0
H268 H 0.51048 0.51722 0.75937 0.0
H269 H 0.55156 0.49401 0.5987 0.0
H270 H 0.53107 0.46583 0.63581 0.0
H271 H 0.56168 0.49209 0.65923 0.0
C272 C 0.52888 0.44878 0.77633 0.0
C273 C 0.54806 0.46346 0.81134 0.0
C274 C 0.52204 0.46152 0.74153 0.0
C275 C 0.53419 0.4892 0.74097 0.0
C276 C 0.55326 0.50398 0.7759 0.0
H277 H 0.50601 0.5732 0.50708 0.0
H278 H 0.52807 0.56083 0.56829 0.0
C279 C 0.56028 0.49124 0.81064 0.0
C280 C 0.52601 0.50241 0.70502 0.0
H281 H 0.52092 0.50906 0.58413 0.0
C282 C 0.51304 0.51575 0.72107 0.0
C283 C 0.52963 0.50068 0.65513 0.0
C284 C 0.54446 0.4876 0.63606 0.0
C285 C 0.50254 0.52639 0.68838 0.0
C286 C 0.50492 0.5234 0.63846 0.0
C287 C 0.51894 0.51113 0.62244 0.0
C288 C 0.49177 0.53158 0.60238 0.0
C289 C 0.4887 0.54048 0.70749 0.0
C290 C 0.46408 0.51903 0.60106 0.0
C291 C 0.45144 0.52591 0.56612 0.0
C292 C 0.46625 0.54551 0.53171 0.0
C293 C 0.49403 0.55811 0.53315 0.0
C294 C 0.50667 0.55107 0.56804 0.0
H295 H 0.49466 0.54729 0.74508 0.0
H296 H 0.49301 0.55782 0.68472 0.0
H297 H 0.46702 0.52668 0.70713 0.0
H298 H 0.45221 0.5036 0.62671 0.0
H299 H 0.43003 0.51576 0.56603 0.0
H300 H 0.19489 0.52465 0.1293 0.0
H301 H 0.23148 0.52581 0.17369 0.0
H302 H 0.24877 0.59985 0.23862 0.0
H303 H 0.21181 0.59864 0.19491 0.0
H304 H 0.28418 0.56324 0.16878 0.0
H305 H 0.24607 0.55584 0.35458 0.0
H306 H 0.22541 0.54885 0.30218 0.0
H307 H 0.24764 0.5825 0.31976 0.0
C308 C 0.20631 0.5411 0.15331 0.0
C309 C 0.20035 0.56152 0.15869 0.0
C310 C 0.22726 0.54175 0.17858 0.0
C311 C 0.24268 0.56276 0.20982 0.0
C312 C 0.2368 0.58318 0.21541 0.0
H313 H 0.39771 0.59913 0.31829 0.0
H314 H 0.36158 0.60007 0.27559 0.0
C315 C 0.21573 0.5825 0.19025 0.0
C316 C 0.26536 0.56355 0.23523 0.0
H317 H 0.28994 0.56397 0.34674 0.0
C318 C 0.28547 0.5634 0.2077 0.0
C319 C 0.26684 0.5635 0.28599 0.0
C320 C 0.24525 0.56244 0.31746 0.0
C321 C 0.30703 0.56321 0.22952 0.0
C322 C 0.30876 0.56368 0.28028 0.0
C323 C 0.28865 0.56381 0.30782 0.0
C324 C 0.33082 0.56317 0.30561 0.0
C325 C 0.32738 0.56182 0.19807 0.0
C326 C 0.32548 0.54237 0.33731 0.0
C327 C 0.34603 0.54188 0.36202 0.0
C328 C 0.37237 0.56223 0.3556 0.0
C329 C 0.37768 0.58304 0.32375 0.0
C330 C 0.35706 0.58356 0.29916 0.0
H331 H 0.31974 0.55486 0.1612 0.0
H332 H 0.34506 0.58184 0.19503 0.0
H333 H 0.33367 0.54837 0.2138 0.0
H334 H 0.30536 0.52647 0.34288 0.0
H335 H 0.34122 0.52558 0.38632 0.0
H336 H 0.61962 0.1985 0.37741 0.0
H337 H 0.65611 0.2351 0.42059 0.0
H338 H 0.71053 0.24039 0.31011 0.0
H339 H 0.67446 0.20324 0.26796 0.0
H340 H 0.73124 0.24379 0.39461 0.0
H341 H 0.69162 0.31235 0.39044 0.0
H342 H 0.6694 0.28155 0.41913 0.0
H343 H 0.67706 0.28206 0.35625 0.0
C344 C 0.63938 0.20749 0.36238 0.0
C345 C 0.64415 0.198 0.31925 0.0
C346 C 0.66019 0.22857 0.38686 0.0
C347 C 0.68601 0.24093 0.36808 0.0
C348 C 0.69078 0.23128 0.32524 0.0
H349 H 0.81504 0.39348 0.46534 0.0
H350 H 0.77932 0.35751 0.41949 0.0
C351 C 0.67012 0.21 0.30119 0.0
C352 C 0.7083 0.2634 0.39352 0.0
H353 H 0.72894 0.32463 0.44103 0.0
C354 C 0.73077 0.26153 0.4045 0.0
C355 C 0.70795 0.28678 0.40568 0.0
C356 C 0.68534 0.29098 0.39182 0.0
C357 C 0.7527 0.28214 0.42784 0.0
C358 C 0.75179 0.30494 0.4422 0.0
C359 C 0.72952 0.30704 0.43053 0.0
C360 C 0.77364 0.32672 0.46966 0.0
C361 C 0.77679 0.27942 0.43584 0.0
C362 C 0.78212 0.32146 0.51334 0.0
C363 C 0.80274 0.34185 0.53911 0.0
C364 C 0.81496 0.36808 0.52232 0.0
C365 C 0.80608 0.37346 0.47911 0.0
C366 C 0.78565 0.35294 0.45295 0.0
H367 H 0.77772 0.26559 0.40951 0.0
H368 H 0.79532 0.29883 0.43292 0.0
H369 H 0.7758 0.27128 0.47233 0.0
H370 H 0.77263 0.30156 0.5278 0.0
H371 H 0.80883 0.33708 0.57264 0.0
H372 H 0.48835 0.81913 0.71536 0.0
H373 H 0.48773 0.78273 0.671 0.0
H374 H 0.41264 0.76342 0.6084 0.0
H375 H 0.41333 0.80018 0.65198 0.0
H376 H 0.45159 0.72983 0.67655 0.0
H377 H 0.45585 0.76679 0.49093 0.0
H378 H 0.46274 0.78754 0.54323 0.0
H379 H 0.42914 0.76451 0.52663 0.0
C380 C 0.47178 0.8073 0.69188 0.0
C381 C 0.45094 0.81265 0.68706 0.0
C382 C 0.47144 0.78646 0.66662 0.0
C383 C 0.4503 0.77055 0.63597 0.0
C384 C 0.42942 0.77578 0.63108 0.0
H385 H 0.41549 0.61598 0.52746 0.0
H386 H 0.41454 0.65199 0.57072 0.0
C387 C 0.4298 0.79674 0.65619 0.0
C388 C 0.4499 0.74806 0.61035 0.0
H389 H 0.4486 0.7232 0.49861 0.0
C390 C 0.45095 0.72837 0.63764 0.0
C391 C 0.44933 0.74635 0.55958 0.0
C392 C 0.44945 0.76753 0.52827 0.0
C393 C 0.45138 0.70696 0.61555 0.0
C394 C 0.45024 0.70496 0.56483 0.0
C395 C 0.44927 0.72469 0.53752 0.0
C396 C 0.45082 0.68297 0.53922 0.0
C397 C 0.4537 0.68705 0.64668 0.0
C398 C 0.47127 0.68847 0.50654 0.0
C399 C 0.47178 0.66798 0.48154 0.0
C400 C 0.45178 0.64154 0.48861 0.0
C401 C 0.43131 0.63608 0.52144 0.0
C402 C 0.43079 0.65663 0.54636 0.0
H403 H 0.46106 0.69494 0.68325 0.0
H404 H 0.43392 0.66911 0.65054 0.0
H405 H 0.46724 0.68106 0.63016 0.0
H406 H 0.48689 0.70867 0.50042 0.0
H407 H 0.48781 0.67291 0.45647 0.0
H408 H 0.61839 0.41214 0.81655 0.0
H409 H 0.65451 0.41106 0.77385 0.0
H410 H 0.71093 0.48392 0.84266 0.0
H411 H 0.67507 0.48496 0.88612 0.0
H412 H 0.69154 0.44658 0.71071 0.0
H413 H 0.74049 0.43546 0.8725 0.0
H414 H 0.70756 0.43088 0.87407 0.0
H415 H 0.73596 0.46366 0.87512 0.0
C416 C 0.63848 0.42796 0.8226 0.0
C417 C 0.64386 0.44855 0.85502 0.0
C418 C 0.6591 0.42729 0.79818 0.0
C419 C 0.68544 0.44714 0.80578 0.0
C420 C 0.6908 0.46806 0.83715 0.0
H421 H 0.82095 0.48481 0.62525 0.0
H422 H 0.78408 0.48407 0.66827 0.0
C423 C 0.67024 0.4687 0.86172 0.0
C424 C 0.7073 0.44616 0.78044 0.0
H425 H 0.7646 0.4452 0.79901 0.0
C426 C 0.70746 0.44616 0.72998 0.0
C427 C 0.72782 0.44517 0.80567 0.0
C428 C 0.7279 0.44352 0.85982 0.0
C429 C 0.72793 0.44581 0.70403 0.0
C430 C 0.74905 0.44601 0.72928 0.0
C431 C 0.74856 0.44538 0.77973 0.0
C432 C 0.7718 0.44675 0.70401 0.0
C433 C 0.72652 0.44485 0.64983 0.0
C434 C 0.77772 0.42647 0.71111 0.0
C435 C 0.79898 0.42696 0.68695 0.0
C436 C 0.81477 0.44781 0.65532 0.0
C437 C 0.80908 0.46836 0.64905 0.0
C438 C 0.78789 0.46789 0.67336 0.0
H439 H 0.70599 0.43733 0.63684 0.0
H440 H 0.73902 0.46513 0.63529 0.0
H441 H 0.73392 0.43207 0.63509 0.0
H442 H 0.76565 0.41006 0.73487 0.0
H443 H 0.80282 0.41084 0.69265 0.0
H444 H 0.34048 0.81717 0.79198 0.0
H445 H 0.30486 0.78069 0.83666 0.0
H446 H 0.36157 0.76472 0.90531 0.0
H447 H 0.39748 0.80151 0.86127 0.0
H448 H 0.29006 0.72781 0.83463 0.0
H449 H 0.31927 0.76856 0.01904 0.0
H450 H 0.33298 0.7886 0.96583 0.0
H451 H 0.34483 0.76708 0.9856 0.0
C452 C 0.34546 0.80606 0.81683 0.0
C453 C 0.37187 0.81235 0.82319 0.0
C454 C 0.32504 0.78517 0.84227 0.0
C455 C 0.33058 0.77018 0.8747 0.0
C456 C 0.3569 0.77635 0.88116 0.0
H457 H 0.21342 0.61556 0.98779 0.0
H458 H 0.25029 0.65179 0.94457 0.0
C459 C 0.37739 0.79732 0.85579 0.0
C460 C 0.30864 0.74767 0.90062 0.0
H461 H 0.28409 0.72427 0.01267 0.0
C462 C 0.28872 0.72702 0.87356 0.0
C463 C 0.30682 0.74685 0.95138 0.0
C464 C 0.32696 0.76905 0.98226 0.0
C465 C 0.26706 0.70548 0.89588 0.0
C466 C 0.26554 0.70436 0.94668 0.0
C467 C 0.2854 0.72508 0.97374 0.0
C468 C 0.24313 0.68226 0.97252 0.0
C469 C 0.2457 0.68447 0.86484 0.0
C470 C 0.2272 0.68741 1.00334 0.0
C471 C 0.20627 0.6668 0.02839 0.0
C472 C 0.20086 0.64059 0.02318 0.0
C473 C 0.21689 0.63548 0.9923 0.0
C474 C 0.23791 0.65615 0.9674 0.0
H475 H 0.24633 0.69162 0.82756 0.0
H476 H 0.24858 0.66709 0.86293 0.0
H477 H 0.22578 0.67785 0.88019 0.0
H478 H 0.23093 0.70743 0.00791 0.0
H479 H 0.19436 0.67146 0.05192 0.0
H480 H 0.53798 0.33791 0.93743 0.0
H481 H 0.53832 0.30206 0.98187 0.0
H482 H 0.58856 0.3576 0.08969 0.0
H483 H 0.58914 0.39384 0.04428 0.0
H484 H 0.60549 0.32453 0.06736 0.0
H485 H 0.49771 0.26606 0.10065 0.0
H486 H 0.50512 0.27176 0.03775 0.0
H487 H 0.51347 0.29932 0.07722 0.0
C488 C 0.54897 0.3425 0.97077 0.0
C489 C 0.56338 0.3687 0.98753 0.0
C490 C 0.54901 0.32193 0.99632 0.0
C491 C 0.56296 0.327 0.03973 0.0
C492 C 0.57751 0.35318 0.05643 0.0
H493 H 0.53876 0.20358 0.24192 0.0
H494 H 0.53981 0.2407 0.19959 0.0
C495 C 0.57779 0.37386 0.0305 0.0
C496 C 0.56294 0.30509 0.06694 0.0
H497 H 0.52222 0.24411 0.11535 0.0
C498 C 0.58729 0.30702 0.07818 0.0
C499 C 0.5392 0.2824 0.08173 0.0
C500 C 0.51243 0.27986 0.07417 0.0
C501 C 0.58856 0.28676 0.10308 0.0
C502 C 0.56478 0.26349 0.11573 0.0
C503 C 0.54045 0.26175 0.10511 0.0
C504 C 0.56456 0.24101 0.14125 0.0
C505 C 0.61538 0.29083 0.11653 0.0
C506 C 0.57786 0.22854 0.12233 0.0
C507 C 0.57763 0.2075 0.14692 0.0
C508 C 0.56356 0.19816 0.1903 0.0
C509 C 0.54972 0.21024 0.2085 0.0
C510 C 0.55032 0.2315 0.18434 0.0
H511 H 0.63057 0.31218 0.11764 0.0
H512 H 0.61483 0.28195 0.15212 0.0
H513 H 0.62169 0.2813 0.08912 0.0
H514 H 0.58832 0.23496 0.08842 0.0
H515 H 0.58827 0.19843 0.13176 0.0
loop_
_geom_bond_atom_site_label_1
_geom_bond_atom_site_label_2
_geom_bond_distance
_geom_bond_site_symmetry_2
_ccdc_geom_bond_type
C0 O2 1.247 . S
C0 O4 1.258 . S
C1 O8 1.247 . S
C1 O9 1.258 . S
O2 C0 1.247 . S
O2 Zn3 2.028 . S
Zn3 O2 2.028 . S
Zn3 O7 2.035 . S
Zn3 O9 2.035 . S
Zn3 O10 2.028 . S
O4 C0 1.258 . S
O4 Zn5 2.035 . S
Zn5 O4 2.035 . S
Zn5 O6 2.028 . S
Zn5 O8 2.028 . S
Zn5 O11 2.035 . S
O6 Zn5 2.028 . S
O6 C12 1.247 . S
O7 Zn3 2.035 . S
O7 C12 1.258 . S
O8 C1 1.247 . S
O8 Zn5 2.028 . S
O9 C1 1.258 . S
O9 Zn3 2.035 . S
O10 Zn3 2.028 . S
O10 C13 1.247 . S
O11 Zn5 2.035 . S
O11 C13 1.258 . S
C12 O6 1.247 . S
C12 O7 1.258 . S
C13 O10 1.247 . S
C13 O11 1.258 . S
C14 O16 1.247 . S
C14 O18 1.258 . S
C15 O22 1.247 . S
C15 O23 1.258 . S
O16 C14 1.247 . S
O16 Zn17 2.028 . S
Zn17 O16 2.028 . S
Zn17 O21 2.035 . S
Zn17 O23 2.035 . S
Zn17 O24 2.028 . S
O18 C14 1.258 . S
O18 Zn19 2.035 . S
Zn19 O18 2.035 . S
Zn19 O20 2.028 . S
Zn19 O22 2.028 . S
Zn19 O25 2.035 . S
O20 Zn19 2.028 . S
O20 C26 1.247 . S
O21 Zn17 2.035 . S
O21 C26 1.258 . S
O22 C15 1.247 . S
O22 Zn19 2.028 . S
O23 C15 1.258 . S
O23 Zn17 2.035 . S
O24 Zn17 2.028 . S
O24 C27 1.247 . S
O25 Zn19 2.035 . S
O25 C27 1.258 . S
C26 O20 1.247 . S
C26 O21 1.258 . S
C27 O24 1.247 . S
C27 O25 1.258 . S
C28 O30 1.247 . S
C28 O32 1.258 . S
C29 O36 1.247 . S
C29 O37 1.258 . S
O30 C28 1.247 . S
O30 Zn31 2.028 . S
Zn31 O30 2.028 . S
Zn31 O35 2.035 . S
Zn31 O37 2.035 . S
Zn31 O38 2.028 . S
O32 C28 1.258 . S
O32 Zn33 2.035 . S
Zn33 O32 2.035 . S
Zn33 O34 2.028 . S
Zn33 O36 2.028 . S
Zn33 O39 2.035 . S
O34 Zn33 2.028 . S
O34 C40 1.247 . S
O35 Zn31 2.035 . S
O35 C40 1.258 . S
O36 C29 1.247 . S
O36 Zn33 2.028 . S
O37 C29 1.258 . S
O37 Zn31 2.035 . S
O38 Zn31 2.028 . S
O38 C41 1.247 . S
O39 Zn33 2.035 . S
O39 C41 1.258 . S
C40 O34 1.247 . S
C40 O35 1.258 . S
C41 O38 1.247 . S
C41 O39 1.258 . S
C42 O44 1.247 . S
C42 O46 1.258 . S
C43 O50 1.247 . S
C43 O51 1.258 . S
O44 C42 1.247 . S
O44 Zn45 2.028 . S
Zn45 O44 2.028 . S
Zn45 O49 2.035 . S
Zn45 O51 2.035 . S
Zn45 O52 2.028 . S
O46 C42 1.258 . S
O46 Zn47 2.035 . S
Zn47 O46 2.035 . S
Zn47 O48 2.028 . S
Zn47 O50 2.028 . S
Zn47 O53 2.035 . S
O48 Zn47 2.028 . S
O48 C54 1.247 . S
O49 Zn45 2.035 . S
O49 C54 1.258 . S
O50 C43 1.247 . S
O50 Zn47 2.028 . S
O51 C43 1.258 . S
O51 Zn45 2.035 . S
O52 Zn45 2.028 . S
O52 C55 1.247 . S
O53 Zn47 2.035 . S
O53 C55 1.258 . S
C54 O48 1.247 . S
C54 O49 1.258 . S
C55 O52 1.247 . S
C55 O53 1.258 . S
C56 O58 1.247 . S
C56 O60 1.258 . S
C57 O64 1.247 . S
C57 O65 1.258 . S
O58 C56 1.247 . S
O58 Zn59 2.028 . S
Zn59 O58 2.028 . S
Zn59 O63 2.035 . S
Zn59 O65 2.035 . S
Zn59 O66 2.028 . S
O60 C56 1.258 . S
O60 Zn61 2.035 . S
Zn61 O60 2.035 . S
Zn61 O62 2.028 . S
Zn61 O64 2.028 . S
Zn61 O67 2.035 . S
O62 Zn61 2.028 . S
O62 C68 1.247 . S
O63 Zn59 2.035 . S
O63 C68 1.258 . S
O64 C57 1.247 . S
O64 Zn61 2.028 . S
O65 C57 1.258 . S
O65 Zn59 2.035 . S
O66 Zn59 2.028 . S
O66 C69 1.247 . S
O67 Zn61 2.035 . S
O67 C69 1.258 . S
C68 O62 1.247 . S
C68 O63 1.258 . S
C69 O66 1.247 . S
C69 O67 1.258 . S
C70 O72 1.247 . S
C70 O74 1.258 . S
C71 O78 1.247 . S
C71 O79 1.258 . S
O72 C70 1.247 . S
O72 Zn73 2.028 . S
Zn73 O72 2.028 . S
Zn73 O77 2.035 . S
Zn73 O79 2.035 . S
Zn73 O80 2.028 . S
O74 C70 1.258 . S
O74 Zn75 2.035 . S
Zn75 O74 2.035 . S
Zn75 O76 2.028 . S
Zn75 O78 2.028 . S
Zn75 O81 2.035 . S
O76 Zn75 2.028 . S
O76 C82 1.247 . S
O77 Zn73 2.035 . S
O77 C82 1.258 . S
O78 C71 1.247 . S
O78 Zn75 2.028 . S
O79 C71 1.258 . S
O79 Zn73 2.035 . S
O80 Zn73 2.028 . S
O80 C83 1.247 . S
O81 Zn75 2.035 . S
O81 C83 1.258 . S
C82 O76 1.247 . S
C82 O77 1.258 . S
C83 O80 1.247 . S
C83 O81 1.258 . S
H84 C92 0.929 . S
H85 C94 0.930 . S
H86 C96 0.930 . S
H87 C99 0.929 1_554 S
H88 C102 0.930 . S
H89 C104 0.960 . S
H90 C104 0.960 1_455 S
H91 C104 0.960 . S
C92 H84 0.929 . S
C92 C93 1.377 . S
C92 C94 1.384 . S
C93 C92 1.377 . S
C93 C99 1.390 . S
C94 H85 0.930 . S
C94 C92 1.384 . S
C94 C95 1.372 . S
C95 C94 1.372 . S
C95 C96 1.400 . S
C95 C100 1.490 . S
C96 H86 0.930 . S
C96 C95 1.400 . S
C96 C99 1.386 . S
H97 C113 0.930 . S
H98 C114 0.931 . S
C99 H87 0.929 1_556 S
C99 C93 1.390 . S
C99 C96 1.386 . S
C100 C95 1.490 . S
C100 C102 1.395 . S
C100 C103 1.403 1_455 S
H101 C107 0.930 . S
C102 H88 0.930 . S
C102 C100 1.395 . S
C102 C105 1.403 . S
C103 C100 1.403 1_655 S
C103 C104 1.523 . S
C103 C107 1.399 . S
C104 H89 0.960 . S
C104 H90 0.960 1_655 S
C104 H91 0.960 . S
C104 C103 1.523 . S
C105 C102 1.403 . S
C105 C106 1.392 1_455 S
C105 C109 1.495 . S
C106 C105 1.392 1_655 S
C106 C107 1.385 . S
C106 C108 1.478 . S
C107 H101 0.930 . S
C107 C103 1.399 . S
C107 C106 1.385 . S
C108 C106 1.478 . S
C108 C110 1.381 . S
C108 C114 1.383 . S
C109 C105 1.495 . S
C109 H115 0.959 . S
C109 H116 0.961 1_455 S
C109 H117 0.960 . S
C110 C108 1.381 . S
C110 C111 1.394 . S
C110 H118 0.930 . S
C111 C110 1.394 . S
C111 C112 1.383 . S
C111 H119 0.929 . S
C112 C111 1.383 . S
C112 C113 1.377 . S
C113 H97 0.930 . S
C113 C112 1.377 . S
C113 C114 1.379 . S
C114 H98 0.931 . S
C114 C108 1.383 . S
C114 C113 1.379 . S
H115 C109 0.959 . S
H116 C109 0.961 1_655 S
H117 C109 0.960 . S
H118 C110 0.930 . S
H119 C111 0.929 . S
H120 C128 0.929 . S
H121 C130 0.930 . S
H122 C132 0.930 . S
H123 C135 0.929 . S
H124 C138 0.930 . S
H125 C140 0.960 . S
H126 C140 0.960 . S
H127 C140 0.960 . S
C128 H120 0.929 . S
C128 C129 1.377 . S
C128 C130 1.384 . S
C129 C128 1.377 . S
C129 C135 1.390 . S
C130 H121 0.930 . S
C130 C128 1.384 . S
C130 C131 1.372 . S
C131 C130 1.372 . S
C131 C132 1.400 . S
C131 C136 1.490 . S
C132 H122 0.930 . S
C132 C131 1.400 . S
C132 C135 1.386 . S
H133 C149 0.930 . S
H134 C150 0.931 . S
C135 H123 0.929 . S
C135 C129 1.390 . S
C135 C132 1.386 . S
C136 C131 1.490 . S
C136 C138 1.395 1_556 S
C136 C139 1.403 1_565 S
H137 C143 0.930 . S
C138 H124 0.930 . S
C138 C136 1.395 1_554 S
C138 C141 1.403 . S
C139 C136 1.403 1_545 S
C139 C140 1.524 . S
C139 C143 1.400 . S
C140 H125 0.960 . S
C140 H126 0.960 . S
C140 H127 0.960 . S
C140 C139 1.524 . S
C141 C138 1.403 . S
C141 C142 1.392 1_565 S
C141 C145 1.495 . S
C142 C141 1.392 1_545 S
C142 C143 1.385 1_554 S
C142 C144 1.478 . S
C143 H137 0.930 . S
C143 C139 1.400 . S
C143 C142 1.385 1_556 S
C144 C142 1.478 . S
C144 C146 1.381 . S
C144 C150 1.383 . S
C145 C141 1.495 . S
C145 H151 0.959 . S
C145 H152 0.961 . S
C145 H153 0.960 . S
C146 C144 1.381 . S
C146 C147 1.394 . S
C146 H154 0.930 . S
C147 C146 1.394 . S
C147 C148 1.383 . S
C147 H155 0.929 . S
C148 C147 1.383 . S
C148 C149 1.377 . S
C149 H133 0.930 . S
C149 C148 1.377 . S
C149 C150 1.379 . S
C150 H134 0.931 . S
C150 C144 1.383 . S
C150 C149 1.379 . S
H151 C145 0.959 . S
H152 C145 0.961 . S
H153 C145 0.960 . S
H154 C146 0.930 . S
H155 C147 0.929 . S
H156 C164 0.929 . S
H157 C166 0.930 . S
H158 C168 0.930 . S
H159 C171 0.929 . S
H160 C174 0.930 . S
H161 C176 0.960 . S
H162 C176 0.960 . S
H163 C176 0.960 . S
C164 H156 0.929 . S
C164 C165 1.377 . S
C164 C166 1.384 . S
C165 C164 1.377 . S
C165 C171 1.390 . S
C166 H157 0.930 . S
C166 C164 1.384 . S
C166 C167 1.372 . S
C167 C166 1.372 . S
C167 C168 1.400 . S
C167 C172 1.490 . S
C168 H158 0.930 . S
C168 C167 1.400 . S
C168 C171 1.386 . S
H169 C185 0.930 1_556 S
H170 C186 0.931 . S
C171 H159 0.929 . S
C171 C165 1.390 . S
C171 C168 1.386 . S
C172 C167 1.490 . S
C172 C174 1.395 . S
C172 C175 1.403 . S
H173 C179 0.930 . S
C174 H160 0.930 . S
C174 C172 1.395 . S
C174 C177 1.403 . S
C175 C172 1.403 . S
C175 C176 1.524 . S
C175 C179 1.400 . S
C176 H161 0.960 . S
C176 H162 0.960 . S
C176 H163 0.960 . S
C176 C175 1.524 . S
C177 C174 1.403 . S
C177 C178 1.392 . S
C177 C181 1.495 . S
C178 C177 1.392 . S
C178 C179 1.385 . S
C178 C180 1.478 . S
C179 H173 0.930 . S
C179 C175 1.400 . S
C179 C178 1.385 . S
C180 C178 1.478 . S
C180 C182 1.381 . S
C180 C186 1.383 . S
C181 C177 1.495 . S
C181 H187 0.959 . S
C181 H188 0.961 . S
C181 H189 0.960 . S
C182 C180 1.381 . S
C182 C183 1.394 . S
C182 H190 0.930 . S
C183 C182 1.394 . S
C183 C184 1.383 . S
C183 H191 0.929 . S
C184 C183 1.383 . S
C184 C185 1.377 . S
C185 H169 0.930 1_554 S
C185 C184 1.377 . S
C185 C186 1.379 . S
C186 H170 0.931 . S
C186 C180 1.383 . S
C186 C185 1.379 . S
H187 C181 0.959 . S
H188 C181 0.961 . S
H189 C181 0.960 . S
H190 C182 0.930 . S
H191 C183 0.929 . S
H192 C200 0.929 . S
H193 C202 0.930 . S
H194 C204 0.930 . S
H195 C207 0.929 . S
H196 C210 0.930 . S
H197 C212 0.960 . S
H198 C212 0.960 . S
H199 C212 0.960 . S
C200 H192 0.929 . S
C200 C201 1.377 . S
C200 C202 1.384 . S
C201 C200 1.377 . S
C201 C207 1.390 . S
C202 H193 0.930 . S
C202 C200 1.384 . S
C202 C203 1.372 . S
C203 C202 1.372 . S
C203 C204 1.400 . S
C203 C208 1.490 . S
C204 H194 0.930 . S
C204 C203 1.400 . S
C204 C207 1.386 . S
H205 C221 0.930 . S
H206 C222 0.931 . S
C207 H195 0.929 . S
C207 C201 1.390 . S
C207 C204 1.386 . S
C208 C203 1.490 . S
C208 C210 1.395 . S
C208 C211 1.403 . S
H209 C215 0.930 . S
C210 H196 0.930 . S
C210 C208 1.395 . S
C210 C213 1.403 1_655 S
C211 C208 1.403 . S
C211 C212 1.524 . S
C211 C215 1.400 1_655 S
C212 H197 0.960 . S
C212 H198 0.960 . S
C212 H199 0.960 . S
C212 C211 1.524 . S
C213 C210 1.403 1_455 S
C213 C214 1.392 . S
C213 C217 1.495 . S
C214 C213 1.392 . S
C214 C215 1.385 . S
C214 C216 1.478 . S
C215 H209 0.930 . S
C215 C211 1.400 1_455 S
C215 C214 1.385 . S
C216 C214 1.478 . S
C216 C218 1.381 . S
C216 C222 1.383 . S
C217 C213 1.495 . S
C217 H223 0.959 . S
C217 H224 0.961 . S
C217 H225 0.960 . S
C218 C216 1.381 . S
C218 C219 1.394 . S
C218 H226 0.930 . S
C219 C218 1.394 . S
C219 C220 1.383 . S
C219 H227 0.929 . S
C220 C219 1.383 . S
C220 C221 1.377 . S
C221 H205 0.930 . S
C221 C220 1.377 . S
C221 C222 1.379 . S
C222 H206 0.931 . S
C222 C216 1.383 . S
C222 C221 1.379 . S
H223 C217 0.959 . S
H224 C217 0.961 . S
H225 C217 0.960 . S
H226 C218 0.930 . S
H227 C219 0.929 . S
H228 C236 0.929 . S
H229 C238 0.930 . S
H230 C240 0.930 . S
H231 C243 0.929 . S
H232 C246 0.930 . S
H233 C248 0.960 . S
H234 C248 0.960 . S
H235 C248 0.960 1_545 S
C236 H228 0.929 . S
C236 C237 1.377 . S
C236 C238 1.384 . S
C237 C236 1.377 . S
C237 C243 1.390 . S
C238 H229 0.930 . S
C238 C236 1.384 . S
C238 C239 1.372 . S
C239 C238 1.372 . S
C239 C240 1.400 . S
C239 C244 1.490 . S
C240 H230 0.930 . S
C240 C239 1.400 . S
C240 C243 1.386 . S
H241 C257 0.930 . S
H242 C258 0.931 . S
C243 H231 0.929 . S
C243 C237 1.390 . S
C243 C240 1.386 . S
C244 C239 1.490 . S
C244 C246 1.395 . S
C244 C247 1.403 1_545 S
H245 C251 0.930 . S
C246 H232 0.930 . S
C246 C244 1.395 . S
C246 C249 1.403 . S
C247 C244 1.403 1_565 S
C247 C248 1.524 . S
C247 C251 1.400 . S
C248 H233 0.960 . S
C248 H234 0.960 . S
C248 H235 0.960 1_565 S
C248 C247 1.524 . S
C249 C246 1.403 . S
C249 C250 1.392 1_545 S
C249 C253 1.495 . S
C250 C249 1.392 1_565 S
C250 C251 1.385 . S
C250 C252 1.478 . S
C251 H245 0.930 . S
C251 C247 1.400 . S
C251 C250 1.385 . S
C252 C250 1.478 . S
C252 C254 1.381 . S
C252 C258 1.383 . S
C253 C249 1.495 . S
C253 H259 0.959 . S
C253 H260 0.961 . S
C253 H261 0.960 1_545 S
C254 C252 1.381 . S
C254 C255 1.394 . S
C254 H262 0.930 . S
C255 C254 1.394 . S
C255 C256 1.383 . S
C255 H263 0.929 . S
C256 C255 1.383 . S
C256 C257 1.377 . S
C257 H241 0.930 . S
C257 C256 1.377 . S
C257 C258 1.379 . S
C258 H242 0.931 . S
C258 C252 1.383 . S
C258 C257 1.379 . S
H259 C253 0.959 . S
H260 C253 0.961 . S
H261 C253 0.960 1_565 S
H262 C254 0.930 . S
H263 C255 0.929 . S
H264 C272 0.929 . S
H265 C274 0.930 . S
H266 C276 0.930 . S
H267 C279 0.929 . S
H268 C282 0.930 . S
H269 C284 0.960 . S
H270 C284 0.960 . S
H271 C284 0.960 . S
C272 H264 0.929 . S
C272 C273 1.377 . S
C272 C274 1.384 . S
C273 C272 1.377 . S
C273 C279 1.390 . S
C274 H265 0.930 . S
C274 C272 1.384 . S
C274 C275 1.372 . S
C275 C274 1.372 . S
C275 C276 1.400 . S
C275 C280 1.490 . S
C276 H266 0.930 . S
C276 C275 1.400 . S
C276 C279 1.386 . S
H277 C293 0.930 . S
H278 C294 0.931 . S
C279 H267 0.929 . S
C279 C273 1.390 . S
C279 C276 1.386 . S
C280 C275 1.490 . S
C280 C282 1.395 . S
C280 C283 1.403 . S
H281 C287 0.930 . S
C282 H268 0.930 . S
C282 C280 1.395 . S
C282 C285 1.403 . S
C283 C280 1.403 . S
C283 C284 1.524 . S
C283 C287 1.400 . S
C284 H269 0.960 . S
C284 H270 0.960 . S
C284 H271 0.960 . S
C284 C283 1.524 . S
C285 C282 1.403 . S
C285 C286 1.392 . S
C285 C289 1.495 . S
C286 C285 1.392 . S
C286 C287 1.385 . S
C286 C288 1.478 . S
C287 H281 0.930 . S
C287 C283 1.400 . S
C287 C286 1.385 . S
C288 C286 1.478 . S
C288 C290 1.381 . S
C288 C294 1.383 . S
C289 C285 1.495 . S
C289 H295 0.959 . S
C289 H296 0.961 . S
C289 H297 0.960 . S
C290 C288 1.381 . S
C290 C291 1.394 . S
C290 H298 0.930 . S
C291 C290 1.394 . S
C291 C292 1.383 . S
C291 H299 0.929 . S
C292 C291 1.383 . S
C292 C293 1.377 . S
C293 H277 0.930 . S
C293 C292 1.377 . S
C293 C294 1.379 . S
C294 H278 0.931 . S
C294 C288 1.383 . S
C294 C293 1.379 . S
H295 C289 0.959 . S
H296 C289 0.961 . S
H297 C289 0.960 . S
H298 C290 0.930 . S
H299 C291 0.929 . S
H300 C308 0.929 . S
H301 C310 0.930 . S
H302 C312 0.930 . S
H303 C315 0.929 . S
H304 C318 0.930 . S
H305 C320 0.960 . S
H306 C320 0.960 . S
H307 C320 0.960 . S
C308 H300 0.929 . S
C308 C309 1.377 . S
C308 C310 1.384 . S
C309 C308 1.377 . S
C309 C315 1.390 . S
C310 H301 0.930 . S
C310 C308 1.384 . S
C310 C311 1.372 . S
C311 C310 1.372 . S
C311 C312 1.400 . S
C311 C316 1.490 . S
C312 H302 0.930 . S
C312 C311 1.400 . S
C312 C315 1.386 . S
H313 C329 0.930 . S
H314 C330 0.931 . S
C315 H303 0.929 . S
C315 C309 1.390 . S
C315 C312 1.386 . S
C316 C311 1.490 . S
C316 C318 1.395 . S
C316 C319 1.403 . S
H317 C323 0.930 . S
C318 H304 0.930 . S
C318 C316 1.395 . S
C318 C321 1.403 . S
C319 C316 1.403 . S
C319 C320 1.524 . S
C319 C323 1.400 . S
C320 H305 0.960 . S
C320 H306 0.960 . S
C320 H307 0.960 . S
C320 C319 1.524 . S
C321 C318 1.403 . S
C321 C322 1.392 . S
C321 C325 1.495 . S
C322 C321 1.392 . S
C322 C323 1.385 . S
C322 C324 1.478 . S
C323 H317 0.930 . S
C323 C319 1.400 . S
C323 C322 1.385 . S
C324 C322 1.478 . S
C324 C326 1.381 . S
C324 C330 1.383 . S
C325 C321 1.495 . S
C325 H331 0.959 . S
C325 H332 0.961 . S
C325 H333 0.960 . S
C326 C324 1.381 . S
C326 C327 1.394 . S
C326 H334 0.930 . S
C327 C326 1.394 . S
C327 C328 1.383 . S
C327 H335 0.929 . S
C328 C327 1.383 . S
C328 C329 1.377 . S
C329 H313 0.930 . S
C329 C328 1.377 . S
C329 C330 1.379 . S
C330 H314 0.931 . S
C330 C324 1.383 . S
C330 C329 1.379 . S
H331 C325 0.959 . S
H332 C325 0.961 . S
H333 C325 0.960 . S
H334 C326 0.930 . S
H335 C327 0.929 . S
H336 C344 0.929 . S
H337 C346 0.930 . S
H338 C348 0.930 . S
H339 C351 0.929 . S
H340 C354 0.930 . S
H341 C356 0.960 . S
H342 C356 0.960 . S
H343 C356 0.960 . S
C344 H336 0.929 . S
C344 C345 1.377 . S
C344 C346 1.384 . S
C345 C344 1.377 . S
C345 C351 1.390 . S
C346 H337 0.930 . S
C346 C344 1.384 . S
C346 C347 1.372 . S
C347 C346 1.372 . S
C347 C348 1.400 . S
C347 C352 1.490 . S
C348 H338 0.930 . S
C348 C347 1.400 . S
C348 C351 1.386 . S
H349 C365 0.930 . S
H350 C366 0.931 . S
C351 H339 0.929 . S
C351 C345 1.390 . S
C351 C348 1.386 . S
C352 C347 1.490 . S
C352 C354 1.395 . S
C352 C355 1.403 . S
H353 C359 0.930 . S
C354 H340 0.930 . S
C354 C352 1.395 . S
C354 C357 1.403 . S
C355 C352 1.403 . S
C355 C356 1.524 . S
C355 C359 1.400 . S
C356 H341 0.960 . S
C356 H342 0.960 . S
C356 H343 0.960 . S
C356 C355 1.524 . S
C357 C354 1.403 . S
C357 C358 1.392 . S
C357 C361 1.495 . S
C358 C357 1.392 . S
C358 C359 1.385 . S
C358 C360 1.478 . S
C359 H353 0.930 . S
C359 C355 1.400 . S
C359 C358 1.385 . S
C360 C358 1.478 . S
C360 C362 1.381 . S
C360 C366 1.383 . S
C361 C357 1.495 . S
C361 H367 0.959 . S
C361 H368 0.961 . S
C361 H369 0.960 . S
C362 C360 1.381 . S
C362 C363 1.394 . S
C362 H370 0.930 . S
C363 C362 1.394 . S
C363 C364 1.383 . S
C363 H371 0.929 . S
C364 C363 1.383 . S
C364 C365 1.377 . S
C365 H349 0.930 . S
C365 C364 1.377 . S
C365 C366 1.379 . S
C366 H350 0.931 . S
C366 C360 1.383 . S
C366 C365 1.379 . S
H367 C361 0.959 . S
H368 C361 0.961 . S
H369 C361 0.960 . S
H370 C362 0.930 . S
H371 C363 0.929 . S
H372 C380 0.929 . S
H373 C382 0.930 . S
H374 C384 0.930 . S
H375 C387 0.929 . S
H376 C390 0.930 . S
H377 C392 0.960 . S
H378 C392 0.960 . S
H379 C392 0.960 . S
C380 H372 0.929 . S
C380 C381 1.377 . S
C380 C382 1.384 . S
C381 C380 1.377 . S
C381 C387 1.390 . S
C382 H373 0.930 . S
C382 C380 1.384 . S
C382 C383 1.372 . S
C383 C382 1.372 . S
C383 C384 1.400 . S
C383 C388 1.490 . S
C384 H374 0.930 . S
C384 C383 1.400 . S
C384 C387 1.386 . S
H385 C401 0.930 . S
H386 C402 0.931 . S
C387 H375 0.929 . S
C387 C381 1.390 . S
C387 C384 1.386 . S
C388 C383 1.490 . S
C388 C390 1.395 . S
C388 C391 1.403 . S
H389 C395 0.930 . S
C390 H376 0.930 . S
C390 C388 1.395 . S
C390 C393 1.403 . S
C391 C388 1.403 . S
C391 C392 1.524 . S
C391 C395 1.400 . S
C392 H377 0.960 . S
C392 H378 0.960 . S
C392 H379 0.960 . S
C392 C391 1.524 . S
C393 C390 1.403 . S
C393 C394 1.392 . S
C393 C397 1.495 . S
C394 C393 1.392 . S
C394 C395 1.385 . S
C394 C396 1.478 . S
C395 H389 0.930 . S
C395 C391 1.400 . S
C395 C394 1.385 . S
C396 C394 1.478 . S
C396 C398 1.381 . S
C396 C402 1.383 . S
C397 C393 1.495 . S
C397 H403 0.959 . S
C397 H404 0.961 . S
C397 H405 0.960 . S
C398 C396 1.381 . S
C398 C399 1.394 . S
C398 H406 0.930 . S
C399 C398 1.394 . S
C399 C400 1.383 . S
C399 H407 0.929 . S
C400 C399 1.383 . S
C400 C401 1.377 . S
C401 H385 0.930 . S
C401 C400 1.377 . S
C401 C402 1.379 . S
C402 H386 0.931 . S
C402 C396 1.383 . S
C402 C401 1.379 . S
H403 C397 0.959 . S
H404 C397 0.961 . S
H405 C397 0.960 . S
H406 C398 0.930 . S
H407 C399 0.929 . S
H408 C416 0.929 . S
H409 C418 0.930 . S
H410 C420 0.930 . S
H411 C423 0.929 . S
H412 C426 0.930 . S
H413 C428 0.960 . S
H414 C428 0.960 . S
H415 C428 0.960 . S
C416 H408 0.929 . S
C416 C417 1.377 . S
C416 C418 1.384 . S
C417 C416 1.377 . S
C417 C423 1.390 . S
C418 H409 0.930 . S
C418 C416 1.384 . S
C418 C419 1.372 . S
C419 C418 1.372 . S
C419 C420 1.400 . S
C419 C424 1.490 . S
C420 H410 0.930 . S
C420 C419 1.400 . S
C420 C423 1.386 . S
H421 C437 0.930 . S
H422 C438 0.931 . S
C423 H411 0.929 . S
C423 C417 1.390 . S
C423 C420 1.386 . S
C424 C419 1.490 . S
C424 C426 1.395 . S
C424 C427 1.403 . S
H425 C431 0.930 . S
C426 H412 0.930 . S
C426 C424 1.395 . S
C426 C429 1.403 . S
C427 C424 1.403 . S
C427 C428 1.524 . S
C427 C431 1.400 . S
C428 H413 0.960 . S
C428 H414 0.960 . S
C428 H415 0.960 . S
C428 C427 1.524 . S
C429 C426 1.403 . S
C429 C430 1.392 . S
C429 C433 1.495 . S
C430 C429 1.392 . S
C430 C431 1.385 . S
C430 C432 1.478 . S
C431 H425 0.930 . S
C431 C427 1.400 . S
C431 C430 1.385 . S
C432 C430 1.478 . S
C432 C434 1.381 . S
C432 C438 1.383 . S
C433 C429 1.495 . S
C433 H439 0.959 . S
C433 H440 0.961 . S
C433 H441 0.960 . S
C434 C432 1.381 . S
C434 C435 1.394 . S
C434 H442 0.930 . S
C435 C434 1.394 . S
C435 C436 1.383 . S
C435 H443 0.929 . S
C436 C435 1.383 . S
C436 C437 1.377 . S
C437 H421 0.930 . S
C437 C436 1.377 . S
C437 C438 1.379 . S
C438 H422 0.931 . S
C438 C432 1.383 . S
C438 C437 1.379 . S
H439 C433 0.959 . S
H440 C433 0.961 . S
H441 C433 0.960 . S
H442 C434 0.930 . S
H443 C435 0.929 . S
H444 C452 0.929 . S
H445 C454 0.930 . S
H446 C456 0.930 . S
H447 C459 0.929 . S
H448 C462 0.930 . S
H449 C464 0.960 . S
H450 C464 0.960 . S
H451 C464 0.960 . S
C452 H444 0.929 . S
C452 C453 1.377 . S
C452 C454 1.384 . S
C453 C452 1.377 . S
C453 C459 1.390 . S
C454 H445 0.930 . S
C454 C452 1.384 . S
C454 C455 1.372 . S
C455 C454 1.372 . S
C455 C456 1.400 . S
C455 C460 1.490 . S
C456 H446 0.930 . S
C456 C455 1.400 . S
C456 C459 1.386 . S
H457 C473 0.930 . S
H458 C474 0.931 1_554 S
C459 H447 0.929 . S
C459 C453 1.390 . S
C459 C456 1.386 . S
C460 C455 1.490 . S
C460 C462 1.395 . S
C460 C463 1.403 . S
H461 C467 0.930 . S
C462 H448 0.930 . S
C462 C460 1.395 . S
C462 C465 1.403 . S
C463 C460 1.403 . S
C463 C464 1.524 . S
C463 C467 1.400 . S
C464 H449 0.960 . S
C464 H450 0.960 . S
C464 H451 0.960 . S
C464 C463 1.524 . S
C465 C462 1.403 . S
C465 C466 1.392 . S
C465 C469 1.495 . S
C466 C465 1.392 . S
C466 C467 1.385 . S
C466 C468 1.478 . S
C467 H461 0.930 . S
C467 C463 1.400 . S
C467 C466 1.385 . S
C468 C466 1.478 . S
C468 C470 1.381 . S
C468 C474 1.383 . S
C469 C465 1.495 . S
C469 H475 0.959 . S
C469 H476 0.961 . S
C469 H477 0.960 . S
C470 C468 1.381 . S
C470 C471 1.394 . S
C470 H478 0.930 . S
C471 C470 1.394 . S
C471 C472 1.383 . S
C471 H479 0.929 . S
C472 C471 1.383 . S
C472 C473 1.377 1_556 S
C473 H457 0.930 . S
C473 C472 1.377 1_554 S
C473 C474 1.379 1_554 S
C474 H458 0.931 1_556 S
C474 C468 1.383 . S
C474 C473 1.379 1_556 S
H475 C469 0.959 . S
H476 C469 0.961 . S
H477 C469 0.960 . S
H478 C470 0.930 . S
H479 C471 0.929 . S
H480 C488 0.929 . S
H481 C490 0.930 . S
H482 C492 0.930 . S
H483 C495 0.929 . S
H484 C498 0.930 . S
H485 C500 0.960 . S
H486 C500 0.960 . S
H487 C500 0.960 . S
C488 H480 0.929 . S
C488 C489 1.377 1_556 S
C488 C490 1.384 . S
C489 C488 1.377 1_554 S
C489 C495 1.390 . S
C490 H481 0.930 . S
C490 C488 1.384 . S
C490 C491 1.372 1_556 S
C491 C490 1.372 1_554 S
C491 C492 1.400 . S
C491 C496 1.490 . S
C492 H482 0.930 . S
C492 C491 1.400 . S
C492 C495 1.386 . S
H493 C509 0.930 . S
H494 C510 0.931 . S
C495 H483 0.929 . S
C495 C489 1.390 . S
C495 C492 1.386 . S
C496 C491 1.490 . S
C496 C498 1.395 . S
C496 C499 1.403 . S
H497 C503 0.930 . S
C498 H484 0.930 . S
C498 C496 1.395 . S
C498 C501 1.403 . S
C499 C496 1.403 . S
C499 C500 1.524 . S
C499 C503 1.400 . S
C500 H485 0.960 . S
C500 H486 0.960 . S
C500 H487 0.960 . S
C500 C499 1.524 . S
C501 C498 1.403 . S
C501 C502 1.392 . S
C501 C505 1.495 . S
C502 C501 1.392 . S
C502 C503 1.385 . S
C502 C504 1.478 . S
C503 H497 0.930 . S
C503 C499 1.400 . S
C503 C502 1.385 . S
C504 C502 1.478 . S
C504 C506 1.381 . S
C504 C510 1.383 . S
C505 C501 1.495 . S
C505 H511 0.959 . S
C505 H512 0.961 . S
C505 H513 0.960 . S
C506 C504 1.381 . S
C506 C507 1.394 . S
C506 H514 0.930 . S
C507 C506 1.394 . S
C507 C508 1.383 . S
C507 H515 0.929 . S
C508 C507 1.383 . S
C508 C509 1.377 . S
C509 H493 0.930 . S
C509 C508 1.377 . S
C509 C510 1.379 . S
C510 H494 0.931 . S
C510 C504 1.383 . S
C510 C509 1.379 . S
H511 C505 0.959 . S
H512 C505 0.961 . S
H513 C505 0.960 . S
H514 C506 0.930 . S
H515 C507 0.929 . S
C93 C13 1.892 1_556 S
C112 C54 1.883 . S
C129 C68 1.892 . S
C148 C26 1.891 . S
C165 C28 1.888 . S
C184 C83 1.884 1_554 S
C201 C43 1.892 . S
C220 C0 1.894 . S
C237 C15 1.894 . S
C256 C57 1.899 . S
C273 C70 1.888 . S
C292 C41 1.880 . S
C309 C12 1.609 . S
C328 C40 1.612 . S
C345 C27 1.614 . S
C364 C55 1.595 . S
C381 C69 1.613 . S
C400 C29 1.604 . S
C417 C82 1.612 . S
C436 C42 1.595 . S
C453 C56 1.607 . S
C472 C1 1.621 1_556 S
C489 C71 1.609 1_554 S
C508 C14 1.620 . S
