# Generated by pormake.
# Topology wgz, (6)-cn, num edge types: 1
# Building blocks:
#     Node 0, Type 0, BuildingBlock: VOLQOD_clean_sbu_1, # of connection points: 6
#     Node 1, Type 0, BuildingBlock: VOLQOD_clean_sbu_1, # of connection points: 6
#     Node 2, Type 0, BuildingBlock: VOLQOD_clean_sbu_1, # of connection points: 6
#     Node 3, Type 0, BuildingBlock: VOLQOD_clean_sbu_1, # of connection points: 6
#     Node 4, Type 0, BuildingBlock: VOLQOD_clean_sbu_1, # of connection points: 6
#     Node 5, Type 0, BuildingBlock: VOLQOD_clean_sbu_1, # of connection points: 6
#     Node 6, Type 0, BuildingBlock: VOLQOD_clean_sbu_1, # of connection points: 6
#     Node 7, Type 0, BuildingBlock: VOLQOD_clean_sbu_1, # of connection points: 6
#     Node 8, Type 0, BuildingBlock: VOLQOD_clean_sbu_1, # of connection points: 6
#     Node 9, Type 0, BuildingBlock: VOLQOD_clean_sbu_1, # of connection points: 6
#     Node 10, Type 0, BuildingBlock: VOLQOD_clean_sbu_1, # of connection points: 6
#     Node 11, Type 0, BuildingBlock: VOLQOD_clean_sbu_1, # of connection points: 6
#     Node 12, Type 0, BuildingBlock: VOLQOD_clean_sbu_1, # of connection points: 6
#     Node 13, Type 0, BuildingBlock: VOLQOD_clean_sbu_1, # of connection points: 6
#     Node 14, Type 0, BuildingBlock: VOLQOD_clean_sbu_1, # of connection points: 6
#     Node 15, Type 0, BuildingBlock: VOLQOD_clean_sbu_1, # of connection points: 6
#     Edge 16, Type (0, 0), BuildingBlock: UVAHIK_clean_linker_0, # of connection points: 2
#     Edge 17, Type (0, 0), BuildingBlock: UVAHIK_clean_linker_0, # of connection points: 2
#     Edge 18, Type (0, 0), BuildingBlock: UVAHIK_clean_linker_0, # of connection points: 2
#     Edge 19, Type (0, 0), BuildingBlock: UVAHIK_clean_linker_0, # of connection points: 2
#     Edge 20, Type (0, 0), BuildingBlock: UVAHIK_clean_linker_0, # of connection points: 2
#     Edge 21, Type (0, 0), BuildingBlock: UVAHIK_clean_linker_0, # of connection points: 2
#     Edge 22, Type (0, 0), BuildingBlock: UVAHIK_clean_linker_0, # of connection points: 2
#     Edge 23, Type (0, 0), BuildingBlock: UVAHIK_clean_linker_0, # of connection points: 2
#     Edge 24, Type (0, 0), BuildingBlock: UVAHIK_clean_linker_0, # of connection points: 2
#     Edge 25, Type (0, 0), BuildingBlock: UVAHIK_clean_linker_0, # of connection points: 2
#     Edge 26, Type (0, 0), BuildingBlock: UVAHIK_clean_linker_0, # of connection points: 2
#     Edge 27, Type (0, 0), BuildingBlock: UVAHIK_clean_linker_0, # of connection points: 2
#     Edge 28, Type (0, 0), BuildingBlock: UVAHIK_clean_linker_0, # of connection points: 2
#     Edge 29, Type (0, 0), BuildingBlock: UVAHIK_clean_linker_0, # of connection points: 2
#     Edge 30, Type (0, 0), BuildingBlock: UVAHIK_clean_linker_0, # of connection points: 2
#     Edge 31, Type (0, 0), BuildingBlock: UVAHIK_clean_linker_0, # of connection points: 2
#     Edge 32, Type (0, 0), BuildingBlock: UVAHIK_clean_linker_0, # of connection points: 2
#     Edge 33, Type (0, 0), BuildingBlock: UVAHIK_clean_linker_0, # of connection points: 2
#     Edge 34, Type (0, 0), BuildingBlock: UVAHIK_clean_linker_0, # of connection points: 2
#     Edge 35, Type (0, 0), BuildingBlock: UVAHIK_clean_linker_0, # of connection points: 2
#     Edge 36, Type (0, 0), BuildingBlock: UVAHIK_clean_linker_0, # of connection points: 2
#     Edge 37, Type (0, 0), BuildingBlock: UVAHIK_clean_linker_0, # of connection points: 2
#     Edge 38, Type (0, 0), BuildingBlock: UVAHIK_clean_linker_0, # of connection points: 2
#     Edge 39, Type (0, 0), BuildingBlock: UVAHIK_clean_linker_0, # of connection points: 2
#     Edge 40, Type (0, 0), BuildingBlock: UVAHIK_clean_linker_0, # of connection points: 2
#     Edge 41, Type (0, 0), BuildingBlock: UVAHIK_clean_linker_0, # of connection points: 2
#     Edge 42, Type (0, 0), BuildingBlock: UVAHIK_clean_linker_0, # of connection points: 2
#     Edge 43, Type (0, 0), BuildingBlock: UVAHIK_clean_linker_0, # of connection points: 2
#     Edge 44, Type (0, 0), BuildingBlock: UVAHIK_clean_linker_0, # of connection points: 2
#     Edge 45, Type (0, 0), BuildingBlock: UVAHIK_clean_linker_0, # of connection points: 2
#     Edge 46, Type (0, 0), BuildingBlock: UVAHIK_clean_linker_0, # of connection points: 2
#     Edge 47, Type (0, 0), BuildingBlock: UVAHIK_clean_linker_0, # of connection points: 2
#     Edge 48, Type (0, 0), BuildingBlock: UVAHIK_clean_linker_0, # of connection points: 2
#     Edge 49, Type (0, 0), BuildingBlock: UVAHIK_clean_linker_0, # of connection points: 2
#     Edge 50, Type (0, 0), BuildingBlock: UVAHIK_clean_linker_0, # of connection points: 2
#     Edge 51, Type (0, 0), BuildingBlock: UVAHIK_clean_linker_0, # of connection points: 2
#     Edge 52, Type (0, 0), BuildingBlock: UVAHIK_clean_linker_0, # of connection points: 2
#     Edge 53, Type (0, 0), BuildingBlock: UVAHIK_clean_linker_0, # of connection points: 2
#     Edge 54, Type (0, 0), BuildingBlock: UVAHIK_clean_linker_0, # of connection points: 2
#     Edge 55, Type (0, 0), BuildingBlock: UVAHIK_clean_linker_0, # of connection points: 2
#     Edge 56, Type (0, 0), BuildingBlock: UVAHIK_clean_linker_0, # of connection points: 2
#     Edge 57, Type (0, 0), BuildingBlock: UVAHIK_clean_linker_0, # of connection points: 2
#     Edge 58, Type (0, 0), BuildingBlock: UVAHIK_clean_linker_0, # of connection points: 2
#     Edge 59, Type (0, 0), BuildingBlock: UVAHIK_clean_linker_0, # of connection points: 2
#     Edge 60, Type (0, 0), BuildingBlock: UVAHIK_clean_linker_0, # of connection points: 2
#     Edge 61, Type (0, 0), BuildingBlock: UVAHIK_clean_linker_0, # of connection points: 2
#     Edge 62, Type (0, 0), BuildingBlock: UVAHIK_clean_linker_0, # of connection points: 2
#     Edge 63, Type (0, 0), BuildingBlock: UVAHIK_clean_linker_0, # of connection points: 2
# Relax obj value: 0.568
# Max RMSD: 0.289
# Mean RMSD: 0.289
data_MOF--net-wgz--node1-VOLQOD_clean_sbu_1--edge1-UVAHIK_clean_linker_0
_symmetry_space_group_name_H-M    P1
_symmetry_Int_Tables_number       1
_symmetry_cell_setting            triclinic
loop_
_symmetry_equiv_pos_as_xyz
'x, y, z'
_cell_length_a     44.065455
_cell_length_b     44.084381
_cell_length_c     70.35676
_cell_angle_alpha  89.975176
_cell_angle_beta   89.995627
_cell_angle_gamma 90.007541
loop_
_atom_site_label
_atom_site_type_symbol
_atom_site_fract_x
_atom_site_fract_y
_atom_site_fract_z
_atom_type_partial_charge
O0 O 0.16249 0.31647 0.13379 0.0
Zn1 Zn 0.16434 0.33005 0.10558 0.0
O2 O 0.2003 0.35586 0.102 0.0
Zn3 Zn 0.23208 0.33577 0.08808 0.0
Zn4 Zn 0.2187 0.368 0.12578 0.0
Zn5 Zn 0.18854 0.39115 0.08752 0.0
O6 O 0.25061 0.36371 0.06848 0.0
O7 O 0.21207 0.39515 0.06337 0.0
O8 O 0.16722 0.29406 0.0863 0.0
O9 O 0.21445 0.29991 0.07531 0.0
O10 O 0.2657 0.32137 0.1049 0.0
O11 O 0.26156 0.35296 0.1292 0.0
O12 O 0.21802 0.41293 0.12954 0.0
O13 O 0.1259 0.35553 0.10055 0.0
O14 O 0.19758 0.42881 0.1025 0.0
O15 O 0.14404 0.3928 0.08253 0.0
C16 C 0.17632 0.32763 0.1482 0.0
C17 C 0.23813 0.38489 0.05899 0.0
C18 C 0.27581 0.33218 0.1204 0.0
C19 C 0.1893 0.28575 0.07559 0.0
C20 C 0.20891 0.43426 0.11879 0.0
C21 C 0.12184 0.37896 0.09014 0.0
O22 O 0.19645 0.34808 0.14653 0.0
O23 O 0.67105 0.14729 0.13678 0.0
Zn24 Zn 0.65752 0.15575 0.10932 0.0
O25 O 0.63625 0.19537 0.10846 0.0
Zn26 Zn 0.65756 0.22406 0.0924 0.0
Zn27 Zn 0.6322 0.21424 0.13342 0.0
Zn28 Zn 0.59603 0.1894 0.09829 0.0
O29 O 0.63041 0.24343 0.07274 0.0
O30 O 0.58838 0.21636 0.07622 0.0
O31 O 0.69344 0.15561 0.09006 0.0
O32 O 0.6911 0.2031 0.0793 0.0
O33 O 0.67662 0.25731 0.10742 0.0
O34 O 0.65612 0.25284 0.13601 0.0
O35 O 0.58871 0.22273 0.14086 0.0
O36 O 0.62793 0.1215 0.10261 0.0
O37 O 0.56422 0.20046 0.11718 0.0
O38 O 0.58809 0.14646 0.09118 0.0
C39 C 0.66472 0.16152 0.1521 0.0
C40 C 0.60324 0.2373 0.06799 0.0
C41 C 0.67357 0.26647 0.12443 0.0
C42 C 0.70335 0.17701 0.0794 0.0
C43 C 0.5641 0.21439 0.13298 0.0
C44 C 0.60176 0.12176 0.09483 0.0
O45 O 0.64961 0.18606 0.1522 0.0
O46 O 0.84736 0.66688 0.13464 0.0
Zn47 Zn 0.84687 0.65314 0.10655 0.0
O48 O 0.80779 0.63339 0.10114 0.0
Zn49 Zn 0.78156 0.65942 0.08665 0.0
Zn50 Zn 0.78467 0.62421 0.12369 0.0
Zn51 Zn 0.81525 0.59637 0.08724 0.0
O52 O 0.76146 0.6361 0.06568 0.0
O53 O 0.79029 0.59477 0.06343 0.0
O54 O 0.8522 0.68954 0.08807 0.0
O55 O 0.80566 0.69294 0.07575 0.0
O56 O 0.74797 0.67742 0.10194 0.0
O57 O 0.74267 0.64233 0.12414 0.0
O58 O 0.782 0.57981 0.12896 0.0
O59 O 0.88113 0.62217 0.10234 0.0
O60 O 0.80289 0.56038 0.10303 0.0
O61 O 0.85955 0.58987 0.08212 0.0
C62 C 0.82852 0.66031 0.14786 0.0
C63 C 0.76855 0.61134 0.05758 0.0
C64 C 0.73312 0.66594 0.11564 0.0
C65 C 0.8328 0.70242 0.07717 0.0
C66 C 0.79033 0.55706 0.11919 0.0
C67 C 0.88278 0.59949 0.09104 0.0
O68 O 0.80534 0.6439 0.14488 0.0
O69 O 0.32606 0.83783 0.13994 0.0
Zn70 Zn 0.33543 0.83959 0.11102 0.0
O71 O 0.35805 0.803 0.1034 0.0
Zn72 Zn 0.33486 0.7777 0.08654 0.0
Zn73 Zn 0.36833 0.77762 0.12479 0.0
Zn74 Zn 0.39465 0.81412 0.08999 0.0
O75 O 0.36124 0.75956 0.06611 0.0
O76 O 0.39787 0.79403 0.06454 0.0
O77 O 0.29701 0.84302 0.09388 0.0
O78 O 0.30208 0.80243 0.07508 0.0
O79 O 0.31544 0.74306 0.10021 0.0
O80 O 0.34629 0.73784 0.12482 0.0
O81 O 0.41305 0.77072 0.12738 0.0
O82 O 0.36236 0.87701 0.10643 0.0
O83 O 0.43141 0.79979 0.10437 0.0
O84 O 0.39854 0.85885 0.08749 0.0
C85 C 0.3367 0.81961 0.15247 0.0
C86 C 0.3847 0.77048 0.05812 0.0
C87 C 0.32405 0.72859 0.11488 0.0
C88 C 0.28851 0.82679 0.07972 0.0
C89 C 0.43542 0.78209 0.11844 0.0
C90 C 0.38562 0.88091 0.09585 0.0
O91 O 0.35373 0.79752 0.14797 0.0
O92 O 0.14978 0.67327 0.87196 0.0
Zn93 Zn 0.14691 0.66329 0.90077 0.0
O94 O 0.18342 0.64124 0.90854 0.0
Zn95 Zn 0.21095 0.66626 0.92251 0.0
Zn96 Zn 0.20646 0.62652 0.88721 0.0
Zn97 Zn 0.17181 0.60809 0.92497 0.0
O98 O 0.22916 0.64307 0.94435 0.0
O99 O 0.1931 0.60916 0.95016 0.0
O100 O 0.14301 0.70147 0.91815 0.0
O101 O 0.18859 0.70189 0.93209 0.0
O102 O 0.24564 0.68051 0.90675 0.0
O103 O 0.24934 0.64248 0.88636 0.0
O104 O 0.20684 0.58127 0.88596 0.0
O105 O 0.11054 0.63471 0.90446 0.0
O106 O 0.1843 0.56866 0.91304 0.0
O107 O 0.12683 0.60469 0.92775 0.0
C108 C 0.16743 0.66159 0.85947 0.0
C109 C 0.21792 0.62212 0.9546 0.0
C110 C 0.26002 0.66655 0.89377 0.0
C111 C 0.16241 0.71332 0.92955 0.0
C112 C 0.19737 0.5613 0.89759 0.0
C113 C 0.10584 0.6138 0.91671 0.0
O114 O 0.18812 0.64285 0.86395 0.0
O115 O 0.33696 0.15754 0.85476 0.0
Zn116 Zn 0.35379 0.16158 0.88218 0.0
O117 O 0.37552 0.20053 0.88392 0.0
Zn118 Zn 0.3627 0.22298 0.90603 0.0
Zn119 Zn 0.36955 0.22677 0.8623 0.0
Zn120 Zn 0.41848 0.1937 0.88483 0.0
O121 O 0.39841 0.2404 0.92002 0.0
O122 O 0.43728 0.21743 0.906 0.0
O123 O 0.32053 0.16053 0.90322 0.0
O124 O 0.33795 0.19634 0.92287 0.0
O125 O 0.33544 0.25782 0.89901 0.0
O126 O 0.3415 0.26098 0.86784 0.0
O127 O 0.40866 0.2438 0.85163 0.0
O128 O 0.38369 0.12597 0.88672 0.0
O129 O 0.43973 0.20757 0.86137 0.0
O130 O 0.42784 0.15028 0.88797 0.0
C131 C 0.33799 0.17633 0.84086 0.0
C132 C 0.42679 0.23571 0.91836 0.0
C133 C 0.3295 0.27037 0.88316 0.0
C134 C 0.32008 0.17439 0.91925 0.0
C135 C 0.43428 0.23057 0.85105 0.0
C136 C 0.41261 0.12583 0.88838 0.0
O137 O 0.35 0.20241 0.84246 0.0
O138 O 0.83854 0.32111 0.86175 0.0
Zn139 Zn 0.83467 0.33861 0.88885 0.0
O140 O 0.80004 0.36711 0.88957 0.0
Zn141 Zn 0.76696 0.35251 0.90538 0.0
Zn142 Zn 0.78313 0.37523 0.86463 0.0
Zn143 Zn 0.81425 0.40496 0.89972 0.0
O144 O 0.75179 0.38454 0.92374 0.0
O145 O 0.78683 0.42001 0.91978 0.0
O146 O 0.82737 0.30451 0.90881 0.0
O147 O 0.78105 0.31604 0.91938 0.0
O148 O 0.73075 0.34043 0.88982 0.0
O149 O 0.73949 0.36292 0.86223 0.0
O150 O 0.78717 0.41868 0.85636 0.0
O151 O 0.87435 0.36168 0.89492 0.0
O152 O 0.81361 0.43785 0.88022 0.0
O153 O 0.85648 0.40293 0.90924 0.0
C154 C 0.82476 0.32899 0.84654 0.0
C155 C 0.76261 0.41059 0.92757 0.0
C156 C 0.7223 0.34766 0.87314 0.0
C157 C 0.80449 0.29912 0.91956 0.0
C158 C 0.80109 0.44075 0.86406 0.0
C159 C 0.87852 0.38608 0.90439 0.0
O160 O 0.80452 0.34947 0.84636 0.0
O161 O 0.67133 0.82912 0.86838 0.0
Zn162 Zn 0.6614 0.82899 0.89711 0.0
O163 O 0.64026 0.79104 0.90364 0.0
Zn164 Zn 0.66519 0.76404 0.91854 0.0
Zn165 Zn 0.62863 0.76844 0.8814 0.0
Zn166 Zn 0.60445 0.79993 0.91832 0.0
O167 O 0.64058 0.74484 0.93963 0.0
O168 O 0.60595 0.7808 0.94409 0.0
O169 O 0.69968 0.83244 0.91408 0.0
O170 O 0.6991 0.78806 0.92951 0.0
O171 O 0.68348 0.73075 0.9027 0.0
O172 O 0.65135 0.72956 0.87855 0.0
O173 O 0.5842 0.76011 0.87969 0.0
O174 O 0.63298 0.86512 0.90219 0.0
O175 O 0.56727 0.78295 0.90565 0.0
O176 O 0.59682 0.84429 0.91989 0.0
C177 C 0.65949 0.81286 0.85526 0.0
C178 C 0.61912 0.75649 0.94929 0.0
C179 C 0.67409 0.71878 0.88734 0.0
C180 C 0.71069 0.81403 0.92637 0.0
C181 C 0.56251 0.76776 0.89056 0.0
C182 C 0.60859 0.86737 0.91195 0.0
O183 O 0.6414 0.79124 0.85896 0.0
O184 O 0.66429 0.8298 0.63995 0.0
Zn185 Zn 0.66649 0.84576 0.6124 0.0
O186 O 0.70347 0.87067 0.60937 0.0
Zn187 Zn 0.73177 0.85336 0.59119 0.0
Zn188 Zn 0.72586 0.87593 0.63284 0.0
Zn189 Zn 0.6916 0.91031 0.60081 0.0
O190 O 0.74767 0.88493 0.57269 0.0
O191 O 0.71708 0.92344 0.57921 0.0
O192 O 0.66741 0.81112 0.59248 0.0
O193 O 0.71144 0.8195 0.5776 0.0
O194 O 0.76805 0.83525 0.60408 0.0
O195 O 0.76737 0.85752 0.63228 0.0
O196 O 0.7291 0.91932 0.64133 0.0
O197 O 0.62844 0.87169 0.60769 0.0
O198 O 0.69867 0.9419 0.62068 0.0
O199 O 0.64803 0.9126 0.59383 0.0
C200 C 0.68149 0.83586 0.65409 0.0
C201 C 0.73893 0.91209 0.56984 0.0
C202 C 0.78008 0.84028 0.6202 0.0
C203 C 0.68693 0.80457 0.57962 0.0
C204 C 0.71536 0.94285 0.6354 0.0
C205 C 0.62528 0.89688 0.59894 0.0
O206 O 0.70432 0.85327 0.65261 0.0
O207 O 0.17671 0.64769 0.64402 0.0
Zn208 Zn 0.16483 0.64541 0.61547 0.0
O209 O 0.14086 0.68179 0.6088 0.0
Zn210 Zn 0.16059 0.7065 0.58979 0.0
Zn211 Zn 0.13353 0.7084 0.63019 0.0
Zn212 Zn 0.10232 0.66938 0.59857 0.0
O213 O 0.13107 0.72207 0.57018 0.0
O214 O 0.09284 0.69013 0.57429 0.0
O215 O 0.20185 0.64305 0.59691 0.0
O216 O 0.19297 0.68236 0.57758 0.0
O217 O 0.17998 0.74334 0.60101 0.0
O218 O 0.1537 0.74908 0.62758 0.0
O219 O 0.08914 0.71436 0.63565 0.0
O220 O 0.13842 0.60695 0.61186 0.0
O221 O 0.06826 0.68181 0.61557 0.0
O222 O 0.09936 0.62495 0.59529 0.0
C223 C 0.1688 0.66709 0.65664 0.0
C224 C 0.1051 0.71204 0.56543 0.0
C225 C 0.17324 0.75868 0.61571 0.0
C226 C 0.20813 0.65891 0.58212 0.0
C227 C 0.06591 0.7009 0.62902 0.0
C228 C 0.11394 0.60289 0.60244 0.0
O229 O 0.15228 0.68981 0.65264 0.0
O230 O 0.337 0.17082 0.62652 0.0
Zn231 Zn 0.34098 0.16077 0.59774 0.0
O232 O 0.30521 0.13776 0.58938 0.0
Zn233 Zn 0.28085 0.16043 0.57209 0.0
Zn234 Zn 0.27843 0.12748 0.60991 0.0
Zn235 Zn 0.31723 0.10167 0.57583 0.0
O236 O 0.26221 0.13316 0.55248 0.0
O237 O 0.29861 0.09872 0.54984 0.0
O238 O 0.34619 0.19811 0.57964 0.0
O239 O 0.3071 0.19092 0.55988 0.0
O240 O 0.2466 0.18155 0.58502 0.0
O241 O 0.23876 0.1499 0.60896 0.0
O242 O 0.27154 0.08271 0.61216 0.0
O243 O 0.37822 0.13306 0.59505 0.0
O244 O 0.30183 0.06484 0.58961 0.0
O245 O 0.36218 0.09751 0.57492 0.0
C246 C 0.31854 0.15927 0.63861 0.0
C247 C 0.2739 0.1105 0.54407 0.0
C248 C 0.23079 0.17273 0.59908 0.0
C249 C 0.33128 0.20484 0.56454 0.0
C250 C 0.28343 0.06055 0.6033 0.0
C251 C 0.3832 0.10988 0.58459 0.0
O252 O 0.29725 0.14165 0.63348 0.0
O253 O 0.81873 0.33853 0.63358 0.0
Zn254 Zn 0.82949 0.34113 0.60502 0.0
O255 O 0.85154 0.30452 0.59793 0.0
Zn256 Zn 0.826 0.27571 0.58542 0.0
Zn257 Zn 0.86776 0.28379 0.61963 0.0
Zn258 Zn 0.88368 0.31539 0.58069 0.0
O259 O 0.84848 0.25664 0.56353 0.0
O260 O 0.87932 0.29446 0.55554 0.0
O261 O 0.79173 0.34445 0.58736 0.0
O262 O 0.78994 0.29739 0.57563 0.0
O263 O 0.81247 0.24241 0.6028 0.0
O264 O 0.85097 0.24178 0.62299 0.0
O265 O 0.9129 0.28183 0.61949 0.0
O266 O 0.85843 0.37717 0.60143 0.0
O267 O 0.92383 0.30168 0.59134 0.0
O268 O 0.88827 0.36037 0.57821 0.0
C269 C 0.83257 0.32339 0.64648 0.0
C270 C 0.86732 0.26876 0.55209 0.0
C271 C 0.8267 0.23012 0.61651 0.0
C272 C 0.77914 0.32406 0.57702 0.0
C273 C 0.93213 0.28946 0.60689 0.0
C274 C 0.8796 0.38148 0.58929 0.0
O275 O 0.85337 0.30447 0.64252 0.0
O276 O 0.63867 0.17322 0.36365 0.0
Zn277 Zn 0.64462 0.1602 0.39149 0.0
O278 O 0.68381 0.13903 0.39406 0.0
Zn279 Zn 0.71144 0.15996 0.41109 0.0
Zn280 Zn 0.70496 0.13413 0.37006 0.0
Zn281 Zn 0.67604 0.09925 0.40413 0.0
O282 O 0.73199 0.13104 0.42944 0.0
O283 O 0.70468 0.08948 0.42487 0.0
O284 O 0.64378 0.19627 0.41041 0.0
O285 O 0.6886 0.19184 0.42508 0.0
O286 O 0.74514 0.18042 0.39681 0.0
O287 O 0.7448 0.15618 0.36923 0.0
O288 O 0.71167 0.09033 0.36291 0.0
O289 O 0.60956 0.131 0.39785 0.0
O290 O 0.68404 0.06721 0.38484 0.0
O291 O 0.63342 0.09339 0.41265 0.0
C292 C 0.65501 0.16747 0.34907 0.0
C293 C 0.72631 0.10332 0.43306 0.0
C294 C 0.75676 0.17516 0.38059 0.0
C295 C 0.66291 0.20464 0.42308 0.0
C296 C 0.70002 0.06633 0.36982 0.0
C297 C 0.60908 0.10635 0.4074 0.0
O298 O 0.67966 0.15265 0.35016 0.0
O299 O 0.8266 0.6673 0.36212 0.0
Zn300 Zn 0.8421 0.66903 0.38974 0.0
O301 O 0.86545 0.70657 0.39356 0.0
Zn302 Zn 0.84543 0.73443 0.41078 0.0
Zn303 Zn 0.87247 0.72882 0.37037 0.0
Zn304 Zn 0.90441 0.69583 0.40362 0.0
O305 O 0.8751 0.75267 0.42958 0.0
O306 O 0.9155 0.72365 0.42455 0.0
O307 O 0.80718 0.66786 0.40948 0.0
O308 O 0.81297 0.71212 0.42457 0.0
O309 O 0.82628 0.76928 0.39666 0.0
O310 O 0.85451 0.77044 0.3706 0.0
O311 O 0.91628 0.73105 0.36257 0.0
O312 O 0.87013 0.63234 0.39397 0.0
O313 O 0.93726 0.70167 0.38441 0.0
O314 O 0.90692 0.65248 0.41154 0.0
C315 C 0.83297 0.68499 0.34828 0.0
C316 C 0.90256 0.74556 0.43304 0.0
C317 C 0.8343 0.78206 0.38123 0.0
C318 C 0.7996 0.68675 0.42247 0.0
C319 C 0.93927 0.71737 0.36932 0.0
C320 C 0.89383 0.62952 0.40429 0.0
O321 O 0.85033 0.70775 0.35025 0.0
O322 O 0.34078 0.81699 0.36909 0.0
Zn323 Zn 0.34004 0.82739 0.39782 0.0
O324 O 0.30263 0.84946 0.40336 0.0
Zn325 Zn 0.27327 0.82447 0.41603 0.0
Zn326 Zn 0.28306 0.86401 0.38067 0.0
Zn327 Zn 0.3117 0.88285 0.42013 0.0
O328 O 0.25246 0.84843 0.43668 0.0
O329 O 0.29009 0.8791 0.44509 0.0
O330 O 0.34189 0.78994 0.41594 0.0
O331 O 0.29461 0.78933 0.4274 0.0
O332 O 0.24113 0.80919 0.39839 0.0
O333 O 0.24235 0.84478 0.37621 0.0
O334 O 0.27812 0.90908 0.38045 0.0
O335 O 0.37599 0.85583 0.40288 0.0
O336 O 0.29678 0.92194 0.40859 0.0
O337 O 0.35637 0.88869 0.42348 0.0
C338 C 0.32692 0.83053 0.3555 0.0
C339 C 0.26398 0.86768 0.44806 0.0
C340 C 0.23014 0.82142 0.38354 0.0
C341 C 0.32122 0.77822 0.42649 0.0
C342 C 0.28437 0.92908 0.39287 0.0
C343 C 0.3789 0.8782 0.41428 0.0
O344 O 0.30674 0.85054 0.35855 0.0
O345 O 0.16744 0.3366 0.36269 0.0
Zn346 Zn 0.1559 0.34094 0.39119 0.0
O347 O 0.1318 0.30541 0.399 0.0
Zn348 Zn 0.1529 0.28107 0.41717 0.0
Zn349 Zn 0.12257 0.27819 0.37831 0.0
Zn350 Zn 0.09494 0.31839 0.41131 0.0
O351 O 0.12451 0.26383 0.43668 0.0
O352 O 0.08888 0.29933 0.43691 0.0
O353 O 0.19277 0.34518 0.40974 0.0
O354 O 0.18371 0.30669 0.42962 0.0
O355 O 0.17344 0.2456 0.40528 0.0
O356 O 0.14279 0.23729 0.3809 0.0
O357 O 0.07759 0.27349 0.37424 0.0
O358 O 0.1293 0.37921 0.39383 0.0
O359 O 0.05908 0.30483 0.39602 0.0
O360 O 0.09234 0.36331 0.413 0.0
C361 C 0.15796 0.31722 0.35047 0.0
C362 C 0.10079 0.27551 0.44386 0.0
C363 C 0.16471 0.2291 0.39152 0.0
C364 C 0.19852 0.33035 0.42503 0.0
C365 C 0.0552 0.28659 0.38221 0.0
C366 C 0.1059 0.38442 0.40408 0.0
O367 O 0.1404 0.29559 0.35512 0.0
C368 C 0.14359 0.32034 0.17695 0.0
C369 C 0.17139 0.31621 0.1676 0.0
C370 C 0.14204 0.31802 0.19685 0.0
C371 C 0.18605 0.29254 0.23941 0.0
H372 H 0.1407 0.35546 0.26541 0.0
C373 C 0.16851 0.29123 0.32002 0.0
C374 C 0.16678 0.31859 0.3302 0.0
C375 C 0.17099 0.29117 0.30032 0.0
C376 C 0.15383 0.33802 0.25835 0.0
H377 H 0.21885 0.30511 0.1713 0.0
H378 H 0.21628 0.30083 0.20561 0.0
H379 H 0.13854 0.35198 0.23078 0.0
H380 H 0.16771 0.36752 0.32775 0.0
H381 H 0.17272 0.36757 0.2929 0.0
H382 H 0.20226 0.27921 0.26676 0.0
C383 C 0.19552 0.30551 0.19792 0.0
C384 C 0.1521 0.33563 0.23851 0.0
C385 C 0.19703 0.30789 0.17821 0.0
C386 C 0.16923 0.34611 0.32027 0.0
C387 C 0.17165 0.34608 0.30033 0.0
C388 C 0.18797 0.29508 0.25915 0.0
C389 C 0.16827 0.31149 0.2076 0.0
C390 C 0.1682 0.31283 0.22878 0.0
C391 C 0.17193 0.31853 0.29011 0.0
C392 C 0.17175 0.31771 0.26892 0.0
H393 H 0.12368 0.3274 0.16907 0.0
H394 H 0.12058 0.32235 0.20384 0.0
H395 H 0.1986 0.27455 0.23249 0.0
H396 H 0.16675 0.2696 0.32728 0.0
H397 H 0.17074 0.26953 0.29305 0.0
C398 C 0.62445 0.15679 0.32047 0.0
C399 C 0.6453 0.17562 0.32984 0.0
C400 C 0.62495 0.15446 0.30063 0.0
C401 C 0.68225 0.16061 0.26315 0.0
H402 H 0.61529 0.14809 0.22835 0.0
C403 C 0.65416 0.12818 0.17947 0.0
C404 C 0.67316 0.14961 0.17078 0.0
C405 C 0.65282 0.12621 0.19931 0.0
C406 C 0.63425 0.15091 0.23798 0.0
H407 H 0.68099 0.20872 0.32609 0.0
H408 H 0.68096 0.20586 0.29146 0.0
H409 H 0.6049 0.15987 0.26165 0.0
H410 H 0.70714 0.18411 0.17558 0.0
H411 H 0.70559 0.18021 0.21007 0.0
H412 H 0.71161 0.15193 0.23954 0.0
C413 C 0.66475 0.1923 0.29933 0.0
C414 C 0.62826 0.15794 0.25701 0.0
C415 C 0.66436 0.19445 0.3191 0.0
C416 C 0.69291 0.16688 0.18202 0.0
C417 C 0.69177 0.16478 0.20179 0.0
C418 C 0.68822 0.15355 0.24418 0.0
C419 C 0.64637 0.17094 0.28997 0.0
C420 C 0.65221 0.16339 0.26972 0.0
C421 C 0.67053 0.14562 0.21066 0.0
C422 C 0.66432 0.14904 0.2313 0.0
H423 H 0.61012 0.14149 0.32853 0.0
H424 H 0.61048 0.13782 0.29384 0.0
H425 H 0.70125 0.16376 0.27271 0.0
H426 H 0.63821 0.11518 0.17104 0.0
H427 H 0.63656 0.11091 0.20575 0.0
C428 C 0.85842 0.66985 0.17768 0.0
C429 C 0.83144 0.67237 0.16725 0.0
C430 C 0.85793 0.67374 0.1975 0.0
C431 C 0.80708 0.69874 0.23741 0.0
H432 H 0.85492 0.64194 0.26687 0.0
C433 C 0.81378 0.70574 0.3182 0.0
C434 C 0.82116 0.68003 0.329 0.0
C435 C 0.81183 0.70402 0.29854 0.0
C436 C 0.8409 0.6575 0.25883 0.0
H437 H 0.78351 0.68306 0.1688 0.0
H438 H 0.78236 0.68898 0.20278 0.0
H439 H 0.8611 0.64393 0.23251 0.0
H440 H 0.82966 0.63174 0.32801 0.0
H441 H 0.82468 0.62817 0.29332 0.0
H442 H 0.78533 0.71089 0.26332 0.0
C443 C 0.80408 0.68457 0.19616 0.0
C444 C 0.84504 0.65921 0.23913 0.0
C445 C 0.80467 0.681 0.17657 0.0
C446 C 0.8237 0.65181 0.31996 0.0
C447 C 0.82145 0.64998 0.30009 0.0
C448 C 0.80238 0.69646 0.25693 0.0
C449 C 0.83044 0.68009 0.20703 0.0
C450 C 0.82817 0.67989 0.22815 0.0
C451 C 0.81675 0.67637 0.2891 0.0
C452 C 0.81945 0.67611 0.26799 0.0
H453 H 0.87927 0.66296 0.17077 0.0
H454 H 0.8788 0.67071 0.20539 0.0
H455 H 0.79395 0.71532 0.22958 0.0
H456 H 0.81179 0.72781 0.32488 0.0
H457 H 0.80856 0.72496 0.29077 0.0
C458 C 0.35821 0.82409 0.32588 0.0
C459 C 0.33051 0.82128 0.33553 0.0
C460 C 0.35896 0.82245 0.30592 0.0
C461 C 0.31213 0.79956 0.26405 0.0
H462 H 0.36021 0.85918 0.23693 0.0
C463 C 0.32644 0.79526 0.18342 0.0
C464 C 0.32906 0.82219 0.17285 0.0
C465 C 0.32498 0.79593 0.20314 0.0
C466 C 0.34632 0.84271 0.24432 0.0
H467 H 0.2823 0.81336 0.33229 0.0
H468 H 0.28346 0.81045 0.29795 0.0
H469 H 0.36344 0.85616 0.27159 0.0
H470 H 0.33091 0.87115 0.17464 0.0
H471 H 0.32767 0.87251 0.2096 0.0
H472 H 0.29412 0.78677 0.23708 0.0
C473 C 0.30473 0.81355 0.30541 0.0
C474 C 0.34863 0.84055 0.26416 0.0
C475 C 0.30402 0.81524 0.32514 0.0
C476 C 0.32863 0.8501 0.18245 0.0
C477 C 0.32723 0.85079 0.20243 0.0
C478 C 0.30961 0.8019 0.24435 0.0
C479 C 0.33202 0.81785 0.29545 0.0
C480 C 0.33152 0.81893 0.27427 0.0
C481 C 0.32594 0.82359 0.21299 0.0
C482 C 0.32682 0.82331 0.23417 0.0
H483 H 0.37882 0.82929 0.33361 0.0
H484 H 0.38043 0.8255 0.29868 0.0
H485 H 0.29879 0.78244 0.27128 0.0
H486 H 0.32669 0.77337 0.17641 0.0
H487 H 0.32443 0.77451 0.21068 0.0
C488 C 0.19384 0.67345 0.82949 0.0
C489 C 0.1662 0.6702 0.83922 0.0
C490 C 0.19466 0.67486 0.80976 0.0
C491 C 0.15112 0.65165 0.76751 0.0
H492 H 0.21324 0.6983 0.74165 0.0
C493 C 0.17443 0.63688 0.68679 0.0
C494 C 0.17779 0.66422 0.67677 0.0
C495 C 0.17525 0.63683 0.70677 0.0
C496 C 0.19562 0.68521 0.74856 0.0
H497 H 0.11747 0.66729 0.83598 0.0
H498 H 0.11868 0.67054 0.80103 0.0
H499 H 0.20634 0.70428 0.7756 0.0
H500 H 0.1865 0.71238 0.67952 0.0
H501 H 0.18788 0.71239 0.71387 0.0
H502 H 0.13967 0.63352 0.74016 0.0
C503 C 0.13984 0.6715 0.80883 0.0
C504 C 0.19181 0.68846 0.76813 0.0
C505 C 0.13904 0.67013 0.82881 0.0
C506 C 0.18399 0.69093 0.68691 0.0
C507 C 0.18483 0.69091 0.70667 0.0
C508 C 0.15472 0.64862 0.7478 0.0
C509 C 0.1678 0.67318 0.79908 0.0
C510 C 0.16969 0.67158 0.77794 0.0
C511 C 0.17961 0.66407 0.71694 0.0
C512 C 0.17705 0.66539 0.73807 0.0
H513 H 0.21516 0.67346 0.83718 0.0
H514 H 0.21664 0.67571 0.80289 0.0
H515 H 0.13415 0.63796 0.77461 0.0
H516 H 0.16924 0.61606 0.6793 0.0
H517 H 0.1716 0.61566 0.71424 0.0
C518 C 0.29389 0.16201 0.67017 0.0
C519 C 0.32034 0.16577 0.65923 0.0
C520 C 0.29487 0.16321 0.68987 0.0
C521 C 0.34667 0.15454 0.73069 0.0
H522 H 0.27678 0.18563 0.75791 0.0
C523 C 0.33602 0.14209 0.81246 0.0
C524 C 0.3266 0.16858 0.8218 0.0
C525 C 0.33295 0.13966 0.79264 0.0
C526 C 0.29661 0.17698 0.75062 0.0
H527 H 0.36853 0.17513 0.6605 0.0
H528 H 0.37022 0.17822 0.69545 0.0
H529 H 0.27909 0.19056 0.72371 0.0
H530 H 0.30486 0.21224 0.81821 0.0
H531 H 0.29951 0.20821 0.78411 0.0
H532 H 0.36479 0.14237 0.75792 0.0
C533 C 0.34876 0.17362 0.68853 0.0
C534 C 0.29782 0.17955 0.73089 0.0
C535 C 0.34777 0.17228 0.66855 0.0
C536 C 0.31207 0.19145 0.81133 0.0
C537 C 0.30902 0.18908 0.79171 0.0
C538 C 0.34566 0.15236 0.75056 0.0
C539 C 0.32228 0.16866 0.69941 0.0
C540 C 0.32269 0.16813 0.7206 0.0
C541 C 0.32033 0.16365 0.78198 0.0
C542 C 0.32058 0.16359 0.76078 0.0
H543 H 0.27226 0.15714 0.6635 0.0
H544 H 0.27411 0.15874 0.69762 0.0
H545 H 0.366 0.14515 0.72323 0.0
H546 H 0.34772 0.12436 0.8202 0.0
H547 H 0.34144 0.11953 0.78562 0.0
C548 C 0.80549 0.30224 0.81856 0.0
C549 C 0.83055 0.31429 0.82822 0.0
C550 C 0.80586 0.29939 0.79887 0.0
C551 C 0.84318 0.33542 0.75762 0.0
H552 H 0.79242 0.27901 0.72986 0.0
C553 C 0.821 0.35075 0.67705 0.0
C554 C 0.82294 0.32386 0.6665 0.0
C555 C 0.81905 0.34942 0.69698 0.0
C556 C 0.80693 0.29488 0.7373 0.0
H557 H 0.87657 0.3306 0.82527 0.0
H558 H 0.87806 0.32407 0.79067 0.0
H559 H 0.80046 0.27159 0.76356 0.0
H560 H 0.82232 0.27477 0.66805 0.0
H561 H 0.81953 0.27236 0.70223 0.0
H562 H 0.85095 0.3577 0.73103 0.0
C563 C 0.8577 0.31762 0.79827 0.0
C564 C 0.81131 0.29077 0.75676 0.0
C565 C 0.85719 0.32069 0.81811 0.0
C566 C 0.82085 0.29587 0.67592 0.0
C567 C 0.81906 0.29452 0.6956 0.0
C568 C 0.83927 0.33919 0.73802 0.0
C569 C 0.83145 0.3084 0.78834 0.0
C570 C 0.82933 0.31107 0.76726 0.0
C571 C 0.819 0.32119 0.7065 0.0
C572 C 0.82111 0.31893 0.72759 0.0
H573 H 0.78449 0.29774 0.82609 0.0
H574 H 0.78508 0.2925 0.79189 0.0
H575 H 0.85668 0.35195 0.76523 0.0
H576 H 0.82282 0.37257 0.67006 0.0
H577 H 0.81853 0.37043 0.70493 0.0
C578 C 0.64786 0.82685 0.68223 0.0
C579 C 0.67595 0.82331 0.67312 0.0
C580 C 0.64575 0.82327 0.70201 0.0
C581 C 0.68908 0.79569 0.74429 0.0
H582 H 0.64307 0.85714 0.7712 0.0
C583 C 0.67032 0.7895 0.82423 0.0
C584 C 0.66814 0.81609 0.83513 0.0
C585 C 0.67309 0.79088 0.80462 0.0
C586 C 0.65642 0.84016 0.76387 0.0
H587 H 0.72319 0.81131 0.67702 0.0
H588 H 0.71973 0.8052 0.71109 0.0
H589 H 0.64137 0.85531 0.73651 0.0
H590 H 0.66867 0.86515 0.83418 0.0
H591 H 0.67432 0.86777 0.79935 0.0
H592 H 0.70529 0.78136 0.77138 0.0
C593 C 0.69917 0.81042 0.70333 0.0
C594 C 0.65492 0.83867 0.744 0.0
C595 C 0.7012 0.81395 0.68374 0.0
C596 C 0.67048 0.84435 0.82607 0.0
C597 C 0.67328 0.84577 0.80617 0.0
C598 C 0.69092 0.79746 0.76402 0.0
C599 C 0.67171 0.81604 0.71284 0.0
C600 C 0.67122 0.81635 0.73398 0.0
C601 C 0.67405 0.81894 0.79524 0.0
C602 C 0.67438 0.81947 0.77411 0.0
H603 H 0.62819 0.83448 0.67432 0.0
H604 H 0.62414 0.82726 0.70889 0.0
H605 H 0.70175 0.77803 0.73712 0.0
H606 H 0.66873 0.76735 0.83087 0.0
H607 H 0.67312 0.76975 0.79677 0.0
C608 C 0.91775 0.56499 0.07326 0.0
C609 C 0.91079 0.58098 0.09 0.0
C610 C 0.94101 0.54338 0.07306 0.0
C611 C 0.97692 0.48755 0.10283 0.0
H612 H 0.04261 0.48788 0.06625 0.0
C613 C 0.07564 0.4002 0.10582 0.0
C614 C 0.09191 0.39403 0.08911 0.0
C615 C 0.05202 0.42153 0.10575 0.0
C616 C 0.02408 0.48686 0.07633 0.0
H617 H 0.92305 0.58717 0.11956 0.0
H618 H 0.96331 0.54866 0.11932 0.0
H619 H 0.00614 0.52932 0.06647 0.0
H620 H 0.0949 0.40348 0.05901 0.0
H621 H 0.05234 0.43864 0.05846 0.0
H622 H 0.99372 0.44458 0.11223 0.0
C623 C 0.95096 0.55329 0.10632 0.0
C624 C 0.0034 0.51094 0.07655 0.0
C625 C 0.92818 0.57551 0.1064 0.0
C626 C 0.08267 0.4078 0.07209 0.0
C627 C 0.05858 0.42846 0.0719 0.0
C628 C 0.99721 0.46306 0.10234 0.0
C629 C 0.95726 0.53672 0.08972 0.0
C630 C 0.97972 0.51161 0.08986 0.0
C631 C 0.04373 0.43674 0.08887 0.0
C632 C 0.02121 0.46231 0.0891 0.0
H633 H 0.9046 0.56859 0.06045 0.0
H634 H 0.94538 0.53089 0.06009 0.0
H635 H 0.95857 0.48734 0.11308 0.0
H636 H 0.08271 0.39036 0.11922 0.0
H637 H 0.04155 0.42725 0.11919 0.0
C638 C 0.4061 0.92761 0.11139 0.0
C639 C 0.40086 0.91066 0.0948 0.0
C640 C 0.42682 0.95173 0.11119 0.0
C641 C 0.46243 0.01064 0.08584 0.0
H642 H 0.54087 0.98849 0.1067 0.0
C643 C 0.56412 0.09068 0.07703 0.0
C644 C 0.58446 0.09338 0.09228 0.0
C645 C 0.5428 0.06723 0.07661 0.0
C646 C 0.51906 0.99536 0.10107 0.0
H647 H 0.41153 0.90666 0.06484 0.0
H648 H 0.44662 0.94976 0.06437 0.0
H649 H 0.49856 0.95279 0.10856 0.0
H650 H 0.59922 0.07322 0.11875 0.0
H651 H 0.56134 0.03294 0.11852 0.0
H652 H 0.48206 0.05346 0.07887 0.0
C653 C 0.43513 0.94401 0.0775 0.0
C654 C 0.4949 0.97482 0.10211 0.0
C655 C 0.41503 0.91952 0.07778 0.0
C656 C 0.58409 0.07135 0.10667 0.0
C657 C 0.56224 0.04827 0.10651 0.0
C658 C 0.48637 0.03144 0.08511 0.0
C659 C 0.44189 0.95962 0.09432 0.0
C660 C 0.46652 0.98228 0.09441 0.0
C661 C 0.54069 0.0464 0.09174 0.0
C662 C 0.51519 0.02402 0.09254 0.0
H663 H 0.39585 0.92091 0.12474 0.0
H664 H 0.43186 0.96356 0.12431 0.0
H665 H 0.44066 0.01672 0.07978 0.0
H666 H 0.56402 0.10737 0.06572 0.0
H667 H 0.52742 0.06605 0.06464 0.0
C668 C 0.91634 0.41315 0.9243 0.0
C669 C 0.90911 0.39897 0.90701 0.0
C670 C 0.94042 0.43374 0.92538 0.0
C671 C 0.97505 0.49116 0.89639 0.0
H672 H 0.03645 0.49599 0.93566 0.0
C673 C 0.06514 0.58731 0.89836 0.0
C674 C 0.07786 0.59527 0.91597 0.0
C675 C 0.04414 0.56352 0.89711 0.0
C676 C 0.01908 0.49542 0.92479 0.0
H677 H 0.92203 0.39415 0.87749 0.0
H678 H 0.96396 0.4307 0.87927 0.0
H679 H 0.00377 0.4515 0.93383 0.0
H680 H 0.07684 0.58631 0.94621 0.0
H681 H 0.03877 0.54642 0.94428 0.0
H682 H 0.98905 0.53554 0.88782 0.0
C683 C 0.95123 0.42549 0.89203 0.0
C684 C 0.00064 0.46965 0.92363 0.0
C685 C 0.92756 0.40429 0.89108 0.0
C686 C 0.06744 0.5806 0.93244 0.0
C687 C 0.04598 0.55732 0.93125 0.0
C688 C 0.99308 0.51723 0.89775 0.0
C689 C 0.9572 0.44112 0.90905 0.0
C690 C 0.97845 0.46726 0.90943 0.0
C691 C 0.03495 0.54751 0.91349 0.0
C692 C 0.01533 0.51985 0.91204 0.0
H693 H 0.90211 0.4098 0.93669 0.0
H694 H 0.94444 0.44554 0.93864 0.0
H695 H 0.9577 0.49013 0.88549 0.0
H696 H 0.07313 0.59787 0.88538 0.0
H697 H 0.03648 0.55669 0.88313 0.0
C698 C 0.59953 0.92115 0.90105 0.0
C699 C 0.59102 0.89616 0.91226 0.0
C700 C 0.58015 0.94622 0.89922 0.0
C701 C 0.5106 0.98243 0.91976 0.0
H702 H 0.50422 0.0177 0.86945 0.0
C703 C 0.41802 0.07114 0.89878 0.0
C704 C 0.42998 0.09717 0.89001 0.0
C705 C 0.43635 0.04539 0.90146 0.0
C706 C 0.50576 0.00808 0.88359 0.0
H707 H 0.55599 0.87879 0.9311 0.0
H708 H 0.52235 0.92179 0.92761 0.0
H709 H 0.54043 0.97697 0.87515 0.0
H710 H 0.47001 0.11614 0.87647 0.0
H711 H 0.50138 0.07151 0.88084 0.0
H712 H 0.47551 0.01352 0.92803 0.0
C713 C 0.54403 0.92241 0.92037 0.0
C714 C 0.52675 0.98492 0.88692 0.0
C715 C 0.56339 0.89754 0.92229 0.0
C716 C 0.46011 0.09654 0.88341 0.0
C717 C 0.47811 0.07087 0.88579 0.0
C718 C 0.48938 0.00545 0.91636 0.0
C719 C 0.55178 0.94681 0.90848 0.0
C720 C 0.52968 0.97192 0.9051 0.0
C721 C 0.46664 0.04512 0.89502 0.0
C722 C 0.48696 0.01872 0.89828 0.0
H723 H 0.62063 0.92093 0.89316 0.0
H724 H 0.58721 0.96491 0.89026 0.0
H725 H 0.51238 0.97326 0.934 0.0
H726 H 0.39493 0.07103 0.90406 0.0
H727 H 0.42692 0.02573 0.90856 0.0
C728 C 0.58816 0.92559 0.5794 0.0
C729 C 0.59515 0.91079 0.59652 0.0
C730 C 0.56319 0.94501 0.57824 0.0
C731 C 0.52364 -0.00057 0.60642 0.0
H732 H 0.46143 0.99744 0.56755 0.0
C733 C 0.42588 0.08767 0.60329 0.0
C734 C 0.4124 0.09362 0.58561 0.0
C735 C 0.4488 0.06579 0.60489 0.0
C736 C 0.47896 0.9988 0.57828 0.0
H737 H 0.58127 0.90396 0.62573 0.0
H738 H 0.53781 0.9388 0.62385 0.0
H739 H 0.49779 0.956 0.56982 0.0
H740 H 0.41373 0.0833 0.55556 0.0
H741 H 0.4551 0.04695 0.55801 0.0
H742 H 0.50611 0.04283 0.61437 0.0
C743 C 0.55141 0.93482 0.61127 0.0
C744 C 0.49951 0.97476 0.5797 0.0
C745 C 0.57598 0.9147 0.61228 0.0
C746 C 0.42376 0.07906 0.56937 0.0
C747 C 0.44712 0.0578 0.57088 0.0
C748 C 0.50349 0.02384 0.60477 0.0
C749 C 0.54527 0.95064 0.59435 0.0
C750 C 0.52203 0.97487 0.59376 0.0
C751 C 0.4591 0.04984 0.58876 0.0
C752 C 0.48091 0.02398 0.59059 0.0
H753 H 0.60287 0.92319 0.56714 0.0
H754 H 0.55899 0.95705 0.56507 0.0
H755 H 0.54117 0.00022 0.61721 0.0
H756 H 0.41716 0.09823 0.61608 0.0
H757 H 0.45716 0.0603 0.61894 0.0
C758 C 0.09056 0.55785 0.61813 0.0
C759 C 0.09915 0.57294 0.60139 0.0
C760 C 0.06849 0.53492 0.61755 0.0
C761 C 0.0273 0.48196 0.58625 0.0
H762 H 0.95773 0.49855 0.61838 0.0
C763 C 0.91545 0.4182 0.57422 0.0
C764 C 0.89885 0.40899 0.59026 0.0
C765 C 0.93919 0.43905 0.57593 0.0
C766 C 0.97705 0.4932 0.60949 0.0
H767 H 0.09302 0.57486 0.5709 0.0
H768 H 0.0557 0.53392 0.56974 0.0
H769 H 0.00358 0.52918 0.62155 0.0
H770 H 0.89327 0.41553 0.62057 0.0
H771 H 0.93511 0.45133 0.62371 0.0
H772 H 0.00136 0.44572 0.57437 0.0
C773 C 0.06564 0.53989 0.58332 0.0
C774 C 0.00338 0.51078 0.61135 0.0
C775 C 0.08711 0.5632 0.58396 0.0
C776 C 0.90535 0.42249 0.60789 0.0
C777 C 0.92951 0.44299 0.60967 0.0
C778 C 0.0012 0.46409 0.58458 0.0
C779 C 0.05519 0.52636 0.60017 0.0
C780 C 0.02863 0.50558 0.59959 0.0
C781 C 0.94744 0.4508 0.59381 0.0
C782 C 0.97546 0.46972 0.59596 0.0
H783 H 0.09903 0.56542 0.63179 0.0
H784 H 0.06095 0.52472 0.63074 0.0
H785 H 0.04649 0.47733 0.57708 0.0
H786 H 0.9109 0.40826 0.56043 0.0
H787 H 0.95166 0.44523 0.56324 0.0
C788 C 0.42307 0.90222 0.39784 0.0
C789 C 0.40737 0.89593 0.41478 0.0
C790 C 0.4455 0.92474 0.39741 0.0
C791 C 0.50053 0.96709 0.42457 0.0
H792 H 0.48066 0.03661 0.39315 0.0
C793 C 0.57569 0.07341 0.42712 0.0
C794 C 0.58056 0.08935 0.41013 0.0
C795 C 0.5528 0.05155 0.42837 0.0
C796 C 0.48698 0.01729 0.40177 0.0
H797 H 0.40401 0.90685 0.44473 0.0
H798 H 0.44439 0.94506 0.44415 0.0
H799 H 0.44747 0.99231 0.39316 0.0
H800 H 0.56486 0.09565 0.38127 0.0
H801 H 0.5258 0.05667 0.38303 0.0
H802 H 0.54062 0.99093 0.43264 0.0
C803 C 0.43889 0.933 0.43118 0.0
C804 C 0.46782 0.99195 0.4018 0.0
C805 C 0.41592 0.9111 0.43152 0.0
C806 C 0.56119 0.08406 0.39466 0.0
C807 C 0.53878 0.06156 0.39572 0.0
C808 C 0.5201 0.99209 0.42422 0.0
C809 C 0.45314 0.94071 0.41401 0.0
C810 C 0.47437 0.96673 0.41327 0.0
C811 C 0.53483 0.04429 0.41244 0.0
C812 C 0.51354 0.01776 0.41294 0.0
H813 H 0.41661 0.89123 0.38468 0.0
H814 H 0.45631 0.93029 0.38402 0.0
H815 H 0.50605 0.94783 0.4335 0.0
H816 H 0.59039 0.07708 0.43925 0.0
H817 H 0.54992 0.03971 0.44173 0.0
C818 C 0.0787 0.42568 0.42112 0.0
C819 C 0.09129 0.41453 0.40416 0.0
C820 C 0.05899 0.4505 0.42085 0.0
C821 C 0.00054 0.48316 0.39202 0.0
H822 H 0.00754 0.55409 0.42421 0.0
C823 C 0.91361 0.58211 0.38931 0.0
C824 C 0.90991 0.60018 0.40556 0.0
C825 C 0.93504 0.55862 0.38911 0.0
C826 C 0.00476 0.53416 0.4154 0.0
H827 H 0.09376 0.42086 0.37368 0.0
H828 H 0.05845 0.46403 0.37314 0.0
H829 H 0.04841 0.51694 0.42357 0.0
H830 H 0.92385 0.60649 0.43478 0.0
H831 H 0.95945 0.56431 0.435 0.0
H832 H 0.95639 0.49927 0.38448 0.0
C833 C 0.06435 0.45379 0.38665 0.0
C834 C 0.02848 0.5131 0.41488 0.0
C835 C 0.08476 0.42939 0.38698 0.0
C836 C 0.92633 0.59293 0.42204 0.0
C837 C 0.94716 0.56903 0.42201 0.0
C838 C 0.97649 0.50389 0.39283 0.0
C839 C 0.05083 0.46411 0.40355 0.0
C840 C 0.02661 0.48744 0.40318 0.0
C841 C 0.95281 0.55231 0.40531 0.0
C842 C 0.97818 0.52972 0.40458 0.0
H843 H 0.08314 0.41438 0.43451 0.0
H844 H 0.04878 0.45796 0.43405 0.0
H845 H 0.99838 0.46325 0.38309 0.0
H846 H 0.9016 0.58754 0.37631 0.0
H847 H 0.93872 0.54659 0.37591 0.0
C848 C 0.32011 0.33542 0.14278 0.0
C849 C 0.30418 0.3198 0.12848 0.0
C850 C 0.34725 0.32368 0.15004 0.0
C851 C 0.3916 0.2531 0.15413 0.0
H852 H 0.46252 0.30472 0.14989 0.0
C853 C 0.50807 0.20811 0.13502 0.0
C854 C 0.5345 0.22281 0.1413 0.0
C855 C 0.47956 0.21877 0.14031 0.0
C856 C 0.44294 0.29015 0.15172 0.0
H857 H 0.30376 0.27925 0.11099 0.0
H858 H 0.35081 0.25881 0.12371 0.0
H859 H 0.41206 0.32661 0.14614 0.0
H860 H 0.55185 0.25902 0.1591 0.0
H861 H 0.50168 0.27785 0.16835 0.0
H862 H 0.42242 0.21642 0.15893 0.0
C863 C 0.34234 0.28006 0.12934 0.0
C864 C 0.41404 0.30271 0.1495 0.0
C865 C 0.31555 0.29195 0.12191 0.0
C866 C 0.53186 0.24728 0.154 0.0
C867 C 0.50317 0.25815 0.15921 0.0
C868 C 0.42044 0.2406 0.15648 0.0
C869 C 0.35857 0.29588 0.14337 0.0
C870 C 0.38823 0.28403 0.14984 0.0
C871 C 0.47674 0.24448 0.15198 0.0
C872 C 0.44648 0.25873 0.1544 0.0
H873 H 0.31188 0.35694 0.14813 0.0
H874 H 0.35941 0.33632 0.16082 0.0
H875 H 0.37198 0.23833 0.1548 0.0
H876 H 0.50934 0.18902 0.12536 0.0
H877 H 0.45975 0.20789 0.13427 0.0
C878 C 0.76787 0.52165 0.14327 0.0
C879 C 0.78458 0.52615 0.12647 0.0
C880 C 0.76055 0.49237 0.14932 0.0
C881 C 0.77813 0.41101 0.14138 0.0
H882 H 0.69208 0.39932 0.15035 0.0
C883 C 0.7145 0.30463 0.11941 0.0
C884 C 0.69063 0.2935 0.13065 0.0
C885 C 0.72974 0.33104 0.12453 0.0
C886 C 0.71629 0.40218 0.14837 0.0
H887 H 0.80794 0.50339 0.10335 0.0
H888 H 0.79485 0.45252 0.11373 0.0
H889 H 0.71274 0.4505 0.14928 0.0
H890 H 0.66469 0.30075 0.15647 0.0
H891 H 0.69121 0.34749 0.16529 0.0
H892 H 0.78128 0.36267 0.13941 0.0
C893 C 0.78766 0.47155 0.12237 0.0
C894 C 0.72815 0.43151 0.14775 0.0
C895 C 0.79489 0.50076 0.1163 0.0
C896 C 0.68293 0.30886 0.14749 0.0
C897 C 0.69804 0.33556 0.15253 0.0
C898 C 0.76627 0.38169 0.14197 0.0
C899 C 0.76994 0.46705 0.13874 0.0
C900 C 0.75894 0.43623 0.14346 0.0
C901 C 0.72135 0.34705 0.14096 0.0
C902 C 0.73502 0.3771 0.14468 0.0
H903 H 0.75976 0.54075 0.15152 0.0
H904 H 0.74705 0.48954 0.16207 0.0
H905 H 0.80208 0.41399 0.13844 0.0
H906 H 0.72116 0.2932 0.10643 0.0
H907 H 0.74728 0.3396 0.11517 0.0
C908 C 0.68546 0.66644 0.13521 0.0
C909 C 0.7041 0.68004 0.1214 0.0
C910 C 0.65735 0.6792 0.13981 0.0
C911 C 0.6118 0.74959 0.1352 0.0
H912 H 0.54308 0.69468 0.13425 0.0
C913 C 0.49168 0.78694 0.1148 0.0
C914 C 0.46668 0.77358 0.12394 0.0
C915 C 0.52112 0.77735 0.1189 0.0
C916 C 0.56203 0.71029 0.13496 0.0
H917 H 0.70825 0.71823 0.10206 0.0
H918 H 0.65932 0.74013 0.10991 0.0
H919 H 0.59441 0.67422 0.13366 0.0
H920 H 0.4531 0.74043 0.14515 0.0
H921 H 0.50465 0.72366 0.15226 0.0
H922 H 0.57934 0.7857 0.13576 0.0
C923 C 0.66648 0.71983 0.11735 0.0
C924 C 0.59145 0.69856 0.13463 0.0
C925 C 0.69444 0.70708 0.11272 0.0
C926 C 0.47185 0.7511 0.13777 0.0
C927 C 0.50134 0.74141 0.14181 0.0
C928 C 0.58239 0.76132 0.13551 0.0
C929 C 0.64746 0.70586 0.13077 0.0
C930 C 0.61662 0.71812 0.13418 0.0
C931 C 0.52623 0.75413 0.13221 0.0
C932 C 0.55721 0.7418 0.13485 0.0
H933 H 0.69231 0.64567 0.14223 0.0
H934 H 0.64323 0.66806 0.15031 0.0
H935 H 0.63079 0.7652 0.13522 0.0
H936 H 0.48854 0.80437 0.10412 0.0
H937 H 0.53979 0.78732 0.11108 0.0
C938 C 0.20249 0.48987 0.1133 0.0
C939 C 0.2132 0.46608 0.12477 0.0
C940 C 0.20953 0.51988 0.11769 0.0
C941 C 0.26998 0.56269 0.14001 0.0
H942 H 0.2176 0.63114 0.12896 0.0
C943 C 0.31645 0.68453 0.13687 0.0
C944 C 0.30782 0.70069 0.1205 0.0
C945 C 0.30154 0.65773 0.14185 0.0
C946 C 0.23246 0.61224 0.13214 0.0
H947 H 0.23808 0.45524 0.15054 0.0
H948 H 0.2504 0.5078 0.15816 0.0
H949 H 0.19615 0.5801 0.13034 0.0
H950 H 0.27622 0.70181 0.09683 0.0
H951 H 0.25067 0.6549 0.10532 0.0
H952 H 0.30652 0.5945 0.14095 0.0
C953 C 0.23682 0.5031 0.14567 0.0
C954 C 0.22019 0.58309 0.13296 0.0
C955 C 0.22969 0.47304 0.14131 0.0
C956 C 0.28351 0.6899 0.1095 0.0
C957 C 0.26863 0.66315 0.11448 0.0
C958 C 0.28225 0.59181 0.13917 0.0
C959 C 0.22745 0.52673 0.13363 0.0
C960 C 0.23902 0.55794 0.1363 0.0
C961 C 0.27769 0.64662 0.13058 0.0
C962 C 0.26378 0.61674 0.13461 0.0
H963 H 0.18955 0.48532 0.10052 0.0
H964 H 0.20227 0.53756 0.10801 0.0
H965 H 0.28515 0.54373 0.14239 0.0
H966 H 0.33493 0.69238 0.14576 0.0
H967 H 0.30883 0.64557 0.15442 0.0
C968 C 0.30765 0.66251 0.87433 0.0
C969 C 0.28983 0.67834 0.88761 0.0
C970 C 0.33648 0.67318 0.86938 0.0
C971 C 0.3861 0.74113 0.87229 0.0
H972 H 0.45152 0.6825 0.8754 0.0
C973 C 0.5065 0.7721 0.89517 0.0
C974 C 0.53118 0.75888 0.88564 0.0
C975 C 0.4769 0.76333 0.89088 0.0
C976 C 0.43348 0.69906 0.87411 0.0
H977 H 0.28792 0.71829 0.90562 0.0
H978 H 0.33803 0.73649 0.89726 0.0
H979 H 0.39901 0.66498 0.87563 0.0
H980 H 0.54417 0.72633 0.86397 0.0
H981 H 0.49221 0.71065 0.85671 0.0
H982 H 0.42063 0.77527 0.87176 0.0
C983 C 0.32971 0.71609 0.89044 0.0
C984 C 0.40341 0.68905 0.87419 0.0
C985 C 0.30104 0.70546 0.89539 0.0
C986 C 0.52561 0.73693 0.87156 0.0
C987 C 0.49594 0.7279 0.86742 0.0
C988 C 0.41612 0.75112 0.87231 0.0
C989 C 0.3479 0.69993 0.87755 0.0
C990 C 0.37943 0.71006 0.87394 0.0
C991 C 0.47135 0.74098 0.8771 0.0
C992 C 0.44002 0.73023 0.87384 0.0
H993 H 0.29958 0.64161 0.86799 0.0
H994 H 0.34994 0.66037 0.85931 0.0
H995 H 0.36807 0.7578 0.87166 0.0
H996 H 0.51001 0.78915 0.90603 0.0
H997 H 0.45836 0.77346 0.89876 0.0
C998 C 0.19988 0.50711 0.90787 0.0
C999 C 0.20281 0.52896 0.89345 0.0
C1000 C 0.20771 0.47696 0.90445 0.0
C1001 C 0.25716 0.43254 0.87315 0.0
H1002 H 0.21887 0.36412 0.89821 0.0
C1003 C 0.30392 0.31205 0.8652 0.0
C1004 C 0.30893 0.29678 0.88247 0.0
C1005 C 0.28613 0.33817 0.86466 0.0
C1006 C 0.22972 0.38306 0.89113 0.0
H1007 H 0.21434 0.53604 0.86379 0.0
H1008 H 0.22735 0.48325 0.8577 0.0
H1009 H 0.19544 0.41429 0.90013 0.0
H1010 H 0.29806 0.29619 0.91256 0.0
H1011 H 0.26712 0.34205 0.9116 0.0
H1012 H 0.29164 0.40151 0.8644 0.0
C1013 C 0.21981 0.48957 0.8718 0.0
C1014 C 0.21638 0.41174 0.89224 0.0
C1015 C 0.21227 0.51979 0.87527 0.0
C1016 C 0.29479 0.30753 0.89906 0.0
C1017 C 0.27687 0.33363 0.89849 0.0
C1018 C 0.27032 0.4039 0.87192 0.0
C1019 C 0.21835 0.46798 0.88648 0.0
C1020 C 0.23029 0.4369 0.88356 0.0
C1021 C 0.27289 0.34948 0.88135 0.0
C1022 C 0.25704 0.37901 0.88118 0.0
H1023 H 0.19265 0.51347 0.92204 0.0
H1024 H 0.20669 0.461 0.91614 0.0
H1025 H 0.26881 0.45149 0.8666 0.0
H1026 H 0.31426 0.30424 0.85212 0.0
H1027 H 0.28313 0.34981 0.85123 0.0
C1028 C 0.67356 0.31961 0.87779 0.0
C1029 C 0.69236 0.33739 0.86613 0.0
C1030 C 0.6459 0.30877 0.871 0.0
C1031 C 0.5865 0.32114 0.83536 0.0
H1032 H 0.56558 0.23851 0.84888 0.0
C1033 C 0.48341 0.22607 0.83406 0.0
C1034 C 0.46011 0.24457 0.84114 0.0
C1035 C 0.51188 0.23832 0.8301 0.0
C1036 C 0.57115 0.26141 0.84453 0.0
H1037 H 0.69649 0.35827 0.83828 0.0
H1038 H 0.64797 0.33917 0.82644 0.0
H1039 H 0.61546 0.25789 0.85658 0.0
H1040 H 0.44709 0.29071 0.84779 0.0
H1041 H 0.49711 0.31206 0.84159 0.0
H1042 H 0.5418 0.32468 0.82351 0.0
C1043 C 0.65475 0.33376 0.84084 0.0
C1044 C 0.59966 0.27266 0.84927 0.0
C1045 C 0.68256 0.34458 0.84762 0.0
C1046 C 0.46471 0.276 0.84228 0.0
C1047 C 0.49344 0.28822 0.8387 0.0
C1048 C 0.55781 0.30983 0.83057 0.0
C1049 C 0.63635 0.31543 0.8524 0.0
C1050 C 0.60734 0.30287 0.84525 0.0
C1051 C 0.51778 0.26916 0.83366 0.0
C1052 C 0.54956 0.28002 0.83552 0.0
H1053 H 0.68028 0.31379 0.89214 0.0
H1054 H 0.63191 0.29519 0.88037 0.0
H1055 H 0.59186 0.34454 0.83207 0.0
H1056 H 0.48022 0.20177 0.83286 0.0
H1057 H 0.52989 0.22319 0.82564 0.0
C1058 C 0.8132 0.49598 0.86474 0.0
C1059 C 0.79876 0.47146 0.85575 0.0
C1060 C 0.80496 0.52568 0.86039 0.0
C1061 C 0.73557 0.56366 0.84619 0.0
H1062 H 0.78343 0.63553 0.8567 0.0
C1063 C 0.6798 0.67885 0.86231 0.0
C1064 C 0.69061 0.69283 0.87896 0.0
C1065 C 0.69559 0.6547 0.85416 0.0
C1066 C 0.76982 0.61566 0.85364 0.0
H1067 H 0.76738 0.45893 0.83331 0.0
H1068 H 0.75333 0.51096 0.82549 0.0
H1069 H 0.80897 0.58776 0.84935 0.0
H1070 H 0.7268 0.69276 0.89988 0.0
H1071 H 0.75412 0.65031 0.88577 0.0
H1072 H 0.69649 0.59118 0.8512 0.0
C1073 C 0.77039 0.50714 0.83631 0.0
C1074 C 0.7844 0.58836 0.8494 0.0
C1075 C 0.77857 0.47732 0.84073 0.0
C1076 C 0.71777 0.6824 0.88712 0.0
C1077 C 0.73362 0.65833 0.87891 0.0
C1078 C 0.72103 0.59096 0.8503 0.0
C1079 C 0.78222 0.53152 0.84686 0.0
C1080 C 0.76743 0.56176 0.84642 0.0
C1081 C 0.72258 0.64413 0.86242 0.0
C1082 C 0.73802 0.61691 0.8548 0.0
H1083 H 0.82924 0.49227 0.87618 0.0
H1084 H 0.81456 0.54381 0.86886 0.0
H1085 H 0.72172 0.54361 0.84426 0.0
H1086 H 0.65906 0.68645 0.85557 0.0
H1087 H 0.68664 0.64423 0.84141 0.0
C1088 C 0.81877 0.79985 0.61466 0.0
C1089 C 0.80868 0.82487 0.62528 0.0
C1090 C 0.84524 0.78458 0.61979 0.0
C1091 C 0.91779 0.79546 0.6427 0.0
H1092 H 0.92028 0.70751 0.6433 0.0
C1093 C 0.03133 0.73282 0.64908 0.0
C1094 C 0.03526 0.70982 0.63548 0.0
C1095 C 0.00242 0.74442 0.65285 0.0
C1096 C 0.91998 0.73207 0.64317 0.0
H1097 H 0.81853 0.85365 0.64955 0.0
H1098 H 0.86533 0.82721 0.65823 0.0
H1099 H 0.87176 0.7335 0.63946 0.0
H1100 H 0.01166 0.67952 0.61613 0.0
H1101 H 0.96176 0.7001 0.62231 0.0
H1102 H 0.96605 0.79425 0.64526 0.0
C1103 C 0.85248 0.81938 0.64605 0.0
C1104 C 0.89223 0.74689 0.64101 0.0
C1105 C 0.82574 0.83443 0.64108 0.0
C1106 C 0.00952 0.69735 0.62664 0.0
C1107 C 0.98075 0.70902 0.63031 0.0
C1108 C 0.94561 0.78065 0.64464 0.0
C1109 C 0.86233 0.79423 0.6355 0.0
C1110 C 0.89101 0.77868 0.64027 0.0
C1111 C 0.97694 0.73329 0.64304 0.0
C1112 C 0.94711 0.74877 0.64436 0.0
H1113 H 0.80607 0.79183 0.60247 0.0
H1114 H 0.85263 0.76549 0.61127 0.0
H1115 H 0.91743 0.82001 0.64206 0.0
H1116 H 0.05067 0.74272 0.65628 0.0
H1117 H 0.00017 0.76275 0.66299 0.0
C1118 C 0.28725 0.00447 0.59852 0.0
C1119 C 0.27526 0.02917 0.60868 0.0
C1120 C 0.2786 0.9749 0.60299 0.0
C1121 C 0.2673 0.91342 0.62057 0.0
H1122 H 0.18115 0.89884 0.62719 0.0
C1123 C 0.17784 0.80794 0.63326 0.0
C1124 C 0.18782 0.78848 0.61872 0.0
C1125 C 0.19053 0.8368 0.63532 0.0
C1126 C 0.20534 0.90257 0.62572 0.0
H1127 H 0.24542 0.04207 0.63188 0.0
H1128 H 0.2305 0.99027 0.63972 0.0
H1129 H 0.19981 0.95073 0.62487 0.0
H1130 H 0.21965 0.78366 0.59534 0.0
H1131 H 0.24158 0.83394 0.59891 0.0
H1132 H 0.27262 0.86516 0.62077 0.0
C1133 C 0.24631 0.99391 0.62816 0.0
C1134 C 0.21604 0.9323 0.62441 0.0
C1135 C 0.25495 0.02355 0.62369 0.0
C1136 C 0.21134 0.79812 0.60666 0.0
C1137 C 0.22411 0.82685 0.60879 0.0
C1138 C 0.25659 0.8837 0.62183 0.0
C1139 C 0.25782 0.9693 0.61772 0.0
C1140 C 0.24704 0.938 0.62139 0.0
C1141 C 0.21357 0.84662 0.62297 0.0
C1142 C 0.22542 0.87799 0.624 0.0
H1143 H 0.30292 0.00795 0.58688 0.0
H1144 H 0.28752 0.95646 0.59448 0.0
H1145 H 0.2914 0.91714 0.6186 0.0
H1146 H 0.15983 0.80116 0.64283 0.0
H1147 H 0.18215 0.85153 0.64647 0.0
C1148 C 0.97398 0.26708 0.62643 0.0
C1149 C 0.96462 0.28305 0.61014 0.0
C1150 C 0.00436 0.25908 0.62882 0.0
C1151 C 0.08211 0.27454 0.61184 0.0
H1152 H 0.09547 0.18942 0.62298 0.0
C1153 C 0.1917 0.21214 0.59184 0.0
C1154 C 0.2025 0.18901 0.60381 0.0
C1155 C 0.1643 0.22663 0.59577 0.0
C1156 C 0.09225 0.21338 0.62026 0.0
H1157 H 0.98005 0.30426 0.584 0.0
H1158 H 0.03302 0.29005 0.58817 0.0
H1159 H 0.04434 0.21002 0.62442 0.0
H1160 H 0.19359 0.16378 0.62972 0.0
H1161 H 0.14582 0.18936 0.63667 0.0
H1162 H 0.13001 0.27771 0.60725 0.0
C1163 C 0.01687 0.28393 0.59912 0.0
C1164 C 0.06294 0.22518 0.62107 0.0
C1165 C 0.98647 0.29184 0.59667 0.0
C1166 C 0.18574 0.1813 0.6201 0.0
C1167 C 0.15835 0.1959 0.62408 0.0
C1168 C 0.11149 0.26277 0.61111 0.0
C1169 C 0.026 0.267 0.61505 0.0
C1170 C 0.0575 0.25569 0.61645 0.0
C1171 C 0.14715 0.21842 0.6118 0.0
C1172 C 0.11675 0.2319 0.61488 0.0
H1173 H 0.95776 0.26013 0.63714 0.0
H1174 H 0.01087 0.24629 0.64133 0.0
H1175 H 0.07856 0.29826 0.60848 0.0
H1176 H 0.20405 0.21865 0.57917 0.0
H1177 H 0.15608 0.24355 0.58586 0.0
C1178 C 0.83114 0.18646 0.6392 0.0
C1179 C 0.81439 0.20233 0.62538 0.0
C1180 C 0.81945 0.16007 0.64743 0.0
C1181 C 0.74853 0.11658 0.65438 0.0
H1182 H 0.80062 0.04597 0.65081 0.0
C1183 C 0.70507 0.99825 0.63837 0.0
C1184 C 0.72156 0.97263 0.6442 0.0
C1185 C 0.71459 0.02725 0.64348 0.0
C1186 C 0.78593 0.06548 0.65248 0.0
H1187 H 0.77192 0.20337 0.60975 0.0
H1188 H 0.75175 0.15732 0.62397 0.0
H1189 H 0.82177 0.09612 0.64533 0.0
H1190 H 0.75924 0.95714 0.66154 0.0
H1191 H 0.77583 0.00799 0.67055 0.0
H1192 H 0.71237 0.08576 0.66069 0.0
C1193 C 0.77376 0.16543 0.62859 0.0
C1194 C 0.79807 0.09425 0.64926 0.0
C1195 C 0.78549 0.19162 0.62027 0.0
C1196 C 0.74621 0.97647 0.65666 0.0
C1197 C 0.75581 0.00558 0.66176 0.0
C1198 C 0.7364 0.08781 0.6577 0.0
C1199 C 0.79071 0.14925 0.64212 0.0
C1200 C 0.77921 0.11991 0.64938 0.0
C1201 C 0.74082 0.03129 0.65456 0.0
C1202 C 0.7547 0.06185 0.65595 0.0
H1203 H 0.85341 0.19421 0.64353 0.0
H1204 H 0.83296 0.14804 0.65785 0.0
H1205 H 0.73363 0.1361 0.65492 0.0
H1206 H 0.68575 0.99607 0.62894 0.0
H1207 H 0.70262 0.04651 0.63755 0.0
C1208 C 0.79621 0.21499 0.38604 0.0
C1209 C 0.78523 0.19063 0.37515 0.0
C1210 C 0.82404 0.22839 0.38169 0.0
C1211 C 0.89712 0.20972 0.36122 0.0
H1212 H 0.91135 0.29627 0.36546 0.0
C1213 C 0.01832 0.25865 0.36136 0.0
C1214 C 0.02389 0.27961 0.37601 0.0
C1215 C 0.98859 0.25044 0.35667 0.0
C1216 C 0.90775 0.27204 0.36423 0.0
H1217 H 0.79443 0.16184 0.3508 0.0
H1218 H 0.84335 0.18512 0.34339 0.0
H1219 H 0.85944 0.2769 0.36571 0.0
H1220 H 0.00249 0.30925 0.39671 0.0
H1221 H 0.95104 0.29455 0.38883 0.0
H1222 H 0.94534 0.2046 0.36073 0.0
C1223 C 0.83031 0.19376 0.35526 0.0
C1224 C 0.87806 0.261 0.36434 0.0
C1225 C 0.8023 0.18052 0.35949 0.0
C1226 C 0.99909 0.29298 0.38537 0.0
C1227 C 0.96948 0.28475 0.38072 0.0
C1228 C 0.92683 0.22074 0.36125 0.0
C1229 C 0.84159 0.21758 0.36647 0.0
C1230 C 0.87252 0.22968 0.36337 0.0
C1231 C 0.96387 0.26303 0.36654 0.0
C1232 C 0.93249 0.25195 0.36333 0.0
H1233 H 0.78356 0.22342 0.39813 0.0
H1234 H 0.83234 0.24649 0.39071 0.0
H1235 H 0.89352 0.18544 0.36062 0.0
H1236 H 0.03691 0.24808 0.35378 0.0
H1237 H 0.98499 0.23389 0.34553 0.0
C1238 C 0.69383 0.01016 0.36911 0.0
C1239 C 0.70785 0.03633 0.36184 0.0
C1240 C 0.70499 0.98149 0.36466 0.0
C1241 C 0.77767 0.9468 0.35291 0.0
H1242 H 0.72976 0.87306 0.35502 0.0
C1243 C 0.8313 0.82762 0.36007 0.0
C1244 C 0.81921 0.81033 0.37508 0.0
C1245 C 0.81678 0.85406 0.35401 0.0
C1246 C 0.74339 0.89349 0.35433 0.0
H1247 H 0.74279 0.05283 0.34272 0.0
H1248 H 0.76209 0.0025 0.3347 0.0
H1249 H 0.70454 0.92174 0.35004 0.0
H1250 H 0.78217 0.80699 0.3953 0.0
H1251 H 0.75681 0.85315 0.38466 0.0
H1252 H 0.81642 0.91852 0.35763 0.0
C1253 C 0.74285 0.00429 0.34421 0.0
C1254 C 0.72901 0.92133 0.35148 0.0
C1255 C 0.73167 0.0331 0.34871 0.0
C1256 C 0.79215 0.81987 0.38377 0.0
C1257 C 0.77746 0.84611 0.37755 0.0
C1258 C 0.79207 0.91892 0.35555 0.0
C1259 C 0.73037 0.97825 0.35274 0.0
C1260 C 0.74587 0.94842 0.35147 0.0
C1261 C 0.78969 0.86348 0.36267 0.0
C1262 C 0.77494 0.89217 0.35695 0.0
H1263 H 0.67521 0.01179 0.37912 0.0
H1264 H 0.69493 0.96204 0.37165 0.0
H1265 H 0.79137 0.96719 0.35323 0.0
H1266 H 0.85211 0.82085 0.35305 0.0
H1267 H 0.82664 0.86707 0.34249 0.0
C1268 C 0.19121 0.78036 0.3811 0.0
C1269 C 0.20275 0.80824 0.37467 0.0
C1270 C 0.16479 0.76834 0.37323 0.0
C1271 C 0.0945 0.79274 0.35149 0.0
H1272 H 0.08204 0.70627 0.345 0.0
C1273 C 0.97434 0.74496 0.34718 0.0
C1274 C 0.96953 0.72205 0.36076 0.0
C1275 C 0.00382 0.75285 0.34174 0.0
C1276 C 0.08519 0.7305 0.34662 0.0
H1277 H 0.19611 0.84492 0.35448 0.0
H1278 H 0.14959 0.82397 0.3409 0.0
H1279 H 0.13339 0.72597 0.34928 0.0
H1280 H 0.99163 0.68758 0.37791 0.0
H1281 H 0.04271 0.70157 0.36872 0.0
H1282 H 0.04633 0.79723 0.35007 0.0
C1283 C 0.1611 0.81151 0.35205 0.0
C1284 C 0.11455 0.74174 0.34907 0.0
C1285 C 0.1877 0.82346 0.35983 0.0
C1286 C 0.99455 0.70559 0.36759 0.0
C1287 C 0.02391 0.71342 0.36214 0.0
C1288 C 0.06515 0.7815 0.34914 0.0
C1289 C 0.14924 0.78398 0.35881 0.0
C1290 C 0.11933 0.77282 0.35229 0.0
C1291 C 0.02895 0.73788 0.34972 0.0
C1292 C 0.06009 0.75013 0.34747 0.0
H1293 H 0.20233 0.76796 0.39242 0.0
H1294 H 0.15592 0.74731 0.37895 0.0
H1295 H 0.09748 0.81679 0.35407 0.0
H1296 H 0.9555 0.7579 0.34152 0.0
H1297 H 0.007 0.77153 0.33193 0.0
C1298 C 0.28438 0.98387 0.40221 0.0
C1299 C 0.27608 0.96107 0.38926 0.0
C1300 C 0.27509 0.01378 0.39937 0.0
C1301 C 0.21468 0.05763 0.37703 0.0
H1302 H 0.26728 0.12607 0.38767 0.0
C1303 C 0.17151 0.18104 0.37288 0.0
C1304 C 0.17999 0.19973 0.38817 0.0
C1305 C 0.18536 0.15282 0.37027 0.0
C1306 C 0.25229 0.10718 0.38473 0.0
H1307 H 0.25215 0.95199 0.36288 0.0
H1308 H 0.23588 0.0043 0.358 0.0
H1309 H 0.28804 0.07476 0.38815 0.0
H1310 H 0.21007 0.20362 0.41251 0.0
H1311 H 0.23368 0.1544 0.40815 0.0
H1312 H 0.1787 0.08985 0.37423 0.0
C1313 C 0.24944 0.99889 0.37039 0.0
C1314 C 0.26419 0.07785 0.38498 0.0
C1315 C 0.25887 0.96898 0.37317 0.0
C1316 C 0.20298 0.18984 0.40056 0.0
C1317 C 0.21673 0.16168 0.39798 0.0
C1318 C 0.20274 0.08696 0.37686 0.0
C1319 C 0.2572 0.02151 0.38357 0.0
C1320 C 0.24538 0.05276 0.38147 0.0
C1321 C 0.20793 0.14274 0.3829 0.0
C1322 C 0.22129 0.112 0.38107 0.0
H1323 H 0.29766 0.97857 0.41473 0.0
H1324 H 0.28112 0.0307 0.40988 0.0
H1325 H 0.19957 0.03868 0.37448 0.0
H1326 H 0.15401 0.18807 0.363 0.0
H1327 H 0.17832 0.13886 0.3584 0.0
C1328 C 0.21078 0.23843 0.06243 0.0
C1329 C 0.18695 0.25955 0.06257 0.0
C1330 C 0.21522 0.21925 0.04689 0.0
C1331 C 0.20283 0.22024 0.99529 0.0
H1332 H 0.24719 0.14443 0.9983 0.0
C1333 C 0.26595 0.17193 0.92993 0.0
C1334 C 0.29691 0.16763 0.93384 0.0
C1335 C 0.24497 0.17485 0.94486 0.0
C1336 C 0.2346 0.16545 0.99717 0.0
H1337 H 0.14795 0.27603 0.04705 0.0
H1338 H 0.1553 0.242 0.01978 0.0
H1339 H 0.22194 0.16433 0.02655 0.0
H1340 H 0.32997 0.16121 0.9562 0.0
H1341 H 0.29348 0.16508 0.98213 0.0
H1342 H 0.21639 0.22178 0.96605 0.0
C1343 C 0.17074 0.2404 0.03171 0.0
C1344 C 0.22018 0.17696 0.01339 0.0
C1345 C 0.16618 0.25957 0.04744 0.0
C1346 C 0.30614 0.164 0.9528 0.0
C1347 C 0.2852 0.1663 0.96766 0.0
C1348 C 0.21702 0.20857 0.97903 0.0
C1349 C 0.19608 0.22083 0.03091 0.0
C1350 C 0.20519 0.20518 0.0129 0.0
C1351 C 0.25456 0.17298 0.96393 0.0
C1352 C 0.2341 0.18165 0.97996 0.0
H1353 H 0.22738 0.23829 0.0738 0.0
H1354 H 0.23517 0.20492 0.04686 0.0
H1355 H 0.19182 0.24214 0.9943 0.0
H1356 H 0.25837 0.17546 0.91545 0.0
H1357 H 0.22151 0.17989 0.94153 0.0
C1358 C 0.77572 0.26139 0.9387 0.0
C1359 C 0.80397 0.27283 0.93279 0.0
C1360 C 0.77376 0.23956 0.95295 0.0
C1361 C 0.81468 0.21343 0.99523 0.0
H1362 H 0.74405 0.16125 0.99837 0.0
C1363 C 0.72957 0.14871 0.05305 0.0
C1364 C 0.72903 0.17272 0.06614 0.0
C1365 C 0.74826 0.1504 0.03687 0.0
C1366 C 0.7644 0.17496 0.99779 0.0
H1367 H 0.85257 0.269 0.93663 0.0
H1368 H 0.84922 0.2304 0.96182 0.0
H1369 H 0.75882 0.18249 0.96797 0.0
H1370 H 0.74955 0.21567 0.07367 0.0
H1371 H 0.78151 0.21885 0.04587 0.0
H1372 H 0.82023 0.20595 0.02508 0.0
C1373 C 0.82851 0.2387 0.95538 0.0
C1374 C 0.77263 0.18761 0.98029 0.0
C1375 C 0.83048 0.26064 0.94088 0.0
C1376 C 0.74953 0.19682 0.06378 0.0
C1377 C 0.76808 0.19851 0.04777 0.0
C1378 C 0.80673 0.20038 0.0127 0.0
C1379 C 0.80001 0.22831 0.96185 0.0
C1380 C 0.79674 0.20848 0.97899 0.0
C1381 C 0.76667 0.17612 0.03356 0.0
C1382 C 0.78038 0.18244 0.01446 0.0
H1383 H 0.7548 0.27003 0.93269 0.0
H1384 H 0.75138 0.23274 0.95765 0.0
H1385 H 0.83354 0.22916 0.99483 0.0
H1386 H 0.71384 0.12997 0.05447 0.0
H1387 H 0.74697 0.13238 0.02645 0.0
C1388 C 0.76565 0.80969 0.93326 0.0
C1389 C 0.7373 0.82208 0.93793 0.0
C1390 C 0.78842 0.80721 0.94705 0.0
C1391 C 0.80788 0.82494 0.99787 0.0
H1392 H 0.83606 0.74166 0.99786 0.0
C1393 C 0.82177 0.75362 0.06479 0.0
C1394 C 0.84094 0.7282 0.06484 0.0
C1395 C 0.82094 0.77313 0.04916 0.0
C1396 C 0.82928 0.76527 0.99799 0.0
H1397 H 0.71082 0.84293 0.96021 0.0
H1398 H 0.7503 0.83868 0.98435 0.0
H1399 H 0.81221 0.7622 0.96968 0.0
H1400 H 0.8761 0.70453 0.04938 0.0
H1401 H 0.87507 0.73895 0.02198 0.0
H1402 H 0.82355 0.82724 0.02668 0.0
C1403 C 0.7555 0.83145 0.97001 0.0
C1404 C 0.81546 0.77714 0.98173 0.0
C1405 C 0.73282 0.83403 0.95617 0.0
C1406 C 0.86145 0.72425 0.04979 0.0
C1407 C 0.86049 0.74373 0.03401 0.0
C1408 C 0.82176 0.81304 0.01418 0.0
C1409 C 0.78304 0.81661 0.96589 0.0
C1410 C 0.80348 0.80674 0.98167 0.0
C1411 C 0.83904 0.76745 0.03309 0.0
C1412 C 0.83151 0.78263 0.0147 0.0
H1413 H 0.76936 0.79974 0.91937 0.0
H1414 H 0.8095 0.79612 0.94327 0.0
H1415 H 0.79945 0.848 0.99823 0.0
H1416 H 0.80546 0.75688 0.07613 0.0
H1417 H 0.80397 0.79089 0.04902 0.0
C1418 C 0.13501 0.73732 0.95663 0.0
C1419 C 0.15526 0.74004 0.94133 0.0
C1420 C 0.13721 0.75706 0.97224 0.0
C1421 C 0.17911 0.82531 0.991 0.0
H1422 H 0.18579 0.77625 0.03651 0.0
C1423 C 0.26779 0.84547 0.04925 0.0
C1424 C 0.26236 0.83529 0.06783 0.0
C1425 C 0.24536 0.84288 0.03527 0.0
C1426 C 0.18338 0.7907 0.02415 0.0
H1427 H 0.19184 0.76676 0.92954 0.0
H1428 H 0.19544 0.80129 0.95631 0.0
H1429 H 0.16156 0.75537 0.0085 0.0
H1430 H 0.22887 0.8159 0.08671 0.0
H1431 H 0.18922 0.81196 0.06242 0.0
H1432 H 0.20259 0.86004 0.00647 0.0
C1433 C 0.17768 0.78432 0.95648 0.0
C1434 C 0.16935 0.77865 0.00798 0.0
C1435 C 0.17558 0.76455 0.94102 0.0
C1436 C 0.23335 0.82458 0.07257 0.0
C1437 C 0.21085 0.82188 0.05857 0.0
C1438 C 0.1932 0.83736 0.00719 0.0
C1439 C 0.1597 0.77983 0.97277 0.0
C1440 C 0.16806 0.79533 0.99094 0.0
C1441 C 0.21708 0.82964 0.03952 0.0
C1442 C 0.19654 0.81978 0.02377 0.0
H1443 H 0.11956 0.71824 0.95738 0.0
H1444 H 0.12267 0.7532 0.98441 0.0
H1445 H 0.17805 0.83905 0.97825 0.0
H1446 H 0.29027 0.85301 0.04514 0.0
H1447 H 0.25123 0.84878 0.02078 0.0
C1448 C 0.78342 0.6705 0.45454 0.0
C1449 C 0.77536 0.6798 0.43617 0.0
C1450 C 0.76303 0.67378 0.46963 0.0
C1451 C 0.70166 0.72568 0.48307 0.0
H1452 H 0.70464 0.67998 0.53011 0.0
C1453 C 0.65975 0.77934 0.55268 0.0
C1454 C 0.68247 0.77871 0.56665 0.0
C1455 C 0.6613 0.75959 0.53705 0.0
C1456 C 0.70333 0.6929 0.51703 0.0
H1457 H 0.73938 0.69837 0.41883 0.0
H1458 H 0.7032 0.70332 0.44508 0.0
H1459 H 0.7253 0.65787 0.50103 0.0
H1460 H 0.72332 0.75602 0.57604 0.0
H1461 H 0.72575 0.72132 0.54922 0.0
H1462 H 0.68102 0.76124 0.4992 0.0
C1463 C 0.72534 0.69369 0.44794 0.0
C1464 C 0.71525 0.68026 0.50036 0.0
C1465 C 0.74584 0.69043 0.43284 0.0
C1466 C 0.70531 0.75661 0.56555 0.0
C1467 C 0.70664 0.7367 0.55016 0.0
C1468 C 0.68965 0.73825 0.49971 0.0
C1469 C 0.73418 0.68674 0.46669 0.0
C1470 C 0.7157 0.69699 0.48332 0.0
C1471 C 0.68544 0.73878 0.53528 0.0
C1472 C 0.69145 0.72253 0.51706 0.0
H1473 H 0.80636 0.66299 0.4575 0.0
H1474 H 0.77092 0.66851 0.48383 0.0
H1475 H 0.70184 0.73949 0.47034 0.0
H1476 H 0.64222 0.79655 0.55309 0.0
H1477 H 0.6445 0.76164 0.52588 0.0
C1478 C 0.26246 0.66335 0.57311 0.0
C1479 C 0.23358 0.65131 0.5694 0.0
C1480 C 0.28341 0.6674 0.55829 0.0
C1481 C 0.29638 0.65371 0.50609 0.0
H1482 H 0.32593 0.73651 0.50701 0.0
C1483 C 0.30632 0.72848 0.43993 0.0
C1484 C 0.32743 0.75232 0.43925 0.0
C1485 C 0.30522 0.70891 0.45554 0.0
C1486 C 0.31863 0.71306 0.50658 0.0
H1487 H 0.20446 0.6326 0.54766 0.0
H1488 H 0.24076 0.63914 0.52192 0.0
H1489 H 0.30507 0.71422 0.53573 0.0
H1490 H 0.36517 0.77333 0.45382 0.0
H1491 H 0.36345 0.73893 0.48127 0.0
H1492 H 0.30847 0.65331 0.47657 0.0
C1493 C 0.24777 0.6451 0.53619 0.0
C1494 C 0.30659 0.70018 0.52315 0.0
C1495 C 0.22691 0.64114 0.55098 0.0
C1496 C 0.34902 0.7548 0.45384 0.0
C1497 C 0.34771 0.73536 0.46966 0.0
C1498 C 0.30837 0.66663 0.4895 0.0
C1499 C 0.27573 0.65969 0.53944 0.0
C1500 C 0.29425 0.67071 0.52298 0.0
C1501 C 0.32495 0.71296 0.47105 0.0
C1502 C 0.31862 0.69688 0.48935 0.0
H1503 H 0.26785 0.67209 0.5871 0.0
H1504 H 0.30486 0.6783 0.5614 0.0
H1505 H 0.28765 0.63076 0.50548 0.0
H1506 H 0.28913 0.72637 0.42899 0.0
H1507 H 0.2872 0.69223 0.45609 0.0
C1508 C 0.25296 0.34211 0.43293 0.0
C1509 C 0.22246 0.33978 0.43849 0.0
C1510 C 0.27615 0.34114 0.44668 0.0
C1511 C 0.28871 0.33576 0.49995 0.0
H1512 H 0.35055 0.27816 0.48507 0.0
C1513 C 0.34122 0.25948 0.55681 0.0
C1514 C 0.34116 0.22889 0.55133 0.0
C1515 C 0.33932 0.28246 0.54298 0.0
C1516 C 0.3334 0.2942 0.48957 0.0
H1517 H 0.1921 0.33733 0.46259 0.0
H1518 H 0.23164 0.33535 0.48624 0.0
H1519 H 0.32073 0.30333 0.46084 0.0
H1520 H 0.34184 0.1983 0.52733 0.0
H1521 H 0.33822 0.23745 0.50351 0.0
H1522 H 0.29893 0.32409 0.52867 0.0
C1523 C 0.23838 0.33832 0.47157 0.0
C1524 C 0.31653 0.30918 0.47555 0.0
C1525 C 0.21547 0.33932 0.45794 0.0
C1526 C 0.34221 0.22178 0.53191 0.0
C1527 C 0.34018 0.24449 0.51818 0.0
C1528 C 0.30502 0.32018 0.51398 0.0
C1529 C 0.26915 0.33775 0.46617 0.0
C1530 C 0.2927 0.32889 0.48055 0.0
C1531 C 0.33705 0.27514 0.52347 0.0
C1532 C 0.32642 0.29783 0.509 0.0
H1533 H 0.25894 0.34217 0.418 0.0
H1534 H 0.29951 0.34137 0.44193 0.0
H1535 H 0.27146 0.3517 0.50445 0.0
H1536 H 0.34001 0.26554 0.57171 0.0
H1537 H 0.33772 0.30579 0.54767 0.0
C1538 C 0.72855 0.30981 0.5648 0.0
C1539 C 0.75262 0.33067 0.56491 0.0
C1540 C 0.70878 0.30815 0.54933 0.0
C1541 C 0.71397 0.31907 0.49811 0.0
H1542 H 0.63277 0.2852 0.49915 0.0
C1543 C 0.66741 0.25881 0.43227 0.0
C1544 C 0.65617 0.22971 0.43623 0.0
C1545 C 0.67062 0.28021 0.44685 0.0
C1546 C 0.6554 0.29475 0.49857 0.0
H1547 H 0.77356 0.36776 0.54966 0.0
H1548 H 0.73868 0.36523 0.52253 0.0
H1549 H 0.65375 0.30856 0.52777 0.0
H1550 H 0.63838 0.20038 0.45816 0.0
H1551 H 0.64374 0.23752 0.48363 0.0
H1552 H 0.71637 0.30396 0.46931 0.0
C1553 C 0.73517 0.34999 0.53441 0.0
C1554 C 0.66743 0.30819 0.51498 0.0
C1555 C 0.75488 0.3518 0.55006 0.0
C1556 C 0.64633 0.22298 0.4547 0.0
C1557 C 0.64954 0.24432 0.46929 0.0
C1558 C 0.70196 0.30568 0.48173 0.0
C1559 C 0.71284 0.32711 0.53345 0.0
C1560 C 0.69732 0.31948 0.51517 0.0
C1561 C 0.66299 0.27275 0.46573 0.0
C1562 C 0.67294 0.29232 0.48192 0.0
H1563 H 0.7266 0.293 0.57598 0.0
H1564 H 0.69213 0.29008 0.54914 0.0
H1565 H 0.73719 0.32709 0.49771 0.0
H1566 H 0.67577 0.26424 0.41819 0.0
H1567 H 0.68068 0.30199 0.44352 0.0
C1568 C 0.26746 0.60268 0.96628 0.0
C1569 C 0.23647 0.60812 0.9696 0.0
C1570 C 0.28319 0.58156 0.97737 0.0
C1571 C 0.28163 0.53458 0.02036 0.0
H1572 H 0.29171 0.46535 0.98687 0.0
C1573 C 0.24169 0.41159 0.0281 0.0
C1574 C 0.25574 0.40202 0.04493 0.0
C1575 C 0.25429 0.4351 0.01744 0.0
C1576 C 0.29 0.48462 0.99636 0.0
H1577 H 0.19846 0.59851 0.98813 0.0
H1578 H 0.22628 0.56264 0.00804 0.0
H1579 H 0.28663 0.51624 0.97337 0.0
H1580 H 0.29477 0.40777 0.06329 0.0
H1581 H 0.31619 0.45004 0.04499 0.0
H1582 H 0.28286 0.50269 0.04329 0.0
C1583 C 0.2383 0.57431 0.99676 0.0
C1584 C 0.28717 0.5137 0.98869 0.0
C1585 C 0.22235 0.59472 0.98537 0.0
C1586 C 0.28381 0.41457 0.05017 0.0
C1587 C 0.29599 0.43875 0.0398 0.0
C1588 C 0.28513 0.50559 0.02806 0.0
C1589 C 0.26834 0.56643 0.99224 0.0
C1590 C 0.28129 0.5386 0.00059 0.0
C1591 C 0.28063 0.44993 0.02378 0.0
C1592 C 0.28764 0.48024 0.01605 0.0
H1593 H 0.27875 0.61251 0.95406 0.0
H1594 H 0.30628 0.57565 0.97361 0.0
H1595 H 0.27695 0.55347 0.02976 0.0
H1596 H 0.21989 0.40236 0.02393 0.0
H1597 H 0.24183 0.44358 0.00527 0.0
C1598 C 0.55658 0.25158 0.05033 0.0
C1599 C 0.58799 0.25487 0.05289 0.0
C1600 C 0.54189 0.2662 0.03547 0.0
C1601 C 0.55707 0.29071 0.98742 0.0
H1602 H 0.47029 0.30416 0.99031 0.0
C1603 C 0.47778 0.24099 0.93328 0.0
C1604 C 0.44818 0.25199 0.93083 0.0
C1605 C 0.49767 0.25529 0.94578 0.0
C1606 C 0.49461 0.30143 0.98899 0.0
H1607 H 0.62842 0.27756 0.04251 0.0
H1608 H 0.60251 0.30316 0.01617 0.0
H1609 H 0.50065 0.3073 0.01888 0.0
H1610 H 0.41682 0.2879 0.93844 0.0
H1611 H 0.45188 0.31346 0.95996 0.0
H1612 H 0.55101 0.28452 0.95755 0.0
C1613 C 0.5894 0.28905 0.02573 0.0
C1614 C 0.51201 0.30289 0.0055 0.0
C1615 C 0.60421 0.27438 0.04076 0.0
C1616 C 0.43935 0.27856 0.94036 0.0
C1617 C 0.45948 0.29322 0.95266 0.0
C1618 C 0.53977 0.28994 0.97081 0.0
C1619 C 0.55815 0.28461 0.02273 0.0
C1620 C 0.54289 0.29498 0.0051 0.0
C1621 C 0.48863 0.28128 0.95593 0.0
C1622 C 0.50798 0.29277 0.97168 0.0
H1623 H 0.54328 0.23702 0.05953 0.0
H1624 H 0.51796 0.26164 0.03343 0.0
H1625 H 0.58092 0.28496 0.98653 0.0
H1626 H 0.48528 0.2206 0.92609 0.0
H1627 H 0.51958 0.24487 0.94815 0.0
C1628 C 0.76157 0.59435 0.02437 0.0
C1629 C 0.74927 0.59965 0.04238 0.0
C1630 C 0.74488 0.57838 0.01085 0.0
C1631 C 0.70203 0.51346 0.00884 0.0
H1632 H 0.69698 0.53287 0.95522 0.0
C1633 C 0.72158 0.42253 0.95148 0.0
C1634 C 0.74574 0.43194 0.93981 0.0
C1635 C 0.7062 0.44367 0.96285 0.0
C1636 C 0.6976 0.52708 0.97018 0.0
H1637 H 0.71009 0.59356 0.06056 0.0
H1638 H 0.68131 0.56392 0.03704 0.0
H1639 H 0.69877 0.57377 0.97857 0.0
H1640 H 0.77177 0.47102 0.93032 0.0
H1641 H 0.74563 0.50713 0.95001 0.0
H1642 H 0.70502 0.46697 0.00041 0.0
C1643 C 0.70328 0.57309 0.03321 0.0
C1644 C 0.69844 0.55048 0.98349 0.0
C1645 C 0.71968 0.58991 0.04656 0.0
C1646 C 0.75353 0.46282 0.93928 0.0
C1647 C 0.73808 0.48375 0.95035 0.0
C1648 C 0.70174 0.49003 0.99549 0.0
C1649 C 0.71608 0.56676 0.01541 0.0
C1650 C 0.70273 0.54379 0.00277 0.0
C1651 C 0.71443 0.4745 0.96238 0.0
C1652 C 0.70194 0.49684 0.97599 0.0
H1653 H 0.78449 0.60149 0.02103 0.0
H1654 H 0.75539 0.57321 0.99731 0.0
H1655 H 0.70542 0.50787 0.02369 0.0
H1656 H 0.71496 0.39889 0.95206 0.0
H1657 H 0.68822 0.43592 0.97216 0.0
C1658 C 0.40669 0.72212 0.04641 0.0
C1659 C 0.40047 0.75301 0.04337 0.0
C1660 C 0.4288 0.70742 0.03552 0.0
C1661 C 0.49776 0.70708 0.02424 0.0
H1662 H 0.50613 0.70795 0.9694 0.0
C1663 C 0.59554 0.75396 0.98119 0.0
C1664 C 0.60466 0.73906 0.96456 0.0
C1665 C 0.57348 0.74109 0.99289 0.0
C1666 C 0.50402 0.70665 0.98472 0.0
H1667 H 0.41015 0.79208 0.02576 0.0
H1668 H 0.44766 0.76595 0.00607 0.0
H1669 H 0.45576 0.71281 0.98369 0.0
H1670 H 0.5998 0.69829 0.94767 0.0
H1671 H 0.56004 0.6763 0.9678 0.0
H1672 H 0.54635 0.70469 0.02529 0.0
C1673 C 0.43581 0.75325 0.01698 0.0
C1674 C 0.47526 0.70953 0.99285 0.0
C1675 C 0.41446 0.7682 0.02821 0.0
C1676 C 0.59338 0.70994 0.96062 0.0
C1677 C 0.5706 0.69743 0.97204 0.0
C1678 C 0.5266 0.70492 0.01612 0.0
C1679 C 0.44409 0.72321 0.02111 0.0
C1680 C 0.47211 0.71101 0.01264 0.0
C1681 C 0.55962 0.71357 0.98779 0.0
C1682 C 0.53 0.70598 0.99631 0.0
H1683 H 0.39647 0.71014 0.05823 0.0
H1684 H 0.43513 0.68433 0.03901 0.0
H1685 H 0.4958 0.70857 0.03957 0.0
H1686 H 0.60376 0.77658 0.98434 0.0
H1687 H 0.5651 0.75413 0.00485 0.0
C1688 C 0.7421 0.05417 0.44721 0.0
C1689 C 0.7461 0.08571 0.44595 0.0
C1690 C 0.76002 0.03687 0.45927 0.0
C1691 C 0.79803 0.04374 0.50436 0.0
H1692 H 0.80327 0.95707 0.4955 0.0
C1693 C 0.74569 0.96224 0.55428 0.0
C1694 C 0.7553 0.93205 0.5564 0.0
C1695 C 0.76085 0.98187 0.54213 0.0
C1696 C 0.80305 0.98122 0.49831 0.0
H1697 H 0.77319 0.12367 0.45578 0.0
H1698 H 0.80451 0.09316 0.47738 0.0
H1699 H 0.80306 0.99175 0.46866 0.0
H1700 H 0.78904 0.89902 0.5477 0.0
H1701 H 0.81552 0.93362 0.52595 0.0
H1702 H 0.79703 0.03314 0.53398 0.0
C1703 C 0.78734 0.08198 0.46888 0.0
C1704 C 0.80258 0.00113 0.48289 0.0
C1705 C 0.76932 0.09945 0.45662 0.0
C1706 C 0.78092 0.92208 0.54623 0.0
C1707 C 0.79618 0.94191 0.53391 0.0
C1708 C 0.79922 0.02389 0.51978 0.0
C1709 C 0.78256 0.0505 0.47051 0.0
C1710 C 0.79697 0.03224 0.48576 0.0
C1711 C 0.78617 0.97203 0.53169 0.0
C1712 C 0.79866 0.99233 0.5168 0.0
H1713 H 0.7247 0.04266 0.43906 0.0
H1714 H 0.75499 0.01289 0.46044 0.0
H1715 H 0.79432 0.06761 0.50714 0.0
H1716 H 0.72612 0.97085 0.56187 0.0
H1717 H 0.7518 0.00454 0.54038 0.0
C1718 C 0.95244 0.76383 0.44439 0.0
C1719 C 0.9208 0.76342 0.44653 0.0
C1720 C 0.97078 0.77677 0.45822 0.0
C1721 C 0.96883 0.78191 0.50903 0.0
H1722 H 0.05368 0.79996 0.49955 0.0
C1723 C 0.06007 0.71465 0.54433 0.0
C1724 C 0.08658 0.72836 0.55129 0.0
C1725 C 0.03933 0.73131 0.53376 0.0
C1726 C 0.02999 0.79567 0.50266 0.0
H1727 H 0.8832 0.77898 0.4638 0.0
H1728 H 0.91554 0.80143 0.48847 0.0
H1729 H 0.01555 0.81375 0.47593 0.0
H1730 H 0.11288 0.76999 0.55181 0.0
H1731 H 0.07644 0.79918 0.53279 0.0
H1732 H 0.98341 0.76266 0.53535 0.0
C1733 C 0.92611 0.79148 0.47604 0.0
C1734 C 0.00814 0.80341 0.48911 0.0
C1735 C 0.90761 0.77861 0.46199 0.0
C1736 C 0.09268 0.75879 0.54656 0.0
C1737 C 0.07176 0.77557 0.53586 0.0
C1738 C 0.99057 0.77455 0.52264 0.0
C1739 C 0.95796 0.78952 0.47467 0.0
C1740 C 0.97776 0.79419 0.49147 0.0
C1741 C 0.04449 0.76213 0.52987 0.0
C1742 C 0.02153 0.77914 0.51885 0.0
H1743 H 0.96323 0.75291 0.43236 0.0
H1744 H 0.99511 0.77441 0.45666 0.0
H1745 H 0.94567 0.77471 0.51149 0.0
H1746 H 0.05486 0.69118 0.54753 0.0
H1747 H 0.01904 0.72002 0.5287 0.0
C1748 C 0.21564 0.89262 0.45705 0.0
C1749 C 0.24471 0.88258 0.46231 0.0
C1750 C 0.20161 0.91599 0.46719 0.0
C1751 C 0.20871 0.98367 0.47674 0.0
H1752 H 0.20919 -0.00048 0.53093 0.0
C1753 C 0.27057 0.07802 0.51529 0.0
C1754 C 0.25594 0.09358 0.53004 0.0
C1755 C 0.25512 0.05576 0.50507 0.0
C1756 C 0.20806 0.99545 0.51575 0.0
H1757 H 0.28019 0.88591 0.48346 0.0
H1758 H 0.25517 0.92576 0.50166 0.0
H1759 H 0.20548 0.94723 0.51947 0.0
H1760 H 0.21337 0.09956 0.54504 0.0
H1761 H 0.18672 0.05942 0.52764 0.0
H1762 H 0.21511 0.03154 0.4731 0.0
C1763 C 0.24335 0.91602 0.48962 0.0
C1764 C 0.20599 0.9656 0.50924 0.0
C1765 C 0.25774 0.89328 0.4792 0.0
C1766 C 0.22501 0.08808 0.53355 0.0
C1767 C 0.20979 0.06513 0.52369 0.0
C1768 C 0.21146 0.01343 0.48327 0.0
C1769 C 0.21616 0.92886 0.48299 0.0
C1770 C 0.20775 0.95942 0.48972 0.0
C1771 C 0.22509 0.0482 0.50982 0.0
C1772 C 0.21254 0.01933 0.50282 0.0
H1773 H 0.20528 0.88487 0.44395 0.0
H1774 H 0.1807 0.92567 0.46182 0.0
H1775 H 0.21052 0.97944 0.46161 0.0
H1776 H 0.29444 0.0818 0.51244 0.0
H1777 H 0.26745 0.04269 0.49456 0.0
C1778 C 0.89048 0.22085 0.54067 0.0
C1779 C 0.88069 0.25054 0.53677 0.0
C1780 C 0.91223 0.20709 0.52906 0.0
C1781 C 0.97885 0.21334 0.51626 0.0
H1782 H 0.98727 0.21627 0.46144 0.0
C1783 C 0.06857 0.27457 0.47278 0.0
C1784 C 0.08361 0.25875 0.45831 0.0
C1785 C 0.04671 0.25998 0.48381 0.0
C1786 C 0.98521 0.21445 0.47675 0.0
H1787 H 0.88275 0.28768 0.5167 0.0
H1788 H 0.91972 0.26317 0.49596 0.0
H1789 H 0.93658 0.21345 0.47564 0.0
H1790 H 0.08884 0.21519 0.44441 0.0
H1791 H 0.04924 0.18998 0.46323 0.0
H1792 H 0.02723 0.21828 0.51738 0.0
C1793 C 0.91101 0.25066 0.50805 0.0
C1794 C 0.95631 0.21288 0.48482 0.0
C1795 C 0.88996 0.26474 0.51992 0.0
C1796 C 0.07776 0.22768 0.45571 0.0
C1797 C 0.05516 0.2133 0.46637 0.0
C1798 C 0.00768 0.21562 0.50818 0.0
C1799 C 0.92365 0.22256 0.51317 0.0
C1800 C 0.9529 0.21373 0.50464 0.0
C1801 C 0.03901 0.22964 0.48013 0.0
C1802 C 0.01088 0.21751 0.48841 0.0
H1803 H 0.88384 0.20959 0.55372 0.0
H1804 H 0.92184 0.1855 0.5333 0.0
H1805 H 0.97675 0.21447 0.53159 0.0
H1806 H 0.07261 0.29858 0.4749 0.0
H1807 H 0.03416 0.27304 0.49422 0.0
loop_
_geom_bond_atom_site_label_1
_geom_bond_atom_site_label_2
_geom_bond_distance
_geom_bond_site_symmetry_2
_ccdc_geom_bond_type
O0 Zn1 1.953 . S
O0 C16 1.225 . S
Zn1 O0 1.953 . S
Zn1 O2 1.949 . S
Zn1 O8 1.919 . S
Zn1 O13 1.924 . S
O2 Zn1 1.949 . S
O2 Zn3 1.923 . S
O2 Zn4 1.950 . S
O2 Zn5 1.945 . S
Zn3 O2 1.923 . S
Zn3 O6 1.933 . S
Zn3 O9 1.941 . S
Zn3 O10 1.965 . S
Zn4 O2 1.950 . S
Zn4 O11 1.938 . S
Zn4 O12 1.906 . S
Zn4 O22 1.953 . S
Zn5 O2 1.945 . S
Zn5 O7 1.932 . S
Zn5 O14 1.977 . S
Zn5 O15 1.910 . S
O6 Zn3 1.933 . S
O6 C17 1.226 . S
O7 Zn5 1.932 . S
O7 C17 1.307 . S
O8 Zn1 1.919 . S
O8 C19 1.253 . S
O9 Zn3 1.941 . S
O9 C19 1.283 . S
O10 Zn3 1.965 . S
O10 C18 1.303 . S
O11 Zn4 1.938 . S
O11 C18 1.247 . S
O12 Zn4 1.906 . S
O12 C20 1.304 . S
O13 Zn1 1.924 . S
O13 C21 1.311 . S
O14 Zn5 1.977 . S
O14 C20 1.272 . S
O15 Zn5 1.910 . S
O15 C21 1.231 . S
C16 O0 1.225 . S
C16 O22 1.298 . S
C17 O6 1.226 . S
C17 O7 1.307 . S
C18 O10 1.303 . S
C18 O11 1.247 . S
C19 O8 1.253 . S
C19 O9 1.283 . S
C20 O12 1.304 . S
C20 O14 1.272 . S
C21 O13 1.311 . S
C21 O15 1.231 . S
O22 Zn4 1.953 . S
O22 C16 1.298 . S
O23 Zn24 1.953 . S
O23 C39 1.225 . S
Zn24 O23 1.953 . S
Zn24 O25 1.949 . S
Zn24 O31 1.919 . S
Zn24 O36 1.924 . S
O25 Zn24 1.949 . S
O25 Zn26 1.923 . S
O25 Zn27 1.950 . S
O25 Zn28 1.945 . S
Zn26 O25 1.923 . S
Zn26 O29 1.933 . S
Zn26 O32 1.941 . S
Zn26 O33 1.965 . S
Zn27 O25 1.950 . S
Zn27 O34 1.938 . S
Zn27 O35 1.906 . S
Zn27 O45 1.953 . S
Zn28 O25 1.945 . S
Zn28 O30 1.932 . S
Zn28 O37 1.977 . S
Zn28 O38 1.910 . S
O29 Zn26 1.933 . S
O29 C40 1.226 . S
O30 Zn28 1.932 . S
O30 C40 1.307 . S
O31 Zn24 1.919 . S
O31 C42 1.253 . S
O32 Zn26 1.941 . S
O32 C42 1.283 . S
O33 Zn26 1.965 . S
O33 C41 1.303 . S
O34 Zn27 1.938 . S
O34 C41 1.247 . S
O35 Zn27 1.906 . S
O35 C43 1.304 . S
O36 Zn24 1.924 . S
O36 C44 1.311 . S
O37 Zn28 1.977 . S
O37 C43 1.272 . S
O38 Zn28 1.910 . S
O38 C44 1.231 . S
C39 O23 1.225 . S
C39 O45 1.298 . S
C40 O29 1.226 . S
C40 O30 1.307 . S
C41 O33 1.303 . S
C41 O34 1.247 . S
C42 O31 1.253 . S
C42 O32 1.283 . S
C43 O35 1.304 . S
C43 O37 1.272 . S
C44 O36 1.311 . S
C44 O38 1.231 . S
O45 Zn27 1.953 . S
O45 C39 1.298 . S
O46 Zn47 1.953 . S
O46 C62 1.225 . S
Zn47 O46 1.953 . S
Zn47 O48 1.949 . S
Zn47 O54 1.919 . S
Zn47 O59 1.924 . S
O48 Zn47 1.949 . S
O48 Zn49 1.923 . S
O48 Zn50 1.950 . S
O48 Zn51 1.945 . S
Zn49 O48 1.923 . S
Zn49 O52 1.933 . S
Zn49 O55 1.941 . S
Zn49 O56 1.965 . S
Zn50 O48 1.950 . S
Zn50 O57 1.938 . S
Zn50 O58 1.906 . S
Zn50 O68 1.953 . S
Zn51 O48 1.945 . S
Zn51 O53 1.932 . S
Zn51 O60 1.977 . S
Zn51 O61 1.910 . S
O52 Zn49 1.933 . S
O52 C63 1.226 . S
O53 Zn51 1.932 . S
O53 C63 1.307 . S
O54 Zn47 1.919 . S
O54 C65 1.253 . S
O55 Zn49 1.941 . S
O55 C65 1.283 . S
O56 Zn49 1.965 . S
O56 C64 1.303 . S
O57 Zn50 1.938 . S
O57 C64 1.247 . S
O58 Zn50 1.906 . S
O58 C66 1.304 . S
O59 Zn47 1.924 . S
O59 C67 1.311 . S
O60 Zn51 1.977 . S
O60 C66 1.272 . S
O61 Zn51 1.910 . S
O61 C67 1.231 . S
C62 O46 1.225 . S
C62 O68 1.298 . S
C63 O52 1.226 . S
C63 O53 1.307 . S
C64 O56 1.303 . S
C64 O57 1.247 . S
C65 O54 1.253 . S
C65 O55 1.283 . S
C66 O58 1.304 . S
C66 O60 1.272 . S
C67 O59 1.311 . S
C67 O61 1.231 . S
O68 Zn50 1.953 . S
O68 C62 1.298 . S
O69 Zn70 1.953 . S
O69 C85 1.225 . S
Zn70 O69 1.953 . S
Zn70 O71 1.949 . S
Zn70 O77 1.919 . S
Zn70 O82 1.924 . S
O71 Zn70 1.949 . S
O71 Zn72 1.923 . S
O71 Zn73 1.950 . S
O71 Zn74 1.945 . S
Zn72 O71 1.923 . S
Zn72 O75 1.933 . S
Zn72 O78 1.941 . S
Zn72 O79 1.965 . S
Zn73 O71 1.950 . S
Zn73 O80 1.938 . S
Zn73 O81 1.906 . S
Zn73 O91 1.953 . S
Zn74 O71 1.945 . S
Zn74 O76 1.932 . S
Zn74 O83 1.977 . S
Zn74 O84 1.910 . S
O75 Zn72 1.933 . S
O75 C86 1.226 . S
O76 Zn74 1.932 . S
O76 C86 1.307 . S
O77 Zn70 1.919 . S
O77 C88 1.253 . S
O78 Zn72 1.941 . S
O78 C88 1.283 . S
O79 Zn72 1.965 . S
O79 C87 1.303 . S
O80 Zn73 1.938 . S
O80 C87 1.247 . S
O81 Zn73 1.906 . S
O81 C89 1.304 . S
O82 Zn70 1.924 . S
O82 C90 1.311 . S
O83 Zn74 1.977 . S
O83 C89 1.272 . S
O84 Zn74 1.910 . S
O84 C90 1.231 . S
C85 O69 1.225 . S
C85 O91 1.298 . S
C86 O75 1.226 . S
C86 O76 1.307 . S
C87 O79 1.303 . S
C87 O80 1.247 . S
C88 O77 1.253 . S
C88 O78 1.283 . S
C89 O81 1.304 . S
C89 O83 1.272 . S
C90 O82 1.311 . S
C90 O84 1.231 . S
O91 Zn73 1.953 . S
O91 C85 1.298 . S
O92 Zn93 1.953 . S
O92 C108 1.225 . S
Zn93 O92 1.953 . S
Zn93 O94 1.949 . S
Zn93 O100 1.919 . S
Zn93 O105 1.924 . S
O94 Zn93 1.949 . S
O94 Zn95 1.923 . S
O94 Zn96 1.950 . S
O94 Zn97 1.945 . S
Zn95 O94 1.923 . S
Zn95 O98 1.933 . S
Zn95 O101 1.941 . S
Zn95 O102 1.965 . S
Zn96 O94 1.950 . S
Zn96 O103 1.938 . S
Zn96 O104 1.906 . S
Zn96 O114 1.953 . S
Zn97 O94 1.945 . S
Zn97 O99 1.932 . S
Zn97 O106 1.977 . S
Zn97 O107 1.910 . S
O98 Zn95 1.933 . S
O98 C109 1.226 . S
O99 Zn97 1.932 . S
O99 C109 1.307 . S
O100 Zn93 1.919 . S
O100 C111 1.253 . S
O101 Zn95 1.941 . S
O101 C111 1.283 . S
O102 Zn95 1.965 . S
O102 C110 1.303 . S
O103 Zn96 1.938 . S
O103 C110 1.247 . S
O104 Zn96 1.906 . S
O104 C112 1.304 . S
O105 Zn93 1.924 . S
O105 C113 1.311 . S
O106 Zn97 1.977 . S
O106 C112 1.272 . S
O107 Zn97 1.910 . S
O107 C113 1.231 . S
C108 O92 1.225 . S
C108 O114 1.298 . S
C109 O98 1.226 . S
C109 O99 1.307 . S
C110 O102 1.303 . S
C110 O103 1.247 . S
C111 O100 1.253 . S
C111 O101 1.283 . S
C112 O104 1.304 . S
C112 O106 1.272 . S
C113 O105 1.311 . S
C113 O107 1.231 . S
O114 Zn96 1.953 . S
O114 C108 1.298 . S
O115 Zn116 1.953 . S
O115 C131 1.225 . S
Zn116 O115 1.953 . S
Zn116 O117 1.949 . S
Zn116 O123 1.919 . S
Zn116 O128 1.924 . S
O117 Zn116 1.949 . S
O117 Zn118 1.923 . S
O117 Zn119 1.950 . S
O117 Zn120 1.945 . S
Zn118 O117 1.923 . S
Zn118 O121 1.933 . S
Zn118 O124 1.941 . S
Zn118 O125 1.965 . S
Zn119 O117 1.950 . S
Zn119 O126 1.938 . S
Zn119 O127 1.906 . S
Zn119 O137 1.953 . S
Zn120 O117 1.945 . S
Zn120 O122 1.932 . S
Zn120 O129 1.977 . S
Zn120 O130 1.910 . S
O121 Zn118 1.933 . S
O121 C132 1.226 . S
O122 Zn120 1.932 . S
O122 C132 1.307 . S
O123 Zn116 1.919 . S
O123 C134 1.253 . S
O124 Zn118 1.941 . S
O124 C134 1.283 . S
O125 Zn118 1.965 . S
O125 C133 1.303 . S
O126 Zn119 1.938 . S
O126 C133 1.247 . S
O127 Zn119 1.906 . S
O127 C135 1.304 . S
O128 Zn116 1.924 . S
O128 C136 1.311 . S
O129 Zn120 1.977 . S
O129 C135 1.272 . S
O130 Zn120 1.910 . S
O130 C136 1.231 . S
C131 O115 1.225 . S
C131 O137 1.298 . S
C132 O121 1.226 . S
C132 O122 1.307 . S
C133 O125 1.303 . S
C133 O126 1.247 . S
C134 O123 1.253 . S
C134 O124 1.283 . S
C135 O127 1.304 . S
C135 O129 1.272 . S
C136 O128 1.311 . S
C136 O130 1.231 . S
O137 Zn119 1.953 . S
O137 C131 1.298 . S
O138 Zn139 1.953 . S
O138 C154 1.225 . S
Zn139 O138 1.953 . S
Zn139 O140 1.949 . S
Zn139 O146 1.919 . S
Zn139 O151 1.924 . S
O140 Zn139 1.949 . S
O140 Zn141 1.923 . S
O140 Zn142 1.950 . S
O140 Zn143 1.945 . S
Zn141 O140 1.923 . S
Zn141 O144 1.933 . S
Zn141 O147 1.941 . S
Zn141 O148 1.965 . S
Zn142 O140 1.950 . S
Zn142 O149 1.938 . S
Zn142 O150 1.906 . S
Zn142 O160 1.953 . S
Zn143 O140 1.945 . S
Zn143 O145 1.932 . S
Zn143 O152 1.977 . S
Zn143 O153 1.910 . S
O144 Zn141 1.933 . S
O144 C155 1.226 . S
O145 Zn143 1.932 . S
O145 C155 1.307 . S
O146 Zn139 1.919 . S
O146 C157 1.253 . S
O147 Zn141 1.941 . S
O147 C157 1.283 . S
O148 Zn141 1.965 . S
O148 C156 1.303 . S
O149 Zn142 1.938 . S
O149 C156 1.247 . S
O150 Zn142 1.906 . S
O150 C158 1.304 . S
O151 Zn139 1.924 . S
O151 C159 1.311 . S
O152 Zn143 1.977 . S
O152 C158 1.272 . S
O153 Zn143 1.910 . S
O153 C159 1.231 . S
C154 O138 1.225 . S
C154 O160 1.298 . S
C155 O144 1.226 . S
C155 O145 1.307 . S
C156 O148 1.303 . S
C156 O149 1.247 . S
C157 O146 1.253 . S
C157 O147 1.283 . S
C158 O150 1.304 . S
C158 O152 1.272 . S
C159 O151 1.311 . S
C159 O153 1.231 . S
O160 Zn142 1.953 . S
O160 C154 1.298 . S
O161 Zn162 1.953 . S
O161 C177 1.225 . S
Zn162 O161 1.953 . S
Zn162 O163 1.949 . S
Zn162 O169 1.919 . S
Zn162 O174 1.924 . S
O163 Zn162 1.949 . S
O163 Zn164 1.923 . S
O163 Zn165 1.950 . S
O163 Zn166 1.945 . S
Zn164 O163 1.923 . S
Zn164 O167 1.933 . S
Zn164 O170 1.941 . S
Zn164 O171 1.965 . S
Zn165 O163 1.950 . S
Zn165 O172 1.938 . S
Zn165 O173 1.906 . S
Zn165 O183 1.953 . S
Zn166 O163 1.945 . S
Zn166 O168 1.932 . S
Zn166 O175 1.977 . S
Zn166 O176 1.910 . S
O167 Zn164 1.933 . S
O167 C178 1.226 . S
O168 Zn166 1.932 . S
O168 C178 1.307 . S
O169 Zn162 1.919 . S
O169 C180 1.253 . S
O170 Zn164 1.941 . S
O170 C180 1.283 . S
O171 Zn164 1.965 . S
O171 C179 1.303 . S
O172 Zn165 1.938 . S
O172 C179 1.247 . S
O173 Zn165 1.906 . S
O173 C181 1.304 . S
O174 Zn162 1.924 . S
O174 C182 1.311 . S
O175 Zn166 1.977 . S
O175 C181 1.272 . S
O176 Zn166 1.910 . S
O176 C182 1.231 . S
C177 O161 1.225 . S
C177 O183 1.298 . S
C178 O167 1.226 . S
C178 O168 1.307 . S
C179 O171 1.303 . S
C179 O172 1.247 . S
C180 O169 1.253 . S
C180 O170 1.283 . S
C181 O173 1.304 . S
C181 O175 1.272 . S
C182 O174 1.311 . S
C182 O176 1.231 . S
O183 Zn165 1.953 . S
O183 C177 1.298 . S
O184 Zn185 1.953 . S
O184 C200 1.225 . S
Zn185 O184 1.953 . S
Zn185 O186 1.949 . S
Zn185 O192 1.919 . S
Zn185 O197 1.924 . S
O186 Zn185 1.949 . S
O186 Zn187 1.923 . S
O186 Zn188 1.950 . S
O186 Zn189 1.945 . S
Zn187 O186 1.923 . S
Zn187 O190 1.933 . S
Zn187 O193 1.941 . S
Zn187 O194 1.965 . S
Zn188 O186 1.950 . S
Zn188 O195 1.938 . S
Zn188 O196 1.906 . S
Zn188 O206 1.953 . S
Zn189 O186 1.945 . S
Zn189 O191 1.932 . S
Zn189 O198 1.977 . S
Zn189 O199 1.910 . S
O190 Zn187 1.933 . S
O190 C201 1.226 . S
O191 Zn189 1.932 . S
O191 C201 1.307 . S
O192 Zn185 1.919 . S
O192 C203 1.253 . S
O193 Zn187 1.941 . S
O193 C203 1.283 . S
O194 Zn187 1.965 . S
O194 C202 1.303 . S
O195 Zn188 1.938 . S
O195 C202 1.247 . S
O196 Zn188 1.906 . S
O196 C204 1.304 . S
O197 Zn185 1.924 . S
O197 C205 1.311 . S
O198 Zn189 1.977 . S
O198 C204 1.272 . S
O199 Zn189 1.910 . S
O199 C205 1.231 . S
C200 O184 1.225 . S
C200 O206 1.298 . S
C201 O190 1.226 . S
C201 O191 1.307 . S
C202 O194 1.303 . S
C202 O195 1.247 . S
C203 O192 1.253 . S
C203 O193 1.283 . S
C204 O196 1.304 . S
C204 O198 1.272 . S
C205 O197 1.311 . S
C205 O199 1.231 . S
O206 Zn188 1.953 . S
O206 C200 1.298 . S
O207 Zn208 1.953 . S
O207 C223 1.225 . S
Zn208 O207 1.953 . S
Zn208 O209 1.949 . S
Zn208 O215 1.919 . S
Zn208 O220 1.924 . S
O209 Zn208 1.949 . S
O209 Zn210 1.923 . S
O209 Zn211 1.950 . S
O209 Zn212 1.945 . S
Zn210 O209 1.923 . S
Zn210 O213 1.933 . S
Zn210 O216 1.941 . S
Zn210 O217 1.965 . S
Zn211 O209 1.950 . S
Zn211 O218 1.938 . S
Zn211 O219 1.906 . S
Zn211 O229 1.953 . S
Zn212 O209 1.945 . S
Zn212 O214 1.932 . S
Zn212 O221 1.977 . S
Zn212 O222 1.910 . S
O213 Zn210 1.933 . S
O213 C224 1.226 . S
O214 Zn212 1.932 . S
O214 C224 1.307 . S
O215 Zn208 1.919 . S
O215 C226 1.253 . S
O216 Zn210 1.941 . S
O216 C226 1.283 . S
O217 Zn210 1.965 . S
O217 C225 1.303 . S
O218 Zn211 1.938 . S
O218 C225 1.247 . S
O219 Zn211 1.906 . S
O219 C227 1.304 . S
O220 Zn208 1.924 . S
O220 C228 1.311 . S
O221 Zn212 1.977 . S
O221 C227 1.272 . S
O222 Zn212 1.910 . S
O222 C228 1.231 . S
C223 O207 1.225 . S
C223 O229 1.298 . S
C224 O213 1.226 . S
C224 O214 1.307 . S
C225 O217 1.303 . S
C225 O218 1.247 . S
C226 O215 1.253 . S
C226 O216 1.283 . S
C227 O219 1.304 . S
C227 O221 1.272 . S
C228 O220 1.311 . S
C228 O222 1.231 . S
O229 Zn211 1.953 . S
O229 C223 1.298 . S
O230 Zn231 1.953 . S
O230 C246 1.225 . S
Zn231 O230 1.953 . S
Zn231 O232 1.949 . S
Zn231 O238 1.919 . S
Zn231 O243 1.924 . S
O232 Zn231 1.949 . S
O232 Zn233 1.923 . S
O232 Zn234 1.950 . S
O232 Zn235 1.945 . S
Zn233 O232 1.923 . S
Zn233 O236 1.933 . S
Zn233 O239 1.941 . S
Zn233 O240 1.965 . S
Zn234 O232 1.950 . S
Zn234 O241 1.938 . S
Zn234 O242 1.906 . S
Zn234 O252 1.953 . S
Zn235 O232 1.945 . S
Zn235 O237 1.932 . S
Zn235 O244 1.977 . S
Zn235 O245 1.910 . S
O236 Zn233 1.933 . S
O236 C247 1.226 . S
O237 Zn235 1.932 . S
O237 C247 1.307 . S
O238 Zn231 1.919 . S
O238 C249 1.253 . S
O239 Zn233 1.941 . S
O239 C249 1.283 . S
O240 Zn233 1.965 . S
O240 C248 1.303 . S
O241 Zn234 1.938 . S
O241 C248 1.247 . S
O242 Zn234 1.906 . S
O242 C250 1.304 . S
O243 Zn231 1.924 . S
O243 C251 1.311 . S
O244 Zn235 1.977 . S
O244 C250 1.272 . S
O245 Zn235 1.910 . S
O245 C251 1.231 . S
C246 O230 1.225 . S
C246 O252 1.298 . S
C247 O236 1.226 . S
C247 O237 1.307 . S
C248 O240 1.303 . S
C248 O241 1.247 . S
C249 O238 1.253 . S
C249 O239 1.283 . S
C250 O242 1.304 . S
C250 O244 1.272 . S
C251 O243 1.311 . S
C251 O245 1.231 . S
O252 Zn234 1.953 . S
O252 C246 1.298 . S
O253 Zn254 1.953 . S
O253 C269 1.225 . S
Zn254 O253 1.953 . S
Zn254 O255 1.949 . S
Zn254 O261 1.919 . S
Zn254 O266 1.924 . S
O255 Zn254 1.949 . S
O255 Zn256 1.923 . S
O255 Zn257 1.950 . S
O255 Zn258 1.945 . S
Zn256 O255 1.923 . S
Zn256 O259 1.933 . S
Zn256 O262 1.941 . S
Zn256 O263 1.965 . S
Zn257 O255 1.950 . S
Zn257 O264 1.938 . S
Zn257 O265 1.906 . S
Zn257 O275 1.953 . S
Zn258 O255 1.945 . S
Zn258 O260 1.932 . S
Zn258 O267 1.977 . S
Zn258 O268 1.910 . S
O259 Zn256 1.933 . S
O259 C270 1.226 . S
O260 Zn258 1.932 . S
O260 C270 1.307 . S
O261 Zn254 1.919 . S
O261 C272 1.253 . S
O262 Zn256 1.941 . S
O262 C272 1.283 . S
O263 Zn256 1.965 . S
O263 C271 1.303 . S
O264 Zn257 1.938 . S
O264 C271 1.247 . S
O265 Zn257 1.906 . S
O265 C273 1.304 . S
O266 Zn254 1.924 . S
O266 C274 1.311 . S
O267 Zn258 1.977 . S
O267 C273 1.272 . S
O268 Zn258 1.910 . S
O268 C274 1.231 . S
C269 O253 1.225 . S
C269 O275 1.298 . S
C270 O259 1.226 . S
C270 O260 1.307 . S
C271 O263 1.303 . S
C271 O264 1.247 . S
C272 O261 1.253 . S
C272 O262 1.283 . S
C273 O265 1.304 . S
C273 O267 1.272 . S
C274 O266 1.311 . S
C274 O268 1.231 . S
O275 Zn257 1.953 . S
O275 C269 1.298 . S
O276 Zn277 1.953 . S
O276 C292 1.225 . S
Zn277 O276 1.953 . S
Zn277 O278 1.949 . S
Zn277 O284 1.919 . S
Zn277 O289 1.924 . S
O278 Zn277 1.949 . S
O278 Zn279 1.923 . S
O278 Zn280 1.950 . S
O278 Zn281 1.945 . S
Zn279 O278 1.923 . S
Zn279 O282 1.933 . S
Zn279 O285 1.941 . S
Zn279 O286 1.965 . S
Zn280 O278 1.950 . S
Zn280 O287 1.938 . S
Zn280 O288 1.906 . S
Zn280 O298 1.953 . S
Zn281 O278 1.945 . S
Zn281 O283 1.932 . S
Zn281 O290 1.977 . S
Zn281 O291 1.910 . S
O282 Zn279 1.933 . S
O282 C293 1.226 . S
O283 Zn281 1.932 . S
O283 C293 1.307 . S
O284 Zn277 1.919 . S
O284 C295 1.253 . S
O285 Zn279 1.941 . S
O285 C295 1.283 . S
O286 Zn279 1.965 . S
O286 C294 1.303 . S
O287 Zn280 1.938 . S
O287 C294 1.247 . S
O288 Zn280 1.906 . S
O288 C296 1.304 . S
O289 Zn277 1.924 . S
O289 C297 1.311 . S
O290 Zn281 1.977 . S
O290 C296 1.272 . S
O291 Zn281 1.910 . S
O291 C297 1.231 . S
C292 O276 1.225 . S
C292 O298 1.298 . S
C293 O282 1.226 . S
C293 O283 1.307 . S
C294 O286 1.303 . S
C294 O287 1.247 . S
C295 O284 1.253 . S
C295 O285 1.283 . S
C296 O288 1.304 . S
C296 O290 1.272 . S
C297 O289 1.311 . S
C297 O291 1.231 . S
O298 Zn280 1.953 . S
O298 C292 1.298 . S
O299 Zn300 1.953 . S
O299 C315 1.225 . S
Zn300 O299 1.953 . S
Zn300 O301 1.949 . S
Zn300 O307 1.919 . S
Zn300 O312 1.924 . S
O301 Zn300 1.949 . S
O301 Zn302 1.923 . S
O301 Zn303 1.950 . S
O301 Zn304 1.945 . S
Zn302 O301 1.923 . S
Zn302 O305 1.933 . S
Zn302 O308 1.941 . S
Zn302 O309 1.965 . S
Zn303 O301 1.950 . S
Zn303 O310 1.938 . S
Zn303 O311 1.906 . S
Zn303 O321 1.953 . S
Zn304 O301 1.945 . S
Zn304 O306 1.932 . S
Zn304 O313 1.977 . S
Zn304 O314 1.910 . S
O305 Zn302 1.933 . S
O305 C316 1.226 . S
O306 Zn304 1.932 . S
O306 C316 1.307 . S
O307 Zn300 1.919 . S
O307 C318 1.253 . S
O308 Zn302 1.941 . S
O308 C318 1.283 . S
O309 Zn302 1.965 . S
O309 C317 1.303 . S
O310 Zn303 1.938 . S
O310 C317 1.247 . S
O311 Zn303 1.906 . S
O311 C319 1.304 . S
O312 Zn300 1.924 . S
O312 C320 1.311 . S
O313 Zn304 1.977 . S
O313 C319 1.272 . S
O314 Zn304 1.910 . S
O314 C320 1.231 . S
C315 O299 1.225 . S
C315 O321 1.298 . S
C316 O305 1.226 . S
C316 O306 1.307 . S
C317 O309 1.303 . S
C317 O310 1.247 . S
C318 O307 1.253 . S
C318 O308 1.283 . S
C319 O311 1.304 . S
C319 O313 1.272 . S
C320 O312 1.311 . S
C320 O314 1.231 . S
O321 Zn303 1.953 . S
O321 C315 1.298 . S
O322 Zn323 1.953 . S
O322 C338 1.225 . S
Zn323 O322 1.953 . S
Zn323 O324 1.949 . S
Zn323 O330 1.919 . S
Zn323 O335 1.924 . S
O324 Zn323 1.949 . S
O324 Zn325 1.923 . S
O324 Zn326 1.950 . S
O324 Zn327 1.945 . S
Zn325 O324 1.923 . S
Zn325 O328 1.933 . S
Zn325 O331 1.941 . S
Zn325 O332 1.965 . S
Zn326 O324 1.950 . S
Zn326 O333 1.938 . S
Zn326 O334 1.906 . S
Zn326 O344 1.953 . S
Zn327 O324 1.945 . S
Zn327 O329 1.932 . S
Zn327 O336 1.977 . S
Zn327 O337 1.910 . S
O328 Zn325 1.933 . S
O328 C339 1.226 . S
O329 Zn327 1.932 . S
O329 C339 1.307 . S
O330 Zn323 1.919 . S
O330 C341 1.253 . S
O331 Zn325 1.941 . S
O331 C341 1.283 . S
O332 Zn325 1.965 . S
O332 C340 1.303 . S
O333 Zn326 1.938 . S
O333 C340 1.247 . S
O334 Zn326 1.906 . S
O334 C342 1.304 . S
O335 Zn323 1.924 . S
O335 C343 1.311 . S
O336 Zn327 1.977 . S
O336 C342 1.272 . S
O337 Zn327 1.910 . S
O337 C343 1.231 . S
C338 O322 1.225 . S
C338 O344 1.298 . S
C339 O328 1.226 . S
C339 O329 1.307 . S
C340 O332 1.303 . S
C340 O333 1.247 . S
C341 O330 1.253 . S
C341 O331 1.283 . S
C342 O334 1.304 . S
C342 O336 1.272 . S
C343 O335 1.311 . S
C343 O337 1.231 . S
O344 Zn326 1.953 . S
O344 C338 1.298 . S
O345 Zn346 1.953 . S
O345 C361 1.225 . S
Zn346 O345 1.953 . S
Zn346 O347 1.949 . S
Zn346 O353 1.919 . S
Zn346 O358 1.924 . S
O347 Zn346 1.949 . S
O347 Zn348 1.923 . S
O347 Zn349 1.950 . S
O347 Zn350 1.945 . S
Zn348 O347 1.923 . S
Zn348 O351 1.933 . S
Zn348 O354 1.941 . S
Zn348 O355 1.965 . S
Zn349 O347 1.950 . S
Zn349 O356 1.938 . S
Zn349 O357 1.906 . S
Zn349 O367 1.953 . S
Zn350 O347 1.945 . S
Zn350 O352 1.932 . S
Zn350 O359 1.977 . S
Zn350 O360 1.910 . S
O351 Zn348 1.933 . S
O351 C362 1.226 . S
O352 Zn350 1.932 . S
O352 C362 1.307 . S
O353 Zn346 1.919 . S
O353 C364 1.253 . S
O354 Zn348 1.941 . S
O354 C364 1.283 . S
O355 Zn348 1.965 . S
O355 C363 1.303 . S
O356 Zn349 1.938 . S
O356 C363 1.247 . S
O357 Zn349 1.906 . S
O357 C365 1.304 . S
O358 Zn346 1.924 . S
O358 C366 1.311 . S
O359 Zn350 1.977 . S
O359 C365 1.272 . S
O360 Zn350 1.910 . S
O360 C366 1.231 . S
C361 O345 1.225 . S
C361 O367 1.298 . S
C362 O351 1.226 . S
C362 O352 1.307 . S
C363 O355 1.303 . S
C363 O356 1.247 . S
C364 O353 1.253 . S
C364 O354 1.283 . S
C365 O357 1.304 . S
C365 O359 1.272 . S
C366 O358 1.311 . S
C366 O360 1.231 . S
O367 Zn349 1.953 . S
O367 C361 1.298 . S
C368 C369 1.349 . S
C368 C370 1.327 . S
C368 H393 0.950 . S
C369 C368 1.349 . S
C369 C385 1.349 . S
C370 C368 1.327 . S
C370 C389 1.429 . S
C370 H394 0.950 . S
C371 C388 1.574 . S
C371 C390 1.368 . S
C371 H395 0.949 . S
H372 C376 0.949 . S
C373 C374 1.349 . S
C373 C375 1.327 . S
C373 H396 0.950 . S
C374 C373 1.349 . S
C374 C386 1.349 . S
C375 C373 1.327 . S
C375 C391 1.429 . S
C375 H397 0.950 . S
C376 H372 0.949 . S
C376 C384 1.574 . S
C376 C392 1.368 . S
H377 C385 0.950 . S
H378 C383 0.950 . S
H379 C384 0.949 . S
H380 C386 0.950 . S
H381 C387 0.950 . S
H382 C388 0.949 . S
C383 H378 0.950 . S
C383 C385 1.327 . S
C383 C389 1.429 . S
C384 C376 1.574 . S
C384 H379 0.949 . S
C384 C390 1.368 . S
C385 C369 1.349 . S
C385 H377 0.950 . S
C385 C383 1.327 . S
C386 C374 1.349 . S
C386 H380 0.950 . S
C386 C387 1.327 . S
C387 H381 0.950 . S
C387 C386 1.327 . S
C387 C391 1.429 . S
C388 C371 1.574 . S
C388 H382 0.949 . S
C388 C392 1.368 . S
C389 C370 1.429 . S
C389 C383 1.429 . S
C389 C390 1.523 . S
C390 C371 1.368 . S
C390 C384 1.368 . S
C390 C389 1.523 . S
C391 C375 1.429 . S
C391 C387 1.429 . S
C391 C392 1.523 . S
C392 C376 1.368 . S
C392 C388 1.368 . S
C392 C391 1.523 . S
H393 C368 0.950 . S
H394 C370 0.950 . S
H395 C371 0.949 . S
H396 C373 0.950 . S
H397 C375 0.950 . S
C398 C399 1.349 . S
C398 C400 1.327 . S
C398 H423 0.950 . S
C399 C398 1.349 . S
C399 C415 1.349 . S
C400 C398 1.327 . S
C400 C419 1.429 . S
C400 H424 0.950 . S
C401 C418 1.574 . S
C401 C420 1.368 . S
C401 H425 0.949 . S
H402 C406 0.949 . S
C403 C404 1.349 . S
C403 C405 1.327 . S
C403 H426 0.950 . S
C404 C403 1.349 . S
C404 C416 1.349 . S
C405 C403 1.327 . S
C405 C421 1.429 . S
C405 H427 0.950 . S
C406 H402 0.949 . S
C406 C414 1.574 . S
C406 C422 1.368 . S
H407 C415 0.950 . S
H408 C413 0.950 . S
H409 C414 0.949 . S
H410 C416 0.950 . S
H411 C417 0.950 . S
H412 C418 0.949 . S
C413 H408 0.950 . S
C413 C415 1.327 . S
C413 C419 1.429 . S
C414 C406 1.574 . S
C414 H409 0.949 . S
C414 C420 1.368 . S
C415 C399 1.349 . S
C415 H407 0.950 . S
C415 C413 1.327 . S
C416 C404 1.349 . S
C416 H410 0.950 . S
C416 C417 1.327 . S
C417 H411 0.950 . S
C417 C416 1.327 . S
C417 C421 1.429 . S
C418 C401 1.574 . S
C418 H412 0.949 . S
C418 C422 1.368 . S
C419 C400 1.429 . S
C419 C413 1.429 . S
C419 C420 1.523 . S
C420 C401 1.368 . S
C420 C414 1.368 . S
C420 C419 1.523 . S
C421 C405 1.429 . S
C421 C417 1.429 . S
C421 C422 1.523 . S
C422 C406 1.368 . S
C422 C418 1.368 . S
C422 C421 1.523 . S
H423 C398 0.950 . S
H424 C400 0.950 . S
H425 C401 0.949 . S
H426 C403 0.950 . S
H427 C405 0.950 . S
C428 C429 1.349 . S
C428 C430 1.327 . S
C428 H453 0.950 . S
C429 C428 1.349 . S
C429 C445 1.349 . S
C430 C428 1.327 . S
C430 C449 1.429 . S
C430 H454 0.950 . S
C431 C448 1.574 . S
C431 C450 1.368 . S
C431 H455 0.949 . S
H432 C436 0.949 . S
C433 C434 1.349 . S
C433 C435 1.327 . S
C433 H456 0.950 . S
C434 C433 1.349 . S
C434 C446 1.349 . S
C435 C433 1.327 . S
C435 C451 1.429 . S
C435 H457 0.950 . S
C436 H432 0.949 . S
C436 C444 1.574 . S
C436 C452 1.368 . S
H437 C445 0.950 . S
H438 C443 0.950 . S
H439 C444 0.949 . S
H440 C446 0.950 . S
H441 C447 0.950 . S
H442 C448 0.949 . S
C443 H438 0.950 . S
C443 C445 1.327 . S
C443 C449 1.429 . S
C444 C436 1.574 . S
C444 H439 0.949 . S
C444 C450 1.368 . S
C445 C429 1.349 . S
C445 H437 0.950 . S
C445 C443 1.327 . S
C446 C434 1.349 . S
C446 H440 0.950 . S
C446 C447 1.327 . S
C447 H441 0.950 . S
C447 C446 1.327 . S
C447 C451 1.429 . S
C448 C431 1.574 . S
C448 H442 0.949 . S
C448 C452 1.368 . S
C449 C430 1.429 . S
C449 C443 1.429 . S
C449 C450 1.523 . S
C450 C431 1.368 . S
C450 C444 1.368 . S
C450 C449 1.523 . S
C451 C435 1.429 . S
C451 C447 1.429 . S
C451 C452 1.523 . S
C452 C436 1.368 . S
C452 C448 1.368 . S
C452 C451 1.523 . S
H453 C428 0.950 . S
H454 C430 0.950 . S
H455 C431 0.949 . S
H456 C433 0.950 . S
H457 C435 0.950 . S
C458 C459 1.349 . S
C458 C460 1.327 . S
C458 H483 0.950 . S
C459 C458 1.349 . S
C459 C475 1.349 . S
C460 C458 1.327 . S
C460 C479 1.429 . S
C460 H484 0.950 . S
C461 C478 1.574 . S
C461 C480 1.368 . S
C461 H485 0.949 . S
H462 C466 0.949 . S
C463 C464 1.349 . S
C463 C465 1.327 . S
C463 H486 0.950 . S
C464 C463 1.349 . S
C464 C476 1.349 . S
C465 C463 1.327 . S
C465 C481 1.429 . S
C465 H487 0.950 . S
C466 H462 0.949 . S
C466 C474 1.574 . S
C466 C482 1.368 . S
H467 C475 0.950 . S
H468 C473 0.950 . S
H469 C474 0.949 . S
H470 C476 0.950 . S
H471 C477 0.950 . S
H472 C478 0.949 . S
C473 H468 0.950 . S
C473 C475 1.327 . S
C473 C479 1.429 . S
C474 C466 1.574 . S
C474 H469 0.949 . S
C474 C480 1.368 . S
C475 C459 1.349 . S
C475 H467 0.950 . S
C475 C473 1.327 . S
C476 C464 1.349 . S
C476 H470 0.950 . S
C476 C477 1.327 . S
C477 H471 0.950 . S
C477 C476 1.327 . S
C477 C481 1.429 . S
C478 C461 1.574 . S
C478 H472 0.949 . S
C478 C482 1.368 . S
C479 C460 1.429 . S
C479 C473 1.429 . S
C479 C480 1.523 . S
C480 C461 1.368 . S
C480 C474 1.368 . S
C480 C479 1.523 . S
C481 C465 1.429 . S
C481 C477 1.429 . S
C481 C482 1.523 . S
C482 C466 1.368 . S
C482 C478 1.368 . S
C482 C481 1.523 . S
H483 C458 0.950 . S
H484 C460 0.950 . S
H485 C461 0.949 . S
H486 C463 0.950 . S
H487 C465 0.950 . S
C488 C489 1.349 . S
C488 C490 1.327 . S
C488 H513 0.950 . S
C489 C488 1.349 . S
C489 C505 1.349 . S
C490 C488 1.327 . S
C490 C509 1.429 . S
C490 H514 0.950 . S
C491 C508 1.574 . S
C491 C510 1.368 . S
C491 H515 0.949 . S
H492 C496 0.949 . S
C493 C494 1.349 . S
C493 C495 1.327 . S
C493 H516 0.950 . S
C494 C493 1.349 . S
C494 C506 1.349 . S
C495 C493 1.327 . S
C495 C511 1.429 . S
C495 H517 0.950 . S
C496 H492 0.949 . S
C496 C504 1.574 . S
C496 C512 1.368 . S
H497 C505 0.950 . S
H498 C503 0.950 . S
H499 C504 0.949 . S
H500 C506 0.950 . S
H501 C507 0.950 . S
H502 C508 0.949 . S
C503 H498 0.950 . S
C503 C505 1.327 . S
C503 C509 1.429 . S
C504 C496 1.574 . S
C504 H499 0.949 . S
C504 C510 1.368 . S
C505 C489 1.349 . S
C505 H497 0.950 . S
C505 C503 1.327 . S
C506 C494 1.349 . S
C506 H500 0.950 . S
C506 C507 1.327 . S
C507 H501 0.950 . S
C507 C506 1.327 . S
C507 C511 1.429 . S
C508 C491 1.574 . S
C508 H502 0.949 . S
C508 C512 1.368 . S
C509 C490 1.429 . S
C509 C503 1.429 . S
C509 C510 1.523 . S
C510 C491 1.368 . S
C510 C504 1.368 . S
C510 C509 1.523 . S
C511 C495 1.429 . S
C511 C507 1.429 . S
C511 C512 1.523 . S
C512 C496 1.368 . S
C512 C508 1.368 . S
C512 C511 1.523 . S
H513 C488 0.950 . S
H514 C490 0.950 . S
H515 C491 0.949 . S
H516 C493 0.950 . S
H517 C495 0.950 . S
C518 C519 1.349 . S
C518 C520 1.327 . S
C518 H543 0.950 . S
C519 C518 1.349 . S
C519 C535 1.349 . S
C520 C518 1.327 . S
C520 C539 1.429 . S
C520 H544 0.950 . S
C521 C538 1.574 . S
C521 C540 1.368 . S
C521 H545 0.949 . S
H522 C526 0.949 . S
C523 C524 1.349 . S
C523 C525 1.327 . S
C523 H546 0.950 . S
C524 C523 1.349 . S
C524 C536 1.349 . S
C525 C523 1.327 . S
C525 C541 1.429 . S
C525 H547 0.950 . S
C526 H522 0.949 . S
C526 C534 1.574 . S
C526 C542 1.368 . S
H527 C535 0.950 . S
H528 C533 0.950 . S
H529 C534 0.949 . S
H530 C536 0.950 . S
H531 C537 0.950 . S
H532 C538 0.949 . S
C533 H528 0.950 . S
C533 C535 1.327 . S
C533 C539 1.429 . S
C534 C526 1.574 . S
C534 H529 0.949 . S
C534 C540 1.368 . S
C535 C519 1.349 . S
C535 H527 0.950 . S
C535 C533 1.327 . S
C536 C524 1.349 . S
C536 H530 0.950 . S
C536 C537 1.327 . S
C537 H531 0.950 . S
C537 C536 1.327 . S
C537 C541 1.429 . S
C538 C521 1.574 . S
C538 H532 0.949 . S
C538 C542 1.368 . S
C539 C520 1.429 . S
C539 C533 1.429 . S
C539 C540 1.523 . S
C540 C521 1.368 . S
C540 C534 1.368 . S
C540 C539 1.523 . S
C541 C525 1.429 . S
C541 C537 1.429 . S
C541 C542 1.523 . S
C542 C526 1.368 . S
C542 C538 1.368 . S
C542 C541 1.523 . S
H543 C518 0.950 . S
H544 C520 0.950 . S
H545 C521 0.949 . S
H546 C523 0.950 . S
H547 C525 0.950 . S
C548 C549 1.349 . S
C548 C550 1.327 . S
C548 H573 0.950 . S
C549 C548 1.349 . S
C549 C565 1.349 . S
C550 C548 1.327 . S
C550 C569 1.429 . S
C550 H574 0.950 . S
C551 C568 1.574 . S
C551 C570 1.368 . S
C551 H575 0.949 . S
H552 C556 0.949 . S
C553 C554 1.349 . S
C553 C555 1.327 . S
C553 H576 0.950 . S
C554 C553 1.349 . S
C554 C566 1.349 . S
C555 C553 1.327 . S
C555 C571 1.429 . S
C555 H577 0.950 . S
C556 H552 0.949 . S
C556 C564 1.574 . S
C556 C572 1.368 . S
H557 C565 0.950 . S
H558 C563 0.950 . S
H559 C564 0.949 . S
H560 C566 0.950 . S
H561 C567 0.950 . S
H562 C568 0.949 . S
C563 H558 0.950 . S
C563 C565 1.327 . S
C563 C569 1.429 . S
C564 C556 1.574 . S
C564 H559 0.949 . S
C564 C570 1.368 . S
C565 C549 1.349 . S
C565 H557 0.950 . S
C565 C563 1.327 . S
C566 C554 1.349 . S
C566 H560 0.950 . S
C566 C567 1.327 . S
C567 H561 0.950 . S
C567 C566 1.327 . S
C567 C571 1.429 . S
C568 C551 1.574 . S
C568 H562 0.949 . S
C568 C572 1.368 . S
C569 C550 1.429 . S
C569 C563 1.429 . S
C569 C570 1.523 . S
C570 C551 1.368 . S
C570 C564 1.368 . S
C570 C569 1.523 . S
C571 C555 1.429 . S
C571 C567 1.429 . S
C571 C572 1.523 . S
C572 C556 1.368 . S
C572 C568 1.368 . S
C572 C571 1.523 . S
H573 C548 0.950 . S
H574 C550 0.950 . S
H575 C551 0.949 . S
H576 C553 0.950 . S
H577 C555 0.950 . S
C578 C579 1.349 . S
C578 C580 1.327 . S
C578 H603 0.950 . S
C579 C578 1.349 . S
C579 C595 1.349 . S
C580 C578 1.327 . S
C580 C599 1.429 . S
C580 H604 0.950 . S
C581 C598 1.574 . S
C581 C600 1.368 . S
C581 H605 0.949 . S
H582 C586 0.949 . S
C583 C584 1.349 . S
C583 C585 1.327 . S
C583 H606 0.950 . S
C584 C583 1.349 . S
C584 C596 1.349 . S
C585 C583 1.327 . S
C585 C601 1.429 . S
C585 H607 0.950 . S
C586 H582 0.949 . S
C586 C594 1.574 . S
C586 C602 1.368 . S
H587 C595 0.950 . S
H588 C593 0.950 . S
H589 C594 0.949 . S
H590 C596 0.950 . S
H591 C597 0.950 . S
H592 C598 0.949 . S
C593 H588 0.950 . S
C593 C595 1.327 . S
C593 C599 1.429 . S
C594 C586 1.574 . S
C594 H589 0.949 . S
C594 C600 1.368 . S
C595 C579 1.349 . S
C595 H587 0.950 . S
C595 C593 1.327 . S
C596 C584 1.349 . S
C596 H590 0.950 . S
C596 C597 1.327 . S
C597 H591 0.950 . S
C597 C596 1.327 . S
C597 C601 1.429 . S
C598 C581 1.574 . S
C598 H592 0.949 . S
C598 C602 1.368 . S
C599 C580 1.429 . S
C599 C593 1.429 . S
C599 C600 1.523 . S
C600 C581 1.368 . S
C600 C594 1.368 . S
C600 C599 1.523 . S
C601 C585 1.429 . S
C601 C597 1.429 . S
C601 C602 1.523 . S
C602 C586 1.368 . S
C602 C598 1.368 . S
C602 C601 1.523 . S
H603 C578 0.950 . S
H604 C580 0.950 . S
H605 C581 0.949 . S
H606 C583 0.950 . S
H607 C585 0.950 . S
C608 C609 1.349 . S
C608 C610 1.327 . S
C608 H633 0.950 . S
C609 C608 1.349 . S
C609 C625 1.349 . S
C610 C608 1.327 . S
C610 C629 1.429 . S
C610 H634 0.950 . S
C611 C628 1.574 1_655 S
C611 C630 1.368 . S
C611 H635 0.949 . S
H612 C616 0.949 . S
C613 C614 1.349 . S
C613 C615 1.327 . S
C613 H636 0.950 . S
C614 C613 1.349 . S
C614 C626 1.349 . S
C615 C613 1.327 . S
C615 C631 1.429 . S
C615 H637 0.950 . S
C616 H612 0.949 . S
C616 C624 1.574 1_455 S
C616 C632 1.368 . S
H617 C625 0.950 . S
H618 C623 0.950 . S
H619 C624 0.949 . S
H620 C626 0.950 . S
H621 C627 0.950 . S
H622 C628 0.949 . S
C623 H618 0.950 . S
C623 C625 1.327 . S
C623 C629 1.429 . S
C624 C616 1.574 1_655 S
C624 H619 0.949 . S
C624 C630 1.368 . S
C625 C609 1.349 . S
C625 H617 0.950 . S
C625 C623 1.327 . S
C626 C614 1.349 . S
C626 H620 0.950 . S
C626 C627 1.327 . S
C627 H621 0.950 . S
C627 C626 1.327 . S
C627 C631 1.429 . S
C628 C611 1.574 1_455 S
C628 H622 0.949 . S
C628 C632 1.368 . S
C629 C610 1.429 . S
C629 C623 1.429 . S
C629 C630 1.523 . S
C630 C611 1.368 . S
C630 C624 1.368 . S
C630 C629 1.523 . S
C631 C615 1.429 . S
C631 C627 1.429 . S
C631 C632 1.523 . S
C632 C616 1.368 . S
C632 C628 1.368 . S
C632 C631 1.523 . S
H633 C608 0.950 . S
H634 C610 0.950 . S
H635 C611 0.949 . S
H636 C613 0.950 . S
H637 C615 0.950 . S
C638 C639 1.349 . S
C638 C640 1.327 . S
C638 H663 0.950 . S
C639 C638 1.349 . S
C639 C655 1.349 . S
C640 C638 1.327 . S
C640 C659 1.429 . S
C640 H664 0.950 . S
C641 C658 1.574 1_565 S
C641 C660 1.368 . S
C641 H665 0.949 . S
H642 C646 0.949 . S
C643 C644 1.349 . S
C643 C645 1.327 . S
C643 H666 0.950 . S
C644 C643 1.349 . S
C644 C656 1.349 . S
C645 C643 1.327 . S
C645 C661 1.429 . S
C645 H667 0.950 . S
C646 H642 0.949 . S
C646 C654 1.574 1_545 S
C646 C662 1.368 . S
H647 C655 0.950 . S
H648 C653 0.950 . S
H649 C654 0.949 . S
H650 C656 0.950 . S
H651 C657 0.950 . S
H652 C658 0.949 . S
C653 H648 0.950 . S
C653 C655 1.327 . S
C653 C659 1.429 . S
C654 C646 1.574 1_565 S
C654 H649 0.949 . S
C654 C660 1.368 . S
C655 C639 1.349 . S
C655 H647 0.950 . S
C655 C653 1.327 . S
C656 C644 1.349 . S
C656 H650 0.950 . S
C656 C657 1.327 . S
C657 H651 0.950 . S
C657 C656 1.327 . S
C657 C661 1.429 . S
C658 C641 1.574 1_545 S
C658 H652 0.949 . S
C658 C662 1.368 . S
C659 C640 1.429 . S
C659 C653 1.429 . S
C659 C660 1.523 . S
C660 C641 1.368 . S
C660 C654 1.368 . S
C660 C659 1.523 . S
C661 C645 1.429 . S
C661 C657 1.429 . S
C661 C662 1.523 . S
C662 C646 1.368 . S
C662 C658 1.368 . S
C662 C661 1.523 . S
H663 C638 0.950 . S
H664 C640 0.950 . S
H665 C641 0.949 . S
H666 C643 0.950 . S
H667 C645 0.950 . S
C668 C669 1.349 . S
C668 C670 1.327 . S
C668 H693 0.950 . S
C669 C668 1.349 . S
C669 C685 1.349 . S
C670 C668 1.327 . S
C670 C689 1.429 . S
C670 H694 0.950 . S
C671 C688 1.574 1_655 S
C671 C690 1.368 . S
C671 H695 0.949 . S
H672 C676 0.949 . S
C673 C674 1.349 . S
C673 C675 1.327 . S
C673 H696 0.950 . S
C674 C673 1.349 . S
C674 C686 1.349 . S
C675 C673 1.327 . S
C675 C691 1.429 . S
C675 H697 0.950 . S
C676 H672 0.949 . S
C676 C684 1.574 1_455 S
C676 C692 1.368 . S
H677 C685 0.950 . S
H678 C683 0.950 . S
H679 C684 0.949 . S
H680 C686 0.950 . S
H681 C687 0.950 . S
H682 C688 0.949 . S
C683 H678 0.950 . S
C683 C685 1.327 . S
C683 C689 1.429 . S
C684 C676 1.574 1_655 S
C684 H679 0.949 . S
C684 C690 1.368 . S
C685 C669 1.349 . S
C685 H677 0.950 . S
C685 C683 1.327 . S
C686 C674 1.349 . S
C686 H680 0.950 . S
C686 C687 1.327 . S
C687 H681 0.950 . S
C687 C686 1.327 . S
C687 C691 1.429 . S
C688 C671 1.574 1_455 S
C688 H682 0.949 . S
C688 C692 1.368 . S
C689 C670 1.429 . S
C689 C683 1.429 . S
C689 C690 1.523 . S
C690 C671 1.368 . S
C690 C684 1.368 . S
C690 C689 1.523 . S
C691 C675 1.429 . S
C691 C687 1.429 . S
C691 C692 1.523 . S
C692 C676 1.368 . S
C692 C688 1.368 . S
C692 C691 1.523 . S
H693 C668 0.950 . S
H694 C670 0.950 . S
H695 C671 0.949 . S
H696 C673 0.950 . S
H697 C675 0.950 . S
C698 C699 1.349 . S
C698 C700 1.327 . S
C698 H723 0.950 . S
C699 C698 1.349 . S
C699 C715 1.349 . S
C700 C698 1.327 . S
C700 C719 1.429 . S
C700 H724 0.950 . S
C701 C718 1.574 1_565 S
C701 C720 1.368 . S
C701 H725 0.949 . S
H702 C706 0.949 . S
C703 C704 1.349 . S
C703 C705 1.327 . S
C703 H726 0.950 . S
C704 C703 1.349 . S
C704 C716 1.349 . S
C705 C703 1.327 . S
C705 C721 1.429 . S
C705 H727 0.950 . S
C706 H702 0.949 . S
C706 C714 1.574 1_545 S
C706 C722 1.368 . S
H707 C715 0.950 . S
H708 C713 0.950 . S
H709 C714 0.949 . S
H710 C716 0.950 . S
H711 C717 0.950 . S
H712 C718 0.949 . S
C713 H708 0.950 . S
C713 C715 1.327 . S
C713 C719 1.429 . S
C714 C706 1.574 1_565 S
C714 H709 0.949 . S
C714 C720 1.368 . S
C715 C699 1.349 . S
C715 H707 0.950 . S
C715 C713 1.327 . S
C716 C704 1.349 . S
C716 H710 0.950 . S
C716 C717 1.327 . S
C717 H711 0.950 . S
C717 C716 1.327 . S
C717 C721 1.429 . S
C718 C701 1.574 1_545 S
C718 H712 0.949 . S
C718 C722 1.368 . S
C719 C700 1.429 . S
C719 C713 1.429 . S
C719 C720 1.523 . S
C720 C701 1.368 . S
C720 C714 1.368 . S
C720 C719 1.523 . S
C721 C705 1.429 . S
C721 C717 1.429 . S
C721 C722 1.523 . S
C722 C706 1.368 . S
C722 C718 1.368 . S
C722 C721 1.523 . S
H723 C698 0.950 . S
H724 C700 0.950 . S
H725 C701 0.949 . S
H726 C703 0.950 . S
H727 C705 0.950 . S
C728 C729 1.349 . S
C728 C730 1.327 . S
C728 H753 0.950 . S
C729 C728 1.349 . S
C729 C745 1.349 . S
C730 C728 1.327 . S
C730 C749 1.429 . S
C730 H754 0.950 . S
C731 C748 1.574 . S
C731 C750 1.368 1_545 S
C731 H755 0.949 . S
H732 C736 0.949 . S
C733 C734 1.349 . S
C733 C735 1.327 . S
C733 H756 0.950 . S
C734 C733 1.349 . S
C734 C746 1.349 . S
C735 C733 1.327 . S
C735 C751 1.429 . S
C735 H757 0.950 . S
C736 H732 0.949 . S
C736 C744 1.574 . S
C736 C752 1.368 1_565 S
H737 C745 0.950 . S
H738 C743 0.950 . S
H739 C744 0.949 . S
H740 C746 0.950 . S
H741 C747 0.950 . S
H742 C748 0.949 . S
C743 H738 0.950 . S
C743 C745 1.327 . S
C743 C749 1.429 . S
C744 C736 1.574 . S
C744 H739 0.949 . S
C744 C750 1.368 . S
C745 C729 1.349 . S
C745 H737 0.950 . S
C745 C743 1.327 . S
C746 C734 1.349 . S
C746 H740 0.950 . S
C746 C747 1.327 . S
C747 H741 0.950 . S
C747 C746 1.327 . S
C747 C751 1.429 . S
C748 C731 1.574 . S
C748 H742 0.949 . S
C748 C752 1.368 . S
C749 C730 1.429 . S
C749 C743 1.429 . S
C749 C750 1.523 . S
C750 C731 1.368 1_565 S
C750 C744 1.368 . S
C750 C749 1.523 . S
C751 C735 1.429 . S
C751 C747 1.429 . S
C751 C752 1.523 . S
C752 C736 1.368 1_545 S
C752 C748 1.368 . S
C752 C751 1.523 . S
H753 C728 0.950 . S
H754 C730 0.950 . S
H755 C731 0.949 . S
H756 C733 0.950 . S
H757 C735 0.950 . S
C758 C759 1.349 . S
C758 C760 1.327 . S
C758 H783 0.950 . S
C759 C758 1.349 . S
C759 C775 1.349 . S
C760 C758 1.327 . S
C760 C779 1.429 . S
C760 H784 0.950 . S
C761 C778 1.574 . S
C761 C780 1.368 . S
C761 H785 0.949 . S
H762 C766 0.949 . S
C763 C764 1.349 . S
C763 C765 1.327 . S
C763 H786 0.950 . S
C764 C763 1.349 . S
C764 C776 1.349 . S
C765 C763 1.327 . S
C765 C781 1.429 . S
C765 H787 0.950 . S
C766 H762 0.949 . S
C766 C774 1.574 . S
C766 C782 1.368 . S
H767 C775 0.950 . S
H768 C773 0.950 . S
H769 C774 0.949 . S
H770 C776 0.950 . S
H771 C777 0.950 . S
H772 C778 0.949 . S
C773 H768 0.950 . S
C773 C775 1.327 . S
C773 C779 1.429 . S
C774 C766 1.574 . S
C774 H769 0.949 . S
C774 C780 1.368 1_655 S
C775 C759 1.349 . S
C775 H767 0.950 . S
C775 C773 1.327 . S
C776 C764 1.349 . S
C776 H770 0.950 . S
C776 C777 1.327 . S
C777 H771 0.950 . S
C777 C776 1.327 . S
C777 C781 1.429 . S
C778 C761 1.574 . S
C778 H772 0.949 . S
C778 C782 1.368 1_455 S
C779 C760 1.429 . S
C779 C773 1.429 . S
C779 C780 1.523 . S
C780 C761 1.368 . S
C780 C774 1.368 1_455 S
C780 C779 1.523 . S
C781 C765 1.429 . S
C781 C777 1.429 . S
C781 C782 1.523 . S
C782 C766 1.368 . S
C782 C778 1.368 1_655 S
C782 C781 1.523 . S
H783 C758 0.950 . S
H784 C760 0.950 . S
H785 C761 0.949 . S
H786 C763 0.950 . S
H787 C765 0.950 . S
C788 C789 1.349 . S
C788 C790 1.327 . S
C788 H813 0.950 . S
C789 C788 1.349 . S
C789 C805 1.349 . S
C790 C788 1.327 . S
C790 C809 1.429 . S
C790 H814 0.950 . S
C791 C808 1.574 . S
C791 C810 1.368 . S
C791 H815 0.949 . S
H792 C796 0.949 . S
C793 C794 1.349 . S
C793 C795 1.327 . S
C793 H816 0.950 . S
C794 C793 1.349 . S
C794 C806 1.349 . S
C795 C793 1.327 . S
C795 C811 1.429 . S
C795 H817 0.950 . S
C796 H792 0.949 . S
C796 C804 1.574 . S
C796 C812 1.368 . S
H797 C805 0.950 . S
H798 C803 0.950 . S
H799 C804 0.949 . S
H800 C806 0.950 . S
H801 C807 0.950 . S
H802 C808 0.949 . S
C803 H798 0.950 . S
C803 C805 1.327 . S
C803 C809 1.429 . S
C804 C796 1.574 . S
C804 H799 0.949 . S
C804 C810 1.368 1_545 S
C805 C789 1.349 . S
C805 H797 0.950 . S
C805 C803 1.327 . S
C806 C794 1.349 . S
C806 H800 0.950 . S
C806 C807 1.327 . S
C807 H801 0.950 . S
C807 C806 1.327 . S
C807 C811 1.429 . S
C808 C791 1.574 . S
C808 H802 0.949 . S
C808 C812 1.368 1_565 S
C809 C790 1.429 . S
C809 C803 1.429 . S
C809 C810 1.523 . S
C810 C791 1.368 . S
C810 C804 1.368 1_565 S
C810 C809 1.523 . S
C811 C795 1.429 . S
C811 C807 1.429 . S
C811 C812 1.523 . S
C812 C796 1.368 . S
C812 C808 1.368 1_545 S
C812 C811 1.523 . S
H813 C788 0.950 . S
H814 C790 0.950 . S
H815 C791 0.949 . S
H816 C793 0.950 . S
H817 C795 0.950 . S
C818 C819 1.349 . S
C818 C820 1.327 . S
C818 H843 0.950 . S
C819 C818 1.349 . S
C819 C835 1.349 . S
C820 C818 1.327 . S
C820 C839 1.429 . S
C820 H844 0.950 . S
C821 C838 1.574 . S
C821 C840 1.368 1_655 S
C821 H845 0.949 . S
H822 C826 0.949 . S
C823 C824 1.349 . S
C823 C825 1.327 . S
C823 H846 0.950 . S
C824 C823 1.349 . S
C824 C836 1.349 . S
C825 C823 1.327 . S
C825 C841 1.429 . S
C825 H847 0.950 . S
C826 H822 0.949 . S
C826 C834 1.574 . S
C826 C842 1.368 1_455 S
H827 C835 0.950 . S
H828 C833 0.950 . S
H829 C834 0.949 . S
H830 C836 0.950 . S
H831 C837 0.950 . S
H832 C838 0.949 . S
C833 H828 0.950 . S
C833 C835 1.327 . S
C833 C839 1.429 . S
C834 C826 1.574 . S
C834 H829 0.949 . S
C834 C840 1.368 . S
C835 C819 1.349 . S
C835 H827 0.950 . S
C835 C833 1.327 . S
C836 C824 1.349 . S
C836 H830 0.950 . S
C836 C837 1.327 . S
C837 H831 0.950 . S
C837 C836 1.327 . S
C837 C841 1.429 . S
C838 C821 1.574 . S
C838 H832 0.949 . S
C838 C842 1.368 . S
C839 C820 1.429 . S
C839 C833 1.429 . S
C839 C840 1.523 . S
C840 C821 1.368 1_455 S
C840 C834 1.368 . S
C840 C839 1.523 . S
C841 C825 1.429 . S
C841 C837 1.429 . S
C841 C842 1.523 . S
C842 C826 1.368 1_655 S
C842 C838 1.368 . S
C842 C841 1.523 . S
H843 C818 0.950 . S
H844 C820 0.950 . S
H845 C821 0.949 . S
H846 C823 0.950 . S
H847 C825 0.950 . S
C848 C849 1.349 . S
C848 C850 1.327 . S
C848 H873 0.950 . S
C849 C848 1.349 . S
C849 C865 1.349 . S
C850 C848 1.327 . S
C850 C869 1.429 . S
C850 H874 0.950 . S
C851 C868 1.574 . S
C851 C870 1.368 . S
C851 H875 0.949 . S
H852 C856 0.949 . S
C853 C854 1.349 . S
C853 C855 1.327 . S
C853 H876 0.950 . S
C854 C853 1.349 . S
C854 C866 1.349 . S
C855 C853 1.327 . S
C855 C871 1.429 . S
C855 H877 0.950 . S
C856 H852 0.949 . S
C856 C864 1.574 . S
C856 C872 1.368 . S
H857 C865 0.950 . S
H858 C863 0.950 . S
H859 C864 0.949 . S
H860 C866 0.950 . S
H861 C867 0.950 . S
H862 C868 0.949 . S
C863 H858 0.950 . S
C863 C865 1.327 . S
C863 C869 1.429 . S
C864 C856 1.574 . S
C864 H859 0.949 . S
C864 C870 1.368 . S
C865 C849 1.349 . S
C865 H857 0.950 . S
C865 C863 1.327 . S
C866 C854 1.349 . S
C866 H860 0.950 . S
C866 C867 1.327 . S
C867 H861 0.950 . S
C867 C866 1.327 . S
C867 C871 1.429 . S
C868 C851 1.574 . S
C868 H862 0.949 . S
C868 C872 1.368 . S
C869 C850 1.429 . S
C869 C863 1.429 . S
C869 C870 1.523 . S
C870 C851 1.368 . S
C870 C864 1.368 . S
C870 C869 1.523 . S
C871 C855 1.429 . S
C871 C867 1.429 . S
C871 C872 1.523 . S
C872 C856 1.368 . S
C872 C868 1.368 . S
C872 C871 1.523 . S
H873 C848 0.950 . S
H874 C850 0.950 . S
H875 C851 0.949 . S
H876 C853 0.950 . S
H877 C855 0.950 . S
C878 C879 1.349 . S
C878 C880 1.327 . S
C878 H903 0.950 . S
C879 C878 1.349 . S
C879 C895 1.349 . S
C880 C878 1.327 . S
C880 C899 1.429 . S
C880 H904 0.950 . S
C881 C898 1.574 . S
C881 C900 1.368 . S
C881 H905 0.949 . S
H882 C886 0.949 . S
C883 C884 1.349 . S
C883 C885 1.327 . S
C883 H906 0.950 . S
C884 C883 1.349 . S
C884 C896 1.349 . S
C885 C883 1.327 . S
C885 C901 1.429 . S
C885 H907 0.950 . S
C886 H882 0.949 . S
C886 C894 1.574 . S
C886 C902 1.368 . S
H887 C895 0.950 . S
H888 C893 0.950 . S
H889 C894 0.949 . S
H890 C896 0.950 . S
H891 C897 0.950 . S
H892 C898 0.949 . S
C893 H888 0.950 . S
C893 C895 1.327 . S
C893 C899 1.429 . S
C894 C886 1.574 . S
C894 H889 0.949 . S
C894 C900 1.368 . S
C895 C879 1.349 . S
C895 H887 0.950 . S
C895 C893 1.327 . S
C896 C884 1.349 . S
C896 H890 0.950 . S
C896 C897 1.327 . S
C897 H891 0.950 . S
C897 C896 1.327 . S
C897 C901 1.429 . S
C898 C881 1.574 . S
C898 H892 0.949 . S
C898 C902 1.368 . S
C899 C880 1.429 . S
C899 C893 1.429 . S
C899 C900 1.523 . S
C900 C881 1.368 . S
C900 C894 1.368 . S
C900 C899 1.523 . S
C901 C885 1.429 . S
C901 C897 1.429 . S
C901 C902 1.523 . S
C902 C886 1.368 . S
C902 C898 1.368 . S
C902 C901 1.523 . S
H903 C878 0.950 . S
H904 C880 0.950 . S
H905 C881 0.949 . S
H906 C883 0.950 . S
H907 C885 0.950 . S
C908 C909 1.349 . S
C908 C910 1.327 . S
C908 H933 0.950 . S
C909 C908 1.349 . S
C909 C925 1.349 . S
C910 C908 1.327 . S
C910 C929 1.429 . S
C910 H934 0.950 . S
C911 C928 1.574 . S
C911 C930 1.368 . S
C911 H935 0.949 . S
H912 C916 0.949 . S
C913 C914 1.349 . S
C913 C915 1.327 . S
C913 H936 0.950 . S
C914 C913 1.349 . S
C914 C926 1.349 . S
C915 C913 1.327 . S
C915 C931 1.429 . S
C915 H937 0.950 . S
C916 H912 0.949 . S
C916 C924 1.574 . S
C916 C932 1.368 . S
H917 C925 0.950 . S
H918 C923 0.950 . S
H919 C924 0.949 . S
H920 C926 0.950 . S
H921 C927 0.950 . S
H922 C928 0.949 . S
C923 H918 0.950 . S
C923 C925 1.327 . S
C923 C929 1.429 . S
C924 C916 1.574 . S
C924 H919 0.949 . S
C924 C930 1.368 . S
C925 C909 1.349 . S
C925 H917 0.950 . S
C925 C923 1.327 . S
C926 C914 1.349 . S
C926 H920 0.950 . S
C926 C927 1.327 . S
C927 H921 0.950 . S
C927 C926 1.327 . S
C927 C931 1.429 . S
C928 C911 1.574 . S
C928 H922 0.949 . S
C928 C932 1.368 . S
C929 C910 1.429 . S
C929 C923 1.429 . S
C929 C930 1.523 . S
C930 C911 1.368 . S
C930 C924 1.368 . S
C930 C929 1.523 . S
C931 C915 1.429 . S
C931 C927 1.429 . S
C931 C932 1.523 . S
C932 C916 1.368 . S
C932 C928 1.368 . S
C932 C931 1.523 . S
H933 C908 0.950 . S
H934 C910 0.950 . S
H935 C911 0.949 . S
H936 C913 0.950 . S
H937 C915 0.950 . S
C938 C939 1.349 . S
C938 C940 1.327 . S
C938 H963 0.950 . S
C939 C938 1.349 . S
C939 C955 1.349 . S
C940 C938 1.327 . S
C940 C959 1.429 . S
C940 H964 0.950 . S
C941 C958 1.574 . S
C941 C960 1.368 . S
C941 H965 0.949 . S
H942 C946 0.949 . S
C943 C944 1.349 . S
C943 C945 1.327 . S
C943 H966 0.950 . S
C944 C943 1.349 . S
C944 C956 1.349 . S
C945 C943 1.327 . S
C945 C961 1.429 . S
C945 H967 0.950 . S
C946 H942 0.949 . S
C946 C954 1.574 . S
C946 C962 1.368 . S
H947 C955 0.950 . S
H948 C953 0.950 . S
H949 C954 0.949 . S
H950 C956 0.950 . S
H951 C957 0.950 . S
H952 C958 0.949 . S
C953 H948 0.950 . S
C953 C955 1.327 . S
C953 C959 1.429 . S
C954 C946 1.574 . S
C954 H949 0.949 . S
C954 C960 1.368 . S
C955 C939 1.349 . S
C955 H947 0.950 . S
C955 C953 1.327 . S
C956 C944 1.349 . S
C956 H950 0.950 . S
C956 C957 1.327 . S
C957 H951 0.950 . S
C957 C956 1.327 . S
C957 C961 1.429 . S
C958 C941 1.574 . S
C958 H952 0.949 . S
C958 C962 1.368 . S
C959 C940 1.429 . S
C959 C953 1.429 . S
C959 C960 1.523 . S
C960 C941 1.368 . S
C960 C954 1.368 . S
C960 C959 1.523 . S
C961 C945 1.429 . S
C961 C957 1.429 . S
C961 C962 1.523 . S
C962 C946 1.368 . S
C962 C958 1.368 . S
C962 C961 1.523 . S
H963 C938 0.950 . S
H964 C940 0.950 . S
H965 C941 0.949 . S
H966 C943 0.950 . S
H967 C945 0.950 . S
C968 C969 1.349 . S
C968 C970 1.327 . S
C968 H993 0.950 . S
C969 C968 1.349 . S
C969 C985 1.349 . S
C970 C968 1.327 . S
C970 C989 1.429 . S
C970 H994 0.950 . S
C971 C988 1.574 . S
C971 C990 1.368 . S
C971 H995 0.949 . S
H972 C976 0.949 . S
C973 C974 1.349 . S
C973 C975 1.327 . S
C973 H996 0.950 . S
C974 C973 1.349 . S
C974 C986 1.349 . S
C975 C973 1.327 . S
C975 C991 1.429 . S
C975 H997 0.950 . S
C976 H972 0.949 . S
C976 C984 1.574 . S
C976 C992 1.368 . S
H977 C985 0.950 . S
H978 C983 0.950 . S
H979 C984 0.949 . S
H980 C986 0.950 . S
H981 C987 0.950 . S
H982 C988 0.949 . S
C983 H978 0.950 . S
C983 C985 1.327 . S
C983 C989 1.429 . S
C984 C976 1.574 . S
C984 H979 0.949 . S
C984 C990 1.368 . S
C985 C969 1.349 . S
C985 H977 0.950 . S
C985 C983 1.327 . S
C986 C974 1.349 . S
C986 H980 0.950 . S
C986 C987 1.327 . S
C987 H981 0.950 . S
C987 C986 1.327 . S
C987 C991 1.429 . S
C988 C971 1.574 . S
C988 H982 0.949 . S
C988 C992 1.368 . S
C989 C970 1.429 . S
C989 C983 1.429 . S
C989 C990 1.523 . S
C990 C971 1.368 . S
C990 C984 1.368 . S
C990 C989 1.523 . S
C991 C975 1.429 . S
C991 C987 1.429 . S
C991 C992 1.523 . S
C992 C976 1.368 . S
C992 C988 1.368 . S
C992 C991 1.523 . S
H993 C968 0.950 . S
H994 C970 0.950 . S
H995 C971 0.949 . S
H996 C973 0.950 . S
H997 C975 0.950 . S
C998 C999 1.349 . S
C998 C1000 1.327 . S
C998 H1023 0.950 . S
C999 C998 1.349 . S
C999 C1015 1.349 . S
C1000 C998 1.327 . S
C1000 C1019 1.429 . S
C1000 H1024 0.950 . S
C1001 C1018 1.574 . S
C1001 C1020 1.368 . S
C1001 H1025 0.949 . S
H1002 C1006 0.949 . S
C1003 C1004 1.349 . S
C1003 C1005 1.327 . S
C1003 H1026 0.950 . S
C1004 C1003 1.349 . S
C1004 C1016 1.349 . S
C1005 C1003 1.327 . S
C1005 C1021 1.429 . S
C1005 H1027 0.950 . S
C1006 H1002 0.949 . S
C1006 C1014 1.574 . S
C1006 C1022 1.368 . S
H1007 C1015 0.950 . S
H1008 C1013 0.950 . S
H1009 C1014 0.949 . S
H1010 C1016 0.950 . S
H1011 C1017 0.950 . S
H1012 C1018 0.949 . S
C1013 H1008 0.950 . S
C1013 C1015 1.327 . S
C1013 C1019 1.429 . S
C1014 C1006 1.574 . S
C1014 H1009 0.949 . S
C1014 C1020 1.368 . S
C1015 C999 1.349 . S
C1015 H1007 0.950 . S
C1015 C1013 1.327 . S
C1016 C1004 1.349 . S
C1016 H1010 0.950 . S
C1016 C1017 1.327 . S
C1017 H1011 0.950 . S
C1017 C1016 1.327 . S
C1017 C1021 1.429 . S
C1018 C1001 1.574 . S
C1018 H1012 0.949 . S
C1018 C1022 1.368 . S
C1019 C1000 1.429 . S
C1019 C1013 1.429 . S
C1019 C1020 1.523 . S
C1020 C1001 1.368 . S
C1020 C1014 1.368 . S
C1020 C1019 1.523 . S
C1021 C1005 1.429 . S
C1021 C1017 1.429 . S
C1021 C1022 1.523 . S
C1022 C1006 1.368 . S
C1022 C1018 1.368 . S
C1022 C1021 1.523 . S
H1023 C998 0.950 . S
H1024 C1000 0.950 . S
H1025 C1001 0.949 . S
H1026 C1003 0.950 . S
H1027 C1005 0.950 . S
C1028 C1029 1.349 . S
C1028 C1030 1.327 . S
C1028 H1053 0.950 . S
C1029 C1028 1.349 . S
C1029 C1045 1.349 . S
C1030 C1028 1.327 . S
C1030 C1049 1.429 . S
C1030 H1054 0.950 . S
C1031 C1048 1.574 . S
C1031 C1050 1.368 . S
C1031 H1055 0.949 . S
H1032 C1036 0.949 . S
C1033 C1034 1.349 . S
C1033 C1035 1.327 . S
C1033 H1056 0.950 . S
C1034 C1033 1.349 . S
C1034 C1046 1.349 . S
C1035 C1033 1.327 . S
C1035 C1051 1.429 . S
C1035 H1057 0.950 . S
C1036 H1032 0.949 . S
C1036 C1044 1.574 . S
C1036 C1052 1.368 . S
H1037 C1045 0.950 . S
H1038 C1043 0.950 . S
H1039 C1044 0.949 . S
H1040 C1046 0.950 . S
H1041 C1047 0.950 . S
H1042 C1048 0.949 . S
C1043 H1038 0.950 . S
C1043 C1045 1.327 . S
C1043 C1049 1.429 . S
C1044 C1036 1.574 . S
C1044 H1039 0.949 . S
C1044 C1050 1.368 . S
C1045 C1029 1.349 . S
C1045 H1037 0.950 . S
C1045 C1043 1.327 . S
C1046 C1034 1.349 . S
C1046 H1040 0.950 . S
C1046 C1047 1.327 . S
C1047 H1041 0.950 . S
C1047 C1046 1.327 . S
C1047 C1051 1.429 . S
C1048 C1031 1.574 . S
C1048 H1042 0.949 . S
C1048 C1052 1.368 . S
C1049 C1030 1.429 . S
C1049 C1043 1.429 . S
C1049 C1050 1.523 . S
C1050 C1031 1.368 . S
C1050 C1044 1.368 . S
C1050 C1049 1.523 . S
C1051 C1035 1.429 . S
C1051 C1047 1.429 . S
C1051 C1052 1.523 . S
C1052 C1036 1.368 . S
C1052 C1048 1.368 . S
C1052 C1051 1.523 . S
H1053 C1028 0.950 . S
H1054 C1030 0.950 . S
H1055 C1031 0.949 . S
H1056 C1033 0.950 . S
H1057 C1035 0.950 . S
C1058 C1059 1.349 . S
C1058 C1060 1.327 . S
C1058 H1083 0.950 . S
C1059 C1058 1.349 . S
C1059 C1075 1.349 . S
C1060 C1058 1.327 . S
C1060 C1079 1.429 . S
C1060 H1084 0.950 . S
C1061 C1078 1.574 . S
C1061 C1080 1.368 . S
C1061 H1085 0.949 . S
H1062 C1066 0.949 . S
C1063 C1064 1.349 . S
C1063 C1065 1.327 . S
C1063 H1086 0.950 . S
C1064 C1063 1.349 . S
C1064 C1076 1.349 . S
C1065 C1063 1.327 . S
C1065 C1081 1.429 . S
C1065 H1087 0.950 . S
C1066 H1062 0.949 . S
C1066 C1074 1.574 . S
C1066 C1082 1.368 . S
H1067 C1075 0.950 . S
H1068 C1073 0.950 . S
H1069 C1074 0.949 . S
H1070 C1076 0.950 . S
H1071 C1077 0.950 . S
H1072 C1078 0.949 . S
C1073 H1068 0.950 . S
C1073 C1075 1.327 . S
C1073 C1079 1.429 . S
C1074 C1066 1.574 . S
C1074 H1069 0.949 . S
C1074 C1080 1.368 . S
C1075 C1059 1.349 . S
C1075 H1067 0.950 . S
C1075 C1073 1.327 . S
C1076 C1064 1.349 . S
C1076 H1070 0.950 . S
C1076 C1077 1.327 . S
C1077 H1071 0.950 . S
C1077 C1076 1.327 . S
C1077 C1081 1.429 . S
C1078 C1061 1.574 . S
C1078 H1072 0.949 . S
C1078 C1082 1.368 . S
C1079 C1060 1.429 . S
C1079 C1073 1.429 . S
C1079 C1080 1.523 . S
C1080 C1061 1.368 . S
C1080 C1074 1.368 . S
C1080 C1079 1.523 . S
C1081 C1065 1.429 . S
C1081 C1077 1.429 . S
C1081 C1082 1.523 . S
C1082 C1066 1.368 . S
C1082 C1078 1.368 . S
C1082 C1081 1.523 . S
H1083 C1058 0.950 . S
H1084 C1060 0.950 . S
H1085 C1061 0.949 . S
H1086 C1063 0.950 . S
H1087 C1065 0.950 . S
C1088 C1089 1.349 . S
C1088 C1090 1.327 . S
C1088 H1113 0.950 . S
C1089 C1088 1.349 . S
C1089 C1105 1.349 . S
C1090 C1088 1.327 . S
C1090 C1109 1.429 . S
C1090 H1114 0.950 . S
C1091 C1108 1.574 . S
C1091 C1110 1.368 . S
C1091 H1115 0.949 . S
H1092 C1096 0.949 . S
C1093 C1094 1.349 . S
C1093 C1095 1.327 1_455 S
C1093 H1116 0.950 . S
C1094 C1093 1.349 . S
C1094 C1106 1.349 . S
C1095 C1093 1.327 1_655 S
C1095 C1111 1.429 . S
C1095 H1117 0.950 . S
C1096 H1092 0.949 . S
C1096 C1104 1.574 . S
C1096 C1112 1.368 . S
H1097 C1105 0.950 . S
H1098 C1103 0.950 . S
H1099 C1104 0.949 . S
H1100 C1106 0.950 . S
H1101 C1107 0.950 . S
H1102 C1108 0.949 . S
C1103 H1098 0.950 . S
C1103 C1105 1.327 . S
C1103 C1109 1.429 . S
C1104 C1096 1.574 . S
C1104 H1099 0.949 . S
C1104 C1110 1.368 . S
C1105 C1089 1.349 . S
C1105 H1097 0.950 . S
C1105 C1103 1.327 . S
C1106 C1094 1.349 . S
C1106 H1100 0.950 . S
C1106 C1107 1.327 1_455 S
C1107 H1101 0.950 . S
C1107 C1106 1.327 1_655 S
C1107 C1111 1.429 . S
C1108 C1091 1.574 . S
C1108 H1102 0.949 . S
C1108 C1112 1.368 . S
C1109 C1090 1.429 . S
C1109 C1103 1.429 . S
C1109 C1110 1.523 . S
C1110 C1091 1.368 . S
C1110 C1104 1.368 . S
C1110 C1109 1.523 . S
C1111 C1095 1.429 . S
C1111 C1107 1.429 . S
C1111 C1112 1.523 . S
C1112 C1096 1.368 . S
C1112 C1108 1.368 . S
C1112 C1111 1.523 . S
H1113 C1088 0.950 . S
H1114 C1090 0.950 . S
H1115 C1091 0.949 . S
H1116 C1093 0.950 . S
H1117 C1095 0.950 . S
C1118 C1119 1.349 . S
C1118 C1120 1.327 1_545 S
C1118 H1143 0.950 . S
C1119 C1118 1.349 . S
C1119 C1135 1.349 . S
C1120 C1118 1.327 1_565 S
C1120 C1139 1.429 . S
C1120 H1144 0.950 . S
C1121 C1138 1.574 . S
C1121 C1140 1.368 . S
C1121 H1145 0.949 . S
H1122 C1126 0.949 . S
C1123 C1124 1.349 . S
C1123 C1125 1.327 . S
C1123 H1146 0.950 . S
C1124 C1123 1.349 . S
C1124 C1136 1.349 . S
C1125 C1123 1.327 . S
C1125 C1141 1.429 . S
C1125 H1147 0.950 . S
C1126 H1122 0.949 . S
C1126 C1134 1.574 . S
C1126 C1142 1.368 . S
H1127 C1135 0.950 . S
H1128 C1133 0.950 . S
H1129 C1134 0.949 . S
H1130 C1136 0.950 . S
H1131 C1137 0.950 . S
H1132 C1138 0.949 . S
C1133 H1128 0.950 . S
C1133 C1135 1.327 1_565 S
C1133 C1139 1.429 . S
C1134 C1126 1.574 . S
C1134 H1129 0.949 . S
C1134 C1140 1.368 . S
C1135 C1119 1.349 . S
C1135 H1127 0.950 . S
C1135 C1133 1.327 1_545 S
C1136 C1124 1.349 . S
C1136 H1130 0.950 . S
C1136 C1137 1.327 . S
C1137 H1131 0.950 . S
C1137 C1136 1.327 . S
C1137 C1141 1.429 . S
C1138 C1121 1.574 . S
C1138 H1132 0.949 . S
C1138 C1142 1.368 . S
C1139 C1120 1.429 . S
C1139 C1133 1.429 . S
C1139 C1140 1.523 . S
C1140 C1121 1.368 . S
C1140 C1134 1.368 . S
C1140 C1139 1.523 . S
C1141 C1125 1.429 . S
C1141 C1137 1.429 . S
C1141 C1142 1.523 . S
C1142 C1126 1.368 . S
C1142 C1138 1.368 . S
C1142 C1141 1.523 . S
H1143 C1118 0.950 . S
H1144 C1120 0.950 . S
H1145 C1121 0.949 . S
H1146 C1123 0.950 . S
H1147 C1125 0.950 . S
C1148 C1149 1.349 . S
C1148 C1150 1.327 1_655 S
C1148 H1173 0.950 . S
C1149 C1148 1.349 . S
C1149 C1165 1.349 . S
C1150 C1148 1.327 1_455 S
C1150 C1169 1.429 . S
C1150 H1174 0.950 . S
C1151 C1168 1.574 . S
C1151 C1170 1.368 . S
C1151 H1175 0.949 . S
H1152 C1156 0.949 . S
C1153 C1154 1.349 . S
C1153 C1155 1.327 . S
C1153 H1176 0.950 . S
C1154 C1153 1.349 . S
C1154 C1166 1.349 . S
C1155 C1153 1.327 . S
C1155 C1171 1.429 . S
C1155 H1177 0.950 . S
C1156 H1152 0.949 . S
C1156 C1164 1.574 . S
C1156 C1172 1.368 . S
H1157 C1165 0.950 . S
H1158 C1163 0.950 . S
H1159 C1164 0.949 . S
H1160 C1166 0.950 . S
H1161 C1167 0.950 . S
H1162 C1168 0.949 . S
C1163 H1158 0.950 . S
C1163 C1165 1.327 1_455 S
C1163 C1169 1.429 . S
C1164 C1156 1.574 . S
C1164 H1159 0.949 . S
C1164 C1170 1.368 . S
C1165 C1149 1.349 . S
C1165 H1157 0.950 . S
C1165 C1163 1.327 1_655 S
C1166 C1154 1.349 . S
C1166 H1160 0.950 . S
C1166 C1167 1.327 . S
C1167 H1161 0.950 . S
C1167 C1166 1.327 . S
C1167 C1171 1.429 . S
C1168 C1151 1.574 . S
C1168 H1162 0.949 . S
C1168 C1172 1.368 . S
C1169 C1150 1.429 . S
C1169 C1163 1.429 . S
C1169 C1170 1.523 . S
C1170 C1151 1.368 . S
C1170 C1164 1.368 . S
C1170 C1169 1.523 . S
C1171 C1155 1.429 . S
C1171 C1167 1.429 . S
C1171 C1172 1.523 . S
C1172 C1156 1.368 . S
C1172 C1168 1.368 . S
C1172 C1171 1.523 . S
H1173 C1148 0.950 . S
H1174 C1150 0.950 . S
H1175 C1151 0.949 . S
H1176 C1153 0.950 . S
H1177 C1155 0.950 . S
C1178 C1179 1.349 . S
C1178 C1180 1.327 . S
C1178 H1203 0.950 . S
C1179 C1178 1.349 . S
C1179 C1195 1.349 . S
C1180 C1178 1.327 . S
C1180 C1199 1.429 . S
C1180 H1204 0.950 . S
C1181 C1198 1.574 . S
C1181 C1200 1.368 . S
C1181 H1205 0.949 . S
H1182 C1186 0.949 . S
C1183 C1184 1.349 1_545 S
C1183 C1185 1.327 . S
C1183 H1206 0.950 . S
C1184 C1183 1.349 1_565 S
C1184 C1196 1.349 . S
C1185 C1183 1.327 . S
C1185 C1201 1.429 . S
C1185 H1207 0.950 . S
C1186 H1182 0.949 . S
C1186 C1194 1.574 . S
C1186 C1202 1.368 . S
H1187 C1195 0.950 . S
H1188 C1193 0.950 . S
H1189 C1194 0.949 . S
H1190 C1196 0.950 . S
H1191 C1197 0.950 . S
H1192 C1198 0.949 . S
C1193 H1188 0.950 . S
C1193 C1195 1.327 . S
C1193 C1199 1.429 . S
C1194 C1186 1.574 . S
C1194 H1189 0.949 . S
C1194 C1200 1.368 . S
C1195 C1179 1.349 . S
C1195 H1187 0.950 . S
C1195 C1193 1.327 . S
C1196 C1184 1.349 . S
C1196 H1190 0.950 . S
C1196 C1197 1.327 1_565 S
C1197 H1191 0.950 . S
C1197 C1196 1.327 1_545 S
C1197 C1201 1.429 . S
C1198 C1181 1.574 . S
C1198 H1192 0.949 . S
C1198 C1202 1.368 . S
C1199 C1180 1.429 . S
C1199 C1193 1.429 . S
C1199 C1200 1.523 . S
C1200 C1181 1.368 . S
C1200 C1194 1.368 . S
C1200 C1199 1.523 . S
C1201 C1185 1.429 . S
C1201 C1197 1.429 . S
C1201 C1202 1.523 . S
C1202 C1186 1.368 . S
C1202 C1198 1.368 . S
C1202 C1201 1.523 . S
H1203 C1178 0.950 . S
H1204 C1180 0.950 . S
H1205 C1181 0.949 . S
H1206 C1183 0.950 . S
H1207 C1185 0.950 . S
C1208 C1209 1.349 . S
C1208 C1210 1.327 . S
C1208 H1233 0.950 . S
C1209 C1208 1.349 . S
C1209 C1225 1.349 . S
C1210 C1208 1.327 . S
C1210 C1229 1.429 . S
C1210 H1234 0.950 . S
C1211 C1228 1.574 . S
C1211 C1230 1.368 . S
C1211 H1235 0.949 . S
H1212 C1216 0.949 . S
C1213 C1214 1.349 . S
C1213 C1215 1.327 1_455 S
C1213 H1236 0.950 . S
C1214 C1213 1.349 . S
C1214 C1226 1.349 . S
C1215 C1213 1.327 1_655 S
C1215 C1231 1.429 . S
C1215 H1237 0.950 . S
C1216 H1212 0.949 . S
C1216 C1224 1.574 . S
C1216 C1232 1.368 . S
H1217 C1225 0.950 . S
H1218 C1223 0.950 . S
H1219 C1224 0.949 . S
H1220 C1226 0.950 . S
H1221 C1227 0.950 . S
H1222 C1228 0.949 . S
C1223 H1218 0.950 . S
C1223 C1225 1.327 . S
C1223 C1229 1.429 . S
C1224 C1216 1.574 . S
C1224 H1219 0.949 . S
C1224 C1230 1.368 . S
C1225 C1209 1.349 . S
C1225 H1217 0.950 . S
C1225 C1223 1.327 . S
C1226 C1214 1.349 . S
C1226 H1220 0.950 . S
C1226 C1227 1.327 1_455 S
C1227 H1221 0.950 . S
C1227 C1226 1.327 1_655 S
C1227 C1231 1.429 . S
C1228 C1211 1.574 . S
C1228 H1222 0.949 . S
C1228 C1232 1.368 . S
C1229 C1210 1.429 . S
C1229 C1223 1.429 . S
C1229 C1230 1.523 . S
C1230 C1211 1.368 . S
C1230 C1224 1.368 . S
C1230 C1229 1.523 . S
C1231 C1215 1.429 . S
C1231 C1227 1.429 . S
C1231 C1232 1.523 . S
C1232 C1216 1.368 . S
C1232 C1228 1.368 . S
C1232 C1231 1.523 . S
H1233 C1208 0.950 . S
H1234 C1210 0.950 . S
H1235 C1211 0.949 . S
H1236 C1213 0.950 . S
H1237 C1215 0.950 . S
C1238 C1239 1.349 . S
C1238 C1240 1.327 1_545 S
C1238 H1263 0.950 . S
C1239 C1238 1.349 . S
C1239 C1255 1.349 . S
C1240 C1238 1.327 1_565 S
C1240 C1259 1.429 . S
C1240 H1264 0.950 . S
C1241 C1258 1.574 . S
C1241 C1260 1.368 . S
C1241 H1265 0.949 . S
H1242 C1246 0.949 . S
C1243 C1244 1.349 . S
C1243 C1245 1.327 . S
C1243 H1266 0.950 . S
C1244 C1243 1.349 . S
C1244 C1256 1.349 . S
C1245 C1243 1.327 . S
C1245 C1261 1.429 . S
C1245 H1267 0.950 . S
C1246 H1242 0.949 . S
C1246 C1254 1.574 . S
C1246 C1262 1.368 . S
H1247 C1255 0.950 . S
H1248 C1253 0.950 . S
H1249 C1254 0.949 . S
H1250 C1256 0.950 . S
H1251 C1257 0.950 . S
H1252 C1258 0.949 . S
C1253 H1248 0.950 . S
C1253 C1255 1.327 1_565 S
C1253 C1259 1.429 . S
C1254 C1246 1.574 . S
C1254 H1249 0.949 . S
C1254 C1260 1.368 . S
C1255 C1239 1.349 . S
C1255 H1247 0.950 . S
C1255 C1253 1.327 1_545 S
C1256 C1244 1.349 . S
C1256 H1250 0.950 . S
C1256 C1257 1.327 . S
C1257 H1251 0.950 . S
C1257 C1256 1.327 . S
C1257 C1261 1.429 . S
C1258 C1241 1.574 . S
C1258 H1252 0.949 . S
C1258 C1262 1.368 . S
C1259 C1240 1.429 . S
C1259 C1253 1.429 . S
C1259 C1260 1.523 . S
C1260 C1241 1.368 . S
C1260 C1254 1.368 . S
C1260 C1259 1.523 . S
C1261 C1245 1.429 . S
C1261 C1257 1.429 . S
C1261 C1262 1.523 . S
C1262 C1246 1.368 . S
C1262 C1258 1.368 . S
C1262 C1261 1.523 . S
H1263 C1238 0.950 . S
H1264 C1240 0.950 . S
H1265 C1241 0.949 . S
H1266 C1243 0.950 . S
H1267 C1245 0.950 . S
C1268 C1269 1.349 . S
C1268 C1270 1.327 . S
C1268 H1293 0.950 . S
C1269 C1268 1.349 . S
C1269 C1285 1.349 . S
C1270 C1268 1.327 . S
C1270 C1289 1.429 . S
C1270 H1294 0.950 . S
C1271 C1288 1.574 . S
C1271 C1290 1.368 . S
C1271 H1295 0.949 . S
H1272 C1276 0.949 . S
C1273 C1274 1.349 . S
C1273 C1275 1.327 1_655 S
C1273 H1296 0.950 . S
C1274 C1273 1.349 . S
C1274 C1286 1.349 . S
C1275 C1273 1.327 1_455 S
C1275 C1291 1.429 . S
C1275 H1297 0.950 . S
C1276 H1272 0.949 . S
C1276 C1284 1.574 . S
C1276 C1292 1.368 . S
H1277 C1285 0.950 . S
H1278 C1283 0.950 . S
H1279 C1284 0.949 . S
H1280 C1286 0.950 . S
H1281 C1287 0.950 . S
H1282 C1288 0.949 . S
C1283 H1278 0.950 . S
C1283 C1285 1.327 . S
C1283 C1289 1.429 . S
C1284 C1276 1.574 . S
C1284 H1279 0.949 . S
C1284 C1290 1.368 . S
C1285 C1269 1.349 . S
C1285 H1277 0.950 . S
C1285 C1283 1.327 . S
C1286 C1274 1.349 . S
C1286 H1280 0.950 . S
C1286 C1287 1.327 1_655 S
C1287 H1281 0.950 . S
C1287 C1286 1.327 1_455 S
C1287 C1291 1.429 . S
C1288 C1271 1.574 . S
C1288 H1282 0.949 . S
C1288 C1292 1.368 . S
C1289 C1270 1.429 . S
C1289 C1283 1.429 . S
C1289 C1290 1.523 . S
C1290 C1271 1.368 . S
C1290 C1284 1.368 . S
C1290 C1289 1.523 . S
C1291 C1275 1.429 . S
C1291 C1287 1.429 . S
C1291 C1292 1.523 . S
C1292 C1276 1.368 . S
C1292 C1288 1.368 . S
C1292 C1291 1.523 . S
H1293 C1268 0.950 . S
H1294 C1270 0.950 . S
H1295 C1271 0.949 . S
H1296 C1273 0.950 . S
H1297 C1275 0.950 . S
C1298 C1299 1.349 . S
C1298 C1300 1.327 1_565 S
C1298 H1323 0.950 . S
C1299 C1298 1.349 . S
C1299 C1315 1.349 . S
C1300 C1298 1.327 1_545 S
C1300 C1319 1.429 . S
C1300 H1324 0.950 . S
C1301 C1318 1.574 . S
C1301 C1320 1.368 . S
C1301 H1325 0.949 . S
H1302 C1306 0.949 . S
C1303 C1304 1.349 . S
C1303 C1305 1.327 . S
C1303 H1326 0.950 . S
C1304 C1303 1.349 . S
C1304 C1316 1.349 . S
C1305 C1303 1.327 . S
C1305 C1321 1.429 . S
C1305 H1327 0.950 . S
C1306 H1302 0.949 . S
C1306 C1314 1.574 . S
C1306 C1322 1.368 . S
H1307 C1315 0.950 . S
H1308 C1313 0.950 . S
H1309 C1314 0.949 . S
H1310 C1316 0.950 . S
H1311 C1317 0.950 . S
H1312 C1318 0.949 . S
C1313 H1308 0.950 . S
C1313 C1315 1.327 1_545 S
C1313 C1319 1.429 . S
C1314 C1306 1.574 . S
C1314 H1309 0.949 . S
C1314 C1320 1.368 . S
C1315 C1299 1.349 . S
C1315 H1307 0.950 . S
C1315 C1313 1.327 1_565 S
C1316 C1304 1.349 . S
C1316 H1310 0.950 . S
C1316 C1317 1.327 . S
C1317 H1311 0.950 . S
C1317 C1316 1.327 . S
C1317 C1321 1.429 . S
C1318 C1301 1.574 . S
C1318 H1312 0.949 . S
C1318 C1322 1.368 . S
C1319 C1300 1.429 . S
C1319 C1313 1.429 . S
C1319 C1320 1.523 . S
C1320 C1301 1.368 . S
C1320 C1314 1.368 . S
C1320 C1319 1.523 . S
C1321 C1305 1.429 . S
C1321 C1317 1.429 . S
C1321 C1322 1.523 . S
C1322 C1306 1.368 . S
C1322 C1318 1.368 . S
C1322 C1321 1.523 . S
H1323 C1298 0.950 . S
H1324 C1300 0.950 . S
H1325 C1301 0.949 . S
H1326 C1303 0.950 . S
H1327 C1305 0.950 . S
C1328 C1329 1.349 . S
C1328 C1330 1.327 . S
C1328 H1353 0.950 . S
C1329 C1328 1.349 . S
C1329 C1345 1.349 . S
C1330 C1328 1.327 . S
C1330 C1349 1.429 . S
C1330 H1354 0.950 . S
C1331 C1348 1.574 1_554 S
C1331 C1350 1.368 . S
C1331 H1355 0.949 . S
H1332 C1336 0.949 . S
C1333 C1334 1.349 . S
C1333 C1335 1.327 . S
C1333 H1356 0.950 . S
C1334 C1333 1.349 . S
C1334 C1346 1.349 . S
C1335 C1333 1.327 . S
C1335 C1351 1.429 . S
C1335 H1357 0.950 . S
C1336 H1332 0.949 . S
C1336 C1344 1.574 1_556 S
C1336 C1352 1.368 . S
H1337 C1345 0.950 . S
H1338 C1343 0.950 . S
H1339 C1344 0.949 . S
H1340 C1346 0.950 . S
H1341 C1347 0.950 . S
H1342 C1348 0.949 . S
C1343 H1338 0.950 . S
C1343 C1345 1.327 . S
C1343 C1349 1.429 . S
C1344 C1336 1.574 1_554 S
C1344 H1339 0.949 . S
C1344 C1350 1.368 . S
C1345 C1329 1.349 . S
C1345 H1337 0.950 . S
C1345 C1343 1.327 . S
C1346 C1334 1.349 . S
C1346 H1340 0.950 . S
C1346 C1347 1.327 . S
C1347 H1341 0.950 . S
C1347 C1346 1.327 . S
C1347 C1351 1.429 . S
C1348 C1331 1.574 1_556 S
C1348 H1342 0.949 . S
C1348 C1352 1.368 . S
C1349 C1330 1.429 . S
C1349 C1343 1.429 . S
C1349 C1350 1.523 . S
C1350 C1331 1.368 . S
C1350 C1344 1.368 . S
C1350 C1349 1.523 . S
C1351 C1335 1.429 . S
C1351 C1347 1.429 . S
C1351 C1352 1.523 . S
C1352 C1336 1.368 . S
C1352 C1348 1.368 . S
C1352 C1351 1.523 . S
H1353 C1328 0.950 . S
H1354 C1330 0.950 . S
H1355 C1331 0.949 . S
H1356 C1333 0.950 . S
H1357 C1335 0.950 . S
C1358 C1359 1.349 . S
C1358 C1360 1.327 . S
C1358 H1383 0.950 . S
C1359 C1358 1.349 . S
C1359 C1375 1.349 . S
C1360 C1358 1.327 . S
C1360 C1379 1.429 . S
C1360 H1384 0.950 . S
C1361 C1378 1.574 1_556 S
C1361 C1380 1.368 . S
C1361 H1385 0.949 . S
H1362 C1366 0.949 . S
C1363 C1364 1.349 . S
C1363 C1365 1.327 . S
C1363 H1386 0.950 . S
C1364 C1363 1.349 . S
C1364 C1376 1.349 . S
C1365 C1363 1.327 . S
C1365 C1381 1.429 . S
C1365 H1387 0.950 . S
C1366 H1362 0.949 . S
C1366 C1374 1.574 1_554 S
C1366 C1382 1.368 . S
H1367 C1375 0.950 . S
H1368 C1373 0.950 . S
H1369 C1374 0.949 . S
H1370 C1376 0.950 . S
H1371 C1377 0.950 . S
H1372 C1378 0.949 . S
C1373 H1368 0.950 . S
C1373 C1375 1.327 . S
C1373 C1379 1.429 . S
C1374 C1366 1.574 1_556 S
C1374 H1369 0.949 . S
C1374 C1380 1.368 . S
C1375 C1359 1.349 . S
C1375 H1367 0.950 . S
C1375 C1373 1.327 . S
C1376 C1364 1.349 . S
C1376 H1370 0.950 . S
C1376 C1377 1.327 . S
C1377 H1371 0.950 . S
C1377 C1376 1.327 . S
C1377 C1381 1.429 . S
C1378 C1361 1.574 1_554 S
C1378 H1372 0.949 . S
C1378 C1382 1.368 . S
C1379 C1360 1.429 . S
C1379 C1373 1.429 . S
C1379 C1380 1.523 . S
C1380 C1361 1.368 . S
C1380 C1374 1.368 . S
C1380 C1379 1.523 . S
C1381 C1365 1.429 . S
C1381 C1377 1.429 . S
C1381 C1382 1.523 . S
C1382 C1366 1.368 . S
C1382 C1378 1.368 . S
C1382 C1381 1.523 . S
H1383 C1358 0.950 . S
H1384 C1360 0.950 . S
H1385 C1361 0.949 . S
H1386 C1363 0.950 . S
H1387 C1365 0.950 . S
C1388 C1389 1.349 . S
C1388 C1390 1.327 . S
C1388 H1413 0.950 . S
C1389 C1388 1.349 . S
C1389 C1405 1.349 . S
C1390 C1388 1.327 . S
C1390 C1409 1.429 . S
C1390 H1414 0.950 . S
C1391 C1408 1.588 . S
C1391 C1410 1.354 1_554 S
C1391 H1415 0.949 . S
H1392 C1396 0.949 . S
C1393 C1394 1.349 . S
C1393 C1395 1.327 . S
C1393 H1416 0.950 . S
C1394 C1393 1.349 . S
C1394 C1406 1.349 . S
C1395 C1393 1.327 . S
C1395 C1411 1.429 . S
C1395 H1417 0.950 . S
C1396 H1392 0.949 . S
C1396 C1404 1.588 . S
C1396 C1412 1.354 1_556 S
H1397 C1405 0.950 . S
H1398 C1403 0.950 . S
H1399 C1404 0.949 . S
H1400 C1406 0.950 . S
H1401 C1407 0.950 . S
H1402 C1408 0.949 . S
C1403 H1398 0.950 . S
C1403 C1405 1.327 . S
C1403 C1409 1.429 . S
C1404 C1396 1.588 . S
C1404 H1399 0.949 . S
C1404 C1410 1.368 . S
C1405 C1389 1.349 . S
C1405 H1397 0.950 . S
C1405 C1403 1.327 . S
C1406 C1394 1.349 . S
C1406 H1400 0.950 . S
C1406 C1407 1.327 . S
C1407 H1401 0.950 . S
C1407 C1406 1.327 . S
C1407 C1411 1.429 . S
C1408 C1391 1.588 . S
C1408 H1402 0.949 . S
C1408 C1412 1.368 . S
C1409 C1390 1.429 . S
C1409 C1403 1.429 . S
C1409 C1410 1.523 . S
C1410 C1391 1.354 1_556 S
C1410 C1404 1.368 . S
C1410 C1409 1.523 . S
C1411 C1395 1.429 . S
C1411 C1407 1.429 . S
C1411 C1412 1.523 . S
C1412 C1396 1.354 1_554 S
C1412 C1408 1.368 . S
C1412 C1411 1.523 . S
H1413 C1388 0.950 . S
H1414 C1390 0.950 . S
H1415 C1391 0.949 . S
H1416 C1393 0.950 . S
H1417 C1395 0.950 . S
C1418 C1419 1.349 . S
C1418 C1420 1.327 . S
C1418 H1443 0.950 . S
C1419 C1418 1.349 . S
C1419 C1435 1.349 . S
C1420 C1418 1.327 . S
C1420 C1439 1.429 . S
C1420 H1444 0.950 . S
C1421 C1438 1.574 1_556 S
C1421 C1440 1.368 . S
C1421 H1445 0.949 . S
H1422 C1426 0.949 . S
C1423 C1424 1.349 . S
C1423 C1425 1.327 . S
C1423 H1446 0.950 . S
C1424 C1423 1.349 . S
C1424 C1436 1.349 . S
C1425 C1423 1.327 . S
C1425 C1441 1.429 . S
C1425 H1447 0.950 . S
C1426 H1422 0.949 . S
C1426 C1434 1.574 1_554 S
C1426 C1442 1.368 . S
H1427 C1435 0.950 . S
H1428 C1433 0.950 . S
H1429 C1434 0.949 . S
H1430 C1436 0.950 . S
H1431 C1437 0.950 . S
H1432 C1438 0.949 . S
C1433 H1428 0.950 . S
C1433 C1435 1.327 . S
C1433 C1439 1.429 . S
C1434 C1426 1.574 1_556 S
C1434 H1429 0.949 . S
C1434 C1440 1.368 . S
C1435 C1419 1.349 . S
C1435 H1427 0.950 . S
C1435 C1433 1.327 . S
C1436 C1424 1.349 . S
C1436 H1430 0.950 . S
C1436 C1437 1.327 . S
C1437 H1431 0.950 . S
C1437 C1436 1.327 . S
C1437 C1441 1.429 . S
C1438 C1421 1.574 1_554 S
C1438 H1432 0.949 . S
C1438 C1442 1.368 . S
C1439 C1420 1.429 . S
C1439 C1433 1.429 . S
C1439 C1440 1.523 . S
C1440 C1421 1.368 . S
C1440 C1434 1.368 . S
C1440 C1439 1.523 . S
C1441 C1425 1.429 . S
C1441 C1437 1.429 . S
C1441 C1442 1.523 . S
C1442 C1426 1.368 . S
C1442 C1438 1.368 . S
C1442 C1441 1.523 . S
H1443 C1418 0.950 . S
H1444 C1420 0.950 . S
H1445 C1421 0.949 . S
H1446 C1423 0.950 . S
H1447 C1425 0.950 . S
C1448 C1449 1.349 . S
C1448 C1450 1.327 . S
C1448 H1473 0.950 . S
C1449 C1448 1.349 . S
C1449 C1465 1.349 . S
C1450 C1448 1.327 . S
C1450 C1469 1.429 . S
C1450 H1474 0.950 . S
C1451 C1468 1.574 . S
C1451 C1470 1.368 . S
C1451 H1475 0.949 . S
H1452 C1456 0.949 . S
C1453 C1454 1.349 . S
C1453 C1455 1.327 . S
C1453 H1476 0.950 . S
C1454 C1453 1.349 . S
C1454 C1466 1.349 . S
C1455 C1453 1.327 . S
C1455 C1471 1.429 . S
C1455 H1477 0.950 . S
C1456 H1452 0.949 . S
C1456 C1464 1.574 . S
C1456 C1472 1.368 . S
H1457 C1465 0.950 . S
H1458 C1463 0.950 . S
H1459 C1464 0.949 . S
H1460 C1466 0.950 . S
H1461 C1467 0.950 . S
H1462 C1468 0.949 . S
C1463 H1458 0.950 . S
C1463 C1465 1.327 . S
C1463 C1469 1.429 . S
C1464 C1456 1.574 . S
C1464 H1459 0.949 . S
C1464 C1470 1.368 . S
C1465 C1449 1.349 . S
C1465 H1457 0.950 . S
C1465 C1463 1.327 . S
C1466 C1454 1.349 . S
C1466 H1460 0.950 . S
C1466 C1467 1.327 . S
C1467 H1461 0.950 . S
C1467 C1466 1.327 . S
C1467 C1471 1.429 . S
C1468 C1451 1.574 . S
C1468 H1462 0.949 . S
C1468 C1472 1.368 . S
C1469 C1450 1.429 . S
C1469 C1463 1.429 . S
C1469 C1470 1.523 . S
C1470 C1451 1.368 . S
C1470 C1464 1.368 . S
C1470 C1469 1.523 . S
C1471 C1455 1.429 . S
C1471 C1467 1.429 . S
C1471 C1472 1.523 . S
C1472 C1456 1.368 . S
C1472 C1468 1.368 . S
C1472 C1471 1.523 . S
H1473 C1448 0.950 . S
H1474 C1450 0.950 . S
H1475 C1451 0.949 . S
H1476 C1453 0.950 . S
H1477 C1455 0.950 . S
C1478 C1479 1.349 . S
C1478 C1480 1.327 . S
C1478 H1503 0.950 . S
C1479 C1478 1.349 . S
C1479 C1495 1.349 . S
C1480 C1478 1.327 . S
C1480 C1499 1.429 . S
C1480 H1504 0.950 . S
C1481 C1498 1.574 . S
C1481 C1500 1.368 . S
C1481 H1505 0.949 . S
H1482 C1486 0.949 . S
C1483 C1484 1.349 . S
C1483 C1485 1.327 . S
C1483 H1506 0.950 . S
C1484 C1483 1.349 . S
C1484 C1496 1.349 . S
C1485 C1483 1.327 . S
C1485 C1501 1.429 . S
C1485 H1507 0.950 . S
C1486 H1482 0.949 . S
C1486 C1494 1.574 . S
C1486 C1502 1.368 . S
H1487 C1495 0.950 . S
H1488 C1493 0.950 . S
H1489 C1494 0.949 . S
H1490 C1496 0.950 . S
H1491 C1497 0.950 . S
H1492 C1498 0.949 . S
C1493 H1488 0.950 . S
C1493 C1495 1.327 . S
C1493 C1499 1.429 . S
C1494 C1486 1.574 . S
C1494 H1489 0.949 . S
C1494 C1500 1.368 . S
C1495 C1479 1.349 . S
C1495 H1487 0.950 . S
C1495 C1493 1.327 . S
C1496 C1484 1.349 . S
C1496 H1490 0.950 . S
C1496 C1497 1.327 . S
C1497 H1491 0.950 . S
C1497 C1496 1.327 . S
C1497 C1501 1.429 . S
C1498 C1481 1.574 . S
C1498 H1492 0.949 . S
C1498 C1502 1.368 . S
C1499 C1480 1.429 . S
C1499 C1493 1.429 . S
C1499 C1500 1.523 . S
C1500 C1481 1.368 . S
C1500 C1494 1.368 . S
C1500 C1499 1.523 . S
C1501 C1485 1.429 . S
C1501 C1497 1.429 . S
C1501 C1502 1.523 . S
C1502 C1486 1.368 . S
C1502 C1498 1.368 . S
C1502 C1501 1.523 . S
H1503 C1478 0.950 . S
H1504 C1480 0.950 . S
H1505 C1481 0.949 . S
H1506 C1483 0.950 . S
H1507 C1485 0.950 . S
C1508 C1509 1.349 . S
C1508 C1510 1.327 . S
C1508 H1533 0.950 . S
C1509 C1508 1.349 . S
C1509 C1525 1.349 . S
C1510 C1508 1.327 . S
C1510 C1529 1.429 . S
C1510 H1534 0.950 . S
C1511 C1528 1.574 . S
C1511 C1530 1.368 . S
C1511 H1535 0.949 . S
H1512 C1516 0.949 . S
C1513 C1514 1.349 . S
C1513 C1515 1.327 . S
C1513 H1536 0.950 . S
C1514 C1513 1.349 . S
C1514 C1526 1.349 . S
C1515 C1513 1.327 . S
C1515 C1531 1.429 . S
C1515 H1537 0.950 . S
C1516 H1512 0.949 . S
C1516 C1524 1.574 . S
C1516 C1532 1.368 . S
H1517 C1525 0.950 . S
H1518 C1523 0.950 . S
H1519 C1524 0.949 . S
H1520 C1526 0.950 . S
H1521 C1527 0.950 . S
H1522 C1528 0.949 . S
C1523 H1518 0.950 . S
C1523 C1525 1.327 . S
C1523 C1529 1.429 . S
C1524 C1516 1.574 . S
C1524 H1519 0.949 . S
C1524 C1530 1.368 . S
C1525 C1509 1.349 . S
C1525 H1517 0.950 . S
C1525 C1523 1.327 . S
C1526 C1514 1.349 . S
C1526 H1520 0.950 . S
C1526 C1527 1.327 . S
C1527 H1521 0.950 . S
C1527 C1526 1.327 . S
C1527 C1531 1.429 . S
C1528 C1511 1.574 . S
C1528 H1522 0.949 . S
C1528 C1532 1.368 . S
C1529 C1510 1.429 . S
C1529 C1523 1.429 . S
C1529 C1530 1.523 . S
C1530 C1511 1.368 . S
C1530 C1524 1.368 . S
C1530 C1529 1.523 . S
C1531 C1515 1.429 . S
C1531 C1527 1.429 . S
C1531 C1532 1.523 . S
C1532 C1516 1.368 . S
C1532 C1528 1.368 . S
C1532 C1531 1.523 . S
H1533 C1508 0.950 . S
H1534 C1510 0.950 . S
H1535 C1511 0.949 . S
H1536 C1513 0.950 . S
H1537 C1515 0.950 . S
C1538 C1539 1.349 . S
C1538 C1540 1.327 . S
C1538 H1563 0.950 . S
C1539 C1538 1.349 . S
C1539 C1555 1.349 . S
C1540 C1538 1.327 . S
C1540 C1559 1.429 . S
C1540 H1564 0.950 . S
C1541 C1558 1.574 . S
C1541 C1560 1.368 . S
C1541 H1565 0.949 . S
H1542 C1546 0.949 . S
C1543 C1544 1.349 . S
C1543 C1545 1.327 . S
C1543 H1566 0.950 . S
C1544 C1543 1.349 . S
C1544 C1556 1.349 . S
C1545 C1543 1.327 . S
C1545 C1561 1.429 . S
C1545 H1567 0.950 . S
C1546 H1542 0.949 . S
C1546 C1554 1.574 . S
C1546 C1562 1.368 . S
H1547 C1555 0.950 . S
H1548 C1553 0.950 . S
H1549 C1554 0.949 . S
H1550 C1556 0.950 . S
H1551 C1557 0.950 . S
H1552 C1558 0.949 . S
C1553 H1548 0.950 . S
C1553 C1555 1.327 . S
C1553 C1559 1.429 . S
C1554 C1546 1.574 . S
C1554 H1549 0.949 . S
C1554 C1560 1.368 . S
C1555 C1539 1.349 . S
C1555 H1547 0.950 . S
C1555 C1553 1.327 . S
C1556 C1544 1.349 . S
C1556 H1550 0.950 . S
C1556 C1557 1.327 . S
C1557 H1551 0.950 . S
C1557 C1556 1.327 . S
C1557 C1561 1.429 . S
C1558 C1541 1.574 . S
C1558 H1552 0.949 . S
C1558 C1562 1.368 . S
C1559 C1540 1.429 . S
C1559 C1553 1.429 . S
C1559 C1560 1.523 . S
C1560 C1541 1.368 . S
C1560 C1554 1.368 . S
C1560 C1559 1.523 . S
C1561 C1545 1.429 . S
C1561 C1557 1.429 . S
C1561 C1562 1.523 . S
C1562 C1546 1.368 . S
C1562 C1558 1.368 . S
C1562 C1561 1.523 . S
H1563 C1538 0.950 . S
H1564 C1540 0.950 . S
H1565 C1541 0.949 . S
H1566 C1543 0.950 . S
H1567 C1545 0.950 . S
C1568 C1569 1.349 . S
C1568 C1570 1.327 . S
C1568 H1593 0.950 . S
C1569 C1568 1.349 . S
C1569 C1585 1.349 . S
C1570 C1568 1.327 . S
C1570 C1589 1.429 . S
C1570 H1594 0.950 . S
C1571 C1588 1.574 1_556 S
C1571 C1590 1.368 . S
C1571 H1595 0.949 . S
H1572 C1576 0.949 . S
C1573 C1574 1.349 . S
C1573 C1575 1.327 . S
C1573 H1596 0.950 . S
C1574 C1573 1.349 . S
C1574 C1586 1.349 . S
C1575 C1573 1.327 . S
C1575 C1591 1.429 . S
C1575 H1597 0.950 . S
C1576 H1572 0.949 . S
C1576 C1584 1.574 1_554 S
C1576 C1592 1.368 . S
H1577 C1585 0.950 . S
H1578 C1583 0.950 . S
H1579 C1584 0.949 . S
H1580 C1586 0.950 . S
H1581 C1587 0.950 . S
H1582 C1588 0.949 . S
C1583 H1578 0.950 . S
C1583 C1585 1.327 . S
C1583 C1589 1.429 . S
C1584 C1576 1.574 1_556 S
C1584 H1579 0.949 . S
C1584 C1590 1.368 . S
C1585 C1569 1.349 . S
C1585 H1577 0.950 . S
C1585 C1583 1.327 . S
C1586 C1574 1.349 . S
C1586 H1580 0.950 . S
C1586 C1587 1.327 . S
C1587 H1581 0.950 . S
C1587 C1586 1.327 . S
C1587 C1591 1.429 . S
C1588 C1571 1.574 1_554 S
C1588 H1582 0.949 . S
C1588 C1592 1.368 . S
C1589 C1570 1.429 . S
C1589 C1583 1.429 . S
C1589 C1590 1.523 . S
C1590 C1571 1.368 . S
C1590 C1584 1.368 . S
C1590 C1589 1.523 . S
C1591 C1575 1.429 . S
C1591 C1587 1.429 . S
C1591 C1592 1.523 . S
C1592 C1576 1.368 . S
C1592 C1588 1.368 . S
C1592 C1591 1.523 . S
H1593 C1568 0.950 . S
H1594 C1570 0.950 . S
H1595 C1571 0.949 . S
H1596 C1573 0.950 . S
H1597 C1575 0.950 . S
C1598 C1599 1.349 . S
C1598 C1600 1.327 . S
C1598 H1623 0.950 . S
C1599 C1598 1.349 . S
C1599 C1615 1.349 . S
C1600 C1598 1.327 . S
C1600 C1619 1.429 . S
C1600 H1624 0.950 . S
C1601 C1618 1.574 1_554 S
C1601 C1620 1.368 . S
C1601 H1625 0.949 . S
H1602 C1606 0.949 . S
C1603 C1604 1.349 . S
C1603 C1605 1.327 . S
C1603 H1626 0.950 . S
C1604 C1603 1.349 . S
C1604 C1616 1.349 . S
C1605 C1603 1.327 . S
C1605 C1621 1.429 . S
C1605 H1627 0.950 . S
C1606 H1602 0.949 . S
C1606 C1614 1.574 1_556 S
C1606 C1622 1.368 . S
H1607 C1615 0.950 . S
H1608 C1613 0.950 . S
H1609 C1614 0.949 . S
H1610 C1616 0.950 . S
H1611 C1617 0.950 . S
H1612 C1618 0.949 . S
C1613 H1608 0.950 . S
C1613 C1615 1.327 . S
C1613 C1619 1.429 . S
C1614 C1606 1.574 1_554 S
C1614 H1609 0.949 . S
C1614 C1620 1.368 . S
C1615 C1599 1.349 . S
C1615 H1607 0.950 . S
C1615 C1613 1.327 . S
C1616 C1604 1.349 . S
C1616 H1610 0.950 . S
C1616 C1617 1.327 . S
C1617 H1611 0.950 . S
C1617 C1616 1.327 . S
C1617 C1621 1.429 . S
C1618 C1601 1.574 1_556 S
C1618 H1612 0.949 . S
C1618 C1622 1.368 . S
C1619 C1600 1.429 . S
C1619 C1613 1.429 . S
C1619 C1620 1.523 . S
C1620 C1601 1.368 . S
C1620 C1614 1.368 . S
C1620 C1619 1.523 . S
C1621 C1605 1.429 . S
C1621 C1617 1.429 . S
C1621 C1622 1.523 . S
C1622 C1606 1.368 . S
C1622 C1618 1.368 . S
C1622 C1621 1.523 . S
H1623 C1598 0.950 . S
H1624 C1600 0.950 . S
H1625 C1601 0.949 . S
H1626 C1603 0.950 . S
H1627 C1605 0.950 . S
C1628 C1629 1.349 . S
C1628 C1630 1.327 . S
C1628 H1653 0.950 . S
C1629 C1628 1.349 . S
C1629 C1645 1.349 . S
C1630 C1628 1.327 . S
C1630 C1649 1.429 . S
C1630 H1654 0.950 . S
C1631 C1648 1.574 1_554 S
C1631 C1650 1.368 . S
C1631 H1655 0.949 . S
H1632 C1636 0.949 . S
C1633 C1634 1.349 . S
C1633 C1635 1.327 . S
C1633 H1656 0.950 . S
C1634 C1633 1.349 . S
C1634 C1646 1.349 . S
C1635 C1633 1.327 . S
C1635 C1651 1.429 . S
C1635 H1657 0.950 . S
C1636 H1632 0.949 . S
C1636 C1644 1.574 1_556 S
C1636 C1652 1.368 . S
H1637 C1645 0.950 . S
H1638 C1643 0.950 . S
H1639 C1644 0.949 . S
H1640 C1646 0.950 . S
H1641 C1647 0.950 . S
H1642 C1648 0.949 . S
C1643 H1638 0.950 . S
C1643 C1645 1.327 . S
C1643 C1649 1.429 . S
C1644 C1636 1.574 1_554 S
C1644 H1639 0.949 . S
C1644 C1650 1.368 . S
C1645 C1629 1.349 . S
C1645 H1637 0.950 . S
C1645 C1643 1.327 . S
C1646 C1634 1.349 . S
C1646 H1640 0.950 . S
C1646 C1647 1.327 . S
C1647 H1641 0.950 . S
C1647 C1646 1.327 . S
C1647 C1651 1.429 . S
C1648 C1631 1.574 1_556 S
C1648 H1642 0.949 . S
C1648 C1652 1.368 . S
C1649 C1630 1.429 . S
C1649 C1643 1.429 . S
C1649 C1650 1.523 . S
C1650 C1631 1.368 . S
C1650 C1644 1.368 . S
C1650 C1649 1.523 . S
C1651 C1635 1.429 . S
C1651 C1647 1.429 . S
C1651 C1652 1.523 . S
C1652 C1636 1.368 . S
C1652 C1648 1.368 . S
C1652 C1651 1.523 . S
H1653 C1628 0.950 . S
H1654 C1630 0.950 . S
H1655 C1631 0.949 . S
H1656 C1633 0.950 . S
H1657 C1635 0.950 . S
C1658 C1659 1.349 . S
C1658 C1660 1.327 . S
C1658 H1683 0.950 . S
C1659 C1658 1.349 . S
C1659 C1675 1.349 . S
C1660 C1658 1.327 . S
C1660 C1679 1.429 . S
C1660 H1684 0.950 . S
C1661 C1678 1.574 1_554 S
C1661 C1680 1.368 . S
C1661 H1685 0.949 . S
H1662 C1666 0.949 . S
C1663 C1664 1.349 . S
C1663 C1665 1.327 . S
C1663 H1686 0.950 . S
C1664 C1663 1.349 . S
C1664 C1676 1.349 . S
C1665 C1663 1.327 . S
C1665 C1681 1.429 . S
C1665 H1687 0.950 . S
C1666 H1662 0.949 . S
C1666 C1674 1.574 1_556 S
C1666 C1682 1.368 . S
H1667 C1675 0.950 . S
H1668 C1673 0.950 . S
H1669 C1674 0.949 . S
H1670 C1676 0.950 . S
H1671 C1677 0.950 . S
H1672 C1678 0.949 . S
C1673 H1668 0.950 . S
C1673 C1675 1.327 . S
C1673 C1679 1.429 . S
C1674 C1666 1.574 1_554 S
C1674 H1669 0.949 . S
C1674 C1680 1.368 . S
C1675 C1659 1.349 . S
C1675 H1667 0.950 . S
C1675 C1673 1.327 . S
C1676 C1664 1.349 . S
C1676 H1670 0.950 . S
C1676 C1677 1.327 . S
C1677 H1671 0.950 . S
C1677 C1676 1.327 . S
C1677 C1681 1.429 . S
C1678 C1661 1.574 1_556 S
C1678 H1672 0.949 . S
C1678 C1682 1.368 . S
C1679 C1660 1.429 . S
C1679 C1673 1.429 . S
C1679 C1680 1.523 . S
C1680 C1661 1.368 . S
C1680 C1674 1.368 . S
C1680 C1679 1.523 . S
C1681 C1665 1.429 . S
C1681 C1677 1.429 . S
C1681 C1682 1.523 . S
C1682 C1666 1.368 . S
C1682 C1678 1.368 . S
C1682 C1681 1.523 . S
H1683 C1658 0.950 . S
H1684 C1660 0.950 . S
H1685 C1661 0.949 . S
H1686 C1663 0.950 . S
H1687 C1665 0.950 . S
C1688 C1689 1.349 . S
C1688 C1690 1.327 . S
C1688 H1713 0.950 . S
C1689 C1688 1.349 . S
C1689 C1705 1.349 . S
C1690 C1688 1.327 . S
C1690 C1709 1.429 . S
C1690 H1714 0.950 . S
C1691 C1708 1.574 1_545 S
C1691 C1710 1.368 . S
C1691 H1715 0.949 . S
H1692 C1696 0.949 . S
C1693 C1694 1.349 . S
C1693 C1695 1.327 . S
C1693 H1716 0.950 . S
C1694 C1693 1.349 . S
C1694 C1706 1.349 . S
C1695 C1693 1.327 . S
C1695 C1711 1.429 . S
C1695 H1717 0.950 . S
C1696 H1692 0.949 . S
C1696 C1704 1.574 1_565 S
C1696 C1712 1.368 . S
H1697 C1705 0.950 . S
H1698 C1703 0.950 . S
H1699 C1704 0.949 . S
H1700 C1706 0.950 . S
H1701 C1707 0.950 . S
H1702 C1708 0.949 . S
C1703 H1698 0.950 . S
C1703 C1705 1.327 . S
C1703 C1709 1.429 . S
C1704 C1696 1.574 1_545 S
C1704 H1699 0.949 . S
C1704 C1710 1.368 . S
C1705 C1689 1.349 . S
C1705 H1697 0.950 . S
C1705 C1703 1.327 . S
C1706 C1694 1.349 . S
C1706 H1700 0.950 . S
C1706 C1707 1.327 . S
C1707 H1701 0.950 . S
C1707 C1706 1.327 . S
C1707 C1711 1.429 . S
C1708 C1691 1.574 1_565 S
C1708 H1702 0.949 . S
C1708 C1712 1.368 . S
C1709 C1690 1.429 . S
C1709 C1703 1.429 . S
C1709 C1710 1.523 . S
C1710 C1691 1.368 . S
C1710 C1704 1.368 . S
C1710 C1709 1.523 . S
C1711 C1695 1.429 . S
C1711 C1707 1.429 . S
C1711 C1712 1.523 . S
C1712 C1696 1.368 . S
C1712 C1708 1.368 . S
C1712 C1711 1.523 . S
H1713 C1688 0.950 . S
H1714 C1690 0.950 . S
H1715 C1691 0.949 . S
H1716 C1693 0.950 . S
H1717 C1695 0.950 . S
C1718 C1719 1.349 . S
C1718 C1720 1.327 . S
C1718 H1743 0.950 . S
C1719 C1718 1.349 . S
C1719 C1735 1.349 . S
C1720 C1718 1.327 . S
C1720 C1739 1.429 . S
C1720 H1744 0.950 . S
C1721 C1738 1.574 . S
C1721 C1740 1.368 1_455 S
C1721 H1745 0.949 . S
H1722 C1726 0.949 . S
C1723 C1724 1.349 . S
C1723 C1725 1.327 . S
C1723 H1746 0.950 . S
C1724 C1723 1.349 . S
C1724 C1736 1.349 . S
C1725 C1723 1.327 . S
C1725 C1741 1.429 . S
C1725 H1747 0.950 . S
C1726 H1722 0.949 . S
C1726 C1734 1.574 . S
C1726 C1742 1.368 1_655 S
H1727 C1735 0.950 . S
H1728 C1733 0.950 . S
H1729 C1734 0.949 . S
H1730 C1736 0.950 . S
H1731 C1737 0.950 . S
H1732 C1738 0.949 . S
C1733 H1728 0.950 . S
C1733 C1735 1.327 . S
C1733 C1739 1.429 . S
C1734 C1726 1.574 . S
C1734 H1729 0.949 . S
C1734 C1740 1.368 . S
C1735 C1719 1.349 . S
C1735 H1727 0.950 . S
C1735 C1733 1.327 . S
C1736 C1724 1.349 . S
C1736 H1730 0.950 . S
C1736 C1737 1.327 . S
C1737 H1731 0.950 . S
C1737 C1736 1.327 . S
C1737 C1741 1.429 . S
C1738 C1721 1.574 . S
C1738 H1732 0.949 . S
C1738 C1742 1.368 . S
C1739 C1720 1.429 . S
C1739 C1733 1.429 . S
C1739 C1740 1.523 . S
C1740 C1721 1.368 1_655 S
C1740 C1734 1.368 . S
C1740 C1739 1.523 . S
C1741 C1725 1.429 . S
C1741 C1737 1.429 . S
C1741 C1742 1.523 . S
C1742 C1726 1.368 1_455 S
C1742 C1738 1.368 . S
C1742 C1741 1.523 . S
H1743 C1718 0.950 . S
H1744 C1720 0.950 . S
H1745 C1721 0.949 . S
H1746 C1723 0.950 . S
H1747 C1725 0.950 . S
C1748 C1749 1.349 . S
C1748 C1750 1.327 . S
C1748 H1773 0.950 . S
C1749 C1748 1.349 . S
C1749 C1765 1.349 . S
C1750 C1748 1.327 . S
C1750 C1769 1.429 . S
C1750 H1774 0.950 . S
C1751 C1768 1.574 . S
C1751 C1770 1.368 . S
C1751 H1775 0.949 . S
H1752 C1756 0.949 . S
C1753 C1754 1.349 . S
C1753 C1755 1.327 . S
C1753 H1776 0.950 . S
C1754 C1753 1.349 . S
C1754 C1766 1.349 . S
C1755 C1753 1.327 . S
C1755 C1771 1.429 . S
C1755 H1777 0.950 . S
C1756 H1752 0.949 . S
C1756 C1764 1.574 . S
C1756 C1772 1.368 . S
H1757 C1765 0.950 . S
H1758 C1763 0.950 . S
H1759 C1764 0.949 . S
H1760 C1766 0.950 . S
H1761 C1767 0.950 . S
H1762 C1768 0.949 . S
C1763 H1758 0.950 . S
C1763 C1765 1.327 . S
C1763 C1769 1.429 . S
C1764 C1756 1.574 . S
C1764 H1759 0.949 . S
C1764 C1770 1.368 1_545 S
C1765 C1749 1.349 . S
C1765 H1757 0.950 . S
C1765 C1763 1.327 . S
C1766 C1754 1.349 . S
C1766 H1760 0.950 . S
C1766 C1767 1.327 . S
C1767 H1761 0.950 . S
C1767 C1766 1.327 . S
C1767 C1771 1.429 . S
C1768 C1751 1.574 . S
C1768 H1762 0.949 . S
C1768 C1772 1.368 1_565 S
C1769 C1750 1.429 . S
C1769 C1763 1.429 . S
C1769 C1770 1.523 . S
C1770 C1751 1.368 . S
C1770 C1764 1.368 1_565 S
C1770 C1769 1.523 . S
C1771 C1755 1.429 . S
C1771 C1767 1.429 . S
C1771 C1772 1.523 . S
C1772 C1756 1.368 . S
C1772 C1768 1.368 1_545 S
C1772 C1771 1.523 . S
H1773 C1748 0.950 . S
H1774 C1750 0.950 . S
H1775 C1751 0.949 . S
H1776 C1753 0.950 . S
H1777 C1755 0.950 . S
C1778 C1779 1.349 . S
C1778 C1780 1.327 . S
C1778 H1803 0.950 . S
C1779 C1778 1.349 . S
C1779 C1795 1.349 . S
C1780 C1778 1.327 . S
C1780 C1799 1.429 . S
C1780 H1804 0.950 . S
C1781 C1798 1.574 . S
C1781 C1800 1.368 1_455 S
C1781 H1805 0.949 . S
H1782 C1786 0.949 . S
C1783 C1784 1.349 . S
C1783 C1785 1.327 . S
C1783 H1806 0.950 . S
C1784 C1783 1.349 . S
C1784 C1796 1.349 . S
C1785 C1783 1.327 . S
C1785 C1801 1.429 . S
C1785 H1807 0.950 . S
C1786 H1782 0.949 . S
C1786 C1794 1.574 . S
C1786 C1802 1.368 1_655 S
H1787 C1795 0.950 . S
H1788 C1793 0.950 . S
H1789 C1794 0.949 . S
H1790 C1796 0.950 . S
H1791 C1797 0.950 . S
H1792 C1798 0.949 . S
C1793 H1788 0.950 . S
C1793 C1795 1.327 . S
C1793 C1799 1.429 . S
C1794 C1786 1.574 . S
C1794 H1789 0.949 . S
C1794 C1800 1.368 . S
C1795 C1779 1.349 . S
C1795 H1787 0.950 . S
C1795 C1793 1.327 . S
C1796 C1784 1.349 . S
C1796 H1790 0.950 . S
C1796 C1797 1.327 . S
C1797 H1791 0.950 . S
C1797 C1796 1.327 . S
C1797 C1801 1.429 . S
C1798 C1781 1.574 . S
C1798 H1792 0.949 . S
C1798 C1802 1.368 . S
C1799 C1780 1.429 . S
C1799 C1793 1.429 . S
C1799 C1800 1.523 . S
C1800 C1781 1.368 1_655 S
C1800 C1794 1.368 . S
C1800 C1799 1.523 . S
C1801 C1785 1.429 . S
C1801 C1797 1.429 . S
C1801 C1802 1.523 . S
C1802 C1786 1.368 1_455 S
C1802 C1798 1.368 . S
C1802 C1801 1.523 . S
H1803 C1778 0.950 . S
H1804 C1780 0.950 . S
H1805 C1781 0.949 . S
H1806 C1783 0.950 . S
H1807 C1785 0.950 . S
C369 C16 1.038 . S
C374 C361 1.038 . S
C399 C292 1.038 . S
C404 C39 1.038 . S
C429 C62 1.038 . S
C434 C315 1.038 . S
C459 C338 1.038 . S
C464 C85 1.038 . S
C489 C108 1.038 . S
C494 C223 1.038 . S
C519 C246 1.038 . S
C524 C131 1.038 . S
C549 C154 1.038 . S
C554 C269 1.038 . S
C579 C200 1.038 . S
C584 C177 1.038 . S
C609 C67 1.574 . S
C614 C21 1.574 . S
C639 C90 1.574 . S
C644 C44 1.574 . S
C669 C159 1.574 . S
C674 C113 1.574 . S
C699 C182 1.574 . S
C704 C136 1.574 . S
C729 C205 1.574 . S
C734 C251 1.574 . S
C759 C228 1.574 . S
C764 C274 1.574 . S
C789 C343 1.574 . S
C794 C297 1.574 . S
C819 C366 1.574 . S
C824 C320 1.574 . S
C849 C18 0.823 . S
C854 C43 0.827 . S
C879 C66 0.827 . S
C884 C41 0.823 . S
C909 C64 0.823 . S
C914 C89 0.827 . S
C939 C20 0.827 . S
C944 C87 0.823 . S
C969 C110 0.823 . S
C974 C181 0.827 . S
C999 C112 0.827 . S
C1004 C133 0.823 . S
C1029 C156 0.823 . S
C1034 C135 0.827 . S
C1059 C158 0.827 . S
C1064 C179 0.823 . S
C1089 C202 0.823 . S
C1094 C227 0.827 . S
C1119 C250 0.827 . S
C1124 C225 0.823 . S
C1149 C273 0.827 . S
C1154 C248 0.823 . S
C1179 C271 0.823 . S
C1184 C204 0.827 . S
C1209 C294 0.823 . S
C1214 C365 0.827 . S
C1239 C296 0.827 . S
C1244 C317 0.823 . S
C1269 C340 0.823 . S
C1274 C319 0.827 . S
C1299 C342 0.827 . S
C1304 C363 0.823 . S
C1329 C19 1.640 . S
C1334 C134 1.640 . S
C1359 C157 1.640 . S
C1364 C42 1.640 . S
C1389 C180 1.640 . S
C1394 C65 1.640 . S
C1419 C111 1.640 . S
C1424 C88 1.640 . S
C1449 C318 1.640 . S
C1454 C203 1.640 . S
C1479 C226 1.640 . S
C1484 C341 1.640 . S
C1509 C364 1.640 . S
C1514 C249 1.640 . S
C1539 C272 1.640 . S
C1544 C295 1.640 . S
C1569 C109 0.346 . S
C1574 C17 0.346 . S
C1599 C40 0.346 . S
C1604 C132 0.346 . S
C1629 C63 0.346 . S
C1634 C155 0.346 . S
C1659 C86 0.346 . S
C1664 C178 0.346 . S
C1689 C293 0.346 . S
C1694 C201 0.346 . S
C1719 C316 0.346 . S
C1724 C224 0.346 . S
C1749 C339 0.346 . S
C1754 C247 0.346 . S
C1779 C270 0.346 . S
C1784 C362 0.346 . S
