# Generated by pormake.
# Topology pyc, (8)-cn, num edge types: 1
# Building blocks:
#     Node 0, Type 0, BuildingBlock: GIZVER_clean_sbu_0, # of connection points: 8
#     Node 1, Type 0, BuildingBlock: GIZVER_clean_sbu_0, # of connection points: 8
#     Node 2, Type 0, BuildingBlock: GIZVER_clean_sbu_0, # of connection points: 8
#     Node 3, Type 0, BuildingBlock: GIZVER_clean_sbu_0, # of connection points: 8
#     Node 4, Type 0, BuildingBlock: GIZVER_clean_sbu_0, # of connection points: 8
#     Node 5, Type 0, BuildingBlock: GIZVER_clean_sbu_0, # of connection points: 8
#     Node 6, Type 0, BuildingBlock: GIZVER_clean_sbu_0, # of connection points: 8
#     Node 7, Type 0, BuildingBlock: GIZVER_clean_sbu_0, # of connection points: 8
#     Node 8, Type 0, BuildingBlock: GIZVER_clean_sbu_0, # of connection points: 8
#     Node 9, Type 0, BuildingBlock: GIZVER_clean_sbu_0, # of connection points: 8
#     Node 10, Type 0, BuildingBlock: GIZVER_clean_sbu_0, # of connection points: 8
#     Node 11, Type 0, BuildingBlock: GIZVER_clean_sbu_0, # of connection points: 8
#     Node 12, Type 0, BuildingBlock: GIZVER_clean_sbu_0, # of connection points: 8
#     Node 13, Type 0, BuildingBlock: GIZVER_clean_sbu_0, # of connection points: 8
#     Node 14, Type 0, BuildingBlock: GIZVER_clean_sbu_0, # of connection points: 8
#     Node 15, Type 0, BuildingBlock: GIZVER_clean_sbu_0, # of connection points: 8
#     Node 16, Type 0, BuildingBlock: GIZVER_clean_sbu_0, # of connection points: 8
#     Node 17, Type 0, BuildingBlock: GIZVER_clean_sbu_0, # of connection points: 8
#     Node 18, Type 0, BuildingBlock: GIZVER_clean_sbu_0, # of connection points: 8
#     Node 19, Type 0, BuildingBlock: GIZVER_clean_sbu_0, # of connection points: 8
#     Node 20, Type 0, BuildingBlock: GIZVER_clean_sbu_0, # of connection points: 8
#     Node 21, Type 0, BuildingBlock: GIZVER_clean_sbu_0, # of connection points: 8
#     Node 22, Type 0, BuildingBlock: GIZVER_clean_sbu_0, # of connection points: 8
#     Node 23, Type 0, BuildingBlock: GIZVER_clean_sbu_0, # of connection points: 8
#     Node 24, Type 0, BuildingBlock: GIZVER_clean_sbu_0, # of connection points: 8
#     Node 25, Type 0, BuildingBlock: GIZVER_clean_sbu_0, # of connection points: 8
#     Node 26, Type 0, BuildingBlock: GIZVER_clean_sbu_0, # of connection points: 8
#     Node 27, Type 0, BuildingBlock: GIZVER_clean_sbu_0, # of connection points: 8
#     Node 28, Type 0, BuildingBlock: GIZVER_clean_sbu_0, # of connection points: 8
#     Node 29, Type 0, BuildingBlock: GIZVER_clean_sbu_0, # of connection points: 8
#     Node 30, Type 0, BuildingBlock: GIZVER_clean_sbu_0, # of connection points: 8
#     Node 31, Type 0, BuildingBlock: GIZVER_clean_sbu_0, # of connection points: 8
#     Node 32, Type 0, BuildingBlock: GIZVER_clean_sbu_0, # of connection points: 8
#     Node 33, Type 0, BuildingBlock: GIZVER_clean_sbu_0, # of connection points: 8
#     Node 34, Type 0, BuildingBlock: GIZVER_clean_sbu_0, # of connection points: 8
#     Node 35, Type 0, BuildingBlock: GIZVER_clean_sbu_0, # of connection points: 8
#     Node 36, Type 0, BuildingBlock: GIZVER_clean_sbu_0, # of connection points: 8
#     Node 37, Type 0, BuildingBlock: GIZVER_clean_sbu_0, # of connection points: 8
#     Node 38, Type 0, BuildingBlock: GIZVER_clean_sbu_0, # of connection points: 8
#     Node 39, Type 0, BuildingBlock: GIZVER_clean_sbu_0, # of connection points: 8
#     Node 40, Type 0, BuildingBlock: GIZVER_clean_sbu_0, # of connection points: 8
#     Node 41, Type 0, BuildingBlock: GIZVER_clean_sbu_0, # of connection points: 8
#     Node 42, Type 0, BuildingBlock: GIZVER_clean_sbu_0, # of connection points: 8
#     Node 43, Type 0, BuildingBlock: GIZVER_clean_sbu_0, # of connection points: 8
#     Node 44, Type 0, BuildingBlock: GIZVER_clean_sbu_0, # of connection points: 8
#     Node 45, Type 0, BuildingBlock: GIZVER_clean_sbu_0, # of connection points: 8
#     Node 46, Type 0, BuildingBlock: GIZVER_clean_sbu_0, # of connection points: 8
#     Node 47, Type 0, BuildingBlock: GIZVER_clean_sbu_0, # of connection points: 8
#     Edge 48, Type (0, 0), BuildingBlock: MIFKUJ_clean_linker_0, # of connection points: 2
#     Edge 49, Type (0, 0), BuildingBlock: MIFKUJ_clean_linker_0, # of connection points: 2
#     Edge 50, Type (0, 0), BuildingBlock: MIFKUJ_clean_linker_0, # of connection points: 2
#     Edge 51, Type (0, 0), BuildingBlock: MIFKUJ_clean_linker_0, # of connection points: 2
#     Edge 52, Type (0, 0), BuildingBlock: MIFKUJ_clean_linker_0, # of connection points: 2
#     Edge 53, Type (0, 0), BuildingBlock: MIFKUJ_clean_linker_0, # of connection points: 2
#     Edge 54, Type (0, 0), BuildingBlock: MIFKUJ_clean_linker_0, # of connection points: 2
#     Edge 55, Type (0, 0), BuildingBlock: MIFKUJ_clean_linker_0, # of connection points: 2
#     Edge 56, Type (0, 0), BuildingBlock: MIFKUJ_clean_linker_0, # of connection points: 2
#     Edge 57, Type (0, 0), BuildingBlock: MIFKUJ_clean_linker_0, # of connection points: 2
#     Edge 58, Type (0, 0), BuildingBlock: MIFKUJ_clean_linker_0, # of connection points: 2
#     Edge 59, Type (0, 0), BuildingBlock: MIFKUJ_clean_linker_0, # of connection points: 2
#     Edge 60, Type (0, 0), BuildingBlock: MIFKUJ_clean_linker_0, # of connection points: 2
#     Edge 61, Type (0, 0), BuildingBlock: MIFKUJ_clean_linker_0, # of connection points: 2
#     Edge 62, Type (0, 0), BuildingBlock: MIFKUJ_clean_linker_0, # of connection points: 2
#     Edge 63, Type (0, 0), BuildingBlock: MIFKUJ_clean_linker_0, # of connection points: 2
#     Edge 64, Type (0, 0), BuildingBlock: MIFKUJ_clean_linker_0, # of connection points: 2
#     Edge 65, Type (0, 0), BuildingBlock: MIFKUJ_clean_linker_0, # of connection points: 2
#     Edge 66, Type (0, 0), BuildingBlock: MIFKUJ_clean_linker_0, # of connection points: 2
#     Edge 67, Type (0, 0), BuildingBlock: MIFKUJ_clean_linker_0, # of connection points: 2
#     Edge 68, Type (0, 0), BuildingBlock: MIFKUJ_clean_linker_0, # of connection points: 2
#     Edge 69, Type (0, 0), BuildingBlock: MIFKUJ_clean_linker_0, # of connection points: 2
#     Edge 70, Type (0, 0), BuildingBlock: MIFKUJ_clean_linker_0, # of connection points: 2
#     Edge 71, Type (0, 0), BuildingBlock: MIFKUJ_clean_linker_0, # of connection points: 2
#     Edge 72, Type (0, 0), BuildingBlock: MIFKUJ_clean_linker_0, # of connection points: 2
#     Edge 73, Type (0, 0), BuildingBlock: MIFKUJ_clean_linker_0, # of connection points: 2
#     Edge 74, Type (0, 0), BuildingBlock: MIFKUJ_clean_linker_0, # of connection points: 2
#     Edge 75, Type (0, 0), BuildingBlock: MIFKUJ_clean_linker_0, # of connection points: 2
#     Edge 76, Type (0, 0), BuildingBlock: MIFKUJ_clean_linker_0, # of connection points: 2
#     Edge 77, Type (0, 0), BuildingBlock: MIFKUJ_clean_linker_0, # of connection points: 2
#     Edge 78, Type (0, 0), BuildingBlock: MIFKUJ_clean_linker_0, # of connection points: 2
#     Edge 79, Type (0, 0), BuildingBlock: MIFKUJ_clean_linker_0, # of connection points: 2
#     Edge 80, Type (0, 0), BuildingBlock: MIFKUJ_clean_linker_0, # of connection points: 2
#     Edge 81, Type (0, 0), BuildingBlock: MIFKUJ_clean_linker_0, # of connection points: 2
#     Edge 82, Type (0, 0), BuildingBlock: MIFKUJ_clean_linker_0, # of connection points: 2
#     Edge 83, Type (0, 0), BuildingBlock: MIFKUJ_clean_linker_0, # of connection points: 2
#     Edge 84, Type (0, 0), BuildingBlock: MIFKUJ_clean_linker_0, # of connection points: 2
#     Edge 85, Type (0, 0), BuildingBlock: MIFKUJ_clean_linker_0, # of connection points: 2
#     Edge 86, Type (0, 0), BuildingBlock: MIFKUJ_clean_linker_0, # of connection points: 2
#     Edge 87, Type (0, 0), BuildingBlock: MIFKUJ_clean_linker_0, # of connection points: 2
#     Edge 88, Type (0, 0), BuildingBlock: MIFKUJ_clean_linker_0, # of connection points: 2
#     Edge 89, Type (0, 0), BuildingBlock: MIFKUJ_clean_linker_0, # of connection points: 2
#     Edge 90, Type (0, 0), BuildingBlock: MIFKUJ_clean_linker_0, # of connection points: 2
#     Edge 91, Type (0, 0), BuildingBlock: MIFKUJ_clean_linker_0, # of connection points: 2
#     Edge 92, Type (0, 0), BuildingBlock: MIFKUJ_clean_linker_0, # of connection points: 2
#     Edge 93, Type (0, 0), BuildingBlock: MIFKUJ_clean_linker_0, # of connection points: 2
#     Edge 94, Type (0, 0), BuildingBlock: MIFKUJ_clean_linker_0, # of connection points: 2
#     Edge 95, Type (0, 0), BuildingBlock: MIFKUJ_clean_linker_0, # of connection points: 2
#     Edge 96, Type (0, 0), BuildingBlock: MIFKUJ_clean_linker_0, # of connection points: 2
#     Edge 97, Type (0, 0), BuildingBlock: MIFKUJ_clean_linker_0, # of connection points: 2
#     Edge 98, Type (0, 0), BuildingBlock: MIFKUJ_clean_linker_0, # of connection points: 2
#     Edge 99, Type (0, 0), BuildingBlock: MIFKUJ_clean_linker_0, # of connection points: 2
#     Edge 100, Type (0, 0), BuildingBlock: MIFKUJ_clean_linker_0, # of connection points: 2
#     Edge 101, Type (0, 0), BuildingBlock: MIFKUJ_clean_linker_0, # of connection points: 2
#     Edge 102, Type (0, 0), BuildingBlock: MIFKUJ_clean_linker_0, # of connection points: 2
#     Edge 103, Type (0, 0), BuildingBlock: MIFKUJ_clean_linker_0, # of connection points: 2
#     Edge 104, Type (0, 0), BuildingBlock: MIFKUJ_clean_linker_0, # of connection points: 2
#     Edge 105, Type (0, 0), BuildingBlock: MIFKUJ_clean_linker_0, # of connection points: 2
#     Edge 106, Type (0, 0), BuildingBlock: MIFKUJ_clean_linker_0, # of connection points: 2
#     Edge 107, Type (0, 0), BuildingBlock: MIFKUJ_clean_linker_0, # of connection points: 2
#     Edge 108, Type (0, 0), BuildingBlock: MIFKUJ_clean_linker_0, # of connection points: 2
#     Edge 109, Type (0, 0), BuildingBlock: MIFKUJ_clean_linker_0, # of connection points: 2
#     Edge 110, Type (0, 0), BuildingBlock: MIFKUJ_clean_linker_0, # of connection points: 2
#     Edge 111, Type (0, 0), BuildingBlock: MIFKUJ_clean_linker_0, # of connection points: 2
#     Edge 112, Type (0, 0), BuildingBlock: MIFKUJ_clean_linker_0, # of connection points: 2
#     Edge 113, Type (0, 0), BuildingBlock: MIFKUJ_clean_linker_0, # of connection points: 2
#     Edge 114, Type (0, 0), BuildingBlock: MIFKUJ_clean_linker_0, # of connection points: 2
#     Edge 115, Type (0, 0), BuildingBlock: MIFKUJ_clean_linker_0, # of connection points: 2
#     Edge 116, Type (0, 0), BuildingBlock: MIFKUJ_clean_linker_0, # of connection points: 2
#     Edge 117, Type (0, 0), BuildingBlock: MIFKUJ_clean_linker_0, # of connection points: 2
#     Edge 118, Type (0, 0), BuildingBlock: MIFKUJ_clean_linker_0, # of connection points: 2
#     Edge 119, Type (0, 0), BuildingBlock: MIFKUJ_clean_linker_0, # of connection points: 2
#     Edge 120, Type (0, 0), BuildingBlock: MIFKUJ_clean_linker_0, # of connection points: 2
#     Edge 121, Type (0, 0), BuildingBlock: MIFKUJ_clean_linker_0, # of connection points: 2
#     Edge 122, Type (0, 0), BuildingBlock: MIFKUJ_clean_linker_0, # of connection points: 2
#     Edge 123, Type (0, 0), BuildingBlock: MIFKUJ_clean_linker_0, # of connection points: 2
#     Edge 124, Type (0, 0), BuildingBlock: MIFKUJ_clean_linker_0, # of connection points: 2
#     Edge 125, Type (0, 0), BuildingBlock: MIFKUJ_clean_linker_0, # of connection points: 2
#     Edge 126, Type (0, 0), BuildingBlock: MIFKUJ_clean_linker_0, # of connection points: 2
#     Edge 127, Type (0, 0), BuildingBlock: MIFKUJ_clean_linker_0, # of connection points: 2
#     Edge 128, Type (0, 0), BuildingBlock: MIFKUJ_clean_linker_0, # of connection points: 2
#     Edge 129, Type (0, 0), BuildingBlock: MIFKUJ_clean_linker_0, # of connection points: 2
#     Edge 130, Type (0, 0), BuildingBlock: MIFKUJ_clean_linker_0, # of connection points: 2
#     Edge 131, Type (0, 0), BuildingBlock: MIFKUJ_clean_linker_0, # of connection points: 2
#     Edge 132, Type (0, 0), BuildingBlock: MIFKUJ_clean_linker_0, # of connection points: 2
#     Edge 133, Type (0, 0), BuildingBlock: MIFKUJ_clean_linker_0, # of connection points: 2
#     Edge 134, Type (0, 0), BuildingBlock: MIFKUJ_clean_linker_0, # of connection points: 2
#     Edge 135, Type (0, 0), BuildingBlock: MIFKUJ_clean_linker_0, # of connection points: 2
#     Edge 136, Type (0, 0), BuildingBlock: MIFKUJ_clean_linker_0, # of connection points: 2
#     Edge 137, Type (0, 0), BuildingBlock: MIFKUJ_clean_linker_0, # of connection points: 2
#     Edge 138, Type (0, 0), BuildingBlock: MIFKUJ_clean_linker_0, # of connection points: 2
#     Edge 139, Type (0, 0), BuildingBlock: MIFKUJ_clean_linker_0, # of connection points: 2
#     Edge 140, Type (0, 0), BuildingBlock: MIFKUJ_clean_linker_0, # of connection points: 2
#     Edge 141, Type (0, 0), BuildingBlock: MIFKUJ_clean_linker_0, # of connection points: 2
#     Edge 142, Type (0, 0), BuildingBlock: MIFKUJ_clean_linker_0, # of connection points: 2
#     Edge 143, Type (0, 0), BuildingBlock: MIFKUJ_clean_linker_0, # of connection points: 2
#     Edge 144, Type (0, 0), BuildingBlock: MIFKUJ_clean_linker_0, # of connection points: 2
#     Edge 145, Type (0, 0), BuildingBlock: MIFKUJ_clean_linker_0, # of connection points: 2
#     Edge 146, Type (0, 0), BuildingBlock: MIFKUJ_clean_linker_0, # of connection points: 2
#     Edge 147, Type (0, 0), BuildingBlock: MIFKUJ_clean_linker_0, # of connection points: 2
#     Edge 148, Type (0, 0), BuildingBlock: MIFKUJ_clean_linker_0, # of connection points: 2
#     Edge 149, Type (0, 0), BuildingBlock: MIFKUJ_clean_linker_0, # of connection points: 2
#     Edge 150, Type (0, 0), BuildingBlock: MIFKUJ_clean_linker_0, # of connection points: 2
#     Edge 151, Type (0, 0), BuildingBlock: MIFKUJ_clean_linker_0, # of connection points: 2
#     Edge 152, Type (0, 0), BuildingBlock: MIFKUJ_clean_linker_0, # of connection points: 2
#     Edge 153, Type (0, 0), BuildingBlock: MIFKUJ_clean_linker_0, # of connection points: 2
#     Edge 154, Type (0, 0), BuildingBlock: MIFKUJ_clean_linker_0, # of connection points: 2
#     Edge 155, Type (0, 0), BuildingBlock: MIFKUJ_clean_linker_0, # of connection points: 2
#     Edge 156, Type (0, 0), BuildingBlock: MIFKUJ_clean_linker_0, # of connection points: 2
#     Edge 157, Type (0, 0), BuildingBlock: MIFKUJ_clean_linker_0, # of connection points: 2
#     Edge 158, Type (0, 0), BuildingBlock: MIFKUJ_clean_linker_0, # of connection points: 2
#     Edge 159, Type (0, 0), BuildingBlock: MIFKUJ_clean_linker_0, # of connection points: 2
#     Edge 160, Type (0, 0), BuildingBlock: MIFKUJ_clean_linker_0, # of connection points: 2
#     Edge 161, Type (0, 0), BuildingBlock: MIFKUJ_clean_linker_0, # of connection points: 2
#     Edge 162, Type (0, 0), BuildingBlock: MIFKUJ_clean_linker_0, # of connection points: 2
#     Edge 163, Type (0, 0), BuildingBlock: MIFKUJ_clean_linker_0, # of connection points: 2
#     Edge 164, Type (0, 0), BuildingBlock: MIFKUJ_clean_linker_0, # of connection points: 2
#     Edge 165, Type (0, 0), BuildingBlock: MIFKUJ_clean_linker_0, # of connection points: 2
#     Edge 166, Type (0, 0), BuildingBlock: MIFKUJ_clean_linker_0, # of connection points: 2
#     Edge 167, Type (0, 0), BuildingBlock: MIFKUJ_clean_linker_0, # of connection points: 2
#     Edge 168, Type (0, 0), BuildingBlock: MIFKUJ_clean_linker_0, # of connection points: 2
#     Edge 169, Type (0, 0), BuildingBlock: MIFKUJ_clean_linker_0, # of connection points: 2
#     Edge 170, Type (0, 0), BuildingBlock: MIFKUJ_clean_linker_0, # of connection points: 2
#     Edge 171, Type (0, 0), BuildingBlock: MIFKUJ_clean_linker_0, # of connection points: 2
#     Edge 172, Type (0, 0), BuildingBlock: MIFKUJ_clean_linker_0, # of connection points: 2
#     Edge 173, Type (0, 0), BuildingBlock: MIFKUJ_clean_linker_0, # of connection points: 2
#     Edge 174, Type (0, 0), BuildingBlock: MIFKUJ_clean_linker_0, # of connection points: 2
#     Edge 175, Type (0, 0), BuildingBlock: MIFKUJ_clean_linker_0, # of connection points: 2
#     Edge 176, Type (0, 0), BuildingBlock: MIFKUJ_clean_linker_0, # of connection points: 2
#     Edge 177, Type (0, 0), BuildingBlock: MIFKUJ_clean_linker_0, # of connection points: 2
#     Edge 178, Type (0, 0), BuildingBlock: MIFKUJ_clean_linker_0, # of connection points: 2
#     Edge 179, Type (0, 0), BuildingBlock: MIFKUJ_clean_linker_0, # of connection points: 2
#     Edge 180, Type (0, 0), BuildingBlock: MIFKUJ_clean_linker_0, # of connection points: 2
#     Edge 181, Type (0, 0), BuildingBlock: MIFKUJ_clean_linker_0, # of connection points: 2
#     Edge 182, Type (0, 0), BuildingBlock: MIFKUJ_clean_linker_0, # of connection points: 2
#     Edge 183, Type (0, 0), BuildingBlock: MIFKUJ_clean_linker_0, # of connection points: 2
#     Edge 184, Type (0, 0), BuildingBlock: MIFKUJ_clean_linker_0, # of connection points: 2
#     Edge 185, Type (0, 0), BuildingBlock: MIFKUJ_clean_linker_0, # of connection points: 2
#     Edge 186, Type (0, 0), BuildingBlock: MIFKUJ_clean_linker_0, # of connection points: 2
#     Edge 187, Type (0, 0), BuildingBlock: MIFKUJ_clean_linker_0, # of connection points: 2
#     Edge 188, Type (0, 0), BuildingBlock: MIFKUJ_clean_linker_0, # of connection points: 2
#     Edge 189, Type (0, 0), BuildingBlock: MIFKUJ_clean_linker_0, # of connection points: 2
#     Edge 190, Type (0, 0), BuildingBlock: MIFKUJ_clean_linker_0, # of connection points: 2
#     Edge 191, Type (0, 0), BuildingBlock: MIFKUJ_clean_linker_0, # of connection points: 2
#     Edge 192, Type (0, 0), BuildingBlock: MIFKUJ_clean_linker_0, # of connection points: 2
#     Edge 193, Type (0, 0), BuildingBlock: MIFKUJ_clean_linker_0, # of connection points: 2
#     Edge 194, Type (0, 0), BuildingBlock: MIFKUJ_clean_linker_0, # of connection points: 2
#     Edge 195, Type (0, 0), BuildingBlock: MIFKUJ_clean_linker_0, # of connection points: 2
#     Edge 196, Type (0, 0), BuildingBlock: MIFKUJ_clean_linker_0, # of connection points: 2
#     Edge 197, Type (0, 0), BuildingBlock: MIFKUJ_clean_linker_0, # of connection points: 2
#     Edge 198, Type (0, 0), BuildingBlock: MIFKUJ_clean_linker_0, # of connection points: 2
#     Edge 199, Type (0, 0), BuildingBlock: MIFKUJ_clean_linker_0, # of connection points: 2
#     Edge 200, Type (0, 0), BuildingBlock: MIFKUJ_clean_linker_0, # of connection points: 2
#     Edge 201, Type (0, 0), BuildingBlock: MIFKUJ_clean_linker_0, # of connection points: 2
#     Edge 202, Type (0, 0), BuildingBlock: MIFKUJ_clean_linker_0, # of connection points: 2
#     Edge 203, Type (0, 0), BuildingBlock: MIFKUJ_clean_linker_0, # of connection points: 2
#     Edge 204, Type (0, 0), BuildingBlock: MIFKUJ_clean_linker_0, # of connection points: 2
#     Edge 205, Type (0, 0), BuildingBlock: MIFKUJ_clean_linker_0, # of connection points: 2
#     Edge 206, Type (0, 0), BuildingBlock: MIFKUJ_clean_linker_0, # of connection points: 2
#     Edge 207, Type (0, 0), BuildingBlock: MIFKUJ_clean_linker_0, # of connection points: 2
#     Edge 208, Type (0, 0), BuildingBlock: MIFKUJ_clean_linker_0, # of connection points: 2
#     Edge 209, Type (0, 0), BuildingBlock: MIFKUJ_clean_linker_0, # of connection points: 2
#     Edge 210, Type (0, 0), BuildingBlock: MIFKUJ_clean_linker_0, # of connection points: 2
#     Edge 211, Type (0, 0), BuildingBlock: MIFKUJ_clean_linker_0, # of connection points: 2
#     Edge 212, Type (0, 0), BuildingBlock: MIFKUJ_clean_linker_0, # of connection points: 2
#     Edge 213, Type (0, 0), BuildingBlock: MIFKUJ_clean_linker_0, # of connection points: 2
#     Edge 214, Type (0, 0), BuildingBlock: MIFKUJ_clean_linker_0, # of connection points: 2
#     Edge 215, Type (0, 0), BuildingBlock: MIFKUJ_clean_linker_0, # of connection points: 2
#     Edge 216, Type (0, 0), BuildingBlock: MIFKUJ_clean_linker_0, # of connection points: 2
#     Edge 217, Type (0, 0), BuildingBlock: MIFKUJ_clean_linker_0, # of connection points: 2
#     Edge 218, Type (0, 0), BuildingBlock: MIFKUJ_clean_linker_0, # of connection points: 2
#     Edge 219, Type (0, 0), BuildingBlock: MIFKUJ_clean_linker_0, # of connection points: 2
#     Edge 220, Type (0, 0), BuildingBlock: MIFKUJ_clean_linker_0, # of connection points: 2
#     Edge 221, Type (0, 0), BuildingBlock: MIFKUJ_clean_linker_0, # of connection points: 2
#     Edge 222, Type (0, 0), BuildingBlock: MIFKUJ_clean_linker_0, # of connection points: 2
#     Edge 223, Type (0, 0), BuildingBlock: MIFKUJ_clean_linker_0, # of connection points: 2
#     Edge 224, Type (0, 0), BuildingBlock: MIFKUJ_clean_linker_0, # of connection points: 2
#     Edge 225, Type (0, 0), BuildingBlock: MIFKUJ_clean_linker_0, # of connection points: 2
#     Edge 226, Type (0, 0), BuildingBlock: MIFKUJ_clean_linker_0, # of connection points: 2
#     Edge 227, Type (0, 0), BuildingBlock: MIFKUJ_clean_linker_0, # of connection points: 2
#     Edge 228, Type (0, 0), BuildingBlock: MIFKUJ_clean_linker_0, # of connection points: 2
#     Edge 229, Type (0, 0), BuildingBlock: MIFKUJ_clean_linker_0, # of connection points: 2
#     Edge 230, Type (0, 0), BuildingBlock: MIFKUJ_clean_linker_0, # of connection points: 2
#     Edge 231, Type (0, 0), BuildingBlock: MIFKUJ_clean_linker_0, # of connection points: 2
#     Edge 232, Type (0, 0), BuildingBlock: MIFKUJ_clean_linker_0, # of connection points: 2
#     Edge 233, Type (0, 0), BuildingBlock: MIFKUJ_clean_linker_0, # of connection points: 2
#     Edge 234, Type (0, 0), BuildingBlock: MIFKUJ_clean_linker_0, # of connection points: 2
#     Edge 235, Type (0, 0), BuildingBlock: MIFKUJ_clean_linker_0, # of connection points: 2
#     Edge 236, Type (0, 0), BuildingBlock: MIFKUJ_clean_linker_0, # of connection points: 2
#     Edge 237, Type (0, 0), BuildingBlock: MIFKUJ_clean_linker_0, # of connection points: 2
#     Edge 238, Type (0, 0), BuildingBlock: MIFKUJ_clean_linker_0, # of connection points: 2
#     Edge 239, Type (0, 0), BuildingBlock: MIFKUJ_clean_linker_0, # of connection points: 2
# Relax obj value: 0.345
# Max RMSD: 0.232
# Mean RMSD: 0.205
data_MOF--net-pyc--node1-GIZVER_clean_sbu_0--edge1-MIFKUJ_clean_linker_0
_symmetry_space_group_name_H-M    P1
_symmetry_Int_Tables_number       1
_symmetry_cell_setting            triclinic
loop_
_symmetry_equiv_pos_as_xyz
'x, y, z'
_cell_length_a     83.518272
_cell_length_b     81.587439
_cell_length_c     79.850575
_cell_angle_alpha  90.567771
_cell_angle_beta   88.950381
_cell_angle_gamma 92.219435
loop_
_atom_site_label
_atom_site_type_symbol
_atom_site_fract_x
_atom_site_fract_y
_atom_site_fract_z
_atom_type_partial_charge
Co0 Co 0.1589 0.19044 0.44282 0.0
Co1 Co 0.15382 0.18415 0.47329 0.0
Co2 Co 0.15158 0.15034 0.45321 0.0
O3 O 0.14735 0.17379 0.45432 0.0
H4 H 0.13596 0.1752 0.45349 0.0
O5 O 0.1557 0.12674 0.45238 0.0
Co6 Co 0.14285 0.11169 0.46555 0.0
Co7 Co 0.1476 0.1164 0.43321 0.0
H8 H 0.167 0.12476 0.45314 0.0
O9 O 0.14285 0.2014 0.48172 0.0
O10 O 0.16484 0.20225 0.46453 0.0
O11 O 0.16709 0.17194 0.48771 0.0
O12 O 0.17032 0.15156 0.46933 0.0
O13 O 0.13574 0.14759 0.47282 0.0
O14 O 0.13249 0.09693 0.47766 0.0
O15 O 0.15849 0.09739 0.46959 0.0
O16 O 0.12455 0.12452 0.46371 0.0
O17 O 0.13045 0.14791 0.43835 0.0
O18 O 0.12989 0.12537 0.42232 0.0
O19 O 0.13728 0.09973 0.44492 0.0
O20 O 0.15689 0.09757 0.42538 0.0
C21 C 0.15233 0.21118 0.43175 0.0
C22 C 0.18129 0.16546 0.43537 0.0
C23 C 0.17403 0.15908 0.48298 0.0
C24 C 0.15515 0.20943 0.47518 0.0
C25 C 0.14632 0.09019 0.47745 0.0
C26 C 0.12388 0.13719 0.473 0.0
C27 C 0.1229 0.13771 0.42817 0.0
C28 C 0.14675 0.09078 0.43595 0.0
O29 O 0.16726 0.20707 0.431 0.0
O30 O 0.14192 0.20264 0.44067 0.0
O31 O 0.16971 0.15414 0.43445 0.0
O32 O 0.17849 0.17891 0.44299 0.0
Co33 Co 0.86327 0.41837 0.67822 0.0
Co34 Co 0.85744 0.42007 0.70733 0.0
Co35 Co 0.89536 0.41566 0.70162 0.0
O36 O 0.87288 0.40965 0.69704 0.0
H37 H 0.87085 0.39793 0.69778 0.0
O38 O 0.91821 0.42097 0.70647 0.0
Co39 Co 0.93116 0.40534 0.71708 0.0
Co40 Co 0.93102 0.41803 0.68757 0.0
H41 H 0.91981 0.43194 0.71097 0.0
O42 O 0.84149 0.4064 0.71439 0.0
O43 O 0.84243 0.42183 0.6907 0.0
O44 O 0.86457 0.43789 0.72206 0.0
O45 O 0.89034 0.43098 0.72188 0.0
O46 O 0.89493 0.39619 0.71695 0.0
O47 O 0.94368 0.39239 0.72752 0.0
O48 O 0.94489 0.42001 0.72728 0.0
O49 O 0.91842 0.38759 0.70858 0.0
O50 O 0.90027 0.39825 0.68232 0.0
O51 O 0.92387 0.40355 0.66999 0.0
O52 O 0.94561 0.40487 0.6972 0.0
O53 O 0.95009 0.42971 0.68539 0.0
C54 C 0.85282 0.40868 0.65772 0.0
C55 C 0.88341 0.44607 0.68478 0.0
C56 C 0.8787 0.4395 0.72777 0.0
C57 C 0.83467 0.41199 0.70119 0.0
C58 C 0.95043 0.40616 0.73239 0.0
C59 C 0.90482 0.3847 0.71555 0.0
C60 C 0.91152 0.39422 0.67175 0.0
C61 C 0.95547 0.41628 0.69134 0.0
O62 O 0.85476 0.42448 0.65947 0.0
O63 O 0.85628 0.39891 0.66983 0.0
O64 O 0.89546 0.43677 0.68691 0.0
O65 O 0.86938 0.43973 0.68448 0.0
Co66 Co 0.6584 0.18721 0.94392 0.0
Co67 Co 0.64928 0.17878 0.97282 0.0
Co68 Co 0.65001 0.1471 0.95103 0.0
O69 O 0.64499 0.17028 0.95234 0.0
H70 H 0.63385 0.17183 0.94997 0.0
O71 O 0.65496 0.12376 0.94999 0.0
Co72 Co 0.64265 0.10836 0.96319 0.0
Co73 Co 0.64703 0.1131 0.93121 0.0
H74 H 0.66634 0.12218 0.95063 0.0
O75 O 0.63706 0.19469 0.98119 0.0
O76 O 0.66091 0.19752 0.96705 0.0
O77 O 0.66164 0.16613 0.98777 0.0
O78 O 0.66821 0.14849 0.9677 0.0
O79 O 0.63381 0.1435 0.97004 0.0
O80 O 0.63278 0.09347 0.9754 0.0
O81 O 0.65896 0.09512 0.96807 0.0
O82 O 0.62364 0.12009 0.96062 0.0
O83 O 0.62936 0.14452 0.93551 0.0
O84 O 0.62857 0.12104 0.92097 0.0
O85 O 0.63829 0.09548 0.94271 0.0
O86 O 0.65784 0.09571 0.92277 0.0
C87 C 0.65451 0.20872 0.93308 0.0
C88 C 0.68013 0.16312 0.9361 0.0
C89 C 0.67028 0.15476 0.9823 0.0
C90 C 0.64987 0.20344 0.97709 0.0
C91 C 0.64695 0.08754 0.97586 0.0
C92 C 0.62228 0.13276 0.96981 0.0
C93 C 0.62175 0.1338 0.92597 0.0
C94 C 0.64853 0.08777 0.93335 0.0
O95 O 0.6691 0.20409 0.935 0.0
O96 O 0.6424 0.20022 0.93941 0.0
O97 O 0.66858 0.15216 0.93304 0.0
O98 O 0.67709 0.17472 0.94641 0.0
Co99 Co 0.86368 0.92069 0.18401 0.0
Co100 Co 0.86074 0.91239 0.21346 0.0
Co101 Co 0.8979 0.91472 0.20215 0.0
O102 O 0.87555 0.90776 0.19803 0.0
H103 H 0.87456 0.89622 0.19521 0.0
O104 O 0.92058 0.92113 0.20604 0.0
Co105 Co 0.93456 0.907 0.21704 0.0
Co106 Co 0.93297 0.91763 0.1871 0.0
H107 H 0.92186 0.93242 0.20973 0.0
O108 O 0.84427 0.89759 0.21608 0.0
O109 O 0.84511 0.92056 0.20018 0.0
O110 O 0.86783 0.92642 0.23153 0.0
O111 O 0.89308 0.93056 0.22214 0.0
O112 O 0.89864 0.8959 0.2181 0.0
O113 O 0.94821 0.89551 0.22786 0.0
O114 O 0.94741 0.92306 0.22598 0.0
O115 O 0.92253 0.88797 0.20999 0.0
O116 O 0.90288 0.89668 0.18351 0.0
O117 O 0.92617 0.9018 0.17062 0.0
O118 O 0.94872 0.90613 0.1968 0.0
O119 O 0.95092 0.9304 0.18317 0.0
C120 C 0.84996 0.91625 0.1638 0.0
C121 C 0.88518 0.94555 0.18919 0.0
C122 C 0.88164 0.9334 0.23281 0.0
C123 C 0.83718 0.908 0.20675 0.0
C124 C 0.95392 0.91003 0.23179 0.0
C125 C 0.90893 0.88477 0.21691 0.0
C126 C 0.91408 0.89229 0.17309 0.0
C127 C 0.95736 0.91739 0.1889 0.0
O128 O 0.85253 0.93114 0.16936 0.0
O129 O 0.85511 0.90389 0.17212 0.0
O130 O 0.89654 0.9353 0.18675 0.0
O131 O 0.87166 0.93993 0.19436 0.0
Co132 Co 0.1146 0.15705 0.82434 0.0
Co133 Co 0.12061 0.1511 0.7945 0.0
Co134 Co 0.11733 0.1169 0.81361 0.0
O135 O 0.12398 0.14005 0.81311 0.0
H136 H 0.13544 0.14086 0.8146 0.0
O137 O 0.11204 0.0925 0.81346 0.0
Co138 Co 0.12611 0.07988 0.79878 0.0
Co139 Co 0.12123 0.07961 0.82934 0.0
H140 H 0.10077 0.0899 0.81197 0.0
O141 O 0.13609 0.1653 0.78702 0.0
O142 O 0.11393 0.17076 0.80296 0.0
O143 O 0.10589 0.141 0.77936 0.0
O144 O 0.10112 0.11806 0.79417 0.0
O145 O 0.13544 0.11438 0.79675 0.0
O146 O 0.13724 0.06856 0.78432 0.0
O147 O 0.11054 0.06698 0.78881 0.0
O148 O 0.14454 0.09164 0.80613 0.0
O149 O 0.13588 0.11544 0.83238 0.0
O150 O 0.13899 0.08964 0.84097 0.0
O151 O 0.12994 0.06309 0.81607 0.0
O152 O 0.11142 0.06044 0.83705 0.0
C153 C 0.12347 0.17595 0.83811 0.0
C154 C 0.08724 0.13462 0.82667 0.0
C155 C 0.09834 0.12742 0.78164 0.0
C156 C 0.12601 0.17565 0.79318 0.0
C157 C 0.12319 0.06293 0.77997 0.0
C158 C 0.14709 0.10504 0.79858 0.0
C159 C 0.14409 0.10446 0.84031 0.0
C160 C 0.12186 0.05402 0.82693 0.0
O161 O 0.108 0.17388 0.83657 0.0
O162 O 0.13312 0.16671 0.82971 0.0
O163 O 0.09655 0.12208 0.82903 0.0
O164 O 0.09353 0.14784 0.82054 0.0
Co165 Co 0.85624 0.37916 0.09213 0.0
Co166 Co 0.84943 0.38094 0.06355 0.0
Co167 Co 0.88745 0.38242 0.06559 0.0
O168 O 0.86641 0.38955 0.07374 0.0
H169 H 0.86593 0.40136 0.07424 0.0
O170 O 0.90884 0.37569 0.05768 0.0
Co171 Co 0.92109 0.38755 0.04106 0.0
Co172 Co 0.92475 0.38167 0.07264 0.0
H173 H 0.90896 0.36399 0.0557 0.0
O174 O 0.83517 0.39532 0.05861 0.0
O175 O 0.83475 0.37729 0.08043 0.0
O176 O 0.85245 0.3623 0.04944 0.0
O177 O 0.87916 0.36439 0.04976 0.0
O178 O 0.88609 0.3996 0.04698 0.0
O179 O 0.9331 0.39672 0.02499 0.0
O180 O 0.93195 0.37028 0.03313 0.0
O181 O 0.91154 0.40746 0.04714 0.0
O182 O 0.89614 0.4021 0.08023 0.0
O183 O 0.92118 0.39918 0.08815 0.0
O184 O 0.93793 0.39239 0.0573 0.0
O185 O 0.94362 0.37066 0.073 0.0
C186 C 0.84571 0.38653 0.11366 0.0
C187 C 0.87552 0.35324 0.08615 0.0
C188 C 0.86605 0.35734 0.0449 0.0
C189 C 0.82764 0.38781 0.07093 0.0
C190 C 0.938 0.38185 0.02347 0.0
C191 C 0.89729 0.41017 0.0431 0.0
C192 C 0.90895 0.40779 0.08745 0.0
C193 C 0.94826 0.38251 0.06309 0.0
O194 O 0.8473 0.37108 0.11032 0.0
O195 O 0.85022 0.39766 0.10275 0.0
O196 O 0.88774 0.36347 0.08361 0.0
O197 O 0.86162 0.35842 0.08371 0.0
Co198 Co 0.61797 0.15633 0.32484 0.0
Co199 Co 0.62303 0.15275 0.2949 0.0
Co200 Co 0.61962 0.11703 0.3111 0.0
O201 O 0.62676 0.14011 0.31186 0.0
H202 H 0.63827 0.14066 0.31291 0.0
O203 O 0.61413 0.09258 0.31035 0.0
Co204 Co 0.62772 0.07831 0.29661 0.0
Co205 Co 0.62194 0.08006 0.32792 0.0
H206 H 0.60282 0.09034 0.30869 0.0
O207 O 0.6388 0.16644 0.28748 0.0
O208 O 0.61766 0.17207 0.30494 0.0
O209 O 0.60732 0.14433 0.28034 0.0
O210 O 0.60354 0.11929 0.29142 0.0
O211 O 0.6379 0.11473 0.29434 0.0
O212 O 0.63827 0.06487 0.28335 0.0
O213 O 0.61177 0.06425 0.28906 0.0
O214 O 0.64656 0.0909 0.30184 0.0
O215 O 0.63803 0.11491 0.32964 0.0
O216 O 0.63954 0.08972 0.34016 0.0
O217 O 0.63213 0.06385 0.31573 0.0
O218 O 0.61218 0.06016 0.33484 0.0
C219 C 0.62733 0.17372 0.34028 0.0
C220 C 0.58982 0.13496 0.32523 0.0
C221 C 0.60004 0.13042 0.28069 0.0
C222 C 0.62937 0.17689 0.2946 0.0
C223 C 0.62406 0.05837 0.28091 0.0
C224 C 0.64921 0.10476 0.29514 0.0
C225 C 0.64552 0.10411 0.33843 0.0
C226 C 0.62362 0.05426 0.32569 0.0
O227 O 0.61184 0.17213 0.33862 0.0
O228 O 0.63679 0.16493 0.33111 0.0
O229 O 0.59867 0.1219 0.32659 0.0
O230 O 0.5967 0.14833 0.32022 0.0
Co231 Co 0.85616 0.88012 0.59141 0.0
Co232 Co 0.85061 0.88411 0.56236 0.0
Co233 Co 0.88875 0.88432 0.56671 0.0
O234 O 0.86737 0.89131 0.5741 0.0
H235 H 0.86716 0.90309 0.57537 0.0
O236 O 0.9101 0.87728 0.5592 0.0
Co237 Co 0.92181 0.88775 0.54135 0.0
Co238 Co 0.92648 0.88444 0.57247 0.0
H239 H 0.91025 0.86547 0.55818 0.0
O240 O 0.83566 0.89858 0.55881 0.0
O241 O 0.83551 0.87819 0.57824 0.0
O242 O 0.85442 0.86739 0.54601 0.0
O243 O 0.8809 0.86762 0.54954 0.0
O244 O 0.8885 0.90225 0.54892 0.0
O245 O 0.93302 0.89577 0.52419 0.0
O246 O 0.93032 0.86944 0.5325 0.0
O247 O 0.91442 0.90854 0.54814 0.0
O248 O 0.89704 0.90327 0.58286 0.0
O249 O 0.92365 0.90385 0.5852 0.0
O250 O 0.94071 0.89068 0.5558 0.0
O251 O 0.94281 0.87074 0.57509 0.0
C252 C 0.84472 0.88701 0.61256 0.0
C253 C 0.87587 0.85422 0.58572 0.0
C254 C 0.86816 0.86211 0.54245 0.0
C255 C 0.82798 0.88889 0.56934 0.0
C256 C 0.93654 0.88049 0.52231 0.0
C257 C 0.90018 0.91219 0.54487 0.0
C258 C 0.91038 0.91058 0.58745 0.0
C259 C 0.9487 0.87904 0.56244 0.0
O260 O 0.84622 0.87158 0.60892 0.0
O261 O 0.84955 0.89832 0.60202 0.0
O262 O 0.88816 0.8645 0.58387 0.0
O263 O 0.8621 0.85947 0.58275 0.0
Co264 Co 0.48016 0.10742 0.11128 0.0
Co265 Co 0.45056 0.11015 0.11325 0.0
Co266 Co 0.46787 0.14795 0.11765 0.0
O267 O 0.46674 0.1232 0.12232 0.0
H268 H 0.46656 0.12142 0.13427 0.0
O269 O 0.46829 0.17335 0.11406 0.0
Co270 Co 0.4593 0.18999 0.13094 0.0
Co271 Co 0.4884 0.18236 0.12075 0.0
H272 H 0.46616 0.17613 0.1026 0.0
O273 O 0.44125 0.09155 0.12344 0.0
O274 O 0.46115 0.09204 0.10399 0.0
O275 O 0.43914 0.12162 0.09713 0.0
O276 O 0.45151 0.14664 0.09849 0.0
O277 O 0.4507 0.15073 0.13517 0.0
O278 O 0.4513 0.20574 0.14547 0.0
O279 O 0.45528 0.20941 0.11818 0.0
O280 O 0.46152 0.1734 0.14704 0.0
O281 O 0.48433 0.14814 0.1366 0.0
O282 O 0.50183 0.1693 0.13437 0.0
O283 O 0.4811 0.19867 0.13485 0.0
O284 O 0.49628 0.20191 0.11148 0.0
C285 C 0.49206 0.08709 0.11836 0.0
C286 C 0.48768 0.13349 0.08953 0.0
C287 C 0.44123 0.13626 0.092 0.0
C288 C 0.45026 0.08362 0.11294 0.0
C289 C 0.4508 0.21558 0.1328 0.0
C290 C 0.45265 0.16033 0.14783 0.0
C291 C 0.49724 0.15589 0.14115 0.0
C292 C 0.48908 0.20822 0.12443 0.0
O293 O 0.49326 0.09258 0.10312 0.0
O294 O 0.48297 0.09452 0.12929 0.0
O295 O 0.48574 0.14524 0.1002 0.0
O296 O 0.47978 0.11981 0.09103 0.0
Co297 Co 0.87508 0.70622 0.40533 0.0
Co298 Co 0.88924 0.73064 0.38955 0.0
Co299 Co 0.88426 0.70461 0.36349 0.0
O300 O 0.8895 0.70774 0.38696 0.0
H301 H 0.89998 0.70389 0.38943 0.0
O302 O 0.87912 0.70282 0.33925 0.0
Co303 Co 0.89199 0.71659 0.32398 0.0
Co304 Co 0.8887 0.6865 0.32744 0.0
H305 H 0.86775 0.703 0.33726 0.0
O306 O 0.90083 0.74096 0.40581 0.0
O307 O 0.87519 0.73088 0.40758 0.0
O308 O 0.8795 0.74446 0.37303 0.0
O309 O 0.86669 0.72195 0.36445 0.0
O310 O 0.90164 0.72179 0.35882 0.0
O311 O 0.90235 0.72968 0.30977 0.0
O312 O 0.87574 0.72431 0.31133 0.0
O313 O 0.91091 0.71174 0.33515 0.0
O314 O 0.90414 0.68749 0.36237 0.0
O315 O 0.9075 0.67727 0.33646 0.0
O316 O 0.89508 0.69778 0.30837 0.0
O317 O 0.87707 0.67633 0.31124 0.0
C318 C 0.87773 0.70471 0.43018 0.0
C319 C 0.85325 0.69338 0.3809 0.0
C320 C 0.86715 0.73757 0.36681 0.0
C321 C 0.88701 0.74006 0.41357 0.0
C322 C 0.88808 0.73248 0.30467 0.0
C323 C 0.91328 0.71983 0.34858 0.0
C324 C 0.91278 0.67936 0.35114 0.0
C325 C 0.88531 0.68663 0.30185 0.0
O326 O 0.86349 0.70467 0.42385 0.0
O327 O 0.89045 0.70577 0.42052 0.0
O328 O 0.86454 0.68863 0.37034 0.0
O329 O 0.85655 0.70513 0.39118 0.0
Co330 Co 0.32658 0.13597 0.69415 0.0
Co331 Co 0.30299 0.14821 0.67896 0.0
Co332 Co 0.32889 0.14579 0.65242 0.0
O333 O 0.3253 0.1513 0.67635 0.0
H334 H 0.32888 0.16236 0.67921 0.0
O335 O 0.33073 0.13951 0.62851 0.0
Co336 Co 0.31692 0.14943 0.61274 0.0
Co337 Co 0.34599 0.14994 0.61644 0.0
H338 H 0.33125 0.12778 0.62693 0.0
O339 O 0.29196 0.15845 0.69553 0.0
O340 O 0.30212 0.13308 0.69614 0.0
O341 O 0.29025 0.13825 0.6608 0.0
O342 O 0.31254 0.12672 0.65282 0.0
O343 O 0.31193 0.16127 0.64758 0.0
O344 O 0.30364 0.15697 0.59816 0.0
O345 O 0.3106 0.13078 0.60111 0.0
O346 O 0.32028 0.17043 0.62293 0.0
O347 O 0.345 0.16732 0.65094 0.0
O348 O 0.35454 0.17019 0.62465 0.0
O349 O 0.33547 0.15331 0.59689 0.0
O350 O 0.35674 0.13745 0.60241 0.0
C351 C 0.32795 0.13766 0.71954 0.0
C352 C 0.34036 0.11595 0.66825 0.0
C353 C 0.29729 0.12678 0.6533 0.0
C354 C 0.29196 0.14382 0.70187 0.0
C355 C 0.30166 0.1416 0.59417 0.0
C356 C 0.31338 0.17275 0.63704 0.0
C357 C 0.35258 0.17608 0.63922 0.0
C358 C 0.34693 0.14369 0.59192 0.0
O359 O 0.32825 0.12353 0.71187 0.0
O360 O 0.32626 0.15099 0.71094 0.0
O361 O 0.3451 0.12814 0.65866 0.0
O362 O 0.32864 0.11789 0.67861 0.0
Co363 Co 0.92235 0.55824 0.90676 0.0
Co364 Co 0.92029 0.58864 0.90507 0.0
Co365 Co 0.88273 0.57129 0.90214 0.0
O366 O 0.90693 0.57193 0.89664 0.0
H367 H 0.90845 0.57179 0.88462 0.0
O368 O 0.85779 0.57136 0.90654 0.0
Co369 Co 0.84107 0.57765 0.88906 0.0
Co370 Co 0.85071 0.55005 0.90117 0.0
H371 H 0.85496 0.5743 0.91793 0.0
O372 O 0.93965 0.59692 0.89504 0.0
O373 O 0.93745 0.5777 0.91493 0.0
O374 O 0.90911 0.60083 0.92143 0.0
O375 O 0.88512 0.58712 0.92249 0.0
O376 O 0.88029 0.58998 0.88655 0.0
O377 O 0.82524 0.58321 0.874 0.0
O378 O 0.82053 0.57835 0.90091 0.0
O379 O 0.8588 0.5788 0.87401 0.0
O380 O 0.88098 0.55554 0.88172 0.0
O381 O 0.86565 0.53488 0.89119 0.0
O382 O 0.83685 0.55419 0.88401 0.0
O383 O 0.83126 0.54165 0.90873 0.0
C384 C 0.94213 0.54655 0.8984 0.0
C385 C 0.89637 0.54965 0.9286 0.0
C386 C 0.89532 0.59812 0.92811 0.0
C387 C 0.94662 0.58811 0.90603 0.0
C388 C 0.81478 0.58228 0.88625 0.0
C389 C 0.86948 0.59032 0.87542 0.0
C390 C 0.87537 0.54071 0.8802 0.0
C391 C 0.82769 0.54451 0.89328 0.0
O392 O 0.93686 0.54471 0.91374 0.0
O393 O 0.93491 0.55627 0.88838 0.0
O394 O 0.88508 0.5521 0.91817 0.0
O395 O 0.9099 0.5576 0.92734 0.0
Co396 Co 0.2028 0.43895 0.11443 0.0
Co397 Co 0.19233 0.46688 0.10704 0.0
Co398 Co 0.16316 0.44272 0.10804 0.0
O399 O 0.18588 0.44553 0.10185 0.0
H400 H 0.18763 0.44329 0.09007 0.0
O401 O 0.14009 0.44115 0.11376 0.0
Co402 Co 0.12588 0.45448 0.10135 0.0
Co403 Co 0.12916 0.42282 0.1056 0.0
H404 H 0.13817 0.44199 0.1257 0.0
O405 O 0.20975 0.47723 0.09683 0.0
O406 O 0.20908 0.46254 0.12084 0.0
O407 O 0.17749 0.48029 0.11996 0.0
O408 O 0.16453 0.4576 0.12832 0.0
O409 O 0.16029 0.4619 0.09383 0.0
O410 O 0.11174 0.46698 0.09214 0.0
O411 O 0.11188 0.45777 0.11864 0.0
O412 O 0.13857 0.45341 0.08111 0.0
O413 O 0.16108 0.42781 0.08659 0.0
O414 O 0.13966 0.41062 0.08857 0.0
O415 O 0.11414 0.43449 0.09443 0.0
O416 O 0.10939 0.41588 0.11466 0.0
C417 C 0.22543 0.43311 0.10868 0.0
C418 C 0.17718 0.42711 0.13614 0.0
C419 C 0.16789 0.47288 0.13007 0.0
C420 C 0.21585 0.47379 0.11117 0.0
C421 C 0.10544 0.46657 0.10714 0.0
C422 C 0.15227 0.46064 0.08065 0.0
C423 C 0.15192 0.4161 0.08053 0.0
C424 C 0.10415 0.42595 0.10372 0.0
O425 O 0.22008 0.43187 0.12407 0.0
O426 O 0.21672 0.43953 0.09731 0.0
O427 O 0.16732 0.42422 0.12411 0.0
O428 O 0.18957 0.43658 0.13391 0.0
Co429 Co 0.61715 0.34068 0.15063 0.0
Co430 Co 0.617 0.31136 0.14043 0.0
Co431 Co 0.65288 0.32534 0.14715 0.0
O432 O 0.63145 0.32831 0.13766 0.0
H433 H 0.63201 0.33151 0.12603 0.0
O434 O 0.6741 0.3228 0.15694 0.0
Co435 Co 0.68735 0.30556 0.15074 0.0
Co436 Co 0.69003 0.335 0.14763 0.0
H437 H 0.67379 0.32445 0.16894 0.0
O438 O 0.60065 0.30847 0.12553 0.0
O439 O 0.6004 0.32286 0.14981 0.0
O440 O 0.62271 0.29491 0.15587 0.0
O441 O 0.64588 0.30716 0.16353 0.0
O442 O 0.65619 0.30827 0.12927 0.0
O443 O 0.69939 0.28898 0.14671 0.0
O444 O 0.69324 0.3005 0.17174 0.0
O445 O 0.68272 0.30811 0.12791 0.0
O446 O 0.66013 0.34302 0.12939 0.0
O447 O 0.68662 0.34225 0.12541 0.0
O448 O 0.70654 0.32105 0.1485 0.0
O449 O 0.70291 0.34538 0.16219 0.0
C450 C 0.60131 0.35799 0.14611 0.0
C451 C 0.63693 0.33899 0.1763 0.0
C452 C 0.63476 0.29594 0.16535 0.0
C453 C 0.59296 0.31686 0.13679 0.0
C454 C 0.7002 0.28916 0.16292 0.0
C455 C 0.66912 0.3045 0.12169 0.0
C456 C 0.67291 0.34549 0.12012 0.0
C457 C 0.71151 0.33275 0.15877 0.0
O458 O 0.60393 0.35324 0.16124 0.0
O459 O 0.60835 0.35099 0.13334 0.0
O460 O 0.64898 0.3418 0.16635 0.0
O461 O 0.62455 0.33186 0.17034 0.0
Co462 Co 0.72423 0.86438 0.41731 0.0
Co463 Co 0.69603 0.87481 0.41199 0.0
Co464 Co 0.71369 0.87461 0.37602 0.0
O465 O 0.71549 0.87885 0.40087 0.0
H466 H 0.71898 0.8901 0.40301 0.0
O467 O 0.71174 0.87025 0.35101 0.0
Co468 Co 0.70452 0.88716 0.33598 0.0
Co469 Co 0.73193 0.8732 0.34062 0.0
H470 H 0.70708 0.8595 0.34851 0.0
O471 O 0.69066 0.8833 0.4329 0.0
O472 O 0.70199 0.85916 0.4276 0.0
O473 O 0.67893 0.86703 0.39796 0.0
O474 O 0.69569 0.85752 0.37853 0.0
O475 O 0.69786 0.89287 0.37454 0.0
O476 O 0.69737 0.90148 0.32126 0.0
O477 O 0.69764 0.87411 0.31828 0.0
O478 O 0.71034 0.90299 0.35216 0.0
O479 O 0.73163 0.89171 0.37364 0.0
O480 O 0.74866 0.88363 0.3537 0.0
O481 O 0.72608 0.88911 0.32568 0.0
O482 O 0.73638 0.8648 0.31924 0.0
C483 C 0.73234 0.86738 0.44125 0.0
C484 C 0.73166 0.84581 0.38811 0.0
C485 C 0.68169 0.85806 0.38527 0.0
C486 C 0.69485 0.8691 0.43819 0.0
C487 C 0.69439 0.88844 0.31217 0.0
C488 C 0.70045 0.90469 0.36424 0.0
C489 C 0.74517 0.89295 0.36594 0.0
C490 C 0.73159 0.87896 0.31454 0.0
O491 O 0.73263 0.85312 0.4338 0.0
O492 O 0.72732 0.87997 0.43319 0.0
O493 O 0.73004 0.85702 0.37719 0.0
O494 O 0.72335 0.84586 0.40179 0.0
Co495 Co 0.19527 0.94645 0.61355 0.0
Co496 Co 0.17938 0.97112 0.60596 0.0
Co497 Co 0.15482 0.94211 0.60995 0.0
O498 O 0.17638 0.94894 0.60186 0.0
H499 H 0.17772 0.94673 0.59002 0.0
O500 O 0.13279 0.93632 0.61819 0.0
Co501 Co 0.11568 0.94747 0.60798 0.0
Co502 Co 0.12328 0.91751 0.61025 0.0
H503 H 0.13201 0.9365 0.63028 0.0
O504 O 0.19351 0.98403 0.59385 0.0
O505 O 0.19789 0.97097 0.61818 0.0
O506 O 0.16342 0.98194 0.61941 0.0
O507 O 0.15453 0.95806 0.62956 0.0
O508 O 0.14711 0.95917 0.59499 0.0
O509 O 0.09936 0.9581 0.60054 0.0
O510 O 0.10402 0.95091 0.62712 0.0
O511 O 0.12538 0.94606 0.58649 0.0
O512 O 0.15426 0.92618 0.58915 0.0
O513 O 0.13283 0.90886 0.59046 0.0
O514 O 0.10452 0.92649 0.60332 0.0
O515 O 0.10712 0.90632 0.62208 0.0
C516 C 0.21849 0.94513 0.60647 0.0
C517 C 0.17397 0.93036 0.63707 0.0
C518 C 0.15559 0.9737 0.63037 0.0
C519 C 0.20176 0.98255 0.60738 0.0
C520 C 0.09545 0.95858 0.61635 0.0
C521 C 0.13741 0.95551 0.58345 0.0
C522 C 0.1451 0.91468 0.58265 0.0
C523 C 0.09817 0.91512 0.61287 0.0
O524 O 0.21429 0.94368 0.6222 0.0
O525 O 0.20791 0.94843 0.59536 0.0
O526 O 0.16378 0.92564 0.6259 0.0
O527 O 0.18367 0.94264 0.63432 0.0
Co528 Co 0.59231 0.3339 0.37469 0.0
Co529 Co 0.56516 0.34243 0.38391 0.0
Co530 Co 0.58807 0.37378 0.38317 0.0
O531 O 0.58512 0.35042 0.3887 0.0
H532 H 0.58729 0.34854 0.40036 0.0
O533 O 0.59013 0.39738 0.37793 0.0
Co534 Co 0.57854 0.412 0.39206 0.0
Co535 Co 0.60852 0.40816 0.38464 0.0
H536 H 0.58868 0.3994 0.36617 0.0
O537 O 0.55608 0.32576 0.39594 0.0
O538 O 0.56955 0.32428 0.37094 0.0
O539 O 0.55121 0.35716 0.37286 0.0
O540 O 0.57188 0.37329 0.36473 0.0
O541 O 0.57042 0.37724 0.39954 0.0
O542 O 0.56723 0.42639 0.40308 0.0
O543 O 0.57393 0.42614 0.37562 0.0
O544 O 0.5812 0.39904 0.41146 0.0
O545 O 0.60406 0.37532 0.40305 0.0
O546 O 0.62106 0.39699 0.40015 0.0
O547 O 0.59851 0.42409 0.39734 0.0
O548 O 0.61576 0.42801 0.3756 0.0
C549 C 0.60225 0.3126 0.37887 0.0
C550 C 0.60106 0.35932 0.35284 0.0
C551 C 0.55706 0.36893 0.36415 0.0
C552 C 0.55917 0.31804 0.38197 0.0
C553 C 0.56599 0.43247 0.38819 0.0
C554 C 0.57184 0.3865 0.41222 0.0
C555 C 0.61596 0.38453 0.4083 0.0
C556 C 0.60747 0.4338 0.38807 0.0
O557 O 0.60078 0.31754 0.36354 0.0
O558 O 0.59524 0.32003 0.3913 0.0
O559 O 0.60492 0.36917 0.36499 0.0
O560 O 0.59112 0.34731 0.3555 0.0
Co561 Co 0.10994 0.83892 0.14135 0.0
Co562 Co 0.10891 0.80852 0.14317 0.0
Co563 Co 0.14616 0.82332 0.14449 0.0
O564 O 0.12426 0.82237 0.13504 0.0
H565 H 0.1248 0.8209 0.12302 0.0
O566 O 0.16789 0.82456 0.15383 0.0
Co567 Co 0.18527 0.81284 0.14529 0.0
Co568 Co 0.17922 0.84268 0.14609 0.0
H569 H 0.16755 0.82465 0.16594 0.0
O570 O 0.09206 0.80061 0.13016 0.0
O571 O 0.09268 0.82271 0.14735 0.0
O572 O 0.11517 0.79811 0.1629 0.0
O573 O 0.14106 0.80677 0.16337 0.0
O574 O 0.15208 0.80503 0.12868 0.0
O575 O 0.20185 0.8017 0.13877 0.0
O576 O 0.19469 0.80906 0.16512 0.0
O577 O 0.17704 0.81427 0.12352 0.0
O578 O 0.15054 0.83902 0.12424 0.0
O579 O 0.17416 0.85224 0.12505 0.0
O580 O 0.19861 0.83374 0.14289 0.0
O581 O 0.19109 0.85372 0.1612 0.0
C582 C 0.09456 0.8526 0.12893 0.0
C583 C 0.12865 0.84131 0.1708 0.0
C584 C 0.12889 0.79852 0.16955 0.0
C585 C 0.08472 0.81227 0.13801 0.0
C586 C 0.20435 0.80162 0.15477 0.0
C587 C 0.16511 0.8047 0.11996 0.0
C588 C 0.1614 0.84858 0.11736 0.0
C589 C 0.20211 0.84488 0.15434 0.0
O590 O 0.09678 0.85469 0.14488 0.0
O591 O 0.10218 0.84145 0.12057 0.0
O592 O 0.14143 0.84139 0.16171 0.0
O593 O 0.11544 0.83795 0.16396 0.0
Co594 Co 0.09336 0.33424 0.875 0.0
Co595 Co 0.06556 0.34205 0.88196 0.0
Co596 Co 0.08729 0.37436 0.87969 0.0
O597 O 0.08492 0.3515 0.88693 0.0
H598 H 0.08659 0.35069 0.89883 0.0
O599 O 0.08845 0.3975 0.87247 0.0
Co600 Co 0.07435 0.41206 0.88384 0.0
Co601 Co 0.10489 0.41069 0.87971 0.0
H602 H 0.08793 0.39838 0.86043 0.0
O603 O 0.05659 0.32701 0.89592 0.0
O604 O 0.07119 0.32276 0.87191 0.0
O605 O 0.05188 0.35378 0.86746 0.0
O606 O 0.07129 0.37223 0.86123 0.0
O607 O 0.06952 0.37816 0.89585 0.0
O608 O 0.0607 0.42595 0.89233 0.0
O609 O 0.06908 0.42345 0.86542 0.0
O610 O 0.07764 0.40228 0.90491 0.0
O611 O 0.10343 0.37763 0.8994 0.0
O612 O 0.11613 0.40232 0.898 0.0
O613 O 0.09245 0.42713 0.88829 0.0
O614 O 0.11136 0.42939 0.86791 0.0
C615 C 0.10422 0.31415 0.88175 0.0
C616 C 0.10093 0.35802 0.85065 0.0
C617 C 0.05748 0.3656 0.85869 0.0
C618 C 0.06042 0.31775 0.88321 0.0
C619 C 0.05992 0.43022 0.87675 0.0
C620 C 0.06991 0.38888 0.90736 0.0
C621 C 0.11335 0.38877 0.90538 0.0
C622 C 0.10079 0.43605 0.87769 0.0
O623 O 0.10296 0.31744 0.86592 0.0
O624 O 0.09666 0.32246 0.89315 0.0
O625 O 0.10426 0.36899 0.86195 0.0
O626 O 0.09186 0.34555 0.85428 0.0
Co627 Co 0.11188 0.65421 0.32276 0.0
Co628 Co 0.11934 0.65017 0.29335 0.0
Co629 Co 0.1172 0.61514 0.3111 0.0
O630 O 0.12318 0.63855 0.31123 0.0
H631 H 0.13454 0.63996 0.3132 0.0
O632 O 0.11257 0.59058 0.31068 0.0
Co633 Co 0.12739 0.57752 0.29724 0.0
Co634 Co 0.12068 0.57833 0.32808 0.0
H635 H 0.10142 0.58779 0.30863 0.0
O636 O 0.13461 0.66463 0.28656 0.0
O637 O 0.1122 0.6695 0.30242 0.0
O638 O 0.10569 0.63969 0.27738 0.0
O639 O 0.1012 0.61621 0.29144 0.0
O640 O 0.13556 0.6131 0.29437 0.0
O641 O 0.13923 0.56527 0.28413 0.0
O642 O 0.11243 0.56339 0.28804 0.0
O643 O 0.1453 0.59066 0.30406 0.0
O644 O 0.13559 0.61389 0.32991 0.0
O645 O 0.13761 0.58875 0.34058 0.0
O646 O 0.13127 0.56221 0.31593 0.0
O647 O 0.11128 0.55844 0.33503 0.0
C648 C 0.11809 0.67143 0.33941 0.0
C649 C 0.08623 0.63155 0.3238 0.0
C650 C 0.09852 0.62579 0.27904 0.0
C651 C 0.12439 0.67474 0.29291 0.0
C652 C 0.12544 0.55852 0.2804 0.0
C653 C 0.1474 0.6039 0.29602 0.0
C654 C 0.14319 0.60331 0.33895 0.0
C655 C 0.12267 0.55254 0.32577 0.0
O656 O 0.10309 0.66915 0.33556 0.0
O657 O 0.12934 0.6644 0.33088 0.0
O658 O 0.09616 0.61957 0.32643 0.0
O659 O 0.09179 0.6444 0.31642 0.0
Co660 Co 0.35837 0.88253 0.09603 0.0
Co661 Co 0.35243 0.87289 0.06934 0.0
Co662 Co 0.38929 0.88106 0.06763 0.0
O663 O 0.36773 0.88719 0.07486 0.0
H664 H 0.36535 0.89805 0.07112 0.0
O665 O 0.41104 0.87534 0.05989 0.0
Co666 Co 0.42359 0.88932 0.04515 0.0
Co667 Co 0.42583 0.88051 0.0763 0.0
H668 H 0.41158 0.86388 0.05681 0.0
O669 O 0.33735 0.88227 0.05839 0.0
O670 O 0.33725 0.87431 0.08589 0.0
O671 O 0.35878 0.8518 0.06137 0.0
O672 O 0.38169 0.86303 0.0513 0.0
O673 O 0.38788 0.89835 0.04911 0.0
O674 O 0.43597 0.90066 0.03112 0.0
O675 O 0.43581 0.87353 0.03605 0.0
O676 O 0.4125 0.90781 0.05237 0.0
O677 O 0.39714 0.90084 0.08286 0.0
O678 O 0.42103 0.89648 0.09321 0.0
O679 O 0.43922 0.89321 0.06281 0.0
O680 O 0.44504 0.87019 0.07639 0.0
C681 C 0.34629 0.89551 0.11343 0.0
C682 C 0.37826 0.85372 0.09251 0.0
C683 C 0.37142 0.85094 0.05242 0.0
C684 C 0.32991 0.87947 0.07261 0.0
C685 C 0.44189 0.88641 0.02826 0.0
C686 C 0.39882 0.90948 0.04616 0.0
C687 C 0.40944 0.90582 0.09141 0.0
C688 C 0.44964 0.88306 0.06788 0.0
O689 O 0.34985 0.88041 0.11608 0.0
O690 O 0.35044 0.90257 0.09935 0.0
O691 O 0.39019 0.86193 0.08537 0.0
O692 O 0.36523 0.86082 0.09533 0.0
Co693 Co 0.16118 0.68494 0.94354 0.0
Co694 Co 0.14782 0.67716 0.97131 0.0
Co695 Co 0.15082 0.64517 0.951 0.0
O696 O 0.14588 0.66851 0.95013 0.0
H697 H 0.13532 0.67013 0.94586 0.0
O698 O 0.15675 0.62202 0.95247 0.0
Co699 Co 0.15405 0.60829 0.97191 0.0
Co700 Co 0.1433 0.60742 0.94298 0.0
H701 H 0.16732 0.62073 0.94762 0.0
O702 O 0.13759 0.69548 0.97793 0.0
O703 O 0.16286 0.69391 0.96719 0.0
O704 O 0.15638 0.66343 0.98846 0.0
O705 O 0.1677 0.64836 0.96873 0.0
O706 O 0.13316 0.64322 0.96869 0.0
O707 O 0.15333 0.59466 0.98889 0.0
O708 O 0.17203 0.5969 0.96821 0.0
O709 O 0.13464 0.61801 0.97853 0.0
O710 O 0.13127 0.6408 0.93407 0.0
O711 O 0.12291 0.61473 0.9383 0.0
O712 O 0.14138 0.59186 0.95886 0.0
O713 O 0.15155 0.58994 0.93235 0.0
C714 C 0.15959 0.70695 0.93293 0.0
C715 C 0.18185 0.65973 0.93673 0.0
C716 C 0.16687 0.6534 0.98389 0.0
C717 C 0.15217 0.70153 0.97625 0.0
C718 C 0.16612 0.58939 0.98142 0.0
C719 C 0.12754 0.63144 0.9777 0.0
C720 C 0.11989 0.62911 0.93398 0.0
C721 C 0.14661 0.58315 0.94629 0.0
O722 O 0.17358 0.70122 0.93584 0.0
O723 O 0.14658 0.69943 0.93858 0.0
O724 O 0.17028 0.64885 0.93366 0.0
O725 O 0.17873 0.67124 0.94702 0.0
Co726 Co 0.35798 0.91926 0.68884 0.0
Co727 Co 0.35453 0.90904 0.71781 0.0
Co728 Co 0.39174 0.91197 0.70738 0.0
O729 O 0.3695 0.90538 0.70196 0.0
H730 H 0.36855 0.89406 0.69832 0.0
O731 O 0.41432 0.91788 0.71286 0.0
Co732 Co 0.42543 0.90377 0.72729 0.0
Co733 Co 0.42913 0.91203 0.69684 0.0
H734 H 0.41578 0.92934 0.71585 0.0
O735 O 0.33749 0.89464 0.71922 0.0
O736 O 0.33932 0.91856 0.70496 0.0
O737 O 0.36138 0.92218 0.73674 0.0
O738 O 0.38634 0.92754 0.72718 0.0
O739 O 0.39075 0.89301 0.72321 0.0
O740 O 0.43591 0.8923 0.74151 0.0
O741 O 0.43683 0.91977 0.73847 0.0
O742 O 0.41505 0.8849 0.71807 0.0
O743 O 0.39751 0.89402 0.6887 0.0
O744 O 0.42341 0.89481 0.68128 0.0
O745 O 0.44297 0.90175 0.71063 0.0
O746 O 0.44787 0.92424 0.69472 0.0
C747 C 0.34424 0.91642 0.66849 0.0
C748 C 0.37972 0.94327 0.69458 0.0
C749 C 0.37495 0.92964 0.73805 0.0
C750 C 0.33086 0.90586 0.71051 0.0
C751 C 0.44111 0.90672 0.74639 0.0
C752 C 0.40077 0.88169 0.72292 0.0
C753 C 0.40968 0.88771 0.68077 0.0
C754 C 0.45297 0.91255 0.70392 0.0
O755 O 0.34711 0.9309 0.67497 0.0
O756 O 0.3491 0.90343 0.67597 0.0
O757 O 0.39124 0.93308 0.69228 0.0
O758 O 0.36647 0.93745 0.7003 0.0
Co759 Co 0.59221 0.82822 0.87579 0.0
Co760 Co 0.56507 0.83739 0.88537 0.0
Co761 Co 0.58719 0.86884 0.88124 0.0
O762 O 0.58538 0.8459 0.88848 0.0
H763 H 0.588 0.84497 0.90016 0.0
O764 O 0.58807 0.89209 0.87421 0.0
Co765 Co 0.57648 0.90769 0.88737 0.0
Co766 Co 0.60668 0.90351 0.87983 0.0
H767 H 0.58636 0.89319 0.86234 0.0
O768 O 0.55651 0.8202 0.8975 0.0
O769 O 0.56934 0.81942 0.87218 0.0
O770 O 0.55064 0.85098 0.87365 0.0
O771 O 0.57093 0.86608 0.86298 0.0
O772 O 0.56967 0.8728 0.89776 0.0
O773 O 0.56539 0.92304 0.89766 0.0
O774 O 0.57131 0.92089 0.87014 0.0
O775 O 0.57975 0.8961 0.90735 0.0
O776 O 0.60323 0.87228 0.90092 0.0
O777 O 0.61928 0.8944 0.89694 0.0
O778 O 0.59645 0.91992 0.89133 0.0
O779 O 0.61324 0.92295 0.86919 0.0
C780 C 0.60068 0.80642 0.88182 0.0
C781 C 0.6013 0.85258 0.85204 0.0
C782 C 0.5562 0.86135 0.86313 0.0
C783 C 0.55911 0.81297 0.88316 0.0
C784 C 0.56397 0.92836 0.88248 0.0
C785 C 0.57099 0.88328 0.9095 0.0
C786 C 0.61463 0.88229 0.90584 0.0
C787 C 0.60492 0.92929 0.88133 0.0
O788 O 0.59986 0.81052 0.86612 0.0
O789 O 0.59431 0.81547 0.89344 0.0
O790 O 0.60411 0.86382 0.86324 0.0
O791 O 0.5919 0.84032 0.85554 0.0
Co792 Co 0.11481 0.33831 0.64505 0.0
Co793 Co 0.11519 0.30854 0.63895 0.0
Co794 Co 0.15097 0.32355 0.64463 0.0
O795 O 0.12971 0.32473 0.63429 0.0
H796 H 0.13047 0.32636 0.62232 0.0
O797 O 0.17193 0.32256 0.65516 0.0
Co798 Co 0.18768 0.30813 0.64804 0.0
Co799 Co 0.18623 0.3379 0.64794 0.0
H800 H 0.17096 0.32305 0.66724 0.0
O801 O 0.10097 0.30265 0.62301 0.0
O802 O 0.0977 0.32065 0.64455 0.0
O803 O 0.12038 0.29419 0.65653 0.0
O804 O 0.14461 0.30558 0.66152 0.0
O805 O 0.15652 0.3067 0.62723 0.0
O806 O 0.20242 0.29398 0.64311 0.0
O807 O 0.19382 0.30227 0.6687 0.0
O808 O 0.18281 0.31185 0.6251 0.0
O809 O 0.1573 0.3409 0.62638 0.0
O810 O 0.18359 0.3464 0.62622 0.0
O811 O 0.2045 0.32652 0.64829 0.0
O812 O 0.19678 0.34855 0.66395 0.0
C813 C 0.09964 0.35533 0.6378 0.0
C814 C 0.13316 0.33784 0.67254 0.0
C815 C 0.13308 0.29519 0.66501 0.0
C816 C 0.09196 0.31229 0.63181 0.0
C817 C 0.20289 0.29313 0.65932 0.0
C818 C 0.16957 0.30704 0.61859 0.0
C819 C 0.17027 0.34646 0.61895 0.0
C820 C 0.20732 0.33778 0.65988 0.0
O821 O 0.10128 0.35187 0.65348 0.0
O822 O 0.10726 0.34723 0.62617 0.0
O823 O 0.14561 0.34021 0.66307 0.0
O824 O 0.12072 0.33114 0.66622 0.0
Co825 Co 0.38257 0.69545 0.91032 0.0
Co826 Co 0.38439 0.72434 0.90313 0.0
Co827 Co 0.38448 0.70429 0.86857 0.0
O828 O 0.39121 0.70678 0.89196 0.0
H829 H 0.40278 0.70714 0.89231 0.0
O830 O 0.37843 0.70264 0.84458 0.0
Co831 Co 0.39048 0.71633 0.82881 0.0
Co832 Co 0.38683 0.68596 0.83232 0.0
H833 H 0.36698 0.70295 0.84317 0.0
O834 O 0.39828 0.73581 0.91562 0.0
O835 O 0.37927 0.71656 0.92392 0.0
O836 O 0.3669 0.73503 0.89439 0.0
O837 O 0.36637 0.72166 0.8699 0.0
O838 O 0.40143 0.72193 0.86354 0.0
O839 O 0.39985 0.72949 0.81391 0.0
O840 O 0.37353 0.72284 0.81674 0.0
O841 O 0.41008 0.71226 0.83943 0.0
O842 O 0.40442 0.68737 0.86641 0.0
O843 O 0.40569 0.67666 0.8406 0.0
O844 O 0.39385 0.69745 0.81358 0.0
O845 O 0.37518 0.67663 0.81526 0.0
C846 C 0.39194 0.68555 0.93074 0.0
C847 C 0.3557 0.68973 0.8881 0.0
C848 C 0.36058 0.73231 0.88034 0.0
C849 C 0.38921 0.72905 0.92728 0.0
C850 C 0.38521 0.73131 0.80931 0.0
C851 C 0.41286 0.71997 0.853 0.0
C852 C 0.41214 0.67898 0.8547 0.0
C853 C 0.38425 0.68665 0.80638 0.0
O854 O 0.37662 0.68395 0.92805 0.0
O855 O 0.4014 0.69346 0.92026 0.0
O856 O 0.3654 0.68756 0.87522 0.0
O857 O 0.36131 0.69606 0.90158 0.0
Co858 Co 0.92562 0.05878 0.40818 0.0
Co859 Co 0.92316 0.08927 0.40511 0.0
Co860 Co 0.88582 0.07086 0.40188 0.0
O861 O 0.91024 0.07188 0.39669 0.0
H862 H 0.91206 0.07122 0.38472 0.0
O863 O 0.86084 0.07054 0.40638 0.0
Co864 Co 0.84384 0.07587 0.38888 0.0
Co865 Co 0.85424 0.04898 0.40175 0.0
H866 H 0.85801 0.07374 0.4177 0.0
O867 O 0.94303 0.09727 0.39547 0.0
O868 O 0.94013 0.07878 0.41596 0.0
O869 O 0.91151 0.10136 0.42151 0.0
O870 O 0.88792 0.08683 0.42212 0.0
O871 O 0.88271 0.08904 0.38559 0.0
O872 O 0.82778 0.08068 0.37367 0.0
O873 O 0.82324 0.07735 0.40079 0.0
O874 O 0.86169 0.07606 0.37382 0.0
O875 O 0.88447 0.05465 0.38186 0.0
O876 O 0.86928 0.03399 0.39163 0.0
O877 O 0.83936 0.05212 0.38528 0.0
O878 O 0.83553 0.04045 0.41076 0.0
C879 C 0.94586 0.04673 0.4014 0.0
C880 C 0.89943 0.05023 0.42894 0.0
C881 C 0.8978 0.09795 0.4281 0.0
C882 C 0.94962 0.08879 0.40697 0.0
C883 C 0.81738 0.08053 0.38598 0.0
C884 C 0.87198 0.08809 0.37424 0.0
C885 C 0.87909 0.03971 0.38066 0.0
C886 C 0.83082 0.04284 0.39557 0.0
O887 O 0.93991 0.04581 0.41655 0.0
O888 O 0.9391 0.05591 0.39045 0.0
O889 O 0.88839 0.05203 0.41812 0.0
O890 O 0.91247 0.05903 0.42817 0.0
Co891 Co 0.47992 0.60845 0.60956 0.0
Co892 Co 0.4503 0.6107 0.61523 0.0
Co893 Co 0.46668 0.64836 0.61819 0.0
O894 O 0.46732 0.62367 0.62249 0.0
H895 H 0.46846 0.62172 0.63432 0.0
O896 O 0.4658 0.67363 0.615 0.0
Co897 Co 0.45679 0.68945 0.63253 0.0
Co898 Co 0.48597 0.68306 0.62107 0.0
H899 H 0.46315 0.67647 0.60369 0.0
O900 O 0.44332 0.59135 0.62557 0.0
O901 O 0.46019 0.59365 0.60332 0.0
O902 O 0.43659 0.62198 0.60112 0.0
O903 O 0.4505 0.64604 0.59889 0.0
O904 O 0.44908 0.64977 0.63544 0.0
O905 O 0.44861 0.70472 0.64747 0.0
O906 O 0.45286 0.70905 0.62028 0.0
O907 O 0.45898 0.67238 0.64816 0.0
O908 O 0.48278 0.64962 0.63739 0.0
O909 O 0.50095 0.66968 0.63262 0.0
O910 O 0.47858 0.69786 0.63693 0.0
O911 O 0.49274 0.70369 0.61341 0.0
C912 C 0.492 0.58754 0.6143 0.0
C913 C 0.48677 0.63565 0.58966 0.0
C914 C 0.43913 0.63585 0.59428 0.0
C915 C 0.45101 0.58435 0.61332 0.0
C916 C 0.44814 0.71481 0.63498 0.0
C917 C 0.45025 0.65921 0.64829 0.0
C918 C 0.49628 0.65693 0.64057 0.0
C919 C 0.48614 0.7085 0.62737 0.0
O920 O 0.49223 0.59398 0.59945 0.0
O921 O 0.48387 0.59445 0.6264 0.0
O922 O 0.48481 0.6469 0.60088 0.0
O923 O 0.47842 0.62215 0.59031 0.0
Co924 Co 0.87344 0.19526 0.90934 0.0
Co925 Co 0.88705 0.2229 0.90604 0.0
Co926 Co 0.88545 0.20479 0.8706 0.0
O927 O 0.88978 0.20358 0.89491 0.0
H928 H 0.90018 0.19934 0.89709 0.0
O929 O 0.88096 0.20651 0.84619 0.0
Co930 Co 0.89335 0.22224 0.83305 0.0
Co931 Co 0.89128 0.19246 0.83241 0.0
H932 H 0.86962 0.20651 0.84399 0.0
O933 O 0.89863 0.22816 0.9246 0.0
O934 O 0.87379 0.21586 0.92361 0.0
O935 O 0.87529 0.23927 0.89493 0.0
O936 O 0.86922 0.22367 0.87275 0.0
O937 O 0.90432 0.22113 0.86912 0.0
O938 O 0.90339 0.23729 0.821 0.0
O939 O 0.8769 0.23116 0.82168 0.0
O940 O 0.91219 0.21611 0.84315 0.0
O941 O 0.90417 0.18656 0.8678 0.0
O942 O 0.91035 0.18324 0.84059 0.0
O943 O 0.89694 0.20584 0.81459 0.0
O944 O 0.88014 0.18316 0.81553 0.0
C945 C 0.87231 0.18007 0.92879 0.0
C946 C 0.85312 0.19398 0.88451 0.0
C947 C 0.86682 0.23638 0.88213 0.0
C948 C 0.88499 0.22407 0.9318 0.0
C949 C 0.88908 0.2403 0.81614 0.0
C950 C 0.91529 0.22139 0.85775 0.0
C951 C 0.91419 0.18176 0.85575 0.0
C952 C 0.88814 0.19442 0.80708 0.0
O953 O 0.85943 0.18606 0.92289 0.0
O954 O 0.88644 0.18528 0.92341 0.0
O955 O 0.86425 0.18935 0.87379 0.0
O956 O 0.85768 0.20369 0.89611 0.0
Co957 Co 0.97948 0.60891 0.10747 0.0
Co958 Co 0.94996 0.61071 0.1103 0.0
Co959 Co 0.96652 0.64833 0.11684 0.0
O960 O 0.96597 0.6234 0.11961 0.0
H961 H 0.96608 0.62082 0.13139 0.0
O962 O 0.9668 0.67415 0.11611 0.0
Co963 Co 0.95064 0.69146 0.12527 0.0
Co964 Co 0.97489 0.67943 0.13755 0.0
H965 H 0.97394 0.67849 0.10744 0.0
O966 O 0.9411 0.59154 0.11944 0.0
O967 O 0.96074 0.59355 0.09963 0.0
O968 O 0.93799 0.62293 0.09554 0.0
O969 O 0.94953 0.64826 0.09821 0.0
O970 O 0.94937 0.6483 0.13466 0.0
O971 O 0.93715 0.70734 0.13315 0.0
O972 O 0.95761 0.7121 0.11544 0.0
O973 O 0.94065 0.67401 0.13712 0.0
O974 O 0.98426 0.6473 0.13455 0.0
O975 O 0.97587 0.66323 0.15491 0.0
O976 O 0.96429 0.6969 0.14446 0.0
O977 O 0.99062 0.69552 0.13749 0.0
C978 C 0.99216 0.5888 0.11298 0.0
C979 C 0.98627 0.63617 0.0876 0.0
C980 C 0.93939 0.63791 0.09139 0.0
C981 C 0.95011 0.5845 0.10826 0.0
C982 C 0.946 0.71802 0.12489 0.0
C983 C 0.93989 0.65883 0.14072 0.0
C984 C 0.98382 0.65115 0.15018 0.0
C985 C 0.97856 0.70386 0.14281 0.0
O986 O 0.99299 0.59518 0.0981 0.0
O987 O 0.98277 0.59502 0.12443 0.0
O988 O 0.98402 0.64751 0.09866 0.0
O989 O 0.97826 0.62251 0.08835 0.0
Co990 Co 0.65675 0.69135 0.43962 0.0
Co991 Co 0.64945 0.68537 0.46998 0.0
Co992 Co 0.65043 0.65139 0.45137 0.0
O993 O 0.64475 0.67446 0.45049 0.0
H994 H 0.63343 0.67522 0.44852 0.0
O995 O 0.65674 0.6284 0.45263 0.0
Co996 Co 0.6479 0.61384 0.46903 0.0
Co997 Co 0.64848 0.61452 0.43648 0.0
H998 H 0.66827 0.62784 0.4521 0.0
O999 O 0.63824 0.70308 0.47695 0.0
O1000 O 0.66147 0.70317 0.46175 0.0
O1001 O 0.66167 0.67378 0.48615 0.0
O1002 O 0.66909 0.65549 0.46704 0.0
O1003 O 0.63473 0.64921 0.47123 0.0
O1004 O 0.64149 0.5995 0.48424 0.0
O1005 O 0.666 0.6029 0.47219 0.0
O1006 O 0.62749 0.62315 0.46792 0.0
O1007 O 0.62924 0.6462 0.43679 0.0
O1008 O 0.62869 0.6202 0.42778 0.0
O1009 O 0.64171 0.59836 0.4512 0.0
O1010 O 0.65937 0.59598 0.42986 0.0
C1011 C 0.65047 0.71202 0.42819 0.0
C1012 C 0.67968 0.66647 0.43312 0.0
C1013 C 0.67076 0.66248 0.48134 0.0
C1014 C 0.6513 0.71068 0.47163 0.0
C1015 C 0.65614 0.59487 0.48231 0.0
C1016 C 0.62465 0.63724 0.47384 0.0
C1017 C 0.62148 0.63337 0.43038 0.0
C1018 C 0.65117 0.58946 0.44221 0.0
O1019 O 0.66546 0.70811 0.42828 0.0
O1020 O 0.63976 0.70337 0.43662 0.0
O1021 O 0.66832 0.6549 0.43237 0.0
O1022 O 0.67656 0.67997 0.44051 0.0
Co1023 Co 0.61464 0.65725 0.82578 0.0
Co1024 Co 0.61897 0.65418 0.79617 0.0
Co1025 Co 0.61744 0.61827 0.81225 0.0
O1026 O 0.62414 0.64154 0.81264 0.0
H1027 H 0.63567 0.64255 0.81346 0.0
O1028 O 0.61241 0.59371 0.8118 0.0
Co1029 Co 0.62678 0.58023 0.79815 0.0
Co1030 Co 0.62038 0.58118 0.82929 0.0
H1031 H 0.6012 0.59115 0.80985 0.0
O1032 O 0.63448 0.6673 0.78762 0.0
O1033 O 0.61455 0.67367 0.80641 0.0
O1034 O 0.60265 0.64544 0.78236 0.0
O1035 O 0.60155 0.61981 0.79242 0.0
O1036 O 0.63588 0.61612 0.79555 0.0
O1037 O 0.63811 0.56762 0.78495 0.0
O1038 O 0.61142 0.56604 0.78971 0.0
O1039 O 0.64499 0.59309 0.80443 0.0
O1040 O 0.63565 0.61666 0.83101 0.0
O1041 O 0.63752 0.59149 0.84165 0.0
O1042 O 0.63115 0.56536 0.81688 0.0
O1043 O 0.61134 0.5607 0.8358 0.0
C1044 C 0.62297 0.67401 0.84247 0.0
C1045 C 0.58719 0.6358 0.82568 0.0
C1046 C 0.5968 0.63087 0.78227 0.0
C1047 C 0.62587 0.67805 0.79543 0.0
C1048 C 0.62417 0.56079 0.78188 0.0
C1049 C 0.64743 0.60651 0.79686 0.0
C1050 C 0.6432 0.60601 0.83994 0.0
C1051 C 0.62274 0.55521 0.82629 0.0
O1052 O 0.60764 0.67235 0.8398 0.0
O1053 O 0.63306 0.66601 0.83322 0.0
O1054 O 0.59628 0.62298 0.82753 0.0
O1055 O 0.59386 0.64903 0.82009 0.0
Co1056 Co 0.33048 0.63475 0.19235 0.0
Co1057 Co 0.30484 0.64644 0.18093 0.0
Co1058 Co 0.32907 0.64659 0.15145 0.0
O1059 O 0.32674 0.65083 0.17596 0.0
H1060 H 0.33013 0.66187 0.17914 0.0
O1061 O 0.32961 0.64173 0.12702 0.0
Co1062 Co 0.31477 0.65306 0.11355 0.0
Co1063 Co 0.34432 0.65229 0.11429 0.0
H1064 H 0.32959 0.63009 0.12463 0.0
O1065 O 0.29485 0.65502 0.19963 0.0
O1066 O 0.30652 0.63049 0.19701 0.0
O1067 O 0.29146 0.6352 0.16421 0.0
O1068 O 0.31356 0.62699 0.15172 0.0
O1069 O 0.31102 0.66153 0.14907 0.0
O1070 O 0.3003 0.66171 0.10101 0.0
O1071 O 0.30804 0.63556 0.1006 0.0
O1072 O 0.31882 0.67289 0.12543 0.0
O1073 O 0.34441 0.66855 0.14981 0.0
O1074 O 0.35449 0.67128 0.12367 0.0
O1075 O 0.33199 0.65942 0.09705 0.0
O1076 O 0.35243 0.64161 0.09649 0.0
C1077 C 0.33504 0.63501 0.21719 0.0
C1078 C 0.34252 0.61663 0.1651 0.0
C1079 C 0.29864 0.62498 0.155 0.0
C1080 C 0.29635 0.64006 0.20462 0.0
C1081 C 0.29832 0.64671 0.09569 0.0
C1082 C 0.31141 0.67373 0.13938 0.0
C1083 C 0.35234 0.67714 0.13824 0.0
C1084 C 0.34278 0.65112 0.08892 0.0
O1085 O 0.33476 0.62142 0.20857 0.0
O1086 O 0.33151 0.6487 0.21003 0.0
O1087 O 0.34632 0.62911 0.15547 0.0
O1088 O 0.33105 0.61804 0.17577 0.0
Co1089 Co 0.61686 0.83347 0.65278 0.0
Co1090 Co 0.61865 0.80464 0.6394 0.0
Co1091 Co 0.65345 0.8229 0.64474 0.0
O1092 O 0.63106 0.82357 0.6371 0.0
H1093 H 0.63027 0.82777 0.62588 0.0
O1094 O 0.67524 0.82251 0.65343 0.0
Co1095 Co 0.69162 0.80998 0.64466 0.0
Co1096 Co 0.68766 0.83929 0.64551 0.0
H1097 H 0.67518 0.82262 0.66554 0.0
O1098 O 0.59929 0.80165 0.62789 0.0
O1099 O 0.60286 0.81371 0.65293 0.0
O1100 O 0.6282 0.78806 0.65237 0.0
O1101 O 0.64903 0.80389 0.66103 0.0
O1102 O 0.65838 0.80708 0.62607 0.0
O1103 O 0.70721 0.79788 0.63784 0.0
O1104 O 0.69998 0.80404 0.66443 0.0
O1105 O 0.68444 0.81359 0.62249 0.0
O1106 O 0.65755 0.84098 0.62665 0.0
O1107 O 0.68356 0.84737 0.62412 0.0
O1108 O 0.7069 0.83003 0.64487 0.0
O1109 O 0.6975 0.85146 0.66062 0.0
C1110 C 0.59868 0.84865 0.65131 0.0
C1111 C 0.63908 0.83405 0.67562 0.0
C1112 C 0.63991 0.79084 0.66209 0.0
C1113 C 0.59338 0.80879 0.6411 0.0
C1114 C 0.70943 0.79664 0.65381 0.0
C1115 C 0.67115 0.80768 0.61688 0.0
C1116 C 0.66971 0.84685 0.61807 0.0
C1117 C 0.70896 0.84188 0.65609 0.0
O1118 O 0.60347 0.84365 0.66567 0.0
O1119 O 0.6049 0.84311 0.63735 0.0
O1120 O 0.64921 0.83884 0.66429 0.0
O1121 O 0.62731 0.82505 0.67108 0.0
Co1122 Co 0.72719 0.37033 0.91636 0.0
Co1123 Co 0.69742 0.37361 0.91277 0.0
Co1124 Co 0.71405 0.37547 0.87497 0.0
O1125 O 0.71472 0.38063 0.89974 0.0
H1126 H 0.71583 0.39239 0.90119 0.0
O1127 O 0.71301 0.37081 0.85003 0.0
Co1128 Co 0.70617 0.38724 0.83416 0.0
Co1129 Co 0.73358 0.37387 0.84074 0.0
H1130 H 0.70872 0.35991 0.84752 0.0
O1131 O 0.69118 0.38372 0.93269 0.0
O1132 O 0.70717 0.36219 0.92979 0.0
O1133 O 0.68193 0.36082 0.90069 0.0
O1134 O 0.69621 0.35821 0.87688 0.0
O1135 O 0.69787 0.39312 0.87265 0.0
O1136 O 0.69945 0.40091 0.81856 0.0
O1137 O 0.70108 0.37355 0.81638 0.0
O1138 O 0.7101 0.40386 0.85036 0.0
O1139 O 0.73161 0.39295 0.87277 0.0
O1140 O 0.74982 0.38373 0.85477 0.0
O1141 O 0.72842 0.38979 0.82544 0.0
O1142 O 0.73928 0.3655 0.81986 0.0
C1143 C 0.73734 0.378 0.93823 0.0
C1144 C 0.73388 0.3482 0.88877 0.0
C1145 C 0.6839 0.35473 0.88613 0.0
C1146 C 0.69834 0.3716 0.93941 0.0
C1147 C 0.69763 0.38755 0.80967 0.0
C1148 C 0.70007 0.405 0.8624 0.0
C1149 C 0.74558 0.39387 0.86597 0.0
C1150 C 0.73483 0.37967 0.8148 0.0
O1151 O 0.73943 0.36323 0.93252 0.0
O1152 O 0.72868 0.38802 0.92999 0.0
O1153 O 0.73071 0.35793 0.8768 0.0
O1154 O 0.72794 0.35024 0.9035 0.0
Co1155 Co 0.08989 0.83063 0.37584 0.0
Co1156 Co 0.06351 0.84236 0.38404 0.0
Co1157 Co 0.08729 0.87189 0.38065 0.0
O1158 O 0.08417 0.84911 0.38743 0.0
H1159 H 0.08621 0.84812 0.39924 0.0
O1160 O 0.08958 0.89547 0.37504 0.0
Co1161 Co 0.07968 0.91101 0.39031 0.0
Co1162 Co 0.10948 0.90479 0.38094 0.0
H1163 H 0.08739 0.89753 0.36342 0.0
O1164 O 0.05357 0.82657 0.39657 0.0
O1165 O 0.06644 0.82372 0.37142 0.0
O1166 O 0.05017 0.8572 0.37262 0.0
O1167 O 0.07156 0.87032 0.36173 0.0
O1168 O 0.06932 0.87603 0.39626 0.0
O1169 O 0.0704 0.92636 0.40223 0.0
O1170 O 0.07669 0.92665 0.3747 0.0
O1171 O 0.08058 0.89694 0.40918 0.0
O1172 O 0.10273 0.87416 0.40088 0.0
O1173 O 0.12248 0.89244 0.39537 0.0
O1174 O 0.10087 0.91993 0.39563 0.0
O1175 O 0.117 0.92549 0.3735 0.0
C1176 C 0.09521 0.80803 0.38324 0.0
C1177 C 0.10078 0.85516 0.35152 0.0
C1178 C 0.05651 0.86695 0.36194 0.0
C1179 C 0.05571 0.8185 0.38261 0.0
C1180 C 0.06986 0.93345 0.38777 0.0
C1181 C 0.07058 0.88488 0.40921 0.0
C1182 C 0.11571 0.8821 0.40519 0.0
C1183 C 0.10947 0.93033 0.3869 0.0
O1184 O 0.09635 0.81168 0.36737 0.0
O1185 O 0.08952 0.81842 0.39397 0.0
O1186 O 0.10422 0.86611 0.36291 0.0
O1187 O 0.09193 0.84242 0.35509 0.0
Co1188 Co 0.35722 0.37504 0.59505 0.0
Co1189 Co 0.35142 0.38277 0.56569 0.0
Co1190 Co 0.38908 0.38159 0.57005 0.0
O1191 O 0.36803 0.38794 0.57882 0.0
H1192 H 0.36795 0.39951 0.5815 0.0
O1193 O 0.41053 0.37552 0.56154 0.0
Co1194 Co 0.42193 0.3881 0.54474 0.0
Co1195 Co 0.42687 0.38176 0.57653 0.0
H1196 H 0.41086 0.36388 0.55927 0.0
O1197 O 0.33421 0.39573 0.56647 0.0
O1198 O 0.3377 0.3723 0.58085 0.0
O1199 O 0.3556 0.36827 0.54693 0.0
O1200 O 0.38056 0.36354 0.5546 0.0
O1201 O 0.3867 0.39881 0.55146 0.0
O1202 O 0.43348 0.39799 0.52873 0.0
O1203 O 0.43322 0.37142 0.53616 0.0
O1204 O 0.41188 0.40731 0.55154 0.0
O1205 O 0.3978 0.40138 0.58442 0.0
O1206 O 0.42301 0.39927 0.59231 0.0
O1207 O 0.43862 0.39342 0.56069 0.0
O1208 O 0.447 0.37215 0.57518 0.0
C1209 C 0.34455 0.37986 0.61613 0.0
C1210 C 0.37863 0.35154 0.5898 0.0
C1211 C 0.36828 0.3602 0.54564 0.0
C1212 C 0.32835 0.3832 0.57483 0.0
C1213 C 0.43906 0.38341 0.52688 0.0
C1214 C 0.39766 0.40952 0.54717 0.0
C1215 C 0.41043 0.40743 0.59168 0.0
C1216 C 0.44995 0.38399 0.56472 0.0
O1217 O 0.34719 0.36485 0.61158 0.0
O1218 O 0.34902 0.39199 0.60639 0.0
O1219 O 0.39033 0.36255 0.58799 0.0
O1220 O 0.36483 0.35563 0.58552 0.0
Co1221 Co 0.36686 0.41789 0.18344 0.0
Co1222 Co 0.3612 0.41409 0.21301 0.0
Co1223 Co 0.39948 0.41527 0.20488 0.0
O1224 O 0.37736 0.40748 0.20052 0.0
H1225 H 0.37659 0.39566 0.19949 0.0
O1226 O 0.42188 0.42247 0.2093 0.0
Co1227 Co 0.43578 0.41071 0.22305 0.0
Co1228 Co 0.43535 0.41629 0.19229 0.0
H1229 H 0.42289 0.43419 0.21117 0.0
O1230 O 0.34488 0.39916 0.21653 0.0
O1231 O 0.34656 0.41925 0.19697 0.0
O1232 O 0.36722 0.43012 0.22985 0.0
O1233 O 0.39365 0.43152 0.22415 0.0
O1234 O 0.40022 0.39731 0.22158 0.0
O1235 O 0.4491 0.40134 0.23627 0.0
O1236 O 0.447 0.42839 0.23157 0.0
O1237 O 0.42534 0.39036 0.21698 0.0
O1238 O 0.40497 0.39645 0.18694 0.0
O1239 O 0.43031 0.39769 0.17818 0.0
O1240 O 0.45207 0.40931 0.20421 0.0
O1241 O 0.45077 0.43083 0.18632 0.0
C1242 C 0.35602 0.41024 0.16238 0.0
C1243 C 0.38623 0.44497 0.18929 0.0
C1244 C 0.38127 0.43595 0.23285 0.0
C1245 C 0.33836 0.40773 0.20497 0.0
C1246 C 0.45381 0.41643 0.23914 0.0
C1247 C 0.41119 0.38696 0.22254 0.0
C1248 C 0.41688 0.39007 0.17867 0.0
C1249 C 0.45906 0.42066 0.19473 0.0
O1250 O 0.35747 0.42582 0.16592 0.0
O1251 O 0.36022 0.39934 0.1731 0.0
O1252 O 0.39834 0.43545 0.1887 0.0
O1253 O 0.37252 0.43846 0.19218 0.0
Co1254 Co 0.37835 0.1994 0.40935 0.0
Co1255 Co 0.39108 0.22658 0.40033 0.0
Co1256 Co 0.38706 0.20414 0.36841 0.0
O1257 O 0.39257 0.20571 0.3922 0.0
H1258 H 0.40327 0.20207 0.394 0.0
O1259 O 0.38198 0.20341 0.34407 0.0
Co1260 Co 0.39501 0.21776 0.32977 0.0
Co1261 Co 0.3921 0.18801 0.33147 0.0
H1262 H 0.37063 0.20362 0.34197 0.0
O1263 O 0.40333 0.23416 0.4177 0.0
O1264 O 0.37838 0.22228 0.41911 0.0
O1265 O 0.37966 0.24177 0.38727 0.0
O1266 O 0.37046 0.22266 0.36949 0.0
O1267 O 0.4053 0.22076 0.36474 0.0
O1268 O 0.40567 0.23151 0.31687 0.0
O1269 O 0.37896 0.22687 0.31783 0.0
O1270 O 0.4136 0.21167 0.34029 0.0
O1271 O 0.40608 0.18612 0.36679 0.0
O1272 O 0.41125 0.17873 0.34015 0.0
O1273 O 0.39778 0.20004 0.31262 0.0
O1274 O 0.38057 0.17782 0.31535 0.0
C1275 C 0.38079 0.189 0.43168 0.0
C1276 C 0.35571 0.19325 0.38551 0.0
C1277 C 0.36961 0.23702 0.37637 0.0
C1278 C 0.38996 0.23117 0.4259 0.0
C1279 C 0.39155 0.23541 0.31223 0.0
C1280 C 0.41645 0.21943 0.35378 0.0
C1281 C 0.41548 0.17922 0.35532 0.0
C1282 C 0.38859 0.18838 0.30604 0.0
O1283 O 0.36663 0.19213 0.42633 0.0
O1284 O 0.39358 0.19381 0.42326 0.0
O1285 O 0.36631 0.18866 0.37412 0.0
O1286 O 0.36049 0.20387 0.39626 0.0
Co1287 Co 0.97964 0.11072 0.61087 0.0
Co1288 Co 0.94988 0.11357 0.61381 0.0
Co1289 Co 0.96699 0.15091 0.61905 0.0
O1290 O 0.9665 0.12613 0.62254 0.0
H1291 H 0.96664 0.12393 0.6344 0.0
O1292 O 0.96719 0.17673 0.61703 0.0
Co1293 Co 0.95116 0.19451 0.62559 0.0
Co1294 Co 0.97473 0.18287 0.63831 0.0
H1295 H 0.9745 0.18072 0.60835 0.0
O1296 O 0.94137 0.09464 0.62382 0.0
O1297 O 0.96029 0.096 0.60336 0.0
O1298 O 0.93794 0.12521 0.59826 0.0
O1299 O 0.95066 0.15004 0.59987 0.0
O1300 O 0.94951 0.15158 0.63676 0.0
O1301 O 0.93714 0.2102 0.63282 0.0
O1302 O 0.95671 0.21481 0.61411 0.0
O1303 O 0.94245 0.17785 0.6391 0.0
O1304 O 0.98429 0.15068 0.63734 0.0
O1305 O 0.97552 0.1677 0.65658 0.0
O1306 O 0.96613 0.20217 0.64323 0.0
O1307 O 0.99194 0.19654 0.63671 0.0
C1308 C 0.99128 0.0899 0.61711 0.0
C1309 C 0.98714 0.13786 0.59032 0.0
C1310 C 0.94029 0.13983 0.59325 0.0
C1311 C 0.94996 0.08718 0.61258 0.0
C1312 C 0.94489 0.22068 0.62335 0.0
C1313 C 0.94119 0.16289 0.64335 0.0
C1314 C 0.98382 0.15558 0.6527 0.0
C1315 C 0.98106 0.20707 0.64028 0.0
O1316 O 0.9925 0.09585 0.60205 0.0
O1317 O 0.98237 0.09714 0.62833 0.0
O1318 O 0.98481 0.14933 0.60126 0.0
O1319 O 0.97935 0.12404 0.59122 0.0
Co1320 Co 0.83257 0.13734 0.19327 0.0
Co1321 Co 0.80693 0.14848 0.18176 0.0
Co1322 Co 0.8296 0.14678 0.15177 0.0
O1323 O 0.82859 0.15233 0.17601 0.0
H1324 H 0.83213 0.16351 0.1784 0.0
O1325 O 0.82872 0.14072 0.12769 0.0
Co1326 Co 0.8123 0.14977 0.11388 0.0
Co1327 Co 0.84217 0.15187 0.11379 0.0
H1328 H 0.82966 0.12906 0.12591 0.0
O1329 O 0.79771 0.15912 0.19931 0.0
O1330 O 0.80852 0.13398 0.19918 0.0
O1331 O 0.79258 0.13713 0.16591 0.0
O1332 O 0.81403 0.12718 0.15373 0.0
O1333 O 0.81154 0.16123 0.14978 0.0
O1334 O 0.79701 0.15641 0.10099 0.0
O1335 O 0.80648 0.13099 0.10221 0.0
O1336 O 0.81504 0.171 0.12433 0.0
O1337 O 0.84483 0.16891 0.14837 0.0
O1338 O 0.85031 0.1723 0.12095 0.0
O1339 O 0.82881 0.15511 0.0963 0.0
O1340 O 0.85132 0.14024 0.09767 0.0
C1341 C 0.83818 0.13918 0.21786 0.0
C1342 C 0.84362 0.1177 0.16648 0.0
C1343 C 0.79902 0.12623 0.15693 0.0
C1344 C 0.79859 0.14459 0.20571 0.0
C1345 C 0.79633 0.14119 0.09618 0.0
C1346 C 0.81063 0.1728 0.13956 0.0
C1347 C 0.85024 0.17803 0.1357 0.0
C1348 C 0.83929 0.14545 0.08934 0.0
O1349 O 0.83719 0.12502 0.21028 0.0
O1350 O 0.83454 0.15239 0.20989 0.0
O1351 O 0.8469 0.12955 0.15588 0.0
O1352 O 0.83255 0.11958 0.17759 0.0
Co1353 Co 0.42232 0.55738 0.4101 0.0
Co1354 Co 0.42026 0.58746 0.40872 0.0
Co1355 Co 0.38264 0.57001 0.40503 0.0
O1356 O 0.407 0.57113 0.39968 0.0
H1357 H 0.40871 0.57113 0.38768 0.0
O1358 O 0.35761 0.56932 0.40919 0.0
Co1359 Co 0.3407 0.57486 0.39153 0.0
Co1360 Co 0.35138 0.54777 0.40373 0.0
H1361 H 0.35459 0.57212 0.42057 0.0
O1362 O 0.43889 0.59689 0.39872 0.0
O1363 O 0.43798 0.57684 0.41789 0.0
O1364 O 0.40875 0.59928 0.42498 0.0
O1365 O 0.38439 0.5863 0.42509 0.0
O1366 O 0.37972 0.58832 0.38911 0.0
O1367 O 0.32483 0.57992 0.37621 0.0
O1368 O 0.31998 0.57558 0.40317 0.0
O1369 O 0.35865 0.57602 0.37672 0.0
O1370 O 0.38151 0.5541 0.3848 0.0
O1371 O 0.36685 0.53282 0.39393 0.0
O1372 O 0.33667 0.55103 0.38705 0.0
O1373 O 0.33279 0.53882 0.41229 0.0
C1374 C 0.44159 0.54462 0.402 0.0
C1375 C 0.39656 0.54913 0.43203 0.0
C1376 C 0.39463 0.59712 0.431 0.0
C1377 C 0.44646 0.58818 0.40935 0.0
C1378 C 0.31429 0.57925 0.38841 0.0
C1379 C 0.36882 0.58805 0.37803 0.0
C1380 C 0.37664 0.53904 0.38325 0.0
C1381 C 0.32837 0.54109 0.39697 0.0
O1382 O 0.43635 0.54361 0.41741 0.0
O1383 O 0.43495 0.55458 0.39173 0.0
O1384 O 0.38528 0.55115 0.42147 0.0
O1385 O 0.4099 0.55738 0.43067 0.0
Co1386 Co 0.70242 0.44097 0.61313 0.0
Co1387 Co 0.69162 0.46915 0.61012 0.0
Co1388 Co 0.66218 0.44429 0.60969 0.0
O1389 O 0.6846 0.44898 0.60274 0.0
H1390 H 0.68573 0.44853 0.59067 0.0
O1391 O 0.63945 0.44057 0.61601 0.0
Co1392 Co 0.62386 0.4512 0.60292 0.0
Co1393 Co 0.63073 0.42042 0.60917 0.0
H1394 H 0.63754 0.44191 0.62791 0.0
O1395 O 0.70649 0.48074 0.59798 0.0
O1396 O 0.71046 0.464 0.62003 0.0
O1397 O 0.67823 0.48087 0.6259 0.0
O1398 O 0.66272 0.45866 0.63051 0.0
O1399 O 0.65714 0.46345 0.59602 0.0
O1400 O 0.60803 0.46106 0.59308 0.0
O1401 O 0.60938 0.45302 0.61991 0.0
O1402 O 0.63696 0.45143 0.58316 0.0
O1403 O 0.66058 0.42964 0.58817 0.0
O1404 O 0.64312 0.40874 0.59291 0.0
O1405 O 0.61554 0.42975 0.59613 0.0
O1406 O 0.61043 0.41223 0.61716 0.0
C1407 C 0.72425 0.43434 0.60504 0.0
C1408 C 0.67898 0.42799 0.6359 0.0
C1409 C 0.66751 0.4732 0.63448 0.0
C1410 C 0.7153 0.47614 0.61022 0.0
C1411 C 0.60195 0.46064 0.60821 0.0
C1412 C 0.64892 0.46143 0.58299 0.0
C1413 C 0.65312 0.4163 0.5833 0.0
C1414 C 0.60554 0.42082 0.60483 0.0
O1415 O 0.71996 0.43262 0.6207 0.0
O1416 O 0.71506 0.44173 0.59475 0.0
O1417 O 0.66814 0.42579 0.62477 0.0
O1418 O 0.69082 0.43813 0.63361 0.0
Co1419 Co 0.22125 0.86458 0.9165 0.0
Co1420 Co 0.19237 0.87235 0.911 0.0
Co1421 Co 0.21198 0.87529 0.87506 0.0
O1422 O 0.2115 0.87828 0.90025 0.0
H1423 H 0.21386 0.88967 0.903 0.0
O1424 O 0.21263 0.8721 0.8493 0.0
Co1425 Co 0.19652 0.87829 0.83221 0.0
Co1426 Co 0.22293 0.89031 0.84033 0.0
H1427 H 0.21799 0.86226 0.84602 0.0
O1428 O 0.18588 0.88173 0.93135 0.0
O1429 O 0.19947 0.85856 0.92782 0.0
O1430 O 0.17708 0.86156 0.89655 0.0
O1431 O 0.19372 0.85851 0.87453 0.0
O1432 O 0.19647 0.89369 0.87407 0.0
O1433 O 0.18259 0.88299 0.81649 0.0
O1434 O 0.20199 0.86486 0.81405 0.0
O1435 O 0.18868 0.89341 0.84749 0.0
O1436 O 0.23028 0.89249 0.87578 0.0
O1437 O 0.22557 0.90858 0.85449 0.0
O1438 O 0.21137 0.89545 0.82254 0.0
O1439 O 0.23702 0.88735 0.82318 0.0
C1440 C 0.23058 0.86834 0.93985 0.0
C1441 C 0.22879 0.84557 0.88751 0.0
C1442 C 0.18031 0.85557 0.88217 0.0
C1443 C 0.1915 0.86856 0.93767 0.0
C1444 C 0.19058 0.873 0.80711 0.0
C1445 C 0.18826 0.8993 0.86221 0.0
C1446 C 0.23033 0.90675 0.86922 0.0
C1447 C 0.22497 0.89254 0.81489 0.0
O1448 O 0.23081 0.85397 0.93263 0.0
O1449 O 0.22435 0.88051 0.9321 0.0
O1450 O 0.22789 0.8571 0.87673 0.0
O1451 O 0.22053 0.84591 0.90123 0.0
Co1452 Co 0.6979 0.94547 0.11415 0.0
Co1453 Co 0.68165 0.9706 0.10756 0.0
Co1454 Co 0.65737 0.94109 0.11064 0.0
O1455 O 0.67888 0.94828 0.10254 0.0
H1456 H 0.68017 0.94639 0.09064 0.0
O1457 O 0.63567 0.93538 0.11925 0.0
Co1458 Co 0.61862 0.94679 0.10956 0.0
Co1459 Co 0.62605 0.91675 0.11125 0.0
H1460 H 0.63508 0.93533 0.13135 0.0
O1461 O 0.69634 0.98439 0.09683 0.0
O1462 O 0.69995 0.96961 0.12022 0.0
O1463 O 0.66512 0.98103 0.12112 0.0
O1464 O 0.65739 0.95659 0.13051 0.0
O1465 O 0.64925 0.95816 0.09602 0.0
O1466 O 0.60242 0.95753 0.10229 0.0
O1467 O 0.60782 0.9515 0.12899 0.0
O1468 O 0.62762 0.94456 0.08774 0.0
O1469 O 0.65654 0.92529 0.08956 0.0
O1470 O 0.63451 0.90872 0.09063 0.0
O1471 O 0.60666 0.92569 0.10698 0.0
O1472 O 0.61191 0.90515 0.12484 0.0
C1473 C 0.72113 0.94456 0.10704 0.0
C1474 C 0.67637 0.92892 0.1375 0.0
C1475 C 0.65746 0.97218 0.13172 0.0
C1476 C 0.70424 0.98176 0.11035 0.0
C1477 C 0.59903 0.95885 0.11814 0.0
C1478 C 0.63946 0.95432 0.08458 0.0
C1479 C 0.64695 0.91422 0.08285 0.0
C1480 C 0.602 0.9151 0.11836 0.0
O1481 O 0.71688 0.94254 0.12268 0.0
O1482 O 0.71062 0.94844 0.09607 0.0
O1483 O 0.66615 0.92444 0.12633 0.0
O1484 O 0.68658 0.94068 0.13466 0.0
Co1485 Co 0.42434 0.05603 0.9076 0.0
Co1486 Co 0.42215 0.08658 0.90485 0.0
Co1487 Co 0.38415 0.06924 0.90359 0.0
O1488 O 0.40836 0.06945 0.89752 0.0
H1489 H 0.40955 0.06881 0.88547 0.0
O1490 O 0.35942 0.06995 0.90876 0.0
Co1491 Co 0.34221 0.07424 0.89113 0.0
Co1492 Co 0.35232 0.04827 0.9063 0.0
H1493 H 0.35696 0.07421 0.9198 0.0
O1494 O 0.442 0.09393 0.89456 0.0
O1495 O 0.43903 0.07581 0.91538 0.0
O1496 O 0.41144 0.09952 0.92103 0.0
O1497 O 0.38702 0.08671 0.92242 0.0
O1498 O 0.38064 0.0859 0.88576 0.0
O1499 O 0.32616 0.07821 0.87556 0.0
O1500 O 0.32214 0.07867 0.90301 0.0
O1501 O 0.35957 0.07131 0.87588 0.0
O1502 O 0.38215 0.05157 0.8851 0.0
O1503 O 0.36606 0.03216 0.89601 0.0
O1504 O 0.33586 0.05058 0.89142 0.0
O1505 O 0.33479 0.04141 0.9182 0.0
C1506 C 0.44439 0.04455 0.89899 0.0
C1507 C 0.3986 0.04829 0.9305 0.0
C1508 C 0.39758 0.09749 0.92776 0.0
C1509 C 0.44854 0.0856 0.90621 0.0
C1510 C 0.31611 0.08028 0.88796 0.0
C1511 C 0.37012 0.08303 0.87439 0.0
C1512 C 0.37611 0.03686 0.88481 0.0
C1513 C 0.32802 0.04343 0.90388 0.0
O1514 O 0.43941 0.04288 0.91446 0.0
O1515 O 0.43673 0.05391 0.88896 0.0
O1516 O 0.38681 0.05144 0.92102 0.0
O1517 O 0.41237 0.05555 0.92844 0.0
Co1518 Co 0.83072 0.63892 0.69367 0.0
Co1519 Co 0.80463 0.6474 0.6817 0.0
Co1520 Co 0.82803 0.64739 0.65175 0.0
O1521 O 0.8257 0.65286 0.67589 0.0
H1522 H 0.82837 0.66427 0.67821 0.0
O1523 O 0.82887 0.64147 0.62767 0.0
Co1524 Co 0.81369 0.65141 0.61329 0.0
Co1525 Co 0.84369 0.65204 0.61484 0.0
H1526 H 0.82939 0.62977 0.62586 0.0
O1527 O 0.79456 0.65871 0.69784 0.0
O1528 O 0.80677 0.63433 0.7001 0.0
O1529 O 0.79142 0.63448 0.66641 0.0
O1530 O 0.81334 0.62712 0.65286 0.0
O1531 O 0.80936 0.66091 0.64833 0.0
O1532 O 0.79924 0.65876 0.59976 0.0
O1533 O 0.80824 0.6331 0.60088 0.0
O1534 O 0.81645 0.67209 0.6244 0.0
O1535 O 0.84261 0.66997 0.64923 0.0
O1536 O 0.85285 0.67206 0.62313 0.0
O1537 O 0.8311 0.65746 0.5972 0.0
O1538 O 0.85224 0.64075 0.59763 0.0
C1539 C 0.83659 0.64233 0.71785 0.0
C1540 C 0.84274 0.61909 0.66716 0.0
C1541 C 0.79855 0.62481 0.6566 0.0
C1542 C 0.79592 0.64473 0.7053 0.0
C1543 C 0.79842 0.64357 0.59482 0.0
C1544 C 0.81025 0.67328 0.63896 0.0
C1545 C 0.85037 0.67844 0.63741 0.0
C1546 C 0.84153 0.64842 0.58943 0.0
O1547 O 0.8365 0.62777 0.71112 0.0
O1548 O 0.83167 0.65478 0.70952 0.0
O1549 O 0.84574 0.63118 0.65683 0.0
O1550 O 0.83196 0.62037 0.6787 0.0
Co1551 Co 0.2293 0.36613 0.41403 0.0
Co1552 Co 0.20004 0.3729 0.41316 0.0
Co1553 Co 0.21445 0.37328 0.37409 0.0
O1554 O 0.2169 0.3782 0.39874 0.0
H1555 H 0.2193 0.38981 0.40015 0.0
O1556 O 0.21183 0.36828 0.34924 0.0
Co1557 Co 0.20552 0.38507 0.33366 0.0
Co1558 Co 0.23225 0.36984 0.33887 0.0
H1559 H 0.20664 0.35769 0.34715 0.0
O1560 O 0.19659 0.38222 0.43456 0.0
O1561 O 0.20963 0.35921 0.42869 0.0
O1562 O 0.18254 0.36273 0.4015 0.0
O1563 O 0.1958 0.357 0.37755 0.0
O1564 O 0.19914 0.39205 0.37252 0.0
O1565 O 0.19936 0.39934 0.31839 0.0
O1566 O 0.19843 0.37189 0.31606 0.0
O1567 O 0.21159 0.40085 0.34965 0.0
O1568 O 0.23288 0.38976 0.3709 0.0
O1569 O 0.24952 0.37984 0.35157 0.0
O1570 O 0.2273 0.38605 0.32398 0.0
O1571 O 0.2365 0.36129 0.31745 0.0
C1572 C 0.24157 0.37253 0.43481 0.0
C1573 C 0.23353 0.34482 0.38619 0.0
C1574 C 0.18337 0.35577 0.38721 0.0
C1575 C 0.20269 0.36881 0.43976 0.0
C1576 C 0.19604 0.38625 0.3095 0.0
C1577 C 0.20146 0.40318 0.36138 0.0
C1578 C 0.24646 0.38996 0.36324 0.0
C1579 C 0.23266 0.37582 0.31287 0.0
O1580 O 0.24187 0.35757 0.42899 0.0
O1581 O 0.23314 0.38335 0.42748 0.0
O1582 O 0.23044 0.35513 0.37479 0.0
O1583 O 0.22747 0.34628 0.4009 0.0
H1584 H 0.11418 0.9626 0.56138 0.0
H1585 H 0.11725 0.98132 0.53761 0.0
H1586 H 0.16828 0.98499 0.54494 0.0
H1587 H 0.16529 0.96674 0.569 0.0
H1588 H 0.13502 0.01392 0.54869 0.0
H1589 H 0.1799 0.99235 0.49737 0.0
H1590 H 0.18815 0.96648 0.48419 0.0
H1591 H 0.14214 0.94385 0.49614 0.0
H1592 H 0.13342 0.9697 0.50887 0.0
H1593 H 0.17307 0.07191 0.48204 0.0
H1594 H 0.17374 0.04505 0.49587 0.0
H1595 H 0.12235 0.04455 0.5024 0.0
H1596 H 0.12158 0.07113 0.48941 0.0
H1597 H 0.15781 0.01312 0.49092 0.0
H1598 H 0.1131 0.03542 0.54192 0.0
H1599 H 0.10581 0.0612 0.556 0.0
H1600 H 0.15297 0.08195 0.54582 0.0
H1601 H 0.16064 0.05621 0.53195 0.0
C1602 C 0.12609 0.96704 0.55761 0.0
C1603 C 0.13946 0.96357 0.56716 0.0
C1604 C 0.12782 0.97763 0.54403 0.0
C1605 C 0.14299 0.98439 0.53959 0.0
C1606 C 0.15653 0.97971 0.54813 0.0
C1607 C 0.15477 0.96943 0.56193 0.0
C1608 C 0.14428 0.99885 0.52876 0.0
C1609 C 0.13978 0.01373 0.53595 0.0
C1610 C 0.15116 0.9985 0.51248 0.0
C1611 C 0.15612 0.98294 0.50443 0.0
C1612 C 0.17151 0.98189 0.49714 0.0
C1613 C 0.17626 0.96722 0.4897 0.0
C1614 C 0.16572 0.9535 0.48942 0.0
C1615 C 0.15034 0.95446 0.49645 0.0
C1616 C 0.1455 0.96913 0.50381 0.0
C1617 C 0.16197 0.06601 0.48646 0.0
C1618 C 0.14735 0.07383 0.48502 0.0
C1619 C 0.16234 0.05064 0.49415 0.0
C1620 C 0.1481 0.04299 0.50031 0.0
C1621 C 0.13349 0.05038 0.49795 0.0
C1622 C 0.13312 0.06568 0.49061 0.0
C1623 C 0.14823 0.02814 0.51071 0.0
C1624 C 0.15308 0.01328 0.50361 0.0
C1625 C 0.14183 0.02841 0.52723 0.0
C1626 C 0.1374 0.0439 0.53577 0.0
C1627 C 0.12194 0.04544 0.54277 0.0
C1628 C 0.11775 0.06005 0.55072 0.0
C1629 C 0.12891 0.0732 0.55179 0.0
C1630 C 0.14432 0.07176 0.54495 0.0
C1631 C 0.14859 0.05717 0.53703 0.0
H1632 H 0.12563 0.08451 0.55792 0.0
H1633 H 0.16943 0.94215 0.48371 0.0
H1634 H 0.06002 0.39606 0.84524 0.0
H1635 H 0.04507 0.4067 0.82194 0.0
H1636 H 0.01932 0.36011 0.81706 0.0
H1637 H 0.03402 0.34942 0.84071 0.0
H1638 H 0.0344 0.37613 0.78556 0.0
H1639 H 0.99938 0.38609 0.83446 0.0
H1640 H 0.99417 0.39771 0.8626 0.0
H1641 H 1.00841 0.44572 0.84492 0.0
H1642 H 1.0138 0.43436 0.81677 0.0
H1643 H 0.96441 0.37882 0.7428 0.0
H1644 H 0.98645 0.37663 0.76163 0.0
H1645 H 0.99104 0.42938 0.76565 0.0
H1646 H 0.96826 0.43175 0.74674 0.0
H1647 H 0.99166 0.41588 0.79563 0.0
H1648 H 0.02044 0.40751 0.74535 0.0
H1649 H 0.02636 0.39692 0.71699 0.0
H1650 H 0.02637 0.34784 0.73585 0.0
H1651 H 0.0202 0.35807 0.7643 0.0
C1652 C 0.05117 0.38806 0.83922 0.0
C1653 C 0.04815 0.3719 0.84479 0.0
C1654 C 0.04268 0.39417 0.82593 0.0
C1655 C 0.03121 0.38414 0.81782 0.0
C1656 C 0.02823 0.36797 0.8232 0.0
C1657 C 0.03652 0.36193 0.83674 0.0
C1658 C 0.02203 0.39064 0.80391 0.0
C1659 C 0.02499 0.38476 0.78766 0.0
C1660 C 1.01044 0.40256 0.80668 0.0
C1661 C 1.00712 0.40937 0.82358 0.0
C1662 C 1.00151 0.39911 0.83664 0.0
C1663 C 0.99848 0.40565 0.85257 0.0
C1664 C 1.00094 0.42246 0.85556 0.0
C1665 C 1.00646 0.43273 0.84262 0.0
C1666 C 1.00949 0.42625 0.82666 0.0
C1667 C 0.97009 0.39006 0.74751 0.0
C1668 C 0.96451 0.4055 0.74328 0.0
C1669 C 0.98289 0.38875 0.75818 0.0
C1670 C 0.99067 0.40282 0.76477 0.0
C1671 C 0.98529 0.41836 0.76053 0.0
C1672 C 0.97231 0.4197 0.74977 0.0
C1673 C 1.00342 0.4008 0.77717 0.0
C1674 C 1.00128 0.40755 0.79325 0.0
C1675 C 1.01598 0.38988 0.77414 0.0
C1676 C 0.01979 0.38359 0.75701 0.0
C1677 C 0.0216 0.39444 0.74346 0.0
C1678 C 0.02501 0.3885 0.72735 0.0
C1679 C 0.0267 0.37171 0.72461 0.0
C1680 C 0.02506 0.36084 0.73799 0.0
C1681 C 0.02163 0.36672 0.75413 0.0
H1682 H 0.02928 0.3671 0.71214 0.0
H1683 H 0.99853 0.4275 0.8679 0.0
H1684 H 0.67864 0.22047 0.98137 0.0
H1685 H 0.6844 0.24157 1.00276 0.0
H1686 H 0.63424 0.24126 0.01677 0.0
H1687 H 0.62838 0.2208 0.99522 0.0
H1688 H 0.64641 0.27088 0.02022 0.0
H1689 H 0.66222 0.21637 0.03661 0.0
H1690 H 0.67767 0.19138 0.03293 0.0
H1691 H 0.72167 0.22034 0.03432 0.0
H1692 H 0.70645 0.24553 0.03795 0.0
H1693 H 0.64246 0.29213 0.10566 0.0
H1694 H 0.64132 0.27736 0.07895 0.0
H1695 H 0.69282 0.28205 0.07389 0.0
H1696 H 0.69412 0.29601 0.10104 0.0
H1697 H 0.68345 0.25302 0.06374 0.0
H1698 H 0.66614 0.30704 0.05368 0.0
H1699 H 0.64954 0.33069 0.05964 0.0
H1700 H 0.60734 0.30249 0.04579 0.0
H1701 H 0.62357 0.27825 0.04077 0.0
C1702 C 0.66879 0.22529 0.98867 0.0
C1703 C 0.65309 0.21875 0.98679 0.0
C1704 C 0.67212 0.23722 1.00102 0.0
C1705 C 0.65981 0.24267 0.01173 0.0
C1706 C 0.64398 0.23718 0.00881 0.0
C1707 C 0.64065 0.2254 0.99647 0.0
C1708 C 0.66327 0.25286 0.02689 0.0
C1709 C 0.65449 0.26697 0.02976 0.0
C1710 C 0.67406 0.24797 0.03922 0.0
C1711 C 0.68321 0.23283 0.03737 0.0
C1712 C 0.67519 0.2174 0.03607 0.0
C1713 C 0.68391 0.20321 0.03399 0.0
C1714 C 0.70065 0.20428 0.0333 0.0
C1715 C 0.70871 0.21954 0.03481 0.0
C1716 C 0.70005 0.23377 0.03691 0.0
C1717 C 0.65356 0.28999 0.09891 0.0
C1718 C 0.66836 0.29547 0.10544 0.0
C1719 C 0.65289 0.2816 0.08356 0.0
C1720 C 0.66696 0.2789 0.07414 0.0
C1721 C 0.68178 0.28404 0.08082 0.0
C1722 C 0.68249 0.2921 0.09634 0.0
C1723 C 0.66621 0.27082 0.05732 0.0
C1724 C 0.67555 0.25713 0.05414 0.0
C1725 C 0.6558 0.27602 0.04475 0.0
C1726 C 0.64609 0.29078 0.04697 0.0
C1727 C 0.65332 0.30584 0.05199 0.0
C1728 C 0.64396 0.31936 0.05522 0.0
C1729 C 0.62741 0.31819 0.05295 0.0
C1730 C 0.62017 0.30341 0.04752 0.0
C1731 C 0.62943 0.28973 0.04458 0.0
H1732 H 0.62021 0.32872 0.05543 0.0
H1733 H 0.70738 0.19329 0.03164 0.0
H1734 H 0.72425 0.90827 0.30059 0.0
H1735 H 0.72975 0.91719 0.27191 0.0
H1736 H 0.74858 0.86986 0.25994 0.0
H1737 H 0.74225 0.86062 0.28816 0.0
H1738 H 0.75839 0.92122 0.26191 0.0
H1739 H 0.75344 0.86062 0.2237 0.0
H1740 H 0.73368 0.83842 0.21691 0.0
H1741 H 0.69543 0.87093 0.22653 0.0
H1742 H 0.71485 0.89324 0.23387 0.0
H1743 H 0.81775 0.88126 0.21273 0.0
H1744 H 0.78938 0.88124 0.21986 0.0
H1745 H 0.7881 0.93233 0.2066 0.0
H1746 H 0.81681 0.93248 0.19963 0.0
H1747 H 0.76002 0.88839 0.20938 0.0
H1748 H 0.76852 0.95083 0.23874 0.0
H1749 H 0.78983 0.97137 0.24607 0.0
H1750 H 0.82199 0.9328 0.25547 0.0
H1751 H 0.80079 0.91209 0.24837 0.0
C1752 C 0.72908 0.89958 0.29169 0.0
C1753 C 0.73302 0.88378 0.29673 0.0
C1754 C 0.73214 0.90469 0.27524 0.0
C1755 C 0.73948 0.89421 0.2636 0.0
C1756 C 0.7425 0.8781 0.2684 0.0
C1757 C 0.73917 0.8729 0.28473 0.0
C1758 C 0.74739 0.90094 0.24818 0.0
C1759 C 0.7582 0.91442 0.25016 0.0
C1760 C 0.7474 0.89213 0.23282 0.0
C1761 C 0.73559 0.87857 0.22937 0.0
C1762 C 0.74078 0.86301 0.22446 0.0
C1763 C 0.72962 0.85039 0.22061 0.0
C1764 C 0.71325 0.85325 0.22142 0.0
C1765 C 0.70805 0.8687 0.22616 0.0
C1766 C 0.71911 0.8813 0.2303 0.0
C1767 C 0.81136 0.89238 0.21087 0.0
C1768 C 0.81956 0.907 0.20619 0.0
C1769 C 0.79507 0.89232 0.21478 0.0
C1770 C 0.78673 0.9069 0.21413 0.0
C1771 C 0.79441 0.92102 0.2074 0.0
C1772 C 0.8108 0.92108 0.20344 0.0
C1773 C 0.77151 0.9077 0.22382 0.0
C1774 C 0.75939 0.89575 0.22075 0.0
C1775 C 0.77046 0.91768 0.23836 0.0
C1776 C 0.78318 0.92999 0.24283 0.0
C1777 C 0.78014 0.94678 0.24239 0.0
C1778 C 0.79219 0.95843 0.24652 0.0
C1779 C 0.80727 0.9534 0.25117 0.0
C1780 C 0.81032 0.93669 0.25182 0.0
C1781 C 0.7983 0.925 0.24776 0.0
H1782 H 0.81659 0.96243 0.25433 0.0
H1783 H 0.7046 0.84353 0.2183 0.0
H1784 H 0.15836 0.29193 0.6864 0.0
H1785 H 0.15882 0.27524 0.7118 0.0
H1786 H 0.11002 0.25841 0.70347 0.0
H1787 H 0.10941 0.2749 0.67826 0.0
H1788 H 0.11564 0.26751 0.73708 0.0
H1789 H 0.13998 0.23236 0.69329 0.0
H1790 H 0.1603 0.22859 0.67086 0.0
H1791 H 0.19776 0.24133 0.70526 0.0
H1792 H 0.17768 0.24486 0.72797 0.0
H1793 H 0.10173 0.19359 0.78153 0.0
H1794 H 0.1046 0.21736 0.76316 0.0
H1795 H 0.15577 0.21904 0.77032 0.0
H1796 H 0.15291 0.19478 0.78801 0.0
H1797 H 0.15185 0.22087 0.73961 0.0
H1798 H 0.12973 0.25092 0.7847 0.0
H1799 H 0.11115 0.25717 0.80805 0.0
H1800 H 0.07216 0.25837 0.77383 0.0
H1801 H 0.09048 0.25197 0.75027 0.0
C1802 C 0.14775 0.28464 0.68994 0.0
C1803 C 0.1339 0.28471 0.68014 0.0
C1804 C 0.14802 0.27512 0.70448 0.0
C1805 C 0.13444 0.26555 0.70955 0.0
C1806 C 0.12061 0.26574 0.69988 0.0
C1807 C 0.12035 0.27512 0.68535 0.0
C1808 C 0.13462 0.25483 0.72454 0.0
C1809 C 0.12349 0.25725 0.73766 0.0
C1810 C 0.14528 0.24188 0.72564 0.0
C1811 C 0.15737 0.23887 0.71228 0.0
C1812 C 0.15257 0.23423 0.69608 0.0
C1813 C 0.16405 0.2321 0.68334 0.0
C1814 C 0.18033 0.23462 0.68667 0.0
C1815 C 0.18517 0.23919 0.70277 0.0
C1816 C 0.17376 0.24118 0.71559 0.0
C1817 C 0.1135 0.19942 0.77966 0.0
C1818 C 0.12708 0.19243 0.78629 0.0
C1819 C 0.11518 0.21304 0.76909 0.0
C1820 C 0.13044 0.2202 0.76529 0.0
C1821 C 0.14387 0.21378 0.77287 0.0
C1822 C 0.14222 0.2 0.78314 0.0
C1823 C 0.13254 0.23321 0.75224 0.0
C1824 C 0.1441 0.23123 0.73937 0.0
C1825 C 0.12255 0.24685 0.75166 0.0
C1826 C 0.11147 0.25085 0.76573 0.0
C1827 C 0.11718 0.25242 0.78216 0.0
C1828 C 0.1067 0.25601 0.79544 0.0
C1829 C 0.09048 0.25812 0.79243 0.0
C1830 C 0.08473 0.25672 0.77613 0.0
C1831 C 0.09516 0.25315 0.76281 0.0
H1832 H 0.08237 0.26086 0.80273 0.0
H1833 H 0.1892 0.23306 0.67678 0.0
H1834 H 0.72144 0.39286 0.96368 0.0
H1835 H 0.72904 0.39392 0.99296 0.0
H1836 H 0.77605 0.37742 0.97858 0.0
H1837 H 0.76705 0.37341 0.94994 0.0
H1838 H 0.76982 0.36238 1.00248 0.0
H1839 H 0.7629 0.42089 0.9951 0.0
H1840 H 0.74794 0.44532 0.98801 0.0
H1841 H 0.71179 0.4322 0.02493 0.0
H1842 H 0.72649 0.40764 0.03214 0.0
H1843 H 0.81097 0.41447 0.06406 0.0
H1844 H 0.78627 0.41274 0.04882 0.0
H1845 H 0.77897 0.36209 0.0633 0.0
H1846 H 0.80475 0.3635 0.07746 0.0
H1847 H 0.75815 0.40642 0.04349 0.0
H1848 H 0.76845 0.3391 0.03123 0.0
H1849 H 0.78849 0.31784 0.034 0.0
H1850 H 0.8265 0.35467 0.03025 0.0
H1851 H 0.80667 0.37613 0.02762 0.0
C1852 C 0.73327 0.38928 0.96696 0.0
C1853 C 0.74347 0.38257 0.9548 0.0
C1854 C 0.73784 0.39026 0.9837 0.0
C1855 C 0.75324 0.38578 0.98835 0.0
C1856 C 0.76393 0.38053 0.97568 0.0
C1857 C 0.75892 0.37845 0.95921 0.0
C1858 C 0.75809 0.3853 1.00628 0.0
C1859 C 0.76719 0.37214 0.01131 0.0
C1860 C 0.75447 0.39762 0.01829 0.0
C1861 C 0.7457 0.41239 0.01403 0.0
C1862 C 0.75173 0.42321 1.00165 0.0
C1863 C 0.7433 0.43707 0.99762 0.0
C1864 C 0.7289 0.44029 1.00598 0.0
C1865 C 0.72293 0.42968 0.01845 0.0
C1866 C 0.73131 0.41581 0.02253 0.0
C1867 C 0.80377 0.40314 0.06462 0.0
C1868 C 0.8101 0.38891 0.07115 0.0
C1869 C 0.78951 0.40213 0.05587 0.0
C1870 C 0.78121 0.38695 0.05394 0.0
C1871 C 0.78564 0.37372 0.06385 0.0
C1872 C 0.80027 0.37459 0.07222 0.0
C1873 C 0.77108 0.38442 0.03889 0.0
C1874 C 0.76054 0.39668 0.03455 0.0
C1875 C 0.77416 0.37182 0.02705 0.0
C1876 C 0.78611 0.35918 0.02957 0.0
C1877 C 0.78109 0.34264 0.03119 0.0
C1878 C 0.7924 0.33058 0.03272 0.0
C1879 C 0.80876 0.33492 0.03244 0.0
C1880 C 0.81384 0.35134 0.03065 0.0
C1881 C 0.80257 0.36346 0.02917 0.0
H1882 H 0.81748 0.32554 0.03349 0.0
H1883 H 0.72239 0.45101 1.00284 0.0
H1884 H 0.5976 0.04834 0.26269 0.0
H1885 H 0.59719 0.02926 0.23865 0.0
H1886 H 0.64684 0.01934 0.2467 0.0
H1887 H 0.64716 0.03788 0.27065 0.0
H1888 H 0.61183 0.03252 0.21087 0.0
H1889 H 0.65829 0.98359 0.23057 0.0
H1890 H 0.66279 0.96464 0.2537 0.0
H1891 H 0.61465 0.97058 0.27188 0.0
H1892 H 0.60975 0.98941 0.24873 0.0
H1893 H 0.65885 1.00453 0.14206 0.0
H1894 H 0.64717 0.01617 0.16769 0.0
H1895 H 0.62648 0.96858 0.18059 0.0
H1896 H 0.63831 0.95686 0.15531 0.0
H1897 H 0.64023 0.98043 0.20611 0.0
H1898 H 0.60415 0.99985 0.16821 0.0
H1899 H 0.59321 0.01325 0.14369 0.0
H1900 H 0.61079 0.06017 0.16174 0.0
H1901 H 0.6227 0.04699 0.18593 0.0
C1902 C 0.60825 0.0417 0.25959 0.0
C1903 C 0.62244 0.04475 0.26849 0.0
C1904 C 0.60806 0.03086 0.24577 0.0
C1905 C 0.62199 0.02275 0.24076 0.0
C1906 C 0.63584 0.02514 0.25032 0.0
C1907 C 0.63605 0.03593 0.264 0.0
C1908 C 0.62291 0.01348 0.22453 0.0
C1909 C 0.61796 0.02108 0.20985 0.0
C1910 C 0.63034 0.99818 0.22312 0.0
C1911 C 0.63368 0.98805 0.23794 0.0
C1912 C 0.64866 0.98091 0.23952 0.0
C1913 C 0.65126 0.97011 0.25259 0.0
C1914 C 0.63898 0.96633 0.26419 0.0
C1915 C 0.62413 0.97348 0.26285 0.0
C1916 C 0.62147 0.9843 0.2498 0.0
C1917 C 0.6517 0.99657 0.15028 0.0
C1918 C 0.64966 0.97972 0.14665 0.0
C1919 C 0.64493 1.00327 0.1649 0.0
C1920 C 0.63587 0.99328 0.17611 0.0
C1921 C 0.63347 0.97655 0.17224 0.0
C1922 C 0.64027 0.96986 0.15772 0.0
C1923 C 0.62998 0.99993 0.19247 0.0
C1924 C 0.63402 0.99184 0.20715 0.0
C1925 C 0.6211 0.01436 0.19383 0.0
C1926 C 0.61452 0.02235 0.17889 0.0
C1927 C 0.60599 0.01299 0.16685 0.0
C1928 C 0.59956 0.02056 0.153 0.0
C1929 C 0.60122 0.03755 0.1512 0.0
C1930 C 0.60951 0.04699 0.16314 0.0
C1931 C 0.6162 0.03946 0.17689 0.0
H1932 H 0.59607 0.0434 0.14056 0.0
H1933 H 0.64102 0.95797 0.27431 0.0
H1934 H 0.0451 0.86326 0.40967 0.0
H1935 H 0.02384 0.86057 0.43059 0.0
H1936 H 0.04811 0.89704 0.46155 0.0
H1937 H 0.06934 0.90038 0.44003 0.0
H1938 H 0.02008 0.85182 0.46094 0.0
H1939 H 0.01993 0.91995 0.48174 0.0
H1940 H 0.02874 0.94713 0.47092 0.0
H1941 H 0.02432 0.92917 0.42044 0.0
H1942 H 1.01493 0.90207 0.43092 0.0
H1943 H 0.96102 0.85976 0.52598 0.0
H1944 H 0.98544 0.85915 0.50863 0.0
H1945 H 0.96443 0.89134 0.47317 0.0
H1946 H 0.94076 0.89314 0.49136 0.0
H1947 H 0.99218 0.90212 0.47768 0.0
H1948 H 0.97018 0.84812 0.46678 0.0
H1949 H 0.95904 0.82064 0.47415 0.0
H1950 H 1.00322 0.80941 0.49735 0.0
H1951 H 1.01456 0.83689 0.49033 0.0
C1952 C 0.04604 0.8707 0.42094 0.0
C1953 C 0.05879 0.88228 0.42305 0.0
C1954 C 0.03388 0.86903 0.43299 0.0
C1955 C 0.03421 0.87875 0.44755 0.0
C1956 C 0.04743 0.88963 0.45023 0.0
C1957 C 0.05957 0.89152 0.43797 0.0
C1958 C 0.02008 0.87816 0.4591 0.0
C1959 C 1.014 0.86282 0.46466 0.0
C1960 C 1.01191 0.89247 0.46362 0.0
C1961 C 1.01693 0.90891 0.45715 0.0
C1962 C 0.0207 0.92184 0.46833 0.0
C1963 C 0.02576 0.93724 0.46225 0.0
C1964 C 0.02708 0.93987 0.445 0.0
C1965 C 0.02323 0.92713 0.43379 0.0
C1966 C 1.01801 0.91176 0.4398 0.0
C1967 C 0.96158 0.86646 0.51435 0.0
C1968 C 0.94911 0.87653 0.50998 0.0
C1969 C 0.97552 0.86609 0.50439 0.0
C1970 C 0.97683 0.87517 0.48949 0.0
C1971 C 0.96385 0.88439 0.48467 0.0
C1972 C 0.95023 0.88524 0.49493 0.0
C1973 C 0.99186 0.87571 0.4792 0.0
C1974 C 0.99822 0.89108 0.474 0.0
C1975 C 0.99979 0.86135 0.47428 0.0
C1976 C 0.99314 0.84467 0.47822 0.0
C1977 C 0.97749 0.83983 0.47355 0.0
C1978 C 0.97114 0.82424 0.47765 0.0
C1979 C 0.9804 0.81331 0.48627 0.0
C1980 C 0.99605 0.81791 0.49072 0.0
C1981 C 1.00244 0.83349 0.48668 0.0
H1982 H 0.97545 0.80126 0.48945 0.0
H1983 H 0.03108 0.95177 0.44031 0.0
H1984 H 0.51179 0.15746 0.08566 0.0
H1985 H 0.53402 0.15828 0.06523 0.0
H1986 H 0.51515 0.11372 0.04227 0.0
H1987 H 0.49323 0.11258 0.06296 0.0
H1988 H 0.5455 0.11115 0.04387 0.0
H1989 H 0.51339 0.15414 0.0242 0.0
H1990 H 0.49846 0.1796 0.0262 0.0
H1991 H 0.54152 0.20668 0.03959 0.0
H1992 H 0.55667 0.18133 0.03788 0.0
H1993 H 0.59463 0.11334 0.97041 0.0
H1994 H 0.57154 0.11477 0.98954 0.0
H1995 H 0.59364 0.15686 0.01419 0.0
H1996 H 0.61669 0.15573 0.99475 0.0
H1997 H 0.56203 0.16094 0.01184 0.0
H1998 H 0.59418 0.11727 0.03022 0.0
H1999 H 0.60883 0.09189 0.02584 0.0
H2000 H 0.56491 0.06567 0.01382 0.0
H2001 H 0.55005 0.09104 0.01757 0.0
C2002 C 0.51224 0.14791 0.07616 0.0
C2003 C 0.50052 0.13499 0.07605 0.0
C2004 C 0.52502 0.14841 0.06436 0.0
C2005 C 0.5264 0.13615 0.05187 0.0
C2006 C 0.51459 0.12336 0.05167 0.0
C2007 C 0.5019 0.12277 0.06353 0.0
C2008 C 0.54025 0.13636 0.03933 0.0
C2009 C 0.54891 0.12202 0.03675 0.0
C2010 C 0.54518 0.15054 0.03009 0.0
C2011 C 0.53612 0.1658 0.03108 0.0
C2012 C 0.51965 0.1655 0.02769 0.0
C2013 C 0.51115 0.17992 0.02875 0.0
C2014 C 0.51903 0.19474 0.03307 0.0
C2015 C 0.53543 0.19519 0.03628 0.0
C2016 C 0.54398 0.1808 0.03525 0.0
C2017 C 0.59462 0.12297 0.97985 0.0
C2018 C 0.60773 0.13431 0.98105 0.0
C2019 C 0.58135 0.12374 0.99089 0.0
C2020 C 0.58081 0.13572 1.0037 0.0
C2021 C 0.59365 0.14741 1.00457 0.0
C2022 C 0.60691 0.14672 0.99342 0.0
C2023 C 0.56714 0.13574 0.01638 0.0
C2024 C 0.55858 0.15009 0.019 0.0
C2025 C 0.56222 0.12154 0.02557 0.0
C2026 C 0.57102 0.10611 0.02404 0.0
C2027 C 0.58765 0.10611 0.02658 0.0
C2028 C 0.596 0.09172 0.02419 0.0
C2029 C 0.58781 0.07717 0.01957 0.0
C2030 C 0.57124 0.07696 0.01739 0.0
C2031 C 0.56285 0.09135 0.01962 0.0
H2032 H 0.59431 0.06606 0.01766 0.0
H2033 H 0.51243 0.20589 0.03388 0.0
H2034 H 0.91045 0.74212 0.28152 0.0
H2035 H 0.91143 0.7671 0.26503 0.0
H2036 H 0.86388 0.77802 0.28256 0.0
H2037 H 0.86283 0.75278 0.2994 0.0
H2038 H 0.87151 0.78593 0.24681 0.0
H2039 H 0.89267 0.79529 0.30214 0.0
H2040 H 0.90993 0.78957 0.32594 0.0
H2041 H 0.95183 0.79752 0.29467 0.0
H2042 H 0.93481 0.80296 0.27058 0.0
H2043 H 0.88002 0.87198 0.2288 0.0
H2044 H 0.87445 0.84514 0.24159 0.0
H2045 H 0.92389 0.83312 0.23396 0.0
H2046 H 0.92955 0.85987 0.22115 0.0
H2047 H 0.91397 0.826 0.26529 0.0
H2048 H 0.89547 0.81395 0.2103 0.0
H2049 H 0.88026 0.81805 0.18461 0.0
H2050 H 0.83606 0.81415 0.21289 0.0
H2051 H 0.85104 0.81011 0.2388 0.0
C2052 C 0.90002 0.74963 0.28166 0.0
C2053 C 0.8866 0.7455 0.29192 0.0
C2054 C 0.90064 0.76395 0.27222 0.0
C2055 C 0.88788 0.77461 0.27278 0.0
C2056 C 0.87391 0.76999 0.282 0.0
C2057 C 0.87328 0.75553 0.29155 0.0
C2058 C 0.88992 0.79107 0.26483 0.0
C2059 C 0.88057 0.79483 0.25105 0.0
C2060 C 0.90216 0.80248 0.26995 0.0
C2061 C 0.91243 0.79936 0.28449 0.0
C2062 C 0.90555 0.79566 0.30029 0.0
C2063 C 0.9153 0.79249 0.31384 0.0
C2064 C 0.93197 0.79313 0.3118 0.0
C2065 C 0.93892 0.79699 0.29622 0.0
C2066 C 0.92922 0.80012 0.28261 0.0
C2067 C 0.8897 0.86359 0.22974 0.0
C2068 C 0.90525 0.86815 0.22395 0.0
C2069 C 0.88647 0.84819 0.237 0.0
C2070 C 0.89872 0.83701 0.23871 0.0
C2071 C 0.91422 0.84149 0.23281 0.0
C2072 C 0.91742 0.85681 0.22543 0.0
C2073 C 0.89557 0.82093 0.24723 0.0
C2074 C 0.90478 0.81721 0.26112 0.0
C2075 C 0.88344 0.80946 0.24201 0.0
C2076 C 0.87437 0.81192 0.22651 0.0
C2077 C 0.88251 0.81411 0.21106 0.0
C2078 C 0.87393 0.81638 0.19645 0.0
C2079 C 0.85721 0.81644 0.19713 0.0
C2080 C 0.84902 0.81414 0.2124 0.0
C2081 C 0.85754 0.81182 0.22705 0.0
H2082 H 0.85058 0.81822 0.1858 0.0
H2083 H 0.9395 0.79066 0.32231 0.0
H2084 H 0.27327 0.1557 0.59297 0.0
H2085 H 0.25207 0.15138 0.57282 0.0
H2086 H 0.27877 0.11351 0.54832 0.0
H2087 H 0.30037 0.11778 0.56896 0.0
H2088 H 0.26661 0.13722 0.52589 0.0
H2089 H 0.24623 0.10145 0.56753 0.0
H2090 H 0.23953 0.09186 0.59607 0.0
H2091 H 0.2064 0.13046 0.60252 0.0
H2092 H 0.2131 0.14049 0.57412 0.0
H2093 H 0.19519 0.1348 0.47542 0.0
H2094 H 0.21683 0.12521 0.4928 0.0
H2095 H 0.2041 0.15971 0.53159 0.0
H2096 H 0.18256 0.16931 0.51444 0.0
H2097 H 0.20983 0.12938 0.54446 0.0
H2098 H 0.2357 0.1676 0.50453 0.0
H2099 H 0.24286 0.17675 0.47596 0.0
H2100 H 0.26569 0.13131 0.46597 0.0
H2101 H 0.2585 0.12184 0.4945 0.0
C2102 C 0.27464 0.1463 0.58341 0.0
C2103 C 0.28851 0.13709 0.58254 0.0
C2104 C 0.26243 0.1438 0.57191 0.0
C2105 C 0.26372 0.13207 0.55907 0.0
C2106 C 0.27749 0.12261 0.55817 0.0
C2107 C 0.28975 0.12496 0.57 0.0
C2108 C 0.25074 0.13059 0.54649 0.0
C2109 C 0.25422 0.13502 0.52982 0.0
C2110 C 0.23453 0.12783 0.55159 0.0
C2111 C 0.23024 0.12177 0.56866 0.0
C2112 C 0.23759 0.10797 0.57506 0.0
C2113 C 0.23378 0.10245 0.59122 0.0
C2114 C 0.22256 0.11056 0.60111 0.0
C2115 C 0.21509 0.12419 0.59484 0.0
C2116 C 0.21887 0.12979 0.57869 0.0
C2117 C 0.19696 0.14032 0.48767 0.0
C2118 C 0.18711 0.15291 0.49346 0.0
C2119 C 0.20938 0.13483 0.49759 0.0
C2120 C 0.21217 0.14176 0.51352 0.0
C2121 C 0.20219 0.15411 0.51939 0.0
C2122 C 0.18989 0.15967 0.50949 0.0
C2123 C 0.22568 0.13666 0.52408 0.0
C2124 C 0.22224 0.13108 0.54039 0.0
C2125 C 0.24191 0.13814 0.51858 0.0
C2126 C 0.24641 0.14394 0.50156 0.0
C2127 C 0.24216 0.15953 0.4962 0.0
C2128 C 0.24624 0.16478 0.48001 0.0
C2129 C 0.25468 0.15459 0.4691 0.0
C2130 C 0.25912 0.13917 0.47441 0.0
C2131 C 0.25506 0.13386 0.49059 0.0
H2132 H 0.25783 0.15864 0.45657 0.0
H2133 H 0.21964 0.10628 0.61362 0.0
H2134 H 0.89641 0.54692 0.85323 0.0
H2135 H 0.89901 0.53099 0.827 0.0
H2136 H 0.8627 0.49619 0.84487 0.0
H2137 H 0.85996 0.51196 0.87074 0.0
H2138 H 0.90722 0.50052 0.81765 0.0
H2139 H 0.83939 0.48174 0.81371 0.0
H2140 H 0.81313 0.49302 0.82087 0.0
H2141 H 0.83413 0.54189 0.82002 0.0
H2142 H 0.86043 0.53094 0.81251 0.0
H2143 H 0.89809 0.43657 0.75528 0.0
H2144 H 0.8993 0.45409 0.78039 0.0
H2145 H 0.86671 0.48694 0.758 0.0
H2146 H 0.86467 0.46882 0.73356 0.0
H2147 H 0.8577 0.48564 0.7868 0.0
H2148 H 0.91149 0.4951 0.76578 0.0
H2149 H 0.93829 0.4875 0.75557 0.0
H2150 H 0.94637 0.46324 0.80197 0.0
H2151 H 0.91953 0.47053 0.81236 0.0
C2152 C 0.88907 0.5358 0.85164 0.0
C2153 C 0.87806 0.53077 0.86437 0.0
C2154 C 0.89059 0.52663 0.83658 0.0
C2155 C 0.88096 0.51231 0.83366 0.0
C2156 C 0.8702 0.50719 0.84651 0.0
C2157 C 0.86875 0.51623 0.8615 0.0
C2158 C 0.88166 0.50288 0.8172 0.0
C2159 C 0.89637 0.49731 0.8109 0.0
C2160 C 0.86767 0.49882 0.80795 0.0
C2161 C 0.85191 0.50549 0.81267 0.0
C2162 C 0.83839 0.49489 0.81498 0.0
C2163 C 0.82349 0.50124 0.81904 0.0
C2164 C 0.82196 0.51816 0.82084 0.0
C2165 C 0.83533 0.52878 0.81862 0.0
C2166 C 0.85024 0.52251 0.81446 0.0
C2167 C 0.89134 0.44764 0.75564 0.0
C2168 C 0.88129 0.45121 0.74228 0.0
C2169 C 0.8921 0.45782 0.77008 0.0
C2170 C 0.88325 0.47224 0.77141 0.0
C2171 C 0.87361 0.47597 0.75773 0.0
C2172 C 0.87252 0.46559 0.74356 0.0
C2173 C 0.88328 0.48301 0.78714 0.0
C2174 C 0.86863 0.48882 0.79341 0.0
C2175 C 0.89739 0.48769 0.79602 0.0
C2176 C 0.9135 0.4833 0.78981 0.0
C2177 C 0.91897 0.48809 0.77377 0.0
C2178 C 0.93416 0.48384 0.76795 0.0
C2179 C 0.94402 0.47488 0.77811 0.0
C2180 C 0.93872 0.47017 0.79411 0.0
C2181 C 0.92354 0.47439 0.79998 0.0
H2182 H 0.95578 0.4716 0.77358 0.0
H2183 H 0.81042 0.52304 0.82403 0.0
H2184 H 0.58917 0.10267 0.26241 0.0
H2185 H 0.56961 0.10212 0.2395 0.0
H2186 H 0.56162 0.15345 0.24812 0.0
H2187 H 0.5805 0.15392 0.27082 0.0
H2188 H 0.5344 0.13972 0.24127 0.0
H2189 H 0.58732 0.13829 0.21537 0.0
H2190 H 0.6137 0.12655 0.2098 0.0
H2191 H 0.59067 0.08197 0.19184 0.0
H2192 H 0.56412 0.09342 0.19753 0.0
H2193 H 0.51682 0.17389 0.16207 0.0
H2194 H 0.5317 0.16473 0.18612 0.0
H2195 H 0.51447 0.11503 0.17723 0.0
H2196 H 0.49898 0.12425 0.15329 0.0
H2197 H 0.55178 0.12267 0.1842 0.0
H2198 H 0.49831 0.12728 0.20648 0.0
H2199 H 0.47276 0.14093 0.21117 0.0
H2200 H 0.49759 0.18113 0.23582 0.0
H2201 H 0.52336 0.1679 0.23093 0.0
C2202 C 0.58296 0.1137 0.25962 0.0
C2203 C 0.58654 0.12834 0.26852 0.0
C2204 C 0.57188 0.11346 0.24635 0.0
C2205 C 0.56413 0.12784 0.24173 0.0
C2206 C 0.56726 0.14215 0.25121 0.0
C2207 C 0.57821 0.1424 0.26427 0.0
C2208 C 0.55323 0.12861 0.22683 0.0
C2209 C 0.53828 0.13594 0.22883 0.0
C2210 C 0.5579 0.1235 0.21045 0.0
C2211 C 0.57378 0.11663 0.20701 0.0
C2212 C 0.5879 0.12595 0.21033 0.0
C2213 C 0.60287 0.11935 0.20714 0.0
C2214 C 0.60385 0.1035 0.2005 0.0
C2215 C 0.58987 0.09423 0.19701 0.0
C2216 C 0.57487 0.10077 0.2002 0.0
C2217 C 0.51618 0.16098 0.16512 0.0
C2218 C 0.50663 0.14984 0.1556 0.0
C2219 C 0.52473 0.15575 0.17895 0.0
C2220 C 0.52432 0.13916 0.18356 0.0
C2221 C 0.51507 0.12789 0.17395 0.0
C2222 C 0.50615 0.13319 0.16028 0.0
C2223 C 0.53322 0.13401 0.19874 0.0
C2224 C 0.5478 0.12606 0.19673 0.0
C2225 C 0.5283 0.13868 0.21512 0.0
C2226 C 0.51281 0.14666 0.21817 0.0
C2227 C 0.49836 0.13912 0.21273 0.0
C2228 C 0.48383 0.14676 0.21545 0.0
C2229 C 0.48356 0.1619 0.22376 0.0
C2230 C 0.49782 0.16941 0.22937 0.0
C2231 C 0.5124 0.16184 0.22662 0.0
H2232 H 0.4723 0.16779 0.22588 0.0
H2233 H 0.61545 0.09842 0.19804 0.0
H2234 H 0.8472 0.8365 0.53667 0.0
H2235 H 0.84947 0.8147 0.51549 0.0
H2236 H 0.8947 0.83656 0.49847 0.0
H2237 H 0.89248 0.85821 0.51977 0.0
H2238 H 0.85181 0.81517 0.48145 0.0
H2239 H 0.91966 0.8049 0.48583 0.0
H2240 H 0.94156 0.80975 0.50577 0.0
H2241 H 0.90776 0.80687 0.54692 0.0
H2242 H 0.88572 0.80174 0.52723 0.0
H2243 H 0.90813 0.76285 0.42639 0.0
H2244 H 0.90379 0.78211 0.44918 0.0
H2245 H 0.85649 0.76037 0.45809 0.0
H2246 H 0.86052 0.74135 0.43453 0.0
H2247 H 0.89928 0.78046 0.48057 0.0
H2248 H 0.83134 0.7899 0.47235 0.0
H2249 H 0.81124 0.78842 0.45004 0.0
H2250 H 0.8483 0.79752 0.41294 0.0
H2251 H 0.86857 0.79929 0.43504 0.0
C2252 C 0.85746 0.83673 0.5282 0.0
C2253 C 0.86955 0.84905 0.52968 0.0
C2254 C 0.8588 0.82427 0.51618 0.0
C2255 C 0.87231 0.82393 0.50548 0.0
C2256 C 0.88428 0.83644 0.50676 0.0
C2257 C 0.88302 0.84878 0.51891 0.0
C2258 C 0.87406 0.81024 0.49329 0.0
C2259 C 0.86207 0.8074 0.48139 0.0
C2260 C 0.88772 0.80047 0.49293 0.0
C2261 C 0.90097 0.80297 0.50501 0.0
C2262 C 0.9169 0.80514 0.49913 0.0
C2263 C 0.92935 0.80798 0.5104 0.0
C2264 C 0.92605 0.80863 0.5276 0.0
C2265 C 0.91031 0.80639 0.53358 0.0
C2266 C 0.89783 0.80349 0.52237 0.0
C2267 C 0.89679 0.76205 0.43319 0.0
C2268 C 0.88461 0.7506 0.42853 0.0
C2269 C 0.89436 0.77308 0.44632 0.0
C2270 C 0.87975 0.77289 0.45526 0.0
C2271 C 0.86776 0.761 0.45115 0.0
C2272 C 0.87011 0.75005 0.43777 0.0
C2273 C 0.87714 0.78551 0.4685 0.0
C2274 C 0.88895 0.78812 0.48067 0.0
C2275 C 0.86361 0.79546 0.46874 0.0
C2276 C 0.85149 0.7945 0.45535 0.0
C2277 C 0.83519 0.79161 0.45944 0.0
C2278 C 0.82377 0.79073 0.44682 0.0
C2279 C 0.8285 0.79281 0.43007 0.0
C2280 C 0.84465 0.79584 0.42591 0.0
C2281 C 0.85611 0.79677 0.43847 0.0
H2282 H 0.81965 0.79212 0.42033 0.0
H2283 H 0.9357 0.81087 0.5363 0.0
H2284 H 0.26518 0.16073 0.70898 0.0
H2285 H 0.24235 0.15298 0.72669 0.0
H2286 H 0.26502 0.10849 0.74015 0.0
H2287 H 0.28802 0.11597 0.72158 0.0
H2288 H 0.23381 0.10225 0.7347 0.0
H2289 H 0.26286 0.14336 0.76648 0.0
H2290 H 0.27659 0.17036 0.77093 0.0
H2291 H 0.23265 0.19435 0.76267 0.0
H2292 H 0.21876 0.16761 0.75763 0.0
H2293 H 0.17388 0.0865 0.79825 0.0
H2294 H 0.19961 0.09221 0.78393 0.0
H2295 H 0.18228 0.13776 0.76584 0.0
H2296 H 0.15657 0.13222 0.78031 0.0
H2297 H 0.21239 0.14214 0.77586 0.0
H2298 H 0.18423 0.10341 0.74062 0.0
H2299 H 0.16933 0.07749 0.73419 0.0
H2300 H 0.21009 0.05021 0.74747 0.0
H2301 H 0.22516 0.07597 0.75425 0.0
C2302 C 0.26552 0.14932 0.71577 0.0
C2303 C 0.27865 0.13906 0.71389 0.0
C2304 C 0.25235 0.14491 0.72602 0.0
C2305 C 0.25195 0.13029 0.73517 0.0
C2306 C 0.265 0.11991 0.73334 0.0
C2307 C 0.27821 0.12423 0.72278 0.0
C2308 C 0.23773 0.12598 0.7463 0.0
C2309 C 0.22935 0.11086 0.74394 0.0
C2310 C 0.23149 0.13734 0.75811 0.0
C2311 C 0.23977 0.15343 0.76162 0.0
C2312 C 0.25613 0.15439 0.76556 0.0
C2313 C 0.26395 0.16965 0.76817 0.0
C2314 C 0.25549 0.18403 0.76716 0.0
C2315 C 0.23919 0.1832 0.76349 0.0
C2316 C 0.23134 0.16799 0.76073 0.0
C2317 C 0.17552 0.09776 0.79125 0.0
C2318 C 0.16302 0.10882 0.79034 0.0
C2319 C 0.19027 0.10099 0.78299 0.0
C2320 C 0.19292 0.11533 0.77353 0.0
C2321 C 0.1806 0.12658 0.77298 0.0
C2322 C 0.16584 0.12336 0.78123 0.0
C2323 C 0.2084 0.11856 0.76408 0.0
C2324 C 0.21699 0.13346 0.76677 0.0
C2325 C 0.2147 0.10712 0.75243 0.0
C2326 C 0.20576 0.09162 0.74813 0.0
C2327 C 0.18998 0.09188 0.74229 0.0
C2328 C 0.1815 0.07722 0.73857 0.0
C2329 C 0.18874 0.06221 0.74047 0.0
C2330 C 0.20449 0.06184 0.74604 0.0
C2331 C 0.21301 0.07647 0.74982 0.0
H2332 H 0.18215 0.05088 0.7376 0.0
H2333 H 0.26156 0.19582 0.76919 0.0
H2334 H 0.91811 0.43636 0.03802 0.0
H2335 H 0.91571 0.45999 0.02007 0.0
H2336 H 0.86803 0.44298 1.00694 0.0
H2337 H 0.87058 0.4188 0.02488 0.0
H2338 H 0.88316 0.45355 0.97946 0.0
H2339 H 0.87625 0.47771 0.03359 0.0
H2340 H 0.88244 0.48445 0.06299 0.0
H2341 H 0.92724 0.5076 0.0475 0.0
H2342 H 0.92141 0.50084 0.01797 0.0
H2343 H 0.87065 0.52764 0.93439 0.0
H2344 H 0.86843 0.50517 0.95458 0.0
H2345 H 0.91554 0.51847 0.9726 0.0
H2346 H 0.91764 0.54111 0.95281 0.0
H2347 H 0.8983 0.51002 0.99833 0.0
H2348 H 0.90629 0.48384 0.94469 0.0
H2349 H 0.90046 0.47672 0.91527 0.0
H2350 H 0.85387 0.45728 0.93003 0.0
H2351 H 0.85939 0.4644 0.95955 0.0
C2352 C 0.907 0.43759 0.03146 0.0
C2353 C 0.89455 0.42546 0.03307 0.0
C2354 C 0.9056 0.45133 0.02116 0.0
C2355 C 0.8916 0.45369 0.01208 0.0
C2356 C 0.87901 0.44167 0.01373 0.0
C2357 C 0.88042 0.42782 0.02414 0.0
C2358 C 0.89049 0.46839 1.0006 0.0
C2359 C 0.88618 0.46592 0.98375 0.0
C2360 C 0.89478 0.48469 1.00579 0.0
C2361 C 0.89841 0.48869 0.02355 0.0
C2362 C 0.88747 0.48414 0.03644 0.0
C2363 C 0.89091 0.48799 0.05313 0.0
C2364 C 0.90519 0.4965 0.05709 0.0
C2365 C 0.91614 0.50108 0.04439 0.0
C2366 C 0.91277 0.49725 0.02767 0.0
C2367 C 0.88052 0.5259 0.94272 0.0
C2368 C 0.89436 0.53637 0.94173 0.0
C2369 C 0.8793 0.51284 0.95425 0.0
C2370 C 0.89194 0.50963 0.96515 0.0
C2371 C 0.90556 0.52038 0.96446 0.0
C2372 C 0.90677 0.53344 0.95299 0.0
C2373 C 0.89115 0.49517 0.97712 0.0
C2374 C 0.89515 0.49767 0.99407 0.0
C2375 C 0.88661 0.4789 0.97202 0.0
C2376 C 0.8832 0.47479 0.95429 0.0
C2377 C 0.89476 0.47816 0.94164 0.0
C2378 C 0.89152 0.4741 0.92496 0.0
C2379 C 0.87681 0.46655 0.9208 0.0
C2380 C 0.86527 0.46311 0.93329 0.0
C2381 C 0.86845 0.46714 0.94999 0.0
H2382 H 0.87438 0.46328 0.9079 0.0
H2383 H 0.90775 0.49958 0.06999 0.0
H2384 H 0.08275 0.46222 0.13246 0.0
H2385 H 0.05931 0.47909 0.13806 0.0
H2386 H 0.07253 0.50917 0.09559 0.0
H2387 H 0.09553 0.49245 0.08975 0.0
H2388 H 0.06794 0.52286 0.13391 0.0
H2389 H 0.04749 0.49177 0.08571 0.0
H2390 H 0.03683 0.46801 0.06969 0.0
H2391 H 0.99876 0.4609 0.10602 0.0
H2392 H 1.00971 0.48415 0.12279 0.0
H2393 H 0.01936 0.57995 0.09688 0.0
H2394 H 0.03516 0.556 0.10186 0.0
H2395 H 1.00233 0.54073 0.1415 0.0
H2396 H 0.9865 0.56511 0.13684 0.0
H2397 H 1.01289 0.51599 0.11194 0.0
H2398 H 0.03173 0.55059 0.15742 0.0
H2399 H 0.04098 0.57712 0.16965 0.0
H2400 H 0.08087 0.57933 0.13496 0.0
H2401 H 0.07177 0.55292 0.12239 0.0
C2402 C 0.08052 0.47234 0.12426 0.0
C2403 C 0.09099 0.47605 0.1107 0.0
C2404 C 0.06706 0.48181 0.12736 0.0
C2405 C 0.06403 0.49509 0.11698 0.0
C2406 C 0.0745 0.49875 0.10351 0.0
C2407 C 0.08767 0.4892 0.10025 0.0
C2408 C 0.05126 0.5066 0.12104 0.0
C2409 C 0.05581 0.52123 0.12936 0.0
C2410 C 0.03541 0.50438 0.11517 0.0
C2411 C 0.02977 0.48945 0.10584 0.0
C2412 C 0.03722 0.48482 0.09067 0.0
C2413 C 0.03102 0.47152 0.08134 0.0
C2414 C 1.01714 0.46294 0.08684 0.0
C2415 C 1.00952 0.46755 0.10178 0.0
C2416 C 1.01582 0.4807 0.11128 0.0
C2417 C 1.01549 0.57155 0.1067 0.0
C2418 C 1.00172 0.57441 0.1165 0.0
C2419 C 0.02454 0.55789 0.10953 0.0
C2420 C 0.01989 0.54667 0.12204 0.0
C2421 C 1.00608 0.54932 0.13181 0.0
C2422 C 0.99714 0.56325 0.1292 0.0
C2423 C 0.02973 0.53224 0.12451 0.0
C2424 C 0.02476 0.51722 0.11724 0.0
C2425 C 0.04527 0.53412 0.1311 0.0
C2426 C 0.051 0.54982 0.1389 0.0
C2427 C 0.04243 0.55678 0.15234 0.0
C2428 C 0.04765 0.57178 0.15934 0.0
C2429 C 0.06146 0.57993 0.15302 0.0
C2430 C 0.07016 0.57301 0.13981 0.0
C2431 C 0.06499 0.55801 0.13277 0.0
H2432 H 0.06544 0.59159 0.15837 0.0
H2433 H 1.0123 0.45274 0.07952 0.0
H2434 H 0.48031 0.22533 0.15264 0.0
H2435 H 0.48441 0.25462 0.15803 0.0
H2436 H 0.50508 0.26072 0.10846 0.0
H2437 H 0.50015 0.23176 0.10269 0.0
H2438 H 0.51229 0.26647 0.16074 0.0
H2439 H 0.50885 0.29122 0.09394 0.0
H2440 H 0.4896 0.29568 0.07151 0.0
H2441 H 0.4514 0.29795 0.10801 0.0
H2442 H 0.47029 0.29277 0.1306 0.0
H2443 H 0.5738 0.30603 0.11148 0.0
H2444 H 0.54524 0.29955 0.11344 0.0
H2445 H 0.54326 0.3218 0.16265 0.0
H2446 H 0.57214 0.32815 0.16089 0.0
H2447 H 0.51589 0.31182 0.11985 0.0
H2448 H 0.52172 0.29453 0.18688 0.0
H2449 H 0.54211 0.29118 0.20851 0.0
H2450 H 0.57536 0.27455 0.17096 0.0
H2451 H 0.5551 0.27765 0.14919 0.0
C2452 C 0.48526 0.23303 0.14271 0.0
C2453 C 0.49009 0.22618 0.1273 0.0
C2454 C 0.48748 0.24986 0.14577 0.0
C2455 C 0.49485 0.26014 0.13363 0.0
C2456 C 0.49886 0.25336 0.11792 0.0
C2457 C 0.49641 0.23662 0.11475 0.0
C2458 C 0.50216 0.27637 0.13847 0.0
C2459 C 0.51249 0.27672 0.15218 0.0
C2460 C 0.50257 0.28992 0.12751 0.0
C2461 C 0.49093 0.29139 0.11391 0.0
C2462 C 0.49628 0.2924 0.09714 0.0
C2463 C 0.48543 0.29499 0.0844 0.0
C2464 C 0.46924 0.29692 0.08833 0.0
C2465 C 0.46388 0.29615 0.10499 0.0
C2466 C 0.47462 0.29317 0.11775 0.0
C2467 C 0.56727 0.30994 0.12257 0.0
C2468 C 0.57531 0.31702 0.13628 0.0
C2469 C 0.55086 0.30639 0.1236 0.0
C2470 C 0.5422 0.30986 0.13836 0.0
C2471 C 0.54979 0.31881 0.15126 0.0
C2472 C 0.56631 0.32235 0.15024 0.0
C2473 C 0.52661 0.30097 0.14114 0.0
C2474 C 0.51482 0.30208 0.129 0.0
C2475 C 0.52486 0.28868 0.15349 0.0
C2476 C 0.53702 0.28653 0.16646 0.0
C2477 C 0.53339 0.29014 0.18329 0.0
C2478 C 0.54491 0.28828 0.19555 0.0
C2479 C 0.56004 0.28272 0.1911 0.0
C2480 C 0.56366 0.2789 0.17439 0.0
C2481 C 0.55216 0.28069 0.16209 0.0
H2482 H 0.56895 0.28132 0.2006 0.0
H2483 H 0.46087 0.29913 0.07849 0.0
H2484 H 0.83875 0.73079 0.38336 0.0
H2485 H 0.81564 0.74801 0.38684 0.0
H2486 H 0.83865 0.78432 0.35465 0.0
H2487 H 0.86213 0.76718 0.35181 0.0
H2488 H 0.8258 0.80023 0.37763 0.0
H2489 H 0.80196 0.75661 0.34373 0.0
H2490 H 0.79411 0.72808 0.336 0.0
H2491 H 0.76942 0.72201 0.38334 0.0
H2492 H 0.77692 0.7505 0.39119 0.0
H2493 H 0.75589 0.84616 0.36422 0.0
H2494 H 0.77798 0.82754 0.36069 0.0
H2495 H 0.75946 0.79872 0.40211 0.0
H2496 H 0.73734 0.81754 0.40591 0.0
H2497 H 0.76947 0.77895 0.37516 0.0
H2498 H 0.79194 0.82357 0.40764 0.0
H2499 H 0.79867 0.85258 0.41426 0.0
H2500 H 0.82613 0.85699 0.36843 0.0
H2501 H 0.81938 0.82805 0.36142 0.0
C2502 C 0.83864 0.74214 0.3765 0.0
C2503 C 0.85211 0.74718 0.36672 0.0
C2504 C 0.82534 0.75216 0.37857 0.0
C2505 C 0.82484 0.76755 0.37069 0.0
C2506 C 0.83838 0.77258 0.36087 0.0
C2507 C 0.85183 0.76265 0.35907 0.0
C2508 C 0.81069 0.77865 0.37325 0.0
C2509 C 0.81353 0.79549 0.37675 0.0
C2510 C 0.79442 0.7728 0.37273 0.0
C2511 C 0.79003 0.75564 0.36805 0.0
C2512 C 0.79486 0.74916 0.35247 0.0
C2513 C 0.79039 0.73303 0.34802 0.0
C2514 C 0.7811 0.72328 0.35907 0.0
C2515 C 0.77638 0.72961 0.37464 0.0
C2516 C 0.7807 0.74576 0.37909 0.0
C2517 C 0.75636 0.83583 0.37258 0.0
C2518 C 0.7446 0.83349 0.38536 0.0
C2519 C 0.76917 0.82517 0.37058 0.0
C2520 C 0.77067 0.81164 0.38119 0.0
C2521 C 0.75874 0.809 0.39372 0.0
C2522 C 0.74602 0.81983 0.39589 0.0
C2523 C 0.78468 0.80042 0.37918 0.0
C2524 C 0.78178 0.78361 0.3759 0.0
C2525 C 0.80089 0.80632 0.37972 0.0
C2526 C 0.80502 0.82369 0.38393 0.0
C2527 C 0.79931 0.83076 0.39891 0.0
C2528 C 0.80314 0.84719 0.40274 0.0
C2529 C 0.81278 0.85664 0.39175 0.0
C2530 C 0.81864 0.84966 0.37692 0.0
C2531 C 0.81483 0.83325 0.37302 0.0
H2532 H 0.81574 0.86935 0.39474 0.0
H2533 H 0.77767 0.71079 0.35562 0.0
H2534 H 0.30043 0.0962 0.6652 0.0
H2535 H 0.28484 0.07122 0.6581 0.0
H2536 H 0.25798 0.09841 0.62275 0.0
H2537 H 0.27295 0.12369 0.63088 0.0
H2538 H 0.23848 0.07859 0.63695 0.0
H2539 H 0.2906 0.07077 0.61236 0.0
H2540 H 0.32006 0.06952 0.61233 0.0
H2541 H 0.31661 0.03012 0.6476 0.0
H2542 H 0.28719 0.03136 0.64814 0.0
H2543 H 0.20848 1.0108 0.59017 0.0
H2544 H 0.22548 0.03426 0.59852 0.0
H2545 H 0.23959 1.0084 0.64233 0.0
H2546 H 0.22226 0.98468 0.63416 0.0
H2547 H 0.26549 0.02666 0.62435 0.0
H2548 H 0.21322 0.03477 0.64855 0.0
H2549 H 0.18378 0.03619 0.6482 0.0
H2550 H 0.18784 0.07498 0.61222 0.0
H2551 H 0.21729 0.07354 0.61212 0.0
C2552 C 0.29123 0.09677 0.65587 0.0
C2553 C 0.28797 0.11177 0.64846 0.0
C2554 C 0.28236 0.08246 0.65171 0.0
C2555 C 0.27044 0.08266 0.63948 0.0
C2556 C 0.26712 0.09779 0.63214 0.0
C2557 C 0.27569 0.11223 0.63672 0.0
C2558 C 0.26131 0.06722 0.63457 0.0
C2559 C 0.24449 0.06734 0.63398 0.0
C2560 C 0.26896 0.05227 0.63101 0.0
C2561 C 0.28667 0.05127 0.6304 0.0
C2562 C 0.29613 0.0619 0.62018 0.0
C2563 C 0.31284 0.0612 0.6201 0.0
C2564 C 0.32022 0.0498 0.63003 0.0
C2565 C 0.31091 0.039 0.63999 0.0
C2566 C 0.29421 0.03969 0.64018 0.0
C2567 C 0.21529 1.00991 0.60151 0.0
C2568 C 0.21386 0.9958 0.61156 0.0
C2569 C 0.22499 0.02343 0.60628 0.0
C2570 C 0.23365 0.02319 0.62114 0.0
C2571 C 0.23294 1.00887 0.63083 0.0
C2572 C 0.22304 0.99533 0.62615 0.0
C2573 C 0.24286 0.03821 0.62672 0.0
C2574 C 0.25962 0.03797 0.62737 0.0
C2575 C 0.2352 0.05308 0.63018 0.0
C2576 C 0.21747 0.05397 0.63024 0.0
C2577 C 0.20783 0.0435 0.64045 0.0
C2578 C 0.19114 0.04432 0.64035 0.0
C2579 C 0.18394 0.05565 0.63018 0.0
C2580 C 0.19342 0.0662 0.62009 0.0
C2581 C 0.21012 0.0654 0.62012 0.0
H2582 H 0.17102 0.05628 0.63014 0.0
H2583 H 0.33316 0.04929 0.62998 0.0
H2584 H 0.45396 0.51955 0.41896 0.0
H2585 H 0.47658 0.50312 0.41102 0.0
H2586 H 0.48254 0.52975 0.3648 0.0
H2587 H 0.45949 0.54632 0.37261 0.0
H2588 H 0.48707 0.49477 0.36157 0.0
H2589 H 0.50458 0.54019 0.39454 0.0
H2590 H 0.50525 0.55975 0.418 0.0
H2591 H 0.51453 0.52094 0.45199 0.0
H2592 H 0.51393 0.50103 0.42856 0.0
H2593 H 0.56195 0.45129 0.36006 0.0
H2594 H 0.54301 0.47342 0.35697 0.0
H2595 H 0.52629 0.46579 0.40788 0.0
H2596 H 0.54524 0.44447 0.41119 0.0
H2597 H 0.53097 0.49683 0.40264 0.0
H2598 H 0.50653 0.45064 0.37096 0.0
H2599 H 0.50617 0.43067 0.34752 0.0
H2600 H 0.50932 0.47008 0.31224 0.0
H2601 H 0.50998 0.49027 0.33546 0.0
C2602 C 0.45999 0.52195 0.40705 0.0
C2603 C 0.45504 0.53442 0.39651 0.0
C2604 C 0.47289 0.51247 0.40251 0.0
C2605 C 0.48133 0.51532 0.38741 0.0
C2606 C 0.47615 0.52735 0.3765 0.0
C2607 C 0.46307 0.53686 0.38103 0.0
C2608 C 0.49619 0.50639 0.38398 0.0
C2609 C 0.49683 0.49538 0.37037 0.0
C2610 C 0.50891 0.50724 0.39546 0.0
C2611 C 0.50926 0.51912 0.4097 0.0
C2612 C 0.50675 0.5358 0.40699 0.0
C2613 C 0.50708 0.54697 0.42034 0.0
C2614 C 0.50989 0.54165 0.43655 0.0
C2615 C 0.51239 0.52508 0.43942 0.0
C2616 C 0.51211 0.51385 0.42608 0.0
C2617 C 0.55429 0.45448 0.37058 0.0
C2618 C 0.55519 0.44619 0.3859 0.0
C2619 C 0.54342 0.46703 0.36878 0.0
C2620 C 0.53315 0.47124 0.38218 0.0
C2621 C 0.53413 0.4629 0.39739 0.0
C2622 C 0.54503 0.45065 0.39925 0.0
C2623 C 0.52133 0.48431 0.38099 0.0
C2624 C 0.52135 0.49633 0.39368 0.0
C2625 C 0.50918 0.48415 0.36883 0.0
C2626 C 0.50853 0.47196 0.35494 0.0
C2627 C 0.50726 0.45504 0.3582 0.0
C2628 C 0.507 0.44368 0.34496 0.0
C2629 C 0.5078 0.44912 0.32841 0.0
C2630 C 0.50876 0.4659 0.32507 0.0
C2631 C 0.50909 0.4773 0.33826 0.0
H2632 H 0.50765 0.44036 0.31817 0.0
H2633 H 0.51013 0.55035 0.44686 0.0
H2634 H 0.23446 0.8043 0.14243 0.0
H2635 H 0.25495 0.78398 0.14497 0.0
H2636 H 0.2254 0.75788 0.18155 0.0
H2637 H 0.20489 0.77857 0.17927 0.0
H2638 H 0.25956 0.75512 0.18605 0.0
H2639 H 0.21975 0.74789 0.14395 0.0
H2640 H 0.20326 0.75647 0.12053 0.0
H2641 H 0.24561 0.76443 0.08997 0.0
H2642 H 0.26242 0.75638 0.11339 0.0
H2643 H 0.28989 0.67661 0.16524 0.0
H2644 H 0.2732 0.69973 0.17184 0.0
H2645 H 0.29502 0.72673 0.1307 0.0
H2646 H 0.31143 0.70336 0.12354 0.0
H2647 H 0.26382 0.72838 0.1301 0.0
H2648 H 0.30362 0.73553 0.17321 0.0
H2649 H 0.31937 0.72615 0.19688 0.0
H2650 H 0.27604 0.71642 0.22546 0.0
H2651 H 0.26002 0.72559 0.2019 0.0
C2652 C 0.23265 0.79461 0.15153 0.0
C2653 C 0.21815 0.79283 0.16057 0.0
C2654 C 0.24432 0.783 0.15294 0.0
C2655 C 0.24148 0.76927 0.16315 0.0
C2656 C 0.22775 0.7684 0.17358 0.0
C2657 C 0.21609 0.78021 0.17231 0.0
C2658 C 0.25142 0.75481 0.16063 0.0
C2659 C 0.26041 0.74914 0.17389 0.0
C2660 C 0.25248 0.74705 0.14472 0.0
C2661 C 0.24237 0.75173 0.13052 0.0
C2662 C 0.22557 0.75165 0.13231 0.0
C2663 C 0.21616 0.75643 0.11904 0.0
C2664 C 0.22339 0.76104 0.1038 0.0
C2665 C 0.24004 0.76089 0.1018 0.0
C2666 C 0.24952 0.75626 0.11508 0.0
C2667 C 0.29123 0.6875 0.15761 0.0
C2668 C 0.30196 0.68814 0.1438 0.0
C2669 C 0.28174 0.70077 0.1615 0.0
C2670 C 0.28302 0.71506 0.15188 0.0
C2671 C 0.29388 0.71581 0.13825 0.0
C2672 C 0.30323 0.70246 0.13418 0.0
C2673 C 0.27242 0.72891 0.15538 0.0
C2674 C 0.26311 0.73438 0.14227 0.0
C2675 C 0.27098 0.7363 0.17145 0.0
C2676 C 0.28063 0.73116 0.18576 0.0
C2677 C 0.29745 0.73134 0.18453 0.0
C2678 C 0.30642 0.72607 0.19792 0.0
C2679 C 0.29871 0.72068 0.21266 0.0
C2680 C 0.282 0.72061 0.21405 0.0
C2681 C 0.27297 0.72587 0.20069 0.0
H2682 H 0.30568 0.71657 0.223 0.0
H2683 H 0.21609 0.76463 0.09351 0.0
H2684 H 0.80436 0.03163 0.41272 0.0
H2685 H 0.78774 1.00739 0.40543 0.0
H2686 H 0.81214 1.00449 0.35745 0.0
H2687 H 0.82841 0.02911 0.36448 0.0
H2688 H 0.78148 0.99222 0.35556 0.0
H2689 H 0.82688 0.98518 0.38989 0.0
H2690 H 0.84446 0.99101 0.41387 0.0
H2691 H 0.80625 0.97646 0.44792 0.0
H2692 H 0.78834 0.9708 0.42412 0.0
H2693 H 0.76992 0.90571 0.34652 0.0
H2694 H 0.78397 0.93233 0.35014 0.0
H2695 H 0.75796 0.94001 0.39653 0.0
H2696 H 0.74389 0.91344 0.39309 0.0
H2697 H 0.79033 0.94956 0.39801 0.0
H2698 H 0.74499 0.95697 0.36152 0.0
H2699 H 0.72902 0.95103 0.33631 0.0
H2700 H 0.76983 0.96357 0.30492 0.0
H2701 H 0.78607 0.96957 0.32991 0.0
C2702 C 0.80572 0.02618 0.40037 0.0
C2703 C 0.81778 0.03202 0.38925 0.0
C2704 C 0.7963 1.01231 0.39625 0.0
C2705 C 0.79912 1.00387 0.38115 0.0
C2706 C 0.8099 1.01075 0.36924 0.0
C2707 C 0.81915 0.02484 0.37325 0.0
C2708 C 0.7926 0.98688 0.37891 0.0
C2709 C 0.78352 0.98286 0.36475 0.0
C2710 C 0.7954 0.97463 0.39086 0.0
C2711 C 0.80622 0.9777 0.40522 0.0
C2712 C 0.82219 0.98331 0.40249 0.0
C2713 C 0.83222 0.98658 0.41605 0.0
C2714 C 0.82646 0.98413 0.43241 0.0
C2715 C 0.81068 0.97836 0.43524 0.0
C2716 C 0.80059 0.97511 0.42172 0.0
C2717 C 0.76741 0.9129 0.35767 0.0
C2718 C 0.7557 0.9075 0.36947 0.0
C2719 C 0.77535 0.92816 0.35963 0.0
C2720 C 0.77175 0.93821 0.37343 0.0
C2721 C 0.7608 0.93245 0.38573 0.0
C2722 C 0.75279 0.91726 0.38374 0.0
C2723 C 0.77893 0.955 0.37486 0.0
C2724 C 0.78826 0.95894 0.38884 0.0
C2725 C 0.77661 0.96704 0.36258 0.0
C2726 C 0.76678 0.96357 0.34758 0.0
C2727 C 0.75058 0.95837 0.34924 0.0
C2728 C 0.74148 0.955 0.335 0.0
C2729 C 0.74842 0.95683 0.31905 0.0
C2730 C 0.76447 0.96213 0.31728 0.0
C2731 C 0.77362 0.96555 0.33148 0.0
H2732 H 0.74136 0.95419 0.30805 0.0
H2733 H 0.83425 0.98668 0.44289 0.0
H2734 H 0.92957 0.22844 0.88798 0.0
H2735 H 0.95608 0.24149 0.8926 0.0
H2736 H 0.96393 0.24502 0.83917 0.0
H2737 H 0.93794 0.23133 0.83454 0.0
H2738 H 0.9906 0.23872 0.85138 0.0
H2739 H 0.95188 0.27848 0.86565 0.0
H2740 H 0.92829 0.28956 0.88021 0.0
H2741 H 0.9508 0.2839 0.92761 0.0
H2742 H 0.97445 0.27258 0.91334 0.0
H2743 H 0.05005 0.30529 0.8531 0.0
H2744 H 0.02697 0.28635 0.8488 0.0
H2745 H 0.02277 0.27885 0.90213 0.0
H2746 H 0.04547 0.29812 0.90646 0.0
H2747 H 0.99485 0.28642 0.89023 0.0
H2748 H 0.03538 0.24827 0.87293 0.0
H2749 H 0.05918 0.24161 0.85579 0.0
H2750 H 0.03268 0.24794 0.81089 0.0
H2751 H 1.0088 0.25487 0.82776 0.0
C2752 C 0.93698 0.23194 0.87724 0.0
C2753 C 0.93151 0.22894 0.8609 0.0
C2754 C 0.95215 0.23949 0.87987 0.0
C2755 C 0.96203 0.24463 0.86624 0.0
C2756 C 0.95668 0.24125 0.84995 0.0
C2757 C 0.9417 0.23346 0.84732 0.0
C2758 C 0.97767 0.25393 0.86882 0.0
C2759 C 0.99145 0.2492 0.85983 0.0
C2760 C 0.97902 0.26766 0.87982 0.0
C2761 C 0.96485 0.27451 0.88844 0.0
C2762 C 0.95175 0.2795 0.87919 0.0
C2763 C 0.93838 0.28583 0.88738 0.0
C2764 C 0.93803 0.28738 0.90483 0.0
C2765 C 0.95107 0.28265 0.91411 0.0
C2766 C 0.96447 0.27629 0.90597 0.0
C2767 C 0.04456 0.29916 0.86384 0.0
C2768 C 0.04967 0.30314 0.88011 0.0
C2769 C 0.03126 0.28837 0.86139 0.0
C2770 C 0.02302 0.28108 0.87515 0.0
C2771 C 0.02879 0.28433 0.8913 0.0
C2772 C 0.04189 0.29524 0.89376 0.0
C2773 C 1.00775 0.2711 0.87296 0.0
C2774 C 0.99402 0.27579 0.88197 0.0
C2775 C 1.00639 0.25762 0.86169 0.0
C2776 C 0.02035 0.25222 0.85161 0.0
C2777 C 0.03464 0.24824 0.8594 0.0
C2778 C 0.04816 0.2445 0.84974 0.0
C2779 C 0.04748 0.24453 0.83227 0.0
C2780 C 0.03321 0.24803 0.82443 0.0
C2781 C 0.01967 0.25182 0.83403 0.0
H2782 H 0.05798 0.24169 0.8248 0.0
H2783 H 0.92766 0.29229 0.91115 0.0
H2784 H 0.87571 0.02569 0.43215 0.0
H2785 H 0.87433 1.00264 0.45163 0.0
H2786 H 0.91809 0.02071 0.47431 0.0
H2787 H 0.91973 0.0435 0.45463 0.0
H2788 H 0.91966 0.98909 0.4706 0.0
H2789 H 0.87813 0.02329 0.49357 0.0
H2790 H 0.85339 0.03871 0.49189 0.0
H2791 H 0.82719 0.99481 0.47695 0.0
H2792 H 0.85181 0.97916 0.47842 0.0
H2793 H 0.92009 0.93951 0.5421 0.0
H2794 H 0.91825 0.96278 0.52337 0.0
H2795 H 0.87352 0.94245 0.50477 0.0
H2796 H 0.87507 0.91928 0.52411 0.0
H2797 H 0.8715 0.97414 0.50522 0.0
H2798 H 0.91109 0.93951 0.48264 0.0
H2799 H 0.93516 0.92295 0.48254 0.0
H2800 H 0.96434 0.96592 0.49409 0.0
H2801 H 0.94039 0.98272 0.49447 0.0
C2802 C 0.88498 0.02489 0.44138 0.0
C2803 C 0.8978 0.03669 0.44172 0.0
C2804 C 0.88416 1.01164 0.45265 0.0
C2805 C 0.89601 1.00979 0.4648 0.0
C2806 C 0.90874 0.02164 0.46519 0.0
C2807 C 0.90962 0.03482 0.45389 0.0
C2808 C 0.89549 0.99545 0.47681 0.0
C2809 C 0.90917 0.98605 0.47833 0.0
C2810 C 0.88167 0.99076 0.48656 0.0
C2811 C 0.86682 1.00009 0.486 0.0
C2812 C 0.8671 0.01695 0.48988 0.0
C2813 C 0.8531 0.02572 0.48897 0.0
C2814 C 0.83873 0.01775 0.4843 0.0
C2815 C 0.83832 1.00097 0.48058 0.0
C2816 C 0.85229 0.99213 0.48148 0.0
C2817 C 0.90975 0.93999 0.53414 0.0
C2818 C 0.8978 0.92731 0.53462 0.0
C2819 C 0.90877 0.95334 0.52325 0.0
C2820 C 0.89598 0.95437 0.51207 0.0
C2821 C 0.88363 0.94207 0.51304 0.0
C2822 C 0.8845 0.92876 0.52417 0.0
C2823 C 0.89581 0.96802 0.49927 0.0
C2824 C 0.88201 0.97722 0.49754 0.0
C2825 C 0.90944 0.97237 0.48908 0.0
C2826 C 0.92391 0.96235 0.48873 0.0
C2827 C 0.92262 0.94541 0.48526 0.0
C2828 C 0.93625 0.93598 0.48515 0.0
C2829 C 0.95127 0.94336 0.48836 0.0
C2830 C 0.95269 0.96021 0.49163 0.0
C2831 C 0.9391 0.9697 0.49178 0.0
H2832 H 0.9618 0.93603 0.48827 0.0
H2833 H 0.82791 0.02458 0.48357 0.0
H2834 H 0.97864 0.64824 0.18379 0.0
H2835 H 0.9971 0.63991 0.20513 0.0
H2836 H 0.03259 0.63015 0.16679 0.0
H2837 H 1.01366 0.63781 0.14518 0.0
H2838 H 0.03591 0.60897 0.19039 0.0
H2839 H 0.03258 0.66721 0.19179 0.0
H2840 H 0.01927 0.69367 0.19319 0.0
H2841 H 0.99936 0.68141 0.24162 0.0
H2842 H 1.01238 0.65478 0.24042 0.0
H2843 H 0.10318 0.62216 0.24548 0.0
H2844 H 0.08294 0.62224 0.22362 0.0
H2845 H 0.04558 0.62227 0.26157 0.0
H2846 H 0.06593 0.62183 0.28351 0.0
H2847 H 0.04338 0.64758 0.23825 0.0
H2848 H 0.04905 0.58919 0.23642 0.0
H2849 H 0.06389 0.56369 0.23411 0.0
H2850 H 0.08188 0.57792 0.18547 0.0
H2851 H 0.06734 0.60365 0.18761 0.0
C2852 C 0.9903 0.64413 0.17983 0.0
C2853 C 0.99465 0.64387 0.1627 0.0
C2854 C 1.00098 0.63948 0.19213 0.0
C2855 C 1.01662 0.63488 0.18783 0.0
C2856 C 0.02073 0.63379 0.17063 0.0
C2857 C 1.00986 0.63816 0.15821 0.0
C2858 C 0.02865 0.63184 0.20131 0.0
C2859 C 0.03763 0.61755 0.20072 0.0
C2860 C 0.03101 0.64283 0.21508 0.0
C2861 C 0.02332 0.65892 0.21594 0.0
C2862 C 0.02529 0.67012 0.2027 0.0
C2863 C 1.0178 0.68515 0.20346 0.0
C2864 C 1.00843 0.68919 0.21746 0.0
C2865 C 1.0066 0.67825 0.23077 0.0
C2866 C 1.01404 0.66319 0.23006 0.0
C2867 C 0.09062 0.62153 0.24915 0.0
C2868 C 0.08617 0.62154 0.26625 0.0
C2869 C 0.07902 0.62169 0.23661 0.0
C2870 C 0.06261 0.62222 0.2408 0.0
C2871 C 0.05811 0.62177 0.25791 0.0
C2872 C 0.06974 0.6213 0.27048 0.0
C2873 C 0.05043 0.62468 0.22742 0.0
C2874 C 0.04154 0.63895 0.22797 0.0
C2875 C 0.04843 0.61386 0.21352 0.0
C2876 C 0.05719 0.5984 0.21222 0.0
C2877 C 0.05627 0.58695 0.22529 0.0
C2878 C 0.06461 0.57244 0.224 0.0
C2879 C 0.07383 0.56919 0.20966 0.0
C2880 C 0.07472 0.58044 0.19657 0.0
C2881 C 0.06642 0.59498 0.1978 0.0
H2882 H 0.08028 0.55795 0.20869 0.0
H2883 H 1.0026 0.7008 0.21801 0.0
H2884 H 0.39976 0.76014 0.93393 0.0
H2885 H 0.39773 0.77562 0.95965 0.0
H2886 H 0.37574 0.73347 0.98447 0.0
H2887 H 0.377 0.71782 0.9579 0.0
H2888 H 0.36115 0.75891 0.99476 0.0
H2889 H 0.41531 0.74799 0.99345 0.0
H2890 H 0.44265 0.7443 0.98228 0.0
H2891 H 0.44741 0.79565 0.97115 0.0
H2892 H 0.42 0.79964 0.98198 0.0
H2893 H 0.36345 0.81954 0.06163 0.0
H2894 H 0.36802 0.79422 0.04583 0.0
H2895 H 0.38914 0.82272 1.00523 0.0
H2896 H 0.38551 0.8479 0.02149 0.0
H2897 H 0.40609 0.79737 0.01 0.0
H2898 H 0.3461 0.80333 0.00991 0.0
H2899 H 0.32017 0.80303 0.02545 0.0
H2900 H 0.32928 0.75569 0.0452 0.0
H2901 H 0.35539 0.75585 0.03026 0.0
C2902 C 0.39465 0.75394 0.94483 0.0
C2903 C 0.3887 0.7376 0.94381 0.0
C2904 C 0.39359 0.76287 0.95969 0.0
C2905 C 0.38703 0.75569 0.97428 0.0
C2906 C 0.38102 0.73931 0.97345 0.0
C2907 C 0.38178 0.73035 0.95829 0.0
C2908 C 0.38592 0.76594 0.98986 0.0
C2909 C 0.37107 0.76713 0.99825 0.0
C2910 C 0.39895 0.77634 0.995 0.0
C2911 C 0.41554 0.7741 0.98852 0.0
C2912 C 0.42214 0.7585 0.98854 0.0
C2913 C 0.43766 0.75634 0.98227 0.0
C2914 C 0.44676 0.76973 0.97601 0.0
C2915 C 0.44035 0.78529 0.97602 0.0
C2916 C 0.42483 0.78752 0.98226 0.0
C2917 C 0.36903 0.82035 0.04929 0.0
C2918 C 0.374 0.8357 0.0427 0.0
C2919 C 0.37156 0.80586 0.04021 0.0
C2920 C 0.37859 0.80646 0.02408 0.0
C2921 C 0.38365 0.82184 0.0176 0.0
C2922 C 0.38154 0.83627 0.02687 0.0
C2923 C 0.38098 0.79131 0.01377 0.0
C2924 C 0.39621 0.78907 1.00655 0.0
C2925 C 0.3685 0.77952 0.01032 0.0
C2926 C 0.35269 0.77961 0.019 0.0
C2927 C 0.34258 0.79288 0.01759 0.0
C2928 C 0.32788 0.79276 0.0263 0.0
C2929 C 0.32308 0.77937 0.03622 0.0
C2930 C 0.33299 0.76606 0.03751 0.0
C2931 C 0.34773 0.76616 0.02895 0.0
H2932 H 0.3117 0.77932 0.04292 0.0
H2933 H 0.45877 0.76803 0.97115 0.0
H2934 H 0.1708 0.66431 0.01618 0.0
H2935 H 0.19308 0.65946 0.03462 0.0
H2936 H 0.21421 0.62832 0.99701 0.0
H2937 H 0.19181 0.63294 0.97847 0.0
H2938 H 0.21716 0.61621 0.0295 0.0
H2939 H 0.22627 0.66692 1.00036 0.0
H2940 H 0.21989 0.6945 0.99081 0.0
H2941 H 0.21764 0.71159 0.04179 0.0
H2942 H 0.22361 0.68399 0.05169 0.0
H2943 H 0.29576 0.62486 0.06894 0.0
H2944 H 0.27311 0.62188 0.04951 0.0
H2945 H 0.24712 0.65693 0.07906 0.0
H2946 H 0.2695 0.66007 0.098 0.0
H2947 H 0.24851 0.6659 0.04765 0.0
H2948 H 0.2299 0.61549 0.07642 0.0
H2949 H 0.23175 0.5875 0.08757 0.0
H2950 H 0.25051 0.57094 0.04019 0.0
H2951 H 0.24829 0.59874 0.02865 0.0
C2952 C 0.18006 0.65627 0.01185 0.0
C2953 C 0.17958 0.64919 0.99573 0.0
C2954 C 0.19283 0.65354 0.02242 0.0
C2955 C 0.20545 0.64374 0.0171 0.0
C2956 C 0.20464 0.63598 1.00135 0.0
C2957 C 0.19185 0.63871 0.99074 0.0
C2958 C 0.21989 0.64249 0.02758 0.0
C2959 C 0.22418 0.62705 0.03326 0.0
C2960 C 0.2289 0.65665 0.03273 0.0
C2961 C 0.22534 0.67332 0.02677 0.0
C2962 C 0.22428 0.6765 0.00956 0.0
C2963 C 0.22073 0.69215 1.00407 0.0
C2964 C 0.21842 0.70479 0.01568 0.0
C2965 C 0.21949 0.70179 0.03281 0.0
C2966 C 0.22295 0.68613 0.03836 0.0
C2967 C 0.28507 0.63166 0.07135 0.0
C2968 C 0.28445 0.64283 0.08484 0.0
C2969 C 0.27212 0.62994 0.06031 0.0
C2970 C 0.25839 0.63925 0.06276 0.0
C2971 C 0.25758 0.64971 0.07676 0.0
C2972 C 0.27043 0.65153 0.08758 0.0
C2973 C 0.24549 0.63966 0.0501 0.0
C2974 C 0.24158 0.65502 0.04381 0.0
C2975 C 0.2367 0.6255 0.04465 0.0
C2976 C 0.23914 0.60916 0.05178 0.0
C2977 C 0.23453 0.60588 0.06845 0.0
C2978 C 0.23546 0.59003 0.07476 0.0
C2979 C 0.24127 0.57745 0.0646 0.0
C2980 C 0.24603 0.58069 0.04805 0.0
C2981 C 0.24484 0.59646 0.04158 0.0
H2982 H 0.24212 0.56523 0.06957 0.0
H2983 H 0.21589 0.71694 0.01139 0.0
H2984 H 0.39664 0.04166 0.85745 0.0
H2985 H 0.3994 0.0241 0.83251 0.0
H2986 H 0.36415 0.9896 0.85323 0.0
H2987 H 0.36173 1.00676 0.87822 0.0
H2988 H 0.38603 0.97294 0.83866 0.0
H2989 H 0.35621 0.01912 0.82175 0.0
H2990 H 0.35185 0.0486 0.8182 0.0
H2991 H 0.39348 0.05292 0.78595 0.0
H2992 H 0.39825 0.0235 0.78955 0.0
H2993 H 0.35668 0.93137 0.76677 0.0
H2994 H 0.35984 0.94993 0.79069 0.0
H2995 H 0.40142 0.97313 0.76696 0.0
H2996 H 0.39843 0.95429 0.74278 0.0
H2997 H 0.37945 0.99606 0.78208 0.0
H2998 H 0.4077 0.94881 0.79772 0.0
H2999 H 0.4113 0.91924 0.80154 0.0
H3000 H 0.37141 0.91694 0.83626 0.0
H3001 H 0.36743 0.94647 0.83246 0.0
C3002 C 0.38959 0.03025 0.85678 0.0
C3003 C 0.37895 0.02572 0.87 0.0
C3004 C 0.39108 0.02022 0.84239 0.0
C3005 C 0.38179 1.0055 0.84065 0.0
C3006 C 0.3715 1.0008 0.85405 0.0
C3007 C 0.37011 1.01071 0.86845 0.0
C3008 C 0.38246 0.99506 0.82492 0.0
C3009 C 0.38446 0.97807 0.82634 0.0
C3010 C 0.38078 1.00156 0.80861 0.0
C3011 C 0.37769 0.01914 0.80606 0.0
C3012 C 0.36448 0.02637 0.81397 0.0
C3013 C 0.36194 0.04307 0.81195 0.0
C3014 C 0.37241 0.05264 0.8019 0.0
C3015 C 0.3854 0.0455 0.79377 0.0
C3016 C 0.38803 0.02881 0.79579 0.0
C3017 C 0.36654 0.94039 0.76651 0.0
C3018 C 0.37731 0.9412 0.7527 0.0
C3019 C 0.36835 0.95103 0.78032 0.0
C3020 C 0.3809 0.96299 0.7808 0.0
C3021 C 0.3916 0.96406 0.76696 0.0
C3022 C 0.38993 0.95319 0.75315 0.0
C3023 C 0.38278 0.97401 0.79595 0.0
C3024 C 0.3812 0.99104 0.79441 0.0
C3025 C 0.3847 0.96755 0.81219 0.0
C3026 C 0.38718 0.94983 0.81469 0.0
C3027 C 0.39962 0.94198 0.80608 0.0
C3028 C 0.40174 0.92522 0.80826 0.0
C3029 C 0.39156 0.9162 0.81911 0.0
C3030 C 0.37928 0.92394 0.82785 0.0
C3031 C 0.3771 0.94069 0.8257 0.0
H3032 H 0.39321 0.90323 0.82076 0.0
H3033 H 0.37044 0.06557 0.80039 0.0
H3034 H 1.01117 0.16215 0.5876 0.0
H3035 H 0.03412 0.16339 0.56802 0.0
H3036 H 1.01632 0.11908 0.54375 0.0
H3037 H 0.99367 0.11755 0.56352 0.0
H3038 H 0.04663 0.11655 0.54689 0.0
H3039 H 1.01519 0.15981 0.52616 0.0
H3040 H 1.00035 0.18534 0.52795 0.0
H3041 H 0.04305 0.21202 0.54316 0.0
H3042 H 0.05811 0.1866 0.54166 0.0
H3043 H 0.09607 0.11819 0.47416 0.0
H3044 H 0.0732 0.11999 0.4934 0.0
H3045 H 0.09585 0.16202 0.5176 0.0
H3046 H 0.11882 0.16049 0.49797 0.0
H3047 H 0.06406 0.16637 0.51535 0.0
H3048 H 0.09568 0.12291 0.5348 0.0
H3049 H 0.1105 0.09749 0.53151 0.0
H3050 H 0.0671 0.071 0.51814 0.0
H3051 H 0.05207 0.09636 0.52098 0.0
C3052 C 1.012 0.15277 0.57797 0.0
C3053 C 1.00036 0.13978 0.57725 0.0
C3054 C 0.0252 0.1535 0.56667 0.0
C3055 C 0.02713 0.14141 0.5541 0.0
C3056 C 1.01536 0.12859 0.55324 0.0
C3057 C 1.00225 0.12779 0.56458 0.0
C3058 C 0.04148 0.14174 0.54215 0.0
C3059 C 0.05024 0.12744 0.53987 0.0
C3060 C 0.04674 0.15597 0.53314 0.0
C3061 C 0.03773 0.17127 0.53396 0.0
C3062 C 0.02139 0.1711 0.53 0.0
C3063 C 1.01294 0.18556 0.53094 0.0
C3064 C 0.02074 0.20028 0.53571 0.0
C3065 C 0.03702 0.2006 0.53949 0.0
C3066 C 0.04552 0.18618 0.53858 0.0
C3067 C 0.09627 0.12789 0.48352 0.0
C3068 C 0.10952 0.1391 0.48449 0.0
C3069 C 0.0831 0.12886 0.49464 0.0
C3070 C 0.08274 0.14094 0.50735 0.0
C3071 C 0.09572 0.1525 0.50805 0.0
C3072 C 0.10893 0.15159 0.4968 0.0
C3073 C 0.06901 0.14115 0.51999 0.0
C3074 C 0.06043 0.15553 0.52242 0.0
C3075 C 0.06387 0.12698 0.52912 0.0
C3076 C 0.07277 0.11158 0.52798 0.0
C3077 C 0.0893 0.11168 0.5311 0.0
C3078 C 0.09774 0.09728 0.52931 0.0
C3079 C 0.08975 0.08264 0.5246 0.0
C3080 C 0.07328 0.08235 0.52177 0.0
C3081 C 0.06479 0.09674 0.52347 0.0
H3082 H 0.09632 0.07152 0.52313 0.0
H3083 H 1.01417 0.21146 0.53644 0.0
H3084 H 0.54381 0.86409 0.91291 0.0
H3085 H 0.52421 0.86444 0.93592 0.0
H3086 H 0.55436 0.89936 0.96283 0.0
H3087 H 0.57403 0.89939 0.93958 0.0
H3088 H 0.53726 0.87241 0.98305 0.0
H3089 H 0.52987 0.91624 0.9459 0.0
H3090 H 0.52749 0.93001 0.9188 0.0
H3091 H 0.48514 0.90049 0.90828 0.0
H3092 H 0.48765 0.88602 0.93504 0.0
H3093 H 0.45725 0.9116 0.01193 0.0
H3094 H 0.48142 0.91095 0.99468 0.0
H3095 H 0.4835 0.85877 1.00219 0.0
H3096 H 0.45923 0.85937 0.01999 0.0
H3097 H 0.48645 0.89673 0.96628 0.0
H3098 H 0.52283 0.84843 1.00132 0.0
H3099 H 0.52702 0.83963 0.03035 0.0
H3100 H 0.51379 0.88691 0.04876 0.0
H3101 H 0.50957 0.89601 0.01992 0.0
C3102 C 0.54643 0.87165 0.92382 0.0
C3103 C 0.56033 0.8819 0.92437 0.0
C3104 C 0.53524 0.8718 0.93695 0.0
C3105 C 0.53787 0.88197 0.95095 0.0
C3106 C 0.55221 0.89141 0.95209 0.0
C3107 C 0.56333 0.89151 0.93878 0.0
C3108 C 0.52477 0.884 0.96331 0.0
C3109 C 0.52612 0.8777 0.97946 0.0
C3110 C 0.51053 0.89146 0.95869 0.0
C3111 C 0.50912 0.89983 0.94237 0.0
C3112 C 0.52024 0.91243 0.93767 0.0
C3113 C 0.51885 0.92039 0.92237 0.0
C3114 C 0.50624 0.91605 0.91178 0.0
C3115 C 0.49498 0.90374 0.91645 0.0
C3116 C 0.49641 0.89561 0.93166 0.0
C3117 C 0.46277 0.89992 0.00995 0.0
C3118 C 0.45623 0.88548 0.01725 0.0
C3119 C 0.47664 0.89961 1.00007 0.0
C3120 C 0.4843 0.88485 0.9972 0.0
C3121 C 0.47786 0.87034 1.00443 0.0
C3122 C 0.46393 0.87066 0.01445 0.0
C3123 C 0.49864 0.88471 0.98603 0.0
C3124 C 0.49753 0.89138 0.96998 0.0
C3125 C 0.51329 0.87827 0.99105 0.0
C3126 C 0.51571 0.87282 0.00845 0.0
C3127 C 0.52082 0.85694 0.01157 0.0
C3128 C 0.52317 0.8519 0.02801 0.0
C3129 C 0.52058 0.86268 0.04141 0.0
C3130 C 0.51566 0.87853 0.0384 0.0
C3131 C 0.51324 0.88362 0.02202 0.0
H3132 H 0.52243 0.85877 0.05412 0.0
H3133 H 0.50518 0.92227 0.89998 0.0
H3134 H 0.73216 0.84292 0.46418 0.0
H3135 H 0.73825 0.84511 0.49386 0.0
H3136 H 0.74819 0.89715 0.48841 0.0
H3137 H 0.74089 0.89516 0.45894 0.0
H3138 H 0.76487 0.8514 0.50564 0.0
H3139 H 0.74756 0.91802 0.52569 0.0
H3140 H 0.72548 0.93672 0.52196 0.0
H3141 H 0.69372 0.89587 0.50994 0.0
H3142 H 0.71562 0.87693 0.51334 0.0
H3143 H 0.80863 0.91186 0.55727 0.0
H3144 H 0.78307 0.90609 0.54413 0.0
H3145 H 0.78115 0.85747 0.56507 0.0
H3146 H 0.80753 0.86288 0.57731 0.0
H3147 H 0.75334 0.89623 0.54588 0.0
H3148 H 0.77009 0.83065 0.53668 0.0
H3149 H 0.79293 0.81244 0.53874 0.0
H3150 H 0.82557 0.85265 0.52621 0.0
H3151 H 0.80295 0.87099 0.52412 0.0
C3152 C 0.73547 0.85487 0.46935 0.0
C3153 C 0.73623 0.86885 0.4592 0.0
C3154 C 0.73886 0.85613 0.48637 0.0
C3155 C 0.74359 0.87131 0.49354 0.0
C3156 C 0.74416 0.88535 0.48341 0.0
C3157 C 0.74025 0.88417 0.46646 0.0
C3158 C 0.7501 0.87203 0.51078 0.0
C3159 C 0.76189 0.86094 0.51461 0.0
C3160 C 0.74648 0.88457 0.52252 0.0
C3161 C 0.73328 0.89597 0.51991 0.0
C3162 C 0.73586 0.91297 0.5223 0.0
C3163 C 0.72338 0.92365 0.52014 0.0
C3164 C 0.70821 0.91748 0.51567 0.0
C3165 C 0.7055 0.90063 0.51328 0.0
C3166 C 0.71797 0.88992 0.51529 0.0
C3167 C 0.80258 0.90008 0.55953 0.0
C3168 C 0.81035 0.88761 0.56783 0.0
C3169 C 0.78782 0.89682 0.55207 0.0
C3170 C 0.78047 0.88109 0.55297 0.0
C3171 C 0.78688 0.86953 0.56371 0.0
C3172 C 0.80188 0.87269 0.57091 0.0
C3173 C 0.76852 0.87618 0.54006 0.0
C3174 C 0.75573 0.8864 0.53706 0.0
C3175 C 0.77125 0.86298 0.52886 0.0
C3176 C 0.78491 0.85216 0.53044 0.0
C3177 C 0.78217 0.83555 0.53442 0.0
C3178 C 0.79506 0.82523 0.53561 0.0
C3179 C 0.81071 0.83137 0.53268 0.0
C3180 C 0.81349 0.84787 0.52858 0.0
C3181 C 0.80065 0.85825 0.5274 0.0
H3182 H 0.82063 0.82331 0.53353 0.0
H3183 H 0.69854 0.92576 0.51408 0.0
H3184 H 0.16961 0.50594 0.13741 0.0
H3185 H 0.15935 0.51967 0.1626 0.0
H3186 H 0.14142 0.47307 0.18166 0.0
H3187 H 0.15123 0.45938 0.15657 0.0
H3188 H 0.12091 0.49479 0.18953 0.0
H3189 H 0.1781 0.49185 0.19399 0.0
H3190 H 0.20609 0.49642 0.18415 0.0
H3191 H 0.20018 0.54846 0.1848 0.0
H3192 H 0.17208 0.5442 0.19437 0.0
H3193 H 0.14642 0.53452 0.27599 0.0
H3194 H 0.15075 0.51814 0.25072 0.0
H3195 H 0.10931 0.53866 0.22858 0.0
H3196 H 0.10468 0.55476 0.25428 0.0
H3197 H 0.15909 0.52986 0.22214 0.0
H3198 H 0.09587 0.51401 0.1968 0.0
H3199 H 0.06866 0.50671 0.20756 0.0
H3200 H 0.08847 0.4873 0.25213 0.0
H3201 H 0.11579 0.49433 0.24155 0.0
C3202 C 0.16344 0.49863 0.14697 0.0
C3203 C 0.1614 0.48154 0.14501 0.0
C3204 C 0.1576 0.50649 0.16139 0.0
C3205 C 0.14987 0.49738 0.17428 0.0
C3206 C 0.14741 0.48039 0.17205 0.0
C3207 C 0.1531 0.47257 0.15764 0.0
C3208 C 0.14497 0.50529 0.1904 0.0
C3209 C 0.12925 0.50252 0.19662 0.0
C3210 C 0.15589 0.51509 0.19992 0.0
C3211 C 0.17294 0.51769 0.1947 0.0
C3212 C 0.18276 0.50426 0.19197 0.0
C3213 C 0.19863 0.5068 0.18643 0.0
C3214 C 0.20487 0.52271 0.18378 0.0
C3215 C 0.1953 0.53614 0.18681 0.0
C3216 C 0.17941 0.53368 0.19229 0.0
C3217 C 0.13793 0.53513 0.26593 0.0
C3218 C 0.12518 0.54583 0.26708 0.0
C3219 C 0.1405 0.52586 0.25142 0.0
C3220 C 0.13049 0.52723 0.23761 0.0
C3221 C 0.11713 0.53722 0.2391 0.0
C3222 C 0.11442 0.54637 0.25381 0.0
C3223 C 0.13502 0.51935 0.22135 0.0
C3224 C 0.1507 0.52219 0.21505 0.0
C3225 C 0.1242 0.50923 0.21205 0.0
C3226 C 0.10784 0.50486 0.21846 0.0
C3227 C 0.09441 0.50815 0.20887 0.0
C3228 C 0.07897 0.50407 0.21495 0.0
C3229 C 0.07684 0.4966 0.23055 0.0
C3230 C 0.09014 0.49315 0.24008 0.0
C3231 C 0.1056 0.49721 0.23407 0.0
H3232 H 0.06488 0.49345 0.23522 0.0
H3233 H 0.2171 0.52465 0.17938 0.0
H3234 H 0.46547 0.92961 0.75294 0.0
H3235 H 0.48599 0.92754 0.77455 0.0
H3236 H 0.462 0.88326 0.79285 0.0
H3237 H 0.44164 0.88544 0.77181 0.0
H3238 H 0.4731 0.90044 0.8182 0.0
H3239 H 0.4937 0.88186 0.76397 0.0
H3240 H 0.5014 0.88531 0.73423 0.0
H3241 H 0.53381 0.92539 0.7472 0.0
H3242 H 0.5263 0.92211 0.77709 0.0
H3243 H 0.52755 0.84813 0.85245 0.0
H3244 H 0.50928 0.86006 0.83278 0.0
H3245 H 0.54219 0.90166 0.82611 0.0
H3246 H 0.56079 0.88952 0.84528 0.0
H3247 H 0.52835 0.89218 0.7967 0.0
H3248 H 0.5115 0.90241 0.8533 0.0
H3249 H 0.50449 0.89373 0.88198 0.0
H3250 H 0.46354 0.86596 0.86391 0.0
H3251 H 0.47076 0.87379 0.83493 0.0
C3252 C 0.46445 0.91971 0.76187 0.0
C3253 C 0.45211 0.90759 0.76062 0.0
C3254 C 0.4762 0.91846 0.77411 0.0
C3255 C 0.47564 0.90511 0.78518 0.0
C3256 C 0.46272 0.89366 0.7845 0.0
C3257 C 0.45113 0.89487 0.77236 0.0
C3258 C 0.48894 0.9019 0.79663 0.0
C3259 C 0.4852 0.89869 0.81353 0.0
C3260 C 0.50479 0.89986 0.79059 0.0
C3261 C 0.50929 0.9019 0.77269 0.0
C3262 C 0.50239 0.89148 0.76045 0.0
C3263 C 0.50673 0.89339 0.74357 0.0
C3264 C 0.51799 0.90565 0.73879 0.0
C3265 C 0.52503 0.91594 0.75091 0.0
C3266 C 0.52077 0.91404 0.76783 0.0
C3267 C 0.53094 0.85975 0.8467 0.0
C3268 C 0.54552 0.86797 0.85054 0.0
C3269 C 0.52051 0.86655 0.83547 0.0
C3270 C 0.52425 0.88191 0.82826 0.0
C3271 C 0.53906 0.88984 0.83157 0.0
C3272 C 0.54964 0.8829 0.84258 0.0
C3273 C 0.5123 0.89006 0.81805 0.0
C3274 C 0.51636 0.8943 0.80149 0.0
C3275 C 0.49662 0.89267 0.82431 0.0
C3276 C 0.49176 0.88862 0.84186 0.0
C3277 C 0.50107 0.89434 0.85539 0.0
C3278 C 0.49706 0.88954 0.87172 0.0
C3279 C 0.48353 0.87935 0.8748 0.0
C3280 C 0.47399 0.8739 0.86152 0.0
C3281 C 0.47808 0.87847 0.84511 0.0
H3282 H 0.48045 0.87564 0.88747 0.0
H3283 H 0.52131 0.90715 0.72571 0.0
H3284 H 0.14656 0.28777 0.60337 0.0
H3285 H 0.14728 0.27609 0.57508 0.0
H3286 H 0.19258 0.30156 0.56515 0.0
H3287 H 0.19209 0.31319 0.59367 0.0
H3288 H 0.16908 0.30037 0.53693 0.0
H3289 H 0.19633 0.26564 0.57478 0.0
H3290 H 0.1989 0.25036 0.60104 0.0
H3291 H 0.15669 0.22098 0.58954 0.0
H3292 H 0.15372 0.23628 0.56334 0.0
H3293 H 0.18511 0.22078 0.48351 0.0
H3294 H 0.19148 0.24279 0.50375 0.0
H3295 H 0.14198 0.25588 0.50515 0.0
H3296 H 0.13545 0.23357 0.48533 0.0
H3297 H 0.17295 0.23982 0.53614 0.0
H3298 H 0.14796 0.3023 0.51488 0.0
H3299 H 0.14613 0.3186 0.48922 0.0
H3300 H 0.18479 0.29261 0.46665 0.0
H3301 H 0.18705 0.27631 0.49219 0.0
C3302 C 0.15662 0.29105 0.59515 0.0
C3303 C 0.16941 0.30118 0.6009 0.0
C3304 C 0.15698 0.28439 0.57895 0.0
C3305 C 0.17003 0.28786 0.56805 0.0
C3306 C 0.18241 0.2987 0.57337 0.0
C3307 C 0.18218 0.30521 0.58971 0.0
C3308 C 0.17131 0.27879 0.55186 0.0
C3309 C 0.16993 0.28714 0.53667 0.0
C3310 C 0.17283 0.26159 0.55156 0.0
C3311 C 0.17474 0.25218 0.56717 0.0
C3312 C 0.18753 0.25599 0.57791 0.0
C3313 C 0.18907 0.24733 0.59278 0.0
C3314 C 0.17795 0.23473 0.59697 0.0
C3315 C 0.16529 0.23075 0.58628 0.0
C3316 C 0.16368 0.2394 0.57141 0.0
C3317 C 0.17571 0.22875 0.48762 0.0
C3318 C 0.15977 0.22544 0.48292 0.0
C3319 C 0.17935 0.24127 0.49925 0.0
C3320 C 0.1672 0.25096 0.50594 0.0
C3321 C 0.15155 0.24864 0.50005 0.0
C3322 C 0.14783 0.23589 0.48874 0.0
C3323 C 0.17012 0.26125 0.52111 0.0
C3324 C 0.17222 0.25307 0.53624 0.0
C3325 C 0.1692 0.27855 0.52122 0.0
C3326 C 0.16754 0.2879 0.50549 0.0
C3327 C 0.15608 0.30003 0.50446 0.0
C3328 C 0.15498 0.3093 0.48992 0.0
C3329 C 0.1653 0.30661 0.4763 0.0
C3330 C 0.17674 0.29462 0.47718 0.0
C3331 C 0.17785 0.28527 0.49166 0.0
H3332 H 0.16446 0.31383 0.46507 0.0
H3333 H 0.17915 0.22804 0.60848 0.0
H3334 H 0.18373 0.46689 0.07334 0.0
H3335 H 0.19516 0.48334 0.05049 0.0
H3336 H 0.14793 0.48841 0.0307 0.0
H3337 H 0.13638 0.47133 0.05336 0.0
H3338 H 0.17235 0.48655 1.00576 0.0
H3339 H 0.16287 0.51555 0.05985 0.0
H3340 H 0.16814 0.51861 0.09006 0.0
H3341 H 0.21862 0.52456 0.07944 0.0
H3342 H 0.21363 0.52135 0.04916 0.0
H3343 H 0.14759 0.56239 0.9859 0.0
H3344 H 0.15521 0.53572 0.99563 0.0
H3345 H 0.20453 0.55326 0.99823 0.0
H3346 H 0.19688 0.58018 0.98756 0.0
H3347 H 0.19139 0.54053 0.02845 0.0
H3348 H 0.19785 0.52384 0.97364 0.0
H3349 H 0.19447 0.51859 0.94351 0.0
H3350 H 0.15311 0.48723 0.95401 0.0
H3351 H 0.15537 0.49333 0.98401 0.0
C3352 C 0.17579 0.47111 0.06388 0.0
C3353 C 0.15911 0.46804 0.06523 0.0
C3354 C 0.18237 0.4805 0.05083 0.0
C3355 C 0.17235 0.48727 0.03911 0.0
C3356 C 0.15584 0.4832 0.03965 0.0
C3357 C 0.14925 0.47354 0.05261 0.0
C3358 C 0.17853 0.50039 0.02781 0.0
C3359 C 0.17647 0.49842 0.01055 0.0
C3360 C 0.18502 0.51542 0.03419 0.0
C3361 C 0.1879 0.51807 0.05229 0.0
C3362 C 0.17509 0.51751 0.06397 0.0
C3363 C 0.17803 0.51924 0.0811 0.0
C3364 C 0.19371 0.52173 0.08666 0.0
C3365 C 0.20648 0.52261 0.0751 0.0
C3366 C 0.2036 0.52085 0.05797 0.0
C3367 C 0.16012 0.56047 0.9882 0.0
C3368 C 0.17166 0.57326 0.98614 0.0
C3369 C 0.16449 0.54519 0.99361 0.0
C3370 C 0.18045 0.54246 0.99747 0.0
C3371 C 0.19217 0.55512 0.99509 0.0
C3372 C 0.18783 0.57042 0.98911 0.0
C3373 C 0.18387 0.5272 1.00633 0.0
C3374 C 0.18776 0.52863 0.02331 0.0
C3375 C 0.17917 0.51165 0.99959 0.0
C3376 C 0.17683 0.50906 0.98128 0.0
C3377 C 0.18776 0.51616 0.96956 0.0
C3378 C 0.18601 0.51308 0.95242 0.0
C3379 C 0.17355 0.50265 0.94681 0.0
C3380 C 0.16269 0.49545 0.95831 0.0
C3381 C 0.16414 0.49881 0.9754 0.0
H3382 H 0.17234 0.50011 0.93355 0.0
H3383 H 0.19597 0.523 0.09993 0.0
H3384 H 0.06599 0.45842 0.85895 0.0
H3385 H 0.04798 0.48158 0.85684 0.0
H3386 H 1.01094 0.45358 0.88341 0.0
H3387 H 0.02889 0.43079 0.88582 0.0
H3388 H 1.00067 0.47227 0.85363 0.0
H3389 H 0.02968 0.47588 0.90597 0.0
H3390 H 0.05242 0.4796 0.92505 0.0
H3391 H 0.06642 0.52491 0.90097 0.0
H3392 H 0.04395 0.52126 0.88155 0.0
H3393 H 0.96166 0.52856 0.91723 0.0
H3394 H 0.98375 0.5121 0.90766 0.0
H3395 H 0.9771 0.52786 0.85691 0.0
H3396 H 0.95465 0.54434 0.86644 0.0
H3397 H 1.01178 0.5187 0.89272 0.0
H3398 H 0.98608 0.49469 0.83116 0.0
H3399 H 0.95998 0.49155 0.81721 0.0
H3400 H 0.93613 0.48545 0.86496 0.0
H3401 H 0.96209 0.48843 0.87916 0.0
C3402 C 0.05386 0.45716 0.86392 0.0
C3403 C 0.04871 0.44291 0.8725 0.0
C3404 C 0.04365 0.47036 0.8628 0.0
C3405 C 0.02814 0.4692 0.86992 0.0
C3406 C 0.02282 0.45464 0.87774 0.0
C3407 C 0.03306 0.44168 0.87915 0.0
C3408 C 1.0177 0.48343 0.87065 0.0
C3409 C 1.00325 0.48261 0.8619 0.0
C3410 C 0.02094 0.49683 0.88158 0.0
C3411 C 0.03538 0.49809 0.89205 0.0
C3412 C 0.03785 0.48641 0.90447 0.0
C3413 C 0.0506 0.48859 0.91546 0.0
C3414 C 0.06085 0.5025 0.91426 0.0
C3415 C 0.0585 0.51413 0.90191 0.0
C3416 C 0.0458 0.51198 0.89086 0.0
C3417 C 0.9649 0.52862 0.90403 0.0
C3418 C 0.95628 0.53761 0.89256 0.0
C3419 C 0.97761 0.51926 0.89859 0.0
C3420 C 0.98198 0.51863 0.88155 0.0
C3421 C 0.9738 0.52804 0.87009 0.0
C3422 C 0.96102 0.53747 0.87556 0.0
C3423 C 0.99462 0.5074 0.87603 0.0
C3424 C 1.00948 0.50876 0.88389 0.0
C3425 C 0.99158 0.49434 0.8646 0.0
C3426 C 0.97598 0.49198 0.8562 0.0
C3427 C 0.97526 0.49261 0.83866 0.0
C3428 C 0.9605 0.49087 0.83071 0.0
C3429 C 0.9464 0.48837 0.8402 0.0
C3430 C 0.94705 0.48746 0.85764 0.0
C3431 C 0.96178 0.48918 0.86564 0.0
H3432 H 0.93497 0.48714 0.83406 0.0
H3433 H 0.07064 0.50419 0.92287 0.0
H3434 H 0.54752 0.80608 0.85192 0.0
H3435 H 0.52416 0.78821 0.84511 0.0
H3436 H 0.52088 0.7722 0.89638 0.0
H3437 H 0.54396 0.79025 0.90332 0.0
H3438 H 0.51512 0.74653 0.87197 0.0
H3439 H 0.49872 0.80144 0.88641 0.0
H3440 H 0.49972 0.83147 0.88285 0.0
H3441 H 0.48456 0.8254 0.832 0.0
H3442 H 0.48371 0.79529 0.83519 0.0
H3443 H 0.4214 0.74395 0.87579 0.0
H3444 H 0.44783 0.75731 0.87973 0.0
H3445 H 0.4678 0.72628 0.84133 0.0
H3446 H 0.44132 0.71292 0.83721 0.0
H3447 H 0.46599 0.77525 0.85765 0.0
H3448 H 0.50757 0.72101 0.85007 0.0
H3449 H 0.50996 0.69186 0.85727 0.0
H3450 H 0.47559 0.69713 0.89744 0.0
H3451 H 0.47295 0.72627 0.89041 0.0
C3452 C 0.54211 0.79839 0.86162 0.0
C3453 C 0.54763 0.79954 0.87816 0.0
C3454 C 0.52867 0.7883 0.85774 0.0
C3455 C 0.52068 0.77897 0.87027 0.0
C3456 C 0.52684 0.77927 0.88651 0.0
C3457 C 0.54006 0.78958 0.89046 0.0
C3458 C 0.50525 0.76985 0.8669 0.0
C3459 C 0.5044 0.75276 0.86863 0.0
C3460 C 0.49122 0.77802 0.86277 0.0
C3461 C 0.49131 0.79611 0.86098 0.0
C3462 C 0.4957 0.8065 0.87444 0.0
C3463 C 0.49623 0.82353 0.87249 0.0
C3464 C 0.49225 0.83033 0.8572 0.0
C3465 C 0.48766 0.82011 0.84384 0.0
C3466 C 0.48714 0.80306 0.84571 0.0
C3467 C 0.43141 0.73988 0.86823 0.0
C3468 C 0.42915 0.72745 0.85607 0.0
C3469 C 0.44654 0.74758 0.87046 0.0
C3470 C 0.45988 0.74286 0.86082 0.0
C3471 C 0.45776 0.73012 0.84898 0.0
C3472 C 0.44257 0.72256 0.84658 0.0
C3473 C 0.47576 0.75176 0.86274 0.0
C3474 C 0.47671 0.76889 0.86069 0.0
C3475 C 0.48992 0.74361 0.86657 0.0
C3476 C 0.48998 0.72576 0.86964 0.0
C3477 C 0.50041 0.71588 0.86032 0.0
C3478 C 0.50186 0.6994 0.86442 0.0
C3479 C 0.49306 0.69272 0.8779 0.0
C3480 C 0.48245 0.70236 0.88703 0.0
C3481 C 0.48087 0.71883 0.88292 0.0
H3482 H 0.49444 0.68005 0.88128 0.0
H3483 H 0.49271 0.8435 0.85571 0.0
H3484 H 0.2992 0.19425 0.61624 0.0
H3485 H 0.28338 0.21767 0.62491 0.0
H3486 H 0.29619 0.21018 0.67638 0.0
H3487 H 0.31085 0.1862 0.6679 0.0
H3488 H 0.26679 0.21279 0.67596 0.0
H3489 H 0.31024 0.24413 0.65007 0.0
H3490 H 0.32912 0.25221 0.62716 0.0
H3491 H 0.2899 0.26494 0.59659 0.0
H3492 H 0.27072 0.25652 0.61899 0.0
H3493 H 0.23149 0.30165 0.67295 0.0
H3494 H 0.25396 0.28335 0.67568 0.0
H3495 H 0.2227 0.24191 0.66286 0.0
H3496 H 0.20045 0.26021 0.65997 0.0
H3497 H 0.26487 0.26692 0.64864 0.0
H3498 H 0.23638 0.20723 0.67803 0.0
H3499 H 0.21839 0.19897 0.70155 0.0
H3500 H 0.2299 0.24432 0.72712 0.0
H3501 H 0.24808 0.25281 0.70384 0.0
C3502 C 0.29882 0.19784 0.62934 0.0
C3503 C 0.30616 0.18843 0.64141 0.0
C3504 C 0.28986 0.21127 0.63431 0.0
C3505 C 0.28863 0.21581 0.65134 0.0
C3506 C 0.29679 0.20689 0.6632 0.0
C3507 C 0.3052 0.1932 0.65834 0.0
C3508 C 0.27763 0.22869 0.65713 0.0
C3509 C 0.26653 0.22469 0.67006 0.0
C3510 C 0.27737 0.24434 0.64965 0.0
C3511 C 0.289 0.24961 0.63624 0.0
C3512 C 0.30561 0.24855 0.63844 0.0
C3513 C 0.31637 0.25318 0.62554 0.0
C3514 C 0.31072 0.2591 0.6105 0.0
C3515 C 0.29427 0.26037 0.60827 0.0
C3516 C 0.28344 0.25566 0.62105 0.0
C3517 C 0.22935 0.28854 0.67148 0.0
C3518 C 0.21433 0.28219 0.66649 0.0
C3519 C 0.24217 0.27814 0.67288 0.0
C3520 C 0.24 0.26128 0.66946 0.0
C3521 C 0.22462 0.25483 0.66579 0.0
C3522 C 0.2119 0.26524 0.6642 0.0
C3523 C 0.25397 0.25079 0.66715 0.0
C3524 C 0.2655 0.25516 0.65478 0.0
C3525 C 0.25478 0.23554 0.67523 0.0
C3526 C 0.24356 0.23068 0.68913 0.0
C3527 C 0.23511 0.21543 0.68869 0.0
C3528 C 0.22488 0.21071 0.70198 0.0
C3529 C 0.22305 0.22109 0.71584 0.0
C3530 C 0.23135 0.23628 0.71639 0.0
C3531 C 0.24157 0.24108 0.70311 0.0
H3532 H 0.21513 0.2174 0.72613 0.0
H3533 H 0.31909 0.2627 0.60057 0.0
H3534 H 0.49888 0.57269 0.64407 0.0
H3535 H 0.51416 0.54784 0.64776 0.0
H3536 H 0.5197 0.54307 0.59414 0.0
H3537 H 0.50457 0.5676 0.59039 0.0
H3538 H 0.51222 0.51365 0.60843 0.0
H3539 H 0.54901 0.5604 0.61836 0.0
H3540 H 0.55883 0.58537 0.63317 0.0
H3541 H 0.56063 0.5585 0.67902 0.0
H3542 H 0.55054 0.53342 0.66452 0.0
H3543 H 0.58202 0.47378 0.58594 0.0
H3544 H 0.55981 0.49157 0.59171 0.0
H3545 H 0.56604 0.48565 0.6448 0.0
H3546 H 0.58852 0.46778 0.63901 0.0
H3547 H 0.56445 0.51744 0.63706 0.0
H3548 H 0.53272 0.46954 0.62588 0.0
H3549 H 0.52402 0.44432 0.6108 0.0
H3550 H 0.513 0.47263 0.5678 0.0
H3551 H 0.52188 0.49804 0.58247 0.0
C3552 C 0.5033 0.56627 0.6331 0.0
C3553 C 0.50062 0.57222 0.61695 0.0
C3554 C 0.51205 0.5521 0.63522 0.0
C3555 C 0.51817 0.54362 0.62122 0.0
C3556 C 0.5151 0.54935 0.60513 0.0
C3557 C 0.5065 0.56348 0.60302 0.0
C3558 C 0.52827 0.52912 0.62299 0.0
C3559 C 0.52364 0.51446 0.61469 0.0
C3560 C 0.54292 0.52995 0.63168 0.0
C3561 C 0.54877 0.5451 0.64042 0.0
C3562 C 0.55131 0.55986 0.63164 0.0
C3563 C 0.55696 0.57403 0.63998 0.0
C3564 C 0.56028 0.57354 0.65705 0.0
C3565 C 0.55799 0.55888 0.66582 0.0
C3566 C 0.55229 0.54469 0.65755 0.0
C3567 C 0.57849 0.476 0.59884 0.0
C3568 C 0.58707 0.4694 0.61199 0.0
C3569 C 0.56572 0.48614 0.60215 0.0
C3570 C 0.56115 0.48991 0.61871 0.0
C3571 C 0.56934 0.48291 0.63192 0.0
C3572 C 0.58212 0.47263 0.62859 0.0
C3573 C 0.54868 0.50218 0.62195 0.0
C3574 C 0.55285 0.51642 0.63117 0.0
C3575 C 0.53359 0.50095 0.61415 0.0
C3576 C 0.52804 0.48572 0.60528 0.0
C3577 C 0.52855 0.4704 0.61316 0.0
C3578 C 0.5236 0.45607 0.60469 0.0
C3579 C 0.51801 0.45691 0.58837 0.0
C3580 C 0.51734 0.47205 0.58046 0.0
C3581 C 0.52231 0.48642 0.58886 0.0
H3582 H 0.51411 0.44583 0.58187 0.0
H3583 H 0.56469 0.58451 0.66347 0.0
H3584 H 0.84504 0.23743 0.85578 0.0
H3585 H 0.82095 0.25399 0.85423 0.0
H3586 H 0.83111 0.27488 0.90278 0.0
H3587 H 0.85502 0.25894 0.9043 0.0
H3588 H 0.79747 0.26388 0.89816 0.0
H3589 H 0.8406 0.29571 0.86934 0.0
H3590 H 0.86102 0.29628 0.84669 0.0
H3591 H 0.82423 0.28977 0.8101 0.0
H3592 H 0.80358 0.28843 0.83263 0.0
H3593 H 0.75027 0.3318 0.91249 0.0
H3594 H 0.77113 0.31208 0.90876 0.0
H3595 H 0.76604 0.31407 0.85518 0.0
H3596 H 0.74568 0.33484 0.85893 0.0
H3597 H 0.79509 0.31028 0.85874 0.0
H3598 H 0.75214 0.27977 0.882 0.0
H3599 H 0.72944 0.2717 0.90066 0.0
H3600 H 0.76131 0.26905 0.94206 0.0
H3601 H 0.78419 0.27743 0.92371 0.0
C3602 C 0.84225 0.24566 0.86606 0.0
C3603 C 0.85235 0.24685 0.88005 0.0
C3604 C 0.82835 0.2551 0.86521 0.0
C3605 C 0.82402 0.2658 0.87844 0.0
C3606 C 0.83398 0.26678 0.89241 0.0
C3607 C 0.84788 0.25765 0.89315 0.0
C3608 C 0.80957 0.27649 0.87783 0.0
C3609 C 0.79701 0.27412 0.88965 0.0
C3610 C 0.80835 0.28938 0.86618 0.0
C3611 C 0.82057 0.29181 0.85267 0.0
C3612 C 0.83685 0.29437 0.85647 0.0
C3613 C 0.84847 0.29474 0.84366 0.0
C3614 C 0.84391 0.293 0.82697 0.0
C3615 C 0.82772 0.29105 0.82304 0.0
C3616 C 0.81606 0.29043 0.83583 0.0
C3617 C 0.7534 0.328 0.89986 0.0
C3618 C 0.74594 0.33495 0.88605 0.0
C3619 C 0.76542 0.31648 0.8977 0.0
C3620 C 0.77021 0.31091 0.88165 0.0
C3621 C 0.76279 0.31788 0.86777 0.0
C3622 C 0.75096 0.32977 0.86993 0.0
C3623 C 0.78303 0.29812 0.8796 0.0
C3624 C 0.79533 0.30006 0.86729 0.0
C3625 C 0.7836 0.28427 0.89028 0.0
C3626 C 0.76988 0.27942 0.9015 0.0
C3627 C 0.7543 0.27764 0.89512 0.0
C3628 C 0.7414 0.27298 0.90563 0.0
C3629 C 0.74393 0.2699 0.92254 0.0
C3630 C 0.75937 0.27147 0.92896 0.0
C3631 C 0.77232 0.27617 0.91851 0.0
H3632 H 0.73392 0.26627 0.93067 0.0
H3633 H 0.85293 0.29323 0.8171 0.0
H3634 H 0.06373 0.79699 0.11661 0.0
H3635 H 0.03518 0.7913 0.12173 0.0
H3636 H 0.03727 0.82011 0.16728 0.0
H3637 H 0.06582 0.82604 0.16209 0.0
H3638 H 0.02875 0.78727 0.17203 0.0
H3639 H 1.00945 0.83045 0.14199 0.0
H3640 H 1.00878 0.85072 0.1194 0.0
H3641 H 0.99794 0.81227 0.08383 0.0
H3642 H 0.99876 0.79169 0.10613 0.0
H3643 H 0.96857 0.72328 0.16893 0.0
H3644 H 0.9752 0.7528 0.17288 0.0
H3645 H 1.0001 0.7535 0.12502 0.0
H3646 H 0.99375 0.72434 0.12126 0.0
H3647 H 0.98436 0.78286 0.13163 0.0
H3648 H 0.02139 0.74446 0.15946 0.0
H3649 H 0.02626 0.72322 0.18041 0.0
H3650 H 1.00508 0.75297 0.21889 0.0
H3651 H 1.00006 0.77434 0.1981 0.0
C3652 C 0.05801 0.80252 0.12744 0.0
C3653 C 0.06705 0.8117 0.13909 0.0
C3654 C 0.04165 0.79943 0.13027 0.0
C3655 C 0.03411 0.80532 0.14489 0.0
C3656 C 0.04284 0.81556 0.15588 0.0
C3657 C 0.05917 0.81888 0.1529 0.0
C3658 C 0.01851 0.79765 0.15014 0.0
C3659 C 0.01863 0.78684 0.16367 0.0
C3660 C 1.00531 0.79718 0.13931 0.0
C3661 C 1.00418 0.80948 0.1258 0.0
C3662 C 1.00697 0.82628 0.12935 0.0
C3663 C 1.00661 0.83783 0.11657 0.0
C3664 C 1.00346 0.83276 0.10017 0.0
C3665 C 1.00044 0.81616 0.09654 0.0
C3666 C 1.00079 0.80454 0.10927 0.0
C3667 C 0.97524 0.72992 0.15923 0.0
C3668 C 0.98091 0.72166 0.14493 0.0
C3669 C 0.97889 0.74671 0.16141 0.0
C3670 C 0.98808 0.75533 0.1492 0.0
C3671 C 0.99283 0.74717 0.1345 0.0
C3672 C 0.98943 0.73047 0.13248 0.0
C3673 C 0.99553 0.77174 0.15255 0.0
C3674 C 0.99386 0.78414 0.14069 0.0
C3675 C 1.00744 0.7737 0.16484 0.0
C3676 C 1.01023 0.76085 0.17727 0.0
C3677 C 1.01772 0.74639 0.17239 0.0
C3678 C 0.02051 0.73436 0.18421 0.0
C3679 C 1.01595 0.73673 0.20096 0.0
C3680 C 1.00858 0.75114 0.20591 0.0
C3681 C 1.00576 0.76321 0.19412 0.0
H3682 H 1.01818 0.72744 0.21012 0.0
H3683 H 1.00322 0.84173 0.09028 0.0
H3684 H 0.97909 0.89043 0.23141 0.0
H3685 H 0.99785 0.88697 0.25403 0.0
H3686 H 0.97779 0.92782 0.28074 0.0
H3687 H 0.95907 0.93155 0.25777 0.0
H3688 H 1.01037 0.92555 0.28587 0.0
H3689 H 0.96306 0.89131 0.28876 0.0
H3690 H 0.94221 0.87155 0.27877 0.0
H3691 H 0.97745 0.83506 0.27159 0.0
H3692 H 0.9986 0.85473 0.28117 0.0
H3693 H 0.02388 0.86708 0.36171 0.0
H3694 H 1.00701 0.87841 0.34042 0.0
H3695 H 0.04916 0.89352 0.31163 0.0
H3696 H 0.06617 0.88258 0.33309 0.0
H3697 H 1.00323 0.86974 0.30976 0.0
H3698 H 0.04138 0.92768 0.28855 0.0
H3699 H 0.05964 0.94876 0.30094 0.0
H3700 H 0.03826 0.93977 0.34948 0.0
H3701 H 0.01979 0.91892 0.33738 0.0
C3702 C 0.97902 0.89898 0.24188 0.0
C3703 C 0.96759 0.91113 0.24304 0.0
C3704 C 0.98968 0.89696 0.25479 0.0
C3705 C 0.98886 0.90685 0.2692 0.0
C3706 C 0.97848 0.92 0.26973 0.0
C3707 C 0.96787 0.92216 0.25663 0.0
C3708 C 0.9976 0.90221 0.28424 0.0
C3709 C 1.00887 0.91337 0.29113 0.0
C3710 C 0.99516 0.88646 0.29138 0.0
C3711 C 0.98247 0.87459 0.28551 0.0
C3712 C 0.96641 0.87914 0.28487 0.0
C3713 C 0.95453 0.86794 0.2793 0.0
C3714 C 0.95851 0.85207 0.2745 0.0
C3715 C 0.97439 0.84737 0.27527 0.0
C3716 C 0.98633 0.85855 0.28076 0.0
C3717 C 0.02958 0.87287 0.35088 0.0
C3718 C 0.04636 0.87391 0.34907 0.0
C3719 C 0.01992 0.87935 0.33873 0.0
C3720 C 0.02682 0.88694 0.3245 0.0
C3721 C 0.04358 0.888 0.32266 0.0
C3722 C 0.05328 0.88166 0.33489 0.0
C3723 C 1.01645 0.89291 0.31119 0.0
C3724 C 1.0048 0.88196 0.30458 0.0
C3725 C 1.01823 0.90898 0.30468 0.0
C3726 C 0.02935 0.92156 0.31208 0.0
C3727 C 0.04058 0.93023 0.30187 0.0
C3728 C 0.05097 0.94217 0.30884 0.0
C3729 C 0.05015 0.94563 0.326 0.0
C3730 C 0.03896 0.93713 0.33621 0.0
C3731 C 0.02854 0.92521 0.32931 0.0
H3732 H 0.05816 0.95494 0.33132 0.0
H3733 H 0.94929 0.84341 0.27023 0.0
H3734 H 0.64478 0.80146 0.5974 0.0
H3735 H 0.64405 0.7895 0.56911 0.0
H3736 H 0.6955 0.78697 0.56857 0.0
H3737 H 0.69636 0.79909 0.59672 0.0
H3738 H 0.65901 0.7987 0.53768 0.0
H3739 H 0.70404 0.74925 0.55045 0.0
H3740 H 0.71477 0.73423 0.57419 0.0
H3741 H 0.67071 0.73989 0.60183 0.0
H3742 H 0.65963 0.7547 0.57816 0.0
H3743 H 0.68141 0.72252 0.47946 0.0
H3744 H 0.688 0.74416 0.50001 0.0
H3745 H 0.63812 0.75572 0.50395 0.0
H3746 H 0.63149 0.73406 0.4836 0.0
H3747 H 0.67722 0.74175 0.53161 0.0
H3748 H 0.63434 0.79501 0.51812 0.0
H3749 H 0.62586 0.81123 0.49414 0.0
H3750 H 0.66851 0.79902 0.46671 0.0
H3751 H 0.67725 0.78274 0.49048 0.0
C3752 C 0.65595 0.79847 0.59122 0.0
C3753 C 0.67063 0.80118 0.59939 0.0
C3754 C 0.65552 0.79174 0.57499 0.0
C3755 C 0.66971 0.78725 0.56673 0.0
C3756 C 0.68439 0.79026 0.57471 0.0
C3757 C 0.68485 0.79722 0.59081 0.0
C3758 C 0.66906 0.77841 0.5503 0.0
C3759 C 0.66283 0.78618 0.53635 0.0
C3760 C 0.67467 0.76233 0.54837 0.0
C3761 C 0.6811 0.75327 0.56262 0.0
C3762 C 0.69664 0.74725 0.56159 0.0
C3763 C 0.70278 0.73877 0.57502 0.0
C3764 C 0.69346 0.73617 0.58954 0.0
C3765 C 0.67795 0.74198 0.59061 0.0
C3766 C 0.67174 0.75043 0.5772 0.0
C3767 C 0.67194 0.73008 0.48424 0.0
C3768 C 0.65591 0.72648 0.48 0.0
C3769 C 0.6757 0.74239 0.49609 0.0
C3770 C 0.66357 0.75156 0.50367 0.0
C3771 C 0.64775 0.74895 0.49827 0.0
C3772 C 0.64395 0.7365 0.48664 0.0
C3773 C 0.66687 0.76186 0.5189 0.0
C3774 C 0.67355 0.75433 0.53275 0.0
C3775 C 0.66186 0.77821 0.52062 0.0
C3776 C 0.65635 0.7875 0.50605 0.0
C3777 C 0.64189 0.79575 0.50696 0.0
C3778 C 0.63703 0.80494 0.4934 0.0
C3779 C 0.64662 0.80611 0.4789 0.0
C3780 C 0.66107 0.79806 0.47793 0.0
C3781 C 0.66592 0.78875 0.4914 0.0
H3782 H 0.64285 0.81324 0.46842 0.0
H3783 H 0.69824 0.72962 0.59993 0.0
H3784 H 0.81831 0.3836 0.70769 0.0
H3785 H 0.79005 0.38076 0.71513 0.0
H3786 H 0.78343 0.43065 0.69993 0.0
H3787 H 0.81203 0.43348 0.69239 0.0
H3788 H 0.77803 0.42738 0.73201 0.0
H3789 H 0.75765 0.39956 0.68555 0.0
H3790 H 0.75574 0.38037 0.66165 0.0
H3791 H 0.75484 0.33955 0.69519 0.0
H3792 H 0.75697 0.35845 0.71934 0.0
H3793 H 0.72647 0.40804 0.79953 0.0
H3794 H 0.73127 0.41575 0.77035 0.0
H3795 H 0.75427 0.36997 0.76111 0.0
H3796 H 0.74821 0.36159 0.78972 0.0
H3797 H 0.74072 0.37865 0.73363 0.0
H3798 H 0.77514 0.40783 0.77554 0.0
H3799 H 0.77851 0.42645 0.79991 0.0
H3800 H 0.75432 0.46395 0.77409 0.0
H3801 H 0.75071 0.44545 0.74964 0.0
C3802 C 0.81068 0.39372 0.70523 0.0
C3803 C 0.8173 0.40884 0.69981 0.0
C3804 C 0.79443 0.39205 0.70932 0.0
C3805 C 0.78458 0.40554 0.70822 0.0
C3806 C 0.79082 0.42009 0.70087 0.0
C3807 C 0.80714 0.42169 0.69656 0.0
C3808 C 0.76979 0.40555 0.71879 0.0
C3809 C 0.76946 0.41704 0.73198 0.0
C3810 C 0.75861 0.39208 0.71883 0.0
C3811 C 0.75741 0.38052 0.70434 0.0
C3812 C 0.7571 0.38651 0.68788 0.0
C3813 C 0.75598 0.37566 0.67426 0.0
C3814 C 0.75514 0.35875 0.6769 0.0
C3815 C 0.75543 0.35265 0.69317 0.0
C3816 C 0.75655 0.36345 0.70685 0.0
C3817 C 0.73221 0.39945 0.79118 0.0
C3818 C 0.73708 0.38424 0.79701 0.0
C3819 C 0.73498 0.40391 0.77449 0.0
C3820 C 0.74347 0.39362 0.7636 0.0
C3821 C 0.74767 0.37814 0.76922 0.0
C3822 C 0.74441 0.37345 0.7857 0.0
C3823 C 0.75019 0.39959 0.74733 0.0
C3824 C 0.74887 0.38932 0.73316 0.0
C3825 C 0.76006 0.41407 0.74638 0.0
C3826 C 0.76251 0.42525 0.7609 0.0
C3827 C 0.77053 0.42004 0.77511 0.0
C3828 C 0.77247 0.43055 0.78892 0.0
C3829 C 0.76658 0.44635 0.78857 0.0
C3830 C 0.75883 0.45169 0.77436 0.0
C3831 C 0.75684 0.44121 0.76053 0.0
H3832 H 0.76806 0.45446 0.79929 0.0
H3833 H 0.75428 0.35037 0.66633 0.0
H3834 H 0.15104 0.69131 0.28118 0.0
H3835 H 0.15219 0.71595 0.26423 0.0
H3836 H 0.1015 0.72145 0.27259 0.0
H3837 H 0.10022 0.6964 0.28945 0.0
H3838 H 0.10839 0.7217 0.24032 0.0
H3839 H 0.1302 0.74993 0.28743 0.0
H3840 H 0.14803 0.75529 0.31128 0.0
H3841 H 0.18886 0.75771 0.27781 0.0
H3842 H 0.17131 0.7521 0.25376 0.0
H3843 H 0.10557 0.79309 0.19299 0.0
H3844 H 0.10582 0.77525 0.21721 0.0
H3845 H 0.15512 0.76465 0.20623 0.0
H3846 H 0.15504 0.78298 0.18186 0.0
H3847 H 0.14848 0.76819 0.24078 0.0
H3848 H 0.12621 0.73799 0.19408 0.0
H3849 H 0.10798 0.73312 0.17045 0.0
H3850 H 0.06734 0.73503 0.20405 0.0
H3851 H 0.08534 0.74016 0.22786 0.0
C3852 C 0.14018 0.69798 0.2798 0.0
C3853 C 0.1255 0.6918 0.28657 0.0
C3854 C 0.14088 0.71217 0.27014 0.0
C3855 C 0.12695 0.72064 0.26707 0.0
C3856 C 0.11243 0.71513 0.27475 0.0
C3857 C 0.11172 0.70088 0.28451 0.0
C3858 C 0.1273 0.73388 0.25427 0.0
C3859 C 0.11693 0.73206 0.24067 0.0
C3860 C 0.13879 0.74716 0.25434 0.0
C3861 C 0.14943 0.75042 0.26879 0.0
C3862 C 0.14299 0.75144 0.28516 0.0
C3863 C 0.15305 0.75456 0.29872 0.0
C3864 C 0.16957 0.7568 0.29607 0.0
C3865 C 0.17606 0.75595 0.27985 0.0
C3866 C 0.16606 0.75282 0.26624 0.0
C3867 C 0.11654 0.78707 0.19575 0.0
C3868 C 0.13021 0.78921 0.18531 0.0
C3869 C 0.11664 0.77685 0.20962 0.0
C3870 C 0.13034 0.76828 0.21333 0.0
C3871 C 0.14435 0.77102 0.2035 0.0
C3872 C 0.14431 0.7815 0.18961 0.0
C3873 C 0.12957 0.75595 0.22698 0.0
C3874 C 0.13987 0.7579 0.24062 0.0
C3875 C 0.11797 0.7428 0.22703 0.0
C3876 C 0.10713 0.73962 0.21273 0.0
C3877 C 0.11339 0.7375 0.19641 0.0
C3878 C 0.10309 0.73467 0.18299 0.0
C3879 C 0.08651 0.73381 0.18574 0.0
C3880 C 0.08019 0.73573 0.20193 0.0
C3881 C 0.09043 0.73858 0.2154 0.0
H3882 H 0.07856 0.73162 0.17533 0.0
H3883 H 0.17734 0.75922 0.30658 0.0
H3884 H 0.67463 0.50377 0.64781 0.0
H3885 H 0.66329 0.51613 0.67322 0.0
H3886 H 0.63324 0.47262 0.68117 0.0
H3887 H 0.64464 0.46011 0.65603 0.0
H3888 H 0.63422 0.52472 0.68242 0.0
H3889 H 0.62766 0.46511 0.72001 0.0
H3890 H 0.64163 0.43939 0.72455 0.0
H3891 H 0.68655 0.46368 0.71118 0.0
H3892 H 0.67278 0.48922 0.70605 0.0
H3893 H 0.60013 0.55269 0.7597 0.0
H3894 H 0.60247 0.53456 0.735 0.0
H3895 H 0.64948 0.52152 0.75064 0.0
H3896 H 0.647 0.53906 0.77522 0.0
H3897 H 0.63567 0.49611 0.73684 0.0
H3898 H 0.64317 0.55398 0.7227 0.0
H3899 H 0.63402 0.58232 0.72105 0.0
H3900 H 0.59479 0.56574 0.69038 0.0
H3901 H 0.60365 0.53727 0.69199 0.0
C3902 C 0.66564 0.49681 0.65498 0.0
C3903 C 0.66065 0.4809 0.64986 0.0
C3904 C 0.65911 0.50392 0.66949 0.0
C3905 C 0.64748 0.49528 0.67924 0.0
C3906 C 0.64235 0.47947 0.67405 0.0
C3907 C 0.64888 0.47235 0.65958 0.0
C3908 C 0.64085 0.50273 0.69489 0.0
C3909 C 0.63447 0.51841 0.6943 0.0
C3910 C 0.64111 0.49461 0.71046 0.0
C3911 C 0.64918 0.47895 0.71245 0.0
C3912 C 0.64049 0.46483 0.71785 0.0
C3913 C 0.64836 0.45027 0.72046 0.0
C3914 C 0.66495 0.44981 0.718 0.0
C3915 C 0.67368 0.46389 0.71281 0.0
C3916 C 0.66583 0.47838 0.70992 0.0
C3917 C 0.61071 0.54553 0.75807 0.0
C3918 C 0.62346 0.54742 0.76924 0.0
C3919 C 0.61212 0.53531 0.74388 0.0
C3920 C 0.62631 0.52691 0.74073 0.0
C3921 C 0.63844 0.52787 0.75267 0.0
C3922 C 0.63704 0.53799 0.76672 0.0
C3923 C 0.6295 0.51829 0.72453 0.0
C3924 C 0.63511 0.5023 0.72493 0.0
C3925 C 0.62906 0.52639 0.70893 0.0
C3926 C 0.62396 0.54351 0.70762 0.0
C3927 C 0.63257 0.55639 0.71565 0.0
C3928 C 0.62743 0.57246 0.71473 0.0
C3929 C 0.61379 0.57581 0.70568 0.0
C3930 C 0.60533 0.56311 0.69742 0.0
C3931 C 0.61041 0.54701 0.69832 0.0
H3932 H 0.60979 0.58823 0.70507 0.0
H3933 H 0.67105 0.4386 0.72024 0.0
H3934 H 0.04773 0.36413 0.9127 0.0
H3935 H 0.02744 0.36205 0.9348 0.0
H3936 H 0.04708 0.40631 0.95784 0.0
H3937 H 0.06719 0.40888 0.93515 0.0
H3938 H 0.02599 0.35842 0.96656 0.0
H3939 H 1.01742 0.42746 0.97548 0.0
H3940 H 0.02171 0.45331 0.95989 0.0
H3941 H 1.01564 0.42713 0.91339 0.0
H3942 H 1.01132 0.40118 0.9287 0.0
H3943 H 0.96576 0.36727 0.03052 0.0
H3944 H 0.99029 0.36785 0.01327 0.0
H3945 H 0.96496 0.39022 0.97325 0.0
H3946 H 0.94094 0.39092 0.99112 0.0
H3947 H 0.99087 0.40549 0.9753 0.0
H3948 H 0.97762 0.3474 0.97417 0.0
H3949 H 0.97133 0.32016 0.98628 0.0
H3950 H 1.0166 0.32175 0.01101 0.0
H3951 H 0.02308 0.34908 0.99916 0.0
C3952 C 0.04786 0.37341 0.9225 0.0
C3953 C 0.05893 0.38684 0.92201 0.0
C3954 C 0.03626 0.37214 0.93522 0.0
C3955 C 0.03554 0.38415 0.94786 0.0
C3956 C 0.04718 0.39708 0.948 0.0
C3957 C 0.0587 0.3985 0.93508 0.0
C3958 C 0.02194 0.38349 0.96012 0.0
C3959 C 1.01833 0.36874 0.96855 0.0
C3960 C 1.0118 0.39684 0.96254 0.0
C3961 C 1.01424 0.41239 0.95323 0.0
C3962 C 1.01701 0.42725 0.96193 0.0
C3963 C 0.01947 0.44191 0.95314 0.0
C3964 C 0.01906 0.44185 0.93565 0.0
C3965 C 1.0161 0.42715 0.92692 0.0
C3966 C 1.01366 0.41246 0.93564 0.0
C3967 C 0.96545 0.37202 0.01792 0.0
C3968 C 0.95153 0.37891 0.012 0.0
C3969 C 0.97946 0.37236 0.00804 0.0
C3970 C 0.97956 0.37899 0.99182 0.0
C3971 C 0.96532 0.38518 0.98573 0.0
C3972 C 0.95154 0.38539 0.99582 0.0
C3973 C 0.99449 0.38018 0.98135 0.0
C3974 C 0.99848 0.39513 0.97339 0.0
C3975 C 1.00461 0.36679 0.97885 0.0
C3976 C 1.00075 0.35035 0.98594 0.0
C3977 C 0.98618 0.34198 0.98228 0.0
C3978 C 0.98259 0.32652 0.98908 0.0
C3979 C 0.99353 0.31925 0.99945 0.0
C3980 C 1.00812 0.32741 1.003 0.0
C3981 C 1.01176 0.34288 0.99624 0.0
H3982 H 0.99073 0.30728 1.0047 0.0
H3983 H 0.02097 0.4532 0.92886 0.0
H3984 H 0.50862 0.66169 0.5847 0.0
H3985 H 0.53143 0.66348 0.56494 0.0
H3986 H 0.51832 0.61547 0.54546 0.0
H3987 H 0.49567 0.61353 0.56523 0.0
H3988 H 0.54925 0.61703 0.54974 0.0
H3989 H 0.51295 0.65228 0.52323 0.0
H3990 H 0.495 0.67545 0.52116 0.0
H3991 H 0.53406 0.7093 0.53244 0.0
H3992 H 0.5522 0.6863 0.53479 0.0
H3993 H 0.59921 0.61532 0.47767 0.0
H3994 H 0.57614 0.61665 0.49664 0.0
H3995 H 0.59299 0.66429 0.51411 0.0
H3996 H 0.61623 0.66313 0.49475 0.0
H3997 H 0.56101 0.66383 0.51172 0.0
H3998 H 0.5975 0.62816 0.53734 0.0
H3999 H 0.61533 0.6048 0.53825 0.0
H4000 H 0.57558 0.57145 0.5281 0.0
H4001 H 0.55755 0.59464 0.52686 0.0
C4002 C 0.51045 0.65156 0.57611 0.0
C4003 C 0.50009 0.63748 0.57668 0.0
C4004 C 0.52357 0.65261 0.5647 0.0
C4005 C 0.52675 0.63966 0.55344 0.0
C4006 C 0.51632 0.62568 0.55392 0.0
C4007 C 0.50322 0.62462 0.56526 0.0
C4008 C 0.54114 0.64032 0.54158 0.0
C4009 C 0.55164 0.62721 0.54132 0.0
C4010 C 0.54477 0.65373 0.53073 0.0
C4011 C 0.53388 0.66756 0.52939 0.0
C4012 C 0.51768 0.66465 0.52542 0.0
C4013 C 0.50748 0.67776 0.52416 0.0
C4014 C 0.51337 0.69383 0.52672 0.0
C4015 C 0.5295 0.69684 0.53049 0.0
C4016 C 0.53975 0.68378 0.53178 0.0
C4017 C 0.59811 0.62615 0.4855 0.0
C4018 C 0.60985 0.63904 0.4847 0.0
C4019 C 0.58485 0.62684 0.49652 0.0
C4020 C 0.58285 0.64037 0.50733 0.0
C4021 C 0.5942 0.65359 0.50611 0.0
C4022 C 0.60753 0.65294 0.49498 0.0
C4023 C 0.569 0.64048 0.51983 0.0
C4024 C 0.55864 0.6537 0.52022 0.0
C4025 C 0.56544 0.62716 0.53079 0.0
C4026 C 0.57619 0.61316 0.53188 0.0
C4027 C 0.59257 0.61585 0.53522 0.0
C4028 C 0.60272 0.60264 0.5358 0.0
C4029 C 0.5966 0.58666 0.5332 0.0
C4030 C 0.58031 0.58384 0.53009 0.0
C4031 C 0.57012 0.59701 0.52947 0.0
H4032 H 0.60448 0.57645 0.53362 0.0
H4033 H 0.50546 0.70396 0.52573 0.0
H4034 H 0.91277 0.25466 0.7974 0.0
H4035 H 0.91189 0.27844 0.77968 0.0
H4036 H 0.8612 0.28151 0.78975 0.0
H4037 H 0.86204 0.25742 0.80826 0.0
H4038 H 0.89568 0.28148 0.75166 0.0
H4039 H 0.85588 0.32767 0.78741 0.0
H4040 H 0.8489 0.33672 0.8161 0.0
H4041 H 0.89118 0.31527 0.83459 0.0
H4042 H 0.89859 0.30641 0.806 0.0
H4043 H 0.87539 0.37086 0.72462 0.0
H4044 H 0.86982 0.34449 0.73854 0.0
H4045 H 0.9204 0.33601 0.73883 0.0
H4046 H 0.92595 0.36156 0.72402 0.0
H4047 H 0.88205 0.33751 0.76988 0.0
H4048 H 0.92646 0.30978 0.7339 0.0
H4049 H 0.93809 0.29868 0.70781 0.0
H4050 H 0.89171 0.27946 0.69356 0.0
H4051 H 0.87966 0.29145 0.71911 0.0
C4052 C 0.90135 0.2603 0.79598 0.0
C4053 C 0.88746 0.25408 0.80432 0.0
C4054 C 0.9009 0.27397 0.78578 0.0
C4055 C 0.88654 0.28191 0.78351 0.0
C4056 C 0.87247 0.27571 0.79157 0.0
C4057 C 0.87292 0.26185 0.80194 0.0
C4058 C 0.8867 0.29616 0.77199 0.0
C4059 C 0.89261 0.29374 0.75565 0.0
C4060 C 0.88265 0.31214 0.77713 0.0
C4061 C 0.87762 0.3161 0.79457 0.0
C4062 C 0.86363 0.32479 0.79762 0.0
C4063 C 0.85967 0.33001 0.81384 0.0
C4064 C 0.86963 0.32664 0.82714 0.0
C4065 C 0.88348 0.31788 0.82427 0.0
C4066 C 0.88753 0.31268 0.80805 0.0
C4067 C 0.88529 0.36315 0.72728 0.0
C4068 C 0.90111 0.36831 0.72307 0.0
C4069 C 0.88209 0.34803 0.73518 0.0
C4070 C 0.89462 0.33775 0.73912 0.0
C4071 C 0.91041 0.34299 0.73501 0.0
C4072 C 0.91359 0.35789 0.7268 0.0
C4073 C 0.8914 0.3229 0.74963 0.0
C4074 C 0.88476 0.32519 0.76576 0.0
C4075 C 0.89528 0.3068 0.74453 0.0
C4076 C 0.90199 0.30255 0.72786 0.0
C4077 C 0.91859 0.3041 0.72474 0.0
C4078 C 0.9253 0.2974 0.71016 0.0
C4079 C 0.91562 0.28853 0.69892 0.0
C4080 C 0.89917 0.28649 0.70217 0.0
C4081 C 0.89237 0.29348 0.71656 0.0
H4082 H 0.92087 0.28315 0.68777 0.0
H4083 H 0.86656 0.33071 0.83969 0.0
H4084 H 0.89825 0.04706 0.3526 0.0
H4085 H 0.90185 0.03036 0.32711 0.0
H4086 H 0.87023 0.9925 0.34792 0.0
H4087 H 0.86699 1.00875 0.37337 0.0
H4088 H 0.89293 0.97803 0.33302 0.0
H4089 H 0.85942 0.02153 0.31613 0.0
H4090 H 0.85246 0.05029 0.31192 0.0
H4091 H 0.89381 0.05778 0.27977 0.0
H4092 H 0.90112 0.02908 0.28394 0.0
H4093 H 0.86407 0.93471 0.26196 0.0
H4094 H 0.86698 0.95356 0.28566 0.0
H4095 H 0.90727 0.97812 0.26095 0.0
H4096 H 0.90458 0.95889 0.23697 0.0
H4097 H 0.88395 1.00029 0.27654 0.0
H4098 H 0.91556 0.95534 0.29173 0.0
H4099 H 0.92134 0.92625 0.29575 0.0
H4100 H 0.88227 0.92141 0.33128 0.0
H4101 H 0.8761 0.95042 0.32729 0.0
C4102 C 0.89217 0.03511 0.35182 0.0
C4103 C 0.88235 0.02937 0.36525 0.0
C4104 C 0.89412 0.02556 0.33709 0.0
C4105 C 0.88616 1.01006 0.33523 0.0
C4106 C 0.8766 1.00429 0.34879 0.0
C4107 C 0.87473 0.01372 0.36347 0.0
C4108 C 0.88758 0.99974 0.31938 0.0
C4109 C 0.89083 0.98299 0.32074 0.0
C4110 C 0.88531 1.006 0.30306 0.0
C4111 C 0.8809 0.02321 0.30048 0.0
C4112 C 0.86708 0.02934 0.30824 0.0
C4113 C 0.86307 0.04562 0.30585 0.0
C4114 C 0.87269 0.05585 0.29559 0.0
C4115 C 0.88636 0.04983 0.2877 0.0
C4116 C 0.89045 0.03356 0.29007 0.0
C4117 C 0.87363 0.94407 0.26144 0.0
C4118 C 0.88413 0.94511 0.24739 0.0
C4119 C 0.87527 0.9549 0.27513 0.0
C4120 C 0.88736 0.96737 0.27529 0.0
C4121 C 0.89781 0.96866 0.26123 0.0
C4122 C 0.89633 0.95756 0.24753 0.0
C4123 C 0.88897 0.97864 0.29036 0.0
C4124 C 0.88624 0.99548 0.28885 0.0
C4125 C 0.89158 0.97247 0.30659 0.0
C4126 C 0.89529 0.95503 0.3091 0.0
C4127 C 0.90812 0.94804 0.3003 0.0
C4128 C 0.91148 0.93157 0.30259 0.0
C4129 C 0.90216 0.92198 0.31374 0.0
C4130 C 0.88948 0.92885 0.32264 0.0
C4131 C 0.88605 0.94531 0.32038 0.0
H4132 H 0.90479 0.90923 0.3155 0.0
H4133 H 0.86955 0.06844 0.29373 0.0
H4134 H 0.59425 0.60733 0.757 0.0
H4135 H 0.5759 0.60759 0.73314 0.0
H4136 H 0.5522 0.64866 0.75551 0.0
H4137 H 0.57022 0.64822 0.77918 0.0
H4138 H 0.53056 0.63072 0.74046 0.0
H4139 H 0.58302 0.65268 0.72514 0.0
H4140 H 0.61231 0.65216 0.72079 0.0
H4141 H 0.60625 0.61269 0.68522 0.0
H4142 H 0.57693 0.61271 0.68966 0.0
H4143 H 0.52464 0.67063 0.6522 0.0
H4144 H 0.54013 0.66255 0.67617 0.0
H4145 H 0.50639 0.6222 0.68546 0.0
H4146 H 0.49059 0.63044 0.66158 0.0
H4147 H 0.5563 0.63742 0.68438 0.0
H4148 H 0.5045 0.61411 0.72812 0.0
H4149 H 0.47568 0.61831 0.73304 0.0
H4150 H 0.48103 0.66664 0.7124 0.0
H4151 H 0.50993 0.66286 0.70767 0.0
C4152 C 0.58474 0.616 0.75707 0.0
C4153 C 0.58361 0.62764 0.77012 0.0
C4154 C 0.57437 0.61633 0.74328 0.0
C4155 C 0.56269 0.62836 0.74221 0.0
C4156 C 0.56099 0.63924 0.75582 0.0
C4157 C 0.57132 0.63896 0.76946 0.0
C4158 C 0.55296 0.63059 0.72666 0.0
C4159 C 0.53622 0.63197 0.72818 0.0
C4160 C 0.56017 0.63265 0.71052 0.0
C4161 C 0.57779 0.63255 0.7079 0.0
C4162 C 0.58794 0.64378 0.71652 0.0
C4163 C 0.60455 0.64357 0.71405 0.0
C4164 C 0.61114 0.63233 0.70282 0.0
C4165 C 0.60113 0.62132 0.69399 0.0
C4166 C 0.58452 0.62141 0.6965 0.0
C4167 C 0.52047 0.65998 0.65925 0.0
C4168 C 0.50622 0.65127 0.65482 0.0
C4169 C 0.52944 0.65531 0.67303 0.0
C4170 C 0.52449 0.6418 0.68293 0.0
C4171 C 0.51046 0.63283 0.67832 0.0
C4172 C 0.50142 0.63753 0.66453 0.0
C4173 C 0.53389 0.63748 0.69817 0.0
C4174 C 0.55058 0.63581 0.69659 0.0
C4175 C 0.52668 0.63556 0.71432 0.0
C4176 C 0.50935 0.6381 0.71734 0.0
C4177 C 0.49954 0.62565 0.72469 0.0
C4178 C 0.48319 0.62797 0.72745 0.0
C4179 C 0.47652 0.64271 0.72298 0.0
C4180 C 0.4862 0.65521 0.71581 0.0
C4181 C 0.50257 0.65298 0.71309 0.0
H4182 H 0.46385 0.64446 0.7251 0.0
H4183 H 0.624 0.6322 0.70091 0.0
H4184 H 0.88844 0.34942 0.02099 0.0
H4185 H 0.88918 0.32407 1.00411 0.0
H4186 H 0.84644 0.30538 0.02958 0.0
H4187 H 0.84535 0.33082 0.0461 0.0
H4188 H 0.87618 0.28322 0.02538 0.0
H4189 H 0.83732 0.31466 0.99713 0.0
H4190 H 0.82773 0.33973 0.9843 0.0
H4191 H 0.86667 0.33937 0.94843 0.0
H4192 H 0.87667 0.31443 0.96128 0.0
H4193 H 0.85543 0.23285 0.94303 0.0
H4194 H 0.84963 0.25246 0.96551 0.0
H4195 H 0.89953 0.25484 0.9786 0.0
H4196 H 0.90543 0.23533 0.95604 0.0
H4197 H 0.86258 0.28388 0.9652 0.0
H4198 H 0.90134 0.266 0.0216 0.0
H4199 H 0.91001 0.24125 0.03577 0.0
H4200 H 0.86959 0.21358 0.01636 0.0
H4201 H 0.86051 0.23822 1.00224 0.0
C4202 C 0.87919 0.33992 0.02292 0.0
C4203 C 0.86671 0.34216 0.03465 0.0
C4204 C 0.87964 0.32547 0.01332 0.0
C4205 C 0.86785 0.31291 0.01562 0.0
C4206 C 0.85562 0.31495 0.02763 0.0
C4207 C 0.85495 0.32953 0.03692 0.0
C4208 C 0.86812 0.29781 1.00517 0.0
C4209 C 0.87328 0.2833 0.01221 0.0
C4210 C 0.86389 0.29791 0.98814 0.0
C4211 C 0.85784 0.3128 0.98029 0.0
C4212 C 0.84394 0.32002 0.98662 0.0
C4213 C 0.8384 0.33419 0.97932 0.0
C4214 C 0.84661 0.34117 0.96558 0.0
C4215 C 0.86034 0.33396 0.95909 0.0
C4216 C 0.86594 0.31981 0.96638 0.0
C4217 C 0.86509 0.23714 0.95102 0.0
C4218 C 0.88091 0.23255 0.94774 0.0
C4219 C 0.86177 0.24846 0.96379 0.0
C4220 C 0.87414 0.25518 0.97371 0.0
C4221 C 0.88976 0.24974 0.97121 0.0
C4222 C 0.89312 0.23859 0.95829 0.0
C4223 C 0.87113 0.2692 0.98524 0.0
C4224 C 0.86549 0.28364 0.97838 0.0
C4225 C 0.87489 0.26896 1.00247 0.0
C4226 C 0.88035 0.25395 0.01067 0.0
C4227 C 0.89429 0.25465 0.02034 0.0
C4228 C 0.89928 0.24063 0.02837 0.0
C4229 C 0.89041 0.22583 0.02687 0.0
C4230 C 0.87651 0.22503 0.01738 0.0
C4231 C 0.87145 0.23902 0.00933 0.0
H4232 H 0.89428 0.21499 0.03311 0.0
H4233 H 0.84231 0.35213 0.95994 0.0
H4234 H 0.15446 0.62723 0.27201 0.0
H4235 H 0.17974 0.63216 0.25651 0.0
H4236 H 0.20139 0.59449 0.28482 0.0
H4237 H 0.17604 0.58901 0.29987 0.0
H4238 H 0.20766 0.64257 0.26222 0.0
H4239 H 0.23112 0.57546 0.26227 0.0
H4240 H 0.21989 0.54708 0.26141 0.0
H4241 H 0.17655 0.56383 0.24044 0.0
H4242 H 0.18759 0.59228 0.24092 0.0
H4243 H 0.28807 0.65086 0.23597 0.0
H4244 H 0.26378 0.64331 0.25223 0.0
H4245 H 0.25006 0.60809 0.21388 0.0
H4246 H 0.27505 0.61471 0.19846 0.0
H4247 H 0.23861 0.59643 0.23954 0.0
H4248 H 0.23521 0.65011 0.21834 0.0
H4249 H 0.24355 0.67894 0.21298 0.0
H4250 H 0.24135 0.68952 0.26574 0.0
H4251 H 0.23321 0.66068 0.27144 0.0
C4252 C 0.1646 0.61995 0.27494 0.0
C4253 C 0.16307 0.6076 0.28714 0.0
C4254 C 0.17913 0.62282 0.26606 0.0
C4255 C 0.19261 0.61351 0.26919 0.0
C4256 C 0.19119 0.60155 0.28176 0.0
C4257 C 0.17663 0.5985 0.29046 0.0
C4258 C 0.20811 0.61631 0.25944 0.0
C4259 C 0.21439 0.63243 0.25731 0.0
C4260 C 0.21683 0.60324 0.25233 0.0
C4261 C 0.2101 0.58609 0.25195 0.0
C4262 C 0.21919 0.57311 0.25748 0.0
C4263 C 0.21287 0.55699 0.25702 0.0
C4264 C 0.19748 0.55366 0.25097 0.0
C4265 C 0.18843 0.56644 0.24524 0.0
C4266 C 0.19471 0.58257 0.24562 0.0
C4267 C 0.28008 0.64114 0.23133 0.0
C4268 C 0.28357 0.63323 0.21606 0.0
C4269 C 0.26598 0.63701 0.24047 0.0
C4270 C 0.25454 0.62548 0.23414 0.0
C4271 C 0.25846 0.61706 0.21919 0.0
C4272 C 0.27284 0.62079 0.21036 0.0
C4273 C 0.23836 0.62267 0.24268 0.0
C4274 C 0.23192 0.60656 0.24453 0.0
C4275 C 0.22903 0.63579 0.24868 0.0
C4276 C 0.23375 0.6532 0.24533 0.0
C4277 C 0.23658 0.65857 0.22881 0.0
C4278 C 0.24128 0.67491 0.22571 0.0
C4279 C 0.24302 0.68605 0.23902 0.0
C4280 C 0.24002 0.68087 0.25545 0.0
C4281 C 0.23536 0.66453 0.25862 0.0
H4282 H 0.24668 0.69869 0.23659 0.0
H4283 H 0.1926 0.54118 0.25065 0.0
H4284 H 1.00004 0.07895 0.64796 0.0
H4285 H 1.01523 0.05443 0.65392 0.0
H4286 H 1.01644 0.04229 0.60127 0.0
H4287 H 1.00157 0.06667 0.59524 0.0
H4288 H 1.00841 0.01526 0.62223 0.0
H4289 H 0.04691 0.06165 0.61886 0.0
H4290 H 0.05887 0.08824 0.62809 0.0
H4291 H 0.06764 0.06829 0.67647 0.0
H4292 H 0.05532 0.04169 0.66768 0.0
H4293 H 0.07146 0.96807 0.59674 0.0
H4294 H 0.05128 0.98785 0.60322 0.0
H4295 H 0.06769 0.99166 0.6541 0.0
H4296 H 0.08852 0.97193 0.64743 0.0
H4297 H 0.06436 0.02121 0.64187 0.0
H4298 H 0.03029 0.97398 0.64483 0.0
H4299 H 0.0188 0.9469 0.63649 0.0
H4300 H 1.00152 0.96733 0.59121 0.0
H4301 H 1.01316 0.99448 0.59909 0.0
C4302 C 1.00348 0.07097 0.6377 0.0
C4303 C 0.9997 0.07479 0.62112 0.0
C4304 C 1.01217 0.05702 0.64112 0.0
C4305 C 1.01701 0.04658 0.62803 0.0
C4306 C 1.01283 0.05016 0.61156 0.0
C4307 C 1.0044 0.06416 0.60813 0.0
C4308 C 0.02685 0.03213 0.63112 0.0
C4309 C 0.02064 0.01652 0.62654 0.0
C4310 C 0.04258 0.03369 0.63746 0.0
C4311 C 0.04988 0.04976 0.64271 0.0
C4312 C 0.05115 0.06299 0.63155 0.0
C4313 C 0.05804 0.07806 0.63669 0.0
C4314 C 0.06393 0.07998 0.65289 0.0
C4315 C 0.06303 0.0668 0.66395 0.0
C4316 C 0.05605 0.05174 0.65891 0.0
C4317 C 0.07067 0.97287 0.60942 0.0
C4318 C 0.08161 0.96841 0.62158 0.0
C4319 C 0.05899 0.98415 0.61316 0.0
C4320 C 0.05773 0.99115 0.62923 0.0
C4321 C 0.06834 0.98636 0.64163 0.0
C4322 C 0.08014 0.97499 0.63786 0.0
C4323 C 0.04615 1.00437 0.63232 0.0
C4324 C 0.05199 0.01977 0.63803 0.0
C4325 C 0.02998 1.00258 0.62726 0.0
C4326 C 0.02267 0.9863 0.62255 0.0
C4327 C 0.02411 0.9727 0.63305 0.0
C4328 C 1.01757 0.95732 0.6284 0.0
C4329 C 1.00945 0.95539 0.61333 0.0
C4330 C 1.00781 0.96885 0.60289 0.0
C4331 C 1.01436 0.98425 0.60746 0.0
H4332 H 1.00442 0.94347 0.60974 0.0
H4333 H 0.06926 0.09166 0.65685 0.0
H4334 H 0.49777 0.73426 0.60876 0.0
H4335 H 0.50411 0.76205 0.61851 0.0
H4336 H 0.48325 0.75045 0.667 0.0
H4337 H 0.47742 0.72229 0.6575 0.0
H4338 H 0.49175 0.78959 0.63371 0.0
H4339 H 0.50901 0.76451 0.69496 0.0
H4340 H 0.51279 0.73826 0.70931 0.0
H4341 H 0.53054 0.7172 0.66342 0.0
H4342 H 0.52698 0.74337 0.6489 0.0
H4343 H 0.57709 0.81658 0.66992 0.0
H4344 H 0.5483 0.81255 0.67538 0.0
H4345 H 0.54146 0.79939 0.62347 0.0
H4346 H 0.57011 0.80319 0.61798 0.0
H4347 H 0.53704 0.78184 0.67179 0.0
H4348 H 0.50575 0.80475 0.61104 0.0
H4349 H 0.50421 0.8308 0.59592 0.0
H4350 H 0.51674 0.8577 0.64055 0.0
H4351 H 0.51844 0.83186 0.65598 0.0
C4352 C 0.4943 0.73765 0.62143 0.0
C4353 C 0.48753 0.72595 0.6325 0.0
C4354 C 0.49768 0.75366 0.62691 0.0
C4355 C 0.49435 0.75827 0.64356 0.0
C4356 C 0.48606 0.74709 0.65415 0.0
C4357 C 0.48285 0.73097 0.64872 0.0
C4358 C 0.50291 0.77303 0.65035 0.0
C4359 C 0.50151 0.78812 0.64227 0.0
C4360 C 0.51512 0.77139 0.66222 0.0
C4361 C 0.51758 0.75576 0.67088 0.0
C4362 C 0.51375 0.75426 0.68799 0.0
C4363 C 0.51585 0.73942 0.69613 0.0
C4364 C 0.52186 0.72606 0.68727 0.0
C4365 C 0.52586 0.72754 0.67026 0.0
C4366 C 0.52383 0.74237 0.66208 0.0
C4367 C 0.56938 0.81325 0.65957 0.0
C4368 C 0.57588 0.80968 0.64361 0.0
C4369 C 0.55291 0.81113 0.6627 0.0
C4370 C 0.54271 0.8057 0.64987 0.0
C4371 C 0.54903 0.80381 0.63355 0.0
C4372 C 0.56548 0.80572 0.63046 0.0
C4373 C 0.52684 0.79787 0.65387 0.0
C4374 C 0.52677 0.78398 0.66408 0.0
C4375 C 0.51338 0.8007 0.64399 0.0
C4376 C 0.51221 0.81629 0.6347 0.0
C4377 C 0.50809 0.8162 0.61769 0.0
C4378 C 0.50732 0.83095 0.60902 0.0
C4379 C 0.51053 0.84588 0.61723 0.0
C4380 C 0.51449 0.84611 0.63414 0.0
C4381 C 0.51539 0.83141 0.64285 0.0
H4382 H 0.50983 0.85729 0.61052 0.0
H4383 H 0.52343 0.71457 0.69358 0.0
H4384 H 0.31019 0.60122 0.13422 0.0
H4385 H 0.298 0.57427 0.12781 0.0
H4386 H 0.25677 0.58547 0.15849 0.0
H4387 H 0.26892 0.61257 0.16507 0.0
H4388 H 0.26961 0.55365 0.16407 0.0
H4389 H 0.2569 0.58866 0.11724 0.0
H4390 H 0.26513 0.60678 0.09386 0.0
H4391 H 0.28972 0.56739 0.06999 0.0
H4392 H 0.28241 0.54927 0.09364 0.0
H4393 H 0.2142 0.49018 0.14076 0.0
H4394 H 0.22999 0.51465 0.14888 0.0
H4395 H 0.26037 0.50899 0.10499 0.0
H4396 H 0.24365 0.48521 0.09624 0.0
H4397 H 0.25487 0.53788 0.10609 0.0
H4398 H 0.27246 0.50382 0.14875 0.0
H4399 H 0.27097 0.48402 0.17189 0.0
H4400 H 0.24496 0.51802 0.20227 0.0
H4401 H 0.24617 0.53798 0.17925 0.0
C4402 C 0.29846 0.59806 0.13953 0.0
C4403 C 0.29048 0.60918 0.15007 0.0
C4404 C 0.29155 0.58259 0.13588 0.0
C4405 C 0.27646 0.57786 0.14262 0.0
C4406 C 0.26844 0.58887 0.15316 0.0
C4407 C 0.27533 0.60442 0.15678 0.0
C4408 C 0.26896 0.56152 0.13849 0.0
C4409 C 0.26614 0.55022 0.15144 0.0
C4410 C 0.26538 0.55674 0.12184 0.0
C4411 C 0.26924 0.56762 0.10737 0.0
C4412 C 0.26427 0.58391 0.10715 0.0
C4413 C 0.26887 0.59422 0.09388 0.0
C4414 C 0.27799 0.58824 0.08048 0.0
C4415 C 0.28268 0.572 0.08039 0.0
C4416 C 0.27839 0.56174 0.09378 0.0
C4417 C 0.22456 0.4939 0.13313 0.0
C4418 C 0.22787 0.4857 0.118 0.0
C4419 C 0.23364 0.50794 0.13779 0.0
C4420 C 0.24663 0.51378 0.12771 0.0
C4421 C 0.25042 0.50494 0.11301 0.0
C4422 C 0.241 0.49121 0.10808 0.0
C4423 C 0.25531 0.52974 0.13172 0.0
C4424 C 0.25832 0.5411 0.11876 0.0
C4425 C 0.25989 0.53425 0.14823 0.0
C4426 C 0.25921 0.52232 0.16217 0.0
C4427 C 0.2663 0.50703 0.16031 0.0
C4428 C 0.26555 0.49579 0.17342 0.0
C4429 C 0.25782 0.49973 0.18852 0.0
C4430 C 0.25093 0.51497 0.19056 0.0
C4431 C 0.25167 0.52627 0.1775 0.0
H4432 H 0.25722 0.491 0.19865 0.0
H4433 H 0.28131 0.5961 0.07007 0.0
H4434 H 0.46793 0.03258 0.918 0.0
H4435 H 0.49066 0.01669 0.90873 0.0
H4436 H 0.47612 0.02068 0.85744 0.0
H4437 H 0.45331 0.03689 0.86667 0.0
H4438 H 0.48191 0.98874 0.86621 0.0
H4439 H 0.50983 0.03975 0.86727 0.0
H4440 H 0.51888 0.0671 0.87754 0.0
H4441 H 0.54001 0.04526 0.92011 0.0
H4442 H 0.53077 0.01779 0.91031 0.0
H4443 H 0.55219 0.93965 0.85276 0.0
H4444 H 0.53389 0.96228 0.84923 0.0
H4445 H 0.53432 0.97152 0.90247 0.0
H4446 H 0.55264 0.94944 0.90603 0.0
H4447 H 0.53779 1.00035 0.88391 0.0
H4448 H 0.50079 0.95051 0.88527 0.0
H4449 H 0.48908 0.92435 0.87436 0.0
H4450 H 0.48566 0.94536 0.82554 0.0
H4451 H 0.497 0.97176 0.83628 0.0
C4452 C 0.46962 0.03023 0.90472 0.0
C4453 C 0.45877 0.03593 0.89307 0.0
C4454 C 0.4827 0.02123 0.89943 0.0
C4455 C 0.48517 0.01757 0.88237 0.0
C4456 C 0.47448 0.02342 0.87065 0.0
C4457 C 0.46149 0.0327 0.87593 0.0
C4458 C 0.49827 1.00664 0.87724 0.0
C4459 C 0.49422 0.99143 0.86977 0.0
C4460 C 0.51434 1.01014 0.88177 0.0
C4461 C 0.51965 0.02666 0.888 0.0
C4462 C 0.51631 0.04077 0.87889 0.0
C4463 C 0.52148 0.0563 0.88462 0.0
C4464 C 0.53011 0.0579 0.8994 0.0
C4465 C 0.53343 0.04398 0.90859 0.0
C4466 C 0.52825 0.02842 0.90294 0.0
C4467 C 0.54854 0.94668 0.86365 0.0
C4468 C 0.55391 0.94271 0.87967 0.0
C4469 C 0.538 0.95953 0.86163 0.0
C4470 C 0.53274 0.96866 0.87559 0.0
C4471 C 0.53834 0.96484 0.89148 0.0
C4472 C 0.54878 0.95208 0.8935 0.0
C4473 C 0.52117 0.98202 0.87411 0.0
C4474 C 0.52555 0.99776 0.88022 0.0
C4475 C 0.50545 0.97909 0.86819 0.0
C4476 C 0.49989 0.96296 0.8615 0.0
C4477 C 0.49772 0.94945 0.87217 0.0
C4478 C 0.49108 0.93463 0.86604 0.0
C4479 C 0.4867 0.93319 0.84926 0.0
C4480 C 0.48906 0.94651 0.83853 0.0
C4481 C 0.49553 0.96141 0.84464 0.0
H4482 H 0.48132 0.92181 0.84461 0.0
H4483 H 0.53418 0.06994 0.90375 0.0
H4484 H 0.73967 0.41917 0.88752 0.0
H4485 H 0.75306 0.44623 0.88788 0.0
H4486 H 0.78692 0.43041 0.8502 0.0
H4487 H 0.77367 0.40317 0.84978 0.0
H4488 H 0.80141 0.44917 0.87353 0.0
H4489 H 0.75747 0.45299 0.83832 0.0
H4490 H 0.72975 0.44998 0.82841 0.0
H4491 H 0.71386 0.48161 0.86814 0.0
H4492 H 0.74148 0.48458 0.87852 0.0
H4493 H 0.82927 0.53063 0.86237 0.0
H4494 H 0.81381 0.50617 0.85327 0.0
H4495 H 0.78363 0.50913 0.89743 0.0
H4496 H 0.79944 0.53323 0.90702 0.0
H4497 H 0.76785 0.49735 0.86551 0.0
H4498 H 0.81419 0.48862 0.90169 0.0
H4499 H 0.84297 0.49198 0.908 0.0
H4500 H 0.85505 0.46948 0.86084 0.0
H4501 H 0.82636 0.46631 0.85411 0.0
C4502 C 0.75012 0.42131 0.87948 0.0
C4503 C 0.7555 0.40903 0.8685 0.0
C4504 C 0.75766 0.43684 0.8796 0.0
C4505 C 0.77069 0.44039 0.86875 0.0
C4506 C 0.77675 0.42792 0.85853 0.0
C4507 C 0.7692 0.41235 0.85838 0.0
C4508 C 0.77781 0.45723 0.86805 0.0
C4509 C 0.79412 0.45967 0.87149 0.0
C4510 C 0.76831 0.4709 0.86519 0.0
C4511 C 0.75157 0.46891 0.85929 0.0
C4512 C 0.74805 0.45916 0.84508 0.0
C4513 C 0.73236 0.45749 0.83935 0.0
C4514 C 0.72006 0.46561 0.84763 0.0
C4515 C 0.72341 0.47534 0.86173 0.0
C4516 C 0.7391 0.47703 0.86755 0.0
C4517 C 0.81891 0.5265 0.86978 0.0
C4518 C 0.81552 0.53369 0.88543 0.0
C4519 C 0.81013 0.51255 0.86454 0.0
C4520 C 0.79768 0.50594 0.87468 0.0
C4521 C 0.79319 0.51415 0.88943 0.0
C4522 C 0.80221 0.52786 0.8949 0.0
C4523 C 0.79122 0.48917 0.87152 0.0
C4524 C 0.77509 0.48677 0.86734 0.0
C4525 C 0.80096 0.4755 0.87322 0.0
C4526 C 0.81817 0.47736 0.87734 0.0
C4527 C 0.823 0.48451 0.89262 0.0
C4528 C 0.83928 0.48637 0.89628 0.0
C4529 C 0.85082 0.48096 0.88481 0.0
C4530 C 0.8461 0.47367 0.86969 0.0
C4531 C 0.82984 0.47185 0.86594 0.0
H4532 H 0.86342 0.48253 0.88759 0.0
H4533 H 0.70795 0.46443 0.84306 0.0
H4534 H 0.05153 0.80135 0.35282 0.0
H4535 H 0.02935 0.78197 0.34589 0.0
H4536 H 1.01053 0.78638 0.39636 0.0
H4537 H 0.03275 0.80497 0.40346 0.0
H4538 H 1.00584 0.75712 0.38777 0.0
H4539 H 0.99635 0.80794 0.36159 0.0
H4540 H 1.00133 0.83182 0.34326 0.0
H4541 H 1.00243 0.79999 0.30014 0.0
H4542 H 0.99775 0.77587 0.31826 0.0
H4543 H 0.92273 0.73739 0.37636 0.0
H4544 H 0.9486 0.75154 0.38118 0.0
H4545 H 0.96593 0.73485 0.33301 0.0
H4546 H 0.94003 0.7207 0.32803 0.0
H4547 H 0.97252 0.76823 0.33871 0.0
H4548 H 0.9781 0.71722 0.36938 0.0
H4549 H 0.96973 0.69674 0.39076 0.0
H4550 H 0.97174 0.73397 0.42901 0.0
H4551 H 0.97998 0.7547 0.40798 0.0
C4552 C 0.04284 0.79791 0.36251 0.0
C4553 C 0.04394 0.80485 0.37868 0.0
C4554 C 0.03003 0.78695 0.35849 0.0
C4555 C 1.01797 0.78289 0.37049 0.0
C4556 C 0.01955 0.78924 0.3868 0.0
C4557 C 0.03235 0.79998 0.39085 0.0
C4558 C 1.00341 0.77248 0.36622 0.0
C4559 C 0.99857 0.75965 0.37705 0.0
C4560 C 0.99379 0.77563 0.35223 0.0
C4561 C 0.99696 0.79007 0.34132 0.0
C4562 C 0.99785 0.80601 0.34822 0.0
C4563 C 1.00059 0.81959 0.33787 0.0
C4564 C 1.00226 0.81742 0.32055 0.0
C4565 C 1.00119 0.80165 0.31356 0.0
C4566 C 0.99852 0.78802 0.32387 0.0
C4567 C 0.93205 0.73665 0.3668 0.0
C4568 C 0.92924 0.7279 0.35178 0.0
C4569 C 0.94689 0.74471 0.36961 0.0
C4570 C 0.95931 0.74417 0.35752 0.0
C4571 C 0.95656 0.73543 0.34254 0.0
C4572 C 0.94174 0.72731 0.33973 0.0
C4573 C 0.97498 0.75308 0.36035 0.0
C4574 C 0.97999 0.7656 0.34925 0.0
C4575 C 0.98441 0.75013 0.37449 0.0
C4576 C 0.97959 0.73754 0.38708 0.0
C4577 C 0.97668 0.72105 0.38233 0.0
C4578 C 0.97197 0.7094 0.39438 0.0
C4579 C 0.97017 0.71406 0.41116 0.0
C4580 C 0.97313 0.73038 0.41599 0.0
C4581 C 0.97785 0.74207 0.40404 0.0
H4582 H 0.96651 0.70502 0.42044 0.0
H4583 H 1.00431 0.82795 0.31255 0.0
H4584 H 1.00826 0.13339 0.64924 0.0
H4585 H 0.02726 0.12541 0.67063 0.0
H4586 H 1.00334 0.15562 0.70712 0.0
H4587 H 0.98461 0.16366 0.68601 0.0
H4588 H 0.03385 0.16117 0.71013 0.0
H4589 H 1.00027 0.11271 0.70734 0.0
H4590 H 0.98618 0.08895 0.69418 0.0
H4591 H 0.03117 0.06993 0.67814 0.0
H4592 H 0.0456 0.09377 0.69096 0.0
H4593 H 0.06709 0.13504 0.78538 0.0
H4594 H 0.04725 0.13654 0.7632 0.0
H4595 H 0.08012 0.11443 0.72828 0.0
H4596 H 0.10009 0.11319 0.7505 0.0
H4597 H 0.04633 0.10389 0.7236 0.0
H4598 H 0.07951 0.15336 0.72804 0.0
H4599 H 0.09224 0.17658 0.74348 0.0
H4600 H 0.04592 0.19335 0.75821 0.0
H4601 H 0.0329 0.17005 0.74309 0.0
C4602 C 1.00696 0.13822 0.66186 0.0
C4603 C 0.99484 0.14928 0.66572 0.0
C4604 C 1.01786 0.13362 0.67416 0.0
C4605 C 1.0169 0.13989 0.69069 0.0
C4606 C 1.0046 0.15065 0.69456 0.0
C4607 C 0.99377 0.15521 0.68236 0.0
C4608 C 0.02878 0.13574 0.70396 0.0
C4609 C 0.03639 0.1486 0.71309 0.0
C4610 C 0.03252 0.11938 0.70789 0.0
C4611 C 0.024 0.10513 0.69996 0.0
C4612 C 1.00717 0.10356 0.70085 0.0
C4613 C 0.99913 0.09007 0.69348 0.0
C4614 C 1.0078 0.07797 0.6853 0.0
C4615 C 0.02452 0.07935 0.68444 0.0
C4616 C 0.03263 0.09285 0.69177 0.0
C4617 C 0.06984 0.12991 0.77316 0.0
C4618 C 0.08502 0.12359 0.76985 0.0
C4619 C 0.05854 0.13092 0.76039 0.0
C4620 C 0.06211 0.12568 0.74392 0.0
C4621 C 0.07694 0.11846 0.74083 0.0
C4622 C 0.08834 0.11764 0.75359 0.0
C4623 C 0.05112 0.12932 0.72976 0.0
C4624 C 0.04379 0.11642 0.72048 0.0
C4625 C 0.04745 0.14564 0.72578 0.0
C4626 C 0.05523 0.15988 0.73455 0.0
C4627 C 0.07203 0.16194 0.73466 0.0
C4628 C 0.07931 0.17512 0.74335 0.0
C4629 C 0.0699 0.18641 0.75185 0.0
C4630 C 0.05319 0.18458 0.75163 0.0
C4631 C 0.04586 0.1714 0.74299 0.0
H4632 H 0.07555 0.1966 0.75857 0.0
H4633 H 1.00155 0.06749 0.67967 0.0
H4634 H 0.36124 0.23491 0.44258 0.0
H4635 H 0.35544 0.25528 0.46439 0.0
H4636 H 0.40558 0.26984 0.46587 0.0
H4637 H 0.41147 0.24972 0.44405 0.0
H4638 H 0.36513 0.26271 0.49646 0.0
H4639 H 0.40886 0.31135 0.46686 0.0
H4640 H 0.42102 0.31792 0.43922 0.0
H4641 H 0.38088 0.29409 0.4149 0.0
H4642 H 0.36839 0.2876 0.44238 0.0
H4643 H 0.38674 0.33343 0.54793 0.0
H4644 H 0.38745 0.30965 0.52899 0.0
H4645 H 0.35159 0.33055 0.49847 0.0
H4646 H 0.35054 0.3543 0.51752 0.0
H4647 H 0.38126 0.31996 0.48147 0.0
H4648 H 0.33976 0.30249 0.51928 0.0
H4649 H 0.32632 0.29545 0.54606 0.0
H4650 H 0.35859 0.25649 0.55296 0.0
H4651 H 0.37277 0.26378 0.52661 0.0
C4652 C 0.37109 0.2422 0.44779 0.0
C4653 C 0.3868 0.24085 0.44137 0.0
C4654 C 0.36774 0.25386 0.46025 0.0
C4655 C 0.38003 0.26433 0.46647 0.0
C4656 C 0.39586 0.26212 0.461 0.0
C4657 C 0.39922 0.25054 0.44855 0.0
C4658 C 0.37626 0.27833 0.47774 0.0
C4659 C 0.36869 0.27523 0.49328 0.0
C4660 C 0.38053 0.2947 0.4733 0.0
C4661 C 0.38777 0.29887 0.45669 0.0
C4662 C 0.40259 0.30759 0.45561 0.0
C4663 C 0.40955 0.31129 0.43997 0.0
C4664 C 0.40175 0.30639 0.42532 0.0
C4665 C 0.38694 0.29784 0.42626 0.0
C4666 C 0.37992 0.29413 0.44187 0.0
C4667 C 0.37896 0.33297 0.53721 0.0
C4668 C 0.36863 0.34581 0.53416 0.0
C4669 C 0.37928 0.31929 0.52651 0.0
C4670 C 0.36944 0.31827 0.51248 0.0
C4671 C 0.35918 0.33108 0.50933 0.0
C4672 C 0.35861 0.34462 0.52021 0.0
C4673 C 0.37065 0.30432 0.50053 0.0
C4674 C 0.37774 0.30745 0.48478 0.0
C4675 C 0.36581 0.28802 0.50481 0.0
C4676 C 0.35759 0.28395 0.52102 0.0
C4677 C 0.34429 0.29268 0.52666 0.0
C4678 C 0.33648 0.2886 0.54178 0.0
C4679 C 0.34165 0.27559 0.55126 0.0
C4680 C 0.35461 0.26659 0.54562 0.0
C4681 C 0.36259 0.27076 0.53062 0.0
H4682 H 0.33558 0.27243 0.56295 0.0
H4683 H 0.40716 0.30924 0.41322 0.0
H4684 H 0.38486 0.55039 0.3516 0.0
H4685 H 0.38784 0.53437 0.32555 0.0
H4686 H 0.37942 0.48963 0.35306 0.0
H4687 H 0.37602 0.50555 0.37901 0.0
H4688 H 0.40528 0.48775 0.32852 0.0
H4689 H 0.34973 0.50315 0.33218 0.0
H4690 H 0.32703 0.52162 0.33356 0.0
H4691 H 0.34433 0.54571 0.28887 0.0
H4692 H 0.36722 0.52746 0.28726 0.0
H4693 H 0.358 0.44501 0.25534 0.0
H4694 H 0.36006 0.46322 0.27946 0.0
H4695 H 0.41013 0.47304 0.26794 0.0
H4696 H 0.40824 0.45415 0.24377 0.0
H4697 H 0.36546 0.49387 0.28395 0.0
H4698 H 0.4296 0.48573 0.30429 0.0
H4699 H 0.45111 0.46604 0.30045 0.0
H4700 H 0.41598 0.4264 0.29678 0.0
H4701 H 0.39428 0.44581 0.30087 0.0
C4702 C 0.38387 0.53713 0.35218 0.0
C4703 C 0.38028 0.52933 0.36756 0.0
C4704 C 0.3855 0.52795 0.3372 0.0
C4705 C 0.38389 0.51068 0.33718 0.0
C4706 C 0.38082 0.50287 0.35261 0.0
C4707 C 0.37885 0.51204 0.3675 0.0
C4708 C 0.38466 0.50077 0.3211 0.0
C4709 C 0.3966 0.48917 0.31875 0.0
C4710 C 0.37347 0.50248 0.30815 0.0
C4711 C 0.36026 0.51404 0.30968 0.0
C4712 C 0.34883 0.51253 0.32278 0.0
C4713 C 0.33589 0.5229 0.32356 0.0
C4714 C 0.33422 0.53476 0.31127 0.0
C4715 C 0.34561 0.53646 0.29833 0.0
C4716 C 0.35856 0.52612 0.29747 0.0
C4717 C 0.36954 0.45097 0.25779 0.0
C4718 C 0.38297 0.44789 0.24739 0.0
C4719 C 0.37068 0.46154 0.27173 0.0
C4720 C 0.38527 0.4696 0.27592 0.0
C4721 C 0.39872 0.46685 0.26539 0.0
C4722 C 0.39762 0.45606 0.25141 0.0
C4723 C 0.386 0.48068 0.2913 0.0
C4724 C 0.3743 0.49253 0.29358 0.0
C4725 C 0.39745 0.47921 0.30412 0.0
C4726 C 0.41033 0.46725 0.3027 0.0
C4727 C 0.42648 0.47279 0.30282 0.0
C4728 C 0.43869 0.46169 0.30057 0.0
C4729 C 0.4349 0.44501 0.29827 0.0
C4730 C 0.41889 0.43934 0.29849 0.0
C4731 C 0.40663 0.45038 0.3008 0.0
H4732 H 0.44437 0.43649 0.2963 0.0
H4733 H 0.32405 0.54258 0.31173 0.0
H4734 H 1.00614 0.66331 0.07991 0.0
H4735 H 0.02962 0.66447 0.06078 0.0
H4736 H 0.02112 0.61349 0.04804 0.0
H4737 H 0.99769 0.61228 0.06667 0.0
H4738 H 0.05294 0.62074 0.05644 0.0
H4739 H 1.01297 0.64223 0.02051 0.0
H4740 H 0.99239 0.66154 0.01283 0.0
H4741 H 0.02701 0.7017 0.01597 0.0
H4742 H 0.04776 0.68264 0.02391 0.0
H4743 H 0.10698 0.60724 0.98977 0.0
H4744 H 0.08298 0.60983 1.00728 0.0
H4745 H 0.08992 0.66248 1.00723 0.0
H4746 H 0.11365 0.65993 0.98887 0.0
H4747 H 0.05965 0.65642 1.00669 0.0
H4748 H 0.09973 0.63645 0.04196 0.0
H4749 H 0.12091 0.61836 0.05088 0.0
H4750 H 0.08725 0.57722 0.0512 0.0
H4751 H 0.06592 0.59502 0.04205 0.0
C4752 C 1.00914 0.65239 0.07288 0.0
C4753 C 0.99985 0.63771 0.07495 0.0
C4754 C 0.02262 0.65307 0.06192 0.0
C4755 C 0.02728 0.63904 0.05289 0.0
C4756 C 1.01792 0.62449 0.05482 0.0
C4757 C 1.00439 0.62386 0.06552 0.0
C4758 C 0.04211 0.63917 0.04183 0.0
C4759 C 0.05431 0.62844 0.04547 0.0
C4760 C 0.04431 0.64959 0.0278 0.0
C4761 C 0.03187 0.66103 0.02299 0.0
C4762 C 1.01616 0.6552 0.01972 0.0
C4763 C 1.00447 0.66609 0.01528 0.0
C4764 C 1.00838 0.68284 0.01397 0.0
C4765 C 0.024 0.68872 0.01703 0.0
C4766 C 0.03573 0.67788 0.02148 0.0
C4767 C 0.10344 0.61941 0.99345 0.0
C4768 C 0.11247 0.63336 0.98799 0.0
C4769 C 0.08967 0.62089 1.00363 0.0
C4770 C 0.08467 0.63635 0.00919 0.0
C4771 C 0.09342 0.65036 1.00335 0.0
C4772 C 0.10707 0.64889 0.99283 0.0
C4773 C 0.07048 0.63775 0.02113 0.0
C4774 C 0.05839 0.64877 0.0177 0.0
C4775 C 0.06848 0.62779 0.03559 0.0
C4776 C 0.08126 0.61705 0.04118 0.0
C4777 C 0.09687 0.62352 0.04383 0.0
C4778 C 0.1089 0.61333 0.04894 0.0
C4779 C 0.10544 0.59665 0.05157 0.0
C4780 C 0.08992 0.59014 0.04914 0.0
C4781 C 0.07785 0.60028 0.04401 0.0
H4782 H 0.11477 0.58877 0.05552 0.0
H4783 H 0.99931 0.69126 0.01053 0.0
H4784 H 0.45229 0.4054 0.50481 0.0
H4785 H 0.4769 0.40317 0.4883 0.0
H4786 H 0.48301 0.35469 0.5077 0.0
H4787 H 0.45814 0.35679 0.52431 0.0
H4788 H 0.50733 0.39958 0.49794 0.0
H4789 H 0.50159 0.33247 0.47589 0.0
H4790 H 0.48073 0.31084 0.47069 0.0
H4791 H 0.44688 0.34749 0.46011 0.0
H4792 H 0.46759 0.3693 0.46504 0.0
H4793 H 0.57681 0.38848 0.44596 0.0
H4794 H 0.55668 0.38394 0.46841 0.0
H4795 H 0.51992 0.37714 0.43131 0.0
H4796 H 0.54015 0.38021 0.40911 0.0
H4797 H 0.51354 0.3568 0.45399 0.0
H4798 H 0.52782 0.4165 0.45617 0.0
H4799 H 0.54834 0.43896 0.45878 0.0
H4800 H 0.56337 0.41915 0.50532 0.0
H4801 H 0.54269 0.39684 0.50316 0.0
C4802 C 0.45875 0.39418 0.50549 0.0
C4803 C 0.45317 0.3812 0.51576 0.0
C4804 C 0.47292 0.39299 0.49615 0.0
C4805 C 0.48181 0.3788 0.49681 0.0
C4806 C 0.47626 0.36572 0.50694 0.0
C4807 C 0.46201 0.3669 0.51633 0.0
C4808 C 0.4967 0.37782 0.48651 0.0
C4809 C 0.50874 0.39016 0.4884 0.0
C4810 C 0.49861 0.3655 0.47414 0.0
C4811 C 0.48608 0.3525 0.47107 0.0
C4812 C 0.4897 0.33589 0.47244 0.0
C4813 C 0.47791 0.32361 0.46953 0.0
C4814 C 0.46247 0.32779 0.46514 0.0
C4815 C 0.45882 0.34427 0.46359 0.0
C4816 C 0.47057 0.3566 0.46646 0.0
C4817 C 0.56441 0.38596 0.44273 0.0
C4818 C 0.55994 0.38473 0.42592 0.0
C4819 C 0.55289 0.38346 0.45552 0.0
C4820 C 0.53665 0.38045 0.45163 0.0
C4821 C 0.53232 0.3793 0.43473 0.0
C4822 C 0.54386 0.3812 0.42203 0.0
C4823 C 0.52388 0.37902 0.46485 0.0
C4824 C 0.51229 0.3661 0.46368 0.0
C4825 C 0.52218 0.39102 0.47762 0.0
C4826 C 0.53379 0.40504 0.47949 0.0
C4827 C 0.53541 0.41707 0.46703 0.0
C4828 C 0.54705 0.42977 0.46845 0.0
C4829 C 0.55712 0.43052 0.48225 0.0
C4830 C 0.55548 0.41865 0.49473 0.0
C4831 C 0.54374 0.40604 0.49348 0.0
H4832 H 0.56622 0.44028 0.48326 0.0
H4833 H 0.45336 0.31826 0.4629 0.0
H4834 H 0.09925 0.04054 0.76988 0.0
H4835 H 0.09919 0.0239 0.7438 0.0
H4836 H 0.14476 0.04652 0.72916 0.0
H4837 H 0.14508 0.06265 0.75479 0.0
H4838 H 0.12112 0.04548 0.70346 0.0
H4839 H 0.14517 1.01095 0.74532 0.0
H4840 H 0.14451 0.9953 0.77161 0.0
H4841 H 0.10413 0.96611 0.75427 0.0
H4842 H 0.10443 0.98178 0.72795 0.0
H4843 H 0.16521 1.00341 0.64343 0.0
H4844 H 0.15462 0.01718 0.66821 0.0
H4845 H 0.11945 0.97756 0.67526 0.0
H4846 H 0.13063 0.96327 0.65082 0.0
H4847 H 0.13057 0.98584 0.70411 0.0
H4848 H 0.10888 0.01713 0.6604 0.0
H4849 H 0.1094 0.03243 0.6339 0.0
H4850 H 0.14375 0.06744 0.65414 0.0
H4851 H 0.14347 0.05231 0.68075 0.0
C4852 C 0.10919 0.04191 0.76104 0.0
C4853 C 0.1222 0.05281 0.76447 0.0
C4854 C 0.10916 0.03243 0.7462 0.0
C4855 C 0.12197 0.03404 0.73455 0.0
C4856 C 0.13473 0.04513 0.73791 0.0
C4857 C 0.13491 0.05427 0.75269 0.0
C4858 C 0.12269 0.02415 0.71888 0.0
C4859 C 0.12307 0.03241 0.70355 0.0
C4860 C 0.12482 1.00705 0.71899 0.0
C4861 C 0.12467 0.99768 0.73479 0.0
C4862 C 0.13605 1.00131 0.74719 0.0
C4863 C 0.13576 0.99241 0.76208 0.0
C4864 C 0.12425 0.97976 0.76463 0.0
C4865 C 0.11302 0.97595 0.75229 0.0
C4866 C 0.11324 0.98483 0.73739 0.0
C4867 C 0.15516 0.99766 0.65018 0.0
C4868 C 0.14871 0.98228 0.64512 0.0
C4869 C 0.14901 1.00561 0.66432 0.0
C4870 C 0.13593 0.99865 0.67347 0.0
C4871 C 0.12947 0.98325 0.66842 0.0
C4872 C 0.13586 0.9751 0.65444 0.0
C4873 C 0.12952 1.00727 0.68859 0.0
C4874 C 0.12811 0.99879 0.70384 0.0
C4875 C 0.12625 0.02418 0.68839 0.0
C4876 C 0.12617 0.03356 0.67256 0.0
C4877 C 0.11655 0.02808 0.65919 0.0
C4878 C 0.1168 0.03673 0.64415 0.0
C4879 C 0.12661 0.05089 0.64234 0.0
C4880 C 0.13613 0.05648 0.65558 0.0
C4881 C 0.13589 0.04792 0.67067 0.0
H4882 H 0.12683 0.05754 0.63067 0.0
H4883 H 0.12406 0.97287 0.77616 0.0
H4884 H 0.52834 0.35818 0.35118 0.0
H4885 H 0.512 0.37238 0.33121 0.0
H4886 H 0.5457 0.41384 0.33182 0.0
H4887 H 0.56234 0.39949 0.35127 0.0
H4888 H 0.49639 0.39961 0.33122 0.0
H4889 H 0.54828 0.43071 0.29322 0.0
H4890 H 0.57684 0.42676 0.28642 0.0
H4891 H 0.56978 0.37483 0.2933 0.0
H4892 H 0.54116 0.37847 0.29995 0.0
H4893 H 0.45663 0.43865 0.26514 0.0
H4894 H 0.4761 0.43759 0.28794 0.0
H4895 H 0.49995 0.3987 0.26165 0.0
H4896 H 0.48082 0.39985 0.23916 0.0
H4897 H 0.52126 0.41727 0.27713 0.0
H4898 H 0.46918 0.39128 0.29021 0.0
H4899 H 0.44009 0.38991 0.29624 0.0
H4900 H 0.44656 0.42421 0.33691 0.0
H4901 H 0.47567 0.42601 0.33091 0.0
C4902 C 0.53225 0.37031 0.34706 0.0
C4903 C 0.54675 0.37759 0.35257 0.0
C4904 C 0.52287 0.37847 0.33572 0.0
C4905 C 0.52773 0.39409 0.32984 0.0
C4906 C 0.54187 0.40166 0.3359 0.0
C4907 C 0.55138 0.39341 0.347 0.0
C4908 C 0.51837 0.40204 0.31678 0.0
C4909 C 0.50185 0.40363 0.31945 0.0
C4910 C 0.52548 0.40726 0.30141 0.0
C4911 C 0.54264 0.40491 0.29729 0.0
C4912 C 0.55283 0.41846 0.29324 0.0
C4913 C 0.56902 0.41627 0.28942 0.0
C4914 C 0.57513 0.40056 0.2895 0.0
C4915 C 0.56505 0.387 0.29332 0.0
C4916 C 0.54885 0.38912 0.29714 0.0
C4917 C 0.4664 0.43033 0.26408 0.0
C4918 C 0.46725 0.41925 0.25055 0.0
C4919 C 0.4774 0.42962 0.27711 0.0
C4920 C 0.48933 0.41788 0.27661 0.0
C4921 C 0.49089 0.40785 0.26236 0.0
C4922 C 0.47992 0.40847 0.24952 0.0
C4923 C 0.49918 0.41443 0.29136 0.0
C4924 C 0.51585 0.41372 0.28908 0.0
C4925 C 0.49211 0.40947 0.30686 0.0
C4926 C 0.47456 0.40896 0.30996 0.0
C4927 C 0.46437 0.3987 0.30029 0.0
C4928 C 0.44789 0.39779 0.30375 0.0
C4929 C 0.44149 0.40692 0.31698 0.0
C4930 C 0.45154 0.4171 0.3267 0.0
C4931 C 0.46802 0.41812 0.32324 0.0
H4932 H 0.42874 0.40616 0.31968 0.0
H4933 H 0.58767 0.39891 0.28656 0.0
H4934 H 0.1332 0.72355 0.99186 0.0
H4935 H 0.14022 0.74171 0.01519 0.0
H4936 H 0.18942 0.72786 0.01093 0.0
H4937 H 0.18242 0.70931 0.98755 0.0
H4938 H 0.17932 0.72617 0.04304 0.0
H4939 H 0.18033 0.76692 1.00148 0.0
H4940 H 0.17187 0.78287 0.97733 0.0
H4941 H 0.12897 0.79556 1.0041 0.0
H4942 H 0.137 0.77935 0.02826 0.0
H4943 H 0.19243 0.7969 0.10247 0.0
H4944 H 0.19468 0.77897 0.0778 0.0
H4945 H 0.14398 0.76733 0.08086 0.0
H4946 H 0.14152 0.7852 0.10555 0.0
H4947 H 0.1615 0.78314 0.04795 0.0
H4948 H 0.16216 0.73926 0.09001 0.0
H4949 H 0.17437 0.72553 0.11371 0.0
H4950 H 0.21814 0.72121 0.08523 0.0
H4951 H 0.20629 0.73524 0.06148 0.0
C4952 C 0.1456 0.7246 0.99562 0.0
C4953 C 0.15724 0.715 0.9878 0.0
C4954 C 0.14961 0.73501 0.00898 0.0
C4955 C 0.16538 0.73617 0.01484 0.0
C4956 C 0.1772 0.72711 1.00665 0.0
C4957 C 0.1732 0.71668 0.99316 0.0
C4958 C 0.16903 0.7462 0.03006 0.0
C4959 C 0.17554 0.73872 0.04408 0.0
C4960 C 0.16443 0.76265 0.03142 0.0
C4961 C 0.15927 0.77193 0.01669 0.0
C4962 C 0.16902 0.77299 1.00216 0.0
C4963 C 0.1643 0.78208 0.98846 0.0
C4964 C 0.1499 0.79024 0.98918 0.0
C4965 C 0.14014 0.78925 1.00356 0.0
C4966 C 0.14477 0.78013 0.01726 0.0
C4967 C 0.18175 0.7904 0.09803 0.0
C4968 C 0.16671 0.79275 0.10586 0.0
C4969 C 0.18312 0.78005 0.084 0.0
C4970 C 0.16952 0.77182 0.07754 0.0
C4971 C 0.15463 0.77355 0.08572 0.0
C4972 C 0.15324 0.78381 0.09981 0.0
C4973 C 0.17037 0.76281 0.06131 0.0
C4974 C 0.16503 0.77061 0.04702 0.0
C4975 C 0.17634 0.74688 0.0597 0.0
C4976 C 0.1834 0.73849 0.07404 0.0
C4977 C 0.17445 0.73558 0.08887 0.0
C4978 C 0.18129 0.72768 0.10229 0.0
C4979 C 0.19702 0.7225 0.10097 0.0
C4980 C 0.20594 0.7252 0.08622 0.0
C4981 C 0.19918 0.73314 0.07279 0.0
H4982 H 0.2023 0.71642 0.11139 0.0
H4983 H 0.1463 0.79732 0.97859 0.0
H4984 H 0.9618 0.02658 0.42163 0.0
H4985 H 0.98434 1.00973 0.4145 0.0
H4986 H 0.98516 0.0282 0.36406 0.0
H4987 H 0.96236 0.04535 0.37116 0.0
H4988 H 0.98457 0.9852 0.39065 0.0
H4989 H 0.02761 0.02599 0.35107 0.0
H4990 H 0.03367 0.05535 0.34582 0.0
H4991 H 1.01741 0.06738 0.39555 0.0
H4992 H 1.01172 0.03806 0.40133 0.0
H4993 H 0.0664 0.95325 0.36034 0.0
H4994 H 0.04676 0.97483 0.35751 0.0
H4995 H 0.03324 0.96925 0.40957 0.0
H4996 H 0.05238 0.9479 0.4124 0.0
H4997 H 0.0395 1.0053 0.37455 0.0
H4998 H 0.99385 0.96415 0.41261 0.0
H4999 H 0.98787 0.93466 0.41712 0.0
H5000 H 1.00909 0.92339 0.36919 0.0
H5001 H 1.01483 0.95284 0.36423 0.0
C5002 C 0.96675 0.0272 0.40902 0.0
C5003 C 0.96017 0.03727 0.39694 0.0
C5004 C 0.97965 0.0175 0.40495 0.0
C5005 C 0.98641 0.01766 0.38875 0.0
C5006 C 0.98016 0.02794 0.37667 0.0
C5007 C 0.96712 0.03769 0.38074 0.0
C5008 C 0.99959 1.00648 0.38472 0.0
C5009 C 0.99658 0.98963 0.38717 0.0
C5010 C 1.01511 1.01217 0.3795 0.0
C5011 C 0.01899 0.02982 0.37651 0.0
C5012 C 0.02542 0.03488 0.36093 0.0
C5013 C 0.02882 0.05152 0.35788 0.0
C5014 C 0.02589 0.06321 0.37035 0.0
C5015 C 0.01967 0.05829 0.38594 0.0
C5016 C 1.01635 0.04166 0.3891 0.0
C5017 C 0.05933 0.95682 0.37117 0.0
C5018 C 0.06059 0.94851 0.38641 0.0
C5019 C 0.0482 0.96917 0.36957 0.0
C5020 C 0.03825 0.97331 0.38322 0.0
C5021 C 0.04052 0.96597 0.39876 0.0
C5022 C 0.05155 0.95376 0.40036 0.0
C5023 C 0.02457 0.98422 0.38138 0.0
C5024 C 0.02742 1.0009 0.37774 0.0
C5025 C 1.0088 0.97842 0.38542 0.0
C5026 C 1.00487 0.96071 0.3881 0.0
C5027 C 0.9971 0.9554 0.40297 0.0
C5028 C 0.99374 0.93869 0.40559 0.0
C5029 C 0.99811 0.92716 0.39346 0.0
C5030 C 1.00575 0.93233 0.3786 0.0
C5031 C 1.00905 0.94902 0.37588 0.0
H5032 H 0.9956 0.91423 0.39558 0.0
H5033 H 0.02846 0.07609 0.36795 0.0
H5034 H 0.54146 0.2986 0.40341 0.0
H5035 H 0.51954 0.27929 0.39661 0.0
H5036 H 0.52966 0.28603 0.34392 0.0
H5037 H 0.55164 0.30572 0.35071 0.0
H5038 H 0.49863 0.28901 0.35008 0.0
H5039 H 0.53618 0.24986 0.36341 0.0
H5040 H 0.55691 0.23655 0.37939 0.0
H5041 H 0.52325 0.22755 0.41983 0.0
H5042 H 0.50242 0.24133 0.40434 0.0
H5043 H 0.43907 0.22696 0.3296 0.0
H5044 H 0.46515 0.24115 0.33295 0.0
H5045 H 0.45619 0.24538 0.38612 0.0
H5046 H 0.42991 0.23122 0.38287 0.0
H5047 H 0.48787 0.23504 0.37698 0.0
H5048 H 0.45132 0.27749 0.36305 0.0
H5049 H 0.43094 0.28934 0.34529 0.0
H5050 H 0.46393 0.2898 0.3034 0.0
H5051 H 0.48444 0.27772 0.32086 0.0
C5052 C 0.53929 0.29574 0.39035 0.0
C5053 C 0.54835 0.30375 0.37761 0.0
C5054 C 0.52671 0.28462 0.38647 0.0
C5055 C 0.52287 0.2811 0.36973 0.0
C5056 C 0.53234 0.28853 0.35693 0.0
C5057 C 0.54503 0.29966 0.36083 0.0
C5058 C 0.50828 0.27062 0.36582 0.0
C5059 C 0.49646 0.27708 0.35574 0.0
C5060 C 0.50524 0.25507 0.37329 0.0
C5061 C 0.51775 0.2468 0.38274 0.0
C5062 C 0.53323 0.24524 0.37579 0.0
C5063 C 0.54501 0.23759 0.38477 0.0
C5064 C 0.5414 0.23119 0.40061 0.0
C5065 C 0.52602 0.2325 0.40755 0.0
C5066 C 0.51423 0.24027 0.39869 0.0
C5067 C 0.44262 0.23088 0.34204 0.0
C5068 C 0.43235 0.22799 0.35598 0.0
C5069 C 0.45755 0.239 0.34391 0.0
C5070 C 0.46262 0.2444 0.35977 0.0
C5071 C 0.45254 0.24131 0.37376 0.0
C5072 C 0.43748 0.23331 0.37188 0.0
C5073 C 0.47824 0.25366 0.36165 0.0
C5074 C 0.49019 0.24694 0.3713 0.0
C5075 C 0.48152 0.26883 0.35358 0.0
C5076 C 0.46936 0.27656 0.34322 0.0
C5077 C 0.4542 0.28004 0.35003 0.0
C5078 C 0.44263 0.2868 0.34002 0.0
C5079 C 0.44612 0.29026 0.32321 0.0
C5080 C 0.46123 0.28707 0.31642 0.0
C5081 C 0.47284 0.28029 0.32637 0.0
H5082 H 0.43713 0.29545 0.31547 0.0
H5083 H 0.55052 0.22519 0.4075 0.0
H5084 H 0.59 0.9698 0.14979 0.0
H5085 H 0.56817 0.98835 0.15667 0.0
H5086 H 0.55587 0.98937 0.10444 0.0
H5087 H 0.57679 0.97069 0.09772 0.0
H5088 H 0.56454 0.01885 0.14713 0.0
H5089 H 0.51856 0.99605 0.09719 0.0
H5090 H 0.50903 0.96991 0.0845 0.0
H5091 H 0.52251 0.9441 0.12833 0.0
H5092 H 0.53195 0.9701 0.14142 0.0
H5093 H 0.50418 0.06451 0.09693 0.0
H5094 H 0.51923 0.04052 0.1035 0.0
H5095 H 0.51484 0.05174 0.15623 0.0
H5096 H 0.49949 0.07599 0.14969 0.0
H5097 H 0.51075 0.01334 0.122 0.0
H5098 H 0.55323 0.03827 0.173 0.0
H5099 H 0.56535 0.06437 0.18341 0.0
H5100 H 0.56081 0.08572 0.13487 0.0
H5101 H 0.54895 0.05965 0.1241 0.0
C5102 C 0.58235 0.97371 0.1399 0.0
C5103 C 0.58515 0.96873 0.12322 0.0
C5104 C 0.56992 0.98435 0.14382 0.0
C5105 C 0.56009 0.99005 0.13113 0.0
C5106 C 0.56286 0.98484 0.11458 0.0
C5107 C 0.57505 0.97422 0.11071 0.0
C5108 C 0.54778 1.00249 0.13453 0.0
C5109 C 0.55263 0.01746 0.14205 0.0
C5110 C 0.5322 1.0008 0.12779 0.0
C5111 C 0.52603 0.98508 0.12029 0.0
C5112 C 0.51937 0.98483 0.10421 0.0
C5113 C 0.51406 0.97002 0.0969 0.0
C5114 C 0.5153 0.95534 0.10553 0.0
C5115 C 0.52173 0.95545 0.12157 0.0
C5116 C 0.52705 0.97024 0.12896 0.0
C5117 C 0.50636 0.06192 0.10995 0.0
C5118 C 0.50069 0.07222 0.12279 0.0
C5119 C 0.51491 0.04812 0.11369 0.0
C5120 C 0.51822 0.04433 0.13035 0.0
C5121 C 0.51248 0.05447 0.14328 0.0
C5122 C 0.50368 0.06827 0.13954 0.0
C5123 C 0.52794 0.02986 0.13372 0.0
C5124 C 0.52251 0.0145 0.12754 0.0
C5125 C 0.54304 0.03124 0.1415 0.0
C5126 C 0.54984 0.04712 0.14787 0.0
C5127 C 0.55475 0.04856 0.16457 0.0
C5128 C 0.56164 0.06334 0.17052 0.0
C5129 C 0.56375 0.07674 0.15984 0.0
C5130 C 0.55905 0.07537 0.14317 0.0
C5131 C 0.55221 0.0606 0.13714 0.0
H5132 H 0.56909 0.08817 0.16444 0.0
H5133 H 0.51114 0.94394 0.09982 0.0
H5134 H 0.06926 0.3325 0.6448 0.0
H5135 H 0.04005 0.32849 0.64306 0.0
H5136 H 0.04673 0.28594 0.61141 0.0
H5137 H 0.07535 0.29059 0.61218 0.0
H5138 H 0.02071 0.2988 0.603 0.0
H5139 H 0.04251 0.28495 0.66283 0.0
H5140 H 0.0543 0.29667 0.6887 0.0
H5141 H 0.02042 0.33496 0.68889 0.0
H5142 H 1.00843 0.32338 0.66306 0.0
H5143 H 1.00553 0.22001 0.6218 0.0
H5144 H 1.0139 0.24841 0.61861 0.0
H5145 H 0.97603 0.26289 0.65249 0.0
H5146 H 0.9676 0.23376 0.65606 0.0
H5147 H 1.00241 0.27939 0.65905 0.0
H5148 H 0.97514 0.27448 0.60572 0.0
H5149 H 0.96685 0.25966 0.58007 0.0
H5150 H 1.01623 0.25551 0.56531 0.0
H5151 H 0.02463 0.26989 0.59119 0.0
C5152 C 0.06436 0.32253 0.63723 0.0
C5153 C 0.07456 0.31165 0.62895 0.0
C5154 C 0.0477 0.32022 0.63629 0.0
C5155 C 0.04109 0.30666 0.6275 0.0
C5156 C 0.05137 0.29657 0.61827 0.0
C5157 C 0.06787 0.29913 0.61885 0.0
C5158 C 0.02406 0.30098 0.62956 0.0
C5159 C 1.01635 0.29482 0.61525 0.0
C5160 C 1.01769 0.29661 0.64551 0.0
C5161 C 0.02461 0.30333 0.66114 0.0
C5162 C 0.03755 0.2958 0.6685 0.0
C5163 C 0.04426 0.30243 0.68311 0.0
C5164 C 0.03805 0.3165 0.69048 0.0
C5165 C 0.02514 0.32401 0.68323 0.0
C5166 C 1.01838 0.31742 0.66862 0.0
C5167 C 0.99885 0.22916 0.62858 0.0
C5168 C 0.98578 0.22465 0.63907 0.0
C5169 C 1.00346 0.24552 0.62643 0.0
C5170 C 0.99503 0.25795 0.6345 0.0
C5171 C 0.9824 0.25353 0.6457 0.0
C5172 C 0.97762 0.23694 0.64777 0.0
C5173 C 1.00094 0.27521 0.63238 0.0
C5174 C 1.00596 0.2839 0.64674 0.0
C5175 C 1.00535 0.28148 0.61634 0.0
C5176 C 1.0004 0.27307 0.60056 0.0
C5177 C 0.98414 0.27011 0.59718 0.0
C5178 C 0.97945 0.26187 0.58254 0.0
C5179 C 0.99101 0.25658 0.57107 0.0
C5180 C 1.00727 0.2596 0.5742 0.0
C5181 C 1.01197 0.26784 0.58885 0.0
H5182 H 0.98738 0.2502 0.55973 0.0
H5183 H 0.0433 0.32164 0.70176 0.0
H5184 H 0.61631 0.96125 0.06226 0.0
H5185 H 0.61953 0.98007 0.03854 0.0
H5186 H 0.67048 0.98402 0.04652 0.0
H5187 H 0.66734 0.96554 0.07028 0.0
H5188 H 0.63338 1.01195 0.04791 0.0
H5189 H 0.68717 0.99599 1.00493 0.0
H5190 H 0.70076 0.97142 0.99481 0.0
H5191 H 0.65699 0.94261 1.00068 0.0
H5192 H 0.6429 0.96709 0.01003 0.0
H5193 H 0.67452 0.07181 0.98389 0.0
H5194 H 0.67589 0.0457 0.99907 0.0
H5195 H 0.62424 0.04119 1.00045 0.0
H5196 H 0.62274 0.06698 0.98613 0.0
H5197 H 0.66402 0.01319 0.99406 0.0
H5198 H 0.61128 0.03153 0.03879 0.0
H5199 H 0.60079 0.05641 0.05213 0.0
H5200 H 0.64699 0.08092 0.04675 0.0
H5201 H 0.65785 0.0561 0.0337 0.0
C5202 C 0.62823 0.96575 0.0586 0.0
C5203 C 0.64153 0.96226 0.06822 0.0
C5204 C 0.63006 0.97644 0.04509 0.0
C5205 C 0.64524 0.98339 0.04088 0.0
C5206 C 0.65871 0.97867 0.04952 0.0
C5207 C 0.65686 0.96823 0.06316 0.0
C5208 C 0.64662 0.99779 0.02991 0.0
C5209 C 0.6398 1.01214 0.03596 0.0
C5210 C 0.65593 0.99816 0.01493 0.0
C5211 C 0.66401 0.98341 0.00845 0.0
C5212 C 0.68037 0.98446 1.00388 0.0
C5213 C 0.68816 0.97053 0.99822 0.0
C5214 C 0.67973 0.95545 0.99709 0.0
C5215 C 0.66347 0.9543 1.00148 0.0
C5216 C 0.65557 0.96821 1.00696 0.0
C5217 C 0.66352 0.06518 0.98747 0.0
C5218 C 0.64855 0.07163 0.98416 0.0
C5219 C 0.66431 0.05027 0.99598 0.0
C5220 C 0.65014 0.04174 1.0011 0.0
C5221 C 0.6353 0.04776 0.99691 0.0
C5222 C 0.6345 0.0626 0.98876 0.0
C5223 C 0.65035 0.02716 0.01189 0.0
C5224 C 0.65756 0.01291 1.00596 0.0
C5225 C 0.64182 0.0269 0.02737 0.0
C5226 C 0.63534 0.04196 0.03512 0.0
C5227 C 0.61922 0.0422 0.04051 0.0
C5228 C 0.61322 0.05628 0.04806 0.0
C5229 C 0.62322 0.07023 0.0503 0.0
C5230 C 0.63925 0.07012 0.04499 0.0
C5231 C 0.64533 0.05605 0.0375 0.0
H5232 H 0.61855 0.08112 0.05612 0.0
H5233 H 0.6858 0.94465 0.99282 0.0
H5234 H 0.24694 0.87874 0.79448 0.0
H5235 H 0.2524 0.88417 0.76506 0.0
H5236 H 0.21293 0.9167 0.76407 0.0
H5237 H 0.20737 0.9113 0.79398 0.0
H5238 H 0.23181 0.88355 0.73369 0.0
H5239 H 0.22578 0.94273 0.7494 0.0
H5240 H 0.22453 0.9639 0.77167 0.0
H5241 H 0.2694 0.94883 0.79065 0.0
H5242 H 0.27079 0.92751 0.76854 0.0
H5243 H 0.3116 0.92994 0.69938 0.0
H5244 H 0.28249 0.93097 0.70343 0.0
H5245 H 0.28149 0.88205 0.72369 0.0
H5246 H 0.31012 0.8808 0.71926 0.0
H5247 H 0.26959 0.93187 0.73234 0.0
H5248 H 0.24632 0.86202 0.72347 0.0
H5249 H 0.24749 0.84094 0.70137 0.0
H5250 H 0.2606 0.87773 0.66508 0.0
H5251 H 0.25908 0.89919 0.68677 0.0
C5252 C 0.23931 0.88698 0.78805 0.0
C5253 C 0.22696 0.89491 0.79664 0.0
C5254 C 0.24231 0.8899 0.77115 0.0
C5255 C 0.23315 0.9009 0.76243 0.0
C5256 C 0.22023 0.90827 0.77065 0.0
C5257 C 0.21711 0.90523 0.7877 0.0
C5258 C 0.23921 0.90613 0.74573 0.0
C5259 C 0.2398 0.8943 0.73289 0.0
C5260 C 0.24891 0.9206 0.7444 0.0
C5261 C 0.24837 0.93359 0.7574 0.0
C5262 C 0.23536 0.94398 0.75833 0.0
C5263 C 0.23462 0.95597 0.77093 0.0
C5264 C 0.24688 0.95771 0.78257 0.0
C5265 C 0.25992 0.94748 0.78162 0.0
C5266 C 0.2607 0.93546 0.76906 0.0
C5267 C 0.30506 0.91923 0.70421 0.0
C5268 C 0.3132 0.90543 0.70939 0.0
C5269 C 0.28842 0.91983 0.70649 0.0
C5270 C 0.27971 0.9066 0.71386 0.0
C5271 C 0.28775 0.89233 0.71767 0.0
C5272 C 0.30426 0.89171 0.71536 0.0
C5273 C 0.26325 0.90852 0.72076 0.0
C5274 C 0.26093 0.92162 0.73198 0.0
C5275 C 0.25159 0.89544 0.72009 0.0
C5276 C 0.25234 0.88241 0.70687 0.0
C5277 C 0.24914 0.86577 0.71075 0.0
C5278 C 0.24993 0.85369 0.69826 0.0
C5279 C 0.254 0.858 0.6818 0.0
C5280 C 0.25732 0.87441 0.67781 0.0
C5281 C 0.25648 0.88655 0.69022 0.0
H5282 H 0.25465 0.84862 0.67217 0.0
H5283 H 0.24627 0.96698 0.79233 0.0
H5284 H 0.60457 0.19637 0.28741 0.0
H5285 H 0.6059 0.2197 0.26819 0.0
H5286 H 0.65743 0.21822 0.26647 0.0
H5287 H 0.65615 0.19474 0.28535 0.0
H5288 H 0.64391 0.25162 0.26494 0.0
H5289 H 0.64188 0.19783 0.23844 0.0
H5290 H 0.63036 0.16974 0.23497 0.0
H5291 H 0.58499 0.18903 0.2226 0.0
H5292 H 0.59621 0.21728 0.22624 0.0
H5293 H 0.66015 0.28917 0.18545 0.0
H5294 H 0.65988 0.27108 0.2098 0.0
H5295 H 0.60949 0.25985 0.20294 0.0
H5296 H 0.60983 0.27725 0.17838 0.0
H5297 H 0.62277 0.23324 0.2099 0.0
H5298 H 0.62561 0.28767 0.23428 0.0
H5299 H 0.63726 0.3156 0.23867 0.0
H5300 H 0.68084 0.29556 0.25561 0.0
H5301 H 0.66954 0.26752 0.2511 0.0
C5302 C 0.6162 0.20145 0.28349 0.0
C5303 C 0.63025 0.19372 0.28783 0.0
C5304 C 0.61694 0.21471 0.27242 0.0
C5305 C 0.63177 0.22058 0.26578 0.0
C5306 C 0.64589 0.21391 0.27143 0.0
C5307 C 0.64513 0.20049 0.28223 0.0
C5308 C 0.63245 0.23179 0.25119 0.0
C5309 C 0.63937 0.24765 0.25286 0.0
C5310 C 0.62647 0.22658 0.23548 0.0
C5311 C 0.61983 0.20965 0.23279 0.0
C5312 C 0.62942 0.19608 0.23508 0.0
C5313 C 0.62295 0.18013 0.23308 0.0
C5314 C 0.60694 0.1776 0.22863 0.0
C5315 C 0.59739 0.19102 0.22607 0.0
C5316 C 0.6038 0.207 0.22809 0.0
C5317 C 0.64904 0.28278 0.1891 0.0
C5318 C 0.63504 0.28465 0.17987 0.0
C5319 C 0.64885 0.27252 0.20313 0.0
C5320 C 0.63458 0.26422 0.20847 0.0
C5321 C 0.62067 0.26604 0.19916 0.0
C5322 C 0.6209 0.27603 0.18505 0.0
C5323 C 0.63401 0.25342 0.22353 0.0
C5324 C 0.6272 0.23745 0.22194 0.0
C5325 C 0.64008 0.25861 0.2393 0.0
C5326 C 0.64679 0.27549 0.24218 0.0
C5327 C 0.63771 0.28922 0.23884 0.0
C5328 C 0.64425 0.30508 0.24136 0.0
C5329 C 0.65981 0.30734 0.24735 0.0
C5330 C 0.66881 0.29378 0.25094 0.0
C5331 C 0.66234 0.27791 0.24841 0.0
H5332 H 0.66492 0.31959 0.24922 0.0
H5333 H 0.60193 0.16524 0.22712 0.0
H5334 H 0.26816 0.35912 0.44691 0.0
H5335 H 0.27904 0.36306 0.47494 0.0
H5336 H 0.24345 0.39867 0.48633 0.0
H5337 H 0.23302 0.39539 0.45796 0.0
H5338 H 0.27494 0.40511 0.50078 0.0
H5339 H 0.23502 0.36013 0.49375 0.0
H5340 H 0.22686 0.33595 0.47674 0.0
H5341 H 0.26973 0.31218 0.48987 0.0
H5342 H 0.27847 0.33639 0.50653 0.0
H5343 H 0.3018 0.40132 0.57944 0.0
H5344 H 0.27857 0.39878 0.56121 0.0
H5345 H 0.29584 0.35306 0.54164 0.0
H5346 H 0.31785 0.35478 0.56099 0.0
H5347 H 0.26778 0.3535 0.53301 0.0
H5348 H 0.31187 0.39337 0.52802 0.0
H5349 H 0.32953 0.41673 0.5368 0.0
H5350 H 0.28903 0.44753 0.54036 0.0
H5351 H 0.27113 0.4243 0.53162 0.0
C5352 C 0.26292 0.36805 0.45527 0.0
C5353 C 0.24961 0.37674 0.4505 0.0
C5354 C 0.26914 0.37033 0.47121 0.0
C5355 C 0.26174 0.38084 0.48273 0.0
C5356 C 0.24921 0.39044 0.47758 0.0
C5357 C 0.24324 0.38849 0.46146 0.0
C5358 C 0.26576 0.38017 0.50057 0.0
C5359 C 0.27303 0.39401 0.50805 0.0
C5360 C 0.26371 0.36542 0.50965 0.0
C5361 C 0.25741 0.35011 0.50144 0.0
C5362 C 0.24271 0.34975 0.49304 0.0
C5363 C 0.23804 0.33609 0.48334 0.0
C5364 C 0.24781 0.32261 0.48213 0.0
C5365 C 0.26221 0.32267 0.49077 0.0
C5366 C 0.26702 0.33635 0.50037 0.0
C5367 C 0.29993 0.39022 0.57207 0.0
C5368 C 0.31167 0.37839 0.57131 0.0
C5369 C 0.28681 0.38886 0.56145 0.0
C5370 C 0.28602 0.37626 0.54931 0.0
C5371 C 0.29629 0.36311 0.55061 0.0
C5372 C 0.30893 0.36407 0.56177 0.0
C5373 C 0.27745 0.37844 0.53337 0.0
C5374 C 0.2692 0.36487 0.52612 0.0
C5375 C 0.27952 0.39315 0.52402 0.0
C5376 C 0.29016 0.40709 0.52943 0.0
C5377 C 0.30674 0.40512 0.53076 0.0
C5378 C 0.31679 0.41832 0.53571 0.0
C5379 C 0.31039 0.43358 0.53922 0.0
C5380 C 0.29395 0.43568 0.5377 0.0
C5381 C 0.28385 0.42252 0.53274 0.0
H5382 H 0.31819 0.44379 0.54305 0.0
H5383 H 0.24414 0.31204 0.47464 0.0
H5384 H 0.37147 0.87052 0.73527 0.0
H5385 H 0.36432 0.8433 0.7464 0.0
H5386 H 0.41219 0.82781 0.73534 0.0
H5387 H 0.41938 0.85486 0.72405 0.0
H5388 H 0.39051 0.80382 0.7278 0.0
H5389 H 0.40091 0.84022 0.77475 0.0
H5390 H 0.39698 0.86482 0.79233 0.0
H5391 H 0.34773 0.84972 0.80105 0.0
H5392 H 0.35132 0.82514 0.7833 0.0
H5393 H 0.40648 0.7426 0.78572 0.0
H5394 H 0.40418 0.76605 0.76752 0.0
H5395 H 0.35544 0.77163 0.78484 0.0
H5396 H 0.35782 0.74804 0.8035 0.0
H5397 H 0.3724 0.79993 0.78719 0.0
H5398 H 0.36463 0.76003 0.74402 0.0
H5399 H 0.37007 0.73531 0.72719 0.0
H5400 H 0.41563 0.75664 0.71151 0.0
H5401 H 0.41065 0.78134 0.72854 0.0
C5402 C 0.38046 0.8613 0.73513 0.0
C5403 C 0.39606 0.86497 0.72893 0.0
C5404 C 0.37635 0.84573 0.74152 0.0
C5405 C 0.38777 0.83353 0.74191 0.0
C5406 C 0.40317 0.837 0.7352 0.0
C5407 C 0.40729 0.85254 0.72884 0.0
C5408 C 0.38402 0.8174 0.74998 0.0
C5409 C 0.38661 0.80293 0.74081 0.0
C5410 C 0.37848 0.81622 0.76681 0.0
C5411 C 0.37632 0.83096 0.77753 0.0
C5412 C 0.3892 0.84222 0.7803 0.0
C5413 C 0.38705 0.85615 0.79031 0.0
C5414 C 0.3721 0.85886 0.79775 0.0
C5415 C 0.35929 0.84762 0.79524 0.0
C5416 C 0.36138 0.83369 0.78521 0.0
C5417 C 0.39514 0.74859 0.78546 0.0
C5418 C 0.38234 0.7435 0.79613 0.0
C5419 C 0.3938 0.76198 0.77491 0.0
C5420 C 0.3796 0.77061 0.77465 0.0
C5421 C 0.36651 0.76513 0.78477 0.0
C5422 C 0.36783 0.75159 0.79534 0.0
C5423 C 0.37924 0.78624 0.76515 0.0
C5424 C 0.37594 0.80069 0.77407 0.0
C5425 C 0.38429 0.78737 0.74812 0.0
C5426 C 0.3873 0.77253 0.73772 0.0
C5427 C 0.37588 0.7594 0.73713 0.0
C5428 C 0.37889 0.74538 0.72754 0.0
C5429 C 0.39323 0.74435 0.71838 0.0
C5430 C 0.40456 0.7574 0.7187 0.0
C5431 C 0.40164 0.77143 0.7283 0.0
H5432 H 0.39552 0.73351 0.71093 0.0
H5433 H 0.37046 0.86965 0.8055 0.0
H5434 H 0.68246 0.16988 0.01027 0.0
H5435 H 0.70533 0.16219 0.02665 0.0
H5436 H 0.71202 0.1203 0.99435 0.0
H5437 H 0.68904 0.12796 0.9777 0.0
H5438 H 0.71433 0.11428 0.03084 0.0
H5439 H 0.73739 0.14896 0.98777 0.0
H5440 H 0.73823 0.17356 0.97001 0.0
H5441 H 0.74269 0.20439 0.01372 0.0
H5442 H 0.74172 0.17997 0.03175 0.0
H5443 H 0.79888 0.12065 0.06855 0.0
H5444 H 0.77931 0.11723 0.04584 0.0
H5445 H 0.74657 0.14745 0.07334 0.0
H5446 H 0.76618 0.15155 0.09541 0.0
H5447 H 0.76057 0.15418 0.03417 0.0
H5448 H 0.71196 0.11106 0.0636 0.0
H5449 H 0.70916 0.08617 0.08085 0.0
H5450 H 0.75546 0.07134 0.06373 0.0
H5451 H 0.75826 0.09579 0.04589 0.0
C5452 C 0.68867 0.15896 1.00665 0.0
C5453 C 0.68387 0.14957 0.99261 0.0
C5454 C 0.70181 0.15461 0.01603 0.0
C5455 C 0.71045 0.14073 0.01168 0.0
C5456 C 0.70551 0.13106 0.99793 0.0
C5457 C 0.69242 0.1355 0.98839 0.0
C5458 C 0.7249 0.13686 0.02133 0.0
C5459 C 0.72459 0.12283 0.03139 0.0
C5460 C 0.73833 0.14794 0.02191 0.0
C5461 C 0.73947 0.16265 0.01111 0.0
C5462 C 0.73853 0.16099 0.99359 0.0
C5463 C 0.73903 0.1749 0.98348 0.0
C5464 C 0.74051 0.19053 0.99073 0.0
C5465 C 0.74157 0.19228 0.00811 0.0
C5466 C 0.7411 0.17841 0.01829 0.0
C5467 C 0.78735 0.12621 0.06986 0.0
C5468 C 0.78401 0.13629 0.08378 0.0
C5469 C 0.77617 0.12424 0.05692 0.0
C5470 C 0.76131 0.13181 0.05808 0.0
C5471 C 0.75783 0.14133 0.07228 0.0
C5472 C 0.76908 0.14367 0.08487 0.0
C5473 C 0.74996 0.13169 0.04394 0.0
C5474 C 0.75063 0.14527 0.03324 0.0
C5475 C 0.73692 0.12011 0.04276 0.0
C5476 C 0.73549 0.1055 0.05368 0.0
C5477 C 0.72154 0.10248 0.06349 0.0
C5478 C 0.71989 0.08838 0.07327 0.0
C5479 C 0.73215 0.07721 0.07343 0.0
C5480 C 0.74602 0.08006 0.06368 0.0
C5481 C 0.74766 0.09407 0.05375 0.0
H5482 H 0.73091 0.06637 0.08112 0.0
H5483 H 0.74085 0.20128 0.98289 0.0
H5484 H 0.66281 0.13516 0.28768 0.0
H5485 H 0.68906 0.14161 0.27473 0.0
H5486 H 0.6981 0.08996 0.27117 0.0
H5487 H 0.67231 0.08358 0.28503 0.0
H5488 H 0.72451 0.10383 0.27782 0.0
H5489 H 0.6857 0.11625 0.23654 0.0
H5490 H 0.66221 0.12952 0.22524 0.0
H5491 H 0.68497 0.17695 0.2334 0.0
H5492 H 0.70851 0.16397 0.24498 0.0
H5493 H 0.78729 0.11336 0.21435 0.0
H5494 H 0.76299 0.1061 0.23091 0.0
H5495 H 0.75631 0.15729 0.24164 0.0
H5496 H 0.78033 0.16458 0.22514 0.0
H5497 H 0.729 0.14325 0.23096 0.0
H5498 H 0.76717 0.13015 0.27363 0.0
H5499 H 0.7911 0.1164 0.28329 0.0
H5500 H 0.76973 0.06957 0.26964 0.0
H5501 H 0.74559 0.08303 0.26011 0.0
C5502 C 0.6704 0.12517 0.28415 0.0
C5503 C 0.6653 0.10883 0.28731 0.0
C5504 C 0.68545 0.12886 0.27659 0.0
C5505 C 0.69565 0.1163 0.27142 0.0
C5506 C 0.69063 0.09998 0.27488 0.0
C5507 C 0.67576 0.09632 0.28279 0.0
C5508 C 0.71142 0.12007 0.26239 0.0
C5509 C 0.72533 0.11232 0.26745 0.0
C5510 C 0.71291 0.1313 0.24889 0.0
C5511 C 0.6988 0.13913 0.2418 0.0
C5512 C 0.68566 0.12951 0.23603 0.0
C5513 C 0.67233 0.13698 0.22957 0.0
C5514 C 0.67208 0.15407 0.22866 0.0
C5515 C 0.68517 0.16371 0.23415 0.0
C5516 C 0.69851 0.15631 0.24066 0.0
C5517 C 0.78088 0.12304 0.22059 0.0
C5518 C 0.78587 0.13957 0.21834 0.0
C5519 C 0.7669 0.11888 0.23004 0.0
C5520 C 0.75763 0.13114 0.23758 0.0
C5521 C 0.76304 0.14756 0.23591 0.0
C5522 C 0.77692 0.15171 0.2265 0.0
C5523 C 0.74194 0.12711 0.24649 0.0
C5524 C 0.72807 0.13479 0.24136 0.0
C5525 C 0.74046 0.11573 0.25976 0.0
C5526 C 0.75463 0.10758 0.26612 0.0
C5527 C 0.76757 0.11692 0.27275 0.0
C5528 C 0.78116 0.10918 0.27822 0.0
C5529 C 0.78193 0.09213 0.27707 0.0
C5530 C 0.7691 0.08277 0.27053 0.0
C5531 C 0.75542 0.09043 0.26521 0.0
H5532 H 0.79247 0.08616 0.28126 0.0
H5533 H 0.66174 0.15983 0.22367 0.0
H5534 H 0.36953 0.41986 0.53208 0.0
H5535 H 0.36676 0.44367 0.51363 0.0
H5536 H 0.41714 0.45594 0.51852 0.0
H5537 H 0.41981 0.43299 0.53704 0.0
H5538 H 0.40355 0.48255 0.52007 0.0
H5539 H 0.39744 0.43666 0.48177 0.0
H5540 H 0.38478 0.41114 0.47056 0.0
H5541 H 0.3405 0.4354 0.46487 0.0
H5542 H 0.35284 0.46101 0.47629 0.0
H5543 H 0.41982 0.53736 0.45229 0.0
H5544 H 0.41795 0.51481 0.472 0.0
H5545 H 0.36752 0.50805 0.46245 0.0
H5546 H 0.36954 0.53024 0.44184 0.0
H5547 H 0.3784 0.47943 0.46439 0.0
H5548 H 0.3831 0.52052 0.513 0.0
H5549 H 0.39542 0.54405 0.52844 0.0
H5550 H 0.4423 0.52836 0.51441 0.0
H5551 H 0.43023 0.50419 0.49983 0.0
C5552 C 0.37998 0.4277 0.52929 0.0
C5553 C 0.3949 0.42424 0.53624 0.0
C5554 C 0.37844 0.44132 0.51854 0.0
C5555 C 0.39179 0.45183 0.51428 0.0
C5556 C 0.40654 0.44835 0.52141 0.0
C5557 C 0.40805 0.43497 0.53211 0.0
C5558 C 0.39081 0.46661 0.50281 0.0
C5559 C 0.39814 0.48166 0.50783 0.0
C5560 C 0.38343 0.46607 0.48688 0.0
C5561 C 0.376 0.45068 0.48009 0.0
C5562 C 0.38496 0.43651 0.47827 0.0
C5563 C 0.37785 0.42203 0.47186 0.0
C5564 C 0.36183 0.42163 0.46707 0.0
C5565 C 0.3529 0.43571 0.46864 0.0
C5566 C 0.35994 0.45021 0.47508 0.0
C5567 C 0.40822 0.53129 0.45445 0.0
C5568 C 0.39482 0.53595 0.44534 0.0
C5569 C 0.4071 0.51836 0.46609 0.0
C5570 C 0.39246 0.5097 0.46948 0.0
C5571 C 0.37901 0.51439 0.46042 0.0
C5572 C 0.38016 0.52723 0.44857 0.0
C5573 C 0.39146 0.49525 0.48155 0.0
C5574 C 0.38373 0.48029 0.47666 0.0
C5575 C 0.39854 0.49575 0.49762 0.0
C5576 C 0.40579 0.51094 0.50487 0.0
C5577 C 0.39602 0.52225 0.51303 0.0
C5578 C 0.40296 0.53556 0.52181 0.0
C5579 C 0.41961 0.53789 0.52211 0.0
C5580 C 0.42939 0.52667 0.514 0.0
C5581 C 0.42253 0.51307 0.50564 0.0
H5582 H 0.42493 0.54829 0.52878 0.0
H5583 H 0.35635 0.41041 0.46209 0.0
H5584 H 0.33732 0.73837 0.90334 0.0
H5585 H 0.31439 0.75568 0.90157 0.0
H5586 H 0.32598 0.7651 0.84967 0.0
H5587 H 0.3493 0.74736 0.85141 0.0
H5588 H 0.31892 0.79385 0.86657 0.0
H5589 H 0.29253 0.74159 0.86098 0.0
H5590 H 0.28524 0.71288 0.86755 0.0
H5591 H 0.267 0.72747 0.91583 0.0
H5592 H 0.27439 0.75638 0.90961 0.0
H5593 H 0.24791 0.83977 0.85951 0.0
H5594 H 0.26863 0.81962 0.8556 0.0
H5595 H 0.25849 0.80117 0.90521 0.0
H5596 H 0.23744 0.82103 0.909 0.0
H5597 H 0.26447 0.77624 0.88666 0.0
H5598 H 0.29288 0.82817 0.89325 0.0
H5599 H 0.30034 0.857 0.88679 0.0
H5600 H 0.31502 0.84292 0.83705 0.0
H5601 H 0.30745 0.81403 0.84314 0.0
C5602 C 0.33493 0.74383 0.89137 0.0
C5603 C 0.34528 0.7412 0.87748 0.0
C5604 C 0.32166 0.75383 0.89039 0.0
C5605 C 0.31811 0.76183 0.87548 0.0
C5606 C 0.32827 0.75913 0.86139 0.0
C5607 C 0.34158 0.74881 0.86232 0.0
C5608 C 0.30418 0.77334 0.87515 0.0
C5609 C 0.30695 0.78986 0.87064 0.0
C5610 C 0.28848 0.76853 0.88092 0.0
C5611 C 0.28415 0.75116 0.88486 0.0
C5612 C 0.28711 0.73868 0.87307 0.0
C5613 C 0.28293 0.72235 0.87673 0.0
C5614 C 0.27567 0.7183 0.89212 0.0
C5615 C 0.27262 0.73061 0.90391 0.0
C5616 C 0.27679 0.74699 0.90031 0.0
C5617 C 0.24996 0.83138 0.8696 0.0
C5618 C 0.24081 0.83226 0.88463 0.0
C5619 C 0.26204 0.81984 0.8674 0.0
C5620 C 0.26568 0.80884 0.88021 0.0
C5621 C 0.25622 0.8094 0.89504 0.0
C5622 C 0.24407 0.82087 0.89722 0.0
C5623 C 0.27922 0.79688 0.87827 0.0
C5624 C 0.2764 0.78025 0.88246 0.0
C5625 C 0.29489 0.80162 0.87228 0.0
C5626 C 0.29942 0.81897 0.86859 0.0
C5627 C 0.29758 0.83125 0.88089 0.0
C5628 C 0.30185 0.84759 0.8773 0.0
C5629 C 0.3081 0.8518 0.8615 0.0
C5630 C 0.31014 0.83965 0.84927 0.0
C5631 C 0.30587 0.82329 0.85278 0.0
H5632 H 0.3114 0.86446 0.85875 0.0
H5633 H 0.27236 0.70566 0.89488 0.0
H5634 H 0.73715 0.9834 0.11136 0.0
H5635 H 0.75421 1.00734 0.11961 0.0
H5636 H 0.71187 0.03409 0.13191 0.0
H5637 H 0.69504 1.0105 0.12309 0.0
H5638 H 0.73069 0.05293 0.11497 0.0
H5639 H 0.73818 0.01757 0.16159 0.0
H5640 H 0.74566 0.99277 0.17651 0.0
H5641 H 0.79408 0.99912 0.15798 0.0
H5642 H 0.78681 0.02376 0.14265 0.0
H5643 H 0.76662 0.11972 0.16089 0.0
H5644 H 0.75137 0.09464 0.1531 0.0
H5645 H 0.79449 0.07379 0.1333 0.0
H5646 H 0.80987 0.09871 0.14114 0.0
H5647 H 0.77638 0.05196 0.15363 0.0
H5648 H 0.76792 0.08514 0.10504 0.0
H5649 H 0.76102 0.11051 0.09108 0.0
H5650 H 0.71487 0.10895 0.11569 0.0
H5651 H 0.7214 0.08316 0.12956 0.0
C5652 C 0.73161 0.99438 0.11599 0.0
C5653 C 0.71486 0.99521 0.11664 0.0
C5654 C 0.74132 1.00804 0.12077 0.0
C5655 C 0.73438 0.02261 0.12652 0.0
C5656 C 0.71759 0.02313 0.12746 0.0
C5657 C 0.70796 1.00963 0.1225 0.0
C5658 C 0.74438 0.03763 0.13084 0.0
C5659 C 0.74053 0.05262 0.12363 0.0
C5660 C 0.75757 0.03741 0.14179 0.0
C5661 C 0.76187 0.02238 0.15073 0.0
C5662 C 0.75037 0.01356 0.1605 0.0
C5663 C 0.75458 0.99954 0.16907 0.0
C5664 C 0.77032 0.99432 0.16813 0.0
C5665 C 0.78188 1.00312 0.15864 0.0
C5666 C 0.77771 0.0171 0.14999 0.0
C5667 C 0.77288 0.10983 0.15483 0.0
C5668 C 0.7895 0.1113 0.15164 0.0
C5669 C 0.76413 0.0955 0.15036 0.0
C5670 C 0.77178 0.0823 0.14261 0.0
C5671 C 0.78835 0.08373 0.13938 0.0
C5672 C 0.7971 0.09807 0.14378 0.0
C5673 C 0.76251 0.06699 0.13795 0.0
C5674 C 0.76653 0.05206 0.14502 0.0
C5675 C 0.74942 0.0672 0.12702 0.0
C5676 C 0.74522 0.08239 0.11846 0.0
C5677 C 0.75634 0.09026 0.10755 0.0
C5678 C 0.75251 0.10475 0.09968 0.0
C5679 C 0.73764 0.11159 0.10273 0.0
C5680 C 0.72644 0.10374 0.11345 0.0
C5681 C 0.73015 0.08911 0.12122 0.0
H5682 H 0.7347 0.12283 0.09659 0.0
H5683 H 0.77356 0.98349 0.1748 0.0
H5684 H 0.80539 0.68111 0.67169 0.0
H5685 H 0.79428 0.70595 0.68334 0.0
H5686 H 0.79101 0.72552 0.63356 0.0
H5687 H 0.80271 0.70075 0.62176 0.0
H5688 H 0.79971 0.74911 0.6568 0.0
H5689 H 0.75927 0.70303 0.65295 0.0
H5690 H 0.74968 0.67509 0.66077 0.0
H5691 H 0.75108 0.68866 0.71284 0.0
H5692 H 0.76084 0.71664 0.7053 0.0
H5693 H 0.73378 0.7865 0.63418 0.0
H5694 H 0.75593 0.77023 0.64172 0.0
H5695 H 0.7395 0.76991 0.69329 0.0
H5696 H 0.71663 0.78638 0.68563 0.0
H5697 H 0.74539 0.73953 0.68192 0.0
H5698 H 0.77656 0.78847 0.68407 0.0
H5699 H 0.78657 0.81624 0.67631 0.0
H5700 H 0.80328 0.798 0.62879 0.0
H5701 H 0.79333 0.77012 0.63615 0.0
C5702 C 0.80248 0.69076 0.66319 0.0
C5703 C 0.80465 0.6889 0.64575 0.0
C5704 C 0.79617 0.70496 0.66992 0.0
C5705 C 0.79157 0.71739 0.6593 0.0
C5706 C 0.79448 0.71598 0.64195 0.0
C5707 C 0.80103 0.70182 0.6352 0.0
C5708 C 0.7823 0.73112 0.66591 0.0
C5709 C 0.78788 0.74713 0.66242 0.0
C5710 C 0.76727 0.72847 0.67414 0.0
C5711 C 0.76091 0.71184 0.67858 0.0
C5712 C 0.75756 0.70003 0.66606 0.0
C5713 C 0.75211 0.68419 0.67045 0.0
C5714 C 0.74983 0.68009 0.6873 0.0
C5715 C 0.75289 0.69185 0.6998 0.0
C5716 C 0.75836 0.70769 0.69548 0.0
C5717 C 0.73482 0.78315 0.6472 0.0
C5718 C 0.72331 0.78757 0.6593 0.0
C5719 C 0.74772 0.77402 0.65155 0.0
C5720 C 0.74961 0.76915 0.66814 0.0
C5721 C 0.73835 0.77376 0.68044 0.0
C5722 C 0.7253 0.78308 0.67606 0.0
C5723 C 0.76228 0.75753 0.67157 0.0
C5724 C 0.75747 0.74179 0.67703 0.0
C5725 C 0.77808 0.76045 0.66527 0.0
C5726 C 0.78417 0.77718 0.6607 0.0
C5727 C 0.7823 0.79037 0.67193 0.0
C5728 C 0.78797 0.80613 0.66761 0.0
C5729 C 0.79546 0.80883 0.65206 0.0
C5730 C 0.79744 0.79583 0.64083 0.0
C5731 C 0.79185 0.78004 0.6451 0.0
H5732 H 0.7997 0.821 0.64871 0.0
H5733 H 0.74566 0.66781 0.69068 0.0
H5734 H 0.30484 0.03672 0.92732 0.0
H5735 H 0.28342 0.01559 0.9251 0.0
H5736 H 0.29491 1.0093 0.87262 0.0
H5737 H 0.31635 0.03052 0.87472 0.0
H5738 H 0.25619 1.00647 0.90387 0.0
H5739 H 0.30291 0.96882 0.86891 0.0
H5740 H 0.3323 0.96859 0.86501 0.0
H5741 H 0.33858 0.98981 0.91398 0.0
H5742 H 0.30926 0.98989 0.91828 0.0
H5743 H 0.22538 0.93814 0.86114 0.0
H5744 H 0.23816 0.96279 0.87239 0.0
H5745 H 0.26245 0.93415 0.90856 0.0
H5746 H 0.24985 0.90888 0.89681 0.0
H5747 H 0.28283 0.95411 0.89205 0.0
H5748 H 0.23295 0.96121 0.92051 0.0
H5749 H 0.20351 0.96156 0.92312 0.0
H5750 H 0.20288 1.00101 0.88797 0.0
H5751 H 0.23229 1.00071 0.88489 0.0
C5752 C 0.30241 0.03124 0.91517 0.0
C5753 C 0.31241 0.03495 0.90126 0.0
C5754 C 0.29014 0.01924 0.91393 0.0
C5755 C 0.28788 1.01073 0.8988 0.0
C5756 C 0.29665 0.01571 0.88443 0.0
C5757 C 0.30883 0.02785 0.88563 0.0
C5758 C 0.27854 0.99503 0.89874 0.0
C5759 C 0.26191 0.99497 0.90132 0.0
C5760 C 0.28624 0.98007 0.89602 0.0
C5761 C 0.3039 0.97947 0.89385 0.0
C5762 C 0.31057 0.97332 0.87889 0.0
C5763 C 0.32721 0.97323 0.8766 0.0
C5764 C 0.33729 0.9792 0.88923 0.0
C5765 C 0.33076 0.98521 0.9042 0.0
C5766 C 0.31413 0.98528 0.90657 0.0
C5767 C 0.23335 0.93697 0.87158 0.0
C5768 C 0.23687 0.92151 0.87789 0.0
C5769 C 0.24048 0.95118 0.87817 0.0
C5770 C 0.2511 0.95037 0.89146 0.0
C5771 C 0.25419 0.93502 0.89834 0.0
C5772 C 0.24702 0.92063 0.89166 0.0
C5773 C 0.26023 0.96545 0.89654 0.0
C5774 C 0.27698 0.96547 0.89492 0.0
C5775 C 0.25258 0.98032 0.90022 0.0
C5776 C 0.23488 0.9809 0.90244 0.0
C5777 C 0.22655 0.96993 0.91328 0.0
C5778 C 0.20985 0.97011 0.91483 0.0
C5779 C 0.20133 0.98128 0.9057 0.0
C5780 C 0.2095 0.99236 0.89505 0.0
C5781 C 0.22619 0.99221 0.89342 0.0
H5782 H 0.1884 0.98137 0.90687 0.0
H5783 H 0.35016 0.97913 0.88741 0.0
H5784 H 0.42198 0.93118 0.03424 0.0
H5785 H 0.41984 0.9537 0.01496 0.0
H5786 H 0.36895 0.94363 0.01177 0.0
H5787 H 0.37118 0.92016 0.03079 0.0
H5788 H 0.38032 0.95241 0.98148 0.0
H5789 H 0.38685 0.97678 0.03604 0.0
H5790 H 0.40001 0.98049 0.06309 0.0
H5791 H 0.44358 0.99708 0.03813 0.0
H5792 H 0.43072 0.99303 0.01076 0.0
H5793 H 0.37144 0.02941 0.9395 0.0
H5794 H 0.36923 1.00638 0.95903 0.0
H5795 H 0.41956 1.01268 0.9695 0.0
H5796 H 0.4217 0.03591 0.95051 0.0
H5797 H 0.40577 1.0062 0.99703 0.0
H5798 H 0.40135 0.98018 0.94308 0.0
H5799 H 0.39007 0.97451 0.91519 0.0
H5800 H 0.34456 0.96087 0.9379 0.0
H5801 H 0.35553 0.96662 0.96595 0.0
C5802 C 0.41023 0.9336 0.02954 0.0
C5803 C 0.39672 0.92367 0.03437 0.0
C5804 C 0.40901 0.94674 0.01846 0.0
C5805 C 0.39416 0.95094 0.012 0.0
C5806 C 0.3806 0.94091 0.01654 0.0
C5807 C 0.38186 0.92747 0.02754 0.0
C5808 C 0.39306 0.96581 1.00075 0.0
C5809 C 0.38565 0.96423 0.98506 0.0
C5810 C 0.4003 0.98135 1.00493 0.0
C5811 C 0.40786 0.98444 0.02136 0.0
C5812 C 0.39925 0.98117 0.03631 0.0
C5813 C 0.40669 0.98333 0.05173 0.0
C5814 C 0.42269 0.98897 0.05238 0.0
C5815 C 0.43121 0.99265 0.0376 0.0
C5816 C 0.42385 0.99042 0.02213 0.0
C5817 C 0.38204 0.02601 0.94606 0.0
C5818 C 0.39675 0.03477 0.94332 0.0
C5819 C 0.38079 1.01261 0.95718 0.0
C5820 C 0.39427 1.00733 0.96577 0.0
C5821 C 0.40888 0.01627 0.9632 0.0
C5822 C 0.4101 0.02969 0.95223 0.0
C5823 C 0.39333 0.99278 0.97757 0.0
C5824 C 0.40033 0.99443 0.99343 0.0
C5825 C 0.3859 0.9773 0.97341 0.0
C5826 C 0.37922 0.97399 0.95659 0.0
C5827 C 0.3889 0.9761 0.94212 0.0
C5828 C 0.38257 0.97284 0.92629 0.0
C5829 C 0.36661 0.96733 0.92479 0.0
C5830 C 0.35692 0.96512 0.9391 0.0
C5831 C 0.36319 0.96837 0.95496 0.0
H5832 H 0.36177 0.96471 0.91254 0.0
H5833 H 0.42853 0.9905 0.06429 0.0
H5834 H 0.69729 0.64522 0.47252 0.0
H5835 H 0.71986 0.6388 0.49011 0.0
H5836 H 0.69715 0.66274 0.53218 0.0
H5837 H 0.67491 0.6697 0.51454 0.0
H5838 H 0.72691 0.67198 0.53095 0.0
H5839 H 0.69904 0.61883 0.5263 0.0
H5840 H 0.6875 0.59507 0.51071 0.0
H5841 H 0.7337 0.58593 0.4889 0.0
H5842 H 0.74548 0.60977 0.50417 0.0
H5843 H 0.76696 0.64685 0.59989 0.0
H5844 H 0.7461 0.64605 0.57886 0.0
H5845 H 0.78026 0.63016 0.54154 0.0
H5846 H 0.80132 0.63075 0.5629 0.0
H5847 H 0.74735 0.61616 0.53772 0.0
H5848 H 0.77537 0.66822 0.54322 0.0
H5849 H 0.78716 0.69185 0.55877 0.0
H5850 H 0.74064 0.70308 0.57852 0.0
H5851 H 0.72862 0.6793 0.56335 0.0
C5852 C 0.69707 0.64905 0.48555 0.0
C5853 C 0.68426 0.65801 0.4921 0.0
C5854 C 0.70997 0.64528 0.49564 0.0
C5855 C 0.71021 0.65008 0.5126 0.0
C5856 C 0.69734 0.65889 0.51916 0.0
C5857 C 0.68457 0.66286 0.50904 0.0
C5858 C 0.72403 0.64659 0.5235 0.0
C5859 C 0.7312 0.65971 0.53251 0.0
C5860 C 0.73017 0.6307 0.52516 0.0
C5861 C 0.7231 0.61621 0.51622 0.0
C5862 C 0.70671 0.61183 0.51807 0.0
C5863 C 0.70012 0.59837 0.50927 0.0
C5864 C 0.70984 0.58911 0.49869 0.0
C5865 C 0.72618 0.5932 0.49699 0.0
C5866 C 0.73282 0.60667 0.50574 0.0
C5867 C 0.76989 0.64264 0.58733 0.0
C5868 C 0.78567 0.63875 0.583 0.0
C5869 C 0.75799 0.64226 0.5753 0.0
C5870 C 0.76165 0.63828 0.55856 0.0
C5871 C 0.77716 0.63323 0.55439 0.0
C5872 C 0.78916 0.63349 0.56658 0.0
C5873 C 0.74972 0.64146 0.54544 0.0
C5874 C 0.74302 0.62838 0.53602 0.0
C5875 C 0.74396 0.6574 0.54332 0.0
C5876 C 0.75112 0.67189 0.55225 0.0
C5877 C 0.76767 0.67565 0.55098 0.0
C5878 C 0.7744 0.68908 0.55972 0.0
C5879 C 0.76466 0.69894 0.56966 0.0
C5880 C 0.74817 0.69542 0.57084 0.0
C5881 C 0.7414 0.68197 0.56216 0.0
H5882 H 0.76989 0.70933 0.57642 0.0
H5883 H 0.70479 0.57862 0.49198 0.0
H5884 H 0.30963 0.85301 0.07263 0.0
H5885 H 0.28669 0.85159 0.05402 0.0
H5886 H 0.2889 0.90434 0.05019 0.0
H5887 H 0.31179 0.9057 0.06875 0.0
H5888 H 0.25929 0.89267 0.04402 0.0
H5889 H 0.31236 0.88276 0.02713 0.0
H5890 H 0.33878 0.87039 0.02522 0.0
H5891 H 0.31672 0.82511 0.008 0.0
H5892 H 0.29006 0.83678 0.01091 0.0
H5893 H 0.23807 0.8971 0.95658 0.0
H5894 H 0.25042 0.9002 0.98408 0.0
H5895 H 0.24896 0.84759 0.98946 0.0
H5896 H 0.23717 0.84442 0.96188 0.0
H5897 H 0.2781 0.86045 0.99498 0.0
H5898 H 0.22351 0.87419 0.02095 0.0
H5899 H 0.19972 0.89101 0.02267 0.0
H5900 H 0.22943 0.93484 0.01693 0.0
H5901 H 0.25352 0.9182 0.016 0.0
C5902 C 0.30446 0.86434 0.06879 0.0
C5903 C 0.31247 0.87945 0.0719 0.0
C5904 C 0.29155 0.86351 0.0579 0.0
C5905 C 0.28656 0.87782 0.05024 0.0
C5906 C 0.29272 0.89313 0.05579 0.0
C5907 C 0.30567 0.89393 0.06658 0.0
C5908 C 0.27742 0.87679 0.03453 0.0
C5909 C 0.26339 0.88554 0.03334 0.0
C5910 C 0.28308 0.86801 0.02033 0.0
C5911 C 0.29909 0.86056 0.01967 0.0
C5912 C 0.31305 0.87 0.02346 0.0
C5913 C 0.3281 0.86308 0.02223 0.0
C5914 C 0.32941 0.84685 0.01685 0.0
C5915 C 0.31567 0.83752 0.01263 0.0
C5916 C 0.30057 0.84425 0.01416 0.0
C5917 C 0.24024 0.88622 0.96373 0.0
C5918 C 0.23686 0.87051 0.95697 0.0
C5919 C 0.24714 0.88801 0.97954 0.0
C5920 C 0.25048 0.87412 0.98896 0.0
C5921 C 0.24652 0.85848 0.98244 0.0
C5922 C 0.23983 0.85669 0.96662 0.0
C5923 C 0.25953 0.87557 1.00479 0.0
C5924 C 0.27381 0.86717 1.00586 0.0
C5925 C 0.25455 0.88521 0.01858 0.0
C5926 C 0.24016 0.89501 0.01816 0.0
C5927 C 0.22491 0.88741 0.01992 0.0
C5928 C 0.21139 0.89693 0.02086 0.0
C5929 C 0.213 0.91402 0.01965 0.0
C5930 C 0.22818 0.92162 0.01776 0.0
C5931 C 0.24177 0.91217 0.01719 0.0
H5932 H 0.20256 0.92143 0.02032 0.0
H5933 H 0.34108 0.84156 0.01575 0.0
H5934 H 0.64136 0.57964 0.50857 0.0
H5935 H 0.64493 0.55178 0.51797 0.0
H5936 H 0.68358 0.54639 0.482 0.0
H5937 H 0.67993 0.57451 0.47229 0.0
H5938 H 0.64187 0.52295 0.49828 0.0
H5939 H 0.70893 0.52071 0.50207 0.0
H5940 H 0.73318 0.5386 0.50584 0.0
H5941 H 0.70617 0.57157 0.53646 0.0
H5942 H 0.68178 0.55392 0.53275 0.0
H5943 H 0.64439 0.45248 0.55015 0.0
H5944 H 0.65197 0.46869 0.5253 0.0
H5945 H 0.67035 0.50773 0.55745 0.0
H5946 H 0.66401 0.49116 0.58187 0.0
H5947 H 0.68823 0.50742 0.53178 0.0
H5948 H 0.62795 0.50289 0.53961 0.0
H5949 H 0.60281 0.48586 0.53943 0.0
H5950 H 0.61423 0.46864 0.48979 0.0
H5951 H 0.63944 0.48551 0.48975 0.0
C5952 C 0.65076 0.57264 0.50277 0.0
C5953 C 0.66043 0.57925 0.48976 0.0
C5954 C 0.65268 0.55667 0.50804 0.0
C5955 C 0.66432 0.54699 0.50047 0.0
C5956 C 0.67447 0.5537 0.4879 0.0
C5957 C 0.6725 0.56977 0.48253 0.0
C5958 C 0.66568 0.53001 0.5063 0.0
C5959 C 0.65212 0.51935 0.50536 0.0
C5960 C 0.67915 0.5252 0.51514 0.0
C5961 C 0.69357 0.53612 0.51699 0.0
C5962 C 0.70819 0.53182 0.50954 0.0
C5963 C 0.72194 0.54191 0.51167 0.0
C5964 C 0.72121 0.55621 0.52138 0.0
C5965 C 0.70671 0.5605 0.52893 0.0
C5966 C 0.69291 0.55052 0.52674 0.0
C5967 C 0.65022 0.46446 0.55177 0.0
C5968 C 0.65348 0.47071 0.56786 0.0
C5969 C 0.65454 0.47372 0.5376 0.0
C5970 C 0.66153 0.48959 0.53943 0.0
C5971 C 0.66512 0.49551 0.55558 0.0
C5972 C 0.66133 0.4861 0.56959 0.0
C5973 C 0.66381 0.50103 0.52517 0.0
C5974 C 0.6782 0.51055 0.52414 0.0
C5975 C 0.65093 0.505 0.51484 0.0
C5976 C 0.63558 0.49531 0.51474 0.0
C5977 C 0.62505 0.49548 0.52867 0.0
C5978 C 0.61082 0.48586 0.52861 0.0
C5979 C 0.60695 0.47616 0.51461 0.0
C5980 C 0.61725 0.47614 0.50062 0.0
C5981 C 0.6315 0.48573 0.50063 0.0
H5982 H 0.59598 0.46865 0.51461 0.0
H5983 H 0.73186 0.56399 0.52305 0.0
H5984 H 0.69892 0.25724 0.15525 0.0
H5985 H 0.71908 0.23759 0.16104 0.0
H5986 H 0.74349 0.27309 0.19305 0.0
H5987 H 0.72315 0.29315 0.18683 0.0
H5988 H 0.76334 0.26226 0.17063 0.0
H5989 H 0.72872 0.23573 0.209 0.0
H5990 H 0.70374 0.2239 0.22153 0.0
H5991 H 0.70069 0.18803 0.18191 0.0
H5992 H 0.72549 0.19979 0.16895 0.0
H5993 H 0.8153 0.18917 0.1686 0.0
H5994 H 0.79759 0.20898 0.18193 0.0
H5995 H 0.7676 0.20672 0.13848 0.0
H5996 H 0.78547 0.18706 0.125 0.0
H5997 H 0.75414 0.20218 0.17631 0.0
H5998 H 0.79841 0.22785 0.14258 0.0
H5999 H 0.82954 0.23515 0.14043 0.0
H6000 H 0.81511 0.28287 0.18921 0.0
H6001 H 0.78638 0.26729 0.18649 0.0
C6002 C 0.70827 0.26065 0.16401 0.0
C6003 C 0.70958 0.27659 0.17063 0.0
C6004 C 0.71976 0.24938 0.1674 0.0
C6005 C 0.73278 0.2538 0.17758 0.0
C6006 C 0.73349 0.26942 0.18522 0.0
C6007 C 0.72185 0.28079 0.18182 0.0
C6008 C 0.7465 0.24286 0.17786 0.0
C6009 C 0.76161 0.24916 0.17247 0.0
C6010 C 0.74412 0.22582 0.18038 0.0
C6011 C 0.72903 0.2187 0.18798 0.0
C6012 C 0.72268 0.2254 0.20288 0.0
C6013 C 0.70854 0.21868 0.21007 0.0
C6014 C 0.70063 0.20522 0.20253 0.0
C6015 C 0.70684 0.19844 0.18776 0.0
C6016 C 0.72097 0.20512 0.1805 0.0
C6017 C 0.80514 0.19328 0.16175 0.0
C6018 C 0.80197 0.18709 0.14556 0.0
C6019 C 0.79495 0.20434 0.16949 0.0
C6020 C 0.78145 0.20937 0.1611 0.0
C6021 C 0.7781 0.20302 0.14503 0.0
C6022 C 0.78845 0.19213 0.13719 0.0
C6023 C 0.77083 0.22153 0.16866 0.0
C6024 C 0.75618 0.21536 0.17528 0.0
C6025 C 0.77418 0.2388 0.16836 0.0
C6026 C 0.79058 0.24647 0.16523 0.0
C6027 C 0.80297 0.23681 0.15139 0.0
C6028 C 0.82273 0.24211 0.14942 0.0
C6029 C 0.83035 0.26687 0.16909 0.0
C6030 C 0.81388 0.27278 0.18038 0.0
C6031 C 0.79565 0.26293 0.17814 0.0
H6032 H 0.84165 0.27378 0.17108 0.0
H6033 H 0.6897 0.20003 0.20812 0.0
H6034 H 0.24286 0.31992 0.40678 0.0
H6035 H 0.26477 0.3011 0.4024 0.0
H6036 H 0.27471 0.32187 0.35376 0.0
H6037 H 0.25285 0.34073 0.35804 0.0
H6038 H 0.27218 0.27686 0.38004 0.0
H6039 H 0.31562 0.32198 0.34587 0.0
H6040 H 0.32092 0.35181 0.34319 0.0
H6041 H 0.30098 0.35958 0.39246 0.0
H6042 H 0.29578 0.32978 0.39552 0.0
H6043 H 0.34239 0.2317 0.35671 0.0
H6044 H 0.3189 0.24891 0.35511 0.0
H6045 H 0.34102 0.28373 0.38935 0.0
H6046 H 0.36448 0.26721 0.39038 0.0
H6047 H 0.32676 0.30055 0.36846 0.0
H6048 H 0.30909 0.25119 0.39944 0.0
H6049 H 0.30434 0.22121 0.40144 0.0
H6050 H 0.27291 0.22191 0.35951 0.0
H6051 H 0.27765 0.25183 0.35713 0.0
C6052 C 0.24954 0.32041 0.39503 0.0
C6053 C 0.24588 0.33201 0.3828 0.0
C6054 C 0.26215 0.30955 0.39253 0.0
C6055 C 0.27173 0.31001 0.3778 0.0
C6056 C 0.2678 0.32125 0.36535 0.0
C6057 C 0.25512 0.33204 0.3678 0.0
C6058 C 0.28609 0.29924 0.37581 0.0
C6059 C 0.28409 0.2821 0.37748 0.0
C6060 C 0.30181 0.30577 0.37238 0.0
C6061 C 0.30514 0.32368 0.37083 0.0
C6062 C 0.31242 0.33006 0.35615 0.0
C6063 C 0.31541 0.34696 0.35457 0.0
C6064 C 0.31123 0.35759 0.36762 0.0
C6065 C 0.30415 0.35134 0.38233 0.0
C6066 C 0.30117 0.33445 0.38399 0.0
C6067 C 0.34235 0.24314 0.36371 0.0
C6068 C 0.35556 0.24787 0.37368 0.0
C6069 C 0.32874 0.25297 0.36296 0.0
C6070 C 0.32775 0.2677 0.3724 0.0
C6071 C 0.34116 0.27257 0.38191 0.0
C6072 C 0.35473 0.26294 0.38251 0.0
C6073 C 0.31296 0.27808 0.37284 0.0
C6074 C 0.31486 0.29523 0.37091 0.0
C6075 C 0.29717 0.27153 0.37602 0.0
C6076 C 0.29385 0.25369 0.378 0.0
C6077 C 0.30118 0.24493 0.39065 0.0
C6078 C 0.29851 0.22795 0.39183 0.0
C6079 C 0.28841 0.21966 0.38053 0.0
C6080 C 0.28078 0.22834 0.3682 0.0
C6081 C 0.28345 0.2453 0.36693 0.0
H6082 H 0.28647 0.20652 0.38127 0.0
H6083 H 0.31352 0.37067 0.36636 0.0
H6084 H 0.24473 0.35813 0.28663 0.0
H6085 H 0.25274 0.36836 0.25902 0.0
H6086 H 0.23363 0.4154 0.27149 0.0
H6087 H 0.22672 0.40568 0.29957 0.0
H6088 H 0.24044 0.38234 0.23145 0.0
H6089 H 0.26082 0.44456 0.25763 0.0
H6090 H 0.26666 0.45827 0.28467 0.0
H6091 H 0.28108 0.41267 0.30489 0.0
H6092 H 0.27565 0.3988 0.27786 0.0
H6093 H 0.31822 0.4322 0.19806 0.0
H6094 H 0.2895 0.43186 0.20486 0.0
H6095 H 0.29048 0.38016 0.21554 0.0
H6096 H 0.31908 0.38054 0.2091 0.0
H6097 H 0.28391 0.42491 0.23755 0.0
H6098 H 0.25387 0.3622 0.21431 0.0
H6099 H 0.25003 0.34745 0.18755 0.0
H6100 H 0.25781 0.39246 0.16068 0.0
H6101 H 0.2614 0.4076 0.18728 0.0
C6102 C 0.24206 0.37059 0.28345 0.0
C6103 C 0.23527 0.38114 0.29538 0.0
C6104 C 0.24644 0.37636 0.26757 0.0
C6105 C 0.24386 0.39267 0.26324 0.0
C6106 C 0.23583 0.40281 0.27462 0.0
C6107 C 0.23189 0.3972 0.29068 0.0
C6108 C 0.25212 0.39957 0.2482 0.0
C6109 C 0.24984 0.39175 0.23264 0.0
C6110 C 0.26396 0.41237 0.24964 0.0
C6111 C 0.26758 0.42063 0.26584 0.0
C6112 C 0.26527 0.4375 0.26785 0.0
C6113 C 0.26851 0.44529 0.28316 0.0
C6114 C 0.27414 0.43632 0.29653 0.0
C6115 C 0.27666 0.41958 0.29456 0.0
C6116 C 0.27353 0.41176 0.27924 0.0
C6117 C 0.31213 0.42063 0.20115 0.0
C6118 C 0.32084 0.40646 0.20348 0.0
C6119 C 0.29572 0.42045 0.20497 0.0
C6120 C 0.28788 0.40602 0.21078 0.0
C6121 C 0.29622 0.39141 0.21092 0.0
C6122 C 0.31262 0.39165 0.20742 0.0
C6123 C 0.273 0.4068 0.22104 0.0
C6124 C 0.27398 0.4161 0.23589 0.0
C6125 C 0.26018 0.39519 0.21895 0.0
C6126 C 0.25795 0.38608 0.20288 0.0
C6127 C 0.25464 0.36902 0.20273 0.0
C6128 C 0.25253 0.36057 0.18757 0.0
C6129 C 0.2537 0.36901 0.17243 0.0
C6130 C 0.25695 0.38593 0.17242 0.0
C6131 C 0.25905 0.39445 0.18755 0.0
H6132 H 0.25207 0.36243 0.16071 0.0
H6133 H 0.27662 0.44236 0.30838 0.0
H6134 H 0.60178 0.69748 0.786 0.0
H6135 H 0.60476 0.72004 0.76592 0.0
H6136 H 0.65617 0.71869 0.76931 0.0
H6137 H 0.65322 0.69586 0.78884 0.0
H6138 H 0.61886 0.75055 0.76067 0.0
H6139 H 0.67196 0.7165 0.73099 0.0
H6140 H 0.68231 0.68854 0.73127 0.0
H6141 H 0.63464 0.66839 0.73984 0.0
H6142 H 0.624 0.69615 0.73934 0.0
H6143 H 0.65416 0.79749 0.6923 0.0
H6144 H 0.65174 0.78094 0.71781 0.0
H6145 H 0.62649 0.74258 0.69032 0.0
H6146 H 0.62829 0.75922 0.66503 0.0
H6147 H 0.64968 0.73086 0.71117 0.0
H6148 H 0.60633 0.76627 0.71204 0.0
H6149 H 0.59122 0.79156 0.7123 0.0
H6150 H 0.61182 0.80583 0.75933 0.0
H6151 H 0.62775 0.78097 0.75898 0.0
C6152 C 0.61368 0.70251 0.78302 0.0
C6153 C 0.62728 0.69492 0.7889 0.0
C6154 C 0.61538 0.71535 0.77146 0.0
C6155 C 0.6307 0.72079 0.76578 0.0
C6156 C 0.64423 0.7145 0.77326 0.0
C6157 C 0.64254 0.70154 0.78453 0.0
C6158 C 0.63264 0.731 0.75044 0.0
C6159 C 0.62576 0.7464 0.74991 0.0
C6160 C 0.64105 0.72522 0.73611 0.0
C6161 C 0.64724 0.70842 0.73531 0.0
C6162 C 0.66369 0.70609 0.73277 0.0
C6163 C 0.6696 0.69028 0.733 0.0
C6164 C 0.65914 0.67673 0.73568 0.0
C6165 C 0.64273 0.6789 0.73784 0.0
C6166 C 0.63676 0.69466 0.73757 0.0
C6167 C 0.64824 0.78546 0.69164 0.0
C6168 C 0.64126 0.77977 0.67664 0.0
C6169 C 0.64679 0.77607 0.70626 0.0
C6170 C 0.63874 0.76062 0.70602 0.0
C6171 C 0.63265 0.75451 0.69083 0.0
C6172 C 0.63374 0.76403 0.67636 0.0
C6173 C 0.63643 0.75081 0.72155 0.0
C6174 C 0.6431 0.7353 0.72203 0.0
C6175 C 0.62733 0.75633 0.73556 0.0
C6176 C 0.61854 0.77184 0.7353 0.0
C6177 C 0.60801 0.77497 0.72224 0.0
C6178 C 0.59922 0.78921 0.72244 0.0
C6179 C 0.60057 0.8003 0.73582 0.0
C6180 C 0.6108 0.79721 0.74898 0.0
C6181 C 0.61982 0.78312 0.7487 0.0
H6182 H 0.59371 0.81129 0.73599 0.0
H6183 H 0.66375 0.66454 0.73613 0.0
H6184 H 0.43147 0.36849 0.24026 0.0
H6185 H 0.42502 0.34297 0.25522 0.0
H6186 H 0.37611 0.34406 0.23889 0.0
H6187 H 0.38234 0.37009 0.22466 0.0
H6188 H 0.37707 0.33327 0.27069 0.0
H6189 H 0.40588 0.3232 0.21916 0.0
H6190 H 0.42931 0.32943 0.20111 0.0
H6191 H 0.45979 0.30661 0.23592 0.0
H6192 H 0.4368 0.30205 0.25531 0.0
H6193 H 0.36505 0.24842 0.29703 0.0
H6194 H 0.36496 0.27346 0.27989 0.0
H6195 H 0.41591 0.28058 0.28666 0.0
H6196 H 0.41621 0.25592 0.30287 0.0
H6197 H 0.4102 0.28587 0.25614 0.0
H6198 H 0.38645 0.30226 0.30917 0.0
H6199 H 0.36615 0.30117 0.332 0.0
H6200 H 0.3295 0.31187 0.29717 0.0
H6201 H 0.34957 0.3128 0.27407 0.0
C6202 C 0.41935 0.36327 0.23984 0.0
C6203 C 0.40747 0.37116 0.23107 0.0
C6204 C 0.41564 0.34872 0.24847 0.0
C6205 C 0.40012 0.34136 0.24795 0.0
C6206 C 0.38816 0.34942 0.23947 0.0
C6207 C 0.39178 0.36422 0.23121 0.0
C6208 C 0.39665 0.32483 0.25537 0.0
C6209 C 0.38418 0.32284 0.26735 0.0
C6210 C 0.40603 0.31119 0.25117 0.0
C6211 C 0.41956 0.31243 0.23881 0.0
C6212 C 0.41757 0.31956 0.22306 0.0
C6213 C 0.43083 0.32289 0.2126 0.0
C6214 C 0.44602 0.31816 0.21715 0.0
C6215 C 0.44801 0.31029 0.23238 0.0
C6216 C 0.43489 0.30754 0.24325 0.0
C6217 C 0.3762 0.25529 0.29467 0.0
C6218 C 0.39061 0.24999 0.30126 0.0
C6219 C 0.37614 0.26965 0.28497 0.0
C6220 C 0.39046 0.27899 0.28194 0.0
C6221 C 0.40473 0.2736 0.28856 0.0
C6222 C 0.40483 0.25936 0.29795 0.0
C6223 C 0.39114 0.29448 0.27207 0.0
C6224 C 0.40297 0.29623 0.25939 0.0
C6225 C 0.38153 0.30798 0.27601 0.0
C6226 C 0.36946 0.30737 0.28986 0.0
C6227 C 0.37404 0.30424 0.30635 0.0
C6228 C 0.36258 0.30367 0.31935 0.0
C6229 C 0.34653 0.30639 0.31603 0.0
C6230 C 0.34192 0.30972 0.29971 0.0
C6231 C 0.35333 0.31027 0.28666 0.0
H6232 H 0.33768 0.30595 0.32611 0.0
H6233 H 0.45624 0.32062 0.20891 0.0
H6234 H 0.6578 0.63441 0.77991 0.0
H6235 H 0.68365 0.63976 0.76555 0.0
H6236 H 0.69885 0.59207 0.77964 0.0
H6237 H 0.67335 0.58682 0.79452 0.0
H6238 H 0.72314 0.6132 0.78336 0.0
H6239 H 0.68658 0.60022 0.74021 0.0
H6240 H 0.66237 0.60174 0.72319 0.0
H6241 H 0.67629 0.65097 0.7091 0.0
H6242 H 0.70032 0.64997 0.72648 0.0
H6243 H 0.78905 0.61464 0.72071 0.0
H6244 H 0.76492 0.60687 0.73756 0.0
H6245 H 0.74864 0.65615 0.73396 0.0
H6246 H 0.77254 0.66407 0.71781 0.0
H6247 H 0.72532 0.63192 0.72445 0.0
H6248 H 0.76147 0.64423 0.77006 0.0
H6249 H 0.78593 0.64096 0.78636 0.0
H6250 H 0.773 0.59007 0.79388 0.0
H6251 H 0.74868 0.59297 0.77726 0.0
C6252 C 0.66667 0.62507 0.78006 0.0
C6253 C 0.66335 0.61014 0.78839 0.0
C6254 C 0.68149 0.62812 0.77175 0.0
C6255 C 0.69335 0.61628 0.77139 0.0
C6256 C 0.6901 0.60149 0.77988 0.0
C6257 C 0.67537 0.59847 0.78829 0.0
C6258 C 0.70904 0.61919 0.76207 0.0
C6259 C 0.72354 0.61708 0.7704 0.0
C6260 C 0.7098 0.62428 0.74511 0.0
C6261 C 0.69518 0.62508 0.73486 0.0
C6262 C 0.68438 0.61146 0.73369 0.0
C6263 C 0.67068 0.61223 0.72396 0.0
C6264 C 0.66775 0.62648 0.71514 0.0
C6265 C 0.67854 0.63997 0.71599 0.0
C6266 C 0.69218 0.63933 0.72583 0.0
C6267 C 0.78052 0.6239 0.72383 0.0
C6268 C 0.78288 0.63999 0.71776 0.0
C6269 C 0.76665 0.61942 0.7334 0.0
C6270 C 0.75479 0.63089 0.73694 0.0
C6271 C 0.75744 0.64701 0.73134 0.0
C6272 C 0.77128 0.65152 0.72209 0.0
C6273 C 0.7393 0.62625 0.74585 0.0
C6274 C 0.72483 0.62799 0.73739 0.0
C6275 C 0.73858 0.62057 0.76255 0.0
C6276 C 0.7533 0.61878 0.77235 0.0
C6277 C 0.76393 0.6323 0.77505 0.0
C6278 C 0.77777 0.63053 0.78436 0.0
C6279 C 0.78103 0.61532 0.79114 0.0
C6280 C 0.77047 0.60185 0.78862 0.0
C6281 C 0.75665 0.60355 0.77926 0.0
H6282 H 0.79173 0.61397 0.79836 0.0
H6283 H 0.65715 0.62704 0.70759 0.0
H6284 H 0.73028 0.47939 0.64059 0.0
H6285 H 0.74824 0.50226 0.64936 0.0
H6286 H 0.7488 0.52122 0.59911 0.0
H6287 H 0.73131 0.49833 0.59023 0.0
H6288 H 0.77686 0.52773 0.61272 0.0
H6289 H 0.72141 0.53422 0.62918 0.0
H6290 H 0.69593 0.52591 0.64332 0.0
H6291 H 0.71955 0.52564 0.69064 0.0
H6292 H 0.74523 0.53389 0.67671 0.0
H6293 H 0.79133 0.6134 0.62538 0.0
H6294 H 0.77953 0.58637 0.61788 0.0
H6295 H 0.77778 0.5732 0.67018 0.0
H6296 H 0.78846 0.60063 0.67762 0.0
H6297 H 0.75238 0.56205 0.65714 0.0
H6298 H 0.8077 0.56293 0.63816 0.0
H6299 H 0.83144 0.572 0.62156 0.0
H6300 H 0.80685 0.56005 0.57611 0.0
H6301 H 0.78282 0.55103 0.59236 0.0
C6302 C 0.73465 0.48813 0.6313 0.0
C6303 C 0.72916 0.48715 0.61476 0.0
C6304 C 0.74481 0.50131 0.63636 0.0
C6305 C 0.74956 0.51373 0.625 0.0
C6306 C 0.74524 0.51191 0.60817 0.0
C6307 C 0.73516 0.49879 0.60311 0.0
C6308 C 0.75753 0.52944 0.63072 0.0
C6309 C 0.77154 0.5353 0.62241 0.0
C6310 C 0.75066 0.53926 0.64347 0.0
C6311 C 0.73524 0.53448 0.65189 0.0
C6312 C 0.72118 0.5323 0.64259 0.0
C6313 C 0.7067 0.52761 0.65056 0.0
C6314 C 0.70613 0.52516 0.66786 0.0
C6315 C 0.72002 0.5275 0.67723 0.0
C6316 C 0.73453 0.5322 0.66931 0.0
C6317 C 0.78822 0.60473 0.63521 0.0
C6318 C 0.79063 0.60901 0.65204 0.0
C6319 C 0.78166 0.58922 0.63094 0.0
C6320 C 0.77812 0.57746 0.6434 0.0
C6321 C 0.78043 0.58193 0.66028 0.0
C6322 C 0.7865 0.5976 0.66456 0.0
C6323 C 0.77177 0.56061 0.63903 0.0
C6324 C 0.75799 0.55449 0.64762 0.0
C6325 C 0.77875 0.55075 0.62628 0.0
C6326 C 0.79337 0.55618 0.61657 0.0
C6327 C 0.8073 0.56213 0.62466 0.0
C6328 C 0.82083 0.56733 0.61529 0.0
C6329 C 0.82068 0.56656 0.59782 0.0
C6330 C 0.80697 0.56061 0.58966 0.0
C6331 C 0.79339 0.55543 0.59895 0.0
H6332 H 0.83117 0.57061 0.59061 0.0
H6333 H 0.69492 0.5215 0.67402 0.0
H6334 H 0.30471 0.52457 0.41426 0.0
H6335 H 0.29049 0.49949 0.40513 0.0
H6336 H 0.31059 0.50548 0.35536 0.0
H6337 H 0.32497 0.53077 0.36443 0.0
H6338 H 0.27743 0.49073 0.35767 0.0
H6339 H 0.33053 0.48407 0.37776 0.0
H6340 H 0.35265 0.48871 0.39748 0.0
H6341 H 0.32418 0.46581 0.43669 0.0
H6342 H 0.30173 0.46137 0.41727 0.0
H6343 H 0.2668 0.40474 0.34037 0.0
H6344 H 0.28134 0.43123 0.34351 0.0
H6345 H 0.2654 0.43407 0.3951 0.0
H6346 H 0.25051 0.40778 0.39196 0.0
H6347 H 0.29871 0.44412 0.38884 0.0
H6348 H 0.24542 0.45291 0.37003 0.0
H6349 H 0.22242 0.44946 0.35151 0.0
H6350 H 0.25082 0.46851 0.31026 0.0
H6351 H 0.27421 0.47195 0.32862 0.0
C6352 C 0.30572 0.52087 0.40122 0.0
C6353 C 0.31617 0.52944 0.39012 0.0
C6354 C 0.2976 0.50653 0.39604 0.0
C6355 C 0.29982 0.50051 0.3797 0.0
C6356 C 0.30883 0.50995 0.36805 0.0
C6357 C 0.31698 0.5244 0.37324 0.0
C6358 C 0.29454 0.48343 0.37572 0.0
C6359 C 0.2823 0.48049 0.36418 0.0
C6360 C 0.30081 0.47014 0.38443 0.0
C6361 C 0.31439 0.47252 0.39609 0.0
C6362 C 0.32893 0.48015 0.39062 0.0
C6363 C 0.34153 0.48274 0.40174 0.0
C6364 C 0.33981 0.47759 0.41834 0.0
C6365 C 0.32548 0.46981 0.42383 0.0
C6366 C 0.31282 0.46725 0.41277 0.0
C6367 C 0.26671 0.41082 0.3525 0.0
C6368 C 0.25755 0.40421 0.36596 0.0
C6369 C 0.27493 0.42598 0.35422 0.0
C6370 C 0.27433 0.43459 0.3695 0.0
C6371 C 0.26599 0.42757 0.38322 0.0
C6372 C 0.2575 0.41259 0.38141 0.0
C6373 C 0.28146 0.45141 0.37095 0.0
C6374 C 0.29407 0.45431 0.38205 0.0
C6375 C 0.27556 0.46462 0.36181 0.0
C6376 C 0.26165 0.46238 0.35063 0.0
C6377 C 0.24688 0.45607 0.35694 0.0
C6378 C 0.23375 0.4541 0.34644 0.0
C6379 C 0.23517 0.45851 0.32961 0.0
C6380 C 0.24976 0.46498 0.32327 0.0
C6381 C 0.26297 0.46696 0.33373 0.0
H6382 H 0.22493 0.45706 0.32155 0.0
H6383 H 0.34958 0.4796 0.42693 0.0
H6384 H 0.09552 0.9433 0.41472 0.0
H6385 H 0.10229 0.96936 0.42823 0.0
H6386 H 0.13683 0.98076 0.38881 0.0
H6387 H 0.13011 0.9545 0.375 0.0
H6388 H 0.14848 0.98435 0.42225 0.0
H6389 H 0.10148 0.99828 0.38962 0.0
H6390 H 0.07302 0.99647 0.38173 0.0
H6391 H 0.05875 1.00538 0.43282 0.0
H6392 H 0.08707 1.00702 0.44107 0.0
H6393 H 0.1649 0.06832 0.41976 0.0
H6394 H 0.15981 0.03878 0.41873 0.0
H6395 H 0.12089 0.04322 0.45469 0.0
H6396 H 0.12487 0.07283 0.45446 0.0
H6397 H 0.11034 0.02904 0.42943 0.0
H6398 H 0.1547 0.02083 0.46216 0.0
H6399 H 0.18207 0.02318 0.47318 0.0
H6400 H 0.20073 1.00276 0.42743 0.0
H6401 H 0.17353 1.00049 0.41601 0.0
C6402 C 0.10437 0.95141 0.4087 0.0
C6403 C 0.11229 0.94689 0.39376 0.0
C6404 C 0.10824 0.96625 0.41652 0.0
C6405 C 0.12004 0.9768 0.40948 0.0
C6406 C 0.12773 0.97259 0.39437 0.0
C6407 C 0.12381 0.95771 0.38647 0.0
C6408 C 0.12456 0.99215 0.41806 0.0
C6409 C 0.1403 0.99429 0.42375 0.0
C6410 C 0.11341 1.00443 0.42097 0.0
C6411 C 0.0964 1.00262 0.41599 0.0
C6412 C 0.09227 0.99962 0.39921 0.0
C6413 C 0.07616 0.99869 0.39466 0.0
C6414 C 0.06412 1.00086 0.40678 0.0
C6415 C 0.0681 1.00374 0.42347 0.0
C6416 C 0.08417 1.00466 0.42808 0.0
C6417 C 0.15537 0.06297 0.42758 0.0
C6418 C 0.14521 0.07287 0.43709 0.0
C6419 C 0.15267 0.04605 0.42724 0.0
C6420 C 0.14003 0.0388 0.43674 0.0
C6421 C 0.13069 0.04859 0.44725 0.0
C6422 C 0.13303 0.06552 0.44713 0.0
C6423 C 0.13464 0.02179 0.43308 0.0
C6424 C 0.11864 0.01916 0.42836 0.0
C6425 C 0.14546 1.00895 0.43156 0.0
C6426 C 0.16199 1.01049 0.43822 0.0
C6427 C 0.16463 0.01692 0.4544 0.0
C6428 C 0.18013 0.01823 0.46072 0.0
C6429 C 0.19312 0.01311 0.45102 0.0
C6430 C 0.19064 1.00669 0.43495 0.0
C6431 C 0.17517 1.00536 0.42855 0.0
H6432 H 0.20511 0.01413 0.45595 0.0
H6433 H 0.05168 1.00042 0.40327 0.0
H6434 H 0.09867 0.38561 0.65084 0.0
H6435 H 0.07383 0.39951 0.6565 0.0
H6436 H 0.04877 0.36565 0.62341 0.0
H6437 H 0.07386 0.3518 0.61748 0.0
H6438 H 0.03525 0.39843 0.62686 0.0
H6439 H 0.05075 0.35272 0.65834 0.0
H6440 H 0.06763 0.33517 0.6751 0.0
H6441 H 0.07122 0.37257 0.71303 0.0
H6442 H 0.05506 0.39072 0.69615 0.0
H6443 H 0.96948 0.38697 0.69555 0.0
H6444 H 0.99511 0.37896 0.68365 0.0
H6445 H 1.00524 0.42868 0.66751 0.0
H6446 H 0.9794 0.43674 0.67898 0.0
H6447 H 0.02509 0.38619 0.68702 0.0
H6448 H 0.02269 0.42821 0.62872 0.0
H6449 H 1.0023 0.44111 0.61177 0.0
H6450 H 0.96736 0.40384 0.62668 0.0
H6451 H 0.98758 0.39059 0.6435 0.0
C6452 C 0.08807 0.38178 0.64398 0.0
C6453 C 0.08797 0.36755 0.63398 0.0
C6454 C 0.07388 0.38962 0.64733 0.0
C6455 C 0.05951 0.38325 0.64074 0.0
C6456 C 0.05982 0.37063 0.62866 0.0
C6457 C 0.07413 0.3628 0.62521 0.0
C6458 C 0.04433 0.38751 0.649 0.0
C6459 C 0.03302 0.39587 0.64002 0.0
C6460 C 0.04128 0.38357 0.66603 0.0
C6461 C 0.05197 0.37321 0.67575 0.0
C6462 C 0.05554 0.3574 0.67001 0.0
C6463 C 0.06496 0.34736 0.67954 0.0
C6464 C 0.07064 0.35286 0.69502 0.0
C6465 C 0.06703 0.36847 0.70092 0.0
C6466 C 0.0578 0.37867 0.69133 0.0
C6467 C 0.97726 0.39628 0.68972 0.0
C6468 C 0.97227 0.4124 0.68783 0.0
C6469 C 0.9919 0.39167 0.68291 0.0
C6470 C 1.00179 0.40313 0.67424 0.0
C6471 C 0.99751 0.41956 0.67371 0.0
C6472 C 0.98281 0.42416 0.68039 0.0
C6473 C 1.0162 0.39769 0.66512 0.0
C6474 C 0.02737 0.38899 0.67392 0.0
C6475 C 0.01879 0.40079 0.64782 0.0
C6476 C 1.00661 0.40852 0.63751 0.0
C6477 C 1.01067 0.42274 0.62832 0.0
C6478 C 0.99914 0.43011 0.61874 0.0
C6479 C 0.98353 0.42333 0.61819 0.0
C6480 C 0.97943 0.40912 0.62716 0.0
C6481 C 0.99092 0.40168 0.63673 0.0
H6482 H 0.97462 0.42908 0.61079 0.0
H6483 H 0.07767 0.34496 0.70252 0.0
H6484 H 0.6585 0.3413 0.90375 0.0
H6485 H 0.645 0.31518 0.89809 0.0
H6486 H 0.66901 0.31257 0.84984 0.0
H6487 H 0.68321 0.33868 0.85574 0.0
H6488 H 0.62802 0.29576 0.87877 0.0
H6489 H 0.68478 0.27644 0.84661 0.0
H6490 H 0.71307 0.28525 0.84138 0.0
H6491 H 0.71399 0.31078 0.88867 0.0
H6492 H 0.68574 0.30201 0.89418 0.0
H6493 H 0.63099 0.2125 0.91056 0.0
H6494 H 0.62926 0.23494 0.89047 0.0
H6495 H 0.67013 0.25967 0.91336 0.0
H6496 H 0.67239 0.23692 0.93258 0.0
H6497 H 0.67424 0.25961 0.88148 0.0
H6498 H 0.62857 0.2703 0.91992 0.0
H6499 H 0.60219 0.26298 0.9328 0.0
H6500 H 0.58168 0.25787 0.88401 0.0
H6501 H 0.608 0.26504 0.87087 0.0
C6502 C 0.66065 0.33545 0.89172 0.0
C6503 C 0.6725 0.34164 0.88055 0.0
C6504 C 0.6527 0.32055 0.88837 0.0
C6505 C 0.6564 0.31166 0.87375 0.0
C6506 C 0.66629 0.31908 0.86137 0.0
C6507 C 0.67448 0.33394 0.86483 0.0
C6508 C 0.65335 0.29372 0.87402 0.0
C6509 C 0.63802 0.28765 0.87891 0.0
C6510 C 0.66638 0.2831 0.87411 0.0
C6511 C 0.68315 0.2888 0.87065 0.0
C6512 C 0.69102 0.28399 0.85582 0.0
C6513 C 0.70704 0.28895 0.85284 0.0
C6514 C 0.71529 0.29861 0.86466 0.0
C6515 C 0.70756 0.30334 0.8795 0.0
C6516 C 0.69156 0.29839 0.88256 0.0
C6517 C 0.63942 0.2229 0.91134 0.0
C6518 C 0.65182 0.22315 0.923 0.0
C6519 C 0.63847 0.23562 0.89985 0.0
C6520 C 0.64965 0.24889 0.9003 0.0
C6521 C 0.66155 0.24939 0.91255 0.0
C6522 C 0.66277 0.23653 0.92364 0.0
C6523 C 0.64941 0.26248 0.88822 0.0
C6524 C 0.66402 0.26735 0.88053 0.0
C6525 C 0.63597 0.27231 0.88656 0.0
C6526 C 0.62024 0.26796 0.89444 0.0
C6527 C 0.61844 0.2675 0.91196 0.0
C6528 C 0.60351 0.2634 0.9193 0.0
C6529 C 0.59028 0.2599 0.90923 0.0
C6530 C 0.59195 0.26054 0.89179 0.0
C6531 C 0.60686 0.26462 0.88439 0.0
H6532 H 0.57873 0.25673 0.91493 0.0
H6533 H 0.7277 0.30236 0.86234 0.0
H6534 H 0.73127 0.93216 0.07698 0.0
H6535 H 0.75724 0.91974 0.07137 0.0
H6536 H 0.77359 0.93664 0.11971 0.0
H6537 H 0.7478 0.94873 0.12547 0.0
H6538 H 0.79448 0.93279 0.07766 0.0
H6539 H 0.77413 0.90006 0.13877 0.0
H6540 H 0.74899 0.8885 0.15122 0.0
H6541 H 0.7304 0.87911 0.10213 0.0
H6542 H 0.75554 0.89037 0.08936 0.0
H6543 H 0.83856 0.93962 0.14385 0.0
H6544 H 0.8226 0.93587 0.11916 0.0
H6545 H 0.82608 0.88332 0.12255 0.0
H6546 H 0.84197 0.88706 0.14794 0.0
H6547 H 0.79692 0.88995 0.1211 0.0
H6548 H 0.83792 0.90347 0.08428 0.0
H6549 H 0.86294 0.91621 0.07279 0.0
H6550 H 0.84149 0.96318 0.07286 0.0
H6551 H 0.81645 0.95086 0.08461 0.0
C6552 C 0.74065 0.93368 0.08612 0.0
C6553 C 0.73758 0.94116 0.10176 0.0
C6554 C 0.7554 0.92658 0.0829 0.0
C6555 C 0.7671 0.92715 0.09524 0.0
C6556 C 0.76456 0.93603 0.11012 0.0
C6557 C 0.74986 0.94289 0.11341 0.0
C6558 C 0.78107 0.91674 0.09433 0.0
C6559 C 0.79519 0.92309 0.08677 0.0
C6560 C 0.78166 0.90342 0.10543 0.0
C6561 C 0.76677 0.89599 0.11309 0.0
C6562 C 0.76477 0.89533 0.13061 0.0
C6563 C 0.75049 0.88889 0.13774 0.0
C6564 C 0.73811 0.88306 0.12748 0.0
C6565 C 0.74 0.88362 0.11007 0.0
C6566 C 0.75426 0.89004 0.10288 0.0
C6567 C 0.83617 0.92724 0.13928 0.0
C6568 C 0.84127 0.91362 0.14804 0.0
C6569 C 0.82729 0.9251 0.12485 0.0
C6570 C 0.8234 0.9093 0.11866 0.0
C6571 C 0.82911 0.89563 0.12695 0.0
C6572 C 0.83802 0.89778 0.14154 0.0
C6573 C 0.81061 0.9075 0.10609 0.0
C6574 C 0.79655 0.8988 0.1111 0.0
C6575 C 0.81017 0.91843 0.09243 0.0
C6576 C 0.82517 0.92613 0.08522 0.0
C6577 C 0.83852 0.91652 0.08189 0.0
C6578 C 0.85273 0.92369 0.07533 0.0
C6579 C 0.85379 0.94048 0.07205 0.0
C6580 C 0.84063 0.95015 0.07533 0.0
C6581 C 0.82638 0.94306 0.08188 0.0
H6582 H 0.86481 0.94601 0.06699 0.0
H6583 H 0.72705 0.87811 0.13302 0.0
H6584 H 0.10746 0.19398 0.86134 0.0
H6585 H 0.1185 0.2162 0.87877 0.0
H6586 H 0.16575 0.20847 0.85815 0.0
H6587 H 0.15482 0.18614 0.84063 0.0
H6588 H 0.1444 0.22226 0.90226 0.0
H6589 H 0.17844 0.24708 0.84679 0.0
H6590 H 0.18115 0.24373 0.81608 0.0
H6591 H 0.13086 0.23117 0.81305 0.0
H6592 H 0.12785 0.23476 0.84368 0.0
H6593 H 0.13604 0.31543 0.87675 0.0
H6594 H 0.15456 0.2935 0.8815 0.0
H6595 H 0.11528 0.2634 0.9019 0.0
H6596 H 0.09717 0.28579 0.89818 0.0
H6597 H 0.15108 0.26907 0.86334 0.0
H6598 H 0.12383 0.2315 0.92109 0.0
H6599 H 0.11858 0.23663 0.95107 0.0
H6600 H 0.15266 0.27739 0.95041 0.0
H6601 H 0.1584 0.27236 0.92047 0.0
C6602 C 0.12023 0.19685 0.86067 0.0
C6603 C 0.13022 0.18862 0.84938 0.0
C6604 C 0.12657 0.20931 0.87086 0.0
C6605 C 0.14294 0.21381 0.86977 0.0
C6606 C 0.15313 0.20499 0.85924 0.0
C6607 C 0.1468 0.19243 0.8491 0.0
C6608 C 0.14815 0.22981 0.87673 0.0
C6609 C 0.14617 0.23264 0.89398 0.0
C6610 C 0.15134 0.24313 0.86587 0.0
C6611 C 0.153 0.24095 0.84748 0.0
C6612 C 0.16799 0.2436 0.83954 0.0
C6613 C 0.16956 0.24171 0.82217 0.0
C6614 C 0.15619 0.23722 0.81264 0.0
C6615 C 0.14121 0.23465 0.82045 0.0
C6616 C 0.13956 0.23662 0.8378 0.0
C6617 C 0.13161 0.30424 0.88274 0.0
C6618 C 0.1153 0.30188 0.88678 0.0
C6619 C 0.14218 0.29185 0.88563 0.0
C6620 C 0.13639 0.27676 0.89204 0.0
C6621 C 0.12022 0.27501 0.89732 0.0
C6622 C 0.10975 0.28763 0.89488 0.0
C6623 C 0.14549 0.26182 0.88884 0.0
C6624 C 0.15039 0.25903 0.87217 0.0
C6625 C 0.14486 0.24867 0.90027 0.0
C6626 C 0.14164 0.25147 0.91845 0.0
C6627 C 0.13041 0.24142 0.92734 0.0
C6628 C 0.12728 0.24436 0.94435 0.0
C6629 C 0.13529 0.25731 0.95265 0.0
C6630 C 0.14646 0.26735 0.94397 0.0
C6631 C 0.14964 0.26447 0.92696 0.0
H6632 H 0.13283 0.25957 0.96581 0.0
H6633 H 0.15744 0.23581 0.7992 0.0
H6634 H 0.85447 0.38024 0.14524 0.0
H6635 H 0.83522 0.37408 0.16796 0.0
H6636 H 0.79765 0.39349 0.13842 0.0
H6637 H 0.81703 0.40035 0.11621 0.0
H6638 H 0.78853 0.39373 0.16961 0.0
H6639 H 0.8124 0.35371 0.13112 0.0
H6640 H 0.83444 0.33785 0.1191 0.0
H6641 H 0.84495 0.31999 0.16793 0.0
H6642 H 0.823 0.3359 0.18026 0.0
H6643 H 0.73809 0.32346 0.14166 0.0
H6644 H 0.76545 0.33292 0.1476 0.0
H6645 H 0.74967 0.35257 0.19527 0.0
H6646 H 0.72207 0.34389 0.18886 0.0
H6647 H 0.78903 0.33292 0.16786 0.0
H6648 H 0.7667 0.39013 0.20031 0.0
H6649 H 0.74183 0.40516 0.20473 0.0
H6650 H 0.72473 0.38801 0.15703 0.0
H6651 H 0.74956 0.37304 0.15229 0.0
C6652 C 0.84229 0.38419 0.14417 0.0
C6653 C 0.83707 0.39064 0.12907 0.0
C6654 C 0.83128 0.38051 0.15706 0.0
C6655 C 0.81492 0.38272 0.1546 0.0
C6656 C 0.8102 0.39153 0.14057 0.0
C6657 C 0.82129 0.39555 0.12786 0.0
C6658 C 0.80258 0.37276 0.1639 0.0
C6659 C 0.7888 0.38044 0.16971 0.0
C6660 C 0.80284 0.35537 0.1639 0.0
C6661 C 0.81631 0.34621 0.15664 0.0
C6662 C 0.81953 0.34652 0.1393 0.0
C6663 C 0.83198 0.33751 0.13243 0.0
C6664 C 0.84118 0.328 0.14275 0.0
C6665 C 0.83789 0.32744 0.15997 0.0
C6666 C 0.82546 0.33647 0.16691 0.0
C6667 C 0.74056 0.3293 0.15364 0.0
C6668 C 0.72805 0.33339 0.16461 0.0
C6669 C 0.75622 0.33467 0.15709 0.0
C6670 C 0.75951 0.34393 0.17167 0.0
C6671 C 0.74731 0.34586 0.18375 0.0
C6672 C 0.73159 0.34087 0.18009 0.0
C6673 C 0.77468 0.3539 0.1724 0.0
C6674 C 0.78904 0.34621 0.16872 0.0
C6675 C 0.7747 0.37127 0.17343 0.0
C6676 C 0.75983 0.38032 0.17609 0.0
C6677 C 0.75762 0.3896 0.19079 0.0
C6678 C 0.74354 0.39811 0.19334 0.0
C6679 C 0.73168 0.39748 0.1812 0.0
C6680 C 0.7339 0.38844 0.16644 0.0
C6681 C 0.74796 0.37996 0.16382 0.0
H6682 H 0.72078 0.40405 0.18321 0.0
H6683 H 0.85081 0.32102 0.13741 0.0
H6684 H 0.65377 0.04345 0.32051 0.0
H6685 H 0.66452 0.01758 0.329 0.0
H6686 H 0.61788 1.0015 0.34795 0.0
H6687 H 0.60721 0.02802 0.34032 0.0
H6688 H 0.63988 0.99229 0.3687 0.0
H6689 H 0.63439 0.98976 0.30934 0.0
H6690 H 0.63839 1.00137 0.28117 0.0
H6691 H 0.68917 0.99626 0.28462 0.0
H6692 H 0.68563 0.98572 0.31332 0.0
H6693 H 0.66881 0.90906 0.37386 0.0
H6694 H 0.65318 0.93345 0.3685 0.0
H6695 H 0.69588 0.95878 0.34938 0.0
H6696 H 0.71129 0.93468 0.35462 0.0
H6697 H 0.67226 0.96093 0.32776 0.0
H6698 H 0.67844 0.9687 0.38745 0.0
H6699 H 0.67574 0.96075 0.41712 0.0
H6700 H 0.62463 0.95597 0.41251 0.0
H6701 H 0.62704 0.9637 0.38273 0.0
C6702 C 0.64571 0.03439 0.32633 0.0
C6703 C 0.62954 0.03775 0.3295 0.0
C6704 C 0.65191 0.01953 0.33122 0.0
C6705 C 0.64199 1.00731 0.33882 0.0
C6706 C 0.62581 1.01064 0.34205 0.0
C6707 C 0.61967 0.02575 0.33754 0.0
C6708 C 0.64859 0.9911 0.34316 0.0
C6709 C 0.64671 0.98529 0.35964 0.0
C6710 C 0.65768 0.98194 0.33142 0.0
C6711 C 0.65973 0.98706 0.31363 0.0
C6712 C 0.64643 0.99119 0.30417 0.0
C6713 C 0.64864 0.99773 0.28814 0.0
C6714 C 0.66402 0.99953 0.2811 0.0
C6715 C 0.67725 0.99487 0.29011 0.0
C6716 C 0.67516 0.98874 0.30633 0.0
C6717 C 0.67488 0.92 0.36892 0.0
C6718 C 0.69127 0.91994 0.36459 0.0
C6719 C 0.66593 0.93391 0.36575 0.0
C6720 C 0.67329 0.94798 0.35833 0.0
C6721 C 0.68982 0.94809 0.35486 0.0
C6722 C 0.69866 0.9343 0.35796 0.0
C6723 C 0.66397 0.96243 0.35341 0.0
C6724 C 0.66525 0.96783 0.33675 0.0
C6725 C 0.6544 0.97121 0.36495 0.0
C6726 C 0.65294 0.96657 0.38282 0.0
C6727 C 0.66664 0.96581 0.39273 0.0
C6728 C 0.66516 0.96137 0.40957 0.0
C6729 C 0.65003 0.9578 0.41668 0.0
C6730 C 0.63634 0.95871 0.40697 0.0
C6731 C 0.63776 0.96312 0.39012 0.0
H6732 H 0.64891 0.95437 0.42972 0.0
H6733 H 0.66567 1.00448 0.26863 0.0
H6734 H 0.96959 0.90133 0.54785 0.0
H6735 H 0.99868 0.90043 0.5489 0.0
H6736 H 0.99455 0.85042 0.56605 0.0
H6737 H 0.96543 0.85145 0.56554 0.0
H6738 H 1.00331 0.87149 0.59018 0.0
H6739 H 0.02004 0.86119 0.5341 0.0
H6740 H 0.02256 0.86382 0.50347 0.0
H6741 H 0.04131 0.91323 0.50909 0.0
H6742 H 0.03861 0.91111 0.53975 0.0
H6743 H 0.08386 0.88511 0.6196 0.0
H6744 H 0.05945 0.87376 0.60671 0.0
H6745 H 0.05132 0.92074 0.5847 0.0
H6746 H 0.07553 0.9322 0.59753 0.0
H6747 H 0.0518 0.89507 0.56135 0.0
H6748 H 0.02737 0.90867 0.61447 0.0
H6749 H 0.02436 0.90855 0.64524 0.0
H6750 H 0.01863 0.85601 0.64448 0.0
H6751 H 0.0218 0.85582 0.61367 0.0
C6752 C 0.97491 0.88994 0.5512 0.0
C6753 C 0.96542 0.87673 0.55741 0.0
C6754 C 0.99156 0.88935 0.55157 0.0
C6755 C 0.9987 0.87547 0.55795 0.0
C6756 C 0.98921 0.8613 0.56131 0.0
C6757 C 0.9726 0.86198 0.56123 0.0
C6758 C 1.01427 0.87768 0.56619 0.0
C6759 C 1.01409 0.87612 0.58373 0.0
C6760 C 0.02805 0.88441 0.55788 0.0
C6761 C 0.02907 0.88598 0.53933 0.0
C6762 C 0.0245 0.87271 0.52885 0.0
C6763 C 0.02599 0.8741 0.51144 0.0
C6764 C 0.03212 0.88867 0.50435 0.0
C6765 C 0.0366 0.90195 0.51461 0.0
C6766 C 0.03509 0.90065 0.53201 0.0
C6767 C 0.07662 0.89314 0.61243 0.0
C6768 C 0.08169 0.90946 0.60934 0.0
C6769 C 0.06279 0.8866 0.60497 0.0
C6770 C 0.05393 0.89638 0.5945 0.0
C6771 C 0.05827 0.91298 0.5925 0.0
C6772 C 0.072 0.91952 0.59996 0.0
C6773 C 0.0404 0.88925 0.58507 0.0
C6774 C 0.04107 0.88995 0.56752 0.0
C6775 C 0.02685 0.88215 0.59329 0.0
C6776 C 0.02507 0.8822 0.61181 0.0
C6777 C 0.02565 0.89708 0.62088 0.0
C6778 C 0.02387 0.89707 0.63832 0.0
C6779 C 0.02138 0.88228 0.64682 0.0
C6780 C 0.02061 0.86746 0.63788 0.0
C6781 C 0.02239 0.86739 0.62043 0.0
H6782 H 0.01999 0.8823 0.66032 0.0
H6783 H 0.0335 0.88965 0.49092 0.0
H6784 H 0.41051 0.12735 0.08487 0.0
H6785 H 0.39862 0.1257 0.05718 0.0
H6786 H 0.44043 0.1509 0.03602 0.0
H6787 H 0.45241 0.15273 0.06397 0.0
H6788 H 0.40949 0.158 0.02005 0.0
H6789 H 0.44118 0.11137 0.03507 0.0
H6790 H 0.44812 0.09026 0.05537 0.0
H6791 H 0.39954 0.07097 0.05541 0.0
H6792 H 0.39236 0.09191 0.03511 0.0
H6793 H 0.41208 0.12636 0.9375 0.0
H6794 H 0.4149 0.13689 0.96583 0.0
H6795 H 0.38105 0.09952 0.98379 0.0
H6796 H 0.37875 0.08835 0.95519 0.0
H6797 H 0.40549 0.09946 1.00249 0.0
H6798 H 0.37401 0.14302 0.98484 0.0
H6799 H 0.36522 0.16514 0.96674 0.0
H6800 H 0.41033 0.1913 0.97316 0.0
H6801 H 0.41948 0.16923 0.99112 0.0
C6802 C 0.41694 0.13311 0.07444 0.0
C6803 C 0.43241 0.14017 0.07663 0.0
C6804 C 0.41014 0.13208 0.05857 0.0
C6805 C 0.41872 0.13791 0.04443 0.0
C6806 C 0.43357 0.14631 0.04674 0.0
C6807 C 0.44038 0.14745 0.06274 0.0
C6808 C 0.41314 0.13316 0.02731 0.0
C6809 C 0.40876 0.14524 0.01608 0.0
C6810 C 0.41166 0.11647 0.02233 0.0
C6811 C 0.41623 0.10319 0.03362 0.0
C6812 C 0.43201 0.10255 0.03936 0.0
C6813 C 0.43599 0.09061 0.05086 0.0
C6814 C 0.42429 0.07923 0.05666 0.0
C6815 C 0.40863 0.07969 0.05085 0.0
C6816 C 0.40461 0.09155 0.0393 0.0
C6817 C 0.40486 0.12059 0.94736 0.0
C6818 C 0.39519 0.10644 0.94397 0.0
C6819 C 0.40644 0.12673 0.96368 0.0
C6820 C 0.39816 0.11915 0.97717 0.0
C6821 C 0.38763 0.10565 0.97368 0.0
C6822 C 0.38613 0.09937 0.95726 0.0
C6823 C 0.40186 0.12433 0.99485 0.0
C6824 C 0.40601 0.11227 1.0063 0.0
C6825 C 0.40292 0.14106 1.00004 0.0
C6826 C 0.39748 0.15439 0.98924 0.0
C6827 C 0.3821 0.15343 0.98229 0.0
C6828 C 0.37705 0.16597 0.97207 0.0
C6829 C 0.38722 0.1796 0.96877 0.0
C6830 C 0.40246 0.18073 0.97572 0.0
C6831 C 0.40758 0.16821 0.98594 0.0
H6832 H 0.38328 0.18929 0.96086 0.0
H6833 H 0.42736 0.07008 0.06566 0.0
H6834 H 0.90822 0.66448 0.14302 0.0
H6835 H 0.89197 0.66405 0.16884 0.0
H6836 H 0.93117 0.64365 0.19516 0.0
H6837 H 0.94698 0.6431 0.16912 0.0
H6838 H 0.90434 0.63502 0.21047 0.0
H6839 H 0.92888 0.68578 0.18996 0.0
H6840 H 0.93408 0.70744 0.16907 0.0
H6841 H 0.88397 0.71756 0.16912 0.0
H6842 H 0.8785 0.69585 0.18999 0.0
H6843 H 0.90527 0.7015 0.27869 0.0
H6844 H 0.9088 0.69362 0.2494 0.0
H6845 H 0.86963 0.65778 0.25421 0.0
H6846 H 0.86631 0.66525 0.28373 0.0
H6847 H 0.89216 0.69313 0.22232 0.0
H6848 H 0.87912 0.62366 0.23118 0.0
H6849 H 0.87945 0.60297 0.25351 0.0
H6850 H 0.91512 0.63215 0.27954 0.0
H6851 H 0.91514 0.65288 0.25726 0.0
C6852 C 0.91301 0.65922 0.15419 0.0
C6853 C 0.92879 0.65397 0.15429 0.0
C6854 C 0.90379 0.65905 0.16892 0.0
C6855 C 0.91057 0.65434 0.184 0.0
C6856 C 0.92573 0.64742 0.18368 0.0
C6857 C 0.93477 0.64712 0.16882 0.0
C6858 C 0.90336 0.65928 0.20024 0.0
C6859 C 0.90142 0.64766 0.21301 0.0
C6860 C 0.89999 0.67589 0.20369 0.0
C6861 C 0.90326 0.6891 0.19135 0.0
C6862 C 0.91897 0.69261 0.18546 0.0
C6863 C 0.92197 0.70491 0.17364 0.0
C6864 C 0.90935 0.71389 0.16773 0.0
C6865 C 0.89373 0.71061 0.1737 0.0
C6866 C 0.89068 0.69832 0.18553 0.0
C6867 C 0.89728 0.69207 0.2735 0.0
C6868 C 0.88573 0.68376 0.2836 0.0
C6869 C 0.89927 0.68761 0.25673 0.0
C6870 C 0.88967 0.67489 0.24975 0.0
C6871 C 0.87738 0.66739 0.25948 0.0
C6872 C 0.87547 0.67172 0.27632 0.0
C6873 C 0.89332 0.66892 0.23263 0.0
C6874 C 0.8946 0.68038 0.21969 0.0
C6875 C 0.89679 0.65234 0.22927 0.0
C6876 C 0.89694 0.6399 0.24268 0.0
C6877 C 0.88703 0.62563 0.24166 0.0
C6878 C 0.88717 0.6139 0.25431 0.0
C6879 C 0.89725 0.61628 0.26797 0.0
C6880 C 0.90727 0.63036 0.26899 0.0
C6881 C 0.9072 0.64211 0.25637 0.0
H6882 H 0.89732 0.60719 0.27775 0.0
H6883 H 0.91165 0.72339 0.15854 0.0
H6884 H 0.4073 0.18634 0.45093 0.0
H6885 H 0.40882 0.17143 0.47739 0.0
H6886 H 0.35907 0.15582 0.47316 0.0
H6887 H 0.35744 0.17055 0.44703 0.0
H6888 H 0.39038 0.1793 0.50462 0.0
H6889 H 0.35224 0.11929 0.48925 0.0
H6890 H 0.35048 0.09876 0.46646 0.0
H6891 H 0.39904 0.11101 0.45135 0.0
H6892 H 0.4012 0.13145 0.47421 0.0
H6893 H 0.33527 0.16115 0.56616 0.0
H6894 H 0.3466 0.16272 0.53779 0.0
H6895 H 0.37883 0.12441 0.54895 0.0
H6896 H 0.36751 0.12257 0.57728 0.0
H6897 H 0.36726 0.12339 0.51577 0.0
H6898 H 0.39344 0.16033 0.55408 0.0
H6899 H 0.39459 0.18118 0.57664 0.0
H6900 H 0.37114 0.21505 0.54539 0.0
H6901 H 0.36956 0.1943 0.52275 0.0
C6902 C 0.39679 0.17954 0.45561 0.0
C6903 C 0.3822 0.17974 0.44714 0.0
C6904 C 0.39771 0.17098 0.47057 0.0
C6905 C 0.38415 0.16233 0.47695 0.0
C6906 C 0.36977 0.16211 0.46819 0.0
C6907 C 0.36878 0.17076 0.45342 0.0
C6908 C 0.38387 0.15567 0.49394 0.0
C6909 C 0.38571 0.16696 0.50715 0.0
C6910 C 0.37804 0.13947 0.49711 0.0
C6911 C 0.37688 0.12693 0.4835 0.0
C6912 C 0.36261 0.11751 0.48119 0.0
C6913 C 0.36152 0.10591 0.46822 0.0
C6914 C 0.37464 0.10358 0.45747 0.0
C6915 C 0.38888 0.11284 0.45967 0.0
C6916 C 0.39003 0.12445 0.47263 0.0
C6917 C 0.34447 0.15278 0.56247 0.0
C6918 C 0.35084 0.14208 0.57403 0.0
C6919 C 0.35095 0.15372 0.54632 0.0
C6920 C 0.3638 0.14398 0.54163 0.0
C6921 C 0.36905 0.13213 0.55254 0.0
C6922 C 0.36261 0.13119 0.5687 0.0
C6923 C 0.37268 0.14742 0.52601 0.0
C6924 C 0.3725 0.13552 0.51327 0.0
C6925 C 0.38013 0.16304 0.52324 0.0
C6926 C 0.38134 0.17571 0.53672 0.0
C6927 C 0.38845 0.17219 0.55204 0.0
C6928 C 0.38918 0.184 0.56485 0.0
C6929 C 0.38294 0.19943 0.56245 0.0
C6930 C 0.37598 0.20309 0.54723 0.0
C6931 C 0.37518 0.19132 0.53439 0.0
H6932 H 0.3835 0.20854 0.57239 0.0
H6933 H 0.37377 0.09461 0.44742 0.0
H6934 H 0.82129 0.65285 0.74625 0.0
H6935 H 0.83117 0.65086 0.77495 0.0
H6936 H 0.87649 0.63461 0.75535 0.0
H6937 H 0.86631 0.63581 0.72693 0.0
H6938 H 0.86523 0.61395 0.77676 0.0
H6939 H 0.87247 0.6724 0.77671 0.0
H6940 H 0.8647 0.70094 0.77283 0.0
H6941 H 0.82768 0.69465 0.8105 0.0
H6942 H 0.83509 0.66599 0.81445 0.0
H6943 H 0.89514 0.60095 0.85638 0.0
H6944 H 0.89401 0.61767 0.83101 0.0
H6945 H 0.84384 0.62513 0.84092 0.0
H6946 H 0.84492 0.60834 0.86602 0.0
H6947 H 0.86117 0.65268 0.82482 0.0
H6948 H 0.85062 0.59354 0.82026 0.0
H6949 H 0.85771 0.56482 0.82452 0.0
H6950 H 0.90074 0.57282 0.79501 0.0
H6951 H 0.89404 0.60171 0.79086 0.0
C6952 C 0.83347 0.64928 0.74819 0.0
C6953 C 0.84311 0.64446 0.73462 0.0
C6954 C 0.83915 0.64821 0.76452 0.0
C6955 C 0.85463 0.64264 0.7673 0.0
C6956 C 0.86453 0.63887 0.75352 0.0
C6957 C 0.85874 0.6396 0.73733 0.0
C6958 C 0.85977 0.63862 0.78439 0.0
C6959 C 0.86473 0.62263 0.78713 0.0
C6960 C 0.85871 0.64974 0.79806 0.0
C6961 C 0.85427 0.667 0.79579 0.0
C6962 C 0.8626 0.67706 0.78409 0.0
C6963 C 0.85827 0.69327 0.78189 0.0
C6964 C 0.84569 0.6996 0.79139 0.0
C6965 C 0.83743 0.68973 0.80315 0.0
C6966 C 0.8417 0.67351 0.80539 0.0
C6967 C 0.88407 0.60666 0.85338 0.0
C6968 C 0.87004 0.60323 0.86282 0.0
C6969 C 0.88343 0.6162 0.83898 0.0
C6970 C 0.86881 0.62249 0.83412 0.0
C6971 C 0.85522 0.62042 0.84453 0.0
C6972 C 0.8558 0.61069 0.85871 0.0
C6973 C 0.86674 0.62824 0.81689 0.0
C6974 C 0.86212 0.64433 0.81422 0.0
C6975 C 0.86806 0.61726 0.8032 0.0
C6976 C 0.87195 0.59982 0.80544 0.0
C6977 C 0.86166 0.58921 0.8148 0.0
C6978 C 0.86559 0.5729 0.81718 0.0
C6979 C 0.87969 0.56701 0.81008 0.0
C6980 C 0.88985 0.57741 0.80054 0.0
C6981 C 0.886 0.59376 0.79818 0.0
H6982 H 0.88271 0.55439 0.81192 0.0
H6983 H 0.84235 0.71215 0.78967 0.0
H6984 H 0.42533 0.14131 0.15405 0.0
H6985 H 0.41049 0.13934 0.18088 0.0
H6986 H 0.44774 0.16902 0.20455 0.0
H6987 H 0.46261 0.1706 0.17828 0.0
H6988 H 0.43664 0.14764 0.22563 0.0
H6989 H 0.41426 0.18598 0.18689 0.0
H6990 H 0.40175 0.19347 0.16043 0.0
H6991 H 0.36207 0.15982 0.17083 0.0
H6992 H 0.37448 0.152 0.19729 0.0
H6993 H 0.40887 0.20338 0.28324 0.0
H6994 H 0.41502 0.19363 0.25496 0.0
H6995 H 0.37741 0.15614 0.25932 0.0
H6996 H 0.37116 0.16569 0.28775 0.0
H6997 H 0.38416 0.17423 0.22473 0.0
H6998 H 0.40787 0.14231 0.26898 0.0
H6999 H 0.42191 0.14168 0.29587 0.0
H7000 H 0.46178 0.16942 0.27437 0.0
H7001 H 0.44781 0.17054 0.24748 0.0
C7002 C 0.43047 0.14703 0.16512 0.0
C7003 C 0.4449 0.15642 0.16405 0.0
C7004 C 0.42197 0.14596 0.18038 0.0
C7005 C 0.42787 0.15431 0.19461 0.0
C7006 C 0.44291 0.16253 0.19374 0.0
C7007 C 0.45134 0.16356 0.17864 0.0
C7008 C 0.418 0.15625 0.21 0.0
C7009 C 0.42504 0.15319 0.22541 0.0
C7010 C 0.40287 0.16354 0.20973 0.0
C7011 C 0.39538 0.16826 0.19392 0.0
C7012 C 0.40292 0.18011 0.18347 0.0
C7013 C 0.39584 0.18442 0.16849 0.0
C7014 C 0.38115 0.17708 0.16392 0.0
C7015 C 0.37347 0.16546 0.17436 0.0
C7016 C 0.38052 0.16108 0.18935 0.0
C7017 C 0.40161 0.19334 0.27809 0.0
C7018 C 0.38978 0.18506 0.28788 0.0
C7019 C 0.40512 0.18782 0.26192 0.0
C7020 C 0.39678 0.17407 0.25528 0.0
C7021 C 0.38396 0.16676 0.26434 0.0
C7022 C 0.38049 0.17219 0.28059 0.0
C7023 C 0.40312 0.16606 0.24011 0.0
C7024 C 0.3954 0.168 0.22489 0.0
C7025 C 0.41791 0.15825 0.24046 0.0
C7026 C 0.42675 0.15658 0.25626 0.0
C7027 C 0.41962 0.1483 0.27001 0.0
C7028 C 0.42755 0.14788 0.28525 0.0
C7029 C 0.44269 0.15557 0.28683 0.0
C7030 C 0.45004 0.1635 0.27312 0.0
C7031 C 0.44212 0.16401 0.25788 0.0
H7032 H 0.44872 0.15543 0.29868 0.0
H7033 H 0.37568 0.18043 0.15232 0.0
H7034 H 0.90129 0.69016 0.44688 0.0
H7035 H 0.8998 0.6818 0.47628 0.0
H7036 H 0.85631 0.70812 0.48327 0.0
H7037 H 0.8575 0.71613 0.45393 0.0
H7038 H 0.87666 0.7064 0.51279 0.0
H7039 H 0.85025 0.67332 0.46893 0.0
H7040 H 0.85042 0.65834 0.44195 0.0
H7041 H 0.8868 0.62742 0.4598 0.0
H7042 H 0.88699 0.64244 0.48683 0.0
H7043 H 0.82475 0.6673 0.5685 0.0
H7044 H 0.83389 0.67643 0.54083 0.0
H7045 H 0.8723 0.6426 0.54163 0.0
H7046 H 0.86331 0.63332 0.56929 0.0
H7047 H 0.85916 0.64752 0.5095 0.0
H7048 H 0.88029 0.67789 0.5565 0.0
H7049 H 0.87827 0.69308 0.58326 0.0
H7050 H 0.85111 0.7297 0.55962 0.0
H7051 H 0.85259 0.71449 0.53279 0.0
C7052 C 0.89176 0.69462 0.45489 0.0
C7053 C 0.87927 0.70338 0.44824 0.0
C7054 C 0.89098 0.68993 0.47162 0.0
C7055 C 0.87786 0.69425 0.48169 0.0
C7056 C 0.86651 0.70475 0.47558 0.0
C7057 C 0.86711 0.70914 0.45883 0.0
C7058 C 0.87381 0.68506 0.49691 0.0
C7059 C 0.87293 0.69352 0.51219 0.0
C7060 C 0.86902 0.66827 0.49589 0.0
C7061 C 0.86879 0.65911 0.47977 0.0
C7062 C 0.85837 0.66341 0.46704 0.0
C7063 C 0.85839 0.65491 0.45175 0.0
C7064 C 0.86865 0.64197 0.44914 0.0
C7065 C 0.87888 0.63748 0.46183 0.0
C7066 C 0.87894 0.64598 0.47713 0.0
C7067 C 0.83487 0.66146 0.56261 0.0
C7068 C 0.84373 0.65008 0.57127 0.0
C7069 C 0.84006 0.6667 0.54685 0.0
C7070 C 0.85403 0.66052 0.53966 0.0
C7071 C 0.86163 0.64764 0.54725 0.0
C7072 C 0.85649 0.6424 0.56304 0.0
C7073 C 0.86179 0.6689 0.52539 0.0
C7074 C 0.86328 0.66028 0.51027 0.0
C7075 C 0.86706 0.68557 0.52659 0.0
C7076 C 0.86641 0.69494 0.54265 0.0
C7077 C 0.87376 0.6891 0.55703 0.0
C7078 C 0.87272 0.69771 0.57221 0.0
C7079 C 0.86452 0.71231 0.57315 0.0
C7080 C 0.85742 0.71836 0.55888 0.0
C7081 C 0.85835 0.70974 0.54368 0.0
H7082 H 0.86367 0.71891 0.58492 0.0
H7083 H 0.86865 0.63539 0.43731 0.0
H7084 H 0.32195 0.1127 0.74105 0.0
H7085 H 0.32838 0.11178 0.77053 0.0
H7086 H 0.34456 0.16264 0.7693 0.0
H7087 H 0.33819 0.1636 0.73935 0.0
H7088 H 0.36674 0.14298 0.78283 0.0
H7089 H 0.31165 0.15228 0.79412 0.0
H7090 H 0.28241 0.1492 0.79097 0.0
H7091 H 0.28385 0.09801 0.80235 0.0
H7092 H 0.31312 0.10076 0.80574 0.0
H7093 H 0.3785 0.11586 0.87088 0.0
H7094 H 0.37197 0.13319 0.84695 0.0
H7095 H 0.35342 0.09034 0.82059 0.0
H7096 H 0.35986 0.0732 0.84404 0.0
H7097 H 0.33132 0.11647 0.826 0.0
H7098 H 0.3863 0.10609 0.80733 0.0
H7099 H 0.41565 0.10817 0.81029 0.0
H7100 H 0.41416 0.1607 0.8125 0.0
H7101 H 0.38474 0.15891 0.80976 0.0
C7102 C 0.32664 0.1238 0.74707 0.0
C7103 C 0.32969 0.13819 0.73788 0.0
C7104 C 0.33018 0.1233 0.764 0.0
C7105 C 0.33678 0.13719 0.77219 0.0
C7106 C 0.33936 0.15182 0.76322 0.0
C7107 C 0.33567 0.15237 0.74617 0.0
C7108 C 0.34242 0.13551 0.78955 0.0
C7109 C 0.35891 0.13769 0.79251 0.0
C7110 C 0.33224 0.12852 0.80214 0.0
C7111 C 0.31461 0.12674 0.80011 0.0
C7112 C 0.30576 0.14034 0.79584 0.0
C7113 C 0.28917 0.13864 0.79398 0.0
C7114 C 0.28129 0.12338 0.79622 0.0
C7115 C 0.28997 0.10981 0.80054 0.0
C7116 C 0.30656 0.11145 0.80253 0.0
C7117 C 0.3734 0.11018 0.85978 0.0
C7118 C 0.36944 0.09328 0.85937 0.0
C7119 C 0.36962 0.12006 0.84621 0.0
C7120 C 0.36197 0.11302 0.83221 0.0
C7121 C 0.35909 0.09601 0.83141 0.0
C7122 C 0.3628 0.08624 0.84482 0.0
C7123 C 0.35565 0.12305 0.81874 0.0
C7124 C 0.33901 0.12243 0.81661 0.0
C7125 C 0.36569 0.13133 0.80693 0.0
C7126 C 0.38332 0.13236 0.80861 0.0
C7127 C 0.39221 0.11808 0.80864 0.0
C7128 C 0.40886 0.1192 0.81023 0.0
C7129 C 0.41676 0.13456 0.81166 0.0
C7130 C 0.40802 0.14882 0.81144 0.0
C7131 C 0.39137 0.14776 0.80987 0.0
H7132 H 0.42965 0.1354 0.81287 0.0
H7133 H 0.26844 0.12212 0.79476 0.0
H7134 H 0.9493 0.65514 0.06334 0.0
H7135 H 0.93671 0.65275 0.03573 0.0
H7136 H 0.8963 0.62605 0.05796 0.0
H7137 H 0.90861 0.62863 0.08538 0.0
H7138 H 0.91231 0.60862 0.03228 0.0
H7139 H 0.89006 0.66161 0.04184 0.0
H7140 H 0.89132 0.69121 0.04846 0.0
H7141 H 0.92206 0.70007 1.00555 0.0
H7142 H 0.92117 0.67048 0.9988 0.0
H7143 H 0.87625 0.58845 0.95529 0.0
H7144 H 0.87811 0.59954 0.98395 0.0
H7145 H 0.91146 0.63761 0.96651 0.0
H7146 H 0.9089 0.62729 0.93808 0.0
H7147 H 0.89673 0.64973 0.99091 0.0
H7148 H 0.92266 0.59851 0.98267 0.0
H7149 H 0.92405 0.56914 0.97536 0.0
H7150 H 0.89039 0.55699 0.01502 0.0
H7151 H 0.88858 0.58634 0.02237 0.0
C7152 C 0.93738 0.64952 0.06245 0.0
C7153 C 0.92993 0.64215 0.07658 0.0
C7154 C 0.93026 0.64795 0.04662 0.0
C7155 C 0.91563 0.63899 0.04471 0.0
C7156 C 0.90762 0.63288 0.05905 0.0
C7157 C 0.91462 0.63453 0.07478 0.0
C7158 C 0.9095 0.63432 0.02779 0.0
C7159 C 0.90865 0.6176 0.02332 0.0
C7160 C 0.90517 0.64601 0.0159 0.0
C7161 C 0.90566 0.6638 0.0199 0.0
C7162 C 0.8972 0.66985 0.0339 0.0
C7163 C 0.89782 0.68663 0.03766 0.0
C7164 C 0.90679 0.69751 0.02746 0.0
C7165 C 0.91513 0.69163 0.01345 0.0
C7166 C 0.91455 0.67485 0.00964 0.0
C7167 C 0.88348 0.59955 0.9575 0.0
C7168 C 0.89258 0.60682 0.94437 0.0
C7169 C 0.88476 0.60576 0.97396 0.0
C7170 C 0.8954 0.61914 0.97764 0.0
C7171 C 0.9033 0.62722 0.96424 0.0
C7172 C 0.90184 0.62122 0.94788 0.0
C7173 C 0.89958 0.62396 0.99527 0.0
C7174 C 0.90019 0.64069 0.99989 0.0
C7175 C 0.90412 0.6123 1.0072 0.0
C7176 C 0.90534 0.59463 1.00294 0.0
C7177 C 0.91548 0.58958 0.98976 0.0
C7178 C 0.91634 0.57294 0.98561 0.0
C7179 C 0.90728 0.56121 0.99469 0.0
C7180 C 0.89737 0.5661 0.00797 0.0
C7181 C 0.89641 0.58273 0.01213 0.0
H7182 H 0.90796 0.54834 0.99147 0.0
H7183 H 0.90726 0.7105 0.03039 0.0
H7184 H 0.96194 0.40803 0.04542 0.0
H7185 H 0.98857 0.42052 0.04998 0.0
H7186 H 0.99962 0.38055 0.08224 0.0
H7187 H 0.97309 0.36795 0.07785 0.0
H7188 H 1.00007 0.41334 0.09721 0.0
H7189 H 0.01866 0.38331 0.04764 0.0
H7190 H 0.01974 0.37598 0.01761 0.0
H7191 H 0.02969 0.42645 1.00515 0.0
H7192 H 0.02852 0.43412 0.03511 0.0
H7193 H 0.07978 0.40776 0.11838 0.0
H7194 H 0.05175 0.40688 0.1105 0.0
H7195 H 0.06151 0.44617 0.07546 0.0
H7196 H 0.08969 0.44613 0.08217 0.0
H7197 H 0.04792 0.42224 0.06036 0.0
H7198 H 0.03839 0.44965 0.11106 0.0
H7199 H 0.03819 0.45701 0.14093 0.0
H7200 H 1.01181 0.41226 0.15251 0.0
H7201 H 1.01183 0.40448 0.12269 0.0
C7202 C 0.97019 0.40166 0.05313 0.0
C7203 C 0.96533 0.38727 0.06172 0.0
C7204 C 0.98535 0.40883 0.05568 0.0
C7205 C 0.99572 0.40157 0.06671 0.0
C7206 C 0.99153 0.38636 0.07388 0.0
C7207 C 0.97643 0.37917 0.0713 0.0
C7208 C 1.01014 0.41051 0.0724 0.0
C7209 C 1.01069 0.41524 0.08933 0.0
C7210 C 0.02334 0.41387 0.06163 0.0
C7211 C 0.02329 0.40932 0.0436 0.0
C7212 C 0.02082 0.39288 0.03849 0.0
C7213 C 0.02151 0.38866 0.02148 0.0
C7214 C 0.02473 0.40075 0.00949 0.0
C7215 C 0.02716 0.41711 0.01445 0.0
C7216 C 0.02649 0.4214 0.03144 0.0
C7217 C 0.07591 0.41636 0.10918 0.0
C7218 C 0.08693 0.42697 0.10089 0.0
C7219 C 0.05986 0.41601 0.10484 0.0
C7220 C 0.05457 0.42659 0.0925 0.0
C7221 C 0.06538 0.43794 0.08502 0.0
C7222 C 0.08148 0.43795 0.08898 0.0
C7223 C 0.03846 0.42399 0.08568 0.0
C7224 C 0.03737 0.42073 0.06841 0.0
C7225 C 0.02477 0.42199 0.09623 0.0
C7226 C 0.02496 0.42652 0.1144 0.0
C7227 C 0.03253 0.4413 0.11988 0.0
C7228 C 0.03247 0.44557 0.13687 0.0
C7229 C 0.02498 0.43513 0.14861 0.0
C7230 C 1.01755 0.42038 0.14339 0.0
C7231 C 1.01752 0.41607 0.1264 0.0
H7232 H 0.02496 0.43846 0.16177 0.0
H7233 H 0.02552 0.39742 0.99637 0.0
H7234 H 0.58029 0.3614 0.12052 0.0
H7235 H 0.55701 0.37899 0.12124 0.0
H7236 H 0.57282 0.39977 0.16839 0.0
H7237 H 0.59594 0.38284 0.16741 0.0
H7238 H 0.53468 0.37511 0.14371 0.0
H7239 H 0.55937 0.43475 0.17802 0.0
H7240 H 0.58229 0.4545 0.17503 0.0
H7241 H 0.58767 0.44115 0.12315 0.0
H7242 H 0.56463 0.42148 0.12573 0.0
H7243 H 0.47998 0.39759 0.20433 0.0
H7244 H 0.50571 0.39215 0.19074 0.0
H7245 H 0.50205 0.43537 0.16053 0.0
H7246 H 0.47678 0.44128 0.17444 0.0
H7247 H 0.53168 0.43153 0.16703 0.0
H7248 H 0.48933 0.3978 0.14578 0.0
H7249 H 0.46587 0.3785 0.14665 0.0
H7250 H 0.49463 0.34141 0.16722 0.0
H7251 H 0.5182 0.36058 0.16682 0.0
C7252 C 0.57904 0.37026 0.13061 0.0
C7253 C 0.5897 0.37075 0.14398 0.0
C7254 C 0.56576 0.38022 0.13106 0.0
C7255 C 0.56323 0.39079 0.14481 0.0
C7256 C 0.57465 0.39207 0.15745 0.0
C7257 C 0.58779 0.38221 0.15699 0.0
C7258 C 0.54756 0.39816 0.14791 0.0
C7259 C 0.53394 0.38755 0.1485 0.0
C7260 C 0.54651 0.41451 0.15378 0.0
C7261 C 0.56022 0.42661 0.15208 0.0
C7262 C 0.56532 0.43613 0.16592 0.0
C7263 C 0.57838 0.44728 0.16431 0.0
C7264 C 0.58643 0.44908 0.14892 0.0
C7265 C 0.58143 0.43973 0.13508 0.0
C7266 C 0.56838 0.42856 0.13661 0.0
C7267 C 0.48486 0.40618 0.19513 0.0
C7268 C 0.47615 0.41961 0.19013 0.0
C7269 C 0.49947 0.40297 0.18725 0.0
C7270 C 0.5054 0.41302 0.17418 0.0
C7271 C 0.49753 0.42731 0.17038 0.0
C7272 C 0.48305 0.43064 0.17836 0.0
C7273 C 0.51925 0.40812 0.16381 0.0
C7274 C 0.53235 0.41924 0.16183 0.0
C7275 C 0.51968 0.39238 0.15622 0.0
C7276 C 0.50554 0.38071 0.15638 0.0
C7277 C 0.49064 0.38557 0.15061 0.0
C7278 C 0.47731 0.37465 0.15102 0.0
C7279 C 0.47875 0.35876 0.15702 0.0
C7280 C 0.49353 0.35374 0.16259 0.0
C7281 C 0.50688 0.36463 0.16227 0.0
H7282 H 0.46842 0.35032 0.15732 0.0
H7283 H 0.59655 0.45771 0.1477 0.0
H7284 H 0.68568 0.82996 0.36718 0.0
H7285 H 0.66728 0.80629 0.36648 0.0
H7286 H 0.63097 0.83414 0.39178 0.0
H7287 H 0.64969 0.85784 0.39306 0.0
H7288 H 0.637 0.80977 0.40962 0.0
H7289 H 0.62289 0.81293 0.35354 0.0
H7290 H 0.62573 0.81792 0.32323 0.0
H7291 H 0.65773 0.77817 0.31827 0.0
H7292 H 0.65533 0.77307 0.34857 0.0
H7293 H 0.62139 0.7263 0.42892 0.0
H7294 H 0.61398 0.75078 0.41381 0.0
H7295 H 0.66086 0.75366 0.39019 0.0
H7296 H 0.66837 0.72931 0.40516 0.0
H7297 H 0.63498 0.76339 0.36899 0.0
H7298 H 0.65665 0.77159 0.42642 0.0
H7299 H 0.65402 0.76512 0.45651 0.0
H7300 H 0.60674 0.78402 0.4579 0.0
H7301 H 0.60895 0.79019 0.42769 0.0
C7302 C 0.67362 0.83126 0.37209 0.0
C7303 C 0.66928 0.84558 0.38062 0.0
C7304 C 0.66296 0.81771 0.37151 0.0
C7305 C 0.64768 0.81837 0.37913 0.0
C7306 C 0.64271 0.83332 0.3859 0.0
C7307 C 0.65345 0.84682 0.3867 0.0
C7308 C 0.63893 0.80281 0.38346 0.0
C7309 C 0.63588 0.79982 0.40056 0.0
C7310 C 0.63738 0.78973 0.37175 0.0
C7311 C 0.63886 0.79258 0.3534 0.0
C7312 C 0.63059 0.80528 0.34602 0.0
C7313 C 0.63212 0.80813 0.32882 0.0
C7314 C 0.64189 0.79836 0.31883 0.0
C7315 C 0.65013 0.7857 0.32601 0.0
C7316 C 0.64864 0.78279 0.34321 0.0
C7317 C 0.63004 0.73203 0.42032 0.0
C7318 C 0.64559 0.72615 0.41847 0.0
C7319 C 0.6257 0.74586 0.41158 0.0
C7320 C 0.63687 0.75391 0.40088 0.0
C7321 C 0.65204 0.74746 0.39826 0.0
C7322 C 0.6564 0.73374 0.40705 0.0
C7323 C 0.63425 0.77059 0.39495 0.0
C7324 C 0.63517 0.77366 0.37772 0.0
C7325 C 0.63377 0.78382 0.40646 0.0
C7326 C 0.63288 0.78116 0.4248 0.0
C7327 C 0.64568 0.77432 0.43315 0.0
C7328 C 0.64424 0.77063 0.45019 0.0
C7329 C 0.63016 0.77401 0.45906 0.0
C7330 C 0.61758 0.78129 0.45097 0.0
C7331 C 0.61891 0.78486 0.43389 0.0
H7332 H 0.62906 0.77115 0.47225 0.0
H7333 H 0.64307 0.8006 0.30552 0.0
H7334 H 0.22888 0.93258 0.5766 0.0
H7335 H 0.25551 0.92181 0.57065 0.0
H7336 H 0.27161 0.94015 0.61857 0.0
H7337 H 0.24514 0.95053 0.62472 0.0
H7338 H 0.29385 0.93911 0.58037 0.0
H7339 H 0.26826 0.90193 0.635 0.0
H7340 H 0.24236 0.88866 0.64353 0.0
H7341 H 0.23177 0.87802 0.59206 0.0
H7342 H 0.25759 0.89126 0.58322 0.0
H7343 H 0.33075 0.94089 0.65174 0.0
H7344 H 0.3162 0.939 0.62591 0.0
H7345 H 0.32423 0.88707 0.62263 0.0
H7346 H 0.33868 0.88884 0.64913 0.0
H7347 H 0.29424 0.89219 0.6194 0.0
H7348 H 0.33836 0.91263 0.58908 0.0
H7349 H 0.36346 0.92867 0.58342 0.0
H7350 H 0.3382 0.97341 0.58755 0.0
H7351 H 0.31301 0.95772 0.59344 0.0
C7352 C 0.2383 0.93474 0.5856 0.0
C7353 C 0.23502 0.94214 0.60122 0.0
C7354 C 0.25344 0.92863 0.58215 0.0
C7355 C 0.26535 0.93019 0.59421 0.0
C7356 C 0.26247 0.93892 0.60912 0.0
C7357 C 0.24737 0.94473 0.61268 0.0
C7358 C 0.27978 0.92049 0.59334 0.0
C7359 C 0.29419 0.92846 0.58835 0.0
C7360 C 0.28003 0.90618 0.60311 0.0
C7361 C 0.26489 0.89746 0.60845 0.0
C7362 C 0.26049 0.89657 0.62552 0.0
C7363 C 0.2458 0.88913 0.63041 0.0
C7364 C 0.23547 0.88244 0.61836 0.0
C7365 C 0.2398 0.88319 0.60139 0.0
C7366 C 0.25443 0.89068 0.59642 0.0
C7367 C 0.32963 0.92907 0.64549 0.0
C7368 C 0.33572 0.91498 0.65255 0.0
C7369 C 0.32155 0.92805 0.63047 0.0
C7370 C 0.31956 0.91297 0.62198 0.0
C7371 C 0.32591 0.89887 0.62881 0.0
C7372 C 0.33397 0.89988 0.64401 0.0
C7373 C 0.30831 0.9119 0.6079 0.0
C7374 C 0.29443 0.90191 0.61021 0.0
C7375 C 0.30867 0.92423 0.59551 0.0
C7376 C 0.3237 0.93391 0.59152 0.0
C7377 C 0.33814 0.92589 0.58875 0.0
C7378 C 0.3524 0.93494 0.58553 0.0
C7379 C 0.35241 0.95205 0.58506 0.0
C7380 C 0.33816 0.96015 0.58781 0.0
C7381 C 0.32385 0.95117 0.59101 0.0
H7382 H 0.36348 0.95903 0.58261 0.0
H7383 H 0.2241 0.87671 0.62217 0.0
H7384 H 0.63415 0.45324 0.38181 0.0
H7385 H 0.64216 0.47827 0.39709 0.0
H7386 H 0.59695 0.47663 0.42415 0.0
H7387 H 0.58888 0.4516 0.40909 0.0
H7388 H 0.60655 0.5076 0.41288 0.0
H7389 H 0.62666 0.46418 0.44425 0.0
H7390 H 0.64057 0.4385 0.44863 0.0
H7391 H 0.68482 0.4615 0.43123 0.0
H7392 H 0.67111 0.48726 0.42648 0.0
H7393 H 0.63132 0.57156 0.46311 0.0
H7394 H 0.62578 0.54209 0.46147 0.0
H7395 H 0.66435 0.5375 0.42529 0.0
H7396 H 0.67008 0.56704 0.42685 0.0
H7397 H 0.65613 0.50789 0.44639 0.0
H7398 H 0.63329 0.54864 0.40927 0.0
H7399 H 0.61865 0.5737 0.40395 0.0
H7400 H 0.57835 0.55449 0.4327 0.0
H7401 H 0.59293 0.52944 0.4385 0.0
C7402 C 0.62578 0.45841 0.39074 0.0
C7403 C 0.61094 0.45047 0.39435 0.0
C7404 C 0.63045 0.47254 0.39959 0.0
C7405 C 0.62026 0.47891 0.41197 0.0
C7406 C 0.60501 0.47167 0.41477 0.0
C7407 C 0.6004 0.45746 0.40609 0.0
C7408 C 0.62556 0.4932 0.42198 0.0
C7409 C 0.61717 0.50758 0.42051 0.0
C7410 C 0.63944 0.49302 0.43186 0.0
C7411 C 0.64782 0.47762 0.43487 0.0
C7412 C 0.63933 0.46373 0.44123 0.0
C7413 C 0.64718 0.44917 0.4438 0.0
C7414 C 0.66356 0.44836 0.44018 0.0
C7415 C 0.67213 0.46214 0.43402 0.0
C7416 C 0.66433 0.47674 0.4314 0.0
C7417 C 0.639 0.56424 0.45522 0.0
C7418 C 0.65072 0.57162 0.44457 0.0
C7419 C 0.63591 0.54739 0.45447 0.0
C7420 C 0.64447 0.53783 0.44302 0.0
C7421 C 0.65762 0.5448 0.43415 0.0
C7422 C 0.66071 0.56169 0.43487 0.0
C7423 C 0.63726 0.52228 0.43696 0.0
C7424 C 0.64529 0.50772 0.43911 0.0
C7425 C 0.62293 0.52219 0.42776 0.0
C7426 C 0.61428 0.53732 0.42452 0.0
C7427 C 0.6214 0.54987 0.41465 0.0
C7428 C 0.6131 0.56404 0.41151 0.0
C7429 C 0.59759 0.56568 0.41801 0.0
C7430 C 0.59038 0.5532 0.42772 0.0
C7431 C 0.59866 0.53904 0.43096 0.0
H7432 H 0.59113 0.57656 0.4154 0.0
H7433 H 0.66962 0.43707 0.44217 0.0
H7434 H 0.21343 0.86315 0.18058 0.0
H7435 H 0.24029 0.8757 0.18317 0.0
H7436 H 0.2554 0.8502 0.13833 0.0
H7437 H 0.22869 0.83731 0.13587 0.0
H7438 H 0.279 0.85274 0.15962 0.0
H7439 H 0.24021 0.8889 0.13684 0.0
H7440 H 0.2153 0.9042 0.1377 0.0
H7441 H 0.23139 0.93046 0.18153 0.0
H7442 H 0.25633 0.91514 0.18103 0.0
H7443 H 0.31913 0.91055 0.10601 0.0
H7444 H 0.29523 0.9084 0.12392 0.0
H7445 H 0.324 0.89439 0.16536 0.0
H7446 H 0.34786 0.89593 0.14725 0.0
H7447 H 0.27954 0.91333 0.15386 0.0
H7448 H 0.31219 0.85837 0.17626 0.0
H7449 H 0.33536 0.84158 0.16893 0.0
H7450 H 0.32909 0.85145 0.11676 0.0
H7451 H 0.30605 0.86841 0.12384 0.0
C7452 C 0.22258 0.85995 0.17146 0.0
C7453 C 0.21891 0.84956 0.15777 0.0
C7454 C 0.23789 0.86715 0.17297 0.0
C7455 C 0.24966 0.86419 0.16072 0.0
C7456 C 0.24641 0.85271 0.14787 0.0
C7457 C 0.23114 0.84537 0.14645 0.0
C7458 C 0.26477 0.87418 0.16011 0.0
C7459 C 0.27916 0.86602 0.15879 0.0
C7460 C 0.26492 0.8915 0.15876 0.0
C7461 C 0.25 0.90074 0.15903 0.0
C7462 C 0.23837 0.89786 0.14673 0.0
C7463 C 0.22426 0.90654 0.14714 0.0
C7464 C 0.22174 0.91826 0.15969 0.0
C7465 C 0.23334 0.92135 0.17184 0.0
C7466 C 0.24746 0.91267 0.1715 0.0
C7467 C 0.3205 0.90807 0.11921 0.0
C7468 C 0.33514 0.90302 0.12525 0.0
C7469 C 0.30681 0.9068 0.12946 0.0
C7470 C 0.30785 0.90065 0.14576 0.0
C7471 C 0.32297 0.89883 0.1527 0.0
C7472 C 0.3366 0.89979 0.14238 0.0
C7473 C 0.29368 0.89183 0.15309 0.0
C7474 C 0.27947 0.90016 0.1556 0.0
C7475 C 0.29352 0.87455 0.15487 0.0
C7476 C 0.30758 0.86475 0.1506 0.0
C7477 C 0.31584 0.85699 0.16325 0.0
C7478 C 0.32895 0.84748 0.15914 0.0
C7479 C 0.33375 0.84551 0.1424 0.0
C7480 C 0.32544 0.85305 0.12973 0.0
C7481 C 0.31241 0.86266 0.13379 0.0
H7482 H 0.34387 0.8381 0.13926 0.0
H7483 H 0.21081 0.92497 0.15999 0.0
H7484 H 0.96313 0.06538 0.58895 0.0
H7485 H 0.95616 0.03599 0.58473 0.0
H7486 H 0.92148 0.03803 0.62525 0.0
H7487 H 0.92856 0.06688 0.62968 0.0
H7488 H 0.93452 1.01106 0.62843 0.0
H7489 H 0.91238 0.03647 0.58064 0.0
H7490 H 0.91321 0.05332 0.55515 0.0
H7491 H 0.94617 0.02067 0.53178 0.0
H7492 H 0.94571 1.00374 0.55724 0.0
H7493 H 0.89155 0.93655 0.57856 0.0
H7494 H 0.89755 0.96616 0.58258 0.0
H7495 H 0.93905 0.95516 0.61104 0.0
H7496 H 0.93297 0.9259 0.6073 0.0
H7497 H 0.92149 0.98678 0.57296 0.0
H7498 H 0.9493 0.98468 0.63875 0.0
H7499 H 0.94606 0.96897 0.66492 0.0
H7500 H 0.89708 0.9567 0.65307 0.0
H7501 H 0.89996 0.97249 0.62694 0.0
C7502 C 0.95405 0.05957 0.597 0.0
C7503 C 0.94648 0.06887 0.60968 0.0
C7504 C 0.94993 0.04263 0.5945 0.0
C7505 C 0.93802 0.03436 0.60451 0.0
C7506 C 0.9307 0.04369 0.61725 0.0
C7507 C 0.93479 0.06045 0.61975 0.0
C7508 C 0.9331 0.01618 0.60211 0.0
C7509 C 0.93179 1.00587 0.61621 0.0
C7510 C 0.92907 1.00896 0.58634 0.0
C7511 C 0.92914 0.01894 0.57092 0.0
C7512 C 0.91988 0.03294 0.5701 0.0
C7513 C 0.92028 0.0425 0.55566 0.0
C7514 C 0.92979 0.03811 0.54188 0.0
C7515 C 0.93884 0.02408 0.54248 0.0
C7516 C 0.93851 0.01449 0.55691 0.0
C7517 C 0.90162 0.94041 0.58619 0.0
C7518 C 0.91146 0.92851 0.59296 0.0
C7519 C 0.90526 0.9575 0.58825 0.0
C7520 C 0.9188 0.96335 0.59728 0.0
C7521 C 0.92838 0.9514 0.60428 0.0
C7522 C 0.9248 0.93445 0.60217 0.0
C7523 C 0.92315 0.9817 0.59928 0.0
C7524 C 0.92433 0.992 0.58514 0.0
C7525 C 0.9268 0.98905 0.61507 0.0
C7526 C 0.92491 0.97964 0.63082 0.0
C7527 C 0.93782 0.97868 0.64176 0.0
C7528 C 0.93605 0.96975 0.65658 0.0
C7529 C 0.92139 0.9618 0.66063 0.0
C7530 C 0.90845 0.96281 0.64989 0.0
C7531 C 0.91015 0.97173 0.63507 0.0
H7532 H 0.92005 0.95489 0.6721 0.0
H7533 H 0.93011 0.04556 0.53073 0.0
H7534 H 0.92563 0.6512 0.33784 0.0
H7535 H 0.95317 0.64292 0.33466 0.0
H7536 H 0.96911 0.6846 0.36401 0.0
H7537 H 0.94108 0.69325 0.36694 0.0
H7538 H 0.99239 0.68159 0.34428 0.0
H7539 H 0.96886 0.63675 0.37499 0.0
H7540 H 0.94948 0.6141 0.38174 0.0
H7541 H 0.9604 0.59057 0.33479 0.0
H7542 H 0.97973 0.61318 0.32767 0.0
H7543 H 0.07375 0.65396 0.34644 0.0
H7544 H 0.04611 0.66089 0.35295 0.0
H7545 H 0.02914 0.6213 0.32117 0.0
H7546 H 0.05713 0.61402 0.3151 0.0
H7547 H 1.00653 0.6232 0.34318 0.0
H7548 H 0.03058 0.66913 0.31314 0.0
H7549 H 0.05045 0.69175 0.3079 0.0
H7550 H 0.03896 0.71319 0.35574 0.0
H7551 H 0.01915 0.6906 0.36135 0.0
C7552 C 0.93476 0.6585 0.34426 0.0
C7553 C 0.93014 0.67273 0.35337 0.0
C7554 C 0.95102 0.65359 0.34239 0.0
C7555 C 0.96427 0.66246 0.3495 0.0
C7556 C 0.95976 0.67686 0.35854 0.0
C7557 C 0.94332 0.6818 0.36049 0.0
C7558 C 0.98234 0.65706 0.34695 0.0
C7559 C 0.99523 0.66874 0.34434 0.0
C7560 C 0.98723 0.64032 0.34654 0.0
C7561 C 0.97561 0.62674 0.35073 0.0
C7562 C 0.96705 0.62679 0.36606 0.0
C7563 C 0.95609 0.61396 0.36996 0.0
C7564 C 0.95368 0.60093 0.35868 0.0
C7565 C 0.96226 0.60069 0.3435 0.0
C7566 C 0.97323 0.6135 0.33953 0.0
C7567 C 0.06425 0.6463 0.34107 0.0
C7568 C 0.06847 0.63286 0.33058 0.0
C7569 C 0.04799 0.65062 0.34457 0.0
C7570 C 0.03448 0.64221 0.33739 0.0
C7571 C 0.03864 0.62845 0.32717 0.0
C7572 C 0.05502 0.62403 0.32376 0.0
C7573 C 1.01652 0.64771 0.34042 0.0
C7574 C 1.00365 0.63604 0.34311 0.0
C7575 C 1.0117 0.66447 0.3411 0.0
C7576 C 0.02349 0.6781 0.33771 0.0
C7577 C 0.03234 0.67864 0.32256 0.0
C7578 C 0.04359 0.69145 0.31953 0.0
C7579 C 0.04597 0.70389 0.33149 0.0
C7580 C 0.03708 0.70356 0.34649 0.0
C7581 C 0.02585 0.69075 0.3496 0.0
H7582 H 0.0547 0.71379 0.32913 0.0
H7583 H 0.94518 0.591 0.36172 0.0
H7584 H 0.33484 0.70412 0.14935 0.0
H7585 H 0.34006 0.73325 0.14243 0.0
H7586 H 0.38597 0.7216 0.12112 0.0
H7587 H 0.38059 0.69264 0.12768 0.0
H7588 H 0.39019 0.75083 0.13459 0.0
H7589 H 0.35116 0.72862 0.0975 0.0
H7590 H 0.32588 0.71546 0.08785 0.0
H7591 H 0.29937 0.75409 0.11068 0.0
H7592 H 0.32448 0.76726 0.12088 0.0
H7593 H 0.40164 0.82874 0.0888 0.0
H7594 H 0.39904 0.79963 0.09733 0.0
H7595 H 0.35175 0.80768 0.11727 0.0
H7596 H 0.35414 0.83602 0.10877 0.0
H7597 H 0.34908 0.77979 0.10372 0.0
H7598 H 0.3891 0.8013 0.14174 0.0
H7599 H 0.41499 0.81462 0.14944 0.0
H7600 H 0.44007 0.77727 0.12267 0.0
H7601 H 0.41431 0.76384 0.11466 0.0
C7602 C 0.34628 0.70774 0.1437 0.0
C7603 C 0.35736 0.69553 0.1396 0.0
C7604 C 0.34923 0.72463 0.13939 0.0
C7605 C 0.36347 0.73027 0.13084 0.0
C7606 C 0.37486 0.71819 0.12762 0.0
C7607 C 0.3718 0.70137 0.13165 0.0
C7608 C 0.36638 0.74828 0.12475 0.0
C7609 C 0.38112 0.75698 0.12773 0.0
C7610 C 0.35489 0.75703 0.1157 0.0
C7611 C 0.33971 0.74882 0.11016 0.0
C7612 C 0.33993 0.73419 0.10068 0.0
C7613 C 0.32563 0.72676 0.09506 0.0
C7614 C 0.31104 0.73394 0.09864 0.0
C7615 C 0.3107 0.74855 0.1079 0.0
C7616 C 0.32496 0.75597 0.11367 0.0
C7617 C 0.39073 0.82442 0.09514 0.0
C7618 C 0.37825 0.83546 0.09806 0.0
C7619 C 0.3892 0.80751 0.10014 0.0
C7620 C 0.37511 0.80077 0.10832 0.0
C7621 C 0.36278 0.81186 0.11108 0.0
C7622 C 0.3643 0.82852 0.10618 0.0
C7623 C 0.37273 0.78251 0.11389 0.0
C7624 C 0.35809 0.77371 0.11072 0.0
C7625 C 0.38434 0.77365 0.12265 0.0
C7626 C 0.3998 0.78168 0.12746 0.0
C7627 C 0.40014 0.796 0.13741 0.0
C7628 C 0.41479 0.80355 0.14184 0.0
C7629 C 0.42917 0.79682 0.1365 0.0
C7630 C 0.42893 0.78249 0.12676 0.0
C7631 C 0.41431 0.7749 0.12228 0.0
H7632 H 0.44049 0.80269 0.13995 0.0
H7633 H 0.29997 0.72818 0.09427 0.0
H7634 H 0.30273 0.08974 0.85806 0.0
H7635 H 0.27508 0.09529 0.85105 0.0
H7636 H 0.26011 0.08501 0.90181 0.0
H7637 H 0.28806 0.07949 0.90893 0.0
H7638 H 0.23727 0.07221 0.88196 0.0
H7639 H 0.26328 0.12546 0.88212 0.0
H7640 H 0.28314 0.14713 0.87379 0.0
H7641 H 0.26737 0.14348 0.823 0.0
H7642 H 0.2479 0.12128 0.83083 0.0
H7643 H 0.15604 0.09537 0.87089 0.0
H7644 H 0.1837 0.09291 0.87961 0.0
H7645 H 0.20041 0.11413 0.83302 0.0
H7646 H 0.17247 0.11766 0.82489 0.0
H7647 H 0.22289 0.12161 0.85094 0.0
H7648 H 0.19938 0.06726 0.84875 0.0
H7649 H 0.18179 0.043 0.85507 0.0
H7650 H 0.19368 0.04704 0.90707 0.0
H7651 H 0.21112 0.07144 0.90112 0.0
C7652 C 0.2937 0.08871 0.86794 0.0
C7653 C 0.29831 0.08417 0.88427 0.0
C7654 C 0.27755 0.09204 0.86383 0.0
C7655 C 0.26473 0.09096 0.87574 0.0
C7656 C 0.26925 0.08618 0.89206 0.0
C7657 C 0.28554 0.08304 0.89625 0.0
C7658 C 0.24695 0.09446 0.87111 0.0
C7659 C 0.23424 0.08322 0.87541 0.0
C7660 C 0.24227 0.10843 0.86188 0.0
C7661 C 0.25424 0.12153 0.85705 0.0
C7662 C 0.26422 0.12908 0.86912 0.0
C7663 C 0.27544 0.14144 0.86447 0.0
C7664 C 0.27663 0.14656 0.84783 0.0
C7665 C 0.26659 0.13934 0.83582 0.0
C7666 C 0.25548 0.12684 0.84035 0.0
C7667 C 0.16552 0.10009 0.86262 0.0
C7668 C 0.16134 0.10727 0.84724 0.0
C7669 C 0.18175 0.09818 0.86749 0.0
C7670 C 0.19512 0.10261 0.85699 0.0
C7671 C 0.19097 0.11032 0.84177 0.0
C7672 C 0.17464 0.11257 0.83706 0.0
C7673 C 0.213 0.0993 0.86178 0.0
C7674 C 0.22579 0.11058 0.8575 0.0
C7675 C 0.21784 0.08516 0.87074 0.0
C7676 C 0.20644 0.07127 0.87451 0.0
C7677 C 0.19805 0.06311 0.86156 0.0
C7678 C 0.18815 0.04931 0.86508 0.0
C7679 C 0.18667 0.04348 0.88145 0.0
C7680 C 0.19486 0.05158 0.89439 0.0
C7681 C 0.20473 0.0654 0.89097 0.0
H7682 H 0.1793 0.03262 0.88414 0.0
H7683 H 0.28527 0.15619 0.84427 0.0
H7684 H 0.94122 0.73315 0.1552 0.0
H7685 H 0.93631 0.76152 0.16229 0.0
H7686 H 0.93834 0.77367 0.10986 0.0
H7687 H 0.94512 0.7452 0.103 0.0
H7688 H 0.94576 0.79946 0.12162 0.0
H7689 H 0.90055 0.76824 0.14184 0.0
H7690 H 0.88478 0.74709 0.15749 0.0
H7691 H 0.90252 0.76691 0.2039 0.0
H7692 H 0.91854 0.78807 0.18851 0.0
H7693 H 0.89153 0.86506 0.17263 0.0
H7694 H 0.89586 0.83665 0.16308 0.0
H7695 H 0.945 0.85013 0.15069 0.0
H7696 H 0.94044 0.87815 0.15889 0.0
H7697 H 0.9093 0.81165 0.16938 0.0
H7698 H 0.96487 0.82604 0.1257 0.0
H7699 H 0.97394 0.84718 0.10532 0.0
H7700 H 0.92535 0.86029 0.09812 0.0
H7701 H 0.91592 0.83935 0.11846 0.0
C7702 C 0.94075 0.7418 0.14507 0.0
C7703 C 0.94362 0.7364 0.12844 0.0
C7704 C 0.93755 0.75833 0.14918 0.0
C7705 C 0.93597 0.77045 0.13679 0.0
C7706 C 0.93918 0.76511 0.12004 0.0
C7707 C 0.94309 0.74857 0.11599 0.0
C7708 C 0.93127 0.78834 0.14134 0.0
C7709 C 0.93778 0.80186 0.13213 0.0
C7710 C 0.92034 0.79243 0.15469 0.0
C7711 C 0.91091 0.7796 0.16399 0.0
C7712 C 0.90119 0.768 0.15537 0.0
C7713 C 0.89219 0.75602 0.1642 0.0
C7714 C 0.89271 0.7556 0.18168 0.0
C7715 C 0.90218 0.7672 0.19036 0.0
C7716 C 0.91122 0.7792 0.18159 0.0
C7717 C 0.90313 0.86211 0.1674 0.0
C7718 C 0.91537 0.87459 0.16616 0.0
C7719 C 0.90575 0.84557 0.16204 0.0
C7720 C 0.92079 0.84059 0.15544 0.0
C7721 C 0.933 0.85306 0.15473 0.0
C7722 C 0.93032 0.86947 0.15966 0.0
C7723 C 0.92403 0.82263 0.14987 0.0
C7724 C 0.9173 0.80915 0.15891 0.0
C7725 C 0.93401 0.81851 0.13579 0.0
C7726 C 0.9397 0.8312 0.12368 0.0
C7727 C 0.95612 0.8334 0.11973 0.0
C7728 C 0.96132 0.84532 0.10817 0.0
C7729 C 0.95024 0.85494 0.10035 0.0
C7730 C 0.93392 0.8528 0.10417 0.0
C7731 C 0.92863 0.84096 0.11575 0.0
H7732 H 0.95432 0.86411 0.09138 0.0
H7733 H 0.88573 0.74632 0.18849 0.0
H7734 H 0.33704 0.66193 0.87602 0.0
H7735 H 0.30858 0.65459 0.88218 0.0
H7736 H 0.30376 0.70059 0.90836 0.0
H7737 H 0.33197 0.70739 0.90291 0.0
H7738 H 0.28788 0.68211 0.92597 0.0
H7739 H 0.28575 0.68437 0.86562 0.0
H7740 H 0.29252 0.67651 0.83652 0.0
H7741 H 0.27688 0.62675 0.84655 0.0
H7742 H 0.27015 0.63435 0.87576 0.0
H7743 H 0.20402 0.68546 0.93767 0.0
H7744 H 0.2315 0.68829 0.92783 0.0
H7745 H 0.22879 0.63896 0.90831 0.0
H7746 H 0.2004 0.63611 0.91805 0.0
H7747 H 0.24863 0.65578 0.88749 0.0
H7748 H 0.25077 0.65266 0.94689 0.0
H7749 H 0.24573 0.65902 0.97673 0.0
H7750 H 0.26256 0.70882 0.96901 0.0
H7751 H 0.26758 0.7028 0.93908 0.0
C7752 C 0.32988 0.67068 0.88277 0.0
C7753 C 0.33734 0.68552 0.88865 0.0
C7754 C 0.31327 0.66643 0.8864 0.0
C7755 C 0.3031 0.6769 0.89586 0.0
C7756 C 0.31062 0.69186 0.90123 0.0
C7757 C 0.32709 0.69592 0.89787 0.0
C7758 C 0.28516 0.67251 0.90097 0.0
C7759 C 0.27942 0.67663 0.91723 0.0
C7760 C 0.27347 0.66453 0.8904 0.0
C7761 C 0.27759 0.65993 0.87291 0.0
C7762 C 0.28383 0.67176 0.86163 0.0
C7763 C 0.28765 0.66734 0.84512 0.0
C7764 C 0.28517 0.65113 0.8397 0.0
C7765 C 0.27883 0.63931 0.85077 0.0
C7766 C 0.275 0.64367 0.8673 0.0
C7767 C 0.20896 0.67497 0.93132 0.0
C7768 C 0.19924 0.66042 0.92903 0.0
C7769 C 0.22518 0.67664 0.9257 0.0
C7770 C 0.2332 0.66381 0.9175 0.0
C7771 C 0.2235 0.64928 0.91465 0.0
C7772 C 0.20698 0.64759 0.92029 0.0
C7773 C 0.25139 0.66595 0.91227 0.0
C7774 C 0.25714 0.66137 0.89611 0.0
C7775 C 0.26322 0.67342 0.92294 0.0
C7776 C 0.25944 0.6773 0.94072 0.0
C7777 C 0.25322 0.66502 0.95151 0.0
C7778 C 0.25041 0.66855 0.96846 0.0
C7779 C 0.25385 0.68431 0.97476 0.0
C7780 C 0.25993 0.69662 0.96411 0.0
C7781 C 0.26277 0.69315 0.94716 0.0
H7782 H 0.25192 0.68698 0.98792 0.0
H7783 H 0.28814 0.64772 0.82691 0.0
H7784 H 0.35714 0.96511 0.70343 0.0
H7785 H 0.35412 0.99334 0.69584 0.0
H7786 H 0.399 0.99337 0.66855 0.0
H7787 H 0.40213 0.96415 0.67603 0.0
H7788 H 0.39394 0.02438 0.68755 0.0
H7789 H 0.36569 0.99253 0.64644 0.0
H7790 H 0.34724 0.97069 0.63572 0.0
H7791 H 0.30819 0.99134 0.66335 0.0
H7792 H 0.32645 0.01314 0.67448 0.0
H7793 H 0.37045 0.10452 0.65667 0.0
H7794 H 0.38033 0.07636 0.65821 0.0
H7795 H 0.33492 0.05957 0.67942 0.0
H7796 H 0.32522 0.08714 0.67799 0.0
H7797 H 0.34346 0.03676 0.65945 0.0
H7798 H 0.37197 0.06671 0.70262 0.0
H7799 H 0.39019 0.08842 0.71395 0.0
H7800 H 0.42855 0.07141 0.68259 0.0
H7801 H 0.41048 0.0497 0.67093 0.0
C7802 C 0.36659 0.97081 0.69577 0.0
C7803 C 0.3799 0.96168 0.69034 0.0
C7804 C 0.36473 0.9873 0.69139 0.0
C7805 C 0.3761 0.99593 0.68134 0.0
C7806 C 0.38985 0.98726 0.67627 0.0
C7807 C 0.39169 0.97039 0.6806 0.0
C7808 C 0.37286 0.01362 0.67612 0.0
C7809 C 0.38306 0.02698 0.68104 0.0
C7810 C 0.35851 0.01758 0.66794 0.0
C7811 C 0.34747 1.00444 0.66136 0.0
C7812 C 0.35319 0.99234 0.65034 0.0
C7813 C 0.34277 0.97998 0.64418 0.0
C7814 C 0.32656 0.97962 0.64887 0.0
C7815 C 0.32075 0.99162 0.65974 0.0
C7816 C 0.33113 1.00399 0.66598 0.0
C7817 C 0.3625 0.09482 0.6615 0.0
C7818 C 0.34688 0.09856 0.66715 0.0
C7819 C 0.36825 0.07856 0.66257 0.0
C7820 C 0.35859 0.06532 0.66919 0.0
C7821 C 0.34289 0.0691 0.67427 0.0
C7822 C 0.33728 0.08519 0.67342 0.0
C7823 C 0.36436 0.04766 0.67108 0.0
C7824 C 0.35449 0.03423 0.66568 0.0
C7825 C 0.37899 0.0437 0.6788 0.0
C7826 C 0.38983 0.05673 0.68576 0.0
C7827 C 0.38426 0.06769 0.69805 0.0
C7828 C 0.39456 0.07997 0.70455 0.0
C7829 C 0.41051 0.08133 0.69895 0.0
C7830 C 0.41619 0.07037 0.68688 0.0
C7831 C 0.40592 0.05807 0.68033 0.0
H7832 H 0.41847 0.09085 0.70401 0.0
H7833 H 0.3185 0.97006 0.64406 0.0
H7834 H 0.10599 0.12698 0.40045 0.0
H7835 H 0.07743 0.11965 0.39797 0.0
H7836 H 0.06887 0.1377 0.448 0.0
H7837 H 0.09759 0.14559 0.4503 0.0
H7838 H 0.05244 0.10715 0.44325 0.0
H7839 H 0.05505 0.15777 0.41305 0.0
H7840 H 0.06538 0.17726 0.39167 0.0
H7841 H 0.05376 0.14227 0.35282 0.0
H7842 H 0.04355 0.12247 0.37399 0.0
H7843 H 0.966 0.09281 0.43739 0.0
H7844 H 0.99386 0.10228 0.44191 0.0
H7845 H 1.00268 0.10175 0.38854 0.0
H7846 H 0.97457 0.0937 0.38416 0.0
H7847 H 0.01933 0.12454 0.39629 0.0
H7848 H 0.01867 0.07299 0.42491 0.0
H7849 H 1.00971 0.05193 0.44531 0.0
H7850 H 0.01897 0.08588 0.48575 0.0
H7851 H 0.0278 0.1072 0.46553 0.0
C7852 C 0.09806 0.12997 0.41083 0.0
C7853 C 0.10459 0.13737 0.42548 0.0
C7854 C 0.08147 0.12555 0.40943 0.0
C7855 C 0.07036 0.12791 0.42274 0.0
C7856 C 0.07675 0.13554 0.43736 0.0
C7857 C 0.09339 0.14033 0.43862 0.0
C7858 C 0.05244 0.12218 0.42133 0.0
C7859 C 0.04519 0.11119 0.43306 0.0
C7860 C 0.04258 0.12671 0.40786 0.0
C7861 C 0.04867 0.13859 0.39512 0.0
C7862 C 0.05481 0.15418 0.39996 0.0
C7863 C 0.06062 0.1653 0.38788 0.0
C7864 C 0.06026 0.16099 0.3709 0.0
C7865 C 0.05405 0.14558 0.36597 0.0
C7866 C 0.04823 0.13441 0.37801 0.0
C7867 C 0.97391 0.09446 0.42658 0.0
C7868 C 0.96763 0.09216 0.41034 0.0
C7869 C 0.9902 0.09989 0.42917 0.0
C7870 C 1.00134 0.10276 0.41568 0.0
C7871 C 0.99499 0.10002 0.39948 0.0
C7872 C 0.97864 0.09512 0.39691 0.0
C7873 C 0.01912 0.1091 0.41807 0.0
C7874 C 0.02643 0.12031 0.4065 0.0
C7875 C 0.02912 0.10446 0.43151 0.0
C7876 C 0.02369 0.09175 0.44368 0.0
C7877 C 0.01867 0.076 0.43813 0.0
C7878 C 1.01363 0.06401 0.44967 0.0
C7879 C 1.01371 0.06759 0.46682 0.0
C7880 C 0.01887 0.08314 0.47246 0.0
C7881 C 0.02389 0.09518 0.46096 0.0
H7882 H 1.00982 0.05829 0.47574 0.0
H7883 H 0.06477 0.16961 0.36157 0.0
H7884 H 0.63403 0.88654 0.06802 0.0
H7885 H 0.63048 0.88046 0.03846 0.0
H7886 H 0.65833 0.92425 0.02563 0.0
H7887 H 0.66147 0.93076 0.05564 0.0
H7888 H 0.63337 0.92221 1.0057 0.0
H7889 H 0.67197 0.883 0.01922 0.0
H7890 H 0.68378 0.86088 0.03516 0.0
H7891 H 0.64287 0.8291 0.02497 0.0
H7892 H 0.63071 0.8511 0.00914 0.0
H7893 H 0.63932 0.90104 0.91929 0.0
H7894 H 0.64624 0.90509 0.94857 0.0
H7895 H 0.61074 0.86799 0.96301 0.0
H7896 H 0.60341 0.86402 0.93342 0.0
H7897 H 0.64031 0.86662 0.98152 0.0
H7898 H 0.60105 0.90667 0.97019 0.0
H7899 H 0.58959 0.92838 0.95334 0.0
H7900 H 0.63297 0.95793 0.95821 0.0
H7901 H 0.64479 0.93619 0.97473 0.0
C7902 C 0.63976 0.8948 0.05901 0.0
C7903 C 0.64829 0.90909 0.06456 0.0
C7904 C 0.6377 0.89125 0.04188 0.0
C7905 C 0.64423 0.90168 0.02935 0.0
C7906 C 0.6531 0.91584 0.03478 0.0
C7907 C 0.65515 0.91946 0.05208 0.0
C7908 C 0.64122 0.89793 0.01086 0.0
C7909 C 0.63524 0.9101 1.00046 0.0
C7910 C 0.64308 0.88204 1.00365 0.0
C7911 C 0.65037 0.86876 0.01311 0.0
C7912 C 0.66544 0.87133 0.02047 0.0
C7913 C 0.67221 0.85881 0.02947 0.0
C7914 C 0.66407 0.8436 0.03111 0.0
C7915 C 0.64916 0.84088 0.02371 0.0
C7916 C 0.64233 0.85337 0.0147 0.0
C7917 C 0.63304 0.89347 0.92854 0.0
C7918 C 0.62075 0.88208 0.92363 0.0
C7919 C 0.63701 0.89592 0.94547 0.0
C7920 C 0.62896 0.88706 0.9583 0.0
C7921 C 0.6172 0.87508 0.9535 0.0
C7922 C 0.61307 0.87271 0.93645 0.0
C7923 C 0.63254 0.89085 0.97657 0.0
C7924 C 0.63858 0.87871 0.98684 0.0
C7925 C 0.63084 0.90675 0.98363 0.0
C7926 C 0.62375 0.9199 0.97385 0.0
C7927 C 0.60814 0.9178 0.96766 0.0
C7928 C 0.60159 0.93008 0.95812 0.0
C7929 C 0.61052 0.94455 0.95477 0.0
C7930 C 0.62604 0.94675 0.96089 0.0
C7931 C 0.63265 0.93448 0.97039 0.0
H7932 H 0.60543 0.95405 0.94742 0.0
H7933 H 0.66932 0.83392 0.03809 0.0
H7934 H 0.10637 0.34317 0.69137 0.0
H7935 H 0.10374 0.34932 0.72115 0.0
H7936 H 0.15508 0.34967 0.72565 0.0
H7937 H 0.15782 0.34345 0.6954 0.0
H7938 H 0.14027 0.33275 0.75164 0.0
H7939 H 0.13474 0.38469 0.72715 0.0
H7940 H 0.12461 0.4057 0.70857 0.0
H7941 H 0.07764 0.39924 0.73081 0.0
H7942 H 0.08729 0.37768 0.74907 0.0
H7943 H 0.13133 0.36408 0.83704 0.0
H7944 H 0.13943 0.36285 0.80716 0.0
H7945 H 0.09001 0.35489 0.79367 0.0
H7946 H 0.08201 0.35559 0.82335 0.0
H7947 H 0.10712 0.37798 0.77267 0.0
H7948 H 0.11203 0.32326 0.79359 0.0
H7949 H 0.12201 0.30214 0.81222 0.0
H7950 H 0.17044 0.31512 0.79718 0.0
H7951 H 0.16074 0.33645 0.77858 0.0
C7952 C 0.1172 0.34466 0.69857 0.0
C7953 C 0.13234 0.34285 0.69076 0.0
C7954 C 0.11564 0.34826 0.71573 0.0
C7955 C 0.12917 0.35015 0.7259 0.0
C7956 C 0.14439 0.34834 0.71822 0.0
C7957 C 0.14598 0.3449 0.70084 0.0
C7958 C 0.1271 0.35366 0.74447 0.0
C7959 C 0.13331 0.34288 0.75618 0.0
C7960 C 0.11773 0.36667 0.75068 0.0
C7961 C 0.11173 0.37938 0.73939 0.0
C7962 C 0.12218 0.38753 0.72792 0.0
C7963 C 0.11652 0.39956 0.71743 0.0
C7964 C 0.10047 0.40375 0.71846 0.0
C7965 C 0.09006 0.39595 0.73 0.0
C7966 C 0.09561 0.38375 0.74037 0.0
C7967 C 0.12219 0.36237 0.82767 0.0
C7968 C 0.106 0.36009 0.83263 0.0
C7969 C 0.12684 0.36151 0.81056 0.0
C7970 C 0.11537 0.35868 0.79798 0.0
C7971 C 0.09915 0.35708 0.80297 0.0
C7972 C 0.09457 0.35753 0.82 0.0
C7973 C 0.12008 0.35696 0.77969 0.0
C7974 C 0.11428 0.36802 0.76807 0.0
C7975 C 0.12981 0.34425 0.77356 0.0
C7976 C 0.13568 0.3316 0.78488 0.0
C7977 C 0.12482 0.32174 0.7944 0.0
C7978 C 0.13042 0.30969 0.80491 0.0
C7979 C 0.14685 0.30733 0.80593 0.0
C7980 C 0.15772 0.31699 0.79641 0.0
C7981 C 0.15218 0.32905 0.78587 0.0
H7982 H 0.15117 0.29799 0.81406 0.0
H7983 H 0.09612 0.41309 0.71036 0.0
H7984 H 0.70179 0.84087 0.45584 0.0
H7985 H 0.69624 0.83504 0.48568 0.0
H7986 H 0.67469 0.88194 0.49148 0.0
H7987 H 0.68037 0.88787 0.4622 0.0
H7988 H 0.70523 0.84811 0.51472 0.0
H7989 H 0.64432 0.88107 0.52018 0.0
H7990 H 0.62091 0.88569 0.50268 0.0
H7991 H 0.6319 0.84374 0.4723 0.0
H7992 H 0.65529 0.83881 0.48971 0.0
H7993 H 0.68985 0.86713 0.59962 0.0
H7994 H 0.69286 0.8686 0.56925 0.0
H7995 H 0.65163 0.83571 0.5637 0.0
H7996 H 0.64832 0.83452 0.59438 0.0
H7997 H 0.65143 0.85728 0.53963 0.0
H7998 H 0.69157 0.82259 0.55871 0.0
H7999 H 0.71439 0.81384 0.57525 0.0
H8000 H 0.74374 0.85377 0.55573 0.0
H8001 H 0.72111 0.86288 0.53928 0.0
C8002 C 0.69591 0.84995 0.46349 0.0
C8003 C 0.69161 0.86488 0.45638 0.0
C8004 C 0.69274 0.84662 0.48065 0.0
C8005 C 0.68487 0.85796 0.4911 0.0
C8006 C 0.68061 0.87281 0.48392 0.0
C8007 C 0.68393 0.87621 0.46698 0.0
C8008 C 0.68114 0.85461 0.50945 0.0
C8009 C 0.69347 0.85021 0.52011 0.0
C8010 C 0.66566 0.85667 0.51672 0.0
C8011 C 0.65161 0.85961 0.5062 0.0
C8012 C 0.6417 0.87279 0.50981 0.0
C8013 C 0.62845 0.87548 0.49989 0.0
C8014 C 0.62494 0.86503 0.48636 0.0
C8015 C 0.63466 0.85186 0.48274 0.0
C8016 C 0.64792 0.84912 0.49262 0.0
C8017 C 0.68114 0.86047 0.59201 0.0
C8018 C 0.66876 0.85076 0.59968 0.0
C8019 C 0.68305 0.86113 0.57449 0.0
C8020 C 0.6728 0.85192 0.56387 0.0
C8021 C 0.65985 0.8429 0.57142 0.0
C8022 C 0.65785 0.84233 0.58906 0.0
C8023 C 0.67576 0.85179 0.54505 0.0
C8024 C 0.66324 0.85536 0.53428 0.0
C8025 C 0.69102 0.84873 0.53766 0.0
C8026 C 0.70459 0.84348 0.54782 0.0
C8027 C 0.70285 0.82958 0.55806 0.0
C8028 C 0.71575 0.82455 0.56741 0.0
C8029 C 0.73047 0.83327 0.56656 0.0
C8030 C 0.73233 0.84704 0.55636 0.0
C8031 C 0.71948 0.85213 0.54701 0.0
H8032 H 0.74044 0.82933 0.57379 0.0
H8033 H 0.61467 0.86714 0.4787 0.0
H8034 H 0.18331 0.3629 0.28723 0.0
H8035 H 0.17557 0.36708 0.25804 0.0
H8036 H 0.19101 0.41805 0.26202 0.0
H8037 H 0.19756 0.4142 0.29111 0.0
H8038 H 0.16588 0.4176 0.24608 0.0
H8039 H 0.21199 0.38285 0.24165 0.0
H8040 H 0.22663 0.35744 0.24537 0.0
H8041 H 0.19044 0.32997 0.21849 0.0
H8042 H 0.17543 0.35509 0.21481 0.0
H8043 H 0.18463 0.44387 0.16452 0.0
H8044 H 0.18336 0.43456 0.19329 0.0
H8045 H 0.16107 0.38864 0.17727 0.0
H8046 H 0.16256 0.398 0.14791 0.0
H8047 H 0.18456 0.3831 0.19877 0.0
H8048 H 0.13991 0.41764 0.20093 0.0
H8049 H 0.12415 0.44234 0.19771 0.0
H8050 H 0.15701 0.46992 0.22881 0.0
H8051 H 0.17308 0.44545 0.2321 0.0
C8052 C 0.18492 0.37501 0.28187 0.0
C8053 C 0.19103 0.38819 0.29168 0.0
C8054 C 0.18063 0.37739 0.26505 0.0
C8055 C 0.18284 0.3929 0.25744 0.0
C8056 C 0.18899 0.40596 0.26733 0.0
C8057 C 0.19281 0.4037 0.28413 0.0
C8058 C 0.1787 0.39602 0.2394 0.0
C8059 C 0.17019 0.41009 0.23578 0.0
C8060 C 0.18348 0.38591 0.22572 0.0
C8061 C 0.1925 0.37083 0.22811 0.0
C8062 C 0.2071 0.37137 0.23664 0.0
C8063 C 0.21546 0.35703 0.23874 0.0
C8064 C 0.20947 0.34213 0.23221 0.0
C8065 C 0.19507 0.34152 0.22356 0.0
C8066 C 0.18662 0.35579 0.22148 0.0
C8067 C 0.17925 0.43182 0.16703 0.0
C8068 C 0.17374 0.42168 0.15377 0.0
C8069 C 0.17843 0.42653 0.18364 0.0
C8070 C 0.17199 0.41089 0.18772 0.0
C8071 C 0.16606 0.40079 0.17457 0.0
C8072 C 0.16679 0.40619 0.15777 0.0
C8073 C 0.17247 0.40508 0.20556 0.0
C8074 C 0.18021 0.39052 0.20911 0.0
C8075 C 0.16701 0.41474 0.21923 0.0
C8076 C 0.15773 0.42968 0.21673 0.0
C8077 C 0.14387 0.429 0.20696 0.0
C8078 C 0.13485 0.44295 0.20518 0.0
C8079 C 0.13952 0.45764 0.21315 0.0
C8080 C 0.15335 0.45849 0.22274 0.0
C8081 C 0.16241 0.44458 0.22458 0.0
H8082 H 0.13245 0.46839 0.21188 0.0
H8083 H 0.216 0.33107 0.23382 0.0
H8084 H 0.60113 0.828 0.82869 0.0
H8085 H 0.6109 0.8282 0.79991 0.0
H8086 H 0.62697 0.87873 0.80547 0.0
H8087 H 0.61691 0.87869 0.83481 0.0
H8088 H 0.61218 0.87267 0.77427 0.0
H8089 H 0.65377 0.84895 0.80491 0.0
H8090 H 0.66543 0.83032 0.8251 0.0
H8091 H 0.6488 0.78869 0.79606 0.0
H8092 H 0.63687 0.80706 0.77583 0.0
H8093 H 0.64986 0.86285 0.69185 0.0
H8094 H 0.64735 0.86924 0.72213 0.0
H8095 H 0.62892 0.82006 0.73106 0.0
H8096 H 0.63051 0.81397 0.70127 0.0
H8097 H 0.64855 0.82918 0.75561 0.0
H8098 H 0.60541 0.85265 0.72619 0.0
H8099 H 0.59431 0.87097 0.70536 0.0
H8100 H 0.61334 0.91299 0.73218 0.0
H8101 H 0.62535 0.8949 0.75269 0.0
C8102 C 0.60674 0.83927 0.82398 0.0
C8103 C 0.6082 0.85334 0.83439 0.0
C8104 C 0.61242 0.83931 0.80735 0.0
C8105 C 0.61991 0.85339 0.80029 0.0
C8106 C 0.6213 0.86763 0.81049 0.0
C8107 C 0.61563 0.86757 0.82736 0.0
C8108 C 0.62628 0.85279 0.7824 0.0
C8109 C 0.62043 0.8634 0.77029 0.0
C8110 C 0.63685 0.84052 0.77688 0.0
C8111 C 0.64425 0.82941 0.78891 0.0
C8112 C 0.65249 0.83583 0.80288 0.0
C8113 C 0.65917 0.82531 0.81433 0.0
C8114 C 0.65782 0.80833 0.8119 0.0
C8115 C 0.64983 0.80184 0.79796 0.0
C8116 C 0.64311 0.81231 0.78649 0.0
C8117 C 0.64553 0.85334 0.70035 0.0
C8118 C 0.64055 0.83782 0.69401 0.0
C8119 C 0.64397 0.85703 0.71769 0.0
C8120 C 0.63766 0.84518 0.7291 0.0
C8121 C 0.63361 0.8295 0.72275 0.0
C8122 C 0.6347 0.82599 0.70557 0.0
C8123 C 0.63433 0.84891 0.74743 0.0
C8124 C 0.6406 0.83872 0.75963 0.0
C8125 C 0.62413 0.86152 0.75296 0.0
C8126 C 0.61653 0.87239 0.74086 0.0
C8127 C 0.60743 0.86579 0.72755 0.0
C8128 C 0.60099 0.87613 0.71578 0.0
C8129 C 0.60308 0.89312 0.71747 0.0
C8130 C 0.61174 0.89981 0.73088 0.0
C8131 C 0.61846 0.88952 0.74252 0.0
H8132 H 0.59798 0.9011 0.7084 0.0
H8133 H 0.66299 0.80021 0.82078 0.0
H8134 H 0.1952 0.3609 0.60111 0.0
H8135 H 0.19874 0.36319 0.57091 0.0
H8136 H 0.15055 0.34404 0.56389 0.0
H8137 H 0.14697 0.34122 0.59451 0.0
H8138 H 0.19595 0.3357 0.54809 0.0
H8139 H 0.14008 0.36474 0.52388 0.0
H8140 H 0.11869 0.38272 0.53373 0.0
H8141 H 0.15091 0.40605 0.56871 0.0
H8142 H 0.17254 0.38838 0.5589 0.0
H8143 H 0.19727 0.33833 0.45473 0.0
H8144 H 0.19028 0.33262 0.4841 0.0
H8145 H 0.19707 0.38393 0.49623 0.0
H8146 H 0.20298 0.38976 0.46676 0.0
H8147 H 0.16969 0.37296 0.50948 0.0
H8148 H 0.22616 0.34633 0.53112 0.0
H8149 H 0.24556 0.32432 0.52912 0.0
H8150 H 0.21116 0.29353 0.50318 0.0
H8151 H 0.19125 0.31502 0.50615 0.0
C8152 C 0.18514 0.35738 0.59331 0.0
C8153 C 0.17071 0.35093 0.60058 0.0
C8154 C 0.18726 0.35865 0.57588 0.0
C8155 C 0.17499 0.35379 0.56489 0.0
C8156 C 0.16025 0.34801 0.57198 0.0
C8157 C 0.15815 0.34651 0.58958 0.0
C8158 C 0.17832 0.35394 0.54618 0.0
C8159 C 0.19019 0.34388 0.53962 0.0
C8160 C 0.17064 0.36425 0.53492 0.0
C8161 C 0.15785 0.37509 0.54079 0.0
C8162 C 0.1426 0.37374 0.53364 0.0
C8163 C 0.13044 0.38388 0.53922 0.0
C8164 C 0.13342 0.39548 0.55188 0.0
C8165 C 0.14859 0.39701 0.55895 0.0
C8166 C 0.1608 0.38691 0.55341 0.0
C8167 C 0.19762 0.34836 0.46372 0.0
C8168 C 0.20087 0.36454 0.45817 0.0
C8169 C 0.19375 0.34503 0.48078 0.0
C8170 C 0.19347 0.35768 0.49302 0.0
C8171 C 0.19721 0.37376 0.48742 0.0
C8172 C 0.20067 0.37712 0.4704 0.0
C8173 C 0.18783 0.35494 0.51115 0.0
C8174 C 0.17547 0.36465 0.51776 0.0
C8175 C 0.19494 0.34407 0.5225 0.0
C8176 C 0.20758 0.33268 0.51774 0.0
C8177 C 0.2229 0.33502 0.52457 0.0
C8178 C 0.23385 0.3225 0.52366 0.0
C8179 C 0.22968 0.30763 0.51577 0.0
C8180 C 0.21447 0.30518 0.50898 0.0
C8181 C 0.20335 0.31753 0.51027 0.0
H8182 H 0.2382 0.29797 0.51501 0.0
H8183 H 0.12399 0.40331 0.55619 0.0
H8184 H 0.68156 0.91549 0.29876 0.0
H8185 H 0.6749 0.92052 0.26977 0.0
H8186 H 0.68848 0.87159 0.25624 0.0
H8187 H 0.69495 0.86643 0.2855 0.0
H8188 H 0.69156 0.92376 0.2443 0.0
H8189 H 0.66977 0.85904 0.21816 0.0
H8190 H 0.65487 0.83445 0.22852 0.0
H8191 H 0.63352 0.86297 0.26786 0.0
H8192 H 0.64815 0.8878 0.25766 0.0
H8193 H 0.70147 0.92606 0.15826 0.0
H8194 H 0.7013 0.91752 0.18738 0.0
H8195 H 0.65027 0.90757 0.18568 0.0
H8196 H 0.65051 0.91568 0.15599 0.0
H8197 H 0.6621 0.88603 0.20559 0.0
H8198 H 0.6658 0.94342 0.205 0.0
H8199 H 0.675 0.97131 0.19674 0.0
H8200 H 0.72226 0.96219 0.21389 0.0
H8201 H 0.71334 0.93417 0.22215 0.0
C8202 C 0.68297 0.90567 0.28968 0.0
C8203 C 0.68876 0.89049 0.29461 0.0
C8204 C 0.67922 0.90862 0.27296 0.0
C8205 C 0.6812 0.89655 0.26046 0.0
C8206 C 0.68666 0.88119 0.26542 0.0
C8207 C 0.69033 0.87818 0.28227 0.0
C8208 C 0.67844 0.90057 0.24231 0.0
C8209 C 0.68509 0.9154 0.23595 0.0
C8210 C 0.66941 0.89018 0.23125 0.0
C8211 C 0.66039 0.87528 0.23734 0.0
C8212 C 0.66194 0.86011 0.22905 0.0
C8213 C 0.65351 0.8461 0.23488 0.0
C8214 C 0.64334 0.84712 0.24891 0.0
C8215 C 0.6415 0.86217 0.25707 0.0
C8216 C 0.6499 0.87621 0.25129 0.0
C8217 C 0.69018 0.9219 0.16397 0.0
C8218 C 0.67599 0.92167 0.1547 0.0
C8219 C 0.69008 0.91709 0.18077 0.0
C8220 C 0.67571 0.91226 0.18911 0.0
C8221 C 0.66155 0.91131 0.17971 0.0
C8222 C 0.66168 0.91593 0.16268 0.0
C8223 C 0.67571 0.90887 0.20768 0.0
C8224 C 0.66853 0.89427 0.21407 0.0
C8225 C 0.6834 0.91989 0.21911 0.0
C8226 C 0.68894 0.93665 0.21404 0.0
C8227 C 0.67819 0.94732 0.20689 0.0
C8228 C 0.68334 0.96316 0.20224 0.0
C8229 C 0.69922 0.9685 0.20474 0.0
C8230 C 0.70997 0.95802 0.21194 0.0
C8231 C 0.70486 0.94217 0.21664 0.0
H8232 H 0.7032 0.98076 0.20113 0.0
H8233 H 0.63683 0.83626 0.2534 0.0
H8234 H 0.16606 0.43244 0.05326 0.0
H8235 H 0.16208 0.42614 0.02343 0.0
H8236 H 0.13502 0.38195 0.03669 0.0
H8237 H 0.13938 0.3879 0.06623 0.0
H8238 H 0.14949 0.37516 0.00969 0.0
H8239 H 0.11744 0.41993 0.02544 0.0
H8240 H 0.11071 0.44726 0.03629 0.0
H8241 H 0.14115 0.47005 0.99864 0.0
H8242 H 0.14823 0.44284 0.98766 0.0
H8243 H 0.10397 0.36851 0.93218 0.0
H8244 H 0.1127 0.37108 0.96147 0.0
H8245 H 0.14664 0.40981 0.94731 0.0
H8246 H 0.13836 0.40707 0.91833 0.0
H8247 H 0.12877 0.419 0.97448 0.0
H8248 H 0.15893 0.37189 0.95828 0.0
H8249 H 0.16211 0.34382 0.94731 0.0
H8250 H 0.13123 0.32462 0.98661 0.0
H8251 H 0.1277 0.35262 0.99769 0.0
C8252 C 0.15969 0.42113 0.04983 0.0
C8253 C 0.15313 0.41071 0.06239 0.0
C8254 C 0.15714 0.41763 0.03265 0.0
C8255 C 0.14783 0.40368 0.02747 0.0
C8256 C 0.14216 0.39282 0.04002 0.0
C8257 C 0.14472 0.39627 0.05708 0.0
C8258 C 0.14341 0.40059 0.00927 0.0
C8259 C 0.14483 0.38479 1.00213 0.0
C8260 C 0.13729 0.41295 0.99899 0.0
C8261 C 0.13348 0.42934 1.00583 0.0
C8262 C 0.12282 0.43077 0.01957 0.0
C8263 C 0.11891 0.44624 0.0257 0.0
C8264 C 0.12545 0.46037 0.0181 0.0
C8265 C 0.13606 0.45908 1.00446 0.0
C8266 C 0.14003 0.44364 0.99828 0.0
C8267 C 0.11362 0.37723 0.9352 0.0
C8268 C 0.12042 0.38751 0.92263 0.0
C8269 C 0.11855 0.37881 0.95206 0.0
C8270 C 0.13035 0.39077 0.95686 0.0
C8271 C 0.13746 0.40058 0.9442 0.0
C8272 C 0.13271 0.3989 0.92747 0.0
C8273 C 0.13497 0.39367 0.97497 0.0
C8274 C 0.13352 0.40943 0.98207 0.0
C8275 C 0.14071 0.3812 0.98529 0.0
C8276 C 0.14293 0.36437 0.97872 0.0
C8277 C 0.15272 0.3617 0.96451 0.0
C8278 C 0.1546 0.3458 0.95829 0.0
C8279 C 0.14684 0.33245 0.96623 0.0
C8280 C 0.13722 0.33497 0.98045 0.0
C8281 C 0.13528 0.35085 0.98672 0.0
H8282 H 0.14831 0.32015 0.96139 0.0
H8283 H 0.12229 0.47234 0.02278 0.0
H8284 H 0.10349 0.63439 0.90381 0.0
H8285 H 0.07474 0.62824 0.89863 0.0
H8286 H 0.06693 0.61827 0.95099 0.0
H8287 H 0.0952 0.62491 0.95618 0.0
H8288 H 0.05302 0.59298 0.93129 0.0
H8289 H 0.05176 0.65223 0.93314 0.0
H8290 H 0.05982 0.68018 0.92398 0.0
H8291 H 0.04457 0.6684 0.87407 0.0
H8292 H 0.0366 0.6403 0.8829 0.0
H8293 H 0.96638 0.57979 0.93296 0.0
H8294 H 0.99474 0.58767 0.93753 0.0
H8295 H 0.99695 0.61206 0.8899 0.0
H8296 H 0.96871 0.60485 0.88575 0.0
H8297 H 1.01444 0.62996 0.9065 0.0
H8298 H 1.01537 0.57226 0.90216 0.0
H8299 H 1.00843 0.54332 0.90828 0.0
H8300 H 0.02629 0.54967 0.9581 0.0
H8301 H 0.03281 0.57888 0.95249 0.0
C8302 C 0.09555 0.63173 0.91438 0.0
C8303 C 0.10199 0.63104 0.93064 0.0
C8304 C 0.07894 0.62784 0.91136 0.0
C8305 C 0.06811 0.62257 0.92436 0.0
C8306 C 0.07456 0.62218 0.94055 0.0
C8307 C 0.09092 0.62636 0.94358 0.0
C8308 C 0.05038 0.61708 0.92134 0.0
C8309 C 0.04458 0.60122 0.92605 0.0
C8310 C 0.03903 0.62724 0.91391 0.0
C8311 C 0.04374 0.64412 0.90864 0.0
C8312 C 0.05024 0.65556 0.92018 0.0
C8313 C 0.05477 0.67144 0.91506 0.0
C8314 C 0.05275 0.67605 0.89844 0.0
C8315 C 0.04615 0.6648 0.88693 0.0
C8316 C 0.04161 0.64891 0.89199 0.0
C8317 C 0.97288 0.58672 0.92336 0.0
C8318 C 0.96475 0.5915 0.90889 0.0
C8319 C 0.98941 0.59126 0.92595 0.0
C8320 C 0.99881 0.60054 0.91405 0.0
C8321 C 0.99059 0.6051 0.89958 0.0
C8322 C 0.97414 0.60078 0.89711 0.0
C8323 C 1.01681 0.60574 0.91655 0.0
C8324 C 0.02273 0.62159 0.91174 0.0
C8325 C 0.02839 0.59536 0.92344 0.0
C8326 C 0.02437 0.57784 0.92697 0.0
C8327 C 1.01767 0.56755 0.91449 0.0
C8328 C 1.01383 0.55107 0.91786 0.0
C8329 C 1.01695 0.54463 0.93355 0.0
C8330 C 0.02386 0.55468 0.94595 0.0
C8331 C 0.02757 0.57122 0.9427 0.0
H8332 H 1.01402 0.53185 0.93611 0.0
H8333 H 0.05626 0.68834 0.8945 0.0
H8334 H 0.43739 0.68164 0.87969 0.0
H8335 H 0.46539 0.67274 0.87717 0.0
H8336 H 0.45611 0.65374 0.82782 0.0
H8337 H 0.42864 0.66163 0.83043 0.0
H8338 H 0.48539 0.64749 0.87277 0.0
H8339 H 0.48788 0.65483 0.80053 0.0
H8340 H 0.47596 0.67147 0.77872 0.0
H8341 H 0.46595 0.7089 0.81513 0.0
H8342 H 0.47815 0.69272 0.83711 0.0
H8343 H 0.56323 0.61495 0.84374 0.0
H8344 H 0.53482 0.62051 0.85037 0.0
H8345 H 0.54022 0.66674 0.82507 0.0
H8346 H 0.56764 0.66109 0.81804 0.0
H8347 H 0.51306 0.66059 0.81895 0.0
H8348 H 0.53469 0.65731 0.87372 0.0
H8349 H 0.54823 0.64475 0.89733 0.0
H8350 H 0.51251 0.60545 0.89839 0.0
H8351 H 0.49886 0.6177 0.87466 0.0
C8352 C 0.44114 0.67544 0.86832 0.0
C8353 C 0.42982 0.67268 0.85536 0.0
C8354 C 0.45761 0.67045 0.86671 0.0
C8355 C 0.46403 0.663 0.85184 0.0
C8356 C 0.45253 0.65985 0.8393 0.0
C8357 C 0.43625 0.66443 0.84099 0.0
C8358 C 0.48228 0.65875 0.84887 0.0
C8359 C 0.49124 0.65037 0.86088 0.0
C8360 C 0.49104 0.6625 0.83366 0.0
C8361 C 0.48381 0.67245 0.82051 0.0
C8362 C 0.48321 0.66664 0.80389 0.0
C8363 C 0.47639 0.676 0.7915 0.0
C8364 C 0.47011 0.69118 0.79558 0.0
C8365 C 0.47076 0.69711 0.81203 0.0
C8366 C 0.47765 0.68786 0.82445 0.0
C8367 C 0.55845 0.62628 0.83943 0.0
C8368 C 0.5687 0.63738 0.83015 0.0
C8369 C 0.54184 0.62968 0.84348 0.0
C8370 C 0.53436 0.64444 0.83863 0.0
C8371 C 0.54466 0.65521 0.82924 0.0
C8372 C 0.56096 0.65185 0.82521 0.0
C8373 C 0.51626 0.64894 0.84267 0.0
C8374 C 0.50727 0.65749 0.83081 0.0
C8375 C 0.5077 0.64573 0.85816 0.0
C8376 C 0.51588 0.6383 0.87231 0.0
C8377 C 0.5298 0.64592 0.87892 0.0
C8378 C 0.53748 0.63888 0.89233 0.0
C8379 C 0.53127 0.62428 0.89931 0.0
C8380 C 0.51733 0.61673 0.89294 0.0
C8381 C 0.50961 0.62372 0.87952 0.0
H8382 H 0.53723 0.61884 0.9097 0.0
H8383 H 0.46478 0.69837 0.78597 0.0
H8384 H 0.40393 0.32862 0.5925 0.0
H8385 H 0.40181 0.30008 0.60299 0.0
H8386 H 0.35203 0.30608 0.61539 0.0
H8387 H 0.35403 0.33393 0.60518 0.0
H8388 H 0.36293 0.2884 0.63929 0.0
H8389 H 0.36863 0.28544 0.57936 0.0
H8390 H 0.38304 0.2905 0.55266 0.0
H8391 H 0.42082 0.26008 0.56802 0.0
H8392 H 0.4071 0.25563 0.5953 0.0
H8393 H 0.33608 0.20333 0.65158 0.0
H8394 H 0.34123 0.23224 0.64489 0.0
H8395 H 0.38645 0.22038 0.62187 0.0
H8396 H 0.38053 0.19141 0.62749 0.0
H8397 H 0.3791 0.24162 0.6038 0.0
H8398 H 0.37591 0.24566 0.66369 0.0
H8399 H 0.36385 0.2421 0.69191 0.0
H8400 H 0.324 0.27043 0.67798 0.0
H8401 H 0.3358 0.27415 0.6497 0.0
C8402 C 0.39258 0.32402 0.59769 0.0
C8403 C 0.37924 0.33427 0.59786 0.0
C8404 C 0.39127 0.30739 0.60364 0.0
C8405 C 0.37659 0.30019 0.6101 0.0
C8406 C 0.36357 0.31068 0.61069 0.0
C8407 C 0.36482 0.327 0.60468 0.0
C8408 C 0.37424 0.28198 0.61587 0.0
C8409 C 0.36645 0.27824 0.63137 0.0
C8410 C 0.37893 0.26813 0.60613 0.0
C8411 C 0.38692 0.27039 0.58951 0.0
C8412 C 0.3801 0.27997 0.57716 0.0
C8413 C 0.38818 0.28278 0.56192 0.0
C8414 C 0.40281 0.27557 0.5586 0.0
C8415 C 0.40947 0.26566 0.5706 0.0
C8416 C 0.40161 0.26309 0.58602 0.0
C8417 C 0.34732 0.20682 0.64551 0.0
C8418 C 0.35791 0.19445 0.6406 0.0
C8419 C 0.3504 0.22377 0.64153 0.0
C8420 C 0.36453 0.22951 0.63274 0.0
C8421 C 0.37536 0.21711 0.62845 0.0
C8422 C 0.37207 0.20021 0.63208 0.0
C8423 C 0.36792 0.24786 0.62747 0.0
C8424 C 0.37574 0.25167 0.61193 0.0
C8425 C 0.36356 0.26182 0.63735 0.0
C8426 C 0.3566 0.2599 0.65446 0.0
C8427 C 0.36454 0.25105 0.66662 0.0
C8428 C 0.35776 0.24904 0.68264 0.0
C8429 C 0.34313 0.25596 0.68671 0.0
C8430 C 0.3353 0.26502 0.6748 0.0
C8431 C 0.34205 0.2671 0.65878 0.0
H8432 H 0.33788 0.25435 0.69911 0.0
H8433 H 0.40897 0.27767 0.54673 0.0
H8434 H 0.65772 0.09496 0.36894 0.0
H8435 H 0.68562 0.09239 0.37736 0.0
H8436 H 0.7019 0.11343 0.33063 0.0
H8437 H 0.67382 0.11656 0.32244 0.0
H8438 H 0.71974 0.08564 0.33778 0.0
H8439 H 0.70697 0.13413 0.36906 0.0
H8440 H 0.69125 0.15069 0.38891 0.0
H8441 H 0.69924 0.11634 0.428 0.0
H8442 H 0.71483 0.09945 0.40832 0.0
H8443 H 0.80363 0.08926 0.35613 0.0
H8444 H 0.776 0.09452 0.34926 0.0
H8445 H 0.76129 0.08446 0.40017 0.0
H8446 H 0.7894 0.07955 0.40723 0.0
H8447 H 0.7422 0.10656 0.39123 0.0
H8448 H 0.75358 0.05767 0.36226 0.0
H8449 H 0.76779 0.03859 0.34365 0.0
H8450 H 0.76046 0.06982 0.30179 0.0
H8451 H 0.74658 0.08935 0.32018 0.0
C8452 C 0.66714 0.09967 0.36059 0.0
C8453 C 0.66288 0.1066 0.34509 0.0
C8454 C 0.6834 0.098 0.36544 0.0
C8455 C 0.69661 0.10265 0.35488 0.0
C8456 C 0.69244 0.10965 0.33937 0.0
C8457 C 0.67609 0.11172 0.3347 0.0
C8458 C 0.71439 0.09979 0.35985 0.0
C8459 C 0.72461 0.09056 0.34936 0.0
C8460 C 0.72126 0.1053 0.37531 0.0
C8461 C 0.71194 0.11544 0.38717 0.0
C8462 C 0.70527 0.13004 0.38185 0.0
C8463 C 0.6964 0.1395 0.39308 0.0
C8464 C 0.69421 0.13455 0.40969 0.0
C8465 C 0.70092 0.12015 0.41512 0.0
C8466 C 0.70979 0.11063 0.40394 0.0
C8467 C 0.79466 0.08807 0.36604 0.0
C8468 C 0.79942 0.08379 0.38238 0.0
C8469 C 0.77844 0.09101 0.36197 0.0
C8470 C 0.76563 0.08968 0.37386 0.0
C8471 C 0.77036 0.08565 0.39035 0.0
C8472 C 0.78673 0.08274 0.39448 0.0
C8473 C 0.74774 0.09254 0.36904 0.0
C8474 C 0.73744 0.1017 0.37958 0.0
C8475 C 0.74065 0.08662 0.35379 0.0
C8476 C 0.74921 0.07509 0.34266 0.0
C8477 C 0.75517 0.06058 0.34912 0.0
C8478 C 0.76317 0.04968 0.3386 0.0
C8479 C 0.76512 0.05305 0.32155 0.0
C8480 C 0.75905 0.06731 0.315 0.0
C8481 C 0.75112 0.07831 0.32547 0.0
H8482 H 0.77128 0.04458 0.3134 0.0
H8483 H 0.68735 0.1419 0.41837 0.0
H8484 H 0.39341 0.43341 0.57977 0.0
H8485 H 0.39998 0.46292 0.58239 0.0
H8486 H 0.43811 0.45265 0.61589 0.0
H8487 H 0.43201 0.42327 0.61275 0.0
H8488 H 0.40097 0.48677 0.60346 0.0
H8489 H 0.46806 0.47831 0.61467 0.0
H8490 H 0.48805 0.45771 0.60777 0.0
H8491 H 0.46299 0.44457 0.56281 0.0
H8492 H 0.4427 0.46492 0.5696 0.0
H8493 H 0.43266 0.563 0.63268 0.0
H8494 H 0.42583 0.53407 0.62835 0.0
H8495 H 0.45465 0.53405 0.58308 0.0
H8496 H 0.46186 0.5634 0.58756 0.0
H8497 H 0.45803 0.50549 0.59768 0.0
H8498 H 0.41182 0.53346 0.583 0.0
H8499 H 0.39006 0.55292 0.58593 0.0
H8500 H 0.37208 0.52772 0.62975 0.0
H8501 H 0.39387 0.50822 0.62722 0.0
C8502 C 0.40299 0.4374 0.58799 0.0
C8503 C 0.41203 0.42563 0.59613 0.0
C8504 C 0.40687 0.45446 0.58941 0.0
C8505 C 0.41993 0.46047 0.59902 0.0
C8506 C 0.42834 0.44873 0.60789 0.0
C8507 C 0.42463 0.43172 0.6063 0.0
C8508 C 0.425 0.47877 0.59953 0.0
C8509 C 0.41348 0.49074 0.60226 0.0
C8510 C 0.44122 0.48455 0.59735 0.0
C8511 C 0.45388 0.47308 0.59268 0.0
C8512 C 0.46692 0.47113 0.60324 0.0
C8513 C 0.47825 0.45944 0.59938 0.0
C8514 C 0.47681 0.44986 0.58483 0.0
C8515 C 0.46407 0.45197 0.57408 0.0
C8516 C 0.45263 0.46354 0.57796 0.0
C8517 C 0.43766 0.55701 0.62172 0.0
C8518 C 0.44779 0.56598 0.61042 0.0
C8519 C 0.43359 0.54024 0.61919 0.0
C8520 C 0.43928 0.53149 0.60513 0.0
C8521 C 0.44984 0.54023 0.59401 0.0
C8522 C 0.45398 0.55717 0.59657 0.0
C8523 C 0.43404 0.51346 0.60228 0.0
C8524 C 0.44553 0.50154 0.59899 0.0
C8525 C 0.41769 0.50779 0.6034 0.0
C8526 C 0.40457 0.51947 0.60501 0.0
C8527 C 0.4033 0.53214 0.59334 0.0
C8528 C 0.39095 0.54317 0.59491 0.0
C8529 C 0.37972 0.54159 0.60804 0.0
C8530 C 0.3808 0.52894 0.6196 0.0
C8531 C 0.39314 0.51789 0.61809 0.0
H8532 H 0.37017 0.55013 0.60924 0.0
H8533 H 0.48553 0.44079 0.58188 0.0
H8534 H 0.69841 0.13933 0.91755 0.0
H8535 H 0.72639 0.14219 0.90677 0.0
H8536 H 0.72973 0.19163 0.92598 0.0
H8537 H 0.70234 0.18894 0.93642 0.0
H8538 H 0.7451 0.19355 0.89883 0.0
H8539 H 0.74956 0.15534 0.94318 0.0
H8540 H 0.74368 0.12983 0.95881 0.0
H8541 H 0.75953 0.10138 0.91655 0.0
H8542 H 0.76531 0.12675 0.90058 0.0
H8543 H 0.82897 0.21176 0.89789 0.0
H8544 H 0.80127 0.20455 0.9046 0.0
H8545 H 0.80621 0.15747 0.88076 0.0
H8546 H 0.83492 0.16452 0.87458 0.0
H8547 H 0.78628 0.15254 0.90748 0.0
H8548 H 0.78393 0.19316 0.86431 0.0
H8549 H 0.79054 0.2198 0.85101 0.0
H8550 H 0.77063 0.24494 0.89354 0.0
H8551 H 0.76422 0.21854 0.90723 0.0
C8552 C 0.70499 0.15087 0.91944 0.0
C8553 C 0.6974 0.16383 0.92809 0.0
C8554 C 0.72135 0.15252 0.91331 0.0
C8555 C 0.731 0.16723 0.9154 0.0
C8556 C 0.72322 0.18009 0.92382 0.0
C8557 C 0.70715 0.17842 0.92998 0.0
C8558 C 0.74884 0.16971 0.90897 0.0
C8559 C 0.75398 0.18448 0.90095 0.0
C8560 C 0.76111 0.15817 0.9111 0.0
C8561 C 0.75767 0.14292 0.92061 0.0
C8562 C 0.75167 0.14363 0.93717 0.0
C8563 C 0.74838 0.12921 0.9461 0.0
C8564 C 0.75118 0.11399 0.93865 0.0
C8565 C 0.75733 0.11318 0.92228 0.0
C8566 C 0.76062 0.12758 0.91328 0.0
C8567 C 0.82439 0.19982 0.89374 0.0
C8568 C 0.83487 0.189 0.88529 0.0
C8569 C 0.80807 0.19568 0.8976 0.0
C8570 C 0.80067 0.18044 0.89307 0.0
C8571 C 0.811 0.16943 0.88451 0.0
C8572 C 0.82764 0.1736 0.88068 0.0
C8573 C 0.78251 0.17645 0.89748 0.0
C8574 C 0.77734 0.16149 0.90519 0.0
C8575 C 0.77017 0.18794 0.89529 0.0
C8576 C 0.77369 0.20384 0.88685 0.0
C8577 C 0.78103 0.20438 0.87085 0.0
C8578 C 0.78476 0.21946 0.86325 0.0
C8579 C 0.78106 0.23408 0.87144 0.0
C8580 C 0.77354 0.23365 0.88721 0.0
C8581 C 0.76985 0.21862 0.8949 0.0
H8582 H 0.78399 0.24574 0.86556 0.0
H8583 H 0.74863 0.10283 0.94558 0.0
H8584 H 0.12265 0.4589 0.86543 0.0
H8585 H 0.12741 0.48619 0.87761 0.0
H8586 H 0.08391 0.48041 0.90711 0.0
H8587 H 0.07884 0.45355 0.89499 0.0
H8588 H 0.0947 0.51501 0.89869 0.0
H8589 H 0.11059 0.46429 0.92402 0.0
H8590 H 0.12298 0.43732 0.92383 0.0
H8591 H 0.16808 0.46 0.90849 0.0
H8592 H 0.15582 0.48704 0.90821 0.0
H8593 H 0.12273 0.56598 0.96254 0.0
H8594 H 0.11262 0.53866 0.95417 0.0
H8595 H 0.15404 0.53335 0.92173 0.0
H8596 H 0.16414 0.56063 0.92997 0.0
H8597 H 0.1412 0.50378 0.93404 0.0
H8598 H 0.12376 0.55371 0.90622 0.0
H8599 H 0.1117 0.58087 0.90762 0.0
H8600 H 0.06914 0.55932 0.93063 0.0
H8601 H 0.08115 0.53214 0.92973 0.0
C8602 C 0.11366 0.4638 0.87384 0.0
C8603 C 0.10064 0.45392 0.87968 0.0
C8604 C 0.11636 0.47939 0.88072 0.0
C8605 C 0.10603 0.48507 0.89335 0.0
C8606 C 0.0918 0.4763 0.8972 0.0
C8607 C 0.08908 0.46077 0.89038 0.0
C8608 C 0.11198 0.49739 0.90538 0.0
C8609 C 0.10467 0.5125 0.90667 0.0
C8610 C 0.12488 0.49389 0.91582 0.0
C8611 C 0.13224 0.47763 0.91586 0.0
C8612 C 0.12309 0.46348 0.92039 0.0
C8613 C 0.1301 0.44819 0.92041 0.0
C8614 C 0.1463 0.44695 0.9161 0.0
C8615 C 0.15552 0.46098 0.91178 0.0
C8616 C 0.14855 0.47628 0.91167 0.0
C8617 C 0.13001 0.55866 0.95422 0.0
C8618 C 0.14391 0.56542 0.94641 0.0
C8619 C 0.12421 0.54313 0.94944 0.0
C8620 C 0.13237 0.53443 0.93697 0.0
C8621 C 0.1475 0.54012 0.9312 0.0
C8622 C 0.15323 0.55567 0.93584 0.0
C8623 C 0.12408 0.52138 0.92743 0.0
C8624 C 0.13094 0.50609 0.92651 0.0
C8625 C 0.11065 0.52465 0.91761 0.0
C8626 C 0.1033 0.54091 0.91784 0.0
C8627 C 0.11183 0.55479 0.91157 0.0
C8628 C 0.10504 0.57019 0.91233 0.0
C8629 C 0.08965 0.57182 0.91919 0.0
C8630 C 0.08104 0.55805 0.92531 0.0
C8631 C 0.08784 0.54264 0.92468 0.0
H8632 H 0.08441 0.58375 0.91977 0.0
H8633 H 0.15174 0.43512 0.91617 0.0
H8634 H 0.09268 0.88531 0.1265 0.0
H8635 H 0.06734 0.8989 0.13016 0.0
H8636 H 0.04159 0.85289 0.12116 0.0
H8637 H 0.067 0.83947 0.11666 0.0
H8638 H 0.02314 0.88166 0.11525 0.0
H8639 H 0.05318 0.85628 0.15923 0.0
H8640 H 0.07737 0.85089 0.17535 0.0
H8641 H 0.08472 0.90246 0.18498 0.0
H8642 H 0.06049 0.90812 0.16908 0.0
H8643 H 0.97516 0.89162 0.19785 0.0
H8644 H 0.99846 0.88139 0.18265 0.0
H8645 H 0.99853 0.923 0.14975 0.0
H8646 H 0.97535 0.93341 0.16484 0.0
H8647 H 0.02865 0.89477 0.17586 0.0
H8648 H 1.00468 0.90768 0.10976 0.0
H8649 H 0.97863 0.90953 0.09594 0.0
H8650 H 0.95666 0.87712 0.13241 0.0
H8651 H 0.98257 0.87494 0.14636 0.0
C8652 C 0.08161 0.87841 0.12405 0.0
C8653 C 0.08162 0.86139 0.12157 0.0
C8654 C 0.06715 0.88612 0.12628 0.0
C8655 C 0.05273 0.87673 0.12645 0.0
C8656 C 0.05265 0.86029 0.12115 0.0
C8657 C 0.06717 0.85264 0.11854 0.0
C8658 C 0.039 0.88269 0.13622 0.0
C8659 C 0.02433 0.88468 0.12844 0.0
C8660 C 0.04044 0.88595 0.1536 0.0
C8661 C 0.05517 0.88263 0.16285 0.0
C8662 C 0.06003 0.86646 0.16471 0.0
C8663 C 0.07368 0.86335 0.17387 0.0
C8664 C 0.08261 0.87632 0.1811 0.0
C8665 C 0.07783 0.89243 0.17932 0.0
C8666 C 0.0641 0.89559 0.17031 0.0
C8667 C 0.98033 0.89877 0.1876 0.0
C8668 C 0.97332 0.91322 0.18243 0.0
C8669 C 0.99356 0.89287 0.1789 0.0
C8670 C 0.99985 0.90127 0.16488 0.0
C8671 C 0.99356 0.91622 0.16036 0.0
C8672 C 0.98043 0.92221 0.16912 0.0
C8673 C 1.0129 0.89432 0.15481 0.0
C8674 C 0.02745 0.89198 0.16261 0.0
C8675 C 1.01112 0.89029 0.13764 0.0
C8676 C 0.99553 0.89134 0.12922 0.0
C8677 C 0.99429 0.90093 0.11481 0.0
C8678 C 0.97954 0.90206 0.10698 0.0
C8679 C 0.96597 0.89357 0.1134 0.0
C8680 C 0.96714 0.88384 0.12759 0.0
C8681 C 0.98185 0.88267 0.13546 0.0
H8682 H 0.95456 0.89445 0.10732 0.0
H8683 H 0.09321 0.8739 0.18812 0.0
H8684 H 0.74307 0.44406 0.57813 0.0
H8685 H 0.76945 0.43367 0.57017 0.0
H8686 H 0.76514 0.39869 0.61037 0.0
H8687 H 0.73924 0.40904 0.6184 0.0
H8688 H 0.79345 0.43654 0.59276 0.0
H8689 H 0.78345 0.3655 0.60259 0.0
H8690 H 0.7649 0.34349 0.59261 0.0
H8691 H 0.75458 0.37191 0.54943 0.0
H8692 H 0.77327 0.39402 0.55898 0.0
H8693 H 0.82703 0.38779 0.6541 0.0
H8694 H 0.81094 0.38525 0.62887 0.0
H8695 H 0.84766 0.41253 0.60098 0.0
H8696 H 0.86336 0.41575 0.62643 0.0
H8697 H 0.80921 0.37858 0.59487 0.0
H8698 H 0.83083 0.4438 0.5847 0.0
H8699 H 0.84654 0.46614 0.59867 0.0
H8700 H 0.82884 0.44954 0.64667 0.0
H8701 H 0.81293 0.42727 0.63294 0.0
C8702 C 0.74771 0.43395 0.58501 0.0
C8703 C 0.73935 0.42752 0.59906 0.0
C8704 C 0.76264 0.42794 0.58036 0.0
C8705 C 0.76909 0.4152 0.58946 0.0
C8706 C 0.76024 0.40823 0.60288 0.0
C8707 C 0.74556 0.41438 0.60768 0.0
C8708 C 0.78617 0.41138 0.5878 0.0
C8709 C 0.79718 0.42393 0.59237 0.0
C8710 C 0.79093 0.39492 0.58741 0.0
C8711 C 0.77988 0.38144 0.58148 0.0
C8712 C 0.7774 0.36701 0.59086 0.0
C8713 C 0.7668 0.35452 0.5853 0.0
C8714 C 0.75858 0.35629 0.57039 0.0
C8715 C 0.76095 0.37056 0.56099 0.0
C8716 C 0.77154 0.38308 0.56648 0.0
C8717 C 0.83192 0.39259 0.64239 0.0
C8718 C 0.84612 0.40227 0.64211 0.0
C8719 C 0.82281 0.39105 0.62794 0.0
C8720 C 0.82797 0.39907 0.61317 0.0
C8721 C 0.8434 0.40646 0.61231 0.0
C8722 C 0.85229 0.40837 0.62684 0.0
C8723 C 0.81572 0.40362 0.60113 0.0
C8724 C 0.80582 0.39124 0.59404 0.0
C8725 C 0.81169 0.42025 0.59955 0.0
C8726 C 0.82089 0.43383 0.60783 0.0
C8727 C 0.83029 0.44499 0.59822 0.0
C8728 C 0.83921 0.45762 0.6061 0.0
C8729 C 0.83873 0.45922 0.62355 0.0
C8730 C 0.82923 0.44828 0.63316 0.0
C8731 C 0.82025 0.43567 0.62535 0.0
H8732 H 0.8457 0.46897 0.62962 0.0
H8733 H 0.75037 0.34661 0.56612 0.0
H8734 H 0.10907 0.66404 0.37091 0.0
H8735 H 0.11203 0.68169 0.39574 0.0
H8736 H 0.13842 0.71776 0.36581 0.0
H8737 H 0.13627 0.69962 0.3413 0.0
H8738 H 0.14648 0.72084 0.39837 0.0
H8739 H 0.09606 0.71456 0.36538 0.0
H8740 H 0.07308 0.69754 0.35526 0.0
H8741 H 0.0605 0.68425 0.40586 0.0
H8742 H 0.08363 0.70098 0.41621 0.0
H8743 H 0.11615 0.788 0.36778 0.0
H8744 H 0.12562 0.76217 0.37812 0.0
H8745 H 0.09644 0.76701 0.42293 0.0
H8746 H 0.08702 0.79312 0.41272 0.0
H8747 H 0.09048 0.73857 0.40407 0.0
H8748 H 0.13431 0.76299 0.43086 0.0
H8749 H 0.15664 0.78299 0.43578 0.0
H8750 H 0.18135 0.76537 0.39197 0.0
H8751 H 0.15911 0.74546 0.38659 0.0
C8752 C 0.11591 0.67556 0.36989 0.0
C8753 C 0.12209 0.6809 0.35435 0.0
C8754 C 0.11774 0.6855 0.38405 0.0
C8755 C 0.12511 0.70115 0.38252 0.0
C8756 C 0.13268 0.70571 0.36727 0.0
C8757 C 0.13127 0.69553 0.35323 0.0
C8758 C 0.12159 0.71419 0.39478 0.0
C8759 C 0.13426 0.72468 0.40004 0.0
C8760 C 0.10556 0.71876 0.39766 0.0
C8761 C 0.09162 0.70881 0.39153 0.0
C8762 C 0.0884 0.70795 0.37431 0.0
C8763 C 0.07537 0.69836 0.36854 0.0
C8764 C 0.06533 0.68981 0.37991 0.0
C8765 C 0.06831 0.69084 0.39707 0.0
C8766 C 0.0814 0.70034 0.4029 0.0
C8767 C 0.11185 0.78363 0.37988 0.0
C8768 C 0.10074 0.79239 0.38936 0.0
C8769 C 0.1175 0.76907 0.38595 0.0
C8770 C 0.11202 0.76297 0.4015 0.0
C8771 C 0.10106 0.77178 0.41111 0.0
C8772 C 0.09557 0.78652 0.40515 0.0
C8773 C 0.11544 0.74596 0.4056 0.0
C8774 C 0.10271 0.73449 0.4037 0.0
C8775 C 0.13138 0.74077 0.40523 0.0
C8776 C 0.14503 0.75257 0.40842 0.0
C8777 C 0.14449 0.76337 0.42225 0.0
C8778 C 0.15714 0.77472 0.42511 0.0
C8779 C 0.17043 0.77542 0.41422 0.0
C8780 C 0.17109 0.76477 0.40044 0.0
C8781 C 0.15847 0.75339 0.39752 0.0
H8782 H 0.1802 0.78423 0.41644 0.0
H8783 H 0.05522 0.68242 0.37543 0.0
H8784 H 0.73285 0.82102 0.66284 0.0
H8785 H 0.75982 0.82854 0.67227 0.0
H8786 H 0.74793 0.87963 0.67265 0.0
H8787 H 0.72086 0.872 0.66458 0.0
H8788 H 0.77807 0.84274 0.65298 0.0
H8789 H 0.77292 0.90544 0.69018 0.0
H8790 H 0.75842 0.9156 0.71508 0.0
H8791 H 0.75141 0.86636 0.733 0.0
H8792 H 0.76611 0.85587 0.70837 0.0
H8793 H 0.81732 0.90335 0.61632 0.0
H8794 H 0.79823 0.89859 0.63949 0.0
H8795 H 0.83425 0.87433 0.66697 0.0
H8796 H 0.85322 0.87864 0.64361 0.0
H8797 H 0.79825 0.8925 0.6833 0.0
H8798 H 0.82581 0.84668 0.65321 0.0
H8799 H 0.83769 0.83264 0.62888 0.0
H8800 H 0.79753 0.84463 0.59908 0.0
H8801 H 0.78563 0.85912 0.62323 0.0
C8802 C 0.73595 0.83377 0.66535 0.0
C8803 C 0.72493 0.84594 0.66267 0.0
C8804 C 0.75129 0.83808 0.67094 0.0
C8805 C 0.75602 0.85469 0.67329 0.0
C8806 C 0.74463 0.86672 0.67148 0.0
C8807 C 0.72918 0.86235 0.66646 0.0
C8808 C 0.77324 0.85981 0.67309 0.0
C8809 C 0.78261 0.8532 0.66019 0.0
C8810 C 0.77936 0.87352 0.68237 0.0
C8811 C 0.77066 0.87985 0.69736 0.0
C8812 C 0.76845 0.89676 0.69949 0.0
C8813 C 0.76014 0.90258 0.71356 0.0
C8814 C 0.75399 0.89164 0.72561 0.0
C8815 C 0.75615 0.87483 0.72364 0.0
C8816 C 0.76445 0.86894 0.70961 0.0
C8817 C 0.82143 0.89796 0.62774 0.0
C8818 C 0.83651 0.89111 0.62825 0.0
C8819 C 0.81057 0.89532 0.64102 0.0
C8820 C 0.81485 0.88589 0.65475 0.0
C8821 C 0.8308 0.88164 0.65647 0.0
C8822 C 0.84157 0.88401 0.64309 0.0
C8823 C 0.80216 0.87568 0.66289 0.0
C8824 C 0.79379 0.88147 0.67696 0.0
C8825 C 0.79688 0.86099 0.65492 0.0
C8826 C 0.80503 0.85426 0.63989 0.0
C8827 C 0.8198 0.84681 0.64131 0.0
C8828 C 0.82648 0.83866 0.62756 0.0
C8829 C 0.81846 0.83788 0.61233 0.0
C8830 C 0.80384 0.84543 0.61079 0.0
C8831 C 0.79715 0.85363 0.62449 0.0
H8832 H 0.82343 0.83127 0.60177 0.0
H8833 H 0.74756 0.89617 0.73648 0.0
H8834 H 0.70452 0.4352 0.87677 0.0
H8835 H 0.68924 0.4597 0.87156 0.0
H8836 H 0.65681 0.43084 0.84063 0.0
H8837 H 0.67211 0.40639 0.84593 0.0
H8838 H 0.66598 0.45754 0.82467 0.0
H8839 H 0.6454 0.44661 0.88018 0.0
H8840 H 0.6473 0.44115 0.91039 0.0
H8841 H 0.67272 0.48738 0.91754 0.0
H8842 H 0.67113 0.49303 0.88732 0.0
H8843 H 0.60911 0.53051 0.84571 0.0
H8844 H 0.62019 0.50397 0.85205 0.0
H8845 H 0.66114 0.51555 0.82004 0.0
H8846 H 0.6499 0.54176 0.81321 0.0
H8847 H 0.64591 0.49642 0.86756 0.0
H8848 H 0.67788 0.48085 0.8049 0.0
H8849 H 0.67515 0.48568 0.77466 0.0
H8850 H 0.62451 0.49098 0.78158 0.0
H8851 H 0.62687 0.48586 0.81183 0.0
C8852 C 0.69381 0.43404 0.86933 0.0
C8853 C 0.68919 0.41886 0.86214 0.0
C8854 C 0.68511 0.44806 0.86626 0.0
C8855 C 0.67176 0.44722 0.85571 0.0
C8856 C 0.66702 0.4319 0.8488 0.0
C8857 C 0.67564 0.41788 0.85198 0.0
C8858 C 0.6633 0.46238 0.85112 0.0
C8859 C 0.66155 0.466 0.83408 0.0
C8860 C 0.6574 0.47348 0.86329 0.0
C8861 C 0.65824 0.47018 0.88148 0.0
C8862 C 0.65147 0.45557 0.88818 0.0
C8863 C 0.65248 0.45244 0.90531 0.0
C8864 C 0.66015 0.4639 0.91587 0.0
C8865 C 0.66679 0.47852 0.90934 0.0
C8866 C 0.66582 0.4817 0.89222 0.0
C8867 C 0.62035 0.5273 0.8398 0.0
C8868 C 0.62854 0.53833 0.82889 0.0
C8869 C 0.62675 0.51213 0.84353 0.0
C8870 C 0.64151 0.50756 0.83649 0.0
C8871 C 0.64961 0.51851 0.82544 0.0
C8872 C 0.64315 0.53359 0.82157 0.0
C8873 C 0.64863 0.49164 0.84109 0.0
C8874 C 0.65024 0.48792 0.85814 0.0
C8875 C 0.65427 0.48037 0.8289 0.0
C8876 C 0.65259 0.48311 0.81067 0.0
C8877 C 0.66614 0.48295 0.79996 0.0
C8878 C 0.66466 0.48575 0.78282 0.0
C8879 C 0.64968 0.48867 0.77623 0.0
C8880 C 0.63612 0.48875 0.78673 0.0
C8881 C 0.63752 0.48589 0.80388 0.0
H8882 H 0.64859 0.49084 0.76297 0.0
H8883 H 0.66093 0.46145 0.92912 0.0
H8884 H 0.44837 0.65261 0.56557 0.0
H8885 H 0.43543 0.65017 0.53818 0.0
H8886 H 0.39629 0.62162 0.56057 0.0
H8887 H 0.40901 0.62408 0.58775 0.0
H8888 H 0.40903 0.60566 0.53384 0.0
H8889 H 0.39044 0.65968 0.54575 0.0
H8890 H 0.39333 0.68897 0.55348 0.0
H8891 H 0.4238 0.69779 0.51036 0.0
H8892 H 0.42127 0.6685 0.50249 0.0
H8893 H 0.37283 0.58984 0.45677 0.0
H8894 H 0.37357 0.60153 0.48524 0.0
H8895 H 0.41111 0.63616 0.46964 0.0
H8896 H 0.40952 0.62556 0.44125 0.0
H8897 H 0.396 0.64942 0.49417 0.0
H8898 H 0.42079 0.59593 0.48706 0.0
H8899 H 0.41788 0.5676 0.47599 0.0
H8900 H 0.37651 0.5588 0.50782 0.0
H8901 H 0.37943 0.58695 0.51933 0.0
C8902 C 0.43673 0.64635 0.56476 0.0
C8903 C 0.42976 0.63854 0.57889 0.0
C8904 C 0.42938 0.64483 0.54905 0.0
C8905 C 0.41491 0.63554 0.54722 0.0
C8906 C 0.40749 0.62869 0.56155 0.0
C8907 C 0.41476 0.63022 0.57715 0.0
C8908 C 0.40808 0.63181 0.53033 0.0
C8909 C 0.40594 0.61528 0.52532 0.0
C8910 C 0.40429 0.64423 0.51895 0.0
C8911 C 0.40577 0.66186 0.52361 0.0
C8912 C 0.39786 0.66784 0.53799 0.0
C8913 C 0.39941 0.68445 0.54238 0.0
C8914 C 0.40877 0.69523 0.53244 0.0
C8915 C 0.41657 0.68942 0.51806 0.0
C8916 C 0.41506 0.67282 0.51361 0.0
C8917 C 0.38077 0.60035 0.45928 0.0
C8918 C 0.39138 0.60645 0.44677 0.0
C8919 C 0.3814 0.60689 0.47565 0.0
C8920 C 0.39296 0.61928 0.47988 0.0
C8921 C 0.40226 0.62648 0.46694 0.0
C8922 C 0.40139 0.62026 0.45063 0.0
C8923 C 0.39704 0.62334 0.4977 0.0
C8924 C 0.39884 0.63985 0.50284 0.0
C8925 C 0.40078 0.61096 0.50916 0.0
C8926 C 0.40035 0.59346 0.50406 0.0
C8927 C 0.41127 0.58782 0.4919 0.0
C8928 C 0.40958 0.57184 0.48551 0.0
C8929 C 0.39698 0.56144 0.49116 0.0
C8930 C 0.38626 0.56688 0.50347 0.0
C8931 C 0.38803 0.58277 0.51008 0.0
H8932 H 0.39554 0.54916 0.48604 0.0
H8933 H 0.40996 0.70808 0.53586 0.0
H8934 H 0.91014 0.20903 0.7856 0.0
H8935 H 0.9147 0.20213 0.75611 0.0
H8936 H 0.87353 0.1685 0.75749 0.0
H8937 H 0.86913 0.17501 0.78706 0.0
H8938 H 0.89807 0.15388 0.74448 0.0
H8939 H 0.87382 0.20522 0.736 0.0
H8940 H 0.86991 0.23486 0.73964 0.0
H8941 H 0.91725 0.24554 0.71982 0.0
H8942 H 0.92158 0.21595 0.71636 0.0
H8943 H 0.9107 0.17195 0.64778 0.0
H8944 H 0.89647 0.1744 0.67463 0.0
H8945 H 0.93473 0.1503 0.69896 0.0
H8946 H 0.94865 0.14727 0.67192 0.0
H8947 H 0.90784 0.19316 0.69811 0.0
H8948 H 0.92254 0.13597 0.73672 0.0
H8949 H 0.92522 0.10621 0.73248 0.0
H8950 H 0.89354 0.10697 0.69077 0.0
H8951 H 0.8905 0.13669 0.69489 0.0
C8952 C 0.90188 0.20039 0.77955 0.0
C8953 C 0.88938 0.19243 0.78871 0.0
C8954 C 0.90449 0.19648 0.76267 0.0
C8955 C 0.89445 0.18478 0.75459 0.0
C8956 C 0.88148 0.17747 0.76351 0.0
C8957 C 0.87897 0.18124 0.7804 0.0
C8958 C 0.89815 0.17929 0.73725 0.0
C8959 C 0.90009 0.16246 0.73429 0.0
C8960 C 0.90063 0.19047 0.72395 0.0
C8961 C 0.89807 0.20832 0.72605 0.0
C8962 C 0.88346 0.21387 0.73256 0.0
C8963 C 0.88116 0.23067 0.73457 0.0
C8964 C 0.89334 0.24207 0.73 0.0
C8965 C 0.90784 0.23669 0.72338 0.0
C8966 C 0.91022 0.2199 0.72138 0.0
C8967 C 0.91567 0.16652 0.65878 0.0
C8968 C 0.93067 0.15935 0.65787 0.0
C8969 C 0.90763 0.16807 0.67412 0.0
C8970 C 0.91458 0.1627 0.68885 0.0
C8971 C 0.92901 0.15436 0.68775 0.0
C8972 C 0.93694 0.15255 0.6723 0.0
C8973 C 0.90789 0.16775 0.70535 0.0
C8974 C 0.90557 0.18454 0.70821 0.0
C8975 C 0.90483 0.15652 0.71849 0.0
C8976 C 0.90639 0.13859 0.71605 0.0
C8977 C 0.91608 0.12977 0.7267 0.0
C8978 C 0.91768 0.11291 0.7243 0.0
C8979 C 0.90959 0.10471 0.71134 0.0
C8980 C 0.89984 0.11335 0.70077 0.0
C8981 C 0.8982 0.13021 0.70312 0.0
H8982 H 0.91086 0.09166 0.70949 0.0
H8983 H 0.89152 0.25507 0.73154 0.0
H8984 H 0.34719 0.6819 0.07741 0.0
H8985 H 0.3617 0.68993 0.0518 0.0
H8986 H 0.36307 0.639 0.03658 0.0
H8987 H 0.34962 0.63095 0.06288 0.0
H8988 H 0.39097 0.65164 0.03324 0.0
H8989 H 0.33882 0.66933 0.01847 0.0
H8990 H 0.31393 0.68451 0.02123 0.0
H8991 H 0.34119 0.73018 0.02002 0.0
H8992 H 0.3663 0.7153 0.01765 0.0
H8993 H 0.38674 0.65632 0.94577 0.0
H8994 H 0.38764 0.65197 0.97594 0.0
H8995 H 0.40934 0.70041 0.98258 0.0
H8996 H 0.4092 0.70444 0.95222 0.0
H8997 H 0.37585 0.69435 0.99341 0.0
H8998 H 0.42753 0.67389 1.00116 0.0
H8999 H 0.45058 0.65667 0.99511 0.0
H9000 H 0.42141 0.61332 1.00532 0.0
H9001 H 0.3981 0.63023 0.01119 0.0
C9002 C 0.3502 0.6725 0.06832 0.0
C9003 C 0.34726 0.65585 0.07187 0.0
C9004 C 0.35854 0.67708 0.05373 0.0
C9005 C 0.36349 0.66507 0.04226 0.0
C9006 C 0.35953 0.64846 0.04536 0.0
C9007 C 0.35168 0.64386 0.0602 0.0
C9008 C 0.37358 0.66959 0.0275 0.0
C9009 C 0.38757 0.66089 0.02445 0.0
C9010 C 0.36955 0.68219 0.01645 0.0
C9011 C 0.35447 0.69118 0.01819 0.0
C9012 C 0.33953 0.68261 0.01904 0.0
C9013 C 0.32538 0.69117 0.0205 0.0
C9014 C 0.326 0.70831 0.02093 0.0
C9015 C 0.34076 0.71692 0.01983 0.0
C9016 C 0.35495 0.70843 0.01844 0.0
C9017 C 0.39256 0.6656 0.95361 0.0
C9018 C 0.39781 0.6807 0.94693 0.0
C9019 C 0.39314 0.66312 0.97078 0.0
C9020 C 0.39851 0.67592 0.98136 0.0
C9021 C 0.40536 0.69036 0.97451 0.0
C9022 C 0.40525 0.69264 0.95723 0.0
C9023 C 0.39262 0.67578 0.99877 0.0
C9024 C 0.37942 0.68539 1.00245 0.0
C9025 C 0.39703 0.66365 0.01003 0.0
C9026 C 0.41104 0.65337 1.00659 0.0
C9027 C 0.42599 0.66068 1.00201 0.0
C9028 C 0.43912 0.65097 0.99863 0.0
C9029 C 0.43746 0.63391 0.99982 0.0
C9030 C 0.42268 0.62653 1.00442 0.0
C9031 C 0.40951 0.63619 0.00781 0.0
H9032 H 0.44763 0.62641 0.9972 0.0
H9033 H 0.31503 0.71491 0.02202 0.0
H9034 H 0.84773 0.09225 0.35286 0.0
H9035 H 0.84659 0.11103 0.32987 0.0
H9036 H 0.89383 0.13077 0.34134 0.0
H9037 H 0.89487 0.11198 0.36527 0.0
H9038 H 0.84904 0.14466 0.32558 0.0
H9039 H 0.91178 0.13356 0.30072 0.0
H9040 H 0.93368 0.11439 0.30395 0.0
H9041 H 0.89931 0.07541 0.3154 0.0
H9042 H 0.87725 0.0943 0.31199 0.0
H9043 H 0.84402 0.16647 0.2378 0.0
H9044 H 0.85482 0.16698 0.26628 0.0
H9045 H 0.85589 0.11415 0.26534 0.0
H9046 H 0.84534 0.11351 0.23727 0.0
H9047 H 0.88334 0.12753 0.27768 0.0
H9048 H 0.8254 0.13314 0.28443 0.0
H9049 H 0.80022 0.14734 0.28036 0.0
H9050 H 0.82031 0.19052 0.30441 0.0
H9051 H 0.8457 0.17662 0.3084 0.0
C9052 C 0.85776 0.10081 0.35093 0.0
C9053 C 0.87137 0.1006 0.361 0.0
C9054 C 0.85703 0.11167 0.33775 0.0
C9055 C 0.87003 0.1224 0.33399 0.0
C9056 C 0.88359 0.12266 0.3442 0.0
C9057 C 0.8842 0.11189 0.35776 0.0
C9058 C 0.86975 0.1313 0.31798 0.0
C9059 C 0.85686 0.14143 0.31516 0.0
C9060 C 0.8798 0.12684 0.30439 0.0
C9061 C 0.89294 0.11539 0.30636 0.0
C9062 C 0.90893 0.1209 0.30392 0.0
C9063 C 0.92136 0.11008 0.30575 0.0
C9064 C 0.91789 0.0937 0.30993 0.0
C9065 C 0.90198 0.08809 0.31221 0.0
C9066 C 0.88953 0.09885 0.31033 0.0
C9067 C 0.84654 0.155 0.24373 0.0
C9068 C 0.84382 0.13996 0.23529 0.0
C9069 C 0.85278 0.15532 0.25993 0.0
C9070 C 0.85634 0.14061 0.2678 0.0
C9071 C 0.8535 0.12566 0.25938 0.0
C9072 C 0.8473 0.12533 0.24335 0.0
C9073 C 0.86216 0.14022 0.28518 0.0
C9074 C 0.87611 0.13172 0.2882 0.0
C9075 C 0.85272 0.14563 0.29887 0.0
C9076 C 0.83749 0.15395 0.29649 0.0
C9077 C 0.82448 0.14571 0.28872 0.0
C9078 C 0.81017 0.15368 0.28645 0.0
C9079 C 0.80869 0.16984 0.29207 0.0
C9080 C 0.8215 0.17803 0.30002 0.0
C9081 C 0.83585 0.17012 0.30228 0.0
H9082 H 0.7976 0.17599 0.29032 0.0
H9083 H 0.92752 0.08536 0.31137 0.0
H9084 H 0.42024 0.6451 0.65259 0.0
H9085 H 0.40466 0.64405 0.67904 0.0
H9086 H 0.44607 0.66311 0.70555 0.0
H9087 H 0.46151 0.6641 0.67942 0.0
H9088 H 0.42939 0.64173 0.72442 0.0
H9089 H 0.42004 0.68901 0.69101 0.0
H9090 H 0.41212 0.7039 0.66594 0.0
H9091 H 0.36488 0.68133 0.66947 0.0
H9092 H 0.37261 0.66613 0.69448 0.0
H9093 H 0.40759 0.69938 0.78548 0.0
H9094 H 0.41425 0.68983 0.75727 0.0
H9095 H 0.37251 0.65707 0.7579 0.0
H9096 H 0.36585 0.66624 0.78645 0.0
H9097 H 0.38464 0.6801 0.72515 0.0
H9098 H 0.397 0.6369 0.76489 0.0
H9099 H 0.40838 0.62814 0.79148 0.0
H9100 H 0.45442 0.64886 0.77661 0.0
H9101 H 0.4432 0.65821 0.75013 0.0
C9102 C 0.42606 0.64856 0.66418 0.0
C9103 C 0.44192 0.65491 0.66405 0.0
C9104 C 0.41718 0.64804 0.67921 0.0
C9105 C 0.42418 0.65374 0.69416 0.0
C9106 C 0.44044 0.65869 0.69416 0.0
C9107 C 0.44921 0.65934 0.67922 0.0
C9108 C 0.41442 0.6565 0.70946 0.0
C9109 C 0.41942 0.64988 0.72454 0.0
C9110 C 0.40158 0.66736 0.70961 0.0
C9111 C 0.39697 0.67623 0.69443 0.0
C9112 C 0.40801 0.68708 0.68633 0.0
C9113 C 0.40355 0.69561 0.67216 0.0
C9114 C 0.38802 0.69352 0.66608 0.0
C9115 C 0.37692 0.6829 0.67416 0.0
C9116 C 0.38134 0.67431 0.68833 0.0
C9117 C 0.39962 0.69036 0.77957 0.0
C9118 C 0.38634 0.68334 0.7883 0.0
C9119 C 0.40347 0.68494 0.76346 0.0
C9120 C 0.39396 0.67264 0.75575 0.0
C9121 C 0.37999 0.66653 0.76381 0.0
C9122 C 0.37624 0.67176 0.78008 0.0
C9123 C 0.39963 0.66529 0.73996 0.0
C9124 C 0.39405 0.67128 0.72487 0.0
C9125 C 0.41234 0.65435 0.73985 0.0
C9126 C 0.41919 0.64842 0.75561 0.0
C9127 C 0.4095 0.63978 0.76737 0.0
C9128 C 0.41593 0.6347 0.78242 0.0
C9129 C 0.4321 0.63804 0.78578 0.0
C9130 C 0.44188 0.64639 0.77404 0.0
C9131 C 0.43549 0.65157 0.75901 0.0
H9132 H 0.43706 0.63411 0.79744 0.0
H9133 H 0.38457 0.70017 0.65513 0.0
H9134 H 0.84732 0.15856 0.93247 0.0
H9135 H 0.84026 0.1427 0.95735 0.0
H9136 H 0.88552 0.15731 0.97915 0.0
H9137 H 0.89272 0.17348 0.95414 0.0
H9138 H 0.86062 0.11963 0.98496 0.0
H9139 H 0.87069 0.1826 0.99416 0.0
H9140 H 0.86778 0.2101 0.9821 0.0
H9141 H 0.81876 0.19766 0.97056 0.0
H9142 H 0.82154 0.17 0.98219 0.0
H9143 H 0.86117 0.12906 0.07086 0.0
H9144 H 0.86243 0.12595 0.0408 0.0
H9145 H 0.81676 0.14862 0.03687 0.0
H9146 H 0.81593 0.15281 0.06721 0.0
H9147 H 0.83673 0.16408 0.01895 0.0
H9148 H 0.82354 0.10795 0.02226 0.0
H9149 H 0.82324 0.07953 0.03246 0.0
H9150 H 0.8728 0.07592 0.0182 0.0
H9151 H 0.87351 0.1044 0.00815 0.0
C9152 C 0.856 0.158 0.94235 0.0
C9153 C 0.87035 0.16758 0.94175 0.0
C9154 C 0.85204 0.14872 0.95639 0.0
C9155 C 0.86237 0.14896 0.96993 0.0
C9156 C 0.87753 0.15694 0.9686 0.0
C9157 C 0.88156 0.16626 0.95446 0.0
C9158 C 0.85552 0.14522 0.98649 0.0
C9159 C 0.85554 0.12924 0.99263 0.0
C9160 C 0.84796 0.15763 0.99571 0.0
C9161 C 0.84634 0.17429 0.98893 0.0
C9162 C 0.85934 0.18574 0.98897 0.0
C9163 C 0.85771 0.20133 0.9822 0.0
C9164 C 0.84308 0.20562 0.97562 0.0
C9165 C 0.83008 0.19432 0.97567 0.0
C9166 C 0.83168 0.17869 0.98231 0.0
C9167 C 0.85123 0.1332 0.06369 0.0
C9168 C 0.8386 0.14151 0.07137 0.0
C9169 C 0.85184 0.13111 0.04644 0.0
C9170 C 0.83963 0.13691 0.03654 0.0
C9171 C 0.82633 0.14406 0.0443 0.0
C9172 C 0.82589 0.14651 0.06161 0.0
C9173 C 0.84253 0.13846 0.01834 0.0
C9174 C 0.84162 0.15417 0.01155 0.0
C9175 C 0.84889 0.12559 0.0085 0.0
C9176 C 0.84858 0.10839 0.01448 0.0
C9177 C 0.83442 0.10115 0.02139 0.0
C9178 C 0.83417 0.08501 0.02714 0.0
C9179 C 0.848 0.07593 0.02599 0.0
C9180 C 0.86209 0.08296 0.01906 0.0
C9181 C 0.86241 0.0991 0.0133 0.0
H9182 H 0.84778 0.06344 0.03045 0.0
H9183 H 0.84176 0.21772 0.97053 0.0
H9184 H 0.34354 0.60665 0.37269 0.0
H9185 H 0.33919 0.62278 0.34769 0.0
H9186 H 0.3878 0.61514 0.33108 0.0
H9187 H 0.39223 0.59909 0.35634 0.0
H9188 H 0.37403 0.64539 0.31883 0.0
H9189 H 0.36371 0.58668 0.32288 0.0
H9190 H 0.352 0.56226 0.33715 0.0
H9191 H 0.30475 0.57967 0.33016 0.0
H9192 H 0.31624 0.60463 0.31661 0.0
H9193 H 0.34807 0.60976 0.23304 0.0
H9194 H 0.35501 0.60796 0.26227 0.0
H9195 H 0.33884 0.65694 0.27122 0.0
H9196 H 0.33201 0.65899 0.24148 0.0
H9197 H 0.33559 0.60849 0.2884 0.0
H9198 H 0.36174 0.67296 0.3049 0.0
H9199 H 0.37573 0.69646 0.29101 0.0
H9200 H 0.39507 0.66409 0.25374 0.0
H9201 H 0.38138 0.64039 0.26753 0.0
C9202 C 0.35343 0.60892 0.36397 0.0
C9203 C 0.36806 0.60141 0.36605 0.0
C9204 C 0.35101 0.61827 0.34982 0.0
C9205 C 0.36309 0.61986 0.33747 0.0
C9206 C 0.37836 0.61405 0.34054 0.0
C9207 C 0.38085 0.60482 0.35486 0.0
C9208 C 0.35864 0.62364 0.32019 0.0
C9209 C 0.36554 0.63746 0.31216 0.0
C9210 C 0.34782 0.613 0.31147 0.0
C9211 C 0.34086 0.59769 0.31904 0.0
C9212 C 0.35083 0.58543 0.32461 0.0
C9213 C 0.34424 0.57152 0.33265 0.0
C9214 C 0.32765 0.56956 0.33483 0.0
C9215 C 0.31761 0.58135 0.32872 0.0
C9216 C 0.32416 0.59542 0.32093 0.0
C9217 C 0.34596 0.62021 0.24115 0.0
C9218 C 0.33937 0.63449 0.23498 0.0
C9219 C 0.34996 0.61915 0.25789 0.0
C9220 C 0.34741 0.63228 0.26891 0.0
C9221 C 0.34101 0.64671 0.26285 0.0
C9222 C 0.33707 0.64784 0.24592 0.0
C9223 C 0.351 0.63027 0.28682 0.0
C9224 C 0.3439 0.61666 0.29505 0.0
C9225 C 0.36196 0.64083 0.29544 0.0
C9226 C 0.37037 0.65495 0.28713 0.0
C9227 C 0.36901 0.67087 0.29376 0.0
C9228 C 0.37688 0.68422 0.28591 0.0
C9229 C 0.38623 0.68178 0.27146 0.0
C9230 C 0.38777 0.66597 0.26488 0.0
C9231 C 0.37993 0.65258 0.27269 0.0
H9232 H 0.39231 0.69213 0.2654 0.0
H9233 H 0.32255 0.5588 0.34107 0.0
H9234 H 0.90851 0.13867 0.58606 0.0
H9235 H 0.8971 0.13458 0.55813 0.0
H9236 H 0.94416 0.14175 0.53578 0.0
H9237 H 0.95549 0.14652 0.56366 0.0
H9238 H 0.90044 0.15358 0.5244 0.0
H9239 H 0.94571 0.10329 0.51232 0.0
H9240 H 0.96161 0.08405 0.52819 0.0
H9241 H 0.92657 0.08395 0.56821 0.0
H9242 H 0.91031 0.1029 0.55243 0.0
H9243 H 0.90638 0.12884 0.4386 0.0
H9244 H 0.90915 0.1385 0.46747 0.0
H9245 H 0.88716 0.09308 0.48519 0.0
H9246 H 0.88437 0.08333 0.45612 0.0
H9247 H 0.91514 0.09965 0.50063 0.0
H9248 H 0.86836 0.12945 0.49071 0.0
H9249 H 0.85095 0.14782 0.47563 0.0
H9250 H 0.8859 0.18743 0.48094 0.0
H9251 H 0.90364 0.16924 0.49585 0.0
C9252 C 0.91626 0.14025 0.57513 0.0
C9253 C 0.93282 0.14336 0.57704 0.0
C9254 C 0.90976 0.13774 0.55917 0.0
C9255 C 0.91978 0.13772 0.54485 0.0
C9256 C 0.93618 0.14175 0.54664 0.0
C9257 C 0.94262 0.1447 0.56257 0.0
C9258 C 0.91346 0.13178 0.5284 0.0
C9259 C 0.90367 0.14183 0.51915 0.0
C9260 C 0.91729 0.11623 0.52175 0.0
C9261 C 0.92693 0.10473 0.53129 0.0
C9262 C 0.94139 0.09914 0.52449 0.0
C9263 C 0.95045 0.08827 0.53346 0.0
C9264 C 0.94514 0.08284 0.54923 0.0
C9265 C 0.93072 0.08824 0.55603 0.0
C9266 C 0.92159 0.09907 0.54709 0.0
C9267 C 0.9016 0.12112 0.44861 0.0
C9268 C 0.89497 0.10538 0.44499 0.0
C9269 C 0.90325 0.12665 0.46518 0.0
C9270 C 0.89841 0.11656 0.47865 0.0
C9271 C 0.89101 0.10113 0.47507 0.0
C9272 C 0.88919 0.09565 0.45841 0.0
C9273 C 0.90236 0.12162 0.49627 0.0
C9274 C 0.9118 0.11141 0.50579 0.0
C9275 C 0.89802 0.13694 0.50324 0.0
C9276 C 0.88739 0.14793 0.49429 0.0
C9277 C 0.8724 0.14204 0.48855 0.0
C9278 C 0.86246 0.15243 0.48005 0.0
C9279 C 0.86733 0.16877 0.4773 0.0
C9280 C 0.88215 0.17477 0.48307 0.0
C9281 C 0.89214 0.16443 0.49157 0.0
H9282 H 0.85962 0.1768 0.47072 0.0
H9283 H 0.95215 0.07441 0.55615 0.0
H9284 H 0.47788 0.93248 0.69275 0.0
H9285 H 0.50434 0.92355 0.68384 0.0
H9286 H 0.49255 0.87506 0.70264 0.0
H9287 H 0.46651 0.88401 0.71222 0.0
H9288 H 0.52259 0.88166 0.70648 0.0
H9289 H 0.48554 0.88475 0.6631 0.0
H9290 H 0.46592 0.89667 0.64457 0.0
H9291 H 0.50221 0.9307 0.62563 0.0
H9292 H 0.52205 0.91904 0.64419 0.0
H9293 H 0.57096 0.84587 0.63392 0.0
H9294 H 0.54614 0.85923 0.64206 0.0
H9295 H 0.57214 0.8893 0.67796 0.0
H9296 H 0.59676 0.87583 0.67009 0.0
H9297 H 0.53369 0.88964 0.64574 0.0
H9298 H 0.55134 0.88493 0.71655 0.0
H9299 H 0.56718 0.86751 0.73447 0.0
H9300 H 0.56524 0.82915 0.69733 0.0
H9301 H 0.54883 0.84604 0.67944 0.0
C9302 C 0.48113 0.92006 0.69543 0.0
C9303 C 0.47002 0.90883 0.7028 0.0
C9304 C 0.49617 0.91496 0.69025 0.0
C9305 C 0.50011 0.89854 0.69213 0.0
C9306 C 0.48964 0.88776 0.70092 0.0
C9307 C 0.47474 0.89292 0.7064 0.0
C9308 C 0.51444 0.89216 0.68371 0.0
C9309 C 0.52515 0.88359 0.69327 0.0
C9310 C 0.51719 0.89392 0.66625 0.0
C9311 C 0.50527 0.90108 0.65514 0.0
C9312 C 0.48933 0.89483 0.65505 0.0
C9313 C 0.47816 0.90153 0.64453 0.0
C9314 C 0.4828 0.91446 0.63395 0.0
C9315 C 0.49863 0.92069 0.63385 0.0
C9316 C 0.50985 0.91402 0.64436 0.0
C9317 C 0.5714 0.85582 0.643 0.0
C9318 C 0.58555 0.85985 0.65151 0.0
C9319 C 0.55726 0.86335 0.64772 0.0
C9320 C 0.55733 0.87488 0.6609 0.0
C9321 C 0.57186 0.88019 0.66798 0.0
C9322 C 0.58588 0.8726 0.66342 0.0
C9323 C 0.54223 0.87995 0.66874 0.0
C9324 C 0.53128 0.88805 0.65903 0.0
C9325 C 0.53888 0.87712 0.68596 0.0
C9326 C 0.54906 0.86692 0.69648 0.0
C9327 C 0.55424 0.87277 0.7122 0.0
C9328 C 0.56323 0.86293 0.72241 0.0
C9329 C 0.56726 0.84726 0.717 0.0
C9330 C 0.56218 0.84133 0.70143 0.0
C9331 C 0.55301 0.85103 0.69126 0.0
H9332 H 0.57431 0.83971 0.72488 0.0
H9333 H 0.47414 0.91965 0.6258 0.0
H9334 H 0.3319 0.38776 0.15709 0.0
H9335 H 0.31608 0.38515 0.13186 0.0
H9336 H 0.34958 0.41833 0.10612 0.0
H9337 H 0.36474 0.4218 0.13191 0.0
H9338 H 0.32331 0.43087 0.10621 0.0
H9339 H 0.33701 0.37902 0.08813 0.0
H9340 H 0.34477 0.35023 0.08936 0.0
H9341 H 0.29884 0.33642 0.11098 0.0
H9342 H 0.29087 0.36512 0.11021 0.0
H9343 H 0.24343 0.43985 0.08045 0.0
H9344 H 0.27013 0.42991 0.07349 0.0
H9345 H 0.26906 0.40199 0.11914 0.0
H9346 H 0.24265 0.41189 0.12622 0.0
H9347 H 0.28462 0.386 0.09049 0.0
H9348 H 0.28345 0.43988 0.12237 0.0
H9349 H 0.27538 0.46869 0.12346 0.0
H9350 H 0.29838 0.47746 0.07566 0.0
H9351 H 0.30642 0.44863 0.07426 0.0
C9352 C 0.33613 0.39401 0.14585 0.0
C9353 C 0.3492 0.40522 0.14636 0.0
C9354 C 0.32723 0.39235 0.13128 0.0
C9355 C 0.33161 0.40156 0.11695 0.0
C9356 C 0.34591 0.41119 0.11699 0.0
C9357 C 0.35449 0.41324 0.13171 0.0
C9358 C 0.31927 0.40455 0.10434 0.0
C9359 C 0.31529 0.42095 0.10202 0.0
C9360 C 0.30875 0.39176 0.09862 0.0
C9361 C 0.3133 0.37431 0.09899 0.0
C9362 C 0.32856 0.36987 0.09319 0.0
C9363 C 0.33301 0.35354 0.09382 0.0
C9364 C 0.32229 0.3415 0.1002 0.0
C9365 C 0.3071 0.34576 0.10597 0.0
C9366 C 0.30259 0.36206 0.10538 0.0
C9367 C 0.24885 0.43143 0.08887 0.0
C9368 C 0.24117 0.42687 0.10403 0.0
C9369 C 0.26395 0.42562 0.08476 0.0
C9370 C 0.27139 0.41509 0.09571 0.0
C9371 C 0.26335 0.4099 0.1104 0.0
C9372 C 0.24841 0.41582 0.11459 0.0
C9373 C 0.28856 0.41198 0.09405 0.0
C9374 C 0.29335 0.39569 0.09358 0.0
C9375 C 0.29994 0.4248 0.09718 0.0
C9376 C 0.29542 0.44216 0.09816 0.0
C9377 C 0.28675 0.44798 0.1121 0.0
C9378 C 0.28217 0.46428 0.11277 0.0
C9379 C 0.28635 0.47489 0.09963 0.0
C9380 C 0.29514 0.46922 0.08582 0.0
C9381 C 0.2997 0.45291 0.08507 0.0
H9382 H 0.28281 0.48751 0.10016 0.0
H9383 H 0.32577 0.32887 0.1007 0.0
H9384 H 0.59282 0.94422 0.90896 0.0
H9385 H 0.6022 0.96996 0.9212 0.0
H9386 H 0.63322 0.97905 0.87817 0.0
H9387 H 0.62446 0.95258 0.86604 0.0
H9388 H 0.6488 0.98319 0.90768 0.0
H9389 H 0.59684 0.99859 0.88573 0.0
H9390 H 0.56747 0.99471 0.88388 0.0
H9391 H 0.5626 1.002 0.93703 0.0
H9392 H 0.59192 1.00551 0.93926 0.0
H9393 H 0.66575 0.06762 0.91312 0.0
H9394 H 0.66101 0.03829 0.90933 0.0
H9395 H 0.62693 0.03782 0.95072 0.0
H9396 H 0.63012 0.06736 0.95313 0.0
H9397 H 0.61303 0.02746 0.9255 0.0
H9398 H 0.66162 0.01363 0.94978 0.0
H9399 H 0.69046 0.01504 0.95587 0.0
H9400 H 0.70159 1.00293 0.90462 0.0
H9401 H 0.67281 1.00164 0.89815 0.0
C9402 C 0.60147 0.95173 0.9019 0.0
C9403 C 0.60806 0.94632 0.88659 0.0
C9404 C 0.6068 0.96647 0.90896 0.0
C9405 C 0.61835 0.97632 0.90055 0.0
C9406 C 0.62433 0.97145 0.88483 0.0
C9407 C 0.61922 0.95647 0.87786 0.0
C9408 C 0.62458 0.99144 0.90854 0.0
C9409 C 0.64109 0.99304 0.91143 0.0
C9410 C 0.61427 1.00367 0.9143 0.0
C9411 C 0.59659 1.0022 0.91267 0.0
C9412 C 0.58951 0.99932 0.89702 0.0
C9413 C 0.57287 0.99717 0.89591 0.0
C9414 C 0.56321 0.99809 0.91035 0.0
C9415 C 0.57012 1.00127 0.92588 0.0
C9416 C 0.58673 1.00334 0.92707 0.0
C9417 C 0.65745 0.06122 0.9216 0.0
C9418 C 0.64821 0.06981 0.93335 0.0
C9419 C 0.65498 0.04437 0.91963 0.0
C9420 C 0.64362 0.03587 0.92977 0.0
C9421 C 0.6357 0.04419 0.94272 0.0
C9422 C 0.63765 0.0611 0.94419 0.0
C9423 C 0.63745 0.01955 0.92448 0.0
C9424 C 0.62089 0.01764 0.92202 0.0
C9425 C 0.64766 1.00688 0.91966 0.0
C9426 C 0.66503 1.00763 0.92345 0.0
C9427 C 0.67021 1.01138 0.93977 0.0
C9428 C 0.68656 1.01213 0.9433 0.0
C9429 C 0.69785 1.0091 0.93063 0.0
C9430 C 0.69282 1.00527 0.91442 0.0
C9431 C 0.67649 1.00449 0.91082 0.0
H9432 H 0.7105 1.0097 0.93338 0.0
H9433 H 0.55037 0.99632 0.90959 0.0
H9434 H 0.21553 0.35488 0.68802 0.0
H9435 H 0.24208 0.36686 0.69387 0.0
H9436 H 0.26208 0.33859 0.65325 0.0
H9437 H 0.23553 0.32669 0.64711 0.0
H9438 H 0.27804 0.35796 0.69544 0.0
H9439 H 0.27058 0.36756 0.62536 0.0
H9440 H 0.24872 0.36798 0.605 0.0
H9441 H 0.21699 0.38628 0.64312 0.0
H9442 H 0.23876 0.3863 0.66359 0.0
H9443 H 0.33974 0.35849 0.64155 0.0
H9444 H 0.31965 0.35984 0.66353 0.0
H9445 H 0.30954 0.40924 0.64912 0.0
H9446 H 0.32954 0.40766 0.62641 0.0
H9447 H 0.28534 0.39093 0.64377 0.0
H9448 H 0.31431 0.39889 0.69225 0.0
H9449 H 0.33622 0.39742 0.71235 0.0
H9450 H 0.32622 0.34576 0.71809 0.0
H9451 H 0.30444 0.3468 0.69783 0.0
C9452 C 0.22568 0.35077 0.6807 0.0
C9453 C 0.22346 0.34038 0.66667 0.0
C9454 C 0.24085 0.35748 0.68424 0.0
C9455 C 0.25383 0.35382 0.67377 0.0
C9456 C 0.25205 0.34158 0.66137 0.0
C9457 C 0.23688 0.33487 0.65779 0.0
C9458 C 0.26759 0.36552 0.67252 0.0
C9459 C 0.27979 0.36535 0.6843 0.0
C9460 C 0.26918 0.37589 0.65849 0.0
C9461 C 0.25627 0.37684 0.64602 0.0
C9462 C 0.25898 0.37184 0.62934 0.0
C9463 C 0.24661 0.37197 0.61779 0.0
C9464 C 0.23147 0.37712 0.62277 0.0
C9465 C 0.22871 0.38227 0.63928 0.0
C9466 C 0.24107 0.38222 0.65086 0.0
C9467 C 0.33356 0.36984 0.64331 0.0
C9468 C 0.33565 0.38272 0.63187 0.0
C9469 C 0.32227 0.37076 0.65622 0.0
C9470 C 0.3129 0.38461 0.65796 0.0
C9471 C 0.31658 0.39839 0.64795 0.0
C9472 C 0.32789 0.39743 0.63489 0.0
C9473 C 0.29684 0.38233 0.6659 0.0
C9474 C 0.28376 0.38426 0.65541 0.0
C9475 C 0.29453 0.3738 0.6812 0.0
C9476 C 0.30762 0.37296 0.6935 0.0
C9477 C 0.31681 0.38718 0.69772 0.0
C9478 C 0.32922 0.38643 0.70917 0.0
C9479 C 0.33259 0.37151 0.71651 0.0
C9480 C 0.32356 0.35732 0.71243 0.0
C9481 C 0.31112 0.358 0.701 0.0
H9482 H 0.34222 0.37095 0.72536 0.0
H9483 H 0.22188 0.37714 0.61384 0.0
H9484 H 0.92069 0.56946 0.10411 0.0
H9485 H 0.91347 0.54055 0.09963 0.0
H9486 H 0.96343 0.52908 0.10027 0.0
H9487 H 0.9707 0.55851 0.1033 0.0
H9488 H 0.95163 0.50807 0.08126 0.0
H9489 H 0.93203 0.52253 0.13558 0.0
H9490 H 0.91727 0.53816 0.15705 0.0
H9491 H 0.873 0.52636 0.13235 0.0
H9492 H 0.88753 0.51082 0.11061 0.0
H9493 H 0.93522 0.42359 0.10158 0.0
H9494 H 0.94165 0.4529 0.10404 0.0
H9495 H 0.89526 0.46352 0.08523 0.0
H9496 H 0.88875 0.43388 0.08231 0.0
H9497 H 0.90508 0.48427 0.11332 0.0
H9498 H 0.92729 0.46786 0.05951 0.0
H9499 H 0.94386 0.45087 0.04085 0.0
H9500 H 0.9856 0.46444 0.06909 0.0
H9501 H 0.96934 0.48155 0.08793 0.0
C9502 C 0.93021 0.56083 0.10315 0.0
C9503 C 0.94633 0.56655 0.10418 0.0
C9504 C 0.92602 0.54405 0.10082 0.0
C9505 C 0.9377 0.53197 0.10026 0.0
C9506 C 0.95393 0.53775 0.10079 0.0
C9507 C 0.95817 0.55473 0.10256 0.0
C9508 C 0.93292 0.51359 0.09917 0.0
C9509 C 0.94156 0.50301 0.08852 0.0
C9510 C 0.91966 0.50633 0.10836 0.0
C9511 C 0.91088 0.51566 0.12139 0.0
C9512 C 0.91916 0.52336 0.13467 0.0
C9513 C 0.91084 0.53219 0.14689 0.0
C9514 C 0.89422 0.53329 0.14604 0.0
C9515 C 0.88588 0.52552 0.13298 0.0
C9516 C 0.89414 0.51669 0.12072 0.0
C9517 C 0.92615 0.43202 0.09815 0.0
C9518 C 0.91128 0.42596 0.09187 0.0
C9519 C 0.92998 0.44898 0.09945 0.0
C9520 C 0.91912 0.46076 0.09467 0.0
C9521 C 0.90399 0.45487 0.08903 0.0
C9522 C 0.90019 0.43779 0.08749 0.0
C9523 C 0.92374 0.47903 0.09547 0.0
C9524 C 0.91511 0.48949 0.10608 0.0
C9525 C 0.93727 0.48603 0.08666 0.0
C9526 C 0.94707 0.47592 0.0752 0.0
C9527 C 0.93999 0.46718 0.06179 0.0
C9528 C 0.94932 0.45753 0.05118 0.0
C9529 C 0.96573 0.45649 0.05386 0.0
C9530 C 0.97288 0.46522 0.06707 0.0
C9531 C 0.96363 0.47495 0.07768 0.0
H9532 H 0.97292 0.44896 0.04566 0.0
H9533 H 0.8878 0.54013 0.15551 0.0
H9534 H 0.06535 0.15386 0.8117 0.0
H9535 H 0.03771 0.15962 0.81845 0.0
H9536 H 0.03754 0.1249 0.85857 0.0
H9537 H 0.06579 0.11869 0.85145 0.0
H9538 H 1.00665 0.12428 0.84637 0.0
H9539 H 0.03934 0.17041 0.86464 0.0
H9540 H 0.06113 0.19136 0.86056 0.0
H9541 H 0.03624 0.21119 0.81924 0.0
H9542 H 1.0143 0.19039 0.82311 0.0
H9543 H 0.92907 0.15649 0.87508 0.0
H9544 H 0.95688 0.14715 0.87272 0.0
H9545 H 0.96813 0.18487 0.83663 0.0
H9546 H 0.94093 0.1943 0.83938 0.0
H9547 H 0.99406 0.18306 0.84955 0.0
H9548 H 0.96183 0.13668 0.83033 0.0
H9549 H 0.94115 0.11433 0.83236 0.0
H9550 H 0.96514 0.09433 0.8742 0.0
H9551 H 0.98588 0.11668 0.87251 0.0
C9552 C 0.05968 0.14714 0.82197 0.0
C9553 C 0.0687 0.13561 0.83079 0.0
C9554 C 0.04344 0.15072 0.82604 0.0
C9555 C 0.03471 0.14332 0.83955 0.0
C9556 C 0.04337 0.13123 0.84814 0.0
C9557 C 0.05985 0.12751 0.84394 0.0
C9558 C 1.01713 0.14869 0.84449 0.0
C9559 C 1.00414 0.13719 0.84729 0.0
C9560 C 1.01275 0.16551 0.84563 0.0
C9561 C 0.02526 0.17879 0.84408 0.0
C9562 C 0.03849 0.17931 0.85475 0.0
C9563 C 0.05086 0.19115 0.85247 0.0
C9564 C 0.0501 0.20256 0.83962 0.0
C9565 C 0.03681 0.20236 0.82921 0.0
C9566 C 0.02437 0.19059 0.83148 0.0
C9567 C 0.93748 0.16312 0.86693 0.0
C9568 C 0.93207 0.17662 0.85772 0.0
C9569 C 0.95371 0.15746 0.86523 0.0
C9570 C 0.96556 0.16478 0.85408 0.0
C9571 C 0.96008 0.17851 0.84538 0.0
C9572 C 0.94408 0.18407 0.84705 0.0
C9573 C 0.9833 0.15867 0.8512 0.0
C9574 C 0.99643 0.17011 0.84873 0.0
C9575 C 0.98772 0.14181 0.85032 0.0
C9576 C 0.97528 0.12844 0.85142 0.0
C9577 C 0.96263 0.12757 0.84003 0.0
C9578 C 0.95091 0.1149 0.84111 0.0
C9579 C 0.9518 0.10295 0.85344 0.0
C9580 C 0.96444 0.10362 0.86468 0.0
C9581 C 0.97618 0.11628 0.86367 0.0
H9582 H 0.94272 0.09314 0.85425 0.0
H9583 H 0.05984 0.21151 0.83771 0.0
H9584 H 0.17162 0.61571 0.32318 0.0
H9585 H 0.19957 0.61232 0.33162 0.0
H9586 H 0.18275 0.59211 0.37855 0.0
H9587 H 0.15496 0.5949 0.36985 0.0
H9588 H 0.2099 0.61037 0.38498 0.0
H9589 H 0.19668 0.56855 0.34566 0.0
H9590 H 0.18832 0.55544 0.31914 0.0
H9591 H 0.2286 0.57875 0.29356 0.0
H9592 H 0.23688 0.59249 0.31978 0.0
H9593 H 0.28603 0.57632 0.40905 0.0
H9594 H 0.25802 0.58133 0.40199 0.0
H9595 H 0.27317 0.59501 0.3521 0.0
H9596 H 0.3009 0.58998 0.35913 0.0
H9597 H 0.24649 0.57998 0.34759 0.0
H9598 H 0.25866 0.62307 0.38735 0.0
H9599 H 0.26713 0.63497 0.41445 0.0
H9600 H 0.22898 0.60775 0.43965 0.0
H9601 H 0.22039 0.59555 0.41271 0.0
C9602 C 0.17375 0.61099 0.33552 0.0
C9603 C 0.16041 0.60611 0.34585 0.0
C9604 C 0.19002 0.60876 0.34035 0.0
C9605 C 0.194 0.60175 0.35594 0.0
C9606 C 0.18068 0.59759 0.36653 0.0
C9607 C 0.16448 0.5994 0.36152 0.0
C9608 C 0.21162 0.59825 0.36101 0.0
C9609 C 0.21773 0.60359 0.3767 0.0
C9610 C 0.22259 0.58948 0.35064 0.0
C9611 C 0.21727 0.58177 0.33468 0.0
C9612 C 0.20361 0.57112 0.33433 0.0
C9613 C 0.19889 0.56354 0.31934 0.0
C9614 C 0.20791 0.56626 0.30466 0.0
C9615 C 0.22161 0.57664 0.30493 0.0
C9616 C 0.22627 0.58441 0.31983 0.0
C9617 C 0.28352 0.58046 0.39657 0.0
C9618 C 0.29636 0.58257 0.38478 0.0
C9619 C 0.26719 0.58349 0.39244 0.0
C9620 C 0.26267 0.5889 0.37631 0.0
C9621 C 0.27556 0.59087 0.36462 0.0
C9622 C 0.29178 0.5879 0.36873 0.0
C9623 C 0.24493 0.59237 0.37143 0.0
C9624 C 0.23874 0.58693 0.35579 0.0
C9625 C 0.23387 0.60099 0.38187 0.0
C9626 C 0.239 0.60827 0.39805 0.0
C9627 C 0.25215 0.61954 0.39869 0.0
C9628 C 0.25696 0.62635 0.41401 0.0
C9629 C 0.24863 0.62208 0.42877 0.0
C9630 C 0.23544 0.61102 0.42822 0.0
C9631 C 0.23059 0.60416 0.41292 0.0
H9632 H 0.25237 0.62736 0.44062 0.0
H9633 H 0.20426 0.56034 0.29309 0.0
H9634 H 0.8875 0.36927 0.66509 0.0
H9635 H 0.89115 0.34129 0.65405 0.0
H9636 H 0.94222 0.35085 0.65145 0.0
H9637 H 0.93852 0.37879 0.66095 0.0
H9638 H 0.93719 0.33193 0.62744 0.0
H9639 H 0.91552 0.32804 0.68431 0.0
H9640 H 0.89373 0.33441 0.70409 0.0
H9641 H 0.86069 0.30416 0.6758 0.0
H9642 H 0.88211 0.29842 0.65511 0.0
H9643 H 0.9636 0.24952 0.618 0.0
H9644 H 0.95763 0.27777 0.62661 0.0
H9645 H 0.90898 0.26213 0.63818 0.0
H9646 H 0.9159 0.23373 0.63276 0.0
H9647 H 0.91111 0.28445 0.65653 0.0
H9648 H 0.92827 0.28996 0.59917 0.0
H9649 H 0.94555 0.28857 0.57382 0.0
H9650 H 0.98282 0.3164 0.59888 0.0
H9651 H 0.9658 0.31787 0.62441 0.0
C9652 C 0.89949 0.36554 0.66195 0.0
C9653 C 0.9126 0.37685 0.66399 0.0
C9654 C 0.90169 0.34921 0.65575 0.0
C9655 C 0.91717 0.34308 0.65216 0.0
C9656 C 0.9301 0.35459 0.65396 0.0
C9657 C 0.92788 0.37091 0.65954 0.0
C9658 C 0.92031 0.32499 0.64697 0.0
C9659 C 0.93157 0.32162 0.63406 0.0
C9660 C 0.91276 0.31094 0.65475 0.0
C9661 C 0.90039 0.31295 0.66805 0.0
C9662 C 0.9036 0.32277 0.68226 0.0
C9663 C 0.89127 0.32641 0.69356 0.0
C9664 C 0.8758 0.31975 0.69124 0.0
C9665 C 0.87265 0.30939 0.67756 0.0
C9666 C 0.88487 0.30603 0.66596 0.0
C9667 C 0.95165 0.2521 0.62242 0.0
C9668 C 0.94047 0.2389 0.62472 0.0
C9669 C 0.948 0.26859 0.62692 0.0
C9670 C 0.93249 0.27312 0.63246 0.0
C9671 C 0.92111 0.25983 0.63408 0.0
C9672 C 0.92507 0.24327 0.63065 0.0
C9673 C 0.92826 0.29121 0.63695 0.0
C9674 C 0.91683 0.29463 0.64983 0.0
C9675 C 0.93529 0.30537 0.62876 0.0
C9676 C 0.9458 0.30393 0.61371 0.0
C9677 C 0.94019 0.29569 0.5993 0.0
C9678 C 0.9499 0.29496 0.58488 0.0
C9679 C 0.96521 0.30252 0.5847 0.0
C9680 C 0.97091 0.31068 0.59899 0.0
C9681 C 0.96124 0.31145 0.61344 0.0
H9682 H 0.97272 0.3019 0.57354 0.0
H9683 H 0.86631 0.32251 0.70011 0.0
H9684 H 0.2048 0.14067 0.4345 0.0
H9685 H 0.23319 0.14327 0.42497 0.0
H9686 H 0.22536 0.19199 0.40756 0.0
H9687 H 0.19762 0.18964 0.41753 0.0
H9688 H 0.25289 0.14712 0.39873 0.0
H9689 H 0.25902 0.2176 0.40659 0.0
H9690 H 0.24744 0.23989 0.42339 0.0
H9691 H 0.23372 0.2057 0.4621 0.0
H9692 H 0.24538 0.18326 0.44559 0.0
H9693 H 0.33244 0.176 0.3641 0.0
H9694 H 0.30372 0.16931 0.37033 0.0
H9695 H 0.30913 0.18959 0.41992 0.0
H9696 H 0.33691 0.19644 0.4138 0.0
H9697 H 0.28288 0.19868 0.41314 0.0
H9698 H 0.30196 0.14436 0.40683 0.0
H9699 H 0.31468 0.12125 0.39236 0.0
H9700 H 0.27975 0.12222 0.35362 0.0
H9701 H 0.26692 0.14546 0.36778 0.0
C9702 C 0.20897 0.15185 0.42835 0.0
C9703 C 0.19823 0.16483 0.42679 0.0
C9704 C 0.22554 0.15344 0.4229 0.0
C9705 C 0.23236 0.16809 0.41563 0.0
C9706 C 0.22132 0.18064 0.41345 0.0
C9707 C 0.20501 0.17916 0.41905 0.0
C9708 C 0.25068 0.17064 0.41082 0.0
C9709 C 0.25926 0.15853 0.40185 0.0
C9710 C 0.25996 0.18529 0.41474 0.0
C9711 C 0.25296 0.19871 0.4248 0.0
C9712 C 0.25359 0.21485 0.41872 0.0
C9713 C 0.247 0.22751 0.42818 0.0
C9714 C 0.23981 0.22421 0.44379 0.0
C9715 C 0.23926 0.20824 0.45 0.0
C9716 C 0.24586 0.19555 0.4406 0.0
C9717 C 0.32765 0.17888 0.37641 0.0
C9718 C 0.33785 0.18689 0.38828 0.0
C9719 C 0.31089 0.17497 0.38011 0.0
C9720 C 0.30337 0.17872 0.3959 0.0
C9721 C 0.31374 0.18644 0.40759 0.0
C9722 C 0.33016 0.19036 0.40395 0.0
C9723 C 0.28508 0.17542 0.40052 0.0
C9724 C 0.27651 0.18736 0.40969 0.0
C9725 C 0.27592 0.16066 0.3968 0.0
C9726 C 0.28359 0.14675 0.38827 0.0
C9727 C 0.29706 0.13971 0.39517 0.0
C9728 C 0.30428 0.12658 0.38703 0.0
C9729 C 0.29806 0.1203 0.37205 0.0
C9730 C 0.28457 0.12712 0.36521 0.0
C9731 C 0.27732 0.14026 0.37329 0.0
H9732 H 0.30366 0.11014 0.36578 0.0
H9733 H 0.23469 0.23403 0.45108 0.0
H9734 H 0.40714 0.46627 0.16975 0.0
H9735 H 0.40303 0.4954 0.16289 0.0
H9736 H 0.36095 0.49488 0.19485 0.0
H9737 H 0.36505 0.46653 0.2018 0.0
H9738 H 0.35348 0.50835 0.16634 0.0
H9739 H 0.39773 0.51633 0.20425 0.0
H9740 H 0.42538 0.513 0.21361 0.0
H9741 H 0.4438 0.53498 0.1682 0.0
H9742 H 0.41623 0.53825 0.15848 0.0
H9743 H 0.3308 0.58873 0.18026 0.0
H9744 H 0.34116 0.56168 0.1816 0.0
H9745 H 0.38089 0.57654 0.14941 0.0
H9746 H 0.37054 0.60465 0.14831 0.0
H9747 H 0.39176 0.55579 0.17303 0.0
H9748 H 0.34854 0.55015 0.13574 0.0
H9749 H 0.32138 0.55277 0.12474 0.0
H9750 H 0.30143 0.52552 0.16636 0.0
H9751 H 0.32847 0.52291 0.17777 0.0
C9752 C 0.39723 0.47245 0.17561 0.0
C9753 C 0.38647 0.46359 0.1864 0.0
C9754 C 0.39477 0.48925 0.17158 0.0
C9755 C 0.38146 0.49779 0.17814 0.0
C9756 C 0.37118 0.48899 0.18928 0.0
C9757 C 0.37366 0.47251 0.19334 0.0
C9758 C 0.3775 0.51546 0.17338 0.0
C9759 C 0.36191 0.51865 0.16798 0.0
C9760 C 0.3884 0.52928 0.1747 0.0
C9761 C 0.40493 0.52735 0.18055 0.0
C9762 C 0.40768 0.52033 0.1962 0.0
C9763 C 0.42333 0.51848 0.20159 0.0
C9764 C 0.43634 0.52373 0.19149 0.0
C9765 C 0.43371 0.53089 0.176 0.0
C9766 C 0.41808 0.53275 0.17055 0.0
C9767 C 0.34177 0.58659 0.17326 0.0
C9768 C 0.34961 0.59947 0.16406 0.0
C9769 C 0.34771 0.5707 0.17401 0.0
C9770 C 0.36181 0.5664 0.16543 0.0
C9771 C 0.36992 0.57914 0.1562 0.0
C9772 C 0.3639 0.59536 0.15544 0.0
C9773 C 0.36757 0.54868 0.16646 0.0
C9774 C 0.38339 0.54547 0.17121 0.0
C9775 C 0.35693 0.53472 0.16433 0.0
C9776 C 0.34057 0.53642 0.15767 0.0
C9777 C 0.33836 0.54483 0.14264 0.0
C9778 C 0.32299 0.5463 0.13631 0.0
C9779 C 0.3097 0.53932 0.14485 0.0
C9780 C 0.31175 0.53091 0.15976 0.0
C9781 C 0.32711 0.52941 0.16616 0.0
H9782 H 0.29784 0.54035 0.13984 0.0
H9783 H 0.44845 0.52229 0.19568 0.0
H9784 H 0.64442 0.39691 0.42047 0.0
H9785 H 0.65189 0.40135 0.44953 0.0
H9786 H 0.60866 0.37526 0.46595 0.0
H9787 H 0.60091 0.37101 0.43657 0.0
H9788 H 0.61278 0.40287 0.48443 0.0
H9789 H 0.6471 0.35905 0.46953 0.0
H9790 H 0.66711 0.34463 0.45241 0.0
H9791 H 0.70148 0.38437 0.46017 0.0
H9792 H 0.68159 0.39913 0.47717 0.0
H9793 H 0.63563 0.39101 0.56876 0.0
H9794 H 0.6312 0.38544 0.5392 0.0
H9795 H 0.66536 0.4242 0.52593 0.0
H9796 H 0.6696 0.43036 0.55588 0.0
H9797 H 0.66639 0.39091 0.50606 0.0
H9798 H 0.63236 0.43471 0.52106 0.0
H9799 H 0.61314 0.44836 0.53978 0.0
H9800 H 0.57857 0.40878 0.53227 0.0
H9801 H 0.59775 0.39465 0.51377 0.0
C9802 C 0.63661 0.39169 0.43018 0.0
C9803 C 0.62209 0.38335 0.42592 0.0
C9804 C 0.64094 0.39431 0.44696 0.0
C9805 C 0.63099 0.38861 0.46026 0.0
C9806 C 0.61666 0.37984 0.4561 0.0
C9807 C 0.61232 0.37716 0.43919 0.0
C9808 C 0.63543 0.39228 0.47831 0.0
C9809 C 0.62444 0.40002 0.48912 0.0
C9810 C 0.65082 0.38911 0.48466 0.0
C9811 C 0.66281 0.38025 0.4745 0.0
C9812 C 0.65889 0.36476 0.46749 0.0
C9813 C 0.67021 0.35652 0.45782 0.0
C9814 C 0.68554 0.3636 0.45517 0.0
C9815 C 0.68959 0.37891 0.46222 0.0
C9816 C 0.67831 0.38721 0.47189 0.0
C9817 C 0.6425 0.3983 0.5597 0.0
C9818 C 0.65309 0.41119 0.56502 0.0
C9819 C 0.63983 0.39507 0.54265 0.0
C9820 C 0.64783 0.40438 0.53016 0.0
C9821 C 0.65902 0.41676 0.53526 0.0
C9822 C 0.66152 0.42023 0.55246 0.0
C9823 C 0.64378 0.40143 0.512 0.0
C9824 C 0.65478 0.3938 0.50125 0.0
C9825 C 0.62846 0.40475 0.5057 0.0
C9826 C 0.61659 0.4135 0.5162 0.0
C9827 C 0.62071 0.42884 0.52348 0.0
C9828 C 0.60982 0.43667 0.53405 0.0
C9829 C 0.59468 0.42941 0.53726 0.0
C9830 C 0.59034 0.41436 0.5298 0.0
C9831 C 0.60121 0.40642 0.51926 0.0
H9832 H 0.58634 0.43543 0.54557 0.0
H9833 H 0.69429 0.3572 0.44769 0.0
H9834 H 0.1539 0.84843 0.19299 0.0
H9835 H 0.15195 0.85337 0.22351 0.0
H9836 H 0.10057 0.84674 0.22157 0.0
H9837 H 0.10239 0.84217 0.19162 0.0
H9838 H 0.10576 0.87043 0.24153 0.0
H9839 H 0.12753 0.8172 0.23676 0.0
H9840 H 0.14687 0.7966 0.22816 0.0
H9841 H 0.18377 0.82237 0.2557 0.0
H9842 H 0.16472 0.84344 0.26418 0.0
H9843 H 0.08261 0.84741 0.32447 0.0
H9844 H 0.08996 0.84786 0.29474 0.0
H9845 H 0.13699 0.86753 0.30676 0.0
H9846 H 0.12948 0.86739 0.33689 0.0
H9847 H 0.13699 0.84015 0.28248 0.0
H9848 H 0.11261 0.89211 0.28925 0.0
H9849 H 0.09155 0.91079 0.29834 0.0
H9850 H 0.05755 0.88461 0.26736 0.0
H9851 H 0.07834 0.86561 0.25825 0.0
C9852 C 0.14219 0.84814 0.19906 0.0
C9853 C 0.12834 0.84497 0.1895 0.0
C9854 C 0.14106 0.85086 0.21665 0.0
C9855 C 0.12605 0.8504 0.22526 0.0
C9856 C 0.11232 0.84734 0.2156 0.0
C9857 C 0.11343 0.84466 0.19822 0.0
C9858 C 0.12426 0.85298 0.24415 0.0
C9859 C 0.11261 0.86367 0.25037 0.0
C9860 C 0.13323 0.84455 0.25612 0.0
C9861 C 0.14475 0.83203 0.25091 0.0
C9862 C 0.13981 0.81859 0.24084 0.0
C9863 C 0.15071 0.8068 0.23601 0.0
C9864 C 0.16654 0.80815 0.24136 0.0
C9865 C 0.17151 0.82135 0.25154 0.0
C9866 C 0.16067 0.83324 0.25634 0.0
C9867 C 0.09451 0.85202 0.32088 0.0
C9868 C 0.10539 0.85743 0.33327 0.0
C9869 C 0.09872 0.85225 0.30374 0.0
C9870 C 0.11409 0.85768 0.29822 0.0
C9871 C 0.12505 0.86322 0.31052 0.0
C9872 C 0.1207 0.8633 0.3278 0.0
C9873 C 0.11841 0.85738 0.27966 0.0
C9874 C 0.1304 0.84707 0.27355 0.0
C9875 C 0.10956 0.86592 0.26775 0.0
C9876 C 0.09703 0.87737 0.27313 0.0
C9877 C 0.10061 0.89025 0.28446 0.0
C9878 C 0.08873 0.90091 0.2896 0.0
C9879 C 0.07324 0.89889 0.28341 0.0
C9880 C 0.06957 0.88617 0.27211 0.0
C9881 C 0.08141 0.87547 0.26694 0.0
H9882 H 0.06409 0.90719 0.28736 0.0
H9883 H 0.17494 0.79896 0.23763 0.0
H9884 H 0.66577 0.37451 0.10364 0.0
H9885 H 0.66994 0.38038 0.07368 0.0
H9886 H 0.68297 0.33024 0.06511 0.0
H9887 H 0.68039 0.32528 0.09481 0.0
H9888 H 0.70116 0.34444 0.04768 0.0
H9889 H 0.64196 0.35435 0.04788 0.0
H9890 H 0.61836 0.3684 0.05903 0.0
H9891 H 0.64286 0.41507 0.05146 0.0
H9892 H 0.66671 0.40114 0.04058 0.0
H9893 H 0.70101 0.34296 0.9577 0.0
H9894 H 0.69517 0.33871 0.9876 0.0
H9895 H 0.68546 0.39004 0.99344 0.0
H9896 H 0.68952 0.39377 0.96346 0.0
H9897 H 0.66642 0.37699 0.01239 0.0
H9898 H 0.72255 0.36586 1.0048 0.0
H9899 H 0.74505 0.35096 0.99222 0.0
H9900 H 0.72687 0.30623 0.01448 0.0
H9901 H 0.7036 0.32052 0.02603 0.0
C9902 C 0.66911 0.36469 0.09522 0.0
C9903 C 0.67209 0.34911 0.10169 0.0
C9904 C 0.67145 0.368 0.07787 0.0
C9905 C 0.67649 0.35572 0.0664 0.0
C9906 C 0.67913 0.34017 0.07313 0.0
C9907 C 0.67723 0.33709 0.0903 0.0
C9908 C 0.67997 0.35874 0.04776 0.0
C9909 C 0.69326 0.35131 0.04002 0.0
C9910 C 0.67045 0.36835 0.03734 0.0
C9911 C 0.65619 0.37667 0.04386 0.0
C9912 C 0.64239 0.36755 0.04892 0.0
C9913 C 0.62895 0.3755 0.05509 0.0
C9914 C 0.62915 0.39262 0.05607 0.0
C9915 C 0.64275 0.40181 0.05078 0.0
C9916 C 0.65622 0.39389 0.04461 0.0
C9917 C 0.69765 0.35333 0.96538 0.0
C9918 C 0.69594 0.36876 0.95799 0.0
C9919 C 0.69442 0.35095 0.98268 0.0
C9920 C 0.69021 0.36411 0.9934 0.0
C9921 C 0.68859 0.3795 0.98588 0.0
C9922 C 0.69106 0.38168 0.96855 0.0
C9923 C 0.68721 0.36209 0.01223 0.0
C9924 C 0.67418 0.3699 0.02002 0.0
C9925 C 0.69696 0.35272 0.02269 0.0
C9926 C 0.71123 0.34427 0.01612 0.0
C9927 C 0.7233 0.35283 1.00688 0.0
C9928 C 0.73617 0.34449 0.99993 0.0
C9929 C 0.73751 0.32774 1.00274 0.0
C9930 C 0.72584 0.31922 0.01233 0.0
C9931 C 0.71272 0.3274 0.01894 0.0
H9932 H 0.74756 0.32136 0.99743 0.0
H9933 H 0.61873 0.39877 0.06084 0.0
H9934 H 0.18419 0.94409 0.66651 0.0
H9935 H 0.18648 0.93141 0.69378 0.0
H9936 H 0.16774 0.88551 0.67356 0.0
H9937 H 0.16463 0.89856 0.64621 0.0
H9938 H 0.15677 0.88744 0.70326 0.0
H9939 H 0.21017 0.89528 0.68206 0.0
H9940 H 0.23356 0.91052 0.66987 0.0
H9941 H 0.23541 0.9422 0.71312 0.0
H9942 H 0.21174 0.92743 0.72535 0.0
H9943 H 0.21007 0.86268 0.78057 0.0
H9944 H 0.20715 0.86883 0.75064 0.0
H9945 H 0.16252 0.89174 0.76185 0.0
H9946 H 0.16522 0.88552 0.7913 0.0
H9947 H 0.20653 0.89757 0.73519 0.0
H9948 H 0.13762 0.89051 0.72929 0.0
H9949 H 0.11518 0.87313 0.74052 0.0
H9950 H 0.14732 0.83444 0.74937 0.0
H9951 H 0.16991 0.8515 0.738 0.0
C9952 C 0.18049 0.93128 0.6678 0.0
C9953 C 0.17433 0.92237 0.65397 0.0
C9954 C 0.18196 0.92394 0.6835 0.0
C9955 C 0.17782 0.90722 0.68592 0.0
C9956 C 0.17121 0.89836 0.67223 0.0
C9957 C 0.16941 0.90585 0.6565 0.0
C9958 C 0.18031 0.8992 0.70269 0.0
C9959 C 0.16777 0.88957 0.71009 0.0
C9960 C 0.19473 0.90152 0.7118 0.0
C9961 C 0.20907 0.91034 0.70455 0.0
C9962 C 0.21547 0.90559 0.6889 0.0
C9963 C 0.22875 0.91418 0.68196 0.0
C9964 C 0.23595 0.92734 0.6907 0.0
C9965 C 0.2298 0.93202 0.70634 0.0
C9966 C 0.21643 0.92356 0.71327 0.0
C9967 C 0.19941 0.86857 0.77658 0.0
C9968 C 0.18785 0.87343 0.78852 0.0
C9969 C 0.19781 0.87228 0.75942 0.0
C9970 C 0.1845 0.88069 0.75371 0.0
C9971 C 0.17276 0.885 0.76561 0.0
C9972 C 0.17438 0.8814 0.78262 0.0
C9973 C 0.18313 0.88584 0.73566 0.0
C9974 C 0.19578 0.89509 0.72812 0.0
C9975 C 0.16903 0.88278 0.72625 0.0
C9976 C 0.15548 0.87235 0.7329 0.0
C9977 C 0.13989 0.87827 0.73355 0.0
C9978 C 0.12714 0.86848 0.73996 0.0
C9979 C 0.12983 0.85271 0.74569 0.0
C9980 C 0.14526 0.84668 0.74498 0.0
C9981 C 0.15804 0.85641 0.73857 0.0
H9982 H 0.11995 0.84516 0.75067 0.0
H9983 H 0.24633 0.93387 0.68538 0.0
H9984 H 0.61168 0.33446 0.19792 0.0
H9985 H 0.60913 0.34167 0.22723 0.0
H9986 H 0.65775 0.36133 0.22684 0.0
H9987 H 0.66054 0.35389 0.1968 0.0
H9988 H 0.65019 0.3433 0.256 0.0
H9989 H 0.62687 0.38693 0.22727 0.0
H9990 H 0.60967 0.39954 0.20662 0.0
H9991 H 0.56783 0.37761 0.23065 0.0
H9992 H 0.58478 0.36458 0.25126 0.0
H9993 H 0.63063 0.37139 0.34038 0.0
H9994 H 0.63994 0.37165 0.31083 0.0
H9995 H 0.59339 0.35303 0.29558 0.0
H9996 H 0.5842 0.35275 0.32469 0.0
H9997 H 0.60369 0.37543 0.27415 0.0
H9998 H 0.62605 0.32824 0.29903 0.0
H9999 H 0.64232 0.31323 0.31879 0.0
H10000 H 0.6847 0.33997 0.30167 0.0
H10001 H 0.66862 0.35532 0.28197 0.0
C10002 C 0.62197 0.34036 0.20384 0.0
C10003 C 0.63633 0.3437 0.19464 0.0
C10004 C 0.62041 0.34457 0.2208 0.0
C10005 C 0.63307 0.35241 0.22942 0.0
C10006 C 0.64768 0.35544 0.22054 0.0
C10007 C 0.64927 0.35122 0.2033 0.0
C10008 C 0.63061 0.35722 0.24759 0.0
C10009 C 0.64023 0.35062 0.25993 0.0
C10010 C 0.61744 0.36659 0.25297 0.0
C10011 C 0.60714 0.37466 0.24076 0.0
C10012 C 0.61401 0.38469 0.22809 0.0
C10013 C 0.6043 0.39192 0.21639 0.0
C10014 C 0.58767 0.38935 0.2173 0.0
C10015 C 0.58072 0.37958 0.22995 0.0
C10016 C 0.59038 0.37227 0.24166 0.0
C10017 C 0.62234 0.36763 0.33068 0.0
C10018 C 0.60666 0.36202 0.33503 0.0
C10019 C 0.62771 0.36761 0.31374 0.0
C10020 C 0.61748 0.36215 0.30075 0.0
C10021 C 0.60164 0.35727 0.30515 0.0
C10022 C 0.59638 0.35709 0.32193 0.0
C10023 C 0.62298 0.36106 0.28261 0.0
C10024 C 0.61385 0.36834 0.27026 0.0
C10025 C 0.63646 0.35214 0.27724 0.0
C10026 C 0.6461 0.34313 0.28924 0.0
C10027 C 0.63881 0.33106 0.29962 0.0
C10028 C 0.648 0.32246 0.31078 0.0
C10029 C 0.66452 0.3257 0.31154 0.0
C10030 C 0.67189 0.33752 0.30111 0.0
C10031 C 0.66274 0.34618 0.28996 0.0
H10032 H 0.67162 0.31901 0.32016 0.0
H10033 H 0.58018 0.39494 0.20821 0.0
H10034 H 0.13709 0.84247 0.09409 0.0
H10035 H 0.13795 0.84795 0.06381 0.0
H10036 H 0.1848 0.87126 0.0685 0.0
H10037 H 0.1838 0.86644 0.09861 0.0
H10038 H 0.16329 0.88668 0.04363 0.0
H10039 H 0.1776 0.82866 0.05932 0.0
H10040 H 0.16299 0.80772 0.07589 0.0
H10041 H 0.12428 0.80684 0.04127 0.0
H10042 H 0.13827 0.82875 0.02499 0.0
H10043 H 0.20068 0.88787 0.9642 0.0
H10044 H 0.19262 0.88552 0.9936 0.0
H10045 H 0.16534 0.84091 0.98224 0.0
H10046 H 0.17441 0.84285 0.9529 0.0
H10047 H 0.17091 0.83604 0.01011 0.0
H10048 H 0.15103 0.88207 0.99023 0.0
H10049 H 0.14626 0.90834 0.97678 0.0
H10050 H 0.17197 0.93412 0.0156 0.0
H10051 H 0.17714 0.90804 0.02921 0.0
C10052 C 0.14744 0.8491 0.08881 0.0
C10053 C 0.16039 0.85386 0.09915 0.0
C10054 C 0.14796 0.85221 0.07132 0.0
C10055 C 0.16162 0.85981 0.06346 0.0
C10056 C 0.17412 0.86533 0.07393 0.0
C10057 C 0.17352 0.86246 0.09135 0.0
C10058 C 0.1639 0.86054 0.04444 0.0
C10059 C 0.16535 0.87572 0.03626 0.0
C10060 C 0.16479 0.84622 0.03427 0.0
C10061 C 0.15896 0.8303 0.04101 0.0
C10062 C 0.16617 0.82368 0.055 0.0
C10063 C 0.15781 0.81188 0.06456 0.0
C10064 C 0.14263 0.80593 0.05977 0.0
C10065 C 0.13596 0.81154 0.04509 0.0
C10066 C 0.14407 0.82372 0.03572 0.0
C10067 C 0.19325 0.87735 0.96805 0.0
C10068 C 0.18844 0.86544 0.95608 0.0
C10069 C 0.18838 0.87608 0.98502 0.0
C10070 C 0.1779 0.86321 0.99073 0.0
C10071 C 0.17341 0.85104 0.97872 0.0
C10072 C 0.17867 0.8521 0.96175 0.0
C10073 C 0.17176 0.86256 0.009 0.0
C10074 C 0.16937 0.84731 0.01712 0.0
C10075 C 0.16805 0.87689 0.01862 0.0
C10076 C 0.16513 0.89285 0.01043 0.0
C10077 C 0.15603 0.89326 0.99575 0.0
C10078 C 0.15314 0.90818 0.98813 0.0
C10079 C 0.15898 0.92289 0.9952 0.0
C10080 C 0.16759 0.92271 0.01002 0.0
C10081 C 0.17054 0.90781 0.01768 0.0
H10082 H 0.15672 0.93443 0.98929 0.0
H10083 H 0.13613 0.79687 0.0673 0.0
H10084 H 0.68147 0.41199 0.7952 0.0
H10085 H 0.67689 0.41638 0.76539 0.0
H10086 H 0.70039 0.37164 0.75317 0.0
H10087 H 0.70455 0.36683 0.78316 0.0
H10088 H 0.70924 0.40994 0.73636 0.0
H10089 H 0.66983 0.36355 0.74495 0.0
H10090 H 0.64688 0.35079 0.76052 0.0
H10091 H 0.61928 0.39314 0.7519 0.0
H10092 H 0.64219 0.40624 0.73649 0.0
H10093 H 0.7012 0.40907 0.64935 0.0
H10094 H 0.70258 0.39971 0.67826 0.0
H10095 H 0.65675 0.42038 0.68931 0.0
H10096 H 0.65504 0.42902 0.65996 0.0
H10097 H 0.65864 0.39459 0.7075 0.0
H10098 H 0.69296 0.43956 0.69601 0.0
H10099 H 0.7141 0.45744 0.68332 0.0
H10100 H 0.74983 0.42508 0.69956 0.0
H10101 H 0.72875 0.40669 0.71207 0.0
C10102 C 0.68542 0.40289 0.78622 0.0
C10103 C 0.69323 0.38894 0.79166 0.0
C10104 C 0.68285 0.40548 0.76915 0.0
C10105 C 0.68826 0.39436 0.757 0.0
C10106 C 0.696 0.38035 0.76232 0.0
C10107 C 0.69826 0.37754 0.77948 0.0
C10108 C 0.6861 0.3977 0.73879 0.0
C10109 C 0.69836 0.40626 0.72987 0.0
C10110 C 0.67151 0.39387 0.73066 0.0
C10111 C 0.65775 0.38592 0.73975 0.0
C10112 C 0.65892 0.37019 0.74653 0.0
C10113 C 0.64591 0.36289 0.75529 0.0
C10114 C 0.63164 0.37116 0.75724 0.0
C10115 C 0.63035 0.38675 0.7504 0.0
C10116 C 0.64333 0.39411 0.74164 0.0
C10117 C 0.69119 0.41116 0.65783 0.0
C10118 C 0.67792 0.41957 0.65233 0.0
C10119 C 0.69206 0.40597 0.67445 0.0
C10120 C 0.67996 0.40961 0.68625 0.0
C10121 C 0.66628 0.41736 0.68057 0.0
C10122 C 0.66525 0.42226 0.66375 0.0
C10123 C 0.68214 0.40621 0.70456 0.0
C10124 C 0.66975 0.398 0.71369 0.0
C10125 C 0.69648 0.41093 0.71303 0.0
C10126 C 0.70921 0.4217 0.70508 0.0
C10127 C 0.70529 0.43617 0.69689 0.0
C10128 C 0.71727 0.44638 0.68965 0.0
C10129 C 0.73331 0.44236 0.69064 0.0
C10130 C 0.73738 0.4281 0.69881 0.0
C10131 C 0.72542 0.41779 0.70597 0.0
H10132 H 0.74259 0.45029 0.68507 0.0
H10133 H 0.62159 0.36549 0.76402 0.0
H10134 H 0.14145 0.89929 0.41859 0.0
H10135 H 0.14771 0.90433 0.44779 0.0
H10136 H 0.10865 0.87134 0.46286 0.0
H10137 H 0.10174 0.86688 0.43332 0.0
H10138 H 0.10807 0.89568 0.48304 0.0
H10139 H 0.15216 0.86329 0.46566 0.0
H10140 H 0.17523 0.85538 0.44806 0.0
H10141 H 0.19934 0.90165 0.45869 0.0
H10142 H 0.17632 0.90992 0.47619 0.0
H10143 H 0.13133 0.88764 0.56731 0.0
H10144 H 0.128 0.88223 0.53751 0.0
H10145 H 0.15785 0.92494 0.52584 0.0
H10146 H 0.16102 0.93074 0.55602 0.0
H10147 H 0.16357 0.89665 0.50419 0.0
H10148 H 0.1196 0.928 0.52311 0.0
H10149 H 0.09674 0.935 0.54141 0.0
H10150 H 0.07231 0.88952 0.52834 0.0
H10151 H 0.09521 0.88204 0.51024 0.0
C10152 C 0.13428 0.89278 0.42799 0.0
C10153 C 0.12114 0.88241 0.42324 0.0
C10154 C 0.13797 0.89568 0.44493 0.0
C10155 C 0.12895 0.88806 0.45797 0.0
C10156 C 0.11598 0.87743 0.45329 0.0
C10157 C 0.11212 0.87467 0.43625 0.0
C10158 C 0.13272 0.89173 0.4763 0.0
C10159 C 0.12021 0.89558 0.48761 0.0
C10160 C 0.1486 0.89222 0.4826 0.0
C10161 C 0.16245 0.88728 0.4721 0.0
C10162 C 0.16234 0.87182 0.46415 0.0
C10163 C 0.17541 0.86726 0.45421 0.0
C10164 C 0.18872 0.87802 0.45222 0.0
C10165 C 0.18901 0.89334 0.46022 0.0
C10166 C 0.17596 0.89796 0.47016 0.0
C10167 C 0.1375 0.89582 0.55853 0.0
C10168 C 0.14656 0.90965 0.56438 0.0
C10169 C 0.13544 0.89272 0.54133 0.0
C10170 C 0.14243 0.90323 0.52918 0.0
C10171 C 0.15226 0.91658 0.53484 0.0
C10172 C 0.15421 0.91982 0.55219 0.0
C10173 C 0.13893 0.90035 0.5108 0.0
C10174 C 0.15146 0.8967 0.49953 0.0
C10175 C 0.12307 0.8999 0.50458 0.0
C10176 C 0.10924 0.90436 0.51545 0.0
C10177 C 0.10944 0.91939 0.52427 0.0
C10178 C 0.09646 0.92346 0.5346 0.0
C10179 C 0.0831 0.91268 0.53608 0.0
C10180 C 0.08269 0.89783 0.52721 0.0
C10181 C 0.09567 0.89367 0.51692 0.0
H10182 H 0.07305 0.91586 0.54406 0.0
H10183 H 0.19884 0.87447 0.44452 0.0
H10184 H 0.57082 0.16139 0.32002 0.0
H10185 H 0.5432 0.16667 0.32676 0.0
H10186 H 0.53676 0.11858 0.34782 0.0
H10187 H 0.56518 0.11296 0.34079 0.0
H10188 H 0.50816 0.12533 0.33408 0.0
H10189 H 0.53906 0.15821 0.37198 0.0
H10190 H 0.5602 0.17818 0.38089 0.0
H10191 H 0.53969 0.21538 0.35126 0.0
H10192 H 0.51854 0.19557 0.34199 0.0
H10193 H 0.42813 0.14831 0.36359 0.0
H10194 H 0.45585 0.13927 0.36089 0.0
H10195 H 0.47153 0.18802 0.34637 0.0
H10196 H 0.4441 0.19693 0.34977 0.0
H10197 H 0.49585 0.17928 0.35905 0.0
H10198 H 0.46636 0.14556 0.31928 0.0
H10199 H 0.44559 0.12525 0.30992 0.0
H10200 H 0.46346 0.08968 0.34339 0.0
H10201 H 0.48421 0.10982 0.35299 0.0
C10202 C 0.56389 0.15163 0.32617 0.0
C10203 C 0.57132 0.13658 0.32975 0.0
C10204 C 0.54757 0.15489 0.33024 0.0
C10205 C 0.53698 0.14346 0.33842 0.0
C10206 C 0.54405 0.12809 0.34171 0.0
C10207 C 0.56068 0.12477 0.33761 0.0
C10208 C 0.51905 0.14788 0.34324 0.0
C10209 C 0.5057 0.1371 0.33978 0.0
C10210 C 0.51472 0.16333 0.3505 0.0
C10211 C 0.52732 0.17534 0.35613 0.0
C10212 C 0.53912 0.17062 0.36727 0.0
C10213 C 0.55109 0.18191 0.3724 0.0
C10214 C 0.55133 0.19801 0.36659 0.0
C10215 C 0.53952 0.20289 0.35572 0.0
C10216 C 0.52752 0.19163 0.35053 0.0
C10217 C 0.43749 0.15736 0.36044 0.0
C10218 C 0.4332 0.17388 0.35793 0.0
C10219 C 0.45373 0.15198 0.35835 0.0
C10220 C 0.46687 0.16255 0.35292 0.0
C10221 C 0.46249 0.17906 0.35063 0.0
C10222 C 0.44637 0.18441 0.35287 0.0
C10223 C 0.48477 0.15689 0.34958 0.0
C10224 C 0.4982 0.1675 0.35332 0.0
C10225 C 0.48914 0.1413 0.34259 0.0
C10226 C 0.47666 0.12924 0.33697 0.0
C10227 C 0.46575 0.13344 0.32468 0.0
C10228 C 0.45401 0.12197 0.31933 0.0
C10229 C 0.45317 0.10622 0.3261 0.0
C10230 C 0.4641 0.1019 0.33819 0.0
C10231 C 0.47585 0.11333 0.34358 0.0
H10232 H 0.44408 0.09736 0.32194 0.0
H10233 H 0.56067 0.2067 0.37051 0.0
H10234 H 0.67125 0.6183 0.82358 0.0
H10235 H 0.69934 0.61508 0.8315 0.0
H10236 H 0.68344 0.59498 0.8788 0.0
H10237 H 0.65546 0.59761 0.87062 0.0
H10238 H 0.7108 0.61397 0.88425 0.0
H10239 H 0.69675 0.57078 0.84661 0.0
H10240 H 0.68726 0.55742 0.82062 0.0
H10241 H 0.72586 0.58119 0.79285 0.0
H10242 H 0.73539 0.59509 0.8186 0.0
H10243 H 0.78703 0.58043 0.90755 0.0
H10244 H 0.75893 0.58536 0.9009 0.0
H10245 H 0.77306 0.59664 0.85008 0.0
H10246 H 0.80085 0.59137 0.85659 0.0
H10247 H 0.74622 0.58236 0.84666 0.0
H10248 H 0.7597 0.62645 0.8847 0.0
H10249 H 0.76898 0.63926 0.91108 0.0
H10250 H 0.73137 0.61324 0.93835 0.0
H10251 H 0.72198 0.60012 0.91214 0.0
C10252 C 0.6736 0.61365 0.83589 0.0
C10253 C 0.6605 0.60875 0.84651 0.0
C10254 C 0.68995 0.61153 0.84041 0.0
C10255 C 0.69419 0.6046 0.85593 0.0
C10256 C 0.68111 0.6004 0.8668 0.0
C10257 C 0.66483 0.60212 0.86211 0.0
C10258 C 0.71188 0.60118 0.86062 0.0
C10259 C 0.71839 0.60691 0.87597 0.0
C10260 C 0.7225 0.59213 0.85015 0.0
C10261 C 0.71667 0.58414 0.83453 0.0
C10262 C 0.70311 0.57335 0.83493 0.0
C10263 C 0.69775 0.56565 0.82024 0.0
C10264 C 0.70598 0.56846 0.8051 0.0
C10265 C 0.71954 0.57904 0.8046 0.0
C10266 C 0.7249 0.58687 0.81923 0.0
C10267 C 0.78427 0.58402 0.89494 0.0
C10268 C 0.79684 0.58548 0.88279 0.0
C10269 C 0.7679 0.58702 0.89106 0.0
C10270 C 0.7631 0.59181 0.87482 0.0
C10271 C 0.77571 0.59306 0.86272 0.0
C10272 C 0.79196 0.59004 0.86657 0.0
C10273 C 0.74533 0.59534 0.87026 0.0
C10274 C 0.73874 0.58956 0.85491 0.0
C10275 C 0.73463 0.60437 0.88074 0.0
C10276 C 0.74025 0.61218 0.8965 0.0
C10277 C 0.75348 0.62338 0.89634 0.0
C10278 C 0.75875 0.63071 0.91126 0.0
C10279 C 0.7508 0.62703 0.92639 0.0
C10280 C 0.73754 0.61605 0.92663 0.0
C10281 C 0.73223 0.60867 0.91175 0.0
H10282 H 0.7549 0.63272 0.93793 0.0
H10283 H 0.70184 0.56246 0.79375 0.0
H10284 H 0.43836 0.92252 0.09194 0.0
H10285 H 0.44484 0.95143 0.096 0.0
H10286 H 0.39478 0.96039 0.10446 0.0
H10287 H 0.38813 0.93111 0.0991 0.0
H10288 H 0.40441 0.98499 0.09071 0.0
H10289 H 0.4293 0.96142 0.1364 0.0
H10290 H 0.44616 0.94333 0.1525 0.0
H10291 H 0.48813 0.96257 0.12661 0.0
H10292 H 0.47154 0.98043 0.10997 0.0
H10293 H 0.42234 0.06619 0.12061 0.0
H10294 H 0.41557 0.03699 0.11739 0.0
H10295 H 0.46253 0.02924 0.09638 0.0
H10296 H 0.46935 0.05888 0.09931 0.0
H10297 H 0.45392 1.0046 0.11896 0.0
H10298 H 0.4292 0.02546 0.0708 0.0
H10299 H 0.41228 0.04231 0.05345 0.0
H10300 H 0.37095 0.02803 0.08343 0.0
H10301 H 0.38764 1.01088 0.10084 0.0
C10302 C 0.42861 0.93047 0.09502 0.0
C10303 C 0.41265 0.92397 0.09564 0.0
C10304 C 0.43243 0.94732 0.09749 0.0
C10305 C 0.42056 0.9587 0.1013 0.0
C10306 C 0.40447 0.95228 0.10178 0.0
C10307 C 0.40058 0.93532 0.09882 0.0
C10308 C 0.42495 0.97712 0.10383 0.0
C10309 C 0.41525 0.98905 0.09695 0.0
C10310 C 0.43907 0.98318 0.11212 0.0
C10311 C 0.44911 0.97217 0.12181 0.0
C10312 C 0.44211 0.96167 0.13399 0.0
C10313 C 0.45163 0.95146 0.14322 0.0
C10314 C 0.46822 0.95178 0.14054 0.0
C10315 C 0.4753 0.96228 0.12859 0.0
C10316 C 0.46583 0.97244 0.11925 0.0
C10317 C 0.43134 0.05841 0.1152 0.0
C10318 C 0.44649 0.06528 0.11024 0.0
C10319 C 0.42734 0.0415 0.11328 0.0
C10320 C 0.43836 0.03046 0.10649 0.0
C10321 C 0.45363 0.0372 0.10163 0.0
C10322 C 0.45755 0.05431 0.10326 0.0
C10323 C 0.43386 1.01208 0.10487 0.0
C10324 C 0.44333 1.00031 0.11232 0.0
C10325 C 0.41963 1.00609 0.09698 0.0
C10326 C 0.4097 0.0171 0.08727 0.0
C10327 C 0.41655 0.02611 0.07385 0.0
C10328 C 0.40698 0.03563 0.06393 0.0
C10329 C 0.39056 0.03636 0.06742 0.0
C10330 C 0.38368 0.0275 0.08078 0.0
C10331 C 0.39317 0.01782 0.09063 0.0
H10332 H 0.38316 0.04371 0.05971 0.0
H10333 H 0.47558 0.94388 0.1477 0.0
H10334 H 0.69658 0.6906 0.41556 0.0
H10335 H 0.72449 0.69262 0.40583 0.0
H10336 H 0.7316 0.64386 0.42343 0.0
H10337 H 0.7032 0.64172 0.43308 0.0
H10338 H 0.75873 0.66311 0.43094 0.0
H10339 H 0.73129 0.65374 0.37992 0.0
H10340 H 0.71109 0.65793 0.3584 0.0
H10341 H 0.72934 0.70735 0.35136 0.0
H10342 H 0.74947 0.70351 0.37301 0.0
H10343 H 0.83977 0.66446 0.3953 0.0
H10344 H 0.81155 0.65758 0.40258 0.0
H10345 H 0.79752 0.70161 0.37867 0.0
H10346 H 0.82549 0.7079 0.3706 0.0
H10347 H 0.77359 0.68295 0.37411 0.0
H10348 H 0.80059 0.69244 0.42609 0.0
H10349 H 0.82053 0.68806 0.44787 0.0
H10350 H 0.80297 0.63821 0.45335 0.0
H10351 H 0.7831 0.64221 0.43141 0.0
C10352 C 0.70383 0.68002 0.41713 0.0
C10353 C 0.69683 0.66579 0.42492 0.0
C10354 C 0.72017 0.68125 0.41148 0.0
C10355 C 0.73095 0.66844 0.41348 0.0
C10356 C 0.72408 0.65414 0.42139 0.0
C10357 C 0.70749 0.65279 0.42681 0.0
C10358 C 0.74903 0.67029 0.40749 0.0
C10359 C 0.76181 0.66719 0.41837 0.0
C10360 C 0.75394 0.67601 0.39122 0.0
C10361 C 0.74184 0.67839 0.3782 0.0
C10362 C 0.73092 0.66554 0.37387 0.0
C10363 C 0.71948 0.66784 0.36164 0.0
C10364 C 0.7189 0.68291 0.35354 0.0
C10365 C 0.72979 0.69569 0.35765 0.0
C10366 C 0.74123 0.69345 0.36989 0.0
C10367 C 0.83068 0.67244 0.39097 0.0
C10368 C 0.83552 0.68661 0.38169 0.0
C10369 C 0.81421 0.66868 0.39561 0.0
C10370 C 0.80148 0.6791 0.39171 0.0
C10371 C 0.80638 0.69302 0.38207 0.0
C10372 C 0.82276 0.69668 0.37734 0.0
C10373 C 0.78345 0.67587 0.39758 0.0
C10374 C 0.77061 0.67881 0.38668 0.0
C10375 C 0.77851 0.67002 0.41385 0.0
C10376 C 0.79047 0.66758 0.42698 0.0
C10377 C 0.80106 0.68051 0.43186 0.0
C10378 C 0.81234 0.6781 0.44424 0.0
C10379 C 0.81302 0.66286 0.45197 0.0
C10380 C 0.80244 0.65 0.44733 0.0
C10381 C 0.79117 0.65233 0.43492 0.0
H10382 H 0.8217 0.66103 0.4616 0.0
H10383 H 0.71004 0.68467 0.34407 0.0
H10384 H 0.18543 0.32816 0.36805 0.0
H10385 H 0.16629 0.30504 0.36808 0.0
H10386 H 0.13243 0.3336 0.39627 0.0
H10387 H 0.15199 0.35662 0.39692 0.0
H10388 H 0.13952 0.3095 0.41357 0.0
H10389 H 0.1212 0.312 0.35885 0.0
H10390 H 0.12179 0.31646 0.32837 0.0
H10391 H 0.15282 0.27612 0.3214 0.0
H10392 H 0.15266 0.27156 0.35184 0.0
H10393 H 0.12394 0.22651 0.43509 0.0
H10394 H 0.1161 0.25121 0.42065 0.0
H10395 H 0.1609 0.25232 0.39283 0.0
H10396 H 0.16885 0.22776 0.40718 0.0
H10397 H 0.13378 0.26251 0.37399 0.0
H10398 H 0.15972 0.27014 0.42894 0.0
H10399 H 0.16003 0.26546 0.45941 0.0
H10400 H 0.11471 0.28816 0.46518 0.0
H10401 H 0.11386 0.29242 0.43463 0.0
C10402 C 0.17369 0.32972 0.37372 0.0
C10403 C 0.17033 0.34394 0.38292 0.0
C10404 C 0.1626 0.31652 0.37356 0.0
C10405 C 0.14788 0.3175 0.38229 0.0
C10406 C 0.14374 0.33251 0.38957 0.0
C10407 C 0.15496 0.34561 0.39003 0.0
C10408 C 0.13928 0.30211 0.38747 0.0
C10409 C 0.13757 0.29941 0.40479 0.0
C10410 C 0.13673 0.28887 0.37614 0.0
C10411 C 0.13686 0.29141 0.35771 0.0
C10412 C 0.12821 0.30411 0.35085 0.0
C10413 C 0.12847 0.30666 0.33355 0.0
C10414 C 0.13732 0.29657 0.32295 0.0
C10415 C 0.14593 0.2839 0.32962 0.0
C10416 C 0.14571 0.28129 0.34691 0.0
C10417 C 0.13201 0.2319 0.42572 0.0
C10418 C 0.14715 0.22545 0.42248 0.0
C10419 C 0.12743 0.24586 0.41738 0.0
C10420 C 0.13791 0.25346 0.40568 0.0
C10421 C 0.1526 0.24648 0.40172 0.0
C10422 C 0.15724 0.23263 0.41013 0.0
C10423 C 0.13524 0.27013 0.39979 0.0
C10424 C 0.13481 0.27292 0.38251 0.0
C10425 C 0.13586 0.28354 0.4111 0.0
C10426 C 0.13658 0.28133 0.42949 0.0
C10427 C 0.14974 0.27397 0.43669 0.0
C10428 C 0.15 0.27136 0.45396 0.0
C10429 C 0.13736 0.27644 0.46421 0.0
C10430 C 0.12445 0.28415 0.45721 0.0
C10431 C 0.12403 0.2866 0.43991 0.0
H10432 H 0.13763 0.27452 0.47759 0.0
H10433 H 0.13752 0.29857 0.30957 0.0
H10434 H 0.59623 0.28409 0.39559 0.0
H10435 H 0.61488 0.26209 0.39914 0.0
H10436 H 0.65256 0.29178 0.37517 0.0
H10437 H 0.63343 0.3131 0.37041 0.0
H10438 H 0.65133 0.26584 0.36022 0.0
H10439 H 0.65668 0.27524 0.41706 0.0
H10440 H 0.64978 0.28256 0.44624 0.0
H10441 H 0.61853 0.23968 0.45002 0.0
H10442 H 0.62498 0.23221 0.42079 0.0
H10443 H 0.65889 0.18305 0.34389 0.0
H10444 H 0.66961 0.20579 0.36105 0.0
H10445 H 0.62209 0.21388 0.38079 0.0
H10446 H 0.61134 0.19126 0.36387 0.0
H10447 H 0.64704 0.22296 0.40378 0.0
H10448 H 0.63208 0.23121 0.34227 0.0
H10449 H 0.63731 0.22485 0.31239 0.0
H10450 H 0.68761 0.2353 0.31905 0.0
H10451 H 0.68262 0.24164 0.34898 0.0
C10452 C 0.60854 0.28583 0.39124 0.0
C10453 C 0.61343 0.29985 0.38232 0.0
C10454 C 0.61933 0.27347 0.3936 0.0
C10455 C 0.63529 0.27531 0.38763 0.0
C10456 C 0.64036 0.29002 0.37985 0.0
C10457 C 0.62943 0.30208 0.37697 0.0
C10458 C 0.64526 0.26072 0.38615 0.0
C10459 C 0.65111 0.25677 0.37008 0.0
C10460 C 0.64539 0.24885 0.39895 0.0
C10461 C 0.64143 0.25311 0.41667 0.0
C10462 C 0.6483 0.26738 0.42407 0.0
C10463 C 0.64445 0.27157 0.44064 0.0
C10464 C 0.63375 0.26158 0.44999 0.0
C10465 C 0.62687 0.24738 0.44278 0.0
C10466 C 0.63067 0.24313 0.42622 0.0
C10467 C 0.6508 0.18944 0.3522 0.0
C10468 C 0.6342 0.18576 0.3522 0.0
C10469 C 0.657 0.20226 0.36214 0.0
C10470 C 0.64663 0.2115 0.37209 0.0
C10471 C 0.63031 0.20679 0.37327 0.0
C10472 C 0.62413 0.19406 0.36335 0.0
C10473 C 0.65132 0.22818 0.37772 0.0
C10474 C 0.64837 0.23254 0.39449 0.0
C10475 C 0.65401 0.24058 0.36568 0.0
C10476 C 0.65701 0.23678 0.34777 0.0
C10477 C 0.64424 0.23211 0.33731 0.0
C10478 C 0.64716 0.2285 0.3204 0.0
C10479 C 0.66279 0.22965 0.31383 0.0
C10480 C 0.67552 0.2344 0.32416 0.0
C10481 C 0.67266 0.23799 0.34109 0.0
H10482 H 0.66506 0.22691 0.30074 0.0
H10483 H 0.63078 0.26485 0.46281 0.0
H10484 H 0.10701 0.03024 0.84656 0.0
H10485 H 0.11743 1.00377 0.8543 0.0
H10486 H 0.15933 0.01345 0.823 0.0
H10487 H 0.14871 0.0395 0.81471 0.0
H10488 H 0.15148 0.98318 0.82007 0.0
H10489 H 0.15749 0.01969 0.86669 0.0
H10490 H 0.14887 0.03873 0.88896 0.0
H10491 H 0.11959 1.00022 0.91144 0.0
H10492 H 0.12774 0.98104 0.88908 0.0
H10493 H 0.19682 0.92778 0.87904 0.0
H10494 H 0.18481 0.95458 0.87534 0.0
H10495 H 0.14718 0.93131 0.84622 0.0
H10496 H 0.15923 0.90482 0.84959 0.0
H10497 H 0.15532 0.96939 0.88024 0.0
H10498 H 0.14326 0.95284 0.81059 0.0
H10499 H 0.15392 0.93466 0.78852 0.0
H10500 H 0.19955 0.93561 0.81251 0.0
H10501 H 0.18925 0.95398 0.83455 0.0
C10502 C 0.11834 0.02662 0.84114 0.0
C10503 C 0.12704 0.03708 0.83007 0.0
C10504 C 0.12437 1.01153 0.8457 0.0
C10505 C 0.13939 1.0067 0.83958 0.0
C10506 C 0.14776 0.01685 0.828 0.0
C10507 C 0.14164 0.0318 0.82324 0.0
C10508 C 0.14656 0.99127 0.84535 0.0
C10509 C 0.15225 0.98022 0.83324 0.0
C10510 C 0.14798 0.98744 0.86257 0.0
C10511 C 0.14315 0.99895 0.87611 0.0
C10512 C 0.14913 0.0153 0.87631 0.0
C10513 C 0.14432 0.02612 0.88895 0.0
C10514 C 0.13369 0.02069 0.9016 0.0
C10515 C 0.12783 1.00441 0.90163 0.0
C10516 C 0.13253 0.99357 0.88896 0.0
C10517 C 0.18568 0.92836 0.87238 0.0
C10518 C 0.17897 0.91425 0.86454 0.0
C10519 C 0.17887 0.94367 0.87018 0.0
C10520 C 0.16529 0.94499 0.86016 0.0
C10521 C 0.15781 0.93065 0.85371 0.0
C10522 C 0.16465 0.91549 0.85575 0.0
C10523 C 0.15972 0.96127 0.85493 0.0
C10524 C 0.15444 0.97244 0.8671 0.0
C10525 C 0.15898 0.96542 0.83778 0.0
C10526 C 0.16541 0.95466 0.82433 0.0
C10527 C 0.15559 0.94923 0.81111 0.0
C10528 C 0.16156 0.93888 0.79861 0.0
C10529 C 0.17737 0.93393 0.79914 0.0
C10530 C 0.18728 0.93939 0.81214 0.0
C10531 C 0.18137 0.94976 0.82465 0.0
H10532 H 0.18194 0.9259 0.78946 0.0
H10533 H 0.13001 0.02908 0.91139 0.0
H10534 H 0.58539 0.88858 0.10738 0.0
H10535 H 0.557 0.88827 0.10048 0.0
H10536 H 0.55211 0.93476 0.12596 0.0
H10537 H 0.58041 0.93467 0.13352 0.0
H10538 H 0.52336 0.9107 0.12597 0.0
H10539 H 0.55914 0.94169 0.09047 0.0
H10540 H 0.58466 0.94738 0.07519 0.0
H10541 H 0.57652 0.90422 0.04489 0.0
H10542 H 0.55101 0.89816 0.06008 0.0
H10543 H 0.4629 0.91233 0.05718 0.0
H10544 H 0.48898 0.92392 0.06566 0.0
H10545 H 0.50064 0.87724 0.08613 0.0
H10546 H 0.47472 0.86551 0.07782 0.0
H10547 H 0.52399 0.9131 0.06373 0.0
H10548 H 0.50147 0.88697 0.12807 0.0
H10549 H 0.47581 0.88348 0.1437 0.0
H10550 H 0.4567 0.92329 0.11666 0.0
H10551 H 0.48226 0.92715 0.10103 0.0
C10552 C 0.57802 0.89825 0.11225 0.0
C10553 C 0.58491 0.91188 0.1205 0.0
C10554 C 0.56193 0.89815 0.10822 0.0
C10555 C 0.55281 0.91173 0.11236 0.0
C10556 C 0.55915 0.92432 0.12255 0.0
C10557 C 0.57526 0.92435 0.12666 0.0
C10558 C 0.53787 0.91379 0.10359 0.0
C10559 C 0.52339 0.91151 0.11241 0.0
C10560 C 0.53808 0.91566 0.08599 0.0
C10561 C 0.55321 0.91942 0.07649 0.0
C10562 C 0.56284 0.93335 0.08062 0.0
C10563 C 0.5773 0.93665 0.07198 0.0
C10564 C 0.58224 0.92613 0.05914 0.0
C10565 C 0.57268 0.91234 0.05485 0.0
C10566 C 0.55819 0.909 0.06344 0.0
C10567 C 0.47123 0.90437 0.06299 0.0
C10568 C 0.46662 0.8882 0.06748 0.0
C10569 C 0.48607 0.91104 0.06778 0.0
C10570 C 0.49626 0.90149 0.07693 0.0
C10571 C 0.49259 0.88478 0.07937 0.0
C10572 C 0.47783 0.87812 0.0746 0.0
C10573 C 0.50963 0.90903 0.08605 0.0
C10574 C 0.52385 0.91298 0.07731 0.0
C10575 C 0.50908 0.90944 0.10376 0.0
C10576 C 0.49374 0.90724 0.11328 0.0
C10577 C 0.49181 0.89501 0.12551 0.0
C10578 C 0.47727 0.89296 0.13435 0.0
C10579 C 0.4646 0.90311 0.13111 0.0
C10580 C 0.46646 0.91535 0.11905 0.0
C10581 C 0.48096 0.91746 0.11019 0.0
H10582 H 0.45337 0.90152 0.13798 0.0
H10583 H 0.59346 0.92869 0.05249 0.0
H10584 H 0.4763 0.36529 0.56547 0.0
H10585 H 0.50399 0.37606 0.56597 0.0
H10586 H 0.48824 0.42427 0.55408 0.0
H10587 H 0.46076 0.41345 0.55263 0.0
H10588 H 0.51914 0.42243 0.54655 0.0
H10589 H 0.48515 0.41343 0.59346 0.0
H10590 H 0.46574 0.39824 0.61165 0.0
H10591 H 0.50082 0.36256 0.62134 0.0
H10592 H 0.52037 0.37743 0.60294 0.0
H10593 H 0.57915 0.42802 0.62342 0.0
H10594 H 0.55176 0.42958 0.61303 0.0
H10595 H 0.56814 0.41352 0.56407 0.0
H10596 H 0.59542 0.41308 0.57419 0.0
H10597 H 0.53358 0.40724 0.60424 0.0
H10598 H 0.54482 0.42555 0.53221 0.0
H10599 H 0.55945 0.4475 0.51653 0.0
H10600 H 0.5655 0.47559 0.5617 0.0
H10601 H 0.55094 0.45403 0.57779 0.0
C10602 C 0.47885 0.37801 0.5623 0.0
C10603 C 0.46645 0.38873 0.55984 0.0
C10604 C 0.49463 0.38413 0.56249 0.0
C10605 C 0.49789 0.40107 0.56087 0.0
C10606 C 0.48585 0.41123 0.55571 0.0
C10607 C 0.47013 0.40502 0.55507 0.0
C10608 C 0.51237 0.40848 0.56844 0.0
C10609 C 0.52255 0.41907 0.55906 0.0
C10610 C 0.51578 0.40535 0.58537 0.0
C10611 C 0.50419 0.39649 0.59673 0.0
C10612 C 0.48871 0.40232 0.59941 0.0
C10613 C 0.47768 0.39376 0.60975 0.0
C10614 C 0.48204 0.37943 0.61763 0.0
C10615 C 0.49746 0.37366 0.61522 0.0
C10616 C 0.50852 0.38215 0.60483 0.0
C10617 C 0.57671 0.42476 0.61051 0.0
C10618 C 0.58901 0.42002 0.59962 0.0
C10619 C 0.56122 0.42587 0.60452 0.0
C10620 C 0.55795 0.42187 0.58771 0.0
C10621 C 0.57041 0.41715 0.57692 0.0
C10622 C 0.58589 0.4165 0.58278 0.0
C10623 C 0.54135 0.42017 0.58189 0.0
C10624 C 0.53046 0.4108 0.5917 0.0
C10625 C 0.53694 0.42541 0.56579 0.0
C10626 C 0.54668 0.43803 0.55627 0.0
C10627 C 0.54924 0.43639 0.53886 0.0
C10628 C 0.55758 0.44875 0.5299 0.0
C10629 C 0.56347 0.46283 0.53815 0.0
C10630 C 0.56108 0.46457 0.55539 0.0
C10631 C 0.5528 0.45226 0.56445 0.0
H10632 H 0.56984 0.47241 0.53116 0.0
H10633 H 0.47348 0.3728 0.62563 0.0
H10634 H 0.17789 0.71373 0.90563 0.0
H10635 H 0.17587 0.73668 0.88654 0.0
H10636 H 0.13712 0.75529 0.91688 0.0
H10637 H 0.1384 0.73153 0.93537 0.0
H10638 H 0.13156 0.76101 0.88567 0.0
H10639 H 0.17759 0.7688 0.92088 0.0
H10640 H 0.20338 0.76238 0.93337 0.0
H10641 H 0.2256 0.76123 0.88447 0.0
H10642 H 0.19985 0.76738 0.87166 0.0
H10643 H 0.15191 0.84362 0.89575 0.0
H10644 H 0.14085 0.81603 0.89124 0.0
H10645 H 0.17309 0.80982 0.84905 0.0
H10646 H 0.1843 0.83747 0.85344 0.0
H10647 H 0.18181 0.79455 0.87765 0.0
H10648 H 0.13542 0.79593 0.84496 0.0
H10649 H 0.10964 0.80581 0.83544 0.0
H10650 H 0.08781 0.79386 0.88309 0.0
H10651 H 0.11351 0.78414 0.89302 0.0
C10652 C 0.16896 0.72276 0.9082 0.0
C10653 C 0.15851 0.72119 0.9221 0.0
C10654 C 0.16777 0.7358 0.89727 0.0
C10655 C 0.15658 0.74788 0.90048 0.0
C10656 C 0.14585 0.74609 0.91417 0.0
C10657 C 0.14669 0.73269 0.92482 0.0
C10658 C 0.1569 0.76297 0.89036 0.0
C10659 C 0.14251 0.76842 0.88391 0.0
C10660 C 0.17132 0.77234 0.88763 0.0
C10661 C 0.18673 0.76827 0.8953 0.0
C10662 C 0.18793 0.76699 0.91278 0.0
C10663 C 0.20255 0.76343 0.91992 0.0
C10664 C 0.2161 0.76132 0.90971 0.0
C10665 C 0.21507 0.76279 0.89235 0.0
C10666 C 0.20047 0.76629 0.88515 0.0
C10667 C 0.15618 0.8367 0.88503 0.0
C10668 C 0.16958 0.84234 0.87553 0.0
C10669 C 0.14964 0.82095 0.8823 0.0
C10670 C 0.15648 0.81076 0.87009 0.0
C10671 C 0.16779 0.81749 0.85865 0.0
C10672 C 0.17433 0.83325 0.86134 0.0
C10673 C 0.15636 0.79302 0.87347 0.0
C10674 C 0.17089 0.78695 0.87879 0.0
C10675 C 0.14201 0.7835 0.87563 0.0
C10676 C 0.12646 0.78932 0.86975 0.0
C10677 C 0.12516 0.79551 0.85347 0.0
C10678 C 0.11054 0.80106 0.84799 0.0
C10679 C 0.09709 0.80047 0.85866 0.0
C10680 C 0.09823 0.79429 0.87483 0.0
C10681 C 0.11283 0.78872 0.88038 0.0
H10682 H 0.08579 0.80478 0.85439 0.0
H10683 H 0.22742 0.75861 0.91526 0.0
H10684 H 0.90005 0.82974 0.58565 0.0
H10685 H 0.89728 0.80101 0.59551 0.0
H10686 H 0.84866 0.80903 0.61127 0.0
H10687 H 0.85147 0.83719 0.60158 0.0
H10688 H 0.85883 0.79107 0.63398 0.0
H10689 H 0.86028 0.78319 0.57469 0.0
H10690 H 0.86979 0.78304 0.54529 0.0
H10691 H 0.91227 0.75902 0.5595 0.0
H10692 H 0.90289 0.75888 0.589 0.0
H10693 H 0.83324 0.7057 0.64912 0.0
H10694 H 0.83763 0.73448 0.64132 0.0
H10695 H 0.88318 0.72305 0.61879 0.0
H10696 H 0.87788 0.69417 0.62513 0.0
H10697 H 0.87516 0.74333 0.60006 0.0
H10698 H 0.87131 0.74997 0.66044 0.0
H10699 H 0.85837 0.74747 0.68838 0.0
H10700 H 0.81823 0.77366 0.67137 0.0
H10701 H 0.83077 0.77604 0.64323 0.0
C10702 C 0.88881 0.82551 0.59138 0.0
C10703 C 0.87602 0.83645 0.59277 0.0
C10704 C 0.8871 0.80875 0.59696 0.0
C10705 C 0.87259 0.80209 0.60437 0.0
C10706 C 0.86009 0.81319 0.6059 0.0
C10707 C 0.86173 0.82963 0.60021 0.0
C10708 C 0.87012 0.78403 0.6107 0.0
C10709 C 0.8624 0.78072 0.62637 0.0
C10710 C 0.87463 0.76985 0.6014 0.0
C10711 C 0.881 0.77125 0.58406 0.0
C10712 C 0.87177 0.77812 0.57158 0.0
C10713 C 0.87709 0.77798 0.55488 0.0
C10714 C 0.89165 0.77105 0.55054 0.0
C10715 C 0.90099 0.76438 0.5629 0.0
C10716 C 0.89567 0.76437 0.57959 0.0
C10717 C 0.84435 0.70926 0.64283 0.0
C10718 C 0.8552 0.69699 0.6382 0.0
C10719 C 0.84704 0.72615 0.63833 0.0
C10720 C 0.86107 0.73198 0.62942 0.0
C10721 C 0.87216 0.71972 0.62546 0.0
C10722 C 0.86923 0.70287 0.6295 0.0
C10723 C 0.86412 0.75022 0.62356 0.0
C10724 C 0.87182 0.7536 0.60788 0.0
C10725 C 0.85946 0.76445 0.63283 0.0
C10726 C 0.85192 0.76303 0.6497 0.0
C10727 C 0.85968 0.7551 0.66264 0.0
C10728 C 0.8524 0.75369 0.6785 0.0
C10729 C 0.83745 0.76033 0.68161 0.0
C10730 C 0.82976 0.76845 0.6689 0.0
C10731 C 0.83694 0.76982 0.653 0.0
H10732 H 0.83184 0.75923 0.6939 0.0
H10733 H 0.89567 0.77078 0.53758 0.0
H10734 H 0.43429 0.728 0.66358 0.0
H10735 H 0.42699 0.75607 0.67014 0.0
H10736 H 0.4435 0.77134 0.62115 0.0
H10737 H 0.45094 0.74296 0.61453 0.0
H10738 H 0.4522 0.79506 0.6429 0.0
H10739 H 0.40171 0.76597 0.63504 0.0
H10740 H 0.38082 0.74437 0.64035 0.0
H10741 H 0.37637 0.76049 0.6915 0.0
H10742 H 0.39766 0.78179 0.6867 0.0
H10743 H 0.42413 0.87639 0.65159 0.0
H10744 H 0.42891 0.8483 0.64261 0.0
H10745 H 0.40224 0.83015 0.68573 0.0
H10746 H 0.396 0.85839 0.69358 0.0
H10747 H 0.39875 0.80736 0.66668 0.0
H10748 H 0.4503 0.83369 0.67687 0.0
H10749 H 0.47209 0.8548 0.67344 0.0
H10750 H 0.47518 0.84376 0.62082 0.0
H10751 H 0.45352 0.82256 0.62395 0.0
C10752 C 0.43629 0.73718 0.654 0.0
C10753 C 0.44309 0.73264 0.63829 0.0
C10754 C 0.43198 0.75352 0.65782 0.0
C10755 C 0.43423 0.76642 0.64619 0.0
C10756 C 0.44133 0.76201 0.63056 0.0
C10757 C 0.44554 0.74553 0.62665 0.0
C10758 C 0.42937 0.78425 0.65042 0.0
C10759 C 0.44038 0.79763 0.64789 0.0
C10760 C 0.41418 0.78826 0.6576 0.0
C10761 C 0.40143 0.77538 0.66054 0.0
C10762 C 0.39642 0.76479 0.64748 0.0
C10763 C 0.38453 0.75257 0.65041 0.0
C10764 C 0.37736 0.75097 0.66629 0.0
C10765 C 0.38205 0.76163 0.67926 0.0
C10766 C 0.39405 0.77376 0.67645 0.0
C10767 C 0.41881 0.86645 0.65896 0.0
C10768 C 0.40937 0.87017 0.67331 0.0
C10769 C 0.42201 0.85005 0.65403 0.0
C10770 C 0.41679 0.83627 0.66369 0.0
C10771 C 0.40681 0.83998 0.67776 0.0
C10772 C 0.40309 0.85643 0.68233 0.0
C10773 C 0.4216 0.81836 0.65924 0.0
C10774 C 0.41059 0.80489 0.66175 0.0
C10775 C 0.43695 0.8142 0.65242 0.0
C10776 C 0.45019 0.82668 0.65062 0.0
C10777 C 0.45564 0.83579 0.66458 0.0
C10778 C 0.46799 0.84774 0.66269 0.0
C10779 C 0.475 0.85061 0.64692 0.0
C10780 C 0.46978 0.84148 0.63303 0.0
C10781 C 0.45751 0.82947 0.63486 0.0
H10782 H 0.48449 0.85989 0.64544 0.0
H10783 H 0.36813 0.74154 0.66853 0.0
H10784 H 0.89954 0.964 0.1626 0.0
H10785 H 0.89524 0.99308 0.15606 0.0
H10786 H 0.86787 0.99793 0.20197 0.0
H10787 H 0.87201 0.96931 0.20832 0.0
H10788 H 0.85159 1.01091 0.17931 0.0
H10789 H 0.90745 0.0172 0.19302 0.0
H10790 H 0.93625 1.01189 0.19016 0.0
H10791 H 0.93626 0.02787 0.13908 0.0
H10792 H 0.9074 0.03308 0.14158 0.0
H10793 H 0.84205 0.09499 0.19133 0.0
H10794 H 0.85129 0.06732 0.19217 0.0
H10795 H 0.87191 0.07276 0.14266 0.0
H10796 H 0.86247 0.10122 0.14167 0.0
H10797 H 0.8918 0.05422 0.16261 0.0
H10798 H 0.83631 0.0495 0.14948 0.0
H10799 H 0.80734 0.05395 0.15203 0.0
H10800 H 0.80646 0.03427 0.20171 0.0
H10801 H 0.83546 0.02982 0.19954 0.0
C10802 C 0.89303 0.97139 0.17154 0.0
C10803 C 0.88631 0.96403 0.18615 0.0
C10804 C 0.89042 0.98817 0.16773 0.0
C10805 C 0.88104 0.9982 0.17841 0.0
C10806 C 0.87497 0.99087 0.19324 0.0
C10807 C 0.87751 0.97431 0.19698 0.0
C10808 C 0.87667 0.01587 0.17418 0.0
C10809 C 0.86054 0.02031 0.17585 0.0
C10810 C 0.88792 0.02848 0.16896 0.0
C10811 C 0.90523 0.02534 0.16743 0.0
C10812 C 0.91357 0.01944 0.18114 0.0
C10813 C 0.9299 0.01648 0.17959 0.0
C10814 C 0.93807 0.01949 0.16443 0.0
C10815 C 0.92991 0.02552 0.1508 0.0
C10816 C 0.91357 0.02848 0.15228 0.0
C10817 C 0.84854 0.09057 0.18043 0.0
C10818 C 0.85122 0.10082 0.16632 0.0
C10819 C 0.85385 0.0744 0.18097 0.0
C10820 C 0.86214 0.06731 0.16741 0.0
C10821 C 0.86547 0.07758 0.15339 0.0
C10822 C 0.86005 0.09402 0.15282 0.0
C10823 C 0.86679 0.04925 0.16824 0.0
C10824 C 0.88288 0.04475 0.16596 0.0
C10825 C 0.8555 0.03648 0.1729 0.0
C10826 C 0.83811 0.03946 0.17439 0.0
C10827 C 0.82997 0.04627 0.16101 0.0
C10828 C 0.81353 0.04876 0.16238 0.0
C10829 C 0.80507 0.04446 0.17705 0.0
C10830 C 0.81303 0.03762 0.19037 0.0
C10831 C 0.82947 0.03509 0.18907 0.0
H10832 H 0.79235 0.04638 0.17811 0.0
H10833 H 0.95072 0.01719 0.16326 0.0
H10834 H 0.60505 0.12132 0.8989 0.0
H10835 H 0.57652 0.11403 0.89662 0.0
H10836 H 0.56762 0.13597 0.94495 0.0
H10837 H 0.5964 0.1436 0.94712 0.0
H10838 H 0.55062 0.10645 0.94298 0.0
H10839 H 0.55455 0.153 0.90671 0.0
H10840 H 0.56557 0.16975 0.88335 0.0
H10841 H 0.55443 0.13053 0.84872 0.0
H10842 H 0.54353 0.11346 0.87191 0.0
H10843 H 0.46414 0.09339 0.93622 0.0
H10844 H 0.49206 0.10286 0.94035 0.0
H10845 H 0.50222 0.09468 0.88787 0.0
H10846 H 0.47404 0.08664 0.88366 0.0
H10847 H 0.51889 0.11833 0.89307 0.0
H10848 H 0.51504 0.07124 0.92859 0.0
H10849 H 0.50553 0.05333 0.95163 0.0
H10850 H 0.51727 0.09143 0.98733 0.0
H10851 H 0.52676 0.10963 0.96445 0.0
C10852 C 0.59706 0.12517 0.9089 0.0
C10853 C 0.60351 0.13355 0.92305 0.0
C10854 C 0.58048 0.1208 0.90761 0.0
C10855 C 0.56927 0.12431 0.92052 0.0
C10856 C 0.57558 0.13294 0.93462 0.0
C10857 C 0.59224 0.13759 0.93578 0.0
C10858 C 0.55133 0.11868 0.91928 0.0
C10859 C 0.54366 0.1093 0.93213 0.0
C10860 C 0.54185 0.12166 0.90502 0.0
C10861 C 0.54835 0.13191 0.89107 0.0
C10862 C 0.55455 0.14791 0.89413 0.0
C10863 C 0.56076 0.15746 0.88092 0.0
C10864 C 0.56074 0.15119 0.86457 0.0
C10865 C 0.55446 0.13536 0.86139 0.0
C10866 C 0.54825 0.12575 0.87456 0.0
C10867 C 0.47236 0.09333 0.92558 0.0
C10868 C 0.46649 0.08888 0.90959 0.0
C10869 C 0.48866 0.09876 0.92795 0.0
C10870 C 0.50017 0.09946 0.91457 0.0
C10871 C 0.49421 0.09461 0.89867 0.0
C10872 C 0.47785 0.08973 0.89623 0.0
C10873 C 0.51795 0.10574 0.9167 0.0
C10874 C 0.52568 0.11531 0.90398 0.0
C10875 C 0.52752 0.10268 0.931 0.0
C10876 C 0.52152 0.09185 0.94474 0.0
C10877 C 0.51556 0.07583 0.94132 0.0
C10878 C 0.51016 0.06562 0.95437 0.0
C10879 C 0.51076 0.07125 0.97094 0.0
C10880 C 0.51678 0.08709 0.97449 0.0
C10881 C 0.52218 0.09736 0.96148 0.0
H10882 H 0.50658 0.06332 0.98103 0.0
H10883 H 0.56555 0.15861 0.85436 0.0
H10884 H 0.59619 0.6568 0.4312 0.0
H10885 H 0.56703 0.6512 0.42804 0.0
H10886 H 0.57524 0.59962 0.42292 0.0
H10887 H 0.60358 0.60509 0.42474 0.0
H10888 H 0.55417 0.60179 0.40423 0.0
H10889 H 0.55553 0.62485 0.46035 0.0
H10890 H 0.56032 0.646 0.48213 0.0
H10891 H 0.53047 0.67883 0.45651 0.0
H10892 H 0.52554 0.65793 0.43446 0.0
H10893 H 0.46973 0.57368 0.42971 0.0
H10894 H 0.49807 0.58268 0.43397 0.0
H10895 H 0.49263 0.6229 0.40054 0.0
H10896 H 0.46466 0.61424 0.39631 0.0
H10897 H 0.51132 0.62745 0.43773 0.0
H10898 H 0.50918 0.60171 0.38265 0.0
H10899 H 0.50491 0.57952 0.36191 0.0
H10900 H 0.53832 0.55017 0.38724 0.0
H10901 H 0.54212 0.57184 0.40868 0.0
C10902 C 0.59185 0.64429 0.42912 0.0
C10903 C 0.60301 0.63162 0.42792 0.0
C10904 C 0.57484 0.64094 0.42754 0.0
C10905 C 0.5681 0.6247 0.42519 0.0
C10906 C 0.57936 0.61228 0.42429 0.0
C10907 C 0.59606 0.61559 0.42544 0.0
C10908 C 0.54984 0.62007 0.42329 0.0
C10909 C 0.54503 0.60737 0.41195 0.0
C10910 C 0.53706 0.62722 0.43265 0.0
C10911 C 0.54032 0.6399 0.44566 0.0
C10912 C 0.5501 0.63663 0.45928 0.0
C10913 C 0.55282 0.64856 0.4717 0.0
C10914 C 0.54577 0.66375 0.47071 0.0
C10915 C 0.53596 0.66707 0.45726 0.0
C10916 C 0.53318 0.65518 0.4448 0.0
C10917 C 0.47449 0.5844 0.42316 0.0
C10918 C 0.46437 0.59296 0.41247 0.0
C10919 C 0.49094 0.58955 0.42553 0.0
C10920 C 0.49812 0.60342 0.41731 0.0
C10921 C 0.48791 0.61211 0.40702 0.0
C10922 C 0.47164 0.60698 0.40456 0.0
C10923 C 0.51603 0.60889 0.4192 0.0
C10924 C 0.52065 0.62177 0.43034 0.0
C10925 C 0.52873 0.60172 0.40988 0.0
C10926 C 0.52559 0.58828 0.39758 0.0
C10927 C 0.51521 0.59034 0.38415 0.0
C10928 C 0.51296 0.57788 0.37218 0.0
C10929 C 0.5213 0.56342 0.37328 0.0
C10930 C 0.53186 0.56138 0.38639 0.0
C10931 C 0.53395 0.57368 0.39854 0.0
H10932 H 0.51959 0.55381 0.36397 0.0
H10933 H 0.54787 0.67294 0.48038 0.0
H10934 H 0.90161 0.33266 0.09418 0.0
H10935 H 0.90002 0.30413 0.10469 0.0
H10936 H 0.84854 0.30436 0.10358 0.0
H10937 H 0.85001 0.33208 0.09315 0.0
H10938 H 0.85438 0.28933 0.13033 0.0
H10939 H 0.8741 0.28283 0.07431 0.0
H10940 H 0.89255 0.28634 0.05005 0.0
H10941 H 0.93015 0.26518 0.07759 0.0
H10942 H 0.91204 0.26191 0.1022 0.0
H10943 H 0.83462 0.20073 0.11841 0.0
H10944 H 0.8421 0.2292 0.11178 0.0
H10945 H 0.88231 0.22733 0.14439 0.0
H10946 H 0.87507 0.19821 0.1507 0.0
H10947 H 0.88433 0.24376 0.10508 0.0
H10948 H 0.86167 0.24394 0.16051 0.0
H10949 H 0.84142 0.23129 0.1838 0.0
H10950 H 0.79933 0.27065 0.14882 0.0
H10951 H 0.82616 0.27706 0.12917 0.0
C10952 C 0.88994 0.32669 0.09614 0.0
C10953 C 0.87599 0.33536 0.09269 0.0
C10954 C 0.88898 0.31011 0.10219 0.0
C10955 C 0.87405 0.30142 0.10517 0.0
C10956 C 0.8603 0.3102 0.10174 0.0
C10957 C 0.86124 0.32646 0.09562 0.0
C10958 C 0.87228 0.28348 0.11172 0.0
C10959 C 0.86102 0.27947 0.1247 0.0
C10960 C 0.88076 0.27004 0.10482 0.0
C10961 C 0.89178 0.27235 0.0902 0.0
C10962 C 0.88636 0.27911 0.07528 0.0
C10963 C 0.89674 0.28101 0.06144 0.0
C10964 C 0.9125 0.27599 0.06227 0.0
C10965 C 0.91794 0.2691 0.07697 0.0
C10966 C 0.90764 0.26725 0.09089 0.0
C10967 C 0.84485 0.20636 0.1247 0.0
C10968 C 0.85357 0.19684 0.13596 0.0
C10969 C 0.84932 0.22285 0.12059 0.0
C10970 C 0.86252 0.23127 0.1279 0.0
C10971 C 0.87169 0.22175 0.13882 0.0
C10972 C 0.86731 0.20497 0.14279 0.0
C10973 C 0.86654 0.24963 0.12373 0.0
C10974 C 0.87798 0.25368 0.11098 0.0
C10975 C 0.85799 0.26313 0.13068 0.0
C10976 C 0.84521 0.26051 0.14367 0.0
C10977 C 0.84939 0.2474 0.15959 0.0
C10978 C 0.83683 0.23951 0.17466 0.0
C10979 C 0.81718 0.24443 0.17589 0.0
C10980 C 0.81045 0.2649 0.15211 0.0
C10981 C 0.82723 0.26918 0.13988 0.0
H10982 H 0.80991 0.23882 0.18598 0.0
H10983 H 0.92049 0.2774 0.05151 0.0
H10984 H 0.61143 0.79882 0.91284 0.0
H10985 H 0.62913 0.77667 0.91978 0.0
H10986 H 0.62807 0.76002 0.86829 0.0
H10987 H 0.61094 0.78217 0.86126 0.0
H10988 H 0.62496 0.74494 0.91886 0.0
H10989 H 0.65908 0.74799 0.8532 0.0
H10990 H 0.67289 0.76952 0.83638 0.0
H10991 H 0.67932 0.79944 0.88045 0.0
H10992 H 0.66573 0.77799 0.89765 0.0
H10993 H 0.60526 0.69318 0.86296 0.0
H10994 H 0.61469 0.71193 0.88449 0.0
H10995 H 0.66334 0.69753 0.87529 0.0
H10996 H 0.65385 0.67878 0.85312 0.0
H10997 H 0.66321 0.72828 0.87426 0.0
H10998 H 0.64791 0.69603 0.91789 0.0
H10999 H 0.63377 0.67467 0.9347 0.0
H11000 H 0.5913 0.70267 0.93575 0.0
H11001 H 0.60498 0.72406 0.91871 0.0
C11002 C 0.615 0.79038 0.90303 0.0
C11003 C 0.60985 0.7922 0.88648 0.0
C11004 C 0.62523 0.77788 0.907 0.0
C11005 C 0.63044 0.76711 0.89444 0.0
C11006 C 0.62483 0.76865 0.87806 0.0
C11007 C 0.61478 0.78115 0.87408 0.0
C11008 C 0.6402 0.75295 0.89827 0.0
C11009 C 0.63362 0.74125 0.90942 0.0
C11010 C 0.65272 0.74858 0.88714 0.0
C11011 C 0.66152 0.76122 0.87681 0.0
C11012 C 0.66368 0.759 0.85941 0.0
C11013 C 0.67139 0.77126 0.84977 0.0
C11014 C 0.67702 0.78581 0.85735 0.0
C11015 C 0.67497 0.78814 0.8746 0.0
C11016 C 0.66725 0.77594 0.8843 0.0
C11017 C 0.61795 0.69379 0.86562 0.0
C11018 C 0.62883 0.68474 0.85614 0.0
C11019 C 0.62334 0.70429 0.87826 0.0
C11020 C 0.63975 0.70588 0.88191 0.0
C11021 C 0.65062 0.69634 0.87289 0.0
C11022 C 0.6452 0.68581 0.8601 0.0
C11023 C 0.64529 0.72 0.89235 0.0
C11024 C 0.65523 0.7319 0.88436 0.0
C11025 C 0.63617 0.72454 0.90665 0.0
C11026 C 0.62765 0.71185 0.91714 0.0
C11027 C 0.63555 0.69767 0.92169 0.0
C11028 C 0.62759 0.68552 0.93125 0.0
C11029 C 0.61167 0.68735 0.93636 0.0
C11030 C 0.60367 0.70132 0.93188 0.0
C11031 C 0.61157 0.71352 0.92232 0.0
H11032 H 0.60552 0.67791 0.94374 0.0
H11033 H 0.68294 0.79531 0.84985 0.0
H11034 H 0.20489 0.42738 0.33842 0.0
H11035 H 0.18993 0.45193 0.3357 0.0
H11036 H 0.16086 0.43838 0.37889 0.0
H11037 H 0.17621 0.41329 0.38194 0.0
H11038 H 0.14304 0.44927 0.35078 0.0
H11039 H 0.187 0.46862 0.38343 0.0
H11040 H 0.21499 0.47338 0.39207 0.0
H11041 H 0.22608 0.49815 0.34587 0.0
H11042 H 0.19823 0.49327 0.33678 0.0
H11043 H 0.11027 0.52994 0.34838 0.0
H11044 H 0.12171 0.50408 0.35644 0.0
H11045 H 0.15925 0.51116 0.31914 0.0
H11046 H 0.14798 0.53706 0.31108 0.0
H11047 H 0.17153 0.50371 0.34862 0.0
H11048 H 0.12872 0.48178 0.31467 0.0
H11049 H 0.10069 0.47775 0.30585 0.0
H11050 H 0.08765 0.45813 0.35412 0.0
H11051 H 0.11559 0.46224 0.3633 0.0
C11052 C 0.19541 0.42949 0.34753 0.0
C11053 C 0.19194 0.41828 0.36056 0.0
C11054 C 0.18684 0.44368 0.34591 0.0
C11055 C 0.17438 0.44719 0.35717 0.0
C11056 C 0.17053 0.43598 0.3701 0.0
C11057 C 0.17933 0.42168 0.37187 0.0
C11058 C 0.16545 0.46249 0.35484 0.0
C11059 C 0.14917 0.46124 0.35069 0.0
C11060 C 0.17353 0.47809 0.35426 0.0
C11061 C 0.19049 0.48052 0.3594 0.0
C11062 C 0.19543 0.47493 0.37502 0.0
C11063 C 0.21127 0.47771 0.38003 0.0
C11064 C 0.22227 0.48619 0.36959 0.0
C11065 C 0.21751 0.49172 0.35402 0.0
C11066 C 0.2017 0.48892 0.34892 0.0
C11067 C 0.12082 0.5259 0.34169 0.0
C11068 C 0.12821 0.53571 0.3291 0.0
C11069 C 0.12736 0.51105 0.34633 0.0
C11070 C 0.14139 0.50559 0.33844 0.0
C11071 C 0.14848 0.5151 0.3255 0.0
C11072 C 0.14194 0.52991 0.32084 0.0
C11073 C 0.14921 0.49047 0.34417 0.0
C11074 C 0.16533 0.49179 0.34891 0.0
C11075 C 0.14099 0.47497 0.34522 0.0
C11076 C 0.1242 0.4725 0.33974 0.0
C11077 C 0.11985 0.47674 0.32345 0.0
C11078 C 0.10398 0.47442 0.31838 0.0
C11079 C 0.09238 0.46774 0.32944 0.0
C11080 C 0.09664 0.46333 0.34558 0.0
C11081 C 0.11249 0.46565 0.35072 0.0
H11082 H 0.08011 0.46594 0.32549 0.0
H11083 H 0.23452 0.48835 0.3735 0.0
H11084 H 0.43345 0.37807 0.15105 0.0
H11085 H 0.43774 0.34965 0.14222 0.0
H11086 H 0.40581 0.33236 0.18159 0.0
H11087 H 0.40122 0.36097 0.19033 0.0
H11088 H 0.43915 0.31637 0.17872 0.0
H11089 H 0.39301 0.32624 0.1448 0.0
H11090 H 0.3783 0.34148 0.12387 0.0
H11091 H 0.41598 0.33414 0.08757 0.0
H11092 H 0.43101 0.31907 0.10837 0.0
H11093 H 0.44038 0.23015 0.16226 0.0
H11094 H 0.43359 0.25825 0.16851 0.0
H11095 H 0.44367 0.27127 0.11722 0.0
H11096 H 0.45042 0.24279 0.11085 0.0
H11097 H 0.42293 0.29071 0.12501 0.0
H11098 H 0.47036 0.2853 0.15976 0.0
H11099 H 0.48738 0.27391 0.18142 0.0
H11100 H 0.44804 0.27427 0.21675 0.0
H11101 H 0.43095 0.28614 0.19547 0.0
C11102 C 0.4269 0.36833 0.15765 0.0
C11103 C 0.41656 0.37239 0.1713 0.0
C11104 C 0.42951 0.35182 0.15257 0.0
C11105 C 0.42228 0.33826 0.16109 0.0
C11106 C 0.41173 0.34221 0.17458 0.0
C11107 C 0.40887 0.35882 0.1795 0.0
C11108 C 0.4262 0.32027 0.15632 0.0
C11109 C 0.43496 0.3107 0.16726 0.0
C11110 C 0.42221 0.31263 0.14071 0.0
C11111 C 0.41318 0.32161 0.12818 0.0
C11112 C 0.39821 0.32799 0.1324 0.0
C11113 C 0.38981 0.33658 0.12055 0.0
C11114 C 0.39621 0.3388 0.1044 0.0
C11115 C 0.41103 0.33241 0.10007 0.0
C11116 C 0.41948 0.32382 0.11188 0.0
C11117 C 0.44134 0.23891 0.15217 0.0
C11118 C 0.44615 0.23362 0.13593 0.0
C11119 C 0.43764 0.25546 0.15592 0.0
C11120 C 0.43873 0.26801 0.14375 0.0
C11121 C 0.44307 0.2626 0.12732 0.0
C11122 C 0.44685 0.24595 0.12354 0.0
C11123 C 0.43499 0.28627 0.14811 0.0
C11124 C 0.42658 0.2961 0.13686 0.0
C11125 C 0.43934 0.29426 0.16352 0.0
C11126 C 0.44933 0.28633 0.17596 0.0
C11127 C 0.46531 0.28279 0.17209 0.0
C11128 C 0.47499 0.27635 0.18433 0.0
C11129 C 0.46874 0.27319 0.20038 0.0
C11130 C 0.45284 0.27662 0.20429 0.0
C11131 C 0.44319 0.28331 0.19219 0.0
H11132 H 0.47625 0.26818 0.20981 0.0
H11133 H 0.38969 0.34545 0.09525 0.0
H11134 H 0.83913 0.59398 0.6435 0.0
H11135 H 0.84769 0.56543 0.64553 0.0
H11136 H 0.87168 0.57766 0.69149 0.0
H11137 H 0.86302 0.60598 0.68952 0.0
H11138 H 0.88977 0.557 0.67492 0.0
H11139 H 0.83432 0.55685 0.68912 0.0
H11140 H 0.80515 0.55958 0.68705 0.0
H11141 H 0.80392 0.52558 0.64569 0.0
H11142 H 0.8332 0.52306 0.6471 0.0
H11143 H 0.89739 0.47249 0.70281 0.0
H11144 H 0.8927 0.50191 0.6992 0.0
H11145 H 0.86572 0.49052 0.65481 0.0
H11146 H 0.87013 0.46141 0.65863 0.0
H11147 H 0.84951 0.51103 0.67102 0.0
H11148 H 0.90568 0.51238 0.65635 0.0
H11149 H 0.93433 0.50789 0.66073 0.0
H11150 H 0.93343 0.53858 0.70471 0.0
H11151 H 0.90471 0.54309 0.7007 0.0
C11152 C 0.84666 0.59073 0.65376 0.0
C11153 C 0.85082 0.60268 0.66601 0.0
C11154 C 0.85136 0.5742 0.6551 0.0
C11155 C 0.86037 0.5689 0.66877 0.0
C11156 C 0.86488 0.58102 0.68072 0.0
C11157 C 0.86 0.59742 0.6795 0.0
C11158 C 0.86482 0.5509 0.6709 0.0
C11159 C 0.88083 0.54704 0.67417 0.0
C11160 C 0.85348 0.53741 0.66983 0.0
C11161 C 0.83605 0.53991 0.6681 0.0
C11162 C 0.82792 0.55019 0.67936 0.0
C11163 C 0.81133 0.55165 0.67835 0.0
C11164 C 0.80268 0.54268 0.66632 0.0
C11165 C 0.81063 0.53244 0.65508 0.0
C11166 C 0.82724 0.53108 0.6559 0.0
C11167 C 0.89099 0.4763 0.69193 0.0
C11168 C 0.88461 0.46431 0.68075 0.0
C11169 C 0.88813 0.4933 0.68989 0.0
C11170 C 0.8788 0.499 0.67658 0.0
C11171 C 0.87287 0.48695 0.66525 0.0
C11172 C 0.87564 0.47011 0.66733 0.0
C11173 C 0.87449 0.5171 0.67467 0.0
C11174 C 0.85847 0.52099 0.67154 0.0
C11175 C 0.88577 0.53059 0.67591 0.0
C11176 C 0.90302 0.52794 0.67832 0.0
C11177 C 0.91157 0.51808 0.66702 0.0
C11178 C 0.92782 0.51554 0.66942 0.0
C11179 C 0.93569 0.52291 0.68301 0.0
C11180 C 0.92732 0.53286 0.6942 0.0
C11181 C 0.91106 0.53542 0.69186 0.0
H11182 H 0.94827 0.52093 0.68485 0.0
H11183 H 0.78983 0.54367 0.66569 0.0
loop_
_geom_bond_atom_site_label_1
_geom_bond_atom_site_label_2
_geom_bond_distance
_geom_bond_site_symmetry_2
_ccdc_geom_bond_type
Co0 O3 2.042 . S
Co0 O10 2.264 . S
Co0 O29 2.286 . S
Co0 O30 2.069 . S
Co0 O32 2.015 . S
Co1 O3 2.122 . S
Co1 O9 2.073 . S
Co1 O10 2.327 . S
Co1 O11 1.976 . S
Co2 O3 2.087 . S
Co2 O5 2.087 . S
Co2 O12 2.111 . S
Co2 O13 2.143 . S
Co2 O17 2.111 . S
Co2 O31 2.143 . S
O3 Co0 2.042 . S
O3 Co1 2.122 . S
O3 Co2 2.087 . S
O3 H4 0.980 . S
H4 O3 0.980 . S
O5 Co2 2.087 . S
O5 Co6 2.042 . S
O5 Co7 2.122 . S
O5 H8 0.980 . S
Co6 O5 2.042 . S
Co6 O14 2.286 . S
Co6 O15 2.069 . S
Co6 O16 2.015 . S
Co6 O19 2.264 . S
Co7 O5 2.122 . S
Co7 O18 1.976 . S
Co7 O19 2.327 . S
Co7 O20 2.073 . S
H8 O5 0.980 . S
O9 Co1 2.073 . S
O9 C24 1.245 . S
O10 Co0 2.264 . S
O10 Co1 2.327 . S
O10 C24 1.257 . S
O11 Co1 1.976 . S
O11 C23 1.251 . S
O12 Co2 2.111 . S
O12 C23 1.274 . S
O13 Co2 2.143 . S
O13 C26 1.246 . S
O14 Co6 2.286 . S
O14 C25 1.259 . S
O15 Co6 2.069 . S
O15 C25 1.289 . S
O16 Co6 2.015 . S
O16 C26 1.257 . S
O17 Co2 2.111 . S
O17 C27 1.274 . S
O18 Co7 1.976 . S
O18 C27 1.251 . S
O19 Co6 2.264 . S
O19 Co7 2.327 . S
O19 C28 1.257 . S
O20 Co7 2.073 . S
O20 C28 1.245 . S
C21 O29 1.259 . S
C21 O30 1.289 . S
C22 O31 1.246 . S
C22 O32 1.257 . S
C23 O11 1.251 . S
C23 O12 1.274 . S
C24 O9 1.245 . S
C24 O10 1.257 . S
C25 O14 1.259 . S
C25 O15 1.289 . S
C26 O13 1.246 . S
C26 O16 1.257 . S
C27 O17 1.274 . S
C27 O18 1.251 . S
C28 O19 1.257 . S
C28 O20 1.245 . S
O29 Co0 2.286 . S
O29 C21 1.259 . S
O30 Co0 2.069 . S
O30 C21 1.289 . S
O31 Co2 2.143 . S
O31 C22 1.246 . S
O32 Co0 2.015 . S
O32 C22 1.257 . S
Co33 O36 2.042 . S
Co33 O43 2.264 . S
Co33 O62 2.286 . S
Co33 O63 2.069 . S
Co33 O65 2.015 . S
Co34 O36 2.122 . S
Co34 O42 2.073 . S
Co34 O43 2.327 . S
Co34 O44 1.976 . S
Co35 O36 2.087 . S
Co35 O38 2.087 . S
Co35 O45 2.111 . S
Co35 O46 2.143 . S
Co35 O50 2.111 . S
Co35 O64 2.143 . S
O36 Co33 2.042 . S
O36 Co34 2.122 . S
O36 Co35 2.087 . S
O36 H37 0.980 . S
H37 O36 0.980 . S
O38 Co35 2.087 . S
O38 Co39 2.042 . S
O38 Co40 2.122 . S
O38 H41 0.980 . S
Co39 O38 2.042 . S
Co39 O47 2.286 . S
Co39 O48 2.069 . S
Co39 O49 2.015 . S
Co39 O52 2.264 . S
Co40 O38 2.122 . S
Co40 O51 1.976 . S
Co40 O52 2.327 . S
Co40 O53 2.073 . S
H41 O38 0.980 . S
O42 Co34 2.073 . S
O42 C57 1.245 . S
O43 Co33 2.264 . S
O43 Co34 2.327 . S
O43 C57 1.257 . S
O44 Co34 1.976 . S
O44 C56 1.251 . S
O45 Co35 2.111 . S
O45 C56 1.274 . S
O46 Co35 2.143 . S
O46 C59 1.246 . S
O47 Co39 2.286 . S
O47 C58 1.259 . S
O48 Co39 2.069 . S
O48 C58 1.289 . S
O49 Co39 2.015 . S
O49 C59 1.257 . S
O50 Co35 2.111 . S
O50 C60 1.274 . S
O51 Co40 1.976 . S
O51 C60 1.251 . S
O52 Co39 2.264 . S
O52 Co40 2.327 . S
O52 C61 1.257 . S
O53 Co40 2.073 . S
O53 C61 1.245 . S
C54 O62 1.259 . S
C54 O63 1.289 . S
C55 O64 1.246 . S
C55 O65 1.257 . S
C56 O44 1.251 . S
C56 O45 1.274 . S
C57 O42 1.245 . S
C57 O43 1.257 . S
C58 O47 1.259 . S
C58 O48 1.289 . S
C59 O46 1.246 . S
C59 O49 1.257 . S
C60 O50 1.274 . S
C60 O51 1.251 . S
C61 O52 1.257 . S
C61 O53 1.245 . S
O62 Co33 2.286 . S
O62 C54 1.259 . S
O63 Co33 2.069 . S
O63 C54 1.289 . S
O64 Co35 2.143 . S
O64 C55 1.246 . S
O65 Co33 2.015 . S
O65 C55 1.257 . S
Co66 O69 2.042 . S
Co66 O76 2.264 . S
Co66 O95 2.286 . S
Co66 O96 2.069 . S
Co66 O98 2.015 . S
Co67 O69 2.122 . S
Co67 O75 2.073 . S
Co67 O76 2.327 . S
Co67 O77 1.976 . S
Co68 O69 2.087 . S
Co68 O71 2.087 . S
Co68 O78 2.111 . S
Co68 O79 2.143 . S
Co68 O83 2.111 . S
Co68 O97 2.143 . S
O69 Co66 2.042 . S
O69 Co67 2.122 . S
O69 Co68 2.087 . S
O69 H70 0.980 . S
H70 O69 0.980 . S
O71 Co68 2.087 . S
O71 Co72 2.042 . S
O71 Co73 2.122 . S
O71 H74 0.980 . S
Co72 O71 2.042 . S
Co72 O80 2.286 . S
Co72 O81 2.069 . S
Co72 O82 2.015 . S
Co72 O85 2.264 . S
Co73 O71 2.122 . S
Co73 O84 1.976 . S
Co73 O85 2.327 . S
Co73 O86 2.073 . S
H74 O71 0.980 . S
O75 Co67 2.073 . S
O75 C90 1.245 . S
O76 Co66 2.264 . S
O76 Co67 2.327 . S
O76 C90 1.257 . S
O77 Co67 1.976 . S
O77 C89 1.251 . S
O78 Co68 2.111 . S
O78 C89 1.274 . S
O79 Co68 2.143 . S
O79 C92 1.246 . S
O80 Co72 2.286 . S
O80 C91 1.259 . S
O81 Co72 2.069 . S
O81 C91 1.289 . S
O82 Co72 2.015 . S
O82 C92 1.257 . S
O83 Co68 2.111 . S
O83 C93 1.274 . S
O84 Co73 1.976 . S
O84 C93 1.251 . S
O85 Co72 2.264 . S
O85 Co73 2.327 . S
O85 C94 1.257 . S
O86 Co73 2.073 . S
O86 C94 1.245 . S
C87 O95 1.259 . S
C87 O96 1.289 . S
C88 O97 1.246 . S
C88 O98 1.257 . S
C89 O77 1.251 . S
C89 O78 1.274 . S
C90 O75 1.245 . S
C90 O76 1.257 . S
C91 O80 1.259 . S
C91 O81 1.289 . S
C92 O79 1.246 . S
C92 O82 1.257 . S
C93 O83 1.274 . S
C93 O84 1.251 . S
C94 O85 1.257 . S
C94 O86 1.245 . S
O95 Co66 2.286 . S
O95 C87 1.259 . S
O96 Co66 2.069 . S
O96 C87 1.289 . S
O97 Co68 2.143 . S
O97 C88 1.246 . S
O98 Co66 2.015 . S
O98 C88 1.257 . S
Co99 O102 2.042 . S
Co99 O109 2.264 . S
Co99 O128 2.286 . S
Co99 O129 2.069 . S
Co99 O131 2.015 . S
Co100 O102 2.122 . S
Co100 O108 2.073 . S
Co100 O109 2.327 . S
Co100 O110 1.976 . S
Co101 O102 2.087 . S
Co101 O104 2.087 . S
Co101 O111 2.111 . S
Co101 O112 2.143 . S
Co101 O116 2.111 . S
Co101 O130 2.143 . S
O102 Co99 2.042 . S
O102 Co100 2.122 . S
O102 Co101 2.087 . S
O102 H103 0.980 . S
H103 O102 0.980 . S
O104 Co101 2.087 . S
O104 Co105 2.042 . S
O104 Co106 2.122 . S
O104 H107 0.980 . S
Co105 O104 2.042 . S
Co105 O113 2.286 . S
Co105 O114 2.069 . S
Co105 O115 2.015 . S
Co105 O118 2.264 . S
Co106 O104 2.122 . S
Co106 O117 1.976 . S
Co106 O118 2.327 . S
Co106 O119 2.073 . S
H107 O104 0.980 . S
O108 Co100 2.073 . S
O108 C123 1.245 . S
O109 Co99 2.264 . S
O109 Co100 2.327 . S
O109 C123 1.257 . S
O110 Co100 1.976 . S
O110 C122 1.251 . S
O111 Co101 2.111 . S
O111 C122 1.274 . S
O112 Co101 2.143 . S
O112 C125 1.246 . S
O113 Co105 2.286 . S
O113 C124 1.259 . S
O114 Co105 2.069 . S
O114 C124 1.289 . S
O115 Co105 2.015 . S
O115 C125 1.257 . S
O116 Co101 2.111 . S
O116 C126 1.274 . S
O117 Co106 1.976 . S
O117 C126 1.251 . S
O118 Co105 2.264 . S
O118 Co106 2.327 . S
O118 C127 1.257 . S
O119 Co106 2.073 . S
O119 C127 1.245 . S
C120 O128 1.259 . S
C120 O129 1.289 . S
C121 O130 1.246 . S
C121 O131 1.257 . S
C122 O110 1.251 . S
C122 O111 1.274 . S
C123 O108 1.245 . S
C123 O109 1.257 . S
C124 O113 1.259 . S
C124 O114 1.289 . S
C125 O112 1.246 . S
C125 O115 1.257 . S
C126 O116 1.274 . S
C126 O117 1.251 . S
C127 O118 1.257 . S
C127 O119 1.245 . S
O128 Co99 2.286 . S
O128 C120 1.259 . S
O129 Co99 2.069 . S
O129 C120 1.289 . S
O130 Co101 2.143 . S
O130 C121 1.246 . S
O131 Co99 2.015 . S
O131 C121 1.257 . S
Co132 O135 2.042 . S
Co132 O142 2.264 . S
Co132 O161 2.286 . S
Co132 O162 2.069 . S
Co132 O164 2.015 . S
Co133 O135 2.122 . S
Co133 O141 2.073 . S
Co133 O142 2.327 . S
Co133 O143 1.976 . S
Co134 O135 2.087 . S
Co134 O137 2.087 . S
Co134 O144 2.111 . S
Co134 O145 2.143 . S
Co134 O149 2.111 . S
Co134 O163 2.143 . S
O135 Co132 2.042 . S
O135 Co133 2.122 . S
O135 Co134 2.087 . S
O135 H136 0.980 . S
H136 O135 0.980 . S
O137 Co134 2.087 . S
O137 Co138 2.042 . S
O137 Co139 2.122 . S
O137 H140 0.980 . S
Co138 O137 2.042 . S
Co138 O146 2.286 . S
Co138 O147 2.069 . S
Co138 O148 2.015 . S
Co138 O151 2.264 . S
Co139 O137 2.122 . S
Co139 O150 1.976 . S
Co139 O151 2.327 . S
Co139 O152 2.073 . S
H140 O137 0.980 . S
O141 Co133 2.073 . S
O141 C156 1.245 . S
O142 Co132 2.264 . S
O142 Co133 2.327 . S
O142 C156 1.257 . S
O143 Co133 1.976 . S
O143 C155 1.251 . S
O144 Co134 2.111 . S
O144 C155 1.274 . S
O145 Co134 2.143 . S
O145 C158 1.246 . S
O146 Co138 2.286 . S
O146 C157 1.259 . S
O147 Co138 2.069 . S
O147 C157 1.289 . S
O148 Co138 2.015 . S
O148 C158 1.257 . S
O149 Co134 2.111 . S
O149 C159 1.274 . S
O150 Co139 1.976 . S
O150 C159 1.251 . S
O151 Co138 2.264 . S
O151 Co139 2.327 . S
O151 C160 1.257 . S
O152 Co139 2.073 . S
O152 C160 1.245 . S
C153 O161 1.259 . S
C153 O162 1.289 . S
C154 O163 1.246 . S
C154 O164 1.257 . S
C155 O143 1.251 . S
C155 O144 1.274 . S
C156 O141 1.245 . S
C156 O142 1.257 . S
C157 O146 1.259 . S
C157 O147 1.289 . S
C158 O145 1.246 . S
C158 O148 1.257 . S
C159 O149 1.274 . S
C159 O150 1.251 . S
C160 O151 1.257 . S
C160 O152 1.245 . S
O161 Co132 2.286 . S
O161 C153 1.259 . S
O162 Co132 2.069 . S
O162 C153 1.289 . S
O163 Co134 2.143 . S
O163 C154 1.246 . S
O164 Co132 2.015 . S
O164 C154 1.257 . S
Co165 O168 2.042 . S
Co165 O175 2.264 . S
Co165 O194 2.286 . S
Co165 O195 2.069 . S
Co165 O197 2.015 . S
Co166 O168 2.122 . S
Co166 O174 2.073 . S
Co166 O175 2.327 . S
Co166 O176 1.976 . S
Co167 O168 2.087 . S
Co167 O170 2.087 . S
Co167 O177 2.111 . S
Co167 O178 2.143 . S
Co167 O182 2.111 . S
Co167 O196 2.143 . S
O168 Co165 2.042 . S
O168 Co166 2.122 . S
O168 Co167 2.087 . S
O168 H169 0.980 . S
H169 O168 0.980 . S
O170 Co167 2.087 . S
O170 Co171 2.042 . S
O170 Co172 2.122 . S
O170 H173 0.980 . S
Co171 O170 2.042 . S
Co171 O179 2.286 . S
Co171 O180 2.069 . S
Co171 O181 2.015 . S
Co171 O184 2.264 . S
Co172 O170 2.122 . S
Co172 O183 1.976 . S
Co172 O184 2.327 . S
Co172 O185 2.073 . S
H173 O170 0.980 . S
O174 Co166 2.073 . S
O174 C189 1.245 . S
O175 Co165 2.264 . S
O175 Co166 2.327 . S
O175 C189 1.257 . S
O176 Co166 1.976 . S
O176 C188 1.251 . S
O177 Co167 2.111 . S
O177 C188 1.274 . S
O178 Co167 2.143 . S
O178 C191 1.246 . S
O179 Co171 2.286 . S
O179 C190 1.259 . S
O180 Co171 2.069 . S
O180 C190 1.289 . S
O181 Co171 2.015 . S
O181 C191 1.257 . S
O182 Co167 2.111 . S
O182 C192 1.274 . S
O183 Co172 1.976 . S
O183 C192 1.251 . S
O184 Co171 2.264 . S
O184 Co172 2.327 . S
O184 C193 1.257 . S
O185 Co172 2.073 . S
O185 C193 1.245 . S
C186 O194 1.259 . S
C186 O195 1.289 . S
C187 O196 1.246 . S
C187 O197 1.257 . S
C188 O176 1.251 . S
C188 O177 1.274 . S
C189 O174 1.245 . S
C189 O175 1.257 . S
C190 O179 1.259 . S
C190 O180 1.289 . S
C191 O178 1.246 . S
C191 O181 1.257 . S
C192 O182 1.274 . S
C192 O183 1.251 . S
C193 O184 1.257 . S
C193 O185 1.245 . S
O194 Co165 2.286 . S
O194 C186 1.259 . S
O195 Co165 2.069 . S
O195 C186 1.289 . S
O196 Co167 2.143 . S
O196 C187 1.246 . S
O197 Co165 2.015 . S
O197 C187 1.257 . S
Co198 O201 2.042 . S
Co198 O208 2.264 . S
Co198 O227 2.286 . S
Co198 O228 2.069 . S
Co198 O230 2.015 . S
Co199 O201 2.122 . S
Co199 O207 2.073 . S
Co199 O208 2.327 . S
Co199 O209 1.976 . S
Co200 O201 2.087 . S
Co200 O203 2.087 . S
Co200 O210 2.111 . S
Co200 O211 2.143 . S
Co200 O215 2.111 . S
Co200 O229 2.143 . S
O201 Co198 2.042 . S
O201 Co199 2.122 . S
O201 Co200 2.087 . S
O201 H202 0.980 . S
H202 O201 0.980 . S
O203 Co200 2.087 . S
O203 Co204 2.042 . S
O203 Co205 2.122 . S
O203 H206 0.980 . S
Co204 O203 2.042 . S
Co204 O212 2.286 . S
Co204 O213 2.069 . S
Co204 O214 2.015 . S
Co204 O217 2.264 . S
Co205 O203 2.122 . S
Co205 O216 1.976 . S
Co205 O217 2.327 . S
Co205 O218 2.073 . S
H206 O203 0.980 . S
O207 Co199 2.073 . S
O207 C222 1.245 . S
O208 Co198 2.264 . S
O208 Co199 2.327 . S
O208 C222 1.257 . S
O209 Co199 1.976 . S
O209 C221 1.251 . S
O210 Co200 2.111 . S
O210 C221 1.274 . S
O211 Co200 2.143 . S
O211 C224 1.246 . S
O212 Co204 2.286 . S
O212 C223 1.259 . S
O213 Co204 2.069 . S
O213 C223 1.289 . S
O214 Co204 2.015 . S
O214 C224 1.257 . S
O215 Co200 2.111 . S
O215 C225 1.274 . S
O216 Co205 1.976 . S
O216 C225 1.251 . S
O217 Co204 2.264 . S
O217 Co205 2.327 . S
O217 C226 1.257 . S
O218 Co205 2.073 . S
O218 C226 1.245 . S
C219 O227 1.259 . S
C219 O228 1.289 . S
C220 O229 1.246 . S
C220 O230 1.257 . S
C221 O209 1.251 . S
C221 O210 1.274 . S
C222 O207 1.245 . S
C222 O208 1.257 . S
C223 O212 1.259 . S
C223 O213 1.289 . S
C224 O211 1.246 . S
C224 O214 1.257 . S
C225 O215 1.274 . S
C225 O216 1.251 . S
C226 O217 1.257 . S
C226 O218 1.245 . S
O227 Co198 2.286 . S
O227 C219 1.259 . S
O228 Co198 2.069 . S
O228 C219 1.289 . S
O229 Co200 2.143 . S
O229 C220 1.246 . S
O230 Co198 2.015 . S
O230 C220 1.257 . S
Co231 O234 2.042 . S
Co231 O241 2.264 . S
Co231 O260 2.286 . S
Co231 O261 2.069 . S
Co231 O263 2.015 . S
Co232 O234 2.122 . S
Co232 O240 2.073 . S
Co232 O241 2.327 . S
Co232 O242 1.976 . S
Co233 O234 2.087 . S
Co233 O236 2.087 . S
Co233 O243 2.111 . S
Co233 O244 2.143 . S
Co233 O248 2.111 . S
Co233 O262 2.143 . S
O234 Co231 2.042 . S
O234 Co232 2.122 . S
O234 Co233 2.087 . S
O234 H235 0.980 . S
H235 O234 0.980 . S
O236 Co233 2.087 . S
O236 Co237 2.042 . S
O236 Co238 2.122 . S
O236 H239 0.980 . S
Co237 O236 2.042 . S
Co237 O245 2.286 . S
Co237 O246 2.069 . S
Co237 O247 2.015 . S
Co237 O250 2.264 . S
Co238 O236 2.122 . S
Co238 O249 1.976 . S
Co238 O250 2.327 . S
Co238 O251 2.073 . S
H239 O236 0.980 . S
O240 Co232 2.073 . S
O240 C255 1.245 . S
O241 Co231 2.264 . S
O241 Co232 2.327 . S
O241 C255 1.257 . S
O242 Co232 1.976 . S
O242 C254 1.251 . S
O243 Co233 2.111 . S
O243 C254 1.274 . S
O244 Co233 2.143 . S
O244 C257 1.246 . S
O245 Co237 2.286 . S
O245 C256 1.259 . S
O246 Co237 2.069 . S
O246 C256 1.289 . S
O247 Co237 2.015 . S
O247 C257 1.257 . S
O248 Co233 2.111 . S
O248 C258 1.274 . S
O249 Co238 1.976 . S
O249 C258 1.251 . S
O250 Co237 2.264 . S
O250 Co238 2.327 . S
O250 C259 1.257 . S
O251 Co238 2.073 . S
O251 C259 1.245 . S
C252 O260 1.259 . S
C252 O261 1.289 . S
C253 O262 1.246 . S
C253 O263 1.257 . S
C254 O242 1.251 . S
C254 O243 1.274 . S
C255 O240 1.245 . S
C255 O241 1.257 . S
C256 O245 1.259 . S
C256 O246 1.289 . S
C257 O244 1.246 . S
C257 O247 1.257 . S
C258 O248 1.274 . S
C258 O249 1.251 . S
C259 O250 1.257 . S
C259 O251 1.245 . S
O260 Co231 2.286 . S
O260 C252 1.259 . S
O261 Co231 2.069 . S
O261 C252 1.289 . S
O262 Co233 2.143 . S
O262 C253 1.246 . S
O263 Co231 2.015 . S
O263 C253 1.257 . S
Co264 O267 2.042 . S
Co264 O274 2.264 . S
Co264 O293 2.286 . S
Co264 O294 2.069 . S
Co264 O296 2.015 . S
Co265 O267 2.122 . S
Co265 O273 2.073 . S
Co265 O274 2.327 . S
Co265 O275 1.976 . S
Co266 O267 2.087 . S
Co266 O269 2.087 . S
Co266 O276 2.111 . S
Co266 O277 2.143 . S
Co266 O281 2.111 . S
Co266 O295 2.143 . S
O267 Co264 2.042 . S
O267 Co265 2.122 . S
O267 Co266 2.087 . S
O267 H268 0.980 . S
H268 O267 0.980 . S
O269 Co266 2.087 . S
O269 Co270 2.042 . S
O269 Co271 2.122 . S
O269 H272 0.980 . S
Co270 O269 2.042 . S
Co270 O278 2.286 . S
Co270 O279 2.069 . S
Co270 O280 2.015 . S
Co270 O283 2.264 . S
Co271 O269 2.122 . S
Co271 O282 1.976 . S
Co271 O283 2.327 . S
Co271 O284 2.073 . S
H272 O269 0.980 . S
O273 Co265 2.073 . S
O273 C288 1.245 . S
O274 Co264 2.264 . S
O274 Co265 2.327 . S
O274 C288 1.257 . S
O275 Co265 1.976 . S
O275 C287 1.251 . S
O276 Co266 2.111 . S
O276 C287 1.274 . S
O277 Co266 2.143 . S
O277 C290 1.246 . S
O278 Co270 2.286 . S
O278 C289 1.259 . S
O279 Co270 2.069 . S
O279 C289 1.289 . S
O280 Co270 2.015 . S
O280 C290 1.257 . S
O281 Co266 2.111 . S
O281 C291 1.274 . S
O282 Co271 1.976 . S
O282 C291 1.251 . S
O283 Co270 2.264 . S
O283 Co271 2.327 . S
O283 C292 1.257 . S
O284 Co271 2.073 . S
O284 C292 1.245 . S
C285 O293 1.259 . S
C285 O294 1.289 . S
C286 O295 1.246 . S
C286 O296 1.257 . S
C287 O275 1.251 . S
C287 O276 1.274 . S
C288 O273 1.245 . S
C288 O274 1.257 . S
C289 O278 1.259 . S
C289 O279 1.289 . S
C290 O277 1.246 . S
C290 O280 1.257 . S
C291 O281 1.274 . S
C291 O282 1.251 . S
C292 O283 1.257 . S
C292 O284 1.245 . S
O293 Co264 2.286 . S
O293 C285 1.259 . S
O294 Co264 2.069 . S
O294 C285 1.289 . S
O295 Co266 2.143 . S
O295 C286 1.246 . S
O296 Co264 2.015 . S
O296 C286 1.257 . S
Co297 O300 2.042 . S
Co297 O307 2.264 . S
Co297 O326 2.286 . S
Co297 O327 2.069 . S
Co297 O329 2.015 . S
Co298 O300 2.122 . S
Co298 O306 2.073 . S
Co298 O307 2.327 . S
Co298 O308 1.976 . S
Co299 O300 2.087 . S
Co299 O302 2.087 . S
Co299 O309 2.111 . S
Co299 O310 2.143 . S
Co299 O314 2.111 . S
Co299 O328 2.143 . S
O300 Co297 2.042 . S
O300 Co298 2.122 . S
O300 Co299 2.087 . S
O300 H301 0.980 . S
H301 O300 0.980 . S
O302 Co299 2.087 . S
O302 Co303 2.042 . S
O302 Co304 2.122 . S
O302 H305 0.980 . S
Co303 O302 2.042 . S
Co303 O311 2.286 . S
Co303 O312 2.069 . S
Co303 O313 2.015 . S
Co303 O316 2.264 . S
Co304 O302 2.122 . S
Co304 O315 1.976 . S
Co304 O316 2.327 . S
Co304 O317 2.073 . S
H305 O302 0.980 . S
O306 Co298 2.073 . S
O306 C321 1.245 . S
O307 Co297 2.264 . S
O307 Co298 2.327 . S
O307 C321 1.257 . S
O308 Co298 1.976 . S
O308 C320 1.251 . S
O309 Co299 2.111 . S
O309 C320 1.274 . S
O310 Co299 2.143 . S
O310 C323 1.246 . S
O311 Co303 2.286 . S
O311 C322 1.259 . S
O312 Co303 2.069 . S
O312 C322 1.289 . S
O313 Co303 2.015 . S
O313 C323 1.257 . S
O314 Co299 2.111 . S
O314 C324 1.274 . S
O315 Co304 1.976 . S
O315 C324 1.251 . S
O316 Co303 2.264 . S
O316 Co304 2.327 . S
O316 C325 1.257 . S
O317 Co304 2.073 . S
O317 C325 1.245 . S
C318 O326 1.259 . S
C318 O327 1.289 . S
C319 O328 1.246 . S
C319 O329 1.257 . S
C320 O308 1.251 . S
C320 O309 1.274 . S
C321 O306 1.245 . S
C321 O307 1.257 . S
C322 O311 1.259 . S
C322 O312 1.289 . S
C323 O310 1.246 . S
C323 O313 1.257 . S
C324 O314 1.274 . S
C324 O315 1.251 . S
C325 O316 1.257 . S
C325 O317 1.245 . S
O326 Co297 2.286 . S
O326 C318 1.259 . S
O327 Co297 2.069 . S
O327 C318 1.289 . S
O328 Co299 2.143 . S
O328 C319 1.246 . S
O329 Co297 2.015 . S
O329 C319 1.257 . S
Co330 O333 2.042 . S
Co330 O340 2.264 . S
Co330 O359 2.286 . S
Co330 O360 2.069 . S
Co330 O362 2.015 . S
Co331 O333 2.122 . S
Co331 O339 2.073 . S
Co331 O340 2.327 . S
Co331 O341 1.976 . S
Co332 O333 2.087 . S
Co332 O335 2.087 . S
Co332 O342 2.111 . S
Co332 O343 2.143 . S
Co332 O347 2.111 . S
Co332 O361 2.143 . S
O333 Co330 2.042 . S
O333 Co331 2.122 . S
O333 Co332 2.087 . S
O333 H334 0.980 . S
H334 O333 0.980 . S
O335 Co332 2.087 . S
O335 Co336 2.042 . S
O335 Co337 2.122 . S
O335 H338 0.980 . S
Co336 O335 2.042 . S
Co336 O344 2.286 . S
Co336 O345 2.069 . S
Co336 O346 2.015 . S
Co336 O349 2.264 . S
Co337 O335 2.122 . S
Co337 O348 1.976 . S
Co337 O349 2.327 . S
Co337 O350 2.073 . S
H338 O335 0.980 . S
O339 Co331 2.073 . S
O339 C354 1.245 . S
O340 Co330 2.264 . S
O340 Co331 2.327 . S
O340 C354 1.257 . S
O341 Co331 1.976 . S
O341 C353 1.251 . S
O342 Co332 2.111 . S
O342 C353 1.274 . S
O343 Co332 2.143 . S
O343 C356 1.246 . S
O344 Co336 2.286 . S
O344 C355 1.259 . S
O345 Co336 2.069 . S
O345 C355 1.289 . S
O346 Co336 2.015 . S
O346 C356 1.257 . S
O347 Co332 2.111 . S
O347 C357 1.274 . S
O348 Co337 1.976 . S
O348 C357 1.251 . S
O349 Co336 2.264 . S
O349 Co337 2.327 . S
O349 C358 1.257 . S
O350 Co337 2.073 . S
O350 C358 1.245 . S
C351 O359 1.259 . S
C351 O360 1.289 . S
C352 O361 1.246 . S
C352 O362 1.257 . S
C353 O341 1.251 . S
C353 O342 1.274 . S
C354 O339 1.245 . S
C354 O340 1.257 . S
C355 O344 1.259 . S
C355 O345 1.289 . S
C356 O343 1.246 . S
C356 O346 1.257 . S
C357 O347 1.274 . S
C357 O348 1.251 . S
C358 O349 1.257 . S
C358 O350 1.245 . S
O359 Co330 2.286 . S
O359 C351 1.259 . S
O360 Co330 2.069 . S
O360 C351 1.289 . S
O361 Co332 2.143 . S
O361 C352 1.246 . S
O362 Co330 2.015 . S
O362 C352 1.257 . S
Co363 O366 2.042 . S
Co363 O373 2.264 . S
Co363 O392 2.286 . S
Co363 O393 2.069 . S
Co363 O395 2.015 . S
Co364 O366 2.122 . S
Co364 O372 2.073 . S
Co364 O373 2.327 . S
Co364 O374 1.976 . S
Co365 O366 2.087 . S
Co365 O368 2.087 . S
Co365 O375 2.111 . S
Co365 O376 2.143 . S
Co365 O380 2.111 . S
Co365 O394 2.143 . S
O366 Co363 2.042 . S
O366 Co364 2.122 . S
O366 Co365 2.087 . S
O366 H367 0.980 . S
H367 O366 0.980 . S
O368 Co365 2.087 . S
O368 Co369 2.042 . S
O368 Co370 2.122 . S
O368 H371 0.980 . S
Co369 O368 2.042 . S
Co369 O377 2.286 . S
Co369 O378 2.069 . S
Co369 O379 2.015 . S
Co369 O382 2.264 . S
Co370 O368 2.122 . S
Co370 O381 1.976 . S
Co370 O382 2.327 . S
Co370 O383 2.073 . S
H371 O368 0.980 . S
O372 Co364 2.073 . S
O372 C387 1.245 . S
O373 Co363 2.264 . S
O373 Co364 2.327 . S
O373 C387 1.257 . S
O374 Co364 1.976 . S
O374 C386 1.251 . S
O375 Co365 2.111 . S
O375 C386 1.274 . S
O376 Co365 2.143 . S
O376 C389 1.246 . S
O377 Co369 2.286 . S
O377 C388 1.259 . S
O378 Co369 2.069 . S
O378 C388 1.289 . S
O379 Co369 2.015 . S
O379 C389 1.257 . S
O380 Co365 2.111 . S
O380 C390 1.274 . S
O381 Co370 1.976 . S
O381 C390 1.251 . S
O382 Co369 2.264 . S
O382 Co370 2.327 . S
O382 C391 1.257 . S
O383 Co370 2.073 . S
O383 C391 1.245 . S
C384 O392 1.259 . S
C384 O393 1.289 . S
C385 O394 1.246 . S
C385 O395 1.257 . S
C386 O374 1.251 . S
C386 O375 1.274 . S
C387 O372 1.245 . S
C387 O373 1.257 . S
C388 O377 1.259 . S
C388 O378 1.289 . S
C389 O376 1.246 . S
C389 O379 1.257 . S
C390 O380 1.274 . S
C390 O381 1.251 . S
C391 O382 1.257 . S
C391 O383 1.245 . S
O392 Co363 2.286 . S
O392 C384 1.259 . S
O393 Co363 2.069 . S
O393 C384 1.289 . S
O394 Co365 2.143 . S
O394 C385 1.246 . S
O395 Co363 2.015 . S
O395 C385 1.257 . S
Co396 O399 2.042 . S
Co396 O406 2.264 . S
Co396 O425 2.286 . S
Co396 O426 2.069 . S
Co396 O428 2.015 . S
Co397 O399 2.122 . S
Co397 O405 2.073 . S
Co397 O406 2.327 . S
Co397 O407 1.976 . S
Co398 O399 2.087 . S
Co398 O401 2.087 . S
Co398 O408 2.111 . S
Co398 O409 2.143 . S
Co398 O413 2.111 . S
Co398 O427 2.143 . S
O399 Co396 2.042 . S
O399 Co397 2.122 . S
O399 Co398 2.087 . S
O399 H400 0.980 . S
H400 O399 0.980 . S
O401 Co398 2.087 . S
O401 Co402 2.042 . S
O401 Co403 2.122 . S
O401 H404 0.980 . S
Co402 O401 2.042 . S
Co402 O410 2.286 . S
Co402 O411 2.069 . S
Co402 O412 2.015 . S
Co402 O415 2.264 . S
Co403 O401 2.122 . S
Co403 O414 1.976 . S
Co403 O415 2.327 . S
Co403 O416 2.073 . S
H404 O401 0.980 . S
O405 Co397 2.073 . S
O405 C420 1.245 . S
O406 Co396 2.264 . S
O406 Co397 2.327 . S
O406 C420 1.257 . S
O407 Co397 1.976 . S
O407 C419 1.251 . S
O408 Co398 2.111 . S
O408 C419 1.274 . S
O409 Co398 2.143 . S
O409 C422 1.246 . S
O410 Co402 2.286 . S
O410 C421 1.259 . S
O411 Co402 2.069 . S
O411 C421 1.289 . S
O412 Co402 2.015 . S
O412 C422 1.257 . S
O413 Co398 2.111 . S
O413 C423 1.274 . S
O414 Co403 1.976 . S
O414 C423 1.251 . S
O415 Co402 2.264 . S
O415 Co403 2.327 . S
O415 C424 1.257 . S
O416 Co403 2.073 . S
O416 C424 1.245 . S
C417 O425 1.259 . S
C417 O426 1.289 . S
C418 O427 1.246 . S
C418 O428 1.257 . S
C419 O407 1.251 . S
C419 O408 1.274 . S
C420 O405 1.245 . S
C420 O406 1.257 . S
C421 O410 1.259 . S
C421 O411 1.289 . S
C422 O409 1.246 . S
C422 O412 1.257 . S
C423 O413 1.274 . S
C423 O414 1.251 . S
C424 O415 1.257 . S
C424 O416 1.245 . S
O425 Co396 2.286 . S
O425 C417 1.259 . S
O426 Co396 2.069 . S
O426 C417 1.289 . S
O427 Co398 2.143 . S
O427 C418 1.246 . S
O428 Co396 2.015 . S
O428 C418 1.257 . S
Co429 O432 2.042 . S
Co429 O439 2.264 . S
Co429 O458 2.286 . S
Co429 O459 2.069 . S
Co429 O461 2.015 . S
Co430 O432 2.122 . S
Co430 O438 2.073 . S
Co430 O439 2.327 . S
Co430 O440 1.976 . S
Co431 O432 2.087 . S
Co431 O434 2.087 . S
Co431 O441 2.111 . S
Co431 O442 2.143 . S
Co431 O446 2.111 . S
Co431 O460 2.143 . S
O432 Co429 2.042 . S
O432 Co430 2.122 . S
O432 Co431 2.087 . S
O432 H433 0.980 . S
H433 O432 0.980 . S
O434 Co431 2.087 . S
O434 Co435 2.042 . S
O434 Co436 2.122 . S
O434 H437 0.980 . S
Co435 O434 2.042 . S
Co435 O443 2.286 . S
Co435 O444 2.069 . S
Co435 O445 2.015 . S
Co435 O448 2.264 . S
Co436 O434 2.122 . S
Co436 O447 1.976 . S
Co436 O448 2.327 . S
Co436 O449 2.073 . S
H437 O434 0.980 . S
O438 Co430 2.073 . S
O438 C453 1.245 . S
O439 Co429 2.264 . S
O439 Co430 2.327 . S
O439 C453 1.257 . S
O440 Co430 1.976 . S
O440 C452 1.251 . S
O441 Co431 2.111 . S
O441 C452 1.274 . S
O442 Co431 2.143 . S
O442 C455 1.246 . S
O443 Co435 2.286 . S
O443 C454 1.259 . S
O444 Co435 2.069 . S
O444 C454 1.289 . S
O445 Co435 2.015 . S
O445 C455 1.257 . S
O446 Co431 2.111 . S
O446 C456 1.274 . S
O447 Co436 1.976 . S
O447 C456 1.251 . S
O448 Co435 2.264 . S
O448 Co436 2.327 . S
O448 C457 1.257 . S
O449 Co436 2.073 . S
O449 C457 1.245 . S
C450 O458 1.259 . S
C450 O459 1.289 . S
C451 O460 1.246 . S
C451 O461 1.257 . S
C452 O440 1.251 . S
C452 O441 1.274 . S
C453 O438 1.245 . S
C453 O439 1.257 . S
C454 O443 1.259 . S
C454 O444 1.289 . S
C455 O442 1.246 . S
C455 O445 1.257 . S
C456 O446 1.274 . S
C456 O447 1.251 . S
C457 O448 1.257 . S
C457 O449 1.245 . S
O458 Co429 2.286 . S
O458 C450 1.259 . S
O459 Co429 2.069 . S
O459 C450 1.289 . S
O460 Co431 2.143 . S
O460 C451 1.246 . S
O461 Co429 2.015 . S
O461 C451 1.257 . S
Co462 O465 2.042 . S
Co462 O472 2.264 . S
Co462 O491 2.286 . S
Co462 O492 2.069 . S
Co462 O494 2.015 . S
Co463 O465 2.122 . S
Co463 O471 2.073 . S
Co463 O472 2.327 . S
Co463 O473 1.976 . S
Co464 O465 2.087 . S
Co464 O467 2.087 . S
Co464 O474 2.111 . S
Co464 O475 2.143 . S
Co464 O479 2.111 . S
Co464 O493 2.143 . S
O465 Co462 2.042 . S
O465 Co463 2.122 . S
O465 Co464 2.087 . S
O465 H466 0.980 . S
H466 O465 0.980 . S
O467 Co464 2.087 . S
O467 Co468 2.042 . S
O467 Co469 2.122 . S
O467 H470 0.980 . S
Co468 O467 2.042 . S
Co468 O476 2.286 . S
Co468 O477 2.069 . S
Co468 O478 2.015 . S
Co468 O481 2.264 . S
Co469 O467 2.122 . S
Co469 O480 1.976 . S
Co469 O481 2.327 . S
Co469 O482 2.073 . S
H470 O467 0.980 . S
O471 Co463 2.073 . S
O471 C486 1.245 . S
O472 Co462 2.264 . S
O472 Co463 2.327 . S
O472 C486 1.257 . S
O473 Co463 1.976 . S
O473 C485 1.251 . S
O474 Co464 2.111 . S
O474 C485 1.274 . S
O475 Co464 2.143 . S
O475 C488 1.246 . S
O476 Co468 2.286 . S
O476 C487 1.259 . S
O477 Co468 2.069 . S
O477 C487 1.289 . S
O478 Co468 2.015 . S
O478 C488 1.257 . S
O479 Co464 2.111 . S
O479 C489 1.274 . S
O480 Co469 1.976 . S
O480 C489 1.251 . S
O481 Co468 2.264 . S
O481 Co469 2.327 . S
O481 C490 1.257 . S
O482 Co469 2.073 . S
O482 C490 1.245 . S
C483 O491 1.259 . S
C483 O492 1.289 . S
C484 O493 1.246 . S
C484 O494 1.257 . S
C485 O473 1.251 . S
C485 O474 1.274 . S
C486 O471 1.245 . S
C486 O472 1.257 . S
C487 O476 1.259 . S
C487 O477 1.289 . S
C488 O475 1.246 . S
C488 O478 1.257 . S
C489 O479 1.274 . S
C489 O480 1.251 . S
C490 O481 1.257 . S
C490 O482 1.245 . S
O491 Co462 2.286 . S
O491 C483 1.259 . S
O492 Co462 2.069 . S
O492 C483 1.289 . S
O493 Co464 2.143 . S
O493 C484 1.246 . S
O494 Co462 2.015 . S
O494 C484 1.257 . S
Co495 O498 2.042 . S
Co495 O505 2.264 . S
Co495 O524 2.286 . S
Co495 O525 2.069 . S
Co495 O527 2.015 . S
Co496 O498 2.122 . S
Co496 O504 2.073 . S
Co496 O505 2.327 . S
Co496 O506 1.976 . S
Co497 O498 2.087 . S
Co497 O500 2.087 . S
Co497 O507 2.111 . S
Co497 O508 2.143 . S
Co497 O512 2.111 . S
Co497 O526 2.143 . S
O498 Co495 2.042 . S
O498 Co496 2.122 . S
O498 Co497 2.087 . S
O498 H499 0.980 . S
H499 O498 0.980 . S
O500 Co497 2.087 . S
O500 Co501 2.042 . S
O500 Co502 2.122 . S
O500 H503 0.980 . S
Co501 O500 2.042 . S
Co501 O509 2.286 . S
Co501 O510 2.069 . S
Co501 O511 2.015 . S
Co501 O514 2.264 . S
Co502 O500 2.122 . S
Co502 O513 1.976 . S
Co502 O514 2.327 . S
Co502 O515 2.073 . S
H503 O500 0.980 . S
O504 Co496 2.073 . S
O504 C519 1.245 . S
O505 Co495 2.264 . S
O505 Co496 2.327 . S
O505 C519 1.257 . S
O506 Co496 1.976 . S
O506 C518 1.251 . S
O507 Co497 2.111 . S
O507 C518 1.274 . S
O508 Co497 2.143 . S
O508 C521 1.246 . S
O509 Co501 2.286 . S
O509 C520 1.259 . S
O510 Co501 2.069 . S
O510 C520 1.289 . S
O511 Co501 2.015 . S
O511 C521 1.257 . S
O512 Co497 2.111 . S
O512 C522 1.274 . S
O513 Co502 1.976 . S
O513 C522 1.251 . S
O514 Co501 2.264 . S
O514 Co502 2.327 . S
O514 C523 1.257 . S
O515 Co502 2.073 . S
O515 C523 1.245 . S
C516 O524 1.259 . S
C516 O525 1.289 . S
C517 O526 1.246 . S
C517 O527 1.257 . S
C518 O506 1.251 . S
C518 O507 1.274 . S
C519 O504 1.245 . S
C519 O505 1.257 . S
C520 O509 1.259 . S
C520 O510 1.289 . S
C521 O508 1.246 . S
C521 O511 1.257 . S
C522 O512 1.274 . S
C522 O513 1.251 . S
C523 O514 1.257 . S
C523 O515 1.245 . S
O524 Co495 2.286 . S
O524 C516 1.259 . S
O525 Co495 2.069 . S
O525 C516 1.289 . S
O526 Co497 2.143 . S
O526 C517 1.246 . S
O527 Co495 2.015 . S
O527 C517 1.257 . S
Co528 O531 2.042 . S
Co528 O538 2.264 . S
Co528 O557 2.286 . S
Co528 O558 2.069 . S
Co528 O560 2.015 . S
Co529 O531 2.122 . S
Co529 O537 2.073 . S
Co529 O538 2.327 . S
Co529 O539 1.976 . S
Co530 O531 2.087 . S
Co530 O533 2.087 . S
Co530 O540 2.111 . S
Co530 O541 2.143 . S
Co530 O545 2.111 . S
Co530 O559 2.143 . S
O531 Co528 2.042 . S
O531 Co529 2.122 . S
O531 Co530 2.087 . S
O531 H532 0.980 . S
H532 O531 0.980 . S
O533 Co530 2.087 . S
O533 Co534 2.042 . S
O533 Co535 2.122 . S
O533 H536 0.980 . S
Co534 O533 2.042 . S
Co534 O542 2.286 . S
Co534 O543 2.069 . S
Co534 O544 2.015 . S
Co534 O547 2.264 . S
Co535 O533 2.122 . S
Co535 O546 1.976 . S
Co535 O547 2.327 . S
Co535 O548 2.073 . S
H536 O533 0.980 . S
O537 Co529 2.073 . S
O537 C552 1.245 . S
O538 Co528 2.264 . S
O538 Co529 2.327 . S
O538 C552 1.257 . S
O539 Co529 1.976 . S
O539 C551 1.251 . S
O540 Co530 2.111 . S
O540 C551 1.274 . S
O541 Co530 2.143 . S
O541 C554 1.246 . S
O542 Co534 2.286 . S
O542 C553 1.259 . S
O543 Co534 2.069 . S
O543 C553 1.289 . S
O544 Co534 2.015 . S
O544 C554 1.257 . S
O545 Co530 2.111 . S
O545 C555 1.274 . S
O546 Co535 1.976 . S
O546 C555 1.251 . S
O547 Co534 2.264 . S
O547 Co535 2.327 . S
O547 C556 1.257 . S
O548 Co535 2.073 . S
O548 C556 1.245 . S
C549 O557 1.259 . S
C549 O558 1.289 . S
C550 O559 1.246 . S
C550 O560 1.257 . S
C551 O539 1.251 . S
C551 O540 1.274 . S
C552 O537 1.245 . S
C552 O538 1.257 . S
C553 O542 1.259 . S
C553 O543 1.289 . S
C554 O541 1.246 . S
C554 O544 1.257 . S
C555 O545 1.274 . S
C555 O546 1.251 . S
C556 O547 1.257 . S
C556 O548 1.245 . S
O557 Co528 2.286 . S
O557 C549 1.259 . S
O558 Co528 2.069 . S
O558 C549 1.289 . S
O559 Co530 2.143 . S
O559 C550 1.246 . S
O560 Co528 2.015 . S
O560 C550 1.257 . S
Co561 O564 2.042 . S
Co561 O571 2.264 . S
Co561 O590 2.286 . S
Co561 O591 2.069 . S
Co561 O593 2.015 . S
Co562 O564 2.122 . S
Co562 O570 2.073 . S
Co562 O571 2.327 . S
Co562 O572 1.976 . S
Co563 O564 2.087 . S
Co563 O566 2.087 . S
Co563 O573 2.111 . S
Co563 O574 2.143 . S
Co563 O578 2.111 . S
Co563 O592 2.143 . S
O564 Co561 2.042 . S
O564 Co562 2.122 . S
O564 Co563 2.087 . S
O564 H565 0.980 . S
H565 O564 0.980 . S
O566 Co563 2.087 . S
O566 Co567 2.042 . S
O566 Co568 2.122 . S
O566 H569 0.980 . S
Co567 O566 2.042 . S
Co567 O575 2.286 . S
Co567 O576 2.069 . S
Co567 O577 2.015 . S
Co567 O580 2.264 . S
Co568 O566 2.122 . S
Co568 O579 1.976 . S
Co568 O580 2.327 . S
Co568 O581 2.073 . S
H569 O566 0.980 . S
O570 Co562 2.073 . S
O570 C585 1.245 . S
O571 Co561 2.264 . S
O571 Co562 2.327 . S
O571 C585 1.257 . S
O572 Co562 1.976 . S
O572 C584 1.251 . S
O573 Co563 2.111 . S
O573 C584 1.274 . S
O574 Co563 2.143 . S
O574 C587 1.246 . S
O575 Co567 2.286 . S
O575 C586 1.259 . S
O576 Co567 2.069 . S
O576 C586 1.289 . S
O577 Co567 2.015 . S
O577 C587 1.257 . S
O578 Co563 2.111 . S
O578 C588 1.274 . S
O579 Co568 1.976 . S
O579 C588 1.251 . S
O580 Co567 2.264 . S
O580 Co568 2.327 . S
O580 C589 1.257 . S
O581 Co568 2.073 . S
O581 C589 1.245 . S
C582 O590 1.259 . S
C582 O591 1.289 . S
C583 O592 1.246 . S
C583 O593 1.257 . S
C584 O572 1.251 . S
C584 O573 1.274 . S
C585 O570 1.245 . S
C585 O571 1.257 . S
C586 O575 1.259 . S
C586 O576 1.289 . S
C587 O574 1.246 . S
C587 O577 1.257 . S
C588 O578 1.274 . S
C588 O579 1.251 . S
C589 O580 1.257 . S
C589 O581 1.245 . S
O590 Co561 2.286 . S
O590 C582 1.259 . S
O591 Co561 2.069 . S
O591 C582 1.289 . S
O592 Co563 2.143 . S
O592 C583 1.246 . S
O593 Co561 2.015 . S
O593 C583 1.257 . S
Co594 O597 2.042 . S
Co594 O604 2.264 . S
Co594 O623 2.286 . S
Co594 O624 2.069 . S
Co594 O626 2.015 . S
Co595 O597 2.122 . S
Co595 O603 2.073 . S
Co595 O604 2.327 . S
Co595 O605 1.976 . S
Co596 O597 2.087 . S
Co596 O599 2.087 . S
Co596 O606 2.111 . S
Co596 O607 2.143 . S
Co596 O611 2.111 . S
Co596 O625 2.143 . S
O597 Co594 2.042 . S
O597 Co595 2.122 . S
O597 Co596 2.087 . S
O597 H598 0.980 . S
H598 O597 0.980 . S
O599 Co596 2.087 . S
O599 Co600 2.042 . S
O599 Co601 2.122 . S
O599 H602 0.980 . S
Co600 O599 2.042 . S
Co600 O608 2.286 . S
Co600 O609 2.069 . S
Co600 O610 2.015 . S
Co600 O613 2.264 . S
Co601 O599 2.122 . S
Co601 O612 1.976 . S
Co601 O613 2.327 . S
Co601 O614 2.073 . S
H602 O599 0.980 . S
O603 Co595 2.073 . S
O603 C618 1.245 . S
O604 Co594 2.264 . S
O604 Co595 2.327 . S
O604 C618 1.257 . S
O605 Co595 1.976 . S
O605 C617 1.251 . S
O606 Co596 2.111 . S
O606 C617 1.274 . S
O607 Co596 2.143 . S
O607 C620 1.246 . S
O608 Co600 2.286 . S
O608 C619 1.259 . S
O609 Co600 2.069 . S
O609 C619 1.289 . S
O610 Co600 2.015 . S
O610 C620 1.257 . S
O611 Co596 2.111 . S
O611 C621 1.274 . S
O612 Co601 1.976 . S
O612 C621 1.251 . S
O613 Co600 2.264 . S
O613 Co601 2.327 . S
O613 C622 1.257 . S
O614 Co601 2.073 . S
O614 C622 1.245 . S
C615 O623 1.259 . S
C615 O624 1.289 . S
C616 O625 1.246 . S
C616 O626 1.257 . S
C617 O605 1.251 . S
C617 O606 1.274 . S
C618 O603 1.245 . S
C618 O604 1.257 . S
C619 O608 1.259 . S
C619 O609 1.289 . S
C620 O607 1.246 . S
C620 O610 1.257 . S
C621 O611 1.274 . S
C621 O612 1.251 . S
C622 O613 1.257 . S
C622 O614 1.245 . S
O623 Co594 2.286 . S
O623 C615 1.259 . S
O624 Co594 2.069 . S
O624 C615 1.289 . S
O625 Co596 2.143 . S
O625 C616 1.246 . S
O626 Co594 2.015 . S
O626 C616 1.257 . S
Co627 O630 2.042 . S
Co627 O637 2.264 . S
Co627 O656 2.286 . S
Co627 O657 2.069 . S
Co627 O659 2.015 . S
Co628 O630 2.122 . S
Co628 O636 2.073 . S
Co628 O637 2.327 . S
Co628 O638 1.976 . S
Co629 O630 2.087 . S
Co629 O632 2.087 . S
Co629 O639 2.111 . S
Co629 O640 2.143 . S
Co629 O644 2.111 . S
Co629 O658 2.143 . S
O630 Co627 2.042 . S
O630 Co628 2.122 . S
O630 Co629 2.087 . S
O630 H631 0.980 . S
H631 O630 0.980 . S
O632 Co629 2.087 . S
O632 Co633 2.042 . S
O632 Co634 2.122 . S
O632 H635 0.980 . S
Co633 O632 2.042 . S
Co633 O641 2.286 . S
Co633 O642 2.069 . S
Co633 O643 2.015 . S
Co633 O646 2.264 . S
Co634 O632 2.122 . S
Co634 O645 1.976 . S
Co634 O646 2.327 . S
Co634 O647 2.073 . S
H635 O632 0.980 . S
O636 Co628 2.073 . S
O636 C651 1.245 . S
O637 Co627 2.264 . S
O637 Co628 2.327 . S
O637 C651 1.257 . S
O638 Co628 1.976 . S
O638 C650 1.251 . S
O639 Co629 2.111 . S
O639 C650 1.274 . S
O640 Co629 2.143 . S
O640 C653 1.246 . S
O641 Co633 2.286 . S
O641 C652 1.259 . S
O642 Co633 2.069 . S
O642 C652 1.289 . S
O643 Co633 2.015 . S
O643 C653 1.257 . S
O644 Co629 2.111 . S
O644 C654 1.274 . S
O645 Co634 1.976 . S
O645 C654 1.251 . S
O646 Co633 2.264 . S
O646 Co634 2.327 . S
O646 C655 1.257 . S
O647 Co634 2.073 . S
O647 C655 1.245 . S
C648 O656 1.259 . S
C648 O657 1.289 . S
C649 O658 1.246 . S
C649 O659 1.257 . S
C650 O638 1.251 . S
C650 O639 1.274 . S
C651 O636 1.245 . S
C651 O637 1.257 . S
C652 O641 1.259 . S
C652 O642 1.289 . S
C653 O640 1.246 . S
C653 O643 1.257 . S
C654 O644 1.274 . S
C654 O645 1.251 . S
C655 O646 1.257 . S
C655 O647 1.245 . S
O656 Co627 2.286 . S
O656 C648 1.259 . S
O657 Co627 2.069 . S
O657 C648 1.289 . S
O658 Co629 2.143 . S
O658 C649 1.246 . S
O659 Co627 2.015 . S
O659 C649 1.257 . S
Co660 O663 2.042 . S
Co660 O670 2.264 . S
Co660 O689 2.286 . S
Co660 O690 2.069 . S
Co660 O692 2.015 . S
Co661 O663 2.122 . S
Co661 O669 2.073 . S
Co661 O670 2.327 . S
Co661 O671 1.976 . S
Co662 O663 2.087 . S
Co662 O665 2.087 . S
Co662 O672 2.111 . S
Co662 O673 2.143 . S
Co662 O677 2.111 . S
Co662 O691 2.143 . S
O663 Co660 2.042 . S
O663 Co661 2.122 . S
O663 Co662 2.087 . S
O663 H664 0.980 . S
H664 O663 0.980 . S
O665 Co662 2.087 . S
O665 Co666 2.042 . S
O665 Co667 2.122 . S
O665 H668 0.980 . S
Co666 O665 2.042 . S
Co666 O674 2.286 . S
Co666 O675 2.069 . S
Co666 O676 2.015 . S
Co666 O679 2.264 . S
Co667 O665 2.122 . S
Co667 O678 1.976 . S
Co667 O679 2.327 . S
Co667 O680 2.073 . S
H668 O665 0.980 . S
O669 Co661 2.073 . S
O669 C684 1.245 . S
O670 Co660 2.264 . S
O670 Co661 2.327 . S
O670 C684 1.257 . S
O671 Co661 1.976 . S
O671 C683 1.251 . S
O672 Co662 2.111 . S
O672 C683 1.274 . S
O673 Co662 2.143 . S
O673 C686 1.246 . S
O674 Co666 2.286 . S
O674 C685 1.259 . S
O675 Co666 2.069 . S
O675 C685 1.289 . S
O676 Co666 2.015 . S
O676 C686 1.257 . S
O677 Co662 2.111 . S
O677 C687 1.274 . S
O678 Co667 1.976 . S
O678 C687 1.251 . S
O679 Co666 2.264 . S
O679 Co667 2.327 . S
O679 C688 1.257 . S
O680 Co667 2.073 . S
O680 C688 1.245 . S
C681 O689 1.259 . S
C681 O690 1.289 . S
C682 O691 1.246 . S
C682 O692 1.257 . S
C683 O671 1.251 . S
C683 O672 1.274 . S
C684 O669 1.245 . S
C684 O670 1.257 . S
C685 O674 1.259 . S
C685 O675 1.289 . S
C686 O673 1.246 . S
C686 O676 1.257 . S
C687 O677 1.274 . S
C687 O678 1.251 . S
C688 O679 1.257 . S
C688 O680 1.245 . S
O689 Co660 2.286 . S
O689 C681 1.259 . S
O690 Co660 2.069 . S
O690 C681 1.289 . S
O691 Co662 2.143 . S
O691 C682 1.246 . S
O692 Co660 2.015 . S
O692 C682 1.257 . S
Co693 O696 2.042 . S
Co693 O703 2.264 . S
Co693 O722 2.286 . S
Co693 O723 2.069 . S
Co693 O725 2.015 . S
Co694 O696 2.122 . S
Co694 O702 2.073 . S
Co694 O703 2.327 . S
Co694 O704 1.976 . S
Co695 O696 2.087 . S
Co695 O698 2.087 . S
Co695 O705 2.111 . S
Co695 O706 2.143 . S
Co695 O710 2.111 . S
Co695 O724 2.143 . S
O696 Co693 2.042 . S
O696 Co694 2.122 . S
O696 Co695 2.087 . S
O696 H697 0.980 . S
H697 O696 0.980 . S
O698 Co695 2.087 . S
O698 Co699 2.042 . S
O698 Co700 2.122 . S
O698 H701 0.980 . S
Co699 O698 2.042 . S
Co699 O707 2.286 . S
Co699 O708 2.069 . S
Co699 O709 2.015 . S
Co699 O712 2.264 . S
Co700 O698 2.122 . S
Co700 O711 1.976 . S
Co700 O712 2.327 . S
Co700 O713 2.073 . S
H701 O698 0.980 . S
O702 Co694 2.073 . S
O702 C717 1.245 . S
O703 Co693 2.264 . S
O703 Co694 2.327 . S
O703 C717 1.257 . S
O704 Co694 1.976 . S
O704 C716 1.251 . S
O705 Co695 2.111 . S
O705 C716 1.274 . S
O706 Co695 2.143 . S
O706 C719 1.246 . S
O707 Co699 2.286 . S
O707 C718 1.259 . S
O708 Co699 2.069 . S
O708 C718 1.289 . S
O709 Co699 2.015 . S
O709 C719 1.257 . S
O710 Co695 2.111 . S
O710 C720 1.274 . S
O711 Co700 1.976 . S
O711 C720 1.251 . S
O712 Co699 2.264 . S
O712 Co700 2.327 . S
O712 C721 1.257 . S
O713 Co700 2.073 . S
O713 C721 1.245 . S
C714 O722 1.259 . S
C714 O723 1.289 . S
C715 O724 1.246 . S
C715 O725 1.257 . S
C716 O704 1.251 . S
C716 O705 1.274 . S
C717 O702 1.245 . S
C717 O703 1.257 . S
C718 O707 1.259 . S
C718 O708 1.289 . S
C719 O706 1.246 . S
C719 O709 1.257 . S
C720 O710 1.274 . S
C720 O711 1.251 . S
C721 O712 1.257 . S
C721 O713 1.245 . S
O722 Co693 2.286 . S
O722 C714 1.259 . S
O723 Co693 2.069 . S
O723 C714 1.289 . S
O724 Co695 2.143 . S
O724 C715 1.246 . S
O725 Co693 2.015 . S
O725 C715 1.257 . S
Co726 O729 2.042 . S
Co726 O736 2.264 . S
Co726 O755 2.286 . S
Co726 O756 2.069 . S
Co726 O758 2.015 . S
Co727 O729 2.122 . S
Co727 O735 2.073 . S
Co727 O736 2.327 . S
Co727 O737 1.976 . S
Co728 O729 2.087 . S
Co728 O731 2.087 . S
Co728 O738 2.111 . S
Co728 O739 2.143 . S
Co728 O743 2.111 . S
Co728 O757 2.143 . S
O729 Co726 2.042 . S
O729 Co727 2.122 . S
O729 Co728 2.087 . S
O729 H730 0.980 . S
H730 O729 0.980 . S
O731 Co728 2.087 . S
O731 Co732 2.042 . S
O731 Co733 2.122 . S
O731 H734 0.980 . S
Co732 O731 2.042 . S
Co732 O740 2.286 . S
Co732 O741 2.069 . S
Co732 O742 2.015 . S
Co732 O745 2.264 . S
Co733 O731 2.122 . S
Co733 O744 1.976 . S
Co733 O745 2.327 . S
Co733 O746 2.073 . S
H734 O731 0.980 . S
O735 Co727 2.073 . S
O735 C750 1.245 . S
O736 Co726 2.264 . S
O736 Co727 2.327 . S
O736 C750 1.257 . S
O737 Co727 1.976 . S
O737 C749 1.251 . S
O738 Co728 2.111 . S
O738 C749 1.274 . S
O739 Co728 2.143 . S
O739 C752 1.246 . S
O740 Co732 2.286 . S
O740 C751 1.259 . S
O741 Co732 2.069 . S
O741 C751 1.289 . S
O742 Co732 2.015 . S
O742 C752 1.257 . S
O743 Co728 2.111 . S
O743 C753 1.274 . S
O744 Co733 1.976 . S
O744 C753 1.251 . S
O745 Co732 2.264 . S
O745 Co733 2.327 . S
O745 C754 1.257 . S
O746 Co733 2.073 . S
O746 C754 1.245 . S
C747 O755 1.259 . S
C747 O756 1.289 . S
C748 O757 1.246 . S
C748 O758 1.257 . S
C749 O737 1.251 . S
C749 O738 1.274 . S
C750 O735 1.245 . S
C750 O736 1.257 . S
C751 O740 1.259 . S
C751 O741 1.289 . S
C752 O739 1.246 . S
C752 O742 1.257 . S
C753 O743 1.274 . S
C753 O744 1.251 . S
C754 O745 1.257 . S
C754 O746 1.245 . S
O755 Co726 2.286 . S
O755 C747 1.259 . S
O756 Co726 2.069 . S
O756 C747 1.289 . S
O757 Co728 2.143 . S
O757 C748 1.246 . S
O758 Co726 2.015 . S
O758 C748 1.257 . S
Co759 O762 2.042 . S
Co759 O769 2.264 . S
Co759 O788 2.286 . S
Co759 O789 2.069 . S
Co759 O791 2.015 . S
Co760 O762 2.122 . S
Co760 O768 2.073 . S
Co760 O769 2.327 . S
Co760 O770 1.976 . S
Co761 O762 2.087 . S
Co761 O764 2.087 . S
Co761 O771 2.111 . S
Co761 O772 2.143 . S
Co761 O776 2.111 . S
Co761 O790 2.143 . S
O762 Co759 2.042 . S
O762 Co760 2.122 . S
O762 Co761 2.087 . S
O762 H763 0.980 . S
H763 O762 0.980 . S
O764 Co761 2.087 . S
O764 Co765 2.042 . S
O764 Co766 2.122 . S
O764 H767 0.980 . S
Co765 O764 2.042 . S
Co765 O773 2.286 . S
Co765 O774 2.069 . S
Co765 O775 2.015 . S
Co765 O778 2.264 . S
Co766 O764 2.122 . S
Co766 O777 1.976 . S
Co766 O778 2.327 . S
Co766 O779 2.073 . S
H767 O764 0.980 . S
O768 Co760 2.073 . S
O768 C783 1.245 . S
O769 Co759 2.264 . S
O769 Co760 2.327 . S
O769 C783 1.257 . S
O770 Co760 1.976 . S
O770 C782 1.251 . S
O771 Co761 2.111 . S
O771 C782 1.274 . S
O772 Co761 2.143 . S
O772 C785 1.246 . S
O773 Co765 2.286 . S
O773 C784 1.259 . S
O774 Co765 2.069 . S
O774 C784 1.289 . S
O775 Co765 2.015 . S
O775 C785 1.257 . S
O776 Co761 2.111 . S
O776 C786 1.274 . S
O777 Co766 1.976 . S
O777 C786 1.251 . S
O778 Co765 2.264 . S
O778 Co766 2.327 . S
O778 C787 1.257 . S
O779 Co766 2.073 . S
O779 C787 1.245 . S
C780 O788 1.259 . S
C780 O789 1.289 . S
C781 O790 1.246 . S
C781 O791 1.257 . S
C782 O770 1.251 . S
C782 O771 1.274 . S
C783 O768 1.245 . S
C783 O769 1.257 . S
C784 O773 1.259 . S
C784 O774 1.289 . S
C785 O772 1.246 . S
C785 O775 1.257 . S
C786 O776 1.274 . S
C786 O777 1.251 . S
C787 O778 1.257 . S
C787 O779 1.245 . S
O788 Co759 2.286 . S
O788 C780 1.259 . S
O789 Co759 2.069 . S
O789 C780 1.289 . S
O790 Co761 2.143 . S
O790 C781 1.246 . S
O791 Co759 2.015 . S
O791 C781 1.257 . S
Co792 O795 2.042 . S
Co792 O802 2.264 . S
Co792 O821 2.286 . S
Co792 O822 2.069 . S
Co792 O824 2.015 . S
Co793 O795 2.122 . S
Co793 O801 2.073 . S
Co793 O802 2.327 . S
Co793 O803 1.976 . S
Co794 O795 2.087 . S
Co794 O797 2.087 . S
Co794 O804 2.111 . S
Co794 O805 2.143 . S
Co794 O809 2.111 . S
Co794 O823 2.143 . S
O795 Co792 2.042 . S
O795 Co793 2.122 . S
O795 Co794 2.087 . S
O795 H796 0.980 . S
H796 O795 0.980 . S
O797 Co794 2.087 . S
O797 Co798 2.042 . S
O797 Co799 2.122 . S
O797 H800 0.980 . S
Co798 O797 2.042 . S
Co798 O806 2.286 . S
Co798 O807 2.069 . S
Co798 O808 2.015 . S
Co798 O811 2.264 . S
Co799 O797 2.122 . S
Co799 O810 1.976 . S
Co799 O811 2.327 . S
Co799 O812 2.073 . S
H800 O797 0.980 . S
O801 Co793 2.073 . S
O801 C816 1.245 . S
O802 Co792 2.264 . S
O802 Co793 2.327 . S
O802 C816 1.257 . S
O803 Co793 1.976 . S
O803 C815 1.251 . S
O804 Co794 2.111 . S
O804 C815 1.274 . S
O805 Co794 2.143 . S
O805 C818 1.246 . S
O806 Co798 2.286 . S
O806 C817 1.259 . S
O807 Co798 2.069 . S
O807 C817 1.289 . S
O808 Co798 2.015 . S
O808 C818 1.257 . S
O809 Co794 2.111 . S
O809 C819 1.274 . S
O810 Co799 1.976 . S
O810 C819 1.251 . S
O811 Co798 2.264 . S
O811 Co799 2.327 . S
O811 C820 1.257 . S
O812 Co799 2.073 . S
O812 C820 1.245 . S
C813 O821 1.259 . S
C813 O822 1.289 . S
C814 O823 1.246 . S
C814 O824 1.257 . S
C815 O803 1.251 . S
C815 O804 1.274 . S
C816 O801 1.245 . S
C816 O802 1.257 . S
C817 O806 1.259 . S
C817 O807 1.289 . S
C818 O805 1.246 . S
C818 O808 1.257 . S
C819 O809 1.274 . S
C819 O810 1.251 . S
C820 O811 1.257 . S
C820 O812 1.245 . S
O821 Co792 2.286 . S
O821 C813 1.259 . S
O822 Co792 2.069 . S
O822 C813 1.289 . S
O823 Co794 2.143 . S
O823 C814 1.246 . S
O824 Co792 2.015 . S
O824 C814 1.257 . S
Co825 O828 2.042 . S
Co825 O835 2.264 . S
Co825 O854 2.286 . S
Co825 O855 2.069 . S
Co825 O857 2.015 . S
Co826 O828 2.122 . S
Co826 O834 2.073 . S
Co826 O835 2.327 . S
Co826 O836 1.976 . S
Co827 O828 2.087 . S
Co827 O830 2.087 . S
Co827 O837 2.111 . S
Co827 O838 2.143 . S
Co827 O842 2.111 . S
Co827 O856 2.143 . S
O828 Co825 2.042 . S
O828 Co826 2.122 . S
O828 Co827 2.087 . S
O828 H829 0.980 . S
H829 O828 0.980 . S
O830 Co827 2.087 . S
O830 Co831 2.042 . S
O830 Co832 2.122 . S
O830 H833 0.980 . S
Co831 O830 2.042 . S
Co831 O839 2.286 . S
Co831 O840 2.069 . S
Co831 O841 2.015 . S
Co831 O844 2.264 . S
Co832 O830 2.122 . S
Co832 O843 1.976 . S
Co832 O844 2.327 . S
Co832 O845 2.073 . S
H833 O830 0.980 . S
O834 Co826 2.073 . S
O834 C849 1.245 . S
O835 Co825 2.264 . S
O835 Co826 2.327 . S
O835 C849 1.257 . S
O836 Co826 1.976 . S
O836 C848 1.251 . S
O837 Co827 2.111 . S
O837 C848 1.274 . S
O838 Co827 2.143 . S
O838 C851 1.246 . S
O839 Co831 2.286 . S
O839 C850 1.259 . S
O840 Co831 2.069 . S
O840 C850 1.289 . S
O841 Co831 2.015 . S
O841 C851 1.257 . S
O842 Co827 2.111 . S
O842 C852 1.274 . S
O843 Co832 1.976 . S
O843 C852 1.251 . S
O844 Co831 2.264 . S
O844 Co832 2.327 . S
O844 C853 1.257 . S
O845 Co832 2.073 . S
O845 C853 1.245 . S
C846 O854 1.259 . S
C846 O855 1.289 . S
C847 O856 1.246 . S
C847 O857 1.257 . S
C848 O836 1.251 . S
C848 O837 1.274 . S
C849 O834 1.245 . S
C849 O835 1.257 . S
C850 O839 1.259 . S
C850 O840 1.289 . S
C851 O838 1.246 . S
C851 O841 1.257 . S
C852 O842 1.274 . S
C852 O843 1.251 . S
C853 O844 1.257 . S
C853 O845 1.245 . S
O854 Co825 2.286 . S
O854 C846 1.259 . S
O855 Co825 2.069 . S
O855 C846 1.289 . S
O856 Co827 2.143 . S
O856 C847 1.246 . S
O857 Co825 2.015 . S
O857 C847 1.257 . S
Co858 O861 2.042 . S
Co858 O868 2.264 . S
Co858 O887 2.286 . S
Co858 O888 2.069 . S
Co858 O890 2.015 . S
Co859 O861 2.122 . S
Co859 O867 2.073 . S
Co859 O868 2.327 . S
Co859 O869 1.976 . S
Co860 O861 2.087 . S
Co860 O863 2.087 . S
Co860 O870 2.111 . S
Co860 O871 2.143 . S
Co860 O875 2.111 . S
Co860 O889 2.143 . S
O861 Co858 2.042 . S
O861 Co859 2.122 . S
O861 Co860 2.087 . S
O861 H862 0.980 . S
H862 O861 0.980 . S
O863 Co860 2.087 . S
O863 Co864 2.042 . S
O863 Co865 2.122 . S
O863 H866 0.980 . S
Co864 O863 2.042 . S
Co864 O872 2.286 . S
Co864 O873 2.069 . S
Co864 O874 2.015 . S
Co864 O877 2.264 . S
Co865 O863 2.122 . S
Co865 O876 1.976 . S
Co865 O877 2.327 . S
Co865 O878 2.073 . S
H866 O863 0.980 . S
O867 Co859 2.073 . S
O867 C882 1.245 . S
O868 Co858 2.264 . S
O868 Co859 2.327 . S
O868 C882 1.257 . S
O869 Co859 1.976 . S
O869 C881 1.251 . S
O870 Co860 2.111 . S
O870 C881 1.274 . S
O871 Co860 2.143 . S
O871 C884 1.246 . S
O872 Co864 2.286 . S
O872 C883 1.259 . S
O873 Co864 2.069 . S
O873 C883 1.289 . S
O874 Co864 2.015 . S
O874 C884 1.257 . S
O875 Co860 2.111 . S
O875 C885 1.274 . S
O876 Co865 1.976 . S
O876 C885 1.251 . S
O877 Co864 2.264 . S
O877 Co865 2.327 . S
O877 C886 1.257 . S
O878 Co865 2.073 . S
O878 C886 1.245 . S
C879 O887 1.259 . S
C879 O888 1.289 . S
C880 O889 1.246 . S
C880 O890 1.257 . S
C881 O869 1.251 . S
C881 O870 1.274 . S
C882 O867 1.245 . S
C882 O868 1.257 . S
C883 O872 1.259 . S
C883 O873 1.289 . S
C884 O871 1.246 . S
C884 O874 1.257 . S
C885 O875 1.274 . S
C885 O876 1.251 . S
C886 O877 1.257 . S
C886 O878 1.245 . S
O887 Co858 2.286 . S
O887 C879 1.259 . S
O888 Co858 2.069 . S
O888 C879 1.289 . S
O889 Co860 2.143 . S
O889 C880 1.246 . S
O890 Co858 2.015 . S
O890 C880 1.257 . S
Co891 O894 2.042 . S
Co891 O901 2.264 . S
Co891 O920 2.286 . S
Co891 O921 2.069 . S
Co891 O923 2.015 . S
Co892 O894 2.122 . S
Co892 O900 2.073 . S
Co892 O901 2.327 . S
Co892 O902 1.976 . S
Co893 O894 2.087 . S
Co893 O896 2.087 . S
Co893 O903 2.111 . S
Co893 O904 2.143 . S
Co893 O908 2.111 . S
Co893 O922 2.143 . S
O894 Co891 2.042 . S
O894 Co892 2.122 . S
O894 Co893 2.087 . S
O894 H895 0.980 . S
H895 O894 0.980 . S
O896 Co893 2.087 . S
O896 Co897 2.042 . S
O896 Co898 2.122 . S
O896 H899 0.980 . S
Co897 O896 2.042 . S
Co897 O905 2.286 . S
Co897 O906 2.069 . S
Co897 O907 2.015 . S
Co897 O910 2.264 . S
Co898 O896 2.122 . S
Co898 O909 1.976 . S
Co898 O910 2.327 . S
Co898 O911 2.073 . S
H899 O896 0.980 . S
O900 Co892 2.073 . S
O900 C915 1.245 . S
O901 Co891 2.264 . S
O901 Co892 2.327 . S
O901 C915 1.257 . S
O902 Co892 1.976 . S
O902 C914 1.251 . S
O903 Co893 2.111 . S
O903 C914 1.274 . S
O904 Co893 2.143 . S
O904 C917 1.246 . S
O905 Co897 2.286 . S
O905 C916 1.259 . S
O906 Co897 2.069 . S
O906 C916 1.289 . S
O907 Co897 2.015 . S
O907 C917 1.257 . S
O908 Co893 2.111 . S
O908 C918 1.274 . S
O909 Co898 1.976 . S
O909 C918 1.251 . S
O910 Co897 2.264 . S
O910 Co898 2.327 . S
O910 C919 1.257 . S
O911 Co898 2.073 . S
O911 C919 1.245 . S
C912 O920 1.259 . S
C912 O921 1.289 . S
C913 O922 1.246 . S
C913 O923 1.257 . S
C914 O902 1.251 . S
C914 O903 1.274 . S
C915 O900 1.245 . S
C915 O901 1.257 . S
C916 O905 1.259 . S
C916 O906 1.289 . S
C917 O904 1.246 . S
C917 O907 1.257 . S
C918 O908 1.274 . S
C918 O909 1.251 . S
C919 O910 1.257 . S
C919 O911 1.245 . S
O920 Co891 2.286 . S
O920 C912 1.259 . S
O921 Co891 2.069 . S
O921 C912 1.289 . S
O922 Co893 2.143 . S
O922 C913 1.246 . S
O923 Co891 2.015 . S
O923 C913 1.257 . S
Co924 O927 2.042 . S
Co924 O934 2.264 . S
Co924 O953 2.286 . S
Co924 O954 2.069 . S
Co924 O956 2.015 . S
Co925 O927 2.122 . S
Co925 O933 2.073 . S
Co925 O934 2.327 . S
Co925 O935 1.976 . S
Co926 O927 2.087 . S
Co926 O929 2.087 . S
Co926 O936 2.111 . S
Co926 O937 2.143 . S
Co926 O941 2.111 . S
Co926 O955 2.143 . S
O927 Co924 2.042 . S
O927 Co925 2.122 . S
O927 Co926 2.087 . S
O927 H928 0.980 . S
H928 O927 0.980 . S
O929 Co926 2.087 . S
O929 Co930 2.042 . S
O929 Co931 2.122 . S
O929 H932 0.980 . S
Co930 O929 2.042 . S
Co930 O938 2.286 . S
Co930 O939 2.069 . S
Co930 O940 2.015 . S
Co930 O943 2.264 . S
Co931 O929 2.122 . S
Co931 O942 1.976 . S
Co931 O943 2.327 . S
Co931 O944 2.073 . S
H932 O929 0.980 . S
O933 Co925 2.073 . S
O933 C948 1.245 . S
O934 Co924 2.264 . S
O934 Co925 2.327 . S
O934 C948 1.257 . S
O935 Co925 1.976 . S
O935 C947 1.251 . S
O936 Co926 2.111 . S
O936 C947 1.274 . S
O937 Co926 2.143 . S
O937 C950 1.246 . S
O938 Co930 2.286 . S
O938 C949 1.259 . S
O939 Co930 2.069 . S
O939 C949 1.289 . S
O940 Co930 2.015 . S
O940 C950 1.257 . S
O941 Co926 2.111 . S
O941 C951 1.274 . S
O942 Co931 1.976 . S
O942 C951 1.251 . S
O943 Co930 2.264 . S
O943 Co931 2.327 . S
O943 C952 1.257 . S
O944 Co931 2.073 . S
O944 C952 1.245 . S
C945 O953 1.259 . S
C945 O954 1.289 . S
C946 O955 1.246 . S
C946 O956 1.257 . S
C947 O935 1.251 . S
C947 O936 1.274 . S
C948 O933 1.245 . S
C948 O934 1.257 . S
C949 O938 1.259 . S
C949 O939 1.289 . S
C950 O937 1.246 . S
C950 O940 1.257 . S
C951 O941 1.274 . S
C951 O942 1.251 . S
C952 O943 1.257 . S
C952 O944 1.245 . S
O953 Co924 2.286 . S
O953 C945 1.259 . S
O954 Co924 2.069 . S
O954 C945 1.289 . S
O955 Co926 2.143 . S
O955 C946 1.246 . S
O956 Co924 2.015 . S
O956 C946 1.257 . S
Co957 O960 2.042 . S
Co957 O967 2.264 . S
Co957 O986 2.286 . S
Co957 O987 2.069 . S
Co957 O989 2.015 . S
Co958 O960 2.122 . S
Co958 O966 2.073 . S
Co958 O967 2.327 . S
Co958 O968 1.976 . S
Co959 O960 2.087 . S
Co959 O962 2.087 . S
Co959 O969 2.111 . S
Co959 O970 2.143 . S
Co959 O974 2.111 . S
Co959 O988 2.143 . S
O960 Co957 2.042 . S
O960 Co958 2.122 . S
O960 Co959 2.087 . S
O960 H961 0.980 . S
H961 O960 0.980 . S
O962 Co959 2.087 . S
O962 Co963 2.042 . S
O962 Co964 2.122 . S
O962 H965 0.980 . S
Co963 O962 2.042 . S
Co963 O971 2.286 . S
Co963 O972 2.069 . S
Co963 O973 2.015 . S
Co963 O976 2.264 . S
Co964 O962 2.122 . S
Co964 O975 1.976 . S
Co964 O976 2.327 . S
Co964 O977 2.073 . S
H965 O962 0.980 . S
O966 Co958 2.073 . S
O966 C981 1.245 . S
O967 Co957 2.264 . S
O967 Co958 2.327 . S
O967 C981 1.257 . S
O968 Co958 1.976 . S
O968 C980 1.251 . S
O969 Co959 2.111 . S
O969 C980 1.274 . S
O970 Co959 2.143 . S
O970 C983 1.246 . S
O971 Co963 2.286 . S
O971 C982 1.259 . S
O972 Co963 2.069 . S
O972 C982 1.289 . S
O973 Co963 2.015 . S
O973 C983 1.257 . S
O974 Co959 2.111 . S
O974 C984 1.274 . S
O975 Co964 1.976 . S
O975 C984 1.251 . S
O976 Co963 2.264 . S
O976 Co964 2.327 . S
O976 C985 1.257 . S
O977 Co964 2.073 . S
O977 C985 1.245 . S
C978 O986 1.259 . S
C978 O987 1.289 . S
C979 O988 1.246 . S
C979 O989 1.257 . S
C980 O968 1.251 . S
C980 O969 1.274 . S
C981 O966 1.245 . S
C981 O967 1.257 . S
C982 O971 1.259 . S
C982 O972 1.289 . S
C983 O970 1.246 . S
C983 O973 1.257 . S
C984 O974 1.274 . S
C984 O975 1.251 . S
C985 O976 1.257 . S
C985 O977 1.245 . S
O986 Co957 2.286 . S
O986 C978 1.259 . S
O987 Co957 2.069 . S
O987 C978 1.289 . S
O988 Co959 2.143 . S
O988 C979 1.246 . S
O989 Co957 2.015 . S
O989 C979 1.257 . S
Co990 O993 2.042 . S
Co990 O1000 2.264 . S
Co990 O1019 2.286 . S
Co990 O1020 2.069 . S
Co990 O1022 2.015 . S
Co991 O993 2.122 . S
Co991 O999 2.073 . S
Co991 O1000 2.327 . S
Co991 O1001 1.976 . S
Co992 O993 2.087 . S
Co992 O995 2.087 . S
Co992 O1002 2.111 . S
Co992 O1003 2.143 . S
Co992 O1007 2.111 . S
Co992 O1021 2.143 . S
O993 Co990 2.042 . S
O993 Co991 2.122 . S
O993 Co992 2.087 . S
O993 H994 0.980 . S
H994 O993 0.980 . S
O995 Co992 2.087 . S
O995 Co996 2.042 . S
O995 Co997 2.122 . S
O995 H998 0.980 . S
Co996 O995 2.042 . S
Co996 O1004 2.286 . S
Co996 O1005 2.069 . S
Co996 O1006 2.015 . S
Co996 O1009 2.264 . S
Co997 O995 2.122 . S
Co997 O1008 1.976 . S
Co997 O1009 2.327 . S
Co997 O1010 2.073 . S
H998 O995 0.980 . S
O999 Co991 2.073 . S
O999 C1014 1.245 . S
O1000 Co990 2.264 . S
O1000 Co991 2.327 . S
O1000 C1014 1.257 . S
O1001 Co991 1.976 . S
O1001 C1013 1.251 . S
O1002 Co992 2.111 . S
O1002 C1013 1.274 . S
O1003 Co992 2.143 . S
O1003 C1016 1.246 . S
O1004 Co996 2.286 . S
O1004 C1015 1.259 . S
O1005 Co996 2.069 . S
O1005 C1015 1.289 . S
O1006 Co996 2.015 . S
O1006 C1016 1.257 . S
O1007 Co992 2.111 . S
O1007 C1017 1.274 . S
O1008 Co997 1.976 . S
O1008 C1017 1.251 . S
O1009 Co996 2.264 . S
O1009 Co997 2.327 . S
O1009 C1018 1.257 . S
O1010 Co997 2.073 . S
O1010 C1018 1.245 . S
C1011 O1019 1.259 . S
C1011 O1020 1.289 . S
C1012 O1021 1.246 . S
C1012 O1022 1.257 . S
C1013 O1001 1.251 . S
C1013 O1002 1.274 . S
C1014 O999 1.245 . S
C1014 O1000 1.257 . S
C1015 O1004 1.259 . S
C1015 O1005 1.289 . S
C1016 O1003 1.246 . S
C1016 O1006 1.257 . S
C1017 O1007 1.274 . S
C1017 O1008 1.251 . S
C1018 O1009 1.257 . S
C1018 O1010 1.245 . S
O1019 Co990 2.286 . S
O1019 C1011 1.259 . S
O1020 Co990 2.069 . S
O1020 C1011 1.289 . S
O1021 Co992 2.143 . S
O1021 C1012 1.246 . S
O1022 Co990 2.015 . S
O1022 C1012 1.257 . S
Co1023 O1026 2.042 . S
Co1023 O1033 2.264 . S
Co1023 O1052 2.286 . S
Co1023 O1053 2.069 . S
Co1023 O1055 2.015 . S
Co1024 O1026 2.122 . S
Co1024 O1032 2.073 . S
Co1024 O1033 2.327 . S
Co1024 O1034 1.976 . S
Co1025 O1026 2.087 . S
Co1025 O1028 2.087 . S
Co1025 O1035 2.111 . S
Co1025 O1036 2.143 . S
Co1025 O1040 2.111 . S
Co1025 O1054 2.143 . S
O1026 Co1023 2.042 . S
O1026 Co1024 2.122 . S
O1026 Co1025 2.087 . S
O1026 H1027 0.980 . S
H1027 O1026 0.980 . S
O1028 Co1025 2.087 . S
O1028 Co1029 2.042 . S
O1028 Co1030 2.122 . S
O1028 H1031 0.980 . S
Co1029 O1028 2.042 . S
Co1029 O1037 2.286 . S
Co1029 O1038 2.069 . S
Co1029 O1039 2.015 . S
Co1029 O1042 2.264 . S
Co1030 O1028 2.122 . S
Co1030 O1041 1.976 . S
Co1030 O1042 2.327 . S
Co1030 O1043 2.073 . S
H1031 O1028 0.980 . S
O1032 Co1024 2.073 . S
O1032 C1047 1.245 . S
O1033 Co1023 2.264 . S
O1033 Co1024 2.327 . S
O1033 C1047 1.257 . S
O1034 Co1024 1.976 . S
O1034 C1046 1.251 . S
O1035 Co1025 2.111 . S
O1035 C1046 1.274 . S
O1036 Co1025 2.143 . S
O1036 C1049 1.246 . S
O1037 Co1029 2.286 . S
O1037 C1048 1.259 . S
O1038 Co1029 2.069 . S
O1038 C1048 1.289 . S
O1039 Co1029 2.015 . S
O1039 C1049 1.257 . S
O1040 Co1025 2.111 . S
O1040 C1050 1.274 . S
O1041 Co1030 1.976 . S
O1041 C1050 1.251 . S
O1042 Co1029 2.264 . S
O1042 Co1030 2.327 . S
O1042 C1051 1.257 . S
O1043 Co1030 2.073 . S
O1043 C1051 1.245 . S
C1044 O1052 1.259 . S
C1044 O1053 1.289 . S
C1045 O1054 1.246 . S
C1045 O1055 1.257 . S
C1046 O1034 1.251 . S
C1046 O1035 1.274 . S
C1047 O1032 1.245 . S
C1047 O1033 1.257 . S
C1048 O1037 1.259 . S
C1048 O1038 1.289 . S
C1049 O1036 1.246 . S
C1049 O1039 1.257 . S
C1050 O1040 1.274 . S
C1050 O1041 1.251 . S
C1051 O1042 1.257 . S
C1051 O1043 1.245 . S
O1052 Co1023 2.286 . S
O1052 C1044 1.259 . S
O1053 Co1023 2.069 . S
O1053 C1044 1.289 . S
O1054 Co1025 2.143 . S
O1054 C1045 1.246 . S
O1055 Co1023 2.015 . S
O1055 C1045 1.257 . S
Co1056 O1059 2.042 . S
Co1056 O1066 2.264 . S
Co1056 O1085 2.286 . S
Co1056 O1086 2.069 . S
Co1056 O1088 2.015 . S
Co1057 O1059 2.122 . S
Co1057 O1065 2.073 . S
Co1057 O1066 2.327 . S
Co1057 O1067 1.976 . S
Co1058 O1059 2.087 . S
Co1058 O1061 2.087 . S
Co1058 O1068 2.111 . S
Co1058 O1069 2.143 . S
Co1058 O1073 2.111 . S
Co1058 O1087 2.143 . S
O1059 Co1056 2.042 . S
O1059 Co1057 2.122 . S
O1059 Co1058 2.087 . S
O1059 H1060 0.980 . S
H1060 O1059 0.980 . S
O1061 Co1058 2.087 . S
O1061 Co1062 2.042 . S
O1061 Co1063 2.122 . S
O1061 H1064 0.980 . S
Co1062 O1061 2.042 . S
Co1062 O1070 2.286 . S
Co1062 O1071 2.069 . S
Co1062 O1072 2.015 . S
Co1062 O1075 2.264 . S
Co1063 O1061 2.122 . S
Co1063 O1074 1.976 . S
Co1063 O1075 2.327 . S
Co1063 O1076 2.073 . S
H1064 O1061 0.980 . S
O1065 Co1057 2.073 . S
O1065 C1080 1.245 . S
O1066 Co1056 2.264 . S
O1066 Co1057 2.327 . S
O1066 C1080 1.257 . S
O1067 Co1057 1.976 . S
O1067 C1079 1.251 . S
O1068 Co1058 2.111 . S
O1068 C1079 1.274 . S
O1069 Co1058 2.143 . S
O1069 C1082 1.246 . S
O1070 Co1062 2.286 . S
O1070 C1081 1.259 . S
O1071 Co1062 2.069 . S
O1071 C1081 1.289 . S
O1072 Co1062 2.015 . S
O1072 C1082 1.257 . S
O1073 Co1058 2.111 . S
O1073 C1083 1.274 . S
O1074 Co1063 1.976 . S
O1074 C1083 1.251 . S
O1075 Co1062 2.264 . S
O1075 Co1063 2.327 . S
O1075 C1084 1.257 . S
O1076 Co1063 2.073 . S
O1076 C1084 1.245 . S
C1077 O1085 1.259 . S
C1077 O1086 1.289 . S
C1078 O1087 1.246 . S
C1078 O1088 1.257 . S
C1079 O1067 1.251 . S
C1079 O1068 1.274 . S
C1080 O1065 1.245 . S
C1080 O1066 1.257 . S
C1081 O1070 1.259 . S
C1081 O1071 1.289 . S
C1082 O1069 1.246 . S
C1082 O1072 1.257 . S
C1083 O1073 1.274 . S
C1083 O1074 1.251 . S
C1084 O1075 1.257 . S
C1084 O1076 1.245 . S
O1085 Co1056 2.286 . S
O1085 C1077 1.259 . S
O1086 Co1056 2.069 . S
O1086 C1077 1.289 . S
O1087 Co1058 2.143 . S
O1087 C1078 1.246 . S
O1088 Co1056 2.015 . S
O1088 C1078 1.257 . S
Co1089 O1092 2.042 . S
Co1089 O1099 2.264 . S
Co1089 O1118 2.286 . S
Co1089 O1119 2.069 . S
Co1089 O1121 2.015 . S
Co1090 O1092 2.122 . S
Co1090 O1098 2.073 . S
Co1090 O1099 2.327 . S
Co1090 O1100 1.976 . S
Co1091 O1092 2.087 . S
Co1091 O1094 2.087 . S
Co1091 O1101 2.111 . S
Co1091 O1102 2.143 . S
Co1091 O1106 2.111 . S
Co1091 O1120 2.143 . S
O1092 Co1089 2.042 . S
O1092 Co1090 2.122 . S
O1092 Co1091 2.087 . S
O1092 H1093 0.980 . S
H1093 O1092 0.980 . S
O1094 Co1091 2.087 . S
O1094 Co1095 2.042 . S
O1094 Co1096 2.122 . S
O1094 H1097 0.980 . S
Co1095 O1094 2.042 . S
Co1095 O1103 2.286 . S
Co1095 O1104 2.069 . S
Co1095 O1105 2.015 . S
Co1095 O1108 2.264 . S
Co1096 O1094 2.122 . S
Co1096 O1107 1.976 . S
Co1096 O1108 2.327 . S
Co1096 O1109 2.073 . S
H1097 O1094 0.980 . S
O1098 Co1090 2.073 . S
O1098 C1113 1.245 . S
O1099 Co1089 2.264 . S
O1099 Co1090 2.327 . S
O1099 C1113 1.257 . S
O1100 Co1090 1.976 . S
O1100 C1112 1.251 . S
O1101 Co1091 2.111 . S
O1101 C1112 1.274 . S
O1102 Co1091 2.143 . S
O1102 C1115 1.246 . S
O1103 Co1095 2.286 . S
O1103 C1114 1.259 . S
O1104 Co1095 2.069 . S
O1104 C1114 1.289 . S
O1105 Co1095 2.015 . S
O1105 C1115 1.257 . S
O1106 Co1091 2.111 . S
O1106 C1116 1.274 . S
O1107 Co1096 1.976 . S
O1107 C1116 1.251 . S
O1108 Co1095 2.264 . S
O1108 Co1096 2.327 . S
O1108 C1117 1.257 . S
O1109 Co1096 2.073 . S
O1109 C1117 1.245 . S
C1110 O1118 1.259 . S
C1110 O1119 1.289 . S
C1111 O1120 1.246 . S
C1111 O1121 1.257 . S
C1112 O1100 1.251 . S
C1112 O1101 1.274 . S
C1113 O1098 1.245 . S
C1113 O1099 1.257 . S
C1114 O1103 1.259 . S
C1114 O1104 1.289 . S
C1115 O1102 1.246 . S
C1115 O1105 1.257 . S
C1116 O1106 1.274 . S
C1116 O1107 1.251 . S
C1117 O1108 1.257 . S
C1117 O1109 1.245 . S
O1118 Co1089 2.286 . S
O1118 C1110 1.259 . S
O1119 Co1089 2.069 . S
O1119 C1110 1.289 . S
O1120 Co1091 2.143 . S
O1120 C1111 1.246 . S
O1121 Co1089 2.015 . S
O1121 C1111 1.257 . S
Co1122 O1125 2.042 . S
Co1122 O1132 2.264 . S
Co1122 O1151 2.286 . S
Co1122 O1152 2.069 . S
Co1122 O1154 2.015 . S
Co1123 O1125 2.122 . S
Co1123 O1131 2.073 . S
Co1123 O1132 2.327 . S
Co1123 O1133 1.976 . S
Co1124 O1125 2.087 . S
Co1124 O1127 2.087 . S
Co1124 O1134 2.111 . S
Co1124 O1135 2.143 . S
Co1124 O1139 2.111 . S
Co1124 O1153 2.143 . S
O1125 Co1122 2.042 . S
O1125 Co1123 2.122 . S
O1125 Co1124 2.087 . S
O1125 H1126 0.980 . S
H1126 O1125 0.980 . S
O1127 Co1124 2.087 . S
O1127 Co1128 2.042 . S
O1127 Co1129 2.122 . S
O1127 H1130 0.980 . S
Co1128 O1127 2.042 . S
Co1128 O1136 2.286 . S
Co1128 O1137 2.069 . S
Co1128 O1138 2.015 . S
Co1128 O1141 2.264 . S
Co1129 O1127 2.122 . S
Co1129 O1140 1.976 . S
Co1129 O1141 2.327 . S
Co1129 O1142 2.073 . S
H1130 O1127 0.980 . S
O1131 Co1123 2.073 . S
O1131 C1146 1.245 . S
O1132 Co1122 2.264 . S
O1132 Co1123 2.327 . S
O1132 C1146 1.257 . S
O1133 Co1123 1.976 . S
O1133 C1145 1.251 . S
O1134 Co1124 2.111 . S
O1134 C1145 1.274 . S
O1135 Co1124 2.143 . S
O1135 C1148 1.246 . S
O1136 Co1128 2.286 . S
O1136 C1147 1.259 . S
O1137 Co1128 2.069 . S
O1137 C1147 1.289 . S
O1138 Co1128 2.015 . S
O1138 C1148 1.257 . S
O1139 Co1124 2.111 . S
O1139 C1149 1.274 . S
O1140 Co1129 1.976 . S
O1140 C1149 1.251 . S
O1141 Co1128 2.264 . S
O1141 Co1129 2.327 . S
O1141 C1150 1.257 . S
O1142 Co1129 2.073 . S
O1142 C1150 1.245 . S
C1143 O1151 1.259 . S
C1143 O1152 1.289 . S
C1144 O1153 1.246 . S
C1144 O1154 1.257 . S
C1145 O1133 1.251 . S
C1145 O1134 1.274 . S
C1146 O1131 1.245 . S
C1146 O1132 1.257 . S
C1147 O1136 1.259 . S
C1147 O1137 1.289 . S
C1148 O1135 1.246 . S
C1148 O1138 1.257 . S
C1149 O1139 1.274 . S
C1149 O1140 1.251 . S
C1150 O1141 1.257 . S
C1150 O1142 1.245 . S
O1151 Co1122 2.286 . S
O1151 C1143 1.259 . S
O1152 Co1122 2.069 . S
O1152 C1143 1.289 . S
O1153 Co1124 2.143 . S
O1153 C1144 1.246 . S
O1154 Co1122 2.015 . S
O1154 C1144 1.257 . S
Co1155 O1158 2.042 . S
Co1155 O1165 2.264 . S
Co1155 O1184 2.286 . S
Co1155 O1185 2.069 . S
Co1155 O1187 2.015 . S
Co1156 O1158 2.122 . S
Co1156 O1164 2.073 . S
Co1156 O1165 2.327 . S
Co1156 O1166 1.976 . S
Co1157 O1158 2.087 . S
Co1157 O1160 2.087 . S
Co1157 O1167 2.111 . S
Co1157 O1168 2.143 . S
Co1157 O1172 2.111 . S
Co1157 O1186 2.143 . S
O1158 Co1155 2.042 . S
O1158 Co1156 2.122 . S
O1158 Co1157 2.087 . S
O1158 H1159 0.980 . S
H1159 O1158 0.980 . S
O1160 Co1157 2.087 . S
O1160 Co1161 2.042 . S
O1160 Co1162 2.122 . S
O1160 H1163 0.980 . S
Co1161 O1160 2.042 . S
Co1161 O1169 2.286 . S
Co1161 O1170 2.069 . S
Co1161 O1171 2.015 . S
Co1161 O1174 2.264 . S
Co1162 O1160 2.122 . S
Co1162 O1173 1.976 . S
Co1162 O1174 2.327 . S
Co1162 O1175 2.073 . S
H1163 O1160 0.980 . S
O1164 Co1156 2.073 . S
O1164 C1179 1.245 . S
O1165 Co1155 2.264 . S
O1165 Co1156 2.327 . S
O1165 C1179 1.257 . S
O1166 Co1156 1.976 . S
O1166 C1178 1.251 . S
O1167 Co1157 2.111 . S
O1167 C1178 1.274 . S
O1168 Co1157 2.143 . S
O1168 C1181 1.246 . S
O1169 Co1161 2.286 . S
O1169 C1180 1.259 . S
O1170 Co1161 2.069 . S
O1170 C1180 1.289 . S
O1171 Co1161 2.015 . S
O1171 C1181 1.257 . S
O1172 Co1157 2.111 . S
O1172 C1182 1.274 . S
O1173 Co1162 1.976 . S
O1173 C1182 1.251 . S
O1174 Co1161 2.264 . S
O1174 Co1162 2.327 . S
O1174 C1183 1.257 . S
O1175 Co1162 2.073 . S
O1175 C1183 1.245 . S
C1176 O1184 1.259 . S
C1176 O1185 1.289 . S
C1177 O1186 1.246 . S
C1177 O1187 1.257 . S
C1178 O1166 1.251 . S
C1178 O1167 1.274 . S
C1179 O1164 1.245 . S
C1179 O1165 1.257 . S
C1180 O1169 1.259 . S
C1180 O1170 1.289 . S
C1181 O1168 1.246 . S
C1181 O1171 1.257 . S
C1182 O1172 1.274 . S
C1182 O1173 1.251 . S
C1183 O1174 1.257 . S
C1183 O1175 1.245 . S
O1184 Co1155 2.286 . S
O1184 C1176 1.259 . S
O1185 Co1155 2.069 . S
O1185 C1176 1.289 . S
O1186 Co1157 2.143 . S
O1186 C1177 1.246 . S
O1187 Co1155 2.015 . S
O1187 C1177 1.257 . S
Co1188 O1191 2.042 . S
Co1188 O1198 2.264 . S
Co1188 O1217 2.286 . S
Co1188 O1218 2.069 . S
Co1188 O1220 2.015 . S
Co1189 O1191 2.122 . S
Co1189 O1197 2.073 . S
Co1189 O1198 2.327 . S
Co1189 O1199 1.976 . S
Co1190 O1191 2.087 . S
Co1190 O1193 2.087 . S
Co1190 O1200 2.111 . S
Co1190 O1201 2.143 . S
Co1190 O1205 2.111 . S
Co1190 O1219 2.143 . S
O1191 Co1188 2.042 . S
O1191 Co1189 2.122 . S
O1191 Co1190 2.087 . S
O1191 H1192 0.980 . S
H1192 O1191 0.980 . S
O1193 Co1190 2.087 . S
O1193 Co1194 2.042 . S
O1193 Co1195 2.122 . S
O1193 H1196 0.980 . S
Co1194 O1193 2.042 . S
Co1194 O1202 2.286 . S
Co1194 O1203 2.069 . S
Co1194 O1204 2.015 . S
Co1194 O1207 2.264 . S
Co1195 O1193 2.122 . S
Co1195 O1206 1.976 . S
Co1195 O1207 2.327 . S
Co1195 O1208 2.073 . S
H1196 O1193 0.980 . S
O1197 Co1189 2.073 . S
O1197 C1212 1.245 . S
O1198 Co1188 2.264 . S
O1198 Co1189 2.327 . S
O1198 C1212 1.257 . S
O1199 Co1189 1.976 . S
O1199 C1211 1.251 . S
O1200 Co1190 2.111 . S
O1200 C1211 1.274 . S
O1201 Co1190 2.143 . S
O1201 C1214 1.246 . S
O1202 Co1194 2.286 . S
O1202 C1213 1.259 . S
O1203 Co1194 2.069 . S
O1203 C1213 1.289 . S
O1204 Co1194 2.015 . S
O1204 C1214 1.257 . S
O1205 Co1190 2.111 . S
O1205 C1215 1.274 . S
O1206 Co1195 1.976 . S
O1206 C1215 1.251 . S
O1207 Co1194 2.264 . S
O1207 Co1195 2.327 . S
O1207 C1216 1.257 . S
O1208 Co1195 2.073 . S
O1208 C1216 1.245 . S
C1209 O1217 1.259 . S
C1209 O1218 1.289 . S
C1210 O1219 1.246 . S
C1210 O1220 1.257 . S
C1211 O1199 1.251 . S
C1211 O1200 1.274 . S
C1212 O1197 1.245 . S
C1212 O1198 1.257 . S
C1213 O1202 1.259 . S
C1213 O1203 1.289 . S
C1214 O1201 1.246 . S
C1214 O1204 1.257 . S
C1215 O1205 1.274 . S
C1215 O1206 1.251 . S
C1216 O1207 1.257 . S
C1216 O1208 1.245 . S
O1217 Co1188 2.286 . S
O1217 C1209 1.259 . S
O1218 Co1188 2.069 . S
O1218 C1209 1.289 . S
O1219 Co1190 2.143 . S
O1219 C1210 1.246 . S
O1220 Co1188 2.015 . S
O1220 C1210 1.257 . S
Co1221 O1224 2.042 . S
Co1221 O1231 2.264 . S
Co1221 O1250 2.286 . S
Co1221 O1251 2.069 . S
Co1221 O1253 2.015 . S
Co1222 O1224 2.122 . S
Co1222 O1230 2.073 . S
Co1222 O1231 2.327 . S
Co1222 O1232 1.976 . S
Co1223 O1224 2.087 . S
Co1223 O1226 2.087 . S
Co1223 O1233 2.111 . S
Co1223 O1234 2.143 . S
Co1223 O1238 2.111 . S
Co1223 O1252 2.143 . S
O1224 Co1221 2.042 . S
O1224 Co1222 2.122 . S
O1224 Co1223 2.087 . S
O1224 H1225 0.980 . S
H1225 O1224 0.980 . S
O1226 Co1223 2.087 . S
O1226 Co1227 2.042 . S
O1226 Co1228 2.122 . S
O1226 H1229 0.980 . S
Co1227 O1226 2.042 . S
Co1227 O1235 2.286 . S
Co1227 O1236 2.069 . S
Co1227 O1237 2.015 . S
Co1227 O1240 2.264 . S
Co1228 O1226 2.122 . S
Co1228 O1239 1.976 . S
Co1228 O1240 2.327 . S
Co1228 O1241 2.073 . S
H1229 O1226 0.980 . S
O1230 Co1222 2.073 . S
O1230 C1245 1.245 . S
O1231 Co1221 2.264 . S
O1231 Co1222 2.327 . S
O1231 C1245 1.257 . S
O1232 Co1222 1.976 . S
O1232 C1244 1.251 . S
O1233 Co1223 2.111 . S
O1233 C1244 1.274 . S
O1234 Co1223 2.143 . S
O1234 C1247 1.246 . S
O1235 Co1227 2.286 . S
O1235 C1246 1.259 . S
O1236 Co1227 2.069 . S
O1236 C1246 1.289 . S
O1237 Co1227 2.015 . S
O1237 C1247 1.257 . S
O1238 Co1223 2.111 . S
O1238 C1248 1.274 . S
O1239 Co1228 1.976 . S
O1239 C1248 1.251 . S
O1240 Co1227 2.264 . S
O1240 Co1228 2.327 . S
O1240 C1249 1.257 . S
O1241 Co1228 2.073 . S
O1241 C1249 1.245 . S
C1242 O1250 1.259 . S
C1242 O1251 1.289 . S
C1243 O1252 1.246 . S
C1243 O1253 1.257 . S
C1244 O1232 1.251 . S
C1244 O1233 1.274 . S
C1245 O1230 1.245 . S
C1245 O1231 1.257 . S
C1246 O1235 1.259 . S
C1246 O1236 1.289 . S
C1247 O1234 1.246 . S
C1247 O1237 1.257 . S
C1248 O1238 1.274 . S
C1248 O1239 1.251 . S
C1249 O1240 1.257 . S
C1249 O1241 1.245 . S
O1250 Co1221 2.286 . S
O1250 C1242 1.259 . S
O1251 Co1221 2.069 . S
O1251 C1242 1.289 . S
O1252 Co1223 2.143 . S
O1252 C1243 1.246 . S
O1253 Co1221 2.015 . S
O1253 C1243 1.257 . S
Co1254 O1257 2.042 . S
Co1254 O1264 2.264 . S
Co1254 O1283 2.286 . S
Co1254 O1284 2.069 . S
Co1254 O1286 2.015 . S
Co1255 O1257 2.122 . S
Co1255 O1263 2.073 . S
Co1255 O1264 2.327 . S
Co1255 O1265 1.976 . S
Co1256 O1257 2.087 . S
Co1256 O1259 2.087 . S
Co1256 O1266 2.111 . S
Co1256 O1267 2.143 . S
Co1256 O1271 2.111 . S
Co1256 O1285 2.143 . S
O1257 Co1254 2.042 . S
O1257 Co1255 2.122 . S
O1257 Co1256 2.087 . S
O1257 H1258 0.980 . S
H1258 O1257 0.980 . S
O1259 Co1256 2.087 . S
O1259 Co1260 2.042 . S
O1259 Co1261 2.122 . S
O1259 H1262 0.980 . S
Co1260 O1259 2.042 . S
Co1260 O1268 2.286 . S
Co1260 O1269 2.069 . S
Co1260 O1270 2.015 . S
Co1260 O1273 2.264 . S
Co1261 O1259 2.122 . S
Co1261 O1272 1.976 . S
Co1261 O1273 2.327 . S
Co1261 O1274 2.073 . S
H1262 O1259 0.980 . S
O1263 Co1255 2.073 . S
O1263 C1278 1.245 . S
O1264 Co1254 2.264 . S
O1264 Co1255 2.327 . S
O1264 C1278 1.257 . S
O1265 Co1255 1.976 . S
O1265 C1277 1.251 . S
O1266 Co1256 2.111 . S
O1266 C1277 1.274 . S
O1267 Co1256 2.143 . S
O1267 C1280 1.246 . S
O1268 Co1260 2.286 . S
O1268 C1279 1.259 . S
O1269 Co1260 2.069 . S
O1269 C1279 1.289 . S
O1270 Co1260 2.015 . S
O1270 C1280 1.257 . S
O1271 Co1256 2.111 . S
O1271 C1281 1.274 . S
O1272 Co1261 1.976 . S
O1272 C1281 1.251 . S
O1273 Co1260 2.264 . S
O1273 Co1261 2.327 . S
O1273 C1282 1.257 . S
O1274 Co1261 2.073 . S
O1274 C1282 1.245 . S
C1275 O1283 1.259 . S
C1275 O1284 1.289 . S
C1276 O1285 1.246 . S
C1276 O1286 1.257 . S
C1277 O1265 1.251 . S
C1277 O1266 1.274 . S
C1278 O1263 1.245 . S
C1278 O1264 1.257 . S
C1279 O1268 1.259 . S
C1279 O1269 1.289 . S
C1280 O1267 1.246 . S
C1280 O1270 1.257 . S
C1281 O1271 1.274 . S
C1281 O1272 1.251 . S
C1282 O1273 1.257 . S
C1282 O1274 1.245 . S
O1283 Co1254 2.286 . S
O1283 C1275 1.259 . S
O1284 Co1254 2.069 . S
O1284 C1275 1.289 . S
O1285 Co1256 2.143 . S
O1285 C1276 1.246 . S
O1286 Co1254 2.015 . S
O1286 C1276 1.257 . S
Co1287 O1290 2.042 . S
Co1287 O1297 2.264 . S
Co1287 O1316 2.286 . S
Co1287 O1317 2.069 . S
Co1287 O1319 2.015 . S
Co1288 O1290 2.122 . S
Co1288 O1296 2.073 . S
Co1288 O1297 2.327 . S
Co1288 O1298 1.976 . S
Co1289 O1290 2.087 . S
Co1289 O1292 2.087 . S
Co1289 O1299 2.111 . S
Co1289 O1300 2.143 . S
Co1289 O1304 2.111 . S
Co1289 O1318 2.143 . S
O1290 Co1287 2.042 . S
O1290 Co1288 2.122 . S
O1290 Co1289 2.087 . S
O1290 H1291 0.980 . S
H1291 O1290 0.980 . S
O1292 Co1289 2.087 . S
O1292 Co1293 2.042 . S
O1292 Co1294 2.122 . S
O1292 H1295 0.980 . S
Co1293 O1292 2.042 . S
Co1293 O1301 2.286 . S
Co1293 O1302 2.069 . S
Co1293 O1303 2.015 . S
Co1293 O1306 2.264 . S
Co1294 O1292 2.122 . S
Co1294 O1305 1.976 . S
Co1294 O1306 2.327 . S
Co1294 O1307 2.073 . S
H1295 O1292 0.980 . S
O1296 Co1288 2.073 . S
O1296 C1311 1.245 . S
O1297 Co1287 2.264 . S
O1297 Co1288 2.327 . S
O1297 C1311 1.257 . S
O1298 Co1288 1.976 . S
O1298 C1310 1.251 . S
O1299 Co1289 2.111 . S
O1299 C1310 1.274 . S
O1300 Co1289 2.143 . S
O1300 C1313 1.246 . S
O1301 Co1293 2.286 . S
O1301 C1312 1.259 . S
O1302 Co1293 2.069 . S
O1302 C1312 1.289 . S
O1303 Co1293 2.015 . S
O1303 C1313 1.257 . S
O1304 Co1289 2.111 . S
O1304 C1314 1.274 . S
O1305 Co1294 1.976 . S
O1305 C1314 1.251 . S
O1306 Co1293 2.264 . S
O1306 Co1294 2.327 . S
O1306 C1315 1.257 . S
O1307 Co1294 2.073 . S
O1307 C1315 1.245 . S
C1308 O1316 1.259 . S
C1308 O1317 1.289 . S
C1309 O1318 1.246 . S
C1309 O1319 1.257 . S
C1310 O1298 1.251 . S
C1310 O1299 1.274 . S
C1311 O1296 1.245 . S
C1311 O1297 1.257 . S
C1312 O1301 1.259 . S
C1312 O1302 1.289 . S
C1313 O1300 1.246 . S
C1313 O1303 1.257 . S
C1314 O1304 1.274 . S
C1314 O1305 1.251 . S
C1315 O1306 1.257 . S
C1315 O1307 1.245 . S
O1316 Co1287 2.286 . S
O1316 C1308 1.259 . S
O1317 Co1287 2.069 . S
O1317 C1308 1.289 . S
O1318 Co1289 2.143 . S
O1318 C1309 1.246 . S
O1319 Co1287 2.015 . S
O1319 C1309 1.257 . S
Co1320 O1323 2.042 . S
Co1320 O1330 2.264 . S
Co1320 O1349 2.286 . S
Co1320 O1350 2.069 . S
Co1320 O1352 2.015 . S
Co1321 O1323 2.122 . S
Co1321 O1329 2.073 . S
Co1321 O1330 2.327 . S
Co1321 O1331 1.976 . S
Co1322 O1323 2.087 . S
Co1322 O1325 2.087 . S
Co1322 O1332 2.111 . S
Co1322 O1333 2.143 . S
Co1322 O1337 2.111 . S
Co1322 O1351 2.143 . S
O1323 Co1320 2.042 . S
O1323 Co1321 2.122 . S
O1323 Co1322 2.087 . S
O1323 H1324 0.980 . S
H1324 O1323 0.980 . S
O1325 Co1322 2.087 . S
O1325 Co1326 2.042 . S
O1325 Co1327 2.122 . S
O1325 H1328 0.980 . S
Co1326 O1325 2.042 . S
Co1326 O1334 2.286 . S
Co1326 O1335 2.069 . S
Co1326 O1336 2.015 . S
Co1326 O1339 2.264 . S
Co1327 O1325 2.122 . S
Co1327 O1338 1.976 . S
Co1327 O1339 2.327 . S
Co1327 O1340 2.073 . S
H1328 O1325 0.980 . S
O1329 Co1321 2.073 . S
O1329 C1344 1.245 . S
O1330 Co1320 2.264 . S
O1330 Co1321 2.327 . S
O1330 C1344 1.257 . S
O1331 Co1321 1.976 . S
O1331 C1343 1.251 . S
O1332 Co1322 2.111 . S
O1332 C1343 1.274 . S
O1333 Co1322 2.143 . S
O1333 C1346 1.246 . S
O1334 Co1326 2.286 . S
O1334 C1345 1.259 . S
O1335 Co1326 2.069 . S
O1335 C1345 1.289 . S
O1336 Co1326 2.015 . S
O1336 C1346 1.257 . S
O1337 Co1322 2.111 . S
O1337 C1347 1.274 . S
O1338 Co1327 1.976 . S
O1338 C1347 1.251 . S
O1339 Co1326 2.264 . S
O1339 Co1327 2.327 . S
O1339 C1348 1.257 . S
O1340 Co1327 2.073 . S
O1340 C1348 1.245 . S
C1341 O1349 1.259 . S
C1341 O1350 1.289 . S
C1342 O1351 1.246 . S
C1342 O1352 1.257 . S
C1343 O1331 1.251 . S
C1343 O1332 1.274 . S
C1344 O1329 1.245 . S
C1344 O1330 1.257 . S
C1345 O1334 1.259 . S
C1345 O1335 1.289 . S
C1346 O1333 1.246 . S
C1346 O1336 1.257 . S
C1347 O1337 1.274 . S
C1347 O1338 1.251 . S
C1348 O1339 1.257 . S
C1348 O1340 1.245 . S
O1349 Co1320 2.286 . S
O1349 C1341 1.259 . S
O1350 Co1320 2.069 . S
O1350 C1341 1.289 . S
O1351 Co1322 2.143 . S
O1351 C1342 1.246 . S
O1352 Co1320 2.015 . S
O1352 C1342 1.257 . S
Co1353 O1356 2.042 . S
Co1353 O1363 2.264 . S
Co1353 O1382 2.286 . S
Co1353 O1383 2.069 . S
Co1353 O1385 2.015 . S
Co1354 O1356 2.122 . S
Co1354 O1362 2.073 . S
Co1354 O1363 2.327 . S
Co1354 O1364 1.976 . S
Co1355 O1356 2.087 . S
Co1355 O1358 2.087 . S
Co1355 O1365 2.111 . S
Co1355 O1366 2.143 . S
Co1355 O1370 2.111 . S
Co1355 O1384 2.143 . S
O1356 Co1353 2.042 . S
O1356 Co1354 2.122 . S
O1356 Co1355 2.087 . S
O1356 H1357 0.980 . S
H1357 O1356 0.980 . S
O1358 Co1355 2.087 . S
O1358 Co1359 2.042 . S
O1358 Co1360 2.122 . S
O1358 H1361 0.980 . S
Co1359 O1358 2.042 . S
Co1359 O1367 2.286 . S
Co1359 O1368 2.069 . S
Co1359 O1369 2.015 . S
Co1359 O1372 2.264 . S
Co1360 O1358 2.122 . S
Co1360 O1371 1.976 . S
Co1360 O1372 2.327 . S
Co1360 O1373 2.073 . S
H1361 O1358 0.980 . S
O1362 Co1354 2.073 . S
O1362 C1377 1.245 . S
O1363 Co1353 2.264 . S
O1363 Co1354 2.327 . S
O1363 C1377 1.257 . S
O1364 Co1354 1.976 . S
O1364 C1376 1.251 . S
O1365 Co1355 2.111 . S
O1365 C1376 1.274 . S
O1366 Co1355 2.143 . S
O1366 C1379 1.246 . S
O1367 Co1359 2.286 . S
O1367 C1378 1.259 . S
O1368 Co1359 2.069 . S
O1368 C1378 1.289 . S
O1369 Co1359 2.015 . S
O1369 C1379 1.257 . S
O1370 Co1355 2.111 . S
O1370 C1380 1.274 . S
O1371 Co1360 1.976 . S
O1371 C1380 1.251 . S
O1372 Co1359 2.264 . S
O1372 Co1360 2.327 . S
O1372 C1381 1.257 . S
O1373 Co1360 2.073 . S
O1373 C1381 1.245 . S
C1374 O1382 1.259 . S
C1374 O1383 1.289 . S
C1375 O1384 1.246 . S
C1375 O1385 1.257 . S
C1376 O1364 1.251 . S
C1376 O1365 1.274 . S
C1377 O1362 1.245 . S
C1377 O1363 1.257 . S
C1378 O1367 1.259 . S
C1378 O1368 1.289 . S
C1379 O1366 1.246 . S
C1379 O1369 1.257 . S
C1380 O1370 1.274 . S
C1380 O1371 1.251 . S
C1381 O1372 1.257 . S
C1381 O1373 1.245 . S
O1382 Co1353 2.286 . S
O1382 C1374 1.259 . S
O1383 Co1353 2.069 . S
O1383 C1374 1.289 . S
O1384 Co1355 2.143 . S
O1384 C1375 1.246 . S
O1385 Co1353 2.015 . S
O1385 C1375 1.257 . S
Co1386 O1389 2.042 . S
Co1386 O1396 2.264 . S
Co1386 O1415 2.286 . S
Co1386 O1416 2.069 . S
Co1386 O1418 2.015 . S
Co1387 O1389 2.122 . S
Co1387 O1395 2.073 . S
Co1387 O1396 2.327 . S
Co1387 O1397 1.976 . S
Co1388 O1389 2.087 . S
Co1388 O1391 2.087 . S
Co1388 O1398 2.111 . S
Co1388 O1399 2.143 . S
Co1388 O1403 2.111 . S
Co1388 O1417 2.143 . S
O1389 Co1386 2.042 . S
O1389 Co1387 2.122 . S
O1389 Co1388 2.087 . S
O1389 H1390 0.980 . S
H1390 O1389 0.980 . S
O1391 Co1388 2.087 . S
O1391 Co1392 2.042 . S
O1391 Co1393 2.122 . S
O1391 H1394 0.980 . S
Co1392 O1391 2.042 . S
Co1392 O1400 2.286 . S
Co1392 O1401 2.069 . S
Co1392 O1402 2.015 . S
Co1392 O1405 2.264 . S
Co1393 O1391 2.122 . S
Co1393 O1404 1.976 . S
Co1393 O1405 2.327 . S
Co1393 O1406 2.073 . S
H1394 O1391 0.980 . S
O1395 Co1387 2.073 . S
O1395 C1410 1.245 . S
O1396 Co1386 2.264 . S
O1396 Co1387 2.327 . S
O1396 C1410 1.257 . S
O1397 Co1387 1.976 . S
O1397 C1409 1.251 . S
O1398 Co1388 2.111 . S
O1398 C1409 1.274 . S
O1399 Co1388 2.143 . S
O1399 C1412 1.246 . S
O1400 Co1392 2.286 . S
O1400 C1411 1.259 . S
O1401 Co1392 2.069 . S
O1401 C1411 1.289 . S
O1402 Co1392 2.015 . S
O1402 C1412 1.257 . S
O1403 Co1388 2.111 . S
O1403 C1413 1.274 . S
O1404 Co1393 1.976 . S
O1404 C1413 1.251 . S
O1405 Co1392 2.264 . S
O1405 Co1393 2.327 . S
O1405 C1414 1.257 . S
O1406 Co1393 2.073 . S
O1406 C1414 1.245 . S
C1407 O1415 1.259 . S
C1407 O1416 1.289 . S
C1408 O1417 1.246 . S
C1408 O1418 1.257 . S
C1409 O1397 1.251 . S
C1409 O1398 1.274 . S
C1410 O1395 1.245 . S
C1410 O1396 1.257 . S
C1411 O1400 1.259 . S
C1411 O1401 1.289 . S
C1412 O1399 1.246 . S
C1412 O1402 1.257 . S
C1413 O1403 1.274 . S
C1413 O1404 1.251 . S
C1414 O1405 1.257 . S
C1414 O1406 1.245 . S
O1415 Co1386 2.286 . S
O1415 C1407 1.259 . S
O1416 Co1386 2.069 . S
O1416 C1407 1.289 . S
O1417 Co1388 2.143 . S
O1417 C1408 1.246 . S
O1418 Co1386 2.015 . S
O1418 C1408 1.257 . S
Co1419 O1422 2.042 . S
Co1419 O1429 2.264 . S
Co1419 O1448 2.286 . S
Co1419 O1449 2.069 . S
Co1419 O1451 2.015 . S
Co1420 O1422 2.122 . S
Co1420 O1428 2.073 . S
Co1420 O1429 2.327 . S
Co1420 O1430 1.976 . S
Co1421 O1422 2.087 . S
Co1421 O1424 2.087 . S
Co1421 O1431 2.111 . S
Co1421 O1432 2.143 . S
Co1421 O1436 2.111 . S
Co1421 O1450 2.143 . S
O1422 Co1419 2.042 . S
O1422 Co1420 2.122 . S
O1422 Co1421 2.087 . S
O1422 H1423 0.980 . S
H1423 O1422 0.980 . S
O1424 Co1421 2.087 . S
O1424 Co1425 2.042 . S
O1424 Co1426 2.122 . S
O1424 H1427 0.980 . S
Co1425 O1424 2.042 . S
Co1425 O1433 2.286 . S
Co1425 O1434 2.069 . S
Co1425 O1435 2.015 . S
Co1425 O1438 2.264 . S
Co1426 O1424 2.122 . S
Co1426 O1437 1.976 . S
Co1426 O1438 2.327 . S
Co1426 O1439 2.073 . S
H1427 O1424 0.980 . S
O1428 Co1420 2.073 . S
O1428 C1443 1.245 . S
O1429 Co1419 2.264 . S
O1429 Co1420 2.327 . S
O1429 C1443 1.257 . S
O1430 Co1420 1.976 . S
O1430 C1442 1.251 . S
O1431 Co1421 2.111 . S
O1431 C1442 1.274 . S
O1432 Co1421 2.143 . S
O1432 C1445 1.246 . S
O1433 Co1425 2.286 . S
O1433 C1444 1.259 . S
O1434 Co1425 2.069 . S
O1434 C1444 1.289 . S
O1435 Co1425 2.015 . S
O1435 C1445 1.257 . S
O1436 Co1421 2.111 . S
O1436 C1446 1.274 . S
O1437 Co1426 1.976 . S
O1437 C1446 1.251 . S
O1438 Co1425 2.264 . S
O1438 Co1426 2.327 . S
O1438 C1447 1.257 . S
O1439 Co1426 2.073 . S
O1439 C1447 1.245 . S
C1440 O1448 1.259 . S
C1440 O1449 1.289 . S
C1441 O1450 1.246 . S
C1441 O1451 1.257 . S
C1442 O1430 1.251 . S
C1442 O1431 1.274 . S
C1443 O1428 1.245 . S
C1443 O1429 1.257 . S
C1444 O1433 1.259 . S
C1444 O1434 1.289 . S
C1445 O1432 1.246 . S
C1445 O1435 1.257 . S
C1446 O1436 1.274 . S
C1446 O1437 1.251 . S
C1447 O1438 1.257 . S
C1447 O1439 1.245 . S
O1448 Co1419 2.286 . S
O1448 C1440 1.259 . S
O1449 Co1419 2.069 . S
O1449 C1440 1.289 . S
O1450 Co1421 2.143 . S
O1450 C1441 1.246 . S
O1451 Co1419 2.015 . S
O1451 C1441 1.257 . S
Co1452 O1455 2.042 . S
Co1452 O1462 2.264 . S
Co1452 O1481 2.286 . S
Co1452 O1482 2.069 . S
Co1452 O1484 2.015 . S
Co1453 O1455 2.122 . S
Co1453 O1461 2.073 . S
Co1453 O1462 2.327 . S
Co1453 O1463 1.976 . S
Co1454 O1455 2.087 . S
Co1454 O1457 2.087 . S
Co1454 O1464 2.111 . S
Co1454 O1465 2.143 . S
Co1454 O1469 2.111 . S
Co1454 O1483 2.143 . S
O1455 Co1452 2.042 . S
O1455 Co1453 2.122 . S
O1455 Co1454 2.087 . S
O1455 H1456 0.980 . S
H1456 O1455 0.980 . S
O1457 Co1454 2.087 . S
O1457 Co1458 2.042 . S
O1457 Co1459 2.122 . S
O1457 H1460 0.980 . S
Co1458 O1457 2.042 . S
Co1458 O1466 2.286 . S
Co1458 O1467 2.069 . S
Co1458 O1468 2.015 . S
Co1458 O1471 2.264 . S
Co1459 O1457 2.122 . S
Co1459 O1470 1.976 . S
Co1459 O1471 2.327 . S
Co1459 O1472 2.073 . S
H1460 O1457 0.980 . S
O1461 Co1453 2.073 . S
O1461 C1476 1.245 . S
O1462 Co1452 2.264 . S
O1462 Co1453 2.327 . S
O1462 C1476 1.257 . S
O1463 Co1453 1.976 . S
O1463 C1475 1.251 . S
O1464 Co1454 2.111 . S
O1464 C1475 1.274 . S
O1465 Co1454 2.143 . S
O1465 C1478 1.246 . S
O1466 Co1458 2.286 . S
O1466 C1477 1.259 . S
O1467 Co1458 2.069 . S
O1467 C1477 1.289 . S
O1468 Co1458 2.015 . S
O1468 C1478 1.257 . S
O1469 Co1454 2.111 . S
O1469 C1479 1.274 . S
O1470 Co1459 1.976 . S
O1470 C1479 1.251 . S
O1471 Co1458 2.264 . S
O1471 Co1459 2.327 . S
O1471 C1480 1.257 . S
O1472 Co1459 2.073 . S
O1472 C1480 1.245 . S
C1473 O1481 1.259 . S
C1473 O1482 1.289 . S
C1474 O1483 1.246 . S
C1474 O1484 1.257 . S
C1475 O1463 1.251 . S
C1475 O1464 1.274 . S
C1476 O1461 1.245 . S
C1476 O1462 1.257 . S
C1477 O1466 1.259 . S
C1477 O1467 1.289 . S
C1478 O1465 1.246 . S
C1478 O1468 1.257 . S
C1479 O1469 1.274 . S
C1479 O1470 1.251 . S
C1480 O1471 1.257 . S
C1480 O1472 1.245 . S
O1481 Co1452 2.286 . S
O1481 C1473 1.259 . S
O1482 Co1452 2.069 . S
O1482 C1473 1.289 . S
O1483 Co1454 2.143 . S
O1483 C1474 1.246 . S
O1484 Co1452 2.015 . S
O1484 C1474 1.257 . S
Co1485 O1488 2.042 . S
Co1485 O1495 2.264 . S
Co1485 O1514 2.286 . S
Co1485 O1515 2.069 . S
Co1485 O1517 2.015 . S
Co1486 O1488 2.122 . S
Co1486 O1494 2.073 . S
Co1486 O1495 2.327 . S
Co1486 O1496 1.976 . S
Co1487 O1488 2.087 . S
Co1487 O1490 2.087 . S
Co1487 O1497 2.111 . S
Co1487 O1498 2.143 . S
Co1487 O1502 2.111 . S
Co1487 O1516 2.143 . S
O1488 Co1485 2.042 . S
O1488 Co1486 2.122 . S
O1488 Co1487 2.087 . S
O1488 H1489 0.980 . S
H1489 O1488 0.980 . S
O1490 Co1487 2.087 . S
O1490 Co1491 2.042 . S
O1490 Co1492 2.122 . S
O1490 H1493 0.980 . S
Co1491 O1490 2.042 . S
Co1491 O1499 2.286 . S
Co1491 O1500 2.069 . S
Co1491 O1501 2.015 . S
Co1491 O1504 2.264 . S
Co1492 O1490 2.122 . S
Co1492 O1503 1.976 . S
Co1492 O1504 2.327 . S
Co1492 O1505 2.073 . S
H1493 O1490 0.980 . S
O1494 Co1486 2.073 . S
O1494 C1509 1.245 . S
O1495 Co1485 2.264 . S
O1495 Co1486 2.327 . S
O1495 C1509 1.257 . S
O1496 Co1486 1.976 . S
O1496 C1508 1.251 . S
O1497 Co1487 2.111 . S
O1497 C1508 1.274 . S
O1498 Co1487 2.143 . S
O1498 C1511 1.246 . S
O1499 Co1491 2.286 . S
O1499 C1510 1.259 . S
O1500 Co1491 2.069 . S
O1500 C1510 1.289 . S
O1501 Co1491 2.015 . S
O1501 C1511 1.257 . S
O1502 Co1487 2.111 . S
O1502 C1512 1.274 . S
O1503 Co1492 1.976 . S
O1503 C1512 1.251 . S
O1504 Co1491 2.264 . S
O1504 Co1492 2.327 . S
O1504 C1513 1.257 . S
O1505 Co1492 2.073 . S
O1505 C1513 1.245 . S
C1506 O1514 1.259 . S
C1506 O1515 1.289 . S
C1507 O1516 1.246 . S
C1507 O1517 1.257 . S
C1508 O1496 1.251 . S
C1508 O1497 1.274 . S
C1509 O1494 1.245 . S
C1509 O1495 1.257 . S
C1510 O1499 1.259 . S
C1510 O1500 1.289 . S
C1511 O1498 1.246 . S
C1511 O1501 1.257 . S
C1512 O1502 1.274 . S
C1512 O1503 1.251 . S
C1513 O1504 1.257 . S
C1513 O1505 1.245 . S
O1514 Co1485 2.286 . S
O1514 C1506 1.259 . S
O1515 Co1485 2.069 . S
O1515 C1506 1.289 . S
O1516 Co1487 2.143 . S
O1516 C1507 1.246 . S
O1517 Co1485 2.015 . S
O1517 C1507 1.257 . S
Co1518 O1521 2.042 . S
Co1518 O1528 2.264 . S
Co1518 O1547 2.286 . S
Co1518 O1548 2.069 . S
Co1518 O1550 2.015 . S
Co1519 O1521 2.122 . S
Co1519 O1527 2.073 . S
Co1519 O1528 2.327 . S
Co1519 O1529 1.976 . S
Co1520 O1521 2.087 . S
Co1520 O1523 2.087 . S
Co1520 O1530 2.111 . S
Co1520 O1531 2.143 . S
Co1520 O1535 2.111 . S
Co1520 O1549 2.143 . S
O1521 Co1518 2.042 . S
O1521 Co1519 2.122 . S
O1521 Co1520 2.087 . S
O1521 H1522 0.980 . S
H1522 O1521 0.980 . S
O1523 Co1520 2.087 . S
O1523 Co1524 2.042 . S
O1523 Co1525 2.122 . S
O1523 H1526 0.980 . S
Co1524 O1523 2.042 . S
Co1524 O1532 2.286 . S
Co1524 O1533 2.069 . S
Co1524 O1534 2.015 . S
Co1524 O1537 2.264 . S
Co1525 O1523 2.122 . S
Co1525 O1536 1.976 . S
Co1525 O1537 2.327 . S
Co1525 O1538 2.073 . S
H1526 O1523 0.980 . S
O1527 Co1519 2.073 . S
O1527 C1542 1.245 . S
O1528 Co1518 2.264 . S
O1528 Co1519 2.327 . S
O1528 C1542 1.257 . S
O1529 Co1519 1.976 . S
O1529 C1541 1.251 . S
O1530 Co1520 2.111 . S
O1530 C1541 1.274 . S
O1531 Co1520 2.143 . S
O1531 C1544 1.246 . S
O1532 Co1524 2.286 . S
O1532 C1543 1.259 . S
O1533 Co1524 2.069 . S
O1533 C1543 1.289 . S
O1534 Co1524 2.015 . S
O1534 C1544 1.257 . S
O1535 Co1520 2.111 . S
O1535 C1545 1.274 . S
O1536 Co1525 1.976 . S
O1536 C1545 1.251 . S
O1537 Co1524 2.264 . S
O1537 Co1525 2.327 . S
O1537 C1546 1.257 . S
O1538 Co1525 2.073 . S
O1538 C1546 1.245 . S
C1539 O1547 1.259 . S
C1539 O1548 1.289 . S
C1540 O1549 1.246 . S
C1540 O1550 1.257 . S
C1541 O1529 1.251 . S
C1541 O1530 1.274 . S
C1542 O1527 1.245 . S
C1542 O1528 1.257 . S
C1543 O1532 1.259 . S
C1543 O1533 1.289 . S
C1544 O1531 1.246 . S
C1544 O1534 1.257 . S
C1545 O1535 1.274 . S
C1545 O1536 1.251 . S
C1546 O1537 1.257 . S
C1546 O1538 1.245 . S
O1547 Co1518 2.286 . S
O1547 C1539 1.259 . S
O1548 Co1518 2.069 . S
O1548 C1539 1.289 . S
O1549 Co1520 2.143 . S
O1549 C1540 1.246 . S
O1550 Co1518 2.015 . S
O1550 C1540 1.257 . S
Co1551 O1554 2.042 . S
Co1551 O1561 2.264 . S
Co1551 O1580 2.286 . S
Co1551 O1581 2.069 . S
Co1551 O1583 2.015 . S
Co1552 O1554 2.122 . S
Co1552 O1560 2.073 . S
Co1552 O1561 2.327 . S
Co1552 O1562 1.976 . S
Co1553 O1554 2.087 . S
Co1553 O1556 2.087 . S
Co1553 O1563 2.111 . S
Co1553 O1564 2.143 . S
Co1553 O1568 2.111 . S
Co1553 O1582 2.143 . S
O1554 Co1551 2.042 . S
O1554 Co1552 2.122 . S
O1554 Co1553 2.087 . S
O1554 H1555 0.980 . S
H1555 O1554 0.980 . S
O1556 Co1553 2.087 . S
O1556 Co1557 2.042 . S
O1556 Co1558 2.122 . S
O1556 H1559 0.980 . S
Co1557 O1556 2.042 . S
Co1557 O1565 2.286 . S
Co1557 O1566 2.069 . S
Co1557 O1567 2.015 . S
Co1557 O1570 2.264 . S
Co1558 O1556 2.122 . S
Co1558 O1569 1.976 . S
Co1558 O1570 2.327 . S
Co1558 O1571 2.073 . S
H1559 O1556 0.980 . S
O1560 Co1552 2.073 . S
O1560 C1575 1.245 . S
O1561 Co1551 2.264 . S
O1561 Co1552 2.327 . S
O1561 C1575 1.257 . S
O1562 Co1552 1.976 . S
O1562 C1574 1.251 . S
O1563 Co1553 2.111 . S
O1563 C1574 1.274 . S
O1564 Co1553 2.143 . S
O1564 C1577 1.246 . S
O1565 Co1557 2.286 . S
O1565 C1576 1.259 . S
O1566 Co1557 2.069 . S
O1566 C1576 1.289 . S
O1567 Co1557 2.015 . S
O1567 C1577 1.257 . S
O1568 Co1553 2.111 . S
O1568 C1578 1.274 . S
O1569 Co1558 1.976 . S
O1569 C1578 1.251 . S
O1570 Co1557 2.264 . S
O1570 Co1558 2.327 . S
O1570 C1579 1.257 . S
O1571 Co1558 2.073 . S
O1571 C1579 1.245 . S
C1572 O1580 1.259 . S
C1572 O1581 1.289 . S
C1573 O1582 1.246 . S
C1573 O1583 1.257 . S
C1574 O1562 1.251 . S
C1574 O1563 1.274 . S
C1575 O1560 1.245 . S
C1575 O1561 1.257 . S
C1576 O1565 1.259 . S
C1576 O1566 1.289 . S
C1577 O1564 1.246 . S
C1577 O1567 1.257 . S
C1578 O1568 1.274 . S
C1578 O1569 1.251 . S
C1579 O1570 1.257 . S
C1579 O1571 1.245 . S
O1580 Co1551 2.286 . S
O1580 C1572 1.259 . S
O1581 Co1551 2.069 . S
O1581 C1572 1.289 . S
O1582 Co1553 2.143 . S
O1582 C1573 1.246 . S
O1583 Co1551 2.015 . S
O1583 C1573 1.257 . S
H1584 C1602 0.951 . S
H1585 C1604 0.951 . S
H1586 C1606 0.950 . S
H1587 C1607 0.950 . S
H1588 C1609 0.950 . S
H1589 C1612 0.950 . S
H1590 C1613 0.950 . S
H1591 C1615 0.950 . S
H1592 C1616 0.950 . S
H1593 C1617 0.951 . S
H1594 C1619 0.951 . S
H1595 C1621 0.950 . S
H1596 C1622 0.950 . S
H1597 C1624 0.950 . S
H1598 C1627 0.950 . S
H1599 C1628 0.950 . S
H1600 C1630 0.950 . S
H1601 C1631 0.950 . S
C1602 H1584 0.951 . S
C1602 C1603 1.366 . S
C1602 C1604 1.388 . S
C1603 C1602 1.366 . S
C1603 C1607 1.385 . S
C1604 H1585 0.951 . S
C1604 C1602 1.388 . S
C1604 C1605 1.366 . S
C1605 C1604 1.366 . S
C1605 C1606 1.414 . S
C1605 C1608 1.499 . S
C1606 H1586 0.950 . S
C1606 C1605 1.414 . S
C1606 C1607 1.374 . S
C1607 H1587 0.950 . S
C1607 C1603 1.385 . S
C1607 C1606 1.374 . S
C1608 C1605 1.499 . S
C1608 C1609 1.373 1_565 S
C1608 C1610 1.389 . S
C1609 H1588 0.950 . S
C1609 C1608 1.373 1_545 S
C1609 C1625 1.377 . S
C1610 C1608 1.389 . S
C1610 C1611 1.524 . S
C1610 C1624 1.377 . S
C1611 C1610 1.524 . S
C1611 C1612 1.397 . S
C1611 C1616 1.363 . S
C1612 H1589 0.950 . S
C1612 C1611 1.397 . S
C1612 C1613 1.334 . S
C1613 H1590 0.950 . S
C1613 C1612 1.334 . S
C1613 C1614 1.287 . S
C1614 C1613 1.287 . S
C1614 C1615 1.524 . S
C1614 H1633 0.913 . S
C1615 H1591 0.950 . S
C1615 C1614 1.524 . S
C1615 C1616 1.415 . S
C1616 H1592 0.950 . S
C1616 C1611 1.363 . S
C1616 C1615 1.415 . S
C1617 H1593 0.951 . S
C1617 C1618 1.366 . S
C1617 C1619 1.388 . S
C1618 C1617 1.366 . S
C1618 C1622 1.385 . S
C1619 H1594 0.951 . S
C1619 C1617 1.388 . S
C1619 C1620 1.366 . S
C1620 C1619 1.366 . S
C1620 C1621 1.414 . S
C1620 C1623 1.499 . S
C1621 H1595 0.950 . S
C1621 C1620 1.414 . S
C1621 C1622 1.374 . S
C1622 H1596 0.950 . S
C1622 C1618 1.385 . S
C1622 C1621 1.374 . S
C1623 C1620 1.499 . S
C1623 C1624 1.373 1_545 S
C1623 C1625 1.389 . S
C1624 H1597 0.950 . S
C1624 C1610 1.377 . S
C1624 C1623 1.373 1_565 S
C1625 C1609 1.377 . S
C1625 C1623 1.389 . S
C1625 C1626 1.524 . S
C1626 C1625 1.524 . S
C1626 C1627 1.397 . S
C1626 C1631 1.363 . S
C1627 H1598 0.950 . S
C1627 C1626 1.397 . S
C1627 C1628 1.334 . S
C1628 H1599 0.950 . S
C1628 C1627 1.334 . S
C1628 C1629 1.287 . S
C1629 C1628 1.287 . S
C1629 C1630 1.524 . S
C1629 H1632 0.999 . S
C1630 H1600 0.950 . S
C1630 C1629 1.524 . S
C1630 C1631 1.415 . S
C1631 H1601 0.950 . S
C1631 C1626 1.363 . S
C1631 C1630 1.415 . S
H1632 C1629 0.999 . S
H1633 C1614 0.913 . S
H1634 C1652 0.951 . S
H1635 C1654 0.951 . S
H1636 C1656 0.950 . S
H1637 C1657 0.950 . S
H1638 C1659 0.950 . S
H1639 C1662 0.950 1_655 S
H1640 C1663 0.950 . S
H1641 C1665 0.950 . S
H1642 C1666 0.950 . S
H1643 C1667 0.951 . S
H1644 C1669 0.951 . S
H1645 C1671 0.950 . S
H1646 C1672 0.950 . S
H1647 C1674 0.950 . S
H1648 C1677 0.950 . S
H1649 C1678 0.950 . S
H1650 C1680 0.950 . S
H1651 C1681 0.950 . S
C1652 H1634 0.951 . S
C1652 C1653 1.366 . S
C1652 C1654 1.388 . S
C1653 C1652 1.366 . S
C1653 C1657 1.385 . S
C1654 H1635 0.951 . S
C1654 C1652 1.388 . S
C1654 C1655 1.366 . S
C1655 C1654 1.366 . S
C1655 C1656 1.414 . S
C1655 C1658 1.499 . S
C1656 H1636 0.950 . S
C1656 C1655 1.414 . S
C1656 C1657 1.374 . S
C1657 H1637 0.950 . S
C1657 C1653 1.385 . S
C1657 C1656 1.374 . S
C1658 C1655 1.499 . S
C1658 C1659 1.373 . S
C1658 C1660 1.389 . S
C1659 H1638 0.950 . S
C1659 C1658 1.373 . S
C1659 C1675 1.377 . S
C1660 C1658 1.389 . S
C1660 C1661 1.524 . S
C1660 C1674 1.377 1_455 S
C1661 C1660 1.524 . S
C1661 C1662 1.403 . S
C1661 C1666 1.363 . S
C1662 H1639 0.950 1_455 S
C1662 C1661 1.403 . S
C1662 C1663 1.329 1_455 S
C1663 H1640 0.950 . S
C1663 C1662 1.329 1_655 S
C1663 C1664 1.287 . S
C1664 C1663 1.287 . S
C1664 C1665 1.524 1_655 S
C1664 H1683 0.913 . S
C1665 H1641 0.950 . S
C1665 C1664 1.524 1_455 S
C1665 C1666 1.415 . S
C1666 H1642 0.950 . S
C1666 C1661 1.363 . S
C1666 C1665 1.415 . S
C1667 H1643 0.951 . S
C1667 C1668 1.366 . S
C1667 C1669 1.388 . S
C1668 C1667 1.366 . S
C1668 C1672 1.385 . S
C1669 H1644 0.951 . S
C1669 C1667 1.388 . S
C1669 C1670 1.366 . S
C1670 C1669 1.366 . S
C1670 C1671 1.414 . S
C1670 C1673 1.499 . S
C1671 H1645 0.950 . S
C1671 C1670 1.414 . S
C1671 C1672 1.374 . S
C1672 H1646 0.950 . S
C1672 C1668 1.385 . S
C1672 C1671 1.374 . S
C1673 C1670 1.499 . S
C1673 C1674 1.373 . S
C1673 C1675 1.389 1_655 S
C1674 H1647 0.950 . S
C1674 C1660 1.377 1_655 S
C1674 C1673 1.373 . S
C1675 C1659 1.377 . S
C1675 C1673 1.389 1_455 S
C1675 C1676 1.524 . S
C1676 C1675 1.524 . S
C1676 C1677 1.397 . S
C1676 C1681 1.363 . S
C1677 H1648 0.950 . S
C1677 C1676 1.397 . S
C1677 C1678 1.334 . S
C1678 H1649 0.950 . S
C1678 C1677 1.334 . S
C1678 C1679 1.287 . S
C1679 C1678 1.287 . S
C1679 C1680 1.524 . S
C1679 H1682 0.999 . S
C1680 H1650 0.950 . S
C1680 C1679 1.524 . S
C1680 C1681 1.415 . S
C1681 H1651 0.950 . S
C1681 C1676 1.363 . S
C1681 C1680 1.415 . S
H1682 C1679 0.999 . S
H1683 C1664 0.913 . S
H1684 C1702 0.951 . S
H1685 C1704 0.951 . S
H1686 C1706 0.949 1_554 S
H1687 C1707 0.950 . S
H1688 C1709 0.950 . S
H1689 C1712 0.950 . S
H1690 C1713 0.950 . S
H1691 C1715 0.950 . S
H1692 C1716 0.950 . S
H1693 C1717 0.951 . S
H1694 C1719 0.951 . S
H1695 C1721 0.950 . S
H1696 C1722 0.950 . S
H1697 C1724 0.950 . S
H1698 C1727 0.950 . S
H1699 C1728 0.950 . S
H1700 C1730 0.950 . S
H1701 C1731 0.950 . S
C1702 H1684 0.951 . S
C1702 C1703 1.366 . S
C1702 C1704 1.388 . S
C1703 C1702 1.366 . S
C1703 C1707 1.385 . S
C1704 H1685 0.951 . S
C1704 C1702 1.388 . S
C1704 C1705 1.366 . S
C1705 C1704 1.366 . S
C1705 C1706 1.414 . S
C1705 C1708 1.499 1_556 S
C1706 H1686 0.949 1_556 S
C1706 C1705 1.414 . S
C1706 C1707 1.374 . S
C1707 H1687 0.950 . S
C1707 C1703 1.385 . S
C1707 C1706 1.374 . S
C1708 C1705 1.499 1_554 S
C1708 C1709 1.373 . S
C1708 C1710 1.389 . S
C1709 H1688 0.950 . S
C1709 C1708 1.373 . S
C1709 C1725 1.377 . S
C1710 C1708 1.389 . S
C1710 C1711 1.524 . S
C1710 C1724 1.377 . S
C1711 C1710 1.524 . S
C1711 C1712 1.397 . S
C1711 C1716 1.363 . S
C1712 H1689 0.950 . S
C1712 C1711 1.397 . S
C1712 C1713 1.334 . S
C1713 H1690 0.950 . S
C1713 C1712 1.334 . S
C1713 C1714 1.287 . S
C1714 C1713 1.287 . S
C1714 C1715 1.524 . S
C1714 H1733 0.913 . S
C1715 H1691 0.950 . S
C1715 C1714 1.524 . S
C1715 C1716 1.415 . S
C1716 H1692 0.950 . S
C1716 C1711 1.363 . S
C1716 C1715 1.415 . S
C1717 H1693 0.951 . S
C1717 C1718 1.366 . S
C1717 C1719 1.388 . S
C1718 C1717 1.366 . S
C1718 C1722 1.385 . S
C1719 H1694 0.951 . S
C1719 C1717 1.388 . S
C1719 C1720 1.366 . S
C1720 C1719 1.366 . S
C1720 C1721 1.414 . S
C1720 C1723 1.499 . S
C1721 H1695 0.950 . S
C1721 C1720 1.414 . S
C1721 C1722 1.374 . S
C1722 H1696 0.950 . S
C1722 C1718 1.385 . S
C1722 C1721 1.374 . S
C1723 C1720 1.499 . S
C1723 C1724 1.373 . S
C1723 C1725 1.389 . S
C1724 H1697 0.950 . S
C1724 C1710 1.377 . S
C1724 C1723 1.373 . S
C1725 C1709 1.377 . S
C1725 C1723 1.389 . S
C1725 C1726 1.524 . S
C1726 C1725 1.524 . S
C1726 C1727 1.397 . S
C1726 C1731 1.363 . S
C1727 H1698 0.950 . S
C1727 C1726 1.397 . S
C1727 C1728 1.334 . S
C1728 H1699 0.950 . S
C1728 C1727 1.334 . S
C1728 C1729 1.287 . S
C1729 C1728 1.287 . S
C1729 C1730 1.524 . S
C1729 H1732 0.999 . S
C1730 H1700 0.950 . S
C1730 C1729 1.524 . S
C1730 C1731 1.415 . S
C1731 H1701 0.950 . S
C1731 C1726 1.363 . S
C1731 C1730 1.415 . S
H1732 C1729 0.999 . S
H1733 C1714 0.913 . S
H1734 C1752 0.951 . S
H1735 C1754 0.951 . S
H1736 C1756 0.950 . S
H1737 C1757 0.950 . S
H1738 C1759 0.950 . S
H1739 C1762 0.950 . S
H1740 C1763 0.950 . S
H1741 C1765 0.950 . S
H1742 C1766 0.950 . S
H1743 C1767 0.951 . S
H1744 C1769 0.951 . S
H1745 C1771 0.950 . S
H1746 C1772 0.950 . S
H1747 C1774 0.950 . S
H1748 C1777 0.950 . S
H1749 C1778 0.950 . S
H1750 C1780 0.950 . S
H1751 C1781 0.950 . S
C1752 H1734 0.951 . S
C1752 C1753 1.366 . S
C1752 C1754 1.388 . S
C1753 C1752 1.366 . S
C1753 C1757 1.385 . S
C1754 H1735 0.951 . S
C1754 C1752 1.388 . S
C1754 C1755 1.366 . S
C1755 C1754 1.366 . S
C1755 C1756 1.414 . S
C1755 C1758 1.499 . S
C1756 H1736 0.950 . S
C1756 C1755 1.414 . S
C1756 C1757 1.374 . S
C1757 H1737 0.950 . S
C1757 C1753 1.385 . S
C1757 C1756 1.374 . S
C1758 C1755 1.499 . S
C1758 C1759 1.373 . S
C1758 C1760 1.389 . S
C1759 H1738 0.950 . S
C1759 C1758 1.373 . S
C1759 C1775 1.377 . S
C1760 C1758 1.389 . S
C1760 C1761 1.524 . S
C1760 C1774 1.377 . S
C1761 C1760 1.524 . S
C1761 C1762 1.397 . S
C1761 C1766 1.363 . S
C1762 H1739 0.950 . S
C1762 C1761 1.397 . S
C1762 C1763 1.334 . S
C1763 H1740 0.950 . S
C1763 C1762 1.334 . S
C1763 C1764 1.287 . S
C1764 C1763 1.287 . S
C1764 C1765 1.524 . S
C1764 H1783 0.913 . S
C1765 H1741 0.950 . S
C1765 C1764 1.524 . S
C1765 C1766 1.415 . S
C1766 H1742 0.950 . S
C1766 C1761 1.363 . S
C1766 C1765 1.415 . S
C1767 H1743 0.951 . S
C1767 C1768 1.366 . S
C1767 C1769 1.388 . S
C1768 C1767 1.366 . S
C1768 C1772 1.385 . S
C1769 H1744 0.951 . S
C1769 C1767 1.388 . S
C1769 C1770 1.366 . S
C1770 C1769 1.366 . S
C1770 C1771 1.414 . S
C1770 C1773 1.499 . S
C1771 H1745 0.950 . S
C1771 C1770 1.414 . S
C1771 C1772 1.374 . S
C1772 H1746 0.950 . S
C1772 C1768 1.385 . S
C1772 C1771 1.374 . S
C1773 C1770 1.499 . S
C1773 C1774 1.373 . S
C1773 C1775 1.389 . S
C1774 H1747 0.950 . S
C1774 C1760 1.377 . S
C1774 C1773 1.373 . S
C1775 C1759 1.377 . S
C1775 C1773 1.389 . S
C1775 C1776 1.524 . S
C1776 C1775 1.524 . S
C1776 C1777 1.397 . S
C1776 C1781 1.363 . S
C1777 H1748 0.950 . S
C1777 C1776 1.397 . S
C1777 C1778 1.334 . S
C1778 H1749 0.950 . S
C1778 C1777 1.334 . S
C1778 C1779 1.287 . S
C1779 C1778 1.287 . S
C1779 C1780 1.524 . S
C1779 H1782 0.999 . S
C1780 H1750 0.950 . S
C1780 C1779 1.524 . S
C1780 C1781 1.415 . S
C1781 H1751 0.950 . S
C1781 C1776 1.363 . S
C1781 C1780 1.415 . S
H1782 C1779 0.999 . S
H1783 C1764 0.913 . S
H1784 C1802 0.951 . S
H1785 C1804 0.951 . S
H1786 C1806 0.950 . S
H1787 C1807 0.950 . S
H1788 C1809 0.950 . S
H1789 C1812 0.950 . S
H1790 C1813 0.950 . S
H1791 C1815 0.950 . S
H1792 C1816 0.950 . S
H1793 C1817 0.951 . S
H1794 C1819 0.951 . S
H1795 C1821 0.950 . S
H1796 C1822 0.950 . S
H1797 C1824 0.950 . S
H1798 C1827 0.950 . S
H1799 C1828 0.950 . S
H1800 C1830 0.950 . S
H1801 C1831 0.950 . S
C1802 H1784 0.951 . S
C1802 C1803 1.366 . S
C1802 C1804 1.388 . S
C1803 C1802 1.366 . S
C1803 C1807 1.385 . S
C1804 H1785 0.951 . S
C1804 C1802 1.388 . S
C1804 C1805 1.366 . S
C1805 C1804 1.366 . S
C1805 C1806 1.414 . S
C1805 C1808 1.499 . S
C1806 H1786 0.950 . S
C1806 C1805 1.414 . S
C1806 C1807 1.374 . S
C1807 H1787 0.950 . S
C1807 C1803 1.385 . S
C1807 C1806 1.374 . S
C1808 C1805 1.499 . S
C1808 C1809 1.373 . S
C1808 C1810 1.389 . S
C1809 H1788 0.950 . S
C1809 C1808 1.373 . S
C1809 C1825 1.377 . S
C1810 C1808 1.389 . S
C1810 C1811 1.524 . S
C1810 C1824 1.377 . S
C1811 C1810 1.524 . S
C1811 C1812 1.397 . S
C1811 C1816 1.363 . S
C1812 H1789 0.950 . S
C1812 C1811 1.397 . S
C1812 C1813 1.334 . S
C1813 H1790 0.950 . S
C1813 C1812 1.334 . S
C1813 C1814 1.287 . S
C1814 C1813 1.287 . S
C1814 C1815 1.524 . S
C1814 H1833 0.913 . S
C1815 H1791 0.950 . S
C1815 C1814 1.524 . S
C1815 C1816 1.415 . S
C1816 H1792 0.950 . S
C1816 C1811 1.363 . S
C1816 C1815 1.415 . S
C1817 H1793 0.951 . S
C1817 C1818 1.366 . S
C1817 C1819 1.388 . S
C1818 C1817 1.366 . S
C1818 C1822 1.385 . S
C1819 H1794 0.951 . S
C1819 C1817 1.388 . S
C1819 C1820 1.366 . S
C1820 C1819 1.366 . S
C1820 C1821 1.414 . S
C1820 C1823 1.499 . S
C1821 H1795 0.950 . S
C1821 C1820 1.414 . S
C1821 C1822 1.374 . S
C1822 H1796 0.950 . S
C1822 C1818 1.385 . S
C1822 C1821 1.374 . S
C1823 C1820 1.499 . S
C1823 C1824 1.373 . S
C1823 C1825 1.389 . S
C1824 H1797 0.950 . S
C1824 C1810 1.377 . S
C1824 C1823 1.373 . S
C1825 C1809 1.377 . S
C1825 C1823 1.389 . S
C1825 C1826 1.524 . S
C1826 C1825 1.524 . S
C1826 C1827 1.397 . S
C1826 C1831 1.363 . S
C1827 H1798 0.950 . S
C1827 C1826 1.397 . S
C1827 C1828 1.334 . S
C1828 H1799 0.950 . S
C1828 C1827 1.334 . S
C1828 C1829 1.287 . S
C1829 C1828 1.287 . S
C1829 C1830 1.524 . S
C1829 H1832 0.999 . S
C1830 H1800 0.950 . S
C1830 C1829 1.524 . S
C1830 C1831 1.415 . S
C1831 H1801 0.950 . S
C1831 C1826 1.363 . S
C1831 C1830 1.415 . S
H1832 C1829 0.999 . S
H1833 C1814 0.913 . S
H1834 C1852 0.951 . S
H1835 C1854 0.951 . S
H1836 C1856 0.950 . S
H1837 C1857 0.950 . S
H1838 C1859 0.950 . S
H1839 C1862 0.950 . S
H1840 C1863 0.950 . S
H1841 C1865 0.950 . S
H1842 C1866 0.950 . S
H1843 C1867 0.951 . S
H1844 C1869 0.951 . S
H1845 C1871 0.950 . S
H1846 C1872 0.950 . S
H1847 C1874 0.950 . S
H1848 C1877 0.950 . S
H1849 C1878 0.950 . S
H1850 C1880 0.950 . S
H1851 C1881 0.950 . S
C1852 H1834 0.951 . S
C1852 C1853 1.366 . S
C1852 C1854 1.388 . S
C1853 C1852 1.366 . S
C1853 C1857 1.385 . S
C1854 H1835 0.951 . S
C1854 C1852 1.388 . S
C1854 C1855 1.366 . S
C1855 C1854 1.366 . S
C1855 C1856 1.414 . S
C1855 C1858 1.499 . S
C1856 H1836 0.950 . S
C1856 C1855 1.414 . S
C1856 C1857 1.374 . S
C1857 H1837 0.950 . S
C1857 C1853 1.385 . S
C1857 C1856 1.374 . S
C1858 C1855 1.499 . S
C1858 C1859 1.373 . S
C1858 C1860 1.389 1_556 S
C1859 H1838 0.950 . S
C1859 C1858 1.373 . S
C1859 C1875 1.377 1_556 S
C1860 C1858 1.389 1_554 S
C1860 C1861 1.524 . S
C1860 C1874 1.377 . S
C1861 C1860 1.524 . S
C1861 C1862 1.397 1_554 S
C1861 C1866 1.363 . S
C1862 H1839 0.950 . S
C1862 C1861 1.397 1_556 S
C1862 C1863 1.334 . S
C1863 H1840 0.950 . S
C1863 C1862 1.334 . S
C1863 C1864 1.287 1_556 S
C1864 C1863 1.287 1_554 S
C1864 C1865 1.524 . S
C1864 H1883 0.913 . S
C1865 H1841 0.950 . S
C1865 C1864 1.524 . S
C1865 C1866 1.415 . S
C1866 H1842 0.950 . S
C1866 C1861 1.363 . S
C1866 C1865 1.415 . S
C1867 H1843 0.951 . S
C1867 C1868 1.366 . S
C1867 C1869 1.388 . S
C1868 C1867 1.366 . S
C1868 C1872 1.385 . S
C1869 H1844 0.951 . S
C1869 C1867 1.388 . S
C1869 C1870 1.366 . S
C1870 C1869 1.366 . S
C1870 C1871 1.414 . S
C1870 C1873 1.499 . S
C1871 H1845 0.950 . S
C1871 C1870 1.414 . S
C1871 C1872 1.374 . S
C1872 H1846 0.950 . S
C1872 C1868 1.385 . S
C1872 C1871 1.374 . S
C1873 C1870 1.499 . S
C1873 C1874 1.373 . S
C1873 C1875 1.389 . S
C1874 H1847 0.950 . S
C1874 C1860 1.377 . S
C1874 C1873 1.373 . S
C1875 C1859 1.377 1_554 S
C1875 C1873 1.389 . S
C1875 C1876 1.524 . S
C1876 C1875 1.524 . S
C1876 C1877 1.397 . S
C1876 C1881 1.363 1_554 S
C1877 H1848 0.950 . S
C1877 C1876 1.397 . S
C1877 C1878 1.334 . S
C1878 H1849 0.950 . S
C1878 C1877 1.334 . S
C1878 C1879 1.287 . S
C1879 C1878 1.287 . S
C1879 C1880 1.524 1_554 S
C1879 H1882 0.999 . S
C1880 H1850 0.950 . S
C1880 C1879 1.524 1_556 S
C1880 C1881 1.415 . S
C1881 H1851 0.950 . S
C1881 C1876 1.363 1_556 S
C1881 C1880 1.415 . S
H1882 C1879 0.999 . S
H1883 C1864 0.913 . S
H1884 C1902 0.951 . S
H1885 C1904 0.951 . S
H1886 C1906 0.950 . S
H1887 C1907 0.950 . S
H1888 C1909 0.997 . S
H1889 C1912 0.950 . S
H1890 C1913 0.950 . S
H1891 C1915 0.950 . S
H1892 C1916 0.950 . S
H1893 C1917 0.951 . S
H1894 C1919 0.951 . S
H1895 C1921 0.950 . S
H1896 C1922 0.950 . S
H1897 C1924 0.950 . S
H1898 C1927 0.950 . S
H1899 C1928 0.950 . S
H1900 C1930 0.950 . S
H1901 C1931 0.950 . S
C1902 H1884 0.951 . S
C1902 C1903 1.366 . S
C1902 C1904 1.388 1_545 S
C1903 C1902 1.366 . S
C1903 C1907 1.385 . S
C1904 H1885 0.951 . S
C1904 C1902 1.388 1_565 S
C1904 C1905 1.366 1_565 S
C1905 C1904 1.366 1_545 S
C1905 C1906 1.414 . S
C1905 C1908 1.499 1_545 S
C1906 H1886 0.950 . S
C1906 C1905 1.414 . S
C1906 C1907 1.374 . S
C1907 H1887 0.950 . S
C1907 C1903 1.385 . S
C1907 C1906 1.374 . S
C1908 C1905 1.499 1_565 S
C1908 C1909 1.356 1_565 S
C1908 C1910 1.389 . S
C1909 H1888 0.997 . S
C1909 C1908 1.356 1_545 S
C1909 C1925 1.349 1_545 S
C1910 C1908 1.389 . S
C1910 C1911 1.524 . S
C1910 C1924 1.377 . S
C1911 C1910 1.524 . S
C1911 C1912 1.397 . S
C1911 C1916 1.363 . S
C1912 H1889 0.950 . S
C1912 C1911 1.397 . S
C1912 C1913 1.334 . S
C1913 H1890 0.950 . S
C1913 C1912 1.334 . S
C1913 C1914 1.287 . S
C1914 C1913 1.287 . S
C1914 C1915 1.524 . S
C1914 H1933 0.913 . S
C1915 H1891 0.950 . S
C1915 C1914 1.524 . S
C1915 C1916 1.415 . S
C1916 H1892 0.950 . S
C1916 C1911 1.363 . S
C1916 C1915 1.415 . S
C1917 H1893 0.951 . S
C1917 C1918 1.366 . S
C1917 C1919 1.388 . S
C1918 C1917 1.366 . S
C1918 C1922 1.385 . S
C1919 H1894 0.951 . S
C1919 C1917 1.388 . S
C1919 C1920 1.366 . S
C1920 C1919 1.366 . S
C1920 C1921 1.414 . S
C1920 C1923 1.499 . S
C1921 H1895 0.950 . S
C1921 C1920 1.414 . S
C1921 C1922 1.374 . S
C1922 H1896 0.950 . S
C1922 C1918 1.385 . S
C1922 C1921 1.374 . S
C1923 C1920 1.499 . S
C1923 C1924 1.373 . S
C1923 C1925 1.389 . S
C1924 H1897 0.950 . S
C1924 C1910 1.377 . S
C1924 C1923 1.373 . S
C1925 C1909 1.349 1_565 S
C1925 C1923 1.389 . S
C1925 C1926 1.524 . S
C1926 C1925 1.524 . S
C1926 C1927 1.397 . S
C1926 C1931 1.363 1_565 S
C1927 H1898 0.950 . S
C1927 C1926 1.397 . S
C1927 C1928 1.334 . S
C1928 H1899 0.950 . S
C1928 C1927 1.334 . S
C1928 C1929 1.287 1_565 S
C1929 C1928 1.287 1_545 S
C1929 C1930 1.524 . S
C1929 H1932 0.999 . S
C1930 H1900 0.950 . S
C1930 C1929 1.524 . S
C1930 C1931 1.415 . S
C1931 H1901 0.950 . S
C1931 C1926 1.363 1_545 S
C1931 C1930 1.415 . S
H1932 C1929 0.999 . S
H1933 C1914 0.913 . S
H1934 C1952 0.951 . S
H1935 C1954 0.951 . S
H1936 C1956 0.950 . S
H1937 C1957 0.950 . S
H1938 C1959 0.950 . S
H1939 C1962 0.950 . S
H1940 C1963 0.950 . S
H1941 C1965 0.950 . S
H1942 C1966 0.950 . S
H1943 C1967 0.951 . S
H1944 C1969 0.946 1_455 S
H1945 C1971 0.950 . S
H1946 C1972 0.950 . S
H1947 C1974 0.950 . S
H1948 C1977 0.950 . S
H1949 C1978 0.950 . S
H1950 C1980 0.950 . S
H1951 C1981 0.950 . S
C1952 H1934 0.951 . S
C1952 C1953 1.366 . S
C1952 C1954 1.388 . S
C1953 C1952 1.366 . S
C1953 C1957 1.385 . S
C1954 H1935 0.951 . S
C1954 C1952 1.388 . S
C1954 C1955 1.366 . S
C1955 C1954 1.366 . S
C1955 C1956 1.414 . S
C1955 C1958 1.499 . S
C1956 H1936 0.950 . S
C1956 C1955 1.414 . S
C1956 C1957 1.374 . S
C1957 H1937 0.950 . S
C1957 C1953 1.385 . S
C1957 C1956 1.374 . S
C1958 C1955 1.499 . S
C1958 C1959 1.373 . S
C1958 C1960 1.389 . S
C1959 H1938 0.950 . S
C1959 C1958 1.373 . S
C1959 C1975 1.377 . S
C1960 C1958 1.389 . S
C1960 C1961 1.524 . S
C1960 C1974 1.377 1_455 S
C1961 C1960 1.524 . S
C1961 C1962 1.397 . S
C1961 C1966 1.363 1_455 S
C1962 H1939 0.950 . S
C1962 C1961 1.397 . S
C1962 C1963 1.334 . S
C1963 H1940 0.950 . S
C1963 C1962 1.334 . S
C1963 C1964 1.287 . S
C1964 C1963 1.287 . S
C1964 C1965 1.524 1_455 S
C1964 H1983 0.913 . S
C1965 H1941 0.950 . S
C1965 C1964 1.524 1_655 S
C1965 C1966 1.415 . S
C1966 H1942 0.950 . S
C1966 C1961 1.363 1_655 S
C1966 C1965 1.415 . S
C1967 H1943 0.951 . S
C1967 C1968 1.366 . S
C1967 C1969 1.388 . S
C1968 C1967 1.366 . S
C1968 C1972 1.385 . S
C1969 H1944 0.946 1_655 S
C1969 C1967 1.388 . S
C1969 C1970 1.366 . S
C1970 C1969 1.366 . S
C1970 C1971 1.414 . S
C1970 C1973 1.499 . S
C1971 H1945 0.950 . S
C1971 C1970 1.414 . S
C1971 C1972 1.374 . S
C1972 H1946 0.950 . S
C1972 C1968 1.385 . S
C1972 C1971 1.374 . S
C1973 C1970 1.499 . S
C1973 C1974 1.373 . S
C1973 C1975 1.389 1_655 S
C1974 H1947 0.950 . S
C1974 C1960 1.377 1_655 S
C1974 C1973 1.373 . S
C1975 C1959 1.377 . S
C1975 C1973 1.389 1_455 S
C1975 C1976 1.524 . S
C1976 C1975 1.524 . S
C1976 C1977 1.397 1_455 S
C1976 C1981 1.363 . S
C1977 H1948 0.950 . S
C1977 C1976 1.397 1_655 S
C1977 C1978 1.334 . S
C1978 H1949 0.950 . S
C1978 C1977 1.334 . S
C1978 C1979 1.287 1_655 S
C1979 C1978 1.287 1_455 S
C1979 C1980 1.524 . S
C1979 H1982 0.999 . S
C1980 H1950 0.950 . S
C1980 C1979 1.524 . S
C1980 C1981 1.415 . S
C1981 H1951 0.950 . S
C1981 C1976 1.363 . S
C1981 C1980 1.415 . S
H1982 C1979 0.999 . S
H1983 C1964 0.913 . S
H1984 C2002 0.951 . S
H1985 C2004 0.951 . S
H1986 C2006 0.950 . S
H1987 C2007 0.950 . S
H1988 C2009 0.950 . S
H1989 C2012 0.950 . S
H1990 C2013 0.950 . S
H1991 C2015 0.950 . S
H1992 C2016 0.950 . S
H1993 C2017 0.951 . S
H1994 C2019 0.951 . S
H1995 C2021 0.950 1_554 S
H1996 C2022 0.950 . S
H1997 C2024 0.950 . S
H1998 C2027 0.950 . S
H1999 C2028 0.952 1_554 S
H2000 C2030 0.950 . S
H2001 C2031 0.950 . S
C2002 H1984 0.951 . S
C2002 C2003 1.366 . S
C2002 C2004 1.388 . S
C2003 C2002 1.366 . S
C2003 C2007 1.385 . S
C2004 H1985 0.951 . S
C2004 C2002 1.388 . S
C2004 C2005 1.366 . S
C2005 C2004 1.366 . S
C2005 C2006 1.414 . S
C2005 C2008 1.499 . S
C2006 H1986 0.950 . S
C2006 C2005 1.414 . S
C2006 C2007 1.374 . S
C2007 H1987 0.950 . S
C2007 C2003 1.385 . S
C2007 C2006 1.374 . S
C2008 C2005 1.499 . S
C2008 C2009 1.373 . S
C2008 C2010 1.389 . S
C2009 H1988 0.950 . S
C2009 C2008 1.373 . S
C2009 C2025 1.377 . S
C2010 C2008 1.389 . S
C2010 C2011 1.524 . S
C2010 C2024 1.377 . S
C2011 C2010 1.524 . S
C2011 C2012 1.397 . S
C2011 C2016 1.363 . S
C2012 H1989 0.950 . S
C2012 C2011 1.397 . S
C2012 C2013 1.334 . S
C2013 H1990 0.950 . S
C2013 C2012 1.334 . S
C2013 C2014 1.287 . S
C2014 C2013 1.287 . S
C2014 C2015 1.524 . S
C2014 H2033 0.913 . S
C2015 H1991 0.950 . S
C2015 C2014 1.524 . S
C2015 C2016 1.415 . S
C2016 H1992 0.950 . S
C2016 C2011 1.363 . S
C2016 C2015 1.415 . S
C2017 H1993 0.951 . S
C2017 C2018 1.366 . S
C2017 C2019 1.388 . S
C2018 C2017 1.366 . S
C2018 C2022 1.385 . S
C2019 H1994 0.951 . S
C2019 C2017 1.388 . S
C2019 C2020 1.366 . S
C2020 C2019 1.366 . S
C2020 C2021 1.414 . S
C2020 C2023 1.499 1_556 S
C2021 H1995 0.950 1_556 S
C2021 C2020 1.414 . S
C2021 C2022 1.374 . S
C2022 H1996 0.950 . S
C2022 C2018 1.385 . S
C2022 C2021 1.374 . S
C2023 C2020 1.499 1_554 S
C2023 C2024 1.373 . S
C2023 C2025 1.389 . S
C2024 H1997 0.950 . S
C2024 C2010 1.377 . S
C2024 C2023 1.373 . S
C2025 C2009 1.377 . S
C2025 C2023 1.389 . S
C2025 C2026 1.512 1_554 S
C2026 C2025 1.512 1_556 S
C2026 C2027 1.389 1_556 S
C2026 C2031 1.380 . S
C2027 H1998 0.950 . S
C2027 C2026 1.389 1_554 S
C2027 C2028 1.334 1_554 S
C2028 H1999 0.952 1_556 S
C2028 C2027 1.334 1_556 S
C2028 C2029 1.287 . S
C2029 C2028 1.287 . S
C2029 C2030 1.524 . S
C2029 H2032 0.999 . S
C2030 H2000 0.950 . S
C2030 C2029 1.524 . S
C2030 C2031 1.415 . S
C2031 H2001 0.950 . S
C2031 C2026 1.380 . S
C2031 C2030 1.415 . S
H2032 C2029 0.999 . S
H2033 C2014 0.913 . S
H2034 C2052 0.951 . S
H2035 C2054 0.951 . S
H2036 C2056 0.950 . S
H2037 C2057 0.950 . S
H2038 C2059 0.950 . S
H2039 C2062 0.950 . S
H2040 C2063 0.950 . S
H2041 C2065 0.950 . S
H2042 C2066 0.950 . S
H2043 C2067 0.951 . S
H2044 C2069 0.951 . S
H2045 C2071 0.950 . S
H2046 C2072 0.950 . S
H2047 C2074 0.950 . S
H2048 C2077 0.950 . S
H2049 C2078 0.950 . S
H2050 C2080 0.950 . S
H2051 C2081 0.950 . S
C2052 H2034 0.951 . S
C2052 C2053 1.366 . S
C2052 C2054 1.388 . S
C2053 C2052 1.366 . S
C2053 C2057 1.385 . S
C2054 H2035 0.951 . S
C2054 C2052 1.388 . S
C2054 C2055 1.366 . S
C2055 C2054 1.366 . S
C2055 C2056 1.414 . S
C2055 C2058 1.499 . S
C2056 H2036 0.950 . S
C2056 C2055 1.414 . S
C2056 C2057 1.374 . S
C2057 H2037 0.950 . S
C2057 C2053 1.385 . S
C2057 C2056 1.374 . S
C2058 C2055 1.499 . S
C2058 C2059 1.373 . S
C2058 C2060 1.389 . S
C2059 H2038 0.950 . S
C2059 C2058 1.373 . S
C2059 C2075 1.377 . S
C2060 C2058 1.389 . S
C2060 C2061 1.524 . S
C2060 C2074 1.377 . S
C2061 C2060 1.524 . S
C2061 C2062 1.397 . S
C2061 C2066 1.363 . S
C2062 H2039 0.950 . S
C2062 C2061 1.397 . S
C2062 C2063 1.334 . S
C2063 H2040 0.950 . S
C2063 C2062 1.334 . S
C2063 C2064 1.287 . S
C2064 C2063 1.287 . S
C2064 C2065 1.524 . S
C2064 H2083 0.913 . S
C2065 H2041 0.950 . S
C2065 C2064 1.524 . S
C2065 C2066 1.415 . S
C2066 H2042 0.950 . S
C2066 C2061 1.363 . S
C2066 C2065 1.415 . S
C2067 H2043 0.951 . S
C2067 C2068 1.366 . S
C2067 C2069 1.388 . S
C2068 C2067 1.366 . S
C2068 C2072 1.385 . S
C2069 H2044 0.951 . S
C2069 C2067 1.388 . S
C2069 C2070 1.366 . S
C2070 C2069 1.366 . S
C2070 C2071 1.414 . S
C2070 C2073 1.499 . S
C2071 H2045 0.950 . S
C2071 C2070 1.414 . S
C2071 C2072 1.374 . S
C2072 H2046 0.950 . S
C2072 C2068 1.385 . S
C2072 C2071 1.374 . S
C2073 C2070 1.499 . S
C2073 C2074 1.373 . S
C2073 C2075 1.389 . S
C2074 H2047 0.950 . S
C2074 C2060 1.377 . S
C2074 C2073 1.373 . S
C2075 C2059 1.377 . S
C2075 C2073 1.389 . S
C2075 C2076 1.524 . S
C2076 C2075 1.524 . S
C2076 C2077 1.397 . S
C2076 C2081 1.363 . S
C2077 H2048 0.950 . S
C2077 C2076 1.397 . S
C2077 C2078 1.334 . S
C2078 H2049 0.950 . S
C2078 C2077 1.334 . S
C2078 C2079 1.287 . S
C2079 C2078 1.287 . S
C2079 C2080 1.524 . S
C2079 H2082 0.999 . S
C2080 H2050 0.950 . S
C2080 C2079 1.524 . S
C2080 C2081 1.415 . S
C2081 H2051 0.950 . S
C2081 C2076 1.363 . S
C2081 C2080 1.415 . S
H2082 C2079 0.999 . S
H2083 C2064 0.913 . S
H2084 C2102 0.951 . S
H2085 C2104 0.951 . S
H2086 C2106 0.950 . S
H2087 C2107 0.950 . S
H2088 C2109 0.950 . S
H2089 C2112 0.950 . S
H2090 C2113 0.950 . S
H2091 C2115 0.950 . S
H2092 C2116 0.950 . S
H2093 C2117 0.951 . S
H2094 C2119 0.951 . S
H2095 C2121 0.950 . S
H2096 C2122 0.950 . S
H2097 C2124 0.950 . S
H2098 C2127 0.950 . S
H2099 C2128 0.950 . S
H2100 C2130 0.950 . S
H2101 C2131 0.950 . S
C2102 H2084 0.951 . S
C2102 C2103 1.366 . S
C2102 C2104 1.388 . S
C2103 C2102 1.366 . S
C2103 C2107 1.385 . S
C2104 H2085 0.951 . S
C2104 C2102 1.388 . S
C2104 C2105 1.366 . S
C2105 C2104 1.366 . S
C2105 C2106 1.414 . S
C2105 C2108 1.499 . S
C2106 H2086 0.950 . S
C2106 C2105 1.414 . S
C2106 C2107 1.374 . S
C2107 H2087 0.950 . S
C2107 C2103 1.385 . S
C2107 C2106 1.374 . S
C2108 C2105 1.499 . S
C2108 C2109 1.373 . S
C2108 C2110 1.389 . S
C2109 H2088 0.950 . S
C2109 C2108 1.373 . S
C2109 C2125 1.377 . S
C2110 C2108 1.389 . S
C2110 C2111 1.524 . S
C2110 C2124 1.377 . S
C2111 C2110 1.524 . S
C2111 C2112 1.397 . S
C2111 C2116 1.363 . S
C2112 H2089 0.950 . S
C2112 C2111 1.397 . S
C2112 C2113 1.334 . S
C2113 H2090 0.950 . S
C2113 C2112 1.334 . S
C2113 C2114 1.287 . S
C2114 C2113 1.287 . S
C2114 C2115 1.524 . S
C2114 H2133 0.913 . S
C2115 H2091 0.950 . S
C2115 C2114 1.524 . S
C2115 C2116 1.415 . S
C2116 H2092 0.950 . S
C2116 C2111 1.363 . S
C2116 C2115 1.415 . S
C2117 H2093 0.951 . S
C2117 C2118 1.366 . S
C2117 C2119 1.388 . S
C2118 C2117 1.366 . S
C2118 C2122 1.385 . S
C2119 H2094 0.951 . S
C2119 C2117 1.388 . S
C2119 C2120 1.366 . S
C2120 C2119 1.366 . S
C2120 C2121 1.414 . S
C2120 C2123 1.499 . S
C2121 H2095 0.950 . S
C2121 C2120 1.414 . S
C2121 C2122 1.374 . S
C2122 H2096 0.950 . S
C2122 C2118 1.385 . S
C2122 C2121 1.374 . S
C2123 C2120 1.499 . S
C2123 C2124 1.373 . S
C2123 C2125 1.389 . S
C2124 H2097 0.950 . S
C2124 C2110 1.377 . S
C2124 C2123 1.373 . S
C2125 C2109 1.377 . S
C2125 C2123 1.389 . S
C2125 C2126 1.524 . S
C2126 C2125 1.524 . S
C2126 C2127 1.397 . S
C2126 C2131 1.363 . S
C2127 H2098 0.950 . S
C2127 C2126 1.397 . S
C2127 C2128 1.334 . S
C2128 H2099 0.950 . S
C2128 C2127 1.334 . S
C2128 C2129 1.287 . S
C2129 C2128 1.287 . S
C2129 C2130 1.524 . S
C2129 H2132 0.999 . S
C2130 H2100 0.950 . S
C2130 C2129 1.524 . S
C2130 C2131 1.415 . S
C2131 H2101 0.950 . S
C2131 C2126 1.363 . S
C2131 C2130 1.415 . S
H2132 C2129 0.999 . S
H2133 C2114 0.913 . S
H2134 C2152 0.951 . S
H2135 C2154 0.951 . S
H2136 C2156 0.950 . S
H2137 C2157 0.950 . S
H2138 C2159 0.950 . S
H2139 C2162 0.950 . S
H2140 C2163 0.950 . S
H2141 C2165 0.950 . S
H2142 C2166 0.950 . S
H2143 C2167 0.951 . S
H2144 C2169 0.951 . S
H2145 C2171 0.950 . S
H2146 C2172 0.950 . S
H2147 C2174 0.950 . S
H2148 C2177 0.950 . S
H2149 C2178 0.950 . S
H2150 C2180 0.950 . S
H2151 C2181 0.950 . S
C2152 H2134 0.951 . S
C2152 C2153 1.366 . S
C2152 C2154 1.388 . S
C2153 C2152 1.366 . S
C2153 C2157 1.385 . S
C2154 H2135 0.951 . S
C2154 C2152 1.388 . S
C2154 C2155 1.366 . S
C2155 C2154 1.366 . S
C2155 C2156 1.414 . S
C2155 C2158 1.499 . S
C2156 H2136 0.950 . S
C2156 C2155 1.414 . S
C2156 C2157 1.374 . S
C2157 H2137 0.950 . S
C2157 C2153 1.385 . S
C2157 C2156 1.374 . S
C2158 C2155 1.499 . S
C2158 C2159 1.373 . S
C2158 C2160 1.389 . S
C2159 H2138 0.950 . S
C2159 C2158 1.373 . S
C2159 C2175 1.377 . S
C2160 C2158 1.389 . S
C2160 C2161 1.524 . S
C2160 C2174 1.377 . S
C2161 C2160 1.524 . S
C2161 C2162 1.397 . S
C2161 C2166 1.363 . S
C2162 H2139 0.950 . S
C2162 C2161 1.397 . S
C2162 C2163 1.334 . S
C2163 H2140 0.950 . S
C2163 C2162 1.334 . S
C2163 C2164 1.287 . S
C2164 C2163 1.287 . S
C2164 C2165 1.524 . S
C2164 H2183 0.913 . S
C2165 H2141 0.950 . S
C2165 C2164 1.524 . S
C2165 C2166 1.415 . S
C2166 H2142 0.950 . S
C2166 C2161 1.363 . S
C2166 C2165 1.415 . S
C2167 H2143 0.951 . S
C2167 C2168 1.366 . S
C2167 C2169 1.388 . S
C2168 C2167 1.366 . S
C2168 C2172 1.385 . S
C2169 H2144 0.951 . S
C2169 C2167 1.388 . S
C2169 C2170 1.366 . S
C2170 C2169 1.366 . S
C2170 C2171 1.414 . S
C2170 C2173 1.499 . S
C2171 H2145 0.950 . S
C2171 C2170 1.414 . S
C2171 C2172 1.374 . S
C2172 H2146 0.950 . S
C2172 C2168 1.385 . S
C2172 C2171 1.374 . S
C2173 C2170 1.499 . S
C2173 C2174 1.373 . S
C2173 C2175 1.389 . S
C2174 H2147 0.950 . S
C2174 C2160 1.377 . S
C2174 C2173 1.373 . S
C2175 C2159 1.377 . S
C2175 C2173 1.389 . S
C2175 C2176 1.524 . S
C2176 C2175 1.524 . S
C2176 C2177 1.397 . S
C2176 C2181 1.363 . S
C2177 H2148 0.950 . S
C2177 C2176 1.397 . S
C2177 C2178 1.334 . S
C2178 H2149 0.950 . S
C2178 C2177 1.334 . S
C2178 C2179 1.287 . S
C2179 C2178 1.287 . S
C2179 C2180 1.524 . S
C2179 H2182 0.999 . S
C2180 H2150 0.950 . S
C2180 C2179 1.524 . S
C2180 C2181 1.415 . S
C2181 H2151 0.950 . S
C2181 C2176 1.363 . S
C2181 C2180 1.415 . S
H2182 C2179 0.999 . S
H2183 C2164 0.913 . S
H2184 C2202 0.951 . S
H2185 C2204 0.951 . S
H2186 C2206 0.950 . S
H2187 C2207 0.950 . S
H2188 C2209 0.950 . S
H2189 C2212 0.950 . S
H2190 C2213 0.950 . S
H2191 C2215 0.950 . S
H2192 C2216 0.950 . S
H2193 C2217 0.951 . S
H2194 C2219 0.951 . S
H2195 C2221 0.950 . S
H2196 C2222 0.950 . S
H2197 C2224 0.950 . S
H2198 C2227 0.950 . S
H2199 C2228 0.950 . S
H2200 C2230 0.950 . S
H2201 C2231 0.950 . S
C2202 H2184 0.951 . S
C2202 C2203 1.366 . S
C2202 C2204 1.388 . S
C2203 C2202 1.366 . S
C2203 C2207 1.385 . S
C2204 H2185 0.951 . S
C2204 C2202 1.388 . S
C2204 C2205 1.366 . S
C2205 C2204 1.366 . S
C2205 C2206 1.414 . S
C2205 C2208 1.499 . S
C2206 H2186 0.950 . S
C2206 C2205 1.414 . S
C2206 C2207 1.374 . S
C2207 H2187 0.950 . S
C2207 C2203 1.385 . S
C2207 C2206 1.374 . S
C2208 C2205 1.499 . S
C2208 C2209 1.373 . S
C2208 C2210 1.389 . S
C2209 H2188 0.950 . S
C2209 C2208 1.373 . S
C2209 C2225 1.377 . S
C2210 C2208 1.389 . S
C2210 C2211 1.524 . S
C2210 C2224 1.377 . S
C2211 C2210 1.524 . S
C2211 C2212 1.397 . S
C2211 C2216 1.363 . S
C2212 H2189 0.950 . S
C2212 C2211 1.397 . S
C2212 C2213 1.334 . S
C2213 H2190 0.950 . S
C2213 C2212 1.334 . S
C2213 C2214 1.287 . S
C2214 C2213 1.287 . S
C2214 C2215 1.524 . S
C2214 H2233 0.913 . S
C2215 H2191 0.950 . S
C2215 C2214 1.524 . S
C2215 C2216 1.415 . S
C2216 H2192 0.950 . S
C2216 C2211 1.363 . S
C2216 C2215 1.415 . S
C2217 H2193 0.951 . S
C2217 C2218 1.366 . S
C2217 C2219 1.388 . S
C2218 C2217 1.366 . S
C2218 C2222 1.385 . S
C2219 H2194 0.951 . S
C2219 C2217 1.388 . S
C2219 C2220 1.366 . S
C2220 C2219 1.366 . S
C2220 C2221 1.414 . S
C2220 C2223 1.499 . S
C2221 H2195 0.950 . S
C2221 C2220 1.414 . S
C2221 C2222 1.374 . S
C2222 H2196 0.950 . S
C2222 C2218 1.385 . S
C2222 C2221 1.374 . S
C2223 C2220 1.499 . S
C2223 C2224 1.373 . S
C2223 C2225 1.389 . S
C2224 H2197 0.950 . S
C2224 C2210 1.377 . S
C2224 C2223 1.373 . S
C2225 C2209 1.377 . S
C2225 C2223 1.389 . S
C2225 C2226 1.524 . S
C2226 C2225 1.524 . S
C2226 C2227 1.397 . S
C2226 C2231 1.363 . S
C2227 H2198 0.950 . S
C2227 C2226 1.397 . S
C2227 C2228 1.334 . S
C2228 H2199 0.950 . S
C2228 C2227 1.334 . S
C2228 C2229 1.287 . S
C2229 C2228 1.287 . S
C2229 C2230 1.524 . S
C2229 H2232 0.999 . S
C2230 H2200 0.950 . S
C2230 C2229 1.524 . S
C2230 C2231 1.415 . S
C2231 H2201 0.950 . S
C2231 C2226 1.363 . S
C2231 C2230 1.415 . S
H2232 C2229 0.999 . S
H2233 C2214 0.913 . S
H2234 C2252 0.951 . S
H2235 C2254 0.951 . S
H2236 C2256 0.950 . S
H2237 C2257 0.950 . S
H2238 C2259 0.950 . S
H2239 C2262 0.950 . S
H2240 C2263 0.950 . S
H2241 C2265 0.950 . S
H2242 C2266 0.950 . S
H2243 C2267 0.951 . S
H2244 C2269 0.951 . S
H2245 C2271 0.950 . S
H2246 C2272 0.950 . S
H2247 C2274 0.950 . S
H2248 C2277 0.950 . S
H2249 C2278 0.950 . S
H2250 C2280 0.950 . S
H2251 C2281 0.950 . S
C2252 H2234 0.951 . S
C2252 C2253 1.366 . S
C2252 C2254 1.388 . S
C2253 C2252 1.366 . S
C2253 C2257 1.385 . S
C2254 H2235 0.951 . S
C2254 C2252 1.388 . S
C2254 C2255 1.366 . S
C2255 C2254 1.366 . S
C2255 C2256 1.414 . S
C2255 C2258 1.499 . S
C2256 H2236 0.950 . S
C2256 C2255 1.414 . S
C2256 C2257 1.374 . S
C2257 H2237 0.950 . S
C2257 C2253 1.385 . S
C2257 C2256 1.374 . S
C2258 C2255 1.499 . S
C2258 C2259 1.373 . S
C2258 C2260 1.389 . S
C2259 H2238 0.950 . S
C2259 C2258 1.373 . S
C2259 C2275 1.377 . S
C2260 C2258 1.389 . S
C2260 C2261 1.524 . S
C2260 C2274 1.377 . S
C2261 C2260 1.524 . S
C2261 C2262 1.397 . S
C2261 C2266 1.363 . S
C2262 H2239 0.950 . S
C2262 C2261 1.397 . S
C2262 C2263 1.334 . S
C2263 H2240 0.950 . S
C2263 C2262 1.334 . S
C2263 C2264 1.287 . S
C2264 C2263 1.287 . S
C2264 C2265 1.524 . S
C2264 H2283 0.913 . S
C2265 H2241 0.950 . S
C2265 C2264 1.524 . S
C2265 C2266 1.415 . S
C2266 H2242 0.950 . S
C2266 C2261 1.363 . S
C2266 C2265 1.415 . S
C2267 H2243 0.951 . S
C2267 C2268 1.366 . S
C2267 C2269 1.388 . S
C2268 C2267 1.366 . S
C2268 C2272 1.385 . S
C2269 H2244 0.951 . S
C2269 C2267 1.388 . S
C2269 C2270 1.366 . S
C2270 C2269 1.366 . S
C2270 C2271 1.414 . S
C2270 C2273 1.499 . S
C2271 H2245 0.950 . S
C2271 C2270 1.414 . S
C2271 C2272 1.374 . S
C2272 H2246 0.950 . S
C2272 C2268 1.385 . S
C2272 C2271 1.374 . S
C2273 C2270 1.499 . S
C2273 C2274 1.373 . S
C2273 C2275 1.389 . S
C2274 H2247 0.950 . S
C2274 C2260 1.377 . S
C2274 C2273 1.373 . S
C2275 C2259 1.377 . S
C2275 C2273 1.389 . S
C2275 C2276 1.524 . S
C2276 C2275 1.524 . S
C2276 C2277 1.397 . S
C2276 C2281 1.363 . S
C2277 H2248 0.950 . S
C2277 C2276 1.397 . S
C2277 C2278 1.334 . S
C2278 H2249 0.950 . S
C2278 C2277 1.334 . S
C2278 C2279 1.287 . S
C2279 C2278 1.287 . S
C2279 C2280 1.524 . S
C2279 H2282 0.999 . S
C2280 H2250 0.950 . S
C2280 C2279 1.524 . S
C2280 C2281 1.415 . S
C2281 H2251 0.950 . S
C2281 C2276 1.363 . S
C2281 C2280 1.415 . S
H2282 C2279 0.999 . S
H2283 C2264 0.913 . S
H2284 C2302 0.951 . S
H2285 C2304 0.951 . S
H2286 C2306 0.950 . S
H2287 C2307 0.950 . S
H2288 C2309 0.950 . S
H2289 C2312 0.950 . S
H2290 C2313 0.950 . S
H2291 C2315 0.950 . S
H2292 C2316 0.950 . S
H2293 C2317 0.951 . S
H2294 C2319 0.951 . S
H2295 C2321 0.950 . S
H2296 C2322 0.950 . S
H2297 C2324 0.950 . S
H2298 C2327 0.950 . S
H2299 C2328 0.950 . S
H2300 C2330 0.950 . S
H2301 C2331 0.950 . S
C2302 H2284 0.951 . S
C2302 C2303 1.366 . S
C2302 C2304 1.388 . S
C2303 C2302 1.366 . S
C2303 C2307 1.385 . S
C2304 H2285 0.951 . S
C2304 C2302 1.388 . S
C2304 C2305 1.366 . S
C2305 C2304 1.366 . S
C2305 C2306 1.414 . S
C2305 C2308 1.499 . S
C2306 H2286 0.950 . S
C2306 C2305 1.414 . S
C2306 C2307 1.374 . S
C2307 H2287 0.950 . S
C2307 C2303 1.385 . S
C2307 C2306 1.374 . S
C2308 C2305 1.499 . S
C2308 C2309 1.373 . S
C2308 C2310 1.389 . S
C2309 H2288 0.950 . S
C2309 C2308 1.373 . S
C2309 C2325 1.377 . S
C2310 C2308 1.389 . S
C2310 C2311 1.524 . S
C2310 C2324 1.377 . S
C2311 C2310 1.524 . S
C2311 C2312 1.397 . S
C2311 C2316 1.363 . S
C2312 H2289 0.950 . S
C2312 C2311 1.397 . S
C2312 C2313 1.334 . S
C2313 H2290 0.950 . S
C2313 C2312 1.334 . S
C2313 C2314 1.287 . S
C2314 C2313 1.287 . S
C2314 C2315 1.524 . S
C2314 H2333 0.913 . S
C2315 H2291 0.950 . S
C2315 C2314 1.524 . S
C2315 C2316 1.415 . S
C2316 H2292 0.950 . S
C2316 C2311 1.363 . S
C2316 C2315 1.415 . S
C2317 H2293 0.951 . S
C2317 C2318 1.366 . S
C2317 C2319 1.388 . S
C2318 C2317 1.366 . S
C2318 C2322 1.385 . S
C2319 H2294 0.951 . S
C2319 C2317 1.388 . S
C2319 C2320 1.366 . S
C2320 C2319 1.366 . S
C2320 C2321 1.414 . S
C2320 C2323 1.499 . S
C2321 H2295 0.950 . S
C2321 C2320 1.414 . S
C2321 C2322 1.374 . S
C2322 H2296 0.950 . S
C2322 C2318 1.385 . S
C2322 C2321 1.374 . S
C2323 C2320 1.499 . S
C2323 C2324 1.373 . S
C2323 C2325 1.389 . S
C2324 H2297 0.950 . S
C2324 C2310 1.377 . S
C2324 C2323 1.373 . S
C2325 C2309 1.377 . S
C2325 C2323 1.389 . S
C2325 C2326 1.524 . S
C2326 C2325 1.524 . S
C2326 C2327 1.397 . S
C2326 C2331 1.363 . S
C2327 H2298 0.950 . S
C2327 C2326 1.397 . S
C2327 C2328 1.334 . S
C2328 H2299 0.950 . S
C2328 C2327 1.334 . S
C2328 C2329 1.287 . S
C2329 C2328 1.287 . S
C2329 C2330 1.524 . S
C2329 H2332 0.999 . S
C2330 H2300 0.950 . S
C2330 C2329 1.524 . S
C2330 C2331 1.415 . S
C2331 H2301 0.950 . S
C2331 C2326 1.363 . S
C2331 C2330 1.415 . S
H2332 C2329 0.999 . S
H2333 C2314 0.913 . S
H2334 C2352 0.951 . S
H2335 C2354 0.951 . S
H2336 C2356 0.950 . S
H2337 C2357 0.950 . S
H2338 C2359 0.950 . S
H2339 C2362 0.950 . S
H2340 C2363 0.950 . S
H2341 C2365 0.950 . S
H2342 C2366 0.950 . S
H2343 C2367 0.951 . S
H2344 C2369 0.951 . S
H2345 C2371 0.950 . S
H2346 C2372 0.950 . S
H2347 C2374 0.950 1_554 S
H2348 C2377 0.950 . S
H2349 C2378 0.950 . S
H2350 C2380 0.950 . S
H2351 C2381 0.950 . S
C2352 H2334 0.951 . S
C2352 C2353 1.366 . S
C2352 C2354 1.388 . S
C2353 C2352 1.366 . S
C2353 C2357 1.385 . S
C2354 H2335 0.951 . S
C2354 C2352 1.388 . S
C2354 C2355 1.366 . S
C2355 C2354 1.366 . S
C2355 C2356 1.414 . S
C2355 C2358 1.499 . S
C2356 H2336 0.950 . S
C2356 C2355 1.414 . S
C2356 C2357 1.374 . S
C2357 H2337 0.950 . S
C2357 C2353 1.385 . S
C2357 C2356 1.374 . S
C2358 C2355 1.499 . S
C2358 C2359 1.373 1_554 S
C2358 C2360 1.389 . S
C2359 H2338 0.950 . S
C2359 C2358 1.373 1_556 S
C2359 C2375 1.377 . S
C2360 C2358 1.389 . S
C2360 C2361 1.524 . S
C2360 C2374 1.377 1_554 S
C2361 C2360 1.524 . S
C2361 C2362 1.397 . S
C2361 C2366 1.363 . S
C2362 H2339 0.950 . S
C2362 C2361 1.397 . S
C2362 C2363 1.334 . S
C2363 H2340 0.950 . S
C2363 C2362 1.334 . S
C2363 C2364 1.287 . S
C2364 C2363 1.287 . S
C2364 C2365 1.524 . S
C2364 H2383 0.913 . S
C2365 H2341 0.950 . S
C2365 C2364 1.524 . S
C2365 C2366 1.415 . S
C2366 H2342 0.950 . S
C2366 C2361 1.363 . S
C2366 C2365 1.415 . S
C2367 H2343 0.951 . S
C2367 C2368 1.366 . S
C2367 C2369 1.388 . S
C2368 C2367 1.366 . S
C2368 C2372 1.385 . S
C2369 H2344 0.951 . S
C2369 C2367 1.388 . S
C2369 C2370 1.366 . S
C2370 C2369 1.366 . S
C2370 C2371 1.414 . S
C2370 C2373 1.499 . S
C2371 H2345 0.950 . S
C2371 C2370 1.414 . S
C2371 C2372 1.374 . S
C2372 H2346 0.950 . S
C2372 C2368 1.385 . S
C2372 C2371 1.374 . S
C2373 C2370 1.499 . S
C2373 C2374 1.373 . S
C2373 C2375 1.389 . S
C2374 H2347 0.950 1_556 S
C2374 C2360 1.377 1_556 S
C2374 C2373 1.373 . S
C2375 C2359 1.377 . S
C2375 C2373 1.389 . S
C2375 C2376 1.524 . S
C2376 C2375 1.524 . S
C2376 C2377 1.397 . S
C2376 C2381 1.363 . S
C2377 H2348 0.950 . S
C2377 C2376 1.397 . S
C2377 C2378 1.334 . S
C2378 H2349 0.950 . S
C2378 C2377 1.334 . S
C2378 C2379 1.287 . S
C2379 C2378 1.287 . S
C2379 C2380 1.524 . S
C2379 H2382 0.999 . S
C2380 H2350 0.950 . S
C2380 C2379 1.524 . S
C2380 C2381 1.415 . S
C2381 H2351 0.950 . S
C2381 C2376 1.363 . S
C2381 C2380 1.415 . S
H2382 C2379 0.999 . S
H2383 C2364 0.913 . S
H2384 C2402 0.951 . S
H2385 C2404 0.951 . S
H2386 C2406 0.950 . S
H2387 C2407 0.950 . S
H2388 C2409 0.950 . S
H2389 C2412 0.950 . S
H2390 C2413 0.950 . S
H2391 C2415 0.950 . S
H2392 C2416 0.950 . S
H2393 C2417 0.951 . S
H2394 C2419 0.951 . S
H2395 C2421 0.950 . S
H2396 C2422 0.950 . S
H2397 C2424 0.950 . S
H2398 C2427 0.950 . S
H2399 C2428 0.950 . S
H2400 C2430 0.950 . S
H2401 C2431 0.950 . S
C2402 H2384 0.951 . S
C2402 C2403 1.366 . S
C2402 C2404 1.388 . S
C2403 C2402 1.366 . S
C2403 C2407 1.385 . S
C2404 H2385 0.951 . S
C2404 C2402 1.388 . S
C2404 C2405 1.366 . S
C2405 C2404 1.366 . S
C2405 C2406 1.414 . S
C2405 C2408 1.499 . S
C2406 H2386 0.950 . S
C2406 C2405 1.414 . S
C2406 C2407 1.374 . S
C2407 H2387 0.950 . S
C2407 C2403 1.385 . S
C2407 C2406 1.374 . S
C2408 C2405 1.499 . S
C2408 C2409 1.373 . S
C2408 C2410 1.389 1_455 S
C2409 H2388 0.950 . S
C2409 C2408 1.373 . S
C2409 C2425 1.377 . S
C2410 C2408 1.389 1_655 S
C2410 C2411 1.524 . S
C2410 C2424 1.377 . S
C2411 C2410 1.524 . S
C2411 C2412 1.397 . S
C2411 C2416 1.363 . S
C2412 H2389 0.950 . S
C2412 C2411 1.397 . S
C2412 C2413 1.334 . S
C2413 H2390 0.950 . S
C2413 C2412 1.334 . S
C2413 C2414 1.287 . S
C2414 C2413 1.287 . S
C2414 C2415 1.524 . S
C2414 H2433 0.913 . S
C2415 H2391 0.950 . S
C2415 C2414 1.524 . S
C2415 C2416 1.415 . S
C2416 H2392 0.950 . S
C2416 C2411 1.363 . S
C2416 C2415 1.415 . S
C2417 H2393 0.951 . S
C2417 C2418 1.366 . S
C2417 C2419 1.388 . S
C2418 C2417 1.366 . S
C2418 C2422 1.385 . S
C2419 H2394 0.951 . S
C2419 C2417 1.388 . S
C2419 C2420 1.366 . S
C2420 C2419 1.366 . S
C2420 C2421 1.414 . S
C2420 C2423 1.499 . S
C2421 H2395 0.950 . S
C2421 C2420 1.414 . S
C2421 C2422 1.374 . S
C2422 H2396 0.950 . S
C2422 C2418 1.385 . S
C2422 C2421 1.374 . S
C2423 C2420 1.499 . S
C2423 C2424 1.373 . S
C2423 C2425 1.389 1_655 S
C2424 H2397 0.950 . S
C2424 C2410 1.377 . S
C2424 C2423 1.373 . S
C2425 C2409 1.377 . S
C2425 C2423 1.389 1_455 S
C2425 C2426 1.524 . S
C2426 C2425 1.524 . S
C2426 C2427 1.397 . S
C2426 C2431 1.363 . S
C2427 H2398 0.950 . S
C2427 C2426 1.397 . S
C2427 C2428 1.334 . S
C2428 H2399 0.950 . S
C2428 C2427 1.334 . S
C2428 C2429 1.287 . S
C2429 C2428 1.287 . S
C2429 C2430 1.524 . S
C2429 H2432 0.999 . S
C2430 H2400 0.950 . S
C2430 C2429 1.524 . S
C2430 C2431 1.415 . S
C2431 H2401 0.950 . S
C2431 C2426 1.363 . S
C2431 C2430 1.415 . S
H2432 C2429 0.999 . S
H2433 C2414 0.913 . S
H2434 C2452 0.951 . S
H2435 C2454 0.951 . S
H2436 C2456 0.950 . S
H2437 C2457 0.950 . S
H2438 C2459 0.950 . S
H2439 C2462 0.950 . S
H2440 C2463 0.950 . S
H2441 C2465 0.950 . S
H2442 C2466 0.950 . S
H2443 C2467 0.951 . S
H2444 C2469 0.951 . S
H2445 C2471 0.950 . S
H2446 C2472 0.950 . S
H2447 C2474 0.950 . S
H2448 C2477 0.950 . S
H2449 C2478 0.950 . S
H2450 C2480 0.950 . S
H2451 C2481 0.950 . S
C2452 H2434 0.951 . S
C2452 C2453 1.366 . S
C2452 C2454 1.388 . S
C2453 C2452 1.366 . S
C2453 C2457 1.385 . S
C2454 H2435 0.951 . S
C2454 C2452 1.388 . S
C2454 C2455 1.366 . S
C2455 C2454 1.366 . S
C2455 C2456 1.414 . S
C2455 C2458 1.499 . S
C2456 H2436 0.950 . S
C2456 C2455 1.414 . S
C2456 C2457 1.374 . S
C2457 H2437 0.950 . S
C2457 C2453 1.385 . S
C2457 C2456 1.374 . S
C2458 C2455 1.499 . S
C2458 C2459 1.373 . S
C2458 C2460 1.389 . S
C2459 H2438 0.950 . S
C2459 C2458 1.373 . S
C2459 C2475 1.377 . S
C2460 C2458 1.389 . S
C2460 C2461 1.524 . S
C2460 C2474 1.377 . S
C2461 C2460 1.524 . S
C2461 C2462 1.397 . S
C2461 C2466 1.363 . S
C2462 H2439 0.950 . S
C2462 C2461 1.397 . S
C2462 C2463 1.334 . S
C2463 H2440 0.950 . S
C2463 C2462 1.334 . S
C2463 C2464 1.287 . S
C2464 C2463 1.287 . S
C2464 C2465 1.524 . S
C2464 H2483 0.913 . S
C2465 H2441 0.950 . S
C2465 C2464 1.524 . S
C2465 C2466 1.415 . S
C2466 H2442 0.950 . S
C2466 C2461 1.363 . S
C2466 C2465 1.415 . S
C2467 H2443 0.951 . S
C2467 C2468 1.366 . S
C2467 C2469 1.388 . S
C2468 C2467 1.366 . S
C2468 C2472 1.385 . S
C2469 H2444 0.951 . S
C2469 C2467 1.388 . S
C2469 C2470 1.366 . S
C2470 C2469 1.366 . S
C2470 C2471 1.414 . S
C2470 C2473 1.499 . S
C2471 H2445 0.950 . S
C2471 C2470 1.414 . S
C2471 C2472 1.374 . S
C2472 H2446 0.950 . S
C2472 C2468 1.385 . S
C2472 C2471 1.374 . S
C2473 C2470 1.499 . S
C2473 C2474 1.373 . S
C2473 C2475 1.389 . S
C2474 H2447 0.950 . S
C2474 C2460 1.377 . S
C2474 C2473 1.373 . S
C2475 C2459 1.377 . S
C2475 C2473 1.389 . S
C2475 C2476 1.524 . S
C2476 C2475 1.524 . S
C2476 C2477 1.397 . S
C2476 C2481 1.363 . S
C2477 H2448 0.950 . S
C2477 C2476 1.397 . S
C2477 C2478 1.334 . S
C2478 H2449 0.950 . S
C2478 C2477 1.334 . S
C2478 C2479 1.287 . S
C2479 C2478 1.287 . S
C2479 C2480 1.524 . S
C2479 H2482 0.999 . S
C2480 H2450 0.950 . S
C2480 C2479 1.524 . S
C2480 C2481 1.415 . S
C2481 H2451 0.950 . S
C2481 C2476 1.363 . S
C2481 C2480 1.415 . S
H2482 C2479 0.999 . S
H2483 C2464 0.913 . S
H2484 C2502 0.951 . S
H2485 C2504 0.951 . S
H2486 C2506 0.950 . S
H2487 C2507 0.950 . S
H2488 C2509 0.950 . S
H2489 C2512 0.950 . S
H2490 C2513 0.950 . S
H2491 C2515 0.950 . S
H2492 C2516 0.950 . S
H2493 C2517 0.951 . S
H2494 C2519 0.951 . S
H2495 C2521 0.950 . S
H2496 C2522 0.950 . S
H2497 C2524 0.950 . S
H2498 C2527 0.950 . S
H2499 C2528 0.950 . S
H2500 C2530 0.950 . S
H2501 C2531 0.950 . S
C2502 H2484 0.951 . S
C2502 C2503 1.366 . S
C2502 C2504 1.388 . S
C2503 C2502 1.366 . S
C2503 C2507 1.385 . S
C2504 H2485 0.951 . S
C2504 C2502 1.388 . S
C2504 C2505 1.366 . S
C2505 C2504 1.366 . S
C2505 C2506 1.414 . S
C2505 C2508 1.499 . S
C2506 H2486 0.950 . S
C2506 C2505 1.414 . S
C2506 C2507 1.374 . S
C2507 H2487 0.950 . S
C2507 C2503 1.385 . S
C2507 C2506 1.374 . S
C2508 C2505 1.499 . S
C2508 C2509 1.373 . S
C2508 C2510 1.389 . S
C2509 H2488 0.950 . S
C2509 C2508 1.373 . S
C2509 C2525 1.377 . S
C2510 C2508 1.389 . S
C2510 C2511 1.524 . S
C2510 C2524 1.377 . S
C2511 C2510 1.524 . S
C2511 C2512 1.397 . S
C2511 C2516 1.363 . S
C2512 H2489 0.950 . S
C2512 C2511 1.397 . S
C2512 C2513 1.334 . S
C2513 H2490 0.950 . S
C2513 C2512 1.334 . S
C2513 C2514 1.287 . S
C2514 C2513 1.287 . S
C2514 C2515 1.524 . S
C2514 H2533 0.913 . S
C2515 H2491 0.950 . S
C2515 C2514 1.524 . S
C2515 C2516 1.415 . S
C2516 H2492 0.950 . S
C2516 C2511 1.363 . S
C2516 C2515 1.415 . S
C2517 H2493 0.951 . S
C2517 C2518 1.366 . S
C2517 C2519 1.388 . S
C2518 C2517 1.366 . S
C2518 C2522 1.385 . S
C2519 H2494 0.951 . S
C2519 C2517 1.388 . S
C2519 C2520 1.366 . S
C2520 C2519 1.366 . S
C2520 C2521 1.414 . S
C2520 C2523 1.499 . S
C2521 H2495 0.950 . S
C2521 C2520 1.414 . S
C2521 C2522 1.374 . S
C2522 H2496 0.950 . S
C2522 C2518 1.385 . S
C2522 C2521 1.374 . S
C2523 C2520 1.499 . S
C2523 C2524 1.373 . S
C2523 C2525 1.389 . S
C2524 H2497 0.950 . S
C2524 C2510 1.377 . S
C2524 C2523 1.373 . S
C2525 C2509 1.377 . S
C2525 C2523 1.389 . S
C2525 C2526 1.524 . S
C2526 C2525 1.524 . S
C2526 C2527 1.397 . S
C2526 C2531 1.363 . S
C2527 H2498 0.950 . S
C2527 C2526 1.397 . S
C2527 C2528 1.334 . S
C2528 H2499 0.950 . S
C2528 C2527 1.334 . S
C2528 C2529 1.287 . S
C2529 C2528 1.287 . S
C2529 C2530 1.524 . S
C2529 H2532 0.999 . S
C2530 H2500 0.950 . S
C2530 C2529 1.524 . S
C2530 C2531 1.415 . S
C2531 H2501 0.950 . S
C2531 C2526 1.363 . S
C2531 C2530 1.415 . S
H2532 C2529 0.999 . S
H2533 C2514 0.913 . S
H2534 C2552 0.951 . S
H2535 C2554 0.951 . S
H2536 C2556 0.950 . S
H2537 C2557 0.950 . S
H2538 C2559 0.950 . S
H2539 C2562 0.950 . S
H2540 C2563 0.950 . S
H2541 C2565 0.950 . S
H2542 C2566 0.950 . S
H2543 C2567 0.951 . S
H2544 C2569 0.951 . S
H2545 C2571 0.950 . S
H2546 C2572 0.950 . S
H2547 C2574 0.950 . S
H2548 C2577 0.950 . S
H2549 C2578 0.950 . S
H2550 C2580 0.950 . S
H2551 C2581 0.950 . S
C2552 H2534 0.951 . S
C2552 C2553 1.366 . S
C2552 C2554 1.388 . S
C2553 C2552 1.366 . S
C2553 C2557 1.385 . S
C2554 H2535 0.951 . S
C2554 C2552 1.388 . S
C2554 C2555 1.366 . S
C2555 C2554 1.366 . S
C2555 C2556 1.414 . S
C2555 C2558 1.499 . S
C2556 H2536 0.950 . S
C2556 C2555 1.414 . S
C2556 C2557 1.374 . S
C2557 H2537 0.950 . S
C2557 C2553 1.385 . S
C2557 C2556 1.374 . S
C2558 C2555 1.499 . S
C2558 C2559 1.373 . S
C2558 C2560 1.389 . S
C2559 H2538 0.950 . S
C2559 C2558 1.373 . S
C2559 C2575 1.377 . S
C2560 C2558 1.389 . S
C2560 C2561 1.524 . S
C2560 C2574 1.377 1_545 S
C2561 C2560 1.524 . S
C2561 C2562 1.397 . S
C2561 C2566 1.363 1_545 S
C2562 H2539 0.950 . S
C2562 C2561 1.397 . S
C2562 C2563 1.334 . S
C2563 H2540 0.950 . S
C2563 C2562 1.334 . S
C2563 C2564 1.329 . S
C2564 C2563 1.329 . S
C2564 C2565 1.498 1_545 S
C2564 H2583 0.900 1_545 S
C2565 H2541 0.950 . S
C2565 C2564 1.498 1_565 S
C2565 C2566 1.415 . S
C2566 H2542 0.950 . S
C2566 C2561 1.363 1_565 S
C2566 C2565 1.415 . S
C2567 H2543 0.951 . S
C2567 C2568 1.366 . S
C2567 C2569 1.388 . S
C2568 C2567 1.366 . S
C2568 C2572 1.385 . S
C2569 H2544 0.951 . S
C2569 C2567 1.388 . S
C2569 C2570 1.366 . S
C2570 C2569 1.366 . S
C2570 C2571 1.414 . S
C2570 C2573 1.499 . S
C2571 H2545 0.950 . S
C2571 C2570 1.414 . S
C2571 C2572 1.374 . S
C2572 H2546 0.950 . S
C2572 C2568 1.385 . S
C2572 C2571 1.374 . S
C2573 C2570 1.499 . S
C2573 C2574 1.373 . S
C2573 C2575 1.389 1_565 S
C2574 H2547 0.950 . S
C2574 C2560 1.377 1_565 S
C2574 C2573 1.373 . S
C2575 C2559 1.377 . S
C2575 C2573 1.389 1_545 S
C2575 C2576 1.524 . S
C2576 C2575 1.524 . S
C2576 C2577 1.397 . S
C2576 C2581 1.363 . S
C2577 H2548 0.950 . S
C2577 C2576 1.397 . S
C2577 C2578 1.334 . S
C2578 H2549 0.950 . S
C2578 C2577 1.334 . S
C2578 C2579 1.287 . S
C2579 C2578 1.287 . S
C2579 C2580 1.524 . S
C2579 H2582 0.999 . S
C2580 H2550 0.950 . S
C2580 C2579 1.524 . S
C2580 C2581 1.415 . S
C2581 H2551 0.950 . S
C2581 C2576 1.363 . S
C2581 C2580 1.415 . S
H2582 C2579 0.999 . S
H2583 C2564 0.900 1_565 S
H2584 C2602 0.951 . S
H2585 C2604 0.951 . S
H2586 C2606 0.950 . S
H2587 C2607 0.950 . S
H2588 C2609 0.950 . S
H2589 C2612 0.950 . S
H2590 C2613 0.950 . S
H2591 C2615 0.950 . S
H2592 C2616 0.950 . S
H2593 C2617 0.951 . S
H2594 C2619 0.951 . S
H2595 C2621 0.950 . S
H2596 C2622 0.950 . S
H2597 C2624 0.950 . S
H2598 C2627 0.950 . S
H2599 C2628 0.950 . S
H2600 C2630 0.950 . S
H2601 C2631 0.950 . S
C2602 H2584 0.951 . S
C2602 C2603 1.366 . S
C2602 C2604 1.388 . S
C2603 C2602 1.366 . S
C2603 C2607 1.385 . S
C2604 H2585 0.951 . S
C2604 C2602 1.388 . S
C2604 C2605 1.366 . S
C2605 C2604 1.366 . S
C2605 C2606 1.414 . S
C2605 C2608 1.499 . S
C2606 H2586 0.950 . S
C2606 C2605 1.414 . S
C2606 C2607 1.374 . S
C2607 H2587 0.950 . S
C2607 C2603 1.385 . S
C2607 C2606 1.374 . S
C2608 C2605 1.499 . S
C2608 C2609 1.373 . S
C2608 C2610 1.389 . S
C2609 H2588 0.950 . S
C2609 C2608 1.373 . S
C2609 C2625 1.377 . S
C2610 C2608 1.389 . S
C2610 C2611 1.524 . S
C2610 C2624 1.377 . S
C2611 C2610 1.524 . S
C2611 C2612 1.397 . S
C2611 C2616 1.363 . S
C2612 H2589 0.950 . S
C2612 C2611 1.397 . S
C2612 C2613 1.334 . S
C2613 H2590 0.950 . S
C2613 C2612 1.334 . S
C2613 C2614 1.287 . S
C2614 C2613 1.287 . S
C2614 C2615 1.524 . S
C2614 H2633 0.913 . S
C2615 H2591 0.950 . S
C2615 C2614 1.524 . S
C2615 C2616 1.415 . S
C2616 H2592 0.950 . S
C2616 C2611 1.363 . S
C2616 C2615 1.415 . S
C2617 H2593 0.951 . S
C2617 C2618 1.366 . S
C2617 C2619 1.388 . S
C2618 C2617 1.366 . S
C2618 C2622 1.385 . S
C2619 H2594 0.951 . S
C2619 C2617 1.388 . S
C2619 C2620 1.366 . S
C2620 C2619 1.366 . S
C2620 C2621 1.414 . S
C2620 C2623 1.499 . S
C2621 H2595 0.950 . S
C2621 C2620 1.414 . S
C2621 C2622 1.374 . S
C2622 H2596 0.950 . S
C2622 C2618 1.385 . S
C2622 C2621 1.374 . S
C2623 C2620 1.499 . S
C2623 C2624 1.373 . S
C2623 C2625 1.389 . S
C2624 H2597 0.950 . S
C2624 C2610 1.377 . S
C2624 C2623 1.373 . S
C2625 C2609 1.377 . S
C2625 C2623 1.389 . S
C2625 C2626 1.524 . S
C2626 C2625 1.524 . S
C2626 C2627 1.397 . S
C2626 C2631 1.363 . S
C2627 H2598 0.950 . S
C2627 C2626 1.397 . S
C2627 C2628 1.334 . S
C2628 H2599 0.950 . S
C2628 C2627 1.334 . S
C2628 C2629 1.287 . S
C2629 C2628 1.287 . S
C2629 C2630 1.524 . S
C2629 H2632 0.999 . S
C2630 H2600 0.950 . S
C2630 C2629 1.524 . S
C2630 C2631 1.415 . S
C2631 H2601 0.950 . S
C2631 C2626 1.363 . S
C2631 C2630 1.415 . S
H2632 C2629 0.999 . S
H2633 C2614 0.913 . S
H2634 C2652 0.951 . S
H2635 C2654 0.951 . S
H2636 C2656 0.950 . S
H2637 C2657 0.950 . S
H2638 C2659 0.950 . S
H2639 C2662 0.950 . S
H2640 C2663 0.950 . S
H2641 C2665 0.950 . S
H2642 C2666 0.950 . S
H2643 C2667 0.951 . S
H2644 C2669 0.951 . S
H2645 C2671 0.950 . S
H2646 C2672 0.950 . S
H2647 C2674 0.950 . S
H2648 C2677 0.950 . S
H2649 C2678 0.950 . S
H2650 C2680 0.950 . S
H2651 C2681 0.950 . S
C2652 H2634 0.951 . S
C2652 C2653 1.366 . S
C2652 C2654 1.388 . S
C2653 C2652 1.366 . S
C2653 C2657 1.385 . S
C2654 H2635 0.951 . S
C2654 C2652 1.388 . S
C2654 C2655 1.366 . S
C2655 C2654 1.366 . S
C2655 C2656 1.414 . S
C2655 C2658 1.499 . S
C2656 H2636 0.950 . S
C2656 C2655 1.414 . S
C2656 C2657 1.374 . S
C2657 H2637 0.950 . S
C2657 C2653 1.385 . S
C2657 C2656 1.374 . S
C2658 C2655 1.499 . S
C2658 C2659 1.373 . S
C2658 C2660 1.389 . S
C2659 H2638 0.950 . S
C2659 C2658 1.373 . S
C2659 C2675 1.377 . S
C2660 C2658 1.389 . S
C2660 C2661 1.524 . S
C2660 C2674 1.377 . S
C2661 C2660 1.524 . S
C2661 C2662 1.397 . S
C2661 C2666 1.363 . S
C2662 H2639 0.950 . S
C2662 C2661 1.397 . S
C2662 C2663 1.334 . S
C2663 H2640 0.950 . S
C2663 C2662 1.334 . S
C2663 C2664 1.287 . S
C2664 C2663 1.287 . S
C2664 C2665 1.524 . S
C2664 H2683 0.913 . S
C2665 H2641 0.950 . S
C2665 C2664 1.524 . S
C2665 C2666 1.415 . S
C2666 H2642 0.950 . S
C2666 C2661 1.363 . S
C2666 C2665 1.415 . S
C2667 H2643 0.951 . S
C2667 C2668 1.366 . S
C2667 C2669 1.388 . S
C2668 C2667 1.366 . S
C2668 C2672 1.385 . S
C2669 H2644 0.951 . S
C2669 C2667 1.388 . S
C2669 C2670 1.366 . S
C2670 C2669 1.366 . S
C2670 C2671 1.414 . S
C2670 C2673 1.499 . S
C2671 H2645 0.950 . S
C2671 C2670 1.414 . S
C2671 C2672 1.374 . S
C2672 H2646 0.950 . S
C2672 C2668 1.385 . S
C2672 C2671 1.374 . S
C2673 C2670 1.499 . S
C2673 C2674 1.373 . S
C2673 C2675 1.389 . S
C2674 H2647 0.950 . S
C2674 C2660 1.377 . S
C2674 C2673 1.373 . S
C2675 C2659 1.377 . S
C2675 C2673 1.389 . S
C2675 C2676 1.524 . S
C2676 C2675 1.524 . S
C2676 C2677 1.397 . S
C2676 C2681 1.363 . S
C2677 H2648 0.950 . S
C2677 C2676 1.397 . S
C2677 C2678 1.334 . S
C2678 H2649 0.950 . S
C2678 C2677 1.334 . S
C2678 C2679 1.287 . S
C2679 C2678 1.287 . S
C2679 C2680 1.524 . S
C2679 H2682 0.999 . S
C2680 H2650 0.950 . S
C2680 C2679 1.524 . S
C2680 C2681 1.415 . S
C2681 H2651 0.950 . S
C2681 C2676 1.363 . S
C2681 C2680 1.415 . S
H2682 C2679 0.999 . S
H2683 C2664 0.913 . S
H2684 C2702 0.951 . S
H2685 C2704 0.951 . S
H2686 C2706 0.950 1_565 S
H2687 C2707 0.950 . S
H2688 C2709 0.950 . S
H2689 C2712 0.960 . S
H2690 C2713 0.950 . S
H2691 C2715 0.950 . S
H2692 C2716 0.950 . S
H2693 C2717 0.951 . S
H2694 C2719 0.951 . S
H2695 C2721 0.950 . S
H2696 C2722 0.950 . S
H2697 C2724 0.950 . S
H2698 C2727 0.950 . S
H2699 C2728 0.950 . S
H2700 C2730 0.950 . S
H2701 C2731 0.950 . S
C2702 H2684 0.951 . S
C2702 C2703 1.366 . S
C2702 C2704 1.388 . S
C2703 C2702 1.366 . S
C2703 C2707 1.385 . S
C2704 H2685 0.951 . S
C2704 C2702 1.388 . S
C2704 C2705 1.366 . S
C2705 C2704 1.366 . S
C2705 C2706 1.414 . S
C2705 C2708 1.499 1_545 S
C2706 H2686 0.950 1_545 S
C2706 C2705 1.414 . S
C2706 C2707 1.374 . S
C2707 H2687 0.950 . S
C2707 C2703 1.385 . S
C2707 C2706 1.374 . S
C2708 C2705 1.499 1_565 S
C2708 C2709 1.373 . S
C2708 C2710 1.389 . S
C2709 H2688 0.950 . S
C2709 C2708 1.373 . S
C2709 C2725 1.377 . S
C2710 C2708 1.389 . S
C2710 C2711 1.524 . S
C2710 C2724 1.377 . S
C2711 C2710 1.524 . S
C2711 C2712 1.397 . S
C2711 C2716 1.363 1_565 S
C2712 H2689 0.960 . S
C2712 C2711 1.397 . S
C2712 C2713 1.325 1_565 S
C2713 H2690 0.950 . S
C2713 C2712 1.325 1_545 S
C2713 C2714 1.287 . S
C2714 C2713 1.287 . S
C2714 C2715 1.524 . S
C2714 H2733 0.913 . S
C2715 H2691 0.950 . S
C2715 C2714 1.524 . S
C2715 C2716 1.415 . S
C2716 H2692 0.950 . S
C2716 C2711 1.363 1_545 S
C2716 C2715 1.415 . S
C2717 H2693 0.951 . S
C2717 C2718 1.366 . S
C2717 C2719 1.388 . S
C2718 C2717 1.366 . S
C2718 C2722 1.385 . S
C2719 H2694 0.951 . S
C2719 C2717 1.388 . S
C2719 C2720 1.366 . S
C2720 C2719 1.366 . S
C2720 C2721 1.414 . S
C2720 C2723 1.499 . S
C2721 H2695 0.950 . S
C2721 C2720 1.414 . S
C2721 C2722 1.374 . S
C2722 H2696 0.950 . S
C2722 C2718 1.385 . S
C2722 C2721 1.374 . S
C2723 C2720 1.499 . S
C2723 C2724 1.373 . S
C2723 C2725 1.389 . S
C2724 H2697 0.950 . S
C2724 C2710 1.377 . S
C2724 C2723 1.373 . S
C2725 C2709 1.377 . S
C2725 C2723 1.389 . S
C2725 C2726 1.524 . S
C2726 C2725 1.524 . S
C2726 C2727 1.397 . S
C2726 C2731 1.363 . S
C2727 H2698 0.950 . S
C2727 C2726 1.397 . S
C2727 C2728 1.334 . S
C2728 H2699 0.950 . S
C2728 C2727 1.334 . S
C2728 C2729 1.287 . S
C2729 C2728 1.287 . S
C2729 C2730 1.524 . S
C2729 H2732 0.999 . S
C2730 H2700 0.950 . S
C2730 C2729 1.524 . S
C2730 C2731 1.415 . S
C2731 H2701 0.950 . S
C2731 C2726 1.363 . S
C2731 C2730 1.415 . S
H2732 C2729 0.999 . S
H2733 C2714 0.913 . S
H2734 C2752 0.951 . S
H2735 C2754 0.951 . S
H2736 C2756 0.950 . S
H2737 C2757 0.950 . S
H2738 C2759 0.950 . S
H2739 C2762 0.950 . S
H2740 C2763 0.950 . S
H2741 C2765 0.950 . S
H2742 C2766 0.950 . S
H2743 C2767 0.951 . S
H2744 C2769 0.951 . S
H2745 C2771 0.950 . S
H2746 C2772 0.950 . S
H2747 C2774 0.950 . S
H2748 C2777 0.950 . S
H2749 C2778 0.950 . S
H2750 C2780 0.950 . S
H2751 C2781 0.950 . S
C2752 H2734 0.951 . S
C2752 C2753 1.366 . S
C2752 C2754 1.388 . S
C2753 C2752 1.366 . S
C2753 C2757 1.385 . S
C2754 H2735 0.951 . S
C2754 C2752 1.388 . S
C2754 C2755 1.366 . S
C2755 C2754 1.366 . S
C2755 C2756 1.414 . S
C2755 C2758 1.499 . S
C2756 H2736 0.950 . S
C2756 C2755 1.414 . S
C2756 C2757 1.374 . S
C2757 H2737 0.950 . S
C2757 C2753 1.385 . S
C2757 C2756 1.374 . S
C2758 C2755 1.499 . S
C2758 C2759 1.373 . S
C2758 C2760 1.389 . S
C2759 H2738 0.950 . S
C2759 C2758 1.373 . S
C2759 C2775 1.377 . S
C2760 C2758 1.389 . S
C2760 C2761 1.524 . S
C2760 C2774 1.377 . S
C2761 C2760 1.524 . S
C2761 C2762 1.397 . S
C2761 C2766 1.363 . S
C2762 H2739 0.950 . S
C2762 C2761 1.397 . S
C2762 C2763 1.334 . S
C2763 H2740 0.950 . S
C2763 C2762 1.334 . S
C2763 C2764 1.287 . S
C2764 C2763 1.287 . S
C2764 C2765 1.524 . S
C2764 H2783 0.913 . S
C2765 H2741 0.950 . S
C2765 C2764 1.524 . S
C2765 C2766 1.415 . S
C2766 H2742 0.950 . S
C2766 C2761 1.363 . S
C2766 C2765 1.415 . S
C2767 H2743 0.951 . S
C2767 C2768 1.366 . S
C2767 C2769 1.388 . S
C2768 C2767 1.366 . S
C2768 C2772 1.385 . S
C2769 H2744 0.951 . S
C2769 C2767 1.388 . S
C2769 C2770 1.366 . S
C2770 C2769 1.366 . S
C2770 C2771 1.414 . S
C2770 C2773 1.442 1_455 S
C2771 H2745 0.950 . S
C2771 C2770 1.414 . S
C2771 C2772 1.374 . S
C2772 H2746 0.950 . S
C2772 C2768 1.385 . S
C2772 C2771 1.374 . S
C2773 C2770 1.442 1_655 S
C2773 C2774 1.431 . S
C2773 C2775 1.395 . S
C2774 H2747 0.950 . S
C2774 C2760 1.377 . S
C2774 C2773 1.431 . S
C2775 C2759 1.377 . S
C2775 C2773 1.395 . S
C2775 C2776 1.524 1_655 S
C2776 C2775 1.524 1_455 S
C2776 C2777 1.397 . S
C2776 C2781 1.363 . S
C2777 H2748 0.950 . S
C2777 C2776 1.397 . S
C2777 C2778 1.334 . S
C2778 H2749 0.950 . S
C2778 C2777 1.334 . S
C2778 C2779 1.287 . S
C2779 C2778 1.287 . S
C2779 C2780 1.524 . S
C2779 H2782 0.999 . S
C2780 H2750 0.950 . S
C2780 C2779 1.524 . S
C2780 C2781 1.415 . S
C2781 H2751 0.950 . S
C2781 C2776 1.363 . S
C2781 C2780 1.415 . S
H2782 C2779 0.999 . S
H2783 C2764 0.913 . S
H2784 C2802 0.951 . S
H2785 C2804 0.910 1_565 S
H2786 C2806 0.950 . S
H2787 C2807 0.950 . S
H2788 C2809 0.950 . S
H2789 C2812 0.950 . S
H2790 C2813 0.950 . S
H2791 C2815 0.967 . S
H2792 C2816 0.950 . S
H2793 C2817 0.951 . S
H2794 C2819 0.951 . S
H2795 C2821 0.950 . S
H2796 C2822 0.950 . S
H2797 C2824 0.950 . S
H2798 C2827 0.950 . S
H2799 C2828 0.950 . S
H2800 C2830 0.950 . S
H2801 C2831 0.950 . S
C2802 H2784 0.951 . S
C2802 C2803 1.366 . S
C2802 C2804 1.388 . S
C2803 C2802 1.366 . S
C2803 C2807 1.385 . S
C2804 H2785 0.910 1_545 S
C2804 C2802 1.388 . S
C2804 C2805 1.366 . S
C2805 C2804 1.366 . S
C2805 C2806 1.414 . S
C2805 C2808 1.499 1_545 S
C2806 H2786 0.950 . S
C2806 C2805 1.414 . S
C2806 C2807 1.374 . S
C2807 H2787 0.950 . S
C2807 C2803 1.385 . S
C2807 C2806 1.374 . S
C2808 C2805 1.499 1_565 S
C2808 C2809 1.373 . S
C2808 C2810 1.389 . S
C2809 H2788 0.950 . S
C2809 C2808 1.373 . S
C2809 C2825 1.377 . S
C2810 C2808 1.389 . S
C2810 C2811 1.524 . S
C2810 C2824 1.377 . S
C2811 C2810 1.524 . S
C2811 C2812 1.397 1_565 S
C2811 C2816 1.363 . S
C2812 H2789 0.950 . S
C2812 C2811 1.397 1_545 S
C2812 C2813 1.334 . S
C2813 H2790 0.950 . S
C2813 C2812 1.334 . S
C2813 C2814 1.287 . S
C2814 C2813 1.287 . S
C2814 C2815 1.478 1_545 S
C2814 H2833 0.913 . S
C2815 H2791 0.967 . S
C2815 C2814 1.478 1_565 S
C2815 C2816 1.443 . S
C2816 H2792 0.950 . S
C2816 C2811 1.363 . S
C2816 C2815 1.443 . S
C2817 H2793 0.951 . S
C2817 C2818 1.366 . S
C2817 C2819 1.388 . S
C2818 C2817 1.366 . S
C2818 C2822 1.385 . S
C2819 H2794 0.951 . S
C2819 C2817 1.388 . S
C2819 C2820 1.366 . S
C2820 C2819 1.366 . S
C2820 C2821 1.414 . S
C2820 C2823 1.499 . S
C2821 H2795 0.950 . S
C2821 C2820 1.414 . S
C2821 C2822 1.374 . S
C2822 H2796 0.950 . S
C2822 C2818 1.385 . S
C2822 C2821 1.374 . S
C2823 C2820 1.499 . S
C2823 C2824 1.373 . S
C2823 C2825 1.389 . S
C2824 H2797 0.950 . S
C2824 C2810 1.377 . S
C2824 C2823 1.373 . S
C2825 C2809 1.377 . S
C2825 C2823 1.389 . S
C2825 C2826 1.524 . S
C2826 C2825 1.524 . S
C2826 C2827 1.397 . S
C2826 C2831 1.363 . S
C2827 H2798 0.950 . S
C2827 C2826 1.397 . S
C2827 C2828 1.334 . S
C2828 H2799 0.950 . S
C2828 C2827 1.334 . S
C2828 C2829 1.287 . S
C2829 C2828 1.287 . S
C2829 C2830 1.524 . S
C2829 H2832 0.999 . S
C2830 H2800 0.950 . S
C2830 C2829 1.524 . S
C2830 C2831 1.415 . S
C2831 H2801 0.950 . S
C2831 C2826 1.363 . S
C2831 C2830 1.415 . S
H2832 C2829 0.999 . S
H2833 C2814 0.913 . S
H2834 C2852 0.951 . S
H2835 C2854 0.951 . S
H2836 C2856 0.889 1_455 S
H2837 C2857 0.950 . S
H2838 C2859 0.950 . S
H2839 C2862 0.950 . S
H2840 C2863 0.950 . S
H2841 C2865 0.950 . S
H2842 C2866 0.950 . S
H2843 C2867 0.951 . S
H2844 C2869 0.951 . S
H2845 C2871 0.950 . S
H2846 C2872 0.950 . S
H2847 C2874 0.950 . S
H2848 C2877 0.950 . S
H2849 C2878 0.950 . S
H2850 C2880 0.950 . S
H2851 C2881 0.950 . S
C2852 H2834 0.951 . S
C2852 C2853 1.366 . S
C2852 C2854 1.388 . S
C2853 C2852 1.366 . S
C2853 C2857 1.385 . S
C2854 H2835 0.951 . S
C2854 C2852 1.388 . S
C2854 C2855 1.366 . S
C2855 C2854 1.366 . S
C2855 C2856 1.414 . S
C2855 C2858 1.499 . S
C2856 H2836 0.889 1_655 S
C2856 C2855 1.414 . S
C2856 C2857 1.374 . S
C2857 H2837 0.950 . S
C2857 C2853 1.385 . S
C2857 C2856 1.374 . S
C2858 C2855 1.499 . S
C2858 C2859 1.373 1_655 S
C2858 C2860 1.389 . S
C2859 H2838 0.950 . S
C2859 C2858 1.373 1_455 S
C2859 C2875 1.377 . S
C2860 C2858 1.389 . S
C2860 C2861 1.524 . S
C2860 C2874 1.377 1_655 S
C2861 C2860 1.524 . S
C2861 C2862 1.397 . S
C2861 C2866 1.363 . S
C2862 H2839 0.950 . S
C2862 C2861 1.397 . S
C2862 C2863 1.334 . S
C2863 H2840 0.950 . S
C2863 C2862 1.334 . S
C2863 C2864 1.287 . S
C2864 C2863 1.287 . S
C2864 C2865 1.524 . S
C2864 H2883 0.913 . S
C2865 H2841 0.950 . S
C2865 C2864 1.524 . S
C2865 C2866 1.415 . S
C2866 H2842 0.950 . S
C2866 C2861 1.363 . S
C2866 C2865 1.415 . S
C2867 H2843 0.951 . S
C2867 C2868 1.366 . S
C2867 C2869 1.388 . S
C2868 C2867 1.366 . S
C2868 C2872 1.385 . S
C2869 H2844 0.951 . S
C2869 C2867 1.388 . S
C2869 C2870 1.366 . S
C2870 C2869 1.366 . S
C2870 C2871 1.414 . S
C2870 C2873 1.499 . S
C2871 H2845 0.950 . S
C2871 C2870 1.414 . S
C2871 C2872 1.374 . S
C2872 H2846 0.950 . S
C2872 C2868 1.385 . S
C2872 C2871 1.374 . S
C2873 C2870 1.499 . S
C2873 C2874 1.373 . S
C2873 C2875 1.389 . S
C2874 H2847 0.950 . S
C2874 C2860 1.377 1_455 S
C2874 C2873 1.373 . S
C2875 C2859 1.377 . S
C2875 C2873 1.389 . S
C2875 C2876 1.524 . S
C2876 C2875 1.524 . S
C2876 C2877 1.397 . S
C2876 C2881 1.363 . S
C2877 H2848 0.950 . S
C2877 C2876 1.397 . S
C2877 C2878 1.334 . S
C2878 H2849 0.950 . S
C2878 C2877 1.334 . S
C2878 C2879 1.287 . S
C2879 C2878 1.287 . S
C2879 C2880 1.524 . S
C2879 H2882 0.999 . S
C2880 H2850 0.950 . S
C2880 C2879 1.524 . S
C2880 C2881 1.415 . S
C2881 H2851 0.950 . S
C2881 C2876 1.363 . S
C2881 C2880 1.415 . S
H2882 C2879 0.999 . S
H2883 C2864 0.913 . S
H2884 C2902 0.951 . S
H2885 C2904 0.951 . S
H2886 C2906 0.950 . S
H2887 C2907 0.950 . S
H2888 C2909 0.950 . S
H2889 C2912 0.946 1_554 S
H2890 C2913 0.950 . S
H2891 C2915 0.950 . S
H2892 C2916 0.950 . S
H2893 C2917 0.951 . S
H2894 C2919 0.951 . S
H2895 C2921 0.950 . S
H2896 C2922 0.950 . S
H2897 C2924 0.950 . S
H2898 C2927 0.950 . S
H2899 C2928 0.950 . S
H2900 C2930 0.950 . S
H2901 C2931 0.950 . S
C2902 H2884 0.951 . S
C2902 C2903 1.366 . S
C2902 C2904 1.388 . S
C2903 C2902 1.366 . S
C2903 C2907 1.385 . S
C2904 H2885 0.951 . S
C2904 C2902 1.388 . S
C2904 C2905 1.366 . S
C2905 C2904 1.366 . S
C2905 C2906 1.414 . S
C2905 C2908 1.499 . S
C2906 H2886 0.950 . S
C2906 C2905 1.414 . S
C2906 C2907 1.374 . S
C2907 H2887 0.950 . S
C2907 C2903 1.385 . S
C2907 C2906 1.374 . S
C2908 C2905 1.499 . S
C2908 C2909 1.373 . S
C2908 C2910 1.389 . S
C2909 H2888 0.950 . S
C2909 C2908 1.373 . S
C2909 C2925 1.377 . S
C2910 C2908 1.389 . S
C2910 C2911 1.524 . S
C2910 C2924 1.377 1_556 S
C2911 C2910 1.524 . S
C2911 C2912 1.406 . S
C2911 C2916 1.363 . S
C2912 H2889 0.946 1_556 S
C2912 C2911 1.406 . S
C2912 C2913 1.330 1_556 S
C2913 H2890 0.950 . S
C2913 C2912 1.330 1_554 S
C2913 C2914 1.288 . S
C2914 C2913 1.288 . S
C2914 C2915 1.518 1_554 S
C2914 H2933 0.916 . S
C2915 H2891 0.950 . S
C2915 C2914 1.518 1_556 S
C2915 C2916 1.415 . S
C2916 H2892 0.950 . S
C2916 C2911 1.363 . S
C2916 C2915 1.415 . S
C2917 H2893 0.951 . S
C2917 C2918 1.366 . S
C2917 C2919 1.388 . S
C2918 C2917 1.366 . S
C2918 C2922 1.385 . S
C2919 H2894 0.951 . S
C2919 C2917 1.388 . S
C2919 C2920 1.366 . S
C2920 C2919 1.366 . S
C2920 C2921 1.414 . S
C2920 C2923 1.499 . S
C2921 H2895 0.950 . S
C2921 C2920 1.414 . S
C2921 C2922 1.374 . S
C2922 H2896 0.950 . S
C2922 C2918 1.385 . S
C2922 C2921 1.374 . S
C2923 C2920 1.499 . S
C2923 C2924 1.373 . S
C2923 C2925 1.389 1_554 S
C2924 H2897 0.950 . S
C2924 C2910 1.377 1_554 S
C2924 C2923 1.373 . S
C2925 C2909 1.377 . S
C2925 C2923 1.389 1_556 S
C2925 C2926 1.524 . S
C2926 C2925 1.524 . S
C2926 C2927 1.397 . S
C2926 C2931 1.363 . S
C2927 H2898 0.950 . S
C2927 C2926 1.397 . S
C2927 C2928 1.334 . S
C2928 H2899 0.950 . S
C2928 C2927 1.334 . S
C2928 C2929 1.287 . S
C2929 C2928 1.287 . S
C2929 C2930 1.524 . S
C2929 H2932 0.999 . S
C2930 H2900 0.950 . S
C2930 C2929 1.524 . S
C2930 C2931 1.415 . S
C2931 H2901 0.950 . S
C2931 C2926 1.363 . S
C2931 C2930 1.415 . S
H2932 C2929 0.999 . S
H2933 C2914 0.916 . S
H2934 C2952 0.951 . S
H2935 C2954 0.951 . S
H2936 C2956 0.950 . S
H2937 C2957 0.950 . S
H2938 C2959 0.950 . S
H2939 C2962 0.950 . S
H2940 C2963 0.950 . S
H2941 C2965 0.950 . S
H2942 C2966 0.885 1_554 S
H2943 C2967 0.951 . S
H2944 C2969 0.951 . S
H2945 C2971 0.950 . S
H2946 C2972 0.950 . S
H2947 C2974 0.950 . S
H2948 C2977 0.950 . S
H2949 C2978 0.950 . S
H2950 C2980 0.950 . S
H2951 C2981 0.950 1_556 S
C2952 H2934 0.951 . S
C2952 C2953 1.366 . S
C2952 C2954 1.388 . S
C2953 C2952 1.366 . S
C2953 C2957 1.385 . S
C2954 H2935 0.951 . S
C2954 C2952 1.388 . S
C2954 C2955 1.366 . S
C2955 C2954 1.366 . S
C2955 C2956 1.414 . S
C2955 C2958 1.499 . S
C2956 H2936 0.950 . S
C2956 C2955 1.414 . S
C2956 C2957 1.374 . S
C2957 H2937 0.950 . S
C2957 C2953 1.385 . S
C2957 C2956 1.374 . S
C2958 C2955 1.499 . S
C2958 C2959 1.373 . S
C2958 C2960 1.389 . S
C2959 H2938 0.950 . S
C2959 C2958 1.373 . S
C2959 C2975 1.377 1_556 S
C2960 C2958 1.389 . S
C2960 C2961 1.524 . S
C2960 C2974 1.377 1_556 S
C2961 C2960 1.524 . S
C2961 C2962 1.397 . S
C2961 C2966 1.401 . S
C2962 H2939 0.950 . S
C2962 C2961 1.397 . S
C2962 C2963 1.334 . S
C2963 H2940 0.950 . S
C2963 C2962 1.334 . S
C2963 C2964 1.287 . S
C2964 C2963 1.287 . S
C2964 C2965 1.524 . S
C2964 H2983 0.913 . S
C2965 H2941 0.950 . S
C2965 C2964 1.524 . S
C2965 C2966 1.443 . S
C2966 H2942 0.885 1_556 S
C2966 C2961 1.401 . S
C2966 C2965 1.443 . S
C2967 H2943 0.951 . S
C2967 C2968 1.366 . S
C2967 C2969 1.388 . S
C2968 C2967 1.366 . S
C2968 C2972 1.385 . S
C2969 H2944 0.951 . S
C2969 C2967 1.388 . S
C2969 C2970 1.366 . S
C2970 C2969 1.366 . S
C2970 C2971 1.414 . S
C2970 C2973 1.499 . S
C2971 H2945 0.950 . S
C2971 C2970 1.414 . S
C2971 C2972 1.374 . S
C2972 H2946 0.950 . S
C2972 C2968 1.385 . S
C2972 C2971 1.374 . S
C2973 C2970 1.499 . S
C2973 C2974 1.373 . S
C2973 C2975 1.389 . S
C2974 H2947 0.950 . S
C2974 C2960 1.377 1_554 S
C2974 C2973 1.373 . S
C2975 C2959 1.377 1_554 S
C2975 C2973 1.389 . S
C2975 C2976 1.524 . S
C2976 C2975 1.524 . S
C2976 C2977 1.397 . S
C2976 C2981 1.363 . S
C2977 H2948 0.950 . S
C2977 C2976 1.397 . S
C2977 C2978 1.334 . S
C2978 H2949 0.950 . S
C2978 C2977 1.334 . S
C2978 C2979 1.287 . S
C2979 C2978 1.287 . S
C2979 C2980 1.524 . S
C2979 H2982 0.999 . S
C2980 H2950 0.950 . S
C2980 C2979 1.524 . S
C2980 C2981 1.415 . S
C2981 H2951 0.950 1_554 S
C2981 C2976 1.363 . S
C2981 C2980 1.415 . S
H2982 C2979 0.999 . S
H2983 C2964 0.913 . S
H2984 C3002 0.951 . S
H2985 C3004 0.951 . S
H2986 C3006 0.945 1_565 S
H2987 C3007 0.950 . S
H2988 C3009 0.950 . S
H2989 C3012 0.950 . S
H2990 C3013 0.950 . S
H2991 C3015 0.950 . S
H2992 C3016 0.950 . S
H2993 C3017 0.951 . S
H2994 C3019 0.951 . S
H2995 C3021 0.950 . S
H2996 C3022 0.950 . S
H2997 C3024 0.967 . S
H2998 C3027 0.950 . S
H2999 C3028 0.950 . S
H3000 C3030 0.950 . S
H3001 C3031 0.950 . S
C3002 H2984 0.951 . S
C3002 C3003 1.366 . S
C3002 C3004 1.388 . S
C3003 C3002 1.366 . S
C3003 C3007 1.385 . S
C3004 H2985 0.951 . S
C3004 C3002 1.388 . S
C3004 C3005 1.366 . S
C3005 C3004 1.366 . S
C3005 C3006 1.414 . S
C3005 C3008 1.499 . S
C3006 H2986 0.945 1_545 S
C3006 C3005 1.414 . S
C3006 C3007 1.374 . S
C3007 H2987 0.950 . S
C3007 C3003 1.385 . S
C3007 C3006 1.374 . S
C3008 C3005 1.499 . S
C3008 C3009 1.373 1_545 S
C3008 C3010 1.389 . S
C3009 H2988 0.950 . S
C3009 C3008 1.373 1_565 S
C3009 C3025 1.377 . S
C3010 C3008 1.389 . S
C3010 C3011 1.524 . S
C3010 C3024 1.377 1_545 S
C3011 C3010 1.524 . S
C3011 C3012 1.397 . S
C3011 C3016 1.363 . S
C3012 H2989 0.950 . S
C3012 C3011 1.397 . S
C3012 C3013 1.334 . S
C3013 H2990 0.950 . S
C3013 C3012 1.334 . S
C3013 C3014 1.287 . S
C3014 C3013 1.287 . S
C3014 C3015 1.524 . S
C3014 H3033 0.913 . S
C3015 H2991 0.950 . S
C3015 C3014 1.524 . S
C3015 C3016 1.415 . S
C3016 H2992 0.950 . S
C3016 C3011 1.363 . S
C3016 C3015 1.415 . S
C3017 H2993 0.951 . S
C3017 C3018 1.366 . S
C3017 C3019 1.388 . S
C3018 C3017 1.366 . S
C3018 C3022 1.385 . S
C3019 H2994 0.951 . S
C3019 C3017 1.388 . S
C3019 C3020 1.366 . S
C3020 C3019 1.366 . S
C3020 C3021 1.414 . S
C3020 C3023 1.499 . S
C3021 H2995 0.950 . S
C3021 C3020 1.414 . S
C3021 C3022 1.374 . S
C3022 H2996 0.950 . S
C3022 C3018 1.385 . S
C3022 C3021 1.374 . S
C3023 C3020 1.499 . S
C3023 C3024 1.373 . S
C3023 C3025 1.389 . S
C3024 H2997 0.967 . S
C3024 C3010 1.377 1_565 S
C3024 C3023 1.373 . S
C3025 C3009 1.377 . S
C3025 C3023 1.389 . S
C3025 C3026 1.524 . S
C3026 C3025 1.524 . S
C3026 C3027 1.397 . S
C3026 C3031 1.363 . S
C3027 H2998 0.950 . S
C3027 C3026 1.397 . S
C3027 C3028 1.334 . S
C3028 H2999 0.950 . S
C3028 C3027 1.334 . S
C3028 C3029 1.287 . S
C3029 C3028 1.287 . S
C3029 C3030 1.524 . S
C3029 H3032 0.999 . S
C3030 H3000 0.950 . S
C3030 C3029 1.524 . S
C3030 C3031 1.415 . S
C3031 H3001 0.950 . S
C3031 C3026 1.363 . S
C3031 C3030 1.415 . S
H3032 C3029 0.999 . S
H3033 C3014 0.913 . S
H3034 C3052 0.951 . S
H3035 C3054 0.951 1_455 S
H3036 C3056 0.950 . S
H3037 C3057 0.950 . S
H3038 C3059 0.950 . S
H3039 C3062 0.950 . S
H3040 C3063 0.950 . S
H3041 C3065 0.950 . S
H3042 C3066 0.950 . S
H3043 C3067 0.951 . S
H3044 C3069 0.951 . S
H3045 C3071 0.950 . S
H3046 C3072 0.950 . S
H3047 C3074 0.950 . S
H3048 C3077 0.950 . S
H3049 C3078 0.950 . S
H3050 C3080 0.950 . S
H3051 C3081 0.950 . S
C3052 H3034 0.951 . S
C3052 C3053 1.366 . S
C3052 C3054 1.388 . S
C3053 C3052 1.366 . S
C3053 C3057 1.385 . S
C3054 H3035 0.951 1_655 S
C3054 C3052 1.388 . S
C3054 C3055 1.366 . S
C3055 C3054 1.366 . S
C3055 C3056 1.414 . S
C3055 C3058 1.499 1_655 S
C3056 H3036 0.950 . S
C3056 C3055 1.414 . S
C3056 C3057 1.374 . S
C3057 H3037 0.950 . S
C3057 C3053 1.385 . S
C3057 C3056 1.374 . S
C3058 C3055 1.499 1_455 S
C3058 C3059 1.373 . S
C3058 C3060 1.389 . S
C3059 H3038 0.950 . S
C3059 C3058 1.373 . S
C3059 C3075 1.377 . S
C3060 C3058 1.389 . S
C3060 C3061 1.524 . S
C3060 C3074 1.377 . S
C3061 C3060 1.524 . S
C3061 C3062 1.397 1_455 S
C3061 C3066 1.363 . S
C3062 H3039 0.950 . S
C3062 C3061 1.397 1_655 S
C3062 C3063 1.334 . S
C3063 H3040 0.950 . S
C3063 C3062 1.334 . S
C3063 C3064 1.287 1_655 S
C3064 C3063 1.287 1_455 S
C3064 C3065 1.524 . S
C3064 H3083 0.904 1_455 S
C3065 H3041 0.950 . S
C3065 C3064 1.524 . S
C3065 C3066 1.415 . S
C3066 H3042 0.950 . S
C3066 C3061 1.363 . S
C3066 C3065 1.415 . S
C3067 H3043 0.951 . S
C3067 C3068 1.366 . S
C3067 C3069 1.388 . S
C3068 C3067 1.366 . S
C3068 C3072 1.385 . S
C3069 H3044 0.951 . S
C3069 C3067 1.388 . S
C3069 C3070 1.366 . S
C3070 C3069 1.366 . S
C3070 C3071 1.414 . S
C3070 C3073 1.499 . S
C3071 H3045 0.950 . S
C3071 C3070 1.414 . S
C3071 C3072 1.374 . S
C3072 H3046 0.950 . S
C3072 C3068 1.385 . S
C3072 C3071 1.374 . S
C3073 C3070 1.499 . S
C3073 C3074 1.373 . S
C3073 C3075 1.389 . S
C3074 H3047 0.950 . S
C3074 C3060 1.377 . S
C3074 C3073 1.373 . S
C3075 C3059 1.377 . S
C3075 C3073 1.389 . S
C3075 C3076 1.524 . S
C3076 C3075 1.524 . S
C3076 C3077 1.397 . S
C3076 C3081 1.363 . S
C3077 H3048 0.950 . S
C3077 C3076 1.397 . S
C3077 C3078 1.334 . S
C3078 H3049 0.950 . S
C3078 C3077 1.334 . S
C3078 C3079 1.287 . S
C3079 C3078 1.287 . S
C3079 C3080 1.524 . S
C3079 H3082 0.999 . S
C3080 H3050 0.950 . S
C3080 C3079 1.524 . S
C3080 C3081 1.415 . S
C3081 H3051 0.950 . S
C3081 C3076 1.363 . S
C3081 C3080 1.415 . S
H3082 C3079 0.999 . S
H3083 C3064 0.904 1_655 S
H3084 C3102 0.951 . S
H3085 C3104 0.951 . S
H3086 C3106 0.950 . S
H3087 C3107 0.950 . S
H3088 C3109 0.950 . S
H3089 C3112 0.950 . S
H3090 C3113 0.950 . S
H3091 C3115 0.950 . S
H3092 C3116 0.950 . S
H3093 C3117 0.951 . S
H3094 C3119 0.951 . S
H3095 C3121 0.950 1_556 S
H3096 C3122 0.950 . S
H3097 C3124 0.950 . S
H3098 C3127 0.950 . S
H3099 C3128 0.950 . S
H3100 C3130 0.950 . S
H3101 C3131 0.950 . S
C3102 H3084 0.951 . S
C3102 C3103 1.366 . S
C3102 C3104 1.388 . S
C3103 C3102 1.366 . S
C3103 C3107 1.385 . S
C3104 H3085 0.951 . S
C3104 C3102 1.388 . S
C3104 C3105 1.366 . S
C3105 C3104 1.366 . S
C3105 C3106 1.414 . S
C3105 C3108 1.499 . S
C3106 H3086 0.950 . S
C3106 C3105 1.414 . S
C3106 C3107 1.374 . S
C3107 H3087 0.950 . S
C3107 C3103 1.385 . S
C3107 C3106 1.374 . S
C3108 C3105 1.499 . S
C3108 C3109 1.373 . S
C3108 C3110 1.389 . S
C3109 H3088 0.950 . S
C3109 C3108 1.373 . S
C3109 C3125 1.377 . S
C3110 C3108 1.389 . S
C3110 C3111 1.524 . S
C3110 C3124 1.377 . S
C3111 C3110 1.524 . S
C3111 C3112 1.397 . S
C3111 C3116 1.363 . S
C3112 H3089 0.950 . S
C3112 C3111 1.397 . S
C3112 C3113 1.334 . S
C3113 H3090 0.950 . S
C3113 C3112 1.334 . S
C3113 C3114 1.287 . S
C3114 C3113 1.287 . S
C3114 C3115 1.524 . S
C3114 H3133 0.913 . S
C3115 H3091 0.950 . S
C3115 C3114 1.524 . S
C3115 C3116 1.415 . S
C3116 H3092 0.950 . S
C3116 C3111 1.363 . S
C3116 C3115 1.415 . S
C3117 H3093 0.951 . S
C3117 C3118 1.366 . S
C3117 C3119 1.388 . S
C3118 C3117 1.366 . S
C3118 C3122 1.385 . S
C3119 H3094 0.951 . S
C3119 C3117 1.388 . S
C3119 C3120 1.366 . S
C3120 C3119 1.366 . S
C3120 C3121 1.414 . S
C3120 C3123 1.499 1_554 S
C3121 H3095 0.950 1_554 S
C3121 C3120 1.414 . S
C3121 C3122 1.374 . S
C3122 H3096 0.950 . S
C3122 C3118 1.385 . S
C3122 C3121 1.374 . S
C3123 C3120 1.499 1_556 S
C3123 C3124 1.373 . S
C3123 C3125 1.389 . S
C3124 H3097 0.950 . S
C3124 C3110 1.377 . S
C3124 C3123 1.373 . S
C3125 C3109 1.377 . S
C3125 C3123 1.389 . S
C3125 C3126 1.524 1_556 S
C3126 C3125 1.524 1_554 S
C3126 C3127 1.397 . S
C3126 C3131 1.363 . S
C3127 H3098 0.950 . S
C3127 C3126 1.397 . S
C3127 C3128 1.334 . S
C3128 H3099 0.950 . S
C3128 C3127 1.334 . S
C3128 C3129 1.287 . S
C3129 C3128 1.287 . S
C3129 C3130 1.524 . S
C3129 H3132 0.999 . S
C3130 H3100 0.950 . S
C3130 C3129 1.524 . S
C3130 C3131 1.415 . S
C3131 H3101 0.950 . S
C3131 C3126 1.363 . S
C3131 C3130 1.415 . S
H3132 C3129 0.999 . S
H3133 C3114 0.913 . S
H3134 C3152 0.951 . S
H3135 C3154 0.951 . S
H3136 C3156 0.950 . S
H3137 C3157 0.950 . S
H3138 C3159 0.950 . S
H3139 C3162 0.950 . S
H3140 C3163 0.950 . S
H3141 C3165 0.950 . S
H3142 C3166 0.950 . S
H3143 C3167 0.951 . S
H3144 C3169 0.951 . S
H3145 C3171 0.950 . S
H3146 C3172 0.950 . S
H3147 C3174 0.950 . S
H3148 C3177 0.950 . S
H3149 C3178 0.950 . S
H3150 C3180 0.950 . S
H3151 C3181 0.950 . S
C3152 H3134 0.951 . S
C3152 C3153 1.366 . S
C3152 C3154 1.388 . S
C3153 C3152 1.366 . S
C3153 C3157 1.385 . S
C3154 H3135 0.951 . S
C3154 C3152 1.388 . S
C3154 C3155 1.366 . S
C3155 C3154 1.366 . S
C3155 C3156 1.414 . S
C3155 C3158 1.499 . S
C3156 H3136 0.950 . S
C3156 C3155 1.414 . S
C3156 C3157 1.374 . S
C3157 H3137 0.950 . S
C3157 C3153 1.385 . S
C3157 C3156 1.374 . S
C3158 C3155 1.499 . S
C3158 C3159 1.373 . S
C3158 C3160 1.389 . S
C3159 H3138 0.950 . S
C3159 C3158 1.373 . S
C3159 C3175 1.377 . S
C3160 C3158 1.389 . S
C3160 C3161 1.524 . S
C3160 C3174 1.377 . S
C3161 C3160 1.524 . S
C3161 C3162 1.397 . S
C3161 C3166 1.363 . S
C3162 H3139 0.950 . S
C3162 C3161 1.397 . S
C3162 C3163 1.334 . S
C3163 H3140 0.950 . S
C3163 C3162 1.334 . S
C3163 C3164 1.287 . S
C3164 C3163 1.287 . S
C3164 C3165 1.524 . S
C3164 H3183 0.913 . S
C3165 H3141 0.950 . S
C3165 C3164 1.524 . S
C3165 C3166 1.415 . S
C3166 H3142 0.950 . S
C3166 C3161 1.363 . S
C3166 C3165 1.415 . S
C3167 H3143 0.951 . S
C3167 C3168 1.366 . S
C3167 C3169 1.388 . S
C3168 C3167 1.366 . S
C3168 C3172 1.385 . S
C3169 H3144 0.951 . S
C3169 C3167 1.388 . S
C3169 C3170 1.366 . S
C3170 C3169 1.366 . S
C3170 C3171 1.414 . S
C3170 C3173 1.499 . S
C3171 H3145 0.950 . S
C3171 C3170 1.414 . S
C3171 C3172 1.374 . S
C3172 H3146 0.950 . S
C3172 C3168 1.385 . S
C3172 C3171 1.374 . S
C3173 C3170 1.499 . S
C3173 C3174 1.373 . S
C3173 C3175 1.389 . S
C3174 H3147 0.950 . S
C3174 C3160 1.377 . S
C3174 C3173 1.373 . S
C3175 C3159 1.377 . S
C3175 C3173 1.389 . S
C3175 C3176 1.524 . S
C3176 C3175 1.524 . S
C3176 C3177 1.397 . S
C3176 C3181 1.363 . S
C3177 H3148 0.950 . S
C3177 C3176 1.397 . S
C3177 C3178 1.334 . S
C3178 H3149 0.950 . S
C3178 C3177 1.334 . S
C3178 C3179 1.287 . S
C3179 C3178 1.287 . S
C3179 C3180 1.524 . S
C3179 H3182 0.999 . S
C3180 H3150 0.950 . S
C3180 C3179 1.524 . S
C3180 C3181 1.415 . S
C3181 H3151 0.950 . S
C3181 C3176 1.363 . S
C3181 C3180 1.415 . S
H3182 C3179 0.999 . S
H3183 C3164 0.913 . S
H3184 C3202 0.951 . S
H3185 C3204 0.951 . S
H3186 C3206 0.950 . S
H3187 C3207 0.950 . S
H3188 C3209 0.950 . S
H3189 C3212 0.950 . S
H3190 C3213 0.950 . S
H3191 C3215 0.950 . S
H3192 C3216 0.950 . S
H3193 C3217 0.951 . S
H3194 C3219 0.951 . S
H3195 C3221 0.950 . S
H3196 C3222 0.950 . S
H3197 C3224 0.950 . S
H3198 C3227 0.950 . S
H3199 C3228 0.950 . S
H3200 C3230 0.950 . S
H3201 C3231 0.950 . S
C3202 H3184 0.951 . S
C3202 C3203 1.366 . S
C3202 C3204 1.388 . S
C3203 C3202 1.366 . S
C3203 C3207 1.385 . S
C3204 H3185 0.951 . S
C3204 C3202 1.388 . S
C3204 C3205 1.366 . S
C3205 C3204 1.366 . S
C3205 C3206 1.414 . S
C3205 C3208 1.499 . S
C3206 H3186 0.950 . S
C3206 C3205 1.414 . S
C3206 C3207 1.374 . S
C3207 H3187 0.950 . S
C3207 C3203 1.385 . S
C3207 C3206 1.374 . S
C3208 C3205 1.499 . S
C3208 C3209 1.373 . S
C3208 C3210 1.389 . S
C3209 H3188 0.950 . S
C3209 C3208 1.373 . S
C3209 C3225 1.377 . S
C3210 C3208 1.389 . S
C3210 C3211 1.524 . S
C3210 C3224 1.377 . S
C3211 C3210 1.524 . S
C3211 C3212 1.397 . S
C3211 C3216 1.363 . S
C3212 H3189 0.950 . S
C3212 C3211 1.397 . S
C3212 C3213 1.334 . S
C3213 H3190 0.950 . S
C3213 C3212 1.334 . S
C3213 C3214 1.287 . S
C3214 C3213 1.287 . S
C3214 C3215 1.524 . S
C3214 H3233 0.913 . S
C3215 H3191 0.950 . S
C3215 C3214 1.524 . S
C3215 C3216 1.415 . S
C3216 H3192 0.950 . S
C3216 C3211 1.363 . S
C3216 C3215 1.415 . S
C3217 H3193 0.951 . S
C3217 C3218 1.366 . S
C3217 C3219 1.388 . S
C3218 C3217 1.366 . S
C3218 C3222 1.385 . S
C3219 H3194 0.951 . S
C3219 C3217 1.388 . S
C3219 C3220 1.366 . S
C3220 C3219 1.366 . S
C3220 C3221 1.414 . S
C3220 C3223 1.499 . S
C3221 H3195 0.950 . S
C3221 C3220 1.414 . S
C3221 C3222 1.374 . S
C3222 H3196 0.950 . S
C3222 C3218 1.385 . S
C3222 C3221 1.374 . S
C3223 C3220 1.499 . S
C3223 C3224 1.373 . S
C3223 C3225 1.389 . S
C3224 H3197 0.950 . S
C3224 C3210 1.377 . S
C3224 C3223 1.373 . S
C3225 C3209 1.377 . S
C3225 C3223 1.389 . S
C3225 C3226 1.524 . S
C3226 C3225 1.524 . S
C3226 C3227 1.397 . S
C3226 C3231 1.363 . S
C3227 H3198 0.950 . S
C3227 C3226 1.397 . S
C3227 C3228 1.334 . S
C3228 H3199 0.950 . S
C3228 C3227 1.334 . S
C3228 C3229 1.287 . S
C3229 C3228 1.287 . S
C3229 C3230 1.524 . S
C3229 H3232 0.999 . S
C3230 H3200 0.950 . S
C3230 C3229 1.524 . S
C3230 C3231 1.415 . S
C3231 H3201 0.950 . S
C3231 C3226 1.363 . S
C3231 C3230 1.415 . S
H3232 C3229 0.999 . S
H3233 C3214 0.913 . S
H3234 C3252 0.951 . S
H3235 C3254 0.951 . S
H3236 C3256 0.950 . S
H3237 C3257 0.950 . S
H3238 C3259 0.950 . S
H3239 C3262 0.950 . S
H3240 C3263 0.950 . S
H3241 C3265 0.950 . S
H3242 C3266 0.950 . S
H3243 C3267 0.951 . S
H3244 C3269 0.951 . S
H3245 C3271 0.950 . S
H3246 C3272 0.950 . S
H3247 C3274 0.950 . S
H3248 C3277 0.950 . S
H3249 C3278 0.950 . S
H3250 C3280 0.950 . S
H3251 C3281 0.950 . S
C3252 H3234 0.951 . S
C3252 C3253 1.366 . S
C3252 C3254 1.388 . S
C3253 C3252 1.366 . S
C3253 C3257 1.385 . S
C3254 H3235 0.951 . S
C3254 C3252 1.388 . S
C3254 C3255 1.366 . S
C3255 C3254 1.366 . S
C3255 C3256 1.414 . S
C3255 C3258 1.499 . S
C3256 H3236 0.950 . S
C3256 C3255 1.414 . S
C3256 C3257 1.374 . S
C3257 H3237 0.950 . S
C3257 C3253 1.385 . S
C3257 C3256 1.374 . S
C3258 C3255 1.499 . S
C3258 C3259 1.373 . S
C3258 C3260 1.389 . S
C3259 H3238 0.950 . S
C3259 C3258 1.373 . S
C3259 C3275 1.377 . S
C3260 C3258 1.389 . S
C3260 C3261 1.524 . S
C3260 C3274 1.377 . S
C3261 C3260 1.524 . S
C3261 C3262 1.397 . S
C3261 C3266 1.363 . S
C3262 H3239 0.950 . S
C3262 C3261 1.397 . S
C3262 C3263 1.334 . S
C3263 H3240 0.950 . S
C3263 C3262 1.334 . S
C3263 C3264 1.287 . S
C3264 C3263 1.287 . S
C3264 C3265 1.524 . S
C3264 H3283 0.913 . S
C3265 H3241 0.950 . S
C3265 C3264 1.524 . S
C3265 C3266 1.415 . S
C3266 H3242 0.950 . S
C3266 C3261 1.363 . S
C3266 C3265 1.415 . S
C3267 H3243 0.951 . S
C3267 C3268 1.366 . S
C3267 C3269 1.388 . S
C3268 C3267 1.366 . S
C3268 C3272 1.385 . S
C3269 H3244 0.951 . S
C3269 C3267 1.388 . S
C3269 C3270 1.366 . S
C3270 C3269 1.366 . S
C3270 C3271 1.414 . S
C3270 C3273 1.499 . S
C3271 H3245 0.950 . S
C3271 C3270 1.414 . S
C3271 C3272 1.374 . S
C3272 H3246 0.950 . S
C3272 C3268 1.385 . S
C3272 C3271 1.374 . S
C3273 C3270 1.499 . S
C3273 C3274 1.373 . S
C3273 C3275 1.389 . S
C3274 H3247 0.950 . S
C3274 C3260 1.377 . S
C3274 C3273 1.373 . S
C3275 C3259 1.377 . S
C3275 C3273 1.389 . S
C3275 C3276 1.524 . S
C3276 C3275 1.524 . S
C3276 C3277 1.397 . S
C3276 C3281 1.363 . S
C3277 H3248 0.950 . S
C3277 C3276 1.397 . S
C3277 C3278 1.334 . S
C3278 H3249 0.950 . S
C3278 C3277 1.334 . S
C3278 C3279 1.287 . S
C3279 C3278 1.287 . S
C3279 C3280 1.524 . S
C3279 H3282 0.999 . S
C3280 H3250 0.950 . S
C3280 C3279 1.524 . S
C3280 C3281 1.415 . S
C3281 H3251 0.950 . S
C3281 C3276 1.363 . S
C3281 C3280 1.415 . S
H3282 C3279 0.999 . S
H3283 C3264 0.913 . S
H3284 C3302 0.951 . S
H3285 C3304 0.951 . S
H3286 C3306 0.950 . S
H3287 C3307 0.950 . S
H3288 C3309 0.950 . S
H3289 C3312 0.950 . S
H3290 C3313 0.950 . S
H3291 C3315 0.950 . S
H3292 C3316 0.950 . S
H3293 C3317 0.951 . S
H3294 C3319 0.951 . S
H3295 C3321 0.950 . S
H3296 C3322 0.950 . S
H3297 C3324 0.950 . S
H3298 C3327 0.950 . S
H3299 C3328 0.950 . S
H3300 C3330 0.950 . S
H3301 C3331 0.950 . S
C3302 H3284 0.951 . S
C3302 C3303 1.366 . S
C3302 C3304 1.388 . S
C3303 C3302 1.366 . S
C3303 C3307 1.385 . S
C3304 H3285 0.951 . S
C3304 C3302 1.388 . S
C3304 C3305 1.366 . S
C3305 C3304 1.366 . S
C3305 C3306 1.414 . S
C3305 C3308 1.499 . S
C3306 H3286 0.950 . S
C3306 C3305 1.414 . S
C3306 C3307 1.374 . S
C3307 H3287 0.950 . S
C3307 C3303 1.385 . S
C3307 C3306 1.374 . S
C3308 C3305 1.499 . S
C3308 C3309 1.373 . S
C3308 C3310 1.389 . S
C3309 H3288 0.950 . S
C3309 C3308 1.373 . S
C3309 C3325 1.377 . S
C3310 C3308 1.389 . S
C3310 C3311 1.524 . S
C3310 C3324 1.377 . S
C3311 C3310 1.524 . S
C3311 C3312 1.397 . S
C3311 C3316 1.363 . S
C3312 H3289 0.950 . S
C3312 C3311 1.397 . S
C3312 C3313 1.334 . S
C3313 H3290 0.950 . S
C3313 C3312 1.334 . S
C3313 C3314 1.287 . S
C3314 C3313 1.287 . S
C3314 C3315 1.524 . S
C3314 H3333 0.913 . S
C3315 H3291 0.950 . S
C3315 C3314 1.524 . S
C3315 C3316 1.415 . S
C3316 H3292 0.950 . S
C3316 C3311 1.363 . S
C3316 C3315 1.415 . S
C3317 H3293 0.951 . S
C3317 C3318 1.366 . S
C3317 C3319 1.388 . S
C3318 C3317 1.366 . S
C3318 C3322 1.385 . S
C3319 H3294 0.951 . S
C3319 C3317 1.388 . S
C3319 C3320 1.366 . S
C3320 C3319 1.366 . S
C3320 C3321 1.414 . S
C3320 C3323 1.499 . S
C3321 H3295 0.950 . S
C3321 C3320 1.414 . S
C3321 C3322 1.374 . S
C3322 H3296 0.950 . S
C3322 C3318 1.385 . S
C3322 C3321 1.374 . S
C3323 C3320 1.499 . S
C3323 C3324 1.373 . S
C3323 C3325 1.389 . S
C3324 H3297 0.950 . S
C3324 C3310 1.377 . S
C3324 C3323 1.373 . S
C3325 C3309 1.377 . S
C3325 C3323 1.389 . S
C3325 C3326 1.524 . S
C3326 C3325 1.524 . S
C3326 C3327 1.397 . S
C3326 C3331 1.363 . S
C3327 H3298 0.950 . S
C3327 C3326 1.397 . S
C3327 C3328 1.334 . S
C3328 H3299 0.950 . S
C3328 C3327 1.334 . S
C3328 C3329 1.287 . S
C3329 C3328 1.287 . S
C3329 C3330 1.524 . S
C3329 H3332 0.999 . S
C3330 H3300 0.950 . S
C3330 C3329 1.524 . S
C3330 C3331 1.415 . S
C3331 H3301 0.950 . S
C3331 C3326 1.363 . S
C3331 C3330 1.415 . S
H3332 C3329 0.999 . S
H3333 C3314 0.913 . S
H3334 C3352 0.951 . S
H3335 C3354 0.951 . S
H3336 C3356 0.950 . S
H3337 C3357 0.950 . S
H3338 C3359 0.950 . S
H3339 C3362 0.950 . S
H3340 C3363 0.950 . S
H3341 C3365 0.950 . S
H3342 C3366 0.950 . S
H3343 C3367 0.951 . S
H3344 C3369 0.951 . S
H3345 C3371 0.950 . S
H3346 C3372 0.950 . S
H3347 C3374 0.950 . S
H3348 C3377 0.950 . S
H3349 C3378 0.950 . S
H3350 C3380 0.950 . S
H3351 C3381 0.950 . S
C3352 H3334 0.951 . S
C3352 C3353 1.366 . S
C3352 C3354 1.388 . S
C3353 C3352 1.366 . S
C3353 C3357 1.385 . S
C3354 H3335 0.951 . S
C3354 C3352 1.388 . S
C3354 C3355 1.366 . S
C3355 C3354 1.366 . S
C3355 C3356 1.414 . S
C3355 C3358 1.499 . S
C3356 H3336 0.950 . S
C3356 C3355 1.414 . S
C3356 C3357 1.374 . S
C3357 H3337 0.950 . S
C3357 C3353 1.385 . S
C3357 C3356 1.374 . S
C3358 C3355 1.499 . S
C3358 C3359 1.373 . S
C3358 C3360 1.389 . S
C3359 H3338 0.950 . S
C3359 C3358 1.373 . S
C3359 C3375 1.377 1_554 S
C3360 C3358 1.389 . S
C3360 C3361 1.524 . S
C3360 C3374 1.377 . S
C3361 C3360 1.524 . S
C3361 C3362 1.397 . S
C3361 C3366 1.363 . S
C3362 H3339 0.950 . S
C3362 C3361 1.397 . S
C3362 C3363 1.334 . S
C3363 H3340 0.950 . S
C3363 C3362 1.334 . S
C3363 C3364 1.287 . S
C3364 C3363 1.287 . S
C3364 C3365 1.524 . S
C3364 H3383 0.913 . S
C3365 H3341 0.950 . S
C3365 C3364 1.524 . S
C3365 C3366 1.415 . S
C3366 H3342 0.950 . S
C3366 C3361 1.363 . S
C3366 C3365 1.415 . S
C3367 H3343 0.951 . S
C3367 C3368 1.366 . S
C3367 C3369 1.388 . S
C3368 C3367 1.366 . S
C3368 C3372 1.385 . S
C3369 H3344 0.951 . S
C3369 C3367 1.388 . S
C3369 C3370 1.366 . S
C3370 C3369 1.366 . S
C3370 C3371 1.414 . S
C3370 C3373 1.499 . S
C3371 H3345 0.950 . S
C3371 C3370 1.414 . S
C3371 C3372 1.374 . S
C3372 H3346 0.950 . S
C3372 C3368 1.385 . S
C3372 C3371 1.374 . S
C3373 C3370 1.499 . S
C3373 C3374 1.373 1_556 S
C3373 C3375 1.389 . S
C3374 H3347 0.950 . S
C3374 C3360 1.377 . S
C3374 C3373 1.373 1_554 S
C3375 C3359 1.377 1_556 S
C3375 C3373 1.389 . S
C3375 C3376 1.524 . S
C3376 C3375 1.524 . S
C3376 C3377 1.397 . S
C3376 C3381 1.363 . S
C3377 H3348 0.950 . S
C3377 C3376 1.397 . S
C3377 C3378 1.334 . S
C3378 H3349 0.950 . S
C3378 C3377 1.334 . S
C3378 C3379 1.287 . S
C3379 C3378 1.287 . S
C3379 C3380 1.524 . S
C3379 H3382 0.999 . S
C3380 H3350 0.950 . S
C3380 C3379 1.524 . S
C3380 C3381 1.415 . S
C3381 H3351 0.950 . S
C3381 C3376 1.363 . S
C3381 C3380 1.415 . S
H3382 C3379 0.999 . S
H3383 C3364 0.913 . S
H3384 C3402 0.951 . S
H3385 C3404 0.951 . S
H3386 C3406 0.950 . S
H3387 C3407 0.950 . S
H3388 C3409 0.962 . S
H3389 C3412 0.950 . S
H3390 C3413 0.950 . S
H3391 C3415 0.950 . S
H3392 C3416 0.950 . S
H3393 C3417 0.951 . S
H3394 C3419 0.951 . S
H3395 C3421 0.950 . S
H3396 C3422 0.950 . S
H3397 C3424 0.950 . S
H3398 C3427 0.950 . S
H3399 C3428 0.950 . S
H3400 C3430 0.950 . S
H3401 C3431 0.950 . S
C3402 H3384 0.951 . S
C3402 C3403 1.366 . S
C3402 C3404 1.388 . S
C3403 C3402 1.366 . S
C3403 C3407 1.385 . S
C3404 H3385 0.951 . S
C3404 C3402 1.388 . S
C3404 C3405 1.366 . S
C3405 C3404 1.366 . S
C3405 C3406 1.414 . S
C3405 C3408 1.499 . S
C3406 H3386 0.950 . S
C3406 C3405 1.414 . S
C3406 C3407 1.374 . S
C3407 H3387 0.950 . S
C3407 C3403 1.385 . S
C3407 C3406 1.374 . S
C3408 C3405 1.499 . S
C3408 C3409 1.313 1_455 S
C3408 C3410 1.389 . S
C3409 H3388 0.962 . S
C3409 C3408 1.313 1_655 S
C3409 C3425 1.429 . S
C3410 C3408 1.389 . S
C3410 C3411 1.524 . S
C3410 C3424 1.377 . S
C3411 C3410 1.524 . S
C3411 C3412 1.397 . S
C3411 C3416 1.363 . S
C3412 H3389 0.950 . S
C3412 C3411 1.397 . S
C3412 C3413 1.334 . S
C3413 H3390 0.950 . S
C3413 C3412 1.334 . S
C3413 C3414 1.287 . S
C3414 C3413 1.287 . S
C3414 C3415 1.524 . S
C3414 H3433 0.913 . S
C3415 H3391 0.950 . S
C3415 C3414 1.524 . S
C3415 C3416 1.415 . S
C3416 H3392 0.950 . S
C3416 C3411 1.363 . S
C3416 C3415 1.415 . S
C3417 H3393 0.951 . S
C3417 C3418 1.366 . S
C3417 C3419 1.388 . S
C3418 C3417 1.366 . S
C3418 C3422 1.385 . S
C3419 H3394 0.951 . S
C3419 C3417 1.388 . S
C3419 C3420 1.366 . S
C3420 C3419 1.366 . S
C3420 C3421 1.414 . S
C3420 C3423 1.499 . S
C3421 H3395 0.950 . S
C3421 C3420 1.414 . S
C3421 C3422 1.374 . S
C3422 H3396 0.950 . S
C3422 C3418 1.385 . S
C3422 C3421 1.374 . S
C3423 C3420 1.499 . S
C3423 C3424 1.373 1_655 S
C3423 C3425 1.389 . S
C3424 H3397 0.950 . S
C3424 C3410 1.377 . S
C3424 C3423 1.373 1_455 S
C3425 C3409 1.429 . S
C3425 C3423 1.389 . S
C3425 C3426 1.524 . S
C3426 C3425 1.524 . S
C3426 C3427 1.397 . S
C3426 C3431 1.363 . S
C3427 H3398 0.950 . S
C3427 C3426 1.397 . S
C3427 C3428 1.334 . S
C3428 H3399 0.950 . S
C3428 C3427 1.334 . S
C3428 C3429 1.287 . S
C3429 C3428 1.287 . S
C3429 C3430 1.524 . S
C3429 H3432 0.999 . S
C3430 H3400 0.950 . S
C3430 C3429 1.524 . S
C3430 C3431 1.415 . S
C3431 H3401 0.950 . S
C3431 C3426 1.363 . S
C3431 C3430 1.415 . S
H3432 C3429 0.999 . S
H3433 C3414 0.913 . S
H3434 C3452 0.951 . S
H3435 C3454 0.951 . S
H3436 C3456 0.950 . S
H3437 C3457 0.950 . S
H3438 C3459 0.950 . S
H3439 C3462 0.950 . S
H3440 C3463 0.950 . S
H3441 C3465 0.950 . S
H3442 C3466 0.950 . S
H3443 C3467 0.951 . S
H3444 C3469 0.951 . S
H3445 C3471 0.950 . S
H3446 C3472 0.950 . S
H3447 C3474 0.950 . S
H3448 C3477 0.950 . S
H3449 C3478 0.950 . S
H3450 C3480 0.950 . S
H3451 C3481 0.950 . S
C3452 H3434 0.951 . S
C3452 C3453 1.366 . S
C3452 C3454 1.388 . S
C3453 C3452 1.366 . S
C3453 C3457 1.385 . S
C3454 H3435 0.951 . S
C3454 C3452 1.388 . S
C3454 C3455 1.366 . S
C3455 C3454 1.366 . S
C3455 C3456 1.414 . S
C3455 C3458 1.499 . S
C3456 H3436 0.950 . S
C3456 C3455 1.414 . S
C3456 C3457 1.374 . S
C3457 H3437 0.950 . S
C3457 C3453 1.385 . S
C3457 C3456 1.374 . S
C3458 C3455 1.499 . S
C3458 C3459 1.373 . S
C3458 C3460 1.389 . S
C3459 H3438 0.950 . S
C3459 C3458 1.373 . S
C3459 C3475 1.377 . S
C3460 C3458 1.389 . S
C3460 C3461 1.524 . S
C3460 C3474 1.377 . S
C3461 C3460 1.524 . S
C3461 C3462 1.397 . S
C3461 C3466 1.363 . S
C3462 H3439 0.950 . S
C3462 C3461 1.397 . S
C3462 C3463 1.334 . S
C3463 H3440 0.950 . S
C3463 C3462 1.334 . S
C3463 C3464 1.287 . S
C3464 C3463 1.287 . S
C3464 C3465 1.524 . S
C3464 H3483 0.913 . S
C3465 H3441 0.950 . S
C3465 C3464 1.524 . S
C3465 C3466 1.415 . S
C3466 H3442 0.950 . S
C3466 C3461 1.363 . S
C3466 C3465 1.415 . S
C3467 H3443 0.951 . S
C3467 C3468 1.366 . S
C3467 C3469 1.388 . S
C3468 C3467 1.366 . S
C3468 C3472 1.385 . S
C3469 H3444 0.951 . S
C3469 C3467 1.388 . S
C3469 C3470 1.366 . S
C3470 C3469 1.366 . S
C3470 C3471 1.414 . S
C3470 C3473 1.499 . S
C3471 H3445 0.950 . S
C3471 C3470 1.414 . S
C3471 C3472 1.374 . S
C3472 H3446 0.950 . S
C3472 C3468 1.385 . S
C3472 C3471 1.374 . S
C3473 C3470 1.499 . S
C3473 C3474 1.373 . S
C3473 C3475 1.389 . S
C3474 H3447 0.950 . S
C3474 C3460 1.377 . S
C3474 C3473 1.373 . S
C3475 C3459 1.377 . S
C3475 C3473 1.389 . S
C3475 C3476 1.524 . S
C3476 C3475 1.524 . S
C3476 C3477 1.397 . S
C3476 C3481 1.363 . S
C3477 H3448 0.950 . S
C3477 C3476 1.397 . S
C3477 C3478 1.334 . S
C3478 H3449 0.950 . S
C3478 C3477 1.334 . S
C3478 C3479 1.287 . S
C3479 C3478 1.287 . S
C3479 C3480 1.524 . S
C3479 H3482 0.999 . S
C3480 H3450 0.950 . S
C3480 C3479 1.524 . S
C3480 C3481 1.415 . S
C3481 H3451 0.950 . S
C3481 C3476 1.363 . S
C3481 C3480 1.415 . S
H3482 C3479 0.999 . S
H3483 C3464 0.913 . S
H3484 C3502 0.951 . S
H3485 C3504 0.951 . S
H3486 C3506 0.950 . S
H3487 C3507 0.950 . S
H3488 C3509 0.950 . S
H3489 C3512 0.950 . S
H3490 C3513 0.950 . S
H3491 C3515 0.950 . S
H3492 C3516 0.950 . S
H3493 C3517 0.951 . S
H3494 C3519 0.951 . S
H3495 C3521 0.950 . S
H3496 C3522 0.950 . S
H3497 C3524 0.950 . S
H3498 C3527 0.950 . S
H3499 C3528 0.950 . S
H3500 C3530 0.950 . S
H3501 C3531 0.950 . S
C3502 H3484 0.951 . S
C3502 C3503 1.366 . S
C3502 C3504 1.388 . S
C3503 C3502 1.366 . S
C3503 C3507 1.385 . S
C3504 H3485 0.951 . S
C3504 C3502 1.388 . S
C3504 C3505 1.366 . S
C3505 C3504 1.366 . S
C3505 C3506 1.414 . S
C3505 C3508 1.499 . S
C3506 H3486 0.950 . S
C3506 C3505 1.414 . S
C3506 C3507 1.374 . S
C3507 H3487 0.950 . S
C3507 C3503 1.385 . S
C3507 C3506 1.374 . S
C3508 C3505 1.499 . S
C3508 C3509 1.373 . S
C3508 C3510 1.389 . S
C3509 H3488 0.950 . S
C3509 C3508 1.373 . S
C3509 C3525 1.377 . S
C3510 C3508 1.389 . S
C3510 C3511 1.524 . S
C3510 C3524 1.377 . S
C3511 C3510 1.524 . S
C3511 C3512 1.397 . S
C3511 C3516 1.363 . S
C3512 H3489 0.950 . S
C3512 C3511 1.397 . S
C3512 C3513 1.334 . S
C3513 H3490 0.950 . S
C3513 C3512 1.334 . S
C3513 C3514 1.287 . S
C3514 C3513 1.287 . S
C3514 C3515 1.524 . S
C3514 H3533 0.913 . S
C3515 H3491 0.950 . S
C3515 C3514 1.524 . S
C3515 C3516 1.415 . S
C3516 H3492 0.950 . S
C3516 C3511 1.363 . S
C3516 C3515 1.415 . S
C3517 H3493 0.951 . S
C3517 C3518 1.366 . S
C3517 C3519 1.388 . S
C3518 C3517 1.366 . S
C3518 C3522 1.385 . S
C3519 H3494 0.951 . S
C3519 C3517 1.388 . S
C3519 C3520 1.366 . S
C3520 C3519 1.366 . S
C3520 C3521 1.414 . S
C3520 C3523 1.499 . S
C3521 H3495 0.950 . S
C3521 C3520 1.414 . S
C3521 C3522 1.374 . S
C3522 H3496 0.950 . S
C3522 C3518 1.385 . S
C3522 C3521 1.374 . S
C3523 C3520 1.499 . S
C3523 C3524 1.373 . S
C3523 C3525 1.389 . S
C3524 H3497 0.950 . S
C3524 C3510 1.377 . S
C3524 C3523 1.373 . S
C3525 C3509 1.377 . S
C3525 C3523 1.389 . S
C3525 C3526 1.524 . S
C3526 C3525 1.524 . S
C3526 C3527 1.397 . S
C3526 C3531 1.363 . S
C3527 H3498 0.950 . S
C3527 C3526 1.397 . S
C3527 C3528 1.334 . S
C3528 H3499 0.950 . S
C3528 C3527 1.334 . S
C3528 C3529 1.287 . S
C3529 C3528 1.287 . S
C3529 C3530 1.524 . S
C3529 H3532 0.999 . S
C3530 H3500 0.950 . S
C3530 C3529 1.524 . S
C3530 C3531 1.415 . S
C3531 H3501 0.950 . S
C3531 C3526 1.363 . S
C3531 C3530 1.415 . S
H3532 C3529 0.999 . S
H3533 C3514 0.913 . S
H3534 C3552 0.951 . S
H3535 C3554 0.951 . S
H3536 C3556 0.950 . S
H3537 C3557 0.950 . S
H3538 C3559 0.950 . S
H3539 C3562 0.950 . S
H3540 C3563 0.950 . S
H3541 C3565 0.950 . S
H3542 C3566 0.950 . S
H3543 C3567 0.951 . S
H3544 C3569 0.951 . S
H3545 C3571 0.950 . S
H3546 C3572 0.950 . S
H3547 C3574 0.950 . S
H3548 C3577 0.950 . S
H3549 C3578 0.950 . S
H3550 C3580 0.950 . S
H3551 C3581 0.950 . S
C3552 H3534 0.951 . S
C3552 C3553 1.366 . S
C3552 C3554 1.388 . S
C3553 C3552 1.366 . S
C3553 C3557 1.385 . S
C3554 H3535 0.951 . S
C3554 C3552 1.388 . S
C3554 C3555 1.366 . S
C3555 C3554 1.366 . S
C3555 C3556 1.414 . S
C3555 C3558 1.499 . S
C3556 H3536 0.950 . S
C3556 C3555 1.414 . S
C3556 C3557 1.374 . S
C3557 H3537 0.950 . S
C3557 C3553 1.385 . S
C3557 C3556 1.374 . S
C3558 C3555 1.499 . S
C3558 C3559 1.373 . S
C3558 C3560 1.389 . S
C3559 H3538 0.950 . S
C3559 C3558 1.373 . S
C3559 C3575 1.377 . S
C3560 C3558 1.389 . S
C3560 C3561 1.524 . S
C3560 C3574 1.377 . S
C3561 C3560 1.524 . S
C3561 C3562 1.397 . S
C3561 C3566 1.363 . S
C3562 H3539 0.950 . S
C3562 C3561 1.397 . S
C3562 C3563 1.334 . S
C3563 H3540 0.950 . S
C3563 C3562 1.334 . S
C3563 C3564 1.287 . S
C3564 C3563 1.287 . S
C3564 C3565 1.524 . S
C3564 H3583 0.913 . S
C3565 H3541 0.950 . S
C3565 C3564 1.524 . S
C3565 C3566 1.415 . S
C3566 H3542 0.950 . S
C3566 C3561 1.363 . S
C3566 C3565 1.415 . S
C3567 H3543 0.951 . S
C3567 C3568 1.366 . S
C3567 C3569 1.388 . S
C3568 C3567 1.366 . S
C3568 C3572 1.385 . S
C3569 H3544 0.951 . S
C3569 C3567 1.388 . S
C3569 C3570 1.366 . S
C3570 C3569 1.366 . S
C3570 C3571 1.414 . S
C3570 C3573 1.499 . S
C3571 H3545 0.950 . S
C3571 C3570 1.414 . S
C3571 C3572 1.374 . S
C3572 H3546 0.950 . S
C3572 C3568 1.385 . S
C3572 C3571 1.374 . S
C3573 C3570 1.499 . S
C3573 C3574 1.373 . S
C3573 C3575 1.389 . S
C3574 H3547 0.950 . S
C3574 C3560 1.377 . S
C3574 C3573 1.373 . S
C3575 C3559 1.377 . S
C3575 C3573 1.389 . S
C3575 C3576 1.524 . S
C3576 C3575 1.524 . S
C3576 C3577 1.397 . S
C3576 C3581 1.363 . S
C3577 H3548 0.950 . S
C3577 C3576 1.397 . S
C3577 C3578 1.334 . S
C3578 H3549 0.950 . S
C3578 C3577 1.334 . S
C3578 C3579 1.287 . S
C3579 C3578 1.287 . S
C3579 C3580 1.524 . S
C3579 H3582 0.999 . S
C3580 H3550 0.950 . S
C3580 C3579 1.524 . S
C3580 C3581 1.415 . S
C3581 H3551 0.950 . S
C3581 C3576 1.363 . S
C3581 C3580 1.415 . S
H3582 C3579 0.999 . S
H3583 C3564 0.913 . S
H3584 C3602 0.951 . S
H3585 C3604 0.951 . S
H3586 C3606 0.950 . S
H3587 C3607 0.950 . S
H3588 C3609 0.950 . S
H3589 C3612 0.950 . S
H3590 C3613 0.950 . S
H3591 C3615 0.950 . S
H3592 C3616 0.950 . S
H3593 C3617 0.951 . S
H3594 C3619 0.951 . S
H3595 C3621 0.950 . S
H3596 C3622 0.950 . S
H3597 C3624 0.950 . S
H3598 C3627 0.950 . S
H3599 C3628 0.950 . S
H3600 C3630 0.950 . S
H3601 C3631 0.950 . S
C3602 H3584 0.951 . S
C3602 C3603 1.366 . S
C3602 C3604 1.388 . S
C3603 C3602 1.366 . S
C3603 C3607 1.385 . S
C3604 H3585 0.951 . S
C3604 C3602 1.388 . S
C3604 C3605 1.366 . S
C3605 C3604 1.366 . S
C3605 C3606 1.414 . S
C3605 C3608 1.499 . S
C3606 H3586 0.950 . S
C3606 C3605 1.414 . S
C3606 C3607 1.374 . S
C3607 H3587 0.950 . S
C3607 C3603 1.385 . S
C3607 C3606 1.374 . S
C3608 C3605 1.499 . S
C3608 C3609 1.373 . S
C3608 C3610 1.389 . S
C3609 H3588 0.950 . S
C3609 C3608 1.373 . S
C3609 C3625 1.377 . S
C3610 C3608 1.389 . S
C3610 C3611 1.524 . S
C3610 C3624 1.377 . S
C3611 C3610 1.524 . S
C3611 C3612 1.397 . S
C3611 C3616 1.363 . S
C3612 H3589 0.950 . S
C3612 C3611 1.397 . S
C3612 C3613 1.334 . S
C3613 H3590 0.950 . S
C3613 C3612 1.334 . S
C3613 C3614 1.287 . S
C3614 C3613 1.287 . S
C3614 C3615 1.524 . S
C3614 H3633 0.913 . S
C3615 H3591 0.950 . S
C3615 C3614 1.524 . S
C3615 C3616 1.415 . S
C3616 H3592 0.950 . S
C3616 C3611 1.363 . S
C3616 C3615 1.415 . S
C3617 H3593 0.951 . S
C3617 C3618 1.366 . S
C3617 C3619 1.388 . S
C3618 C3617 1.366 . S
C3618 C3622 1.385 . S
C3619 H3594 0.951 . S
C3619 C3617 1.388 . S
C3619 C3620 1.366 . S
C3620 C3619 1.366 . S
C3620 C3621 1.414 . S
C3620 C3623 1.499 . S
C3621 H3595 0.950 . S
C3621 C3620 1.414 . S
C3621 C3622 1.374 . S
C3622 H3596 0.950 . S
C3622 C3618 1.385 . S
C3622 C3621 1.374 . S
C3623 C3620 1.499 . S
C3623 C3624 1.373 . S
C3623 C3625 1.389 . S
C3624 H3597 0.950 . S
C3624 C3610 1.377 . S
C3624 C3623 1.373 . S
C3625 C3609 1.377 . S
C3625 C3623 1.389 . S
C3625 C3626 1.524 . S
C3626 C3625 1.524 . S
C3626 C3627 1.397 . S
C3626 C3631 1.363 . S
C3627 H3598 0.950 . S
C3627 C3626 1.397 . S
C3627 C3628 1.334 . S
C3628 H3599 0.950 . S
C3628 C3627 1.334 . S
C3628 C3629 1.287 . S
C3629 C3628 1.287 . S
C3629 C3630 1.524 . S
C3629 H3632 0.999 . S
C3630 H3600 0.950 . S
C3630 C3629 1.524 . S
C3630 C3631 1.415 . S
C3631 H3601 0.950 . S
C3631 C3626 1.363 . S
C3631 C3630 1.415 . S
H3632 C3629 0.999 . S
H3633 C3614 0.913 . S
H3634 C3652 0.951 . S
H3635 C3654 0.951 . S
H3636 C3656 0.950 . S
H3637 C3657 0.950 . S
H3638 C3659 0.950 . S
H3639 C3662 0.950 1_455 S
H3640 C3663 0.950 . S
H3641 C3665 0.950 . S
H3642 C3666 0.950 . S
H3643 C3667 0.951 . S
H3644 C3669 0.951 . S
H3645 C3671 0.950 . S
H3646 C3672 0.950 . S
H3647 C3674 0.950 . S
H3648 C3677 0.950 . S
H3649 C3678 0.950 . S
H3650 C3680 0.950 . S
H3651 C3681 0.950 . S
C3652 H3634 0.951 . S
C3652 C3653 1.366 . S
C3652 C3654 1.388 . S
C3653 C3652 1.366 . S
C3653 C3657 1.385 . S
C3654 H3635 0.951 . S
C3654 C3652 1.388 . S
C3654 C3655 1.366 . S
C3655 C3654 1.366 . S
C3655 C3656 1.414 . S
C3655 C3658 1.499 . S
C3656 H3636 0.950 . S
C3656 C3655 1.414 . S
C3656 C3657 1.374 . S
C3657 H3637 0.950 . S
C3657 C3653 1.385 . S
C3657 C3656 1.374 . S
C3658 C3655 1.499 . S
C3658 C3659 1.373 . S
C3658 C3660 1.389 . S
C3659 H3638 0.950 . S
C3659 C3658 1.373 . S
C3659 C3675 1.377 . S
C3660 C3658 1.389 . S
C3660 C3661 1.524 1_455 S
C3660 C3674 1.377 1_455 S
C3661 C3660 1.524 1_655 S
C3661 C3662 1.397 . S
C3661 C3666 1.363 . S
C3662 H3639 0.950 1_655 S
C3662 C3661 1.397 . S
C3662 C3663 1.334 . S
C3663 H3640 0.950 . S
C3663 C3662 1.334 . S
C3663 C3664 1.287 . S
C3664 C3663 1.287 . S
C3664 C3665 1.524 . S
C3664 H3683 0.913 . S
C3665 H3641 0.950 . S
C3665 C3664 1.524 . S
C3665 C3666 1.415 . S
C3666 H3642 0.950 . S
C3666 C3661 1.363 . S
C3666 C3665 1.415 . S
C3667 H3643 0.951 . S
C3667 C3668 1.366 . S
C3667 C3669 1.388 . S
C3668 C3667 1.366 . S
C3668 C3672 1.385 . S
C3669 H3644 0.951 . S
C3669 C3667 1.388 . S
C3669 C3670 1.366 . S
C3670 C3669 1.366 . S
C3670 C3671 1.414 . S
C3670 C3673 1.499 . S
C3671 H3645 0.950 . S
C3671 C3670 1.414 . S
C3671 C3672 1.374 . S
C3672 H3646 0.950 . S
C3672 C3668 1.385 . S
C3672 C3671 1.374 . S
C3673 C3670 1.499 . S
C3673 C3674 1.373 . S
C3673 C3675 1.389 1_655 S
C3674 H3647 0.950 . S
C3674 C3660 1.377 1_655 S
C3674 C3673 1.373 . S
C3675 C3659 1.377 . S
C3675 C3673 1.389 1_455 S
C3675 C3676 1.524 . S
C3676 C3675 1.524 . S
C3676 C3677 1.397 . S
C3676 C3681 1.363 . S
C3677 H3648 0.950 . S
C3677 C3676 1.397 . S
C3677 C3678 1.334 . S
C3678 H3649 0.950 . S
C3678 C3677 1.334 . S
C3678 C3679 1.287 . S
C3679 C3678 1.287 . S
C3679 C3680 1.524 . S
C3679 H3682 0.999 . S
C3680 H3650 0.950 . S
C3680 C3679 1.524 . S
C3680 C3681 1.415 . S
C3681 H3651 0.950 . S
C3681 C3676 1.363 . S
C3681 C3680 1.415 . S
H3682 C3679 0.999 . S
H3683 C3664 0.913 . S
H3684 C3702 0.951 . S
H3685 C3704 0.951 . S
H3686 C3706 0.950 . S
H3687 C3707 0.950 . S
H3688 C3709 0.950 . S
H3689 C3712 0.950 . S
H3690 C3713 0.950 . S
H3691 C3715 0.950 . S
H3692 C3716 0.931 1_455 S
H3693 C3717 0.951 . S
H3694 C3719 0.951 . S
H3695 C3721 0.950 . S
H3696 C3722 0.950 . S
H3697 C3724 0.950 . S
H3698 C3727 0.950 . S
H3699 C3728 0.950 . S
H3700 C3730 0.950 . S
H3701 C3731 0.950 . S
C3702 H3684 0.951 . S
C3702 C3703 1.366 . S
C3702 C3704 1.388 . S
C3703 C3702 1.366 . S
C3703 C3707 1.385 . S
C3704 H3685 0.951 . S
C3704 C3702 1.388 . S
C3704 C3705 1.366 . S
C3705 C3704 1.366 . S
C3705 C3706 1.414 . S
C3705 C3708 1.499 . S
C3706 H3686 0.950 . S
C3706 C3705 1.414 . S
C3706 C3707 1.374 . S
C3707 H3687 0.950 . S
C3707 C3703 1.385 . S
C3707 C3706 1.374 . S
C3708 C3705 1.499 . S
C3708 C3709 1.373 1_655 S
C3708 C3710 1.389 . S
C3709 H3688 0.950 . S
C3709 C3708 1.373 1_455 S
C3709 C3725 1.377 . S
C3710 C3708 1.389 . S
C3710 C3711 1.524 . S
C3710 C3724 1.377 1_655 S
C3711 C3710 1.524 . S
C3711 C3712 1.397 . S
C3711 C3716 1.363 . S
C3712 H3689 0.950 . S
C3712 C3711 1.397 . S
C3712 C3713 1.334 . S
C3713 H3690 0.950 . S
C3713 C3712 1.334 . S
C3713 C3714 1.287 . S
C3714 C3713 1.287 . S
C3714 C3715 1.524 . S
C3714 H3733 0.913 . S
C3715 H3691 0.950 . S
C3715 C3714 1.524 . S
C3715 C3716 1.415 . S
C3716 H3692 0.931 1_655 S
C3716 C3711 1.363 . S
C3716 C3715 1.415 . S
C3717 H3693 0.951 . S
C3717 C3718 1.366 . S
C3717 C3719 1.388 . S
C3718 C3717 1.366 . S
C3718 C3722 1.385 . S
C3719 H3694 0.951 . S
C3719 C3717 1.388 . S
C3719 C3720 1.366 . S
C3720 C3719 1.366 . S
C3720 C3721 1.414 . S
C3720 C3723 1.499 . S
C3721 H3695 0.950 . S
C3721 C3720 1.414 . S
C3721 C3722 1.374 . S
C3722 H3696 0.950 . S
C3722 C3718 1.385 . S
C3722 C3721 1.374 . S
C3723 C3720 1.499 . S
C3723 C3724 1.373 . S
C3723 C3725 1.389 . S
C3724 H3697 0.950 . S
C3724 C3710 1.377 1_455 S
C3724 C3723 1.373 . S
C3725 C3709 1.377 . S
C3725 C3723 1.389 . S
C3725 C3726 1.524 . S
C3726 C3725 1.524 . S
C3726 C3727 1.397 . S
C3726 C3731 1.363 . S
C3727 H3698 0.950 . S
C3727 C3726 1.397 . S
C3727 C3728 1.334 . S
C3728 H3699 0.950 . S
C3728 C3727 1.334 . S
C3728 C3729 1.287 . S
C3729 C3728 1.287 . S
C3729 C3730 1.524 . S
C3729 H3732 0.999 . S
C3730 H3700 0.950 . S
C3730 C3729 1.524 . S
C3730 C3731 1.415 . S
C3731 H3701 0.950 . S
C3731 C3726 1.363 . S
C3731 C3730 1.415 . S
H3732 C3729 0.999 . S
H3733 C3714 0.913 . S
H3734 C3752 0.951 . S
H3735 C3754 0.951 . S
H3736 C3756 0.950 . S
H3737 C3757 0.950 . S
H3738 C3759 0.950 . S
H3739 C3762 0.950 . S
H3740 C3763 0.950 . S
H3741 C3765 0.950 . S
H3742 C3766 0.950 . S
H3743 C3767 0.951 . S
H3744 C3769 0.951 . S
H3745 C3771 0.950 . S
H3746 C3772 0.950 . S
H3747 C3774 0.950 . S
H3748 C3777 0.950 . S
H3749 C3778 0.950 . S
H3750 C3780 0.950 . S
H3751 C3781 0.950 . S
C3752 H3734 0.951 . S
C3752 C3753 1.366 . S
C3752 C3754 1.388 . S
C3753 C3752 1.366 . S
C3753 C3757 1.385 . S
C3754 H3735 0.951 . S
C3754 C3752 1.388 . S
C3754 C3755 1.366 . S
C3755 C3754 1.366 . S
C3755 C3756 1.414 . S
C3755 C3758 1.499 . S
C3756 H3736 0.950 . S
C3756 C3755 1.414 . S
C3756 C3757 1.374 . S
C3757 H3737 0.950 . S
C3757 C3753 1.385 . S
C3757 C3756 1.374 . S
C3758 C3755 1.499 . S
C3758 C3759 1.373 . S
C3758 C3760 1.389 . S
C3759 H3738 0.950 . S
C3759 C3758 1.373 . S
C3759 C3775 1.377 . S
C3760 C3758 1.389 . S
C3760 C3761 1.524 . S
C3760 C3774 1.377 . S
C3761 C3760 1.524 . S
C3761 C3762 1.397 . S
C3761 C3766 1.363 . S
C3762 H3739 0.950 . S
C3762 C3761 1.397 . S
C3762 C3763 1.334 . S
C3763 H3740 0.950 . S
C3763 C3762 1.334 . S
C3763 C3764 1.287 . S
C3764 C3763 1.287 . S
C3764 C3765 1.524 . S
C3764 H3783 0.913 . S
C3765 H3741 0.950 . S
C3765 C3764 1.524 . S
C3765 C3766 1.415 . S
C3766 H3742 0.950 . S
C3766 C3761 1.363 . S
C3766 C3765 1.415 . S
C3767 H3743 0.951 . S
C3767 C3768 1.366 . S
C3767 C3769 1.388 . S
C3768 C3767 1.366 . S
C3768 C3772 1.385 . S
C3769 H3744 0.951 . S
C3769 C3767 1.388 . S
C3769 C3770 1.366 . S
C3770 C3769 1.366 . S
C3770 C3771 1.414 . S
C3770 C3773 1.499 . S
C3771 H3745 0.950 . S
C3771 C3770 1.414 . S
C3771 C3772 1.374 . S
C3772 H3746 0.950 . S
C3772 C3768 1.385 . S
C3772 C3771 1.374 . S
C3773 C3770 1.499 . S
C3773 C3774 1.373 . S
C3773 C3775 1.389 . S
C3774 H3747 0.950 . S
C3774 C3760 1.377 . S
C3774 C3773 1.373 . S
C3775 C3759 1.377 . S
C3775 C3773 1.389 . S
C3775 C3776 1.524 . S
C3776 C3775 1.524 . S
C3776 C3777 1.397 . S
C3776 C3781 1.363 . S
C3777 H3748 0.950 . S
C3777 C3776 1.397 . S
C3777 C3778 1.334 . S
C3778 H3749 0.950 . S
C3778 C3777 1.334 . S
C3778 C3779 1.287 . S
C3779 C3778 1.287 . S
C3779 C3780 1.524 . S
C3779 H3782 0.999 . S
C3780 H3750 0.950 . S
C3780 C3779 1.524 . S
C3780 C3781 1.415 . S
C3781 H3751 0.950 . S
C3781 C3776 1.363 . S
C3781 C3780 1.415 . S
H3782 C3779 0.999 . S
H3783 C3764 0.913 . S
H3784 C3802 0.951 . S
H3785 C3804 0.951 . S
H3786 C3806 0.950 . S
H3787 C3807 0.950 . S
H3788 C3809 0.950 . S
H3789 C3812 0.950 . S
H3790 C3813 0.950 . S
H3791 C3815 0.950 . S
H3792 C3816 0.950 . S
H3793 C3817 0.951 . S
H3794 C3819 0.951 . S
H3795 C3821 0.950 . S
H3796 C3822 0.950 . S
H3797 C3824 0.950 . S
H3798 C3827 0.950 . S
H3799 C3828 0.950 . S
H3800 C3830 0.950 . S
H3801 C3831 0.950 . S
C3802 H3784 0.951 . S
C3802 C3803 1.366 . S
C3802 C3804 1.388 . S
C3803 C3802 1.366 . S
C3803 C3807 1.385 . S
C3804 H3785 0.951 . S
C3804 C3802 1.388 . S
C3804 C3805 1.366 . S
C3805 C3804 1.366 . S
C3805 C3806 1.414 . S
C3805 C3808 1.499 . S
C3806 H3786 0.950 . S
C3806 C3805 1.414 . S
C3806 C3807 1.374 . S
C3807 H3787 0.950 . S
C3807 C3803 1.385 . S
C3807 C3806 1.374 . S
C3808 C3805 1.499 . S
C3808 C3809 1.373 . S
C3808 C3810 1.389 . S
C3809 H3788 0.950 . S
C3809 C3808 1.373 . S
C3809 C3825 1.377 . S
C3810 C3808 1.389 . S
C3810 C3811 1.524 . S
C3810 C3824 1.377 . S
C3811 C3810 1.524 . S
C3811 C3812 1.397 . S
C3811 C3816 1.363 . S
C3812 H3789 0.950 . S
C3812 C3811 1.397 . S
C3812 C3813 1.334 . S
C3813 H3790 0.950 . S
C3813 C3812 1.334 . S
C3813 C3814 1.287 . S
C3814 C3813 1.287 . S
C3814 C3815 1.524 . S
C3814 H3833 0.913 . S
C3815 H3791 0.950 . S
C3815 C3814 1.524 . S
C3815 C3816 1.415 . S
C3816 H3792 0.950 . S
C3816 C3811 1.363 . S
C3816 C3815 1.415 . S
C3817 H3793 0.951 . S
C3817 C3818 1.366 . S
C3817 C3819 1.388 . S
C3818 C3817 1.366 . S
C3818 C3822 1.385 . S
C3819 H3794 0.951 . S
C3819 C3817 1.388 . S
C3819 C3820 1.366 . S
C3820 C3819 1.366 . S
C3820 C3821 1.414 . S
C3820 C3823 1.499 . S
C3821 H3795 0.950 . S
C3821 C3820 1.414 . S
C3821 C3822 1.374 . S
C3822 H3796 0.950 . S
C3822 C3818 1.385 . S
C3822 C3821 1.374 . S
C3823 C3820 1.499 . S
C3823 C3824 1.373 . S
C3823 C3825 1.389 . S
C3824 H3797 0.950 . S
C3824 C3810 1.377 . S
C3824 C3823 1.373 . S
C3825 C3809 1.377 . S
C3825 C3823 1.389 . S
C3825 C3826 1.524 . S
C3826 C3825 1.524 . S
C3826 C3827 1.397 . S
C3826 C3831 1.363 . S
C3827 H3798 0.950 . S
C3827 C3826 1.397 . S
C3827 C3828 1.334 . S
C3828 H3799 0.950 . S
C3828 C3827 1.334 . S
C3828 C3829 1.287 . S
C3829 C3828 1.287 . S
C3829 C3830 1.524 . S
C3829 H3832 0.999 . S
C3830 H3800 0.950 . S
C3830 C3829 1.524 . S
C3830 C3831 1.415 . S
C3831 H3801 0.950 . S
C3831 C3826 1.363 . S
C3831 C3830 1.415 . S
H3832 C3829 0.999 . S
H3833 C3814 0.913 . S
H3834 C3852 0.951 . S
H3835 C3854 0.951 . S
H3836 C3856 0.950 . S
H3837 C3857 0.950 . S
H3838 C3859 0.950 . S
H3839 C3862 0.950 . S
H3840 C3863 0.950 . S
H3841 C3865 0.950 . S
H3842 C3866 0.950 . S
H3843 C3867 0.951 . S
H3844 C3869 0.951 . S
H3845 C3871 0.950 . S
H3846 C3872 0.950 . S
H3847 C3874 0.950 . S
H3848 C3877 0.950 . S
H3849 C3878 0.950 . S
H3850 C3880 0.950 . S
H3851 C3881 0.950 . S
C3852 H3834 0.951 . S
C3852 C3853 1.366 . S
C3852 C3854 1.388 . S
C3853 C3852 1.366 . S
C3853 C3857 1.385 . S
C3854 H3835 0.951 . S
C3854 C3852 1.388 . S
C3854 C3855 1.366 . S
C3855 C3854 1.366 . S
C3855 C3856 1.414 . S
C3855 C3858 1.499 . S
C3856 H3836 0.950 . S
C3856 C3855 1.414 . S
C3856 C3857 1.374 . S
C3857 H3837 0.950 . S
C3857 C3853 1.385 . S
C3857 C3856 1.374 . S
C3858 C3855 1.499 . S
C3858 C3859 1.373 . S
C3858 C3860 1.389 . S
C3859 H3838 0.950 . S
C3859 C3858 1.373 . S
C3859 C3875 1.377 . S
C3860 C3858 1.389 . S
C3860 C3861 1.524 . S
C3860 C3874 1.377 . S
C3861 C3860 1.524 . S
C3861 C3862 1.397 . S
C3861 C3866 1.363 . S
C3862 H3839 0.950 . S
C3862 C3861 1.397 . S
C3862 C3863 1.334 . S
C3863 H3840 0.950 . S
C3863 C3862 1.334 . S
C3863 C3864 1.287 . S
C3864 C3863 1.287 . S
C3864 C3865 1.524 . S
C3864 H3883 0.913 . S
C3865 H3841 0.950 . S
C3865 C3864 1.524 . S
C3865 C3866 1.415 . S
C3866 H3842 0.950 . S
C3866 C3861 1.363 . S
C3866 C3865 1.415 . S
C3867 H3843 0.951 . S
C3867 C3868 1.366 . S
C3867 C3869 1.388 . S
C3868 C3867 1.366 . S
C3868 C3872 1.385 . S
C3869 H3844 0.951 . S
C3869 C3867 1.388 . S
C3869 C3870 1.366 . S
C3870 C3869 1.366 . S
C3870 C3871 1.414 . S
C3870 C3873 1.499 . S
C3871 H3845 0.950 . S
C3871 C3870 1.414 . S
C3871 C3872 1.374 . S
C3872 H3846 0.950 . S
C3872 C3868 1.385 . S
C3872 C3871 1.374 . S
C3873 C3870 1.499 . S
C3873 C3874 1.373 . S
C3873 C3875 1.389 . S
C3874 H3847 0.950 . S
C3874 C3860 1.377 . S
C3874 C3873 1.373 . S
C3875 C3859 1.377 . S
C3875 C3873 1.389 . S
C3875 C3876 1.524 . S
C3876 C3875 1.524 . S
C3876 C3877 1.397 . S
C3876 C3881 1.363 . S
C3877 H3848 0.950 . S
C3877 C3876 1.397 . S
C3877 C3878 1.334 . S
C3878 H3849 0.950 . S
C3878 C3877 1.334 . S
C3878 C3879 1.287 . S
C3879 C3878 1.287 . S
C3879 C3880 1.524 . S
C3879 H3882 0.999 . S
C3880 H3850 0.950 . S
C3880 C3879 1.524 . S
C3880 C3881 1.415 . S
C3881 H3851 0.950 . S
C3881 C3876 1.363 . S
C3881 C3880 1.415 . S
H3882 C3879 0.999 . S
H3883 C3864 0.913 . S
H3884 C3902 0.951 . S
H3885 C3904 0.951 . S
H3886 C3906 0.950 . S
H3887 C3907 0.950 . S
H3888 C3909 0.950 . S
H3889 C3912 0.950 . S
H3890 C3913 0.950 . S
H3891 C3915 0.950 . S
H3892 C3916 0.950 . S
H3893 C3917 0.951 . S
H3894 C3919 0.951 . S
H3895 C3921 0.950 . S
H3896 C3922 0.950 . S
H3897 C3924 0.950 . S
H3898 C3927 0.950 . S
H3899 C3928 0.950 . S
H3900 C3930 0.950 . S
H3901 C3931 0.950 . S
C3902 H3884 0.951 . S
C3902 C3903 1.366 . S
C3902 C3904 1.388 . S
C3903 C3902 1.366 . S
C3903 C3907 1.385 . S
C3904 H3885 0.951 . S
C3904 C3902 1.388 . S
C3904 C3905 1.366 . S
C3905 C3904 1.366 . S
C3905 C3906 1.414 . S
C3905 C3908 1.499 . S
C3906 H3886 0.950 . S
C3906 C3905 1.414 . S
C3906 C3907 1.374 . S
C3907 H3887 0.950 . S
C3907 C3903 1.385 . S
C3907 C3906 1.374 . S
C3908 C3905 1.499 . S
C3908 C3909 1.373 . S
C3908 C3910 1.389 . S
C3909 H3888 0.950 . S
C3909 C3908 1.373 . S
C3909 C3925 1.377 . S
C3910 C3908 1.389 . S
C3910 C3911 1.524 . S
C3910 C3924 1.377 . S
C3911 C3910 1.524 . S
C3911 C3912 1.397 . S
C3911 C3916 1.363 . S
C3912 H3889 0.950 . S
C3912 C3911 1.397 . S
C3912 C3913 1.334 . S
C3913 H3890 0.950 . S
C3913 C3912 1.334 . S
C3913 C3914 1.287 . S
C3914 C3913 1.287 . S
C3914 C3915 1.524 . S
C3914 H3933 0.913 . S
C3915 H3891 0.950 . S
C3915 C3914 1.524 . S
C3915 C3916 1.415 . S
C3916 H3892 0.950 . S
C3916 C3911 1.363 . S
C3916 C3915 1.415 . S
C3917 H3893 0.951 . S
C3917 C3918 1.366 . S
C3917 C3919 1.388 . S
C3918 C3917 1.366 . S
C3918 C3922 1.385 . S
C3919 H3894 0.951 . S
C3919 C3917 1.388 . S
C3919 C3920 1.366 . S
C3920 C3919 1.366 . S
C3920 C3921 1.414 . S
C3920 C3923 1.499 . S
C3921 H3895 0.950 . S
C3921 C3920 1.414 . S
C3921 C3922 1.374 . S
C3922 H3896 0.950 . S
C3922 C3918 1.385 . S
C3922 C3921 1.374 . S
C3923 C3920 1.499 . S
C3923 C3924 1.373 . S
C3923 C3925 1.389 . S
C3924 H3897 0.950 . S
C3924 C3910 1.377 . S
C3924 C3923 1.373 . S
C3925 C3909 1.377 . S
C3925 C3923 1.389 . S
C3925 C3926 1.524 . S
C3926 C3925 1.524 . S
C3926 C3927 1.397 . S
C3926 C3931 1.363 . S
C3927 H3898 0.950 . S
C3927 C3926 1.397 . S
C3927 C3928 1.334 . S
C3928 H3899 0.950 . S
C3928 C3927 1.334 . S
C3928 C3929 1.287 . S
C3929 C3928 1.287 . S
C3929 C3930 1.524 . S
C3929 H3932 0.999 . S
C3930 H3900 0.950 . S
C3930 C3929 1.524 . S
C3930 C3931 1.415 . S
C3931 H3901 0.950 . S
C3931 C3926 1.363 . S
C3931 C3930 1.415 . S
H3932 C3929 0.999 . S
H3933 C3914 0.913 . S
H3934 C3952 0.951 . S
H3935 C3954 0.951 . S
H3936 C3956 0.950 . S
H3937 C3957 0.950 . S
H3938 C3959 0.950 . S
H3939 C3962 0.950 . S
H3940 C3963 0.950 . S
H3941 C3965 0.950 . S
H3942 C3966 0.950 . S
H3943 C3967 0.951 . S
H3944 C3969 0.904 1_455 S
H3945 C3971 0.950 1_556 S
H3946 C3972 0.950 . S
H3947 C3974 0.950 . S
H3948 C3977 0.950 1_655 S
H3949 C3978 0.950 1_655 S
H3950 C3980 0.950 . S
H3951 C3981 0.950 . S
C3952 H3934 0.951 . S
C3952 C3953 1.366 . S
C3952 C3954 1.388 . S
C3953 C3952 1.366 . S
C3953 C3957 1.385 . S
C3954 H3935 0.951 . S
C3954 C3952 1.388 . S
C3954 C3955 1.366 . S
C3955 C3954 1.366 . S
C3955 C3956 1.414 . S
C3955 C3958 1.499 . S
C3956 H3936 0.950 . S
C3956 C3955 1.414 . S
C3956 C3957 1.374 . S
C3957 H3937 0.950 . S
C3957 C3953 1.385 . S
C3957 C3956 1.374 . S
C3958 C3955 1.499 . S
C3958 C3959 1.373 . S
C3958 C3960 1.389 . S
C3959 H3938 0.950 . S
C3959 C3958 1.373 . S
C3959 C3975 1.377 . S
C3960 C3958 1.389 . S
C3960 C3961 1.508 1_455 S
C3960 C3974 1.377 1_455 S
C3961 C3960 1.508 1_655 S
C3961 C3962 1.356 1_655 S
C3961 C3966 1.422 . S
C3962 H3939 0.950 . S
C3962 C3961 1.356 1_455 S
C3962 C3963 1.334 . S
C3963 H3940 0.950 . S
C3963 C3962 1.334 . S
C3963 C3964 1.287 1_455 S
C3964 C3963 1.287 1_655 S
C3964 C3965 1.524 . S
C3964 H3983 0.913 . S
C3965 H3941 0.950 . S
C3965 C3964 1.524 . S
C3965 C3966 1.415 . S
C3966 H3942 0.950 . S
C3966 C3961 1.422 . S
C3966 C3965 1.415 . S
C3967 H3943 0.951 . S
C3967 C3968 1.366 . S
C3967 C3969 1.388 . S
C3968 C3967 1.366 . S
C3968 C3972 1.385 . S
C3969 H3944 0.904 1_655 S
C3969 C3967 1.388 . S
C3969 C3970 1.366 . S
C3970 C3969 1.366 . S
C3970 C3971 1.414 . S
C3970 C3973 1.499 1_554 S
C3971 H3945 0.950 1_554 S
C3971 C3970 1.414 . S
C3971 C3972 1.374 . S
C3972 H3946 0.950 . S
C3972 C3968 1.385 . S
C3972 C3971 1.374 . S
C3973 C3970 1.499 1_556 S
C3973 C3974 1.373 . S
C3973 C3975 1.389 1_655 S
C3974 H3947 0.950 . S
C3974 C3960 1.377 1_655 S
C3974 C3973 1.373 . S
C3975 C3959 1.377 . S
C3975 C3973 1.389 1_455 S
C3975 C3976 1.524 1_556 S
C3976 C3975 1.524 1_554 S
C3976 C3977 1.397 . S
C3976 C3981 1.363 . S
C3977 H3948 0.950 1_455 S
C3977 C3976 1.397 . S
C3977 C3978 1.334 . S
C3978 H3949 0.950 1_455 S
C3978 C3977 1.334 . S
C3978 C3979 1.287 . S
C3979 C3978 1.287 . S
C3979 C3980 1.524 . S
C3979 H3982 0.999 . S
C3980 H3950 0.950 . S
C3980 C3979 1.524 . S
C3980 C3981 1.415 . S
C3981 H3951 0.950 . S
C3981 C3976 1.363 . S
C3981 C3980 1.415 . S
H3982 C3979 0.999 . S
H3983 C3964 0.913 . S
H3984 C4002 0.951 . S
H3985 C4004 0.951 . S
H3986 C4006 0.950 . S
H3987 C4007 0.950 . S
H3988 C4009 0.950 . S
H3989 C4012 0.950 . S
H3990 C4013 0.950 . S
H3991 C4015 0.950 . S
H3992 C4016 0.950 . S
H3993 C4017 0.951 . S
H3994 C4019 0.951 . S
H3995 C4021 0.950 . S
H3996 C4022 0.950 . S
H3997 C4024 0.950 . S
H3998 C4027 0.950 . S
H3999 C4028 0.950 . S
H4000 C4030 0.950 . S
H4001 C4031 0.950 . S
C4002 H3984 0.951 . S
C4002 C4003 1.366 . S
C4002 C4004 1.388 . S
C4003 C4002 1.366 . S
C4003 C4007 1.385 . S
C4004 H3985 0.951 . S
C4004 C4002 1.388 . S
C4004 C4005 1.366 . S
C4005 C4004 1.366 . S
C4005 C4006 1.414 . S
C4005 C4008 1.499 . S
C4006 H3986 0.950 . S
C4006 C4005 1.414 . S
C4006 C4007 1.374 . S
C4007 H3987 0.950 . S
C4007 C4003 1.385 . S
C4007 C4006 1.374 . S
C4008 C4005 1.499 . S
C4008 C4009 1.373 . S
C4008 C4010 1.389 . S
C4009 H3988 0.950 . S
C4009 C4008 1.373 . S
C4009 C4025 1.377 . S
C4010 C4008 1.389 . S
C4010 C4011 1.524 . S
C4010 C4024 1.377 . S
C4011 C4010 1.524 . S
C4011 C4012 1.397 . S
C4011 C4016 1.363 . S
C4012 H3989 0.950 . S
C4012 C4011 1.397 . S
C4012 C4013 1.334 . S
C4013 H3990 0.950 . S
C4013 C4012 1.334 . S
C4013 C4014 1.287 . S
C4014 C4013 1.287 . S
C4014 C4015 1.524 . S
C4014 H4033 0.913 . S
C4015 H3991 0.950 . S
C4015 C4014 1.524 . S
C4015 C4016 1.415 . S
C4016 H3992 0.950 . S
C4016 C4011 1.363 . S
C4016 C4015 1.415 . S
C4017 H3993 0.951 . S
C4017 C4018 1.366 . S
C4017 C4019 1.388 . S
C4018 C4017 1.366 . S
C4018 C4022 1.385 . S
C4019 H3994 0.951 . S
C4019 C4017 1.388 . S
C4019 C4020 1.366 . S
C4020 C4019 1.366 . S
C4020 C4021 1.414 . S
C4020 C4023 1.499 . S
C4021 H3995 0.950 . S
C4021 C4020 1.414 . S
C4021 C4022 1.374 . S
C4022 H3996 0.950 . S
C4022 C4018 1.385 . S
C4022 C4021 1.374 . S
C4023 C4020 1.499 . S
C4023 C4024 1.373 . S
C4023 C4025 1.389 . S
C4024 H3997 0.950 . S
C4024 C4010 1.377 . S
C4024 C4023 1.373 . S
C4025 C4009 1.377 . S
C4025 C4023 1.389 . S
C4025 C4026 1.524 . S
C4026 C4025 1.524 . S
C4026 C4027 1.397 . S
C4026 C4031 1.363 . S
C4027 H3998 0.950 . S
C4027 C4026 1.397 . S
C4027 C4028 1.334 . S
C4028 H3999 0.950 . S
C4028 C4027 1.334 . S
C4028 C4029 1.287 . S
C4029 C4028 1.287 . S
C4029 C4030 1.524 . S
C4029 H4032 0.999 . S
C4030 H4000 0.950 . S
C4030 C4029 1.524 . S
C4030 C4031 1.415 . S
C4031 H4001 0.950 . S
C4031 C4026 1.363 . S
C4031 C4030 1.415 . S
H4032 C4029 0.999 . S
H4033 C4014 0.913 . S
H4034 C4052 0.951 . S
H4035 C4054 0.951 . S
H4036 C4056 0.950 . S
H4037 C4057 0.950 . S
H4038 C4059 0.950 . S
H4039 C4062 0.950 . S
H4040 C4063 0.950 . S
H4041 C4065 0.950 . S
H4042 C4066 0.950 . S
H4043 C4067 0.951 . S
H4044 C4069 0.951 . S
H4045 C4071 0.950 . S
H4046 C4072 0.950 . S
H4047 C4074 0.950 . S
H4048 C4077 0.950 . S
H4049 C4078 0.950 . S
H4050 C4080 0.950 . S
H4051 C4081 0.950 . S
C4052 H4034 0.951 . S
C4052 C4053 1.366 . S
C4052 C4054 1.388 . S
C4053 C4052 1.366 . S
C4053 C4057 1.385 . S
C4054 H4035 0.951 . S
C4054 C4052 1.388 . S
C4054 C4055 1.366 . S
C4055 C4054 1.366 . S
C4055 C4056 1.414 . S
C4055 C4058 1.499 . S
C4056 H4036 0.950 . S
C4056 C4055 1.414 . S
C4056 C4057 1.374 . S
C4057 H4037 0.950 . S
C4057 C4053 1.385 . S
C4057 C4056 1.374 . S
C4058 C4055 1.499 . S
C4058 C4059 1.373 . S
C4058 C4060 1.389 . S
C4059 H4038 0.950 . S
C4059 C4058 1.373 . S
C4059 C4075 1.377 . S
C4060 C4058 1.389 . S
C4060 C4061 1.524 . S
C4060 C4074 1.377 . S
C4061 C4060 1.524 . S
C4061 C4062 1.397 . S
C4061 C4066 1.363 . S
C4062 H4039 0.950 . S
C4062 C4061 1.397 . S
C4062 C4063 1.334 . S
C4063 H4040 0.950 . S
C4063 C4062 1.334 . S
C4063 C4064 1.287 . S
C4064 C4063 1.287 . S
C4064 C4065 1.524 . S
C4064 H4083 0.913 . S
C4065 H4041 0.950 . S
C4065 C4064 1.524 . S
C4065 C4066 1.415 . S
C4066 H4042 0.950 . S
C4066 C4061 1.363 . S
C4066 C4065 1.415 . S
C4067 H4043 0.951 . S
C4067 C4068 1.366 . S
C4067 C4069 1.388 . S
C4068 C4067 1.366 . S
C4068 C4072 1.385 . S
C4069 H4044 0.951 . S
C4069 C4067 1.388 . S
C4069 C4070 1.366 . S
C4070 C4069 1.366 . S
C4070 C4071 1.414 . S
C4070 C4073 1.499 . S
C4071 H4045 0.950 . S
C4071 C4070 1.414 . S
C4071 C4072 1.374 . S
C4072 H4046 0.950 . S
C4072 C4068 1.385 . S
C4072 C4071 1.374 . S
C4073 C4070 1.499 . S
C4073 C4074 1.373 . S
C4073 C4075 1.389 . S
C4074 H4047 0.950 . S
C4074 C4060 1.377 . S
C4074 C4073 1.373 . S
C4075 C4059 1.377 . S
C4075 C4073 1.389 . S
C4075 C4076 1.524 . S
C4076 C4075 1.524 . S
C4076 C4077 1.397 . S
C4076 C4081 1.363 . S
C4077 H4048 0.950 . S
C4077 C4076 1.397 . S
C4077 C4078 1.334 . S
C4078 H4049 0.950 . S
C4078 C4077 1.334 . S
C4078 C4079 1.287 . S
C4079 C4078 1.287 . S
C4079 C4080 1.524 . S
C4079 H4082 0.999 . S
C4080 H4050 0.950 . S
C4080 C4079 1.524 . S
C4080 C4081 1.415 . S
C4081 H4051 0.950 . S
C4081 C4076 1.363 . S
C4081 C4080 1.415 . S
H4082 C4079 0.999 . S
H4083 C4064 0.913 . S
H4084 C4102 0.951 . S
H4085 C4104 0.951 . S
H4086 C4106 0.950 . S
H4087 C4107 0.950 . S
H4088 C4109 0.950 . S
H4089 C4112 0.950 . S
H4090 C4113 0.950 . S
H4091 C4115 0.950 . S
H4092 C4116 0.950 . S
H4093 C4117 0.951 . S
H4094 C4119 0.951 . S
H4095 C4121 0.950 . S
H4096 C4122 0.950 . S
H4097 C4124 0.950 . S
H4098 C4127 0.950 . S
H4099 C4128 0.950 . S
H4100 C4130 0.950 . S
H4101 C4131 0.950 . S
C4102 H4084 0.951 . S
C4102 C4103 1.366 . S
C4102 C4104 1.388 . S
C4103 C4102 1.366 . S
C4103 C4107 1.385 . S
C4104 H4085 0.951 . S
C4104 C4102 1.388 . S
C4104 C4105 1.366 . S
C4105 C4104 1.366 . S
C4105 C4106 1.414 . S
C4105 C4108 1.499 . S
C4106 H4086 0.950 . S
C4106 C4105 1.414 . S
C4106 C4107 1.374 . S
C4107 H4087 0.950 . S
C4107 C4103 1.385 . S
C4107 C4106 1.374 . S
C4108 C4105 1.499 . S
C4108 C4109 1.373 1_545 S
C4108 C4110 1.389 . S
C4109 H4088 0.950 . S
C4109 C4108 1.373 1_565 S
C4109 C4125 1.377 . S
C4110 C4108 1.389 . S
C4110 C4111 1.524 . S
C4110 C4124 1.377 1_545 S
C4111 C4110 1.524 . S
C4111 C4112 1.397 . S
C4111 C4116 1.363 . S
C4112 H4089 0.950 . S
C4112 C4111 1.397 . S
C4112 C4113 1.334 . S
C4113 H4090 0.950 . S
C4113 C4112 1.334 . S
C4113 C4114 1.287 . S
C4114 C4113 1.287 . S
C4114 C4115 1.524 . S
C4114 H4133 0.913 . S
C4115 H4091 0.950 . S
C4115 C4114 1.524 . S
C4115 C4116 1.415 . S
C4116 H4092 0.950 . S
C4116 C4111 1.363 . S
C4116 C4115 1.415 . S
C4117 H4093 0.951 . S
C4117 C4118 1.366 . S
C4117 C4119 1.388 . S
C4118 C4117 1.366 . S
C4118 C4122 1.385 . S
C4119 H4094 0.951 . S
C4119 C4117 1.388 . S
C4119 C4120 1.366 . S
C4120 C4119 1.366 . S
C4120 C4121 1.414 . S
C4120 C4123 1.499 . S
C4121 H4095 0.950 . S
C4121 C4120 1.414 . S
C4121 C4122 1.374 . S
C4122 H4096 0.950 . S
C4122 C4118 1.385 . S
C4122 C4121 1.374 . S
C4123 C4120 1.499 . S
C4123 C4124 1.373 . S
C4123 C4125 1.389 . S
C4124 H4097 0.950 . S
C4124 C4110 1.377 1_565 S
C4124 C4123 1.373 . S
C4125 C4109 1.377 . S
C4125 C4123 1.389 . S
C4125 C4126 1.524 . S
C4126 C4125 1.524 . S
C4126 C4127 1.397 . S
C4126 C4131 1.363 . S
C4127 H4098 0.950 . S
C4127 C4126 1.397 . S
C4127 C4128 1.334 . S
C4128 H4099 0.950 . S
C4128 C4127 1.334 . S
C4128 C4129 1.287 . S
C4129 C4128 1.287 . S
C4129 C4130 1.524 . S
C4129 H4132 0.999 . S
C4130 H4100 0.950 . S
C4130 C4129 1.524 . S
C4130 C4131 1.415 . S
C4131 H4101 0.950 . S
C4131 C4126 1.363 . S
C4131 C4130 1.415 . S
H4132 C4129 0.999 . S
H4133 C4114 0.913 . S
H4134 C4152 0.951 . S
H4135 C4154 0.951 . S
H4136 C4156 0.950 . S
H4137 C4157 0.950 . S
H4138 C4159 0.950 . S
H4139 C4162 0.950 . S
H4140 C4163 0.950 . S
H4141 C4165 0.950 . S
H4142 C4166 0.950 . S
H4143 C4167 0.951 . S
H4144 C4169 0.951 . S
H4145 C4171 0.950 . S
H4146 C4172 0.950 . S
H4147 C4174 0.950 . S
H4148 C4177 0.950 . S
H4149 C4178 0.950 . S
H4150 C4180 0.950 . S
H4151 C4181 0.950 . S
C4152 H4134 0.951 . S
C4152 C4153 1.366 . S
C4152 C4154 1.388 . S
C4153 C4152 1.366 . S
C4153 C4157 1.385 . S
C4154 H4135 0.951 . S
C4154 C4152 1.388 . S
C4154 C4155 1.366 . S
C4155 C4154 1.366 . S
C4155 C4156 1.414 . S
C4155 C4158 1.499 . S
C4156 H4136 0.950 . S
C4156 C4155 1.414 . S
C4156 C4157 1.374 . S
C4157 H4137 0.950 . S
C4157 C4153 1.385 . S
C4157 C4156 1.374 . S
C4158 C4155 1.499 . S
C4158 C4159 1.373 . S
C4158 C4160 1.389 . S
C4159 H4138 0.950 . S
C4159 C4158 1.373 . S
C4159 C4175 1.377 . S
C4160 C4158 1.389 . S
C4160 C4161 1.524 . S
C4160 C4174 1.377 . S
C4161 C4160 1.524 . S
C4161 C4162 1.397 . S
C4161 C4166 1.363 . S
C4162 H4139 0.950 . S
C4162 C4161 1.397 . S
C4162 C4163 1.334 . S
C4163 H4140 0.950 . S
C4163 C4162 1.334 . S
C4163 C4164 1.287 . S
C4164 C4163 1.287 . S
C4164 C4165 1.524 . S
C4164 H4183 0.913 . S
C4165 H4141 0.950 . S
C4165 C4164 1.524 . S
C4165 C4166 1.415 . S
C4166 H4142 0.950 . S
C4166 C4161 1.363 . S
C4166 C4165 1.415 . S
C4167 H4143 0.951 . S
C4167 C4168 1.366 . S
C4167 C4169 1.388 . S
C4168 C4167 1.366 . S
C4168 C4172 1.385 . S
C4169 H4144 0.951 . S
C4169 C4167 1.388 . S
C4169 C4170 1.366 . S
C4170 C4169 1.366 . S
C4170 C4171 1.414 . S
C4170 C4173 1.499 . S
C4171 H4145 0.950 . S
C4171 C4170 1.414 . S
C4171 C4172 1.374 . S
C4172 H4146 0.950 . S
C4172 C4168 1.385 . S
C4172 C4171 1.374 . S
C4173 C4170 1.499 . S
C4173 C4174 1.373 . S
C4173 C4175 1.389 . S
C4174 H4147 0.950 . S
C4174 C4160 1.377 . S
C4174 C4173 1.373 . S
C4175 C4159 1.377 . S
C4175 C4173 1.389 . S
C4175 C4176 1.524 . S
C4176 C4175 1.524 . S
C4176 C4177 1.397 . S
C4176 C4181 1.363 . S
C4177 H4148 0.950 . S
C4177 C4176 1.397 . S
C4177 C4178 1.334 . S
C4178 H4149 0.950 . S
C4178 C4177 1.334 . S
C4178 C4179 1.287 . S
C4179 C4178 1.287 . S
C4179 C4180 1.524 . S
C4179 H4182 0.999 . S
C4180 H4150 0.950 . S
C4180 C4179 1.524 . S
C4180 C4181 1.415 . S
C4181 H4151 0.950 . S
C4181 C4176 1.363 . S
C4181 C4180 1.415 . S
H4182 C4179 0.999 . S
H4183 C4164 0.913 . S
H4184 C4202 0.951 . S
H4185 C4204 0.951 . S
H4186 C4206 0.950 . S
H4187 C4207 0.950 . S
H4188 C4209 0.950 . S
H4189 C4212 0.950 . S
H4190 C4213 0.950 . S
H4191 C4215 0.950 . S
H4192 C4216 0.950 . S
H4193 C4217 0.951 . S
H4194 C4219 0.951 . S
H4195 C4221 0.950 . S
H4196 C4222 0.950 . S
H4197 C4224 0.950 . S
H4198 C4227 0.950 . S
H4199 C4228 0.950 . S
H4200 C4230 0.950 . S
H4201 C4231 0.950 . S
C4202 H4184 0.951 . S
C4202 C4203 1.366 . S
C4202 C4204 1.388 . S
C4203 C4202 1.366 . S
C4203 C4207 1.385 . S
C4204 H4185 0.951 . S
C4204 C4202 1.388 . S
C4204 C4205 1.366 . S
C4205 C4204 1.366 . S
C4205 C4206 1.414 . S
C4205 C4208 1.499 . S
C4206 H4186 0.950 . S
C4206 C4205 1.414 . S
C4206 C4207 1.374 . S
C4207 H4187 0.950 . S
C4207 C4203 1.385 . S
C4207 C4206 1.374 . S
C4208 C4205 1.499 . S
C4208 C4209 1.373 . S
C4208 C4210 1.389 1_554 S
C4209 H4188 0.950 . S
C4209 C4208 1.373 . S
C4209 C4225 1.377 1_554 S
C4210 C4208 1.389 1_556 S
C4210 C4211 1.524 . S
C4210 C4224 1.377 . S
C4211 C4210 1.524 . S
C4211 C4212 1.397 1_556 S
C4211 C4216 1.363 . S
C4212 H4189 0.950 . S
C4212 C4211 1.397 1_554 S
C4212 C4213 1.334 . S
C4213 H4190 0.950 . S
C4213 C4212 1.334 . S
C4213 C4214 1.287 1_554 S
C4214 C4213 1.287 1_556 S
C4214 C4215 1.524 . S
C4214 H4233 0.913 . S
C4215 H4191 0.950 . S
C4215 C4214 1.524 . S
C4215 C4216 1.415 . S
C4216 H4192 0.950 . S
C4216 C4211 1.363 . S
C4216 C4215 1.415 . S
C4217 H4193 0.951 . S
C4217 C4218 1.366 . S
C4217 C4219 1.388 . S
C4218 C4217 1.366 . S
C4218 C4222 1.385 . S
C4219 H4194 0.951 . S
C4219 C4217 1.388 . S
C4219 C4220 1.366 . S
C4220 C4219 1.366 . S
C4220 C4221 1.414 . S
C4220 C4223 1.499 . S
C4221 H4195 0.950 . S
C4221 C4220 1.414 . S
C4221 C4222 1.374 . S
C4222 H4196 0.950 . S
C4222 C4218 1.385 . S
C4222 C4221 1.374 . S
C4223 C4220 1.499 . S
C4223 C4224 1.373 . S
C4223 C4225 1.389 . S
C4224 H4197 0.950 . S
C4224 C4210 1.377 . S
C4224 C4223 1.373 . S
C4225 C4209 1.377 1_556 S
C4225 C4223 1.389 . S
C4225 C4226 1.516 1_556 S
C4226 C4225 1.516 1_554 S
C4226 C4227 1.356 1_554 S
C4226 C4231 1.414 . S
C4227 H4198 0.950 . S
C4227 C4226 1.356 1_556 S
C4227 C4228 1.334 . S
C4228 H4199 0.950 . S
C4228 C4227 1.334 . S
C4228 C4229 1.287 1_556 S
C4229 C4228 1.287 1_554 S
C4229 C4230 1.524 . S
C4229 H4232 0.999 . S
C4230 H4200 0.950 . S
C4230 C4229 1.524 . S
C4230 C4231 1.415 . S
C4231 H4201 0.950 . S
C4231 C4226 1.414 . S
C4231 C4230 1.415 . S
H4232 C4229 0.999 . S
H4233 C4214 0.913 . S
H4234 C4252 0.951 . S
H4235 C4254 0.951 . S
H4236 C4256 0.950 . S
H4237 C4257 0.950 . S
H4238 C4259 0.950 . S
H4239 C4262 0.950 . S
H4240 C4263 0.950 . S
H4241 C4265 0.950 . S
H4242 C4266 0.950 . S
H4243 C4267 0.951 . S
H4244 C4269 0.951 . S
H4245 C4271 0.950 . S
H4246 C4272 0.950 . S
H4247 C4274 0.950 . S
H4248 C4277 0.950 . S
H4249 C4278 0.950 . S
H4250 C4280 0.950 . S
H4251 C4281 0.950 . S
C4252 H4234 0.951 . S
C4252 C4253 1.366 . S
C4252 C4254 1.388 . S
C4253 C4252 1.366 . S
C4253 C4257 1.385 . S
C4254 H4235 0.951 . S
C4254 C4252 1.388 . S
C4254 C4255 1.366 . S
C4255 C4254 1.366 . S
C4255 C4256 1.414 . S
C4255 C4258 1.499 . S
C4256 H4236 0.950 . S
C4256 C4255 1.414 . S
C4256 C4257 1.374 . S
C4257 H4237 0.950 . S
C4257 C4253 1.385 . S
C4257 C4256 1.374 . S
C4258 C4255 1.499 . S
C4258 C4259 1.373 . S
C4258 C4260 1.389 . S
C4259 H4238 0.950 . S
C4259 C4258 1.373 . S
C4259 C4275 1.377 . S
C4260 C4258 1.389 . S
C4260 C4261 1.524 . S
C4260 C4274 1.377 . S
C4261 C4260 1.524 . S
C4261 C4262 1.397 . S
C4261 C4266 1.363 . S
C4262 H4239 0.950 . S
C4262 C4261 1.397 . S
C4262 C4263 1.334 . S
C4263 H4240 0.950 . S
C4263 C4262 1.334 . S
C4263 C4264 1.287 . S
C4264 C4263 1.287 . S
C4264 C4265 1.524 . S
C4264 H4283 0.913 . S
C4265 H4241 0.950 . S
C4265 C4264 1.524 . S
C4265 C4266 1.415 . S
C4266 H4242 0.950 . S
C4266 C4261 1.363 . S
C4266 C4265 1.415 . S
C4267 H4243 0.951 . S
C4267 C4268 1.366 . S
C4267 C4269 1.388 . S
C4268 C4267 1.366 . S
C4268 C4272 1.385 . S
C4269 H4244 0.951 . S
C4269 C4267 1.388 . S
C4269 C4270 1.366 . S
C4270 C4269 1.366 . S
C4270 C4271 1.414 . S
C4270 C4273 1.499 . S
C4271 H4245 0.950 . S
C4271 C4270 1.414 . S
C4271 C4272 1.374 . S
C4272 H4246 0.950 . S
C4272 C4268 1.385 . S
C4272 C4271 1.374 . S
C4273 C4270 1.499 . S
C4273 C4274 1.373 . S
C4273 C4275 1.389 . S
C4274 H4247 0.950 . S
C4274 C4260 1.377 . S
C4274 C4273 1.373 . S
C4275 C4259 1.377 . S
C4275 C4273 1.389 . S
C4275 C4276 1.524 . S
C4276 C4275 1.524 . S
C4276 C4277 1.397 . S
C4276 C4281 1.363 . S
C4277 H4248 0.950 . S
C4277 C4276 1.397 . S
C4277 C4278 1.334 . S
C4278 H4249 0.950 . S
C4278 C4277 1.334 . S
C4278 C4279 1.287 . S
C4279 C4278 1.287 . S
C4279 C4280 1.524 . S
C4279 H4282 0.999 . S
C4280 H4250 0.950 . S
C4280 C4279 1.524 . S
C4280 C4281 1.415 . S
C4281 H4251 0.950 . S
C4281 C4276 1.363 . S
C4281 C4280 1.415 . S
H4282 C4279 0.999 . S
H4283 C4264 0.913 . S
H4284 C4302 0.951 . S
H4285 C4304 0.951 . S
H4286 C4306 0.950 . S
H4287 C4307 0.950 . S
H4288 C4309 0.950 . S
H4289 C4312 0.950 . S
H4290 C4313 0.950 . S
H4291 C4315 0.950 . S
H4292 C4316 0.950 . S
H4293 C4317 0.951 . S
H4294 C4319 0.951 . S
H4295 C4321 0.950 . S
H4296 C4322 0.950 . S
H4297 C4324 0.950 . S
H4298 C4327 0.950 . S
H4299 C4328 0.950 . S
H4300 C4330 0.950 . S
H4301 C4331 0.950 . S
C4302 H4284 0.951 . S
C4302 C4303 1.366 . S
C4302 C4304 1.388 . S
C4303 C4302 1.366 . S
C4303 C4307 1.385 . S
C4304 H4285 0.951 . S
C4304 C4302 1.388 . S
C4304 C4305 1.366 . S
C4305 C4304 1.366 . S
C4305 C4306 1.414 . S
C4305 C4308 1.499 . S
C4306 H4286 0.950 . S
C4306 C4305 1.414 . S
C4306 C4307 1.374 . S
C4307 H4287 0.950 . S
C4307 C4303 1.385 . S
C4307 C4306 1.374 . S
C4308 C4305 1.499 . S
C4308 C4309 1.373 1_545 S
C4308 C4310 1.389 1_655 S
C4309 H4288 0.950 . S
C4309 C4308 1.373 1_565 S
C4309 C4325 1.377 . S
C4310 C4308 1.389 1_455 S
C4310 C4311 1.524 . S
C4310 C4324 1.377 1_545 S
C4311 C4310 1.524 . S
C4311 C4312 1.397 . S
C4311 C4316 1.363 . S
C4312 H4289 0.950 . S
C4312 C4311 1.397 . S
C4312 C4313 1.334 . S
C4313 H4290 0.950 . S
C4313 C4312 1.334 . S
C4313 C4314 1.287 . S
C4314 C4313 1.287 . S
C4314 C4315 1.524 . S
C4314 H4333 0.913 . S
C4315 H4291 0.950 . S
C4315 C4314 1.524 . S
C4315 C4316 1.415 . S
C4316 H4292 0.950 . S
C4316 C4311 1.363 . S
C4316 C4315 1.415 . S
C4317 H4293 0.951 . S
C4317 C4318 1.366 . S
C4317 C4319 1.388 . S
C4318 C4317 1.366 . S
C4318 C4322 1.385 . S
C4319 H4294 0.951 . S
C4319 C4317 1.388 . S
C4319 C4320 1.366 . S
C4320 C4319 1.366 . S
C4320 C4321 1.414 . S
C4320 C4323 1.499 . S
C4321 H4295 0.950 . S
C4321 C4320 1.414 . S
C4321 C4322 1.374 . S
C4322 H4296 0.950 . S
C4322 C4318 1.385 . S
C4322 C4321 1.374 . S
C4323 C4320 1.499 . S
C4323 C4324 1.373 . S
C4323 C4325 1.389 1_455 S
C4324 H4297 0.950 . S
C4324 C4310 1.377 1_565 S
C4324 C4323 1.373 . S
C4325 C4309 1.377 . S
C4325 C4323 1.389 1_655 S
C4325 C4326 1.524 . S
C4326 C4325 1.524 . S
C4326 C4327 1.397 . S
C4326 C4331 1.363 . S
C4327 H4298 0.950 . S
C4327 C4326 1.397 . S
C4327 C4328 1.334 . S
C4328 H4299 0.950 . S
C4328 C4327 1.334 . S
C4328 C4329 1.287 . S
C4329 C4328 1.287 . S
C4329 C4330 1.524 . S
C4329 H4332 0.999 . S
C4330 H4300 0.950 . S
C4330 C4329 1.524 . S
C4330 C4331 1.415 . S
C4331 H4301 0.950 . S
C4331 C4326 1.363 . S
C4331 C4330 1.415 . S
H4332 C4329 0.999 . S
H4333 C4314 0.913 . S
H4334 C4352 0.951 . S
H4335 C4354 0.951 . S
H4336 C4356 0.950 . S
H4337 C4357 0.950 . S
H4338 C4359 0.950 . S
H4339 C4362 0.950 . S
H4340 C4363 0.950 . S
H4341 C4365 0.950 . S
H4342 C4366 0.950 . S
H4343 C4367 0.951 . S
H4344 C4369 0.951 . S
H4345 C4371 0.950 . S
H4346 C4372 0.950 . S
H4347 C4374 0.950 . S
H4348 C4377 0.950 . S
H4349 C4378 0.950 . S
H4350 C4380 0.950 . S
H4351 C4381 0.950 . S
C4352 H4334 0.951 . S
C4352 C4353 1.366 . S
C4352 C4354 1.388 . S
C4353 C4352 1.366 . S
C4353 C4357 1.385 . S
C4354 H4335 0.951 . S
C4354 C4352 1.388 . S
C4354 C4355 1.366 . S
C4355 C4354 1.366 . S
C4355 C4356 1.414 . S
C4355 C4358 1.499 . S
C4356 H4336 0.950 . S
C4356 C4355 1.414 . S
C4356 C4357 1.374 . S
C4357 H4337 0.950 . S
C4357 C4353 1.385 . S
C4357 C4356 1.374 . S
C4358 C4355 1.499 . S
C4358 C4359 1.373 . S
C4358 C4360 1.389 . S
C4359 H4338 0.950 . S
C4359 C4358 1.373 . S
C4359 C4375 1.377 . S
C4360 C4358 1.389 . S
C4360 C4361 1.524 . S
C4360 C4374 1.377 . S
C4361 C4360 1.524 . S
C4361 C4362 1.397 . S
C4361 C4366 1.363 . S
C4362 H4339 0.950 . S
C4362 C4361 1.397 . S
C4362 C4363 1.334 . S
C4363 H4340 0.950 . S
C4363 C4362 1.334 . S
C4363 C4364 1.287 . S
C4364 C4363 1.287 . S
C4364 C4365 1.524 . S
C4364 H4383 0.913 . S
C4365 H4341 0.950 . S
C4365 C4364 1.524 . S
C4365 C4366 1.415 . S
C4366 H4342 0.950 . S
C4366 C4361 1.363 . S
C4366 C4365 1.415 . S
C4367 H4343 0.951 . S
C4367 C4368 1.366 . S
C4367 C4369 1.388 . S
C4368 C4367 1.366 . S
C4368 C4372 1.385 . S
C4369 H4344 0.951 . S
C4369 C4367 1.388 . S
C4369 C4370 1.366 . S
C4370 C4369 1.366 . S
C4370 C4371 1.414 . S
C4370 C4373 1.499 . S
C4371 H4345 0.950 . S
C4371 C4370 1.414 . S
C4371 C4372 1.374 . S
C4372 H4346 0.950 . S
C4372 C4368 1.385 . S
C4372 C4371 1.374 . S
C4373 C4370 1.499 . S
C4373 C4374 1.373 . S
C4373 C4375 1.389 . S
C4374 H4347 0.950 . S
C4374 C4360 1.377 . S
C4374 C4373 1.373 . S
C4375 C4359 1.377 . S
C4375 C4373 1.389 . S
C4375 C4376 1.524 . S
C4376 C4375 1.524 . S
C4376 C4377 1.397 . S
C4376 C4381 1.363 . S
C4377 H4348 0.950 . S
C4377 C4376 1.397 . S
C4377 C4378 1.334 . S
C4378 H4349 0.950 . S
C4378 C4377 1.334 . S
C4378 C4379 1.287 . S
C4379 C4378 1.287 . S
C4379 C4380 1.524 . S
C4379 H4382 0.999 . S
C4380 H4350 0.950 . S
C4380 C4379 1.524 . S
C4380 C4381 1.415 . S
C4381 H4351 0.950 . S
C4381 C4376 1.363 . S
C4381 C4380 1.415 . S
H4382 C4379 0.999 . S
H4383 C4364 0.913 . S
H4384 C4402 0.951 . S
H4385 C4404 0.951 . S
H4386 C4406 0.950 . S
H4387 C4407 0.950 . S
H4388 C4409 0.950 . S
H4389 C4412 0.950 . S
H4390 C4413 0.950 . S
H4391 C4415 0.950 . S
H4392 C4416 0.950 . S
H4393 C4417 0.951 . S
H4394 C4419 0.951 . S
H4395 C4421 0.950 . S
H4396 C4422 0.950 . S
H4397 C4424 0.950 . S
H4398 C4427 0.950 . S
H4399 C4428 0.950 . S
H4400 C4430 0.950 . S
H4401 C4431 0.950 . S
C4402 H4384 0.951 . S
C4402 C4403 1.366 . S
C4402 C4404 1.388 . S
C4403 C4402 1.366 . S
C4403 C4407 1.385 . S
C4404 H4385 0.951 . S
C4404 C4402 1.388 . S
C4404 C4405 1.366 . S
C4405 C4404 1.366 . S
C4405 C4406 1.414 . S
C4405 C4408 1.499 . S
C4406 H4386 0.950 . S
C4406 C4405 1.414 . S
C4406 C4407 1.374 . S
C4407 H4387 0.950 . S
C4407 C4403 1.385 . S
C4407 C4406 1.374 . S
C4408 C4405 1.499 . S
C4408 C4409 1.373 . S
C4408 C4410 1.389 . S
C4409 H4388 0.950 . S
C4409 C4408 1.373 . S
C4409 C4425 1.377 . S
C4410 C4408 1.389 . S
C4410 C4411 1.524 . S
C4410 C4424 1.377 . S
C4411 C4410 1.524 . S
C4411 C4412 1.397 . S
C4411 C4416 1.363 . S
C4412 H4389 0.950 . S
C4412 C4411 1.397 . S
C4412 C4413 1.334 . S
C4413 H4390 0.950 . S
C4413 C4412 1.334 . S
C4413 C4414 1.287 . S
C4414 C4413 1.287 . S
C4414 C4415 1.524 . S
C4414 H4433 0.913 . S
C4415 H4391 0.950 . S
C4415 C4414 1.524 . S
C4415 C4416 1.415 . S
C4416 H4392 0.950 . S
C4416 C4411 1.363 . S
C4416 C4415 1.415 . S
C4417 H4393 0.951 . S
C4417 C4418 1.366 . S
C4417 C4419 1.388 . S
C4418 C4417 1.366 . S
C4418 C4422 1.385 . S
C4419 H4394 0.951 . S
C4419 C4417 1.388 . S
C4419 C4420 1.366 . S
C4420 C4419 1.366 . S
C4420 C4421 1.414 . S
C4420 C4423 1.499 . S
C4421 H4395 0.950 . S
C4421 C4420 1.414 . S
C4421 C4422 1.374 . S
C4422 H4396 0.950 . S
C4422 C4418 1.385 . S
C4422 C4421 1.374 . S
C4423 C4420 1.499 . S
C4423 C4424 1.373 . S
C4423 C4425 1.389 . S
C4424 H4397 0.950 . S
C4424 C4410 1.377 . S
C4424 C4423 1.373 . S
C4425 C4409 1.377 . S
C4425 C4423 1.389 . S
C4425 C4426 1.524 . S
C4426 C4425 1.524 . S
C4426 C4427 1.397 . S
C4426 C4431 1.363 . S
C4427 H4398 0.950 . S
C4427 C4426 1.397 . S
C4427 C4428 1.334 . S
C4428 H4399 0.950 . S
C4428 C4427 1.334 . S
C4428 C4429 1.287 . S
C4429 C4428 1.287 . S
C4429 C4430 1.524 . S
C4429 H4432 0.999 . S
C4430 H4400 0.950 . S
C4430 C4429 1.524 . S
C4430 C4431 1.415 . S
C4431 H4401 0.950 . S
C4431 C4426 1.363 . S
C4431 C4430 1.415 . S
H4432 C4429 0.999 . S
H4433 C4414 0.913 . S
H4434 C4452 0.951 . S
H4435 C4454 0.951 . S
H4436 C4456 0.950 . S
H4437 C4457 0.950 . S
H4438 C4459 0.950 . S
H4439 C4462 0.950 . S
H4440 C4463 0.950 . S
H4441 C4465 0.950 . S
H4442 C4466 0.950 . S
H4443 C4467 0.951 . S
H4444 C4469 0.951 . S
H4445 C4471 0.950 . S
H4446 C4472 0.950 . S
H4447 C4474 0.950 . S
H4448 C4477 0.950 . S
H4449 C4478 0.950 . S
H4450 C4480 0.950 . S
H4451 C4481 0.950 . S
C4452 H4434 0.951 . S
C4452 C4453 1.366 . S
C4452 C4454 1.388 . S
C4453 C4452 1.366 . S
C4453 C4457 1.385 . S
C4454 H4435 0.951 . S
C4454 C4452 1.388 . S
C4454 C4455 1.366 . S
C4455 C4454 1.366 . S
C4455 C4456 1.414 . S
C4455 C4458 1.499 . S
C4456 H4436 0.950 . S
C4456 C4455 1.414 . S
C4456 C4457 1.374 . S
C4457 H4437 0.950 . S
C4457 C4453 1.385 . S
C4457 C4456 1.374 . S
C4458 C4455 1.499 . S
C4458 C4459 1.373 . S
C4458 C4460 1.389 . S
C4459 H4438 0.950 . S
C4459 C4458 1.373 . S
C4459 C4475 1.377 . S
C4460 C4458 1.389 . S
C4460 C4461 1.524 . S
C4460 C4474 1.377 1_545 S
C4461 C4460 1.524 . S
C4461 C4462 1.397 . S
C4461 C4466 1.363 1_545 S
C4462 H4439 0.950 . S
C4462 C4461 1.397 . S
C4462 C4463 1.334 . S
C4463 H4440 0.950 . S
C4463 C4462 1.334 . S
C4463 C4464 1.287 . S
C4464 C4463 1.287 . S
C4464 C4465 1.524 1_545 S
C4464 H4483 0.913 . S
C4465 H4441 0.950 . S
C4465 C4464 1.524 1_565 S
C4465 C4466 1.415 . S
C4466 H4442 0.950 . S
C4466 C4461 1.363 1_565 S
C4466 C4465 1.415 . S
C4467 H4443 0.951 . S
C4467 C4468 1.366 . S
C4467 C4469 1.388 . S
C4468 C4467 1.366 . S
C4468 C4472 1.385 . S
C4469 H4444 0.951 . S
C4469 C4467 1.388 . S
C4469 C4470 1.366 . S
C4470 C4469 1.366 . S
C4470 C4471 1.414 . S
C4470 C4473 1.499 . S
C4471 H4445 0.950 . S
C4471 C4470 1.414 . S
C4471 C4472 1.374 . S
C4472 H4446 0.950 . S
C4472 C4468 1.385 . S
C4472 C4471 1.374 . S
C4473 C4470 1.499 . S
C4473 C4474 1.373 . S
C4473 C4475 1.389 1_565 S
C4474 H4447 0.950 . S
C4474 C4460 1.377 1_565 S
C4474 C4473 1.373 . S
C4475 C4459 1.377 . S
C4475 C4473 1.389 1_545 S
C4475 C4476 1.524 . S
C4476 C4475 1.524 . S
C4476 C4477 1.397 1_545 S
C4476 C4481 1.363 . S
C4477 H4448 0.950 . S
C4477 C4476 1.397 1_565 S
C4477 C4478 1.334 . S
C4478 H4449 0.950 . S
C4478 C4477 1.334 . S
C4478 C4479 1.287 . S
C4479 C4478 1.287 . S
C4479 C4480 1.524 1_565 S
C4479 H4482 0.999 . S
C4480 H4450 0.950 . S
C4480 C4479 1.524 1_545 S
C4480 C4481 1.415 . S
C4481 H4451 0.950 . S
C4481 C4476 1.363 . S
C4481 C4480 1.415 . S
H4482 C4479 0.999 . S
H4483 C4464 0.913 . S
H4484 C4502 0.951 . S
H4485 C4504 0.951 . S
H4486 C4506 0.950 . S
H4487 C4507 0.950 . S
H4488 C4509 0.950 . S
H4489 C4512 0.950 . S
H4490 C4513 0.950 . S
H4491 C4515 0.950 . S
H4492 C4516 0.950 . S
H4493 C4517 0.951 . S
H4494 C4519 0.951 . S
H4495 C4521 0.950 . S
H4496 C4522 0.950 . S
H4497 C4524 0.950 . S
H4498 C4527 0.950 . S
H4499 C4528 0.950 . S
H4500 C4530 0.950 . S
H4501 C4531 0.950 . S
C4502 H4484 0.951 . S
C4502 C4503 1.366 . S
C4502 C4504 1.388 . S
C4503 C4502 1.366 . S
C4503 C4507 1.385 . S
C4504 H4485 0.951 . S
C4504 C4502 1.388 . S
C4504 C4505 1.366 . S
C4505 C4504 1.366 . S
C4505 C4506 1.414 . S
C4505 C4508 1.499 . S
C4506 H4486 0.950 . S
C4506 C4505 1.414 . S
C4506 C4507 1.374 . S
C4507 H4487 0.950 . S
C4507 C4503 1.385 . S
C4507 C4506 1.374 . S
C4508 C4505 1.499 . S
C4508 C4509 1.373 . S
C4508 C4510 1.389 . S
C4509 H4488 0.950 . S
C4509 C4508 1.373 . S
C4509 C4525 1.377 . S
C4510 C4508 1.389 . S
C4510 C4511 1.524 . S
C4510 C4524 1.377 . S
C4511 C4510 1.524 . S
C4511 C4512 1.397 . S
C4511 C4516 1.363 . S
C4512 H4489 0.950 . S
C4512 C4511 1.397 . S
C4512 C4513 1.334 . S
C4513 H4490 0.950 . S
C4513 C4512 1.334 . S
C4513 C4514 1.287 . S
C4514 C4513 1.287 . S
C4514 C4515 1.524 . S
C4514 H4533 0.913 . S
C4515 H4491 0.950 . S
C4515 C4514 1.524 . S
C4515 C4516 1.415 . S
C4516 H4492 0.950 . S
C4516 C4511 1.363 . S
C4516 C4515 1.415 . S
C4517 H4493 0.951 . S
C4517 C4518 1.366 . S
C4517 C4519 1.388 . S
C4518 C4517 1.366 . S
C4518 C4522 1.385 . S
C4519 H4494 0.951 . S
C4519 C4517 1.388 . S
C4519 C4520 1.366 . S
C4520 C4519 1.366 . S
C4520 C4521 1.414 . S
C4520 C4523 1.499 . S
C4521 H4495 0.950 . S
C4521 C4520 1.414 . S
C4521 C4522 1.374 . S
C4522 H4496 0.950 . S
C4522 C4518 1.385 . S
C4522 C4521 1.374 . S
C4523 C4520 1.499 . S
C4523 C4524 1.373 . S
C4523 C4525 1.389 . S
C4524 H4497 0.950 . S
C4524 C4510 1.377 . S
C4524 C4523 1.373 . S
C4525 C4509 1.377 . S
C4525 C4523 1.389 . S
C4525 C4526 1.524 . S
C4526 C4525 1.524 . S
C4526 C4527 1.397 . S
C4526 C4531 1.363 . S
C4527 H4498 0.950 . S
C4527 C4526 1.397 . S
C4527 C4528 1.334 . S
C4528 H4499 0.950 . S
C4528 C4527 1.334 . S
C4528 C4529 1.287 . S
C4529 C4528 1.287 . S
C4529 C4530 1.524 . S
C4529 H4532 0.999 . S
C4530 H4500 0.950 . S
C4530 C4529 1.524 . S
C4530 C4531 1.415 . S
C4531 H4501 0.950 . S
C4531 C4526 1.363 . S
C4531 C4530 1.415 . S
H4532 C4529 0.999 . S
H4533 C4514 0.913 . S
H4534 C4552 0.951 . S
H4535 C4554 0.951 . S
H4536 C4556 0.950 . S
H4537 C4557 0.950 . S
H4538 C4559 0.950 . S
H4539 C4562 0.950 . S
H4540 C4563 0.950 . S
H4541 C4565 0.950 . S
H4542 C4566 0.950 . S
H4543 C4567 0.951 . S
H4544 C4569 0.951 . S
H4545 C4571 0.950 . S
H4546 C4572 0.950 . S
H4547 C4574 0.950 . S
H4548 C4577 0.950 . S
H4549 C4578 0.950 . S
H4550 C4580 0.950 . S
H4551 C4581 0.950 . S
C4552 H4534 0.951 . S
C4552 C4553 1.366 . S
C4552 C4554 1.388 . S
C4553 C4552 1.366 . S
C4553 C4557 1.385 . S
C4554 H4535 0.951 . S
C4554 C4552 1.388 . S
C4554 C4555 1.366 . S
C4555 C4554 1.366 . S
C4555 C4556 1.414 . S
C4555 C4558 1.499 1_455 S
C4556 H4536 0.950 . S
C4556 C4555 1.414 . S
C4556 C4557 1.374 . S
C4557 H4537 0.950 . S
C4557 C4553 1.385 . S
C4557 C4556 1.374 . S
C4558 C4555 1.499 1_655 S
C4558 C4559 1.373 . S
C4558 C4560 1.389 . S
C4559 H4538 0.950 . S
C4559 C4558 1.373 . S
C4559 C4575 1.377 . S
C4560 C4558 1.389 . S
C4560 C4561 1.524 1_655 S
C4560 C4574 1.377 . S
C4561 C4560 1.524 1_455 S
C4561 C4562 1.397 . S
C4561 C4566 1.363 . S
C4562 H4539 0.950 . S
C4562 C4561 1.397 . S
C4562 C4563 1.334 . S
C4563 H4540 0.950 . S
C4563 C4562 1.334 . S
C4563 C4564 1.287 . S
C4564 C4563 1.287 . S
C4564 C4565 1.524 . S
C4564 H4583 0.913 . S
C4565 H4541 0.950 . S
C4565 C4564 1.524 . S
C4565 C4566 1.415 . S
C4566 H4542 0.950 . S
C4566 C4561 1.363 . S
C4566 C4565 1.415 . S
C4567 H4543 0.951 . S
C4567 C4568 1.366 . S
C4567 C4569 1.388 . S
C4568 C4567 1.366 . S
C4568 C4572 1.385 . S
C4569 H4544 0.951 . S
C4569 C4567 1.388 . S
C4569 C4570 1.366 . S
C4570 C4569 1.366 . S
C4570 C4571 1.414 . S
C4570 C4573 1.499 . S
C4571 H4545 0.950 . S
C4571 C4570 1.414 . S
C4571 C4572 1.374 . S
C4572 H4546 0.950 . S
C4572 C4568 1.385 . S
C4572 C4571 1.374 . S
C4573 C4570 1.499 . S
C4573 C4574 1.373 . S
C4573 C4575 1.389 . S
C4574 H4547 0.950 . S
C4574 C4560 1.377 . S
C4574 C4573 1.373 . S
C4575 C4559 1.377 . S
C4575 C4573 1.389 . S
C4575 C4576 1.524 . S
C4576 C4575 1.524 . S
C4576 C4577 1.397 . S
C4576 C4581 1.363 . S
C4577 H4548 0.950 . S
C4577 C4576 1.397 . S
C4577 C4578 1.334 . S
C4578 H4549 0.950 . S
C4578 C4577 1.334 . S
C4578 C4579 1.287 . S
C4579 C4578 1.287 . S
C4579 C4580 1.524 . S
C4579 H4582 0.999 . S
C4580 H4550 0.950 . S
C4580 C4579 1.524 . S
C4580 C4581 1.415 . S
C4581 H4551 0.950 . S
C4581 C4576 1.363 . S
C4581 C4580 1.415 . S
H4582 C4579 0.999 . S
H4583 C4564 0.913 . S
H4584 C4602 0.951 . S
H4585 C4604 0.951 . S
H4586 C4606 0.950 . S
H4587 C4607 0.950 . S
H4588 C4609 0.950 . S
H4589 C4612 0.950 . S
H4590 C4613 0.950 . S
H4591 C4615 0.950 . S
H4592 C4616 0.950 . S
H4593 C4617 0.951 . S
H4594 C4619 0.951 . S
H4595 C4621 0.950 . S
H4596 C4622 0.950 . S
H4597 C4624 0.950 . S
H4598 C4627 0.950 . S
H4599 C4628 0.950 . S
H4600 C4630 0.950 . S
H4601 C4631 0.950 . S
C4602 H4584 0.951 . S
C4602 C4603 1.366 . S
C4602 C4604 1.388 . S
C4603 C4602 1.366 . S
C4603 C4607 1.385 . S
C4604 H4585 0.951 . S
C4604 C4602 1.388 . S
C4604 C4605 1.366 . S
C4605 C4604 1.366 . S
C4605 C4606 1.414 . S
C4605 C4608 1.499 . S
C4606 H4586 0.950 . S
C4606 C4605 1.414 . S
C4606 C4607 1.374 . S
C4607 H4587 0.950 . S
C4607 C4603 1.385 . S
C4607 C4606 1.374 . S
C4608 C4605 1.499 . S
C4608 C4609 1.373 1_655 S
C4608 C4610 1.389 . S
C4609 H4588 0.950 . S
C4609 C4608 1.373 1_455 S
C4609 C4625 1.377 . S
C4610 C4608 1.389 . S
C4610 C4611 1.524 . S
C4610 C4624 1.377 1_655 S
C4611 C4610 1.524 . S
C4611 C4612 1.397 . S
C4611 C4616 1.363 . S
C4612 H4589 0.950 . S
C4612 C4611 1.397 . S
C4612 C4613 1.334 . S
C4613 H4590 0.950 . S
C4613 C4612 1.334 . S
C4613 C4614 1.287 . S
C4614 C4613 1.287 . S
C4614 C4615 1.524 . S
C4614 H4633 0.913 . S
C4615 H4591 0.950 . S
C4615 C4614 1.524 . S
C4615 C4616 1.415 . S
C4616 H4592 0.950 . S
C4616 C4611 1.363 . S
C4616 C4615 1.415 . S
C4617 H4593 0.951 . S
C4617 C4618 1.366 . S
C4617 C4619 1.388 . S
C4618 C4617 1.366 . S
C4618 C4622 1.385 . S
C4619 H4594 0.951 . S
C4619 C4617 1.388 . S
C4619 C4620 1.366 . S
C4620 C4619 1.366 . S
C4620 C4621 1.414 . S
C4620 C4623 1.499 . S
C4621 H4595 0.950 . S
C4621 C4620 1.414 . S
C4621 C4622 1.374 . S
C4622 H4596 0.950 . S
C4622 C4618 1.385 . S
C4622 C4621 1.374 . S
C4623 C4620 1.499 . S
C4623 C4624 1.373 . S
C4623 C4625 1.389 . S
C4624 H4597 0.950 . S
C4624 C4610 1.377 1_455 S
C4624 C4623 1.373 . S
C4625 C4609 1.377 . S
C4625 C4623 1.389 . S
C4625 C4626 1.524 . S
C4626 C4625 1.524 . S
C4626 C4627 1.397 . S
C4626 C4631 1.363 . S
C4627 H4598 0.950 . S
C4627 C4626 1.397 . S
C4627 C4628 1.334 . S
C4628 H4599 0.950 . S
C4628 C4627 1.334 . S
C4628 C4629 1.287 . S
C4629 C4628 1.287 . S
C4629 C4630 1.524 . S
C4629 H4632 0.999 . S
C4630 H4600 0.950 . S
C4630 C4629 1.524 . S
C4630 C4631 1.415 . S
C4631 H4601 0.950 . S
C4631 C4626 1.363 . S
C4631 C4630 1.415 . S
H4632 C4629 0.999 . S
H4633 C4614 0.913 . S
H4634 C4652 0.951 . S
H4635 C4654 0.951 . S
H4636 C4656 0.950 . S
H4637 C4657 0.950 . S
H4638 C4659 0.950 . S
H4639 C4662 0.950 . S
H4640 C4663 0.950 . S
H4641 C4665 0.950 . S
H4642 C4666 0.950 . S
H4643 C4667 0.951 . S
H4644 C4669 0.951 . S
H4645 C4671 0.950 . S
H4646 C4672 0.950 . S
H4647 C4674 0.950 . S
H4648 C4677 0.950 . S
H4649 C4678 0.950 . S
H4650 C4680 0.950 . S
H4651 C4681 0.950 . S
C4652 H4634 0.951 . S
C4652 C4653 1.366 . S
C4652 C4654 1.388 . S
C4653 C4652 1.366 . S
C4653 C4657 1.385 . S
C4654 H4635 0.951 . S
C4654 C4652 1.388 . S
C4654 C4655 1.366 . S
C4655 C4654 1.366 . S
C4655 C4656 1.414 . S
C4655 C4658 1.499 . S
C4656 H4636 0.950 . S
C4656 C4655 1.414 . S
C4656 C4657 1.374 . S
C4657 H4637 0.950 . S
C4657 C4653 1.385 . S
C4657 C4656 1.374 . S
C4658 C4655 1.499 . S
C4658 C4659 1.373 . S
C4658 C4660 1.389 . S
C4659 H4638 0.950 . S
C4659 C4658 1.373 . S
C4659 C4675 1.377 . S
C4660 C4658 1.389 . S
C4660 C4661 1.524 . S
C4660 C4674 1.377 . S
C4661 C4660 1.524 . S
C4661 C4662 1.397 . S
C4661 C4666 1.363 . S
C4662 H4639 0.950 . S
C4662 C4661 1.397 . S
C4662 C4663 1.334 . S
C4663 H4640 0.950 . S
C4663 C4662 1.334 . S
C4663 C4664 1.287 . S
C4664 C4663 1.287 . S
C4664 C4665 1.524 . S
C4664 H4683 0.913 . S
C4665 H4641 0.950 . S
C4665 C4664 1.524 . S
C4665 C4666 1.415 . S
C4666 H4642 0.950 . S
C4666 C4661 1.363 . S
C4666 C4665 1.415 . S
C4667 H4643 0.951 . S
C4667 C4668 1.366 . S
C4667 C4669 1.388 . S
C4668 C4667 1.366 . S
C4668 C4672 1.385 . S
C4669 H4644 0.951 . S
C4669 C4667 1.388 . S
C4669 C4670 1.366 . S
C4670 C4669 1.366 . S
C4670 C4671 1.414 . S
C4670 C4673 1.499 . S
C4671 H4645 0.950 . S
C4671 C4670 1.414 . S
C4671 C4672 1.374 . S
C4672 H4646 0.950 . S
C4672 C4668 1.385 . S
C4672 C4671 1.374 . S
C4673 C4670 1.499 . S
C4673 C4674 1.373 . S
C4673 C4675 1.389 . S
C4674 H4647 0.950 . S
C4674 C4660 1.377 . S
C4674 C4673 1.373 . S
C4675 C4659 1.377 . S
C4675 C4673 1.389 . S
C4675 C4676 1.524 . S
C4676 C4675 1.524 . S
C4676 C4677 1.397 . S
C4676 C4681 1.363 . S
C4677 H4648 0.950 . S
C4677 C4676 1.397 . S
C4677 C4678 1.334 . S
C4678 H4649 0.950 . S
C4678 C4677 1.334 . S
C4678 C4679 1.287 . S
C4679 C4678 1.287 . S
C4679 C4680 1.524 . S
C4679 H4682 0.999 . S
C4680 H4650 0.950 . S
C4680 C4679 1.524 . S
C4680 C4681 1.415 . S
C4681 H4651 0.950 . S
C4681 C4676 1.363 . S
C4681 C4680 1.415 . S
H4682 C4679 0.999 . S
H4683 C4664 0.913 . S
H4684 C4702 0.951 . S
H4685 C4704 0.951 . S
H4686 C4706 0.950 . S
H4687 C4707 0.950 . S
H4688 C4709 0.950 . S
H4689 C4712 0.950 . S
H4690 C4713 0.950 . S
H4691 C4715 0.950 . S
H4692 C4716 0.950 . S
H4693 C4717 0.951 . S
H4694 C4719 0.951 . S
H4695 C4721 0.950 . S
H4696 C4722 0.950 . S
H4697 C4724 0.950 . S
H4698 C4727 0.950 . S
H4699 C4728 0.950 . S
H4700 C4730 0.950 . S
H4701 C4731 0.950 . S
C4702 H4684 0.951 . S
C4702 C4703 1.366 . S
C4702 C4704 1.388 . S
C4703 C4702 1.366 . S
C4703 C4707 1.385 . S
C4704 H4685 0.951 . S
C4704 C4702 1.388 . S
C4704 C4705 1.366 . S
C4705 C4704 1.366 . S
C4705 C4706 1.414 . S
C4705 C4708 1.499 . S
C4706 H4686 0.950 . S
C4706 C4705 1.414 . S
C4706 C4707 1.374 . S
C4707 H4687 0.950 . S
C4707 C4703 1.385 . S
C4707 C4706 1.374 . S
C4708 C4705 1.499 . S
C4708 C4709 1.373 . S
C4708 C4710 1.389 . S
C4709 H4688 0.950 . S
C4709 C4708 1.373 . S
C4709 C4725 1.377 . S
C4710 C4708 1.389 . S
C4710 C4711 1.524 . S
C4710 C4724 1.377 . S
C4711 C4710 1.524 . S
C4711 C4712 1.397 . S
C4711 C4716 1.363 . S
C4712 H4689 0.950 . S
C4712 C4711 1.397 . S
C4712 C4713 1.334 . S
C4713 H4690 0.950 . S
C4713 C4712 1.334 . S
C4713 C4714 1.287 . S
C4714 C4713 1.287 . S
C4714 C4715 1.524 . S
C4714 H4733 0.913 . S
C4715 H4691 0.950 . S
C4715 C4714 1.524 . S
C4715 C4716 1.415 . S
C4716 H4692 0.950 . S
C4716 C4711 1.363 . S
C4716 C4715 1.415 . S
C4717 H4693 0.951 . S
C4717 C4718 1.366 . S
C4717 C4719 1.388 . S
C4718 C4717 1.366 . S
C4718 C4722 1.385 . S
C4719 H4694 0.951 . S
C4719 C4717 1.388 . S
C4719 C4720 1.366 . S
C4720 C4719 1.366 . S
C4720 C4721 1.414 . S
C4720 C4723 1.499 . S
C4721 H4695 0.950 . S
C4721 C4720 1.414 . S
C4721 C4722 1.374 . S
C4722 H4696 0.950 . S
C4722 C4718 1.385 . S
C4722 C4721 1.374 . S
C4723 C4720 1.499 . S
C4723 C4724 1.373 . S
C4723 C4725 1.389 . S
C4724 H4697 0.950 . S
C4724 C4710 1.377 . S
C4724 C4723 1.373 . S
C4725 C4709 1.377 . S
C4725 C4723 1.389 . S
C4725 C4726 1.524 . S
C4726 C4725 1.524 . S
C4726 C4727 1.397 . S
C4726 C4731 1.363 . S
C4727 H4698 0.950 . S
C4727 C4726 1.397 . S
C4727 C4728 1.334 . S
C4728 H4699 0.950 . S
C4728 C4727 1.334 . S
C4728 C4729 1.287 . S
C4729 C4728 1.287 . S
C4729 C4730 1.524 . S
C4729 H4732 0.999 . S
C4730 H4700 0.950 . S
C4730 C4729 1.524 . S
C4730 C4731 1.415 . S
C4731 H4701 0.950 . S
C4731 C4726 1.363 . S
C4731 C4730 1.415 . S
H4732 C4729 0.999 . S
H4733 C4714 0.913 . S
H4734 C4752 0.951 . S
H4735 C4754 0.951 . S
H4736 C4756 0.950 . S
H4737 C4757 0.950 . S
H4738 C4759 0.950 . S
H4739 C4762 0.950 . S
H4740 C4763 0.953 . S
H4741 C4765 0.950 . S
H4742 C4766 0.950 . S
H4743 C4767 0.951 . S
H4744 C4769 0.951 1_554 S
H4745 C4771 0.950 . S
H4746 C4772 0.950 . S
H4747 C4774 0.950 . S
H4748 C4777 0.950 . S
H4749 C4778 0.950 . S
H4750 C4780 0.950 . S
H4751 C4781 0.950 . S
C4752 H4734 0.951 . S
C4752 C4753 1.366 . S
C4752 C4754 1.388 . S
C4753 C4752 1.366 . S
C4753 C4757 1.385 . S
C4754 H4735 0.951 . S
C4754 C4752 1.388 . S
C4754 C4755 1.366 . S
C4755 C4754 1.366 . S
C4755 C4756 1.414 . S
C4755 C4758 1.499 1_655 S
C4756 H4736 0.950 . S
C4756 C4755 1.414 . S
C4756 C4757 1.374 . S
C4757 H4737 0.950 . S
C4757 C4753 1.385 . S
C4757 C4756 1.374 . S
C4758 C4755 1.499 1_455 S
C4758 C4759 1.373 . S
C4758 C4760 1.389 . S
C4759 H4738 0.950 . S
C4759 C4758 1.373 . S
C4759 C4775 1.377 . S
C4760 C4758 1.389 . S
C4760 C4761 1.524 1_454 S
C4760 C4774 1.377 1_554 S
C4761 C4760 1.524 1_656 S
C4761 C4762 1.397 1_556 S
C4761 C4766 1.363 . S
C4762 H4739 0.950 . S
C4762 C4761 1.397 1_554 S
C4762 C4763 1.334 1_554 S
C4763 H4740 0.953 . S
C4763 C4762 1.334 1_556 S
C4763 C4764 1.287 . S
C4764 C4763 1.287 . S
C4764 C4765 1.524 . S
C4764 H4783 0.913 . S
C4765 H4741 0.950 . S
C4765 C4764 1.524 . S
C4765 C4766 1.415 . S
C4766 H4742 0.950 . S
C4766 C4761 1.363 . S
C4766 C4765 1.415 . S
C4767 H4743 0.951 . S
C4767 C4768 1.366 . S
C4767 C4769 1.388 . S
C4768 C4767 1.366 . S
C4768 C4772 1.385 . S
C4769 H4744 0.951 1_556 S
C4769 C4767 1.388 . S
C4769 C4770 1.366 . S
C4770 C4769 1.366 . S
C4770 C4771 1.414 . S
C4770 C4773 1.499 1_556 S
C4771 H4745 0.950 . S
C4771 C4770 1.414 . S
C4771 C4772 1.374 . S
C4772 H4746 0.950 . S
C4772 C4768 1.385 . S
C4772 C4771 1.374 . S
C4773 C4770 1.499 1_554 S
C4773 C4774 1.373 1_554 S
C4773 C4775 1.389 . S
C4774 H4747 0.950 . S
C4774 C4760 1.377 1_556 S
C4774 C4773 1.373 1_556 S
C4775 C4759 1.377 . S
C4775 C4773 1.389 . S
C4775 C4776 1.524 . S
C4776 C4775 1.524 . S
C4776 C4777 1.397 . S
C4776 C4781 1.363 . S
C4777 H4748 0.950 . S
C4777 C4776 1.397 . S
C4777 C4778 1.334 . S
C4778 H4749 0.950 . S
C4778 C4777 1.334 . S
C4778 C4779 1.287 . S
C4779 C4778 1.287 . S
C4779 C4780 1.524 . S
C4779 H4782 0.999 . S
C4780 H4750 0.950 . S
C4780 C4779 1.524 . S
C4780 C4781 1.415 . S
C4781 H4751 0.950 . S
C4781 C4776 1.363 . S
C4781 C4780 1.415 . S
H4782 C4779 0.999 . S
H4783 C4764 0.913 . S
H4784 C4802 0.951 . S
H4785 C4804 0.951 . S
H4786 C4806 0.950 . S
H4787 C4807 0.950 . S
H4788 C4809 0.950 . S
H4789 C4812 0.950 . S
H4790 C4813 0.950 . S
H4791 C4815 0.950 . S
H4792 C4816 0.950 . S
H4793 C4817 0.951 . S
H4794 C4819 0.951 . S
H4795 C4821 0.950 . S
H4796 C4822 0.950 . S
H4797 C4824 0.950 . S
H4798 C4827 0.950 . S
H4799 C4828 0.950 . S
H4800 C4830 0.950 . S
H4801 C4831 0.950 . S
C4802 H4784 0.951 . S
C4802 C4803 1.366 . S
C4802 C4804 1.388 . S
C4803 C4802 1.366 . S
C4803 C4807 1.385 . S
C4804 H4785 0.951 . S
C4804 C4802 1.388 . S
C4804 C4805 1.366 . S
C4805 C4804 1.366 . S
C4805 C4806 1.414 . S
C4805 C4808 1.499 . S
C4806 H4786 0.950 . S
C4806 C4805 1.414 . S
C4806 C4807 1.374 . S
C4807 H4787 0.950 . S
C4807 C4803 1.385 . S
C4807 C4806 1.374 . S
C4808 C4805 1.499 . S
C4808 C4809 1.373 . S
C4808 C4810 1.389 . S
C4809 H4788 0.950 . S
C4809 C4808 1.373 . S
C4809 C4825 1.377 . S
C4810 C4808 1.389 . S
C4810 C4811 1.524 . S
C4810 C4824 1.377 . S
C4811 C4810 1.524 . S
C4811 C4812 1.397 . S
C4811 C4816 1.363 . S
C4812 H4789 0.950 . S
C4812 C4811 1.397 . S
C4812 C4813 1.334 . S
C4813 H4790 0.950 . S
C4813 C4812 1.334 . S
C4813 C4814 1.287 . S
C4814 C4813 1.287 . S
C4814 C4815 1.524 . S
C4814 H4833 0.913 . S
C4815 H4791 0.950 . S
C4815 C4814 1.524 . S
C4815 C4816 1.415 . S
C4816 H4792 0.950 . S
C4816 C4811 1.363 . S
C4816 C4815 1.415 . S
C4817 H4793 0.951 . S
C4817 C4818 1.366 . S
C4817 C4819 1.388 . S
C4818 C4817 1.366 . S
C4818 C4822 1.385 . S
C4819 H4794 0.951 . S
C4819 C4817 1.388 . S
C4819 C4820 1.366 . S
C4820 C4819 1.366 . S
C4820 C4821 1.414 . S
C4820 C4823 1.499 . S
C4821 H4795 0.950 . S
C4821 C4820 1.414 . S
C4821 C4822 1.374 . S
C4822 H4796 0.950 . S
C4822 C4818 1.385 . S
C4822 C4821 1.374 . S
C4823 C4820 1.499 . S
C4823 C4824 1.373 . S
C4823 C4825 1.389 . S
C4824 H4797 0.950 . S
C4824 C4810 1.377 . S
C4824 C4823 1.373 . S
C4825 C4809 1.377 . S
C4825 C4823 1.389 . S
C4825 C4826 1.524 . S
C4826 C4825 1.524 . S
C4826 C4827 1.397 . S
C4826 C4831 1.363 . S
C4827 H4798 0.950 . S
C4827 C4826 1.397 . S
C4827 C4828 1.334 . S
C4828 H4799 0.950 . S
C4828 C4827 1.334 . S
C4828 C4829 1.287 . S
C4829 C4828 1.287 . S
C4829 C4830 1.524 . S
C4829 H4832 0.999 . S
C4830 H4800 0.950 . S
C4830 C4829 1.524 . S
C4830 C4831 1.415 . S
C4831 H4801 0.950 . S
C4831 C4826 1.363 . S
C4831 C4830 1.415 . S
H4832 C4829 0.999 . S
H4833 C4814 0.913 . S
H4834 C4852 0.951 . S
H4835 C4854 0.951 . S
H4836 C4856 0.933 1_565 S
H4837 C4857 0.950 . S
H4838 C4859 0.950 1_545 S
H4839 C4862 0.950 . S
H4840 C4863 0.950 . S
H4841 C4865 0.950 . S
H4842 C4866 0.950 . S
H4843 C4867 0.951 . S
H4844 C4869 0.951 . S
H4845 C4871 0.950 . S
H4846 C4872 0.950 . S
H4847 C4874 0.950 . S
H4848 C4877 0.950 . S
H4849 C4878 0.944 1_545 S
H4850 C4880 0.950 . S
H4851 C4881 0.950 . S
C4852 H4834 0.951 . S
C4852 C4853 1.366 . S
C4852 C4854 1.388 . S
C4853 C4852 1.366 . S
C4853 C4857 1.385 . S
C4854 H4835 0.951 . S
C4854 C4852 1.388 . S
C4854 C4855 1.366 . S
C4855 C4854 1.366 . S
C4855 C4856 1.414 . S
C4855 C4858 1.499 1_545 S
C4856 H4836 0.933 1_545 S
C4856 C4855 1.414 . S
C4856 C4857 1.374 . S
C4857 H4837 0.950 . S
C4857 C4853 1.385 . S
C4857 C4856 1.374 . S
C4858 C4855 1.499 1_565 S
C4858 C4859 1.373 . S
C4858 C4860 1.389 . S
C4859 H4838 0.950 1_565 S
C4859 C4858 1.373 . S
C4859 C4875 1.377 . S
C4860 C4858 1.389 . S
C4860 C4861 1.524 . S
C4860 C4874 1.377 . S
C4861 C4860 1.524 . S
C4861 C4862 1.397 . S
C4861 C4866 1.363 . S
C4862 H4839 0.950 . S
C4862 C4861 1.397 . S
C4862 C4863 1.334 . S
C4863 H4840 0.950 . S
C4863 C4862 1.334 . S
C4863 C4864 1.287 . S
C4864 C4863 1.287 . S
C4864 C4865 1.524 . S
C4864 H4883 0.913 . S
C4865 H4841 0.950 . S
C4865 C4864 1.524 . S
C4865 C4866 1.415 . S
C4866 H4842 0.950 . S
C4866 C4861 1.363 . S
C4866 C4865 1.415 . S
C4867 H4843 0.951 . S
C4867 C4868 1.366 . S
C4867 C4869 1.388 . S
C4868 C4867 1.366 . S
C4868 C4872 1.385 . S
C4869 H4844 0.951 . S
C4869 C4867 1.388 . S
C4869 C4870 1.366 . S
C4870 C4869 1.366 . S
C4870 C4871 1.414 . S
C4870 C4873 1.499 . S
C4871 H4845 0.950 . S
C4871 C4870 1.414 . S
C4871 C4872 1.374 . S
C4872 H4846 0.950 . S
C4872 C4868 1.385 . S
C4872 C4871 1.374 . S
C4873 C4870 1.499 . S
C4873 C4874 1.373 . S
C4873 C4875 1.389 . S
C4874 H4847 0.950 . S
C4874 C4860 1.377 . S
C4874 C4873 1.373 . S
C4875 C4859 1.377 . S
C4875 C4873 1.389 . S
C4875 C4876 1.524 . S
C4876 C4875 1.524 . S
C4876 C4877 1.397 . S
C4876 C4881 1.363 . S
C4877 H4848 0.950 . S
C4877 C4876 1.397 . S
C4877 C4878 1.340 . S
C4878 H4849 0.944 1_565 S
C4878 C4877 1.340 . S
C4878 C4879 1.286 . S
C4879 C4878 1.286 . S
C4879 C4880 1.536 . S
C4879 H4882 0.993 1_565 S
C4880 H4850 0.950 . S
C4880 C4879 1.536 . S
C4880 C4881 1.415 . S
C4881 H4851 0.950 . S
C4881 C4876 1.363 . S
C4881 C4880 1.415 . S
H4882 C4879 0.993 1_545 S
H4883 C4864 0.913 . S
H4884 C4902 0.951 . S
H4885 C4904 0.951 . S
H4886 C4906 0.950 . S
H4887 C4907 0.950 . S
H4888 C4909 0.950 . S
H4889 C4912 0.950 . S
H4890 C4913 0.950 . S
H4891 C4915 0.950 . S
H4892 C4916 0.950 . S
H4893 C4917 0.951 . S
H4894 C4919 0.951 . S
H4895 C4921 0.950 . S
H4896 C4922 0.950 . S
H4897 C4924 0.950 . S
H4898 C4927 0.950 . S
H4899 C4928 0.950 . S
H4900 C4930 0.950 . S
H4901 C4931 0.950 . S
C4902 H4884 0.951 . S
C4902 C4903 1.366 . S
C4902 C4904 1.388 . S
C4903 C4902 1.366 . S
C4903 C4907 1.385 . S
C4904 H4885 0.951 . S
C4904 C4902 1.388 . S
C4904 C4905 1.366 . S
C4905 C4904 1.366 . S
C4905 C4906 1.414 . S
C4905 C4908 1.499 . S
C4906 H4886 0.950 . S
C4906 C4905 1.414 . S
C4906 C4907 1.374 . S
C4907 H4887 0.950 . S
C4907 C4903 1.385 . S
C4907 C4906 1.374 . S
C4908 C4905 1.499 . S
C4908 C4909 1.373 . S
C4908 C4910 1.389 . S
C4909 H4888 0.950 . S
C4909 C4908 1.373 . S
C4909 C4925 1.377 . S
C4910 C4908 1.389 . S
C4910 C4911 1.524 . S
C4910 C4924 1.377 . S
C4911 C4910 1.524 . S
C4911 C4912 1.397 . S
C4911 C4916 1.363 . S
C4912 H4889 0.950 . S
C4912 C4911 1.397 . S
C4912 C4913 1.334 . S
C4913 H4890 0.950 . S
C4913 C4912 1.334 . S
C4913 C4914 1.287 . S
C4914 C4913 1.287 . S
C4914 C4915 1.524 . S
C4914 H4933 0.913 . S
C4915 H4891 0.950 . S
C4915 C4914 1.524 . S
C4915 C4916 1.415 . S
C4916 H4892 0.950 . S
C4916 C4911 1.363 . S
C4916 C4915 1.415 . S
C4917 H4893 0.951 . S
C4917 C4918 1.366 . S
C4917 C4919 1.388 . S
C4918 C4917 1.366 . S
C4918 C4922 1.385 . S
C4919 H4894 0.951 . S
C4919 C4917 1.388 . S
C4919 C4920 1.366 . S
C4920 C4919 1.366 . S
C4920 C4921 1.414 . S
C4920 C4923 1.499 . S
C4921 H4895 0.950 . S
C4921 C4920 1.414 . S
C4921 C4922 1.374 . S
C4922 H4896 0.950 . S
C4922 C4918 1.385 . S
C4922 C4921 1.374 . S
C4923 C4920 1.499 . S
C4923 C4924 1.373 . S
C4923 C4925 1.389 . S
C4924 H4897 0.950 . S
C4924 C4910 1.377 . S
C4924 C4923 1.373 . S
C4925 C4909 1.377 . S
C4925 C4923 1.389 . S
C4925 C4926 1.524 . S
C4926 C4925 1.524 . S
C4926 C4927 1.397 . S
C4926 C4931 1.363 . S
C4927 H4898 0.950 . S
C4927 C4926 1.397 . S
C4927 C4928 1.334 . S
C4928 H4899 0.950 . S
C4928 C4927 1.334 . S
C4928 C4929 1.287 . S
C4929 C4928 1.287 . S
C4929 C4930 1.524 . S
C4929 H4932 0.999 . S
C4930 H4900 0.950 . S
C4930 C4929 1.524 . S
C4930 C4931 1.415 . S
C4931 H4901 0.950 . S
C4931 C4926 1.363 . S
C4931 C4930 1.415 . S
H4932 C4929 0.999 . S
H4933 C4914 0.913 . S
H4934 C4952 0.951 . S
H4935 C4954 0.951 1_554 S
H4936 C4956 0.950 . S
H4937 C4957 0.950 . S
H4938 C4959 0.950 . S
H4939 C4962 0.950 . S
H4940 C4963 0.950 . S
H4941 C4965 0.950 . S
H4942 C4966 0.950 . S
H4943 C4967 0.951 . S
H4944 C4969 0.951 . S
H4945 C4971 0.950 . S
H4946 C4972 0.950 . S
H4947 C4974 0.950 . S
H4948 C4977 0.950 . S
H4949 C4978 0.950 . S
H4950 C4980 0.950 . S
H4951 C4981 0.950 . S
C4952 H4934 0.951 . S
C4952 C4953 1.366 . S
C4952 C4954 1.388 . S
C4953 C4952 1.366 . S
C4953 C4957 1.385 . S
C4954 H4935 0.951 1_556 S
C4954 C4952 1.388 . S
C4954 C4955 1.366 . S
C4955 C4954 1.366 . S
C4955 C4956 1.414 . S
C4955 C4958 1.499 1_556 S
C4956 H4936 0.950 . S
C4956 C4955 1.414 . S
C4956 C4957 1.374 . S
C4957 H4937 0.950 . S
C4957 C4953 1.385 . S
C4957 C4956 1.374 . S
C4958 C4955 1.499 1_554 S
C4958 C4959 1.373 . S
C4958 C4960 1.389 . S
C4959 H4938 0.950 . S
C4959 C4958 1.373 . S
C4959 C4975 1.377 . S
C4960 C4958 1.389 . S
C4960 C4961 1.524 . S
C4960 C4974 1.377 . S
C4961 C4960 1.524 . S
C4961 C4962 1.397 1_554 S
C4961 C4966 1.363 . S
C4962 H4939 0.950 . S
C4962 C4961 1.397 1_556 S
C4962 C4963 1.334 . S
C4963 H4940 0.950 . S
C4963 C4962 1.334 . S
C4963 C4964 1.287 . S
C4964 C4963 1.287 . S
C4964 C4965 1.524 1_556 S
C4964 H4983 0.913 . S
C4965 H4941 0.950 . S
C4965 C4964 1.524 1_554 S
C4965 C4966 1.415 . S
C4966 H4942 0.950 . S
C4966 C4961 1.363 . S
C4966 C4965 1.415 . S
C4967 H4943 0.951 . S
C4967 C4968 1.366 . S
C4967 C4969 1.388 . S
C4968 C4967 1.366 . S
C4968 C4972 1.385 . S
C4969 H4944 0.951 . S
C4969 C4967 1.388 . S
C4969 C4970 1.366 . S
C4970 C4969 1.366 . S
C4970 C4971 1.414 . S
C4970 C4973 1.499 . S
C4971 H4945 0.950 . S
C4971 C4970 1.414 . S
C4971 C4972 1.374 . S
C4972 H4946 0.950 . S
C4972 C4968 1.385 . S
C4972 C4971 1.374 . S
C4973 C4970 1.499 . S
C4973 C4974 1.373 . S
C4973 C4975 1.389 . S
C4974 H4947 0.950 . S
C4974 C4960 1.377 . S
C4974 C4973 1.373 . S
C4975 C4959 1.377 . S
C4975 C4973 1.389 . S
C4975 C4976 1.524 . S
C4976 C4975 1.524 . S
C4976 C4977 1.397 . S
C4976 C4981 1.363 . S
C4977 H4948 0.950 . S
C4977 C4976 1.397 . S
C4977 C4978 1.334 . S
C4978 H4949 0.950 . S
C4978 C4977 1.334 . S
C4978 C4979 1.287 . S
C4979 C4978 1.287 . S
C4979 C4980 1.524 . S
C4979 H4982 0.999 . S
C4980 H4950 0.950 . S
C4980 C4979 1.524 . S
C4980 C4981 1.415 . S
C4981 H4951 0.950 . S
C4981 C4976 1.363 . S
C4981 C4980 1.415 . S
H4982 C4979 0.999 . S
H4983 C4964 0.913 . S
H4984 C5002 0.951 . S
H4985 C5004 0.951 . S
H4986 C5006 0.950 . S
H4987 C5007 0.950 . S
H4988 C5009 0.950 . S
H4989 C5012 0.950 . S
H4990 C5013 0.950 . S
H4991 C5015 0.950 . S
H4992 C5016 0.950 . S
H4993 C5017 0.951 . S
H4994 C5019 0.951 . S
H4995 C5021 0.950 . S
H4996 C5022 0.950 . S
H4997 C5024 0.950 . S
H4998 C5027 0.950 . S
H4999 C5028 0.950 . S
H5000 C5030 0.950 . S
H5001 C5031 0.950 . S
C5002 H4984 0.951 . S
C5002 C5003 1.366 . S
C5002 C5004 1.388 . S
C5003 C5002 1.366 . S
C5003 C5007 1.385 . S
C5004 H4985 0.951 . S
C5004 C5002 1.388 . S
C5004 C5005 1.366 . S
C5005 C5004 1.366 . S
C5005 C5006 1.414 . S
C5005 C5008 1.499 . S
C5006 H4986 0.950 . S
C5006 C5005 1.414 . S
C5006 C5007 1.374 . S
C5007 H4987 0.950 . S
C5007 C5003 1.385 . S
C5007 C5006 1.374 . S
C5008 C5005 1.499 . S
C5008 C5009 1.373 1_545 S
C5008 C5010 1.389 1_655 S
C5009 H4988 0.950 . S
C5009 C5008 1.373 1_565 S
C5009 C5025 1.377 1_655 S
C5010 C5008 1.389 1_455 S
C5010 C5011 1.524 . S
C5010 C5024 1.377 . S
C5011 C5010 1.524 . S
C5011 C5012 1.397 1_455 S
C5011 C5016 1.363 . S
C5012 H4989 0.950 . S
C5012 C5011 1.397 1_655 S
C5012 C5013 1.334 . S
C5013 H4990 0.950 . S
C5013 C5012 1.334 . S
C5013 C5014 1.287 1_655 S
C5014 C5013 1.287 1_455 S
C5014 C5015 1.524 . S
C5014 H5033 0.913 . S
C5015 H4991 0.950 . S
C5015 C5014 1.524 . S
C5015 C5016 1.415 . S
C5016 H4992 0.950 . S
C5016 C5011 1.363 . S
C5016 C5015 1.415 . S
C5017 H4993 0.951 . S
C5017 C5018 1.366 . S
C5017 C5019 1.388 . S
C5018 C5017 1.366 . S
C5018 C5022 1.385 . S
C5019 H4994 0.951 . S
C5019 C5017 1.388 . S
C5019 C5020 1.366 . S
C5020 C5019 1.366 . S
C5020 C5021 1.414 . S
C5020 C5023 1.499 . S
C5021 H4995 0.950 . S
C5021 C5020 1.414 . S
C5021 C5022 1.374 . S
C5022 H4996 0.950 . S
C5022 C5018 1.385 . S
C5022 C5021 1.374 . S
C5023 C5020 1.499 . S
C5023 C5024 1.373 1_565 S
C5023 C5025 1.389 . S
C5024 H4997 0.950 . S
C5024 C5010 1.377 . S
C5024 C5023 1.373 1_545 S
C5025 C5009 1.377 1_455 S
C5025 C5023 1.389 . S
C5025 C5026 1.525 1_455 S
C5026 C5025 1.525 1_655 S
C5026 C5027 1.403 1_655 S
C5026 C5031 1.357 . S
C5027 H4998 0.950 . S
C5027 C5026 1.403 1_455 S
C5027 C5028 1.334 . S
C5028 H4999 0.950 . S
C5028 C5027 1.334 . S
C5028 C5029 1.289 1_455 S
C5029 C5028 1.289 1_655 S
C5029 C5030 1.521 . S
C5029 H5032 1.000 . S
C5030 H5000 0.950 . S
C5030 C5029 1.521 . S
C5030 C5031 1.415 . S
C5031 H5001 0.950 . S
C5031 C5026 1.357 . S
C5031 C5030 1.415 . S
H5032 C5029 1.000 . S
H5033 C5014 0.913 . S
H5034 C5052 0.951 . S
H5035 C5054 0.951 . S
H5036 C5056 0.950 . S
H5037 C5057 0.950 . S
H5038 C5059 0.950 . S
H5039 C5062 0.950 . S
H5040 C5063 0.950 . S
H5041 C5065 0.950 . S
H5042 C5066 0.950 . S
H5043 C5067 0.951 . S
H5044 C5069 0.951 . S
H5045 C5071 0.950 . S
H5046 C5072 0.950 . S
H5047 C5074 0.950 . S
H5048 C5077 0.950 . S
H5049 C5078 0.950 . S
H5050 C5080 0.950 . S
H5051 C5081 0.950 . S
C5052 H5034 0.951 . S
C5052 C5053 1.366 . S
C5052 C5054 1.388 . S
C5053 C5052 1.366 . S
C5053 C5057 1.385 . S
C5054 H5035 0.951 . S
C5054 C5052 1.388 . S
C5054 C5055 1.366 . S
C5055 C5054 1.366 . S
C5055 C5056 1.414 . S
C5055 C5058 1.499 . S
C5056 H5036 0.950 . S
C5056 C5055 1.414 . S
C5056 C5057 1.374 . S
C5057 H5037 0.950 . S
C5057 C5053 1.385 . S
C5057 C5056 1.374 . S
C5058 C5055 1.499 . S
C5058 C5059 1.373 . S
C5058 C5060 1.389 . S
C5059 H5038 0.950 . S
C5059 C5058 1.373 . S
C5059 C5075 1.377 . S
C5060 C5058 1.389 . S
C5060 C5061 1.524 . S
C5060 C5074 1.377 . S
C5061 C5060 1.524 . S
C5061 C5062 1.397 . S
C5061 C5066 1.363 . S
C5062 H5039 0.950 . S
C5062 C5061 1.397 . S
C5062 C5063 1.334 . S
C5063 H5040 0.950 . S
C5063 C5062 1.334 . S
C5063 C5064 1.287 . S
C5064 C5063 1.287 . S
C5064 C5065 1.524 . S
C5064 H5083 0.913 . S
C5065 H5041 0.950 . S
C5065 C5064 1.524 . S
C5065 C5066 1.415 . S
C5066 H5042 0.950 . S
C5066 C5061 1.363 . S
C5066 C5065 1.415 . S
C5067 H5043 0.951 . S
C5067 C5068 1.366 . S
C5067 C5069 1.388 . S
C5068 C5067 1.366 . S
C5068 C5072 1.385 . S
C5069 H5044 0.951 . S
C5069 C5067 1.388 . S
C5069 C5070 1.366 . S
C5070 C5069 1.366 . S
C5070 C5071 1.414 . S
C5070 C5073 1.499 . S
C5071 H5045 0.950 . S
C5071 C5070 1.414 . S
C5071 C5072 1.374 . S
C5072 H5046 0.950 . S
C5072 C5068 1.385 . S
C5072 C5071 1.374 . S
C5073 C5070 1.499 . S
C5073 C5074 1.373 . S
C5073 C5075 1.389 . S
C5074 H5047 0.950 . S
C5074 C5060 1.377 . S
C5074 C5073 1.373 . S
C5075 C5059 1.377 . S
C5075 C5073 1.389 . S
C5075 C5076 1.524 . S
C5076 C5075 1.524 . S
C5076 C5077 1.397 . S
C5076 C5081 1.363 . S
C5077 H5048 0.950 . S
C5077 C5076 1.397 . S
C5077 C5078 1.334 . S
C5078 H5049 0.950 . S
C5078 C5077 1.334 . S
C5078 C5079 1.287 . S
C5079 C5078 1.287 . S
C5079 C5080 1.524 . S
C5079 H5082 0.999 . S
C5080 H5050 0.950 . S
C5080 C5079 1.524 . S
C5080 C5081 1.415 . S
C5081 H5051 0.950 . S
C5081 C5076 1.363 . S
C5081 C5080 1.415 . S
H5082 C5079 0.999 . S
H5083 C5064 0.913 . S
H5084 C5102 0.951 . S
H5085 C5104 0.951 . S
H5086 C5106 0.950 . S
H5087 C5107 0.950 . S
H5088 C5109 0.950 . S
H5089 C5112 0.950 . S
H5090 C5113 0.950 . S
H5091 C5115 0.950 . S
H5092 C5116 0.950 . S
H5093 C5117 0.951 . S
H5094 C5119 0.951 . S
H5095 C5121 0.950 . S
H5096 C5122 0.950 . S
H5097 C5124 0.950 . S
H5098 C5127 0.950 . S
H5099 C5128 0.950 . S
H5100 C5130 0.950 . S
H5101 C5131 0.950 . S
C5102 H5084 0.951 . S
C5102 C5103 1.366 . S
C5102 C5104 1.388 . S
C5103 C5102 1.366 . S
C5103 C5107 1.385 . S
C5104 H5085 0.951 . S
C5104 C5102 1.388 . S
C5104 C5105 1.366 . S
C5105 C5104 1.366 . S
C5105 C5106 1.414 . S
C5105 C5108 1.499 . S
C5106 H5086 0.950 . S
C5106 C5105 1.414 . S
C5106 C5107 1.374 . S
C5107 H5087 0.950 . S
C5107 C5103 1.385 . S
C5107 C5106 1.374 . S
C5108 C5105 1.499 . S
C5108 C5109 1.373 . S
C5108 C5110 1.389 . S
C5109 H5088 0.950 . S
C5109 C5108 1.373 . S
C5109 C5125 1.377 1_565 S
C5110 C5108 1.389 . S
C5110 C5111 1.524 . S
C5110 C5124 1.377 . S
C5111 C5110 1.524 . S
C5111 C5112 1.397 . S
C5111 C5116 1.363 . S
C5112 H5089 0.950 . S
C5112 C5111 1.397 . S
C5112 C5113 1.334 . S
C5113 H5090 0.950 . S
C5113 C5112 1.334 . S
C5113 C5114 1.287 . S
C5114 C5113 1.287 . S
C5114 C5115 1.524 . S
C5114 H5133 0.913 . S
C5115 H5091 0.950 . S
C5115 C5114 1.524 . S
C5115 C5116 1.415 . S
C5116 H5092 0.950 . S
C5116 C5111 1.363 . S
C5116 C5115 1.415 . S
C5117 H5093 0.951 . S
C5117 C5118 1.366 . S
C5117 C5119 1.388 . S
C5118 C5117 1.366 . S
C5118 C5122 1.385 . S
C5119 H5094 0.951 . S
C5119 C5117 1.388 . S
C5119 C5120 1.366 . S
C5120 C5119 1.366 . S
C5120 C5121 1.414 . S
C5120 C5123 1.499 . S
C5121 H5095 0.950 . S
C5121 C5120 1.414 . S
C5121 C5122 1.374 . S
C5122 H5096 0.950 . S
C5122 C5118 1.385 . S
C5122 C5121 1.374 . S
C5123 C5120 1.499 . S
C5123 C5124 1.373 1_545 S
C5123 C5125 1.389 . S
C5124 H5097 0.950 . S
C5124 C5110 1.377 . S
C5124 C5123 1.373 1_565 S
C5125 C5109 1.377 1_545 S
C5125 C5123 1.389 . S
C5125 C5126 1.524 . S
C5126 C5125 1.524 . S
C5126 C5127 1.397 . S
C5126 C5131 1.363 . S
C5127 H5098 0.950 . S
C5127 C5126 1.397 . S
C5127 C5128 1.334 . S
C5128 H5099 0.950 . S
C5128 C5127 1.334 . S
C5128 C5129 1.287 . S
C5129 C5128 1.287 . S
C5129 C5130 1.524 . S
C5129 H5132 0.999 . S
C5130 H5100 0.950 . S
C5130 C5129 1.524 . S
C5130 C5131 1.415 . S
C5131 H5101 0.950 . S
C5131 C5126 1.363 . S
C5131 C5130 1.415 . S
H5132 C5129 0.999 . S
H5133 C5114 0.913 . S
H5134 C5152 0.951 . S
H5135 C5154 0.951 . S
H5136 C5156 0.950 . S
H5137 C5157 0.950 . S
H5138 C5159 0.950 . S
H5139 C5162 0.950 . S
H5140 C5163 0.950 . S
H5141 C5165 0.950 . S
H5142 C5166 0.950 . S
H5143 C5167 0.951 . S
H5144 C5169 0.951 . S
H5145 C5171 0.950 . S
H5146 C5172 0.950 . S
H5147 C5174 0.950 . S
H5148 C5177 0.950 . S
H5149 C5178 0.950 . S
H5150 C5180 0.950 . S
H5151 C5181 0.950 . S
C5152 H5134 0.951 . S
C5152 C5153 1.366 . S
C5152 C5154 1.388 . S
C5153 C5152 1.366 . S
C5153 C5157 1.385 . S
C5154 H5135 0.951 . S
C5154 C5152 1.388 . S
C5154 C5155 1.366 . S
C5155 C5154 1.366 . S
C5155 C5156 1.414 . S
C5155 C5158 1.499 . S
C5156 H5136 0.950 . S
C5156 C5155 1.414 . S
C5156 C5157 1.374 . S
C5157 H5137 0.950 . S
C5157 C5153 1.385 . S
C5157 C5156 1.374 . S
C5158 C5155 1.499 . S
C5158 C5159 1.373 . S
C5158 C5160 1.389 . S
C5159 H5138 0.950 . S
C5159 C5158 1.373 . S
C5159 C5175 1.377 1_455 S
C5160 C5158 1.389 . S
C5160 C5161 1.524 . S
C5160 C5174 1.377 . S
C5161 C5160 1.524 . S
C5161 C5162 1.397 . S
C5161 C5166 1.363 . S
C5162 H5139 0.950 . S
C5162 C5161 1.397 . S
C5162 C5163 1.334 . S
C5163 H5140 0.950 . S
C5163 C5162 1.334 . S
C5163 C5164 1.287 . S
C5164 C5163 1.287 . S
C5164 C5165 1.524 . S
C5164 H5183 0.913 . S
C5165 H5141 0.950 . S
C5165 C5164 1.524 . S
C5165 C5166 1.415 . S
C5166 H5142 0.950 . S
C5166 C5161 1.363 . S
C5166 C5165 1.415 . S
C5167 H5143 0.951 . S
C5167 C5168 1.366 . S
C5167 C5169 1.388 . S
C5168 C5167 1.366 . S
C5168 C5172 1.385 . S
C5169 H5144 0.951 . S
C5169 C5167 1.388 . S
C5169 C5170 1.366 . S
C5170 C5169 1.366 . S
C5170 C5171 1.414 . S
C5170 C5173 1.499 . S
C5171 H5145 0.950 . S
C5171 C5170 1.414 . S
C5171 C5172 1.374 . S
C5172 H5146 0.950 . S
C5172 C5168 1.385 . S
C5172 C5171 1.374 . S
C5173 C5170 1.499 . S
C5173 C5174 1.373 1_655 S
C5173 C5175 1.389 . S
C5174 H5147 0.950 . S
C5174 C5160 1.377 . S
C5174 C5173 1.373 1_455 S
C5175 C5159 1.377 1_655 S
C5175 C5173 1.389 . S
C5175 C5176 1.524 . S
C5176 C5175 1.524 . S
C5176 C5177 1.397 . S
C5176 C5181 1.363 . S
C5177 H5148 0.950 . S
C5177 C5176 1.397 . S
C5177 C5178 1.334 . S
C5178 H5149 0.950 . S
C5178 C5177 1.334 . S
C5178 C5179 1.287 . S
C5179 C5178 1.287 . S
C5179 C5180 1.524 . S
C5179 H5182 0.999 . S
C5180 H5150 0.950 . S
C5180 C5179 1.524 . S
C5180 C5181 1.415 . S
C5181 H5151 0.950 . S
C5181 C5176 1.363 . S
C5181 C5180 1.415 . S
H5182 C5179 0.999 . S
H5183 C5164 0.913 . S
H5184 C5202 0.951 . S
H5185 C5204 0.951 . S
H5186 C5206 0.950 . S
H5187 C5207 0.950 . S
H5188 C5209 0.955 . S
H5189 C5212 0.950 . S
H5190 C5213 0.950 . S
H5191 C5215 0.950 . S
H5192 C5216 0.950 . S
H5193 C5217 0.951 . S
H5194 C5219 0.912 1_554 S
H5195 C5221 0.950 . S
H5196 C5222 0.950 . S
H5197 C5224 0.950 . S
H5198 C5227 0.950 . S
H5199 C5228 0.950 . S
H5200 C5230 0.950 . S
H5201 C5231 0.950 . S
C5202 H5184 0.951 . S
C5202 C5203 1.366 . S
C5202 C5204 1.388 . S
C5203 C5202 1.366 . S
C5203 C5207 1.385 . S
C5204 H5185 0.951 . S
C5204 C5202 1.388 . S
C5204 C5205 1.366 . S
C5205 C5204 1.366 . S
C5205 C5206 1.414 . S
C5205 C5208 1.499 . S
C5206 H5186 0.950 . S
C5206 C5205 1.414 . S
C5206 C5207 1.374 . S
C5207 H5187 0.950 . S
C5207 C5203 1.385 . S
C5207 C5206 1.374 . S
C5208 C5205 1.499 . S
C5208 C5209 1.349 1_565 S
C5208 C5210 1.389 . S
C5209 H5188 0.955 . S
C5209 C5208 1.349 1_545 S
C5209 C5225 1.396 . S
C5210 C5208 1.389 . S
C5210 C5211 1.545 . S
C5210 C5224 1.377 1_554 S
C5211 C5210 1.545 . S
C5211 C5212 1.434 . S
C5211 C5216 1.307 1_554 S
C5212 H5189 0.950 . S
C5212 C5211 1.434 . S
C5212 C5213 1.334 . S
C5213 H5190 0.950 . S
C5213 C5212 1.334 . S
C5213 C5214 1.287 1_554 S
C5214 C5213 1.287 1_556 S
C5214 C5215 1.524 . S
C5214 H5233 0.913 . S
C5215 H5191 0.950 . S
C5215 C5214 1.524 . S
C5215 C5216 1.415 . S
C5216 H5192 0.950 . S
C5216 C5211 1.307 1_556 S
C5216 C5215 1.415 . S
C5217 H5193 0.951 . S
C5217 C5218 1.366 . S
C5217 C5219 1.388 . S
C5218 C5217 1.366 . S
C5218 C5222 1.385 . S
C5219 H5194 0.912 1_556 S
C5219 C5217 1.388 . S
C5219 C5220 1.366 . S
C5220 C5219 1.366 . S
C5220 C5221 1.414 . S
C5220 C5223 1.549 . S
C5221 H5195 0.950 . S
C5221 C5220 1.414 . S
C5221 C5222 1.374 . S
C5222 H5196 0.950 . S
C5222 C5218 1.385 . S
C5222 C5221 1.374 . S
C5223 C5220 1.549 . S
C5223 C5224 1.392 1_545 S
C5223 C5225 1.321 1_556 S
C5224 H5197 0.950 . S
C5224 C5210 1.377 1_556 S
C5224 C5223 1.392 1_565 S
C5225 C5209 1.396 . S
C5225 C5223 1.321 1_554 S
C5225 C5226 1.524 . S
C5226 C5225 1.524 . S
C5226 C5227 1.397 . S
C5226 C5231 1.363 . S
C5227 H5198 0.950 . S
C5227 C5226 1.397 . S
C5227 C5228 1.334 . S
C5228 H5199 0.950 . S
C5228 C5227 1.334 . S
C5228 C5229 1.287 . S
C5229 C5228 1.287 . S
C5229 C5230 1.524 . S
C5229 H5232 0.999 . S
C5230 H5200 0.950 . S
C5230 C5229 1.524 . S
C5230 C5231 1.415 . S
C5231 H5201 0.950 . S
C5231 C5226 1.363 . S
C5231 C5230 1.415 . S
H5232 C5229 0.999 . S
H5233 C5214 0.913 . S
H5234 C5252 0.951 . S
H5235 C5254 0.951 . S
H5236 C5256 0.950 . S
H5237 C5257 0.950 . S
H5238 C5259 0.950 . S
H5239 C5262 0.950 . S
H5240 C5263 0.950 . S
H5241 C5265 0.950 . S
H5242 C5266 0.950 . S
H5243 C5267 0.951 . S
H5244 C5269 0.951 . S
H5245 C5271 0.950 . S
H5246 C5272 0.950 . S
H5247 C5274 0.950 . S
H5248 C5277 0.950 . S
H5249 C5278 0.950 . S
H5250 C5280 0.950 . S
H5251 C5281 0.950 . S
C5252 H5234 0.951 . S
C5252 C5253 1.366 . S
C5252 C5254 1.388 . S
C5253 C5252 1.366 . S
C5253 C5257 1.385 . S
C5254 H5235 0.951 . S
C5254 C5252 1.388 . S
C5254 C5255 1.366 . S
C5255 C5254 1.366 . S
C5255 C5256 1.414 . S
C5255 C5258 1.499 . S
C5256 H5236 0.950 . S
C5256 C5255 1.414 . S
C5256 C5257 1.374 . S
C5257 H5237 0.950 . S
C5257 C5253 1.385 . S
C5257 C5256 1.374 . S
C5258 C5255 1.499 . S
C5258 C5259 1.373 . S
C5258 C5260 1.389 . S
C5259 H5238 0.950 . S
C5259 C5258 1.373 . S
C5259 C5275 1.377 . S
C5260 C5258 1.389 . S
C5260 C5261 1.524 . S
C5260 C5274 1.377 . S
C5261 C5260 1.524 . S
C5261 C5262 1.397 . S
C5261 C5266 1.363 . S
C5262 H5239 0.950 . S
C5262 C5261 1.397 . S
C5262 C5263 1.334 . S
C5263 H5240 0.950 . S
C5263 C5262 1.334 . S
C5263 C5264 1.287 . S
C5264 C5263 1.287 . S
C5264 C5265 1.524 . S
C5264 H5283 0.913 . S
C5265 H5241 0.950 . S
C5265 C5264 1.524 . S
C5265 C5266 1.415 . S
C5266 H5242 0.950 . S
C5266 C5261 1.363 . S
C5266 C5265 1.415 . S
C5267 H5243 0.951 . S
C5267 C5268 1.366 . S
C5267 C5269 1.388 . S
C5268 C5267 1.366 . S
C5268 C5272 1.385 . S
C5269 H5244 0.951 . S
C5269 C5267 1.388 . S
C5269 C5270 1.366 . S
C5270 C5269 1.366 . S
C5270 C5271 1.414 . S
C5270 C5273 1.499 . S
C5271 H5245 0.950 . S
C5271 C5270 1.414 . S
C5271 C5272 1.374 . S
C5272 H5246 0.950 . S
C5272 C5268 1.385 . S
C5272 C5271 1.374 . S
C5273 C5270 1.499 . S
C5273 C5274 1.373 . S
C5273 C5275 1.389 . S
C5274 H5247 0.950 . S
C5274 C5260 1.377 . S
C5274 C5273 1.373 . S
C5275 C5259 1.377 . S
C5275 C5273 1.389 . S
C5275 C5276 1.524 . S
C5276 C5275 1.524 . S
C5276 C5277 1.397 . S
C5276 C5281 1.363 . S
C5277 H5248 0.950 . S
C5277 C5276 1.397 . S
C5277 C5278 1.334 . S
C5278 H5249 0.950 . S
C5278 C5277 1.334 . S
C5278 C5279 1.287 . S
C5279 C5278 1.287 . S
C5279 C5280 1.524 . S
C5279 H5282 0.999 . S
C5280 H5250 0.950 . S
C5280 C5279 1.524 . S
C5280 C5281 1.415 . S
C5281 H5251 0.950 . S
C5281 C5276 1.363 . S
C5281 C5280 1.415 . S
H5282 C5279 0.999 . S
H5283 C5264 0.913 . S
H5284 C5302 0.951 . S
H5285 C5304 0.951 . S
H5286 C5306 0.950 . S
H5287 C5307 0.950 . S
H5288 C5309 0.950 . S
H5289 C5312 0.950 . S
H5290 C5313 0.950 . S
H5291 C5315 0.950 . S
H5292 C5316 0.950 . S
H5293 C5317 0.951 . S
H5294 C5319 0.951 . S
H5295 C5321 0.950 . S
H5296 C5322 0.950 . S
H5297 C5324 0.950 . S
H5298 C5327 0.950 . S
H5299 C5328 0.950 . S
H5300 C5330 0.950 . S
H5301 C5331 0.950 . S
C5302 H5284 0.951 . S
C5302 C5303 1.366 . S
C5302 C5304 1.388 . S
C5303 C5302 1.366 . S
C5303 C5307 1.385 . S
C5304 H5285 0.951 . S
C5304 C5302 1.388 . S
C5304 C5305 1.366 . S
C5305 C5304 1.366 . S
C5305 C5306 1.414 . S
C5305 C5308 1.499 . S
C5306 H5286 0.950 . S
C5306 C5305 1.414 . S
C5306 C5307 1.374 . S
C5307 H5287 0.950 . S
C5307 C5303 1.385 . S
C5307 C5306 1.374 . S
C5308 C5305 1.499 . S
C5308 C5309 1.373 . S
C5308 C5310 1.389 . S
C5309 H5288 0.950 . S
C5309 C5308 1.373 . S
C5309 C5325 1.377 . S
C5310 C5308 1.389 . S
C5310 C5311 1.524 . S
C5310 C5324 1.377 . S
C5311 C5310 1.524 . S
C5311 C5312 1.397 . S
C5311 C5316 1.363 . S
C5312 H5289 0.950 . S
C5312 C5311 1.397 . S
C5312 C5313 1.334 . S
C5313 H5290 0.950 . S
C5313 C5312 1.334 . S
C5313 C5314 1.287 . S
C5314 C5313 1.287 . S
C5314 C5315 1.524 . S
C5314 H5333 0.913 . S
C5315 H5291 0.950 . S
C5315 C5314 1.524 . S
C5315 C5316 1.415 . S
C5316 H5292 0.950 . S
C5316 C5311 1.363 . S
C5316 C5315 1.415 . S
C5317 H5293 0.951 . S
C5317 C5318 1.366 . S
C5317 C5319 1.388 . S
C5318 C5317 1.366 . S
C5318 C5322 1.385 . S
C5319 H5294 0.951 . S
C5319 C5317 1.388 . S
C5319 C5320 1.366 . S
C5320 C5319 1.366 . S
C5320 C5321 1.414 . S
C5320 C5323 1.499 . S
C5321 H5295 0.950 . S
C5321 C5320 1.414 . S
C5321 C5322 1.374 . S
C5322 H5296 0.950 . S
C5322 C5318 1.385 . S
C5322 C5321 1.374 . S
C5323 C5320 1.499 . S
C5323 C5324 1.373 . S
C5323 C5325 1.389 . S
C5324 H5297 0.950 . S
C5324 C5310 1.377 . S
C5324 C5323 1.373 . S
C5325 C5309 1.377 . S
C5325 C5323 1.389 . S
C5325 C5326 1.524 . S
C5326 C5325 1.524 . S
C5326 C5327 1.397 . S
C5326 C5331 1.363 . S
C5327 H5298 0.950 . S
C5327 C5326 1.397 . S
C5327 C5328 1.334 . S
C5328 H5299 0.950 . S
C5328 C5327 1.334 . S
C5328 C5329 1.287 . S
C5329 C5328 1.287 . S
C5329 C5330 1.524 . S
C5329 H5332 0.999 . S
C5330 H5300 0.950 . S
C5330 C5329 1.524 . S
C5330 C5331 1.415 . S
C5331 H5301 0.950 . S
C5331 C5326 1.363 . S
C5331 C5330 1.415 . S
H5332 C5329 0.999 . S
H5333 C5314 0.913 . S
H5334 C5352 0.951 . S
H5335 C5354 0.951 . S
H5336 C5356 0.950 . S
H5337 C5357 0.950 . S
H5338 C5359 0.950 . S
H5339 C5362 0.950 . S
H5340 C5363 0.950 . S
H5341 C5365 0.950 . S
H5342 C5366 0.950 . S
H5343 C5367 0.951 . S
H5344 C5369 0.951 . S
H5345 C5371 0.950 . S
H5346 C5372 0.950 . S
H5347 C5374 0.950 . S
H5348 C5377 0.950 . S
H5349 C5378 0.950 . S
H5350 C5380 0.950 . S
H5351 C5381 0.950 . S
C5352 H5334 0.951 . S
C5352 C5353 1.366 . S
C5352 C5354 1.388 . S
C5353 C5352 1.366 . S
C5353 C5357 1.385 . S
C5354 H5335 0.951 . S
C5354 C5352 1.388 . S
C5354 C5355 1.366 . S
C5355 C5354 1.366 . S
C5355 C5356 1.414 . S
C5355 C5358 1.499 . S
C5356 H5336 0.950 . S
C5356 C5355 1.414 . S
C5356 C5357 1.374 . S
C5357 H5337 0.950 . S
C5357 C5353 1.385 . S
C5357 C5356 1.374 . S
C5358 C5355 1.499 . S
C5358 C5359 1.373 . S
C5358 C5360 1.389 . S
C5359 H5338 0.950 . S
C5359 C5358 1.373 . S
C5359 C5375 1.377 . S
C5360 C5358 1.389 . S
C5360 C5361 1.524 . S
C5360 C5374 1.377 . S
C5361 C5360 1.524 . S
C5361 C5362 1.397 . S
C5361 C5366 1.363 . S
C5362 H5339 0.950 . S
C5362 C5361 1.397 . S
C5362 C5363 1.334 . S
C5363 H5340 0.950 . S
C5363 C5362 1.334 . S
C5363 C5364 1.287 . S
C5364 C5363 1.287 . S
C5364 C5365 1.524 . S
C5364 H5383 0.913 . S
C5365 H5341 0.950 . S
C5365 C5364 1.524 . S
C5365 C5366 1.415 . S
C5366 H5342 0.950 . S
C5366 C5361 1.363 . S
C5366 C5365 1.415 . S
C5367 H5343 0.951 . S
C5367 C5368 1.366 . S
C5367 C5369 1.388 . S
C5368 C5367 1.366 . S
C5368 C5372 1.385 . S
C5369 H5344 0.951 . S
C5369 C5367 1.388 . S
C5369 C5370 1.366 . S
C5370 C5369 1.366 . S
C5370 C5371 1.414 . S
C5370 C5373 1.499 . S
C5371 H5345 0.950 . S
C5371 C5370 1.414 . S
C5371 C5372 1.374 . S
C5372 H5346 0.950 . S
C5372 C5368 1.385 . S
C5372 C5371 1.374 . S
C5373 C5370 1.499 . S
C5373 C5374 1.373 . S
C5373 C5375 1.389 . S
C5374 H5347 0.950 . S
C5374 C5360 1.377 . S
C5374 C5373 1.373 . S
C5375 C5359 1.377 . S
C5375 C5373 1.389 . S
C5375 C5376 1.524 . S
C5376 C5375 1.524 . S
C5376 C5377 1.397 . S
C5376 C5381 1.363 . S
C5377 H5348 0.950 . S
C5377 C5376 1.397 . S
C5377 C5378 1.334 . S
C5378 H5349 0.950 . S
C5378 C5377 1.334 . S
C5378 C5379 1.287 . S
C5379 C5378 1.287 . S
C5379 C5380 1.524 . S
C5379 H5382 0.999 . S
C5380 H5350 0.950 . S
C5380 C5379 1.524 . S
C5380 C5381 1.415 . S
C5381 H5351 0.950 . S
C5381 C5376 1.363 . S
C5381 C5380 1.415 . S
H5382 C5379 0.999 . S
H5383 C5364 0.913 . S
H5384 C5402 0.951 . S
H5385 C5404 0.951 . S
H5386 C5406 0.950 . S
H5387 C5407 0.950 . S
H5388 C5409 0.950 . S
H5389 C5412 0.950 . S
H5390 C5413 0.950 . S
H5391 C5415 0.950 . S
H5392 C5416 0.950 . S
H5393 C5417 0.951 . S
H5394 C5419 0.951 . S
H5395 C5421 0.950 . S
H5396 C5422 0.950 . S
H5397 C5424 0.950 . S
H5398 C5427 0.950 . S
H5399 C5428 0.950 . S
H5400 C5430 0.950 . S
H5401 C5431 0.950 . S
C5402 H5384 0.951 . S
C5402 C5403 1.366 . S
C5402 C5404 1.388 . S
C5403 C5402 1.366 . S
C5403 C5407 1.385 . S
C5404 H5385 0.951 . S
C5404 C5402 1.388 . S
C5404 C5405 1.366 . S
C5405 C5404 1.366 . S
C5405 C5406 1.414 . S
C5405 C5408 1.499 . S
C5406 H5386 0.950 . S
C5406 C5405 1.414 . S
C5406 C5407 1.374 . S
C5407 H5387 0.950 . S
C5407 C5403 1.385 . S
C5407 C5406 1.374 . S
C5408 C5405 1.499 . S
C5408 C5409 1.373 . S
C5408 C5410 1.389 . S
C5409 H5388 0.950 . S
C5409 C5408 1.373 . S
C5409 C5425 1.377 . S
C5410 C5408 1.389 . S
C5410 C5411 1.524 . S
C5410 C5424 1.377 . S
C5411 C5410 1.524 . S
C5411 C5412 1.397 . S
C5411 C5416 1.363 . S
C5412 H5389 0.950 . S
C5412 C5411 1.397 . S
C5412 C5413 1.334 . S
C5413 H5390 0.950 . S
C5413 C5412 1.334 . S
C5413 C5414 1.287 . S
C5414 C5413 1.287 . S
C5414 C5415 1.524 . S
C5414 H5433 0.913 . S
C5415 H5391 0.950 . S
C5415 C5414 1.524 . S
C5415 C5416 1.415 . S
C5416 H5392 0.950 . S
C5416 C5411 1.363 . S
C5416 C5415 1.415 . S
C5417 H5393 0.951 . S
C5417 C5418 1.366 . S
C5417 C5419 1.388 . S
C5418 C5417 1.366 . S
C5418 C5422 1.385 . S
C5419 H5394 0.951 . S
C5419 C5417 1.388 . S
C5419 C5420 1.366 . S
C5420 C5419 1.366 . S
C5420 C5421 1.414 . S
C5420 C5423 1.499 . S
C5421 H5395 0.950 . S
C5421 C5420 1.414 . S
C5421 C5422 1.374 . S
C5422 H5396 0.950 . S
C5422 C5418 1.385 . S
C5422 C5421 1.374 . S
C5423 C5420 1.499 . S
C5423 C5424 1.373 . S
C5423 C5425 1.389 . S
C5424 H5397 0.950 . S
C5424 C5410 1.377 . S
C5424 C5423 1.373 . S
C5425 C5409 1.377 . S
C5425 C5423 1.389 . S
C5425 C5426 1.524 . S
C5426 C5425 1.524 . S
C5426 C5427 1.397 . S
C5426 C5431 1.363 . S
C5427 H5398 0.950 . S
C5427 C5426 1.397 . S
C5427 C5428 1.334 . S
C5428 H5399 0.950 . S
C5428 C5427 1.334 . S
C5428 C5429 1.287 . S
C5429 C5428 1.287 . S
C5429 C5430 1.524 . S
C5429 H5432 0.999 . S
C5430 H5400 0.950 . S
C5430 C5429 1.524 . S
C5430 C5431 1.415 . S
C5431 H5401 0.950 . S
C5431 C5426 1.363 . S
C5431 C5430 1.415 . S
H5432 C5429 0.999 . S
H5433 C5414 0.913 . S
H5434 C5452 0.951 . S
H5435 C5454 0.951 . S
H5436 C5456 0.950 . S
H5437 C5457 0.950 . S
H5438 C5459 0.947 1_556 S
H5439 C5462 0.950 . S
H5440 C5463 0.950 . S
H5441 C5465 0.950 . S
H5442 C5466 0.950 1_554 S
H5443 C5467 0.951 . S
H5444 C5469 0.951 . S
H5445 C5471 0.950 . S
H5446 C5472 0.950 . S
H5447 C5474 0.950 . S
H5448 C5477 0.950 . S
H5449 C5478 0.950 . S
H5450 C5480 0.950 . S
H5451 C5481 0.950 . S
C5452 H5434 0.951 . S
C5452 C5453 1.366 . S
C5452 C5454 1.388 . S
C5453 C5452 1.366 . S
C5453 C5457 1.385 . S
C5454 H5435 0.951 . S
C5454 C5452 1.388 . S
C5454 C5455 1.366 . S
C5455 C5454 1.366 . S
C5455 C5456 1.414 . S
C5455 C5458 1.499 . S
C5456 H5436 0.950 . S
C5456 C5455 1.414 . S
C5456 C5457 1.374 . S
C5457 H5437 0.950 . S
C5457 C5453 1.385 . S
C5457 C5456 1.374 . S
C5458 C5455 1.499 . S
C5458 C5459 1.362 1_556 S
C5458 C5460 1.389 . S
C5459 H5438 0.947 1_554 S
C5459 C5458 1.362 1_554 S
C5459 C5475 1.391 . S
C5460 C5458 1.389 . S
C5460 C5461 1.524 . S
C5460 C5474 1.377 1_556 S
C5461 C5460 1.524 . S
C5461 C5462 1.397 . S
C5461 C5466 1.363 . S
C5462 H5439 0.950 . S
C5462 C5461 1.397 . S
C5462 C5463 1.334 . S
C5463 H5440 0.950 . S
C5463 C5462 1.334 . S
C5463 C5464 1.287 . S
C5464 C5463 1.287 . S
C5464 C5465 1.524 . S
C5464 H5483 0.913 . S
C5465 H5441 0.950 . S
C5465 C5464 1.524 . S
C5465 C5466 1.415 . S
C5466 H5442 0.950 1_556 S
C5466 C5461 1.363 . S
C5466 C5465 1.415 . S
C5467 H5443 0.951 . S
C5467 C5468 1.366 . S
C5467 C5469 1.388 . S
C5468 C5467 1.366 . S
C5468 C5472 1.385 . S
C5469 H5444 0.951 . S
C5469 C5467 1.388 . S
C5469 C5470 1.366 . S
C5470 C5469 1.366 . S
C5470 C5471 1.414 . S
C5470 C5473 1.499 . S
C5471 H5445 0.950 . S
C5471 C5470 1.414 . S
C5471 C5472 1.374 . S
C5472 H5446 0.950 . S
C5472 C5468 1.385 . S
C5472 C5471 1.374 . S
C5473 C5470 1.499 . S
C5473 C5474 1.373 . S
C5473 C5475 1.389 . S
C5474 H5447 0.950 . S
C5474 C5460 1.377 1_554 S
C5474 C5473 1.373 . S
C5475 C5459 1.391 . S
C5475 C5473 1.389 . S
C5475 C5476 1.524 . S
C5476 C5475 1.524 . S
C5476 C5477 1.397 . S
C5476 C5481 1.363 . S
C5477 H5448 0.950 . S
C5477 C5476 1.397 . S
C5477 C5478 1.334 . S
C5478 H5449 0.950 . S
C5478 C5477 1.334 . S
C5478 C5479 1.287 . S
C5479 C5478 1.287 . S
C5479 C5480 1.524 . S
C5479 H5482 0.999 . S
C5480 H5450 0.950 . S
C5480 C5479 1.524 . S
C5480 C5481 1.415 . S
C5481 H5451 0.950 . S
C5481 C5476 1.363 . S
C5481 C5480 1.415 . S
H5482 C5479 0.999 . S
H5483 C5464 0.913 . S
H5484 C5502 0.951 . S
H5485 C5504 0.951 . S
H5486 C5506 0.950 . S
H5487 C5507 0.950 . S
H5488 C5509 0.950 . S
H5489 C5512 0.950 . S
H5490 C5513 0.950 . S
H5491 C5515 0.950 . S
H5492 C5516 0.950 . S
H5493 C5517 0.951 . S
H5494 C5519 0.951 . S
H5495 C5521 0.950 . S
H5496 C5522 0.950 . S
H5497 C5524 0.950 . S
H5498 C5527 0.950 . S
H5499 C5528 0.950 . S
H5500 C5530 0.950 . S
H5501 C5531 0.950 . S
C5502 H5484 0.951 . S
C5502 C5503 1.366 . S
C5502 C5504 1.388 . S
C5503 C5502 1.366 . S
C5503 C5507 1.385 . S
C5504 H5485 0.951 . S
C5504 C5502 1.388 . S
C5504 C5505 1.366 . S
C5505 C5504 1.366 . S
C5505 C5506 1.414 . S
C5505 C5508 1.499 . S
C5506 H5486 0.950 . S
C5506 C5505 1.414 . S
C5506 C5507 1.374 . S
C5507 H5487 0.950 . S
C5507 C5503 1.385 . S
C5507 C5506 1.374 . S
C5508 C5505 1.499 . S
C5508 C5509 1.373 . S
C5508 C5510 1.389 . S
C5509 H5488 0.950 . S
C5509 C5508 1.373 . S
C5509 C5525 1.377 . S
C5510 C5508 1.389 . S
C5510 C5511 1.524 . S
C5510 C5524 1.377 . S
C5511 C5510 1.524 . S
C5511 C5512 1.397 . S
C5511 C5516 1.363 . S
C5512 H5489 0.950 . S
C5512 C5511 1.397 . S
C5512 C5513 1.334 . S
C5513 H5490 0.950 . S
C5513 C5512 1.334 . S
C5513 C5514 1.287 . S
C5514 C5513 1.287 . S
C5514 C5515 1.524 . S
C5514 H5533 0.913 . S
C5515 H5491 0.950 . S
C5515 C5514 1.524 . S
C5515 C5516 1.415 . S
C5516 H5492 0.950 . S
C5516 C5511 1.363 . S
C5516 C5515 1.415 . S
C5517 H5493 0.951 . S
C5517 C5518 1.366 . S
C5517 C5519 1.388 . S
C5518 C5517 1.366 . S
C5518 C5522 1.385 . S
C5519 H5494 0.951 . S
C5519 C5517 1.388 . S
C5519 C5520 1.366 . S
C5520 C5519 1.366 . S
C5520 C5521 1.414 . S
C5520 C5523 1.499 . S
C5521 H5495 0.950 . S
C5521 C5520 1.414 . S
C5521 C5522 1.374 . S
C5522 H5496 0.950 . S
C5522 C5518 1.385 . S
C5522 C5521 1.374 . S
C5523 C5520 1.499 . S
C5523 C5524 1.373 . S
C5523 C5525 1.389 . S
C5524 H5497 0.950 . S
C5524 C5510 1.377 . S
C5524 C5523 1.373 . S
C5525 C5509 1.377 . S
C5525 C5523 1.389 . S
C5525 C5526 1.524 . S
C5526 C5525 1.524 . S
C5526 C5527 1.397 . S
C5526 C5531 1.363 . S
C5527 H5498 0.950 . S
C5527 C5526 1.397 . S
C5527 C5528 1.334 . S
C5528 H5499 0.950 . S
C5528 C5527 1.334 . S
C5528 C5529 1.287 . S
C5529 C5528 1.287 . S
C5529 C5530 1.524 . S
C5529 H5532 0.999 . S
C5530 H5500 0.950 . S
C5530 C5529 1.524 . S
C5530 C5531 1.415 . S
C5531 H5501 0.950 . S
C5531 C5526 1.363 . S
C5531 C5530 1.415 . S
H5532 C5529 0.999 . S
H5533 C5514 0.913 . S
H5534 C5552 0.951 . S
H5535 C5554 0.951 . S
H5536 C5556 0.950 . S
H5537 C5557 0.950 . S
H5538 C5559 0.950 . S
H5539 C5562 0.950 . S
H5540 C5563 0.950 . S
H5541 C5565 0.950 . S
H5542 C5566 0.950 . S
H5543 C5567 0.951 . S
H5544 C5569 0.951 . S
H5545 C5571 0.950 . S
H5546 C5572 0.950 . S
H5547 C5574 0.950 . S
H5548 C5577 0.950 . S
H5549 C5578 0.950 . S
H5550 C5580 0.950 . S
H5551 C5581 0.950 . S
C5552 H5534 0.951 . S
C5552 C5553 1.366 . S
C5552 C5554 1.388 . S
C5553 C5552 1.366 . S
C5553 C5557 1.385 . S
C5554 H5535 0.951 . S
C5554 C5552 1.388 . S
C5554 C5555 1.366 . S
C5555 C5554 1.366 . S
C5555 C5556 1.414 . S
C5555 C5558 1.499 . S
C5556 H5536 0.950 . S
C5556 C5555 1.414 . S
C5556 C5557 1.374 . S
C5557 H5537 0.950 . S
C5557 C5553 1.385 . S
C5557 C5556 1.374 . S
C5558 C5555 1.499 . S
C5558 C5559 1.373 . S
C5558 C5560 1.389 . S
C5559 H5538 0.950 . S
C5559 C5558 1.373 . S
C5559 C5575 1.377 . S
C5560 C5558 1.389 . S
C5560 C5561 1.524 . S
C5560 C5574 1.377 . S
C5561 C5560 1.524 . S
C5561 C5562 1.397 . S
C5561 C5566 1.363 . S
C5562 H5539 0.950 . S
C5562 C5561 1.397 . S
C5562 C5563 1.334 . S
C5563 H5540 0.950 . S
C5563 C5562 1.334 . S
C5563 C5564 1.287 . S
C5564 C5563 1.287 . S
C5564 C5565 1.524 . S
C5564 H5583 0.913 . S
C5565 H5541 0.950 . S
C5565 C5564 1.524 . S
C5565 C5566 1.415 . S
C5566 H5542 0.950 . S
C5566 C5561 1.363 . S
C5566 C5565 1.415 . S
C5567 H5543 0.951 . S
C5567 C5568 1.366 . S
C5567 C5569 1.388 . S
C5568 C5567 1.366 . S
C5568 C5572 1.385 . S
C5569 H5544 0.951 . S
C5569 C5567 1.388 . S
C5569 C5570 1.366 . S
C5570 C5569 1.366 . S
C5570 C5571 1.414 . S
C5570 C5573 1.499 . S
C5571 H5545 0.950 . S
C5571 C5570 1.414 . S
C5571 C5572 1.374 . S
C5572 H5546 0.950 . S
C5572 C5568 1.385 . S
C5572 C5571 1.374 . S
C5573 C5570 1.499 . S
C5573 C5574 1.373 . S
C5573 C5575 1.389 . S
C5574 H5547 0.950 . S
C5574 C5560 1.377 . S
C5574 C5573 1.373 . S
C5575 C5559 1.377 . S
C5575 C5573 1.389 . S
C5575 C5576 1.524 . S
C5576 C5575 1.524 . S
C5576 C5577 1.397 . S
C5576 C5581 1.363 . S
C5577 H5548 0.950 . S
C5577 C5576 1.397 . S
C5577 C5578 1.334 . S
C5578 H5549 0.950 . S
C5578 C5577 1.334 . S
C5578 C5579 1.287 . S
C5579 C5578 1.287 . S
C5579 C5580 1.524 . S
C5579 H5582 0.999 . S
C5580 H5550 0.950 . S
C5580 C5579 1.524 . S
C5580 C5581 1.415 . S
C5581 H5551 0.950 . S
C5581 C5576 1.363 . S
C5581 C5580 1.415 . S
H5582 C5579 0.999 . S
H5583 C5564 0.913 . S
H5584 C5602 0.951 . S
H5585 C5604 0.951 . S
H5586 C5606 0.950 . S
H5587 C5607 0.950 . S
H5588 C5609 0.950 . S
H5589 C5612 0.950 . S
H5590 C5613 0.950 . S
H5591 C5615 0.950 . S
H5592 C5616 0.950 . S
H5593 C5617 0.951 . S
H5594 C5619 0.951 . S
H5595 C5621 0.950 . S
H5596 C5622 0.950 . S
H5597 C5624 0.950 . S
H5598 C5627 0.950 . S
H5599 C5628 0.950 . S
H5600 C5630 0.950 . S
H5601 C5631 0.950 . S
C5602 H5584 0.951 . S
C5602 C5603 1.366 . S
C5602 C5604 1.388 . S
C5603 C5602 1.366 . S
C5603 C5607 1.385 . S
C5604 H5585 0.951 . S
C5604 C5602 1.388 . S
C5604 C5605 1.366 . S
C5605 C5604 1.366 . S
C5605 C5606 1.414 . S
C5605 C5608 1.499 . S
C5606 H5586 0.950 . S
C5606 C5605 1.414 . S
C5606 C5607 1.374 . S
C5607 H5587 0.950 . S
C5607 C5603 1.385 . S
C5607 C5606 1.374 . S
C5608 C5605 1.499 . S
C5608 C5609 1.373 . S
C5608 C5610 1.389 . S
C5609 H5588 0.950 . S
C5609 C5608 1.373 . S
C5609 C5625 1.377 . S
C5610 C5608 1.389 . S
C5610 C5611 1.524 . S
C5610 C5624 1.377 . S
C5611 C5610 1.524 . S
C5611 C5612 1.397 . S
C5611 C5616 1.363 . S
C5612 H5589 0.950 . S
C5612 C5611 1.397 . S
C5612 C5613 1.334 . S
C5613 H5590 0.950 . S
C5613 C5612 1.334 . S
C5613 C5614 1.287 . S
C5614 C5613 1.287 . S
C5614 C5615 1.524 . S
C5614 H5633 0.913 . S
C5615 H5591 0.950 . S
C5615 C5614 1.524 . S
C5615 C5616 1.415 . S
C5616 H5592 0.950 . S
C5616 C5611 1.363 . S
C5616 C5615 1.415 . S
C5617 H5593 0.951 . S
C5617 C5618 1.366 . S
C5617 C5619 1.388 . S
C5618 C5617 1.366 . S
C5618 C5622 1.385 . S
C5619 H5594 0.951 . S
C5619 C5617 1.388 . S
C5619 C5620 1.366 . S
C5620 C5619 1.366 . S
C5620 C5621 1.414 . S
C5620 C5623 1.499 . S
C5621 H5595 0.950 . S
C5621 C5620 1.414 . S
C5621 C5622 1.374 . S
C5622 H5596 0.950 . S
C5622 C5618 1.385 . S
C5622 C5621 1.374 . S
C5623 C5620 1.499 . S
C5623 C5624 1.373 . S
C5623 C5625 1.389 . S
C5624 H5597 0.950 . S
C5624 C5610 1.377 . S
C5624 C5623 1.373 . S
C5625 C5609 1.377 . S
C5625 C5623 1.389 . S
C5625 C5626 1.524 . S
C5626 C5625 1.524 . S
C5626 C5627 1.397 . S
C5626 C5631 1.363 . S
C5627 H5598 0.950 . S
C5627 C5626 1.397 . S
C5627 C5628 1.334 . S
C5628 H5599 0.950 . S
C5628 C5627 1.334 . S
C5628 C5629 1.287 . S
C5629 C5628 1.287 . S
C5629 C5630 1.524 . S
C5629 H5632 0.999 . S
C5630 H5600 0.950 . S
C5630 C5629 1.524 . S
C5630 C5631 1.415 . S
C5631 H5601 0.950 . S
C5631 C5626 1.363 . S
C5631 C5630 1.415 . S
H5632 C5629 0.999 . S
H5633 C5614 0.913 . S
H5634 C5652 0.951 . S
H5635 C5654 0.951 . S
H5636 C5656 0.950 . S
H5637 C5657 0.950 . S
H5638 C5659 0.950 . S
H5639 C5662 0.950 . S
H5640 C5663 0.950 . S
H5641 C5665 0.950 . S
H5642 C5666 0.950 . S
H5643 C5667 0.951 . S
H5644 C5669 0.951 . S
H5645 C5671 0.950 . S
H5646 C5672 0.950 . S
H5647 C5674 0.950 . S
H5648 C5677 0.950 . S
H5649 C5678 0.950 . S
H5650 C5680 0.950 . S
H5651 C5681 0.950 . S
C5652 H5634 0.951 . S
C5652 C5653 1.366 . S
C5652 C5654 1.388 . S
C5653 C5652 1.366 . S
C5653 C5657 1.385 . S
C5654 H5635 0.951 . S
C5654 C5652 1.388 . S
C5654 C5655 1.366 . S
C5655 C5654 1.366 . S
C5655 C5656 1.414 . S
C5655 C5658 1.499 . S
C5656 H5636 0.950 . S
C5656 C5655 1.414 . S
C5656 C5657 1.374 . S
C5657 H5637 0.950 . S
C5657 C5653 1.385 . S
C5657 C5656 1.374 . S
C5658 C5655 1.499 . S
C5658 C5659 1.373 1_565 S
C5658 C5660 1.390 . S
C5659 H5638 0.950 . S
C5659 C5658 1.373 1_545 S
C5659 C5675 1.377 . S
C5660 C5658 1.390 . S
C5660 C5661 1.538 . S
C5660 C5674 1.361 1_565 S
C5661 C5660 1.538 . S
C5661 C5662 1.397 . S
C5661 C5666 1.363 . S
C5662 H5639 0.950 . S
C5662 C5661 1.397 . S
C5662 C5663 1.334 . S
C5663 H5640 0.950 . S
C5663 C5662 1.334 . S
C5663 C5664 1.287 . S
C5664 C5663 1.287 . S
C5664 C5665 1.524 . S
C5664 H5683 0.913 . S
C5665 H5641 0.950 . S
C5665 C5664 1.524 . S
C5665 C5666 1.415 . S
C5666 H5642 0.950 . S
C5666 C5661 1.363 . S
C5666 C5665 1.415 . S
C5667 H5643 0.951 . S
C5667 C5668 1.366 . S
C5667 C5669 1.388 . S
C5668 C5667 1.366 . S
C5668 C5672 1.385 . S
C5669 H5644 0.951 . S
C5669 C5667 1.388 . S
C5669 C5670 1.366 . S
C5670 C5669 1.366 . S
C5670 C5671 1.414 . S
C5670 C5673 1.499 . S
C5671 H5645 0.950 . S
C5671 C5670 1.414 . S
C5671 C5672 1.374 . S
C5672 H5646 0.950 . S
C5672 C5668 1.385 . S
C5672 C5671 1.374 . S
C5673 C5670 1.499 . S
C5673 C5674 1.373 . S
C5673 C5675 1.389 . S
C5674 H5647 0.950 . S
C5674 C5660 1.361 1_545 S
C5674 C5673 1.373 . S
C5675 C5659 1.377 . S
C5675 C5673 1.389 . S
C5675 C5676 1.524 . S
C5676 C5675 1.524 . S
C5676 C5677 1.397 . S
C5676 C5681 1.363 . S
C5677 H5648 0.950 . S
C5677 C5676 1.397 . S
C5677 C5678 1.334 . S
C5678 H5649 0.950 . S
C5678 C5677 1.334 . S
C5678 C5679 1.287 . S
C5679 C5678 1.287 . S
C5679 C5680 1.524 . S
C5679 H5682 0.999 . S
C5680 H5650 0.950 . S
C5680 C5679 1.524 . S
C5680 C5681 1.415 . S
C5681 H5651 0.950 . S
C5681 C5676 1.363 . S
C5681 C5680 1.415 . S
H5682 C5679 0.999 . S
H5683 C5664 0.913 . S
H5684 C5702 0.951 . S
H5685 C5704 0.951 . S
H5686 C5706 0.950 . S
H5687 C5707 0.950 . S
H5688 C5709 0.950 . S
H5689 C5712 0.950 . S
H5690 C5713 0.950 . S
H5691 C5715 0.950 . S
H5692 C5716 0.950 . S
H5693 C5717 0.951 . S
H5694 C5719 0.951 . S
H5695 C5721 0.950 . S
H5696 C5722 0.950 . S
H5697 C5724 0.950 . S
H5698 C5727 0.950 . S
H5699 C5728 0.950 . S
H5700 C5730 0.950 . S
H5701 C5731 0.950 . S
C5702 H5684 0.951 . S
C5702 C5703 1.366 . S
C5702 C5704 1.388 . S
C5703 C5702 1.366 . S
C5703 C5707 1.385 . S
C5704 H5685 0.951 . S
C5704 C5702 1.388 . S
C5704 C5705 1.366 . S
C5705 C5704 1.366 . S
C5705 C5706 1.414 . S
C5705 C5708 1.499 . S
C5706 H5686 0.950 . S
C5706 C5705 1.414 . S
C5706 C5707 1.374 . S
C5707 H5687 0.950 . S
C5707 C5703 1.385 . S
C5707 C5706 1.374 . S
C5708 C5705 1.499 . S
C5708 C5709 1.373 . S
C5708 C5710 1.389 . S
C5709 H5688 0.950 . S
C5709 C5708 1.373 . S
C5709 C5725 1.377 . S
C5710 C5708 1.389 . S
C5710 C5711 1.524 . S
C5710 C5724 1.377 . S
C5711 C5710 1.524 . S
C5711 C5712 1.397 . S
C5711 C5716 1.363 . S
C5712 H5689 0.950 . S
C5712 C5711 1.397 . S
C5712 C5713 1.334 . S
C5713 H5690 0.950 . S
C5713 C5712 1.334 . S
C5713 C5714 1.287 . S
C5714 C5713 1.287 . S
C5714 C5715 1.524 . S
C5714 H5733 0.913 . S
C5715 H5691 0.950 . S
C5715 C5714 1.524 . S
C5715 C5716 1.415 . S
C5716 H5692 0.950 . S
C5716 C5711 1.363 . S
C5716 C5715 1.415 . S
C5717 H5693 0.951 . S
C5717 C5718 1.366 . S
C5717 C5719 1.388 . S
C5718 C5717 1.366 . S
C5718 C5722 1.385 . S
C5719 H5694 0.951 . S
C5719 C5717 1.388 . S
C5719 C5720 1.366 . S
C5720 C5719 1.366 . S
C5720 C5721 1.414 . S
C5720 C5723 1.499 . S
C5721 H5695 0.950 . S
C5721 C5720 1.414 . S
C5721 C5722 1.374 . S
C5722 H5696 0.950 . S
C5722 C5718 1.385 . S
C5722 C5721 1.374 . S
C5723 C5720 1.499 . S
C5723 C5724 1.373 . S
C5723 C5725 1.389 . S
C5724 H5697 0.950 . S
C5724 C5710 1.377 . S
C5724 C5723 1.373 . S
C5725 C5709 1.377 . S
C5725 C5723 1.389 . S
C5725 C5726 1.524 . S
C5726 C5725 1.524 . S
C5726 C5727 1.397 . S
C5726 C5731 1.363 . S
C5727 H5698 0.950 . S
C5727 C5726 1.397 . S
C5727 C5728 1.334 . S
C5728 H5699 0.950 . S
C5728 C5727 1.334 . S
C5728 C5729 1.287 . S
C5729 C5728 1.287 . S
C5729 C5730 1.524 . S
C5729 H5732 0.999 . S
C5730 H5700 0.950 . S
C5730 C5729 1.524 . S
C5730 C5731 1.415 . S
C5731 H5701 0.950 . S
C5731 C5726 1.363 . S
C5731 C5730 1.415 . S
H5732 C5729 0.999 . S
H5733 C5714 0.913 . S
H5734 C5752 0.951 . S
H5735 C5754 0.951 1_565 S
H5736 C5756 0.950 . S
H5737 C5757 0.950 . S
H5738 C5759 0.950 1_545 S
H5739 C5762 0.950 1_545 S
H5740 C5763 0.950 1_545 S
H5741 C5765 0.950 . S
H5742 C5766 0.950 . S
H5743 C5767 0.951 . S
H5744 C5769 0.951 . S
H5745 C5771 0.950 . S
H5746 C5772 0.950 . S
H5747 C5774 0.950 . S
H5748 C5777 0.950 . S
H5749 C5778 0.950 . S
H5750 C5780 0.950 1_545 S
H5751 C5781 0.950 1_545 S
C5752 H5734 0.951 . S
C5752 C5753 1.366 . S
C5752 C5754 1.388 . S
C5753 C5752 1.366 . S
C5753 C5757 1.385 . S
C5754 H5735 0.951 1_545 S
C5754 C5752 1.388 . S
C5754 C5755 1.366 . S
C5755 C5754 1.366 . S
C5755 C5756 1.414 . S
C5755 C5758 1.499 1_545 S
C5756 H5736 0.950 . S
C5756 C5755 1.414 . S
C5756 C5757 1.374 . S
C5757 H5737 0.950 . S
C5757 C5753 1.385 . S
C5757 C5756 1.374 . S
C5758 C5755 1.499 1_565 S
C5758 C5759 1.373 . S
C5758 C5760 1.389 . S
C5759 H5738 0.950 1_565 S
C5759 C5758 1.373 . S
C5759 C5775 1.377 . S
C5760 C5758 1.389 . S
C5760 C5761 1.524 . S
C5760 C5774 1.377 . S
C5761 C5760 1.524 . S
C5761 C5762 1.397 . S
C5761 C5766 1.363 . S
C5762 H5739 0.950 1_565 S
C5762 C5761 1.397 . S
C5762 C5763 1.334 . S
C5763 H5740 0.950 1_565 S
C5763 C5762 1.334 . S
C5763 C5764 1.287 . S
C5764 C5763 1.287 . S
C5764 C5765 1.524 . S
C5764 H5783 0.913 . S
C5765 H5741 0.950 . S
C5765 C5764 1.524 . S
C5765 C5766 1.415 . S
C5766 H5742 0.950 . S
C5766 C5761 1.363 . S
C5766 C5765 1.415 . S
C5767 H5743 0.951 . S
C5767 C5768 1.366 . S
C5767 C5769 1.388 . S
C5768 C5767 1.366 . S
C5768 C5772 1.385 . S
C5769 H5744 0.951 . S
C5769 C5767 1.388 . S
C5769 C5770 1.366 . S
C5770 C5769 1.366 . S
C5770 C5771 1.414 . S
C5770 C5773 1.499 . S
C5771 H5745 0.950 . S
C5771 C5770 1.414 . S
C5771 C5772 1.374 . S
C5772 H5746 0.950 . S
C5772 C5768 1.385 . S
C5772 C5771 1.374 . S
C5773 C5770 1.499 . S
C5773 C5774 1.373 . S
C5773 C5775 1.389 . S
C5774 H5747 0.950 . S
C5774 C5760 1.377 . S
C5774 C5773 1.373 . S
C5775 C5759 1.377 . S
C5775 C5773 1.389 . S
C5775 C5776 1.524 . S
C5776 C5775 1.524 . S
C5776 C5777 1.397 . S
C5776 C5781 1.363 . S
C5777 H5748 0.950 . S
C5777 C5776 1.397 . S
C5777 C5778 1.334 . S
C5778 H5749 0.950 . S
C5778 C5777 1.334 . S
C5778 C5779 1.287 . S
C5779 C5778 1.287 . S
C5779 C5780 1.524 . S
C5779 H5782 0.999 . S
C5780 H5750 0.950 1_565 S
C5780 C5779 1.524 . S
C5780 C5781 1.415 . S
C5781 H5751 0.950 1_565 S
C5781 C5776 1.363 . S
C5781 C5780 1.415 . S
H5782 C5779 0.999 . S
H5783 C5764 0.913 . S
H5784 C5802 0.951 . S
H5785 C5804 0.951 . S
H5786 C5806 0.950 . S
H5787 C5807 0.950 . S
H5788 C5809 0.950 . S
H5789 C5812 0.950 . S
H5790 C5813 0.950 . S
H5791 C5815 0.950 . S
H5792 C5816 0.936 1_545 S
H5793 C5817 0.951 . S
H5794 C5819 0.951 1_565 S
H5795 C5821 0.950 . S
H5796 C5822 0.950 . S
H5797 C5824 0.950 1_544 S
H5798 C5827 0.950 . S
H5799 C5828 0.950 . S
H5800 C5830 0.950 . S
H5801 C5831 0.950 . S
C5802 H5784 0.951 . S
C5802 C5803 1.366 . S
C5802 C5804 1.388 . S
C5803 C5802 1.366 . S
C5803 C5807 1.385 . S
C5804 H5785 0.951 . S
C5804 C5802 1.388 . S
C5804 C5805 1.366 . S
C5805 C5804 1.366 . S
C5805 C5806 1.414 . S
C5805 C5808 1.499 . S
C5806 H5786 0.950 . S
C5806 C5805 1.414 . S
C5806 C5807 1.374 . S
C5807 H5787 0.950 . S
C5807 C5803 1.385 . S
C5807 C5806 1.374 . S
C5808 C5805 1.499 . S
C5808 C5809 1.373 1_554 S
C5808 C5810 1.389 . S
C5809 H5788 0.950 . S
C5809 C5808 1.373 1_556 S
C5809 C5825 1.377 . S
C5810 C5808 1.389 . S
C5810 C5811 1.524 . S
C5810 C5824 1.377 1_554 S
C5811 C5810 1.524 . S
C5811 C5812 1.397 . S
C5811 C5816 1.387 . S
C5812 H5789 0.950 . S
C5812 C5811 1.397 . S
C5812 C5813 1.334 . S
C5813 H5790 0.950 . S
C5813 C5812 1.334 . S
C5813 C5814 1.287 . S
C5814 C5813 1.287 . S
C5814 C5815 1.524 1_565 S
C5814 H5833 0.913 . S
C5815 H5791 0.950 . S
C5815 C5814 1.524 1_545 S
C5815 C5816 1.406 1_545 S
C5816 H5792 0.936 1_565 S
C5816 C5811 1.387 . S
C5816 C5815 1.406 1_565 S
C5817 H5793 0.951 . S
C5817 C5818 1.366 . S
C5817 C5819 1.388 . S
C5818 C5817 1.366 . S
C5818 C5822 1.385 . S
C5819 H5794 0.951 1_545 S
C5819 C5817 1.388 . S
C5819 C5820 1.366 . S
C5820 C5819 1.366 . S
C5820 C5821 1.414 . S
C5820 C5823 1.499 1_545 S
C5821 H5795 0.950 . S
C5821 C5820 1.414 . S
C5821 C5822 1.374 . S
C5822 H5796 0.950 . S
C5822 C5818 1.385 . S
C5822 C5821 1.374 . S
C5823 C5820 1.499 1_565 S
C5823 C5824 1.373 . S
C5823 C5825 1.389 . S
C5824 H5797 0.950 1_566 S
C5824 C5810 1.377 1_556 S
C5824 C5823 1.373 . S
C5825 C5809 1.377 . S
C5825 C5823 1.389 . S
C5825 C5826 1.524 . S
C5826 C5825 1.524 . S
C5826 C5827 1.397 . S
C5826 C5831 1.363 . S
C5827 H5798 0.950 . S
C5827 C5826 1.397 . S
C5827 C5828 1.334 . S
C5828 H5799 0.950 . S
C5828 C5827 1.334 . S
C5828 C5829 1.287 . S
C5829 C5828 1.287 . S
C5829 C5830 1.524 . S
C5829 H5832 0.999 . S
C5830 H5800 0.950 . S
C5830 C5829 1.524 . S
C5830 C5831 1.415 . S
C5831 H5801 0.950 . S
C5831 C5826 1.363 . S
C5831 C5830 1.415 . S
H5832 C5829 0.999 . S
H5833 C5814 0.913 . S
H5834 C5852 0.951 . S
H5835 C5854 0.951 . S
H5836 C5856 0.950 . S
H5837 C5857 0.950 . S
H5838 C5859 0.950 . S
H5839 C5862 0.950 . S
H5840 C5863 0.950 . S
H5841 C5865 0.950 . S
H5842 C5866 0.950 . S
H5843 C5867 0.951 . S
H5844 C5869 0.951 . S
H5845 C5871 0.950 . S
H5846 C5872 0.950 . S
H5847 C5874 0.950 . S
H5848 C5877 0.950 . S
H5849 C5878 0.950 . S
H5850 C5880 0.950 . S
H5851 C5881 0.950 . S
C5852 H5834 0.951 . S
C5852 C5853 1.366 . S
C5852 C5854 1.388 . S
C5853 C5852 1.366 . S
C5853 C5857 1.385 . S
C5854 H5835 0.951 . S
C5854 C5852 1.388 . S
C5854 C5855 1.366 . S
C5855 C5854 1.366 . S
C5855 C5856 1.414 . S
C5855 C5858 1.499 . S
C5856 H5836 0.950 . S
C5856 C5855 1.414 . S
C5856 C5857 1.374 . S
C5857 H5837 0.950 . S
C5857 C5853 1.385 . S
C5857 C5856 1.374 . S
C5858 C5855 1.499 . S
C5858 C5859 1.373 . S
C5858 C5860 1.389 . S
C5859 H5838 0.950 . S
C5859 C5858 1.373 . S
C5859 C5875 1.377 . S
C5860 C5858 1.389 . S
C5860 C5861 1.524 . S
C5860 C5874 1.377 . S
C5861 C5860 1.524 . S
C5861 C5862 1.397 . S
C5861 C5866 1.363 . S
C5862 H5839 0.950 . S
C5862 C5861 1.397 . S
C5862 C5863 1.334 . S
C5863 H5840 0.950 . S
C5863 C5862 1.334 . S
C5863 C5864 1.287 . S
C5864 C5863 1.287 . S
C5864 C5865 1.524 . S
C5864 H5883 0.913 . S
C5865 H5841 0.950 . S
C5865 C5864 1.524 . S
C5865 C5866 1.415 . S
C5866 H5842 0.950 . S
C5866 C5861 1.363 . S
C5866 C5865 1.415 . S
C5867 H5843 0.951 . S
C5867 C5868 1.366 . S
C5867 C5869 1.388 . S
C5868 C5867 1.366 . S
C5868 C5872 1.385 . S
C5869 H5844 0.951 . S
C5869 C5867 1.388 . S
C5869 C5870 1.366 . S
C5870 C5869 1.366 . S
C5870 C5871 1.414 . S
C5870 C5873 1.499 . S
C5871 H5845 0.950 . S
C5871 C5870 1.414 . S
C5871 C5872 1.374 . S
C5872 H5846 0.950 . S
C5872 C5868 1.385 . S
C5872 C5871 1.374 . S
C5873 C5870 1.499 . S
C5873 C5874 1.373 . S
C5873 C5875 1.389 . S
C5874 H5847 0.950 . S
C5874 C5860 1.377 . S
C5874 C5873 1.373 . S
C5875 C5859 1.377 . S
C5875 C5873 1.389 . S
C5875 C5876 1.524 . S
C5876 C5875 1.524 . S
C5876 C5877 1.397 . S
C5876 C5881 1.363 . S
C5877 H5848 0.950 . S
C5877 C5876 1.397 . S
C5877 C5878 1.334 . S
C5878 H5849 0.950 . S
C5878 C5877 1.334 . S
C5878 C5879 1.287 . S
C5879 C5878 1.287 . S
C5879 C5880 1.524 . S
C5879 H5882 0.999 . S
C5880 H5850 0.950 . S
C5880 C5879 1.524 . S
C5880 C5881 1.415 . S
C5881 H5851 0.950 . S
C5881 C5876 1.363 . S
C5881 C5880 1.415 . S
H5882 C5879 0.999 . S
H5883 C5864 0.913 . S
H5884 C5902 0.951 . S
H5885 C5904 0.951 . S
H5886 C5906 0.950 . S
H5887 C5907 0.950 . S
H5888 C5909 0.950 . S
H5889 C5912 0.950 . S
H5890 C5913 0.950 . S
H5891 C5915 0.950 . S
H5892 C5916 0.950 . S
H5893 C5917 0.951 . S
H5894 C5919 0.951 . S
H5895 C5921 0.950 . S
H5896 C5922 0.950 . S
H5897 C5924 0.950 . S
H5898 C5927 0.950 . S
H5899 C5928 0.950 . S
H5900 C5930 0.950 . S
H5901 C5931 0.950 . S
C5902 H5884 0.951 . S
C5902 C5903 1.366 . S
C5902 C5904 1.388 . S
C5903 C5902 1.366 . S
C5903 C5907 1.385 . S
C5904 H5885 0.951 . S
C5904 C5902 1.388 . S
C5904 C5905 1.366 . S
C5905 C5904 1.366 . S
C5905 C5906 1.414 . S
C5905 C5908 1.499 . S
C5906 H5886 0.950 . S
C5906 C5905 1.414 . S
C5906 C5907 1.374 . S
C5907 H5887 0.950 . S
C5907 C5903 1.385 . S
C5907 C5906 1.374 . S
C5908 C5905 1.499 . S
C5908 C5909 1.373 . S
C5908 C5910 1.389 . S
C5909 H5888 0.950 . S
C5909 C5908 1.373 . S
C5909 C5925 1.377 . S
C5910 C5908 1.389 . S
C5910 C5911 1.524 1_554 S
C5910 C5924 1.377 1_554 S
C5911 C5910 1.524 1_556 S
C5911 C5912 1.397 . S
C5911 C5916 1.363 . S
C5912 H5889 0.950 . S
C5912 C5911 1.397 . S
C5912 C5913 1.334 . S
C5913 H5890 0.950 . S
C5913 C5912 1.334 . S
C5913 C5914 1.287 . S
C5914 C5913 1.287 . S
C5914 C5915 1.524 . S
C5914 H5933 0.913 . S
C5915 H5891 0.950 . S
C5915 C5914 1.524 . S
C5915 C5916 1.415 . S
C5916 H5892 0.950 . S
C5916 C5911 1.363 . S
C5916 C5915 1.415 . S
C5917 H5893 0.951 . S
C5917 C5918 1.366 . S
C5917 C5919 1.388 . S
C5918 C5917 1.366 . S
C5918 C5922 1.385 . S
C5919 H5894 0.951 . S
C5919 C5917 1.388 . S
C5919 C5920 1.366 . S
C5920 C5919 1.366 . S
C5920 C5921 1.414 . S
C5920 C5923 1.499 . S
C5921 H5895 0.950 . S
C5921 C5920 1.414 . S
C5921 C5922 1.374 . S
C5922 H5896 0.950 . S
C5922 C5918 1.385 . S
C5922 C5921 1.374 . S
C5923 C5920 1.499 . S
C5923 C5924 1.373 . S
C5923 C5925 1.389 1_556 S
C5924 H5897 0.950 . S
C5924 C5910 1.377 1_556 S
C5924 C5923 1.373 . S
C5925 C5909 1.377 . S
C5925 C5923 1.389 1_554 S
C5925 C5926 1.524 . S
C5926 C5925 1.524 . S
C5926 C5927 1.397 . S
C5926 C5931 1.363 . S
C5927 H5898 0.950 . S
C5927 C5926 1.397 . S
C5927 C5928 1.334 . S
C5928 H5899 0.950 . S
C5928 C5927 1.334 . S
C5928 C5929 1.287 . S
C5929 C5928 1.287 . S
C5929 C5930 1.524 . S
C5929 H5932 0.999 . S
C5930 H5900 0.950 . S
C5930 C5929 1.524 . S
C5930 C5931 1.415 . S
C5931 H5901 0.950 . S
C5931 C5926 1.363 . S
C5931 C5930 1.415 . S
H5932 C5929 0.999 . S
H5933 C5914 0.913 . S
H5934 C5952 0.951 . S
H5935 C5954 0.951 . S
H5936 C5956 0.950 . S
H5937 C5957 0.950 . S
H5938 C5959 0.950 . S
H5939 C5962 0.950 . S
H5940 C5963 0.950 . S
H5941 C5965 0.950 . S
H5942 C5966 0.950 . S
H5943 C5967 0.951 . S
H5944 C5969 0.951 . S
H5945 C5971 0.950 . S
H5946 C5972 0.950 . S
H5947 C5974 0.950 . S
H5948 C5977 0.950 . S
H5949 C5978 0.950 . S
H5950 C5980 0.950 . S
H5951 C5981 0.950 . S
C5952 H5934 0.951 . S
C5952 C5953 1.366 . S
C5952 C5954 1.388 . S
C5953 C5952 1.366 . S
C5953 C5957 1.385 . S
C5954 H5935 0.951 . S
C5954 C5952 1.388 . S
C5954 C5955 1.366 . S
C5955 C5954 1.366 . S
C5955 C5956 1.414 . S
C5955 C5958 1.499 . S
C5956 H5936 0.950 . S
C5956 C5955 1.414 . S
C5956 C5957 1.374 . S
C5957 H5937 0.950 . S
C5957 C5953 1.385 . S
C5957 C5956 1.374 . S
C5958 C5955 1.499 . S
C5958 C5959 1.373 . S
C5958 C5960 1.389 . S
C5959 H5938 0.950 . S
C5959 C5958 1.373 . S
C5959 C5975 1.377 . S
C5960 C5958 1.389 . S
C5960 C5961 1.524 . S
C5960 C5974 1.377 . S
C5961 C5960 1.524 . S
C5961 C5962 1.397 . S
C5961 C5966 1.363 . S
C5962 H5939 0.950 . S
C5962 C5961 1.397 . S
C5962 C5963 1.334 . S
C5963 H5940 0.950 . S
C5963 C5962 1.334 . S
C5963 C5964 1.287 . S
C5964 C5963 1.287 . S
C5964 C5965 1.524 . S
C5964 H5983 0.913 . S
C5965 H5941 0.950 . S
C5965 C5964 1.524 . S
C5965 C5966 1.415 . S
C5966 H5942 0.950 . S
C5966 C5961 1.363 . S
C5966 C5965 1.415 . S
C5967 H5943 0.951 . S
C5967 C5968 1.366 . S
C5967 C5969 1.388 . S
C5968 C5967 1.366 . S
C5968 C5972 1.385 . S
C5969 H5944 0.951 . S
C5969 C5967 1.388 . S
C5969 C5970 1.366 . S
C5970 C5969 1.366 . S
C5970 C5971 1.414 . S
C5970 C5973 1.499 . S
C5971 H5945 0.950 . S
C5971 C5970 1.414 . S
C5971 C5972 1.374 . S
C5972 H5946 0.950 . S
C5972 C5968 1.385 . S
C5972 C5971 1.374 . S
C5973 C5970 1.499 . S
C5973 C5974 1.373 . S
C5973 C5975 1.389 . S
C5974 H5947 0.950 . S
C5974 C5960 1.377 . S
C5974 C5973 1.373 . S
C5975 C5959 1.377 . S
C5975 C5973 1.389 . S
C5975 C5976 1.524 . S
C5976 C5975 1.524 . S
C5976 C5977 1.397 . S
C5976 C5981 1.363 . S
C5977 H5948 0.950 . S
C5977 C5976 1.397 . S
C5977 C5978 1.334 . S
C5978 H5949 0.950 . S
C5978 C5977 1.334 . S
C5978 C5979 1.287 . S
C5979 C5978 1.287 . S
C5979 C5980 1.524 . S
C5979 H5982 0.999 . S
C5980 H5950 0.950 . S
C5980 C5979 1.524 . S
C5980 C5981 1.415 . S
C5981 H5951 0.950 . S
C5981 C5976 1.363 . S
C5981 C5980 1.415 . S
H5982 C5979 0.999 . S
H5983 C5964 0.913 . S
H5984 C6002 0.951 . S
H5985 C6004 0.951 . S
H5986 C6006 0.950 . S
H5987 C6007 0.950 . S
H5988 C6009 0.950 . S
H5989 C6012 0.950 . S
H5990 C6013 0.950 . S
H5991 C6015 0.950 . S
H5992 C6016 0.950 . S
H5993 C6017 0.951 . S
H5994 C6019 0.951 . S
H5995 C6021 0.950 . S
H5996 C6022 0.950 . S
H5997 C6024 0.950 . S
H5998 C6027 0.950 . S
H5999 C6028 0.950 . S
H6000 C6030 0.950 . S
H6001 C6031 0.950 . S
C6002 H5984 0.951 . S
C6002 C6003 1.366 . S
C6002 C6004 1.388 . S
C6003 C6002 1.366 . S
C6003 C6007 1.385 . S
C6004 H5985 0.951 . S
C6004 C6002 1.388 . S
C6004 C6005 1.366 . S
C6005 C6004 1.366 . S
C6005 C6006 1.414 . S
C6005 C6008 1.499 . S
C6006 H5986 0.950 . S
C6006 C6005 1.414 . S
C6006 C6007 1.374 . S
C6007 H5987 0.950 . S
C6007 C6003 1.385 . S
C6007 C6006 1.374 . S
C6008 C6005 1.499 . S
C6008 C6009 1.373 . S
C6008 C6010 1.389 . S
C6009 H5988 0.950 . S
C6009 C6008 1.373 . S
C6009 C6025 1.377 . S
C6010 C6008 1.389 . S
C6010 C6011 1.524 . S
C6010 C6024 1.377 . S
C6011 C6010 1.524 . S
C6011 C6012 1.397 . S
C6011 C6016 1.363 . S
C6012 H5989 0.950 . S
C6012 C6011 1.397 . S
C6012 C6013 1.334 . S
C6013 H5990 0.950 . S
C6013 C6012 1.334 . S
C6013 C6014 1.287 . S
C6014 C6013 1.287 . S
C6014 C6015 1.524 . S
C6014 H6033 0.913 . S
C6015 H5991 0.950 . S
C6015 C6014 1.524 . S
C6015 C6016 1.415 . S
C6016 H5992 0.950 . S
C6016 C6011 1.363 . S
C6016 C6015 1.415 . S
C6017 H5993 0.951 . S
C6017 C6018 1.366 . S
C6017 C6019 1.388 . S
C6018 C6017 1.366 . S
C6018 C6022 1.385 . S
C6019 H5994 0.951 . S
C6019 C6017 1.388 . S
C6019 C6020 1.366 . S
C6020 C6019 1.366 . S
C6020 C6021 1.414 . S
C6020 C6023 1.499 . S
C6021 H5995 0.950 . S
C6021 C6020 1.414 . S
C6021 C6022 1.374 . S
C6022 H5996 0.950 . S
C6022 C6018 1.385 . S
C6022 C6021 1.374 . S
C6023 C6020 1.499 . S
C6023 C6024 1.373 . S
C6023 C6025 1.389 . S
C6024 H5997 0.950 . S
C6024 C6010 1.377 . S
C6024 C6023 1.373 . S
C6025 C6009 1.377 . S
C6025 C6023 1.389 . S
C6025 C6026 1.524 . S
C6026 C6025 1.524 . S
C6026 C6027 1.397 . S
C6026 C6031 1.363 . S
C6027 H5998 0.950 . S
C6027 C6026 1.397 . S
C6027 C6028 1.334 . S
C6028 H5999 0.950 . S
C6028 C6027 1.334 . S
C6028 C6029 1.287 . S
C6029 C6028 1.287 . S
C6029 C6030 1.524 . S
C6029 H6032 0.999 . S
C6030 H6000 0.950 . S
C6030 C6029 1.524 . S
C6030 C6031 1.415 . S
C6031 H6001 0.950 . S
C6031 C6026 1.363 . S
C6031 C6030 1.415 . S
H6032 C6029 0.999 . S
H6033 C6014 0.913 . S
H6034 C6052 0.951 . S
H6035 C6054 0.951 . S
H6036 C6056 0.950 . S
H6037 C6057 0.950 . S
H6038 C6059 0.950 . S
H6039 C6062 0.950 . S
H6040 C6063 0.950 . S
H6041 C6065 0.950 . S
H6042 C6066 0.950 . S
H6043 C6067 0.951 . S
H6044 C6069 0.951 . S
H6045 C6071 0.950 . S
H6046 C6072 0.950 . S
H6047 C6074 0.950 . S
H6048 C6077 0.950 . S
H6049 C6078 0.950 . S
H6050 C6080 0.950 . S
H6051 C6081 0.950 . S
C6052 H6034 0.951 . S
C6052 C6053 1.366 . S
C6052 C6054 1.388 . S
C6053 C6052 1.366 . S
C6053 C6057 1.385 . S
C6054 H6035 0.951 . S
C6054 C6052 1.388 . S
C6054 C6055 1.366 . S
C6055 C6054 1.366 . S
C6055 C6056 1.414 . S
C6055 C6058 1.499 . S
C6056 H6036 0.950 . S
C6056 C6055 1.414 . S
C6056 C6057 1.374 . S
C6057 H6037 0.950 . S
C6057 C6053 1.385 . S
C6057 C6056 1.374 . S
C6058 C6055 1.499 . S
C6058 C6059 1.373 . S
C6058 C6060 1.389 . S
C6059 H6038 0.950 . S
C6059 C6058 1.373 . S
C6059 C6075 1.377 . S
C6060 C6058 1.389 . S
C6060 C6061 1.524 . S
C6060 C6074 1.377 . S
C6061 C6060 1.524 . S
C6061 C6062 1.397 . S
C6061 C6066 1.363 . S
C6062 H6039 0.950 . S
C6062 C6061 1.397 . S
C6062 C6063 1.334 . S
C6063 H6040 0.950 . S
C6063 C6062 1.334 . S
C6063 C6064 1.287 . S
C6064 C6063 1.287 . S
C6064 C6065 1.524 . S
C6064 H6083 0.913 . S
C6065 H6041 0.950 . S
C6065 C6064 1.524 . S
C6065 C6066 1.415 . S
C6066 H6042 0.950 . S
C6066 C6061 1.363 . S
C6066 C6065 1.415 . S
C6067 H6043 0.951 . S
C6067 C6068 1.366 . S
C6067 C6069 1.388 . S
C6068 C6067 1.366 . S
C6068 C6072 1.385 . S
C6069 H6044 0.951 . S
C6069 C6067 1.388 . S
C6069 C6070 1.366 . S
C6070 C6069 1.366 . S
C6070 C6071 1.414 . S
C6070 C6073 1.499 . S
C6071 H6045 0.950 . S
C6071 C6070 1.414 . S
C6071 C6072 1.374 . S
C6072 H6046 0.950 . S
C6072 C6068 1.385 . S
C6072 C6071 1.374 . S
C6073 C6070 1.499 . S
C6073 C6074 1.373 . S
C6073 C6075 1.389 . S
C6074 H6047 0.950 . S
C6074 C6060 1.377 . S
C6074 C6073 1.373 . S
C6075 C6059 1.377 . S
C6075 C6073 1.389 . S
C6075 C6076 1.524 . S
C6076 C6075 1.524 . S
C6076 C6077 1.397 . S
C6076 C6081 1.363 . S
C6077 H6048 0.950 . S
C6077 C6076 1.397 . S
C6077 C6078 1.334 . S
C6078 H6049 0.950 . S
C6078 C6077 1.334 . S
C6078 C6079 1.287 . S
C6079 C6078 1.287 . S
C6079 C6080 1.524 . S
C6079 H6082 0.999 . S
C6080 H6050 0.950 . S
C6080 C6079 1.524 . S
C6080 C6081 1.415 . S
C6081 H6051 0.950 . S
C6081 C6076 1.363 . S
C6081 C6080 1.415 . S
H6082 C6079 0.999 . S
H6083 C6064 0.913 . S
H6084 C6102 0.951 . S
H6085 C6104 0.951 . S
H6086 C6106 0.950 . S
H6087 C6107 0.950 . S
H6088 C6109 0.950 . S
H6089 C6112 0.950 . S
H6090 C6113 0.950 . S
H6091 C6115 0.950 . S
H6092 C6116 0.950 . S
H6093 C6117 0.951 . S
H6094 C6119 0.951 . S
H6095 C6121 0.950 . S
H6096 C6122 0.950 . S
H6097 C6124 0.950 . S
H6098 C6127 0.950 . S
H6099 C6128 0.950 . S
H6100 C6130 0.950 . S
H6101 C6131 0.950 . S
C6102 H6084 0.951 . S
C6102 C6103 1.366 . S
C6102 C6104 1.388 . S
C6103 C6102 1.366 . S
C6103 C6107 1.385 . S
C6104 H6085 0.951 . S
C6104 C6102 1.388 . S
C6104 C6105 1.366 . S
C6105 C6104 1.366 . S
C6105 C6106 1.414 . S
C6105 C6108 1.499 . S
C6106 H6086 0.950 . S
C6106 C6105 1.414 . S
C6106 C6107 1.374 . S
C6107 H6087 0.950 . S
C6107 C6103 1.385 . S
C6107 C6106 1.374 . S
C6108 C6105 1.499 . S
C6108 C6109 1.373 . S
C6108 C6110 1.389 . S
C6109 H6088 0.950 . S
C6109 C6108 1.373 . S
C6109 C6125 1.377 . S
C6110 C6108 1.389 . S
C6110 C6111 1.524 . S
C6110 C6124 1.377 . S
C6111 C6110 1.524 . S
C6111 C6112 1.397 . S
C6111 C6116 1.363 . S
C6112 H6089 0.950 . S
C6112 C6111 1.397 . S
C6112 C6113 1.334 . S
C6113 H6090 0.950 . S
C6113 C6112 1.334 . S
C6113 C6114 1.287 . S
C6114 C6113 1.287 . S
C6114 C6115 1.524 . S
C6114 H6133 0.913 . S
C6115 H6091 0.950 . S
C6115 C6114 1.524 . S
C6115 C6116 1.415 . S
C6116 H6092 0.950 . S
C6116 C6111 1.363 . S
C6116 C6115 1.415 . S
C6117 H6093 0.951 . S
C6117 C6118 1.366 . S
C6117 C6119 1.388 . S
C6118 C6117 1.366 . S
C6118 C6122 1.385 . S
C6119 H6094 0.951 . S
C6119 C6117 1.388 . S
C6119 C6120 1.366 . S
C6120 C6119 1.366 . S
C6120 C6121 1.414 . S
C6120 C6123 1.499 . S
C6121 H6095 0.950 . S
C6121 C6120 1.414 . S
C6121 C6122 1.374 . S
C6122 H6096 0.950 . S
C6122 C6118 1.385 . S
C6122 C6121 1.374 . S
C6123 C6120 1.499 . S
C6123 C6124 1.373 . S
C6123 C6125 1.389 . S
C6124 H6097 0.950 . S
C6124 C6110 1.377 . S
C6124 C6123 1.373 . S
C6125 C6109 1.377 . S
C6125 C6123 1.389 . S
C6125 C6126 1.524 . S
C6126 C6125 1.524 . S
C6126 C6127 1.397 . S
C6126 C6131 1.363 . S
C6127 H6098 0.950 . S
C6127 C6126 1.397 . S
C6127 C6128 1.334 . S
C6128 H6099 0.950 . S
C6128 C6127 1.334 . S
C6128 C6129 1.287 . S
C6129 C6128 1.287 . S
C6129 C6130 1.524 . S
C6129 H6132 0.999 . S
C6130 H6100 0.950 . S
C6130 C6129 1.524 . S
C6130 C6131 1.415 . S
C6131 H6101 0.950 . S
C6131 C6126 1.363 . S
C6131 C6130 1.415 . S
H6132 C6129 0.999 . S
H6133 C6114 0.913 . S
H6134 C6152 0.951 . S
H6135 C6154 0.951 . S
H6136 C6156 0.950 . S
H6137 C6157 0.950 . S
H6138 C6159 0.950 . S
H6139 C6162 0.950 . S
H6140 C6163 0.950 . S
H6141 C6165 0.950 . S
H6142 C6166 0.950 . S
H6143 C6167 0.951 . S
H6144 C6169 0.951 . S
H6145 C6171 0.950 . S
H6146 C6172 0.950 . S
H6147 C6174 0.950 . S
H6148 C6177 0.950 . S
H6149 C6178 0.950 . S
H6150 C6180 0.950 . S
H6151 C6181 0.950 . S
C6152 H6134 0.951 . S
C6152 C6153 1.366 . S
C6152 C6154 1.388 . S
C6153 C6152 1.366 . S
C6153 C6157 1.385 . S
C6154 H6135 0.951 . S
C6154 C6152 1.388 . S
C6154 C6155 1.366 . S
C6155 C6154 1.366 . S
C6155 C6156 1.414 . S
C6155 C6158 1.499 . S
C6156 H6136 0.950 . S
C6156 C6155 1.414 . S
C6156 C6157 1.374 . S
C6157 H6137 0.950 . S
C6157 C6153 1.385 . S
C6157 C6156 1.374 . S
C6158 C6155 1.499 . S
C6158 C6159 1.373 . S
C6158 C6160 1.389 . S
C6159 H6138 0.950 . S
C6159 C6158 1.373 . S
C6159 C6175 1.377 . S
C6160 C6158 1.389 . S
C6160 C6161 1.524 . S
C6160 C6174 1.377 . S
C6161 C6160 1.524 . S
C6161 C6162 1.397 . S
C6161 C6166 1.363 . S
C6162 H6139 0.950 . S
C6162 C6161 1.397 . S
C6162 C6163 1.334 . S
C6163 H6140 0.950 . S
C6163 C6162 1.334 . S
C6163 C6164 1.287 . S
C6164 C6163 1.287 . S
C6164 C6165 1.524 . S
C6164 H6183 0.913 . S
C6165 H6141 0.950 . S
C6165 C6164 1.524 . S
C6165 C6166 1.415 . S
C6166 H6142 0.950 . S
C6166 C6161 1.363 . S
C6166 C6165 1.415 . S
C6167 H6143 0.951 . S
C6167 C6168 1.366 . S
C6167 C6169 1.388 . S
C6168 C6167 1.366 . S
C6168 C6172 1.385 . S
C6169 H6144 0.951 . S
C6169 C6167 1.388 . S
C6169 C6170 1.366 . S
C6170 C6169 1.366 . S
C6170 C6171 1.414 . S
C6170 C6173 1.499 . S
C6171 H6145 0.950 . S
C6171 C6170 1.414 . S
C6171 C6172 1.374 . S
C6172 H6146 0.950 . S
C6172 C6168 1.385 . S
C6172 C6171 1.374 . S
C6173 C6170 1.499 . S
C6173 C6174 1.373 . S
C6173 C6175 1.389 . S
C6174 H6147 0.950 . S
C6174 C6160 1.377 . S
C6174 C6173 1.373 . S
C6175 C6159 1.377 . S
C6175 C6173 1.389 . S
C6175 C6176 1.524 . S
C6176 C6175 1.524 . S
C6176 C6177 1.397 . S
C6176 C6181 1.363 . S
C6177 H6148 0.950 . S
C6177 C6176 1.397 . S
C6177 C6178 1.334 . S
C6178 H6149 0.950 . S
C6178 C6177 1.334 . S
C6178 C6179 1.287 . S
C6179 C6178 1.287 . S
C6179 C6180 1.524 . S
C6179 H6182 0.999 . S
C6180 H6150 0.950 . S
C6180 C6179 1.524 . S
C6180 C6181 1.415 . S
C6181 H6151 0.950 . S
C6181 C6176 1.363 . S
C6181 C6180 1.415 . S
H6182 C6179 0.999 . S
H6183 C6164 0.913 . S
H6184 C6202 0.951 . S
H6185 C6204 0.951 . S
H6186 C6206 0.950 . S
H6187 C6207 0.950 . S
H6188 C6209 0.950 . S
H6189 C6212 0.950 . S
H6190 C6213 0.950 . S
H6191 C6215 0.950 . S
H6192 C6216 0.950 . S
H6193 C6217 0.951 . S
H6194 C6219 0.951 . S
H6195 C6221 0.950 . S
H6196 C6222 0.950 . S
H6197 C6224 0.950 . S
H6198 C6227 0.950 . S
H6199 C6228 0.950 . S
H6200 C6230 0.950 . S
H6201 C6231 0.950 . S
C6202 H6184 0.951 . S
C6202 C6203 1.366 . S
C6202 C6204 1.388 . S
C6203 C6202 1.366 . S
C6203 C6207 1.385 . S
C6204 H6185 0.951 . S
C6204 C6202 1.388 . S
C6204 C6205 1.366 . S
C6205 C6204 1.366 . S
C6205 C6206 1.414 . S
C6205 C6208 1.499 . S
C6206 H6186 0.950 . S
C6206 C6205 1.414 . S
C6206 C6207 1.374 . S
C6207 H6187 0.950 . S
C6207 C6203 1.385 . S
C6207 C6206 1.374 . S
C6208 C6205 1.499 . S
C6208 C6209 1.373 . S
C6208 C6210 1.389 . S
C6209 H6188 0.950 . S
C6209 C6208 1.373 . S
C6209 C6225 1.377 . S
C6210 C6208 1.389 . S
C6210 C6211 1.524 . S
C6210 C6224 1.377 . S
C6211 C6210 1.524 . S
C6211 C6212 1.397 . S
C6211 C6216 1.363 . S
C6212 H6189 0.950 . S
C6212 C6211 1.397 . S
C6212 C6213 1.334 . S
C6213 H6190 0.950 . S
C6213 C6212 1.334 . S
C6213 C6214 1.287 . S
C6214 C6213 1.287 . S
C6214 C6215 1.524 . S
C6214 H6233 0.913 . S
C6215 H6191 0.950 . S
C6215 C6214 1.524 . S
C6215 C6216 1.415 . S
C6216 H6192 0.950 . S
C6216 C6211 1.363 . S
C6216 C6215 1.415 . S
C6217 H6193 0.951 . S
C6217 C6218 1.366 . S
C6217 C6219 1.388 . S
C6218 C6217 1.366 . S
C6218 C6222 1.385 . S
C6219 H6194 0.951 . S
C6219 C6217 1.388 . S
C6219 C6220 1.366 . S
C6220 C6219 1.366 . S
C6220 C6221 1.414 . S
C6220 C6223 1.499 . S
C6221 H6195 0.950 . S
C6221 C6220 1.414 . S
C6221 C6222 1.374 . S
C6222 H6196 0.950 . S
C6222 C6218 1.385 . S
C6222 C6221 1.374 . S
C6223 C6220 1.499 . S
C6223 C6224 1.373 . S
C6223 C6225 1.389 . S
C6224 H6197 0.950 . S
C6224 C6210 1.377 . S
C6224 C6223 1.373 . S
C6225 C6209 1.377 . S
C6225 C6223 1.389 . S
C6225 C6226 1.524 . S
C6226 C6225 1.524 . S
C6226 C6227 1.397 . S
C6226 C6231 1.363 . S
C6227 H6198 0.950 . S
C6227 C6226 1.397 . S
C6227 C6228 1.334 . S
C6228 H6199 0.950 . S
C6228 C6227 1.334 . S
C6228 C6229 1.287 . S
C6229 C6228 1.287 . S
C6229 C6230 1.524 . S
C6229 H6232 0.999 . S
C6230 H6200 0.950 . S
C6230 C6229 1.524 . S
C6230 C6231 1.415 . S
C6231 H6201 0.950 . S
C6231 C6226 1.363 . S
C6231 C6230 1.415 . S
H6232 C6229 0.999 . S
H6233 C6214 0.913 . S
H6234 C6252 0.951 . S
H6235 C6254 0.951 . S
H6236 C6256 0.950 . S
H6237 C6257 0.950 . S
H6238 C6259 0.950 . S
H6239 C6262 0.950 . S
H6240 C6263 0.950 . S
H6241 C6265 0.950 . S
H6242 C6266 0.950 . S
H6243 C6267 0.951 . S
H6244 C6269 0.951 . S
H6245 C6271 0.950 . S
H6246 C6272 0.950 . S
H6247 C6274 0.950 . S
H6248 C6277 0.950 . S
H6249 C6278 0.950 . S
H6250 C6280 0.950 . S
H6251 C6281 0.950 . S
C6252 H6234 0.951 . S
C6252 C6253 1.366 . S
C6252 C6254 1.388 . S
C6253 C6252 1.366 . S
C6253 C6257 1.385 . S
C6254 H6235 0.951 . S
C6254 C6252 1.388 . S
C6254 C6255 1.366 . S
C6255 C6254 1.366 . S
C6255 C6256 1.414 . S
C6255 C6258 1.499 . S
C6256 H6236 0.950 . S
C6256 C6255 1.414 . S
C6256 C6257 1.374 . S
C6257 H6237 0.950 . S
C6257 C6253 1.385 . S
C6257 C6256 1.374 . S
C6258 C6255 1.499 . S
C6258 C6259 1.373 . S
C6258 C6260 1.389 . S
C6259 H6238 0.950 . S
C6259 C6258 1.373 . S
C6259 C6275 1.377 . S
C6260 C6258 1.389 . S
C6260 C6261 1.524 . S
C6260 C6274 1.377 . S
C6261 C6260 1.524 . S
C6261 C6262 1.397 . S
C6261 C6266 1.363 . S
C6262 H6239 0.950 . S
C6262 C6261 1.397 . S
C6262 C6263 1.334 . S
C6263 H6240 0.950 . S
C6263 C6262 1.334 . S
C6263 C6264 1.287 . S
C6264 C6263 1.287 . S
C6264 C6265 1.524 . S
C6264 H6283 0.913 . S
C6265 H6241 0.950 . S
C6265 C6264 1.524 . S
C6265 C6266 1.415 . S
C6266 H6242 0.950 . S
C6266 C6261 1.363 . S
C6266 C6265 1.415 . S
C6267 H6243 0.951 . S
C6267 C6268 1.366 . S
C6267 C6269 1.388 . S
C6268 C6267 1.366 . S
C6268 C6272 1.385 . S
C6269 H6244 0.951 . S
C6269 C6267 1.388 . S
C6269 C6270 1.366 . S
C6270 C6269 1.366 . S
C6270 C6271 1.414 . S
C6270 C6273 1.499 . S
C6271 H6245 0.950 . S
C6271 C6270 1.414 . S
C6271 C6272 1.374 . S
C6272 H6246 0.950 . S
C6272 C6268 1.385 . S
C6272 C6271 1.374 . S
C6273 C6270 1.499 . S
C6273 C6274 1.373 . S
C6273 C6275 1.389 . S
C6274 H6247 0.950 . S
C6274 C6260 1.377 . S
C6274 C6273 1.373 . S
C6275 C6259 1.377 . S
C6275 C6273 1.389 . S
C6275 C6276 1.524 . S
C6276 C6275 1.524 . S
C6276 C6277 1.397 . S
C6276 C6281 1.363 . S
C6277 H6248 0.950 . S
C6277 C6276 1.397 . S
C6277 C6278 1.334 . S
C6278 H6249 0.950 . S
C6278 C6277 1.334 . S
C6278 C6279 1.287 . S
C6279 C6278 1.287 . S
C6279 C6280 1.524 . S
C6279 H6282 0.999 . S
C6280 H6250 0.950 . S
C6280 C6279 1.524 . S
C6280 C6281 1.415 . S
C6281 H6251 0.950 . S
C6281 C6276 1.363 . S
C6281 C6280 1.415 . S
H6282 C6279 0.999 . S
H6283 C6264 0.913 . S
H6284 C6302 0.951 . S
H6285 C6304 0.951 . S
H6286 C6306 0.950 . S
H6287 C6307 0.950 . S
H6288 C6309 0.950 . S
H6289 C6312 0.950 . S
H6290 C6313 0.950 . S
H6291 C6315 0.950 . S
H6292 C6316 0.950 . S
H6293 C6317 0.951 . S
H6294 C6319 0.951 . S
H6295 C6321 0.950 . S
H6296 C6322 0.950 . S
H6297 C6324 0.950 . S
H6298 C6327 0.950 . S
H6299 C6328 0.950 . S
H6300 C6330 0.950 . S
H6301 C6331 0.950 . S
C6302 H6284 0.951 . S
C6302 C6303 1.366 . S
C6302 C6304 1.388 . S
C6303 C6302 1.366 . S
C6303 C6307 1.385 . S
C6304 H6285 0.951 . S
C6304 C6302 1.388 . S
C6304 C6305 1.366 . S
C6305 C6304 1.366 . S
C6305 C6306 1.414 . S
C6305 C6308 1.499 . S
C6306 H6286 0.950 . S
C6306 C6305 1.414 . S
C6306 C6307 1.374 . S
C6307 H6287 0.950 . S
C6307 C6303 1.385 . S
C6307 C6306 1.374 . S
C6308 C6305 1.499 . S
C6308 C6309 1.373 . S
C6308 C6310 1.389 . S
C6309 H6288 0.950 . S
C6309 C6308 1.373 . S
C6309 C6325 1.377 . S
C6310 C6308 1.389 . S
C6310 C6311 1.524 . S
C6310 C6324 1.377 . S
C6311 C6310 1.524 . S
C6311 C6312 1.397 . S
C6311 C6316 1.363 . S
C6312 H6289 0.950 . S
C6312 C6311 1.397 . S
C6312 C6313 1.334 . S
C6313 H6290 0.950 . S
C6313 C6312 1.334 . S
C6313 C6314 1.287 . S
C6314 C6313 1.287 . S
C6314 C6315 1.524 . S
C6314 H6333 0.913 . S
C6315 H6291 0.950 . S
C6315 C6314 1.524 . S
C6315 C6316 1.415 . S
C6316 H6292 0.950 . S
C6316 C6311 1.363 . S
C6316 C6315 1.415 . S
C6317 H6293 0.951 . S
C6317 C6318 1.366 . S
C6317 C6319 1.388 . S
C6318 C6317 1.366 . S
C6318 C6322 1.385 . S
C6319 H6294 0.951 . S
C6319 C6317 1.388 . S
C6319 C6320 1.366 . S
C6320 C6319 1.366 . S
C6320 C6321 1.414 . S
C6320 C6323 1.499 . S
C6321 H6295 0.950 . S
C6321 C6320 1.414 . S
C6321 C6322 1.374 . S
C6322 H6296 0.950 . S
C6322 C6318 1.385 . S
C6322 C6321 1.374 . S
C6323 C6320 1.499 . S
C6323 C6324 1.373 . S
C6323 C6325 1.389 . S
C6324 H6297 0.950 . S
C6324 C6310 1.377 . S
C6324 C6323 1.373 . S
C6325 C6309 1.377 . S
C6325 C6323 1.389 . S
C6325 C6326 1.524 . S
C6326 C6325 1.524 . S
C6326 C6327 1.397 . S
C6326 C6331 1.363 . S
C6327 H6298 0.950 . S
C6327 C6326 1.397 . S
C6327 C6328 1.334 . S
C6328 H6299 0.950 . S
C6328 C6327 1.334 . S
C6328 C6329 1.287 . S
C6329 C6328 1.287 . S
C6329 C6330 1.524 . S
C6329 H6332 0.999 . S
C6330 H6300 0.950 . S
C6330 C6329 1.524 . S
C6330 C6331 1.415 . S
C6331 H6301 0.950 . S
C6331 C6326 1.363 . S
C6331 C6330 1.415 . S
H6332 C6329 0.999 . S
H6333 C6314 0.913 . S
H6334 C6352 0.951 . S
H6335 C6354 0.951 . S
H6336 C6356 0.950 . S
H6337 C6357 0.950 . S
H6338 C6359 0.950 . S
H6339 C6362 0.950 . S
H6340 C6363 0.950 . S
H6341 C6365 0.950 . S
H6342 C6366 0.950 . S
H6343 C6367 0.951 . S
H6344 C6369 0.951 . S
H6345 C6371 0.950 . S
H6346 C6372 0.950 . S
H6347 C6374 0.950 . S
H6348 C6377 0.950 . S
H6349 C6378 0.950 . S
H6350 C6380 0.950 . S
H6351 C6381 0.950 . S
C6352 H6334 0.951 . S
C6352 C6353 1.366 . S
C6352 C6354 1.388 . S
C6353 C6352 1.366 . S
C6353 C6357 1.385 . S
C6354 H6335 0.951 . S
C6354 C6352 1.388 . S
C6354 C6355 1.366 . S
C6355 C6354 1.366 . S
C6355 C6356 1.414 . S
C6355 C6358 1.499 . S
C6356 H6336 0.950 . S
C6356 C6355 1.414 . S
C6356 C6357 1.374 . S
C6357 H6337 0.950 . S
C6357 C6353 1.385 . S
C6357 C6356 1.374 . S
C6358 C6355 1.499 . S
C6358 C6359 1.373 . S
C6358 C6360 1.389 . S
C6359 H6338 0.950 . S
C6359 C6358 1.373 . S
C6359 C6375 1.377 . S
C6360 C6358 1.389 . S
C6360 C6361 1.524 . S
C6360 C6374 1.377 . S
C6361 C6360 1.524 . S
C6361 C6362 1.397 . S
C6361 C6366 1.363 . S
C6362 H6339 0.950 . S
C6362 C6361 1.397 . S
C6362 C6363 1.334 . S
C6363 H6340 0.950 . S
C6363 C6362 1.334 . S
C6363 C6364 1.287 . S
C6364 C6363 1.287 . S
C6364 C6365 1.524 . S
C6364 H6383 0.913 . S
C6365 H6341 0.950 . S
C6365 C6364 1.524 . S
C6365 C6366 1.415 . S
C6366 H6342 0.950 . S
C6366 C6361 1.363 . S
C6366 C6365 1.415 . S
C6367 H6343 0.951 . S
C6367 C6368 1.366 . S
C6367 C6369 1.388 . S
C6368 C6367 1.366 . S
C6368 C6372 1.385 . S
C6369 H6344 0.951 . S
C6369 C6367 1.388 . S
C6369 C6370 1.366 . S
C6370 C6369 1.366 . S
C6370 C6371 1.414 . S
C6370 C6373 1.499 . S
C6371 H6345 0.950 . S
C6371 C6370 1.414 . S
C6371 C6372 1.374 . S
C6372 H6346 0.950 . S
C6372 C6368 1.385 . S
C6372 C6371 1.374 . S
C6373 C6370 1.499 . S
C6373 C6374 1.373 . S
C6373 C6375 1.389 . S
C6374 H6347 0.950 . S
C6374 C6360 1.377 . S
C6374 C6373 1.373 . S
C6375 C6359 1.377 . S
C6375 C6373 1.389 . S
C6375 C6376 1.524 . S
C6376 C6375 1.524 . S
C6376 C6377 1.397 . S
C6376 C6381 1.363 . S
C6377 H6348 0.950 . S
C6377 C6376 1.397 . S
C6377 C6378 1.334 . S
C6378 H6349 0.950 . S
C6378 C6377 1.334 . S
C6378 C6379 1.287 . S
C6379 C6378 1.287 . S
C6379 C6380 1.524 . S
C6379 H6382 0.999 . S
C6380 H6350 0.950 . S
C6380 C6379 1.524 . S
C6380 C6381 1.415 . S
C6381 H6351 0.950 . S
C6381 C6376 1.363 . S
C6381 C6380 1.415 . S
H6382 C6379 0.999 . S
H6383 C6364 0.913 . S
H6384 C6402 0.951 . S
H6385 C6404 0.951 . S
H6386 C6406 0.950 . S
H6387 C6407 0.950 . S
H6388 C6409 0.950 . S
H6389 C6412 0.950 . S
H6390 C6413 0.950 . S
H6391 C6415 0.950 . S
H6392 C6416 0.950 1_545 S
H6393 C6417 0.951 . S
H6394 C6419 0.951 . S
H6395 C6421 0.950 . S
H6396 C6422 0.950 . S
H6397 C6424 0.950 . S
H6398 C6427 0.950 . S
H6399 C6428 0.950 . S
H6400 C6430 0.950 . S
H6401 C6431 0.950 . S
C6402 H6384 0.951 . S
C6402 C6403 1.366 . S
C6402 C6404 1.388 . S
C6403 C6402 1.366 . S
C6403 C6407 1.385 . S
C6404 H6385 0.951 . S
C6404 C6402 1.388 . S
C6404 C6405 1.366 . S
C6405 C6404 1.366 . S
C6405 C6406 1.414 . S
C6405 C6408 1.499 . S
C6406 H6386 0.950 . S
C6406 C6405 1.414 . S
C6406 C6407 1.374 . S
C6407 H6387 0.950 . S
C6407 C6403 1.385 . S
C6407 C6406 1.374 . S
C6408 C6405 1.499 . S
C6408 C6409 1.373 . S
C6408 C6410 1.389 . S
C6409 H6388 0.950 . S
C6409 C6408 1.373 . S
C6409 C6425 1.377 1_565 S
C6410 C6408 1.389 . S
C6410 C6411 1.524 . S
C6410 C6424 1.377 1_565 S
C6411 C6410 1.524 . S
C6411 C6412 1.397 . S
C6411 C6416 1.363 . S
C6412 H6389 0.950 . S
C6412 C6411 1.397 . S
C6412 C6413 1.334 . S
C6413 H6390 0.950 . S
C6413 C6412 1.334 . S
C6413 C6414 1.287 . S
C6414 C6413 1.287 . S
C6414 C6415 1.524 . S
C6414 H6433 0.913 . S
C6415 H6391 0.950 . S
C6415 C6414 1.524 . S
C6415 C6416 1.415 . S
C6416 H6392 0.950 1_565 S
C6416 C6411 1.363 . S
C6416 C6415 1.415 . S
C6417 H6393 0.951 . S
C6417 C6418 1.366 . S
C6417 C6419 1.388 . S
C6418 C6417 1.366 . S
C6418 C6422 1.385 . S
C6419 H6394 0.951 . S
C6419 C6417 1.388 . S
C6419 C6420 1.366 . S
C6420 C6419 1.366 . S
C6420 C6421 1.414 . S
C6420 C6423 1.499 . S
C6421 H6395 0.950 . S
C6421 C6420 1.414 . S
C6421 C6422 1.374 . S
C6422 H6396 0.950 . S
C6422 C6418 1.385 . S
C6422 C6421 1.374 . S
C6423 C6420 1.499 . S
C6423 C6424 1.373 . S
C6423 C6425 1.389 . S
C6424 H6397 0.950 . S
C6424 C6410 1.377 1_545 S
C6424 C6423 1.373 . S
C6425 C6409 1.377 1_545 S
C6425 C6423 1.389 . S
C6425 C6426 1.524 . S
C6426 C6425 1.524 . S
C6426 C6427 1.397 . S
C6426 C6431 1.363 . S
C6427 H6398 0.950 . S
C6427 C6426 1.397 . S
C6427 C6428 1.334 . S
C6428 H6399 0.950 . S
C6428 C6427 1.334 . S
C6428 C6429 1.287 . S
C6429 C6428 1.287 . S
C6429 C6430 1.524 . S
C6429 H6432 0.999 . S
C6430 H6400 0.950 . S
C6430 C6429 1.524 . S
C6430 C6431 1.415 . S
C6431 H6401 0.950 . S
C6431 C6426 1.363 . S
C6431 C6430 1.415 . S
H6432 C6429 0.999 . S
H6433 C6414 0.913 . S
H6434 C6452 0.951 . S
H6435 C6454 0.951 . S
H6436 C6456 0.950 . S
H6437 C6457 0.950 . S
H6438 C6459 0.950 . S
H6439 C6462 0.950 . S
H6440 C6463 0.950 . S
H6441 C6465 0.950 . S
H6442 C6466 0.950 . S
H6443 C6467 0.951 . S
H6444 C6469 0.951 . S
H6445 C6471 0.950 . S
H6446 C6472 0.950 . S
H6447 C6474 0.956 . S
H6448 C6477 0.950 . S
H6449 C6478 0.950 . S
H6450 C6480 0.950 . S
H6451 C6481 0.950 . S
C6452 H6434 0.951 . S
C6452 C6453 1.366 . S
C6452 C6454 1.388 . S
C6453 C6452 1.366 . S
C6453 C6457 1.385 . S
C6454 H6435 0.951 . S
C6454 C6452 1.388 . S
C6454 C6455 1.366 . S
C6455 C6454 1.366 . S
C6455 C6456 1.414 . S
C6455 C6458 1.499 . S
C6456 H6436 0.950 . S
C6456 C6455 1.414 . S
C6456 C6457 1.374 . S
C6457 H6437 0.950 . S
C6457 C6453 1.385 . S
C6457 C6456 1.374 . S
C6458 C6455 1.499 . S
C6458 C6459 1.373 . S
C6458 C6460 1.389 . S
C6459 H6438 0.950 . S
C6459 C6458 1.373 . S
C6459 C6475 1.377 1_455 S
C6460 C6458 1.389 . S
C6460 C6461 1.524 . S
C6460 C6474 1.358 1_455 S
C6461 C6460 1.524 . S
C6461 C6462 1.397 . S
C6461 C6466 1.363 . S
C6462 H6439 0.950 . S
C6462 C6461 1.397 . S
C6462 C6463 1.334 . S
C6463 H6440 0.950 . S
C6463 C6462 1.334 . S
C6463 C6464 1.287 . S
C6464 C6463 1.287 . S
C6464 C6465 1.524 . S
C6464 H6483 0.913 . S
C6465 H6441 0.950 . S
C6465 C6464 1.524 . S
C6465 C6466 1.415 . S
C6466 H6442 0.950 . S
C6466 C6461 1.363 . S
C6466 C6465 1.415 . S
C6467 H6443 0.951 . S
C6467 C6468 1.366 . S
C6467 C6469 1.388 . S
C6468 C6467 1.366 . S
C6468 C6472 1.385 . S
C6469 H6444 0.951 . S
C6469 C6467 1.388 . S
C6469 C6470 1.366 . S
C6470 C6469 1.366 . S
C6470 C6471 1.414 . S
C6470 C6473 1.499 . S
C6471 H6445 0.950 . S
C6471 C6470 1.414 . S
C6471 C6472 1.374 . S
C6472 H6446 0.950 . S
C6472 C6468 1.385 . S
C6472 C6471 1.374 . S
C6473 C6470 1.499 . S
C6473 C6474 1.387 . S
C6473 C6475 1.389 . S
C6474 H6447 0.956 . S
C6474 C6460 1.358 1_655 S
C6474 C6473 1.387 . S
C6475 C6459 1.377 1_655 S
C6475 C6473 1.389 . S
C6475 C6476 1.524 . S
C6476 C6475 1.524 . S
C6476 C6477 1.397 . S
C6476 C6481 1.363 . S
C6477 H6448 0.950 . S
C6477 C6476 1.397 . S
C6477 C6478 1.334 . S
C6478 H6449 0.950 . S
C6478 C6477 1.334 . S
C6478 C6479 1.287 . S
C6479 C6478 1.287 . S
C6479 C6480 1.524 . S
C6479 H6482 0.999 . S
C6480 H6450 0.950 . S
C6480 C6479 1.524 . S
C6480 C6481 1.415 . S
C6481 H6451 0.950 . S
C6481 C6476 1.363 . S
C6481 C6480 1.415 . S
H6482 C6479 0.999 . S
H6483 C6464 0.913 . S
H6484 C6502 0.951 . S
H6485 C6504 0.951 . S
H6486 C6506 0.950 . S
H6487 C6507 0.950 . S
H6488 C6509 0.950 . S
H6489 C6512 0.950 . S
H6490 C6513 0.950 . S
H6491 C6515 0.950 . S
H6492 C6516 0.950 . S
H6493 C6517 0.951 . S
H6494 C6519 0.951 . S
H6495 C6521 0.950 . S
H6496 C6522 0.950 . S
H6497 C6524 0.950 . S
H6498 C6527 0.950 . S
H6499 C6528 0.950 . S
H6500 C6530 0.950 . S
H6501 C6531 0.950 . S
C6502 H6484 0.951 . S
C6502 C6503 1.366 . S
C6502 C6504 1.388 . S
C6503 C6502 1.366 . S
C6503 C6507 1.385 . S
C6504 H6485 0.951 . S
C6504 C6502 1.388 . S
C6504 C6505 1.366 . S
C6505 C6504 1.366 . S
C6505 C6506 1.414 . S
C6505 C6508 1.499 . S
C6506 H6486 0.950 . S
C6506 C6505 1.414 . S
C6506 C6507 1.374 . S
C6507 H6487 0.950 . S
C6507 C6503 1.385 . S
C6507 C6506 1.374 . S
C6508 C6505 1.499 . S
C6508 C6509 1.373 . S
C6508 C6510 1.389 . S
C6509 H6488 0.950 . S
C6509 C6508 1.373 . S
C6509 C6525 1.377 . S
C6510 C6508 1.389 . S
C6510 C6511 1.524 . S
C6510 C6524 1.377 . S
C6511 C6510 1.524 . S
C6511 C6512 1.397 . S
C6511 C6516 1.363 . S
C6512 H6489 0.950 . S
C6512 C6511 1.397 . S
C6512 C6513 1.334 . S
C6513 H6490 0.950 . S
C6513 C6512 1.334 . S
C6513 C6514 1.287 . S
C6514 C6513 1.287 . S
C6514 C6515 1.524 . S
C6514 H6533 0.913 . S
C6515 H6491 0.950 . S
C6515 C6514 1.524 . S
C6515 C6516 1.415 . S
C6516 H6492 0.950 . S
C6516 C6511 1.363 . S
C6516 C6515 1.415 . S
C6517 H6493 0.951 . S
C6517 C6518 1.366 . S
C6517 C6519 1.388 . S
C6518 C6517 1.366 . S
C6518 C6522 1.385 . S
C6519 H6494 0.951 . S
C6519 C6517 1.388 . S
C6519 C6520 1.366 . S
C6520 C6519 1.366 . S
C6520 C6521 1.414 . S
C6520 C6523 1.499 . S
C6521 H6495 0.950 . S
C6521 C6520 1.414 . S
C6521 C6522 1.374 . S
C6522 H6496 0.950 . S
C6522 C6518 1.385 . S
C6522 C6521 1.374 . S
C6523 C6520 1.499 . S
C6523 C6524 1.373 . S
C6523 C6525 1.389 . S
C6524 H6497 0.950 . S
C6524 C6510 1.377 . S
C6524 C6523 1.373 . S
C6525 C6509 1.377 . S
C6525 C6523 1.389 . S
C6525 C6526 1.524 . S
C6526 C6525 1.524 . S
C6526 C6527 1.397 . S
C6526 C6531 1.363 . S
C6527 H6498 0.950 . S
C6527 C6526 1.397 . S
C6527 C6528 1.334 . S
C6528 H6499 0.950 . S
C6528 C6527 1.334 . S
C6528 C6529 1.287 . S
C6529 C6528 1.287 . S
C6529 C6530 1.524 . S
C6529 H6532 0.999 . S
C6530 H6500 0.950 . S
C6530 C6529 1.524 . S
C6530 C6531 1.415 . S
C6531 H6501 0.950 . S
C6531 C6526 1.363 . S
C6531 C6530 1.415 . S
H6532 C6529 0.999 . S
H6533 C6514 0.913 . S
H6534 C6552 0.951 . S
H6535 C6554 0.951 . S
H6536 C6556 0.950 . S
H6537 C6557 0.950 . S
H6538 C6559 0.950 . S
H6539 C6562 0.950 . S
H6540 C6563 0.950 . S
H6541 C6565 0.950 . S
H6542 C6566 0.950 . S
H6543 C6567 0.951 . S
H6544 C6569 0.951 . S
H6545 C6571 0.950 . S
H6546 C6572 0.950 . S
H6547 C6574 0.950 . S
H6548 C6577 0.950 . S
H6549 C6578 0.950 . S
H6550 C6580 0.950 . S
H6551 C6581 0.950 . S
C6552 H6534 0.951 . S
C6552 C6553 1.366 . S
C6552 C6554 1.388 . S
C6553 C6552 1.366 . S
C6553 C6557 1.385 . S
C6554 H6535 0.951 . S
C6554 C6552 1.388 . S
C6554 C6555 1.366 . S
C6555 C6554 1.366 . S
C6555 C6556 1.414 . S
C6555 C6558 1.499 . S
C6556 H6536 0.950 . S
C6556 C6555 1.414 . S
C6556 C6557 1.374 . S
C6557 H6537 0.950 . S
C6557 C6553 1.385 . S
C6557 C6556 1.374 . S
C6558 C6555 1.499 . S
C6558 C6559 1.373 . S
C6558 C6560 1.389 . S
C6559 H6538 0.950 . S
C6559 C6558 1.373 . S
C6559 C6575 1.377 . S
C6560 C6558 1.389 . S
C6560 C6561 1.524 . S
C6560 C6574 1.377 . S
C6561 C6560 1.524 . S
C6561 C6562 1.397 . S
C6561 C6566 1.363 . S
C6562 H6539 0.950 . S
C6562 C6561 1.397 . S
C6562 C6563 1.334 . S
C6563 H6540 0.950 . S
C6563 C6562 1.334 . S
C6563 C6564 1.287 . S
C6564 C6563 1.287 . S
C6564 C6565 1.524 . S
C6564 H6583 0.913 . S
C6565 H6541 0.950 . S
C6565 C6564 1.524 . S
C6565 C6566 1.415 . S
C6566 H6542 0.950 . S
C6566 C6561 1.363 . S
C6566 C6565 1.415 . S
C6567 H6543 0.951 . S
C6567 C6568 1.366 . S
C6567 C6569 1.388 . S
C6568 C6567 1.366 . S
C6568 C6572 1.385 . S
C6569 H6544 0.951 . S
C6569 C6567 1.388 . S
C6569 C6570 1.366 . S
C6570 C6569 1.366 . S
C6570 C6571 1.414 . S
C6570 C6573 1.499 . S
C6571 H6545 0.950 . S
C6571 C6570 1.414 . S
C6571 C6572 1.374 . S
C6572 H6546 0.950 . S
C6572 C6568 1.385 . S
C6572 C6571 1.374 . S
C6573 C6570 1.499 . S
C6573 C6574 1.373 . S
C6573 C6575 1.389 . S
C6574 H6547 0.950 . S
C6574 C6560 1.377 . S
C6574 C6573 1.373 . S
C6575 C6559 1.377 . S
C6575 C6573 1.389 . S
C6575 C6576 1.524 . S
C6576 C6575 1.524 . S
C6576 C6577 1.397 . S
C6576 C6581 1.363 . S
C6577 H6548 0.950 . S
C6577 C6576 1.397 . S
C6577 C6578 1.334 . S
C6578 H6549 0.950 . S
C6578 C6577 1.334 . S
C6578 C6579 1.287 . S
C6579 C6578 1.287 . S
C6579 C6580 1.524 . S
C6579 H6582 0.999 . S
C6580 H6550 0.950 . S
C6580 C6579 1.524 . S
C6580 C6581 1.415 . S
C6581 H6551 0.950 . S
C6581 C6576 1.363 . S
C6581 C6580 1.415 . S
H6582 C6579 0.999 . S
H6583 C6564 0.913 . S
H6584 C6602 0.951 . S
H6585 C6604 0.951 . S
H6586 C6606 0.950 . S
H6587 C6607 0.950 . S
H6588 C6609 0.950 . S
H6589 C6612 0.950 . S
H6590 C6613 0.950 . S
H6591 C6615 0.950 . S
H6592 C6616 0.950 . S
H6593 C6617 0.951 . S
H6594 C6619 0.951 . S
H6595 C6621 0.950 . S
H6596 C6622 0.950 . S
H6597 C6624 0.950 . S
H6598 C6627 0.950 . S
H6599 C6628 0.950 . S
H6600 C6630 0.950 . S
H6601 C6631 0.950 . S
C6602 H6584 0.951 . S
C6602 C6603 1.366 . S
C6602 C6604 1.388 . S
C6603 C6602 1.366 . S
C6603 C6607 1.385 . S
C6604 H6585 0.951 . S
C6604 C6602 1.388 . S
C6604 C6605 1.366 . S
C6605 C6604 1.366 . S
C6605 C6606 1.414 . S
C6605 C6608 1.499 . S
C6606 H6586 0.950 . S
C6606 C6605 1.414 . S
C6606 C6607 1.374 . S
C6607 H6587 0.950 . S
C6607 C6603 1.385 . S
C6607 C6606 1.374 . S
C6608 C6605 1.499 . S
C6608 C6609 1.373 . S
C6608 C6610 1.389 . S
C6609 H6588 0.950 . S
C6609 C6608 1.373 . S
C6609 C6625 1.377 . S
C6610 C6608 1.389 . S
C6610 C6611 1.524 . S
C6610 C6624 1.377 . S
C6611 C6610 1.524 . S
C6611 C6612 1.397 . S
C6611 C6616 1.363 . S
C6612 H6589 0.950 . S
C6612 C6611 1.397 . S
C6612 C6613 1.334 . S
C6613 H6590 0.950 . S
C6613 C6612 1.334 . S
C6613 C6614 1.287 . S
C6614 C6613 1.287 . S
C6614 C6615 1.524 . S
C6614 H6633 0.913 . S
C6615 H6591 0.950 . S
C6615 C6614 1.524 . S
C6615 C6616 1.415 . S
C6616 H6592 0.950 . S
C6616 C6611 1.363 . S
C6616 C6615 1.415 . S
C6617 H6593 0.951 . S
C6617 C6618 1.366 . S
C6617 C6619 1.388 . S
C6618 C6617 1.366 . S
C6618 C6622 1.385 . S
C6619 H6594 0.951 . S
C6619 C6617 1.388 . S
C6619 C6620 1.366 . S
C6620 C6619 1.366 . S
C6620 C6621 1.414 . S
C6620 C6623 1.499 . S
C6621 H6595 0.950 . S
C6621 C6620 1.414 . S
C6621 C6622 1.374 . S
C6622 H6596 0.950 . S
C6622 C6618 1.385 . S
C6622 C6621 1.374 . S
C6623 C6620 1.499 . S
C6623 C6624 1.373 . S
C6623 C6625 1.389 . S
C6624 H6597 0.950 . S
C6624 C6610 1.377 . S
C6624 C6623 1.373 . S
C6625 C6609 1.377 . S
C6625 C6623 1.389 . S
C6625 C6626 1.524 . S
C6626 C6625 1.524 . S
C6626 C6627 1.397 . S
C6626 C6631 1.363 . S
C6627 H6598 0.950 . S
C6627 C6626 1.397 . S
C6627 C6628 1.334 . S
C6628 H6599 0.950 . S
C6628 C6627 1.334 . S
C6628 C6629 1.287 . S
C6629 C6628 1.287 . S
C6629 C6630 1.524 . S
C6629 H6632 0.999 . S
C6630 H6600 0.950 . S
C6630 C6629 1.524 . S
C6630 C6631 1.415 . S
C6631 H6601 0.950 . S
C6631 C6626 1.363 . S
C6631 C6630 1.415 . S
H6632 C6629 0.999 . S
H6633 C6614 0.913 . S
H6634 C6652 0.951 . S
H6635 C6654 0.951 . S
H6636 C6656 0.950 . S
H6637 C6657 0.950 . S
H6638 C6659 0.950 . S
H6639 C6662 0.950 . S
H6640 C6663 0.950 . S
H6641 C6665 0.950 . S
H6642 C6666 0.950 . S
H6643 C6667 0.951 . S
H6644 C6669 0.951 . S
H6645 C6671 0.950 . S
H6646 C6672 0.950 . S
H6647 C6674 0.950 . S
H6648 C6677 0.950 . S
H6649 C6678 0.950 . S
H6650 C6680 0.950 . S
H6651 C6681 0.950 . S
C6652 H6634 0.951 . S
C6652 C6653 1.366 . S
C6652 C6654 1.388 . S
C6653 C6652 1.366 . S
C6653 C6657 1.385 . S
C6654 H6635 0.951 . S
C6654 C6652 1.388 . S
C6654 C6655 1.366 . S
C6655 C6654 1.366 . S
C6655 C6656 1.414 . S
C6655 C6658 1.499 . S
C6656 H6636 0.950 . S
C6656 C6655 1.414 . S
C6656 C6657 1.374 . S
C6657 H6637 0.950 . S
C6657 C6653 1.385 . S
C6657 C6656 1.374 . S
C6658 C6655 1.499 . S
C6658 C6659 1.373 . S
C6658 C6660 1.389 . S
C6659 H6638 0.950 . S
C6659 C6658 1.373 . S
C6659 C6675 1.377 . S
C6660 C6658 1.389 . S
C6660 C6661 1.524 . S
C6660 C6674 1.377 . S
C6661 C6660 1.524 . S
C6661 C6662 1.397 . S
C6661 C6666 1.363 . S
C6662 H6639 0.950 . S
C6662 C6661 1.397 . S
C6662 C6663 1.334 . S
C6663 H6640 0.950 . S
C6663 C6662 1.334 . S
C6663 C6664 1.287 . S
C6664 C6663 1.287 . S
C6664 C6665 1.524 . S
C6664 H6683 0.913 . S
C6665 H6641 0.950 . S
C6665 C6664 1.524 . S
C6665 C6666 1.415 . S
C6666 H6642 0.950 . S
C6666 C6661 1.363 . S
C6666 C6665 1.415 . S
C6667 H6643 0.951 . S
C6667 C6668 1.366 . S
C6667 C6669 1.388 . S
C6668 C6667 1.366 . S
C6668 C6672 1.385 . S
C6669 H6644 0.951 . S
C6669 C6667 1.388 . S
C6669 C6670 1.366 . S
C6670 C6669 1.366 . S
C6670 C6671 1.414 . S
C6670 C6673 1.499 . S
C6671 H6645 0.950 . S
C6671 C6670 1.414 . S
C6671 C6672 1.374 . S
C6672 H6646 0.950 . S
C6672 C6668 1.385 . S
C6672 C6671 1.374 . S
C6673 C6670 1.499 . S
C6673 C6674 1.373 . S
C6673 C6675 1.389 . S
C6674 H6647 0.950 . S
C6674 C6660 1.377 . S
C6674 C6673 1.373 . S
C6675 C6659 1.377 . S
C6675 C6673 1.389 . S
C6675 C6676 1.524 . S
C6676 C6675 1.524 . S
C6676 C6677 1.397 . S
C6676 C6681 1.363 . S
C6677 H6648 0.950 . S
C6677 C6676 1.397 . S
C6677 C6678 1.334 . S
C6678 H6649 0.950 . S
C6678 C6677 1.334 . S
C6678 C6679 1.287 . S
C6679 C6678 1.287 . S
C6679 C6680 1.524 . S
C6679 H6682 0.999 . S
C6680 H6650 0.950 . S
C6680 C6679 1.524 . S
C6680 C6681 1.415 . S
C6681 H6651 0.950 . S
C6681 C6676 1.363 . S
C6681 C6680 1.415 . S
H6682 C6679 0.999 . S
H6683 C6664 0.913 . S
H6684 C6702 0.951 . S
H6685 C6704 0.951 . S
H6686 C6706 0.950 1_565 S
H6687 C6707 0.950 . S
H6688 C6709 0.950 . S
H6689 C6712 0.936 1_565 S
H6690 C6713 0.950 . S
H6691 C6715 0.950 . S
H6692 C6716 0.950 1_565 S
H6693 C6717 0.951 . S
H6694 C6719 0.951 . S
H6695 C6721 0.950 . S
H6696 C6722 0.950 . S
H6697 C6724 0.950 . S
H6698 C6727 0.950 . S
H6699 C6728 0.950 . S
H6700 C6730 0.950 . S
H6701 C6731 0.950 . S
C6702 H6684 0.951 . S
C6702 C6703 1.366 . S
C6702 C6704 1.388 . S
C6703 C6702 1.366 . S
C6703 C6707 1.385 . S
C6704 H6685 0.951 . S
C6704 C6702 1.388 . S
C6704 C6705 1.366 . S
C6705 C6704 1.366 . S
C6705 C6706 1.414 . S
C6705 C6708 1.499 1_545 S
C6706 H6686 0.950 1_545 S
C6706 C6705 1.414 . S
C6706 C6707 1.374 . S
C6707 H6687 0.950 . S
C6707 C6703 1.385 . S
C6707 C6706 1.374 . S
C6708 C6705 1.499 1_565 S
C6708 C6709 1.373 . S
C6708 C6710 1.389 . S
C6709 H6688 0.950 . S
C6709 C6708 1.373 . S
C6709 C6725 1.377 . S
C6710 C6708 1.389 . S
C6710 C6711 1.524 . S
C6710 C6724 1.377 . S
C6711 C6710 1.524 . S
C6711 C6712 1.380 1_565 S
C6711 C6716 1.363 1_565 S
C6712 H6689 0.936 1_545 S
C6712 C6711 1.380 1_545 S
C6712 C6713 1.369 . S
C6713 H6690 0.950 . S
C6713 C6712 1.369 . S
C6713 C6714 1.287 . S
C6714 C6713 1.287 . S
C6714 C6715 1.524 . S
C6714 H6733 0.913 . S
C6715 H6691 0.950 . S
C6715 C6714 1.524 . S
C6715 C6716 1.415 . S
C6716 H6692 0.950 1_545 S
C6716 C6711 1.363 1_545 S
C6716 C6715 1.415 . S
C6717 H6693 0.951 . S
C6717 C6718 1.366 . S
C6717 C6719 1.388 . S
C6718 C6717 1.366 . S
C6718 C6722 1.385 . S
C6719 H6694 0.951 . S
C6719 C6717 1.388 . S
C6719 C6720 1.366 . S
C6720 C6719 1.366 . S
C6720 C6721 1.414 . S
C6720 C6723 1.499 . S
C6721 H6695 0.950 . S
C6721 C6720 1.414 . S
C6721 C6722 1.374 . S
C6722 H6696 0.950 . S
C6722 C6718 1.385 . S
C6722 C6721 1.374 . S
C6723 C6720 1.499 . S
C6723 C6724 1.373 . S
C6723 C6725 1.389 . S
C6724 H6697 0.950 . S
C6724 C6710 1.377 . S
C6724 C6723 1.373 . S
C6725 C6709 1.377 . S
C6725 C6723 1.389 . S
C6725 C6726 1.524 . S
C6726 C6725 1.524 . S
C6726 C6727 1.397 . S
C6726 C6731 1.363 . S
C6727 H6698 0.950 . S
C6727 C6726 1.397 . S
C6727 C6728 1.334 . S
C6728 H6699 0.950 . S
C6728 C6727 1.334 . S
C6728 C6729 1.287 . S
C6729 C6728 1.287 . S
C6729 C6730 1.524 . S
C6729 H6732 0.999 . S
C6730 H6700 0.950 . S
C6730 C6729 1.524 . S
C6730 C6731 1.415 . S
C6731 H6701 0.950 . S
C6731 C6726 1.363 . S
C6731 C6730 1.415 . S
H6732 C6729 0.999 . S
H6733 C6714 0.913 . S
H6734 C6752 0.951 . S
H6735 C6754 0.951 . S
H6736 C6756 0.950 . S
H6737 C6757 0.950 . S
H6738 C6759 0.950 . S
H6739 C6762 0.950 . S
H6740 C6763 0.950 . S
H6741 C6765 0.950 . S
H6742 C6766 0.950 . S
H6743 C6767 0.951 . S
H6744 C6769 0.951 . S
H6745 C6771 0.950 . S
H6746 C6772 0.950 . S
H6747 C6774 0.950 . S
H6748 C6777 0.950 . S
H6749 C6778 0.950 . S
H6750 C6780 0.950 . S
H6751 C6781 0.950 . S
C6752 H6734 0.951 . S
C6752 C6753 1.366 . S
C6752 C6754 1.388 . S
C6753 C6752 1.366 . S
C6753 C6757 1.385 . S
C6754 H6735 0.951 . S
C6754 C6752 1.388 . S
C6754 C6755 1.366 . S
C6755 C6754 1.366 . S
C6755 C6756 1.414 . S
C6755 C6758 1.499 . S
C6756 H6736 0.950 . S
C6756 C6755 1.414 . S
C6756 C6757 1.374 . S
C6757 H6737 0.950 . S
C6757 C6753 1.385 . S
C6757 C6756 1.374 . S
C6758 C6755 1.499 . S
C6758 C6759 1.373 . S
C6758 C6760 1.389 . S
C6759 H6738 0.950 . S
C6759 C6758 1.373 . S
C6759 C6775 1.377 1_655 S
C6760 C6758 1.389 . S
C6760 C6761 1.524 . S
C6760 C6774 1.377 1_655 S
C6761 C6760 1.524 . S
C6761 C6762 1.397 . S
C6761 C6766 1.363 . S
C6762 H6739 0.950 . S
C6762 C6761 1.397 . S
C6762 C6763 1.334 . S
C6763 H6740 0.950 . S
C6763 C6762 1.334 . S
C6763 C6764 1.287 . S
C6764 C6763 1.287 . S
C6764 C6765 1.524 . S
C6764 H6783 0.913 . S
C6765 H6741 0.950 . S
C6765 C6764 1.524 . S
C6765 C6766 1.415 . S
C6766 H6742 0.950 . S
C6766 C6761 1.363 . S
C6766 C6765 1.415 . S
C6767 H6743 0.951 . S
C6767 C6768 1.366 . S
C6767 C6769 1.388 . S
C6768 C6767 1.366 . S
C6768 C6772 1.385 . S
C6769 H6744 0.951 . S
C6769 C6767 1.388 . S
C6769 C6770 1.366 . S
C6770 C6769 1.366 . S
C6770 C6771 1.414 . S
C6770 C6773 1.499 . S
C6771 H6745 0.950 . S
C6771 C6770 1.414 . S
C6771 C6772 1.374 . S
C6772 H6746 0.950 . S
C6772 C6768 1.385 . S
C6772 C6771 1.374 . S
C6773 C6770 1.499 . S
C6773 C6774 1.373 . S
C6773 C6775 1.389 . S
C6774 H6747 0.950 . S
C6774 C6760 1.377 1_455 S
C6774 C6773 1.373 . S
C6775 C6759 1.377 1_455 S
C6775 C6773 1.389 . S
C6775 C6776 1.524 . S
C6776 C6775 1.524 . S
C6776 C6777 1.397 . S
C6776 C6781 1.363 . S
C6777 H6748 0.950 . S
C6777 C6776 1.397 . S
C6777 C6778 1.334 . S
C6778 H6749 0.950 . S
C6778 C6777 1.334 . S
C6778 C6779 1.287 . S
C6779 C6778 1.287 . S
C6779 C6780 1.524 . S
C6779 H6782 0.999 . S
C6780 H6750 0.950 . S
C6780 C6779 1.524 . S
C6780 C6781 1.415 . S
C6781 H6751 0.950 . S
C6781 C6776 1.363 . S
C6781 C6780 1.415 . S
H6782 C6779 0.999 . S
H6783 C6764 0.913 . S
H6784 C6802 0.951 . S
H6785 C6804 0.951 . S
H6786 C6806 0.950 . S
H6787 C6807 0.950 . S
H6788 C6809 0.950 . S
H6789 C6812 0.950 . S
H6790 C6813 0.950 . S
H6791 C6815 0.950 . S
H6792 C6816 0.950 . S
H6793 C6817 0.951 . S
H6794 C6819 0.951 . S
H6795 C6821 0.950 . S
H6796 C6822 0.950 . S
H6797 C6824 0.950 . S
H6798 C6827 0.950 . S
H6799 C6828 0.950 . S
H6800 C6830 0.950 . S
H6801 C6831 0.950 . S
C6802 H6784 0.951 . S
C6802 C6803 1.366 . S
C6802 C6804 1.388 . S
C6803 C6802 1.366 . S
C6803 C6807 1.385 . S
C6804 H6785 0.951 . S
C6804 C6802 1.388 . S
C6804 C6805 1.366 . S
C6805 C6804 1.366 . S
C6805 C6806 1.414 . S
C6805 C6808 1.499 . S
C6806 H6786 0.950 . S
C6806 C6805 1.414 . S
C6806 C6807 1.374 . S
C6807 H6787 0.950 . S
C6807 C6803 1.385 . S
C6807 C6806 1.374 . S
C6808 C6805 1.499 . S
C6808 C6809 1.373 . S
C6808 C6810 1.389 . S
C6809 H6788 0.950 . S
C6809 C6808 1.373 . S
C6809 C6825 1.377 1_554 S
C6810 C6808 1.389 . S
C6810 C6811 1.524 . S
C6810 C6824 1.377 1_554 S
C6811 C6810 1.524 . S
C6811 C6812 1.397 . S
C6811 C6816 1.363 . S
C6812 H6789 0.950 . S
C6812 C6811 1.397 . S
C6812 C6813 1.334 . S
C6813 H6790 0.950 . S
C6813 C6812 1.334 . S
C6813 C6814 1.287 . S
C6814 C6813 1.287 . S
C6814 C6815 1.524 . S
C6814 H6833 0.913 . S
C6815 H6791 0.950 . S
C6815 C6814 1.524 . S
C6815 C6816 1.415 . S
C6816 H6792 0.950 . S
C6816 C6811 1.363 . S
C6816 C6815 1.415 . S
C6817 H6793 0.951 . S
C6817 C6818 1.366 . S
C6817 C6819 1.388 . S
C6818 C6817 1.366 . S
C6818 C6822 1.385 . S
C6819 H6794 0.951 . S
C6819 C6817 1.388 . S
C6819 C6820 1.366 . S
C6820 C6819 1.366 . S
C6820 C6821 1.414 . S
C6820 C6823 1.499 . S
C6821 H6795 0.950 . S
C6821 C6820 1.414 . S
C6821 C6822 1.374 . S
C6822 H6796 0.950 . S
C6822 C6818 1.385 . S
C6822 C6821 1.374 . S
C6823 C6820 1.499 . S
C6823 C6824 1.373 . S
C6823 C6825 1.389 . S
C6824 H6797 0.950 . S
C6824 C6810 1.377 1_556 S
C6824 C6823 1.373 . S
C6825 C6809 1.377 1_556 S
C6825 C6823 1.389 . S
C6825 C6826 1.524 . S
C6826 C6825 1.524 . S
C6826 C6827 1.397 . S
C6826 C6831 1.363 . S
C6827 H6798 0.950 . S
C6827 C6826 1.397 . S
C6827 C6828 1.334 . S
C6828 H6799 0.950 . S
C6828 C6827 1.334 . S
C6828 C6829 1.287 . S
C6829 C6828 1.287 . S
C6829 C6830 1.524 . S
C6829 H6832 0.999 . S
C6830 H6800 0.950 . S
C6830 C6829 1.524 . S
C6830 C6831 1.415 . S
C6831 H6801 0.950 . S
C6831 C6826 1.363 . S
C6831 C6830 1.415 . S
H6832 C6829 0.999 . S
H6833 C6814 0.913 . S
H6834 C6852 0.951 . S
H6835 C6854 0.951 . S
H6836 C6856 0.950 . S
H6837 C6857 0.950 . S
H6838 C6859 0.950 . S
H6839 C6862 0.950 . S
H6840 C6863 0.950 . S
H6841 C6865 0.950 . S
H6842 C6866 0.950 . S
H6843 C6867 0.951 . S
H6844 C6869 0.951 . S
H6845 C6871 0.950 . S
H6846 C6872 0.950 . S
H6847 C6874 0.950 . S
H6848 C6877 0.950 . S
H6849 C6878 0.950 . S
H6850 C6880 0.950 . S
H6851 C6881 0.950 . S
C6852 H6834 0.951 . S
C6852 C6853 1.366 . S
C6852 C6854 1.388 . S
C6853 C6852 1.366 . S
C6853 C6857 1.385 . S
C6854 H6835 0.951 . S
C6854 C6852 1.388 . S
C6854 C6855 1.366 . S
C6855 C6854 1.366 . S
C6855 C6856 1.414 . S
C6855 C6858 1.499 . S
C6856 H6836 0.950 . S
C6856 C6855 1.414 . S
C6856 C6857 1.374 . S
C6857 H6837 0.950 . S
C6857 C6853 1.385 . S
C6857 C6856 1.374 . S
C6858 C6855 1.499 . S
C6858 C6859 1.373 . S
C6858 C6860 1.389 . S
C6859 H6838 0.950 . S
C6859 C6858 1.373 . S
C6859 C6875 1.377 . S
C6860 C6858 1.389 . S
C6860 C6861 1.524 . S
C6860 C6874 1.377 . S
C6861 C6860 1.524 . S
C6861 C6862 1.397 . S
C6861 C6866 1.363 . S
C6862 H6839 0.950 . S
C6862 C6861 1.397 . S
C6862 C6863 1.334 . S
C6863 H6840 0.950 . S
C6863 C6862 1.334 . S
C6863 C6864 1.287 . S
C6864 C6863 1.287 . S
C6864 C6865 1.524 . S
C6864 H6883 0.913 . S
C6865 H6841 0.950 . S
C6865 C6864 1.524 . S
C6865 C6866 1.415 . S
C6866 H6842 0.950 . S
C6866 C6861 1.363 . S
C6866 C6865 1.415 . S
C6867 H6843 0.951 . S
C6867 C6868 1.366 . S
C6867 C6869 1.388 . S
C6868 C6867 1.366 . S
C6868 C6872 1.385 . S
C6869 H6844 0.951 . S
C6869 C6867 1.388 . S
C6869 C6870 1.366 . S
C6870 C6869 1.366 . S
C6870 C6871 1.414 . S
C6870 C6873 1.499 . S
C6871 H6845 0.950 . S
C6871 C6870 1.414 . S
C6871 C6872 1.374 . S
C6872 H6846 0.950 . S
C6872 C6868 1.385 . S
C6872 C6871 1.374 . S
C6873 C6870 1.499 . S
C6873 C6874 1.373 . S
C6873 C6875 1.389 . S
C6874 H6847 0.950 . S
C6874 C6860 1.377 . S
C6874 C6873 1.373 . S
C6875 C6859 1.377 . S
C6875 C6873 1.389 . S
C6875 C6876 1.524 . S
C6876 C6875 1.524 . S
C6876 C6877 1.397 . S
C6876 C6881 1.363 . S
C6877 H6848 0.950 . S
C6877 C6876 1.397 . S
C6877 C6878 1.334 . S
C6878 H6849 0.950 . S
C6878 C6877 1.334 . S
C6878 C6879 1.287 . S
C6879 C6878 1.287 . S
C6879 C6880 1.524 . S
C6879 H6882 0.999 . S
C6880 H6850 0.950 . S
C6880 C6879 1.524 . S
C6880 C6881 1.415 . S
C6881 H6851 0.950 . S
C6881 C6876 1.363 . S
C6881 C6880 1.415 . S
H6882 C6879 0.999 . S
H6883 C6864 0.913 . S
H6884 C6902 0.951 . S
H6885 C6904 0.951 . S
H6886 C6906 0.950 . S
H6887 C6907 0.950 . S
H6888 C6909 0.950 . S
H6889 C6912 0.950 . S
H6890 C6913 0.950 . S
H6891 C6915 0.950 . S
H6892 C6916 0.950 . S
H6893 C6917 0.951 . S
H6894 C6919 0.951 . S
H6895 C6921 0.950 . S
H6896 C6922 0.950 . S
H6897 C6924 0.950 . S
H6898 C6927 0.950 . S
H6899 C6928 0.950 . S
H6900 C6930 0.950 . S
H6901 C6931 0.950 . S
C6902 H6884 0.951 . S
C6902 C6903 1.366 . S
C6902 C6904 1.388 . S
C6903 C6902 1.366 . S
C6903 C6907 1.385 . S
C6904 H6885 0.951 . S
C6904 C6902 1.388 . S
C6904 C6905 1.366 . S
C6905 C6904 1.366 . S
C6905 C6906 1.414 . S
C6905 C6908 1.499 . S
C6906 H6886 0.950 . S
C6906 C6905 1.414 . S
C6906 C6907 1.374 . S
C6907 H6887 0.950 . S
C6907 C6903 1.385 . S
C6907 C6906 1.374 . S
C6908 C6905 1.499 . S
C6908 C6909 1.373 . S
C6908 C6910 1.389 . S
C6909 H6888 0.950 . S
C6909 C6908 1.373 . S
C6909 C6925 1.377 . S
C6910 C6908 1.389 . S
C6910 C6911 1.524 . S
C6910 C6924 1.377 . S
C6911 C6910 1.524 . S
C6911 C6912 1.397 . S
C6911 C6916 1.363 . S
C6912 H6889 0.950 . S
C6912 C6911 1.397 . S
C6912 C6913 1.334 . S
C6913 H6890 0.950 . S
C6913 C6912 1.334 . S
C6913 C6914 1.287 . S
C6914 C6913 1.287 . S
C6914 C6915 1.524 . S
C6914 H6933 0.913 . S
C6915 H6891 0.950 . S
C6915 C6914 1.524 . S
C6915 C6916 1.415 . S
C6916 H6892 0.950 . S
C6916 C6911 1.363 . S
C6916 C6915 1.415 . S
C6917 H6893 0.951 . S
C6917 C6918 1.366 . S
C6917 C6919 1.388 . S
C6918 C6917 1.366 . S
C6918 C6922 1.385 . S
C6919 H6894 0.951 . S
C6919 C6917 1.388 . S
C6919 C6920 1.366 . S
C6920 C6919 1.366 . S
C6920 C6921 1.414 . S
C6920 C6923 1.499 . S
C6921 H6895 0.950 . S
C6921 C6920 1.414 . S
C6921 C6922 1.374 . S
C6922 H6896 0.950 . S
C6922 C6918 1.385 . S
C6922 C6921 1.374 . S
C6923 C6920 1.499 . S
C6923 C6924 1.373 . S
C6923 C6925 1.389 . S
C6924 H6897 0.950 . S
C6924 C6910 1.377 . S
C6924 C6923 1.373 . S
C6925 C6909 1.377 . S
C6925 C6923 1.389 . S
C6925 C6926 1.524 . S
C6926 C6925 1.524 . S
C6926 C6927 1.397 . S
C6926 C6931 1.363 . S
C6927 H6898 0.950 . S
C6927 C6926 1.397 . S
C6927 C6928 1.334 . S
C6928 H6899 0.950 . S
C6928 C6927 1.334 . S
C6928 C6929 1.287 . S
C6929 C6928 1.287 . S
C6929 C6930 1.524 . S
C6929 H6932 0.999 . S
C6930 H6900 0.950 . S
C6930 C6929 1.524 . S
C6930 C6931 1.415 . S
C6931 H6901 0.950 . S
C6931 C6926 1.363 . S
C6931 C6930 1.415 . S
H6932 C6929 0.999 . S
H6933 C6914 0.913 . S
H6934 C6952 0.951 . S
H6935 C6954 0.951 . S
H6936 C6956 0.950 . S
H6937 C6957 0.950 . S
H6938 C6959 0.950 . S
H6939 C6962 0.950 . S
H6940 C6963 0.950 . S
H6941 C6965 0.950 . S
H6942 C6966 0.950 . S
H6943 C6967 0.951 . S
H6944 C6969 0.951 . S
H6945 C6971 0.950 . S
H6946 C6972 0.950 . S
H6947 C6974 0.950 . S
H6948 C6977 0.950 . S
H6949 C6978 0.950 . S
H6950 C6980 0.950 . S
H6951 C6981 0.950 . S
C6952 H6934 0.951 . S
C6952 C6953 1.366 . S
C6952 C6954 1.388 . S
C6953 C6952 1.366 . S
C6953 C6957 1.385 . S
C6954 H6935 0.951 . S
C6954 C6952 1.388 . S
C6954 C6955 1.366 . S
C6955 C6954 1.366 . S
C6955 C6956 1.414 . S
C6955 C6958 1.499 . S
C6956 H6936 0.950 . S
C6956 C6955 1.414 . S
C6956 C6957 1.374 . S
C6957 H6937 0.950 . S
C6957 C6953 1.385 . S
C6957 C6956 1.374 . S
C6958 C6955 1.499 . S
C6958 C6959 1.373 . S
C6958 C6960 1.389 . S
C6959 H6938 0.950 . S
C6959 C6958 1.373 . S
C6959 C6975 1.377 . S
C6960 C6958 1.389 . S
C6960 C6961 1.524 . S
C6960 C6974 1.377 . S
C6961 C6960 1.524 . S
C6961 C6962 1.397 . S
C6961 C6966 1.363 . S
C6962 H6939 0.950 . S
C6962 C6961 1.397 . S
C6962 C6963 1.334 . S
C6963 H6940 0.950 . S
C6963 C6962 1.334 . S
C6963 C6964 1.287 . S
C6964 C6963 1.287 . S
C6964 C6965 1.524 . S
C6964 H6983 0.913 . S
C6965 H6941 0.950 . S
C6965 C6964 1.524 . S
C6965 C6966 1.415 . S
C6966 H6942 0.950 . S
C6966 C6961 1.363 . S
C6966 C6965 1.415 . S
C6967 H6943 0.951 . S
C6967 C6968 1.366 . S
C6967 C6969 1.388 . S
C6968 C6967 1.366 . S
C6968 C6972 1.385 . S
C6969 H6944 0.951 . S
C6969 C6967 1.388 . S
C6969 C6970 1.366 . S
C6970 C6969 1.366 . S
C6970 C6971 1.414 . S
C6970 C6973 1.499 . S
C6971 H6945 0.950 . S
C6971 C6970 1.414 . S
C6971 C6972 1.374 . S
C6972 H6946 0.950 . S
C6972 C6968 1.385 . S
C6972 C6971 1.374 . S
C6973 C6970 1.499 . S
C6973 C6974 1.373 . S
C6973 C6975 1.389 . S
C6974 H6947 0.950 . S
C6974 C6960 1.377 . S
C6974 C6973 1.373 . S
C6975 C6959 1.377 . S
C6975 C6973 1.389 . S
C6975 C6976 1.524 . S
C6976 C6975 1.524 . S
C6976 C6977 1.397 . S
C6976 C6981 1.363 . S
C6977 H6948 0.950 . S
C6977 C6976 1.397 . S
C6977 C6978 1.334 . S
C6978 H6949 0.950 . S
C6978 C6977 1.334 . S
C6978 C6979 1.287 . S
C6979 C6978 1.287 . S
C6979 C6980 1.524 . S
C6979 H6982 0.999 . S
C6980 H6950 0.950 . S
C6980 C6979 1.524 . S
C6980 C6981 1.415 . S
C6981 H6951 0.950 . S
C6981 C6976 1.363 . S
C6981 C6980 1.415 . S
H6982 C6979 0.999 . S
H6983 C6964 0.913 . S
H6984 C7002 0.951 . S
H6985 C7004 0.951 . S
H6986 C7006 0.950 . S
H6987 C7007 0.950 . S
H6988 C7009 0.950 . S
H6989 C7012 0.950 . S
H6990 C7013 0.950 . S
H6991 C7015 0.950 . S
H6992 C7016 0.950 . S
H6993 C7017 0.951 . S
H6994 C7019 0.951 . S
H6995 C7021 0.950 . S
H6996 C7022 0.950 . S
H6997 C7024 0.950 . S
H6998 C7027 0.950 . S
H6999 C7028 0.950 . S
H7000 C7030 0.950 . S
H7001 C7031 0.950 . S
C7002 H6984 0.951 . S
C7002 C7003 1.366 . S
C7002 C7004 1.388 . S
C7003 C7002 1.366 . S
C7003 C7007 1.385 . S
C7004 H6985 0.951 . S
C7004 C7002 1.388 . S
C7004 C7005 1.366 . S
C7005 C7004 1.366 . S
C7005 C7006 1.414 . S
C7005 C7008 1.499 . S
C7006 H6986 0.950 . S
C7006 C7005 1.414 . S
C7006 C7007 1.374 . S
C7007 H6987 0.950 . S
C7007 C7003 1.385 . S
C7007 C7006 1.374 . S
C7008 C7005 1.499 . S
C7008 C7009 1.373 . S
C7008 C7010 1.389 . S
C7009 H6988 0.950 . S
C7009 C7008 1.373 . S
C7009 C7025 1.377 . S
C7010 C7008 1.389 . S
C7010 C7011 1.524 . S
C7010 C7024 1.377 . S
C7011 C7010 1.524 . S
C7011 C7012 1.397 . S
C7011 C7016 1.363 . S
C7012 H6989 0.950 . S
C7012 C7011 1.397 . S
C7012 C7013 1.334 . S
C7013 H6990 0.950 . S
C7013 C7012 1.334 . S
C7013 C7014 1.287 . S
C7014 C7013 1.287 . S
C7014 C7015 1.524 . S
C7014 H7033 0.913 . S
C7015 H6991 0.950 . S
C7015 C7014 1.524 . S
C7015 C7016 1.415 . S
C7016 H6992 0.950 . S
C7016 C7011 1.363 . S
C7016 C7015 1.415 . S
C7017 H6993 0.951 . S
C7017 C7018 1.366 . S
C7017 C7019 1.388 . S
C7018 C7017 1.366 . S
C7018 C7022 1.385 . S
C7019 H6994 0.951 . S
C7019 C7017 1.388 . S
C7019 C7020 1.366 . S
C7020 C7019 1.366 . S
C7020 C7021 1.414 . S
C7020 C7023 1.499 . S
C7021 H6995 0.950 . S
C7021 C7020 1.414 . S
C7021 C7022 1.374 . S
C7022 H6996 0.950 . S
C7022 C7018 1.385 . S
C7022 C7021 1.374 . S
C7023 C7020 1.499 . S
C7023 C7024 1.373 . S
C7023 C7025 1.389 . S
C7024 H6997 0.950 . S
C7024 C7010 1.377 . S
C7024 C7023 1.373 . S
C7025 C7009 1.377 . S
C7025 C7023 1.389 . S
C7025 C7026 1.524 . S
C7026 C7025 1.524 . S
C7026 C7027 1.397 . S
C7026 C7031 1.363 . S
C7027 H6998 0.950 . S
C7027 C7026 1.397 . S
C7027 C7028 1.334 . S
C7028 H6999 0.950 . S
C7028 C7027 1.334 . S
C7028 C7029 1.287 . S
C7029 C7028 1.287 . S
C7029 C7030 1.524 . S
C7029 H7032 0.999 . S
C7030 H7000 0.950 . S
C7030 C7029 1.524 . S
C7030 C7031 1.415 . S
C7031 H7001 0.950 . S
C7031 C7026 1.363 . S
C7031 C7030 1.415 . S
H7032 C7029 0.999 . S
H7033 C7014 0.913 . S
H7034 C7052 0.951 . S
H7035 C7054 0.951 . S
H7036 C7056 0.950 . S
H7037 C7057 0.950 . S
H7038 C7059 0.950 . S
H7039 C7062 0.950 . S
H7040 C7063 0.950 . S
H7041 C7065 0.950 . S
H7042 C7066 0.950 . S
H7043 C7067 0.951 . S
H7044 C7069 0.951 . S
H7045 C7071 0.950 . S
H7046 C7072 0.950 . S
H7047 C7074 0.950 . S
H7048 C7077 0.950 . S
H7049 C7078 0.950 . S
H7050 C7080 0.950 . S
H7051 C7081 0.950 . S
C7052 H7034 0.951 . S
C7052 C7053 1.366 . S
C7052 C7054 1.388 . S
C7053 C7052 1.366 . S
C7053 C7057 1.385 . S
C7054 H7035 0.951 . S
C7054 C7052 1.388 . S
C7054 C7055 1.366 . S
C7055 C7054 1.366 . S
C7055 C7056 1.414 . S
C7055 C7058 1.499 . S
C7056 H7036 0.950 . S
C7056 C7055 1.414 . S
C7056 C7057 1.374 . S
C7057 H7037 0.950 . S
C7057 C7053 1.385 . S
C7057 C7056 1.374 . S
C7058 C7055 1.499 . S
C7058 C7059 1.373 . S
C7058 C7060 1.389 . S
C7059 H7038 0.950 . S
C7059 C7058 1.373 . S
C7059 C7075 1.377 . S
C7060 C7058 1.389 . S
C7060 C7061 1.524 . S
C7060 C7074 1.377 . S
C7061 C7060 1.524 . S
C7061 C7062 1.397 . S
C7061 C7066 1.363 . S
C7062 H7039 0.950 . S
C7062 C7061 1.397 . S
C7062 C7063 1.334 . S
C7063 H7040 0.950 . S
C7063 C7062 1.334 . S
C7063 C7064 1.287 . S
C7064 C7063 1.287 . S
C7064 C7065 1.524 . S
C7064 H7083 0.913 . S
C7065 H7041 0.950 . S
C7065 C7064 1.524 . S
C7065 C7066 1.415 . S
C7066 H7042 0.950 . S
C7066 C7061 1.363 . S
C7066 C7065 1.415 . S
C7067 H7043 0.951 . S
C7067 C7068 1.366 . S
C7067 C7069 1.388 . S
C7068 C7067 1.366 . S
C7068 C7072 1.385 . S
C7069 H7044 0.951 . S
C7069 C7067 1.388 . S
C7069 C7070 1.366 . S
C7070 C7069 1.366 . S
C7070 C7071 1.414 . S
C7070 C7073 1.499 . S
C7071 H7045 0.950 . S
C7071 C7070 1.414 . S
C7071 C7072 1.374 . S
C7072 H7046 0.950 . S
C7072 C7068 1.385 . S
C7072 C7071 1.374 . S
C7073 C7070 1.499 . S
C7073 C7074 1.373 . S
C7073 C7075 1.389 . S
C7074 H7047 0.950 . S
C7074 C7060 1.377 . S
C7074 C7073 1.373 . S
C7075 C7059 1.377 . S
C7075 C7073 1.389 . S
C7075 C7076 1.524 . S
C7076 C7075 1.524 . S
C7076 C7077 1.397 . S
C7076 C7081 1.363 . S
C7077 H7048 0.950 . S
C7077 C7076 1.397 . S
C7077 C7078 1.334 . S
C7078 H7049 0.950 . S
C7078 C7077 1.334 . S
C7078 C7079 1.287 . S
C7079 C7078 1.287 . S
C7079 C7080 1.524 . S
C7079 H7082 0.999 . S
C7080 H7050 0.950 . S
C7080 C7079 1.524 . S
C7080 C7081 1.415 . S
C7081 H7051 0.950 . S
C7081 C7076 1.363 . S
C7081 C7080 1.415 . S
H7082 C7079 0.999 . S
H7083 C7064 0.913 . S
H7084 C7102 0.951 . S
H7085 C7104 0.951 . S
H7086 C7106 0.950 . S
H7087 C7107 0.950 . S
H7088 C7109 0.950 . S
H7089 C7112 0.950 . S
H7090 C7113 0.950 . S
H7091 C7115 0.950 . S
H7092 C7116 0.950 . S
H7093 C7117 0.951 . S
H7094 C7119 0.951 . S
H7095 C7121 0.950 . S
H7096 C7122 0.950 . S
H7097 C7124 0.950 . S
H7098 C7127 0.950 . S
H7099 C7128 0.950 . S
H7100 C7130 0.950 . S
H7101 C7131 0.950 . S
C7102 H7084 0.951 . S
C7102 C7103 1.366 . S
C7102 C7104 1.388 . S
C7103 C7102 1.366 . S
C7103 C7107 1.385 . S
C7104 H7085 0.951 . S
C7104 C7102 1.388 . S
C7104 C7105 1.366 . S
C7105 C7104 1.366 . S
C7105 C7106 1.414 . S
C7105 C7108 1.499 . S
C7106 H7086 0.950 . S
C7106 C7105 1.414 . S
C7106 C7107 1.374 . S
C7107 H7087 0.950 . S
C7107 C7103 1.385 . S
C7107 C7106 1.374 . S
C7108 C7105 1.499 . S
C7108 C7109 1.373 . S
C7108 C7110 1.389 . S
C7109 H7088 0.950 . S
C7109 C7108 1.373 . S
C7109 C7125 1.377 . S
C7110 C7108 1.389 . S
C7110 C7111 1.524 . S
C7110 C7124 1.377 . S
C7111 C7110 1.524 . S
C7111 C7112 1.397 . S
C7111 C7116 1.363 . S
C7112 H7089 0.950 . S
C7112 C7111 1.397 . S
C7112 C7113 1.334 . S
C7113 H7090 0.950 . S
C7113 C7112 1.334 . S
C7113 C7114 1.287 . S
C7114 C7113 1.287 . S
C7114 C7115 1.524 . S
C7114 H7133 0.913 . S
C7115 H7091 0.950 . S
C7115 C7114 1.524 . S
C7115 C7116 1.415 . S
C7116 H7092 0.950 . S
C7116 C7111 1.363 . S
C7116 C7115 1.415 . S
C7117 H7093 0.951 . S
C7117 C7118 1.366 . S
C7117 C7119 1.388 . S
C7118 C7117 1.366 . S
C7118 C7122 1.385 . S
C7119 H7094 0.951 . S
C7119 C7117 1.388 . S
C7119 C7120 1.366 . S
C7120 C7119 1.366 . S
C7120 C7121 1.414 . S
C7120 C7123 1.499 . S
C7121 H7095 0.950 . S
C7121 C7120 1.414 . S
C7121 C7122 1.374 . S
C7122 H7096 0.950 . S
C7122 C7118 1.385 . S
C7122 C7121 1.374 . S
C7123 C7120 1.499 . S
C7123 C7124 1.373 . S
C7123 C7125 1.389 . S
C7124 H7097 0.950 . S
C7124 C7110 1.377 . S
C7124 C7123 1.373 . S
C7125 C7109 1.377 . S
C7125 C7123 1.389 . S
C7125 C7126 1.524 . S
C7126 C7125 1.524 . S
C7126 C7127 1.397 . S
C7126 C7131 1.363 . S
C7127 H7098 0.950 . S
C7127 C7126 1.397 . S
C7127 C7128 1.334 . S
C7128 H7099 0.950 . S
C7128 C7127 1.334 . S
C7128 C7129 1.287 . S
C7129 C7128 1.287 . S
C7129 C7130 1.524 . S
C7129 H7132 0.999 . S
C7130 H7100 0.950 . S
C7130 C7129 1.524 . S
C7130 C7131 1.415 . S
C7131 H7101 0.950 . S
C7131 C7126 1.363 . S
C7131 C7130 1.415 . S
H7132 C7129 0.999 . S
H7133 C7114 0.913 . S
H7134 C7152 0.951 . S
H7135 C7154 0.951 . S
H7136 C7156 0.950 . S
H7137 C7157 0.950 . S
H7138 C7159 0.950 . S
H7139 C7162 0.950 . S
H7140 C7163 0.950 . S
H7141 C7165 0.921 1_556 S
H7142 C7166 0.971 . S
H7143 C7167 0.951 . S
H7144 C7169 0.951 . S
H7145 C7171 0.950 . S
H7146 C7172 0.950 . S
H7147 C7174 0.950 . S
H7148 C7177 0.950 . S
H7149 C7178 0.950 . S
H7150 C7180 0.950 . S
H7151 C7181 0.950 . S
C7152 H7134 0.951 . S
C7152 C7153 1.366 . S
C7152 C7154 1.388 . S
C7153 C7152 1.366 . S
C7153 C7157 1.385 . S
C7154 H7135 0.951 . S
C7154 C7152 1.388 . S
C7154 C7155 1.366 . S
C7155 C7154 1.366 . S
C7155 C7156 1.414 . S
C7155 C7158 1.499 . S
C7156 H7136 0.950 . S
C7156 C7155 1.414 . S
C7156 C7157 1.374 . S
C7157 H7137 0.950 . S
C7157 C7153 1.385 . S
C7157 C7156 1.374 . S
C7158 C7155 1.499 . S
C7158 C7159 1.373 . S
C7158 C7160 1.389 . S
C7159 H7138 0.950 . S
C7159 C7158 1.373 . S
C7159 C7175 1.356 1_554 S
C7160 C7158 1.389 . S
C7160 C7161 1.524 . S
C7160 C7174 1.377 1_554 S
C7161 C7160 1.524 . S
C7161 C7162 1.397 . S
C7161 C7166 1.346 1_554 S
C7162 H7139 0.950 . S
C7162 C7161 1.397 . S
C7162 C7163 1.334 . S
C7163 H7140 0.950 . S
C7163 C7162 1.334 . S
C7163 C7164 1.287 . S
C7164 C7163 1.287 . S
C7164 C7165 1.566 . S
C7164 H7183 0.913 . S
C7165 H7141 0.921 1_554 S
C7165 C7164 1.566 . S
C7165 C7166 1.410 1_554 S
C7166 H7142 0.971 . S
C7166 C7161 1.346 1_556 S
C7166 C7165 1.410 1_556 S
C7167 H7143 0.951 . S
C7167 C7168 1.366 . S
C7167 C7169 1.388 . S
C7168 C7167 1.366 . S
C7168 C7172 1.385 . S
C7169 H7144 0.951 . S
C7169 C7167 1.388 . S
C7169 C7170 1.366 . S
C7170 C7169 1.366 . S
C7170 C7171 1.414 . S
C7170 C7173 1.499 . S
C7171 H7145 0.950 . S
C7171 C7170 1.414 . S
C7171 C7172 1.374 . S
C7172 H7146 0.950 . S
C7172 C7168 1.385 . S
C7172 C7171 1.374 . S
C7173 C7170 1.499 . S
C7173 C7174 1.373 . S
C7173 C7175 1.406 . S
C7174 H7147 0.950 . S
C7174 C7160 1.377 1_556 S
C7174 C7173 1.373 . S
C7175 C7159 1.356 1_556 S
C7175 C7173 1.406 . S
C7175 C7176 1.527 . S
C7176 C7175 1.527 . S
C7176 C7177 1.397 . S
C7176 C7181 1.363 1_556 S
C7177 H7148 0.950 . S
C7177 C7176 1.397 . S
C7177 C7178 1.334 . S
C7178 H7149 0.950 . S
C7178 C7177 1.334 . S
C7178 C7179 1.287 . S
C7179 C7178 1.287 . S
C7179 C7180 1.524 1_556 S
C7179 H7182 0.999 . S
C7180 H7150 0.950 . S
C7180 C7179 1.524 1_554 S
C7180 C7181 1.415 . S
C7181 H7151 0.950 . S
C7181 C7176 1.363 1_554 S
C7181 C7180 1.415 . S
H7182 C7179 0.999 . S
H7183 C7164 0.913 . S
H7184 C7202 0.951 . S
H7185 C7204 0.951 . S
H7186 C7206 0.950 . S
H7187 C7207 0.950 . S
H7188 C7209 0.950 . S
H7189 C7212 0.950 . S
H7190 C7213 0.950 . S
H7191 C7215 0.950 . S
H7192 C7216 0.950 . S
H7193 C7217 0.951 . S
H7194 C7219 0.951 . S
H7195 C7221 0.950 . S
H7196 C7222 0.950 . S
H7197 C7224 0.950 . S
H7198 C7227 0.950 . S
H7199 C7228 0.950 . S
H7200 C7230 0.950 . S
H7201 C7231 0.950 . S
C7202 H7184 0.951 . S
C7202 C7203 1.366 . S
C7202 C7204 1.388 . S
C7203 C7202 1.366 . S
C7203 C7207 1.385 . S
C7204 H7185 0.951 . S
C7204 C7202 1.388 . S
C7204 C7205 1.366 . S
C7205 C7204 1.366 . S
C7205 C7206 1.414 . S
C7205 C7208 1.499 . S
C7206 H7186 0.950 . S
C7206 C7205 1.414 . S
C7206 C7207 1.374 . S
C7207 H7187 0.950 . S
C7207 C7203 1.385 . S
C7207 C7206 1.374 . S
C7208 C7205 1.499 . S
C7208 C7209 1.373 . S
C7208 C7210 1.389 . S
C7209 H7188 0.950 . S
C7209 C7208 1.373 . S
C7209 C7225 1.377 1_655 S
C7210 C7208 1.389 . S
C7210 C7211 1.524 . S
C7210 C7224 1.377 1_655 S
C7211 C7210 1.524 . S
C7211 C7212 1.397 . S
C7211 C7216 1.363 . S
C7212 H7189 0.950 . S
C7212 C7211 1.397 . S
C7212 C7213 1.334 . S
C7213 H7190 0.950 . S
C7213 C7212 1.334 . S
C7213 C7214 1.287 . S
C7214 C7213 1.287 . S
C7214 C7215 1.524 . S
C7214 H7233 0.913 . S
C7215 H7191 0.950 . S
C7215 C7214 1.524 . S
C7215 C7216 1.415 . S
C7216 H7192 0.950 . S
C7216 C7211 1.363 . S
C7216 C7215 1.415 . S
C7217 H7193 0.951 . S
C7217 C7218 1.366 . S
C7217 C7219 1.388 . S
C7218 C7217 1.366 . S
C7218 C7222 1.385 . S
C7219 H7194 0.951 . S
C7219 C7217 1.388 . S
C7219 C7220 1.366 . S
C7220 C7219 1.366 . S
C7220 C7221 1.414 . S
C7220 C7223 1.499 . S
C7221 H7195 0.950 . S
C7221 C7220 1.414 . S
C7221 C7222 1.374 . S
C7222 H7196 0.950 . S
C7222 C7218 1.385 . S
C7222 C7221 1.374 . S
C7223 C7220 1.499 . S
C7223 C7224 1.373 . S
C7223 C7225 1.389 . S
C7224 H7197 0.950 . S
C7224 C7210 1.377 1_455 S
C7224 C7223 1.373 . S
C7225 C7209 1.377 1_455 S
C7225 C7223 1.389 . S
C7225 C7226 1.524 . S
C7226 C7225 1.524 . S
C7226 C7227 1.397 . S
C7226 C7231 1.363 . S
C7227 H7198 0.950 . S
C7227 C7226 1.397 . S
C7227 C7228 1.334 . S
C7228 H7199 0.950 . S
C7228 C7227 1.334 . S
C7228 C7229 1.287 . S
C7229 C7228 1.287 . S
C7229 C7230 1.524 . S
C7229 H7232 0.999 . S
C7230 H7200 0.950 . S
C7230 C7229 1.524 . S
C7230 C7231 1.415 . S
C7231 H7201 0.950 . S
C7231 C7226 1.363 . S
C7231 C7230 1.415 . S
H7232 C7229 0.999 . S
H7233 C7214 0.913 . S
H7234 C7252 0.951 . S
H7235 C7254 0.951 . S
H7236 C7256 0.950 . S
H7237 C7257 0.950 . S
H7238 C7259 0.950 . S
H7239 C7262 0.950 . S
H7240 C7263 0.950 . S
H7241 C7265 0.950 . S
H7242 C7266 0.950 . S
H7243 C7267 0.951 . S
H7244 C7269 0.951 . S
H7245 C7271 0.950 . S
H7246 C7272 0.950 . S
H7247 C7274 0.950 . S
H7248 C7277 0.950 . S
H7249 C7278 0.950 . S
H7250 C7280 0.950 . S
H7251 C7281 0.950 . S
C7252 H7234 0.951 . S
C7252 C7253 1.366 . S
C7252 C7254 1.388 . S
C7253 C7252 1.366 . S
C7253 C7257 1.385 . S
C7254 H7235 0.951 . S
C7254 C7252 1.388 . S
C7254 C7255 1.366 . S
C7255 C7254 1.366 . S
C7255 C7256 1.414 . S
C7255 C7258 1.499 . S
C7256 H7236 0.950 . S
C7256 C7255 1.414 . S
C7256 C7257 1.374 . S
C7257 H7237 0.950 . S
C7257 C7253 1.385 . S
C7257 C7256 1.374 . S
C7258 C7255 1.499 . S
C7258 C7259 1.373 . S
C7258 C7260 1.389 . S
C7259 H7238 0.950 . S
C7259 C7258 1.373 . S
C7259 C7275 1.377 . S
C7260 C7258 1.389 . S
C7260 C7261 1.524 . S
C7260 C7274 1.377 . S
C7261 C7260 1.524 . S
C7261 C7262 1.397 . S
C7261 C7266 1.363 . S
C7262 H7239 0.950 . S
C7262 C7261 1.397 . S
C7262 C7263 1.334 . S
C7263 H7240 0.950 . S
C7263 C7262 1.334 . S
C7263 C7264 1.287 . S
C7264 C7263 1.287 . S
C7264 C7265 1.524 . S
C7264 H7283 0.913 . S
C7265 H7241 0.950 . S
C7265 C7264 1.524 . S
C7265 C7266 1.415 . S
C7266 H7242 0.950 . S
C7266 C7261 1.363 . S
C7266 C7265 1.415 . S
C7267 H7243 0.951 . S
C7267 C7268 1.366 . S
C7267 C7269 1.388 . S
C7268 C7267 1.366 . S
C7268 C7272 1.385 . S
C7269 H7244 0.951 . S
C7269 C7267 1.388 . S
C7269 C7270 1.366 . S
C7270 C7269 1.366 . S
C7270 C7271 1.414 . S
C7270 C7273 1.499 . S
C7271 H7245 0.950 . S
C7271 C7270 1.414 . S
C7271 C7272 1.374 . S
C7272 H7246 0.950 . S
C7272 C7268 1.385 . S
C7272 C7271 1.374 . S
C7273 C7270 1.499 . S
C7273 C7274 1.373 . S
C7273 C7275 1.389 . S
C7274 H7247 0.950 . S
C7274 C7260 1.377 . S
C7274 C7273 1.373 . S
C7275 C7259 1.377 . S
C7275 C7273 1.389 . S
C7275 C7276 1.524 . S
C7276 C7275 1.524 . S
C7276 C7277 1.397 . S
C7276 C7281 1.363 . S
C7277 H7248 0.950 . S
C7277 C7276 1.397 . S
C7277 C7278 1.334 . S
C7278 H7249 0.950 . S
C7278 C7277 1.334 . S
C7278 C7279 1.287 . S
C7279 C7278 1.287 . S
C7279 C7280 1.524 . S
C7279 H7282 0.999 . S
C7280 H7250 0.950 . S
C7280 C7279 1.524 . S
C7280 C7281 1.415 . S
C7281 H7251 0.950 . S
C7281 C7276 1.363 . S
C7281 C7280 1.415 . S
H7282 C7279 0.999 . S
H7283 C7264 0.913 . S
H7284 C7302 0.951 . S
H7285 C7304 0.951 . S
H7286 C7306 0.950 . S
H7287 C7307 0.950 . S
H7288 C7309 0.950 . S
H7289 C7312 0.950 . S
H7290 C7313 0.950 . S
H7291 C7315 0.950 . S
H7292 C7316 0.950 . S
H7293 C7317 0.951 . S
H7294 C7319 0.951 . S
H7295 C7321 0.950 . S
H7296 C7322 0.950 . S
H7297 C7324 0.950 . S
H7298 C7327 0.950 . S
H7299 C7328 0.950 . S
H7300 C7330 0.950 . S
H7301 C7331 0.950 . S
C7302 H7284 0.951 . S
C7302 C7303 1.366 . S
C7302 C7304 1.388 . S
C7303 C7302 1.366 . S
C7303 C7307 1.385 . S
C7304 H7285 0.951 . S
C7304 C7302 1.388 . S
C7304 C7305 1.366 . S
C7305 C7304 1.366 . S
C7305 C7306 1.414 . S
C7305 C7308 1.499 . S
C7306 H7286 0.950 . S
C7306 C7305 1.414 . S
C7306 C7307 1.374 . S
C7307 H7287 0.950 . S
C7307 C7303 1.385 . S
C7307 C7306 1.374 . S
C7308 C7305 1.499 . S
C7308 C7309 1.373 . S
C7308 C7310 1.389 . S
C7309 H7288 0.950 . S
C7309 C7308 1.373 . S
C7309 C7325 1.377 . S
C7310 C7308 1.389 . S
C7310 C7311 1.524 . S
C7310 C7324 1.377 . S
C7311 C7310 1.524 . S
C7311 C7312 1.397 . S
C7311 C7316 1.363 . S
C7312 H7289 0.950 . S
C7312 C7311 1.397 . S
C7312 C7313 1.334 . S
C7313 H7290 0.950 . S
C7313 C7312 1.334 . S
C7313 C7314 1.287 . S
C7314 C7313 1.287 . S
C7314 C7315 1.524 . S
C7314 H7333 0.913 . S
C7315 H7291 0.950 . S
C7315 C7314 1.524 . S
C7315 C7316 1.415 . S
C7316 H7292 0.950 . S
C7316 C7311 1.363 . S
C7316 C7315 1.415 . S
C7317 H7293 0.951 . S
C7317 C7318 1.366 . S
C7317 C7319 1.388 . S
C7318 C7317 1.366 . S
C7318 C7322 1.385 . S
C7319 H7294 0.951 . S
C7319 C7317 1.388 . S
C7319 C7320 1.366 . S
C7320 C7319 1.366 . S
C7320 C7321 1.414 . S
C7320 C7323 1.499 . S
C7321 H7295 0.950 . S
C7321 C7320 1.414 . S
C7321 C7322 1.374 . S
C7322 H7296 0.950 . S
C7322 C7318 1.385 . S
C7322 C7321 1.374 . S
C7323 C7320 1.499 . S
C7323 C7324 1.373 . S
C7323 C7325 1.389 . S
C7324 H7297 0.950 . S
C7324 C7310 1.377 . S
C7324 C7323 1.373 . S
C7325 C7309 1.377 . S
C7325 C7323 1.389 . S
C7325 C7326 1.524 . S
C7326 C7325 1.524 . S
C7326 C7327 1.397 . S
C7326 C7331 1.363 . S
C7327 H7298 0.950 . S
C7327 C7326 1.397 . S
C7327 C7328 1.334 . S
C7328 H7299 0.950 . S
C7328 C7327 1.334 . S
C7328 C7329 1.287 . S
C7329 C7328 1.287 . S
C7329 C7330 1.524 . S
C7329 H7332 0.999 . S
C7330 H7300 0.950 . S
C7330 C7329 1.524 . S
C7330 C7331 1.415 . S
C7331 H7301 0.950 . S
C7331 C7326 1.363 . S
C7331 C7330 1.415 . S
H7332 C7329 0.999 . S
H7333 C7314 0.913 . S
H7334 C7352 0.951 . S
H7335 C7354 0.951 . S
H7336 C7356 0.950 . S
H7337 C7357 0.950 . S
H7338 C7359 0.950 . S
H7339 C7362 0.950 . S
H7340 C7363 0.950 . S
H7341 C7365 0.950 . S
H7342 C7366 0.950 . S
H7343 C7367 0.951 . S
H7344 C7369 0.951 . S
H7345 C7371 0.950 . S
H7346 C7372 0.950 . S
H7347 C7374 0.950 . S
H7348 C7377 0.950 . S
H7349 C7378 0.950 . S
H7350 C7380 0.950 . S
H7351 C7381 0.950 . S
C7352 H7334 0.951 . S
C7352 C7353 1.366 . S
C7352 C7354 1.388 . S
C7353 C7352 1.366 . S
C7353 C7357 1.385 . S
C7354 H7335 0.951 . S
C7354 C7352 1.388 . S
C7354 C7355 1.366 . S
C7355 C7354 1.366 . S
C7355 C7356 1.414 . S
C7355 C7358 1.499 . S
C7356 H7336 0.950 . S
C7356 C7355 1.414 . S
C7356 C7357 1.374 . S
C7357 H7337 0.950 . S
C7357 C7353 1.385 . S
C7357 C7356 1.374 . S
C7358 C7355 1.499 . S
C7358 C7359 1.373 . S
C7358 C7360 1.389 . S
C7359 H7338 0.950 . S
C7359 C7358 1.373 . S
C7359 C7375 1.377 . S
C7360 C7358 1.389 . S
C7360 C7361 1.524 . S
C7360 C7374 1.377 . S
C7361 C7360 1.524 . S
C7361 C7362 1.397 . S
C7361 C7366 1.363 . S
C7362 H7339 0.950 . S
C7362 C7361 1.397 . S
C7362 C7363 1.334 . S
C7363 H7340 0.950 . S
C7363 C7362 1.334 . S
C7363 C7364 1.287 . S
C7364 C7363 1.287 . S
C7364 C7365 1.524 . S
C7364 H7383 0.913 . S
C7365 H7341 0.950 . S
C7365 C7364 1.524 . S
C7365 C7366 1.415 . S
C7366 H7342 0.950 . S
C7366 C7361 1.363 . S
C7366 C7365 1.415 . S
C7367 H7343 0.951 . S
C7367 C7368 1.366 . S
C7367 C7369 1.388 . S
C7368 C7367 1.366 . S
C7368 C7372 1.385 . S
C7369 H7344 0.951 . S
C7369 C7367 1.388 . S
C7369 C7370 1.366 . S
C7370 C7369 1.366 . S
C7370 C7371 1.414 . S
C7370 C7373 1.499 . S
C7371 H7345 0.950 . S
C7371 C7370 1.414 . S
C7371 C7372 1.374 . S
C7372 H7346 0.950 . S
C7372 C7368 1.385 . S
C7372 C7371 1.374 . S
C7373 C7370 1.499 . S
C7373 C7374 1.373 . S
C7373 C7375 1.389 . S
C7374 H7347 0.950 . S
C7374 C7360 1.377 . S
C7374 C7373 1.373 . S
C7375 C7359 1.377 . S
C7375 C7373 1.389 . S
C7375 C7376 1.524 . S
C7376 C7375 1.524 . S
C7376 C7377 1.397 . S
C7376 C7381 1.363 . S
C7377 H7348 0.950 . S
C7377 C7376 1.397 . S
C7377 C7378 1.334 . S
C7378 H7349 0.950 . S
C7378 C7377 1.334 . S
C7378 C7379 1.287 . S
C7379 C7378 1.287 . S
C7379 C7380 1.524 . S
C7379 H7382 0.999 . S
C7380 H7350 0.950 . S
C7380 C7379 1.524 . S
C7380 C7381 1.415 . S
C7381 H7351 0.950 . S
C7381 C7376 1.363 . S
C7381 C7380 1.415 . S
H7382 C7379 0.999 . S
H7383 C7364 0.913 . S
H7384 C7402 0.951 . S
H7385 C7404 0.951 . S
H7386 C7406 0.950 . S
H7387 C7407 0.950 . S
H7388 C7409 0.950 . S
H7389 C7412 0.950 . S
H7390 C7413 0.950 . S
H7391 C7415 0.950 . S
H7392 C7416 0.950 . S
H7393 C7417 0.951 . S
H7394 C7419 0.951 . S
H7395 C7421 0.950 . S
H7396 C7422 0.950 . S
H7397 C7424 0.950 . S
H7398 C7427 0.950 . S
H7399 C7428 0.950 . S
H7400 C7430 0.950 . S
H7401 C7431 0.950 . S
C7402 H7384 0.951 . S
C7402 C7403 1.366 . S
C7402 C7404 1.388 . S
C7403 C7402 1.366 . S
C7403 C7407 1.385 . S
C7404 H7385 0.951 . S
C7404 C7402 1.388 . S
C7404 C7405 1.366 . S
C7405 C7404 1.366 . S
C7405 C7406 1.414 . S
C7405 C7408 1.499 . S
C7406 H7386 0.950 . S
C7406 C7405 1.414 . S
C7406 C7407 1.374 . S
C7407 H7387 0.950 . S
C7407 C7403 1.385 . S
C7407 C7406 1.374 . S
C7408 C7405 1.499 . S
C7408 C7409 1.373 . S
C7408 C7410 1.389 . S
C7409 H7388 0.950 . S
C7409 C7408 1.373 . S
C7409 C7425 1.377 . S
C7410 C7408 1.389 . S
C7410 C7411 1.524 . S
C7410 C7424 1.377 . S
C7411 C7410 1.524 . S
C7411 C7412 1.397 . S
C7411 C7416 1.363 . S
C7412 H7389 0.950 . S
C7412 C7411 1.397 . S
C7412 C7413 1.334 . S
C7413 H7390 0.950 . S
C7413 C7412 1.334 . S
C7413 C7414 1.287 . S
C7414 C7413 1.287 . S
C7414 C7415 1.524 . S
C7414 H7433 0.913 . S
C7415 H7391 0.950 . S
C7415 C7414 1.524 . S
C7415 C7416 1.415 . S
C7416 H7392 0.950 . S
C7416 C7411 1.363 . S
C7416 C7415 1.415 . S
C7417 H7393 0.951 . S
C7417 C7418 1.366 . S
C7417 C7419 1.388 . S
C7418 C7417 1.366 . S
C7418 C7422 1.385 . S
C7419 H7394 0.951 . S
C7419 C7417 1.388 . S
C7419 C7420 1.366 . S
C7420 C7419 1.366 . S
C7420 C7421 1.414 . S
C7420 C7423 1.499 . S
C7421 H7395 0.950 . S
C7421 C7420 1.414 . S
C7421 C7422 1.374 . S
C7422 H7396 0.950 . S
C7422 C7418 1.385 . S
C7422 C7421 1.374 . S
C7423 C7420 1.499 . S
C7423 C7424 1.373 . S
C7423 C7425 1.389 . S
C7424 H7397 0.950 . S
C7424 C7410 1.377 . S
C7424 C7423 1.373 . S
C7425 C7409 1.377 . S
C7425 C7423 1.389 . S
C7425 C7426 1.524 . S
C7426 C7425 1.524 . S
C7426 C7427 1.397 . S
C7426 C7431 1.363 . S
C7427 H7398 0.950 . S
C7427 C7426 1.397 . S
C7427 C7428 1.334 . S
C7428 H7399 0.950 . S
C7428 C7427 1.334 . S
C7428 C7429 1.287 . S
C7429 C7428 1.287 . S
C7429 C7430 1.524 . S
C7429 H7432 0.999 . S
C7430 H7400 0.950 . S
C7430 C7429 1.524 . S
C7430 C7431 1.415 . S
C7431 H7401 0.950 . S
C7431 C7426 1.363 . S
C7431 C7430 1.415 . S
H7432 C7429 0.999 . S
H7433 C7414 0.913 . S
H7434 C7452 0.951 . S
H7435 C7454 0.951 . S
H7436 C7456 0.950 . S
H7437 C7457 0.950 . S
H7438 C7459 0.950 . S
H7439 C7462 0.950 . S
H7440 C7463 0.950 . S
H7441 C7465 0.950 . S
H7442 C7466 0.950 . S
H7443 C7467 0.951 . S
H7444 C7469 0.951 . S
H7445 C7471 0.950 . S
H7446 C7472 0.950 . S
H7447 C7474 0.950 . S
H7448 C7477 0.950 . S
H7449 C7478 0.950 . S
H7450 C7480 0.950 . S
H7451 C7481 0.950 . S
C7452 H7434 0.951 . S
C7452 C7453 1.366 . S
C7452 C7454 1.388 . S
C7453 C7452 1.366 . S
C7453 C7457 1.385 . S
C7454 H7435 0.951 . S
C7454 C7452 1.388 . S
C7454 C7455 1.366 . S
C7455 C7454 1.366 . S
C7455 C7456 1.414 . S
C7455 C7458 1.499 . S
C7456 H7436 0.950 . S
C7456 C7455 1.414 . S
C7456 C7457 1.374 . S
C7457 H7437 0.950 . S
C7457 C7453 1.385 . S
C7457 C7456 1.374 . S
C7458 C7455 1.499 . S
C7458 C7459 1.373 . S
C7458 C7460 1.389 . S
C7459 H7438 0.950 . S
C7459 C7458 1.373 . S
C7459 C7475 1.377 . S
C7460 C7458 1.389 . S
C7460 C7461 1.524 . S
C7460 C7474 1.377 . S
C7461 C7460 1.524 . S
C7461 C7462 1.397 . S
C7461 C7466 1.363 . S
C7462 H7439 0.950 . S
C7462 C7461 1.397 . S
C7462 C7463 1.334 . S
C7463 H7440 0.950 . S
C7463 C7462 1.334 . S
C7463 C7464 1.287 . S
C7464 C7463 1.287 . S
C7464 C7465 1.524 . S
C7464 H7483 0.913 . S
C7465 H7441 0.950 . S
C7465 C7464 1.524 . S
C7465 C7466 1.415 . S
C7466 H7442 0.950 . S
C7466 C7461 1.363 . S
C7466 C7465 1.415 . S
C7467 H7443 0.951 . S
C7467 C7468 1.366 . S
C7467 C7469 1.388 . S
C7468 C7467 1.366 . S
C7468 C7472 1.385 . S
C7469 H7444 0.951 . S
C7469 C7467 1.388 . S
C7469 C7470 1.366 . S
C7470 C7469 1.366 . S
C7470 C7471 1.414 . S
C7470 C7473 1.499 . S
C7471 H7445 0.950 . S
C7471 C7470 1.414 . S
C7471 C7472 1.374 . S
C7472 H7446 0.950 . S
C7472 C7468 1.385 . S
C7472 C7471 1.374 . S
C7473 C7470 1.499 . S
C7473 C7474 1.373 . S
C7473 C7475 1.389 . S
C7474 H7447 0.950 . S
C7474 C7460 1.377 . S
C7474 C7473 1.373 . S
C7475 C7459 1.377 . S
C7475 C7473 1.389 . S
C7475 C7476 1.524 . S
C7476 C7475 1.524 . S
C7476 C7477 1.397 . S
C7476 C7481 1.363 . S
C7477 H7448 0.950 . S
C7477 C7476 1.397 . S
C7477 C7478 1.334 . S
C7478 H7449 0.950 . S
C7478 C7477 1.334 . S
C7478 C7479 1.287 . S
C7479 C7478 1.287 . S
C7479 C7480 1.524 . S
C7479 H7482 0.999 . S
C7480 H7450 0.950 . S
C7480 C7479 1.524 . S
C7480 C7481 1.415 . S
C7481 H7451 0.950 . S
C7481 C7476 1.363 . S
C7481 C7480 1.415 . S
H7482 C7479 0.999 . S
H7483 C7464 0.913 . S
H7484 C7502 0.951 . S
H7485 C7504 0.951 . S
H7486 C7506 0.950 . S
H7487 C7507 0.950 . S
H7488 C7509 0.950 . S
H7489 C7512 0.950 . S
H7490 C7513 0.950 . S
H7491 C7515 0.950 . S
H7492 C7516 0.950 . S
H7493 C7517 0.951 . S
H7494 C7519 0.951 . S
H7495 C7521 0.950 . S
H7496 C7522 0.950 . S
H7497 C7524 0.950 . S
H7498 C7527 0.950 . S
H7499 C7528 0.950 . S
H7500 C7530 0.950 . S
H7501 C7531 0.950 . S
C7502 H7484 0.951 . S
C7502 C7503 1.366 . S
C7502 C7504 1.388 . S
C7503 C7502 1.366 . S
C7503 C7507 1.385 . S
C7504 H7485 0.951 . S
C7504 C7502 1.388 . S
C7504 C7505 1.366 . S
C7505 C7504 1.366 . S
C7505 C7506 1.414 . S
C7505 C7508 1.499 1_545 S
C7506 H7486 0.950 . S
C7506 C7505 1.414 . S
C7506 C7507 1.374 . S
C7507 H7487 0.950 . S
C7507 C7503 1.385 . S
C7507 C7506 1.374 . S
C7508 C7505 1.499 1_565 S
C7508 C7509 1.373 . S
C7508 C7510 1.389 . S
C7509 H7488 0.950 . S
C7509 C7508 1.373 . S
C7509 C7525 1.377 . S
C7510 C7508 1.389 . S
C7510 C7511 1.524 . S
C7510 C7524 1.377 . S
C7511 C7510 1.524 . S
C7511 C7512 1.397 1_565 S
C7511 C7516 1.363 . S
C7512 H7489 0.950 . S
C7512 C7511 1.397 1_545 S
C7512 C7513 1.334 . S
C7513 H7490 0.950 . S
C7513 C7512 1.334 . S
C7513 C7514 1.287 . S
C7514 C7513 1.287 . S
C7514 C7515 1.524 1_545 S
C7514 H7533 0.913 . S
C7515 H7491 0.950 . S
C7515 C7514 1.524 1_565 S
C7515 C7516 1.415 . S
C7516 H7492 0.950 . S
C7516 C7511 1.363 . S
C7516 C7515 1.415 . S
C7517 H7493 0.951 . S
C7517 C7518 1.366 . S
C7517 C7519 1.388 . S
C7518 C7517 1.366 . S
C7518 C7522 1.385 . S
C7519 H7494 0.951 . S
C7519 C7517 1.388 . S
C7519 C7520 1.366 . S
C7520 C7519 1.366 . S
C7520 C7521 1.414 . S
C7520 C7523 1.499 . S
C7521 H7495 0.950 . S
C7521 C7520 1.414 . S
C7521 C7522 1.374 . S
C7522 H7496 0.950 . S
C7522 C7518 1.385 . S
C7522 C7521 1.374 . S
C7523 C7520 1.499 . S
C7523 C7524 1.373 . S
C7523 C7525 1.389 . S
C7524 H7497 0.950 . S
C7524 C7510 1.377 . S
C7524 C7523 1.373 . S
C7525 C7509 1.377 . S
C7525 C7523 1.389 . S
C7525 C7526 1.524 . S
C7526 C7525 1.524 . S
C7526 C7527 1.397 . S
C7526 C7531 1.363 . S
C7527 H7498 0.950 . S
C7527 C7526 1.397 . S
C7527 C7528 1.334 . S
C7528 H7499 0.950 . S
C7528 C7527 1.334 . S
C7528 C7529 1.287 . S
C7529 C7528 1.287 . S
C7529 C7530 1.524 . S
C7529 H7532 0.999 . S
C7530 H7500 0.950 . S
C7530 C7529 1.524 . S
C7530 C7531 1.415 . S
C7531 H7501 0.950 . S
C7531 C7526 1.363 . S
C7531 C7530 1.415 . S
H7532 C7529 0.999 . S
H7533 C7514 0.913 . S
H7534 C7552 0.951 . S
H7535 C7554 0.951 . S
H7536 C7556 0.950 . S
H7537 C7557 0.950 . S
H7538 C7559 0.950 . S
H7539 C7562 0.950 . S
H7540 C7563 0.950 . S
H7541 C7565 0.950 . S
H7542 C7566 0.950 . S
H7543 C7567 0.951 . S
H7544 C7569 0.951 . S
H7545 C7571 0.950 . S
H7546 C7572 0.950 . S
H7547 C7574 0.950 . S
H7548 C7577 0.950 . S
H7549 C7578 0.950 . S
H7550 C7580 0.950 . S
H7551 C7581 0.950 . S
C7552 H7534 0.951 . S
C7552 C7553 1.366 . S
C7552 C7554 1.388 . S
C7553 C7552 1.366 . S
C7553 C7557 1.385 . S
C7554 H7535 0.951 . S
C7554 C7552 1.388 . S
C7554 C7555 1.366 . S
C7555 C7554 1.366 . S
C7555 C7556 1.414 . S
C7555 C7558 1.499 . S
C7556 H7536 0.950 . S
C7556 C7555 1.414 . S
C7556 C7557 1.374 . S
C7557 H7537 0.950 . S
C7557 C7553 1.385 . S
C7557 C7556 1.374 . S
C7558 C7555 1.499 . S
C7558 C7559 1.373 . S
C7558 C7560 1.389 . S
C7559 H7538 0.950 . S
C7559 C7558 1.373 . S
C7559 C7575 1.410 . S
C7560 C7558 1.389 . S
C7560 C7561 1.524 . S
C7560 C7574 1.377 . S
C7561 C7560 1.524 . S
C7561 C7562 1.397 . S
C7561 C7566 1.363 . S
C7562 H7539 0.950 . S
C7562 C7561 1.397 . S
C7562 C7563 1.334 . S
C7563 H7540 0.950 . S
C7563 C7562 1.334 . S
C7563 C7564 1.287 . S
C7564 C7563 1.287 . S
C7564 C7565 1.524 . S
C7564 H7583 0.913 . S
C7565 H7541 0.950 . S
C7565 C7564 1.524 . S
C7565 C7566 1.415 . S
C7566 H7542 0.950 . S
C7566 C7561 1.363 . S
C7566 C7565 1.415 . S
C7567 H7543 0.951 . S
C7567 C7568 1.366 . S
C7567 C7569 1.388 . S
C7568 C7567 1.366 . S
C7568 C7572 1.385 . S
C7569 H7544 0.951 . S
C7569 C7567 1.388 . S
C7569 C7570 1.366 . S
C7570 C7569 1.366 . S
C7570 C7571 1.414 . S
C7570 C7573 1.499 . S
C7571 H7545 0.950 . S
C7571 C7570 1.414 . S
C7571 C7572 1.374 . S
C7572 H7546 0.950 . S
C7572 C7568 1.385 . S
C7572 C7571 1.374 . S
C7573 C7570 1.499 . S
C7573 C7574 1.373 1_455 S
C7573 C7575 1.377 1_455 S
C7574 H7547 0.950 . S
C7574 C7560 1.377 . S
C7574 C7573 1.373 1_655 S
C7575 C7559 1.410 . S
C7575 C7573 1.377 1_655 S
C7575 C7576 1.506 1_655 S
C7576 C7575 1.506 1_455 S
C7576 C7577 1.397 . S
C7576 C7581 1.363 . S
C7577 H7548 0.950 . S
C7577 C7576 1.397 . S
C7577 C7578 1.334 . S
C7578 H7549 0.950 . S
C7578 C7577 1.334 . S
C7578 C7579 1.287 . S
C7579 C7578 1.287 . S
C7579 C7580 1.524 . S
C7579 H7582 0.999 . S
C7580 H7550 0.950 . S
C7580 C7579 1.524 . S
C7580 C7581 1.415 . S
C7581 H7551 0.950 . S
C7581 C7576 1.363 . S
C7581 C7580 1.415 . S
H7582 C7579 0.999 . S
H7583 C7564 0.913 . S
H7584 C7602 0.951 . S
H7585 C7604 0.951 . S
H7586 C7606 0.950 . S
H7587 C7607 0.950 . S
H7588 C7609 0.950 . S
H7589 C7612 0.950 . S
H7590 C7613 0.950 . S
H7591 C7615 0.950 . S
H7592 C7616 0.950 . S
H7593 C7617 0.951 . S
H7594 C7619 0.951 . S
H7595 C7621 0.950 . S
H7596 C7622 0.950 . S
H7597 C7624 0.950 . S
H7598 C7627 0.950 . S
H7599 C7628 0.950 . S
H7600 C7630 0.950 . S
H7601 C7631 0.950 . S
C7602 H7584 0.951 . S
C7602 C7603 1.366 . S
C7602 C7604 1.388 . S
C7603 C7602 1.366 . S
C7603 C7607 1.385 . S
C7604 H7585 0.951 . S
C7604 C7602 1.388 . S
C7604 C7605 1.366 . S
C7605 C7604 1.366 . S
C7605 C7606 1.414 . S
C7605 C7608 1.499 . S
C7606 H7586 0.950 . S
C7606 C7605 1.414 . S
C7606 C7607 1.374 . S
C7607 H7587 0.950 . S
C7607 C7603 1.385 . S
C7607 C7606 1.374 . S
C7608 C7605 1.499 . S
C7608 C7609 1.373 . S
C7608 C7610 1.389 . S
C7609 H7588 0.950 . S
C7609 C7608 1.373 . S
C7609 C7625 1.377 . S
C7610 C7608 1.389 . S
C7610 C7611 1.524 . S
C7610 C7624 1.377 . S
C7611 C7610 1.524 . S
C7611 C7612 1.397 . S
C7611 C7616 1.363 . S
C7612 H7589 0.950 . S
C7612 C7611 1.397 . S
C7612 C7613 1.334 . S
C7613 H7590 0.950 . S
C7613 C7612 1.334 . S
C7613 C7614 1.287 . S
C7614 C7613 1.287 . S
C7614 C7615 1.524 . S
C7614 H7633 0.913 . S
C7615 H7591 0.950 . S
C7615 C7614 1.524 . S
C7615 C7616 1.415 . S
C7616 H7592 0.950 . S
C7616 C7611 1.363 . S
C7616 C7615 1.415 . S
C7617 H7593 0.951 . S
C7617 C7618 1.366 . S
C7617 C7619 1.388 . S
C7618 C7617 1.366 . S
C7618 C7622 1.385 . S
C7619 H7594 0.951 . S
C7619 C7617 1.388 . S
C7619 C7620 1.366 . S
C7620 C7619 1.366 . S
C7620 C7621 1.414 . S
C7620 C7623 1.499 . S
C7621 H7595 0.950 . S
C7621 C7620 1.414 . S
C7621 C7622 1.374 . S
C7622 H7596 0.950 . S
C7622 C7618 1.385 . S
C7622 C7621 1.374 . S
C7623 C7620 1.499 . S
C7623 C7624 1.373 . S
C7623 C7625 1.389 . S
C7624 H7597 0.950 . S
C7624 C7610 1.377 . S
C7624 C7623 1.373 . S
C7625 C7609 1.377 . S
C7625 C7623 1.389 . S
C7625 C7626 1.524 . S
C7626 C7625 1.524 . S
C7626 C7627 1.397 . S
C7626 C7631 1.363 . S
C7627 H7598 0.950 . S
C7627 C7626 1.397 . S
C7627 C7628 1.334 . S
C7628 H7599 0.950 . S
C7628 C7627 1.334 . S
C7628 C7629 1.287 . S
C7629 C7628 1.287 . S
C7629 C7630 1.524 . S
C7629 H7632 0.999 . S
C7630 H7600 0.950 . S
C7630 C7629 1.524 . S
C7630 C7631 1.415 . S
C7631 H7601 0.950 . S
C7631 C7626 1.363 . S
C7631 C7630 1.415 . S
H7632 C7629 0.999 . S
H7633 C7614 0.913 . S
H7634 C7652 0.951 . S
H7635 C7654 0.951 . S
H7636 C7656 0.950 . S
H7637 C7657 0.950 . S
H7638 C7659 0.950 . S
H7639 C7662 0.950 . S
H7640 C7663 0.950 . S
H7641 C7665 0.950 . S
H7642 C7666 0.950 . S
H7643 C7667 0.951 . S
H7644 C7669 0.951 . S
H7645 C7671 0.950 . S
H7646 C7672 0.950 . S
H7647 C7674 0.950 . S
H7648 C7677 0.950 . S
H7649 C7678 0.950 . S
H7650 C7680 0.950 . S
H7651 C7681 0.950 . S
C7652 H7634 0.951 . S
C7652 C7653 1.366 . S
C7652 C7654 1.388 . S
C7653 C7652 1.366 . S
C7653 C7657 1.385 . S
C7654 H7635 0.951 . S
C7654 C7652 1.388 . S
C7654 C7655 1.366 . S
C7655 C7654 1.366 . S
C7655 C7656 1.414 . S
C7655 C7658 1.499 . S
C7656 H7636 0.950 . S
C7656 C7655 1.414 . S
C7656 C7657 1.374 . S
C7657 H7637 0.950 . S
C7657 C7653 1.385 . S
C7657 C7656 1.374 . S
C7658 C7655 1.499 . S
C7658 C7659 1.373 . S
C7658 C7660 1.389 . S
C7659 H7638 0.950 . S
C7659 C7658 1.373 . S
C7659 C7675 1.377 . S
C7660 C7658 1.389 . S
C7660 C7661 1.524 . S
C7660 C7674 1.377 . S
C7661 C7660 1.524 . S
C7661 C7662 1.397 . S
C7661 C7666 1.363 . S
C7662 H7639 0.950 . S
C7662 C7661 1.397 . S
C7662 C7663 1.334 . S
C7663 H7640 0.950 . S
C7663 C7662 1.334 . S
C7663 C7664 1.287 . S
C7664 C7663 1.287 . S
C7664 C7665 1.524 . S
C7664 H7683 0.913 . S
C7665 H7641 0.950 . S
C7665 C7664 1.524 . S
C7665 C7666 1.415 . S
C7666 H7642 0.950 . S
C7666 C7661 1.363 . S
C7666 C7665 1.415 . S
C7667 H7643 0.951 . S
C7667 C7668 1.366 . S
C7667 C7669 1.388 . S
C7668 C7667 1.366 . S
C7668 C7672 1.385 . S
C7669 H7644 0.951 . S
C7669 C7667 1.388 . S
C7669 C7670 1.366 . S
C7670 C7669 1.366 . S
C7670 C7671 1.414 . S
C7670 C7673 1.499 . S
C7671 H7645 0.950 . S
C7671 C7670 1.414 . S
C7671 C7672 1.374 . S
C7672 H7646 0.950 . S
C7672 C7668 1.385 . S
C7672 C7671 1.374 . S
C7673 C7670 1.499 . S
C7673 C7674 1.373 . S
C7673 C7675 1.389 . S
C7674 H7647 0.950 . S
C7674 C7660 1.377 . S
C7674 C7673 1.373 . S
C7675 C7659 1.377 . S
C7675 C7673 1.389 . S
C7675 C7676 1.524 . S
C7676 C7675 1.524 . S
C7676 C7677 1.397 . S
C7676 C7681 1.363 . S
C7677 H7648 0.950 . S
C7677 C7676 1.397 . S
C7677 C7678 1.334 . S
C7678 H7649 0.950 . S
C7678 C7677 1.334 . S
C7678 C7679 1.287 . S
C7679 C7678 1.287 . S
C7679 C7680 1.524 . S
C7679 H7682 0.999 . S
C7680 H7650 0.950 . S
C7680 C7679 1.524 . S
C7680 C7681 1.415 . S
C7681 H7651 0.950 . S
C7681 C7676 1.363 . S
C7681 C7680 1.415 . S
H7682 C7679 0.999 . S
H7683 C7664 0.913 . S
H7684 C7702 0.951 . S
H7685 C7704 0.951 . S
H7686 C7706 0.950 . S
H7687 C7707 0.950 . S
H7688 C7709 0.950 . S
H7689 C7712 0.950 . S
H7690 C7713 0.950 . S
H7691 C7715 0.950 . S
H7692 C7716 0.950 . S
H7693 C7717 0.951 . S
H7694 C7719 0.951 . S
H7695 C7721 0.950 . S
H7696 C7722 0.950 . S
H7697 C7724 0.950 . S
H7698 C7727 0.950 . S
H7699 C7728 0.950 . S
H7700 C7730 0.950 . S
H7701 C7731 0.950 . S
C7702 H7684 0.951 . S
C7702 C7703 1.366 . S
C7702 C7704 1.388 . S
C7703 C7702 1.366 . S
C7703 C7707 1.385 . S
C7704 H7685 0.951 . S
C7704 C7702 1.388 . S
C7704 C7705 1.366 . S
C7705 C7704 1.366 . S
C7705 C7706 1.414 . S
C7705 C7708 1.499 . S
C7706 H7686 0.950 . S
C7706 C7705 1.414 . S
C7706 C7707 1.374 . S
C7707 H7687 0.950 . S
C7707 C7703 1.385 . S
C7707 C7706 1.374 . S
C7708 C7705 1.499 . S
C7708 C7709 1.373 . S
C7708 C7710 1.389 . S
C7709 H7688 0.950 . S
C7709 C7708 1.373 . S
C7709 C7725 1.377 . S
C7710 C7708 1.389 . S
C7710 C7711 1.524 . S
C7710 C7724 1.377 . S
C7711 C7710 1.524 . S
C7711 C7712 1.397 . S
C7711 C7716 1.363 . S
C7712 H7689 0.950 . S
C7712 C7711 1.397 . S
C7712 C7713 1.334 . S
C7713 H7690 0.950 . S
C7713 C7712 1.334 . S
C7713 C7714 1.287 . S
C7714 C7713 1.287 . S
C7714 C7715 1.524 . S
C7714 H7733 0.913 . S
C7715 H7691 0.950 . S
C7715 C7714 1.524 . S
C7715 C7716 1.415 . S
C7716 H7692 0.950 . S
C7716 C7711 1.363 . S
C7716 C7715 1.415 . S
C7717 H7693 0.951 . S
C7717 C7718 1.366 . S
C7717 C7719 1.388 . S
C7718 C7717 1.366 . S
C7718 C7722 1.385 . S
C7719 H7694 0.951 . S
C7719 C7717 1.388 . S
C7719 C7720 1.366 . S
C7720 C7719 1.366 . S
C7720 C7721 1.414 . S
C7720 C7723 1.499 . S
C7721 H7695 0.950 . S
C7721 C7720 1.414 . S
C7721 C7722 1.374 . S
C7722 H7696 0.950 . S
C7722 C7718 1.385 . S
C7722 C7721 1.374 . S
C7723 C7720 1.499 . S
C7723 C7724 1.373 . S
C7723 C7725 1.389 . S
C7724 H7697 0.950 . S
C7724 C7710 1.377 . S
C7724 C7723 1.373 . S
C7725 C7709 1.377 . S
C7725 C7723 1.389 . S
C7725 C7726 1.524 . S
C7726 C7725 1.524 . S
C7726 C7727 1.397 . S
C7726 C7731 1.363 . S
C7727 H7698 0.950 . S
C7727 C7726 1.397 . S
C7727 C7728 1.334 . S
C7728 H7699 0.950 . S
C7728 C7727 1.334 . S
C7728 C7729 1.287 . S
C7729 C7728 1.287 . S
C7729 C7730 1.524 . S
C7729 H7732 0.999 . S
C7730 H7700 0.950 . S
C7730 C7729 1.524 . S
C7730 C7731 1.415 . S
C7731 H7701 0.950 . S
C7731 C7726 1.363 . S
C7731 C7730 1.415 . S
H7732 C7729 0.999 . S
H7733 C7714 0.913 . S
H7734 C7752 0.951 . S
H7735 C7754 0.951 . S
H7736 C7756 0.950 . S
H7737 C7757 0.950 . S
H7738 C7759 0.950 . S
H7739 C7762 0.950 . S
H7740 C7763 0.950 . S
H7741 C7765 0.950 . S
H7742 C7766 0.950 . S
H7743 C7767 0.951 . S
H7744 C7769 0.951 . S
H7745 C7771 0.950 . S
H7746 C7772 0.950 . S
H7747 C7774 0.950 . S
H7748 C7777 0.950 . S
H7749 C7778 0.950 . S
H7750 C7780 0.950 . S
H7751 C7781 0.950 . S
C7752 H7734 0.951 . S
C7752 C7753 1.366 . S
C7752 C7754 1.388 . S
C7753 C7752 1.366 . S
C7753 C7757 1.385 . S
C7754 H7735 0.951 . S
C7754 C7752 1.388 . S
C7754 C7755 1.366 . S
C7755 C7754 1.366 . S
C7755 C7756 1.414 . S
C7755 C7758 1.499 . S
C7756 H7736 0.950 . S
C7756 C7755 1.414 . S
C7756 C7757 1.374 . S
C7757 H7737 0.950 . S
C7757 C7753 1.385 . S
C7757 C7756 1.374 . S
C7758 C7755 1.499 . S
C7758 C7759 1.373 . S
C7758 C7760 1.389 . S
C7759 H7738 0.950 . S
C7759 C7758 1.373 . S
C7759 C7775 1.377 . S
C7760 C7758 1.389 . S
C7760 C7761 1.524 . S
C7760 C7774 1.377 . S
C7761 C7760 1.524 . S
C7761 C7762 1.397 . S
C7761 C7766 1.363 . S
C7762 H7739 0.950 . S
C7762 C7761 1.397 . S
C7762 C7763 1.334 . S
C7763 H7740 0.950 . S
C7763 C7762 1.334 . S
C7763 C7764 1.287 . S
C7764 C7763 1.287 . S
C7764 C7765 1.524 . S
C7764 H7783 0.913 . S
C7765 H7741 0.950 . S
C7765 C7764 1.524 . S
C7765 C7766 1.415 . S
C7766 H7742 0.950 . S
C7766 C7761 1.363 . S
C7766 C7765 1.415 . S
C7767 H7743 0.951 . S
C7767 C7768 1.366 . S
C7767 C7769 1.388 . S
C7768 C7767 1.366 . S
C7768 C7772 1.385 . S
C7769 H7744 0.951 . S
C7769 C7767 1.388 . S
C7769 C7770 1.366 . S
C7770 C7769 1.366 . S
C7770 C7771 1.414 . S
C7770 C7773 1.499 . S
C7771 H7745 0.950 . S
C7771 C7770 1.414 . S
C7771 C7772 1.374 . S
C7772 H7746 0.950 . S
C7772 C7768 1.385 . S
C7772 C7771 1.374 . S
C7773 C7770 1.499 . S
C7773 C7774 1.373 . S
C7773 C7775 1.389 . S
C7774 H7747 0.950 . S
C7774 C7760 1.377 . S
C7774 C7773 1.373 . S
C7775 C7759 1.377 . S
C7775 C7773 1.389 . S
C7775 C7776 1.524 . S
C7776 C7775 1.524 . S
C7776 C7777 1.397 . S
C7776 C7781 1.363 . S
C7777 H7748 0.950 . S
C7777 C7776 1.397 . S
C7777 C7778 1.334 . S
C7778 H7749 0.950 . S
C7778 C7777 1.334 . S
C7778 C7779 1.287 . S
C7779 C7778 1.287 . S
C7779 C7780 1.524 . S
C7779 H7782 0.999 . S
C7780 H7750 0.950 . S
C7780 C7779 1.524 . S
C7780 C7781 1.415 . S
C7781 H7751 0.950 . S
C7781 C7776 1.363 . S
C7781 C7780 1.415 . S
H7782 C7779 0.999 . S
H7783 C7764 0.913 . S
H7784 C7802 0.951 . S
H7785 C7804 0.951 . S
H7786 C7806 0.950 . S
H7787 C7807 0.950 . S
H7788 C7809 0.950 . S
H7789 C7812 0.950 . S
H7790 C7813 0.950 . S
H7791 C7815 0.950 . S
H7792 C7816 0.950 . S
H7793 C7817 0.951 . S
H7794 C7819 0.951 . S
H7795 C7821 0.950 . S
H7796 C7822 0.950 . S
H7797 C7824 0.950 . S
H7798 C7827 0.950 . S
H7799 C7828 0.950 . S
H7800 C7830 0.950 . S
H7801 C7831 0.950 . S
C7802 H7784 0.951 . S
C7802 C7803 1.366 . S
C7802 C7804 1.388 . S
C7803 C7802 1.366 . S
C7803 C7807 1.385 . S
C7804 H7785 0.951 . S
C7804 C7802 1.388 . S
C7804 C7805 1.366 . S
C7805 C7804 1.366 . S
C7805 C7806 1.414 . S
C7805 C7808 1.499 . S
C7806 H7786 0.950 . S
C7806 C7805 1.414 . S
C7806 C7807 1.374 . S
C7807 H7787 0.950 . S
C7807 C7803 1.385 . S
C7807 C7806 1.374 . S
C7808 C7805 1.499 . S
C7808 C7809 1.373 1_565 S
C7808 C7810 1.389 . S
C7809 H7788 0.950 . S
C7809 C7808 1.373 1_545 S
C7809 C7825 1.377 . S
C7810 C7808 1.389 . S
C7810 C7811 1.524 . S
C7810 C7824 1.377 1_565 S
C7811 C7810 1.524 . S
C7811 C7812 1.397 . S
C7811 C7816 1.363 . S
C7812 H7789 0.950 . S
C7812 C7811 1.397 . S
C7812 C7813 1.334 . S
C7813 H7790 0.950 . S
C7813 C7812 1.334 . S
C7813 C7814 1.287 . S
C7814 C7813 1.287 . S
C7814 C7815 1.524 . S
C7814 H7833 0.913 . S
C7815 H7791 0.950 . S
C7815 C7814 1.524 . S
C7815 C7816 1.415 . S
C7816 H7792 0.950 . S
C7816 C7811 1.363 . S
C7816 C7815 1.415 . S
C7817 H7793 0.951 . S
C7817 C7818 1.366 . S
C7817 C7819 1.388 . S
C7818 C7817 1.366 . S
C7818 C7822 1.385 . S
C7819 H7794 0.951 . S
C7819 C7817 1.388 . S
C7819 C7820 1.366 . S
C7820 C7819 1.366 . S
C7820 C7821 1.414 . S
C7820 C7823 1.499 . S
C7821 H7795 0.950 . S
C7821 C7820 1.414 . S
C7821 C7822 1.374 . S
C7822 H7796 0.950 . S
C7822 C7818 1.385 . S
C7822 C7821 1.374 . S
C7823 C7820 1.499 . S
C7823 C7824 1.373 . S
C7823 C7825 1.389 . S
C7824 H7797 0.950 . S
C7824 C7810 1.377 1_545 S
C7824 C7823 1.373 . S
C7825 C7809 1.377 . S
C7825 C7823 1.389 . S
C7825 C7826 1.524 . S
C7826 C7825 1.524 . S
C7826 C7827 1.397 . S
C7826 C7831 1.363 . S
C7827 H7798 0.950 . S
C7827 C7826 1.397 . S
C7827 C7828 1.334 . S
C7828 H7799 0.950 . S
C7828 C7827 1.334 . S
C7828 C7829 1.287 . S
C7829 C7828 1.287 . S
C7829 C7830 1.524 . S
C7829 H7832 0.999 . S
C7830 H7800 0.950 . S
C7830 C7829 1.524 . S
C7830 C7831 1.415 . S
C7831 H7801 0.950 . S
C7831 C7826 1.363 . S
C7831 C7830 1.415 . S
H7832 C7829 0.999 . S
H7833 C7814 0.913 . S
H7834 C7852 0.951 . S
H7835 C7854 0.951 . S
H7836 C7856 0.950 . S
H7837 C7857 0.950 . S
H7838 C7859 0.950 . S
H7839 C7862 0.950 . S
H7840 C7863 0.950 . S
H7841 C7865 0.950 . S
H7842 C7866 0.950 . S
H7843 C7867 0.951 . S
H7844 C7869 0.951 . S
H7845 C7871 0.950 . S
H7846 C7872 0.950 . S
H7847 C7874 0.950 . S
H7848 C7877 0.950 . S
H7849 C7878 0.950 . S
H7850 C7880 0.950 . S
H7851 C7881 0.950 1_455 S
C7852 H7834 0.951 . S
C7852 C7853 1.366 . S
C7852 C7854 1.388 . S
C7853 C7852 1.366 . S
C7853 C7857 1.385 . S
C7854 H7835 0.951 . S
C7854 C7852 1.388 . S
C7854 C7855 1.366 . S
C7855 C7854 1.366 . S
C7855 C7856 1.414 . S
C7855 C7858 1.499 . S
C7856 H7836 0.950 . S
C7856 C7855 1.414 . S
C7856 C7857 1.374 . S
C7857 H7837 0.950 . S
C7857 C7853 1.385 . S
C7857 C7856 1.374 . S
C7858 C7855 1.499 . S
C7858 C7859 1.373 . S
C7858 C7860 1.389 . S
C7859 H7838 0.950 . S
C7859 C7858 1.373 . S
C7859 C7875 1.377 . S
C7860 C7858 1.389 . S
C7860 C7861 1.524 . S
C7860 C7874 1.377 . S
C7861 C7860 1.524 . S
C7861 C7862 1.397 . S
C7861 C7866 1.363 . S
C7862 H7839 0.950 . S
C7862 C7861 1.397 . S
C7862 C7863 1.334 . S
C7863 H7840 0.950 . S
C7863 C7862 1.334 . S
C7863 C7864 1.287 . S
C7864 C7863 1.287 . S
C7864 C7865 1.524 . S
C7864 H7883 0.913 . S
C7865 H7841 0.950 . S
C7865 C7864 1.524 . S
C7865 C7866 1.415 . S
C7866 H7842 0.950 . S
C7866 C7861 1.363 . S
C7866 C7865 1.415 . S
C7867 H7843 0.951 . S
C7867 C7868 1.366 . S
C7867 C7869 1.388 . S
C7868 C7867 1.366 . S
C7868 C7872 1.385 . S
C7869 H7844 0.951 . S
C7869 C7867 1.388 . S
C7869 C7870 1.366 . S
C7870 C7869 1.366 . S
C7870 C7871 1.414 . S
C7870 C7873 1.503 . S
C7871 H7845 0.950 . S
C7871 C7870 1.414 . S
C7871 C7872 1.374 . S
C7872 H7846 0.950 . S
C7872 C7868 1.385 . S
C7872 C7871 1.374 . S
C7873 C7870 1.503 . S
C7873 C7874 1.371 1_655 S
C7873 C7875 1.387 1_655 S
C7874 H7847 0.950 . S
C7874 C7860 1.377 . S
C7874 C7873 1.371 1_455 S
C7875 C7859 1.377 . S
C7875 C7873 1.387 1_455 S
C7875 C7876 1.524 1_455 S
C7876 C7875 1.524 1_655 S
C7876 C7877 1.397 . S
C7876 C7881 1.363 . S
C7877 H7848 0.950 . S
C7877 C7876 1.397 . S
C7877 C7878 1.334 . S
C7878 H7849 0.950 . S
C7878 C7877 1.334 . S
C7878 C7879 1.287 . S
C7879 C7878 1.287 . S
C7879 C7880 1.524 . S
C7879 H7882 0.999 . S
C7880 H7850 0.950 . S
C7880 C7879 1.524 . S
C7880 C7881 1.415 . S
C7881 H7851 0.950 1_655 S
C7881 C7876 1.363 . S
C7881 C7880 1.415 . S
H7882 C7879 0.999 . S
H7883 C7864 0.913 . S
H7884 C7902 0.951 . S
H7885 C7904 0.951 . S
H7886 C7906 0.950 . S
H7887 C7907 0.950 . S
H7888 C7909 0.949 1_554 S
H7889 C7912 0.950 . S
H7890 C7913 0.950 . S
H7891 C7915 0.950 . S
H7892 C7916 0.950 . S
H7893 C7917 0.951 . S
H7894 C7919 0.951 . S
H7895 C7921 0.950 . S
H7896 C7922 0.950 . S
H7897 C7924 0.950 . S
H7898 C7927 0.950 . S
H7899 C7928 0.950 . S
H7900 C7930 0.950 . S
H7901 C7931 0.950 . S
C7902 H7884 0.951 . S
C7902 C7903 1.366 . S
C7902 C7904 1.388 . S
C7903 C7902 1.366 . S
C7903 C7907 1.385 . S
C7904 H7885 0.951 . S
C7904 C7902 1.388 . S
C7904 C7905 1.366 . S
C7905 C7904 1.366 . S
C7905 C7906 1.414 . S
C7905 C7908 1.499 . S
C7906 H7886 0.950 . S
C7906 C7905 1.414 . S
C7906 C7907 1.374 . S
C7907 H7887 0.950 . S
C7907 C7903 1.385 . S
C7907 C7906 1.374 . S
C7908 C7905 1.499 . S
C7908 C7909 1.373 1_554 S
C7908 C7910 1.389 . S
C7909 H7888 0.949 1_556 S
C7909 C7908 1.373 1_556 S
C7909 C7925 1.377 . S
C7910 C7908 1.389 . S
C7910 C7911 1.524 . S
C7910 C7924 1.377 1_554 S
C7911 C7910 1.524 . S
C7911 C7912 1.397 . S
C7911 C7916 1.363 . S
C7912 H7889 0.950 . S
C7912 C7911 1.397 . S
C7912 C7913 1.334 . S
C7913 H7890 0.950 . S
C7913 C7912 1.334 . S
C7913 C7914 1.287 . S
C7914 C7913 1.287 . S
C7914 C7915 1.524 . S
C7914 H7933 0.913 . S
C7915 H7891 0.950 . S
C7915 C7914 1.524 . S
C7915 C7916 1.415 . S
C7916 H7892 0.950 . S
C7916 C7911 1.363 . S
C7916 C7915 1.415 . S
C7917 H7893 0.951 . S
C7917 C7918 1.366 . S
C7917 C7919 1.388 . S
C7918 C7917 1.366 . S
C7918 C7922 1.385 . S
C7919 H7894 0.951 . S
C7919 C7917 1.388 . S
C7919 C7920 1.366 . S
C7920 C7919 1.366 . S
C7920 C7921 1.414 . S
C7920 C7923 1.499 . S
C7921 H7895 0.950 . S
C7921 C7920 1.414 . S
C7921 C7922 1.374 . S
C7922 H7896 0.950 . S
C7922 C7918 1.385 . S
C7922 C7921 1.374 . S
C7923 C7920 1.499 . S
C7923 C7924 1.373 . S
C7923 C7925 1.389 . S
C7924 H7897 0.950 . S
C7924 C7910 1.377 1_556 S
C7924 C7923 1.373 . S
C7925 C7909 1.377 . S
C7925 C7923 1.389 . S
C7925 C7926 1.524 . S
C7926 C7925 1.524 . S
C7926 C7927 1.397 . S
C7926 C7931 1.363 . S
C7927 H7898 0.950 . S
C7927 C7926 1.397 . S
C7927 C7928 1.334 . S
C7928 H7899 0.950 . S
C7928 C7927 1.334 . S
C7928 C7929 1.287 . S
C7929 C7928 1.287 . S
C7929 C7930 1.524 . S
C7929 H7932 0.999 . S
C7930 H7900 0.950 . S
C7930 C7929 1.524 . S
C7930 C7931 1.415 . S
C7931 H7901 0.950 . S
C7931 C7926 1.363 . S
C7931 C7930 1.415 . S
H7932 C7929 0.999 . S
H7933 C7914 0.913 . S
H7934 C7952 0.951 . S
H7935 C7954 0.951 . S
H7936 C7956 0.950 . S
H7937 C7957 0.950 . S
H7938 C7959 0.950 . S
H7939 C7962 0.950 . S
H7940 C7963 0.950 . S
H7941 C7965 0.950 . S
H7942 C7966 0.950 . S
H7943 C7967 0.951 . S
H7944 C7969 0.951 . S
H7945 C7971 0.950 . S
H7946 C7972 0.950 . S
H7947 C7974 0.950 . S
H7948 C7977 0.950 . S
H7949 C7978 0.950 . S
H7950 C7980 0.950 . S
H7951 C7981 0.950 . S
C7952 H7934 0.951 . S
C7952 C7953 1.366 . S
C7952 C7954 1.388 . S
C7953 C7952 1.366 . S
C7953 C7957 1.385 . S
C7954 H7935 0.951 . S
C7954 C7952 1.388 . S
C7954 C7955 1.366 . S
C7955 C7954 1.366 . S
C7955 C7956 1.414 . S
C7955 C7958 1.499 . S
C7956 H7936 0.950 . S
C7956 C7955 1.414 . S
C7956 C7957 1.374 . S
C7957 H7937 0.950 . S
C7957 C7953 1.385 . S
C7957 C7956 1.374 . S
C7958 C7955 1.499 . S
C7958 C7959 1.373 . S
C7958 C7960 1.389 . S
C7959 H7938 0.950 . S
C7959 C7958 1.373 . S
C7959 C7975 1.377 . S
C7960 C7958 1.389 . S
C7960 C7961 1.524 . S
C7960 C7974 1.377 . S
C7961 C7960 1.524 . S
C7961 C7962 1.397 . S
C7961 C7966 1.363 . S
C7962 H7939 0.950 . S
C7962 C7961 1.397 . S
C7962 C7963 1.334 . S
C7963 H7940 0.950 . S
C7963 C7962 1.334 . S
C7963 C7964 1.287 . S
C7964 C7963 1.287 . S
C7964 C7965 1.524 . S
C7964 H7983 0.913 . S
C7965 H7941 0.950 . S
C7965 C7964 1.524 . S
C7965 C7966 1.415 . S
C7966 H7942 0.950 . S
C7966 C7961 1.363 . S
C7966 C7965 1.415 . S
C7967 H7943 0.951 . S
C7967 C7968 1.366 . S
C7967 C7969 1.388 . S
C7968 C7967 1.366 . S
C7968 C7972 1.385 . S
C7969 H7944 0.951 . S
C7969 C7967 1.388 . S
C7969 C7970 1.366 . S
C7970 C7969 1.366 . S
C7970 C7971 1.414 . S
C7970 C7973 1.499 . S
C7971 H7945 0.950 . S
C7971 C7970 1.414 . S
C7971 C7972 1.374 . S
C7972 H7946 0.950 . S
C7972 C7968 1.385 . S
C7972 C7971 1.374 . S
C7973 C7970 1.499 . S
C7973 C7974 1.373 . S
C7973 C7975 1.389 . S
C7974 H7947 0.950 . S
C7974 C7960 1.377 . S
C7974 C7973 1.373 . S
C7975 C7959 1.377 . S
C7975 C7973 1.389 . S
C7975 C7976 1.524 . S
C7976 C7975 1.524 . S
C7976 C7977 1.397 . S
C7976 C7981 1.363 . S
C7977 H7948 0.950 . S
C7977 C7976 1.397 . S
C7977 C7978 1.334 . S
C7978 H7949 0.950 . S
C7978 C7977 1.334 . S
C7978 C7979 1.287 . S
C7979 C7978 1.287 . S
C7979 C7980 1.524 . S
C7979 H7982 0.999 . S
C7980 H7950 0.950 . S
C7980 C7979 1.524 . S
C7980 C7981 1.415 . S
C7981 H7951 0.950 . S
C7981 C7976 1.363 . S
C7981 C7980 1.415 . S
H7982 C7979 0.999 . S
H7983 C7964 0.913 . S
H7984 C8002 0.951 . S
H7985 C8004 0.951 . S
H7986 C8006 0.950 . S
H7987 C8007 0.950 . S
H7988 C8009 0.950 . S
H7989 C8012 0.950 . S
H7990 C8013 0.950 . S
H7991 C8015 0.950 . S
H7992 C8016 0.950 . S
H7993 C8017 0.951 . S
H7994 C8019 0.951 . S
H7995 C8021 0.950 . S
H7996 C8022 0.950 . S
H7997 C8024 0.950 . S
H7998 C8027 0.950 . S
H7999 C8028 0.950 . S
H8000 C8030 0.950 . S
H8001 C8031 0.950 . S
C8002 H7984 0.951 . S
C8002 C8003 1.366 . S
C8002 C8004 1.388 . S
C8003 C8002 1.366 . S
C8003 C8007 1.385 . S
C8004 H7985 0.951 . S
C8004 C8002 1.388 . S
C8004 C8005 1.366 . S
C8005 C8004 1.366 . S
C8005 C8006 1.414 . S
C8005 C8008 1.499 . S
C8006 H7986 0.950 . S
C8006 C8005 1.414 . S
C8006 C8007 1.374 . S
C8007 H7987 0.950 . S
C8007 C8003 1.385 . S
C8007 C8006 1.374 . S
C8008 C8005 1.499 . S
C8008 C8009 1.373 . S
C8008 C8010 1.389 . S
C8009 H7988 0.950 . S
C8009 C8008 1.373 . S
C8009 C8025 1.377 . S
C8010 C8008 1.389 . S
C8010 C8011 1.524 . S
C8010 C8024 1.377 . S
C8011 C8010 1.524 . S
C8011 C8012 1.397 . S
C8011 C8016 1.363 . S
C8012 H7989 0.950 . S
C8012 C8011 1.397 . S
C8012 C8013 1.334 . S
C8013 H7990 0.950 . S
C8013 C8012 1.334 . S
C8013 C8014 1.287 . S
C8014 C8013 1.287 . S
C8014 C8015 1.524 . S
C8014 H8033 0.913 . S
C8015 H7991 0.950 . S
C8015 C8014 1.524 . S
C8015 C8016 1.415 . S
C8016 H7992 0.950 . S
C8016 C8011 1.363 . S
C8016 C8015 1.415 . S
C8017 H7993 0.951 . S
C8017 C8018 1.366 . S
C8017 C8019 1.388 . S
C8018 C8017 1.366 . S
C8018 C8022 1.385 . S
C8019 H7994 0.951 . S
C8019 C8017 1.388 . S
C8019 C8020 1.366 . S
C8020 C8019 1.366 . S
C8020 C8021 1.414 . S
C8020 C8023 1.499 . S
C8021 H7995 0.950 . S
C8021 C8020 1.414 . S
C8021 C8022 1.374 . S
C8022 H7996 0.950 . S
C8022 C8018 1.385 . S
C8022 C8021 1.374 . S
C8023 C8020 1.499 . S
C8023 C8024 1.373 . S
C8023 C8025 1.389 . S
C8024 H7997 0.950 . S
C8024 C8010 1.377 . S
C8024 C8023 1.373 . S
C8025 C8009 1.377 . S
C8025 C8023 1.389 . S
C8025 C8026 1.524 . S
C8026 C8025 1.524 . S
C8026 C8027 1.397 . S
C8026 C8031 1.363 . S
C8027 H7998 0.950 . S
C8027 C8026 1.397 . S
C8027 C8028 1.334 . S
C8028 H7999 0.950 . S
C8028 C8027 1.334 . S
C8028 C8029 1.287 . S
C8029 C8028 1.287 . S
C8029 C8030 1.524 . S
C8029 H8032 0.999 . S
C8030 H8000 0.950 . S
C8030 C8029 1.524 . S
C8030 C8031 1.415 . S
C8031 H8001 0.950 . S
C8031 C8026 1.363 . S
C8031 C8030 1.415 . S
H8032 C8029 0.999 . S
H8033 C8014 0.913 . S
H8034 C8052 0.951 . S
H8035 C8054 0.951 . S
H8036 C8056 0.950 . S
H8037 C8057 0.950 . S
H8038 C8059 0.950 . S
H8039 C8062 0.950 . S
H8040 C8063 0.950 . S
H8041 C8065 0.950 . S
H8042 C8066 0.950 . S
H8043 C8067 0.951 . S
H8044 C8069 0.951 . S
H8045 C8071 0.950 . S
H8046 C8072 0.950 . S
H8047 C8074 0.950 . S
H8048 C8077 0.950 . S
H8049 C8078 0.950 . S
H8050 C8080 0.950 . S
H8051 C8081 0.950 . S
C8052 H8034 0.951 . S
C8052 C8053 1.366 . S
C8052 C8054 1.388 . S
C8053 C8052 1.366 . S
C8053 C8057 1.385 . S
C8054 H8035 0.951 . S
C8054 C8052 1.388 . S
C8054 C8055 1.366 . S
C8055 C8054 1.366 . S
C8055 C8056 1.414 . S
C8055 C8058 1.499 . S
C8056 H8036 0.950 . S
C8056 C8055 1.414 . S
C8056 C8057 1.374 . S
C8057 H8037 0.950 . S
C8057 C8053 1.385 . S
C8057 C8056 1.374 . S
C8058 C8055 1.499 . S
C8058 C8059 1.373 . S
C8058 C8060 1.389 . S
C8059 H8038 0.950 . S
C8059 C8058 1.373 . S
C8059 C8075 1.377 . S
C8060 C8058 1.389 . S
C8060 C8061 1.524 . S
C8060 C8074 1.377 . S
C8061 C8060 1.524 . S
C8061 C8062 1.397 . S
C8061 C8066 1.363 . S
C8062 H8039 0.950 . S
C8062 C8061 1.397 . S
C8062 C8063 1.334 . S
C8063 H8040 0.950 . S
C8063 C8062 1.334 . S
C8063 C8064 1.287 . S
C8064 C8063 1.287 . S
C8064 C8065 1.524 . S
C8064 H8083 0.913 . S
C8065 H8041 0.950 . S
C8065 C8064 1.524 . S
C8065 C8066 1.415 . S
C8066 H8042 0.950 . S
C8066 C8061 1.363 . S
C8066 C8065 1.415 . S
C8067 H8043 0.951 . S
C8067 C8068 1.366 . S
C8067 C8069 1.388 . S
C8068 C8067 1.366 . S
C8068 C8072 1.385 . S
C8069 H8044 0.951 . S
C8069 C8067 1.388 . S
C8069 C8070 1.366 . S
C8070 C8069 1.366 . S
C8070 C8071 1.414 . S
C8070 C8073 1.499 . S
C8071 H8045 0.950 . S
C8071 C8070 1.414 . S
C8071 C8072 1.374 . S
C8072 H8046 0.950 . S
C8072 C8068 1.385 . S
C8072 C8071 1.374 . S
C8073 C8070 1.499 . S
C8073 C8074 1.373 . S
C8073 C8075 1.389 . S
C8074 H8047 0.950 . S
C8074 C8060 1.377 . S
C8074 C8073 1.373 . S
C8075 C8059 1.377 . S
C8075 C8073 1.389 . S
C8075 C8076 1.524 . S
C8076 C8075 1.524 . S
C8076 C8077 1.397 . S
C8076 C8081 1.363 . S
C8077 H8048 0.950 . S
C8077 C8076 1.397 . S
C8077 C8078 1.334 . S
C8078 H8049 0.950 . S
C8078 C8077 1.334 . S
C8078 C8079 1.287 . S
C8079 C8078 1.287 . S
C8079 C8080 1.524 . S
C8079 H8082 0.999 . S
C8080 H8050 0.950 . S
C8080 C8079 1.524 . S
C8080 C8081 1.415 . S
C8081 H8051 0.950 . S
C8081 C8076 1.363 . S
C8081 C8080 1.415 . S
H8082 C8079 0.999 . S
H8083 C8064 0.913 . S
H8084 C8102 0.951 . S
H8085 C8104 0.951 . S
H8086 C8106 0.950 . S
H8087 C8107 0.950 . S
H8088 C8109 0.950 . S
H8089 C8112 0.950 . S
H8090 C8113 0.950 . S
H8091 C8115 0.950 . S
H8092 C8116 0.950 . S
H8093 C8117 0.951 . S
H8094 C8119 0.951 . S
H8095 C8121 0.950 . S
H8096 C8122 0.950 . S
H8097 C8124 0.950 . S
H8098 C8127 0.950 . S
H8099 C8128 0.950 . S
H8100 C8130 0.950 . S
H8101 C8131 0.950 . S
C8102 H8084 0.951 . S
C8102 C8103 1.366 . S
C8102 C8104 1.388 . S
C8103 C8102 1.366 . S
C8103 C8107 1.385 . S
C8104 H8085 0.951 . S
C8104 C8102 1.388 . S
C8104 C8105 1.366 . S
C8105 C8104 1.366 . S
C8105 C8106 1.414 . S
C8105 C8108 1.499 . S
C8106 H8086 0.950 . S
C8106 C8105 1.414 . S
C8106 C8107 1.374 . S
C8107 H8087 0.950 . S
C8107 C8103 1.385 . S
C8107 C8106 1.374 . S
C8108 C8105 1.499 . S
C8108 C8109 1.373 . S
C8108 C8110 1.389 . S
C8109 H8088 0.950 . S
C8109 C8108 1.373 . S
C8109 C8125 1.377 . S
C8110 C8108 1.389 . S
C8110 C8111 1.524 . S
C8110 C8124 1.377 . S
C8111 C8110 1.524 . S
C8111 C8112 1.397 . S
C8111 C8116 1.363 . S
C8112 H8089 0.950 . S
C8112 C8111 1.397 . S
C8112 C8113 1.334 . S
C8113 H8090 0.950 . S
C8113 C8112 1.334 . S
C8113 C8114 1.287 . S
C8114 C8113 1.287 . S
C8114 C8115 1.524 . S
C8114 H8133 0.913 . S
C8115 H8091 0.950 . S
C8115 C8114 1.524 . S
C8115 C8116 1.415 . S
C8116 H8092 0.950 . S
C8116 C8111 1.363 . S
C8116 C8115 1.415 . S
C8117 H8093 0.951 . S
C8117 C8118 1.366 . S
C8117 C8119 1.388 . S
C8118 C8117 1.366 . S
C8118 C8122 1.385 . S
C8119 H8094 0.951 . S
C8119 C8117 1.388 . S
C8119 C8120 1.366 . S
C8120 C8119 1.366 . S
C8120 C8121 1.414 . S
C8120 C8123 1.499 . S
C8121 H8095 0.950 . S
C8121 C8120 1.414 . S
C8121 C8122 1.374 . S
C8122 H8096 0.950 . S
C8122 C8118 1.385 . S
C8122 C8121 1.374 . S
C8123 C8120 1.499 . S
C8123 C8124 1.373 . S
C8123 C8125 1.389 . S
C8124 H8097 0.950 . S
C8124 C8110 1.377 . S
C8124 C8123 1.373 . S
C8125 C8109 1.377 . S
C8125 C8123 1.389 . S
C8125 C8126 1.524 . S
C8126 C8125 1.524 . S
C8126 C8127 1.397 . S
C8126 C8131 1.363 . S
C8127 H8098 0.950 . S
C8127 C8126 1.397 . S
C8127 C8128 1.334 . S
C8128 H8099 0.950 . S
C8128 C8127 1.334 . S
C8128 C8129 1.287 . S
C8129 C8128 1.287 . S
C8129 C8130 1.524 . S
C8129 H8132 0.999 . S
C8130 H8100 0.950 . S
C8130 C8129 1.524 . S
C8130 C8131 1.415 . S
C8131 H8101 0.950 . S
C8131 C8126 1.363 . S
C8131 C8130 1.415 . S
H8132 C8129 0.999 . S
H8133 C8114 0.913 . S
H8134 C8152 0.951 . S
H8135 C8154 0.951 . S
H8136 C8156 0.950 . S
H8137 C8157 0.950 . S
H8138 C8159 0.950 . S
H8139 C8162 0.950 . S
H8140 C8163 0.950 . S
H8141 C8165 0.950 . S
H8142 C8166 0.950 . S
H8143 C8167 0.951 . S
H8144 C8169 0.951 . S
H8145 C8171 0.950 . S
H8146 C8172 0.950 . S
H8147 C8174 0.950 . S
H8148 C8177 0.950 . S
H8149 C8178 0.950 . S
H8150 C8180 0.950 . S
H8151 C8181 0.950 . S
C8152 H8134 0.951 . S
C8152 C8153 1.366 . S
C8152 C8154 1.388 . S
C8153 C8152 1.366 . S
C8153 C8157 1.385 . S
C8154 H8135 0.951 . S
C8154 C8152 1.388 . S
C8154 C8155 1.366 . S
C8155 C8154 1.366 . S
C8155 C8156 1.414 . S
C8155 C8158 1.499 . S
C8156 H8136 0.950 . S
C8156 C8155 1.414 . S
C8156 C8157 1.374 . S
C8157 H8137 0.950 . S
C8157 C8153 1.385 . S
C8157 C8156 1.374 . S
C8158 C8155 1.499 . S
C8158 C8159 1.373 . S
C8158 C8160 1.389 . S
C8159 H8138 0.950 . S
C8159 C8158 1.373 . S
C8159 C8175 1.377 . S
C8160 C8158 1.389 . S
C8160 C8161 1.524 . S
C8160 C8174 1.377 . S
C8161 C8160 1.524 . S
C8161 C8162 1.397 . S
C8161 C8166 1.363 . S
C8162 H8139 0.950 . S
C8162 C8161 1.397 . S
C8162 C8163 1.334 . S
C8163 H8140 0.950 . S
C8163 C8162 1.334 . S
C8163 C8164 1.287 . S
C8164 C8163 1.287 . S
C8164 C8165 1.524 . S
C8164 H8183 0.913 . S
C8165 H8141 0.950 . S
C8165 C8164 1.524 . S
C8165 C8166 1.415 . S
C8166 H8142 0.950 . S
C8166 C8161 1.363 . S
C8166 C8165 1.415 . S
C8167 H8143 0.951 . S
C8167 C8168 1.366 . S
C8167 C8169 1.388 . S
C8168 C8167 1.366 . S
C8168 C8172 1.385 . S
C8169 H8144 0.951 . S
C8169 C8167 1.388 . S
C8169 C8170 1.366 . S
C8170 C8169 1.366 . S
C8170 C8171 1.414 . S
C8170 C8173 1.499 . S
C8171 H8145 0.950 . S
C8171 C8170 1.414 . S
C8171 C8172 1.374 . S
C8172 H8146 0.950 . S
C8172 C8168 1.385 . S
C8172 C8171 1.374 . S
C8173 C8170 1.499 . S
C8173 C8174 1.373 . S
C8173 C8175 1.389 . S
C8174 H8147 0.950 . S
C8174 C8160 1.377 . S
C8174 C8173 1.373 . S
C8175 C8159 1.377 . S
C8175 C8173 1.389 . S
C8175 C8176 1.524 . S
C8176 C8175 1.524 . S
C8176 C8177 1.397 . S
C8176 C8181 1.363 . S
C8177 H8148 0.950 . S
C8177 C8176 1.397 . S
C8177 C8178 1.334 . S
C8178 H8149 0.950 . S
C8178 C8177 1.334 . S
C8178 C8179 1.287 . S
C8179 C8178 1.287 . S
C8179 C8180 1.524 . S
C8179 H8182 0.999 . S
C8180 H8150 0.950 . S
C8180 C8179 1.524 . S
C8180 C8181 1.415 . S
C8181 H8151 0.950 . S
C8181 C8176 1.363 . S
C8181 C8180 1.415 . S
H8182 C8179 0.999 . S
H8183 C8164 0.913 . S
H8184 C8202 0.951 . S
H8185 C8204 0.951 . S
H8186 C8206 0.950 . S
H8187 C8207 0.950 . S
H8188 C8209 0.950 . S
H8189 C8212 0.950 . S
H8190 C8213 0.950 . S
H8191 C8215 0.950 . S
H8192 C8216 0.950 . S
H8193 C8217 0.951 . S
H8194 C8219 0.951 . S
H8195 C8221 0.950 . S
H8196 C8222 0.950 . S
H8197 C8224 0.950 . S
H8198 C8227 0.950 . S
H8199 C8228 0.950 . S
H8200 C8230 0.950 . S
H8201 C8231 0.950 . S
C8202 H8184 0.951 . S
C8202 C8203 1.366 . S
C8202 C8204 1.388 . S
C8203 C8202 1.366 . S
C8203 C8207 1.385 . S
C8204 H8185 0.951 . S
C8204 C8202 1.388 . S
C8204 C8205 1.366 . S
C8205 C8204 1.366 . S
C8205 C8206 1.414 . S
C8205 C8208 1.499 . S
C8206 H8186 0.950 . S
C8206 C8205 1.414 . S
C8206 C8207 1.374 . S
C8207 H8187 0.950 . S
C8207 C8203 1.385 . S
C8207 C8206 1.374 . S
C8208 C8205 1.499 . S
C8208 C8209 1.373 . S
C8208 C8210 1.389 . S
C8209 H8188 0.950 . S
C8209 C8208 1.373 . S
C8209 C8225 1.377 . S
C8210 C8208 1.389 . S
C8210 C8211 1.524 . S
C8210 C8224 1.377 . S
C8211 C8210 1.524 . S
C8211 C8212 1.397 . S
C8211 C8216 1.363 . S
C8212 H8189 0.950 . S
C8212 C8211 1.397 . S
C8212 C8213 1.334 . S
C8213 H8190 0.950 . S
C8213 C8212 1.334 . S
C8213 C8214 1.287 . S
C8214 C8213 1.287 . S
C8214 C8215 1.524 . S
C8214 H8233 0.913 . S
C8215 H8191 0.950 . S
C8215 C8214 1.524 . S
C8215 C8216 1.415 . S
C8216 H8192 0.950 . S
C8216 C8211 1.363 . S
C8216 C8215 1.415 . S
C8217 H8193 0.951 . S
C8217 C8218 1.366 . S
C8217 C8219 1.388 . S
C8218 C8217 1.366 . S
C8218 C8222 1.385 . S
C8219 H8194 0.951 . S
C8219 C8217 1.388 . S
C8219 C8220 1.366 . S
C8220 C8219 1.366 . S
C8220 C8221 1.414 . S
C8220 C8223 1.499 . S
C8221 H8195 0.950 . S
C8221 C8220 1.414 . S
C8221 C8222 1.374 . S
C8222 H8196 0.950 . S
C8222 C8218 1.385 . S
C8222 C8221 1.374 . S
C8223 C8220 1.499 . S
C8223 C8224 1.373 . S
C8223 C8225 1.389 . S
C8224 H8197 0.950 . S
C8224 C8210 1.377 . S
C8224 C8223 1.373 . S
C8225 C8209 1.377 . S
C8225 C8223 1.389 . S
C8225 C8226 1.524 . S
C8226 C8225 1.524 . S
C8226 C8227 1.397 . S
C8226 C8231 1.363 . S
C8227 H8198 0.950 . S
C8227 C8226 1.397 . S
C8227 C8228 1.334 . S
C8228 H8199 0.950 . S
C8228 C8227 1.334 . S
C8228 C8229 1.287 . S
C8229 C8228 1.287 . S
C8229 C8230 1.524 . S
C8229 H8232 0.999 . S
C8230 H8200 0.950 . S
C8230 C8229 1.524 . S
C8230 C8231 1.415 . S
C8231 H8201 0.950 . S
C8231 C8226 1.363 . S
C8231 C8230 1.415 . S
H8232 C8229 0.999 . S
H8233 C8214 0.913 . S
H8234 C8252 0.951 . S
H8235 C8254 0.951 . S
H8236 C8256 0.950 . S
H8237 C8257 0.950 . S
H8238 C8259 0.980 . S
H8239 C8262 0.950 . S
H8240 C8263 0.950 . S
H8241 C8265 0.950 . S
H8242 C8266 0.950 . S
H8243 C8267 0.951 . S
H8244 C8269 0.951 . S
H8245 C8271 0.950 . S
H8246 C8272 0.950 . S
H8247 C8274 0.950 . S
H8248 C8277 0.950 . S
H8249 C8278 0.950 . S
H8250 C8280 0.950 . S
H8251 C8281 0.950 . S
C8252 H8234 0.951 . S
C8252 C8253 1.366 . S
C8252 C8254 1.388 . S
C8253 C8252 1.366 . S
C8253 C8257 1.385 . S
C8254 H8235 0.951 . S
C8254 C8252 1.388 . S
C8254 C8255 1.366 . S
C8255 C8254 1.366 . S
C8255 C8256 1.414 . S
C8255 C8258 1.499 . S
C8256 H8236 0.950 . S
C8256 C8255 1.414 . S
C8256 C8257 1.374 . S
C8257 H8237 0.950 . S
C8257 C8253 1.385 . S
C8257 C8256 1.374 . S
C8258 C8255 1.499 . S
C8258 C8259 1.397 . S
C8258 C8260 1.389 1_554 S
C8259 H8238 0.980 . S
C8259 C8258 1.397 . S
C8259 C8275 1.325 1_554 S
C8260 C8258 1.389 1_556 S
C8260 C8261 1.524 1_556 S
C8260 C8274 1.377 . S
C8261 C8260 1.524 1_554 S
C8261 C8262 1.397 . S
C8261 C8266 1.363 1_554 S
C8262 H8239 0.950 . S
C8262 C8261 1.397 . S
C8262 C8263 1.334 . S
C8263 H8240 0.950 . S
C8263 C8262 1.334 . S
C8263 C8264 1.287 . S
C8264 C8263 1.287 . S
C8264 C8265 1.524 . S
C8264 H8283 0.913 . S
C8265 H8241 0.950 . S
C8265 C8264 1.524 . S
C8265 C8266 1.415 1_554 S
C8266 H8242 0.950 . S
C8266 C8261 1.363 1_556 S
C8266 C8265 1.415 1_556 S
C8267 H8243 0.951 . S
C8267 C8268 1.366 . S
C8267 C8269 1.388 . S
C8268 C8267 1.366 . S
C8268 C8272 1.385 . S
C8269 H8244 0.951 . S
C8269 C8267 1.388 . S
C8269 C8270 1.366 . S
C8270 C8269 1.366 . S
C8270 C8271 1.414 . S
C8270 C8273 1.499 . S
C8271 H8245 0.950 . S
C8271 C8270 1.414 . S
C8271 C8272 1.374 . S
C8272 H8246 0.950 . S
C8272 C8268 1.385 . S
C8272 C8271 1.374 . S
C8273 C8270 1.499 . S
C8273 C8274 1.373 . S
C8273 C8275 1.389 . S
C8274 H8247 0.950 . S
C8274 C8260 1.377 . S
C8274 C8273 1.373 . S
C8275 C8259 1.325 1_556 S
C8275 C8273 1.389 . S
C8275 C8276 1.524 . S
C8276 C8275 1.524 . S
C8276 C8277 1.397 . S
C8276 C8281 1.363 . S
C8277 H8248 0.950 . S
C8277 C8276 1.397 . S
C8277 C8278 1.334 . S
C8278 H8249 0.950 . S
C8278 C8277 1.334 . S
C8278 C8279 1.287 . S
C8279 C8278 1.287 . S
C8279 C8280 1.524 . S
C8279 H8282 0.999 . S
C8280 H8250 0.950 . S
C8280 C8279 1.524 . S
C8280 C8281 1.415 . S
C8281 H8251 0.950 . S
C8281 C8276 1.363 . S
C8281 C8280 1.415 . S
H8282 C8279 0.999 . S
H8283 C8264 0.913 . S
H8284 C8302 0.951 . S
H8285 C8304 0.951 . S
H8286 C8306 0.950 . S
H8287 C8307 0.950 . S
H8288 C8309 0.950 . S
H8289 C8312 0.950 . S
H8290 C8313 0.950 . S
H8291 C8315 0.950 . S
H8292 C8316 0.950 . S
H8293 C8317 0.951 . S
H8294 C8319 0.951 . S
H8295 C8321 0.950 . S
H8296 C8322 0.950 . S
H8297 C8324 0.950 . S
H8298 C8327 0.950 . S
H8299 C8328 0.950 . S
H8300 C8330 0.950 . S
H8301 C8331 0.950 1_455 S
C8302 H8284 0.951 . S
C8302 C8303 1.366 . S
C8302 C8304 1.388 . S
C8303 C8302 1.366 . S
C8303 C8307 1.385 . S
C8304 H8285 0.951 . S
C8304 C8302 1.388 . S
C8304 C8305 1.366 . S
C8305 C8304 1.366 . S
C8305 C8306 1.414 . S
C8305 C8308 1.499 . S
C8306 H8286 0.950 . S
C8306 C8305 1.414 . S
C8306 C8307 1.374 . S
C8307 H8287 0.950 . S
C8307 C8303 1.385 . S
C8307 C8306 1.374 . S
C8308 C8305 1.499 . S
C8308 C8309 1.373 . S
C8308 C8310 1.389 . S
C8309 H8288 0.950 . S
C8309 C8308 1.373 . S
C8309 C8325 1.377 . S
C8310 C8308 1.389 . S
C8310 C8311 1.524 . S
C8310 C8324 1.377 . S
C8311 C8310 1.524 . S
C8311 C8312 1.397 . S
C8311 C8316 1.363 . S
C8312 H8289 0.950 . S
C8312 C8311 1.397 . S
C8312 C8313 1.334 . S
C8313 H8290 0.950 . S
C8313 C8312 1.334 . S
C8313 C8314 1.287 . S
C8314 C8313 1.287 . S
C8314 C8315 1.524 . S
C8314 H8333 0.913 . S
C8315 H8291 0.950 . S
C8315 C8314 1.524 . S
C8315 C8316 1.415 . S
C8316 H8292 0.950 . S
C8316 C8311 1.363 . S
C8316 C8315 1.415 . S
C8317 H8293 0.951 . S
C8317 C8318 1.366 . S
C8317 C8319 1.388 . S
C8318 C8317 1.366 . S
C8318 C8322 1.385 . S
C8319 H8294 0.951 . S
C8319 C8317 1.388 . S
C8319 C8320 1.366 . S
C8320 C8319 1.366 . S
C8320 C8321 1.414 . S
C8320 C8323 1.504 . S
C8321 H8295 0.950 . S
C8321 C8320 1.414 . S
C8321 C8322 1.374 . S
C8322 H8296 0.950 . S
C8322 C8318 1.385 . S
C8322 C8321 1.374 . S
C8323 C8320 1.504 . S
C8323 C8324 1.370 1_655 S
C8323 C8325 1.387 1_655 S
C8324 H8297 0.950 . S
C8324 C8310 1.377 . S
C8324 C8323 1.370 1_455 S
C8325 C8309 1.377 . S
C8325 C8323 1.387 1_455 S
C8325 C8326 1.524 1_455 S
C8326 C8325 1.524 1_655 S
C8326 C8327 1.397 . S
C8326 C8331 1.363 . S
C8327 H8298 0.950 . S
C8327 C8326 1.397 . S
C8327 C8328 1.334 . S
C8328 H8299 0.950 . S
C8328 C8327 1.334 . S
C8328 C8329 1.287 . S
C8329 C8328 1.287 . S
C8329 C8330 1.524 . S
C8329 H8332 0.999 . S
C8330 H8300 0.950 . S
C8330 C8329 1.524 . S
C8330 C8331 1.415 . S
C8331 H8301 0.950 1_655 S
C8331 C8326 1.363 . S
C8331 C8330 1.415 . S
H8332 C8329 0.999 . S
H8333 C8314 0.913 . S
H8334 C8352 0.951 . S
H8335 C8354 0.951 . S
H8336 C8356 0.950 . S
H8337 C8357 0.950 . S
H8338 C8359 0.950 . S
H8339 C8362 0.950 . S
H8340 C8363 0.950 . S
H8341 C8365 0.950 . S
H8342 C8366 0.950 . S
H8343 C8367 0.951 . S
H8344 C8369 0.951 . S
H8345 C8371 0.950 . S
H8346 C8372 0.950 . S
H8347 C8374 0.950 . S
H8348 C8377 0.950 . S
H8349 C8378 0.950 . S
H8350 C8380 0.950 . S
H8351 C8381 0.950 . S
C8352 H8334 0.951 . S
C8352 C8353 1.366 . S
C8352 C8354 1.388 . S
C8353 C8352 1.366 . S
C8353 C8357 1.385 . S
C8354 H8335 0.951 . S
C8354 C8352 1.388 . S
C8354 C8355 1.366 . S
C8355 C8354 1.366 . S
C8355 C8356 1.414 . S
C8355 C8358 1.499 . S
C8356 H8336 0.950 . S
C8356 C8355 1.414 . S
C8356 C8357 1.374 . S
C8357 H8337 0.950 . S
C8357 C8353 1.385 . S
C8357 C8356 1.374 . S
C8358 C8355 1.499 . S
C8358 C8359 1.373 . S
C8358 C8360 1.389 . S
C8359 H8338 0.950 . S
C8359 C8358 1.373 . S
C8359 C8375 1.377 . S
C8360 C8358 1.389 . S
C8360 C8361 1.524 . S
C8360 C8374 1.377 . S
C8361 C8360 1.524 . S
C8361 C8362 1.397 . S
C8361 C8366 1.363 . S
C8362 H8339 0.950 . S
C8362 C8361 1.397 . S
C8362 C8363 1.334 . S
C8363 H8340 0.950 . S
C8363 C8362 1.334 . S
C8363 C8364 1.287 . S
C8364 C8363 1.287 . S
C8364 C8365 1.524 . S
C8364 H8383 0.913 . S
C8365 H8341 0.950 . S
C8365 C8364 1.524 . S
C8365 C8366 1.415 . S
C8366 H8342 0.950 . S
C8366 C8361 1.363 . S
C8366 C8365 1.415 . S
C8367 H8343 0.951 . S
C8367 C8368 1.366 . S
C8367 C8369 1.388 . S
C8368 C8367 1.366 . S
C8368 C8372 1.385 . S
C8369 H8344 0.951 . S
C8369 C8367 1.388 . S
C8369 C8370 1.366 . S
C8370 C8369 1.366 . S
C8370 C8371 1.414 . S
C8370 C8373 1.499 . S
C8371 H8345 0.950 . S
C8371 C8370 1.414 . S
C8371 C8372 1.374 . S
C8372 H8346 0.950 . S
C8372 C8368 1.385 . S
C8372 C8371 1.374 . S
C8373 C8370 1.499 . S
C8373 C8374 1.373 . S
C8373 C8375 1.389 . S
C8374 H8347 0.950 . S
C8374 C8360 1.377 . S
C8374 C8373 1.373 . S
C8375 C8359 1.377 . S
C8375 C8373 1.389 . S
C8375 C8376 1.524 . S
C8376 C8375 1.524 . S
C8376 C8377 1.397 . S
C8376 C8381 1.363 . S
C8377 H8348 0.950 . S
C8377 C8376 1.397 . S
C8377 C8378 1.334 . S
C8378 H8349 0.950 . S
C8378 C8377 1.334 . S
C8378 C8379 1.287 . S
C8379 C8378 1.287 . S
C8379 C8380 1.524 . S
C8379 H8382 0.999 . S
C8380 H8350 0.950 . S
C8380 C8379 1.524 . S
C8380 C8381 1.415 . S
C8381 H8351 0.950 . S
C8381 C8376 1.363 . S
C8381 C8380 1.415 . S
H8382 C8379 0.999 . S
H8383 C8364 0.913 . S
H8384 C8402 0.951 . S
H8385 C8404 0.951 . S
H8386 C8406 0.950 . S
H8387 C8407 0.950 . S
H8388 C8409 0.950 . S
H8389 C8412 0.950 . S
H8390 C8413 0.950 . S
H8391 C8415 0.950 . S
H8392 C8416 0.950 . S
H8393 C8417 0.951 . S
H8394 C8419 0.951 . S
H8395 C8421 0.950 . S
H8396 C8422 0.950 . S
H8397 C8424 0.950 . S
H8398 C8427 0.950 . S
H8399 C8428 0.950 . S
H8400 C8430 0.950 . S
H8401 C8431 0.950 . S
C8402 H8384 0.951 . S
C8402 C8403 1.366 . S
C8402 C8404 1.388 . S
C8403 C8402 1.366 . S
C8403 C8407 1.385 . S
C8404 H8385 0.951 . S
C8404 C8402 1.388 . S
C8404 C8405 1.366 . S
C8405 C8404 1.366 . S
C8405 C8406 1.414 . S
C8405 C8408 1.499 . S
C8406 H8386 0.950 . S
C8406 C8405 1.414 . S
C8406 C8407 1.374 . S
C8407 H8387 0.950 . S
C8407 C8403 1.385 . S
C8407 C8406 1.374 . S
C8408 C8405 1.499 . S
C8408 C8409 1.373 . S
C8408 C8410 1.389 . S
C8409 H8388 0.950 . S
C8409 C8408 1.373 . S
C8409 C8425 1.377 . S
C8410 C8408 1.389 . S
C8410 C8411 1.524 . S
C8410 C8424 1.377 . S
C8411 C8410 1.524 . S
C8411 C8412 1.397 . S
C8411 C8416 1.363 . S
C8412 H8389 0.950 . S
C8412 C8411 1.397 . S
C8412 C8413 1.334 . S
C8413 H8390 0.950 . S
C8413 C8412 1.334 . S
C8413 C8414 1.287 . S
C8414 C8413 1.287 . S
C8414 C8415 1.524 . S
C8414 H8433 0.913 . S
C8415 H8391 0.950 . S
C8415 C8414 1.524 . S
C8415 C8416 1.415 . S
C8416 H8392 0.950 . S
C8416 C8411 1.363 . S
C8416 C8415 1.415 . S
C8417 H8393 0.951 . S
C8417 C8418 1.366 . S
C8417 C8419 1.388 . S
C8418 C8417 1.366 . S
C8418 C8422 1.385 . S
C8419 H8394 0.951 . S
C8419 C8417 1.388 . S
C8419 C8420 1.366 . S
C8420 C8419 1.366 . S
C8420 C8421 1.414 . S
C8420 C8423 1.499 . S
C8421 H8395 0.950 . S
C8421 C8420 1.414 . S
C8421 C8422 1.374 . S
C8422 H8396 0.950 . S
C8422 C8418 1.385 . S
C8422 C8421 1.374 . S
C8423 C8420 1.499 . S
C8423 C8424 1.373 . S
C8423 C8425 1.389 . S
C8424 H8397 0.950 . S
C8424 C8410 1.377 . S
C8424 C8423 1.373 . S
C8425 C8409 1.377 . S
C8425 C8423 1.389 . S
C8425 C8426 1.524 . S
C8426 C8425 1.524 . S
C8426 C8427 1.397 . S
C8426 C8431 1.363 . S
C8427 H8398 0.950 . S
C8427 C8426 1.397 . S
C8427 C8428 1.334 . S
C8428 H8399 0.950 . S
C8428 C8427 1.334 . S
C8428 C8429 1.287 . S
C8429 C8428 1.287 . S
C8429 C8430 1.524 . S
C8429 H8432 0.999 . S
C8430 H8400 0.950 . S
C8430 C8429 1.524 . S
C8430 C8431 1.415 . S
C8431 H8401 0.950 . S
C8431 C8426 1.363 . S
C8431 C8430 1.415 . S
H8432 C8429 0.999 . S
H8433 C8414 0.913 . S
H8434 C8452 0.951 . S
H8435 C8454 0.951 . S
H8436 C8456 0.950 . S
H8437 C8457 0.950 . S
H8438 C8459 0.950 . S
H8439 C8462 0.950 . S
H8440 C8463 0.950 . S
H8441 C8465 0.950 . S
H8442 C8466 0.950 . S
H8443 C8467 0.951 . S
H8444 C8469 0.951 . S
H8445 C8471 0.950 . S
H8446 C8472 0.950 . S
H8447 C8474 0.950 . S
H8448 C8477 0.950 . S
H8449 C8478 0.950 . S
H8450 C8480 0.950 . S
H8451 C8481 0.950 . S
C8452 H8434 0.951 . S
C8452 C8453 1.366 . S
C8452 C8454 1.388 . S
C8453 C8452 1.366 . S
C8453 C8457 1.385 . S
C8454 H8435 0.951 . S
C8454 C8452 1.388 . S
C8454 C8455 1.366 . S
C8455 C8454 1.366 . S
C8455 C8456 1.414 . S
C8455 C8458 1.499 . S
C8456 H8436 0.950 . S
C8456 C8455 1.414 . S
C8456 C8457 1.374 . S
C8457 H8437 0.950 . S
C8457 C8453 1.385 . S
C8457 C8456 1.374 . S
C8458 C8455 1.499 . S
C8458 C8459 1.373 . S
C8458 C8460 1.389 . S
C8459 H8438 0.950 . S
C8459 C8458 1.373 . S
C8459 C8475 1.377 . S
C8460 C8458 1.389 . S
C8460 C8461 1.524 . S
C8460 C8474 1.377 . S
C8461 C8460 1.524 . S
C8461 C8462 1.397 . S
C8461 C8466 1.363 . S
C8462 H8439 0.950 . S
C8462 C8461 1.397 . S
C8462 C8463 1.334 . S
C8463 H8440 0.950 . S
C8463 C8462 1.334 . S
C8463 C8464 1.287 . S
C8464 C8463 1.287 . S
C8464 C8465 1.524 . S
C8464 H8483 0.913 . S
C8465 H8441 0.950 . S
C8465 C8464 1.524 . S
C8465 C8466 1.415 . S
C8466 H8442 0.950 . S
C8466 C8461 1.363 . S
C8466 C8465 1.415 . S
C8467 H8443 0.951 . S
C8467 C8468 1.366 . S
C8467 C8469 1.388 . S
C8468 C8467 1.366 . S
C8468 C8472 1.385 . S
C8469 H8444 0.951 . S
C8469 C8467 1.388 . S
C8469 C8470 1.366 . S
C8470 C8469 1.366 . S
C8470 C8471 1.414 . S
C8470 C8473 1.499 . S
C8471 H8445 0.950 . S
C8471 C8470 1.414 . S
C8471 C8472 1.374 . S
C8472 H8446 0.950 . S
C8472 C8468 1.385 . S
C8472 C8471 1.374 . S
C8473 C8470 1.499 . S
C8473 C8474 1.373 . S
C8473 C8475 1.389 . S
C8474 H8447 0.950 . S
C8474 C8460 1.377 . S
C8474 C8473 1.373 . S
C8475 C8459 1.377 . S
C8475 C8473 1.389 . S
C8475 C8476 1.524 . S
C8476 C8475 1.524 . S
C8476 C8477 1.397 . S
C8476 C8481 1.363 . S
C8477 H8448 0.950 . S
C8477 C8476 1.397 . S
C8477 C8478 1.334 . S
C8478 H8449 0.950 . S
C8478 C8477 1.334 . S
C8478 C8479 1.287 . S
C8479 C8478 1.287 . S
C8479 C8480 1.524 . S
C8479 H8482 0.999 . S
C8480 H8450 0.950 . S
C8480 C8479 1.524 . S
C8480 C8481 1.415 . S
C8481 H8451 0.950 . S
C8481 C8476 1.363 . S
C8481 C8480 1.415 . S
H8482 C8479 0.999 . S
H8483 C8464 0.913 . S
H8484 C8502 0.951 . S
H8485 C8504 0.951 . S
H8486 C8506 0.950 . S
H8487 C8507 0.950 . S
H8488 C8509 0.950 . S
H8489 C8512 0.950 . S
H8490 C8513 0.950 . S
H8491 C8515 0.950 . S
H8492 C8516 0.950 . S
H8493 C8517 0.951 . S
H8494 C8519 0.951 . S
H8495 C8521 0.950 . S
H8496 C8522 0.950 . S
H8497 C8524 0.950 . S
H8498 C8527 0.950 . S
H8499 C8528 0.950 . S
H8500 C8530 0.950 . S
H8501 C8531 0.950 . S
C8502 H8484 0.951 . S
C8502 C8503 1.366 . S
C8502 C8504 1.388 . S
C8503 C8502 1.366 . S
C8503 C8507 1.385 . S
C8504 H8485 0.951 . S
C8504 C8502 1.388 . S
C8504 C8505 1.366 . S
C8505 C8504 1.366 . S
C8505 C8506 1.414 . S
C8505 C8508 1.499 . S
C8506 H8486 0.950 . S
C8506 C8505 1.414 . S
C8506 C8507 1.374 . S
C8507 H8487 0.950 . S
C8507 C8503 1.385 . S
C8507 C8506 1.374 . S
C8508 C8505 1.499 . S
C8508 C8509 1.373 . S
C8508 C8510 1.389 . S
C8509 H8488 0.950 . S
C8509 C8508 1.373 . S
C8509 C8525 1.377 . S
C8510 C8508 1.389 . S
C8510 C8511 1.524 . S
C8510 C8524 1.377 . S
C8511 C8510 1.524 . S
C8511 C8512 1.397 . S
C8511 C8516 1.363 . S
C8512 H8489 0.950 . S
C8512 C8511 1.397 . S
C8512 C8513 1.334 . S
C8513 H8490 0.950 . S
C8513 C8512 1.334 . S
C8513 C8514 1.287 . S
C8514 C8513 1.287 . S
C8514 C8515 1.524 . S
C8514 H8533 0.913 . S
C8515 H8491 0.950 . S
C8515 C8514 1.524 . S
C8515 C8516 1.415 . S
C8516 H8492 0.950 . S
C8516 C8511 1.363 . S
C8516 C8515 1.415 . S
C8517 H8493 0.951 . S
C8517 C8518 1.366 . S
C8517 C8519 1.388 . S
C8518 C8517 1.366 . S
C8518 C8522 1.385 . S
C8519 H8494 0.951 . S
C8519 C8517 1.388 . S
C8519 C8520 1.366 . S
C8520 C8519 1.366 . S
C8520 C8521 1.414 . S
C8520 C8523 1.499 . S
C8521 H8495 0.950 . S
C8521 C8520 1.414 . S
C8521 C8522 1.374 . S
C8522 H8496 0.950 . S
C8522 C8518 1.385 . S
C8522 C8521 1.374 . S
C8523 C8520 1.499 . S
C8523 C8524 1.373 . S
C8523 C8525 1.389 . S
C8524 H8497 0.950 . S
C8524 C8510 1.377 . S
C8524 C8523 1.373 . S
C8525 C8509 1.377 . S
C8525 C8523 1.389 . S
C8525 C8526 1.524 . S
C8526 C8525 1.524 . S
C8526 C8527 1.397 . S
C8526 C8531 1.363 . S
C8527 H8498 0.950 . S
C8527 C8526 1.397 . S
C8527 C8528 1.334 . S
C8528 H8499 0.950 . S
C8528 C8527 1.334 . S
C8528 C8529 1.287 . S
C8529 C8528 1.287 . S
C8529 C8530 1.524 . S
C8529 H8532 0.999 . S
C8530 H8500 0.950 . S
C8530 C8529 1.524 . S
C8530 C8531 1.415 . S
C8531 H8501 0.950 . S
C8531 C8526 1.363 . S
C8531 C8530 1.415 . S
H8532 C8529 0.999 . S
H8533 C8514 0.913 . S
H8534 C8552 0.951 . S
H8535 C8554 0.951 . S
H8536 C8556 0.950 . S
H8537 C8557 0.950 . S
H8538 C8559 0.950 . S
H8539 C8562 0.950 . S
H8540 C8563 0.950 . S
H8541 C8565 0.950 . S
H8542 C8566 0.950 . S
H8543 C8567 0.951 . S
H8544 C8569 0.951 . S
H8545 C8571 0.950 . S
H8546 C8572 0.950 . S
H8547 C8574 0.950 . S
H8548 C8577 0.950 . S
H8549 C8578 0.950 . S
H8550 C8580 0.950 . S
H8551 C8581 0.950 . S
C8552 H8534 0.951 . S
C8552 C8553 1.366 . S
C8552 C8554 1.388 . S
C8553 C8552 1.366 . S
C8553 C8557 1.385 . S
C8554 H8535 0.951 . S
C8554 C8552 1.388 . S
C8554 C8555 1.366 . S
C8555 C8554 1.366 . S
C8555 C8556 1.414 . S
C8555 C8558 1.499 . S
C8556 H8536 0.950 . S
C8556 C8555 1.414 . S
C8556 C8557 1.374 . S
C8557 H8537 0.950 . S
C8557 C8553 1.385 . S
C8557 C8556 1.374 . S
C8558 C8555 1.499 . S
C8558 C8559 1.373 . S
C8558 C8560 1.389 . S
C8559 H8538 0.950 . S
C8559 C8558 1.373 . S
C8559 C8575 1.377 . S
C8560 C8558 1.389 . S
C8560 C8561 1.524 . S
C8560 C8574 1.377 . S
C8561 C8560 1.524 . S
C8561 C8562 1.397 . S
C8561 C8566 1.363 . S
C8562 H8539 0.950 . S
C8562 C8561 1.397 . S
C8562 C8563 1.334 . S
C8563 H8540 0.950 . S
C8563 C8562 1.334 . S
C8563 C8564 1.287 . S
C8564 C8563 1.287 . S
C8564 C8565 1.524 . S
C8564 H8583 0.913 . S
C8565 H8541 0.950 . S
C8565 C8564 1.524 . S
C8565 C8566 1.415 . S
C8566 H8542 0.950 . S
C8566 C8561 1.363 . S
C8566 C8565 1.415 . S
C8567 H8543 0.951 . S
C8567 C8568 1.366 . S
C8567 C8569 1.388 . S
C8568 C8567 1.366 . S
C8568 C8572 1.385 . S
C8569 H8544 0.951 . S
C8569 C8567 1.388 . S
C8569 C8570 1.366 . S
C8570 C8569 1.366 . S
C8570 C8571 1.414 . S
C8570 C8573 1.499 . S
C8571 H8545 0.950 . S
C8571 C8570 1.414 . S
C8571 C8572 1.374 . S
C8572 H8546 0.950 . S
C8572 C8568 1.385 . S
C8572 C8571 1.374 . S
C8573 C8570 1.499 . S
C8573 C8574 1.373 . S
C8573 C8575 1.389 . S
C8574 H8547 0.950 . S
C8574 C8560 1.377 . S
C8574 C8573 1.373 . S
C8575 C8559 1.377 . S
C8575 C8573 1.389 . S
C8575 C8576 1.524 . S
C8576 C8575 1.524 . S
C8576 C8577 1.397 . S
C8576 C8581 1.363 . S
C8577 H8548 0.950 . S
C8577 C8576 1.397 . S
C8577 C8578 1.334 . S
C8578 H8549 0.950 . S
C8578 C8577 1.334 . S
C8578 C8579 1.287 . S
C8579 C8578 1.287 . S
C8579 C8580 1.524 . S
C8579 H8582 0.999 . S
C8580 H8550 0.950 . S
C8580 C8579 1.524 . S
C8580 C8581 1.415 . S
C8581 H8551 0.950 . S
C8581 C8576 1.363 . S
C8581 C8580 1.415 . S
H8582 C8579 0.999 . S
H8583 C8564 0.913 . S
H8584 C8602 0.951 . S
H8585 C8604 0.951 . S
H8586 C8606 0.950 . S
H8587 C8607 0.950 . S
H8588 C8609 0.950 . S
H8589 C8612 0.950 . S
H8590 C8613 0.950 . S
H8591 C8615 0.950 . S
H8592 C8616 0.950 . S
H8593 C8617 0.951 . S
H8594 C8619 0.951 . S
H8595 C8621 0.950 . S
H8596 C8622 0.950 . S
H8597 C8624 0.950 . S
H8598 C8627 0.950 . S
H8599 C8628 0.950 . S
H8600 C8630 0.950 . S
H8601 C8631 0.950 . S
C8602 H8584 0.951 . S
C8602 C8603 1.366 . S
C8602 C8604 1.388 . S
C8603 C8602 1.366 . S
C8603 C8607 1.385 . S
C8604 H8585 0.951 . S
C8604 C8602 1.388 . S
C8604 C8605 1.366 . S
C8605 C8604 1.366 . S
C8605 C8606 1.414 . S
C8605 C8608 1.499 . S
C8606 H8586 0.950 . S
C8606 C8605 1.414 . S
C8606 C8607 1.374 . S
C8607 H8587 0.950 . S
C8607 C8603 1.385 . S
C8607 C8606 1.374 . S
C8608 C8605 1.499 . S
C8608 C8609 1.373 . S
C8608 C8610 1.389 . S
C8609 H8588 0.950 . S
C8609 C8608 1.373 . S
C8609 C8625 1.377 . S
C8610 C8608 1.389 . S
C8610 C8611 1.524 . S
C8610 C8624 1.377 . S
C8611 C8610 1.524 . S
C8611 C8612 1.397 . S
C8611 C8616 1.363 . S
C8612 H8589 0.950 . S
C8612 C8611 1.397 . S
C8612 C8613 1.334 . S
C8613 H8590 0.950 . S
C8613 C8612 1.334 . S
C8613 C8614 1.287 . S
C8614 C8613 1.287 . S
C8614 C8615 1.524 . S
C8614 H8633 0.913 . S
C8615 H8591 0.950 . S
C8615 C8614 1.524 . S
C8615 C8616 1.415 . S
C8616 H8592 0.950 . S
C8616 C8611 1.363 . S
C8616 C8615 1.415 . S
C8617 H8593 0.951 . S
C8617 C8618 1.366 . S
C8617 C8619 1.388 . S
C8618 C8617 1.366 . S
C8618 C8622 1.385 . S
C8619 H8594 0.951 . S
C8619 C8617 1.388 . S
C8619 C8620 1.366 . S
C8620 C8619 1.366 . S
C8620 C8621 1.414 . S
C8620 C8623 1.499 . S
C8621 H8595 0.950 . S
C8621 C8620 1.414 . S
C8621 C8622 1.374 . S
C8622 H8596 0.950 . S
C8622 C8618 1.385 . S
C8622 C8621 1.374 . S
C8623 C8620 1.499 . S
C8623 C8624 1.373 . S
C8623 C8625 1.389 . S
C8624 H8597 0.950 . S
C8624 C8610 1.377 . S
C8624 C8623 1.373 . S
C8625 C8609 1.377 . S
C8625 C8623 1.389 . S
C8625 C8626 1.524 . S
C8626 C8625 1.524 . S
C8626 C8627 1.397 . S
C8626 C8631 1.363 . S
C8627 H8598 0.950 . S
C8627 C8626 1.397 . S
C8627 C8628 1.334 . S
C8628 H8599 0.950 . S
C8628 C8627 1.334 . S
C8628 C8629 1.287 . S
C8629 C8628 1.287 . S
C8629 C8630 1.524 . S
C8629 H8632 0.999 . S
C8630 H8600 0.950 . S
C8630 C8629 1.524 . S
C8630 C8631 1.415 . S
C8631 H8601 0.950 . S
C8631 C8626 1.363 . S
C8631 C8630 1.415 . S
H8632 C8629 0.999 . S
H8633 C8614 0.913 . S
H8634 C8652 0.951 . S
H8635 C8654 0.951 . S
H8636 C8656 0.950 . S
H8637 C8657 0.950 . S
H8638 C8659 0.950 . S
H8639 C8662 0.950 . S
H8640 C8663 0.950 . S
H8641 C8665 0.950 . S
H8642 C8666 0.950 . S
H8643 C8667 0.951 . S
H8644 C8669 0.951 . S
H8645 C8671 0.950 . S
H8646 C8672 0.950 . S
H8647 C8674 0.950 . S
H8648 C8677 0.950 . S
H8649 C8678 0.950 . S
H8650 C8680 0.950 . S
H8651 C8681 0.950 . S
C8652 H8634 0.951 . S
C8652 C8653 1.366 . S
C8652 C8654 1.388 . S
C8653 C8652 1.366 . S
C8653 C8657 1.385 . S
C8654 H8635 0.951 . S
C8654 C8652 1.388 . S
C8654 C8655 1.366 . S
C8655 C8654 1.366 . S
C8655 C8656 1.414 . S
C8655 C8658 1.499 . S
C8656 H8636 0.950 . S
C8656 C8655 1.414 . S
C8656 C8657 1.374 . S
C8657 H8637 0.950 . S
C8657 C8653 1.385 . S
C8657 C8656 1.374 . S
C8658 C8655 1.499 . S
C8658 C8659 1.373 . S
C8658 C8660 1.389 . S
C8659 H8638 0.950 . S
C8659 C8658 1.373 . S
C8659 C8675 1.377 1_455 S
C8660 C8658 1.389 . S
C8660 C8661 1.524 . S
C8660 C8674 1.377 1_455 S
C8661 C8660 1.524 . S
C8661 C8662 1.397 . S
C8661 C8666 1.363 . S
C8662 H8639 0.950 . S
C8662 C8661 1.397 . S
C8662 C8663 1.334 . S
C8663 H8640 0.950 . S
C8663 C8662 1.334 . S
C8663 C8664 1.287 . S
C8664 C8663 1.287 . S
C8664 C8665 1.524 . S
C8664 H8683 0.913 . S
C8665 H8641 0.950 . S
C8665 C8664 1.524 . S
C8665 C8666 1.415 . S
C8666 H8642 0.950 . S
C8666 C8661 1.363 . S
C8666 C8665 1.415 . S
C8667 H8643 0.951 . S
C8667 C8668 1.366 . S
C8667 C8669 1.388 . S
C8668 C8667 1.366 . S
C8668 C8672 1.385 . S
C8669 H8644 0.951 . S
C8669 C8667 1.388 . S
C8669 C8670 1.366 . S
C8670 C8669 1.366 . S
C8670 C8671 1.414 . S
C8670 C8673 1.499 . S
C8671 H8645 0.950 . S
C8671 C8670 1.414 . S
C8671 C8672 1.374 . S
C8672 H8646 0.950 . S
C8672 C8668 1.385 . S
C8672 C8671 1.374 . S
C8673 C8670 1.499 . S
C8673 C8674 1.373 . S
C8673 C8675 1.389 . S
C8674 H8647 0.950 . S
C8674 C8660 1.377 1_655 S
C8674 C8673 1.373 . S
C8675 C8659 1.377 1_655 S
C8675 C8673 1.389 . S
C8675 C8676 1.524 . S
C8676 C8675 1.524 . S
C8676 C8677 1.397 . S
C8676 C8681 1.363 . S
C8677 H8648 0.950 . S
C8677 C8676 1.397 . S
C8677 C8678 1.334 . S
C8678 H8649 0.950 . S
C8678 C8677 1.334 . S
C8678 C8679 1.287 . S
C8679 C8678 1.287 . S
C8679 C8680 1.524 . S
C8679 H8682 0.999 . S
C8680 H8650 0.950 . S
C8680 C8679 1.524 . S
C8680 C8681 1.415 . S
C8681 H8651 0.950 . S
C8681 C8676 1.363 . S
C8681 C8680 1.415 . S
H8682 C8679 0.999 . S
H8683 C8664 0.913 . S
H8684 C8702 0.951 . S
H8685 C8704 0.951 . S
H8686 C8706 0.950 . S
H8687 C8707 0.950 . S
H8688 C8709 0.950 . S
H8689 C8712 0.950 . S
H8690 C8713 0.950 . S
H8691 C8715 0.950 . S
H8692 C8716 0.950 . S
H8693 C8717 0.951 . S
H8694 C8719 0.951 . S
H8695 C8721 0.950 . S
H8696 C8722 0.950 . S
H8697 C8724 0.950 . S
H8698 C8727 0.950 . S
H8699 C8728 0.950 . S
H8700 C8730 0.950 . S
H8701 C8731 0.950 . S
C8702 H8684 0.951 . S
C8702 C8703 1.366 . S
C8702 C8704 1.388 . S
C8703 C8702 1.366 . S
C8703 C8707 1.385 . S
C8704 H8685 0.951 . S
C8704 C8702 1.388 . S
C8704 C8705 1.366 . S
C8705 C8704 1.366 . S
C8705 C8706 1.414 . S
C8705 C8708 1.499 . S
C8706 H8686 0.950 . S
C8706 C8705 1.414 . S
C8706 C8707 1.374 . S
C8707 H8687 0.950 . S
C8707 C8703 1.385 . S
C8707 C8706 1.374 . S
C8708 C8705 1.499 . S
C8708 C8709 1.373 . S
C8708 C8710 1.389 . S
C8709 H8688 0.950 . S
C8709 C8708 1.373 . S
C8709 C8725 1.377 . S
C8710 C8708 1.389 . S
C8710 C8711 1.524 . S
C8710 C8724 1.377 . S
C8711 C8710 1.524 . S
C8711 C8712 1.397 . S
C8711 C8716 1.363 . S
C8712 H8689 0.950 . S
C8712 C8711 1.397 . S
C8712 C8713 1.334 . S
C8713 H8690 0.950 . S
C8713 C8712 1.334 . S
C8713 C8714 1.287 . S
C8714 C8713 1.287 . S
C8714 C8715 1.524 . S
C8714 H8733 0.913 . S
C8715 H8691 0.950 . S
C8715 C8714 1.524 . S
C8715 C8716 1.415 . S
C8716 H8692 0.950 . S
C8716 C8711 1.363 . S
C8716 C8715 1.415 . S
C8717 H8693 0.951 . S
C8717 C8718 1.366 . S
C8717 C8719 1.388 . S
C8718 C8717 1.366 . S
C8718 C8722 1.385 . S
C8719 H8694 0.951 . S
C8719 C8717 1.388 . S
C8719 C8720 1.366 . S
C8720 C8719 1.366 . S
C8720 C8721 1.414 . S
C8720 C8723 1.499 . S
C8721 H8695 0.950 . S
C8721 C8720 1.414 . S
C8721 C8722 1.374 . S
C8722 H8696 0.950 . S
C8722 C8718 1.385 . S
C8722 C8721 1.374 . S
C8723 C8720 1.499 . S
C8723 C8724 1.373 . S
C8723 C8725 1.389 . S
C8724 H8697 0.950 . S
C8724 C8710 1.377 . S
C8724 C8723 1.373 . S
C8725 C8709 1.377 . S
C8725 C8723 1.389 . S
C8725 C8726 1.524 . S
C8726 C8725 1.524 . S
C8726 C8727 1.397 . S
C8726 C8731 1.363 . S
C8727 H8698 0.950 . S
C8727 C8726 1.397 . S
C8727 C8728 1.334 . S
C8728 H8699 0.950 . S
C8728 C8727 1.334 . S
C8728 C8729 1.287 . S
C8729 C8728 1.287 . S
C8729 C8730 1.524 . S
C8729 H8732 0.999 . S
C8730 H8700 0.950 . S
C8730 C8729 1.524 . S
C8730 C8731 1.415 . S
C8731 H8701 0.950 . S
C8731 C8726 1.363 . S
C8731 C8730 1.415 . S
H8732 C8729 0.999 . S
H8733 C8714 0.913 . S
H8734 C8752 0.951 . S
H8735 C8754 0.951 . S
H8736 C8756 0.950 . S
H8737 C8757 0.950 . S
H8738 C8759 0.950 . S
H8739 C8762 0.950 . S
H8740 C8763 0.950 . S
H8741 C8765 0.950 . S
H8742 C8766 0.950 . S
H8743 C8767 0.951 . S
H8744 C8769 0.951 . S
H8745 C8771 0.950 . S
H8746 C8772 0.950 . S
H8747 C8774 0.950 . S
H8748 C8777 0.950 . S
H8749 C8778 0.950 . S
H8750 C8780 0.950 . S
H8751 C8781 0.950 . S
C8752 H8734 0.951 . S
C8752 C8753 1.366 . S
C8752 C8754 1.388 . S
C8753 C8752 1.366 . S
C8753 C8757 1.385 . S
C8754 H8735 0.951 . S
C8754 C8752 1.388 . S
C8754 C8755 1.366 . S
C8755 C8754 1.366 . S
C8755 C8756 1.414 . S
C8755 C8758 1.499 . S
C8756 H8736 0.950 . S
C8756 C8755 1.414 . S
C8756 C8757 1.374 . S
C8757 H8737 0.950 . S
C8757 C8753 1.385 . S
C8757 C8756 1.374 . S
C8758 C8755 1.499 . S
C8758 C8759 1.373 . S
C8758 C8760 1.389 . S
C8759 H8738 0.950 . S
C8759 C8758 1.373 . S
C8759 C8775 1.377 . S
C8760 C8758 1.389 . S
C8760 C8761 1.524 . S
C8760 C8774 1.377 . S
C8761 C8760 1.524 . S
C8761 C8762 1.397 . S
C8761 C8766 1.363 . S
C8762 H8739 0.950 . S
C8762 C8761 1.397 . S
C8762 C8763 1.334 . S
C8763 H8740 0.950 . S
C8763 C8762 1.334 . S
C8763 C8764 1.287 . S
C8764 C8763 1.287 . S
C8764 C8765 1.524 . S
C8764 H8783 0.913 . S
C8765 H8741 0.950 . S
C8765 C8764 1.524 . S
C8765 C8766 1.415 . S
C8766 H8742 0.950 . S
C8766 C8761 1.363 . S
C8766 C8765 1.415 . S
C8767 H8743 0.951 . S
C8767 C8768 1.366 . S
C8767 C8769 1.388 . S
C8768 C8767 1.366 . S
C8768 C8772 1.385 . S
C8769 H8744 0.951 . S
C8769 C8767 1.388 . S
C8769 C8770 1.366 . S
C8770 C8769 1.366 . S
C8770 C8771 1.414 . S
C8770 C8773 1.499 . S
C8771 H8745 0.950 . S
C8771 C8770 1.414 . S
C8771 C8772 1.374 . S
C8772 H8746 0.950 . S
C8772 C8768 1.385 . S
C8772 C8771 1.374 . S
C8773 C8770 1.499 . S
C8773 C8774 1.373 . S
C8773 C8775 1.389 . S
C8774 H8747 0.950 . S
C8774 C8760 1.377 . S
C8774 C8773 1.373 . S
C8775 C8759 1.377 . S
C8775 C8773 1.389 . S
C8775 C8776 1.524 . S
C8776 C8775 1.524 . S
C8776 C8777 1.397 . S
C8776 C8781 1.363 . S
C8777 H8748 0.950 . S
C8777 C8776 1.397 . S
C8777 C8778 1.334 . S
C8778 H8749 0.950 . S
C8778 C8777 1.334 . S
C8778 C8779 1.287 . S
C8779 C8778 1.287 . S
C8779 C8780 1.524 . S
C8779 H8782 0.999 . S
C8780 H8750 0.950 . S
C8780 C8779 1.524 . S
C8780 C8781 1.415 . S
C8781 H8751 0.950 . S
C8781 C8776 1.363 . S
C8781 C8780 1.415 . S
H8782 C8779 0.999 . S
H8783 C8764 0.913 . S
H8784 C8802 0.951 . S
H8785 C8804 0.951 . S
H8786 C8806 0.950 . S
H8787 C8807 0.950 . S
H8788 C8809 0.950 . S
H8789 C8812 0.950 . S
H8790 C8813 0.950 . S
H8791 C8815 0.950 . S
H8792 C8816 0.950 . S
H8793 C8817 0.951 . S
H8794 C8819 0.951 . S
H8795 C8821 0.950 . S
H8796 C8822 0.950 . S
H8797 C8824 0.950 . S
H8798 C8827 0.950 . S
H8799 C8828 0.950 . S
H8800 C8830 0.950 . S
H8801 C8831 0.950 . S
C8802 H8784 0.951 . S
C8802 C8803 1.366 . S
C8802 C8804 1.388 . S
C8803 C8802 1.366 . S
C8803 C8807 1.385 . S
C8804 H8785 0.951 . S
C8804 C8802 1.388 . S
C8804 C8805 1.366 . S
C8805 C8804 1.366 . S
C8805 C8806 1.414 . S
C8805 C8808 1.499 . S
C8806 H8786 0.950 . S
C8806 C8805 1.414 . S
C8806 C8807 1.374 . S
C8807 H8787 0.950 . S
C8807 C8803 1.385 . S
C8807 C8806 1.374 . S
C8808 C8805 1.499 . S
C8808 C8809 1.373 . S
C8808 C8810 1.389 . S
C8809 H8788 0.950 . S
C8809 C8808 1.373 . S
C8809 C8825 1.377 . S
C8810 C8808 1.389 . S
C8810 C8811 1.524 . S
C8810 C8824 1.377 . S
C8811 C8810 1.524 . S
C8811 C8812 1.397 . S
C8811 C8816 1.363 . S
C8812 H8789 0.950 . S
C8812 C8811 1.397 . S
C8812 C8813 1.334 . S
C8813 H8790 0.950 . S
C8813 C8812 1.334 . S
C8813 C8814 1.287 . S
C8814 C8813 1.287 . S
C8814 C8815 1.524 . S
C8814 H8833 0.913 . S
C8815 H8791 0.950 . S
C8815 C8814 1.524 . S
C8815 C8816 1.415 . S
C8816 H8792 0.950 . S
C8816 C8811 1.363 . S
C8816 C8815 1.415 . S
C8817 H8793 0.951 . S
C8817 C8818 1.366 . S
C8817 C8819 1.388 . S
C8818 C8817 1.366 . S
C8818 C8822 1.385 . S
C8819 H8794 0.951 . S
C8819 C8817 1.388 . S
C8819 C8820 1.366 . S
C8820 C8819 1.366 . S
C8820 C8821 1.414 . S
C8820 C8823 1.499 . S
C8821 H8795 0.950 . S
C8821 C8820 1.414 . S
C8821 C8822 1.374 . S
C8822 H8796 0.950 . S
C8822 C8818 1.385 . S
C8822 C8821 1.374 . S
C8823 C8820 1.499 . S
C8823 C8824 1.373 . S
C8823 C8825 1.389 . S
C8824 H8797 0.950 . S
C8824 C8810 1.377 . S
C8824 C8823 1.373 . S
C8825 C8809 1.377 . S
C8825 C8823 1.389 . S
C8825 C8826 1.524 . S
C8826 C8825 1.524 . S
C8826 C8827 1.397 . S
C8826 C8831 1.363 . S
C8827 H8798 0.950 . S
C8827 C8826 1.397 . S
C8827 C8828 1.334 . S
C8828 H8799 0.950 . S
C8828 C8827 1.334 . S
C8828 C8829 1.287 . S
C8829 C8828 1.287 . S
C8829 C8830 1.524 . S
C8829 H8832 0.999 . S
C8830 H8800 0.950 . S
C8830 C8829 1.524 . S
C8830 C8831 1.415 . S
C8831 H8801 0.950 . S
C8831 C8826 1.363 . S
C8831 C8830 1.415 . S
H8832 C8829 0.999 . S
H8833 C8814 0.913 . S
H8834 C8852 0.951 . S
H8835 C8854 0.951 . S
H8836 C8856 0.950 . S
H8837 C8857 0.950 . S
H8838 C8859 0.950 . S
H8839 C8862 0.950 . S
H8840 C8863 0.950 . S
H8841 C8865 0.950 . S
H8842 C8866 0.950 . S
H8843 C8867 0.951 . S
H8844 C8869 0.951 . S
H8845 C8871 0.950 . S
H8846 C8872 0.950 . S
H8847 C8874 0.950 . S
H8848 C8877 0.950 . S
H8849 C8878 0.950 . S
H8850 C8880 0.950 . S
H8851 C8881 0.950 . S
C8852 H8834 0.951 . S
C8852 C8853 1.366 . S
C8852 C8854 1.388 . S
C8853 C8852 1.366 . S
C8853 C8857 1.385 . S
C8854 H8835 0.951 . S
C8854 C8852 1.388 . S
C8854 C8855 1.366 . S
C8855 C8854 1.366 . S
C8855 C8856 1.414 . S
C8855 C8858 1.499 . S
C8856 H8836 0.950 . S
C8856 C8855 1.414 . S
C8856 C8857 1.374 . S
C8857 H8837 0.950 . S
C8857 C8853 1.385 . S
C8857 C8856 1.374 . S
C8858 C8855 1.499 . S
C8858 C8859 1.373 . S
C8858 C8860 1.389 . S
C8859 H8838 0.950 . S
C8859 C8858 1.373 . S
C8859 C8875 1.377 . S
C8860 C8858 1.389 . S
C8860 C8861 1.524 . S
C8860 C8874 1.377 . S
C8861 C8860 1.524 . S
C8861 C8862 1.397 . S
C8861 C8866 1.363 . S
C8862 H8839 0.950 . S
C8862 C8861 1.397 . S
C8862 C8863 1.334 . S
C8863 H8840 0.950 . S
C8863 C8862 1.334 . S
C8863 C8864 1.287 . S
C8864 C8863 1.287 . S
C8864 C8865 1.524 . S
C8864 H8883 0.913 . S
C8865 H8841 0.950 . S
C8865 C8864 1.524 . S
C8865 C8866 1.415 . S
C8866 H8842 0.950 . S
C8866 C8861 1.363 . S
C8866 C8865 1.415 . S
C8867 H8843 0.951 . S
C8867 C8868 1.366 . S
C8867 C8869 1.388 . S
C8868 C8867 1.366 . S
C8868 C8872 1.385 . S
C8869 H8844 0.951 . S
C8869 C8867 1.388 . S
C8869 C8870 1.366 . S
C8870 C8869 1.366 . S
C8870 C8871 1.414 . S
C8870 C8873 1.499 . S
C8871 H8845 0.950 . S
C8871 C8870 1.414 . S
C8871 C8872 1.374 . S
C8872 H8846 0.950 . S
C8872 C8868 1.385 . S
C8872 C8871 1.374 . S
C8873 C8870 1.499 . S
C8873 C8874 1.373 . S
C8873 C8875 1.389 . S
C8874 H8847 0.950 . S
C8874 C8860 1.377 . S
C8874 C8873 1.373 . S
C8875 C8859 1.377 . S
C8875 C8873 1.389 . S
C8875 C8876 1.524 . S
C8876 C8875 1.524 . S
C8876 C8877 1.397 . S
C8876 C8881 1.363 . S
C8877 H8848 0.950 . S
C8877 C8876 1.397 . S
C8877 C8878 1.334 . S
C8878 H8849 0.950 . S
C8878 C8877 1.334 . S
C8878 C8879 1.287 . S
C8879 C8878 1.287 . S
C8879 C8880 1.524 . S
C8879 H8882 0.999 . S
C8880 H8850 0.950 . S
C8880 C8879 1.524 . S
C8880 C8881 1.415 . S
C8881 H8851 0.950 . S
C8881 C8876 1.363 . S
C8881 C8880 1.415 . S
H8882 C8879 0.999 . S
H8883 C8864 0.913 . S
H8884 C8902 0.951 . S
H8885 C8904 0.951 . S
H8886 C8906 0.950 . S
H8887 C8907 0.950 . S
H8888 C8909 0.950 . S
H8889 C8912 0.950 . S
H8890 C8913 0.950 . S
H8891 C8915 0.950 . S
H8892 C8916 0.950 . S
H8893 C8917 0.951 . S
H8894 C8919 0.951 . S
H8895 C8921 0.950 . S
H8896 C8922 0.950 . S
H8897 C8924 0.950 . S
H8898 C8927 0.950 . S
H8899 C8928 0.950 . S
H8900 C8930 0.950 . S
H8901 C8931 0.950 . S
C8902 H8884 0.951 . S
C8902 C8903 1.366 . S
C8902 C8904 1.388 . S
C8903 C8902 1.366 . S
C8903 C8907 1.385 . S
C8904 H8885 0.951 . S
C8904 C8902 1.388 . S
C8904 C8905 1.366 . S
C8905 C8904 1.366 . S
C8905 C8906 1.414 . S
C8905 C8908 1.499 . S
C8906 H8886 0.950 . S
C8906 C8905 1.414 . S
C8906 C8907 1.374 . S
C8907 H8887 0.950 . S
C8907 C8903 1.385 . S
C8907 C8906 1.374 . S
C8908 C8905 1.499 . S
C8908 C8909 1.373 . S
C8908 C8910 1.389 . S
C8909 H8888 0.950 . S
C8909 C8908 1.373 . S
C8909 C8925 1.377 . S
C8910 C8908 1.389 . S
C8910 C8911 1.524 . S
C8910 C8924 1.377 . S
C8911 C8910 1.524 . S
C8911 C8912 1.397 . S
C8911 C8916 1.363 . S
C8912 H8889 0.950 . S
C8912 C8911 1.397 . S
C8912 C8913 1.334 . S
C8913 H8890 0.950 . S
C8913 C8912 1.334 . S
C8913 C8914 1.287 . S
C8914 C8913 1.287 . S
C8914 C8915 1.524 . S
C8914 H8933 0.913 . S
C8915 H8891 0.950 . S
C8915 C8914 1.524 . S
C8915 C8916 1.415 . S
C8916 H8892 0.950 . S
C8916 C8911 1.363 . S
C8916 C8915 1.415 . S
C8917 H8893 0.951 . S
C8917 C8918 1.366 . S
C8917 C8919 1.388 . S
C8918 C8917 1.366 . S
C8918 C8922 1.385 . S
C8919 H8894 0.951 . S
C8919 C8917 1.388 . S
C8919 C8920 1.366 . S
C8920 C8919 1.366 . S
C8920 C8921 1.414 . S
C8920 C8923 1.499 . S
C8921 H8895 0.950 . S
C8921 C8920 1.414 . S
C8921 C8922 1.374 . S
C8922 H8896 0.950 . S
C8922 C8918 1.385 . S
C8922 C8921 1.374 . S
C8923 C8920 1.499 . S
C8923 C8924 1.373 . S
C8923 C8925 1.389 . S
C8924 H8897 0.950 . S
C8924 C8910 1.377 . S
C8924 C8923 1.373 . S
C8925 C8909 1.377 . S
C8925 C8923 1.389 . S
C8925 C8926 1.524 . S
C8926 C8925 1.524 . S
C8926 C8927 1.397 . S
C8926 C8931 1.363 . S
C8927 H8898 0.950 . S
C8927 C8926 1.397 . S
C8927 C8928 1.334 . S
C8928 H8899 0.950 . S
C8928 C8927 1.334 . S
C8928 C8929 1.287 . S
C8929 C8928 1.287 . S
C8929 C8930 1.524 . S
C8929 H8932 0.999 . S
C8930 H8900 0.950 . S
C8930 C8929 1.524 . S
C8930 C8931 1.415 . S
C8931 H8901 0.950 . S
C8931 C8926 1.363 . S
C8931 C8930 1.415 . S
H8932 C8929 0.999 . S
H8933 C8914 0.913 . S
H8934 C8952 0.951 . S
H8935 C8954 0.951 . S
H8936 C8956 0.950 . S
H8937 C8957 0.950 . S
H8938 C8959 0.950 . S
H8939 C8962 0.950 . S
H8940 C8963 0.950 . S
H8941 C8965 0.950 . S
H8942 C8966 0.950 . S
H8943 C8967 0.951 . S
H8944 C8969 0.951 . S
H8945 C8971 0.950 . S
H8946 C8972 0.950 . S
H8947 C8974 0.950 . S
H8948 C8977 0.950 . S
H8949 C8978 0.950 . S
H8950 C8980 0.950 . S
H8951 C8981 0.950 . S
C8952 H8934 0.951 . S
C8952 C8953 1.366 . S
C8952 C8954 1.388 . S
C8953 C8952 1.366 . S
C8953 C8957 1.385 . S
C8954 H8935 0.951 . S
C8954 C8952 1.388 . S
C8954 C8955 1.366 . S
C8955 C8954 1.366 . S
C8955 C8956 1.414 . S
C8955 C8958 1.499 . S
C8956 H8936 0.950 . S
C8956 C8955 1.414 . S
C8956 C8957 1.374 . S
C8957 H8937 0.950 . S
C8957 C8953 1.385 . S
C8957 C8956 1.374 . S
C8958 C8955 1.499 . S
C8958 C8959 1.373 . S
C8958 C8960 1.389 . S
C8959 H8938 0.950 . S
C8959 C8958 1.373 . S
C8959 C8975 1.377 . S
C8960 C8958 1.389 . S
C8960 C8961 1.524 . S
C8960 C8974 1.377 . S
C8961 C8960 1.524 . S
C8961 C8962 1.397 . S
C8961 C8966 1.363 . S
C8962 H8939 0.950 . S
C8962 C8961 1.397 . S
C8962 C8963 1.334 . S
C8963 H8940 0.950 . S
C8963 C8962 1.334 . S
C8963 C8964 1.287 . S
C8964 C8963 1.287 . S
C8964 C8965 1.524 . S
C8964 H8983 0.913 . S
C8965 H8941 0.950 . S
C8965 C8964 1.524 . S
C8965 C8966 1.415 . S
C8966 H8942 0.950 . S
C8966 C8961 1.363 . S
C8966 C8965 1.415 . S
C8967 H8943 0.951 . S
C8967 C8968 1.366 . S
C8967 C8969 1.388 . S
C8968 C8967 1.366 . S
C8968 C8972 1.385 . S
C8969 H8944 0.951 . S
C8969 C8967 1.388 . S
C8969 C8970 1.366 . S
C8970 C8969 1.366 . S
C8970 C8971 1.414 . S
C8970 C8973 1.499 . S
C8971 H8945 0.950 . S
C8971 C8970 1.414 . S
C8971 C8972 1.374 . S
C8972 H8946 0.950 . S
C8972 C8968 1.385 . S
C8972 C8971 1.374 . S
C8973 C8970 1.499 . S
C8973 C8974 1.373 . S
C8973 C8975 1.389 . S
C8974 H8947 0.950 . S
C8974 C8960 1.377 . S
C8974 C8973 1.373 . S
C8975 C8959 1.377 . S
C8975 C8973 1.389 . S
C8975 C8976 1.524 . S
C8976 C8975 1.524 . S
C8976 C8977 1.397 . S
C8976 C8981 1.363 . S
C8977 H8948 0.950 . S
C8977 C8976 1.397 . S
C8977 C8978 1.334 . S
C8978 H8949 0.950 . S
C8978 C8977 1.334 . S
C8978 C8979 1.287 . S
C8979 C8978 1.287 . S
C8979 C8980 1.524 . S
C8979 H8982 0.999 . S
C8980 H8950 0.950 . S
C8980 C8979 1.524 . S
C8980 C8981 1.415 . S
C8981 H8951 0.950 . S
C8981 C8976 1.363 . S
C8981 C8980 1.415 . S
H8982 C8979 0.999 . S
H8983 C8964 0.913 . S
H8984 C9002 0.951 . S
H8985 C9004 0.951 . S
H8986 C9006 0.950 . S
H8987 C9007 0.950 . S
H8988 C9009 0.950 . S
H8989 C9012 0.950 . S
H8990 C9013 0.950 . S
H8991 C9015 0.950 . S
H8992 C9016 0.950 . S
H8993 C9017 0.951 . S
H8994 C9019 0.951 . S
H8995 C9021 0.950 . S
H8996 C9022 0.950 . S
H8997 C9024 0.950 . S
H8998 C9027 0.950 . S
H8999 C9028 0.950 . S
H9000 C9030 0.950 . S
H9001 C9031 0.950 . S
C9002 H8984 0.951 . S
C9002 C9003 1.366 . S
C9002 C9004 1.388 . S
C9003 C9002 1.366 . S
C9003 C9007 1.385 . S
C9004 H8985 0.951 . S
C9004 C9002 1.388 . S
C9004 C9005 1.366 . S
C9005 C9004 1.366 . S
C9005 C9006 1.414 . S
C9005 C9008 1.499 . S
C9006 H8986 0.950 . S
C9006 C9005 1.414 . S
C9006 C9007 1.374 . S
C9007 H8987 0.950 . S
C9007 C9003 1.385 . S
C9007 C9006 1.374 . S
C9008 C9005 1.499 . S
C9008 C9009 1.373 . S
C9008 C9010 1.389 . S
C9009 H8988 0.950 . S
C9009 C9008 1.373 . S
C9009 C9025 1.377 1_554 S
C9010 C9008 1.389 . S
C9010 C9011 1.524 . S
C9010 C9024 1.377 1_554 S
C9011 C9010 1.524 . S
C9011 C9012 1.397 . S
C9011 C9016 1.363 . S
C9012 H8989 0.950 . S
C9012 C9011 1.397 . S
C9012 C9013 1.334 . S
C9013 H8990 0.950 . S
C9013 C9012 1.334 . S
C9013 C9014 1.287 . S
C9014 C9013 1.287 . S
C9014 C9015 1.524 . S
C9014 H9033 0.913 . S
C9015 H8991 0.950 . S
C9015 C9014 1.524 . S
C9015 C9016 1.415 . S
C9016 H8992 0.950 . S
C9016 C9011 1.363 . S
C9016 C9015 1.415 . S
C9017 H8993 0.951 . S
C9017 C9018 1.366 . S
C9017 C9019 1.388 . S
C9018 C9017 1.366 . S
C9018 C9022 1.385 . S
C9019 H8994 0.951 . S
C9019 C9017 1.388 . S
C9019 C9020 1.366 . S
C9020 C9019 1.366 . S
C9020 C9021 1.414 . S
C9020 C9023 1.499 . S
C9021 H8995 0.950 . S
C9021 C9020 1.414 . S
C9021 C9022 1.374 . S
C9022 H8996 0.950 . S
C9022 C9018 1.385 . S
C9022 C9021 1.374 . S
C9023 C9020 1.499 . S
C9023 C9024 1.373 . S
C9023 C9025 1.389 . S
C9024 H8997 0.950 . S
C9024 C9010 1.377 1_556 S
C9024 C9023 1.373 . S
C9025 C9009 1.377 1_556 S
C9025 C9023 1.389 . S
C9025 C9026 1.524 . S
C9026 C9025 1.524 . S
C9026 C9027 1.397 . S
C9026 C9031 1.363 . S
C9027 H8998 0.950 . S
C9027 C9026 1.397 . S
C9027 C9028 1.334 . S
C9028 H8999 0.950 . S
C9028 C9027 1.334 . S
C9028 C9029 1.287 . S
C9029 C9028 1.287 . S
C9029 C9030 1.524 . S
C9029 H9032 0.999 . S
C9030 H9000 0.950 . S
C9030 C9029 1.524 . S
C9030 C9031 1.415 . S
C9031 H9001 0.950 . S
C9031 C9026 1.363 . S
C9031 C9030 1.415 . S
H9032 C9029 0.999 . S
H9033 C9014 0.913 . S
H9034 C9052 0.951 . S
H9035 C9054 0.951 . S
H9036 C9056 0.950 . S
H9037 C9057 0.950 . S
H9038 C9059 0.950 . S
H9039 C9062 0.950 . S
H9040 C9063 0.950 . S
H9041 C9065 0.950 . S
H9042 C9066 0.950 . S
H9043 C9067 0.951 . S
H9044 C9069 0.951 . S
H9045 C9071 0.950 . S
H9046 C9072 0.950 . S
H9047 C9074 0.950 . S
H9048 C9077 0.950 . S
H9049 C9078 0.950 . S
H9050 C9080 0.950 . S
H9051 C9081 0.950 . S
C9052 H9034 0.951 . S
C9052 C9053 1.366 . S
C9052 C9054 1.388 . S
C9053 C9052 1.366 . S
C9053 C9057 1.385 . S
C9054 H9035 0.951 . S
C9054 C9052 1.388 . S
C9054 C9055 1.366 . S
C9055 C9054 1.366 . S
C9055 C9056 1.414 . S
C9055 C9058 1.499 . S
C9056 H9036 0.950 . S
C9056 C9055 1.414 . S
C9056 C9057 1.374 . S
C9057 H9037 0.950 . S
C9057 C9053 1.385 . S
C9057 C9056 1.374 . S
C9058 C9055 1.499 . S
C9058 C9059 1.373 . S
C9058 C9060 1.389 . S
C9059 H9038 0.950 . S
C9059 C9058 1.373 . S
C9059 C9075 1.377 . S
C9060 C9058 1.389 . S
C9060 C9061 1.524 . S
C9060 C9074 1.377 . S
C9061 C9060 1.524 . S
C9061 C9062 1.397 . S
C9061 C9066 1.363 . S
C9062 H9039 0.950 . S
C9062 C9061 1.397 . S
C9062 C9063 1.334 . S
C9063 H9040 0.950 . S
C9063 C9062 1.334 . S
C9063 C9064 1.287 . S
C9064 C9063 1.287 . S
C9064 C9065 1.524 . S
C9064 H9083 0.913 . S
C9065 H9041 0.950 . S
C9065 C9064 1.524 . S
C9065 C9066 1.415 . S
C9066 H9042 0.950 . S
C9066 C9061 1.363 . S
C9066 C9065 1.415 . S
C9067 H9043 0.951 . S
C9067 C9068 1.366 . S
C9067 C9069 1.388 . S
C9068 C9067 1.366 . S
C9068 C9072 1.385 . S
C9069 H9044 0.951 . S
C9069 C9067 1.388 . S
C9069 C9070 1.366 . S
C9070 C9069 1.366 . S
C9070 C9071 1.414 . S
C9070 C9073 1.499 . S
C9071 H9045 0.950 . S
C9071 C9070 1.414 . S
C9071 C9072 1.374 . S
C9072 H9046 0.950 . S
C9072 C9068 1.385 . S
C9072 C9071 1.374 . S
C9073 C9070 1.499 . S
C9073 C9074 1.373 . S
C9073 C9075 1.389 . S
C9074 H9047 0.950 . S
C9074 C9060 1.377 . S
C9074 C9073 1.373 . S
C9075 C9059 1.377 . S
C9075 C9073 1.389 . S
C9075 C9076 1.524 . S
C9076 C9075 1.524 . S
C9076 C9077 1.397 . S
C9076 C9081 1.363 . S
C9077 H9048 0.950 . S
C9077 C9076 1.397 . S
C9077 C9078 1.334 . S
C9078 H9049 0.950 . S
C9078 C9077 1.334 . S
C9078 C9079 1.287 . S
C9079 C9078 1.287 . S
C9079 C9080 1.524 . S
C9079 H9082 0.999 . S
C9080 H9050 0.950 . S
C9080 C9079 1.524 . S
C9080 C9081 1.415 . S
C9081 H9051 0.950 . S
C9081 C9076 1.363 . S
C9081 C9080 1.415 . S
H9082 C9079 0.999 . S
H9083 C9064 0.913 . S
H9084 C9102 0.951 . S
H9085 C9104 0.951 . S
H9086 C9106 0.950 . S
H9087 C9107 0.950 . S
H9088 C9109 0.950 . S
H9089 C9112 0.950 . S
H9090 C9113 0.950 . S
H9091 C9115 0.950 . S
H9092 C9116 0.950 . S
H9093 C9117 0.951 . S
H9094 C9119 0.951 . S
H9095 C9121 0.950 . S
H9096 C9122 0.950 . S
H9097 C9124 0.950 . S
H9098 C9127 0.950 . S
H9099 C9128 0.950 . S
H9100 C9130 0.950 . S
H9101 C9131 0.950 . S
C9102 H9084 0.951 . S
C9102 C9103 1.366 . S
C9102 C9104 1.388 . S
C9103 C9102 1.366 . S
C9103 C9107 1.385 . S
C9104 H9085 0.951 . S
C9104 C9102 1.388 . S
C9104 C9105 1.366 . S
C9105 C9104 1.366 . S
C9105 C9106 1.414 . S
C9105 C9108 1.499 . S
C9106 H9086 0.950 . S
C9106 C9105 1.414 . S
C9106 C9107 1.374 . S
C9107 H9087 0.950 . S
C9107 C9103 1.385 . S
C9107 C9106 1.374 . S
C9108 C9105 1.499 . S
C9108 C9109 1.373 . S
C9108 C9110 1.389 . S
C9109 H9088 0.950 . S
C9109 C9108 1.373 . S
C9109 C9125 1.377 . S
C9110 C9108 1.389 . S
C9110 C9111 1.524 . S
C9110 C9124 1.377 . S
C9111 C9110 1.524 . S
C9111 C9112 1.397 . S
C9111 C9116 1.363 . S
C9112 H9089 0.950 . S
C9112 C9111 1.397 . S
C9112 C9113 1.334 . S
C9113 H9090 0.950 . S
C9113 C9112 1.334 . S
C9113 C9114 1.287 . S
C9114 C9113 1.287 . S
C9114 C9115 1.524 . S
C9114 H9133 0.913 . S
C9115 H9091 0.950 . S
C9115 C9114 1.524 . S
C9115 C9116 1.415 . S
C9116 H9092 0.950 . S
C9116 C9111 1.363 . S
C9116 C9115 1.415 . S
C9117 H9093 0.951 . S
C9117 C9118 1.366 . S
C9117 C9119 1.388 . S
C9118 C9117 1.366 . S
C9118 C9122 1.385 . S
C9119 H9094 0.951 . S
C9119 C9117 1.388 . S
C9119 C9120 1.366 . S
C9120 C9119 1.366 . S
C9120 C9121 1.414 . S
C9120 C9123 1.499 . S
C9121 H9095 0.950 . S
C9121 C9120 1.414 . S
C9121 C9122 1.374 . S
C9122 H9096 0.950 . S
C9122 C9118 1.385 . S
C9122 C9121 1.374 . S
C9123 C9120 1.499 . S
C9123 C9124 1.373 . S
C9123 C9125 1.389 . S
C9124 H9097 0.950 . S
C9124 C9110 1.377 . S
C9124 C9123 1.373 . S
C9125 C9109 1.377 . S
C9125 C9123 1.389 . S
C9125 C9126 1.524 . S
C9126 C9125 1.524 . S
C9126 C9127 1.397 . S
C9126 C9131 1.363 . S
C9127 H9098 0.950 . S
C9127 C9126 1.397 . S
C9127 C9128 1.334 . S
C9128 H9099 0.950 . S
C9128 C9127 1.334 . S
C9128 C9129 1.287 . S
C9129 C9128 1.287 . S
C9129 C9130 1.524 . S
C9129 H9132 0.999 . S
C9130 H9100 0.950 . S
C9130 C9129 1.524 . S
C9130 C9131 1.415 . S
C9131 H9101 0.950 . S
C9131 C9126 1.363 . S
C9131 C9130 1.415 . S
H9132 C9129 0.999 . S
H9133 C9114 0.913 . S
H9134 C9152 0.951 . S
H9135 C9154 0.951 . S
H9136 C9156 0.950 . S
H9137 C9157 0.950 . S
H9138 C9159 0.950 . S
H9139 C9162 0.950 . S
H9140 C9163 0.950 . S
H9141 C9165 0.950 . S
H9142 C9166 0.950 . S
H9143 C9167 0.951 . S
H9144 C9169 0.951 . S
H9145 C9171 0.950 . S
H9146 C9172 0.950 . S
H9147 C9174 0.950 . S
H9148 C9177 0.950 . S
H9149 C9178 0.950 . S
H9150 C9180 0.950 . S
H9151 C9181 0.950 . S
C9152 H9134 0.951 . S
C9152 C9153 1.366 . S
C9152 C9154 1.388 . S
C9153 C9152 1.366 . S
C9153 C9157 1.385 . S
C9154 H9135 0.951 . S
C9154 C9152 1.388 . S
C9154 C9155 1.366 . S
C9155 C9154 1.366 . S
C9155 C9156 1.414 . S
C9155 C9158 1.499 . S
C9156 H9136 0.950 . S
C9156 C9155 1.414 . S
C9156 C9157 1.374 . S
C9157 H9137 0.950 . S
C9157 C9153 1.385 . S
C9157 C9156 1.374 . S
C9158 C9155 1.499 . S
C9158 C9159 1.373 . S
C9158 C9160 1.389 . S
C9159 H9138 0.950 . S
C9159 C9158 1.373 . S
C9159 C9175 1.377 1_556 S
C9160 C9158 1.389 . S
C9160 C9161 1.524 . S
C9160 C9174 1.377 1_556 S
C9161 C9160 1.524 . S
C9161 C9162 1.397 . S
C9161 C9166 1.363 . S
C9162 H9139 0.950 . S
C9162 C9161 1.397 . S
C9162 C9163 1.334 . S
C9163 H9140 0.950 . S
C9163 C9162 1.334 . S
C9163 C9164 1.287 . S
C9164 C9163 1.287 . S
C9164 C9165 1.524 . S
C9164 H9183 0.913 . S
C9165 H9141 0.950 . S
C9165 C9164 1.524 . S
C9165 C9166 1.415 . S
C9166 H9142 0.950 . S
C9166 C9161 1.363 . S
C9166 C9165 1.415 . S
C9167 H9143 0.951 . S
C9167 C9168 1.366 . S
C9167 C9169 1.388 . S
C9168 C9167 1.366 . S
C9168 C9172 1.385 . S
C9169 H9144 0.951 . S
C9169 C9167 1.388 . S
C9169 C9170 1.366 . S
C9170 C9169 1.366 . S
C9170 C9171 1.414 . S
C9170 C9173 1.499 . S
C9171 H9145 0.950 . S
C9171 C9170 1.414 . S
C9171 C9172 1.374 . S
C9172 H9146 0.950 . S
C9172 C9168 1.385 . S
C9172 C9171 1.374 . S
C9173 C9170 1.499 . S
C9173 C9174 1.373 . S
C9173 C9175 1.389 . S
C9174 H9147 0.950 . S
C9174 C9160 1.377 1_554 S
C9174 C9173 1.373 . S
C9175 C9159 1.377 1_554 S
C9175 C9173 1.389 . S
C9175 C9176 1.524 . S
C9176 C9175 1.524 . S
C9176 C9177 1.397 . S
C9176 C9181 1.363 . S
C9177 H9148 0.950 . S
C9177 C9176 1.397 . S
C9177 C9178 1.334 . S
C9178 H9149 0.950 . S
C9178 C9177 1.334 . S
C9178 C9179 1.287 . S
C9179 C9178 1.287 . S
C9179 C9180 1.524 . S
C9179 H9182 0.999 . S
C9180 H9150 0.950 . S
C9180 C9179 1.524 . S
C9180 C9181 1.415 . S
C9181 H9151 0.950 . S
C9181 C9176 1.363 . S
C9181 C9180 1.415 . S
H9182 C9179 0.999 . S
H9183 C9164 0.913 . S
H9184 C9202 0.951 . S
H9185 C9204 0.951 . S
H9186 C9206 0.950 . S
H9187 C9207 0.950 . S
H9188 C9209 0.950 . S
H9189 C9212 0.950 . S
H9190 C9213 0.950 . S
H9191 C9215 0.950 . S
H9192 C9216 0.950 . S
H9193 C9217 0.951 . S
H9194 C9219 0.951 . S
H9195 C9221 0.950 . S
H9196 C9222 0.950 . S
H9197 C9224 0.950 . S
H9198 C9227 0.950 . S
H9199 C9228 0.950 . S
H9200 C9230 0.950 . S
H9201 C9231 0.950 . S
C9202 H9184 0.951 . S
C9202 C9203 1.366 . S
C9202 C9204 1.388 . S
C9203 C9202 1.366 . S
C9203 C9207 1.385 . S
C9204 H9185 0.951 . S
C9204 C9202 1.388 . S
C9204 C9205 1.366 . S
C9205 C9204 1.366 . S
C9205 C9206 1.414 . S
C9205 C9208 1.499 . S
C9206 H9186 0.950 . S
C9206 C9205 1.414 . S
C9206 C9207 1.374 . S
C9207 H9187 0.950 . S
C9207 C9203 1.385 . S
C9207 C9206 1.374 . S
C9208 C9205 1.499 . S
C9208 C9209 1.373 . S
C9208 C9210 1.389 . S
C9209 H9188 0.950 . S
C9209 C9208 1.373 . S
C9209 C9225 1.377 . S
C9210 C9208 1.389 . S
C9210 C9211 1.524 . S
C9210 C9224 1.377 . S
C9211 C9210 1.524 . S
C9211 C9212 1.397 . S
C9211 C9216 1.363 . S
C9212 H9189 0.950 . S
C9212 C9211 1.397 . S
C9212 C9213 1.334 . S
C9213 H9190 0.950 . S
C9213 C9212 1.334 . S
C9213 C9214 1.287 . S
C9214 C9213 1.287 . S
C9214 C9215 1.524 . S
C9214 H9233 0.913 . S
C9215 H9191 0.950 . S
C9215 C9214 1.524 . S
C9215 C9216 1.415 . S
C9216 H9192 0.950 . S
C9216 C9211 1.363 . S
C9216 C9215 1.415 . S
C9217 H9193 0.951 . S
C9217 C9218 1.366 . S
C9217 C9219 1.388 . S
C9218 C9217 1.366 . S
C9218 C9222 1.385 . S
C9219 H9194 0.951 . S
C9219 C9217 1.388 . S
C9219 C9220 1.366 . S
C9220 C9219 1.366 . S
C9220 C9221 1.414 . S
C9220 C9223 1.499 . S
C9221 H9195 0.950 . S
C9221 C9220 1.414 . S
C9221 C9222 1.374 . S
C9222 H9196 0.950 . S
C9222 C9218 1.385 . S
C9222 C9221 1.374 . S
C9223 C9220 1.499 . S
C9223 C9224 1.373 . S
C9223 C9225 1.389 . S
C9224 H9197 0.950 . S
C9224 C9210 1.377 . S
C9224 C9223 1.373 . S
C9225 C9209 1.377 . S
C9225 C9223 1.389 . S
C9225 C9226 1.524 . S
C9226 C9225 1.524 . S
C9226 C9227 1.397 . S
C9226 C9231 1.363 . S
C9227 H9198 0.950 . S
C9227 C9226 1.397 . S
C9227 C9228 1.334 . S
C9228 H9199 0.950 . S
C9228 C9227 1.334 . S
C9228 C9229 1.287 . S
C9229 C9228 1.287 . S
C9229 C9230 1.524 . S
C9229 H9232 0.999 . S
C9230 H9200 0.950 . S
C9230 C9229 1.524 . S
C9230 C9231 1.415 . S
C9231 H9201 0.950 . S
C9231 C9226 1.363 . S
C9231 C9230 1.415 . S
H9232 C9229 0.999 . S
H9233 C9214 0.913 . S
H9234 C9252 0.951 . S
H9235 C9254 0.951 . S
H9236 C9256 0.950 . S
H9237 C9257 0.950 . S
H9238 C9259 0.950 . S
H9239 C9262 0.950 . S
H9240 C9263 0.950 . S
H9241 C9265 0.950 . S
H9242 C9266 0.950 . S
H9243 C9267 0.951 . S
H9244 C9269 0.951 . S
H9245 C9271 0.950 . S
H9246 C9272 0.950 . S
H9247 C9274 0.950 . S
H9248 C9277 0.950 . S
H9249 C9278 0.950 . S
H9250 C9280 0.950 . S
H9251 C9281 0.950 . S
C9252 H9234 0.951 . S
C9252 C9253 1.366 . S
C9252 C9254 1.388 . S
C9253 C9252 1.366 . S
C9253 C9257 1.385 . S
C9254 H9235 0.951 . S
C9254 C9252 1.388 . S
C9254 C9255 1.366 . S
C9255 C9254 1.366 . S
C9255 C9256 1.414 . S
C9255 C9258 1.499 . S
C9256 H9236 0.950 . S
C9256 C9255 1.414 . S
C9256 C9257 1.374 . S
C9257 H9237 0.950 . S
C9257 C9253 1.385 . S
C9257 C9256 1.374 . S
C9258 C9255 1.499 . S
C9258 C9259 1.373 . S
C9258 C9260 1.389 . S
C9259 H9238 0.950 . S
C9259 C9258 1.373 . S
C9259 C9275 1.377 . S
C9260 C9258 1.389 . S
C9260 C9261 1.524 . S
C9260 C9274 1.377 . S
C9261 C9260 1.524 . S
C9261 C9262 1.397 . S
C9261 C9266 1.363 . S
C9262 H9239 0.950 . S
C9262 C9261 1.397 . S
C9262 C9263 1.334 . S
C9263 H9240 0.950 . S
C9263 C9262 1.334 . S
C9263 C9264 1.287 . S
C9264 C9263 1.287 . S
C9264 C9265 1.524 . S
C9264 H9283 0.913 . S
C9265 H9241 0.950 . S
C9265 C9264 1.524 . S
C9265 C9266 1.415 . S
C9266 H9242 0.950 . S
C9266 C9261 1.363 . S
C9266 C9265 1.415 . S
C9267 H9243 0.951 . S
C9267 C9268 1.366 . S
C9267 C9269 1.388 . S
C9268 C9267 1.366 . S
C9268 C9272 1.385 . S
C9269 H9244 0.951 . S
C9269 C9267 1.388 . S
C9269 C9270 1.366 . S
C9270 C9269 1.366 . S
C9270 C9271 1.414 . S
C9270 C9273 1.499 . S
C9271 H9245 0.950 . S
C9271 C9270 1.414 . S
C9271 C9272 1.374 . S
C9272 H9246 0.950 . S
C9272 C9268 1.385 . S
C9272 C9271 1.374 . S
C9273 C9270 1.499 . S
C9273 C9274 1.373 . S
C9273 C9275 1.389 . S
C9274 H9247 0.950 . S
C9274 C9260 1.377 . S
C9274 C9273 1.373 . S
C9275 C9259 1.377 . S
C9275 C9273 1.389 . S
C9275 C9276 1.524 . S
C9276 C9275 1.524 . S
C9276 C9277 1.397 . S
C9276 C9281 1.363 . S
C9277 H9248 0.950 . S
C9277 C9276 1.397 . S
C9277 C9278 1.334 . S
C9278 H9249 0.950 . S
C9278 C9277 1.334 . S
C9278 C9279 1.287 . S
C9279 C9278 1.287 . S
C9279 C9280 1.524 . S
C9279 H9282 0.999 . S
C9280 H9250 0.950 . S
C9280 C9279 1.524 . S
C9280 C9281 1.415 . S
C9281 H9251 0.950 . S
C9281 C9276 1.363 . S
C9281 C9280 1.415 . S
H9282 C9279 0.999 . S
H9283 C9264 0.913 . S
H9284 C9302 0.951 . S
H9285 C9304 0.951 . S
H9286 C9306 0.950 . S
H9287 C9307 0.950 . S
H9288 C9309 0.950 . S
H9289 C9312 0.950 . S
H9290 C9313 0.950 . S
H9291 C9315 0.950 . S
H9292 C9316 0.950 . S
H9293 C9317 0.951 . S
H9294 C9319 0.951 . S
H9295 C9321 0.950 . S
H9296 C9322 0.950 . S
H9297 C9324 0.950 . S
H9298 C9327 0.950 . S
H9299 C9328 0.950 . S
H9300 C9330 0.950 . S
H9301 C9331 0.950 . S
C9302 H9284 0.951 . S
C9302 C9303 1.366 . S
C9302 C9304 1.388 . S
C9303 C9302 1.366 . S
C9303 C9307 1.385 . S
C9304 H9285 0.951 . S
C9304 C9302 1.388 . S
C9304 C9305 1.366 . S
C9305 C9304 1.366 . S
C9305 C9306 1.414 . S
C9305 C9308 1.499 . S
C9306 H9286 0.950 . S
C9306 C9305 1.414 . S
C9306 C9307 1.374 . S
C9307 H9287 0.950 . S
C9307 C9303 1.385 . S
C9307 C9306 1.374 . S
C9308 C9305 1.499 . S
C9308 C9309 1.373 . S
C9308 C9310 1.389 . S
C9309 H9288 0.950 . S
C9309 C9308 1.373 . S
C9309 C9325 1.377 . S
C9310 C9308 1.389 . S
C9310 C9311 1.524 . S
C9310 C9324 1.377 . S
C9311 C9310 1.524 . S
C9311 C9312 1.397 . S
C9311 C9316 1.363 . S
C9312 H9289 0.950 . S
C9312 C9311 1.397 . S
C9312 C9313 1.334 . S
C9313 H9290 0.950 . S
C9313 C9312 1.334 . S
C9313 C9314 1.287 . S
C9314 C9313 1.287 . S
C9314 C9315 1.524 . S
C9314 H9333 0.913 . S
C9315 H9291 0.950 . S
C9315 C9314 1.524 . S
C9315 C9316 1.415 . S
C9316 H9292 0.950 . S
C9316 C9311 1.363 . S
C9316 C9315 1.415 . S
C9317 H9293 0.951 . S
C9317 C9318 1.366 . S
C9317 C9319 1.388 . S
C9318 C9317 1.366 . S
C9318 C9322 1.385 . S
C9319 H9294 0.951 . S
C9319 C9317 1.388 . S
C9319 C9320 1.366 . S
C9320 C9319 1.366 . S
C9320 C9321 1.414 . S
C9320 C9323 1.499 . S
C9321 H9295 0.950 . S
C9321 C9320 1.414 . S
C9321 C9322 1.374 . S
C9322 H9296 0.950 . S
C9322 C9318 1.385 . S
C9322 C9321 1.374 . S
C9323 C9320 1.499 . S
C9323 C9324 1.373 . S
C9323 C9325 1.389 . S
C9324 H9297 0.950 . S
C9324 C9310 1.377 . S
C9324 C9323 1.373 . S
C9325 C9309 1.377 . S
C9325 C9323 1.389 . S
C9325 C9326 1.524 . S
C9326 C9325 1.524 . S
C9326 C9327 1.397 . S
C9326 C9331 1.363 . S
C9327 H9298 0.950 . S
C9327 C9326 1.397 . S
C9327 C9328 1.334 . S
C9328 H9299 0.950 . S
C9328 C9327 1.334 . S
C9328 C9329 1.287 . S
C9329 C9328 1.287 . S
C9329 C9330 1.524 . S
C9329 H9332 0.999 . S
C9330 H9300 0.950 . S
C9330 C9329 1.524 . S
C9330 C9331 1.415 . S
C9331 H9301 0.950 . S
C9331 C9326 1.363 . S
C9331 C9330 1.415 . S
H9332 C9329 0.999 . S
H9333 C9314 0.913 . S
H9334 C9352 0.951 . S
H9335 C9354 0.951 . S
H9336 C9356 0.950 . S
H9337 C9357 0.950 . S
H9338 C9359 0.950 . S
H9339 C9362 0.950 . S
H9340 C9363 0.950 . S
H9341 C9365 0.950 . S
H9342 C9366 0.950 . S
H9343 C9367 0.951 . S
H9344 C9369 0.951 . S
H9345 C9371 0.950 . S
H9346 C9372 0.950 . S
H9347 C9374 0.950 . S
H9348 C9377 0.950 . S
H9349 C9378 0.950 . S
H9350 C9380 0.950 . S
H9351 C9381 0.950 . S
C9352 H9334 0.951 . S
C9352 C9353 1.366 . S
C9352 C9354 1.388 . S
C9353 C9352 1.366 . S
C9353 C9357 1.385 . S
C9354 H9335 0.951 . S
C9354 C9352 1.388 . S
C9354 C9355 1.366 . S
C9355 C9354 1.366 . S
C9355 C9356 1.414 . S
C9355 C9358 1.499 . S
C9356 H9336 0.950 . S
C9356 C9355 1.414 . S
C9356 C9357 1.374 . S
C9357 H9337 0.950 . S
C9357 C9353 1.385 . S
C9357 C9356 1.374 . S
C9358 C9355 1.499 . S
C9358 C9359 1.373 . S
C9358 C9360 1.389 . S
C9359 H9338 0.950 . S
C9359 C9358 1.373 . S
C9359 C9375 1.377 . S
C9360 C9358 1.389 . S
C9360 C9361 1.524 . S
C9360 C9374 1.377 . S
C9361 C9360 1.524 . S
C9361 C9362 1.397 . S
C9361 C9366 1.363 . S
C9362 H9339 0.950 . S
C9362 C9361 1.397 . S
C9362 C9363 1.334 . S
C9363 H9340 0.950 . S
C9363 C9362 1.334 . S
C9363 C9364 1.287 . S
C9364 C9363 1.287 . S
C9364 C9365 1.524 . S
C9364 H9383 0.913 . S
C9365 H9341 0.950 . S
C9365 C9364 1.524 . S
C9365 C9366 1.415 . S
C9366 H9342 0.950 . S
C9366 C9361 1.363 . S
C9366 C9365 1.415 . S
C9367 H9343 0.951 . S
C9367 C9368 1.366 . S
C9367 C9369 1.388 . S
C9368 C9367 1.366 . S
C9368 C9372 1.385 . S
C9369 H9344 0.951 . S
C9369 C9367 1.388 . S
C9369 C9370 1.366 . S
C9370 C9369 1.366 . S
C9370 C9371 1.414 . S
C9370 C9373 1.499 . S
C9371 H9345 0.950 . S
C9371 C9370 1.414 . S
C9371 C9372 1.374 . S
C9372 H9346 0.950 . S
C9372 C9368 1.385 . S
C9372 C9371 1.374 . S
C9373 C9370 1.499 . S
C9373 C9374 1.373 . S
C9373 C9375 1.389 . S
C9374 H9347 0.950 . S
C9374 C9360 1.377 . S
C9374 C9373 1.373 . S
C9375 C9359 1.377 . S
C9375 C9373 1.389 . S
C9375 C9376 1.524 . S
C9376 C9375 1.524 . S
C9376 C9377 1.397 . S
C9376 C9381 1.363 . S
C9377 H9348 0.950 . S
C9377 C9376 1.397 . S
C9377 C9378 1.334 . S
C9378 H9349 0.950 . S
C9378 C9377 1.334 . S
C9378 C9379 1.287 . S
C9379 C9378 1.287 . S
C9379 C9380 1.524 . S
C9379 H9382 0.999 . S
C9380 H9350 0.950 . S
C9380 C9379 1.524 . S
C9380 C9381 1.415 . S
C9381 H9351 0.950 . S
C9381 C9376 1.363 . S
C9381 C9380 1.415 . S
H9382 C9379 0.999 . S
H9383 C9364 0.913 . S
H9384 C9402 0.951 . S
H9385 C9404 0.951 . S
H9386 C9406 0.950 . S
H9387 C9407 0.950 . S
H9388 C9409 0.950 . S
H9389 C9412 0.950 . S
H9390 C9413 0.950 . S
H9391 C9415 0.950 . S
H9392 C9416 0.950 . S
H9393 C9417 0.951 . S
H9394 C9419 0.951 . S
H9395 C9421 0.950 . S
H9396 C9422 0.950 . S
H9397 C9424 0.950 . S
H9398 C9427 0.950 . S
H9399 C9428 0.950 . S
H9400 C9430 0.950 . S
H9401 C9431 0.950 . S
C9402 H9384 0.951 . S
C9402 C9403 1.366 . S
C9402 C9404 1.388 . S
C9403 C9402 1.366 . S
C9403 C9407 1.385 . S
C9404 H9385 0.951 . S
C9404 C9402 1.388 . S
C9404 C9405 1.366 . S
C9405 C9404 1.366 . S
C9405 C9406 1.414 . S
C9405 C9408 1.499 . S
C9406 H9386 0.950 . S
C9406 C9405 1.414 . S
C9406 C9407 1.374 . S
C9407 H9387 0.950 . S
C9407 C9403 1.385 . S
C9407 C9406 1.374 . S
C9408 C9405 1.499 . S
C9408 C9409 1.373 . S
C9408 C9410 1.389 . S
C9409 H9388 0.950 . S
C9409 C9408 1.373 . S
C9409 C9425 1.377 1_565 S
C9410 C9408 1.389 . S
C9410 C9411 1.524 . S
C9410 C9424 1.377 1_565 S
C9411 C9410 1.524 . S
C9411 C9412 1.397 . S
C9411 C9416 1.363 . S
C9412 H9389 0.950 . S
C9412 C9411 1.397 . S
C9412 C9413 1.334 . S
C9413 H9390 0.950 . S
C9413 C9412 1.334 . S
C9413 C9414 1.287 . S
C9414 C9413 1.287 . S
C9414 C9415 1.524 . S
C9414 H9433 0.913 . S
C9415 H9391 0.950 . S
C9415 C9414 1.524 . S
C9415 C9416 1.415 . S
C9416 H9392 0.950 . S
C9416 C9411 1.363 . S
C9416 C9415 1.415 . S
C9417 H9393 0.951 . S
C9417 C9418 1.366 . S
C9417 C9419 1.388 . S
C9418 C9417 1.366 . S
C9418 C9422 1.385 . S
C9419 H9394 0.951 . S
C9419 C9417 1.388 . S
C9419 C9420 1.366 . S
C9420 C9419 1.366 . S
C9420 C9421 1.414 . S
C9420 C9423 1.499 . S
C9421 H9395 0.950 . S
C9421 C9420 1.414 . S
C9421 C9422 1.374 . S
C9422 H9396 0.950 . S
C9422 C9418 1.385 . S
C9422 C9421 1.374 . S
C9423 C9420 1.499 . S
C9423 C9424 1.373 . S
C9423 C9425 1.389 . S
C9424 H9397 0.950 . S
C9424 C9410 1.377 1_545 S
C9424 C9423 1.373 . S
C9425 C9409 1.377 1_545 S
C9425 C9423 1.389 . S
C9425 C9426 1.524 . S
C9426 C9425 1.524 . S
C9426 C9427 1.397 . S
C9426 C9431 1.363 . S
C9427 H9398 0.950 . S
C9427 C9426 1.397 . S
C9427 C9428 1.334 . S
C9428 H9399 0.950 . S
C9428 C9427 1.334 . S
C9428 C9429 1.287 . S
C9429 C9428 1.287 . S
C9429 C9430 1.524 . S
C9429 H9432 0.999 . S
C9430 H9400 0.950 . S
C9430 C9429 1.524 . S
C9430 C9431 1.415 . S
C9431 H9401 0.950 . S
C9431 C9426 1.363 . S
C9431 C9430 1.415 . S
H9432 C9429 0.999 . S
H9433 C9414 0.913 . S
H9434 C9452 0.951 . S
H9435 C9454 0.951 . S
H9436 C9456 0.950 . S
H9437 C9457 0.950 . S
H9438 C9459 0.950 . S
H9439 C9462 0.950 . S
H9440 C9463 0.950 . S
H9441 C9465 0.950 . S
H9442 C9466 0.950 . S
H9443 C9467 0.951 . S
H9444 C9469 0.951 . S
H9445 C9471 0.950 . S
H9446 C9472 0.950 . S
H9447 C9474 0.950 . S
H9448 C9477 0.950 . S
H9449 C9478 0.950 . S
H9450 C9480 0.950 . S
H9451 C9481 0.950 . S
C9452 H9434 0.951 . S
C9452 C9453 1.366 . S
C9452 C9454 1.388 . S
C9453 C9452 1.366 . S
C9453 C9457 1.385 . S
C9454 H9435 0.951 . S
C9454 C9452 1.388 . S
C9454 C9455 1.366 . S
C9455 C9454 1.366 . S
C9455 C9456 1.414 . S
C9455 C9458 1.499 . S
C9456 H9436 0.950 . S
C9456 C9455 1.414 . S
C9456 C9457 1.374 . S
C9457 H9437 0.950 . S
C9457 C9453 1.385 . S
C9457 C9456 1.374 . S
C9458 C9455 1.499 . S
C9458 C9459 1.373 . S
C9458 C9460 1.389 . S
C9459 H9438 0.950 . S
C9459 C9458 1.373 . S
C9459 C9475 1.377 . S
C9460 C9458 1.389 . S
C9460 C9461 1.524 . S
C9460 C9474 1.377 . S
C9461 C9460 1.524 . S
C9461 C9462 1.397 . S
C9461 C9466 1.363 . S
C9462 H9439 0.950 . S
C9462 C9461 1.397 . S
C9462 C9463 1.334 . S
C9463 H9440 0.950 . S
C9463 C9462 1.334 . S
C9463 C9464 1.287 . S
C9464 C9463 1.287 . S
C9464 C9465 1.524 . S
C9464 H9483 0.913 . S
C9465 H9441 0.950 . S
C9465 C9464 1.524 . S
C9465 C9466 1.415 . S
C9466 H9442 0.950 . S
C9466 C9461 1.363 . S
C9466 C9465 1.415 . S
C9467 H9443 0.951 . S
C9467 C9468 1.366 . S
C9467 C9469 1.388 . S
C9468 C9467 1.366 . S
C9468 C9472 1.385 . S
C9469 H9444 0.951 . S
C9469 C9467 1.388 . S
C9469 C9470 1.366 . S
C9470 C9469 1.366 . S
C9470 C9471 1.414 . S
C9470 C9473 1.499 . S
C9471 H9445 0.950 . S
C9471 C9470 1.414 . S
C9471 C9472 1.374 . S
C9472 H9446 0.950 . S
C9472 C9468 1.385 . S
C9472 C9471 1.374 . S
C9473 C9470 1.499 . S
C9473 C9474 1.373 . S
C9473 C9475 1.389 . S
C9474 H9447 0.950 . S
C9474 C9460 1.377 . S
C9474 C9473 1.373 . S
C9475 C9459 1.377 . S
C9475 C9473 1.389 . S
C9475 C9476 1.524 . S
C9476 C9475 1.524 . S
C9476 C9477 1.397 . S
C9476 C9481 1.363 . S
C9477 H9448 0.950 . S
C9477 C9476 1.397 . S
C9477 C9478 1.334 . S
C9478 H9449 0.950 . S
C9478 C9477 1.334 . S
C9478 C9479 1.287 . S
C9479 C9478 1.287 . S
C9479 C9480 1.524 . S
C9479 H9482 0.999 . S
C9480 H9450 0.950 . S
C9480 C9479 1.524 . S
C9480 C9481 1.415 . S
C9481 H9451 0.950 . S
C9481 C9476 1.363 . S
C9481 C9480 1.415 . S
H9482 C9479 0.999 . S
H9483 C9464 0.913 . S
H9484 C9502 0.951 . S
H9485 C9504 0.951 . S
H9486 C9506 0.950 . S
H9487 C9507 0.950 . S
H9488 C9509 0.950 . S
H9489 C9512 0.950 . S
H9490 C9513 0.950 . S
H9491 C9515 0.950 . S
H9492 C9516 0.950 . S
H9493 C9517 0.951 . S
H9494 C9519 0.951 . S
H9495 C9521 0.950 . S
H9496 C9522 0.950 . S
H9497 C9524 0.950 . S
H9498 C9527 0.950 . S
H9499 C9528 0.950 . S
H9500 C9530 0.950 . S
H9501 C9531 0.950 . S
C9502 H9484 0.951 . S
C9502 C9503 1.366 . S
C9502 C9504 1.388 . S
C9503 C9502 1.366 . S
C9503 C9507 1.385 . S
C9504 H9485 0.951 . S
C9504 C9502 1.388 . S
C9504 C9505 1.366 . S
C9505 C9504 1.366 . S
C9505 C9506 1.414 . S
C9505 C9508 1.499 . S
C9506 H9486 0.950 . S
C9506 C9505 1.414 . S
C9506 C9507 1.374 . S
C9507 H9487 0.950 . S
C9507 C9503 1.385 . S
C9507 C9506 1.374 . S
C9508 C9505 1.499 . S
C9508 C9509 1.373 . S
C9508 C9510 1.389 . S
C9509 H9488 0.950 . S
C9509 C9508 1.373 . S
C9509 C9525 1.377 . S
C9510 C9508 1.389 . S
C9510 C9511 1.524 . S
C9510 C9524 1.377 . S
C9511 C9510 1.524 . S
C9511 C9512 1.397 . S
C9511 C9516 1.363 . S
C9512 H9489 0.950 . S
C9512 C9511 1.397 . S
C9512 C9513 1.334 . S
C9513 H9490 0.950 . S
C9513 C9512 1.334 . S
C9513 C9514 1.287 . S
C9514 C9513 1.287 . S
C9514 C9515 1.524 . S
C9514 H9533 0.913 . S
C9515 H9491 0.950 . S
C9515 C9514 1.524 . S
C9515 C9516 1.415 . S
C9516 H9492 0.950 . S
C9516 C9511 1.363 . S
C9516 C9515 1.415 . S
C9517 H9493 0.951 . S
C9517 C9518 1.366 . S
C9517 C9519 1.388 . S
C9518 C9517 1.366 . S
C9518 C9522 1.385 . S
C9519 H9494 0.951 . S
C9519 C9517 1.388 . S
C9519 C9520 1.366 . S
C9520 C9519 1.366 . S
C9520 C9521 1.414 . S
C9520 C9523 1.499 . S
C9521 H9495 0.950 . S
C9521 C9520 1.414 . S
C9521 C9522 1.374 . S
C9522 H9496 0.950 . S
C9522 C9518 1.385 . S
C9522 C9521 1.374 . S
C9523 C9520 1.499 . S
C9523 C9524 1.373 . S
C9523 C9525 1.389 . S
C9524 H9497 0.950 . S
C9524 C9510 1.377 . S
C9524 C9523 1.373 . S
C9525 C9509 1.377 . S
C9525 C9523 1.389 . S
C9525 C9526 1.524 . S
C9526 C9525 1.524 . S
C9526 C9527 1.397 . S
C9526 C9531 1.363 . S
C9527 H9498 0.950 . S
C9527 C9526 1.397 . S
C9527 C9528 1.334 . S
C9528 H9499 0.950 . S
C9528 C9527 1.334 . S
C9528 C9529 1.287 . S
C9529 C9528 1.287 . S
C9529 C9530 1.524 . S
C9529 H9532 0.999 . S
C9530 H9500 0.950 . S
C9530 C9529 1.524 . S
C9530 C9531 1.415 . S
C9531 H9501 0.950 . S
C9531 C9526 1.363 . S
C9531 C9530 1.415 . S
H9532 C9529 0.999 . S
H9533 C9514 0.913 . S
H9534 C9552 0.951 . S
H9535 C9554 0.951 . S
H9536 C9556 0.950 . S
H9537 C9557 0.950 . S
H9538 C9559 0.950 . S
H9539 C9562 0.950 . S
H9540 C9563 0.950 . S
H9541 C9565 0.950 . S
H9542 C9566 0.950 . S
H9543 C9567 0.951 . S
H9544 C9569 0.951 . S
H9545 C9571 0.950 . S
H9546 C9572 0.950 . S
H9547 C9574 0.950 . S
H9548 C9577 0.950 . S
H9549 C9578 0.950 . S
H9550 C9580 0.950 . S
H9551 C9581 0.950 . S
C9552 H9534 0.951 . S
C9552 C9553 1.366 . S
C9552 C9554 1.388 . S
C9553 C9552 1.366 . S
C9553 C9557 1.385 . S
C9554 H9535 0.951 . S
C9554 C9552 1.388 . S
C9554 C9555 1.366 . S
C9555 C9554 1.366 . S
C9555 C9556 1.414 . S
C9555 C9558 1.499 . S
C9556 H9536 0.950 . S
C9556 C9555 1.414 . S
C9556 C9557 1.374 . S
C9557 H9537 0.950 . S
C9557 C9553 1.385 . S
C9557 C9556 1.374 . S
C9558 C9555 1.499 . S
C9558 C9559 1.373 1_455 S
C9558 C9560 1.389 . S
C9559 H9538 0.950 . S
C9559 C9558 1.373 1_655 S
C9559 C9575 1.377 . S
C9560 C9558 1.389 . S
C9560 C9561 1.524 . S
C9560 C9574 1.377 1_455 S
C9561 C9560 1.524 . S
C9561 C9562 1.397 . S
C9561 C9566 1.363 . S
C9562 H9539 0.950 . S
C9562 C9561 1.397 . S
C9562 C9563 1.334 . S
C9563 H9540 0.950 . S
C9563 C9562 1.334 . S
C9563 C9564 1.287 . S
C9564 C9563 1.287 . S
C9564 C9565 1.524 . S
C9564 H9583 0.913 . S
C9565 H9541 0.950 . S
C9565 C9564 1.524 . S
C9565 C9566 1.415 . S
C9566 H9542 0.950 . S
C9566 C9561 1.363 . S
C9566 C9565 1.415 . S
C9567 H9543 0.951 . S
C9567 C9568 1.366 . S
C9567 C9569 1.388 . S
C9568 C9567 1.366 . S
C9568 C9572 1.385 . S
C9569 H9544 0.951 . S
C9569 C9567 1.388 . S
C9569 C9570 1.366 . S
C9570 C9569 1.366 . S
C9570 C9571 1.414 . S
C9570 C9573 1.499 . S
C9571 H9545 0.950 . S
C9571 C9570 1.414 . S
C9571 C9572 1.374 . S
C9572 H9546 0.950 . S
C9572 C9568 1.385 . S
C9572 C9571 1.374 . S
C9573 C9570 1.499 . S
C9573 C9574 1.373 . S
C9573 C9575 1.389 . S
C9574 H9547 0.950 . S
C9574 C9560 1.377 1_655 S
C9574 C9573 1.373 . S
C9575 C9559 1.377 . S
C9575 C9573 1.389 . S
C9575 C9576 1.524 . S
C9576 C9575 1.524 . S
C9576 C9577 1.397 . S
C9576 C9581 1.363 . S
C9577 H9548 0.950 . S
C9577 C9576 1.397 . S
C9577 C9578 1.334 . S
C9578 H9549 0.950 . S
C9578 C9577 1.334 . S
C9578 C9579 1.287 . S
C9579 C9578 1.287 . S
C9579 C9580 1.524 . S
C9579 H9582 0.999 . S
C9580 H9550 0.950 . S
C9580 C9579 1.524 . S
C9580 C9581 1.415 . S
C9581 H9551 0.950 . S
C9581 C9576 1.363 . S
C9581 C9580 1.415 . S
H9582 C9579 0.999 . S
H9583 C9564 0.913 . S
H9584 C9602 0.951 . S
H9585 C9604 0.951 . S
H9586 C9606 0.950 . S
H9587 C9607 0.950 . S
H9588 C9609 0.950 . S
H9589 C9612 0.950 . S
H9590 C9613 0.950 . S
H9591 C9615 0.950 . S
H9592 C9616 0.950 . S
H9593 C9617 0.951 . S
H9594 C9619 0.951 . S
H9595 C9621 0.950 . S
H9596 C9622 0.950 . S
H9597 C9624 0.950 . S
H9598 C9627 0.950 . S
H9599 C9628 0.950 . S
H9600 C9630 0.950 . S
H9601 C9631 0.950 . S
C9602 H9584 0.951 . S
C9602 C9603 1.366 . S
C9602 C9604 1.388 . S
C9603 C9602 1.366 . S
C9603 C9607 1.385 . S
C9604 H9585 0.951 . S
C9604 C9602 1.388 . S
C9604 C9605 1.366 . S
C9605 C9604 1.366 . S
C9605 C9606 1.414 . S
C9605 C9608 1.499 . S
C9606 H9586 0.950 . S
C9606 C9605 1.414 . S
C9606 C9607 1.374 . S
C9607 H9587 0.950 . S
C9607 C9603 1.385 . S
C9607 C9606 1.374 . S
C9608 C9605 1.499 . S
C9608 C9609 1.373 . S
C9608 C9610 1.389 . S
C9609 H9588 0.950 . S
C9609 C9608 1.373 . S
C9609 C9625 1.377 . S
C9610 C9608 1.389 . S
C9610 C9611 1.524 . S
C9610 C9624 1.377 . S
C9611 C9610 1.524 . S
C9611 C9612 1.397 . S
C9611 C9616 1.363 . S
C9612 H9589 0.950 . S
C9612 C9611 1.397 . S
C9612 C9613 1.334 . S
C9613 H9590 0.950 . S
C9613 C9612 1.334 . S
C9613 C9614 1.287 . S
C9614 C9613 1.287 . S
C9614 C9615 1.524 . S
C9614 H9633 0.913 . S
C9615 H9591 0.950 . S
C9615 C9614 1.524 . S
C9615 C9616 1.415 . S
C9616 H9592 0.950 . S
C9616 C9611 1.363 . S
C9616 C9615 1.415 . S
C9617 H9593 0.951 . S
C9617 C9618 1.366 . S
C9617 C9619 1.388 . S
C9618 C9617 1.366 . S
C9618 C9622 1.385 . S
C9619 H9594 0.951 . S
C9619 C9617 1.388 . S
C9619 C9620 1.366 . S
C9620 C9619 1.366 . S
C9620 C9621 1.414 . S
C9620 C9623 1.499 . S
C9621 H9595 0.950 . S
C9621 C9620 1.414 . S
C9621 C9622 1.374 . S
C9622 H9596 0.950 . S
C9622 C9618 1.385 . S
C9622 C9621 1.374 . S
C9623 C9620 1.499 . S
C9623 C9624 1.373 . S
C9623 C9625 1.389 . S
C9624 H9597 0.950 . S
C9624 C9610 1.377 . S
C9624 C9623 1.373 . S
C9625 C9609 1.377 . S
C9625 C9623 1.389 . S
C9625 C9626 1.524 . S
C9626 C9625 1.524 . S
C9626 C9627 1.397 . S
C9626 C9631 1.363 . S
C9627 H9598 0.950 . S
C9627 C9626 1.397 . S
C9627 C9628 1.334 . S
C9628 H9599 0.950 . S
C9628 C9627 1.334 . S
C9628 C9629 1.287 . S
C9629 C9628 1.287 . S
C9629 C9630 1.524 . S
C9629 H9632 0.999 . S
C9630 H9600 0.950 . S
C9630 C9629 1.524 . S
C9630 C9631 1.415 . S
C9631 H9601 0.950 . S
C9631 C9626 1.363 . S
C9631 C9630 1.415 . S
H9632 C9629 0.999 . S
H9633 C9614 0.913 . S
H9634 C9652 0.951 . S
H9635 C9654 0.951 . S
H9636 C9656 0.950 . S
H9637 C9657 0.950 . S
H9638 C9659 0.950 . S
H9639 C9662 0.950 . S
H9640 C9663 0.950 . S
H9641 C9665 0.950 . S
H9642 C9666 0.950 . S
H9643 C9667 0.951 . S
H9644 C9669 0.951 . S
H9645 C9671 0.950 . S
H9646 C9672 0.950 . S
H9647 C9674 0.950 . S
H9648 C9677 0.950 . S
H9649 C9678 0.950 . S
H9650 C9680 0.950 . S
H9651 C9681 0.950 . S
C9652 H9634 0.951 . S
C9652 C9653 1.366 . S
C9652 C9654 1.388 . S
C9653 C9652 1.366 . S
C9653 C9657 1.385 . S
C9654 H9635 0.951 . S
C9654 C9652 1.388 . S
C9654 C9655 1.366 . S
C9655 C9654 1.366 . S
C9655 C9656 1.414 . S
C9655 C9658 1.499 . S
C9656 H9636 0.950 . S
C9656 C9655 1.414 . S
C9656 C9657 1.374 . S
C9657 H9637 0.950 . S
C9657 C9653 1.385 . S
C9657 C9656 1.374 . S
C9658 C9655 1.499 . S
C9658 C9659 1.373 . S
C9658 C9660 1.389 . S
C9659 H9638 0.950 . S
C9659 C9658 1.373 . S
C9659 C9675 1.377 . S
C9660 C9658 1.389 . S
C9660 C9661 1.524 . S
C9660 C9674 1.377 . S
C9661 C9660 1.524 . S
C9661 C9662 1.397 . S
C9661 C9666 1.363 . S
C9662 H9639 0.950 . S
C9662 C9661 1.397 . S
C9662 C9663 1.334 . S
C9663 H9640 0.950 . S
C9663 C9662 1.334 . S
C9663 C9664 1.287 . S
C9664 C9663 1.287 . S
C9664 C9665 1.524 . S
C9664 H9683 0.913 . S
C9665 H9641 0.950 . S
C9665 C9664 1.524 . S
C9665 C9666 1.415 . S
C9666 H9642 0.950 . S
C9666 C9661 1.363 . S
C9666 C9665 1.415 . S
C9667 H9643 0.951 . S
C9667 C9668 1.366 . S
C9667 C9669 1.388 . S
C9668 C9667 1.366 . S
C9668 C9672 1.385 . S
C9669 H9644 0.951 . S
C9669 C9667 1.388 . S
C9669 C9670 1.366 . S
C9670 C9669 1.366 . S
C9670 C9671 1.414 . S
C9670 C9673 1.499 . S
C9671 H9645 0.950 . S
C9671 C9670 1.414 . S
C9671 C9672 1.374 . S
C9672 H9646 0.950 . S
C9672 C9668 1.385 . S
C9672 C9671 1.374 . S
C9673 C9670 1.499 . S
C9673 C9674 1.373 . S
C9673 C9675 1.389 . S
C9674 H9647 0.950 . S
C9674 C9660 1.377 . S
C9674 C9673 1.373 . S
C9675 C9659 1.377 . S
C9675 C9673 1.389 . S
C9675 C9676 1.524 . S
C9676 C9675 1.524 . S
C9676 C9677 1.397 . S
C9676 C9681 1.363 . S
C9677 H9648 0.950 . S
C9677 C9676 1.397 . S
C9677 C9678 1.334 . S
C9678 H9649 0.950 . S
C9678 C9677 1.334 . S
C9678 C9679 1.287 . S
C9679 C9678 1.287 . S
C9679 C9680 1.524 . S
C9679 H9682 0.999 . S
C9680 H9650 0.950 . S
C9680 C9679 1.524 . S
C9680 C9681 1.415 . S
C9681 H9651 0.950 . S
C9681 C9676 1.363 . S
C9681 C9680 1.415 . S
H9682 C9679 0.999 . S
H9683 C9664 0.913 . S
H9684 C9702 0.951 . S
H9685 C9704 0.951 . S
H9686 C9706 0.950 . S
H9687 C9707 0.950 . S
H9688 C9709 0.950 . S
H9689 C9712 0.950 . S
H9690 C9713 0.950 . S
H9691 C9715 0.950 . S
H9692 C9716 0.950 . S
H9693 C9717 0.951 . S
H9694 C9719 0.951 . S
H9695 C9721 0.950 . S
H9696 C9722 0.950 . S
H9697 C9724 0.950 . S
H9698 C9727 0.950 . S
H9699 C9728 0.950 . S
H9700 C9730 0.950 . S
H9701 C9731 0.950 . S
C9702 H9684 0.951 . S
C9702 C9703 1.366 . S
C9702 C9704 1.388 . S
C9703 C9702 1.366 . S
C9703 C9707 1.385 . S
C9704 H9685 0.951 . S
C9704 C9702 1.388 . S
C9704 C9705 1.366 . S
C9705 C9704 1.366 . S
C9705 C9706 1.414 . S
C9705 C9708 1.499 . S
C9706 H9686 0.950 . S
C9706 C9705 1.414 . S
C9706 C9707 1.374 . S
C9707 H9687 0.950 . S
C9707 C9703 1.385 . S
C9707 C9706 1.374 . S
C9708 C9705 1.499 . S
C9708 C9709 1.373 . S
C9708 C9710 1.389 . S
C9709 H9688 0.950 . S
C9709 C9708 1.373 . S
C9709 C9725 1.377 . S
C9710 C9708 1.389 . S
C9710 C9711 1.524 . S
C9710 C9724 1.377 . S
C9711 C9710 1.524 . S
C9711 C9712 1.397 . S
C9711 C9716 1.363 . S
C9712 H9689 0.950 . S
C9712 C9711 1.397 . S
C9712 C9713 1.334 . S
C9713 H9690 0.950 . S
C9713 C9712 1.334 . S
C9713 C9714 1.287 . S
C9714 C9713 1.287 . S
C9714 C9715 1.524 . S
C9714 H9733 0.913 . S
C9715 H9691 0.950 . S
C9715 C9714 1.524 . S
C9715 C9716 1.415 . S
C9716 H9692 0.950 . S
C9716 C9711 1.363 . S
C9716 C9715 1.415 . S
C9717 H9693 0.951 . S
C9717 C9718 1.366 . S
C9717 C9719 1.388 . S
C9718 C9717 1.366 . S
C9718 C9722 1.385 . S
C9719 H9694 0.951 . S
C9719 C9717 1.388 . S
C9719 C9720 1.366 . S
C9720 C9719 1.366 . S
C9720 C9721 1.414 . S
C9720 C9723 1.499 . S
C9721 H9695 0.950 . S
C9721 C9720 1.414 . S
C9721 C9722 1.374 . S
C9722 H9696 0.950 . S
C9722 C9718 1.385 . S
C9722 C9721 1.374 . S
C9723 C9720 1.499 . S
C9723 C9724 1.373 . S
C9723 C9725 1.389 . S
C9724 H9697 0.950 . S
C9724 C9710 1.377 . S
C9724 C9723 1.373 . S
C9725 C9709 1.377 . S
C9725 C9723 1.389 . S
C9725 C9726 1.524 . S
C9726 C9725 1.524 . S
C9726 C9727 1.397 . S
C9726 C9731 1.363 . S
C9727 H9698 0.950 . S
C9727 C9726 1.397 . S
C9727 C9728 1.334 . S
C9728 H9699 0.950 . S
C9728 C9727 1.334 . S
C9728 C9729 1.287 . S
C9729 C9728 1.287 . S
C9729 C9730 1.524 . S
C9729 H9732 0.999 . S
C9730 H9700 0.950 . S
C9730 C9729 1.524 . S
C9730 C9731 1.415 . S
C9731 H9701 0.950 . S
C9731 C9726 1.363 . S
C9731 C9730 1.415 . S
H9732 C9729 0.999 . S
H9733 C9714 0.913 . S
H9734 C9752 0.951 . S
H9735 C9754 0.951 . S
H9736 C9756 0.950 . S
H9737 C9757 0.950 . S
H9738 C9759 0.950 . S
H9739 C9762 0.950 . S
H9740 C9763 0.950 . S
H9741 C9765 0.950 . S
H9742 C9766 0.950 . S
H9743 C9767 0.951 . S
H9744 C9769 0.951 . S
H9745 C9771 0.950 . S
H9746 C9772 0.950 . S
H9747 C9774 0.950 . S
H9748 C9777 0.950 . S
H9749 C9778 0.950 . S
H9750 C9780 0.950 . S
H9751 C9781 0.950 . S
C9752 H9734 0.951 . S
C9752 C9753 1.366 . S
C9752 C9754 1.388 . S
C9753 C9752 1.366 . S
C9753 C9757 1.385 . S
C9754 H9735 0.951 . S
C9754 C9752 1.388 . S
C9754 C9755 1.366 . S
C9755 C9754 1.366 . S
C9755 C9756 1.414 . S
C9755 C9758 1.499 . S
C9756 H9736 0.950 . S
C9756 C9755 1.414 . S
C9756 C9757 1.374 . S
C9757 H9737 0.950 . S
C9757 C9753 1.385 . S
C9757 C9756 1.374 . S
C9758 C9755 1.499 . S
C9758 C9759 1.373 . S
C9758 C9760 1.389 . S
C9759 H9738 0.950 . S
C9759 C9758 1.373 . S
C9759 C9775 1.377 . S
C9760 C9758 1.389 . S
C9760 C9761 1.524 . S
C9760 C9774 1.377 . S
C9761 C9760 1.524 . S
C9761 C9762 1.397 . S
C9761 C9766 1.363 . S
C9762 H9739 0.950 . S
C9762 C9761 1.397 . S
C9762 C9763 1.334 . S
C9763 H9740 0.950 . S
C9763 C9762 1.334 . S
C9763 C9764 1.287 . S
C9764 C9763 1.287 . S
C9764 C9765 1.524 . S
C9764 H9783 0.913 . S
C9765 H9741 0.950 . S
C9765 C9764 1.524 . S
C9765 C9766 1.415 . S
C9766 H9742 0.950 . S
C9766 C9761 1.363 . S
C9766 C9765 1.415 . S
C9767 H9743 0.951 . S
C9767 C9768 1.366 . S
C9767 C9769 1.388 . S
C9768 C9767 1.366 . S
C9768 C9772 1.385 . S
C9769 H9744 0.951 . S
C9769 C9767 1.388 . S
C9769 C9770 1.366 . S
C9770 C9769 1.366 . S
C9770 C9771 1.414 . S
C9770 C9773 1.499 . S
C9771 H9745 0.950 . S
C9771 C9770 1.414 . S
C9771 C9772 1.374 . S
C9772 H9746 0.950 . S
C9772 C9768 1.385 . S
C9772 C9771 1.374 . S
C9773 C9770 1.499 . S
C9773 C9774 1.373 . S
C9773 C9775 1.389 . S
C9774 H9747 0.950 . S
C9774 C9760 1.377 . S
C9774 C9773 1.373 . S
C9775 C9759 1.377 . S
C9775 C9773 1.389 . S
C9775 C9776 1.524 . S
C9776 C9775 1.524 . S
C9776 C9777 1.397 . S
C9776 C9781 1.363 . S
C9777 H9748 0.950 . S
C9777 C9776 1.397 . S
C9777 C9778 1.334 . S
C9778 H9749 0.950 . S
C9778 C9777 1.334 . S
C9778 C9779 1.287 . S
C9779 C9778 1.287 . S
C9779 C9780 1.524 . S
C9779 H9782 0.999 . S
C9780 H9750 0.950 . S
C9780 C9779 1.524 . S
C9780 C9781 1.415 . S
C9781 H9751 0.950 . S
C9781 C9776 1.363 . S
C9781 C9780 1.415 . S
H9782 C9779 0.999 . S
H9783 C9764 0.913 . S
H9784 C9802 0.951 . S
H9785 C9804 0.951 . S
H9786 C9806 0.950 . S
H9787 C9807 0.950 . S
H9788 C9809 0.950 . S
H9789 C9812 0.950 . S
H9790 C9813 0.950 . S
H9791 C9815 0.950 . S
H9792 C9816 0.950 . S
H9793 C9817 0.951 . S
H9794 C9819 0.951 . S
H9795 C9821 0.950 . S
H9796 C9822 0.950 . S
H9797 C9824 0.950 . S
H9798 C9827 0.950 . S
H9799 C9828 0.950 . S
H9800 C9830 0.950 . S
H9801 C9831 0.950 . S
C9802 H9784 0.951 . S
C9802 C9803 1.366 . S
C9802 C9804 1.388 . S
C9803 C9802 1.366 . S
C9803 C9807 1.385 . S
C9804 H9785 0.951 . S
C9804 C9802 1.388 . S
C9804 C9805 1.366 . S
C9805 C9804 1.366 . S
C9805 C9806 1.414 . S
C9805 C9808 1.499 . S
C9806 H9786 0.950 . S
C9806 C9805 1.414 . S
C9806 C9807 1.374 . S
C9807 H9787 0.950 . S
C9807 C9803 1.385 . S
C9807 C9806 1.374 . S
C9808 C9805 1.499 . S
C9808 C9809 1.373 . S
C9808 C9810 1.389 . S
C9809 H9788 0.950 . S
C9809 C9808 1.373 . S
C9809 C9825 1.377 . S
C9810 C9808 1.389 . S
C9810 C9811 1.524 . S
C9810 C9824 1.377 . S
C9811 C9810 1.524 . S
C9811 C9812 1.397 . S
C9811 C9816 1.363 . S
C9812 H9789 0.950 . S
C9812 C9811 1.397 . S
C9812 C9813 1.334 . S
C9813 H9790 0.950 . S
C9813 C9812 1.334 . S
C9813 C9814 1.287 . S
C9814 C9813 1.287 . S
C9814 C9815 1.524 . S
C9814 H9833 0.913 . S
C9815 H9791 0.950 . S
C9815 C9814 1.524 . S
C9815 C9816 1.415 . S
C9816 H9792 0.950 . S
C9816 C9811 1.363 . S
C9816 C9815 1.415 . S
C9817 H9793 0.951 . S
C9817 C9818 1.366 . S
C9817 C9819 1.388 . S
C9818 C9817 1.366 . S
C9818 C9822 1.385 . S
C9819 H9794 0.951 . S
C9819 C9817 1.388 . S
C9819 C9820 1.366 . S
C9820 C9819 1.366 . S
C9820 C9821 1.414 . S
C9820 C9823 1.499 . S
C9821 H9795 0.950 . S
C9821 C9820 1.414 . S
C9821 C9822 1.374 . S
C9822 H9796 0.950 . S
C9822 C9818 1.385 . S
C9822 C9821 1.374 . S
C9823 C9820 1.499 . S
C9823 C9824 1.373 . S
C9823 C9825 1.389 . S
C9824 H9797 0.950 . S
C9824 C9810 1.377 . S
C9824 C9823 1.373 . S
C9825 C9809 1.377 . S
C9825 C9823 1.389 . S
C9825 C9826 1.524 . S
C9826 C9825 1.524 . S
C9826 C9827 1.397 . S
C9826 C9831 1.363 . S
C9827 H9798 0.950 . S
C9827 C9826 1.397 . S
C9827 C9828 1.334 . S
C9828 H9799 0.950 . S
C9828 C9827 1.334 . S
C9828 C9829 1.287 . S
C9829 C9828 1.287 . S
C9829 C9830 1.524 . S
C9829 H9832 0.999 . S
C9830 H9800 0.950 . S
C9830 C9829 1.524 . S
C9830 C9831 1.415 . S
C9831 H9801 0.950 . S
C9831 C9826 1.363 . S
C9831 C9830 1.415 . S
H9832 C9829 0.999 . S
H9833 C9814 0.913 . S
H9834 C9852 0.951 . S
H9835 C9854 0.951 . S
H9836 C9856 0.950 . S
H9837 C9857 0.950 . S
H9838 C9859 0.950 . S
H9839 C9862 0.950 . S
H9840 C9863 0.950 . S
H9841 C9865 0.950 . S
H9842 C9866 0.950 . S
H9843 C9867 0.951 . S
H9844 C9869 0.951 . S
H9845 C9871 0.950 . S
H9846 C9872 0.950 . S
H9847 C9874 0.950 . S
H9848 C9877 0.950 . S
H9849 C9878 0.950 . S
H9850 C9880 0.950 . S
H9851 C9881 0.950 . S
C9852 H9834 0.951 . S
C9852 C9853 1.366 . S
C9852 C9854 1.388 . S
C9853 C9852 1.366 . S
C9853 C9857 1.385 . S
C9854 H9835 0.951 . S
C9854 C9852 1.388 . S
C9854 C9855 1.366 . S
C9855 C9854 1.366 . S
C9855 C9856 1.414 . S
C9855 C9858 1.499 . S
C9856 H9836 0.950 . S
C9856 C9855 1.414 . S
C9856 C9857 1.374 . S
C9857 H9837 0.950 . S
C9857 C9853 1.385 . S
C9857 C9856 1.374 . S
C9858 C9855 1.499 . S
C9858 C9859 1.373 . S
C9858 C9860 1.389 . S
C9859 H9838 0.950 . S
C9859 C9858 1.373 . S
C9859 C9875 1.377 . S
C9860 C9858 1.389 . S
C9860 C9861 1.524 . S
C9860 C9874 1.377 . S
C9861 C9860 1.524 . S
C9861 C9862 1.397 . S
C9861 C9866 1.363 . S
C9862 H9839 0.950 . S
C9862 C9861 1.397 . S
C9862 C9863 1.334 . S
C9863 H9840 0.950 . S
C9863 C9862 1.334 . S
C9863 C9864 1.287 . S
C9864 C9863 1.287 . S
C9864 C9865 1.524 . S
C9864 H9883 0.913 . S
C9865 H9841 0.950 . S
C9865 C9864 1.524 . S
C9865 C9866 1.415 . S
C9866 H9842 0.950 . S
C9866 C9861 1.363 . S
C9866 C9865 1.415 . S
C9867 H9843 0.951 . S
C9867 C9868 1.366 . S
C9867 C9869 1.388 . S
C9868 C9867 1.366 . S
C9868 C9872 1.385 . S
C9869 H9844 0.951 . S
C9869 C9867 1.388 . S
C9869 C9870 1.366 . S
C9870 C9869 1.366 . S
C9870 C9871 1.414 . S
C9870 C9873 1.499 . S
C9871 H9845 0.950 . S
C9871 C9870 1.414 . S
C9871 C9872 1.374 . S
C9872 H9846 0.950 . S
C9872 C9868 1.385 . S
C9872 C9871 1.374 . S
C9873 C9870 1.499 . S
C9873 C9874 1.373 . S
C9873 C9875 1.389 . S
C9874 H9847 0.950 . S
C9874 C9860 1.377 . S
C9874 C9873 1.373 . S
C9875 C9859 1.377 . S
C9875 C9873 1.389 . S
C9875 C9876 1.524 . S
C9876 C9875 1.524 . S
C9876 C9877 1.397 . S
C9876 C9881 1.363 . S
C9877 H9848 0.950 . S
C9877 C9876 1.397 . S
C9877 C9878 1.334 . S
C9878 H9849 0.950 . S
C9878 C9877 1.334 . S
C9878 C9879 1.287 . S
C9879 C9878 1.287 . S
C9879 C9880 1.524 . S
C9879 H9882 0.999 . S
C9880 H9850 0.950 . S
C9880 C9879 1.524 . S
C9880 C9881 1.415 . S
C9881 H9851 0.950 . S
C9881 C9876 1.363 . S
C9881 C9880 1.415 . S
H9882 C9879 0.999 . S
H9883 C9864 0.913 . S
H9884 C9902 0.951 . S
H9885 C9904 0.951 . S
H9886 C9906 0.950 . S
H9887 C9907 0.950 . S
H9888 C9909 0.950 . S
H9889 C9912 0.950 . S
H9890 C9913 0.950 . S
H9891 C9915 0.950 . S
H9892 C9916 0.950 . S
H9893 C9917 0.951 . S
H9894 C9919 0.951 . S
H9895 C9921 0.950 . S
H9896 C9922 0.950 . S
H9897 C9924 0.950 . S
H9898 C9927 0.950 . S
H9899 C9928 0.939 1_556 S
H9900 C9930 0.950 . S
H9901 C9931 0.950 . S
C9902 H9884 0.951 . S
C9902 C9903 1.366 . S
C9902 C9904 1.388 . S
C9903 C9902 1.366 . S
C9903 C9907 1.385 . S
C9904 H9885 0.951 . S
C9904 C9902 1.388 . S
C9904 C9905 1.366 . S
C9905 C9904 1.366 . S
C9905 C9906 1.414 . S
C9905 C9908 1.499 . S
C9906 H9886 0.950 . S
C9906 C9905 1.414 . S
C9906 C9907 1.374 . S
C9907 H9887 0.950 . S
C9907 C9903 1.385 . S
C9907 C9906 1.374 . S
C9908 C9905 1.499 . S
C9908 C9909 1.373 . S
C9908 C9910 1.389 . S
C9909 H9888 0.950 . S
C9909 C9908 1.373 . S
C9909 C9925 1.377 . S
C9910 C9908 1.389 . S
C9910 C9911 1.524 . S
C9910 C9924 1.377 . S
C9911 C9910 1.524 . S
C9911 C9912 1.397 . S
C9911 C9916 1.363 . S
C9912 H9889 0.950 . S
C9912 C9911 1.397 . S
C9912 C9913 1.334 . S
C9913 H9890 0.950 . S
C9913 C9912 1.334 . S
C9913 C9914 1.287 . S
C9914 C9913 1.287 . S
C9914 C9915 1.524 . S
C9914 H9933 0.913 . S
C9915 H9891 0.950 . S
C9915 C9914 1.524 . S
C9915 C9916 1.415 . S
C9916 H9892 0.950 . S
C9916 C9911 1.363 . S
C9916 C9915 1.415 . S
C9917 H9893 0.951 . S
C9917 C9918 1.366 . S
C9917 C9919 1.388 . S
C9918 C9917 1.366 . S
C9918 C9922 1.385 . S
C9919 H9894 0.951 . S
C9919 C9917 1.388 . S
C9919 C9920 1.366 . S
C9920 C9919 1.366 . S
C9920 C9921 1.414 . S
C9920 C9923 1.499 1_556 S
C9921 H9895 0.950 . S
C9921 C9920 1.414 . S
C9921 C9922 1.374 . S
C9922 H9896 0.950 . S
C9922 C9918 1.385 . S
C9922 C9921 1.374 . S
C9923 C9920 1.499 1_554 S
C9923 C9924 1.373 . S
C9923 C9925 1.389 . S
C9924 H9897 0.950 . S
C9924 C9910 1.377 . S
C9924 C9923 1.373 . S
C9925 C9909 1.377 . S
C9925 C9923 1.389 . S
C9925 C9926 1.524 . S
C9926 C9925 1.524 . S
C9926 C9927 1.397 . S
C9926 C9931 1.363 . S
C9927 H9898 0.950 . S
C9927 C9926 1.397 . S
C9927 C9928 1.340 . S
C9928 H9899 0.939 1_554 S
C9928 C9927 1.340 . S
C9928 C9929 1.293 . S
C9929 C9928 1.293 . S
C9929 C9930 1.524 . S
C9929 H9932 1.012 . S
C9930 H9900 0.950 . S
C9930 C9929 1.524 . S
C9930 C9931 1.415 . S
C9931 H9901 0.950 . S
C9931 C9926 1.363 . S
C9931 C9930 1.415 . S
H9932 C9929 1.012 . S
H9933 C9914 0.913 . S
H9934 C9952 0.951 . S
H9935 C9954 0.951 . S
H9936 C9956 0.950 . S
H9937 C9957 0.950 . S
H9938 C9959 0.950 . S
H9939 C9962 0.950 . S
H9940 C9963 0.950 . S
H9941 C9965 0.950 . S
H9942 C9966 0.950 . S
H9943 C9967 0.951 . S
H9944 C9969 0.951 . S
H9945 C9971 0.950 . S
H9946 C9972 0.950 . S
H9947 C9974 0.950 . S
H9948 C9977 0.950 . S
H9949 C9978 0.950 . S
H9950 C9980 0.950 . S
H9951 C9981 0.950 . S
C9952 H9934 0.951 . S
C9952 C9953 1.366 . S
C9952 C9954 1.388 . S
C9953 C9952 1.366 . S
C9953 C9957 1.385 . S
C9954 H9935 0.951 . S
C9954 C9952 1.388 . S
C9954 C9955 1.366 . S
C9955 C9954 1.366 . S
C9955 C9956 1.414 . S
C9955 C9958 1.499 . S
C9956 H9936 0.950 . S
C9956 C9955 1.414 . S
C9956 C9957 1.374 . S
C9957 H9937 0.950 . S
C9957 C9953 1.385 . S
C9957 C9956 1.374 . S
C9958 C9955 1.499 . S
C9958 C9959 1.373 . S
C9958 C9960 1.389 . S
C9959 H9938 0.950 . S
C9959 C9958 1.373 . S
C9959 C9975 1.377 . S
C9960 C9958 1.389 . S
C9960 C9961 1.524 . S
C9960 C9974 1.377 . S
C9961 C9960 1.524 . S
C9961 C9962 1.397 . S
C9961 C9966 1.363 . S
C9962 H9939 0.950 . S
C9962 C9961 1.397 . S
C9962 C9963 1.334 . S
C9963 H9940 0.950 . S
C9963 C9962 1.334 . S
C9963 C9964 1.287 . S
C9964 C9963 1.287 . S
C9964 C9965 1.524 . S
C9964 H9983 0.913 . S
C9965 H9941 0.950 . S
C9965 C9964 1.524 . S
C9965 C9966 1.415 . S
C9966 H9942 0.950 . S
C9966 C9961 1.363 . S
C9966 C9965 1.415 . S
C9967 H9943 0.951 . S
C9967 C9968 1.366 . S
C9967 C9969 1.388 . S
C9968 C9967 1.366 . S
C9968 C9972 1.385 . S
C9969 H9944 0.951 . S
C9969 C9967 1.388 . S
C9969 C9970 1.366 . S
C9970 C9969 1.366 . S
C9970 C9971 1.414 . S
C9970 C9973 1.499 . S
C9971 H9945 0.950 . S
C9971 C9970 1.414 . S
C9971 C9972 1.374 . S
C9972 H9946 0.950 . S
C9972 C9968 1.385 . S
C9972 C9971 1.374 . S
C9973 C9970 1.499 . S
C9973 C9974 1.373 . S
C9973 C9975 1.389 . S
C9974 H9947 0.950 . S
C9974 C9960 1.377 . S
C9974 C9973 1.373 . S
C9975 C9959 1.377 . S
C9975 C9973 1.389 . S
C9975 C9976 1.524 . S
C9976 C9975 1.524 . S
C9976 C9977 1.397 . S
C9976 C9981 1.363 . S
C9977 H9948 0.950 . S
C9977 C9976 1.397 . S
C9977 C9978 1.334 . S
C9978 H9949 0.950 . S
C9978 C9977 1.334 . S
C9978 C9979 1.287 . S
C9979 C9978 1.287 . S
C9979 C9980 1.524 . S
C9979 H9982 0.999 . S
C9980 H9950 0.950 . S
C9980 C9979 1.524 . S
C9980 C9981 1.415 . S
C9981 H9951 0.950 . S
C9981 C9976 1.363 . S
C9981 C9980 1.415 . S
H9982 C9979 0.999 . S
H9983 C9964 0.913 . S
H9984 C10002 0.951 . S
H9985 C10004 0.951 . S
H9986 C10006 0.950 . S
H9987 C10007 0.950 . S
H9988 C10009 0.950 . S
H9989 C10012 0.950 . S
H9990 C10013 0.950 . S
H9991 C10015 0.950 . S
H9992 C10016 0.950 . S
H9993 C10017 0.951 . S
H9994 C10019 0.951 . S
H9995 C10021 0.950 . S
H9996 C10022 0.950 . S
H9997 C10024 0.950 . S
H9998 C10027 0.950 . S
H9999 C10028 0.950 . S
H10000 C10030 0.950 . S
H10001 C10031 0.950 . S
C10002 H9984 0.951 . S
C10002 C10003 1.366 . S
C10002 C10004 1.388 . S
C10003 C10002 1.366 . S
C10003 C10007 1.385 . S
C10004 H9985 0.951 . S
C10004 C10002 1.388 . S
C10004 C10005 1.366 . S
C10005 C10004 1.366 . S
C10005 C10006 1.414 . S
C10005 C10008 1.499 . S
C10006 H9986 0.950 . S
C10006 C10005 1.414 . S
C10006 C10007 1.374 . S
C10007 H9987 0.950 . S
C10007 C10003 1.385 . S
C10007 C10006 1.374 . S
C10008 C10005 1.499 . S
C10008 C10009 1.373 . S
C10008 C10010 1.389 . S
C10009 H9988 0.950 . S
C10009 C10008 1.373 . S
C10009 C10025 1.377 . S
C10010 C10008 1.389 . S
C10010 C10011 1.524 . S
C10010 C10024 1.377 . S
C10011 C10010 1.524 . S
C10011 C10012 1.397 . S
C10011 C10016 1.363 . S
C10012 H9989 0.950 . S
C10012 C10011 1.397 . S
C10012 C10013 1.334 . S
C10013 H9990 0.950 . S
C10013 C10012 1.334 . S
C10013 C10014 1.287 . S
C10014 C10013 1.287 . S
C10014 C10015 1.524 . S
C10014 H10033 0.913 . S
C10015 H9991 0.950 . S
C10015 C10014 1.524 . S
C10015 C10016 1.415 . S
C10016 H9992 0.950 . S
C10016 C10011 1.363 . S
C10016 C10015 1.415 . S
C10017 H9993 0.951 . S
C10017 C10018 1.366 . S
C10017 C10019 1.388 . S
C10018 C10017 1.366 . S
C10018 C10022 1.385 . S
C10019 H9994 0.951 . S
C10019 C10017 1.388 . S
C10019 C10020 1.366 . S
C10020 C10019 1.366 . S
C10020 C10021 1.414 . S
C10020 C10023 1.499 . S
C10021 H9995 0.950 . S
C10021 C10020 1.414 . S
C10021 C10022 1.374 . S
C10022 H9996 0.950 . S
C10022 C10018 1.385 . S
C10022 C10021 1.374 . S
C10023 C10020 1.499 . S
C10023 C10024 1.373 . S
C10023 C10025 1.389 . S
C10024 H9997 0.950 . S
C10024 C10010 1.377 . S
C10024 C10023 1.373 . S
C10025 C10009 1.377 . S
C10025 C10023 1.389 . S
C10025 C10026 1.524 . S
C10026 C10025 1.524 . S
C10026 C10027 1.397 . S
C10026 C10031 1.363 . S
C10027 H9998 0.950 . S
C10027 C10026 1.397 . S
C10027 C10028 1.334 . S
C10028 H9999 0.950 . S
C10028 C10027 1.334 . S
C10028 C10029 1.287 . S
C10029 C10028 1.287 . S
C10029 C10030 1.524 . S
C10029 H10032 0.999 . S
C10030 H10000 0.950 . S
C10030 C10029 1.524 . S
C10030 C10031 1.415 . S
C10031 H10001 0.950 . S
C10031 C10026 1.363 . S
C10031 C10030 1.415 . S
H10032 C10029 0.999 . S
H10033 C10014 0.913 . S
H10034 C10052 0.951 . S
H10035 C10054 0.951 . S
H10036 C10056 0.950 . S
H10037 C10057 0.950 . S
H10038 C10059 0.950 . S
H10039 C10062 0.950 . S
H10040 C10063 0.950 . S
H10041 C10065 0.950 . S
H10042 C10066 0.950 . S
H10043 C10067 0.951 . S
H10044 C10069 0.951 . S
H10045 C10071 0.950 . S
H10046 C10072 0.950 . S
H10047 C10074 0.950 . S
H10048 C10077 0.950 1_556 S
H10049 C10078 0.965 . S
H10050 C10080 0.950 . S
H10051 C10081 0.950 . S
C10052 H10034 0.951 . S
C10052 C10053 1.366 . S
C10052 C10054 1.388 . S
C10053 C10052 1.366 . S
C10053 C10057 1.385 . S
C10054 H10035 0.951 . S
C10054 C10052 1.388 . S
C10054 C10055 1.366 . S
C10055 C10054 1.366 . S
C10055 C10056 1.414 . S
C10055 C10058 1.499 . S
C10056 H10036 0.950 . S
C10056 C10055 1.414 . S
C10056 C10057 1.374 . S
C10057 H10037 0.950 . S
C10057 C10053 1.385 . S
C10057 C10056 1.374 . S
C10058 C10055 1.499 . S
C10058 C10059 1.373 . S
C10058 C10060 1.389 . S
C10059 H10038 0.950 . S
C10059 C10058 1.373 . S
C10059 C10075 1.377 . S
C10060 C10058 1.389 . S
C10060 C10061 1.524 . S
C10060 C10074 1.377 . S
C10061 C10060 1.524 . S
C10061 C10062 1.397 . S
C10061 C10066 1.363 . S
C10062 H10039 0.950 . S
C10062 C10061 1.397 . S
C10062 C10063 1.334 . S
C10063 H10040 0.950 . S
C10063 C10062 1.334 . S
C10063 C10064 1.287 . S
C10064 C10063 1.287 . S
C10064 C10065 1.524 . S
C10064 H10083 0.913 . S
C10065 H10041 0.950 . S
C10065 C10064 1.524 . S
C10065 C10066 1.415 . S
C10066 H10042 0.950 . S
C10066 C10061 1.363 . S
C10066 C10065 1.415 . S
C10067 H10043 0.951 . S
C10067 C10068 1.366 . S
C10067 C10069 1.388 . S
C10068 C10067 1.366 . S
C10068 C10072 1.385 . S
C10069 H10044 0.951 . S
C10069 C10067 1.388 . S
C10069 C10070 1.366 . S
C10070 C10069 1.366 . S
C10070 C10071 1.414 . S
C10070 C10073 1.499 1_556 S
C10071 H10045 0.950 . S
C10071 C10070 1.414 . S
C10071 C10072 1.374 . S
C10072 H10046 0.950 . S
C10072 C10068 1.385 . S
C10072 C10071 1.374 . S
C10073 C10070 1.499 1_554 S
C10073 C10074 1.373 . S
C10073 C10075 1.389 . S
C10074 H10047 0.950 . S
C10074 C10060 1.377 . S
C10074 C10073 1.373 . S
C10075 C10059 1.377 . S
C10075 C10073 1.389 . S
C10075 C10076 1.524 . S
C10076 C10075 1.524 . S
C10076 C10077 1.397 . S
C10076 C10081 1.363 . S
C10077 H10048 0.950 1_554 S
C10077 C10076 1.397 . S
C10077 C10078 1.329 1_554 S
C10078 H10049 0.965 . S
C10078 C10077 1.329 1_556 S
C10078 C10079 1.277 1_556 S
C10079 C10078 1.277 1_554 S
C10079 C10080 1.524 . S
C10079 H10082 0.999 . S
C10080 H10050 0.950 . S
C10080 C10079 1.524 . S
C10080 C10081 1.415 . S
C10081 H10051 0.950 . S
C10081 C10076 1.363 . S
C10081 C10080 1.415 . S
H10082 C10079 0.999 . S
H10083 C10064 0.913 . S
H10084 C10102 0.951 . S
H10085 C10104 0.951 . S
H10086 C10106 0.950 . S
H10087 C10107 0.950 . S
H10088 C10109 0.950 . S
H10089 C10112 0.950 . S
H10090 C10113 0.950 . S
H10091 C10115 0.950 . S
H10092 C10116 0.950 . S
H10093 C10117 0.951 . S
H10094 C10119 0.951 . S
H10095 C10121 0.950 . S
H10096 C10122 0.950 . S
H10097 C10124 0.950 . S
H10098 C10127 0.950 . S
H10099 C10128 0.950 . S
H10100 C10130 0.950 . S
H10101 C10131 0.950 . S
C10102 H10084 0.951 . S
C10102 C10103 1.366 . S
C10102 C10104 1.388 . S
C10103 C10102 1.366 . S
C10103 C10107 1.385 . S
C10104 H10085 0.951 . S
C10104 C10102 1.388 . S
C10104 C10105 1.366 . S
C10105 C10104 1.366 . S
C10105 C10106 1.414 . S
C10105 C10108 1.499 . S
C10106 H10086 0.950 . S
C10106 C10105 1.414 . S
C10106 C10107 1.374 . S
C10107 H10087 0.950 . S
C10107 C10103 1.385 . S
C10107 C10106 1.374 . S
C10108 C10105 1.499 . S
C10108 C10109 1.373 . S
C10108 C10110 1.389 . S
C10109 H10088 0.950 . S
C10109 C10108 1.373 . S
C10109 C10125 1.377 . S
C10110 C10108 1.389 . S
C10110 C10111 1.524 . S
C10110 C10124 1.377 . S
C10111 C10110 1.524 . S
C10111 C10112 1.397 . S
C10111 C10116 1.363 . S
C10112 H10089 0.950 . S
C10112 C10111 1.397 . S
C10112 C10113 1.334 . S
C10113 H10090 0.950 . S
C10113 C10112 1.334 . S
C10113 C10114 1.287 . S
C10114 C10113 1.287 . S
C10114 C10115 1.524 . S
C10114 H10133 0.913 . S
C10115 H10091 0.950 . S
C10115 C10114 1.524 . S
C10115 C10116 1.415 . S
C10116 H10092 0.950 . S
C10116 C10111 1.363 . S
C10116 C10115 1.415 . S
C10117 H10093 0.951 . S
C10117 C10118 1.366 . S
C10117 C10119 1.388 . S
C10118 C10117 1.366 . S
C10118 C10122 1.385 . S
C10119 H10094 0.951 . S
C10119 C10117 1.388 . S
C10119 C10120 1.366 . S
C10120 C10119 1.366 . S
C10120 C10121 1.414 . S
C10120 C10123 1.499 . S
C10121 H10095 0.950 . S
C10121 C10120 1.414 . S
C10121 C10122 1.374 . S
C10122 H10096 0.950 . S
C10122 C10118 1.385 . S
C10122 C10121 1.374 . S
C10123 C10120 1.499 . S
C10123 C10124 1.373 . S
C10123 C10125 1.389 . S
C10124 H10097 0.950 . S
C10124 C10110 1.377 . S
C10124 C10123 1.373 . S
C10125 C10109 1.377 . S
C10125 C10123 1.389 . S
C10125 C10126 1.524 . S
C10126 C10125 1.524 . S
C10126 C10127 1.397 . S
C10126 C10131 1.363 . S
C10127 H10098 0.950 . S
C10127 C10126 1.397 . S
C10127 C10128 1.334 . S
C10128 H10099 0.950 . S
C10128 C10127 1.334 . S
C10128 C10129 1.287 . S
C10129 C10128 1.287 . S
C10129 C10130 1.524 . S
C10129 H10132 0.999 . S
C10130 H10100 0.950 . S
C10130 C10129 1.524 . S
C10130 C10131 1.415 . S
C10131 H10101 0.950 . S
C10131 C10126 1.363 . S
C10131 C10130 1.415 . S
H10132 C10129 0.999 . S
H10133 C10114 0.913 . S
H10134 C10152 0.951 . S
H10135 C10154 0.951 . S
H10136 C10156 0.950 . S
H10137 C10157 0.950 . S
H10138 C10159 0.950 . S
H10139 C10162 0.950 . S
H10140 C10163 0.950 . S
H10141 C10165 0.950 . S
H10142 C10166 0.950 . S
H10143 C10167 0.951 . S
H10144 C10169 0.951 . S
H10145 C10171 0.950 . S
H10146 C10172 0.950 . S
H10147 C10174 0.950 . S
H10148 C10177 0.950 . S
H10149 C10178 0.950 . S
H10150 C10180 0.950 . S
H10151 C10181 0.950 . S
C10152 H10134 0.951 . S
C10152 C10153 1.366 . S
C10152 C10154 1.388 . S
C10153 C10152 1.366 . S
C10153 C10157 1.385 . S
C10154 H10135 0.951 . S
C10154 C10152 1.388 . S
C10154 C10155 1.366 . S
C10155 C10154 1.366 . S
C10155 C10156 1.414 . S
C10155 C10158 1.499 . S
C10156 H10136 0.950 . S
C10156 C10155 1.414 . S
C10156 C10157 1.374 . S
C10157 H10137 0.950 . S
C10157 C10153 1.385 . S
C10157 C10156 1.374 . S
C10158 C10155 1.499 . S
C10158 C10159 1.373 . S
C10158 C10160 1.389 . S
C10159 H10138 0.950 . S
C10159 C10158 1.373 . S
C10159 C10175 1.377 . S
C10160 C10158 1.389 . S
C10160 C10161 1.524 . S
C10160 C10174 1.377 . S
C10161 C10160 1.524 . S
C10161 C10162 1.397 . S
C10161 C10166 1.363 . S
C10162 H10139 0.950 . S
C10162 C10161 1.397 . S
C10162 C10163 1.334 . S
C10163 H10140 0.950 . S
C10163 C10162 1.334 . S
C10163 C10164 1.287 . S
C10164 C10163 1.287 . S
C10164 C10165 1.524 . S
C10164 H10183 0.913 . S
C10165 H10141 0.950 . S
C10165 C10164 1.524 . S
C10165 C10166 1.415 . S
C10166 H10142 0.950 . S
C10166 C10161 1.363 . S
C10166 C10165 1.415 . S
C10167 H10143 0.951 . S
C10167 C10168 1.366 . S
C10167 C10169 1.388 . S
C10168 C10167 1.366 . S
C10168 C10172 1.385 . S
C10169 H10144 0.951 . S
C10169 C10167 1.388 . S
C10169 C10170 1.366 . S
C10170 C10169 1.366 . S
C10170 C10171 1.414 . S
C10170 C10173 1.499 . S
C10171 H10145 0.950 . S
C10171 C10170 1.414 . S
C10171 C10172 1.374 . S
C10172 H10146 0.950 . S
C10172 C10168 1.385 . S
C10172 C10171 1.374 . S
C10173 C10170 1.499 . S
C10173 C10174 1.373 . S
C10173 C10175 1.389 . S
C10174 H10147 0.950 . S
C10174 C10160 1.377 . S
C10174 C10173 1.373 . S
C10175 C10159 1.377 . S
C10175 C10173 1.389 . S
C10175 C10176 1.524 . S
C10176 C10175 1.524 . S
C10176 C10177 1.397 . S
C10176 C10181 1.363 . S
C10177 H10148 0.950 . S
C10177 C10176 1.397 . S
C10177 C10178 1.334 . S
C10178 H10149 0.950 . S
C10178 C10177 1.334 . S
C10178 C10179 1.287 . S
C10179 C10178 1.287 . S
C10179 C10180 1.524 . S
C10179 H10182 0.999 . S
C10180 H10150 0.950 . S
C10180 C10179 1.524 . S
C10180 C10181 1.415 . S
C10181 H10151 0.950 . S
C10181 C10176 1.363 . S
C10181 C10180 1.415 . S
H10182 C10179 0.999 . S
H10183 C10164 0.913 . S
H10184 C10202 0.951 . S
H10185 C10204 0.951 . S
H10186 C10206 0.950 . S
H10187 C10207 0.950 . S
H10188 C10209 0.950 . S
H10189 C10212 0.950 . S
H10190 C10213 0.950 . S
H10191 C10215 0.950 . S
H10192 C10216 0.950 . S
H10193 C10217 0.951 . S
H10194 C10219 0.951 . S
H10195 C10221 0.950 . S
H10196 C10222 0.950 . S
H10197 C10224 0.950 . S
H10198 C10227 0.950 . S
H10199 C10228 0.950 . S
H10200 C10230 0.950 . S
H10201 C10231 0.950 . S
C10202 H10184 0.951 . S
C10202 C10203 1.366 . S
C10202 C10204 1.388 . S
C10203 C10202 1.366 . S
C10203 C10207 1.385 . S
C10204 H10185 0.951 . S
C10204 C10202 1.388 . S
C10204 C10205 1.366 . S
C10205 C10204 1.366 . S
C10205 C10206 1.414 . S
C10205 C10208 1.499 . S
C10206 H10186 0.950 . S
C10206 C10205 1.414 . S
C10206 C10207 1.374 . S
C10207 H10187 0.950 . S
C10207 C10203 1.385 . S
C10207 C10206 1.374 . S
C10208 C10205 1.499 . S
C10208 C10209 1.373 . S
C10208 C10210 1.389 . S
C10209 H10188 0.950 . S
C10209 C10208 1.373 . S
C10209 C10225 1.377 . S
C10210 C10208 1.389 . S
C10210 C10211 1.524 . S
C10210 C10224 1.377 . S
C10211 C10210 1.524 . S
C10211 C10212 1.397 . S
C10211 C10216 1.363 . S
C10212 H10189 0.950 . S
C10212 C10211 1.397 . S
C10212 C10213 1.334 . S
C10213 H10190 0.950 . S
C10213 C10212 1.334 . S
C10213 C10214 1.287 . S
C10214 C10213 1.287 . S
C10214 C10215 1.524 . S
C10214 H10233 0.913 . S
C10215 H10191 0.950 . S
C10215 C10214 1.524 . S
C10215 C10216 1.415 . S
C10216 H10192 0.950 . S
C10216 C10211 1.363 . S
C10216 C10215 1.415 . S
C10217 H10193 0.951 . S
C10217 C10218 1.366 . S
C10217 C10219 1.388 . S
C10218 C10217 1.366 . S
C10218 C10222 1.385 . S
C10219 H10194 0.951 . S
C10219 C10217 1.388 . S
C10219 C10220 1.366 . S
C10220 C10219 1.366 . S
C10220 C10221 1.414 . S
C10220 C10223 1.499 . S
C10221 H10195 0.950 . S
C10221 C10220 1.414 . S
C10221 C10222 1.374 . S
C10222 H10196 0.950 . S
C10222 C10218 1.385 . S
C10222 C10221 1.374 . S
C10223 C10220 1.499 . S
C10223 C10224 1.373 . S
C10223 C10225 1.389 . S
C10224 H10197 0.950 . S
C10224 C10210 1.377 . S
C10224 C10223 1.373 . S
C10225 C10209 1.377 . S
C10225 C10223 1.389 . S
C10225 C10226 1.524 . S
C10226 C10225 1.524 . S
C10226 C10227 1.397 . S
C10226 C10231 1.363 . S
C10227 H10198 0.950 . S
C10227 C10226 1.397 . S
C10227 C10228 1.334 . S
C10228 H10199 0.950 . S
C10228 C10227 1.334 . S
C10228 C10229 1.287 . S
C10229 C10228 1.287 . S
C10229 C10230 1.524 . S
C10229 H10232 0.999 . S
C10230 H10200 0.950 . S
C10230 C10229 1.524 . S
C10230 C10231 1.415 . S
C10231 H10201 0.950 . S
C10231 C10226 1.363 . S
C10231 C10230 1.415 . S
H10232 C10229 0.999 . S
H10233 C10214 0.913 . S
H10234 C10252 0.951 . S
H10235 C10254 0.951 . S
H10236 C10256 0.950 . S
H10237 C10257 0.950 . S
H10238 C10259 0.950 . S
H10239 C10262 0.950 . S
H10240 C10263 0.950 . S
H10241 C10265 0.950 . S
H10242 C10266 0.950 . S
H10243 C10267 0.951 . S
H10244 C10269 0.951 . S
H10245 C10271 0.950 . S
H10246 C10272 0.950 . S
H10247 C10274 0.950 . S
H10248 C10277 0.950 . S
H10249 C10278 0.950 . S
H10250 C10280 0.950 . S
H10251 C10281 0.950 . S
C10252 H10234 0.951 . S
C10252 C10253 1.366 . S
C10252 C10254 1.388 . S
C10253 C10252 1.366 . S
C10253 C10257 1.385 . S
C10254 H10235 0.951 . S
C10254 C10252 1.388 . S
C10254 C10255 1.366 . S
C10255 C10254 1.366 . S
C10255 C10256 1.414 . S
C10255 C10258 1.499 . S
C10256 H10236 0.950 . S
C10256 C10255 1.414 . S
C10256 C10257 1.374 . S
C10257 H10237 0.950 . S
C10257 C10253 1.385 . S
C10257 C10256 1.374 . S
C10258 C10255 1.499 . S
C10258 C10259 1.373 . S
C10258 C10260 1.389 . S
C10259 H10238 0.950 . S
C10259 C10258 1.373 . S
C10259 C10275 1.377 . S
C10260 C10258 1.389 . S
C10260 C10261 1.524 . S
C10260 C10274 1.377 . S
C10261 C10260 1.524 . S
C10261 C10262 1.397 . S
C10261 C10266 1.363 . S
C10262 H10239 0.950 . S
C10262 C10261 1.397 . S
C10262 C10263 1.334 . S
C10263 H10240 0.950 . S
C10263 C10262 1.334 . S
C10263 C10264 1.287 . S
C10264 C10263 1.287 . S
C10264 C10265 1.524 . S
C10264 H10283 0.913 . S
C10265 H10241 0.950 . S
C10265 C10264 1.524 . S
C10265 C10266 1.415 . S
C10266 H10242 0.950 . S
C10266 C10261 1.363 . S
C10266 C10265 1.415 . S
C10267 H10243 0.951 . S
C10267 C10268 1.366 . S
C10267 C10269 1.388 . S
C10268 C10267 1.366 . S
C10268 C10272 1.385 . S
C10269 H10244 0.951 . S
C10269 C10267 1.388 . S
C10269 C10270 1.366 . S
C10270 C10269 1.366 . S
C10270 C10271 1.414 . S
C10270 C10273 1.499 . S
C10271 H10245 0.950 . S
C10271 C10270 1.414 . S
C10271 C10272 1.374 . S
C10272 H10246 0.950 . S
C10272 C10268 1.385 . S
C10272 C10271 1.374 . S
C10273 C10270 1.499 . S
C10273 C10274 1.373 . S
C10273 C10275 1.389 . S
C10274 H10247 0.950 . S
C10274 C10260 1.377 . S
C10274 C10273 1.373 . S
C10275 C10259 1.377 . S
C10275 C10273 1.389 . S
C10275 C10276 1.524 . S
C10276 C10275 1.524 . S
C10276 C10277 1.397 . S
C10276 C10281 1.363 . S
C10277 H10248 0.950 . S
C10277 C10276 1.397 . S
C10277 C10278 1.334 . S
C10278 H10249 0.950 . S
C10278 C10277 1.334 . S
C10278 C10279 1.287 . S
C10279 C10278 1.287 . S
C10279 C10280 1.524 . S
C10279 H10282 0.999 . S
C10280 H10250 0.950 . S
C10280 C10279 1.524 . S
C10280 C10281 1.415 . S
C10281 H10251 0.950 . S
C10281 C10276 1.363 . S
C10281 C10280 1.415 . S
H10282 C10279 0.999 . S
H10283 C10264 0.913 . S
H10284 C10302 0.951 . S
H10285 C10304 0.951 . S
H10286 C10306 0.950 . S
H10287 C10307 0.950 . S
H10288 C10309 0.950 . S
H10289 C10312 0.950 . S
H10290 C10313 0.950 . S
H10291 C10315 0.950 . S
H10292 C10316 0.950 . S
H10293 C10317 0.951 . S
H10294 C10319 0.951 . S
H10295 C10321 0.950 . S
H10296 C10322 0.950 . S
H10297 C10324 0.950 . S
H10298 C10327 0.950 . S
H10299 C10328 0.950 . S
H10300 C10330 0.950 . S
H10301 C10331 0.950 . S
C10302 H10284 0.951 . S
C10302 C10303 1.366 . S
C10302 C10304 1.388 . S
C10303 C10302 1.366 . S
C10303 C10307 1.385 . S
C10304 H10285 0.951 . S
C10304 C10302 1.388 . S
C10304 C10305 1.366 . S
C10305 C10304 1.366 . S
C10305 C10306 1.414 . S
C10305 C10308 1.499 . S
C10306 H10286 0.950 . S
C10306 C10305 1.414 . S
C10306 C10307 1.374 . S
C10307 H10287 0.950 . S
C10307 C10303 1.385 . S
C10307 C10306 1.374 . S
C10308 C10305 1.499 . S
C10308 C10309 1.373 . S
C10308 C10310 1.389 . S
C10309 H10288 0.950 . S
C10309 C10308 1.373 . S
C10309 C10325 1.377 . S
C10310 C10308 1.389 . S
C10310 C10311 1.524 . S
C10310 C10324 1.377 . S
C10311 C10310 1.524 . S
C10311 C10312 1.397 . S
C10311 C10316 1.363 . S
C10312 H10289 0.950 . S
C10312 C10311 1.397 . S
C10312 C10313 1.334 . S
C10313 H10290 0.950 . S
C10313 C10312 1.334 . S
C10313 C10314 1.287 . S
C10314 C10313 1.287 . S
C10314 C10315 1.524 . S
C10314 H10333 0.913 . S
C10315 H10291 0.950 . S
C10315 C10314 1.524 . S
C10315 C10316 1.415 . S
C10316 H10292 0.950 . S
C10316 C10311 1.363 . S
C10316 C10315 1.415 . S
C10317 H10293 0.951 . S
C10317 C10318 1.366 . S
C10317 C10319 1.388 . S
C10318 C10317 1.366 . S
C10318 C10322 1.385 . S
C10319 H10294 0.951 . S
C10319 C10317 1.388 . S
C10319 C10320 1.366 . S
C10320 C10319 1.366 . S
C10320 C10321 1.414 . S
C10320 C10323 1.499 1_545 S
C10321 H10295 0.950 . S
C10321 C10320 1.414 . S
C10321 C10322 1.374 . S
C10322 H10296 0.950 . S
C10322 C10318 1.385 . S
C10322 C10321 1.374 . S
C10323 C10320 1.499 1_565 S
C10323 C10324 1.373 . S
C10323 C10325 1.389 . S
C10324 H10297 0.950 . S
C10324 C10310 1.377 . S
C10324 C10323 1.373 . S
C10325 C10309 1.377 . S
C10325 C10323 1.389 . S
C10325 C10326 1.548 . S
C10326 C10325 1.548 . S
C10326 C10327 1.375 1_565 S
C10326 C10331 1.367 . S
C10327 H10298 0.950 . S
C10327 C10326 1.375 1_545 S
C10327 C10328 1.334 . S
C10328 H10299 0.950 . S
C10328 C10327 1.334 . S
C10328 C10329 1.287 . S
C10329 C10328 1.287 . S
C10329 C10330 1.524 . S
C10329 H10332 0.999 . S
C10330 H10300 0.950 . S
C10330 C10329 1.524 . S
C10330 C10331 1.415 1_545 S
C10331 H10301 0.950 . S
C10331 C10326 1.367 . S
C10331 C10330 1.415 1_565 S
H10332 C10329 0.999 . S
H10333 C10314 0.913 . S
H10334 C10352 0.951 . S
H10335 C10354 0.951 . S
H10336 C10356 0.950 . S
H10337 C10357 0.950 . S
H10338 C10359 0.950 . S
H10339 C10362 0.950 . S
H10340 C10363 0.950 . S
H10341 C10365 0.950 . S
H10342 C10366 0.950 . S
H10343 C10367 0.951 . S
H10344 C10369 0.951 . S
H10345 C10371 0.950 . S
H10346 C10372 0.950 . S
H10347 C10374 0.950 . S
H10348 C10377 0.950 . S
H10349 C10378 0.950 . S
H10350 C10380 0.950 . S
H10351 C10381 0.950 . S
C10352 H10334 0.951 . S
C10352 C10353 1.366 . S
C10352 C10354 1.388 . S
C10353 C10352 1.366 . S
C10353 C10357 1.385 . S
C10354 H10335 0.951 . S
C10354 C10352 1.388 . S
C10354 C10355 1.366 . S
C10355 C10354 1.366 . S
C10355 C10356 1.414 . S
C10355 C10358 1.499 . S
C10356 H10336 0.950 . S
C10356 C10355 1.414 . S
C10356 C10357 1.374 . S
C10357 H10337 0.950 . S
C10357 C10353 1.385 . S
C10357 C10356 1.374 . S
C10358 C10355 1.499 . S
C10358 C10359 1.373 . S
C10358 C10360 1.389 . S
C10359 H10338 0.950 . S
C10359 C10358 1.373 . S
C10359 C10375 1.377 . S
C10360 C10358 1.389 . S
C10360 C10361 1.524 . S
C10360 C10374 1.377 . S
C10361 C10360 1.524 . S
C10361 C10362 1.397 . S
C10361 C10366 1.363 . S
C10362 H10339 0.950 . S
C10362 C10361 1.397 . S
C10362 C10363 1.334 . S
C10363 H10340 0.950 . S
C10363 C10362 1.334 . S
C10363 C10364 1.287 . S
C10364 C10363 1.287 . S
C10364 C10365 1.524 . S
C10364 H10383 0.913 . S
C10365 H10341 0.950 . S
C10365 C10364 1.524 . S
C10365 C10366 1.415 . S
C10366 H10342 0.950 . S
C10366 C10361 1.363 . S
C10366 C10365 1.415 . S
C10367 H10343 0.951 . S
C10367 C10368 1.366 . S
C10367 C10369 1.388 . S
C10368 C10367 1.366 . S
C10368 C10372 1.385 . S
C10369 H10344 0.951 . S
C10369 C10367 1.388 . S
C10369 C10370 1.366 . S
C10370 C10369 1.366 . S
C10370 C10371 1.414 . S
C10370 C10373 1.499 . S
C10371 H10345 0.950 . S
C10371 C10370 1.414 . S
C10371 C10372 1.374 . S
C10372 H10346 0.950 . S
C10372 C10368 1.385 . S
C10372 C10371 1.374 . S
C10373 C10370 1.499 . S
C10373 C10374 1.373 . S
C10373 C10375 1.389 . S
C10374 H10347 0.950 . S
C10374 C10360 1.377 . S
C10374 C10373 1.373 . S
C10375 C10359 1.377 . S
C10375 C10373 1.389 . S
C10375 C10376 1.524 . S
C10376 C10375 1.524 . S
C10376 C10377 1.397 . S
C10376 C10381 1.363 . S
C10377 H10348 0.950 . S
C10377 C10376 1.397 . S
C10377 C10378 1.334 . S
C10378 H10349 0.950 . S
C10378 C10377 1.334 . S
C10378 C10379 1.287 . S
C10379 C10378 1.287 . S
C10379 C10380 1.524 . S
C10379 H10382 0.999 . S
C10380 H10350 0.950 . S
C10380 C10379 1.524 . S
C10380 C10381 1.415 . S
C10381 H10351 0.950 . S
C10381 C10376 1.363 . S
C10381 C10380 1.415 . S
H10382 C10379 0.999 . S
H10383 C10364 0.913 . S
H10384 C10402 0.951 . S
H10385 C10404 0.951 . S
H10386 C10406 0.950 . S
H10387 C10407 0.950 . S
H10388 C10409 0.950 . S
H10389 C10412 0.950 . S
H10390 C10413 0.950 . S
H10391 C10415 0.950 . S
H10392 C10416 0.950 . S
H10393 C10417 0.951 . S
H10394 C10419 0.951 . S
H10395 C10421 0.950 . S
H10396 C10422 0.950 . S
H10397 C10424 0.950 . S
H10398 C10427 0.950 . S
H10399 C10428 0.950 . S
H10400 C10430 0.950 . S
H10401 C10431 0.950 . S
C10402 H10384 0.951 . S
C10402 C10403 1.366 . S
C10402 C10404 1.388 . S
C10403 C10402 1.366 . S
C10403 C10407 1.385 . S
C10404 H10385 0.951 . S
C10404 C10402 1.388 . S
C10404 C10405 1.366 . S
C10405 C10404 1.366 . S
C10405 C10406 1.414 . S
C10405 C10408 1.499 . S
C10406 H10386 0.950 . S
C10406 C10405 1.414 . S
C10406 C10407 1.374 . S
C10407 H10387 0.950 . S
C10407 C10403 1.385 . S
C10407 C10406 1.374 . S
C10408 C10405 1.499 . S
C10408 C10409 1.373 . S
C10408 C10410 1.389 . S
C10409 H10388 0.950 . S
C10409 C10408 1.373 . S
C10409 C10425 1.377 . S
C10410 C10408 1.389 . S
C10410 C10411 1.524 . S
C10410 C10424 1.377 . S
C10411 C10410 1.524 . S
C10411 C10412 1.397 . S
C10411 C10416 1.363 . S
C10412 H10389 0.950 . S
C10412 C10411 1.397 . S
C10412 C10413 1.334 . S
C10413 H10390 0.950 . S
C10413 C10412 1.334 . S
C10413 C10414 1.287 . S
C10414 C10413 1.287 . S
C10414 C10415 1.524 . S
C10414 H10433 0.913 . S
C10415 H10391 0.950 . S
C10415 C10414 1.524 . S
C10415 C10416 1.415 . S
C10416 H10392 0.950 . S
C10416 C10411 1.363 . S
C10416 C10415 1.415 . S
C10417 H10393 0.951 . S
C10417 C10418 1.366 . S
C10417 C10419 1.388 . S
C10418 C10417 1.366 . S
C10418 C10422 1.385 . S
C10419 H10394 0.951 . S
C10419 C10417 1.388 . S
C10419 C10420 1.366 . S
C10420 C10419 1.366 . S
C10420 C10421 1.414 . S
C10420 C10423 1.499 . S
C10421 H10395 0.950 . S
C10421 C10420 1.414 . S
C10421 C10422 1.374 . S
C10422 H10396 0.950 . S
C10422 C10418 1.385 . S
C10422 C10421 1.374 . S
C10423 C10420 1.499 . S
C10423 C10424 1.373 . S
C10423 C10425 1.389 . S
C10424 H10397 0.950 . S
C10424 C10410 1.377 . S
C10424 C10423 1.373 . S
C10425 C10409 1.377 . S
C10425 C10423 1.389 . S
C10425 C10426 1.524 . S
C10426 C10425 1.524 . S
C10426 C10427 1.397 . S
C10426 C10431 1.363 . S
C10427 H10398 0.950 . S
C10427 C10426 1.397 . S
C10427 C10428 1.334 . S
C10428 H10399 0.950 . S
C10428 C10427 1.334 . S
C10428 C10429 1.287 . S
C10429 C10428 1.287 . S
C10429 C10430 1.524 . S
C10429 H10432 0.999 . S
C10430 H10400 0.950 . S
C10430 C10429 1.524 . S
C10430 C10431 1.415 . S
C10431 H10401 0.950 . S
C10431 C10426 1.363 . S
C10431 C10430 1.415 . S
H10432 C10429 0.999 . S
H10433 C10414 0.913 . S
H10434 C10452 0.951 . S
H10435 C10454 0.951 . S
H10436 C10456 0.950 . S
H10437 C10457 0.950 . S
H10438 C10459 0.950 . S
H10439 C10462 0.950 . S
H10440 C10463 0.950 . S
H10441 C10465 0.950 . S
H10442 C10466 0.950 . S
H10443 C10467 0.951 . S
H10444 C10469 0.951 . S
H10445 C10471 0.950 . S
H10446 C10472 0.950 . S
H10447 C10474 0.950 . S
H10448 C10477 0.950 . S
H10449 C10478 0.950 . S
H10450 C10480 0.950 . S
H10451 C10481 0.950 . S
C10452 H10434 0.951 . S
C10452 C10453 1.366 . S
C10452 C10454 1.388 . S
C10453 C10452 1.366 . S
C10453 C10457 1.385 . S
C10454 H10435 0.951 . S
C10454 C10452 1.388 . S
C10454 C10455 1.366 . S
C10455 C10454 1.366 . S
C10455 C10456 1.414 . S
C10455 C10458 1.499 . S
C10456 H10436 0.950 . S
C10456 C10455 1.414 . S
C10456 C10457 1.374 . S
C10457 H10437 0.950 . S
C10457 C10453 1.385 . S
C10457 C10456 1.374 . S
C10458 C10455 1.499 . S
C10458 C10459 1.373 . S
C10458 C10460 1.389 . S
C10459 H10438 0.950 . S
C10459 C10458 1.373 . S
C10459 C10475 1.377 . S
C10460 C10458 1.389 . S
C10460 C10461 1.524 . S
C10460 C10474 1.377 . S
C10461 C10460 1.524 . S
C10461 C10462 1.397 . S
C10461 C10466 1.363 . S
C10462 H10439 0.950 . S
C10462 C10461 1.397 . S
C10462 C10463 1.334 . S
C10463 H10440 0.950 . S
C10463 C10462 1.334 . S
C10463 C10464 1.287 . S
C10464 C10463 1.287 . S
C10464 C10465 1.524 . S
C10464 H10483 0.913 . S
C10465 H10441 0.950 . S
C10465 C10464 1.524 . S
C10465 C10466 1.415 . S
C10466 H10442 0.950 . S
C10466 C10461 1.363 . S
C10466 C10465 1.415 . S
C10467 H10443 0.951 . S
C10467 C10468 1.366 . S
C10467 C10469 1.388 . S
C10468 C10467 1.366 . S
C10468 C10472 1.385 . S
C10469 H10444 0.951 . S
C10469 C10467 1.388 . S
C10469 C10470 1.366 . S
C10470 C10469 1.366 . S
C10470 C10471 1.414 . S
C10470 C10473 1.499 . S
C10471 H10445 0.950 . S
C10471 C10470 1.414 . S
C10471 C10472 1.374 . S
C10472 H10446 0.950 . S
C10472 C10468 1.385 . S
C10472 C10471 1.374 . S
C10473 C10470 1.499 . S
C10473 C10474 1.373 . S
C10473 C10475 1.389 . S
C10474 H10447 0.950 . S
C10474 C10460 1.377 . S
C10474 C10473 1.373 . S
C10475 C10459 1.377 . S
C10475 C10473 1.389 . S
C10475 C10476 1.524 . S
C10476 C10475 1.524 . S
C10476 C10477 1.397 . S
C10476 C10481 1.363 . S
C10477 H10448 0.950 . S
C10477 C10476 1.397 . S
C10477 C10478 1.334 . S
C10478 H10449 0.950 . S
C10478 C10477 1.334 . S
C10478 C10479 1.287 . S
C10479 C10478 1.287 . S
C10479 C10480 1.524 . S
C10479 H10482 0.999 . S
C10480 H10450 0.950 . S
C10480 C10479 1.524 . S
C10480 C10481 1.415 . S
C10481 H10451 0.950 . S
C10481 C10476 1.363 . S
C10481 C10480 1.415 . S
H10482 C10479 0.999 . S
H10483 C10464 0.913 . S
H10484 C10502 0.951 . S
H10485 C10504 0.951 1_565 S
H10486 C10506 0.950 . S
H10487 C10507 0.950 . S
H10488 C10509 0.950 . S
H10489 C10512 0.950 1_545 S
H10490 C10513 0.950 . S
H10491 C10515 0.950 . S
H10492 C10516 0.950 . S
H10493 C10517 0.951 . S
H10494 C10519 0.951 . S
H10495 C10521 0.950 . S
H10496 C10522 0.950 . S
H10497 C10524 0.950 . S
H10498 C10527 0.950 . S
H10499 C10528 0.950 . S
H10500 C10530 0.950 . S
H10501 C10531 0.950 . S
C10502 H10484 0.951 . S
C10502 C10503 1.366 . S
C10502 C10504 1.388 . S
C10503 C10502 1.366 . S
C10503 C10507 1.385 . S
C10504 H10485 0.951 1_545 S
C10504 C10502 1.388 . S
C10504 C10505 1.366 . S
C10505 C10504 1.366 . S
C10505 C10506 1.414 . S
C10505 C10508 1.499 1_545 S
C10506 H10486 0.950 . S
C10506 C10505 1.414 . S
C10506 C10507 1.374 . S
C10507 H10487 0.950 . S
C10507 C10503 1.385 . S
C10507 C10506 1.374 . S
C10508 C10505 1.499 1_565 S
C10508 C10509 1.373 . S
C10508 C10510 1.389 . S
C10509 H10488 0.950 . S
C10509 C10508 1.373 . S
C10509 C10525 1.377 . S
C10510 C10508 1.389 . S
C10510 C10511 1.524 . S
C10510 C10524 1.377 . S
C10511 C10510 1.524 . S
C10511 C10512 1.397 . S
C10511 C10516 1.363 . S
C10512 H10489 0.950 1_565 S
C10512 C10511 1.397 . S
C10512 C10513 1.334 1_565 S
C10513 H10490 0.950 . S
C10513 C10512 1.334 1_545 S
C10513 C10514 1.287 1_545 S
C10514 C10513 1.287 1_565 S
C10514 C10515 1.524 . S
C10514 H10533 0.913 . S
C10515 H10491 0.950 . S
C10515 C10514 1.524 . S
C10515 C10516 1.415 . S
C10516 H10492 0.950 . S
C10516 C10511 1.363 . S
C10516 C10515 1.415 . S
C10517 H10493 0.951 . S
C10517 C10518 1.366 . S
C10517 C10519 1.388 . S
C10518 C10517 1.366 . S
C10518 C10522 1.385 . S
C10519 H10494 0.951 . S
C10519 C10517 1.388 . S
C10519 C10520 1.366 . S
C10520 C10519 1.366 . S
C10520 C10521 1.414 . S
C10520 C10523 1.499 . S
C10521 H10495 0.950 . S
C10521 C10520 1.414 . S
C10521 C10522 1.374 . S
C10522 H10496 0.950 . S
C10522 C10518 1.385 . S
C10522 C10521 1.374 . S
C10523 C10520 1.499 . S
C10523 C10524 1.373 . S
C10523 C10525 1.389 . S
C10524 H10497 0.950 . S
C10524 C10510 1.377 . S
C10524 C10523 1.373 . S
C10525 C10509 1.377 . S
C10525 C10523 1.389 . S
C10525 C10526 1.524 . S
C10526 C10525 1.524 . S
C10526 C10527 1.397 . S
C10526 C10531 1.363 . S
C10527 H10498 0.950 . S
C10527 C10526 1.397 . S
C10527 C10528 1.334 . S
C10528 H10499 0.950 . S
C10528 C10527 1.334 . S
C10528 C10529 1.287 . S
C10529 C10528 1.287 . S
C10529 C10530 1.524 . S
C10529 H10532 0.999 . S
C10530 H10500 0.950 . S
C10530 C10529 1.524 . S
C10530 C10531 1.415 . S
C10531 H10501 0.950 . S
C10531 C10526 1.363 . S
C10531 C10530 1.415 . S
H10532 C10529 0.999 . S
H10533 C10514 0.913 . S
H10534 C10552 0.951 . S
H10535 C10554 0.951 . S
H10536 C10556 0.950 . S
H10537 C10557 0.950 . S
H10538 C10559 0.950 . S
H10539 C10562 0.950 . S
H10540 C10563 0.950 . S
H10541 C10565 0.950 . S
H10542 C10566 0.950 . S
H10543 C10567 0.951 . S
H10544 C10569 0.951 . S
H10545 C10571 0.950 . S
H10546 C10572 0.950 . S
H10547 C10574 0.950 . S
H10548 C10577 0.950 . S
H10549 C10578 0.950 . S
H10550 C10580 0.950 . S
H10551 C10581 0.950 . S
C10552 H10534 0.951 . S
C10552 C10553 1.366 . S
C10552 C10554 1.388 . S
C10553 C10552 1.366 . S
C10553 C10557 1.385 . S
C10554 H10535 0.951 . S
C10554 C10552 1.388 . S
C10554 C10555 1.366 . S
C10555 C10554 1.366 . S
C10555 C10556 1.414 . S
C10555 C10558 1.499 . S
C10556 H10536 0.950 . S
C10556 C10555 1.414 . S
C10556 C10557 1.374 . S
C10557 H10537 0.950 . S
C10557 C10553 1.385 . S
C10557 C10556 1.374 . S
C10558 C10555 1.499 . S
C10558 C10559 1.373 . S
C10558 C10560 1.389 . S
C10559 H10538 0.950 . S
C10559 C10558 1.373 . S
C10559 C10575 1.377 . S
C10560 C10558 1.389 . S
C10560 C10561 1.524 . S
C10560 C10574 1.377 . S
C10561 C10560 1.524 . S
C10561 C10562 1.397 . S
C10561 C10566 1.363 . S
C10562 H10539 0.950 . S
C10562 C10561 1.397 . S
C10562 C10563 1.334 . S
C10563 H10540 0.950 . S
C10563 C10562 1.334 . S
C10563 C10564 1.287 . S
C10564 C10563 1.287 . S
C10564 C10565 1.524 . S
C10564 H10583 0.913 . S
C10565 H10541 0.950 . S
C10565 C10564 1.524 . S
C10565 C10566 1.415 . S
C10566 H10542 0.950 . S
C10566 C10561 1.363 . S
C10566 C10565 1.415 . S
C10567 H10543 0.951 . S
C10567 C10568 1.366 . S
C10567 C10569 1.388 . S
C10568 C10567 1.366 . S
C10568 C10572 1.385 . S
C10569 H10544 0.951 . S
C10569 C10567 1.388 . S
C10569 C10570 1.366 . S
C10570 C10569 1.366 . S
C10570 C10571 1.414 . S
C10570 C10573 1.499 . S
C10571 H10545 0.950 . S
C10571 C10570 1.414 . S
C10571 C10572 1.374 . S
C10572 H10546 0.950 . S
C10572 C10568 1.385 . S
C10572 C10571 1.374 . S
C10573 C10570 1.499 . S
C10573 C10574 1.373 . S
C10573 C10575 1.389 . S
C10574 H10547 0.950 . S
C10574 C10560 1.377 . S
C10574 C10573 1.373 . S
C10575 C10559 1.377 . S
C10575 C10573 1.389 . S
C10575 C10576 1.524 . S
C10576 C10575 1.524 . S
C10576 C10577 1.397 . S
C10576 C10581 1.363 . S
C10577 H10548 0.950 . S
C10577 C10576 1.397 . S
C10577 C10578 1.334 . S
C10578 H10549 0.950 . S
C10578 C10577 1.334 . S
C10578 C10579 1.287 . S
C10579 C10578 1.287 . S
C10579 C10580 1.524 . S
C10579 H10582 0.999 . S
C10580 H10550 0.950 . S
C10580 C10579 1.524 . S
C10580 C10581 1.415 . S
C10581 H10551 0.950 . S
C10581 C10576 1.363 . S
C10581 C10580 1.415 . S
H10582 C10579 0.999 . S
H10583 C10564 0.913 . S
H10584 C10602 0.951 . S
H10585 C10604 0.951 . S
H10586 C10606 0.950 . S
H10587 C10607 0.950 . S
H10588 C10609 0.950 . S
H10589 C10612 0.950 . S
H10590 C10613 0.950 . S
H10591 C10615 0.950 . S
H10592 C10616 0.950 . S
H10593 C10617 0.951 . S
H10594 C10619 0.951 . S
H10595 C10621 0.950 . S
H10596 C10622 0.950 . S
H10597 C10624 0.950 . S
H10598 C10627 0.950 . S
H10599 C10628 0.950 . S
H10600 C10630 0.950 . S
H10601 C10631 0.950 . S
C10602 H10584 0.951 . S
C10602 C10603 1.366 . S
C10602 C10604 1.388 . S
C10603 C10602 1.366 . S
C10603 C10607 1.385 . S
C10604 H10585 0.951 . S
C10604 C10602 1.388 . S
C10604 C10605 1.366 . S
C10605 C10604 1.366 . S
C10605 C10606 1.414 . S
C10605 C10608 1.499 . S
C10606 H10586 0.950 . S
C10606 C10605 1.414 . S
C10606 C10607 1.374 . S
C10607 H10587 0.950 . S
C10607 C10603 1.385 . S
C10607 C10606 1.374 . S
C10608 C10605 1.499 . S
C10608 C10609 1.373 . S
C10608 C10610 1.389 . S
C10609 H10588 0.950 . S
C10609 C10608 1.373 . S
C10609 C10625 1.377 . S
C10610 C10608 1.389 . S
C10610 C10611 1.524 . S
C10610 C10624 1.377 . S
C10611 C10610 1.524 . S
C10611 C10612 1.397 . S
C10611 C10616 1.363 . S
C10612 H10589 0.950 . S
C10612 C10611 1.397 . S
C10612 C10613 1.334 . S
C10613 H10590 0.950 . S
C10613 C10612 1.334 . S
C10613 C10614 1.287 . S
C10614 C10613 1.287 . S
C10614 C10615 1.524 . S
C10614 H10633 0.913 . S
C10615 H10591 0.950 . S
C10615 C10614 1.524 . S
C10615 C10616 1.415 . S
C10616 H10592 0.950 . S
C10616 C10611 1.363 . S
C10616 C10615 1.415 . S
C10617 H10593 0.951 . S
C10617 C10618 1.366 . S
C10617 C10619 1.388 . S
C10618 C10617 1.366 . S
C10618 C10622 1.385 . S
C10619 H10594 0.951 . S
C10619 C10617 1.388 . S
C10619 C10620 1.366 . S
C10620 C10619 1.366 . S
C10620 C10621 1.414 . S
C10620 C10623 1.499 . S
C10621 H10595 0.950 . S
C10621 C10620 1.414 . S
C10621 C10622 1.374 . S
C10622 H10596 0.950 . S
C10622 C10618 1.385 . S
C10622 C10621 1.374 . S
C10623 C10620 1.499 . S
C10623 C10624 1.373 . S
C10623 C10625 1.389 . S
C10624 H10597 0.950 . S
C10624 C10610 1.377 . S
C10624 C10623 1.373 . S
C10625 C10609 1.377 . S
C10625 C10623 1.389 . S
C10625 C10626 1.524 . S
C10626 C10625 1.524 . S
C10626 C10627 1.397 . S
C10626 C10631 1.363 . S
C10627 H10598 0.950 . S
C10627 C10626 1.397 . S
C10627 C10628 1.334 . S
C10628 H10599 0.950 . S
C10628 C10627 1.334 . S
C10628 C10629 1.287 . S
C10629 C10628 1.287 . S
C10629 C10630 1.524 . S
C10629 H10632 0.999 . S
C10630 H10600 0.950 . S
C10630 C10629 1.524 . S
C10630 C10631 1.415 . S
C10631 H10601 0.950 . S
C10631 C10626 1.363 . S
C10631 C10630 1.415 . S
H10632 C10629 0.999 . S
H10633 C10614 0.913 . S
H10634 C10652 0.951 . S
H10635 C10654 0.951 . S
H10636 C10656 0.950 . S
H10637 C10657 0.950 . S
H10638 C10659 0.950 . S
H10639 C10662 0.950 . S
H10640 C10663 0.950 . S
H10641 C10665 0.950 . S
H10642 C10666 0.950 . S
H10643 C10667 0.951 . S
H10644 C10669 0.951 . S
H10645 C10671 0.950 . S
H10646 C10672 0.950 . S
H10647 C10674 0.950 . S
H10648 C10677 0.950 . S
H10649 C10678 0.950 . S
H10650 C10680 0.950 . S
H10651 C10681 0.950 . S
C10652 H10634 0.951 . S
C10652 C10653 1.366 . S
C10652 C10654 1.388 . S
C10653 C10652 1.366 . S
C10653 C10657 1.385 . S
C10654 H10635 0.951 . S
C10654 C10652 1.388 . S
C10654 C10655 1.366 . S
C10655 C10654 1.366 . S
C10655 C10656 1.414 . S
C10655 C10658 1.499 . S
C10656 H10636 0.950 . S
C10656 C10655 1.414 . S
C10656 C10657 1.374 . S
C10657 H10637 0.950 . S
C10657 C10653 1.385 . S
C10657 C10656 1.374 . S
C10658 C10655 1.499 . S
C10658 C10659 1.373 . S
C10658 C10660 1.389 . S
C10659 H10638 0.950 . S
C10659 C10658 1.373 . S
C10659 C10675 1.377 . S
C10660 C10658 1.389 . S
C10660 C10661 1.524 . S
C10660 C10674 1.377 . S
C10661 C10660 1.524 . S
C10661 C10662 1.397 . S
C10661 C10666 1.363 . S
C10662 H10639 0.950 . S
C10662 C10661 1.397 . S
C10662 C10663 1.334 . S
C10663 H10640 0.950 . S
C10663 C10662 1.334 . S
C10663 C10664 1.287 . S
C10664 C10663 1.287 . S
C10664 C10665 1.524 . S
C10664 H10683 0.913 . S
C10665 H10641 0.950 . S
C10665 C10664 1.524 . S
C10665 C10666 1.415 . S
C10666 H10642 0.950 . S
C10666 C10661 1.363 . S
C10666 C10665 1.415 . S
C10667 H10643 0.951 . S
C10667 C10668 1.366 . S
C10667 C10669 1.388 . S
C10668 C10667 1.366 . S
C10668 C10672 1.385 . S
C10669 H10644 0.951 . S
C10669 C10667 1.388 . S
C10669 C10670 1.366 . S
C10670 C10669 1.366 . S
C10670 C10671 1.414 . S
C10670 C10673 1.499 . S
C10671 H10645 0.950 . S
C10671 C10670 1.414 . S
C10671 C10672 1.374 . S
C10672 H10646 0.950 . S
C10672 C10668 1.385 . S
C10672 C10671 1.374 . S
C10673 C10670 1.499 . S
C10673 C10674 1.373 . S
C10673 C10675 1.389 . S
C10674 H10647 0.950 . S
C10674 C10660 1.377 . S
C10674 C10673 1.373 . S
C10675 C10659 1.377 . S
C10675 C10673 1.389 . S
C10675 C10676 1.524 . S
C10676 C10675 1.524 . S
C10676 C10677 1.397 . S
C10676 C10681 1.363 . S
C10677 H10648 0.950 . S
C10677 C10676 1.397 . S
C10677 C10678 1.334 . S
C10678 H10649 0.950 . S
C10678 C10677 1.334 . S
C10678 C10679 1.287 . S
C10679 C10678 1.287 . S
C10679 C10680 1.524 . S
C10679 H10682 0.999 . S
C10680 H10650 0.950 . S
C10680 C10679 1.524 . S
C10680 C10681 1.415 . S
C10681 H10651 0.950 . S
C10681 C10676 1.363 . S
C10681 C10680 1.415 . S
H10682 C10679 0.999 . S
H10683 C10664 0.913 . S
H10684 C10702 0.951 . S
H10685 C10704 0.951 . S
H10686 C10706 0.950 . S
H10687 C10707 0.950 . S
H10688 C10709 0.950 . S
H10689 C10712 0.950 . S
H10690 C10713 0.950 . S
H10691 C10715 0.950 . S
H10692 C10716 0.950 . S
H10693 C10717 0.951 . S
H10694 C10719 0.951 . S
H10695 C10721 0.950 . S
H10696 C10722 0.950 . S
H10697 C10724 0.950 . S
H10698 C10727 0.950 . S
H10699 C10728 0.950 . S
H10700 C10730 0.950 . S
H10701 C10731 0.950 . S
C10702 H10684 0.951 . S
C10702 C10703 1.366 . S
C10702 C10704 1.388 . S
C10703 C10702 1.366 . S
C10703 C10707 1.385 . S
C10704 H10685 0.951 . S
C10704 C10702 1.388 . S
C10704 C10705 1.366 . S
C10705 C10704 1.366 . S
C10705 C10706 1.414 . S
C10705 C10708 1.499 . S
C10706 H10686 0.950 . S
C10706 C10705 1.414 . S
C10706 C10707 1.374 . S
C10707 H10687 0.950 . S
C10707 C10703 1.385 . S
C10707 C10706 1.374 . S
C10708 C10705 1.499 . S
C10708 C10709 1.373 . S
C10708 C10710 1.389 . S
C10709 H10688 0.950 . S
C10709 C10708 1.373 . S
C10709 C10725 1.377 . S
C10710 C10708 1.389 . S
C10710 C10711 1.524 . S
C10710 C10724 1.377 . S
C10711 C10710 1.524 . S
C10711 C10712 1.397 . S
C10711 C10716 1.363 . S
C10712 H10689 0.950 . S
C10712 C10711 1.397 . S
C10712 C10713 1.334 . S
C10713 H10690 0.950 . S
C10713 C10712 1.334 . S
C10713 C10714 1.287 . S
C10714 C10713 1.287 . S
C10714 C10715 1.524 . S
C10714 H10733 0.913 . S
C10715 H10691 0.950 . S
C10715 C10714 1.524 . S
C10715 C10716 1.415 . S
C10716 H10692 0.950 . S
C10716 C10711 1.363 . S
C10716 C10715 1.415 . S
C10717 H10693 0.951 . S
C10717 C10718 1.366 . S
C10717 C10719 1.388 . S
C10718 C10717 1.366 . S
C10718 C10722 1.385 . S
C10719 H10694 0.951 . S
C10719 C10717 1.388 . S
C10719 C10720 1.366 . S
C10720 C10719 1.366 . S
C10720 C10721 1.414 . S
C10720 C10723 1.499 . S
C10721 H10695 0.950 . S
C10721 C10720 1.414 . S
C10721 C10722 1.374 . S
C10722 H10696 0.950 . S
C10722 C10718 1.385 . S
C10722 C10721 1.374 . S
C10723 C10720 1.499 . S
C10723 C10724 1.373 . S
C10723 C10725 1.389 . S
C10724 H10697 0.950 . S
C10724 C10710 1.377 . S
C10724 C10723 1.373 . S
C10725 C10709 1.377 . S
C10725 C10723 1.389 . S
C10725 C10726 1.524 . S
C10726 C10725 1.524 . S
C10726 C10727 1.397 . S
C10726 C10731 1.363 . S
C10727 H10698 0.950 . S
C10727 C10726 1.397 . S
C10727 C10728 1.334 . S
C10728 H10699 0.950 . S
C10728 C10727 1.334 . S
C10728 C10729 1.287 . S
C10729 C10728 1.287 . S
C10729 C10730 1.524 . S
C10729 H10732 0.999 . S
C10730 H10700 0.950 . S
C10730 C10729 1.524 . S
C10730 C10731 1.415 . S
C10731 H10701 0.950 . S
C10731 C10726 1.363 . S
C10731 C10730 1.415 . S
H10732 C10729 0.999 . S
H10733 C10714 0.913 . S
H10734 C10752 0.951 . S
H10735 C10754 0.951 . S
H10736 C10756 0.950 . S
H10737 C10757 0.950 . S
H10738 C10759 0.950 . S
H10739 C10762 0.950 . S
H10740 C10763 0.950 . S
H10741 C10765 0.950 . S
H10742 C10766 0.950 . S
H10743 C10767 0.951 . S
H10744 C10769 0.951 . S
H10745 C10771 0.950 . S
H10746 C10772 0.950 . S
H10747 C10774 0.950 . S
H10748 C10777 0.950 . S
H10749 C10778 0.950 . S
H10750 C10780 0.950 . S
H10751 C10781 0.950 . S
C10752 H10734 0.951 . S
C10752 C10753 1.366 . S
C10752 C10754 1.388 . S
C10753 C10752 1.366 . S
C10753 C10757 1.385 . S
C10754 H10735 0.951 . S
C10754 C10752 1.388 . S
C10754 C10755 1.366 . S
C10755 C10754 1.366 . S
C10755 C10756 1.414 . S
C10755 C10758 1.499 . S
C10756 H10736 0.950 . S
C10756 C10755 1.414 . S
C10756 C10757 1.374 . S
C10757 H10737 0.950 . S
C10757 C10753 1.385 . S
C10757 C10756 1.374 . S
C10758 C10755 1.499 . S
C10758 C10759 1.373 . S
C10758 C10760 1.389 . S
C10759 H10738 0.950 . S
C10759 C10758 1.373 . S
C10759 C10775 1.377 . S
C10760 C10758 1.389 . S
C10760 C10761 1.524 . S
C10760 C10774 1.377 . S
C10761 C10760 1.524 . S
C10761 C10762 1.397 . S
C10761 C10766 1.363 . S
C10762 H10739 0.950 . S
C10762 C10761 1.397 . S
C10762 C10763 1.334 . S
C10763 H10740 0.950 . S
C10763 C10762 1.334 . S
C10763 C10764 1.287 . S
C10764 C10763 1.287 . S
C10764 C10765 1.524 . S
C10764 H10783 0.913 . S
C10765 H10741 0.950 . S
C10765 C10764 1.524 . S
C10765 C10766 1.415 . S
C10766 H10742 0.950 . S
C10766 C10761 1.363 . S
C10766 C10765 1.415 . S
C10767 H10743 0.951 . S
C10767 C10768 1.366 . S
C10767 C10769 1.388 . S
C10768 C10767 1.366 . S
C10768 C10772 1.385 . S
C10769 H10744 0.951 . S
C10769 C10767 1.388 . S
C10769 C10770 1.366 . S
C10770 C10769 1.366 . S
C10770 C10771 1.414 . S
C10770 C10773 1.499 . S
C10771 H10745 0.950 . S
C10771 C10770 1.414 . S
C10771 C10772 1.374 . S
C10772 H10746 0.950 . S
C10772 C10768 1.385 . S
C10772 C10771 1.374 . S
C10773 C10770 1.499 . S
C10773 C10774 1.373 . S
C10773 C10775 1.389 . S
C10774 H10747 0.950 . S
C10774 C10760 1.377 . S
C10774 C10773 1.373 . S
C10775 C10759 1.377 . S
C10775 C10773 1.389 . S
C10775 C10776 1.524 . S
C10776 C10775 1.524 . S
C10776 C10777 1.397 . S
C10776 C10781 1.363 . S
C10777 H10748 0.950 . S
C10777 C10776 1.397 . S
C10777 C10778 1.334 . S
C10778 H10749 0.950 . S
C10778 C10777 1.334 . S
C10778 C10779 1.287 . S
C10779 C10778 1.287 . S
C10779 C10780 1.524 . S
C10779 H10782 0.999 . S
C10780 H10750 0.950 . S
C10780 C10779 1.524 . S
C10780 C10781 1.415 . S
C10781 H10751 0.950 . S
C10781 C10776 1.363 . S
C10781 C10780 1.415 . S
H10782 C10779 0.999 . S
H10783 C10764 0.913 . S
H10784 C10802 0.951 . S
H10785 C10804 0.951 . S
H10786 C10806 0.950 . S
H10787 C10807 0.950 . S
H10788 C10809 0.950 . S
H10789 C10812 0.950 . S
H10790 C10813 0.950 . S
H10791 C10815 0.950 . S
H10792 C10816 0.950 . S
H10793 C10817 0.951 . S
H10794 C10819 0.951 . S
H10795 C10821 0.950 . S
H10796 C10822 0.950 . S
H10797 C10824 0.950 . S
H10798 C10827 0.950 . S
H10799 C10828 0.950 . S
H10800 C10830 0.950 . S
H10801 C10831 0.950 . S
C10802 H10784 0.951 . S
C10802 C10803 1.366 . S
C10802 C10804 1.388 . S
C10803 C10802 1.366 . S
C10803 C10807 1.385 . S
C10804 H10785 0.951 . S
C10804 C10802 1.388 . S
C10804 C10805 1.366 . S
C10805 C10804 1.366 . S
C10805 C10806 1.414 . S
C10805 C10808 1.499 . S
C10806 H10786 0.950 . S
C10806 C10805 1.414 . S
C10806 C10807 1.374 . S
C10807 H10787 0.950 . S
C10807 C10803 1.385 . S
C10807 C10806 1.374 . S
C10808 C10805 1.499 . S
C10808 C10809 1.373 . S
C10808 C10810 1.389 1_565 S
C10809 H10788 0.950 . S
C10809 C10808 1.373 . S
C10809 C10825 1.377 1_565 S
C10810 C10808 1.389 1_545 S
C10810 C10811 1.540 . S
C10810 C10824 1.377 . S
C10811 C10810 1.540 . S
C10811 C10812 1.376 1_545 S
C10811 C10816 1.379 . S
C10812 H10789 0.950 . S
C10812 C10811 1.376 1_565 S
C10812 C10813 1.334 . S
C10813 H10790 0.950 . S
C10813 C10812 1.334 . S
C10813 C10814 1.287 . S
C10814 C10813 1.287 . S
C10814 C10815 1.524 1_565 S
C10814 H10833 0.913 . S
C10815 H10791 0.950 . S
C10815 C10814 1.524 1_545 S
C10815 C10816 1.415 . S
C10816 H10792 0.950 . S
C10816 C10811 1.379 . S
C10816 C10815 1.415 . S
C10817 H10793 0.951 . S
C10817 C10818 1.366 . S
C10817 C10819 1.388 . S
C10818 C10817 1.366 . S
C10818 C10822 1.385 . S
C10819 H10794 0.951 . S
C10819 C10817 1.388 . S
C10819 C10820 1.366 . S
C10820 C10819 1.366 . S
C10820 C10821 1.414 . S
C10820 C10823 1.499 . S
C10821 H10795 0.950 . S
C10821 C10820 1.414 . S
C10821 C10822 1.374 . S
C10822 H10796 0.950 . S
C10822 C10818 1.385 . S
C10822 C10821 1.374 . S
C10823 C10820 1.499 . S
C10823 C10824 1.373 . S
C10823 C10825 1.389 . S
C10824 H10797 0.950 . S
C10824 C10810 1.377 . S
C10824 C10823 1.373 . S
C10825 C10809 1.377 1_545 S
C10825 C10823 1.389 . S
C10825 C10826 1.524 . S
C10826 C10825 1.524 . S
C10826 C10827 1.397 . S
C10826 C10831 1.363 . S
C10827 H10798 0.950 . S
C10827 C10826 1.397 . S
C10827 C10828 1.334 . S
C10828 H10799 0.950 . S
C10828 C10827 1.334 . S
C10828 C10829 1.287 . S
C10829 C10828 1.287 . S
C10829 C10830 1.524 . S
C10829 H10832 0.999 . S
C10830 H10800 0.950 . S
C10830 C10829 1.524 . S
C10830 C10831 1.415 . S
C10831 H10801 0.950 . S
C10831 C10826 1.363 . S
C10831 C10830 1.415 . S
H10832 C10829 0.999 . S
H10833 C10814 0.913 . S
H10834 C10852 0.951 . S
H10835 C10854 0.951 . S
H10836 C10856 0.950 . S
H10837 C10857 0.950 . S
H10838 C10859 0.950 . S
H10839 C10862 0.950 . S
H10840 C10863 0.950 . S
H10841 C10865 0.950 . S
H10842 C10866 0.950 . S
H10843 C10867 0.951 . S
H10844 C10869 0.951 . S
H10845 C10871 0.950 . S
H10846 C10872 0.950 . S
H10847 C10874 0.950 . S
H10848 C10877 0.950 . S
H10849 C10878 0.950 . S
H10850 C10880 0.950 . S
H10851 C10881 0.950 . S
C10852 H10834 0.951 . S
C10852 C10853 1.366 . S
C10852 C10854 1.388 . S
C10853 C10852 1.366 . S
C10853 C10857 1.385 . S
C10854 H10835 0.951 . S
C10854 C10852 1.388 . S
C10854 C10855 1.366 . S
C10855 C10854 1.366 . S
C10855 C10856 1.414 . S
C10855 C10858 1.499 . S
C10856 H10836 0.950 . S
C10856 C10855 1.414 . S
C10856 C10857 1.374 . S
C10857 H10837 0.950 . S
C10857 C10853 1.385 . S
C10857 C10856 1.374 . S
C10858 C10855 1.499 . S
C10858 C10859 1.373 . S
C10858 C10860 1.389 . S
C10859 H10838 0.950 . S
C10859 C10858 1.373 . S
C10859 C10875 1.377 . S
C10860 C10858 1.389 . S
C10860 C10861 1.524 . S
C10860 C10874 1.377 . S
C10861 C10860 1.524 . S
C10861 C10862 1.397 . S
C10861 C10866 1.363 . S
C10862 H10839 0.950 . S
C10862 C10861 1.397 . S
C10862 C10863 1.334 . S
C10863 H10840 0.950 . S
C10863 C10862 1.334 . S
C10863 C10864 1.287 . S
C10864 C10863 1.287 . S
C10864 C10865 1.524 . S
C10864 H10883 0.913 . S
C10865 H10841 0.950 . S
C10865 C10864 1.524 . S
C10865 C10866 1.415 . S
C10866 H10842 0.950 . S
C10866 C10861 1.363 . S
C10866 C10865 1.415 . S
C10867 H10843 0.951 . S
C10867 C10868 1.366 . S
C10867 C10869 1.388 . S
C10868 C10867 1.366 . S
C10868 C10872 1.385 . S
C10869 H10844 0.951 . S
C10869 C10867 1.388 . S
C10869 C10870 1.366 . S
C10870 C10869 1.366 . S
C10870 C10871 1.414 . S
C10870 C10873 1.499 . S
C10871 H10845 0.950 . S
C10871 C10870 1.414 . S
C10871 C10872 1.374 . S
C10872 H10846 0.950 . S
C10872 C10868 1.385 . S
C10872 C10871 1.374 . S
C10873 C10870 1.499 . S
C10873 C10874 1.373 . S
C10873 C10875 1.389 . S
C10874 H10847 0.950 . S
C10874 C10860 1.377 . S
C10874 C10873 1.373 . S
C10875 C10859 1.377 . S
C10875 C10873 1.389 . S
C10875 C10876 1.524 . S
C10876 C10875 1.524 . S
C10876 C10877 1.397 . S
C10876 C10881 1.363 . S
C10877 H10848 0.950 . S
C10877 C10876 1.397 . S
C10877 C10878 1.334 . S
C10878 H10849 0.950 . S
C10878 C10877 1.334 . S
C10878 C10879 1.287 . S
C10879 C10878 1.287 . S
C10879 C10880 1.524 . S
C10879 H10882 0.999 . S
C10880 H10850 0.950 . S
C10880 C10879 1.524 . S
C10880 C10881 1.415 . S
C10881 H10851 0.950 . S
C10881 C10876 1.363 . S
C10881 C10880 1.415 . S
H10882 C10879 0.999 . S
H10883 C10864 0.913 . S
H10884 C10902 0.951 . S
H10885 C10904 0.951 . S
H10886 C10906 0.950 . S
H10887 C10907 0.950 . S
H10888 C10909 0.950 . S
H10889 C10912 0.950 . S
H10890 C10913 0.950 . S
H10891 C10915 0.950 . S
H10892 C10916 0.950 . S
H10893 C10917 0.951 . S
H10894 C10919 0.951 . S
H10895 C10921 0.950 . S
H10896 C10922 0.950 . S
H10897 C10924 0.950 . S
H10898 C10927 0.950 . S
H10899 C10928 0.950 . S
H10900 C10930 0.950 . S
H10901 C10931 0.950 . S
C10902 H10884 0.951 . S
C10902 C10903 1.366 . S
C10902 C10904 1.388 . S
C10903 C10902 1.366 . S
C10903 C10907 1.385 . S
C10904 H10885 0.951 . S
C10904 C10902 1.388 . S
C10904 C10905 1.366 . S
C10905 C10904 1.366 . S
C10905 C10906 1.414 . S
C10905 C10908 1.499 . S
C10906 H10886 0.950 . S
C10906 C10905 1.414 . S
C10906 C10907 1.374 . S
C10907 H10887 0.950 . S
C10907 C10903 1.385 . S
C10907 C10906 1.374 . S
C10908 C10905 1.499 . S
C10908 C10909 1.373 . S
C10908 C10910 1.389 . S
C10909 H10888 0.950 . S
C10909 C10908 1.373 . S
C10909 C10925 1.377 . S
C10910 C10908 1.389 . S
C10910 C10911 1.524 . S
C10910 C10924 1.377 . S
C10911 C10910 1.524 . S
C10911 C10912 1.397 . S
C10911 C10916 1.363 . S
C10912 H10889 0.950 . S
C10912 C10911 1.397 . S
C10912 C10913 1.334 . S
C10913 H10890 0.950 . S
C10913 C10912 1.334 . S
C10913 C10914 1.287 . S
C10914 C10913 1.287 . S
C10914 C10915 1.524 . S
C10914 H10933 0.913 . S
C10915 H10891 0.950 . S
C10915 C10914 1.524 . S
C10915 C10916 1.415 . S
C10916 H10892 0.950 . S
C10916 C10911 1.363 . S
C10916 C10915 1.415 . S
C10917 H10893 0.951 . S
C10917 C10918 1.366 . S
C10917 C10919 1.388 . S
C10918 C10917 1.366 . S
C10918 C10922 1.385 . S
C10919 H10894 0.951 . S
C10919 C10917 1.388 . S
C10919 C10920 1.366 . S
C10920 C10919 1.366 . S
C10920 C10921 1.414 . S
C10920 C10923 1.499 . S
C10921 H10895 0.950 . S
C10921 C10920 1.414 . S
C10921 C10922 1.374 . S
C10922 H10896 0.950 . S
C10922 C10918 1.385 . S
C10922 C10921 1.374 . S
C10923 C10920 1.499 . S
C10923 C10924 1.373 . S
C10923 C10925 1.389 . S
C10924 H10897 0.950 . S
C10924 C10910 1.377 . S
C10924 C10923 1.373 . S
C10925 C10909 1.377 . S
C10925 C10923 1.389 . S
C10925 C10926 1.524 . S
C10926 C10925 1.524 . S
C10926 C10927 1.397 . S
C10926 C10931 1.363 . S
C10927 H10898 0.950 . S
C10927 C10926 1.397 . S
C10927 C10928 1.334 . S
C10928 H10899 0.950 . S
C10928 C10927 1.334 . S
C10928 C10929 1.287 . S
C10929 C10928 1.287 . S
C10929 C10930 1.524 . S
C10929 H10932 0.999 . S
C10930 H10900 0.950 . S
C10930 C10929 1.524 . S
C10930 C10931 1.415 . S
C10931 H10901 0.950 . S
C10931 C10926 1.363 . S
C10931 C10930 1.415 . S
H10932 C10929 0.999 . S
H10933 C10914 0.913 . S
H10934 C10952 0.951 . S
H10935 C10954 0.951 . S
H10936 C10956 0.950 . S
H10937 C10957 0.950 . S
H10938 C10959 0.950 . S
H10939 C10962 0.950 . S
H10940 C10963 0.950 . S
H10941 C10965 0.950 . S
H10942 C10966 0.950 . S
H10943 C10967 0.951 . S
H10944 C10969 0.951 . S
H10945 C10971 0.950 . S
H10946 C10972 0.950 . S
H10947 C10974 0.950 . S
H10948 C10977 0.950 . S
H10949 C10978 0.950 . S
H10950 C10980 0.950 . S
H10951 C10981 0.950 . S
C10952 H10934 0.951 . S
C10952 C10953 1.366 . S
C10952 C10954 1.388 . S
C10953 C10952 1.366 . S
C10953 C10957 1.385 . S
C10954 H10935 0.951 . S
C10954 C10952 1.388 . S
C10954 C10955 1.366 . S
C10955 C10954 1.366 . S
C10955 C10956 1.414 . S
C10955 C10958 1.499 . S
C10956 H10936 0.950 . S
C10956 C10955 1.414 . S
C10956 C10957 1.374 . S
C10957 H10937 0.950 . S
C10957 C10953 1.385 . S
C10957 C10956 1.374 . S
C10958 C10955 1.499 . S
C10958 C10959 1.373 . S
C10958 C10960 1.389 . S
C10959 H10938 0.950 . S
C10959 C10958 1.373 . S
C10959 C10975 1.377 . S
C10960 C10958 1.389 . S
C10960 C10961 1.524 . S
C10960 C10974 1.377 . S
C10961 C10960 1.524 . S
C10961 C10962 1.397 . S
C10961 C10966 1.363 . S
C10962 H10939 0.950 . S
C10962 C10961 1.397 . S
C10962 C10963 1.334 . S
C10963 H10940 0.950 . S
C10963 C10962 1.334 . S
C10963 C10964 1.287 . S
C10964 C10963 1.287 . S
C10964 C10965 1.524 . S
C10964 H10983 0.913 . S
C10965 H10941 0.950 . S
C10965 C10964 1.524 . S
C10965 C10966 1.415 . S
C10966 H10942 0.950 . S
C10966 C10961 1.363 . S
C10966 C10965 1.415 . S
C10967 H10943 0.951 . S
C10967 C10968 1.366 . S
C10967 C10969 1.388 . S
C10968 C10967 1.366 . S
C10968 C10972 1.385 . S
C10969 H10944 0.951 . S
C10969 C10967 1.388 . S
C10969 C10970 1.366 . S
C10970 C10969 1.366 . S
C10970 C10971 1.414 . S
C10970 C10973 1.499 . S
C10971 H10945 0.950 . S
C10971 C10970 1.414 . S
C10971 C10972 1.374 . S
C10972 H10946 0.950 . S
C10972 C10968 1.385 . S
C10972 C10971 1.374 . S
C10973 C10970 1.499 . S
C10973 C10974 1.373 . S
C10973 C10975 1.389 . S
C10974 H10947 0.950 . S
C10974 C10960 1.377 . S
C10974 C10973 1.373 . S
C10975 C10959 1.377 . S
C10975 C10973 1.389 . S
C10975 C10976 1.524 . S
C10976 C10975 1.524 . S
C10976 C10977 1.397 . S
C10976 C10981 1.363 . S
C10977 H10948 0.950 . S
C10977 C10976 1.397 . S
C10977 C10978 1.334 . S
C10978 H10949 0.950 . S
C10978 C10977 1.334 . S
C10978 C10979 1.287 . S
C10979 C10978 1.287 . S
C10979 C10980 1.524 . S
C10979 H10982 0.999 . S
C10980 H10950 0.950 . S
C10980 C10979 1.524 . S
C10980 C10981 1.415 . S
C10981 H10951 0.950 . S
C10981 C10976 1.363 . S
C10981 C10980 1.415 . S
H10982 C10979 0.999 . S
H10983 C10964 0.913 . S
H10984 C11002 0.951 . S
H10985 C11004 0.951 . S
H10986 C11006 0.950 . S
H10987 C11007 0.950 . S
H10988 C11009 0.950 . S
H10989 C11012 0.950 . S
H10990 C11013 0.950 . S
H10991 C11015 0.950 . S
H10992 C11016 0.950 . S
H10993 C11017 0.951 . S
H10994 C11019 0.951 . S
H10995 C11021 0.950 . S
H10996 C11022 0.950 . S
H10997 C11024 0.950 . S
H10998 C11027 0.950 . S
H10999 C11028 0.950 . S
H11000 C11030 0.950 . S
H11001 C11031 0.950 . S
C11002 H10984 0.951 . S
C11002 C11003 1.366 . S
C11002 C11004 1.388 . S
C11003 C11002 1.366 . S
C11003 C11007 1.385 . S
C11004 H10985 0.951 . S
C11004 C11002 1.388 . S
C11004 C11005 1.366 . S
C11005 C11004 1.366 . S
C11005 C11006 1.414 . S
C11005 C11008 1.499 . S
C11006 H10986 0.950 . S
C11006 C11005 1.414 . S
C11006 C11007 1.374 . S
C11007 H10987 0.950 . S
C11007 C11003 1.385 . S
C11007 C11006 1.374 . S
C11008 C11005 1.499 . S
C11008 C11009 1.373 . S
C11008 C11010 1.389 . S
C11009 H10988 0.950 . S
C11009 C11008 1.373 . S
C11009 C11025 1.377 . S
C11010 C11008 1.389 . S
C11010 C11011 1.524 . S
C11010 C11024 1.377 . S
C11011 C11010 1.524 . S
C11011 C11012 1.397 . S
C11011 C11016 1.363 . S
C11012 H10989 0.950 . S
C11012 C11011 1.397 . S
C11012 C11013 1.334 . S
C11013 H10990 0.950 . S
C11013 C11012 1.334 . S
C11013 C11014 1.287 . S
C11014 C11013 1.287 . S
C11014 C11015 1.524 . S
C11014 H11033 0.913 . S
C11015 H10991 0.950 . S
C11015 C11014 1.524 . S
C11015 C11016 1.415 . S
C11016 H10992 0.950 . S
C11016 C11011 1.363 . S
C11016 C11015 1.415 . S
C11017 H10993 0.951 . S
C11017 C11018 1.366 . S
C11017 C11019 1.388 . S
C11018 C11017 1.366 . S
C11018 C11022 1.385 . S
C11019 H10994 0.951 . S
C11019 C11017 1.388 . S
C11019 C11020 1.366 . S
C11020 C11019 1.366 . S
C11020 C11021 1.414 . S
C11020 C11023 1.499 . S
C11021 H10995 0.950 . S
C11021 C11020 1.414 . S
C11021 C11022 1.374 . S
C11022 H10996 0.950 . S
C11022 C11018 1.385 . S
C11022 C11021 1.374 . S
C11023 C11020 1.499 . S
C11023 C11024 1.373 . S
C11023 C11025 1.389 . S
C11024 H10997 0.950 . S
C11024 C11010 1.377 . S
C11024 C11023 1.373 . S
C11025 C11009 1.377 . S
C11025 C11023 1.389 . S
C11025 C11026 1.524 . S
C11026 C11025 1.524 . S
C11026 C11027 1.397 . S
C11026 C11031 1.363 . S
C11027 H10998 0.950 . S
C11027 C11026 1.397 . S
C11027 C11028 1.334 . S
C11028 H10999 0.950 . S
C11028 C11027 1.334 . S
C11028 C11029 1.287 . S
C11029 C11028 1.287 . S
C11029 C11030 1.524 . S
C11029 H11032 0.999 . S
C11030 H11000 0.950 . S
C11030 C11029 1.524 . S
C11030 C11031 1.415 . S
C11031 H11001 0.950 . S
C11031 C11026 1.363 . S
C11031 C11030 1.415 . S
H11032 C11029 0.999 . S
H11033 C11014 0.913 . S
H11034 C11052 0.951 . S
H11035 C11054 0.951 . S
H11036 C11056 0.950 . S
H11037 C11057 0.950 . S
H11038 C11059 0.950 . S
H11039 C11062 0.950 . S
H11040 C11063 0.950 . S
H11041 C11065 0.950 . S
H11042 C11066 0.950 . S
H11043 C11067 0.951 . S
H11044 C11069 0.951 . S
H11045 C11071 0.950 . S
H11046 C11072 0.950 . S
H11047 C11074 0.950 . S
H11048 C11077 0.950 . S
H11049 C11078 0.950 . S
H11050 C11080 0.950 . S
H11051 C11081 0.950 . S
C11052 H11034 0.951 . S
C11052 C11053 1.366 . S
C11052 C11054 1.388 . S
C11053 C11052 1.366 . S
C11053 C11057 1.385 . S
C11054 H11035 0.951 . S
C11054 C11052 1.388 . S
C11054 C11055 1.366 . S
C11055 C11054 1.366 . S
C11055 C11056 1.414 . S
C11055 C11058 1.499 . S
C11056 H11036 0.950 . S
C11056 C11055 1.414 . S
C11056 C11057 1.374 . S
C11057 H11037 0.950 . S
C11057 C11053 1.385 . S
C11057 C11056 1.374 . S
C11058 C11055 1.499 . S
C11058 C11059 1.373 . S
C11058 C11060 1.389 . S
C11059 H11038 0.950 . S
C11059 C11058 1.373 . S
C11059 C11075 1.377 . S
C11060 C11058 1.389 . S
C11060 C11061 1.524 . S
C11060 C11074 1.377 . S
C11061 C11060 1.524 . S
C11061 C11062 1.397 . S
C11061 C11066 1.363 . S
C11062 H11039 0.950 . S
C11062 C11061 1.397 . S
C11062 C11063 1.334 . S
C11063 H11040 0.950 . S
C11063 C11062 1.334 . S
C11063 C11064 1.287 . S
C11064 C11063 1.287 . S
C11064 C11065 1.524 . S
C11064 H11083 0.913 . S
C11065 H11041 0.950 . S
C11065 C11064 1.524 . S
C11065 C11066 1.415 . S
C11066 H11042 0.950 . S
C11066 C11061 1.363 . S
C11066 C11065 1.415 . S
C11067 H11043 0.951 . S
C11067 C11068 1.366 . S
C11067 C11069 1.388 . S
C11068 C11067 1.366 . S
C11068 C11072 1.385 . S
C11069 H11044 0.951 . S
C11069 C11067 1.388 . S
C11069 C11070 1.366 . S
C11070 C11069 1.366 . S
C11070 C11071 1.414 . S
C11070 C11073 1.499 . S
C11071 H11045 0.950 . S
C11071 C11070 1.414 . S
C11071 C11072 1.374 . S
C11072 H11046 0.950 . S
C11072 C11068 1.385 . S
C11072 C11071 1.374 . S
C11073 C11070 1.499 . S
C11073 C11074 1.373 . S
C11073 C11075 1.389 . S
C11074 H11047 0.950 . S
C11074 C11060 1.377 . S
C11074 C11073 1.373 . S
C11075 C11059 1.377 . S
C11075 C11073 1.389 . S
C11075 C11076 1.524 . S
C11076 C11075 1.524 . S
C11076 C11077 1.397 . S
C11076 C11081 1.363 . S
C11077 H11048 0.950 . S
C11077 C11076 1.397 . S
C11077 C11078 1.334 . S
C11078 H11049 0.950 . S
C11078 C11077 1.334 . S
C11078 C11079 1.287 . S
C11079 C11078 1.287 . S
C11079 C11080 1.524 . S
C11079 H11082 0.999 . S
C11080 H11050 0.950 . S
C11080 C11079 1.524 . S
C11080 C11081 1.415 . S
C11081 H11051 0.950 . S
C11081 C11076 1.363 . S
C11081 C11080 1.415 . S
H11082 C11079 0.999 . S
H11083 C11064 0.913 . S
H11084 C11102 0.951 . S
H11085 C11104 0.951 . S
H11086 C11106 0.950 . S
H11087 C11107 0.950 . S
H11088 C11109 0.950 . S
H11089 C11112 0.950 . S
H11090 C11113 0.950 . S
H11091 C11115 0.950 . S
H11092 C11116 0.950 . S
H11093 C11117 0.951 . S
H11094 C11119 0.951 . S
H11095 C11121 0.950 . S
H11096 C11122 0.950 . S
H11097 C11124 0.950 . S
H11098 C11127 0.950 . S
H11099 C11128 0.950 . S
H11100 C11130 0.950 . S
H11101 C11131 0.950 . S
C11102 H11084 0.951 . S
C11102 C11103 1.366 . S
C11102 C11104 1.388 . S
C11103 C11102 1.366 . S
C11103 C11107 1.385 . S
C11104 H11085 0.951 . S
C11104 C11102 1.388 . S
C11104 C11105 1.366 . S
C11105 C11104 1.366 . S
C11105 C11106 1.414 . S
C11105 C11108 1.499 . S
C11106 H11086 0.950 . S
C11106 C11105 1.414 . S
C11106 C11107 1.374 . S
C11107 H11087 0.950 . S
C11107 C11103 1.385 . S
C11107 C11106 1.374 . S
C11108 C11105 1.499 . S
C11108 C11109 1.373 . S
C11108 C11110 1.389 . S
C11109 H11088 0.950 . S
C11109 C11108 1.373 . S
C11109 C11125 1.377 . S
C11110 C11108 1.389 . S
C11110 C11111 1.524 . S
C11110 C11124 1.377 . S
C11111 C11110 1.524 . S
C11111 C11112 1.397 . S
C11111 C11116 1.363 . S
C11112 H11089 0.950 . S
C11112 C11111 1.397 . S
C11112 C11113 1.334 . S
C11113 H11090 0.950 . S
C11113 C11112 1.334 . S
C11113 C11114 1.287 . S
C11114 C11113 1.287 . S
C11114 C11115 1.524 . S
C11114 H11133 0.913 . S
C11115 H11091 0.950 . S
C11115 C11114 1.524 . S
C11115 C11116 1.415 . S
C11116 H11092 0.950 . S
C11116 C11111 1.363 . S
C11116 C11115 1.415 . S
C11117 H11093 0.951 . S
C11117 C11118 1.366 . S
C11117 C11119 1.388 . S
C11118 C11117 1.366 . S
C11118 C11122 1.385 . S
C11119 H11094 0.951 . S
C11119 C11117 1.388 . S
C11119 C11120 1.366 . S
C11120 C11119 1.366 . S
C11120 C11121 1.414 . S
C11120 C11123 1.499 . S
C11121 H11095 0.950 . S
C11121 C11120 1.414 . S
C11121 C11122 1.374 . S
C11122 H11096 0.950 . S
C11122 C11118 1.385 . S
C11122 C11121 1.374 . S
C11123 C11120 1.499 . S
C11123 C11124 1.373 . S
C11123 C11125 1.389 . S
C11124 H11097 0.950 . S
C11124 C11110 1.377 . S
C11124 C11123 1.373 . S
C11125 C11109 1.377 . S
C11125 C11123 1.389 . S
C11125 C11126 1.524 . S
C11126 C11125 1.524 . S
C11126 C11127 1.397 . S
C11126 C11131 1.363 . S
C11127 H11098 0.950 . S
C11127 C11126 1.397 . S
C11127 C11128 1.334 . S
C11128 H11099 0.950 . S
C11128 C11127 1.334 . S
C11128 C11129 1.287 . S
C11129 C11128 1.287 . S
C11129 C11130 1.524 . S
C11129 H11132 0.999 . S
C11130 H11100 0.950 . S
C11130 C11129 1.524 . S
C11130 C11131 1.415 . S
C11131 H11101 0.950 . S
C11131 C11126 1.363 . S
C11131 C11130 1.415 . S
H11132 C11129 0.999 . S
H11133 C11114 0.913 . S
H11134 C11152 0.951 . S
H11135 C11154 0.951 . S
H11136 C11156 0.950 . S
H11137 C11157 0.950 . S
H11138 C11159 0.950 . S
H11139 C11162 0.950 . S
H11140 C11163 0.950 . S
H11141 C11165 0.950 . S
H11142 C11166 0.950 . S
H11143 C11167 0.951 . S
H11144 C11169 0.951 . S
H11145 C11171 0.950 . S
H11146 C11172 0.950 . S
H11147 C11174 0.950 . S
H11148 C11177 0.950 . S
H11149 C11178 0.950 . S
H11150 C11180 0.950 . S
H11151 C11181 0.950 . S
C11152 H11134 0.951 . S
C11152 C11153 1.366 . S
C11152 C11154 1.388 . S
C11153 C11152 1.366 . S
C11153 C11157 1.385 . S
C11154 H11135 0.951 . S
C11154 C11152 1.388 . S
C11154 C11155 1.366 . S
C11155 C11154 1.366 . S
C11155 C11156 1.414 . S
C11155 C11158 1.499 . S
C11156 H11136 0.950 . S
C11156 C11155 1.414 . S
C11156 C11157 1.374 . S
C11157 H11137 0.950 . S
C11157 C11153 1.385 . S
C11157 C11156 1.374 . S
C11158 C11155 1.499 . S
C11158 C11159 1.373 . S
C11158 C11160 1.389 . S
C11159 H11138 0.950 . S
C11159 C11158 1.373 . S
C11159 C11175 1.377 . S
C11160 C11158 1.389 . S
C11160 C11161 1.524 . S
C11160 C11174 1.377 . S
C11161 C11160 1.524 . S
C11161 C11162 1.397 . S
C11161 C11166 1.363 . S
C11162 H11139 0.950 . S
C11162 C11161 1.397 . S
C11162 C11163 1.334 . S
C11163 H11140 0.950 . S
C11163 C11162 1.334 . S
C11163 C11164 1.287 . S
C11164 C11163 1.287 . S
C11164 C11165 1.524 . S
C11164 H11183 0.913 . S
C11165 H11141 0.950 . S
C11165 C11164 1.524 . S
C11165 C11166 1.415 . S
C11166 H11142 0.950 . S
C11166 C11161 1.363 . S
C11166 C11165 1.415 . S
C11167 H11143 0.951 . S
C11167 C11168 1.366 . S
C11167 C11169 1.388 . S
C11168 C11167 1.366 . S
C11168 C11172 1.385 . S
C11169 H11144 0.951 . S
C11169 C11167 1.388 . S
C11169 C11170 1.366 . S
C11170 C11169 1.366 . S
C11170 C11171 1.414 . S
C11170 C11173 1.499 . S
C11171 H11145 0.950 . S
C11171 C11170 1.414 . S
C11171 C11172 1.374 . S
C11172 H11146 0.950 . S
C11172 C11168 1.385 . S
C11172 C11171 1.374 . S
C11173 C11170 1.499 . S
C11173 C11174 1.373 . S
C11173 C11175 1.389 . S
C11174 H11147 0.950 . S
C11174 C11160 1.377 . S
C11174 C11173 1.373 . S
C11175 C11159 1.377 . S
C11175 C11173 1.389 . S
C11175 C11176 1.524 . S
C11176 C11175 1.524 . S
C11176 C11177 1.397 . S
C11176 C11181 1.363 . S
C11177 H11148 0.950 . S
C11177 C11176 1.397 . S
C11177 C11178 1.334 . S
C11178 H11149 0.950 . S
C11178 C11177 1.334 . S
C11178 C11179 1.287 . S
C11179 C11178 1.287 . S
C11179 C11180 1.524 . S
C11179 H11182 0.999 . S
C11180 H11150 0.950 . S
C11180 C11179 1.524 . S
C11180 C11181 1.415 . S
C11181 H11151 0.950 . S
C11181 C11176 1.363 . S
C11181 C11180 1.415 . S
H11182 C11179 0.999 . S
H11183 C11164 0.913 . S
C1603 C521 1.688 . S
C1618 C25 1.720 . S
C1653 C617 1.880 . S
C1668 C58 1.953 . S
C1703 C90 1.981 . S
C1718 C455 2.192 . S
C1753 C490 1.546 . S
C1768 C123 1.616 . S
C1803 C815 2.112 . S
C1818 C156 2.127 . S
C1853 C1143 1.546 . S
C1868 C189 1.460 . S
C1903 C223 1.845 . S
C1918 C1475 1.821 . S
C1953 C1181 1.859 . S
C1968 C256 1.845 . S
C2003 C286 2.818 . S
C2018 C92 2.864 . S
C2053 C322 1.762 . S
C2068 C125 1.820 . S
C2103 C355 1.984 . S
C2118 C23 1.931 . S
C2153 C390 2.735 . S
C2168 C56 2.661 . S
C2203 C221 2.863 . S
C2218 C291 2.899 . S
C2253 C254 1.894 . S
C2268 C321 1.849 . S
C2303 C354 2.031 . S
C2318 C158 2.332 . S
C2353 C191 2.949 . S
C2368 C385 2.890 . S
C2403 C421 1.586 . S
C2418 C978 1.586 . S
C2453 C292 1.605 . S
C2468 C453 1.626 . S
C2503 C320 3.032 . S
C2518 C484 3.143 . S
C2553 C353 2.185 . S
C2568 C519 2.055 . S
C2603 C1374 1.448 . S
C2618 C553 1.421 . S
C2653 C586 2.065 . S
C2668 C1082 2.093 . S
C2703 C886 2.118 . S
C2718 C489 2.197 . S
C2753 C950 2.346 . S
C2768 C618 2.083 . S
C2803 C880 2.890 . S
C2818 C257 2.950 . S
C2853 C984 2.899 . S
C2868 C650 2.863 . S
C2903 C849 1.848 . S
C2918 C683 1.895 . S
C2953 C716 1.931 . S
C2968 C1081 1.984 . S
C3003 C1512 2.734 . S
C3018 C749 2.662 . S
C3053 C1309 2.818 . S
C3068 C26 2.864 . S
C3103 C785 1.859 . S
C3118 C685 1.845 . S
C3153 C483 1.546 . S
C3168 C255 1.461 . S
C3203 C419 1.821 . S
C3218 C652 1.845 . S
C3253 C751 1.953 . S
C3268 C782 1.880 . S
C3303 C818 2.193 . S
C3318 C24 1.980 . S
C3353 C422 1.690 . S
C3368 C718 1.719 . S
C3403 C619 1.421 . S
C3418 C384 1.448 . S
C3453 C783 2.084 . S
C3468 C851 2.346 . S
C3503 C356 2.093 . S
C3518 C817 2.065 . S
C3553 C912 1.586 . S
C3568 C1411 1.586 . S
C3603 C947 3.032 . S
C3618 C1144 3.143 . S
C3653 C585 1.625 . S
C3668 C985 1.606 . S
C3703 C124 1.954 . S
C3718 C1178 1.879 . S
C3753 C1115 2.193 . S
C3768 C1014 1.980 . S
C3803 C57 1.615 . S
C3818 C1150 1.547 . S
C3853 C651 2.127 . S
C3868 C584 2.113 . S
C3903 C1409 1.820 . S
C3918 C1048 1.846 . S
C3953 C620 1.859 . S
C3968 C190 1.845 . S
C4003 C913 2.819 . S
C4018 C1016 2.864 . S
C4053 C949 1.762 . S
C4068 C59 1.820 . S
C4103 C885 2.734 . S
C4118 C122 2.662 . S
C4153 C1046 2.863 . S
C4168 C918 2.899 . S
C4203 C188 1.895 . S
C4218 C948 1.848 . S
C4253 C653 2.332 . S
C4268 C1080 2.031 . S
C4303 C1308 1.586 . S
C4318 C520 1.586 . S
C4353 C919 1.606 . S
C4368 C1113 1.625 . S
C4403 C1079 2.185 . S
C4418 C420 2.054 . S
C4453 C1506 1.448 . S
C4468 C784 1.421 . S
C4503 C1149 2.196 . S
C4518 C391 2.119 . S
C4553 C1179 2.083 . S
C4568 C323 2.346 . S
C4603 C1314 2.899 . S
C4618 C155 2.863 . S
C4653 C1278 1.849 . S
C4668 C1211 1.894 . S
C4703 C1380 2.734 . S
C4718 C1244 2.662 . S
C4753 C979 2.819 . S
C4768 C719 2.864 . S
C4803 C1213 1.845 . S
C4818 C554 1.859 . S
C4853 C157 1.845 . S
C4868 C518 1.821 . S
C4903 C551 1.879 . S
C4918 C1246 1.954 . S
C4953 C717 1.980 . S
C4968 C587 2.193 . S
C5003 C879 1.447 . S
C5018 C1180 1.422 . S
C5053 C552 2.083 . S
C5068 C1280 2.346 . S
C5103 C1477 1.586 . S
C5118 C285 1.585 . S
C5153 C816 1.627 . S
C5168 C1315 1.604 . S
C5203 C1478 1.688 . S
C5218 C91 1.720 . S
C5253 C1447 1.547 . S
C5268 C750 1.615 . S
C5303 C222 2.128 . S
C5318 C452 2.112 . S
C5353 C1572 1.547 . S
C5368 C1212 1.460 . S
C5403 C752 1.821 . S
C5418 C850 1.761 . S
C5453 C89 1.931 . S
C5468 C1345 1.984 . S
C5503 C224 2.332 . S
C5518 C1344 2.030 . S
C5553 C1214 2.949 . S
C5568 C1375 2.890 . S
C5603 C848 3.032 . S
C5618 C1441 3.143 . S
C5653 C1476 2.054 . S
C5668 C1343 2.186 . S
C5703 C1544 2.094 . S
C5718 C1114 2.065 . S
C5753 C1513 2.118 . S
C5768 C1446 2.196 . S
C5803 C686 2.949 . S
C5818 C1507 2.890 . S
C5853 C1013 1.931 . S
C5868 C1543 1.984 . S
C5903 C684 1.461 . S
C5918 C1440 1.546 . S
C5953 C1015 1.720 . S
C5968 C1412 1.689 . S
C6003 C454 2.065 . S
C6018 C1346 2.093 . S
C6053 C1573 3.143 . S
C6068 C1277 3.032 . S
C6103 C1579 1.547 . S
C6118 C1245 1.615 . S
C6153 C1047 2.128 . S
C6168 C1112 2.113 . S
C6203 C1247 1.821 . S
C6218 C1279 1.762 . S
C6253 C1049 2.332 . S
C6268 C1542 2.030 . S
C6303 C1410 2.054 . S
C6318 C1541 2.185 . S
C6353 C1381 2.118 . S
C6368 C1578 2.197 . S
C6403 C1183 0.315 . S
C6418 C28 0.325 . S
C6453 C813 0.295 . S
C6468 C61 0.427 . S
C6503 C1145 0.624 . S
C6518 C87 0.571 . S
C6553 C1473 0.390 . S
C6568 C120 0.222 . S
C6603 C153 0.218 . S
C6618 C615 0.284 . S
C6653 C186 0.261 . S
C6668 C457 0.381 . S
C6703 C226 1.065 . S
C6718 C488 1.054 . S
C6753 C259 0.317 . S
C6768 C523 0.290 . S
C6803 C287 1.262 . S
C6818 C1508 1.263 . S
C6853 C983 0.996 . S
C6868 C325 1.024 . S
C6903 C1275 0.379 . S
C6918 C358 0.419 . S
C6953 C1539 0.921 . S
C6968 C389 0.894 . S
C7003 C290 0.995 . S
C7018 C1282 1.023 . S
C7053 C318 0.379 . S
C7068 C1546 0.420 . S
C7103 C351 0.921 . S
C7118 C1511 0.892 . S
C7153 C980 1.260 . S
C7168 C386 1.262 . S
C7203 C193 0.316 . S
C7218 C424 0.289 . S
C7253 C450 0.294 . S
C7268 C1249 0.428 . S
C7303 C485 0.623 . S
C7318 C1011 0.571 . S
C7353 C516 0.391 . S
C7368 C747 0.221 . S
C7403 C556 0.318 . S
C7418 C1018 0.328 . S
C7453 C589 0.383 . S
C7468 C681 0.260 . S
C7503 C1311 1.371 . S
C7518 C258 1.331 . S
C7553 C324 2.536 . S
C7568 C649 2.502 . S
C7603 C1083 2.305 . S
C7618 C682 2.344 . S
C7653 C1510 2.091 . S
C7668 C159 2.055 . S
C7703 C982 1.771 . S
C7718 C126 1.716 . S
C7753 C847 2.453 . S
C7768 C715 2.479 . S
C7803 C748 1.723 . S
C7818 C352 1.772 . S
C7853 C27 1.624 . S
C7868 C882 1.687 . S
C7903 C1479 1.388 . S
C7918 C786 1.396 . S
C7953 C814 1.602 . S
C7968 C616 1.586 . S
C8003 C486 1.422 . S
C8018 C1116 1.383 . S
C8053 C1576 1.279 . S
C8068 C418 1.226 . S
C8103 C781 1.586 . S
C8118 C1111 1.603 . S
C8153 C819 1.382 . S
C8168 C1575 1.421 . S
C8203 C487 1.279 . S
C8218 C1474 1.226 . S
C8253 C423 1.388 . S
C8268 C621 1.395 . S
C8303 C720 1.624 . S
C8318 C387 1.687 . S
C8353 C852 2.537 . S
C8368 C1045 2.501 . S
C8403 C1210 2.345 . S
C8418 C357 2.304 . S
C8453 C225 2.054 . S
C8468 C883 2.091 . S
C8503 C1215 1.332 . S
C8518 C915 1.371 . S
C8553 C88 2.479 . S
C8568 C946 2.453 . S
C8603 C622 0.319 . S
C8618 C721 0.329 . S
C8653 C582 0.294 . S
C8668 C127 0.425 . S
C8703 C1407 0.388 . S
C8718 C54 0.222 . S
C8753 C648 0.219 . S
C8768 C1176 0.284 . S
C8803 C1117 0.380 . S
C8818 C252 0.260 . S
C8853 C1148 1.054 . S
C8868 C1051 1.064 . S
C8903 C914 1.260 . S
C8918 C1376 1.262 . S
C8953 C952 1.022 . S
C8968 C1313 0.994 . S
C9003 C1084 0.417 . S
C9018 C846 0.377 . S
C9053 C884 0.893 . S
C9068 C1341 0.921 . S
C9103 C917 0.996 . S
C9118 C853 1.024 . S
C9153 C945 0.380 . S
C9168 C1348 0.417 . S
C9203 C1379 0.894 . S
C9218 C1077 0.921 . S
C9253 C1310 1.261 . S
C9268 C881 1.262 . S
C9303 C754 0.427 . S
C9318 C1110 0.295 . S
C9353 C1242 0.219 . S
C9368 C417 0.391 . S
C9403 C787 0.317 . S
C9418 C94 0.327 . S
C9453 C820 0.382 . S
C9468 C1209 0.258 . S
C9503 C981 1.371 . S
C9518 C192 1.331 . S
C9553 C154 2.502 . S
C9568 C951 2.537 . S
C9603 C654 2.054 . S
C9618 C1378 2.091 . S
C9653 C60 1.715 . S
C9668 C1312 1.770 . S
C9703 C22 2.479 . S
C9718 C1276 2.453 . S
C9753 C1243 1.722 . S
C9768 C1078 1.771 . S
C9803 C555 1.395 . S
C9818 C1413 1.388 . S
C9853 C583 1.603 . S
C9868 C1177 1.585 . S
C9903 C456 1.382 . S
C9918 C1146 1.421 . S
C9953 C517 1.227 . S
C9968 C1444 1.279 . S
C10003 C451 1.603 . S
C10018 C550 1.586 . S
C10053 C588 1.382 . S
C10068 C1443 1.421 . S
C10103 C1147 1.279 . S
C10118 C1408 1.227 . S
C10153 C1182 1.396 . S
C10168 C522 1.388 . S
C10203 C220 2.502 . S
C10218 C1281 2.537 . S
C10253 C1050 2.055 . S
C10268 C388 2.091 . S
C10303 C687 1.331 . S
C10318 C288 1.371 . S
C10353 C1012 2.478 . S
C10368 C319 2.454 . S
C10403 C1574 0.623 . S
C10418 C21 0.571 . S
C10453 C549 0.284 . S
C10468 C219 0.218 . S
C10503 C160 1.065 . S
C10518 C1445 1.056 . S
C10553 C1480 0.290 . S
C10568 C688 0.318 . S
C10603 C1216 0.318 . S
C10618 C1414 0.290 . S
C10653 C714 0.572 . S
C10668 C1442 0.625 . S
C10703 C253 2.344 . S
C10718 C1545 2.304 . S
C10753 C916 1.771 . S
C10768 C753 1.716 . S
C10803 C121 1.722 . S
C10818 C1342 1.771 . S
C10853 C93 1.624 . S
C10868 C1509 1.687 . S
C10903 C1017 1.624 . S
C10918 C1377 1.686 . S
C10953 C187 2.344 . S
C10968 C1347 2.304 . S
C11003 C780 0.288 . S
C11018 C1044 0.216 . S
C11053 C1577 1.055 . S
C11068 C655 1.064 . S
C11103 C1248 1.716 . S
C11118 C289 1.771 . S
C11153 C1540 1.772 . S
C11168 C55 1.722 . S
