# Generated by pormake.
# Topology whv, (6)-cn, num edge types: 1
# Building blocks:
#     Node 0, Type 0, BuildingBlock: IZENUY_clean_sbu_0, # of connection points: 6
#     Node 1, Type 0, BuildingBlock: IZENUY_clean_sbu_0, # of connection points: 6
#     Node 2, Type 0, BuildingBlock: IZENUY_clean_sbu_0, # of connection points: 6
#     Node 3, Type 0, BuildingBlock: IZENUY_clean_sbu_0, # of connection points: 6
#     Node 4, Type 0, BuildingBlock: IZENUY_clean_sbu_0, # of connection points: 6
#     Node 5, Type 0, BuildingBlock: IZENUY_clean_sbu_0, # of connection points: 6
#     Node 6, Type 0, BuildingBlock: IZENUY_clean_sbu_0, # of connection points: 6
#     Node 7, Type 0, BuildingBlock: IZENUY_clean_sbu_0, # of connection points: 6
#     Node 8, Type 0, BuildingBlock: IZENUY_clean_sbu_0, # of connection points: 6
#     Node 9, Type 0, BuildingBlock: IZENUY_clean_sbu_0, # of connection points: 6
#     Node 10, Type 0, BuildingBlock: IZENUY_clean_sbu_0, # of connection points: 6
#     Node 11, Type 0, BuildingBlock: IZENUY_clean_sbu_0, # of connection points: 6
#     Node 12, Type 0, BuildingBlock: IZENUY_clean_sbu_0, # of connection points: 6
#     Node 13, Type 0, BuildingBlock: IZENUY_clean_sbu_0, # of connection points: 6
#     Node 14, Type 0, BuildingBlock: IZENUY_clean_sbu_0, # of connection points: 6
#     Node 15, Type 0, BuildingBlock: IZENUY_clean_sbu_0, # of connection points: 6
#     Edge 16, Type (0, 0), BuildingBlock: OJICUG_clean_linker_0, # of connection points: 2
#     Edge 17, Type (0, 0), BuildingBlock: OJICUG_clean_linker_0, # of connection points: 2
#     Edge 18, Type (0, 0), BuildingBlock: OJICUG_clean_linker_0, # of connection points: 2
#     Edge 19, Type (0, 0), BuildingBlock: OJICUG_clean_linker_0, # of connection points: 2
#     Edge 20, Type (0, 0), BuildingBlock: OJICUG_clean_linker_0, # of connection points: 2
#     Edge 21, Type (0, 0), BuildingBlock: OJICUG_clean_linker_0, # of connection points: 2
#     Edge 22, Type (0, 0), BuildingBlock: OJICUG_clean_linker_0, # of connection points: 2
#     Edge 23, Type (0, 0), BuildingBlock: OJICUG_clean_linker_0, # of connection points: 2
#     Edge 24, Type (0, 0), BuildingBlock: OJICUG_clean_linker_0, # of connection points: 2
#     Edge 25, Type (0, 0), BuildingBlock: OJICUG_clean_linker_0, # of connection points: 2
#     Edge 26, Type (0, 0), BuildingBlock: OJICUG_clean_linker_0, # of connection points: 2
#     Edge 27, Type (0, 0), BuildingBlock: OJICUG_clean_linker_0, # of connection points: 2
#     Edge 28, Type (0, 0), BuildingBlock: OJICUG_clean_linker_0, # of connection points: 2
#     Edge 29, Type (0, 0), BuildingBlock: OJICUG_clean_linker_0, # of connection points: 2
#     Edge 30, Type (0, 0), BuildingBlock: OJICUG_clean_linker_0, # of connection points: 2
#     Edge 31, Type (0, 0), BuildingBlock: OJICUG_clean_linker_0, # of connection points: 2
#     Edge 32, Type (0, 0), BuildingBlock: OJICUG_clean_linker_0, # of connection points: 2
#     Edge 33, Type (0, 0), BuildingBlock: OJICUG_clean_linker_0, # of connection points: 2
#     Edge 34, Type (0, 0), BuildingBlock: OJICUG_clean_linker_0, # of connection points: 2
#     Edge 35, Type (0, 0), BuildingBlock: OJICUG_clean_linker_0, # of connection points: 2
#     Edge 36, Type (0, 0), BuildingBlock: OJICUG_clean_linker_0, # of connection points: 2
#     Edge 37, Type (0, 0), BuildingBlock: OJICUG_clean_linker_0, # of connection points: 2
#     Edge 38, Type (0, 0), BuildingBlock: OJICUG_clean_linker_0, # of connection points: 2
#     Edge 39, Type (0, 0), BuildingBlock: OJICUG_clean_linker_0, # of connection points: 2
#     Edge 40, Type (0, 0), BuildingBlock: OJICUG_clean_linker_0, # of connection points: 2
#     Edge 41, Type (0, 0), BuildingBlock: OJICUG_clean_linker_0, # of connection points: 2
#     Edge 42, Type (0, 0), BuildingBlock: OJICUG_clean_linker_0, # of connection points: 2
#     Edge 43, Type (0, 0), BuildingBlock: OJICUG_clean_linker_0, # of connection points: 2
#     Edge 44, Type (0, 0), BuildingBlock: OJICUG_clean_linker_0, # of connection points: 2
#     Edge 45, Type (0, 0), BuildingBlock: OJICUG_clean_linker_0, # of connection points: 2
#     Edge 46, Type (0, 0), BuildingBlock: OJICUG_clean_linker_0, # of connection points: 2
#     Edge 47, Type (0, 0), BuildingBlock: OJICUG_clean_linker_0, # of connection points: 2
#     Edge 48, Type (0, 0), BuildingBlock: OJICUG_clean_linker_0, # of connection points: 2
#     Edge 49, Type (0, 0), BuildingBlock: OJICUG_clean_linker_0, # of connection points: 2
#     Edge 50, Type (0, 0), BuildingBlock: OJICUG_clean_linker_0, # of connection points: 2
#     Edge 51, Type (0, 0), BuildingBlock: OJICUG_clean_linker_0, # of connection points: 2
#     Edge 52, Type (0, 0), BuildingBlock: OJICUG_clean_linker_0, # of connection points: 2
#     Edge 53, Type (0, 0), BuildingBlock: OJICUG_clean_linker_0, # of connection points: 2
#     Edge 54, Type (0, 0), BuildingBlock: OJICUG_clean_linker_0, # of connection points: 2
#     Edge 55, Type (0, 0), BuildingBlock: OJICUG_clean_linker_0, # of connection points: 2
#     Edge 56, Type (0, 0), BuildingBlock: OJICUG_clean_linker_0, # of connection points: 2
#     Edge 57, Type (0, 0), BuildingBlock: OJICUG_clean_linker_0, # of connection points: 2
#     Edge 58, Type (0, 0), BuildingBlock: OJICUG_clean_linker_0, # of connection points: 2
#     Edge 59, Type (0, 0), BuildingBlock: OJICUG_clean_linker_0, # of connection points: 2
#     Edge 60, Type (0, 0), BuildingBlock: OJICUG_clean_linker_0, # of connection points: 2
#     Edge 61, Type (0, 0), BuildingBlock: OJICUG_clean_linker_0, # of connection points: 2
#     Edge 62, Type (0, 0), BuildingBlock: OJICUG_clean_linker_0, # of connection points: 2
#     Edge 63, Type (0, 0), BuildingBlock: OJICUG_clean_linker_0, # of connection points: 2
# Relax obj value: 0.237
# Max RMSD: 0.246
# Mean RMSD: 0.246
data_MOF--net-whv--node1-IZENUY_clean_sbu_0--edge1-OJICUG_clean_linker_0
_symmetry_space_group_name_H-M    P1
_symmetry_Int_Tables_number       1
_symmetry_cell_setting            triclinic
loop_
_symmetry_equiv_pos_as_xyz
'x, y, z'
_cell_length_a     37.638187
_cell_length_b     37.647406
_cell_length_c     18.939336
_cell_angle_alpha  90.029482
_cell_angle_beta   90.029657
_cell_angle_gamma 90.006097
loop_
_atom_site_label
_atom_site_type_symbol
_atom_site_fract_x
_atom_site_fract_y
_atom_site_fract_z
_atom_type_partial_charge
Fe0 Fe 0.29755 0.23907 0.04123 0.0
Fe1 Fe 0.32589 0.16746 0.99553 0.0
O2 O 0.32912 0.20504 0.05025 0.0
Fe3 Fe 0.36441 0.20985 0.11068 0.0
O4 O 0.38014 0.24885 0.06548 0.0
O5 O 0.32877 0.27534 0.06435 0.0
O6 O 0.31222 0.24669 0.95342 0.0
C7 C 0.30649 0.22513 0.9051 0.0
C8 C 0.3023 0.23791 0.18293 0.0
O9 O 0.30466 0.19202 0.9195 0.0
C10 C 0.3526 0.14009 0.12793 0.0
O11 O 0.2605 0.20849 1.01363 0.0
O12 O 0.28369 0.15619 0.03345 0.0
O13 O 0.33633 0.23557 0.17652 0.0
O14 O 0.28265 0.23325 0.13009 0.0
C15 C 0.39661 0.17705 0.98862 0.0
O16 O 0.34671 0.13702 0.06171 0.0
O17 O 0.35175 0.17015 0.15717 0.0
C18 C 0.25688 0.17491 0.02059 0.0
O19 O 0.36783 0.17681 0.95513 0.0
O20 O 0.39726 0.1848 0.05449 0.0
C21 C 0.36175 0.27544 0.04986 0.0
Fe22 Fe 0.54226 0.54733 0.29138 0.0
Fe23 Fe 0.61388 0.57564 0.24564 0.0
O24 O 0.57631 0.57889 0.30035 0.0
Fe25 Fe 0.57153 0.6142 0.36071 0.0
O26 O 0.53251 0.6299 0.31545 0.0
O27 O 0.506 0.57855 0.31447 0.0
O28 O 0.5346 0.56195 0.20355 0.0
C29 C 0.55614 0.55623 0.15524 0.0
C30 C 0.54346 0.55214 0.43306 0.0
O31 O 0.58926 0.55441 0.16964 0.0
C32 C 0.6413 0.60238 0.37801 0.0
O33 O 0.57282 0.51028 0.2638 0.0
O34 O 0.62514 0.53345 0.28362 0.0
O35 O 0.54582 0.58616 0.42658 0.0
O36 O 0.54813 0.53247 0.38028 0.0
C37 C 0.60431 0.64634 0.23861 0.0
O38 O 0.64435 0.59646 0.31181 0.0
O39 O 0.61125 0.60156 0.40724 0.0
C40 C 0.6064 0.50665 0.27075 0.0
O41 O 0.60453 0.61755 0.20518 0.0
O42 O 0.59658 0.64702 0.30447 0.0
C43 C 0.5059 0.61152 0.29991 0.0
Fe44 Fe 0.234 0.79224 0.54135 0.0
Fe45 Fe 0.20562 0.8638 0.49554 0.0
O46 O 0.2024 0.82624 0.55024 0.0
Fe47 Fe 0.1671 0.82144 0.61054 0.0
O48 O 0.15141 0.78243 0.56524 0.0
O49 O 0.20279 0.75596 0.56439 0.0
O50 O 0.21939 0.78454 0.4535 0.0
C51 C 0.22505 0.80608 0.40518 0.0
C52 C 0.22918 0.79342 0.683 0.0
O53 O 0.22686 0.8392 0.41955 0.0
C54 C 0.17889 0.8912 0.6279 0.0
O55 O 0.27104 0.82281 0.51381 0.0
O56 O 0.24782 0.8751 0.53356 0.0
O57 O 0.19515 0.79573 0.67643 0.0
O58 O 0.24886 0.79813 0.63028 0.0
C59 C 0.13492 0.8542 0.48844 0.0
O60 O 0.18479 0.89426 0.5617 0.0
O61 O 0.17975 0.86115 0.65711 0.0
C62 C 0.27464 0.8564 0.52069 0.0
O63 O 0.1637 0.85443 0.45503 0.0
O64 O 0.13425 0.84648 0.55429 0.0
C65 C 0.16981 0.75583 0.54976 0.0
Fe66 Fe 0.98914 0.4838 0.79121 0.0
Fe67 Fe 0.91745 0.4556 0.74546 0.0
O68 O 0.95505 0.45228 0.80013 0.0
Fe69 Fe 0.95981 0.41698 0.86042 0.0
O70 O 0.99879 0.40122 0.81515 0.0
O71 O 0.02537 0.45253 0.81426 0.0
O72 O 0.99673 0.46915 0.70336 0.0
C73 C 0.97518 0.47491 0.65506 0.0
C74 C 0.98797 0.479 0.93288 0.0
O75 O 0.94206 0.47679 0.66947 0.0
C76 C 0.89007 0.42887 0.87779 0.0
O77 O 0.95863 0.52089 0.76369 0.0
O78 O 0.90628 0.49781 0.78351 0.0
O79 O 0.98559 0.44499 0.92634 0.0
O80 O 0.98333 0.49868 0.88012 0.0
C81 C 0.92691 0.38489 0.7383 0.0
O82 O 0.88698 0.43481 0.8116 0.0
O83 O 0.92014 0.42968 0.90698 0.0
C84 C 0.92505 0.52458 0.77068 0.0
O85 O 0.9267 0.41367 0.70491 0.0
O86 O 0.9347 0.38419 0.80414 0.0
C87 C 0.02542 0.41956 0.79966 0.0
Fe88 Fe 0.70555 0.86364 0.12107 0.0
Fe89 Fe 0.66697 0.82127 1.00598 0.0
O90 O 0.70228 0.82606 0.06635 0.0
Fe91 Fe 0.73384 0.79203 0.07531 0.0
O92 O 0.71921 0.7844 0.16314 0.0
O93 O 0.72679 0.83906 0.19706 0.0
O94 O 0.66363 0.85431 0.16153 0.0
C95 C 0.63483 0.85409 0.12809 0.0
C96 C 0.77455 0.85616 0.09591 0.0
O97 O 0.63415 0.84633 0.06224 0.0
C98 C 0.72904 0.7932 0.93363 0.0
O99 O 0.68471 0.89409 0.05493 0.0
O100 O 0.67962 0.86097 0.95947 0.0
O101 O 0.77091 0.82259 0.10288 0.0
O102 O 0.74774 0.87489 0.08307 0.0
C103 C 0.66963 0.75567 0.06676 0.0
O104 O 0.69501 0.79554 0.94009 0.0
O105 O 0.74871 0.79786 0.98643 0.0
C106 C 0.67879 0.89102 0.98872 0.0
O107 O 0.65125 0.78227 0.05121 0.0
O108 O 0.7026 0.75577 0.0522 0.0
C109 C 0.72497 0.80595 0.21145 0.0
Fe110 Fe 0.45986 0.41691 0.75586 0.0
Fe111 Fe 0.4891 0.48376 0.8253 0.0
O112 O 0.45507 0.45218 0.81628 0.0
Fe113 Fe 0.4175 0.45539 0.871 0.0
O114 O 0.42687 0.41347 0.91139 0.0
O115 O 0.43482 0.38406 0.81203 0.0
O116 O 0.49889 0.40119 0.80109 0.0
C117 C 0.52549 0.41958 0.81669 0.0
C118 C 0.39009 0.4287 0.73858 0.0
O119 O 0.52538 0.45255 0.80218 0.0
C120 C 0.42494 0.5244 0.84598 0.0
O121 O 0.48557 0.44497 0.69004 0.0
O122 O 0.48324 0.49865 0.73641 0.0
O123 O 0.38704 0.43458 0.8048 0.0
O124 O 0.42014 0.42956 0.70935 0.0
C125 C 0.47522 0.4748 0.96143 0.0
O126 O 0.45853 0.52079 0.8529 0.0
O127 O 0.40621 0.4976 0.83309 0.0
C128 C 0.48792 0.47899 0.6836 0.0
O129 O 0.49677 0.46911 0.91311 0.0
O130 O 0.4421 0.47661 0.94703 0.0
C131 C 0.42712 0.3847 0.8779 0.0
Fe132 Fe 0.79736 0.23888 0.57524 0.0
Fe133 Fe 0.82571 0.1673 0.62108 0.0
O134 O 0.82896 0.20486 0.56638 0.0
Fe135 Fe 0.86427 0.20965 0.5061 0.0
O136 O 0.87996 0.24867 0.55141 0.0
O137 O 0.82859 0.27514 0.55219 0.0
O138 O 0.81197 0.24658 0.66309 0.0
C139 C 0.80629 0.22504 0.71142 0.0
C140 C 0.80221 0.23768 0.43359 0.0
O141 O 0.80448 0.19192 0.69705 0.0
C142 C 0.85246 0.1399 0.48874 0.0
O143 O 0.76031 0.20831 0.60277 0.0
O144 O 0.78351 0.15602 0.58303 0.0
O145 O 0.83623 0.23536 0.44018 0.0
O146 O 0.78252 0.23297 0.4863 0.0
C147 C 0.89643 0.17688 0.62823 0.0
O148 O 0.84655 0.13684 0.55494 0.0
O149 O 0.85163 0.16994 0.45953 0.0
C150 C 0.7567 0.17473 0.59589 0.0
O151 O 0.86764 0.17666 0.66162 0.0
O152 O 0.8971 0.18461 0.56238 0.0
C153 C 0.86156 0.27527 0.56685 0.0
Fe154 Fe 0.04225 0.54731 0.32549 0.0
Fe155 Fe 0.11393 0.57556 0.37118 0.0
O156 O 0.07632 0.57884 0.31651 0.0
Fe157 Fe 0.07155 0.61412 0.25616 0.0
O158 O 0.03257 0.62989 0.3014 0.0
O159 O 1.006 0.57857 0.30245 0.0
O160 O 0.03466 0.562 0.41332 0.0
C161 C 0.05622 0.55625 0.46162 0.0
C162 C 0.04339 0.55207 0.1838 0.0
O163 O 0.08933 0.55437 0.4472 0.0
C164 C 0.1413 0.60224 0.23881 0.0
O165 O 0.07278 0.51023 0.35302 0.0
O166 O 0.12512 0.53334 0.33317 0.0
O167 O 0.04578 0.58609 0.1903 0.0
O168 O 0.04803 0.53241 0.23659 0.0
C169 C 0.10444 0.64627 0.37825 0.0
O170 O 0.14439 0.59633 0.30501 0.0
O171 O 0.11122 0.6014 0.20962 0.0
C172 C 0.10636 0.50656 0.34605 0.0
O173 O 0.10466 0.61749 0.41167 0.0
O174 O 0.09666 0.64693 0.3124 0.0
C175 C 1.00594 0.61155 0.31697 0.0
Fe176 Fe 0.79756 0.73905 0.54122 0.0
Fe177 Fe 0.82596 0.66746 0.49549 0.0
O178 O 0.82915 0.70504 0.55025 0.0
Fe179 Fe 0.86442 0.70985 0.61071 0.0
O180 O 0.88014 0.74887 0.56554 0.0
O181 O 0.82877 0.77533 0.56438 0.0
O182 O 0.81224 0.74669 0.45342 0.0
C183 C 0.80653 0.72514 0.40509 0.0
C184 C 0.80229 0.73789 0.68292 0.0
O185 O 0.80473 0.69203 0.41947 0.0
C186 C 0.85263 0.64009 0.62791 0.0
O187 O 0.76053 0.70846 0.51359 0.0
O188 O 0.78375 0.65617 0.53336 0.0
O189 O 0.83632 0.73556 0.67653 0.0
O190 O 0.78265 0.73322 0.63008 0.0
C191 C 0.89667 0.67711 0.48867 0.0
O192 O 0.84677 0.63703 0.56168 0.0
O193 O 0.85175 0.67014 0.65717 0.0
C194 C 0.75693 0.67488 0.52051 0.0
O195 O 0.8679 0.67684 0.45514 0.0
O196 O 0.89729 0.68482 0.55455 0.0
C197 C 0.86175 0.77545 0.5499 0.0
Fe198 Fe 0.04225 0.04733 0.79138 0.0
Fe199 Fe 0.11387 0.07565 0.74565 0.0
O200 O 0.0763 0.0789 0.80035 0.0
Fe201 Fe 0.07152 0.1142 0.86072 0.0
O202 O 0.0325 0.12991 0.81547 0.0
O203 O 1.00599 0.07855 0.81446 0.0
O204 O 0.03459 0.06196 0.70355 0.0
C205 C 0.05614 0.05624 0.65524 0.0
C206 C 0.04345 0.05214 0.93306 0.0
O207 O 0.08926 0.05442 0.66964 0.0
C208 C 0.14129 0.10238 0.87803 0.0
O209 O 0.07281 1.01028 0.7638 0.0
O210 O 0.12513 0.03346 0.78363 0.0
O211 O 0.0458 0.08616 0.92659 0.0
O212 O 0.04812 0.03247 0.88027 0.0
C213 C 0.10429 0.14635 0.73864 0.0
O214 O 0.14434 0.09647 0.81182 0.0
O215 O 0.11124 0.10155 0.90726 0.0
C216 C 0.1064 1.00666 0.77075 0.0
O217 O 0.10452 0.11756 0.7052 0.0
O218 O 0.09657 0.14702 0.8045 0.0
C219 C 1.00589 0.11152 0.79992 0.0
Fe220 Fe 0.734 0.29223 0.04134 0.0
Fe221 Fe 0.70564 0.3638 0.99552 0.0
O222 O 0.70241 0.32624 0.05022 0.0
Fe223 Fe 0.6671 0.32145 0.11053 0.0
O224 O 0.6514 0.28244 0.06523 0.0
O225 O 0.70278 0.25596 0.0644 0.0
O226 O 0.71938 0.28453 0.9535 0.0
C227 C 0.72505 0.30606 0.90517 0.0
C228 C 0.72917 0.29342 0.183 0.0
O229 O 0.72686 0.33918 0.91954 0.0
C230 C 0.67891 0.3912 0.12788 0.0
O231 O 0.77104 0.32279 1.0138 0.0
O232 O 0.74784 0.37509 0.03354 0.0
O233 O 0.69515 0.29574 0.17643 0.0
O234 O 0.74886 0.29813 0.13027 0.0
C235 C 0.63493 0.35421 0.98842 0.0
O236 O 0.68481 0.39426 0.06167 0.0
O237 O 0.67976 0.36116 0.15709 0.0
C238 C 0.77465 0.35638 0.02068 0.0
O239 O 0.66371 0.35443 0.95501 0.0
O240 O 0.63426 0.34649 0.05427 0.0
C241 C 0.6698 0.25584 0.04977 0.0
Fe242 Fe 0.48912 0.98382 0.29121 0.0
Fe243 Fe 0.41744 0.9556 0.24547 0.0
O244 O 0.45504 0.95229 0.30013 0.0
Fe245 Fe 0.45982 0.91698 0.3604 0.0
O246 O 0.4988 0.90123 0.3151 0.0
O247 O 0.52537 0.95255 0.31423 0.0
O248 O 0.49672 0.96917 0.20335 0.0
C249 C 0.47515 0.97493 0.15506 0.0
C250 C 0.48797 0.979 0.43288 0.0
O251 O 0.44204 0.9768 0.16948 0.0
C252 C 0.39008 0.92886 0.37781 0.0
O253 O 0.4586 0.02091 0.26371 0.0
O254 O 0.40626 0.99781 0.28355 0.0
O255 O 0.4856 0.94499 0.42632 0.0
O256 O 0.48332 0.99869 0.38013 0.0
C257 C 0.42691 0.88489 0.23828 0.0
O258 O 0.38697 0.93481 0.31162 0.0
O259 O 0.42015 0.92966 0.40699 0.0
C260 C 0.42502 0.02458 0.2707 0.0
O261 O 0.42669 0.91368 0.20491 0.0
O262 O 0.43471 0.88419 0.30411 0.0
C263 C 0.52543 0.91959 0.29962 0.0
Fe264 Fe 0.20552 0.36364 0.62108 0.0
Fe265 Fe 0.16696 0.32126 0.50597 0.0
O266 O 0.20226 0.32606 0.56636 0.0
Fe267 Fe 0.23383 0.29203 0.57533 0.0
O268 O 0.21919 0.2844 0.66315 0.0
O269 O 0.22676 0.33906 0.69708 0.0
O270 O 0.1636 0.3543 0.66153 0.0
C271 C 0.13481 0.35406 0.62808 0.0
C272 C 0.27452 0.35617 0.59594 0.0
O273 O 0.13413 0.34631 0.56222 0.0
C274 C 0.22904 0.2932 0.43364 0.0
O275 O 0.18469 0.39409 0.55493 0.0
O276 O 0.1796 0.36096 0.45947 0.0
O277 O 0.27089 0.3226 0.60291 0.0
O278 O 0.24772 0.3749 0.5831 0.0
C279 C 0.16963 0.25566 0.56676 0.0
O280 O 0.19501 0.29554 0.44009 0.0
O281 O 0.24871 0.29786 0.48645 0.0
C282 C 0.17877 0.39102 0.48872 0.0
O283 O 0.15124 0.28225 0.55119 0.0
O284 O 0.2026 0.25576 0.55221 0.0
C285 C 0.22494 0.30595 0.71147 0.0
Fe286 Fe 0.98911 0.98376 0.3253 0.0
Fe287 Fe 0.9175 0.9554 0.371 0.0
O288 O 0.95507 0.95219 0.31629 0.0
Fe289 Fe 0.95986 0.91691 0.25588 0.0
O290 O 0.99888 0.90119 0.30111 0.0
O291 O 0.02538 0.95255 0.3022 0.0
O292 O 0.99677 0.96911 0.41312 0.0
C293 C 0.97522 0.97481 0.46143 0.0
C294 C 0.98792 0.97899 0.18361 0.0
O295 O 0.9421 0.97663 0.44703 0.0
C296 C 0.89009 0.9287 0.23859 0.0
O297 O 0.95854 0.02079 0.3529 0.0
O298 O 0.90622 0.9976 0.33308 0.0
O299 O 0.98557 0.94497 0.19005 0.0
O300 O 0.98324 0.99865 0.23642 0.0
C301 C 0.92711 0.88471 0.37793 0.0
O302 O 0.88703 0.93459 0.30481 0.0
O303 O 0.92014 0.92956 0.20936 0.0
C304 C 0.92495 0.02441 0.34597 0.0
O305 O 0.92686 0.91348 0.41141 0.0
O306 O 0.93481 0.88406 0.31206 0.0
C307 C 0.02548 0.91958 0.3167 0.0
Fe308 Fe 0.29736 0.73888 0.07523 0.0
Fe309 Fe 0.3257 0.66731 0.12109 0.0
O310 O 0.32895 0.70486 0.06639 0.0
Fe311 Fe 0.36427 0.70965 1.00612 0.0
O312 O 0.37996 0.74866 0.05142 0.0
O313 O 0.32859 0.77514 0.05218 0.0
O314 O 0.31197 0.74659 0.16309 0.0
C315 C 0.30629 0.72505 0.21141 0.0
C316 C 0.30222 0.73767 0.93359 0.0
O317 O 0.30447 0.69193 0.19705 0.0
C318 C 0.35246 0.63989 0.98876 0.0
O319 O 0.26031 0.70832 0.10277 0.0
O320 O 0.28351 0.65602 0.08304 0.0
O321 O 0.33624 0.73535 0.94018 0.0
O322 O 0.28252 0.73297 0.9863 0.0
C323 C 0.39642 0.67688 0.12826 0.0
O324 O 0.34654 0.63683 0.05496 0.0
O325 O 0.35163 0.66994 0.95955 0.0
C326 C 0.2567 0.67474 0.09588 0.0
O327 O 0.36762 0.67666 0.16164 0.0
O328 O 0.3971 0.68461 0.06241 0.0
C329 C 0.36156 0.77526 0.06685 0.0
Fe330 Fe 0.54225 0.0473 0.82547 0.0
Fe331 Fe 0.61393 0.07555 0.87119 0.0
O332 O 0.57633 0.07883 0.81651 0.0
Fe333 Fe 0.57155 0.11412 0.75618 0.0
O334 O 0.53257 0.12988 0.80145 0.0
O335 O 0.50601 0.07855 0.80242 0.0
O336 O 0.53466 0.06197 0.91331 0.0
C337 C 0.55622 0.05623 0.96161 0.0
C338 C 0.5434 0.05207 0.68379 0.0
O339 O 0.58933 0.05436 0.94719 0.0
C340 C 0.64129 0.10224 0.73882 0.0
O341 O 0.57278 1.01022 0.853 0.0
O342 O 0.62512 0.03333 0.83317 0.0
O343 O 0.54577 0.08609 0.6903 0.0
O344 O 0.54805 0.0324 0.73656 0.0
C345 C 0.60444 0.14626 0.87827 0.0
O346 O 0.64439 0.09633 0.80502 0.0
O347 O 0.61122 0.10142 0.70963 0.0
C348 C 0.60636 1.00655 0.84603 0.0
O349 O 0.60466 0.11748 0.91169 0.0
O350 O 0.59665 0.14693 0.81243 0.0
C351 C 0.50594 0.11153 0.81698 0.0
C352 C 0.23382 0.12907 0.93714 0.0
C353 C 0.22667 0.15627 0.98648 0.0
H354 H 0.21267 0.09108 0.86361 0.0
C355 C 0.19127 0.16511 1.00073 0.0
H356 H 0.26095 0.122 0.92424 0.0
C357 C 0.16359 0.14655 0.9673 0.0
C358 C 0.17082 0.11957 0.91735 0.0
H359 H 0.18503 0.18603 0.03799 0.0
H360 H 0.13645 0.15404 0.97912 0.0
C361 C 0.20626 0.11131 0.90225 0.0
C362 C 0.6698 0.45616 0.15188 0.0
C363 C 0.66172 0.42071 0.16722 0.0
H364 H 0.65897 0.51082 0.17376 0.0
C365 C 0.63492 0.41344 0.21749 0.0
H366 H 0.68989 0.46261 0.11301 0.0
C367 C 0.61636 0.44107 0.25099 0.0
C368 C 0.62502 0.47648 0.2365 0.0
H369 H 0.62756 0.38629 0.22952 0.0
H370 H 0.59558 0.4348 0.28851 0.0
C371 C 0.65204 0.48368 0.18684 0.0
C372 C 0.36787 0.88457 0.46676 0.0
C373 C 0.36059 0.91167 0.41714 0.0
H374 H 0.34651 0.84503 0.53728 0.0
C375 C 0.32514 0.92008 0.40248 0.0
H376 H 0.39502 0.87696 0.47824 0.0
C377 C 0.29762 0.90236 0.43749 0.0
C378 C 0.30481 0.87504 0.48652 0.0
H379 H 0.31868 0.94042 0.3641 0.0
H380 H 0.27047 0.90956 0.42492 0.0
C381 C 0.34023 0.86605 0.50029 0.0
C382 C 0.89645 0.61782 0.7179 0.0
C383 C 0.86979 0.61057 0.66727 0.0
H384 H 0.93567 0.59643 0.78919 0.0
C385 C 0.86184 0.57512 0.65153 0.0
H386 H 0.90371 0.64496 0.73026 0.0
C387 C 0.87959 0.54759 0.68642 0.0
C388 C 0.90647 0.55476 0.73645 0.0
H389 H 0.84186 0.56869 0.61236 0.0
H390 H 0.87275 0.52044 0.67304 0.0
C391 C 0.915 0.59017 0.75136 0.0
C392 C 0.79757 0.90182 0.17977 0.0
C393 C 0.80474 0.87479 0.13009 0.0
H394 H 0.81868 0.93969 0.25357 0.0
C395 C 0.84015 0.86613 0.1155 0.0
H396 H 0.77042 0.90875 0.19292 0.0
C397 C 0.86781 0.88471 0.14894 0.0
C398 C 0.86056 0.91152 0.19924 0.0
H399 H 0.84641 0.84535 0.07795 0.0
H400 H 0.89496 0.87736 0.13686 0.0
C401 C 0.82511 0.91959 0.21466 0.0
C402 C 0.41511 0.58998 0.86592 0.0
C403 C 0.40632 0.55458 0.88017 0.0
H404 H 0.40402 0.64477 0.88757 0.0
C405 C 0.37918 0.54741 0.9296 0.0
H406 H 0.43598 0.59624 0.8286 0.0
C407 C 0.36143 0.57494 0.96455 0.0
C408 C 0.36965 0.61038 0.94944 0.0
H409 H 0.37214 0.52027 0.9425 0.0
H410 H 0.34125 0.5685 1.00325 0.0
C411 C 0.39656 0.61763 0.89941 0.0
C412 C 0.66349 0.14634 0.64944 0.0
C413 C 0.67078 0.11944 0.69947 0.0
H414 H 0.68482 0.18575 0.5786 0.0
C415 C 0.70625 0.11123 0.71453 0.0
H416 H 0.63633 0.15379 0.63764 0.0
C417 C 0.73376 0.12897 0.67954 0.0
C418 C 0.72654 0.1561 0.63012 0.0
H419 H 0.71271 0.09105 0.75322 0.0
H420 H 0.76091 0.12194 0.69242 0.0
C421 C 0.69112 0.16489 0.61592 0.0
C422 C 0.13469 0.4133 0.39929 0.0
C423 C 0.1616 0.42054 0.4494 0.0
H424 H 0.09528 0.43472 0.32844 0.0
C425 C 0.16983 0.45598 0.46463 0.0
H426 H 0.12722 0.38617 0.38736 0.0
C427 C 0.1521 0.48352 0.42971 0.0
C428 C 0.12496 0.47636 0.38021 0.0
H429 H 0.19001 0.46239 0.50339 0.0
H430 H 0.15914 0.51065 0.44271 0.0
C431 C 0.11615 0.44097 0.36584 0.0
C432 C 0.70627 0.61116 0.40247 0.0
C433 C 0.67083 0.61957 0.41732 0.0
H434 H 0.76096 0.62172 0.42465 0.0
C435 C 0.66362 0.64666 0.46702 0.0
H436 H 0.71266 0.59083 0.36402 0.0
C437 C 0.69131 0.6652 0.50044 0.0
C438 C 0.72671 0.65623 0.48645 0.0
H439 H 0.63649 0.65426 0.47863 0.0
H440 H 0.68509 0.68623 0.53749 0.0
C441 C 0.73383 0.62891 0.43737 0.0
C442 C 0.13486 0.91344 0.71742 0.0
C443 C 0.1617 0.9207 0.66724 0.0
H444 H 0.09549 0.93481 0.78837 0.0
C445 C 0.16983 0.95615 0.65199 0.0
H446 H 0.12747 0.88629 0.72938 0.0
C447 C 0.15208 0.98367 0.68694 0.0
C448 C 0.12501 0.97649 0.73652 0.0
H449 H 0.18996 0.96259 0.61318 0.0
H450 H 0.15905 1.01082 0.67393 0.0
C451 C 0.11631 0.94108 0.75092 0.0
C452 C 0.86787 0.38482 0.96725 0.0
C453 C 0.86057 0.41168 0.91713 0.0
H454 H 0.84653 0.34544 0.03816 0.0
C455 C 0.82511 0.41984 0.90196 0.0
H456 H 0.89502 0.3774 0.97914 0.0
C457 C 0.7976 0.40209 0.93693 0.0
C458 C 0.80482 0.375 0.98645 0.0
H459 H 0.81864 0.43998 0.8632 0.0
H460 H 0.77044 0.40908 0.92398 0.0
C461 C 0.84024 0.36627 1.00076 0.0
C462 C 0.37939 0.0476 0.18679 0.0
C463 C 0.40643 0.05477 0.2365 0.0
H464 H 0.34155 0.0687 0.11294 0.0
C465 C 0.41512 0.09017 0.25107 0.0
H466 H 0.37243 0.02046 0.17365 0.0
C467 C 0.39657 0.11783 0.2176 0.0
C468 C 0.36976 0.11058 0.16728 0.0
H469 H 0.43591 0.09643 0.28863 0.0
H470 H 0.40396 0.14497 0.22969 0.0
C471 C 0.36165 0.07513 0.15187 0.0
C472 C 0.32512 0.41968 0.7145 0.0
C473 C 0.36056 0.41151 0.69924 0.0
H474 H 0.27042 0.40892 0.69263 0.0
C475 C 0.3678 0.38463 0.6491 0.0
H476 H 0.3187 0.43985 0.75328 0.0
C477 C 0.34013 0.36606 0.61567 0.0
C478 C 0.30473 0.3748 0.63009 0.0
H479 H 0.39494 0.37721 0.63715 0.0
H480 H 0.34638 0.34521 0.57826 0.0
C481 C 0.29757 0.40192 0.67961 0.0
C482 C 0.89656 0.11764 0.39938 0.0
C483 C 0.86965 0.11039 0.44942 0.0
H484 H 0.93598 0.09625 0.32856 0.0
C485 C 0.86145 0.07494 0.46454 0.0
H486 H 0.90401 0.14478 0.38752 0.0
C487 C 0.87919 0.04741 0.4296 0.0
C488 C 0.90632 0.05459 0.38016 0.0
H489 H 0.84127 0.06851 0.50325 0.0
H490 H 0.87216 0.02027 0.44251 0.0
C491 C 0.91511 0.08999 0.36589 0.0
C492 C 0.16349 0.64628 0.14932 0.0
C493 C 0.17079 0.61943 0.19946 0.0
H494 H 0.18481 0.68566 0.07839 0.0
C495 C 0.20625 0.61129 0.21464 0.0
H496 H 0.13633 0.65369 0.13742 0.0
C497 C 0.23376 0.62904 0.17966 0.0
C498 C 0.22654 0.65612 0.13013 0.0
H499 H 0.21272 0.59116 0.25342 0.0
H500 H 0.26092 0.62206 0.19262 0.0
C501 C 0.19111 0.66484 0.1158 0.0
C502 C 0.63478 0.9133 0.89914 0.0
C503 C 0.66162 0.92054 0.94939 0.0
H504 H 0.59542 0.93471 0.82818 0.0
C505 C 0.66977 0.95598 0.96476 0.0
H506 H 0.62737 0.88616 0.88709 0.0
C507 C 0.65203 0.98352 0.92985 0.0
C508 C 0.62496 0.97636 0.88021 0.0
H509 H 0.6899 0.96241 1.00363 0.0
H510 H 0.65902 1.01066 0.94295 0.0
C511 C 0.61624 0.94096 0.86569 0.0
C512 C 0.42103 0.12535 0.9227 0.0
C513 C 0.42665 0.15914 0.95291 0.0
H514 H 0.44125 0.08377 0.85622 0.0
C515 C 0.45846 0.17694 0.93866 0.0
H516 H 0.39644 0.11119 0.93243 0.0
C517 C 0.48373 0.16161 0.89347 0.0
C518 C 0.47788 0.12798 0.86198 0.0
H519 H 0.46316 0.2032 0.96016 0.0
H520 H 0.50798 0.17623 0.88326 0.0
C521 C 0.44644 0.10979 0.87835 0.0
C522 C 0.60441 0.70821 0.18881 0.0
C523 C 0.62219 0.67637 0.20282 0.0
H524 H 0.60509 0.75777 0.13356 0.0
C525 C 0.65591 0.67072 0.17233 0.0
H526 H 0.57821 0.71295 0.21053 0.0
C527 C 0.67141 0.69614 0.12796 0.0
C528 C 0.65323 0.72761 0.11182 0.0
H529 H 0.67005 0.64611 0.18188 0.0
H530 H 0.69738 0.69092 0.10562 0.0
C531 C 0.61969 0.7335 0.14358 0.0
C532 C 0.04768 0.86963 0.39349 0.0
C533 C 0.05357 0.90317 0.36173 0.0
H534 H 0.06825 0.82815 0.4604 0.0
C535 C 0.08508 0.92132 0.37783 0.0
H536 H 0.02338 0.85505 0.38349 0.0
C537 C 0.11053 0.9058 0.42216 0.0
C538 C 0.10487 0.87209 0.45264 0.0
H539 H 0.0903 0.94728 0.35548 0.0
H540 H 0.13517 0.91992 0.43169 0.0
C541 C 0.07299 0.85433 0.43868 0.0
C542 C 0.91131 0.29741 0.64429 0.0
C543 C 0.87794 0.3034 0.61181 0.0
H544 H 0.95266 0.31796 0.71169 0.0
C545 C 0.85993 0.33507 0.62706 0.0
H546 H 0.92576 0.27298 0.63496 0.0
C547 C 0.87546 0.3606 0.67125 0.0
C548 C 0.90901 0.35485 0.70244 0.0
H549 H 0.83411 0.34037 0.60414 0.0
H550 H 0.86145 0.38535 0.68013 0.0
C551 C 0.9266 0.3228 0.68936 0.0
C552 C 0.61053 0.90568 0.19456 0.0
C553 C 0.60481 0.87201 0.16387 0.0
H554 H 0.59034 0.94715 0.26134 0.0
C555 C 0.57287 0.85433 0.17754 0.0
H556 H 0.63521 0.91975 0.18525 0.0
C557 C 0.54755 0.86966 0.22267 0.0
C558 C 0.55351 0.90315 0.25464 0.0
H559 H 0.56807 0.82817 0.15564 0.0
H560 H 0.5232 0.85513 0.23245 0.0
C561 C 0.58507 0.92123 0.23882 0.0
C562 C 0.35986 0.3348 0.98799 0.0
C563 C 0.37817 0.30349 1.00479 0.0
H564 H 0.36113 0.38468 0.93349 0.0
C565 C 0.41188 0.29772 0.97361 0.0
H566 H 0.33378 0.33992 1.00987 0.0
C567 C 0.42717 0.32296 0.92832 0.0
C568 C 0.40924 0.35464 0.91363 0.0
H569 H 0.42659 0.27357 0.98415 0.0
H570 H 0.45349 0.31833 0.90709 0.0
C571 C 0.37538 0.36018 0.94353 0.0
C572 C 0.92077 0.12533 0.69472 0.0
C573 C 0.92646 0.15899 0.66406 0.0
H574 H 0.94099 0.0839 0.76152 0.0
C575 C 0.95839 0.1767 0.6778 0.0
H576 H 0.8961 0.11124 0.68536 0.0
C577 C 0.98372 0.16141 0.72297 0.0
C578 C 0.97779 0.12792 0.75491 0.0
H579 H 0.96317 0.20285 0.65592 0.0
H580 H 1.00806 0.17595 0.7328 0.0
C581 C 0.94624 0.10981 0.73902 0.0
C582 C 0.10467 0.70828 0.4275 0.0
C583 C 0.12234 0.67631 0.41405 0.0
H584 H 0.10545 0.75801 0.48222 0.0
C585 C 0.15598 0.67062 0.44493 0.0
H586 H 0.07854 0.71306 0.40543 0.0
C587 C 0.1715 0.69612 0.48916 0.0
C588 C 0.15342 0.72771 0.50478 0.0
H589 H 0.17004 0.64592 0.43578 0.0
H590 H 0.1974 0.69087 0.51184 0.0
C591 C 0.11996 0.73364 0.47261 0.0
C592 C 0.92121 0.62528 0.42332 0.0
C593 C 0.92673 0.6592 0.45301 0.0
H594 H 0.94149 0.58358 0.3572 0.0
C595 C 0.95838 0.67715 0.43814 0.0
H596 H 0.89672 0.61102 0.4335 0.0
C597 C 0.98363 0.66179 0.3929 0.0
C598 C 0.97788 0.62803 0.36195 0.0
H599 H 0.96299 0.70351 0.4592 0.0
H600 H 1.00776 0.67652 0.38222 0.0
C601 C 0.94659 0.60971 0.37891 0.0
C602 C 0.17142 0.19616 0.62806 0.0
C603 C 0.15323 0.22761 0.61183 0.0
H604 H 0.17007 0.14615 0.68206 0.0
C605 C 0.11966 0.23348 0.64352 0.0
H606 H 0.1974 0.19095 0.60577 0.0
C607 C 0.10438 0.2082 0.68876 0.0
C608 C 0.12218 0.17638 0.70285 0.0
H609 H 0.10505 0.25774 0.63342 0.0
H610 H 0.07816 0.21293 0.71041 0.0
C611 C 0.15592 0.17074 0.67245 0.0
C612 C 0.57299 0.35436 0.93872 0.0
C613 C 0.60488 0.3721 0.95261 0.0
H614 H 0.52336 0.35509 0.88358 0.0
C615 C 0.61055 0.4058 0.92208 0.0
H616 H 0.56824 0.32819 0.96049 0.0
C617 C 0.5851 0.42132 0.87776 0.0
C618 C 0.55358 0.40318 0.86172 0.0
H619 H 0.6352 0.41991 0.93156 0.0
H620 H 0.59033 0.44727 0.85537 0.0
C621 C 0.54767 0.36966 0.89353 0.0
C622 C 0.35994 0.83508 0.12701 0.0
C623 C 0.37795 0.8034 0.1118 0.0
H624 H 0.36146 0.88537 0.18003 0.0
C625 C 0.4113 0.79741 0.14432 0.0
H626 H 0.33412 0.84038 0.10406 0.0
C627 C 0.42659 0.8228 0.18939 0.0
C628 C 0.40901 0.85486 0.20242 0.0
H629 H 0.42575 0.77296 0.13503 0.0
H630 H 0.45264 0.81795 0.21175 0.0
C631 C 0.37546 0.86061 0.17119 0.0
C632 C 0.07288 0.35425 0.6777 0.0
C633 C 0.10478 0.37198 0.66384 0.0
H634 H 0.02326 0.35503 0.73277 0.0
C635 C 0.11046 0.40569 0.69438 0.0
H636 H 0.06811 0.32807 0.65593 0.0
C637 C 0.08502 0.42124 0.73867 0.0
C638 C 0.0535 0.40312 0.75467 0.0
H639 H 0.13511 0.41979 0.68493 0.0
H640 H 0.09027 0.44719 0.76107 0.0
C641 C 0.04758 0.36958 0.72285 0.0
C642 C 0.85988 0.83484 0.48815 0.0
C643 C 0.87816 0.80349 0.50482 0.0
H644 H 0.86117 0.88475 0.43377 0.0
C645 C 0.91183 0.79769 0.4735 0.0
H646 H 0.83383 0.83998 0.51014 0.0
C647 C 0.92713 0.82294 0.42821 0.0
C648 C 0.90923 0.85466 0.41367 0.0
H649 H 0.92652 0.77352 0.48393 0.0
H650 H 0.95342 0.81829 0.40687 0.0
C651 C 0.87539 0.86022 0.44371 0.0
C652 C 0.45841 0.67666 0.17771 0.0
C653 C 0.42645 0.65898 0.16409 0.0
H654 H 0.50811 0.6759 0.2326 0.0
C655 C 0.42074 0.62535 0.19486 0.0
H656 H 0.4632 0.70279 0.15574 0.0
C657 C 0.44622 0.60983 0.23913 0.0
C658 C 0.4778 0.62792 0.25491 0.0
H659 H 0.39605 0.61128 0.18558 0.0
H660 H 0.44095 0.58393 0.26171 0.0
C661 C 0.48374 0.66137 0.22286 0.0
C662 C 0.65595 0.1706 0.94502 0.0
C663 C 0.62233 0.1763 0.91409 0.0
H664 H 0.69736 0.19085 1.01197 0.0
C665 C 0.60467 0.20828 0.92747 0.0
H666 H 0.67001 0.14589 0.93592 0.0
C667 C 0.61997 0.23365 0.97258 0.0
C668 C 0.65341 0.22771 1.0048 0.0
H669 H 0.57856 0.21307 0.90537 0.0
H670 H 0.60546 0.25803 0.98214 0.0
C671 C 0.67148 0.19611 0.98925 0.0
C672 C 0.24644 0.25162 0.25217 0.0
C673 C 0.28411 0.25116 0.24858 0.0
H674 H 0.19956 0.26529 0.31145 0.0
C675 C 0.30301 0.26531 0.3058 0.0
H676 H 0.23064 0.24101 0.20926 0.0
C677 C 0.2849 0.2795 0.36437 0.0
C678 C 0.24723 0.27996 0.36798 0.0
H679 H 0.33177 0.26583 0.3051 0.0
H680 H 0.3007 0.29011 0.40728 0.0
C681 C 0.22833 0.26581 0.31075 0.0
C682 C 0.50173 0.53482 0.61436 0.0
C683 C 0.50123 0.49716 0.61799 0.0
H684 H 0.51548 0.58166 0.5551 0.0
C685 C 0.51541 0.47825 0.56085 0.0
H686 H 0.49109 0.55063 0.6572 0.0
C687 C 0.52967 0.49633 0.50234 0.0
C688 C 0.53016 0.53398 0.49869 0.0
H689 H 0.51591 0.44949 0.56159 0.0
H690 H 0.5403 0.48051 0.4595 0.0
C691 C 0.51598 0.5529 0.55583 0.0
C692 C 0.28498 0.7796 0.75244 0.0
C693 C 0.24732 0.78007 0.74863 0.0
H694 H 0.3318 0.76582 0.81184 0.0
C695 C 0.22836 0.76579 0.80561 0.0
H696 H 0.30081 0.7903 0.70972 0.0
C697 C 0.24642 0.75148 0.86414 0.0
C698 C 0.28408 0.75102 0.86794 0.0
H699 H 0.1996 0.76527 0.80474 0.0
H700 H 0.23058 0.74078 0.90685 0.0
C701 C 0.30304 0.76529 0.81096 0.0
C702 C 0.02956 0.49627 0.11441 0.0
C703 C 0.03011 0.53392 0.11811 0.0
H704 H 0.0158 0.44944 0.05499 0.0
C705 C 0.01601 0.55286 0.06093 0.0
H706 H 0.04013 0.48044 0.15729 0.0
C707 C 1.00179 0.5348 1.00229 0.0
C708 C 1.00125 0.49714 0.99859 0.0
H709 H 1.01556 0.58162 0.06171 0.0
H710 H 0.99122 0.55063 0.95942 0.0
C711 C 1.01535 0.4782 0.05577 0.0
C712 C 0.72832 0.76581 0.81073 0.0
C713 C 0.74722 0.77995 0.86796 0.0
H714 H 0.73063 0.74102 0.70924 0.0
C715 C 0.78489 0.77948 0.86436 0.0
H716 H 0.69955 0.7653 0.81143 0.0
C717 C 0.803 0.76529 0.80579 0.0
C718 C 0.78409 0.75115 0.74856 0.0
H719 H 0.80069 0.79009 0.90727 0.0
H720 H 0.83176 0.7658 0.8051 0.0
C721 C 0.74643 0.75162 0.75215 0.0
C722 C 0.72836 0.26581 0.30562 0.0
C723 C 0.74731 0.28007 0.24863 0.0
H724 H 0.73058 0.24081 0.40687 0.0
C725 C 0.78497 0.27959 0.25243 0.0
H726 H 0.69959 0.26529 0.30475 0.0
C727 C 0.80303 0.26529 0.31096 0.0
C728 C 0.78408 0.25103 0.36795 0.0
H729 H 0.80081 0.29028 0.20971 0.0
H730 H 0.8318 0.2658 0.31183 0.0
C731 C 0.74641 0.2515 0.36415 0.0
C732 C 0.02965 0.99632 1.00233 0.0
C733 C 0.03015 0.03398 0.99869 0.0
H734 H 0.0159 0.94948 0.06158 0.0
C735 C 0.01597 0.0529 0.05583 0.0
H736 H 0.04028 0.98051 0.95949 0.0
C737 C 1.00173 0.03481 0.11436 0.0
C738 C 1.00123 0.99716 0.118 0.0
H739 H 1.01548 0.08165 0.0551 0.0
H740 H 0.9911 0.05062 0.15721 0.0
C741 C 1.01541 0.97824 0.06085 0.0
C742 C 0.52959 0.99627 0.61437 0.0
C743 C 0.53012 0.03392 0.6181 0.0
H744 H 0.51585 0.94944 0.55494 0.0
C745 C 0.51599 0.05286 0.56094 0.0
H746 H 0.54019 0.98044 0.65723 0.0
C747 C 0.50177 0.0348 0.50231 0.0
C748 C 0.50125 0.99714 0.49858 0.0
H749 H 0.51552 0.08162 0.56174 0.0
H750 H 0.49118 0.05062 0.45946 0.0
C751 C 0.51538 0.9782 0.55574 0.0
C752 C 0.27905 0.29813 0.78386 0.0
C753 C 0.2435 0.28928 0.77097 0.0
H754 H 0.32804 0.28267 0.83237 0.0
C755 C 0.23042 0.25646 0.79589 0.0
H756 H 0.29031 0.32237 0.76262 0.0
C757 C 0.25238 0.23294 0.83269 0.0
C758 C 0.28793 0.2418 0.84558 0.0
H759 H 0.20339 0.24841 0.78419 0.0
H760 H 0.24112 0.20871 0.85394 0.0
C761 C 0.30102 0.27461 0.82066 0.0
C762 C 0.52473 0.48022 0.04591 0.0
C763 C 0.49191 0.49333 0.02099 0.0
H764 H 0.57253 0.49089 0.10398 0.0
C765 C 0.48307 0.52886 0.03395 0.0
H766 H 0.53278 0.45321 0.03415 0.0
C767 C 0.50662 0.5508 0.07078 0.0
C768 C 0.53945 0.53769 0.09569 0.0
H769 H 0.45882 0.54013 1.0127 0.0
H770 H 0.49857 0.57782 0.08254 0.0
C771 C 0.54829 0.50216 0.08274 0.0
C772 C 0.23034 0.7566 0.32064 0.0
C773 C 0.24353 0.78938 0.3456 0.0
H774 H 0.24089 0.7088 0.26255 0.0
C775 C 0.2791 0.79814 0.33273 0.0
H776 H 0.2033 0.74861 0.33234 0.0
C777 C 0.30098 0.77454 0.29593 0.0
C778 C 0.2878 0.74176 0.27097 0.0
H779 H 0.29043 0.82234 0.35402 0.0
H780 H 0.32803 0.78253 0.28423 0.0
C781 C 0.25223 0.733 0.28384 0.0
C782 C 0.04826 0.50216 0.53387 0.0
C783 C 0.03952 0.53773 0.52112 0.0
H784 H 0.03264 0.45321 0.5822 0.0
C785 C 1.00674 0.5509 0.54611 0.0
H786 H 0.07246 0.49084 0.51257 0.0
C787 C 0.98314 0.529 0.58282 0.0
C788 C 0.99189 0.49343 0.59558 0.0
H789 H 0.99877 0.57795 0.5345 0.0
H790 H 0.95895 0.54032 0.60413 0.0
C791 C 0.02467 0.48026 0.57059 0.0
C792 C 0.77908 0.79814 0.28386 0.0
C793 C 0.74354 0.78927 0.27095 0.0
H794 H 0.82808 0.7827 0.33238 0.0
C795 C 0.73046 0.75645 0.29586 0.0
H796 H 0.79034 0.82238 0.26262 0.0
C797 C 0.75244 0.73294 0.33265 0.0
C798 C 0.78797 0.74181 0.34556 0.0
H799 H 0.70344 0.74839 0.28414 0.0
H800 H 0.74118 0.7087 0.35389 0.0
C801 C 0.80105 0.77463 0.32065 0.0
C802 C 0.80099 0.27453 0.79593 0.0
C803 C 0.7878 0.24174 0.77098 0.0
H804 H 0.79043 0.32233 0.85401 0.0
C805 C 0.75224 0.23298 0.78385 0.0
H806 H 0.82803 0.28252 0.78423 0.0
C807 C 0.73035 0.25657 0.82065 0.0
C808 C 0.74354 0.28936 0.8456 0.0
H809 H 0.74091 0.20877 0.76257 0.0
H810 H 0.70331 0.24859 0.83236 0.0
C811 C 0.7791 0.29812 0.83273 0.0
C812 C 0.98307 0.02887 0.53391 0.0
C813 C 0.99191 0.99333 0.521 0.0
H814 H 0.99858 0.07784 0.58247 0.0
C815 C 0.02473 0.98023 0.54594 0.0
H816 H 0.95884 0.04014 0.51264 0.0
C817 C 0.04828 1.00218 0.58278 0.0
C818 C 0.03944 0.03771 0.59569 0.0
H819 H 0.03278 0.95321 0.53421 0.0
H820 H 0.07252 0.9909 0.60405 0.0
C821 C 1.00662 0.05081 0.57074 0.0
C822 C 0.50675 0.05091 0.04609 0.0
C823 C 0.53952 0.03772 0.02111 0.0
H824 H 0.45895 0.04036 0.10412 0.0
C825 C 0.54824 1.00214 0.03387 0.0
H826 H 0.49879 0.07797 0.03448 0.0
C827 C 0.52463 0.98025 0.07058 0.0
C828 C 0.49186 0.99345 0.09556 0.0
H829 H 0.57243 0.9908 1.01256 0.0
H830 H 0.53258 0.9532 0.08219 0.0
C831 C 0.48314 0.02902 0.08281 0.0
loop_
_geom_bond_atom_site_label_1
_geom_bond_atom_site_label_2
_geom_bond_distance
_geom_bond_site_symmetry_2
_ccdc_geom_bond_type
Fe0 O2 1.918 . S
Fe0 O5 1.997 . S
Fe0 O6 2.002 1_554 S
Fe0 O11 1.976 . S
Fe0 O14 1.996 . S
Fe1 O2 1.918 1_556 S
Fe1 O9 1.997 . S
Fe1 O12 1.996 . S
Fe1 O16 1.976 1_556 S
Fe1 O19 2.002 . S
O2 Fe0 1.918 . S
O2 Fe1 1.918 1_554 S
O2 Fe3 1.918 . S
Fe3 O2 1.918 . S
Fe3 O4 2.002 . S
Fe3 O13 1.976 . S
Fe3 O17 1.996 . S
Fe3 O20 1.997 . S
O4 Fe3 2.002 . S
O4 C21 1.295 . S
O5 Fe0 1.997 . S
O5 C21 1.235 . S
O6 Fe0 2.002 1_556 S
O6 C7 1.295 . S
C7 O6 1.295 . S
C7 O9 1.235 . S
C8 O13 1.287 . S
C8 O14 1.255 . S
O9 Fe1 1.997 . S
O9 C7 1.235 . S
C10 O16 1.287 . S
C10 O17 1.255 . S
O11 Fe0 1.976 . S
O11 C18 1.287 . S
O12 Fe1 1.996 . S
O12 C18 1.253 1_556 S
O13 Fe3 1.976 . S
O13 C8 1.287 . S
O14 Fe0 1.996 . S
O14 C8 1.255 . S
C15 O19 1.295 . S
C15 O20 1.235 1_556 S
O16 Fe1 1.976 1_554 S
O16 C10 1.287 . S
O17 Fe3 1.996 . S
O17 C10 1.255 . S
C18 O11 1.287 . S
C18 O12 1.253 1_554 S
O19 Fe1 2.002 . S
O19 C15 1.295 . S
O20 Fe3 1.997 . S
O20 C15 1.235 1_554 S
C21 O4 1.295 . S
C21 O5 1.235 . S
Fe22 O24 1.918 . S
Fe22 O27 1.997 . S
Fe22 O28 2.002 . S
Fe22 O33 1.976 . S
Fe22 O36 1.996 . S
Fe23 O24 1.918 . S
Fe23 O31 1.997 . S
Fe23 O34 1.996 . S
Fe23 O38 1.976 . S
Fe23 O41 2.002 . S
O24 Fe22 1.918 . S
O24 Fe23 1.918 . S
O24 Fe25 1.918 . S
Fe25 O24 1.918 . S
Fe25 O26 2.002 . S
Fe25 O35 1.976 . S
Fe25 O39 1.996 . S
Fe25 O42 1.997 . S
O26 Fe25 2.002 . S
O26 C43 1.295 . S
O27 Fe22 1.997 . S
O27 C43 1.235 . S
O28 Fe22 2.002 . S
O28 C29 1.295 . S
C29 O28 1.295 . S
C29 O31 1.235 . S
C30 O35 1.287 . S
C30 O36 1.255 . S
O31 Fe23 1.997 . S
O31 C29 1.235 . S
C32 O38 1.287 . S
C32 O39 1.255 . S
O33 Fe22 1.976 . S
O33 C40 1.287 . S
O34 Fe23 1.996 . S
O34 C40 1.255 . S
O35 Fe25 1.976 . S
O35 C30 1.287 . S
O36 Fe22 1.996 . S
O36 C30 1.255 . S
C37 O41 1.295 . S
C37 O42 1.235 . S
O38 Fe23 1.976 . S
O38 C32 1.287 . S
O39 Fe25 1.996 . S
O39 C32 1.255 . S
C40 O33 1.287 . S
C40 O34 1.255 . S
O41 Fe23 2.002 . S
O41 C37 1.295 . S
O42 Fe25 1.997 . S
O42 C37 1.235 . S
C43 O26 1.295 . S
C43 O27 1.235 . S
Fe44 O46 1.918 . S
Fe44 O49 1.997 . S
Fe44 O50 2.002 . S
Fe44 O55 1.976 . S
Fe44 O58 1.996 . S
Fe45 O46 1.918 . S
Fe45 O53 1.997 . S
Fe45 O56 1.996 . S
Fe45 O60 1.976 . S
Fe45 O63 2.002 . S
O46 Fe44 1.918 . S
O46 Fe45 1.918 . S
O46 Fe47 1.918 . S
Fe47 O46 1.918 . S
Fe47 O48 2.002 . S
Fe47 O57 1.976 . S
Fe47 O61 1.996 . S
Fe47 O64 1.997 . S
O48 Fe47 2.002 . S
O48 C65 1.295 . S
O49 Fe44 1.997 . S
O49 C65 1.235 . S
O50 Fe44 2.002 . S
O50 C51 1.295 . S
C51 O50 1.295 . S
C51 O53 1.235 . S
C52 O57 1.287 . S
C52 O58 1.255 . S
O53 Fe45 1.997 . S
O53 C51 1.235 . S
C54 O60 1.287 . S
C54 O61 1.255 . S
O55 Fe44 1.976 . S
O55 C62 1.287 . S
O56 Fe45 1.996 . S
O56 C62 1.255 . S
O57 Fe47 1.976 . S
O57 C52 1.287 . S
O58 Fe44 1.996 . S
O58 C52 1.255 . S
C59 O63 1.295 . S
C59 O64 1.235 . S
O60 Fe45 1.976 . S
O60 C54 1.287 . S
O61 Fe47 1.996 . S
O61 C54 1.255 . S
C62 O55 1.287 . S
C62 O56 1.255 . S
O63 Fe45 2.002 . S
O63 C59 1.295 . S
O64 Fe47 1.997 . S
O64 C59 1.235 . S
C65 O48 1.295 . S
C65 O49 1.235 . S
Fe66 O68 1.918 . S
Fe66 O71 1.997 1_655 S
Fe66 O72 2.002 . S
Fe66 O77 1.976 . S
Fe66 O80 1.996 . S
Fe67 O68 1.918 . S
Fe67 O75 1.997 . S
Fe67 O78 1.996 . S
Fe67 O82 1.976 . S
Fe67 O85 2.002 . S
O68 Fe66 1.918 . S
O68 Fe67 1.918 . S
O68 Fe69 1.918 . S
Fe69 O68 1.918 . S
Fe69 O70 2.002 . S
Fe69 O79 1.976 . S
Fe69 O83 1.996 . S
Fe69 O86 1.997 . S
O70 Fe69 2.002 . S
O70 C87 1.295 1_655 S
O71 Fe66 1.997 1_455 S
O71 C87 1.235 . S
O72 Fe66 2.002 . S
O72 C73 1.295 . S
C73 O72 1.295 . S
C73 O75 1.235 . S
C74 O79 1.287 . S
C74 O80 1.255 . S
O75 Fe67 1.997 . S
O75 C73 1.235 . S
C76 O82 1.287 . S
C76 O83 1.255 . S
O77 Fe66 1.976 . S
O77 C84 1.287 . S
O78 Fe67 1.996 . S
O78 C84 1.255 . S
O79 Fe69 1.976 . S
O79 C74 1.287 . S
O80 Fe66 1.996 . S
O80 C74 1.255 . S
C81 O85 1.295 . S
C81 O86 1.235 . S
O82 Fe67 1.976 . S
O82 C76 1.287 . S
O83 Fe69 1.996 . S
O83 C76 1.255 . S
C84 O77 1.287 . S
C84 O78 1.255 . S
O85 Fe67 2.002 . S
O85 C81 1.295 . S
O86 Fe69 1.997 . S
O86 C81 1.235 . S
C87 O70 1.295 1_455 S
C87 O71 1.235 . S
Fe88 O90 1.918 . S
Fe88 O93 1.997 . S
Fe88 O94 2.002 . S
Fe88 O99 1.976 . S
Fe88 O102 1.996 . S
Fe89 O90 1.918 1_556 S
Fe89 O97 1.997 1_556 S
Fe89 O100 1.996 . S
Fe89 O104 1.976 . S
Fe89 O107 2.002 1_556 S
O90 Fe88 1.918 . S
O90 Fe89 1.918 1_554 S
O90 Fe91 1.918 . S
Fe91 O90 1.918 . S
Fe91 O92 2.002 . S
Fe91 O101 1.976 . S
Fe91 O105 1.996 1_554 S
Fe91 O108 1.997 . S
O92 Fe91 2.002 . S
O92 C109 1.295 . S
O93 Fe88 1.997 . S
O93 C109 1.235 . S
O94 Fe88 2.002 . S
O94 C95 1.295 . S
C95 O94 1.295 . S
C95 O97 1.235 . S
C96 O101 1.287 . S
C96 O102 1.255 . S
O97 Fe89 1.997 1_554 S
O97 C95 1.235 . S
C98 O104 1.287 . S
C98 O105 1.255 . S
O99 Fe88 1.976 . S
O99 C106 1.287 1_554 S
O100 Fe89 1.996 . S
O100 C106 1.255 . S
O101 Fe91 1.976 . S
O101 C96 1.287 . S
O102 Fe88 1.996 . S
O102 C96 1.255 . S
C103 O107 1.295 . S
C103 O108 1.235 . S
O104 Fe89 1.976 . S
O104 C98 1.287 . S
O105 Fe91 1.996 1_556 S
O105 C98 1.255 . S
C106 O99 1.287 1_556 S
C106 O100 1.255 . S
O107 Fe89 2.002 1_554 S
O107 C103 1.295 . S
O108 Fe91 1.997 . S
O108 C103 1.235 . S
C109 O92 1.295 . S
C109 O93 1.235 . S
Fe110 O112 1.918 . S
Fe110 O115 1.997 . S
Fe110 O116 2.002 . S
Fe110 O121 1.976 . S
Fe110 O124 1.996 . S
Fe111 O112 1.918 . S
Fe111 O119 1.997 . S
Fe111 O122 1.996 . S
Fe111 O126 1.976 . S
Fe111 O129 2.002 . S
O112 Fe110 1.918 . S
O112 Fe111 1.918 . S
O112 Fe113 1.918 . S
Fe113 O112 1.918 . S
Fe113 O114 2.002 . S
Fe113 O123 1.976 . S
Fe113 O127 1.996 . S
Fe113 O130 1.997 . S
O114 Fe113 2.002 . S
O114 C131 1.295 . S
O115 Fe110 1.997 . S
O115 C131 1.235 . S
O116 Fe110 2.002 . S
O116 C117 1.295 . S
C117 O116 1.295 . S
C117 O119 1.235 . S
C118 O123 1.287 . S
C118 O124 1.255 . S
O119 Fe111 1.997 . S
O119 C117 1.235 . S
C120 O126 1.287 . S
C120 O127 1.255 . S
O121 Fe110 1.976 . S
O121 C128 1.287 . S
O122 Fe111 1.996 . S
O122 C128 1.255 . S
O123 Fe113 1.976 . S
O123 C118 1.287 . S
O124 Fe110 1.996 . S
O124 C118 1.255 . S
C125 O129 1.295 . S
C125 O130 1.235 . S
O126 Fe111 1.976 . S
O126 C120 1.287 . S
O127 Fe113 1.996 . S
O127 C120 1.255 . S
C128 O121 1.287 . S
C128 O122 1.255 . S
O129 Fe111 2.002 . S
O129 C125 1.295 . S
O130 Fe113 1.997 . S
O130 C125 1.235 . S
C131 O114 1.295 . S
C131 O115 1.235 . S
Fe132 O134 1.918 . S
Fe132 O137 1.997 . S
Fe132 O138 2.002 . S
Fe132 O143 1.976 . S
Fe132 O146 1.996 . S
Fe133 O134 1.918 . S
Fe133 O141 1.997 . S
Fe133 O144 1.996 . S
Fe133 O148 1.976 . S
Fe133 O151 2.002 . S
O134 Fe132 1.918 . S
O134 Fe133 1.918 . S
O134 Fe135 1.918 . S
Fe135 O134 1.918 . S
Fe135 O136 2.002 . S
Fe135 O145 1.976 . S
Fe135 O149 1.996 . S
Fe135 O152 1.997 . S
O136 Fe135 2.002 . S
O136 C153 1.295 . S
O137 Fe132 1.997 . S
O137 C153 1.235 . S
O138 Fe132 2.002 . S
O138 C139 1.295 . S
C139 O138 1.295 . S
C139 O141 1.235 . S
C140 O145 1.287 . S
C140 O146 1.255 . S
O141 Fe133 1.997 . S
O141 C139 1.235 . S
C142 O148 1.287 . S
C142 O149 1.255 . S
O143 Fe132 1.976 . S
O143 C150 1.287 . S
O144 Fe133 1.996 . S
O144 C150 1.255 . S
O145 Fe135 1.976 . S
O145 C140 1.287 . S
O146 Fe132 1.996 . S
O146 C140 1.255 . S
C147 O151 1.295 . S
C147 O152 1.235 . S
O148 Fe133 1.976 . S
O148 C142 1.287 . S
O149 Fe135 1.996 . S
O149 C142 1.255 . S
C150 O143 1.287 . S
C150 O144 1.255 . S
O151 Fe133 2.002 . S
O151 C147 1.295 . S
O152 Fe135 1.997 . S
O152 C147 1.235 . S
C153 O136 1.295 . S
C153 O137 1.235 . S
Fe154 O156 1.918 . S
Fe154 O159 1.997 1_455 S
Fe154 O160 2.002 . S
Fe154 O165 1.976 . S
Fe154 O168 1.996 . S
Fe155 O156 1.918 . S
Fe155 O163 1.997 . S
Fe155 O166 1.996 . S
Fe155 O170 1.976 . S
Fe155 O173 2.002 . S
O156 Fe154 1.918 . S
O156 Fe155 1.918 . S
O156 Fe157 1.918 . S
Fe157 O156 1.918 . S
Fe157 O158 2.002 . S
Fe157 O167 1.976 . S
Fe157 O171 1.996 . S
Fe157 O174 1.997 . S
O158 Fe157 2.002 . S
O158 C175 1.295 1_455 S
O159 Fe154 1.997 1_655 S
O159 C175 1.235 . S
O160 Fe154 2.002 . S
O160 C161 1.295 . S
C161 O160 1.295 . S
C161 O163 1.235 . S
C162 O167 1.287 . S
C162 O168 1.255 . S
O163 Fe155 1.997 . S
O163 C161 1.235 . S
C164 O170 1.287 . S
C164 O171 1.255 . S
O165 Fe154 1.976 . S
O165 C172 1.287 . S
O166 Fe155 1.996 . S
O166 C172 1.255 . S
O167 Fe157 1.976 . S
O167 C162 1.287 . S
O168 Fe154 1.996 . S
O168 C162 1.255 . S
C169 O173 1.295 . S
C169 O174 1.235 . S
O170 Fe155 1.976 . S
O170 C164 1.287 . S
O171 Fe157 1.996 . S
O171 C164 1.255 . S
C172 O165 1.287 . S
C172 O166 1.255 . S
O173 Fe155 2.002 . S
O173 C169 1.295 . S
O174 Fe157 1.997 . S
O174 C169 1.235 . S
C175 O158 1.295 1_655 S
C175 O159 1.235 . S
Fe176 O178 1.918 . S
Fe176 O181 1.997 . S
Fe176 O182 2.002 . S
Fe176 O187 1.976 . S
Fe176 O190 1.996 . S
Fe177 O178 1.918 . S
Fe177 O185 1.997 . S
Fe177 O188 1.996 . S
Fe177 O192 1.976 . S
Fe177 O195 2.002 . S
O178 Fe176 1.918 . S
O178 Fe177 1.918 . S
O178 Fe179 1.918 . S
Fe179 O178 1.918 . S
Fe179 O180 2.002 . S
Fe179 O189 1.976 . S
Fe179 O193 1.996 . S
Fe179 O196 1.997 . S
O180 Fe179 2.002 . S
O180 C197 1.295 . S
O181 Fe176 1.997 . S
O181 C197 1.235 . S
O182 Fe176 2.002 . S
O182 C183 1.295 . S
C183 O182 1.295 . S
C183 O185 1.235 . S
C184 O189 1.287 . S
C184 O190 1.255 . S
O185 Fe177 1.997 . S
O185 C183 1.235 . S
C186 O192 1.287 . S
C186 O193 1.255 . S
O187 Fe176 1.976 . S
O187 C194 1.287 . S
O188 Fe177 1.996 . S
O188 C194 1.255 . S
O189 Fe179 1.976 . S
O189 C184 1.287 . S
O190 Fe176 1.996 . S
O190 C184 1.255 . S
C191 O195 1.295 . S
C191 O196 1.235 . S
O192 Fe177 1.976 . S
O192 C186 1.287 . S
O193 Fe179 1.996 . S
O193 C186 1.255 . S
C194 O187 1.287 . S
C194 O188 1.255 . S
O195 Fe177 2.002 . S
O195 C191 1.295 . S
O196 Fe179 1.997 . S
O196 C191 1.235 . S
C197 O180 1.295 . S
C197 O181 1.235 . S
Fe198 O200 1.918 . S
Fe198 O203 1.997 1_455 S
Fe198 O204 2.002 . S
Fe198 O209 1.976 1_545 S
Fe198 O212 1.996 . S
Fe199 O200 1.918 . S
Fe199 O207 1.997 . S
Fe199 O210 1.996 . S
Fe199 O214 1.976 . S
Fe199 O217 2.002 . S
O200 Fe198 1.918 . S
O200 Fe199 1.918 . S
O200 Fe201 1.918 . S
Fe201 O200 1.918 . S
Fe201 O202 2.002 . S
Fe201 O211 1.976 . S
Fe201 O215 1.996 . S
Fe201 O218 1.997 . S
O202 Fe201 2.002 . S
O202 C219 1.295 1_455 S
O203 Fe198 1.997 1_655 S
O203 C219 1.235 . S
O204 Fe198 2.002 . S
O204 C205 1.295 . S
C205 O204 1.295 . S
C205 O207 1.235 . S
C206 O211 1.287 . S
C206 O212 1.255 . S
O207 Fe199 1.997 . S
O207 C205 1.235 . S
C208 O214 1.287 . S
C208 O215 1.255 . S
O209 Fe198 1.976 1_565 S
O209 C216 1.287 . S
O210 Fe199 1.996 . S
O210 C216 1.255 1_545 S
O211 Fe201 1.976 . S
O211 C206 1.287 . S
O212 Fe198 1.996 . S
O212 C206 1.255 . S
C213 O217 1.295 . S
C213 O218 1.235 . S
O214 Fe199 1.976 . S
O214 C208 1.287 . S
O215 Fe201 1.996 . S
O215 C208 1.255 . S
C216 O209 1.287 . S
C216 O210 1.255 1_565 S
O217 Fe199 2.002 . S
O217 C213 1.295 . S
O218 Fe201 1.997 . S
O218 C213 1.235 . S
C219 O202 1.295 1_655 S
C219 O203 1.235 . S
Fe220 O222 1.918 . S
Fe220 O225 1.997 . S
Fe220 O226 2.002 1_554 S
Fe220 O231 1.976 . S
Fe220 O234 1.996 . S
Fe221 O222 1.918 1_556 S
Fe221 O229 1.997 . S
Fe221 O232 1.996 . S
Fe221 O236 1.976 1_556 S
Fe221 O239 2.002 . S
O222 Fe220 1.918 . S
O222 Fe221 1.918 1_554 S
O222 Fe223 1.918 . S
Fe223 O222 1.918 . S
Fe223 O224 2.002 . S
Fe223 O233 1.976 . S
Fe223 O237 1.996 . S
Fe223 O240 1.997 . S
O224 Fe223 2.002 . S
O224 C241 1.295 . S
O225 Fe220 1.997 . S
O225 C241 1.235 . S
O226 Fe220 2.002 1_556 S
O226 C227 1.295 . S
C227 O226 1.295 . S
C227 O229 1.235 . S
C228 O233 1.287 . S
C228 O234 1.255 . S
O229 Fe221 1.997 . S
O229 C227 1.235 . S
C230 O236 1.287 . S
C230 O237 1.255 . S
O231 Fe220 1.976 . S
O231 C238 1.287 . S
O232 Fe221 1.996 . S
O232 C238 1.253 1_556 S
O233 Fe223 1.976 . S
O233 C228 1.287 . S
O234 Fe220 1.996 . S
O234 C228 1.255 . S
C235 O239 1.295 . S
C235 O240 1.235 1_556 S
O236 Fe221 1.976 1_554 S
O236 C230 1.287 . S
O237 Fe223 1.996 . S
O237 C230 1.255 . S
C238 O231 1.287 . S
C238 O232 1.253 1_554 S
O239 Fe221 2.002 . S
O239 C235 1.295 . S
O240 Fe223 1.997 . S
O240 C235 1.235 1_554 S
C241 O224 1.295 . S
C241 O225 1.235 . S
Fe242 O244 1.918 . S
Fe242 O247 1.997 . S
Fe242 O248 2.002 . S
Fe242 O253 1.976 1_565 S
Fe242 O256 1.996 . S
Fe243 O244 1.918 . S
Fe243 O251 1.997 . S
Fe243 O254 1.996 . S
Fe243 O258 1.976 . S
Fe243 O261 2.002 . S
O244 Fe242 1.918 . S
O244 Fe243 1.918 . S
O244 Fe245 1.918 . S
Fe245 O244 1.918 . S
Fe245 O246 2.002 . S
Fe245 O255 1.976 . S
Fe245 O259 1.996 . S
Fe245 O262 1.997 . S
O246 Fe245 2.002 . S
O246 C263 1.295 . S
O247 Fe242 1.997 . S
O247 C263 1.235 . S
O248 Fe242 2.002 . S
O248 C249 1.295 . S
C249 O248 1.295 . S
C249 O251 1.235 . S
C250 O255 1.287 . S
C250 O256 1.255 . S
O251 Fe243 1.997 . S
O251 C249 1.235 . S
C252 O258 1.287 . S
C252 O259 1.255 . S
O253 Fe242 1.976 1_545 S
O253 C260 1.287 . S
O254 Fe243 1.996 . S
O254 C260 1.255 1_565 S
O255 Fe245 1.976 . S
O255 C250 1.287 . S
O256 Fe242 1.996 . S
O256 C250 1.255 . S
C257 O261 1.295 . S
C257 O262 1.235 . S
O258 Fe243 1.976 . S
O258 C252 1.287 . S
O259 Fe245 1.996 . S
O259 C252 1.255 . S
C260 O253 1.287 . S
C260 O254 1.255 1_545 S
O261 Fe243 2.002 . S
O261 C257 1.295 . S
O262 Fe245 1.997 . S
O262 C257 1.235 . S
C263 O246 1.295 . S
C263 O247 1.235 . S
Fe264 O266 1.918 . S
Fe264 O269 1.997 . S
Fe264 O270 2.002 . S
Fe264 O275 1.976 . S
Fe264 O278 1.996 . S
Fe265 O266 1.918 . S
Fe265 O273 1.997 . S
Fe265 O276 1.996 . S
Fe265 O280 1.976 . S
Fe265 O283 2.002 . S
O266 Fe264 1.918 . S
O266 Fe265 1.918 . S
O266 Fe267 1.918 . S
Fe267 O266 1.918 . S
Fe267 O268 2.002 . S
Fe267 O277 1.976 . S
Fe267 O281 1.996 . S
Fe267 O284 1.997 . S
O268 Fe267 2.002 . S
O268 C285 1.295 . S
O269 Fe264 1.997 . S
O269 C285 1.235 . S
O270 Fe264 2.002 . S
O270 C271 1.295 . S
C271 O270 1.295 . S
C271 O273 1.235 . S
C272 O277 1.287 . S
C272 O278 1.255 . S
O273 Fe265 1.997 . S
O273 C271 1.235 . S
C274 O280 1.287 . S
C274 O281 1.255 . S
O275 Fe264 1.976 . S
O275 C282 1.287 . S
O276 Fe265 1.996 . S
O276 C282 1.255 . S
O277 Fe267 1.976 . S
O277 C272 1.287 . S
O278 Fe264 1.996 . S
O278 C272 1.255 . S
C279 O283 1.295 . S
C279 O284 1.235 . S
O280 Fe265 1.976 . S
O280 C274 1.287 . S
O281 Fe267 1.996 . S
O281 C274 1.255 . S
C282 O275 1.287 . S
C282 O276 1.255 . S
O283 Fe265 2.002 . S
O283 C279 1.295 . S
O284 Fe267 1.997 . S
O284 C279 1.235 . S
C285 O268 1.295 . S
C285 O269 1.235 . S
Fe286 O288 1.918 . S
Fe286 O291 1.997 1_655 S
Fe286 O292 2.002 . S
Fe286 O297 1.976 1_565 S
Fe286 O300 1.996 . S
Fe287 O288 1.918 . S
Fe287 O295 1.997 . S
Fe287 O298 1.996 . S
Fe287 O302 1.976 . S
Fe287 O305 2.002 . S
O288 Fe286 1.918 . S
O288 Fe287 1.918 . S
O288 Fe289 1.918 . S
Fe289 O288 1.918 . S
Fe289 O290 2.002 . S
Fe289 O299 1.976 . S
Fe289 O303 1.996 . S
Fe289 O306 1.997 . S
O290 Fe289 2.002 . S
O290 C307 1.295 1_655 S
O291 Fe286 1.997 1_455 S
O291 C307 1.235 . S
O292 Fe286 2.002 . S
O292 C293 1.295 . S
C293 O292 1.295 . S
C293 O295 1.235 . S
C294 O299 1.287 . S
C294 O300 1.255 . S
O295 Fe287 1.997 . S
O295 C293 1.235 . S
C296 O302 1.287 . S
C296 O303 1.255 . S
O297 Fe286 1.976 1_545 S
O297 C304 1.287 . S
O298 Fe287 1.996 . S
O298 C304 1.255 1_565 S
O299 Fe289 1.976 . S
O299 C294 1.287 . S
O300 Fe286 1.996 . S
O300 C294 1.255 . S
C301 O305 1.295 . S
C301 O306 1.235 . S
O302 Fe287 1.976 . S
O302 C296 1.287 . S
O303 Fe289 1.996 . S
O303 C296 1.255 . S
C304 O297 1.287 . S
C304 O298 1.255 1_545 S
O305 Fe287 2.002 . S
O305 C301 1.295 . S
O306 Fe289 1.997 . S
O306 C301 1.235 . S
C307 O290 1.295 1_455 S
C307 O291 1.235 . S
Fe308 O310 1.918 . S
Fe308 O313 1.997 . S
Fe308 O314 2.002 . S
Fe308 O319 1.976 . S
Fe308 O322 1.996 1_554 S
Fe309 O310 1.918 . S
Fe309 O317 1.997 . S
Fe309 O320 1.996 . S
Fe309 O324 1.976 . S
Fe309 O327 2.002 . S
O310 Fe308 1.918 . S
O310 Fe309 1.918 . S
O310 Fe311 1.918 1_554 S
Fe311 O310 1.918 1_556 S
Fe311 O312 2.002 1_556 S
Fe311 O321 1.976 . S
Fe311 O325 1.996 . S
Fe311 O328 1.997 1_556 S
O312 Fe311 2.002 1_554 S
O312 C329 1.295 . S
O313 Fe308 1.997 . S
O313 C329 1.235 . S
O314 Fe308 2.002 . S
O314 C315 1.295 . S
C315 O314 1.295 . S
C315 O317 1.235 . S
C316 O321 1.287 . S
C316 O322 1.255 . S
O317 Fe309 1.997 . S
O317 C315 1.235 . S
C318 O324 1.287 1_556 S
C318 O325 1.255 . S
O319 Fe308 1.976 . S
O319 C326 1.287 . S
O320 Fe309 1.996 . S
O320 C326 1.255 . S
O321 Fe311 1.976 . S
O321 C316 1.287 . S
O322 Fe308 1.996 1_556 S
O322 C316 1.255 . S
C323 O327 1.295 . S
C323 O328 1.235 . S
O324 Fe309 1.976 . S
O324 C318 1.287 1_554 S
O325 Fe311 1.996 . S
O325 C318 1.255 . S
C326 O319 1.287 . S
C326 O320 1.255 . S
O327 Fe309 2.002 . S
O327 C323 1.295 . S
O328 Fe311 1.997 1_554 S
O328 C323 1.235 . S
C329 O312 1.295 . S
C329 O313 1.235 . S
Fe330 O332 1.918 . S
Fe330 O335 1.997 . S
Fe330 O336 2.002 . S
Fe330 O341 1.976 1_545 S
Fe330 O344 1.996 . S
Fe331 O332 1.918 . S
Fe331 O339 1.997 . S
Fe331 O342 1.996 . S
Fe331 O346 1.976 . S
Fe331 O349 2.002 . S
O332 Fe330 1.918 . S
O332 Fe331 1.918 . S
O332 Fe333 1.918 . S
Fe333 O332 1.918 . S
Fe333 O334 2.002 . S
Fe333 O343 1.976 . S
Fe333 O347 1.996 . S
Fe333 O350 1.997 . S
O334 Fe333 2.002 . S
O334 C351 1.295 . S
O335 Fe330 1.997 . S
O335 C351 1.235 . S
O336 Fe330 2.002 . S
O336 C337 1.295 . S
C337 O336 1.295 . S
C337 O339 1.235 . S
C338 O343 1.287 . S
C338 O344 1.255 . S
O339 Fe331 1.997 . S
O339 C337 1.235 . S
C340 O346 1.287 . S
C340 O347 1.255 . S
O341 Fe330 1.976 1_565 S
O341 C348 1.287 . S
O342 Fe331 1.996 . S
O342 C348 1.255 1_545 S
O343 Fe333 1.976 . S
O343 C338 1.287 . S
O344 Fe330 1.996 . S
O344 C338 1.255 . S
C345 O349 1.295 . S
C345 O350 1.235 . S
O346 Fe331 1.976 . S
O346 C340 1.287 . S
O347 Fe333 1.996 . S
O347 C340 1.255 . S
C348 O341 1.287 . S
C348 O342 1.255 1_565 S
O349 Fe331 2.002 . S
O349 C345 1.295 . S
O350 Fe333 1.997 . S
O350 C345 1.235 . S
C351 O334 1.295 . S
C351 O335 1.235 . S
C352 C353 1.387 . S
C352 H356 0.950 1_556 S
C352 C361 1.390 . S
C353 C352 1.387 . S
C353 C355 1.387 . S
H354 C361 0.950 . S
C355 C353 1.387 . S
C355 C357 1.390 . S
C355 H359 0.950 . S
H356 C352 0.950 1_554 S
C357 C355 1.390 . S
C357 C358 1.387 . S
C357 H360 0.950 . S
C358 C357 1.387 . S
C358 C361 1.387 . S
H359 C355 0.950 . S
H360 C357 0.950 . S
C361 C352 1.390 . S
C361 H354 0.950 . S
C361 C358 1.387 . S
C362 C363 1.387 . S
C362 H366 0.950 . S
C362 C371 1.390 . S
C363 C362 1.387 . S
C363 C365 1.387 . S
H364 C371 0.950 . S
C365 C363 1.387 . S
C365 C367 1.390 . S
C365 H369 0.950 . S
H366 C362 0.950 . S
C367 C365 1.390 . S
C367 C368 1.387 . S
C367 H370 0.950 . S
C368 C367 1.387 . S
C368 C371 1.387 . S
H369 C365 0.950 . S
H370 C367 0.950 . S
C371 C362 1.390 . S
C371 H364 0.950 . S
C371 C368 1.387 . S
C372 C373 1.387 . S
C372 H376 0.950 . S
C372 C381 1.390 . S
C373 C372 1.387 . S
C373 C375 1.387 . S
H374 C381 0.950 . S
C375 C373 1.387 . S
C375 C377 1.390 . S
C375 H379 0.950 . S
H376 C372 0.950 . S
C377 C375 1.390 . S
C377 C378 1.387 . S
C377 H380 0.950 . S
C378 C377 1.387 . S
C378 C381 1.387 . S
H379 C375 0.950 . S
H380 C377 0.950 . S
C381 C372 1.390 . S
C381 H374 0.950 . S
C381 C378 1.387 . S
C382 C383 1.387 . S
C382 H386 0.950 . S
C382 C391 1.390 . S
C383 C382 1.387 . S
C383 C385 1.387 . S
H384 C391 0.950 . S
C385 C383 1.387 . S
C385 C387 1.390 . S
C385 H389 0.950 . S
H386 C382 0.950 . S
C387 C385 1.390 . S
C387 C388 1.387 . S
C387 H390 0.950 . S
C388 C387 1.387 . S
C388 C391 1.387 . S
H389 C385 0.950 . S
H390 C387 0.950 . S
C391 C382 1.390 . S
C391 H384 0.950 . S
C391 C388 1.387 . S
C392 C393 1.387 . S
C392 H396 0.950 . S
C392 C401 1.390 . S
C393 C392 1.387 . S
C393 C395 1.387 . S
H394 C401 0.950 . S
C395 C393 1.387 . S
C395 C397 1.390 . S
C395 H399 0.950 . S
H396 C392 0.950 . S
C397 C395 1.390 . S
C397 C398 1.387 . S
C397 H400 0.950 . S
C398 C397 1.387 . S
C398 C401 1.387 . S
H399 C395 0.950 . S
H400 C397 0.950 . S
C401 C392 1.390 . S
C401 H394 0.950 . S
C401 C398 1.387 . S
C402 C403 1.387 . S
C402 H406 0.950 . S
C402 C411 1.390 . S
C403 C402 1.387 . S
C403 C405 1.387 . S
H404 C411 0.950 . S
C405 C403 1.387 . S
C405 C407 1.390 . S
C405 H409 0.950 . S
H406 C402 0.950 . S
C407 C405 1.390 . S
C407 C408 1.387 . S
C407 H410 0.950 . S
C408 C407 1.387 . S
C408 C411 1.387 . S
H409 C405 0.950 . S
H410 C407 0.950 . S
C411 C402 1.390 . S
C411 H404 0.950 . S
C411 C408 1.387 . S
C412 C413 1.387 . S
C412 H416 0.950 . S
C412 C421 1.390 . S
C413 C412 1.387 . S
C413 C415 1.387 . S
H414 C421 0.950 . S
C415 C413 1.387 . S
C415 C417 1.390 . S
C415 H419 0.950 . S
H416 C412 0.950 . S
C417 C415 1.390 . S
C417 C418 1.387 . S
C417 H420 0.950 . S
C418 C417 1.387 . S
C418 C421 1.387 . S
H419 C415 0.950 . S
H420 C417 0.950 . S
C421 C412 1.390 . S
C421 H414 0.950 . S
C421 C418 1.387 . S
C422 C423 1.387 . S
C422 H426 0.950 . S
C422 C431 1.390 . S
C423 C422 1.387 . S
C423 C425 1.387 . S
H424 C431 0.950 . S
C425 C423 1.387 . S
C425 C427 1.390 . S
C425 H429 0.950 . S
H426 C422 0.950 . S
C427 C425 1.390 . S
C427 C428 1.387 . S
C427 H430 0.950 . S
C428 C427 1.387 . S
C428 C431 1.387 . S
H429 C425 0.950 . S
H430 C427 0.950 . S
C431 C422 1.390 . S
C431 H424 0.950 . S
C431 C428 1.387 . S
C432 C433 1.387 . S
C432 H436 0.950 . S
C432 C441 1.390 . S
C433 C432 1.387 . S
C433 C435 1.387 . S
H434 C441 0.950 . S
C435 C433 1.387 . S
C435 C437 1.390 . S
C435 H439 0.950 . S
H436 C432 0.950 . S
C437 C435 1.390 . S
C437 C438 1.387 . S
C437 H440 0.950 . S
C438 C437 1.387 . S
C438 C441 1.387 . S
H439 C435 0.950 . S
H440 C437 0.950 . S
C441 C432 1.390 . S
C441 H434 0.950 . S
C441 C438 1.387 . S
C442 C443 1.387 . S
C442 H446 0.950 . S
C442 C451 1.390 . S
C443 C442 1.387 . S
C443 C445 1.387 . S
H444 C451 0.950 . S
C445 C443 1.387 . S
C445 C447 1.390 . S
C445 H449 0.950 . S
H446 C442 0.950 . S
C447 C445 1.390 . S
C447 C448 1.387 . S
C447 H450 0.950 . S
C448 C447 1.387 . S
C448 C451 1.387 . S
H449 C445 0.950 . S
H450 C447 0.950 . S
C451 C442 1.390 . S
C451 H444 0.950 . S
C451 C448 1.387 . S
C452 C453 1.387 . S
C452 H456 0.950 . S
C452 C461 1.387 1_556 S
C453 C452 1.387 . S
C453 C455 1.387 . S
H454 C461 0.954 . S
C455 C453 1.387 . S
C455 C457 1.390 . S
C455 H459 0.950 . S
H456 C452 0.950 . S
C457 C455 1.390 . S
C457 C458 1.387 . S
C457 H460 0.950 . S
C458 C457 1.387 . S
C458 C461 1.386 1_556 S
H459 C455 0.950 . S
H460 C457 0.950 . S
C461 C452 1.387 1_554 S
C461 H454 0.954 . S
C461 C458 1.386 1_554 S
C462 C463 1.387 . S
C462 H466 0.950 . S
C462 C471 1.390 . S
C463 C462 1.387 . S
C463 C465 1.387 . S
H464 C471 0.950 . S
C465 C463 1.387 . S
C465 C467 1.390 . S
C465 H469 0.950 . S
H466 C462 0.950 . S
C467 C465 1.390 . S
C467 C468 1.387 . S
C467 H470 0.950 . S
C468 C467 1.387 . S
C468 C471 1.387 . S
H469 C465 0.950 . S
H470 C467 0.950 . S
C471 C462 1.390 . S
C471 H464 0.950 . S
C471 C468 1.387 . S
C472 C473 1.387 . S
C472 H476 0.950 . S
C472 C481 1.390 . S
C473 C472 1.387 . S
C473 C475 1.387 . S
H474 C481 0.950 . S
C475 C473 1.387 . S
C475 C477 1.390 . S
C475 H479 0.950 . S
H476 C472 0.950 . S
C477 C475 1.390 . S
C477 C478 1.387 . S
C477 H480 0.950 . S
C478 C477 1.387 . S
C478 C481 1.387 . S
H479 C475 0.950 . S
H480 C477 0.950 . S
C481 C472 1.390 . S
C481 H474 0.950 . S
C481 C478 1.387 . S
C482 C483 1.387 . S
C482 H486 0.950 . S
C482 C491 1.390 . S
C483 C482 1.387 . S
C483 C485 1.387 . S
H484 C491 0.950 . S
C485 C483 1.387 . S
C485 C487 1.390 . S
C485 H489 0.950 . S
H486 C482 0.950 . S
C487 C485 1.390 . S
C487 C488 1.387 . S
C487 H490 0.950 . S
C488 C487 1.387 . S
C488 C491 1.387 . S
H489 C485 0.950 . S
H490 C487 0.950 . S
C491 C482 1.390 . S
C491 H484 0.950 . S
C491 C488 1.387 . S
C492 C493 1.387 . S
C492 H496 0.950 . S
C492 C501 1.390 . S
C493 C492 1.387 . S
C493 C495 1.387 . S
H494 C501 0.950 . S
C495 C493 1.387 . S
C495 C497 1.390 . S
C495 H499 0.950 . S
H496 C492 0.950 . S
C497 C495 1.390 . S
C497 C498 1.387 . S
C497 H500 0.950 . S
C498 C497 1.387 . S
C498 C501 1.387 . S
H499 C495 0.950 . S
H500 C497 0.950 . S
C501 C492 1.390 . S
C501 H494 0.950 . S
C501 C498 1.387 . S
C502 C503 1.387 . S
C502 H506 0.950 . S
C502 C511 1.390 . S
C503 C502 1.387 . S
C503 C505 1.387 . S
H504 C511 0.950 . S
C505 C503 1.387 . S
C505 C507 1.390 . S
C505 H509 0.950 1_556 S
H506 C502 0.950 . S
C507 C505 1.390 . S
C507 C508 1.387 . S
C507 H510 0.950 . S
C508 C507 1.387 . S
C508 C511 1.387 . S
H509 C505 0.950 1_554 S
H510 C507 0.950 . S
C511 C502 1.390 . S
C511 H504 0.950 . S
C511 C508 1.387 . S
C512 C513 1.387 . S
C512 H516 0.950 . S
C512 C521 1.390 . S
C513 C512 1.387 . S
C513 C515 1.387 . S
H514 C521 0.950 . S
C515 C513 1.387 . S
C515 C517 1.390 . S
C515 H519 0.950 . S
H516 C512 0.950 . S
C517 C515 1.390 . S
C517 C518 1.387 . S
C517 H520 0.950 . S
C518 C517 1.387 . S
C518 C521 1.387 . S
H519 C515 0.950 . S
H520 C517 0.950 . S
C521 C512 1.390 . S
C521 H514 0.950 . S
C521 C518 1.387 . S
C522 C523 1.387 . S
C522 H526 0.950 . S
C522 C531 1.390 . S
C523 C522 1.387 . S
C523 C525 1.387 . S
H524 C531 0.950 . S
C525 C523 1.387 . S
C525 C527 1.390 . S
C525 H529 0.950 . S
H526 C522 0.950 . S
C527 C525 1.390 . S
C527 C528 1.387 . S
C527 H530 0.950 . S
C528 C527 1.387 . S
C528 C531 1.387 . S
H529 C525 0.950 . S
H530 C527 0.950 . S
C531 C522 1.390 . S
C531 H524 0.950 . S
C531 C528 1.387 . S
C532 C533 1.387 . S
C532 H536 0.950 . S
C532 C541 1.390 . S
C533 C532 1.387 . S
C533 C535 1.387 . S
H534 C541 0.950 . S
C535 C533 1.387 . S
C535 C537 1.390 . S
C535 H539 0.950 . S
H536 C532 0.950 . S
C537 C535 1.390 . S
C537 C538 1.387 . S
C537 H540 0.950 . S
C538 C537 1.387 . S
C538 C541 1.387 . S
H539 C535 0.950 . S
H540 C537 0.950 . S
C541 C532 1.390 . S
C541 H534 0.950 . S
C541 C538 1.387 . S
C542 C543 1.387 . S
C542 H546 0.950 . S
C542 C551 1.390 . S
C543 C542 1.387 . S
C543 C545 1.387 . S
H544 C551 0.950 . S
C545 C543 1.387 . S
C545 C547 1.390 . S
C545 H549 0.950 . S
H546 C542 0.950 . S
C547 C545 1.390 . S
C547 C548 1.387 . S
C547 H550 0.950 . S
C548 C547 1.387 . S
C548 C551 1.387 . S
H549 C545 0.950 . S
H550 C547 0.950 . S
C551 C542 1.390 . S
C551 H544 0.950 . S
C551 C548 1.387 . S
C552 C553 1.387 . S
C552 H556 0.950 . S
C552 C561 1.390 . S
C553 C552 1.387 . S
C553 C555 1.387 . S
H554 C561 0.950 . S
C555 C553 1.387 . S
C555 C557 1.390 . S
C555 H559 0.950 . S
H556 C552 0.950 . S
C557 C555 1.390 . S
C557 C558 1.387 . S
C557 H560 0.950 . S
C558 C557 1.387 . S
C558 C561 1.387 . S
H559 C555 0.950 . S
H560 C557 0.950 . S
C561 C552 1.390 . S
C561 H554 0.950 . S
C561 C558 1.387 . S
C562 C563 1.387 . S
C562 H566 0.950 . S
C562 C571 1.390 . S
C563 C562 1.387 . S
C563 C565 1.387 1_556 S
H564 C571 0.950 . S
C565 C563 1.387 1_554 S
C565 C567 1.390 1_554 S
C565 H569 0.950 . S
H566 C562 0.950 . S
C567 C565 1.390 1_556 S
C567 C568 1.387 . S
C567 H570 0.950 . S
C568 C567 1.387 . S
C568 C571 1.387 . S
H569 C565 0.950 . S
H570 C567 0.950 . S
C571 C562 1.390 . S
C571 H564 0.950 . S
C571 C568 1.387 . S
C572 C573 1.387 . S
C572 H576 0.950 . S
C572 C581 1.390 . S
C573 C572 1.387 . S
C573 C575 1.387 . S
H574 C581 0.950 . S
C575 C573 1.387 . S
C575 C577 1.390 . S
C575 H579 0.950 . S
H576 C572 0.950 . S
C577 C575 1.390 . S
C577 C578 1.387 . S
C577 H580 0.950 . S
C578 C577 1.387 . S
C578 C581 1.387 . S
H579 C575 0.950 . S
H580 C577 0.950 . S
C581 C572 1.390 . S
C581 H574 0.950 . S
C581 C578 1.387 . S
C582 C583 1.387 . S
C582 H586 0.950 . S
C582 C591 1.390 . S
C583 C582 1.387 . S
C583 C585 1.387 . S
H584 C591 0.950 . S
C585 C583 1.387 . S
C585 C587 1.390 . S
C585 H589 0.950 . S
H586 C582 0.950 . S
C587 C585 1.390 . S
C587 C588 1.387 . S
C587 H590 0.950 . S
C588 C587 1.387 . S
C588 C591 1.387 . S
H589 C585 0.950 . S
H590 C587 0.950 . S
C591 C582 1.390 . S
C591 H584 0.950 . S
C591 C588 1.387 . S
C592 C593 1.387 . S
C592 H596 0.950 . S
C592 C601 1.390 . S
C593 C592 1.387 . S
C593 C595 1.387 . S
H594 C601 0.950 . S
C595 C593 1.387 . S
C595 C597 1.390 . S
C595 H599 0.950 . S
H596 C592 0.950 . S
C597 C595 1.390 . S
C597 C598 1.387 . S
C597 H600 0.950 . S
C598 C597 1.387 . S
C598 C601 1.387 . S
H599 C595 0.950 . S
H600 C597 0.950 . S
C601 C592 1.390 . S
C601 H594 0.950 . S
C601 C598 1.387 . S
C602 C603 1.387 . S
C602 H606 0.950 . S
C602 C611 1.390 . S
C603 C602 1.387 . S
C603 C605 1.387 . S
H604 C611 0.950 . S
C605 C603 1.387 . S
C605 C607 1.390 . S
C605 H609 0.950 . S
H606 C602 0.950 . S
C607 C605 1.390 . S
C607 C608 1.387 . S
C607 H610 0.950 . S
C608 C607 1.387 . S
C608 C611 1.387 . S
H609 C605 0.950 . S
H610 C607 0.950 . S
C611 C602 1.390 . S
C611 H604 0.950 . S
C611 C608 1.387 . S
C612 C613 1.387 . S
C612 H616 0.950 . S
C612 C621 1.390 . S
C613 C612 1.387 . S
C613 C615 1.387 . S
H614 C621 0.950 . S
C615 C613 1.387 . S
C615 C617 1.390 . S
C615 H619 0.950 . S
H616 C612 0.950 . S
C617 C615 1.390 . S
C617 C618 1.387 . S
C617 H620 0.950 . S
C618 C617 1.387 . S
C618 C621 1.387 . S
H619 C615 0.950 . S
H620 C617 0.950 . S
C621 C612 1.390 . S
C621 H614 0.950 . S
C621 C618 1.387 . S
C622 C623 1.387 . S
C622 H626 0.950 . S
C622 C631 1.390 . S
C623 C622 1.387 . S
C623 C625 1.387 . S
H624 C631 0.950 . S
C625 C623 1.387 . S
C625 C627 1.390 . S
C625 H629 0.950 . S
H626 C622 0.950 . S
C627 C625 1.390 . S
C627 C628 1.387 . S
C627 H630 0.950 . S
C628 C627 1.387 . S
C628 C631 1.387 . S
H629 C625 0.950 . S
H630 C627 0.950 . S
C631 C622 1.390 . S
C631 H624 0.950 . S
C631 C628 1.387 . S
C632 C633 1.387 . S
C632 H636 0.950 . S
C632 C641 1.390 . S
C633 C632 1.387 . S
C633 C635 1.387 . S
H634 C641 0.950 . S
C635 C633 1.387 . S
C635 C637 1.390 . S
C635 H639 0.950 . S
H636 C632 0.950 . S
C637 C635 1.390 . S
C637 C638 1.387 . S
C637 H640 0.950 . S
C638 C637 1.387 . S
C638 C641 1.387 . S
H639 C635 0.950 . S
H640 C637 0.950 . S
C641 C632 1.390 . S
C641 H634 0.950 . S
C641 C638 1.387 . S
C642 C643 1.387 . S
C642 H646 0.950 . S
C642 C651 1.390 . S
C643 C642 1.387 . S
C643 C645 1.387 . S
H644 C651 0.950 . S
C645 C643 1.387 . S
C645 C647 1.390 . S
C645 H649 0.950 . S
H646 C642 0.950 . S
C647 C645 1.390 . S
C647 C648 1.387 . S
C647 H650 0.950 . S
C648 C647 1.387 . S
C648 C651 1.387 . S
H649 C645 0.950 . S
H650 C647 0.950 . S
C651 C642 1.390 . S
C651 H644 0.950 . S
C651 C648 1.387 . S
C652 C653 1.387 . S
C652 H656 0.950 . S
C652 C661 1.390 . S
C653 C652 1.387 . S
C653 C655 1.387 . S
H654 C661 0.950 . S
C655 C653 1.387 . S
C655 C657 1.390 . S
C655 H659 0.950 . S
H656 C652 0.950 . S
C657 C655 1.390 . S
C657 C658 1.387 . S
C657 H660 0.950 . S
C658 C657 1.387 . S
C658 C661 1.387 . S
H659 C655 0.950 . S
H660 C657 0.950 . S
C661 C652 1.390 . S
C661 H654 0.950 . S
C661 C658 1.387 . S
C662 C663 1.387 . S
C662 H666 0.950 . S
C662 C671 1.390 1_556 S
C663 C662 1.387 . S
C663 C665 1.387 . S
H664 C671 0.950 . S
C665 C663 1.387 . S
C665 C667 1.390 . S
C665 H669 0.950 . S
H666 C662 0.950 . S
C667 C665 1.390 . S
C667 C668 1.387 . S
C667 H670 0.950 . S
C668 C667 1.387 . S
C668 C671 1.387 1_556 S
H669 C665 0.950 . S
H670 C667 0.950 . S
C671 C662 1.390 1_554 S
C671 H664 0.950 . S
C671 C668 1.387 1_554 S
C672 C673 1.387 . S
C672 H676 0.950 . S
C672 C681 1.390 . S
C673 C672 1.387 . S
C673 C675 1.387 . S
H674 C681 0.950 . S
C675 C673 1.387 . S
C675 C677 1.390 . S
C675 H679 0.950 . S
H676 C672 0.950 . S
C677 C675 1.390 . S
C677 C678 1.387 . S
C677 H680 0.950 . S
C678 C677 1.387 . S
C678 C681 1.387 . S
H679 C675 0.950 . S
H680 C677 0.950 . S
C681 C672 1.390 . S
C681 H674 0.950 . S
C681 C678 1.387 . S
C682 C683 1.387 . S
C682 H686 0.950 . S
C682 C691 1.390 . S
C683 C682 1.387 . S
C683 C685 1.387 . S
H684 C691 0.950 . S
C685 C683 1.387 . S
C685 C687 1.390 . S
C685 H689 0.950 . S
H686 C682 0.950 . S
C687 C685 1.390 . S
C687 C688 1.387 . S
C687 H690 0.950 . S
C688 C687 1.387 . S
C688 C691 1.387 . S
H689 C685 0.950 . S
H690 C687 0.950 . S
C691 C682 1.390 . S
C691 H684 0.950 . S
C691 C688 1.387 . S
C692 C693 1.387 . S
C692 H696 0.950 . S
C692 C701 1.390 . S
C693 C692 1.387 . S
C693 C695 1.387 . S
H694 C701 0.950 . S
C695 C693 1.387 . S
C695 C697 1.390 . S
C695 H699 0.950 . S
H696 C692 0.950 . S
C697 C695 1.390 . S
C697 C698 1.387 . S
C697 H700 0.950 . S
C698 C697 1.387 . S
C698 C701 1.387 . S
H699 C695 0.950 . S
H700 C697 0.950 . S
C701 C692 1.390 . S
C701 H694 0.950 . S
C701 C698 1.387 . S
C702 C703 1.387 . S
C702 H706 0.950 . S
C702 C711 1.399 . S
C703 C702 1.387 . S
C703 C705 1.378 1_455 S
H704 C711 0.951 . S
C705 C703 1.378 1_655 S
C705 C707 1.399 1_554 S
C705 H709 0.951 . S
H706 C702 0.950 . S
C707 C705 1.399 1_556 S
C707 C708 1.387 . S
C707 H710 0.950 . S
C708 C707 1.387 . S
C708 C711 1.378 1_656 S
H709 C705 0.951 . S
H710 C707 0.950 . S
C711 C702 1.399 . S
C711 H704 0.951 . S
C711 C708 1.378 1_454 S
C712 C713 1.387 . S
C712 H716 0.950 . S
C712 C721 1.390 . S
C713 C712 1.387 . S
C713 C715 1.387 . S
H714 C721 0.950 . S
C715 C713 1.387 . S
C715 C717 1.390 . S
C715 H719 0.950 . S
H716 C712 0.950 . S
C717 C715 1.390 . S
C717 C718 1.387 . S
C717 H720 0.950 . S
C718 C717 1.387 . S
C718 C721 1.387 . S
H719 C715 0.950 . S
H720 C717 0.950 . S
C721 C712 1.390 . S
C721 H714 0.950 . S
C721 C718 1.387 . S
C722 C723 1.387 . S
C722 H726 0.950 . S
C722 C731 1.390 . S
C723 C722 1.387 . S
C723 C725 1.387 . S
H724 C731 0.950 . S
C725 C723 1.387 . S
C725 C727 1.390 . S
C725 H729 0.950 . S
H726 C722 0.950 . S
C727 C725 1.390 . S
C727 C728 1.387 . S
C727 H730 0.950 . S
C728 C727 1.387 . S
C728 C731 1.387 . S
H729 C725 0.950 . S
H730 C727 0.950 . S
C731 C722 1.390 . S
C731 H724 0.950 . S
C731 C728 1.387 . S
C732 C733 1.387 1_565 S
C732 H736 0.950 . S
C732 C741 1.390 1_456 S
C733 C732 1.387 1_545 S
C733 C735 1.387 1_556 S
H734 C741 0.950 . S
C735 C733 1.387 1_554 S
C735 C737 1.390 1_455 S
C735 H739 0.950 . S
H736 C732 0.950 . S
C737 C735 1.390 1_655 S
C737 C738 1.387 1_545 S
C737 H740 0.950 . S
C738 C737 1.387 1_565 S
C738 C741 1.387 . S
H739 C735 0.950 . S
H740 C737 0.950 . S
C741 C732 1.390 1_654 S
C741 H734 0.950 . S
C741 C738 1.387 . S
C742 C743 1.387 1_565 S
C742 H746 0.950 . S
C742 C751 1.390 . S
C743 C742 1.387 1_545 S
C743 C745 1.387 . S
H744 C751 0.950 . S
C745 C743 1.387 . S
C745 C747 1.390 . S
C745 H749 0.950 . S
H746 C742 0.950 . S
C747 C745 1.390 . S
C747 C748 1.387 1_545 S
C747 H750 0.950 . S
C748 C747 1.387 1_565 S
C748 C751 1.387 . S
H749 C745 0.950 . S
H750 C747 0.950 . S
C751 C742 1.390 . S
C751 H744 0.950 . S
C751 C748 1.387 . S
C752 C753 1.387 . S
C752 H756 0.950 . S
C752 C761 1.390 . S
C753 C752 1.387 . S
C753 C755 1.387 . S
H754 C761 0.950 . S
C755 C753 1.387 . S
C755 C757 1.390 . S
C755 H759 0.950 . S
H756 C752 0.950 . S
C757 C755 1.390 . S
C757 C758 1.387 . S
C757 H760 0.950 . S
C758 C757 1.387 . S
C758 C761 1.387 . S
H759 C755 0.950 . S
H760 C757 0.950 . S
C761 C752 1.390 . S
C761 H754 0.950 . S
C761 C758 1.387 . S
C762 C763 1.387 1_556 S
C762 H766 0.950 . S
C762 C771 1.390 1_556 S
C763 C762 1.387 1_554 S
C763 C765 1.387 . S
H764 C771 0.950 1_556 S
C765 C763 1.387 . S
C765 C767 1.390 . S
C765 H769 0.950 . S
H766 C762 0.950 . S
C767 C765 1.390 . S
C767 C768 1.387 . S
C767 H770 0.950 . S
C768 C767 1.387 . S
C768 C771 1.387 . S
H769 C765 0.950 . S
H770 C767 0.950 . S
C771 C762 1.390 1_554 S
C771 H764 0.950 1_554 S
C771 C768 1.387 . S
C772 C773 1.387 . S
C772 H776 0.950 . S
C772 C781 1.390 . S
C773 C772 1.387 . S
C773 C775 1.387 . S
H774 C781 0.950 . S
C775 C773 1.387 . S
C775 C777 1.390 . S
C775 H779 0.950 . S
H776 C772 0.950 . S
C777 C775 1.390 . S
C777 C778 1.387 . S
C777 H780 0.950 . S
C778 C777 1.387 . S
C778 C781 1.387 . S
H779 C775 0.950 . S
H780 C777 0.950 . S
C781 C772 1.390 . S
C781 H774 0.950 . S
C781 C778 1.387 . S
C782 C783 1.387 . S
C782 H786 0.950 . S
C782 C791 1.390 1_455 S
C783 C782 1.387 . S
C783 C785 1.387 . S
H784 C791 0.950 . S
C785 C783 1.387 . S
C785 C787 1.390 1_455 S
C785 H789 0.950 . S
H786 C782 0.950 . S
C787 C785 1.390 1_655 S
C787 C788 1.387 . S
C787 H790 0.950 . S
C788 C787 1.387 . S
C788 C791 1.387 . S
H789 C785 0.950 . S
H790 C787 0.950 . S
C791 C782 1.390 1_655 S
C791 H784 0.950 . S
C791 C788 1.387 . S
C792 C793 1.387 . S
C792 H796 0.950 . S
C792 C801 1.390 . S
C793 C792 1.387 . S
C793 C795 1.387 . S
H794 C801 0.950 . S
C795 C793 1.387 . S
C795 C797 1.390 . S
C795 H799 0.950 . S
H796 C792 0.950 . S
C797 C795 1.390 . S
C797 C798 1.387 . S
C797 H800 0.950 . S
C798 C797 1.387 . S
C798 C801 1.387 . S
H799 C795 0.950 . S
H800 C797 0.950 . S
C801 C792 1.390 . S
C801 H794 0.950 . S
C801 C798 1.387 . S
C802 C803 1.387 . S
C802 H806 0.950 . S
C802 C811 1.390 . S
C803 C802 1.387 . S
C803 C805 1.387 . S
H804 C811 0.950 . S
C805 C803 1.387 . S
C805 C807 1.390 . S
C805 H809 0.950 . S
H806 C802 0.950 . S
C807 C805 1.390 . S
C807 C808 1.387 . S
C807 H810 0.950 . S
C808 C807 1.387 . S
C808 C811 1.387 . S
H809 C805 0.950 . S
H810 C807 0.950 . S
C811 C802 1.390 . S
C811 H804 0.950 . S
C811 C808 1.387 . S
C812 C813 1.387 1_545 S
C812 H816 0.950 . S
C812 C821 1.390 1_655 S
C813 C812 1.387 1_565 S
C813 C815 1.387 . S
H814 C821 0.950 . S
C815 C813 1.387 . S
C815 C817 1.390 1_655 S
C815 H819 0.950 . S
H816 C812 0.950 . S
C817 C815 1.390 1_455 S
C817 C818 1.387 1_565 S
C817 H820 0.950 . S
C818 C817 1.387 1_545 S
C818 C821 1.387 . S
H819 C815 0.950 . S
H820 C817 0.950 . S
C821 C812 1.390 1_455 S
C821 H814 0.950 . S
C821 C818 1.387 . S
C822 C823 1.387 . S
C822 H826 0.950 . S
C822 C831 1.390 . S
C823 C822 1.387 . S
C823 C825 1.387 1_544 S
H824 C831 0.950 . S
C825 C823 1.387 1_566 S
C825 C827 1.390 1_556 S
C825 H829 0.950 . S
H826 C822 0.950 . S
C827 C825 1.390 1_554 S
C827 C828 1.387 . S
C827 H830 0.950 1_554 S
C828 C827 1.387 . S
C828 C831 1.387 1_565 S
H829 C825 0.950 . S
H830 C827 0.950 1_556 S
C831 C822 1.390 . S
C831 H824 0.950 . S
C831 C828 1.387 1_545 S
C353 C18 1.550 1_556 S
C358 C208 1.608 . S
C363 C230 1.610 . S
C368 C40 1.554 . S
C373 C252 1.609 . S
C378 C62 1.555 . S
C383 C186 1.607 . S
C388 C84 1.552 . S
C393 C96 1.552 . S
C398 C296 1.607 . S
C403 C120 1.552 . S
C408 C318 1.609 . S
C413 C340 1.608 . S
C418 C150 1.552 . S
C423 C282 1.608 . S
C428 C172 1.552 . S
C433 C32 1.608 . S
C438 C194 1.551 . S
C443 C54 1.607 . S
C448 C216 1.553 . S
C453 C76 1.607 . S
C458 C238 1.552 1_556 S
C463 C260 1.553 . S
C468 C10 1.610 . S
C473 C118 1.609 . S
C478 C272 1.555 . S
C483 C142 1.609 . S
C488 C304 1.552 . S
C493 C164 1.608 . S
C498 C326 1.552 . S
C503 C106 1.610 . S
C508 C348 1.554 . S
C513 C15 1.594 . S
C518 C351 1.625 . S
C523 C37 1.594 . S
C528 C103 1.624 . S
C533 C307 1.625 . S
C538 C59 1.594 . S
C543 C153 1.625 . S
C548 C81 1.594 . S
C553 C95 1.594 . S
C558 C263 1.624 . S
C563 C21 1.623 1_556 S
C568 C131 1.592 . S
C573 C147 1.593 . S
C578 C219 1.623 . S
C583 C169 1.591 . S
C588 C65 1.624 . S
C593 C191 1.594 . S
C598 C175 1.625 . S
C603 C279 1.624 . S
C608 C213 1.591 . S
C613 C235 1.594 . S
C618 C117 1.625 . S
C623 C329 1.624 . S
C628 C257 1.591 . S
C633 C271 1.591 . S
C638 C87 1.623 . S
C643 C197 1.624 . S
C648 C301 1.594 . S
C653 C323 1.591 . S
C658 C43 1.623 . S
C663 C345 1.594 . S
C668 C241 1.624 1_556 S
C673 C8 1.571 . S
C678 C274 1.571 . S
C683 C128 1.570 . S
C688 C30 1.570 . S
C693 C52 1.571 . S
C698 C316 1.571 . S
C703 C162 1.571 . S
C708 C74 1.571 . S
C713 C98 1.571 . S
C718 C184 1.571 . S
C723 C228 1.571 . S
C728 C140 1.571 . S
C733 C206 1.571 . S
C738 C294 1.571 . S
C743 C338 1.570 . S
C748 C250 1.570 . S
C753 C285 1.243 . S
C758 C7 1.243 . S
C763 C125 1.246 1_554 S
C768 C29 1.246 . S
C773 C51 1.244 . S
C778 C315 1.244 . S
C783 C161 1.243 . S
C788 C73 1.243 . S
C793 C109 1.241 . S
C798 C183 1.241 . S
C803 C139 1.245 . S
C808 C227 1.245 . S
C813 C293 1.242 . S
C818 C205 1.242 . S
C823 C337 1.245 1_554 S
C828 C249 1.245 . S
