# Generated by pormake.
# Topology smq, (6)-cn, num edge types: 1
# Building blocks:
#     Node 0, Type 0, BuildingBlock: OJICUG_clean_sbu_0, # of connection points: 6
#     Node 1, Type 0, BuildingBlock: OJICUG_clean_sbu_0, # of connection points: 6
#     Node 2, Type 0, BuildingBlock: OJICUG_clean_sbu_0, # of connection points: 6
#     Node 3, Type 0, BuildingBlock: OJICUG_clean_sbu_0, # of connection points: 6
#     Node 4, Type 0, BuildingBlock: OJICUG_clean_sbu_0, # of connection points: 6
#     Node 5, Type 0, BuildingBlock: OJICUG_clean_sbu_0, # of connection points: 6
#     Node 6, Type 0, BuildingBlock: OJICUG_clean_sbu_0, # of connection points: 6
#     Node 7, Type 0, BuildingBlock: OJICUG_clean_sbu_0, # of connection points: 6
#     Node 8, Type 0, BuildingBlock: OJICUG_clean_sbu_0, # of connection points: 6
#     Node 9, Type 0, BuildingBlock: OJICUG_clean_sbu_0, # of connection points: 6
#     Node 10, Type 0, BuildingBlock: OJICUG_clean_sbu_0, # of connection points: 6
#     Node 11, Type 0, BuildingBlock: OJICUG_clean_sbu_0, # of connection points: 6
#     Node 12, Type 0, BuildingBlock: OJICUG_clean_sbu_0, # of connection points: 6
#     Node 13, Type 0, BuildingBlock: OJICUG_clean_sbu_0, # of connection points: 6
#     Node 14, Type 0, BuildingBlock: OJICUG_clean_sbu_0, # of connection points: 6
#     Node 15, Type 0, BuildingBlock: OJICUG_clean_sbu_0, # of connection points: 6
#     Node 16, Type 0, BuildingBlock: OJICUG_clean_sbu_0, # of connection points: 6
#     Node 17, Type 0, BuildingBlock: OJICUG_clean_sbu_0, # of connection points: 6
#     Node 18, Type 0, BuildingBlock: OJICUG_clean_sbu_0, # of connection points: 6
#     Node 19, Type 0, BuildingBlock: OJICUG_clean_sbu_0, # of connection points: 6
#     Node 20, Type 0, BuildingBlock: OJICUG_clean_sbu_0, # of connection points: 6
#     Node 21, Type 0, BuildingBlock: OJICUG_clean_sbu_0, # of connection points: 6
#     Node 22, Type 0, BuildingBlock: OJICUG_clean_sbu_0, # of connection points: 6
#     Node 23, Type 0, BuildingBlock: OJICUG_clean_sbu_0, # of connection points: 6
#     Edge 24, Type (0, 0), None
#     Edge 25, Type (0, 0), None
#     Edge 26, Type (0, 0), None
#     Edge 27, Type (0, 0), None
#     Edge 28, Type (0, 0), None
#     Edge 29, Type (0, 0), None
#     Edge 30, Type (0, 0), None
#     Edge 31, Type (0, 0), None
#     Edge 32, Type (0, 0), None
#     Edge 33, Type (0, 0), None
#     Edge 34, Type (0, 0), None
#     Edge 35, Type (0, 0), None
#     Edge 36, Type (0, 0), None
#     Edge 37, Type (0, 0), None
#     Edge 38, Type (0, 0), None
#     Edge 39, Type (0, 0), None
#     Edge 40, Type (0, 0), None
#     Edge 41, Type (0, 0), None
#     Edge 42, Type (0, 0), None
#     Edge 43, Type (0, 0), None
#     Edge 44, Type (0, 0), None
#     Edge 45, Type (0, 0), None
#     Edge 46, Type (0, 0), None
#     Edge 47, Type (0, 0), None
#     Edge 48, Type (0, 0), None
#     Edge 49, Type (0, 0), None
#     Edge 50, Type (0, 0), None
#     Edge 51, Type (0, 0), None
#     Edge 52, Type (0, 0), None
#     Edge 53, Type (0, 0), None
#     Edge 54, Type (0, 0), None
#     Edge 55, Type (0, 0), None
#     Edge 56, Type (0, 0), None
#     Edge 57, Type (0, 0), None
#     Edge 58, Type (0, 0), None
#     Edge 59, Type (0, 0), None
#     Edge 60, Type (0, 0), None
#     Edge 61, Type (0, 0), None
#     Edge 62, Type (0, 0), None
#     Edge 63, Type (0, 0), None
#     Edge 64, Type (0, 0), None
#     Edge 65, Type (0, 0), None
#     Edge 66, Type (0, 0), None
#     Edge 67, Type (0, 0), None
#     Edge 68, Type (0, 0), None
#     Edge 69, Type (0, 0), None
#     Edge 70, Type (0, 0), None
#     Edge 71, Type (0, 0), None
#     Edge 72, Type (0, 0), None
#     Edge 73, Type (0, 0), None
#     Edge 74, Type (0, 0), None
#     Edge 75, Type (0, 0), None
#     Edge 76, Type (0, 0), None
#     Edge 77, Type (0, 0), None
#     Edge 78, Type (0, 0), None
#     Edge 79, Type (0, 0), None
#     Edge 80, Type (0, 0), None
#     Edge 81, Type (0, 0), None
#     Edge 82, Type (0, 0), None
#     Edge 83, Type (0, 0), None
#     Edge 84, Type (0, 0), None
#     Edge 85, Type (0, 0), None
#     Edge 86, Type (0, 0), None
#     Edge 87, Type (0, 0), None
#     Edge 88, Type (0, 0), None
#     Edge 89, Type (0, 0), None
#     Edge 90, Type (0, 0), None
#     Edge 91, Type (0, 0), None
#     Edge 92, Type (0, 0), None
#     Edge 93, Type (0, 0), None
#     Edge 94, Type (0, 0), None
#     Edge 95, Type (0, 0), None
# Relax obj value: 0.157
# Max RMSD: 0.181
# Mean RMSD: 0.181
data_MOF--net-smq--node1-OJICUG_clean_sbu_0--edge1-none
_symmetry_space_group_name_H-M    P1
_symmetry_Int_Tables_number       1
_symmetry_cell_setting            triclinic
loop_
_symmetry_equiv_pos_as_xyz
'x, y, z'
_cell_length_a     23.148445
_cell_length_b     23.148401
_cell_length_c     23.148583
_cell_angle_alpha  90.195664
_cell_angle_beta   90.19567
_cell_angle_gamma 90.195533
loop_
_atom_site_label
_atom_site_type_symbol
_atom_site_fract_x
_atom_site_fract_y
_atom_site_fract_z
_atom_type_partial_charge
Sc0 Sc -0.00402 0.13327 0.17259 0.0
Sc1 Sc 0.98748 0.26048 0.25013 0.0
Sc2 Sc 0.98573 0.12565 0.32227 0.0
O3 O -0.01118 0.17426 0.24869 0.0
C4 C 0.88928 0.08476 0.23776 0.0
C5 C 0.92634 0.24208 0.13045 0.0
C6 C 0.89718 0.22172 0.35282 0.0
C7 C 0.07036 0.23161 0.14276 0.0
C8 C 0.08126 0.07693 0.2471 0.0
C9 C 0.07312 0.22467 0.35634 0.0
O10 O 0.91329 0.09887 0.19061 0.0
O11 O 0.92209 0.26782 0.17972 0.0
O12 O 0.91274 0.16955 0.3557 0.0
O13 O 0.07334 0.17828 0.15529 0.0
O14 O 0.06595 0.08428 0.29865 0.0
O15 O 0.05774 0.2586 0.3151 0.0
O16 O 0.04279 0.06528 0.2102 0.0
O17 O 0.04719 0.26845 0.17685 0.0
O18 O 0.0464 0.17837 0.36822 0.0
O19 O 0.95331 0.19557 0.12426 0.0
O20 O 0.9191 0.07135 0.2824 0.0
O21 O 0.92197 0.25914 0.31997 0.0
Sc22 Sc 0.33927 0.48636 0.68602 0.0
Sc23 Sc 0.20689 0.48833 0.75211 0.0
Sc24 Sc 0.33752 0.48767 0.83313 0.0
O25 O 0.29266 0.48778 0.7572 0.0
C26 C 0.39062 0.38857 0.75992 0.0
C27 C 0.229 0.42382 0.63534 0.0
C28 C 0.24106 0.39693 0.85569 0.0
C29 C 0.24726 0.565 0.64286 0.0
C30 C 0.39976 0.57572 0.76119 0.0
C31 C 0.23709 0.57373 0.85939 0.0
O32 O 0.36575 0.40322 0.71351 0.0
O33 O 0.19952 0.42243 0.68235 0.0
O34 O 0.29337 0.41241 0.86072 0.0
O35 O 0.3008 0.56411 0.6566 0.0
O36 O 0.37802 0.56909 0.81033 0.0
O37 O 0.20635 0.56046 0.81495 0.0
O38 O 0.40771 0.53125 0.72994 0.0
O39 O 0.20746 0.54655 0.6768 0.0
O40 O 0.27985 0.54422 0.87588 0.0
O41 O 0.27873 0.44538 0.63324 0.0
O42 O 0.40122 0.42664 0.79874 0.0
O43 O 0.20411 0.42313 0.82299 0.0
Sc44 Sc 0.98631 0.83936 0.18603 0.0
Sc45 Sc -0.01171 0.70698 0.25211 0.0
Sc46 Sc 0.98762 0.8376 0.33315 0.0
O47 O -0.01227 0.79275 0.25721 0.0
C48 C 0.07567 0.89981 0.2612 0.0
C49 C 0.06494 0.74735 0.14285 0.0
C50 C 0.0737 0.73718 0.35938 0.0
C51 C 0.92377 0.72909 0.13534 0.0
C52 C 0.88853 0.89074 0.25991 0.0
C53 C 0.8969 0.74113 0.3557 0.0
O54 O 0.0312 0.90778 0.22997 0.0
O55 O 0.0465 0.70755 0.1768 0.0
O56 O 0.04418 0.77993 0.37589 0.0
O57 O 0.94532 0.77883 0.13324 0.0
O58 O 0.92659 0.9013 0.29877 0.0
O59 O 0.92309 0.70419 0.32299 0.0
O60 O 0.90317 0.86584 0.21352 0.0
O61 O 0.9224 0.69961 0.18234 0.0
O62 O 0.91236 0.79345 0.36073 0.0
O63 O 0.06405 0.80089 0.1566 0.0
O64 O 0.06904 0.87811 0.31036 0.0
O65 O 0.06042 0.70645 0.31494 0.0
Sc66 Sc 0.62564 0.48579 0.82229 0.0
Sc67 Sc 0.76047 0.48752 0.75013 0.0
Sc68 Sc 0.63326 0.49605 0.67261 0.0
O69 O 0.67425 0.48888 0.7487 0.0
C70 C 0.58468 0.38936 0.73776 0.0
C71 C 0.7217 0.39723 0.85283 0.0
C72 C 0.74205 0.42639 0.63046 0.0
C73 C 0.72468 0.57316 0.85635 0.0
C74 C 0.57693 0.58133 0.74713 0.0
C75 C 0.7316 0.57042 0.64278 0.0
O76 O 0.57131 0.41918 0.78242 0.0
O77 O 0.75912 0.42202 0.81997 0.0
O78 O 0.69554 0.45338 0.62427 0.0
O79 O 0.67838 0.54645 0.86823 0.0
O80 O 0.56527 0.54286 0.71023 0.0
O81 O 0.76844 0.54724 0.67686 0.0
O82 O 0.58428 0.56602 0.79868 0.0
O83 O 0.7586 0.55778 0.81511 0.0
O84 O 0.67827 0.57341 0.65532 0.0
O85 O 0.66953 0.41279 0.8557 0.0
O86 O 0.59883 0.41336 0.69062 0.0
O87 O 0.76778 0.42213 0.67973 0.0
Sc88 Sc 0.98521 0.84203 0.64133 0.0
Sc89 Sc -0.00899 0.7123 0.72173 0.0
Sc90 Sc -0.00461 0.84401 0.78833 0.0
O91 O -0.0108 0.79784 0.71671 0.0
C92 C 0.07797 0.90336 0.70918 0.0
C93 C 0.07162 0.74095 0.61208 0.0
C94 C 0.07408 0.7553 0.82727 0.0
C95 C 0.89824 0.7443 0.6174 0.0
C96 C 0.89066 0.89536 0.72346 0.0
C97 C 0.92997 0.73496 0.83875 0.0
O98 O 0.06848 0.88236 0.66002 0.0
O99 O 0.06253 0.71181 0.65843 0.0
O100 O 0.07607 0.80606 0.80661 0.0
O101 O 0.90916 0.79781 0.61663 0.0
O102 O 0.91094 0.87271 0.769 0.0
O103 O 0.92393 0.70871 0.78992 0.0
O104 O 0.92329 0.90431 0.67954 0.0
O105 O 0.92701 0.70772 0.64841 0.0
O106 O 0.95786 0.7817 0.84324 0.0
O107 O 0.04012 0.78287 0.59641 0.0
O108 O 0.035 0.91259 0.7416 0.0
O109 O 0.04917 0.71391 0.79932 0.0
Sc110 Sc 0.64096 0.50071 0.30422 0.0
Sc111 Sc 0.76284 0.48934 0.22246 0.0
Sc112 Sc 0.62523 0.48362 0.15773 0.0
O113 O 0.67721 0.48865 0.22732 0.0
C114 C 0.58769 0.39005 0.24962 0.0
C115 C 0.75048 0.43003 0.34059 0.0
C116 C 0.71978 0.39834 0.12096 0.0
C117 C 0.73441 0.57684 0.32585 0.0
C118 C 0.57547 0.58132 0.23258 0.0
C119 C 0.72324 0.57072 0.11684 0.0
O120 O 0.60691 0.41524 0.29486 0.0
O121 O 0.76822 0.42111 0.28873 0.0
O122 O 0.6664 0.40864 0.12511 0.0
O123 O 0.68414 0.58059 0.305 0.0
O124 O 0.58694 0.5659 0.18171 0.0
O125 O 0.75808 0.56006 0.15893 0.0
O126 O 0.56766 0.54261 0.26995 0.0
O127 O 0.77301 0.5481 0.29867 0.0
O128 O 0.67778 0.54117 0.10686 0.0
O129 O 0.70992 0.46436 0.35166 0.0
O130 O 0.57305 0.41898 0.20449 0.0
O131 O 0.75876 0.42651 0.14952 0.0
Sc132 Sc 0.98358 0.12523 0.65775 0.0
Sc133 Sc -0.01069 0.26286 0.72245 0.0
Sc134 Sc 0.00068 0.141 0.80423 0.0
O135 O -0.01139 0.17722 0.72732 0.0
C136 C 0.89 0.08772 0.74968 0.0
C137 C 0.89831 0.21978 0.62095 0.0
C138 C 0.93008 0.25058 0.8406 0.0
C139 C 0.07069 0.22321 0.61683 0.0
C140 C 0.08127 0.07548 0.73262 0.0
C141 C 0.07682 0.23442 0.82582 0.0
O142 O 0.91893 0.07308 0.70454 0.0
O143 O 0.92648 0.25877 0.64951 0.0
O144 O 0.96436 0.20998 0.85166 0.0
O145 O 0.04114 0.17775 0.60687 0.0
O146 O 0.04255 0.06767 0.76998 0.0
O147 O 0.0481 0.27304 0.79864 0.0
O148 O 0.06585 0.08693 0.68174 0.0
O149 O 0.06002 0.25808 0.65891 0.0
O150 O 0.08057 0.18417 0.80496 0.0
O151 O 0.90861 0.1664 0.62512 0.0
O152 O 0.91521 0.10696 0.7949 0.0
O153 O 0.9211 0.26825 0.78872 0.0
Sc154 Sc 0.34193 0.48525 0.14132 0.0
Sc155 Sc 0.2122 0.49103 0.22174 0.0
Sc156 Sc 0.34392 0.49543 0.28832 0.0
O157 O 0.29774 0.48923 0.21671 0.0
C158 C 0.39533 0.39073 0.22347 0.0
C159 C 0.2442 0.39828 0.1174 0.0
C160 C 0.23486 0.43004 0.33878 0.0
C161 C 0.24083 0.57165 0.11209 0.0
C162 C 0.40326 0.57803 0.20917 0.0
C163 C 0.2552 0.57411 0.32727 0.0
O164 O 0.40421 0.42333 0.17951 0.0
O165 O 0.20762 0.42703 0.14842 0.0
O166 O 0.28162 0.45789 0.34324 0.0
O167 O 0.28276 0.54017 0.09642 0.0
O168 O 0.41249 0.53506 0.2416 0.0
O169 O 0.21381 0.5492 0.29933 0.0
O170 O 0.38227 0.56853 0.16001 0.0
O171 O 0.21168 0.56255 0.15843 0.0
O172 O 0.30595 0.57611 0.3066 0.0
O173 O 0.29771 0.40921 0.11663 0.0
O174 O 0.37265 0.411 0.269 0.0
O175 O 0.20863 0.42395 0.28994 0.0
Sc176 Sc 0.1725 -0.00397 0.13333 0.0
Sc177 Sc 0.25004 0.98752 0.26053 0.0
Sc178 Sc 0.32218 0.98578 0.1257 0.0
O179 O 0.2486 -0.01113 0.17432 0.0
C180 C 0.23767 0.88933 0.08482 0.0
C181 C 0.13038 0.92638 0.24214 0.0
C182 C 0.35274 0.89722 0.22177 0.0
C183 C 0.1427 0.07046 0.23167 0.0
C184 C 0.24701 0.08131 0.07698 0.0
C185 C 0.35625 0.07317 0.22472 0.0
O186 O 0.19051 0.91334 0.09894 0.0
O187 O 0.17965 0.92212 0.26786 0.0
O188 O 0.35561 0.91278 0.16959 0.0
O189 O 0.1552 0.07341 0.17832 0.0
O190 O 0.29856 0.06599 0.08433 0.0
O191 O 0.31501 0.05779 0.25864 0.0
O192 O 0.2101 0.04283 0.06533 0.0
O193 O 0.17676 0.04722 0.2685 0.0
O194 O 0.36813 0.04645 0.17842 0.0
O195 O 0.12417 0.95337 0.19564 0.0
O196 O 0.2823 0.91915 0.0714 0.0
O197 O 0.31989 0.92203 0.25919 0.0
Sc198 Sc 0.48575 0.82224 0.62573 0.0
Sc199 Sc 0.48748 0.75009 0.76056 0.0
Sc200 Sc 0.49601 0.67257 0.63336 0.0
O201 O 0.48884 0.74866 0.67434 0.0
C202 C 0.38932 0.73771 0.58478 0.0
C203 C 0.39718 0.85279 0.72179 0.0
C204 C 0.42635 0.63043 0.74215 0.0
C205 C 0.57312 0.8563 0.72477 0.0
C206 C 0.58129 0.74709 0.57702 0.0
C207 C 0.57043 0.64277 0.7317 0.0
O208 O 0.41914 0.78236 0.5714 0.0
O209 O 0.42198 0.81994 0.75921 0.0
O210 O 0.45335 0.62422 0.69565 0.0
O211 O 0.5464 0.86819 0.67847 0.0
O212 O 0.54282 0.71018 0.56537 0.0
O213 O 0.54717 0.67681 0.76853 0.0
O214 O 0.56597 0.79863 0.58437 0.0
O215 O 0.55774 0.81506 0.75869 0.0
O216 O 0.57339 0.65528 0.67836 0.0
O217 O 0.41274 0.85566 0.66961 0.0
O218 O 0.41332 0.69057 0.59895 0.0
O219 O 0.42207 0.6797 0.76786 0.0
Sc220 Sc 0.65767 0.98362 0.12527 0.0
Sc221 Sc 0.72236 -0.01064 0.2629 0.0
Sc222 Sc 0.80415 0.00073 0.14103 0.0
O223 O 0.72724 -0.01133 0.17727 0.0
C224 C 0.7496 0.89005 0.08776 0.0
C225 C 0.62087 0.89836 0.21982 0.0
C226 C 0.84052 0.93017 0.25066 0.0
C227 C 0.61674 0.07073 0.22324 0.0
C228 C 0.73253 0.08132 0.07552 0.0
C229 C 0.82571 0.07688 0.23447 0.0
O230 O 0.70446 0.91898 0.07311 0.0
O231 O 0.64942 0.92652 0.2588 0.0
O232 O 0.85157 0.96442 0.21002 0.0
O233 O 0.60678 0.04118 0.17779 0.0
O234 O 0.76989 0.0426 0.06771 0.0
O235 O 0.79855 0.04815 0.27309 0.0
O236 O 0.68165 0.0659 0.08697 0.0
O237 O 0.65882 0.06007 0.25811 0.0
O238 O 0.80489 0.08063 0.18419 0.0
O239 O 0.62504 0.90865 0.16644 0.0
O240 O 0.79482 0.91526 0.10701 0.0
O241 O 0.78864 0.92115 0.26831 0.0
Sc242 Sc 0.50067 0.30419 0.64103 0.0
Sc243 Sc 0.4893 0.22242 0.76292 0.0
Sc244 Sc 0.48358 0.15769 0.62531 0.0
O245 O 0.48861 0.22728 0.67729 0.0
C246 C 0.39 0.24959 0.58777 0.0
C247 C 0.43004 0.34056 0.75059 0.0
C248 C 0.3983 0.12093 0.71986 0.0
C249 C 0.57681 0.32579 0.73449 0.0
C250 C 0.58128 0.23254 0.57555 0.0
C251 C 0.57067 0.11679 0.72331 0.0
O252 O 0.4152 0.29482 0.60699 0.0
O253 O 0.42108 0.28869 0.76832 0.0
O254 O 0.4086 0.12508 0.66648 0.0
O255 O 0.58056 0.30498 0.68421 0.0
O256 O 0.56586 0.18167 0.58702 0.0
O257 O 0.56001 0.15889 0.75816 0.0
O258 O 0.54257 0.26991 0.56774 0.0
O259 O 0.54806 0.29863 0.7731 0.0
O260 O 0.54112 0.10682 0.67786 0.0
O261 O 0.46433 0.35162 0.70999 0.0
O262 O 0.41894 0.20446 0.57312 0.0
O263 O 0.42647 0.14948 0.75884 0.0
Sc264 Sc 0.33306 0.98766 0.83764 0.0
Sc265 Sc 0.25203 -0.01167 0.70701 0.0
Sc266 Sc 0.18594 0.98636 0.83939 0.0
O267 O 0.25712 -0.01223 0.79278 0.0
C268 C 0.25983 0.88858 0.89078 0.0
C269 C 0.3556 0.89693 0.74118 0.0
C270 C 0.13526 0.92381 0.72912 0.0
C271 C 0.35929 0.07374 0.73723 0.0
C272 C 0.26112 0.07572 0.89984 0.0
C273 C 0.14278 0.06501 0.74739 0.0
O274 O 0.29868 0.92663 0.90134 0.0
O275 O 0.32292 0.92314 0.70422 0.0
O276 O 0.13316 0.94537 0.77885 0.0
O277 O 0.3758 0.0442 0.77996 0.0
O278 O 0.22989 0.03125 0.90781 0.0
O279 O 0.17671 0.04653 0.70759 0.0
O280 O 0.31028 0.06908 0.87814 0.0
O281 O 0.31485 0.06047 0.70648 0.0
O282 O 0.15651 0.06411 0.80093 0.0
O283 O 0.36063 0.91239 0.79349 0.0
O284 O 0.21343 0.90321 0.86587 0.0
O285 O 0.18227 0.92243 0.69965 0.0
Sc286 Sc 0.48633 0.68598 0.33935 0.0
Sc287 Sc 0.48828 0.75207 0.20698 0.0
Sc288 Sc 0.48762 0.83309 0.3376 0.0
O289 O 0.48774 0.75716 0.29275 0.0
C290 C 0.38853 0.75987 0.39071 0.0
C291 C 0.42377 0.63531 0.22908 0.0
C292 C 0.39687 0.85564 0.24115 0.0
C293 C 0.56499 0.64284 0.24734 0.0
C294 C 0.57568 0.76116 0.39984 0.0
C295 C 0.57369 0.85934 0.23718 0.0
O296 O 0.40318 0.71346 0.36584 0.0
O297 O 0.42237 0.68232 0.19962 0.0
O298 O 0.41235 0.86067 0.29347 0.0
O299 O 0.56408 0.65656 0.30089 0.0
O300 O 0.56905 0.8103 0.3781 0.0
O301 O 0.56042 0.81491 0.20644 0.0
O302 O 0.53121 0.72991 0.40779 0.0
O303 O 0.54649 0.67675 0.20755 0.0
O304 O 0.54416 0.87584 0.27993 0.0
O305 O 0.44534 0.6332 0.27881 0.0
O306 O 0.4266 0.79869 0.40131 0.0
O307 O 0.42309 0.82296 0.20419 0.0
Sc308 Sc 0.78824 -0.00457 0.84405 0.0
Sc309 Sc 0.72164 -0.00894 0.71233 0.0
Sc310 Sc 0.64124 0.98524 0.84207 0.0
O311 O 0.71662 -0.01076 0.79787 0.0
C312 C 0.72337 0.8907 0.8954 0.0
C313 C 0.83867 0.93005 0.73498 0.0
C314 C 0.61734 0.89827 0.74434 0.0
C315 C 0.82717 0.07415 0.75534 0.0
C316 C 0.70909 0.07801 0.90341 0.0
C317 C 0.61199 0.07166 0.741 0.0
O318 O 0.76891 0.91098 0.87274 0.0
O319 O 0.78984 0.92399 0.70874 0.0
O320 O 0.61656 0.90919 0.79785 0.0
O321 O 0.80653 0.07612 0.80611 0.0
O322 O 0.65993 0.06852 0.8824 0.0
O323 O 0.65834 0.06258 0.71185 0.0
O324 O 0.74151 0.03503 0.91263 0.0
O325 O 0.79923 0.04922 0.71395 0.0
O326 O 0.59632 0.04015 0.7829 0.0
O327 O 0.84315 0.95791 0.78173 0.0
O328 O 0.67946 0.92334 0.90435 0.0
O329 O 0.64832 0.92706 0.70775 0.0
Sc330 Sc 0.4852 0.14128 0.34201 0.0
Sc331 Sc 0.49099 0.2217 0.21228 0.0
Sc332 Sc 0.49539 0.28828 0.34401 0.0
O333 O 0.48919 0.21667 0.29782 0.0
C334 C 0.39068 0.22342 0.39541 0.0
C335 C 0.39822 0.11738 0.24429 0.0
C336 C 0.43003 0.33874 0.23493 0.0
C337 C 0.5716 0.11204 0.24093 0.0
C338 C 0.57797 0.20912 0.40335 0.0
C339 C 0.57408 0.32722 0.25529 0.0
O340 O 0.42329 0.17947 0.4043 0.0
O341 O 0.42699 0.14838 0.2077 0.0
O342 O 0.45786 0.3432 0.28171 0.0
O343 O 0.5401 0.09637 0.28284 0.0
O344 O 0.535 0.24154 0.41258 0.0
O345 O 0.54916 0.29928 0.2139 0.0
O346 O 0.56848 0.15996 0.38235 0.0
O347 O 0.56251 0.15839 0.21178 0.0
O348 O 0.57607 0.30656 0.30605 0.0
O349 O 0.40915 0.1166 0.2978 0.0
O350 O 0.41095 0.26896 0.37273 0.0
O351 O 0.42392 0.2899 0.20871 0.0
Sc352 Sc 0.13325 0.17255 -0.00394 0.0
Sc353 Sc 0.26045 0.25009 0.98756 0.0
Sc354 Sc 0.12562 0.32222 0.98581 0.0
O355 O 0.17424 0.24865 -0.01109 0.0
C356 C 0.08475 0.23771 0.88937 0.0
C357 C 0.24206 0.13042 0.92642 0.0
C358 C 0.22168 0.35277 0.89725 0.0
C359 C 0.23158 0.14275 0.0705 0.0
C360 C 0.07685 0.24705 0.08133 0.0
C361 C 0.22463 0.35629 0.07321 0.0
O362 O 0.09887 0.19055 0.91337 0.0
O363 O 0.26778 0.1797 0.92216 0.0
O364 O 0.1695 0.35564 0.91281 0.0
O365 O 0.17824 0.15525 0.07345 0.0
O366 O 0.08427 0.29859 0.06603 0.0
O367 O 0.25856 0.31505 0.05783 0.0
O368 O 0.06524 0.21014 0.04285 0.0
O369 O 0.26841 0.1768 0.04726 0.0
O370 O 0.17835 0.36818 0.04646 0.0
O371 O 0.19556 0.12422 0.95341 0.0
O372 O 0.0713 0.28233 0.91921 0.0
O373 O 0.2591 0.31994 0.92207 0.0
Sc374 Sc 0.12518 0.65771 0.98367 0.0
Sc375 Sc 0.26281 0.7224 -0.01059 0.0
Sc376 Sc 0.14094 0.8042 0.00077 0.0
O377 O 0.17718 0.72729 -0.01129 0.0
C378 C 0.08768 0.74964 0.8901 0.0
C379 C 0.21973 0.62094 0.89839 0.0
C380 C 0.25057 0.84057 0.93021 0.0
C381 C 0.22314 0.6168 0.07079 0.0
C382 C 0.07541 0.73258 0.08135 0.0
C383 C 0.23437 0.82576 0.07692 0.0
O384 O 0.07302 0.70451 0.91903 0.0
O385 O 0.25872 0.64947 0.92657 0.0
O386 O 0.20993 0.85162 0.96446 0.0
O387 O 0.1777 0.60682 0.04122 0.0
O388 O 0.06762 0.76994 0.04263 0.0
O389 O 0.27299 0.7986 0.04819 0.0
O390 O 0.08689 0.6817 0.06594 0.0
O391 O 0.25802 0.65887 0.06011 0.0
O392 O 0.18409 0.80495 0.08067 0.0
O393 O 0.16635 0.62508 0.90869 0.0
O394 O 0.10693 0.79486 0.91529 0.0
O395 O 0.26822 0.78868 0.9212 0.0
Sc396 Sc 0.8222 0.6257 0.48583 0.0
Sc397 Sc 0.75005 0.76052 0.48756 0.0
Sc398 Sc 0.67252 0.63332 0.49609 0.0
O399 O 0.74862 0.67431 0.48892 0.0
C400 C 0.73768 0.58476 0.38941 0.0
C401 C 0.85273 0.72175 0.39725 0.0
C402 C 0.63038 0.74212 0.42643 0.0
C403 C 0.85625 0.72473 0.57321 0.0
C404 C 0.74704 0.57694 0.58135 0.0
C405 C 0.64273 0.73165 0.57051 0.0
O406 O 0.78231 0.57136 0.41924 0.0
O407 O 0.8199 0.75917 0.42207 0.0
O408 O 0.62418 0.69563 0.45344 0.0
O409 O 0.86815 0.67845 0.54646 0.0
O410 O 0.71013 0.56532 0.54288 0.0
O411 O 0.67676 0.76849 0.54726 0.0
O412 O 0.79858 0.58436 0.56606 0.0
O413 O 0.81501 0.75865 0.55783 0.0
O414 O 0.65524 0.67831 0.57347 0.0
O415 O 0.8556 0.66957 0.41281 0.0
O416 O 0.69053 0.59892 0.41339 0.0
O417 O 0.67966 0.76783 0.42215 0.0
Sc418 Sc 0.83756 0.3331 0.98769 0.0
Sc419 Sc 0.70693 0.25207 -0.01164 0.0
Sc420 Sc 0.83931 0.18596 0.9864 0.0
O421 O 0.79271 0.25715 0.9878 0.0
C422 C 0.89064 0.25984 0.88862 0.0
C423 C 0.7411 0.35564 0.89696 0.0
C424 C 0.72903 0.13529 0.92386 0.0
C425 C 0.73715 0.35933 0.07378 0.0
C426 C 0.89979 0.26115 0.07574 0.0
C427 C 0.7473 0.14283 0.06506 0.0
O428 O 0.90124 0.29871 0.92664 0.0
O429 O 0.70414 0.32295 0.92317 0.0
O430 O 0.77876 0.13318 0.94543 0.0
O431 O 0.7799 0.37583 0.04425 0.0
O432 O 0.90774 0.2299 0.03127 0.0
O433 O 0.70751 0.17675 0.04657 0.0
O434 O 0.87807 0.3103 0.06911 0.0
O435 O 0.7064 0.3149 0.0605 0.0
O436 O 0.80084 0.15656 0.06416 0.0
O437 O 0.79341 0.36068 0.91244 0.0
O438 O 0.86579 0.21342 0.90325 0.0
O439 O 0.69956 0.18231 0.92247 0.0
Sc440 Sc 0.14124 0.34198 0.48528 0.0
Sc441 Sc 0.22166 0.21224 0.49108 0.0
Sc442 Sc 0.28825 0.34397 0.49548 0.0
O443 O 0.21663 0.29779 0.48927 0.0
C444 C 0.22339 0.39534 0.39077 0.0
C445 C 0.11733 0.24425 0.39831 0.0
C446 C 0.33869 0.23489 0.43012 0.0
C447 C 0.112 0.24089 0.57169 0.0
C448 C 0.20908 0.40333 0.57805 0.0
C449 C 0.32717 0.25525 0.57418 0.0
O450 O 0.17943 0.40425 0.42335 0.0
O451 O 0.14833 0.20766 0.42708 0.0
O452 O 0.34316 0.28166 0.45796 0.0
O453 O 0.09633 0.28281 0.5402 0.0
O454 O 0.24151 0.41255 0.53508 0.0
O455 O 0.29924 0.21386 0.54925 0.0
O456 O 0.15992 0.38232 0.56856 0.0
O457 O 0.15834 0.21174 0.56259 0.0
O458 O 0.30652 0.30601 0.57617 0.0
O459 O 0.11655 0.29775 0.40924 0.0
O460 O 0.26894 0.37269 0.41104 0.0
O461 O 0.28985 0.20867 0.42401 0.0
Sc462 Sc 0.84396 0.7883 -0.00452 0.0
Sc463 Sc 0.71225 0.72169 -0.00889 0.0
Sc464 Sc 0.84199 0.64129 0.98528 0.0
O465 O 0.79779 0.71668 -0.01072 0.0
C466 C 0.89528 0.72344 0.89074 0.0
C467 C 0.73489 0.83872 0.93009 0.0
C468 C 0.74426 0.61738 0.89832 0.0
C469 C 0.75526 0.82721 0.07419 0.0
C470 C 0.90334 0.70914 0.07804 0.0
C471 C 0.74093 0.61204 0.07171 0.0
O472 O 0.87266 0.76899 0.91103 0.0
O473 O 0.70866 0.78988 0.92403 0.0
O474 O 0.79777 0.6166 0.90924 0.0
O475 O 0.80603 0.80657 0.07617 0.0
O476 O 0.88232 0.65999 0.06856 0.0
O477 O 0.71177 0.65838 0.06262 0.0
O478 O 0.91255 0.74157 0.03507 0.0
O479 O 0.71387 0.79928 0.04926 0.0
O480 O 0.78284 0.59637 0.0402 0.0
O481 O 0.78164 0.84321 0.95796 0.0
O482 O 0.90426 0.67951 0.92336 0.0
O483 O 0.70767 0.64836 0.9271 0.0
Sc484 Sc 0.68591 0.33931 0.48641 0.0
Sc485 Sc 0.75202 0.20694 0.48836 0.0
Sc486 Sc 0.83304 0.33757 0.48769 0.0
O487 O 0.75711 0.29271 0.48781 0.0
C488 C 0.75981 0.39061 0.38861 0.0
C489 C 0.63525 0.22903 0.42387 0.0
C490 C 0.85559 0.24111 0.39696 0.0
C491 C 0.6428 0.2473 0.56508 0.0
C492 C 0.7611 0.39983 0.57574 0.0
C493 C 0.8593 0.23715 0.57377 0.0
O494 O 0.71337 0.3658 0.40326 0.0
O495 O 0.68227 0.19957 0.42246 0.0
O496 O 0.86063 0.29342 0.41244 0.0
O497 O 0.65652 0.30084 0.56417 0.0
O498 O 0.81024 0.37808 0.56912 0.0
O499 O 0.81486 0.2064 0.56049 0.0
O500 O 0.72983 0.40776 0.53128 0.0
O501 O 0.67671 0.20751 0.54658 0.0
O502 O 0.87579 0.27991 0.54426 0.0
O503 O 0.63314 0.27876 0.44544 0.0
O504 O 0.79864 0.40125 0.42665 0.0
O505 O 0.8229 0.20416 0.42316 0.0
Sc506 Sc 0.30414 0.64099 0.50075 0.0
Sc507 Sc 0.22238 0.76288 0.48939 0.0
Sc508 Sc 0.15764 0.62527 0.48367 0.0
O509 O 0.22724 0.67725 0.4887 0.0
C510 C 0.24953 0.58774 0.39009 0.0
C511 C 0.34051 0.75054 0.43013 0.0
C512 C 0.1209 0.71982 0.39837 0.0
C513 C 0.32575 0.73444 0.5769 0.0
C514 C 0.23249 0.57549 0.58135 0.0
C515 C 0.11676 0.72326 0.57078 0.0
O516 O 0.29477 0.60695 0.41528 0.0
O517 O 0.28865 0.76827 0.42117 0.0
O518 O 0.12503 0.66644 0.40869 0.0
O519 O 0.30494 0.68415 0.58064 0.0
O520 O 0.18162 0.58698 0.56594 0.0
O521 O 0.15884 0.75812 0.56011 0.0
O522 O 0.26986 0.56768 0.54264 0.0
O523 O 0.29859 0.77305 0.54815 0.0
O524 O 0.10677 0.67782 0.54121 0.0
O525 O 0.35158 0.70995 0.46441 0.0
O526 O 0.20441 0.57308 0.41903 0.0
O527 O 0.14943 0.75881 0.42656 0.0
loop_
_geom_bond_atom_site_label_1
_geom_bond_atom_site_label_2
_geom_bond_distance
_geom_bond_site_symmetry_2
_ccdc_geom_bond_type
Sc0 O3 2.025 . S
Sc0 O10 2.105 1_455 S
Sc0 O13 2.105 . S
Sc0 O16 2.105 . S
Sc0 O19 2.105 1_455 S
Sc1 O3 2.025 . S
Sc1 O11 2.105 1_455 S
Sc1 O15 2.105 . S
Sc1 O17 2.105 . S
Sc1 O21 2.105 1_455 S
Sc2 O3 2.025 . S
Sc2 O12 2.105 1_455 S
Sc2 O14 2.105 . S
Sc2 O18 2.105 . S
Sc2 O20 2.105 1_455 S
O3 Sc0 2.025 . S
O3 Sc1 2.025 . S
O3 Sc2 2.025 . S
C4 O10 1.268 . S
C4 O20 1.268 . S
C5 O11 1.268 . S
C5 O19 1.268 . S
C6 O12 1.268 . S
C6 O21 1.268 . S
C7 O13 1.268 . S
C7 O17 1.268 . S
C8 O14 1.268 . S
C8 O16 1.268 . S
C9 O15 1.268 . S
C9 O18 1.268 . S
O10 Sc0 2.105 1_655 S
O10 C4 1.268 . S
O11 Sc1 2.105 1_655 S
O11 C5 1.268 . S
O12 Sc2 2.105 1_655 S
O12 C6 1.268 . S
O13 Sc0 2.105 . S
O13 C7 1.268 . S
O14 Sc2 2.105 . S
O14 C8 1.268 . S
O15 Sc1 2.105 . S
O15 C9 1.268 . S
O16 Sc0 2.105 . S
O16 C8 1.268 . S
O17 Sc1 2.105 . S
O17 C7 1.268 . S
O18 Sc2 2.105 . S
O18 C9 1.268 . S
O19 Sc0 2.105 1_655 S
O19 C5 1.268 . S
O20 Sc2 2.105 1_655 S
O20 C4 1.268 . S
O21 Sc1 2.105 1_655 S
O21 C6 1.268 . S
Sc22 O25 2.025 . S
Sc22 O32 2.105 . S
Sc22 O35 2.105 . S
Sc22 O38 2.105 . S
Sc22 O41 2.105 . S
Sc23 O25 2.025 . S
Sc23 O33 2.105 . S
Sc23 O37 2.105 . S
Sc23 O39 2.105 . S
Sc23 O43 2.105 . S
Sc24 O25 2.025 . S
Sc24 O34 2.105 . S
Sc24 O36 2.105 . S
Sc24 O40 2.105 . S
Sc24 O42 2.105 . S
O25 Sc22 2.025 . S
O25 Sc23 2.025 . S
O25 Sc24 2.025 . S
C26 O32 1.268 . S
C26 O42 1.268 . S
C27 O33 1.268 . S
C27 O41 1.268 . S
C28 O34 1.268 . S
C28 O43 1.268 . S
C29 O35 1.268 . S
C29 O39 1.268 . S
C30 O36 1.268 . S
C30 O38 1.268 . S
C31 O37 1.268 . S
C31 O40 1.268 . S
O32 Sc22 2.105 . S
O32 C26 1.268 . S
O33 Sc23 2.105 . S
O33 C27 1.268 . S
O34 Sc24 2.105 . S
O34 C28 1.268 . S
O35 Sc22 2.105 . S
O35 C29 1.268 . S
O36 Sc24 2.105 . S
O36 C30 1.268 . S
O37 Sc23 2.105 . S
O37 C31 1.268 . S
O38 Sc22 2.105 . S
O38 C30 1.268 . S
O39 Sc23 2.105 . S
O39 C29 1.268 . S
O40 Sc24 2.105 . S
O40 C31 1.268 . S
O41 Sc22 2.105 . S
O41 C27 1.268 . S
O42 Sc24 2.105 . S
O42 C26 1.268 . S
O43 Sc23 2.105 . S
O43 C28 1.268 . S
Sc44 O47 2.025 . S
Sc44 O54 2.105 . S
Sc44 O57 2.105 1_455 S
Sc44 O60 2.105 1_455 S
Sc44 O63 2.105 . S
Sc45 O47 2.025 . S
Sc45 O55 2.105 . S
Sc45 O59 2.105 1_455 S
Sc45 O61 2.105 1_455 S
Sc45 O65 2.105 . S
Sc46 O47 2.025 . S
Sc46 O56 2.105 . S
Sc46 O58 2.105 1_455 S
Sc46 O62 2.105 1_455 S
Sc46 O64 2.105 . S
O47 Sc44 2.025 . S
O47 Sc45 2.025 . S
O47 Sc46 2.025 . S
C48 O54 1.268 . S
C48 O64 1.268 . S
C49 O55 1.268 . S
C49 O63 1.268 . S
C50 O56 1.268 . S
C50 O65 1.268 . S
C51 O57 1.268 . S
C51 O61 1.268 . S
C52 O58 1.268 . S
C52 O60 1.268 . S
C53 O59 1.268 . S
C53 O62 1.268 . S
O54 Sc44 2.105 . S
O54 C48 1.268 . S
O55 Sc45 2.105 . S
O55 C49 1.268 . S
O56 Sc46 2.105 . S
O56 C50 1.268 . S
O57 Sc44 2.105 1_655 S
O57 C51 1.268 . S
O58 Sc46 2.105 1_655 S
O58 C52 1.268 . S
O59 Sc45 2.105 1_655 S
O59 C53 1.268 . S
O60 Sc44 2.105 1_655 S
O60 C52 1.268 . S
O61 Sc45 2.105 1_655 S
O61 C51 1.268 . S
O62 Sc46 2.105 1_655 S
O62 C53 1.268 . S
O63 Sc44 2.105 . S
O63 C49 1.268 . S
O64 Sc46 2.105 . S
O64 C48 1.268 . S
O65 Sc45 2.105 . S
O65 C50 1.268 . S
Sc66 O69 2.025 . S
Sc66 O76 2.105 . S
Sc66 O79 2.105 . S
Sc66 O82 2.105 . S
Sc66 O85 2.105 . S
Sc67 O69 2.025 . S
Sc67 O77 2.105 . S
Sc67 O81 2.105 . S
Sc67 O83 2.105 . S
Sc67 O87 2.105 . S
Sc68 O69 2.025 . S
Sc68 O78 2.105 . S
Sc68 O80 2.105 . S
Sc68 O84 2.105 . S
Sc68 O86 2.105 . S
O69 Sc66 2.025 . S
O69 Sc67 2.025 . S
O69 Sc68 2.025 . S
C70 O76 1.268 . S
C70 O86 1.268 . S
C71 O77 1.268 . S
C71 O85 1.268 . S
C72 O78 1.268 . S
C72 O87 1.268 . S
C73 O79 1.268 . S
C73 O83 1.268 . S
C74 O80 1.268 . S
C74 O82 1.268 . S
C75 O81 1.268 . S
C75 O84 1.268 . S
O76 Sc66 2.105 . S
O76 C70 1.268 . S
O77 Sc67 2.105 . S
O77 C71 1.268 . S
O78 Sc68 2.105 . S
O78 C72 1.268 . S
O79 Sc66 2.105 . S
O79 C73 1.268 . S
O80 Sc68 2.105 . S
O80 C74 1.268 . S
O81 Sc67 2.105 . S
O81 C75 1.268 . S
O82 Sc66 2.105 . S
O82 C74 1.268 . S
O83 Sc67 2.105 . S
O83 C73 1.268 . S
O84 Sc68 2.105 . S
O84 C75 1.268 . S
O85 Sc66 2.105 . S
O85 C71 1.268 . S
O86 Sc68 2.105 . S
O86 C70 1.268 . S
O87 Sc67 2.105 . S
O87 C72 1.268 . S
Sc88 O91 2.025 . S
Sc88 O98 2.105 . S
Sc88 O101 2.105 1_455 S
Sc88 O104 2.105 1_455 S
Sc88 O107 2.105 . S
Sc89 O91 2.025 . S
Sc89 O99 2.105 . S
Sc89 O103 2.105 1_455 S
Sc89 O105 2.105 1_455 S
Sc89 O109 2.105 . S
Sc90 O91 2.025 . S
Sc90 O100 2.105 . S
Sc90 O102 2.105 1_455 S
Sc90 O106 2.105 1_455 S
Sc90 O108 2.105 . S
O91 Sc88 2.025 . S
O91 Sc89 2.025 . S
O91 Sc90 2.025 . S
C92 O98 1.268 . S
C92 O108 1.268 . S
C93 O99 1.268 . S
C93 O107 1.268 . S
C94 O100 1.268 . S
C94 O109 1.268 . S
C95 O101 1.268 . S
C95 O105 1.268 . S
C96 O102 1.268 . S
C96 O104 1.268 . S
C97 O103 1.268 . S
C97 O106 1.268 . S
O98 Sc88 2.105 . S
O98 C92 1.268 . S
O99 Sc89 2.105 . S
O99 C93 1.268 . S
O100 Sc90 2.105 . S
O100 C94 1.268 . S
O101 Sc88 2.105 1_655 S
O101 C95 1.268 . S
O102 Sc90 2.105 1_655 S
O102 C96 1.268 . S
O103 Sc89 2.105 1_655 S
O103 C97 1.268 . S
O104 Sc88 2.105 1_655 S
O104 C96 1.268 . S
O105 Sc89 2.105 1_655 S
O105 C95 1.268 . S
O106 Sc90 2.105 1_655 S
O106 C97 1.268 . S
O107 Sc88 2.105 . S
O107 C93 1.268 . S
O108 Sc90 2.105 . S
O108 C92 1.268 . S
O109 Sc89 2.105 . S
O109 C94 1.268 . S
Sc110 O113 2.025 . S
Sc110 O120 2.105 . S
Sc110 O123 2.105 . S
Sc110 O126 2.105 . S
Sc110 O129 2.105 . S
Sc111 O113 2.025 . S
Sc111 O121 2.105 . S
Sc111 O125 2.105 . S
Sc111 O127 2.105 . S
Sc111 O131 2.105 . S
Sc112 O113 2.025 . S
Sc112 O122 2.105 . S
Sc112 O124 2.105 . S
Sc112 O128 2.105 . S
Sc112 O130 2.105 . S
O113 Sc110 2.025 . S
O113 Sc111 2.025 . S
O113 Sc112 2.025 . S
C114 O120 1.268 . S
C114 O130 1.268 . S
C115 O121 1.268 . S
C115 O129 1.268 . S
C116 O122 1.268 . S
C116 O131 1.268 . S
C117 O123 1.268 . S
C117 O127 1.268 . S
C118 O124 1.268 . S
C118 O126 1.268 . S
C119 O125 1.268 . S
C119 O128 1.268 . S
O120 Sc110 2.105 . S
O120 C114 1.268 . S
O121 Sc111 2.105 . S
O121 C115 1.268 . S
O122 Sc112 2.105 . S
O122 C116 1.268 . S
O123 Sc110 2.105 . S
O123 C117 1.268 . S
O124 Sc112 2.105 . S
O124 C118 1.268 . S
O125 Sc111 2.105 . S
O125 C119 1.268 . S
O126 Sc110 2.105 . S
O126 C118 1.268 . S
O127 Sc111 2.105 . S
O127 C117 1.268 . S
O128 Sc112 2.105 . S
O128 C119 1.268 . S
O129 Sc110 2.105 . S
O129 C115 1.268 . S
O130 Sc112 2.105 . S
O130 C114 1.268 . S
O131 Sc111 2.105 . S
O131 C116 1.268 . S
Sc132 O135 2.025 . S
Sc132 O142 2.105 1_455 S
Sc132 O145 2.105 . S
Sc132 O148 2.105 . S
Sc132 O151 2.105 1_455 S
Sc133 O135 2.025 . S
Sc133 O143 2.105 1_455 S
Sc133 O147 2.105 . S
Sc133 O149 2.105 . S
Sc133 O153 2.105 1_455 S
Sc134 O135 2.025 . S
Sc134 O144 2.105 1_455 S
Sc134 O146 2.105 . S
Sc134 O150 2.105 . S
Sc134 O152 2.105 1_455 S
O135 Sc132 2.025 . S
O135 Sc133 2.025 . S
O135 Sc134 2.025 . S
C136 O142 1.268 . S
C136 O152 1.268 . S
C137 O143 1.268 . S
C137 O151 1.268 . S
C138 O144 1.268 . S
C138 O153 1.268 . S
C139 O145 1.268 . S
C139 O149 1.268 . S
C140 O146 1.268 . S
C140 O148 1.268 . S
C141 O147 1.268 . S
C141 O150 1.268 . S
O142 Sc132 2.105 1_655 S
O142 C136 1.268 . S
O143 Sc133 2.105 1_655 S
O143 C137 1.268 . S
O144 Sc134 2.105 1_655 S
O144 C138 1.268 . S
O145 Sc132 2.105 . S
O145 C139 1.268 . S
O146 Sc134 2.105 . S
O146 C140 1.268 . S
O147 Sc133 2.105 . S
O147 C141 1.268 . S
O148 Sc132 2.105 . S
O148 C140 1.268 . S
O149 Sc133 2.105 . S
O149 C139 1.268 . S
O150 Sc134 2.105 . S
O150 C141 1.268 . S
O151 Sc132 2.105 1_655 S
O151 C137 1.268 . S
O152 Sc134 2.105 1_655 S
O152 C136 1.268 . S
O153 Sc133 2.105 1_655 S
O153 C138 1.268 . S
Sc154 O157 2.025 . S
Sc154 O164 2.105 . S
Sc154 O167 2.105 . S
Sc154 O170 2.105 . S
Sc154 O173 2.105 . S
Sc155 O157 2.025 . S
Sc155 O165 2.105 . S
Sc155 O169 2.105 . S
Sc155 O171 2.105 . S
Sc155 O175 2.105 . S
Sc156 O157 2.025 . S
Sc156 O166 2.105 . S
Sc156 O168 2.105 . S
Sc156 O172 2.105 . S
Sc156 O174 2.105 . S
O157 Sc154 2.025 . S
O157 Sc155 2.025 . S
O157 Sc156 2.025 . S
C158 O164 1.268 . S
C158 O174 1.268 . S
C159 O165 1.268 . S
C159 O173 1.268 . S
C160 O166 1.268 . S
C160 O175 1.268 . S
C161 O167 1.268 . S
C161 O171 1.268 . S
C162 O168 1.268 . S
C162 O170 1.268 . S
C163 O169 1.268 . S
C163 O172 1.268 . S
O164 Sc154 2.105 . S
O164 C158 1.268 . S
O165 Sc155 2.105 . S
O165 C159 1.268 . S
O166 Sc156 2.105 . S
O166 C160 1.268 . S
O167 Sc154 2.105 . S
O167 C161 1.268 . S
O168 Sc156 2.105 . S
O168 C162 1.268 . S
O169 Sc155 2.105 . S
O169 C163 1.268 . S
O170 Sc154 2.105 . S
O170 C162 1.268 . S
O171 Sc155 2.105 . S
O171 C161 1.268 . S
O172 Sc156 2.105 . S
O172 C163 1.268 . S
O173 Sc154 2.105 . S
O173 C159 1.268 . S
O174 Sc156 2.105 . S
O174 C158 1.268 . S
O175 Sc155 2.105 . S
O175 C160 1.268 . S
Sc176 O179 2.025 . S
Sc176 O186 2.105 1_545 S
Sc176 O189 2.105 . S
Sc176 O192 2.105 . S
Sc176 O195 2.105 1_545 S
Sc177 O179 2.025 . S
Sc177 O187 2.105 1_545 S
Sc177 O191 2.105 . S
Sc177 O193 2.105 . S
Sc177 O197 2.105 1_545 S
Sc178 O179 2.025 . S
Sc178 O188 2.105 1_545 S
Sc178 O190 2.105 . S
Sc178 O194 2.105 . S
Sc178 O196 2.105 1_545 S
O179 Sc176 2.025 . S
O179 Sc177 2.025 . S
O179 Sc178 2.025 . S
C180 O186 1.268 . S
C180 O196 1.268 . S
C181 O187 1.268 . S
C181 O195 1.268 . S
C182 O188 1.268 . S
C182 O197 1.268 . S
C183 O189 1.268 . S
C183 O193 1.268 . S
C184 O190 1.268 . S
C184 O192 1.268 . S
C185 O191 1.268 . S
C185 O194 1.268 . S
O186 Sc176 2.105 1_565 S
O186 C180 1.268 . S
O187 Sc177 2.105 1_565 S
O187 C181 1.268 . S
O188 Sc178 2.105 1_565 S
O188 C182 1.268 . S
O189 Sc176 2.105 . S
O189 C183 1.268 . S
O190 Sc178 2.105 . S
O190 C184 1.268 . S
O191 Sc177 2.105 . S
O191 C185 1.268 . S
O192 Sc176 2.105 . S
O192 C184 1.268 . S
O193 Sc177 2.105 . S
O193 C183 1.268 . S
O194 Sc178 2.105 . S
O194 C185 1.268 . S
O195 Sc176 2.105 1_565 S
O195 C181 1.268 . S
O196 Sc178 2.105 1_565 S
O196 C180 1.268 . S
O197 Sc177 2.105 1_565 S
O197 C182 1.268 . S
Sc198 O201 2.025 . S
Sc198 O208 2.105 . S
Sc198 O211 2.105 . S
Sc198 O214 2.105 . S
Sc198 O217 2.105 . S
Sc199 O201 2.025 . S
Sc199 O209 2.105 . S
Sc199 O213 2.105 . S
Sc199 O215 2.105 . S
Sc199 O219 2.105 . S
Sc200 O201 2.025 . S
Sc200 O210 2.105 . S
Sc200 O212 2.105 . S
Sc200 O216 2.105 . S
Sc200 O218 2.105 . S
O201 Sc198 2.025 . S
O201 Sc199 2.025 . S
O201 Sc200 2.025 . S
C202 O208 1.268 . S
C202 O218 1.268 . S
C203 O209 1.268 . S
C203 O217 1.268 . S
C204 O210 1.268 . S
C204 O219 1.268 . S
C205 O211 1.268 . S
C205 O215 1.268 . S
C206 O212 1.268 . S
C206 O214 1.268 . S
C207 O213 1.268 . S
C207 O216 1.268 . S
O208 Sc198 2.105 . S
O208 C202 1.268 . S
O209 Sc199 2.105 . S
O209 C203 1.268 . S
O210 Sc200 2.105 . S
O210 C204 1.268 . S
O211 Sc198 2.105 . S
O211 C205 1.268 . S
O212 Sc200 2.105 . S
O212 C206 1.268 . S
O213 Sc199 2.105 . S
O213 C207 1.268 . S
O214 Sc198 2.105 . S
O214 C206 1.268 . S
O215 Sc199 2.105 . S
O215 C205 1.268 . S
O216 Sc200 2.105 . S
O216 C207 1.268 . S
O217 Sc198 2.105 . S
O217 C203 1.268 . S
O218 Sc200 2.105 . S
O218 C202 1.268 . S
O219 Sc199 2.105 . S
O219 C204 1.268 . S
Sc220 O223 2.025 . S
Sc220 O230 2.105 1_545 S
Sc220 O233 2.105 . S
Sc220 O236 2.105 . S
Sc220 O239 2.105 1_545 S
Sc221 O223 2.025 . S
Sc221 O231 2.105 1_545 S
Sc221 O235 2.105 . S
Sc221 O237 2.105 . S
Sc221 O241 2.105 1_545 S
Sc222 O223 2.025 . S
Sc222 O232 2.105 1_545 S
Sc222 O234 2.105 . S
Sc222 O238 2.105 . S
Sc222 O240 2.105 1_545 S
O223 Sc220 2.025 . S
O223 Sc221 2.025 . S
O223 Sc222 2.025 . S
C224 O230 1.268 . S
C224 O240 1.268 . S
C225 O231 1.268 . S
C225 O239 1.268 . S
C226 O232 1.268 . S
C226 O241 1.268 . S
C227 O233 1.268 . S
C227 O237 1.268 . S
C228 O234 1.268 . S
C228 O236 1.268 . S
C229 O235 1.268 . S
C229 O238 1.268 . S
O230 Sc220 2.105 1_565 S
O230 C224 1.268 . S
O231 Sc221 2.105 1_565 S
O231 C225 1.268 . S
O232 Sc222 2.105 1_565 S
O232 C226 1.268 . S
O233 Sc220 2.105 . S
O233 C227 1.268 . S
O234 Sc222 2.105 . S
O234 C228 1.268 . S
O235 Sc221 2.105 . S
O235 C229 1.268 . S
O236 Sc220 2.105 . S
O236 C228 1.268 . S
O237 Sc221 2.105 . S
O237 C227 1.268 . S
O238 Sc222 2.105 . S
O238 C229 1.268 . S
O239 Sc220 2.105 1_565 S
O239 C225 1.268 . S
O240 Sc222 2.105 1_565 S
O240 C224 1.268 . S
O241 Sc221 2.105 1_565 S
O241 C226 1.268 . S
Sc242 O245 2.025 . S
Sc242 O252 2.105 . S
Sc242 O255 2.105 . S
Sc242 O258 2.105 . S
Sc242 O261 2.105 . S
Sc243 O245 2.025 . S
Sc243 O253 2.105 . S
Sc243 O257 2.105 . S
Sc243 O259 2.105 . S
Sc243 O263 2.105 . S
Sc244 O245 2.025 . S
Sc244 O254 2.105 . S
Sc244 O256 2.105 . S
Sc244 O260 2.105 . S
Sc244 O262 2.105 . S
O245 Sc242 2.025 . S
O245 Sc243 2.025 . S
O245 Sc244 2.025 . S
C246 O252 1.268 . S
C246 O262 1.268 . S
C247 O253 1.268 . S
C247 O261 1.268 . S
C248 O254 1.268 . S
C248 O263 1.268 . S
C249 O255 1.268 . S
C249 O259 1.268 . S
C250 O256 1.268 . S
C250 O258 1.268 . S
C251 O257 1.268 . S
C251 O260 1.268 . S
O252 Sc242 2.105 . S
O252 C246 1.268 . S
O253 Sc243 2.105 . S
O253 C247 1.268 . S
O254 Sc244 2.105 . S
O254 C248 1.268 . S
O255 Sc242 2.105 . S
O255 C249 1.268 . S
O256 Sc244 2.105 . S
O256 C250 1.268 . S
O257 Sc243 2.105 . S
O257 C251 1.268 . S
O258 Sc242 2.105 . S
O258 C250 1.268 . S
O259 Sc243 2.105 . S
O259 C249 1.268 . S
O260 Sc244 2.105 . S
O260 C251 1.268 . S
O261 Sc242 2.105 . S
O261 C247 1.268 . S
O262 Sc244 2.105 . S
O262 C246 1.268 . S
O263 Sc243 2.105 . S
O263 C248 1.268 . S
Sc264 O267 2.025 . S
Sc264 O274 2.105 1_545 S
Sc264 O277 2.105 . S
Sc264 O280 2.105 . S
Sc264 O283 2.105 1_545 S
Sc265 O267 2.025 . S
Sc265 O275 2.105 1_545 S
Sc265 O279 2.105 . S
Sc265 O281 2.105 . S
Sc265 O285 2.105 1_545 S
Sc266 O267 2.025 . S
Sc266 O276 2.105 1_545 S
Sc266 O278 2.105 . S
Sc266 O282 2.105 . S
Sc266 O284 2.105 1_545 S
O267 Sc264 2.025 . S
O267 Sc265 2.025 . S
O267 Sc266 2.025 . S
C268 O274 1.268 . S
C268 O284 1.268 . S
C269 O275 1.268 . S
C269 O283 1.268 . S
C270 O276 1.268 . S
C270 O285 1.268 . S
C271 O277 1.268 . S
C271 O281 1.268 . S
C272 O278 1.268 . S
C272 O280 1.268 . S
C273 O279 1.268 . S
C273 O282 1.268 . S
O274 Sc264 2.105 1_565 S
O274 C268 1.268 . S
O275 Sc265 2.105 1_565 S
O275 C269 1.268 . S
O276 Sc266 2.105 1_565 S
O276 C270 1.268 . S
O277 Sc264 2.105 . S
O277 C271 1.268 . S
O278 Sc266 2.105 . S
O278 C272 1.268 . S
O279 Sc265 2.105 . S
O279 C273 1.268 . S
O280 Sc264 2.105 . S
O280 C272 1.268 . S
O281 Sc265 2.105 . S
O281 C271 1.268 . S
O282 Sc266 2.105 . S
O282 C273 1.268 . S
O283 Sc264 2.105 1_565 S
O283 C269 1.268 . S
O284 Sc266 2.105 1_565 S
O284 C268 1.268 . S
O285 Sc265 2.105 1_565 S
O285 C270 1.268 . S
Sc286 O289 2.025 . S
Sc286 O296 2.105 . S
Sc286 O299 2.105 . S
Sc286 O302 2.105 . S
Sc286 O305 2.105 . S
Sc287 O289 2.025 . S
Sc287 O297 2.105 . S
Sc287 O301 2.105 . S
Sc287 O303 2.105 . S
Sc287 O307 2.105 . S
Sc288 O289 2.025 . S
Sc288 O298 2.105 . S
Sc288 O300 2.105 . S
Sc288 O304 2.105 . S
Sc288 O306 2.105 . S
O289 Sc286 2.025 . S
O289 Sc287 2.025 . S
O289 Sc288 2.025 . S
C290 O296 1.268 . S
C290 O306 1.268 . S
C291 O297 1.268 . S
C291 O305 1.268 . S
C292 O298 1.268 . S
C292 O307 1.268 . S
C293 O299 1.268 . S
C293 O303 1.268 . S
C294 O300 1.268 . S
C294 O302 1.268 . S
C295 O301 1.268 . S
C295 O304 1.268 . S
O296 Sc286 2.105 . S
O296 C290 1.268 . S
O297 Sc287 2.105 . S
O297 C291 1.268 . S
O298 Sc288 2.105 . S
O298 C292 1.268 . S
O299 Sc286 2.105 . S
O299 C293 1.268 . S
O300 Sc288 2.105 . S
O300 C294 1.268 . S
O301 Sc287 2.105 . S
O301 C295 1.268 . S
O302 Sc286 2.105 . S
O302 C294 1.268 . S
O303 Sc287 2.105 . S
O303 C293 1.268 . S
O304 Sc288 2.105 . S
O304 C295 1.268 . S
O305 Sc286 2.105 . S
O305 C291 1.268 . S
O306 Sc288 2.105 . S
O306 C290 1.268 . S
O307 Sc287 2.105 . S
O307 C292 1.268 . S
Sc308 O311 2.025 . S
Sc308 O318 2.105 1_545 S
Sc308 O321 2.105 . S
Sc308 O324 2.105 . S
Sc308 O327 2.105 1_545 S
Sc309 O311 2.025 . S
Sc309 O319 2.105 1_545 S
Sc309 O323 2.105 . S
Sc309 O325 2.105 . S
Sc309 O329 2.105 1_545 S
Sc310 O311 2.025 . S
Sc310 O320 2.105 1_545 S
Sc310 O322 2.105 . S
Sc310 O326 2.105 . S
Sc310 O328 2.105 1_545 S
O311 Sc308 2.025 . S
O311 Sc309 2.025 . S
O311 Sc310 2.025 . S
C312 O318 1.268 . S
C312 O328 1.268 . S
C313 O319 1.268 . S
C313 O327 1.268 . S
C314 O320 1.268 . S
C314 O329 1.268 . S
C315 O321 1.268 . S
C315 O325 1.268 . S
C316 O322 1.268 . S
C316 O324 1.268 . S
C317 O323 1.268 . S
C317 O326 1.268 . S
O318 Sc308 2.105 1_565 S
O318 C312 1.268 . S
O319 Sc309 2.105 1_565 S
O319 C313 1.268 . S
O320 Sc310 2.105 1_565 S
O320 C314 1.268 . S
O321 Sc308 2.105 . S
O321 C315 1.268 . S
O322 Sc310 2.105 . S
O322 C316 1.268 . S
O323 Sc309 2.105 . S
O323 C317 1.268 . S
O324 Sc308 2.105 . S
O324 C316 1.268 . S
O325 Sc309 2.105 . S
O325 C315 1.268 . S
O326 Sc310 2.105 . S
O326 C317 1.268 . S
O327 Sc308 2.105 1_565 S
O327 C313 1.268 . S
O328 Sc310 2.105 1_565 S
O328 C312 1.268 . S
O329 Sc309 2.105 1_565 S
O329 C314 1.268 . S
Sc330 O333 2.025 . S
Sc330 O340 2.105 . S
Sc330 O343 2.105 . S
Sc330 O346 2.105 . S
Sc330 O349 2.105 . S
Sc331 O333 2.025 . S
Sc331 O341 2.105 . S
Sc331 O345 2.105 . S
Sc331 O347 2.105 . S
Sc331 O351 2.105 . S
Sc332 O333 2.025 . S
Sc332 O342 2.105 . S
Sc332 O344 2.105 . S
Sc332 O348 2.105 . S
Sc332 O350 2.105 . S
O333 Sc330 2.025 . S
O333 Sc331 2.025 . S
O333 Sc332 2.025 . S
C334 O340 1.268 . S
C334 O350 1.268 . S
C335 O341 1.268 . S
C335 O349 1.268 . S
C336 O342 1.268 . S
C336 O351 1.268 . S
C337 O343 1.268 . S
C337 O347 1.268 . S
C338 O344 1.268 . S
C338 O346 1.268 . S
C339 O345 1.268 . S
C339 O348 1.268 . S
O340 Sc330 2.105 . S
O340 C334 1.268 . S
O341 Sc331 2.105 . S
O341 C335 1.268 . S
O342 Sc332 2.105 . S
O342 C336 1.268 . S
O343 Sc330 2.105 . S
O343 C337 1.268 . S
O344 Sc332 2.105 . S
O344 C338 1.268 . S
O345 Sc331 2.105 . S
O345 C339 1.268 . S
O346 Sc330 2.105 . S
O346 C338 1.268 . S
O347 Sc331 2.105 . S
O347 C337 1.268 . S
O348 Sc332 2.105 . S
O348 C339 1.268 . S
O349 Sc330 2.105 . S
O349 C335 1.268 . S
O350 Sc332 2.105 . S
O350 C334 1.268 . S
O351 Sc331 2.105 . S
O351 C336 1.268 . S
Sc352 O355 2.025 . S
Sc352 O362 2.105 1_554 S
Sc352 O365 2.105 . S
Sc352 O368 2.105 . S
Sc352 O371 2.105 1_554 S
Sc353 O355 2.025 . S
Sc353 O363 2.105 1_554 S
Sc353 O367 2.105 . S
Sc353 O369 2.105 . S
Sc353 O373 2.105 1_554 S
Sc354 O355 2.025 . S
Sc354 O364 2.105 1_554 S
Sc354 O366 2.105 . S
Sc354 O370 2.105 . S
Sc354 O372 2.105 1_554 S
O355 Sc352 2.025 . S
O355 Sc353 2.025 . S
O355 Sc354 2.025 . S
C356 O362 1.268 . S
C356 O372 1.268 . S
C357 O363 1.268 . S
C357 O371 1.268 . S
C358 O364 1.268 . S
C358 O373 1.268 . S
C359 O365 1.268 . S
C359 O369 1.268 . S
C360 O366 1.268 . S
C360 O368 1.268 . S
C361 O367 1.268 . S
C361 O370 1.268 . S
O362 Sc352 2.105 1_556 S
O362 C356 1.268 . S
O363 Sc353 2.105 1_556 S
O363 C357 1.268 . S
O364 Sc354 2.105 1_556 S
O364 C358 1.268 . S
O365 Sc352 2.105 . S
O365 C359 1.268 . S
O366 Sc354 2.105 . S
O366 C360 1.268 . S
O367 Sc353 2.105 . S
O367 C361 1.268 . S
O368 Sc352 2.105 . S
O368 C360 1.268 . S
O369 Sc353 2.105 . S
O369 C359 1.268 . S
O370 Sc354 2.105 . S
O370 C361 1.268 . S
O371 Sc352 2.105 1_556 S
O371 C357 1.268 . S
O372 Sc354 2.105 1_556 S
O372 C356 1.268 . S
O373 Sc353 2.105 1_556 S
O373 C358 1.268 . S
Sc374 O377 2.025 . S
Sc374 O384 2.105 1_554 S
Sc374 O387 2.105 . S
Sc374 O390 2.105 . S
Sc374 O393 2.105 1_554 S
Sc375 O377 2.025 . S
Sc375 O385 2.105 1_554 S
Sc375 O389 2.105 . S
Sc375 O391 2.105 . S
Sc375 O395 2.105 1_554 S
Sc376 O377 2.025 . S
Sc376 O386 2.105 1_554 S
Sc376 O388 2.105 . S
Sc376 O392 2.105 . S
Sc376 O394 2.105 1_554 S
O377 Sc374 2.025 . S
O377 Sc375 2.025 . S
O377 Sc376 2.025 . S
C378 O384 1.268 . S
C378 O394 1.268 . S
C379 O385 1.268 . S
C379 O393 1.268 . S
C380 O386 1.268 . S
C380 O395 1.268 . S
C381 O387 1.268 . S
C381 O391 1.268 . S
C382 O388 1.268 . S
C382 O390 1.268 . S
C383 O389 1.268 . S
C383 O392 1.268 . S
O384 Sc374 2.105 1_556 S
O384 C378 1.268 . S
O385 Sc375 2.105 1_556 S
O385 C379 1.268 . S
O386 Sc376 2.105 1_556 S
O386 C380 1.268 . S
O387 Sc374 2.105 . S
O387 C381 1.268 . S
O388 Sc376 2.105 . S
O388 C382 1.268 . S
O389 Sc375 2.105 . S
O389 C383 1.268 . S
O390 Sc374 2.105 . S
O390 C382 1.268 . S
O391 Sc375 2.105 . S
O391 C381 1.268 . S
O392 Sc376 2.105 . S
O392 C383 1.268 . S
O393 Sc374 2.105 1_556 S
O393 C379 1.268 . S
O394 Sc376 2.105 1_556 S
O394 C378 1.268 . S
O395 Sc375 2.105 1_556 S
O395 C380 1.268 . S
Sc396 O399 2.025 . S
Sc396 O406 2.105 . S
Sc396 O409 2.105 . S
Sc396 O412 2.105 . S
Sc396 O415 2.105 . S
Sc397 O399 2.025 . S
Sc397 O407 2.105 . S
Sc397 O411 2.105 . S
Sc397 O413 2.105 . S
Sc397 O417 2.105 . S
Sc398 O399 2.025 . S
Sc398 O408 2.105 . S
Sc398 O410 2.105 . S
Sc398 O414 2.105 . S
Sc398 O416 2.105 . S
O399 Sc396 2.025 . S
O399 Sc397 2.025 . S
O399 Sc398 2.025 . S
C400 O406 1.268 . S
C400 O416 1.268 . S
C401 O407 1.268 . S
C401 O415 1.268 . S
C402 O408 1.268 . S
C402 O417 1.268 . S
C403 O409 1.268 . S
C403 O413 1.268 . S
C404 O410 1.268 . S
C404 O412 1.268 . S
C405 O411 1.268 . S
C405 O414 1.268 . S
O406 Sc396 2.105 . S
O406 C400 1.268 . S
O407 Sc397 2.105 . S
O407 C401 1.268 . S
O408 Sc398 2.105 . S
O408 C402 1.268 . S
O409 Sc396 2.105 . S
O409 C403 1.268 . S
O410 Sc398 2.105 . S
O410 C404 1.268 . S
O411 Sc397 2.105 . S
O411 C405 1.268 . S
O412 Sc396 2.105 . S
O412 C404 1.268 . S
O413 Sc397 2.105 . S
O413 C403 1.268 . S
O414 Sc398 2.105 . S
O414 C405 1.268 . S
O415 Sc396 2.105 . S
O415 C401 1.268 . S
O416 Sc398 2.105 . S
O416 C400 1.268 . S
O417 Sc397 2.105 . S
O417 C402 1.268 . S
Sc418 O421 2.025 . S
Sc418 O428 2.105 1_554 S
Sc418 O431 2.105 . S
Sc418 O434 2.105 . S
Sc418 O437 2.105 1_554 S
Sc419 O421 2.025 . S
Sc419 O429 2.105 1_554 S
Sc419 O433 2.105 . S
Sc419 O435 2.105 . S
Sc419 O439 2.105 1_554 S
Sc420 O421 2.025 . S
Sc420 O430 2.105 1_554 S
Sc420 O432 2.105 . S
Sc420 O436 2.105 . S
Sc420 O438 2.105 1_554 S
O421 Sc418 2.025 . S
O421 Sc419 2.025 . S
O421 Sc420 2.025 . S
C422 O428 1.268 . S
C422 O438 1.268 . S
C423 O429 1.268 . S
C423 O437 1.268 . S
C424 O430 1.268 . S
C424 O439 1.268 . S
C425 O431 1.268 . S
C425 O435 1.268 . S
C426 O432 1.268 . S
C426 O434 1.268 . S
C427 O433 1.268 . S
C427 O436 1.268 . S
O428 Sc418 2.105 1_556 S
O428 C422 1.268 . S
O429 Sc419 2.105 1_556 S
O429 C423 1.268 . S
O430 Sc420 2.105 1_556 S
O430 C424 1.268 . S
O431 Sc418 2.105 . S
O431 C425 1.268 . S
O432 Sc420 2.105 . S
O432 C426 1.268 . S
O433 Sc419 2.105 . S
O433 C427 1.268 . S
O434 Sc418 2.105 . S
O434 C426 1.268 . S
O435 Sc419 2.105 . S
O435 C425 1.268 . S
O436 Sc420 2.105 . S
O436 C427 1.268 . S
O437 Sc418 2.105 1_556 S
O437 C423 1.268 . S
O438 Sc420 2.105 1_556 S
O438 C422 1.268 . S
O439 Sc419 2.105 1_556 S
O439 C424 1.268 . S
Sc440 O443 2.025 . S
Sc440 O450 2.105 . S
Sc440 O453 2.105 . S
Sc440 O456 2.105 . S
Sc440 O459 2.105 . S
Sc441 O443 2.025 . S
Sc441 O451 2.105 . S
Sc441 O455 2.105 . S
Sc441 O457 2.105 . S
Sc441 O461 2.105 . S
Sc442 O443 2.025 . S
Sc442 O452 2.105 . S
Sc442 O454 2.105 . S
Sc442 O458 2.105 . S
Sc442 O460 2.105 . S
O443 Sc440 2.025 . S
O443 Sc441 2.025 . S
O443 Sc442 2.025 . S
C444 O450 1.268 . S
C444 O460 1.268 . S
C445 O451 1.268 . S
C445 O459 1.268 . S
C446 O452 1.268 . S
C446 O461 1.268 . S
C447 O453 1.268 . S
C447 O457 1.268 . S
C448 O454 1.268 . S
C448 O456 1.268 . S
C449 O455 1.268 . S
C449 O458 1.268 . S
O450 Sc440 2.105 . S
O450 C444 1.268 . S
O451 Sc441 2.105 . S
O451 C445 1.268 . S
O452 Sc442 2.105 . S
O452 C446 1.268 . S
O453 Sc440 2.105 . S
O453 C447 1.268 . S
O454 Sc442 2.105 . S
O454 C448 1.268 . S
O455 Sc441 2.105 . S
O455 C449 1.268 . S
O456 Sc440 2.105 . S
O456 C448 1.268 . S
O457 Sc441 2.105 . S
O457 C447 1.268 . S
O458 Sc442 2.105 . S
O458 C449 1.268 . S
O459 Sc440 2.105 . S
O459 C445 1.268 . S
O460 Sc442 2.105 . S
O460 C444 1.268 . S
O461 Sc441 2.105 . S
O461 C446 1.268 . S
Sc462 O465 2.025 . S
Sc462 O472 2.105 1_554 S
Sc462 O475 2.105 . S
Sc462 O478 2.105 . S
Sc462 O481 2.105 1_554 S
Sc463 O465 2.025 . S
Sc463 O473 2.105 1_554 S
Sc463 O477 2.105 . S
Sc463 O479 2.105 . S
Sc463 O483 2.105 1_554 S
Sc464 O465 2.025 . S
Sc464 O474 2.105 1_554 S
Sc464 O476 2.105 . S
Sc464 O480 2.105 . S
Sc464 O482 2.105 1_554 S
O465 Sc462 2.025 . S
O465 Sc463 2.025 . S
O465 Sc464 2.025 . S
C466 O472 1.268 . S
C466 O482 1.268 . S
C467 O473 1.268 . S
C467 O481 1.268 . S
C468 O474 1.268 . S
C468 O483 1.268 . S
C469 O475 1.268 . S
C469 O479 1.268 . S
C470 O476 1.268 . S
C470 O478 1.268 . S
C471 O477 1.268 . S
C471 O480 1.268 . S
O472 Sc462 2.105 1_556 S
O472 C466 1.268 . S
O473 Sc463 2.105 1_556 S
O473 C467 1.268 . S
O474 Sc464 2.105 1_556 S
O474 C468 1.268 . S
O475 Sc462 2.105 . S
O475 C469 1.268 . S
O476 Sc464 2.105 . S
O476 C470 1.268 . S
O477 Sc463 2.105 . S
O477 C471 1.268 . S
O478 Sc462 2.105 . S
O478 C470 1.268 . S
O479 Sc463 2.105 . S
O479 C469 1.268 . S
O480 Sc464 2.105 . S
O480 C471 1.268 . S
O481 Sc462 2.105 1_556 S
O481 C467 1.268 . S
O482 Sc464 2.105 1_556 S
O482 C466 1.268 . S
O483 Sc463 2.105 1_556 S
O483 C468 1.268 . S
Sc484 O487 2.025 . S
Sc484 O494 2.105 . S
Sc484 O497 2.105 . S
Sc484 O500 2.105 . S
Sc484 O503 2.105 . S
Sc485 O487 2.025 . S
Sc485 O495 2.105 . S
Sc485 O499 2.105 . S
Sc485 O501 2.105 . S
Sc485 O505 2.105 . S
Sc486 O487 2.025 . S
Sc486 O496 2.105 . S
Sc486 O498 2.105 . S
Sc486 O502 2.105 . S
Sc486 O504 2.105 . S
O487 Sc484 2.025 . S
O487 Sc485 2.025 . S
O487 Sc486 2.025 . S
C488 O494 1.268 . S
C488 O504 1.268 . S
C489 O495 1.268 . S
C489 O503 1.268 . S
C490 O496 1.268 . S
C490 O505 1.268 . S
C491 O497 1.268 . S
C491 O501 1.268 . S
C492 O498 1.268 . S
C492 O500 1.268 . S
C493 O499 1.268 . S
C493 O502 1.268 . S
O494 Sc484 2.105 . S
O494 C488 1.268 . S
O495 Sc485 2.105 . S
O495 C489 1.268 . S
O496 Sc486 2.105 . S
O496 C490 1.268 . S
O497 Sc484 2.105 . S
O497 C491 1.268 . S
O498 Sc486 2.105 . S
O498 C492 1.268 . S
O499 Sc485 2.105 . S
O499 C493 1.268 . S
O500 Sc484 2.105 . S
O500 C492 1.268 . S
O501 Sc485 2.105 . S
O501 C491 1.268 . S
O502 Sc486 2.105 . S
O502 C493 1.268 . S
O503 Sc484 2.105 . S
O503 C489 1.268 . S
O504 Sc486 2.105 . S
O504 C488 1.268 . S
O505 Sc485 2.105 . S
O505 C490 1.268 . S
Sc506 O509 2.025 . S
Sc506 O516 2.105 . S
Sc506 O519 2.105 . S
Sc506 O522 2.105 . S
Sc506 O525 2.105 . S
Sc507 O509 2.025 . S
Sc507 O517 2.105 . S
Sc507 O521 2.105 . S
Sc507 O523 2.105 . S
Sc507 O527 2.105 . S
Sc508 O509 2.025 . S
Sc508 O518 2.105 . S
Sc508 O520 2.105 . S
Sc508 O524 2.105 . S
Sc508 O526 2.105 . S
O509 Sc506 2.025 . S
O509 Sc507 2.025 . S
O509 Sc508 2.025 . S
C510 O516 1.268 . S
C510 O526 1.268 . S
C511 O517 1.268 . S
C511 O525 1.268 . S
C512 O518 1.268 . S
C512 O527 1.268 . S
C513 O519 1.268 . S
C513 O523 1.268 . S
C514 O520 1.268 . S
C514 O522 1.268 . S
C515 O521 1.268 . S
C515 O524 1.268 . S
O516 Sc506 2.105 . S
O516 C510 1.268 . S
O517 Sc507 2.105 . S
O517 C511 1.268 . S
O518 Sc508 2.105 . S
O518 C512 1.268 . S
O519 Sc506 2.105 . S
O519 C513 1.268 . S
O520 Sc508 2.105 . S
O520 C514 1.268 . S
O521 Sc507 2.105 . S
O521 C515 1.268 . S
O522 Sc506 2.105 . S
O522 C514 1.268 . S
O523 Sc507 2.105 . S
O523 C513 1.268 . S
O524 Sc508 2.105 . S
O524 C515 1.268 . S
O525 Sc506 2.105 . S
O525 C511 1.268 . S
O526 Sc508 2.105 . S
O526 C510 1.268 . S
O527 Sc507 2.105 . S
O527 C512 1.268 . S
C7 C360 1.625 . S
C29 C514 1.628 . S
C470 C51 1.626 . S
C72 C492 1.628 . S
C94 C378 1.630 . S
C117 C400 1.628 . S
C138 C422 1.630 . S
C160 C444 1.628 . S
C183 C8 1.625 . S
C204 C30 1.628 . S
C52 C226 1.630 . S
C70 C249 1.628 . S
C270 C92 1.626 . S
C293 C118 1.628 . S
C315 C136 1.630 . S
C336 C158 1.628 . S
C359 C184 1.625 . S
C380 C268 1.630 . S
C294 C402 1.628 . S
C424 C316 1.626 . S
C446 C334 1.628 . S
C469 C224 1.630 . S
C250 C491 1.628 . S
C513 C202 1.628 . S
C466 C97 1.630 . S
C488 C115 1.628 . S
C141 C356 1.630 . S
C163 C510 1.628 . S
C426 C5 1.626 . S
C27 C448 1.628 . S
C382 C49 1.625 . S
C75 C404 1.628 . S
C313 C96 1.630 . S
C339 C114 1.628 . S
C273 C140 1.625 . S
C162 C291 1.628 . S
C229 C4 1.630 . S
C247 C26 1.628 . S
C181 C48 1.626 . S
C207 C74 1.628 . S
C312 C467 1.630 . S
C427 C228 1.625 . S
C246 C449 1.628 . S
C383 C180 1.630 . S
C405 C206 1.628 . S
C357 C272 1.626 . S
C511 C290 1.628 . S
C338 C489 1.628 . S
C445 C9 1.927 . S
C379 C31 1.929 . S
C53 C401 1.929 . S
C71 C423 1.929 . S
C515 C93 1.927 . S
C119 C471 1.927 . S
C493 C137 1.929 . S
C159 C361 1.927 . S
C185 C335 1.927 . S
C269 C203 1.929 . S
C225 C295 1.929 . S
C317 C251 1.927 . S
C403 C95 1.929 . S
C425 C116 1.927 . S
C139 C447 1.927 . S
C161 C381 1.927 . S
C490 C6 1.929 . S
C358 C28 1.929 . S
C512 C50 1.927 . S
C73 C468 1.929 . S
C205 C314 1.929 . S
C337 C227 1.927 . S
C271 C248 1.927 . S
C292 C182 1.929 . S
