# Generated by pormake.
# Topology umw, (4)-cn, num edge types: 1
# Building blocks:
#     Node 0, Type 0, BuildingBlock: KUFVIS_clean_sbu_0, # of connection points: 4
#     Node 1, Type 0, BuildingBlock: KUFVIS_clean_sbu_0, # of connection points: 4
#     Node 2, Type 0, BuildingBlock: KUFVIS_clean_sbu_0, # of connection points: 4
#     Node 3, Type 0, BuildingBlock: KUFVIS_clean_sbu_0, # of connection points: 4
#     Node 4, Type 0, BuildingBlock: KUFVIS_clean_sbu_0, # of connection points: 4
#     Node 5, Type 0, BuildingBlock: KUFVIS_clean_sbu_0, # of connection points: 4
#     Node 6, Type 0, BuildingBlock: KUFVIS_clean_sbu_0, # of connection points: 4
#     Node 7, Type 0, BuildingBlock: KUFVIS_clean_sbu_0, # of connection points: 4
#     Edge 8, Type (0, 0), BuildingBlock: MIFKUJ_clean_linker_0, # of connection points: 2
#     Edge 9, Type (0, 0), BuildingBlock: MIFKUJ_clean_linker_0, # of connection points: 2
#     Edge 10, Type (0, 0), BuildingBlock: MIFKUJ_clean_linker_0, # of connection points: 2
#     Edge 11, Type (0, 0), BuildingBlock: MIFKUJ_clean_linker_0, # of connection points: 2
#     Edge 12, Type (0, 0), BuildingBlock: MIFKUJ_clean_linker_0, # of connection points: 2
#     Edge 13, Type (0, 0), BuildingBlock: MIFKUJ_clean_linker_0, # of connection points: 2
#     Edge 14, Type (0, 0), BuildingBlock: MIFKUJ_clean_linker_0, # of connection points: 2
#     Edge 15, Type (0, 0), BuildingBlock: MIFKUJ_clean_linker_0, # of connection points: 2
#     Edge 16, Type (0, 0), BuildingBlock: MIFKUJ_clean_linker_0, # of connection points: 2
#     Edge 17, Type (0, 0), BuildingBlock: MIFKUJ_clean_linker_0, # of connection points: 2
#     Edge 18, Type (0, 0), BuildingBlock: MIFKUJ_clean_linker_0, # of connection points: 2
#     Edge 19, Type (0, 0), BuildingBlock: MIFKUJ_clean_linker_0, # of connection points: 2
#     Edge 20, Type (0, 0), BuildingBlock: MIFKUJ_clean_linker_0, # of connection points: 2
#     Edge 21, Type (0, 0), BuildingBlock: MIFKUJ_clean_linker_0, # of connection points: 2
#     Edge 22, Type (0, 0), BuildingBlock: MIFKUJ_clean_linker_0, # of connection points: 2
#     Edge 23, Type (0, 0), BuildingBlock: MIFKUJ_clean_linker_0, # of connection points: 2
# Relax obj value: 0.135
# Max RMSD: 0.105
# Mean RMSD: 0.105
data_MOF--net-umw--node1-KUFVIS_clean_sbu_0--edge1-MIFKUJ_clean_linker_0
_symmetry_space_group_name_H-M    P1
_symmetry_Int_Tables_number       1
_symmetry_cell_setting            triclinic
loop_
_symmetry_equiv_pos_as_xyz
'x, y, z'
_cell_length_a     54.381855
_cell_length_b     54.411212
_cell_length_c     32.455276
_cell_angle_alpha  89.962562
_cell_angle_beta   90.023776
_cell_angle_gamma 89.932669
loop_
_atom_site_label
_atom_site_type_symbol
_atom_site_fract_x
_atom_site_fract_y
_atom_site_fract_z
_atom_type_partial_charge
Mn0 Mn 0.41006 0.17726 0.3056 0.0
Mn1 Mn 0.46526 0.15352 0.27735 0.0
C2 C 0.43888 0.16651 0.35526 0.0
C3 C 0.38353 0.20978 0.32257 0.0
C4 C 0.41836 0.12367 0.27893 0.0
O5 O 0.41236 0.1872 0.24468 0.0
O6 O 0.4496 0.1708 0.23086 0.0
C7 C 0.49199 0.2001 0.2624 0.0
N8 N 0.49042 0.17786 0.28148 0.0
C9 C 0.5306 0.18268 0.31144 0.0
C10 C 0.53269 0.20561 0.292 0.0
C11 C 0.51326 0.21439 0.2675 0.0
C12 C 0.50893 0.16931 0.30531 0.0
H13 H 0.4772 0.2068 0.24328 0.0
C14 C 0.43037 0.18276 0.22047 0.0
O15 O 0.37532 0.18867 0.31016 0.0
O16 O 0.40726 0.21252 0.32298 0.0
N17 N 0.48306 0.13627 0.31907 0.0
C18 C 0.47766 0.11428 0.33697 0.0
C19 C 0.49529 0.10275 0.36196 0.0
C20 C 0.51828 0.11389 0.36812 0.0
C21 C 0.52323 0.13676 0.3501 0.0
C22 C 0.50513 0.14713 0.32485 0.0
H23 H 0.46021 0.10538 0.3316 0.0
O24 O 0.41566 0.16779 0.36421 0.0
O25 O 0.44481 0.17161 0.31736 0.0
O26 O 0.40415 0.14095 0.29077 0.0
O27 O 0.44126 0.12669 0.27243 0.0
C28 C 0.54543 0.14961 0.35603 0.0
C29 C 0.54903 0.17265 0.33696 0.0
H30 H 0.54908 0.21667 0.29583 0.0
H31 H 0.51473 0.23207 0.25242 0.0
H32 H 0.49131 0.08511 0.37583 0.0
H33 H 0.5321 0.10465 0.38646 0.0
H34 H 0.55974 0.14207 0.37553 0.0
H35 H 0.56604 0.18252 0.3422 0.0
Mn36 Mn 0.81636 0.40709 0.5479 0.0
Mn37 Mn 0.83998 0.46424 0.53581 0.0
C38 C 0.82602 0.43084 0.60458 0.0
C39 C 0.78296 0.38063 0.55873 0.0
C40 C 0.87002 0.41766 0.52494 0.0
O41 O 0.80781 0.41511 0.48763 0.0
O42 O 0.8228 0.45388 0.48505 0.0
C43 C 0.79328 0.49204 0.52957 0.0
N44 N 0.8155 0.4884 0.54796 0.0
C45 C 0.80897 0.52257 0.59372 0.0
C46 C 0.7861 0.52681 0.57504 0.0
C47 C 0.77817 0.51139 0.54297 0.0
C48 C 0.82323 0.50301 0.57903 0.0
H49 H 0.78715 0.48027 0.50488 0.0
C50 C 0.8117 0.43551 0.46902 0.0
O51 O 0.80377 0.37253 0.54444 0.0
O52 O 0.781 0.40422 0.56309 0.0
N53 N 0.85697 0.47676 0.583 0.0
C54 C 0.8787 0.46914 0.59962 0.0
C55 C 0.88885 0.48213 0.6329 0.0
C56 C 0.87668 0.50291 0.64851 0.0
C57 C 0.85442 0.51049 0.63076 0.0
C58 C 0.8453 0.49696 0.59739 0.0
H59 H 0.88819 0.45323 0.58768 0.0
O60 O 0.8247 0.40714 0.60785 0.0
O61 O 0.8218 0.44 0.56834 0.0
O62 O 0.85299 0.40235 0.53359 0.0
O63 O 0.86673 0.44089 0.52373 0.0
C64 C 0.84065 0.53062 0.64541 0.0
C65 C 0.81792 0.53662 0.62697 0.0
H66 H 0.77436 0.54168 0.58534 0.0
H67 H 0.7605 0.51448 0.5285 0.0
H68 H 0.90602 0.47614 0.64649 0.0
H69 H 0.88452 0.51283 0.67427 0.0
H70 H 0.84717 0.54133 0.67133 0.0
H71 H 0.80729 0.55186 0.63899 0.0
Mn72 Mn 0.5963 0.8277 0.7985 0.0
Mn73 Mn 0.5408 0.85509 0.78656 0.0
C74 C 0.57416 0.84066 0.85555 0.0
C75 C 0.62083 0.79298 0.8108 0.0
C76 C 0.58896 0.88172 0.77366 0.0
O77 O 0.58695 0.81776 0.73937 0.0
O78 O 0.55042 0.83736 0.73613 0.0
C79 C 0.51038 0.81013 0.78009 0.0
N80 N 0.51513 0.83218 0.7982 0.0
C81 C 0.47911 0.82895 0.84087 0.0
C82 C 0.47376 0.80622 0.82258 0.0
C83 C 0.48953 0.79674 0.79218 0.0
C84 C 0.50019 0.8414 0.82768 0.0
H85 H 0.5224 0.80284 0.75659 0.0
C86 C 0.56732 0.82405 0.72031 0.0
O87 O 0.62995 0.81271 0.79425 0.0
O88 O 0.59729 0.79279 0.81695 0.0
N89 N 0.52872 0.8731 0.83284 0.0
C90 C 0.53698 0.89485 0.84832 0.0
C91 C 0.52304 0.90711 0.8783 0.0
C92 C 0.50083 0.89687 0.89214 0.0
C93 C 0.49293 0.87427 0.87631 0.0
C94 C 0.50725 0.86322 0.84569 0.0
H95 H 0.55381 0.90305 0.83725 0.0
O96 O 0.59782 0.83792 0.85743 0.0
O97 O 0.56399 0.83592 0.82014 0.0
O98 O 0.60326 0.86353 0.78081 0.0
O99 O 0.56559 0.88021 0.77474 0.0
C100 C 0.47132 0.86235 0.88948 0.0
C101 C 0.46452 0.8396 0.87201 0.0
H102 H 0.4577 0.79584 0.83182 0.0
H103 H 0.48557 0.77918 0.77801 0.0
H104 H 0.52917 0.92463 0.89018 0.0
H105 H 0.48991 0.90661 0.91474 0.0
H106 H 0.45992 0.87041 0.91328 0.0
H107 H 0.44806 0.83044 0.88279 0.0
Mn108 Mn 0.18336 0.59335 0.05405 0.0
Mn109 Mn 0.16066 0.53552 0.05877 0.0
C110 C 0.17808 0.57395 0.11677 0.0
C111 C 0.21613 0.62124 0.05391 0.0
C112 C 0.12837 0.58032 0.04714 0.0
O113 O 0.18849 0.58142 0.9946 0.0
O114 O 0.17145 0.54393 0.00245 0.0
C115 C 0.2075 0.50954 0.04198 0.0
N116 N 0.18736 0.51307 0.0662 0.0
C117 C 0.19997 0.48081 0.11238 0.0
C118 C 0.2208 0.47675 0.08783 0.0
C119 C 0.22462 0.49125 0.05257 0.0
C120 C 0.18364 0.4994 0.10041 0.0
H121 H 0.21048 0.5206 0.01481 0.0
C122 C 0.18163 0.56056 0.98048 0.0
O123 O 0.19427 0.62773 0.04187 0.0
O124 O 0.21935 0.59816 0.06218 0.0
N125 N 0.1494 0.52425 0.11134 0.0
C126 C 0.12875 0.53093 0.13232 0.0
C127 C 0.1221 0.51802 0.16809 0.0
C128 C 0.13658 0.49821 0.18163 0.0
C129 C 0.15775 0.49169 0.15962 0.0
C130 C 0.16329 0.50502 0.1239 0.0
H131 H 0.1174 0.54597 0.12181 0.0
O132 O 0.17866 0.59769 0.11454 0.0
O133 O 0.18053 0.56201 0.08236 0.0
O134 O 0.14574 0.59613 0.04515 0.0
O135 O 0.13214 0.55736 0.05238 0.0
C136 C 0.1737 0.47261 0.17189 0.0
C137 C 0.19489 0.46729 0.14844 0.0
H138 H 0.23403 0.46264 0.09586 0.0
H139 H 0.24068 0.48828 0.03353 0.0
H140 H 0.10578 0.52322 0.18504 0.0
H141 H 0.13129 0.48815 0.20901 0.0
H142 H 0.16999 0.46212 0.19958 0.0
H143 H 0.20718 0.45278 0.15846 0.0
Mn144 Mn 0.408 0.81465 0.28247 0.0
Mn145 Mn 0.46532 0.83795 0.29493 0.0
C146 C 0.43147 0.82542 0.22601 0.0
C147 C 0.38087 0.78193 0.27092 0.0
C148 C 0.41887 0.86792 0.30762 0.0
O149 O 0.41626 0.80495 0.34209 0.0
O150 O 0.45497 0.82009 0.34508 0.0
C151 C 0.493 0.79111 0.2992 0.0
N152 N 0.48931 0.81354 0.28157 0.0
C153 C 0.52347 0.80761 0.23547 0.0
C154 C 0.52772 0.78451 0.2533 0.0
C155 C 0.51237 0.7762 0.28522 0.0
C156 C 0.5039 0.82166 0.25072 0.0
H157 H 0.48124 0.78466 0.32369 0.0
C158 C 0.43671 0.80861 0.36071 0.0
O159 O 0.37334 0.80265 0.28626 0.0
O160 O 0.40439 0.77956 0.26556 0.0
N161 N 0.4779 0.85563 0.24849 0.0
C162 C 0.47063 0.87784 0.2333 0.0
C163 C 0.48386 0.88861 0.20083 0.0
C164 C 0.50453 0.87656 0.18457 0.0
C165 C 0.51175 0.85379 0.20083 0.0
C166 C 0.49801 0.84408 0.23348 0.0
H167 H 0.45485 0.88729 0.24583 0.0
O168 O 0.40774 0.82417 0.22304 0.0
O169 O 0.44087 0.82035 0.26178 0.0
O170 O 0.4036 0.8509 0.29888 0.0
O171 O 0.44213 0.86469 0.30818 0.0
C172 C 0.53181 0.84018 0.1855 0.0
C173 C 0.53761 0.81706 0.20271 0.0
H174 H 0.54258 0.77291 0.24252 0.0
H175 H 0.51547 0.75835 0.29901 0.0
H176 H 0.47815 0.90617 0.1884 0.0
H177 H 0.51469 0.88493 0.15954 0.0
H178 H 0.54267 0.84715 0.16008 0.0
H179 H 0.55285 0.8066 0.19027 0.0
Mn180 Mn 0.18261 0.40257 0.53811 0.0
Mn181 Mn 0.15827 0.45864 0.55865 0.0
C182 C 0.17223 0.42887 0.48463 0.0
C183 C 0.21597 0.37624 0.52544 0.0
C184 C 0.12885 0.41148 0.56266 0.0
O185 O 0.19138 0.4076 0.59914 0.0
O186 O 0.17567 0.44572 0.60734 0.0
C187 C 0.20451 0.48664 0.56948 0.0
N188 N 0.18226 0.48382 0.55083 0.0
C189 C 0.18667 0.52219 0.51471 0.0
C190 C 0.2096 0.52557 0.53364 0.0
C191 C 0.2186 0.50766 0.561 0.0
C192 C 0.17352 0.50082 0.52421 0.0
H193 H 0.2114 0.47299 0.5907 0.0
C194 C 0.18723 0.42688 0.62058 0.0
O195 O 0.1949 0.36796 0.53805 0.0
O196 O 0.21812 0.39993 0.52268 0.0
N197 N 0.14089 0.47384 0.51427 0.0
C198 C 0.11921 0.467 0.49666 0.0
C199 C 0.1076 0.48295 0.46877 0.0
C200 C 0.11825 0.50582 0.4597 0.0
C201 C 0.14093 0.51212 0.47718 0.0
C202 C 0.15146 0.49566 0.50521 0.0
H203 H 0.11061 0.44973 0.50442 0.0
O204 O 0.17405 0.40538 0.47859 0.0
O205 O 0.17671 0.43651 0.52187 0.0
O206 O 0.14606 0.39691 0.55176 0.0
O207 O 0.13175 0.43456 0.56719 0.0
C208 C 0.15348 0.53408 0.46795 0.0
C209 C 0.17645 0.53901 0.48644 0.0
H210 H 0.22051 0.54177 0.52722 0.0
H211 H 0.23632 0.5101 0.57565 0.0
H212 H 0.09019 0.47787 0.45503 0.0
H213 H 0.10877 0.51852 0.43958 0.0
H214 H 0.1458 0.54714 0.44625 0.0
H215 H 0.18613 0.55576 0.47859 0.0
Mn216 Mn 0.59543 0.18947 0.78764 0.0
Mn217 Mn 0.53847 0.16575 0.77562 0.0
C218 C 0.58096 0.17929 0.72273 0.0
C219 C 0.62215 0.2231 0.78727 0.0
C220 C 0.58212 0.13601 0.80652 0.0
O221 O 0.57883 0.19784 0.843 0.0
O222 O 0.54076 0.18387 0.82821 0.0
C223 C 0.51093 0.21246 0.76695 0.0
N224 N 0.51693 0.1898 0.7523 0.0
C225 C 0.49015 0.19483 0.69384 0.0
C226 C 0.48338 0.21808 0.70865 0.0
C227 C 0.49392 0.22698 0.74524 0.0
C228 C 0.50719 0.18121 0.71679 0.0
H229 H 0.51917 0.21945 0.79483 0.0
C230 C 0.55606 0.1948 0.85192 0.0
O231 O 0.62836 0.20243 0.80449 0.0
O232 O 0.59977 0.22486 0.77394 0.0
N233 N 0.53346 0.14782 0.7256 0.0
C234 C 0.54313 0.12573 0.71415 0.0
C235 C 0.53481 0.11441 0.67788 0.0
C236 C 0.51657 0.1258 0.65393 0.0
C237 C 0.50701 0.1486 0.66613 0.0
C238 C 0.51576 0.15885 0.70288 0.0
H239 H 0.55697 0.11672 0.73262 0.0
O240 O 0.60436 0.18102 0.72944 0.0
O241 O 0.56674 0.18362 0.75395 0.0
O242 O 0.59822 0.15302 0.8039 0.0
O243 O 0.55938 0.13938 0.79839 0.0
C244 C 0.48936 0.16168 0.64308 0.0
C245 C 0.48104 0.18485 0.65679 0.0
H246 H 0.47033 0.22937 0.69193 0.0
H247 H 0.48899 0.24501 0.75664 0.0
H248 H 0.54232 0.09687 0.66854 0.0
H249 H 0.51007 0.11688 0.62619 0.0
H250 H 0.48236 0.1543 0.6144 0.0
H251 H 0.46782 0.19494 0.6384 0.0
Mn252 Mn 0.81963 0.59837 0.03029 0.0
Mn253 Mn 0.84334 0.54143 0.04476 0.0
C254 C 0.83242 0.57517 0.97423 0.0
C255 C 0.78628 0.62452 0.01655 0.0
C256 C 0.87237 0.58823 0.05931 0.0
O257 O 0.80846 0.59009 0.08919 0.0
O258 O 0.82421 0.55175 0.09341 0.0
C259 C 0.79663 0.51349 0.04596 0.0
N260 N 0.81967 0.51693 0.03066 0.0
C261 C 0.81633 0.48102 0.98782 0.0
C262 C 0.7926 0.47699 0.00331 0.0
C263 C 0.78265 0.49341 0.03229 0.0
C264 C 0.82929 0.50146 0.00237 0.0
H265 H 0.78901 0.52598 0.06842 0.0
C266 C 0.81209 0.5698 0.10822 0.0
O267 O 0.80632 0.63273 0.03343 0.0
O268 O 0.78504 0.60101 0.01053 0.0
N269 N 0.86236 0.52854 0.00027 0.0
C270 C 0.88486 0.53593 0.98663 0.0
C271 C 0.89751 0.52146 0.95782 0.0
C272 C 0.88691 0.49956 0.9434 0.0
C273 C 0.86351 0.49261 0.95716 0.0
C274 C 0.85205 0.50747 0.98662 0.0
H275 H 0.89331 0.55249 0.99824 0.0
O276 O 0.83082 0.59889 0.97175 0.0
O277 O 0.8265 0.56553 0.00957 0.0
O278 O 0.85542 0.60347 0.04963 0.0
O279 O 0.86931 0.56499 0.05927 0.0
C280 C 0.85113 0.47153 0.94291 0.0
C281 C 0.82746 0.46585 0.95797 0.0
H282 H 0.78178 0.46148 0.99294 0.0
H283 H 0.76433 0.49046 0.04431 0.0
H284 H 0.91554 0.52698 0.94725 0.0
H285 H 0.89696 0.48815 0.92187 0.0
H286 H 0.85951 0.45974 0.91998 0.0
H287 H 0.81792 0.44985 0.94622 0.0
H288 H 0.48131 0.19209 0.36208 0.0
H289 H 0.51165 0.19005 0.41691 0.0
H290 H 0.46308 0.14234 0.48567 0.0
H291 H 0.43541 0.14053 0.42669 0.0
H292 H 0.51292 0.20633 0.48261 0.0
H293 H 0.48151 0.11923 0.5617 0.0
H294 H 0.46906 0.07637 0.54799 0.0
H295 H 0.51577 0.07463 0.44142 0.0
H296 H 0.52831 0.11771 0.45476 0.0
H297 H 0.54892 0.21084 0.68828 0.0
H298 H 0.5302 0.20815 0.6203 0.0
H299 H 0.57567 0.14511 0.59236 0.0
H300 H 0.59329 0.14703 0.662 0.0
H301 H 0.53308 0.13478 0.57076 0.0
H302 H 0.58227 0.20395 0.54121 0.0
H303 H 0.6015 0.24451 0.5513 0.0
H304 H 0.53031 0.27869 0.55241 0.0
H305 H 0.51062 0.23832 0.54218 0.0
C306 C 0.47814 0.17972 0.38761 0.0
C307 C 0.45711 0.16495 0.38872 0.0
C308 C 0.49509 0.17915 0.41981 0.0
C309 C 0.49034 0.16542 0.45571 0.0
C310 C 0.46834 0.15183 0.45779 0.0
C311 C 0.45216 0.15119 0.4243 0.0
C312 C 0.50729 0.16735 0.49185 0.0
C313 C 0.51739 0.19049 0.50145 0.0
C314 C 0.51351 0.147 0.51715 0.0
C315 C 0.50532 0.12167 0.50838 0.0
C316 C 0.48894 0.10971 0.53518 0.0
C317 C 0.48185 0.08546 0.5275 0.0
C318 C 0.49138 0.07289 0.49352 0.0
C319 C 0.50808 0.08455 0.46727 0.0
C320 C 0.51502 0.1089 0.47465 0.0
C321 C 0.55478 0.19637 0.66754 0.0
C322 C 0.57162 0.1785 0.68051 0.0
C323 C 0.54448 0.19513 0.62836 0.0
C324 C 0.55159 0.17651 0.60087 0.0
C325 C 0.56973 0.15953 0.61309 0.0
C326 C 0.57981 0.16062 0.65267 0.0
C327 C 0.53839 0.17357 0.56118 0.0
C328 C 0.52879 0.15042 0.55136 0.0
C329 C 0.53328 0.19372 0.53503 0.0
C330 C 0.54497 0.21809 0.54114 0.0
C331 C 0.57071 0.2201 0.54381 0.0
C332 C 0.58169 0.24306 0.54952 0.0
C333 C 0.56714 0.26415 0.55273 0.0
C334 C 0.54156 0.26234 0.54995 0.0
C335 C 0.53048 0.23944 0.54401 0.0
H336 H 0.57569 0.28189 0.55725 0.0
H337 H 0.48599 0.05407 0.48771 0.0
H338 H 0.85717 0.42707 0.66962 0.0
H339 H 0.85754 0.45278 0.73167 0.0
H340 H 0.79585 0.49418 0.68418 0.0
H341 H 0.79453 0.46736 0.62389 0.0
H342 H 0.8665 0.49833 0.74122 0.0
H343 H 0.76372 0.521 0.75982 0.0
H344 H 0.72316 0.5028 0.74478 0.0
H345 H 0.75428 0.43045 0.75254 0.0
H346 H 0.79494 0.44814 0.76836 0.0
H347 H 0.85915 0.58564 0.90543 0.0
H348 H 0.85746 0.5645 0.83919 0.0
H349 H 0.80863 0.51031 0.89218 0.0
H350 H 0.80651 0.53453 0.95473 0.0
H351 H 0.79299 0.51615 0.82617 0.0
H352 H 0.88214 0.50113 0.8575 0.0
H353 H 0.92461 0.51483 0.87337 0.0
H354 H 0.92244 0.56414 0.77011 0.0
H355 H 0.8802 0.55052 0.75387 0.0
C356 C 0.84366 0.44158 0.67287 0.0
C357 C 0.82643 0.44604 0.6417 0.0
C358 C 0.8439 0.45631 0.70806 0.0
C359 C 0.82675 0.47548 0.71263 0.0
C360 C 0.80906 0.47934 0.68179 0.0
C361 C 0.80857 0.46435 0.64704 0.0
C362 C 0.82779 0.49164 0.7493 0.0
C363 C 0.85045 0.50208 0.76002 0.0
C364 C 0.80684 0.49688 0.77354 0.0
C365 C 0.7824 0.48593 0.76486 0.0
C366 C 0.76187 0.5012 0.75853 0.0
C367 C 0.73888 0.49096 0.74987 0.0
C368 C 0.73617 0.46547 0.74763 0.0
C369 C 0.75643 0.45016 0.75425 0.0
C370 C 0.77945 0.46028 0.76305 0.0
C371 C 0.84828 0.56905 0.90271 0.0
C372 C 0.83426 0.56062 0.93614 0.0
C373 C 0.84762 0.55666 0.86494 0.0
C374 C 0.83372 0.53499 0.86044 0.0
C375 C 0.81972 0.52678 0.89422 0.0
C376 C 0.81918 0.54008 0.93082 0.0
C377 C 0.83226 0.52143 0.82046 0.0
C378 C 0.80926 0.51212 0.80806 0.0
C379 C 0.85303 0.51667 0.79525 0.0
C380 C 0.87802 0.5253 0.8054 0.0
C381 C 0.89075 0.51518 0.83888 0.0
C382 C 0.91473 0.52281 0.84771 0.0
C383 C 0.92608 0.54057 0.8231 0.0
C384 C 0.91357 0.55052 0.78934 0.0
C385 C 0.88967 0.54279 0.78026 0.0
H386 H 0.94463 0.54647 0.82999 0.0
H387 H 0.71837 0.45757 0.74083 0.0
H388 H 0.4277 0.85893 0.16432 0.0
H389 H 0.45331 0.86145 0.10218 0.0
H390 H 0.49418 0.79768 0.14255 0.0
H391 H 0.46773 0.7945 0.20317 0.0
H392 H 0.49975 0.86979 0.09265 0.0
H393 H 0.51737 0.7667 0.06356 0.0
H394 H 0.49679 0.72677 0.0739 0.0
H395 H 0.42627 0.76223 0.06881 0.0
H396 H 0.44642 0.80231 0.05795 0.0
H397 H 0.58636 0.86441 0.92664 0.0
H398 H 0.56555 0.86125 0.99309 0.0
H399 H 0.50865 0.81725 0.93626 0.0
H400 H 0.53241 0.8162 0.87322 0.0
H401 H 0.51428 0.79882 0.00027 0.0
H402 H 0.50427 0.88936 0.97709 0.0
H403 H 0.52107 0.93106 0.96444 0.0
H404 H 0.56915 0.92296 0.0685 0.0
H405 H 0.55239 0.8815 0.08166 0.0
C406 C 0.44209 0.84545 0.1595 0.0
C407 C 0.4465 0.82705 0.18877 0.0
C408 C 0.45675 0.84693 0.1243 0.0
C409 C 0.47571 0.82979 0.11773 0.0
C410 C 0.47952 0.81095 0.14661 0.0
C411 C 0.46469 0.80934 0.18147 0.0
C412 C 0.49155 0.83174 0.08082 0.0
C413 C 0.50284 0.85432 0.07225 0.0
C414 C 0.49575 0.81156 0.05437 0.0
C415 C 0.48343 0.78751 0.06036 0.0
C416 C 0.49748 0.76594 0.0645 0.0
C417 C 0.48588 0.7433 0.07048 0.0
C418 C 0.46024 0.74198 0.07214 0.0
C419 C 0.44613 0.76329 0.06767 0.0
C420 C 0.45763 0.78598 0.06164 0.0
C421 C 0.56927 0.85426 0.92862 0.0
C422 C 0.55996 0.84192 0.89403 0.0
C423 C 0.55709 0.85278 0.96653 0.0
C424 C 0.53477 0.83982 0.97002 0.0
C425 C 0.52566 0.82756 0.93505 0.0
C426 C 0.53872 0.8277 0.89823 0.0
C427 C 0.52133 0.83751 0.00997 0.0
C428 C 0.51104 0.81454 0.02006 0.0
C429 C 0.51751 0.85753 0.03721 0.0
C430 C 0.52749 0.88235 0.02956 0.0
C431 C 0.51861 0.89654 0.99673 0.0
C432 C 0.52805 0.92006 0.98963 0.0
C433 C 0.5464 0.9295 0.01529 0.0
C434 C 0.55507 0.91558 0.04847 0.0
C435 C 0.54553 0.89213 0.05585 0.0
H436 H 0.55376 0.94767 0.00964 0.0
H437 H 0.45131 0.72443 0.07682 0.0
H438 H 0.19799 0.47075 0.47255 0.0
H439 H 0.19644 0.49823 0.41352 0.0
H440 H 0.14855 0.44687 0.35131 0.0
H441 H 0.14645 0.4221 0.41379 0.0
H442 H 0.21274 0.49521 0.34632 0.0
H443 H 0.12691 0.46116 0.277 0.0
H444 H 0.08405 0.44854 0.2909 0.0
H445 H 0.07858 0.50323 0.38577 0.0
H446 H 0.12159 0.51603 0.37204 0.0
H447 H 0.21001 0.53866 0.14078 0.0
H448 H 0.20999 0.51612 0.20593 0.0
H449 H 0.15064 0.56197 0.25 0.0
H450 H 0.14984 0.58352 0.18364 0.0
H451 H 0.13948 0.51776 0.2638 0.0
H452 H 0.21205 0.56447 0.2891 0.0
H453 H 0.25306 0.58162 0.27423 0.0
H454 H 0.28323 0.50876 0.26772 0.0
H455 H 0.24232 0.49116 0.28204 0.0
C456 C 0.18572 0.4664 0.44736 0.0
C457 C 0.17082 0.44548 0.44894 0.0
C458 C 0.18541 0.48168 0.41289 0.0
C459 C 0.17167 0.47531 0.37773 0.0
C460 C 0.15798 0.45338 0.37845 0.0
C461 C 0.15717 0.43887 0.414 0.0
C462 C 0.17341 0.49081 0.33988 0.0
C463 C 0.1966 0.5001 0.32845 0.0
C464 C 0.15269 0.49717 0.31559 0.0
C465 C 0.12751 0.48883 0.32491 0.0
C466 C 0.11658 0.47023 0.30116 0.0
C467 C 0.09234 0.46308 0.3089 0.0
C468 C 0.07873 0.47482 0.33968 0.0
C469 C 0.08931 0.49384 0.36253 0.0
C470 C 0.11364 0.50089 0.35508 0.0
C471 C 0.19691 0.54371 0.16444 0.0
C472 C 0.17917 0.56187 0.15699 0.0
C473 C 0.1972 0.5312 0.20192 0.0
C474 C 0.1803 0.53733 0.23297 0.0
C475 C 0.16366 0.55673 0.22633 0.0
C476 C 0.1632 0.56903 0.18861 0.0
C477 C 0.1786 0.52225 0.27087 0.0
C478 C 0.15555 0.51285 0.28182 0.0
C479 C 0.19941 0.51599 0.29475 0.0
C480 C 0.22408 0.5265 0.28635 0.0
C481 C 0.2274 0.5521 0.28424 0.0
C482 C 0.25063 0.5619 0.27595 0.0
C483 C 0.27072 0.54629 0.26995 0.0
C484 C 0.26764 0.52084 0.27235 0.0
C485 C 0.24445 0.51094 0.28061 0.0
H486 H 0.28869 0.55391 0.26352 0.0
H487 H 0.05992 0.46936 0.34553 0.0
H488 H 0.39372 0.25791 0.34154 0.0
H489 H 0.36651 0.28775 0.37501 0.0
H490 H 0.30853 0.23368 0.378 0.0
H491 H 0.3352 0.20436 0.3429 0.0
H492 H 0.28887 0.27475 0.36165 0.0
H493 H 0.34709 0.24924 0.46483 0.0
H494 H 0.38829 0.24251 0.49461 0.0
H495 H 0.40346 0.31977 0.48607 0.0
H496 H 0.36245 0.32692 0.45575 0.0
H497 H 0.21375 0.32627 0.51694 0.0
H498 H 0.24352 0.29938 0.48286 0.0
H499 H 0.29187 0.36108 0.46385 0.0
H500 H 0.26212 0.38817 0.49791 0.0
H501 H 0.317 0.31824 0.4874 0.0
H502 H 0.25666 0.34279 0.3867 0.0
H503 H 0.21461 0.34817 0.35967 0.0
H504 H 0.20263 0.2703 0.36705 0.0
H505 H 0.24451 0.2645 0.39471 0.0
C506 C 0.37507 0.25252 0.34892 0.0
C507 C 0.36666 0.22873 0.33957 0.0
C508 C 0.35956 0.26952 0.36846 0.0
C509 C 0.33551 0.26291 0.38005 0.0
C510 C 0.32695 0.23935 0.3696 0.0
C511 C 0.34227 0.22254 0.34946 0.0
C512 C 0.31924 0.28022 0.40335 0.0
C513 C 0.29504 0.28397 0.3894 0.0
C514 C 0.32719 0.29281 0.43926 0.0
C515 C 0.35181 0.28857 0.45762 0.0
C516 C 0.35928 0.26477 0.46905 0.0
C517 C 0.38259 0.26088 0.48606 0.0
C518 C 0.39851 0.28069 0.49212 0.0
C519 C 0.39113 0.30444 0.4813 0.0
C520 C 0.36785 0.30842 0.46422 0.0
C521 C 0.23086 0.3341 0.50609 0.0
C522 C 0.23548 0.35943 0.51005 0.0
C523 C 0.24782 0.3187 0.48638 0.0
C524 C 0.26979 0.32826 0.47023 0.0
C525 C 0.27502 0.3533 0.47592 0.0
C526 C 0.25798 0.36877 0.49541 0.0
C527 C 0.28673 0.31233 0.4459 0.0
C528 C 0.31098 0.30895 0.4596 0.0
C529 C 0.27875 0.29981 0.41009 0.0
C530 C 0.25364 0.30324 0.39312 0.0
C531 C 0.245 0.32684 0.38284 0.0
C532 C 0.2212 0.32996 0.36736 0.0
C533 C 0.20594 0.30959 0.36173 0.0
C534 C 0.21446 0.28606 0.37147 0.0
C535 C 0.23823 0.28284 0.38701 0.0
H536 H 0.18752 0.31204 0.34975 0.0
H537 H 0.41655 0.27765 0.50529 0.0
H538 H 0.74082 0.39328 0.59915 0.0
H539 H 0.71393 0.3665 0.63922 0.0
H540 H 0.75552 0.30328 0.59977 0.0
H541 H 0.78278 0.33007 0.55959 0.0
H542 H 0.70482 0.29409 0.60271 0.0
H543 H 0.76757 0.32589 0.68981 0.0
H544 H 0.79383 0.35722 0.72244 0.0
H545 H 0.73024 0.39079 0.77712 0.0
H546 H 0.70351 0.35992 0.74409 0.0
H547 H 0.67087 0.21566 0.77203 0.0
H548 H 0.69853 0.24329 0.73448 0.0
H549 H 0.64294 0.29976 0.73546 0.0
H550 H 0.61477 0.27188 0.77157 0.0
H551 H 0.70166 0.31119 0.75294 0.0
H552 H 0.63896 0.27991 0.65837 0.0
H553 H 0.61442 0.24591 0.62972 0.0
H554 H 0.68053 0.20926 0.5914 0.0
H555 H 0.70551 0.24278 0.62103 0.0
C556 C 0.74404 0.37363 0.59825 0.0
C557 C 0.76408 0.36386 0.57622 0.0
C558 C 0.72869 0.35835 0.62144 0.0
C559 C 0.73293 0.33291 0.62309 0.0
C560 C 0.75196 0.32286 0.59911 0.0
C561 C 0.76749 0.33821 0.57608 0.0
C562 C 0.71834 0.31718 0.65164 0.0
C563 C 0.70433 0.29775 0.63554 0.0
C564 C 0.71756 0.3219 0.69462 0.0
C565 C 0.7335 0.34074 0.71408 0.0
C566 C 0.75914 0.34012 0.70838 0.0
C567 C 0.77412 0.35777 0.72701 0.0
C568 C 0.76371 0.37601 0.75177 0.0
C569 C 0.73828 0.37667 0.75788 0.0
C570 C 0.7232 0.35911 0.73919 0.0
C571 C 0.66478 0.23421 0.76538 0.0
C572 C 0.64066 0.24164 0.77486 0.0
C573 C 0.68056 0.2499 0.74367 0.0
C574 C 0.67268 0.27346 0.73196 0.0
C575 C 0.64932 0.28162 0.74421 0.0
C576 C 0.6333 0.26572 0.76495 0.0
C577 C 0.68791 0.28861 0.70378 0.0
C578 C 0.70213 0.30774 0.72003 0.0
C579 C 0.68903 0.28353 0.66107 0.0
C580 C 0.67409 0.26366 0.64243 0.0
C581 C 0.64827 0.26446 0.64429 0.0
C582 C 0.63428 0.2453 0.62782 0.0
C583 C 0.6459 0.2254 0.60881 0.0
C584 C 0.67155 0.22466 0.60621 0.0
C585 C 0.68564 0.24371 0.6229 0.0
H586 H 0.63503 0.21061 0.59599 0.0
H587 H 0.77537 0.38957 0.76633 0.0
H588 H 0.77779 0.67303 0.03573 0.0
H589 H 0.74822 0.70103 0.00309 0.0
H590 H 0.72411 0.64226 0.92348 0.0
H591 H 0.75232 0.61412 0.95764 0.0
H592 H 0.74389 0.71923 0.93292 0.0
H593 H 0.66747 0.64879 0.88869 0.0
H594 H 0.64834 0.61137 0.91721 0.0
H595 H 0.67016 0.63273 0.03919 0.0
H596 H 0.68914 0.67041 0.01149 0.0
H597 H 0.66769 0.77967 0.78771 0.0
H598 H 0.69478 0.74995 0.82204 0.0
H599 H 0.63761 0.73464 0.91072 0.0
H600 H 0.61014 0.76263 0.87462 0.0
H601 H 0.65804 0.69561 0.90038 0.0
H602 H 0.69136 0.77516 0.92751 0.0
H603 H 0.70802 0.81617 0.91114 0.0
H604 H 0.76778 0.78292 0.84501 0.0
H605 H 0.75131 0.74171 0.86059 0.0
C606 C 0.76578 0.66603 0.01184 0.0
C607 C 0.76716 0.64127 -0.00027 0.0
C608 C 0.74899 0.68209 0.99291 0.0
C609 C 0.73351 0.67384 0.96098 0.0
C610 C 0.73513 0.6491 0.94877 0.0
C611 C 0.75141 0.63296 0.96832 0.0
C612 C 0.71627 0.69113 0.93948 0.0
C613 C 0.72508 0.71406 0.92603 0.0
C614 C 0.69147 0.68486 0.93097 0.0
C615 C 0.67994 0.6623 0.94792 0.0
C616 C 0.66811 0.64554 0.92161 0.0
C617 C 0.6573 0.62428 0.93764 0.0
C618 C 0.65811 0.61964 0.97997 0.0
C619 C 0.66964 0.6363 0.00639 0.0
C620 C 0.68045 0.6576 0.99054 0.0
C621 C 0.66086 0.76958 0.8141 0.0
C622 C 0.63675 0.77341 0.82831 0.0
C623 C 0.67646 0.75281 0.83415 0.0
C624 C 0.66864 0.7403 0.86989 0.0
C625 C 0.6443 0.74382 0.88332 0.0
C626 C 0.62852 0.75992 0.86256 0.0
C627 C 0.6856 0.7238 0.89375 0.0
C628 C 0.67679 0.7009 0.90744 0.0
C629 C 0.70999 0.73065 0.90427 0.0
C630 C 0.71996 0.75538 0.89486 0.0
C631 C 0.70797 0.77661 0.90926 0.0
C632 C 0.71739 0.79988 0.90015 0.0
C633 C 0.73891 0.80215 0.87696 0.0
C634 C 0.75109 0.78114 0.86292 0.0
C635 C 0.74174 0.75782 0.8719 0.0
H636 H 0.74617 0.82018 0.86994 0.0
H637 H 0.64974 0.60316 0.9923 0.0
H638 H 0.20952 0.6701 0.07003 0.0
H639 H 0.23818 0.69757 0.105 0.0
H640 H 0.29414 0.64131 0.10085 0.0
H641 H 0.26508 0.6134 0.06756 0.0
H642 H 0.29282 0.65801 0.17378 0.0
H643 H 0.29604 0.69768 0.0424 0.0
H644 H 0.27971 0.71733 0.97958 0.0
H645 H 0.24597 0.77374 0.05281 0.0
H646 H 0.26183 0.75425 0.11613 0.0
H647 H 0.39129 0.73636 0.23972 0.0
H648 H 0.36356 0.70909 0.20189 0.0
H649 H 0.30338 0.75902 0.22403 0.0
H650 H 0.331 0.78636 0.26205 0.0
H651 H 0.30744 0.7459 0.14184 0.0
H652 H 0.30526 0.70506 0.2733 0.0
H653 H 0.32314 0.68522 0.33474 0.0
H654 H 0.35723 0.63056 0.25829 0.0
H655 H 0.33983 0.65028 0.19631 0.0
C656 C 0.22813 0.6638 0.07555 0.0
C657 C 0.23503 0.63956 0.06588 0.0
C658 C 0.24459 0.67957 0.09564 0.0
C659 C 0.26853 0.67168 0.10562 0.0
C660 C 0.2758 0.64789 0.09385 0.0
C661 C 0.25923 0.63198 0.07443 0.0
C662 C 0.28528 0.68741 0.13097 0.0
C663 C 0.29631 0.67711 0.16622 0.0
C664 C 0.28948 0.71258 0.12208 0.0
C665 C 0.27994 0.72437 0.08405 0.0
C666 C 0.28498 0.71417 0.04514 0.0
C667 C 0.27584 0.7253 0.00943 0.0
C668 C 0.26176 0.74673 0.01221 0.0
C669 C 0.25685 0.75712 0.0507 0.0
C670 C 0.26594 0.74606 0.08651 0.0
C671 C 0.37205 0.74132 0.23727 0.0
C672 C 0.36337 0.76353 0.25407 0.0
C673 C 0.35621 0.72572 0.21554 0.0
C674 C 0.33136 0.73201 0.21001 0.0
C675 C 0.32249 0.75381 0.22777 0.0
C676 C 0.33827 0.76933 0.24982 0.0
C677 C 0.31492 0.71639 0.18423 0.0
C678 C 0.30395 0.72675 0.14907 0.0
C679 C 0.31101 0.69121 0.19287 0.0
C680 C 0.32144 0.6793 0.23013 0.0
C681 C 0.31674 0.68893 0.26955 0.0
C682 C 0.32675 0.67768 0.30449 0.0
C683 C 0.34136 0.65668 0.30042 0.0
C684 C 0.34594 0.64685 0.2614 0.0
C685 C 0.33599 0.65804 0.22636 0.0
H686 H 0.3491 0.64799 0.3275 0.0
H687 H 0.2547 0.75532 0.98453 0.0
H688 H 0.44288 0.90645 0.34336 0.0
H689 H 0.4314 0.94973 0.34131 0.0
H690 H 0.36332 0.93108 0.28079 0.0
H691 H 0.37475 0.88749 0.2826 0.0
H692 H 0.38809 0.96639 0.23933 0.0
H693 H 0.36159 0.95429 0.37687 0.0
H694 H 0.36402 0.93997 0.44884 0.0
H695 H 0.42634 0.98669 0.46987 0.0
H696 H 0.42454 1.00103 0.39785 0.0
H697 H 0.37681 0.10458 0.31497 0.0
H698 H 0.36546 0.06106 0.32016 0.0
H699 H 0.42756 0.0416 0.24425 0.0
H700 H 0.43888 0.08475 0.23871 0.0
H701 H 0.39297 0.02541 0.35549 0.0
H702 H 0.41617 0.9906 0.19034 0.0
H703 H 0.41233 0.00501 0.11858 0.0
H704 H 0.35237 0.05204 0.15321 0.0
H705 H 0.35559 0.03767 0.22507 0.0
C706 C 0.42521 0.91143 0.33036 0.0
C707 C 0.40977 0.89345 0.31306 0.0
C708 C 0.41862 0.93623 0.32936 0.0
C709 C 0.39645 0.94369 0.31101 0.0
C710 C 0.38049 0.92574 0.29518 0.0
C711 C 0.38699 0.90081 0.29649 0.0
C712 C 0.39133 0.97032 0.30513 0.0
C713 C 0.38885 0.97929 0.26477 0.0
C714 C 0.39184 0.98714 0.33837 0.0
C715 C 0.39298 0.97865 0.38183 0.0
C716 C 0.37592 0.96139 0.39674 0.0
C717 C 0.37717 0.95329 0.43757 0.0
C718 C 0.39534 0.96239 0.46389 0.0
C719 C 0.41227 0.97966 0.44945 0.0
C720 C 0.41112 0.98781 0.40863 0.0
C721 C 0.38767 0.09108 0.29852 0.0
C722 C 0.40879 0.09818 0.27647 0.0
C723 C 0.38125 0.0662 0.30176 0.0
C724 C 0.39559 0.04805 0.28248 0.0
C725 C 0.416 0.05524 0.25895 0.0
C726 C 0.42251 0.07998 0.25595 0.0
C727 C 0.39081 0.02147 0.28956 0.0
C728 C 0.3916 0.01251 0.33013 0.0
C729 C 0.38853 0.00465 0.25653 0.0
C730 C 0.38622 0.01312 0.21319 0.0
C731 C 0.40205 0.00389 0.18262 0.0
C732 C 0.40001 0.01209 0.14192 0.0
C733 C 0.38215 0.02946 0.13136 0.0
C734 C 0.36624 0.03864 0.16146 0.0
C735 C 0.36819 0.03049 0.2022 0.0
H736 H 0.38061 0.0358 0.09984 0.0
H737 H 0.39627 0.95609 0.4955 0.0
H738 H 0.90625 0.43794 0.47839 0.0
H739 H 0.95023 0.42942 0.48227 0.0
H740 H 0.93632 0.37043 0.56807 0.0
H741 H 0.89204 0.37844 0.56315 0.0
H742 H 0.97617 0.43622 0.54707 0.0
H743 H 0.98653 0.33126 0.57063 0.0
H744 H 0.9668 0.29276 0.54796 0.0
H745 H 0.94146 0.32838 0.43772 0.0
H746 H 0.9613 0.36698 0.45946 0.0
H747 H 0.09479 0.42128 0.62176 0.0
H748 H 0.05042 0.41435 0.61714 0.0
H749 H 0.06067 0.37681 0.50128 0.0
H750 H 0.10523 0.3823 0.50742 0.0
H751 H 0.02259 0.35796 0.53697 0.0
H752 H 0.04837 0.44177 0.50954 0.0
H753 H 0.0679 0.48155 0.52572 0.0
H754 H 0.02109 0.48994 0.63111 0.0
H755 H 1.00129 0.45019 0.61578 0.0
C756 C 0.9125 0.4227 0.4972 0.0
C757 C 0.89569 0.40889 0.52052 0.0
C758 C 0.93768 0.41791 0.49958 0.0
C759 C 0.94673 0.3994 0.52571 0.0
C760 C 0.92987 0.38463 0.5473 0.0
C761 C 0.90452 0.3892 0.54443 0.0
C762 C 0.97372 0.39756 0.53342 0.0
C763 C 0.98625 0.41906 0.54473 0.0
C764 C 0.98703 0.37524 0.53048 0.0
C765 C 0.97518 0.35208 0.51693 0.0
C766 C 0.97681 0.33085 0.5415 0.0
C767 C 0.9656 0.30902 0.52882 0.0
C768 C 0.95281 0.30815 0.49149 0.0
C769 C 0.95128 0.3291 0.46671 0.0
C770 C 0.96247 0.35098 0.47923 0.0
C771 C 0.08758 0.41081 0.59608 0.0
C772 C 0.10336 0.4023 0.56497 0.0
C773 C 0.0622 0.40709 0.59316 0.0
C774 C 0.05201 0.39581 0.55811 0.0
C775 C 0.06797 0.38571 0.5285 0.0
C776 C 0.09346 0.38878 0.53207 0.0
C777 C 0.02496 0.39668 0.55036 0.0
C778 C 0.01242 0.37506 0.53929 0.0
C779 C 0.01159 0.41903 0.55259 0.0
C780 C 0.02352 0.44292 0.56174 0.0
C781 C 0.04233 0.45204 0.53629 0.0
C782 C 0.05345 0.47457 0.54528 0.0
C783 C 0.04584 0.48818 0.57947 0.0
C784 C 0.027 0.47935 0.60468 0.0
C785 C 0.0158 0.45685 0.59583 0.0
H786 H 0.0545 0.5056 0.58634 0.0
H787 H 0.94414 0.29123 0.48174 0.0
H788 H 0.63169 0.90059 0.80599 0.0
H789 H 0.64198 0.94437 0.81246 0.0
H790 H 0.57838 0.9631 0.73927 0.0
H791 H 0.56846 0.91978 0.73204 0.0
H792 H 0.61302 0.99437 0.72327 0.0
H793 H 0.57638 0.95944 0.84539 0.0
H794 H 0.57369 0.93123 0.9048 0.0
H795 H 0.64184 0.95928 0.95196 0.0
H796 H 0.64518 0.98738 0.89246 0.0
H797 H 0.55309 0.0955 0.81644 0.0
H798 H 0.56575 0.05261 0.81451 0.0
H799 H 0.64183 0.07448 0.81209 0.0
H800 H 0.6294 0.11788 0.81305 0.0
H801 H 0.61131 0.02425 0.86771 0.0
H802 H 0.64323 0.062 0.73625 0.0
H803 H 0.63621 0.09172 0.67993 0.0
H804 H 0.56672 0.05788 0.65317 0.0
H805 H 0.57308 0.02842 0.71007 0.0
C806 C 0.62047 0.91404 0.79006 0.0
C807 C 0.59916 0.90677 0.76878 0.0
C808 C 0.6262 0.93906 0.79416 0.0
C809 C 0.61066 0.9571 0.77707 0.0
C810 C 0.59063 0.94964 0.75289 0.0
C811 C 0.58493 0.92479 0.74883 0.0
C812 C 0.61339 0.98363 0.78725 0.0
C813 C 0.6132 1.0008 0.7549 0.0
C814 C 0.61318 0.99223 0.82854 0.0
C815 C 0.61122 0.97526 0.86418 0.0
C816 C 0.59091 0.95944 0.86823 0.0
C817 C 0.58923 0.9435 0.90193 0.0
C818 C 0.60759 0.94343 0.93205 0.0
C819 C 0.62766 0.95932 0.92855 0.0
C820 C 0.62947 0.97524 0.89483 0.0
C821 C 0.57258 0.09137 0.81632 0.0
C822 C 0.5902 0.11029 0.81433 0.0
C823 C 0.57974 0.06676 0.81536 0.0
C824 C 0.60466 0.06046 0.81279 0.0
C825 C 0.62247 0.07908 0.81394 0.0
C826 C 0.61531 0.10385 0.81456 0.0
C827 C 0.61132 0.03464 0.80377 0.0
C828 C 0.61259 0.01767 0.83623 0.0
C829 C 0.61187 0.02611 0.76268 0.0
C830 C 0.60854 0.04319 0.72755 0.0
C831 C 0.62639 0.06105 0.71852 0.0
C832 C 0.62251 0.07786 0.68655 0.0
C833 C 0.60096 0.07679 0.66313 0.0
C834 C 0.58334 0.05879 0.67146 0.0
C835 C 0.58707 0.04204 0.70356 0.0
H836 H 0.59795 0.08985 0.63846 0.0
H837 H 0.60622 0.93112 0.95816 0.0
H838 H 0.90955 0.56331 0.0967 0.0
H839 H 0.95275 0.57402 0.09881 0.0
H840 H 0.93681 0.64385 0.04163 0.0
H841 H 0.89302 0.63284 0.03841 0.0
H842 H 0.9741 0.62214 0.00335 0.0
H843 H 0.95814 0.64132 0.14226 0.0
H844 H 0.94089 0.63658 0.21203 0.0
H845 H 0.98283 0.57047 0.22939 0.0
H846 H 1.00007 0.57457 0.15951 0.0
H847 H 0.10962 0.62695 0.03249 0.0
H848 H 0.06629 0.63998 0.03735 0.0
H849 H 0.04522 0.56572 0.06692 0.0
H850 H 0.08763 0.55246 0.06124 0.0
H851 H 0.02785 0.60478 0.12344 0.0
H852 H 0.03434 0.5825 0.97683 0.0
H853 H 0.0513 0.58799 0.90696 0.0
H854 H 0.02727 0.66321 0.90648 0.0
H855 H 0.01046 0.6582 0.97665 0.0
C856 C 0.91502 0.58118 0.08521 0.0
C857 C 0.89772 0.59719 0.0673 0.0
C858 C 0.93985 0.58738 0.0867 0.0
C859 C 0.94814 0.60989 0.07083 0.0
C860 C 0.93085 0.62642 0.05426 0.0
C861 C 0.90581 0.62018 0.05274 0.0
C862 C 0.97508 0.61468 0.06864 0.0
C863 C 0.98582 0.61909 0.02992 0.0
C864 C 0.99053 0.61079 0.1032 0.0
C865 C 0.98039 0.60826 0.14551 0.0
C866 C 0.96361 0.6257 0.16085 0.0
C867 C 0.95383 0.62313 0.20045 0.0
C868 C 0.96076 0.60324 0.22512 0.0
C869 C 0.97751 0.58589 0.21027 0.0
C870 C 0.98733 0.58837 0.17068 0.0
C871 C 0.09571 0.61338 0.03962 0.0
C872 C 0.10228 0.58865 0.04661 0.0
C873 C 0.07101 0.62087 0.04247 0.0
C874 C 0.05266 0.60381 0.0529 0.0
C875 C 0.05914 0.5792 0.05919 0.0
C876 C 0.08352 0.57166 0.05574 0.0
C877 C 0.02653 0.61098 0.05804 0.0
C878 C 0.01603 0.60877 0.09732 0.0
C879 C 0.01138 0.61716 0.0242 0.0
C880 C 0.0215 0.62009 0.98215 0.0
C881 C 0.03293 0.60027 0.96199 0.0
C882 C 0.04245 0.60328 0.9223 0.0
C883 C 0.04046 0.62597 0.90236 0.0
C884 C 0.02887 0.64567 0.92201 0.0
C885 C 0.01934 0.64276 0.96173 0.0
H886 H 0.04783 0.62825 0.87162 0.0
H887 H 0.95316 0.60127 0.25576 0.0
H888 H 0.50911 0.20876 0.86624 0.0
H889 H 0.48939 0.21658 0.93164 0.0
H890 H 0.55908 0.20878 0.99392 0.0
H891 H 0.57923 0.20041 0.92734 0.0
H892 H 0.52582 0.18161 0.03053 0.0
H893 H 0.52833 0.26471 0.99321 0.0
H894 H 0.52512 0.30145 0.94908 0.0
H895 H 0.44748 0.28964 0.93576 0.0
H896 H 0.45025 0.2526 0.97931 0.0
H897 H 0.44171 0.22965 0.20092 0.0
H898 H 0.46402 0.24107 0.13818 0.0
H899 H 0.44659 0.17058 0.08504 0.0
H900 H 0.42505 0.15894 0.14819 0.0
H901 H 0.46089 0.24426 0.05428 0.0
H902 H 0.49806 0.14402 0.05284 0.0
H903 H 0.50401 0.11002 0.10221 0.0
H904 H 0.50913 0.1617 0.2017 0.0
H905 H 0.50342 0.19603 0.15296 0.0
C906 C 0.52049 0.20916 0.89361 0.0
C907 C 0.5458 0.20382 0.8915 0.0
C908 C 0.50912 0.21386 0.93117 0.0
C909 C 0.52268 0.21354 0.96788 0.0
C910 C 0.54822 0.20924 0.96595 0.0
C911 C 0.55976 0.20461 0.92793 0.0
C912 C 0.50929 0.215 0.00786 0.0
C913 C 0.51187 0.19551 0.03586 0.0
C914 C 0.49142 0.23344 0.01565 0.0
C915 C 0.48953 0.25577 0.98946 0.0
C916 C 0.51059 0.26983 0.98067 0.0
C917 C 0.50884 0.29074 0.95577 0.0
C918 C 0.48612 0.29786 0.9396 0.0
C919 C 0.46507 0.2841 0.94834 0.0
C920 C 0.46671 0.26317 0.97321 0.0
C921 C 0.44144 0.21721 0.17487 0.0
C922 C 0.43147 0.19353 0.17908 0.0
C923 C 0.45447 0.22362 0.13921 0.0
C924 C 0.45757 0.2064 0.10744 0.0
C925 C 0.44483 0.18398 0.10955 0.0
C926 C 0.43211 0.17748 0.14531 0.0
C927 C 0.47659 0.21017 0.07515 0.0
C928 C 0.4751 0.23063 0.04899 0.0
C929 C 0.49604 0.1931 0.06977 0.0
C930 C 0.50016 0.17258 0.09921 0.0
C931 C 0.5006 0.14814 0.08521 0.0
C932 C 0.50387 0.12881 0.11312 0.0
C933 C 0.50684 0.13371 0.15509 0.0
C934 C 0.50668 0.15795 0.16923 0.0
C935 C 0.50341 0.17734 0.14147 0.0
H936 H 0.50932 0.11872 0.17664 0.0
H937 H 0.48481 0.31405 0.92032 0.0
H938 H 0.83484 0.57785 0.1809 0.0
H939 H 0.82664 0.55483 0.24428 0.0
H940 H 0.76013 0.52598 0.19049 0.0
H941 H 0.76837 0.54911 0.12716 0.0
H942 H 0.79156 0.54712 0.30313 0.0
H943 H 0.76169 0.46261 0.20704 0.0
H944 H 0.76622 0.44605 0.13665 0.0
H945 H 0.83289 0.48714 0.12071 0.0
H946 H 0.82904 0.50354 0.19124 0.0
H947 H 0.76769 0.45455 0.44746 0.0
H948 H 0.75971 0.47744 0.38376 0.0
H949 H 0.82853 0.45166 0.33381 0.0
H950 H 0.83658 0.429 0.39772 0.0
H951 H 0.793 0.45766 0.27302 0.0
H952 H 0.82877 0.50229 0.38511 0.0
H953 H 0.83181 0.51848 0.45586 0.0
H954 H 0.76385 0.55754 0.43961 0.0
H955 H 0.76013 0.54114 0.36896 0.0
C956 C 0.81777 0.56772 0.18359 0.0
C957 C 0.80199 0.56558 0.14957 0.0
C958 C 0.81321 0.55433 0.21963 0.0
C959 C 0.79301 0.53831 0.22185 0.0
C960 C 0.77595 0.53804 0.18931 0.0
C961 C 0.78048 0.55151 0.15336 0.0
C962 C 0.79174 0.51969 0.25539 0.0
C963 C 0.79145 0.52758 0.29652 0.0
C964 C 0.79244 0.49413 0.24685 0.0
C965 C 0.79488 0.48452 0.20425 0.0
C966 C 0.77732 0.46808 0.18852 0.0
C967 C 0.7798 0.45869 0.14864 0.0
C968 C 0.79984 0.46552 0.12428 0.0
C969 C 0.81739 0.48186 0.13964 0.0
C970 C 0.81504 0.49122 0.17955 0.0
C971 C 0.78045 0.45276 0.422 0.0
C972 C 0.80252 0.43968 0.42704 0.0
C973 C 0.77604 0.46608 0.38584 0.0
C974 C 0.7937 0.46656 0.35428 0.0
C975 C 0.81462 0.45152 0.3577 0.0
C976 C 0.81911 0.43836 0.39402 0.0
C977 C 0.79216 0.4851 0.32069 0.0
C978 C 0.79227 0.4772 0.27958 0.0
C979 C 0.79204 0.51066 0.32925 0.0
C980 C 0.79403 0.52026 0.37191 0.0
C981 C 0.81433 0.5141 0.39676 0.0
C982 C 0.81621 0.52337 0.4368 0.0
C983 C 0.79807 0.53907 0.45216 0.0
C984 C 0.7779 0.54539 0.42763 0.0
C985 C 0.77588 0.5361 0.3876 0.0
H986 H 0.79967 0.54641 0.48302 0.0
H987 H 0.80182 0.45808 0.09355 0.0
H988 H 0.56694 0.77673 0.69088 0.0
H989 H 0.54479 0.76302 0.62858 0.0
H990 H 0.53159 0.83855 0.59511 0.0
H991 H 0.55374 0.85218 0.65634 0.0
H992 H 0.48794 0.79839 0.6155 0.0
H993 H 0.56125 0.82217 0.53341 0.0
H994 H 0.60505 0.81747 0.51529 0.0
H995 H 0.5938 0.74061 0.49201 0.0
H996 H 0.54996 0.74486 0.51057 0.0
H997 H 0.43094 0.83377 0.43148 0.0
H998 H 0.4524 0.8251 0.49595 0.0
H999 H 0.47617 0.75512 0.44759 0.0
H1000 H 0.45482 0.76412 0.38266 0.0
H1001 H 0.51435 0.77991 0.47262 0.0
H1002 H 0.43899 0.75871 0.53514 0.0
H1003 H 0.39517 0.76185 0.55379 0.0
H1004 H 0.40903 0.82991 0.61645 0.0
H1005 H 0.45288 0.82741 0.59768 0.0
C1006 C 0.56035 0.7903 0.66907 0.0
C1007 C 0.56221 0.8155 0.67808 0.0
C1008 C 0.54748 0.78249 0.63385 0.0
C1009 C 0.53649 0.79983 0.60751 0.0
C1010 C 0.53999 0.82492 0.61502 0.0
C1011 C 0.5528 0.83267 0.64982 0.0
C1012 C 0.51875 0.7925 0.57518 0.0
C1013 C 0.49358 0.79421 0.58422 0.0
C1014 C 0.52622 0.78625 0.53494 0.0
C1015 C 0.55249 0.78374 0.524 0.0
C1016 C 0.5682 0.80422 0.52494 0.0
C1017 C 0.59301 0.80166 0.51445 0.0
C1018 C 0.60224 0.77873 0.50268 0.0
C1019 C 0.58665 0.75834 0.50125 0.0
C1020 C 0.56184 0.76082 0.51175 0.0
C1021 C 0.43963 0.816 0.43553 0.0
C1022 C 0.44073 0.79933 0.40267 0.0
C1023 C 0.45207 0.81106 0.47232 0.0
C1024 C 0.46592 0.78937 0.47688 0.0
C1025 C 0.46559 0.77193 0.44495 0.0
C1026 C 0.4531 0.7769 0.4081 0.0
C1027 C 0.4832 0.78679 0.5123 0.0
C1028 C 0.50838 0.78331 0.50399 0.0
C1029 C 0.47566 0.79122 0.5534 0.0
C1030 C 0.44926 0.7929 0.56481 0.0
C1031 C 0.43268 0.77445 0.55265 0.0
C1032 C 0.40783 0.7761 0.56329 0.0
C1033 C 0.39932 0.79608 0.58625 0.0
C1034 C 0.41565 0.81444 0.59868 0.0
C1035 C 0.44053 0.81288 0.58811 0.0
H1036 H 0.38007 0.79732 0.59446 0.0
H1037 H 0.62144 0.77679 0.49454 0.0
H1038 H 0.22422 0.56518 0.93527 0.0
H1039 H 0.2342 0.54145 0.87264 0.0
H1040 H 0.1597 0.51455 0.86831 0.0
H1041 H 0.14969 0.5382 0.9298 0.0
H1042 H 0.19816 0.4774 0.87472 0.0
H1043 H 0.1751 0.55087 0.79792 0.0
H1044 H 0.17921 0.5944 0.77797 0.0
H1045 H 0.25379 0.58153 0.74021 0.0
H1046 H 0.25021 0.53795 0.76052 0.0
H1047 H 0.16183 0.42074 0.691 0.0
H1048 H 0.17082 0.44192 0.75551 0.0
H1049 H 0.24175 0.46335 0.70809 0.0
H1050 H 0.23255 0.4421 0.64325 0.0
H1051 H 0.21655 0.50257 0.7312 0.0
H1052 H 0.23746 0.42762 0.79574 0.0
H1053 H 0.23399 0.38399 0.81533 0.0
H1054 H 0.1658 0.39888 0.87714 0.0
H1055 H 0.16864 0.44255 0.85742 0.0
C1056 C 0.2098 0.55503 0.9198 0.0
C1057 C 0.18619 0.55351 0.93724 0.0
C1058 C 0.21556 0.54128 0.8844 0.0
C1059 C 0.19775 0.52594 0.86637 0.0
C1060 C 0.17376 0.52605 0.88202 0.0
C1061 C 0.16802 0.53974 0.91693 0.0
C1062 C 0.20408 0.50793 0.83374 0.0
C1063 C 0.2022 0.48283 0.84327 0.0
C1064 C 0.21034 0.51507 0.79326 0.0
C1065 C 0.21251 0.54126 0.78134 0.0
C1066 C 0.19247 0.55739 0.78585 0.0
C1067 C 0.19468 0.58205 0.77435 0.0
C1068 C 0.21679 0.59075 0.758 0.0
C1069 C 0.23671 0.57478 0.753 0.0
C1070 C 0.23459 0.5501 0.76449 0.0
C1071 C 0.1799 0.4287 0.69535 0.0
C1072 C 0.19675 0.42928 0.66269 0.0
C1073 C 0.18499 0.44105 0.73211 0.0
C1074 C 0.207 0.45431 0.73679 0.0
C1075 C 0.22469 0.45324 0.70529 0.0
C1076 C 0.21961 0.44075 0.66853 0.0
C1077 C 0.20966 0.47186 0.77172 0.0
C1078 C 0.21321 0.49693 0.76277 0.0
C1079 C 0.2051 0.46468 0.81291 0.0
C1080 C 0.20322 0.43839 0.8249 0.0
C1081 C 0.22162 0.42158 0.81325 0.0
C1082 C 0.21978 0.39683 0.82443 0.0
C1083 C 0.19968 0.38866 0.84743 0.0
C1084 C 0.18137 0.40524 0.85934 0.0
C1085 C 0.18311 0.43001 0.84823 0.0
H1086 H 0.19829 0.3695 0.85605 0.0
H1087 H 0.21846 0.60985 0.74907 0.0
loop_
_geom_bond_atom_site_label_1
_geom_bond_atom_site_label_2
_geom_bond_distance
_geom_bond_site_symmetry_2
_ccdc_geom_bond_type
Mn0 O5 2.095 . S
Mn0 O15 2.162 . S
Mn0 O16 2.297 . S
Mn0 O24 2.385 . S
Mn0 O25 2.209 . S
Mn0 O26 2.094 . S
Mn1 O6 2.121 . S
Mn1 N8 2.257 . S
Mn1 N17 2.282 . S
Mn1 O25 2.215 . S
Mn1 O27 2.117 . S
C2 O24 1.234 . S
C2 O25 1.283 . S
C3 O15 1.281 . S
C3 O16 1.236 . S
C4 O26 1.240 . S
C4 O27 1.264 . S
O5 Mn0 2.095 . S
O5 C14 1.250 . S
O6 Mn1 2.121 . S
O6 C14 1.258 . S
C7 N8 1.326 . S
C7 C11 1.460 . S
C7 H13 0.929 . S
N8 Mn1 2.257 . S
N8 C7 1.326 . S
N8 C12 1.362 . S
C9 C10 1.258 . S
C9 C12 1.431 . S
C9 C29 1.449 . S
C10 C9 1.258 . S
C10 C11 1.477 . S
C10 H30 0.931 . S
C11 C7 1.460 . S
C11 C10 1.477 . S
C11 H31 0.930 . S
C12 N8 1.362 . S
C12 C9 1.431 . S
C12 C22 1.476 . S
H13 C7 0.929 . S
C14 O5 1.250 . S
C14 O6 1.258 . S
O15 Mn0 2.162 . S
O15 C3 1.281 . S
O16 Mn0 2.297 . S
O16 C3 1.236 . S
N17 Mn1 2.282 . S
N17 C18 1.328 . S
N17 C22 1.318 . S
C18 N17 1.328 . S
C18 C19 1.457 . S
C18 H23 0.929 . S
C19 C18 1.457 . S
C19 C20 1.291 . S
C19 H32 0.931 . S
C20 C19 1.291 . S
C20 C21 1.373 . S
C20 H33 0.929 . S
C21 C20 1.373 . S
C21 C22 1.396 . S
C21 C28 1.403 . S
C22 C12 1.476 . S
C22 N17 1.318 . S
C22 C21 1.396 . S
H23 C18 0.929 . S
O24 Mn0 2.385 . S
O24 C2 1.234 . S
O25 Mn0 2.209 . S
O25 Mn1 2.215 . S
O25 C2 1.283 . S
O26 Mn0 2.094 . S
O26 C4 1.240 . S
O27 Mn1 2.117 . S
O27 C4 1.264 . S
C28 C21 1.403 . S
C28 C29 1.399 . S
C28 H34 0.929 . S
C29 C9 1.449 . S
C29 C28 1.399 . S
C29 H35 0.930 . S
H30 C10 0.931 . S
H31 C11 0.930 . S
H32 C19 0.931 . S
H33 C20 0.929 . S
H34 C28 0.929 . S
H35 C29 0.930 . S
Mn36 O41 2.095 . S
Mn36 O51 2.162 . S
Mn36 O52 2.297 . S
Mn36 O60 2.385 . S
Mn36 O61 2.209 . S
Mn36 O62 2.094 . S
Mn37 O42 2.121 . S
Mn37 N44 2.257 . S
Mn37 N53 2.282 . S
Mn37 O61 2.215 . S
Mn37 O63 2.117 . S
C38 O60 1.234 . S
C38 O61 1.283 . S
C39 O51 1.281 . S
C39 O52 1.236 . S
C40 O62 1.240 . S
C40 O63 1.264 . S
O41 Mn36 2.095 . S
O41 C50 1.250 . S
O42 Mn37 2.121 . S
O42 C50 1.258 . S
C43 N44 1.326 . S
C43 C47 1.460 . S
C43 H49 0.929 . S
N44 Mn37 2.257 . S
N44 C43 1.326 . S
N44 C48 1.362 . S
C45 C46 1.258 . S
C45 C48 1.431 . S
C45 C65 1.449 . S
C46 C45 1.258 . S
C46 C47 1.477 . S
C46 H66 0.931 . S
C47 C43 1.460 . S
C47 C46 1.477 . S
C47 H67 0.930 . S
C48 N44 1.362 . S
C48 C45 1.431 . S
C48 C58 1.476 . S
H49 C43 0.929 . S
C50 O41 1.250 . S
C50 O42 1.258 . S
O51 Mn36 2.162 . S
O51 C39 1.281 . S
O52 Mn36 2.297 . S
O52 C39 1.236 . S
N53 Mn37 2.282 . S
N53 C54 1.328 . S
N53 C58 1.318 . S
C54 N53 1.328 . S
C54 C55 1.457 . S
C54 H59 0.929 . S
C55 C54 1.457 . S
C55 C56 1.291 . S
C55 H68 0.931 . S
C56 C55 1.291 . S
C56 C57 1.373 . S
C56 H69 0.929 . S
C57 C56 1.373 . S
C57 C58 1.396 . S
C57 C64 1.403 . S
C58 C48 1.476 . S
C58 N53 1.318 . S
C58 C57 1.396 . S
H59 C54 0.929 . S
O60 Mn36 2.385 . S
O60 C38 1.234 . S
O61 Mn36 2.209 . S
O61 Mn37 2.215 . S
O61 C38 1.283 . S
O62 Mn36 2.094 . S
O62 C40 1.240 . S
O63 Mn37 2.117 . S
O63 C40 1.264 . S
C64 C57 1.403 . S
C64 C65 1.399 . S
C64 H70 0.929 . S
C65 C45 1.449 . S
C65 C64 1.399 . S
C65 H71 0.930 . S
H66 C46 0.931 . S
H67 C47 0.930 . S
H68 C55 0.931 . S
H69 C56 0.929 . S
H70 C64 0.929 . S
H71 C65 0.930 . S
Mn72 O77 2.095 . S
Mn72 O87 2.162 . S
Mn72 O88 2.297 . S
Mn72 O96 2.385 . S
Mn72 O97 2.209 . S
Mn72 O98 2.094 . S
Mn73 O78 2.121 . S
Mn73 N80 2.257 . S
Mn73 N89 2.282 . S
Mn73 O97 2.215 . S
Mn73 O99 2.117 . S
C74 O96 1.234 . S
C74 O97 1.283 . S
C75 O87 1.281 . S
C75 O88 1.236 . S
C76 O98 1.240 . S
C76 O99 1.264 . S
O77 Mn72 2.095 . S
O77 C86 1.250 . S
O78 Mn73 2.121 . S
O78 C86 1.258 . S
C79 N80 1.326 . S
C79 C83 1.460 . S
C79 H85 0.929 . S
N80 Mn73 2.257 . S
N80 C79 1.326 . S
N80 C84 1.362 . S
C81 C82 1.258 . S
C81 C84 1.431 . S
C81 C101 1.449 . S
C82 C81 1.258 . S
C82 C83 1.477 . S
C82 H102 0.931 . S
C83 C79 1.460 . S
C83 C82 1.477 . S
C83 H103 0.930 . S
C84 N80 1.362 . S
C84 C81 1.431 . S
C84 C94 1.476 . S
H85 C79 0.929 . S
C86 O77 1.250 . S
C86 O78 1.258 . S
O87 Mn72 2.162 . S
O87 C75 1.281 . S
O88 Mn72 2.297 . S
O88 C75 1.236 . S
N89 Mn73 2.282 . S
N89 C90 1.328 . S
N89 C94 1.318 . S
C90 N89 1.328 . S
C90 C91 1.457 . S
C90 H95 0.929 . S
C91 C90 1.457 . S
C91 C92 1.291 . S
C91 H104 0.931 . S
C92 C91 1.291 . S
C92 C93 1.373 . S
C92 H105 0.929 . S
C93 C92 1.373 . S
C93 C94 1.396 . S
C93 C100 1.403 . S
C94 C84 1.476 . S
C94 N89 1.318 . S
C94 C93 1.396 . S
H95 C90 0.929 . S
O96 Mn72 2.385 . S
O96 C74 1.234 . S
O97 Mn72 2.209 . S
O97 Mn73 2.215 . S
O97 C74 1.283 . S
O98 Mn72 2.094 . S
O98 C76 1.240 . S
O99 Mn73 2.117 . S
O99 C76 1.264 . S
C100 C93 1.403 . S
C100 C101 1.399 . S
C100 H106 0.929 . S
C101 C81 1.449 . S
C101 C100 1.399 . S
C101 H107 0.930 . S
H102 C82 0.931 . S
H103 C83 0.930 . S
H104 C91 0.931 . S
H105 C92 0.929 . S
H106 C100 0.929 . S
H107 C101 0.930 . S
Mn108 O113 2.095 . S
Mn108 O123 2.162 . S
Mn108 O124 2.297 . S
Mn108 O132 2.385 . S
Mn108 O133 2.209 . S
Mn108 O134 2.094 . S
Mn109 O114 2.121 . S
Mn109 N116 2.257 . S
Mn109 N125 2.282 . S
Mn109 O133 2.215 . S
Mn109 O135 2.117 . S
C110 O132 1.234 . S
C110 O133 1.283 . S
C111 O123 1.281 . S
C111 O124 1.236 . S
C112 O134 1.240 . S
C112 O135 1.264 . S
O113 Mn108 2.095 . S
O113 C122 1.250 1_554 S
O114 Mn109 2.121 . S
O114 C122 1.258 1_554 S
C115 N116 1.326 . S
C115 C119 1.460 . S
C115 H121 0.929 . S
N116 Mn109 2.257 . S
N116 C115 1.326 . S
N116 C120 1.362 . S
C117 C118 1.258 . S
C117 C120 1.431 . S
C117 C137 1.449 . S
C118 C117 1.258 . S
C118 C119 1.477 . S
C118 H138 0.931 . S
C119 C115 1.460 . S
C119 C118 1.477 . S
C119 H139 0.930 . S
C120 N116 1.362 . S
C120 C117 1.431 . S
C120 C130 1.476 . S
H121 C115 0.929 . S
C122 O113 1.250 1_556 S
C122 O114 1.258 1_556 S
O123 Mn108 2.162 . S
O123 C111 1.281 . S
O124 Mn108 2.297 . S
O124 C111 1.236 . S
N125 Mn109 2.282 . S
N125 C126 1.328 . S
N125 C130 1.318 . S
C126 N125 1.328 . S
C126 C127 1.457 . S
C126 H131 0.929 . S
C127 C126 1.457 . S
C127 C128 1.291 . S
C127 H140 0.931 . S
C128 C127 1.291 . S
C128 C129 1.373 . S
C128 H141 0.929 . S
C129 C128 1.373 . S
C129 C130 1.396 . S
C129 C136 1.403 . S
C130 C120 1.476 . S
C130 N125 1.318 . S
C130 C129 1.396 . S
H131 C126 0.929 . S
O132 Mn108 2.385 . S
O132 C110 1.234 . S
O133 Mn108 2.209 . S
O133 Mn109 2.215 . S
O133 C110 1.283 . S
O134 Mn108 2.094 . S
O134 C112 1.240 . S
O135 Mn109 2.117 . S
O135 C112 1.264 . S
C136 C129 1.403 . S
C136 C137 1.399 . S
C136 H142 0.929 . S
C137 C117 1.449 . S
C137 C136 1.399 . S
C137 H143 0.930 . S
H138 C118 0.931 . S
H139 C119 0.930 . S
H140 C127 0.931 . S
H141 C128 0.929 . S
H142 C136 0.929 . S
H143 C137 0.930 . S
Mn144 O149 2.095 . S
Mn144 O159 2.162 . S
Mn144 O160 2.297 . S
Mn144 O168 2.385 . S
Mn144 O169 2.209 . S
Mn144 O170 2.094 . S
Mn145 O150 2.121 . S
Mn145 N152 2.257 . S
Mn145 N161 2.282 . S
Mn145 O169 2.215 . S
Mn145 O171 2.117 . S
C146 O168 1.234 . S
C146 O169 1.283 . S
C147 O159 1.281 . S
C147 O160 1.236 . S
C148 O170 1.240 . S
C148 O171 1.264 . S
O149 Mn144 2.095 . S
O149 C158 1.250 . S
O150 Mn145 2.121 . S
O150 C158 1.258 . S
C151 N152 1.326 . S
C151 C155 1.460 . S
C151 H157 0.929 . S
N152 Mn145 2.257 . S
N152 C151 1.326 . S
N152 C156 1.362 . S
C153 C154 1.258 . S
C153 C156 1.431 . S
C153 C173 1.449 . S
C154 C153 1.258 . S
C154 C155 1.477 . S
C154 H174 0.931 . S
C155 C151 1.460 . S
C155 C154 1.477 . S
C155 H175 0.930 . S
C156 N152 1.362 . S
C156 C153 1.431 . S
C156 C166 1.476 . S
H157 C151 0.929 . S
C158 O149 1.250 . S
C158 O150 1.258 . S
O159 Mn144 2.162 . S
O159 C147 1.281 . S
O160 Mn144 2.297 . S
O160 C147 1.236 . S
N161 Mn145 2.282 . S
N161 C162 1.328 . S
N161 C166 1.318 . S
C162 N161 1.328 . S
C162 C163 1.457 . S
C162 H167 0.929 . S
C163 C162 1.457 . S
C163 C164 1.291 . S
C163 H176 0.931 . S
C164 C163 1.291 . S
C164 C165 1.373 . S
C164 H177 0.929 . S
C165 C164 1.373 . S
C165 C166 1.396 . S
C165 C172 1.403 . S
C166 C156 1.476 . S
C166 N161 1.318 . S
C166 C165 1.396 . S
H167 C162 0.929 . S
O168 Mn144 2.385 . S
O168 C146 1.234 . S
O169 Mn144 2.209 . S
O169 Mn145 2.215 . S
O169 C146 1.283 . S
O170 Mn144 2.094 . S
O170 C148 1.240 . S
O171 Mn145 2.117 . S
O171 C148 1.264 . S
C172 C165 1.403 . S
C172 C173 1.399 . S
C172 H178 0.929 . S
C173 C153 1.449 . S
C173 C172 1.399 . S
C173 H179 0.930 . S
H174 C154 0.931 . S
H175 C155 0.930 . S
H176 C163 0.931 . S
H177 C164 0.929 . S
H178 C172 0.929 . S
H179 C173 0.930 . S
Mn180 O185 2.095 . S
Mn180 O195 2.162 . S
Mn180 O196 2.297 . S
Mn180 O204 2.385 . S
Mn180 O205 2.209 . S
Mn180 O206 2.094 . S
Mn181 O186 2.121 . S
Mn181 N188 2.257 . S
Mn181 N197 2.282 . S
Mn181 O205 2.215 . S
Mn181 O207 2.117 . S
C182 O204 1.234 . S
C182 O205 1.283 . S
C183 O195 1.281 . S
C183 O196 1.236 . S
C184 O206 1.240 . S
C184 O207 1.264 . S
O185 Mn180 2.095 . S
O185 C194 1.250 . S
O186 Mn181 2.121 . S
O186 C194 1.258 . S
C187 N188 1.326 . S
C187 C191 1.460 . S
C187 H193 0.929 . S
N188 Mn181 2.257 . S
N188 C187 1.326 . S
N188 C192 1.362 . S
C189 C190 1.258 . S
C189 C192 1.431 . S
C189 C209 1.449 . S
C190 C189 1.258 . S
C190 C191 1.477 . S
C190 H210 0.931 . S
C191 C187 1.460 . S
C191 C190 1.477 . S
C191 H211 0.930 . S
C192 N188 1.362 . S
C192 C189 1.431 . S
C192 C202 1.476 . S
H193 C187 0.929 . S
C194 O185 1.250 . S
C194 O186 1.258 . S
O195 Mn180 2.162 . S
O195 C183 1.281 . S
O196 Mn180 2.297 . S
O196 C183 1.236 . S
N197 Mn181 2.282 . S
N197 C198 1.328 . S
N197 C202 1.318 . S
C198 N197 1.328 . S
C198 C199 1.457 . S
C198 H203 0.929 . S
C199 C198 1.457 . S
C199 C200 1.291 . S
C199 H212 0.931 . S
C200 C199 1.291 . S
C200 C201 1.373 . S
C200 H213 0.929 . S
C201 C200 1.373 . S
C201 C202 1.396 . S
C201 C208 1.403 . S
C202 C192 1.476 . S
C202 N197 1.318 . S
C202 C201 1.396 . S
H203 C198 0.929 . S
O204 Mn180 2.385 . S
O204 C182 1.234 . S
O205 Mn180 2.209 . S
O205 Mn181 2.215 . S
O205 C182 1.283 . S
O206 Mn180 2.094 . S
O206 C184 1.240 . S
O207 Mn181 2.117 . S
O207 C184 1.264 . S
C208 C201 1.403 . S
C208 C209 1.399 . S
C208 H214 0.929 . S
C209 C189 1.449 . S
C209 C208 1.399 . S
C209 H215 0.930 . S
H210 C190 0.931 . S
H211 C191 0.930 . S
H212 C199 0.931 . S
H213 C200 0.929 . S
H214 C208 0.929 . S
H215 C209 0.930 . S
Mn216 O221 2.095 . S
Mn216 O231 2.162 . S
Mn216 O232 2.297 . S
Mn216 O240 2.385 . S
Mn216 O241 2.209 . S
Mn216 O242 2.094 . S
Mn217 O222 2.121 . S
Mn217 N224 2.257 . S
Mn217 N233 2.282 . S
Mn217 O241 2.215 . S
Mn217 O243 2.117 . S
C218 O240 1.234 . S
C218 O241 1.283 . S
C219 O231 1.281 . S
C219 O232 1.236 . S
C220 O242 1.240 . S
C220 O243 1.264 . S
O221 Mn216 2.095 . S
O221 C230 1.250 . S
O222 Mn217 2.121 . S
O222 C230 1.258 . S
C223 N224 1.326 . S
C223 C227 1.460 . S
C223 H229 0.929 . S
N224 Mn217 2.257 . S
N224 C223 1.326 . S
N224 C228 1.362 . S
C225 C226 1.258 . S
C225 C228 1.431 . S
C225 C245 1.449 . S
C226 C225 1.258 . S
C226 C227 1.477 . S
C226 H246 0.931 . S
C227 C223 1.460 . S
C227 C226 1.477 . S
C227 H247 0.930 . S
C228 N224 1.362 . S
C228 C225 1.431 . S
C228 C238 1.476 . S
H229 C223 0.929 . S
C230 O221 1.250 . S
C230 O222 1.258 . S
O231 Mn216 2.162 . S
O231 C219 1.281 . S
O232 Mn216 2.297 . S
O232 C219 1.236 . S
N233 Mn217 2.282 . S
N233 C234 1.328 . S
N233 C238 1.318 . S
C234 N233 1.328 . S
C234 C235 1.457 . S
C234 H239 0.929 . S
C235 C234 1.457 . S
C235 C236 1.291 . S
C235 H248 0.931 . S
C236 C235 1.291 . S
C236 C237 1.373 . S
C236 H249 0.929 . S
C237 C236 1.373 . S
C237 C238 1.396 . S
C237 C244 1.403 . S
C238 C228 1.476 . S
C238 N233 1.318 . S
C238 C237 1.396 . S
H239 C234 0.929 . S
O240 Mn216 2.385 . S
O240 C218 1.234 . S
O241 Mn216 2.209 . S
O241 Mn217 2.215 . S
O241 C218 1.283 . S
O242 Mn216 2.094 . S
O242 C220 1.240 . S
O243 Mn217 2.117 . S
O243 C220 1.264 . S
C244 C237 1.403 . S
C244 C245 1.399 . S
C244 H250 0.929 . S
C245 C225 1.449 . S
C245 C244 1.399 . S
C245 H251 0.930 . S
H246 C226 0.931 . S
H247 C227 0.930 . S
H248 C235 0.931 . S
H249 C236 0.929 . S
H250 C244 0.929 . S
H251 C245 0.930 . S
Mn252 O257 2.095 . S
Mn252 O267 2.162 . S
Mn252 O268 2.297 . S
Mn252 O276 2.385 1_554 S
Mn252 O277 2.214 . S
Mn252 O278 2.094 . S
Mn253 O258 2.121 . S
Mn253 N260 2.257 . S
Mn253 N269 2.282 1_554 S
Mn253 O277 2.223 . S
Mn253 O279 2.117 . S
C254 O276 1.234 . S
C254 O277 1.269 1_556 S
C255 O267 1.281 . S
C255 O268 1.236 . S
C256 O278 1.240 . S
C256 O279 1.264 . S
O257 Mn252 2.095 . S
O257 C266 1.250 . S
O258 Mn253 2.121 . S
O258 C266 1.258 . S
C259 N260 1.326 . S
C259 C263 1.460 . S
C259 H265 0.929 . S
N260 Mn253 2.257 . S
N260 C259 1.326 . S
N260 C264 1.362 1_554 S
C261 C262 1.258 1_556 S
C261 C264 1.431 . S
C261 C281 1.449 . S
C262 C261 1.258 1_554 S
C262 C263 1.477 . S
C262 H282 0.931 1_554 S
C263 C259 1.460 . S
C263 C262 1.477 . S
C263 H283 0.930 . S
C264 N260 1.362 1_556 S
C264 C261 1.431 . S
C264 C274 1.476 . S
H265 C259 0.929 . S
C266 O257 1.250 . S
C266 O258 1.258 . S
O267 Mn252 2.162 . S
O267 C255 1.281 . S
O268 Mn252 2.297 . S
O268 C255 1.236 . S
N269 Mn253 2.282 1_556 S
N269 C270 1.328 . S
N269 C274 1.318 . S
C270 N269 1.328 . S
C270 C271 1.457 . S
C270 H275 0.929 . S
C271 C270 1.457 . S
C271 C272 1.291 . S
C271 H284 0.931 . S
C272 C271 1.291 . S
C272 C273 1.373 . S
C272 H285 0.929 . S
C273 C272 1.373 . S
C273 C274 1.396 . S
C273 C280 1.403 . S
C274 C264 1.476 . S
C274 N269 1.318 . S
C274 C273 1.396 . S
H275 C270 0.929 . S
O276 Mn252 2.385 1_556 S
O276 C254 1.234 . S
O277 Mn252 2.214 . S
O277 Mn253 2.223 . S
O277 C254 1.269 1_554 S
O278 Mn252 2.094 . S
O278 C256 1.240 . S
O279 Mn253 2.117 . S
O279 C256 1.264 . S
C280 C273 1.403 . S
C280 C281 1.399 . S
C280 H286 0.929 . S
C281 C261 1.449 . S
C281 C280 1.399 . S
C281 H287 0.930 . S
H282 C262 0.931 1_556 S
H283 C263 0.930 . S
H284 C271 0.931 . S
H285 C272 0.929 . S
H286 C280 0.929 . S
H287 C281 0.930 . S
H288 C306 0.951 . S
H289 C308 0.951 . S
H290 C310 0.950 . S
H291 C311 0.950 . S
H292 C313 0.950 . S
H293 C316 0.950 . S
H294 C317 0.950 . S
H295 C319 0.950 . S
H296 C320 0.950 . S
H297 C321 0.951 . S
H298 C323 0.951 . S
H299 C325 0.950 . S
H300 C326 0.950 . S
H301 C328 0.950 . S
H302 C331 0.950 . S
H303 C332 0.950 . S
H304 C334 0.950 . S
H305 C335 0.950 . S
C306 H288 0.951 . S
C306 C307 1.366 . S
C306 C308 1.388 . S
C307 C306 1.366 . S
C307 C311 1.385 . S
C308 H289 0.951 . S
C308 C306 1.388 . S
C308 C309 1.366 . S
C309 C308 1.366 . S
C309 C310 1.414 . S
C309 C312 1.499 . S
C310 H290 0.950 . S
C310 C309 1.414 . S
C310 C311 1.374 . S
C311 H291 0.950 . S
C311 C307 1.385 . S
C311 C310 1.374 . S
C312 C309 1.499 . S
C312 C313 1.373 . S
C312 C314 1.389 . S
C313 H292 0.950 . S
C313 C312 1.373 . S
C313 C329 1.377 . S
C314 C312 1.389 . S
C314 C315 1.524 . S
C314 C328 1.377 . S
C315 C314 1.524 . S
C315 C316 1.397 . S
C315 C320 1.363 . S
C316 H293 0.950 . S
C316 C315 1.397 . S
C316 C317 1.334 . S
C317 H294 0.950 . S
C317 C316 1.334 . S
C317 C318 1.287 . S
C318 C317 1.287 . S
C318 C319 1.524 . S
C318 H337 0.913 . S
C319 H295 0.950 . S
C319 C318 1.524 . S
C319 C320 1.415 . S
C320 H296 0.950 . S
C320 C315 1.363 . S
C320 C319 1.415 . S
C321 H297 0.951 . S
C321 C322 1.366 . S
C321 C323 1.388 . S
C322 C321 1.366 . S
C322 C326 1.385 . S
C323 H298 0.951 . S
C323 C321 1.388 . S
C323 C324 1.366 . S
C324 C323 1.366 . S
C324 C325 1.414 . S
C324 C327 1.499 . S
C325 H299 0.950 . S
C325 C324 1.414 . S
C325 C326 1.374 . S
C326 H300 0.950 . S
C326 C322 1.385 . S
C326 C325 1.374 . S
C327 C324 1.499 . S
C327 C328 1.373 . S
C327 C329 1.389 . S
C328 H301 0.950 . S
C328 C314 1.377 . S
C328 C327 1.373 . S
C329 C313 1.377 . S
C329 C327 1.389 . S
C329 C330 1.524 . S
C330 C329 1.524 . S
C330 C331 1.397 . S
C330 C335 1.363 . S
C331 H302 0.950 . S
C331 C330 1.397 . S
C331 C332 1.334 . S
C332 H303 0.950 . S
C332 C331 1.334 . S
C332 C333 1.287 . S
C333 C332 1.287 . S
C333 C334 1.524 . S
C333 H336 0.999 . S
C334 H304 0.950 . S
C334 C333 1.524 . S
C334 C335 1.415 . S
C335 H305 0.950 . S
C335 C330 1.363 . S
C335 C334 1.415 . S
H336 C333 0.999 . S
H337 C318 0.913 . S
H338 C356 0.951 . S
H339 C358 0.951 . S
H340 C360 0.950 . S
H341 C361 0.950 . S
H342 C363 0.950 . S
H343 C366 0.950 . S
H344 C367 0.950 . S
H345 C369 0.950 . S
H346 C370 0.950 . S
H347 C371 0.951 . S
H348 C373 0.951 . S
H349 C375 0.950 . S
H350 C376 0.950 . S
H351 C378 0.950 . S
H352 C381 0.950 . S
H353 C382 0.950 . S
H354 C384 0.950 . S
H355 C385 0.950 . S
C356 H338 0.951 . S
C356 C357 1.366 . S
C356 C358 1.388 . S
C357 C356 1.366 . S
C357 C361 1.385 . S
C358 H339 0.951 . S
C358 C356 1.388 . S
C358 C359 1.366 . S
C359 C358 1.366 . S
C359 C360 1.414 . S
C359 C362 1.499 . S
C360 H340 0.950 . S
C360 C359 1.414 . S
C360 C361 1.374 . S
C361 H341 0.950 . S
C361 C357 1.385 . S
C361 C360 1.374 . S
C362 C359 1.499 . S
C362 C363 1.373 . S
C362 C364 1.389 . S
C363 H342 0.950 . S
C363 C362 1.373 . S
C363 C379 1.377 . S
C364 C362 1.389 . S
C364 C365 1.524 . S
C364 C378 1.377 . S
C365 C364 1.524 . S
C365 C366 1.397 . S
C365 C370 1.363 . S
C366 H343 0.950 . S
C366 C365 1.397 . S
C366 C367 1.334 . S
C367 H344 0.950 . S
C367 C366 1.334 . S
C367 C368 1.287 . S
C368 C367 1.287 . S
C368 C369 1.524 . S
C368 H387 0.913 . S
C369 H345 0.950 . S
C369 C368 1.524 . S
C369 C370 1.415 . S
C370 H346 0.950 . S
C370 C365 1.363 . S
C370 C369 1.415 . S
C371 H347 0.951 . S
C371 C372 1.366 . S
C371 C373 1.388 . S
C372 C371 1.366 . S
C372 C376 1.385 . S
C373 H348 0.951 . S
C373 C371 1.388 . S
C373 C374 1.366 . S
C374 C373 1.366 . S
C374 C375 1.414 . S
C374 C377 1.499 . S
C375 H349 0.950 . S
C375 C374 1.414 . S
C375 C376 1.374 . S
C376 H350 0.950 . S
C376 C372 1.385 . S
C376 C375 1.374 . S
C377 C374 1.499 . S
C377 C378 1.373 . S
C377 C379 1.389 . S
C378 H351 0.950 . S
C378 C364 1.377 . S
C378 C377 1.373 . S
C379 C363 1.377 . S
C379 C377 1.389 . S
C379 C380 1.524 . S
C380 C379 1.524 . S
C380 C381 1.397 . S
C380 C385 1.363 . S
C381 H352 0.950 . S
C381 C380 1.397 . S
C381 C382 1.334 . S
C382 H353 0.950 . S
C382 C381 1.334 . S
C382 C383 1.287 . S
C383 C382 1.287 . S
C383 C384 1.524 . S
C383 H386 0.999 . S
C384 H354 0.950 . S
C384 C383 1.524 . S
C384 C385 1.415 . S
C385 H355 0.950 . S
C385 C380 1.363 . S
C385 C384 1.415 . S
H386 C383 0.999 . S
H387 C368 0.913 . S
H388 C406 0.951 . S
H389 C408 0.951 . S
H390 C410 0.950 . S
H391 C411 0.950 . S
H392 C413 0.950 . S
H393 C416 0.950 . S
H394 C417 0.950 . S
H395 C419 0.950 . S
H396 C420 0.950 . S
H397 C421 0.951 . S
H398 C423 0.951 . S
H399 C425 0.950 . S
H400 C426 0.950 . S
H401 C428 0.950 1_556 S
H402 C431 0.964 . S
H403 C432 0.950 . S
H404 C434 0.950 . S
H405 C435 0.950 . S
C406 H388 0.951 . S
C406 C407 1.366 . S
C406 C408 1.388 . S
C407 C406 1.366 . S
C407 C411 1.385 . S
C408 H389 0.951 . S
C408 C406 1.388 . S
C408 C409 1.366 . S
C409 C408 1.366 . S
C409 C410 1.414 . S
C409 C412 1.499 . S
C410 H390 0.950 . S
C410 C409 1.414 . S
C410 C411 1.374 . S
C411 H391 0.950 . S
C411 C407 1.385 . S
C411 C410 1.374 . S
C412 C409 1.499 . S
C412 C413 1.373 . S
C412 C414 1.389 . S
C413 H392 0.950 . S
C413 C412 1.373 . S
C413 C429 1.377 . S
C414 C412 1.389 . S
C414 C415 1.524 . S
C414 C428 1.377 . S
C415 C414 1.524 . S
C415 C416 1.397 . S
C415 C420 1.363 . S
C416 H393 0.950 . S
C416 C415 1.397 . S
C416 C417 1.334 . S
C417 H394 0.950 . S
C417 C416 1.334 . S
C417 C418 1.287 . S
C418 C417 1.287 . S
C418 C419 1.524 . S
C418 H437 0.913 . S
C419 H395 0.950 . S
C419 C418 1.524 . S
C419 C420 1.415 . S
C420 H396 0.950 . S
C420 C415 1.363 . S
C420 C419 1.415 . S
C421 H397 0.951 . S
C421 C422 1.366 . S
C421 C423 1.388 . S
C422 C421 1.366 . S
C422 C426 1.385 . S
C423 H398 0.951 . S
C423 C421 1.388 . S
C423 C424 1.366 . S
C424 C423 1.366 . S
C424 C425 1.414 . S
C424 C427 1.499 1_556 S
C425 H399 0.950 . S
C425 C424 1.414 . S
C425 C426 1.374 . S
C426 H400 0.950 . S
C426 C422 1.385 . S
C426 C425 1.374 . S
C427 C424 1.499 1_554 S
C427 C428 1.373 . S
C427 C429 1.389 . S
C428 H401 0.950 1_554 S
C428 C414 1.377 . S
C428 C427 1.373 . S
C429 C413 1.377 . S
C429 C427 1.389 . S
C429 C430 1.524 . S
C430 C429 1.524 . S
C430 C431 1.378 1_554 S
C430 C435 1.363 . S
C431 H402 0.964 . S
C431 C430 1.378 1_556 S
C431 C432 1.338 . S
C432 H403 0.950 . S
C432 C431 1.338 . S
C432 C433 1.287 1_556 S
C433 C432 1.287 1_554 S
C433 C434 1.524 . S
C433 H436 0.999 . S
C434 H404 0.950 . S
C434 C433 1.524 . S
C434 C435 1.415 . S
C435 H405 0.950 . S
C435 C430 1.363 . S
C435 C434 1.415 . S
H436 C433 0.999 . S
H437 C418 0.913 . S
H438 C456 0.951 . S
H439 C458 0.951 . S
H440 C460 0.950 . S
H441 C461 0.950 . S
H442 C463 0.950 . S
H443 C466 0.950 . S
H444 C467 0.950 . S
H445 C469 0.950 . S
H446 C470 0.950 . S
H447 C471 0.951 . S
H448 C473 0.951 . S
H449 C475 0.950 . S
H450 C476 0.950 . S
H451 C478 0.950 . S
H452 C481 0.950 . S
H453 C482 0.950 . S
H454 C484 0.950 . S
H455 C485 0.950 . S
C456 H438 0.951 . S
C456 C457 1.366 . S
C456 C458 1.388 . S
C457 C456 1.366 . S
C457 C461 1.385 . S
C458 H439 0.951 . S
C458 C456 1.388 . S
C458 C459 1.366 . S
C459 C458 1.366 . S
C459 C460 1.414 . S
C459 C462 1.499 . S
C460 H440 0.950 . S
C460 C459 1.414 . S
C460 C461 1.374 . S
C461 H441 0.950 . S
C461 C457 1.385 . S
C461 C460 1.374 . S
C462 C459 1.499 . S
C462 C463 1.373 . S
C462 C464 1.389 . S
C463 H442 0.950 . S
C463 C462 1.373 . S
C463 C479 1.377 . S
C464 C462 1.389 . S
C464 C465 1.524 . S
C464 C478 1.377 . S
C465 C464 1.524 . S
C465 C466 1.397 . S
C465 C470 1.363 . S
C466 H443 0.950 . S
C466 C465 1.397 . S
C466 C467 1.334 . S
C467 H444 0.950 . S
C467 C466 1.334 . S
C467 C468 1.287 . S
C468 C467 1.287 . S
C468 C469 1.524 . S
C468 H487 0.913 . S
C469 H445 0.950 . S
C469 C468 1.524 . S
C469 C470 1.415 . S
C470 H446 0.950 . S
C470 C465 1.363 . S
C470 C469 1.415 . S
C471 H447 0.951 . S
C471 C472 1.366 . S
C471 C473 1.388 . S
C472 C471 1.366 . S
C472 C476 1.385 . S
C473 H448 0.951 . S
C473 C471 1.388 . S
C473 C474 1.366 . S
C474 C473 1.366 . S
C474 C475 1.414 . S
C474 C477 1.499 . S
C475 H449 0.950 . S
C475 C474 1.414 . S
C475 C476 1.374 . S
C476 H450 0.950 . S
C476 C472 1.385 . S
C476 C475 1.374 . S
C477 C474 1.499 . S
C477 C478 1.373 . S
C477 C479 1.389 . S
C478 H451 0.950 . S
C478 C464 1.377 . S
C478 C477 1.373 . S
C479 C463 1.377 . S
C479 C477 1.389 . S
C479 C480 1.524 . S
C480 C479 1.524 . S
C480 C481 1.397 . S
C480 C485 1.363 . S
C481 H452 0.950 . S
C481 C480 1.397 . S
C481 C482 1.334 . S
C482 H453 0.950 . S
C482 C481 1.334 . S
C482 C483 1.287 . S
C483 C482 1.287 . S
C483 C484 1.524 . S
C483 H486 0.999 . S
C484 H454 0.950 . S
C484 C483 1.524 . S
C484 C485 1.415 . S
C485 H455 0.950 . S
C485 C480 1.363 . S
C485 C484 1.415 . S
H486 C483 0.999 . S
H487 C468 0.913 . S
H488 C506 0.951 . S
H489 C508 0.951 . S
H490 C510 0.950 . S
H491 C511 0.950 . S
H492 C513 0.950 . S
H493 C516 0.950 . S
H494 C517 0.950 . S
H495 C519 0.950 . S
H496 C520 0.950 . S
H497 C521 0.951 . S
H498 C523 0.951 . S
H499 C525 0.950 . S
H500 C526 0.950 . S
H501 C528 0.950 . S
H502 C531 0.950 . S
H503 C532 0.950 . S
H504 C534 0.950 . S
H505 C535 0.950 . S
C506 H488 0.951 . S
C506 C507 1.366 . S
C506 C508 1.388 . S
C507 C506 1.366 . S
C507 C511 1.385 . S
C508 H489 0.951 . S
C508 C506 1.388 . S
C508 C509 1.366 . S
C509 C508 1.366 . S
C509 C510 1.414 . S
C509 C512 1.499 . S
C510 H490 0.950 . S
C510 C509 1.414 . S
C510 C511 1.374 . S
C511 H491 0.950 . S
C511 C507 1.385 . S
C511 C510 1.374 . S
C512 C509 1.499 . S
C512 C513 1.373 . S
C512 C514 1.389 . S
C513 H492 0.950 . S
C513 C512 1.373 . S
C513 C529 1.377 . S
C514 C512 1.389 . S
C514 C515 1.524 . S
C514 C528 1.377 . S
C515 C514 1.524 . S
C515 C516 1.397 . S
C515 C520 1.363 . S
C516 H493 0.950 . S
C516 C515 1.397 . S
C516 C517 1.334 . S
C517 H494 0.950 . S
C517 C516 1.334 . S
C517 C518 1.287 . S
C518 C517 1.287 . S
C518 C519 1.524 . S
C518 H537 0.913 . S
C519 H495 0.950 . S
C519 C518 1.524 . S
C519 C520 1.415 . S
C520 H496 0.950 . S
C520 C515 1.363 . S
C520 C519 1.415 . S
C521 H497 0.951 . S
C521 C522 1.366 . S
C521 C523 1.388 . S
C522 C521 1.366 . S
C522 C526 1.385 . S
C523 H498 0.951 . S
C523 C521 1.388 . S
C523 C524 1.366 . S
C524 C523 1.366 . S
C524 C525 1.414 . S
C524 C527 1.499 . S
C525 H499 0.950 . S
C525 C524 1.414 . S
C525 C526 1.374 . S
C526 H500 0.950 . S
C526 C522 1.385 . S
C526 C525 1.374 . S
C527 C524 1.499 . S
C527 C528 1.373 . S
C527 C529 1.389 . S
C528 H501 0.950 . S
C528 C514 1.377 . S
C528 C527 1.373 . S
C529 C513 1.377 . S
C529 C527 1.389 . S
C529 C530 1.524 . S
C530 C529 1.524 . S
C530 C531 1.397 . S
C530 C535 1.363 . S
C531 H502 0.950 . S
C531 C530 1.397 . S
C531 C532 1.334 . S
C532 H503 0.950 . S
C532 C531 1.334 . S
C532 C533 1.287 . S
C533 C532 1.287 . S
C533 C534 1.524 . S
C533 H536 0.999 . S
C534 H504 0.950 . S
C534 C533 1.524 . S
C534 C535 1.415 . S
C535 H505 0.950 . S
C535 C530 1.363 . S
C535 C534 1.415 . S
H536 C533 0.999 . S
H537 C518 0.913 . S
H538 C556 0.951 . S
H539 C558 0.951 . S
H540 C560 0.950 . S
H541 C561 0.950 . S
H542 C563 0.950 . S
H543 C566 0.950 . S
H544 C567 0.950 . S
H545 C569 0.950 . S
H546 C570 0.950 . S
H547 C571 0.951 . S
H548 C573 0.951 . S
H549 C575 0.950 . S
H550 C576 0.950 . S
H551 C578 0.950 . S
H552 C581 0.950 . S
H553 C582 0.950 . S
H554 C584 0.950 . S
H555 C585 0.950 . S
C556 H538 0.951 . S
C556 C557 1.366 . S
C556 C558 1.388 . S
C557 C556 1.366 . S
C557 C561 1.385 . S
C558 H539 0.951 . S
C558 C556 1.388 . S
C558 C559 1.366 . S
C559 C558 1.366 . S
C559 C560 1.414 . S
C559 C562 1.499 . S
C560 H540 0.950 . S
C560 C559 1.414 . S
C560 C561 1.374 . S
C561 H541 0.950 . S
C561 C557 1.385 . S
C561 C560 1.374 . S
C562 C559 1.499 . S
C562 C563 1.373 . S
C562 C564 1.389 . S
C563 H542 0.950 . S
C563 C562 1.373 . S
C563 C579 1.377 . S
C564 C562 1.389 . S
C564 C565 1.524 . S
C564 C578 1.377 . S
C565 C564 1.524 . S
C565 C566 1.397 . S
C565 C570 1.363 . S
C566 H543 0.950 . S
C566 C565 1.397 . S
C566 C567 1.334 . S
C567 H544 0.950 . S
C567 C566 1.334 . S
C567 C568 1.287 . S
C568 C567 1.287 . S
C568 C569 1.524 . S
C568 H587 0.913 . S
C569 H545 0.950 . S
C569 C568 1.524 . S
C569 C570 1.415 . S
C570 H546 0.950 . S
C570 C565 1.363 . S
C570 C569 1.415 . S
C571 H547 0.951 . S
C571 C572 1.366 . S
C571 C573 1.388 . S
C572 C571 1.366 . S
C572 C576 1.385 . S
C573 H548 0.951 . S
C573 C571 1.388 . S
C573 C574 1.366 . S
C574 C573 1.366 . S
C574 C575 1.414 . S
C574 C577 1.499 . S
C575 H549 0.950 . S
C575 C574 1.414 . S
C575 C576 1.374 . S
C576 H550 0.950 . S
C576 C572 1.385 . S
C576 C575 1.374 . S
C577 C574 1.499 . S
C577 C578 1.373 . S
C577 C579 1.389 . S
C578 H551 0.950 . S
C578 C564 1.377 . S
C578 C577 1.373 . S
C579 C563 1.377 . S
C579 C577 1.389 . S
C579 C580 1.524 . S
C580 C579 1.524 . S
C580 C581 1.397 . S
C580 C585 1.363 . S
C581 H552 0.950 . S
C581 C580 1.397 . S
C581 C582 1.334 . S
C582 H553 0.950 . S
C582 C581 1.334 . S
C582 C583 1.287 . S
C583 C582 1.287 . S
C583 C584 1.524 . S
C583 H586 0.999 . S
C584 H554 0.950 . S
C584 C583 1.524 . S
C584 C585 1.415 . S
C585 H555 0.950 . S
C585 C580 1.363 . S
C585 C584 1.415 . S
H586 C583 0.999 . S
H587 C568 0.913 . S
H588 C606 0.951 . S
H589 C608 0.951 . S
H590 C610 0.950 . S
H591 C611 0.950 . S
H592 C613 0.950 . S
H593 C616 0.950 . S
H594 C617 0.950 . S
H595 C619 0.950 . S
H596 C620 0.950 . S
H597 C621 0.951 . S
H598 C623 0.951 . S
H599 C625 0.950 . S
H600 C626 0.950 . S
H601 C628 0.950 . S
H602 C631 0.950 . S
H603 C632 0.950 . S
H604 C634 0.950 . S
H605 C635 0.950 . S
C606 H588 0.951 . S
C606 C607 1.366 . S
C606 C608 1.388 . S
C607 C606 1.366 . S
C607 C611 1.385 1_554 S
C608 H589 0.951 . S
C608 C606 1.388 . S
C608 C609 1.366 1_554 S
C609 C608 1.366 1_556 S
C609 C610 1.414 . S
C609 C612 1.499 . S
C610 H590 0.950 . S
C610 C609 1.414 . S
C610 C611 1.374 . S
C611 H591 0.950 . S
C611 C607 1.385 1_556 S
C611 C610 1.374 . S
C612 C609 1.499 . S
C612 C613 1.373 . S
C612 C614 1.389 . S
C613 H592 0.950 . S
C613 C612 1.373 . S
C613 C629 1.377 . S
C614 C612 1.389 . S
C614 C615 1.524 . S
C614 C628 1.377 . S
C615 C614 1.524 . S
C615 C616 1.397 . S
C615 C620 1.363 1_556 S
C616 H593 0.950 . S
C616 C615 1.397 . S
C616 C617 1.334 . S
C617 H594 0.950 . S
C617 C616 1.334 . S
C617 C618 1.287 1_556 S
C618 C617 1.287 1_554 S
C618 C619 1.524 . S
C618 H637 0.913 . S
C619 H595 0.950 . S
C619 C618 1.524 . S
C619 C620 1.415 . S
C620 H596 0.950 . S
C620 C615 1.363 1_554 S
C620 C619 1.415 . S
C621 H597 0.951 . S
C621 C622 1.366 . S
C621 C623 1.388 . S
C622 C621 1.366 . S
C622 C626 1.385 . S
C623 H598 0.951 . S
C623 C621 1.388 . S
C623 C624 1.366 . S
C624 C623 1.366 . S
C624 C625 1.414 . S
C624 C627 1.499 . S
C625 H599 0.950 . S
C625 C624 1.414 . S
C625 C626 1.374 . S
C626 H600 0.950 . S
C626 C622 1.385 . S
C626 C625 1.374 . S
C627 C624 1.499 . S
C627 C628 1.373 . S
C627 C629 1.389 . S
C628 H601 0.950 . S
C628 C614 1.377 . S
C628 C627 1.373 . S
C629 C613 1.377 . S
C629 C627 1.389 . S
C629 C630 1.524 . S
C630 C629 1.524 . S
C630 C631 1.397 . S
C630 C635 1.363 . S
C631 H602 0.950 . S
C631 C630 1.397 . S
C631 C632 1.334 . S
C632 H603 0.950 . S
C632 C631 1.334 . S
C632 C633 1.287 . S
C633 C632 1.287 . S
C633 C634 1.524 . S
C633 H636 0.999 . S
C634 H604 0.950 . S
C634 C633 1.524 . S
C634 C635 1.415 . S
C635 H605 0.950 . S
C635 C630 1.363 . S
C635 C634 1.415 . S
H636 C633 0.999 . S
H637 C618 0.913 . S
H638 C656 0.951 . S
H639 C658 0.951 . S
H640 C660 0.950 . S
H641 C661 0.950 . S
H642 C663 0.950 . S
H643 C666 0.950 . S
H644 C667 0.950 . S
H645 C669 0.950 . S
H646 C670 0.950 . S
H647 C671 0.951 . S
H648 C673 0.951 . S
H649 C675 0.950 . S
H650 C676 0.950 . S
H651 C678 0.950 . S
H652 C681 0.950 . S
H653 C682 0.950 . S
H654 C684 0.950 . S
H655 C685 0.950 . S
C656 H638 0.951 . S
C656 C657 1.366 . S
C656 C658 1.388 . S
C657 C656 1.366 . S
C657 C661 1.385 . S
C658 H639 0.951 . S
C658 C656 1.388 . S
C658 C659 1.366 . S
C659 C658 1.366 . S
C659 C660 1.414 . S
C659 C662 1.499 . S
C660 H640 0.950 . S
C660 C659 1.414 . S
C660 C661 1.374 . S
C661 H641 0.950 . S
C661 C657 1.385 . S
C661 C660 1.374 . S
C662 C659 1.499 . S
C662 C663 1.373 . S
C662 C664 1.389 . S
C663 H642 0.950 . S
C663 C662 1.373 . S
C663 C679 1.377 . S
C664 C662 1.389 . S
C664 C665 1.524 . S
C664 C678 1.377 . S
C665 C664 1.524 . S
C665 C666 1.397 . S
C665 C670 1.363 . S
C666 H643 0.950 . S
C666 C665 1.397 . S
C666 C667 1.334 . S
C667 H644 0.950 . S
C667 C666 1.334 . S
C667 C668 1.287 . S
C668 C667 1.287 . S
C668 C669 1.524 . S
C668 H687 0.913 . S
C669 H645 0.950 . S
C669 C668 1.524 . S
C669 C670 1.415 . S
C670 H646 0.950 . S
C670 C665 1.363 . S
C670 C669 1.415 . S
C671 H647 0.951 . S
C671 C672 1.366 . S
C671 C673 1.388 . S
C672 C671 1.366 . S
C672 C676 1.385 . S
C673 H648 0.951 . S
C673 C671 1.388 . S
C673 C674 1.366 . S
C674 C673 1.366 . S
C674 C675 1.414 . S
C674 C677 1.499 . S
C675 H649 0.950 . S
C675 C674 1.414 . S
C675 C676 1.374 . S
C676 H650 0.950 . S
C676 C672 1.385 . S
C676 C675 1.374 . S
C677 C674 1.499 . S
C677 C678 1.373 . S
C677 C679 1.389 . S
C678 H651 0.950 . S
C678 C664 1.377 . S
C678 C677 1.373 . S
C679 C663 1.377 . S
C679 C677 1.389 . S
C679 C680 1.524 . S
C680 C679 1.524 . S
C680 C681 1.397 . S
C680 C685 1.363 . S
C681 H652 0.950 . S
C681 C680 1.397 . S
C681 C682 1.334 . S
C682 H653 0.950 . S
C682 C681 1.334 . S
C682 C683 1.287 . S
C683 C682 1.287 . S
C683 C684 1.524 . S
C683 H686 0.999 . S
C684 H654 0.950 . S
C684 C683 1.524 . S
C684 C685 1.415 . S
C685 H655 0.950 . S
C685 C680 1.363 . S
C685 C684 1.415 . S
H686 C683 0.999 . S
H687 C668 0.913 . S
H688 C706 0.951 . S
H689 C708 0.951 . S
H690 C710 0.950 . S
H691 C711 0.950 . S
H692 C713 0.950 . S
H693 C716 0.950 . S
H694 C717 0.950 . S
H695 C719 0.950 . S
H696 C720 0.950 . S
H697 C721 0.951 . S
H698 C723 0.951 . S
H699 C725 0.950 . S
H700 C726 0.950 . S
H701 C728 0.950 . S
H702 C731 0.950 . S
H703 C732 0.950 . S
H704 C734 0.950 . S
H705 C735 0.950 . S
C706 H688 0.951 . S
C706 C707 1.366 . S
C706 C708 1.388 . S
C707 C706 1.366 . S
C707 C711 1.385 . S
C708 H689 0.951 . S
C708 C706 1.388 . S
C708 C709 1.366 . S
C709 C708 1.366 . S
C709 C710 1.414 . S
C709 C712 1.499 . S
C710 H690 0.950 . S
C710 C709 1.414 . S
C710 C711 1.374 . S
C711 H691 0.950 . S
C711 C707 1.385 . S
C711 C710 1.374 . S
C712 C709 1.499 . S
C712 C713 1.373 . S
C712 C714 1.389 . S
C713 H692 0.950 . S
C713 C712 1.373 . S
C713 C729 1.377 1_565 S
C714 C712 1.389 . S
C714 C715 1.524 . S
C714 C728 1.377 1_565 S
C715 C714 1.524 . S
C715 C716 1.397 . S
C715 C720 1.363 . S
C716 H693 0.950 . S
C716 C715 1.397 . S
C716 C717 1.334 . S
C717 H694 0.950 . S
C717 C716 1.334 . S
C717 C718 1.287 . S
C718 C717 1.287 . S
C718 C719 1.524 . S
C718 H737 0.913 . S
C719 H695 0.950 . S
C719 C718 1.524 . S
C719 C720 1.415 . S
C720 H696 0.950 . S
C720 C715 1.363 . S
C720 C719 1.415 . S
C721 H697 0.951 . S
C721 C722 1.366 . S
C721 C723 1.388 . S
C722 C721 1.366 . S
C722 C726 1.385 . S
C723 H698 0.951 . S
C723 C721 1.388 . S
C723 C724 1.366 . S
C724 C723 1.366 . S
C724 C725 1.414 . S
C724 C727 1.499 . S
C725 H699 0.950 . S
C725 C724 1.414 . S
C725 C726 1.374 . S
C726 H700 0.950 . S
C726 C722 1.385 . S
C726 C725 1.374 . S
C727 C724 1.499 . S
C727 C728 1.373 . S
C727 C729 1.389 . S
C728 H701 0.950 . S
C728 C714 1.377 1_545 S
C728 C727 1.373 . S
C729 C713 1.377 1_545 S
C729 C727 1.389 . S
C729 C730 1.524 . S
C730 C729 1.524 . S
C730 C731 1.397 . S
C730 C735 1.363 . S
C731 H702 0.950 . S
C731 C730 1.397 . S
C731 C732 1.334 . S
C732 H703 0.950 . S
C732 C731 1.334 . S
C732 C733 1.287 . S
C733 C732 1.287 . S
C733 C734 1.524 . S
C733 H736 0.999 . S
C734 H704 0.950 . S
C734 C733 1.524 . S
C734 C735 1.415 . S
C735 H705 0.950 . S
C735 C730 1.363 . S
C735 C734 1.415 . S
H736 C733 0.999 . S
H737 C718 0.913 . S
H738 C756 0.951 . S
H739 C758 0.951 . S
H740 C760 0.950 . S
H741 C761 0.950 . S
H742 C763 0.950 . S
H743 C766 0.950 . S
H744 C767 0.950 . S
H745 C769 0.950 . S
H746 C770 0.950 . S
H747 C771 0.951 . S
H748 C773 0.951 . S
H749 C775 0.950 . S
H750 C776 0.950 . S
H751 C778 0.950 . S
H752 C781 0.950 . S
H753 C782 0.950 . S
H754 C784 0.950 . S
H755 C785 0.950 . S
C756 H738 0.951 . S
C756 C757 1.366 . S
C756 C758 1.388 . S
C757 C756 1.366 . S
C757 C761 1.385 . S
C758 H739 0.951 . S
C758 C756 1.388 . S
C758 C759 1.366 . S
C759 C758 1.366 . S
C759 C760 1.414 . S
C759 C762 1.499 . S
C760 H740 0.950 . S
C760 C759 1.414 . S
C760 C761 1.374 . S
C761 H741 0.950 . S
C761 C757 1.385 . S
C761 C760 1.374 . S
C762 C759 1.499 . S
C762 C763 1.373 . S
C762 C764 1.389 . S
C763 H742 0.950 . S
C763 C762 1.373 . S
C763 C779 1.377 1_655 S
C764 C762 1.389 . S
C764 C765 1.524 . S
C764 C778 1.377 1_655 S
C765 C764 1.524 . S
C765 C766 1.397 . S
C765 C770 1.363 . S
C766 H743 0.950 . S
C766 C765 1.397 . S
C766 C767 1.334 . S
C767 H744 0.950 . S
C767 C766 1.334 . S
C767 C768 1.287 . S
C768 C767 1.287 . S
C768 C769 1.524 . S
C768 H787 0.913 . S
C769 H745 0.950 . S
C769 C768 1.524 . S
C769 C770 1.415 . S
C770 H746 0.950 . S
C770 C765 1.363 . S
C770 C769 1.415 . S
C771 H747 0.951 . S
C771 C772 1.366 . S
C771 C773 1.388 . S
C772 C771 1.366 . S
C772 C776 1.385 . S
C773 H748 0.951 . S
C773 C771 1.388 . S
C773 C774 1.366 . S
C774 C773 1.366 . S
C774 C775 1.414 . S
C774 C777 1.499 . S
C775 H749 0.950 . S
C775 C774 1.414 . S
C775 C776 1.374 . S
C776 H750 0.950 . S
C776 C772 1.385 . S
C776 C775 1.374 . S
C777 C774 1.499 . S
C777 C778 1.373 . S
C777 C779 1.389 . S
C778 H751 0.950 . S
C778 C764 1.377 1_455 S
C778 C777 1.373 . S
C779 C763 1.377 1_455 S
C779 C777 1.389 . S
C779 C780 1.524 . S
C780 C779 1.524 . S
C780 C781 1.397 . S
C780 C785 1.363 . S
C781 H752 0.950 . S
C781 C780 1.397 . S
C781 C782 1.334 . S
C782 H753 0.950 . S
C782 C781 1.334 . S
C782 C783 1.287 . S
C783 C782 1.287 . S
C783 C784 1.524 . S
C783 H786 0.999 . S
C784 H754 0.950 . S
C784 C783 1.524 . S
C784 C785 1.415 . S
C785 H755 0.950 . S
C785 C780 1.363 . S
C785 C784 1.415 . S
H786 C783 0.999 . S
H787 C768 0.913 . S
H788 C806 0.951 . S
H789 C808 0.951 . S
H790 C810 0.950 . S
H791 C811 0.950 . S
H792 C813 0.950 . S
H793 C816 0.950 . S
H794 C817 0.950 . S
H795 C819 0.950 . S
H796 C820 0.950 . S
H797 C821 0.951 . S
H798 C823 0.951 . S
H799 C825 0.950 . S
H800 C826 0.950 . S
H801 C828 0.950 . S
H802 C831 0.950 . S
H803 C832 0.950 . S
H804 C834 0.950 . S
H805 C835 0.950 . S
C806 H788 0.951 . S
C806 C807 1.366 . S
C806 C808 1.388 . S
C807 C806 1.366 . S
C807 C811 1.385 . S
C808 H789 0.951 . S
C808 C806 1.388 . S
C808 C809 1.366 . S
C809 C808 1.366 . S
C809 C810 1.414 . S
C809 C812 1.499 . S
C810 H790 0.950 . S
C810 C809 1.414 . S
C810 C811 1.374 . S
C811 H791 0.950 . S
C811 C807 1.385 . S
C811 C810 1.374 . S
C812 C809 1.499 . S
C812 C813 1.373 . S
C812 C814 1.389 . S
C813 H792 0.950 . S
C813 C812 1.373 . S
C813 C829 1.377 1_565 S
C814 C812 1.389 . S
C814 C815 1.524 . S
C814 C828 1.377 1_565 S
C815 C814 1.524 . S
C815 C816 1.397 . S
C815 C820 1.363 . S
C816 H793 0.950 . S
C816 C815 1.397 . S
C816 C817 1.334 . S
C817 H794 0.950 . S
C817 C816 1.334 . S
C817 C818 1.287 . S
C818 C817 1.287 . S
C818 C819 1.524 . S
C818 H837 0.913 . S
C819 H795 0.950 . S
C819 C818 1.524 . S
C819 C820 1.415 . S
C820 H796 0.950 . S
C820 C815 1.363 . S
C820 C819 1.415 . S
C821 H797 0.951 . S
C821 C822 1.366 . S
C821 C823 1.388 . S
C822 C821 1.366 . S
C822 C826 1.385 . S
C823 H798 0.951 . S
C823 C821 1.388 . S
C823 C824 1.366 . S
C824 C823 1.366 . S
C824 C825 1.414 . S
C824 C827 1.499 . S
C825 H799 0.950 . S
C825 C824 1.414 . S
C825 C826 1.374 . S
C826 H800 0.950 . S
C826 C822 1.385 . S
C826 C825 1.374 . S
C827 C824 1.499 . S
C827 C828 1.373 . S
C827 C829 1.389 . S
C828 H801 0.950 . S
C828 C814 1.377 1_545 S
C828 C827 1.373 . S
C829 C813 1.377 1_545 S
C829 C827 1.389 . S
C829 C830 1.524 . S
C830 C829 1.524 . S
C830 C831 1.397 . S
C830 C835 1.363 . S
C831 H802 0.950 . S
C831 C830 1.397 . S
C831 C832 1.334 . S
C832 H803 0.950 . S
C832 C831 1.334 . S
C832 C833 1.287 . S
C833 C832 1.287 . S
C833 C834 1.524 . S
C833 H836 0.999 . S
C834 H804 0.950 . S
C834 C833 1.524 . S
C834 C835 1.415 . S
C835 H805 0.950 . S
C835 C830 1.363 . S
C835 C834 1.415 . S
H836 C833 0.999 . S
H837 C818 0.913 . S
H838 C856 0.951 . S
H839 C858 0.951 . S
H840 C860 0.950 . S
H841 C861 0.950 . S
H842 C863 0.950 1_556 S
H843 C866 0.950 . S
H844 C867 0.950 . S
H845 C869 0.950 . S
H846 C870 0.950 . S
H847 C871 0.951 . S
H848 C873 0.951 . S
H849 C875 0.950 . S
H850 C876 0.950 . S
H851 C878 0.950 . S
H852 C881 0.950 . S
H853 C882 0.950 . S
H854 C884 0.950 . S
H855 C885 0.950 . S
C856 H838 0.951 . S
C856 C857 1.366 . S
C856 C858 1.388 . S
C857 C856 1.366 . S
C857 C861 1.385 . S
C858 H839 0.951 . S
C858 C856 1.388 . S
C858 C859 1.366 . S
C859 C858 1.366 . S
C859 C860 1.414 . S
C859 C862 1.499 . S
C860 H840 0.950 . S
C860 C859 1.414 . S
C860 C861 1.374 . S
C861 H841 0.950 . S
C861 C857 1.385 . S
C861 C860 1.374 . S
C862 C859 1.499 . S
C862 C863 1.373 . S
C862 C864 1.389 . S
C863 H842 0.950 1_554 S
C863 C862 1.373 . S
C863 C879 1.377 1_655 S
C864 C862 1.389 . S
C864 C865 1.524 . S
C864 C878 1.377 1_655 S
C865 C864 1.524 . S
C865 C866 1.397 . S
C865 C870 1.363 . S
C866 H843 0.950 . S
C866 C865 1.397 . S
C866 C867 1.334 . S
C867 H844 0.950 . S
C867 C866 1.334 . S
C867 C868 1.287 . S
C868 C867 1.287 . S
C868 C869 1.524 . S
C868 H887 0.913 . S
C869 H845 0.950 . S
C869 C868 1.524 . S
C869 C870 1.415 . S
C870 H846 0.950 . S
C870 C865 1.363 . S
C870 C869 1.415 . S
C871 H847 0.951 . S
C871 C872 1.366 . S
C871 C873 1.388 . S
C872 C871 1.366 . S
C872 C876 1.385 . S
C873 H848 0.951 . S
C873 C871 1.388 . S
C873 C874 1.366 . S
C874 C873 1.366 . S
C874 C875 1.414 . S
C874 C877 1.499 . S
C875 H849 0.950 . S
C875 C874 1.414 . S
C875 C876 1.374 . S
C876 H850 0.950 . S
C876 C872 1.385 . S
C876 C875 1.374 . S
C877 C874 1.499 . S
C877 C878 1.373 . S
C877 C879 1.389 . S
C878 H851 0.950 . S
C878 C864 1.377 1_455 S
C878 C877 1.373 . S
C879 C863 1.377 1_455 S
C879 C877 1.389 . S
C879 C880 1.524 1_554 S
C880 C879 1.524 1_556 S
C880 C881 1.397 . S
C880 C885 1.363 . S
C881 H852 0.950 . S
C881 C880 1.397 . S
C881 C882 1.334 . S
C882 H853 0.950 . S
C882 C881 1.334 . S
C882 C883 1.287 . S
C883 C882 1.287 . S
C883 C884 1.524 . S
C883 H886 0.999 . S
C884 H854 0.950 . S
C884 C883 1.524 . S
C884 C885 1.415 . S
C885 H855 0.950 . S
C885 C880 1.363 . S
C885 C884 1.415 . S
H886 C883 0.999 . S
H887 C868 0.913 . S
H888 C906 0.951 . S
H889 C908 0.951 . S
H890 C910 0.950 . S
H891 C911 0.950 . S
H892 C913 0.950 . S
H893 C916 0.950 1_554 S
H894 C917 0.950 . S
H895 C919 0.950 . S
H896 C920 0.950 1_554 S
H897 C921 0.951 . S
H898 C923 0.951 . S
H899 C925 0.950 . S
H900 C926 0.950 . S
H901 C928 0.950 . S
H902 C931 0.950 . S
H903 C932 0.950 . S
H904 C934 0.950 . S
H905 C935 0.950 . S
C906 H888 0.951 . S
C906 C907 1.366 . S
C906 C908 1.388 . S
C907 C906 1.366 . S
C907 C911 1.385 . S
C908 H889 0.951 . S
C908 C906 1.388 . S
C908 C909 1.366 . S
C909 C908 1.366 . S
C909 C910 1.414 . S
C909 C912 1.499 1_556 S
C910 H890 0.950 . S
C910 C909 1.414 . S
C910 C911 1.374 . S
C911 H891 0.950 . S
C911 C907 1.385 . S
C911 C910 1.374 . S
C912 C909 1.499 1_554 S
C912 C913 1.373 . S
C912 C914 1.389 . S
C913 H892 0.950 . S
C913 C912 1.373 . S
C913 C929 1.377 . S
C914 C912 1.389 . S
C914 C915 1.524 . S
C914 C928 1.377 . S
C915 C914 1.524 . S
C915 C916 1.397 1_554 S
C915 C920 1.363 1_554 S
C916 H893 0.950 1_556 S
C916 C915 1.397 1_556 S
C916 C917 1.334 . S
C917 H894 0.950 . S
C917 C916 1.334 . S
C917 C918 1.287 . S
C918 C917 1.287 . S
C918 C919 1.524 . S
C918 H937 0.913 . S
C919 H895 0.950 . S
C919 C918 1.524 . S
C919 C920 1.415 . S
C920 H896 0.950 1_556 S
C920 C915 1.363 1_556 S
C920 C919 1.415 . S
C921 H897 0.951 . S
C921 C922 1.366 . S
C921 C923 1.388 . S
C922 C921 1.366 . S
C922 C926 1.385 . S
C923 H898 0.951 . S
C923 C921 1.388 . S
C923 C924 1.366 . S
C924 C923 1.366 . S
C924 C925 1.414 . S
C924 C927 1.499 . S
C925 H899 0.950 . S
C925 C924 1.414 . S
C925 C926 1.374 . S
C926 H900 0.950 . S
C926 C922 1.385 . S
C926 C925 1.374 . S
C927 C924 1.499 . S
C927 C928 1.373 . S
C927 C929 1.389 . S
C928 H901 0.950 . S
C928 C914 1.377 . S
C928 C927 1.373 . S
C929 C913 1.377 . S
C929 C927 1.389 . S
C929 C930 1.524 . S
C930 C929 1.524 . S
C930 C931 1.397 . S
C930 C935 1.363 . S
C931 H902 0.950 . S
C931 C930 1.397 . S
C931 C932 1.334 . S
C932 H903 0.950 . S
C932 C931 1.334 . S
C932 C933 1.287 . S
C933 C932 1.287 . S
C933 C934 1.524 . S
C933 H936 0.999 . S
C934 H904 0.950 . S
C934 C933 1.524 . S
C934 C935 1.415 . S
C935 H905 0.950 . S
C935 C930 1.363 . S
C935 C934 1.415 . S
H936 C933 0.999 . S
H937 C918 0.913 . S
H938 C956 0.951 . S
H939 C958 0.951 . S
H940 C960 0.950 . S
H941 C961 0.950 . S
H942 C963 0.950 . S
H943 C966 0.950 . S
H944 C967 0.950 . S
H945 C969 0.950 . S
H946 C970 0.950 . S
H947 C971 0.951 . S
H948 C973 0.951 . S
H949 C975 0.950 . S
H950 C976 0.950 . S
H951 C978 0.950 . S
H952 C981 0.950 . S
H953 C982 0.950 . S
H954 C984 0.950 . S
H955 C985 0.950 . S
C956 H938 0.951 . S
C956 C957 1.366 . S
C956 C958 1.388 . S
C957 C956 1.366 . S
C957 C961 1.385 . S
C958 H939 0.951 . S
C958 C956 1.388 . S
C958 C959 1.366 . S
C959 C958 1.366 . S
C959 C960 1.414 . S
C959 C962 1.499 . S
C960 H940 0.950 . S
C960 C959 1.414 . S
C960 C961 1.374 . S
C961 H941 0.950 . S
C961 C957 1.385 . S
C961 C960 1.374 . S
C962 C959 1.499 . S
C962 C963 1.373 . S
C962 C964 1.389 . S
C963 H942 0.950 . S
C963 C962 1.373 . S
C963 C979 1.377 . S
C964 C962 1.389 . S
C964 C965 1.524 . S
C964 C978 1.377 . S
C965 C964 1.524 . S
C965 C966 1.397 . S
C965 C970 1.363 . S
C966 H943 0.950 . S
C966 C965 1.397 . S
C966 C967 1.334 . S
C967 H944 0.950 . S
C967 C966 1.334 . S
C967 C968 1.287 . S
C968 C967 1.287 . S
C968 C969 1.524 . S
C968 H987 0.913 . S
C969 H945 0.950 . S
C969 C968 1.524 . S
C969 C970 1.415 . S
C970 H946 0.950 . S
C970 C965 1.363 . S
C970 C969 1.415 . S
C971 H947 0.951 . S
C971 C972 1.366 . S
C971 C973 1.388 . S
C972 C971 1.366 . S
C972 C976 1.385 . S
C973 H948 0.951 . S
C973 C971 1.388 . S
C973 C974 1.366 . S
C974 C973 1.366 . S
C974 C975 1.414 . S
C974 C977 1.499 . S
C975 H949 0.950 . S
C975 C974 1.414 . S
C975 C976 1.374 . S
C976 H950 0.950 . S
C976 C972 1.385 . S
C976 C975 1.374 . S
C977 C974 1.499 . S
C977 C978 1.373 . S
C977 C979 1.389 . S
C978 H951 0.950 . S
C978 C964 1.377 . S
C978 C977 1.373 . S
C979 C963 1.377 . S
C979 C977 1.389 . S
C979 C980 1.524 . S
C980 C979 1.524 . S
C980 C981 1.397 . S
C980 C985 1.363 . S
C981 H952 0.950 . S
C981 C980 1.397 . S
C981 C982 1.334 . S
C982 H953 0.950 . S
C982 C981 1.334 . S
C982 C983 1.287 . S
C983 C982 1.287 . S
C983 C984 1.524 . S
C983 H986 0.999 . S
C984 H954 0.950 . S
C984 C983 1.524 . S
C984 C985 1.415 . S
C985 H955 0.950 . S
C985 C980 1.363 . S
C985 C984 1.415 . S
H986 C983 0.999 . S
H987 C968 0.913 . S
H988 C1006 0.951 . S
H989 C1008 0.951 . S
H990 C1010 0.950 . S
H991 C1011 0.950 . S
H992 C1013 0.950 . S
H993 C1016 0.950 . S
H994 C1017 0.950 . S
H995 C1019 0.950 . S
H996 C1020 0.950 . S
H997 C1021 0.951 . S
H998 C1023 0.951 . S
H999 C1025 0.950 . S
H1000 C1026 0.950 . S
H1001 C1028 0.950 . S
H1002 C1031 0.950 . S
H1003 C1032 0.950 . S
H1004 C1034 0.950 . S
H1005 C1035 0.950 . S
C1006 H988 0.951 . S
C1006 C1007 1.366 . S
C1006 C1008 1.388 . S
C1007 C1006 1.366 . S
C1007 C1011 1.385 . S
C1008 H989 0.951 . S
C1008 C1006 1.388 . S
C1008 C1009 1.366 . S
C1009 C1008 1.366 . S
C1009 C1010 1.414 . S
C1009 C1012 1.499 . S
C1010 H990 0.950 . S
C1010 C1009 1.414 . S
C1010 C1011 1.374 . S
C1011 H991 0.950 . S
C1011 C1007 1.385 . S
C1011 C1010 1.374 . S
C1012 C1009 1.499 . S
C1012 C1013 1.373 . S
C1012 C1014 1.389 . S
C1013 H992 0.950 . S
C1013 C1012 1.373 . S
C1013 C1029 1.377 . S
C1014 C1012 1.389 . S
C1014 C1015 1.524 . S
C1014 C1028 1.377 . S
C1015 C1014 1.524 . S
C1015 C1016 1.397 . S
C1015 C1020 1.363 . S
C1016 H993 0.950 . S
C1016 C1015 1.397 . S
C1016 C1017 1.334 . S
C1017 H994 0.950 . S
C1017 C1016 1.334 . S
C1017 C1018 1.287 . S
C1018 C1017 1.287 . S
C1018 C1019 1.524 . S
C1018 H1037 0.913 . S
C1019 H995 0.950 . S
C1019 C1018 1.524 . S
C1019 C1020 1.415 . S
C1020 H996 0.950 . S
C1020 C1015 1.363 . S
C1020 C1019 1.415 . S
C1021 H997 0.951 . S
C1021 C1022 1.366 . S
C1021 C1023 1.388 . S
C1022 C1021 1.366 . S
C1022 C1026 1.385 . S
C1023 H998 0.951 . S
C1023 C1021 1.388 . S
C1023 C1024 1.366 . S
C1024 C1023 1.366 . S
C1024 C1025 1.414 . S
C1024 C1027 1.499 . S
C1025 H999 0.950 . S
C1025 C1024 1.414 . S
C1025 C1026 1.374 . S
C1026 H1000 0.950 . S
C1026 C1022 1.385 . S
C1026 C1025 1.374 . S
C1027 C1024 1.499 . S
C1027 C1028 1.373 . S
C1027 C1029 1.389 . S
C1028 H1001 0.950 . S
C1028 C1014 1.377 . S
C1028 C1027 1.373 . S
C1029 C1013 1.377 . S
C1029 C1027 1.389 . S
C1029 C1030 1.524 . S
C1030 C1029 1.524 . S
C1030 C1031 1.397 . S
C1030 C1035 1.363 . S
C1031 H1002 0.950 . S
C1031 C1030 1.397 . S
C1031 C1032 1.334 . S
C1032 H1003 0.950 . S
C1032 C1031 1.334 . S
C1032 C1033 1.287 . S
C1033 C1032 1.287 . S
C1033 C1034 1.524 . S
C1033 H1036 0.999 . S
C1034 H1004 0.950 . S
C1034 C1033 1.524 . S
C1034 C1035 1.415 . S
C1035 H1005 0.950 . S
C1035 C1030 1.363 . S
C1035 C1034 1.415 . S
H1036 C1033 0.999 . S
H1037 C1018 0.913 . S
H1038 C1056 0.951 . S
H1039 C1058 0.951 . S
H1040 C1060 0.950 . S
H1041 C1061 0.950 . S
H1042 C1063 0.950 . S
H1043 C1066 0.950 . S
H1044 C1067 0.950 . S
H1045 C1069 0.950 . S
H1046 C1070 0.950 . S
H1047 C1071 0.951 . S
H1048 C1073 0.951 . S
H1049 C1075 0.950 . S
H1050 C1076 0.950 . S
H1051 C1078 0.950 . S
H1052 C1081 0.950 . S
H1053 C1082 0.950 . S
H1054 C1084 0.950 . S
H1055 C1085 0.950 . S
C1056 H1038 0.951 . S
C1056 C1057 1.366 . S
C1056 C1058 1.388 . S
C1057 C1056 1.366 . S
C1057 C1061 1.385 . S
C1058 H1039 0.951 . S
C1058 C1056 1.388 . S
C1058 C1059 1.366 . S
C1059 C1058 1.366 . S
C1059 C1060 1.414 . S
C1059 C1062 1.499 . S
C1060 H1040 0.950 . S
C1060 C1059 1.414 . S
C1060 C1061 1.374 . S
C1061 H1041 0.950 . S
C1061 C1057 1.385 . S
C1061 C1060 1.374 . S
C1062 C1059 1.499 . S
C1062 C1063 1.373 . S
C1062 C1064 1.389 . S
C1063 H1042 0.950 . S
C1063 C1062 1.373 . S
C1063 C1079 1.377 . S
C1064 C1062 1.389 . S
C1064 C1065 1.524 . S
C1064 C1078 1.377 . S
C1065 C1064 1.524 . S
C1065 C1066 1.397 . S
C1065 C1070 1.363 . S
C1066 H1043 0.950 . S
C1066 C1065 1.397 . S
C1066 C1067 1.334 . S
C1067 H1044 0.950 . S
C1067 C1066 1.334 . S
C1067 C1068 1.287 . S
C1068 C1067 1.287 . S
C1068 C1069 1.524 . S
C1068 H1087 0.913 . S
C1069 H1045 0.950 . S
C1069 C1068 1.524 . S
C1069 C1070 1.415 . S
C1070 H1046 0.950 . S
C1070 C1065 1.363 . S
C1070 C1069 1.415 . S
C1071 H1047 0.951 . S
C1071 C1072 1.366 . S
C1071 C1073 1.388 . S
C1072 C1071 1.366 . S
C1072 C1076 1.385 . S
C1073 H1048 0.951 . S
C1073 C1071 1.388 . S
C1073 C1074 1.366 . S
C1074 C1073 1.366 . S
C1074 C1075 1.414 . S
C1074 C1077 1.499 . S
C1075 H1049 0.950 . S
C1075 C1074 1.414 . S
C1075 C1076 1.374 . S
C1076 H1050 0.950 . S
C1076 C1072 1.385 . S
C1076 C1075 1.374 . S
C1077 C1074 1.499 . S
C1077 C1078 1.373 . S
C1077 C1079 1.389 . S
C1078 H1051 0.950 . S
C1078 C1064 1.377 . S
C1078 C1077 1.373 . S
C1079 C1063 1.377 . S
C1079 C1077 1.389 . S
C1079 C1080 1.524 . S
C1080 C1079 1.524 . S
C1080 C1081 1.397 . S
C1080 C1085 1.363 . S
C1081 H1052 0.950 . S
C1081 C1080 1.397 . S
C1081 C1082 1.334 . S
C1082 H1053 0.950 . S
C1082 C1081 1.334 . S
C1082 C1083 1.287 . S
C1083 C1082 1.287 . S
C1083 C1084 1.524 . S
C1083 H1086 0.999 . S
C1084 H1054 0.950 . S
C1084 C1083 1.524 . S
C1084 C1085 1.415 . S
C1085 H1055 0.950 . S
C1085 C1080 1.363 . S
C1085 C1084 1.415 . S
H1086 C1083 0.999 . S
H1087 C1068 0.913 . S
C307 C2 0.625 . S
C322 C218 0.624 . S
C357 C38 0.624 . S
C372 C254 0.625 . S
C407 C146 0.624 . S
C422 C74 0.625 . S
C457 C182 0.625 . S
C472 C110 0.624 . S
C507 C3 1.402 . S
C522 C183 1.403 . S
C557 C39 1.403 . S
C572 C219 1.402 . S
C607 C255 1.402 . S
C622 C75 1.403 . S
C657 C111 1.402 . S
C672 C147 1.402 . S
C707 C148 1.469 . S
C722 C4 1.469 . S
C757 C40 1.469 . S
C772 C184 1.469 . S
C807 C76 1.469 . S
C822 C220 1.469 . S
C857 C256 1.469 . S
C872 C112 1.469 . S
C907 C230 1.344 . S
C922 C14 1.345 . S
C957 C266 1.344 . S
C972 C50 1.345 . S
C1007 C86 1.345 . S
C1022 C158 1.344 . S
C1057 C122 1.344 . S
C1072 C194 1.344 . S
