# Generated by pormake.
# Topology wir, (6)-cn, num edge types: 1
# Building blocks:
#     Node 0, Type 0, BuildingBlock: MIFKUJ_clean_sbu_0, # of connection points: 6
#     Node 1, Type 0, BuildingBlock: MIFKUJ_clean_sbu_0, # of connection points: 6
#     Node 2, Type 0, BuildingBlock: MIFKUJ_clean_sbu_0, # of connection points: 6
#     Node 3, Type 0, BuildingBlock: MIFKUJ_clean_sbu_0, # of connection points: 6
#     Node 4, Type 0, BuildingBlock: MIFKUJ_clean_sbu_0, # of connection points: 6
#     Node 5, Type 0, BuildingBlock: MIFKUJ_clean_sbu_0, # of connection points: 6
#     Node 6, Type 0, BuildingBlock: MIFKUJ_clean_sbu_0, # of connection points: 6
#     Node 7, Type 0, BuildingBlock: MIFKUJ_clean_sbu_0, # of connection points: 6
#     Node 8, Type 0, BuildingBlock: MIFKUJ_clean_sbu_0, # of connection points: 6
#     Node 9, Type 0, BuildingBlock: MIFKUJ_clean_sbu_0, # of connection points: 6
#     Node 10, Type 0, BuildingBlock: MIFKUJ_clean_sbu_0, # of connection points: 6
#     Node 11, Type 0, BuildingBlock: MIFKUJ_clean_sbu_0, # of connection points: 6
#     Node 12, Type 0, BuildingBlock: MIFKUJ_clean_sbu_0, # of connection points: 6
#     Node 13, Type 0, BuildingBlock: MIFKUJ_clean_sbu_0, # of connection points: 6
#     Node 14, Type 0, BuildingBlock: MIFKUJ_clean_sbu_0, # of connection points: 6
#     Node 15, Type 0, BuildingBlock: MIFKUJ_clean_sbu_0, # of connection points: 6
#     Node 16, Type 0, BuildingBlock: MIFKUJ_clean_sbu_0, # of connection points: 6
#     Node 17, Type 0, BuildingBlock: MIFKUJ_clean_sbu_0, # of connection points: 6
#     Node 18, Type 0, BuildingBlock: MIFKUJ_clean_sbu_0, # of connection points: 6
#     Node 19, Type 0, BuildingBlock: MIFKUJ_clean_sbu_0, # of connection points: 6
#     Node 20, Type 0, BuildingBlock: MIFKUJ_clean_sbu_0, # of connection points: 6
#     Node 21, Type 0, BuildingBlock: MIFKUJ_clean_sbu_0, # of connection points: 6
#     Node 22, Type 0, BuildingBlock: MIFKUJ_clean_sbu_0, # of connection points: 6
#     Node 23, Type 0, BuildingBlock: MIFKUJ_clean_sbu_0, # of connection points: 6
#     Node 24, Type 0, BuildingBlock: MIFKUJ_clean_sbu_0, # of connection points: 6
#     Node 25, Type 0, BuildingBlock: MIFKUJ_clean_sbu_0, # of connection points: 6
#     Node 26, Type 0, BuildingBlock: MIFKUJ_clean_sbu_0, # of connection points: 6
#     Node 27, Type 0, BuildingBlock: MIFKUJ_clean_sbu_0, # of connection points: 6
#     Node 28, Type 0, BuildingBlock: MIFKUJ_clean_sbu_0, # of connection points: 6
#     Node 29, Type 0, BuildingBlock: MIFKUJ_clean_sbu_0, # of connection points: 6
#     Node 30, Type 0, BuildingBlock: MIFKUJ_clean_sbu_0, # of connection points: 6
#     Node 31, Type 0, BuildingBlock: MIFKUJ_clean_sbu_0, # of connection points: 6
#     Edge 32, Type (0, 0), None
#     Edge 33, Type (0, 0), None
#     Edge 34, Type (0, 0), None
#     Edge 35, Type (0, 0), None
#     Edge 36, Type (0, 0), None
#     Edge 37, Type (0, 0), None
#     Edge 38, Type (0, 0), None
#     Edge 39, Type (0, 0), None
#     Edge 40, Type (0, 0), None
#     Edge 41, Type (0, 0), None
#     Edge 42, Type (0, 0), None
#     Edge 43, Type (0, 0), None
#     Edge 44, Type (0, 0), None
#     Edge 45, Type (0, 0), None
#     Edge 46, Type (0, 0), None
#     Edge 47, Type (0, 0), None
#     Edge 48, Type (0, 0), None
#     Edge 49, Type (0, 0), None
#     Edge 50, Type (0, 0), None
#     Edge 51, Type (0, 0), None
#     Edge 52, Type (0, 0), None
#     Edge 53, Type (0, 0), None
#     Edge 54, Type (0, 0), None
#     Edge 55, Type (0, 0), None
#     Edge 56, Type (0, 0), None
#     Edge 57, Type (0, 0), None
#     Edge 58, Type (0, 0), None
#     Edge 59, Type (0, 0), None
#     Edge 60, Type (0, 0), None
#     Edge 61, Type (0, 0), None
#     Edge 62, Type (0, 0), None
#     Edge 63, Type (0, 0), None
#     Edge 64, Type (0, 0), None
#     Edge 65, Type (0, 0), None
#     Edge 66, Type (0, 0), None
#     Edge 67, Type (0, 0), None
#     Edge 68, Type (0, 0), None
#     Edge 69, Type (0, 0), None
#     Edge 70, Type (0, 0), None
#     Edge 71, Type (0, 0), None
#     Edge 72, Type (0, 0), None
#     Edge 73, Type (0, 0), None
#     Edge 74, Type (0, 0), None
#     Edge 75, Type (0, 0), None
#     Edge 76, Type (0, 0), None
#     Edge 77, Type (0, 0), None
#     Edge 78, Type (0, 0), None
#     Edge 79, Type (0, 0), None
#     Edge 80, Type (0, 0), None
#     Edge 81, Type (0, 0), None
#     Edge 82, Type (0, 0), None
#     Edge 83, Type (0, 0), None
#     Edge 84, Type (0, 0), None
#     Edge 85, Type (0, 0), None
#     Edge 86, Type (0, 0), None
#     Edge 87, Type (0, 0), None
#     Edge 88, Type (0, 0), None
#     Edge 89, Type (0, 0), None
#     Edge 90, Type (0, 0), None
#     Edge 91, Type (0, 0), None
#     Edge 92, Type (0, 0), None
#     Edge 93, Type (0, 0), None
#     Edge 94, Type (0, 0), None
#     Edge 95, Type (0, 0), None
#     Edge 96, Type (0, 0), None
#     Edge 97, Type (0, 0), None
#     Edge 98, Type (0, 0), None
#     Edge 99, Type (0, 0), None
#     Edge 100, Type (0, 0), None
#     Edge 101, Type (0, 0), None
#     Edge 102, Type (0, 0), None
#     Edge 103, Type (0, 0), None
#     Edge 104, Type (0, 0), None
#     Edge 105, Type (0, 0), None
#     Edge 106, Type (0, 0), None
#     Edge 107, Type (0, 0), None
#     Edge 108, Type (0, 0), None
#     Edge 109, Type (0, 0), None
#     Edge 110, Type (0, 0), None
#     Edge 111, Type (0, 0), None
#     Edge 112, Type (0, 0), None
#     Edge 113, Type (0, 0), None
#     Edge 114, Type (0, 0), None
#     Edge 115, Type (0, 0), None
#     Edge 116, Type (0, 0), None
#     Edge 117, Type (0, 0), None
#     Edge 118, Type (0, 0), None
#     Edge 119, Type (0, 0), None
#     Edge 120, Type (0, 0), None
#     Edge 121, Type (0, 0), None
#     Edge 122, Type (0, 0), None
#     Edge 123, Type (0, 0), None
#     Edge 124, Type (0, 0), None
#     Edge 125, Type (0, 0), None
#     Edge 126, Type (0, 0), None
#     Edge 127, Type (0, 0), None
# Relax obj value: 0.485
# Max RMSD: 0.207
# Mean RMSD: 0.207
data_MOF--net-wir--node1-MIFKUJ_clean_sbu_0--edge1-none
_symmetry_space_group_name_H-M    P1
_symmetry_Int_Tables_number       1
_symmetry_cell_setting            triclinic
loop_
_symmetry_equiv_pos_as_xyz
'x, y, z'
_cell_length_a     17.149819
_cell_length_b     16.348274
_cell_length_c     45.124594
_cell_angle_alpha  89.997752
_cell_angle_beta   90.000084
_cell_angle_gamma 89.999782
loop_
_atom_site_label
_atom_site_type_symbol
_atom_site_fract_x
_atom_site_fract_y
_atom_site_fract_z
_atom_type_partial_charge
Zn0 Zn 0.22821 0.19437 0.41194 0.0
Zn1 Zn 0.21047 0.24108 0.46049 0.0
C2 C 0.27064 0.29413 0.36139 0.0
O3 O 0.1999 0.32388 0.36428 0.0
C4 C 0.13568 0.07615 0.4628 0.0
O5 O 0.13744 0.08034 0.49182 0.0
O6 O 0.19619 0.09336 0.38876 0.0
O7 O 0.30716 0.1469 0.44997 0.0
O8 O 0.27298 0.20154 0.49331 0.0
C9 C 0.16616 0.09994 0.36302 0.0
O10 O 0.14862 0.1721 0.35236 0.0
O11 O 0.2969 0.24397 0.38037 0.0
C12 C 0.28759 0.38134 0.42532 0.0
O13 O 0.34513 0.40689 0.40855 0.0
O14 O 0.28766 0.30753 0.43448 0.0
O15 O 0.11416 0.29736 0.46294 0.0
O16 O 0.1141 0.26341 0.41598 0.0
O17 O 0.16188 0.134 0.4473 0.0
C18 C 0.31664 0.15309 0.47862 0.0
C19 C 0.07947 0.29751 0.4382 0.0
Zn20 Zn 0.14693 1.00994 0.64605 0.0
Zn21 Zn 0.11628 0.99254 0.69355 0.0
C22 C 0.04452 1.05671 0.59317 0.0
O23 O 1.02575 0.97901 0.59137 0.0
C24 C 0.24287 0.8876 0.70094 0.0
O25 O 0.21003 0.88869 0.72715 0.0
O26 O 0.23551 0.97589 0.62287 0.0
O27 O 0.20493 0.09078 0.68262 0.0
O28 O 0.15727 1.05396 0.72653 0.0
C29 C 0.25636 0.90631 0.61346 0.0
O30 O 0.21844 0.8394 0.62057 0.0
O31 O 0.09151 0.08072 0.61345 0.0
C32 C 0.98393 0.09201 0.66021 0.0
O33 O 0.96403 0.16061 0.64713 0.0
O34 O 0.05358 0.08331 0.66972 0.0
O35 O 0.06263 0.89208 0.69869 0.0
O36 O 0.08357 0.89216 0.651 0.0
O37 O 0.21803 0.93521 0.68076 0.0
C38 C 0.20353 0.09856 0.71146 0.0
C39 C 0.0574 0.85538 0.67411 0.0
Zn40 Zn 0.34835 0.93511 0.91195 0.0
Zn41 Zn 0.36611 0.88843 0.96051 0.0
C42 C 0.30596 0.83533 0.86141 0.0
O43 O 0.37669 0.80559 0.86432 0.0
C44 C 0.441 1.05326 0.96281 0.0
O45 O 0.43933 1.04894 0.99184 0.0
O46 O 0.38038 1.03609 0.88875 0.0
O47 O 0.26941 0.98262 0.94997 0.0
O48 O 0.30359 0.928 0.99332 0.0
C49 C 0.41048 1.02946 0.86303 0.0
O50 O 0.42807 0.95729 0.8524 0.0
O51 O 0.27967 0.88549 0.88038 0.0
C52 C 0.28902 0.74813 0.92534 0.0
O53 O 0.23146 0.72257 0.90858 0.0
O54 O 0.28894 0.82193 0.9345 0.0
O55 O 0.46244 0.83216 0.96296 0.0
O56 O 0.46244 0.86607 0.91599 0.0
O57 O 0.41468 0.99551 0.9473 0.0
C58 C 0.25992 0.97644 0.97862 0.0
C59 C 0.4971 0.832 0.93821 0.0
Zn60 Zn 0.42966 0.11932 0.14605 0.0
Zn61 Zn 0.46032 0.13666 0.19355 0.0
C62 C 0.53209 0.07257 1.09317 0.0
O63 O 0.5509 0.15026 1.09139 0.0
C64 C 0.33375 0.24162 0.20096 0.0
O65 O 0.36663 0.24049 0.22717 0.0
O66 O 0.34109 0.15343 0.12287 0.0
O67 O 0.37164 1.03847 0.18262 0.0
O68 O 0.41936 0.07525 0.22652 0.0
C69 C 0.32024 0.22304 0.11348 0.0
O70 O 0.35817 0.28993 0.12062 0.0
O71 O 0.48506 1.04855 0.11344 0.0
C72 C 0.59259 1.03711 0.16021 0.0
O73 O 0.61248 0.96854 0.14711 0.0
O74 O 0.52293 1.04584 0.1697 0.0
O75 O 0.51402 0.2371 0.19869 0.0
O76 O 0.49309 0.23705 0.151 0.0
O77 O 0.35858 0.19404 0.18077 0.0
C78 C 0.37306 1.03069 0.21147 0.0
C79 C 0.51929 0.2738 0.17411 0.0
Zn80 Zn 0.22804 0.93504 0.29434 0.0
Zn81 Zn 0.21034 0.88823 0.2458 0.0
C82 C 0.27046 0.83534 0.3449 0.0
O83 O 0.19973 0.80557 0.34201 0.0
C84 C 0.13568 1.0533 0.24349 0.0
O85 O 0.13758 1.04926 0.21446 0.0
O86 O 0.19607 1.03609 0.31751 0.0
O87 O 0.30699 0.98243 0.25631 0.0
O88 O 0.27283 0.92771 0.21297 0.0
C89 C 0.16609 1.02954 0.34326 0.0
O90 O 0.14854 0.9574 0.35393 0.0
O91 O 0.29671 0.88549 0.32592 0.0
C92 C 0.28752 0.74807 0.281 0.0
O93 O 0.34505 0.72255 0.29778 0.0
O94 O 0.28756 0.82187 0.27184 0.0
O95 O 0.11406 0.83191 0.24337 0.0
O96 O 0.11392 0.866 0.29032 0.0
O97 O 0.16171 0.99532 0.25896 0.0
C98 C 0.31649 0.97618 0.22766 0.0
C99 C 0.07933 0.83183 0.26811 0.0
Zn100 Zn 0.42977 1.00993 0.56023 0.0
Zn101 Zn 0.46042 0.9925 0.51273 0.0
C102 C 0.53215 1.0567 0.61312 0.0
O103 O 0.55092 0.97901 0.61492 0.0
C104 C 0.33382 0.88756 0.50537 0.0
O105 O 0.36665 0.88861 0.47915 0.0
O106 O 0.34117 0.97589 0.58341 0.0
O107 O 0.37179 0.09078 0.52365 0.0
O108 O 0.41944 1.05392 0.47975 0.0
C109 C 0.32034 0.90631 0.59283 0.0
O110 O 0.35832 0.83941 0.58575 0.0
O111 O 0.48518 0.08072 0.59283 0.0
C112 C 0.59279 0.09193 0.54607 0.0
O113 O 0.61269 0.16055 0.55915 0.0
O114 O 0.52315 0.08324 0.53656 0.0
O115 O 0.51404 0.89202 0.50761 0.0
O116 O 0.49311 0.89214 0.5553 0.0
O117 O 0.35867 0.9352 0.52553 0.0
C118 C 0.37319 0.09854 0.49481 0.0
C119 C 0.51926 0.85533 0.53219 0.0
Zn120 Zn 0.34855 0.19426 0.79433 0.0
Zn121 Zn 0.36627 0.24105 0.74578 0.0
C122 C 0.30617 0.29397 0.84488 0.0
O123 O 0.3769 0.32373 0.84197 0.0
C124 C 0.441 0.07607 0.74346 0.0
O125 O 0.43919 0.08021 0.71443 0.0
O126 O 0.38052 0.09323 0.81751 0.0
O127 O 0.2696 0.14685 0.7563 0.0
O128 O 0.30376 0.20155 0.71296 0.0
C129 C 0.41056 0.09981 0.84325 0.0
O130 O 0.42817 0.17197 0.85389 0.0
O131 O 0.27989 0.24382 0.8259 0.0
C132 C 0.28911 0.38124 0.78098 0.0
O133 O 0.23156 0.40676 0.79775 0.0
O134 O 0.28906 0.30744 0.77181 0.0
O135 O 0.46257 0.29736 0.74336 0.0
O136 O 0.46266 0.26329 0.79031 0.0
O137 O 0.41488 0.13396 0.75896 0.0
C138 C 0.2601 0.15309 0.72765 0.0
C139 C 0.49727 0.29745 0.7681 0.0
Zn140 Zn 0.14681 0.1196 1.06022 0.0
Zn141 Zn 0.11617 0.13711 1.01272 0.0
C142 C 0.04444 0.0728 0.11311 0.0
O143 O 1.02571 0.15051 0.11494 0.0
C144 C 0.2428 0.24205 1.0054 0.0
O145 O 0.21001 0.24105 0.97917 0.0
O146 O 0.23542 0.15356 1.08341 0.0
O147 O 0.20475 1.03877 1.02365 0.0
O148 O 0.15717 0.07567 0.97974 0.0
C149 C 0.25627 0.22311 1.09286 0.0
O150 O 0.2183 0.29003 1.0858 0.0
O151 O 0.09137 1.0488 1.09281 0.0
C152 C 0.9837 1.03779 1.04607 0.0
O153 O 0.96378 0.96914 1.05912 0.0
O154 O 0.05332 1.04645 1.03653 0.0
O155 O 0.06261 0.23761 1.0076 0.0
O156 O 0.08355 0.23746 1.05529 0.0
O157 O 0.21792 0.19435 1.02554 0.0
C158 C 0.20338 1.03102 0.9948 0.0
C159 C 0.05744 0.27431 1.03219 0.0
Zn160 Zn 0.89181 0.92795 0.71597 0.0
Zn161 Zn 0.86411 0.93668 0.79127 0.0
C162 C 0.92512 1.03014 0.666 0.0
O163 O 0.85102 1.04815 0.66339 0.0
C164 C 0.82017 0.82144 0.83701 0.0
O165 O 0.89246 0.79551 0.83513 0.0
O166 O 0.78836 0.87702 0.70146 0.0
O167 O 0.97102 0.85602 0.73758 0.0
O168 O 0.96889 0.86745 0.78597 0.0
C169 C 0.77521 0.80257 0.69494 0.0
O170 O 0.70952 0.78214 0.68199 0.0
O171 O 0.94607 0.96956 0.68119 0.0
C172 C 0.91227 1.02898 0.84327 0.0
O173 O 0.92242 0.95592 0.85452 0.0
O174 O 0.89232 1.03674 0.81615 0.0
O175 O 0.7847 0.97443 0.75709 0.0
O176 O 0.87769 1.03692 0.73484 0.0
O177 O 0.7954 0.8759 0.81939 0.0
C178 C 1.00095 0.83931 0.76259 0.0
C179 C 0.80579 1.02825 0.7383 0.0
Zn180 Zn 0.96242 0.12729 0.47809 0.0
Zn181 Zn 0.87733 0.18321 0.53545 0.0
C182 C 0.85076 0.19029 0.43363 0.0
O183 O 0.86118 0.12228 0.41868 0.0
C184 C 1.00597 0.11751 0.57367 0.0
O185 O 1.02796 0.19428 0.57515 0.0
O186 O 1.01 1.05005 0.44778 0.0
O187 O 1.03496 0.20982 0.50327 0.0
O188 O 0.94215 0.28353 0.5244 0.0
C189 C 0.07974 1.02523 0.44799 0.0
O190 O 0.10332 0.97423 0.42739 0.0
O191 O 0.88737 0.20215 0.45753 0.0
C192 C 0.81778 0.24393 0.59149 0.0
O193 O 0.89154 0.25235 0.59842 0.0
O194 O 0.79887 0.21934 0.56581 0.0
O195 O 0.80747 0.13438 0.50221 0.0
O196 O 0.89316 1.03991 0.49447 0.0
O197 O 0.94764 0.09797 0.55738 0.0
C198 C 1.01235 0.27712 0.51559 0.0
C199 C 0.82484 0.06639 0.49024 0.0
Zn200 Zn 0.68482 0.20122 0.21601 0.0
Zn201 Zn 0.71261 0.19278 0.29128 0.0
C202 C 0.65142 0.09891 0.16605 0.0
O203 O 0.72552 0.08094 0.16342 0.0
C204 C 0.75646 0.30801 0.33703 0.0
O205 O 0.68416 0.3339 0.33514 0.0
O206 O 0.78819 0.25216 0.2014 0.0
O207 O 0.6056 0.2732 0.23758 0.0
O208 O 0.60782 0.26199 0.28599 0.0
C209 C 0.80136 0.32661 0.19489 0.0
O210 O 0.86699 0.347 0.18188 0.0
O211 O 0.63046 0.15938 0.1813 0.0
C212 C 0.66449 0.10041 0.34328 0.0
O213 O 0.65434 0.17345 0.35454 0.0
O214 O 0.68442 0.09268 0.31615 0.0
O215 O 0.79205 0.15509 0.2571 0.0
O216 O 0.69908 0.09235 0.23494 0.0
O217 O 0.78128 0.25356 0.31941 0.0
C218 C 0.57571 0.29002 0.26259 0.0
C219 C 0.77098 0.10117 0.23835 0.0
Zn220 Zn 0.61429 1.00211 0.97812 0.0
Zn221 Zn 0.69937 0.9461 1.03547 0.0
C222 C 0.72589 0.93919 0.93363 0.0
O223 O 0.71546 1.00722 0.91869 0.0
C224 C 0.57067 1.01178 1.07368 0.0
O225 O 0.54868 0.93501 1.07515 0.0
O226 O 0.5667 0.07939 0.94783 0.0
O227 O 0.54177 0.91952 1.00329 0.0
O228 O 0.63457 0.84578 1.02441 0.0
C229 C 0.49694 0.10418 0.94801 0.0
O230 O 0.47339 0.15517 0.92741 0.0
O231 O 0.68931 0.92729 0.95754 0.0
C232 C 0.7589 0.88543 1.09153 0.0
O233 O 0.68514 0.87703 1.09846 0.0
O234 O 0.7778 0.90999 1.06584 0.0
O235 O 0.76926 0.99494 1.00225 0.0
O236 O 0.68361 0.08943 0.9945 0.0
O237 O 0.62901 1.03133 1.05739 0.0
C238 C 0.56437 0.85221 1.0156 0.0
C239 C 0.75191 1.06293 0.99028 0.0
Zn240 Zn 0.89175 0.20176 0.99038 0.0
Zn241 Zn 0.86427 0.19249 0.91503 0.0
C242 C 0.92491 0.09978 1.04038 0.0
O243 O 0.85081 0.08172 1.04294 0.0
C244 C 0.82038 0.30785 0.86931 0.0
O245 O 0.89269 0.33372 0.87118 0.0
O246 O 0.78816 0.25264 1.00476 0.0
O247 O 0.97094 0.27365 0.96874 0.0
O248 O 0.96909 0.26164 0.92036 0.0
C249 C 0.77505 0.3271 1.01128 0.0
O250 O 0.70927 0.34759 1.02416 0.0
O251 O 0.94585 0.16052 1.02527 0.0
C252 C 0.9123 0.10022 0.863 0.0
O253 O 0.92242 0.17328 0.85174 0.0
O254 O 0.89243 0.09246 0.89013 0.0
O255 O 0.78485 0.15468 0.9492 0.0
O256 O 0.87787 0.09263 0.9716 0.0
O257 O 0.79559 0.25338 0.88692 0.0
C258 C 1.001 0.29007 0.94372 0.0
C259 C 0.80597 0.10111 0.96807 0.0
Zn260 Zn 0.61423 0.12725 0.72821 0.0
Zn261 Zn 0.69933 0.1832 0.67085 0.0
C262 C 0.72586 0.19021 0.77269 0.0
O263 O 0.71541 0.1222 0.78763 0.0
C264 C 0.5707 0.1175 0.63262 0.0
O265 O 0.5487 0.19427 0.63114 0.0
O266 O 0.56665 1.04995 0.7585 0.0
O267 O 0.5417 0.2098 0.70303 0.0
O268 O 0.63449 0.28352 0.6819 0.0
C269 C 0.49691 1.02511 0.75827 0.0
O270 O 0.47331 0.97407 0.77885 0.0
O271 O 0.68927 0.2021 0.74878 0.0
C272 C 0.75888 0.24394 0.6148 0.0
O273 O 0.68512 0.25234 0.60787 0.0
O274 O 0.77778 0.21935 0.64048 0.0
O275 O 0.76918 0.13438 0.70408 0.0
O276 O 0.68349 1.03989 0.71182 0.0
O277 O 0.62902 0.09796 0.64891 0.0
C278 C 0.5643 0.2771 0.69071 0.0
C279 C 0.7518 0.06639 0.71606 0.0
Zn280 Zn 0.68487 0.92789 0.49034 0.0
Zn281 Zn 0.71248 0.9368 0.41502 0.0
C282 C 0.65159 1.03003 0.54031 0.0
O283 O 0.7257 1.04805 0.54291 0.0
C284 C 0.75629 0.82147 0.36929 0.0
O285 O 0.68397 0.79563 0.37117 0.0
O286 O 0.78836 0.87699 0.50483 0.0
O287 O 0.60567 0.85595 0.46873 0.0
O288 O 0.60765 0.86765 0.42034 0.0
C289 C 0.8015 0.80254 0.51135 0.0
O290 O 0.86721 0.78211 0.5243 0.0
O291 O 0.63065 0.96942 0.52513 0.0
C292 C 0.66446 1.02914 0.363 0.0
O293 O 0.65433 0.9561 0.35173 0.0
O294 O 0.68433 1.03686 0.39013 0.0
O295 O 0.79193 0.97453 0.44919 0.0
O296 O 0.69893 1.0369 0.47148 0.0
O297 O 0.78112 0.87592 0.3869 0.0
C298 C 0.57568 0.83937 0.44372 0.0
C299 C 0.77083 1.02824 0.46801 0.0
Zn300 Zn 0.96248 1.00213 0.22824 0.0
Zn301 Zn 0.87736 0.94625 0.17087 0.0
C302 C 0.8508 0.93909 0.27269 0.0
O303 O 0.86124 1.00709 0.28765 0.0
C304 C 1.00592 1.01199 0.13262 0.0
O305 O 1.02794 0.93523 0.13114 0.0
O306 O 1.01005 0.07939 0.25854 0.0
O307 O 1.03503 0.91963 0.20305 0.0
O308 O 0.94223 0.84595 0.18191 0.0
C309 C 0.07978 0.10425 0.25829 0.0
O310 O 0.1034 0.15531 0.27886 0.0
O311 O 0.88742 0.92724 0.24878 0.0
C312 C 0.8178 0.88546 0.11484 0.0
O313 O 0.89156 0.87705 0.1079 0.0
O314 O 0.79889 0.91009 0.14051 0.0
O315 O 0.80755 0.99507 0.20412 0.0
O316 O 0.89325 0.08953 0.21185 0.0
O317 O 0.94762 1.03152 0.14892 0.0
C318 C 1.01242 0.85235 0.19072 0.0
C319 C 0.82494 1.06305 0.21609 0.0
Zn320 Zn 0.7277 0.69493 0.91191 0.0
Zn321 Zn 0.71004 0.74188 0.96044 0.0
C322 C 0.77041 0.79446 0.86128 0.0
O323 O 0.69966 0.82424 0.86406 0.0
C324 C 0.63564 0.57648 0.9627 0.0
O325 O 0.63777 0.58003 0.99174 0.0
O326 O 0.69579 0.59372 0.8888 0.0
O327 O 0.80665 0.6477 0.94998 0.0
O328 O 0.77245 0.70254 0.99329 0.0
C329 C 0.66619 0.6 0.86297 0.0
O330 O 0.64897 0.67205 0.85214 0.0
O331 O 0.79648 0.74437 0.88032 0.0
C332 C 0.78724 0.88192 0.9252 0.0
O333 O 0.84468 0.90741 0.90837 0.0
O334 O 0.78726 0.80811 0.93435 0.0
O335 O 0.61382 0.7982 0.96288 0.0
O336 O 0.61354 0.76401 0.91594 0.0
O337 O 0.66136 0.63478 0.94731 0.0
C338 C 0.81612 0.65405 0.97863 0.0
C339 C 0.57901 0.79821 0.93817 0.0
Zn340 Zn 0.6472 0.51056 0.14608 0.0
Zn341 Zn 0.6164 0.49349 0.19355 0.0
C342 C 0.54498 0.55708 1.09316 0.0
O343 O 0.52616 0.47938 1.09146 0.0
C344 C 0.74289 0.38851 0.20113 0.0
O345 O 0.70984 0.38977 0.22731 0.0
O346 O 0.7357 0.47617 0.12296 0.0
O347 O 0.70525 0.59147 0.18266 0.0
O348 O 0.65729 0.55486 0.22655 0.0
C349 C 0.75638 0.40659 0.1135 0.0
O350 O 0.7183 0.33973 0.12055 0.0
O351 O 0.592 0.58125 0.11341 0.0
C352 C 0.48456 0.59342 0.16018 0.0
O353 O 0.46476 0.66188 0.14698 0.0
O354 O 0.55424 0.58458 0.16963 0.0
O355 O 0.56251 0.39309 0.19869 0.0
O356 O 0.58349 0.39306 0.15101 0.0
O357 O 0.71816 0.43595 0.18088 0.0
C358 C 0.70371 0.59932 0.2115 0.0
C359 C 0.55713 0.35642 0.17411 0.0
Zn360 Zn 0.84885 0.43454 0.41192 0.0
Zn361 Zn 0.86655 0.38763 0.46045 0.0
C362 C 0.80619 0.335 0.3613 0.0
O363 O 0.87694 0.30522 0.36411 0.0
C364 C 0.94103 0.55294 0.46272 0.0
O365 O 0.939 0.54924 0.49175 0.0
O366 O 0.88077 0.53573 0.38879 0.0
O367 O 0.76991 0.48181 0.44998 0.0
O368 O 0.80411 0.427 0.4933 0.0
C369 C 0.91044 0.52941 0.36298 0.0
O370 O 0.92772 0.45734 0.35218 0.0
O371 O 0.78008 0.38509 0.38033 0.0
C372 C 0.78938 0.24754 0.42522 0.0
O373 O 0.73191 0.22205 0.4084 0.0
O374 O 0.78933 0.32135 0.43437 0.0
O375 O 0.96279 0.33132 0.4629 0.0
O376 O 0.96301 0.36547 0.41595 0.0
O377 O 0.9152 0.49473 0.44731 0.0
C378 C 0.76044 0.47549 0.47863 0.0
C379 C 0.99757 0.3313 0.43818 0.0
Zn380 Zn 0.92939 0.6187 0.64608 0.0
Zn381 Zn 0.9602 0.63571 0.69355 0.0
C382 C 1.03164 0.57219 0.59316 0.0
O383 O 0.05048 0.64989 0.59147 0.0
C384 C 0.83374 0.7407 0.70115 0.0
O385 O 0.86682 0.73941 0.72732 0.0
O386 O 0.8409 0.65315 0.62296 0.0
O387 O 0.87133 0.53779 0.68266 0.0
O388 O 0.91933 0.57436 0.72654 0.0
C389 C 0.82022 0.72276 0.61353 0.0
O390 O 0.85832 0.78959 0.6206 0.0
O391 O 0.98458 0.54802 0.6134 0.0
C392 C 0.09196 0.5357 0.66019 0.0
O393 O 0.11175 0.46727 0.64696 0.0
O394 O 1.02227 0.54456 0.66961 0.0
O395 O 1.01414 0.73609 0.69869 0.0
O396 O 0.99317 0.73614 0.65101 0.0
O397 O 0.85845 0.6933 0.68089 0.0
C398 C 0.87288 0.52993 0.7115 0.0
C399 C 1.01956 0.77276 0.67411 0.0
Zn400 Zn 0.7279 0.43444 0.79441 0.0
Zn401 Zn 0.71019 0.3876 0.74587 0.0
C402 C 0.77061 0.33487 0.84505 0.0
O403 O 0.69985 0.30511 0.84226 0.0
C404 C 0.63567 0.55285 0.74361 0.0
O405 O 0.63766 0.5491 0.71458 0.0
O406 O 0.69592 0.5356 0.81754 0.0
O407 O 0.80685 0.48176 0.75636 0.0
O408 O 0.77264 0.42699 0.71303 0.0
C409 C 0.66624 0.5293 0.84335 0.0
O410 O 0.64905 0.45723 0.85418 0.0
O411 O 0.79668 0.38496 0.826 0.0
C412 C 0.78727 0.24744 0.7811 0.0
O413 O 0.84472 0.2219 0.79792 0.0
O414 O 0.78735 0.32124 0.77195 0.0
O415 O 0.61394 0.33134 0.7434 0.0
O416 O 0.61375 0.36535 0.79036 0.0
O417 O 0.66156 0.49469 0.75903 0.0
C418 C 0.81632 0.47547 0.72771 0.0
C419 C 0.57918 0.33124 0.76812 0.0
Zn420 Zn 0.92925 0.51084 1.06026 0.0
Zn421 Zn 0.96008 0.49394 1.01279 0.0
C422 C 1.03156 0.55731 0.11316 0.0
O423 O 0.05046 0.47963 0.11483 0.0
C424 C 0.83368 0.38891 1.00514 0.0
O425 O 0.86681 0.39029 0.97897 0.0
O426 O 0.84079 0.47629 1.08336 0.0
O427 O 0.87113 0.59175 1.02368 0.0
O428 O 0.91921 0.55527 0.9798 0.0
C429 C 0.82015 0.40666 1.09279 0.0
O430 O 0.8583 0.33986 1.08571 0.0
O431 O 0.98443 0.5815 1.09296 0.0
C432 C 0.09169 0.59413 1.04614 0.0
O433 O 0.11145 0.66251 1.0594 0.0
O434 O 1.02197 0.58522 1.03676 0.0
O435 O 1.01411 0.39361 1.00764 0.0
O436 O 0.99315 0.39348 1.05531 0.0
O437 O 0.85835 0.43625 1.02543 0.0
C438 C 0.87271 0.59963 0.99484 0.0
C439 C 1.0196 0.35693 1.03221 0.0
Zn440 Zn 0.84869 0.69486 0.2944 0.0
Zn441 Zn 0.86641 0.74169 0.24586 0.0
C442 C 0.80602 0.79444 0.34502 0.0
O443 O 0.87678 0.8242 0.34222 0.0
C444 C 0.94101 0.57651 0.24359 0.0
O445 O 0.9391 0.58038 0.21456 0.0
O446 O 0.88067 0.59372 0.31754 0.0
O447 O 0.76974 0.64752 0.25636 0.0
O448 O 0.80394 0.70227 0.21302 0.0
C449 C 0.9104 0.60006 0.34334 0.0
O450 O 0.92766 0.67214 0.35414 0.0
O451 O 0.77991 0.74435 0.32599 0.0
C452 C 0.78936 0.88188 0.28109 0.0
O453 O 0.73189 0.90742 0.29789 0.0
O454 O 0.78927 0.80807 0.27193 0.0
O455 O 0.96268 0.79793 0.24339 0.0
O456 O 0.96283 0.76394 0.29035 0.0
O457 O 0.91502 0.63459 0.25903 0.0
C458 C 0.76027 0.6538 0.2277 0.0
C459 C 0.99742 0.79804 0.26812 0.0
Zn460 Zn 0.64732 0.61869 0.56025 0.0
Zn461 Zn 0.61651 0.63567 0.51278 0.0
C462 C 0.54503 0.5722 0.61316 0.0
O463 O 0.52617 0.64989 0.61484 0.0
C464 C 0.74295 0.74068 0.50516 0.0
O465 O 0.70986 0.73936 0.479 0.0
O466 O 0.7358 0.65316 0.58336 0.0
O467 O 0.70541 0.53779 0.52368 0.0
O468 O 0.65739 0.57433 0.47979 0.0
C469 C 0.75645 0.72276 0.59281 0.0
O470 O 0.71832 0.78959 0.58576 0.0
O471 O 0.59212 0.54802 0.59294 0.0
C472 C 0.4848 0.53559 0.54614 0.0
O473 O 0.46502 0.46717 0.55937 0.0
O474 O 0.5545 0.54447 0.53673 0.0
O475 O 0.56254 0.73603 0.50763 0.0
O476 O 0.58351 0.73612 0.55531 0.0
O477 O 0.71825 0.6933 0.52544 0.0
C478 C 0.70386 0.52992 0.49484 0.0
C479 C 0.5571 0.77271 0.53221 0.0
Zn480 Zn 0.39179 0.42906 0.2161 0.0
Zn481 Zn 0.36357 0.43654 0.29132 0.0
C482 C 0.42567 0.53188 0.16623 0.0
O483 O 0.35157 0.54971 0.16344 0.0
C484 C 0.32015 0.32122 0.33707 0.0
O485 O 0.39251 0.29553 0.33513 0.0
O486 O 0.28877 0.3781 0.20112 0.0
O487 O 0.47096 0.35689 0.2376 0.0
O488 O 0.46845 0.36745 0.28602 0.0
C489 C 0.27554 0.30368 0.19458 0.0
O490 O 0.21015 0.28349 0.18135 0.0
O491 O 0.44661 0.47185 0.1817 0.0
C492 C 0.41142 0.52912 0.34333 0.0
O493 O 0.42159 0.45612 0.35463 0.0
O494 O 0.39159 0.53673 0.31618 0.0
O495 O 0.28405 0.47402 0.25711 0.0
O496 O 0.37699 0.53754 0.23525 0.0
O497 O 0.29511 0.3756 0.31947 0.0
C498 C 0.50072 0.33977 0.2626 0.0
C499 C 0.30509 0.52825 0.23847 0.0
Zn500 Zn 0.46266 0.62769 0.97793 0.0
Zn501 Zn 0.37761 0.68308 1.0354 0.0
C502 C 0.35057 0.69094 0.93366 0.0
O503 O 0.36106 0.62309 0.91862 0.0
C504 C 0.50635 0.61773 1.07363 0.0
O505 O 0.52822 0.69455 1.07507 0.0
O506 O 0.5101 0.55075 0.94749 0.0
O507 O 0.53523 0.71003 1.00315 0.0
O508 O 0.44239 0.78351 1.02438 0.0
C509 C 0.57975 0.52563 0.94784 0.0
O510 O 0.60342 0.47459 0.92727 0.0
O511 O 0.38729 0.70266 0.95755 0.0
C512 C 0.31782 0.74359 1.09147 0.0
O513 O 0.39157 0.75207 1.09841 0.0
O514 O 0.29899 0.71907 1.06577 0.0
O515 O 0.30804 0.63402 1.0021 0.0
O516 O 0.39398 0.53985 0.99435 0.0
O517 O 0.44804 0.59803 1.05735 0.0
C518 C 0.51258 0.77721 1.01554 0.0
C519 C 0.32558 0.56608 0.99012 0.0
Zn520 Zn 0.18484 0.70011 0.71614 0.0
Zn521 Zn 0.21315 0.69292 0.79134 0.0
C522 C 0.15086 0.59717 0.66629 0.0
O523 O 0.22496 0.57939 0.66346 0.0
C524 C 0.25648 0.80822 0.83709 0.0
O525 O 0.18411 0.83388 0.83514 0.0
O526 O 0.28777 0.75108 0.70107 0.0
O527 O 0.10566 0.77232 0.73761 0.0
O528 O 0.10826 0.76199 0.78603 0.0
C529 C 0.30103 0.8255 0.69453 0.0
O530 O 0.36635 0.84563 0.68124 0.0
O531 O 0.12991 0.65708 0.68182 0.0
C532 C 0.16534 0.60027 0.84334 0.0
O533 O 0.15517 0.67325 0.85465 0.0
O534 O 0.18515 0.59269 0.81619 0.0
O535 O 0.2927 0.65552 0.75712 0.0
O536 O 0.19978 0.59174 0.73535 0.0
O537 O 0.28157 0.75386 0.81949 0.0
C538 C 0.07594 0.78956 0.76261 0.0
C539 C 0.27168 0.60117 0.73852 0.0
Zn540 Zn 0.11405 0.50171 0.47796 0.0
Zn541 Zn 0.19909 0.44623 0.53542 0.0
C542 C 0.22608 0.43854 0.43366 0.0
O543 O 0.21559 0.50642 0.41863 0.0
C544 C 0.07029 0.51156 0.57363 0.0
O545 O 0.04843 0.43474 0.57507 0.0
O546 O 0.06659 0.5787 0.44754 0.0
O547 O 0.0415 0.41932 0.50318 0.0
O548 O 0.13433 0.3458 0.52439 0.0
C549 C 0.99694 0.60378 0.44786 0.0
O550 O 0.97328 0.65481 0.42729 0.0
O551 O 0.18939 0.42678 0.45755 0.0
C552 C 0.25885 0.38577 0.5915 0.0
O553 O 0.18511 0.3773 0.59845 0.0
O554 O 0.27768 0.41026 0.5658 0.0
O555 O 0.2687 0.49529 0.50214 0.0
O556 O 0.18279 0.5895 0.49439 0.0
O557 O 0.12861 0.53127 0.55737 0.0
C558 C 0.06415 0.35211 0.51555 0.0
C559 C 0.25117 0.56323 0.49016 0.0
Zn560 Zn 0.39186 0.70002 0.49016 0.0
Zn561 Zn 0.36342 0.69306 0.41499 0.0
C562 C 0.42589 0.59703 0.54001 0.0
O563 O 0.35179 0.57926 0.54285 0.0
C564 C 0.31996 0.80828 0.36923 0.0
O565 O 0.39231 0.83402 0.37117 0.0
O566 O 0.28898 0.75102 0.50528 0.0
O567 O 0.47104 0.77224 0.46869 0.0
O568 O 0.46827 0.76221 0.42027 0.0
C569 C 0.2757 0.82544 0.5118 0.0
O570 O 0.21041 0.84556 0.52511 0.0
O571 O 0.44684 0.65688 0.52445 0.0
C572 C 0.4114 0.60046 0.36301 0.0
O573 O 0.42161 0.67345 0.35171 0.0
O574 O 0.39149 0.59284 0.39015 0.0
O575 O 0.2839 0.65565 0.44921 0.0
O576 O 0.37683 0.5917 0.47093 0.0
O577 O 0.29493 0.7539 0.38683 0.0
C578 C 0.50068 0.78962 0.44369 0.0
C579 C 0.30493 0.60127 0.4678 0.0
Zn580 Zn 0.1141 0.62769 0.22831 0.0
Zn581 Zn 0.19913 0.68325 0.17086 0.0
C582 C 0.22605 0.69084 0.27265 0.0
O583 O 0.21556 0.62296 0.28767 0.0
C584 C 0.07026 0.61794 0.13269 0.0
O585 O 0.04843 0.69477 0.13124 0.0
O586 O 0.06661 0.55068 0.25872 0.0
O587 O 0.04157 0.71013 0.2031 0.0
O588 O 0.1344 0.78369 0.1819 0.0
C589 C 0.99693 0.52567 0.25844 0.0
O590 O 0.97332 0.47468 0.27903 0.0
O591 O 0.18939 0.7026 0.24874 0.0
C592 C 0.25887 0.74364 0.11477 0.0
O593 O 0.18513 0.75214 0.10782 0.0
O594 O 0.2777 0.71917 0.14047 0.0
O595 O 0.26879 0.63422 0.20414 0.0
O596 O 0.18292 0.53997 0.2119 0.0
O597 O 0.1286 0.59822 0.14894 0.0
C598 C 0.06422 0.77736 0.19074 0.0
C599 C 0.25129 0.56629 0.21613 0.0
Zn600 Zn 0.18476 0.42964 0.99011 0.0
Zn601 Zn 0.21333 0.43622 0.91498 0.0
C602 C 0.15061 0.53278 1.03994 0.0
O603 O 0.22471 0.55048 1.04283 0.0
C604 C 0.25671 0.32103 0.86921 0.0
O605 O 0.18436 0.29532 0.87116 0.0
O606 O 0.28752 0.37863 1.00535 0.0
O607 O 0.10557 0.35737 0.96867 0.0
O608 O 0.10848 0.36707 0.92025 0.0
C609 C 0.30084 0.30421 1.01188 0.0
O610 O 0.36605 0.28415 1.02525 0.0
O611 O 0.12965 0.47309 1.0243 0.0
C612 C 0.16537 0.5289 0.86301 0.0
O613 O 0.15516 0.45592 0.8517 0.0
O614 O 0.18528 0.53647 0.89015 0.0
O615 O 0.29287 0.47354 0.94921 0.0
O616 O 0.19998 0.53783 0.9708 0.0
O617 O 0.28178 0.37539 0.8868 0.0
C618 C 0.07599 0.33983 0.94369 0.0
C619 C 0.27188 0.52807 0.96774 0.0
Zn620 Zn 0.46261 0.50169 0.72834 0.0
Zn621 Zn 0.37756 0.44621 0.67089 0.0
C622 C 0.35061 0.43846 0.77265 0.0
O623 O 0.36108 0.50633 0.78768 0.0
C624 C 0.50637 0.51155 0.63269 0.0
O625 O 0.52821 0.43473 0.63124 0.0
O626 O 0.51009 0.57866 0.75876 0.0
O627 O 0.53515 0.4193 0.70312 0.0
O628 O 0.44232 0.34578 0.68191 0.0
C629 C 0.57976 0.60369 0.75846 0.0
O630 O 0.60339 0.65469 0.77905 0.0
O631 O 0.3873 0.42674 0.74875 0.0
C632 C 0.31781 0.38576 0.6148 0.0
O633 O 0.39154 0.37726 0.60785 0.0
O634 O 0.29897 0.41026 0.64051 0.0
O635 O 0.30793 0.49523 0.70417 0.0
O636 O 0.39382 0.58946 0.71194 0.0
O637 O 0.44804 0.53126 0.64895 0.0
C638 C 0.5125 0.35209 0.69075 0.0
C639 C 0.32545 0.56316 0.71617 0.0
loop_
_geom_bond_atom_site_label_1
_geom_bond_atom_site_label_2
_geom_bond_distance
_geom_bond_site_symmetry_2
_ccdc_geom_bond_type
Zn0 O6 1.969 . S
Zn0 O7 1.965 . S
Zn0 O11 2.024 . S
Zn0 O16 1.969 . S
Zn1 O8 1.969 . S
Zn1 O14 1.969 . S
Zn1 O15 1.965 . S
Zn1 O17 2.024 . S
C2 O3 1.229 . S
C2 O11 1.058 . S
O3 C2 1.229 . S
C4 O5 1.229 . S
C4 O17 1.058 . S
O5 C4 1.229 . S
O6 Zn0 1.969 . S
O6 C9 1.267 . S
O7 Zn0 1.965 . S
O7 C18 1.260 . S
O8 Zn1 1.969 . S
O8 C18 1.258 . S
C9 O6 1.267 . S
C9 O10 1.228 . S
O10 C9 1.228 . S
O11 Zn0 2.024 . S
O11 C2 1.058 . S
C12 O13 1.228 . S
C12 O14 1.267 . S
O13 C12 1.228 . S
O14 Zn1 1.969 . S
O14 C12 1.267 . S
O15 Zn1 1.965 . S
O15 C19 1.260 . S
O16 Zn0 1.969 . S
O16 C19 1.258 . S
O17 Zn1 2.024 . S
O17 C4 1.058 . S
C18 O7 1.260 . S
C18 O8 1.258 . S
C19 O15 1.260 . S
C19 O16 1.258 . S
Zn20 O26 1.969 . S
Zn20 O27 1.965 . S
Zn20 O31 2.024 1_565 S
Zn20 O36 1.969 . S
Zn21 O28 1.969 . S
Zn21 O34 1.969 1_455 S
Zn21 O35 1.965 . S
Zn21 O37 2.024 . S
C22 O23 1.229 1_545 S
C22 O31 1.058 . S
O23 C22 1.229 1_565 S
C24 O25 1.229 . S
C24 O37 1.058 . S
O25 C24 1.229 . S
O26 Zn20 1.969 . S
O26 C29 1.267 . S
O27 Zn20 1.965 . S
O27 C38 1.260 1_565 S
O28 Zn21 1.969 . S
O28 C38 1.258 1_565 S
C29 O26 1.267 . S
C29 O30 1.228 1_565 S
O30 C29 1.228 1_545 S
O31 Zn20 2.024 1_545 S
O31 C22 1.058 . S
C32 O33 1.228 . S
C32 O34 1.267 . S
O33 C32 1.228 . S
O34 Zn21 1.969 1_655 S
O34 C32 1.267 . S
O35 Zn21 1.965 . S
O35 C39 1.260 . S
O36 Zn20 1.969 . S
O36 C39 1.258 . S
O37 Zn21 2.024 . S
O37 C24 1.058 . S
C38 O27 1.260 1_545 S
C38 O28 1.258 1_545 S
C39 O35 1.260 . S
C39 O36 1.258 . S
Zn40 O46 1.969 . S
Zn40 O47 1.965 . S
Zn40 O51 2.024 . S
Zn40 O56 1.969 . S
Zn41 O48 1.969 . S
Zn41 O54 1.969 . S
Zn41 O55 1.965 . S
Zn41 O57 2.024 . S
C42 O43 1.229 . S
C42 O51 1.058 . S
O43 C42 1.229 . S
C44 O45 1.229 . S
C44 O57 1.058 . S
O45 C44 1.229 . S
O46 Zn40 1.969 . S
O46 C49 1.267 . S
O47 Zn40 1.965 . S
O47 C58 1.260 . S
O48 Zn41 1.969 . S
O48 C58 1.258 . S
C49 O46 1.267 . S
C49 O50 1.228 . S
O50 C49 1.228 . S
O51 Zn40 2.024 . S
O51 C42 1.058 . S
C52 O53 1.228 . S
C52 O54 1.267 . S
O53 C52 1.228 . S
O54 Zn41 1.969 . S
O54 C52 1.267 . S
O55 Zn41 1.965 . S
O55 C59 1.260 . S
O56 Zn40 1.969 . S
O56 C59 1.258 . S
O57 Zn41 2.024 . S
O57 C44 1.058 . S
C58 O47 1.260 . S
C58 O48 1.258 . S
C59 O55 1.260 . S
C59 O56 1.258 . S
Zn60 O66 1.969 . S
Zn60 O67 1.965 . S
Zn60 O71 2.024 1_545 S
Zn60 O76 1.969 . S
Zn61 O68 1.969 . S
Zn61 O74 1.969 . S
Zn61 O75 1.965 . S
Zn61 O77 2.024 . S
C62 O63 1.229 1_564 S
C62 O71 1.058 . S
O63 C62 1.229 1_546 S
C64 O65 1.229 . S
C64 O77 1.058 . S
O65 C64 1.229 . S
O66 Zn60 1.969 . S
O66 C69 1.267 . S
O67 Zn60 1.965 . S
O67 C78 1.260 1_545 S
O68 Zn61 1.969 . S
O68 C78 1.258 1_545 S
C69 O66 1.267 . S
C69 O70 1.228 1_545 S
O70 C69 1.228 1_565 S
O71 Zn60 2.024 1_565 S
O71 C62 1.058 . S
C72 O73 1.228 . S
C72 O74 1.267 . S
O73 C72 1.228 . S
O74 Zn61 1.969 . S
O74 C72 1.267 . S
O75 Zn61 1.965 . S
O75 C79 1.260 . S
O76 Zn60 1.969 . S
O76 C79 1.258 . S
O77 Zn61 2.024 . S
O77 C64 1.058 . S
C78 O67 1.260 1_565 S
C78 O68 1.258 1_565 S
C79 O75 1.260 . S
C79 O76 1.258 . S
Zn80 O86 1.969 . S
Zn80 O87 1.965 . S
Zn80 O91 2.024 . S
Zn80 O96 1.969 . S
Zn81 O88 1.969 . S
Zn81 O94 1.969 . S
Zn81 O95 1.965 . S
Zn81 O97 2.024 . S
C82 O83 1.229 . S
C82 O91 1.058 . S
O83 C82 1.229 . S
C84 O85 1.229 . S
C84 O97 1.058 . S
O85 C84 1.229 . S
O86 Zn80 1.969 . S
O86 C89 1.267 . S
O87 Zn80 1.965 . S
O87 C98 1.260 . S
O88 Zn81 1.969 . S
O88 C98 1.258 . S
C89 O86 1.267 . S
C89 O90 1.228 . S
O90 C89 1.228 . S
O91 Zn80 2.024 . S
O91 C82 1.058 . S
C92 O93 1.228 . S
C92 O94 1.267 . S
O93 C92 1.228 . S
O94 Zn81 1.969 . S
O94 C92 1.267 . S
O95 Zn81 1.965 . S
O95 C99 1.260 . S
O96 Zn80 1.969 . S
O96 C99 1.258 . S
O97 Zn81 2.024 . S
O97 C84 1.058 . S
C98 O87 1.260 . S
C98 O88 1.258 . S
C99 O95 1.260 . S
C99 O96 1.258 . S
Zn100 O106 1.969 . S
Zn100 O107 1.965 . S
Zn100 O111 2.024 1_565 S
Zn100 O116 1.969 . S
Zn101 O108 1.969 . S
Zn101 O114 1.969 . S
Zn101 O115 1.965 . S
Zn101 O117 2.024 . S
C102 O103 1.229 1_545 S
C102 O111 1.058 . S
O103 C102 1.229 1_565 S
C104 O105 1.229 . S
C104 O117 1.058 . S
O105 C104 1.229 . S
O106 Zn100 1.969 . S
O106 C109 1.267 . S
O107 Zn100 1.965 . S
O107 C118 1.260 1_565 S
O108 Zn101 1.969 . S
O108 C118 1.258 1_565 S
C109 O106 1.267 . S
C109 O110 1.228 1_565 S
O110 C109 1.228 1_545 S
O111 Zn100 2.024 1_545 S
O111 C102 1.058 . S
C112 O113 1.228 . S
C112 O114 1.267 . S
O113 C112 1.228 . S
O114 Zn101 1.969 . S
O114 C112 1.267 . S
O115 Zn101 1.965 . S
O115 C119 1.260 . S
O116 Zn100 1.969 . S
O116 C119 1.258 . S
O117 Zn101 2.024 . S
O117 C104 1.058 . S
C118 O107 1.260 1_545 S
C118 O108 1.258 1_545 S
C119 O115 1.260 . S
C119 O116 1.258 . S
Zn120 O126 1.969 . S
Zn120 O127 1.965 . S
Zn120 O131 2.024 . S
Zn120 O136 1.969 . S
Zn121 O128 1.969 . S
Zn121 O134 1.969 . S
Zn121 O135 1.965 . S
Zn121 O137 2.024 . S
C122 O123 1.229 . S
C122 O131 1.058 . S
O123 C122 1.229 . S
C124 O125 1.229 . S
C124 O137 1.058 . S
O125 C124 1.229 . S
O126 Zn120 1.969 . S
O126 C129 1.267 . S
O127 Zn120 1.965 . S
O127 C138 1.260 . S
O128 Zn121 1.969 . S
O128 C138 1.258 . S
C129 O126 1.267 . S
C129 O130 1.228 . S
O130 C129 1.228 . S
O131 Zn120 2.024 . S
O131 C122 1.058 . S
C132 O133 1.228 . S
C132 O134 1.267 . S
O133 C132 1.228 . S
O134 Zn121 1.969 . S
O134 C132 1.267 . S
O135 Zn121 1.965 . S
O135 C139 1.260 . S
O136 Zn120 1.969 . S
O136 C139 1.258 . S
O137 Zn121 2.024 . S
O137 C124 1.058 . S
C138 O127 1.260 . S
C138 O128 1.258 . S
C139 O135 1.260 . S
C139 O136 1.258 . S
Zn140 O146 1.969 . S
Zn140 O147 1.965 . S
Zn140 O151 2.024 1_545 S
Zn140 O156 1.969 . S
Zn141 O148 1.969 . S
Zn141 O154 1.969 1_455 S
Zn141 O155 1.965 . S
Zn141 O157 2.024 . S
C142 O143 1.229 1_566 S
C142 O151 1.058 . S
O143 C142 1.229 1_544 S
C144 O145 1.229 . S
C144 O157 1.058 . S
O145 C144 1.229 . S
O146 Zn140 1.969 . S
O146 C149 1.267 . S
O147 Zn140 1.965 . S
O147 C158 1.260 1_545 S
O148 Zn141 1.969 . S
O148 C158 1.258 1_545 S
C149 O146 1.267 . S
C149 O150 1.228 1_545 S
O150 C149 1.228 1_565 S
O151 Zn140 2.024 1_565 S
O151 C142 1.058 . S
C152 O153 1.228 . S
C152 O154 1.267 . S
O153 C152 1.228 . S
O154 Zn141 1.969 1_655 S
O154 C152 1.267 . S
O155 Zn141 1.965 . S
O155 C159 1.260 . S
O156 Zn140 1.969 . S
O156 C159 1.258 . S
O157 Zn141 2.024 . S
O157 C144 1.058 . S
C158 O147 1.260 1_565 S
C158 O148 1.258 1_565 S
C159 O155 1.260 . S
C159 O156 1.258 . S
Zn160 O166 1.969 . S
Zn160 O167 1.965 . S
Zn160 O171 2.024 . S
Zn160 O176 1.969 . S
Zn161 O168 1.969 . S
Zn161 O174 1.969 . S
Zn161 O175 1.965 . S
Zn161 O177 2.024 . S
C162 O163 1.229 . S
C162 O171 1.058 . S
O163 C162 1.229 . S
C164 O165 1.229 . S
C164 O177 1.058 . S
O165 C164 1.229 . S
O166 Zn160 1.969 . S
O166 C169 1.267 . S
O167 Zn160 1.965 . S
O167 C178 1.260 . S
O168 Zn161 1.969 . S
O168 C178 1.258 . S
C169 O166 1.267 . S
C169 O170 1.228 . S
O170 C169 1.228 . S
O171 Zn160 2.024 . S
O171 C162 1.058 . S
C172 O173 1.228 . S
C172 O174 1.267 . S
O173 C172 1.228 . S
O174 Zn161 1.969 . S
O174 C172 1.267 . S
O175 Zn161 1.965 . S
O175 C179 1.260 . S
O176 Zn160 1.969 . S
O176 C179 1.258 . S
O177 Zn161 2.024 . S
O177 C164 1.058 . S
C178 O167 1.260 . S
C178 O168 1.258 . S
C179 O175 1.260 . S
C179 O176 1.258 . S
Zn180 O186 1.969 1_655 S
Zn180 O187 1.965 . S
Zn180 O191 2.024 . S
Zn180 O196 1.969 . S
Zn181 O188 1.969 . S
Zn181 O194 1.969 . S
Zn181 O195 1.965 . S
Zn181 O197 2.024 1_545 S
C182 O183 1.229 . S
C182 O191 1.058 . S
O183 C182 1.229 . S
C184 O185 1.229 1_565 S
C184 O197 1.058 . S
O185 C184 1.229 1_545 S
O186 Zn180 1.969 1_455 S
O186 C189 1.267 . S
O187 Zn180 1.965 . S
O187 C198 1.260 . S
O188 Zn181 1.969 . S
O188 C198 1.258 . S
C189 O186 1.267 . S
C189 O190 1.228 . S
O190 C189 1.228 . S
O191 Zn180 2.024 . S
O191 C182 1.058 . S
C192 O193 1.228 1_545 S
C192 O194 1.267 . S
O193 C192 1.228 1_565 S
O194 Zn181 1.969 . S
O194 C192 1.267 . S
O195 Zn181 1.965 . S
O195 C199 1.260 1_545 S
O196 Zn180 1.969 . S
O196 C199 1.258 1_545 S
O197 Zn181 2.024 1_565 S
O197 C184 1.058 . S
C198 O187 1.260 . S
C198 O188 1.258 . S
C199 O195 1.260 1_565 S
C199 O196 1.258 1_565 S
Zn200 O206 1.969 . S
Zn200 O207 1.965 . S
Zn200 O211 2.024 . S
Zn200 O216 1.969 . S
Zn201 O208 1.969 . S
Zn201 O214 1.969 . S
Zn201 O215 1.965 . S
Zn201 O217 2.024 . S
C202 O203 1.229 . S
C202 O211 1.058 . S
O203 C202 1.229 . S
C204 O205 1.229 . S
C204 O217 1.058 . S
O205 C204 1.229 . S
O206 Zn200 1.969 . S
O206 C209 1.267 . S
O207 Zn200 1.965 . S
O207 C218 1.260 . S
O208 Zn201 1.969 . S
O208 C218 1.258 . S
C209 O206 1.267 . S
C209 O210 1.228 . S
O210 C209 1.228 . S
O211 Zn200 2.024 . S
O211 C202 1.058 . S
C212 O213 1.228 . S
C212 O214 1.267 . S
O213 C212 1.228 . S
O214 Zn201 1.969 . S
O214 C212 1.267 . S
O215 Zn201 1.965 . S
O215 C219 1.260 . S
O216 Zn200 1.969 . S
O216 C219 1.258 . S
O217 Zn201 2.024 . S
O217 C204 1.058 . S
C218 O207 1.260 . S
C218 O208 1.258 . S
C219 O215 1.260 . S
C219 O216 1.258 . S
Zn220 O226 1.969 . S
Zn220 O227 1.965 . S
Zn220 O231 2.024 . S
Zn220 O236 1.969 . S
Zn221 O228 1.969 . S
Zn221 O234 1.969 . S
Zn221 O235 1.965 . S
Zn221 O237 2.024 1_565 S
C222 O223 1.229 . S
C222 O231 1.058 . S
O223 C222 1.229 . S
C224 O225 1.229 1_546 S
C224 O237 1.058 . S
O225 C224 1.229 1_564 S
O226 Zn220 1.969 . S
O226 C229 1.267 . S
O227 Zn220 1.965 . S
O227 C238 1.260 . S
O228 Zn221 1.969 . S
O228 C238 1.258 . S
C229 O226 1.267 . S
C229 O230 1.228 . S
O230 C229 1.228 . S
O231 Zn220 2.024 . S
O231 C222 1.058 . S
C232 O233 1.228 1_565 S
C232 O234 1.267 . S
O233 C232 1.228 1_545 S
O234 Zn221 1.969 . S
O234 C232 1.267 . S
O235 Zn221 1.965 . S
O235 C239 1.260 1_565 S
O236 Zn220 1.969 . S
O236 C239 1.258 1_565 S
O237 Zn221 2.024 1_545 S
O237 C224 1.058 . S
C238 O227 1.260 . S
C238 O228 1.258 . S
C239 O235 1.260 1_545 S
C239 O236 1.258 1_545 S
Zn240 O246 1.969 . S
Zn240 O247 1.965 . S
Zn240 O251 2.024 . S
Zn240 O256 1.969 . S
Zn241 O248 1.969 . S
Zn241 O254 1.969 . S
Zn241 O255 1.965 . S
Zn241 O257 2.024 . S
C242 O243 1.229 . S
C242 O251 1.058 . S
O243 C242 1.229 . S
C244 O245 1.229 . S
C244 O257 1.058 . S
O245 C244 1.229 . S
O246 Zn240 1.969 . S
O246 C249 1.267 . S
O247 Zn240 1.965 . S
O247 C258 1.260 . S
O248 Zn241 1.969 . S
O248 C258 1.258 . S
C249 O246 1.267 . S
C249 O250 1.228 . S
O250 C249 1.228 . S
O251 Zn240 2.024 . S
O251 C242 1.058 . S
C252 O253 1.228 . S
C252 O254 1.267 . S
O253 C252 1.228 . S
O254 Zn241 1.969 . S
O254 C252 1.267 . S
O255 Zn241 1.965 . S
O255 C259 1.260 . S
O256 Zn240 1.969 . S
O256 C259 1.258 . S
O257 Zn241 2.024 . S
O257 C244 1.058 . S
C258 O247 1.260 . S
C258 O248 1.258 . S
C259 O255 1.260 . S
C259 O256 1.258 . S
Zn260 O266 1.969 . S
Zn260 O267 1.965 . S
Zn260 O271 2.024 . S
Zn260 O276 1.969 . S
Zn261 O268 1.969 . S
Zn261 O274 1.969 . S
Zn261 O275 1.965 . S
Zn261 O277 2.024 1_545 S
C262 O263 1.229 . S
C262 O271 1.058 . S
O263 C262 1.229 . S
C264 O265 1.229 1_565 S
C264 O277 1.058 . S
O265 C264 1.229 1_545 S
O266 Zn260 1.969 . S
O266 C269 1.267 . S
O267 Zn260 1.965 . S
O267 C278 1.260 . S
O268 Zn261 1.969 . S
O268 C278 1.258 . S
C269 O266 1.267 . S
C269 O270 1.228 . S
O270 C269 1.228 . S
O271 Zn260 2.024 . S
O271 C262 1.058 . S
C272 O273 1.228 1_545 S
C272 O274 1.267 . S
O273 C272 1.228 1_565 S
O274 Zn261 1.969 . S
O274 C272 1.267 . S
O275 Zn261 1.965 . S
O275 C279 1.260 1_545 S
O276 Zn260 1.969 . S
O276 C279 1.258 1_545 S
O277 Zn261 2.024 1_565 S
O277 C264 1.058 . S
C278 O267 1.260 . S
C278 O268 1.258 . S
C279 O275 1.260 1_565 S
C279 O276 1.258 1_565 S
Zn280 O286 1.969 . S
Zn280 O287 1.965 . S
Zn280 O291 2.024 . S
Zn280 O296 1.969 . S
Zn281 O288 1.969 . S
Zn281 O294 1.969 . S
Zn281 O295 1.965 . S
Zn281 O297 2.024 . S
C282 O283 1.229 . S
C282 O291 1.058 . S
O283 C282 1.229 . S
C284 O285 1.229 . S
C284 O297 1.058 . S
O285 C284 1.229 . S
O286 Zn280 1.969 . S
O286 C289 1.267 . S
O287 Zn280 1.965 . S
O287 C298 1.260 . S
O288 Zn281 1.969 . S
O288 C298 1.258 . S
C289 O286 1.267 . S
C289 O290 1.228 . S
O290 C289 1.228 . S
O291 Zn280 2.024 . S
O291 C282 1.058 . S
C292 O293 1.228 . S
C292 O294 1.267 . S
O293 C292 1.228 . S
O294 Zn281 1.969 . S
O294 C292 1.267 . S
O295 Zn281 1.965 . S
O295 C299 1.260 . S
O296 Zn280 1.969 . S
O296 C299 1.258 . S
O297 Zn281 2.024 . S
O297 C284 1.058 . S
C298 O287 1.260 . S
C298 O288 1.258 . S
C299 O295 1.260 . S
C299 O296 1.258 . S
Zn300 O306 1.969 1_655 S
Zn300 O307 1.965 . S
Zn300 O311 2.024 . S
Zn300 O316 1.969 . S
Zn301 O308 1.969 . S
Zn301 O314 1.969 . S
Zn301 O315 1.965 . S
Zn301 O317 2.024 1_565 S
C302 O303 1.229 . S
C302 O311 1.058 . S
O303 C302 1.229 . S
C304 O305 1.229 1_544 S
C304 O317 1.058 . S
O305 C304 1.229 1_566 S
O306 Zn300 1.969 1_455 S
O306 C309 1.267 . S
O307 Zn300 1.965 . S
O307 C318 1.260 . S
O308 Zn301 1.969 . S
O308 C318 1.258 . S
C309 O306 1.267 . S
C309 O310 1.228 . S
O310 C309 1.228 . S
O311 Zn300 2.024 . S
O311 C302 1.058 . S
C312 O313 1.228 1_565 S
C312 O314 1.267 . S
O313 C312 1.228 1_545 S
O314 Zn301 1.969 . S
O314 C312 1.267 . S
O315 Zn301 1.965 . S
O315 C319 1.260 1_565 S
O316 Zn300 1.969 . S
O316 C319 1.258 1_565 S
O317 Zn301 2.024 1_545 S
O317 C304 1.058 . S
C318 O307 1.260 . S
C318 O308 1.258 . S
C319 O315 1.260 1_545 S
C319 O316 1.258 1_545 S
Zn320 O326 1.969 . S
Zn320 O327 1.965 . S
Zn320 O331 2.024 . S
Zn320 O336 1.969 . S
Zn321 O328 1.969 . S
Zn321 O334 1.969 . S
Zn321 O335 1.965 . S
Zn321 O337 2.024 . S
C322 O323 1.229 . S
C322 O331 1.058 . S
O323 C322 1.229 . S
C324 O325 1.229 . S
C324 O337 1.058 . S
O325 C324 1.229 . S
O326 Zn320 1.969 . S
O326 C329 1.267 . S
O327 Zn320 1.965 . S
O327 C338 1.260 . S
O328 Zn321 1.969 . S
O328 C338 1.258 . S
C329 O326 1.267 . S
C329 O330 1.228 . S
O330 C329 1.228 . S
O331 Zn320 2.024 . S
O331 C322 1.058 . S
C332 O333 1.228 . S
C332 O334 1.267 . S
O333 C332 1.228 . S
O334 Zn321 1.969 . S
O334 C332 1.267 . S
O335 Zn321 1.965 . S
O335 C339 1.260 . S
O336 Zn320 1.969 . S
O336 C339 1.258 . S
O337 Zn321 2.024 . S
O337 C324 1.058 . S
C338 O327 1.260 . S
C338 O328 1.258 . S
C339 O335 1.260 . S
C339 O336 1.258 . S
Zn340 O346 1.969 . S
Zn340 O347 1.965 . S
Zn340 O351 2.024 . S
Zn340 O356 1.969 . S
Zn341 O348 1.969 . S
Zn341 O354 1.969 . S
Zn341 O355 1.965 . S
Zn341 O357 2.024 . S
C342 O343 1.229 1_554 S
C342 O351 1.058 . S
O343 C342 1.229 1_556 S
C344 O345 1.229 . S
C344 O357 1.058 . S
O345 C344 1.229 . S
O346 Zn340 1.969 . S
O346 C349 1.267 . S
O347 Zn340 1.965 . S
O347 C358 1.260 . S
O348 Zn341 1.969 . S
O348 C358 1.258 . S
C349 O346 1.267 . S
C349 O350 1.228 . S
O350 C349 1.228 . S
O351 Zn340 2.024 . S
O351 C342 1.058 . S
C352 O353 1.228 . S
C352 O354 1.267 . S
O353 C352 1.228 . S
O354 Zn341 1.969 . S
O354 C352 1.267 . S
O355 Zn341 1.965 . S
O355 C359 1.260 . S
O356 Zn340 1.969 . S
O356 C359 1.258 . S
O357 Zn341 2.024 . S
O357 C344 1.058 . S
C358 O347 1.260 . S
C358 O348 1.258 . S
C359 O355 1.260 . S
C359 O356 1.258 . S
Zn360 O366 1.969 . S
Zn360 O367 1.965 . S
Zn360 O371 2.024 . S
Zn360 O376 1.969 . S
Zn361 O368 1.969 . S
Zn361 O374 1.969 . S
Zn361 O375 1.965 . S
Zn361 O377 2.024 . S
C362 O363 1.229 . S
C362 O371 1.058 . S
O363 C362 1.229 . S
C364 O365 1.229 . S
C364 O377 1.058 . S
O365 C364 1.229 . S
O366 Zn360 1.969 . S
O366 C369 1.267 . S
O367 Zn360 1.965 . S
O367 C378 1.260 . S
O368 Zn361 1.969 . S
O368 C378 1.258 . S
C369 O366 1.267 . S
C369 O370 1.228 . S
O370 C369 1.228 . S
O371 Zn360 2.024 . S
O371 C362 1.058 . S
C372 O373 1.228 . S
C372 O374 1.267 . S
O373 C372 1.228 . S
O374 Zn361 1.969 . S
O374 C372 1.267 . S
O375 Zn361 1.965 . S
O375 C379 1.260 . S
O376 Zn360 1.969 . S
O376 C379 1.258 . S
O377 Zn361 2.024 . S
O377 C364 1.058 . S
C378 O367 1.260 . S
C378 O368 1.258 . S
C379 O375 1.260 . S
C379 O376 1.258 . S
Zn380 O386 1.969 . S
Zn380 O387 1.965 . S
Zn380 O391 2.024 . S
Zn380 O396 1.969 . S
Zn381 O388 1.969 . S
Zn381 O394 1.969 1_655 S
Zn381 O395 1.965 . S
Zn381 O397 2.024 . S
C382 O383 1.229 . S
C382 O391 1.058 . S
O383 C382 1.229 . S
C384 O385 1.229 . S
C384 O397 1.058 . S
O385 C384 1.229 . S
O386 Zn380 1.969 . S
O386 C389 1.267 . S
O387 Zn380 1.965 . S
O387 C398 1.260 . S
O388 Zn381 1.969 . S
O388 C398 1.258 . S
C389 O386 1.267 . S
C389 O390 1.228 . S
O390 C389 1.228 . S
O391 Zn380 2.024 . S
O391 C382 1.058 . S
C392 O393 1.228 . S
C392 O394 1.267 . S
O393 C392 1.228 . S
O394 Zn381 1.969 1_455 S
O394 C392 1.267 . S
O395 Zn381 1.965 . S
O395 C399 1.260 . S
O396 Zn380 1.969 . S
O396 C399 1.258 . S
O397 Zn381 2.024 . S
O397 C384 1.058 . S
C398 O387 1.260 . S
C398 O388 1.258 . S
C399 O395 1.260 . S
C399 O396 1.258 . S
Zn400 O406 1.969 . S
Zn400 O407 1.965 . S
Zn400 O411 2.024 . S
Zn400 O416 1.969 . S
Zn401 O408 1.969 . S
Zn401 O414 1.969 . S
Zn401 O415 1.965 . S
Zn401 O417 2.024 . S
C402 O403 1.229 . S
C402 O411 1.058 . S
O403 C402 1.229 . S
C404 O405 1.229 . S
C404 O417 1.058 . S
O405 C404 1.229 . S
O406 Zn400 1.969 . S
O406 C409 1.267 . S
O407 Zn400 1.965 . S
O407 C418 1.260 . S
O408 Zn401 1.969 . S
O408 C418 1.258 . S
C409 O406 1.267 . S
C409 O410 1.228 . S
O410 C409 1.228 . S
O411 Zn400 2.024 . S
O411 C402 1.058 . S
C412 O413 1.228 . S
C412 O414 1.267 . S
O413 C412 1.228 . S
O414 Zn401 1.969 . S
O414 C412 1.267 . S
O415 Zn401 1.965 . S
O415 C419 1.260 . S
O416 Zn400 1.969 . S
O416 C419 1.258 . S
O417 Zn401 2.024 . S
O417 C404 1.058 . S
C418 O407 1.260 . S
C418 O408 1.258 . S
C419 O415 1.260 . S
C419 O416 1.258 . S
Zn420 O426 1.969 . S
Zn420 O427 1.965 . S
Zn420 O431 2.024 . S
Zn420 O436 1.969 . S
Zn421 O428 1.969 . S
Zn421 O434 1.969 1_655 S
Zn421 O435 1.965 . S
Zn421 O437 2.024 . S
C422 O423 1.229 1_556 S
C422 O431 1.058 . S
O423 C422 1.229 1_554 S
C424 O425 1.229 . S
C424 O437 1.058 . S
O425 C424 1.229 . S
O426 Zn420 1.969 . S
O426 C429 1.267 . S
O427 Zn420 1.965 . S
O427 C438 1.260 . S
O428 Zn421 1.969 . S
O428 C438 1.258 . S
C429 O426 1.267 . S
C429 O430 1.228 . S
O430 C429 1.228 . S
O431 Zn420 2.024 . S
O431 C422 1.058 . S
C432 O433 1.228 . S
C432 O434 1.267 . S
O433 C432 1.228 . S
O434 Zn421 1.969 1_455 S
O434 C432 1.267 . S
O435 Zn421 1.965 . S
O435 C439 1.260 . S
O436 Zn420 1.969 . S
O436 C439 1.258 . S
O437 Zn421 2.024 . S
O437 C424 1.058 . S
C438 O427 1.260 . S
C438 O428 1.258 . S
C439 O435 1.260 . S
C439 O436 1.258 . S
Zn440 O446 1.969 . S
Zn440 O447 1.965 . S
Zn440 O451 2.024 . S
Zn440 O456 1.969 . S
Zn441 O448 1.969 . S
Zn441 O454 1.969 . S
Zn441 O455 1.965 . S
Zn441 O457 2.024 . S
C442 O443 1.229 . S
C442 O451 1.058 . S
O443 C442 1.229 . S
C444 O445 1.229 . S
C444 O457 1.058 . S
O445 C444 1.229 . S
O446 Zn440 1.969 . S
O446 C449 1.267 . S
O447 Zn440 1.965 . S
O447 C458 1.260 . S
O448 Zn441 1.969 . S
O448 C458 1.258 . S
C449 O446 1.267 . S
C449 O450 1.228 . S
O450 C449 1.228 . S
O451 Zn440 2.024 . S
O451 C442 1.058 . S
C452 O453 1.228 . S
C452 O454 1.267 . S
O453 C452 1.228 . S
O454 Zn441 1.969 . S
O454 C452 1.267 . S
O455 Zn441 1.965 . S
O455 C459 1.260 . S
O456 Zn440 1.969 . S
O456 C459 1.258 . S
O457 Zn441 2.024 . S
O457 C444 1.058 . S
C458 O447 1.260 . S
C458 O448 1.258 . S
C459 O455 1.260 . S
C459 O456 1.258 . S
Zn460 O466 1.969 . S
Zn460 O467 1.965 . S
Zn460 O471 2.024 . S
Zn460 O476 1.969 . S
Zn461 O468 1.969 . S
Zn461 O474 1.969 . S
Zn461 O475 1.965 . S
Zn461 O477 2.024 . S
C462 O463 1.229 . S
C462 O471 1.058 . S
O463 C462 1.229 . S
C464 O465 1.229 . S
C464 O477 1.058 . S
O465 C464 1.229 . S
O466 Zn460 1.969 . S
O466 C469 1.267 . S
O467 Zn460 1.965 . S
O467 C478 1.260 . S
O468 Zn461 1.969 . S
O468 C478 1.258 . S
C469 O466 1.267 . S
C469 O470 1.228 . S
O470 C469 1.228 . S
O471 Zn460 2.024 . S
O471 C462 1.058 . S
C472 O473 1.228 . S
C472 O474 1.267 . S
O473 C472 1.228 . S
O474 Zn461 1.969 . S
O474 C472 1.267 . S
O475 Zn461 1.965 . S
O475 C479 1.260 . S
O476 Zn460 1.969 . S
O476 C479 1.258 . S
O477 Zn461 2.024 . S
O477 C464 1.058 . S
C478 O467 1.260 . S
C478 O468 1.258 . S
C479 O475 1.260 . S
C479 O476 1.258 . S
Zn480 O486 1.969 . S
Zn480 O487 1.965 . S
Zn480 O491 2.024 . S
Zn480 O496 1.969 . S
Zn481 O488 1.969 . S
Zn481 O494 1.969 . S
Zn481 O495 1.965 . S
Zn481 O497 2.024 . S
C482 O483 1.229 . S
C482 O491 1.058 . S
O483 C482 1.229 . S
C484 O485 1.229 . S
C484 O497 1.058 . S
O485 C484 1.229 . S
O486 Zn480 1.969 . S
O486 C489 1.267 . S
O487 Zn480 1.965 . S
O487 C498 1.260 . S
O488 Zn481 1.969 . S
O488 C498 1.258 . S
C489 O486 1.267 . S
C489 O490 1.228 . S
O490 C489 1.228 . S
O491 Zn480 2.024 . S
O491 C482 1.058 . S
C492 O493 1.228 . S
C492 O494 1.267 . S
O493 C492 1.228 . S
O494 Zn481 1.969 . S
O494 C492 1.267 . S
O495 Zn481 1.965 . S
O495 C499 1.260 . S
O496 Zn480 1.969 . S
O496 C499 1.258 . S
O497 Zn481 2.024 . S
O497 C484 1.058 . S
C498 O487 1.260 . S
C498 O488 1.258 . S
C499 O495 1.260 . S
C499 O496 1.258 . S
Zn500 O506 1.969 . S
Zn500 O507 1.965 . S
Zn500 O511 2.024 . S
Zn500 O516 1.969 . S
Zn501 O508 1.969 . S
Zn501 O514 1.969 . S
Zn501 O515 1.965 . S
Zn501 O517 2.024 . S
C502 O503 1.229 . S
C502 O511 1.058 . S
O503 C502 1.229 . S
C504 O505 1.229 1_556 S
C504 O517 1.058 . S
O505 C504 1.229 1_554 S
O506 Zn500 1.969 . S
O506 C509 1.267 . S
O507 Zn500 1.965 . S
O507 C518 1.260 . S
O508 Zn501 1.969 . S
O508 C518 1.258 . S
C509 O506 1.267 . S
C509 O510 1.228 . S
O510 C509 1.228 . S
O511 Zn500 2.024 . S
O511 C502 1.058 . S
C512 O513 1.228 . S
C512 O514 1.267 . S
O513 C512 1.228 . S
O514 Zn501 1.969 . S
O514 C512 1.267 . S
O515 Zn501 1.965 . S
O515 C519 1.260 . S
O516 Zn500 1.969 . S
O516 C519 1.258 . S
O517 Zn501 2.024 . S
O517 C504 1.058 . S
C518 O507 1.260 . S
C518 O508 1.258 . S
C519 O515 1.260 . S
C519 O516 1.258 . S
Zn520 O526 1.969 . S
Zn520 O527 1.965 . S
Zn520 O531 2.024 . S
Zn520 O536 1.969 . S
Zn521 O528 1.969 . S
Zn521 O534 1.969 . S
Zn521 O535 1.965 . S
Zn521 O537 2.024 . S
C522 O523 1.229 . S
C522 O531 1.058 . S
O523 C522 1.229 . S
C524 O525 1.229 . S
C524 O537 1.058 . S
O525 C524 1.229 . S
O526 Zn520 1.969 . S
O526 C529 1.267 . S
O527 Zn520 1.965 . S
O527 C538 1.260 . S
O528 Zn521 1.969 . S
O528 C538 1.258 . S
C529 O526 1.267 . S
C529 O530 1.228 . S
O530 C529 1.228 . S
O531 Zn520 2.024 . S
O531 C522 1.058 . S
C532 O533 1.228 . S
C532 O534 1.267 . S
O533 C532 1.228 . S
O534 Zn521 1.969 . S
O534 C532 1.267 . S
O535 Zn521 1.965 . S
O535 C539 1.260 . S
O536 Zn520 1.969 . S
O536 C539 1.258 . S
O537 Zn521 2.024 . S
O537 C524 1.058 . S
C538 O527 1.260 . S
C538 O528 1.258 . S
C539 O535 1.260 . S
C539 O536 1.258 . S
Zn540 O546 1.969 1_455 S
Zn540 O547 1.965 . S
Zn540 O551 2.024 . S
Zn540 O556 1.969 . S
Zn541 O548 1.969 . S
Zn541 O554 1.969 . S
Zn541 O555 1.965 . S
Zn541 O557 2.024 . S
C542 O543 1.229 . S
C542 O551 1.058 . S
O543 C542 1.229 . S
C544 O545 1.229 . S
C544 O557 1.058 . S
O545 C544 1.229 . S
O546 Zn540 1.969 1_655 S
O546 C549 1.267 . S
O547 Zn540 1.965 . S
O547 C558 1.260 . S
O548 Zn541 1.969 . S
O548 C558 1.258 . S
C549 O546 1.267 . S
C549 O550 1.228 . S
O550 C549 1.228 . S
O551 Zn540 2.024 . S
O551 C542 1.058 . S
C552 O553 1.228 . S
C552 O554 1.267 . S
O553 C552 1.228 . S
O554 Zn541 1.969 . S
O554 C552 1.267 . S
O555 Zn541 1.965 . S
O555 C559 1.260 . S
O556 Zn540 1.969 . S
O556 C559 1.258 . S
O557 Zn541 2.024 . S
O557 C544 1.058 . S
C558 O547 1.260 . S
C558 O548 1.258 . S
C559 O555 1.260 . S
C559 O556 1.258 . S
Zn560 O566 1.969 . S
Zn560 O567 1.965 . S
Zn560 O571 2.024 . S
Zn560 O576 1.969 . S
Zn561 O568 1.969 . S
Zn561 O574 1.969 . S
Zn561 O575 1.965 . S
Zn561 O577 2.024 . S
C562 O563 1.229 . S
C562 O571 1.058 . S
O563 C562 1.229 . S
C564 O565 1.229 . S
C564 O577 1.058 . S
O565 C564 1.229 . S
O566 Zn560 1.969 . S
O566 C569 1.267 . S
O567 Zn560 1.965 . S
O567 C578 1.260 . S
O568 Zn561 1.969 . S
O568 C578 1.258 . S
C569 O566 1.267 . S
C569 O570 1.228 . S
O570 C569 1.228 . S
O571 Zn560 2.024 . S
O571 C562 1.058 . S
C572 O573 1.228 . S
C572 O574 1.267 . S
O573 C572 1.228 . S
O574 Zn561 1.969 . S
O574 C572 1.267 . S
O575 Zn561 1.965 . S
O575 C579 1.260 . S
O576 Zn560 1.969 . S
O576 C579 1.258 . S
O577 Zn561 2.024 . S
O577 C564 1.058 . S
C578 O567 1.260 . S
C578 O568 1.258 . S
C579 O575 1.260 . S
C579 O576 1.258 . S
Zn580 O586 1.969 1_455 S
Zn580 O587 1.965 . S
Zn580 O591 2.024 . S
Zn580 O596 1.969 . S
Zn581 O588 1.969 . S
Zn581 O594 1.969 . S
Zn581 O595 1.965 . S
Zn581 O597 2.024 . S
C582 O583 1.229 . S
C582 O591 1.058 . S
O583 C582 1.229 . S
C584 O585 1.229 1_554 S
C584 O597 1.058 . S
O585 C584 1.229 1_556 S
O586 Zn580 1.969 1_655 S
O586 C589 1.267 . S
O587 Zn580 1.965 . S
O587 C598 1.260 . S
O588 Zn581 1.969 . S
O588 C598 1.258 . S
C589 O586 1.267 . S
C589 O590 1.228 . S
O590 C589 1.228 . S
O591 Zn580 2.024 . S
O591 C582 1.058 . S
C592 O593 1.228 . S
C592 O594 1.267 . S
O593 C592 1.228 . S
O594 Zn581 1.969 . S
O594 C592 1.267 . S
O595 Zn581 1.965 . S
O595 C599 1.260 . S
O596 Zn580 1.969 . S
O596 C599 1.258 . S
O597 Zn581 2.024 . S
O597 C584 1.058 . S
C598 O587 1.260 . S
C598 O588 1.258 . S
C599 O595 1.260 . S
C599 O596 1.258 . S
Zn600 O606 1.969 . S
Zn600 O607 1.965 . S
Zn600 O611 2.024 . S
Zn600 O616 1.969 . S
Zn601 O608 1.969 . S
Zn601 O614 1.969 . S
Zn601 O615 1.965 . S
Zn601 O617 2.024 . S
C602 O603 1.229 . S
C602 O611 1.058 . S
O603 C602 1.229 . S
C604 O605 1.229 . S
C604 O617 1.058 . S
O605 C604 1.229 . S
O606 Zn600 1.969 . S
O606 C609 1.267 . S
O607 Zn600 1.965 . S
O607 C618 1.260 . S
O608 Zn601 1.969 . S
O608 C618 1.258 . S
C609 O606 1.267 . S
C609 O610 1.228 . S
O610 C609 1.228 . S
O611 Zn600 2.024 . S
O611 C602 1.058 . S
C612 O613 1.228 . S
C612 O614 1.267 . S
O613 C612 1.228 . S
O614 Zn601 1.969 . S
O614 C612 1.267 . S
O615 Zn601 1.965 . S
O615 C619 1.260 . S
O616 Zn600 1.969 . S
O616 C619 1.258 . S
O617 Zn601 2.024 . S
O617 C604 1.058 . S
C618 O607 1.260 . S
C618 O608 1.258 . S
C619 O615 1.260 . S
C619 O616 1.258 . S
Zn620 O626 1.969 . S
Zn620 O627 1.965 . S
Zn620 O631 2.024 . S
Zn620 O636 1.969 . S
Zn621 O628 1.969 . S
Zn621 O634 1.969 . S
Zn621 O635 1.965 . S
Zn621 O637 2.024 . S
C622 O623 1.229 . S
C622 O631 1.058 . S
O623 C622 1.229 . S
C624 O625 1.229 . S
C624 O637 1.058 . S
O625 C624 1.229 . S
O626 Zn620 1.969 . S
O626 C629 1.267 . S
O627 Zn620 1.965 . S
O627 C638 1.260 . S
O628 Zn621 1.969 . S
O628 C638 1.258 . S
C629 O626 1.267 . S
C629 O630 1.228 . S
O630 C629 1.228 . S
O631 Zn620 2.024 . S
O631 C622 1.058 . S
C632 O633 1.228 . S
C632 O634 1.267 . S
O633 C632 1.228 . S
O634 Zn621 1.969 . S
O634 C632 1.267 . S
O635 Zn621 1.965 . S
O635 C639 1.260 . S
O636 Zn620 1.969 . S
O636 C639 1.258 . S
O637 Zn621 2.024 . S
O637 C624 1.058 . S
C638 O627 1.260 . S
C638 O628 1.258 . S
C639 O635 1.260 . S
C639 O636 1.258 . S
C12 C542 1.232 . S
C32 C162 1.232 . S
C52 C502 1.232 . S
C202 C72 1.232 . S
C92 C582 1.232 . S
C282 C112 1.232 . S
C622 C132 1.232 . S
C152 C242 1.232 . S
C169 C384 1.232 . S
C189 C4 1.232 . S
C344 C209 1.232 . S
C44 C229 1.232 . S
C249 C424 1.232 . S
C269 C124 1.232 . S
C289 C464 1.232 . S
C84 C309 1.232 . S
C222 C332 1.232 . S
C482 C352 1.232 . S
C182 C372 1.232 . S
C392 C522 1.232 . S
C262 C412 1.232 . S
C602 C432 1.232 . S
C302 C452 1.232 . S
C472 C562 1.232 . S
C489 C64 1.232 . S
C509 C324 1.232 . S
C529 C24 1.232 . S
C549 C364 1.232 . S
C104 C569 1.232 . S
C444 C589 1.232 . S
C609 C144 1.232 . S
C629 C404 1.232 . S
C19 C379 3.589 1_455 S
C399 C39 3.589 1_655 S
C59 C339 3.589 . S
C79 C359 3.589 . S
C459 C99 3.589 1_655 S
C119 C479 3.589 . S
C419 C139 3.589 . S
C159 C439 3.589 1_455 S
C538 C178 3.589 1_455 S
C198 C558 3.589 1_655 S
C218 C498 3.589 . S
C238 C518 3.589 . S
C618 C258 3.589 1_455 S
C638 C278 3.589 . S
C298 C578 3.589 . S
C318 C598 3.589 1_655 S
C2 C484 1.864 . S
C184 C22 1.864 1_665 S
C42 C524 1.864 . S
C62 C224 1.864 1_564 S
C564 C82 1.864 . S
C264 C102 1.864 1_565 S
C122 C604 1.864 . S
C142 C304 1.864 1_466 S
C322 C164 1.864 . S
C362 C204 1.864 . S
C402 C244 1.864 . S
C284 C442 1.864 . S
C342 C504 1.865 1_554 S
C382 C544 1.865 1_655 S
C584 C422 1.865 1_454 S
C624 C462 1.865 . S
C18 C118 4.763 . S
C138 C38 4.763 . S
C158 C58 4.763 . S
C98 C78 4.763 . S
C179 C279 4.763 . S
C199 C299 4.763 . S
C319 C219 4.763 . S
C239 C259 4.763 . S
C338 C438 4.763 . S
C358 C458 4.763 . S
C378 C478 4.763 . S
C418 C398 4.763 . S
C499 C599 4.763 . S
C519 C619 4.763 . S
C639 C539 4.763 . S
C559 C579 4.763 . S
C9 C89 1.261 1_545 S
C29 C109 1.261 . S
C129 C49 1.261 1_545 S
C149 C69 1.261 1_556 S
C172 C252 1.261 1_565 S
C272 C192 1.261 . S
C292 C212 1.261 1_565 S
C312 C232 1.261 1_554 S
C329 C409 1.261 . S
C429 C349 1.262 1_556 S
C369 C449 1.261 . S
C469 C389 1.262 . S
C572 C492 1.261 . S
C512 C592 1.262 1_556 S
C532 C612 1.261 . S
C552 C632 1.262 . S
