# Generated by pormake.
# Topology zff, (5)-cn, num edge types: 1
# Building blocks:
#     Node 0, Type 0, BuildingBlock: BEQFEK_clean_sbu_0, # of connection points: 5
#     Node 1, Type 0, BuildingBlock: BEQFEK_clean_sbu_0, # of connection points: 5
#     Node 2, Type 0, BuildingBlock: BEQFEK_clean_sbu_0, # of connection points: 5
#     Node 3, Type 0, BuildingBlock: BEQFEK_clean_sbu_0, # of connection points: 5
#     Node 4, Type 0, BuildingBlock: BEQFEK_clean_sbu_0, # of connection points: 5
#     Node 5, Type 0, BuildingBlock: BEQFEK_clean_sbu_0, # of connection points: 5
#     Node 6, Type 0, BuildingBlock: BEQFEK_clean_sbu_0, # of connection points: 5
#     Node 7, Type 0, BuildingBlock: BEQFEK_clean_sbu_0, # of connection points: 5
#     Node 8, Type 0, BuildingBlock: BEQFEK_clean_sbu_0, # of connection points: 5
#     Node 9, Type 0, BuildingBlock: BEQFEK_clean_sbu_0, # of connection points: 5
#     Node 10, Type 0, BuildingBlock: BEQFEK_clean_sbu_0, # of connection points: 5
#     Node 11, Type 0, BuildingBlock: BEQFEK_clean_sbu_0, # of connection points: 5
#     Node 12, Type 0, BuildingBlock: BEQFEK_clean_sbu_0, # of connection points: 5
#     Node 13, Type 0, BuildingBlock: BEQFEK_clean_sbu_0, # of connection points: 5
#     Node 14, Type 0, BuildingBlock: BEQFEK_clean_sbu_0, # of connection points: 5
#     Node 15, Type 0, BuildingBlock: BEQFEK_clean_sbu_0, # of connection points: 5
#     Edge 16, Type (0, 0), BuildingBlock: EZIPEK_clean_linker_0, # of connection points: 2
#     Edge 17, Type (0, 0), BuildingBlock: EZIPEK_clean_linker_0, # of connection points: 2
#     Edge 18, Type (0, 0), BuildingBlock: EZIPEK_clean_linker_0, # of connection points: 2
#     Edge 19, Type (0, 0), BuildingBlock: EZIPEK_clean_linker_0, # of connection points: 2
#     Edge 20, Type (0, 0), BuildingBlock: EZIPEK_clean_linker_0, # of connection points: 2
#     Edge 21, Type (0, 0), BuildingBlock: EZIPEK_clean_linker_0, # of connection points: 2
#     Edge 22, Type (0, 0), BuildingBlock: EZIPEK_clean_linker_0, # of connection points: 2
#     Edge 23, Type (0, 0), BuildingBlock: EZIPEK_clean_linker_0, # of connection points: 2
#     Edge 24, Type (0, 0), BuildingBlock: EZIPEK_clean_linker_0, # of connection points: 2
#     Edge 25, Type (0, 0), BuildingBlock: EZIPEK_clean_linker_0, # of connection points: 2
#     Edge 26, Type (0, 0), BuildingBlock: EZIPEK_clean_linker_0, # of connection points: 2
#     Edge 27, Type (0, 0), BuildingBlock: EZIPEK_clean_linker_0, # of connection points: 2
#     Edge 28, Type (0, 0), BuildingBlock: EZIPEK_clean_linker_0, # of connection points: 2
#     Edge 29, Type (0, 0), BuildingBlock: EZIPEK_clean_linker_0, # of connection points: 2
#     Edge 30, Type (0, 0), BuildingBlock: EZIPEK_clean_linker_0, # of connection points: 2
#     Edge 31, Type (0, 0), BuildingBlock: EZIPEK_clean_linker_0, # of connection points: 2
#     Edge 32, Type (0, 0), BuildingBlock: EZIPEK_clean_linker_0, # of connection points: 2
#     Edge 33, Type (0, 0), BuildingBlock: EZIPEK_clean_linker_0, # of connection points: 2
#     Edge 34, Type (0, 0), BuildingBlock: EZIPEK_clean_linker_0, # of connection points: 2
#     Edge 35, Type (0, 0), BuildingBlock: EZIPEK_clean_linker_0, # of connection points: 2
#     Edge 36, Type (0, 0), BuildingBlock: EZIPEK_clean_linker_0, # of connection points: 2
#     Edge 37, Type (0, 0), BuildingBlock: EZIPEK_clean_linker_0, # of connection points: 2
#     Edge 38, Type (0, 0), BuildingBlock: EZIPEK_clean_linker_0, # of connection points: 2
#     Edge 39, Type (0, 0), BuildingBlock: EZIPEK_clean_linker_0, # of connection points: 2
#     Edge 40, Type (0, 0), BuildingBlock: EZIPEK_clean_linker_0, # of connection points: 2
#     Edge 41, Type (0, 0), BuildingBlock: EZIPEK_clean_linker_0, # of connection points: 2
#     Edge 42, Type (0, 0), BuildingBlock: EZIPEK_clean_linker_0, # of connection points: 2
#     Edge 43, Type (0, 0), BuildingBlock: EZIPEK_clean_linker_0, # of connection points: 2
#     Edge 44, Type (0, 0), BuildingBlock: EZIPEK_clean_linker_0, # of connection points: 2
#     Edge 45, Type (0, 0), BuildingBlock: EZIPEK_clean_linker_0, # of connection points: 2
#     Edge 46, Type (0, 0), BuildingBlock: EZIPEK_clean_linker_0, # of connection points: 2
#     Edge 47, Type (0, 0), BuildingBlock: EZIPEK_clean_linker_0, # of connection points: 2
#     Edge 48, Type (0, 0), BuildingBlock: EZIPEK_clean_linker_0, # of connection points: 2
#     Edge 49, Type (0, 0), BuildingBlock: EZIPEK_clean_linker_0, # of connection points: 2
#     Edge 50, Type (0, 0), BuildingBlock: EZIPEK_clean_linker_0, # of connection points: 2
#     Edge 51, Type (0, 0), BuildingBlock: EZIPEK_clean_linker_0, # of connection points: 2
#     Edge 52, Type (0, 0), BuildingBlock: EZIPEK_clean_linker_0, # of connection points: 2
#     Edge 53, Type (0, 0), BuildingBlock: EZIPEK_clean_linker_0, # of connection points: 2
#     Edge 54, Type (0, 0), BuildingBlock: EZIPEK_clean_linker_0, # of connection points: 2
#     Edge 55, Type (0, 0), BuildingBlock: EZIPEK_clean_linker_0, # of connection points: 2
# Relax obj value: 0.055
# Max RMSD: 0.093
# Mean RMSD: 0.093
data_MOF--net-zff--node1-BEQFEK_clean_sbu_0--edge1-EZIPEK_clean_linker_0
_symmetry_space_group_name_H-M    P1
_symmetry_Int_Tables_number       1
_symmetry_cell_setting            triclinic
loop_
_symmetry_equiv_pos_as_xyz
'x, y, z'
_cell_length_a     27.807336
_cell_length_b     27.790932
_cell_length_c     57.744604
_cell_angle_alpha  89.918454
_cell_angle_beta   89.930681
_cell_angle_gamma 90.01148
loop_
_atom_site_label
_atom_site_type_symbol
_atom_site_fract_x
_atom_site_fract_y
_atom_site_fract_z
_atom_type_partial_charge
Co0 Co 0.01939 0.25227 0.41787 0.0
Co1 Co 0.02152 0.28085 0.3646 0.0
C2 C 0.09183 0.21117 0.38541 0.0
O3 O 0.07383 0.21441 0.40565 0.0
O4 O 0.07622 0.23591 0.36842 0.0
C5 C -0.00324 0.21002 0.46211 0.0
O6 O 0.98541 0.17179 0.44992 0.0
C7 C 0.06342 0.31885 0.32114 0.0
C8 C -0.00105 0.34542 0.30285 0.0
C9 C 0.0486 0.34264 0.30118 0.0
N10 N 0.0244 0.30887 0.33414 0.0
N11 N 0.98598 0.3244 0.32294 0.0
C12 C 0.11367 0.30578 0.32788 0.0
H13 H 0.11711 0.26601 0.32817 0.0
H14 H 0.12099 0.31902 0.34566 0.0
H15 H 0.14052 0.32074 0.31561 0.0
C16 C 0.02086 0.35717 0.42275 0.0
N17 N 0.02364 0.31738 0.40956 0.0
N18 N 0.02317 0.32975 0.38754 0.0
C19 C 0.01984 0.37801 0.3861 0.0
C20 C 0.0182 0.39666 0.40828 0.0
C21 C 0.01621 0.35701 0.44855 0.0
H22 H 0.98198 0.33915 0.45348 0.0
H23 H 0.04623 0.33607 0.4562 0.0
H24 H 0.01658 0.39412 0.45565 0.0
O25 O 0.96058 0.22452 0.40511 0.0
O26 O 0.96121 0.24223 0.36744 0.0
H27 H 0.97919 0.39469 0.35581 0.0
H28 H 0.0129 0.44498 0.36711 0.0
C29 C 0.01347 0.40556 0.36407 0.0
H30 H 0.04331 0.39685 0.35214 0.0
H31 H 0.95089 0.32151 0.32926 0.0
O32 O 0.01418 0.24677 0.452 0.0
C33 C 0.94183 0.22246 0.38508 0.0
Co34 Co 0.73574 0.01733 0.41761 0.0
Co35 Co 0.71455 0.02436 0.36368 0.0
C36 C 0.78281 0.09128 0.38811 0.0
O37 O 0.77606 0.07246 0.40799 0.0
O38 O 0.76163 0.07605 0.37002 0.0
C39 C 0.77229 -0.00389 0.46368 0.0
O40 O 0.81397 0.99095 0.45324 0.0
C41 C 0.67269 0.06967 0.32224 0.0
C42 C 0.67671 0.01076 0.29666 0.0
C43 C 0.66148 0.05783 0.29956 0.0
N44 N 0.69326 0.03125 0.33237 0.0
N45 N 0.69599 -0.00367 0.3169 0.0
C46 C 0.66257 0.11613 0.33434 0.0
H47 H 0.66438 0.11135 0.3534 0.0
H48 H 0.62671 0.13009 0.32922 0.0
H49 H 0.68992 0.14311 0.3291 0.0
C50 C 0.63018 0.021 0.41887 0.0
N51 N 0.67185 0.0244 0.40712 0.0
N52 N 0.66266 0.02601 0.38475 0.0
C53 C 0.61482 0.0227 0.38158 0.0
C54 C 0.59295 0.01976 0.40306 0.0
C55 C 0.62645 0.01369 0.44447 0.0
H56 H 0.64688 0.04235 0.45351 0.0
H57 H 0.58844 0.01429 0.45036 0.0
H58 H 0.64273 0.97852 0.44911 0.0
O59 O 0.76455 0.9587 0.4042 0.0
O60 O 0.74741 0.96174 0.36654 0.0
H61 H 0.55391 0.00141 0.36054 0.0
H62 H 0.58837 0.05118 0.34967 0.0
C63 C 0.59087 0.01596 0.35859 0.0
H64 H 0.61233 0.99115 0.34769 0.0
H65 H 0.71033 0.96233 0.32026 0.0
O66 O 0.7357 0.00882 0.45197 0.0
C67 C 0.76664 0.94105 0.38389 0.0
Co68 Co 0.96608 0.74115 0.4188 0.0
Co69 Co 0.96406 0.70979 0.36579 0.0
C70 C 0.89262 0.77872 0.38541 0.0
O71 O 0.9107 0.77642 0.40564 0.0
O72 O 0.90878 0.75383 0.36865 0.0
C73 C 0.94364 0.7424 0.4687 0.0
O74 O 0.90624 0.71553 0.46362 0.0
C75 C 0.92373 0.67109 0.32212 0.0
C76 C 0.98891 0.64422 0.30449 0.0
C77 C 0.93936 0.64723 0.30234 0.0
N78 N 0.96219 0.68085 0.33551 0.0
N79 N 0.00105 0.66519 0.32467 0.0
C80 C 0.87325 0.68454 0.3283 0.0
H81 H 0.8699 0.72432 0.3281 0.0
H82 H 0.86514 0.67206 0.34616 0.0
H83 H 0.84688 0.66915 0.31596 0.0
C84 C 0.9704 0.6342 0.42447 0.0
N85 N 0.96467 0.67435 0.41155 0.0
N86 N 0.96256 0.66191 0.3895 0.0
C87 C 0.96575 0.61369 0.38793 0.0
C88 C 0.97083 0.59488 0.4099 0.0
C89 C 0.98125 0.6332 0.44978 0.0
H90 H 0.94704 0.63265 0.45965 0.0
H91 H 0.00188 0.60046 0.45454 0.0
H92 H 0.00218 0.66535 0.45458 0.0
O93 O 0.02379 0.76947 0.4054 0.0
O94 O 0.02438 0.74884 0.36814 0.0
H95 H 0.96729 0.54668 0.3688 0.0
H96 H 0.93831 0.59653 0.35452 0.0
C97 C 0.96868 0.58611 0.36577 0.0
H98 H 0.00288 0.59497 0.35686 0.0
H99 H 0.03587 0.66804 0.33128 0.0
O100 O 0.97117 0.75638 0.45249 0.0
C101 C 0.04309 0.77017 0.38547 0.0
Co102 Co 0.2497 0.97459 0.41849 0.0
Co103 Co 0.27152 0.9665 0.3643 0.0
C104 C 0.20302 0.90025 0.38879 0.0
O105 O 0.21017 0.91898 0.40863 0.0
O106 O 0.22416 0.91533 0.37063 0.0
C107 C 0.24385 0.95483 0.46897 0.0
O108 O 0.25483 0.91015 0.46375 0.0
C109 C 0.31397 0.92013 0.32301 0.0
C110 C 0.31053 0.97886 0.29724 0.0
C111 C 0.32558 0.93177 0.30029 0.0
N112 N 0.29343 0.95873 0.33301 0.0
N113 N 0.29101 -0.0065 0.3174 0.0
C114 C 0.3238 0.87374 0.33527 0.0
H115 H 0.32212 0.87879 0.35432 0.0
H116 H 0.35952 0.85943 0.33013 0.0
H117 H 0.29618 0.84693 0.33022 0.0
C118 C 0.35688 0.97103 0.41959 0.0
N119 N 0.31457 0.96765 0.40833 0.0
N120 N 0.32318 0.96557 0.38584 0.0
C121 C 0.37094 0.96869 0.38223 0.0
C122 C 0.39349 0.97187 0.40345 0.0
C123 C 0.36257 0.9799 0.4449 0.0
H124 H 0.35674 0.01872 0.44826 0.0
H125 H 0.33612 0.95854 0.4548 0.0
H126 H 0.3994 0.97041 0.45075 0.0
O127 O 0.22187 0.0327 0.40406 0.0
O128 O 0.23785 0.02881 0.36629 0.0
H129 H 0.37264 0.00017 0.34827 0.0
H130 H 0.43131 0.9897 0.36067 0.0
C131 C 0.39426 0.97526 0.35905 0.0
H132 H 0.39647 0.94 0.3502 0.0
H133 H 0.27678 0.0276 0.32062 0.0
O134 O 0.24142 0.98593 0.45281 0.0
C135 C 0.21951 0.05005 0.3837 0.0
Co136 Co 0.01171 0.73609 0.61016 0.0
Co137 Co 0.01794 0.70647 0.66315 0.0
C138 C 0.08407 0.77958 0.64146 0.0
O139 O 0.0659 0.77502 0.62135 0.0
O140 O 0.06893 0.75575 0.65887 0.0
C141 C 0.97812 0.77377 0.56653 0.0
O142 O 0.95796 0.80745 0.57919 0.0
C143 C 0.06387 0.66996 0.70588 0.0
C144 C 0.00133 0.6408 0.72491 0.0
C145 C 0.05088 0.64554 0.72597 0.0
N146 N 0.02389 0.67836 0.69337 0.0
N147 N 0.98663 0.66131 0.70501 0.0
C148 C 0.11322 0.68513 0.69854 0.0
H149 H 0.11494 0.725 0.6981 0.0
H150 H 0.12033 0.67201 0.68072 0.0
H151 H 0.14118 0.67146 0.71056 0.0
C152 C 0.01635 0.63135 0.60476 0.0
N153 N 0.01907 0.671 0.61805 0.0
N154 N 0.02124 0.65824 0.64 0.0
C155 C 0.0197 0.60989 0.6413 0.0
C156 C 0.01639 0.59156 0.61911 0.0
C157 C 0.00866 0.63178 0.57914 0.0
H158 H 0.97358 0.64904 0.57525 0.0
H159 H 0.03733 0.65342 0.57073 0.0
H160 H 0.00892 0.5948 0.57189 0.0
O161 O 0.95319 0.76204 0.62436 0.0
O162 O 0.95481 0.73964 0.66141 0.0
H163 H 0.98151 0.59115 0.67211 0.0
H164 H 0.01664 0.54248 0.6602 0.0
C165 C 0.01576 0.58186 0.66334 0.0
H166 H 0.04588 0.59168 0.67488 0.0
H167 H 0.95117 0.66286 0.69914 0.0
O168 O 0.00423 0.74193 0.57612 0.0
C169 C 0.93477 0.76124 0.6445 0.0
Co170 Co 0.24853 0.01694 0.61303 0.0
Co171 Co 0.26921 0.01924 0.6672 0.0
C172 C 0.20484 0.09104 0.64385 0.0
O173 O 0.2096 0.07247 0.62378 0.0
O174 O 0.22741 0.07512 0.66142 0.0
C175 C 0.21252 -0.00112 0.56654 0.0
O176 O 0.17072 -0.00694 0.5768 0.0
C177 C 0.31248 0.06023 0.70924 0.0
C178 C 0.30391 0.00114 0.73453 0.0
C179 C 0.32178 0.04741 0.73203 0.0
N180 N 0.29045 0.02317 0.69869 0.0
N181 N 0.2851 0.9881 0.71397 0.0
C182 C 0.32528 0.10652 0.69752 0.0
H183 H 0.32523 0.10205 0.67842 0.0
H184 H 0.361 0.1193 0.70349 0.0
H185 H 0.29825 0.13425 0.70214 0.0
C186 C 0.35411 0.01706 0.61211 0.0
N187 N 0.31242 0.02016 0.62386 0.0
N188 N 0.3214 0.01875 0.64625 0.0
C189 C 0.3691 0.01383 0.64941 0.0
C190 C 0.3911 0.01302 0.62792 0.0
C191 C 0.35802 0.01373 0.58633 0.0
H192 H 0.34127 0.97964 0.58045 0.0
H193 H 0.33813 0.04404 0.57828 0.0
H194 H 0.3961 0.01464 0.58056 0.0
O195 O 0.21773 0.95849 0.62518 0.0
O196 O 0.23015 0.96 0.66334 0.0
H197 H 0.37016 0.9812 0.68315 0.0
H198 H 0.42891 0.98866 0.67014 0.0
C199 C 0.39283 0.00512 0.6723 0.0
H200 H 0.39738 0.03989 0.6814 0.0
H201 H 0.26899 0.95505 0.71031 0.0
O202 O 0.24893 0.01105 0.5785 0.0
C203 C 0.2127 0.94036 0.64528 0.0
Co204 Co 0.97364 0.24649 0.60949 0.0
Co205 Co 0.96324 0.2787 0.66206 0.0
C206 C 0.89748 0.20612 0.64048 0.0
O207 O 0.91702 0.20972 0.62059 0.0
O208 O 0.91211 0.2301 0.65786 0.0
C209 C 0.95483 0.23741 0.55965 0.0
O210 O 0.91185 0.25445 0.56442 0.0
C211 C 0.91678 0.31543 0.70484 0.0
C212 C 0.97925 0.34561 0.72345 0.0
C213 C 0.92983 0.34001 0.72483 0.0
N214 N 0.95661 0.30777 0.69206 0.0
N215 N -0.00618 0.32542 0.70346 0.0
C216 C 0.86757 0.29919 0.69793 0.0
H217 H 0.86654 0.25928 0.6979 0.0
H218 H 0.85988 0.31153 0.68003 0.0
H219 H 0.83963 0.31281 0.70999 0.0
C220 C 0.97285 0.35344 0.60336 0.0
N221 N 0.96749 0.31326 0.61629 0.0
N222 N 0.96138 0.32594 0.63814 0.0
C223 C 0.96181 0.37429 0.63956 0.0
C224 C 0.9694 0.39296 0.61773 0.0
C225 C 0.98867 0.35462 0.57866 0.0
H226 H 0.96566 0.33096 0.56809 0.0
H227 H 0.98701 0.39165 0.57147 0.0
H228 H 0.02636 0.34187 0.57772 0.0
O229 O 0.03076 0.22086 0.62515 0.0
O230 O 0.02639 0.24541 0.66174 0.0
H231 H 0.957 0.4415 0.65837 0.0
H232 H 0.92954 0.39019 0.6722 0.0
C233 C 0.96046 0.40229 0.66164 0.0
H234 H -0.00591 0.39578 0.67143 0.0
H235 H 0.02919 0.32434 0.6974 0.0
O236 O 0.98483 0.23193 0.57602 0.0
C237 C 0.04776 0.22291 0.64553 0.0
Co238 Co 0.73569 0.97 0.61153 0.0
Co239 Co 0.71314 0.96538 0.66566 0.0
C240 C 0.77907 0.89519 0.64162 0.0
O241 O 0.77278 0.91289 0.62148 0.0
O242 O 0.75863 0.91239 0.65952 0.0
C243 C 0.74203 0.95009 0.56111 0.0
O244 O 0.73125 0.90531 0.56631 0.0
C245 C 0.67025 0.91994 0.70713 0.0
C246 C 0.67466 0.97865 0.73279 0.0
C247 C 0.65912 0.93169 0.72987 0.0
N248 N 0.69108 0.95832 0.69701 0.0
N249 N 0.69405 -0.00691 0.71254 0.0
C250 C 0.65972 0.87364 0.69499 0.0
H251 H 0.66165 0.87851 0.67593 0.0
H252 H 0.6237 0.86003 0.7001 0.0
H253 H 0.68677 0.84638 0.70021 0.0
C254 C 0.62808 0.96843 0.61036 0.0
N255 N 0.6704 0.9656 0.62168 0.0
N256 N 0.66167 0.96498 0.64419 0.0
C257 C 0.61396 0.96861 0.64773 0.0
C258 C 0.59147 0.97049 0.62648 0.0
C259 C 0.62225 0.97436 0.58485 0.0
H260 H 0.65005 0.95372 0.57551 0.0
H261 H 0.58611 0.96207 0.57924 0.0
H262 H 0.62559 0.0131 0.58054 0.0
O263 O 0.76599 0.02711 0.6257 0.0
O264 O 0.74772 0.02721 0.66323 0.0
H265 H 0.55378 0.99091 0.66906 0.0
H266 H 0.58775 0.94088 0.67987 0.0
C267 C 0.59059 0.97595 0.67084 0.0
H268 H 0.61252 0.00071 0.68153 0.0
H269 H 0.70867 0.027 0.70923 0.0
O270 O 0.74421 0.98112 0.57727 0.0
C271 C 0.76808 0.04612 0.6457 0.0
Co272 Co 0.51185 0.74662 0.91725 0.0
Co273 Co 0.51881 0.77044 0.86336 0.0
C274 C 0.58848 0.7046 0.88721 0.0
O275 O 0.56807 0.70821 0.90694 0.0
O276 O 0.57429 0.72833 0.86963 0.0
C277 C 0.53138 0.72872 0.96675 0.0
O278 O 0.57399 0.71313 0.96043 0.0
C279 C 0.56274 0.81472 0.82195 0.0
C280 C 0.50388 0.80983 0.79641 0.0
C281 C 0.55076 0.82567 0.79922 0.0
N282 N 0.52467 0.79355 0.83215 0.0
N283 N 0.48974 0.79045 0.81671 0.0
C284 C 0.60916 0.82528 0.83395 0.0
H285 H 0.60422 0.82456 0.85303 0.0
H286 H 0.62335 0.86079 0.82835 0.0
H287 H 0.63596 0.79744 0.82917 0.0
C288 C 0.51149 0.85226 0.91942 0.0
N289 N 0.5157 0.81119 0.90729 0.0
N290 N 0.51659 0.82141 0.88499 0.0
C291 C 0.51242 0.86934 0.88229 0.0
C292 C 0.50944 0.89016 0.90398 0.0
C293 C 0.50549 0.85477 0.94511 0.0
H294 H 0.53566 0.83552 0.95354 0.0
H295 H 0.50455 0.89255 0.9513 0.0
H296 H 0.47155 0.83646 0.95011 0.0
O297 O 0.45487 0.7166 0.90359 0.0
O298 O 0.45942 0.73082 0.86564 0.0
H299 H 0.49215 0.9313 0.86169 0.0
H300 H 0.54249 0.89739 0.85101 0.0
C301 C 0.50684 0.89446 0.85949 0.0
H302 H 0.48267 0.87348 0.84807 0.0
H303 H 0.45602 0.77547 0.82009 0.0
O304 O 0.50181 0.7436 0.95157 0.0
C305 C 0.43837 0.71246 0.88316 0.0
Co306 Co 0.2349 0.51027 0.91788 0.0
Co307 Co 0.20606 0.51645 0.86483 0.0
C308 C 0.2787 0.58273 0.88637 0.0
O309 O 0.27393 0.56441 0.90647 0.0
O310 O 0.25501 0.56768 0.86897 0.0
C311 C 0.27348 0.47898 0.96165 0.0
O312 O 0.30721 0.45886 0.94901 0.0
C313 C 0.17014 0.56232 0.822 0.0
C314 C 0.141 0.49984 0.803 0.0
C315 C 0.1459 0.54941 0.8019 0.0
N316 N 0.17829 0.52228 0.83456 0.0
N317 N 0.16125 0.48505 0.82294 0.0
C318 C 0.1853 0.61166 0.8293 0.0
H319 H 0.22516 0.61335 0.82973 0.0
H320 H 0.1721 0.61874 0.84712 0.0
H321 H 0.17175 0.63969 0.81727 0.0
C322 C 0.13017 0.51423 0.92312 0.0
N323 N 0.16994 0.51742 0.90991 0.0
N324 N 0.15749 0.51971 0.88794 0.0
C325 C 0.10919 0.51795 0.88655 0.0
C326 C 0.09057 0.5143 0.90871 0.0
C327 C 0.13036 0.50579 0.9487 0.0
H328 H 0.14838 0.47101 0.95244 0.0
H329 H 0.15119 0.53474 0.9573 0.0
H330 H 0.09329 0.50502 0.95585 0.0
O331 O 0.26071 0.45131 0.90404 0.0
O332 O 0.23975 0.45348 0.8668 0.0
H333 H 0.0906 0.47962 0.85583 0.0
H334 H 0.04207 0.51524 0.86756 0.0
C335 C 0.08146 0.51403 0.86447 0.0
H336 H 0.09162 0.544 0.85286 0.0
H337 H 0.16263 0.44957 0.82887 0.0
O338 O 0.24087 0.50395 0.95197 0.0
C339 C 0.26056 0.4331 0.88386 0.0
Co340 Co 0.47123 0.23625 0.91804 0.0
Co341 Co 0.46472 0.21004 0.86439 0.0
C342 C 0.39596 0.27841 0.88736 0.0
O343 O 0.41517 0.27444 0.90732 0.0
O344 O 0.41111 0.25487 0.86994 0.0
C345 C 0.45161 0.2443 0.96849 0.0
O346 O 0.4069 0.23299 0.96354 0.0
C347 C 0.41867 0.16621 0.82355 0.0
C348 C 0.47802 0.16622 0.79809 0.0
C349 C 0.43035 0.15309 0.80107 0.0
N350 N 0.4577 0.18597 0.83347 0.0
N351 N 0.49289 0.18629 0.81806 0.0
C352 C 0.37175 0.15851 0.83568 0.0
H353 H 0.3766 0.16026 0.85474 0.0
H354 H 0.35604 0.12331 0.83066 0.0
H355 H 0.34624 0.18716 0.83039 0.0
C356 C 0.46844 0.12838 0.92089 0.0
N357 N 0.46583 0.17014 0.90898 0.0
N358 N 0.46454 0.16003 0.88663 0.0
C359 C 0.46729 0.11207 0.88376 0.0
C360 C 0.46951 0.0908 0.9053 0.0
C361 C 0.47512 0.12381 0.94642 0.0
H362 H 0.51397 0.12713 0.95037 0.0
H363 H 0.45491 0.15214 0.95557 0.0
H364 H 0.46281 0.08801 0.9526 0.0
O365 O 0.52875 0.26454 0.90339 0.0
O366 O 0.52645 0.24534 0.86601 0.0
H367 H 0.49892 0.10735 0.84992 0.0
H368 H 0.4863 0.04976 0.86312 0.0
C369 C 0.47319 0.0872 0.86094 0.0
H370 H 0.43797 0.08577 0.85204 0.0
H371 H 0.52734 0.19962 0.82128 0.0
O372 O 0.48236 0.24654 0.95218 0.0
C373 C 0.54663 0.26587 0.88312 0.0
Co374 Co 0.74778 0.46939 0.91829 0.0
Co375 Co 0.77656 0.46474 0.86521 0.0
C376 C 0.70581 0.39586 0.88712 0.0
O377 O 0.71036 0.4134 0.90737 0.0
O378 O 0.72865 0.41255 0.86972 0.0
C379 C 0.70678 0.49442 0.9628 0.0
O380 O 0.66772 0.50486 0.95104 0.0
C381 C 0.81212 0.41994 0.82199 0.0
C382 C 0.84041 0.48307 0.80308 0.0
C383 C 0.83579 0.43351 0.80178 0.0
N384 N 0.80399 0.4596 0.83478 0.0
N385 N 0.82053 0.49722 0.82322 0.0
C386 C 0.79734 0.37034 0.82914 0.0
H387 H 0.7575 0.36838 0.82964 0.0
H388 H 0.81066 0.36295 0.8469 0.0
H389 H 0.81104 0.34268 0.81697 0.0
C390 C 0.8528 0.46683 0.9232 0.0
N391 N 0.81295 0.4637 0.91008 0.0
N392 N 0.82533 0.46197 0.88808 0.0
C393 C 0.8736 0.4641 0.88657 0.0
C394 C 0.89231 0.46739 0.90869 0.0
C395 C 0.85282 0.47407 0.94886 0.0
H396 H 0.83181 0.4449 0.95725 0.0
H397 H 0.88993 0.47422 0.95592 0.0
H398 H 0.83516 0.50883 0.95297 0.0
O399 O 0.72027 0.52794 0.9044 0.0
O400 O 0.7427 0.52743 0.86735 0.0
H401 H 0.94059 0.4673 0.86741 0.0
H402 H 0.89113 0.43826 0.85283 0.0
C403 C 0.90118 0.46826 0.86442 0.0
H404 H 0.89177 0.50263 0.85578 0.0
H405 H 0.81902 0.53255 0.8293 0.0
O406 O 0.74306 0.47699 0.95235 0.0
C407 C 0.72088 0.5469 0.88434 0.0
Co408 Co 0.51918 0.23746 0.11202 0.0
Co409 Co 0.5233 0.21769 0.16612 0.0
C410 C 0.59351 0.28322 0.14159 0.0
O411 O 0.57572 0.27631 0.12152 0.0
O412 O 0.57653 0.26293 0.15963 0.0
C413 C 0.49785 0.27319 0.06594 0.0
O414 O 0.4919 0.31468 0.07644 0.0
C415 C 0.56702 0.17625 0.208 0.0
C416 C 0.50781 0.18183 0.2334 0.0
C417 C 0.55465 0.16579 0.23072 0.0
N418 N 0.52911 0.19716 0.19762 0.0
N419 N 0.49401 0.20084 0.21299 0.0
C420 C 0.61349 0.16509 0.1961 0.0
H421 H 0.60906 0.16648 0.17701 0.0
H422 H 0.62678 0.12913 0.20152 0.0
H423 H 0.64078 0.19216 0.20123 0.0
C424 C 0.52139 0.1315 0.11163 0.0
N425 N 0.52423 0.17358 0.12305 0.0
N426 N 0.52453 0.16506 0.14551 0.0
C427 C 0.52093 0.11731 0.14905 0.0
C428 C 0.51926 0.09474 0.12774 0.0
C429 C 0.51627 0.12694 0.08595 0.0
H430 H 0.48144 0.14287 0.08055 0.0
H431 H 0.5455 0.14733 0.07727 0.0
H432 H 0.51756 0.08873 0.08041 0.0
O433 O 0.46055 0.2678 0.12486 0.0
O434 O 0.46148 0.25174 0.16267 0.0
H435 H 0.48908 0.11613 0.18294 0.0
H436 H 0.49828 0.05726 0.17042 0.0
C437 C 0.51354 0.09397 0.17218 0.0
H438 H 0.54862 0.09089 0.18112 0.0
H439 H 0.46031 0.21562 0.20943 0.0
O440 O 0.51124 0.23672 0.07761 0.0
C441 C 0.44182 0.27061 0.14495 0.0
Co442 Co 0.75179 0.51607 0.10966 0.0
Co443 Co 0.78564 0.52015 0.16225 0.0
C444 C 0.71251 0.58845 0.14248 0.0
O445 O 0.71575 0.57168 0.12202 0.0
O446 O 0.7368 0.57153 0.15929 0.0
C447 C 0.73857 0.5376 0.05996 0.0
O448 O 0.75348 0.58134 0.06477 0.0
C449 C 0.82404 0.56485 0.20501 0.0
C450 C 0.85337 0.50163 0.22342 0.0
C451 C 0.84859 0.55115 0.22492 0.0
N452 N 0.81553 0.52529 0.19217 0.0
N453 N 0.83274 0.48763 0.20345 0.0
C454 C 0.80841 0.61441 0.19826 0.0
H455 H 0.81961 0.62181 0.18015 0.0
H456 H 0.82345 0.6421 0.21003 0.0
H457 H 0.76858 0.6163 0.1989 0.0
C458 C 0.85867 0.51884 0.1028 0.0
N459 N 0.81882 0.52146 0.11615 0.0
N460 N 0.83213 0.52396 0.13807 0.0
C461 C 0.88047 0.52315 0.13919 0.0
C462 C 0.89854 0.51961 0.11701 0.0
C463 C 0.85946 0.50945 0.07737 0.0
H464 H 0.83208 0.53144 0.06853 0.0
H465 H 0.89532 0.51777 0.06989 0.0
H466 H 0.85186 0.47082 0.07441 0.0
O467 O 0.72592 0.45803 0.1246 0.0
O468 O 0.75225 0.45711 0.16096 0.0
H469 H 0.94825 0.5221 0.15772 0.0
H470 H 0.89896 0.5512 0.17236 0.0
C471 C 0.90898 0.52066 0.16109 0.0
H472 H 0.90057 0.48658 0.17024 0.0
H473 H 0.83096 0.45234 0.19734 0.0
O474 O 0.736 0.50672 0.07616 0.0
C475 C 0.72853 0.43833 0.14443 0.0
Co476 Co 0.47822 0.7491 0.11392 0.0
Co477 Co 0.47117 0.77122 0.16801 0.0
C478 C 0.40225 0.70506 0.14319 0.0
O479 O 0.4206 0.71168 0.12319 0.0
O480 O 0.41889 0.72517 0.16127 0.0
C481 C 0.46658 0.74595 0.06219 0.0
O482 O 0.42142 0.75874 0.0649 0.0
C483 C 0.424 0.81372 0.20907 0.0
C484 C 0.48172 0.80911 0.23524 0.0
C485 C 0.4349 0.82465 0.23192 0.0
N486 N 0.46274 0.79303 0.19926 0.0
N487 N 0.49691 0.78996 0.2151 0.0
C488 C 0.37815 0.82424 0.19655 0.0
H489 H 0.38376 0.82263 0.17752 0.0
H490 H 0.36419 0.86014 0.20162 0.0
H491 H 0.35083 0.79696 0.20145 0.0
C492 C 0.477 0.85705 0.11278 0.0
N493 N 0.47352 0.81453 0.124 0.0
N494 N 0.47176 0.82304 0.14651 0.0
C495 C 0.47517 0.87078 0.15014 0.0
C496 C 0.47814 0.89351 0.12895 0.0
C497 C 0.48437 0.86342 0.08737 0.0
H498 H 0.46471 0.83564 0.07766 0.0
H499 H 0.47189 0.89951 0.08169 0.0
H500 H 0.52334 0.86081 0.08354 0.0
O501 O 0.53438 0.71888 0.12888 0.0
O502 O 0.53311 0.73679 0.1664 0.0
H503 H 0.4961 0.9309 0.17176 0.0
H504 H 0.44567 0.89661 0.18195 0.0
C505 C 0.48119 0.894 0.17335 0.0
H506 H 0.50545 0.87207 0.18432 0.0
H507 H 0.53094 0.7754 0.21207 0.0
O508 O 0.49308 0.74073 0.07997 0.0
C509 C 0.55263 0.71661 0.14902 0.0
Co510 Co 0.24411 0.47445 0.10961 0.0
Co511 Co 0.20865 0.46621 0.16182 0.0
C512 C 0.2802 0.39814 0.14228 0.0
O513 O 0.27979 0.41903 0.12263 0.0
O514 O 0.25282 0.41128 0.15874 0.0
C515 C 0.24658 0.45174 0.06029 0.0
O516 O 0.21978 0.41462 0.06602 0.0
C517 C 0.16832 0.42357 0.20476 0.0
C518 C 0.13856 0.48765 0.22225 0.0
C519 C 0.14299 0.43817 0.2243 0.0
N520 N 0.17763 0.46256 0.1916 0.0
N521 N 0.16017 0.50075 0.20233 0.0
C522 C 0.18377 0.37361 0.19868 0.0
H523 H 0.22359 0.37157 0.19935 0.0
H524 H 0.17256 0.36531 0.18069 0.0
H525 H 0.16856 0.34659 0.21081 0.0
C526 C 0.13763 0.47778 0.10232 0.0
N527 N 0.17683 0.47112 0.11575 0.0
N528 N 0.1627 0.46587 0.13744 0.0
C529 C 0.11436 0.46747 0.13825 0.0
C530 C 0.0972 0.47525 0.11617 0.0
C531 C 0.13845 0.49273 0.07747 0.0
H532 H 0.17065 0.51479 0.07405 0.0
H533 H 0.13913 0.46027 0.06636 0.0
H534 H 0.10584 0.51371 0.07291 0.0
O535 O 0.27013 0.53213 0.12406 0.0
O536 O 0.24707 0.52722 0.16096 0.0
H537 H 0.09097 0.4998 0.16982 0.0
H538 H 0.04602 0.46282 0.15617 0.0
C539 C 0.085 0.46616 0.15995 0.0
H540 H 0.09638 0.43519 0.17066 0.0
H541 H 0.16238 0.53578 0.19585 0.0
O542 O 0.26072 0.48009 0.07609 0.0
C543 C 0.2692 0.54861 0.14454 0.0
C544 C 0.03301 0.53057 0.41405 0.0
C545 C 0.98414 0.54485 0.41552 0.0
C546 C 0.95804 0.46107 0.41685 0.0
C547 C 0.00678 0.44678 0.41454 0.0
N548 N 0.09106 0.46557 0.41681 0.0
N549 N 0.90169 0.52601 0.42423 0.0
C550 C 0.04448 0.48091 0.41518 0.0
C551 C 0.94713 0.51071 0.41901 0.0
N552 N 0.06803 0.56435 0.4105 0.0
N553 N 0.92223 0.42742 0.41576 0.0
H554 H 0.89289 0.56238 0.42577 0.0
H555 H 0.87384 0.503 0.42901 0.0
H556 H 0.92892 0.39055 0.41489 0.0
H557 H 0.88589 0.43596 0.41449 0.0
H558 H 0.10351 0.55597 0.40642 0.0
H559 H 0.06113 0.60123 0.41054 0.0
H560 H 0.12013 0.48853 0.4194 0.0
H561 H 0.10027 0.42919 0.41758 0.0
C562 C 0.50806 0.04479 0.40918 0.0
C563 C 0.54229 0.00732 0.40752 0.0
C564 C 0.47852 0.94686 0.40928 0.0
C565 C 0.4443 0.98433 0.40748 0.0
N566 N 0.42472 0.06879 0.40509 0.0
N567 N 0.56193 0.92287 0.40541 0.0
C568 C 0.45849 0.03337 0.40756 0.0
C569 C 0.52811 0.95829 0.40772 0.0
N570 N 0.52316 0.09112 0.41243 0.0
N571 N 0.46341 0.90053 0.41261 0.0
H572 H 0.59879 0.92976 0.40508 0.0
H573 H 0.55361 0.88685 0.40257 0.0
H574 H 0.42713 0.8911 0.41357 0.0
H575 H 0.48648 0.87206 0.4163 0.0
H576 H 0.50006 0.11963 0.416 0.0
H577 H 0.55944 0.10049 0.41349 0.0
H578 H 0.4331 0.10479 0.40219 0.0
H579 H 0.38786 0.06191 0.40462 0.0
C580 C 0.94552 0.47716 0.60889 0.0
C581 C 0.98262 0.44316 0.61242 0.0
C582 C 0.04273 0.50733 0.6124 0.0
C583 C 0.00496 0.54136 0.61301 0.0
N584 N 0.92022 0.5602 0.61246 0.0
N585 N 0.06654 0.42431 0.61803 0.0
C586 C 0.95623 0.52683 0.61102 0.0
C587 C 0.03142 0.45769 0.61394 0.0
N588 N 0.90017 0.46171 0.60362 0.0
N589 N 0.08925 0.52273 0.61044 0.0
H590 H 0.05986 0.38741 0.61864 0.0
H591 H 0.10188 0.43319 0.62213 0.0
H592 H 0.09834 0.5591 0.60936 0.0
H593 H 0.11827 0.49972 0.6078 0.0
H594 H 0.87238 0.48469 0.59876 0.0
H595 H 0.89146 0.42532 0.6021 0.0
H596 H 0.88399 0.5513 0.61398 0.0
H597 H 0.92661 0.59709 0.61351 0.0
C598 C 0.52505 0.03028 0.62226 0.0
C599 C 0.54044 0.98163 0.62229 0.0
C600 C 0.45731 0.95342 0.62255 0.0
C601 C 0.44195 0.00206 0.62314 0.0
N602 N 0.45872 0.08647 0.61837 0.0
N603 N 0.52339 0.8974 0.61727 0.0
C604 C 0.47513 0.04046 0.62124 0.0
C605 C 0.50714 0.94329 0.62068 0.0
N606 N 0.55812 0.0665 0.6242 0.0
N607 N 0.42434 0.91714 0.6247 0.0
H608 H 0.55987 0.88898 0.61605 0.0
H609 H 0.50104 0.86826 0.6138 0.0
H610 H 0.38733 0.9232 0.6251 0.0
H611 H 0.43345 0.88121 0.62723 0.0
H612 H 0.54914 0.10232 0.62713 0.0
H613 H 0.59514 0.06048 0.62403 0.0
H614 H 0.48087 0.11567 0.61466 0.0
H615 H 0.42219 0.095 0.61786 0.0
C616 C 0.45057 0.95701 0.90945 0.0
C617 C 0.49897 0.94098 0.90908 0.0
C618 C 0.52828 0.02371 0.91033 0.0
C619 C 0.47989 0.03977 0.91007 0.0
N620 N 0.39541 0.02381 0.91479 0.0
N621 N 0.58334 0.95652 0.91457 0.0
C622 C 0.4411 0.00696 0.91147 0.0
C623 C 0.53772 0.97362 0.91137 0.0
N624 N 0.41393 0.92462 0.90689 0.0
N625 N 0.56499 0.05627 0.9085 0.0
H626 H 0.59128 0.91984 0.91515 0.0
H627 H 0.61266 0.97826 0.91854 0.0
H628 H 0.55949 0.09339 0.90858 0.0
H629 H 0.60072 0.04673 0.90572 0.0
H630 H 0.37824 0.93436 0.90421 0.0
H631 H 0.41948 0.88753 0.90626 0.0
H632 H 0.36592 0.00177 0.91807 0.0
H633 H 0.38757 0.06041 0.91619 0.0
C634 C 0.97638 0.44187 0.91653 0.0
C635 C 0.94241 0.4795 0.91463 0.0
C636 C 0.00654 0.53947 0.91694 0.0
C637 C 0.04051 0.50193 0.91468 0.0
N638 N 0.05956 0.41737 0.91231 0.0
N639 N 0.92336 0.56414 0.913 0.0
C640 C 0.02604 0.45298 0.91488 0.0
C641 C 0.95688 0.52843 0.91523 0.0
N642 N 0.9609 0.39567 0.91982 0.0
N643 N 0.02202 0.58552 0.92061 0.0
H644 H 0.88648 0.55747 0.91248 0.0
H645 H 0.93201 0.6002 0.91046 0.0
H646 H 0.05841 0.59439 0.92181 0.0
H647 H -0.00085 0.61406 0.92445 0.0
H648 H 0.98377 0.36698 0.9234 0.0
H649 H 0.92451 0.38673 0.92097 0.0
H650 H 0.05092 0.38143 0.90946 0.0
H651 H 0.09645 0.42406 0.91184 0.0
C652 C 0.53743 0.96055 0.12466 0.0
C653 C 0.48893 0.94474 0.12478 0.0
C654 C 0.46016 0.02771 0.12337 0.0
C655 C 0.50865 0.04352 0.12362 0.0
N656 N 0.59313 0.02697 0.11941 0.0
N657 N 0.40464 0.96086 0.11927 0.0
C658 C 0.54725 0.01045 0.12256 0.0
C659 C 0.45039 0.97765 0.12247 0.0
N660 N 0.57385 0.92798 0.12747 0.0
N661 N 0.42364 0.06052 0.12496 0.0
H662 H 0.39634 0.92426 0.11886 0.0
H663 H 0.37551 0.98278 0.1152 0.0
H664 H 0.42939 0.09761 0.12469 0.0
H665 H 0.38784 0.05126 0.12775 0.0
H666 H 0.60953 0.93756 0.13033 0.0
H667 H 0.56812 0.89092 0.12822 0.0
H668 H 0.62253 0.00473 0.11631 0.0
H669 H 0.60131 0.06351 0.118 0.0
C670 C 0.98233 0.5471 0.10999 0.0
C671 C 0.94884 0.50883 0.11079 0.0
C672 C 0.01383 0.4503 0.10662 0.0
C673 C 0.04727 0.48788 0.11013 0.0
N674 N 0.06499 0.57213 0.11545 0.0
N675 N 0.93127 0.42375 0.1105 0.0
C676 C 0.0321 0.53651 0.1115 0.0
C677 C 0.96405 0.46028 0.10885 0.0
N678 N 0.9663 0.59339 0.10792 0.0
N679 N 0.02993 0.40514 0.10138 0.0
H680 H 0.89433 0.42959 0.11175 0.0
H681 H 0.94074 0.38765 0.11202 0.0
H682 H 0.06644 0.39705 0.09976 0.0
H683 H 0.00737 0.37697 0.09658 0.0
H684 H 0.98891 0.62272 0.10519 0.0
H685 H 0.92982 0.60196 0.10687 0.0
H686 H 0.05567 0.60742 0.11946 0.0
H687 H 0.10196 0.56591 0.11593 0.0
C688 C 0.11166 0.40015 0.28567 0.0
C689 C 0.07793 0.36261 0.28176 0.0
C690 C 0.08703 0.37384 0.23983 0.0
C691 C 0.12346 0.40874 0.24377 0.0
N692 N 0.17898 0.44558 0.27044 0.0
N693 N 0.04328 0.3055 0.25517 0.0
C694 C 0.13849 0.41883 0.26671 0.0
C695 C 0.06874 0.34684 0.25883 0.0
N696 N 0.11632 0.42005 0.30716 0.0
N697 N 0.06784 0.36818 0.21824 0.0
H698 H 0.03042 0.28409 0.26868 0.0
H699 H 0.03944 0.28988 0.23888 0.0
H700 H 0.0792 0.38795 0.20393 0.0
H701 H 0.03764 0.34704 0.215 0.0
H702 H 0.13644 0.45098 0.31032 0.0
H703 H 0.09668 0.40844 0.32146 0.0
H704 H 0.19417 0.45015 0.28677 0.0
H705 H 0.20022 0.45886 0.25696 0.0
C706 C 0.56565 0.09292 0.25583 0.0
C707 C 0.5828 0.1383 0.24814 0.0
C708 C 0.65396 0.1293 0.27285 0.0
C709 C 0.63403 0.0866 0.28237 0.0
N710 N 0.56564 0.03371 0.28656 0.0
N711 N 0.6388 0.20401 0.25242 0.0
C712 C 0.58833 0.07007 0.2749 0.0
C713 C 0.62576 0.15777 0.2575 0.0
N714 N 0.5289 0.0706 0.24437 0.0
N715 N 0.70037 0.14177 0.27775 0.0
H716 H 0.61872 0.22618 0.24151 0.0
H717 H 0.66703 0.22173 0.26062 0.0
H718 H 0.72235 0.12147 0.28865 0.0
H719 H 0.71838 0.16974 0.26942 0.0
H720 H 0.51837 0.03533 0.24782 0.0
H721 H 0.51225 0.08531 0.22982 0.0
H722 H 0.5302 0.02366 0.28328 0.0
H723 H 0.58027 0.01696 0.30111 0.0
C724 C 0.8507 0.57133 0.26722 0.0
C725 C 0.8668 0.58123 0.24439 0.0
C726 C 0.92098 0.64308 0.25981 0.0
C727 C 0.91082 0.62734 0.28269 0.0
N728 N 0.87122 0.57001 0.30784 0.0
N729 N 0.92341 0.62177 0.21925 0.0
C730 C 0.87679 0.58993 0.28637 0.0
C731 C 0.90338 0.61612 0.24069 0.0
N732 N 0.80995 0.54476 0.27063 0.0
N733 N 0.94674 0.68433 0.25631 0.0
H734 H 0.91247 0.60215 0.20486 0.0
H735 H 0.95377 0.64284 0.21622 0.0
H736 H 0.95914 0.70567 0.2699 0.0
H737 H 0.95131 0.69994 0.24004 0.0
H738 H 0.79404 0.54029 0.28684 0.0
H739 H 0.78923 0.53159 0.25699 0.0
H740 H 0.85083 0.53917 0.31087 0.0
H741 H 0.89043 0.58145 0.32226 0.0
C742 C 0.36264 0.83229 0.2582 0.0
C743 C 0.40567 0.8521 0.24898 0.0
C744 C 0.39928 0.91995 0.27586 0.0
C745 C 0.35359 0.90307 0.28323 0.0
N746 N 0.2877 0.8475 0.27842 0.0
N747 N 0.45915 0.9202 0.24545 0.0
C748 C 0.33407 0.86036 0.27359 0.0
C749 C 0.42236 0.89751 0.25679 0.0
N750 N 0.34993 0.78607 0.25298 0.0
N751 N 0.42164 0.95626 0.28764 0.0
H752 H 0.47604 0.90578 0.23089 0.0
H753 H 0.46944 0.95547 0.24899 0.0
H754 H 0.40676 0.97265 0.30221 0.0
H755 H 0.45705 0.96656 0.28444 0.0
H756 H 0.3217 0.76805 0.26109 0.0
H757 H 0.37023 0.76421 0.24203 0.0
H758 H 0.26995 0.81955 0.27 0.0
H759 H 0.26551 0.86744 0.28937 0.0
C760 C 0.09077 0.61494 0.78692 0.0
C761 C 0.12735 0.5803 0.78278 0.0
C762 C 0.11607 0.59 0.74093 0.0
C763 C 0.08161 0.62675 0.74507 0.0
N764 N 0.0465 0.68317 0.77186 0.0
N765 N 0.18381 0.54511 0.75601 0.0
C766 C 0.07237 0.64214 0.76805 0.0
C767 C 0.14293 0.57121 0.75981 0.0
N768 N 0.07133 0.62002 0.80851 0.0
N769 N 0.12129 0.57079 0.71931 0.0
H770 H 0.205 0.53179 0.76948 0.0
H771 H 0.19932 0.54118 0.73968 0.0
H772 H 0.10173 0.58255 0.70504 0.0
H773 H 0.14198 0.54032 0.71598 0.0
H774 H 0.04096 0.64086 0.81182 0.0
H775 H 0.08276 0.60018 0.82276 0.0
H776 H 0.04249 0.69853 0.78821 0.0
H777 H 0.03349 0.70461 0.75841 0.0
C778 C 0.41535 0.07873 0.77766 0.0
C779 C 0.40081 0.1257 0.78416 0.0
C780 C 0.33086 0.11911 0.75848 0.0
C781 C 0.34901 0.07488 0.74982 0.0
N782 N 0.41418 0.01754 0.74795 0.0
N783 N 0.34882 0.19405 0.77809 0.0
C784 C 0.39282 0.05599 0.75853 0.0
C785 C 0.3596 0.14691 0.77387 0.0
N786 N 0.44954 0.055 0.79024 0.0
N787 N 0.28549 0.13371 0.75274 0.0
H788 H 0.36925 0.21566 0.78908 0.0
H789 H 0.32221 0.2128 0.76917 0.0
H790 H 0.263 0.1138 0.74195 0.0
H791 H 0.26857 0.16312 0.76039 0.0
H792 H 0.45746 0.01874 0.78781 0.0
H793 H 0.46616 0.06987 0.80475 0.0
H794 H 0.44847 0.00542 0.75225 0.0
H795 H 0.39998 0.00087 0.73331 0.0
C796 C 0.83789 0.41266 0.75957 0.0
C797 C 0.85412 0.40322 0.78241 0.0
C798 C 0.90932 0.34222 0.76706 0.0
C799 C 0.89932 0.35798 0.7442 0.0
N800 N 0.85841 0.41395 0.7189 0.0
N801 N 0.91115 0.3635 0.8076 0.0
C802 C 0.8644 0.39445 0.74043 0.0
C803 C 0.89113 0.36884 0.78616 0.0
N804 N 0.79672 0.43854 0.75616 0.0
N805 N 0.93574 0.30141 0.77055 0.0
H806 H 0.89991 0.38296 0.822 0.0
H807 H 0.94179 0.34288 0.81063 0.0
H808 H 0.94865 0.28042 0.75692 0.0
H809 H 0.94036 0.28576 0.7868 0.0
H810 H 0.78076 0.44269 0.73996 0.0
H811 H 0.7758 0.45144 0.76982 0.0
H812 H 0.83734 0.44427 0.71579 0.0
H813 H 0.87771 0.40261 0.70446 0.0
C814 C 0.56276 0.89794 0.77374 0.0
C815 C 0.57948 0.85265 0.78172 0.0
C816 C 0.65074 0.86046 0.75681 0.0
C817 C 0.63124 0.90315 0.74709 0.0
N818 N 0.56328 0.95638 0.74266 0.0
N819 N 0.6349 0.78638 0.77771 0.0
C820 C 0.58567 0.92015 0.75451 0.0
C821 C 0.62229 0.8326 0.77239 0.0
N822 N 0.52621 0.92084 0.78509 0.0
N823 N 0.69698 0.84741 0.75186 0.0
H824 H 0.61462 0.76464 0.78875 0.0
H825 H 0.66296 0.76821 0.76956 0.0
H826 H 0.71906 0.86716 0.74075 0.0
H827 H 0.71477 0.81948 0.76032 0.0
H828 H 0.51618 0.95614 0.78146 0.0
H829 H 0.50935 0.90664 0.79973 0.0
H830 H 0.52791 0.96673 0.74589 0.0
H831 H 0.57807 0.97266 0.72801 0.0
C832 C 0.17393 0.17694 0.39217 0.0
C833 C 0.12845 0.17372 0.38117 0.0
C834 C 0.14561 0.09098 0.3691 0.0
C835 C 0.19096 0.09413 0.3802 0.0
N836 N 0.25305 0.14174 0.39793 0.0
N837 N 0.07454 0.1319 0.35516 0.0
C838 C 0.20662 0.13776 0.39039 0.0
C839 C 0.11567 0.13227 0.36814 0.0
N840 N 0.18535 0.21714 0.40464 0.0
N841 N 0.12961 0.04762 0.36092 0.0
H842 H 0.0496 0.15981 0.35501 0.0
H843 H 0.0666 0.10524 0.34311 0.0
H844 H 0.1505 0.0165 0.36085 0.0
H845 H 0.09437 0.04134 0.35567 0.0
H846 H 0.21525 0.21968 0.41539 0.0
H847 H 0.16357 0.2477 0.40499 0.0
H848 H 0.26833 0.17372 0.4037 0.0
H849 H 0.27779 0.11362 0.39661 0.0
C850 C 0.85355 0.20751 0.38021 0.0
C851 C 0.90099 0.18927 0.38211 0.0
C852 C 0.87034 0.10678 0.38427 0.0
C853 C 0.82289 0.12538 0.38517 0.0
N854 N 0.76776 0.19209 0.38429 0.0
N855 N 0.95583 0.12254 0.38655 0.0
C856 C 0.81395 0.17542 0.38296 0.0
C857 C 0.90974 0.13911 0.38412 0.0
N858 N 0.84667 0.25539 0.37588 0.0
N859 N 0.87758 0.05812 0.38294 0.0
H860 H 0.98601 0.1446 0.38496 0.0
H861 H 0.9644 0.08742 0.39126 0.0
H862 H 0.84966 0.03307 0.3835 0.0
H863 H 0.91079 0.04238 0.37952 0.0
H864 H 0.81335 0.27074 0.37239 0.0
H865 H 0.87511 0.27965 0.37424 0.0
H866 H 0.75863 0.22834 0.38505 0.0
H867 H 0.73813 0.16925 0.38583 0.0
C868 C 0.86797 0.85654 0.36718 0.0
C869 C 0.8556 0.81569 0.38085 0.0
C870 C 0.77978 0.8539 0.39238 0.0
C871 C 0.79428 0.89624 0.38052 0.0
N872 N 0.84707 0.93628 0.35336 0.0
N873 N 0.80032 0.77341 0.40569 0.0
C874 C 0.83658 0.89687 0.36672 0.0
C875 C 0.81131 0.81361 0.39303 0.0
N876 N 0.91162 0.85839 0.35619 0.0
N877 N 0.73508 0.85201 0.4023 0.0
H878 H 0.8211 0.74216 0.40513 0.0
H879 H 0.77161 0.77096 0.41718 0.0
H880 H 0.71078 0.88057 0.4015 0.0
H881 H 0.72027 0.82142 0.40984 0.0
H882 H 0.9263 0.88931 0.34891 0.0
H883 H 0.93514 0.82938 0.35511 0.0
H884 H 0.87326 0.93678 0.3405 0.0
H885 H 0.82805 0.96848 0.35409 0.0
C886 C 0.07568 0.85304 0.38422 0.0
C887 C 0.08425 0.80293 0.38227 0.0
C888 C 0.17121 0.81719 0.38106 0.0
C889 C 0.16257 0.86648 0.38596 0.0
N890 N 0.10738 0.93224 0.39259 0.0
N891 N 0.13881 0.73595 0.37964 0.0
C892 C 0.11499 0.88471 0.38754 0.0
C893 C 0.13168 0.78458 0.38059 0.0
N894 N 0.02973 0.87027 0.38239 0.0
N895 N 0.21709 0.80176 0.37689 0.0
H896 H 0.1105 0.71139 0.3786 0.0
H897 H 0.17238 0.71968 0.38103 0.0
H898 H 0.24693 0.8244 0.37803 0.0
H899 H 0.22546 0.76746 0.37091 0.0
H900 H 0.02114 0.90661 0.38105 0.0
H901 H -0.0 0.8479 0.38027 0.0
H902 H 0.07398 0.94645 0.39698 0.0
H903 H 0.13491 0.95761 0.39363 0.0
C904 C 0.19858 0.85201 0.65068 0.0
C905 C 0.17987 0.8991 0.64774 0.0
C906 C 0.098 0.86727 0.64554 0.0
C907 C 0.11722 0.82002 0.64543 0.0
N908 N 0.18453 0.76581 0.64768 0.0
N909 N 0.11275 0.9528 0.64179 0.0
C910 C 0.16718 0.81183 0.64824 0.0
C911 C 0.12978 0.9071 0.64517 0.0
N912 N 0.24625 0.84598 0.65569 0.0
N913 N 0.04925 0.87391 0.64662 0.0
H914 H 0.1344 0.98336 0.64284 0.0
H915 H 0.07767 0.9605 0.63673 0.0
H916 H 0.02471 0.84552 0.64675 0.0
H917 H 0.03301 0.90716 0.64933 0.0
H918 H 0.26162 0.81309 0.66006 0.0
H919 H 0.27018 0.87476 0.65701 0.0
H920 H 0.22092 0.7572 0.64725 0.0
H921 H 0.16217 0.73577 0.64646 0.0
C922 C 0.17204 0.17342 0.63566 0.0
C923 C 0.16802 0.12872 0.64744 0.0
C924 C 0.08941 0.15227 0.66322 0.0
C925 C 0.09222 0.19556 0.65026 0.0
N926 N 0.13862 0.25312 0.6287 0.0
N927 N 0.12648 0.07718 0.67481 0.0
C928 C 0.1345 0.2079 0.6379 0.0
C929 C 0.12808 0.11892 0.66219 0.0
N930 N 0.21148 0.18241 0.62215 0.0
N931 N 0.04832 0.14163 0.67524 0.0
H932 H 0.15032 0.04869 0.67257 0.0
H933 H 0.10241 0.07093 0.68828 0.0
H934 H 0.02092 0.16647 0.67799 0.0
H935 H 0.04026 0.10794 0.68208 0.0
H936 H 0.21468 0.21174 0.61105 0.0
H937 H 0.24109 0.15942 0.62146 0.0
H938 H 0.16948 0.26638 0.62076 0.0
H939 H 0.11184 0.27914 0.63066 0.0
C940 C 0.78276 0.13266 0.63596 0.0
C941 C 0.79662 0.09061 0.64829 0.0
C942 C 0.87548 0.12559 0.65632 0.0
C943 C 0.86155 0.16788 0.64428 0.0
N944 N 0.80015 0.21608 0.62631 0.0
N945 N 0.85125 0.05124 0.67476 0.0
C946 C 0.81452 0.1728 0.63521 0.0
C947 C 0.84123 0.08863 0.66012 0.0
N948 N 0.73954 0.13373 0.6247 0.0
N949 N 0.92239 0.11935 0.66277 0.0
H950 H 0.82788 0.02258 0.6776 0.0
H951 H 0.88091 0.05067 0.68574 0.0
H952 H 0.94888 0.14516 0.65989 0.0
H953 H 0.93615 0.08704 0.66907 0.0
H954 H 0.7296 0.1606 0.61308 0.0
H955 H 0.71395 0.10646 0.62635 0.0
H956 H 0.765 0.22368 0.62135 0.0
H957 H 0.82287 0.24594 0.62547 0.0
C958 C 0.89479 0.83438 0.66022 0.0
C959 C 0.89093 0.79008 0.6482 0.0
C960 C 0.8094 0.81125 0.6356 0.0
C961 C 0.81619 0.85794 0.64485 0.0
N962 N 0.86752 0.91675 0.66318 0.0
N963 N 0.84585 0.73555 0.62415 0.0
C964 C 0.85917 0.87011 0.65672 0.0
C965 C 0.84838 0.77814 0.63592 0.0
N966 N 0.93293 0.84284 0.67458 0.0
N967 N 0.76547 0.79846 0.62697 0.0
H968 H 0.87238 0.70911 0.62539 0.0
H969 H 0.81862 0.72715 0.61248 0.0
H970 H 0.73633 0.82211 0.62649 0.0
H971 H 0.75665 0.76361 0.62195 0.0
H972 H 0.93475 0.8722 0.68573 0.0
H973 H 0.96105 0.81864 0.67698 0.0
H974 H 0.90048 0.92905 0.66932 0.0
H975 H 0.84299 0.9445 0.66042 0.0
C976 C 0.61715 0.62876 0.86834 0.0
C977 C 0.62598 0.66748 0.8839 0.0
C978 C 0.70399 0.63245 0.89429 0.0
C979 C 0.6926 0.59135 0.88086 0.0
N980 N 0.63919 0.54919 0.85498 0.0
N981 N 0.67712 0.70748 0.91152 0.0
C982 C 0.64998 0.58967 0.8674 0.0
C983 C 0.66939 0.66981 0.89676 0.0
N984 N 0.57678 0.62866 0.85477 0.0
N985 N 0.74856 0.63591 0.90416 0.0
H986 H 0.65431 0.73721 0.91247 0.0
H987 H 0.705 0.70876 0.9235 0.0
H988 H 0.77481 0.6094 0.90212 0.0
H989 H 0.76121 0.66631 0.91269 0.0
H990 H 0.57202 0.60594 0.84065 0.0
H991 H 0.54824 0.6525 0.85682 0.0
H992 H 0.60557 0.54201 0.84789 0.0
H993 H 0.6634 0.5212 0.85237 0.0
C994 C 0.40611 0.62921 0.88325 0.0
C995 C 0.39786 0.67908 0.87979 0.0
C996 C 0.31081 0.6656 0.87837 0.0
C997 C 0.31917 0.61596 0.88242 0.0
N998 N 0.37357 0.54836 0.88353 0.0
N999 N 0.34489 0.74441 0.86992 0.0
C1000 C 0.36654 0.59712 0.88327 0.0
C1001 C 0.35089 0.69715 0.87586 0.0
N1002 N 0.45182 0.61279 0.88715 0.0
N1003 N 0.26468 0.6826 0.87792 0.0
H1004 H 0.37361 0.76838 0.86848 0.0
H1005 H 0.3122 0.7593 0.8649 0.0
H1006 H 0.23474 0.66014 0.87933 0.0
H1007 H 0.25574 0.71892 0.87733 0.0
H1008 H 0.45974 0.57822 0.89294 0.0
H1009 H 0.48224 0.63454 0.88563 0.0
H1010 H 0.40697 0.53204 0.88147 0.0
H1011 H 0.34542 0.5236 0.88403 0.0
C1012 C 0.3133 0.31056 0.89545 0.0
C1013 C 0.35801 0.31491 0.88374 0.0
C1014 C 0.33415 0.39352 0.86809 0.0
C1015 C 0.28991 0.38956 0.88021 0.0
N1016 N 0.23251 0.34193 0.90129 0.0
N1017 N 0.40894 0.35659 0.85621 0.0
C1018 C 0.27802 0.34717 0.89262 0.0
C1019 C 0.36749 0.35489 0.86899 0.0
N1020 N 0.30498 0.27172 0.90947 0.0
N1021 N 0.3459 0.43566 0.85715 0.0
H1022 H 0.43721 0.33245 0.85822 0.0
H1023 H 0.41466 0.38073 0.84268 0.0
H1024 H 0.32203 0.4642 0.8551 0.0
H1025 H 0.3802 0.44381 0.85109 0.0
H1026 H 0.27574 0.26884 0.92064 0.0
H1027 H 0.3286 0.24268 0.91068 0.0
H1028 H 0.21968 0.31059 0.90898 0.0
H1029 H 0.20593 0.36805 0.89905 0.0
C1030 C 0.62524 0.37339 0.87155 0.0
C1031 C 0.66804 0.35952 0.88314 0.0
C1032 C 0.63373 0.28021 0.89145 0.0
C1033 C 0.59108 0.29412 0.8797 0.0
N1034 N 0.5505 0.34889 0.85373 0.0
N1035 N 0.71747 0.29781 0.90009 0.0
C1036 C 0.58844 0.3389 0.86798 0.0
C1037 C 0.67369 0.3122 0.89185 0.0
N1038 N 0.61831 0.42043 0.8654 0.0
N1039 N 0.6355 0.23676 0.90256 0.0
H1040 H 0.74725 0.32065 0.90059 0.0
H1041 H 0.72547 0.26253 0.90476 0.0
H1042 H 0.60821 0.21114 0.90116 0.0
H1043 H 0.66296 0.22671 0.9138 0.0
H1044 H 0.58566 0.43401 0.85948 0.0
H1045 H 0.64392 0.44711 0.86818 0.0
H1046 H 0.54932 0.37877 0.84284 0.0
H1047 H 0.52206 0.32523 0.85104 0.0
C1048 C 0.62087 0.36199 0.1577 0.0
C1049 C 0.63131 0.32008 0.14458 0.0
C1050 C 0.71058 0.35258 0.13464 0.0
C1051 C 0.70026 0.39398 0.14814 0.0
N1052 N 0.65131 0.4325 0.17731 0.0
N1053 N 0.68889 0.27055 0.12453 0.0
C1054 C 0.65748 0.39659 0.16143 0.0
C1055 C 0.67712 0.31382 0.13423 0.0
N1056 N 0.57498 0.37054 0.16519 0.0
N1057 N 0.75198 0.35089 0.12188 0.0
H1058 H 0.66511 0.24152 0.12405 0.0
H1059 H 0.72323 0.26204 0.11863 0.0
H1060 H 0.77875 0.3771 0.12314 0.0
H1061 H 0.75903 0.32473 0.10945 0.0
H1062 H 0.56395 0.403 0.17245 0.0
H1063 H 0.54654 0.34709 0.16205 0.0
H1064 H 0.62297 0.4332 0.18911 0.0
H1065 H 0.67681 0.45915 0.18037 0.0
C1066 C 0.63967 0.70356 0.14031 0.0
C1067 C 0.59718 0.68841 0.15188 0.0
C1068 C 0.63231 0.60916 0.15906 0.0
C1069 C 0.67474 0.62417 0.14741 0.0
N1070 N 0.72345 0.68728 0.13112 0.0
N1071 N 0.55675 0.63165 0.17691 0.0
C1072 C 0.67988 0.67202 0.13933 0.0
C1073 C 0.59491 0.64291 0.16296 0.0
N1074 N 0.641 0.74776 0.12988 0.0
N1075 N 0.62644 0.56184 0.16504 0.0
H1076 H 0.52783 0.65473 0.17968 0.0
H1077 H 0.55557 0.60114 0.18738 0.0
H1078 H 0.6528 0.53577 0.16239 0.0
H1079 H 0.59412 0.54739 0.17094 0.0
H1080 H 0.66833 0.75887 0.11876 0.0
H1081 H 0.61349 0.77302 0.1317 0.0
H1082 H 0.73112 0.72287 0.12689 0.0
H1083 H 0.75343 0.66476 0.13022 0.0
C1084 C 0.34637 0.58427 0.15753 0.0
C1085 C 0.29898 0.59136 0.14924 0.0
C1086 C 0.31702 0.67605 0.14097 0.0
C1087 C 0.36594 0.66693 0.14619 0.0
N1088 N 0.42894 0.61204 0.15759 0.0
N1089 N 0.23805 0.6426 0.13287 0.0
C1090 C 0.38105 0.6211 0.15426 0.0
C1091 C 0.28381 0.63707 0.14109 0.0
N1092 N 0.35826 0.54208 0.1683 0.0
N1093 N 0.30243 0.72198 0.13622 0.0
H1094 H 0.21226 0.61538 0.13397 0.0
H1095 H 0.22613 0.67318 0.12418 0.0
H1096 H 0.32622 0.75102 0.13576 0.0
H1097 H 0.26659 0.73201 0.13438 0.0
H1098 H 0.39078 0.53635 0.17676 0.0
H1099 H 0.33384 0.51404 0.1706 0.0
H1100 H 0.44289 0.57794 0.16082 0.0
H1101 H 0.45559 0.63804 0.15537 0.0
C1102 C 0.35411 0.36887 0.16268 0.0
C1103 C 0.31665 0.36037 0.14644 0.0
C1104 C 0.35614 0.28571 0.1342 0.0
C1105 C 0.39683 0.29839 0.14766 0.0
N1106 N 0.43674 0.35406 0.1734 0.0
N1107 N 0.28082 0.31091 0.11684 0.0
C1108 C 0.39611 0.33997 0.16191 0.0
C1109 C 0.31723 0.31865 0.1323 0.0
N1110 N 0.35027 0.40502 0.17864 0.0
N1111 N 0.3543 0.24155 0.12382 0.0
H1112 H 0.24984 0.33206 0.11632 0.0
H1113 H 0.28207 0.28485 0.10393 0.0
H1114 H 0.38182 0.21623 0.12539 0.0
H1115 H 0.32398 0.22814 0.11547 0.0
H1116 H 0.37334 0.40849 0.19273 0.0
H1117 H 0.32217 0.42963 0.17913 0.0
H1118 H 0.44069 0.38763 0.18116 0.0
H1119 H 0.46821 0.33391 0.17386 0.0
C1120 C 0.94128 0.20131 0.49648 0.0
C1121 C 0.98765 0.21161 0.48744 0.0
C1122 C 0.01369 0.23895 0.52575 0.0
C1123 C 0.96819 0.22549 0.53523 0.0
N1124 N 0.89544 0.17893 0.53041 0.0
N1125 N 0.0715 0.22706 0.49488 0.0
C1126 C 0.934 0.20211 0.52083 0.0
C1127 C 0.02495 0.22632 0.50253 0.0
N1128 N 0.90338 0.19321 0.48195 0.0
N1129 N 0.04548 0.26597 0.5382 0.0
H1130 H 0.08132 0.21681 0.47816 0.0
H1131 H 0.10073 0.23268 0.50583 0.0
H1132 H 0.0397 0.27676 0.55515 0.0
H1133 H 0.0761 0.28148 0.53091 0.0
H1134 H 0.868 0.19051 0.48779 0.0
H1135 H 0.90631 0.19408 0.46396 0.0
H1136 H 0.87191 0.15776 0.52076 0.0
H1137 H 0.89036 0.17592 0.54825 0.0
C1138 C 0.78175 0.93387 0.52258 0.0
C1139 C 0.75229 0.96405 0.53652 0.0
C1140 C 0.74486 0.01996 0.5036 0.0
C1141 C 0.76728 0.98582 0.4889 0.0
N1142 N 0.79887 0.90542 0.48391 0.0
N1143 N 0.69939 0.03331 0.53858 0.0
C1144 C 0.78363 0.94145 0.49824 0.0
C1145 C 0.73225 0.00658 0.52662 0.0
N1146 N 0.80981 0.89928 0.5326 0.0
N1147 N 0.73705 0.06584 0.49591 0.0
H1148 H 0.68832 0.02518 0.5553 0.0
H1149 H 0.67967 0.06111 0.53106 0.0
H1150 H 0.7471 0.07755 0.47943 0.0
H1151 H 0.72546 0.09356 0.50669 0.0
H1152 H 0.83537 0.87966 0.52338 0.0
H1153 H 0.81193 0.8943 0.55047 0.0
H1154 H 0.80645 0.8708 0.48983 0.0
H1155 H 0.79905 0.90838 0.46592 0.0
C1156 C 0.92181 0.76945 0.5324 0.0
C1157 C 0.96938 0.77144 0.54122 0.0
C1158 C 0.00132 0.75487 0.5025 0.0
C1159 C 0.95368 0.75597 0.49328 0.0
N1160 N 0.8711 0.78068 0.49888 0.0
N1161 N 0.05411 0.78016 0.53352 0.0
C1162 C 0.91464 0.76824 0.50806 0.0
C1163 C 0.00903 0.76856 0.5259 0.0
N1164 N 0.88341 0.76639 0.54713 0.0
N1165 N 0.03919 0.73844 0.48964 0.0
H1166 H 0.061 0.79144 0.55042 0.0
H1167 H 0.08356 0.78372 0.52246 0.0
H1168 H 0.03674 0.72763 0.47251 0.0
H1169 H 0.07291 0.73144 0.49675 0.0
H1170 H 0.84847 0.75981 0.54144 0.0
H1171 H 0.88681 0.76556 0.5651 0.0
H1172 H 0.84263 0.79346 0.50887 0.0
H1173 H 0.86527 0.7839 0.48111 0.0
C1174 C 0.20179 0.94494 0.53174 0.0
C1175 C 0.21802 0.98913 0.54129 0.0
C1176 C 0.25333 0.01073 0.50368 0.0
C1177 C 0.23332 0.96843 0.49358 0.0
N1178 N 0.17591 0.90346 0.49718 0.0
N1179 N 0.24872 0.06917 0.53469 0.0
C1180 C 0.20382 0.93791 0.50737 0.0
C1181 C 0.24068 0.02354 0.52676 0.0
N1182 N 0.18652 0.90855 0.5459 0.0
N1183 N 0.28618 0.03773 0.49182 0.0
H1184 H 0.23874 0.08045 0.55123 0.0
H1185 H 0.26049 0.09714 0.52407 0.0
H1186 H 0.29713 0.03004 0.47505 0.0
H1187 H 0.30595 0.06533 0.49944 0.0
H1188 H 0.17897 0.87405 0.53985 0.0
H1189 H 0.18634 0.91105 0.56391 0.0
H1190 H 0.1505 0.88336 0.50629 0.0
H1191 H 0.17383 0.89899 0.47928 0.0
C1192 C 0.47988 0.70029 0.99984 0.0
C1193 C 0.5177 0.73008 0.99165 0.0
C1194 C 0.52813 0.76361 0.03068 0.0
C1195 C 0.48652 0.73804 0.03837 0.0
N1196 N 0.42337 0.68065 0.03049 0.0
N1197 N 0.57495 0.7936 0.99826 0.0
C1198 C 0.46252 0.70606 0.02295 0.0
C1199 C 0.54137 0.76228 1.00685 0.0
N1200 N 0.46203 0.66496 0.98577 0.0
N1201 N 0.55552 0.78905 0.04603 0.0
H1202 H 0.58678 0.79306 0.98113 0.0
H1203 H 0.58856 0.82263 1.00756 0.0
H1204 H 0.54677 0.79366 0.06334 0.0
H1205 H 0.58942 0.8027 0.04205 0.0
H1206 H 0.43798 0.63857 0.9912 0.0
H1207 H 0.47423 0.65948 0.96889 0.0
H1208 H 0.40002 0.66233 0.01954 0.0
H1209 H 0.41316 0.67876 0.04785 0.0
C1210 C 0.2715 0.42008 0.02134 0.0
C1211 C 0.25982 0.46023 0.03552 0.0
C1212 C 0.27041 0.51308 1.0017 0.0
C1213 C 0.27256 0.47223 0.98712 0.0
N1214 N 0.26822 0.3858 0.98292 0.0
N1215 N 0.24295 0.54611 0.03786 0.0
C1216 C 0.2715 0.42535 0.99687 0.0
C1217 C 0.25828 0.50719 0.02544 0.0
N1218 N 0.28447 0.3773 0.03122 0.0
N1219 N 0.2813 0.55757 0.99301 0.0
H1220 H 0.23404 0.54522 0.05529 0.0
H1221 H 0.23526 0.57923 0.03023 0.0
H1222 H 0.29141 0.56317 0.97581 0.0
H1223 H 0.28545 0.58792 1.0034 0.0
H1224 H 0.29674 0.348 0.02166 0.0
H1225 H 0.28857 0.37292 0.04905 0.0
H1226 H 0.26222 0.35123 0.98932 0.0
H1227 H 0.26677 0.38783 0.96491 0.0
C1228 C 0.44295 0.28439 0.03153 0.0
C1229 C 0.4875 0.26833 0.04073 0.0
C1230 C 0.50866 0.23464 1.00277 0.0
C1231 C 0.46586 0.25444 0.99304 0.0
N1232 N 0.40051 0.31112 0.99736 0.0
N1233 N 0.56781 0.23924 0.03345 0.0
C1234 C 0.4354 0.28315 1.00719 0.0
C1235 C 0.52187 0.24673 0.02586 0.0
N1236 N 0.40673 0.29872 0.04598 0.0
N1237 N 0.53586 0.20254 0.99059 0.0
H1238 H 0.5794 0.2489 0.04997 0.0
H1239 H 0.59566 0.22833 0.02257 0.0
H1240 H 0.52817 0.19207 0.97376 0.0
H1241 H 0.5638 0.18285 0.99799 0.0
H1242 H 0.37205 0.30608 0.04013 0.0
H1243 H 0.40963 0.29827 0.06397 0.0
H1244 H 0.38067 0.33624 1.00674 0.0
H1245 H 0.3955 0.31367 0.97951 0.0
C1246 C 0.69843 0.54996 0.99718 0.0
C1247 C 0.70968 0.50388 0.98808 0.0
C1248 C 0.74089 0.47926 0.02593 0.0
C1249 C 0.72614 0.52414 0.0356 0.0
N1250 N 0.67641 0.59501 0.03134 0.0
N1251 N 0.72839 0.42061 0.99559 0.0
C1252 C 0.70051 0.55736 0.0215 0.0
C1253 C 0.72676 0.46726 1.00303 0.0
N1254 N 0.68815 0.58752 0.9827 0.0
N1255 N 0.77052 0.44887 0.03785 0.0
H1256 H 0.71689 0.41012 0.97916 0.0
H1257 H 0.73596 0.39179 1.00657 0.0
H1258 H 0.78313 0.45559 0.05441 0.0
H1259 H 0.78653 0.41881 0.0303 0.0
H1260 H 0.68457 0.62282 0.98853 0.0
H1261 H 0.68811 0.58457 0.96472 0.0
H1262 H 0.65378 0.61766 0.02194 0.0
H1263 H 0.6742 0.6 0.0492 0.0
loop_
_geom_bond_atom_site_label_1
_geom_bond_atom_site_label_2
_geom_bond_distance
_geom_bond_site_symmetry_2
_ccdc_geom_bond_type
Co0 O3 1.970 . S
Co0 N17 1.989 . S
Co0 O25 1.967 1_455 S
Co0 O32 1.920 . S
Co1 O4 1.966 . S
Co1 N10 2.022 . S
Co1 N18 1.993 . S
Co1 O26 1.941 1_455 S
C2 O3 1.258 . S
C2 O4 1.263 . S
O3 Co0 1.970 . S
O3 C2 1.258 . S
O4 Co1 1.966 . S
O4 C2 1.263 . S
C5 O6 1.235 . S
C5 O32 1.289 . S
O6 C5 1.235 . S
C7 C9 1.400 . S
C7 N10 1.351 . S
C7 C12 1.501 . S
C8 C9 1.387 . S
C8 N11 1.341 . S
C9 C7 1.400 . S
C9 C8 1.387 . S
N10 Co1 2.022 . S
N10 C7 1.351 . S
N10 N11 1.365 . S
N11 C8 1.341 . S
N11 N10 1.365 . S
N11 H31 0.862 1_455 S
C12 C7 1.501 . S
C12 H13 0.961 . S
C12 H14 0.961 . S
C12 H15 0.960 . S
H13 C12 0.961 . S
H14 C12 0.961 . S
H15 C12 0.960 . S
C16 N17 1.342 . S
C16 C20 1.401 . S
C16 C21 1.499 . S
N17 Co0 1.989 . S
N17 C16 1.342 . S
N17 N18 1.388 . S
N18 Co1 1.993 . S
N18 N17 1.388 . S
N18 C19 1.346 . S
C19 N18 1.346 . S
C19 C20 1.396 . S
C19 C29 1.510 . S
C20 C16 1.401 . S
C20 C19 1.396 . S
C21 C16 1.499 . S
C21 H22 0.959 . S
C21 H23 0.960 . S
C21 H24 0.961 1_455 S
H22 C21 0.959 . S
H23 C21 0.960 . S
H24 C21 0.961 1_655 S
O25 Co0 1.967 1_655 S
O25 C33 1.258 . S
O26 Co1 1.941 1_655 S
O26 C33 1.266 . S
H27 C29 0.959 . S
H28 C29 0.961 . S
C29 C19 1.510 . S
C29 H27 0.959 . S
C29 H28 0.961 . S
C29 H30 0.960 . S
H30 C29 0.960 . S
H31 N11 0.862 1_655 S
O32 Co0 1.920 . S
O32 C5 1.289 . S
C33 O25 1.258 . S
C33 O26 1.266 . S
Co34 O37 1.970 . S
Co34 N51 1.989 . S
Co34 O59 1.967 1_545 S
Co34 O66 1.920 . S
Co35 O38 1.966 . S
Co35 N44 2.022 . S
Co35 N52 1.993 . S
Co35 O60 1.941 1_545 S
C36 O37 1.258 . S
C36 O38 1.263 . S
O37 Co34 1.970 . S
O37 C36 1.258 . S
O38 Co35 1.966 . S
O38 C36 1.263 . S
C39 O40 1.235 . S
C39 O66 1.289 . S
O40 C39 1.235 . S
C41 C43 1.400 . S
C41 N44 1.351 . S
C41 C46 1.501 . S
C42 C43 1.387 . S
C42 N45 1.341 . S
C43 C41 1.400 . S
C43 C42 1.387 . S
N44 Co35 2.022 . S
N44 C41 1.351 . S
N44 N45 1.365 . S
N45 C42 1.341 . S
N45 N44 1.365 . S
N45 H65 0.862 1_545 S
C46 C41 1.501 . S
C46 H47 0.961 . S
C46 H48 0.961 . S
C46 H49 0.960 . S
H47 C46 0.961 . S
H48 C46 0.961 . S
H49 C46 0.960 . S
C50 N51 1.342 . S
C50 C54 1.401 . S
C50 C55 1.499 . S
N51 Co34 1.989 . S
N51 C50 1.342 . S
N51 N52 1.388 . S
N52 Co35 1.993 . S
N52 N51 1.388 . S
N52 C53 1.346 . S
C53 N52 1.346 . S
C53 C54 1.396 . S
C53 C63 1.510 . S
C54 C50 1.401 . S
C54 C53 1.396 . S
C55 C50 1.499 . S
C55 H56 0.959 . S
C55 H57 0.960 . S
C55 H58 0.961 1_545 S
H56 C55 0.959 . S
H57 C55 0.960 . S
H58 C55 0.961 1_565 S
O59 Co34 1.967 1_565 S
O59 C67 1.258 . S
O60 Co35 1.941 1_565 S
O60 C67 1.266 . S
H61 C63 0.959 . S
H62 C63 0.961 . S
C63 C53 1.510 . S
C63 H61 0.959 . S
C63 H62 0.961 . S
C63 H64 0.960 . S
H64 C63 0.960 . S
H65 N45 0.862 1_565 S
O66 Co34 1.920 . S
O66 C39 1.289 . S
C67 O59 1.258 . S
C67 O60 1.266 . S
Co68 O71 1.970 . S
Co68 N85 1.989 . S
Co68 O93 1.967 1_655 S
Co68 O100 1.920 . S
Co69 O72 1.966 . S
Co69 N78 2.022 . S
Co69 N86 1.993 . S
Co69 O94 1.941 1_655 S
C70 O71 1.258 . S
C70 O72 1.263 . S
O71 Co68 1.970 . S
O71 C70 1.258 . S
O72 Co69 1.966 . S
O72 C70 1.263 . S
C73 O74 1.235 . S
C73 O100 1.289 . S
O74 C73 1.235 . S
C75 C77 1.400 . S
C75 N78 1.351 . S
C75 C80 1.501 . S
C76 C77 1.387 . S
C76 N79 1.341 . S
C77 C75 1.400 . S
C77 C76 1.387 . S
N78 Co69 2.022 . S
N78 C75 1.351 . S
N78 N79 1.365 . S
N79 C76 1.341 . S
N79 N78 1.365 . S
N79 H99 0.862 1_655 S
C80 C75 1.501 . S
C80 H81 0.961 . S
C80 H82 0.961 . S
C80 H83 0.960 . S
H81 C80 0.961 . S
H82 C80 0.961 . S
H83 C80 0.960 . S
C84 N85 1.342 . S
C84 C88 1.401 . S
C84 C89 1.499 . S
N85 Co68 1.989 . S
N85 C84 1.342 . S
N85 N86 1.388 . S
N86 Co69 1.993 . S
N86 N85 1.388 . S
N86 C87 1.346 . S
C87 N86 1.346 . S
C87 C88 1.396 . S
C87 C97 1.510 . S
C88 C84 1.401 . S
C88 C87 1.396 . S
C89 C84 1.499 . S
C89 H90 0.959 . S
C89 H91 0.960 . S
C89 H92 0.961 1_655 S
H90 C89 0.959 . S
H91 C89 0.960 . S
H92 C89 0.961 1_455 S
O93 Co68 1.967 1_455 S
O93 C101 1.258 . S
O94 Co69 1.941 1_455 S
O94 C101 1.266 . S
H95 C97 0.959 . S
H96 C97 0.961 . S
C97 C87 1.510 . S
C97 H95 0.959 . S
C97 H96 0.961 . S
C97 H98 0.960 . S
H98 C97 0.960 . S
H99 N79 0.862 1_455 S
O100 Co68 1.920 . S
O100 C73 1.289 . S
C101 O93 1.258 . S
C101 O94 1.266 . S
Co102 O105 1.970 . S
Co102 N119 1.989 . S
Co102 O127 1.967 1_565 S
Co102 O134 1.920 . S
Co103 O106 1.966 . S
Co103 N112 2.022 . S
Co103 N120 1.993 . S
Co103 O128 1.941 1_565 S
C104 O105 1.258 . S
C104 O106 1.263 . S
O105 Co102 1.970 . S
O105 C104 1.258 . S
O106 Co103 1.966 . S
O106 C104 1.263 . S
C107 O108 1.235 . S
C107 O134 1.289 . S
O108 C107 1.235 . S
C109 C111 1.400 . S
C109 N112 1.351 . S
C109 C114 1.501 . S
C110 C111 1.387 . S
C110 N113 1.341 . S
C111 C109 1.400 . S
C111 C110 1.387 . S
N112 Co103 2.022 . S
N112 C109 1.351 . S
N112 N113 1.365 . S
N113 C110 1.341 . S
N113 N112 1.365 . S
N113 H133 0.862 1_565 S
C114 C109 1.501 . S
C114 H115 0.961 . S
C114 H116 0.961 . S
C114 H117 0.960 . S
H115 C114 0.961 . S
H116 C114 0.961 . S
H117 C114 0.960 . S
C118 N119 1.342 . S
C118 C122 1.401 . S
C118 C123 1.499 . S
N119 Co102 1.989 . S
N119 C118 1.342 . S
N119 N120 1.388 . S
N120 Co103 1.993 . S
N120 N119 1.388 . S
N120 C121 1.346 . S
C121 N120 1.346 . S
C121 C122 1.396 . S
C121 C131 1.510 . S
C122 C118 1.401 . S
C122 C121 1.396 . S
C123 C118 1.499 . S
C123 H124 0.959 . S
C123 H125 0.960 . S
C123 H126 0.961 1_565 S
H124 C123 0.959 . S
H125 C123 0.960 . S
H126 C123 0.961 1_545 S
O127 Co102 1.967 1_545 S
O127 C135 1.258 . S
O128 Co103 1.941 1_545 S
O128 C135 1.266 . S
H129 C131 0.959 . S
H130 C131 0.961 . S
C131 C121 1.510 . S
C131 H129 0.959 . S
C131 H130 0.961 . S
C131 H132 0.960 . S
H132 C131 0.960 . S
H133 N113 0.862 1_545 S
O134 Co102 1.920 . S
O134 C107 1.289 . S
C135 O127 1.258 . S
C135 O128 1.266 . S
Co136 O139 1.970 . S
Co136 N153 1.989 . S
Co136 O161 1.967 1_455 S
Co136 O168 1.920 . S
Co137 O140 1.966 . S
Co137 N146 2.022 . S
Co137 N154 1.993 . S
Co137 O162 1.941 1_455 S
C138 O139 1.258 . S
C138 O140 1.263 . S
O139 Co136 1.970 . S
O139 C138 1.258 . S
O140 Co137 1.966 . S
O140 C138 1.263 . S
C141 O142 1.235 . S
C141 O168 1.289 . S
O142 C141 1.235 . S
C143 C145 1.400 . S
C143 N146 1.351 . S
C143 C148 1.501 . S
C144 C145 1.387 . S
C144 N147 1.341 . S
C145 C143 1.400 . S
C145 C144 1.387 . S
N146 Co137 2.022 . S
N146 C143 1.351 . S
N146 N147 1.365 . S
N147 C144 1.341 . S
N147 N146 1.365 . S
N147 H167 0.862 1_455 S
C148 C143 1.501 . S
C148 H149 0.961 . S
C148 H150 0.961 . S
C148 H151 0.960 . S
H149 C148 0.961 . S
H150 C148 0.961 . S
H151 C148 0.960 . S
C152 N153 1.342 . S
C152 C156 1.401 . S
C152 C157 1.499 . S
N153 Co136 1.989 . S
N153 C152 1.342 . S
N153 N154 1.388 . S
N154 Co137 1.993 . S
N154 N153 1.388 . S
N154 C155 1.346 . S
C155 N154 1.346 . S
C155 C156 1.396 . S
C155 C165 1.510 . S
C156 C152 1.401 . S
C156 C155 1.396 . S
C157 C152 1.499 . S
C157 H158 0.959 . S
C157 H159 0.960 . S
C157 H160 0.961 1_455 S
H158 C157 0.959 . S
H159 C157 0.960 . S
H160 C157 0.961 1_655 S
O161 Co136 1.967 1_655 S
O161 C169 1.258 . S
O162 Co137 1.941 1_655 S
O162 C169 1.266 . S
H163 C165 0.959 . S
H164 C165 0.961 . S
C165 C155 1.510 . S
C165 H163 0.959 . S
C165 H164 0.961 . S
C165 H166 0.960 . S
H166 C165 0.960 . S
H167 N147 0.862 1_655 S
O168 Co136 1.920 . S
O168 C141 1.289 . S
C169 O161 1.258 . S
C169 O162 1.266 . S
Co170 O173 1.970 . S
Co170 N187 1.989 . S
Co170 O195 1.967 1_545 S
Co170 O202 1.920 . S
Co171 O174 1.966 . S
Co171 N180 2.022 . S
Co171 N188 1.993 . S
Co171 O196 1.941 1_545 S
C172 O173 1.258 . S
C172 O174 1.263 . S
O173 Co170 1.970 . S
O173 C172 1.258 . S
O174 Co171 1.966 . S
O174 C172 1.263 . S
C175 O176 1.235 . S
C175 O202 1.289 . S
O176 C175 1.235 . S
C177 C179 1.400 . S
C177 N180 1.351 . S
C177 C182 1.501 . S
C178 C179 1.387 . S
C178 N181 1.341 . S
C179 C177 1.400 . S
C179 C178 1.387 . S
N180 Co171 2.022 . S
N180 C177 1.351 . S
N180 N181 1.365 . S
N181 C178 1.341 . S
N181 N180 1.365 . S
N181 H201 0.862 1_545 S
C182 C177 1.501 . S
C182 H183 0.961 . S
C182 H184 0.961 . S
C182 H185 0.960 . S
H183 C182 0.961 . S
H184 C182 0.961 . S
H185 C182 0.960 . S
C186 N187 1.342 . S
C186 C190 1.401 . S
C186 C191 1.499 . S
N187 Co170 1.989 . S
N187 C186 1.342 . S
N187 N188 1.388 . S
N188 Co171 1.993 . S
N188 N187 1.388 . S
N188 C189 1.346 . S
C189 N188 1.346 . S
C189 C190 1.396 . S
C189 C199 1.510 . S
C190 C186 1.401 . S
C190 C189 1.396 . S
C191 C186 1.499 . S
C191 H192 0.959 . S
C191 H193 0.960 . S
C191 H194 0.961 1_545 S
H192 C191 0.959 . S
H193 C191 0.960 . S
H194 C191 0.961 1_565 S
O195 Co170 1.967 1_565 S
O195 C203 1.258 . S
O196 Co171 1.941 1_565 S
O196 C203 1.266 . S
H197 C199 0.959 . S
H198 C199 0.961 . S
C199 C189 1.510 . S
C199 H197 0.959 . S
C199 H198 0.961 . S
C199 H200 0.960 . S
H200 C199 0.960 . S
H201 N181 0.862 1_565 S
O202 Co170 1.920 . S
O202 C175 1.289 . S
C203 O195 1.258 . S
C203 O196 1.266 . S
Co204 O207 1.970 . S
Co204 N221 1.989 . S
Co204 O229 1.967 1_655 S
Co204 O236 1.920 . S
Co205 O208 1.966 . S
Co205 N214 2.022 . S
Co205 N222 1.993 . S
Co205 O230 1.941 1_655 S
C206 O207 1.258 . S
C206 O208 1.263 . S
O207 Co204 1.970 . S
O207 C206 1.258 . S
O208 Co205 1.966 . S
O208 C206 1.263 . S
C209 O210 1.235 . S
C209 O236 1.289 . S
O210 C209 1.235 . S
C211 C213 1.400 . S
C211 N214 1.351 . S
C211 C216 1.501 . S
C212 C213 1.387 . S
C212 N215 1.341 . S
C213 C211 1.400 . S
C213 C212 1.387 . S
N214 Co205 2.022 . S
N214 C211 1.351 . S
N214 N215 1.365 . S
N215 C212 1.341 . S
N215 N214 1.365 . S
N215 H235 0.862 1_655 S
C216 C211 1.501 . S
C216 H217 0.961 . S
C216 H218 0.961 . S
C216 H219 0.960 . S
H217 C216 0.961 . S
H218 C216 0.961 . S
H219 C216 0.960 . S
C220 N221 1.342 . S
C220 C224 1.401 . S
C220 C225 1.499 . S
N221 Co204 1.989 . S
N221 C220 1.342 . S
N221 N222 1.388 . S
N222 Co205 1.993 . S
N222 N221 1.388 . S
N222 C223 1.346 . S
C223 N222 1.346 . S
C223 C224 1.396 . S
C223 C233 1.510 . S
C224 C220 1.401 . S
C224 C223 1.396 . S
C225 C220 1.499 . S
C225 H226 0.959 . S
C225 H227 0.960 . S
C225 H228 0.961 1_655 S
H226 C225 0.959 . S
H227 C225 0.960 . S
H228 C225 0.961 1_455 S
O229 Co204 1.967 1_455 S
O229 C237 1.258 . S
O230 Co205 1.941 1_455 S
O230 C237 1.266 . S
H231 C233 0.959 . S
H232 C233 0.961 . S
C233 C223 1.510 . S
C233 H231 0.959 . S
C233 H232 0.961 . S
C233 H234 0.960 . S
H234 C233 0.960 . S
H235 N215 0.862 1_455 S
O236 Co204 1.920 . S
O236 C209 1.289 . S
C237 O229 1.258 . S
C237 O230 1.266 . S
Co238 O241 1.970 . S
Co238 N255 1.989 . S
Co238 O263 1.967 1_565 S
Co238 O270 1.920 . S
Co239 O242 1.966 . S
Co239 N248 2.022 . S
Co239 N256 1.993 . S
Co239 O264 1.941 1_565 S
C240 O241 1.258 . S
C240 O242 1.263 . S
O241 Co238 1.970 . S
O241 C240 1.258 . S
O242 Co239 1.966 . S
O242 C240 1.263 . S
C243 O244 1.235 . S
C243 O270 1.289 . S
O244 C243 1.235 . S
C245 C247 1.400 . S
C245 N248 1.351 . S
C245 C250 1.501 . S
C246 C247 1.387 . S
C246 N249 1.341 . S
C247 C245 1.400 . S
C247 C246 1.387 . S
N248 Co239 2.022 . S
N248 C245 1.351 . S
N248 N249 1.365 . S
N249 C246 1.341 . S
N249 N248 1.365 . S
N249 H269 0.862 1_565 S
C250 C245 1.501 . S
C250 H251 0.961 . S
C250 H252 0.961 . S
C250 H253 0.960 . S
H251 C250 0.961 . S
H252 C250 0.961 . S
H253 C250 0.960 . S
C254 N255 1.342 . S
C254 C258 1.401 . S
C254 C259 1.499 . S
N255 Co238 1.989 . S
N255 C254 1.342 . S
N255 N256 1.388 . S
N256 Co239 1.993 . S
N256 N255 1.388 . S
N256 C257 1.346 . S
C257 N256 1.346 . S
C257 C258 1.396 . S
C257 C267 1.510 . S
C258 C254 1.401 . S
C258 C257 1.396 . S
C259 C254 1.499 . S
C259 H260 0.959 . S
C259 H261 0.960 . S
C259 H262 0.961 1_565 S
H260 C259 0.959 . S
H261 C259 0.960 . S
H262 C259 0.961 1_545 S
O263 Co238 1.967 1_545 S
O263 C271 1.258 . S
O264 Co239 1.941 1_545 S
O264 C271 1.266 . S
H265 C267 0.959 . S
H266 C267 0.961 . S
C267 C257 1.510 . S
C267 H265 0.959 . S
C267 H266 0.961 . S
C267 H268 0.960 . S
H268 C267 0.960 . S
H269 N249 0.862 1_545 S
O270 Co238 1.920 . S
O270 C243 1.289 . S
C271 O263 1.258 . S
C271 O264 1.266 . S
Co272 O275 1.970 . S
Co272 N289 1.989 . S
Co272 O297 1.967 . S
Co272 O304 1.920 . S
Co273 O276 1.966 . S
Co273 N282 2.022 . S
Co273 N290 1.993 . S
Co273 O298 1.941 . S
C274 O275 1.258 . S
C274 O276 1.263 . S
O275 Co272 1.970 . S
O275 C274 1.258 . S
O276 Co273 1.966 . S
O276 C274 1.263 . S
C277 O278 1.235 . S
C277 O304 1.289 . S
O278 C277 1.235 . S
C279 C281 1.400 . S
C279 N282 1.351 . S
C279 C284 1.501 . S
C280 C281 1.387 . S
C280 N283 1.341 . S
C281 C279 1.400 . S
C281 C280 1.387 . S
N282 Co273 2.022 . S
N282 C279 1.351 . S
N282 N283 1.365 . S
N283 C280 1.341 . S
N283 N282 1.365 . S
N283 H303 0.862 . S
C284 C279 1.501 . S
C284 H285 0.961 . S
C284 H286 0.961 . S
C284 H287 0.960 . S
H285 C284 0.961 . S
H286 C284 0.961 . S
H287 C284 0.960 . S
C288 N289 1.342 . S
C288 C292 1.401 . S
C288 C293 1.499 . S
N289 Co272 1.989 . S
N289 C288 1.342 . S
N289 N290 1.388 . S
N290 Co273 1.993 . S
N290 N289 1.388 . S
N290 C291 1.346 . S
C291 N290 1.346 . S
C291 C292 1.396 . S
C291 C301 1.510 . S
C292 C288 1.401 . S
C292 C291 1.396 . S
C293 C288 1.499 . S
C293 H294 0.959 . S
C293 H295 0.960 . S
C293 H296 0.961 . S
H294 C293 0.959 . S
H295 C293 0.960 . S
H296 C293 0.961 . S
O297 Co272 1.967 . S
O297 C305 1.258 . S
O298 Co273 1.941 . S
O298 C305 1.266 . S
H299 C301 0.959 . S
H300 C301 0.961 . S
C301 C291 1.510 . S
C301 H299 0.959 . S
C301 H300 0.961 . S
C301 H302 0.960 . S
H302 C301 0.960 . S
H303 N283 0.862 . S
O304 Co272 1.920 . S
O304 C277 1.289 . S
C305 O297 1.258 . S
C305 O298 1.266 . S
Co306 O309 1.970 . S
Co306 N323 1.989 . S
Co306 O331 1.967 . S
Co306 O338 1.920 . S
Co307 O310 1.966 . S
Co307 N316 2.022 . S
Co307 N324 1.993 . S
Co307 O332 1.941 . S
C308 O309 1.258 . S
C308 O310 1.263 . S
O309 Co306 1.970 . S
O309 C308 1.258 . S
O310 Co307 1.966 . S
O310 C308 1.263 . S
C311 O312 1.235 . S
C311 O338 1.289 . S
O312 C311 1.235 . S
C313 C315 1.400 . S
C313 N316 1.351 . S
C313 C318 1.501 . S
C314 C315 1.387 . S
C314 N317 1.341 . S
C315 C313 1.400 . S
C315 C314 1.387 . S
N316 Co307 2.022 . S
N316 C313 1.351 . S
N316 N317 1.365 . S
N317 C314 1.341 . S
N317 N316 1.365 . S
N317 H337 0.862 . S
C318 C313 1.501 . S
C318 H319 0.961 . S
C318 H320 0.961 . S
C318 H321 0.960 . S
H319 C318 0.961 . S
H320 C318 0.961 . S
H321 C318 0.960 . S
C322 N323 1.342 . S
C322 C326 1.401 . S
C322 C327 1.499 . S
N323 Co306 1.989 . S
N323 C322 1.342 . S
N323 N324 1.388 . S
N324 Co307 1.993 . S
N324 N323 1.388 . S
N324 C325 1.346 . S
C325 N324 1.346 . S
C325 C326 1.396 . S
C325 C335 1.510 . S
C326 C322 1.401 . S
C326 C325 1.396 . S
C327 C322 1.499 . S
C327 H328 0.959 . S
C327 H329 0.960 . S
C327 H330 0.961 . S
H328 C327 0.959 . S
H329 C327 0.960 . S
H330 C327 0.961 . S
O331 Co306 1.967 . S
O331 C339 1.258 . S
O332 Co307 1.941 . S
O332 C339 1.266 . S
H333 C335 0.959 . S
H334 C335 0.961 . S
C335 C325 1.510 . S
C335 H333 0.959 . S
C335 H334 0.961 . S
C335 H336 0.960 . S
H336 C335 0.960 . S
H337 N317 0.862 . S
O338 Co306 1.920 . S
O338 C311 1.289 . S
C339 O331 1.258 . S
C339 O332 1.266 . S
Co340 O343 1.970 . S
Co340 N357 1.989 . S
Co340 O365 1.967 . S
Co340 O372 1.920 . S
Co341 O344 1.966 . S
Co341 N350 2.022 . S
Co341 N358 1.993 . S
Co341 O366 1.941 . S
C342 O343 1.258 . S
C342 O344 1.263 . S
O343 Co340 1.970 . S
O343 C342 1.258 . S
O344 Co341 1.966 . S
O344 C342 1.263 . S
C345 O346 1.235 . S
C345 O372 1.289 . S
O346 C345 1.235 . S
C347 C349 1.400 . S
C347 N350 1.351 . S
C347 C352 1.501 . S
C348 C349 1.387 . S
C348 N351 1.341 . S
C349 C347 1.400 . S
C349 C348 1.387 . S
N350 Co341 2.022 . S
N350 C347 1.351 . S
N350 N351 1.365 . S
N351 C348 1.341 . S
N351 N350 1.365 . S
N351 H371 0.862 . S
C352 C347 1.501 . S
C352 H353 0.961 . S
C352 H354 0.961 . S
C352 H355 0.960 . S
H353 C352 0.961 . S
H354 C352 0.961 . S
H355 C352 0.960 . S
C356 N357 1.342 . S
C356 C360 1.401 . S
C356 C361 1.499 . S
N357 Co340 1.989 . S
N357 C356 1.342 . S
N357 N358 1.388 . S
N358 Co341 1.993 . S
N358 N357 1.388 . S
N358 C359 1.346 . S
C359 N358 1.346 . S
C359 C360 1.396 . S
C359 C369 1.510 . S
C360 C356 1.401 . S
C360 C359 1.396 . S
C361 C356 1.499 . S
C361 H362 0.959 . S
C361 H363 0.960 . S
C361 H364 0.961 . S
H362 C361 0.959 . S
H363 C361 0.960 . S
H364 C361 0.961 . S
O365 Co340 1.967 . S
O365 C373 1.258 . S
O366 Co341 1.941 . S
O366 C373 1.266 . S
H367 C369 0.959 . S
H368 C369 0.961 . S
C369 C359 1.510 . S
C369 H367 0.959 . S
C369 H368 0.961 . S
C369 H370 0.960 . S
H370 C369 0.960 . S
H371 N351 0.862 . S
O372 Co340 1.920 . S
O372 C345 1.289 . S
C373 O365 1.258 . S
C373 O366 1.266 . S
Co374 O377 1.970 . S
Co374 N391 1.989 . S
Co374 O399 1.967 . S
Co374 O406 1.920 . S
Co375 O378 1.966 . S
Co375 N384 2.022 . S
Co375 N392 1.993 . S
Co375 O400 1.941 . S
C376 O377 1.258 . S
C376 O378 1.263 . S
O377 Co374 1.970 . S
O377 C376 1.258 . S
O378 Co375 1.966 . S
O378 C376 1.263 . S
C379 O380 1.235 . S
C379 O406 1.289 . S
O380 C379 1.235 . S
C381 C383 1.400 . S
C381 N384 1.351 . S
C381 C386 1.501 . S
C382 C383 1.387 . S
C382 N385 1.341 . S
C383 C381 1.400 . S
C383 C382 1.387 . S
N384 Co375 2.022 . S
N384 C381 1.351 . S
N384 N385 1.365 . S
N385 C382 1.341 . S
N385 N384 1.365 . S
N385 H405 0.862 . S
C386 C381 1.501 . S
C386 H387 0.961 . S
C386 H388 0.961 . S
C386 H389 0.960 . S
H387 C386 0.961 . S
H388 C386 0.961 . S
H389 C386 0.960 . S
C390 N391 1.342 . S
C390 C394 1.401 . S
C390 C395 1.499 . S
N391 Co374 1.989 . S
N391 C390 1.342 . S
N391 N392 1.388 . S
N392 Co375 1.993 . S
N392 N391 1.388 . S
N392 C393 1.346 . S
C393 N392 1.346 . S
C393 C394 1.396 . S
C393 C403 1.510 . S
C394 C390 1.401 . S
C394 C393 1.396 . S
C395 C390 1.499 . S
C395 H396 0.959 . S
C395 H397 0.960 . S
C395 H398 0.961 . S
H396 C395 0.959 . S
H397 C395 0.960 . S
H398 C395 0.961 . S
O399 Co374 1.967 . S
O399 C407 1.258 . S
O400 Co375 1.941 . S
O400 C407 1.266 . S
H401 C403 0.959 . S
H402 C403 0.961 . S
C403 C393 1.510 . S
C403 H401 0.959 . S
C403 H402 0.961 . S
C403 H404 0.960 . S
H404 C403 0.960 . S
H405 N385 0.862 . S
O406 Co374 1.920 . S
O406 C379 1.289 . S
C407 O399 1.258 . S
C407 O400 1.266 . S
Co408 O411 1.970 . S
Co408 N425 1.989 . S
Co408 O433 1.967 . S
Co408 O440 1.920 . S
Co409 O412 1.966 . S
Co409 N418 2.022 . S
Co409 N426 1.993 . S
Co409 O434 1.941 . S
C410 O411 1.258 . S
C410 O412 1.263 . S
O411 Co408 1.970 . S
O411 C410 1.258 . S
O412 Co409 1.966 . S
O412 C410 1.263 . S
C413 O414 1.235 . S
C413 O440 1.289 . S
O414 C413 1.235 . S
C415 C417 1.400 . S
C415 N418 1.351 . S
C415 C420 1.501 . S
C416 C417 1.387 . S
C416 N419 1.341 . S
C417 C415 1.400 . S
C417 C416 1.387 . S
N418 Co409 2.022 . S
N418 C415 1.351 . S
N418 N419 1.365 . S
N419 C416 1.341 . S
N419 N418 1.365 . S
N419 H439 0.862 . S
C420 C415 1.501 . S
C420 H421 0.961 . S
C420 H422 0.961 . S
C420 H423 0.960 . S
H421 C420 0.961 . S
H422 C420 0.961 . S
H423 C420 0.960 . S
C424 N425 1.342 . S
C424 C428 1.401 . S
C424 C429 1.499 . S
N425 Co408 1.989 . S
N425 C424 1.342 . S
N425 N426 1.388 . S
N426 Co409 1.993 . S
N426 N425 1.388 . S
N426 C427 1.346 . S
C427 N426 1.346 . S
C427 C428 1.396 . S
C427 C437 1.510 . S
C428 C424 1.401 . S
C428 C427 1.396 . S
C429 C424 1.499 . S
C429 H430 0.959 . S
C429 H431 0.960 . S
C429 H432 0.961 . S
H430 C429 0.959 . S
H431 C429 0.960 . S
H432 C429 0.961 . S
O433 Co408 1.967 . S
O433 C441 1.258 . S
O434 Co409 1.941 . S
O434 C441 1.266 . S
H435 C437 0.959 . S
H436 C437 0.961 . S
C437 C427 1.510 . S
C437 H435 0.959 . S
C437 H436 0.961 . S
C437 H438 0.960 . S
H438 C437 0.960 . S
H439 N419 0.862 . S
O440 Co408 1.920 . S
O440 C413 1.289 . S
C441 O433 1.258 . S
C441 O434 1.266 . S
Co442 O445 1.970 . S
Co442 N459 1.989 . S
Co442 O467 1.967 . S
Co442 O474 1.920 . S
Co443 O446 1.966 . S
Co443 N452 2.022 . S
Co443 N460 1.993 . S
Co443 O468 1.941 . S
C444 O445 1.258 . S
C444 O446 1.263 . S
O445 Co442 1.970 . S
O445 C444 1.258 . S
O446 Co443 1.966 . S
O446 C444 1.263 . S
C447 O448 1.235 . S
C447 O474 1.289 . S
O448 C447 1.235 . S
C449 C451 1.400 . S
C449 N452 1.351 . S
C449 C454 1.501 . S
C450 C451 1.387 . S
C450 N453 1.341 . S
C451 C449 1.400 . S
C451 C450 1.387 . S
N452 Co443 2.022 . S
N452 C449 1.351 . S
N452 N453 1.365 . S
N453 C450 1.341 . S
N453 N452 1.365 . S
N453 H473 0.862 . S
C454 C449 1.501 . S
C454 H455 0.961 . S
C454 H456 0.961 . S
C454 H457 0.960 . S
H455 C454 0.961 . S
H456 C454 0.961 . S
H457 C454 0.960 . S
C458 N459 1.342 . S
C458 C462 1.401 . S
C458 C463 1.499 . S
N459 Co442 1.989 . S
N459 C458 1.342 . S
N459 N460 1.388 . S
N460 Co443 1.993 . S
N460 N459 1.388 . S
N460 C461 1.346 . S
C461 N460 1.346 . S
C461 C462 1.396 . S
C461 C471 1.510 . S
C462 C458 1.401 . S
C462 C461 1.396 . S
C463 C458 1.499 . S
C463 H464 0.959 . S
C463 H465 0.960 . S
C463 H466 0.961 . S
H464 C463 0.959 . S
H465 C463 0.960 . S
H466 C463 0.961 . S
O467 Co442 1.967 . S
O467 C475 1.258 . S
O468 Co443 1.941 . S
O468 C475 1.266 . S
H469 C471 0.959 . S
H470 C471 0.961 . S
C471 C461 1.510 . S
C471 H469 0.959 . S
C471 H470 0.961 . S
C471 H472 0.960 . S
H472 C471 0.960 . S
H473 N453 0.862 . S
O474 Co442 1.920 . S
O474 C447 1.289 . S
C475 O467 1.258 . S
C475 O468 1.266 . S
Co476 O479 1.970 . S
Co476 N493 1.989 . S
Co476 O501 1.967 . S
Co476 O508 1.920 . S
Co477 O480 1.966 . S
Co477 N486 2.022 . S
Co477 N494 1.993 . S
Co477 O502 1.941 . S
C478 O479 1.258 . S
C478 O480 1.263 . S
O479 Co476 1.970 . S
O479 C478 1.258 . S
O480 Co477 1.966 . S
O480 C478 1.263 . S
C481 O482 1.235 . S
C481 O508 1.289 . S
O482 C481 1.235 . S
C483 C485 1.400 . S
C483 N486 1.351 . S
C483 C488 1.501 . S
C484 C485 1.387 . S
C484 N487 1.341 . S
C485 C483 1.400 . S
C485 C484 1.387 . S
N486 Co477 2.022 . S
N486 C483 1.351 . S
N486 N487 1.365 . S
N487 C484 1.341 . S
N487 N486 1.365 . S
N487 H507 0.862 . S
C488 C483 1.501 . S
C488 H489 0.961 . S
C488 H490 0.961 . S
C488 H491 0.960 . S
H489 C488 0.961 . S
H490 C488 0.961 . S
H491 C488 0.960 . S
C492 N493 1.342 . S
C492 C496 1.401 . S
C492 C497 1.499 . S
N493 Co476 1.989 . S
N493 C492 1.342 . S
N493 N494 1.388 . S
N494 Co477 1.993 . S
N494 N493 1.388 . S
N494 C495 1.346 . S
C495 N494 1.346 . S
C495 C496 1.396 . S
C495 C505 1.510 . S
C496 C492 1.401 . S
C496 C495 1.396 . S
C497 C492 1.499 . S
C497 H498 0.959 . S
C497 H499 0.960 . S
C497 H500 0.961 . S
H498 C497 0.959 . S
H499 C497 0.960 . S
H500 C497 0.961 . S
O501 Co476 1.967 . S
O501 C509 1.258 . S
O502 Co477 1.941 . S
O502 C509 1.266 . S
H503 C505 0.959 . S
H504 C505 0.961 . S
C505 C495 1.510 . S
C505 H503 0.959 . S
C505 H504 0.961 . S
C505 H506 0.960 . S
H506 C505 0.960 . S
H507 N487 0.862 . S
O508 Co476 1.920 . S
O508 C481 1.289 . S
C509 O501 1.258 . S
C509 O502 1.266 . S
Co510 O513 1.970 . S
Co510 N527 1.989 . S
Co510 O535 1.967 . S
Co510 O542 1.920 . S
Co511 O514 1.966 . S
Co511 N520 2.022 . S
Co511 N528 1.993 . S
Co511 O536 1.941 . S
C512 O513 1.258 . S
C512 O514 1.263 . S
O513 Co510 1.970 . S
O513 C512 1.258 . S
O514 Co511 1.966 . S
O514 C512 1.263 . S
C515 O516 1.235 . S
C515 O542 1.289 . S
O516 C515 1.235 . S
C517 C519 1.400 . S
C517 N520 1.351 . S
C517 C522 1.501 . S
C518 C519 1.387 . S
C518 N521 1.341 . S
C519 C517 1.400 . S
C519 C518 1.387 . S
N520 Co511 2.022 . S
N520 C517 1.351 . S
N520 N521 1.365 . S
N521 C518 1.341 . S
N521 N520 1.365 . S
N521 H541 0.862 . S
C522 C517 1.501 . S
C522 H523 0.961 . S
C522 H524 0.961 . S
C522 H525 0.960 . S
H523 C522 0.961 . S
H524 C522 0.961 . S
H525 C522 0.960 . S
C526 N527 1.342 . S
C526 C530 1.401 . S
C526 C531 1.499 . S
N527 Co510 1.989 . S
N527 C526 1.342 . S
N527 N528 1.388 . S
N528 Co511 1.993 . S
N528 N527 1.388 . S
N528 C529 1.346 . S
C529 N528 1.346 . S
C529 C530 1.396 . S
C529 C539 1.510 . S
C530 C526 1.401 . S
C530 C529 1.396 . S
C531 C526 1.499 . S
C531 H532 0.959 . S
C531 H533 0.960 . S
C531 H534 0.961 . S
H532 C531 0.959 . S
H533 C531 0.960 . S
H534 C531 0.961 . S
O535 Co510 1.967 . S
O535 C543 1.258 . S
O536 Co511 1.941 . S
O536 C543 1.266 . S
H537 C539 0.959 . S
H538 C539 0.961 . S
C539 C529 1.510 . S
C539 H537 0.959 . S
C539 H538 0.961 . S
C539 H540 0.960 . S
H540 C539 0.960 . S
H541 N521 0.862 . S
O542 Co510 1.920 . S
O542 C515 1.289 . S
C543 O535 1.258 . S
C543 O536 1.266 . S
C544 C545 1.363 1_455 S
C544 C550 1.379 . S
C544 N552 1.356 . S
C545 C544 1.363 1_655 S
C545 C551 1.363 . S
C546 C547 1.363 1_655 S
C546 C551 1.379 . S
C546 N553 1.356 . S
C547 C546 1.363 1_455 S
C547 C550 1.363 . S
N548 C550 1.356 . S
N548 H560 0.984 . S
N548 H561 0.985 . S
N549 C551 1.356 . S
N549 H554 0.984 . S
N549 H555 0.985 . S
C550 C544 1.379 . S
C550 C547 1.363 . S
C550 N548 1.356 . S
C551 C545 1.363 . S
C551 C546 1.379 . S
C551 N549 1.356 . S
N552 C544 1.356 . S
N552 H558 0.984 . S
N552 H559 0.984 . S
N553 C546 1.356 . S
N553 H556 0.984 . S
N553 H557 0.985 . S
H554 N549 0.984 . S
H555 N549 0.985 . S
H556 N553 0.984 . S
H557 N553 0.985 . S
H558 N552 0.984 . S
H559 N552 0.984 . S
H560 N548 0.984 . S
H561 N548 0.985 . S
C562 C563 1.363 . S
C562 C568 1.379 . S
C562 N570 1.356 . S
C563 C562 1.363 . S
C563 C569 1.363 1_545 S
C564 C565 1.363 . S
C564 C569 1.379 . S
C564 N571 1.356 . S
C565 C564 1.363 . S
C565 C568 1.363 1_565 S
N566 C568 1.356 . S
N566 H578 0.984 . S
N566 H579 0.985 . S
N567 C569 1.356 . S
N567 H572 0.984 . S
N567 H573 0.985 . S
C568 C562 1.379 . S
C568 C565 1.363 1_545 S
C568 N566 1.356 . S
C569 C563 1.363 1_565 S
C569 C564 1.379 . S
C569 N567 1.356 . S
N570 C562 1.356 . S
N570 H576 0.984 . S
N570 H577 0.984 . S
N571 C564 1.356 . S
N571 H574 0.984 . S
N571 H575 0.985 . S
H572 N567 0.984 . S
H573 N567 0.985 . S
H574 N571 0.984 . S
H575 N571 0.985 . S
H576 N570 0.984 . S
H577 N570 0.984 . S
H578 N566 0.984 . S
H579 N566 0.985 . S
C580 C581 1.363 . S
C580 C586 1.379 . S
C580 N588 1.356 . S
C581 C580 1.363 . S
C581 C587 1.363 1_655 S
C582 C583 1.363 . S
C582 C587 1.379 . S
C582 N589 1.356 . S
C583 C582 1.363 . S
C583 C586 1.363 1_455 S
N584 C586 1.356 . S
N584 H596 0.984 . S
N584 H597 0.985 . S
N585 C587 1.356 . S
N585 H590 0.984 . S
N585 H591 0.985 . S
C586 C580 1.379 . S
C586 C583 1.363 1_655 S
C586 N584 1.356 . S
C587 C581 1.363 1_455 S
C587 C582 1.379 . S
C587 N585 1.356 . S
N588 C580 1.356 . S
N588 H594 0.984 . S
N588 H595 0.984 . S
N589 C582 1.356 . S
N589 H592 0.984 . S
N589 H593 0.985 . S
H590 N585 0.984 . S
H591 N585 0.985 . S
H592 N589 0.984 . S
H593 N589 0.985 . S
H594 N588 0.984 . S
H595 N588 0.984 . S
H596 N584 0.984 . S
H597 N584 0.985 . S
C598 C599 1.363 1_545 S
C598 C604 1.379 . S
C598 N606 1.356 . S
C599 C598 1.363 1_565 S
C599 C605 1.363 . S
C600 C601 1.363 1_565 S
C600 C605 1.379 . S
C600 N607 1.356 . S
C601 C600 1.363 1_545 S
C601 C604 1.363 . S
N602 C604 1.356 . S
N602 H614 0.984 . S
N602 H615 0.985 . S
N603 C605 1.356 . S
N603 H608 0.984 . S
N603 H609 0.985 . S
C604 C598 1.379 . S
C604 C601 1.363 . S
C604 N602 1.356 . S
C605 C599 1.363 . S
C605 C600 1.379 . S
C605 N603 1.356 . S
N606 C598 1.356 . S
N606 H612 0.984 . S
N606 H613 0.984 . S
N607 C600 1.356 . S
N607 H610 0.984 . S
N607 H611 0.985 . S
H608 N603 0.984 . S
H609 N603 0.985 . S
H610 N607 0.984 . S
H611 N607 0.985 . S
H612 N606 0.984 . S
H613 N606 0.984 . S
H614 N602 0.984 . S
H615 N602 0.985 . S
C616 C617 1.363 . S
C616 C622 1.379 1_565 S
C616 N624 1.356 . S
C617 C616 1.363 . S
C617 C623 1.363 . S
C618 C619 1.363 . S
C618 C623 1.379 1_545 S
C618 N625 1.356 . S
C619 C618 1.363 . S
C619 C622 1.363 . S
N620 C622 1.356 . S
N620 H632 0.984 . S
N620 H633 0.985 . S
N621 C623 1.356 . S
N621 H626 0.984 . S
N621 H627 0.985 . S
C622 C616 1.379 1_545 S
C622 C619 1.363 . S
C622 N620 1.356 . S
C623 C617 1.363 . S
C623 C618 1.379 1_565 S
C623 N621 1.356 . S
N624 C616 1.356 . S
N624 H630 0.984 . S
N624 H631 0.984 . S
N625 C618 1.356 . S
N625 H628 0.984 . S
N625 H629 0.985 . S
H626 N621 0.984 . S
H627 N621 0.985 . S
H628 N625 0.984 . S
H629 N625 0.985 . S
H630 N624 0.984 . S
H631 N624 0.984 . S
H632 N620 0.984 . S
H633 N620 0.985 . S
C634 C635 1.363 . S
C634 C640 1.379 1_655 S
C634 N642 1.356 . S
C635 C634 1.363 . S
C635 C641 1.363 . S
C636 C637 1.363 . S
C636 C641 1.379 1_455 S
C636 N643 1.356 . S
C637 C636 1.363 . S
C637 C640 1.363 . S
N638 C640 1.356 . S
N638 H650 0.984 . S
N638 H651 0.985 . S
N639 C641 1.356 . S
N639 H644 0.984 . S
N639 H645 0.985 . S
C640 C634 1.379 1_455 S
C640 C637 1.363 . S
C640 N638 1.356 . S
C641 C635 1.363 . S
C641 C636 1.379 1_655 S
C641 N639 1.356 . S
N642 C634 1.356 . S
N642 H648 0.984 . S
N642 H649 0.984 . S
N643 C636 1.356 . S
N643 H646 0.984 . S
N643 H647 0.985 . S
H644 N639 0.984 . S
H645 N639 0.985 . S
H646 N643 0.984 . S
H647 N643 0.985 . S
H648 N642 0.984 . S
H649 N642 0.984 . S
H650 N638 0.984 . S
H651 N638 0.985 . S
C652 C653 1.363 . S
C652 C658 1.379 1_565 S
C652 N660 1.356 . S
C653 C652 1.363 . S
C653 C659 1.363 . S
C654 C655 1.363 . S
C654 C659 1.379 1_545 S
C654 N661 1.356 . S
C655 C654 1.363 . S
C655 C658 1.363 . S
N656 C658 1.356 . S
N656 H668 0.984 . S
N656 H669 0.985 . S
N657 C659 1.356 . S
N657 H662 0.984 . S
N657 H663 0.985 . S
C658 C652 1.379 1_545 S
C658 C655 1.363 . S
C658 N656 1.356 . S
C659 C653 1.363 . S
C659 C654 1.379 1_565 S
C659 N657 1.356 . S
N660 C652 1.356 . S
N660 H666 0.984 . S
N660 H667 0.984 . S
N661 C654 1.356 . S
N661 H664 0.984 . S
N661 H665 0.985 . S
H662 N657 0.984 . S
H663 N657 0.985 . S
H664 N661 0.984 . S
H665 N661 0.985 . S
H666 N660 0.984 . S
H667 N660 0.984 . S
H668 N656 0.984 . S
H669 N656 0.985 . S
C670 C671 1.363 . S
C670 C676 1.379 1_655 S
C670 N678 1.356 . S
C671 C670 1.363 . S
C671 C677 1.363 . S
C672 C673 1.363 . S
C672 C677 1.379 1_455 S
C672 N679 1.356 . S
C673 C672 1.363 . S
C673 C676 1.363 . S
N674 C676 1.356 . S
N674 H686 0.984 . S
N674 H687 0.985 . S
N675 C677 1.356 . S
N675 H680 0.984 . S
N675 H681 0.985 . S
C676 C670 1.379 1_455 S
C676 C673 1.363 . S
C676 N674 1.356 . S
C677 C671 1.363 . S
C677 C672 1.379 1_655 S
C677 N675 1.356 . S
N678 C670 1.356 . S
N678 H684 0.984 . S
N678 H685 0.984 . S
N679 C672 1.356 . S
N679 H682 0.984 . S
N679 H683 0.985 . S
H680 N675 0.984 . S
H681 N675 0.985 . S
H682 N679 0.984 . S
H683 N679 0.985 . S
H684 N678 0.984 . S
H685 N678 0.984 . S
H686 N674 0.984 . S
H687 N674 0.985 . S
C688 C689 1.363 . S
C688 C694 1.379 . S
C688 N696 1.356 . S
C689 C688 1.363 . S
C689 C695 1.363 . S
C690 C691 1.363 . S
C690 C695 1.379 . S
C690 N697 1.356 . S
C691 C690 1.363 . S
C691 C694 1.363 . S
N692 C694 1.356 . S
N692 H704 0.984 . S
N692 H705 0.985 . S
N693 C695 1.356 . S
N693 H698 0.984 . S
N693 H699 0.985 . S
C694 C688 1.379 . S
C694 C691 1.363 . S
C694 N692 1.356 . S
C695 C689 1.363 . S
C695 C690 1.379 . S
C695 N693 1.356 . S
N696 C688 1.356 . S
N696 H702 0.984 . S
N696 H703 0.984 . S
N697 C690 1.356 . S
N697 H700 0.984 . S
N697 H701 0.985 . S
H698 N693 0.984 . S
H699 N693 0.985 . S
H700 N697 0.984 . S
H701 N697 0.985 . S
H702 N696 0.984 . S
H703 N696 0.984 . S
H704 N692 0.984 . S
H705 N692 0.985 . S
C706 C707 1.363 . S
C706 C712 1.379 . S
C706 N714 1.356 . S
C707 C706 1.363 . S
C707 C713 1.363 . S
C708 C709 1.363 . S
C708 C713 1.379 . S
C708 N715 1.356 . S
C709 C708 1.363 . S
C709 C712 1.363 . S
N710 C712 1.356 . S
N710 H722 0.984 . S
N710 H723 0.985 . S
N711 C713 1.356 . S
N711 H716 0.984 . S
N711 H717 0.985 . S
C712 C706 1.379 . S
C712 C709 1.363 . S
C712 N710 1.356 . S
C713 C707 1.363 . S
C713 C708 1.379 . S
C713 N711 1.356 . S
N714 C706 1.356 . S
N714 H720 0.984 . S
N714 H721 0.984 . S
N715 C708 1.356 . S
N715 H718 0.984 . S
N715 H719 0.985 . S
H716 N711 0.984 . S
H717 N711 0.985 . S
H718 N715 0.984 . S
H719 N715 0.985 . S
H720 N714 0.984 . S
H721 N714 0.984 . S
H722 N710 0.984 . S
H723 N710 0.985 . S
C724 C725 1.363 . S
C724 C730 1.379 . S
C724 N732 1.356 . S
C725 C724 1.363 . S
C725 C731 1.363 . S
C726 C727 1.363 . S
C726 C731 1.379 . S
C726 N733 1.356 . S
C727 C726 1.363 . S
C727 C730 1.363 . S
N728 C730 1.356 . S
N728 H740 0.984 . S
N728 H741 0.985 . S
N729 C731 1.356 . S
N729 H734 0.984 . S
N729 H735 0.985 . S
C730 C724 1.379 . S
C730 C727 1.363 . S
C730 N728 1.356 . S
C731 C725 1.363 . S
C731 C726 1.379 . S
C731 N729 1.356 . S
N732 C724 1.356 . S
N732 H738 0.984 . S
N732 H739 0.984 . S
N733 C726 1.356 . S
N733 H736 0.984 . S
N733 H737 0.985 . S
H734 N729 0.984 . S
H735 N729 0.985 . S
H736 N733 0.984 . S
H737 N733 0.985 . S
H738 N732 0.984 . S
H739 N732 0.984 . S
H740 N728 0.984 . S
H741 N728 0.985 . S
C742 C743 1.363 . S
C742 C748 1.379 . S
C742 N750 1.356 . S
C743 C742 1.363 . S
C743 C749 1.363 . S
C744 C745 1.363 . S
C744 C749 1.379 . S
C744 N751 1.356 . S
C745 C744 1.363 . S
C745 C748 1.363 . S
N746 C748 1.356 . S
N746 H758 0.984 . S
N746 H759 0.985 . S
N747 C749 1.356 . S
N747 H752 0.984 . S
N747 H753 0.985 . S
C748 C742 1.379 . S
C748 C745 1.363 . S
C748 N746 1.356 . S
C749 C743 1.363 . S
C749 C744 1.379 . S
C749 N747 1.356 . S
N750 C742 1.356 . S
N750 H756 0.984 . S
N750 H757 0.984 . S
N751 C744 1.356 . S
N751 H754 0.984 . S
N751 H755 0.985 . S
H752 N747 0.984 . S
H753 N747 0.985 . S
H754 N751 0.984 . S
H755 N751 0.985 . S
H756 N750 0.984 . S
H757 N750 0.984 . S
H758 N746 0.984 . S
H759 N746 0.985 . S
C760 C761 1.363 . S
C760 C766 1.379 . S
C760 N768 1.356 . S
C761 C760 1.363 . S
C761 C767 1.363 . S
C762 C763 1.363 . S
C762 C767 1.379 . S
C762 N769 1.356 . S
C763 C762 1.363 . S
C763 C766 1.363 . S
N764 C766 1.356 . S
N764 H776 0.984 . S
N764 H777 0.985 . S
N765 C767 1.356 . S
N765 H770 0.984 . S
N765 H771 0.985 . S
C766 C760 1.379 . S
C766 C763 1.363 . S
C766 N764 1.356 . S
C767 C761 1.363 . S
C767 C762 1.379 . S
C767 N765 1.356 . S
N768 C760 1.356 . S
N768 H774 0.984 . S
N768 H775 0.984 . S
N769 C762 1.356 . S
N769 H772 0.984 . S
N769 H773 0.985 . S
H770 N765 0.984 . S
H771 N765 0.985 . S
H772 N769 0.984 . S
H773 N769 0.985 . S
H774 N768 0.984 . S
H775 N768 0.984 . S
H776 N764 0.984 . S
H777 N764 0.985 . S
C778 C779 1.363 . S
C778 C784 1.379 . S
C778 N786 1.356 . S
C779 C778 1.363 . S
C779 C785 1.363 . S
C780 C781 1.363 . S
C780 C785 1.379 . S
C780 N787 1.356 . S
C781 C780 1.363 . S
C781 C784 1.363 . S
N782 C784 1.356 . S
N782 H794 0.984 . S
N782 H795 0.985 . S
N783 C785 1.356 . S
N783 H788 0.984 . S
N783 H789 0.985 . S
C784 C778 1.379 . S
C784 C781 1.363 . S
C784 N782 1.356 . S
C785 C779 1.363 . S
C785 C780 1.379 . S
C785 N783 1.356 . S
N786 C778 1.356 . S
N786 H792 0.984 . S
N786 H793 0.984 . S
N787 C780 1.356 . S
N787 H790 0.984 . S
N787 H791 0.985 . S
H788 N783 0.984 . S
H789 N783 0.985 . S
H790 N787 0.984 . S
H791 N787 0.985 . S
H792 N786 0.984 . S
H793 N786 0.984 . S
H794 N782 0.984 . S
H795 N782 0.985 . S
C796 C797 1.363 . S
C796 C802 1.379 . S
C796 N804 1.356 . S
C797 C796 1.363 . S
C797 C803 1.363 . S
C798 C799 1.363 . S
C798 C803 1.379 . S
C798 N805 1.356 . S
C799 C798 1.363 . S
C799 C802 1.363 . S
N800 C802 1.356 . S
N800 H812 0.984 . S
N800 H813 0.985 . S
N801 C803 1.356 . S
N801 H806 0.984 . S
N801 H807 0.985 . S
C802 C796 1.379 . S
C802 C799 1.363 . S
C802 N800 1.356 . S
C803 C797 1.363 . S
C803 C798 1.379 . S
C803 N801 1.356 . S
N804 C796 1.356 . S
N804 H810 0.984 . S
N804 H811 0.984 . S
N805 C798 1.356 . S
N805 H808 0.984 . S
N805 H809 0.985 . S
H806 N801 0.984 . S
H807 N801 0.985 . S
H808 N805 0.984 . S
H809 N805 0.985 . S
H810 N804 0.984 . S
H811 N804 0.984 . S
H812 N800 0.984 . S
H813 N800 0.985 . S
C814 C815 1.363 . S
C814 C820 1.379 . S
C814 N822 1.356 . S
C815 C814 1.363 . S
C815 C821 1.363 . S
C816 C817 1.363 . S
C816 C821 1.379 . S
C816 N823 1.356 . S
C817 C816 1.363 . S
C817 C820 1.363 . S
N818 C820 1.356 . S
N818 H830 0.984 . S
N818 H831 0.985 . S
N819 C821 1.356 . S
N819 H824 0.984 . S
N819 H825 0.985 . S
C820 C814 1.379 . S
C820 C817 1.363 . S
C820 N818 1.356 . S
C821 C815 1.363 . S
C821 C816 1.379 . S
C821 N819 1.356 . S
N822 C814 1.356 . S
N822 H828 0.984 . S
N822 H829 0.984 . S
N823 C816 1.356 . S
N823 H826 0.984 . S
N823 H827 0.985 . S
H824 N819 0.984 . S
H825 N819 0.985 . S
H826 N823 0.984 . S
H827 N823 0.985 . S
H828 N822 0.984 . S
H829 N822 0.984 . S
H830 N818 0.984 . S
H831 N818 0.985 . S
C832 C833 1.363 . S
C832 C838 1.379 . S
C832 N840 1.356 . S
C833 C832 1.363 . S
C833 C839 1.363 . S
C834 C835 1.363 . S
C834 C839 1.379 . S
C834 N841 1.356 . S
C835 C834 1.363 . S
C835 C838 1.363 . S
N836 C838 1.356 . S
N836 H848 0.984 . S
N836 H849 0.985 . S
N837 C839 1.356 . S
N837 H842 0.984 . S
N837 H843 0.985 . S
C838 C832 1.379 . S
C838 C835 1.363 . S
C838 N836 1.356 . S
C839 C833 1.363 . S
C839 C834 1.379 . S
C839 N837 1.356 . S
N840 C832 1.356 . S
N840 H846 0.984 . S
N840 H847 0.984 . S
N841 C834 1.356 . S
N841 H844 0.984 . S
N841 H845 0.985 . S
H842 N837 0.984 . S
H843 N837 0.985 . S
H844 N841 0.984 . S
H845 N841 0.985 . S
H846 N840 0.984 . S
H847 N840 0.984 . S
H848 N836 0.984 . S
H849 N836 0.985 . S
C850 C851 1.363 . S
C850 C856 1.379 . S
C850 N858 1.356 . S
C851 C850 1.363 . S
C851 C857 1.363 . S
C852 C853 1.363 . S
C852 C857 1.379 . S
C852 N859 1.356 . S
C853 C852 1.363 . S
C853 C856 1.363 . S
N854 C856 1.356 . S
N854 H866 0.984 . S
N854 H867 0.985 . S
N855 C857 1.356 . S
N855 H860 0.984 . S
N855 H861 0.985 . S
C856 C850 1.379 . S
C856 C853 1.363 . S
C856 N854 1.356 . S
C857 C851 1.363 . S
C857 C852 1.379 . S
C857 N855 1.356 . S
N858 C850 1.356 . S
N858 H864 0.984 . S
N858 H865 0.984 . S
N859 C852 1.356 . S
N859 H862 0.984 . S
N859 H863 0.985 . S
H860 N855 0.984 . S
H861 N855 0.985 . S
H862 N859 0.984 . S
H863 N859 0.985 . S
H864 N858 0.984 . S
H865 N858 0.984 . S
H866 N854 0.984 . S
H867 N854 0.985 . S
C868 C869 1.363 . S
C868 C874 1.379 . S
C868 N876 1.356 . S
C869 C868 1.363 . S
C869 C875 1.363 . S
C870 C871 1.363 . S
C870 C875 1.379 . S
C870 N877 1.356 . S
C871 C870 1.363 . S
C871 C874 1.363 . S
N872 C874 1.356 . S
N872 H884 0.984 . S
N872 H885 0.985 . S
N873 C875 1.356 . S
N873 H878 0.984 . S
N873 H879 0.985 . S
C874 C868 1.379 . S
C874 C871 1.363 . S
C874 N872 1.356 . S
C875 C869 1.363 . S
C875 C870 1.379 . S
C875 N873 1.356 . S
N876 C868 1.356 . S
N876 H882 0.984 . S
N876 H883 0.984 . S
N877 C870 1.356 . S
N877 H880 0.984 . S
N877 H881 0.985 . S
H878 N873 0.984 . S
H879 N873 0.985 . S
H880 N877 0.984 . S
H881 N877 0.985 . S
H882 N876 0.984 . S
H883 N876 0.984 . S
H884 N872 0.984 . S
H885 N872 0.985 . S
C886 C887 1.363 . S
C886 C892 1.379 . S
C886 N894 1.356 . S
C887 C886 1.363 . S
C887 C893 1.363 . S
C888 C889 1.363 . S
C888 C893 1.379 . S
C888 N895 1.356 . S
C889 C888 1.363 . S
C889 C892 1.363 . S
N890 C892 1.356 . S
N890 H902 0.984 . S
N890 H903 0.985 . S
N891 C893 1.356 . S
N891 H896 0.984 . S
N891 H897 0.985 . S
C892 C886 1.379 . S
C892 C889 1.363 . S
C892 N890 1.356 . S
C893 C887 1.363 . S
C893 C888 1.379 . S
C893 N891 1.356 . S
N894 C886 1.356 . S
N894 H900 0.984 . S
N894 H901 0.984 . S
N895 C888 1.356 . S
N895 H898 0.984 . S
N895 H899 0.985 . S
H896 N891 0.984 . S
H897 N891 0.985 . S
H898 N895 0.984 . S
H899 N895 0.985 . S
H900 N894 0.984 . S
H901 N894 0.984 . S
H902 N890 0.984 . S
H903 N890 0.985 . S
C904 C905 1.363 . S
C904 C910 1.379 . S
C904 N912 1.356 . S
C905 C904 1.363 . S
C905 C911 1.363 . S
C906 C907 1.363 . S
C906 C911 1.379 . S
C906 N913 1.356 . S
C907 C906 1.363 . S
C907 C910 1.363 . S
N908 C910 1.356 . S
N908 H920 0.984 . S
N908 H921 0.985 . S
N909 C911 1.356 . S
N909 H914 0.984 . S
N909 H915 0.985 . S
C910 C904 1.379 . S
C910 C907 1.363 . S
C910 N908 1.356 . S
C911 C905 1.363 . S
C911 C906 1.379 . S
C911 N909 1.356 . S
N912 C904 1.356 . S
N912 H918 0.984 . S
N912 H919 0.984 . S
N913 C906 1.356 . S
N913 H916 0.984 . S
N913 H917 0.985 . S
H914 N909 0.984 . S
H915 N909 0.985 . S
H916 N913 0.984 . S
H917 N913 0.985 . S
H918 N912 0.984 . S
H919 N912 0.984 . S
H920 N908 0.984 . S
H921 N908 0.985 . S
C922 C923 1.363 . S
C922 C928 1.379 . S
C922 N930 1.356 . S
C923 C922 1.363 . S
C923 C929 1.363 . S
C924 C925 1.363 . S
C924 C929 1.379 . S
C924 N931 1.356 . S
C925 C924 1.363 . S
C925 C928 1.363 . S
N926 C928 1.356 . S
N926 H938 0.984 . S
N926 H939 0.985 . S
N927 C929 1.356 . S
N927 H932 0.984 . S
N927 H933 0.985 . S
C928 C922 1.379 . S
C928 C925 1.363 . S
C928 N926 1.356 . S
C929 C923 1.363 . S
C929 C924 1.379 . S
C929 N927 1.356 . S
N930 C922 1.356 . S
N930 H936 0.984 . S
N930 H937 0.984 . S
N931 C924 1.356 . S
N931 H934 0.984 . S
N931 H935 0.985 . S
H932 N927 0.984 . S
H933 N927 0.985 . S
H934 N931 0.984 . S
H935 N931 0.985 . S
H936 N930 0.984 . S
H937 N930 0.984 . S
H938 N926 0.984 . S
H939 N926 0.985 . S
C940 C941 1.363 . S
C940 C946 1.379 . S
C940 N948 1.356 . S
C941 C940 1.363 . S
C941 C947 1.363 . S
C942 C943 1.363 . S
C942 C947 1.379 . S
C942 N949 1.356 . S
C943 C942 1.363 . S
C943 C946 1.363 . S
N944 C946 1.356 . S
N944 H956 0.984 . S
N944 H957 0.985 . S
N945 C947 1.356 . S
N945 H950 0.984 . S
N945 H951 0.985 . S
C946 C940 1.379 . S
C946 C943 1.363 . S
C946 N944 1.356 . S
C947 C941 1.363 . S
C947 C942 1.379 . S
C947 N945 1.356 . S
N948 C940 1.356 . S
N948 H954 0.984 . S
N948 H955 0.984 . S
N949 C942 1.356 . S
N949 H952 0.984 . S
N949 H953 0.985 . S
H950 N945 0.984 . S
H951 N945 0.985 . S
H952 N949 0.984 . S
H953 N949 0.985 . S
H954 N948 0.984 . S
H955 N948 0.984 . S
H956 N944 0.984 . S
H957 N944 0.985 . S
C958 C959 1.363 . S
C958 C964 1.379 . S
C958 N966 1.356 . S
C959 C958 1.363 . S
C959 C965 1.363 . S
C960 C961 1.363 . S
C960 C965 1.379 . S
C960 N967 1.356 . S
C961 C960 1.363 . S
C961 C964 1.363 . S
N962 C964 1.356 . S
N962 H974 0.984 . S
N962 H975 0.985 . S
N963 C965 1.356 . S
N963 H968 0.984 . S
N963 H969 0.985 . S
C964 C958 1.379 . S
C964 C961 1.363 . S
C964 N962 1.356 . S
C965 C959 1.363 . S
C965 C960 1.379 . S
C965 N963 1.356 . S
N966 C958 1.356 . S
N966 H972 0.984 . S
N966 H973 0.984 . S
N967 C960 1.356 . S
N967 H970 0.984 . S
N967 H971 0.985 . S
H968 N963 0.984 . S
H969 N963 0.985 . S
H970 N967 0.984 . S
H971 N967 0.985 . S
H972 N966 0.984 . S
H973 N966 0.984 . S
H974 N962 0.984 . S
H975 N962 0.985 . S
C976 C977 1.363 . S
C976 C982 1.379 . S
C976 N984 1.356 . S
C977 C976 1.363 . S
C977 C983 1.363 . S
C978 C979 1.363 . S
C978 C983 1.379 . S
C978 N985 1.356 . S
C979 C978 1.363 . S
C979 C982 1.363 . S
N980 C982 1.356 . S
N980 H992 0.984 . S
N980 H993 0.985 . S
N981 C983 1.356 . S
N981 H986 0.984 . S
N981 H987 0.985 . S
C982 C976 1.379 . S
C982 C979 1.363 . S
C982 N980 1.356 . S
C983 C977 1.363 . S
C983 C978 1.379 . S
C983 N981 1.356 . S
N984 C976 1.356 . S
N984 H990 0.984 . S
N984 H991 0.984 . S
N985 C978 1.356 . S
N985 H988 0.984 . S
N985 H989 0.985 . S
H986 N981 0.984 . S
H987 N981 0.985 . S
H988 N985 0.984 . S
H989 N985 0.985 . S
H990 N984 0.984 . S
H991 N984 0.984 . S
H992 N980 0.984 . S
H993 N980 0.985 . S
C994 C995 1.363 . S
C994 C1000 1.379 . S
C994 N1002 1.356 . S
C995 C994 1.363 . S
C995 C1001 1.363 . S
C996 C997 1.363 . S
C996 C1001 1.379 . S
C996 N1003 1.356 . S
C997 C996 1.363 . S
C997 C1000 1.363 . S
N998 C1000 1.356 . S
N998 H1010 0.984 . S
N998 H1011 0.985 . S
N999 C1001 1.356 . S
N999 H1004 0.984 . S
N999 H1005 0.985 . S
C1000 C994 1.379 . S
C1000 C997 1.363 . S
C1000 N998 1.356 . S
C1001 C995 1.363 . S
C1001 C996 1.379 . S
C1001 N999 1.356 . S
N1002 C994 1.356 . S
N1002 H1008 0.984 . S
N1002 H1009 0.984 . S
N1003 C996 1.356 . S
N1003 H1006 0.984 . S
N1003 H1007 0.985 . S
H1004 N999 0.984 . S
H1005 N999 0.985 . S
H1006 N1003 0.984 . S
H1007 N1003 0.985 . S
H1008 N1002 0.984 . S
H1009 N1002 0.984 . S
H1010 N998 0.984 . S
H1011 N998 0.985 . S
C1012 C1013 1.363 . S
C1012 C1018 1.379 . S
C1012 N1020 1.356 . S
C1013 C1012 1.363 . S
C1013 C1019 1.363 . S
C1014 C1015 1.363 . S
C1014 C1019 1.379 . S
C1014 N1021 1.356 . S
C1015 C1014 1.363 . S
C1015 C1018 1.363 . S
N1016 C1018 1.356 . S
N1016 H1028 0.984 . S
N1016 H1029 0.985 . S
N1017 C1019 1.356 . S
N1017 H1022 0.984 . S
N1017 H1023 0.985 . S
C1018 C1012 1.379 . S
C1018 C1015 1.363 . S
C1018 N1016 1.356 . S
C1019 C1013 1.363 . S
C1019 C1014 1.379 . S
C1019 N1017 1.356 . S
N1020 C1012 1.356 . S
N1020 H1026 0.984 . S
N1020 H1027 0.984 . S
N1021 C1014 1.356 . S
N1021 H1024 0.984 . S
N1021 H1025 0.985 . S
H1022 N1017 0.984 . S
H1023 N1017 0.985 . S
H1024 N1021 0.984 . S
H1025 N1021 0.985 . S
H1026 N1020 0.984 . S
H1027 N1020 0.984 . S
H1028 N1016 0.984 . S
H1029 N1016 0.985 . S
C1030 C1031 1.363 . S
C1030 C1036 1.379 . S
C1030 N1038 1.356 . S
C1031 C1030 1.363 . S
C1031 C1037 1.363 . S
C1032 C1033 1.363 . S
C1032 C1037 1.379 . S
C1032 N1039 1.356 . S
C1033 C1032 1.363 . S
C1033 C1036 1.363 . S
N1034 C1036 1.356 . S
N1034 H1046 0.984 . S
N1034 H1047 0.985 . S
N1035 C1037 1.356 . S
N1035 H1040 0.984 . S
N1035 H1041 0.985 . S
C1036 C1030 1.379 . S
C1036 C1033 1.363 . S
C1036 N1034 1.356 . S
C1037 C1031 1.363 . S
C1037 C1032 1.379 . S
C1037 N1035 1.356 . S
N1038 C1030 1.356 . S
N1038 H1044 0.984 . S
N1038 H1045 0.984 . S
N1039 C1032 1.356 . S
N1039 H1042 0.984 . S
N1039 H1043 0.985 . S
H1040 N1035 0.984 . S
H1041 N1035 0.985 . S
H1042 N1039 0.984 . S
H1043 N1039 0.985 . S
H1044 N1038 0.984 . S
H1045 N1038 0.984 . S
H1046 N1034 0.984 . S
H1047 N1034 0.985 . S
C1048 C1049 1.363 . S
C1048 C1054 1.379 . S
C1048 N1056 1.356 . S
C1049 C1048 1.363 . S
C1049 C1055 1.363 . S
C1050 C1051 1.363 . S
C1050 C1055 1.379 . S
C1050 N1057 1.356 . S
C1051 C1050 1.363 . S
C1051 C1054 1.363 . S
N1052 C1054 1.356 . S
N1052 H1064 0.984 . S
N1052 H1065 0.985 . S
N1053 C1055 1.356 . S
N1053 H1058 0.984 . S
N1053 H1059 0.985 . S
C1054 C1048 1.379 . S
C1054 C1051 1.363 . S
C1054 N1052 1.356 . S
C1055 C1049 1.363 . S
C1055 C1050 1.379 . S
C1055 N1053 1.356 . S
N1056 C1048 1.356 . S
N1056 H1062 0.984 . S
N1056 H1063 0.984 . S
N1057 C1050 1.356 . S
N1057 H1060 0.984 . S
N1057 H1061 0.985 . S
H1058 N1053 0.984 . S
H1059 N1053 0.985 . S
H1060 N1057 0.984 . S
H1061 N1057 0.985 . S
H1062 N1056 0.984 . S
H1063 N1056 0.984 . S
H1064 N1052 0.984 . S
H1065 N1052 0.985 . S
C1066 C1067 1.363 . S
C1066 C1072 1.379 . S
C1066 N1074 1.356 . S
C1067 C1066 1.363 . S
C1067 C1073 1.363 . S
C1068 C1069 1.363 . S
C1068 C1073 1.379 . S
C1068 N1075 1.356 . S
C1069 C1068 1.363 . S
C1069 C1072 1.363 . S
N1070 C1072 1.356 . S
N1070 H1082 0.984 . S
N1070 H1083 0.985 . S
N1071 C1073 1.356 . S
N1071 H1076 0.984 . S
N1071 H1077 0.985 . S
C1072 C1066 1.379 . S
C1072 C1069 1.363 . S
C1072 N1070 1.356 . S
C1073 C1067 1.363 . S
C1073 C1068 1.379 . S
C1073 N1071 1.356 . S
N1074 C1066 1.356 . S
N1074 H1080 0.984 . S
N1074 H1081 0.984 . S
N1075 C1068 1.356 . S
N1075 H1078 0.984 . S
N1075 H1079 0.985 . S
H1076 N1071 0.984 . S
H1077 N1071 0.985 . S
H1078 N1075 0.984 . S
H1079 N1075 0.985 . S
H1080 N1074 0.984 . S
H1081 N1074 0.984 . S
H1082 N1070 0.984 . S
H1083 N1070 0.985 . S
C1084 C1085 1.363 . S
C1084 C1090 1.379 . S
C1084 N1092 1.356 . S
C1085 C1084 1.363 . S
C1085 C1091 1.363 . S
C1086 C1087 1.363 . S
C1086 C1091 1.379 . S
C1086 N1093 1.356 . S
C1087 C1086 1.363 . S
C1087 C1090 1.363 . S
N1088 C1090 1.356 . S
N1088 H1100 0.984 . S
N1088 H1101 0.985 . S
N1089 C1091 1.356 . S
N1089 H1094 0.984 . S
N1089 H1095 0.985 . S
C1090 C1084 1.379 . S
C1090 C1087 1.363 . S
C1090 N1088 1.356 . S
C1091 C1085 1.363 . S
C1091 C1086 1.379 . S
C1091 N1089 1.356 . S
N1092 C1084 1.356 . S
N1092 H1098 0.984 . S
N1092 H1099 0.984 . S
N1093 C1086 1.356 . S
N1093 H1096 0.984 . S
N1093 H1097 0.985 . S
H1094 N1089 0.984 . S
H1095 N1089 0.985 . S
H1096 N1093 0.984 . S
H1097 N1093 0.985 . S
H1098 N1092 0.984 . S
H1099 N1092 0.984 . S
H1100 N1088 0.984 . S
H1101 N1088 0.985 . S
C1102 C1103 1.363 . S
C1102 C1108 1.379 . S
C1102 N1110 1.356 . S
C1103 C1102 1.363 . S
C1103 C1109 1.363 . S
C1104 C1105 1.363 . S
C1104 C1109 1.379 . S
C1104 N1111 1.356 . S
C1105 C1104 1.363 . S
C1105 C1108 1.363 . S
N1106 C1108 1.356 . S
N1106 H1118 0.984 . S
N1106 H1119 0.985 . S
N1107 C1109 1.356 . S
N1107 H1112 0.984 . S
N1107 H1113 0.985 . S
C1108 C1102 1.379 . S
C1108 C1105 1.363 . S
C1108 N1106 1.356 . S
C1109 C1103 1.363 . S
C1109 C1104 1.379 . S
C1109 N1107 1.356 . S
N1110 C1102 1.356 . S
N1110 H1116 0.984 . S
N1110 H1117 0.984 . S
N1111 C1104 1.356 . S
N1111 H1114 0.984 . S
N1111 H1115 0.985 . S
H1112 N1107 0.984 . S
H1113 N1107 0.985 . S
H1114 N1111 0.984 . S
H1115 N1111 0.985 . S
H1116 N1110 0.984 . S
H1117 N1110 0.984 . S
H1118 N1106 0.984 . S
H1119 N1106 0.985 . S
C1120 C1121 1.363 1_655 S
C1120 C1126 1.379 . S
C1120 N1128 1.356 . S
C1121 C1120 1.363 1_455 S
C1121 C1127 1.363 . S
C1122 C1123 1.363 1_455 S
C1122 C1127 1.379 . S
C1122 N1129 1.356 . S
C1123 C1122 1.363 1_655 S
C1123 C1126 1.363 . S
N1124 C1126 1.356 . S
N1124 H1136 0.984 . S
N1124 H1137 0.985 . S
N1125 C1127 1.356 . S
N1125 H1130 0.984 . S
N1125 H1131 0.985 . S
C1126 C1120 1.379 . S
C1126 C1123 1.363 . S
C1126 N1124 1.356 . S
C1127 C1121 1.363 . S
C1127 C1122 1.379 . S
C1127 N1125 1.356 . S
N1128 C1120 1.356 . S
N1128 H1134 0.984 . S
N1128 H1135 0.984 1_655 S
N1129 C1122 1.356 . S
N1129 H1132 0.984 1_455 S
N1129 H1133 0.985 . S
H1130 N1125 0.984 . S
H1131 N1125 0.985 . S
H1132 N1129 0.984 1_655 S
H1133 N1129 0.985 . S
H1134 N1128 0.984 . S
H1135 N1128 0.984 1_455 S
H1136 N1124 0.984 . S
H1137 N1124 0.985 . S
C1138 C1139 1.363 . S
C1138 C1144 1.379 . S
C1138 N1146 1.356 . S
C1139 C1138 1.363 . S
C1139 C1145 1.363 1_565 S
C1140 C1141 1.363 . S
C1140 C1145 1.379 . S
C1140 N1147 1.356 . S
C1141 C1140 1.363 . S
C1141 C1144 1.363 1_545 S
N1142 C1144 1.356 . S
N1142 H1154 0.984 . S
N1142 H1155 0.985 . S
N1143 C1145 1.356 . S
N1143 H1148 0.984 . S
N1143 H1149 0.985 . S
C1144 C1138 1.379 . S
C1144 C1141 1.363 1_565 S
C1144 N1142 1.356 . S
C1145 C1139 1.363 1_545 S
C1145 C1140 1.379 . S
C1145 N1143 1.356 . S
N1146 C1138 1.356 . S
N1146 H1152 0.984 . S
N1146 H1153 0.984 . S
N1147 C1140 1.356 . S
N1147 H1150 0.984 . S
N1147 H1151 0.985 . S
H1148 N1143 0.984 . S
H1149 N1143 0.985 . S
H1150 N1147 0.984 . S
H1151 N1147 0.985 . S
H1152 N1146 0.984 . S
H1153 N1146 0.984 . S
H1154 N1142 0.984 . S
H1155 N1142 0.985 . S
C1156 C1157 1.363 1_655 S
C1156 C1162 1.379 . S
C1156 N1164 1.356 . S
C1157 C1156 1.363 1_455 S
C1157 C1163 1.363 . S
C1158 C1159 1.363 1_455 S
C1158 C1163 1.379 . S
C1158 N1165 1.356 . S
C1159 C1158 1.363 1_655 S
C1159 C1162 1.363 . S
N1160 C1162 1.356 . S
N1160 H1172 0.984 . S
N1160 H1173 0.985 . S
N1161 C1163 1.356 . S
N1161 H1166 0.984 . S
N1161 H1167 0.985 . S
C1162 C1156 1.379 . S
C1162 C1159 1.363 . S
C1162 N1160 1.356 . S
C1163 C1157 1.363 . S
C1163 C1158 1.379 . S
C1163 N1161 1.356 . S
N1164 C1156 1.356 . S
N1164 H1170 0.984 . S
N1164 H1171 0.984 1_655 S
N1165 C1158 1.356 . S
N1165 H1168 0.984 1_455 S
N1165 H1169 0.985 . S
H1166 N1161 0.984 . S
H1167 N1161 0.985 . S
H1168 N1165 0.984 1_655 S
H1169 N1165 0.985 . S
H1170 N1164 0.984 . S
H1171 N1164 0.984 1_455 S
H1172 N1160 0.984 . S
H1173 N1160 0.985 . S
C1174 C1175 1.363 . S
C1174 C1180 1.379 1_545 S
C1174 N1182 1.356 . S
C1175 C1174 1.363 . S
C1175 C1181 1.363 . S
C1176 C1177 1.363 . S
C1176 C1181 1.379 1_565 S
C1176 N1183 1.356 . S
C1177 C1176 1.363 . S
C1177 C1180 1.363 . S
N1178 C1180 1.356 . S
N1178 H1190 0.984 . S
N1178 H1191 0.985 . S
N1179 C1181 1.356 . S
N1179 H1184 0.984 . S
N1179 H1185 0.985 . S
C1180 C1174 1.379 1_565 S
C1180 C1177 1.363 . S
C1180 N1178 1.356 . S
C1181 C1175 1.363 . S
C1181 C1176 1.379 1_545 S
C1181 N1179 1.356 . S
N1182 C1174 1.356 . S
N1182 H1188 0.984 . S
N1182 H1189 0.984 . S
N1183 C1176 1.356 . S
N1183 H1186 0.984 . S
N1183 H1187 0.985 . S
H1184 N1179 0.984 . S
H1185 N1179 0.985 . S
H1186 N1183 0.984 . S
H1187 N1183 0.985 . S
H1188 N1182 0.984 . S
H1189 N1182 0.984 . S
H1190 N1178 0.984 . S
H1191 N1178 0.985 . S
C1192 C1193 1.363 . S
C1192 C1198 1.379 1_556 S
C1192 N1200 1.356 . S
C1193 C1192 1.363 . S
C1193 C1199 1.363 . S
C1194 C1195 1.363 . S
C1194 C1199 1.379 1_554 S
C1194 N1201 1.356 . S
C1195 C1194 1.363 . S
C1195 C1198 1.363 . S
N1196 C1198 1.356 . S
N1196 H1208 0.984 . S
N1196 H1209 0.985 . S
N1197 C1199 1.356 . S
N1197 H1202 0.984 . S
N1197 H1203 0.985 . S
C1198 C1192 1.379 1_554 S
C1198 C1195 1.363 . S
C1198 N1196 1.356 . S
C1199 C1193 1.363 . S
C1199 C1194 1.379 1_556 S
C1199 N1197 1.356 . S
N1200 C1192 1.356 . S
N1200 H1206 0.984 . S
N1200 H1207 0.984 . S
N1201 C1194 1.356 . S
N1201 H1204 0.984 . S
N1201 H1205 0.985 . S
H1202 N1197 0.984 . S
H1203 N1197 0.985 . S
H1204 N1201 0.984 . S
H1205 N1201 0.985 . S
H1206 N1200 0.984 . S
H1207 N1200 0.984 . S
H1208 N1196 0.984 . S
H1209 N1196 0.985 . S
C1210 C1211 1.363 . S
C1210 C1216 1.379 1_554 S
C1210 N1218 1.356 . S
C1211 C1210 1.363 . S
C1211 C1217 1.363 . S
C1212 C1213 1.363 . S
C1212 C1217 1.379 1_556 S
C1212 N1219 1.356 . S
C1213 C1212 1.363 . S
C1213 C1216 1.363 . S
N1214 C1216 1.356 . S
N1214 H1226 0.984 . S
N1214 H1227 0.985 . S
N1215 C1217 1.356 . S
N1215 H1220 0.984 . S
N1215 H1221 0.985 . S
C1216 C1210 1.379 1_556 S
C1216 C1213 1.363 . S
C1216 N1214 1.356 . S
C1217 C1211 1.363 . S
C1217 C1212 1.379 1_554 S
C1217 N1215 1.356 . S
N1218 C1210 1.356 . S
N1218 H1224 0.984 . S
N1218 H1225 0.984 . S
N1219 C1212 1.356 . S
N1219 H1222 0.984 . S
N1219 H1223 0.985 . S
H1220 N1215 0.984 . S
H1221 N1215 0.985 . S
H1222 N1219 0.984 . S
H1223 N1219 0.985 . S
H1224 N1218 0.984 . S
H1225 N1218 0.984 . S
H1226 N1214 0.984 . S
H1227 N1214 0.985 . S
C1228 C1229 1.363 . S
C1228 C1234 1.379 1_554 S
C1228 N1236 1.356 . S
C1229 C1228 1.363 . S
C1229 C1235 1.363 . S
C1230 C1231 1.363 . S
C1230 C1235 1.379 1_556 S
C1230 N1237 1.356 . S
C1231 C1230 1.363 . S
C1231 C1234 1.363 . S
N1232 C1234 1.356 . S
N1232 H1244 0.984 . S
N1232 H1245 0.985 . S
N1233 C1235 1.356 . S
N1233 H1238 0.984 . S
N1233 H1239 0.985 . S
C1234 C1228 1.379 1_556 S
C1234 C1231 1.363 . S
C1234 N1232 1.356 . S
C1235 C1229 1.363 . S
C1235 C1230 1.379 1_554 S
C1235 N1233 1.356 . S
N1236 C1228 1.356 . S
N1236 H1242 0.984 . S
N1236 H1243 0.984 . S
N1237 C1230 1.356 . S
N1237 H1240 0.984 . S
N1237 H1241 0.985 . S
H1238 N1233 0.984 . S
H1239 N1233 0.985 . S
H1240 N1237 0.984 . S
H1241 N1237 0.985 . S
H1242 N1236 0.984 . S
H1243 N1236 0.984 . S
H1244 N1232 0.984 . S
H1245 N1232 0.985 . S
C1246 C1247 1.363 . S
C1246 C1252 1.379 1_556 S
C1246 N1254 1.356 . S
C1247 C1246 1.363 . S
C1247 C1253 1.363 . S
C1248 C1249 1.363 . S
C1248 C1253 1.379 1_554 S
C1248 N1255 1.356 . S
C1249 C1248 1.363 . S
C1249 C1252 1.363 . S
N1250 C1252 1.356 . S
N1250 H1262 0.984 . S
N1250 H1263 0.985 . S
N1251 C1253 1.356 . S
N1251 H1256 0.984 . S
N1251 H1257 0.985 . S
C1252 C1246 1.379 1_554 S
C1252 C1249 1.363 . S
C1252 N1250 1.356 . S
C1253 C1247 1.363 . S
C1253 C1248 1.379 1_556 S
C1253 N1251 1.356 . S
N1254 C1246 1.356 . S
N1254 H1260 0.984 . S
N1254 H1261 0.984 . S
N1255 C1248 1.356 . S
N1255 H1258 0.984 . S
N1255 H1259 0.985 . S
H1256 N1251 0.984 . S
H1257 N1251 0.985 . S
H1258 N1255 0.984 . S
H1259 N1255 0.985 . S
H1260 N1254 0.984 . S
H1261 N1254 0.984 . S
H1262 N1250 0.984 . S
H1263 N1250 0.985 . S
C545 C88 1.148 . S
C547 C20 1.148 . S
C563 C54 1.148 . S
C565 C122 1.148 . S
C581 C224 1.148 . S
C583 C156 1.148 . S
C599 C258 1.148 . S
C601 C190 1.148 . S
C617 C292 1.148 . S
C619 C360 1.148 . S
C635 C394 1.148 . S
C637 C326 1.148 . S
C653 C496 1.148 . S
C655 C428 1.148 . S
C671 C462 1.148 . S
C673 C530 1.148 . S
C689 C9 1.583 . S
C691 C519 1.583 . S
C707 C417 1.583 . S
C709 C43 1.583 . S
C725 C451 1.583 . S
C727 C77 1.583 . S
C743 C485 1.583 . S
C745 C111 1.583 . S
C761 C315 1.583 . S
C763 C145 1.583 . S
C779 C349 1.583 . S
C781 C179 1.583 . S
C797 C383 1.583 . S
C799 C213 1.583 . S
C815 C281 1.583 . S
C817 C247 1.583 . S
C833 C2 1.456 . S
C835 C135 1.463 . S
C851 C33 1.463 . S
C853 C36 1.457 . S
C869 C70 1.457 . S
C871 C67 1.463 . S
C887 C101 1.463 . S
C889 C104 1.456 . S
C905 C203 1.463 . S
C907 C138 1.456 . S
C923 C172 1.457 . S
C925 C237 1.463 . S
C941 C271 1.463 . S
C943 C206 1.457 . S
C959 C169 1.463 . S
C961 C240 1.456 . S
C977 C274 1.456 . S
C979 C407 1.463 . S
C995 C305 1.463 . S
C997 C308 1.457 . S
C1013 C342 1.457 . S
C1015 C339 1.463 . S
C1031 C376 1.456 . S
C1033 C373 1.463 . S
C1049 C410 1.456 . S
C1051 C475 1.463 . S
C1067 C509 1.463 . S
C1069 C444 1.457 . S
C1085 C543 1.463 . S
C1087 C478 1.457 . S
C1103 C512 1.456 . S
C1105 C441 1.463 . S
C1121 C5 1.625 . S
C1123 C209 1.625 . S
C1139 C243 1.625 . S
C1141 C39 1.625 . S
C1157 C141 1.625 . S
C1159 C73 1.625 . S
C1175 C175 1.625 . S
C1177 C107 1.625 . S
C1193 C277 1.625 . S
C1195 C481 1.625 . S
C1211 C515 1.625 . S
C1213 C311 1.625 . S
C1229 C413 1.625 . S
C1231 C345 1.625 . S
C1247 C379 1.625 . S
C1249 C447 1.625 . S
