# Generated by pormake.
# Topology zfl, (5)-cn, num edge types: 1
# Building blocks:
#     Node 0, Type 0, BuildingBlock: XOMCOT_clean_sbu_0, # of connection points: 5
#     Node 1, Type 0, BuildingBlock: XOMCOT_clean_sbu_0, # of connection points: 5
#     Node 2, Type 0, BuildingBlock: XOMCOT_clean_sbu_0, # of connection points: 5
#     Node 3, Type 0, BuildingBlock: XOMCOT_clean_sbu_0, # of connection points: 5
#     Node 4, Type 0, BuildingBlock: XOMCOT_clean_sbu_0, # of connection points: 5
#     Node 5, Type 0, BuildingBlock: XOMCOT_clean_sbu_0, # of connection points: 5
#     Node 6, Type 0, BuildingBlock: XOMCOT_clean_sbu_0, # of connection points: 5
#     Node 7, Type 0, BuildingBlock: XOMCOT_clean_sbu_0, # of connection points: 5
#     Node 8, Type 0, BuildingBlock: XOMCOT_clean_sbu_0, # of connection points: 5
#     Node 9, Type 0, BuildingBlock: XOMCOT_clean_sbu_0, # of connection points: 5
#     Node 10, Type 0, BuildingBlock: XOMCOT_clean_sbu_0, # of connection points: 5
#     Node 11, Type 0, BuildingBlock: XOMCOT_clean_sbu_0, # of connection points: 5
#     Node 12, Type 0, BuildingBlock: XOMCOT_clean_sbu_0, # of connection points: 5
#     Node 13, Type 0, BuildingBlock: XOMCOT_clean_sbu_0, # of connection points: 5
#     Node 14, Type 0, BuildingBlock: XOMCOT_clean_sbu_0, # of connection points: 5
#     Node 15, Type 0, BuildingBlock: XOMCOT_clean_sbu_0, # of connection points: 5
#     Edge 16, Type (0, 0), None
#     Edge 17, Type (0, 0), None
#     Edge 18, Type (0, 0), None
#     Edge 19, Type (0, 0), None
#     Edge 20, Type (0, 0), None
#     Edge 21, Type (0, 0), None
#     Edge 22, Type (0, 0), None
#     Edge 23, Type (0, 0), None
#     Edge 24, Type (0, 0), None
#     Edge 25, Type (0, 0), None
#     Edge 26, Type (0, 0), None
#     Edge 27, Type (0, 0), None
#     Edge 28, Type (0, 0), None
#     Edge 29, Type (0, 0), None
#     Edge 30, Type (0, 0), None
#     Edge 31, Type (0, 0), None
#     Edge 32, Type (0, 0), None
#     Edge 33, Type (0, 0), None
#     Edge 34, Type (0, 0), None
#     Edge 35, Type (0, 0), None
#     Edge 36, Type (0, 0), None
#     Edge 37, Type (0, 0), None
#     Edge 38, Type (0, 0), None
#     Edge 39, Type (0, 0), None
#     Edge 40, Type (0, 0), None
#     Edge 41, Type (0, 0), None
#     Edge 42, Type (0, 0), None
#     Edge 43, Type (0, 0), None
#     Edge 44, Type (0, 0), None
#     Edge 45, Type (0, 0), None
#     Edge 46, Type (0, 0), None
#     Edge 47, Type (0, 0), None
#     Edge 48, Type (0, 0), None
#     Edge 49, Type (0, 0), None
#     Edge 50, Type (0, 0), None
#     Edge 51, Type (0, 0), None
#     Edge 52, Type (0, 0), None
#     Edge 53, Type (0, 0), None
#     Edge 54, Type (0, 0), None
#     Edge 55, Type (0, 0), None
# Relax obj value: 0.311
# Max RMSD: 0.264
# Mean RMSD: 0.264
data_MOF--net-zfl--node1-XOMCOT_clean_sbu_0--edge1-none
_symmetry_space_group_name_H-M    P1
_symmetry_Int_Tables_number       1
_symmetry_cell_setting            triclinic
loop_
_symmetry_equiv_pos_as_xyz
'x, y, z'
_cell_length_a     15.547426
_cell_length_b     15.546718
_cell_length_c     30.306304
_cell_angle_alpha  88.640802
_cell_angle_beta   88.62945
_cell_angle_gamma 90.710207
loop_
_atom_site_label
_atom_site_type_symbol
_atom_site_fract_x
_atom_site_fract_y
_atom_site_fract_z
_atom_type_partial_charge
Co0 Co 0.5973 0.16289 0.08656 0.0
C1 C 0.64425 0.99622 0.11765 0.0
C2 C 0.75167 0.05879 0.08421 0.0
C3 C 0.76573 0.97205 0.08663 0.0
N4 N 0.67489 0.07396 0.10343 0.0
N5 N 0.69671 0.93227 0.10585 0.0
H6 H 0.57856 0.9858 0.12921 0.0
H7 H 0.78875 0.10499 0.06425 0.0
C8 C 0.76835 0.26791 0.10623 0.0
O9 O 0.80017 0.20668 0.13127 0.0
N10 N 0.5135 0.24914 0.07081 0.0
C11 C 0.45507 0.24254 0.03892 0.0
C12 C 0.39281 0.30277 0.04509 0.0
C13 C 0.48629 0.31567 0.09539 0.0
N14 N 0.41202 0.34886 0.08022 0.0
C15 C 0.47351 0.13348 0.15638 0.0
C16 C 0.57714 0.16841 0.22658 0.0
C17 C 0.49596 0.12977 0.23547 0.0
C18 C 0.44334 0.11432 0.1995 0.0
C19 C 0.60551 0.18534 0.18273 0.0
N20 N 0.55478 0.16568 0.14811 0.0
H21 H 0.43233 0.11887 0.12926 0.0
H22 H 0.66924 0.21107 0.177 0.0
H23 H 0.45488 0.19586 0.01325 0.0
H24 H 0.5192 0.33784 0.12412 0.0
O25 O 0.52007 0.07157 0.06522 0.0
O26 O 0.61997 0.13675 0.02394 0.0
O27 O 0.6908 0.26073 0.09145 0.0
C28 C 0.56063 0.07691 0.02727 0.0
H29 H 0.81773 0.94015 0.07037 0.0
H30 H 0.33751 0.31284 0.02506 0.0
H31 H 0.62026 0.18173 0.25319 0.0
H32 H 0.37965 0.08621 0.20453 0.0
Co33 Co 0.46364 0.6187 0.59338 0.0
C34 C 0.62649 0.69957 0.60218 0.0
C35 C 0.55506 0.76351 0.55225 0.0
C36 C 0.64108 0.77472 0.54329 0.0
N37 N 0.54581 0.71194 0.58826 0.0
N38 N 0.68607 0.72977 0.5731 0.0
H39 H 0.64262 0.65176 0.62647 0.0
H40 H 0.50427 0.77816 0.52965 0.0
C41 C 0.35384 0.78441 0.60444 0.0
O42 O 0.42154 0.83547 0.60155 0.0
N43 N 0.38426 0.52232 0.60139 0.0
C44 C 0.40509 0.44485 0.61888 0.0
C45 C 0.33181 0.40015 0.63215 0.0
C46 C 0.29769 0.52419 0.60491 0.0
N47 N 0.26478 0.45009 0.623 0.0
C48 C 0.5512 0.54056 0.6636 0.0
C49 C 0.4726 0.62108 0.73312 0.0
C50 C 0.53256 0.55549 0.74129 0.0
C51 C 0.57173 0.5159 0.70571 0.0
C52 C 0.45247 0.64349 0.68941 0.0
N53 N 0.49142 0.60234 0.65522 0.0
H54 H 0.58438 0.50772 0.63767 0.0
H55 H 0.40535 0.69247 0.68339 0.0
H56 H 0.46961 0.42232 0.62297 0.0
H57 H 0.25978 0.57899 0.59533 0.0
O58 O 0.55195 0.5433 0.56765 0.0
O59 O 0.45917 0.61348 0.52811 0.0
O60 O 0.36232 0.70172 0.6052 0.0
C61 C 0.526 0.56352 0.52881 0.0
H62 H 0.6683 0.80189 0.51351 0.0
H63 H 0.32804 0.33675 0.64762 0.0
H64 H 0.44116 0.65396 0.76003 0.0
H65 H 0.61647 0.46364 0.70994 0.0
Co66 Co 1.00083 0.44047 0.09167 0.0
C67 C 0.98188 0.61185 0.12143 0.0
C68 C 0.85562 0.55519 0.11897 0.0
C69 C 0.84821 0.64161 0.12822 0.0
N70 N 0.93997 0.53767 0.114 0.0
N71 N 0.92802 0.67654 0.12843 0.0
H72 H 0.05093 0.61985 0.11904 0.0
H73 H 0.8031 0.51065 0.11431 0.0
C74 C 0.82715 0.34201 0.09139 0.0
O75 O 0.80554 0.3901 0.05733 0.0
N76 N 0.06873 0.34623 0.06936 0.0
C77 C 0.07736 0.325 0.02658 0.0
C78 C 0.14543 0.27033 0.02176 0.0
C79 C 0.13154 0.3027 0.09002 0.0
N80 N 0.17991 0.25702 0.0616 0.0
C81 C 0.13227 0.46374 0.15592 0.0
C82 C 1.03185 0.41968 0.22964 0.0
C83 C 0.11254 0.45886 0.23592 0.0
C84 C 0.16372 0.47877 0.19814 0.0
C85 C 1.00239 0.40647 0.18681 0.0
N86 N 0.05173 0.4297 0.15037 0.0
H87 H 0.17162 0.48316 0.12752 0.0
H88 H 0.93746 0.3828 0.18344 0.0
H89 H 1.03725 0.34774 1.00034 0.0
H90 H 0.14074 0.30162 0.12524 0.0
O91 O 0.0853 0.51999 0.06288 0.0
O92 O 0.96814 0.47399 0.03134 0.0
O93 O 0.9011 0.35455 0.10917 0.0
C94 C 1.03744 0.52208 0.0285 0.0
H95 H 0.78919 0.67652 0.13216 0.0
H96 H 0.16483 0.23848 0.99193 0.0
H97 H 0.98912 0.40424 0.25752 0.0
H98 H 0.2268 0.50816 0.20101 0.0
Co99 Co 0.15535 0.98806 0.58623 0.0
C100 C 0.99194 0.91718 0.6101 0.0
C101 C 0.0571 0.83349 0.56558 0.0
C102 C 0.97016 0.81754 0.5641 0.0
N103 N 0.07048 0.89752 0.59382 0.0
N104 N 0.92903 0.87396 0.59034 0.0
H105 H 0.98049 0.9753 0.62808 0.0
H106 H 0.10474 0.81055 0.54223 0.0
C107 C 0.26628 0.82387 0.60482 0.0
O108 O 0.19885 0.77421 0.61332 0.0
N109 N 0.23781 0.08266 0.58001 0.0
C110 C 0.22132 0.16366 0.56586 0.0
C111 C 0.28894 0.21661 0.57605 0.0
C112 C 0.3156 0.08798 0.59895 0.0
N113 N 0.34802 0.16914 0.59672 0.0
C114 C 0.11586 0.09301 0.65749 0.0
C115 C 0.10523 0.96363 0.721 0.0
C116 C 0.07507 1.04623 0.73099 0.0
C117 C 0.08245 0.11163 0.69886 0.0
C118 C 0.14078 0.94843 0.67938 0.0
N119 N 0.14353 1.01234 0.64794 0.0
H120 H 0.11379 0.14262 0.63222 0.0
H121 H 0.15934 0.884 0.67145 0.0
H122 H 0.16305 0.1846 0.55041 0.0
H123 H 0.34695 1.03419 0.61469 0.0
O124 O 0.06251 0.0622 0.56637 0.0
O125 O 0.14245 0.98404 0.52203 0.0
O126 O 0.25741 0.90479 0.59526 0.0
C127 C 0.07729 1.03573 0.52687 0.0
H128 H 0.94011 0.77775 0.53991 0.0
H129 H 0.29464 0.28445 0.56782 0.0
H130 H 0.09943 0.91044 0.74466 0.0
H131 H 0.06169 0.1765 0.70527 0.0
Co132 Co 0.61 0.4427 0.93076 0.0
C133 C 0.68089 0.60611 0.90689 0.0
C134 C 0.76456 0.54096 0.95141 0.0
C135 C 0.78052 0.62791 0.95288 0.0
N136 N 0.70055 0.52757 0.92317 0.0
N137 N 0.72411 0.66903 0.92664 0.0
H138 H 0.62278 0.61755 0.88891 0.0
H139 H 0.7875 0.49333 0.97476 0.0
C140 C 0.77419 0.33176 0.91218 0.0
O141 O 0.82385 0.39919 0.90367 0.0
N142 N 0.5154 0.36025 0.93699 0.0
C143 C 0.43441 0.37675 0.95114 0.0
C144 C 0.38145 0.30912 0.94096 0.0
C145 C 0.51008 0.28245 0.91805 0.0
N146 N 0.42892 0.25003 0.92028 0.0
C147 C 0.50506 0.48218 0.85952 0.0
C148 C 0.63443 0.49281 0.79599 0.0
C149 C 0.55183 0.52297 0.78602 0.0
C150 C 0.48644 0.51559 0.81815 0.0
C151 C 0.64963 0.45725 0.83761 0.0
N152 N 0.58572 0.45451 0.86906 0.0
H153 H 0.45545 0.48427 0.88479 0.0
H154 H 0.71405 0.43868 0.84553 0.0
H155 H 0.41347 0.43502 0.96661 0.0
H156 H 0.56386 0.2511 0.90229 0.0
O157 O 0.53587 0.53555 0.95064 0.0
O158 O 0.61402 0.45561 0.99496 0.0
O159 O 0.69326 0.34063 0.92172 0.0
C160 C 0.56234 0.52077 0.99014 0.0
H161 H 0.82031 0.65796 0.97707 0.0
H162 H 0.31362 0.30342 0.94919 0.0
H163 H 0.68761 0.4986 0.77233 0.0
H164 H 0.42157 0.53636 0.81175 0.0
Co165 Co 0.1576 0.59723 0.42533 0.0
C166 C 0.98622 0.61617 0.39559 0.0
C167 C 1.04289 0.74243 0.39803 0.0
C168 C 0.95648 0.74984 0.38879 0.0
N169 N 0.0604 0.65808 0.40302 0.0
N170 N 0.92154 0.67003 0.38859 0.0
H171 H 0.97822 0.54712 0.39798 0.0
H172 H 0.08744 0.79496 0.40269 0.0
C173 C 0.25605 0.77093 0.42562 0.0
O174 O 0.20796 0.79255 0.45968 0.0
N175 N 0.25184 0.52935 0.44764 0.0
C176 C 0.27307 0.52075 0.49042 0.0
C177 C 0.32774 0.45268 0.49523 0.0
C178 C 0.29537 0.46652 0.42698 0.0
N179 N 0.34105 0.41818 0.4554 0.0
C180 C 0.13435 0.46577 0.36108 0.0
C181 C 0.17839 0.5662 0.28736 0.0
C182 C 0.13919 0.48552 0.28108 0.0
C183 C 0.1193 0.43433 0.31886 0.0
C184 C 0.19161 0.59566 0.33019 0.0
N185 N 0.16838 0.54632 0.36663 0.0
H186 H 0.11493 0.42642 0.38947 0.0
H187 H 0.21528 0.66059 0.33356 0.0
H188 H 0.25034 0.56088 0.51665 0.0
H189 H 0.29644 0.45729 0.39176 0.0
O190 O 0.07809 0.51275 0.45412 0.0
O191 O 0.12407 0.62993 0.48566 0.0
O192 O 0.24352 0.69697 0.40783 0.0
C193 C 0.07598 0.56063 0.4885 0.0
H194 H 0.92157 0.80886 0.38484 0.0
H195 H 0.35959 0.43331 0.52507 0.0
H196 H 0.19383 0.60894 0.25948 0.0
H197 H 0.08991 0.37124 0.31598 0.0
Co198 Co 0.97936 0.13442 0.92363 0.0
C199 C 0.8985 0.97156 0.91483 0.0
C200 C 0.83453 1.04301 0.96477 0.0
C201 C 0.82331 0.95698 0.97372 0.0
N202 N 0.88613 0.05224 0.92876 0.0
N203 N 0.86829 0.91199 0.94391 0.0
H204 H 0.94634 0.95542 0.89055 0.0
H205 H 0.81986 0.09381 0.98736 0.0
C206 C 0.81365 0.2442 0.91256 0.0
O207 O 0.76261 0.17649 0.91543 0.0
N208 N 0.07574 0.21379 0.91563 0.0
C209 C 0.15322 0.19295 0.89815 0.0
C210 C 0.19792 0.26622 0.88486 0.0
C211 C 0.07387 0.30036 0.91209 0.0
N212 N 0.14797 0.33326 0.894 0.0
C213 C 0.05751 1.04686 0.8534 0.0
C214 C 0.97697 0.12545 0.7839 0.0
C215 C 1.04256 0.0655 0.77572 0.0
C216 C 0.08216 1.02633 0.81129 0.0
C217 C 0.95457 0.14558 0.82761 0.0
N218 N 0.99572 0.10663 0.86179 0.0
H219 H 0.09035 1.01368 0.87932 0.0
H220 H 0.90558 0.1927 0.83364 0.0
H221 H 0.17574 0.12842 0.89406 0.0
H222 H 1.01907 0.33829 0.92166 0.0
O223 O 0.05476 1.0461 0.94935 0.0
O224 O 0.98458 0.13889 0.98891 0.0
O225 O 0.89634 0.23574 0.91183 0.0
C226 C 1.03454 0.07206 0.9882 0.0
H227 H 0.79611 0.92977 1.00349 0.0
H228 H 0.26133 0.26997 0.8694 0.0
H229 H 0.94408 0.15689 0.757 0.0
H230 H 0.13442 0.9816 0.80704 0.0
Co231 Co 0.43519 1.00077 0.43045 0.0
C232 C 0.60186 0.95381 0.39936 0.0
C233 C 0.53929 0.84639 0.43279 0.0
C234 C 0.62602 0.83234 0.43037 0.0
N235 N 0.52412 0.92317 0.41357 0.0
N236 N 0.66581 0.90135 0.41115 0.0
H237 H 0.61229 1.0195 0.3878 0.0
H238 H 0.49307 0.80932 0.45275 0.0
C239 C 0.33016 0.82971 0.41077 0.0
O240 O 0.3914 0.79787 0.38574 0.0
N241 N 0.34893 0.08457 0.44621 0.0
C242 C 0.35554 0.14303 0.47808 0.0
C243 C 0.2953 0.20528 0.47192 0.0
C244 C 0.2824 0.11176 0.42163 0.0
N245 N 0.2492 0.18604 0.4368 0.0
C246 C 0.46459 0.12456 0.36064 0.0
C247 C 0.4297 1.02092 0.29043 0.0
C248 C 0.46832 0.10211 0.28155 0.0
C249 C 0.48375 0.15474 0.31752 0.0
C250 C 0.41278 0.99255 0.33427 0.0
N251 N 0.43241 1.04328 0.3689 0.0
H252 H 0.47919 0.16574 0.38776 0.0
H253 H 0.38707 0.9288 0.34001 0.0
H254 H 0.40222 0.14324 0.50375 0.0
H255 H 0.26022 0.07882 0.39291 0.0
O256 O 0.5265 0.078 0.45179 0.0
O257 O 0.46131 0.9781 0.49307 0.0
O258 O 0.33735 0.90727 0.42556 0.0
C259 C 0.52115 1.03744 0.48974 0.0
H260 H 0.65791 0.78034 0.44663 0.0
H261 H 0.28523 0.26059 0.49195 0.0
H262 H 0.4164 0.9778 0.26381 0.0
H263 H 0.51184 0.21844 0.3125 0.0
Co264 Co 0.50135 0.93465 0.93045 0.0
C265 C 0.45442 0.10134 0.8994 0.0
C266 C 0.34696 1.03877 0.93282 0.0
C267 C 0.33291 0.12552 0.93043 0.0
N268 N 0.42375 1.02359 0.91359 0.0
N269 N 0.402 0.16525 0.91126 0.0
H270 H 0.5201 0.11176 0.88781 0.0
H271 H 0.30985 0.99254 0.95275 0.0
C272 C 0.33031 0.8296 0.91077 0.0
O273 O 0.29848 0.89084 0.88575 0.0
N274 N 0.58514 0.8484 0.9462 0.0
C275 C 0.64361 0.85501 0.97807 0.0
C276 C 0.70582 0.79471 0.97192 0.0
C277 C 0.61227 0.78181 0.92164 0.0
N278 N 0.68647 0.74853 0.93685 0.0
C279 C 0.62513 0.96406 0.86063 0.0
C280 C 0.52149 0.9291 0.79043 0.0
C281 C 0.60267 0.96774 0.78154 0.0
C282 C 0.6553 0.98321 0.8175 0.0
C283 C 0.49313 0.91219 0.83428 0.0
N284 N 0.54386 0.93186 0.86891 0.0
H285 H 0.66631 0.97868 0.88775 0.0
H286 H 0.4294 0.88646 0.84002 0.0
H287 H 0.64388 0.90175 1.00371 0.0
H288 H 0.57938 0.75967 0.89289 0.0
O289 O 0.57858 1.02597 0.9518 0.0
O290 O 0.47868 0.96078 0.99308 0.0
O291 O 0.40786 0.8368 0.92557 0.0
C292 C 0.53802 1.02062 0.98975 0.0
H293 H 0.28087 0.15743 0.94666 0.0
H294 H 0.76118 0.78469 0.99191 0.0
H295 H 0.47837 0.91577 0.76383 0.0
H296 H 0.71898 1.01132 0.81247 0.0
Co297 Co 0.63503 0.47891 0.42363 0.0
C298 C 0.47209 0.3982 0.41488 0.0
C299 C 0.5436 0.33403 0.46474 0.0
C300 C 0.45758 0.32276 0.47373 0.0
N301 N 0.55279 0.38573 0.42875 0.0
N302 N 0.41263 0.36787 0.44397 0.0
H303 H 0.45591 0.44613 0.39066 0.0
H304 H 0.59443 0.31929 0.48729 0.0
C305 C 0.74475 0.31315 0.41253 0.0
O306 O 0.67703 0.26212 0.41535 0.0
N307 N 0.71445 0.57526 0.41562 0.0
C308 C 0.69361 0.65272 0.39813 0.0
C309 C 0.76687 0.69741 0.38483 0.0
C310 C 0.80102 0.57338 0.41208 0.0
N311 N 0.83391 0.64749 0.39399 0.0
C312 C 0.54747 0.55705 0.3534 0.0
C313 C 0.62607 0.47652 0.28389 0.0
C314 C 0.56611 0.5421 0.27572 0.0
C315 C 0.52693 0.58169 0.31129 0.0
C316 C 0.64621 0.45412 0.3276 0.0
N317 N 0.60725 0.49527 0.36178 0.0
H318 H 0.51429 0.58989 0.37933 0.0
H319 H 0.69334 0.40515 0.33362 0.0
H320 H 0.62909 0.67523 0.39402 0.0
H321 H 0.83894 0.51856 0.42162 0.0
O322 O 0.54675 0.55436 0.44935 0.0
O323 O 0.63948 0.48412 0.4889 0.0
O324 O 0.73631 0.39584 0.41182 0.0
C325 C 0.57267 0.5341 0.4882 0.0
H326 H 0.43038 0.29545 0.50348 0.0
H327 H 0.77062 0.76078 0.36932 0.0
H328 H 0.65752 0.44364 0.25698 0.0
H329 H 0.48219 0.63395 0.30705 0.0
Co330 Co 0.09785 0.65706 0.92534 0.0
C331 C 0.11673 0.48559 0.89572 0.0
C332 C 0.243 0.5423 0.89798 0.0
C333 C 0.2504 0.45584 0.88879 0.0
N334 N 0.15866 0.55981 0.90305 0.0
N335 N 0.17059 0.4209 0.88876 0.0
H336 H 1.04768 0.47759 0.89813 0.0
H337 H 0.29554 0.5869 0.90251 0.0
C338 C 0.27155 0.75547 0.9256 0.0
O339 O 0.29319 0.70734 0.95964 0.0
N340 N 1.03 0.75136 0.94762 0.0
C341 C 1.02133 0.7726 0.99041 0.0
C342 C 0.95329 0.82732 0.99521 0.0
C343 C 0.96724 0.79493 0.92694 0.0
N344 N 0.91897 0.8407 0.95535 0.0
C345 C 0.96641 0.63375 0.86109 0.0
C346 C 0.06683 0.67777 0.78736 0.0
C347 C 0.98614 0.63858 0.78108 0.0
C348 C 0.93497 0.61869 0.81887 0.0
C349 C 0.0963 0.691 0.83019 0.0
N350 N 1.04695 0.66779 0.86664 0.0
H351 H 0.92706 0.61433 0.88949 0.0
H352 H 0.16122 0.71468 0.83356 0.0
H353 H 0.06136 0.7498 0.01666 0.0
H354 H 0.95801 0.79594 0.89172 0.0
O355 O 1.01333 0.57763 0.95416 0.0
O356 O 0.13052 0.62359 0.98568 0.0
O357 O 0.1976 0.74294 0.90782 0.0
C358 C 0.0612 0.57553 0.98853 0.0
H359 H 0.30941 0.42094 0.88474 0.0
H360 H 0.9338 0.85911 0.02505 0.0
H361 H 0.10957 0.6932 0.75948 0.0
H362 H 0.87188 0.58929 0.816 0.0
Co363 Co 0.94319 0.10944 0.43078 0.0
C364 C 0.10664 0.18025 0.40694 0.0
C365 C 1.04147 0.26399 0.45145 0.0
C366 C 0.12842 0.2799 0.45298 0.0
N367 N 1.02809 0.19997 0.4232 0.0
N368 N 0.16949 0.22342 0.42677 0.0
H369 H 0.11811 0.12216 0.38894 0.0
H370 H 0.9938 0.28697 0.47478 0.0
C371 C 0.83231 0.27366 0.41219 0.0
O372 O 0.89975 0.32331 0.4037 0.0
N373 N 0.86072 1.01487 0.437 0.0
C374 C 0.87721 0.93386 0.45115 0.0
C375 C 0.80958 0.88091 0.44099 0.0
C376 C 0.7829 1.00955 0.41809 0.0
N377 N 0.75045 0.9284 0.42038 0.0
C378 C 0.98268 1.00448 0.35953 0.0
C379 C 0.99334 0.13385 0.29601 0.0
C380 C 1.02348 0.05124 0.28603 0.0
C381 C 1.01609 0.98585 0.31816 0.0
C382 C 0.95779 0.14906 0.33763 0.0
N383 N 0.95503 0.08515 0.36908 0.0
H384 H 0.98475 0.95488 0.3848 0.0
H385 H 0.93924 0.21349 0.34556 0.0
H386 H 0.93551 0.91291 0.46657 0.0
H387 H 0.75158 0.06332 0.40231 0.0
O388 O 1.03601 1.03529 0.45065 0.0
O389 O 0.95608 0.11347 0.49498 0.0
O390 O 0.84114 0.19273 0.42173 0.0
C391 C 1.02123 0.06177 0.49015 0.0
H392 H 0.15847 0.31971 0.47716 0.0
H393 H 0.80392 0.81305 0.44918 0.0
H394 H 0.99915 0.18704 0.27235 0.0
H395 H 1.03685 0.92098 0.31175 0.0
Co396 Co 0.48862 0.65488 0.08624 0.0
C397 C 0.4178 0.49144 0.11008 0.0
C398 C 0.33408 0.55659 0.06558 0.0
C399 C 0.31816 0.46964 0.06406 0.0
N400 N 0.3981 0.56998 0.09382 0.0
N401 N 0.37464 0.42858 0.09026 0.0
H402 H 0.47589 0.47998 0.12808 0.0
H403 H 0.31111 0.60425 0.04225 0.0
C404 C 0.32441 0.76577 0.10483 0.0
O405 O 0.27476 0.69833 0.11332 0.0
N406 N 0.5832 0.73735 0.08001 0.0
C407 C 0.6642 0.72085 0.06585 0.0
C408 C 0.71715 0.78848 0.07601 0.0
C409 C 0.58852 0.81517 0.09892 0.0
N410 N 0.66966 0.84762 0.09663 0.0
C411 C 0.59358 0.61539 0.15747 0.0
C412 C 0.46422 0.60475 0.22101 0.0
C413 C 0.54682 0.5746 0.23098 0.0
C414 C 0.61221 0.58199 0.19884 0.0
C415 C 0.44901 0.6403 0.17939 0.0
N416 N 0.51291 0.64306 0.14794 0.0
H417 H 0.64318 0.61332 0.1322 0.0
H418 H 0.38458 0.65885 0.17147 0.0
H419 H 0.68515 0.66254 0.05042 0.0
H420 H 0.53475 0.84649 0.11472 0.0
O421 O 0.56277 0.56205 0.06635 0.0
O422 O 0.48459 0.64198 0.02204 0.0
O423 O 0.40534 0.75694 0.09529 0.0
C424 C 0.53629 0.57683 0.02686 0.0
H425 H 0.27836 0.43958 0.03987 0.0
H426 H 0.78501 0.79414 0.06782 0.0
H427 H 0.41104 0.59895 0.24467 0.0
H428 H 0.67708 0.56123 0.20524 0.0
Co429 Co 0.94099 0.50022 0.59167 0.0
C430 C 0.11246 0.48135 0.62127 0.0
C431 C 0.05575 0.35507 0.61903 0.0
C432 C 0.1422 0.34767 0.62822 0.0
N433 N 1.03824 0.43942 0.61395 0.0
N434 N 0.17714 0.42749 0.62823 0.0
H435 H 0.12046 0.55039 0.61885 0.0
H436 H 1.01114 0.30253 0.61451 0.0
C437 C 0.84259 0.3265 0.59141 0.0
O438 O 0.89072 0.30485 0.55736 0.0
N439 N 0.84669 0.56805 0.56939 0.0
C440 C 0.82545 0.57669 0.52661 0.0
C441 C 0.77073 0.64472 0.5218 0.0
C442 C 0.80312 0.63082 0.59008 0.0
N443 N 0.75735 0.67907 0.56166 0.0
C444 C 0.96429 0.63167 0.65593 0.0
C445 C 0.92028 0.53124 0.72965 0.0
C446 C 0.95949 0.61192 0.73593 0.0
C447 C 0.97936 0.6631 0.69815 0.0
C448 C 0.90704 0.50178 0.68682 0.0
N449 N 0.93025 0.55112 0.65037 0.0
H450 H 0.9837 0.67102 0.62753 0.0
H451 H 0.88336 0.43685 0.68345 0.0
H452 H 0.84825 0.53663 0.50036 0.0
H453 H 0.80212 0.64009 0.62529 0.0
O454 O 1.02042 0.58474 0.56285 0.0
O455 O 0.97447 0.46753 0.53133 0.0
O456 O 0.85511 0.40046 0.60919 0.0
C457 C 1.02252 0.53686 0.52847 0.0
H458 H 0.17708 0.28866 0.63227 0.0
H459 H 0.73894 0.66419 0.49196 0.0
H460 H 0.90485 0.4885 0.75753 0.0
H461 H 1.00876 0.72619 0.70102 0.0
Co462 Co 0.11916 0.96304 0.09337 0.0
C463 C 0.19985 0.12598 0.10211 0.0
C464 C 0.26405 0.05445 0.05226 0.0
C465 C 0.27533 0.14048 0.04327 0.0
N466 N 0.21233 1.04528 0.08824 0.0
N467 N 0.2302 0.18544 0.07302 0.0
H468 H 0.1519 0.14217 0.12633 0.0
H469 H 0.27882 1.00361 0.02971 0.0
C470 C 0.28491 0.85333 0.10448 0.0
O471 O 0.33593 0.92106 0.10168 0.0
N472 N 1.02281 0.88362 0.10138 0.0
C473 C 0.94534 0.90448 0.11886 0.0
C474 C 0.90064 0.83122 0.13217 0.0
C475 C 1.02468 0.79705 0.10493 0.0
N476 N 0.95057 0.76417 0.12302 0.0
C477 C 1.04101 0.0506 0.16361 0.0
C478 C 0.12156 0.972 0.2331 0.0
C479 C 0.05598 1.03195 0.24129 0.0
C480 C 1.01637 0.07113 0.20572 0.0
C481 C 0.14395 0.95187 0.18939 0.0
N482 N 0.1028 0.99082 0.15521 0.0
H483 H 1.00817 0.08377 0.13769 0.0
H484 H 0.19293 0.90474 0.18336 0.0
H485 H 0.92284 0.969 0.12296 0.0
H486 H 0.0795 0.75912 0.09539 0.0
O487 O 1.04371 0.05132 0.06766 0.0
O488 O 0.11395 0.95859 0.02809 0.0
O489 O 0.20222 0.86176 0.10516 0.0
C490 C 0.06396 1.02539 0.0288 0.0
H491 H 0.30268 0.16767 0.01353 0.0
H492 H 0.83727 0.82748 0.14767 0.0
H493 H 0.15444 0.94056 0.26 0.0
H494 H 0.96412 0.11587 0.20997 0.0
Co495 Co 0.66339 0.09671 0.58655 0.0
C496 C 0.4967 0.14364 0.61761 0.0
C497 C 0.55929 0.25111 0.58419 0.0
C498 C 0.47253 0.26515 0.58658 0.0
N499 N 0.57445 0.17431 0.60342 0.0
N500 N 0.4328 0.19606 0.60574 0.0
H501 H 0.48627 0.07797 0.62919 0.0
H502 H 0.60552 0.28821 0.56426 0.0
C503 C 0.76845 0.26775 0.60623 0.0
O504 O 0.70721 0.29961 0.63125 0.0
N505 N 0.74965 1.01292 0.57079 0.0
C506 C 0.74304 0.95442 0.53893 0.0
C507 C 0.80334 0.89222 0.54507 0.0
C508 C 0.81624 0.9858 0.59535 0.0
N509 N 0.84953 0.9116 0.58014 0.0
C510 C 0.63399 0.97292 0.65636 0.0
C511 C 0.66891 0.07657 0.72657 0.0
C512 C 0.6303 0.99539 0.73546 0.0
C513 C 0.61485 0.94275 0.69949 0.0
C514 C 0.68582 0.10494 0.68272 0.0
N515 N 0.66617 0.0542 0.64809 0.0
H516 H 0.61938 0.93174 0.62924 0.0
H517 H 0.71153 0.16868 0.67698 0.0
H518 H 0.69629 0.95412 0.5133 0.0
H519 H 0.83838 1.01872 0.62409 0.0
O520 O 0.57209 1.01948 0.5652 0.0
O521 O 0.63728 0.11937 0.52392 0.0
O522 O 0.76124 0.1902 0.59144 0.0
C523 C 0.57745 0.06003 0.52726 0.0
H524 H 0.44063 0.31719 0.57035 0.0
H525 H 0.81337 0.83684 0.52509 0.0
H526 H 0.68223 0.1197 0.75318 0.0
H527 H 0.58676 0.87905 0.70451 0.0
loop_
_geom_bond_atom_site_label_1
_geom_bond_atom_site_label_2
_geom_bond_distance
_geom_bond_site_symmetry_2
_ccdc_geom_bond_type
Co0 N4 2.148 . S
Co0 N10 2.128 . S
Co0 N20 2.194 . S
Co0 O25 2.351 . S
Co0 O26 2.155 . S
Co0 O27 2.096 . S
C1 N4 1.301 1_565 S
C1 N5 1.328 . S
C1 H6 0.930 . S
C2 C3 1.333 . S
C2 N4 1.317 1_565 S
C2 H7 0.930 1_565 S
C3 C2 1.333 . S
C3 N5 1.350 . S
C3 H29 0.931 . S
N4 Co0 2.148 . S
N4 C1 1.301 1_545 S
N4 C2 1.317 1_545 S
N5 C1 1.328 . S
N5 C3 1.350 . S
H6 C1 0.930 . S
H7 C2 0.930 1_545 S
C8 O9 1.224 . S
C8 O27 1.247 . S
O9 C8 1.224 . S
N10 Co0 2.128 . S
N10 C11 1.355 . S
N10 C13 1.311 . S
C11 N10 1.355 . S
C11 C12 1.363 . S
C11 H23 0.929 . S
C12 C11 1.363 . S
C12 N14 1.375 . S
C12 H30 0.931 . S
C13 N10 1.311 . S
C13 N14 1.347 . S
C13 H24 0.929 . S
N14 C12 1.375 . S
N14 C13 1.347 . S
C15 C18 1.365 . S
C15 N20 1.328 . S
C15 H21 0.929 . S
C16 C17 1.362 . S
C16 C19 1.378 . S
C16 H31 0.929 . S
C17 C16 1.362 . S
C17 C18 1.366 . S
C18 C15 1.365 . S
C18 C17 1.366 . S
C18 H32 0.930 . S
C19 C16 1.378 . S
C19 N20 1.315 . S
C19 H22 0.930 . S
N20 Co0 2.194 . S
N20 C15 1.328 . S
N20 C19 1.315 . S
H21 C15 0.929 . S
H22 C19 0.930 . S
H23 C11 0.929 . S
H24 C13 0.929 . S
O25 Co0 2.351 . S
O25 C28 1.244 . S
O26 Co0 2.155 . S
O26 C28 1.240 . S
O27 Co0 2.096 . S
O27 C8 1.247 . S
C28 O25 1.244 . S
C28 O26 1.240 . S
H29 C3 0.931 . S
H30 C12 0.931 . S
H31 C16 0.929 . S
H32 C18 0.930 . S
Co33 N37 2.148 . S
Co33 N43 2.128 . S
Co33 N53 2.194 . S
Co33 O58 2.351 . S
Co33 O59 2.155 . S
Co33 O60 2.096 . S
C34 N37 1.301 . S
C34 N38 1.328 . S
C34 H39 0.930 . S
C35 C36 1.333 . S
C35 N37 1.317 . S
C35 H40 0.930 . S
C36 C35 1.333 . S
C36 N38 1.350 . S
C36 H62 0.931 . S
N37 Co33 2.148 . S
N37 C34 1.301 . S
N37 C35 1.317 . S
N38 C34 1.328 . S
N38 C36 1.350 . S
H39 C34 0.930 . S
H40 C35 0.930 . S
C41 O42 1.224 . S
C41 O60 1.247 . S
O42 C41 1.224 . S
N43 Co33 2.128 . S
N43 C44 1.355 . S
N43 C46 1.311 . S
C44 N43 1.355 . S
C44 C45 1.363 . S
C44 H56 0.929 . S
C45 C44 1.363 . S
C45 N47 1.375 . S
C45 H63 0.931 . S
C46 N43 1.311 . S
C46 N47 1.347 . S
C46 H57 0.929 . S
N47 C45 1.375 . S
N47 C46 1.347 . S
C48 C51 1.365 . S
C48 N53 1.328 . S
C48 H54 0.929 . S
C49 C50 1.362 . S
C49 C52 1.378 . S
C49 H64 0.929 . S
C50 C49 1.362 . S
C50 C51 1.366 . S
C51 C48 1.365 . S
C51 C50 1.366 . S
C51 H65 0.930 . S
C52 C49 1.378 . S
C52 N53 1.315 . S
C52 H55 0.930 . S
N53 Co33 2.194 . S
N53 C48 1.328 . S
N53 C52 1.315 . S
H54 C48 0.929 . S
H55 C52 0.930 . S
H56 C44 0.929 . S
H57 C46 0.929 . S
O58 Co33 2.351 . S
O58 C61 1.244 . S
O59 Co33 2.155 . S
O59 C61 1.240 . S
O60 Co33 2.096 . S
O60 C41 1.247 . S
C61 O58 1.244 . S
C61 O59 1.240 . S
H62 C36 0.931 . S
H63 C45 0.931 . S
H64 C49 0.929 . S
H65 C51 0.930 . S
Co66 N70 2.148 . S
Co66 N76 2.128 1_655 S
Co66 N86 2.194 1_655 S
Co66 O91 2.351 1_655 S
Co66 O92 2.155 . S
Co66 O93 2.096 . S
C67 N70 1.301 . S
C67 N71 1.328 . S
C67 H72 0.930 . S
C68 C69 1.333 . S
C68 N70 1.317 . S
C68 H73 0.930 . S
C69 C68 1.333 . S
C69 N71 1.350 . S
C69 H95 0.931 . S
N70 Co66 2.148 . S
N70 C67 1.301 . S
N70 C68 1.317 . S
N71 C67 1.328 . S
N71 C69 1.350 . S
H72 C67 0.930 . S
H73 C68 0.930 . S
C74 O75 1.224 . S
C74 O93 1.247 . S
O75 C74 1.224 . S
N76 Co66 2.128 1_455 S
N76 C77 1.355 . S
N76 C79 1.311 1_455 S
C77 N76 1.355 . S
C77 C78 1.363 . S
C77 H89 0.929 . S
C78 C77 1.363 . S
C78 N80 1.375 . S
C78 H96 0.931 . S
C79 N76 1.311 1_655 S
C79 N80 1.347 1_655 S
C79 H90 0.929 . S
N80 C78 1.375 . S
N80 C79 1.347 1_455 S
C81 C84 1.365 . S
C81 N86 1.328 . S
C81 H87 0.929 . S
C82 C83 1.362 . S
C82 C85 1.378 1_455 S
C82 H97 0.929 1_455 S
C83 C82 1.362 . S
C83 C84 1.366 . S
C84 C81 1.365 . S
C84 C83 1.366 . S
C84 H98 0.930 . S
C85 C82 1.378 1_655 S
C85 N86 1.315 1_655 S
C85 H88 0.930 . S
N86 Co66 2.194 1_455 S
N86 C81 1.328 . S
N86 C85 1.315 1_455 S
H87 C81 0.929 . S
H88 C85 0.930 . S
H89 C77 0.929 . S
H90 C79 0.929 . S
O91 Co66 2.351 1_455 S
O91 C94 1.244 . S
O92 Co66 2.155 . S
O92 C94 1.240 1_655 S
O93 Co66 2.096 . S
O93 C74 1.247 . S
C94 O91 1.244 . S
C94 O92 1.240 1_455 S
H95 C69 0.931 . S
H96 C78 0.931 . S
H97 C82 0.929 1_655 S
H98 C84 0.930 . S
Co99 N103 2.148 . S
Co99 N109 2.128 1_565 S
Co99 N119 2.194 1_565 S
Co99 O124 2.351 1_565 S
Co99 O125 2.155 . S
Co99 O126 2.096 . S
C100 N103 1.301 1_655 S
C100 N104 1.328 . S
C100 H105 0.930 . S
C101 C102 1.333 . S
C101 N103 1.317 1_655 S
C101 H106 0.930 1_655 S
C102 C101 1.333 . S
C102 N104 1.350 . S
C102 H128 0.931 . S
N103 Co99 2.148 . S
N103 C100 1.301 1_455 S
N103 C101 1.317 1_455 S
N104 C100 1.328 . S
N104 C102 1.350 . S
H105 C100 0.930 . S
H106 C101 0.930 1_455 S
C107 O108 1.224 . S
C107 O126 1.247 . S
O108 C107 1.224 . S
N109 Co99 2.128 1_545 S
N109 C110 1.355 . S
N109 C112 1.311 1_545 S
C110 N109 1.355 . S
C110 C111 1.363 . S
C110 H122 0.929 . S
C111 C110 1.363 . S
C111 N113 1.375 . S
C111 H129 0.931 . S
C112 N109 1.311 1_565 S
C112 N113 1.347 1_565 S
C112 H123 0.929 . S
N113 C111 1.375 . S
N113 C112 1.347 1_545 S
C114 C117 1.365 . S
C114 N119 1.328 . S
C114 H120 0.929 . S
C115 C116 1.362 . S
C115 C118 1.378 1_545 S
C115 H130 0.929 1_545 S
C116 C115 1.362 . S
C116 C117 1.366 . S
C117 C114 1.365 . S
C117 C116 1.366 . S
C117 H131 0.930 . S
C118 C115 1.378 1_565 S
C118 N119 1.315 1_565 S
C118 H121 0.930 . S
N119 Co99 2.194 1_545 S
N119 C114 1.328 . S
N119 C118 1.315 1_545 S
H120 C114 0.929 . S
H121 C118 0.930 . S
H122 C110 0.929 . S
H123 C112 0.929 . S
O124 Co99 2.351 1_545 S
O124 C127 1.244 . S
O125 Co99 2.155 . S
O125 C127 1.240 1_565 S
O126 Co99 2.096 . S
O126 C107 1.247 . S
C127 O124 1.244 . S
C127 O125 1.240 1_545 S
H128 C102 0.931 . S
H129 C111 0.931 . S
H130 C115 0.929 1_565 S
H131 C117 0.930 . S
Co132 N136 2.148 . S
Co132 N142 2.128 . S
Co132 N152 2.194 . S
Co132 O157 2.351 . S
Co132 O158 2.155 . S
Co132 O159 2.096 . S
C133 N136 1.301 . S
C133 N137 1.328 . S
C133 H138 0.930 . S
C134 C135 1.333 . S
C134 N136 1.317 . S
C134 H139 0.930 . S
C135 C134 1.333 . S
C135 N137 1.350 . S
C135 H161 0.931 . S
N136 Co132 2.148 . S
N136 C133 1.301 . S
N136 C134 1.317 . S
N137 C133 1.328 . S
N137 C135 1.350 . S
H138 C133 0.930 . S
H139 C134 0.930 . S
C140 O141 1.224 . S
C140 O159 1.247 . S
O141 C140 1.224 . S
N142 Co132 2.128 . S
N142 C143 1.355 . S
N142 C145 1.311 . S
C143 N142 1.355 . S
C143 C144 1.363 . S
C143 H155 0.929 . S
C144 C143 1.363 . S
C144 N146 1.375 . S
C144 H162 0.931 . S
C145 N142 1.311 . S
C145 N146 1.347 . S
C145 H156 0.929 . S
N146 C144 1.375 . S
N146 C145 1.347 . S
C147 C150 1.365 . S
C147 N152 1.328 . S
C147 H153 0.929 . S
C148 C149 1.362 . S
C148 C151 1.378 . S
C148 H163 0.929 . S
C149 C148 1.362 . S
C149 C150 1.366 . S
C150 C147 1.365 . S
C150 C149 1.366 . S
C150 H164 0.930 . S
C151 C148 1.378 . S
C151 N152 1.315 . S
C151 H154 0.930 . S
N152 Co132 2.194 . S
N152 C147 1.328 . S
N152 C151 1.315 . S
H153 C147 0.929 . S
H154 C151 0.930 . S
H155 C143 0.929 . S
H156 C145 0.929 . S
O157 Co132 2.351 . S
O157 C160 1.244 . S
O158 Co132 2.155 . S
O158 C160 1.240 . S
O159 Co132 2.096 . S
O159 C140 1.247 . S
C160 O157 1.244 . S
C160 O158 1.240 . S
H161 C135 0.931 . S
H162 C144 0.931 . S
H163 C148 0.929 . S
H164 C150 0.930 . S
Co165 N169 2.148 . S
Co165 N175 2.128 . S
Co165 N185 2.194 . S
Co165 O190 2.351 . S
Co165 O191 2.155 . S
Co165 O192 2.096 . S
C166 N169 1.301 1_655 S
C166 N170 1.328 . S
C166 H171 0.930 . S
C167 C168 1.333 . S
C167 N169 1.317 1_655 S
C167 H172 0.930 1_655 S
C168 C167 1.333 . S
C168 N170 1.350 . S
C168 H194 0.931 . S
N169 Co165 2.148 . S
N169 C166 1.301 1_455 S
N169 C167 1.317 1_455 S
N170 C166 1.328 . S
N170 C168 1.350 . S
H171 C166 0.930 . S
H172 C167 0.930 1_455 S
C173 O174 1.224 . S
C173 O192 1.247 . S
O174 C173 1.224 . S
N175 Co165 2.128 . S
N175 C176 1.355 . S
N175 C178 1.311 . S
C176 N175 1.355 . S
C176 C177 1.363 . S
C176 H188 0.929 . S
C177 C176 1.363 . S
C177 N179 1.375 . S
C177 H195 0.931 . S
C178 N175 1.311 . S
C178 N179 1.347 . S
C178 H189 0.929 . S
N179 C177 1.375 . S
N179 C178 1.347 . S
C180 C183 1.365 . S
C180 N185 1.328 . S
C180 H186 0.929 . S
C181 C182 1.362 . S
C181 C184 1.378 . S
C181 H196 0.929 . S
C182 C181 1.362 . S
C182 C183 1.366 . S
C183 C180 1.365 . S
C183 C182 1.366 . S
C183 H197 0.930 . S
C184 C181 1.378 . S
C184 N185 1.315 . S
C184 H187 0.930 . S
N185 Co165 2.194 . S
N185 C180 1.328 . S
N185 C184 1.315 . S
H186 C180 0.929 . S
H187 C184 0.930 . S
H188 C176 0.929 . S
H189 C178 0.929 . S
O190 Co165 2.351 . S
O190 C193 1.244 . S
O191 Co165 2.155 . S
O191 C193 1.240 . S
O192 Co165 2.096 . S
O192 C173 1.247 . S
C193 O190 1.244 . S
C193 O191 1.240 . S
H194 C168 0.931 . S
H195 C177 0.931 . S
H196 C181 0.929 . S
H197 C183 0.930 . S
Co198 N202 2.148 . S
Co198 N208 2.128 1_655 S
Co198 N218 2.194 1_655 S
Co198 O223 2.351 1_655 S
Co198 O224 2.155 . S
Co198 O225 2.096 . S
C199 N202 1.301 1_565 S
C199 N203 1.328 . S
C199 H204 0.930 . S
C200 C201 1.333 . S
C200 N202 1.317 1_565 S
C200 H205 0.930 1_565 S
C201 C200 1.333 . S
C201 N203 1.350 . S
C201 H227 0.931 . S
N202 Co198 2.148 . S
N202 C199 1.301 1_545 S
N202 C200 1.317 1_545 S
N203 C199 1.328 . S
N203 C201 1.350 . S
H204 C199 0.930 . S
H205 C200 0.930 1_545 S
C206 O207 1.224 . S
C206 O225 1.247 . S
O207 C206 1.224 . S
N208 Co198 2.128 1_455 S
N208 C209 1.355 . S
N208 C211 1.311 1_455 S
C209 N208 1.355 . S
C209 C210 1.363 . S
C209 H221 0.929 . S
C210 C209 1.363 . S
C210 N212 1.375 . S
C210 H228 0.931 . S
C211 N208 1.311 1_655 S
C211 N212 1.347 1_655 S
C211 H222 0.929 . S
N212 C210 1.375 . S
N212 C211 1.347 1_455 S
C213 C216 1.365 . S
C213 N218 1.328 . S
C213 H219 0.929 . S
C214 C215 1.362 . S
C214 C217 1.378 1_455 S
C214 H229 0.929 1_455 S
C215 C214 1.362 . S
C215 C216 1.366 . S
C216 C213 1.365 . S
C216 C215 1.366 . S
C216 H230 0.930 . S
C217 C214 1.378 1_655 S
C217 N218 1.315 1_655 S
C217 H220 0.930 . S
N218 Co198 2.194 1_455 S
N218 C213 1.328 . S
N218 C217 1.315 1_455 S
H219 C213 0.929 . S
H220 C217 0.930 . S
H221 C209 0.929 . S
H222 C211 0.929 . S
O223 Co198 2.351 1_455 S
O223 C226 1.244 . S
O224 Co198 2.155 . S
O224 C226 1.240 1_655 S
O225 Co198 2.096 . S
O225 C206 1.247 . S
C226 O223 1.244 . S
C226 O224 1.240 1_455 S
H227 C201 0.931 . S
H228 C210 0.931 . S
H229 C214 0.929 1_655 S
H230 C216 0.930 . S
Co231 N235 2.148 . S
Co231 N241 2.128 1_565 S
Co231 N251 2.194 1_565 S
Co231 O256 2.351 1_565 S
Co231 O257 2.155 . S
Co231 O258 2.096 . S
C232 N235 1.301 . S
C232 N236 1.328 . S
C232 H237 0.930 . S
C233 C234 1.333 . S
C233 N235 1.317 . S
C233 H238 0.930 . S
C234 C233 1.333 . S
C234 N236 1.350 . S
C234 H260 0.931 . S
N235 Co231 2.148 . S
N235 C232 1.301 . S
N235 C233 1.317 . S
N236 C232 1.328 . S
N236 C234 1.350 . S
H237 C232 0.930 . S
H238 C233 0.930 . S
C239 O240 1.224 . S
C239 O258 1.247 . S
O240 C239 1.224 . S
N241 Co231 2.128 1_545 S
N241 C242 1.355 . S
N241 C244 1.311 1_545 S
C242 N241 1.355 . S
C242 C243 1.363 . S
C242 H254 0.929 . S
C243 C242 1.363 . S
C243 N245 1.375 . S
C243 H261 0.931 . S
C244 N241 1.311 1_565 S
C244 N245 1.347 1_565 S
C244 H255 0.929 . S
N245 C243 1.375 . S
N245 C244 1.347 1_545 S
C246 C249 1.365 . S
C246 N251 1.328 . S
C246 H252 0.929 . S
C247 C248 1.362 . S
C247 C250 1.378 1_545 S
C247 H262 0.929 1_545 S
C248 C247 1.362 . S
C248 C249 1.366 . S
C249 C246 1.365 . S
C249 C248 1.366 . S
C249 H263 0.930 . S
C250 C247 1.378 1_565 S
C250 N251 1.315 1_565 S
C250 H253 0.930 . S
N251 Co231 2.194 1_545 S
N251 C246 1.328 . S
N251 C250 1.315 1_545 S
H252 C246 0.929 . S
H253 C250 0.930 . S
H254 C242 0.929 . S
H255 C244 0.929 . S
O256 Co231 2.351 1_545 S
O256 C259 1.244 . S
O257 Co231 2.155 . S
O257 C259 1.240 1_565 S
O258 Co231 2.096 . S
O258 C239 1.247 . S
C259 O256 1.244 . S
C259 O257 1.240 1_545 S
H260 C234 0.931 . S
H261 C243 0.931 . S
H262 C247 0.929 1_565 S
H263 C249 0.930 . S
Co264 N268 2.148 . S
Co264 N274 2.128 . S
Co264 N284 2.194 . S
Co264 O289 2.351 . S
Co264 O290 2.155 . S
Co264 O291 2.096 . S
C265 N268 1.301 1_545 S
C265 N269 1.328 . S
C265 H270 0.930 . S
C266 C267 1.333 . S
C266 N268 1.317 1_545 S
C266 H271 0.930 1_545 S
C267 C266 1.333 . S
C267 N269 1.350 . S
C267 H293 0.931 . S
N268 Co264 2.148 . S
N268 C265 1.301 1_565 S
N268 C266 1.317 1_565 S
N269 C265 1.328 . S
N269 C267 1.350 . S
H270 C265 0.930 . S
H271 C266 0.930 1_565 S
C272 O273 1.224 . S
C272 O291 1.247 . S
O273 C272 1.224 . S
N274 Co264 2.128 . S
N274 C275 1.355 . S
N274 C277 1.311 . S
C275 N274 1.355 . S
C275 C276 1.363 . S
C275 H287 0.929 . S
C276 C275 1.363 . S
C276 N278 1.375 . S
C276 H294 0.931 . S
C277 N274 1.311 . S
C277 N278 1.347 . S
C277 H288 0.929 . S
N278 C276 1.375 . S
N278 C277 1.347 . S
C279 C282 1.365 . S
C279 N284 1.328 . S
C279 H285 0.929 . S
C280 C281 1.362 . S
C280 C283 1.378 . S
C280 H295 0.929 . S
C281 C280 1.362 . S
C281 C282 1.366 . S
C282 C279 1.365 . S
C282 C281 1.366 . S
C282 H296 0.930 . S
C283 C280 1.378 . S
C283 N284 1.315 . S
C283 H286 0.930 . S
N284 Co264 2.194 . S
N284 C279 1.328 . S
N284 C283 1.315 . S
H285 C279 0.929 . S
H286 C283 0.930 . S
H287 C275 0.929 . S
H288 C277 0.929 . S
O289 Co264 2.351 . S
O289 C292 1.244 . S
O290 Co264 2.155 . S
O290 C292 1.240 . S
O291 Co264 2.096 . S
O291 C272 1.247 . S
C292 O289 1.244 . S
C292 O290 1.240 . S
H293 C267 0.931 . S
H294 C276 0.931 . S
H295 C280 0.929 . S
H296 C282 0.930 . S
Co297 N301 2.148 . S
Co297 N307 2.128 . S
Co297 N317 2.194 . S
Co297 O322 2.351 . S
Co297 O323 2.155 . S
Co297 O324 2.096 . S
C298 N301 1.301 . S
C298 N302 1.328 . S
C298 H303 0.930 . S
C299 C300 1.333 . S
C299 N301 1.317 . S
C299 H304 0.930 . S
C300 C299 1.333 . S
C300 N302 1.350 . S
C300 H326 0.931 . S
N301 Co297 2.148 . S
N301 C298 1.301 . S
N301 C299 1.317 . S
N302 C298 1.328 . S
N302 C300 1.350 . S
H303 C298 0.930 . S
H304 C299 0.930 . S
C305 O306 1.224 . S
C305 O324 1.247 . S
O306 C305 1.224 . S
N307 Co297 2.128 . S
N307 C308 1.355 . S
N307 C310 1.311 . S
C308 N307 1.355 . S
C308 C309 1.363 . S
C308 H320 0.929 . S
C309 C308 1.363 . S
C309 N311 1.375 . S
C309 H327 0.931 . S
C310 N307 1.311 . S
C310 N311 1.347 . S
C310 H321 0.929 . S
N311 C309 1.375 . S
N311 C310 1.347 . S
C312 C315 1.365 . S
C312 N317 1.328 . S
C312 H318 0.929 . S
C313 C314 1.362 . S
C313 C316 1.378 . S
C313 H328 0.929 . S
C314 C313 1.362 . S
C314 C315 1.366 . S
C315 C312 1.365 . S
C315 C314 1.366 . S
C315 H329 0.930 . S
C316 C313 1.378 . S
C316 N317 1.315 . S
C316 H319 0.930 . S
N317 Co297 2.194 . S
N317 C312 1.328 . S
N317 C316 1.315 . S
H318 C312 0.929 . S
H319 C316 0.930 . S
H320 C308 0.929 . S
H321 C310 0.929 . S
O322 Co297 2.351 . S
O322 C325 1.244 . S
O323 Co297 2.155 . S
O323 C325 1.240 . S
O324 Co297 2.096 . S
O324 C305 1.247 . S
C325 O322 1.244 . S
C325 O323 1.240 . S
H326 C300 0.931 . S
H327 C309 0.931 . S
H328 C313 0.929 . S
H329 C315 0.930 . S
Co330 N334 2.148 . S
Co330 N340 2.128 1_455 S
Co330 N350 2.194 1_455 S
Co330 O355 2.351 1_455 S
Co330 O356 2.155 . S
Co330 O357 2.096 . S
C331 N334 1.301 . S
C331 N335 1.328 . S
C331 H336 0.930 . S
C332 C333 1.333 . S
C332 N334 1.317 . S
C332 H337 0.930 . S
C333 C332 1.333 . S
C333 N335 1.350 . S
C333 H359 0.931 . S
N334 Co330 2.148 . S
N334 C331 1.301 . S
N334 C332 1.317 . S
N335 C331 1.328 . S
N335 C333 1.350 . S
H336 C331 0.930 . S
H337 C332 0.930 . S
C338 O339 1.224 . S
C338 O357 1.247 . S
O339 C338 1.224 . S
N340 Co330 2.128 1_655 S
N340 C341 1.355 . S
N340 C343 1.311 1_655 S
C341 N340 1.355 . S
C341 C342 1.363 . S
C341 H353 0.929 . S
C342 C341 1.363 . S
C342 N344 1.375 . S
C342 H360 0.931 . S
C343 N340 1.311 1_455 S
C343 N344 1.347 1_455 S
C343 H354 0.929 . S
N344 C342 1.375 . S
N344 C343 1.347 1_655 S
C345 C348 1.365 . S
C345 N350 1.328 . S
C345 H351 0.929 . S
C346 C347 1.362 . S
C346 C349 1.378 1_655 S
C346 H361 0.929 1_655 S
C347 C346 1.362 . S
C347 C348 1.366 . S
C348 C345 1.365 . S
C348 C347 1.366 . S
C348 H362 0.930 . S
C349 C346 1.378 1_455 S
C349 N350 1.315 1_455 S
C349 H352 0.930 . S
N350 Co330 2.194 1_655 S
N350 C345 1.328 . S
N350 C349 1.315 1_655 S
H351 C345 0.929 . S
H352 C349 0.930 . S
H353 C341 0.929 . S
H354 C343 0.929 . S
O355 Co330 2.351 1_655 S
O355 C358 1.244 . S
O356 Co330 2.155 . S
O356 C358 1.240 1_455 S
O357 Co330 2.096 . S
O357 C338 1.247 . S
C358 O355 1.244 . S
C358 O356 1.240 1_655 S
H359 C333 0.931 . S
H360 C342 0.931 . S
H361 C346 0.929 1_455 S
H362 C348 0.930 . S
Co363 N367 2.148 . S
Co363 N373 2.128 1_545 S
Co363 N383 2.194 1_545 S
Co363 O388 2.351 1_545 S
Co363 O389 2.155 . S
Co363 O390 2.096 . S
C364 N367 1.301 1_455 S
C364 N368 1.328 . S
C364 H369 0.930 . S
C365 C366 1.333 . S
C365 N367 1.317 1_455 S
C365 H370 0.930 1_455 S
C366 C365 1.333 . S
C366 N368 1.350 . S
C366 H392 0.931 . S
N367 Co363 2.148 . S
N367 C364 1.301 1_655 S
N367 C365 1.317 1_655 S
N368 C364 1.328 . S
N368 C366 1.350 . S
H369 C364 0.930 . S
H370 C365 0.930 1_655 S
C371 O372 1.224 . S
C371 O390 1.247 . S
O372 C371 1.224 . S
N373 Co363 2.128 1_565 S
N373 C374 1.355 . S
N373 C376 1.311 1_565 S
C374 N373 1.355 . S
C374 C375 1.363 . S
C374 H386 0.929 . S
C375 C374 1.363 . S
C375 N377 1.375 . S
C375 H393 0.931 . S
C376 N373 1.311 1_545 S
C376 N377 1.347 1_545 S
C376 H387 0.929 . S
N377 C375 1.375 . S
N377 C376 1.347 1_565 S
C378 C381 1.365 . S
C378 N383 1.328 . S
C378 H384 0.929 . S
C379 C380 1.362 . S
C379 C382 1.378 1_565 S
C379 H394 0.929 1_565 S
C380 C379 1.362 . S
C380 C381 1.366 . S
C381 C378 1.365 . S
C381 C380 1.366 . S
C381 H395 0.930 . S
C382 C379 1.378 1_545 S
C382 N383 1.315 1_545 S
C382 H385 0.930 . S
N383 Co363 2.194 1_565 S
N383 C378 1.328 . S
N383 C382 1.315 1_565 S
H384 C378 0.929 . S
H385 C382 0.930 . S
H386 C374 0.929 . S
H387 C376 0.929 . S
O388 Co363 2.351 1_565 S
O388 C391 1.244 . S
O389 Co363 2.155 . S
O389 C391 1.240 1_545 S
O390 Co363 2.096 . S
O390 C371 1.247 . S
C391 O388 1.244 . S
C391 O389 1.240 1_565 S
H392 C366 0.931 . S
H393 C375 0.931 . S
H394 C379 0.929 1_545 S
H395 C381 0.930 . S
Co396 N400 2.148 . S
Co396 N406 2.128 . S
Co396 N416 2.194 . S
Co396 O421 2.351 . S
Co396 O422 2.155 . S
Co396 O423 2.096 . S
C397 N400 1.301 . S
C397 N401 1.328 . S
C397 H402 0.930 . S
C398 C399 1.333 . S
C398 N400 1.317 . S
C398 H403 0.930 . S
C399 C398 1.333 . S
C399 N401 1.350 . S
C399 H425 0.931 . S
N400 Co396 2.148 . S
N400 C397 1.301 . S
N400 C398 1.317 . S
N401 C397 1.328 . S
N401 C399 1.350 . S
H402 C397 0.930 . S
H403 C398 0.930 . S
C404 O405 1.224 . S
C404 O423 1.247 . S
O405 C404 1.224 . S
N406 Co396 2.128 . S
N406 C407 1.355 . S
N406 C409 1.311 . S
C407 N406 1.355 . S
C407 C408 1.363 . S
C407 H419 0.929 . S
C408 C407 1.363 . S
C408 N410 1.375 . S
C408 H426 0.931 . S
C409 N406 1.311 . S
C409 N410 1.347 . S
C409 H420 0.929 . S
N410 C408 1.375 . S
N410 C409 1.347 . S
C411 C414 1.365 . S
C411 N416 1.328 . S
C411 H417 0.929 . S
C412 C413 1.362 . S
C412 C415 1.378 . S
C412 H427 0.929 . S
C413 C412 1.362 . S
C413 C414 1.366 . S
C414 C411 1.365 . S
C414 C413 1.366 . S
C414 H428 0.930 . S
C415 C412 1.378 . S
C415 N416 1.315 . S
C415 H418 0.930 . S
N416 Co396 2.194 . S
N416 C411 1.328 . S
N416 C415 1.315 . S
H417 C411 0.929 . S
H418 C415 0.930 . S
H419 C407 0.929 . S
H420 C409 0.929 . S
O421 Co396 2.351 . S
O421 C424 1.244 . S
O422 Co396 2.155 . S
O422 C424 1.240 . S
O423 Co396 2.096 . S
O423 C404 1.247 . S
C424 O421 1.244 . S
C424 O422 1.240 . S
H425 C399 0.931 . S
H426 C408 0.931 . S
H427 C412 0.929 . S
H428 C414 0.930 . S
Co429 N433 2.148 . S
Co429 N439 2.128 . S
Co429 N449 2.194 . S
Co429 O454 2.351 . S
Co429 O455 2.155 . S
Co429 O456 2.096 . S
C430 N433 1.301 1_455 S
C430 N434 1.328 . S
C430 H435 0.930 . S
C431 C432 1.333 . S
C431 N433 1.317 1_455 S
C431 H436 0.930 1_455 S
C432 C431 1.333 . S
C432 N434 1.350 . S
C432 H458 0.931 . S
N433 Co429 2.148 . S
N433 C430 1.301 1_655 S
N433 C431 1.317 1_655 S
N434 C430 1.328 . S
N434 C432 1.350 . S
H435 C430 0.930 . S
H436 C431 0.930 1_655 S
C437 O438 1.224 . S
C437 O456 1.247 . S
O438 C437 1.224 . S
N439 Co429 2.128 . S
N439 C440 1.355 . S
N439 C442 1.311 . S
C440 N439 1.355 . S
C440 C441 1.363 . S
C440 H452 0.929 . S
C441 C440 1.363 . S
C441 N443 1.375 . S
C441 H459 0.931 . S
C442 N439 1.311 . S
C442 N443 1.347 . S
C442 H453 0.929 . S
N443 C441 1.375 . S
N443 C442 1.347 . S
C444 C447 1.365 . S
C444 N449 1.328 . S
C444 H450 0.929 . S
C445 C446 1.362 . S
C445 C448 1.378 . S
C445 H460 0.929 . S
C446 C445 1.362 . S
C446 C447 1.366 . S
C447 C444 1.365 . S
C447 C446 1.366 . S
C447 H461 0.930 . S
C448 C445 1.378 . S
C448 N449 1.315 . S
C448 H451 0.930 . S
N449 Co429 2.194 . S
N449 C444 1.328 . S
N449 C448 1.315 . S
H450 C444 0.929 . S
H451 C448 0.930 . S
H452 C440 0.929 . S
H453 C442 0.929 . S
O454 Co429 2.351 . S
O454 C457 1.244 . S
O455 Co429 2.155 . S
O455 C457 1.240 . S
O456 Co429 2.096 . S
O456 C437 1.247 . S
C457 O454 1.244 . S
C457 O455 1.240 . S
H458 C432 0.931 . S
H459 C441 0.931 . S
H460 C445 0.929 . S
H461 C447 0.930 . S
Co462 N466 2.148 . S
Co462 N472 2.128 1_455 S
Co462 N482 2.194 1_455 S
Co462 O487 2.351 1_455 S
Co462 O488 2.155 . S
Co462 O489 2.096 . S
C463 N466 1.301 1_545 S
C463 N467 1.328 . S
C463 H468 0.930 . S
C464 C465 1.333 . S
C464 N466 1.317 1_545 S
C464 H469 0.930 1_545 S
C465 C464 1.333 . S
C465 N467 1.350 . S
C465 H491 0.931 . S
N466 Co462 2.148 . S
N466 C463 1.301 1_565 S
N466 C464 1.317 1_565 S
N467 C463 1.328 . S
N467 C465 1.350 . S
H468 C463 0.930 . S
H469 C464 0.930 1_565 S
C470 O471 1.224 . S
C470 O489 1.247 . S
O471 C470 1.224 . S
N472 Co462 2.128 1_655 S
N472 C473 1.355 . S
N472 C475 1.311 1_655 S
C473 N472 1.355 . S
C473 C474 1.363 . S
C473 H485 0.929 . S
C474 C473 1.363 . S
C474 N476 1.375 . S
C474 H492 0.931 . S
C475 N472 1.311 1_455 S
C475 N476 1.347 1_455 S
C475 H486 0.929 . S
N476 C474 1.375 . S
N476 C475 1.347 1_655 S
C477 C480 1.365 . S
C477 N482 1.328 . S
C477 H483 0.929 . S
C478 C479 1.362 . S
C478 C481 1.378 1_655 S
C478 H493 0.929 1_655 S
C479 C478 1.362 . S
C479 C480 1.366 . S
C480 C477 1.365 . S
C480 C479 1.366 . S
C480 H494 0.930 . S
C481 C478 1.378 1_455 S
C481 N482 1.315 1_455 S
C481 H484 0.930 . S
N482 Co462 2.194 1_655 S
N482 C477 1.328 . S
N482 C481 1.315 1_655 S
H483 C477 0.929 . S
H484 C481 0.930 . S
H485 C473 0.929 . S
H486 C475 0.929 . S
O487 Co462 2.351 1_655 S
O487 C490 1.244 . S
O488 Co462 2.155 . S
O488 C490 1.240 1_455 S
O489 Co462 2.096 . S
O489 C470 1.247 . S
C490 O487 1.244 . S
C490 O488 1.240 1_655 S
H491 C465 0.931 . S
H492 C474 0.931 . S
H493 C478 0.929 1_455 S
H494 C480 0.930 . S
Co495 N499 2.148 . S
Co495 N505 2.128 1_545 S
Co495 N515 2.194 1_545 S
Co495 O520 2.351 1_545 S
Co495 O521 2.155 . S
Co495 O522 2.096 . S
C496 N499 1.301 . S
C496 N500 1.328 . S
C496 H501 0.930 . S
C497 C498 1.333 . S
C497 N499 1.317 . S
C497 H502 0.930 . S
C498 C497 1.333 . S
C498 N500 1.350 . S
C498 H524 0.931 . S
N499 Co495 2.148 . S
N499 C496 1.301 . S
N499 C497 1.317 . S
N500 C496 1.328 . S
N500 C498 1.350 . S
H501 C496 0.930 . S
H502 C497 0.930 . S
C503 O504 1.224 . S
C503 O522 1.247 . S
O504 C503 1.224 . S
N505 Co495 2.128 1_565 S
N505 C506 1.355 . S
N505 C508 1.311 1_565 S
C506 N505 1.355 . S
C506 C507 1.363 . S
C506 H518 0.929 . S
C507 C506 1.363 . S
C507 N509 1.375 . S
C507 H525 0.931 . S
C508 N505 1.311 1_545 S
C508 N509 1.347 1_545 S
C508 H519 0.929 . S
N509 C507 1.375 . S
N509 C508 1.347 1_565 S
C510 C513 1.365 . S
C510 N515 1.328 . S
C510 H516 0.929 . S
C511 C512 1.362 . S
C511 C514 1.378 1_565 S
C511 H526 0.929 1_565 S
C512 C511 1.362 . S
C512 C513 1.366 . S
C513 C510 1.365 . S
C513 C512 1.366 . S
C513 H527 0.930 . S
C514 C511 1.378 1_545 S
C514 N515 1.315 1_545 S
C514 H517 0.930 . S
N515 Co495 2.194 1_565 S
N515 C510 1.328 . S
N515 C514 1.315 1_565 S
H516 C510 0.929 . S
H517 C514 0.930 . S
H518 C506 0.929 . S
H519 C508 0.929 . S
O520 Co495 2.351 1_565 S
O520 C523 1.244 . S
O521 Co495 2.155 . S
O521 C523 1.240 1_545 S
O522 Co495 2.096 . S
O522 C503 1.247 . S
C523 O520 1.244 . S
C523 O521 1.240 1_565 S
H524 C498 0.931 . S
H525 C507 0.931 . S
H526 C511 0.929 1_545 S
H527 C513 0.930 . S
C17 C248 1.795 . S
C149 C50 1.795 . S
C83 C182 1.795 . S
C116 C215 1.795 . S
C281 C512 1.795 . S
C314 C413 1.795 . S
C347 C446 1.795 . S
C479 C380 1.795 . S
C8 C74 2.868 . S
C107 C41 2.868 . S
C206 C140 2.868 . S
C173 C239 2.868 . S
C338 C272 2.868 . S
C371 C305 2.868 . S
C470 C404 2.868 . S
C503 C437 2.868 . S
N410 N5 1.577 . S
N443 N38 1.578 . S
N71 N476 1.577 . S
N509 N104 1.578 . S
N137 N278 1.577 . S
N311 N170 1.578 . S
N203 N344 1.577 . S
N236 N377 1.578 . S
N146 N269 1.577 . S
N179 N302 1.578 . S
N212 N335 1.577 . S
N245 N368 1.578 . S
N14 N401 1.577 . S
N47 N434 1.578 . S
N80 N467 1.577 . S
N500 N113 1.578 . S
C292 C28 3.106 1_566 S
C61 C325 3.106 . S
C94 C358 3.106 1_454 S
C391 C127 3.106 1_665 S
C160 C424 3.106 1_556 S
C193 C457 3.106 1_455 S
C490 C226 3.106 1_664 S
C259 C523 3.106 1_545 S
