# Generated by pormake.
# Topology qtz-e, (6)-cn, num edge types: 1
# Building blocks:
#     Node 0, Type 0, BuildingBlock: JUFBIX_clean_sbu_0, # of connection points: 6
#     Node 1, Type 0, BuildingBlock: JUFBIX_clean_sbu_0, # of connection points: 6
#     Node 2, Type 0, BuildingBlock: JUFBIX_clean_sbu_0, # of connection points: 6
#     Node 3, Type 0, BuildingBlock: JUFBIX_clean_sbu_0, # of connection points: 6
#     Node 4, Type 0, BuildingBlock: JUFBIX_clean_sbu_0, # of connection points: 6
#     Node 5, Type 0, BuildingBlock: JUFBIX_clean_sbu_0, # of connection points: 6
#     Edge 6, Type (0, 0), BuildingBlock: ZUJKAS_clean_linker_0, # of connection points: 2
#     Edge 7, Type (0, 0), BuildingBlock: ZUJKAS_clean_linker_0, # of connection points: 2
#     Edge 8, Type (0, 0), BuildingBlock: ZUJKAS_clean_linker_0, # of connection points: 2
#     Edge 9, Type (0, 0), BuildingBlock: ZUJKAS_clean_linker_0, # of connection points: 2
#     Edge 10, Type (0, 0), BuildingBlock: ZUJKAS_clean_linker_0, # of connection points: 2
#     Edge 11, Type (0, 0), BuildingBlock: ZUJKAS_clean_linker_0, # of connection points: 2
#     Edge 12, Type (0, 0), BuildingBlock: ZUJKAS_clean_linker_0, # of connection points: 2
#     Edge 13, Type (0, 0), BuildingBlock: ZUJKAS_clean_linker_0, # of connection points: 2
#     Edge 14, Type (0, 0), BuildingBlock: ZUJKAS_clean_linker_0, # of connection points: 2
#     Edge 15, Type (0, 0), BuildingBlock: ZUJKAS_clean_linker_0, # of connection points: 2
#     Edge 16, Type (0, 0), BuildingBlock: ZUJKAS_clean_linker_0, # of connection points: 2
#     Edge 17, Type (0, 0), BuildingBlock: ZUJKAS_clean_linker_0, # of connection points: 2
#     Edge 18, Type (0, 0), BuildingBlock: ZUJKAS_clean_linker_0, # of connection points: 2
#     Edge 19, Type (0, 0), BuildingBlock: ZUJKAS_clean_linker_0, # of connection points: 2
#     Edge 20, Type (0, 0), BuildingBlock: ZUJKAS_clean_linker_0, # of connection points: 2
#     Edge 21, Type (0, 0), BuildingBlock: ZUJKAS_clean_linker_0, # of connection points: 2
#     Edge 22, Type (0, 0), BuildingBlock: ZUJKAS_clean_linker_0, # of connection points: 2
#     Edge 23, Type (0, 0), BuildingBlock: ZUJKAS_clean_linker_0, # of connection points: 2
# Relax obj value: 0.635
# Max RMSD: 0.294
# Mean RMSD: 0.294
data_MOF--net-qtz-e--node1-JUFBIX_clean_sbu_0--edge1-ZUJKAS_clean_linker_0
_symmetry_space_group_name_H-M    P1
_symmetry_Int_Tables_number       1
_symmetry_cell_setting            triclinic
loop_
_symmetry_equiv_pos_as_xyz
'x, y, z'
_cell_length_a     33.534756
_cell_length_b     33.506215
_cell_length_c     47.12168
_cell_angle_alpha  90.029422
_cell_angle_beta   89.957156
_cell_angle_gamma 119.99111
loop_
_atom_site_label
_atom_site_type_symbol
_atom_site_fract_x
_atom_site_fract_y
_atom_site_fract_z
_atom_type_partial_charge
Co0 Co 0.22658 0.40876 0.12943 0.0
C1 C 0.26115 0.35847 0.10423 0.0
Co2 Co 0.18324 0.3655 0.09419 0.0
C3 C 0.2477 0.45656 0.18263 0.0
C4 C 0.30894 0.47128 0.16004 0.0
N5 N 0.26263 0.44605 0.15873 0.0
N6 N 0.28272 0.48777 0.19872 0.0
C7 C 0.32141 0.4971 0.18459 0.0
H8 H 0.21165 0.44312 0.18744 0.0
H9 H 0.33206 0.47188 0.14381 0.0
C10 C 0.15111 0.41923 0.11822 0.0
N11 N 0.14696 0.32796 0.065 0.0
C12 C 0.16154 0.31676 0.04123 0.0
C13 C 0.10063 0.30256 0.06398 0.0
N14 N 0.12631 0.28488 0.02553 0.0
C15 C 0.08782 0.27594 0.03976 0.0
C16 C 0.15816 0.323 0.14684 0.0
O17 O 0.18637 0.43245 0.13376 0.0
O18 O 0.14204 0.38852 0.0995 0.0
O19 O 0.14923 0.31758 0.12046 0.0
O20 O 0.19122 0.36106 0.15565 0.0
O21 O 0.22553 0.34393 0.08878 0.0
H22 H 0.07773 0.30226 0.08027 0.0
H23 H 0.19752 0.33018 0.03627 0.0
O24 O 0.267 0.38567 0.12459 0.0
O25 O 0.26173 0.45631 0.10286 0.0
O26 O 0.21747 0.41357 0.06809 0.0
C27 C 0.25161 0.45112 0.07661 0.0
H28 H 0.35618 0.52142 0.1912 0.0
H29 H 0.05297 0.25133 0.03346 0.0
Co30 Co 0.75672 0.17602 0.36394 0.0
C31 C 0.72001 0.09425 0.39259 0.0
Co32 Co 0.79993 0.17928 0.4002 0.0
C33 C 0.73886 0.20097 0.30936 0.0
C34 C 0.67613 0.15507 0.33078 0.0
N35 N 0.7223 0.17566 0.33318 0.0
N36 N 0.70508 0.19795 0.29238 0.0
C37 C 0.66543 0.16867 0.30568 0.0
H38 H 0.77525 0.2224 0.30501 0.0
H39 H 0.65193 0.13336 0.34684 0.0
C40 C 0.83437 0.26224 0.37258 0.0
N41 N 0.83441 0.18027 0.43123 0.0
C42 C 0.83577 0.1442 0.44292 0.0
C43 C 0.85868 0.2157 0.44916 0.0
N44 N 0.85901 0.15535 0.46771 0.0
C45 C 0.87373 0.20047 0.47162 0.0
C46 C 0.82413 0.15467 0.34999 0.0
O47 O 0.79871 0.23923 0.35753 0.0
O48 O 0.84292 0.24216 0.39253 0.0
O49 O 0.83363 0.16124 0.37629 0.0
O50 O 0.79148 0.15942 0.34011 0.0
O51 O 0.75564 0.11663 0.40787 0.0
H52 H 0.86307 0.24979 0.44686 0.0
H53 H 0.81732 0.10957 0.43444 0.0
O54 O 0.71467 0.11345 0.37087 0.0
O55 O 0.72208 0.19252 0.38815 0.0
O56 O 0.76613 0.19739 0.42389 0.0
C57 C 0.73241 0.20052 0.41427 0.0
H58 H 0.63126 0.15975 0.29861 0.0
H59 H 0.89229 0.22055 0.48999 0.0
Co60 Co 0.5798 0.80672 0.79093 0.0
C61 C 0.62477 0.8908 0.76487 0.0
Co62 Co 0.62529 0.80845 0.75648 0.0
C63 C 0.53197 0.77907 0.84398 0.0
C64 C 0.51156 0.82001 0.81991 0.0
N65 N 0.54049 0.80301 0.8196 0.0
N66 N 0.49846 0.77983 0.85941 0.0
C67 C 0.48555 0.80569 0.84434 0.0
H68 H 0.54856 0.75956 0.84961 0.0
H69 H 0.50861 0.84028 0.80305 0.0
C70 C 0.57667 0.72317 0.78171 0.0
N71 N 0.6648 0.81215 0.72772 0.0
C72 C 0.67782 0.8405 0.70507 0.0
C73 C 0.68937 0.79035 0.72569 0.0
N74 N 0.70993 0.83791 0.68923 0.0
C75 C 0.71707 0.80603 0.70193 0.0
C76 C 0.66704 0.83124 0.80938 0.0
O77 O 0.56158 0.74424 0.79666 0.0
O78 O 0.60641 0.74515 0.76256 0.0
O79 O 0.67338 0.82617 0.78334 0.0
O80 O 0.62805 0.82465 0.81745 0.0
O81 O 0.6424 0.87154 0.75034 0.0
H82 H 0.68838 0.76582 0.74099 0.0
H83 H 0.6645 0.86327 0.70045 0.0
O84 O 0.59736 0.86861 0.78491 0.0
O85 O 0.53166 0.78877 0.76394 0.0
O86 O 0.5772 0.79053 0.7299 0.0
C87 C 0.53806 0.7836 0.73791 0.0
H88 H 0.45868 0.81302 0.85026 0.0
H89 H 0.74194 0.79631 0.69525 0.0
Co90 Co 0.80741 0.57959 0.02931 0.0
C91 C 0.89038 0.62359 0.05752 0.0
Co92 Co 0.80698 0.62068 0.06586 0.0
C93 C 0.76934 0.50901 0.98654 0.0
C94 C 0.84213 0.55159 0.98155 0.0
N95 N 0.80678 0.5444 -0.00137 0.0
N96 N 0.7796 0.49458 0.96238 0.0
C97 C 0.82548 0.52087 0.95925 0.0
H98 H 0.73471 0.49503 0.99462 0.0
H99 H 0.87735 0.57898 0.98421 0.0
C100 C 0.72289 0.57372 0.03878 0.0
N101 N 0.80751 0.65652 0.09588 0.0
C102 C 0.83301 0.66727 0.11972 0.0
C103 C 0.78666 0.68204 0.09707 0.0
N104 N 0.82962 0.69905 0.13553 0.0
C105 C 0.80027 0.7083 0.12139 0.0
C106 C 0.83106 0.66844 0.01483 0.0
O107 O 0.74494 0.56128 0.02266 0.0
O108 O 0.74391 0.60098 0.05918 0.0
O109 O 0.82486 0.6714 0.04116 0.0
O110 O 0.82577 0.6308 0.00495 0.0
O111 O 0.86987 0.63907 0.07276 0.0
H112 H 0.76458 0.68302 0.08069 0.0
H113 H 0.85577 0.65401 0.12453 0.0
O114 O 0.86936 0.59771 0.03661 0.0
O115 O 0.78875 0.52834 0.054 0.0
O116 O 0.78898 0.56966 0.09029 0.0
C117 C 0.7827 0.53161 0.08039 0.0
H118 H 0.84502 0.52006 0.94118 0.0
H119 H 0.79038 0.73321 0.12771 0.0
Co120 Co 0.17385 0.76533 0.46077 0.0
C121 C 0.09295 0.72577 0.4312 0.0
Co122 Co 0.17656 0.8078 0.42432 0.0
C123 C 0.20981 0.72998 0.50268 0.0
C124 C 0.13987 0.71058 0.51152 0.0
N125 N 0.17354 0.73199 0.49209 0.0
N126 N 0.2008 0.70949 0.52837 0.0
C127 C 0.15652 0.6967 0.53385 0.0
H128 H 0.24295 0.74527 0.49224 0.0
H129 H 0.10637 0.70783 0.51036 0.0
C130 C 0.25861 0.8454 0.453 0.0
N131 N 0.1768 0.84127 0.39312 0.0
C132 C 0.1401 0.84246 0.38254 0.0
C133 C 0.21059 0.86384 0.37393 0.0
N134 N 0.14892 0.8635 0.35703 0.0
C135 C 0.19355 0.87754 0.3517 0.0
C136 C 0.14892 0.83084 0.47375 0.0
O137 O 0.23602 0.80964 0.46808 0.0
O138 O 0.23858 0.85275 0.43248 0.0
O139 O 0.15584 0.84003 0.44745 0.0
O140 O 0.1546 0.79892 0.48395 0.0
O141 O 0.11471 0.76163 0.416 0.0
H142 H 0.24447 0.86747 0.37514 0.0
H143 H 0.10677 0.82602 0.39278 0.0
O144 O 0.11225 0.72115 0.45309 0.0
O145 O 0.19337 0.73199 0.43723 0.0
O146 O 0.19743 0.77563 0.40139 0.0
C147 C 0.20211 0.74288 0.41118 0.0
H148 H 0.13844 0.68147 0.55345 0.0
H149 H 0.2116 0.89329 0.33218 0.0
Co150 Co 0.40073 0.21675 0.69845 0.0
C151 C 0.35679 0.25467 0.72654 0.0
Co152 Co 0.35677 0.17144 0.73278 0.0
C153 C 0.44681 0.23889 0.64466 0.0
C154 C 0.46587 0.29941 0.66937 0.0
N155 N 0.43843 0.25321 0.66952 0.0
N156 N 0.47879 0.27417 0.62907 0.0
C157 C 0.49085 0.31239 0.64453 0.0
H158 H 0.43123 0.20296 0.63872 0.0
H159 H 0.46845 0.32201 0.68655 0.0
C160 C 0.40452 0.136 0.70552 0.0
N161 N 0.31936 0.13563 0.76226 0.0
C162 C 0.28277 0.13707 0.77292 0.0
C163 C 0.32736 0.10987 0.78084 0.0
N164 N 0.26854 0.11482 0.79799 0.0
C165 C 0.29619 0.09704 0.80282 0.0
C166 C 0.31254 0.15371 0.68095 0.0
O167 O 0.42036 0.1736 0.69193 0.0
O168 O 0.3737 0.12632 0.72428 0.0
O169 O 0.30663 0.14252 0.70704 0.0
O170 O 0.35169 0.18545 0.67253 0.0
O171 O 0.34173 0.21837 0.74144 0.0
H172 H 0.35615 0.10386 0.77967 0.0
H173 H 0.26862 0.15655 0.76326 0.0
O174 O 0.3818 0.2597 0.70518 0.0
O175 O 0.44968 0.24809 0.72485 0.0
O176 O 0.40691 0.19998 0.75819 0.0
C177 C 0.44493 0.23406 0.75034 0.0
H178 H 0.51645 0.34713 0.63858 0.0
H179 H 0.29664 0.07952 0.822 0.0
H180 H 0.20855 0.66618 0.4233 0.0
H181 H 0.22607 0.62065 0.39012 0.0
H182 H 0.24396 0.71516 0.32267 0.0
H183 H 0.22605 0.76042 0.3554 0.0
H184 H 0.1848 0.62319 0.309 0.0
H185 H 0.34952 0.64938 0.35376 0.0
H186 H 0.30264 0.62976 0.37855 0.0
H187 H 0.32603 0.68588 0.36284 0.0
C188 C 0.2167 0.67752 0.40147 0.0
C189 C 0.21581 0.71686 0.39198 0.0
C190 C 0.22692 0.6516 0.38259 0.0
C191 C 0.2367 0.66481 0.35402 0.0
C192 C 0.23659 0.70446 0.34466 0.0
H193 H 0.34251 0.57444 0.21685 0.0
H194 H 0.33154 0.61492 0.2566 0.0
C195 C 0.22635 0.73028 0.36343 0.0
C196 C 0.24441 0.63609 0.33332 0.0
H197 H 0.31724 0.5964 0.3157 0.0
C198 C 0.21368 0.61721 0.31049 0.0
C199 C 0.28235 0.62877 0.33524 0.0
C200 C 0.31733 0.64977 0.35876 0.0
C201 C 0.21992 0.59131 0.28941 0.0
C202 C 0.25745 0.58335 0.29153 0.0
C203 C 0.28825 0.60221 0.31435 0.0
C204 C 0.26617 0.55713 0.26949 0.0
C205 C 0.187 0.57378 0.26463 0.0
C206 C 0.23373 0.51082 0.26415 0.0
C207 C 0.2399 0.4876 0.24146 0.0
C208 C 0.2788 0.51019 0.22381 0.0
C209 C 0.31234 0.55594 0.23011 0.0
C210 C 0.30606 0.57918 0.25277 0.0
H211 H 0.16687 0.59179 0.26283 0.0
H212 H 0.20575 0.57819 0.24439 0.0
H213 H 0.16235 0.53649 0.26757 0.0
H214 H 0.20316 0.49292 0.2772 0.0
H215 H 0.21393 0.45212 0.23752 0.0
H216 H 0.56622 0.3305 0.61122 0.0
H217 H 0.60327 0.31973 0.56965 0.0
H218 H 0.47564 0.1986 0.5466 0.0
H219 H 0.43834 0.20914 0.5883 0.0
H220 H 0.54707 0.18249 0.54809 0.0
H221 H 0.59607 0.34019 0.48547 0.0
H222 H 0.61557 0.35277 0.52154 0.0
H223 H 0.55479 0.32164 0.51411 0.0
C224 C 0.54573 0.30223 0.59696 0.0
C225 C 0.49936 0.27061 0.60307 0.0
C226 C 0.56694 0.29615 0.57315 0.0
C227 C 0.54204 0.25872 0.55483 0.0
C228 C 0.49541 0.22781 0.56043 0.0
H229 H 0.65873 0.2109 0.40076 0.0
H230 H 0.60967 0.22411 0.4335 0.0
C231 C 0.47423 0.23374 0.58431 0.0
C232 C 0.56578 0.24952 0.53142 0.0
H233 H 0.63524 0.29866 0.47385 0.0
C234 C 0.56585 0.20766 0.53164 0.0
C235 C 0.58982 0.28216 0.5098 0.0
C236 C 0.58873 0.3265 0.50749 0.0
C237 C 0.59088 0.19835 0.51151 0.0
C238 C 0.61711 0.23214 0.49097 0.0
C239 C 0.61554 0.27315 0.48993 0.0
C240 C 0.64758 0.22596 0.47106 0.0
C241 C 0.58934 0.15256 0.51246 0.0
C242 C 0.68557 0.22366 0.4814 0.0
C243 C 0.71368 0.2163 0.46284 0.0
C244 C 0.70429 0.21117 0.43358 0.0
C245 C 0.66679 0.21461 0.4232 0.0
C246 C 0.63875 0.22214 0.44182 0.0
H247 H 0.55903 0.12639 0.52454 0.0
H248 H 0.58821 0.13924 0.49071 0.0
H249 H 0.62086 0.15707 0.52307 0.0
H250 H 0.69326 0.22725 0.50389 0.0
H251 H 0.74237 0.214 0.47152 0.0
H252 H 0.24099 0.44945 0.0191 0.0
H253 H 0.28804 0.50997 0.98511 0.0
H254 H 0.37301 0.5963 0.05336 0.0
H255 H 0.32591 0.53604 0.08767 0.0
H256 H 0.34446 0.64141 0.01402 0.0
H257 H 0.42053 0.54736 0.96068 0.0
H258 H 0.35877 0.51537 0.96265 0.0
H259 H 0.39216 0.53021 0.99472 0.0
C260 C 0.26968 0.48129 0.02693 0.0
C261 C 0.27975 0.48794 0.05609 0.0
C262 C 0.29666 0.5157 0.00745 0.0
C263 C 0.33428 0.55726 0.01674 0.0
C264 C 0.34419 0.56431 0.04582 0.0
H265 H 0.53908 0.75436 0.89955 0.0
H266 H 0.50168 0.70388 0.9402 0.0
C267 C 0.31726 0.52985 0.06535 0.0
C268 C 0.36272 0.59361 0.99602 0.0
H269 H 0.43013 0.61482 0.93741 0.0
C270 C 0.36354 0.63585 0.99738 0.0
C271 C 0.38806 0.58638 0.97467 0.0
C272 C 0.39032 0.54256 0.97316 0.0
C273 C 0.38787 0.6706 0.97728 0.0
C274 C 0.41135 0.66249 0.95508 0.0
C275 C 0.41176 0.62081 0.95432 0.0
C276 C 0.43471 0.69611 0.93192 0.0
C277 C 0.38831 0.71569 0.98002 0.0
C278 C 0.40948 0.70863 0.9139 0.0
C279 C 0.43075 0.7374 0.89064 0.0
C280 C 0.47754 0.75377 0.88481 0.0
C281 C 0.50289 0.74188 0.90327 0.0
C282 C 0.48164 0.71322 0.92656 0.0
H283 H 0.38063 0.72147 0.00209 0.0
H284 H 0.42216 0.74515 0.97363 0.0
H285 H 0.3615 0.71508 0.96595 0.0
H286 H 0.37297 0.69494 0.91727 0.0
H287 H 0.41007 0.74526 0.87661 0.0
H288 H 0.64477 0.1767 0.24884 0.0
H289 H 0.65286 0.22542 0.20792 0.0
H290 H 0.78523 0.33008 0.23903 0.0
H291 H 0.77737 0.28218 0.27979 0.0
H292 H 0.66286 0.31258 0.20874 0.0
H293 H 0.81302 0.31737 0.15639 0.0
H294 H 0.77953 0.27544 0.18327 0.0
H295 H 0.82321 0.33274 0.19322 0.0
C296 C 0.67566 0.21 0.24687 0.0
C297 C 0.71057 0.22527 0.26749 0.0
C298 C 0.68031 0.23768 0.22345 0.0
C299 C 0.72003 0.28096 0.22019 0.0
C300 C 0.75488 0.29625 0.2407 0.0
H301 H 0.76996 0.52829 0.13778 0.0
H302 H 0.7503 0.46351 0.16955 0.0
C303 C 0.75031 0.26869 0.26403 0.0
C304 C 0.72424 0.31163 0.19636 0.0
H305 H 0.79638 0.37671 0.14303 0.0
C306 C 0.69168 0.32612 0.19409 0.0
C307 C 0.7615 0.32877 0.17705 0.0
C308 C 0.79604 0.31242 0.17737 0.0
C309 C 0.69662 0.35902 0.17386 0.0
C310 C 0.73553 0.37837 0.15579 0.0
C311 C 0.76686 0.36223 0.15714 0.0
C312 C 0.74553 0.41685 0.13622 0.0
C313 C 0.66034 0.373 0.17218 0.0
C314 C 0.75034 0.4124 0.107 0.0
C315 C 0.76193 0.44953 0.08875 0.0
C316 C 0.76921 0.49185 0.09948 0.0
C317 C 0.76431 0.49611 0.12879 0.0
C318 C 0.75277 0.45901 0.14698 0.0
H319 H 0.62691 0.34584 0.18092 0.0
H320 H 0.67159 0.40476 0.18489 0.0
H321 H 0.65499 0.38026 0.14994 0.0
H322 H 0.74524 0.38023 0.09832 0.0
H323 H 0.76551 0.44514 0.06629 0.0
H324 H 0.54016 0.76794 0.68121 0.0
H325 H 0.4795 0.74955 0.64629 0.0
H326 H 0.391 0.75103 0.71221 0.0
H327 H 0.45156 0.76977 0.74736 0.0
H328 H 0.38613 0.67391 0.64481 0.0
H329 H 0.39828 0.84539 0.6523 0.0
H330 H 0.44249 0.83479 0.66582 0.0
H331 H 0.39002 0.8155 0.68537 0.0
C332 C 0.50776 0.76423 0.68833 0.0
C333 C 0.50075 0.77061 0.71702 0.0
C334 C 0.47315 0.75361 0.66837 0.0
C335 C 0.4311 0.74944 0.6767 0.0
C336 C 0.42352 0.75472 0.70538 0.0
H337 H 0.18388 0.65153 0.57277 0.0
H338 H 0.23902 0.65794 0.60912 0.0
C339 C 0.4581 0.76528 0.7254 0.0
C340 C 0.3957 0.74074 0.65516 0.0
H341 H 0.3401 0.79003 0.62273 0.0
C342 C 0.37586 0.69913 0.63998 0.0
C343 C 0.38298 0.77408 0.64882 0.0
C344 C 0.40472 0.82014 0.66371 0.0
C345 C 0.34335 0.68993 0.61853 0.0
C346 C 0.33026 0.72307 0.61242 0.0
C347 C 0.35011 0.76462 0.62764 0.0
C348 C 0.29736 0.7164 0.58956 0.0
C349 C 0.32417 0.64547 0.60207 0.0
C350 C 0.31197 0.74712 0.56664 0.0
C351 C 0.28062 0.74384 0.54608 0.0
C352 C 0.23384 0.7098 0.54807 0.0
C353 C 0.21953 0.67828 0.57073 0.0
C354 C 0.25104 0.68163 0.59136 0.0
H355 H 0.34479 0.62822 0.60531 0.0
H356 H 0.28844 0.6216 0.60925 0.0
H357 H 0.32306 0.65175 0.57902 0.0
H358 H 0.34757 0.77434 0.56499 0.0
H359 H 0.29295 0.76924 0.52932 0.0
H360 H 0.78755 0.43334 0.92891 0.0
H361 H 0.73253 0.38341 0.89263 0.0
H362 H 0.64519 0.44044 0.91189 0.0
H363 H 0.69887 0.48851 0.94864 0.0
H364 H 0.59531 0.35174 0.90629 0.0
H365 H 0.71564 0.42012 0.81499 0.0
H366 H 0.73438 0.39594 0.84228 0.0
H367 H 0.73028 0.44651 0.84961 0.0
C368 C 0.75648 0.43491 0.92529 0.0
C369 C 0.74725 0.46446 0.94157 0.0
C370 C 0.72529 0.40675 0.90448 0.0
C371 C 0.6851 0.40878 0.89915 0.0
C372 C 0.67589 0.43818 0.9156 0.0
H373 H 0.51285 0.32414 0.75008 0.0
H374 H 0.57167 0.36447 0.7865 0.0
C375 C 0.70649 0.46553 0.93667 0.0
C376 C 0.65197 0.38019 0.87677 0.0
H377 H 0.64141 0.35684 0.80575 0.0
C378 C 0.60542 0.35286 0.88429 0.0
C379 C 0.66508 0.38215 0.848 0.0
C380 C 0.71397 0.41309 0.83813 0.0
C381 C 0.57151 0.32809 0.86389 0.0
C382 C 0.58476 0.32901 0.83525 0.0
C383 C 0.63138 0.35584 0.82774 0.0
C384 C 0.55055 0.30393 0.81261 0.0
C385 C 0.52172 0.30285 0.87315 0.0
C386 C 0.51978 0.25638 0.81487 0.0
C387 C 0.48559 0.2336 0.79447 0.0
C388 C 0.48253 0.25769 0.77098 0.0
C389 C 0.51462 0.30479 0.76798 0.0
C390 C 0.54818 0.3278 0.78874 0.0
H391 H 0.51672 0.31687 0.89338 0.0
H392 H 0.49907 0.30503 0.85679 0.0
H393 H 0.51058 0.266 0.87671 0.0
H394 H 0.52186 0.23694 0.83259 0.0
H395 H 0.46159 0.1971 0.79704 0.0
H396 H 0.33741 0.3759 0.13441 0.0
H397 H 0.41255 0.39831 0.1139 0.0
H398 H 0.35107 0.35779 0.03095 0.0
H399 H 0.27554 0.33494 0.05126 0.0
H400 H 0.45353 0.3587 0.07337 0.0
H401 H 0.434 0.50442 0.03275 0.0
H402 H 0.39707 0.46609 0.06012 0.0
H403 H 0.38988 0.44667 0.02403 0.0
C404 C 0.33949 0.36986 0.11201 0.0
C405 C 0.30076 0.3545 0.09438 0.0
C406 C 0.38246 0.38278 0.10031 0.0
C407 C 0.38723 0.38058 0.07089 0.0
C408 C 0.3479 0.36009 0.05369 0.0
H409 H 0.66713 0.50782 0.00063 0.0
H410 H 0.58334 0.4597 0.00298 0.0
C411 C 0.30474 0.34677 0.06541 0.0
C412 C 0.43356 0.40671 0.05827 0.0
H413 H 0.50675 0.51112 0.02835 0.0
C414 C 0.46508 0.39153 0.06294 0.0
C415 C 0.44833 0.44985 0.04508 0.0
C416 C 0.41581 0.46811 0.04024 0.0
C417 C 0.5116 0.41918 0.05555 0.0
C418 C 0.52661 0.46291 0.04322 0.0
C419 C 0.49481 0.4774 0.03766 0.0
C420 C 0.57597 0.49579 0.03882 0.0
C421 C 0.54493 0.40264 0.0623 0.0
C422 C 0.59902 0.53315 0.05743 0.0
C423 C 0.64686 0.56067 0.05626 0.0
C424 C 0.67229 0.55124 0.03635 0.0
C425 C 0.64862 0.51578 0.01639 0.0
C426 C 0.60078 0.48814 0.0177 0.0
H427 H 0.52849 0.36992 0.07454 0.0
H428 H 0.55874 0.39694 0.04225 0.0
H429 H 0.57448 0.4292 0.07469 0.0
H430 H 0.58019 0.53958 0.07379 0.0
H431 H 0.66402 0.5878 0.07184 0.0
H432 H 0.05999 0.70992 0.37699 0.0
H433 H 0.00445 0.63487 0.35713 0.0
H434 H 0.97566 0.57588 0.44111 0.0
H435 H 0.0313 0.65045 0.4611 0.0
H436 H 0.02483 0.56224 0.36674 0.0
H437 H 0.84798 0.51259 0.40132 0.0
H438 H 0.89377 0.57194 0.39899 0.0
H439 H 0.89017 0.53732 0.42908 0.0
C440 C 0.04049 0.6814 0.39135 0.0
C441 C 0.05031 0.68584 0.42058 0.0
C442 C 0.00892 0.63855 0.37993 0.0
C443 C 0.98606 0.59998 0.39767 0.0
C444 C 0.99256 0.6054 0.42712 0.0
H445 H 0.9132 0.32257 0.40063 0.0
H446 H 0.95114 0.40672 0.40011 0.0
C447 C 0.02448 0.648 0.43851 0.0
C448 C 0.96218 0.55308 0.38556 0.0
H449 H 0.86178 0.45051 0.38955 0.0
C450 C 0.98887 0.53799 0.3711 0.0
C451 C 0.91537 0.52171 0.39127 0.0
C452 C 0.88497 0.53673 0.4058 0.0
C453 C 0.97064 0.49151 0.36384 0.0
C454 C 0.92475 0.4596 0.37132 0.0
C455 C 0.89715 0.47518 0.38406 0.0
C456 C 0.90586 0.40948 0.36846 0.0
C457 C 0.00097 0.47654 0.34913 0.0
C458 C 0.86842 0.38348 0.35048 0.0
C459 C 0.84689 0.33546 0.35057 0.0
C460 C 0.86203 0.31272 0.36903 0.0
C461 C 0.90079 0.33905 0.38616 0.0
C462 C 0.92254 0.38709 0.38585 0.0
H463 H 0.03091 0.50598 0.33864 0.0
H464 H 0.01427 0.46168 0.36504 0.0
H465 H 0.98117 0.44961 0.333 0.0
H466 H 0.85505 0.40029 0.33702 0.0
H467 H 0.81708 0.31618 0.3371 0.0
H468 H 0.47458 0.15133 0.6696 0.0
H469 H 0.52123 0.11409 0.67056 0.0
H470 H 0.43281 0.02041 0.7351 0.0
H471 H 0.38593 0.05766 0.73452 0.0
H472 H 0.56568 0.11228 0.72305 0.0
H473 H 0.45471 0.93814 0.67713 0.0
H474 H 0.44586 0.98618 0.66996 0.0
H475 H 0.42707 0.95567 0.70303 0.0
C476 C 0.46433 0.12213 0.68358 0.0
C477 C 0.42668 0.10764 0.70217 0.0
C478 C 0.49112 0.10098 0.68408 0.0
C479 C 0.48035 0.06456 0.70283 0.0
C480 C 0.44128 0.04819 0.72023 0.0
H481 H 0.6097 0.95077 0.79552 0.0
H482 H 0.58575 0.00306 0.77613 0.0
C483 C 0.41458 0.06954 0.7199 0.0
C484 C 0.51269 0.04714 0.70659 0.0
H485 H 0.51994 0.94933 0.70393 0.0
C486 C 0.55608 0.07686 0.71843 0.0
C487 C 0.50011 0.00113 0.7003 0.0
C488 C 0.45456 0.96841 0.68667 0.0
C489 C 0.58629 0.06094 0.72564 0.0
C490 C 0.57262 0.01427 0.72083 0.0
C491 C 0.53031 0.98521 0.70754 0.0
C492 C 0.59869 0.9932 0.73243 0.0
C493 C 0.63199 0.09367 0.73908 0.0
C494 C 0.6159 0.97211 0.71432 0.0
C495 C 0.63027 0.94268 0.7254 0.0
C496 C 0.62645 0.93317 0.75466 0.0
C497 C 0.6131 0.95758 0.77291 0.0
C498 C 0.59939 0.98745 0.76186 0.0
H499 H 0.64251 0.13018 0.73457 0.0
H500 H 0.62916 0.08871 0.76243 0.0
H501 H 0.6593 0.08679 0.73139 0.0
H502 H 0.61536 0.97605 0.69152 0.0
H503 H 0.64002 0.92406 0.71079 0.0
H504 H 0.5899 0.66404 0.7481 0.0
H505 H 0.54318 0.57982 0.74758 0.0
H506 H 0.46724 0.58382 0.82034 0.0
H507 H 0.51354 0.66783 0.8211 0.0
H508 H 0.5211 0.50907 0.79201 0.0
H509 H 0.37087 0.52266 0.75426 0.0
H510 H 0.42912 0.57047 0.75255 0.0
H511 H 0.39946 0.55387 0.78593 0.0
C512 C 0.56393 0.64698 0.76435 0.0
C513 C 0.55504 0.67262 0.7844 0.0
C514 C 0.53724 0.59892 0.76399 0.0
C515 C 0.50135 0.57593 0.78362 0.0
C516 C 0.49439 0.60114 0.80479 0.0
H517 H 0.34586 0.27383 0.78136 0.0
H518 H 0.37191 0.35117 0.80024 0.0
C519 C 0.52102 0.64911 0.8052 0.0
C520 C 0.46926 0.52598 0.78055 0.0
H521 H 0.36097 0.44826 0.75782 0.0
C522 C 0.48586 0.49555 0.78499 0.0
C523 C 0.42345 0.50883 0.7712 0.0
C524 C 0.40448 0.5405 0.76549 0.0
C525 C 0.45814 0.44828 0.77952 0.0
C526 C 0.41264 0.43127 0.76956 0.0
C527 C 0.39563 0.46152 0.76587 0.0
C528 C 0.38521 0.38361 0.75898 0.0
C529 C 0.47843 0.41721 0.783 0.0
C530 C 0.38109 0.37612 0.7296 0.0
C531 C 0.36633 0.33221 0.71878 0.0
C532 C 0.35528 0.29519 0.73723 0.0
C533 C 0.35411 0.30174 0.76664 0.0
C534 C 0.36932 0.34591 0.77748 0.0
H535 H 0.51586 0.43683 0.7878 0.0
H536 H 0.4607 0.39269 0.80064 0.0
H537 H 0.47316 0.39671 0.7634 0.0
H538 H 0.393 0.40488 0.71503 0.0
H539 H 0.36733 0.32805 0.69603 0.0
H540 H 0.16963 0.49395 0.15073 0.0
H541 H 0.13191 0.54021 0.14868 0.0
H542 H 0.03501 0.44598 0.0875 0.0
H543 H 0.07268 0.39951 0.08917 0.0
H544 H 0.12337 0.58017 0.09499 0.0
H545 H 0.95612 0.46802 0.14852 0.0
H546 H 0.00642 0.46245 0.15428 0.0
H547 H 0.97268 0.43953 0.12264 0.0
C548 C 0.13979 0.48254 0.13718 0.0
C549 C 0.12422 0.44312 0.11999 0.0
C550 C 0.11841 0.50911 0.13603 0.0
C551 C 0.08072 0.49633 0.11804 0.0
C552 C 0.06384 0.45603 0.10174 0.0
H553 H 0.95068 0.60976 0.02627 0.0
H554 H 0.00711 0.59097 0.04502 0.0
C555 C 0.08543 0.4296 0.10268 0.0
C556 C 0.06125 0.52695 0.11444 0.0
H557 H 0.96131 0.52953 0.12023 0.0
C558 C 0.08819 0.56957 0.10092 0.0
C559 C 0.01563 0.51314 0.12252 0.0
C560 C 0.98603 0.46846 0.13803 0.0
C561 C 0.06963 0.59758 0.09374 0.0
C562 C 0.02311 0.5824 0.10025 0.0
C563 C 0.99706 0.54107 0.11528 0.0
C564 C -0.00117 0.60539 0.08872 0.0
C565 C 0.09939 0.64251 0.07855 0.0
C566 C 0.97692 0.6215 0.10698 0.0
C567 C 0.9449 0.6327 0.09627 0.0
C568 C 0.93371 0.62689 0.06723 0.0
C569 C 0.95862 0.61453 0.04873 0.0
C570 C 0.99098 0.6039 0.05941 0.0
H571 H 0.13657 0.6554 0.0823 0.0
H572 H 0.09298 0.63715 0.05538 0.0
H573 H 0.09106 0.66921 0.08544 0.0
H574 H 0.98244 0.6226 0.12969 0.0
H575 H 0.92606 0.64187 0.11107 0.0
H576 H 0.31221 0.83169 0.49076 0.0
H577 H 0.39612 0.8692 0.49091 0.0
H578 H 0.403 0.9605 0.42423 0.0
H579 H 0.31891 0.92285 0.42361 0.0
H580 H 0.44354 0.8697 0.43821 0.0
H581 H 0.5055 0.04409 0.48346 0.0
H582 H 0.44888 0.99581 0.49084 0.0
H583 H 0.46018 0.02593 0.45766 0.0
C584 C 0.33152 0.86044 0.47654 0.0
C585 C 0.30888 0.87406 0.45697 0.0
C586 C 0.37945 0.88175 0.47668 0.0
C587 C 0.40552 0.91754 0.45764 0.0
C588 C 0.3833 0.93318 0.4393 0.0
H589 H 0.64438 0.03189 0.3632 0.0
H590 H 0.56968 0.97832 0.38391 0.0
C591 C 0.33529 0.9116 0.43894 0.0
C592 C 0.45527 0.93487 0.45441 0.0
H593 H 0.55967 0.03327 0.45638 0.0
C594 C 0.46917 0.90522 0.44268 0.0
C595 C 0.4884 0.981 0.46053 0.0
C596 C 0.47521 0.01358 0.47405 0.0
C597 C 0.51523 0.92146 0.4352 0.0
C598 C 0.54785 0.96834 0.43962 0.0
C599 C 0.53444 0.99723 0.45303 0.0
C600 C 0.59444 0.98988 0.42721 0.0
C601 C 0.52847 0.8889 0.42174 0.0
C602 C 0.63336 0.01234 0.44465 0.0
C603 C 0.67628 0.04261 0.43282 0.0
C604 C 0.68041 0.05158 0.40347 0.0
C605 C 0.64219 0.0257 0.38586 0.0
C606 C 0.59949 0.99502 0.39767 0.0
H607 H 0.50318 0.8524 0.42681 0.0
H608 H 0.52947 0.89306 0.39834 0.0
H609 H 0.56317 0.89663 0.42888 0.0
H610 H 0.62995 0.00885 0.46751 0.0
H611 H 0.70507 0.06215 0.44696 0.0
H612 H 0.24755 0.18332 0.80095 0.0
H613 H 0.2076 0.19729 0.83919 0.0
H614 H 0.18301 0.07235 0.88067 0.0
H615 H 0.22289 0.05753 0.84199 0.0
H616 H 0.11886 0.14648 0.86509 0.0
H617 H 0.26301 0.17667 0.93718 0.0
H618 H 0.26676 0.17266 0.8992 0.0
H619 H 0.23317 0.12153 0.91987 0.0
C620 C 0.23266 0.1579 0.81765 0.0
C621 C 0.23892 0.11936 0.81841 0.0
C622 C 0.20988 0.16615 0.83963 0.0
C623 C 0.19296 0.13623 0.86291 0.0
C624 C 0.1965 0.09623 0.86304 0.0
H625 H 0.0656 0.19816 0.00751 0.0
H626 H 0.07585 0.15715 0.96767 0.0
C627 C 0.21937 0.08788 0.84098 0.0
C628 C 0.17601 0.1499 0.888 0.0
H629 H 0.20721 0.19242 0.95515 0.0
C630 C 0.13763 0.15584 0.88498 0.0
C631 C 0.20106 0.16261 0.91374 0.0
C632 C 0.24349 0.15844 0.91782 0.0
C633 C 0.12441 0.17541 0.90681 0.0
C634 C 0.15021 0.18912 0.93222 0.0
C635 C 0.18758 0.18177 0.93558 0.0
C636 C 0.14152 0.21447 0.95481 0.0
C637 C 0.0844 0.18332 0.90216 0.0
C638 C 0.1749 0.26029 0.96057 0.0
C639 C 0.16912 0.28382 0.98317 0.0
C640 C 0.12996 0.26188 0.00064 0.0
C641 C 0.0959 0.21627 0.99431 0.0
C642 C 0.10171 0.19272 0.9716 0.0
H643 H 0.07198 0.17652 0.87986 0.0
H644 H 0.05549 0.16008 0.91624 0.0
H645 H 0.09431 0.21933 0.9077 0.0
H646 H 0.2058 0.27767 0.94775 0.0
H647 H 0.19562 0.31908 0.98714 0.0
H648 H 0.80275 0.11702 0.29707 0.0
H649 H 0.85656 0.11936 0.26123 0.0
H650 H 0.96712 0.18083 0.32226 0.0
H651 H 0.91312 0.17653 0.35842 0.0
H652 H 0.92055 0.19846 0.24346 0.0
H653 H 0.00648 0.10381 0.27966 0.0
H654 H 0.95393 0.0955 0.29571 0.0
H655 H 0.00896 0.14256 0.30672 0.0
C656 C 0.83825 0.12956 0.30306 0.0
C657 C 0.85392 0.14701 0.3304 0.0
C658 C 0.86894 0.13078 0.2826 0.0
C659 C 0.91592 0.15008 0.28902 0.0
C660 C 0.93095 0.16468 0.3169 0.0
H661 H 0.16319 0.32608 0.20477 0.0
H662 H 0.10411 0.2736 0.23796 0.0
C663 C 0.90007 0.16261 0.33753 0.0
C664 C 0.94998 0.16312 0.26575 0.0
H665 H 0.05037 0.16732 0.24671 0.0
C666 C 0.9482 0.19053 0.24381 0.0
C667 C 0.98636 0.1532 0.26629 0.0
C668 C 0.98874 0.12173 0.28825 0.0
C669 C 0.98289 0.21024 0.22331 0.0
C670 C 0.02032 0.20214 0.22466 0.0
C671 C 0.02153 0.17342 0.24587 0.0
C672 C 0.06 0.2268 0.20546 0.0
C673 C 0.98052 0.24158 0.20116 0.0
C674 C 0.0553 0.21665 0.17639 0.0
C675 C 0.0888 0.24664 0.15734 0.0
C676 C 0.12744 0.28722 0.16716 0.0
C677 C 0.13368 0.29529 0.19654 0.0
C678 C 0.10013 0.26524 0.21555 0.0
H679 H 0.95216 0.24888 0.20531 0.0
H680 H 0.01351 0.2748 0.20033 0.0
H681 H 0.97478 0.22509 0.17998 0.0
H682 H 0.02446 0.18702 0.16831 0.0
H683 H 0.08316 0.23924 0.13485 0.0
H684 H 0.74192 0.81459 0.64297 0.0
H685 H 0.78191 0.8642 0.60195 0.0
H686 H 0.77376 0.97603 0.64142 0.0
H687 H 0.73404 0.927 0.6821 0.0
H688 H 0.74206 0.91246 0.56833 0.0
H689 H 0.91254 0.0305 0.61593 0.0
H690 H 0.87456 0.9732 0.62946 0.0
H691 H 0.86405 0.01949 0.63772 0.0
C692 C 0.74916 0.8499 0.6429 0.0
C693 C 0.73461 0.86689 0.66555 0.0
C694 C 0.77188 0.87808 0.61956 0.0
C695 C 0.78117 0.92382 0.61893 0.0
C696 C 0.76737 0.94098 0.64173 0.0
H697 H 0.858 0.16183 0.52492 0.0
H698 H 0.84633 0.10251 0.55921 0.0
C699 C 0.74424 0.91279 0.66478 0.0
C700 C 0.8022 0.95328 0.59377 0.0
H701 H 0.8926 0.0573 0.57412 0.0
C702 C 0.77544 0.94363 0.56918 0.0
C703 C 0.84563 0.99383 0.59521 0.0
C704 C 0.87615 0.00484 0.6209 0.0
C705 C 0.78949 0.97528 0.54669 0.0
C706 C 0.83206 0.01707 0.54868 0.0
C707 C 0.86002 0.02531 0.57263 0.0
C708 C 0.84537 0.0548 0.52786 0.0
C709 C 0.75714 0.96511 0.52198 0.0
C710 C 0.85043 0.0484 0.49892 0.0
C711 C 0.85686 0.0823 0.47919 0.0
C712 C 0.859 0.12339 0.48814 0.0
C713 C 0.85689 0.13081 0.51733 0.0
C714 C 0.85005 0.09681 0.53696 0.0
H715 H 0.72211 0.93584 0.52646 0.0
H716 H 0.75422 0.9958 0.51657 0.0
H717 H 0.77078 0.95597 0.50314 0.0
H718 H 0.84808 0.0167 0.49151 0.0
H719 H 0.85916 0.07601 0.45688 0.0
H720 H 0.67457 0.86404 0.86325 0.0
H721 H 0.72487 0.86421 0.9008 0.0
H722 H 0.78775 0.81422 0.84129 0.0
H723 H 0.7392 0.81611 0.80351 0.0
H724 H 0.71609 0.78763 0.91826 0.0
H725 H 0.89796 0.89634 0.88727 0.0
H726 H 0.85221 0.90057 0.8699 0.0
H727 H 0.86631 0.85743 0.85909 0.0
C728 C 0.70018 0.85452 0.85802 0.0
C729 C 0.70276 0.8397 0.83055 0.0
C730 C 0.72898 0.85474 0.87947 0.0
C731 C 0.76041 0.83954 0.8739 0.0
C732 C 0.76482 0.82733 0.84604 0.0
H733 H 0.84061 0.67147 0.95713 0.0
H734 H 0.83418 0.72503 0.92485 0.0
C735 C 0.73664 0.82796 0.82446 0.0
C736 C 0.78187 0.82822 0.89774 0.0
H737 H 0.88108 0.8319 0.91901 0.0
C738 C 0.75245 0.79844 0.91882 0.0
C739 C 0.82926 0.84199 0.89843 0.0
C740 C 0.86323 0.87625 0.87758 0.0
C741 C 0.76841 0.77995 0.93952 0.0
C742 C 0.81516 0.79172 0.93925 0.0
C743 C 0.84522 0.82297 0.91902 0.0
C744 C 0.83142 0.76787 0.95823 0.0
C745 C 0.73458 0.74588 0.96062 0.0
C746 C 0.83409 0.7757 0.98756 0.0
C747 C 0.83753 0.74506 0.0061 0.0
C748 C 0.83821 0.70614 0.99549 0.0
C749 C 0.83975 0.70088 0.96597 0.0
C750 C 0.83635 0.73157 0.94748 0.0
H751 H 0.69847 0.73642 0.95581 0.0
H752 H 0.7369 0.71397 0.9609 0.0
H753 H 0.74311 0.7611 0.98222 0.0
H754 H 0.83038 0.80367 0.99616 0.0
H755 H 0.83667 0.75031 0.02873 0.0
H756 H 0.05775 0.8002 0.35543 0.0
H757 H 0.00386 0.78959 0.31793 0.0
H758 H 0.10897 0.90985 0.2748 0.0
H759 H 0.16376 0.92115 0.31273 0.0
H760 H 0.97079 0.84404 0.29219 0.0
H761 H 0.0761 0.80275 0.21917 0.0
H762 H 0.08534 0.80769 0.257 0.0
H763 H 0.10466 0.85854 0.23573 0.0
C764 C 0.0694 0.82535 0.33852 0.0
C765 C 0.11542 0.8614 0.33702 0.0
C766 C 0.03839 0.81907 0.31697 0.0
C767 C 0.05263 0.84854 0.29345 0.0
C768 C 0.09759 0.88632 0.29264 0.0
H769 H 0.8583 0.78703 0.15196 0.0
H770 H 0.91183 0.82917 0.19058 0.0
C771 C 0.12882 0.89264 0.31424 0.0
C772 C 0.02152 0.83609 0.26874 0.0
H773 H 0.00492 0.78957 0.20242 0.0
C774 C 0.97843 0.83289 0.27232 0.0
C775 C 0.03159 0.82108 0.24305 0.0
C776 C 0.07674 0.82228 0.23839 0.0
C777 C 0.94444 0.81343 0.25121 0.0
C778 C 0.95412 0.79713 0.22597 0.0
C779 C 0.9978 0.80213 0.22191 0.0
C780 C 0.91847 0.77122 0.2044 0.0
C781 C 0.89771 0.80821 0.25656 0.0
C782 C 0.90431 0.7247 0.19963 0.0
C783 C 0.87378 0.70057 0.1777 0.0
C784 C 0.85701 0.7226 0.16 0.0
C785 C 0.87012 0.7689 0.16543 0.0
C786 C 0.90077 0.79308 0.18742 0.0
H787 H 0.89384 0.81693 0.27876 0.0
H788 H 0.89263 0.83142 0.2421 0.0
H789 H 0.87017 0.77234 0.25202 0.0
H790 H 0.91758 0.70726 0.21262 0.0
H791 H 0.86384 0.66483 0.17433 0.0
H792 H 0.30374 0.18013 0.62773 0.0
H793 H 0.25315 0.13067 0.59004 0.0
H794 H 0.19153 0.01638 0.64857 0.0
H795 H 0.24044 0.06619 0.68654 0.0
H796 H 0.26249 0.06365 0.57153 0.0
H797 H 0.08067 0.98841 0.60323 0.0
H798 H 0.12632 0.03817 0.62086 0.0
H799 H 0.11284 0.98082 0.63092 0.0
C800 C 0.27831 0.14483 0.63274 0.0
C801 C 0.27623 0.12686 0.65997 0.0
C802 C 0.24935 0.11661 0.61122 0.0
C803 C 0.21825 0.06978 0.61643 0.0
C804 C 0.21423 0.05258 0.6441 0.0
H805 H 0.13613 0.82281 0.53118 0.0
H806 H 0.14221 0.8824 0.56366 0.0
C807 C 0.24259 0.08104 0.66579 0.0
C808 C 0.19679 0.03751 0.59229 0.0
H809 H 0.09773 0.94232 0.57038 0.0
C810 C 0.22618 0.03798 0.57089 0.0
C811 C 0.14946 0.00372 0.5915 0.0
C812 C 0.11552 0.00309 0.61275 0.0
C813 C 0.21028 0.00416 0.54976 0.0
C814 C 0.16356 0.96901 0.54985 0.0
C815 C 0.13354 0.96941 0.57045 0.0
C816 C 0.14739 0.92929 0.53046 0.0
C817 C 0.24423 0.00472 0.52842 0.0
C818 C 0.14598 0.93517 0.50109 0.0
C819 C 0.14276 0.90128 0.48242 0.0
C820 C 0.14098 0.86111 0.49293 0.0
C821 C 0.13793 0.85355 0.5224 0.0
C822 C 0.14114 0.88745 0.54102 0.0
H823 H 0.28035 0.03088 0.53363 0.0
H824 H 0.24161 0.97038 0.52731 0.0
H825 H 0.23613 0.01274 0.50707 0.0
H826 H 0.15057 0.96726 0.49263 0.0
H827 H 0.14476 0.90797 0.45982 0.0
loop_
_geom_bond_atom_site_label_1
_geom_bond_atom_site_label_2
_geom_bond_distance
_geom_bond_site_symmetry_2
_ccdc_geom_bond_type
Co0 N5 2.057 . S
Co0 O17 2.021 . S
Co0 O20 2.062 . S
Co0 O24 2.117 . S
Co0 O25 2.020 . S
C1 O21 1.259 . S
C1 O24 1.258 . S
Co2 N11 2.057 . S
Co2 O18 2.117 . S
Co2 O19 2.020 . S
Co2 O21 2.021 . S
Co2 O26 2.062 . S
C3 N5 1.316 . S
C3 N6 1.347 . S
C3 H8 0.931 . S
C4 N5 1.375 . S
C4 C7 1.350 . S
C4 H9 0.930 . S
N5 Co0 2.057 . S
N5 C3 1.316 . S
N5 C4 1.375 . S
N6 C3 1.347 . S
N6 C7 1.373 . S
C7 C4 1.350 . S
C7 N6 1.373 . S
C7 H28 0.931 . S
H8 C3 0.931 . S
H9 C4 0.930 . S
C10 O17 1.259 . S
C10 O18 1.258 . S
N11 Co2 2.057 . S
N11 C12 1.316 . S
N11 C13 1.375 . S
C12 N11 1.316 . S
C12 N14 1.347 . S
C12 H23 0.931 . S
C13 N11 1.375 . S
C13 C15 1.350 . S
C13 H22 0.930 . S
N14 C12 1.347 . S
N14 C15 1.373 . S
C15 C13 1.350 . S
C15 N14 1.373 . S
C15 H29 0.931 . S
C16 O19 1.256 . S
C16 O20 1.255 . S
O17 Co0 2.021 . S
O17 C10 1.259 . S
O18 Co2 2.117 . S
O18 C10 1.258 . S
O19 Co2 2.020 . S
O19 C16 1.256 . S
O20 Co0 2.062 . S
O20 C16 1.255 . S
O21 C1 1.259 . S
O21 Co2 2.021 . S
H22 C13 0.930 . S
H23 C12 0.931 . S
O24 Co0 2.117 . S
O24 C1 1.258 . S
O25 Co0 2.020 . S
O25 C27 1.256 . S
O26 Co2 2.062 . S
O26 C27 1.255 . S
C27 O25 1.256 . S
C27 O26 1.255 . S
H28 C7 0.931 . S
H29 C15 0.931 . S
Co30 N35 2.057 . S
Co30 O47 2.021 . S
Co30 O50 2.062 . S
Co30 O54 2.117 . S
Co30 O55 2.020 . S
C31 O51 1.259 . S
C31 O54 1.258 . S
Co32 N41 2.057 . S
Co32 O48 2.117 . S
Co32 O49 2.020 . S
Co32 O51 2.021 . S
Co32 O56 2.062 . S
C33 N35 1.316 . S
C33 N36 1.347 . S
C33 H38 0.931 . S
C34 N35 1.375 . S
C34 C37 1.350 . S
C34 H39 0.930 . S
N35 Co30 2.057 . S
N35 C33 1.316 . S
N35 C34 1.375 . S
N36 C33 1.347 . S
N36 C37 1.373 . S
C37 C34 1.350 . S
C37 N36 1.373 . S
C37 H58 0.931 . S
H38 C33 0.931 . S
H39 C34 0.930 . S
C40 O47 1.259 . S
C40 O48 1.258 . S
N41 Co32 2.057 . S
N41 C42 1.316 . S
N41 C43 1.375 . S
C42 N41 1.316 . S
C42 N44 1.347 . S
C42 H53 0.931 . S
C43 N41 1.375 . S
C43 C45 1.350 . S
C43 H52 0.930 . S
N44 C42 1.347 . S
N44 C45 1.373 . S
C45 C43 1.350 . S
C45 N44 1.373 . S
C45 H59 0.931 . S
C46 O49 1.256 . S
C46 O50 1.255 . S
O47 Co30 2.021 . S
O47 C40 1.259 . S
O48 Co32 2.117 . S
O48 C40 1.258 . S
O49 Co32 2.020 . S
O49 C46 1.256 . S
O50 Co30 2.062 . S
O50 C46 1.255 . S
O51 C31 1.259 . S
O51 Co32 2.021 . S
H52 C43 0.930 . S
H53 C42 0.931 . S
O54 Co30 2.117 . S
O54 C31 1.258 . S
O55 Co30 2.020 . S
O55 C57 1.256 . S
O56 Co32 2.062 . S
O56 C57 1.255 . S
C57 O55 1.256 . S
C57 O56 1.255 . S
H58 C37 0.931 . S
H59 C45 0.931 . S
Co60 N65 2.057 . S
Co60 O77 2.021 . S
Co60 O80 2.062 . S
Co60 O84 2.117 . S
Co60 O85 2.020 . S
C61 O81 1.259 . S
C61 O84 1.258 . S
Co62 N71 2.057 . S
Co62 O78 2.117 . S
Co62 O79 2.020 . S
Co62 O81 2.021 . S
Co62 O86 2.062 . S
C63 N65 1.316 . S
C63 N66 1.347 . S
C63 H68 0.931 . S
C64 N65 1.375 . S
C64 C67 1.350 . S
C64 H69 0.930 . S
N65 Co60 2.057 . S
N65 C63 1.316 . S
N65 C64 1.375 . S
N66 C63 1.347 . S
N66 C67 1.373 . S
C67 C64 1.350 . S
C67 N66 1.373 . S
C67 H88 0.931 . S
H68 C63 0.931 . S
H69 C64 0.930 . S
C70 O77 1.259 . S
C70 O78 1.258 . S
N71 Co62 2.057 . S
N71 C72 1.316 . S
N71 C73 1.375 . S
C72 N71 1.316 . S
C72 N74 1.347 . S
C72 H83 0.931 . S
C73 N71 1.375 . S
C73 C75 1.350 . S
C73 H82 0.930 . S
N74 C72 1.347 . S
N74 C75 1.373 . S
C75 C73 1.350 . S
C75 N74 1.373 . S
C75 H89 0.931 . S
C76 O79 1.256 . S
C76 O80 1.255 . S
O77 Co60 2.021 . S
O77 C70 1.259 . S
O78 Co62 2.117 . S
O78 C70 1.258 . S
O79 Co62 2.020 . S
O79 C76 1.256 . S
O80 Co60 2.062 . S
O80 C76 1.255 . S
O81 C61 1.259 . S
O81 Co62 2.021 . S
H82 C73 0.930 . S
H83 C72 0.931 . S
O84 Co60 2.117 . S
O84 C61 1.258 . S
O85 Co60 2.020 . S
O85 C87 1.256 . S
O86 Co62 2.062 . S
O86 C87 1.255 . S
C87 O85 1.256 . S
C87 O86 1.255 . S
H88 C67 0.931 . S
H89 C75 0.931 . S
Co90 N95 2.057 . S
Co90 O107 2.021 . S
Co90 O110 2.062 . S
Co90 O114 2.117 . S
Co90 O115 2.020 . S
C91 O111 1.259 . S
C91 O114 1.258 . S
Co92 N101 2.057 . S
Co92 O108 2.117 . S
Co92 O109 2.020 . S
Co92 O111 2.021 . S
Co92 O116 2.062 . S
C93 N95 1.316 1_556 S
C93 N96 1.347 . S
C93 H98 0.931 . S
C94 N95 1.375 1_556 S
C94 C97 1.350 . S
C94 H99 0.930 . S
N95 Co90 2.057 . S
N95 C93 1.316 1_554 S
N95 C94 1.375 1_554 S
N96 C93 1.347 . S
N96 C97 1.373 . S
C97 C94 1.350 . S
C97 N96 1.373 . S
C97 H118 0.931 . S
H98 C93 0.931 . S
H99 C94 0.930 . S
C100 O107 1.259 . S
C100 O108 1.258 . S
N101 Co92 2.057 . S
N101 C102 1.316 . S
N101 C103 1.375 . S
C102 N101 1.316 . S
C102 N104 1.347 . S
C102 H113 0.931 . S
C103 N101 1.375 . S
C103 C105 1.350 . S
C103 H112 0.930 . S
N104 C102 1.347 . S
N104 C105 1.373 . S
C105 C103 1.350 . S
C105 N104 1.373 . S
C105 H119 0.931 . S
C106 O109 1.256 . S
C106 O110 1.255 . S
O107 Co90 2.021 . S
O107 C100 1.259 . S
O108 Co92 2.117 . S
O108 C100 1.258 . S
O109 Co92 2.020 . S
O109 C106 1.256 . S
O110 Co90 2.062 . S
O110 C106 1.255 . S
O111 C91 1.259 . S
O111 Co92 2.021 . S
H112 C103 0.930 . S
H113 C102 0.931 . S
O114 Co90 2.117 . S
O114 C91 1.258 . S
O115 Co90 2.020 . S
O115 C117 1.256 . S
O116 Co92 2.062 . S
O116 C117 1.255 . S
C117 O115 1.256 . S
C117 O116 1.255 . S
H118 C97 0.931 . S
H119 C105 0.931 . S
Co120 N125 2.057 . S
Co120 O137 2.021 . S
Co120 O140 2.062 . S
Co120 O144 2.117 . S
Co120 O145 2.020 . S
C121 O141 1.259 . S
C121 O144 1.258 . S
Co122 N131 2.057 . S
Co122 O138 2.117 . S
Co122 O139 2.020 . S
Co122 O141 2.021 . S
Co122 O146 2.062 . S
C123 N125 1.316 . S
C123 N126 1.347 . S
C123 H128 0.931 . S
C124 N125 1.375 . S
C124 C127 1.350 . S
C124 H129 0.930 . S
N125 Co120 2.057 . S
N125 C123 1.316 . S
N125 C124 1.375 . S
N126 C123 1.347 . S
N126 C127 1.373 . S
C127 C124 1.350 . S
C127 N126 1.373 . S
C127 H148 0.931 . S
H128 C123 0.931 . S
H129 C124 0.930 . S
C130 O137 1.259 . S
C130 O138 1.258 . S
N131 Co122 2.057 . S
N131 C132 1.316 . S
N131 C133 1.375 . S
C132 N131 1.316 . S
C132 N134 1.347 . S
C132 H143 0.931 . S
C133 N131 1.375 . S
C133 C135 1.350 . S
C133 H142 0.930 . S
N134 C132 1.347 . S
N134 C135 1.373 . S
C135 C133 1.350 . S
C135 N134 1.373 . S
C135 H149 0.931 . S
C136 O139 1.256 . S
C136 O140 1.255 . S
O137 Co120 2.021 . S
O137 C130 1.259 . S
O138 Co122 2.117 . S
O138 C130 1.258 . S
O139 Co122 2.020 . S
O139 C136 1.256 . S
O140 Co120 2.062 . S
O140 C136 1.255 . S
O141 C121 1.259 . S
O141 Co122 2.021 . S
H142 C133 0.930 . S
H143 C132 0.931 . S
O144 Co120 2.117 . S
O144 C121 1.258 . S
O145 Co120 2.020 . S
O145 C147 1.256 . S
O146 Co122 2.062 . S
O146 C147 1.255 . S
C147 O145 1.256 . S
C147 O146 1.255 . S
H148 C127 0.931 . S
H149 C135 0.931 . S
Co150 N155 2.057 . S
Co150 O167 2.021 . S
Co150 O170 2.062 . S
Co150 O174 2.117 . S
Co150 O175 2.020 . S
C151 O171 1.259 . S
C151 O174 1.258 . S
Co152 N161 2.057 . S
Co152 O168 2.117 . S
Co152 O169 2.020 . S
Co152 O171 2.021 . S
Co152 O176 2.062 . S
C153 N155 1.316 . S
C153 N156 1.347 . S
C153 H158 0.931 . S
C154 N155 1.375 . S
C154 C157 1.350 . S
C154 H159 0.930 . S
N155 Co150 2.057 . S
N155 C153 1.316 . S
N155 C154 1.375 . S
N156 C153 1.347 . S
N156 C157 1.373 . S
C157 C154 1.350 . S
C157 N156 1.373 . S
C157 H178 0.931 . S
H158 C153 0.931 . S
H159 C154 0.930 . S
C160 O167 1.259 . S
C160 O168 1.258 . S
N161 Co152 2.057 . S
N161 C162 1.316 . S
N161 C163 1.375 . S
C162 N161 1.316 . S
C162 N164 1.347 . S
C162 H173 0.931 . S
C163 N161 1.375 . S
C163 C165 1.350 . S
C163 H172 0.930 . S
N164 C162 1.347 . S
N164 C165 1.373 . S
C165 C163 1.350 . S
C165 N164 1.373 . S
C165 H179 0.931 . S
C166 O169 1.256 . S
C166 O170 1.255 . S
O167 Co150 2.021 . S
O167 C160 1.259 . S
O168 Co152 2.117 . S
O168 C160 1.258 . S
O169 Co152 2.020 . S
O169 C166 1.256 . S
O170 Co150 2.062 . S
O170 C166 1.255 . S
O171 C151 1.259 . S
O171 Co152 2.021 . S
H172 C163 0.930 . S
H173 C162 0.931 . S
O174 Co150 2.117 . S
O174 C151 1.258 . S
O175 Co150 2.020 . S
O175 C177 1.256 . S
O176 Co152 2.062 . S
O176 C177 1.255 . S
C177 O175 1.256 . S
C177 O176 1.255 . S
H178 C157 0.931 . S
H179 C165 0.931 . S
H180 C188 0.929 . S
H181 C190 0.930 . S
H182 C192 0.930 . S
H183 C195 0.929 . S
H184 C198 0.930 . S
H185 C200 0.960 . S
H186 C200 0.960 . S
H187 C200 0.960 . S
C188 H180 0.929 . S
C188 C189 1.377 . S
C188 C190 1.384 . S
C189 C188 1.377 . S
C189 C195 1.390 . S
C190 H181 0.930 . S
C190 C188 1.384 . S
C190 C191 1.372 . S
C191 C190 1.372 . S
C191 C192 1.400 . S
C191 C196 1.490 . S
C192 H182 0.930 . S
C192 C191 1.400 . S
C192 C195 1.386 . S
H193 C209 0.930 . S
H194 C210 0.931 . S
C195 H183 0.929 . S
C195 C189 1.390 . S
C195 C192 1.386 . S
C196 C191 1.490 . S
C196 C198 1.395 . S
C196 C199 1.403 . S
H197 C203 0.930 . S
C198 H184 0.930 . S
C198 C196 1.395 . S
C198 C201 1.403 . S
C199 C196 1.403 . S
C199 C200 1.524 . S
C199 C203 1.400 . S
C200 H185 0.960 . S
C200 H186 0.960 . S
C200 H187 0.960 . S
C200 C199 1.524 . S
C201 C198 1.403 . S
C201 C202 1.392 . S
C201 C205 1.495 . S
C202 C201 1.392 . S
C202 C203 1.385 . S
C202 C204 1.478 . S
C203 H197 0.930 . S
C203 C199 1.400 . S
C203 C202 1.385 . S
C204 C202 1.478 . S
C204 C206 1.381 . S
C204 C210 1.383 . S
C205 C201 1.495 . S
C205 H211 0.959 . S
C205 H212 0.961 . S
C205 H213 0.960 . S
C206 C204 1.381 . S
C206 C207 1.394 . S
C206 H214 0.930 . S
C207 C206 1.394 . S
C207 C208 1.383 . S
C207 H215 0.929 . S
C208 C207 1.383 . S
C208 C209 1.377 . S
C209 H193 0.930 . S
C209 C208 1.377 . S
C209 C210 1.379 . S
C210 H194 0.931 . S
C210 C204 1.383 . S
C210 C209 1.379 . S
H211 C205 0.959 . S
H212 C205 0.961 . S
H213 C205 0.960 . S
H214 C206 0.930 . S
H215 C207 0.929 . S
H216 C224 0.929 . S
H217 C226 0.930 . S
H218 C228 0.930 . S
H219 C231 0.929 . S
H220 C234 0.930 . S
H221 C236 0.960 . S
H222 C236 0.960 . S
H223 C236 0.960 . S
C224 H216 0.929 . S
C224 C225 1.377 . S
C224 C226 1.384 . S
C225 C224 1.377 . S
C225 C231 1.390 . S
C226 H217 0.930 . S
C226 C224 1.384 . S
C226 C227 1.372 . S
C227 C226 1.372 . S
C227 C228 1.400 . S
C227 C232 1.490 . S
C228 H218 0.930 . S
C228 C227 1.400 . S
C228 C231 1.386 . S
H229 C245 0.930 . S
H230 C246 0.931 . S
C231 H219 0.929 . S
C231 C225 1.390 . S
C231 C228 1.386 . S
C232 C227 1.490 . S
C232 C234 1.395 . S
C232 C235 1.403 . S
H233 C239 0.930 . S
C234 H220 0.930 . S
C234 C232 1.395 . S
C234 C237 1.403 . S
C235 C232 1.403 . S
C235 C236 1.524 . S
C235 C239 1.400 . S
C236 H221 0.960 . S
C236 H222 0.960 . S
C236 H223 0.960 . S
C236 C235 1.524 . S
C237 C234 1.403 . S
C237 C238 1.392 . S
C237 C241 1.495 . S
C238 C237 1.392 . S
C238 C239 1.385 . S
C238 C240 1.478 . S
C239 H233 0.930 . S
C239 C235 1.400 . S
C239 C238 1.385 . S
C240 C238 1.478 . S
C240 C242 1.381 . S
C240 C246 1.383 . S
C241 C237 1.495 . S
C241 H247 0.959 . S
C241 H248 0.961 . S
C241 H249 0.960 . S
C242 C240 1.381 . S
C242 C243 1.394 . S
C242 H250 0.930 . S
C243 C242 1.394 . S
C243 C244 1.383 . S
C243 H251 0.929 . S
C244 C243 1.383 . S
C244 C245 1.377 . S
C245 H229 0.930 . S
C245 C244 1.377 . S
C245 C246 1.379 . S
C246 H230 0.931 . S
C246 C240 1.383 . S
C246 C245 1.379 . S
H247 C241 0.959 . S
H248 C241 0.961 . S
H249 C241 0.960 . S
H250 C242 0.930 . S
H251 C243 0.929 . S
H252 C260 0.929 . S
H253 C262 0.930 1_556 S
H254 C264 0.930 . S
H255 C267 0.929 . S
H256 C270 0.930 . S
H257 C272 0.960 . S
H258 C272 0.960 . S
H259 C272 0.960 . S
C260 H252 0.929 . S
C260 C261 1.377 . S
C260 C262 1.384 . S
C261 C260 1.377 . S
C261 C267 1.390 . S
C262 H253 0.930 1_554 S
C262 C260 1.384 . S
C262 C263 1.372 . S
C263 C262 1.372 . S
C263 C264 1.400 . S
C263 C268 1.490 1_554 S
C264 H254 0.930 . S
C264 C263 1.400 . S
C264 C267 1.386 . S
H265 C281 0.930 . S
H266 C282 0.931 . S
C267 H255 0.929 . S
C267 C261 1.390 . S
C267 C264 1.386 . S
C268 C263 1.490 1_556 S
C268 C270 1.395 . S
C268 C271 1.403 . S
H269 C275 0.930 . S
C270 H256 0.930 . S
C270 C268 1.395 . S
C270 C273 1.403 . S
C271 C268 1.403 . S
C271 C272 1.524 . S
C271 C275 1.400 . S
C272 H257 0.960 . S
C272 H258 0.960 . S
C272 H259 0.960 . S
C272 C271 1.524 . S
C273 C270 1.403 . S
C273 C274 1.392 . S
C273 C277 1.495 . S
C274 C273 1.392 . S
C274 C275 1.385 . S
C274 C276 1.478 . S
C275 H269 0.930 . S
C275 C271 1.400 . S
C275 C274 1.385 . S
C276 C274 1.478 . S
C276 C278 1.381 . S
C276 C282 1.383 . S
C277 C273 1.495 . S
C277 H283 0.959 . S
C277 H284 0.961 . S
C277 H285 0.960 . S
C278 C276 1.381 . S
C278 C279 1.394 . S
C278 H286 0.930 . S
C279 C278 1.394 . S
C279 C280 1.383 . S
C279 H287 0.929 . S
C280 C279 1.383 . S
C280 C281 1.377 . S
C281 H265 0.930 . S
C281 C280 1.377 . S
C281 C282 1.379 . S
C282 H266 0.931 . S
C282 C276 1.383 . S
C282 C281 1.379 . S
H283 C277 0.959 . S
H284 C277 0.961 . S
H285 C277 0.960 . S
H286 C278 0.930 . S
H287 C279 0.929 . S
H288 C296 0.929 . S
H289 C298 0.930 . S
H290 C300 0.930 . S
H291 C303 0.929 . S
H292 C306 0.930 . S
H293 C308 0.960 . S
H294 C308 0.960 . S
H295 C308 0.960 . S
C296 H288 0.929 . S
C296 C297 1.377 . S
C296 C298 1.384 . S
C297 C296 1.377 . S
C297 C303 1.390 . S
C298 H289 0.930 . S
C298 C296 1.384 . S
C298 C299 1.372 . S
C299 C298 1.372 . S
C299 C300 1.400 . S
C299 C304 1.490 . S
C300 H290 0.930 . S
C300 C299 1.400 . S
C300 C303 1.386 . S
H301 C317 0.930 . S
H302 C318 0.931 . S
C303 H291 0.929 . S
C303 C297 1.390 . S
C303 C300 1.386 . S
C304 C299 1.490 . S
C304 C306 1.395 . S
C304 C307 1.403 . S
H305 C311 0.930 . S
C306 H292 0.930 . S
C306 C304 1.395 . S
C306 C309 1.403 . S
C307 C304 1.403 . S
C307 C308 1.524 . S
C307 C311 1.400 . S
C308 H293 0.960 . S
C308 H294 0.960 . S
C308 H295 0.960 . S
C308 C307 1.524 . S
C309 C306 1.403 . S
C309 C310 1.392 . S
C309 C313 1.495 . S
C310 C309 1.392 . S
C310 C311 1.385 . S
C310 C312 1.478 . S
C311 H305 0.930 . S
C311 C307 1.400 . S
C311 C310 1.385 . S
C312 C310 1.478 . S
C312 C314 1.381 . S
C312 C318 1.383 . S
C313 C309 1.495 . S
C313 H319 0.959 . S
C313 H320 0.961 . S
C313 H321 0.960 . S
C314 C312 1.381 . S
C314 C315 1.394 . S
C314 H322 0.930 . S
C315 C314 1.394 . S
C315 C316 1.383 . S
C315 H323 0.929 . S
C316 C315 1.383 . S
C316 C317 1.377 . S
C317 H301 0.930 . S
C317 C316 1.377 . S
C317 C318 1.379 . S
C318 H302 0.931 . S
C318 C312 1.383 . S
C318 C317 1.379 . S
H319 C313 0.959 . S
H320 C313 0.961 . S
H321 C313 0.960 . S
H322 C314 0.930 . S
H323 C315 0.929 . S
H324 C332 0.929 . S
H325 C334 0.930 . S
H326 C336 0.930 . S
H327 C339 0.929 . S
H328 C342 0.930 . S
H329 C344 0.960 . S
H330 C344 0.960 . S
H331 C344 0.960 . S
C332 H324 0.929 . S
C332 C333 1.377 . S
C332 C334 1.384 . S
C333 C332 1.377 . S
C333 C339 1.390 . S
C334 H325 0.930 . S
C334 C332 1.384 . S
C334 C335 1.372 . S
C335 C334 1.372 . S
C335 C336 1.400 . S
C335 C340 1.490 . S
C336 H326 0.930 . S
C336 C335 1.400 . S
C336 C339 1.386 . S
H337 C353 0.930 . S
H338 C354 0.931 . S
C339 H327 0.929 . S
C339 C333 1.390 . S
C339 C336 1.386 . S
C340 C335 1.490 . S
C340 C342 1.395 . S
C340 C343 1.403 . S
H341 C347 0.930 . S
C342 H328 0.930 . S
C342 C340 1.395 . S
C342 C345 1.403 . S
C343 C340 1.403 . S
C343 C344 1.524 . S
C343 C347 1.400 . S
C344 H329 0.960 . S
C344 H330 0.960 . S
C344 H331 0.960 . S
C344 C343 1.524 . S
C345 C342 1.403 . S
C345 C346 1.392 . S
C345 C349 1.495 . S
C346 C345 1.392 . S
C346 C347 1.385 . S
C346 C348 1.478 . S
C347 H341 0.930 . S
C347 C343 1.400 . S
C347 C346 1.385 . S
C348 C346 1.478 . S
C348 C350 1.381 . S
C348 C354 1.383 . S
C349 C345 1.495 . S
C349 H355 0.959 . S
C349 H356 0.961 . S
C349 H357 0.960 . S
C350 C348 1.381 . S
C350 C351 1.394 . S
C350 H358 0.930 . S
C351 C350 1.394 . S
C351 C352 1.383 . S
C351 H359 0.929 . S
C352 C351 1.383 . S
C352 C353 1.377 . S
C353 H337 0.930 . S
C353 C352 1.377 . S
C353 C354 1.379 . S
C354 H338 0.931 . S
C354 C348 1.383 . S
C354 C353 1.379 . S
H355 C349 0.959 . S
H356 C349 0.961 . S
H357 C349 0.960 . S
H358 C350 0.930 . S
H359 C351 0.929 . S
H360 C368 0.929 . S
H361 C370 0.930 . S
H362 C372 0.930 . S
H363 C375 0.929 . S
H364 C378 0.930 . S
H365 C380 0.960 . S
H366 C380 0.960 . S
H367 C380 0.960 . S
C368 H360 0.929 . S
C368 C369 1.377 . S
C368 C370 1.384 . S
C369 C368 1.377 . S
C369 C375 1.390 . S
C370 H361 0.930 . S
C370 C368 1.384 . S
C370 C371 1.372 . S
C371 C370 1.372 . S
C371 C372 1.400 . S
C371 C376 1.490 . S
C372 H362 0.930 . S
C372 C371 1.400 . S
C372 C375 1.386 . S
H373 C389 0.930 . S
H374 C390 0.931 . S
C375 H363 0.929 . S
C375 C369 1.390 . S
C375 C372 1.386 . S
C376 C371 1.490 . S
C376 C378 1.395 . S
C376 C379 1.403 . S
H377 C383 0.930 . S
C378 H364 0.930 . S
C378 C376 1.395 . S
C378 C381 1.403 . S
C379 C376 1.403 . S
C379 C380 1.524 . S
C379 C383 1.400 . S
C380 H365 0.960 . S
C380 H366 0.960 . S
C380 H367 0.960 . S
C380 C379 1.524 . S
C381 C378 1.403 . S
C381 C382 1.392 . S
C381 C385 1.495 . S
C382 C381 1.392 . S
C382 C383 1.385 . S
C382 C384 1.478 . S
C383 H377 0.930 . S
C383 C379 1.400 . S
C383 C382 1.385 . S
C384 C382 1.478 . S
C384 C386 1.381 . S
C384 C390 1.383 . S
C385 C381 1.495 . S
C385 H391 0.959 . S
C385 H392 0.961 . S
C385 H393 0.960 . S
C386 C384 1.381 . S
C386 C387 1.394 . S
C386 H394 0.930 . S
C387 C386 1.394 . S
C387 C388 1.383 . S
C387 H395 0.929 . S
C388 C387 1.383 . S
C388 C389 1.377 . S
C389 H373 0.930 . S
C389 C388 1.377 . S
C389 C390 1.379 . S
C390 H374 0.931 . S
C390 C384 1.383 . S
C390 C389 1.379 . S
H391 C385 0.959 . S
H392 C385 0.961 . S
H393 C385 0.960 . S
H394 C386 0.930 . S
H395 C387 0.929 . S
H396 C404 0.929 . S
H397 C406 0.930 . S
H398 C408 0.930 . S
H399 C411 0.929 . S
H400 C414 0.930 . S
H401 C416 0.960 . S
H402 C416 0.960 . S
H403 C416 0.960 . S
C404 H396 0.929 . S
C404 C405 1.377 . S
C404 C406 1.384 . S
C405 C404 1.377 . S
C405 C411 1.390 . S
C406 H397 0.930 . S
C406 C404 1.384 . S
C406 C407 1.372 . S
C407 C406 1.372 . S
C407 C408 1.400 . S
C407 C412 1.490 . S
C408 H398 0.930 . S
C408 C407 1.400 . S
C408 C411 1.386 . S
H409 C425 0.930 . S
H410 C426 0.931 . S
C411 H399 0.929 . S
C411 C405 1.390 . S
C411 C408 1.386 . S
C412 C407 1.490 . S
C412 C414 1.395 . S
C412 C415 1.403 . S
H413 C419 0.930 . S
C414 H400 0.930 . S
C414 C412 1.395 . S
C414 C417 1.403 . S
C415 C412 1.403 . S
C415 C416 1.524 . S
C415 C419 1.400 . S
C416 H401 0.960 . S
C416 H402 0.960 . S
C416 H403 0.960 . S
C416 C415 1.524 . S
C417 C414 1.403 . S
C417 C418 1.392 . S
C417 C421 1.495 . S
C418 C417 1.392 . S
C418 C419 1.385 . S
C418 C420 1.478 . S
C419 H413 0.930 . S
C419 C415 1.400 . S
C419 C418 1.385 . S
C420 C418 1.478 . S
C420 C422 1.381 . S
C420 C426 1.383 . S
C421 C417 1.495 . S
C421 H427 0.959 . S
C421 H428 0.961 . S
C421 H429 0.960 . S
C422 C420 1.381 . S
C422 C423 1.394 . S
C422 H430 0.930 . S
C423 C422 1.394 . S
C423 C424 1.383 . S
C423 H431 0.929 . S
C424 C423 1.383 . S
C424 C425 1.377 . S
C425 H409 0.930 . S
C425 C424 1.377 . S
C425 C426 1.379 . S
C426 H410 0.931 . S
C426 C420 1.383 . S
C426 C425 1.379 . S
H427 C421 0.959 . S
H428 C421 0.961 . S
H429 C421 0.960 . S
H430 C422 0.930 . S
H431 C423 0.929 . S
H432 C440 0.929 . S
H433 C442 0.930 . S
H434 C444 0.930 . S
H435 C447 0.929 . S
H436 C450 0.930 . S
H437 C452 0.960 . S
H438 C452 0.960 . S
H439 C452 0.960 . S
C440 H432 0.929 . S
C440 C441 1.377 . S
C440 C442 1.384 . S
C441 C440 1.377 . S
C441 C447 1.390 . S
C442 H433 0.930 . S
C442 C440 1.384 . S
C442 C443 1.372 . S
C443 C442 1.372 . S
C443 C444 1.400 . S
C443 C448 1.490 . S
C444 H434 0.930 . S
C444 C443 1.400 . S
C444 C447 1.386 . S
H445 C461 0.930 . S
H446 C462 0.931 . S
C447 H435 0.929 . S
C447 C441 1.390 . S
C447 C444 1.386 . S
C448 C443 1.490 . S
C448 C450 1.395 . S
C448 C451 1.403 1_455 S
H449 C455 0.930 . S
C450 H436 0.930 . S
C450 C448 1.395 . S
C450 C453 1.403 . S
C451 C448 1.403 1_655 S
C451 C452 1.524 . S
C451 C455 1.400 . S
C452 H437 0.960 . S
C452 H438 0.960 . S
C452 H439 0.960 . S
C452 C451 1.524 . S
C453 C450 1.403 . S
C453 C454 1.392 1_455 S
C453 C457 1.495 . S
C454 C453 1.392 1_655 S
C454 C455 1.385 . S
C454 C456 1.478 . S
C455 H449 0.930 . S
C455 C451 1.400 . S
C455 C454 1.385 . S
C456 C454 1.478 . S
C456 C458 1.381 . S
C456 C462 1.383 . S
C457 C453 1.495 . S
C457 H463 0.959 . S
C457 H464 0.961 . S
C457 H465 0.960 . S
C458 C456 1.381 . S
C458 C459 1.394 . S
C458 H466 0.931 1_655 S
C459 C458 1.394 . S
C459 C460 1.383 . S
C459 H467 0.929 . S
C460 C459 1.383 . S
C460 C461 1.377 . S
C461 H445 0.930 . S
C461 C460 1.377 . S
C461 C462 1.379 . S
C462 H446 0.931 . S
C462 C456 1.383 . S
C462 C461 1.379 . S
H463 C457 0.959 . S
H464 C457 0.961 . S
H465 C457 0.960 . S
H466 C458 0.931 1_455 S
H467 C459 0.929 . S
H468 C476 0.929 . S
H469 C478 0.930 . S
H470 C480 0.930 . S
H471 C483 0.929 . S
H472 C486 0.930 . S
H473 C488 0.960 . S
H474 C488 0.960 . S
H475 C488 0.960 . S
C476 H468 0.929 . S
C476 C477 1.377 . S
C476 C478 1.384 . S
C477 C476 1.377 . S
C477 C483 1.390 . S
C478 H469 0.930 . S
C478 C476 1.384 . S
C478 C479 1.372 . S
C479 C478 1.372 . S
C479 C480 1.400 . S
C479 C484 1.490 1_545 S
C480 H470 0.930 . S
C480 C479 1.400 . S
C480 C483 1.386 . S
H481 C497 0.930 . S
H482 C498 0.931 . S
C483 H471 0.929 . S
C483 C477 1.390 . S
C483 C480 1.386 . S
C484 C479 1.490 1_565 S
C484 C486 1.395 1_565 S
C484 C487 1.403 . S
H485 C491 0.930 . S
C486 H472 0.930 . S
C486 C484 1.395 1_545 S
C486 C489 1.403 1_545 S
C487 C484 1.403 . S
C487 C488 1.524 . S
C487 C491 1.400 . S
C488 H473 0.960 . S
C488 H474 0.960 . S
C488 H475 0.960 . S
C488 C487 1.524 . S
C489 C486 1.403 1_565 S
C489 C490 1.392 . S
C489 C493 1.495 1_565 S
C490 C489 1.392 . S
C490 C491 1.385 . S
C490 C492 1.478 . S
C491 H485 0.930 . S
C491 C487 1.400 . S
C491 C490 1.385 . S
C492 C490 1.478 . S
C492 C494 1.381 . S
C492 C498 1.383 . S
C493 C489 1.495 1_545 S
C493 H499 0.959 . S
C493 H500 0.961 . S
C493 H501 0.960 1_545 S
C494 C492 1.381 . S
C494 C495 1.394 . S
C494 H502 0.930 . S
C495 C494 1.394 . S
C495 C496 1.383 . S
C495 H503 0.929 . S
C496 C495 1.383 . S
C496 C497 1.377 . S
C497 H481 0.930 . S
C497 C496 1.377 . S
C497 C498 1.379 . S
C498 H482 0.931 . S
C498 C492 1.383 . S
C498 C497 1.379 . S
H499 C493 0.959 . S
H500 C493 0.961 . S
H501 C493 0.960 1_565 S
H502 C494 0.930 . S
H503 C495 0.929 . S
H504 C512 0.929 . S
H505 C514 0.930 . S
H506 C516 0.930 . S
H507 C519 0.929 . S
H508 C522 0.930 . S
H509 C524 0.960 . S
H510 C524 0.960 . S
H511 C524 0.960 . S
C512 H504 0.929 . S
C512 C513 1.377 . S
C512 C514 1.384 . S
C513 C512 1.377 . S
C513 C519 1.390 . S
C514 H505 0.930 . S
C514 C512 1.384 . S
C514 C515 1.372 . S
C515 C514 1.372 . S
C515 C516 1.400 . S
C515 C520 1.490 . S
C516 H506 0.930 . S
C516 C515 1.400 . S
C516 C519 1.386 . S
H517 C533 0.930 . S
H518 C534 0.931 . S
C519 H507 0.929 . S
C519 C513 1.390 . S
C519 C516 1.386 . S
C520 C515 1.490 . S
C520 C522 1.395 . S
C520 C523 1.403 . S
H521 C527 0.930 . S
C522 H508 0.930 . S
C522 C520 1.395 . S
C522 C525 1.403 . S
C523 C520 1.403 . S
C523 C524 1.524 . S
C523 C527 1.400 . S
C524 H509 0.960 . S
C524 H510 0.960 . S
C524 H511 0.960 . S
C524 C523 1.524 . S
C525 C522 1.403 . S
C525 C526 1.392 . S
C525 C529 1.495 . S
C526 C525 1.392 . S
C526 C527 1.385 . S
C526 C528 1.478 . S
C527 H521 0.930 . S
C527 C523 1.400 . S
C527 C526 1.385 . S
C528 C526 1.478 . S
C528 C530 1.381 . S
C528 C534 1.383 . S
C529 C525 1.495 . S
C529 H535 0.959 . S
C529 H536 0.961 . S
C529 H537 0.960 . S
C530 C528 1.381 . S
C530 C531 1.394 . S
C530 H538 0.930 . S
C531 C530 1.394 . S
C531 C532 1.383 . S
C531 H539 0.929 . S
C532 C531 1.383 . S
C532 C533 1.377 . S
C533 H517 0.930 . S
C533 C532 1.377 . S
C533 C534 1.379 . S
C534 H518 0.931 . S
C534 C528 1.383 . S
C534 C533 1.379 . S
H535 C529 0.959 . S
H536 C529 0.961 . S
H537 C529 0.960 . S
H538 C530 0.930 . S
H539 C531 0.929 . S
H540 C548 0.929 . S
H541 C550 0.930 . S
H542 C552 0.937 . S
H543 C555 0.929 . S
H544 C558 0.930 . S
H545 C560 0.960 . S
H546 C560 0.960 . S
H547 C560 0.960 . S
C548 H540 0.929 . S
C548 C549 1.377 . S
C548 C550 1.384 . S
C549 C548 1.377 . S
C549 C555 1.390 . S
C550 H541 0.930 . S
C550 C548 1.384 . S
C550 C551 1.372 . S
C551 C550 1.372 . S
C551 C552 1.400 1_455 S
C551 C556 1.492 1_455 S
C552 H542 0.937 . S
C552 C551 1.400 1_655 S
C552 C555 1.378 1_655 S
H553 C569 0.930 . S
H554 C570 0.931 . S
C555 H543 0.929 . S
C555 C549 1.390 . S
C555 C552 1.378 1_455 S
C556 C551 1.492 1_655 S
C556 C558 1.394 1_655 S
C556 C559 1.400 . S
H557 C563 0.930 . S
C558 H544 0.930 . S
C558 C556 1.394 1_455 S
C558 C561 1.403 1_455 S
C559 C556 1.400 . S
C559 C560 1.524 . S
C559 C563 1.400 . S
C560 H545 0.960 . S
C560 H546 0.960 . S
C560 H547 0.960 . S
C560 C559 1.524 . S
C561 C558 1.403 1_655 S
C561 C562 1.392 . S
C561 C565 1.495 1_655 S
C562 C561 1.392 . S
C562 C563 1.385 . S
C562 C564 1.478 . S
C563 H557 0.930 . S
C563 C559 1.400 . S
C563 C562 1.385 . S
C564 C562 1.478 . S
C564 C566 1.381 . S
C564 C570 1.383 . S
C565 C561 1.495 1_455 S
C565 H571 0.967 . S
C565 H572 0.961 1_454 S
C565 H573 0.960 . S
C566 C564 1.381 . S
C566 C567 1.394 . S
C566 H574 0.930 . S
C567 C566 1.394 . S
C567 C568 1.383 . S
C567 H575 0.929 . S
C568 C567 1.383 . S
C568 C569 1.377 . S
C569 H553 0.930 . S
C569 C568 1.377 . S
C569 C570 1.379 . S
C570 H554 0.931 . S
C570 C564 1.383 . S
C570 C569 1.379 . S
H571 C565 0.967 . S
H572 C565 0.961 1_656 S
H573 C565 0.960 . S
H574 C566 0.930 . S
H575 C567 0.929 . S
H576 C584 0.929 . S
H577 C586 0.930 . S
H578 C588 0.930 . S
H579 C591 0.929 . S
H580 C594 0.930 . S
H581 C596 0.960 . S
H582 C596 0.960 . S
H583 C596 0.960 . S
C584 H576 0.929 . S
C584 C585 1.377 . S
C584 C586 1.384 . S
C585 C584 1.377 . S
C585 C591 1.390 . S
C586 H577 0.930 . S
C586 C584 1.384 . S
C586 C587 1.372 . S
C587 C586 1.372 . S
C587 C588 1.400 . S
C587 C592 1.490 . S
C588 H578 0.930 . S
C588 C587 1.400 . S
C588 C591 1.386 . S
H589 C605 0.930 . S
H590 C606 0.931 . S
C591 H579 0.929 . S
C591 C585 1.390 . S
C591 C588 1.386 . S
C592 C587 1.490 . S
C592 C594 1.395 . S
C592 C595 1.403 1_565 S
H593 C599 0.930 . S
C594 H580 0.930 . S
C594 C592 1.395 . S
C594 C597 1.403 . S
C595 C592 1.403 1_545 S
C595 C596 1.524 . S
C595 C599 1.400 . S
C596 H581 0.960 . S
C596 H582 0.960 . S
C596 H583 0.960 . S
C596 C595 1.524 . S
C597 C594 1.403 . S
C597 C598 1.392 1_565 S
C597 C601 1.495 . S
C598 C597 1.392 1_545 S
C598 C599 1.385 . S
C598 C600 1.478 . S
C599 H593 0.930 . S
C599 C595 1.400 . S
C599 C598 1.385 . S
C600 C598 1.478 . S
C600 C602 1.381 . S
C600 C606 1.383 . S
C601 C597 1.495 . S
C601 H607 0.959 . S
C601 H608 0.961 . S
C601 H609 0.960 . S
C602 C600 1.381 . S
C602 C603 1.394 . S
C602 H610 0.930 . S
C603 C602 1.394 . S
C603 C604 1.383 . S
C603 H611 0.929 . S
C604 C603 1.383 . S
C604 C605 1.377 . S
C605 H589 0.930 . S
C605 C604 1.377 . S
C605 C606 1.379 . S
C606 H590 0.931 . S
C606 C600 1.383 . S
C606 C605 1.379 . S
H607 C601 0.959 . S
H608 C601 0.961 . S
H609 C601 0.960 . S
H610 C602 0.930 . S
H611 C603 0.929 . S
H612 C620 0.929 . S
H613 C622 0.930 . S
H614 C624 0.930 . S
H615 C627 0.929 . S
H616 C630 0.930 . S
H617 C632 0.960 . S
H618 C632 0.960 . S
H619 C632 0.960 . S
C620 H612 0.929 . S
C620 C621 1.377 . S
C620 C622 1.384 . S
C621 C620 1.377 . S
C621 C627 1.390 . S
C622 H613 0.930 . S
C622 C620 1.384 . S
C622 C623 1.372 . S
C623 C622 1.372 . S
C623 C624 1.400 . S
C623 C628 1.490 . S
C624 H614 0.930 . S
C624 C623 1.400 . S
C624 C627 1.386 . S
H625 C641 0.930 . S
H626 C642 0.931 . S
C627 H615 0.929 . S
C627 C621 1.390 . S
C627 C624 1.386 . S
C628 C623 1.490 . S
C628 C630 1.395 . S
C628 C631 1.403 . S
H629 C635 0.930 . S
C630 H616 0.930 . S
C630 C628 1.395 . S
C630 C633 1.403 . S
C631 C628 1.403 . S
C631 C632 1.524 . S
C631 C635 1.400 . S
C632 H617 0.960 . S
C632 H618 0.960 . S
C632 H619 0.960 . S
C632 C631 1.524 . S
C633 C630 1.403 . S
C633 C634 1.392 . S
C633 C637 1.495 . S
C634 C633 1.392 . S
C634 C635 1.385 . S
C634 C636 1.478 . S
C635 H629 0.930 . S
C635 C631 1.400 . S
C635 C634 1.385 . S
C636 C634 1.478 . S
C636 C638 1.381 . S
C636 C642 1.383 . S
C637 C633 1.495 . S
C637 H643 0.959 . S
C637 H644 0.961 . S
C637 H645 0.960 . S
C638 C636 1.381 . S
C638 C639 1.394 . S
C638 H646 0.930 . S
C639 C638 1.394 . S
C639 C640 1.383 1_556 S
C639 H647 0.929 . S
C640 C639 1.383 1_554 S
C640 C641 1.377 . S
C641 H625 0.930 . S
C641 C640 1.377 . S
C641 C642 1.379 1_554 S
C642 H626 0.931 . S
C642 C636 1.383 . S
C642 C641 1.379 1_556 S
H643 C637 0.959 . S
H644 C637 0.961 . S
H645 C637 0.960 . S
H646 C638 0.930 . S
H647 C639 0.929 . S
H648 C656 0.929 . S
H649 C658 0.930 . S
H650 C660 0.930 . S
H651 C663 0.929 . S
H652 C666 0.930 . S
H653 C668 0.960 1_455 S
H654 C668 0.960 . S
H655 C668 0.960 . S
C656 H648 0.929 . S
C656 C657 1.377 . S
C656 C658 1.384 . S
C657 C656 1.377 . S
C657 C663 1.390 . S
C658 H649 0.930 . S
C658 C656 1.384 . S
C658 C659 1.372 . S
C659 C658 1.372 . S
C659 C660 1.400 . S
C659 C664 1.490 . S
C660 H650 0.930 . S
C660 C659 1.400 . S
C660 C663 1.386 . S
H661 C677 0.930 . S
H662 C678 0.931 . S
C663 H651 0.929 . S
C663 C657 1.390 . S
C663 C660 1.386 . S
C664 C659 1.490 . S
C664 C666 1.395 . S
C664 C667 1.403 . S
H665 C671 0.930 . S
C666 H652 0.930 . S
C666 C664 1.395 . S
C666 C669 1.403 . S
C667 C664 1.403 . S
C667 C668 1.524 . S
C667 C671 1.400 1_655 S
C668 H653 0.960 1_655 S
C668 H654 0.960 . S
C668 H655 0.960 . S
C668 C667 1.524 . S
C669 C666 1.403 . S
C669 C670 1.392 1_655 S
C669 C673 1.495 . S
C670 C669 1.392 1_455 S
C670 C671 1.385 . S
C670 C672 1.478 . S
C671 H665 0.930 . S
C671 C667 1.400 1_455 S
C671 C670 1.385 . S
C672 C670 1.478 . S
C672 C674 1.381 . S
C672 C678 1.383 . S
C673 C669 1.495 . S
C673 H679 0.959 . S
C673 H680 0.961 1_655 S
C673 H681 0.960 . S
C674 C672 1.381 . S
C674 C675 1.394 . S
C674 H682 0.930 . S
C675 C674 1.394 . S
C675 C676 1.383 . S
C675 H683 0.929 . S
C676 C675 1.383 . S
C676 C677 1.377 . S
C677 H661 0.930 . S
C677 C676 1.377 . S
C677 C678 1.379 . S
C678 H662 0.931 . S
C678 C672 1.383 . S
C678 C677 1.379 . S
H679 C673 0.959 . S
H680 C673 0.961 1_455 S
H681 C673 0.960 . S
H682 C674 0.930 . S
H683 C675 0.929 . S
H684 C692 0.929 . S
H685 C694 0.930 . S
H686 C696 0.930 . S
H687 C699 0.929 . S
H688 C702 0.930 . S
H689 C704 0.960 . S
H690 C704 0.946 1_565 S
H691 C704 0.960 . S
C692 H684 0.929 . S
C692 C693 1.377 . S
C692 C694 1.384 . S
C693 C692 1.377 . S
C693 C699 1.390 . S
C694 H685 0.930 . S
C694 C692 1.384 . S
C694 C695 1.372 . S
C695 C694 1.372 . S
C695 C696 1.400 . S
C695 C700 1.490 . S
C696 H686 0.930 . S
C696 C695 1.400 . S
C696 C699 1.386 . S
H697 C713 0.930 . S
H698 C714 0.931 . S
C699 H687 0.929 . S
C699 C693 1.390 . S
C699 C696 1.386 . S
C700 C695 1.490 . S
C700 C702 1.395 . S
C700 C703 1.403 1_565 S
H701 C707 0.930 . S
C702 H688 0.930 . S
C702 C700 1.395 . S
C702 C705 1.403 . S
C703 C700 1.403 1_545 S
C703 C704 1.524 . S
C703 C707 1.400 . S
C704 H689 0.960 . S
C704 H690 0.946 1_545 S
C704 H691 0.960 . S
C704 C703 1.524 . S
C705 C702 1.403 . S
C705 C706 1.392 1_565 S
C705 C709 1.495 . S
C706 C705 1.392 1_545 S
C706 C707 1.385 . S
C706 C708 1.478 . S
C707 H701 0.930 . S
C707 C703 1.400 . S
C707 C706 1.385 . S
C708 C706 1.478 . S
C708 C710 1.381 . S
C708 C714 1.383 . S
C709 C705 1.495 . S
C709 H715 0.959 . S
C709 H716 0.961 . S
C709 H717 0.960 . S
C710 C708 1.381 . S
C710 C711 1.394 . S
C710 H718 0.930 . S
C711 C710 1.394 . S
C711 C712 1.383 . S
C711 H719 0.929 . S
C712 C711 1.383 . S
C712 C713 1.377 . S
C713 H697 0.930 . S
C713 C712 1.377 . S
C713 C714 1.379 . S
C714 H698 0.931 . S
C714 C708 1.383 . S
C714 C713 1.379 . S
H715 C709 0.959 . S
H716 C709 0.961 . S
H717 C709 0.960 . S
H718 C710 0.930 . S
H719 C711 0.929 . S
H720 C728 0.929 . S
H721 C730 0.930 . S
H722 C732 0.930 . S
H723 C735 0.929 . S
H724 C738 0.930 . S
H725 C740 0.960 . S
H726 C740 0.960 . S
H727 C740 0.960 . S
C728 H720 0.929 . S
C728 C729 1.377 . S
C728 C730 1.384 . S
C729 C728 1.377 . S
C729 C735 1.390 . S
C730 H721 0.930 . S
C730 C728 1.384 . S
C730 C731 1.372 . S
C731 C730 1.372 . S
C731 C732 1.400 . S
C731 C736 1.490 . S
C732 H722 0.930 . S
C732 C731 1.400 . S
C732 C735 1.386 . S
H733 C749 0.930 . S
H734 C750 0.931 . S
C735 H723 0.929 . S
C735 C729 1.390 . S
C735 C732 1.386 . S
C736 C731 1.490 . S
C736 C738 1.395 . S
C736 C739 1.403 . S
H737 C743 0.930 . S
C738 H724 0.930 . S
C738 C736 1.395 . S
C738 C741 1.403 . S
C739 C736 1.403 . S
C739 C740 1.524 . S
C739 C743 1.400 . S
C740 H725 0.960 . S
C740 H726 0.960 . S
C740 H727 0.960 . S
C740 C739 1.524 . S
C741 C738 1.403 . S
C741 C742 1.392 . S
C741 C745 1.495 . S
C742 C741 1.392 . S
C742 C743 1.385 . S
C742 C744 1.478 . S
C743 H737 0.930 . S
C743 C739 1.400 . S
C743 C742 1.385 . S
C744 C742 1.478 . S
C744 C746 1.381 . S
C744 C750 1.383 . S
C745 C741 1.495 . S
C745 H751 0.959 . S
C745 H752 0.961 . S
C745 H753 0.960 . S
C746 C744 1.381 . S
C746 C747 1.394 1_556 S
C746 H754 0.930 . S
C747 C746 1.394 1_554 S
C747 C748 1.383 . S
C747 H755 0.929 . S
C748 C747 1.383 . S
C748 C749 1.377 1_554 S
C749 H733 0.930 . S
C749 C748 1.377 1_556 S
C749 C750 1.379 . S
C750 H734 0.931 . S
C750 C744 1.383 . S
C750 C749 1.379 . S
H751 C745 0.959 . S
H752 C745 0.961 . S
H753 C745 0.960 . S
H754 C746 0.930 . S
H755 C747 0.929 . S
H756 C764 0.929 . S
H757 C766 0.930 . S
H758 C768 0.930 . S
H759 C771 0.929 . S
H760 C774 0.930 . S
H761 C776 0.960 . S
H762 C776 0.960 . S
H763 C776 0.960 . S
C764 H756 0.929 . S
C764 C765 1.377 . S
C764 C766 1.384 . S
C765 C764 1.377 . S
C765 C771 1.390 . S
C766 H757 0.930 . S
C766 C764 1.384 . S
C766 C767 1.372 . S
C767 C766 1.372 . S
C767 C768 1.400 . S
C767 C772 1.490 . S
C768 H758 0.930 . S
C768 C767 1.400 . S
C768 C771 1.386 . S
H769 C785 0.930 . S
H770 C786 0.931 . S
C771 H759 0.929 . S
C771 C765 1.390 . S
C771 C768 1.386 . S
C772 C767 1.490 . S
C772 C774 1.395 1_455 S
C772 C775 1.403 . S
H773 C779 0.930 . S
C774 H760 0.930 . S
C774 C772 1.395 1_655 S
C774 C777 1.403 . S
C775 C772 1.403 . S
C775 C776 1.524 . S
C775 C779 1.400 . S
C776 H761 0.960 . S
C776 H762 0.960 . S
C776 H763 0.960 . S
C776 C775 1.524 . S
C777 C774 1.403 . S
C777 C778 1.392 . S
C777 C781 1.495 . S
C778 C777 1.392 . S
C778 C779 1.385 1_655 S
C778 C780 1.478 . S
C779 H773 0.930 . S
C779 C775 1.400 . S
C779 C778 1.385 1_455 S
C780 C778 1.478 . S
C780 C782 1.381 . S
C780 C786 1.383 . S
C781 C777 1.495 . S
C781 H787 0.959 . S
C781 H788 0.961 . S
C781 H789 0.960 . S
C782 C780 1.381 . S
C782 C783 1.394 . S
C782 H790 0.930 . S
C783 C782 1.394 . S
C783 C784 1.383 . S
C783 H791 0.929 . S
C784 C783 1.383 . S
C784 C785 1.377 . S
C785 H769 0.930 . S
C785 C784 1.377 . S
C785 C786 1.379 . S
C786 H770 0.931 . S
C786 C780 1.383 . S
C786 C785 1.379 . S
H787 C781 0.959 . S
H788 C781 0.961 . S
H789 C781 0.960 . S
H790 C782 0.930 . S
H791 C783 0.929 . S
H792 C800 0.929 . S
H793 C802 0.930 . S
H794 C804 0.930 . S
H795 C807 0.929 . S
H796 C810 0.930 . S
H797 C812 0.960 . S
H798 C812 0.960 . S
H799 C812 0.960 . S
C800 H792 0.929 . S
C800 C801 1.377 . S
C800 C802 1.384 . S
C801 C800 1.377 . S
C801 C807 1.390 . S
C802 H793 0.930 . S
C802 C800 1.384 . S
C802 C803 1.372 . S
C803 C802 1.372 . S
C803 C804 1.400 . S
C803 C808 1.490 . S
C804 H794 0.930 . S
C804 C803 1.400 . S
C804 C807 1.386 . S
H805 C821 0.930 . S
H806 C822 0.931 . S
C807 H795 0.929 . S
C807 C801 1.390 . S
C807 C804 1.386 . S
C808 C803 1.490 . S
C808 C810 1.395 . S
C808 C811 1.403 1_545 S
H809 C815 0.930 . S
C810 H796 0.930 . S
C810 C808 1.395 . S
C810 C813 1.403 . S
C811 C808 1.403 1_565 S
C811 C812 1.524 . S
C811 C815 1.400 . S
C812 H797 0.960 . S
C812 H798 0.960 . S
C812 H799 0.960 . S
C812 C811 1.524 . S
C813 C810 1.403 . S
C813 C814 1.392 1_545 S
C813 C817 1.495 . S
C814 C813 1.392 1_565 S
C814 C815 1.385 . S
C814 C816 1.478 . S
C815 H809 0.930 . S
C815 C811 1.400 . S
C815 C814 1.385 . S
C816 C814 1.478 . S
C816 C818 1.381 . S
C816 C822 1.383 . S
C817 C813 1.495 . S
C817 H823 0.959 . S
C817 H824 0.961 . S
C817 H825 0.960 . S
C818 C816 1.381 . S
C818 C819 1.394 . S
C818 H826 0.930 . S
C819 C818 1.394 . S
C819 C820 1.383 . S
C819 H827 0.929 . S
C820 C819 1.383 . S
C820 C821 1.377 . S
C821 H805 0.930 . S
C821 C820 1.377 . S
C821 C822 1.379 . S
C822 H806 0.931 . S
C822 C816 1.383 . S
C822 C821 1.379 . S
H823 C817 0.959 . S
H824 C817 0.961 . S
H825 C817 0.960 . S
H826 C818 0.930 . S
H827 C819 0.929 . S
C189 C147 0.671 . S
C208 N6 0.714 . S
C225 N156 0.666 . S
C244 C57 0.667 . S
C261 C27 0.668 . S
C280 N66 0.635 . S
C297 N36 0.675 . S
C316 C117 0.691 . S
C333 C87 0.667 . S
C352 N126 0.697 . S
C369 N96 0.666 . S
C388 C177 0.670 . S
C405 C1 1.053 . S
C424 C100 1.039 . S
C441 C121 1.053 . S
C460 C40 1.097 . S
C477 C160 1.063 . S
C496 C61 1.060 . S
C513 C70 1.059 . S
C532 C151 1.016 . S
C549 C10 1.050 . S
C568 C91 1.097 . S
C585 C130 1.061 . S
C604 C31 1.077 . S
C621 N164 0.495 . S
C640 N14 0.476 . S
C657 C46 0.557 . S
C676 C16 0.486 . S
C693 N74 0.500 . S
C712 N44 0.515 . S
C729 C76 0.554 . S
C748 C106 0.486 . S
C765 N134 0.495 . S
C784 N104 0.478 . S
C801 C166 0.559 . S
C820 C136 0.524 . S
