# Generated by pormake.
# Topology uka, (4)-cn, num edge types: 1
# Building blocks:
#     Node 0, Type 0, BuildingBlock: QUQFOY_clean_sbu_1, # of connection points: 4
#     Node 1, Type 0, BuildingBlock: QUQFOY_clean_sbu_1, # of connection points: 4
#     Node 2, Type 0, BuildingBlock: QUQFOY_clean_sbu_1, # of connection points: 4
#     Node 3, Type 0, BuildingBlock: QUQFOY_clean_sbu_1, # of connection points: 4
#     Node 4, Type 0, BuildingBlock: QUQFOY_clean_sbu_1, # of connection points: 4
#     Node 5, Type 0, BuildingBlock: QUQFOY_clean_sbu_1, # of connection points: 4
#     Node 6, Type 0, BuildingBlock: QUQFOY_clean_sbu_1, # of connection points: 4
#     Node 7, Type 0, BuildingBlock: QUQFOY_clean_sbu_1, # of connection points: 4
#     Node 8, Type 0, BuildingBlock: QUQFOY_clean_sbu_1, # of connection points: 4
#     Node 9, Type 0, BuildingBlock: QUQFOY_clean_sbu_1, # of connection points: 4
#     Node 10, Type 0, BuildingBlock: QUQFOY_clean_sbu_1, # of connection points: 4
#     Node 11, Type 0, BuildingBlock: QUQFOY_clean_sbu_1, # of connection points: 4
#     Node 12, Type 0, BuildingBlock: QUQFOY_clean_sbu_1, # of connection points: 4
#     Node 13, Type 0, BuildingBlock: QUQFOY_clean_sbu_1, # of connection points: 4
#     Node 14, Type 0, BuildingBlock: QUQFOY_clean_sbu_1, # of connection points: 4
#     Node 15, Type 0, BuildingBlock: QUQFOY_clean_sbu_1, # of connection points: 4
#     Node 16, Type 0, BuildingBlock: QUQFOY_clean_sbu_1, # of connection points: 4
#     Node 17, Type 0, BuildingBlock: QUQFOY_clean_sbu_1, # of connection points: 4
#     Node 18, Type 0, BuildingBlock: QUQFOY_clean_sbu_1, # of connection points: 4
#     Node 19, Type 0, BuildingBlock: QUQFOY_clean_sbu_1, # of connection points: 4
#     Node 20, Type 0, BuildingBlock: QUQFOY_clean_sbu_1, # of connection points: 4
#     Node 21, Type 0, BuildingBlock: QUQFOY_clean_sbu_1, # of connection points: 4
#     Node 22, Type 0, BuildingBlock: QUQFOY_clean_sbu_1, # of connection points: 4
#     Node 23, Type 0, BuildingBlock: QUQFOY_clean_sbu_1, # of connection points: 4
#     Node 24, Type 0, BuildingBlock: QUQFOY_clean_sbu_1, # of connection points: 4
#     Node 25, Type 0, BuildingBlock: QUQFOY_clean_sbu_1, # of connection points: 4
#     Node 26, Type 0, BuildingBlock: QUQFOY_clean_sbu_1, # of connection points: 4
#     Node 27, Type 0, BuildingBlock: QUQFOY_clean_sbu_1, # of connection points: 4
#     Node 28, Type 0, BuildingBlock: QUQFOY_clean_sbu_1, # of connection points: 4
#     Node 29, Type 0, BuildingBlock: QUQFOY_clean_sbu_1, # of connection points: 4
#     Node 30, Type 0, BuildingBlock: QUQFOY_clean_sbu_1, # of connection points: 4
#     Node 31, Type 0, BuildingBlock: QUQFOY_clean_sbu_1, # of connection points: 4
#     Edge 32, Type (0, 0), BuildingBlock: XIVTED_clean_linker_0, # of connection points: 2
#     Edge 33, Type (0, 0), BuildingBlock: XIVTED_clean_linker_0, # of connection points: 2
#     Edge 34, Type (0, 0), BuildingBlock: XIVTED_clean_linker_0, # of connection points: 2
#     Edge 35, Type (0, 0), BuildingBlock: XIVTED_clean_linker_0, # of connection points: 2
#     Edge 36, Type (0, 0), BuildingBlock: XIVTED_clean_linker_0, # of connection points: 2
#     Edge 37, Type (0, 0), BuildingBlock: XIVTED_clean_linker_0, # of connection points: 2
#     Edge 38, Type (0, 0), BuildingBlock: XIVTED_clean_linker_0, # of connection points: 2
#     Edge 39, Type (0, 0), BuildingBlock: XIVTED_clean_linker_0, # of connection points: 2
#     Edge 40, Type (0, 0), BuildingBlock: XIVTED_clean_linker_0, # of connection points: 2
#     Edge 41, Type (0, 0), BuildingBlock: XIVTED_clean_linker_0, # of connection points: 2
#     Edge 42, Type (0, 0), BuildingBlock: XIVTED_clean_linker_0, # of connection points: 2
#     Edge 43, Type (0, 0), BuildingBlock: XIVTED_clean_linker_0, # of connection points: 2
#     Edge 44, Type (0, 0), BuildingBlock: XIVTED_clean_linker_0, # of connection points: 2
#     Edge 45, Type (0, 0), BuildingBlock: XIVTED_clean_linker_0, # of connection points: 2
#     Edge 46, Type (0, 0), BuildingBlock: XIVTED_clean_linker_0, # of connection points: 2
#     Edge 47, Type (0, 0), BuildingBlock: XIVTED_clean_linker_0, # of connection points: 2
#     Edge 48, Type (0, 0), BuildingBlock: XIVTED_clean_linker_0, # of connection points: 2
#     Edge 49, Type (0, 0), BuildingBlock: XIVTED_clean_linker_0, # of connection points: 2
#     Edge 50, Type (0, 0), BuildingBlock: XIVTED_clean_linker_0, # of connection points: 2
#     Edge 51, Type (0, 0), BuildingBlock: XIVTED_clean_linker_0, # of connection points: 2
#     Edge 52, Type (0, 0), BuildingBlock: XIVTED_clean_linker_0, # of connection points: 2
#     Edge 53, Type (0, 0), BuildingBlock: XIVTED_clean_linker_0, # of connection points: 2
#     Edge 54, Type (0, 0), BuildingBlock: XIVTED_clean_linker_0, # of connection points: 2
#     Edge 55, Type (0, 0), BuildingBlock: XIVTED_clean_linker_0, # of connection points: 2
#     Edge 56, Type (0, 0), BuildingBlock: XIVTED_clean_linker_0, # of connection points: 2
#     Edge 57, Type (0, 0), BuildingBlock: XIVTED_clean_linker_0, # of connection points: 2
#     Edge 58, Type (0, 0), BuildingBlock: XIVTED_clean_linker_0, # of connection points: 2
#     Edge 59, Type (0, 0), BuildingBlock: XIVTED_clean_linker_0, # of connection points: 2
#     Edge 60, Type (0, 0), BuildingBlock: XIVTED_clean_linker_0, # of connection points: 2
#     Edge 61, Type (0, 0), BuildingBlock: XIVTED_clean_linker_0, # of connection points: 2
#     Edge 62, Type (0, 0), BuildingBlock: XIVTED_clean_linker_0, # of connection points: 2
#     Edge 63, Type (0, 0), BuildingBlock: XIVTED_clean_linker_0, # of connection points: 2
#     Edge 64, Type (0, 0), BuildingBlock: XIVTED_clean_linker_0, # of connection points: 2
#     Edge 65, Type (0, 0), BuildingBlock: XIVTED_clean_linker_0, # of connection points: 2
#     Edge 66, Type (0, 0), BuildingBlock: XIVTED_clean_linker_0, # of connection points: 2
#     Edge 67, Type (0, 0), BuildingBlock: XIVTED_clean_linker_0, # of connection points: 2
#     Edge 68, Type (0, 0), BuildingBlock: XIVTED_clean_linker_0, # of connection points: 2
#     Edge 69, Type (0, 0), BuildingBlock: XIVTED_clean_linker_0, # of connection points: 2
#     Edge 70, Type (0, 0), BuildingBlock: XIVTED_clean_linker_0, # of connection points: 2
#     Edge 71, Type (0, 0), BuildingBlock: XIVTED_clean_linker_0, # of connection points: 2
#     Edge 72, Type (0, 0), BuildingBlock: XIVTED_clean_linker_0, # of connection points: 2
#     Edge 73, Type (0, 0), BuildingBlock: XIVTED_clean_linker_0, # of connection points: 2
#     Edge 74, Type (0, 0), BuildingBlock: XIVTED_clean_linker_0, # of connection points: 2
#     Edge 75, Type (0, 0), BuildingBlock: XIVTED_clean_linker_0, # of connection points: 2
#     Edge 76, Type (0, 0), BuildingBlock: XIVTED_clean_linker_0, # of connection points: 2
#     Edge 77, Type (0, 0), BuildingBlock: XIVTED_clean_linker_0, # of connection points: 2
#     Edge 78, Type (0, 0), BuildingBlock: XIVTED_clean_linker_0, # of connection points: 2
#     Edge 79, Type (0, 0), BuildingBlock: XIVTED_clean_linker_0, # of connection points: 2
#     Edge 80, Type (0, 0), BuildingBlock: XIVTED_clean_linker_0, # of connection points: 2
#     Edge 81, Type (0, 0), BuildingBlock: XIVTED_clean_linker_0, # of connection points: 2
#     Edge 82, Type (0, 0), BuildingBlock: XIVTED_clean_linker_0, # of connection points: 2
#     Edge 83, Type (0, 0), BuildingBlock: XIVTED_clean_linker_0, # of connection points: 2
#     Edge 84, Type (0, 0), BuildingBlock: XIVTED_clean_linker_0, # of connection points: 2
#     Edge 85, Type (0, 0), BuildingBlock: XIVTED_clean_linker_0, # of connection points: 2
#     Edge 86, Type (0, 0), BuildingBlock: XIVTED_clean_linker_0, # of connection points: 2
#     Edge 87, Type (0, 0), BuildingBlock: XIVTED_clean_linker_0, # of connection points: 2
#     Edge 88, Type (0, 0), BuildingBlock: XIVTED_clean_linker_0, # of connection points: 2
#     Edge 89, Type (0, 0), BuildingBlock: XIVTED_clean_linker_0, # of connection points: 2
#     Edge 90, Type (0, 0), BuildingBlock: XIVTED_clean_linker_0, # of connection points: 2
#     Edge 91, Type (0, 0), BuildingBlock: XIVTED_clean_linker_0, # of connection points: 2
#     Edge 92, Type (0, 0), BuildingBlock: XIVTED_clean_linker_0, # of connection points: 2
#     Edge 93, Type (0, 0), BuildingBlock: XIVTED_clean_linker_0, # of connection points: 2
#     Edge 94, Type (0, 0), BuildingBlock: XIVTED_clean_linker_0, # of connection points: 2
#     Edge 95, Type (0, 0), BuildingBlock: XIVTED_clean_linker_0, # of connection points: 2
# Relax obj value: 0.063
# Max RMSD: 0.095
# Mean RMSD: 0.095
data_MOF--net-uka--node1-QUQFOY_clean_sbu_1--edge1-XIVTED_clean_linker_0
_symmetry_space_group_name_H-M    P1
_symmetry_Int_Tables_number       1
_symmetry_cell_setting            triclinic
loop_
_symmetry_equiv_pos_as_xyz
'x, y, z'
_cell_length_a     63.980075
_cell_length_b     63.996178
_cell_length_c     44.426273
_cell_angle_alpha  89.989748
_cell_angle_beta   90.033437
_cell_angle_gamma 89.948911
loop_
_atom_site_label
_atom_site_type_symbol
_atom_site_fract_x
_atom_site_fract_y
_atom_site_fract_z
_atom_type_partial_charge
O0 O 0.12406 0.23061 0.30867 0.0
Cd1 Cd 0.13466 0.26021 0.30111 0.0
Cd2 Cd 0.09769 0.26156 0.26714 0.0
O3 O 0.09636 0.23013 0.27904 0.0
O4 O 0.16455 0.25864 0.31261 0.0
O5 O 0.15377 0.26446 0.26595 0.0
C6 C 0.16897 0.26115 0.28454 0.0
C7 C 0.08551 0.27269 0.22013 0.0
C8 C 0.10871 0.22092 0.29719 0.0
C9 C 0.10335 0.29074 0.32146 0.0
O10 O 0.09233 0.28374 0.29994 0.0
O11 O 0.12161 0.28377 0.32629 0.0
O12 O 0.07289 0.26672 0.24098 0.0
O13 O 0.10534 0.27124 0.22522 0.0
O14 O 0.99689 0.88376 0.56527 0.0
Cd15 Cd 0.96728 0.89156 0.55238 0.0
Cd16 Cd 0.97195 0.85639 0.51812 0.0
O17 O 0.00289 0.85881 0.53222 0.0
O18 O 0.96504 0.92123 0.56457 0.0
O19 O 0.96391 0.91074 0.51707 0.0
C20 C 0.96436 0.92587 0.53635 0.0
C21 C 0.96377 0.84584 0.46902 0.0
C22 C 0.0092 0.87057 0.55346 0.0
C23 C 0.94019 0.8565 0.56928 0.0
O24 O 0.95022 0.84637 0.54934 0.0
O25 O 0.94363 0.87579 0.57357 0.0
O26 O 0.97219 0.83322 0.48808 0.0
O27 O 0.96082 0.86496 0.47731 0.0
O28 O 0.36179 0.75481 0.80798 0.0
Cd29 Cd 0.35717 0.72518 0.79183 0.0
Cd30 Cd 0.39033 0.73529 0.76226 0.0
O31 O 0.38216 0.76591 0.77152 0.0
O32 O 0.32733 0.72022 0.80122 0.0
O33 O 0.33958 0.72331 0.75476 0.0
C34 C 0.32375 0.72203 0.77275 0.0
C35 C 0.39921 0.72273 0.71467 0.0
C36 C 0.37118 0.76966 0.79475 0.0
C37 C 0.39464 0.70546 0.81403 0.0
O38 O 0.40339 0.71936 0.79795 0.0
O39 O 0.3751 0.70224 0.81167 0.0
O40 O 0.41151 0.73505 0.72933 0.0
O41 O 0.38128 0.71832 0.72647 0.0
O42 O 0.49127 0.10482 0.07081 0.0
Cd43 Cd 0.5211 0.09636 0.06033 0.0
Cd44 Cd 0.51858 0.13033 0.02386 0.0
O45 O 0.48708 0.12852 0.03534 0.0
O46 O 0.52249 0.06644 0.07139 0.0
O47 O 0.52462 0.07798 0.02439 0.0
C48 C 0.52332 0.06245 0.04295 0.0
C49 C 0.52851 0.13933 0.97483 0.0
C50 C 0.47966 0.11759 0.05675 0.0
C51 C 0.54847 0.13107 0.07733 0.0
O52 O 0.53935 0.14085 0.05613 0.0
O53 O 0.54444 0.11198 0.08243 0.0
O54 O 0.51965 0.15261 0.99248 0.0
O55 O 0.53103 0.12047 0.98452 0.0
O56 O 0.12463 0.75897 0.2037 0.0
Cd57 Cd 0.14052 0.73146 0.2079 0.0
Cd58 Cd 0.10455 0.72056 0.24238 0.0
O59 O 0.0972 0.75129 0.23174 0.0
O60 O 0.16915 0.73865 0.19403 0.0
O61 O 0.16198 0.72882 0.24067 0.0
C62 C 0.17546 0.73535 0.22116 0.0
C63 C 0.09215 0.70734 0.28846 0.0
C64 C 0.1072 0.76405 0.21515 0.0
C65 C 0.11441 0.69645 0.18469 0.0
O66 O 0.10292 0.69924 0.20767 0.0
O67 O 0.1306 0.70752 0.18036 0.0
O68 O 0.0797 0.71249 0.26699 0.0
O69 O 0.11192 0.71009 0.28424 0.0
O70 O 0.49439 0.87548 0.44723 0.0
Cd71 Cd 0.5201 0.8936 0.455 0.0
Cd72 Cd 0.53389 0.85673 0.48561 0.0
O73 O 0.50465 0.84699 0.4711 0.0
O74 O 0.51042 0.92192 0.44311 0.0
O75 O 0.51993 0.91385 0.48958 0.0
C76 C 0.51263 0.92745 0.4708 0.0
C77 C 0.54627 0.84221 0.53094 0.0
C78 C 0.49117 0.85677 0.45543 0.0
C79 C 0.5584 0.8727 0.4313 0.0
O80 O 0.55648 0.85978 0.45286 0.0
O81 O 0.54551 0.88762 0.42792 0.0
O82 O 0.54358 0.83108 0.50719 0.0
O83 O 0.54166 0.86182 0.52937 0.0
O84 O 0.36466 0.25834 0.68525 0.0
Cd85 Cd 0.35275 0.28607 0.69995 0.0
Cd86 Cd 0.39081 0.28731 0.72958 0.0
O87 O 0.39225 0.25644 0.71484 0.0
O88 O 0.32267 0.28324 0.69036 0.0
O89 O 0.33485 0.28542 0.73694 0.0
C90 C 0.31923 0.2826 0.71892 0.0
C91 C 0.40441 0.29607 0.77694 0.0
C92 C 0.38033 0.24832 0.69511 0.0
C93 C 0.38136 0.3191 0.6799 0.0
O94 O 0.39436 0.31083 0.69802 0.0
O95 O 0.3628 0.31228 0.67788 0.0
O96 O 0.41633 0.29035 0.7551 0.0
O97 O 0.38447 0.29613 0.77235 0.0
O98 O 0.01147 0.11266 0.95012 0.0
Cd99 Cd 0.981 0.10678 0.96193 0.0
Cd100 Cd 0.98756 0.14316 0.98964 0.0
O101 O 0.0189 0.1366 0.98397 0.0
O102 O 0.97819 0.07726 0.94903 0.0
O103 O 0.97637 0.08717 0.99665 0.0
C104 C 0.97699 0.07226 0.97705 0.0
C105 C 0.97439 0.15681 0.03467 0.0
C106 C 0.02476 0.12423 0.96325 0.0
C107 C 0.96008 0.14237 0.93453 0.0
O108 O 0.97222 0.15293 0.95129 0.0
O109 O 0.95848 0.12274 0.93802 0.0
O110 O 0.98614 0.16772 0.01715 0.0
O111 O 0.97069 0.13764 0.02722 0.0
O112 O 0.86084 0.73774 0.68533 0.0
Cd113 Cd 0.84938 0.71064 0.7027 0.0
Cd114 Cd 0.88468 0.7135 0.73682 0.0
O115 O 0.88479 0.74382 0.71986 0.0
O116 O 0.8193 0.71176 0.69227 0.0
O117 O 0.83117 0.71312 0.73914 0.0
C118 C 0.81563 0.71437 0.72057 0.0
C119 C 0.89652 0.7067 0.78578 0.0
C120 C 0.87455 0.74963 0.69676 0.0
C121 C 0.88099 0.67923 0.68912 0.0
O122 O 0.89218 0.68965 0.7074 0.0
O123 O 0.86193 0.68388 0.68489 0.0
O124 O 0.90895 0.71326 0.76507 0.0
O125 O 0.87694 0.70491 0.77921 0.0
O126 O 0.98943 0.12383 0.45493 0.0
Cd127 Cd 0.01415 0.10393 0.45977 0.0
Cd128 Cd 0.03195 0.13865 0.48787 0.0
O129 O 0.0044 0.15228 0.47291 0.0
O130 O 0.00209 0.07656 0.44797 0.0
O131 O 0.01457 0.08297 0.49347 0.0
C132 C 0.0056 0.07022 0.475 0.0
C133 C 0.04517 0.1494 0.53469 0.0
C134 C 0.98895 0.14328 0.46037 0.0
C135 C 0.05315 0.12106 0.43253 0.0
O136 O 0.0541 0.1331 0.45522 0.0
O137 O 0.0381 0.10831 0.42952 0.0
O138 O 0.04586 0.16132 0.5114 0.0
O139 O 0.03659 0.13126 0.53172 0.0
O140 O 0.63423 0.24819 0.1878 0.0
Cd141 Cd 0.64788 0.27554 0.20047 0.0
Cd142 Cd 0.61039 0.27811 0.2339 0.0
O143 O 0.60771 0.24729 0.21948 0.0
O144 O 0.677 0.27161 0.18617 0.0
O145 O 0.66867 0.27457 0.23433 0.0
C146 C 0.68269 0.27115 0.21398 0.0
C147 C 0.5966 0.28742 0.28105 0.0
C148 C 0.61858 0.23878 0.19886 0.0
C149 C 0.61881 0.30896 0.18235 0.0
O150 O 0.60652 0.3013 0.20196 0.0
O151 O 0.63711 0.30171 0.17881 0.0
O152 O 0.5848 0.28175 0.25908 0.0
O153 O 0.61656 0.28714 0.27676 0.0
O154 O 0.49 0.87635 0.93782 0.0
Cd155 Cd 0.46397 0.89075 0.95424 0.0
Cd156 Cd 0.46002 0.85221 0.98336 0.0
O157 O 0.49032 0.84853 0.96709 0.0
O158 O 0.46924 0.92036 0.94369 0.0
O159 O 0.46712 0.90904 0.99067 0.0
C160 C 0.47076 0.92414 0.97208 0.0
C161 C 0.45136 0.83711 0.0299 0.0
C162 C 0.49883 0.85977 0.94689 0.0
C163 C 0.42832 0.86514 0.93495 0.0
O164 O 0.43581 0.85128 0.95244 0.0
O165 O 0.43652 0.88314 0.93328 0.0
O166 O 0.45559 0.82589 0.00666 0.0
O167 O 0.45263 0.85716 0.02715 0.0
O168 O 0.86957 0.23898 0.80269 0.0
Cd169 Cd 0.85301 0.26604 0.79761 0.0
Cd170 Cd 0.88811 0.27829 0.76478 0.0
O171 O 0.89727 0.24824 0.77637 0.0
O172 O 0.82435 0.25812 0.81011 0.0
O173 O 0.83221 0.26865 0.76401 0.0
C174 C 0.81847 0.26177 0.78288 0.0
C175 C 0.89876 0.29096 0.7176 0.0
C176 C 0.88761 0.23493 0.79244 0.0
C177 C 0.87709 0.30205 0.82184 0.0
O178 O 0.88883 0.30008 0.79893 0.0
O179 O 0.86154 0.29004 0.82575 0.0
O180 O 0.91195 0.28709 0.73872 0.0
O181 O 0.87925 0.28741 0.72292 0.0
O182 O 0.49967 0.11555 0.55616 0.0
Cd183 Cd 0.46983 0.10551 0.54893 0.0
Cd184 Cd 0.46925 0.1418 0.51479 0.0
O185 O 0.50071 0.14315 0.52642 0.0
O186 O 0.47108 0.07589 0.56192 0.0
O187 O 0.46498 0.08552 0.51485 0.0
C188 C 0.46831 0.07076 0.53415 0.0
C189 C 0.45803 0.1516 0.46672 0.0
C190 C 0.50966 0.13073 0.54475 0.0
C191 C 0.44068 0.13803 0.56979 0.0
O192 O 0.44771 0.14866 0.54787 0.0
O193 O 0.447 0.11952 0.57451 0.0
O194 O 0.46411 0.16523 0.48615 0.0
O195 O 0.45928 0.13209 0.47397 0.0
O196 O 0.63264 0.76213 0.3148 0.0
Cd197 Cd 0.64109 0.73206 0.30574 0.0
Cd198 Cd 0.60736 0.73441 0.26858 0.0
O199 O 0.60881 0.76602 0.2794 0.0
O200 O 0.67063 0.73078 0.31902 0.0
O201 O 0.66077 0.72791 0.27134 0.0
C202 C 0.67563 0.72947 0.29096 0.0
C203 C 0.60011 0.72323 0.21955 0.0
C204 C 0.61985 0.77362 0.30056 0.0
C205 C 0.6057 0.70515 0.32247 0.0
O206 O 0.59618 0.71414 0.30093 0.0
O207 O 0.62479 0.70908 0.32785 0.0
O208 O 0.5862 0.7325 0.23571 0.0
O209 O 0.61866 0.72115 0.23067 0.0
O210 O 0.98501 0.87792 0.0514 0.0
Cd211 Cd 0.01438 0.88994 0.04432 0.0
Cd212 Cd 0.01691 0.85435 0.01174 0.0
O213 O 0.98483 0.85409 0.01565 0.0
O214 O 0.01122 0.91908 0.05887 0.0
O215 O 0.01786 0.91111 0.01136 0.0
C216 C 0.01364 0.9251 0.03143 0.0
C217 C 0.03287 0.84378 0.96669 0.0
C218 C 0.9754 0.86411 0.03628 0.0
C219 C 0.04046 0.85737 0.0707 0.0
O220 O 0.03227 0.84586 0.0506 0.0
O221 O 0.03785 0.87704 0.07019 0.0
O222 O 0.02295 0.83081 0.98358 0.0
O223 O 0.03339 0.86313 0.97495 0.0
O224 O 0.63471 0.7375 0.81485 0.0
Cd225 Cd 0.64271 0.76727 0.80344 0.0
Cd226 Cd 0.60924 0.76338 0.76695 0.0
O227 O 0.61167 0.732 0.77885 0.0
O228 O 0.67257 0.76915 0.81488 0.0
O229 O 0.66135 0.77011 0.76764 0.0
C230 C 0.67676 0.76918 0.78647 0.0
C231 C 0.60137 0.77371 0.71775 0.0
C232 C 0.62251 0.72528 0.80085 0.0
C233 C 0.607 0.79369 0.81954 0.0
O234 O 0.59757 0.78376 0.7988 0.0
O235 O 0.62631 0.79067 0.82453 0.0
O236 O 0.58787 0.76417 0.73427 0.0
O237 O 0.6199 0.77652 0.72858 0.0
O238 O 0.50288 0.38427 0.06528 0.0
Cd239 Cd 0.47335 0.39236 0.05255 0.0
Cd240 Cd 0.47775 0.35829 0.01724 0.0
O241 O 0.50881 0.36019 0.03089 0.0
O242 O 0.47124 0.42218 0.0641 0.0
O243 O 0.47054 0.41116 0.01679 0.0
C244 C 0.47104 0.4265 0.03574 0.0
C245 C 0.46844 0.35023 0.96767 0.0
C246 C 0.51518 0.3714 0.05271 0.0
C247 C 0.4463 0.35713 0.06848 0.0
O248 O 0.45636 0.34736 0.04822 0.0
O249 O 0.44961 0.37639 0.07333 0.0
O250 O 0.47719 0.33663 0.98497 0.0
O251 O 0.46594 0.36894 0.97797 0.0
O252 O 0.86538 0.26439 0.29823 0.0
Cd253 Cd 0.86134 0.23372 0.28623 0.0
Cd254 Cd 0.89601 0.24246 0.25692 0.0
O255 O 0.88794 0.27342 0.26327 0.0
O256 O 0.83205 0.22879 0.29884 0.0
O257 O 0.84225 0.22829 0.25125 0.0
C258 C 0.82725 0.22779 0.27071 0.0
C259 C 0.90785 0.22931 0.21091 0.0
C260 C 0.87578 0.27841 0.28471 0.0
C261 C 0.8988 0.21522 0.31198 0.0
O262 O 0.90812 0.2278 0.29441 0.0
O263 O 0.8792 0.21247 0.30968 0.0
O264 O 0.91907 0.24188 0.22682 0.0
O265 O 0.88931 0.22486 0.22051 0.0
O266 O 0.00384 0.60827 0.57742 0.0
Cd267 Cd 0.03249 0.59966 0.56177 0.0
Cd268 Cd 0.02755 0.63348 0.52682 0.0
O269 O 0.99678 0.63116 0.5418 0.0
O270 O 0.03414 0.5693 0.56954 0.0
O271 O 0.03281 0.58316 0.52375 0.0
C272 C 0.03259 0.56677 0.54079 0.0
C273 C 0.03523 0.64332 0.4773 0.0
C274 C 0.9911 0.62062 0.56467 0.0
C275 C 0.0607 0.63381 0.57615 0.0
O276 O 0.04984 0.64385 0.55701 0.0
O277 O 0.05753 0.61451 0.58078 0.0
O278 O 0.02689 0.65619 0.49606 0.0
O279 O 0.03829 0.62433 0.48612 0.0
O280 O 0.62369 0.2479 0.70134 0.0
Cd281 Cd 0.63842 0.21983 0.70645 0.0
Cd282 Cd 0.60148 0.20987 0.73776 0.0
O283 O 0.59465 0.2405 0.72588 0.0
O284 O 0.66741 0.22627 0.69377 0.0
O285 O 0.65923 0.21612 0.7399 0.0
C286 C 0.67321 0.22239 0.72097 0.0
C287 C 0.58855 0.19758 0.78402 0.0
C288 C 0.60571 0.25317 0.71061 0.0
C289 C 0.6124 0.18558 0.68097 0.0
O290 O 0.60037 0.18824 0.70341 0.0
O291 O 0.62874 0.19658 0.67771 0.0
O292 O 0.57633 0.20232 0.76206 0.0
O293 O 0.60837 0.20013 0.78012 0.0
O294 O 0.98771 0.37909 0.94421 0.0
Cd295 Cd 0.01697 0.39026 0.95258 0.0
Cd296 Cd 0.01859 0.35243 0.98591 0.0
O297 O 0.98744 0.35081 0.97269 0.0
O298 O 0.01479 0.41998 0.94033 0.0
O299 O 0.0205 0.40995 0.98733 0.0
C300 C 0.01699 0.42483 0.9683 0.0
C301 C 0.02872 0.33822 0.0323 0.0
C302 C 0.97824 0.36329 0.9547 0.0
C303 C 0.0481 0.35951 0.93214 0.0
O304 O 0.04126 0.34821 0.95348 0.0
O305 O 0.04078 0.37765 0.92747 0.0
O306 O 0.02348 0.32656 0.00997 0.0
O307 O 0.02724 0.35822 0.02898 0.0
O308 O 0.86287 0.74316 0.19583 0.0
Cd309 Cd 0.85359 0.77228 0.21018 0.0
Cd310 Cd 0.89068 0.7691 0.23614 0.0
O311 O 0.88757 0.73738 0.22923 0.0
O312 O 0.82364 0.77206 0.19875 0.0
O313 O 0.83445 0.77345 0.24602 0.0
C314 C 0.81923 0.77184 0.22702 0.0
C315 C 0.90301 0.78271 0.28166 0.0
C316 C 0.87593 0.73085 0.20805 0.0
C317 C 0.88576 0.79743 0.18247 0.0
O318 O 0.89791 0.78592 0.19792 0.0
O319 O 0.86621 0.79722 0.18723 0.0
O320 O 0.91514 0.77273 0.26349 0.0
O321 O 0.88352 0.78448 0.27442 0.0
O322 O 0.49234 0.61394 0.43583 0.0
Cd323 Cd 0.46698 0.59802 0.45146 0.0
Cd324 Cd 0.46129 0.63634 0.48209 0.0
O325 O 0.49133 0.64142 0.46575 0.0
O326 O 0.47359 0.56893 0.43916 0.0
O327 O 0.47105 0.57878 0.48675 0.0
C328 C 0.47535 0.56439 0.46729 0.0
C329 C 0.4522 0.65113 0.52872 0.0
C330 C 0.50035 0.63081 0.44531 0.0
C331 C 0.43017 0.62268 0.43318 0.0
O332 O 0.43702 0.63651 0.45124 0.0
O333 O 0.43919 0.60508 0.4308 0.0
O334 O 0.45585 0.66248 0.50541 0.0
O335 O 0.45426 0.63114 0.52597 0.0
O336 O 0.35832 0.24064 0.17926 0.0
Cd337 Cd 0.34406 0.21377 0.19279 0.0
Cd338 Cd 0.38112 0.21027 0.22599 0.0
O339 O 0.386 0.24016 0.20893 0.0
O340 O 0.31433 0.21841 0.18217 0.0
O341 O 0.3255 0.21473 0.22909 0.0
C342 C 0.31034 0.21848 0.2106 0.0
C343 C 0.39442 0.20183 0.27366 0.0
C344 C 0.37494 0.24911 0.18888 0.0
C345 C 0.3708 0.17846 0.17612 0.0
O346 O 0.38299 0.18549 0.1963 0.0
O347 O 0.35336 0.18716 0.1709 0.0
O348 O 0.40646 0.20434 0.25078 0.0
O349 O 0.37465 0.20501 0.26998 0.0
O350 O 0.49831 0.6193 0.94542 0.0
Cd351 Cd 0.52457 0.60225 0.95436 0.0
Cd352 Cd 0.53575 0.63974 0.98599 0.0
O353 O 0.50602 0.64776 0.97124 0.0
O354 O 0.51635 0.5737 0.94157 0.0
O355 O 0.524 0.58185 0.98871 0.0
C356 C 0.51772 0.56814 0.96936 0.0
C357 C 0.54704 0.65486 0.0315 0.0
C358 C 0.49362 0.63751 0.95441 0.0
C359 C 0.56207 0.62519 0.9324 0.0
O360 O 0.55876 0.63813 0.95359 0.0
O361 O 0.55037 0.60938 0.92875 0.0
O362 O 0.54372 0.66587 0.00778 0.0
O363 O 0.54365 0.63502 0.02981 0.0
O364 O 0.13957 0.7568 0.68146 0.0
Cd365 Cd 0.15111 0.78438 0.69689 0.0
Cd366 Cd 0.11578 0.78246 0.73185 0.0
O367 O 0.11607 0.75163 0.71689 0.0
O368 O 0.181 0.78283 0.68552 0.0
O369 O 0.16991 0.78269 0.7328 0.0
C370 C 0.1851 0.78074 0.71379 0.0
C371 C 0.10305 0.78993 0.78022 0.0
C372 C 0.12617 0.74515 0.69405 0.0
C373 C 0.11926 0.81525 0.68175 0.0
O374 O 0.10823 0.80542 0.70088 0.0
O375 O 0.13832 0.81054 0.67764 0.0
O376 O 0.09106 0.783 0.75922 0.0
O377 O 0.12269 0.79195 0.77426 0.0
O378 O 0.99272 0.38484 0.43062 0.0
Cd379 Cd 0.96641 0.39993 0.44468 0.0
Cd380 Cd 0.9606 0.36327 0.47581 0.0
O381 O 0.99112 0.35796 0.46151 0.0
O382 O 0.97242 0.4295 0.43489 0.0
O383 O 0.96868 0.4178 0.48153 0.0
C384 C 0.97317 0.43297 0.46344 0.0
C385 C 0.95088 0.35177 0.52387 0.0
C386 C 0.00072 0.36831 0.44136 0.0
C387 C 0.93047 0.37482 0.42508 0.0
O388 O 0.93699 0.3614 0.44403 0.0
O389 O 0.93939 0.39243 0.42249 0.0
O390 O 0.95515 0.33883 0.50257 0.0
O391 O 0.95256 0.37149 0.51824 0.0
O392 O 0.36071 0.73305 0.30869 0.0
Cd393 Cd 0.35652 0.76342 0.29502 0.0
Cd394 Cd 0.39 0.75389 0.26442 0.0
O395 O 0.38241 0.72308 0.27311 0.0
O396 O 0.3272 0.76898 0.30707 0.0
O397 O 0.33766 0.76815 0.25958 0.0
C398 C 0.32256 0.7694 0.27883 0.0
C399 C 0.39819 0.76685 0.21679 0.0
C400 C 0.37084 0.71866 0.29548 0.0
C401 C 0.39472 0.78269 0.31726 0.0
O402 O 0.40352 0.76954 0.29996 0.0
O403 O 0.37505 0.78533 0.31613 0.0
O404 O 0.41079 0.75458 0.23103 0.0
O405 O 0.38035 0.77102 0.22906 0.0
O406 O 0.00346 0.61469 0.06508 0.0
Cd407 Cd 0.97496 0.60246 0.05438 0.0
Cd408 Cd 0.9721 0.63972 0.02274 0.0
O409 O 0.00335 0.64227 0.03534 0.0
O410 O 0.97805 0.57272 0.06609 0.0
O411 O 0.9733 0.58303 0.019 0.0
C412 C 0.97685 0.56809 0.03792 0.0
C413 C 0.96113 0.65058 0.97492 0.0
C414 C 0.01263 0.63057 0.05428 0.0
C415 C 0.94255 0.63192 0.07543 0.0
O416 O 0.94969 0.64428 0.05554 0.0
O417 O 0.94988 0.6136 0.07836 0.0
O418 O 0.96749 0.66374 0.99483 0.0
O419 O 0.96182 0.63094 0.98162 0.0
O420 O 0.13575 0.24482 0.82222 0.0
Cd421 Cd 0.15047 0.21781 0.8102 0.0
Cd422 Cd 0.11287 0.21211 0.77948 0.0
O423 O 0.10747 0.24256 0.79399 0.0
O424 O 0.17995 0.22362 0.82096 0.0
O425 O 0.16922 0.21862 0.7741 0.0
C426 C 0.18409 0.22336 0.79259 0.0
C427 C 0.10085 0.2019 0.73186 0.0
C428 C 0.11879 0.25261 0.81259 0.0
C429 C 0.12505 0.18234 0.8308 0.0
O430 O 0.11192 0.18842 0.81116 0.0
O431 O 0.14244 0.19157 0.83392 0.0
O432 O 0.08823 0.20487 0.754 0.0
O433 O 0.12048 0.20546 0.73633 0.0
O434 O 0.49408 0.38588 0.55644 0.0
Cd435 Cd 0.52453 0.39036 0.54358 0.0
Cd436 Cd 0.51553 0.35697 0.51278 0.0
O437 O 0.48461 0.36495 0.51966 0.0
O438 O 0.52931 0.41994 0.55479 0.0
O439 O 0.52894 0.40868 0.50763 0.0
C440 C 0.52947 0.42412 0.52639 0.0
C441 C 0.52883 0.34673 0.4661 0.0
C442 C 0.47986 0.37616 0.54227 0.0
C443 C 0.54294 0.3527 0.56759 0.0
O444 O 0.53005 0.344 0.54977 0.0
O445 O 0.54617 0.37226 0.56597 0.0
O446 O 0.51623 0.33493 0.48107 0.0
O447 O 0.53326 0.3649 0.4771 0.0
H448 H 0.09332 0.1352 0.43407 0.0
H449 H 0.07398 0.19655 0.28663 0.0
H450 H 0.0439 0.1182 0.37277 0.0
H451 H 0.13371 0.19618 0.33194 0.0
H452 H 0.06474 0.1643 0.31309 0.0
H453 H 0.11111 0.15322 0.39307 0.0
C454 C 0.08656 0.13471 0.4117 0.0
C455 C 0.06701 0.12549 0.40685 0.0
C456 C 0.08006 0.17103 0.31669 0.0
C457 C 0.08678 0.14676 0.36011 0.0
C458 C 0.08532 0.18948 0.30162 0.0
C459 C 0.1044 0.19941 0.30771 0.0
C460 C 0.0939 0.16268 0.33818 0.0
C461 C 0.11858 0.1894 0.32712 0.0
C462 C 0.09667 0.14507 0.38828 0.0
C463 C 0.05893 0.12523 0.37746 0.0
N464 N 0.11288 0.17185 0.3421 0.0
N465 N 0.06855 0.1363 0.35533 0.0
H466 H 0.04027 0.84297 0.53692 0.0
H467 H 0.08933 0.84355 0.69643 0.0
H468 H 0.02579 0.89136 0.60142 0.0
H469 H 0.12446 0.81962 0.62116 0.0
H470 H 0.06642 0.86211 0.66141 0.0
H471 H 0.07189 0.83464 0.56581 0.0
C472 C 0.0439 0.85208 0.55679 0.0
C473 C 0.03013 0.86761 0.56705 0.0
C474 C 0.07943 0.85321 0.65252 0.0
C475 C 0.06601 0.85803 0.60022 0.0
C476 C 0.09248 0.84266 0.6725 0.0
C477 C 0.10872 0.83011 0.66157 0.0
C478 C 0.08223 0.85059 0.62138 0.0
C479 C 0.11214 0.82929 0.63039 0.0
C480 C 0.06196 0.84736 0.5732 0.0
C481 C 0.03572 0.87902 0.59286 0.0
N482 N 0.09865 0.83899 0.61125 0.0
N483 N 0.05299 0.87373 0.60885 0.0
H484 H 0.42388 0.87802 0.87674 0.0
H485 H 0.34763 0.78291 0.84219 0.0
H486 H 0.39656 0.8375 0.94356 0.0
H487 H 0.39591 0.80359 0.78121 0.0
H488 H 0.3548 0.81293 0.87432 0.0
H489 H 0.40307 0.86045 0.83781 0.0
C490 C 0.41295 0.86594 0.88334 0.0
C491 C 0.41208 0.85893 0.91326 0.0
C492 C 0.36347 0.81113 0.85354 0.0
C493 C 0.38836 0.83904 0.86914 0.0
C494 C 0.35943 0.79401 0.83515 0.0
C495 C 0.37166 0.79039 0.80942 0.0
C496 C 0.37981 0.82476 0.84615 0.0
C497 C 0.38639 0.80557 0.80114 0.0
C498 C 0.40123 0.85588 0.86113 0.0
C499 C 0.39783 0.84315 0.92066 0.0
N500 N 0.39037 0.82193 0.81983 0.0
N501 N 0.38667 0.83357 0.89867 0.0
H502 H 0.39386 0.14437 0.19105 0.0
H503 H 0.45067 0.14645 0.03729 0.0
H504 H 0.36722 0.17674 0.11506 0.0
H505 H 0.45939 0.09637 0.10126 0.0
H506 H 0.41786 0.15557 0.06247 0.0
H507 H 0.41538 0.12382 0.15671 0.0
C508 C 0.39213 0.14667 0.16701 0.0
C509 C 0.3789 0.16227 0.15578 0.0
C510 C 0.42675 0.1423 0.07053 0.0
C511 C 0.40402 0.13951 0.11642 0.0
C512 C 0.44552 0.13713 0.05623 0.0
C513 C 0.45807 0.12096 0.06763 0.0
C514 C 0.42073 0.13138 0.09658 0.0
C515 C 0.45049 0.10926 0.09205 0.0
C516 C 0.40444 0.135 0.14738 0.0
C517 C 0.37724 0.16478 0.1245 0.0
N518 N 0.43254 0.11496 0.10606 0.0
N519 N 0.39013 0.1539 0.10586 0.0
H520 H 0.0656 0.7737 0.21626 0.0
H521 H 0.07423 0.87076 0.10408 0.0
H522 H 0.12554 0.7982 0.18903 0.0
H523 H 0.02861 0.82139 0.09713 0.0
H524 H 0.09013 0.85235 0.14735 0.0
H525 H 0.04847 0.80075 0.18622 0.0
C526 C 0.07517 0.78514 0.20475 0.0
C527 C 0.09702 0.78343 0.2046 0.0
C528 C 0.07651 0.84579 0.13638 0.0
C529 C 0.07753 0.81426 0.17026 0.0
C530 C 0.06754 0.85617 0.11179 0.0
C531 C 0.05039 0.84731 0.09683 0.0
C532 C 0.06772 0.82692 0.14642 0.0
C533 C 0.0421 0.82851 0.10771 0.0
C534 C 0.06538 0.80046 0.18746 0.0
C535 C 0.10863 0.79875 0.18927 0.0
N536 N 0.05079 0.81898 0.13189 0.0
N537 N 0.09873 0.8134 0.1723 0.0
H538 H 0.43273 0.771 0.33881 0.0
H539 H 0.4557 0.87337 0.43045 0.0
H540 H 0.38533 0.81857 0.34864 0.0
H541 H 0.48586 0.81456 0.45022 0.0
H542 H 0.42987 0.85474 0.39992 0.0
H543 H 0.45335 0.78808 0.37775 0.0
C544 C 0.42669 0.78513 0.34907 0.0
C545 C 0.40735 0.79349 0.34031 0.0
C546 C 0.44192 0.84591 0.41142 0.0
C547 C 0.43092 0.81308 0.38504 0.0
C548 C 0.45666 0.8565 0.42885 0.0
C549 C 0.4731 0.84551 0.44263 0.0
C550 C 0.44393 0.82428 0.4073 0.0
C551 C 0.47351 0.82368 0.43993 0.0
C552 C 0.43839 0.79473 0.37154 0.0
C553 C 0.4002 0.81167 0.35469 0.0
N554 N 0.45938 0.81382 0.4221 0.0
N555 N 0.41213 0.82104 0.37618 0.0
H556 H 0.3595 0.22859 0.64973 0.0
H557 H 0.44155 0.13555 0.63117 0.0
H558 H 0.41243 0.22117 0.70925 0.0
H559 H 0.40914 0.16503 0.55737 0.0
H560 H 0.42346 0.15916 0.66633 0.0
H561 H 0.37026 0.19733 0.62265 0.0
C562 C 0.37325 0.22026 0.65742 0.0
C563 C 0.38532 0.22779 0.68152 0.0
C564 C 0.42004 0.16008 0.64249 0.0
C565 C 0.39755 0.19182 0.65055 0.0
C566 C 0.43016 0.14656 0.62251 0.0
C567 C 0.4268 0.1485 0.59143 0.0
C568 C 0.40624 0.17523 0.63117 0.0
C569 C 0.41217 0.16316 0.5812 0.0
C570 C 0.37935 0.20241 0.64188 0.0
C571 C 0.40283 0.2161 0.69056 0.0
N572 N 0.40246 0.17602 0.60102 0.0
N573 N 0.40856 0.19875 0.67486 0.0
H574 H 0.13455 0.18049 0.89064 0.0
H575 H 0.04185 0.1001 0.91896 0.0
H576 H 0.09977 0.14882 0.82112 0.0
H577 H 0.05647 0.15122 0.97882 0.0
H578 H 0.07318 0.10799 0.88993 0.0
H579 H 0.11583 0.15993 0.9287 0.0
C580 C 0.12352 0.16869 0.88337 0.0
C581 C 0.11842 0.16648 0.8528 0.0
C582 C 0.06976 0.11715 0.90983 0.0
C583 C 0.09721 0.14305 0.89594 0.0
C584 C 0.05188 0.11269 0.92646 0.0
C585 C 0.04617 0.12544 0.95086 0.0
C586 C 0.08206 0.13442 0.91768 0.0
C587 C 0.06004 0.14125 0.95982 0.0
C588 C 0.11279 0.1571 0.90506 0.0
C589 C 0.10392 0.15114 0.84452 0.0
N590 N 0.07719 0.14557 0.94285 0.0
N591 N 0.09365 0.14013 0.866 0.0
H592 H 0.93302 0.86292 0.6292 0.0
H593 H 0.85857 0.76371 0.64362 0.0
H594 H 0.91521 0.82379 0.55443 0.0
H595 H 0.90227 0.78044 0.71377 0.0
H596 H 0.87062 0.79334 0.61401 0.0
H597 H 0.91326 0.83986 0.66318 0.0
C598 C 0.92455 0.84977 0.61989 0.0
C599 C 0.92577 0.84508 0.58909 0.0
C600 C 0.87735 0.79066 0.63606 0.0
C601 C 0.9032 0.81907 0.62745 0.0
C602 C 0.87049 0.77377 0.65306 0.0
C603 C 0.8797 0.76934 0.68107 0.0
C604 C 0.89337 0.80339 0.64718 0.0
C605 C 0.89494 0.78313 0.69214 0.0
C606 C 0.91346 0.83662 0.63925 0.0
C607 C 0.91474 0.8278 0.5781 0.0
N608 N 0.90146 0.79951 0.67501 0.0
N609 N 0.90391 0.81539 0.59729 0.0
H610 H 0.95055 0.12969 0.44176 0.0
H611 H 0.93744 0.22584 0.33255 0.0
H612 H 0.98877 0.18509 0.44764 0.0
H613 H 0.88698 0.18243 0.34822 0.0
H614 H 0.95657 0.21043 0.3744 0.0
H615 H 0.92639 0.1485 0.40882 0.0
C616 C 0.95361 0.14595 0.43666 0.0
C617 C 0.97185 0.15577 0.44714 0.0
C618 C 0.94127 0.20433 0.36883 0.0
C619 C 0.94455 0.17715 0.40898 0.0
C620 C 0.93041 0.21297 0.3447 0.0
C621 C 0.91064 0.20528 0.33669 0.0
C622 C 0.93249 0.18763 0.38488 0.0
C623 C 0.90222 0.18875 0.35356 0.0
C624 C 0.93984 0.15665 0.4178 0.0
C625 C 0.97498 0.17688 0.43998 0.0
N626 N 0.9133 0.18032 0.37673 0.0
N627 N 0.96167 0.18675 0.42084 0.0
H628 H 0.55277 0.12726 0.13828 0.0
H629 H 0.63546 0.21972 0.14971 0.0
H630 H 0.57586 0.16151 0.06158 0.0
H631 H 0.58677 0.21228 0.21623 0.0
H632 H 0.62152 0.18989 0.12233 0.0
H633 H 0.57289 0.15053 0.17161 0.0
C634 C 0.56244 0.13937 0.12849 0.0
C635 C 0.56268 0.14263 0.09725 0.0
C636 C 0.6141 0.19464 0.14315 0.0
C637 C 0.58568 0.1688 0.13486 0.0
C638 C 0.62202 0.21164 0.1589 0.0
C639 C 0.61203 0.21878 0.18511 0.0
C640 C 0.59622 0.18447 0.1538 0.0
C641 C 0.59479 0.20748 0.19593 0.0
C642 C 0.57374 0.15265 0.14745 0.0
C643 C 0.57521 0.15862 0.08558 0.0
N644 N 0.58728 0.1909 0.18006 0.0
N645 N 0.58626 0.17111 0.10441 0.0
H646 H 0.52587 0.82812 0.96318 0.0
H647 H 0.57532 0.81947 0.80315 0.0
H648 H 0.5158 0.87561 0.89557 0.0
H649 H 0.61034 0.79854 0.88046 0.0
H650 H 0.55168 0.83849 0.83664 0.0
H651 H 0.55565 0.81504 0.93371 0.0
C652 C 0.53003 0.83592 0.94239 0.0
C653 C 0.51819 0.85285 0.93169 0.0
C654 C 0.56473 0.83001 0.84626 0.0
C655 C 0.55186 0.83786 0.89797 0.0
C656 C 0.57816 0.81916 0.82719 0.0
C657 C 0.59474 0.80754 0.83916 0.0
C658 C 0.56754 0.82866 0.87753 0.0
C659 C 0.59778 0.80752 0.87045 0.0
C660 C 0.54704 0.82852 0.92572 0.0
C661 C 0.52436 0.86244 0.90466 0.0
N662 N 0.58401 0.81761 0.88872 0.0
N663 N 0.54053 0.8546 0.88852 0.0
H664 H 0.92962 0.22706 0.79143 0.0
H665 H 0.92381 0.1308 0.90569 0.0
H666 H 0.87087 0.20055 0.82016 0.0
H667 H 0.97233 0.17761 0.90569 0.0
H668 H 0.90655 0.14946 0.864 0.0
H669 H 0.94801 0.20094 0.82157 0.0
C670 C 0.92058 0.21542 0.8034 0.0
C671 C 0.89867 0.21624 0.80376 0.0
C672 C 0.92106 0.15546 0.8731 0.0
C673 C 0.91963 0.18649 0.83836 0.0
C674 C 0.93085 0.1449 0.89683 0.0
C675 C 0.94932 0.15289 0.90939 0.0
C676 C 0.93017 0.17373 0.86153 0.0
C677 C 0.95792 0.17112 0.89701 0.0
C678 C 0.93109 0.20064 0.82078 0.0
C679 C 0.88779 0.20068 0.81967 0.0
N680 N 0.94829 0.1809 0.87375 0.0
N681 N 0.89839 0.18656 0.8367 0.0
H682 H 0.59185 0.14856 0.68569 0.0
H683 H 0.5345 0.16522 0.53469 0.0
H684 H 0.61565 0.1925 0.62064 0.0
H685 H 0.53349 0.10583 0.58086 0.0
H686 H 0.56614 0.17453 0.56277 0.0
H687 H 0.57239 0.1311 0.64566 0.0
C688 C 0.59338 0.15416 0.66278 0.0
C689 C 0.60522 0.17199 0.65638 0.0
C690 C 0.55923 0.15927 0.56616 0.0
C691 C 0.58248 0.15265 0.61071 0.0
C692 C 0.54116 0.15396 0.55017 0.0
C693 C 0.53102 0.13495 0.55599 0.0
C694 C 0.56693 0.14556 0.58829 0.0
C695 C 0.54046 0.12089 0.57614 0.0
C696 C 0.58228 0.14423 0.63992 0.0
C697 C 0.60669 0.17872 0.62638 0.0
N698 N 0.55761 0.12666 0.59202 0.0
N699 N 0.59496 0.16938 0.60469 0.0
H700 H 0.64398 0.79567 0.33992 0.0
H701 H 0.5538 0.87843 0.37078 0.0
H702 H 0.58796 0.80079 0.28615 0.0
H703 H 0.59675 0.85474 0.43743 0.0
H704 H 0.57383 0.86035 0.33155 0.0
H705 H 0.6342 0.82752 0.36645 0.0
C706 C 0.6298 0.8037 0.33326 0.0
C707 C 0.61644 0.79521 0.31136 0.0
C708 C 0.57919 0.85967 0.35466 0.0
C709 C 0.60522 0.83169 0.34175 0.0
C710 C 0.5679 0.8701 0.37701 0.0
C711 C 0.57352 0.86776 0.40737 0.0
C712 C 0.59629 0.84715 0.36286 0.0
C713 C 0.59179 0.85667 0.41428 0.0
C714 C 0.62427 0.8219 0.34843 0.0
C715 C 0.59853 0.80659 0.30325 0.0
N716 N 0.60238 0.84654 0.39223 0.0
N717 N 0.5932 0.82407 0.3189 0.0
H718 H 0.87544 0.83649 0.16105 0.0
H719 H 0.95655 0.82655 0.02542 0.0
H720 H 0.91497 0.78317 0.144 0.0
H721 H 0.9479 0.88472 0.07305 0.0
H722 H 0.92909 0.81088 0.0562 0.0
H723 H 0.89152 0.85441 0.11754 0.0
C724 C 0.88733 0.82855 0.14799 0.0
C725 C 0.89426 0.80857 0.15627 0.0
C726 C 0.93286 0.82724 0.05928 0.0
C727 C 0.91179 0.82834 0.1064 0.0
C728 C 0.94841 0.83626 0.04159 0.0
C729 C 0.95487 0.85683 0.04722 0.0
C730 C 0.92361 0.83895 0.08242 0.0
C731 C 0.94366 0.86866 0.06845 0.0
C732 C 0.89637 0.83868 0.12326 0.0
C733 C 0.90954 0.79877 0.13864 0.0
N734 N 0.92877 0.85944 0.08573 0.0
N735 N 0.91776 0.80873 0.1145 0.0
H736 H 0.55943 0.61859 0.87182 0.0
H737 H 0.64622 0.70519 0.84287 0.0
H738 H 0.59894 0.6457 0.94008 0.0
H739 H 0.59206 0.69662 0.78616 0.0
H740 H 0.63699 0.67358 0.87034 0.0
H741 H 0.57945 0.63726 0.83318 0.0
C742 C 0.5728 0.62784 0.87857 0.0
C743 C 0.57742 0.6309 0.90914 0.0
C744 C 0.62736 0.67839 0.85151 0.0
C745 C 0.60019 0.65217 0.86532 0.0
C746 C 0.63257 0.69646 0.8358 0.0
C747 C 0.61953 0.7039 0.8127 0.0
C748 C 0.60896 0.66767 0.84416 0.0
C749 C 0.60234 0.69165 0.80415 0.0
C750 C 0.58408 0.6386 0.85656 0.0
C751 C 0.59475 0.64317 0.91675 0.0
N752 N 0.5973 0.67429 0.82029 0.0
N753 N 0.60537 0.65357 0.89499 0.0
H754 H 0.62615 0.31168 0.12199 0.0
H755 H 0.53284 0.39276 0.09936 0.0
H756 H 0.59164 0.34057 0.19423 0.0
H757 H 0.54515 0.34236 0.03714 0.0
H758 H 0.56367 0.3827 0.12811 0.0
H759 H 0.60544 0.3319 0.08554 0.0
C760 C 0.6147 0.32279 0.13017 0.0
C761 C 0.6104 0.32442 0.16105 0.0
C762 C 0.55981 0.37411 0.10785 0.0
C763 C 0.58698 0.34745 0.1198 0.0
C764 C 0.54222 0.3798 0.09136 0.0
C765 C 0.53607 0.36803 0.06616 0.0
C766 C 0.57147 0.35662 0.09904 0.0
C767 C 0.54911 0.35165 0.05669 0.0
C768 C 0.60284 0.33414 0.10941 0.0
C769 C 0.59527 0.3388 0.17056 0.0
N770 N 0.56609 0.3462 0.07342 0.0
N771 N 0.584 0.34968 0.14998 0.0
H772 H 0.90174 0.31119 0.27023 0.0
H773 H 0.89766 0.34847 0.43389 0.0
H774 H 0.85104 0.29404 0.32938 0.0
H775 H 0.92777 0.38598 0.36595 0.0
H776 H 0.87718 0.33134 0.39468 0.0
H777 H 0.90845 0.34177 0.30178 0.0
C778 C 0.89164 0.31414 0.28933 0.0
C779 C 0.87624 0.29968 0.29772 0.0
C780 C 0.88784 0.3437 0.38833 0.0
C781 C 0.88404 0.33435 0.33406 0.0
C782 C 0.89954 0.35344 0.41073 0.0
C783 C 0.91454 0.36842 0.40302 0.0
C784 C 0.89172 0.3485 0.35796 0.0
C785 C 0.91637 0.37441 0.37274 0.0
C786 C 0.89548 0.33162 0.30735 0.0
C787 C 0.86349 0.30445 0.32252 0.0
N788 N 0.90552 0.36399 0.35114 0.0
N789 N 0.86802 0.32108 0.34027 0.0
H790 H 0.91059 0.65119 0.70591 0.0
H791 H 0.95931 0.6467 0.54604 0.0
H792 H 0.87573 0.67286 0.62891 0.0
H793 H 0.97551 0.60197 0.61507 0.0
H794 H 0.92761 0.65549 0.57436 0.0
H795 H 0.93355 0.63153 0.67234 0.0
C796 C 0.9075 0.65134 0.68192 0.0
C797 C 0.89136 0.6636 0.67005 0.0
C798 C 0.93794 0.64345 0.58292 0.0
C799 C 0.91792 0.64187 0.63146 0.0
C800 C 0.95606 0.63849 0.56684 0.0
C801 C 0.97031 0.62389 0.57848 0.0
C802 C 0.9343 0.63395 0.61094 0.0
C803 C 0.96519 0.6136 0.60543 0.0
C804 C 0.92058 0.64017 0.66276 0.0
C805 C 0.888 0.66344 0.63885 0.0
N806 N 0.94782 0.61911 0.62099 0.0
N807 N 0.90153 0.65315 0.62046 0.0
H808 H 0.52783 0.31668 0.59112 0.0
H809 H 0.62592 0.28696 0.68651 0.0
H810 H 0.57859 0.36059 0.60055 0.0
H811 H 0.56431 0.2634 0.70683 0.0
H812 H 0.61004 0.31439 0.6556 0.0
H813 H 0.54216 0.29628 0.63248 0.0
C814 C 0.5421 0.32198 0.60181 0.0
C815 C 0.55219 0.34024 0.59217 0.0
C816 C 0.60002 0.3035 0.66741 0.0
C817 C 0.56863 0.31692 0.63974 0.0
C818 C 0.60904 0.28785 0.68506 0.0
C819 C 0.59641 0.27267 0.69888 0.0
C820 C 0.57831 0.30364 0.66312 0.0
C821 C 0.57465 0.27467 0.69643 0.0
C822 C 0.55011 0.31045 0.62569 0.0
C823 C 0.57043 0.34653 0.60722 0.0
N824 N 0.56631 0.28957 0.67829 0.0
N825 N 0.57827 0.3347 0.63008 0.0
H826 H 0.95445 0.38722 0.91712 0.0
H827 H 0.87337 0.29601 0.88237 0.0
H828 H 0.95381 0.32858 0.9653 0.0
H829 H 0.89698 0.33946 0.81642 0.0
H830 H 0.89282 0.31476 0.92161 0.0
H831 H 0.92328 0.37639 0.88981 0.0
C832 C 0.94757 0.3722 0.9224 0.0
C833 C 0.95712 0.35853 0.94301 0.0
C834 C 0.89324 0.32046 0.89866 0.0
C835 C 0.92132 0.34622 0.91184 0.0
C836 C 0.88205 0.30992 0.87633 0.0
C837 C 0.88382 0.31614 0.84614 0.0
C838 C 0.90586 0.33748 0.89065 0.0
C839 C 0.89541 0.33409 0.83942 0.0
C840 C 0.92975 0.36609 0.90677 0.0
C841 C 0.94719 0.33946 0.94925 0.0
N842 N 0.90616 0.34405 0.86149 0.0
N843 N 0.92996 0.3337 0.93334 0.0
H844 H 0.93958 0.62337 0.13553 0.0
H845 H 0.8553 0.71354 0.16041 0.0
H846 H 0.91086 0.65915 0.06436 0.0
H847 H 0.90508 0.70104 0.22367 0.0
H848 H 0.86667 0.68371 0.1305 0.0
H849 H 0.91821 0.64246 0.17244 0.0
C850 C 0.92835 0.63481 0.12765 0.0
C851 C 0.92705 0.63992 0.09699 0.0
C852 C 0.87481 0.68727 0.15126 0.0
C853 C 0.90263 0.66143 0.13871 0.0
C854 C 0.86835 0.70428 0.16842 0.0
C855 C 0.87961 0.71015 0.19422 0.0
C856 C 0.89254 0.67595 0.16003 0.0
C857 C 0.89617 0.6973 0.20366 0.0
C858 C 0.9163 0.64572 0.14867 0.0
C859 C 0.91244 0.65495 0.08786 0.0
N860 N 0.90238 0.68093 0.18627 0.0
N861 N 0.90085 0.66527 0.10867 0.0
H862 H 0.6095 0.70017 0.38339 0.0
H863 H 0.51802 0.61638 0.39358 0.0
H864 H 0.57475 0.67846 0.30629 0.0
H865 H 0.52589 0.66346 0.46235 0.0
H866 H 0.54671 0.63191 0.36539 0.0
H867 H 0.58625 0.67969 0.41627 0.0
C868 C 0.59725 0.69077 0.3734 0.0
C869 C 0.59389 0.69098 0.34219 0.0
C870 C 0.54228 0.63867 0.38682 0.0
C871 C 0.56772 0.66758 0.37929 0.0
C872 C 0.52595 0.62982 0.40303 0.0
C873 C 0.51934 0.63881 0.43026 0.0
C874 C 0.55233 0.65646 0.39804 0.0
C875 C 0.53033 0.65618 0.44131 0.0
C876 C 0.58398 0.67927 0.39212 0.0
C877 C 0.57773 0.67876 0.33028 0.0
N878 N 0.54631 0.66454 0.42506 0.0
N879 N 0.56526 0.6675 0.34886 0.0
H880 H 0.44056 0.36101 0.12915 0.0
H881 H 0.3594 0.26715 0.13807 0.0
H882 H 0.41998 0.32605 0.05163 0.0
H883 H 0.4068 0.2755 0.20634 0.0
H884 H 0.37371 0.29679 0.11059 0.0
H885 H 0.42041 0.33724 0.16169 0.0
C886 C 0.43141 0.34864 0.119 0.0
C887 C 0.43188 0.34534 0.08778 0.0
C888 C 0.38078 0.29226 0.13178 0.0
C889 C 0.4089 0.31857 0.12448 0.0
C890 C 0.37264 0.27538 0.14758 0.0
C891 C 0.38211 0.26863 0.17441 0.0
C892 C 0.39833 0.30271 0.14302 0.0
C893 C 0.39918 0.28004 0.18557 0.0
C894 C 0.42012 0.33507 0.13751 0.0
C895 C 0.42004 0.329 0.07564 0.0
N896 N 0.40686 0.29653 0.16971 0.0
N897 N 0.40898 0.31621 0.09402 0.0
H898 H 0.48488 0.67932 0.9522 0.0
H899 H 0.3864 0.66818 0.84266 0.0
H900 H 0.4602 0.61913 0.92648 0.0
H901 H 0.43069 0.71899 0.83953 0.0
H902 H 0.40749 0.65176 0.88261 0.0
H903 H 0.45805 0.69615 0.9214 0.0
C904 C 0.47354 0.66964 0.94066 0.0
C905 C 0.47497 0.64779 0.94152 0.0
C906 C 0.41244 0.66654 0.87313 0.0
C907 C 0.4444 0.66693 0.90618 0.0
C908 C 0.4005 0.67586 0.85038 0.0
C909 C 0.40698 0.69481 0.83754 0.0
C910 C 0.4306 0.67658 0.88346 0.0
C911 C 0.42528 0.70421 0.84846 0.0
C912 C 0.45835 0.67926 0.9229 0.0
C913 C 0.45982 0.63604 0.92607 0.0
N914 N 0.43639 0.69504 0.87084 0.0
N915 N 0.44524 0.64576 0.90877 0.0
H916 H 0.1425 0.72901 0.64242 0.0
H917 H 0.06851 0.62903 0.6362 0.0
H918 H 0.09885 0.71474 0.7137 0.0
H919 H 0.08614 0.66538 0.55851 0.0
H920 H 0.08862 0.65311 0.66828 0.0
H921 H 0.13099 0.69794 0.61554 0.0
C922 C 0.1307 0.71921 0.65269 0.0
C923 C 0.12131 0.72474 0.68014 0.0
C924 C 0.08836 0.65548 0.64414 0.0
C925 C 0.10829 0.68904 0.64941 0.0
C926 C 0.07708 0.64174 0.62587 0.0
C927 C 0.07567 0.64541 0.5948 0.0
C928 C 0.09859 0.67256 0.63097 0.0
C929 C 0.08679 0.66216 0.58243 0.0
C930 C 0.12417 0.70149 0.63726 0.0
C931 C 0.10628 0.71122 0.6924 0.0
N932 N 0.09777 0.67517 0.60058 0.0
N933 N 0.10006 0.69403 0.67677 0.0
H934 H 0.02243 0.38462 0.39409 0.0
H935 H 0.10575 0.29215 0.3829 0.0
H936 H 0.02399 0.33399 0.45839 0.0
H937 H 0.07883 0.3236 0.30627 0.0
H938 H 0.08426 0.3141 0.41636 0.0
H939 H 0.05196 0.36898 0.36787 0.0
C940 C 0.02914 0.37036 0.40301 0.0
C941 C 0.02044 0.36039 0.42822 0.0
C942 C 0.08343 0.31639 0.39224 0.0
C943 C 0.0544 0.34255 0.39826 0.0
C944 C 0.09574 0.30405 0.37323 0.0
C945 C 0.09389 0.30611 0.34191 0.0
C946 C 0.06967 0.33109 0.37966 0.0
C947 C 0.08057 0.32151 0.33033 0.0
C948 C 0.046 0.36147 0.38796 0.0
C949 C 0.03002 0.34204 0.43882 0.0
N950 N 0.06893 0.33341 0.34922 0.0
N951 N 0.04643 0.33357 0.42359 0.0
H952 H 0.42622 0.61058 0.37453 0.0
H953 H 0.34752 0.70431 0.34258 0.0
H954 H 0.39744 0.64912 0.44253 0.0
H955 H 0.39615 0.68532 0.28098 0.0
H956 H 0.35539 0.67405 0.37394 0.0
H957 H 0.40497 0.62816 0.33608 0.0
C958 C 0.41489 0.6222 0.38148 0.0
C959 C 0.41372 0.62867 0.41163 0.0
C960 C 0.36399 0.67626 0.35319 0.0
C961 C 0.38951 0.64863 0.36802 0.0
C962 C 0.35953 0.69353 0.33521 0.0
C963 C 0.37164 0.69771 0.30954 0.0
C964 C 0.38062 0.66306 0.34543 0.0
C965 C 0.3867 0.68292 0.30087 0.0
C966 C 0.40291 0.63229 0.35954 0.0
C967 C 0.39895 0.6439 0.41945 0.0
N968 N 0.39106 0.66642 0.31914 0.0
N969 N 0.38757 0.65353 0.39772 0.0
H970 H 0.03624 0.60868 0.09461 0.0
H971 H 0.11672 0.70162 0.12376 0.0
H972 H 0.03634 0.66558 0.04227 0.0
H973 H 0.09415 0.65949 0.19216 0.0
H974 H 0.09652 0.68217 0.08592 0.0
H975 H 0.06686 0.62106 0.12184 0.0
C976 C 0.04287 0.62365 0.08844 0.0
C977 C 0.03337 0.63634 0.06654 0.0
C978 C 0.09645 0.67694 0.10911 0.0
C979 C 0.06855 0.65048 0.0977 0.0
C980 C 0.10807 0.68787 0.13062 0.0
C981 C 0.10691 0.68217 0.16108 0.0
C982 C 0.08401 0.66004 0.11821 0.0
C983 C 0.0953 0.66444 0.16891 0.0
C984 C 0.06037 0.63067 0.10405 0.0
C985 C 0.04296 0.65542 0.05928 0.0
N986 N 0.08418 0.65407 0.14763 0.0
N987 N 0.0599 0.66207 0.07515 0.0
H988 H 0.1378 0.27565 0.85632 0.0
H989 H 0.04722 0.36073 0.87075 0.0
H990 H 0.08391 0.27584 0.79765 0.0
H991 H 0.08208 0.33607 0.94589 0.0
H992 H 0.0675 0.33811 0.8367 0.0
H993 H 0.12415 0.30648 0.88168 0.0
C994 C 0.12322 0.2823 0.84844 0.0
C995 C 0.11177 0.27286 0.82512 0.0
C996 C 0.07096 0.33807 0.86057 0.0
C997 C 0.09625 0.30834 0.85407 0.0
C998 C 0.0596 0.35105 0.8799 0.0
C999 C 0.06306 0.35012 0.91105 0.0
C1000 C 0.08608 0.32454 0.87261 0.0
C1001 C 0.07897 0.33714 0.92197 0.0
C1002 C 0.11548 0.29992 0.86299 0.0
C1003 C 0.09309 0.28242 0.81579 0.0
N1004 N 0.08987 0.32479 0.90277 0.0
N1005 N 0.08578 0.2996 0.8305 0.0
H1006 H 0.44691 0.35078 0.52645 0.0
H1007 H 0.40963 0.34988 0.69052 0.0
H1008 H 0.46468 0.39927 0.58898 0.0
H1009 H 0.37086 0.32362 0.62073 0.0
H1010 H 0.42774 0.37073 0.65267 0.0
H1011 H 0.41643 0.34316 0.55785 0.0
C1012 C 0.44412 0.36021 0.54628 0.0
C1013 C 0.4587 0.37525 0.55558 0.0
C1014 C 0.41493 0.36082 0.64563 0.0
C1015 C 0.42416 0.36642 0.59169 0.0
C1016 C 0.40465 0.34891 0.66725 0.0
C1017 C 0.38892 0.33496 0.65859 0.0
C1018 C 0.40992 0.3582 0.61506 0.0
C1019 C 0.38296 0.33424 0.62821 0.0
C1020 C 0.42671 0.35585 0.56421 0.0
C1021 C 0.45416 0.38713 0.58135 0.0
N1022 N 0.39387 0.34529 0.60732 0.0
N1023 N 0.43758 0.38211 0.59891 0.0
H1024 H 0.27574 0.22709 0.17683 0.0
H1025 H 0.20406 0.25517 0.31852 0.0
H1026 H 0.29711 0.22352 0.26889 0.0
H1027 H 0.18307 0.25945 0.22634 0.0
H1028 H 0.23867 0.24507 0.30072 0.0
H1029 H 0.24187 0.23942 0.19459 0.0
C1030 C 0.27327 0.22875 0.20083 0.0
C1031 C 0.28929 0.22423 0.22143 0.0
C1032 C 0.22655 0.24836 0.28437 0.0
C1033 C 0.25054 0.23859 0.2419 0.0
C1034 C 0.20679 0.25424 0.2945 0.0
C1035 C 0.19061 0.25807 0.27387 0.0
C1036 C 0.23016 0.24621 0.25337 0.0
C1037 C 0.19508 0.25663 0.24303 0.0
C1038 C 0.25393 0.23591 0.21094 0.0
C1039 C 0.28519 0.22675 0.25223 0.0
N1040 N 0.21441 0.25066 0.23372 0.0
N1041 N 0.26622 0.23381 0.26154 0.0
H1042 H 0.9652 0.94138 0.47877 0.0
H1043 H 0.0054 0.05363 0.53189 0.0
H1044 H 0.96902 0.9603 0.57191 0.0
H1045 H 0.99008 0.03902 0.43961 0.0
H1046 H 0.99282 0.01907 0.54688 0.0
H1047 H 0.97411 0.97705 0.46369 0.0
C1048 C 0.96761 0.95309 0.49603 0.0
C1049 C 0.96648 0.94783 0.52663 0.0
C1050 C 0.99217 0.02346 0.52336 0.0
C1051 C 0.97702 0.98851 0.50959 0.0
C1052 C -0.00053 0.04313 0.51479 0.0
C1053 C -0.00117 0.04918 0.48447 0.0
C1054 C 0.98434 0.00971 0.50141 0.0
C1055 C 0.99088 0.03499 0.46325 0.0
C1056 C 0.97278 0.97343 0.48742 0.0
C1057 C 0.96979 0.96363 0.54804 0.0
N1058 N 0.98401 0.0159 0.47211 0.0
N1059 N 0.97512 0.98319 0.53912 0.0
H1060 H 0.31109 0.732 0.71557 0.0
H1061 H 0.19764 0.7688 0.77024 0.0
H1062 H 0.28773 0.72278 0.80576 0.0
H1063 H 0.21992 0.77552 0.67904 0.0
H1064 H 0.23068 0.75203 0.78377 0.0
H1065 H 0.2772 0.7465 0.7011 0.0
C1066 C 0.29872 0.73262 0.73218 0.0
C1067 C 0.30231 0.72629 0.76197 0.0
C1068 C 0.22837 0.75726 0.76082 0.0
C1069 C 0.26366 0.74334 0.74577 0.0
C1070 C 0.20958 0.76703 0.75317 0.0
C1071 C 0.20601 0.77359 0.72348 0.0
C1072 C 0.24369 0.75404 0.73863 0.0
C1073 C 0.22199 0.77072 0.70222 0.0
C1074 C 0.27942 0.7411 0.72398 0.0
C1075 C 0.2857 0.72755 0.78256 0.0
N1076 N 0.24009 0.7611 0.71019 0.0
N1077 N 0.26718 0.73613 0.77415 0.0
H1078 H 0.52021 0.02679 0.07647 0.0
H1079 H 0.4788 0.95867 0.93801 0.0
H1080 H 0.51784 0.04921 0.98486 0.0
H1081 H 0.48028 0.93632 0.02969 0.0
H1082 H 0.49424 0.99149 0.9546 0.0
H1083 H 0.50801 0.99272 0.05928 0.0
C1084 C 0.51745 0.02446 0.05265 0.0
C1085 C 0.51991 0.04093 0.03208 0.0
C1086 C 0.49116 0.97945 0.97113 0.0
C1087 C 0.50558 0.00204 0.01235 0.0
C1088 C 0.48222 0.96072 0.96171 0.0
C1089 C 0.47819 0.94473 0.98253 0.0
C1090 C 0.49616 0.98225 0.00162 0.0
C1091 C 0.48303 0.94826 0.01291 0.0
C1092 C 0.51034 0.00502 0.04289 0.0
C1093 C 0.51613 0.03698 0.00151 0.0
N1094 N 0.49181 0.96665 0.02154 0.0
N1095 N 0.50896 0.01798 0.99261 0.0
H1096 H 0.19247 0.73628 0.27775 0.0
H1097 H 0.30694 0.76731 0.22134 0.0
H1098 H 0.20785 0.74607 0.1842 0.0
H1099 H 0.28789 0.76856 0.31455 0.0
H1100 H 0.27083 0.75965 0.20693 0.0
H1101 H 0.22787 0.74702 0.29152 0.0
C1102 C 0.20334 0.74053 0.2601 0.0
C1103 C 0.19721 0.74024 0.2298 0.0
C1104 C 0.27453 0.76183 0.23051 0.0
C1105 C 0.23767 0.75274 0.24537 0.0
C1106 C 0.29512 0.76632 0.23873 0.0
C1107 C 0.30047 0.76847 0.2692 0.0
C1108 C 0.25926 0.7593 0.25294 0.0
C1109 C 0.28451 0.76695 0.29078 0.0
C1110 C 0.2235 0.74682 0.26797 0.0
C1111 C 0.2119 0.74606 0.20787 0.0
N1112 N 0.26469 0.76225 0.28226 0.0
N1113 N 0.23146 0.75203 0.21607 0.0
H1114 H 0.51155 0.94321 0.5282 0.0
H1115 H 0.4673 0.05479 0.47686 0.0
H1116 H 0.49806 0.9594 0.43585 0.0
H1117 H 0.47664 0.03693 0.56963 0.0
H1118 H 0.47731 0.01949 0.4614 0.0
H1119 H 0.49852 0.97747 0.54388 0.0
C1120 C 0.50596 0.954 0.51122 0.0
C1121 C 0.50594 0.94846 0.48068 0.0
C1122 C 0.47699 0.02326 0.48516 0.0
C1123 C 0.49086 0.98759 0.49843 0.0
C1124 C 0.47116 0.04337 0.49399 0.0
C1125 C 0.47123 0.04885 0.52456 0.0
C1126 C 0.48303 0.00857 0.50705 0.0
C1127 C 0.47644 0.03344 0.54579 0.0
C1128 C 0.49841 0.97352 0.52018 0.0
C1129 C 0.4984 0.96302 0.45965 0.0
N1130 N 0.48228 0.01406 0.53662 0.0
N1131 N 0.49118 0.98191 0.46891 0.0
H1132 H 0.21862 0.23237 0.82625 0.0
H1133 H 0.2837 0.2761 0.68626 0.0
H1134 H 0.19638 0.23086 0.73451 0.0
H1135 H 0.30761 0.27437 0.77713 0.0
H1136 H 0.25099 0.26102 0.704 0.0
H1137 H 0.25116 0.24806 0.80885 0.0
C1138 C 0.22067 0.23514 0.80238 0.0
C1139 C 0.20474 0.23032 0.78178 0.0
C1140 C 0.26333 0.26404 0.72011 0.0
C1141 C 0.24187 0.24858 0.76178 0.0
C1142 C 0.28199 0.27278 0.71004 0.0
C1143 C 0.29845 0.27644 0.73025 0.0
C1144 C 0.2611 0.25887 0.75064 0.0
C1145 C 0.29533 0.27183 0.76078 0.0
C1146 C 0.23923 0.2442 0.79249 0.0
C1147 C 0.20825 0.23427 0.75115 0.0
N1148 N 0.27704 0.26316 0.77003 0.0
N1149 N 0.22641 0.24329 0.74209 0.0
H1150 H 0.98008 0.05617 0.03416 0.0
H1151 H 0.01145 0.94217 0.97494 0.0
H1152 H 0.97938 0.03809 0.94053 0.0
H1153 H 0.00608 0.95797 0.0691 0.0
H1154 H 0.00075 0.97773 0.96195 0.0
H1155 H 0.98931 0.02025 0.0477 0.0
C1156 C 0.98153 0.04459 0.0165 0.0
C1157 C 0.97904 0.05016 0.98617 0.0
C1158 C 0.00197 0.97343 0.98547 0.0
C1159 C 0.98999 0.0092 0.00141 0.0
C1160 C 0.00825 0.95318 0.99288 0.0
C1161 C 0.00965 0.94709 0.02313 0.0
C1162 C 0.99711 0.9877 0.00848 0.0
C1163 C 0.00519 0.96198 0.04545 0.0
C1164 C 0.98695 0.02413 0.02421 0.0
C1165 C 0.98122 0.03453 0.96421 0.0
N1166 N -0.00092 0.98157 0.03768 0.0
N1167 N 0.98673 0.01483 0.97224 0.0
H1168 H 0.78027 0.71848 0.68665 0.0
H1169 H 0.7123 0.76701 0.8205 0.0
H1170 H 0.80344 0.72623 0.77725 0.0
H1171 H 0.69014 0.76105 0.7291 0.0
H1172 H 0.74625 0.7535 0.80474 0.0
H1173 H 0.74714 0.734 0.70196 0.0
C1174 C 0.77832 0.72322 0.70988 0.0
C1175 C 0.79467 0.72103 0.73072 0.0
C1176 C 0.73404 0.75533 0.78807 0.0
C1177 C 0.75681 0.73916 0.74829 0.0
C1178 C 0.71467 0.76319 0.797 0.0
C1179 C 0.69831 0.76507 0.77611 0.0
C1180 C 0.73704 0.74919 0.75805 0.0
C1181 C 0.7023 0.75987 0.74597 0.0
C1182 C 0.75942 0.73224 0.71855 0.0
C1183 C 0.79124 0.72754 0.76047 0.0
N1184 N 0.72121 0.75198 0.73791 0.0
N1185 N 0.77271 0.73639 0.76834 0.0
H1186 H 0.71562 0.26479 0.176 0.0
H1187 H 0.79266 0.22643 0.30659 0.0
H1188 H 0.69867 0.26281 0.27 0.0
H1189 H 0.81153 0.23353 0.21387 0.0
H1190 H 0.75713 0.23624 0.29261 0.0
H1191 H 0.75015 0.25125 0.18885 0.0
C1192 C 0.71921 0.26167 0.1994 0.0
C1193 C 0.70425 0.26501 0.222 0.0
C1194 C 0.76898 0.23546 0.27525 0.0
C1195 C 0.74369 0.24919 0.23678 0.0
C1196 C 0.78926 0.2297 0.28316 0.0
C1197 C 0.80515 0.22932 0.26138 0.0
C1198 C 0.76453 0.24095 0.24534 0.0
C1199 C 0.79979 0.23366 0.2314 0.0
C1200 C 0.73891 0.25383 0.20668 0.0
C1201 C 0.70976 0.26059 0.25189 0.0
N1202 N 0.77996 0.2395 0.2243 0.0
N1203 N 0.72903 0.25286 0.25841 0.0
H1204 H 0.69031 0.21897 0.77741 0.0
H1205 H 0.80135 0.26484 0.72644 0.0
H1206 H 0.70557 0.23553 0.68579 0.0
H1207 H 0.78649 0.24746 0.81788 0.0
H1208 H 0.76614 0.25442 0.71114 0.0
H1209 H 0.7257 0.22886 0.79266 0.0
C1210 C 0.70115 0.22451 0.76047 0.0
C1211 C 0.69498 0.22646 0.73031 0.0
C1212 C 0.77058 0.25293 0.73457 0.0
C1213 C 0.73536 0.238 0.7476 0.0
C1214 C 0.79064 0.25897 0.74332 0.0
C1215 C 0.79686 0.257 0.77346 0.0
C1216 C 0.75666 0.24488 0.75612 0.0
C1217 C 0.78237 0.24924 0.79438 0.0
C1218 C 0.72131 0.23024 0.76919 0.0
C1219 C 0.70964 0.23379 0.70932 0.0
N1220 N 0.76297 0.24342 0.7853 0.0
N1221 N 0.72911 0.23936 0.71838 0.0
H1222 H 0.78435 0.76875 0.19201 0.0
H1223 H 0.71016 0.7325 0.32696 0.0
H1224 H 0.80506 0.76426 0.2843 0.0
H1225 H 0.69094 0.73417 0.23382 0.0
H1226 H 0.74517 0.74339 0.31187 0.0
H1227 H 0.74984 0.75678 0.20732 0.0
C1228 C 0.78158 0.76547 0.2156 0.0
C1229 C 0.79764 0.76749 0.23693 0.0
C1230 C 0.73335 0.74121 0.2947 0.0
C1231 C 0.75815 0.75343 0.25454 0.0
C1232 C 0.71337 0.73486 0.30326 0.0
C1233 C 0.69756 0.73249 0.28161 0.0
C1234 C 0.73752 0.74534 0.26427 0.0
C1235 C 0.70263 0.73578 0.25127 0.0
C1236 C 0.76188 0.75848 0.22428 0.0
C1237 C 0.79312 0.76298 0.26713 0.0
N1238 N 0.72214 0.7422 0.24353 0.0
N1239 N 0.77379 0.75606 0.27503 0.0
H1240 H 0.47393 0.46158 0.07046 0.0
H1241 H 0.50653 0.5355 0.93324 0.0
H1242 H 0.4756 0.44093 0.97798 0.0
H1243 H 0.51286 0.55298 0.02665 0.0
H1244 H 0.49274 0.50166 0.94883 0.0
H1245 H 0.48465 0.49635 0.05423 0.0
C1246 C 0.47625 0.46442 0.04666 0.0
C1247 C 0.47399 0.44826 0.02555 0.0
C1248 C 0.49719 0.51286 0.96593 0.0
C1249 C 0.48656 0.48802 0.00688 0.0
C1250 C 0.50514 0.53218 0.95706 0.0
C1251 C 0.51092 0.54708 0.97871 0.0
C1252 C 0.49488 0.50843 0.99667 0.0
C1253 C 0.50871 0.54192 0.00922 0.0
C1254 C 0.48252 0.48426 0.03745 0.0
C1255 C 0.47719 0.4529 0.99503 0.0
N1256 N 0.5008 0.52303 0.0173 0.0
N1257 N 0.48347 0.47233 0.98663 0.0
H1258 H 0.98164 0.46814 0.43093 0.0
H1259 H 0.02985 0.52977 0.57119 0.0
H1260 H 0.98307 0.44362 0.52146 0.0
H1261 H 0.02341 0.55649 0.48241 0.0
H1262 H 0.01546 0.49702 0.55233 0.0
H1263 H -0.00167 0.50004 0.44885 0.0
C1264 C 0.98528 0.46954 0.45466 0.0
C1265 C 0.98093 0.4532 0.47476 0.0
C1266 C 0.01734 0.50998 0.53691 0.0
C1267 C 0.00036 0.48958 0.49532 0.0
C1268 C 0.02572 0.52866 0.5476 0.0
C1269 C 0.02772 0.54595 0.52837 0.0
C1270 C 0.01088 0.50858 0.50679 0.0
C1271 C 0.02212 0.54358 0.49804 0.0
C1272 C 0.99493 0.48773 0.46483 0.0
C1273 C 0.98605 0.45587 0.50522 0.0
N1274 N 0.01379 0.52528 0.48823 0.0
N1275 N 0.99559 0.47369 0.51455 0.0
H1276 H 0.0104 0.45927 0.93324 0.0
H1277 H 0.98411 0.53371 0.07275 0.0
H1278 H 0.01495 0.43978 0.02606 0.0
H1279 H 0.98025 0.55356 0.98003 0.0
H1280 H 0.99514 0.49916 0.05598 0.0
H1281 H 0.00014 0.49409 0.94994 0.0
C1282 C 0.00946 0.46237 0.95717 0.0
C1283 C 0.01349 0.44656 0.97831 0.0
C1284 C 0.99181 0.51102 0.03927 0.0
C1285 C 0.00145 0.48637 0.99756 0.0
C1286 C 0.9854 0.53075 0.04882 0.0
C1287 C 0.98126 0.54657 0.02773 0.0
C1288 C 0.99415 0.50704 0.0084 0.0
C1289 C 0.98323 0.54182 0.99704 0.0
C1290 C 0.00349 0.48225 0.96667 0.0
C1291 C 0.01202 0.4515 0.00899 0.0
N1292 N 0.98961 0.52249 0.9883 0.0
N1293 N 0.006 0.47095 0.01769 0.0
H1294 H 0.52378 0.43831 0.46872 0.0
H1295 H 0.4856 0.55104 0.5241 0.0
H1296 H 0.52806 0.45947 0.5608 0.0
H1297 H 0.48464 0.53111 0.43128 0.0
H1298 H 0.5021 0.51788 0.53785 0.0
H1299 H 0.51171 0.47307 0.45397 0.0
C1300 C 0.52261 0.45037 0.48574 0.0
C1301 C 0.52677 0.44591 0.51607 0.0
C1302 C 0.49827 0.52077 0.51447 0.0
C1303 C 0.51251 0.48559 0.49948 0.0
C1304 C 0.4887 0.53963 0.50666 0.0
C1305 C 0.48365 0.54382 0.47653 0.0
C1306 C 0.50278 0.50598 0.49199 0.0
C1307 C 0.4882 0.52853 0.45482 0.0
C1308 C 0.51553 0.47018 0.47735 0.0
C1309 C 0.5249 0.46216 0.53716 0.0
N1310 N 0.49748 0.51031 0.46297 0.0
N1311 N 0.51768 0.48119 0.52853 0.0
H1312 H 0.05036 0.30185 0.03709 0.0
H1313 H 0.04905 0.29396 0.21343 0.0
H1314 H 0.02678 0.3531 0.09025 0.0
H1315 H 0.10325 0.27345 0.1638 0.0
H1316 H 0.03567 0.31082 0.16778 0.0
H1317 H 0.06509 0.28619 0.0828 0.0
C1318 C 0.04818 0.30973 0.05844 0.0
C1319 C 0.03728 0.32875 0.06 0.0
C1320 C 0.05047 0.30263 0.16696 0.0
C1321 C 0.0538 0.31078 0.11216 0.0
C1322 C 0.05805 0.29287 0.19284 0.0
C1323 C 0.07725 0.28224 0.19228 0.0
C1324 C 0.06188 0.30124 0.14014 0.0
C1325 C 0.08839 0.2815 0.16512 0.0
C1326 C 0.05671 0.30087 0.08437 0.0
C1327 C 0.03509 0.33843 0.08814 0.0
N1328 N 0.08041 0.29068 0.13994 0.0
N1329 N 0.04306 0.32918 0.11327 0.0
H1330 H 0.88509 0.81264 0.31779 0.0
H1331 H 0.97636 0.81054 0.43989 0.0
H1332 H 0.94064 0.77491 0.30836 0.0
H1333 H 0.93409 0.86278 0.43152 0.0
H1334 H 0.96168 0.79557 0.39395 0.0
H1335 H 0.90066 0.8293 0.36228 0.0
C1336 C 0.90048 0.80777 0.32517 0.0
C1337 C 0.91157 0.79233 0.30938 0.0
C1338 C 0.95572 0.8104 0.40199 0.0
C1339 C 0.9294 0.81127 0.36011 0.0
C1340 C 0.9641 0.81896 0.42822 0.0
C1341 C 0.95647 0.83796 0.43951 0.0
C1342 C 0.93928 0.82068 0.38716 0.0
C1343 C 0.94053 0.84817 0.42346 0.0
C1344 C 0.9094 0.81739 0.35039 0.0
C1345 C 0.93153 0.78675 0.3198 0.0
N1346 N 0.93229 0.83929 0.39824 0.0
N1347 N 0.93974 0.79612 0.34456 0.0
H1348 H 0.43046 0.73577 0.6773 0.0
H1349 H 0.43132 0.63297 0.57601 0.0
H1350 H 0.38426 0.68723 0.68765 0.0
H1351 H 0.45664 0.69179 0.54573 0.0
H1352 H 0.41767 0.6506 0.62107 0.0
H1353 H 0.44368 0.71804 0.63239 0.0
C1354 C 0.42301 0.72144 0.67001 0.0
C1355 C 0.40617 0.71301 0.68615 0.0
C1356 C 0.42625 0.65958 0.60453 0.0
C1357 C 0.42151 0.69242 0.63513 0.0
C1358 C 0.43418 0.64952 0.57898 0.0
C1359 C 0.44512 0.66094 0.55711 0.0
C1360 C 0.42965 0.68111 0.60843 0.0
C1361 C 0.44823 0.6824 0.56197 0.0
C1362 C 0.43057 0.71133 0.64439 0.0
C1363 C 0.39716 0.69435 0.67572 0.0
N1364 N 0.44063 0.69175 0.58714 0.0
N1365 N 0.40507 0.68456 0.651 0.0
H1366 H 0.54885 0.20198 0.80501 0.0
H1367 H 0.56015 0.12202 0.94137 0.0
H1368 H 0.60812 0.17365 0.82708 0.0
H1369 H 0.51549 0.17256 0.94138 0.0
H1370 H 0.57528 0.13605 0.89465 0.0
H1371 H 0.53382 0.18683 0.85061 0.0
C1372 C 0.55872 0.19258 0.8195 0.0
C1373 C 0.5798 0.18914 0.81234 0.0
C1374 C 0.56211 0.14395 0.9049 0.0
C1375 C 0.56255 0.17145 0.86429 0.0
C1376 C 0.55337 0.13588 0.93133 0.0
C1377 C 0.53654 0.14615 0.94521 0.0
C1378 C 0.55367 0.16215 0.89203 0.0
C1379 C 0.52848 0.16418 0.93146 0.0
C1380 C 0.55012 0.18397 0.84552 0.0
C1381 C 0.59185 0.17682 0.83194 0.0
N1382 N 0.53704 0.17154 0.90557 0.0
N1383 N 0.58301 0.16825 0.85696 0.0
H1384 H 0.06622 0.62705 0.44164 0.0
H1385 H 0.05265 0.7109 0.31056 0.0
H1386 H 0.02104 0.67704 0.44585 0.0
H1387 H 0.11231 0.68235 0.32964 0.0
H1388 H 0.03815 0.69423 0.35543 0.0
H1389 H 0.08046 0.64246 0.39528 0.0
C1390 C 0.0591 0.64106 0.43256 0.0
C1391 C 0.04242 0.6508 0.44756 0.0
C1392 C 0.05442 0.69165 0.34984 0.0
C1393 C 0.05857 0.66839 0.3948 0.0
C1394 C 0.06272 0.70114 0.32425 0.0
C1395 C 0.08375 0.69808 0.31647 0.0
C1396 C 0.06711 0.67863 0.36751 0.0
C1397 C 0.09607 0.68525 0.33501 0.0
C1398 C 0.06735 0.64993 0.40634 0.0
C1399 C 0.03393 0.66906 0.43503 0.0
N1400 N 0.08751 0.67584 0.3596 0.0
N1401 N 0.04204 0.67722 0.40933 0.0
H1402 H 0.57042 0.75984 0.68072 0.0
H1403 H 0.56653 0.8612 0.5782 0.0
H1404 H 0.61734 0.80789 0.68854 0.0
H1405 H 0.54531 0.80111 0.54656 0.0
H1406 H 0.58154 0.84399 0.62283 0.0
H1407 H 0.55746 0.77658 0.63481 0.0
C1408 C 0.57811 0.77382 0.67259 0.0
C1409 C 0.59504 0.78244 0.68831 0.0
C1410 C 0.5736 0.83464 0.60602 0.0
C1411 C 0.57994 0.80196 0.63633 0.0
C1412 C 0.56491 0.84444 0.58075 0.0
C1413 C 0.55466 0.83255 0.5587 0.0
C1414 C 0.57157 0.81292 0.60949 0.0
C1415 C 0.55313 0.81086 0.56297 0.0
C1416 C 0.5707 0.78336 0.64644 0.0
C1417 C 0.60438 0.80063 0.67687 0.0
N1418 N 0.56134 0.80178 0.58795 0.0
N1419 N 0.59653 0.80998 0.65173 0.0
H1420 H 0.44332 0.2876 0.79881 0.0
H1421 H 0.43772 0.36911 0.93421 0.0
H1422 H 0.38683 0.32141 0.81992 0.0
H1423 H 0.47989 0.31646 0.934 0.0
H1424 H 0.42168 0.35578 0.88776 0.0
H1425 H 0.45951 0.30157 0.84442 0.0
C1426 C 0.43428 0.29789 0.81314 0.0
C1427 C 0.41366 0.30328 0.80565 0.0
C1428 C 0.43451 0.34725 0.89788 0.0
C1429 C 0.43227 0.31966 0.85755 0.0
C1430 C 0.44379 0.35493 0.92417 0.0
C1431 C 0.46016 0.34387 0.93795 0.0
C1432 C 0.44192 0.3286 0.88505 0.0
C1433 C 0.46728 0.32546 0.92416 0.0
C1434 C 0.44354 0.30586 0.83915 0.0
C1435 C 0.40271 0.31672 0.82502 0.0
N1436 N 0.45817 0.31844 0.89844 0.0
N1437 N 0.41221 0.32462 0.84999 0.0
H1438 H 0.94323 0.24038 0.18067 0.0
H1439 H 0.94282 0.14147 0.07045 0.0
H1440 H 0.89298 0.19546 0.17933 0.0
H1441 H 0.98373 0.19454 0.05984 0.0
H1442 H 0.92577 0.15932 0.11277 0.0
H1443 H 0.9594 0.22241 0.13825 0.0
C1444 C 0.93551 0.22679 0.17131 0.0
C1445 C 0.91669 0.21944 0.18356 0.0
C1446 C 0.9385 0.16701 0.10116 0.0
C1447 C 0.93533 0.19855 0.13507 0.0
C1448 C 0.94832 0.15678 0.07715 0.0
C1449 C 0.96474 0.16652 0.06158 0.0
C1450 C 0.94528 0.18702 0.1098 0.0
C1451 C 0.97113 0.18643 0.07112 0.0
C1452 C 0.94477 0.21651 0.14707 0.0
C1453 C 0.90743 0.20173 0.17048 0.0
N1454 N 0.96143 0.19597 0.09458 0.0
N1455 N 0.91692 0.19179 0.14705 0.0
H1456 H 0.93409 0.63028 0.93693 0.0
H1457 H 0.93258 0.71959 0.81258 0.0
H1458 H 0.96755 0.68829 0.94789 0.0
H1459 H 0.88022 0.67812 0.82531 0.0
H1460 H 0.94848 0.70577 0.85857 0.0
H1461 H 0.91733 0.64462 0.89161 0.0
C1462 C 0.93809 0.64592 0.92961 0.0
C1463 C 0.95225 0.65811 0.94614 0.0
C1464 C 0.93344 0.69981 0.85142 0.0
C1465 C 0.93321 0.67452 0.89453 0.0
C1466 C 0.92435 0.70769 0.82522 0.0
C1467 C 0.90501 0.70005 0.81523 0.0
C1468 C 0.92337 0.6838 0.8674 0.0
C1469 C 0.89505 0.68457 0.83241 0.0
C1470 C 0.92838 0.65414 0.90397 0.0
C1471 C 0.9567 0.67837 0.93583 0.0
N1472 N 0.90447 0.67676 0.85752 0.0
N1473 N 0.94731 0.68589 0.91062 0.0
H1474 H 0.06389 0.18209 0.72129 0.0
H1475 H 0.07407 0.18006 0.54353 0.0
H1476 H 0.11975 0.20329 0.67633 0.0
H1477 H 0.03675 0.13496 0.59163 0.0
H1478 H 0.08837 0.19236 0.59147 0.0
H1479 H 0.05091 0.1684 0.67341 0.0
C1480 C 0.0734 0.18395 0.7013 0.0
C1481 C 0.09292 0.19391 0.70276 0.0
C1482 C 0.07712 0.17972 0.59149 0.0
C1483 C 0.07805 0.17838 0.6479 0.0
C1484 C 0.06887 0.17275 0.5642 0.0
C1485 C 0.05416 0.15648 0.56363 0.0
C1486 C 0.07029 0.17067 0.61849 0.0
C1487 C 0.04808 0.1475 0.59107 0.0
C1488 C 0.06602 0.17601 0.67405 0.0
C1489 C 0.10463 0.19572 0.67619 0.0
N1490 N 0.05602 0.15486 0.61745 0.0
N1491 N 0.09693 0.18819 0.64975 0.0
H1492 H 0.56355 0.36193 0.43709 0.0
H1493 H 0.55709 0.28049 0.3015 0.0
H1494 H 0.51671 0.3136 0.43159 0.0
H1495 H 0.61444 0.31199 0.32485 0.0
H1496 H 0.54058 0.29526 0.34625 0.0
H1497 H 0.5808 0.34699 0.39264 0.0
C1498 C 0.55679 0.34832 0.42639 0.0
C1499 C 0.53865 0.33901 0.43804 0.0
C1500 C 0.55681 0.29886 0.34172 0.0
C1501 C 0.55828 0.32189 0.38735 0.0
C1502 C 0.56626 0.29043 0.31617 0.0
C1503 C 0.5872 0.29497 0.30948 0.0
C1504 C 0.56824 0.31225 0.36055 0.0
C1505 C 0.59831 0.30797 0.32929 0.0
C1506 C 0.56673 0.33972 0.4012 0.0
C1507 C 0.53067 0.32128 0.42342 0.0
N1508 N 0.58864 0.31632 0.35383 0.0
N1509 N 0.54048 0.31336 0.39881 0.0
H1510 H 0.45734 0.79668 0.0471 0.0
H1511 H 0.38195 0.80183 0.18971 0.0
H1512 H 0.42921 0.85443 0.07668 0.0
H1513 H 0.42969 0.75473 0.17919 0.0
H1514 H 0.39522 0.81951 0.14453 0.0
H1515 H 0.44386 0.77938 0.09211 0.0
C1516 C 0.44839 0.80575 0.06316 0.0
C1517 C 0.44444 0.82705 0.05819 0.0
C1518 C 0.40272 0.80527 0.15213 0.0
C1519 C 0.42865 0.80722 0.10953 0.0
C1520 C 0.39506 0.79509 0.17772 0.0
C1521 C 0.40473 0.77677 0.1882 0.0
C1522 C 0.41993 0.79688 0.13667 0.0
C1523 C 0.42179 0.76883 0.17195 0.0
C1524 C 0.44072 0.79586 0.08884 0.0
C1525 C 0.43274 0.83802 0.07977 0.0
N1526 N 0.42878 0.77887 0.14695 0.0
N1527 N 0.42508 0.82793 0.10441 0.0
H1528 H 0.92481 0.37095 0.5644 0.0
H1529 H 0.93663 0.28496 0.69136 0.0
H1530 H 0.96036 0.31453 0.55003 0.0
H1531 H 0.87778 0.31663 0.67826 0.0
H1532 H 0.9495 0.30031 0.64442 0.0
H1533 H 0.91128 0.35601 0.61165 0.0
C1534 C 0.92993 0.35555 0.57137 0.0
C1535 C 0.94371 0.34392 0.55338 0.0
C1536 C 0.93376 0.30384 0.65181 0.0
C1537 C 0.92855 0.32699 0.60712 0.0
C1538 C 0.92641 0.29514 0.67855 0.0
C1539 C 0.90607 0.29946 0.68855 0.0
C1540 C 0.92089 0.31742 0.63535 0.0
C1541 C 0.89349 0.31276 0.67112 0.0
C1542 C 0.92209 0.34701 0.59809 0.0
C1543 C 0.94971 0.32397 0.56322 0.0
N1544 N 0.90118 0.3215 0.64544 0.0
N1545 N 0.94224 0.3162 0.58955 0.0
H1546 H 0.37937 0.20856 0.33074 0.0
H1547 H 0.45695 0.1305 0.41293 0.0
H1548 H 0.42916 0.17809 0.28214 0.0
H1549 H 0.43774 0.18808 0.4552 0.0
H1550 H 0.44095 0.14257 0.36558 0.0
H1551 H 0.39477 0.19595 0.37823 0.0
C1552 C 0.39347 0.19918 0.33009 0.0
C1553 C 0.40313 0.19448 0.30259 0.0
C1554 C 0.44029 0.15248 0.38531 0.0
C1555 C 0.42038 0.17969 0.35635 0.0
C1556 C 0.44935 0.14562 0.41223 0.0
C1557 C 0.4488 0.1584 0.43785 0.0
C1558 C 0.43012 0.17194 0.38439 0.0
C1559 C 0.4387 0.17786 0.43583 0.0
C1560 C 0.40224 0.19207 0.35707 0.0
C1561 C 0.42136 0.18224 0.30292 0.0
N1562 N 0.42958 0.18396 0.40963 0.0
N1563 N 0.42931 0.1751 0.32936 0.0
H1564 H 0.5432 0.6957 0.04751 0.0
H1565 H 0.61822 0.69014 0.19023 0.0
H1566 H 0.56887 0.63713 0.07836 0.0
H1567 H 0.56829 0.73517 0.18256 0.0
H1568 H 0.60551 0.67301 0.14414 0.0
H1569 H 0.55722 0.71283 0.09236 0.0
C1570 C 0.55178 0.68643 0.06376 0.0
C1571 C 0.5548 0.66493 0.0593 0.0
C1572 C 0.59746 0.68671 0.15255 0.0
C1573 C 0.57123 0.68456 0.11036 0.0
C1574 C 0.6048 0.69659 0.1786 0.0
C1575 C 0.59428 0.7141 0.19016 0.0
C1576 C 0.57979 0.6947 0.1377 0.0
C1577 C 0.57683 0.72169 0.17444 0.0
C1578 C 0.55975 0.69622 0.08934 0.0
C1579 C 0.56605 0.6537 0.0811 0.0
N1580 N 0.57019 0.71201 0.14895 0.0
N1581 N 0.57404 0.66368 0.10564 0.0
H1582 H 0.06638 0.77708 0.80504 0.0
H1583 H 0.0636 0.86343 0.9339 0.0
H1584 H 0.11879 0.8179 0.82134 0.0
H1585 H 0.02684 0.80697 0.93715 0.0
H1586 H 0.08199 0.84961 0.88956 0.0
H1587 H 0.04975 0.79015 0.85079 0.0
C1588 C 0.07446 0.7887 0.8184 0.0
C1589 C 0.09402 0.79638 0.80944 0.0
C1590 C 0.06991 0.84029 0.90008 0.0
C1591 C 0.07486 0.81174 0.86157 0.0
C1592 C 0.05932 0.84821 0.9252 0.0
C1593 C 0.04364 0.83634 0.9392 0.0
C1594 C 0.06451 0.82055 0.88864 0.0
C1595 C 0.03883 0.81665 0.92712 0.0
C1596 C 0.06496 0.79615 0.84452 0.0
C1597 C 0.10377 0.81146 0.8276 0.0
N1598 N 0.04912 0.80945 0.90248 0.0
N1599 N 0.09398 0.81884 0.85268 0.0
loop_
_geom_bond_atom_site_label_1
_geom_bond_atom_site_label_2
_geom_bond_distance
_geom_bond_site_symmetry_2
_ccdc_geom_bond_type
O0 Cd1 2.223 . S
O0 C8 1.315 . S
Cd1 O0 2.223 . S
Cd1 O4 2.297 . S
Cd1 O5 2.439 . S
Cd1 O11 2.240 . S
Cd2 O3 2.240 . S
Cd2 O10 2.223 . S
Cd2 O12 2.297 . S
Cd2 O13 2.439 . S
O3 Cd2 2.240 . S
O3 C8 1.279 . S
O4 Cd1 2.297 . S
O4 C6 1.247 . S
O5 Cd1 2.439 . S
O5 C6 1.208 . S
C6 O4 1.247 . S
C6 O5 1.208 . S
C7 O12 1.247 . S
C7 O13 1.208 . S
C8 O0 1.315 . S
C8 O3 1.279 . S
C9 O10 1.315 . S
C9 O11 1.279 . S
O10 Cd2 2.223 . S
O10 C9 1.315 . S
O11 Cd1 2.240 . S
O11 C9 1.279 . S
O12 Cd2 2.297 . S
O12 C7 1.247 . S
O13 Cd2 2.439 . S
O13 C7 1.208 . S
O14 Cd15 2.223 . S
O14 C22 1.315 . S
Cd15 O14 2.223 . S
Cd15 O18 2.297 . S
Cd15 O19 2.439 . S
Cd15 O25 2.240 . S
Cd16 O17 2.240 . S
Cd16 O24 2.223 . S
Cd16 O26 2.297 . S
Cd16 O27 2.439 . S
O17 Cd16 2.240 . S
O17 C22 1.279 . S
O18 Cd15 2.297 . S
O18 C20 1.247 . S
O19 Cd15 2.439 . S
O19 C20 1.208 . S
C20 O18 1.247 . S
C20 O19 1.208 . S
C21 O26 1.247 . S
C21 O27 1.208 . S
C22 O14 1.315 . S
C22 O17 1.279 . S
C23 O24 1.315 . S
C23 O25 1.279 . S
O24 Cd16 2.223 . S
O24 C23 1.315 . S
O25 Cd15 2.240 . S
O25 C23 1.279 . S
O26 Cd16 2.297 . S
O26 C21 1.247 . S
O27 Cd16 2.439 . S
O27 C21 1.208 . S
O28 Cd29 2.223 . S
O28 C36 1.315 . S
Cd29 O28 2.223 . S
Cd29 O32 2.297 . S
Cd29 O33 2.439 . S
Cd29 O39 2.240 . S
Cd30 O31 2.240 . S
Cd30 O38 2.223 . S
Cd30 O40 2.297 . S
Cd30 O41 2.439 . S
O31 Cd30 2.240 . S
O31 C36 1.279 . S
O32 Cd29 2.297 . S
O32 C34 1.247 . S
O33 Cd29 2.439 . S
O33 C34 1.208 . S
C34 O32 1.247 . S
C34 O33 1.208 . S
C35 O40 1.247 . S
C35 O41 1.208 . S
C36 O28 1.315 . S
C36 O31 1.279 . S
C37 O38 1.315 . S
C37 O39 1.279 . S
O38 Cd30 2.223 . S
O38 C37 1.315 . S
O39 Cd29 2.240 . S
O39 C37 1.279 . S
O40 Cd30 2.297 . S
O40 C35 1.247 . S
O41 Cd30 2.439 . S
O41 C35 1.208 . S
O42 Cd43 2.223 . S
O42 C50 1.315 . S
Cd43 O42 2.223 . S
Cd43 O46 2.297 . S
Cd43 O47 2.439 . S
Cd43 O53 2.240 . S
Cd44 O45 2.240 . S
Cd44 O52 2.223 . S
Cd44 O54 2.297 1_554 S
Cd44 O55 2.439 1_554 S
O45 Cd44 2.240 . S
O45 C50 1.279 . S
O46 Cd43 2.297 . S
O46 C48 1.247 . S
O47 Cd43 2.439 . S
O47 C48 1.208 . S
C48 O46 1.247 . S
C48 O47 1.208 . S
C49 O54 1.247 . S
C49 O55 1.208 . S
C50 O42 1.315 . S
C50 O45 1.279 . S
C51 O52 1.315 . S
C51 O53 1.279 . S
O52 Cd44 2.223 . S
O52 C51 1.315 . S
O53 Cd43 2.240 . S
O53 C51 1.279 . S
O54 Cd44 2.297 1_556 S
O54 C49 1.247 . S
O55 Cd44 2.439 1_556 S
O55 C49 1.208 . S
O56 Cd57 2.223 . S
O56 C64 1.315 . S
Cd57 O56 2.223 . S
Cd57 O60 2.297 . S
Cd57 O61 2.439 . S
Cd57 O67 2.240 . S
Cd58 O59 2.240 . S
Cd58 O66 2.223 . S
Cd58 O68 2.297 . S
Cd58 O69 2.439 . S
O59 Cd58 2.240 . S
O59 C64 1.279 . S
O60 Cd57 2.297 . S
O60 C62 1.247 . S
O61 Cd57 2.439 . S
O61 C62 1.208 . S
C62 O60 1.247 . S
C62 O61 1.208 . S
C63 O68 1.247 . S
C63 O69 1.208 . S
C64 O56 1.315 . S
C64 O59 1.279 . S
C65 O66 1.315 . S
C65 O67 1.279 . S
O66 Cd58 2.223 . S
O66 C65 1.315 . S
O67 Cd57 2.240 . S
O67 C65 1.279 . S
O68 Cd58 2.297 . S
O68 C63 1.247 . S
O69 Cd58 2.439 . S
O69 C63 1.208 . S
O70 Cd71 2.223 . S
O70 C78 1.315 . S
Cd71 O70 2.223 . S
Cd71 O74 2.297 . S
Cd71 O75 2.439 . S
Cd71 O81 2.240 . S
Cd72 O73 2.240 . S
Cd72 O80 2.223 . S
Cd72 O82 2.297 . S
Cd72 O83 2.439 . S
O73 Cd72 2.240 . S
O73 C78 1.279 . S
O74 Cd71 2.297 . S
O74 C76 1.247 . S
O75 Cd71 2.439 . S
O75 C76 1.208 . S
C76 O74 1.247 . S
C76 O75 1.208 . S
C77 O82 1.247 . S
C77 O83 1.208 . S
C78 O70 1.315 . S
C78 O73 1.279 . S
C79 O80 1.315 . S
C79 O81 1.279 . S
O80 Cd72 2.223 . S
O80 C79 1.315 . S
O81 Cd71 2.240 . S
O81 C79 1.279 . S
O82 Cd72 2.297 . S
O82 C77 1.247 . S
O83 Cd72 2.439 . S
O83 C77 1.208 . S
O84 Cd85 2.223 . S
O84 C92 1.315 . S
Cd85 O84 2.223 . S
Cd85 O88 2.297 . S
Cd85 O89 2.439 . S
Cd85 O95 2.240 . S
Cd86 O87 2.240 . S
Cd86 O94 2.223 . S
Cd86 O96 2.297 . S
Cd86 O97 2.439 . S
O87 Cd86 2.240 . S
O87 C92 1.279 . S
O88 Cd85 2.297 . S
O88 C90 1.247 . S
O89 Cd85 2.439 . S
O89 C90 1.208 . S
C90 O88 1.247 . S
C90 O89 1.208 . S
C91 O96 1.247 . S
C91 O97 1.208 . S
C92 O84 1.315 . S
C92 O87 1.279 . S
C93 O94 1.315 . S
C93 O95 1.279 . S
O94 Cd86 2.223 . S
O94 C93 1.315 . S
O95 Cd85 2.240 . S
O95 C93 1.279 . S
O96 Cd86 2.297 . S
O96 C91 1.247 . S
O97 Cd86 2.439 . S
O97 C91 1.208 . S
O98 Cd99 2.223 . S
O98 C106 1.315 . S
Cd99 O98 2.223 . S
Cd99 O102 2.297 . S
Cd99 O103 2.439 . S
Cd99 O109 2.240 . S
Cd100 O101 2.240 . S
Cd100 O108 2.223 . S
Cd100 O110 2.297 1_556 S
Cd100 O111 2.439 1_556 S
O101 Cd100 2.240 . S
O101 C106 1.279 . S
O102 Cd99 2.297 . S
O102 C104 1.247 . S
O103 Cd99 2.439 . S
O103 C104 1.208 . S
C104 O102 1.247 . S
C104 O103 1.208 . S
C105 O110 1.247 . S
C105 O111 1.208 . S
C106 O98 1.315 . S
C106 O101 1.279 . S
C107 O108 1.315 . S
C107 O109 1.279 . S
O108 Cd100 2.223 . S
O108 C107 1.315 . S
O109 Cd99 2.240 . S
O109 C107 1.279 . S
O110 Cd100 2.297 1_554 S
O110 C105 1.247 . S
O111 Cd100 2.439 1_554 S
O111 C105 1.208 . S
O112 Cd113 2.223 . S
O112 C120 1.315 . S
Cd113 O112 2.223 . S
Cd113 O116 2.297 . S
Cd113 O117 2.439 . S
Cd113 O123 2.240 . S
Cd114 O115 2.240 . S
Cd114 O122 2.223 . S
Cd114 O124 2.297 . S
Cd114 O125 2.439 . S
O115 Cd114 2.240 . S
O115 C120 1.279 . S
O116 Cd113 2.297 . S
O116 C118 1.247 . S
O117 Cd113 2.439 . S
O117 C118 1.208 . S
C118 O116 1.247 . S
C118 O117 1.208 . S
C119 O124 1.247 . S
C119 O125 1.208 . S
C120 O112 1.315 . S
C120 O115 1.279 . S
C121 O122 1.315 . S
C121 O123 1.279 . S
O122 Cd114 2.223 . S
O122 C121 1.315 . S
O123 Cd113 2.240 . S
O123 C121 1.279 . S
O124 Cd114 2.297 . S
O124 C119 1.247 . S
O125 Cd114 2.439 . S
O125 C119 1.208 . S
O126 Cd127 2.223 . S
O126 C134 1.315 . S
Cd127 O126 2.223 . S
Cd127 O130 2.297 . S
Cd127 O131 2.439 . S
Cd127 O137 2.240 . S
Cd128 O129 2.240 . S
Cd128 O136 2.223 . S
Cd128 O138 2.297 . S
Cd128 O139 2.439 . S
O129 Cd128 2.240 . S
O129 C134 1.279 . S
O130 Cd127 2.297 . S
O130 C132 1.247 . S
O131 Cd127 2.439 . S
O131 C132 1.208 . S
C132 O130 1.247 . S
C132 O131 1.208 . S
C133 O138 1.247 . S
C133 O139 1.208 . S
C134 O126 1.315 . S
C134 O129 1.279 . S
C135 O136 1.315 . S
C135 O137 1.279 . S
O136 Cd128 2.223 . S
O136 C135 1.315 . S
O137 Cd127 2.240 . S
O137 C135 1.279 . S
O138 Cd128 2.297 . S
O138 C133 1.247 . S
O139 Cd128 2.439 . S
O139 C133 1.208 . S
O140 Cd141 2.223 . S
O140 C148 1.315 . S
Cd141 O140 2.223 . S
Cd141 O144 2.297 . S
Cd141 O145 2.439 . S
Cd141 O151 2.240 . S
Cd142 O143 2.240 . S
Cd142 O150 2.223 . S
Cd142 O152 2.297 . S
Cd142 O153 2.439 . S
O143 Cd142 2.240 . S
O143 C148 1.279 . S
O144 Cd141 2.297 . S
O144 C146 1.247 . S
O145 Cd141 2.439 . S
O145 C146 1.208 . S
C146 O144 1.247 . S
C146 O145 1.208 . S
C147 O152 1.247 . S
C147 O153 1.208 . S
C148 O140 1.315 . S
C148 O143 1.279 . S
C149 O150 1.315 . S
C149 O151 1.279 . S
O150 Cd142 2.223 . S
O150 C149 1.315 . S
O151 Cd141 2.240 . S
O151 C149 1.279 . S
O152 Cd142 2.297 . S
O152 C147 1.247 . S
O153 Cd142 2.439 . S
O153 C147 1.208 . S
O154 Cd155 2.223 . S
O154 C162 1.315 . S
Cd155 O154 2.223 . S
Cd155 O158 2.297 . S
Cd155 O159 2.439 . S
Cd155 O165 2.240 . S
Cd156 O157 2.240 . S
Cd156 O164 2.223 . S
Cd156 O166 2.297 1_556 S
Cd156 O167 2.439 1_556 S
O157 Cd156 2.240 . S
O157 C162 1.279 . S
O158 Cd155 2.297 . S
O158 C160 1.247 . S
O159 Cd155 2.439 . S
O159 C160 1.208 . S
C160 O158 1.247 . S
C160 O159 1.208 . S
C161 O166 1.247 . S
C161 O167 1.208 . S
C162 O154 1.315 . S
C162 O157 1.279 . S
C163 O164 1.315 . S
C163 O165 1.279 . S
O164 Cd156 2.223 . S
O164 C163 1.315 . S
O165 Cd155 2.240 . S
O165 C163 1.279 . S
O166 Cd156 2.297 1_554 S
O166 C161 1.247 . S
O167 Cd156 2.439 1_554 S
O167 C161 1.208 . S
O168 Cd169 2.223 . S
O168 C176 1.315 . S
Cd169 O168 2.223 . S
Cd169 O172 2.297 . S
Cd169 O173 2.439 . S
Cd169 O179 2.240 . S
Cd170 O171 2.240 . S
Cd170 O178 2.223 . S
Cd170 O180 2.297 . S
Cd170 O181 2.439 . S
O171 Cd170 2.240 . S
O171 C176 1.279 . S
O172 Cd169 2.297 . S
O172 C174 1.247 . S
O173 Cd169 2.439 . S
O173 C174 1.208 . S
C174 O172 1.247 . S
C174 O173 1.208 . S
C175 O180 1.247 . S
C175 O181 1.208 . S
C176 O168 1.315 . S
C176 O171 1.279 . S
C177 O178 1.315 . S
C177 O179 1.279 . S
O178 Cd170 2.223 . S
O178 C177 1.315 . S
O179 Cd169 2.240 . S
O179 C177 1.279 . S
O180 Cd170 2.297 . S
O180 C175 1.247 . S
O181 Cd170 2.439 . S
O181 C175 1.208 . S
O182 Cd183 2.223 . S
O182 C190 1.315 . S
Cd183 O182 2.223 . S
Cd183 O186 2.297 . S
Cd183 O187 2.439 . S
Cd183 O193 2.240 . S
Cd184 O185 2.240 . S
Cd184 O192 2.223 . S
Cd184 O194 2.297 . S
Cd184 O195 2.439 . S
O185 Cd184 2.240 . S
O185 C190 1.279 . S
O186 Cd183 2.297 . S
O186 C188 1.247 . S
O187 Cd183 2.439 . S
O187 C188 1.208 . S
C188 O186 1.247 . S
C188 O187 1.208 . S
C189 O194 1.247 . S
C189 O195 1.208 . S
C190 O182 1.315 . S
C190 O185 1.279 . S
C191 O192 1.315 . S
C191 O193 1.279 . S
O192 Cd184 2.223 . S
O192 C191 1.315 . S
O193 Cd183 2.240 . S
O193 C191 1.279 . S
O194 Cd184 2.297 . S
O194 C189 1.247 . S
O195 Cd184 2.439 . S
O195 C189 1.208 . S
O196 Cd197 2.223 . S
O196 C204 1.315 . S
Cd197 O196 2.223 . S
Cd197 O200 2.297 . S
Cd197 O201 2.439 . S
Cd197 O207 2.240 . S
Cd198 O199 2.240 . S
Cd198 O206 2.223 . S
Cd198 O208 2.297 . S
Cd198 O209 2.439 . S
O199 Cd198 2.240 . S
O199 C204 1.279 . S
O200 Cd197 2.297 . S
O200 C202 1.247 . S
O201 Cd197 2.439 . S
O201 C202 1.208 . S
C202 O200 1.247 . S
C202 O201 1.208 . S
C203 O208 1.247 . S
C203 O209 1.208 . S
C204 O196 1.315 . S
C204 O199 1.279 . S
C205 O206 1.315 . S
C205 O207 1.279 . S
O206 Cd198 2.223 . S
O206 C205 1.315 . S
O207 Cd197 2.240 . S
O207 C205 1.279 . S
O208 Cd198 2.297 . S
O208 C203 1.247 . S
O209 Cd198 2.439 . S
O209 C203 1.208 . S
O210 Cd211 2.223 . S
O210 C218 1.315 . S
Cd211 O210 2.223 . S
Cd211 O214 2.297 . S
Cd211 O215 2.439 . S
Cd211 O221 2.240 . S
Cd212 O213 2.240 . S
Cd212 O220 2.223 . S
Cd212 O222 2.297 1_554 S
Cd212 O223 2.439 1_554 S
O213 Cd212 2.240 . S
O213 C218 1.279 . S
O214 Cd211 2.297 . S
O214 C216 1.247 . S
O215 Cd211 2.439 . S
O215 C216 1.208 . S
C216 O214 1.247 . S
C216 O215 1.208 . S
C217 O222 1.247 . S
C217 O223 1.208 . S
C218 O210 1.315 . S
C218 O213 1.279 . S
C219 O220 1.315 . S
C219 O221 1.279 . S
O220 Cd212 2.223 . S
O220 C219 1.315 . S
O221 Cd211 2.240 . S
O221 C219 1.279 . S
O222 Cd212 2.297 1_556 S
O222 C217 1.247 . S
O223 Cd212 2.439 1_556 S
O223 C217 1.208 . S
O224 Cd225 2.223 . S
O224 C232 1.315 . S
Cd225 O224 2.223 . S
Cd225 O228 2.297 . S
Cd225 O229 2.439 . S
Cd225 O235 2.240 . S
Cd226 O227 2.240 . S
Cd226 O234 2.223 . S
Cd226 O236 2.297 . S
Cd226 O237 2.439 . S
O227 Cd226 2.240 . S
O227 C232 1.279 . S
O228 Cd225 2.297 . S
O228 C230 1.247 . S
O229 Cd225 2.439 . S
O229 C230 1.208 . S
C230 O228 1.247 . S
C230 O229 1.208 . S
C231 O236 1.247 . S
C231 O237 1.208 . S
C232 O224 1.315 . S
C232 O227 1.279 . S
C233 O234 1.315 . S
C233 O235 1.279 . S
O234 Cd226 2.223 . S
O234 C233 1.315 . S
O235 Cd225 2.240 . S
O235 C233 1.279 . S
O236 Cd226 2.297 . S
O236 C231 1.247 . S
O237 Cd226 2.439 . S
O237 C231 1.208 . S
O238 Cd239 2.223 . S
O238 C246 1.315 . S
Cd239 O238 2.223 . S
Cd239 O242 2.297 . S
Cd239 O243 2.439 . S
Cd239 O249 2.240 . S
Cd240 O241 2.240 . S
Cd240 O248 2.223 . S
Cd240 O250 2.297 1_554 S
Cd240 O251 2.439 1_554 S
O241 Cd240 2.240 . S
O241 C246 1.279 . S
O242 Cd239 2.297 . S
O242 C244 1.247 . S
O243 Cd239 2.439 . S
O243 C244 1.208 . S
C244 O242 1.247 . S
C244 O243 1.208 . S
C245 O250 1.247 . S
C245 O251 1.208 . S
C246 O238 1.315 . S
C246 O241 1.279 . S
C247 O248 1.315 . S
C247 O249 1.279 . S
O248 Cd240 2.223 . S
O248 C247 1.315 . S
O249 Cd239 2.240 . S
O249 C247 1.279 . S
O250 Cd240 2.297 1_556 S
O250 C245 1.247 . S
O251 Cd240 2.439 1_556 S
O251 C245 1.208 . S
O252 Cd253 2.223 . S
O252 C260 1.315 . S
Cd253 O252 2.223 . S
Cd253 O256 2.297 . S
Cd253 O257 2.439 . S
Cd253 O263 2.240 . S
Cd254 O255 2.240 . S
Cd254 O262 2.223 . S
Cd254 O264 2.297 . S
Cd254 O265 2.439 . S
O255 Cd254 2.240 . S
O255 C260 1.279 . S
O256 Cd253 2.297 . S
O256 C258 1.247 . S
O257 Cd253 2.439 . S
O257 C258 1.208 . S
C258 O256 1.247 . S
C258 O257 1.208 . S
C259 O264 1.247 . S
C259 O265 1.208 . S
C260 O252 1.315 . S
C260 O255 1.279 . S
C261 O262 1.315 . S
C261 O263 1.279 . S
O262 Cd254 2.223 . S
O262 C261 1.315 . S
O263 Cd253 2.240 . S
O263 C261 1.279 . S
O264 Cd254 2.297 . S
O264 C259 1.247 . S
O265 Cd254 2.439 . S
O265 C259 1.208 . S
O266 Cd267 2.223 . S
O266 C274 1.315 . S
Cd267 O266 2.223 . S
Cd267 O270 2.297 . S
Cd267 O271 2.439 . S
Cd267 O277 2.240 . S
Cd268 O269 2.240 . S
Cd268 O276 2.223 . S
Cd268 O278 2.297 . S
Cd268 O279 2.439 . S
O269 Cd268 2.240 . S
O269 C274 1.279 . S
O270 Cd267 2.297 . S
O270 C272 1.247 . S
O271 Cd267 2.439 . S
O271 C272 1.208 . S
C272 O270 1.247 . S
C272 O271 1.208 . S
C273 O278 1.247 . S
C273 O279 1.208 . S
C274 O266 1.315 . S
C274 O269 1.279 . S
C275 O276 1.315 . S
C275 O277 1.279 . S
O276 Cd268 2.223 . S
O276 C275 1.315 . S
O277 Cd267 2.240 . S
O277 C275 1.279 . S
O278 Cd268 2.297 . S
O278 C273 1.247 . S
O279 Cd268 2.439 . S
O279 C273 1.208 . S
O280 Cd281 2.223 . S
O280 C288 1.315 . S
Cd281 O280 2.223 . S
Cd281 O284 2.297 . S
Cd281 O285 2.439 . S
Cd281 O291 2.240 . S
Cd282 O283 2.240 . S
Cd282 O290 2.223 . S
Cd282 O292 2.297 . S
Cd282 O293 2.439 . S
O283 Cd282 2.240 . S
O283 C288 1.279 . S
O284 Cd281 2.297 . S
O284 C286 1.247 . S
O285 Cd281 2.439 . S
O285 C286 1.208 . S
C286 O284 1.247 . S
C286 O285 1.208 . S
C287 O292 1.247 . S
C287 O293 1.208 . S
C288 O280 1.315 . S
C288 O283 1.279 . S
C289 O290 1.315 . S
C289 O291 1.279 . S
O290 Cd282 2.223 . S
O290 C289 1.315 . S
O291 Cd281 2.240 . S
O291 C289 1.279 . S
O292 Cd282 2.297 . S
O292 C287 1.247 . S
O293 Cd282 2.439 . S
O293 C287 1.208 . S
O294 Cd295 2.223 . S
O294 C302 1.315 . S
Cd295 O294 2.223 . S
Cd295 O298 2.297 . S
Cd295 O299 2.439 . S
Cd295 O305 2.240 . S
Cd296 O297 2.240 . S
Cd296 O304 2.223 . S
Cd296 O306 2.297 1_556 S
Cd296 O307 2.439 1_556 S
O297 Cd296 2.240 . S
O297 C302 1.279 . S
O298 Cd295 2.297 . S
O298 C300 1.247 . S
O299 Cd295 2.439 . S
O299 C300 1.208 . S
C300 O298 1.247 . S
C300 O299 1.208 . S
C301 O306 1.247 . S
C301 O307 1.208 . S
C302 O294 1.315 . S
C302 O297 1.279 . S
C303 O304 1.315 . S
C303 O305 1.279 . S
O304 Cd296 2.223 . S
O304 C303 1.315 . S
O305 Cd295 2.240 . S
O305 C303 1.279 . S
O306 Cd296 2.297 1_554 S
O306 C301 1.247 . S
O307 Cd296 2.439 1_554 S
O307 C301 1.208 . S
O308 Cd309 2.223 . S
O308 C316 1.315 . S
Cd309 O308 2.223 . S
Cd309 O312 2.297 . S
Cd309 O313 2.439 . S
Cd309 O319 2.240 . S
Cd310 O311 2.240 . S
Cd310 O318 2.223 . S
Cd310 O320 2.297 . S
Cd310 O321 2.439 . S
O311 Cd310 2.240 . S
O311 C316 1.279 . S
O312 Cd309 2.297 . S
O312 C314 1.247 . S
O313 Cd309 2.439 . S
O313 C314 1.208 . S
C314 O312 1.247 . S
C314 O313 1.208 . S
C315 O320 1.247 . S
C315 O321 1.208 . S
C316 O308 1.315 . S
C316 O311 1.279 . S
C317 O318 1.315 . S
C317 O319 1.279 . S
O318 Cd310 2.223 . S
O318 C317 1.315 . S
O319 Cd309 2.240 . S
O319 C317 1.279 . S
O320 Cd310 2.297 . S
O320 C315 1.247 . S
O321 Cd310 2.439 . S
O321 C315 1.208 . S
O322 Cd323 2.223 . S
O322 C330 1.315 . S
Cd323 O322 2.223 . S
Cd323 O326 2.297 . S
Cd323 O327 2.439 . S
Cd323 O333 2.240 . S
Cd324 O325 2.240 . S
Cd324 O332 2.223 . S
Cd324 O334 2.297 . S
Cd324 O335 2.439 . S
O325 Cd324 2.240 . S
O325 C330 1.279 . S
O326 Cd323 2.297 . S
O326 C328 1.247 . S
O327 Cd323 2.439 . S
O327 C328 1.208 . S
C328 O326 1.247 . S
C328 O327 1.208 . S
C329 O334 1.247 . S
C329 O335 1.208 . S
C330 O322 1.315 . S
C330 O325 1.279 . S
C331 O332 1.315 . S
C331 O333 1.279 . S
O332 Cd324 2.223 . S
O332 C331 1.315 . S
O333 Cd323 2.240 . S
O333 C331 1.279 . S
O334 Cd324 2.297 . S
O334 C329 1.247 . S
O335 Cd324 2.439 . S
O335 C329 1.208 . S
O336 Cd337 2.223 . S
O336 C344 1.315 . S
Cd337 O336 2.223 . S
Cd337 O340 2.297 . S
Cd337 O341 2.439 . S
Cd337 O347 2.240 . S
Cd338 O339 2.240 . S
Cd338 O346 2.223 . S
Cd338 O348 2.297 . S
Cd338 O349 2.439 . S
O339 Cd338 2.240 . S
O339 C344 1.279 . S
O340 Cd337 2.297 . S
O340 C342 1.247 . S
O341 Cd337 2.439 . S
O341 C342 1.208 . S
C342 O340 1.247 . S
C342 O341 1.208 . S
C343 O348 1.247 . S
C343 O349 1.208 . S
C344 O336 1.315 . S
C344 O339 1.279 . S
C345 O346 1.315 . S
C345 O347 1.279 . S
O346 Cd338 2.223 . S
O346 C345 1.315 . S
O347 Cd337 2.240 . S
O347 C345 1.279 . S
O348 Cd338 2.297 . S
O348 C343 1.247 . S
O349 Cd338 2.439 . S
O349 C343 1.208 . S
O350 Cd351 2.223 . S
O350 C358 1.315 . S
Cd351 O350 2.223 . S
Cd351 O354 2.297 . S
Cd351 O355 2.439 . S
Cd351 O361 2.240 . S
Cd352 O353 2.240 . S
Cd352 O360 2.223 . S
Cd352 O362 2.297 1_556 S
Cd352 O363 2.439 1_556 S
O353 Cd352 2.240 . S
O353 C358 1.279 . S
O354 Cd351 2.297 . S
O354 C356 1.247 . S
O355 Cd351 2.439 . S
O355 C356 1.208 . S
C356 O354 1.247 . S
C356 O355 1.208 . S
C357 O362 1.247 . S
C357 O363 1.208 . S
C358 O350 1.315 . S
C358 O353 1.279 . S
C359 O360 1.315 . S
C359 O361 1.279 . S
O360 Cd352 2.223 . S
O360 C359 1.315 . S
O361 Cd351 2.240 . S
O361 C359 1.279 . S
O362 Cd352 2.297 1_554 S
O362 C357 1.247 . S
O363 Cd352 2.439 1_554 S
O363 C357 1.208 . S
O364 Cd365 2.223 . S
O364 C372 1.315 . S
Cd365 O364 2.223 . S
Cd365 O368 2.297 . S
Cd365 O369 2.439 . S
Cd365 O375 2.240 . S
Cd366 O367 2.240 . S
Cd366 O374 2.223 . S
Cd366 O376 2.297 . S
Cd366 O377 2.439 . S
O367 Cd366 2.240 . S
O367 C372 1.279 . S
O368 Cd365 2.297 . S
O368 C370 1.247 . S
O369 Cd365 2.439 . S
O369 C370 1.208 . S
C370 O368 1.247 . S
C370 O369 1.208 . S
C371 O376 1.247 . S
C371 O377 1.208 . S
C372 O364 1.315 . S
C372 O367 1.279 . S
C373 O374 1.315 . S
C373 O375 1.279 . S
O374 Cd366 2.223 . S
O374 C373 1.315 . S
O375 Cd365 2.240 . S
O375 C373 1.279 . S
O376 Cd366 2.297 . S
O376 C371 1.247 . S
O377 Cd366 2.439 . S
O377 C371 1.208 . S
O378 Cd379 2.223 . S
O378 C386 1.315 . S
Cd379 O378 2.223 . S
Cd379 O382 2.297 . S
Cd379 O383 2.439 . S
Cd379 O389 2.240 . S
Cd380 O381 2.240 . S
Cd380 O388 2.223 . S
Cd380 O390 2.297 . S
Cd380 O391 2.439 . S
O381 Cd380 2.240 . S
O381 C386 1.279 . S
O382 Cd379 2.297 . S
O382 C384 1.247 . S
O383 Cd379 2.439 . S
O383 C384 1.208 . S
C384 O382 1.247 . S
C384 O383 1.208 . S
C385 O390 1.247 . S
C385 O391 1.208 . S
C386 O378 1.315 . S
C386 O381 1.279 . S
C387 O388 1.315 . S
C387 O389 1.279 . S
O388 Cd380 2.223 . S
O388 C387 1.315 . S
O389 Cd379 2.240 . S
O389 C387 1.279 . S
O390 Cd380 2.297 . S
O390 C385 1.247 . S
O391 Cd380 2.439 . S
O391 C385 1.208 . S
O392 Cd393 2.223 . S
O392 C400 1.315 . S
Cd393 O392 2.223 . S
Cd393 O396 2.297 . S
Cd393 O397 2.439 . S
Cd393 O403 2.240 . S
Cd394 O395 2.240 . S
Cd394 O402 2.223 . S
Cd394 O404 2.297 . S
Cd394 O405 2.439 . S
O395 Cd394 2.240 . S
O395 C400 1.279 . S
O396 Cd393 2.297 . S
O396 C398 1.247 . S
O397 Cd393 2.439 . S
O397 C398 1.208 . S
C398 O396 1.247 . S
C398 O397 1.208 . S
C399 O404 1.247 . S
C399 O405 1.208 . S
C400 O392 1.315 . S
C400 O395 1.279 . S
C401 O402 1.315 . S
C401 O403 1.279 . S
O402 Cd394 2.223 . S
O402 C401 1.315 . S
O403 Cd393 2.240 . S
O403 C401 1.279 . S
O404 Cd394 2.297 . S
O404 C399 1.247 . S
O405 Cd394 2.439 . S
O405 C399 1.208 . S
O406 Cd407 2.223 . S
O406 C414 1.315 . S
Cd407 O406 2.223 . S
Cd407 O410 2.297 . S
Cd407 O411 2.439 . S
Cd407 O417 2.240 . S
Cd408 O409 2.240 . S
Cd408 O416 2.223 . S
Cd408 O418 2.297 1_554 S
Cd408 O419 2.439 1_554 S
O409 Cd408 2.240 . S
O409 C414 1.279 . S
O410 Cd407 2.297 . S
O410 C412 1.247 . S
O411 Cd407 2.439 . S
O411 C412 1.208 . S
C412 O410 1.247 . S
C412 O411 1.208 . S
C413 O418 1.247 . S
C413 O419 1.208 . S
C414 O406 1.315 . S
C414 O409 1.279 . S
C415 O416 1.315 . S
C415 O417 1.279 . S
O416 Cd408 2.223 . S
O416 C415 1.315 . S
O417 Cd407 2.240 . S
O417 C415 1.279 . S
O418 Cd408 2.297 1_556 S
O418 C413 1.247 . S
O419 Cd408 2.439 1_556 S
O419 C413 1.208 . S
O420 Cd421 2.223 . S
O420 C428 1.315 . S
Cd421 O420 2.223 . S
Cd421 O424 2.297 . S
Cd421 O425 2.439 . S
Cd421 O431 2.240 . S
Cd422 O423 2.240 . S
Cd422 O430 2.223 . S
Cd422 O432 2.297 . S
Cd422 O433 2.439 . S
O423 Cd422 2.240 . S
O423 C428 1.279 . S
O424 Cd421 2.297 . S
O424 C426 1.247 . S
O425 Cd421 2.439 . S
O425 C426 1.208 . S
C426 O424 1.247 . S
C426 O425 1.208 . S
C427 O432 1.247 . S
C427 O433 1.208 . S
C428 O420 1.315 . S
C428 O423 1.279 . S
C429 O430 1.315 . S
C429 O431 1.279 . S
O430 Cd422 2.223 . S
O430 C429 1.315 . S
O431 Cd421 2.240 . S
O431 C429 1.279 . S
O432 Cd422 2.297 . S
O432 C427 1.247 . S
O433 Cd422 2.439 . S
O433 C427 1.208 . S
O434 Cd435 2.223 . S
O434 C442 1.315 . S
Cd435 O434 2.223 . S
Cd435 O438 2.297 . S
Cd435 O439 2.439 . S
Cd435 O445 2.240 . S
Cd436 O437 2.240 . S
Cd436 O444 2.223 . S
Cd436 O446 2.297 . S
Cd436 O447 2.439 . S
O437 Cd436 2.240 . S
O437 C442 1.279 . S
O438 Cd435 2.297 . S
O438 C440 1.247 . S
O439 Cd435 2.439 . S
O439 C440 1.208 . S
C440 O438 1.247 . S
C440 O439 1.208 . S
C441 O446 1.247 . S
C441 O447 1.208 . S
C442 O434 1.315 . S
C442 O437 1.279 . S
C443 O444 1.315 . S
C443 O445 1.279 . S
O444 Cd436 2.223 . S
O444 C443 1.315 . S
O445 Cd435 2.240 . S
O445 C443 1.279 . S
O446 Cd436 2.297 . S
O446 C441 1.247 . S
O447 Cd436 2.439 . S
O447 C441 1.208 . S
H448 C454 0.930 . S
H449 C458 0.930 . S
H450 C463 0.929 . S
H451 C461 0.929 . S
H452 C456 0.929 . S
H453 C462 0.929 . S
C454 H448 0.930 . S
C454 C455 1.367 . S
C454 C462 1.378 . S
C455 C454 1.367 . S
C455 C463 1.433 . S
C456 H452 0.929 . S
C456 C458 1.378 . S
C456 C460 1.350 . S
C457 C460 1.463 . S
C457 C462 1.350 . S
C457 N465 1.427 . S
C458 H449 0.930 . S
C458 C456 1.378 . S
C458 C459 1.367 . S
C459 C458 1.367 . S
C459 C461 1.433 . S
C460 C456 1.350 . S
C460 C457 1.463 . S
C460 N464 1.427 . S
C461 H451 0.929 . S
C461 C459 1.433 . S
C461 N464 1.384 . S
C462 H453 0.929 . S
C462 C454 1.378 . S
C462 C457 1.350 . S
C463 H450 0.929 . S
C463 C455 1.433 . S
C463 N465 1.384 . S
N464 C460 1.427 . S
N464 C461 1.384 . S
N465 C457 1.427 . S
N465 C463 1.384 . S
H466 C472 0.930 . S
H467 C476 0.930 . S
H468 C481 0.929 . S
H469 C479 0.929 . S
H470 C474 0.929 . S
H471 C480 0.929 . S
C472 H466 0.930 . S
C472 C473 1.367 . S
C472 C480 1.378 . S
C473 C472 1.367 . S
C473 C481 1.433 . S
C474 H470 0.929 . S
C474 C476 1.378 . S
C474 C478 1.350 . S
C475 C478 1.463 . S
C475 C480 1.350 . S
C475 N483 1.427 . S
C476 H467 0.930 . S
C476 C474 1.378 . S
C476 C477 1.367 . S
C477 C476 1.367 . S
C477 C479 1.433 . S
C478 C474 1.350 . S
C478 C475 1.463 . S
C478 N482 1.427 . S
C479 H469 0.929 . S
C479 C477 1.433 . S
C479 N482 1.384 . S
C480 H471 0.929 . S
C480 C472 1.378 . S
C480 C475 1.350 . S
C481 H468 0.929 . S
C481 C473 1.433 . S
C481 N483 1.384 . S
N482 C478 1.427 . S
N482 C479 1.384 . S
N483 C475 1.427 . S
N483 C481 1.384 . S
H484 C490 0.930 . S
H485 C494 0.930 . S
H486 C499 0.929 . S
H487 C497 0.929 . S
H488 C492 0.929 . S
H489 C498 0.929 . S
C490 H484 0.930 . S
C490 C491 1.367 . S
C490 C498 1.378 . S
C491 C490 1.367 . S
C491 C499 1.433 . S
C492 H488 0.929 . S
C492 C494 1.378 . S
C492 C496 1.350 . S
C493 C496 1.463 . S
C493 C498 1.350 . S
C493 N501 1.427 . S
C494 H485 0.930 . S
C494 C492 1.378 . S
C494 C495 1.367 . S
C495 C494 1.367 . S
C495 C497 1.433 . S
C496 C492 1.350 . S
C496 C493 1.463 . S
C496 N500 1.427 . S
C497 H487 0.929 . S
C497 C495 1.433 . S
C497 N500 1.384 . S
C498 H489 0.929 . S
C498 C490 1.378 . S
C498 C493 1.350 . S
C499 H486 0.929 . S
C499 C491 1.433 . S
C499 N501 1.384 . S
N500 C496 1.427 . S
N500 C497 1.384 . S
N501 C493 1.427 . S
N501 C499 1.384 . S
H502 C508 0.930 . S
H503 C512 0.930 . S
H504 C517 0.929 . S
H505 C515 0.929 . S
H506 C510 0.929 . S
H507 C516 0.929 . S
C508 H502 0.930 . S
C508 C509 1.367 . S
C508 C516 1.378 . S
C509 C508 1.367 . S
C509 C517 1.433 . S
C510 H506 0.929 . S
C510 C512 1.378 . S
C510 C514 1.350 . S
C511 C514 1.463 . S
C511 C516 1.350 . S
C511 N519 1.427 . S
C512 H503 0.930 . S
C512 C510 1.378 . S
C512 C513 1.367 . S
C513 C512 1.367 . S
C513 C515 1.433 . S
C514 C510 1.350 . S
C514 C511 1.463 . S
C514 N518 1.427 . S
C515 H505 0.929 . S
C515 C513 1.433 . S
C515 N518 1.384 . S
C516 H507 0.929 . S
C516 C508 1.378 . S
C516 C511 1.350 . S
C517 H504 0.929 . S
C517 C509 1.433 . S
C517 N519 1.384 . S
N518 C514 1.427 . S
N518 C515 1.384 . S
N519 C511 1.427 . S
N519 C517 1.384 . S
H520 C526 0.930 . S
H521 C530 0.930 . S
H522 C535 0.929 . S
H523 C533 0.929 . S
H524 C528 0.929 . S
H525 C534 0.929 . S
C526 H520 0.930 . S
C526 C527 1.367 . S
C526 C534 1.378 . S
C527 C526 1.367 . S
C527 C535 1.433 . S
C528 H524 0.929 . S
C528 C530 1.378 . S
C528 C532 1.350 . S
C529 C532 1.463 . S
C529 C534 1.350 . S
C529 N537 1.427 . S
C530 H521 0.930 . S
C530 C528 1.378 . S
C530 C531 1.367 . S
C531 C530 1.367 . S
C531 C533 1.433 . S
C532 C528 1.350 . S
C532 C529 1.463 . S
C532 N536 1.427 . S
C533 H523 0.929 . S
C533 C531 1.433 . S
C533 N536 1.384 . S
C534 H525 0.929 . S
C534 C526 1.378 . S
C534 C529 1.350 . S
C535 H522 0.929 . S
C535 C527 1.433 . S
C535 N537 1.384 . S
N536 C532 1.427 . S
N536 C533 1.384 . S
N537 C529 1.427 . S
N537 C535 1.384 . S
H538 C544 0.930 . S
H539 C548 0.930 . S
H540 C553 0.929 . S
H541 C551 0.929 . S
H542 C546 0.929 . S
H543 C552 0.929 . S
C544 H538 0.930 . S
C544 C545 1.367 . S
C544 C552 1.378 . S
C545 C544 1.367 . S
C545 C553 1.433 . S
C546 H542 0.929 . S
C546 C548 1.378 . S
C546 C550 1.350 . S
C547 C550 1.463 . S
C547 C552 1.350 . S
C547 N555 1.427 . S
C548 H539 0.930 . S
C548 C546 1.378 . S
C548 C549 1.367 . S
C549 C548 1.367 . S
C549 C551 1.433 . S
C550 C546 1.350 . S
C550 C547 1.463 . S
C550 N554 1.427 . S
C551 H541 0.929 . S
C551 C549 1.433 . S
C551 N554 1.384 . S
C552 H543 0.929 . S
C552 C544 1.378 . S
C552 C547 1.350 . S
C553 H540 0.929 . S
C553 C545 1.433 . S
C553 N555 1.384 . S
N554 C550 1.427 . S
N554 C551 1.384 . S
N555 C547 1.427 . S
N555 C553 1.384 . S
H556 C562 0.930 . S
H557 C566 0.930 . S
H558 C571 0.929 . S
H559 C569 0.929 . S
H560 C564 0.929 . S
H561 C570 0.929 . S
C562 H556 0.930 . S
C562 C563 1.367 . S
C562 C570 1.378 . S
C563 C562 1.367 . S
C563 C571 1.433 . S
C564 H560 0.929 . S
C564 C566 1.378 . S
C564 C568 1.350 . S
C565 C568 1.463 . S
C565 C570 1.350 . S
C565 N573 1.427 . S
C566 H557 0.930 . S
C566 C564 1.378 . S
C566 C567 1.367 . S
C567 C566 1.367 . S
C567 C569 1.433 . S
C568 C564 1.350 . S
C568 C565 1.463 . S
C568 N572 1.427 . S
C569 H559 0.929 . S
C569 C567 1.433 . S
C569 N572 1.384 . S
C570 H561 0.929 . S
C570 C562 1.378 . S
C570 C565 1.350 . S
C571 H558 0.929 . S
C571 C563 1.433 . S
C571 N573 1.384 . S
N572 C568 1.427 . S
N572 C569 1.384 . S
N573 C565 1.427 . S
N573 C571 1.384 . S
H574 C580 0.930 . S
H575 C584 0.930 . S
H576 C589 0.929 . S
H577 C587 0.929 . S
H578 C582 0.929 . S
H579 C588 0.929 . S
C580 H574 0.930 . S
C580 C581 1.367 . S
C580 C588 1.378 . S
C581 C580 1.367 . S
C581 C589 1.433 . S
C582 H578 0.929 . S
C582 C584 1.378 . S
C582 C586 1.350 . S
C583 C586 1.463 . S
C583 C588 1.350 . S
C583 N591 1.427 . S
C584 H575 0.930 . S
C584 C582 1.378 . S
C584 C585 1.367 . S
C585 C584 1.367 . S
C585 C587 1.433 . S
C586 C582 1.350 . S
C586 C583 1.463 . S
C586 N590 1.427 . S
C587 H577 0.929 . S
C587 C585 1.433 . S
C587 N590 1.384 . S
C588 H579 0.929 . S
C588 C580 1.378 . S
C588 C583 1.350 . S
C589 H576 0.929 . S
C589 C581 1.433 . S
C589 N591 1.384 . S
N590 C586 1.427 . S
N590 C587 1.384 . S
N591 C583 1.427 . S
N591 C589 1.384 . S
H592 C598 0.930 . S
H593 C602 0.930 . S
H594 C607 0.929 . S
H595 C605 0.929 . S
H596 C600 0.929 . S
H597 C606 0.929 . S
C598 H592 0.930 . S
C598 C599 1.367 . S
C598 C606 1.378 . S
C599 C598 1.367 . S
C599 C607 1.433 . S
C600 H596 0.929 . S
C600 C602 1.378 . S
C600 C604 1.350 . S
C601 C604 1.463 . S
C601 C606 1.350 . S
C601 N609 1.427 . S
C602 H593 0.930 . S
C602 C600 1.378 . S
C602 C603 1.367 . S
C603 C602 1.367 . S
C603 C605 1.433 . S
C604 C600 1.350 . S
C604 C601 1.463 . S
C604 N608 1.427 . S
C605 H595 0.929 . S
C605 C603 1.433 . S
C605 N608 1.384 . S
C606 H597 0.929 . S
C606 C598 1.378 . S
C606 C601 1.350 . S
C607 H594 0.929 . S
C607 C599 1.433 . S
C607 N609 1.384 . S
N608 C604 1.427 . S
N608 C605 1.384 . S
N609 C601 1.427 . S
N609 C607 1.384 . S
H610 C616 0.930 . S
H611 C620 0.930 . S
H612 C625 0.929 1_455 S
H613 C623 0.929 . S
H614 C618 0.929 . S
H615 C624 0.929 . S
C616 H610 0.930 . S
C616 C617 1.367 . S
C616 C624 1.378 . S
C617 C616 1.367 . S
C617 C625 1.433 . S
C618 H614 0.929 . S
C618 C620 1.378 . S
C618 C622 1.350 . S
C619 C622 1.463 . S
C619 C624 1.350 . S
C619 N627 1.427 . S
C620 H611 0.930 . S
C620 C618 1.378 . S
C620 C621 1.367 . S
C621 C620 1.367 . S
C621 C623 1.433 . S
C622 C618 1.350 . S
C622 C619 1.463 . S
C622 N626 1.427 . S
C623 H613 0.929 . S
C623 C621 1.433 . S
C623 N626 1.384 . S
C624 H615 0.929 . S
C624 C616 1.378 . S
C624 C619 1.350 . S
C625 H612 0.929 1_655 S
C625 C617 1.433 . S
C625 N627 1.384 . S
N626 C622 1.427 . S
N626 C623 1.384 . S
N627 C619 1.427 . S
N627 C625 1.384 . S
H628 C634 0.930 . S
H629 C638 0.930 . S
H630 C643 0.929 . S
H631 C641 0.929 . S
H632 C636 0.929 . S
H633 C642 0.929 . S
C634 H628 0.930 . S
C634 C635 1.367 . S
C634 C642 1.378 . S
C635 C634 1.367 . S
C635 C643 1.433 . S
C636 H632 0.929 . S
C636 C638 1.378 . S
C636 C640 1.350 . S
C637 C640 1.463 . S
C637 C642 1.350 . S
C637 N645 1.427 . S
C638 H629 0.930 . S
C638 C636 1.378 . S
C638 C639 1.367 . S
C639 C638 1.367 . S
C639 C641 1.433 . S
C640 C636 1.350 . S
C640 C637 1.463 . S
C640 N644 1.427 . S
C641 H631 0.929 . S
C641 C639 1.433 . S
C641 N644 1.384 . S
C642 H633 0.929 . S
C642 C634 1.378 . S
C642 C637 1.350 . S
C643 H630 0.929 . S
C643 C635 1.433 . S
C643 N645 1.384 . S
N644 C640 1.427 . S
N644 C641 1.384 . S
N645 C637 1.427 . S
N645 C643 1.384 . S
H646 C652 0.930 . S
H647 C656 0.930 . S
H648 C661 0.929 . S
H649 C659 0.929 . S
H650 C654 0.929 . S
H651 C660 0.929 . S
C652 H646 0.930 . S
C652 C653 1.367 . S
C652 C660 1.378 . S
C653 C652 1.367 . S
C653 C661 1.433 . S
C654 H650 0.929 . S
C654 C656 1.378 . S
C654 C658 1.350 . S
C655 C658 1.463 . S
C655 C660 1.350 . S
C655 N663 1.427 . S
C656 H647 0.930 . S
C656 C654 1.378 . S
C656 C657 1.367 . S
C657 C656 1.367 . S
C657 C659 1.433 . S
C658 C654 1.350 . S
C658 C655 1.463 . S
C658 N662 1.427 . S
C659 H649 0.929 . S
C659 C657 1.433 . S
C659 N662 1.384 . S
C660 H651 0.929 . S
C660 C652 1.378 . S
C660 C655 1.350 . S
C661 H648 0.929 . S
C661 C653 1.433 . S
C661 N663 1.384 . S
N662 C658 1.427 . S
N662 C659 1.384 . S
N663 C655 1.427 . S
N663 C661 1.384 . S
H664 C670 0.930 . S
H665 C674 0.930 . S
H666 C679 0.929 . S
H667 C677 0.929 . S
H668 C672 0.929 . S
H669 C678 0.929 . S
C670 H664 0.930 . S
C670 C671 1.367 . S
C670 C678 1.378 . S
C671 C670 1.367 . S
C671 C679 1.433 . S
C672 H668 0.929 . S
C672 C674 1.378 . S
C672 C676 1.350 . S
C673 C676 1.463 . S
C673 C678 1.350 . S
C673 N681 1.427 . S
C674 H665 0.930 . S
C674 C672 1.378 . S
C674 C675 1.367 . S
C675 C674 1.367 . S
C675 C677 1.433 . S
C676 C672 1.350 . S
C676 C673 1.463 . S
C676 N680 1.427 . S
C677 H667 0.929 . S
C677 C675 1.433 . S
C677 N680 1.384 . S
C678 H669 0.929 . S
C678 C670 1.378 . S
C678 C673 1.350 . S
C679 H666 0.929 . S
C679 C671 1.433 . S
C679 N681 1.384 . S
N680 C676 1.427 . S
N680 C677 1.384 . S
N681 C673 1.427 . S
N681 C679 1.384 . S
H682 C688 0.930 . S
H683 C692 0.930 . S
H684 C697 0.929 . S
H685 C695 0.929 . S
H686 C690 0.929 . S
H687 C696 0.929 . S
C688 H682 0.930 . S
C688 C689 1.367 . S
C688 C696 1.378 . S
C689 C688 1.367 . S
C689 C697 1.433 . S
C690 H686 0.929 . S
C690 C692 1.378 . S
C690 C694 1.350 . S
C691 C694 1.463 . S
C691 C696 1.350 . S
C691 N699 1.427 . S
C692 H683 0.930 . S
C692 C690 1.378 . S
C692 C693 1.367 . S
C693 C692 1.367 . S
C693 C695 1.433 . S
C694 C690 1.350 . S
C694 C691 1.463 . S
C694 N698 1.427 . S
C695 H685 0.929 . S
C695 C693 1.433 . S
C695 N698 1.384 . S
C696 H687 0.929 . S
C696 C688 1.378 . S
C696 C691 1.350 . S
C697 H684 0.929 . S
C697 C689 1.433 . S
C697 N699 1.384 . S
N698 C694 1.427 . S
N698 C695 1.384 . S
N699 C691 1.427 . S
N699 C697 1.384 . S
H700 C706 0.930 . S
H701 C710 0.930 . S
H702 C715 0.929 . S
H703 C713 0.929 . S
H704 C708 0.929 . S
H705 C714 0.929 . S
C706 H700 0.930 . S
C706 C707 1.367 . S
C706 C714 1.378 . S
C707 C706 1.367 . S
C707 C715 1.433 . S
C708 H704 0.929 . S
C708 C710 1.378 . S
C708 C712 1.350 . S
C709 C712 1.463 . S
C709 C714 1.350 . S
C709 N717 1.427 . S
C710 H701 0.930 . S
C710 C708 1.378 . S
C710 C711 1.367 . S
C711 C710 1.367 . S
C711 C713 1.433 . S
C712 C708 1.350 . S
C712 C709 1.463 . S
C712 N716 1.427 . S
C713 H703 0.929 . S
C713 C711 1.433 . S
C713 N716 1.384 . S
C714 H705 0.929 . S
C714 C706 1.378 . S
C714 C709 1.350 . S
C715 H702 0.929 . S
C715 C707 1.433 . S
C715 N717 1.384 . S
N716 C712 1.427 . S
N716 C713 1.384 . S
N717 C709 1.427 . S
N717 C715 1.384 . S
H718 C724 0.930 . S
H719 C728 0.930 1_455 S
H720 C733 0.929 . S
H721 C731 0.929 . S
H722 C726 0.929 . S
H723 C732 0.929 . S
C724 H718 0.930 . S
C724 C725 1.367 . S
C724 C732 1.378 . S
C725 C724 1.367 . S
C725 C733 1.433 . S
C726 H722 0.929 . S
C726 C728 1.378 . S
C726 C730 1.350 . S
C727 C730 1.463 . S
C727 C732 1.350 . S
C727 N735 1.427 . S
C728 H719 0.930 1_655 S
C728 C726 1.378 . S
C728 C729 1.367 . S
C729 C728 1.367 . S
C729 C731 1.433 . S
C730 C726 1.350 . S
C730 C727 1.463 . S
C730 N734 1.427 . S
C731 H721 0.929 . S
C731 C729 1.433 . S
C731 N734 1.384 . S
C732 H723 0.929 . S
C732 C724 1.378 . S
C732 C727 1.350 . S
C733 H720 0.929 . S
C733 C725 1.433 . S
C733 N735 1.384 . S
N734 C730 1.427 . S
N734 C731 1.384 . S
N735 C727 1.427 . S
N735 C733 1.384 . S
H736 C742 0.930 . S
H737 C746 0.930 . S
H738 C751 0.929 . S
H739 C749 0.929 . S
H740 C744 0.929 . S
H741 C750 0.929 . S
C742 H736 0.930 . S
C742 C743 1.367 . S
C742 C750 1.378 . S
C743 C742 1.367 . S
C743 C751 1.433 . S
C744 H740 0.929 . S
C744 C746 1.378 . S
C744 C748 1.350 . S
C745 C748 1.463 . S
C745 C750 1.350 . S
C745 N753 1.427 . S
C746 H737 0.930 . S
C746 C744 1.378 . S
C746 C747 1.367 . S
C747 C746 1.367 . S
C747 C749 1.433 . S
C748 C744 1.350 . S
C748 C745 1.463 . S
C748 N752 1.427 . S
C749 H739 0.929 . S
C749 C747 1.433 . S
C749 N752 1.384 . S
C750 H741 0.929 . S
C750 C742 1.378 . S
C750 C745 1.350 . S
C751 H738 0.929 . S
C751 C743 1.433 . S
C751 N753 1.384 . S
N752 C748 1.427 . S
N752 C749 1.384 . S
N753 C745 1.427 . S
N753 C751 1.384 . S
H754 C760 0.930 . S
H755 C764 0.930 . S
H756 C769 0.929 . S
H757 C767 0.929 . S
H758 C762 0.929 . S
H759 C768 0.929 . S
C760 H754 0.930 . S
C760 C761 1.367 . S
C760 C768 1.378 . S
C761 C760 1.367 . S
C761 C769 1.433 . S
C762 H758 0.929 . S
C762 C764 1.378 . S
C762 C766 1.350 . S
C763 C766 1.463 . S
C763 C768 1.350 . S
C763 N771 1.427 . S
C764 H755 0.930 . S
C764 C762 1.378 . S
C764 C765 1.367 . S
C765 C764 1.367 . S
C765 C767 1.433 . S
C766 C762 1.350 . S
C766 C763 1.463 . S
C766 N770 1.427 . S
C767 H757 0.929 . S
C767 C765 1.433 . S
C767 N770 1.384 . S
C768 H759 0.929 . S
C768 C760 1.378 . S
C768 C763 1.350 . S
C769 H756 0.929 . S
C769 C761 1.433 . S
C769 N771 1.384 . S
N770 C766 1.427 . S
N770 C767 1.384 . S
N771 C763 1.427 . S
N771 C769 1.384 . S
H772 C778 0.930 . S
H773 C782 0.930 . S
H774 C787 0.929 . S
H775 C785 0.929 . S
H776 C780 0.929 . S
H777 C786 0.929 . S
C778 H772 0.930 . S
C778 C779 1.367 . S
C778 C786 1.378 . S
C779 C778 1.367 . S
C779 C787 1.433 . S
C780 H776 0.929 . S
C780 C782 1.378 . S
C780 C784 1.350 . S
C781 C784 1.463 . S
C781 C786 1.350 . S
C781 N789 1.427 . S
C782 H773 0.930 . S
C782 C780 1.378 . S
C782 C783 1.367 . S
C783 C782 1.367 . S
C783 C785 1.433 . S
C784 C780 1.350 . S
C784 C781 1.463 . S
C784 N788 1.427 . S
C785 H775 0.929 . S
C785 C783 1.433 . S
C785 N788 1.384 . S
C786 H777 0.929 . S
C786 C778 1.378 . S
C786 C781 1.350 . S
C787 H774 0.929 . S
C787 C779 1.433 . S
C787 N789 1.384 . S
N788 C784 1.427 . S
N788 C785 1.384 . S
N789 C781 1.427 . S
N789 C787 1.384 . S
H790 C796 0.930 . S
H791 C800 0.930 . S
H792 C805 0.929 . S
H793 C803 0.929 1_455 S
H794 C798 0.929 . S
H795 C804 0.929 . S
C796 H790 0.930 . S
C796 C797 1.367 . S
C796 C804 1.378 . S
C797 C796 1.367 . S
C797 C805 1.433 . S
C798 H794 0.929 . S
C798 C800 1.378 . S
C798 C802 1.350 . S
C799 C802 1.463 . S
C799 C804 1.350 . S
C799 N807 1.427 . S
C800 H791 0.930 . S
C800 C798 1.378 . S
C800 C801 1.367 . S
C801 C800 1.367 . S
C801 C803 1.433 . S
C802 C798 1.350 . S
C802 C799 1.463 . S
C802 N806 1.427 . S
C803 H793 0.929 1_655 S
C803 C801 1.433 . S
C803 N806 1.384 . S
C804 H795 0.929 . S
C804 C796 1.378 . S
C804 C799 1.350 . S
C805 H792 0.929 . S
C805 C797 1.433 . S
C805 N807 1.384 . S
N806 C802 1.427 . S
N806 C803 1.384 . S
N807 C799 1.427 . S
N807 C805 1.384 . S
H808 C814 0.930 . S
H809 C818 0.930 . S
H810 C823 0.929 . S
H811 C821 0.929 . S
H812 C816 0.929 . S
H813 C822 0.929 . S
C814 H808 0.930 . S
C814 C815 1.367 . S
C814 C822 1.378 . S
C815 C814 1.367 . S
C815 C823 1.433 . S
C816 H812 0.929 . S
C816 C818 1.378 . S
C816 C820 1.350 . S
C817 C820 1.463 . S
C817 C822 1.350 . S
C817 N825 1.427 . S
C818 H809 0.930 . S
C818 C816 1.378 . S
C818 C819 1.367 . S
C819 C818 1.367 . S
C819 C821 1.433 . S
C820 C816 1.350 . S
C820 C817 1.463 . S
C820 N824 1.427 . S
C821 H811 0.929 . S
C821 C819 1.433 . S
C821 N824 1.384 . S
C822 H813 0.929 . S
C822 C814 1.378 . S
C822 C817 1.350 . S
C823 H810 0.929 . S
C823 C815 1.433 . S
C823 N825 1.384 . S
N824 C820 1.427 . S
N824 C821 1.384 . S
N825 C817 1.427 . S
N825 C823 1.384 . S
H826 C832 0.930 1_455 S
H827 C836 0.930 . S
H828 C841 0.929 . S
H829 C839 0.929 . S
H830 C834 0.929 . S
H831 C840 0.929 . S
C832 H826 0.930 1_655 S
C832 C833 1.367 . S
C832 C840 1.378 . S
C833 C832 1.367 . S
C833 C841 1.433 . S
C834 H830 0.929 . S
C834 C836 1.378 . S
C834 C838 1.350 . S
C835 C838 1.463 . S
C835 C840 1.350 . S
C835 N843 1.427 . S
C836 H827 0.930 . S
C836 C834 1.378 . S
C836 C837 1.367 . S
C837 C836 1.367 . S
C837 C839 1.433 . S
C838 C834 1.350 . S
C838 C835 1.463 . S
C838 N842 1.427 . S
C839 H829 0.929 . S
C839 C837 1.433 . S
C839 N842 1.384 . S
C840 H831 0.929 . S
C840 C832 1.378 . S
C840 C835 1.350 . S
C841 H828 0.929 . S
C841 C833 1.433 . S
C841 N843 1.384 . S
N842 C838 1.427 . S
N842 C839 1.384 . S
N843 C835 1.427 . S
N843 C841 1.384 . S
H844 C850 0.930 . S
H845 C854 0.930 . S
H846 C859 0.929 . S
H847 C857 0.929 . S
H848 C852 0.929 . S
H849 C858 0.929 . S
C850 H844 0.930 . S
C850 C851 1.367 . S
C850 C858 1.378 . S
C851 C850 1.367 . S
C851 C859 1.433 . S
C852 H848 0.929 . S
C852 C854 1.378 . S
C852 C856 1.350 . S
C853 C856 1.463 . S
C853 C858 1.350 . S
C853 N861 1.427 . S
C854 H845 0.930 . S
C854 C852 1.378 . S
C854 C855 1.367 . S
C855 C854 1.367 . S
C855 C857 1.433 . S
C856 C852 1.350 . S
C856 C853 1.463 . S
C856 N860 1.427 . S
C857 H847 0.929 . S
C857 C855 1.433 . S
C857 N860 1.384 . S
C858 H849 0.929 . S
C858 C850 1.378 . S
C858 C853 1.350 . S
C859 H846 0.929 . S
C859 C851 1.433 . S
C859 N861 1.384 . S
N860 C856 1.427 . S
N860 C857 1.384 . S
N861 C853 1.427 . S
N861 C859 1.384 . S
H862 C868 0.930 . S
H863 C872 0.930 . S
H864 C877 0.929 . S
H865 C875 0.929 . S
H866 C870 0.929 . S
H867 C876 0.929 . S
C868 H862 0.930 . S
C868 C869 1.367 . S
C868 C876 1.378 . S
C869 C868 1.367 . S
C869 C877 1.433 . S
C870 H866 0.929 . S
C870 C872 1.378 . S
C870 C874 1.350 . S
C871 C874 1.463 . S
C871 C876 1.350 . S
C871 N879 1.427 . S
C872 H863 0.930 . S
C872 C870 1.378 . S
C872 C873 1.367 . S
C873 C872 1.367 . S
C873 C875 1.433 . S
C874 C870 1.350 . S
C874 C871 1.463 . S
C874 N878 1.427 . S
C875 H865 0.929 . S
C875 C873 1.433 . S
C875 N878 1.384 . S
C876 H867 0.929 . S
C876 C868 1.378 . S
C876 C871 1.350 . S
C877 H864 0.929 . S
C877 C869 1.433 . S
C877 N879 1.384 . S
N878 C874 1.427 . S
N878 C875 1.384 . S
N879 C871 1.427 . S
N879 C877 1.384 . S
H880 C886 0.930 . S
H881 C890 0.930 . S
H882 C895 0.929 . S
H883 C893 0.929 . S
H884 C888 0.929 . S
H885 C894 0.929 . S
C886 H880 0.930 . S
C886 C887 1.367 . S
C886 C894 1.378 . S
C887 C886 1.367 . S
C887 C895 1.433 . S
C888 H884 0.929 . S
C888 C890 1.378 . S
C888 C892 1.350 . S
C889 C892 1.463 . S
C889 C894 1.350 . S
C889 N897 1.427 . S
C890 H881 0.930 . S
C890 C888 1.378 . S
C890 C891 1.367 . S
C891 C890 1.367 . S
C891 C893 1.433 . S
C892 C888 1.350 . S
C892 C889 1.463 . S
C892 N896 1.427 . S
C893 H883 0.929 . S
C893 C891 1.433 . S
C893 N896 1.384 . S
C894 H885 0.929 . S
C894 C886 1.378 . S
C894 C889 1.350 . S
C895 H882 0.929 . S
C895 C887 1.433 . S
C895 N897 1.384 . S
N896 C892 1.427 . S
N896 C893 1.384 . S
N897 C889 1.427 . S
N897 C895 1.384 . S
H898 C904 0.930 . S
H899 C908 0.930 . S
H900 C913 0.929 . S
H901 C911 0.929 . S
H902 C906 0.929 . S
H903 C912 0.929 . S
C904 H898 0.930 . S
C904 C905 1.367 . S
C904 C912 1.378 . S
C905 C904 1.367 . S
C905 C913 1.433 . S
C906 H902 0.929 . S
C906 C908 1.378 . S
C906 C910 1.350 . S
C907 C910 1.463 . S
C907 C912 1.350 . S
C907 N915 1.427 . S
C908 H899 0.930 . S
C908 C906 1.378 . S
C908 C909 1.367 . S
C909 C908 1.367 . S
C909 C911 1.433 . S
C910 C906 1.350 . S
C910 C907 1.463 . S
C910 N914 1.427 . S
C911 H901 0.929 . S
C911 C909 1.433 . S
C911 N914 1.384 . S
C912 H903 0.929 . S
C912 C904 1.378 . S
C912 C907 1.350 . S
C913 H900 0.929 . S
C913 C905 1.433 . S
C913 N915 1.384 . S
N914 C910 1.427 . S
N914 C911 1.384 . S
N915 C907 1.427 . S
N915 C913 1.384 . S
H916 C922 0.930 . S
H917 C926 0.930 . S
H918 C931 0.929 . S
H919 C929 0.929 . S
H920 C924 0.929 . S
H921 C930 0.929 . S
C922 H916 0.930 . S
C922 C923 1.367 . S
C922 C930 1.378 . S
C923 C922 1.367 . S
C923 C931 1.433 . S
C924 H920 0.929 . S
C924 C926 1.378 . S
C924 C928 1.350 . S
C925 C928 1.463 . S
C925 C930 1.350 . S
C925 N933 1.427 . S
C926 H917 0.930 . S
C926 C924 1.378 . S
C926 C927 1.367 . S
C927 C926 1.367 . S
C927 C929 1.433 . S
C928 C924 1.350 . S
C928 C925 1.463 . S
C928 N932 1.427 . S
C929 H919 0.929 . S
C929 C927 1.433 . S
C929 N932 1.384 . S
C930 H921 0.929 . S
C930 C922 1.378 . S
C930 C925 1.350 . S
C931 H918 0.929 . S
C931 C923 1.433 . S
C931 N933 1.384 . S
N932 C928 1.427 . S
N932 C929 1.384 . S
N933 C925 1.427 . S
N933 C931 1.384 . S
H934 C940 0.930 . S
H935 C944 0.930 . S
H936 C949 0.929 1_655 S
H937 C947 0.929 . S
H938 C942 0.929 . S
H939 C948 0.929 . S
C940 H934 0.930 . S
C940 C941 1.367 . S
C940 C948 1.378 . S
C941 C940 1.367 . S
C941 C949 1.433 . S
C942 H938 0.929 . S
C942 C944 1.378 . S
C942 C946 1.350 . S
C943 C946 1.463 . S
C943 C948 1.350 . S
C943 N951 1.427 . S
C944 H935 0.930 . S
C944 C942 1.378 . S
C944 C945 1.367 . S
C945 C944 1.367 . S
C945 C947 1.433 . S
C946 C942 1.350 . S
C946 C943 1.463 . S
C946 N950 1.427 . S
C947 H937 0.929 . S
C947 C945 1.433 . S
C947 N950 1.384 . S
C948 H939 0.929 . S
C948 C940 1.378 . S
C948 C943 1.350 . S
C949 H936 0.929 1_455 S
C949 C941 1.433 . S
C949 N951 1.384 . S
N950 C946 1.427 . S
N950 C947 1.384 . S
N951 C943 1.427 . S
N951 C949 1.384 . S
H952 C958 0.930 . S
H953 C962 0.930 . S
H954 C967 0.929 . S
H955 C965 0.929 . S
H956 C960 0.929 . S
H957 C966 0.929 . S
C958 H952 0.930 . S
C958 C959 1.367 . S
C958 C966 1.378 . S
C959 C958 1.367 . S
C959 C967 1.433 . S
C960 H956 0.929 . S
C960 C962 1.378 . S
C960 C964 1.350 . S
C961 C964 1.463 . S
C961 C966 1.350 . S
C961 N969 1.427 . S
C962 H953 0.930 . S
C962 C960 1.378 . S
C962 C963 1.367 . S
C963 C962 1.367 . S
C963 C965 1.433 . S
C964 C960 1.350 . S
C964 C961 1.463 . S
C964 N968 1.427 . S
C965 H955 0.929 . S
C965 C963 1.433 . S
C965 N968 1.384 . S
C966 H957 0.929 . S
C966 C958 1.378 . S
C966 C961 1.350 . S
C967 H954 0.929 . S
C967 C959 1.433 . S
C967 N969 1.384 . S
N968 C964 1.427 . S
N968 C965 1.384 . S
N969 C961 1.427 . S
N969 C967 1.384 . S
H970 C976 0.930 . S
H971 C980 0.930 . S
H972 C985 0.929 1_655 S
H973 C983 0.929 . S
H974 C978 0.929 . S
H975 C984 0.929 . S
C976 H970 0.930 . S
C976 C977 1.367 . S
C976 C984 1.378 . S
C977 C976 1.367 . S
C977 C985 1.433 . S
C978 H974 0.929 . S
C978 C980 1.378 . S
C978 C982 1.350 . S
C979 C982 1.463 . S
C979 C984 1.350 . S
C979 N987 1.427 . S
C980 H971 0.930 . S
C980 C978 1.378 . S
C980 C981 1.367 . S
C981 C980 1.367 . S
C981 C983 1.433 . S
C982 C978 1.350 . S
C982 C979 1.463 . S
C982 N986 1.427 . S
C983 H973 0.929 . S
C983 C981 1.433 . S
C983 N986 1.384 . S
C984 H975 0.929 . S
C984 C976 1.378 . S
C984 C979 1.350 . S
C985 H972 0.929 1_455 S
C985 C977 1.433 . S
C985 N987 1.384 . S
N986 C982 1.427 . S
N986 C983 1.384 . S
N987 C979 1.427 . S
N987 C985 1.384 . S
H988 C994 0.930 . S
H989 C998 0.930 . S
H990 C1003 0.929 . S
H991 C1001 0.929 . S
H992 C996 0.929 . S
H993 C1002 0.929 . S
C994 H988 0.930 . S
C994 C995 1.367 . S
C994 C1002 1.378 . S
C995 C994 1.367 . S
C995 C1003 1.433 . S
C996 H992 0.929 . S
C996 C998 1.378 . S
C996 C1000 1.350 . S
C997 C1000 1.463 . S
C997 C1002 1.350 . S
C997 N1005 1.427 . S
C998 H989 0.930 . S
C998 C996 1.378 . S
C998 C999 1.367 . S
C999 C998 1.367 . S
C999 C1001 1.433 . S
C1000 C996 1.350 . S
C1000 C997 1.463 . S
C1000 N1004 1.427 . S
C1001 H991 0.929 . S
C1001 C999 1.433 . S
C1001 N1004 1.384 . S
C1002 H993 0.929 . S
C1002 C994 1.378 . S
C1002 C997 1.350 . S
C1003 H990 0.929 . S
C1003 C995 1.433 . S
C1003 N1005 1.384 . S
N1004 C1000 1.427 . S
N1004 C1001 1.384 . S
N1005 C997 1.427 . S
N1005 C1003 1.384 . S
H1006 C1012 0.930 . S
H1007 C1016 0.930 . S
H1008 C1021 0.929 . S
H1009 C1019 0.929 . S
H1010 C1014 0.929 . S
H1011 C1020 0.929 . S
C1012 H1006 0.930 . S
C1012 C1013 1.367 . S
C1012 C1020 1.378 . S
C1013 C1012 1.367 . S
C1013 C1021 1.433 . S
C1014 H1010 0.929 . S
C1014 C1016 1.378 . S
C1014 C1018 1.350 . S
C1015 C1018 1.463 . S
C1015 C1020 1.350 . S
C1015 N1023 1.427 . S
C1016 H1007 0.930 . S
C1016 C1014 1.378 . S
C1016 C1017 1.367 . S
C1017 C1016 1.367 . S
C1017 C1019 1.433 . S
C1018 C1014 1.350 . S
C1018 C1015 1.463 . S
C1018 N1022 1.427 . S
C1019 H1009 0.929 . S
C1019 C1017 1.433 . S
C1019 N1022 1.384 . S
C1020 H1011 0.929 . S
C1020 C1012 1.378 . S
C1020 C1015 1.350 . S
C1021 H1008 0.929 . S
C1021 C1013 1.433 . S
C1021 N1023 1.384 . S
N1022 C1018 1.427 . S
N1022 C1019 1.384 . S
N1023 C1015 1.427 . S
N1023 C1021 1.384 . S
H1024 C1030 0.930 . S
H1025 C1034 0.930 . S
H1026 C1039 0.929 . S
H1027 C1037 0.929 . S
H1028 C1032 0.929 . S
H1029 C1038 0.929 . S
C1030 H1024 0.930 . S
C1030 C1031 1.367 . S
C1030 C1038 1.378 . S
C1031 C1030 1.367 . S
C1031 C1039 1.433 . S
C1032 H1028 0.929 . S
C1032 C1034 1.378 . S
C1032 C1036 1.350 . S
C1033 C1036 1.463 . S
C1033 C1038 1.350 . S
C1033 N1041 1.427 . S
C1034 H1025 0.930 . S
C1034 C1032 1.378 . S
C1034 C1035 1.367 . S
C1035 C1034 1.367 . S
C1035 C1037 1.433 . S
C1036 C1032 1.350 . S
C1036 C1033 1.463 . S
C1036 N1040 1.427 . S
C1037 H1027 0.929 . S
C1037 C1035 1.433 . S
C1037 N1040 1.384 . S
C1038 H1029 0.929 . S
C1038 C1030 1.378 . S
C1038 C1033 1.350 . S
C1039 H1026 0.929 . S
C1039 C1031 1.433 . S
C1039 N1041 1.384 . S
N1040 C1036 1.427 . S
N1040 C1037 1.384 . S
N1041 C1033 1.427 . S
N1041 C1039 1.384 . S
H1042 C1048 0.930 . S
H1043 C1052 0.930 . S
H1044 C1057 0.929 . S
H1045 C1055 0.929 . S
H1046 C1050 0.929 . S
H1047 C1056 0.929 . S
C1048 H1042 0.930 . S
C1048 C1049 1.367 . S
C1048 C1056 1.378 . S
C1049 C1048 1.367 . S
C1049 C1057 1.433 . S
C1050 H1046 0.929 . S
C1050 C1052 1.378 . S
C1050 C1054 1.350 . S
C1051 C1054 1.463 1_665 S
C1051 C1056 1.350 . S
C1051 N1059 1.427 1_655 S
C1052 H1043 0.930 . S
C1052 C1050 1.378 . S
C1052 C1053 1.367 . S
C1053 C1052 1.367 . S
C1053 C1055 1.433 . S
C1054 C1050 1.350 . S
C1054 C1051 1.463 1_445 S
C1054 N1058 1.427 1_455 S
C1055 H1045 0.929 . S
C1055 C1053 1.433 . S
C1055 N1058 1.384 1_455 S
C1056 H1047 0.929 . S
C1056 C1048 1.378 . S
C1056 C1051 1.350 . S
C1057 H1044 0.929 . S
C1057 C1049 1.433 . S
C1057 N1059 1.384 1_655 S
N1058 C1054 1.427 1_655 S
N1058 C1055 1.384 1_655 S
N1059 C1051 1.427 1_455 S
N1059 C1057 1.384 1_455 S
H1060 C1066 0.930 . S
H1061 C1070 0.930 . S
H1062 C1075 0.929 . S
H1063 C1073 0.929 . S
H1064 C1068 0.929 . S
H1065 C1074 0.929 . S
C1066 H1060 0.930 . S
C1066 C1067 1.367 . S
C1066 C1074 1.378 . S
C1067 C1066 1.367 . S
C1067 C1075 1.433 . S
C1068 H1064 0.929 . S
C1068 C1070 1.378 . S
C1068 C1072 1.350 . S
C1069 C1072 1.463 . S
C1069 C1074 1.350 . S
C1069 N1077 1.427 . S
C1070 H1061 0.930 . S
C1070 C1068 1.378 . S
C1070 C1071 1.367 . S
C1071 C1070 1.367 . S
C1071 C1073 1.433 . S
C1072 C1068 1.350 . S
C1072 C1069 1.463 . S
C1072 N1076 1.427 . S
C1073 H1063 0.929 . S
C1073 C1071 1.433 . S
C1073 N1076 1.384 . S
C1074 H1065 0.929 . S
C1074 C1066 1.378 . S
C1074 C1069 1.350 . S
C1075 H1062 0.929 . S
C1075 C1067 1.433 . S
C1075 N1077 1.384 . S
N1076 C1072 1.427 . S
N1076 C1073 1.384 . S
N1077 C1069 1.427 . S
N1077 C1075 1.384 . S
H1078 C1084 0.930 . S
H1079 C1088 0.930 . S
H1080 C1093 0.929 . S
H1081 C1091 0.929 . S
H1082 C1086 0.929 1_545 S
H1083 C1092 0.929 1_565 S
C1084 H1078 0.930 . S
C1084 C1085 1.367 . S
C1084 C1092 1.378 . S
C1085 C1084 1.367 . S
C1085 C1093 1.433 1_554 S
C1086 H1082 0.929 1_565 S
C1086 C1088 1.378 . S
C1086 C1090 1.350 . S
C1087 C1090 1.463 1_544 S
C1087 C1092 1.350 . S
C1087 N1095 1.427 1_554 S
C1088 H1079 0.930 . S
C1088 C1086 1.378 . S
C1088 C1089 1.367 . S
C1089 C1088 1.367 . S
C1089 C1091 1.433 1_556 S
C1090 C1086 1.350 . S
C1090 C1087 1.463 1_566 S
C1090 N1094 1.427 1_556 S
C1091 H1081 0.929 . S
C1091 C1089 1.433 1_554 S
C1091 N1094 1.384 . S
C1092 H1083 0.929 1_545 S
C1092 C1084 1.378 . S
C1092 C1087 1.350 . S
C1093 H1080 0.929 . S
C1093 C1085 1.433 1_556 S
C1093 N1095 1.384 . S
N1094 C1090 1.427 1_554 S
N1094 C1091 1.384 . S
N1095 C1087 1.427 1_556 S
N1095 C1093 1.384 . S
H1096 C1102 0.930 . S
H1097 C1106 0.930 . S
H1098 C1111 0.929 . S
H1099 C1109 0.929 . S
H1100 C1104 0.929 . S
H1101 C1110 0.929 . S
C1102 H1096 0.930 . S
C1102 C1103 1.367 . S
C1102 C1110 1.378 . S
C1103 C1102 1.367 . S
C1103 C1111 1.433 . S
C1104 H1100 0.929 . S
C1104 C1106 1.378 . S
C1104 C1108 1.350 . S
C1105 C1108 1.463 . S
C1105 C1110 1.350 . S
C1105 N1113 1.427 . S
C1106 H1097 0.930 . S
C1106 C1104 1.378 . S
C1106 C1107 1.367 . S
C1107 C1106 1.367 . S
C1107 C1109 1.433 . S
C1108 C1104 1.350 . S
C1108 C1105 1.463 . S
C1108 N1112 1.427 . S
C1109 H1099 0.929 . S
C1109 C1107 1.433 . S
C1109 N1112 1.384 . S
C1110 H1101 0.929 . S
C1110 C1102 1.378 . S
C1110 C1105 1.350 . S
C1111 H1098 0.929 . S
C1111 C1103 1.433 . S
C1111 N1113 1.384 . S
N1112 C1108 1.427 . S
N1112 C1109 1.384 . S
N1113 C1105 1.427 . S
N1113 C1111 1.384 . S
H1114 C1120 0.930 . S
H1115 C1124 0.930 . S
H1116 C1129 0.929 . S
H1117 C1127 0.929 . S
H1118 C1122 0.929 . S
H1119 C1128 0.929 . S
C1120 H1114 0.930 . S
C1120 C1121 1.367 . S
C1120 C1128 1.378 . S
C1121 C1120 1.367 . S
C1121 C1129 1.433 . S
C1122 H1118 0.929 . S
C1122 C1124 1.378 . S
C1122 C1126 1.350 . S
C1123 C1126 1.463 1_565 S
C1123 C1128 1.350 . S
C1123 N1131 1.427 . S
C1124 H1115 0.930 . S
C1124 C1122 1.378 . S
C1124 C1125 1.367 . S
C1125 C1124 1.367 . S
C1125 C1127 1.433 . S
C1126 C1122 1.350 . S
C1126 C1123 1.463 1_545 S
C1126 N1130 1.427 . S
C1127 H1117 0.929 . S
C1127 C1125 1.433 . S
C1127 N1130 1.384 . S
C1128 H1119 0.929 . S
C1128 C1120 1.378 . S
C1128 C1123 1.350 . S
C1129 H1116 0.929 . S
C1129 C1121 1.433 . S
C1129 N1131 1.384 . S
N1130 C1126 1.427 . S
N1130 C1127 1.384 . S
N1131 C1123 1.427 . S
N1131 C1129 1.384 . S
H1132 C1138 0.930 . S
H1133 C1142 0.930 . S
H1134 C1147 0.929 . S
H1135 C1145 0.929 . S
H1136 C1140 0.929 . S
H1137 C1146 0.929 . S
C1138 H1132 0.930 . S
C1138 C1139 1.367 . S
C1138 C1146 1.378 . S
C1139 C1138 1.367 . S
C1139 C1147 1.433 . S
C1140 H1136 0.929 . S
C1140 C1142 1.378 . S
C1140 C1144 1.350 . S
C1141 C1144 1.463 . S
C1141 C1146 1.350 . S
C1141 N1149 1.427 . S
C1142 H1133 0.930 . S
C1142 C1140 1.378 . S
C1142 C1143 1.367 . S
C1143 C1142 1.367 . S
C1143 C1145 1.433 . S
C1144 C1140 1.350 . S
C1144 C1141 1.463 . S
C1144 N1148 1.427 . S
C1145 H1135 0.929 . S
C1145 C1143 1.433 . S
C1145 N1148 1.384 . S
C1146 H1137 0.929 . S
C1146 C1138 1.378 . S
C1146 C1141 1.350 . S
C1147 H1134 0.929 . S
C1147 C1139 1.433 . S
C1147 N1149 1.384 . S
N1148 C1144 1.427 . S
N1148 C1145 1.384 . S
N1149 C1141 1.427 . S
N1149 C1147 1.384 . S
H1150 C1156 0.930 1_554 S
H1151 C1160 0.930 1_556 S
H1152 C1165 0.929 . S
H1153 C1163 0.929 . S
H1154 C1158 0.929 1_655 S
H1155 C1164 0.929 1_455 S
C1156 H1150 0.930 1_556 S
C1156 C1157 1.367 . S
C1156 C1164 1.378 1_556 S
C1157 C1156 1.367 . S
C1157 C1165 1.433 . S
C1158 H1154 0.929 1_455 S
C1158 C1160 1.378 1_556 S
C1158 C1162 1.350 1_556 S
C1159 C1162 1.463 1_646 S
C1159 C1164 1.350 1_556 S
C1159 N1167 1.427 . S
C1160 H1151 0.930 1_554 S
C1160 C1158 1.378 1_554 S
C1160 C1161 1.367 . S
C1161 C1160 1.367 . S
C1161 C1163 1.433 . S
C1162 C1158 1.350 1_554 S
C1162 C1159 1.463 1_464 S
C1162 N1166 1.427 . S
C1163 H1153 0.929 . S
C1163 C1161 1.433 . S
C1163 N1166 1.384 . S
C1164 H1155 0.929 1_655 S
C1164 C1156 1.378 1_554 S
C1164 C1159 1.350 1_554 S
C1165 H1152 0.929 . S
C1165 C1157 1.433 . S
C1165 N1167 1.384 . S
N1166 C1162 1.427 . S
N1166 C1163 1.384 . S
N1167 C1159 1.427 . S
N1167 C1165 1.384 . S
H1168 C1174 0.930 . S
H1169 C1178 0.930 . S
H1170 C1183 0.929 . S
H1171 C1181 0.929 . S
H1172 C1176 0.929 . S
H1173 C1182 0.929 . S
C1174 H1168 0.930 . S
C1174 C1175 1.367 . S
C1174 C1182 1.378 . S
C1175 C1174 1.367 . S
C1175 C1183 1.433 . S
C1176 H1172 0.929 . S
C1176 C1178 1.378 . S
C1176 C1180 1.350 . S
C1177 C1180 1.463 . S
C1177 C1182 1.350 . S
C1177 N1185 1.427 . S
C1178 H1169 0.930 . S
C1178 C1176 1.378 . S
C1178 C1179 1.367 . S
C1179 C1178 1.367 . S
C1179 C1181 1.433 . S
C1180 C1176 1.350 . S
C1180 C1177 1.463 . S
C1180 N1184 1.427 . S
C1181 H1171 0.929 . S
C1181 C1179 1.433 . S
C1181 N1184 1.384 . S
C1182 H1173 0.929 . S
C1182 C1174 1.378 . S
C1182 C1177 1.350 . S
C1183 H1170 0.929 . S
C1183 C1175 1.433 . S
C1183 N1185 1.384 . S
N1184 C1180 1.427 . S
N1184 C1181 1.384 . S
N1185 C1177 1.427 . S
N1185 C1183 1.384 . S
H1186 C1192 0.930 . S
H1187 C1196 0.930 . S
H1188 C1201 0.929 . S
H1189 C1199 0.929 . S
H1190 C1194 0.929 . S
H1191 C1200 0.929 . S
C1192 H1186 0.930 . S
C1192 C1193 1.367 . S
C1192 C1200 1.378 . S
C1193 C1192 1.367 . S
C1193 C1201 1.433 . S
C1194 H1190 0.929 . S
C1194 C1196 1.378 . S
C1194 C1198 1.350 . S
C1195 C1198 1.463 . S
C1195 C1200 1.350 . S
C1195 N1203 1.427 . S
C1196 H1187 0.930 . S
C1196 C1194 1.378 . S
C1196 C1197 1.367 . S
C1197 C1196 1.367 . S
C1197 C1199 1.433 . S
C1198 C1194 1.350 . S
C1198 C1195 1.463 . S
C1198 N1202 1.427 . S
C1199 H1189 0.929 . S
C1199 C1197 1.433 . S
C1199 N1202 1.384 . S
C1200 H1191 0.929 . S
C1200 C1192 1.378 . S
C1200 C1195 1.350 . S
C1201 H1188 0.929 . S
C1201 C1193 1.433 . S
C1201 N1203 1.384 . S
N1202 C1198 1.427 . S
N1202 C1199 1.384 . S
N1203 C1195 1.427 . S
N1203 C1201 1.384 . S
H1204 C1210 0.930 . S
H1205 C1214 0.930 . S
H1206 C1219 0.929 . S
H1207 C1217 0.929 . S
H1208 C1212 0.929 . S
H1209 C1218 0.929 . S
C1210 H1204 0.930 . S
C1210 C1211 1.367 . S
C1210 C1218 1.378 . S
C1211 C1210 1.367 . S
C1211 C1219 1.433 . S
C1212 H1208 0.929 . S
C1212 C1214 1.378 . S
C1212 C1216 1.350 . S
C1213 C1216 1.463 . S
C1213 C1218 1.350 . S
C1213 N1221 1.427 . S
C1214 H1205 0.930 . S
C1214 C1212 1.378 . S
C1214 C1215 1.367 . S
C1215 C1214 1.367 . S
C1215 C1217 1.433 . S
C1216 C1212 1.350 . S
C1216 C1213 1.463 . S
C1216 N1220 1.427 . S
C1217 H1207 0.929 . S
C1217 C1215 1.433 . S
C1217 N1220 1.384 . S
C1218 H1209 0.929 . S
C1218 C1210 1.378 . S
C1218 C1213 1.350 . S
C1219 H1206 0.929 . S
C1219 C1211 1.433 . S
C1219 N1221 1.384 . S
N1220 C1216 1.427 . S
N1220 C1217 1.384 . S
N1221 C1213 1.427 . S
N1221 C1219 1.384 . S
H1222 C1228 0.930 . S
H1223 C1232 0.930 . S
H1224 C1237 0.929 . S
H1225 C1235 0.929 . S
H1226 C1230 0.929 . S
H1227 C1236 0.929 . S
C1228 H1222 0.930 . S
C1228 C1229 1.367 . S
C1228 C1236 1.378 . S
C1229 C1228 1.367 . S
C1229 C1237 1.433 . S
C1230 H1226 0.929 . S
C1230 C1232 1.378 . S
C1230 C1234 1.350 . S
C1231 C1234 1.463 . S
C1231 C1236 1.350 . S
C1231 N1239 1.427 . S
C1232 H1223 0.930 . S
C1232 C1230 1.378 . S
C1232 C1233 1.367 . S
C1233 C1232 1.367 . S
C1233 C1235 1.433 . S
C1234 C1230 1.350 . S
C1234 C1231 1.463 . S
C1234 N1238 1.427 . S
C1235 H1225 0.929 . S
C1235 C1233 1.433 . S
C1235 N1238 1.384 . S
C1236 H1227 0.929 . S
C1236 C1228 1.378 . S
C1236 C1231 1.350 . S
C1237 H1224 0.929 . S
C1237 C1229 1.433 . S
C1237 N1239 1.384 . S
N1238 C1234 1.427 . S
N1238 C1235 1.384 . S
N1239 C1231 1.427 . S
N1239 C1237 1.384 . S
H1240 C1246 0.930 . S
H1241 C1250 0.930 . S
H1242 C1255 0.945 . S
H1243 C1253 0.945 . S
H1244 C1248 0.929 . S
H1245 C1254 0.929 . S
C1246 H1240 0.930 . S
C1246 C1247 1.367 . S
C1246 C1254 1.378 . S
C1247 C1246 1.367 . S
C1247 C1255 1.406 1_554 S
C1248 H1244 0.929 . S
C1248 C1250 1.378 . S
C1248 C1252 1.350 . S
C1249 C1252 1.463 1_554 S
C1249 C1254 1.350 . S
C1249 N1257 1.427 1_554 S
C1250 H1241 0.930 . S
C1250 C1248 1.378 . S
C1250 C1251 1.367 . S
C1251 C1250 1.367 . S
C1251 C1253 1.406 1_556 S
C1252 C1248 1.350 . S
C1252 C1249 1.463 1_556 S
C1252 N1256 1.427 1_556 S
C1253 H1243 0.945 . S
C1253 C1251 1.406 1_554 S
C1253 N1256 1.394 . S
C1254 H1245 0.929 . S
C1254 C1246 1.378 . S
C1254 C1249 1.350 . S
C1255 H1242 0.945 . S
C1255 C1247 1.406 1_556 S
C1255 N1257 1.394 . S
N1256 C1252 1.427 1_554 S
N1256 C1253 1.394 . S
N1257 C1249 1.427 1_556 S
N1257 C1255 1.394 . S
H1258 C1264 0.930 . S
H1259 C1268 0.930 . S
H1260 C1273 0.929 1_455 S
H1261 C1271 0.929 1_655 S
H1262 C1266 0.929 . S
H1263 C1272 0.929 . S
C1264 H1258 0.930 . S
C1264 C1265 1.367 . S
C1264 C1272 1.378 . S
C1265 C1264 1.367 . S
C1265 C1273 1.433 . S
C1266 H1262 0.929 . S
C1266 C1268 1.378 . S
C1266 C1270 1.350 . S
C1267 C1270 1.463 1_655 S
C1267 C1272 1.350 . S
C1267 N1275 1.427 1_655 S
C1268 H1259 0.930 . S
C1268 C1266 1.378 . S
C1268 C1269 1.367 . S
C1269 C1268 1.367 . S
C1269 C1271 1.433 . S
C1270 C1266 1.350 . S
C1270 C1267 1.463 1_455 S
C1270 N1274 1.427 1_455 S
C1271 H1261 0.929 1_455 S
C1271 C1269 1.433 . S
C1271 N1274 1.384 1_455 S
C1272 H1263 0.929 . S
C1272 C1264 1.378 . S
C1272 C1267 1.350 . S
C1273 H1260 0.929 1_655 S
C1273 C1265 1.433 . S
C1273 N1275 1.384 1_655 S
N1274 C1270 1.427 1_655 S
N1274 C1271 1.384 1_655 S
N1275 C1267 1.427 1_455 S
N1275 C1273 1.384 1_455 S
H1276 C1282 0.930 . S
H1277 C1286 0.930 . S
H1278 C1291 0.931 . S
H1279 C1289 0.931 . S
H1280 C1284 0.929 . S
H1281 C1290 0.929 . S
C1282 H1276 0.930 . S
C1282 C1283 1.367 . S
C1282 C1290 1.378 . S
C1283 C1282 1.367 . S
C1283 C1291 1.429 1_556 S
C1284 H1280 0.929 . S
C1284 C1286 1.378 . S
C1284 C1288 1.350 . S
C1285 C1288 1.463 1_456 S
C1285 C1290 1.350 . S
C1285 N1293 1.427 1_556 S
C1286 H1277 0.930 . S
C1286 C1284 1.378 . S
C1286 C1287 1.367 . S
C1287 C1286 1.367 . S
C1287 C1289 1.429 1_554 S
C1288 C1284 1.350 . S
C1288 C1285 1.463 1_654 S
C1288 N1292 1.427 1_554 S
C1289 H1279 0.931 . S
C1289 C1287 1.429 1_556 S
C1289 N1292 1.385 . S
C1290 H1281 0.929 . S
C1290 C1282 1.378 . S
C1290 C1285 1.350 . S
C1291 H1278 0.931 . S
C1291 C1283 1.429 1_554 S
C1291 N1293 1.385 . S
N1292 C1288 1.427 1_556 S
N1292 C1289 1.385 . S
N1293 C1285 1.427 1_554 S
N1293 C1291 1.385 . S
H1294 C1300 0.930 . S
H1295 C1304 0.930 . S
H1296 C1309 0.929 . S
H1297 C1307 0.929 . S
H1298 C1302 0.929 . S
H1299 C1308 0.929 . S
C1300 H1294 0.930 . S
C1300 C1301 1.367 . S
C1300 C1308 1.378 . S
C1301 C1300 1.367 . S
C1301 C1309 1.433 . S
C1302 H1298 0.929 . S
C1302 C1304 1.378 . S
C1302 C1306 1.350 . S
C1303 C1306 1.463 . S
C1303 C1308 1.350 . S
C1303 N1311 1.427 . S
C1304 H1295 0.930 . S
C1304 C1302 1.378 . S
C1304 C1305 1.367 . S
C1305 C1304 1.367 . S
C1305 C1307 1.433 . S
C1306 C1302 1.350 . S
C1306 C1303 1.463 . S
C1306 N1310 1.427 . S
C1307 H1297 0.929 . S
C1307 C1305 1.433 . S
C1307 N1310 1.384 . S
C1308 H1299 0.929 . S
C1308 C1300 1.378 . S
C1308 C1303 1.350 . S
C1309 H1296 0.929 . S
C1309 C1301 1.433 . S
C1309 N1311 1.384 . S
N1310 C1306 1.427 . S
N1310 C1307 1.384 . S
N1311 C1303 1.427 . S
N1311 C1309 1.384 . S
H1312 C1318 0.930 . S
H1313 C1322 0.930 . S
H1314 C1327 0.929 . S
H1315 C1325 0.929 . S
H1316 C1320 0.929 . S
H1317 C1326 0.929 . S
C1318 H1312 0.930 . S
C1318 C1319 1.367 . S
C1318 C1326 1.378 . S
C1319 C1318 1.367 . S
C1319 C1327 1.433 . S
C1320 H1316 0.929 . S
C1320 C1322 1.378 . S
C1320 C1324 1.350 . S
C1321 C1324 1.463 . S
C1321 C1326 1.350 . S
C1321 N1329 1.427 . S
C1322 H1313 0.930 . S
C1322 C1320 1.378 . S
C1322 C1323 1.367 . S
C1323 C1322 1.367 . S
C1323 C1325 1.433 . S
C1324 C1320 1.350 . S
C1324 C1321 1.463 . S
C1324 N1328 1.427 . S
C1325 H1315 0.929 . S
C1325 C1323 1.433 . S
C1325 N1328 1.384 . S
C1326 H1317 0.929 . S
C1326 C1318 1.378 . S
C1326 C1321 1.350 . S
C1327 H1314 0.929 . S
C1327 C1319 1.433 . S
C1327 N1329 1.384 . S
N1328 C1324 1.427 . S
N1328 C1325 1.384 . S
N1329 C1321 1.427 . S
N1329 C1327 1.384 . S
H1330 C1336 0.930 . S
H1331 C1340 0.930 . S
H1332 C1345 0.929 . S
H1333 C1343 0.929 . S
H1334 C1338 0.929 . S
H1335 C1344 0.929 . S
C1336 H1330 0.930 . S
C1336 C1337 1.367 . S
C1336 C1344 1.378 . S
C1337 C1336 1.367 . S
C1337 C1345 1.433 . S
C1338 H1334 0.929 . S
C1338 C1340 1.378 . S
C1338 C1342 1.350 . S
C1339 C1342 1.463 . S
C1339 C1344 1.350 . S
C1339 N1347 1.427 . S
C1340 H1331 0.930 . S
C1340 C1338 1.378 . S
C1340 C1341 1.367 . S
C1341 C1340 1.367 . S
C1341 C1343 1.433 . S
C1342 C1338 1.350 . S
C1342 C1339 1.463 . S
C1342 N1346 1.427 . S
C1343 H1333 0.929 . S
C1343 C1341 1.433 . S
C1343 N1346 1.384 . S
C1344 H1335 0.929 . S
C1344 C1336 1.378 . S
C1344 C1339 1.350 . S
C1345 H1332 0.929 . S
C1345 C1337 1.433 . S
C1345 N1347 1.384 . S
N1346 C1342 1.427 . S
N1346 C1343 1.384 . S
N1347 C1339 1.427 . S
N1347 C1345 1.384 . S
H1348 C1354 0.930 . S
H1349 C1358 0.930 . S
H1350 C1363 0.929 . S
H1351 C1361 0.929 . S
H1352 C1356 0.929 . S
H1353 C1362 0.929 . S
C1354 H1348 0.930 . S
C1354 C1355 1.367 . S
C1354 C1362 1.378 . S
C1355 C1354 1.367 . S
C1355 C1363 1.433 . S
C1356 H1352 0.929 . S
C1356 C1358 1.378 . S
C1356 C1360 1.350 . S
C1357 C1360 1.463 . S
C1357 C1362 1.350 . S
C1357 N1365 1.427 . S
C1358 H1349 0.930 . S
C1358 C1356 1.378 . S
C1358 C1359 1.367 . S
C1359 C1358 1.367 . S
C1359 C1361 1.433 . S
C1360 C1356 1.350 . S
C1360 C1357 1.463 . S
C1360 N1364 1.427 . S
C1361 H1351 0.929 . S
C1361 C1359 1.433 . S
C1361 N1364 1.384 . S
C1362 H1353 0.929 . S
C1362 C1354 1.378 . S
C1362 C1357 1.350 . S
C1363 H1350 0.929 . S
C1363 C1355 1.433 . S
C1363 N1365 1.384 . S
N1364 C1360 1.427 . S
N1364 C1361 1.384 . S
N1365 C1357 1.427 . S
N1365 C1363 1.384 . S
H1366 C1372 0.930 . S
H1367 C1376 0.930 . S
H1368 C1381 0.929 . S
H1369 C1379 0.929 . S
H1370 C1374 0.929 . S
H1371 C1380 0.929 . S
C1372 H1366 0.930 . S
C1372 C1373 1.367 . S
C1372 C1380 1.378 . S
C1373 C1372 1.367 . S
C1373 C1381 1.433 . S
C1374 H1370 0.929 . S
C1374 C1376 1.378 . S
C1374 C1378 1.350 . S
C1375 C1378 1.463 . S
C1375 C1380 1.350 . S
C1375 N1383 1.427 . S
C1376 H1367 0.930 . S
C1376 C1374 1.378 . S
C1376 C1377 1.367 . S
C1377 C1376 1.367 . S
C1377 C1379 1.433 . S
C1378 C1374 1.350 . S
C1378 C1375 1.463 . S
C1378 N1382 1.427 . S
C1379 H1369 0.929 . S
C1379 C1377 1.433 . S
C1379 N1382 1.384 . S
C1380 H1371 0.929 . S
C1380 C1372 1.378 . S
C1380 C1375 1.350 . S
C1381 H1368 0.929 . S
C1381 C1373 1.433 . S
C1381 N1383 1.384 . S
N1382 C1378 1.427 . S
N1382 C1379 1.384 . S
N1383 C1375 1.427 . S
N1383 C1381 1.384 . S
H1384 C1390 0.930 . S
H1385 C1394 0.930 . S
H1386 C1399 0.929 . S
H1387 C1397 0.929 . S
H1388 C1392 0.929 . S
H1389 C1398 0.929 . S
C1390 H1384 0.930 . S
C1390 C1391 1.367 . S
C1390 C1398 1.378 . S
C1391 C1390 1.367 . S
C1391 C1399 1.433 . S
C1392 H1388 0.929 . S
C1392 C1394 1.378 . S
C1392 C1396 1.350 . S
C1393 C1396 1.463 . S
C1393 C1398 1.350 . S
C1393 N1401 1.427 . S
C1394 H1385 0.930 . S
C1394 C1392 1.378 . S
C1394 C1395 1.367 . S
C1395 C1394 1.367 . S
C1395 C1397 1.433 . S
C1396 C1392 1.350 . S
C1396 C1393 1.463 . S
C1396 N1400 1.427 . S
C1397 H1387 0.929 . S
C1397 C1395 1.433 . S
C1397 N1400 1.384 . S
C1398 H1389 0.929 . S
C1398 C1390 1.378 . S
C1398 C1393 1.350 . S
C1399 H1386 0.929 . S
C1399 C1391 1.433 . S
C1399 N1401 1.384 . S
N1400 C1396 1.427 . S
N1400 C1397 1.384 . S
N1401 C1393 1.427 . S
N1401 C1399 1.384 . S
H1402 C1408 0.930 . S
H1403 C1412 0.930 . S
H1404 C1417 0.929 . S
H1405 C1415 0.929 . S
H1406 C1410 0.929 . S
H1407 C1416 0.929 . S
C1408 H1402 0.930 . S
C1408 C1409 1.367 . S
C1408 C1416 1.378 . S
C1409 C1408 1.367 . S
C1409 C1417 1.433 . S
C1410 H1406 0.929 . S
C1410 C1412 1.378 . S
C1410 C1414 1.350 . S
C1411 C1414 1.463 . S
C1411 C1416 1.350 . S
C1411 N1419 1.427 . S
C1412 H1403 0.930 . S
C1412 C1410 1.378 . S
C1412 C1413 1.367 . S
C1413 C1412 1.367 . S
C1413 C1415 1.433 . S
C1414 C1410 1.350 . S
C1414 C1411 1.463 . S
C1414 N1418 1.427 . S
C1415 H1405 0.929 . S
C1415 C1413 1.433 . S
C1415 N1418 1.384 . S
C1416 H1407 0.929 . S
C1416 C1408 1.378 . S
C1416 C1411 1.350 . S
C1417 H1404 0.929 . S
C1417 C1409 1.433 . S
C1417 N1419 1.384 . S
N1418 C1414 1.427 . S
N1418 C1415 1.384 . S
N1419 C1411 1.427 . S
N1419 C1417 1.384 . S
H1420 C1426 0.930 . S
H1421 C1430 0.930 . S
H1422 C1435 0.929 . S
H1423 C1433 0.929 . S
H1424 C1428 0.929 . S
H1425 C1434 0.929 . S
C1426 H1420 0.930 . S
C1426 C1427 1.367 . S
C1426 C1434 1.378 . S
C1427 C1426 1.367 . S
C1427 C1435 1.433 . S
C1428 H1424 0.929 . S
C1428 C1430 1.378 . S
C1428 C1432 1.350 . S
C1429 C1432 1.463 . S
C1429 C1434 1.350 . S
C1429 N1437 1.427 . S
C1430 H1421 0.930 . S
C1430 C1428 1.378 . S
C1430 C1431 1.367 . S
C1431 C1430 1.367 . S
C1431 C1433 1.433 . S
C1432 C1428 1.350 . S
C1432 C1429 1.463 . S
C1432 N1436 1.427 . S
C1433 H1423 0.929 . S
C1433 C1431 1.433 . S
C1433 N1436 1.384 . S
C1434 H1425 0.929 . S
C1434 C1426 1.378 . S
C1434 C1429 1.350 . S
C1435 H1422 0.929 . S
C1435 C1427 1.433 . S
C1435 N1437 1.384 . S
N1436 C1432 1.427 . S
N1436 C1433 1.384 . S
N1437 C1429 1.427 . S
N1437 C1435 1.384 . S
H1438 C1444 0.930 . S
H1439 C1448 0.930 . S
H1440 C1453 0.929 . S
H1441 C1451 0.929 . S
H1442 C1446 0.929 . S
H1443 C1452 0.929 . S
C1444 H1438 0.930 . S
C1444 C1445 1.367 . S
C1444 C1452 1.378 . S
C1445 C1444 1.367 . S
C1445 C1453 1.433 . S
C1446 H1442 0.929 . S
C1446 C1448 1.378 . S
C1446 C1450 1.350 . S
C1447 C1450 1.463 . S
C1447 C1452 1.350 . S
C1447 N1455 1.427 . S
C1448 H1439 0.930 . S
C1448 C1446 1.378 . S
C1448 C1449 1.367 . S
C1449 C1448 1.367 . S
C1449 C1451 1.433 . S
C1450 C1446 1.350 . S
C1450 C1447 1.463 . S
C1450 N1454 1.427 . S
C1451 H1441 0.929 . S
C1451 C1449 1.433 . S
C1451 N1454 1.384 . S
C1452 H1443 0.929 . S
C1452 C1444 1.378 . S
C1452 C1447 1.350 . S
C1453 H1440 0.929 . S
C1453 C1445 1.433 . S
C1453 N1455 1.384 . S
N1454 C1450 1.427 . S
N1454 C1451 1.384 . S
N1455 C1447 1.427 . S
N1455 C1453 1.384 . S
H1456 C1462 0.930 . S
H1457 C1466 0.930 . S
H1458 C1471 0.929 . S
H1459 C1469 0.929 . S
H1460 C1464 0.929 . S
H1461 C1470 0.929 . S
C1462 H1456 0.930 . S
C1462 C1463 1.367 . S
C1462 C1470 1.378 . S
C1463 C1462 1.367 . S
C1463 C1471 1.433 . S
C1464 H1460 0.929 . S
C1464 C1466 1.378 . S
C1464 C1468 1.350 . S
C1465 C1468 1.463 . S
C1465 C1470 1.350 . S
C1465 N1473 1.427 . S
C1466 H1457 0.930 . S
C1466 C1464 1.378 . S
C1466 C1467 1.367 . S
C1467 C1466 1.367 . S
C1467 C1469 1.433 . S
C1468 C1464 1.350 . S
C1468 C1465 1.463 . S
C1468 N1472 1.427 . S
C1469 H1459 0.929 . S
C1469 C1467 1.433 . S
C1469 N1472 1.384 . S
C1470 H1461 0.929 . S
C1470 C1462 1.378 . S
C1470 C1465 1.350 . S
C1471 H1458 0.929 . S
C1471 C1463 1.433 . S
C1471 N1473 1.384 . S
N1472 C1468 1.427 . S
N1472 C1469 1.384 . S
N1473 C1465 1.427 . S
N1473 C1471 1.384 . S
H1474 C1480 0.930 . S
H1475 C1484 0.930 . S
H1476 C1489 0.929 . S
H1477 C1487 0.929 . S
H1478 C1482 0.929 . S
H1479 C1488 0.929 . S
C1480 H1474 0.930 . S
C1480 C1481 1.367 . S
C1480 C1488 1.378 . S
C1481 C1480 1.367 . S
C1481 C1489 1.433 . S
C1482 H1478 0.929 . S
C1482 C1484 1.378 . S
C1482 C1486 1.350 . S
C1483 C1486 1.463 . S
C1483 C1488 1.350 . S
C1483 N1491 1.427 . S
C1484 H1475 0.930 . S
C1484 C1482 1.378 . S
C1484 C1485 1.367 . S
C1485 C1484 1.367 . S
C1485 C1487 1.433 . S
C1486 C1482 1.350 . S
C1486 C1483 1.463 . S
C1486 N1490 1.427 . S
C1487 H1477 0.929 . S
C1487 C1485 1.433 . S
C1487 N1490 1.384 . S
C1488 H1479 0.929 . S
C1488 C1480 1.378 . S
C1488 C1483 1.350 . S
C1489 H1476 0.929 . S
C1489 C1481 1.433 . S
C1489 N1491 1.384 . S
N1490 C1486 1.427 . S
N1490 C1487 1.384 . S
N1491 C1483 1.427 . S
N1491 C1489 1.384 . S
H1492 C1498 0.930 . S
H1493 C1502 0.930 . S
H1494 C1507 0.929 . S
H1495 C1505 0.929 . S
H1496 C1500 0.929 . S
H1497 C1506 0.929 . S
C1498 H1492 0.930 . S
C1498 C1499 1.367 . S
C1498 C1506 1.378 . S
C1499 C1498 1.367 . S
C1499 C1507 1.433 . S
C1500 H1496 0.929 . S
C1500 C1502 1.378 . S
C1500 C1504 1.350 . S
C1501 C1504 1.463 . S
C1501 C1506 1.350 . S
C1501 N1509 1.427 . S
C1502 H1493 0.930 . S
C1502 C1500 1.378 . S
C1502 C1503 1.367 . S
C1503 C1502 1.367 . S
C1503 C1505 1.433 . S
C1504 C1500 1.350 . S
C1504 C1501 1.463 . S
C1504 N1508 1.427 . S
C1505 H1495 0.929 . S
C1505 C1503 1.433 . S
C1505 N1508 1.384 . S
C1506 H1497 0.929 . S
C1506 C1498 1.378 . S
C1506 C1501 1.350 . S
C1507 H1494 0.929 . S
C1507 C1499 1.433 . S
C1507 N1509 1.384 . S
N1508 C1504 1.427 . S
N1508 C1505 1.384 . S
N1509 C1501 1.427 . S
N1509 C1507 1.384 . S
H1510 C1516 0.930 . S
H1511 C1520 0.930 . S
H1512 C1525 0.929 . S
H1513 C1523 0.929 . S
H1514 C1518 0.929 . S
H1515 C1524 0.929 . S
C1516 H1510 0.930 . S
C1516 C1517 1.367 . S
C1516 C1524 1.378 . S
C1517 C1516 1.367 . S
C1517 C1525 1.433 . S
C1518 H1514 0.929 . S
C1518 C1520 1.378 . S
C1518 C1522 1.350 . S
C1519 C1522 1.463 . S
C1519 C1524 1.350 . S
C1519 N1527 1.427 . S
C1520 H1511 0.930 . S
C1520 C1518 1.378 . S
C1520 C1521 1.367 . S
C1521 C1520 1.367 . S
C1521 C1523 1.433 . S
C1522 C1518 1.350 . S
C1522 C1519 1.463 . S
C1522 N1526 1.427 . S
C1523 H1513 0.929 . S
C1523 C1521 1.433 . S
C1523 N1526 1.384 . S
C1524 H1515 0.929 . S
C1524 C1516 1.378 . S
C1524 C1519 1.350 . S
C1525 H1512 0.929 . S
C1525 C1517 1.433 . S
C1525 N1527 1.384 . S
N1526 C1522 1.427 . S
N1526 C1523 1.384 . S
N1527 C1519 1.427 . S
N1527 C1525 1.384 . S
H1528 C1534 0.930 . S
H1529 C1538 0.930 . S
H1530 C1543 0.929 . S
H1531 C1541 0.929 . S
H1532 C1536 0.929 . S
H1533 C1542 0.929 . S
C1534 H1528 0.930 . S
C1534 C1535 1.367 . S
C1534 C1542 1.378 . S
C1535 C1534 1.367 . S
C1535 C1543 1.433 . S
C1536 H1532 0.929 . S
C1536 C1538 1.378 . S
C1536 C1540 1.350 . S
C1537 C1540 1.463 . S
C1537 C1542 1.350 . S
C1537 N1545 1.427 . S
C1538 H1529 0.930 . S
C1538 C1536 1.378 . S
C1538 C1539 1.367 . S
C1539 C1538 1.367 . S
C1539 C1541 1.433 . S
C1540 C1536 1.350 . S
C1540 C1537 1.463 . S
C1540 N1544 1.427 . S
C1541 H1531 0.929 . S
C1541 C1539 1.433 . S
C1541 N1544 1.384 . S
C1542 H1533 0.929 . S
C1542 C1534 1.378 . S
C1542 C1537 1.350 . S
C1543 H1530 0.929 . S
C1543 C1535 1.433 . S
C1543 N1545 1.384 . S
N1544 C1540 1.427 . S
N1544 C1541 1.384 . S
N1545 C1537 1.427 . S
N1545 C1543 1.384 . S
H1546 C1552 0.930 . S
H1547 C1556 0.930 . S
H1548 C1561 0.929 . S
H1549 C1559 0.929 . S
H1550 C1554 0.929 . S
H1551 C1560 0.929 . S
C1552 H1546 0.930 . S
C1552 C1553 1.367 . S
C1552 C1560 1.378 . S
C1553 C1552 1.367 . S
C1553 C1561 1.433 . S
C1554 H1550 0.929 . S
C1554 C1556 1.378 . S
C1554 C1558 1.350 . S
C1555 C1558 1.463 . S
C1555 C1560 1.350 . S
C1555 N1563 1.427 . S
C1556 H1547 0.930 . S
C1556 C1554 1.378 . S
C1556 C1557 1.367 . S
C1557 C1556 1.367 . S
C1557 C1559 1.433 . S
C1558 C1554 1.350 . S
C1558 C1555 1.463 . S
C1558 N1562 1.427 . S
C1559 H1549 0.929 . S
C1559 C1557 1.433 . S
C1559 N1562 1.384 . S
C1560 H1551 0.929 . S
C1560 C1552 1.378 . S
C1560 C1555 1.350 . S
C1561 H1548 0.929 . S
C1561 C1553 1.433 . S
C1561 N1563 1.384 . S
N1562 C1558 1.427 . S
N1562 C1559 1.384 . S
N1563 C1555 1.427 . S
N1563 C1561 1.384 . S
H1564 C1570 0.930 . S
H1565 C1574 0.930 . S
H1566 C1579 0.929 . S
H1567 C1577 0.929 . S
H1568 C1572 0.929 . S
H1569 C1578 0.929 . S
C1570 H1564 0.930 . S
C1570 C1571 1.367 . S
C1570 C1578 1.378 . S
C1571 C1570 1.367 . S
C1571 C1579 1.433 . S
C1572 H1568 0.929 . S
C1572 C1574 1.378 . S
C1572 C1576 1.350 . S
C1573 C1576 1.463 . S
C1573 C1578 1.350 . S
C1573 N1581 1.427 . S
C1574 H1565 0.930 . S
C1574 C1572 1.378 . S
C1574 C1575 1.367 . S
C1575 C1574 1.367 . S
C1575 C1577 1.433 . S
C1576 C1572 1.350 . S
C1576 C1573 1.463 . S
C1576 N1580 1.427 . S
C1577 H1567 0.929 . S
C1577 C1575 1.433 . S
C1577 N1580 1.384 . S
C1578 H1569 0.929 . S
C1578 C1570 1.378 . S
C1578 C1573 1.350 . S
C1579 H1566 0.929 . S
C1579 C1571 1.433 . S
C1579 N1581 1.384 . S
N1580 C1576 1.427 . S
N1580 C1577 1.384 . S
N1581 C1573 1.427 . S
N1581 C1579 1.384 . S
H1582 C1588 0.930 . S
H1583 C1592 0.930 . S
H1584 C1597 0.929 . S
H1585 C1595 0.929 . S
H1586 C1590 0.929 . S
H1587 C1596 0.929 . S
C1588 H1582 0.930 . S
C1588 C1589 1.367 . S
C1588 C1596 1.378 . S
C1589 C1588 1.367 . S
C1589 C1597 1.433 . S
C1590 H1586 0.929 . S
C1590 C1592 1.378 . S
C1590 C1594 1.350 . S
C1591 C1594 1.463 . S
C1591 C1596 1.350 . S
C1591 N1599 1.427 . S
C1592 H1583 0.930 . S
C1592 C1590 1.378 . S
C1592 C1593 1.367 . S
C1593 C1592 1.367 . S
C1593 C1595 1.433 . S
C1594 C1590 1.350 . S
C1594 C1591 1.463 . S
C1594 N1598 1.427 . S
C1595 H1585 0.929 . S
C1595 C1593 1.433 . S
C1595 N1598 1.384 . S
C1596 H1587 0.929 . S
C1596 C1588 1.378 . S
C1596 C1591 1.350 . S
C1597 H1584 0.929 . S
C1597 C1589 1.433 . S
C1597 N1599 1.384 . S
N1598 C1594 1.427 . S
N1598 C1595 1.384 . S
N1599 C1591 1.427 . S
N1599 C1597 1.384 . S
C455 C135 1.512 . S
C459 C8 1.591 . S
C473 C22 1.592 1_455 S
C477 C373 1.515 . S
C491 C163 1.523 . S
C495 C36 1.587 . S
C509 C345 1.522 . S
C513 C50 1.591 . S
C527 C64 1.591 . S
C531 C219 1.525 . S
C545 C401 1.510 . S
C549 C78 1.587 . S
C563 C92 1.586 . S
C567 C191 1.522 . S
C581 C429 1.519 . S
C585 C106 1.586 1_455 S
C599 C23 1.525 . S
C603 C120 1.590 . S
C617 C134 1.588 1_655 S
C621 C261 1.509 . S
C635 C51 1.525 . S
C639 C148 1.590 . S
C653 C162 1.592 . S
C657 C233 1.520 . S
C671 C176 1.592 . S
C675 C107 1.521 . S
C689 C289 1.511 . S
C693 C190 1.591 . S
C707 C204 1.586 . S
C711 C79 1.519 . S
C725 C317 1.524 . S
C729 C218 1.590 1_655 S
C743 C359 1.520 . S
C747 C232 1.586 . S
C761 C149 1.525 . S
C765 C246 1.589 . S
C779 C260 1.592 . S
C783 C387 1.520 . S
C797 C121 1.508 . S
C801 C274 1.589 1_655 S
C815 C443 1.512 . S
C819 C288 1.586 . S
C833 C302 1.586 1_655 S
C837 C177 1.521 . S
C851 C415 1.525 . S
C855 C316 1.588 . S
C869 C205 1.515 . S
C873 C330 1.586 . S
C887 C247 1.525 . S
C891 C344 1.589 . S
C905 C358 1.591 . S
C909 C37 1.522 . S
C923 C372 1.586 . S
C927 C275 1.522 . S
C941 C386 1.586 1_455 S
C945 C9 1.511 . S
C959 C331 1.525 . S
C963 C400 1.588 . S
C977 C414 1.586 1_455 S
C981 C65 1.511 . S
C995 C428 1.586 . S
C999 C303 1.515 . S
C1013 C442 1.589 . S
C1017 C93 1.508 . S
C1031 C342 1.451 . S
C1035 C6 1.451 . S
C1049 C20 1.454 . S
C1053 C132 1.454 . S
C1067 C34 1.451 . S
C1071 C370 1.451 . S
C1085 C48 1.452 . S
C1089 C160 1.452 . S
C1103 C62 1.451 . S
C1107 C398 1.451 . S
C1121 C76 1.453 . S
C1125 C188 1.453 . S
C1139 C426 1.452 . S
C1143 C90 1.452 . S
C1157 C104 1.451 . S
C1161 C216 1.451 . S
C1175 C118 1.453 . S
C1179 C230 1.453 . S
C1193 C146 1.451 . S
C1197 C258 1.451 . S
C1211 C286 1.454 . S
C1215 C174 1.454 . S
C1229 C314 1.453 . S
C1233 C202 1.453 . S
C1247 C244 1.451 . S
C1251 C356 1.451 . S
C1265 C384 1.454 . S
C1269 C272 1.454 . S
C1283 C300 1.453 . S
C1287 C412 1.453 . S
C1301 C440 1.451 . S
C1305 C328 1.451 . S
C1319 C301 1.311 . S
C1323 C7 1.306 . S
C1337 C315 1.316 . S
C1341 C21 1.302 . S
C1355 C35 1.303 . S
C1359 C329 1.315 . S
C1373 C287 1.304 . S
C1377 C49 1.314 . S
C1391 C273 1.315 . S
C1395 C63 1.303 . S
C1409 C231 1.302 . S
C1413 C77 1.316 . S
C1427 C91 1.305 . S
C1431 C245 1.313 . S
C1445 C259 1.302 . S
C1449 C105 1.316 . S
C1463 C413 1.316 . S
C1467 C119 1.302 . S
C1481 C427 1.311 . S
C1485 C133 1.307 . S
C1499 C441 1.313 . S
C1503 C147 1.304 . S
C1517 C161 1.302 . S
C1521 C399 1.316 . S
C1535 C385 1.315 . S
C1539 C175 1.303 . S
C1553 C343 1.309 . S
C1557 C189 1.310 . S
C1571 C357 1.304 . S
C1575 C203 1.314 . S
C1589 C371 1.303 . S
C1593 C217 1.315 . S
