# Generated by pormake.
# Topology cdt, (3)-cn, num edge types: 1
# Building blocks:
#     Node 0, Type 0, BuildingBlock: OLANEW_clean_sbu_2, # of connection points: 3
#     Node 1, Type 0, BuildingBlock: OLANEW_clean_sbu_2, # of connection points: 3
#     Node 2, Type 0, BuildingBlock: OLANEW_clean_sbu_2, # of connection points: 3
#     Node 3, Type 0, BuildingBlock: OLANEW_clean_sbu_2, # of connection points: 3
#     Node 4, Type 0, BuildingBlock: OLANEW_clean_sbu_2, # of connection points: 3
#     Node 5, Type 0, BuildingBlock: OLANEW_clean_sbu_2, # of connection points: 3
#     Node 6, Type 0, BuildingBlock: OLANEW_clean_sbu_2, # of connection points: 3
#     Node 7, Type 0, BuildingBlock: OLANEW_clean_sbu_2, # of connection points: 3
#     Edge 8, Type (0, 0), BuildingBlock: UVAHIK_clean_linker_0, # of connection points: 2
#     Edge 9, Type (0, 0), BuildingBlock: UVAHIK_clean_linker_0, # of connection points: 2
#     Edge 10, Type (0, 0), BuildingBlock: UVAHIK_clean_linker_0, # of connection points: 2
#     Edge 11, Type (0, 0), BuildingBlock: UVAHIK_clean_linker_0, # of connection points: 2
#     Edge 12, Type (0, 0), BuildingBlock: UVAHIK_clean_linker_0, # of connection points: 2
#     Edge 13, Type (0, 0), BuildingBlock: UVAHIK_clean_linker_0, # of connection points: 2
#     Edge 14, Type (0, 0), BuildingBlock: UVAHIK_clean_linker_0, # of connection points: 2
#     Edge 15, Type (0, 0), BuildingBlock: UVAHIK_clean_linker_0, # of connection points: 2
#     Edge 16, Type (0, 0), BuildingBlock: UVAHIK_clean_linker_0, # of connection points: 2
#     Edge 17, Type (0, 0), BuildingBlock: UVAHIK_clean_linker_0, # of connection points: 2
#     Edge 18, Type (0, 0), BuildingBlock: UVAHIK_clean_linker_0, # of connection points: 2
#     Edge 19, Type (0, 0), BuildingBlock: UVAHIK_clean_linker_0, # of connection points: 2
# Relax obj value: 0.003
# Max RMSD: 0.043
# Mean RMSD: 0.043
data_MOF--net-cdt--node1-OLANEW_clean_sbu_2--edge1-UVAHIK_clean_linker_0
_symmetry_space_group_name_H-M    P1
_symmetry_Int_Tables_number       1
_symmetry_cell_setting            triclinic
loop_
_symmetry_equiv_pos_as_xyz
'x, y, z'
_cell_length_a     54.479167
_cell_length_b     26.796313
_cell_length_c     61.996173
_cell_angle_alpha  89.923054
_cell_angle_beta   89.842334
_cell_angle_gamma 89.934024
loop_
_atom_site_label
_atom_site_type_symbol
_atom_site_fract_x
_atom_site_fract_y
_atom_site_fract_z
_atom_type_partial_charge
O0 O 0.44228 0.20443 0.12663 0.0
Cd1 Cd 0.42389 0.19305 0.09103 0.0
O2 O 0.44428 0.12414 0.13382 0.0
Cd3 Cd 0.423 0.10424 0.1053 0.0
O4 O 0.38921 0.08467 0.0884 0.0
C5 C 0.37132 0.11502 0.08973 0.0
O6 O 0.37449 0.15733 0.10004 0.0
C7 C 0.44854 0.16908 0.13919 0.0
C8 C 0.433 0.27463 0.06424 0.0
O9 O 0.41452 0.27414 0.07709 0.0
O10 O 0.44714 0.23638 0.064 0.0
O11 O 0.06794 0.79327 0.12712 0.0
Cd12 Cd 0.08167 0.80549 0.08988 0.0
O13 O 0.06519 0.87368 0.13376 0.0
Cd14 Cd 0.08416 0.89417 0.10397 0.0
O15 O 0.11698 0.91804 0.08649 0.0
C16 C 0.12334 0.96355 0.08776 0.0
O17 O 0.10902 0.99483 0.09821 0.0
C18 C 0.06219 0.82871 0.1398 0.0
C19 C 0.0707 0.72296 0.06428 0.0
O20 O 0.09154 0.72678 0.07368 0.0
O21 O 0.05509 0.75827 0.06693 0.0
O22 O 0.44094 0.25365 0.3732 0.0
Cd23 Cd 0.42155 0.26255 0.40859 0.0
O24 O 0.43478 0.3312 0.36288 0.0
Cd25 Cd 0.41364 0.35096 0.39163 0.0
O26 O 0.38153 0.37863 0.40911 0.0
C27 C 0.36221 0.3521 0.40918 0.0
O28 O 0.36285 0.30799 0.39995 0.0
C29 C 0.44332 0.28788 0.35914 0.0
C30 C 0.44102 0.19232 0.43706 0.0
O31 O 0.42353 0.18092 0.4242 0.0
O32 O 0.44912 0.23721 0.4367 0.0
O33 O 0.06492 0.74634 0.37704 0.0
Cd34 Cd 0.07847 0.73253 0.41413 0.0
O35 O 0.07271 0.66949 0.3666 0.0
Cd36 Cd 0.09125 0.64764 0.39636 0.0
O37 O 0.12259 0.61586 0.41354 0.0
C38 C 0.12584 0.56893 0.4127 0.0
O39 O 0.10937 0.54135 0.40288 0.0
C40 C 0.06449 0.71291 0.36251 0.0
C41 C 0.05841 0.80474 0.44141 0.0
O42 O 0.07931 0.81144 0.4323 0.0
O43 O 0.04714 0.76366 0.43777 0.0
O44 O 0.50173 0.79897 0.87953 0.0
Cd45 Cd 0.48843 0.80707 0.91704 0.0
O46 O 0.53808 0.82788 0.88791 0.0
Cd47 Cd 0.57503 0.85652 0.88138 0.0
O48 O 0.61246 0.88373 0.87659 0.0
C49 C 0.62254 0.90914 0.89141 0.0
O50 O 0.61007 0.91848 0.90912 0.0
C51 C 0.52327 0.81149 0.87376 0.0
C52 C 0.48113 0.71543 0.93747 0.0
O53 O 0.46407 0.73579 0.9263 0.0
O54 O 0.50175 0.7382 0.93882 0.0
O55 O 0.98979 0.20583 0.88225 0.0
Cd56 Cd 0.99691 0.19534 0.92091 0.0
O57 O 0.95261 0.17796 0.88797 0.0
Cd58 Cd 0.91582 0.15131 0.87964 0.0
O59 O 0.87807 0.12527 0.87582 0.0
C60 C 0.8728 0.08016 0.88017 0.0
O61 O 0.89039 0.04992 0.88648 0.0
C62 C 0.96877 0.19443 0.87493 0.0
C63 C 0.00942 0.28416 0.94157 0.0
O64 O 0.02602 0.25483 0.93415 0.0
O65 O 0.98691 0.27165 0.93905 0.0
O66 O 0.56661 0.76045 0.63483 0.0
Cd67 Cd 0.57182 0.74132 0.59657 0.0
O68 O 0.60572 0.75205 0.64281 0.0
Cd69 Cd 0.61748 0.72905 0.61061 0.0
O70 O 0.64179 0.68657 0.58941 0.0
C71 C 0.63823 0.63992 0.58749 0.0
O72 O 0.61899 0.61993 0.59694 0.0
C73 C 0.58384 0.7618 0.6486 0.0
C74 C 0.55117 0.81586 0.57092 0.0
O75 O 0.53796 0.78072 0.57881 0.0
O76 O 0.57421 0.81567 0.57503 0.0
O77 O 0.93419 0.25295 0.63423 0.0
Cd78 Cd 0.92643 0.2665 0.59584 0.0
O79 O 0.89547 0.26504 0.64296 0.0
Cd80 Cd 0.88275 0.28581 0.61079 0.0
O81 O 0.85772 0.32657 0.58966 0.0
C82 C 0.83593 0.31039 0.58765 0.0
O83 O 0.83 0.268 0.59697 0.0
C84 C 0.91734 0.25448 0.64845 0.0
C85 C 0.94784 0.19166 0.5708 0.0
O86 O 0.9596 0.23171 0.57528 0.0
O87 O 0.92592 0.18713 0.57809 0.0
C88 C 0.32669 0.13362 0.08464 0.0
C89 C 0.3466 0.10077 0.08201 0.0
C90 C 0.30286 0.11846 0.07962 0.0
C91 C 0.26592 0.0045 0.07626 0.0
H92 H 0.21626 0.09466 0.05411 0.0
C93 C 0.1646 0.94514 0.07148 0.0
C94 C 0.14787 0.97977 0.08015 0.0
C95 C 0.18874 0.95929 0.06683 0.0
C96 C 0.22992 0.06906 0.06034 0.0
H97 H 0.35723 0.02703 0.07097 0.0
H98 H 0.3156 0.00071 0.06203 0.0
H99 H 0.2592 0.1207 0.05457 0.0
H100 H 0.14306 0.05707 0.08965 0.0
H101 H 0.18512 0.08155 0.08176 0.0
H102 H 0.23666 0.95347 0.08265 0.0
C103 C 0.31841 0.03797 0.0683 0.0
C104 C 0.25451 0.08397 0.06061 0.0
C105 C 0.34228 0.05315 0.07332 0.0
C106 C 0.15547 0.0294 0.08305 0.0
C107 C 0.17959 0.04355 0.07838 0.0
C108 C 0.24136 0.98961 0.07599 0.0
C109 C 0.29836 0.0701 0.07182 0.0
C110 C 0.27273 0.05226 0.069 0.0
C111 C 0.19667 0.00839 0.0707 0.0
C112 C 0.223 0.02209 0.06845 0.0
H113 H 0.32935 0.17061 0.09125 0.0
H114 H 0.28785 0.144 0.08275 0.0
H115 H 0.2794 0.9794 0.08313 0.0
H116 H 0.15929 0.90666 0.06893 0.0
H117 H 0.20136 0.9315 0.06063 0.0
C118 C 0.33733 0.42178 0.42521 0.0
C119 C 0.33863 0.37287 0.4171 0.0
C120 C 0.31464 0.44327 0.43031 0.0
C121 C 0.24846 0.41481 0.43913 0.0
H122 H 0.23884 0.54785 0.41596 0.0
C123 C 0.15344 0.49501 0.41757 0.0
C124 C 0.14922 0.54643 0.42009 0.0
C125 C 0.17649 0.47454 0.422 0.0
C126 C 0.24127 0.5111 0.42293 0.0
H127 H 0.31718 0.30737 0.409 0.0
H128 H 0.27771 0.34498 0.41761 0.0
H129 H 0.27953 0.5106 0.41524 0.0
H130 H 0.16553 0.61623 0.43041 0.0
H131 H 0.20571 0.58038 0.43831 0.0
H132 H 0.20994 0.41489 0.44619 0.0
C133 C 0.29419 0.36666 0.42024 0.0
C134 C 0.26465 0.48969 0.42252 0.0
C135 C 0.31686 0.34517 0.41516 0.0
C136 C 0.16821 0.57652 0.42815 0.0
C137 C 0.19129 0.55604 0.43257 0.0
C138 C 0.22504 0.43625 0.43953 0.0
C139 C 0.29276 0.41634 0.42742 0.0
C140 C 0.26845 0.44092 0.43022 0.0
C141 C 0.19585 0.50501 0.42907 0.0
C142 C 0.22109 0.48428 0.43105 0.0
H143 H 0.35378 0.44404 0.42704 0.0
H144 H 0.31421 0.48136 0.43613 0.0
H145 H 0.25084 0.37748 0.4455 0.0
H146 H 0.13921 0.47072 0.41144 0.0
H147 H 0.17941 0.4352 0.41893 0.0
C148 C 0.82809 0.09508 0.87294 0.0
C149 C 0.84708 0.06248 0.87906 0.0
C150 C 0.80371 0.07885 0.87277 0.0
C151 C 0.76514 0.9651 0.87217 0.0
H152 H 0.71541 0.05324 0.89582 0.0
C153 C 0.6616 0.91723 0.87011 0.0
C154 C 0.64802 0.92759 0.8889 0.0
C155 C 0.68573 0.93433 0.86791 0.0
C156 C 0.72909 0.02808 0.88926 0.0
H157 H 0.85535 0.98698 0.88948 0.0
H158 H 0.81284 0.95888 0.88937 0.0
H159 H 0.7579 0.0812 0.89377 0.0
H160 H 0.64916 0.96408 0.9201 0.0
H161 H 0.69123 0.99345 0.91633 0.0
H162 H 0.7364 0.9115 0.86819 0.0
C163 C 0.81681 0.99684 0.88447 0.0
C164 C 0.7534 0.04433 0.88785 0.0
C165 C 0.84118 0.01306 0.88465 0.0
C166 C 0.65906 0.95555 0.90539 0.0
C167 C 0.68315 0.97267 0.90318 0.0
C168 C 0.7408 0.94887 0.87356 0.0
C169 C 0.79776 0.02964 0.87869 0.0
C170 C 0.77175 0.01293 0.87941 0.0
C171 C 0.69679 0.96224 0.88443 0.0
C172 C 0.72252 0.98004 0.88226 0.0
H173 H 0.83201 0.13333 0.86845 0.0
H174 H 0.78951 0.10486 0.86795 0.0
H175 H 0.77878 0.94018 0.86539 0.0
H176 H 0.65362 0.89588 0.85707 0.0
H177 H 0.69564 0.92613 0.85316 0.0
C178 C 0.67927 0.62833 0.56972 0.0
C179 C 0.65736 0.60765 0.57775 0.0
C180 C 0.69879 0.59749 0.56359 0.0
C181 C 0.71663 0.46537 0.55285 0.0
H182 H 0.77816 0.5057 0.57876 0.0
C183 C 0.792 0.32699 0.57829 0.0
C184 C 0.81667 0.34227 0.57792 0.0
C185 C 0.77334 0.35984 0.57217 0.0
C186 C 0.76133 0.49419 0.57096 0.0
H187 H 0.63821 0.53828 0.58424 0.0
H188 H 0.67227 0.48466 0.57387 0.0
H189 H 0.74368 0.56309 0.57871 0.0
H190 H 0.84121 0.40285 0.56928 0.0
H191 H 0.80863 0.45998 0.55836 0.0
H192 H 0.73417 0.3956 0.54586 0.0
C193 C 0.67438 0.52465 0.57213 0.0
C194 C 0.74149 0.52721 0.57094 0.0
C195 C 0.65486 0.55547 0.57823 0.0
C196 C 0.82237 0.39005 0.56997 0.0
C197 C 0.80369 0.4229 0.56381 0.0
C198 C 0.73651 0.43228 0.55287 0.0
C199 C 0.69683 0.54531 0.56535 0.0
C200 C 0.71872 0.51278 0.56237 0.0
C201 C 0.77891 0.40869 0.56546 0.0
C202 C 0.75892 0.44588 0.56242 0.0
H203 H 0.68173 0.6684 0.56894 0.0
H204 H 0.7157 0.61456 0.55808 0.0
H205 H 0.69944 0.45339 0.54583 0.0
H206 H 0.78695 0.29038 0.58424 0.0
H207 H 0.75446 0.34774 0.57383 0.0
C208 C 0.42489 0.363 0.05318 0.0
C209 C 0.43792 0.31826 0.05023 0.0
C210 C 0.42972 0.40447 0.04018 0.0
C211 C 0.47683 0.4576 0.00336 0.0
H212 H 0.4234 0.5453 0.98697 0.0
C213 C 0.49374 0.65042 0.96434 0.0
C214 C 0.47693 0.66763 0.94887 0.0
C215 C 0.48923 0.60639 0.9758 0.0
C216 C 0.43853 0.52093 0.99114 0.0
H217 H 0.46604 0.2817 0.0311 0.0
H218 H 0.47403 0.35358 0.00801 0.0
H219 H 0.41478 0.47079 0.00801 0.0
H220 H 0.44254 0.65138 0.93283 0.0
H221 H 0.43499 0.57392 0.95233 0.0
H222 H 0.50048 0.50694 0.98589 0.0
C223 C 0.46046 0.35711 0.02071 0.0
C224 C 0.43362 0.4785 0.00353 0.0
C225 C 0.45577 0.31575 0.03386 0.0
C226 C 0.45576 0.63933 0.94478 0.0
C227 C 0.45136 0.59504 0.95608 0.0
C228 C 0.48172 0.49983 0.99081 0.0
C229 C 0.44754 0.40209 0.02373 0.0
C230 C 0.45272 0.44646 0.00996 0.0
C231 C 0.4679 0.57825 0.97191 0.0
C232 C 0.46266 0.53228 0.98466 0.0
H233 H 0.41112 0.36625 0.06575 0.0
H234 H 0.41972 0.43868 0.04327 0.0
H235 H 0.49207 0.43415 0.00818 0.0
H236 H 0.51018 0.6715 0.96794 0.0
H237 H 0.5022 0.59512 0.98808 0.0
C238 C 0.99783 0.36496 0.95923 0.0
C239 C 0.01606 0.33064 0.95303 0.0
C240 C 0.00405 0.40828 0.9705 0.0
C241 C 0.05149 0.45999 0.00591 0.0
H242 H 0.02294 0.58776 0.99056 0.0
C243 C 0.08285 0.64317 0.04609 0.0
C244 C 0.06476 0.67892 0.05088 0.0
C245 C 0.0772 0.60136 0.03361 0.0
C246 C 0.03085 0.55229 0.99525 0.0
H247 H 0.05514 0.31507 0.95368 0.0
H248 H 0.06595 0.39061 0.97344 0.0
H249 H 0.01241 0.51358 0.96979 0.0
H250 H 0.02651 0.69873 0.04638 0.0
H251 H 0.01649 0.62531 0.02503 0.0
H252 H 0.0696 0.49823 0.03158 0.0
C253 C 0.04684 0.38384 0.96966 0.0
C254 C 0.02485 0.50983 0.9833 0.0
C255 C 0.04065 0.34073 0.95824 0.0
C256 C 0.0409 0.67199 0.04289 0.0
C257 C 0.0352 0.63001 0.03052 0.0
C258 C 0.05736 0.50235 0.01796 0.0
C259 C 0.0286 0.418 0.97596 0.0
C260 C 0.03512 0.46324 0.9885 0.0
C261 C 0.05326 0.5941 0.02574 0.0
C262 C 0.04712 0.54907 0.01279 0.0
H263 H 0.97871 0.3583 0.95546 0.0
H264 H 0.98957 0.4337 0.97531 0.0
H265 H 0.05942 0.42445 0.0105 0.0
H266 H 0.10146 0.64755 0.05191 0.0
H267 H 0.09168 0.57494 0.02996 0.0
C268 C 0.44882 0.10335 0.44718 0.0
C269 C 0.45191 0.15442 0.45151 0.0
C270 C 0.45984 0.0674 0.46033 0.0
C271 C 0.48173 0.04376 0.51452 0.0
H272 H 0.52306 0.9423 0.4884 0.0
C273 C 0.51468 0.86468 0.55844 0.0
C274 C 0.54007 0.85555 0.55752 0.0
C275 C 0.50417 0.90241 0.5459 0.0
C276 C 0.5116 0.9705 0.49587 0.0
H277 H 0.46851 0.20793 0.47323 0.0
H278 H 0.4872 0.14479 0.49664 0.0
H279 H 0.50376 0.00601 0.46564 0.0
H280 H 0.57434 0.87837 0.54263 0.0
H281 H 0.55576 0.94348 0.5202 0.0
H282 H 0.48913 0.00753 0.5447 0.0
C283 C 0.47647 0.13281 0.4829 0.0
C284 C 0.50049 0.00666 0.48289 0.0
C285 C 0.46587 0.16883 0.46948 0.0
C286 C 0.55472 0.88465 0.5437 0.0
C287 C 0.54413 0.92171 0.53083 0.0
C288 C 0.49244 0.00698 0.52747 0.0
C289 C 0.47373 0.08182 0.47831 0.0
C290 C 0.48551 0.04366 0.49211 0.0
C291 C 0.51878 0.93102 0.53189 0.0
C292 C 0.50753 0.97014 0.51825 0.0
H293 H 0.43824 0.09112 0.4334 0.0
H294 H 0.45736 0.02827 0.45656 0.0
H295 H 0.47016 0.07183 0.52197 0.0
H296 H 0.50294 0.84297 0.569 0.0
H297 H 0.48455 0.90875 0.54688 0.0
C298 C 0.98309 0.15761 0.54927 0.0
C299 C 0.95927 0.15175 0.55765 0.0
C300 C 0.99391 0.11985 0.53693 0.0
C301 C 0.97877 0.00854 0.50436 0.0
H302 H 0.04759 0.97651 0.5123 0.0
C303 C 0.02405 0.83678 0.46454 0.0
C304 C 0.04745 0.84362 0.45541 0.0
C305 C 0.01343 0.874 0.47731 0.0
C306 C 0.02841 0.98534 0.50974 0.0
H307 H 0.92816 0.1015 0.55971 0.0
H308 H 0.94713 0.03543 0.53841 0.0
H309 H 0.02876 0.04224 0.53393 0.0
H310 H 0.07813 0.89481 0.45266 0.0
H311 H 0.05953 0.95981 0.47485 0.0
H312 H 0.97843 0.95158 0.48019 0.0
C313 C 0.95733 0.06951 0.54111 0.0
C314 C 0.01762 0.02304 0.52213 0.0
C315 C 0.94651 0.10729 0.55343 0.0
C316 C 0.06009 0.88831 0.45949 0.0
C317 C 0.04949 0.92548 0.4723 0.0
C318 C 0.98955 0.97079 0.492 0.0
C319 C 0.98117 0.07532 0.53271 0.0
C320 C 0.99266 0.03513 0.51957 0.0
C321 C 0.02598 0.91885 0.48127 0.0
C322 C 0.01451 0.95877 0.49454 0.0
H323 H 0.9934 0.19147 0.55217 0.0
H324 H 0.01216 0.12584 0.53046 0.0
H325 H 0.95961 0.01743 0.50173 0.0
H326 H 0.01384 0.80274 0.46176 0.0
H327 H 0.99543 0.86747 0.48421 0.0
C328 C 0.45427 0.3123 0.32125 0.0
C329 C 0.45397 0.27613 0.3377 0.0
C330 C 0.46107 0.29941 0.30022 0.0
C331 C 0.46059 0.19038 0.2648 0.0
H332 H 0.49318 0.27923 0.2245 0.0
C333 C 0.46532 0.14154 0.17492 0.0
C334 C 0.45844 0.18035 0.16089 0.0
C335 C 0.47118 0.1516 0.19641 0.0
C336 C 0.48402 0.25403 0.23555 0.0
H337 H 0.4622 0.19878 0.34523 0.0
H338 H 0.47426 0.17649 0.30859 0.0
H339 H 0.49205 0.3002 0.26284 0.0
H340 H 0.45381 0.26055 0.15815 0.0
H341 H 0.46356 0.27795 0.19564 0.0
H342 H 0.45168 0.14518 0.23761 0.0
C343 C 0.4688 0.21462 0.31188 0.0
C344 C 0.48339 0.26603 0.25751 0.0
C345 C 0.46199 0.22748 0.33291 0.0
C346 C 0.45897 0.22973 0.16851 0.0
C347 C 0.46472 0.23976 0.19003 0.0
C348 C 0.46117 0.17846 0.2429 0.0
C349 C 0.46775 0.25008 0.29518 0.0
C350 C 0.47124 0.2348 0.27232 0.0
C351 C 0.47019 0.20067 0.2044 0.0
C352 C 0.47245 0.2106 0.22793 0.0
H353 H 0.44827 0.35016 0.32437 0.0
H354 H 0.45985 0.32757 0.28772 0.0
H355 H 0.45071 0.16588 0.27568 0.0
H356 H 0.46536 0.10311 0.16952 0.0
H357 H 0.4758 0.12072 0.20694 0.0
C358 C 0.05643 0.68882 0.32413 0.0
C359 C 0.05607 0.72527 0.34042 0.0
C360 C 0.05104 0.70154 0.3028 0.0
C361 C 0.05364 0.80926 0.26646 0.0
H362 H 0.02064 0.72055 0.2266 0.0
C363 C 0.04774 0.85686 0.17625 0.0
C364 C 0.05395 0.81781 0.16212 0.0
C365 C 0.04279 0.84716 0.19799 0.0
C366 C 0.02996 0.74565 0.23753 0.0
H367 H 0.04852 0.80323 0.34721 0.0
H368 H 0.03898 0.8253 0.30997 0.0
H369 H 0.02117 0.70063 0.26507 0.0
H370 H 0.05864 0.73761 0.15956 0.0
H371 H 0.05039 0.72081 0.19749 0.0
H372 H 0.06314 0.85347 0.239 0.0
C373 C 0.04378 0.78701 0.31368 0.0
C374 C 0.03025 0.73426 0.25955 0.0
C375 C 0.04914 0.77429 0.33504 0.0
C376 C 0.05395 0.76859 0.17 0.0
C377 C 0.04907 0.75891 0.19175 0.0
C378 C 0.05339 0.8206 0.24448 0.0
C379 C 0.04518 0.751 0.29724 0.0
C380 C 0.04246 0.76551 0.27422 0.0
C381 C 0.044 0.79821 0.20612 0.0
C382 C 0.04192 0.78852 0.22968 0.0
H383 H 0.06163 0.65068 0.3277 0.0
H384 H 0.05254 0.67298 0.29051 0.0
H385 H 0.06355 0.83373 0.27725 0.0
H386 H 0.04735 0.89519 0.17069 0.0
H387 H 0.03851 0.87818 0.20853 0.0
C388 C 0.55425 0.78302 0.67834 0.0
C389 C 0.57835 0.77243 0.67157 0.0
C390 C 0.54892 0.79015 0.7002 0.0
C391 C 0.57217 0.75886 0.75421 0.0
H392 H 0.5271 0.86182 0.77339 0.0
C393 C 0.55459 0.79826 0.84455 0.0
C394 C 0.53031 0.80858 0.85075 0.0
C395 C 0.56098 0.79562 0.82272 0.0
C396 C 0.53954 0.83254 0.76828 0.0
H397 H 0.61586 0.76223 0.68249 0.0
H398 H 0.60655 0.7749 0.72054 0.0
H399 H 0.53728 0.85491 0.73516 0.0
H400 H 0.49351 0.82268 0.83902 0.0
H401 H 0.50452 0.81719 0.80094 0.0
H402 H 0.57423 0.73602 0.78723 0.0
C403 C 0.59173 0.77709 0.70896 0.0
C404 C 0.54538 0.82865 0.74637 0.0
C405 C 0.59707 0.77014 0.68712 0.0
C406 C 0.51244 0.81513 0.83471 0.0
C407 C 0.5188 0.81243 0.81289 0.0
C408 C 0.56628 0.76265 0.77609 0.0
C409 C 0.56756 0.78668 0.71578 0.0
C410 C 0.56172 0.79168 0.73909 0.0
C411 C 0.54317 0.80279 0.80663 0.0
C412 C 0.54983 0.79944 0.78339 0.0
H413 H 0.53939 0.78503 0.66681 0.0
H414 H 0.53008 0.79705 0.70496 0.0
H415 H 0.58453 0.72946 0.74907 0.0
H416 H 0.56857 0.79104 0.85651 0.0
H417 H 0.57993 0.78817 0.81847 0.0
C418 C 0.94719 0.23489 0.67816 0.0
C419 C 0.92308 0.24549 0.67149 0.0
C420 C 0.95255 0.22834 0.70005 0.0
C421 C 0.92884 0.25942 0.7542 0.0
H422 H 0.97243 0.15414 0.77357 0.0
C423 C 0.93999 0.21086 0.84425 0.0
C424 C 0.96368 0.19947 0.85162 0.0
C425 C 0.93537 0.21598 0.82219 0.0
C426 C 0.96044 0.18409 0.7684 0.0
H427 H 0.88565 0.25657 0.68262 0.0
H428 H 0.89498 0.2448 0.72062 0.0
H429 H 0.96392 0.16361 0.73513 0.0
H430 H 0.00129 0.18589 0.84175 0.0
H431 H 0.99333 0.1955 0.80323 0.0
H432 H 0.92538 0.28009 0.78737 0.0
C433 C 0.90981 0.24226 0.70899 0.0
C434 C 0.95556 0.18949 0.74638 0.0
C435 C 0.90444 0.24869 0.68716 0.0
C436 C 0.98278 0.19423 0.83651 0.0
C437 C 0.97818 0.19935 0.81444 0.0
C438 C 0.93374 0.25409 0.77618 0.0
C439 C 0.93394 0.2324 0.71572 0.0
C440 C 0.93959 0.22705 0.73905 0.0
C441 C 0.9544 0.21025 0.80702 0.0
C442 C 0.9495 0.21622 0.78357 0.0
H443 H 0.96199 0.23221 0.66652 0.0
H444 H 0.97136 0.22116 0.70474 0.0
H445 H 0.91681 0.28933 0.74905 0.0
H446 H 0.92509 0.21708 0.85549 0.0
H447 H 0.91682 0.22423 0.81703 0.0
loop_
_geom_bond_atom_site_label_1
_geom_bond_atom_site_label_2
_geom_bond_distance
_geom_bond_site_symmetry_2
_ccdc_geom_bond_type
O0 Cd1 2.300 . S
O0 C7 1.275 . S
Cd1 O0 2.300 . S
Cd1 O9 2.381 . S
Cd1 O10 2.378 . S
O2 Cd3 2.385 . S
O2 C7 1.255 . S
Cd3 O2 2.385 . S
Cd3 O4 2.317 . S
O4 Cd3 2.317 . S
O4 C5 1.232 . S
C5 O4 1.232 . S
C5 O6 1.218 . S
O6 C5 1.218 . S
C7 O0 1.275 . S
C7 O2 1.255 . S
C8 O9 1.258 . S
C8 O10 1.256 . S
O9 Cd1 2.381 . S
O9 C8 1.258 . S
O10 Cd1 2.378 . S
O10 C8 1.256 . S
O11 Cd12 2.300 . S
O11 C18 1.275 . S
Cd12 O11 2.300 . S
Cd12 O20 2.381 . S
Cd12 O21 2.378 . S
O13 Cd14 2.385 . S
O13 C18 1.255 . S
Cd14 O13 2.385 . S
Cd14 O15 2.317 . S
O15 Cd14 2.317 . S
O15 C16 1.232 . S
C16 O15 1.232 . S
C16 O17 1.218 . S
O17 C16 1.218 . S
C18 O11 1.275 . S
C18 O13 1.255 . S
C19 O20 1.258 . S
C19 O21 1.256 . S
O20 Cd12 2.381 . S
O20 C19 1.258 . S
O21 Cd12 2.378 . S
O21 C19 1.256 . S
O22 Cd23 2.300 . S
O22 C29 1.275 . S
Cd23 O22 2.300 . S
Cd23 O31 2.381 . S
Cd23 O32 2.378 . S
O24 Cd25 2.385 . S
O24 C29 1.255 . S
Cd25 O24 2.385 . S
Cd25 O26 2.317 . S
O26 Cd25 2.317 . S
O26 C27 1.232 . S
C27 O26 1.232 . S
C27 O28 1.218 . S
O28 C27 1.218 . S
C29 O22 1.275 . S
C29 O24 1.255 . S
C30 O31 1.258 . S
C30 O32 1.256 . S
O31 Cd23 2.381 . S
O31 C30 1.258 . S
O32 Cd23 2.378 . S
O32 C30 1.256 . S
O33 Cd34 2.300 . S
O33 C40 1.275 . S
Cd34 O33 2.300 . S
Cd34 O42 2.381 . S
Cd34 O43 2.378 . S
O35 Cd36 2.385 . S
O35 C40 1.255 . S
Cd36 O35 2.385 . S
Cd36 O37 2.317 . S
O37 Cd36 2.317 . S
O37 C38 1.232 . S
C38 O37 1.232 . S
C38 O39 1.218 . S
O39 C38 1.218 . S
C40 O33 1.275 . S
C40 O35 1.255 . S
C41 O42 1.258 . S
C41 O43 1.256 . S
O42 Cd34 2.381 . S
O42 C41 1.258 . S
O43 Cd34 2.378 . S
O43 C41 1.256 . S
O44 Cd45 2.300 . S
O44 C51 1.275 . S
Cd45 O44 2.300 . S
Cd45 O53 2.381 . S
Cd45 O54 2.378 . S
O46 Cd47 2.385 . S
O46 C51 1.255 . S
Cd47 O46 2.385 . S
Cd47 O48 2.317 . S
O48 Cd47 2.317 . S
O48 C49 1.232 . S
C49 O48 1.232 . S
C49 O50 1.218 . S
O50 C49 1.218 . S
C51 O44 1.275 . S
C51 O46 1.255 . S
C52 O53 1.258 . S
C52 O54 1.256 . S
O53 Cd45 2.381 . S
O53 C52 1.258 . S
O54 Cd45 2.378 . S
O54 C52 1.256 . S
O55 Cd56 2.300 . S
O55 C62 1.275 . S
Cd56 O55 2.300 . S
Cd56 O64 2.381 . S
Cd56 O65 2.378 . S
O57 Cd58 2.385 . S
O57 C62 1.255 . S
Cd58 O57 2.385 . S
Cd58 O59 2.317 . S
O59 Cd58 2.317 . S
O59 C60 1.232 . S
C60 O59 1.232 . S
C60 O61 1.218 . S
O61 C60 1.218 . S
C62 O55 1.275 . S
C62 O57 1.255 . S
C63 O64 1.258 . S
C63 O65 1.256 . S
O64 Cd56 2.381 . S
O64 C63 1.258 . S
O65 Cd56 2.378 . S
O65 C63 1.256 . S
O66 Cd67 2.300 . S
O66 C73 1.275 . S
Cd67 O66 2.300 . S
Cd67 O75 2.381 . S
Cd67 O76 2.378 . S
O68 Cd69 2.385 . S
O68 C73 1.255 . S
Cd69 O68 2.385 . S
Cd69 O70 2.317 . S
O70 Cd69 2.317 . S
O70 C71 1.232 . S
C71 O70 1.232 . S
C71 O72 1.218 . S
O72 C71 1.218 . S
C73 O66 1.275 . S
C73 O68 1.255 . S
C74 O75 1.258 . S
C74 O76 1.256 . S
O75 Cd67 2.381 . S
O75 C74 1.258 . S
O76 Cd67 2.378 . S
O76 C74 1.256 . S
O77 Cd78 2.300 . S
O77 C84 1.275 . S
Cd78 O77 2.300 . S
Cd78 O86 2.381 . S
Cd78 O87 2.378 . S
O79 Cd80 2.385 . S
O79 C84 1.255 . S
Cd80 O79 2.385 . S
Cd80 O81 2.317 . S
O81 Cd80 2.317 . S
O81 C82 1.232 . S
C82 O81 1.232 . S
C82 O83 1.218 . S
O83 C82 1.218 . S
C84 O77 1.275 . S
C84 O79 1.255 . S
C85 O86 1.258 . S
C85 O87 1.256 . S
O86 Cd78 2.381 . S
O86 C85 1.258 . S
O87 Cd78 2.378 . S
O87 C85 1.256 . S
C88 C89 1.349 . S
C88 C90 1.327 . S
C88 H113 0.950 . S
C89 C88 1.349 . S
C89 C105 1.349 . S
C90 C88 1.327 . S
C90 C109 1.429 . S
C90 H114 0.950 . S
C91 C108 1.574 . S
C91 C110 1.368 1_565 S
C91 H115 0.949 . S
H92 C96 0.949 . S
C93 C94 1.349 . S
C93 C95 1.327 . S
C93 H116 0.950 . S
C94 C93 1.349 . S
C94 C106 1.349 . S
C95 C93 1.327 . S
C95 C111 1.429 . S
C95 H117 0.950 . S
C96 H92 0.949 . S
C96 C104 1.574 . S
C96 C112 1.368 1_545 S
H97 C105 0.950 . S
H98 C103 0.950 . S
H99 C104 0.949 . S
H100 C106 0.950 . S
H101 C107 0.950 . S
H102 C108 0.949 . S
C103 H98 0.950 . S
C103 C105 1.327 . S
C103 C109 1.429 . S
C104 C96 1.574 . S
C104 H99 0.949 . S
C104 C110 1.368 . S
C105 C89 1.349 . S
C105 H97 0.950 . S
C105 C103 1.327 . S
C106 C94 1.349 . S
C106 H100 0.950 . S
C106 C107 1.327 . S
C107 H101 0.950 . S
C107 C106 1.327 . S
C107 C111 1.429 . S
C108 C91 1.574 . S
C108 H102 0.949 . S
C108 C112 1.368 . S
C109 C90 1.429 . S
C109 C103 1.429 . S
C109 C110 1.523 . S
C110 C91 1.368 1_545 S
C110 C104 1.368 . S
C110 C109 1.523 . S
C111 C95 1.429 . S
C111 C107 1.429 . S
C111 C112 1.523 . S
C112 C96 1.368 1_565 S
C112 C108 1.368 . S
C112 C111 1.523 . S
H113 C88 0.950 . S
H114 C90 0.950 . S
H115 C91 0.949 . S
H116 C93 0.950 . S
H117 C95 0.950 . S
C118 C119 1.349 . S
C118 C120 1.327 . S
C118 H143 0.950 . S
C119 C118 1.349 . S
C119 C135 1.349 . S
C120 C118 1.327 . S
C120 C139 1.429 . S
C120 H144 0.950 . S
C121 C138 1.574 . S
C121 C140 1.368 . S
C121 H145 0.949 . S
H122 C126 0.949 . S
C123 C124 1.349 . S
C123 C125 1.327 . S
C123 H146 0.950 . S
C124 C123 1.349 . S
C124 C136 1.349 . S
C125 C123 1.327 . S
C125 C141 1.429 . S
C125 H147 0.950 . S
C126 H122 0.949 . S
C126 C134 1.574 . S
C126 C142 1.368 . S
H127 C135 0.950 . S
H128 C133 0.950 . S
H129 C134 0.949 . S
H130 C136 0.950 . S
H131 C137 0.950 . S
H132 C138 0.949 . S
C133 H128 0.950 . S
C133 C135 1.327 . S
C133 C139 1.429 . S
C134 C126 1.574 . S
C134 H129 0.949 . S
C134 C140 1.368 . S
C135 C119 1.349 . S
C135 H127 0.950 . S
C135 C133 1.327 . S
C136 C124 1.349 . S
C136 H130 0.950 . S
C136 C137 1.327 . S
C137 H131 0.950 . S
C137 C136 1.327 . S
C137 C141 1.429 . S
C138 C121 1.574 . S
C138 H132 0.949 . S
C138 C142 1.368 . S
C139 C120 1.429 . S
C139 C133 1.429 . S
C139 C140 1.523 . S
C140 C121 1.368 . S
C140 C134 1.368 . S
C140 C139 1.523 . S
C141 C125 1.429 . S
C141 C137 1.429 . S
C141 C142 1.523 . S
C142 C126 1.368 . S
C142 C138 1.368 . S
C142 C141 1.523 . S
H143 C118 0.950 . S
H144 C120 0.950 . S
H145 C121 0.949 . S
H146 C123 0.950 . S
H147 C125 0.950 . S
C148 C149 1.349 . S
C148 C150 1.327 . S
C148 H173 0.950 . S
C149 C148 1.349 . S
C149 C165 1.349 . S
C150 C148 1.327 . S
C150 C169 1.429 . S
C150 H174 0.950 . S
C151 C168 1.574 . S
C151 C170 1.368 1_565 S
C151 H175 0.949 . S
H152 C156 0.949 . S
C153 C154 1.349 . S
C153 C155 1.327 . S
C153 H176 0.950 . S
C154 C153 1.349 . S
C154 C166 1.349 . S
C155 C153 1.327 . S
C155 C171 1.429 . S
C155 H177 0.950 . S
C156 H152 0.949 . S
C156 C164 1.574 . S
C156 C172 1.368 1_545 S
H157 C165 0.950 . S
H158 C163 0.950 . S
H159 C164 0.949 . S
H160 C166 0.950 . S
H161 C167 0.950 . S
H162 C168 0.949 . S
C163 H158 0.950 . S
C163 C165 1.327 . S
C163 C169 1.429 . S
C164 C156 1.574 . S
C164 H159 0.949 . S
C164 C170 1.368 . S
C165 C149 1.349 . S
C165 H157 0.950 . S
C165 C163 1.327 . S
C166 C154 1.349 . S
C166 H160 0.950 . S
C166 C167 1.327 . S
C167 H161 0.950 . S
C167 C166 1.327 . S
C167 C171 1.429 . S
C168 C151 1.574 . S
C168 H162 0.949 . S
C168 C172 1.368 . S
C169 C150 1.429 . S
C169 C163 1.429 . S
C169 C170 1.523 . S
C170 C151 1.368 1_545 S
C170 C164 1.368 . S
C170 C169 1.523 . S
C171 C155 1.429 . S
C171 C167 1.429 . S
C171 C172 1.523 . S
C172 C156 1.368 1_565 S
C172 C168 1.368 . S
C172 C171 1.523 . S
H173 C148 0.950 . S
H174 C150 0.950 . S
H175 C151 0.949 . S
H176 C153 0.950 . S
H177 C155 0.950 . S
C178 C179 1.349 . S
C178 C180 1.327 . S
C178 H203 0.950 . S
C179 C178 1.349 . S
C179 C195 1.349 . S
C180 C178 1.327 . S
C180 C199 1.429 . S
C180 H204 0.950 . S
C181 C198 1.574 . S
C181 C200 1.368 . S
C181 H205 0.949 . S
H182 C186 0.949 . S
C183 C184 1.349 . S
C183 C185 1.327 . S
C183 H206 0.950 . S
C184 C183 1.349 . S
C184 C196 1.349 . S
C185 C183 1.327 . S
C185 C201 1.429 . S
C185 H207 0.950 . S
C186 H182 0.949 . S
C186 C194 1.574 . S
C186 C202 1.368 . S
H187 C195 0.950 . S
H188 C193 0.950 . S
H189 C194 0.949 . S
H190 C196 0.950 . S
H191 C197 0.950 . S
H192 C198 0.949 . S
C193 H188 0.950 . S
C193 C195 1.327 . S
C193 C199 1.429 . S
C194 C186 1.574 . S
C194 H189 0.949 . S
C194 C200 1.368 . S
C195 C179 1.349 . S
C195 H187 0.950 . S
C195 C193 1.327 . S
C196 C184 1.349 . S
C196 H190 0.950 . S
C196 C197 1.327 . S
C197 H191 0.950 . S
C197 C196 1.327 . S
C197 C201 1.429 . S
C198 C181 1.574 . S
C198 H192 0.949 . S
C198 C202 1.368 . S
C199 C180 1.429 . S
C199 C193 1.429 . S
C199 C200 1.523 . S
C200 C181 1.368 . S
C200 C194 1.368 . S
C200 C199 1.523 . S
C201 C185 1.429 . S
C201 C197 1.429 . S
C201 C202 1.523 . S
C202 C186 1.368 . S
C202 C198 1.368 . S
C202 C201 1.523 . S
H203 C178 0.950 . S
H204 C180 0.950 . S
H205 C181 0.949 . S
H206 C183 0.950 . S
H207 C185 0.950 . S
C208 C209 1.349 . S
C208 C210 1.327 . S
C208 H233 0.950 . S
C209 C208 1.349 . S
C209 C225 1.349 . S
C210 C208 1.327 . S
C210 C229 1.429 . S
C210 H234 0.950 . S
C211 C228 1.574 1_554 S
C211 C230 1.368 . S
C211 H235 0.949 . S
H212 C216 0.949 . S
C213 C214 1.349 . S
C213 C215 1.327 . S
C213 H236 0.950 . S
C214 C213 1.349 . S
C214 C226 1.349 . S
C215 C213 1.327 . S
C215 C231 1.429 . S
C215 H237 0.950 . S
C216 H212 0.949 . S
C216 C224 1.574 1_556 S
C216 C232 1.368 . S
H217 C225 0.950 . S
H218 C223 0.950 . S
H219 C224 0.949 . S
H220 C226 0.950 . S
H221 C227 0.950 . S
H222 C228 0.949 . S
C223 H218 0.950 . S
C223 C225 1.327 . S
C223 C229 1.429 . S
C224 C216 1.574 1_554 S
C224 H219 0.949 . S
C224 C230 1.368 . S
C225 C209 1.349 . S
C225 H217 0.950 . S
C225 C223 1.327 . S
C226 C214 1.349 . S
C226 H220 0.950 . S
C226 C227 1.327 . S
C227 H221 0.950 . S
C227 C226 1.327 . S
C227 C231 1.429 . S
C228 C211 1.574 1_556 S
C228 H222 0.949 . S
C228 C232 1.368 . S
C229 C210 1.429 . S
C229 C223 1.429 . S
C229 C230 1.523 . S
C230 C211 1.368 . S
C230 C224 1.368 . S
C230 C229 1.523 . S
C231 C215 1.429 . S
C231 C227 1.429 . S
C231 C232 1.523 . S
C232 C216 1.368 . S
C232 C228 1.368 . S
C232 C231 1.523 . S
H233 C208 0.950 . S
H234 C210 0.950 . S
H235 C211 0.949 . S
H236 C213 0.950 . S
H237 C215 0.950 . S
C238 C239 1.349 . S
C238 C240 1.327 . S
C238 H263 0.950 . S
C239 C238 1.349 . S
C239 C255 1.349 . S
C240 C238 1.327 . S
C240 C259 1.429 . S
C240 H264 0.950 . S
C241 C258 1.574 . S
C241 C260 1.368 1_454 S
C241 H265 0.949 . S
H242 C246 0.949 . S
C243 C244 1.349 . S
C243 C245 1.327 . S
C243 H266 0.950 . S
C244 C243 1.349 . S
C244 C256 1.349 . S
C245 C243 1.327 . S
C245 C261 1.429 . S
C245 H267 0.950 . S
C246 H242 0.949 . S
C246 C254 1.574 . S
C246 C262 1.368 1_656 S
H247 C255 0.950 . S
H248 C253 0.950 . S
H249 C254 0.949 . S
H250 C256 0.950 . S
H251 C257 0.950 . S
H252 C258 0.949 . S
C253 H248 0.950 . S
C253 C255 1.327 . S
C253 C259 1.429 . S
C254 C246 1.574 . S
C254 H249 0.949 . S
C254 C260 1.368 . S
C255 C239 1.349 . S
C255 H247 0.950 . S
C255 C253 1.327 . S
C256 C244 1.349 . S
C256 H250 0.950 . S
C256 C257 1.327 . S
C257 H251 0.950 . S
C257 C256 1.327 . S
C257 C261 1.429 . S
C258 C241 1.574 . S
C258 H252 0.949 . S
C258 C262 1.368 . S
C259 C240 1.429 . S
C259 C253 1.429 . S
C259 C260 1.523 . S
C260 C241 1.368 1_656 S
C260 C254 1.368 . S
C260 C259 1.523 . S
C261 C245 1.429 . S
C261 C257 1.429 . S
C261 C262 1.523 . S
C262 C246 1.368 1_454 S
C262 C258 1.368 . S
C262 C261 1.523 . S
H263 C238 0.950 . S
H264 C240 0.950 . S
H265 C241 0.949 . S
H266 C243 0.950 . S
H267 C245 0.950 . S
C268 C269 1.349 . S
C268 C270 1.327 . S
C268 H293 0.950 . S
C269 C268 1.349 . S
C269 C285 1.349 . S
C270 C268 1.327 . S
C270 C289 1.429 . S
C270 H294 0.950 . S
C271 C288 1.574 1_545 S
C271 C290 1.368 . S
C271 H295 0.949 . S
H272 C276 0.949 . S
C273 C274 1.349 . S
C273 C275 1.327 . S
C273 H296 0.950 . S
C274 C273 1.349 . S
C274 C286 1.349 . S
C275 C273 1.327 . S
C275 C291 1.429 . S
C275 H297 0.950 . S
C276 H272 0.949 . S
C276 C284 1.574 1_565 S
C276 C292 1.368 . S
H277 C285 0.950 . S
H278 C283 0.950 . S
H279 C284 0.949 . S
H280 C286 0.950 . S
H281 C287 0.950 . S
H282 C288 0.949 . S
C283 H278 0.950 . S
C283 C285 1.327 . S
C283 C289 1.429 . S
C284 C276 1.574 1_545 S
C284 H279 0.949 . S
C284 C290 1.368 . S
C285 C269 1.349 . S
C285 H277 0.950 . S
C285 C283 1.327 . S
C286 C274 1.349 . S
C286 H280 0.950 . S
C286 C287 1.327 . S
C287 H281 0.950 . S
C287 C286 1.327 . S
C287 C291 1.429 . S
C288 C271 1.574 1_565 S
C288 H282 0.949 . S
C288 C292 1.368 . S
C289 C270 1.429 . S
C289 C283 1.429 . S
C289 C290 1.523 . S
C290 C271 1.368 . S
C290 C284 1.368 . S
C290 C289 1.523 . S
C291 C275 1.429 . S
C291 C287 1.429 . S
C291 C292 1.523 . S
C292 C276 1.368 . S
C292 C288 1.368 . S
C292 C291 1.523 . S
H293 C268 0.950 . S
H294 C270 0.950 . S
H295 C271 0.949 . S
H296 C273 0.950 . S
H297 C275 0.950 . S
C298 C299 1.349 . S
C298 C300 1.327 . S
C298 H323 0.950 . S
C299 C298 1.349 . S
C299 C315 1.349 . S
C300 C298 1.327 . S
C300 C319 1.429 . S
C300 H324 0.950 1_655 S
C301 C318 1.574 1_545 S
C301 C320 1.368 . S
C301 H325 0.949 . S
H302 C306 0.949 . S
C303 C304 1.349 . S
C303 C305 1.327 . S
C303 H326 0.950 . S
C304 C303 1.349 . S
C304 C316 1.349 . S
C305 C303 1.327 . S
C305 C321 1.429 . S
C305 H327 0.950 1_455 S
C306 H302 0.949 . S
C306 C314 1.574 1_565 S
C306 C322 1.368 . S
H307 C315 0.950 . S
H308 C313 0.950 . S
H309 C314 0.949 . S
H310 C316 0.950 . S
H311 C317 0.950 . S
H312 C318 0.949 . S
C313 H308 0.950 . S
C313 C315 1.327 . S
C313 C319 1.429 . S
C314 C306 1.574 1_545 S
C314 H309 0.949 . S
C314 C320 1.368 1_455 S
C315 C299 1.349 . S
C315 H307 0.950 . S
C315 C313 1.327 . S
C316 C304 1.349 . S
C316 H310 0.950 . S
C316 C317 1.327 . S
C317 H311 0.950 . S
C317 C316 1.327 . S
C317 C321 1.429 . S
C318 C301 1.574 1_565 S
C318 H312 0.949 . S
C318 C322 1.368 1_655 S
C319 C300 1.429 . S
C319 C313 1.429 . S
C319 C320 1.523 . S
C320 C301 1.368 . S
C320 C314 1.368 1_655 S
C320 C319 1.523 . S
C321 C305 1.429 . S
C321 C317 1.429 . S
C321 C322 1.523 . S
C322 C306 1.368 . S
C322 C318 1.368 1_455 S
C322 C321 1.523 . S
H323 C298 0.950 . S
H324 C300 0.950 1_455 S
H325 C301 0.949 . S
H326 C303 0.950 . S
H327 C305 0.950 1_655 S
C328 C329 1.349 . S
C328 C330 1.327 . S
C328 H353 0.950 . S
C329 C328 1.349 . S
C329 C345 1.349 . S
C330 C328 1.327 . S
C330 C349 1.429 . S
C330 H354 0.950 . S
C331 C348 1.574 . S
C331 C350 1.368 . S
C331 H355 0.949 . S
H332 C336 0.949 . S
C333 C334 1.349 . S
C333 C335 1.327 . S
C333 H356 0.950 . S
C334 C333 1.349 . S
C334 C346 1.349 . S
C335 C333 1.327 . S
C335 C351 1.429 . S
C335 H357 0.950 . S
C336 H332 0.949 . S
C336 C344 1.574 . S
C336 C352 1.368 . S
H337 C345 0.950 . S
H338 C343 0.950 . S
H339 C344 0.949 . S
H340 C346 0.950 . S
H341 C347 0.950 . S
H342 C348 0.949 . S
C343 H338 0.950 . S
C343 C345 1.327 . S
C343 C349 1.429 . S
C344 C336 1.574 . S
C344 H339 0.949 . S
C344 C350 1.368 . S
C345 C329 1.349 . S
C345 H337 0.950 . S
C345 C343 1.327 . S
C346 C334 1.349 . S
C346 H340 0.950 . S
C346 C347 1.327 . S
C347 H341 0.950 . S
C347 C346 1.327 . S
C347 C351 1.429 . S
C348 C331 1.574 . S
C348 H342 0.949 . S
C348 C352 1.368 . S
C349 C330 1.429 . S
C349 C343 1.429 . S
C349 C350 1.523 . S
C350 C331 1.368 . S
C350 C344 1.368 . S
C350 C349 1.523 . S
C351 C335 1.429 . S
C351 C347 1.429 . S
C351 C352 1.523 . S
C352 C336 1.368 . S
C352 C348 1.368 . S
C352 C351 1.523 . S
H353 C328 0.950 . S
H354 C330 0.950 . S
H355 C331 0.949 . S
H356 C333 0.950 . S
H357 C335 0.950 . S
C358 C359 1.349 . S
C358 C360 1.327 . S
C358 H383 0.950 . S
C359 C358 1.349 . S
C359 C375 1.349 . S
C360 C358 1.327 . S
C360 C379 1.429 . S
C360 H384 0.950 . S
C361 C378 1.574 . S
C361 C380 1.368 . S
C361 H385 0.949 . S
H362 C366 0.949 . S
C363 C364 1.349 . S
C363 C365 1.327 . S
C363 H386 0.950 . S
C364 C363 1.349 . S
C364 C376 1.349 . S
C365 C363 1.327 . S
C365 C381 1.429 . S
C365 H387 0.950 . S
C366 H362 0.949 . S
C366 C374 1.574 . S
C366 C382 1.368 . S
H367 C375 0.950 . S
H368 C373 0.950 . S
H369 C374 0.949 . S
H370 C376 0.950 . S
H371 C377 0.950 . S
H372 C378 0.949 . S
C373 H368 0.950 . S
C373 C375 1.327 . S
C373 C379 1.429 . S
C374 C366 1.574 . S
C374 H369 0.949 . S
C374 C380 1.368 . S
C375 C359 1.349 . S
C375 H367 0.950 . S
C375 C373 1.327 . S
C376 C364 1.349 . S
C376 H370 0.950 . S
C376 C377 1.327 . S
C377 H371 0.950 . S
C377 C376 1.327 . S
C377 C381 1.429 . S
C378 C361 1.574 . S
C378 H372 0.949 . S
C378 C382 1.368 . S
C379 C360 1.429 . S
C379 C373 1.429 . S
C379 C380 1.523 . S
C380 C361 1.368 . S
C380 C374 1.368 . S
C380 C379 1.523 . S
C381 C365 1.429 . S
C381 C377 1.429 . S
C381 C382 1.523 . S
C382 C366 1.368 . S
C382 C378 1.368 . S
C382 C381 1.523 . S
H383 C358 0.950 . S
H384 C360 0.950 . S
H385 C361 0.949 . S
H386 C363 0.950 . S
H387 C365 0.950 . S
C388 C389 1.349 . S
C388 C390 1.327 . S
C388 H413 0.950 . S
C389 C388 1.349 . S
C389 C405 1.349 . S
C390 C388 1.327 . S
C390 C409 1.429 . S
C390 H414 0.950 . S
C391 C408 1.574 . S
C391 C410 1.368 . S
C391 H415 0.949 . S
H392 C396 0.949 . S
C393 C394 1.349 . S
C393 C395 1.327 . S
C393 H416 0.950 . S
C394 C393 1.349 . S
C394 C406 1.349 . S
C395 C393 1.327 . S
C395 C411 1.429 . S
C395 H417 0.950 . S
C396 H392 0.949 . S
C396 C404 1.574 . S
C396 C412 1.368 . S
H397 C405 0.950 . S
H398 C403 0.950 . S
H399 C404 0.949 . S
H400 C406 0.950 . S
H401 C407 0.950 . S
H402 C408 0.949 . S
C403 H398 0.950 . S
C403 C405 1.327 . S
C403 C409 1.429 . S
C404 C396 1.574 . S
C404 H399 0.949 . S
C404 C410 1.368 . S
C405 C389 1.349 . S
C405 H397 0.950 . S
C405 C403 1.327 . S
C406 C394 1.349 . S
C406 H400 0.950 . S
C406 C407 1.327 . S
C407 H401 0.950 . S
C407 C406 1.327 . S
C407 C411 1.429 . S
C408 C391 1.574 . S
C408 H402 0.949 . S
C408 C412 1.368 . S
C409 C390 1.429 . S
C409 C403 1.429 . S
C409 C410 1.523 . S
C410 C391 1.368 . S
C410 C404 1.368 . S
C410 C409 1.523 . S
C411 C395 1.429 . S
C411 C407 1.429 . S
C411 C412 1.523 . S
C412 C396 1.368 . S
C412 C408 1.368 . S
C412 C411 1.523 . S
H413 C388 0.950 . S
H414 C390 0.950 . S
H415 C391 0.949 . S
H416 C393 0.950 . S
H417 C395 0.950 . S
C418 C419 1.349 . S
C418 C420 1.327 . S
C418 H443 0.950 . S
C419 C418 1.349 . S
C419 C435 1.349 . S
C420 C418 1.327 . S
C420 C439 1.429 . S
C420 H444 0.950 . S
C421 C438 1.574 . S
C421 C440 1.368 . S
C421 H445 0.949 . S
H422 C426 0.949 . S
C423 C424 1.349 . S
C423 C425 1.327 . S
C423 H446 0.950 . S
C424 C423 1.349 . S
C424 C436 1.349 . S
C425 C423 1.327 . S
C425 C441 1.429 . S
C425 H447 0.950 . S
C426 H422 0.949 . S
C426 C434 1.574 . S
C426 C442 1.368 . S
H427 C435 0.950 . S
H428 C433 0.950 . S
H429 C434 0.949 . S
H430 C436 0.950 . S
H431 C437 0.950 . S
H432 C438 0.949 . S
C433 H428 0.950 . S
C433 C435 1.327 . S
C433 C439 1.429 . S
C434 C426 1.574 . S
C434 H429 0.949 . S
C434 C440 1.368 . S
C435 C419 1.349 . S
C435 H427 0.950 . S
C435 C433 1.327 . S
C436 C424 1.349 . S
C436 H430 0.950 . S
C436 C437 1.327 . S
C437 H431 0.950 . S
C437 C436 1.327 . S
C437 C441 1.429 . S
C438 C421 1.574 . S
C438 H432 0.949 . S
C438 C442 1.368 . S
C439 C420 1.429 . S
C439 C433 1.429 . S
C439 C440 1.523 . S
C440 C421 1.368 . S
C440 C434 1.368 . S
C440 C439 1.523 . S
C441 C425 1.429 . S
C441 C437 1.429 . S
C441 C442 1.523 . S
C442 C426 1.368 . S
C442 C438 1.368 . S
C442 C441 1.523 . S
H443 C418 0.950 . S
H444 C420 0.950 . S
H445 C421 0.949 . S
H446 C423 0.950 . S
H447 C425 0.950 . S
C89 C5 1.459 . S
C94 C16 1.459 . S
C119 C27 1.459 . S
C124 C38 1.459 . S
C149 C60 1.279 . S
C154 C49 1.279 . S
C179 C71 1.279 . S
C184 C82 1.279 . S
C209 C8 1.638 . S
C214 C52 1.597 . S
C239 C63 1.597 . S
C244 C19 1.638 . S
C269 C30 1.638 . S
C274 C74 1.597 . S
C299 C85 1.597 . S
C304 C41 1.638 . S
C329 C29 1.557 . S
C334 C7 1.557 . S
C359 C40 1.557 . S
C364 C18 1.557 . S
C389 C73 1.503 . S
C394 C51 1.503 . S
C419 C84 1.503 . S
C424 C62 1.503 . S
