# Generated by pormake.
# Topology tsi, (8)-cn, num edge types: 1
# Building blocks:
#     Node 0, Type 0, BuildingBlock: LIZSOE_clean_sbu_0, # of connection points: 8
#     Node 1, Type 0, BuildingBlock: LIZSOE_clean_sbu_0, # of connection points: 8
#     Node 2, Type 0, BuildingBlock: LIZSOE_clean_sbu_0, # of connection points: 8
#     Node 3, Type 0, BuildingBlock: LIZSOE_clean_sbu_0, # of connection points: 8
#     Edge 4, Type (0, 0), BuildingBlock: CIFDUS_clean_linker_0, # of connection points: 2
#     Edge 5, Type (0, 0), BuildingBlock: CIFDUS_clean_linker_0, # of connection points: 2
#     Edge 6, Type (0, 0), BuildingBlock: CIFDUS_clean_linker_0, # of connection points: 2
#     Edge 7, Type (0, 0), BuildingBlock: CIFDUS_clean_linker_0, # of connection points: 2
#     Edge 8, Type (0, 0), BuildingBlock: CIFDUS_clean_linker_0, # of connection points: 2
#     Edge 9, Type (0, 0), BuildingBlock: CIFDUS_clean_linker_0, # of connection points: 2
#     Edge 10, Type (0, 0), BuildingBlock: CIFDUS_clean_linker_0, # of connection points: 2
#     Edge 11, Type (0, 0), BuildingBlock: CIFDUS_clean_linker_0, # of connection points: 2
#     Edge 12, Type (0, 0), BuildingBlock: CIFDUS_clean_linker_0, # of connection points: 2
#     Edge 13, Type (0, 0), BuildingBlock: CIFDUS_clean_linker_0, # of connection points: 2
#     Edge 14, Type (0, 0), BuildingBlock: CIFDUS_clean_linker_0, # of connection points: 2
#     Edge 15, Type (0, 0), BuildingBlock: CIFDUS_clean_linker_0, # of connection points: 2
#     Edge 16, Type (0, 0), BuildingBlock: CIFDUS_clean_linker_0, # of connection points: 2
#     Edge 17, Type (0, 0), BuildingBlock: CIFDUS_clean_linker_0, # of connection points: 2
#     Edge 18, Type (0, 0), BuildingBlock: CIFDUS_clean_linker_0, # of connection points: 2
#     Edge 19, Type (0, 0), BuildingBlock: CIFDUS_clean_linker_0, # of connection points: 2
# Relax obj value: 0.251
# Max RMSD: 0.259
# Mean RMSD: 0.251
data_MOF--net-tsi--node1-LIZSOE_clean_sbu_0--edge1-CIFDUS_clean_linker_0
_symmetry_space_group_name_H-M    P1
_symmetry_Int_Tables_number       1
_symmetry_cell_setting            triclinic
loop_
_symmetry_equiv_pos_as_xyz
'x, y, z'
_cell_length_a     13.789896
_cell_length_b     13.677156
_cell_length_c     59.195605
_cell_angle_alpha  101.01949
_cell_angle_beta   102.65491
_cell_angle_gamma 88.776794
loop_
_atom_site_label
_atom_site_type_symbol
_atom_site_fract_x
_atom_site_fract_y
_atom_site_fract_z
_atom_type_partial_charge
Co0 Co 0.30945 0.45305 0.4928 0.0
N1 N 0.41229 0.37893 0.5066 0.0
C2 C 0.47949 0.32857 0.49567 0.0
N3 N 0.48935 0.27111 0.52858 0.0
C4 C 0.423 0.34553 0.52707 0.0
C5 C 0.52638 0.26252 0.50903 0.0
Co6 Co 1.02612 0.57291 0.39715 0.0
N7 N 0.93716 0.64778 0.3794 0.0
N8 N 0.84262 0.69227 0.34692 0.0
C9 C 0.84557 0.7675 0.36553 0.0
C10 C 0.9033 0.74011 0.38537 0.0
C11 C 0.89802 0.61983 0.35606 0.0
Co12 Co 0.16252 0.51395 0.44647 0.0
C13 C 0.16098 0.51683 0.39455 0.0
H14 H 0.91966 0.78496 0.40295 0.0
O15 O 0.20502 0.52501 0.48231 0.0
O16 O 1.02092 0.52288 0.45004 0.0
O17 O 0.1493 0.3667 0.44106 0.0
O18 O 0.30529 0.50816 0.44253 0.0
O19 O 0.39571 0.5087 0.47881 0.0
O20 O 0.93616 0.56365 0.41632 0.0
O21 O 0.11758 0.4992 0.41112 0.0
O22 O 0.0825 0.69049 0.41733 0.0
O23 O 0.28113 0.34146 0.46782 0.0
O24 O 0.21875 0.40407 0.50384 0.0
O25 O 0.17436 0.66313 0.45142 0.0
O26 O 0.11738 0.57559 0.38075 0.0
C27 C 0.21164 0.30861 0.45035 0.0
C28 C 0.9105 0.51698 0.34287 0.0
H29 H 0.93153 0.46497 0.35535 0.0
H30 H 0.84094 0.48957 0.32993 0.0
H31 H 0.97115 0.51832 0.33333 0.0
C32 C 0.93974 0.54343 0.43663 0.0
C33 C 0.38865 0.51821 0.45762 0.0
H34 H 0.48649 0.33188 0.47799 0.0
H35 H 0.33007 0.45575 0.54269 0.0
H36 H 0.40931 0.39293 0.56313 0.0
H37 H 0.30235 0.32739 0.5436 0.0
C38 C 0.36242 0.38253 0.54508 0.0
C39 C 0.17132 0.48014 0.49719 0.0
C40 C 0.13812 0.72191 0.43745 0.0
H41 H 0.57517 0.20424 0.5034 0.0
H42 H 0.80839 0.83775 0.36488 0.0
Co43 Co 0.12954 0.57986 0.72758 0.0
N44 N 0.073 0.48699 0.74064 0.0
C45 C 0.12637 0.40889 0.74721 0.0
N46 N 0.98738 0.40173 0.75897 0.0
C47 C 0.98841 0.48175 0.7486 0.0
C48 C 0.07399 0.35638 0.7582 0.0
Co49 Co 0.23721 0.7276 0.63855 0.0
N50 N 0.31686 0.79723 0.62446 0.0
N51 N 0.3929 0.89739 0.60744 0.0
C52 C 0.43436 0.80757 0.60448 0.0
C53 C 0.38726 0.74655 0.61463 0.0
C54 C 0.32034 0.88946 0.61921 0.0
Co55 Co 0.17588 0.66563 0.68338 0.0
C56 C 0.14126 0.69965 0.62922 0.0
H57 H 0.40163 0.66823 0.61413 0.0
O58 O 0.19139 0.67634 0.71928 0.0
O59 O 0.17287 0.81303 0.68925 0.0
O60 O 1.02835 0.66561 0.67857 0.0
O61 O 0.17845 0.51396 0.67684 0.0
O62 O 0.19608 0.4798 0.71271 0.0
O63 O 0.27142 0.83272 0.66588 0.0
O64 O 0.15724 0.65468 0.64792 0.0
O65 O 0.34841 0.65761 0.6508 0.0
O66 O 1.01286 0.56102 0.70182 0.0
O67 O 0.06929 0.6811 0.73951 0.0
O68 O 0.32818 0.66296 0.68766 0.0
O69 O 0.12653 0.79448 0.63059 0.0
C70 C 0.97431 0.61042 0.68605 0.0
C71 C 0.24229 0.96638 0.62183 0.0
H72 H 0.20055 0.95535 0.63506 0.0
H73 H 0.27583 1.0424 0.62681 0.0
H74 H 0.18925 0.96148 0.60458 0.0
C75 C 0.22636 0.86874 0.68194 0.0
C76 C 0.19932 0.45396 0.69128 0.0
H77 H 0.20146 0.39306 0.74518 0.0
H78 H 0.93884 0.61598 0.76727 0.0
H79 H 0.83954 0.53506 0.74923 0.0
H80 H 0.9102 0.60691 0.7359 0.0
C81 C 0.91484 0.56416 0.7501 0.0
C82 C 0.14568 0.72375 0.7358 0.0
C83 C 0.38242 0.64831 0.67209 0.0
H84 H 0.09929 0.29246 0.76605 0.0
H85 H 0.49234 0.78674 0.59485 0.0
Co86 Co 0.287 0.75358 0.95926 0.0
N87 N 0.22972 0.83922 0.98129 0.0
C88 C 0.15727 0.80539 0.99009 0.0
N89 N 0.23704 0.92416 1.01837 0.0
C90 C 0.27507 0.91408 0.99877 0.0
C91 C 0.16163 0.85708 1.01272 0.0
Co92 Co 0.38162 0.5227 0.85711 0.0
N93 N 0.44524 0.42602 0.83934 0.0
N94 N 0.53997 0.34376 0.81599 0.0
C95 C 0.4641 0.28302 0.81549 0.0
C96 C 0.40613 0.33365 0.82985 0.0
C97 C 0.52678 0.43051 0.83024 0.0
Co98 Co 0.33471 0.65005 0.9075 0.0
C99 C 0.35262 0.66849 0.85659 0.0
H100 H 0.33713 0.30616 0.83241 0.0
O101 O 0.35196 0.67045 0.94243 0.0
O102 O 0.48231 0.6566 0.91206 0.0
O103 O 0.32988 0.79946 0.9075 0.0
O104 O 0.18521 0.64377 0.90377 0.0
O105 O 0.162 0.71328 0.9399 0.0
O106 O 0.50465 0.55376 0.87971 0.0
O107 O 0.31649 0.62547 0.87148 0.0
O108 O 0.35194 0.42794 0.87284 0.0
O109 O 0.29231 0.85653 0.94237 0.0
O110 O 0.41042 0.78223 0.97502 0.0
O111 O 0.33876 0.50046 0.90881 0.0
O112 O 0.40672 0.61535 0.84381 0.0
C113 C 0.30922 0.87154 0.92304 0.0
C114 C 0.58493 0.52483 0.83195 0.0
H115 H 0.55611 0.5562 0.81586 0.0
H116 H 0.5797 0.58199 0.84749 0.0
H117 H 0.66471 0.50988 0.83282 0.0
C118 C 0.5391 0.60841 0.89972 0.0
C119 C 0.12866 0.67074 0.91846 0.0
H120 H 0.11354 0.73805 0.98201 0.0
H121 H 0.43255 0.94329 1.0051 0.0
H122 H 0.35875 1.05232 1.00764 0.0
H123 H 0.36148 0.98023 0.97885 0.0
C124 C 0.36165 0.97587 0.99733 0.0
C125 C 0.42593 0.7037 0.96016 0.0
C126 C 0.34268 0.4219 0.89324 0.0
H127 H 0.12113 0.83792 1.02506 0.0
H128 H 0.4498 0.20901 0.80482 0.0
Co129 Co 0.47045 0.33666 0.22938 0.0
N130 N 0.41052 0.28459 0.25056 0.0
C131 C 0.44682 0.20431 0.25957 0.0
N132 N 0.37172 0.29104 0.28613 0.0
C133 C 0.36268 0.33478 0.26699 0.0
C134 C 0.42294 0.20785 0.28118 0.0
Co135 Co 0.55118 0.43007 0.12841 0.0
N136 N 0.61576 0.48778 0.10931 0.0
N137 N 0.64473 0.53801 0.07706 0.0
C138 C 0.72476 0.56123 0.09506 0.0
C139 C 0.70668 0.53127 0.11469 0.0
C140 C 0.57914 0.49391 0.08641 0.0
Co141 Co 0.50976 0.38031 0.17862 0.0
C142 C 0.49878 0.29104 0.12677 0.0
H143 H 0.75611 0.54266 0.1319 0.0
O144 O 0.53476 0.3972 0.21348 0.0
O145 O 0.51464 0.52783 0.18193 0.0
O146 O 0.36221 0.3854 0.1755 0.0
O147 O 0.50478 0.23291 0.1759 0.0
O148 O 0.47852 0.2091 0.21083 0.0
O149 O 0.54445 0.55459 0.14778 0.0
O150 O 0.4853 0.36479 0.14344 0.0
O151 O 0.67677 0.40711 0.14769 0.0
O152 O 0.34365 0.35249 0.20987 0.0
O153 O 0.47019 0.46097 0.24434 0.0
O154 O 0.65736 0.37399 0.18188 0.0
O155 O 0.55107 0.30821 0.11203 0.0
C156 C 0.30731 0.37111 0.18945 0.0
C157 C 0.47459 0.46233 0.07408 0.0
H158 H 0.42916 0.45651 0.08713 0.0
H159 H 0.44064 0.51604 0.06291 0.0
H160 H 0.47495 0.38787 0.06269 0.0
C161 C 0.52884 0.58593 0.16837 0.0
C162 C 0.49324 0.17628 0.19012 0.0
H163 H 0.49825 0.15312 0.25243 0.0
H164 H 0.35672 0.49498 0.27337 0.0
H165 H 0.24331 0.43318 0.27328 0.0
H166 H 0.28022 0.43471 0.24587 0.0
C167 C 0.30734 0.42952 0.26461 0.0
C168 C 0.52507 0.47356 0.22985 0.0
C169 C 0.71259 0.38601 0.16785 0.0
H170 H 0.45091 0.15913 0.29346 0.0
H171 H 0.79177 0.59904 0.09428 0.0
H172 H 0.10375 0.40483 0.53046 0.0
H173 H 0.13976 0.68291 0.50852 0.0
H174 H 0.122 0.77374 0.54728 0.0
H175 H 0.12388 0.77311 0.58877 0.0
H176 H 0.1151 0.49454 0.61258 0.0
H177 H 0.09806 0.40457 0.57173 0.0
C178 C 0.1056 0.48564 0.53385 0.0
C179 C 0.12424 0.53654 0.51631 0.0
C180 C 0.10365 0.53693 0.55682 0.0
C181 C 0.12514 0.64116 0.52127 0.0
C182 C 0.1168 0.69308 0.54369 0.0
C183 C 0.11663 0.69259 0.58522 0.0
C184 C 0.12024 0.64103 0.60413 0.0
C185 C 0.11056 0.64154 0.56186 0.0
C186 C 0.11216 0.53662 0.5987 0.0
C187 C 0.10241 0.48526 0.57527 0.0
H188 H 0.73566 0.33897 0.83081 0.0
H189 H 0.50061 0.31328 0.76872 0.0
H190 H 0.62236 0.32089 0.74436 0.0
H191 H 0.79477 0.35524 0.74199 0.0
H192 H 1.0276 0.39253 0.80481 0.0
H193 H 0.90871 0.36068 0.82801 0.0
C194 C 0.71223 0.33296 0.81185 0.0
C195 C 0.61073 0.32647 0.80136 0.0
C196 C 0.78199 0.34155 0.79838 0.0
C197 C 0.57916 0.31815 0.77689 0.0
C198 C 0.64842 0.32361 0.76313 0.0
C199 C 0.81854 0.35601 0.76075 0.0
C200 C 0.91816 0.37792 0.77199 0.0
C201 C 0.74966 0.33888 0.77385 0.0
C202 C 0.95039 0.37666 0.7961 0.0
C203 C 0.88276 0.35845 0.80925 0.0
H204 H 0.59949 0.75311 0.99108 0.0
H205 H 0.40346 0.50145 0.95738 0.0
H206 H 0.46383 0.42006 0.99107 0.0
H207 H 0.54669 0.43698 1.03354 0.0
H208 H 0.71761 0.70527 0.06856 0.0
H209 H 0.69254 0.76328 1.03147 0.0
C210 C 0.57295 0.67848 0.99067 0.0
C211 C 0.49578 0.63461 0.97181 0.0
C212 C 0.60039 0.63693 1.01106 0.0
C213 C 0.46285 0.53752 0.97151 0.0
C214 C 0.49553 0.49199 0.99116 0.0
C215 C 0.5773 0.50866 1.03318 0.0
C216 C 0.63193 0.56761 1.05425 0.0
C217 C 0.55922 0.54408 1.01169 0.0
C218 C 0.67505 0.65811 1.05288 0.0
C219 C 0.66064 0.69166 1.03158 0.0
H220 H 0.8907 0.61045 0.30507 0.0
H221 H 0.66254 0.772 0.33513 0.0
H222 H 0.55204 0.75015 0.29625 0.0
H223 H 0.50725 0.65326 0.25626 0.0
H224 H 0.72258 0.46368 0.22811 0.0
H225 H 0.85177 0.53141 0.26268 0.0
C226 C 0.81655 0.63993 0.30317 0.0
C227 C 0.78363 0.68907 0.32328 0.0
C228 C 0.75122 0.62278 0.2808 0.0
C229 C 0.68943 0.73246 0.32013 0.0
C230 C 0.626 0.71989 0.29784 0.0
C231 C 0.58362 0.63013 0.25723 0.0
C232 C 0.6044 0.55092 0.24002 0.0
C233 C 0.65434 0.6611 0.27831 0.0
C234 C 0.70389 0.52348 0.24115 0.0
C235 C 0.77737 0.56037 0.26133 0.0
H236 H 0.28487 0.21141 0.31571 0.0
H237 H 0.44095 0.47233 0.31024 0.0
H238 H 0.40869 0.56013 0.34764 0.0
H239 H 0.31357 0.57159 0.37827 0.0
H240 H 0.15901 0.31311 0.38531 0.0
H241 H 0.2165 0.21403 0.35179 0.0
C242 C 0.31217 0.28717 0.3229 0.0
C243 C 0.35975 0.33759 0.30947 0.0
C244 C 0.29497 0.33699 0.34491 0.0
C245 C 0.39826 0.43438 0.31939 0.0
C246 C 0.3815 0.48398 0.34103 0.0
C247 C 0.29731 0.49208 0.37338 0.0
C248 C 0.2332 0.44967 0.38457 0.0
C249 C 0.32702 0.4373 0.35352 0.0
C250 C 0.21027 0.3472 0.37749 0.0
C251 C 0.24111 0.29116 0.35785 0.0
H252 H 0.07329 0.80323 0.77476 0.0
H253 H 0.34919 0.76786 0.75107 0.0
H254 H 0.44069 0.79397 0.79233 0.0
H255 H 0.43952 0.77785 0.83289 0.0
H256 H 0.15993 0.73987 0.8518 0.0
H257 H 0.07268 0.79493 0.81573 0.0
C258 C 0.15388 0.8025 0.77841 0.0
C259 C 0.20358 0.78003 0.75928 0.0
C260 C 0.20493 0.80272 0.80184 0.0
C261 C 0.308 0.78358 0.76493 0.0
C262 C 0.36028 0.79696 0.78865 0.0
C263 C 0.3593 0.78476 0.82954 0.0
C264 C 0.30648 0.7518 0.845 0.0
C265 C 0.30916 0.79942 0.807 0.0
C266 C 0.20314 0.76376 0.84052 0.0
C267 C 0.15313 0.79277 0.81945 0.0
H268 H 0.16937 0.05652 1.05132 0.0
H269 H 0.42012 0.87716 1.03927 0.0
H270 H 0.52037 0.96025 0.07711 0.0
H271 H 0.54517 0.1049 0.1093 0.0
H272 H 0.29756 0.28762 0.12201 0.0
H273 H 0.18627 0.17998 0.08916 0.0
C274 C 0.24547 1.0352 0.05728 0.0
C275 C 0.28936 0.96482 1.04213 0.0
C276 C 0.30274 0.08326 0.07929 0.0
C277 C 0.38686 0.93491 1.0502 0.0
C278 C 0.44368 0.98146 0.07194 0.0
C279 C 0.46582 0.11791 0.10568 0.0
C280 C 0.42982 0.20432 0.11793 0.0
C281 C 0.40375 0.05867 0.08611 0.0
C282 C 0.32706 0.22101 0.11299 0.0
C283 C 0.26378 0.16071 0.09379 0.0
H284 H 0.5161 0.27984 0.57572 0.0
H285 H 0.45131 0.07939 0.50838 0.0
H286 H 0.41558 0.94445 0.52709 0.0
H287 H 0.39133 0.88641 0.56214 0.0
H288 H 0.44827 0.08575 0.62943 0.0
H289 H 0.49337 0.22048 0.61123 0.0
C290 C 0.49267 0.20711 0.56518 0.0
C291 C 0.48379 0.19018 0.54064 0.0
C292 C 0.46873 0.1307 0.57599 0.0
C293 C 0.45844 0.09407 0.52731 0.0
C294 C 0.43705 1.01722 0.53794 0.0
C295 C 0.41341 0.95967 0.57268 0.0
C296 C 0.4146 0.97778 0.59683 0.0
C297 C 0.43983 1.03532 0.56215 0.0
C298 C 0.44421 0.07197 0.61062 0.0
C299 C 0.47106 0.14814 0.60027 0.0
H300 H 0.27658 0.171 0.47733 0.0
H301 H 0.10696 0.20176 0.40857 0.0
H302 H 0.07231 1.02218 0.39856 0.0
H303 H 0.08749 0.85915 0.40962 0.0
H304 H 0.24632 0.82844 0.47934 0.0
H305 H 0.28687 1.00701 0.48882 0.0
C306 C 0.23292 0.13838 0.46002 0.0
C307 C 0.19551 0.19951 0.44351 0.0
C308 C 0.21068 1.03583 0.45471 0.0
C309 C 0.13739 0.15629 0.42142 0.0
C310 C 0.11728 1.05379 0.41577 0.0
C311 C 0.13045 0.89099 0.42702 0.0
C312 C 0.16311 0.83004 0.44382 0.0
C313 C 0.15288 0.99325 0.43235 0.0
C314 C 0.22009 0.87327 0.46608 0.0
C315 C 0.2437 0.97532 0.47147 0.0
H316 H 0.52499 0.72569 0.65578 0.0
H317 H 0.48518 0.53182 0.70261 0.0
H318 H 0.6637 0.49401 0.70913 0.0
H319 H 0.83027 0.51405 0.70039 0.0
H320 H 0.8662 0.71884 0.65543 0.0
H321 H 0.68841 0.74858 0.64792 0.0
C322 C 0.55489 0.67456 0.66733 0.0
C323 C 0.49136 0.63104 0.67854 0.0
C324 C 0.65665 0.65346 0.67087 0.0
C325 C 0.53231 0.56693 0.6939 0.0
C326 C 0.63419 0.54461 0.6974 0.0
C327 C 0.79977 0.56654 0.68929 0.0
C328 C 0.86334 0.61599 0.67903 0.0
C329 C 0.6971 0.58716 0.68585 0.0
C330 C 0.82048 0.68007 0.66377 0.0
C331 C 0.71852 0.69792 0.6596 0.0
H332 H 0.25554 0.33749 0.92376 0.0
H333 H 0.44755 0.27119 0.87448 0.0
H334 H 0.45005 0.09728 0.87775 0.0
H335 H 0.39698 0.95962 0.894 0.0
H336 H 0.2105 1.02394 0.94451 0.0
H337 H 0.20679 0.199 0.94128 0.0
C338 C 0.29858 0.28519 0.91396 0.0
C339 C 0.34956 0.31847 0.89854 0.0
C340 C 0.30042 0.18303 0.91594 0.0
C341 C 0.40521 0.24847 0.88605 0.0
C342 C 0.40721 0.14817 0.88793 0.0
C343 C 0.35498 1.01171 0.90417 0.0
C344 C 0.30407 0.97739 0.9194 0.0
C345 C 0.35423 0.11385 0.90258 0.0
C346 C 0.25093 1.04728 0.93262 0.0
C347 C 0.24872 0.14817 0.93084 0.0
H348 H 0.16675 0.33683 0.21334 0.0
H349 H 0.19933 0.41424 0.14793 0.0
H350 H 1.01905 0.42222 0.13535 0.0
H351 H 0.85286 0.40864 0.14296 0.0
H352 H 0.82013 0.33745 0.20893 0.0
H353 H 1.00023 0.32578 0.2212 0.0
C354 C 0.1349 0.35647 0.19642 0.0
C355 C 0.19736 0.37582 0.18175 0.0
C356 C 1.03104 0.36212 0.18937 0.0
C357 C 0.1537 0.39923 0.15968 0.0
C358 C 1.0504 0.40388 0.15244 0.0
C359 C 0.88465 0.39171 0.16015 0.0
C360 C 0.82223 0.37607 0.17515 0.0
C361 C 0.98843 0.38588 0.16719 0.0
C362 C 0.86574 0.35151 0.19711 0.0
C363 C 0.96897 0.3445 0.20413 0.0
H364 H 0.33965 1.01123 0.67232 0.0
H365 H 0.09558 0.97387 0.70512 0.0
H366 H 0.05966 0.15028 0.70791 0.0
H367 H 0.09062 0.31196 0.6992 0.0
H368 H 0.33537 0.35604 0.66758 0.0
H369 H 0.3733 0.17753 0.66429 0.0
C370 C 0.27885 1.04183 0.68017 0.0
C371 C 0.21927 0.97863 0.68811 0.0
C372 C 0.25612 0.14306 0.68093 0.0
C373 C 0.14238 1.02011 0.69875 0.0
C374 C 0.12077 0.12079 0.70004 0.0
C375 C 0.15186 0.28217 0.69138 0.0
C376 C 0.2098 0.3462 0.68347 0.0
C377 C 0.1755 0.18198 0.69068 0.0
C378 C 0.28853 0.30736 0.67328 0.0
C379 C 0.31119 0.206 0.67187 0.0
H380 H 0.68359 0.51735 0.87856 0.0
H381 H 0.64248 0.73326 0.93909 0.0
H382 H 0.8206 0.7714 0.94986 0.0
H383 H 0.98591 0.7495 0.9412 0.0
H384 H 1.02671 0.54173 0.87935 0.0
H385 H 0.84903 0.49824 0.86926 0.0
C386 C 0.71292 0.57407 0.89387 0.0
C387 C 0.64864 0.62403 0.90761 0.0
C388 C 0.815 0.59835 0.89949 0.0
C389 C 0.68949 0.6941 0.92802 0.0
C390 C 0.79141 0.71646 0.93413 0.0
C391 C 0.95632 0.69464 0.92547 0.0
C392 C 1.02001 0.64885 0.91108 0.0
C393 C 0.85447 0.67019 0.9198 0.0
C394 C 0.97961 0.57863 0.89067 0.0
C395 C 0.87811 0.5532 0.885 0.0
H396 H 0.56443 0.73224 0.146 0.0
H397 H 0.47619 0.6827 0.20869 0.0
H398 H 0.45555 0.86115 0.2207 0.0
H399 H 0.45895 1.03019 0.21293 0.0
H400 H 0.5519 0.07928 0.15084 0.0
H401 H 0.57144 0.90106 0.13872 0.0
C402 C 0.54088 0.76024 0.16233 0.0
C403 C 0.52187 0.69414 0.1764 0.0
C404 C 0.5284 0.86254 0.16905 0.0
C405 C 0.49186 0.73195 0.19756 0.0
C406 C 0.47946 0.83393 0.20439 0.0
C407 C 0.48345 1.00208 0.19675 0.0
C408 C 0.50232 0.06799 0.18261 0.0
C409 C 0.49687 0.89973 0.19018 0.0
C410 C 0.53442 1.03007 0.16174 0.0
C411 C 0.54673 0.92822 0.15492 0.0
H412 H 0.7531 0.57493 0.41233 0.0
H413 H 0.91299 0.50699 0.47876 0.0
H414 H 0.75664 0.49665 0.49108 0.0
H415 H 0.57608 0.50197 0.48271 0.0
H416 H 0.41417 0.57057 0.41681 0.0
H417 H 0.57074 0.58518 0.40442 0.0
C418 C 0.75409 0.55813 0.42955 0.0
C419 C 0.8451 0.54125 0.44454 0.0
C420 C 0.66379 0.55172 0.43651 0.0
C421 C 0.84442 0.51995 0.46681 0.0
C422 C 0.75497 0.51399 0.47388 0.0
C423 C 0.57439 0.5202 0.4656 0.0
C424 C 0.48282 0.53279 0.45036 0.0
C425 C 0.6644 0.52894 0.45881 0.0
C426 C 0.48314 0.55761 0.42846 0.0
C427 C 0.57276 0.56679 0.42153 0.0
loop_
_geom_bond_atom_site_label_1
_geom_bond_atom_site_label_2
_geom_bond_distance
_geom_bond_site_symmetry_2
_ccdc_geom_bond_type
Co0 N1 2.034 . S
Co0 O15 2.262 . S
Co0 O19 1.958 . S
Co0 O23 1.950 . S
Co0 O24 2.057 . S
N1 Co0 2.034 . S
N1 C2 1.366 . S
N1 C4 1.332 . S
C2 N1 1.366 . S
C2 C5 1.377 . S
C2 H34 0.931 . S
N3 C4 1.346 . S
N3 C5 1.337 . S
C4 N1 1.332 . S
C4 N3 1.346 . S
C4 C38 1.361 . S
C5 C2 1.377 . S
C5 N3 1.337 . S
C5 H41 0.930 . S
Co6 N7 2.034 . S
Co6 O20 1.950 . S
Co6 O21 2.262 1_655 S
Co6 O22 1.958 1_655 S
Co6 O26 2.057 1_655 S
N7 Co6 2.034 . S
N7 C10 1.366 . S
N7 C11 1.332 . S
N8 C9 1.337 . S
N8 C11 1.346 . S
C9 N8 1.337 . S
C9 C10 1.377 . S
C9 H42 0.930 . S
C10 N7 1.366 . S
C10 C9 1.377 . S
C10 H14 0.931 . S
C11 N7 1.332 . S
C11 N8 1.346 . S
C11 C28 1.361 . S
Co12 O15 2.097 . S
Co12 O16 2.065 1_455 S
Co12 O17 2.065 . S
Co12 O18 2.042 . S
Co12 O21 2.097 . S
Co12 O25 2.042 . S
C13 O21 1.253 . S
C13 O26 1.263 . S
H14 C10 0.931 . S
O15 Co0 2.262 . S
O15 Co12 2.097 . S
O15 C39 1.253 . S
O16 Co12 2.065 1_655 S
O16 C32 1.221 . S
O17 Co12 2.065 . S
O17 C27 1.221 . S
O18 Co12 2.042 . S
O18 C33 1.237 . S
O19 Co0 1.958 . S
O19 C33 1.278 . S
O20 Co6 1.950 . S
O20 C32 1.277 . S
O21 Co6 2.262 1_455 S
O21 Co12 2.097 . S
O21 C13 1.253 . S
O22 Co6 1.958 1_455 S
O22 C40 1.278 . S
O23 Co0 1.950 . S
O23 C27 1.277 . S
O24 Co0 2.057 . S
O24 C39 1.263 . S
O25 Co12 2.042 . S
O25 C40 1.237 . S
O26 Co6 2.057 1_455 S
O26 C13 1.263 . S
C27 O17 1.221 . S
C27 O23 1.277 . S
C28 C11 1.361 . S
C28 H29 0.960 . S
C28 H30 0.961 . S
C28 H31 0.961 . S
H29 C28 0.960 . S
H30 C28 0.961 . S
H31 C28 0.961 . S
C32 O16 1.221 . S
C32 O20 1.277 . S
C33 O18 1.237 . S
C33 O19 1.278 . S
H34 C2 0.931 . S
H35 C38 0.961 . S
H36 C38 0.961 . S
H37 C38 0.960 . S
C38 C4 1.361 . S
C38 H35 0.961 . S
C38 H36 0.961 . S
C38 H37 0.960 . S
C39 O15 1.253 . S
C39 O24 1.263 . S
C40 O22 1.278 . S
C40 O25 1.237 . S
H41 C5 0.930 . S
H42 C9 0.930 . S
Co43 N44 2.034 . S
Co43 O58 2.262 . S
Co43 O62 1.958 . S
Co43 O66 1.950 . S
Co43 O67 2.057 . S
N44 Co43 2.034 . S
N44 C45 1.366 . S
N44 C47 1.332 1_455 S
C45 N44 1.366 . S
C45 C48 1.377 . S
C45 H77 0.931 . S
N46 C47 1.346 . S
N46 C48 1.337 1_655 S
C47 N44 1.332 1_655 S
C47 N46 1.346 . S
C47 C81 1.361 . S
C48 C45 1.377 . S
C48 N46 1.337 1_455 S
C48 H84 0.930 1_455 S
Co49 N50 2.034 . S
Co49 O63 1.950 . S
Co49 O64 2.262 . S
Co49 O65 1.958 . S
Co49 O69 2.057 . S
N50 Co49 2.034 . S
N50 C53 1.366 . S
N50 C54 1.332 . S
N51 C52 1.337 . S
N51 C54 1.346 . S
C52 N51 1.337 . S
C52 C53 1.377 . S
C52 H85 0.930 . S
C53 N50 1.366 . S
C53 C52 1.377 . S
C53 H57 0.931 . S
C54 N50 1.332 . S
C54 N51 1.346 . S
C54 C71 1.361 . S
Co55 O58 2.097 . S
Co55 O59 2.065 . S
Co55 O60 2.065 . S
Co55 O61 2.042 . S
Co55 O64 2.097 . S
Co55 O68 2.042 . S
C56 O64 1.253 . S
C56 O69 1.263 . S
H57 C53 0.931 . S
O58 Co43 2.262 . S
O58 Co55 2.097 . S
O58 C82 1.253 . S
O59 Co55 2.065 . S
O59 C75 1.221 . S
O60 Co55 2.065 . S
O60 C70 1.221 . S
O61 Co55 2.042 . S
O61 C76 1.237 . S
O62 Co43 1.958 . S
O62 C76 1.278 . S
O63 Co49 1.950 . S
O63 C75 1.277 . S
O64 Co49 2.262 . S
O64 Co55 2.097 . S
O64 C56 1.253 . S
O65 Co49 1.958 . S
O65 C83 1.278 . S
O66 Co43 1.950 . S
O66 C70 1.277 . S
O67 Co43 2.057 . S
O67 C82 1.263 . S
O68 Co55 2.042 . S
O68 C83 1.237 . S
O69 Co49 2.057 . S
O69 C56 1.263 . S
C70 O60 1.221 . S
C70 O66 1.277 . S
C71 C54 1.361 . S
C71 H72 0.960 . S
C71 H73 0.961 . S
C71 H74 0.961 . S
H72 C71 0.960 . S
H73 C71 0.961 . S
H74 C71 0.961 . S
C75 O59 1.221 . S
C75 O63 1.277 . S
C76 O61 1.237 . S
C76 O62 1.278 . S
H77 C45 0.931 . S
H78 C81 0.961 . S
H79 C81 0.961 . S
H80 C81 0.960 . S
C81 C47 1.361 . S
C81 H78 0.961 . S
C81 H79 0.961 . S
C81 H80 0.960 . S
C82 O58 1.253 . S
C82 O67 1.263 . S
C83 O65 1.278 . S
C83 O68 1.237 . S
H84 C48 0.930 1_655 S
H85 C52 0.930 . S
Co86 N87 2.034 . S
Co86 O101 2.262 . S
Co86 O105 1.958 . S
Co86 O109 1.950 . S
Co86 O110 2.057 . S
N87 Co86 2.034 . S
N87 C88 1.366 . S
N87 C90 1.332 . S
C88 N87 1.366 . S
C88 C91 1.377 . S
C88 H120 0.931 . S
N89 C90 1.346 . S
N89 C91 1.337 . S
C90 N87 1.332 . S
C90 N89 1.346 . S
C90 C124 1.361 . S
C91 C88 1.377 . S
C91 N89 1.337 . S
C91 H127 0.930 . S
Co92 N93 2.034 . S
Co92 O106 1.950 . S
Co92 O107 2.262 . S
Co92 O108 1.958 . S
Co92 O112 2.057 . S
N93 Co92 2.034 . S
N93 C96 1.366 . S
N93 C97 1.332 . S
N94 C95 1.337 . S
N94 C97 1.346 . S
C95 N94 1.337 . S
C95 C96 1.377 . S
C95 H128 0.930 . S
C96 N93 1.366 . S
C96 C95 1.377 . S
C96 H100 0.931 . S
C97 N93 1.332 . S
C97 N94 1.346 . S
C97 C114 1.361 . S
Co98 O101 2.097 . S
Co98 O102 2.065 . S
Co98 O103 2.065 . S
Co98 O104 2.042 . S
Co98 O107 2.097 . S
Co98 O111 2.042 . S
C99 O107 1.253 . S
C99 O112 1.263 . S
H100 C96 0.931 . S
O101 Co86 2.262 . S
O101 Co98 2.097 . S
O101 C125 1.253 . S
O102 Co98 2.065 . S
O102 C118 1.221 . S
O103 Co98 2.065 . S
O103 C113 1.221 . S
O104 Co98 2.042 . S
O104 C119 1.237 . S
O105 Co86 1.958 . S
O105 C119 1.278 . S
O106 Co92 1.950 . S
O106 C118 1.277 . S
O107 Co92 2.262 . S
O107 Co98 2.097 . S
O107 C99 1.253 . S
O108 Co92 1.958 . S
O108 C126 1.278 . S
O109 Co86 1.950 . S
O109 C113 1.277 . S
O110 Co86 2.057 . S
O110 C125 1.263 . S
O111 Co98 2.042 . S
O111 C126 1.237 . S
O112 Co92 2.057 . S
O112 C99 1.263 . S
C113 O103 1.221 . S
C113 O109 1.277 . S
C114 C97 1.361 . S
C114 H115 0.960 . S
C114 H116 0.961 . S
C114 H117 0.961 . S
H115 C114 0.960 . S
H116 C114 0.961 . S
H117 C114 0.961 . S
C118 O102 1.221 . S
C118 O106 1.277 . S
C119 O104 1.237 . S
C119 O105 1.278 . S
H120 C88 0.931 . S
H121 C124 0.961 . S
H122 C124 0.961 1_545 S
H123 C124 0.960 . S
C124 C90 1.361 . S
C124 H121 0.961 . S
C124 H122 0.961 1_565 S
C124 H123 0.960 . S
C125 O101 1.253 . S
C125 O110 1.263 . S
C126 O108 1.278 . S
C126 O111 1.237 . S
H127 C91 0.930 . S
H128 C95 0.930 . S
Co129 N130 2.034 . S
Co129 O144 2.262 . S
Co129 O148 1.958 . S
Co129 O152 1.950 . S
Co129 O153 2.057 . S
N130 Co129 2.034 . S
N130 C131 1.366 . S
N130 C133 1.332 . S
C131 N130 1.366 . S
C131 C134 1.377 . S
C131 H163 0.931 . S
N132 C133 1.346 . S
N132 C134 1.337 . S
C133 N130 1.332 . S
C133 N132 1.346 . S
C133 C167 1.361 . S
C134 C131 1.377 . S
C134 N132 1.337 . S
C134 H170 0.930 . S
Co135 N136 2.034 . S
Co135 O149 1.950 . S
Co135 O150 2.262 . S
Co135 O151 1.958 . S
Co135 O155 2.057 . S
N136 Co135 2.034 . S
N136 C139 1.366 . S
N136 C140 1.332 . S
N137 C138 1.337 . S
N137 C140 1.346 . S
C138 N137 1.337 . S
C138 C139 1.377 . S
C138 H171 0.930 . S
C139 N136 1.366 . S
C139 C138 1.377 . S
C139 H143 0.931 . S
C140 N136 1.332 . S
C140 N137 1.346 . S
C140 C157 1.361 . S
Co141 O144 2.097 . S
Co141 O145 2.065 . S
Co141 O146 2.065 . S
Co141 O147 2.042 . S
Co141 O150 2.097 . S
Co141 O154 2.042 . S
C142 O150 1.253 . S
C142 O155 1.263 . S
H143 C139 0.931 . S
O144 Co129 2.262 . S
O144 Co141 2.097 . S
O144 C168 1.253 . S
O145 Co141 2.065 . S
O145 C161 1.221 . S
O146 Co141 2.065 . S
O146 C156 1.221 . S
O147 Co141 2.042 . S
O147 C162 1.237 . S
O148 Co129 1.958 . S
O148 C162 1.278 . S
O149 Co135 1.950 . S
O149 C161 1.277 . S
O150 Co135 2.262 . S
O150 Co141 2.097 . S
O150 C142 1.253 . S
O151 Co135 1.958 . S
O151 C169 1.278 . S
O152 Co129 1.950 . S
O152 C156 1.277 . S
O153 Co129 2.057 . S
O153 C168 1.263 . S
O154 Co141 2.042 . S
O154 C169 1.237 . S
O155 Co135 2.057 . S
O155 C142 1.263 . S
C156 O146 1.221 . S
C156 O152 1.277 . S
C157 C140 1.361 . S
C157 H158 0.960 . S
C157 H159 0.961 . S
C157 H160 0.961 . S
H158 C157 0.960 . S
H159 C157 0.961 . S
H160 C157 0.961 . S
C161 O145 1.221 . S
C161 O149 1.277 . S
C162 O147 1.237 . S
C162 O148 1.278 . S
H163 C131 0.931 . S
H164 C167 0.961 . S
H165 C167 0.961 . S
H166 C167 0.960 . S
C167 C133 1.361 . S
C167 H164 0.961 . S
C167 H165 0.961 . S
C167 H166 0.960 . S
C168 O144 1.253 . S
C168 O153 1.263 . S
C169 O151 1.278 . S
C169 O154 1.237 . S
H170 C134 0.930 . S
H171 C138 0.930 . S
H172 C178 0.930 1_655 S
H173 C181 0.930 . S
H174 C182 0.930 . S
H175 C183 0.930 . S
H176 C186 0.930 1_655 S
H177 C187 0.930 . S
C178 H172 0.930 1_455 S
C178 C179 1.355 . S
C178 C180 1.415 . S
C179 C178 1.355 . S
C179 C181 1.419 . S
C180 C178 1.415 . S
C180 C185 1.425 . S
C180 C187 1.409 1_455 S
C181 H173 0.930 . S
C181 C179 1.419 . S
C181 C182 1.362 . S
C182 H174 0.930 . S
C182 C181 1.362 . S
C182 C185 1.409 . S
C183 H175 0.930 . S
C183 C184 1.355 . S
C183 C185 1.415 . S
C184 C183 1.355 . S
C184 C186 1.419 . S
C185 C180 1.425 . S
C185 C182 1.409 . S
C185 C183 1.415 . S
C186 H176 0.930 1_455 S
C186 C184 1.419 . S
C186 C187 1.362 1_455 S
C187 H177 0.930 . S
C187 C180 1.409 1_655 S
C187 C186 1.362 1_655 S
H188 C194 0.930 . S
H189 C197 0.930 . S
H190 C198 0.930 . S
H191 C199 0.930 . S
H192 C202 0.930 . S
H193 C203 0.930 . S
C194 H188 0.930 . S
C194 C195 1.355 . S
C194 C196 1.415 . S
C195 C194 1.355 . S
C195 C197 1.419 . S
C196 C194 1.415 . S
C196 C201 1.425 . S
C196 C203 1.409 . S
C197 H189 0.930 . S
C197 C195 1.419 . S
C197 C198 1.362 . S
C198 H190 0.930 . S
C198 C197 1.362 . S
C198 C201 1.409 . S
C199 H191 0.930 . S
C199 C200 1.355 . S
C199 C201 1.415 . S
C200 C199 1.355 . S
C200 C202 1.419 . S
C201 C196 1.425 . S
C201 C198 1.409 . S
C201 C199 1.415 . S
C202 H192 0.930 . S
C202 C200 1.419 . S
C202 C203 1.362 . S
C203 H193 0.930 . S
C203 C196 1.409 . S
C203 C202 1.362 . S
H204 C210 0.930 . S
H205 C213 0.930 . S
H206 C214 0.930 . S
H207 C215 0.930 1_554 S
H208 C218 0.930 . S
H209 C219 0.930 . S
C210 H204 0.930 . S
C210 C211 1.355 . S
C210 C212 1.415 . S
C211 C210 1.355 . S
C211 C213 1.419 . S
C212 C210 1.415 . S
C212 C217 1.425 . S
C212 C219 1.409 . S
C213 H205 0.930 . S
C213 C211 1.419 . S
C213 C214 1.362 . S
C214 H206 0.930 . S
C214 C213 1.362 . S
C214 C217 1.409 . S
C215 H207 0.930 1_556 S
C215 C216 1.355 1_556 S
C215 C217 1.415 . S
C216 C215 1.355 1_554 S
C216 C218 1.419 . S
C217 C212 1.425 . S
C217 C214 1.409 . S
C217 C215 1.415 . S
C218 H208 0.930 . S
C218 C216 1.419 . S
C218 C219 1.362 1_554 S
C219 H209 0.930 . S
C219 C212 1.409 . S
C219 C218 1.362 1_556 S
H220 C226 0.930 . S
H221 C229 0.930 . S
H222 C230 0.930 . S
H223 C231 0.930 . S
H224 C234 0.930 . S
H225 C235 0.930 . S
C226 H220 0.930 . S
C226 C227 1.355 . S
C226 C228 1.415 . S
C227 C226 1.355 . S
C227 C229 1.419 . S
C228 C226 1.415 . S
C228 C233 1.425 . S
C228 C235 1.409 . S
C229 H221 0.930 . S
C229 C227 1.419 . S
C229 C230 1.362 . S
C230 H222 0.930 . S
C230 C229 1.362 . S
C230 C233 1.409 . S
C231 H223 0.930 . S
C231 C232 1.355 . S
C231 C233 1.415 . S
C232 C231 1.355 . S
C232 C234 1.419 . S
C233 C228 1.425 . S
C233 C230 1.409 . S
C233 C231 1.415 . S
C234 H224 0.930 . S
C234 C232 1.419 . S
C234 C235 1.362 . S
C235 H225 0.930 . S
C235 C228 1.409 . S
C235 C234 1.362 . S
H236 C242 0.930 . S
H237 C245 0.930 . S
H238 C246 0.930 . S
H239 C247 0.930 . S
H240 C250 0.930 . S
H241 C251 0.930 . S
C242 H236 0.930 . S
C242 C243 1.355 . S
C242 C244 1.415 . S
C243 C242 1.355 . S
C243 C245 1.419 . S
C244 C242 1.415 . S
C244 C249 1.425 . S
C244 C251 1.409 1_455 S
C245 H237 0.930 . S
C245 C243 1.419 . S
C245 C246 1.362 . S
C246 H238 0.930 . S
C246 C245 1.362 . S
C246 C249 1.409 . S
C247 H239 0.930 . S
C247 C248 1.355 . S
C247 C249 1.415 . S
C248 C247 1.355 . S
C248 C250 1.419 1_455 S
C249 C244 1.425 . S
C249 C246 1.409 . S
C249 C247 1.415 . S
C250 H240 0.930 . S
C250 C248 1.419 1_655 S
C250 C251 1.362 . S
C251 H241 0.930 . S
C251 C244 1.409 1_655 S
C251 C250 1.362 . S
H252 C258 0.930 . S
H253 C261 0.930 . S
H254 C262 0.930 . S
H255 C263 0.930 . S
H256 C266 0.930 . S
H257 C267 0.930 . S
C258 H252 0.930 . S
C258 C259 1.355 . S
C258 C260 1.415 . S
C259 C258 1.355 . S
C259 C261 1.419 . S
C260 C258 1.415 . S
C260 C265 1.425 . S
C260 C267 1.409 . S
C261 H253 0.930 . S
C261 C259 1.419 . S
C261 C262 1.362 . S
C262 H254 0.930 . S
C262 C261 1.362 . S
C262 C265 1.409 . S
C263 H255 0.930 . S
C263 C264 1.355 . S
C263 C265 1.415 . S
C264 C263 1.355 . S
C264 C266 1.419 . S
C265 C260 1.425 . S
C265 C262 1.409 . S
C265 C263 1.415 . S
C266 H256 0.930 . S
C266 C264 1.419 . S
C266 C267 1.362 . S
C267 H257 0.930 . S
C267 C260 1.409 . S
C267 C266 1.362 . S
H268 C274 0.930 . S
H269 C277 0.930 . S
H270 C278 0.930 1_565 S
H271 C279 0.930 . S
H272 C282 0.930 . S
H273 C283 0.930 . S
C274 H268 0.930 . S
C274 C275 1.355 . S
C274 C276 1.415 1_556 S
C275 C274 1.355 . S
C275 C277 1.419 1_545 S
C276 C274 1.415 1_554 S
C276 C281 1.425 . S
C276 C283 1.409 . S
C277 H269 0.930 . S
C277 C275 1.419 1_565 S
C277 C278 1.362 1_566 S
C278 H270 0.930 1_545 S
C278 C277 1.362 1_544 S
C278 C281 1.409 . S
C279 H271 0.930 . S
C279 C280 1.355 . S
C279 C281 1.415 . S
C280 C279 1.355 . S
C280 C282 1.419 . S
C281 C276 1.425 . S
C281 C278 1.409 . S
C281 C279 1.415 . S
C282 H272 0.930 . S
C282 C280 1.419 . S
C282 C283 1.362 . S
C283 H273 0.930 . S
C283 C276 1.409 . S
C283 C282 1.362 . S
H284 C290 0.930 . S
H285 C293 0.930 . S
H286 C294 0.930 . S
H287 C295 0.930 . S
H288 C298 0.930 . S
H289 C299 0.930 1_545 S
C290 H284 0.930 . S
C290 C291 1.355 . S
C290 C292 1.415 1_545 S
C291 C290 1.355 . S
C291 C293 1.419 . S
C292 C290 1.415 1_565 S
C292 C297 1.425 . S
C292 C299 1.409 . S
C293 H285 0.930 . S
C293 C291 1.419 . S
C293 C294 1.362 1_545 S
C294 H286 0.930 . S
C294 C293 1.362 1_565 S
C294 C297 1.409 . S
C295 H287 0.930 . S
C295 C296 1.355 . S
C295 C297 1.415 . S
C296 C295 1.355 . S
C296 C298 1.419 . S
C297 C292 1.425 . S
C297 C294 1.409 . S
C297 C295 1.415 . S
C298 H288 0.930 . S
C298 C296 1.419 . S
C298 C299 1.362 . S
C299 H289 0.930 1_565 S
C299 C292 1.409 . S
C299 C298 1.362 . S
H300 C306 0.930 . S
H301 C309 0.930 . S
H302 C310 0.930 . S
H303 C311 0.930 . S
H304 C314 0.930 . S
H305 C315 0.930 1_655 S
C306 H300 0.930 . S
C306 C307 1.355 . S
C306 C308 1.415 1_545 S
C307 C306 1.355 . S
C307 C309 1.419 . S
C308 C306 1.415 1_565 S
C308 C313 1.425 . S
C308 C315 1.409 . S
C309 H301 0.930 . S
C309 C307 1.419 . S
C309 C310 1.362 1_545 S
C310 H302 0.930 . S
C310 C309 1.362 1_565 S
C310 C313 1.409 . S
C311 H303 0.930 . S
C311 C312 1.355 . S
C311 C313 1.415 . S
C312 C311 1.355 . S
C312 C314 1.419 . S
C313 C308 1.425 . S
C313 C310 1.409 . S
C313 C311 1.415 . S
C314 H304 0.930 . S
C314 C312 1.419 . S
C314 C315 1.362 . S
C315 H305 0.930 1_455 S
C315 C308 1.409 . S
C315 C314 1.362 . S
H316 C322 0.930 . S
H317 C325 0.930 . S
H318 C326 0.930 . S
H319 C327 0.930 . S
H320 C330 0.930 . S
H321 C331 0.930 . S
C322 H316 0.930 . S
C322 C323 1.355 . S
C322 C324 1.415 . S
C323 C322 1.355 . S
C323 C325 1.419 . S
C324 C322 1.415 . S
C324 C329 1.425 . S
C324 C331 1.409 . S
C325 H317 0.930 . S
C325 C323 1.419 . S
C325 C326 1.362 . S
C326 H318 0.930 . S
C326 C325 1.362 . S
C326 C329 1.409 . S
C327 H319 0.930 . S
C327 C328 1.355 . S
C327 C329 1.415 . S
C328 C327 1.355 . S
C328 C330 1.419 . S
C329 C324 1.425 . S
C329 C326 1.409 . S
C329 C327 1.415 . S
C330 H320 0.930 . S
C330 C328 1.419 . S
C330 C331 1.362 . S
C331 H321 0.930 . S
C331 C324 1.409 . S
C331 C330 1.362 . S
H332 C338 0.930 . S
H333 C341 0.930 . S
H334 C342 0.930 . S
H335 C343 0.930 1_565 S
H336 C346 0.930 . S
H337 C347 0.930 . S
C338 H332 0.930 . S
C338 C339 1.355 . S
C338 C340 1.415 . S
C339 C338 1.355 . S
C339 C341 1.419 . S
C340 C338 1.415 . S
C340 C345 1.425 . S
C340 C347 1.409 . S
C341 H333 0.930 . S
C341 C339 1.419 . S
C341 C342 1.362 . S
C342 H334 0.930 . S
C342 C341 1.362 . S
C342 C345 1.409 . S
C343 H335 0.930 1_545 S
C343 C344 1.355 1_545 S
C343 C345 1.415 . S
C344 C343 1.355 1_565 S
C344 C346 1.419 1_565 S
C345 C340 1.425 . S
C345 C342 1.409 . S
C345 C343 1.415 . S
C346 H336 0.930 . S
C346 C344 1.419 1_545 S
C346 C347 1.362 . S
C347 H337 0.930 . S
C347 C340 1.409 . S
C347 C346 1.362 . S
H348 C354 0.930 . S
H349 C357 0.930 1_455 S
H350 C358 0.930 . S
H351 C359 0.930 . S
H352 C362 0.930 . S
H353 C363 0.930 . S
C354 H348 0.930 . S
C354 C355 1.355 1_655 S
C354 C356 1.415 . S
C355 C354 1.355 1_455 S
C355 C357 1.419 1_455 S
C356 C354 1.415 . S
C356 C361 1.425 . S
C356 C363 1.409 . S
C357 H349 0.930 1_655 S
C357 C355 1.419 1_655 S
C357 C358 1.362 . S
C358 H350 0.930 . S
C358 C357 1.362 . S
C358 C361 1.409 . S
C359 H351 0.930 . S
C359 C360 1.355 . S
C359 C361 1.415 . S
C360 C359 1.355 . S
C360 C362 1.419 . S
C361 C356 1.425 . S
C361 C358 1.409 . S
C361 C359 1.415 . S
C362 H352 0.930 . S
C362 C360 1.419 . S
C362 C363 1.362 . S
C363 H353 0.930 . S
C363 C356 1.409 . S
C363 C362 1.362 . S
H364 C370 0.930 . S
H365 C373 0.930 . S
H366 C374 0.930 1_545 S
H367 C375 0.930 . S
H368 C378 0.930 . S
H369 C379 0.930 . S
C370 H364 0.930 . S
C370 C371 1.355 . S
C370 C372 1.415 1_565 S
C371 C370 1.355 . S
C371 C373 1.419 . S
C372 C370 1.415 1_545 S
C372 C377 1.425 . S
C372 C379 1.409 . S
C373 H365 0.930 . S
C373 C371 1.419 . S
C373 C374 1.362 . S
C374 H366 0.930 1_565 S
C374 C373 1.362 . S
C374 C377 1.409 1_565 S
C375 H367 0.930 . S
C375 C376 1.355 . S
C375 C377 1.415 . S
C376 C375 1.355 . S
C376 C378 1.419 . S
C377 C372 1.425 . S
C377 C374 1.409 1_545 S
C377 C375 1.415 . S
C378 H368 0.930 . S
C378 C376 1.419 . S
C378 C379 1.362 . S
C379 H369 0.930 . S
C379 C372 1.409 . S
C379 C378 1.362 . S
H380 C386 0.930 . S
H381 C389 0.930 . S
H382 C390 0.930 . S
H383 C391 0.930 . S
H384 C394 0.930 . S
H385 C395 0.930 . S
C386 H380 0.930 . S
C386 C387 1.355 . S
C386 C388 1.415 . S
C387 C386 1.355 . S
C387 C389 1.419 . S
C388 C386 1.415 . S
C388 C393 1.425 . S
C388 C395 1.409 . S
C389 H381 0.930 . S
C389 C387 1.419 . S
C389 C390 1.362 . S
C390 H382 0.930 . S
C390 C389 1.362 . S
C390 C393 1.409 . S
C391 H383 0.930 . S
C391 C392 1.355 1_655 S
C391 C393 1.415 . S
C392 C391 1.355 1_455 S
C392 C394 1.419 . S
C393 C388 1.425 . S
C393 C390 1.409 . S
C393 C391 1.415 . S
C394 H384 0.930 . S
C394 C392 1.419 . S
C394 C395 1.362 1_455 S
C395 H385 0.930 . S
C395 C388 1.409 . S
C395 C394 1.362 1_655 S
H396 C402 0.930 . S
H397 C405 0.930 . S
H398 C406 0.930 . S
H399 C407 0.930 . S
H400 C410 0.930 . S
H401 C411 0.930 . S
C402 H396 0.930 . S
C402 C403 1.355 . S
C402 C404 1.415 . S
C403 C402 1.355 . S
C403 C405 1.419 . S
C404 C402 1.415 . S
C404 C409 1.425 . S
C404 C411 1.409 . S
C405 H397 0.930 . S
C405 C403 1.419 . S
C405 C406 1.362 . S
C406 H398 0.930 . S
C406 C405 1.362 . S
C406 C409 1.409 . S
C407 H399 0.930 . S
C407 C408 1.355 . S
C407 C409 1.415 1_545 S
C408 C407 1.355 . S
C408 C410 1.419 . S
C409 C404 1.425 . S
C409 C406 1.409 . S
C409 C407 1.415 1_565 S
C410 H400 0.930 . S
C410 C408 1.419 . S
C410 C411 1.362 1_545 S
C411 H401 0.930 . S
C411 C404 1.409 . S
C411 C410 1.362 1_565 S
H412 C418 0.930 . S
H413 C421 0.930 . S
H414 C422 0.930 . S
H415 C423 0.930 . S
H416 C426 0.930 . S
H417 C427 0.930 . S
C418 H412 0.930 . S
C418 C419 1.355 . S
C418 C420 1.415 . S
C419 C418 1.355 . S
C419 C421 1.419 . S
C420 C418 1.415 . S
C420 C425 1.425 . S
C420 C427 1.409 . S
C421 H413 0.930 . S
C421 C419 1.419 . S
C421 C422 1.362 . S
C422 H414 0.930 . S
C422 C421 1.362 . S
C422 C425 1.409 . S
C423 H415 0.930 . S
C423 C424 1.355 . S
C423 C425 1.415 . S
C424 C423 1.355 . S
C424 C426 1.419 . S
C425 C420 1.425 . S
C425 C422 1.409 . S
C425 C423 1.415 . S
C426 H416 0.930 . S
C426 C424 1.419 . S
C426 C427 1.362 . S
C427 H417 0.930 . S
C427 C420 1.409 . S
C427 C426 1.362 . S
C179 C39 1.911 . S
C184 C56 1.979 . S
C195 N94 1.406 . S
C200 N46 1.397 . S
C211 C125 1.310 . S
C216 N137 1.576 . S
C227 N8 1.798 . S
C232 C168 1.615 . S
C243 N132 1.575 . S
C248 C13 1.321 . S
C259 C82 1.927 . S
C264 C99 1.984 . S
C275 N89 1.808 1_545 S
C280 C142 1.571 . S
C291 N3 1.377 . S
C296 N51 1.364 . S
C307 C27 1.415 . S
C312 C40 1.427 . S
C323 C83 1.478 . S
C328 C70 1.476 1_655 S
C339 C126 1.624 . S
C344 C113 1.614 . S
C355 C156 1.534 . S
C360 C169 1.539 . S
C371 C75 1.476 . S
C376 C76 1.475 . S
C387 C118 1.397 . S
C392 C119 1.393 . S
C403 C161 1.528 . S
C408 C162 1.530 . S
C419 C32 1.594 . S
C424 C33 1.618 . S
