# Generated by pormake.
# Topology ske, (6)-cn, num edge types: 1
# Building blocks:
#     Node 0, Type 0, BuildingBlock: JUFBIX_clean_sbu_0, # of connection points: 6
#     Node 1, Type 0, BuildingBlock: JUFBIX_clean_sbu_0, # of connection points: 6
#     Node 2, Type 0, BuildingBlock: JUFBIX_clean_sbu_0, # of connection points: 6
#     Node 3, Type 0, BuildingBlock: JUFBIX_clean_sbu_0, # of connection points: 6
#     Node 4, Type 0, BuildingBlock: JUFBIX_clean_sbu_0, # of connection points: 6
#     Node 5, Type 0, BuildingBlock: JUFBIX_clean_sbu_0, # of connection points: 6
#     Node 6, Type 0, BuildingBlock: JUFBIX_clean_sbu_0, # of connection points: 6
#     Node 7, Type 0, BuildingBlock: JUFBIX_clean_sbu_0, # of connection points: 6
#     Edge 8, Type (0, 0), BuildingBlock: ZUJKAS_clean_linker_0, # of connection points: 2
#     Edge 9, Type (0, 0), BuildingBlock: ZUJKAS_clean_linker_0, # of connection points: 2
#     Edge 10, Type (0, 0), BuildingBlock: ZUJKAS_clean_linker_0, # of connection points: 2
#     Edge 11, Type (0, 0), BuildingBlock: ZUJKAS_clean_linker_0, # of connection points: 2
#     Edge 12, Type (0, 0), BuildingBlock: ZUJKAS_clean_linker_0, # of connection points: 2
#     Edge 13, Type (0, 0), BuildingBlock: ZUJKAS_clean_linker_0, # of connection points: 2
#     Edge 14, Type (0, 0), BuildingBlock: ZUJKAS_clean_linker_0, # of connection points: 2
#     Edge 15, Type (0, 0), BuildingBlock: ZUJKAS_clean_linker_0, # of connection points: 2
#     Edge 16, Type (0, 0), BuildingBlock: ZUJKAS_clean_linker_0, # of connection points: 2
#     Edge 17, Type (0, 0), BuildingBlock: ZUJKAS_clean_linker_0, # of connection points: 2
#     Edge 18, Type (0, 0), BuildingBlock: ZUJKAS_clean_linker_0, # of connection points: 2
#     Edge 19, Type (0, 0), BuildingBlock: ZUJKAS_clean_linker_0, # of connection points: 2
#     Edge 20, Type (0, 0), BuildingBlock: ZUJKAS_clean_linker_0, # of connection points: 2
#     Edge 21, Type (0, 0), BuildingBlock: ZUJKAS_clean_linker_0, # of connection points: 2
#     Edge 22, Type (0, 0), BuildingBlock: ZUJKAS_clean_linker_0, # of connection points: 2
#     Edge 23, Type (0, 0), BuildingBlock: ZUJKAS_clean_linker_0, # of connection points: 2
#     Edge 24, Type (0, 0), BuildingBlock: ZUJKAS_clean_linker_0, # of connection points: 2
#     Edge 25, Type (0, 0), BuildingBlock: ZUJKAS_clean_linker_0, # of connection points: 2
#     Edge 26, Type (0, 0), BuildingBlock: ZUJKAS_clean_linker_0, # of connection points: 2
#     Edge 27, Type (0, 0), BuildingBlock: ZUJKAS_clean_linker_0, # of connection points: 2
#     Edge 28, Type (0, 0), BuildingBlock: ZUJKAS_clean_linker_0, # of connection points: 2
#     Edge 29, Type (0, 0), BuildingBlock: ZUJKAS_clean_linker_0, # of connection points: 2
#     Edge 30, Type (0, 0), BuildingBlock: ZUJKAS_clean_linker_0, # of connection points: 2
#     Edge 31, Type (0, 0), BuildingBlock: ZUJKAS_clean_linker_0, # of connection points: 2
# Relax obj value: 0.194
# Max RMSD: 0.143
# Mean RMSD: 0.135
data_MOF--net-ske--node1-JUFBIX_clean_sbu_0--edge1-ZUJKAS_clean_linker_0
_symmetry_space_group_name_H-M    P1
_symmetry_Int_Tables_number       1
_symmetry_cell_setting            triclinic
loop_
_symmetry_equiv_pos_as_xyz
'x, y, z'
_cell_length_a     85.802582
_cell_length_b     38.483697
_cell_length_c     20.729497
_cell_angle_alpha  90.001383
_cell_angle_beta   91.540848
_cell_angle_gamma 92.822374
loop_
_atom_site_label
_atom_site_type_symbol
_atom_site_fract_x
_atom_site_fract_y
_atom_site_fract_z
_atom_type_partial_charge
Co0 Co 0.14709 0.25536 0.68802 0.0
C1 C 0.15137 0.32033 0.62698 0.0
Co2 Co 0.15358 0.2525 0.58709 0.0
C3 C 0.14474 0.23624 0.819 0.0
C4 C 0.12833 0.27446 0.79355 0.0
N5 N 0.14071 0.25812 0.77151 0.0
N6 N 0.13505 0.23733 0.86864 0.0
C7 C 0.12467 0.26125 0.85332 0.0
H8 H 0.15359 0.21734 0.81459 0.0
H9 H 0.12156 0.2924 0.76563 0.0
C10 C 0.14852 0.1872 0.64369 0.0
N11 N 0.15972 0.24754 0.50355 0.0
C12 C 0.1536 0.22259 0.46365 0.0
C13 C 0.17291 0.25953 0.47555 0.0
N14 N 0.16269 0.21728 0.41302 0.0
C15 C 0.17476 0.24098 0.4196 0.0
C16 C 0.1795 0.25514 0.67652 0.0
O17 O 0.14545 0.20462 0.69347 0.0
O18 O 0.15274 0.20364 0.59392 0.0
O19 O 0.17552 0.25401 0.61674 0.0
O20 O 0.16869 0.25581 0.71737 0.0
O21 O 0.15432 0.30134 0.57909 0.0
H22 H 0.18122 0.27855 0.49681 0.0
H23 H 0.14307 0.20725 0.47398 0.0
O24 O 0.14837 0.30581 0.68096 0.0
O25 O 0.12577 0.25484 0.65991 0.0
O26 O 0.13144 0.25099 0.55839 0.0
C27 C 0.12113 0.25264 0.60141 0.0
H28 H 0.11472 0.26721 0.88161 0.0
H29 H 0.18468 0.24344 0.3885 0.0
Co30 Co 0.90519 0.26455 0.55496 0.0
C31 C 0.889 0.32747 0.55158 0.0
Co32 Co 0.87912 0.25833 0.55367 0.0
C33 C 0.94017 0.2569 0.54103 0.0
C34 C 0.93336 0.29907 0.59943 0.0
N35 N 0.92733 0.27296 0.56152 0.0
N36 N 0.95376 0.27211 0.56559 0.0
C37 C 0.94931 0.29867 0.60186 0.0
H38 H 0.93955 0.23379 0.51114 0.0
H39 H 0.92654 0.31689 0.62585 0.0
C40 C 0.89457 0.19533 0.55029 0.0
N41 N 0.85713 0.25072 0.55271 0.0
C42 C 0.84676 0.25844 0.59851 0.0
C43 C 0.84839 0.23343 0.50702 0.0
N44 N 0.83195 0.24635 0.58347 0.0
C45 C 0.83307 0.2308 0.52548 0.0
C46 C 0.89241 0.2619 0.42293 0.0
O47 O 0.90713 0.21466 0.55321 0.0
O48 O 0.88148 0.20949 0.55255 0.0
O49 O 0.87966 0.25879 0.45472 0.0
O50 O 0.9052 0.26494 0.45705 0.0
O51 O 0.8769 0.30707 0.55297 0.0
H52 H 0.85292 0.22263 0.46356 0.0
H53 H 0.85011 0.27177 0.64305 0.0
O54 O 0.9024 0.3145 0.55398 0.0
O55 O 0.90467 0.26394 0.65389 0.0
O56 O 0.87932 0.25806 0.65172 0.0
C57 C 0.89203 0.26098 0.68588 0.0
H58 H 0.9571 0.31646 0.62927 0.0
H59 H 0.82351 0.21815 0.49798 0.0
Co60 Co 0.14548 0.75753 0.50652 0.0
C61 C 0.12985 0.82008 0.51049 0.0
Co62 Co 0.11944 0.75089 0.5061 0.0
C63 C 0.17741 0.75693 0.45633 0.0
C64 C 0.17646 0.78352 0.54659 0.0
N65 N 0.16741 0.76541 0.50303 0.0
N66 N 0.19231 0.76928 0.46889 0.0
C67 C 0.19162 0.78584 0.52611 0.0
H68 H 0.17373 0.74276 0.41304 0.0
H69 H 0.17228 0.79498 0.59009 0.0
C70 C 0.13575 0.68842 0.50728 0.0
N71 N 0.0974 0.74226 0.51114 0.0
C72 C 0.08444 0.75868 0.49033 0.0
C73 C 0.09164 0.71612 0.54838 0.0
N74 N 0.07104 0.74369 0.51407 0.0
C75 C 0.07572 0.71691 0.55019 0.0
C76 C 0.13121 0.75449 0.37483 0.0
O77 O 0.14781 0.70894 0.507 0.0
O78 O 0.1223 0.70119 0.50477 0.0
O79 O 0.11855 0.75146 0.40717 0.0
O80 O 0.14403 0.75744 0.40852 0.0
O81 O 0.11737 0.80054 0.50882 0.0
H82 H 0.09866 0.69809 0.57489 0.0
H83 H 0.08486 0.78193 0.46093 0.0
O84 O 0.14299 0.80622 0.50759 0.0
O85 O 0.14624 0.7574 0.60561 0.0
O86 O 0.12085 0.75057 0.60417 0.0
C87 C 0.13362 0.75394 0.63794 0.0
H88 H 0.20137 0.79888 0.55183 0.0
H89 H 0.06811 0.69928 0.57708 0.0
Co90 Co 0.87097 0.76359 0.46097 0.0
C91 C 0.87537 0.82888 0.40344 0.0
Co92 Co 0.87669 0.7607 0.35916 0.0
C93 C 0.8688 0.74481 0.59302 0.0
C94 C 0.85298 0.78411 0.56686 0.0
N95 N 0.86515 0.76689 0.54525 0.0
N96 N 0.85899 0.74651 0.64217 0.0
C97 C 0.84901 0.77119 0.62641 0.0
H98 H 0.87733 0.72516 0.58888 0.0
H99 H 0.84644 0.80229 0.53849 0.0
C100 C 0.87312 0.6954 0.42163 0.0
N101 N 0.88206 0.75544 0.27474 0.0
C102 C 0.8754 0.73042 0.23637 0.0
C103 C 0.89484 0.7673 0.24368 0.0
N104 N 0.88372 0.72499 0.18347 0.0
C105 C 0.89588 0.74861 0.18731 0.0
C106 C 0.90325 0.76415 0.44193 0.0
O107 O 0.87033 0.7146 0.46899 0.0
O108 O 0.87581 0.70989 0.36768 0.0
O109 O 0.89816 0.76176 0.384 0.0
O110 O 0.89331 0.76547 0.48667 0.0
O111 O 0.87798 0.81152 0.35254 0.0
H112 H 0.90341 0.78641 0.26287 0.0
H113 H 0.86501 0.7153 0.24924 0.0
O114 O 0.87177 0.8124 0.45436 0.0
O115 O 0.8488 0.76153 0.43412 0.0
O116 O 0.85494 0.75973 0.33292 0.0
C117 C 0.84442 0.7601 0.37488 0.0
H118 H 0.83899 0.77761 0.6539 0.0
H119 H 0.90533 0.75112 0.15384 0.0
Co120 Co 0.64747 0.74823 0.17537 0.0
C121 C 0.65179 0.81414 0.11669 0.0
Co122 Co 0.65376 0.74632 0.07413 0.0
C123 C 0.64838 0.77689 0.29912 0.0
C124 C 0.6291 0.73966 0.29033 0.0
N125 N 0.6418 0.75236 0.25956 0.0
N126 N 0.64013 0.78112 0.35248 0.0
C127 C 0.62808 0.75729 0.34797 0.0
H128 H 0.65874 0.79249 0.2873 0.0
H129 H 0.62063 0.72058 0.27036 0.0
C130 C 0.6487 0.68053 0.12847 0.0
N131 N 0.65988 0.74433 0.99011 0.0
C132 C 0.65646 0.76758 0.94408 0.0
C133 C 0.67204 0.72741 0.96764 0.0
N134 N 0.66643 0.76703 0.89528 0.0
C135 C 0.67622 0.74167 0.90931 0.0
C136 C 0.67988 0.74822 0.16194 0.0
O137 O 0.64608 0.69751 0.17976 0.0
O138 O 0.65252 0.69734 0.07813 0.0
O139 O 0.67578 0.74709 0.10241 0.0
O140 O 0.66918 0.74871 0.20307 0.0
O141 O 0.65493 0.79554 0.06898 0.0
H142 H 0.67841 0.70842 0.99472 0.0
H143 H 0.64795 0.78718 0.94952 0.0
O144 O 0.64842 0.79894 0.16925 0.0
O145 O 0.62611 0.74777 0.14907 0.0
O146 O 0.63152 0.74572 0.04676 0.0
C147 C 0.62134 0.74662 0.09061 0.0
H148 H 0.61879 0.75401 0.38207 0.0
H149 H 0.68621 0.73545 0.88146 0.0
Co150 Co 0.40567 0.76214 0.06691 0.0
C151 C 0.39012 0.82586 0.06372 0.0
Co152 Co 0.3796 0.75719 0.06677 0.0
C153 C 0.44046 0.75374 0.04996 0.0
C154 C 0.43415 0.79498 0.11174 0.0
N155 N 0.42783 0.76964 0.07279 0.0
N156 N 0.45423 0.76826 0.07416 0.0
C157 C 0.45009 0.79423 0.11261 0.0
H158 H 0.43958 0.7313 1.01837 0.0
H159 H 0.42754 0.81259 0.13955 0.0
C160 C 0.39448 0.69343 0.06374 0.0
N161 N 0.35758 0.75052 0.06607 0.0
C162 C 0.3473 0.75894 0.11174 0.0
C163 C 0.3487 0.73321 1.02083 0.0
N164 N 0.33241 0.74726 0.09705 0.0
C165 C 0.33338 0.73126 0.03943 0.0
C166 C 0.39273 0.75986 0.93542 0.0
O167 O 0.40719 0.71222 0.06604 0.0
O168 O 0.38153 0.70818 0.06572 0.0
O169 O 0.38003 0.7576 0.9677 0.0
O170 O 0.4056 0.76214 0.96908 0.0
O171 O 0.37782 0.80612 0.06627 0.0
H172 H 0.35312 0.72192 0.97762 0.0
H173 H 0.35077 0.77244 0.15599 0.0
O174 O 0.40336 0.81213 0.06513 0.0
O175 O 0.40524 0.76192 0.16597 0.0
O176 O 0.37988 0.75692 0.16473 0.0
C177 C 0.39266 0.75943 0.19843 0.0
H178 H 0.4581 0.81147 0.14018 0.0
H179 H 0.32372 0.71874 1.01232 0.0
Co180 Co 0.64449 0.2498 0.98719 0.0
C181 C 0.62914 0.31301 0.99078 0.0
Co182 Co 0.61843 0.24406 0.98722 0.0
C183 C 0.67678 0.24962 0.94115 0.0
C184 C 0.6753 0.27452 0.03282 0.0
N185 N 0.66648 0.25731 0.98728 0.0
N186 N 0.69161 0.26166 0.95589 0.0
C187 C 0.69059 0.27713 1.01399 0.0
H188 H 0.67335 0.23635 0.89662 0.0
H189 H 0.67085 0.28528 0.07647 0.0
C190 C 0.63446 0.1809 0.98969 0.0
N191 N 0.5963 0.23567 0.98277 0.0
C192 C 0.58376 0.25087 1.00795 0.0
C193 C 0.58988 0.20888 0.94755 0.0
N194 N 0.56998 0.23386 0.99044 0.0
C195 C 0.57397 0.20755 0.95252 0.0
C196 C 0.63123 0.24723 0.85564 0.0
O197 O 0.64664 0.20099 0.98728 0.0
O198 O 0.62114 0.19424 0.9887 0.0
O199 O 0.61865 0.24429 0.88816 0.0
O200 O 0.64402 0.25017 0.88924 0.0
O201 O 0.61653 0.29386 0.98836 0.0
H202 H 0.59638 0.19123 0.91935 0.0
H203 H 0.58471 0.27351 0.03906 0.0
O204 O 0.64218 0.29868 0.98857 0.0
O205 O 0.64422 0.24924 0.0863 0.0
O206 O 0.61868 0.24401 0.08506 0.0
C207 C 0.63155 0.24661 0.11866 0.0
H208 H 0.7002 0.2897 0.04133 0.0
H209 H 0.56585 0.18881 0.92909 0.0
Co210 Co 0.37021 0.25914 0.97772 0.0
C211 C 0.37476 0.32583 0.92539 0.0
Co212 Co 0.37647 0.25855 0.87636 0.0
C213 C 0.37065 0.28669 0.10283 0.0
C214 C 0.35164 0.24892 0.09107 0.0
N215 N 0.3645 0.26219 0.0621 0.0
N216 N 0.36188 0.29052 0.15486 0.0
C217 C 0.35002 0.26631 0.14855 0.0
H218 H 0.38092 0.30291 0.0923 0.0
H219 H 0.34337 0.22988 0.0696 0.0
C220 C 0.37267 0.19214 0.9332 0.0
N221 N 0.38246 0.25786 0.79214 0.0
C222 C 0.37809 0.2809 0.74724 0.0
C223 C 0.39494 0.2429 0.76775 0.0
N224 N 0.38769 0.28205 0.69715 0.0
C225 C 0.3983 0.25814 0.70929 0.0
C226 C 0.40268 0.26054 0.96083 0.0
O227 O 0.36944 0.21013 0.98203 0.0
O228 O 0.37586 0.20782 0.88044 0.0
O229 O 0.39787 0.25997 0.90253 0.0
O230 O 0.39251 0.26007 1.00471 0.0
O231 O 0.37752 0.30943 0.87408 0.0
H232 H 0.402 0.22463 0.79346 0.0
H233 H 0.36906 0.29915 0.75424 0.0
O234 O 0.37102 0.30832 0.97459 0.0
O235 O 0.34815 0.25818 0.94978 0.0
O236 O 0.35474 0.25733 0.84877 0.0
C237 C 0.34404 0.25748 0.89012 0.0
H238 H 0.34038 0.26289 0.18088 0.0
H239 H 0.40825 0.25354 0.67993 0.0
H240 H 0.20586 0.25458 0.60262 0.0
H241 H 0.23332 0.25452 0.6392 0.0
H242 H 0.2192 0.25717 0.83694 0.0
H243 H 0.1918 0.25671 0.80082 0.0
H244 H 0.25193 0.30091 0.70891 0.0
H245 H 0.24785 0.17748 0.84584 0.0
H246 H 0.23243 0.19057 0.79161 0.0
H247 H 0.23438 0.20847 0.8718 0.0
C248 C 0.20856 0.25499 0.65396 0.0
C249 C 0.19643 0.25544 0.69853 0.0
C250 C 0.22435 0.25501 0.67495 0.0
C251 C 0.22857 0.25517 0.74118 0.0
C252 C 0.21646 0.2561 0.78568 0.0
H253 H 0.31777 0.25764 0.96483 0.0
H254 H 0.29026 0.25777 0.92889 0.0
C255 C 0.20068 0.25611 0.76477 0.0
C256 C 0.24553 0.25511 0.76353 0.0
H257 H 0.27149 0.21183 0.85936 0.0
C258 C 0.25617 0.28125 0.74152 0.0
C259 C 0.25132 0.22968 0.80645 0.0
C260 C 0.24095 0.19977 0.82987 0.0
C261 C 0.27209 0.28308 0.76187 0.0
C262 C 0.27789 0.25762 0.80473 0.0
C263 C 0.26725 0.2315 0.82678 0.0
C264 C 0.29487 0.25748 0.82677 0.0
C265 C 0.28244 0.31304 0.73851 0.0
C266 C 0.30692 0.2567 0.78199 0.0
C267 C 0.32272 0.25667 0.80251 0.0
C268 C 0.32707 0.25715 0.86866 0.0
C269 C 0.315 0.25739 0.91354 0.0
C270 C 0.29917 0.25741 0.89292 0.0
H271 H 0.27553 0.33538 0.72298 0.0
H272 H 0.29103 0.32211 0.77664 0.0
H273 H 0.28894 0.30445 0.69628 0.0
H274 H 0.30412 0.25578 0.73076 0.0
H275 H 0.33156 0.25623 0.76622 0.0
H276 H 0.69698 0.21665 0.85736 0.0
H277 H 0.72075 0.21382 0.7947 0.0
H278 H 0.74177 0.30027 0.90301 0.0
H279 H 0.71823 0.30344 0.96523 0.0
H280 H 0.73593 0.26202 0.71613 0.0
H281 H 0.77544 0.23053 0.92127 0.0
H282 H 0.75447 0.2279 0.92718 0.0
H283 H 0.76511 0.26927 0.93392 0.0
C284 C 0.70662 0.23515 0.86789 0.0
C285 C 0.70556 0.25999 0.91745 0.0
C286 C 0.72029 0.23342 0.832 0.0
C287 C 0.73332 0.25631 0.8448 0.0
C288 C 0.73216 0.28156 0.89317 0.0
H289 H 0.82648 0.2913 0.68196 0.0
H290 H 0.80268 0.29405 0.74437 0.0
C291 C 0.71856 0.28332 0.92896 0.0
C292 C 0.74799 0.25443 0.80697 0.0
H293 H 0.78752 0.24581 0.82265 0.0
C294 C 0.74718 0.25823 0.7395 0.0
C295 C 0.7628 0.24969 0.83701 0.0
C296 C 0.76454 0.24378 0.90874 0.0
C297 C 0.76065 0.25814 0.70177 0.0
C298 C 0.77546 0.25341 0.73181 0.0
C299 C 0.77628 0.24959 0.79928 0.0
C300 C 0.79014 0.2516 0.69402 0.0
C301 C 0.75891 0.26406 0.63005 0.0
C302 C 0.79134 0.22642 0.64555 0.0
C303 C 0.80496 0.2247 0.60988 0.0
C304 C 0.81795 0.24801 0.62163 0.0
C305 C 0.81686 0.27281 0.67124 0.0
C306 C 0.80317 0.27449 0.707 0.0
H307 H 0.74802 0.27729 0.61751 0.0
H308 H 0.76899 0.27997 0.61163 0.0
H309 H 0.75836 0.23858 0.60484 0.0
H310 H 0.78173 0.20771 0.63556 0.0
H311 H 0.80531 0.20462 0.57356 0.0
H312 H 0.3056 0.70605 0.08897 0.0
H313 H 0.28201 0.71071 0.15058 0.0
H314 H 0.30364 0.79727 0.25681 0.0
H315 H 0.32724 0.79351 0.1937 0.0
H316 H 0.27689 0.70427 0.27908 0.0
H317 H 0.26255 0.83687 0.20037 0.0
H318 H 0.27698 0.81233 0.16112 0.0
H319 H 0.28177 0.8345 0.23596 0.0
C320 C 0.30538 0.72649 0.12465 0.0
C321 C 0.31847 0.74969 0.13528 0.0
C322 C 0.29181 0.72893 0.16045 0.0
C323 C 0.29078 0.75471 0.20792 0.0
C324 C 0.30389 0.77758 0.21961 0.0
H325 H 0.21904 0.81087 0.47389 0.0
H326 H 0.24239 0.80585 0.41116 0.0
C327 C 0.31753 0.77515 0.18378 0.0
C328 C 0.27609 0.75708 0.24547 0.0
H329 H 0.24729 0.81164 0.28347 0.0
C330 C 0.2704 0.72775 0.27975 0.0
C331 C 0.26748 0.7876 0.24664 0.0
C332 C 0.27239 0.81953 0.20861 0.0
C333 C 0.25669 0.72831 0.31595 0.0
C334 C 0.24809 0.75885 0.3172 0.0
C335 C 0.25377 0.78815 0.28278 0.0
C336 C 0.2335 0.76139 0.35535 0.0
C337 C 0.25182 0.6964 0.3541 0.0
C338 C 0.22037 0.7384 0.34489 0.0
C339 C 0.20686 0.741 0.38151 0.0
C340 C 0.20606 0.76678 0.42952 0.0
C341 C 0.21914 0.79015 0.43872 0.0
C342 C 0.23259 0.78752 0.40223 0.0
H343 H 0.26166 0.67906 0.36224 0.0
H344 H 0.24727 0.70362 0.40166 0.0
H345 H 0.24242 0.68141 0.3269 0.0
H346 H 0.22051 0.71846 0.30811 0.0
H347 H 0.19714 0.7225 0.37261 0.0
H348 H 0.69237 0.75248 0.28571 0.0
H349 H 0.71987 0.75487 0.32106 0.0
H350 H 0.73359 0.74796 0.12322 0.0
H351 H 0.70608 0.74613 0.08744 0.0
H352 H 0.74281 0.70966 0.31043 0.0
H353 H 0.76094 0.83048 0.18198 0.0
H354 H 0.74071 0.81653 0.18997 0.0
H355 H 0.75228 0.79749 0.12935 0.0
C356 C 0.70121 0.75158 0.24948 0.0
C357 C 0.69684 0.74929 0.18343 0.0
C358 C 0.71703 0.75292 0.26992 0.0
C359 C 0.72906 0.75225 0.22511 0.0
C360 C 0.72472 0.74946 0.15913 0.0
H361 H 0.83153 0.75544 0.25196 0.0
H362 H 0.80395 0.75307 0.21806 0.0
C363 C 0.70888 0.74814 0.1386 0.0
C364 C 0.74602 0.7538 0.24761 0.0
H365 H 0.78125 0.79865 0.22992 0.0
C366 C 0.75116 0.72929 0.29295 0.0
C367 C 0.75714 0.7793 0.22531 0.0
C368 C 0.7525 0.80766 0.17947 0.0
C369 C 0.76692 0.72905 0.31512 0.0
C370 C 0.77805 0.75448 0.29265 0.0
C371 C 0.7729 0.77904 0.24744 0.0
C372 C 0.79505 0.75583 0.31449 0.0
C373 C 0.77156 0.70075 0.36108 0.0
C374 C 0.79959 0.75863 0.38028 0.0
C375 C 0.81549 0.75995 0.39999 0.0
C376 C 0.82739 0.75876 0.3545 0.0
C377 C 0.82281 0.75637 0.28868 0.0
C378 C 0.80694 0.75504 0.26907 0.0
H379 H 0.76305 0.67804 0.35909 0.0
H380 H 0.7833 0.69168 0.35027 0.0
H381 H 0.77192 0.71108 0.4111 0.0
H382 H 0.79084 0.7602 0.41664 0.0
H383 H 0.81846 0.76205 0.451 0.0
H384 H 0.10472 0.85942 0.53751 0.0
H385 H 0.10538 0.92131 0.56747 0.0
H386 H 0.15508 0.92874 0.54085 0.0
H387 H 0.15458 0.86742 0.51144 0.0
H388 H 0.14618 0.95701 0.65866 0.0
H389 H 0.11165 0.00773 0.45129 0.0
H390 H 0.10269 0.97197 0.49488 0.0
H391 H 0.1199 0.96548 0.44988 0.0
C392 C 0.11574 0.87438 0.5371 0.0
C393 C 0.12958 0.85832 0.52179 0.0
C394 C 0.11611 0.90978 0.55431 0.0
C395 C 0.1303 0.92979 0.55633 0.0
C396 C 0.14401 0.91391 0.53993 0.0
H397 H 0.15601 0.14559 0.54439 0.0
H398 H 0.15041 0.08349 0.53069 0.0
C399 C 0.14367 0.87875 0.52274 0.0
C400 C 0.13115 0.96707 0.57666 0.0
H401 H 0.12098 0.04827 0.52986 0.0
C402 C 0.14053 0.97696 0.63093 0.0
C403 C 0.12386 0.99313 0.54028 0.0
C404 C 0.11404 0.98429 0.48053 0.0
C405 C 0.14312 0.01213 0.64881 0.0
C406 C 0.13603 0.03822 0.61182 0.0
C407 C 0.12634 0.02827 0.55851 0.0
C408 C 0.13974 0.07606 0.6233 0.0
C409 C 0.15398 0.02124 0.70538 0.0
C410 C 0.13577 0.09284 0.68054 0.0
C411 C 0.13902 0.12882 0.68882 0.0
C412 C 0.14625 0.1486 0.63986 0.0
C413 C 0.15042 0.13139 0.5833 0.0
C414 C 0.14717 0.09574 0.57512 0.0
H415 H 0.16056 0.99862 0.72208 0.0
H416 H 0.16245 0.04272 0.69254 0.0
H417 H 0.14708 0.03023 0.74614 0.0
H418 H 0.12987 0.07829 0.71819 0.0
H419 H 0.13553 0.14124 0.73267 0.0
H420 H 0.91163 0.38069 0.56275 0.0
H421 H 0.90879 0.44282 0.54144 0.0
H422 H 0.86007 0.42214 0.49203 0.0
H423 H 0.86267 0.36064 0.51585 0.0
H424 H 0.90168 0.4776 0.437 0.0
H425 H 0.85598 0.50073 0.61246 0.0
H426 H 0.86616 0.46089 0.6115 0.0
H427 H 0.84981 0.46685 0.55685 0.0
C428 C 0.90026 0.38948 0.54828 0.0
C429 C 0.88735 0.36559 0.54195 0.0
C430 C 0.89865 0.42507 0.53577 0.0
C431 C 0.88412 0.43764 0.51623 0.0
C432 C 0.8713 0.41364 0.50903 0.0
H433 H 0.87444 0.64305 0.33059 0.0
H434 H 0.87682 0.58056 0.3504 0.0
C435 C 0.87283 0.37825 0.52242 0.0
C436 C 0.88243 0.47551 0.50167 0.0
H437 H 0.86025 0.54474 0.53308 0.0
C438 C 0.89267 0.49231 0.4584 0.0
C439 C 0.87083 0.49517 0.52997 0.0
C440 C 0.8602 0.48008 0.58078 0.0
C441 C 0.89156 0.52777 0.44232 0.0
C442 C 0.87952 0.54699 0.46847 0.0
C443 C 0.86936 0.53019 0.51206 0.0
C444 C 0.87772 0.58494 0.45473 0.0
C445 C 0.90366 0.54441 0.39905 0.0
C446 C 0.87676 0.6084 0.50625 0.0
C447 C 0.87497 0.64385 0.49498 0.0
C448 C 0.87424 0.65717 0.43173 0.0
C449 C 0.87507 0.63377 0.37988 0.0
C450 C 0.87661 0.598 0.39127 0.0
H451 H 0.91445 0.5296 0.39914 0.0
H452 H 0.89889 0.54476 0.34878 0.0
H453 H 0.90683 0.57158 0.41411 0.0
H454 H 0.87755 0.59935 0.55566 0.0
H455 H 0.87444 0.66096 0.53628 0.0
H456 H 0.86658 0.87039 0.50066 0.0
H457 H 0.87214 0.9324 0.51619 0.0
H458 H 0.89469 0.93835 0.33299 0.0
H459 H 0.88913 0.87541 0.31676 0.0
H460 H 0.90211 0.96665 0.52246 0.0
H461 H 0.86439 0.01961 0.32711 0.0
H462 H 0.86175 0.97545 0.35574 0.0
H463 H 0.87768 0.98724 0.30457 0.0
C464 C 0.87261 0.88472 0.46303 0.0
C465 C 0.8774 0.86764 0.40729 0.0
C466 C 0.87583 0.92034 0.47226 0.0
C467 C 0.88385 0.94024 0.42599 0.0
C468 C 0.88835 0.92367 0.36926 0.0
H469 H 0.91962 0.15532 0.52425 0.0
H470 H 0.91873 0.09379 0.49154 0.0
C471 C 0.88514 0.88768 0.35993 0.0
C472 C 0.8877 0.97797 0.43926 0.0
H473 H 0.87829 0.06009 0.39457 0.0
C474 C 0.89707 0.98713 0.49399 0.0
C475 C 0.88102 1.00473 0.40256 0.0
C476 C 0.87056 0.99652 0.34439 0.0
C477 C 0.89962 0.02204 0.5138 0.0
C478 C 0.89272 0.04878 0.47773 0.0
C479 C 0.88365 0.03969 0.42214 0.0
C480 C 0.8937 0.08592 0.4996 0.0
C481 C 0.9091 0.02992 0.57484 0.0
C482 C 0.88 0.10212 0.51527 0.0
C483 C 0.88048 0.13708 0.53416 0.0
C484 C 0.89469 0.15709 0.53758 0.0
C485 C 0.90849 0.14072 0.5229 0.0
C486 C 0.90799 0.1055 0.50405 0.0
H487 H 0.91117 0.00608 0.60339 0.0
H488 H 0.92061 0.0421 0.56217 0.0
H489 H 0.90316 0.04855 0.60556 0.0
H490 H 0.86883 0.08768 0.51251 0.0
H491 H 0.86958 0.14862 0.54479 0.0
H492 H 0.16204 0.65529 0.54307 0.0
H493 H 0.16466 0.5936 0.56491 0.0
H494 H 0.11611 0.57303 0.51239 0.0
H495 H 0.11322 0.63531 0.49318 0.0
H496 H 0.123 0.53773 0.61641 0.0
H497 H 0.1691 0.51629 0.44177 0.0
H498 H 0.17511 0.54971 0.49857 0.0
H499 H 0.15887 0.55604 0.44353 0.0
C500 C 0.15193 0.63766 0.5354 0.0
C501 C 0.13744 0.65033 0.51564 0.0
C502 C 0.15348 0.6022 0.54764 0.0
C503 C 0.1407 0.57823 0.53896 0.0
C504 C 0.1262 0.59081 0.51915 0.0
H505 H 0.15013 0.35534 0.51295 0.0
H506 H 0.14713 0.41713 0.49495 0.0
C507 C 0.12457 0.62645 0.50784 0.0
C508 C 0.14237 0.54034 0.5524 0.0
H509 H 0.16465 0.47153 0.51961 0.0
C510 C 0.13205 0.52321 0.59485 0.0
C511 C 0.15404 0.52103 0.52385 0.0
C512 C 0.16478 0.53663 0.47389 0.0
C513 C 0.13313 0.48766 0.60987 0.0
C514 C 0.14523 0.46876 0.58349 0.0
C515 C 0.15548 0.48589 0.54074 0.0
C516 C 0.14701 0.43081 0.59623 0.0
C517 C 0.12095 0.4706 0.65227 0.0
C518 C 0.14813 0.41742 0.65938 0.0
C519 C 0.14961 0.38161 0.66994 0.0
C520 C 0.15038 0.35856 0.61756 0.0
C521 C 0.14966 0.37222 0.5546 0.0
C522 C 0.14793 0.40773 0.54414 0.0
H523 H 0.11015 0.48539 0.65233 0.0
H524 H 0.11781 0.44357 0.63628 0.0
H525 H 0.12562 0.4698 0.70264 0.0
H526 H 0.14794 0.43462 0.70061 0.0
H527 H 0.15022 0.37202 0.71902 0.0
H528 H 0.63571 0.63388 0.2165 0.0
H529 H 0.63015 0.57096 0.20095 0.0
H530 H 0.65083 0.57722 1.01384 0.0
H531 H 0.65633 0.63933 0.02862 0.0
H532 H 0.62146 0.54179 1.01177 0.0
H533 H 0.66072 0.49106 0.20391 0.0
H534 H 0.64723 0.52256 0.22837 0.0
H535 H 0.66265 0.53533 0.17525 0.0
C536 C 0.63926 0.62172 0.17249 0.0
C537 C 0.64649 0.64185 0.12394 0.0
C538 C 0.63607 0.58572 0.1636 0.0
C539 C 0.64009 0.56921 0.10613 0.0
C540 C 0.64753 0.58923 0.05842 0.0
H541 H 0.65419 0.35958 0.99347 0.0
H542 H 0.65506 0.42088 1.02333 0.0
C543 C 0.65072 0.6249 0.0672 0.0
C544 C 0.63638 0.53136 0.09389 0.0
H545 H 0.64623 0.44978 0.14008 0.0
C546 C 0.62673 0.52164 0.04029 0.0
C547 C 0.64336 0.50501 0.13067 0.0
C548 C 0.65417 0.51379 0.18755 0.0
C549 C 0.62416 0.48655 1.02168 0.0
C550 C 0.63131 0.46022 0.05794 0.0
C551 C 0.64068 0.46988 0.11239 0.0
C552 C 0.63025 0.42288 0.03747 0.0
C553 C 0.61437 0.47805 0.96171 0.0
C554 C 0.61594 0.40332 0.03458 0.0
C555 C 0.61536 0.36792 1.0171 0.0
C556 C 0.6291 0.35134 1.00234 0.0
C557 C 0.64333 0.37129 1.00426 0.0
C558 C 0.64389 0.40646 1.02173 0.0
H559 H 0.61222 0.50158 0.93237 0.0
H560 H 0.6201 0.45895 0.93125 0.0
H561 H 0.6029 0.46623 0.97581 0.0
H562 H 0.60526 0.41521 0.04726 0.0
H563 H 0.60423 0.35336 1.01686 0.0
H564 H 0.36363 0.86292 0.05773 0.0
H565 H 0.36134 0.92444 0.03186 0.0
H566 H 0.41134 0.93715 1.01846 0.0
H567 H 0.41377 0.87555 0.04529 0.0
H568 H 0.39928 0.99117 0.08326 0.0
H569 H 0.3656 0.968 0.85444 0.0
H570 H 0.35666 0.94699 0.92234 0.0
H571 H 0.37535 0.93387 0.89659 0.0
C572 C 0.37418 0.87876 0.04966 0.0
C573 C 0.38889 0.86406 0.05342 0.0
C574 C 0.37282 0.91398 0.03419 0.0
C575 C 0.38612 0.93544 1.02157 0.0
C576 C 0.40087 0.92115 0.02733 0.0
H577 H 0.38369 0.14472 0.84732 0.0
H578 H 0.38749 0.08253 0.86605 0.0
C579 C 0.40225 0.88587 0.04287 0.0
C580 C 0.38462 0.97279 1.0033 0.0
H581 H 0.36685 0.02624 0.89476 0.0
C582 C 0.39226 0.99877 0.04182 0.0
C583 C 0.37569 0.98296 0.9485 0.0
C584 C 0.36798 0.95651 0.90266 0.0
C585 C 0.39081 0.03437 0.02843 0.0
C586 C 0.38124 0.04454 0.97556 0.0
C587 C 0.37403 0.0186 0.93571 0.0
C588 C 0.37827 0.08189 0.96225 0.0
C589 C 0.39967 0.06082 0.0709 0.0
C590 C 0.37139 0.10209 1.00903 0.0
C591 C 0.36919 0.13745 0.99845 0.0
C592 C 0.37371 0.15369 0.94047 0.0
C593 C 0.38006 0.13315 0.89248 0.0
C594 C 0.38228 0.09759 0.90322 0.0
H595 H 0.40979 0.04941 0.0962 0.0
H596 H 0.40397 0.08361 0.04245 0.0
H597 H 0.39179 0.07011 0.10813 0.0
H598 H 0.36781 0.09053 0.05426 0.0
H599 H 0.36413 0.15221 0.03643 0.0
H600 H 0.38762 0.37341 0.83898 0.0
H601 H 0.39327 0.43612 0.85702 0.0
H602 H 0.37246 0.42788 0.04368 0.0
H603 H 0.36685 0.36594 0.02637 0.0
H604 H 0.37374 0.49101 0.88416 0.0
H605 H 0.41559 0.47276 0.0878 0.0
H606 H 0.4092 0.43783 0.03366 0.0
H607 H 0.39711 0.4499 0.09881 0.0
C608 C 0.38414 0.38507 0.88358 0.0
C609 C 0.37689 0.36444 0.93136 0.0
C610 C 0.38743 0.42089 0.89399 0.0
C611 C 0.38365 0.43666 0.95249 0.0
C612 C 0.3759 0.4163 0.99894 0.0
H613 H 0.36913 0.64766 0.0595 0.0
H614 H 0.36797 0.58632 0.02983 0.0
C615 C 0.3726 0.38077 0.98864 0.0
C616 C 0.38755 0.47435 0.96556 0.0
H617 H 0.40584 0.52981 0.07602 0.0
C618 C 0.38091 0.49947 0.92566 0.0
C619 C 0.39709 0.48562 1.01924 0.0
C620 C 0.40529 0.46014 0.06199 0.0
C621 C 0.38294 0.53527 0.93968 0.0
C622 C 0.39171 0.5464 0.99554 0.0
C623 C 0.39897 0.5214 0.03368 0.0
C624 C 0.39279 0.58363 1.01661 0.0
C625 C 0.37557 0.56093 0.89465 0.0
C626 C 0.40725 0.60249 1.02191 0.0
C627 C 0.408 0.6379 0.03938 0.0
C628 C 0.3943 0.65505 0.05249 0.0
C629 C 0.37995 0.63557 0.04951 0.0
C630 C 0.37922 0.60041 0.03196 0.0
H631 H 0.37325 0.54963 0.8458 0.0
H632 H 0.36425 0.56815 0.91413 0.0
H633 H 0.38314 0.58501 0.89012 0.0
H634 H 0.41792 0.59005 1.01095 0.0
H635 H 0.41924 0.65202 0.04101 0.0
H636 H 0.66116 0.14452 0.99394 0.0
H637 H 0.66374 0.08265 1.01634 0.0
H638 H 0.61381 0.06876 0.03117 0.0
H639 H 0.61109 0.13059 1.00774 0.0
H640 H 0.65572 0.04526 0.12363 0.0
H641 H 0.62313 0.99043 0.90936 0.0
H642 H 0.62935 0.03581 0.9154 0.0
H643 H 0.61221 0.01959 0.95595 0.0
C644 C 0.65068 0.12828 1.00115 0.0
C645 C 0.63589 0.14267 0.99855 0.0
C646 C 0.65219 0.09285 1.0143 0.0
C647 C 0.63898 0.07076 1.02491 0.0
C648 C 0.62418 0.08497 1.02196 0.0
H649 H 0.64194 0.86263 0.20291 0.0
H650 H 0.6388 0.92491 0.18385 0.0
C651 C 0.62264 0.12045 1.00869 0.0
C652 C 0.6408 0.03318 0.04067 0.0
H653 H 0.63042 0.95039 0.99029 0.0
C654 C 0.65018 0.02452 0.09443 0.0
C655 C 0.63373 0.00598 1.00237 0.0
C656 C 0.62416 0.0133 0.9422 0.0
C657 C 0.65263 0.98963 0.11098 0.0
C658 C 0.64529 0.96242 0.07341 0.0
C659 C 0.63595 0.97111 1.01956 0.0
C660 C 0.64768 0.92482 0.08703 0.0
C661 C 0.66341 0.98227 0.1675 0.0
C662 C 0.65357 0.90372 0.03903 0.0
C663 C 0.65527 0.86817 0.04964 0.0
C664 C 0.6511 0.85258 0.10862 0.0
C665 C 0.6454 0.87377 0.15717 0.0
C666 C 0.64365 0.90947 0.14636 0.0
H667 H 0.67114 1.00535 0.18062 0.0
H668 H 0.65634 0.97523 0.21003 0.0
H669 H 0.6708 0.9602 0.15685 0.0
H670 H 0.65677 0.91476 0.99288 0.0
H671 H 0.65967 0.85279 1.01097 0.0
H672 H 0.14462 0.15709 0.42131 0.0
H673 H 0.13636 0.11881 0.33196 0.0
H674 H 0.16752 0.1766 0.20695 0.0
H675 H 0.1753 0.21592 0.29472 0.0
H676 H 0.12175 0.15308 0.23141 0.0
H677 H 0.16806 0.07753 0.13235 0.0
H678 H 0.16726 0.08811 0.21736 0.0
H679 H 0.17634 0.11839 0.16172 0.0
C680 C 0.14985 0.16161 0.37501 0.0
C681 C 0.16021 0.19058 0.36459 0.0
C682 C 0.14535 0.13907 0.32442 0.0
C683 C 0.15143 0.14461 0.26313 0.0
C684 C 0.16294 0.17131 0.25435 0.0
H685 H 0.15793 0.22595 0.95394 0.0
H686 H 0.1573 0.18393 0.04219 0.0
C687 C 0.16727 0.19414 0.30454 0.0
C688 C 0.14309 0.13025 0.20527 0.0
H689 H 0.15359 0.11383 0.05208 0.0
C690 C 0.1283 0.14296 0.19211 0.0
C691 C 0.15133 0.11567 0.15492 0.0
C692 C 0.16657 0.09877 0.16762 0.0
C693 C 0.12335 0.14932 0.12848 0.0
C694 C 0.13334 0.14138 0.0778 0.0
C695 C 0.14623 0.12109 0.09116 0.0
C696 C 0.13382 0.16311 1.01901 0.0
C697 C 0.10881 0.16927 0.11725 0.0
C698 C 0.12088 0.16549 0.97659 0.0
C699 C 0.12109 0.19067 0.92792 0.0
C700 C 0.13439 0.21284 0.92019 0.0
C701 C 0.14754 0.20929 0.96028 0.0
C702 C 0.14721 0.18496 1.00978 0.0
H703 H 0.10269 0.1741 0.16272 0.0
H704 H 0.11181 0.19478 0.09458 0.0
H705 H 0.10057 0.15436 0.08429 0.0
H706 H 0.11058 0.14843 0.98174 0.0
H707 H 0.11102 0.1926 0.89574 0.0
H708 H 0.86736 0.25584 0.33128 0.0
H709 H 0.8675 0.25543 0.21251 0.0
H710 H 0.91757 0.26866 0.21936 0.0
H711 H 0.91744 0.26832 0.33765 0.0
H712 H 0.87396 0.29588 0.11561 0.0
H713 H 0.917 0.19581 0.08804 0.0
H714 H 0.90906 0.20529 0.1653 0.0
H715 H 0.92499 0.23209 0.13427 0.0
C716 C 0.8785 0.25845 0.30803 0.0
C717 C 0.8924 0.26184 0.34706 0.0
C718 C 0.87859 0.25829 0.23859 0.0
C719 C 0.89257 0.26114 0.20302 0.0
C720 C 0.90643 0.26509 0.24225 0.0
H721 H 0.91708 0.26691 0.77757 0.0
H722 H 0.91692 0.26734 0.89634 0.0
C723 C 0.90635 0.26527 0.3116 0.0
C724 C 0.89256 0.26075 0.12664 0.0
H725 H 0.91044 0.22702 0.9932 0.0
C726 C 0.88196 0.28045 0.08963 0.0
C727 C 0.90281 0.2411 0.08885 0.0
C728 C 0.914 0.2171 0.12098 0.0
C729 C 0.88159 0.2818 1.01995 0.0
C730 C 0.89184 0.26216 0.98215 0.0
C731 C 0.90244 0.24245 1.01917 0.0
C732 C 0.89185 0.26177 0.90576 0.0
C733 C 0.87041 0.30581 0.98782 0.0
C734 C 0.87798 0.2579 0.86649 0.0
C735 C 0.87807 0.25771 0.79715 0.0
C736 C 0.89204 0.26105 0.76174 0.0
C737 C 0.90593 0.26436 0.80079 0.0
C738 C 0.90583 0.26454 0.87023 0.0
H739 H 0.86741 0.32711 1.02077 0.0
H740 H 0.87534 0.31762 0.9435 0.0
H741 H 0.85941 0.29083 0.97456 0.0
H742 H 0.86684 0.25439 0.88935 0.0
H743 H 0.86698 0.25473 0.77106 0.0
H744 H 0.10632 0.74846 0.28159 0.0
H745 H 0.10693 0.74808 0.16276 0.0
H746 H 0.15699 0.76145 0.173 0.0
H747 H 0.1564 0.76102 0.29105 0.0
H748 H 0.11379 0.7884 0.06593 0.0
H749 H 0.15714 0.68873 0.04205 0.0
H750 H 0.14886 0.69818 0.11864 0.0
H751 H 0.16491 0.72503 0.08876 0.0
C752 C 0.11755 0.75109 0.25905 0.0
C753 C 0.13131 0.75448 0.29894 0.0
C754 C 0.11792 0.75095 0.18959 0.0
C755 C 0.13205 0.75383 0.15495 0.0
C756 C 0.14575 0.75782 0.19509 0.0
H757 H 0.1585 0.76067 0.73103 0.0
H758 H 0.15792 0.76103 0.84989 0.0
C759 C 0.1454 0.75796 0.26435 0.0
C760 C 0.13241 0.75345 0.07859 0.0
H761 H 0.1511 0.72012 0.94675 0.0
C762 C 0.12197 0.77308 0.04068 0.0
C763 C 0.14292 0.73397 0.04168 0.0
C764 C 0.15398 0.71002 0.07471 0.0
C765 C 0.12197 0.77452 0.97102 0.0
C766 C 0.13247 0.75505 0.93412 0.0
C767 C 0.14292 0.73543 0.97202 0.0
C768 C 0.13282 0.75466 0.85779 0.0
C769 C 0.11089 0.79841 0.93793 0.0
C770 C 0.11912 0.75034 0.81772 0.0
C771 C 0.11946 0.75015 0.74847 0.0
C772 C 0.13353 0.75398 0.71382 0.0
C773 C 0.14728 0.75774 0.75363 0.0
C774 C 0.14694 0.75789 0.8231 0.0
H775 H 0.10768 0.81967 0.97057 0.0
H776 H 0.11602 0.81028 0.89404 0.0
H777 H 0.09998 0.78333 0.92376 0.0
H778 H 0.10791 0.74647 0.8399 0.0
H779 H 0.10847 0.74679 0.7218 0.0
H780 H 0.83374 0.70449 0.66491 0.0
H781 H 0.83147 0.65987 0.74965 0.0
H782 H 0.87858 0.68835 0.8158 0.0
H783 H 0.88102 0.73083 0.72871 0.0
H784 H 0.8726 0.6187 0.82562 0.0
H785 H 0.82301 0.68708 0.92921 0.0
H786 H 0.82095 0.66732 0.85076 0.0
H787 H 0.83315 0.70634 0.86218 0.0
C788 C 0.84351 0.70088 0.69795 0.0
C789 C 0.85742 0.72131 0.69228 0.0
C790 C 0.84225 0.67543 0.74591 0.0
C791 C 0.85476 0.67105 0.78974 0.0
C792 C 0.8688 0.69096 0.7823 0.0
H793 H 0.89597 0.7215 0.0644 0.0
H794 H 0.88722 0.68249 0.97763 0.0
C795 C 0.87016 0.71555 0.73344 0.0
C796 C 0.85316 0.64954 0.84852 0.0
H797 H 0.84123 0.66474 1.00046 0.0
C798 C 0.8653 0.62744 0.86373 0.0
C799 C 0.84318 0.65943 0.89791 0.0
C800 C 0.82931 0.68127 0.88463 0.0
C801 C 0.86992 0.6221 0.92809 0.0
C802 C 0.86194 0.63861 0.97706 0.0
C803 C 0.84763 0.65316 0.96217 0.0
C804 C 0.87046 0.6528 0.03458 0.0
C805 C 0.88455 0.60323 0.94282 0.0
C806 C 0.86427 0.64848 0.09591 0.0
C807 C 0.86935 0.67078 0.14608 0.0
C808 C 0.88041 0.69845 0.13516 0.0
C809 C 0.88742 0.70082 0.07484 0.0
C810 C 0.88253 0.67814 1.02515 0.0
H811 H 0.88566 0.58144 0.90835 0.0
H812 H 0.89486 0.6215 0.93744 0.0
H813 H 0.88467 0.59293 0.99289 0.0
H814 H 0.85484 0.62932 0.10387 0.0
H815 H 0.86407 0.66702 0.19242 0.0
H816 H 0.65619 0.84344 0.34011 0.0
H817 H 0.66644 0.88076 0.42835 0.0
H818 H 0.64145 0.8158 0.5643 0.0
H819 H 0.63167 0.77755 0.47702 0.0
H820 H 0.6455 0.89903 0.58609 0.0
H821 H 0.69887 0.82559 0.5497 0.0
H822 H 0.68913 0.84778 0.4846 0.0
H823 H 0.68084 0.80738 0.51455 0.0
C824 C 0.65278 0.83717 0.38876 0.0
C825 C 0.64355 0.80675 0.402 0.0
C826 C 0.65843 0.85895 0.43879 0.0
C827 C 0.6547 0.85088 0.50239 0.0
C828 C 0.64431 0.82251 0.51508 0.0
H829 H 0.64319 0.79254 0.8247 0.0
H830 H 0.64543 0.8347 0.73798 0.0
C831 C 0.63879 0.80056 0.46528 0.0
C832 C 0.66377 0.86638 0.55714 0.0
H833 H 0.69122 0.83368 0.65725 0.0
C834 C 0.65598 0.88632 0.6014 0.0
C835 C 0.67788 0.85144 0.57614 0.0
C836 C 0.6873 0.83201 0.52883 0.0
C837 C 0.66031 0.8858 0.66701 0.0
C838 C 0.67194 0.86319 0.68782 0.0
C839 C 0.6818 0.84983 0.64193 0.0
C840 C 0.67057 0.84397 0.74952 0.0
C841 C 0.65124 0.9062 0.71395 0.0
C842 C 0.68391 0.83399 0.78426 0.0
C843 C 0.68262 0.80845 0.832 0.0
C844 C 0.66795 0.79303 0.84629 0.0
C845 C 0.65458 0.80418 0.81407 0.0
C846 C 0.65588 0.82898 0.76555 0.0
H847 H 0.65015 0.93319 0.69602 0.0
H848 H 0.63922 0.89438 0.71722 0.0
H849 H 0.6569 0.90714 0.76277 0.0
H850 H 0.69538 0.84481 0.77251 0.0
H851 H 0.69304 0.80064 0.85761 0.0
H852 H 0.41761 0.76438 0.84889 0.0
H853 H 0.41739 0.76458 0.7302 0.0
H854 H 0.36725 0.75411 0.72659 0.0
H855 H 0.36747 0.75468 0.84502 0.0
H856 H 0.41056 0.72443 0.63245 0.0
H857 H 0.36846 0.82642 0.59451 0.0
H858 H 0.37631 0.81679 0.67361 0.0
H859 H 0.36017 0.79056 0.63921 0.0
C860 C 0.40643 0.76236 0.82336 0.0
C861 C 0.39256 0.75984 0.85954 0.0
C862 C 0.4063 0.76239 0.75394 0.0
C863 C 0.39229 0.76023 0.71546 0.0
C864 C 0.37842 0.75713 0.75181 0.0
H865 H 0.36777 0.75476 0.28489 0.0
H866 H 0.36798 0.75455 0.40359 0.0
C867 C 0.37855 0.75709 0.82122 0.0
C868 C 0.39229 0.76044 0.63907 0.0
H869 H 0.37481 0.7948 0.50136 0.0
C870 C 0.40272 0.74019 0.60457 0.0
C871 C 0.38225 0.7805 0.59883 0.0
C872 C 0.37128 0.80506 0.62828 0.0
C873 C 0.40312 0.73874 0.53499 0.0
C874 C 0.39308 0.7588 0.49475 0.0
C875 C 0.38265 0.77904 0.52924 0.0
C876 C 0.39308 0.75902 0.41837 0.0
C877 C 0.4141 0.71419 0.50553 0.0
C878 C 0.40695 0.76219 0.38203 0.0
C879 C 0.40683 0.76225 0.31263 0.0
C880 C 0.39283 0.75943 0.2743 0.0
C881 C 0.37895 0.75683 0.31045 0.0
C882 C 0.37907 0.75679 0.37986 0.0
H883 H 0.41692 0.69283 0.53929 0.0
H884 H 0.40907 0.70247 0.46019 0.0
H885 H 0.4252 0.72871 0.4946 0.0
H886 H 0.41812 0.76524 0.40728 0.0
H887 H 0.41791 0.76471 0.28884 0.0
H888 H 0.60666 0.2412 0.20501 0.0
H889 H 0.60681 0.24164 0.32367 0.0
H890 H 0.65697 0.25142 0.32771 0.0
H891 H 0.65679 0.25173 0.20926 0.0
H892 H 0.61504 0.20461 0.4218 0.0
H893 H 0.65296 0.32292 0.4591 0.0
H894 H 0.64558 0.31007 0.38004 0.0
H895 H 0.66256 0.2906 0.41482 0.0
C896 C 0.61782 0.2437 0.23061 0.0
C897 C 0.6317 0.2467 0.19454 0.0
C898 C 0.61791 0.24388 0.30002 0.0
C899 C 0.63188 0.24741 0.33862 0.0
C900 C 0.64578 0.24987 0.30238 0.0
H901 H 0.65612 0.25278 0.76936 0.0
H902 H 0.65598 0.25231 0.6507 0.0
C903 C 0.64569 0.24967 0.23297 0.0
C904 C 0.63182 0.24774 0.41499 0.0
H905 H 0.64776 0.28916 0.5525 0.0
C906 C 0.62221 0.22348 0.44959 0.0
C907 C 0.64099 0.27178 0.45513 0.0
C908 C 0.65098 0.30054 0.42553 0.0
C909 C 0.62181 0.22198 0.51918 0.0
C910 C 0.63098 0.24604 0.55931 0.0
C911 C 0.64059 0.27029 0.52471 0.0
C912 C 0.63092 0.24637 0.6357 0.0
C913 C 0.61183 0.1932 0.54876 0.0
C914 C 0.61701 0.24383 0.67191 0.0
C915 C 0.61709 0.24404 0.74132 0.0
C916 C 0.63107 0.24712 0.77976 0.0
C917 C 0.64496 0.25021 0.74372 0.0
C918 C 0.64488 0.25001 0.67432 0.0
H919 H 0.60988 0.17081 0.5152 0.0
H920 H 0.61723 0.18369 0.59428 0.0
H921 H 0.60025 0.2031 0.55941 0.0
H922 H 0.60583 0.2422 0.64656 0.0
H923 H 0.606 0.2419 0.76501 0.0
H924 H 0.37672 0.35423 0.14224 0.0
H925 H 0.38474 0.39423 0.22977 0.0
H926 H 0.35997 0.32794 0.3644 0.0
H927 H 0.35226 0.28737 0.27772 0.0
H928 H 0.36096 0.40852 0.38673 0.0
H929 H 0.41817 0.34917 0.35446 0.0
H930 H 0.40816 0.37068 0.28935 0.0
H931 H 0.40123 0.32825 0.31508 0.0
C932 C 0.37287 0.34825 0.19039 0.0
C933 C 0.36427 0.31696 0.20361 0.0
C934 C 0.37726 0.37151 0.24001 0.0
C935 C 0.37299 0.36388 0.30322 0.0
C936 C 0.36324 0.33436 0.31551 0.0
H937 H 0.3633 0.30157 0.62604 0.0
H938 H 0.36357 0.34395 0.53922 0.0
C939 C 0.35892 0.31105 0.2661 0.0
C940 C 0.38105 0.38122 0.35876 0.0
H941 H 0.40969 0.35521 0.46068 0.0
C942 C 0.37202 0.39853 0.4027 0.0
C943 C 0.39583 0.36995 0.37876 0.0
C944 C 0.40653 0.35364 0.33208 0.0
C945 C 0.37602 0.39847 0.46866 0.0
C946 C 0.38873 0.37902 0.49008 0.0
C947 C 0.3995 0.36879 0.44482 0.0
C948 C 0.38819 0.35945 0.55165 0.0
C949 C 0.36564 0.41585 0.51506 0.0
C950 C 0.40197 0.35286 0.58689 0.0
C951 C 0.40189 0.32713 0.63447 0.0
C952 C 0.38798 0.30819 0.64823 0.0
C953 C 0.37411 0.31595 0.61567 0.0
C954 C 0.37425 0.34087 0.56716 0.0
H955 H 0.36322 0.44237 0.49749 0.0
H956 H 0.35423 0.40101 0.51703 0.0
H957 H 0.371 0.41786 0.56437 0.0
H958 H 0.4129 0.36651 0.57564 0.0
H959 H 0.41264 0.3219 0.6604 0.0
H960 H 0.10515 0.24492 0.48276 0.0
H961 H 0.07668 0.24555 0.46186 0.0
H962 H 0.06968 0.26006 0.66488 0.0
H963 H 0.09768 0.25956 0.68599 0.0
H964 H 0.05066 0.20245 0.51573 0.0
H965 H 0.04722 0.34143 0.57977 0.0
H966 H 0.06539 0.32246 0.56098 0.0
H967 H 0.05737 0.3169 0.63982 0.0
C968 C 0.09754 0.24828 0.52287 0.0
C969 C 0.10388 0.25243 0.58605 0.0
C970 C 0.08123 0.24853 0.5109 0.0
C971 C 0.07092 0.25332 0.56168 0.0
C972 C 0.07727 0.25689 0.62458 0.0
H973 H 0.97579 0.27314 0.6608 0.0
H974 H 1.00374 0.26656 0.65124 0.0
C975 C 0.09341 0.25648 0.63656 0.0
C976 C 0.05357 0.25512 0.55037 0.0
H977 H 0.02323 0.30731 0.57792 0.0
C978 C 0.04466 0.22555 0.5283 0.0
C979 C 0.04561 0.28521 0.56656 0.0
C980 C 0.05438 0.31843 0.58752 0.0
C981 C 0.02811 0.22474 0.52544 0.0
C982 C 0.02016 0.25443 0.54431 0.0
C983 C 0.02916 0.28436 0.56381 0.0
C984 C 1.00266 0.25465 0.54924 0.0
C985 C 0.01925 0.19155 0.50523 0.0
C986 C 0.99236 0.24937 0.49542 0.0
C987 C 0.97611 0.25304 0.50097 0.0
C988 C 0.96986 0.26242 0.5603 0.0
C989 C 0.98016 0.2663 0.61421 0.0
C990 C 0.99623 0.26254 0.60877 0.0
H991 H 0.02689 0.16907 0.50471 0.0
H992 H 1.00947 0.18553 0.5381 0.0
H993 H 0.01422 0.19478 0.45585 0.0
H994 H 0.99692 0.24375 0.44857 0.0
H995 H 0.96857 0.25026 0.45839 0.0
H996 H 0.92609 0.76954 0.35292 0.0
H997 H 0.95429 0.77001 0.3693 0.0
H998 H 0.94864 0.76249 0.57481 0.0
H999 H 0.92005 0.76179 0.55868 0.0
H1000 H 0.97502 0.81531 0.43642 0.0
H1001 H 0.97686 0.68216 0.53849 0.0
H1002 H 0.95964 0.69778 0.49834 0.0
H1003 H 0.96458 0.71087 0.57984 0.0
C1004 C 0.93073 0.76794 0.40189 0.0
C1005 C 0.92061 0.7654 0.45449 0.0
C1006 C 0.94698 0.76833 0.41111 0.0
C1007 C 0.95377 0.76587 0.47317 0.0
C1008 C 0.94377 0.76383 0.52619 0.0
H1009 H 0.05007 0.74451 0.60852 0.0
H1010 H 0.0221 0.7527 0.59768 0.0
C1011 C 0.92739 0.76363 0.517 0.0
C1012 C 0.97126 0.76528 0.48129 0.0
H1013 H 1.0008 0.71459 0.53328 0.0
C1014 C 0.98065 0.79329 0.45777 0.0
C1015 C 0.97875 0.73656 0.5087 0.0
C1016 C 0.9695 0.70495 0.53235 0.0
C1017 C 0.99714 0.79365 0.46191 0.0
C1018 C 1.00465 0.7648 0.48896 0.0
C1019 C 0.99522 0.73682 0.5125 0.0
C1020 C 0.02217 0.76314 0.49515 0.0
C1021 C 1.00633 0.82543 0.43867 0.0
C1022 C 0.03194 0.76692 0.4415 0.0
C1023 C 0.04818 0.7626 0.44792 0.0
C1024 C 0.05497 0.75383 0.5079 0.0
C1025 C 0.04524 0.75103 0.56153 0.0
C1026 C 0.02916 0.75564 0.55531 0.0
H1027 H 0.99914 0.84868 0.43736 0.0
H1028 H 0.01683 0.83126 0.46999 0.0
H1029 H 1.01019 0.82071 0.38891 0.0
H1030 H 0.02696 0.77194 0.3941 0.0
H1031 H 0.05527 0.76441 0.40554 0.0
H1032 H 0.60493 0.74177 0.97242 0.0
H1033 H 0.57639 0.74297 0.95371 0.0
H1034 H 0.57019 0.75262 0.15831 0.0
H1035 H 0.59822 0.75148 0.17731 0.0
H1036 H 0.55039 0.6983 1.00826 0.0
H1037 H 0.5478 0.8365 0.07953 0.0
H1038 H 0.56574 0.81762 0.05707 0.0
H1039 H 0.55835 0.8109 0.13671 0.0
C1040 C 0.59747 0.74414 1.01335 0.0
C1041 C 0.60405 0.74675 0.07637 0.0
C1042 C 0.58113 0.74473 1.00262 0.0
C1043 C 0.57103 0.7483 0.05455 0.0
C1044 C 0.57761 0.75034 0.11723 0.0
H1045 H 0.47696 0.76773 0.1664 0.0
H1046 H 0.50476 0.76101 0.15263 0.0
C1047 C 0.59378 0.7496 0.12796 0.0
C1048 C 0.55367 0.75052 0.04484 0.0
H1049 H 0.52372 0.80274 0.07839 0.0
C1050 C 0.54455 0.72132 1.02251 0.0
C1051 C 0.54593 0.78051 0.06332 0.0
C1052 C 0.55494 0.81331 0.08494 0.0
C1053 C 0.52801 0.72074 1.02161 0.0
C1054 C 0.52029 0.7503 0.0428 0.0
C1055 C 0.52948 0.7799 0.06249 0.0
C1056 C 0.50286 0.75061 0.05014 0.0
C1057 C 0.51892 0.68791 1.00102 0.0
C1058 C 0.49216 0.74621 0.99746 0.0
C1059 C 0.47599 0.74997 1.00545 0.0
C1060 C 0.47024 0.75855 0.06613 0.0
C1061 C 0.48094 0.76153 0.11883 0.0
C1062 C 0.49693 0.75769 0.11098 0.0
H1063 H 0.52649 0.66537 0.99825 0.0
H1064 H 0.50942 0.68153 0.03503 0.0
H1065 H 0.51349 0.69186 0.95255 0.0
H1066 H 0.49634 0.74122 0.9497 0.0
H1067 H 0.46813 0.74788 0.96376 0.0
H1068 H 0.41904 0.25046 0.07698 0.0
H1069 H 0.44754 0.24901 0.09389 0.0
H1070 H 0.45394 0.2723 0.89264 0.0
H1071 H 0.42584 0.27289 0.87534 0.0
H1072 H 0.47104 0.22073 0.92542 0.0
H1073 H 0.4819 0.32408 0.10962 0.0
H1074 H 0.46805 0.29025 0.13309 0.0
H1075 H 0.46348 0.31794 0.06602 0.0
C1076 C 0.42655 0.25558 0.03655 0.0
C1077 C 0.41999 0.26167 0.97475 0.0
C1078 C 0.44292 0.25498 0.04632 0.0
C1079 C 0.45313 0.2609 0.9947 0.0
C1080 C 0.44651 0.26757 0.93348 0.0
H1081 H 0.55578 0.29594 0.98846 0.0
H1082 H 0.52745 0.3039 0.99429 0.0
C1083 C 0.4303 0.26791 0.92367 0.0
C1084 C 0.4706 0.25831 1.00217 0.0
H1085 H 0.50353 0.29066 0.084 0.0
C1086 C 0.47807 0.23612 0.96023 0.0
C1087 C 0.48003 0.27861 0.0468 0.0
C1088 C 0.47302 0.30433 0.09108 0.0
C1089 C 0.49442 0.23352 0.9616 0.0
C1090 C 0.50382 0.25294 1.00749 0.0
C1091 C 0.49643 0.27546 0.04917 0.0
C1092 C 0.52125 0.24962 1.01256 0.0
C1093 C 0.50147 0.21046 0.9124 0.0
C1094 C 0.52743 0.21694 1.02375 0.0
C1095 C 0.54349 0.21245 1.0201 0.0
C1096 C 0.55401 0.24056 1.00632 0.0
C1097 C 0.54803 0.27383 0.99963 0.0
C1098 C 0.53181 0.27831 1.00265 0.0
H1099 H 0.49351 0.20578 0.86978 0.0
H1100 H 0.51274 0.22205 0.89552 0.0
H1101 H 0.50363 0.18486 0.93464 0.0
H1102 H 0.51972 0.19449 0.03326 0.0
H1103 H 0.54771 0.18655 1.02607 0.0
loop_
_geom_bond_atom_site_label_1
_geom_bond_atom_site_label_2
_geom_bond_distance
_geom_bond_site_symmetry_2
_ccdc_geom_bond_type
Co0 N5 2.057 . S
Co0 O17 2.021 . S
Co0 O20 2.062 . S
Co0 O24 2.117 . S
Co0 O25 2.020 . S
C1 O21 1.259 . S
C1 O24 1.258 . S
Co2 N11 2.057 . S
Co2 O18 2.117 . S
Co2 O19 2.020 . S
Co2 O21 2.021 . S
Co2 O26 2.062 . S
C3 N5 1.316 . S
C3 N6 1.347 . S
C3 H8 0.931 . S
C4 N5 1.375 . S
C4 C7 1.350 . S
C4 H9 0.930 . S
N5 Co0 2.057 . S
N5 C3 1.316 . S
N5 C4 1.375 . S
N6 C3 1.347 . S
N6 C7 1.373 . S
C7 C4 1.350 . S
C7 N6 1.373 . S
C7 H28 0.931 . S
H8 C3 0.931 . S
H9 C4 0.930 . S
C10 O17 1.259 . S
C10 O18 1.258 . S
N11 Co2 2.057 . S
N11 C12 1.316 . S
N11 C13 1.375 . S
C12 N11 1.316 . S
C12 N14 1.347 . S
C12 H23 0.931 . S
C13 N11 1.375 . S
C13 C15 1.350 . S
C13 H22 0.930 . S
N14 C12 1.347 . S
N14 C15 1.373 . S
C15 C13 1.350 . S
C15 N14 1.373 . S
C15 H29 0.931 . S
C16 O19 1.256 . S
C16 O20 1.255 . S
O17 Co0 2.021 . S
O17 C10 1.259 . S
O18 Co2 2.117 . S
O18 C10 1.258 . S
O19 Co2 2.020 . S
O19 C16 1.256 . S
O20 Co0 2.062 . S
O20 C16 1.255 . S
O21 C1 1.259 . S
O21 Co2 2.021 . S
H22 C13 0.930 . S
H23 C12 0.931 . S
O24 Co0 2.117 . S
O24 C1 1.258 . S
O25 Co0 2.020 . S
O25 C27 1.256 . S
O26 Co2 2.062 . S
O26 C27 1.255 . S
C27 O25 1.256 . S
C27 O26 1.255 . S
H28 C7 0.931 . S
H29 C15 0.931 . S
Co30 N35 2.057 . S
Co30 O47 2.021 . S
Co30 O50 2.062 . S
Co30 O54 2.117 . S
Co30 O55 2.020 . S
C31 O51 1.259 . S
C31 O54 1.258 . S
Co32 N41 2.057 . S
Co32 O48 2.117 . S
Co32 O49 2.020 . S
Co32 O51 2.021 . S
Co32 O56 2.062 . S
C33 N35 1.316 . S
C33 N36 1.347 . S
C33 H38 0.931 . S
C34 N35 1.375 . S
C34 C37 1.350 . S
C34 H39 0.930 . S
N35 Co30 2.057 . S
N35 C33 1.316 . S
N35 C34 1.375 . S
N36 C33 1.347 . S
N36 C37 1.373 . S
C37 C34 1.350 . S
C37 N36 1.373 . S
C37 H58 0.931 . S
H38 C33 0.931 . S
H39 C34 0.930 . S
C40 O47 1.259 . S
C40 O48 1.258 . S
N41 Co32 2.057 . S
N41 C42 1.316 . S
N41 C43 1.375 . S
C42 N41 1.316 . S
C42 N44 1.347 . S
C42 H53 0.931 . S
C43 N41 1.375 . S
C43 C45 1.350 . S
C43 H52 0.930 . S
N44 C42 1.347 . S
N44 C45 1.373 . S
C45 C43 1.350 . S
C45 N44 1.373 . S
C45 H59 0.931 . S
C46 O49 1.256 . S
C46 O50 1.255 . S
O47 Co30 2.021 . S
O47 C40 1.259 . S
O48 Co32 2.117 . S
O48 C40 1.258 . S
O49 Co32 2.020 . S
O49 C46 1.256 . S
O50 Co30 2.062 . S
O50 C46 1.255 . S
O51 C31 1.259 . S
O51 Co32 2.021 . S
H52 C43 0.930 . S
H53 C42 0.931 . S
O54 Co30 2.117 . S
O54 C31 1.258 . S
O55 Co30 2.020 . S
O55 C57 1.256 . S
O56 Co32 2.062 . S
O56 C57 1.255 . S
C57 O55 1.256 . S
C57 O56 1.255 . S
H58 C37 0.931 . S
H59 C45 0.931 . S
Co60 N65 2.057 . S
Co60 O77 2.021 . S
Co60 O80 2.062 . S
Co60 O84 2.117 . S
Co60 O85 2.020 . S
C61 O81 1.259 . S
C61 O84 1.258 . S
Co62 N71 2.057 . S
Co62 O78 2.117 . S
Co62 O79 2.020 . S
Co62 O81 2.021 . S
Co62 O86 2.062 . S
C63 N65 1.316 . S
C63 N66 1.347 . S
C63 H68 0.931 . S
C64 N65 1.375 . S
C64 C67 1.350 . S
C64 H69 0.930 . S
N65 Co60 2.057 . S
N65 C63 1.316 . S
N65 C64 1.375 . S
N66 C63 1.347 . S
N66 C67 1.373 . S
C67 C64 1.350 . S
C67 N66 1.373 . S
C67 H88 0.931 . S
H68 C63 0.931 . S
H69 C64 0.930 . S
C70 O77 1.259 . S
C70 O78 1.258 . S
N71 Co62 2.057 . S
N71 C72 1.316 . S
N71 C73 1.375 . S
C72 N71 1.316 . S
C72 N74 1.347 . S
C72 H83 0.931 . S
C73 N71 1.375 . S
C73 C75 1.350 . S
C73 H82 0.930 . S
N74 C72 1.347 . S
N74 C75 1.373 . S
C75 C73 1.350 . S
C75 N74 1.373 . S
C75 H89 0.931 . S
C76 O79 1.256 . S
C76 O80 1.255 . S
O77 Co60 2.021 . S
O77 C70 1.259 . S
O78 Co62 2.117 . S
O78 C70 1.258 . S
O79 Co62 2.020 . S
O79 C76 1.256 . S
O80 Co60 2.062 . S
O80 C76 1.255 . S
O81 C61 1.259 . S
O81 Co62 2.021 . S
H82 C73 0.930 . S
H83 C72 0.931 . S
O84 Co60 2.117 . S
O84 C61 1.258 . S
O85 Co60 2.020 . S
O85 C87 1.256 . S
O86 Co62 2.062 . S
O86 C87 1.255 . S
C87 O85 1.256 . S
C87 O86 1.255 . S
H88 C67 0.931 . S
H89 C75 0.931 . S
Co90 N95 2.057 . S
Co90 O107 2.021 . S
Co90 O110 2.062 . S
Co90 O114 2.117 . S
Co90 O115 2.020 . S
C91 O111 1.259 . S
C91 O114 1.258 . S
Co92 N101 2.057 . S
Co92 O108 2.117 . S
Co92 O109 2.020 . S
Co92 O111 2.021 . S
Co92 O116 2.062 . S
C93 N95 1.316 . S
C93 N96 1.347 . S
C93 H98 0.931 . S
C94 N95 1.375 . S
C94 C97 1.350 . S
C94 H99 0.930 . S
N95 Co90 2.057 . S
N95 C93 1.316 . S
N95 C94 1.375 . S
N96 C93 1.347 . S
N96 C97 1.373 . S
C97 C94 1.350 . S
C97 N96 1.373 . S
C97 H118 0.931 . S
H98 C93 0.931 . S
H99 C94 0.930 . S
C100 O107 1.259 . S
C100 O108 1.258 . S
N101 Co92 2.057 . S
N101 C102 1.316 . S
N101 C103 1.375 . S
C102 N101 1.316 . S
C102 N104 1.347 . S
C102 H113 0.931 . S
C103 N101 1.375 . S
C103 C105 1.350 . S
C103 H112 0.930 . S
N104 C102 1.347 . S
N104 C105 1.373 . S
C105 C103 1.350 . S
C105 N104 1.373 . S
C105 H119 0.931 . S
C106 O109 1.256 . S
C106 O110 1.255 . S
O107 Co90 2.021 . S
O107 C100 1.259 . S
O108 Co92 2.117 . S
O108 C100 1.258 . S
O109 Co92 2.020 . S
O109 C106 1.256 . S
O110 Co90 2.062 . S
O110 C106 1.255 . S
O111 C91 1.259 . S
O111 Co92 2.021 . S
H112 C103 0.930 . S
H113 C102 0.931 . S
O114 Co90 2.117 . S
O114 C91 1.258 . S
O115 Co90 2.020 . S
O115 C117 1.256 . S
O116 Co92 2.062 . S
O116 C117 1.255 . S
C117 O115 1.256 . S
C117 O116 1.255 . S
H118 C97 0.931 . S
H119 C105 0.931 . S
Co120 N125 2.057 . S
Co120 O137 2.021 . S
Co120 O140 2.062 . S
Co120 O144 2.117 . S
Co120 O145 2.020 . S
C121 O141 1.259 . S
C121 O144 1.258 . S
Co122 N131 2.057 1_554 S
Co122 O138 2.117 . S
Co122 O139 2.020 . S
Co122 O141 2.021 . S
Co122 O146 2.062 . S
C123 N125 1.316 . S
C123 N126 1.347 . S
C123 H128 0.931 . S
C124 N125 1.375 . S
C124 C127 1.350 . S
C124 H129 0.930 . S
N125 Co120 2.057 . S
N125 C123 1.316 . S
N125 C124 1.375 . S
N126 C123 1.347 . S
N126 C127 1.373 . S
C127 C124 1.350 . S
C127 N126 1.373 . S
C127 H148 0.931 . S
H128 C123 0.931 . S
H129 C124 0.930 . S
C130 O137 1.259 . S
C130 O138 1.258 . S
N131 Co122 2.057 1_556 S
N131 C132 1.316 . S
N131 C133 1.375 . S
C132 N131 1.316 . S
C132 N134 1.347 . S
C132 H143 0.931 . S
C133 N131 1.375 . S
C133 C135 1.350 . S
C133 H142 0.930 . S
N134 C132 1.347 . S
N134 C135 1.373 . S
C135 C133 1.350 . S
C135 N134 1.373 . S
C135 H149 0.931 . S
C136 O139 1.256 . S
C136 O140 1.255 . S
O137 Co120 2.021 . S
O137 C130 1.259 . S
O138 Co122 2.117 . S
O138 C130 1.258 . S
O139 Co122 2.020 . S
O139 C136 1.256 . S
O140 Co120 2.062 . S
O140 C136 1.255 . S
O141 C121 1.259 . S
O141 Co122 2.021 . S
H142 C133 0.930 . S
H143 C132 0.931 . S
O144 Co120 2.117 . S
O144 C121 1.258 . S
O145 Co120 2.020 . S
O145 C147 1.256 . S
O146 Co122 2.062 . S
O146 C147 1.255 . S
C147 O145 1.256 . S
C147 O146 1.255 . S
H148 C127 0.931 . S
H149 C135 0.931 . S
Co150 N155 2.057 . S
Co150 O167 2.021 . S
Co150 O170 2.062 1_554 S
Co150 O174 2.117 . S
Co150 O175 2.020 . S
C151 O171 1.259 . S
C151 O174 1.258 . S
Co152 N161 2.057 . S
Co152 O168 2.117 . S
Co152 O169 2.020 1_554 S
Co152 O171 2.021 . S
Co152 O176 2.062 . S
C153 N155 1.316 . S
C153 N156 1.347 . S
C153 H158 0.931 . S
C154 N155 1.375 . S
C154 C157 1.350 . S
C154 H159 0.930 . S
N155 Co150 2.057 . S
N155 C153 1.316 . S
N155 C154 1.375 . S
N156 C153 1.347 . S
N156 C157 1.373 . S
C157 C154 1.350 . S
C157 N156 1.373 . S
C157 H178 0.931 . S
H158 C153 0.931 . S
H159 C154 0.930 . S
C160 O167 1.259 . S
C160 O168 1.258 . S
N161 Co152 2.057 . S
N161 C162 1.316 . S
N161 C163 1.375 . S
C162 N161 1.316 . S
C162 N164 1.347 . S
C162 H173 0.931 . S
C163 N161 1.375 . S
C163 C165 1.350 . S
C163 H172 0.930 . S
N164 C162 1.347 . S
N164 C165 1.373 . S
C165 C163 1.350 . S
C165 N164 1.373 . S
C165 H179 0.931 . S
C166 O169 1.256 . S
C166 O170 1.255 . S
O167 Co150 2.021 . S
O167 C160 1.259 . S
O168 Co152 2.117 . S
O168 C160 1.258 . S
O169 Co152 2.020 1_556 S
O169 C166 1.256 . S
O170 Co150 2.062 1_556 S
O170 C166 1.255 . S
O171 C151 1.259 . S
O171 Co152 2.021 . S
H172 C163 0.930 . S
H173 C162 0.931 . S
O174 Co150 2.117 . S
O174 C151 1.258 . S
O175 Co150 2.020 . S
O175 C177 1.256 . S
O176 Co152 2.062 . S
O176 C177 1.255 . S
C177 O175 1.256 . S
C177 O176 1.255 . S
H178 C157 0.931 . S
H179 C165 0.931 . S
Co180 N185 2.057 . S
Co180 O197 2.021 . S
Co180 O200 2.062 . S
Co180 O204 2.117 . S
Co180 O205 2.020 1_556 S
C181 O201 1.259 . S
C181 O204 1.258 . S
Co182 N191 2.057 . S
Co182 O198 2.117 . S
Co182 O199 2.020 . S
Co182 O201 2.021 . S
Co182 O206 2.062 1_556 S
C183 N185 1.316 . S
C183 N186 1.347 . S
C183 H188 0.931 . S
C184 N185 1.375 . S
C184 C187 1.350 . S
C184 H189 0.930 . S
N185 Co180 2.057 . S
N185 C183 1.316 . S
N185 C184 1.375 . S
N186 C183 1.347 . S
N186 C187 1.373 . S
C187 C184 1.350 . S
C187 N186 1.373 . S
C187 H208 0.931 . S
H188 C183 0.931 . S
H189 C184 0.930 . S
C190 O197 1.259 . S
C190 O198 1.258 . S
N191 Co182 2.057 . S
N191 C192 1.316 . S
N191 C193 1.375 . S
C192 N191 1.316 . S
C192 N194 1.347 . S
C192 H203 0.931 . S
C193 N191 1.375 . S
C193 C195 1.350 . S
C193 H202 0.930 . S
N194 C192 1.347 . S
N194 C195 1.373 . S
C195 C193 1.350 . S
C195 N194 1.373 . S
C195 H209 0.931 . S
C196 O199 1.256 . S
C196 O200 1.255 . S
O197 Co180 2.021 . S
O197 C190 1.259 . S
O198 Co182 2.117 . S
O198 C190 1.258 . S
O199 Co182 2.020 . S
O199 C196 1.256 . S
O200 Co180 2.062 . S
O200 C196 1.255 . S
O201 C181 1.259 . S
O201 Co182 2.021 . S
H202 C193 0.930 . S
H203 C192 0.931 . S
O204 Co180 2.117 . S
O204 C181 1.258 . S
O205 Co180 2.020 1_554 S
O205 C207 1.256 . S
O206 Co182 2.062 1_554 S
O206 C207 1.255 . S
C207 O205 1.256 . S
C207 O206 1.255 . S
H208 C187 0.931 . S
H209 C195 0.931 . S
Co210 N215 2.057 1_556 S
Co210 O227 2.021 . S
Co210 O230 2.062 . S
Co210 O234 2.117 . S
Co210 O235 2.020 . S
C211 O231 1.259 . S
C211 O234 1.258 . S
Co212 N221 2.057 . S
Co212 O228 2.117 . S
Co212 O229 2.020 . S
Co212 O231 2.021 . S
Co212 O236 2.062 . S
C213 N215 1.316 . S
C213 N216 1.347 . S
C213 H218 0.931 . S
C214 N215 1.375 . S
C214 C217 1.350 . S
C214 H219 0.930 . S
N215 Co210 2.057 1_554 S
N215 C213 1.316 . S
N215 C214 1.375 . S
N216 C213 1.347 . S
N216 C217 1.373 . S
C217 C214 1.350 . S
C217 N216 1.373 . S
C217 H238 0.931 . S
H218 C213 0.931 . S
H219 C214 0.930 . S
C220 O227 1.259 . S
C220 O228 1.258 . S
N221 Co212 2.057 . S
N221 C222 1.316 . S
N221 C223 1.375 . S
C222 N221 1.316 . S
C222 N224 1.347 . S
C222 H233 0.931 . S
C223 N221 1.375 . S
C223 C225 1.350 . S
C223 H232 0.930 . S
N224 C222 1.347 . S
N224 C225 1.373 . S
C225 C223 1.350 . S
C225 N224 1.373 . S
C225 H239 0.931 . S
C226 O229 1.256 . S
C226 O230 1.255 . S
O227 Co210 2.021 . S
O227 C220 1.259 . S
O228 Co212 2.117 . S
O228 C220 1.258 . S
O229 Co212 2.020 . S
O229 C226 1.256 . S
O230 Co210 2.062 . S
O230 C226 1.255 . S
O231 C211 1.259 . S
O231 Co212 2.021 . S
H232 C223 0.930 . S
H233 C222 0.931 . S
O234 Co210 2.117 . S
O234 C211 1.258 . S
O235 Co210 2.020 . S
O235 C237 1.256 . S
O236 Co212 2.062 . S
O236 C237 1.255 . S
C237 O235 1.256 . S
C237 O236 1.255 . S
H238 C217 0.931 . S
H239 C225 0.931 . S
H240 C248 0.929 . S
H241 C250 0.930 . S
H242 C252 0.930 . S
H243 C255 0.929 . S
H244 C258 0.930 . S
H245 C260 0.960 . S
H246 C260 0.960 . S
H247 C260 0.960 . S
C248 H240 0.929 . S
C248 C249 1.377 . S
C248 C250 1.384 . S
C249 C248 1.377 . S
C249 C255 1.390 . S
C250 H241 0.930 . S
C250 C248 1.384 . S
C250 C251 1.372 . S
C251 C250 1.372 . S
C251 C252 1.400 . S
C251 C256 1.490 . S
C252 H242 0.930 . S
C252 C251 1.400 . S
C252 C255 1.386 . S
H253 C269 0.930 . S
H254 C270 0.931 . S
C255 H243 0.929 . S
C255 C249 1.390 . S
C255 C252 1.386 . S
C256 C251 1.490 . S
C256 C258 1.395 . S
C256 C259 1.403 . S
H257 C263 0.930 . S
C258 H244 0.930 . S
C258 C256 1.395 . S
C258 C261 1.403 . S
C259 C256 1.403 . S
C259 C260 1.524 . S
C259 C263 1.400 . S
C260 H245 0.960 . S
C260 H246 0.960 . S
C260 H247 0.960 . S
C260 C259 1.524 . S
C261 C258 1.403 . S
C261 C262 1.392 . S
C261 C265 1.495 . S
C262 C261 1.392 . S
C262 C263 1.385 . S
C262 C264 1.478 . S
C263 H257 0.930 . S
C263 C259 1.400 . S
C263 C262 1.385 . S
C264 C262 1.478 . S
C264 C266 1.381 . S
C264 C270 1.383 . S
C265 C261 1.495 . S
C265 H271 0.959 . S
C265 H272 0.961 . S
C265 H273 0.960 . S
C266 C264 1.381 . S
C266 C267 1.394 . S
C266 H274 0.930 . S
C267 C266 1.394 . S
C267 C268 1.383 . S
C267 H275 0.929 . S
C268 C267 1.383 . S
C268 C269 1.377 . S
C269 H253 0.930 . S
C269 C268 1.377 . S
C269 C270 1.379 . S
C270 H254 0.931 . S
C270 C264 1.383 . S
C270 C269 1.379 . S
H271 C265 0.959 . S
H272 C265 0.961 . S
H273 C265 0.960 . S
H274 C266 0.930 . S
H275 C267 0.929 . S
H276 C284 0.929 . S
H277 C286 0.930 . S
H278 C288 0.930 . S
H279 C291 0.929 . S
H280 C294 0.930 . S
H281 C296 0.960 . S
H282 C296 0.960 . S
H283 C296 0.960 . S
C284 H276 0.929 . S
C284 C285 1.377 . S
C284 C286 1.384 . S
C285 C284 1.377 . S
C285 C291 1.390 . S
C286 H277 0.930 . S
C286 C284 1.384 . S
C286 C287 1.372 . S
C287 C286 1.372 . S
C287 C288 1.400 . S
C287 C292 1.490 . S
C288 H278 0.930 . S
C288 C287 1.400 . S
C288 C291 1.386 . S
H289 C305 0.930 . S
H290 C306 0.931 . S
C291 H279 0.929 . S
C291 C285 1.390 . S
C291 C288 1.386 . S
C292 C287 1.490 . S
C292 C294 1.395 . S
C292 C295 1.403 . S
H293 C299 0.930 . S
C294 H280 0.930 . S
C294 C292 1.395 . S
C294 C297 1.403 . S
C295 C292 1.403 . S
C295 C296 1.524 . S
C295 C299 1.400 . S
C296 H281 0.960 . S
C296 H282 0.960 . S
C296 H283 0.960 . S
C296 C295 1.524 . S
C297 C294 1.403 . S
C297 C298 1.392 . S
C297 C301 1.495 . S
C298 C297 1.392 . S
C298 C299 1.385 . S
C298 C300 1.478 . S
C299 H293 0.930 . S
C299 C295 1.400 . S
C299 C298 1.385 . S
C300 C298 1.478 . S
C300 C302 1.381 . S
C300 C306 1.383 . S
C301 C297 1.495 . S
C301 H307 0.959 . S
C301 H308 0.961 . S
C301 H309 0.960 . S
C302 C300 1.381 . S
C302 C303 1.394 . S
C302 H310 0.930 . S
C303 C302 1.394 . S
C303 C304 1.383 . S
C303 H311 0.929 . S
C304 C303 1.383 . S
C304 C305 1.377 . S
C305 H289 0.930 . S
C305 C304 1.377 . S
C305 C306 1.379 . S
C306 H290 0.931 . S
C306 C300 1.383 . S
C306 C305 1.379 . S
H307 C301 0.959 . S
H308 C301 0.961 . S
H309 C301 0.960 . S
H310 C302 0.930 . S
H311 C303 0.929 . S
H312 C320 0.929 . S
H313 C322 0.930 . S
H314 C324 0.930 . S
H315 C327 0.929 . S
H316 C330 0.930 . S
H317 C332 0.960 . S
H318 C332 0.960 . S
H319 C332 0.960 . S
C320 H312 0.929 . S
C320 C321 1.377 . S
C320 C322 1.384 . S
C321 C320 1.377 . S
C321 C327 1.390 . S
C322 H313 0.930 . S
C322 C320 1.384 . S
C322 C323 1.372 . S
C323 C322 1.372 . S
C323 C324 1.400 . S
C323 C328 1.490 . S
C324 H314 0.930 . S
C324 C323 1.400 . S
C324 C327 1.386 . S
H325 C341 0.930 . S
H326 C342 0.931 . S
C327 H315 0.929 . S
C327 C321 1.390 . S
C327 C324 1.386 . S
C328 C323 1.490 . S
C328 C330 1.395 . S
C328 C331 1.403 . S
H329 C335 0.930 . S
C330 H316 0.930 . S
C330 C328 1.395 . S
C330 C333 1.403 . S
C331 C328 1.403 . S
C331 C332 1.524 . S
C331 C335 1.400 . S
C332 H317 0.960 . S
C332 H318 0.960 . S
C332 H319 0.960 . S
C332 C331 1.524 . S
C333 C330 1.403 . S
C333 C334 1.392 . S
C333 C337 1.495 . S
C334 C333 1.392 . S
C334 C335 1.385 . S
C334 C336 1.478 . S
C335 H329 0.930 . S
C335 C331 1.400 . S
C335 C334 1.385 . S
C336 C334 1.478 . S
C336 C338 1.381 . S
C336 C342 1.383 . S
C337 C333 1.495 . S
C337 H343 0.959 . S
C337 H344 0.961 . S
C337 H345 0.960 . S
C338 C336 1.381 . S
C338 C339 1.394 . S
C338 H346 0.930 . S
C339 C338 1.394 . S
C339 C340 1.383 . S
C339 H347 0.929 . S
C340 C339 1.383 . S
C340 C341 1.377 . S
C341 H325 0.930 . S
C341 C340 1.377 . S
C341 C342 1.379 . S
C342 H326 0.931 . S
C342 C336 1.383 . S
C342 C341 1.379 . S
H343 C337 0.959 . S
H344 C337 0.961 . S
H345 C337 0.960 . S
H346 C338 0.930 . S
H347 C339 0.929 . S
H348 C356 0.929 . S
H349 C358 0.930 . S
H350 C360 0.930 . S
H351 C363 0.929 . S
H352 C366 0.930 . S
H353 C368 0.960 . S
H354 C368 0.960 . S
H355 C368 0.960 . S
C356 H348 0.929 . S
C356 C357 1.377 . S
C356 C358 1.384 . S
C357 C356 1.377 . S
C357 C363 1.390 . S
C358 H349 0.930 . S
C358 C356 1.384 . S
C358 C359 1.372 . S
C359 C358 1.372 . S
C359 C360 1.400 . S
C359 C364 1.490 . S
C360 H350 0.930 . S
C360 C359 1.400 . S
C360 C363 1.386 . S
H361 C377 0.930 . S
H362 C378 0.931 . S
C363 H351 0.929 . S
C363 C357 1.390 . S
C363 C360 1.386 . S
C364 C359 1.490 . S
C364 C366 1.395 . S
C364 C367 1.403 . S
H365 C371 0.930 . S
C366 H352 0.930 . S
C366 C364 1.395 . S
C366 C369 1.403 . S
C367 C364 1.403 . S
C367 C368 1.524 . S
C367 C371 1.400 . S
C368 H353 0.960 . S
C368 H354 0.960 . S
C368 H355 0.960 . S
C368 C367 1.524 . S
C369 C366 1.403 . S
C369 C370 1.392 . S
C369 C373 1.495 . S
C370 C369 1.392 . S
C370 C371 1.385 . S
C370 C372 1.478 . S
C371 H365 0.930 . S
C371 C367 1.400 . S
C371 C370 1.385 . S
C372 C370 1.478 . S
C372 C374 1.381 . S
C372 C378 1.383 . S
C373 C369 1.495 . S
C373 H379 0.959 . S
C373 H380 0.961 . S
C373 H381 0.960 . S
C374 C372 1.381 . S
C374 C375 1.394 . S
C374 H382 0.930 . S
C375 C374 1.394 . S
C375 C376 1.383 . S
C375 H383 0.929 . S
C376 C375 1.383 . S
C376 C377 1.377 . S
C377 H361 0.930 . S
C377 C376 1.377 . S
C377 C378 1.379 . S
C378 H362 0.931 . S
C378 C372 1.383 . S
C378 C377 1.379 . S
H379 C373 0.959 . S
H380 C373 0.961 . S
H381 C373 0.960 . S
H382 C374 0.930 . S
H383 C375 0.929 . S
H384 C392 0.929 . S
H385 C394 0.930 . S
H386 C396 0.930 . S
H387 C399 0.929 . S
H388 C402 0.930 . S
H389 C404 0.960 1_545 S
H390 C404 0.960 . S
H391 C404 0.960 . S
C392 H384 0.929 . S
C392 C393 1.377 . S
C392 C394 1.384 . S
C393 C392 1.377 . S
C393 C399 1.390 . S
C394 H385 0.930 . S
C394 C392 1.384 . S
C394 C395 1.372 . S
C395 C394 1.372 . S
C395 C396 1.400 . S
C395 C400 1.490 . S
C396 H386 0.930 . S
C396 C395 1.400 . S
C396 C399 1.386 . S
H397 C413 0.930 . S
H398 C414 0.931 . S
C399 H387 0.929 . S
C399 C393 1.390 . S
C399 C396 1.386 . S
C400 C395 1.490 . S
C400 C402 1.395 . S
C400 C403 1.403 . S
H401 C407 0.930 . S
C402 H388 0.930 . S
C402 C400 1.395 . S
C402 C405 1.403 1_565 S
C403 C400 1.403 . S
C403 C404 1.524 . S
C403 C407 1.400 1_565 S
C404 H389 0.960 1_565 S
C404 H390 0.960 . S
C404 H391 0.960 . S
C404 C403 1.524 . S
C405 C402 1.403 1_545 S
C405 C406 1.392 . S
C405 C409 1.495 . S
C406 C405 1.392 . S
C406 C407 1.385 . S
C406 C408 1.478 . S
C407 H401 0.930 . S
C407 C403 1.400 1_545 S
C407 C406 1.385 . S
C408 C406 1.478 . S
C408 C410 1.381 . S
C408 C414 1.383 . S
C409 C405 1.495 . S
C409 H415 0.959 1_545 S
C409 H416 0.961 . S
C409 H417 0.960 . S
C410 C408 1.381 . S
C410 C411 1.394 . S
C410 H418 0.930 . S
C411 C410 1.394 . S
C411 C412 1.383 . S
C411 H419 0.929 . S
C412 C411 1.383 . S
C412 C413 1.377 . S
C413 H397 0.930 . S
C413 C412 1.377 . S
C413 C414 1.379 . S
C414 H398 0.931 . S
C414 C408 1.383 . S
C414 C413 1.379 . S
H415 C409 0.959 1_565 S
H416 C409 0.961 . S
H417 C409 0.960 . S
H418 C410 0.930 . S
H419 C411 0.929 . S
H420 C428 0.929 . S
H421 C430 0.930 . S
H422 C432 0.930 . S
H423 C435 0.929 . S
H424 C438 0.930 . S
H425 C440 0.960 . S
H426 C440 0.960 . S
H427 C440 0.960 . S
C428 H420 0.929 . S
C428 C429 1.377 . S
C428 C430 1.384 . S
C429 C428 1.377 . S
C429 C435 1.390 . S
C430 H421 0.930 . S
C430 C428 1.384 . S
C430 C431 1.372 . S
C431 C430 1.372 . S
C431 C432 1.400 . S
C431 C436 1.490 . S
C432 H422 0.930 . S
C432 C431 1.400 . S
C432 C435 1.386 . S
H433 C449 0.930 . S
H434 C450 0.931 . S
C435 H423 0.929 . S
C435 C429 1.390 . S
C435 C432 1.386 . S
C436 C431 1.490 . S
C436 C438 1.395 . S
C436 C439 1.403 . S
H437 C443 0.930 . S
C438 H424 0.930 . S
C438 C436 1.395 . S
C438 C441 1.403 . S
C439 C436 1.403 . S
C439 C440 1.524 . S
C439 C443 1.400 . S
C440 H425 0.960 . S
C440 H426 0.960 . S
C440 H427 0.960 . S
C440 C439 1.524 . S
C441 C438 1.403 . S
C441 C442 1.392 . S
C441 C445 1.495 . S
C442 C441 1.392 . S
C442 C443 1.385 . S
C442 C444 1.478 . S
C443 H437 0.930 . S
C443 C439 1.400 . S
C443 C442 1.385 . S
C444 C442 1.478 . S
C444 C446 1.381 . S
C444 C450 1.383 . S
C445 C441 1.495 . S
C445 H451 0.959 . S
C445 H452 0.961 . S
C445 H453 0.960 . S
C446 C444 1.381 . S
C446 C447 1.394 . S
C446 H454 0.930 . S
C447 C446 1.394 . S
C447 C448 1.383 . S
C447 H455 0.929 . S
C448 C447 1.383 . S
C448 C449 1.377 . S
C449 H433 0.930 . S
C449 C448 1.377 . S
C449 C450 1.379 . S
C450 H434 0.931 . S
C450 C444 1.383 . S
C450 C449 1.379 . S
H451 C445 0.959 . S
H452 C445 0.961 . S
H453 C445 0.960 . S
H454 C446 0.930 . S
H455 C447 0.929 . S
H456 C464 0.929 . S
H457 C466 0.930 . S
H458 C468 0.930 . S
H459 C471 0.929 . S
H460 C474 0.930 . S
H461 C476 0.960 1_545 S
H462 C476 0.960 . S
H463 C476 0.960 . S
C464 H456 0.929 . S
C464 C465 1.377 . S
C464 C466 1.384 . S
C465 C464 1.377 . S
C465 C471 1.390 . S
C466 H457 0.930 . S
C466 C464 1.384 . S
C466 C467 1.372 . S
C467 C466 1.372 . S
C467 C468 1.400 . S
C467 C472 1.490 . S
C468 H458 0.930 . S
C468 C467 1.400 . S
C468 C471 1.386 . S
H469 C485 0.930 . S
H470 C486 0.931 . S
C471 H459 0.929 . S
C471 C465 1.390 . S
C471 C468 1.386 . S
C472 C467 1.490 . S
C472 C474 1.395 . S
C472 C475 1.403 . S
H473 C479 0.930 . S
C474 H460 0.930 . S
C474 C472 1.395 . S
C474 C477 1.403 1_565 S
C475 C472 1.403 . S
C475 C476 1.524 . S
C475 C479 1.400 1_565 S
C476 H461 0.960 1_565 S
C476 H462 0.960 . S
C476 H463 0.960 . S
C476 C475 1.524 . S
C477 C474 1.403 1_545 S
C477 C478 1.392 . S
C477 C481 1.495 . S
C478 C477 1.392 . S
C478 C479 1.385 . S
C478 C480 1.478 . S
C479 H473 0.930 . S
C479 C475 1.400 1_545 S
C479 C478 1.385 . S
C480 C478 1.478 . S
C480 C482 1.381 . S
C480 C486 1.383 . S
C481 C477 1.495 . S
C481 H487 0.959 1_545 S
C481 H488 0.961 . S
C481 H489 0.960 . S
C482 C480 1.381 . S
C482 C483 1.394 . S
C482 H490 0.930 . S
C483 C482 1.394 . S
C483 C484 1.383 . S
C483 H491 0.929 . S
C484 C483 1.383 . S
C484 C485 1.377 . S
C485 H469 0.930 . S
C485 C484 1.377 . S
C485 C486 1.379 . S
C486 H470 0.931 . S
C486 C480 1.383 . S
C486 C485 1.379 . S
H487 C481 0.959 1_565 S
H488 C481 0.961 . S
H489 C481 0.960 . S
H490 C482 0.930 . S
H491 C483 0.929 . S
H492 C500 0.929 . S
H493 C502 0.930 . S
H494 C504 0.930 . S
H495 C507 0.929 . S
H496 C510 0.930 . S
H497 C512 0.960 . S
H498 C512 0.960 . S
H499 C512 0.960 . S
C500 H492 0.929 . S
C500 C501 1.377 . S
C500 C502 1.384 . S
C501 C500 1.377 . S
C501 C507 1.390 . S
C502 H493 0.930 . S
C502 C500 1.384 . S
C502 C503 1.372 . S
C503 C502 1.372 . S
C503 C504 1.400 . S
C503 C508 1.490 . S
C504 H494 0.930 . S
C504 C503 1.400 . S
C504 C507 1.386 . S
H505 C521 0.930 . S
H506 C522 0.931 . S
C507 H495 0.929 . S
C507 C501 1.390 . S
C507 C504 1.386 . S
C508 C503 1.490 . S
C508 C510 1.395 . S
C508 C511 1.403 . S
H509 C515 0.930 . S
C510 H496 0.930 . S
C510 C508 1.395 . S
C510 C513 1.403 . S
C511 C508 1.403 . S
C511 C512 1.524 . S
C511 C515 1.400 . S
C512 H497 0.960 . S
C512 H498 0.960 . S
C512 H499 0.960 . S
C512 C511 1.524 . S
C513 C510 1.403 . S
C513 C514 1.392 . S
C513 C517 1.495 . S
C514 C513 1.392 . S
C514 C515 1.385 . S
C514 C516 1.478 . S
C515 H509 0.930 . S
C515 C511 1.400 . S
C515 C514 1.385 . S
C516 C514 1.478 . S
C516 C518 1.381 . S
C516 C522 1.383 . S
C517 C513 1.495 . S
C517 H523 0.959 . S
C517 H524 0.961 . S
C517 H525 0.960 . S
C518 C516 1.381 . S
C518 C519 1.394 . S
C518 H526 0.930 . S
C519 C518 1.394 . S
C519 C520 1.383 . S
C519 H527 0.929 . S
C520 C519 1.383 . S
C520 C521 1.377 . S
C521 H505 0.930 . S
C521 C520 1.377 . S
C521 C522 1.379 . S
C522 H506 0.931 . S
C522 C516 1.383 . S
C522 C521 1.379 . S
H523 C517 0.959 . S
H524 C517 0.961 . S
H525 C517 0.960 . S
H526 C518 0.930 . S
H527 C519 0.929 . S
H528 C536 0.929 . S
H529 C538 0.930 . S
H530 C540 0.930 1_556 S
H531 C543 0.929 . S
H532 C546 0.930 1_556 S
H533 C548 0.960 . S
H534 C548 0.960 . S
H535 C548 0.960 . S
C536 H528 0.929 . S
C536 C537 1.377 . S
C536 C538 1.384 . S
C537 C536 1.377 . S
C537 C543 1.390 . S
C538 H529 0.930 . S
C538 C536 1.384 . S
C538 C539 1.372 . S
C539 C538 1.372 . S
C539 C540 1.400 . S
C539 C544 1.490 . S
C540 H530 0.930 1_554 S
C540 C539 1.400 . S
C540 C543 1.386 . S
H541 C557 0.930 . S
H542 C558 0.931 . S
C543 H531 0.929 . S
C543 C537 1.390 . S
C543 C540 1.386 . S
C544 C539 1.490 . S
C544 C546 1.395 . S
C544 C547 1.403 . S
H545 C551 0.930 . S
C546 H532 0.930 1_554 S
C546 C544 1.395 . S
C546 C549 1.403 1_554 S
C547 C544 1.403 . S
C547 C548 1.524 . S
C547 C551 1.400 . S
C548 H533 0.960 . S
C548 H534 0.960 . S
C548 H535 0.960 . S
C548 C547 1.524 . S
C549 C546 1.403 1_556 S
C549 C550 1.390 1_556 S
C549 C553 1.495 . S
C550 C549 1.390 1_554 S
C550 C551 1.391 . S
C550 C552 1.474 1_554 S
C551 H545 0.930 . S
C551 C547 1.400 . S
C551 C550 1.391 . S
C552 C550 1.474 1_556 S
C552 C554 1.381 1_556 S
C552 C558 1.383 . S
C553 C549 1.495 . S
C553 H559 0.959 . S
C553 H560 0.961 . S
C553 H561 0.960 . S
C554 C552 1.381 1_554 S
C554 C555 1.394 . S
C554 H562 0.930 . S
C555 C554 1.394 . S
C555 C556 1.383 1_554 S
C555 H563 0.929 . S
C556 C555 1.383 1_556 S
C556 C557 1.377 . S
C557 H541 0.930 . S
C557 C556 1.377 . S
C557 C558 1.379 . S
C558 H542 0.931 . S
C558 C552 1.383 . S
C558 C557 1.379 . S
H559 C553 0.959 . S
H560 C553 0.961 . S
H561 C553 0.960 . S
H562 C554 0.930 . S
H563 C555 0.929 . S
H564 C572 0.929 . S
H565 C574 0.930 . S
H566 C576 0.930 . S
H567 C579 0.929 . S
H568 C582 0.930 . S
H569 C584 0.960 . S
H570 C584 0.960 . S
H571 C584 0.960 . S
C572 H564 0.929 . S
C572 C573 1.377 . S
C572 C574 1.384 . S
C573 C572 1.377 . S
C573 C579 1.390 . S
C574 H565 0.930 . S
C574 C572 1.384 . S
C574 C575 1.372 . S
C575 C574 1.372 . S
C575 C576 1.400 . S
C575 C580 1.490 . S
C576 H566 0.930 . S
C576 C575 1.400 . S
C576 C579 1.386 . S
H577 C593 0.930 . S
H578 C594 0.931 . S
C579 H567 0.929 . S
C579 C573 1.390 . S
C579 C576 1.386 . S
C580 C575 1.490 . S
C580 C582 1.395 . S
C580 C583 1.403 1_554 S
H581 C587 0.930 . S
C582 H568 0.930 . S
C582 C580 1.395 . S
C582 C585 1.403 1_565 S
C583 C580 1.403 1_556 S
C583 C584 1.524 . S
C583 C587 1.400 1_565 S
C584 H569 0.960 . S
C584 H570 0.960 . S
C584 H571 0.960 . S
C584 C583 1.524 . S
C585 C582 1.403 1_545 S
C585 C586 1.392 1_554 S
C585 C589 1.495 . S
C586 C585 1.392 1_556 S
C586 C587 1.385 . S
C586 C588 1.478 . S
C587 H581 0.930 . S
C587 C583 1.400 1_545 S
C587 C586 1.385 . S
C588 C586 1.478 . S
C588 C590 1.381 . S
C588 C594 1.383 . S
C589 C585 1.495 . S
C589 H595 0.959 . S
C589 H596 0.961 . S
C589 H597 0.960 . S
C590 C588 1.381 . S
C590 C591 1.394 . S
C590 H598 0.930 . S
C591 C590 1.394 . S
C591 C592 1.383 . S
C591 H599 0.929 . S
C592 C591 1.383 . S
C592 C593 1.377 . S
C593 H577 0.930 . S
C593 C592 1.377 . S
C593 C594 1.379 . S
C594 H578 0.931 . S
C594 C588 1.383 . S
C594 C593 1.379 . S
H595 C589 0.959 . S
H596 C589 0.961 . S
H597 C589 0.960 . S
H598 C590 0.930 . S
H599 C591 0.929 . S
H600 C608 0.929 . S
H601 C610 0.930 . S
H602 C612 0.930 . S
H603 C615 0.929 . S
H604 C618 0.930 . S
H605 C620 0.960 . S
H606 C620 0.960 . S
H607 C620 0.960 . S
C608 H600 0.929 . S
C608 C609 1.377 . S
C608 C610 1.384 . S
C609 C608 1.377 . S
C609 C615 1.390 . S
C610 H601 0.930 . S
C610 C608 1.384 . S
C610 C611 1.372 . S
C611 C610 1.372 . S
C611 C612 1.400 . S
C611 C616 1.490 . S
C612 H602 0.930 . S
C612 C611 1.400 . S
C612 C615 1.386 . S
H613 C629 0.930 . S
H614 C630 0.931 . S
C615 H603 0.929 . S
C615 C609 1.390 . S
C615 C612 1.386 . S
C616 C611 1.490 . S
C616 C618 1.395 . S
C616 C619 1.403 1_556 S
H617 C623 0.930 . S
C618 H604 0.930 . S
C618 C616 1.395 . S
C618 C621 1.403 . S
C619 C616 1.403 1_554 S
C619 C620 1.524 . S
C619 C623 1.400 . S
C620 H605 0.960 . S
C620 H606 0.960 . S
C620 H607 0.960 . S
C620 C619 1.524 . S
C621 C618 1.403 . S
C621 C622 1.392 . S
C621 C625 1.495 . S
C622 C621 1.392 . S
C622 C623 1.385 1_556 S
C622 C624 1.478 1_556 S
C623 H617 0.930 . S
C623 C619 1.400 . S
C623 C622 1.385 1_554 S
C624 C622 1.478 1_554 S
C624 C626 1.381 . S
C624 C630 1.383 1_554 S
C625 C621 1.495 . S
C625 H631 0.959 . S
C625 H632 0.961 . S
C625 H633 0.960 . S
C626 C624 1.381 . S
C626 C627 1.394 . S
C626 H634 0.930 . S
C627 C626 1.394 . S
C627 C628 1.383 . S
C627 H635 0.929 . S
C628 C627 1.383 . S
C628 C629 1.377 1_554 S
C629 H613 0.930 . S
C629 C628 1.377 1_556 S
C629 C630 1.379 . S
C630 H614 0.931 . S
C630 C624 1.383 1_556 S
C630 C629 1.379 . S
H631 C625 0.959 . S
H632 C625 0.961 . S
H633 C625 0.960 . S
H634 C626 0.930 . S
H635 C627 0.929 . S
H636 C644 0.929 . S
H637 C646 0.930 . S
H638 C648 0.930 . S
H639 C651 0.929 . S
H640 C654 0.930 . S
H641 C656 0.960 1_565 S
H642 C656 0.960 . S
H643 C656 0.960 . S
C644 H636 0.929 . S
C644 C645 1.377 . S
C644 C646 1.384 . S
C645 C644 1.377 . S
C645 C651 1.390 . S
C646 H637 0.930 . S
C646 C644 1.384 . S
C646 C647 1.372 . S
C647 C646 1.372 . S
C647 C648 1.400 . S
C647 C652 1.490 . S
C648 H638 0.930 . S
C648 C647 1.400 . S
C648 C651 1.386 . S
H649 C665 0.930 . S
H650 C666 0.931 . S
C651 H639 0.929 . S
C651 C645 1.390 . S
C651 C648 1.386 . S
C652 C647 1.490 . S
C652 C654 1.395 1_556 S
C652 C655 1.403 . S
H653 C659 0.930 . S
C654 H640 0.930 . S
C654 C652 1.395 1_554 S
C654 C657 1.403 1_545 S
C655 C652 1.403 . S
C655 C656 1.524 . S
C655 C659 1.400 1_545 S
C656 H641 0.960 1_545 S
C656 H642 0.960 . S
C656 H643 0.960 . S
C656 C655 1.524 . S
C657 C654 1.403 1_565 S
C657 C658 1.392 . S
C657 C661 1.495 . S
C658 C657 1.392 . S
C658 C659 1.385 1_554 S
C658 C660 1.478 . S
C659 H653 0.930 . S
C659 C655 1.400 1_565 S
C659 C658 1.385 1_556 S
C660 C658 1.478 . S
C660 C662 1.381 . S
C660 C666 1.383 . S
C661 C657 1.495 . S
C661 H667 0.959 1_565 S
C661 H668 0.961 . S
C661 H669 0.960 . S
C662 C660 1.381 . S
C662 C663 1.394 . S
C662 H670 0.930 . S
C663 C662 1.394 . S
C663 C664 1.383 . S
C663 H671 0.929 . S
C664 C663 1.383 . S
C664 C665 1.377 . S
C665 H649 0.930 . S
C665 C664 1.377 . S
C665 C666 1.379 . S
C666 H650 0.931 . S
C666 C660 1.383 . S
C666 C665 1.379 . S
H667 C661 0.959 1_545 S
H668 C661 0.961 . S
H669 C661 0.960 . S
H670 C662 0.930 . S
H671 C663 0.929 . S
H672 C680 0.929 . S
H673 C682 0.930 . S
H674 C684 0.930 . S
H675 C687 0.929 . S
H676 C690 0.930 . S
H677 C692 0.960 . S
H678 C692 0.960 . S
H679 C692 0.960 . S
C680 H672 0.929 . S
C680 C681 1.377 . S
C680 C682 1.384 . S
C681 C680 1.377 . S
C681 C687 1.390 . S
C682 H673 0.930 . S
C682 C680 1.384 . S
C682 C683 1.372 . S
C683 C682 1.372 . S
C683 C684 1.400 . S
C683 C688 1.490 . S
C684 H674 0.930 . S
C684 C683 1.400 . S
C684 C687 1.386 . S
H685 C701 0.930 . S
H686 C702 0.931 . S
C687 H675 0.929 . S
C687 C681 1.390 . S
C687 C684 1.386 . S
C688 C683 1.490 . S
C688 C690 1.395 . S
C688 C691 1.403 . S
H689 C695 0.930 . S
C690 H676 0.930 . S
C690 C688 1.395 . S
C690 C693 1.403 . S
C691 C688 1.403 . S
C691 C692 1.524 . S
C691 C695 1.400 . S
C692 H677 0.960 . S
C692 H678 0.960 . S
C692 H679 0.960 . S
C692 C691 1.524 . S
C693 C690 1.403 . S
C693 C694 1.392 . S
C693 C697 1.495 . S
C694 C693 1.392 . S
C694 C695 1.385 . S
C694 C696 1.478 1_554 S
C695 H689 0.930 . S
C695 C691 1.400 . S
C695 C694 1.385 . S
C696 C694 1.478 1_556 S
C696 C698 1.381 . S
C696 C702 1.383 . S
C697 C693 1.495 . S
C697 H703 0.959 . S
C697 H704 0.961 1_554 S
C697 H705 0.960 1_554 S
C698 C696 1.381 . S
C698 C699 1.394 . S
C698 H706 0.930 . S
C699 C698 1.394 . S
C699 C700 1.383 . S
C699 H707 0.929 . S
C700 C699 1.383 . S
C700 C701 1.377 . S
C701 H685 0.930 . S
C701 C700 1.377 . S
C701 C702 1.379 . S
C702 H686 0.931 . S
C702 C696 1.383 . S
C702 C701 1.379 . S
H703 C697 0.959 . S
H704 C697 0.961 1_556 S
H705 C697 0.960 1_556 S
H706 C698 0.930 . S
H707 C699 0.929 . S
H708 C716 0.929 . S
H709 C718 0.930 . S
H710 C720 0.930 . S
H711 C723 0.929 . S
H712 C726 0.930 . S
H713 C728 0.960 . S
H714 C728 0.960 . S
H715 C728 0.960 . S
C716 H708 0.929 . S
C716 C717 1.377 . S
C716 C718 1.384 . S
C717 C716 1.377 . S
C717 C723 1.390 . S
C718 H709 0.930 . S
C718 C716 1.384 . S
C718 C719 1.372 . S
C719 C718 1.372 . S
C719 C720 1.400 . S
C719 C724 1.490 . S
C720 H710 0.930 . S
C720 C719 1.400 . S
C720 C723 1.386 . S
H721 C737 0.930 . S
H722 C738 0.931 . S
C723 H711 0.929 . S
C723 C717 1.390 . S
C723 C720 1.386 . S
C724 C719 1.490 . S
C724 C726 1.395 . S
C724 C727 1.403 . S
H725 C731 0.930 1_556 S
C726 H712 0.930 . S
C726 C724 1.395 . S
C726 C729 1.403 . S
C727 C724 1.403 . S
C727 C728 1.524 . S
C727 C731 1.400 . S
C728 H713 0.960 . S
C728 H714 0.960 . S
C728 H715 0.960 . S
C728 C727 1.524 . S
C729 C726 1.403 . S
C729 C730 1.392 1_554 S
C729 C733 1.495 1_554 S
C730 C729 1.392 1_556 S
C730 C731 1.385 1_556 S
C730 C732 1.478 . S
C731 H725 0.930 1_554 S
C731 C727 1.400 . S
C731 C730 1.385 1_554 S
C732 C730 1.478 . S
C732 C734 1.381 . S
C732 C738 1.383 . S
C733 C729 1.495 1_556 S
C733 H739 0.959 1_556 S
C733 H740 0.961 . S
C733 H741 0.960 . S
C734 C732 1.381 . S
C734 C735 1.394 . S
C734 H742 0.930 . S
C735 C734 1.394 . S
C735 C736 1.383 . S
C735 H743 0.929 . S
C736 C735 1.383 . S
C736 C737 1.377 . S
C737 H721 0.930 . S
C737 C736 1.377 . S
C737 C738 1.379 . S
C738 H722 0.931 . S
C738 C732 1.383 . S
C738 C737 1.379 . S
H739 C733 0.959 1_554 S
H740 C733 0.961 . S
H741 C733 0.960 . S
H742 C734 0.930 . S
H743 C735 0.929 . S
H744 C752 0.929 . S
H745 C754 0.930 . S
H746 C756 0.930 . S
H747 C759 0.929 . S
H748 C762 0.930 1_554 S
H749 C764 0.960 1_556 S
H750 C764 0.960 . S
H751 C764 0.960 . S
C752 H744 0.929 . S
C752 C753 1.377 . S
C752 C754 1.384 . S
C753 C752 1.377 . S
C753 C759 1.390 . S
C754 H745 0.930 . S
C754 C752 1.384 . S
C754 C755 1.372 . S
C755 C754 1.372 . S
C755 C756 1.400 . S
C755 C760 1.490 . S
C756 H746 0.930 . S
C756 C755 1.400 . S
C756 C759 1.386 . S
H757 C773 0.930 . S
H758 C774 0.931 . S
C759 H747 0.929 . S
C759 C753 1.390 . S
C759 C756 1.386 . S
C760 C755 1.490 . S
C760 C762 1.395 1_554 S
C760 C763 1.403 1_554 S
H761 C767 0.930 . S
C762 H748 0.930 1_556 S
C762 C760 1.395 1_556 S
C762 C765 1.403 . S
C763 C760 1.403 1_556 S
C763 C764 1.524 1_556 S
C763 C767 1.400 . S
C764 H749 0.960 1_554 S
C764 H750 0.960 . S
C764 H751 0.960 . S
C764 C763 1.524 1_554 S
C765 C762 1.403 . S
C765 C766 1.392 . S
C765 C769 1.495 . S
C766 C765 1.392 . S
C766 C767 1.385 . S
C766 C768 1.478 . S
C767 H761 0.930 . S
C767 C763 1.400 . S
C767 C766 1.385 . S
C768 C766 1.478 . S
C768 C770 1.381 . S
C768 C774 1.383 . S
C769 C765 1.495 . S
C769 H775 0.959 . S
C769 H776 0.961 . S
C769 H777 0.960 . S
C770 C768 1.381 . S
C770 C771 1.394 . S
C770 H778 0.930 . S
C771 C770 1.394 . S
C771 C772 1.383 . S
C771 H779 0.929 . S
C772 C771 1.383 . S
C772 C773 1.377 . S
C773 H757 0.930 . S
C773 C772 1.377 . S
C773 C774 1.379 . S
C774 H758 0.931 . S
C774 C768 1.383 . S
C774 C773 1.379 . S
H775 C769 0.959 . S
H776 C769 0.961 . S
H777 C769 0.960 . S
H778 C770 0.930 . S
H779 C771 0.929 . S
H780 C788 0.929 . S
H781 C790 0.930 . S
H782 C792 0.930 . S
H783 C795 0.929 . S
H784 C798 0.930 . S
H785 C800 0.960 . S
H786 C800 0.960 . S
H787 C800 0.960 . S
C788 H780 0.929 . S
C788 C789 1.377 . S
C788 C790 1.384 . S
C789 C788 1.377 . S
C789 C795 1.390 . S
C790 H781 0.930 . S
C790 C788 1.384 . S
C790 C791 1.372 . S
C791 C790 1.372 . S
C791 C792 1.400 . S
C791 C796 1.490 . S
C792 H782 0.930 . S
C792 C791 1.400 . S
C792 C795 1.386 . S
H793 C809 0.930 . S
H794 C810 0.931 . S
C795 H783 0.929 . S
C795 C789 1.390 . S
C795 C792 1.386 . S
C796 C791 1.490 . S
C796 C798 1.395 . S
C796 C799 1.403 . S
H797 C803 0.930 . S
C798 H784 0.930 . S
C798 C796 1.395 . S
C798 C801 1.403 . S
C799 C796 1.403 . S
C799 C800 1.524 . S
C799 C803 1.400 . S
C800 H785 0.960 . S
C800 H786 0.960 . S
C800 H787 0.960 . S
C800 C799 1.524 . S
C801 C798 1.403 . S
C801 C802 1.392 . S
C801 C805 1.495 . S
C802 C801 1.392 . S
C802 C803 1.385 . S
C802 C804 1.478 1_556 S
C803 H797 0.930 . S
C803 C799 1.400 . S
C803 C802 1.385 . S
C804 C802 1.478 1_554 S
C804 C806 1.381 . S
C804 C810 1.383 . S
C805 C801 1.495 . S
C805 H811 0.959 . S
C805 H812 0.961 1_556 S
C805 H813 0.960 1_556 S
C806 C804 1.381 . S
C806 C807 1.394 . S
C806 H814 0.930 . S
C807 C806 1.394 . S
C807 C808 1.383 . S
C807 H815 0.929 . S
C808 C807 1.383 . S
C808 C809 1.377 . S
C809 H793 0.930 . S
C809 C808 1.377 . S
C809 C810 1.379 . S
C810 H794 0.931 . S
C810 C804 1.383 . S
C810 C809 1.379 . S
H811 C805 0.959 . S
H812 C805 0.961 1_554 S
H813 C805 0.960 1_554 S
H814 C806 0.930 . S
H815 C807 0.929 . S
H816 C824 0.929 . S
H817 C826 0.930 . S
H818 C828 0.930 . S
H819 C831 0.929 . S
H820 C834 0.930 . S
H821 C836 0.960 . S
H822 C836 0.960 . S
H823 C836 0.960 . S
C824 H816 0.929 . S
C824 C825 1.377 . S
C824 C826 1.384 . S
C825 C824 1.377 . S
C825 C831 1.390 . S
C826 H817 0.930 . S
C826 C824 1.384 . S
C826 C827 1.372 . S
C827 C826 1.372 . S
C827 C828 1.400 . S
C827 C832 1.490 . S
C828 H818 0.930 . S
C828 C827 1.400 . S
C828 C831 1.386 . S
H829 C845 0.930 . S
H830 C846 0.931 . S
C831 H819 0.929 . S
C831 C825 1.390 . S
C831 C828 1.386 . S
C832 C827 1.490 . S
C832 C834 1.395 . S
C832 C835 1.403 . S
H833 C839 0.930 . S
C834 H820 0.930 . S
C834 C832 1.395 . S
C834 C837 1.403 . S
C835 C832 1.403 . S
C835 C836 1.524 . S
C835 C839 1.400 . S
C836 H821 0.960 . S
C836 H822 0.960 . S
C836 H823 0.960 . S
C836 C835 1.524 . S
C837 C834 1.403 . S
C837 C838 1.392 . S
C837 C841 1.495 . S
C838 C837 1.392 . S
C838 C839 1.385 . S
C838 C840 1.478 . S
C839 H833 0.930 . S
C839 C835 1.400 . S
C839 C838 1.385 . S
C840 C838 1.478 . S
C840 C842 1.381 . S
C840 C846 1.383 . S
C841 C837 1.495 . S
C841 H847 0.959 . S
C841 H848 0.961 . S
C841 H849 0.960 . S
C842 C840 1.381 . S
C842 C843 1.394 . S
C842 H850 0.930 . S
C843 C842 1.394 . S
C843 C844 1.383 . S
C843 H851 0.929 . S
C844 C843 1.383 . S
C844 C845 1.377 . S
C845 H829 0.930 . S
C845 C844 1.377 . S
C845 C846 1.379 . S
C846 H830 0.931 . S
C846 C840 1.383 . S
C846 C845 1.379 . S
H847 C841 0.959 . S
H848 C841 0.961 . S
H849 C841 0.960 . S
H850 C842 0.930 . S
H851 C843 0.929 . S
H852 C860 0.929 . S
H853 C862 0.930 . S
H854 C864 0.930 . S
H855 C867 0.929 . S
H856 C870 0.930 . S
H857 C872 0.960 . S
H858 C872 0.960 . S
H859 C872 0.960 . S
C860 H852 0.929 . S
C860 C861 1.377 . S
C860 C862 1.384 . S
C861 C860 1.377 . S
C861 C867 1.390 . S
C862 H853 0.930 . S
C862 C860 1.384 . S
C862 C863 1.372 . S
C863 C862 1.372 . S
C863 C864 1.400 . S
C863 C868 1.490 . S
C864 H854 0.930 . S
C864 C863 1.400 . S
C864 C867 1.386 . S
H865 C881 0.930 . S
H866 C882 0.931 . S
C867 H855 0.929 . S
C867 C861 1.390 . S
C867 C864 1.386 . S
C868 C863 1.490 . S
C868 C870 1.395 . S
C868 C871 1.403 . S
H869 C875 0.930 . S
C870 H856 0.930 . S
C870 C868 1.395 . S
C870 C873 1.403 . S
C871 C868 1.403 . S
C871 C872 1.524 . S
C871 C875 1.400 . S
C872 H857 0.960 . S
C872 H858 0.960 . S
C872 H859 0.960 . S
C872 C871 1.524 . S
C873 C870 1.403 . S
C873 C874 1.392 . S
C873 C877 1.495 . S
C874 C873 1.392 . S
C874 C875 1.385 . S
C874 C876 1.478 . S
C875 H869 0.930 . S
C875 C871 1.400 . S
C875 C874 1.385 . S
C876 C874 1.478 . S
C876 C878 1.381 . S
C876 C882 1.383 . S
C877 C873 1.495 . S
C877 H883 0.959 . S
C877 H884 0.961 . S
C877 H885 0.960 . S
C878 C876 1.381 . S
C878 C879 1.394 . S
C878 H886 0.930 . S
C879 C878 1.394 . S
C879 C880 1.383 . S
C879 H887 0.929 . S
C880 C879 1.383 . S
C880 C881 1.377 . S
C881 H865 0.930 . S
C881 C880 1.377 . S
C881 C882 1.379 . S
C882 H866 0.931 . S
C882 C876 1.383 . S
C882 C881 1.379 . S
H883 C877 0.959 . S
H884 C877 0.961 . S
H885 C877 0.960 . S
H886 C878 0.930 . S
H887 C879 0.929 . S
H888 C896 0.929 . S
H889 C898 0.930 . S
H890 C900 0.930 . S
H891 C903 0.929 . S
H892 C906 0.930 . S
H893 C908 0.960 . S
H894 C908 0.960 . S
H895 C908 0.960 . S
C896 H888 0.929 . S
C896 C897 1.377 . S
C896 C898 1.384 . S
C897 C896 1.377 . S
C897 C903 1.390 . S
C898 H889 0.930 . S
C898 C896 1.384 . S
C898 C899 1.372 . S
C899 C898 1.372 . S
C899 C900 1.400 . S
C899 C904 1.490 . S
C900 H890 0.930 . S
C900 C899 1.400 . S
C900 C903 1.386 . S
H901 C917 0.930 . S
H902 C918 0.931 . S
C903 H891 0.929 . S
C903 C897 1.390 . S
C903 C900 1.386 . S
C904 C899 1.490 . S
C904 C906 1.395 . S
C904 C907 1.403 . S
H905 C911 0.930 . S
C906 H892 0.930 . S
C906 C904 1.395 . S
C906 C909 1.403 . S
C907 C904 1.403 . S
C907 C908 1.524 . S
C907 C911 1.400 . S
C908 H893 0.960 . S
C908 H894 0.960 . S
C908 H895 0.960 . S
C908 C907 1.524 . S
C909 C906 1.403 . S
C909 C910 1.392 . S
C909 C913 1.495 . S
C910 C909 1.392 . S
C910 C911 1.385 . S
C910 C912 1.478 . S
C911 H905 0.930 . S
C911 C907 1.400 . S
C911 C910 1.385 . S
C912 C910 1.478 . S
C912 C914 1.381 . S
C912 C918 1.383 . S
C913 C909 1.495 . S
C913 H919 0.959 . S
C913 H920 0.961 . S
C913 H921 0.960 . S
C914 C912 1.381 . S
C914 C915 1.394 . S
C914 H922 0.930 . S
C915 C914 1.394 . S
C915 C916 1.383 . S
C915 H923 0.929 . S
C916 C915 1.383 . S
C916 C917 1.377 . S
C917 H901 0.930 . S
C917 C916 1.377 . S
C917 C918 1.379 . S
C918 H902 0.931 . S
C918 C912 1.383 . S
C918 C917 1.379 . S
H919 C913 0.959 . S
H920 C913 0.961 . S
H921 C913 0.960 . S
H922 C914 0.930 . S
H923 C915 0.929 . S
H924 C932 0.929 . S
H925 C934 0.930 . S
H926 C936 0.930 . S
H927 C939 0.929 . S
H928 C942 0.930 . S
H929 C944 0.960 . S
H930 C944 0.960 . S
H931 C944 0.960 . S
C932 H924 0.929 . S
C932 C933 1.377 . S
C932 C934 1.384 . S
C933 C932 1.377 . S
C933 C939 1.390 . S
C934 H925 0.930 . S
C934 C932 1.384 . S
C934 C935 1.372 . S
C935 C934 1.372 . S
C935 C936 1.400 . S
C935 C940 1.490 . S
C936 H926 0.930 . S
C936 C935 1.400 . S
C936 C939 1.386 . S
H937 C953 0.930 . S
H938 C954 0.931 . S
C939 H927 0.929 . S
C939 C933 1.390 . S
C939 C936 1.386 . S
C940 C935 1.490 . S
C940 C942 1.395 . S
C940 C943 1.403 . S
H941 C947 0.930 . S
C942 H928 0.930 . S
C942 C940 1.395 . S
C942 C945 1.403 . S
C943 C940 1.403 . S
C943 C944 1.524 . S
C943 C947 1.400 . S
C944 H929 0.960 . S
C944 H930 0.960 . S
C944 H931 0.960 . S
C944 C943 1.524 . S
C945 C942 1.403 . S
C945 C946 1.392 . S
C945 C949 1.495 . S
C946 C945 1.392 . S
C946 C947 1.385 . S
C946 C948 1.478 . S
C947 H941 0.930 . S
C947 C943 1.400 . S
C947 C946 1.385 . S
C948 C946 1.478 . S
C948 C950 1.381 . S
C948 C954 1.383 . S
C949 C945 1.495 . S
C949 H955 0.959 . S
C949 H956 0.961 . S
C949 H957 0.960 . S
C950 C948 1.381 . S
C950 C951 1.394 . S
C950 H958 0.930 . S
C951 C950 1.394 . S
C951 C952 1.383 . S
C951 H959 0.929 . S
C952 C951 1.383 . S
C952 C953 1.377 . S
C953 H937 0.930 . S
C953 C952 1.377 . S
C953 C954 1.379 . S
C954 H938 0.931 . S
C954 C948 1.383 . S
C954 C953 1.379 . S
H955 C949 0.959 . S
H956 C949 0.961 . S
H957 C949 0.960 . S
H958 C950 0.930 . S
H959 C951 0.929 . S
H960 C968 0.929 . S
H961 C970 0.930 . S
H962 C972 0.930 . S
H963 C975 0.929 . S
H964 C978 0.930 . S
H965 C980 0.960 . S
H966 C980 0.960 . S
H967 C980 0.960 . S
C968 H960 0.929 . S
C968 C969 1.377 . S
C968 C970 1.384 . S
C969 C968 1.377 . S
C969 C975 1.390 . S
C970 H961 0.930 . S
C970 C968 1.384 . S
C970 C971 1.372 . S
C971 C970 1.372 . S
C971 C972 1.400 . S
C971 C976 1.490 . S
C972 H962 0.930 . S
C972 C971 1.400 . S
C972 C975 1.386 . S
H973 C989 0.930 . S
H974 C990 0.931 . S
C975 H963 0.929 . S
C975 C969 1.390 . S
C975 C972 1.386 . S
C976 C971 1.490 . S
C976 C978 1.395 . S
C976 C979 1.403 . S
H977 C983 0.930 . S
C978 H964 0.930 . S
C978 C976 1.395 . S
C978 C981 1.403 . S
C979 C976 1.403 . S
C979 C980 1.524 . S
C979 C983 1.400 . S
C980 H965 0.960 . S
C980 H966 0.960 . S
C980 H967 0.960 . S
C980 C979 1.524 . S
C981 C978 1.403 . S
C981 C982 1.392 . S
C981 C985 1.495 . S
C982 C981 1.392 . S
C982 C983 1.385 . S
C982 C984 1.478 1_455 S
C983 H977 0.930 . S
C983 C979 1.400 . S
C983 C982 1.385 . S
C984 C982 1.478 1_655 S
C984 C986 1.381 . S
C984 C990 1.383 . S
C985 C981 1.495 . S
C985 H991 0.959 . S
C985 H992 0.961 . S
C985 H993 0.960 . S
C986 C984 1.381 . S
C986 C987 1.394 . S
C986 H994 0.930 . S
C987 C986 1.394 . S
C987 C988 1.383 . S
C987 H995 0.929 . S
C988 C987 1.383 . S
C988 C989 1.377 . S
C989 H973 0.930 . S
C989 C988 1.377 . S
C989 C990 1.379 . S
C990 H974 0.931 . S
C990 C984 1.383 . S
C990 C989 1.379 . S
H991 C985 0.959 . S
H992 C985 0.961 . S
H993 C985 0.960 . S
H994 C986 0.930 . S
H995 C987 0.929 . S
H996 C1004 0.929 . S
H997 C1006 0.930 . S
H998 C1008 0.930 . S
H999 C1011 0.929 . S
H1000 C1014 0.930 . S
H1001 C1016 0.960 . S
H1002 C1016 0.960 . S
H1003 C1016 0.960 . S
C1004 H996 0.929 . S
C1004 C1005 1.377 . S
C1004 C1006 1.384 . S
C1005 C1004 1.377 . S
C1005 C1011 1.390 . S
C1006 H997 0.930 . S
C1006 C1004 1.384 . S
C1006 C1007 1.372 . S
C1007 C1006 1.372 . S
C1007 C1008 1.400 . S
C1007 C1012 1.490 . S
C1008 H998 0.930 . S
C1008 C1007 1.400 . S
C1008 C1011 1.386 . S
H1009 C1025 0.930 . S
H1010 C1026 0.931 . S
C1011 H999 0.929 . S
C1011 C1005 1.390 . S
C1011 C1008 1.386 . S
C1012 C1007 1.490 . S
C1012 C1014 1.395 . S
C1012 C1015 1.403 . S
H1013 C1019 0.930 . S
C1014 H1000 0.930 . S
C1014 C1012 1.395 . S
C1014 C1017 1.403 . S
C1015 C1012 1.403 . S
C1015 C1016 1.524 . S
C1015 C1019 1.400 . S
C1016 H1001 0.960 . S
C1016 H1002 0.960 . S
C1016 H1003 0.960 . S
C1016 C1015 1.524 . S
C1017 C1014 1.403 . S
C1017 C1018 1.392 . S
C1017 C1021 1.495 . S
C1018 C1017 1.392 . S
C1018 C1019 1.385 . S
C1018 C1020 1.478 1_655 S
C1019 H1013 0.930 . S
C1019 C1015 1.400 . S
C1019 C1018 1.385 . S
C1020 C1018 1.478 1_455 S
C1020 C1022 1.381 . S
C1020 C1026 1.383 . S
C1021 C1017 1.495 . S
C1021 H1027 0.959 . S
C1021 H1028 0.961 . S
C1021 H1029 0.960 . S
C1022 C1020 1.381 . S
C1022 C1023 1.394 . S
C1022 H1030 0.930 . S
C1023 C1022 1.394 . S
C1023 C1024 1.383 . S
C1023 H1031 0.929 . S
C1024 C1023 1.383 . S
C1024 C1025 1.377 . S
C1025 H1009 0.930 . S
C1025 C1024 1.377 . S
C1025 C1026 1.379 . S
C1026 H1010 0.931 . S
C1026 C1020 1.383 . S
C1026 C1025 1.379 . S
H1027 C1021 0.959 . S
H1028 C1021 0.961 . S
H1029 C1021 0.960 . S
H1030 C1022 0.930 . S
H1031 C1023 0.929 . S
H1032 C1040 0.929 . S
H1033 C1042 0.930 . S
H1034 C1044 0.930 . S
H1035 C1047 0.929 . S
H1036 C1050 0.930 . S
H1037 C1052 0.960 . S
H1038 C1052 0.960 . S
H1039 C1052 0.960 . S
C1040 H1032 0.929 . S
C1040 C1041 1.377 1_556 S
C1040 C1042 1.384 . S
C1041 C1040 1.377 1_554 S
C1041 C1047 1.390 . S
C1042 H1033 0.930 . S
C1042 C1040 1.384 . S
C1042 C1043 1.372 1_556 S
C1043 C1042 1.372 1_554 S
C1043 C1044 1.400 . S
C1043 C1048 1.490 . S
C1044 H1034 0.930 . S
C1044 C1043 1.400 . S
C1044 C1047 1.386 . S
H1045 C1061 0.930 . S
H1046 C1062 0.931 . S
C1047 H1035 0.929 . S
C1047 C1041 1.390 . S
C1047 C1044 1.386 . S
C1048 C1043 1.490 . S
C1048 C1050 1.395 1_554 S
C1048 C1051 1.403 . S
H1049 C1055 0.930 . S
C1050 H1036 0.930 . S
C1050 C1048 1.395 1_556 S
C1050 C1053 1.403 . S
C1051 C1048 1.403 . S
C1051 C1052 1.524 . S
C1051 C1055 1.400 . S
C1052 H1037 0.960 . S
C1052 H1038 0.960 . S
C1052 H1039 0.960 . S
C1052 C1051 1.524 . S
C1053 C1050 1.403 . S
C1053 C1054 1.392 1_556 S
C1053 C1057 1.495 . S
C1054 C1053 1.392 1_554 S
C1054 C1055 1.385 . S
C1054 C1056 1.478 . S
C1055 H1049 0.930 . S
C1055 C1051 1.400 . S
C1055 C1054 1.385 . S
C1056 C1054 1.478 . S
C1056 C1058 1.381 1_554 S
C1056 C1062 1.383 . S
C1057 C1053 1.495 . S
C1057 H1063 0.959 . S
C1057 H1064 0.961 . S
C1057 H1065 0.960 . S
C1058 C1056 1.381 1_556 S
C1058 C1059 1.394 . S
C1058 H1066 0.930 . S
C1059 C1058 1.394 . S
C1059 C1060 1.369 1_556 S
C1059 H1067 0.929 . S
C1060 C1059 1.369 1_554 S
C1060 C1061 1.391 . S
C1061 H1045 0.930 . S
C1061 C1060 1.391 . S
C1061 C1062 1.379 . S
C1062 H1046 0.931 . S
C1062 C1056 1.383 . S
C1062 C1061 1.379 . S
H1063 C1057 0.959 . S
H1064 C1057 0.961 . S
H1065 C1057 0.960 . S
H1066 C1058 0.930 . S
H1067 C1059 0.929 . S
H1068 C1076 0.929 1_554 S
H1069 C1078 0.930 1_554 S
H1070 C1080 0.930 . S
H1071 C1083 0.929 . S
H1072 C1086 0.930 . S
H1073 C1088 0.960 . S
H1074 C1088 0.960 . S
H1075 C1088 0.960 . S
C1076 H1068 0.929 1_556 S
C1076 C1077 1.377 . S
C1076 C1078 1.384 . S
C1077 C1076 1.377 . S
C1077 C1083 1.390 . S
C1078 H1069 0.930 1_556 S
C1078 C1076 1.384 . S
C1078 C1079 1.372 . S
C1079 C1078 1.372 . S
C1079 C1080 1.400 . S
C1079 C1084 1.490 . S
C1080 H1070 0.930 . S
C1080 C1079 1.400 . S
C1080 C1083 1.386 . S
H1081 C1097 0.930 . S
H1082 C1098 0.931 . S
C1083 H1071 0.929 . S
C1083 C1077 1.390 . S
C1083 C1080 1.386 . S
C1084 C1079 1.490 . S
C1084 C1086 1.395 . S
C1084 C1087 1.403 1_556 S
H1085 C1091 0.930 . S
C1086 H1072 0.930 . S
C1086 C1084 1.395 . S
C1086 C1089 1.403 . S
C1087 C1084 1.403 1_554 S
C1087 C1088 1.524 . S
C1087 C1091 1.400 . S
C1088 H1073 0.960 . S
C1088 H1074 0.960 . S
C1088 H1075 0.960 . S
C1088 C1087 1.524 . S
C1089 C1086 1.403 . S
C1089 C1090 1.392 . S
C1089 C1093 1.495 . S
C1090 C1089 1.392 . S
C1090 C1091 1.385 1_556 S
C1090 C1092 1.478 . S
C1091 H1085 0.930 . S
C1091 C1087 1.400 . S
C1091 C1090 1.385 1_554 S
C1092 C1090 1.478 . S
C1092 C1094 1.381 1_556 S
C1092 C1098 1.383 . S
C1093 C1089 1.495 . S
C1093 H1099 0.959 . S
C1093 H1100 0.961 . S
C1093 H1101 0.960 . S
C1094 C1092 1.381 1_554 S
C1094 C1095 1.394 . S
C1094 H1102 0.930 . S
C1095 C1094 1.394 . S
C1095 C1096 1.383 1_554 S
C1095 H1103 0.929 . S
C1096 C1095 1.383 1_556 S
C1096 C1097 1.377 . S
C1097 H1081 0.930 . S
C1097 C1096 1.377 . S
C1097 C1098 1.379 . S
C1098 H1082 0.931 . S
C1098 C1092 1.383 . S
C1098 C1097 1.379 . S
H1099 C1093 0.959 . S
H1100 C1093 0.961 . S
H1101 C1093 0.960 . S
H1102 C1094 0.930 . S
H1103 C1095 0.929 . S
C249 C16 2.362 . S
C268 C237 2.355 . S
C285 N186 1.402 . S
C304 N44 1.404 . S
C321 N164 1.394 . S
C340 N66 1.401 . S
C357 C136 2.362 . S
C376 C117 2.365 . S
C393 C61 1.603 . S
C412 C10 1.602 . S
C429 C31 1.617 . S
C448 C100 1.618 . S
C465 C91 1.600 . S
C484 C40 1.605 . S
C501 C70 1.614 . S
C520 C1 1.633 . S
C537 C130 1.599 . S
C556 C181 1.601 . S
C573 C151 1.613 . S
C592 C220 1.611 . S
C609 C211 1.597 . S
C628 C160 1.595 . S
C645 C190 1.617 . S
C664 C121 1.637 . S
C681 N14 0.494 . S
C700 N6 0.465 . S
C717 C46 2.651 . S
C736 C57 2.645 . S
C753 C76 2.651 . S
C772 C87 2.645 . S
C789 N96 0.493 . S
C808 N104 0.497 . S
C825 N126 0.519 . S
C844 N134 0.572 . S
C861 C166 2.650 . S
C880 C177 2.646 . S
C897 C207 2.651 . S
C916 C196 2.647 . S
C933 N216 0.505 . S
C952 N224 0.571 . S
C969 C27 1.676 . S
C988 N36 1.634 . S
C1005 C106 1.676 . S
C1024 N74 1.625 . S
C1041 C147 1.677 . S
C1060 N156 1.637 . S
C1077 C226 1.678 . S
C1096 N194 1.584 . S
