# Generated by pormake.
# Topology snz, (6)-cn, num edge types: 1
# Building blocks:
#     Node 0, Type 0, BuildingBlock: NUHQIS_clean_sbu_0, # of connection points: 6
#     Node 1, Type 0, BuildingBlock: NUHQIS_clean_sbu_0, # of connection points: 6
#     Node 2, Type 0, BuildingBlock: NUHQIS_clean_sbu_0, # of connection points: 6
#     Node 3, Type 0, BuildingBlock: NUHQIS_clean_sbu_0, # of connection points: 6
#     Node 4, Type 0, BuildingBlock: NUHQIS_clean_sbu_0, # of connection points: 6
#     Node 5, Type 0, BuildingBlock: NUHQIS_clean_sbu_0, # of connection points: 6
#     Node 6, Type 0, BuildingBlock: NUHQIS_clean_sbu_0, # of connection points: 6
#     Node 7, Type 0, BuildingBlock: NUHQIS_clean_sbu_0, # of connection points: 6
#     Node 8, Type 0, BuildingBlock: NUHQIS_clean_sbu_0, # of connection points: 6
#     Edge 9, Type (0, 0), BuildingBlock: UVAHIK_clean_linker_0, # of connection points: 2
#     Edge 10, Type (0, 0), BuildingBlock: UVAHIK_clean_linker_0, # of connection points: 2
#     Edge 11, Type (0, 0), BuildingBlock: UVAHIK_clean_linker_0, # of connection points: 2
#     Edge 12, Type (0, 0), BuildingBlock: UVAHIK_clean_linker_0, # of connection points: 2
#     Edge 13, Type (0, 0), BuildingBlock: UVAHIK_clean_linker_0, # of connection points: 2
#     Edge 14, Type (0, 0), BuildingBlock: UVAHIK_clean_linker_0, # of connection points: 2
#     Edge 15, Type (0, 0), BuildingBlock: UVAHIK_clean_linker_0, # of connection points: 2
#     Edge 16, Type (0, 0), BuildingBlock: UVAHIK_clean_linker_0, # of connection points: 2
#     Edge 17, Type (0, 0), BuildingBlock: UVAHIK_clean_linker_0, # of connection points: 2
#     Edge 18, Type (0, 0), BuildingBlock: UVAHIK_clean_linker_0, # of connection points: 2
#     Edge 19, Type (0, 0), BuildingBlock: UVAHIK_clean_linker_0, # of connection points: 2
#     Edge 20, Type (0, 0), BuildingBlock: UVAHIK_clean_linker_0, # of connection points: 2
#     Edge 21, Type (0, 0), BuildingBlock: UVAHIK_clean_linker_0, # of connection points: 2
#     Edge 22, Type (0, 0), BuildingBlock: UVAHIK_clean_linker_0, # of connection points: 2
#     Edge 23, Type (0, 0), BuildingBlock: UVAHIK_clean_linker_0, # of connection points: 2
#     Edge 24, Type (0, 0), BuildingBlock: UVAHIK_clean_linker_0, # of connection points: 2
#     Edge 25, Type (0, 0), BuildingBlock: UVAHIK_clean_linker_0, # of connection points: 2
#     Edge 26, Type (0, 0), BuildingBlock: UVAHIK_clean_linker_0, # of connection points: 2
#     Edge 27, Type (0, 0), BuildingBlock: UVAHIK_clean_linker_0, # of connection points: 2
#     Edge 28, Type (0, 0), BuildingBlock: UVAHIK_clean_linker_0, # of connection points: 2
#     Edge 29, Type (0, 0), BuildingBlock: UVAHIK_clean_linker_0, # of connection points: 2
#     Edge 30, Type (0, 0), BuildingBlock: UVAHIK_clean_linker_0, # of connection points: 2
#     Edge 31, Type (0, 0), BuildingBlock: UVAHIK_clean_linker_0, # of connection points: 2
#     Edge 32, Type (0, 0), BuildingBlock: UVAHIK_clean_linker_0, # of connection points: 2
#     Edge 33, Type (0, 0), BuildingBlock: UVAHIK_clean_linker_0, # of connection points: 2
#     Edge 34, Type (0, 0), BuildingBlock: UVAHIK_clean_linker_0, # of connection points: 2
#     Edge 35, Type (0, 0), BuildingBlock: UVAHIK_clean_linker_0, # of connection points: 2
# Relax obj value: 0.292
# Max RMSD: 0.218
# Mean RMSD: 0.142
data_MOF--net-snz--node1-NUHQIS_clean_sbu_0--edge1-UVAHIK_clean_linker_0
_symmetry_space_group_name_H-M    P1
_symmetry_Int_Tables_number       1
_symmetry_cell_setting            triclinic
loop_
_symmetry_equiv_pos_as_xyz
'x, y, z'
_cell_length_a     83.547319
_cell_length_b     69.310162
_cell_length_c     20.40248
_cell_angle_alpha  95.748332
_cell_angle_beta   96.085432
_cell_angle_gamma 120.71202
loop_
_atom_site_label
_atom_site_type_symbol
_atom_site_fract_x
_atom_site_fract_y
_atom_site_fract_z
_atom_type_partial_charge
Tb0 Tb 0.10868 0.50705 0.21339 0.0
Eu1 Eu 0.07193 0.51309 0.1972 0.0
C2 C 0.09217 0.51149 0.0694 0.0
C3 C 0.11384 0.55642 0.22331 0.0
C4 C 0.14221 0.48713 0.25936 0.0
C5 C 0.16328 0.47261 0.26913 0.0
C6 C 0.15765 0.48637 0.24146 0.0
C7 C 0.13238 0.47378 0.30537 0.0
C8 C 0.13804 0.46 0.33332 0.0
C9 C 0.15359 0.45924 0.31555 0.0
C10 C 0.13696 0.50228 0.23032 0.0
O11 O 0.09718 0.49814 0.30607 0.0
O12 O 0.08185 0.51759 0.30948 0.0
O13 O 0.05962 0.47573 0.19804 0.0
O14 O 0.0844 0.47263 0.17191 0.0
C15 C 0.08966 0.50773 0.34009 0.0
O16 O 0.05837 0.53086 0.23288 0.0
O17 O 0.04324 0.50253 0.14942 0.0
O18 O 0.0765 0.50725 0.09071 0.0
O19 O 0.10725 0.51583 0.11193 0.0
O20 O 0.12001 0.54374 0.24568 0.0
O21 O 0.09665 0.5471 0.18911 0.0
C22 C 0.06639 0.4634 0.17602 0.0
O23 O 0.12403 0.49325 0.1763 0.0
O24 O 0.13443 0.51556 0.27193 0.0
C25 C 0.03573 0.53142 0.15257 0.0
C26 C 0.01929 0.55443 0.09625 0.0
C27 C 0.038 0.56673 0.13241 0.0
C28 C 0.04615 0.55535 0.16026 0.0
C29 C 0.01725 0.51912 0.11524 0.0
C30 C 1.00914 0.53045 0.0872 0.0
C31 C 0.04323 0.51899 0.18645 0.0
H32 H 0.17547 0.47277 0.25491 0.0
H33 H 0.16549 0.49661 0.20628 0.0
H34 H 0.12037 0.47405 0.31979 0.0
H35 H 0.1301 0.44976 0.36825 0.0
H36 H 0.0462 0.5852 0.14091 0.0
H37 H 0.06044 0.56534 0.18889 0.0
H38 H 1.00893 0.50067 0.10862 0.0
H39 H 0.99485 0.52038 0.0586 0.0
Tb40 Tb 0.612 0.52329 1.04713 0.0
Eu41 Eu 0.57239 0.52252 1.03414 0.0
C42 C 0.59342 0.52214 0.17747 0.0
C43 C 0.57233 0.47655 1.0225 0.0
C44 C 0.66154 0.53782 1.03206 0.0
C45 C 0.69586 0.56322 0.06109 0.0
C46 C 0.67813 0.55171 0.08024 0.0
C47 C 0.66308 0.53586 0.964 0.0
C48 C 0.68083 0.5473 0.94484 0.0
C49 C 0.69751 0.561 0.99315 0.0
C50 C 0.64305 0.52455 1.05403 0.0
O51 O 0.60905 0.53267 0.94814 0.0
O52 O 0.57695 0.51713 0.92673 0.0
O53 O 0.59445 0.55896 1.03072 0.0
O54 O 0.62051 0.55892 0.07913 0.0
C55 C 0.59317 0.52497 0.90526 0.0
O56 O 0.54256 0.50578 0.98832 0.0
O57 O 0.55531 0.53629 0.06376 0.0
O58 O 0.58339 0.5293 0.14602 0.0
O59 O 0.6027 0.5149 0.14408 0.0
O60 O 0.58921 0.48776 1.00628 0.0
O61 O 0.5653 0.48762 1.05093 0.0
C62 C 0.61224 0.56994 0.06109 0.0
O63 O 0.63934 0.5352 0.10046 0.0
O64 O 0.62813 0.51114 1.00792 0.0
C65 C 0.52362 0.50784 0.06294 0.0
C66 C 0.49287 0.4859 0.13042 0.0
C67 C 0.49254 0.49891 0.08209 0.0
C68 C 0.50778 0.50976 1.04866 0.0
C69 C 0.52409 0.49493 0.11106 0.0
C70 C 0.50886 0.48405 0.14445 0.0
C71 C 0.53959 0.51923 1.02756 0.0
H72 H 0.7083 0.57389 0.09973 0.0
H73 H 0.67741 0.55349 0.13304 0.0
H74 H 0.65062 0.52518 0.92545 0.0
H75 H 0.68149 0.54489 0.89215 0.0
H76 H 0.48038 0.50047 0.06942 0.0
H77 H 0.50716 0.51961 1.01151 0.0
H78 H 0.53626 0.49332 0.12287 0.0
H79 H 0.50972 0.47444 0.18192 0.0
Tb80 Tb 0.57015 0.05508 0.90531 0.0
Eu81 Eu 0.61316 0.1013 0.93414 0.0
C82 C 0.59121 0.07453 0.78247 0.0
C83 C 0.60574 0.05035 0.92446 0.0
C84 C 0.52093 0.01218 0.9235 0.0
C85 C 0.48875 0.98328 0.93072 0.0
C86 C 0.5038 0.99189 0.89567 0.0
C87 C 0.52285 0.02389 0.9869 0.0
C88 C 0.5078 0.01528 1.02214 0.0
C89 C 0.49055 0.99481 0.99453 0.0
C90 C 0.53675 0.0206 0.88649 0.0
O91 O 0.57911 0.06146 1.01505 0.0
O92 O 0.60381 0.099 1.03644 0.0
O93 O 0.59243 0.11304 0.90989 0.0
O94 O 0.56701 0.08339 0.94129 0.0
C95 C 0.59143 0.08048 0.05777 0.0
O96 O 0.64121 0.1236 0.99745 0.0
O97 O 0.63575 0.13042 0.8996 0.0
O98 O 0.60754 0.0854 0.82452 0.0
O99 O 0.5751 0.06435 0.80517 0.0
O100 O 0.58856 0.04191 0.89075 0.0
O101 O 0.61652 0.07197 0.952 0.0
C102 C 0.57513 0.10348 0.92326 0.0
O103 O 0.54128 0.0392 0.86305 0.0
O104 O 0.55172 0.02102 0.91432 0.0
C105 C 0.66679 0.13821 0.93815 0.0
C106 C 0.70194 0.14388 0.91547 0.0
C107 C 0.70137 0.16093 0.95723 0.0
C108 C 0.68404 0.15812 0.96833 0.0
C109 C 0.66721 0.12108 0.89656 0.0
C110 C 0.68455 0.1239 0.8852 0.0
C111 C 0.64861 0.13543 0.95146 0.0
H112 H 0.47582 0.96733 0.9083 0.0
H113 H 0.5021 0.98256 0.84693 0.0
H114 H 0.536 0.03964 1.00916 0.0
H115 H 0.50963 0.02475 0.07075 0.0
H116 H 0.71433 0.17667 0.98079 0.0
H117 H 0.68413 0.17158 1.00065 0.0
H118 H 0.65411 0.10546 0.87308 0.0
H119 H 0.68431 0.11023 0.85347 0.0
Tb120 Tb 0.75805 0.86087 0.29952 0.0
Eu121 Eu 0.72116 0.86659 0.28316 0.0
C122 C 0.74177 0.86701 0.15763 0.0
C123 C 0.76416 0.91007 0.32485 0.0
C124 C 0.79369 0.84402 0.34604 0.0
C125 C 0.78928 0.81167 0.39653 0.0
C126 C 0.78169 0.82313 0.36538 0.0
C127 C 0.8133 0.85344 0.35924 0.0
C128 C 0.82089 0.84208 0.39048 0.0
C129 C 0.80899 0.82098 0.40918 0.0
C130 C 0.78623 0.85601 0.31001 0.0
O131 O 0.75358 0.86534 0.40355 0.0
O132 O 0.72284 0.85696 0.38673 0.0
O133 O 0.71022 0.82912 0.2477 0.0
O134 O 0.73437 0.82715 0.30425 0.0
C135 C 0.73809 0.86091 0.42701 0.0
O136 O 0.70502 0.88105 0.31887 0.0
O137 O 0.69412 0.85769 0.22442 0.0
O138 O 0.73369 0.87629 0.18911 0.0
O139 O 0.74927 0.8571 0.19021 0.0
O140 O 0.77012 0.89722 0.2992 0.0
O141 O 0.74634 0.90146 0.33016 0.0
C142 C 0.71716 0.81711 0.26904 0.0
O143 O 0.77086 0.84345 0.26512 0.0
O144 O 0.78594 0.87242 0.34578 0.0
C145 C 0.68595 0.88578 0.23527 0.0
C146 C 0.67365 0.91252 0.17679 0.0
C147 C 0.66237 0.89619 0.21409 0.0
C148 C 0.66846 0.88301 0.24297 0.0
C149 C 0.69734 0.90201 0.19822 0.0
C150 C 0.69125 0.91525 0.16922 0.0
C151 C 0.69181 0.87135 0.26548 0.0
H152 H 0.77973 0.79558 0.41093 0.0
H153 H 0.76649 0.8156 0.35587 0.0
H154 H 0.82278 0.8695 0.34445 0.0
H155 H 0.83608 0.8496 0.39851 0.0
H156 H 0.64863 0.89328 0.2202 0.0
H157 H 0.65942 0.8705 0.27109 0.0
H158 H 0.71091 0.90442 0.19173 0.0
H159 H 0.70043 0.9278 0.14154 0.0
Tb160 Tb 0.25574 0.8514 0.44641 0.0
Eu161 Eu 0.21571 0.84988 0.43245 0.0
C162 C 0.23542 0.84776 0.57477 0.0
C163 C 0.21722 0.80376 0.4177 0.0
C164 C 0.30356 0.86679 0.41771 0.0
C165 C 0.33485 0.8765 0.39879 0.0
C166 C 0.31967 0.86542 0.43233 0.0
C167 C 0.30277 0.87939 0.3691 0.0
C168 C 0.31793 0.89049 0.3355 0.0
C169 C 0.33419 0.88919 0.34987 0.0
C170 C 0.28765 0.85508 0.45324 0.0
O171 O 0.24595 0.84546 0.33725 0.0
O172 O 0.22611 0.85919 0.33415 0.0
O173 O 0.23908 0.88643 0.47615 0.0
O174 O 0.26281 0.88557 0.43294 0.0
C175 C 0.23611 0.85253 0.30358 0.0
O176 O 0.18731 0.83749 0.37692 0.0
O177 O 0.19771 0.86084 0.47133 0.0
O178 O 0.21927 0.84023 0.53407 0.0
O179 O 0.25141 0.85579 0.55119 0.0
O180 O 0.23492 0.81579 0.44967 0.0
O181 O 0.20815 0.81369 0.39841 0.0
C182 C 0.25618 0.8971 0.46189 0.0
O183 O 0.2844 0.86829 0.49218 0.0
O184 O 0.27201 0.83801 0.41696 0.0
C185 C 0.16455 0.83421 0.44275 0.0
C186 C 0.12861 0.80973 0.48041 0.0
C187 C 0.13074 0.81967 0.42255 0.0
C188 C 0.14852 0.83179 0.40406 0.0
C189 C 0.16251 0.82405 0.50002 0.0
C190 C 0.14473 0.81199 0.51875 0.0
C191 C 0.18323 0.84777 0.4232 0.0
H192 H 0.347 0.87485 0.41051 0.0
H193 H 0.3205 0.85571 0.46959 0.0
H194 H 0.29044 0.88069 0.35726 0.0
H195 H 0.31701 0.90031 0.29885 0.0
H196 H 0.11874 0.81855 0.39226 0.0
H197 H 0.14978 0.83951 0.35977 0.0
H198 H 0.17468 0.82557 0.53048 0.0
H199 H 0.14359 0.80433 0.56309 0.0
Tb200 Tb 0.21575 0.27141 0.55594 0.0
Eu201 Eu 0.25822 0.31751 0.58449 0.0
C202 C 0.23568 0.29131 0.43187 0.0
C203 C 0.2527 0.26841 0.56383 0.0
C204 C 0.16359 0.23489 0.55362 0.0
C205 C 0.12904 0.21414 0.52716 0.0
C206 C 0.14633 0.21711 0.51496 0.0
C207 C 0.16323 0.24979 0.60474 0.0
C208 C 0.14592 0.2468 0.61716 0.0
C209 C 0.12849 0.22889 0.57859 0.0
C210 C 0.18173 0.23788 0.53889 0.0
O211 O 0.22056 0.28668 0.66222 0.0
O212 O 0.2529 0.30639 0.68583 0.0
O213 O 0.23871 0.33022 0.60132 0.0
O214 O 0.21169 0.29927 0.53827 0.0
C215 C 0.23651 0.29633 0.70631 0.0
O216 O 0.28846 0.3347 0.62544 0.0
O217 O 0.27752 0.35306 0.5771 0.0
O218 O 0.24751 0.31092 0.4725 0.0
O219 O 0.2247 0.27277 0.45643 0.0
O220 O 0.23577 0.26004 0.58016 0.0
O221 O 0.26123 0.28829 0.545 0.0
C222 C 0.22151 0.32088 0.56693 0.0
O223 O 0.19481 0.24285 0.58982 0.0
O224 O 0.18894 0.25017 0.4937 0.0
C225 C 0.3082 0.36219 0.56483 0.0
C226 C 0.33805 0.38002 0.49161 0.0
C227 C 0.34015 0.39134 0.55615 0.0
C228 C 0.32536 0.3825 0.59233 0.0
C229 C 0.30599 0.35072 0.5007 0.0
C230 C 0.32077 0.35955 0.46439 0.0
C231 C 0.29262 0.35338 0.60289 0.0
H232 H 0.11609 0.20042 0.49538 0.0
H233 H 0.14621 0.20552 0.47483 0.0
H234 H 0.17633 0.26375 0.63515 0.0
H235 H 0.14623 0.2584 0.65769 0.0
H236 H 0.35312 0.40729 0.57831 0.0
H237 H 0.32727 0.39163 0.64166 0.0
H238 H 0.29281 0.33497 0.47869 0.0
H239 H 0.31873 0.35024 0.41524 0.0
Tb240 Tb 0.41888 0.18877 0.67931 0.0
Eu241 Eu 0.40782 0.18243 0.82459 0.0
C242 C 0.44039 0.23225 0.79811 0.0
C243 C 0.44136 0.17682 0.78109 0.0
C244 C 0.40633 0.16796 0.50596 0.0
C245 C 0.39627 0.14228 0.3999 0.0
C246 C 0.41005 0.16239 0.44383 0.0
C247 C 0.38865 0.15343 0.52312 0.0
C248 C 0.37516 0.13317 0.48024 0.0
C249 C 0.37893 0.12736 0.41865 0.0
C250 C 0.42132 0.18666 0.55781 0.0
O251 O 0.40254 0.15187 0.67706 0.0
O252 O 0.38442 0.15109 0.75292 0.0
O253 O 0.39521 0.20201 0.78634 0.0
O254 O 0.39218 0.18829 0.67668 0.0
C255 C 0.3872 0.1407 0.7024 0.0
O256 O 0.38678 0.1731 0.88923 0.0
O257 O 0.41459 0.17958 0.92818 0.0
O258 O 0.43193 0.21938 0.84196 0.0
O259 O 0.43667 0.224 0.73338 0.0
O260 O 0.44319 0.19057 0.73861 0.0
O261 O 0.42612 0.16752 0.80825 0.0
C262 C 0.38762 0.19823 0.72328 0.0
O263 O 0.41665 0.19999 0.58855 0.0
O264 O 0.4295 0.18008 0.60016 0.0
C265 C 0.38768 0.14675 0.95003 0.0
C266 C 0.36708 0.10022 0.9604 0.0
C267 C 0.36 0.11432 0.9765 0.0
C268 C 0.37024 0.13738 0.97152 0.0
C269 C 0.39473 0.13263 0.93347 0.0
C270 C 0.3846 0.10963 0.93923 0.0
C271 C 0.39692 0.1701 0.93546 0.0
H272 H 0.39936 0.138 0.35224 0.0
H273 H 0.42368 0.17319 0.43018 0.0
H274 H 0.38548 0.15738 0.57085 0.0
H275 H 0.36181 0.122 0.49524 0.0
H276 H 0.34673 0.10763 0.99442 0.0
H277 H 0.36438 0.14782 0.98331 0.0
H278 H 0.40792 0.13922 0.91502 0.0
H279 H 0.3904 0.09916 0.92692 0.0
Tb280 Tb 0.91901 0.17573 0.81141 0.0
Eu281 Eu 0.9118 0.19699 0.68653 0.0
C282 C 0.8933 0.14336 0.67578 0.0
C283 C 0.94832 0.19322 0.71713 0.0
C284 C 0.91042 0.13114 0.90946 0.0
C285 C 0.90541 0.10028 0.96764 0.0
C286 C 0.91714 0.12247 0.95675 0.0
C287 C 0.89223 0.11702 0.87028 0.0
C288 C 0.88044 0.09484 0.88133 0.0
C289 C 0.88673 0.08645 0.93144 0.0
C290 C 0.9224 0.15483 0.90068 0.0
O291 O 0.93323 0.21203 0.85619 0.0
O292 O 0.93156 0.22846 0.76421 0.0
O293 O 0.89388 0.19932 0.75804 0.0
O294 O 0.89001 0.16897 0.80462 0.0
C295 C 0.93747 0.23008 0.82816 0.0
O296 O 0.9218 0.21609 0.60552 0.0
O297 O 0.89209 0.19875 0.61187 0.0
O298 O 0.89022 0.15929 0.66173 0.0
O299 O 0.90716 0.14816 0.7241 0.0
O300 O 0.94626 0.19439 0.7799 0.0
O301 O 0.93422 0.18852 0.6699 0.0
C302 C 0.88428 0.18293 0.79098 0.0
O303 O 0.93038 0.15725 0.84818 0.0
O304 O 0.91508 0.1675 0.90707 0.0
C305 C 0.89942 0.1911 0.50869 0.0
C306 C 0.88672 0.15051 0.4178 0.0
C307 C 0.87405 0.15739 0.43151 0.0
C308 C 0.88037 0.17755 0.47637 0.0
C309 C 0.91234 0.18521 0.49024 0.0
C310 C 0.90604 0.16511 0.44569 0.0
C311 C 0.9045 0.20676 0.57262 0.0
H312 H 0.91059 0.09451 1.00744 0.0
H313 H 0.93123 0.13308 0.98673 0.0
H314 H 0.88697 0.12338 0.83256 0.0
H315 H 0.86616 0.0846 0.8527 0.0
H316 H 0.85915 0.1468 0.40948 0.0
H317 H 0.87008 0.18161 0.48973 0.0
H318 H 0.92711 0.19509 0.51419 0.0
H319 H 0.91622 0.16037 0.43651 0.0
Tb320 Tb 0.90521 0.66711 0.68344 0.0
Eu321 Eu 0.92481 0.70849 0.81395 0.0
C322 C 0.92922 0.66546 0.81011 0.0
C323 C 0.88128 0.66793 0.79349 0.0
C324 C 0.90397 0.62891 0.54594 0.0
C325 C 0.90606 0.60799 0.448 0.0
C326 C 0.89512 0.61184 0.48868 0.0
C327 C 0.92376 0.64121 0.56429 0.0
C328 C 0.93468 0.63756 0.52358 0.0
C329 C 0.92602 0.6214 0.46373 0.0
C330 C 0.89305 0.63545 0.58419 0.0
O331 O 0.89158 0.68646 0.66809 0.0
O332 O 0.91466 0.7211 0.73144 0.0
O333 O 0.94839 0.71043 0.76527 0.0
O334 O 0.93153 0.69398 0.65898 0.0
C335 C 0.89936 0.70865 0.68505 0.0
O336 O 0.92772 0.72144 0.91916 0.0
O337 O 0.94606 0.744 0.85804 0.0
O338 O 0.92613 0.67931 0.8474 0.0
O339 O 0.92556 0.6624 0.74447 0.0
O340 O 0.88496 0.65554 0.75171 0.0
O341 O 0.89353 0.68981 0.81532 0.0
C342 C 0.9478 0.70661 0.70061 0.0
O343 O 0.89358 0.63234 0.64613 0.0
O344 O 0.89602 0.65562 0.57962 0.0
C345 C 0.95987 0.74478 0.96661 0.0
C346 C 0.9849 0.73838 1.05232 0.0
C347 C 0.98729 0.74096 0.98593 0.0
C348 C 0.97481 0.74396 0.94332 0.0
C349 C 0.95872 0.7447 1.03456 0.0
C350 C 0.97106 0.74146 0.07701 0.0
C351 C 0.94342 0.74057 0.91883 0.0
H352 H 0.89892 0.59518 0.40282 0.0
H353 H 0.87983 0.60209 0.47414 0.0
H354 H 0.93084 0.65445 0.60855 0.0
H355 H 0.94994 0.64853 0.53702 0.0
H356 H 0.99802 0.73917 0.96559 0.0
H357 H 0.97607 0.74395 0.89103 0.0
H358 H 0.94725 0.74513 1.05349 0.0
H359 H 0.96858 0.73936 0.12754 0.0
C360 C 0.07593 0.50415 0.94852 0.0
C361 C 0.09257 0.51136 0.99489 0.0
C362 C 0.07591 0.50365 0.87909 0.0
C363 C 0.10525 0.5069 0.74447 0.0
H364 H 0.06812 0.51405 0.63747 0.0
C365 C 0.0967 0.49576 0.44941 0.0
C366 C 0.09007 0.50772 0.41486 0.0
C367 C 0.09719 0.49611 0.51925 0.0
C368 C 0.07883 0.51226 0.66594 0.0
H369 H 0.12243 0.52383 1.00187 0.0
H370 H 0.12258 0.52357 0.8819 0.0
H371 H 0.06923 0.51586 0.75714 0.0
H372 H 0.07902 0.5298 0.42949 0.0
H373 H 0.08029 0.53092 0.54948 0.0
H374 H 0.11527 0.50415 0.65328 0.0
C375 C 0.10928 0.51777 0.89888 0.0
C376 C 0.07926 0.51292 0.73565 0.0
C377 C 0.10926 0.5181 0.96854 0.0
C378 C 0.08407 0.52013 0.45323 0.0
C379 C 0.08469 0.52063 0.52295 0.0
C380 C 0.10489 0.50639 0.67466 0.0
C381 C 0.09258 0.51054 0.8523 0.0
C382 C 0.09242 0.51017 0.77684 0.0
C383 C 0.0912 0.50858 0.55789 0.0
C384 C 0.09165 0.50904 0.63349 0.0
H385 H 0.06267 0.49858 0.96573 0.0
H386 H 0.06255 0.49743 0.84636 0.0
H387 H 0.11555 0.50442 0.77282 0.0
H388 H 0.10147 0.48594 0.4224 0.0
H389 H 0.10208 0.48624 0.54258 0.0
C390 C 0.61063 0.53479 0.80597 0.0
C391 C 0.5935 0.52494 0.83077 0.0
C392 C 0.61084 0.5344 0.73648 0.0
C393 C 0.57941 0.52285 0.56905 0.0
H394 H 0.62054 0.52377 0.49498 0.0
C395 C 0.58527 0.53169 0.28836 0.0
C396 C 0.59387 0.52214 0.2523 0.0
C397 C 0.58548 0.53193 0.35778 0.0
C398 C 0.60875 0.52326 0.51402 0.0
H399 H 0.56304 0.50659 0.79913 0.0
H400 H 0.5633 0.50541 0.6796 0.0
H401 H 0.62019 0.52385 0.61416 0.0
H402 H 0.60949 0.50522 0.26379 0.0
H403 H 0.60953 0.50513 0.38381 0.0
H404 H 0.5676 0.52143 0.46885 0.0
C405 C 0.57678 0.51406 0.71357 0.0
C406 C 0.60869 0.52367 0.58361 0.0
C407 C 0.5766 0.5146 0.783 0.0
C408 C 0.60272 0.51281 0.289 0.0
C409 C 0.60284 0.51292 0.35867 0.0
C410 C 0.57941 0.52232 0.49956 0.0
C411 C 0.5939 0.524 0.68837 0.0
C412 C 0.59403 0.52352 0.61302 0.0
C413 C 0.59418 0.52247 0.39486 0.0
C414 C 0.59412 0.52262 0.47014 0.0
H415 H 0.62403 0.54297 0.8404 0.0
H416 H 0.62444 0.54264 0.72081 0.0
H417 H 0.56789 0.52303 0.58818 0.0
H418 H 0.57838 0.53924 0.26296 0.0
H419 H 0.57897 0.53997 0.3824 0.0
C420 C 0.60776 0.0889 0.68372 0.0
C421 C 0.59109 0.07452 0.70772 0.0
C422 C 0.60769 0.08966 0.61461 0.0
C423 C 0.58002 0.05693 0.44165 0.0
H424 H 0.61037 0.11489 0.38578 0.0
C425 C 0.57587 0.06308 0.15535 0.0
C426 C 0.59128 0.08058 0.13242 0.0
C427 C 0.57574 0.06258 0.22447 0.0
C428 C 0.60198 0.09836 0.39959 0.0
H429 H 0.56117 0.04942 0.67493 0.0
H430 H 0.5611 0.05042 0.55511 0.0
H431 H 0.61048 0.11328 0.50447 0.0
H432 H 0.61883 0.11135 0.16703 0.0
H433 H 0.619 0.11019 0.28626 0.0
H434 H 0.57187 0.0418 0.3375 0.0
C435 C 0.57435 0.06124 0.58997 0.0
C436 C 0.602 0.09747 0.46869 0.0
C437 C 0.57436 0.06072 0.6593 0.0
C438 C 0.60658 0.09762 0.18185 0.0
C439 C 0.60658 0.09697 0.25114 0.0
C440 C 0.58019 0.05775 0.3726 0.0
C441 C 0.59099 0.07585 0.56603 0.0
C442 C 0.59098 0.07676 0.49138 0.0
C443 C 0.59116 0.07939 0.27442 0.0
C444 C 0.59112 0.0785 0.34951 0.0
H445 H 0.62099 0.0999 0.71859 0.0
H446 H 0.62091 0.10099 0.59919 0.0
H447 H 0.57152 0.04052 0.45611 0.0
H448 H 0.56368 0.04964 0.11964 0.0
H449 H 0.56327 0.04894 0.23832 0.0
C450 C 0.75492 0.86796 0.54707 0.0
C451 C 0.73816 0.86094 0.50172 0.0
C452 C 0.75526 0.86862 0.61677 0.0
C453 C 0.72658 0.86644 0.75291 0.0
H454 H 0.76367 0.85929 0.86008 0.0
C455 C 0.73529 0.87874 1.04737 0.0
C456 C 0.74179 0.86686 0.08296 0.0
C457 C 0.73491 0.87815 0.97758 0.0
C458 C 0.75299 0.86109 0.83154 0.0
H459 H 0.70842 0.84888 0.49675 0.0
H460 H 0.70881 0.84938 0.61677 0.0
H461 H 0.76235 0.85705 0.74004 0.0
H462 H 0.75286 0.84474 0.07027 0.0
H463 H 0.75181 0.8432 0.94998 0.0
H464 H 0.71677 0.86963 0.84413 0.0
C465 C 0.72198 0.85496 0.59901 0.0
C466 C 0.75243 0.86017 0.76164 0.0
C467 C 0.72168 0.85447 0.52924 0.0
C468 C 0.74788 0.85433 1.04564 0.0
C469 C 0.74737 0.85358 0.97581 0.0
C470 C 0.72707 0.86722 0.82279 0.0
C471 C 0.7388 0.86212 0.6447 0.0
C472 C 0.73924 0.86288 0.7204 0.0
C473 C 0.74088 0.86547 0.93983 0.0
C474 C 0.74031 0.86461 0.86405 0.0
H475 H 0.76802 0.87329 0.52885 0.0
H476 H 0.76869 0.87469 0.6488 0.0
H477 H 0.71629 0.86895 0.72463 0.0
H478 H 0.73049 0.88867 0.07353 0.0
H479 H 0.7301 0.88797 0.95356 0.0
C480 C 0.21868 0.83769 0.67536 0.0
C481 C 0.23564 0.84786 0.64953 0.0
C482 C 0.2188 0.83824 0.74497 0.0
C483 C 0.25091 0.85125 0.91206 0.0
H484 H 0.20934 0.8492 0.98575 0.0
C485 C 0.24537 0.8435 0.19435 0.0
C486 C 0.23618 0.85251 0.22897 0.0
C487 C 0.24532 0.84309 0.12486 0.0
C488 C 0.22127 0.85005 0.9669 0.0
H489 H 0.26616 0.86684 0.67948 0.0
H490 H 0.26646 0.86828 0.79959 0.0
H491 H 0.20951 0.84882 0.86665 0.0
H492 H 0.21982 0.86844 0.21505 0.0
H493 H 0.22009 0.86829 0.09539 0.0
H494 H 0.26302 0.85333 1.01263 0.0
C495 C 0.25287 0.85931 0.76619 0.0
C496 C 0.22122 0.84945 0.89727 0.0
C497 C 0.25273 0.85861 0.69647 0.0
C498 C 0.22702 0.86124 0.19097 0.0
C499 C 0.22707 0.86097 0.12142 0.0
C500 C 0.25102 0.85199 0.98172 0.0
C501 C 0.2359 0.84916 0.79235 0.0
C502 C 0.23601 0.84996 0.8679 0.0
C503 C 0.23619 0.85183 0.08646 0.0
C504 C 0.23617 0.85133 1.01104 0.0
H505 H 0.20514 0.82915 0.64162 0.0
H506 H 0.2053 0.82975 0.7613 0.0
H507 H 0.26257 0.85141 0.89296 0.0
H508 H 0.25255 0.83648 0.2209 0.0
H509 H 0.25226 0.83546 0.10122 0.0
C510 C 0.21899 0.28675 0.80569 0.0
C511 C 0.23606 0.29577 0.78062 0.0
C512 C 0.21866 0.28584 0.87472 0.0
C513 C 0.25096 0.30869 1.04681 0.0
H514 H 0.2063 0.26229 0.10328 0.0
C515 C 0.24607 0.31097 0.33179 0.0
C516 C 0.23517 0.29069 0.35669 0.0
C517 C 0.24585 0.31107 0.2625 0.0
C518 C 0.21906 0.27532 0.08907 0.0
H519 H 0.26624 0.31063 0.81112 0.0
H520 H 0.2657 0.30864 0.92935 0.0
H521 H 0.20667 0.2632 0.98436 0.0
H522 H 0.21537 0.25436 0.32503 0.0
H523 H 0.21524 0.25436 0.20476 0.0
H524 H 0.26362 0.32035 0.15099 0.0
C525 C 0.25243 0.30271 0.89642 0.0
C526 C 0.21917 0.27607 1.01986 0.0
C527 C 0.25276 0.30375 0.8276 0.0
C528 C 0.22399 0.27041 0.30874 0.0
C529 C 0.22383 0.27048 0.23902 0.0
C530 C 0.25087 0.30787 0.1158 0.0
C531 C 0.23538 0.29376 0.92198 0.0
C532 C 0.23513 0.29282 0.99686 0.0
C533 C 0.23481 0.29085 0.21411 0.0
C534 C 0.2349 0.29125 0.13895 0.0
H535 H 0.20575 0.28039 0.77188 0.0
H536 H 0.20516 0.27911 0.89092 0.0
H537 H 0.26356 0.32216 1.03302 0.0
H538 H 0.25483 0.3271 0.36605 0.0
H539 H 0.25424 0.32733 0.24713 0.0
C540 C 0.35874 0.08468 0.3939 0.0
C541 C 0.36468 0.1058 0.37378 0.0
C542 C 0.3463 0.06427 0.34876 0.0
C543 C 0.33899 0.03317 0.21427 0.0
H544 H 0.30537 0.0367 0.07734 0.0
C545 C 0.36707 0.06972 1.01493 0.0
C546 C 0.35715 0.07661 0.97368 0.0
C547 C 0.35727 0.05126 1.04688 0.0
C548 C 0.31433 0.03448 0.11415 0.0
H549 H 0.36163 0.12246 0.2936 0.0
H550 H 0.33988 0.08718 0.21514 0.0
H551 H 0.30687 0.04929 0.193 0.0
H552 H 0.32945 0.06689 0.92155 0.0
H553 H 0.31223 0.03399 0.97503 0.0
H554 H 0.34722 0.01953 0.13526 0.0
C555 C 0.34462 0.0861 0.26542 0.0
C556 C 0.3151 0.04179 0.18126 0.0
C557 C 0.35729 0.10634 0.30977 0.0
C558 C 0.33739 0.06239 0.9555 0.0
C559 C 0.32755 0.04356 0.98644 0.0
C560 C 0.33781 0.02525 0.14704 0.0
C561 C 0.33929 0.06484 0.28378 0.0
C562 C 0.32949 0.04437 0.23023 0.0
C563 C 0.3373 0.03944 1.03855 0.0
C564 C 0.32806 0.02986 0.0963 0.0
H565 H 0.36434 0.08402 0.44343 0.0
H566 H 0.34265 0.04816 0.36372 0.0
H567 H 0.3496 0.0339 0.25164 0.0
H568 H 0.38236 0.08011 1.02879 0.0
H569 H 0.36567 0.04856 0.08461 0.0
C570 C 0.89082 0.12561 0.33255 0.0
C571 C 0.8799 0.12788 0.37686 0.0
C572 C 0.88489 0.10443 0.29525 0.0
C573 C 0.87368 0.05752 0.23525 0.0
H574 H 0.82557 0.033 0.11776 0.0
C575 C 0.87864 0.05121 0.97926 0.0
C576 C 0.87313 0.06571 0.9558 0.0
C577 C 0.86954 0.03803 1.02638 0.0
C578 C 0.83902 0.03942 0.15017 0.0
H579 H 0.85422 0.10938 0.41762 0.0
H580 H 0.84335 0.0723 0.34893 0.0
H581 H 0.83197 0.05559 0.22704 0.0
H582 H 0.85145 0.07417 0.95223 0.0
H583 H 0.83628 0.05243 1.03461 0.0
H584 H 0.88196 0.0444 0.15657 0.0
C585 C 0.85672 0.08701 0.3447 0.0
C586 C 0.84258 0.05216 0.21346 0.0
C587 C 0.86282 0.1083 0.38304 0.0
C588 C 0.85635 0.06358 0.97051 0.0
C589 C 0.84752 0.05083 1.01842 0.0
C590 C 0.87032 0.04535 0.17154 0.0
C591 C 0.86776 0.08487 0.30061 0.0
C592 C 0.86074 0.06338 0.25315 0.0
C593 C 0.85544 0.0401 1.05285 0.0
C594 C 0.8539 0.03886 0.12503 0.0
H595 H 0.90383 0.14034 0.3255 0.0
H596 H 0.89343 0.1036 0.25995 0.0
H597 H 0.88748 0.06502 0.26665 0.0
H598 H 0.89113 0.05182 0.96648 0.0
H599 H 0.87522 0.02865 1.04802 0.0
C600 C 0.95637 0.6265 0.43446 0.0
C601 C 0.93778 0.6214 0.41381 0.0
C602 C 0.96914 0.63296 0.39006 0.0
C603 C 0.97322 0.64199 0.21287 0.0
H604 H 1.01405 0.70269 0.29914 0.0
C605 C 0.99816 0.73389 0.16215 0.0
C606 C 0.99415 0.72861 0.09183 0.0
C607 C 1.00096 0.71975 0.19967 0.0
C608 C 1.00288 0.68573 0.27404 0.0
H609 H 0.91755 0.61658 0.32797 0.0
H610 H 0.93945 0.62746 0.25135 0.0
H611 H 0.99766 0.67419 0.36703 0.0
H612 H 0.99294 0.70625 1.00609 0.0
H613 H 0.99903 0.68265 0.07173 0.0
H614 H 0.9768 0.65415 0.12063 0.0
C615 C 0.94434 0.62652 0.30158 0.0
C616 C 0.99361 0.6692 0.31304 0.0
C617 C 0.93166 0.62024 0.3459 0.0
C618 C 0.99581 0.71087 0.06017 0.0
C619 C 0.99903 0.69702 0.09783 0.0
C620 C 0.98228 0.65859 0.17396 0.0
C621 C 0.96351 0.63423 0.32404 0.0
C622 C 0.97769 0.64773 0.28312 0.0
C623 C 1.00015 0.70021 0.16765 0.0
C624 C 0.9962 0.68119 0.20466 0.0
H625 H 0.96141 0.62694 0.48606 0.0
H626 H 0.98372 0.6384 0.40857 0.0
H627 H 0.96138 0.62536 0.1882 0.0
H628 H 0.9976 0.74787 0.18827 0.0
H629 H 1.0019 0.72304 0.25335 0.0
C630 C 0.1947 0.3252 0.51997 0.0
C631 C 0.21354 0.33534 0.55333 0.0
C632 C 0.18769 0.33859 0.49945 0.0
C633 C 0.19688 0.39767 0.52124 0.0
H634 H 0.16551 0.37597 0.34437 0.0
C635 C 0.16001 0.44283 0.41327 0.0
C636 C 0.15979 0.44466 0.3451 0.0
C637 C 0.16628 0.42958 0.44101 0.0
C638 C 0.17434 0.3824 0.3937 0.0
H639 H 0.23954 0.36775 0.59324 0.0
H640 H 0.22734 0.39111 0.5571 0.0
H641 H 0.1771 0.35329 0.38963 0.0
H642 H 0.16573 0.43347 0.25263 0.0
H643 H 0.17686 0.41077 0.30096 0.0
H644 H 0.19445 0.42708 0.5244 0.0
C645 C 0.21792 0.37274 0.54725 0.0
C646 C 0.18081 0.36921 0.42013 0.0
C647 C 0.22495 0.35932 0.56795 0.0
C648 C 0.16587 0.43271 0.30543 0.0
C649 C 0.17207 0.41944 0.33307 0.0
C650 C 0.19036 0.41087 0.49479 0.0
C651 C 0.1993 0.36254 0.51146 0.0
C652 C 0.1922 0.37663 0.48426 0.0
C653 C 0.1724 0.41769 0.40129 0.0
C654 C 0.17906 0.40347 0.43047 0.0
H655 H 0.1854 0.30681 0.50827 0.0
H656 H 0.17316 0.33009 0.47343 0.0
H657 H 0.2055 0.40389 0.57094 0.0
H658 H 0.15562 0.45194 0.44557 0.0
H659 H 0.16614 0.42849 0.49354 0.0
C660 C 0.64182 0.60759 0.11505 0.0
C661 C 0.62309 0.59546 0.07903 0.0
C662 C 0.6517 0.63139 0.13519 0.0
C663 C 0.65198 0.68361 0.10205 0.0
H664 H 0.68395 0.71032 0.27791 0.0
C665 C 0.68714 0.78006 0.2131 0.0
C666 C 0.70564 0.7916 0.25085 0.0
C667 C 0.67679 0.75621 0.19304 0.0
C668 C 0.67529 0.70327 0.22828 0.0
H669 H 0.60027 0.59929 1.03543 0.0
H670 H 0.61743 0.64066 0.07055 0.0
H671 H 0.66688 0.66917 0.24026 0.0
H672 H 0.7276 0.78668 0.29714 0.0
H673 H 0.70975 0.74543 0.2618 0.0
H674 H 0.66048 0.71773 0.0899 0.0
C675 C 0.62457 0.63178 0.08285 0.0
C676 C 0.66545 0.67954 0.20658 0.0
C677 C 0.61466 0.60795 0.06285 0.0
C678 C 0.71337 0.77851 0.26854 0.0
C679 C 0.70304 0.7547 0.24841 0.0
C680 C 0.66187 0.70737 0.1237 0.0
C681 C 0.6432 0.64388 0.11987 0.0
C682 C 0.65366 0.6693 0.14303 0.0
C683 C 0.6846 0.74312 0.20998 0.0
C684 C 0.67374 0.71763 0.18716 0.0
H685 H 0.64888 0.5987 0.12843 0.0
H686 H 0.66609 0.64002 0.16257 0.0
H687 H 0.64329 0.67651 1.05248 0.0
H688 H 0.68065 0.78946 0.19849 0.0
H689 H 0.66256 0.74803 0.16449 0.0
C690 C 0.45572 0.97508 0.99858 0.0
C691 C 0.47455 0.9853 1.03215 0.0
C692 C 0.44065 0.96543 1.03328 0.0
C693 C 0.42888 0.96506 0.20381 0.0
H694 H 0.38366 0.90735 0.11969 0.0
C695 C 0.36918 0.91192 0.34796 0.0
C696 C 0.35033 0.90088 0.31382 0.0
C697 C 0.38431 0.92268 0.31398 0.0
C698 C 0.39607 0.9236 0.14365 0.0
H699 H 0.49216 0.99334 0.12897 0.0
H700 H 0.46588 0.97653 0.18946 0.0
H701 H 0.40998 0.92535 0.06018 0.0
H702 H 0.33273 0.89251 0.21672 0.0
H703 H 0.35906 0.91161 0.15784 0.0
H704 H 0.41496 0.96326 0.28738 0.0
C705 C 0.46279 0.97624 0.13633 0.0
C706 C 0.41119 0.93395 0.10946 0.0
C707 C 0.47789 0.9859 0.1016 0.0
C708 C 0.34703 0.90101 0.24483 0.0
C709 C 0.36216 0.91174 0.21085 0.0
C710 C 0.41374 0.95471 0.23802 0.0
C711 C 0.44396 0.96572 0.10254 0.0
C712 C 0.42781 0.95482 0.13905 0.0
C713 C 0.38101 0.92268 0.2449 0.0
C714 C 0.39713 0.93383 0.2084 0.0
H715 H 0.45262 0.97467 0.94538 0.0
H716 H 0.42637 0.95787 1.0058 0.0
H717 H 0.44133 0.98128 0.22779 0.0
H718 H 0.37228 0.91241 0.40121 0.0
H719 H 0.39861 0.93072 0.34176 0.0
C720 C 0.54672 0.10583 0.94065 0.0
C721 C 0.56371 0.11453 0.91549 0.0
C722 C 0.53458 0.11392 0.92748 0.0
C723 C 0.53097 0.16101 0.86485 0.0
H724 H 0.47717 0.11607 0.83625 0.0
C725 C 0.47289 0.18078 0.76979 0.0
C726 C 0.45618 0.17095 0.79696 0.0
C727 C 0.48653 0.17483 0.78418 0.0
C728 C 0.49212 0.12899 0.84483 0.0
H729 H 0.58131 0.13922 0.85758 0.0
H730 H 0.56005 0.15327 0.83394 0.0
H731 H 0.49982 0.10456 0.8614 0.0
H732 H 0.44107 0.1472 0.86153 0.0
H733 H 0.46465 0.13699 0.88659 0.0
H734 H 0.52307 0.18539 0.84743 0.0
C735 C 0.55619 0.14025 0.86472 0.0
C736 C 0.50523 0.12236 0.85949 0.0
C737 C 0.56846 0.13218 0.87829 0.0
C738 C 0.45364 0.15512 0.83928 0.0
C739 C 0.4672 0.14912 0.85339 0.0
C740 C 0.51779 0.16765 0.8499 0.0
C741 C 0.53883 0.13093 0.88806 0.0
C742 C 0.52492 0.13826 0.87048 0.0
C743 C 0.48386 0.15875 0.82589 0.0
C744 C 0.49812 0.15177 0.84021 0.0
H745 H 0.54253 0.09236 0.96995 0.0
H746 H 0.52172 0.10664 0.94817 0.0
H747 H 0.54592 0.17389 0.87341 0.0
H748 H 0.47541 0.19301 0.73698 0.0
H749 H 0.49901 0.18252 0.76144 0.0
C750 C 0.94826 0.27162 0.85399 0.0
C751 C 0.9499 0.25335 0.86963 0.0
C752 C 0.96047 0.29377 0.89078 0.0
C753 C 0.99786 0.32715 1.04772 0.0
H754 H 1.00837 0.37804 0.95811 0.0
C755 C 0.05913 0.42314 0.14404 0.0
C756 C 0.05292 0.43859 0.14913 0.0
C757 C 0.04654 0.40014 0.11401 0.0
C758 C 1.00553 0.36399 0.98384 0.0
H759 H 0.96582 0.24412 0.9362 0.0
H760 H 0.98774 0.28274 0.998 0.0
H761 H 0.9871 0.33925 0.89729 0.0
H762 H 0.02852 0.44179 0.12619 0.0
H763 H 1.00685 0.40196 0.07194 0.0
H764 H 0.01729 0.35243 0.13331 0.0
C765 C 0.9766 0.28007 0.95907 0.0
C766 C 0.99311 0.34158 0.94919 0.0
C767 C 0.96404 0.25778 0.92327 0.0
C768 C 0.03379 0.43039 0.1238 0.0
C769 C 0.02137 0.40759 0.09231 0.0
C770 C 1.01067 0.34962 0.0818 0.0
C771 C 0.97512 0.29856 0.94336 0.0
C772 C 0.98883 0.32266 0.98059 0.0
C773 C 0.0276 0.39222 0.08677 0.0
C774 C 1.01449 0.36828 1.05042 0.0
H775 H 0.9374 0.26878 0.81339 0.0
H776 H 0.95824 0.30708 0.87776 0.0
H777 H 0.99487 0.31337 0.07477 0.0
H778 H 0.07376 0.42887 0.16287 0.0
H779 H 0.05175 0.38868 0.11022 0.0
C780 C 0.85844 0.66935 0.86221 0.0
C781 C 0.86259 0.65694 0.81541 0.0
C782 C 0.84071 0.65914 0.88178 0.0
C783 C 0.79099 0.61104 0.82746 0.0
H784 H 0.78755 0.62283 1.01367 0.0
C785 C 0.71922 0.58171 0.91379 0.0
C786 C 0.71654 0.5725 0.973 0.0
C787 C 0.737 0.59216 0.89463 0.0
C788 C 0.78824 0.61925 0.9615 0.0
H789 H 0.85118 0.62392 0.75274 0.0
H790 H 0.82038 0.60616 0.78705 0.0
H791 H 0.81854 0.64033 0.98062 0.0
H792 H 0.7307 0.56688 0.05776 0.0
H793 H 0.76162 0.58527 1.02478 0.0
H794 H 0.7607 0.58974 0.80849 0.0
C795 C 0.83079 0.62387 0.8082 0.0
C796 C 0.80603 0.62948 0.94242 0.0
C797 C 0.84854 0.63404 0.78886 0.0
C798 C 0.73221 0.57413 1.01255 0.0
C799 C 0.75 0.58467 0.99355 0.0
C800 C 0.7732 0.60091 0.84649 0.0
C801 C 0.82662 0.63629 0.85485 0.0
C802 C 0.80765 0.62547 0.87516 0.0
C803 C 0.75263 0.59378 0.93427 0.0
C804 C 0.77158 0.60482 0.9138 0.0
H805 H 0.86885 0.68702 0.88366 0.0
H806 H 0.83795 0.6693 0.91724 0.0
H807 H 0.79167 0.60774 0.77513 0.0
H808 H 0.70761 0.58112 0.8825 0.0
H809 H 0.73855 0.59927 0.84914 0.0
C810 C 0.94722 0.66171 0.90988 0.0
C811 C 0.93813 0.65412 0.84227 0.0
C812 C 0.95608 0.65131 0.93927 0.0
C813 C 0.95594 0.59785 0.9221 0.0
H814 H 1.00634 0.63485 1.03027 0.0
C815 C 0.99101 0.55835 0.0716 0.0
C816 C 1.01017 0.56648 0.06945 0.0
C817 C 0.98232 0.56941 1.04603 0.0
C818 C 0.99229 0.62428 0.99999 0.0
H819 H 0.93118 0.62961 0.75273 0.0
H820 H 0.94642 0.61137 0.80423 0.0
H821 H 0.99096 0.65328 0.9803 0.0
H822 H 0.03518 0.59279 1.03852 0.0
H823 H 0.02001 0.61217 0.99429 0.0
H824 H 0.95737 0.56882 0.94006 0.0
C825 C 0.94666 0.62531 0.83451 0.0
C826 C 0.9834 0.63485 0.9722 0.0
C827 C 0.93801 0.63585 0.80494 0.0
C828 C 0.02047 0.58618 1.04177 0.0
C829 C 1.01178 0.5973 1.01639 0.0
C830 C 0.96478 0.58727 0.95003 0.0
C831 C 0.95584 0.63295 0.90192 0.0
C832 C 0.96514 0.62176 0.93282 0.0
C833 C 0.99256 0.58897 1.01786 0.0
C834 C 0.9831 0.60034 0.98914 0.0
H835 H 0.94771 0.67587 0.93994 0.0
H836 H 0.96293 0.65748 0.99145 0.0
H837 H 0.94183 0.58728 0.89228 0.0
H838 H 0.98272 0.54355 0.09385 0.0
H839 H 0.96758 0.56275 1.04901 0.0
C840 C 0.56392 0.43907 0.95391 0.0
C841 C 0.5603 0.4511 1.00395 0.0
C842 C 0.55163 0.41538 0.9327 0.0
C843 C 0.51527 0.36286 0.98385 0.0
H844 H 0.49768 0.33904 0.79342 0.0
C845 C 0.45503 0.26827 0.88479 0.0
C846 C 0.45463 0.25713 0.8225 0.0
C847 C 0.46817 0.29171 0.90714 0.0
C848 C 0.50263 0.34514 0.84682 0.0
H849 H 0.54102 0.4473 0.07199 0.0
H850 H 0.51998 0.40602 1.03636 0.0
H851 H 0.52048 0.37963 0.83243 0.0
H852 H 0.46818 0.26212 0.73561 0.0
H853 H 0.49148 0.30248 0.77535 0.0
H854 H 0.49798 0.3285 0.99881 0.0
C855 C 0.53225 0.41494 1.0131 0.0
C856 C 0.51571 0.36859 0.86919 0.0
C857 C 0.54432 0.43867 1.0334 0.0
C858 C 0.46791 0.27009 0.78359 0.0
C859 C 0.48126 0.29345 0.80641 0.0
C860 C 0.50244 0.33934 0.96154 0.0
C861 C 0.53558 0.40299 0.96183 0.0
C862 C 0.52212 0.37782 0.93803 0.0
C863 C 0.4816 0.30479 0.8685 0.0
C864 C 0.49573 0.33001 0.89254 0.0
H865 H 0.576 0.44804 0.92977 0.0
H866 H 0.55472 0.40672 0.89346 0.0
H867 H 0.52005 0.36931 1.03723 0.0
H868 H 0.44494 0.25895 0.916 0.0
H869 H 0.46749 0.29959 0.95446 0.0
C870 C 0.85482 0.1613 0.84141 0.0
C871 C 0.86591 0.17904 0.80767 0.0
C872 C 0.8372 0.15717 0.85422 0.0
C873 C 0.79892 0.16799 0.7968 0.0
H874 H 0.78275 0.15051 0.96367 0.0
C875 C 0.72266 0.13952 0.84006 0.0
C876 C 0.72057 0.14699 0.90362 0.0
C877 C 0.74016 0.14288 0.82876 0.0
C878 C 0.78704 0.1555 0.91687 0.0
H879 H 0.86695 0.20648 0.76179 0.0
H880 H 0.83653 0.19942 0.78433 0.0
H881 H 0.81357 0.15782 0.94442 0.0
H882 H 0.73554 0.16349 1.00549 0.0
H883 H 0.76593 0.16957 0.98568 0.0
H884 H 0.77255 0.16602 0.76958 0.0
C885 C 0.84129 0.18845 0.80028 0.0
C886 C 0.80471 0.15947 0.90548 0.0
C887 C 0.8589 0.19263 0.78777 0.0
C888 C 0.73654 0.15772 0.95564 0.0
C889 C 0.754 0.16097 0.94443 0.0
C890 C 0.78123 0.16392 0.80802 0.0
C891 C 0.83006 0.17057 0.83336 0.0
C892 C 0.811 0.1659 0.84537 0.0
C893 C 0.75615 0.15372 0.88071 0.0
C894 C 0.77499 0.15768 0.86835 0.0
H895 H 0.85965 0.1504 0.85739 0.0
H896 H 0.82898 0.14312 0.87926 0.0
H897 H 0.80306 0.17262 0.74951 0.0
H898 H 0.71083 0.13137 0.79846 0.0
H899 H 0.74108 0.13679 0.77917 0.0
C900 C 0.60042 1.01115 0.9258 0.0
C901 C 0.61286 0.03496 0.93642 0.0
C902 C 0.60684 0.99701 0.94502 0.0
C903 C 0.6504 0.99535 0.99242 0.0
H904 H 0.61901 0.94815 0.08847 0.0
C905 C 0.67017 0.93176 0.08188 0.0
C906 C 0.66698 0.92649 0.14595 0.0
C907 C 0.66346 0.94437 1.05257 0.0
C908 C 0.628 0.96131 0.06199 0.0
H909 H 0.64202 0.0624 0.97315 0.0
H910 H 0.65314 0.03785 1.00618 0.0
H911 H 0.6076 0.97097 1.04219 0.0
H912 H 0.6546 0.9311 0.22992 0.0
H913 H 0.64289 0.95288 0.17887 0.0
H914 H 0.67098 0.98601 1.01355 0.0
C915 C 0.63843 0.03003 0.98296 0.0
C916 C 0.62134 0.97422 1.03467 0.0
C917 C 0.632 0.04416 0.96426 0.0
C918 C 0.65703 0.93438 0.18002 0.0
C919 C 0.65029 0.94691 0.15067 0.0
C920 C 0.65702 0.98234 1.01943 0.0
C921 C 0.62588 1.00631 0.97478 0.0
C922 C 0.63252 0.99158 1.00006 0.0
C923 C 0.65333 0.95201 0.08642 0.0
C924 C 0.646 0.96529 1.05523 0.0
H925 H 0.58558 1.00346 0.90471 0.0
H926 H 0.59682 0.97879 0.93718 0.0
H927 H 0.65933 1.00842 0.96559 0.0
H928 H 0.67752 0.92574 1.05364 0.0
H929 H 0.66589 0.94774 1.00274 0.0
C930 C 0.18866 0.76532 0.36367 0.0
C931 C 0.20724 0.77828 0.401 0.0
C932 C 0.17947 0.74156 0.3449 0.0
C933 C 0.18017 0.69056 0.38399 0.0
H934 H 0.14953 0.66276 0.20616 0.0
C935 C 0.14425 0.59315 0.27969 0.0
C936 C 0.12594 0.58193 0.24055 0.0
C937 C 0.155 0.61708 0.29853 0.0
C938 C 0.15782 0.67011 0.25634 0.0
H939 H 0.23051 0.77593 0.44853 0.0
H940 H 0.21446 0.73448 0.41585 0.0
H941 H 0.16627 0.70394 0.24141 0.0
H942 H 0.10476 0.58749 0.1906 0.0
H943 H 0.12321 0.62871 0.22373 0.0
H944 H 0.17153 0.65663 0.3991 0.0
C945 C 0.20696 0.74277 0.40135 0.0
C946 C 0.16748 0.69386 0.27663 0.0
C947 C 0.21622 0.76662 0.41993 0.0
C948 C 0.11882 0.59537 0.22031 0.0
C949 C 0.12952 0.6192 0.23915 0.0
C950 C 0.17042 0.66674 0.36375 0.0
C951 C 0.1885 0.72989 0.36293 0.0
C952 C 0.17868 0.70449 0.34097 0.0
C953 C 0.14777 0.63051 0.27877 0.0
C954 C 0.15894 0.65608 0.29974 0.0
H955 H 0.18118 0.77354 0.3482 0.0
H956 H 0.16516 0.73231 0.31642 0.0
H957 H 0.18849 0.69802 0.43411 0.0
H958 H 0.15025 0.58345 0.29635 0.0
H959 H 0.16906 0.62506 0.32831 0.0
C960 C 0.4674 0.48536 0.18763 0.0
C961 C 0.47665 0.47435 0.16612 0.0
C962 C 0.45225 0.47458 0.22142 0.0
C963 C 0.43028 0.42817 0.31933 0.0
H964 H 0.38712 0.435 0.28236 0.0
C965 C 0.3727 0.39986 0.48473 0.0
C966 C 0.35374 0.38971 0.45274 0.0
C967 C 0.38747 0.40947 0.44867 0.0
C968 C 0.39898 0.43273 0.29292 0.0
H969 H 0.4769 0.44313 0.16245 0.0
H970 H 0.45048 0.42434 0.22126 0.0
H971 H 0.41301 0.45277 0.22074 0.0
H972 H 0.33555 0.38178 0.35735 0.0
H973 H 0.36126 0.39814 0.29426 0.0
H974 H 0.4161 0.40782 0.39075 0.0
C975 C 0.45515 0.44148 0.21296 0.0
C976 C 0.41395 0.44317 0.25813 0.0
C977 C 0.47032 0.45226 0.1792 0.0
C978 C 0.34995 0.38925 0.38356 0.0
C979 C 0.36472 0.39889 0.3475 0.0
C980 C 0.41531 0.41774 0.35417 0.0
C981 C 0.44592 0.4525 0.23458 0.0
C982 C 0.42983 0.44109 0.271 0.0
C983 C 0.38369 0.40921 0.37963 0.0
C984 C 0.39948 0.41994 0.34158 0.0
H985 H 0.47208 0.5025 0.17939 0.0
H986 H 0.4457 0.48375 0.23828 0.0
H987 H 0.44234 0.42636 0.33105 0.0
H988 H 0.37615 0.4003 0.53775 0.0
H989 H 0.40189 0.41745 0.47525 0.0
C990 C 0.87308 0.70695 0.60683 0.0
C991 C 0.89009 0.71981 0.65384 0.0
C992 C 0.86403 0.71742 0.57948 0.0
C993 C 0.87259 0.77386 0.5527 0.0
H994 H 0.81798 0.74379 0.53122 0.0
C995 C 0.83414 0.82069 0.48788 0.0
C996 C 0.81723 0.80865 0.44028 0.0
C997 C 0.84256 0.80943 0.51412 0.0
C998 C 0.83322 0.75232 0.53621 0.0
H999 H 0.91093 0.75388 0.70848 0.0
H1000 H 0.89512 0.772 0.66128 0.0
H1001 H 0.8337 0.72497 0.57495 0.0
H1002 H 0.79581 0.77519 0.38366 0.0
H1003 H 0.81049 0.75552 0.42952 0.0
H1004 H 0.87215 0.8012 0.51411 0.0
C1005 C 0.88886 0.75386 0.64489 0.0
C1006 C 0.84224 0.74151 0.56123 0.0
C1007 C 0.8979 0.74342 0.67227 0.0
C1008 C 0.80871 0.78495 0.42079 0.0
C1009 C 0.81715 0.77367 0.44706 0.0
C1010 C 0.86358 0.78465 0.52773 0.0
C1011 C 0.87178 0.741 0.59832 0.0
C1012 C 0.86206 0.7522 0.57009 0.0
C1013 C 0.83431 0.78582 0.49349 0.0
C1014 C 0.84379 0.77409 0.51947 0.0
H1015 H 0.86665 0.68874 0.59137 0.0
H1016 H 0.85102 0.70704 0.54312 0.0
H1017 H 0.88784 0.78242 0.55769 0.0
H1018 H 0.8409 0.83888 0.50498 0.0
H1019 H 0.85554 0.81926 0.55084 0.0
C1020 C 0.35642 0.10385 0.70036 0.0
C1021 C 0.3732 0.11597 0.6749 0.0
C1022 C 0.34335 0.08059 0.67504 0.0
C1023 C 0.3299 0.03388 0.52988 0.0
H1024 H 0.3022 0.99467 0.65137 0.0
C1025 C 0.28609 0.93446 0.45948 0.0
C1026 C 0.26857 0.92254 0.48076 0.0
C1027 C 0.29827 0.95815 0.48044 0.0
C1028 C 0.30964 1.00538 0.61646 0.0
H1029 H 0.38922 0.11281 0.60209 0.0
H1030 H 0.36684 0.07231 0.55944 0.0
H1031 H 0.3245 0.0352 0.69314 0.0
H1032 H 0.25019 0.92659 0.5407 0.0
H1033 H 0.27143 0.96778 0.57743 0.0
H1034 H 0.31527 1.00377 0.45359 0.0
C1035 C 0.36348 0.08082 0.59809 0.0
C1036 C 0.32247 0.02878 0.64044 0.0
C1037 C 0.37648 0.10413 0.6231 0.0
C1038 C 0.26351 0.9351 0.52305 0.0
C1039 C 0.27579 0.95876 0.54459 0.0
C1040 C 0.31719 1.01041 0.50605 0.0
C1041 C 0.34668 0.06859 0.62368 0.0
C1042 C 0.33284 0.04349 0.59763 0.0
C1043 C 0.29341 0.97064 0.52397 0.0
C1044 C 0.30684 0.99579 0.54896 0.0
H1045 H 0.3533 0.11234 0.73996 0.0
H1046 H 0.33051 0.0721 0.69551 0.0
H1047 H 0.33725 0.04451 0.49472 0.0
H1048 H 0.29055 0.92545 0.42707 0.0
H1049 H 0.31176 0.9666 0.46389 0.0
C1050 C 0.9693 0.19511 0.63356 0.0
C1051 C 0.96669 0.19721 0.70038 0.0
C1052 C 0.98664 0.19882 0.61873 0.0
C1053 C 0.03782 0.22624 0.69526 0.0
H1054 H 0.03843 0.18758 0.54584 0.0
C1055 C 0.10812 0.24436 0.61189 0.0
C1056 C 0.10989 0.22558 0.59165 0.0
C1057 C 0.09074 0.24122 0.62374 0.0
C1058 C 0.03857 0.19849 0.58806 0.0
H1059 H 0.98052 0.2049 0.80388 0.0
H1060 H 1.01043 0.21118 0.77821 0.0
H1061 H 1.00825 0.18144 0.56902 0.0
H1062 H 0.09433 0.18857 0.56947 0.0
H1063 H 0.0642 0.18317 0.58953 0.0
H1064 H 0.0681 0.24304 0.71508 0.0
C1065 C 0.99922 0.20694 0.73702 0.0
C1066 C 0.0212 0.19512 0.60091 0.0
C1067 C 0.98192 0.20316 0.75179 0.0
C1068 C 0.09362 0.20355 0.58369 0.0
C1069 C 0.07623 0.20042 0.5953 0.0
C1070 C 0.05519 0.22968 0.68223 0.0
C1071 C 1.00191 0.20485 0.67029 0.0
C1072 C 0.02051 0.20885 0.65502 0.0
C1073 C 0.07448 0.21919 0.61557 0.0
C1074 C 0.05587 0.21578 0.62863 0.0
H1075 H 0.95795 0.1906 0.59256 0.0
H1076 H 0.98814 0.19725 0.56673 0.0
H1077 H 0.038 0.23739 0.73689 0.0
H1078 H 0.12012 0.26162 0.61755 0.0
H1079 H 0.08999 0.25616 0.63829 0.0
C1080 C 0.3685 0.20662 0.63892 0.0
C1081 C 0.37291 0.20402 0.70477 0.0
C1082 C 0.3549 0.21243 0.62195 0.0
C1083 C 0.31255 0.20993 0.67018 0.0
H1084 H 0.32556 0.26032 0.57597 0.0
C1085 C 0.26228 0.24488 0.62564 0.0
C1086 C 0.26358 0.25682 0.57265 0.0
C1087 C 0.27482 0.23727 0.64 0.0
C1088 C 0.3213 0.24583 0.60089 0.0
H1089 H 0.36597 0.20511 0.80397 0.0
H1090 H 0.34191 0.21452 0.77385 0.0
H1091 H 0.34837 0.24913 0.60258 0.0
H1092 H 0.27853 0.26906 0.49122 0.0
H1093 H 0.29928 0.25463 0.51267 0.0
H1094 H 0.2853 0.20594 0.66674 0.0
C1095 C 0.34916 0.21232 0.73549 0.0
C1096 C 0.33461 0.23954 0.61669 0.0
C1097 C 0.36306 0.20704 0.75284 0.0
C1098 C 0.27715 0.26001 0.53264 0.0
C1099 C 0.28934 0.25196 0.54585 0.0
C1100 C 0.29905 0.21589 0.65311 0.0
C1101 C 0.34496 0.21527 0.66991 0.0
C1102 C 0.3305 0.22159 0.6519 0.0
C1103 C 0.28884 0.24096 0.60096 0.0
C1104 C 0.30315 0.23406 0.6183 0.0
H1105 H 0.37576 0.20447 0.60053 0.0
H1106 H 0.35199 0.21444 0.57091 0.0
H1107 H 0.30881 0.19588 0.69683 0.0
H1108 H 0.25221 0.24242 0.65821 0.0
H1109 H 0.27387 0.22924 0.68341 0.0
C1110 C 0.77204 0.95009 0.3657 0.0
C1111 C 0.77812 0.93478 0.35207 0.0
C1112 C 0.78501 0.97289 0.39639 0.0
C1113 C 0.83107 1.00935 0.5094 0.0
H1114 H 0.82975 0.05937 0.44566 0.0
C1115 C 0.88602 0.10338 0.63781 0.0
C1116 C 0.88081 0.11969 0.63659 0.0
C1117 C 0.87411 0.08117 0.60061 0.0
C1118 C 0.8303 0.04574 0.46508 0.0
H1119 H 0.80279 0.93172 0.36004 0.0
H1120 H 0.82531 0.97135 0.41453 0.0
H1121 H 0.80806 0.02057 0.38557 0.0
H1122 H 0.85874 0.1252 0.59558 0.0
H1123 H 0.83771 0.08661 0.53431 0.0
H1124 H 0.85271 0.0341 0.59026 0.0
C1125 C 0.81049 0.9657 0.40105 0.0
C1126 C 0.8178 0.02336 0.43013 0.0
C1127 C 0.79757 0.943 0.36927 0.0
C1128 C 0.86333 0.11316 0.59751 0.0
C1129 C 0.85126 0.09088 0.56154 0.0
C1130 C 0.84341 0.03169 0.54496 0.0
C1131 C 0.80437 0.98092 0.41545 0.0
C1132 C 0.818 1.00486 0.45178 0.0
C1133 C 0.8564 0.0744 0.56212 0.0
C1134 C 0.84331 0.05038 0.52349 0.0
H1135 H 0.75718 0.94439 0.35332 0.0
H1136 H 0.77978 0.98409 0.40705 0.0
H1137 H 0.83144 0.99547 0.52809 0.0
H1138 H 0.89944 0.10784 0.6669 0.0
H1139 H 0.879 0.06944 0.60174 0.0
C1140 C 0.96615 0.71113 0.60662 0.0
C1141 C 0.96591 0.71627 0.6749 0.0
C1142 C 0.98336 0.72007 0.58336 0.0
C1143 C 0.03492 0.74544 0.64234 0.0
H1144 H 0.04023 0.76877 0.47595 0.0
C1145 C 0.10817 0.80031 0.56902 0.0
C1146 C 0.10972 0.79749 0.50121 0.0
C1147 C 0.09044 0.78941 0.5884 0.0
C1148 C 0.03896 0.76206 0.5221 0.0
H1149 H 0.98373 0.73497 0.77203 0.0
H1150 H 1.0135 0.75062 0.73154 0.0
H1151 H 1.00967 0.75148 0.51224 0.0
H1152 H 0.09369 0.78044 0.40082 0.0
H1153 H 0.06282 0.76132 0.43458 0.0
H1154 H 0.06416 0.75601 0.65243 0.0
C1155 C 1.00045 0.73945 0.69597 0.0
C1156 C 0.0214 0.75213 0.54294 0.0
C1157 C 0.9833 0.73056 0.71916 0.0
C1158 C 0.09304 0.78328 0.45337 0.0
C1159 C 0.0753 0.77233 0.47277 0.0
C1160 C 0.05245 0.75531 0.62149 0.0
C1161 C 1.00075 0.7343 0.62782 0.0
C1162 C 0.01919 0.7439 0.60372 0.0
C1163 C 0.07373 0.7753 0.54056 0.0
C1164 C 0.05479 0.76397 0.56139 0.0
H1165 H 0.95305 0.70006 0.57115 0.0
H1166 H 0.98305 0.71554 0.53067 0.0
H1167 H 0.03369 0.73889 0.68876 0.0
H1168 H 0.12065 0.8114 0.60716 0.0
H1169 H 0.08983 0.79247 0.64091 0.0
loop_
_geom_bond_atom_site_label_1
_geom_bond_atom_site_label_2
_geom_bond_distance
_geom_bond_site_symmetry_2
_ccdc_geom_bond_type
Tb0 C10 2.825 . S
Tb0 O11 2.347 . S
Tb0 O14 2.366 . S
Tb0 O19 2.418 1_554 S
Tb0 O20 2.384 . S
Tb0 O23 2.479 . S
Tb0 O24 2.471 . S
Eu1 O12 2.418 . S
Eu1 O13 2.384 . S
Eu1 O16 2.479 1_455 S
Eu1 O17 2.471 1_554 S
Eu1 O18 2.347 1_554 S
Eu1 O21 2.366 . S
Eu1 C31 2.825 1_455 S
C2 O18 1.259 . S
C2 O19 1.265 . S
C3 O20 1.255 . S
C3 O21 1.265 . S
C4 C6 1.380 . S
C4 C7 1.374 . S
C4 C10 1.507 . S
C5 C6 1.384 . S
C5 C9 1.387 . S
C5 H32 0.930 . S
C6 C4 1.380 . S
C6 C5 1.384 . S
C6 H33 0.931 . S
C7 C4 1.374 . S
C7 C8 1.390 . S
C7 H34 0.930 . S
C8 C7 1.390 . S
C8 C9 1.391 . S
C8 H35 0.930 . S
C9 C5 1.387 . S
C9 C8 1.391 . S
C10 Tb0 2.825 . S
C10 C4 1.507 . S
C10 O23 1.238 . S
C10 O24 1.247 . S
O11 Tb0 2.347 . S
O11 C15 1.259 . S
O12 Eu1 2.418 . S
O12 C15 1.265 . S
O13 Eu1 2.384 . S
O13 C22 1.255 . S
O14 Tb0 2.366 . S
O14 C22 1.265 . S
C15 O11 1.259 . S
C15 O12 1.265 . S
O16 Eu1 2.479 1_655 S
O16 C31 1.238 . S
O17 Eu1 2.471 1_556 S
O17 C31 1.247 1_456 S
O18 Eu1 2.347 1_556 S
O18 C2 1.259 . S
O19 Tb0 2.418 1_556 S
O19 C2 1.265 . S
O20 Tb0 2.384 . S
O20 C3 1.255 . S
O21 Eu1 2.366 . S
O21 C3 1.265 . S
C22 O13 1.255 . S
C22 O14 1.265 . S
O23 Tb0 2.479 . S
O23 C10 1.238 . S
O24 Tb0 2.471 . S
O24 C10 1.247 . S
C25 C28 1.380 . S
C25 C29 1.374 1_554 S
C25 C31 1.507 . S
C26 C27 1.387 1_556 S
C26 C30 1.391 . S
C27 C26 1.387 1_554 S
C27 C28 1.384 . S
C27 H36 0.930 . S
C28 C25 1.380 . S
C28 C27 1.384 . S
C28 H37 0.931 . S
C29 C25 1.374 1_556 S
C29 C30 1.390 . S
C29 H38 0.930 1_655 S
C30 C26 1.391 . S
C30 C29 1.390 . S
C30 H39 0.930 . S
C31 Eu1 2.825 1_655 S
C31 O16 1.238 . S
C31 O17 1.247 1_654 S
C31 C25 1.507 . S
H32 C5 0.930 . S
H33 C6 0.931 . S
H34 C7 0.930 . S
H35 C8 0.930 . S
H36 C27 0.930 . S
H37 C28 0.931 . S
H38 C29 0.930 1_455 S
H39 C30 0.930 . S
Tb40 C50 2.825 . S
Tb40 O51 2.347 . S
Tb40 O54 2.366 . S
Tb40 O59 2.418 . S
Tb40 O60 2.384 . S
Tb40 O63 2.479 . S
Tb40 O64 2.471 . S
Eu41 O52 2.418 1_554 S
Eu41 O53 2.384 . S
Eu41 O56 2.479 . S
Eu41 O57 2.471 . S
Eu41 O58 2.347 . S
Eu41 O61 2.366 . S
Eu41 C71 2.825 . S
C42 O58 1.259 . S
C42 O59 1.265 . S
C43 O60 1.255 . S
C43 O61 1.265 . S
C44 C46 1.380 . S
C44 C47 1.374 . S
C44 C50 1.507 . S
C45 C46 1.384 . S
C45 C49 1.387 . S
C45 H72 0.930 . S
C46 C44 1.380 . S
C46 C45 1.384 . S
C46 H73 0.931 . S
C47 C44 1.374 . S
C47 C48 1.390 . S
C47 H74 0.930 . S
C48 C47 1.390 . S
C48 C49 1.391 . S
C48 H75 0.930 . S
C49 C45 1.387 . S
C49 C48 1.391 . S
C50 Tb40 2.825 . S
C50 C44 1.507 . S
C50 O63 1.238 . S
C50 O64 1.247 . S
O51 Tb40 2.347 . S
O51 C55 1.259 1_554 S
O52 Eu41 2.418 1_556 S
O52 C55 1.265 . S
O53 Eu41 2.384 . S
O53 C62 1.255 . S
O54 Tb40 2.366 . S
O54 C62 1.265 . S
C55 O51 1.259 1_556 S
C55 O52 1.265 . S
O56 Eu41 2.479 . S
O56 C71 1.238 . S
O57 Eu41 2.471 . S
O57 C71 1.247 . S
O58 Eu41 2.347 . S
O58 C42 1.259 . S
O59 Tb40 2.418 . S
O59 C42 1.265 . S
O60 Tb40 2.384 . S
O60 C43 1.255 . S
O61 Eu41 2.366 . S
O61 C43 1.265 . S
C62 O53 1.255 . S
C62 O54 1.265 . S
O63 Tb40 2.479 . S
O63 C50 1.238 . S
O64 Tb40 2.471 . S
O64 C50 1.247 . S
C65 C68 1.380 . S
C65 C69 1.374 . S
C65 C71 1.507 . S
C66 C67 1.387 . S
C66 C70 1.391 . S
C67 C66 1.387 . S
C67 C68 1.384 . S
C67 H76 0.930 . S
C68 C65 1.380 . S
C68 C67 1.384 . S
C68 H77 0.931 . S
C69 C65 1.374 . S
C69 C70 1.390 . S
C69 H78 0.930 . S
C70 C66 1.391 . S
C70 C69 1.390 . S
C70 H79 0.930 . S
C71 Eu41 2.825 . S
C71 O56 1.238 . S
C71 O57 1.247 . S
C71 C65 1.507 . S
H72 C45 0.930 . S
H73 C46 0.931 . S
H74 C47 0.930 . S
H75 C48 0.930 . S
H76 C67 0.930 . S
H77 C68 0.931 . S
H78 C69 0.930 . S
H79 C70 0.930 . S
Tb80 C90 2.825 . S
Tb80 O91 2.347 . S
Tb80 O94 2.366 . S
Tb80 O99 2.418 . S
Tb80 O100 2.384 . S
Tb80 O103 2.479 . S
Tb80 O104 2.471 . S
Eu81 O92 2.418 . S
Eu81 O93 2.384 . S
Eu81 O96 2.479 . S
Eu81 O97 2.471 . S
Eu81 O98 2.347 . S
Eu81 O101 2.366 . S
Eu81 C111 2.825 . S
C82 O98 1.259 . S
C82 O99 1.265 . S
C83 O100 1.255 . S
C83 O101 1.265 . S
C84 C86 1.380 . S
C84 C87 1.374 . S
C84 C90 1.507 . S
C85 C86 1.384 . S
C85 C89 1.387 . S
C85 H112 0.930 . S
C86 C84 1.380 . S
C86 C85 1.384 . S
C86 H113 0.931 . S
C87 C84 1.374 . S
C87 C88 1.390 . S
C87 H114 0.930 . S
C88 C87 1.390 . S
C88 C89 1.391 . S
C88 H115 0.930 . S
C89 C85 1.387 . S
C89 C88 1.391 . S
C90 Tb80 2.825 . S
C90 C84 1.507 . S
C90 O103 1.238 . S
C90 O104 1.247 . S
O91 Tb80 2.347 . S
O91 C95 1.259 . S
O92 Eu81 2.418 . S
O92 C95 1.265 . S
O93 Eu81 2.384 . S
O93 C102 1.255 . S
O94 Tb80 2.366 . S
O94 C102 1.265 . S
C95 O91 1.259 . S
C95 O92 1.265 . S
O96 Eu81 2.479 . S
O96 C111 1.238 . S
O97 Eu81 2.471 . S
O97 C111 1.247 . S
O98 Eu81 2.347 . S
O98 C82 1.259 . S
O99 Tb80 2.418 . S
O99 C82 1.265 . S
O100 Tb80 2.384 . S
O100 C83 1.255 . S
O101 Eu81 2.366 . S
O101 C83 1.265 . S
C102 O93 1.255 . S
C102 O94 1.265 . S
O103 Tb80 2.479 . S
O103 C90 1.238 . S
O104 Tb80 2.471 . S
O104 C90 1.247 . S
C105 C108 1.380 . S
C105 C109 1.374 . S
C105 C111 1.507 . S
C106 C107 1.387 . S
C106 C110 1.391 . S
C107 C106 1.387 . S
C107 C108 1.384 . S
C107 H116 0.930 . S
C108 C105 1.380 . S
C108 C107 1.384 . S
C108 H117 0.931 . S
C109 C105 1.374 . S
C109 C110 1.390 . S
C109 H118 0.930 . S
C110 C106 1.391 . S
C110 C109 1.390 . S
C110 H119 0.930 . S
C111 Eu81 2.825 . S
C111 O96 1.238 . S
C111 O97 1.247 . S
C111 C105 1.507 . S
H112 C85 0.930 . S
H113 C86 0.931 . S
H114 C87 0.930 . S
H115 C88 0.930 . S
H116 C107 0.930 . S
H117 C108 0.931 . S
H118 C109 0.930 . S
H119 C110 0.930 . S
Tb120 C130 2.825 . S
Tb120 O131 2.347 . S
Tb120 O134 2.366 . S
Tb120 O139 2.418 . S
Tb120 O140 2.384 . S
Tb120 O143 2.479 . S
Tb120 O144 2.471 . S
Eu121 O132 2.418 . S
Eu121 O133 2.384 . S
Eu121 O136 2.479 . S
Eu121 O137 2.471 . S
Eu121 O138 2.347 . S
Eu121 O141 2.366 . S
Eu121 C151 2.825 . S
C122 O138 1.259 . S
C122 O139 1.265 . S
C123 O140 1.255 . S
C123 O141 1.265 . S
C124 C126 1.380 . S
C124 C127 1.374 . S
C124 C130 1.507 . S
C125 C126 1.384 . S
C125 C129 1.387 . S
C125 H152 0.930 . S
C126 C124 1.380 . S
C126 C125 1.384 . S
C126 H153 0.931 . S
C127 C124 1.374 . S
C127 C128 1.390 . S
C127 H154 0.930 . S
C128 C127 1.390 . S
C128 C129 1.391 . S
C128 H155 0.930 . S
C129 C125 1.387 . S
C129 C128 1.391 . S
C130 Tb120 2.825 . S
C130 C124 1.507 . S
C130 O143 1.238 . S
C130 O144 1.247 . S
O131 Tb120 2.347 . S
O131 C135 1.259 . S
O132 Eu121 2.418 . S
O132 C135 1.265 . S
O133 Eu121 2.384 . S
O133 C142 1.255 . S
O134 Tb120 2.366 . S
O134 C142 1.265 . S
C135 O131 1.259 . S
C135 O132 1.265 . S
O136 Eu121 2.479 . S
O136 C151 1.238 . S
O137 Eu121 2.471 . S
O137 C151 1.247 . S
O138 Eu121 2.347 . S
O138 C122 1.259 . S
O139 Tb120 2.418 . S
O139 C122 1.265 . S
O140 Tb120 2.384 . S
O140 C123 1.255 . S
O141 Eu121 2.366 . S
O141 C123 1.265 . S
C142 O133 1.255 . S
C142 O134 1.265 . S
O143 Tb120 2.479 . S
O143 C130 1.238 . S
O144 Tb120 2.471 . S
O144 C130 1.247 . S
C145 C148 1.380 . S
C145 C149 1.374 . S
C145 C151 1.507 . S
C146 C147 1.387 . S
C146 C150 1.391 . S
C147 C146 1.387 . S
C147 C148 1.384 . S
C147 H156 0.930 . S
C148 C145 1.380 . S
C148 C147 1.384 . S
C148 H157 0.931 . S
C149 C145 1.374 . S
C149 C150 1.390 . S
C149 H158 0.930 . S
C150 C146 1.391 . S
C150 C149 1.390 . S
C150 H159 0.930 . S
C151 Eu121 2.825 . S
C151 O136 1.238 . S
C151 O137 1.247 . S
C151 C145 1.507 . S
H152 C125 0.930 . S
H153 C126 0.931 . S
H154 C127 0.930 . S
H155 C128 0.930 . S
H156 C147 0.930 . S
H157 C148 0.931 . S
H158 C149 0.930 . S
H159 C150 0.930 . S
Tb160 C170 2.825 . S
Tb160 O171 2.347 . S
Tb160 O174 2.366 . S
Tb160 O179 2.418 . S
Tb160 O180 2.384 . S
Tb160 O183 2.479 . S
Tb160 O184 2.471 . S
Eu161 O172 2.418 . S
Eu161 O173 2.384 . S
Eu161 O176 2.479 . S
Eu161 O177 2.471 . S
Eu161 O178 2.347 . S
Eu161 O181 2.366 . S
Eu161 C191 2.825 . S
C162 O178 1.259 . S
C162 O179 1.265 . S
C163 O180 1.255 . S
C163 O181 1.265 . S
C164 C166 1.380 . S
C164 C167 1.374 . S
C164 C170 1.507 . S
C165 C166 1.384 . S
C165 C169 1.387 . S
C165 H192 0.930 . S
C166 C164 1.380 . S
C166 C165 1.384 . S
C166 H193 0.931 . S
C167 C164 1.374 . S
C167 C168 1.390 . S
C167 H194 0.930 . S
C168 C167 1.390 . S
C168 C169 1.391 . S
C168 H195 0.930 . S
C169 C165 1.387 . S
C169 C168 1.391 . S
C170 Tb160 2.825 . S
C170 C164 1.507 . S
C170 O183 1.238 . S
C170 O184 1.247 . S
O171 Tb160 2.347 . S
O171 C175 1.259 . S
O172 Eu161 2.418 . S
O172 C175 1.265 . S
O173 Eu161 2.384 . S
O173 C182 1.255 . S
O174 Tb160 2.366 . S
O174 C182 1.265 . S
C175 O171 1.259 . S
C175 O172 1.265 . S
O176 Eu161 2.479 . S
O176 C191 1.238 . S
O177 Eu161 2.471 . S
O177 C191 1.247 . S
O178 Eu161 2.347 . S
O178 C162 1.259 . S
O179 Tb160 2.418 . S
O179 C162 1.265 . S
O180 Tb160 2.384 . S
O180 C163 1.255 . S
O181 Eu161 2.366 . S
O181 C163 1.265 . S
C182 O173 1.255 . S
C182 O174 1.265 . S
O183 Tb160 2.479 . S
O183 C170 1.238 . S
O184 Tb160 2.471 . S
O184 C170 1.247 . S
C185 C188 1.380 . S
C185 C189 1.374 . S
C185 C191 1.507 . S
C186 C187 1.387 . S
C186 C190 1.391 . S
C187 C186 1.387 . S
C187 C188 1.384 . S
C187 H196 0.930 . S
C188 C185 1.380 . S
C188 C187 1.384 . S
C188 H197 0.931 . S
C189 C185 1.374 . S
C189 C190 1.390 . S
C189 H198 0.930 . S
C190 C186 1.391 . S
C190 C189 1.390 . S
C190 H199 0.930 . S
C191 Eu161 2.825 . S
C191 O176 1.238 . S
C191 O177 1.247 . S
C191 C185 1.507 . S
H192 C165 0.930 . S
H193 C166 0.931 . S
H194 C167 0.930 . S
H195 C168 0.930 . S
H196 C187 0.930 . S
H197 C188 0.931 . S
H198 C189 0.930 . S
H199 C190 0.930 . S
Tb200 C210 2.825 . S
Tb200 O211 2.347 . S
Tb200 O214 2.366 . S
Tb200 O219 2.418 . S
Tb200 O220 2.384 . S
Tb200 O223 2.479 . S
Tb200 O224 2.471 . S
Eu201 O212 2.418 . S
Eu201 O213 2.384 . S
Eu201 O216 2.479 . S
Eu201 O217 2.471 . S
Eu201 O218 2.347 . S
Eu201 O221 2.366 . S
Eu201 C231 2.825 . S
C202 O218 1.259 . S
C202 O219 1.265 . S
C203 O220 1.255 . S
C203 O221 1.265 . S
C204 C206 1.380 . S
C204 C207 1.374 . S
C204 C210 1.507 . S
C205 C206 1.384 . S
C205 C209 1.387 . S
C205 H232 0.930 . S
C206 C204 1.380 . S
C206 C205 1.384 . S
C206 H233 0.931 . S
C207 C204 1.374 . S
C207 C208 1.390 . S
C207 H234 0.930 . S
C208 C207 1.390 . S
C208 C209 1.391 . S
C208 H235 0.930 . S
C209 C205 1.387 . S
C209 C208 1.391 . S
C210 Tb200 2.825 . S
C210 C204 1.507 . S
C210 O223 1.238 . S
C210 O224 1.247 . S
O211 Tb200 2.347 . S
O211 C215 1.259 . S
O212 Eu201 2.418 . S
O212 C215 1.265 . S
O213 Eu201 2.384 . S
O213 C222 1.255 . S
O214 Tb200 2.366 . S
O214 C222 1.265 . S
C215 O211 1.259 . S
C215 O212 1.265 . S
O216 Eu201 2.479 . S
O216 C231 1.238 . S
O217 Eu201 2.471 . S
O217 C231 1.247 . S
O218 Eu201 2.347 . S
O218 C202 1.259 . S
O219 Tb200 2.418 . S
O219 C202 1.265 . S
O220 Tb200 2.384 . S
O220 C203 1.255 . S
O221 Eu201 2.366 . S
O221 C203 1.265 . S
C222 O213 1.255 . S
C222 O214 1.265 . S
O223 Tb200 2.479 . S
O223 C210 1.238 . S
O224 Tb200 2.471 . S
O224 C210 1.247 . S
C225 C228 1.380 . S
C225 C229 1.374 . S
C225 C231 1.507 . S
C226 C227 1.387 . S
C226 C230 1.391 . S
C227 C226 1.387 . S
C227 C228 1.384 . S
C227 H236 0.930 . S
C228 C225 1.380 . S
C228 C227 1.384 . S
C228 H237 0.931 . S
C229 C225 1.374 . S
C229 C230 1.390 . S
C229 H238 0.930 . S
C230 C226 1.391 . S
C230 C229 1.390 . S
C230 H239 0.930 . S
C231 Eu201 2.825 . S
C231 O216 1.238 . S
C231 O217 1.247 . S
C231 C225 1.507 . S
H232 C205 0.930 . S
H233 C206 0.931 . S
H234 C207 0.930 . S
H235 C208 0.930 . S
H236 C227 0.930 . S
H237 C228 0.931 . S
H238 C229 0.930 . S
H239 C230 0.930 . S
Tb240 C250 2.825 . S
Tb240 O251 2.347 . S
Tb240 O254 2.366 . S
Tb240 O259 2.418 . S
Tb240 O260 2.384 . S
Tb240 O263 2.479 . S
Tb240 O264 2.471 . S
Eu241 O252 2.418 . S
Eu241 O253 2.384 . S
Eu241 O256 2.479 . S
Eu241 O257 2.471 . S
Eu241 O258 2.347 . S
Eu241 O261 2.366 . S
Eu241 C271 2.825 . S
C242 O258 1.259 . S
C242 O259 1.265 . S
C243 O260 1.255 . S
C243 O261 1.265 . S
C244 C246 1.380 . S
C244 C247 1.374 . S
C244 C250 1.507 . S
C245 C246 1.384 . S
C245 C249 1.387 . S
C245 H272 0.930 . S
C246 C244 1.380 . S
C246 C245 1.384 . S
C246 H273 0.931 . S
C247 C244 1.374 . S
C247 C248 1.390 . S
C247 H274 0.930 . S
C248 C247 1.390 . S
C248 C249 1.391 . S
C248 H275 0.930 . S
C249 C245 1.387 . S
C249 C248 1.391 . S
C250 Tb240 2.825 . S
C250 C244 1.507 . S
C250 O263 1.238 . S
C250 O264 1.247 . S
O251 Tb240 2.347 . S
O251 C255 1.259 . S
O252 Eu241 2.418 . S
O252 C255 1.265 . S
O253 Eu241 2.384 . S
O253 C262 1.255 . S
O254 Tb240 2.366 . S
O254 C262 1.265 . S
C255 O251 1.259 . S
C255 O252 1.265 . S
O256 Eu241 2.479 . S
O256 C271 1.238 . S
O257 Eu241 2.471 . S
O257 C271 1.247 . S
O258 Eu241 2.347 . S
O258 C242 1.259 . S
O259 Tb240 2.418 . S
O259 C242 1.265 . S
O260 Tb240 2.384 . S
O260 C243 1.255 . S
O261 Eu241 2.366 . S
O261 C243 1.265 . S
C262 O253 1.255 . S
C262 O254 1.265 . S
O263 Tb240 2.479 . S
O263 C250 1.238 . S
O264 Tb240 2.471 . S
O264 C250 1.247 . S
C265 C268 1.380 . S
C265 C269 1.374 . S
C265 C271 1.507 . S
C266 C267 1.387 . S
C266 C270 1.391 . S
C267 C266 1.387 . S
C267 C268 1.384 1_554 S
C267 H276 0.930 . S
C268 C265 1.380 . S
C268 C267 1.384 1_556 S
C268 H277 0.931 . S
C269 C265 1.374 . S
C269 C270 1.390 1_556 S
C269 H278 0.930 . S
C270 C266 1.391 . S
C270 C269 1.390 1_554 S
C270 H279 0.930 . S
C271 Eu241 2.825 . S
C271 O256 1.238 . S
C271 O257 1.247 . S
C271 C265 1.507 . S
H272 C245 0.930 . S
H273 C246 0.931 . S
H274 C247 0.930 . S
H275 C248 0.930 . S
H276 C267 0.930 . S
H277 C268 0.931 . S
H278 C269 0.930 . S
H279 C270 0.930 . S
Tb280 C290 2.825 . S
Tb280 O291 2.347 . S
Tb280 O294 2.366 . S
Tb280 O299 2.418 . S
Tb280 O300 2.384 . S
Tb280 O303 2.479 . S
Tb280 O304 2.471 . S
Eu281 O292 2.418 . S
Eu281 O293 2.384 . S
Eu281 O296 2.479 . S
Eu281 O297 2.471 . S
Eu281 O298 2.347 . S
Eu281 O301 2.366 . S
Eu281 C311 2.825 . S
C282 O298 1.259 . S
C282 O299 1.265 . S
C283 O300 1.255 . S
C283 O301 1.265 . S
C284 C286 1.380 . S
C284 C287 1.374 . S
C284 C290 1.507 . S
C285 C286 1.384 1_554 S
C285 C289 1.387 . S
C285 H312 0.930 . S
C286 C284 1.380 . S
C286 C285 1.384 1_556 S
C286 H313 0.931 . S
C287 C284 1.374 . S
C287 C288 1.390 1_556 S
C287 H314 0.930 . S
C288 C287 1.390 1_554 S
C288 C289 1.391 . S
C288 H315 0.930 . S
C289 C285 1.387 . S
C289 C288 1.391 . S
C290 Tb280 2.825 . S
C290 C284 1.507 . S
C290 O303 1.238 . S
C290 O304 1.247 . S
O291 Tb280 2.347 . S
O291 C295 1.259 . S
O292 Eu281 2.418 . S
O292 C295 1.265 . S
O293 Eu281 2.384 . S
O293 C302 1.255 . S
O294 Tb280 2.366 . S
O294 C302 1.265 . S
C295 O291 1.259 . S
C295 O292 1.265 . S
O296 Eu281 2.479 . S
O296 C311 1.238 . S
O297 Eu281 2.471 . S
O297 C311 1.247 . S
O298 Eu281 2.347 . S
O298 C282 1.259 . S
O299 Tb280 2.418 . S
O299 C282 1.265 . S
O300 Tb280 2.384 . S
O300 C283 1.255 . S
O301 Eu281 2.366 . S
O301 C283 1.265 . S
C302 O293 1.255 . S
C302 O294 1.265 . S
O303 Tb280 2.479 . S
O303 C290 1.238 . S
O304 Tb280 2.471 . S
O304 C290 1.247 . S
C305 C308 1.380 . S
C305 C309 1.374 . S
C305 C311 1.507 . S
C306 C307 1.387 . S
C306 C310 1.391 . S
C307 C306 1.387 . S
C307 C308 1.384 . S
C307 H316 0.930 . S
C308 C305 1.380 . S
C308 C307 1.384 . S
C308 H317 0.931 . S
C309 C305 1.374 . S
C309 C310 1.390 . S
C309 H318 0.930 . S
C310 C306 1.391 . S
C310 C309 1.390 . S
C310 H319 0.930 . S
C311 Eu281 2.825 . S
C311 O296 1.238 . S
C311 O297 1.247 . S
C311 C305 1.507 . S
H312 C285 0.930 . S
H313 C286 0.931 . S
H314 C287 0.930 . S
H315 C288 0.930 . S
H316 C307 0.930 . S
H317 C308 0.931 . S
H318 C309 0.930 . S
H319 C310 0.930 . S
Tb320 C330 2.825 . S
Tb320 O331 2.347 . S
Tb320 O334 2.366 . S
Tb320 O339 2.418 . S
Tb320 O340 2.384 . S
Tb320 O343 2.479 . S
Tb320 O344 2.471 . S
Eu321 O332 2.418 . S
Eu321 O333 2.384 . S
Eu321 O336 2.479 . S
Eu321 O337 2.471 . S
Eu321 O338 2.347 . S
Eu321 O341 2.366 . S
Eu321 C351 2.825 . S
C322 O338 1.259 . S
C322 O339 1.265 . S
C323 O340 1.255 . S
C323 O341 1.265 . S
C324 C326 1.380 . S
C324 C327 1.374 . S
C324 C330 1.507 . S
C325 C326 1.384 . S
C325 C329 1.387 . S
C325 H352 0.930 . S
C326 C324 1.380 . S
C326 C325 1.384 . S
C326 H353 0.931 . S
C327 C324 1.374 . S
C327 C328 1.390 . S
C327 H354 0.930 . S
C328 C327 1.390 . S
C328 C329 1.391 . S
C328 H355 0.930 . S
C329 C325 1.387 . S
C329 C328 1.391 . S
C330 Tb320 2.825 . S
C330 C324 1.507 . S
C330 O343 1.238 . S
C330 O344 1.247 . S
O331 Tb320 2.347 . S
O331 C335 1.259 . S
O332 Eu321 2.418 . S
O332 C335 1.265 . S
O333 Eu321 2.384 . S
O333 C342 1.255 . S
O334 Tb320 2.366 . S
O334 C342 1.265 . S
C335 O331 1.259 . S
C335 O332 1.265 . S
O336 Eu321 2.479 . S
O336 C351 1.238 . S
O337 Eu321 2.471 . S
O337 C351 1.247 . S
O338 Eu321 2.347 . S
O338 C322 1.259 . S
O339 Tb320 2.418 . S
O339 C322 1.265 . S
O340 Tb320 2.384 . S
O340 C323 1.255 . S
O341 Eu321 2.366 . S
O341 C323 1.265 . S
C342 O333 1.255 . S
C342 O334 1.265 . S
O343 Tb320 2.479 . S
O343 C330 1.238 . S
O344 Tb320 2.471 . S
O344 C330 1.247 . S
C345 C348 1.380 . S
C345 C349 1.374 . S
C345 C351 1.507 . S
C346 C347 1.387 . S
C346 C350 1.391 . S
C347 C346 1.387 . S
C347 C348 1.384 1_554 S
C347 H356 0.930 . S
C348 C345 1.380 . S
C348 C347 1.384 1_556 S
C348 H357 0.931 . S
C349 C345 1.374 . S
C349 C350 1.390 1_556 S
C349 H358 0.930 . S
C350 C346 1.391 . S
C350 C349 1.390 1_554 S
C350 H359 0.930 . S
C351 Eu321 2.825 . S
C351 O336 1.238 . S
C351 O337 1.247 . S
C351 C345 1.507 . S
H352 C325 0.930 . S
H353 C326 0.931 . S
H354 C327 0.930 . S
H355 C328 0.930 . S
H356 C347 0.930 . S
H357 C348 0.931 . S
H358 C349 0.930 . S
H359 C350 0.930 . S
C360 C361 1.349 . S
C360 C362 1.327 . S
C360 H385 0.950 . S
C361 C360 1.349 . S
C361 C377 1.349 . S
C362 C360 1.327 . S
C362 C381 1.429 . S
C362 H386 0.950 . S
C363 C380 1.574 . S
C363 C382 1.368 . S
C363 H387 0.949 . S
H364 C368 0.949 . S
C365 C366 1.349 . S
C365 C367 1.327 . S
C365 H388 0.950 . S
C366 C365 1.349 . S
C366 C378 1.349 . S
C367 C365 1.327 . S
C367 C383 1.429 . S
C367 H389 0.950 . S
C368 H364 0.949 . S
C368 C376 1.574 . S
C368 C384 1.368 . S
H369 C377 0.950 . S
H370 C375 0.950 . S
H371 C376 0.949 . S
H372 C378 0.950 . S
H373 C379 0.950 . S
H374 C380 0.949 . S
C375 H370 0.950 . S
C375 C377 1.327 . S
C375 C381 1.429 . S
C376 C368 1.574 . S
C376 H371 0.949 . S
C376 C382 1.368 . S
C377 C361 1.349 . S
C377 H369 0.950 . S
C377 C375 1.327 . S
C378 C366 1.349 . S
C378 H372 0.950 . S
C378 C379 1.327 . S
C379 H373 0.950 . S
C379 C378 1.327 . S
C379 C383 1.429 . S
C380 C363 1.574 . S
C380 H374 0.949 . S
C380 C384 1.368 . S
C381 C362 1.429 . S
C381 C375 1.429 . S
C381 C382 1.523 . S
C382 C363 1.368 . S
C382 C376 1.368 . S
C382 C381 1.523 . S
C383 C367 1.429 . S
C383 C379 1.429 . S
C383 C384 1.523 . S
C384 C368 1.368 . S
C384 C380 1.368 . S
C384 C383 1.523 . S
H385 C360 0.950 . S
H386 C362 0.950 . S
H387 C363 0.949 . S
H388 C365 0.950 . S
H389 C367 0.950 . S
C390 C391 1.349 . S
C390 C392 1.327 . S
C390 H415 0.950 . S
C391 C390 1.349 . S
C391 C407 1.349 . S
C392 C390 1.327 . S
C392 C411 1.429 . S
C392 H416 0.950 . S
C393 C410 1.574 . S
C393 C412 1.368 . S
C393 H417 0.949 . S
H394 C398 0.949 . S
C395 C396 1.349 . S
C395 C397 1.327 . S
C395 H418 0.950 . S
C396 C395 1.349 . S
C396 C408 1.349 . S
C397 C395 1.327 . S
C397 C413 1.429 . S
C397 H419 0.950 . S
C398 H394 0.949 . S
C398 C406 1.574 . S
C398 C414 1.368 . S
H399 C407 0.950 . S
H400 C405 0.950 . S
H401 C406 0.949 . S
H402 C408 0.950 . S
H403 C409 0.950 . S
H404 C410 0.949 . S
C405 H400 0.950 . S
C405 C407 1.327 . S
C405 C411 1.429 . S
C406 C398 1.574 . S
C406 H401 0.949 . S
C406 C412 1.368 . S
C407 C391 1.349 . S
C407 H399 0.950 . S
C407 C405 1.327 . S
C408 C396 1.349 . S
C408 H402 0.950 . S
C408 C409 1.327 . S
C409 H403 0.950 . S
C409 C408 1.327 . S
C409 C413 1.429 . S
C410 C393 1.574 . S
C410 H404 0.949 . S
C410 C414 1.368 . S
C411 C392 1.429 . S
C411 C405 1.429 . S
C411 C412 1.523 . S
C412 C393 1.368 . S
C412 C406 1.368 . S
C412 C411 1.523 . S
C413 C397 1.429 . S
C413 C409 1.429 . S
C413 C414 1.523 . S
C414 C398 1.368 . S
C414 C410 1.368 . S
C414 C413 1.523 . S
H415 C390 0.950 . S
H416 C392 0.950 . S
H417 C393 0.949 . S
H418 C395 0.950 . S
H419 C397 0.950 . S
C420 C421 1.349 . S
C420 C422 1.327 . S
C420 H445 0.950 . S
C421 C420 1.349 . S
C421 C437 1.349 . S
C422 C420 1.327 . S
C422 C441 1.429 . S
C422 H446 0.950 . S
C423 C440 1.574 . S
C423 C442 1.368 . S
C423 H447 0.949 . S
H424 C428 0.949 . S
C425 C426 1.349 . S
C425 C427 1.327 . S
C425 H448 0.950 . S
C426 C425 1.349 . S
C426 C438 1.349 . S
C427 C425 1.327 . S
C427 C443 1.429 . S
C427 H449 0.950 . S
C428 H424 0.949 . S
C428 C436 1.574 . S
C428 C444 1.368 . S
H429 C437 0.950 . S
H430 C435 0.950 . S
H431 C436 0.949 . S
H432 C438 0.950 . S
H433 C439 0.950 . S
H434 C440 0.949 . S
C435 H430 0.950 . S
C435 C437 1.327 . S
C435 C441 1.429 . S
C436 C428 1.574 . S
C436 H431 0.949 . S
C436 C442 1.368 . S
C437 C421 1.349 . S
C437 H429 0.950 . S
C437 C435 1.327 . S
C438 C426 1.349 . S
C438 H432 0.950 . S
C438 C439 1.327 . S
C439 H433 0.950 . S
C439 C438 1.327 . S
C439 C443 1.429 . S
C440 C423 1.574 . S
C440 H434 0.949 . S
C440 C444 1.368 . S
C441 C422 1.429 . S
C441 C435 1.429 . S
C441 C442 1.523 . S
C442 C423 1.368 . S
C442 C436 1.368 . S
C442 C441 1.523 . S
C443 C427 1.429 . S
C443 C439 1.429 . S
C443 C444 1.523 . S
C444 C428 1.368 . S
C444 C440 1.368 . S
C444 C443 1.523 . S
H445 C420 0.950 . S
H446 C422 0.950 . S
H447 C423 0.949 . S
H448 C425 0.950 . S
H449 C427 0.950 . S
C450 C451 1.349 . S
C450 C452 1.327 . S
C450 H475 0.950 . S
C451 C450 1.349 . S
C451 C467 1.349 . S
C452 C450 1.327 . S
C452 C471 1.429 . S
C452 H476 0.950 . S
C453 C470 1.574 . S
C453 C472 1.368 . S
C453 H477 0.949 . S
H454 C458 0.949 . S
C455 C456 1.349 . S
C455 C457 1.327 1_554 S
C455 H478 0.950 . S
C456 C455 1.349 . S
C456 C468 1.349 . S
C457 C455 1.327 1_556 S
C457 C473 1.429 . S
C457 H479 0.950 . S
C458 H454 0.949 . S
C458 C466 1.574 . S
C458 C474 1.368 . S
H459 C467 0.950 . S
H460 C465 0.950 . S
H461 C466 0.949 . S
H462 C468 0.950 . S
H463 C469 0.950 . S
H464 C470 0.949 . S
C465 H460 0.950 . S
C465 C467 1.327 . S
C465 C471 1.429 . S
C466 C458 1.574 . S
C466 H461 0.949 . S
C466 C472 1.368 . S
C467 C451 1.349 . S
C467 H459 0.950 . S
C467 C465 1.327 . S
C468 C456 1.349 . S
C468 H462 0.950 . S
C468 C469 1.327 1_554 S
C469 H463 0.950 . S
C469 C468 1.327 1_556 S
C469 C473 1.429 . S
C470 C453 1.574 . S
C470 H464 0.949 . S
C470 C474 1.368 . S
C471 C452 1.429 . S
C471 C465 1.429 . S
C471 C472 1.523 . S
C472 C453 1.368 . S
C472 C466 1.368 . S
C472 C471 1.523 . S
C473 C457 1.429 . S
C473 C469 1.429 . S
C473 C474 1.523 . S
C474 C458 1.368 . S
C474 C470 1.368 . S
C474 C473 1.523 . S
H475 C450 0.950 . S
H476 C452 0.950 . S
H477 C453 0.949 . S
H478 C455 0.950 . S
H479 C457 0.950 . S
C480 C481 1.349 . S
C480 C482 1.327 . S
C480 H505 0.950 . S
C481 C480 1.349 . S
C481 C497 1.349 . S
C482 C480 1.327 . S
C482 C501 1.429 . S
C482 H506 0.950 . S
C483 C500 1.574 . S
C483 C502 1.368 . S
C483 H507 0.949 . S
H484 C488 0.949 . S
C485 C486 1.349 1_556 S
C485 C487 1.327 . S
C485 H508 0.950 . S
C486 C485 1.349 1_554 S
C486 C498 1.349 1_554 S
C487 C485 1.327 . S
C487 C503 1.429 . S
C487 H509 0.950 . S
C488 H484 0.949 . S
C488 C496 1.574 . S
C488 C504 1.368 . S
H489 C497 0.950 . S
H490 C495 0.950 . S
H491 C496 0.949 . S
H492 C498 0.950 . S
H493 C499 0.950 . S
H494 C500 0.949 . S
C495 H490 0.950 . S
C495 C497 1.327 . S
C495 C501 1.429 . S
C496 C488 1.574 . S
C496 H491 0.949 . S
C496 C502 1.368 . S
C497 C481 1.349 . S
C497 H489 0.950 . S
C497 C495 1.327 . S
C498 C486 1.349 1_556 S
C498 H492 0.950 . S
C498 C499 1.327 . S
C499 H493 0.950 . S
C499 C498 1.327 . S
C499 C503 1.429 . S
C500 C483 1.574 . S
C500 H494 0.949 . S
C500 C504 1.368 . S
C501 C482 1.429 . S
C501 C495 1.429 . S
C501 C502 1.523 . S
C502 C483 1.368 . S
C502 C496 1.368 . S
C502 C501 1.523 . S
C503 C487 1.429 . S
C503 C499 1.429 . S
C503 C504 1.523 . S
C504 C488 1.368 . S
C504 C500 1.368 . S
C504 C503 1.523 . S
H505 C480 0.950 . S
H506 C482 0.950 . S
H507 C483 0.949 . S
H508 C485 0.950 . S
H509 C487 0.950 . S
C510 C511 1.349 . S
C510 C512 1.327 . S
C510 H535 0.950 . S
C511 C510 1.349 . S
C511 C527 1.349 . S
C512 C510 1.327 . S
C512 C531 1.429 . S
C512 H536 0.950 . S
C513 C530 1.574 . S
C513 C532 1.368 . S
C513 H537 0.949 . S
H514 C518 0.949 . S
C515 C516 1.349 . S
C515 C517 1.327 . S
C515 H538 0.950 . S
C516 C515 1.349 . S
C516 C528 1.349 . S
C517 C515 1.327 . S
C517 C533 1.429 . S
C517 H539 0.950 . S
C518 H514 0.949 . S
C518 C526 1.574 . S
C518 C534 1.368 . S
H519 C527 0.950 . S
H520 C525 0.950 . S
H521 C526 0.949 . S
H522 C528 0.950 . S
H523 C529 0.950 . S
H524 C530 0.949 . S
C525 H520 0.950 . S
C525 C527 1.327 . S
C525 C531 1.429 . S
C526 C518 1.574 . S
C526 H521 0.949 . S
C526 C532 1.368 . S
C527 C511 1.349 . S
C527 H519 0.950 . S
C527 C525 1.327 . S
C528 C516 1.349 . S
C528 H522 0.950 . S
C528 C529 1.327 . S
C529 H523 0.950 . S
C529 C528 1.327 . S
C529 C533 1.429 . S
C530 C513 1.574 . S
C530 H524 0.949 . S
C530 C534 1.368 . S
C531 C512 1.429 . S
C531 C525 1.429 . S
C531 C532 1.523 . S
C532 C513 1.368 . S
C532 C526 1.368 . S
C532 C531 1.523 . S
C533 C517 1.429 . S
C533 C529 1.429 . S
C533 C534 1.523 . S
C534 C518 1.368 . S
C534 C530 1.368 . S
C534 C533 1.523 . S
H535 C510 0.950 . S
H536 C512 0.950 . S
H537 C513 0.949 . S
H538 C515 0.950 . S
H539 C517 0.950 . S
C540 C541 1.349 . S
C540 C542 1.327 . S
C540 H565 0.950 . S
C541 C540 1.349 . S
C541 C557 1.349 . S
C542 C540 1.327 . S
C542 C561 1.429 . S
C542 H566 0.950 . S
C543 C560 1.574 . S
C543 C562 1.368 . S
C543 H567 0.949 . S
H544 C548 0.949 . S
C545 C546 1.349 1_554 S
C545 C547 1.327 . S
C545 H568 0.950 1_554 S
C546 C545 1.349 1_556 S
C546 C558 1.349 . S
C547 C545 1.327 . S
C547 C563 1.429 . S
C547 H569 0.950 . S
C548 H544 0.949 . S
C548 C556 1.574 . S
C548 C564 1.368 . S
H549 C557 0.950 . S
H550 C555 0.950 . S
H551 C556 0.949 . S
H552 C558 0.950 . S
H553 C559 0.950 . S
H554 C560 0.949 . S
C555 H550 0.950 . S
C555 C557 1.327 . S
C555 C561 1.429 . S
C556 C548 1.574 . S
C556 H551 0.949 . S
C556 C562 1.368 . S
C557 C541 1.349 . S
C557 H549 0.950 . S
C557 C555 1.327 . S
C558 C546 1.349 . S
C558 H552 0.950 . S
C558 C559 1.327 1_556 S
C559 H553 0.950 . S
C559 C558 1.327 1_554 S
C559 C563 1.429 . S
C560 C543 1.574 . S
C560 H554 0.949 . S
C560 C564 1.368 . S
C561 C542 1.429 . S
C561 C555 1.429 . S
C561 C562 1.523 . S
C562 C543 1.368 . S
C562 C556 1.368 . S
C562 C561 1.523 . S
C563 C547 1.429 . S
C563 C559 1.429 . S
C563 C564 1.523 . S
C564 C548 1.368 . S
C564 C560 1.368 . S
C564 C563 1.523 . S
H565 C540 0.950 . S
H566 C542 0.950 . S
H567 C543 0.949 . S
H568 C545 0.950 1_556 S
H569 C547 0.950 . S
C570 C571 1.349 . S
C570 C572 1.327 . S
C570 H595 0.950 . S
C571 C570 1.349 . S
C571 C587 1.349 . S
C572 C570 1.327 . S
C572 C591 1.429 . S
C572 H596 0.950 . S
C573 C590 1.574 . S
C573 C592 1.368 . S
C573 H597 0.949 . S
H574 C578 0.949 . S
C575 C576 1.349 . S
C575 C577 1.327 1_556 S
C575 H598 0.950 . S
C576 C575 1.349 . S
C576 C588 1.349 . S
C577 C575 1.327 1_554 S
C577 C593 1.429 . S
C577 H599 0.950 . S
C578 H574 0.949 . S
C578 C586 1.574 . S
C578 C594 1.368 . S
H579 C587 0.950 . S
H580 C585 0.950 . S
H581 C586 0.949 . S
H582 C588 0.950 . S
H583 C589 0.950 . S
H584 C590 0.949 . S
C585 H580 0.950 . S
C585 C587 1.327 . S
C585 C591 1.429 . S
C586 C578 1.574 . S
C586 H581 0.949 . S
C586 C592 1.368 . S
C587 C571 1.349 . S
C587 H579 0.950 . S
C587 C585 1.327 . S
C588 C576 1.349 . S
C588 H582 0.950 . S
C588 C589 1.327 1_556 S
C589 H583 0.950 . S
C589 C588 1.327 1_554 S
C589 C593 1.429 . S
C590 C573 1.574 . S
C590 H584 0.949 . S
C590 C594 1.368 . S
C591 C572 1.429 . S
C591 C585 1.429 . S
C591 C592 1.523 . S
C592 C573 1.368 . S
C592 C586 1.368 . S
C592 C591 1.523 . S
C593 C577 1.429 . S
C593 C589 1.429 . S
C593 C594 1.523 . S
C594 C578 1.368 . S
C594 C590 1.368 . S
C594 C593 1.523 . S
H595 C570 0.950 . S
H596 C572 0.950 . S
H597 C573 0.949 . S
H598 C575 0.950 . S
H599 C577 0.950 . S
C600 C601 1.349 . S
C600 C602 1.327 . S
C600 H625 0.950 . S
C601 C600 1.349 . S
C601 C617 1.349 . S
C602 C600 1.327 . S
C602 C621 1.429 . S
C602 H626 0.950 . S
C603 C620 1.574 . S
C603 C622 1.368 . S
C603 H627 0.949 . S
H604 C608 0.949 . S
C605 C606 1.349 . S
C605 C607 1.327 1_556 S
C605 H628 0.950 . S
C606 C605 1.349 . S
C606 C618 1.349 1_556 S
C607 C605 1.327 1_554 S
C607 C623 1.429 . S
C607 H629 0.950 . S
C608 H604 0.949 . S
C608 C616 1.574 . S
C608 C624 1.368 . S
H609 C617 0.950 . S
H610 C615 0.950 . S
H611 C616 0.949 . S
H612 C618 0.950 . S
H613 C619 0.950 . S
H614 C620 0.949 . S
C615 H610 0.950 . S
C615 C617 1.327 . S
C615 C621 1.429 . S
C616 C608 1.574 . S
C616 H611 0.949 . S
C616 C622 1.368 . S
C617 C601 1.349 . S
C617 H609 0.950 . S
C617 C615 1.327 . S
C618 C606 1.349 1_554 S
C618 H612 0.950 . S
C618 C619 1.327 . S
C619 H613 0.950 . S
C619 C618 1.327 . S
C619 C623 1.429 . S
C620 C603 1.574 . S
C620 H614 0.949 . S
C620 C624 1.368 . S
C621 C602 1.429 . S
C621 C615 1.429 . S
C621 C622 1.523 . S
C622 C603 1.368 . S
C622 C616 1.368 . S
C622 C621 1.523 . S
C623 C607 1.429 . S
C623 C619 1.429 . S
C623 C624 1.523 . S
C624 C608 1.368 . S
C624 C620 1.368 . S
C624 C623 1.523 . S
H625 C600 0.950 . S
H626 C602 0.950 . S
H627 C603 0.949 . S
H628 C605 0.950 . S
H629 C607 0.950 . S
C630 C631 1.349 . S
C630 C632 1.327 . S
C630 H655 0.950 . S
C631 C630 1.349 . S
C631 C647 1.349 . S
C632 C630 1.327 . S
C632 C651 1.429 . S
C632 H656 0.950 . S
C633 C650 1.574 . S
C633 C652 1.368 . S
C633 H657 0.949 . S
H634 C638 0.949 . S
C635 C636 1.349 . S
C635 C637 1.327 . S
C635 H658 0.950 . S
C636 C635 1.349 . S
C636 C648 1.349 . S
C637 C635 1.327 . S
C637 C653 1.429 . S
C637 H659 0.950 . S
C638 H634 0.949 . S
C638 C646 1.574 . S
C638 C654 1.368 . S
H639 C647 0.950 . S
H640 C645 0.950 . S
H641 C646 0.949 . S
H642 C648 0.950 . S
H643 C649 0.950 . S
H644 C650 0.949 . S
C645 H640 0.950 . S
C645 C647 1.327 . S
C645 C651 1.429 . S
C646 C638 1.574 . S
C646 H641 0.949 . S
C646 C652 1.368 . S
C647 C631 1.349 . S
C647 H639 0.950 . S
C647 C645 1.327 . S
C648 C636 1.349 . S
C648 H642 0.950 . S
C648 C649 1.327 . S
C649 H643 0.950 . S
C649 C648 1.327 . S
C649 C653 1.429 . S
C650 C633 1.574 . S
C650 H644 0.949 . S
C650 C654 1.368 . S
C651 C632 1.429 . S
C651 C645 1.429 . S
C651 C652 1.523 . S
C652 C633 1.368 . S
C652 C646 1.368 . S
C652 C651 1.523 . S
C653 C637 1.429 . S
C653 C649 1.429 . S
C653 C654 1.523 . S
C654 C638 1.368 . S
C654 C650 1.368 . S
C654 C653 1.523 . S
H655 C630 0.950 . S
H656 C632 0.950 . S
H657 C633 0.949 . S
H658 C635 0.950 . S
H659 C637 0.950 . S
C660 C661 1.349 . S
C660 C662 1.327 . S
C660 H685 0.950 . S
C661 C660 1.349 . S
C661 C677 1.349 . S
C662 C660 1.327 . S
C662 C681 1.429 . S
C662 H686 0.950 . S
C663 C680 1.574 . S
C663 C682 1.368 . S
C663 H687 0.949 . S
H664 C668 0.949 . S
C665 C666 1.349 . S
C665 C667 1.327 . S
C665 H688 0.950 . S
C666 C665 1.349 . S
C666 C678 1.349 . S
C667 C665 1.327 . S
C667 C683 1.429 . S
C667 H689 0.950 . S
C668 H664 0.949 . S
C668 C676 1.574 . S
C668 C684 1.368 . S
H669 C677 0.950 . S
H670 C675 0.950 . S
H671 C676 0.949 . S
H672 C678 0.950 . S
H673 C679 0.950 . S
H674 C680 0.949 . S
C675 H670 0.950 . S
C675 C677 1.327 . S
C675 C681 1.429 . S
C676 C668 1.574 . S
C676 H671 0.949 . S
C676 C682 1.368 . S
C677 C661 1.349 . S
C677 H669 0.950 . S
C677 C675 1.327 . S
C678 C666 1.349 . S
C678 H672 0.950 . S
C678 C679 1.327 . S
C679 H673 0.950 . S
C679 C678 1.327 . S
C679 C683 1.429 . S
C680 C663 1.574 . S
C680 H674 0.949 . S
C680 C684 1.368 . S
C681 C662 1.429 . S
C681 C675 1.429 . S
C681 C682 1.523 . S
C682 C663 1.368 . S
C682 C676 1.368 . S
C682 C681 1.523 . S
C683 C667 1.429 . S
C683 C679 1.429 . S
C683 C684 1.523 . S
C684 C668 1.368 . S
C684 C680 1.368 . S
C684 C683 1.523 . S
H685 C660 0.950 . S
H686 C662 0.950 . S
H687 C663 0.949 . S
H688 C665 0.950 . S
H689 C667 0.950 . S
C690 C691 1.349 . S
C690 C692 1.327 1_545 S
C690 H715 0.950 . S
C691 C690 1.349 . S
C691 C707 1.349 . S
C692 C690 1.327 1_565 S
C692 C711 1.429 . S
C692 H716 0.950 . S
C693 C710 1.574 . S
C693 C712 1.368 . S
C693 H717 0.949 . S
H694 C698 0.949 . S
C695 C696 1.349 . S
C695 C697 1.327 . S
C695 H718 0.950 . S
C696 C695 1.349 . S
C696 C708 1.349 . S
C697 C695 1.327 . S
C697 C713 1.429 . S
C697 H719 0.950 . S
C698 H694 0.949 . S
C698 C706 1.574 . S
C698 C714 1.368 . S
H699 C707 0.950 . S
H700 C705 0.950 . S
H701 C706 0.949 . S
H702 C708 0.950 . S
H703 C709 0.950 . S
H704 C710 0.949 . S
C705 H700 0.950 . S
C705 C707 1.327 . S
C705 C711 1.429 1_545 S
C706 C698 1.574 . S
C706 H701 0.949 . S
C706 C712 1.368 . S
C707 C691 1.349 . S
C707 H699 0.950 . S
C707 C705 1.327 . S
C708 C696 1.349 . S
C708 H702 0.950 . S
C708 C709 1.327 . S
C709 H703 0.950 . S
C709 C708 1.327 . S
C709 C713 1.429 . S
C710 C693 1.574 . S
C710 H704 0.949 . S
C710 C714 1.368 . S
C711 C692 1.429 . S
C711 C705 1.429 1_565 S
C711 C712 1.523 . S
C712 C693 1.368 . S
C712 C706 1.368 . S
C712 C711 1.523 . S
C713 C697 1.429 . S
C713 C709 1.429 . S
C713 C714 1.523 . S
C714 C698 1.368 . S
C714 C710 1.368 . S
C714 C713 1.523 . S
H715 C690 0.950 . S
H716 C692 0.950 . S
H717 C693 0.949 . S
H718 C695 0.950 . S
H719 C697 0.950 . S
C720 C721 1.349 . S
C720 C722 1.327 . S
C720 H745 0.950 . S
C721 C720 1.349 . S
C721 C737 1.349 . S
C722 C720 1.327 . S
C722 C741 1.429 . S
C722 H746 0.950 . S
C723 C740 1.574 . S
C723 C742 1.368 . S
C723 H747 0.949 . S
H724 C728 0.949 . S
C725 C726 1.349 . S
C725 C727 1.327 . S
C725 H748 0.950 . S
C726 C725 1.349 . S
C726 C738 1.349 . S
C727 C725 1.327 . S
C727 C743 1.429 . S
C727 H749 0.950 . S
C728 H724 0.949 . S
C728 C736 1.574 . S
C728 C744 1.368 . S
H729 C737 0.950 . S
H730 C735 0.950 . S
H731 C736 0.949 . S
H732 C738 0.950 . S
H733 C739 0.950 . S
H734 C740 0.949 . S
C735 H730 0.950 . S
C735 C737 1.327 . S
C735 C741 1.429 . S
C736 C728 1.574 . S
C736 H731 0.949 . S
C736 C742 1.368 . S
C737 C721 1.349 . S
C737 H729 0.950 . S
C737 C735 1.327 . S
C738 C726 1.349 . S
C738 H732 0.950 . S
C738 C739 1.327 . S
C739 H733 0.950 . S
C739 C738 1.327 . S
C739 C743 1.429 . S
C740 C723 1.574 . S
C740 H734 0.949 . S
C740 C744 1.368 . S
C741 C722 1.429 . S
C741 C735 1.429 . S
C741 C742 1.523 1_554 S
C742 C723 1.368 . S
C742 C736 1.368 . S
C742 C741 1.523 1_556 S
C743 C727 1.429 . S
C743 C739 1.429 . S
C743 C744 1.523 . S
C744 C728 1.368 . S
C744 C740 1.368 . S
C744 C743 1.523 . S
H745 C720 0.950 . S
H746 C722 0.950 . S
H747 C723 0.949 . S
H748 C725 0.950 . S
H749 C727 0.950 . S
C750 C751 1.349 . S
C750 C752 1.327 . S
C750 H775 0.950 . S
C751 C750 1.349 . S
C751 C767 1.349 . S
C752 C750 1.327 . S
C752 C771 1.429 . S
C752 H776 0.950 . S
C753 C770 1.574 . S
C753 C772 1.368 . S
C753 H777 0.949 . S
H754 C758 0.949 . S
C755 C756 1.349 . S
C755 C757 1.327 1_454 S
C755 H778 0.950 . S
C756 C755 1.349 . S
C756 C768 1.349 1_454 S
C757 C755 1.327 1_656 S
C757 C773 1.429 . S
C757 H779 0.978 1_556 S
C758 H754 0.949 . S
C758 C766 1.574 . S
C758 C774 1.368 . S
H759 C767 0.950 . S
H760 C765 0.950 . S
H761 C766 0.949 . S
H762 C768 0.950 . S
H763 C769 0.950 . S
H764 C770 0.949 . S
C765 H760 0.950 . S
C765 C767 1.327 . S
C765 C771 1.429 . S
C766 C758 1.574 . S
C766 H761 0.949 . S
C766 C772 1.368 . S
C767 C751 1.349 . S
C767 H759 0.950 . S
C767 C765 1.327 . S
C768 C756 1.349 1_656 S
C768 H762 0.950 . S
C768 C769 1.327 . S
C769 H763 0.950 . S
C769 C768 1.327 . S
C769 C773 1.429 . S
C770 C753 1.574 . S
C770 H764 0.949 . S
C770 C774 1.368 . S
C771 C752 1.429 . S
C771 C765 1.429 . S
C771 C772 1.523 . S
C772 C753 1.368 . S
C772 C766 1.368 . S
C772 C771 1.523 . S
C773 C757 1.429 . S
C773 C769 1.429 . S
C773 C774 1.523 . S
C774 C758 1.368 . S
C774 C770 1.368 . S
C774 C773 1.523 . S
H775 C750 0.950 . S
H776 C752 0.950 . S
H777 C753 0.949 . S
H778 C755 0.950 . S
H779 C757 0.978 1_554 S
C780 C781 1.349 . S
C780 C782 1.327 . S
C780 H805 0.950 . S
C781 C780 1.349 . S
C781 C797 1.349 . S
C782 C780 1.327 . S
C782 C801 1.429 . S
C782 H806 0.950 . S
C783 C800 1.574 . S
C783 C802 1.368 . S
C783 H807 0.949 . S
H784 C788 0.949 . S
C785 C786 1.349 . S
C785 C787 1.327 1_554 S
C785 H808 0.950 . S
C786 C785 1.349 . S
C786 C798 1.349 . S
C787 C785 1.327 1_556 S
C787 C803 1.429 . S
C787 H809 0.950 . S
C788 H784 0.949 . S
C788 C796 1.574 . S
C788 C804 1.368 . S
H789 C797 0.950 . S
H790 C795 0.950 . S
H791 C796 0.949 . S
H792 C798 0.950 . S
H793 C799 0.950 . S
H794 C800 0.949 . S
C795 H790 0.950 . S
C795 C797 1.327 . S
C795 C801 1.429 . S
C796 C788 1.574 . S
C796 H791 0.949 . S
C796 C802 1.368 . S
C797 C781 1.349 . S
C797 H789 0.950 . S
C797 C795 1.327 . S
C798 C786 1.349 . S
C798 H792 0.950 . S
C798 C799 1.327 . S
C799 H793 0.950 . S
C799 C798 1.327 . S
C799 C803 1.429 1_554 S
C800 C783 1.574 . S
C800 H794 0.949 . S
C800 C804 1.368 . S
C801 C782 1.429 . S
C801 C795 1.429 . S
C801 C802 1.523 . S
C802 C783 1.368 . S
C802 C796 1.368 . S
C802 C801 1.523 . S
C803 C787 1.429 . S
C803 C799 1.429 1_556 S
C803 C804 1.523 . S
C804 C788 1.368 . S
C804 C800 1.368 . S
C804 C803 1.523 . S
H805 C780 0.950 . S
H806 C782 0.950 . S
H807 C783 0.949 . S
H808 C785 0.950 . S
H809 C787 0.950 . S
C810 C811 1.349 . S
C810 C812 1.327 . S
C810 H835 0.950 . S
C811 C810 1.349 . S
C811 C827 1.349 . S
C812 C810 1.327 . S
C812 C831 1.429 . S
C812 H836 0.950 . S
C813 C830 1.574 . S
C813 C832 1.368 . S
C813 H837 0.949 . S
H814 C818 0.949 . S
C815 C816 1.349 . S
C815 C817 1.327 . S
C815 H838 0.950 . S
C816 C815 1.349 . S
C816 C828 1.349 1_556 S
C817 C815 1.327 . S
C817 C833 1.429 . S
C817 H839 0.950 . S
C818 H814 0.949 . S
C818 C826 1.574 . S
C818 C834 1.368 . S
H819 C827 0.950 . S
H820 C825 0.950 . S
H821 C826 0.949 . S
H822 C828 0.950 . S
H823 C829 0.950 1_554 S
H824 C830 0.949 . S
C825 H820 0.950 . S
C825 C827 1.327 . S
C825 C831 1.429 . S
C826 C818 1.574 . S
C826 H821 0.949 . S
C826 C832 1.368 . S
C827 C811 1.349 . S
C827 H819 0.950 . S
C827 C825 1.327 . S
C828 C816 1.349 1_554 S
C828 H822 0.950 . S
C828 C829 1.327 1_554 S
C829 H823 0.950 1_556 S
C829 C828 1.327 1_556 S
C829 C833 1.429 . S
C830 C813 1.574 . S
C830 H824 0.949 . S
C830 C834 1.368 . S
C831 C812 1.429 . S
C831 C825 1.429 . S
C831 C832 1.523 . S
C832 C813 1.368 . S
C832 C826 1.368 . S
C832 C831 1.523 . S
C833 C817 1.429 . S
C833 C829 1.429 . S
C833 C834 1.523 . S
C834 C818 1.368 . S
C834 C830 1.368 . S
C834 C833 1.523 . S
H835 C810 0.950 . S
H836 C812 0.950 . S
H837 C813 0.949 . S
H838 C815 0.950 . S
H839 C817 0.950 . S
C840 C841 1.349 1_556 S
C840 C842 1.327 . S
C840 H865 0.950 . S
C841 C840 1.349 1_554 S
C841 C857 1.349 . S
C842 C840 1.327 . S
C842 C861 1.429 . S
C842 H866 0.950 . S
C843 C860 1.574 . S
C843 C862 1.368 . S
C843 H867 0.949 1_556 S
H844 C848 0.949 . S
C845 C846 1.349 . S
C845 C847 1.327 . S
C845 H868 0.950 . S
C846 C845 1.349 . S
C846 C858 1.349 . S
C847 C845 1.327 . S
C847 C863 1.429 . S
C847 H869 0.950 . S
C848 H844 0.949 . S
C848 C856 1.574 . S
C848 C864 1.368 . S
H849 C857 0.950 . S
H850 C855 0.950 . S
H851 C856 0.949 . S
H852 C858 0.950 . S
H853 C859 0.950 . S
H854 C860 0.949 . S
C855 H850 0.950 . S
C855 C857 1.327 . S
C855 C861 1.429 1_554 S
C856 C848 1.574 . S
C856 H851 0.949 . S
C856 C862 1.368 . S
C857 C841 1.349 . S
C857 H849 0.950 . S
C857 C855 1.327 . S
C858 C846 1.349 . S
C858 H852 0.950 . S
C858 C859 1.327 . S
C859 H853 0.950 . S
C859 C858 1.327 . S
C859 C863 1.429 . S
C860 C843 1.574 . S
C860 H854 0.949 . S
C860 C864 1.368 . S
C861 C842 1.429 . S
C861 C855 1.429 1_556 S
C861 C862 1.523 . S
C862 C843 1.368 . S
C862 C856 1.368 . S
C862 C861 1.523 . S
C863 C847 1.429 . S
C863 C859 1.429 . S
C863 C864 1.523 . S
C864 C848 1.368 . S
C864 C860 1.368 . S
C864 C863 1.523 . S
H865 C840 0.950 . S
H866 C842 0.950 . S
H867 C843 0.949 1_554 S
H868 C845 0.950 . S
H869 C847 0.950 . S
C870 C871 1.349 . S
C870 C872 1.327 . S
C870 H895 0.950 . S
C871 C870 1.349 . S
C871 C887 1.349 . S
C872 C870 1.327 . S
C872 C891 1.429 . S
C872 H896 0.950 . S
C873 C890 1.574 . S
C873 C892 1.368 . S
C873 H897 0.949 . S
H874 C878 0.949 1_554 S
C875 C876 1.349 . S
C875 C877 1.327 1_554 S
C875 H898 0.950 . S
C876 C875 1.349 . S
C876 C888 1.349 . S
C877 C875 1.327 1_556 S
C877 C893 1.429 1_556 S
C877 H899 0.950 . S
C878 H874 0.949 1_556 S
C878 C886 1.574 . S
C878 C894 1.368 . S
H879 C887 0.950 . S
H880 C885 0.950 . S
H881 C886 0.949 . S
H882 C888 0.950 . S
H883 C889 0.950 . S
H884 C890 0.949 . S
C885 H880 0.950 . S
C885 C887 1.327 . S
C885 C891 1.429 . S
C886 C878 1.574 . S
C886 H881 0.949 . S
C886 C892 1.368 . S
C887 C871 1.349 . S
C887 H879 0.950 . S
C887 C885 1.327 . S
C888 C876 1.349 . S
C888 H882 0.950 . S
C888 C889 1.327 . S
C889 H883 0.950 . S
C889 C888 1.327 . S
C889 C893 1.429 . S
C890 C873 1.574 . S
C890 H884 0.949 . S
C890 C894 1.368 . S
C891 C872 1.429 . S
C891 C885 1.429 . S
C891 C892 1.523 . S
C892 C873 1.368 . S
C892 C886 1.368 . S
C892 C891 1.523 . S
C893 C877 1.429 1_554 S
C893 C889 1.429 . S
C893 C894 1.523 1_554 S
C894 C878 1.368 . S
C894 C890 1.368 . S
C894 C893 1.523 1_556 S
H895 C870 0.950 . S
H896 C872 0.950 . S
H897 C873 0.949 . S
H898 C875 0.950 . S
H899 C877 0.950 . S
C900 C901 1.349 . S
C900 C902 1.327 . S
C900 H925 0.950 . S
C901 C900 1.349 . S
C901 C917 1.349 . S
C902 C900 1.327 . S
C902 C921 1.429 . S
C902 H926 0.950 . S
C903 C920 1.574 . S
C903 C922 1.368 . S
C903 H927 0.949 . S
H904 C908 0.949 . S
C905 C906 1.349 . S
C905 C907 1.327 . S
C905 H928 0.950 . S
C906 C905 1.349 . S
C906 C918 1.349 . S
C907 C905 1.327 . S
C907 C923 1.429 . S
C907 H929 0.950 . S
C908 H904 0.949 . S
C908 C916 1.574 1_565 S
C908 C924 1.368 . S
H909 C917 0.950 . S
H910 C915 0.950 . S
H911 C916 0.949 . S
H912 C918 0.950 . S
H913 C919 0.950 . S
H914 C920 0.949 . S
C915 H910 0.950 . S
C915 C917 1.327 . S
C915 C921 1.429 . S
C916 C908 1.574 1_545 S
C916 H911 0.949 . S
C916 C922 1.368 . S
C917 C901 1.349 . S
C917 H909 0.950 . S
C917 C915 1.327 . S
C918 C906 1.349 . S
C918 H912 0.950 . S
C918 C919 1.327 . S
C919 H913 0.950 . S
C919 C918 1.327 . S
C919 C923 1.429 . S
C920 C903 1.574 . S
C920 H914 0.949 . S
C920 C924 1.368 1_545 S
C921 C902 1.429 . S
C921 C915 1.429 . S
C921 C922 1.523 . S
C922 C903 1.368 . S
C922 C916 1.368 . S
C922 C921 1.523 . S
C923 C907 1.429 . S
C923 C919 1.429 . S
C923 C924 1.523 . S
C924 C908 1.368 . S
C924 C920 1.368 1_565 S
C924 C923 1.523 . S
H925 C900 0.950 . S
H926 C902 0.950 . S
H927 C903 0.949 . S
H928 C905 0.950 . S
H929 C907 0.950 . S
C930 C931 1.349 . S
C930 C932 1.327 . S
C930 H955 0.950 . S
C931 C930 1.349 . S
C931 C947 1.349 . S
C932 C930 1.327 . S
C932 C951 1.429 . S
C932 H956 0.950 . S
C933 C950 1.574 . S
C933 C952 1.368 . S
C933 H957 0.949 . S
H934 C938 0.949 . S
C935 C936 1.349 . S
C935 C937 1.327 . S
C935 H958 0.950 . S
C936 C935 1.349 . S
C936 C948 1.349 . S
C937 C935 1.327 . S
C937 C953 1.429 . S
C937 H959 0.950 . S
C938 H934 0.949 . S
C938 C946 1.574 . S
C938 C954 1.368 . S
H939 C947 0.950 . S
H940 C945 0.950 . S
H941 C946 0.949 . S
H942 C948 0.950 . S
H943 C949 0.950 . S
H944 C950 0.949 . S
C945 H940 0.950 . S
C945 C947 1.327 . S
C945 C951 1.429 . S
C946 C938 1.574 . S
C946 H941 0.949 . S
C946 C952 1.368 . S
C947 C931 1.349 . S
C947 H939 0.950 . S
C947 C945 1.327 . S
C948 C936 1.349 . S
C948 H942 0.950 . S
C948 C949 1.327 . S
C949 H943 0.950 . S
C949 C948 1.327 . S
C949 C953 1.429 . S
C950 C933 1.574 . S
C950 H944 0.949 . S
C950 C954 1.368 . S
C951 C932 1.429 . S
C951 C945 1.429 . S
C951 C952 1.523 . S
C952 C933 1.368 . S
C952 C946 1.368 . S
C952 C951 1.523 . S
C953 C937 1.429 . S
C953 C949 1.429 . S
C953 C954 1.523 . S
C954 C938 1.368 . S
C954 C950 1.368 . S
C954 C953 1.523 . S
H955 C930 0.950 . S
H956 C932 0.950 . S
H957 C933 0.949 . S
H958 C935 0.950 . S
H959 C937 0.950 . S
C960 C961 1.349 . S
C960 C962 1.327 . S
C960 H985 0.950 . S
C961 C960 1.349 . S
C961 C977 1.349 . S
C962 C960 1.327 . S
C962 C981 1.429 . S
C962 H986 0.950 . S
C963 C980 1.574 . S
C963 C982 1.368 . S
C963 H987 0.949 . S
H964 C968 0.949 . S
C965 C966 1.349 . S
C965 C967 1.327 . S
C965 H988 0.950 . S
C966 C965 1.349 . S
C966 C978 1.349 . S
C967 C965 1.327 . S
C967 C983 1.429 . S
C967 H989 0.950 . S
C968 H964 0.949 . S
C968 C976 1.574 . S
C968 C984 1.368 . S
H969 C977 0.950 . S
H970 C975 0.950 . S
H971 C976 0.949 . S
H972 C978 0.950 . S
H973 C979 0.950 . S
H974 C980 0.949 . S
C975 H970 0.950 . S
C975 C977 1.327 . S
C975 C981 1.429 . S
C976 C968 1.574 . S
C976 H971 0.949 . S
C976 C982 1.368 . S
C977 C961 1.349 . S
C977 H969 0.950 . S
C977 C975 1.327 . S
C978 C966 1.349 . S
C978 H972 0.950 . S
C978 C979 1.327 . S
C979 H973 0.950 . S
C979 C978 1.327 . S
C979 C983 1.429 . S
C980 C963 1.574 . S
C980 H974 0.949 . S
C980 C984 1.368 . S
C981 C962 1.429 . S
C981 C975 1.429 . S
C981 C982 1.523 . S
C982 C963 1.368 . S
C982 C976 1.368 . S
C982 C981 1.523 . S
C983 C967 1.429 . S
C983 C979 1.429 . S
C983 C984 1.523 . S
C984 C968 1.368 . S
C984 C980 1.368 . S
C984 C983 1.523 . S
H985 C960 0.950 . S
H986 C962 0.950 . S
H987 C963 0.949 . S
H988 C965 0.950 . S
H989 C967 0.950 . S
C990 C991 1.349 . S
C990 C992 1.327 . S
C990 H1015 0.950 . S
C991 C990 1.349 . S
C991 C1007 1.349 . S
C992 C990 1.327 . S
C992 C1011 1.429 . S
C992 H1016 0.950 . S
C993 C1010 1.574 . S
C993 C1012 1.368 . S
C993 H1017 0.949 . S
H994 C998 0.949 . S
C995 C996 1.349 . S
C995 C997 1.327 . S
C995 H1018 0.950 . S
C996 C995 1.349 . S
C996 C1008 1.349 . S
C997 C995 1.327 . S
C997 C1013 1.429 . S
C997 H1019 0.950 . S
C998 H994 0.949 . S
C998 C1006 1.574 . S
C998 C1014 1.368 . S
H999 C1007 0.950 . S
H1000 C1005 0.950 . S
H1001 C1006 0.949 . S
H1002 C1008 0.950 . S
H1003 C1009 0.950 . S
H1004 C1010 0.949 . S
C1005 H1000 0.950 . S
C1005 C1007 1.327 . S
C1005 C1011 1.429 . S
C1006 C998 1.574 . S
C1006 H1001 0.949 . S
C1006 C1012 1.368 . S
C1007 C991 1.349 . S
C1007 H999 0.950 . S
C1007 C1005 1.327 . S
C1008 C996 1.349 . S
C1008 H1002 0.950 . S
C1008 C1009 1.327 . S
C1009 H1003 0.950 . S
C1009 C1008 1.327 . S
C1009 C1013 1.429 . S
C1010 C993 1.574 . S
C1010 H1004 0.949 . S
C1010 C1014 1.368 . S
C1011 C992 1.429 . S
C1011 C1005 1.429 . S
C1011 C1012 1.523 . S
C1012 C993 1.368 . S
C1012 C1006 1.368 . S
C1012 C1011 1.523 . S
C1013 C997 1.429 . S
C1013 C1009 1.429 . S
C1013 C1014 1.523 . S
C1014 C998 1.368 . S
C1014 C1010 1.368 . S
C1014 C1013 1.523 . S
H1015 C990 0.950 . S
H1016 C992 0.950 . S
H1017 C993 0.949 . S
H1018 C995 0.950 . S
H1019 C997 0.950 . S
C1020 C1021 1.349 . S
C1020 C1022 1.327 . S
C1020 H1045 0.950 . S
C1021 C1020 1.349 . S
C1021 C1037 1.349 . S
C1022 C1020 1.327 . S
C1022 C1041 1.429 . S
C1022 H1046 0.950 . S
C1023 C1040 1.574 . S
C1023 C1042 1.368 . S
C1023 H1047 0.949 . S
H1024 C1028 0.949 . S
C1025 C1026 1.349 . S
C1025 C1027 1.327 . S
C1025 H1048 0.950 . S
C1026 C1025 1.349 . S
C1026 C1038 1.349 . S
C1027 C1025 1.327 . S
C1027 C1043 1.429 . S
C1027 H1049 0.950 . S
C1028 H1024 0.949 . S
C1028 C1036 1.574 1_565 S
C1028 C1044 1.368 . S
H1029 C1037 0.950 . S
H1030 C1035 0.950 . S
H1031 C1036 0.949 . S
H1032 C1038 0.950 . S
H1033 C1039 0.950 . S
H1034 C1040 0.949 1_565 S
C1035 H1030 0.950 . S
C1035 C1037 1.327 . S
C1035 C1041 1.429 . S
C1036 C1028 1.574 1_545 S
C1036 H1031 0.949 . S
C1036 C1042 1.368 . S
C1037 C1021 1.349 . S
C1037 H1029 0.950 . S
C1037 C1035 1.327 . S
C1038 C1026 1.349 . S
C1038 H1032 0.950 . S
C1038 C1039 1.327 . S
C1039 H1033 0.950 . S
C1039 C1038 1.327 . S
C1039 C1043 1.429 . S
C1040 C1023 1.574 . S
C1040 H1034 0.949 1_545 S
C1040 C1044 1.368 1_545 S
C1041 C1022 1.429 . S
C1041 C1035 1.429 . S
C1041 C1042 1.523 . S
C1042 C1023 1.368 . S
C1042 C1036 1.368 . S
C1042 C1041 1.523 . S
C1043 C1027 1.429 . S
C1043 C1039 1.429 . S
C1043 C1044 1.523 . S
C1044 C1028 1.368 . S
C1044 C1040 1.368 1_565 S
C1044 C1043 1.523 . S
H1045 C1020 0.950 . S
H1046 C1022 0.950 . S
H1047 C1023 0.949 . S
H1048 C1025 0.950 . S
H1049 C1027 0.950 . S
C1050 C1051 1.349 . S
C1050 C1052 1.327 . S
C1050 H1075 0.950 . S
C1051 C1050 1.349 . S
C1051 C1067 1.349 . S
C1052 C1050 1.327 . S
C1052 C1071 1.429 . S
C1052 H1076 0.950 . S
C1053 C1070 1.574 . S
C1053 C1072 1.368 1_455 S
C1053 H1077 0.949 . S
H1054 C1058 0.949 . S
C1055 C1056 1.349 . S
C1055 C1057 1.327 . S
C1055 H1078 0.950 . S
C1056 C1055 1.349 . S
C1056 C1068 1.349 . S
C1057 C1055 1.327 . S
C1057 C1073 1.429 . S
C1057 H1079 0.950 . S
C1058 H1054 0.949 . S
C1058 C1066 1.574 . S
C1058 C1074 1.368 1_655 S
H1059 C1067 0.950 . S
H1060 C1065 0.950 . S
H1061 C1066 0.949 . S
H1062 C1068 0.950 . S
H1063 C1069 0.950 . S
H1064 C1070 0.949 . S
C1065 H1060 0.950 . S
C1065 C1067 1.327 . S
C1065 C1071 1.429 . S
C1066 C1058 1.574 . S
C1066 H1061 0.949 . S
C1066 C1072 1.368 . S
C1067 C1051 1.349 . S
C1067 H1059 0.950 . S
C1067 C1065 1.327 . S
C1068 C1056 1.349 . S
C1068 H1062 0.950 . S
C1068 C1069 1.327 . S
C1069 H1063 0.950 . S
C1069 C1068 1.327 . S
C1069 C1073 1.429 . S
C1070 C1053 1.574 . S
C1070 H1064 0.949 . S
C1070 C1074 1.368 . S
C1071 C1052 1.429 . S
C1071 C1065 1.429 . S
C1071 C1072 1.523 . S
C1072 C1053 1.368 1_655 S
C1072 C1066 1.368 . S
C1072 C1071 1.523 . S
C1073 C1057 1.429 . S
C1073 C1069 1.429 . S
C1073 C1074 1.523 . S
C1074 C1058 1.368 1_455 S
C1074 C1070 1.368 . S
C1074 C1073 1.523 . S
H1075 C1050 0.950 . S
H1076 C1052 0.950 . S
H1077 C1053 0.949 . S
H1078 C1055 0.950 . S
H1079 C1057 0.950 . S
C1080 C1081 1.349 . S
C1080 C1082 1.327 . S
C1080 H1105 0.950 . S
C1081 C1080 1.349 . S
C1081 C1097 1.349 . S
C1082 C1080 1.327 . S
C1082 C1101 1.429 . S
C1082 H1106 0.950 . S
C1083 C1100 1.574 . S
C1083 C1102 1.368 . S
C1083 H1107 0.949 . S
H1084 C1088 0.949 . S
C1085 C1086 1.349 . S
C1085 C1087 1.327 . S
C1085 H1108 0.950 . S
C1086 C1085 1.349 . S
C1086 C1098 1.349 . S
C1087 C1085 1.327 . S
C1087 C1103 1.429 . S
C1087 H1109 0.950 . S
C1088 H1084 0.949 . S
C1088 C1096 1.574 . S
C1088 C1104 1.368 . S
H1089 C1097 0.950 . S
H1090 C1095 0.950 . S
H1091 C1096 0.949 . S
H1092 C1098 0.950 . S
H1093 C1099 0.950 . S
H1094 C1100 0.949 . S
C1095 H1090 0.950 . S
C1095 C1097 1.327 . S
C1095 C1101 1.429 . S
C1096 C1088 1.574 . S
C1096 H1091 0.949 . S
C1096 C1102 1.368 . S
C1097 C1081 1.349 . S
C1097 H1089 0.950 . S
C1097 C1095 1.327 . S
C1098 C1086 1.349 . S
C1098 H1092 0.950 . S
C1098 C1099 1.327 . S
C1099 H1093 0.950 . S
C1099 C1098 1.327 . S
C1099 C1103 1.429 . S
C1100 C1083 1.574 . S
C1100 H1094 0.949 . S
C1100 C1104 1.368 . S
C1101 C1082 1.429 . S
C1101 C1095 1.429 . S
C1101 C1102 1.523 . S
C1102 C1083 1.368 . S
C1102 C1096 1.368 . S
C1102 C1101 1.523 . S
C1103 C1087 1.429 . S
C1103 C1099 1.429 . S
C1103 C1104 1.523 . S
C1104 C1088 1.368 . S
C1104 C1100 1.368 . S
C1104 C1103 1.523 . S
H1105 C1080 0.950 . S
H1106 C1082 0.950 . S
H1107 C1083 0.949 . S
H1108 C1085 0.950 . S
H1109 C1087 0.950 . S
C1110 C1111 1.349 . S
C1110 C1112 1.327 . S
C1110 H1135 0.950 . S
C1111 C1110 1.349 . S
C1111 C1127 1.349 . S
C1112 C1110 1.327 . S
C1112 C1131 1.429 . S
C1112 H1136 0.950 . S
C1113 C1130 1.574 1_565 S
C1113 C1132 1.368 . S
C1113 H1137 0.949 . S
H1114 C1118 0.949 . S
C1115 C1116 1.349 . S
C1115 C1117 1.327 . S
C1115 H1138 0.950 . S
C1116 C1115 1.349 . S
C1116 C1128 1.349 . S
C1117 C1115 1.327 . S
C1117 C1133 1.429 . S
C1117 H1139 0.950 . S
C1118 H1114 0.949 . S
C1118 C1126 1.574 . S
C1118 C1134 1.368 . S
H1119 C1127 0.950 . S
H1120 C1125 0.950 . S
H1121 C1126 0.949 . S
H1122 C1128 0.950 . S
H1123 C1129 0.950 . S
H1124 C1130 0.949 . S
C1125 H1120 0.950 . S
C1125 C1127 1.327 . S
C1125 C1131 1.429 . S
C1126 C1118 1.574 . S
C1126 H1121 0.949 . S
C1126 C1132 1.368 1_545 S
C1127 C1111 1.349 . S
C1127 H1119 0.950 . S
C1127 C1125 1.327 . S
C1128 C1116 1.349 . S
C1128 H1122 0.950 . S
C1128 C1129 1.327 . S
C1129 H1123 0.950 . S
C1129 C1128 1.327 . S
C1129 C1133 1.429 . S
C1130 C1113 1.574 1_545 S
C1130 H1124 0.949 . S
C1130 C1134 1.368 . S
C1131 C1112 1.429 . S
C1131 C1125 1.429 . S
C1131 C1132 1.523 . S
C1132 C1113 1.368 . S
C1132 C1126 1.368 1_565 S
C1132 C1131 1.523 . S
C1133 C1117 1.429 . S
C1133 C1129 1.429 . S
C1133 C1134 1.523 . S
C1134 C1118 1.368 . S
C1134 C1130 1.368 . S
C1134 C1133 1.523 . S
H1135 C1110 0.950 . S
H1136 C1112 0.950 . S
H1137 C1113 0.949 . S
H1138 C1115 0.950 . S
H1139 C1117 0.950 . S
C1140 C1141 1.349 . S
C1140 C1142 1.327 . S
C1140 H1165 0.950 . S
C1141 C1140 1.349 . S
C1141 C1157 1.349 . S
C1142 C1140 1.327 . S
C1142 C1161 1.429 . S
C1142 H1166 0.950 . S
C1143 C1160 1.574 . S
C1143 C1162 1.368 1_455 S
C1143 H1167 0.949 . S
H1144 C1148 0.949 . S
C1145 C1146 1.349 . S
C1145 C1147 1.327 . S
C1145 H1168 0.950 . S
C1146 C1145 1.349 . S
C1146 C1158 1.349 . S
C1147 C1145 1.327 . S
C1147 C1163 1.429 . S
C1147 H1169 0.950 . S
C1148 H1144 0.949 . S
C1148 C1156 1.574 . S
C1148 C1164 1.368 1_655 S
H1149 C1157 0.950 . S
H1150 C1155 0.950 . S
H1151 C1156 0.949 . S
H1152 C1158 0.950 . S
H1153 C1159 0.950 . S
H1154 C1160 0.949 . S
C1155 H1150 0.950 . S
C1155 C1157 1.327 . S
C1155 C1161 1.429 . S
C1156 C1148 1.574 . S
C1156 H1151 0.949 . S
C1156 C1162 1.368 . S
C1157 C1141 1.349 . S
C1157 H1149 0.950 . S
C1157 C1155 1.327 . S
C1158 C1146 1.349 . S
C1158 H1152 0.950 . S
C1158 C1159 1.327 . S
C1159 H1153 0.950 . S
C1159 C1158 1.327 . S
C1159 C1163 1.429 . S
C1160 C1143 1.574 . S
C1160 H1154 0.949 . S
C1160 C1164 1.368 . S
C1161 C1142 1.429 . S
C1161 C1155 1.429 . S
C1161 C1162 1.523 . S
C1162 C1143 1.368 1_655 S
C1162 C1156 1.368 . S
C1162 C1161 1.523 . S
C1163 C1147 1.429 . S
C1163 C1159 1.429 . S
C1163 C1164 1.523 . S
C1164 C1148 1.368 1_455 S
C1164 C1160 1.368 . S
C1164 C1163 1.523 . S
H1165 C1140 0.950 . S
H1166 C1142 0.950 . S
H1167 C1143 0.949 . S
H1168 C1145 0.950 . S
H1169 C1147 0.950 . S
C361 C2 3.251 . S
C366 C15 3.251 . S
C391 C55 3.302 . S
C396 C42 3.302 . S
C421 C82 3.328 1_556 S
C426 C95 3.328 . S
C451 C135 3.251 . S
C456 C122 3.251 . S
C481 C162 3.302 . S
C486 C175 3.302 . S
C511 C215 3.328 . S
C516 C202 3.328 1_556 S
C541 C249 2.744 . S
C546 C266 2.744 1_556 S
C571 C306 2.789 . S
C576 C289 2.789 1_556 S
C601 C329 2.504 . S
C606 C346 2.504 1_556 S
C631 C222 1.853 . S
C636 C9 1.845 . S
C661 C62 2.759 . S
C666 C142 2.772 . S
C691 C89 1.239 . S
C696 C169 1.250 . S
C721 C102 2.904 . S
C726 C243 2.954 . S
C751 C295 1.140 . S
C756 C22 1.138 . S
C781 C323 1.689 . S
C786 C49 1.631 . S
C811 C322 0.718 . S
C816 C26 0.721 . S
C841 C43 2.112 . S
C846 C242 2.110 . S
C871 C302 2.583 . S
C876 C106 2.517 . S
C901 C83 1.853 . S
C906 C146 1.845 . S
C931 C163 2.759 . S
C936 C3 2.772 . S
C961 C66 1.250 . S
C966 C226 1.238 . S
C991 C335 0.717 . S
C996 C129 0.720 . S
C1021 C255 2.109 . S
C1026 C182 2.112 . S
C1051 C283 2.583 . S
C1056 C209 2.517 . S
C1081 C262 2.955 . S
C1086 C203 2.905 . S
C1111 C123 1.137 . S
C1116 C282 1.140 . S
C1141 C342 1.688 . S
C1146 C186 1.631 . S
