# Generated by pormake.
# Topology wjh, (4)-cn, num edge types: 1
# Building blocks:
#     Node 0, Type 0, BuildingBlock: ICAMEG_clean_sbu_1, # of connection points: 4
#     Node 1, Type 0, BuildingBlock: ICAMEG_clean_sbu_1, # of connection points: 4
#     Node 2, Type 0, BuildingBlock: ICAMEG_clean_sbu_1, # of connection points: 4
#     Node 3, Type 0, BuildingBlock: ICAMEG_clean_sbu_1, # of connection points: 4
#     Node 4, Type 0, BuildingBlock: ICAMEG_clean_sbu_1, # of connection points: 4
#     Node 5, Type 0, BuildingBlock: ICAMEG_clean_sbu_1, # of connection points: 4
#     Node 6, Type 0, BuildingBlock: ICAMEG_clean_sbu_1, # of connection points: 4
#     Node 7, Type 0, BuildingBlock: ICAMEG_clean_sbu_1, # of connection points: 4
#     Node 8, Type 0, BuildingBlock: ICAMEG_clean_sbu_1, # of connection points: 4
#     Node 9, Type 0, BuildingBlock: ICAMEG_clean_sbu_1, # of connection points: 4
#     Node 10, Type 0, BuildingBlock: ICAMEG_clean_sbu_1, # of connection points: 4
#     Node 11, Type 0, BuildingBlock: ICAMEG_clean_sbu_1, # of connection points: 4
#     Edge 12, Type (0, 0), BuildingBlock: UVAHIK_clean_linker_0, # of connection points: 2
#     Edge 13, Type (0, 0), BuildingBlock: UVAHIK_clean_linker_0, # of connection points: 2
#     Edge 14, Type (0, 0), BuildingBlock: UVAHIK_clean_linker_0, # of connection points: 2
#     Edge 15, Type (0, 0), BuildingBlock: UVAHIK_clean_linker_0, # of connection points: 2
#     Edge 16, Type (0, 0), BuildingBlock: UVAHIK_clean_linker_0, # of connection points: 2
#     Edge 17, Type (0, 0), BuildingBlock: UVAHIK_clean_linker_0, # of connection points: 2
#     Edge 18, Type (0, 0), BuildingBlock: UVAHIK_clean_linker_0, # of connection points: 2
#     Edge 19, Type (0, 0), BuildingBlock: UVAHIK_clean_linker_0, # of connection points: 2
#     Edge 20, Type (0, 0), BuildingBlock: UVAHIK_clean_linker_0, # of connection points: 2
#     Edge 21, Type (0, 0), BuildingBlock: UVAHIK_clean_linker_0, # of connection points: 2
#     Edge 22, Type (0, 0), BuildingBlock: UVAHIK_clean_linker_0, # of connection points: 2
#     Edge 23, Type (0, 0), BuildingBlock: UVAHIK_clean_linker_0, # of connection points: 2
#     Edge 24, Type (0, 0), BuildingBlock: UVAHIK_clean_linker_0, # of connection points: 2
#     Edge 25, Type (0, 0), BuildingBlock: UVAHIK_clean_linker_0, # of connection points: 2
#     Edge 26, Type (0, 0), BuildingBlock: UVAHIK_clean_linker_0, # of connection points: 2
#     Edge 27, Type (0, 0), BuildingBlock: UVAHIK_clean_linker_0, # of connection points: 2
#     Edge 28, Type (0, 0), BuildingBlock: UVAHIK_clean_linker_0, # of connection points: 2
#     Edge 29, Type (0, 0), BuildingBlock: UVAHIK_clean_linker_0, # of connection points: 2
#     Edge 30, Type (0, 0), BuildingBlock: UVAHIK_clean_linker_0, # of connection points: 2
#     Edge 31, Type (0, 0), BuildingBlock: UVAHIK_clean_linker_0, # of connection points: 2
#     Edge 32, Type (0, 0), BuildingBlock: UVAHIK_clean_linker_0, # of connection points: 2
#     Edge 33, Type (0, 0), BuildingBlock: UVAHIK_clean_linker_0, # of connection points: 2
#     Edge 34, Type (0, 0), BuildingBlock: UVAHIK_clean_linker_0, # of connection points: 2
#     Edge 35, Type (0, 0), BuildingBlock: UVAHIK_clean_linker_0, # of connection points: 2
# Relax obj value: 0.060
# Max RMSD: 0.098
# Mean RMSD: 0.098
data_MOF--net-wjh--node1-ICAMEG_clean_sbu_1--edge1-UVAHIK_clean_linker_0
_symmetry_space_group_name_H-M    P1
_symmetry_Int_Tables_number       1
_symmetry_cell_setting            triclinic
loop_
_symmetry_equiv_pos_as_xyz
'x, y, z'
_cell_length_a     81.440841
_cell_length_b     81.456831
_cell_length_c     38.135987
_cell_angle_alpha  90.009149
_cell_angle_beta   90.002311
_cell_angle_gamma 119.95704
loop_
_atom_site_label
_atom_site_type_symbol
_atom_site_fract_x
_atom_site_fract_y
_atom_site_fract_z
_atom_type_partial_charge
Co0 Co 0.50375 0.13471 0.0505 0.0
Co1 Co 0.54597 0.13669 0.02848 0.0
O2 O 0.52685 0.14429 0.02232 0.0
C3 C 0.52422 0.17594 0.06332 0.0
O4 O 0.53968 0.17479 0.06608 0.0
C5 C 0.53367 0.12646 0.95524 0.0
O6 O 0.5162 0.12079 0.96507 0.0
O7 O 0.52618 0.10943 0.03151 0.0
O8 O 0.49873 0.10821 0.04518 0.0
H9 H 0.57476 0.10144 0.08584 0.0
H10 H 0.50966 0.15962 0.98952 0.0
O11 O 0.50842 0.16117 0.05652 0.0
H12 H 0.45101 0.09975 0.96347 0.0
H13 H 0.44334 0.13209 0.08885 0.0
H14 H 0.48584 0.10597 0.10667 0.0
H15 H 0.4682 0.10373 0.01891 0.0
H16 H 0.47247 0.14366 0.05364 0.0
O17 O 0.54724 0.13377 0.97709 0.0
H18 H 0.55089 0.11134 0.0778 0.0
H19 H 0.58183 0.14588 -0.00859 0.0
H20 H 0.45677 0.09388 0.14226 0.0
H21 H 0.49283 0.15632 0.93387 0.0
H22 H 0.4353 0.10697 0.13344 0.0
H23 H 0.46331 0.12618 0.92051 0.0
O24 O 0.51779 0.13755 0.09512 0.0
H25 H 0.57707 0.20187 0.97573 0.0
H26 H 0.58022 0.16245 0.07065 0.0
H27 H 0.60427 0.19638 0.06783 0.0
H28 H 0.60279 0.21633 0.02007 0.0
H29 H 0.55321 0.16789 0.97975 0.0
H30 H 0.60594 0.13623 -0.00169 0.0
H31 H 0.60252 0.11391 0.0459 0.0
O32 O 0.54518 0.13923 0.07974 0.0
C33 C 0.50846 0.10027 0.0381 0.0
C34 C 0.57644 0.11123 0.06508 0.0
C35 C 0.59393 0.13073 0.01593 0.0
N36 N 0.56505 0.12929 0.03436 0.0
C37 C 0.563 0.11693 0.06047 0.0
C38 C 0.58021 0.13611 0.01211 0.0
C39 C 0.592 0.11821 0.04264 0.0
C40 C 0.49673 0.14653 0.98401 0.0
N41 N 0.48989 0.13191 0.00747 0.0
C42 C 0.4873 0.14471 0.95241 0.0
C43 C 0.47075 0.12779 0.94491 0.0
C44 C 0.46385 0.11295 0.96899 0.0
C45 C 0.47368 0.11526 0.0003 0.0
C46 C 0.45257 0.12625 0.0929 0.0
C47 C 0.4765 0.11164 0.10254 0.0
C48 C 0.4691 0.13277 0.0731 0.0
N49 N 0.48076 0.12539 0.07795 0.0
C50 C 0.46009 0.10479 0.12283 0.0
C51 C 0.44806 0.11215 0.1179 0.0
C52 C 0.53381 0.13918 0.10258 0.0
C53 C 0.57788 0.19331 -0.00338 0.0
C54 C 0.57944 0.17104 0.04988 0.0
C55 C 0.59313 0.19024 0.04836 0.0
C56 C 0.5923 0.20143 0.02154 0.0
N57 N 0.56534 0.16319 0.02536 0.0
C58 C 0.56446 0.17406 -0.00104 0.0
Co59 Co 0.36939 0.50667 0.2303 0.0
Co60 Co 0.40881 0.54801 0.20298 0.0
O61 O 0.38186 0.52922 0.20044 0.0
C62 C 0.34839 0.52676 0.24401 0.0
O63 O 0.36496 0.54225 0.24667 0.0
C64 C 0.40418 0.5369 0.12846 0.0
O65 O 0.3942 0.51908 0.13807 0.0
O66 O 0.41575 0.52782 0.20052 0.0
O67 O 0.39111 0.502 0.22433 0.0
H68 H 0.47556 0.57487 0.24681 0.0
H69 H 0.34863 0.51065 0.17007 0.0
O70 O 0.34743 0.511 0.23704 0.0
H71 H 0.35105 0.45234 0.14681 0.0
H72 H 0.31321 0.44656 0.27416 0.0
H73 H 0.38186 0.49048 0.28704 0.0
H74 H 0.36523 0.47091 0.2006 0.0
H75 H 0.32958 0.47495 0.23671 0.0
O76 O 0.41022 0.55007 0.15114 0.0
H77 H 0.4414 0.55152 0.24379 0.0
H78 H 0.43376 0.58455 0.16629 0.0
H79 H 0.36611 0.46217 0.32483 0.0
H80 H 0.33412 0.49243 0.11607 0.0
H81 H 0.33153 0.43998 0.3185 0.0
H82 H 0.33533 0.46307 0.10413 0.0
O83 O 0.38134 0.52174 0.27349 0.0
H84 H 0.37337 0.58083 0.1655 0.0
H85 H 0.41988 0.58157 0.24921 0.0
H86 H 0.4105 0.60597 0.25358 0.0
H87 H 0.38708 0.6057 0.2115 0.0
H88 H 0.38304 0.55658 0.16227 0.0
H89 H 0.46786 0.60818 0.16823 0.0
H90 H 0.489 0.60344 0.20882 0.0
O91 O 0.40839 0.54665 0.25466 0.0
C92 C 0.40781 0.51075 0.21147 0.0
C93 C 0.46649 0.57712 0.22908 0.0
C94 C 0.46217 0.5958 0.18495 0.0
N95 N 0.43559 0.56672 0.20504 0.0
C96 C 0.44713 0.56396 0.22731 0.0
C97 C 0.44289 0.58235 0.1839 0.0
C98 C 0.47402 0.59314 0.20774 0.0
C99 C 0.34906 0.4978 0.16518 0.0
N100 N 0.35767 0.4918 0.18852 0.0
C101 C 0.34089 0.48758 0.13451 0.0
C102 C 0.34159 0.47112 0.1278 0.0
C103 C 0.35042 0.4651 0.15173 0.0
C104 C 0.35846 0.4757 0.1821 0.0
C105 C 0.32829 0.4561 0.27711 0.0
C106 C 0.36684 0.48082 0.28398 0.0
C107 C 0.33762 0.47221 0.25603 0.0
N108 N 0.35668 0.48426 0.25951 0.0
C109 C 0.35798 0.46485 0.30552 0.0
C110 C 0.33858 0.45241 0.30198 0.0
C111 C 0.39718 0.53671 0.27899 0.0
C112 C 0.38362 0.58112 0.18393 0.0
C113 C 0.40965 0.58132 0.23087 0.0
C114 C 0.40442 0.5952 0.23342 0.0
C115 C 0.3913 0.59505 0.20978 0.0
N116 N 0.40205 0.56769 0.20544 0.0
C117 C 0.3892 0.56748 0.18213 0.0
Co118 Co 0.86044 0.36804 0.38898 0.0
Co119 Co 0.85958 0.40821 0.36291 0.0
O120 O 0.84974 0.38088 0.36203 0.0
C121 C 0.82045 0.34917 0.41114 0.0
O122 O 0.82253 0.36615 0.41453 0.0
C123 C 0.85977 0.39991 0.2878 0.0
O124 O 0.86715 0.38932 0.29617 0.0
O125 O 0.88587 0.41344 0.35448 0.0
O126 O 0.8868 0.38857 0.37786 0.0
H127 H 0.90507 0.4756 0.39723 0.0
H128 H 0.8318 0.34712 0.33392 0.0
O129 O 0.83428 0.34726 0.40077 0.0
H130 H 0.88868 0.34465 0.29785 0.0
H131 H 0.86343 0.31091 0.43043 0.0
H132 H 0.89228 0.38031 0.43913 0.0
H133 H 0.88861 0.3607 0.35265 0.0
H134 H 0.85056 0.32768 0.39632 0.0
O135 O 0.85551 0.4081 0.31153 0.0
H136 H 0.89235 0.44105 0.39664 0.0
H137 H 0.84766 0.43363 0.32915 0.0
H138 H 0.90572 0.36413 0.47345 0.0
H139 H 0.83117 0.33075 0.27907 0.0
H140 H 0.89126 0.32918 0.46921 0.0
H141 H 0.85978 0.32951 0.26067 0.0
O142 O 0.8607 0.38152 0.4328 0.0
H143 H 0.78937 0.37556 0.34155 0.0
H144 H 0.84199 0.42242 0.41444 0.0
H145 H 0.80936 0.41532 0.42677 0.0
H146 H 0.78278 0.39174 0.39017 0.0
H147 H 0.82221 0.38297 0.33031 0.0
H148 H 0.85999 0.46812 0.32874 0.0
H149 H 0.88885 0.48935 0.36308 0.0
O150 O 0.86402 0.40917 0.41407 0.0
C151 C 0.89478 0.40498 0.36376 0.0
C152 C 0.89244 0.4665 0.38227 0.0
C153 C 0.86715 0.4623 0.3438 0.0
N154 N 0.86918 0.43532 0.36318 0.0
C155 C 0.88513 0.44692 0.38195 0.0
C156 C 0.86026 0.44278 0.34408 0.0
C157 C 0.88334 0.4742 0.36308 0.0
C158 C 0.84425 0.3465 0.32622 0.0
N159 N 0.86022 0.35483 0.34649 0.0
C160 C 0.84383 0.33727 0.29508 0.0
C161 C 0.8599 0.3366 0.28474 0.0
C162 C 0.87612 0.34511 0.30558 0.0
C163 C 0.87603 0.35424 0.33652 0.0
C164 C 0.86987 0.32615 0.43245 0.0
C165 C 0.88599 0.36511 0.43699 0.0
C166 C 0.86262 0.33571 0.41327 0.0
N167 N 0.87075 0.35496 0.41557 0.0
C168 C 0.89362 0.35602 0.45656 0.0
C169 C 0.88549 0.33641 0.4542 0.0
C170 C 0.86336 0.39811 0.43826 0.0
C171 C 0.80084 0.3859 0.35761 0.0
C172 C 0.8305 0.41212 0.39842 0.0
C173 C 0.81206 0.40819 0.40549 0.0
C174 C 0.79715 0.39497 0.38493 0.0
N175 N 0.83401 0.40318 0.37155 0.0
C176 C 0.81947 0.39022 0.35126 0.0
Co177 Co 0.49143 0.86263 0.56718 0.0
Co178 Co 0.45005 0.86073 0.5399 0.0
O179 O 0.4687 0.85234 0.53778 0.0
C180 C 0.47128 0.82175 0.58284 0.0
O181 O 0.45586 0.82297 0.58575 0.0
C182 C 0.46119 0.86644 0.46553 0.0
O183 O 0.47895 0.874 0.47542 0.0
O184 O 0.47032 0.88774 0.53669 0.0
O185 O 0.49626 0.88901 0.56017 0.0
H186 H 0.42367 0.90136 0.582 0.0
H187 H 0.48694 0.83713 0.50798 0.0
O188 O 0.48698 0.83638 0.57496 0.0
H189 H 0.54532 0.8973 0.48227 0.0
H190 H 0.55164 0.86663 0.61091 0.0
H191 H 0.50808 0.89191 0.62278 0.0
H192 H 0.52712 0.8937 0.53623 0.0
H193 H 0.52303 0.85434 0.57394 0.0
O194 O 0.44792 0.85967 0.48805 0.0
H195 H 0.44685 0.89029 0.57967 0.0
H196 H 0.41351 0.84911 0.50315 0.0
H197 H 0.53661 0.90473 0.66007 0.0
H198 H 0.5048 0.84007 0.45384 0.0
H199 H 0.55862 0.89207 0.65425 0.0
H200 H 0.53419 0.87035 0.44067 0.0
O201 O 0.4766 0.8601 0.6104 0.0
H202 H 0.41665 0.79218 0.50446 0.0
H203 H 0.41665 0.83889 0.58674 0.0
H204 H 0.39206 0.80525 0.59205 0.0
H205 H 0.39195 0.78163 0.55069 0.0
H206 H 0.44109 0.82596 0.50027 0.0
H207 H 0.39005 0.85984 0.50442 0.0
H208 H 0.39503 0.8861 0.54417 0.0
O209 O 0.45157 0.86211 0.5916 0.0
C210 C 0.48748 0.89689 0.54715 0.0
C211 C 0.42131 0.88987 0.56465 0.0
C212 C 0.40246 0.86658 0.52108 0.0
N213 N 0.43147 0.86898 0.54149 0.0
C214 C 0.43436 0.88351 0.56328 0.0
C215 C 0.41581 0.86059 0.52042 0.0
C216 C 0.40525 0.88131 0.54339 0.0
C217 C 0.49981 0.85029 0.50257 0.0
N218 N 0.50603 0.86518 0.52531 0.0
C219 C 0.50982 0.8519 0.47181 0.0
C220 C 0.5263 0.8689 0.46441 0.0
C221 C 0.53255 0.88403 0.48774 0.0
C222 C 0.52216 0.88192 0.51821 0.0
C223 C 0.54218 0.87229 0.61364 0.0
C224 C 0.51766 0.88642 0.61995 0.0
C225 C 0.52595 0.86536 0.59283 0.0
N226 N 0.514 0.87252 0.59602 0.0
C227 C 0.53376 0.89369 0.6412 0.0
C228 C 0.54609 0.88657 0.63795 0.0
C229 C 0.46166 0.86106 0.61592 0.0
C230 C 0.41652 0.80234 0.52257 0.0
C231 C 0.41673 0.8287 0.56869 0.0
C232 C 0.40274 0.80967 0.57178 0.0
C233 C 0.40268 0.79643 0.54855 0.0
N234 N 0.43025 0.83439 0.54312 0.0
C235 C 0.43027 0.82149 0.52023 0.0
Co236 Co 0.63076 0.49264 0.71839 0.0
Co237 Co 0.59098 0.4511 0.69228 0.0
O238 O 0.61787 0.47007 0.68858 0.0
C239 C 0.65146 0.47215 0.73137 0.0
O240 O 0.63485 0.45666 0.73323 0.0
C241 C 0.59464 0.46322 0.61839 0.0
O242 O 0.60607 0.48081 0.62806 0.0
O243 O 0.58379 0.47115 0.69285 0.0
O244 O 0.60924 0.49762 0.71282 0.0
H245 H 0.52528 0.42301 0.74207 0.0
H246 H 0.65111 0.48826 0.65792 0.0
O247 O 0.65254 0.488 0.72487 0.0
H248 H 0.64936 0.54692 0.63469 0.0
H249 H 0.68759 0.55248 0.76142 0.0
H250 H 0.61889 0.50921 0.77544 0.0
H251 H 0.63521 0.52851 0.68863 0.0
H252 H 0.67077 0.52406 0.72416 0.0
O253 O 0.58834 0.4498 0.64054 0.0
H254 H 0.5593 0.44661 0.73723 0.0
H255 H 0.56532 0.41523 0.65423 0.0
H256 H 0.63511 0.53756 0.81305 0.0
H257 H 0.66558 0.50632 0.60376 0.0
H258 H 0.66972 0.55942 0.80615 0.0
H259 H 0.66471 0.53585 0.59184 0.0
O260 O 0.61892 0.47776 0.76183 0.0
H261 H 0.62607 0.41945 0.64648 0.0
H262 H 0.58093 0.41677 0.73559 0.0
H263 H 0.5906 0.39251 0.73579 0.0
H264 H 0.61333 0.39376 0.69098 0.0
H265 H 0.61613 0.44353 0.64746 0.0
H266 H 0.53133 0.39139 0.65797 0.0
H267 H 0.51109 0.39516 0.70223 0.0
O268 O 0.59256 0.45174 0.74391 0.0
C269 C 0.59209 0.48849 0.70225 0.0
C270 C 0.53397 0.42118 0.72275 0.0
C271 C 0.53736 0.40344 0.67552 0.0
N272 N 0.56431 0.43222 0.69568 0.0
C273 C 0.55324 0.43446 0.71995 0.0
C274 C 0.55659 0.417 0.6735 0.0
C275 C 0.52601 0.40556 0.70037 0.0
C276 C 0.65083 0.50118 0.65304 0.0
N277 N 0.64242 0.50737 0.67647 0.0
C278 C 0.65898 0.51131 0.62227 0.0
C279 C 0.65846 0.52787 0.61558 0.0
C280 C 0.64984 0.53408 0.6396 0.0
C281 C 0.64182 0.52357 0.67006 0.0
C282 C 0.6725 0.54309 0.76462 0.0
C283 C 0.63392 0.51874 0.77213 0.0
C284 C 0.66291 0.52696 0.74365 0.0
N285 N 0.64384 0.51509 0.74744 0.0
C286 C 0.64304 0.53473 0.79357 0.0
C287 C 0.66246 0.54698 0.78971 0.0
C288 C 0.60372 0.46221 0.76785 0.0
C289 C 0.61613 0.41874 0.6661 0.0
C290 C 0.59087 0.41745 0.7161 0.0
C291 C 0.59626 0.40364 0.71628 0.0
C292 C 0.60899 0.40434 0.6911 0.0
N293 N 0.59794 0.43154 0.6915 0.0
C294 C 0.6104 0.43229 0.6667 0.0
Co295 Co 0.1379 0.63049 0.88942 0.0
Co296 Co 0.13865 0.59001 0.86512 0.0
O297 O 0.14875 0.61738 0.86375 0.0
C298 C 0.17746 0.64891 0.91393 0.0
O299 O 0.17509 0.63184 0.91749 0.0
C300 C 0.13936 0.59812 0.78973 0.0
O301 O 0.13213 0.60892 0.79736 0.0
O302 O 0.11255 0.58498 0.85537 0.0
O303 O 0.11161 0.61013 0.87731 0.0
H304 H 0.09233 0.52286 0.89947 0.0
H305 H 0.16745 0.65117 0.8357 0.0
O306 O 0.16399 0.65108 0.90235 0.0
H307 H 0.11144 0.65406 0.79524 0.0
H308 H 0.13506 0.6881 0.9282 0.0
H309 H 0.10539 0.61865 0.93779 0.0
H310 H 0.1105 0.63803 0.85068 0.0
H311 H 0.14813 0.67099 0.89578 0.0
O312 O 0.14325 0.58989 0.81396 0.0
H313 H 0.10535 0.55745 0.89824 0.0
H314 H 0.15058 0.56421 0.83303 0.0
H315 H 0.09174 0.63518 0.97041 0.0
H316 H 0.16909 0.66751 0.78024 0.0
H317 H 0.10661 0.67015 0.96572 0.0
H318 H 0.14091 0.66897 0.75963 0.0
O319 O 0.13683 0.61702 0.93374 0.0
H320 H 0.20905 0.62199 0.8465 0.0
H321 H 0.15543 0.57573 0.91822 0.0
H322 H 0.18781 0.58256 0.93215 0.0
H323 H 0.21489 0.60583 0.89614 0.0
H324 H 0.17644 0.61486 0.83367 0.0
H325 H 0.13796 0.52967 0.83328 0.0
H326 H 0.10867 0.50875 0.8668 0.0
O327 O 0.13366 0.58927 0.91604 0.0
C328 C 0.10367 0.59364 0.86358 0.0
C329 C 0.10514 0.53183 0.88488 0.0
C330 C 0.13074 0.53565 0.8477 0.0
N331 N 0.12881 0.56286 0.86589 0.0
C332 C 0.11263 0.55143 0.8842 0.0
C333 C 0.1378 0.55519 0.84761 0.0
C334 C 0.11431 0.52392 0.86651 0.0
C335 C 0.15519 0.65189 0.82704 0.0
N336 N 0.13891 0.6437 0.84644 0.0
C337 C 0.15618 0.6611 0.79556 0.0
C338 C 0.14036 0.66189 0.78398 0.0
C339 C 0.12381 0.65351 0.80393 0.0
C340 C 0.12334 0.6444 0.83526 0.0
C341 C 0.12844 0.67286 0.93041 0.0
C342 C 0.11187 0.63386 0.93546 0.0
C343 C 0.1358 0.66309 0.91219 0.0
N344 N 0.12744 0.64383 0.91471 0.0
C345 C 0.10411 0.64315 0.95406 0.0
C346 C 0.11247 0.66278 0.95145 0.0
C347 C 0.13404 0.60043 0.93975 0.0
C348 C 0.19736 0.61178 0.86231 0.0
C349 C 0.16714 0.5859 0.90246 0.0
C350 C 0.18544 0.58968 0.91043 0.0
C351 C 0.20063 0.60273 0.8902 0.0
N352 N 0.16404 0.59482 0.87503 0.0
C353 C 0.17886 0.60762 0.85507 0.0
Co354 Co 0.8647 0.49446 0.83703 0.0
Co355 Co 0.8649 0.45316 0.85662 0.0
O356 O 0.85455 0.47015 0.86121 0.0
C357 C 0.82451 0.47361 0.8159 0.0
O358 O 0.82682 0.45902 0.80983 0.0
C359 C 0.86516 0.45936 0.93253 0.0
O360 O 0.87202 0.47743 0.92578 0.0
O361 O 0.89101 0.47421 0.86585 0.0
O362 O 0.89133 0.50035 0.84593 0.0
H363 H 0.91103 0.43358 0.8142 0.0
H364 H 0.83651 0.48475 0.89386 0.0
O365 O 0.83828 0.48906 0.8274 0.0
H366 H 0.89344 0.54305 0.9333 0.0
H367 H 0.86637 0.55529 0.80551 0.0
H368 H 0.8959 0.51588 0.78646 0.0
H369 H 0.893 0.52884 0.87595 0.0
H370 H 0.85421 0.52468 0.83601 0.0
O371 O 0.86118 0.44756 0.90769 0.0
H372 H 0.89772 0.45483 0.81957 0.0
H373 H 0.85398 0.41509 0.88579 0.0
H374 H 0.90863 0.54648 0.75567 0.0
H375 H 0.83626 0.49857 0.95128 0.0
H376 H 0.89383 0.56641 0.76512 0.0
H377 H 0.8649 0.5279 0.97139 0.0
O378 O 0.86467 0.48269 0.79119 0.0
H379 H 0.79488 0.41379 0.87873 0.0
H380 H 0.84754 0.42309 0.80184 0.0
H381 H 0.81507 0.39755 0.78861 0.0
H382 H 0.78847 0.39276 0.82722 0.0
H383 H 0.82757 0.43927 0.89082 0.0
H384 H 0.8669 0.39347 0.88141 0.0
H385 H 0.89559 0.40265 0.84528 0.0
O386 O 0.86904 0.45838 0.80571 0.0
C387 C 0.89964 0.49178 0.85804 0.0
C388 C 0.89847 0.42938 0.8299 0.0
C389 C 0.87373 0.40689 0.86766 0.0
N390 N 0.87498 0.43612 0.85265 0.0
C391 C 0.89084 0.44132 0.83292 0.0
C392 C 0.86649 0.4192 0.87009 0.0
C393 C 0.88982 0.41204 0.84738 0.0
C394 C 0.84896 0.49761 0.90229 0.0
N395 N 0.86474 0.506 0.88155 0.0
C396 C 0.84877 0.50533 0.93489 0.0
C397 C 0.86485 0.52177 0.94618 0.0
C398 C 0.88087 0.53027 0.92483 0.0
C399 C 0.88057 0.52213 0.89243 0.0
C400 C 0.87296 0.54675 0.80121 0.0
C401 C 0.88946 0.52453 0.79086 0.0
C402 C 0.86611 0.52938 0.81834 0.0
N403 N 0.87443 0.51858 0.81319 0.0
C404 C 0.8967 0.54182 0.77328 0.0
C405 C 0.88837 0.55298 0.77857 0.0
C406 C 0.8678 0.46929 0.78333 0.0
C407 C 0.80637 0.4157 0.86178 0.0
C408 C 0.83604 0.42112 0.81874 0.0
C409 C 0.81769 0.40661 0.81115 0.0
C410 C 0.80277 0.40392 0.83284 0.0
N411 N 0.83945 0.43259 0.84719 0.0
C412 C 0.82491 0.43004 0.86859 0.0
Co413 Co 0.36906 0.86108 0.01557 0.0
Co414 Co 0.40958 0.86016 0.03973 0.0
O415 O 0.38283 0.85243 0.04538 0.0
C416 C 0.34882 0.81959 0.00599 0.0
O417 O 0.3655 0.82085 0.00423 0.0
C418 C 0.40746 0.8723 0.11151 0.0
O419 O 0.39556 0.87757 0.10028 0.0
O420 O 0.41673 0.88723 0.03375 0.0
O421 O 0.39024 0.88778 0.01937 0.0
H422 H 0.47336 0.89424 0.98135 0.0
H423 H 0.35031 0.83738 0.078 0.0
O424 O 0.34758 0.8344 0.01104 0.0
H425 H 0.35045 0.89725 0.09816 0.0
H426 H 0.31079 0.86187 0.97405 0.0
H427 H 0.37952 0.88855 0.95718 0.0
H428 H 0.36387 0.89235 0.04382 0.0
H429 H 0.32868 0.85147 0.01127 0.0
O430 O 0.41383 0.86453 0.09093 0.0
H431 H 0.43956 0.88426 0.98891 0.0
H432 H 0.43665 0.85248 0.07935 0.0
H433 H 0.36222 0.89947 0.91955 0.0
H434 H 0.33659 0.84161 0.1326 0.0
H435 H 0.3276 0.88609 0.92788 0.0
H436 H 0.33667 0.87175 0.143 0.0
O437 O 0.38047 0.85755 0.97185 0.0
H438 H 0.37621 0.79651 0.09853 0.0
H439 H 0.41851 0.83357 0.00146 0.0
H440 H 0.40903 0.79986 0.00793 0.0
H441 H 0.38773 0.78109 0.05678 0.0
H442 H 0.38591 0.83023 0.09085 0.0
H443 H 0.47045 0.86225 0.07295 0.0
H444 H 0.48902 0.88321 0.02357 0.0
O445 O 0.40615 0.85615 0.98868 0.0
C446 C 0.40794 0.89606 0.02609 0.0
C447 C 0.4654 0.88505 0.0029 0.0
C448 C 0.46378 0.86712 0.05434 0.0
N449 N 0.43611 0.86768 0.03436 0.0
C450 C 0.44625 0.87931 0.00726 0.0
C451 C 0.44465 0.86167 0.05787 0.0
C452 C 0.47419 0.87888 0.02663 0.0
C453 C 0.35024 0.85046 0.08221 0.0
N454 N 0.35782 0.86458 0.05771 0.0
C455 C 0.34252 0.85281 0.11323 0.0
C456 C 0.34259 0.86973 0.11906 0.0
C457 C 0.35033 0.88405 0.09393 0.0
C458 C 0.35795 0.88122 0.06325 0.0
C459 C 0.32587 0.86783 0.9702 0.0
C460 C 0.36448 0.88276 0.96109 0.0
C461 C 0.33607 0.86196 -0.00886 0.0
N462 N 0.35514 0.8695 0.98653 0.0
C463 C 0.35475 0.88895 0.93965 0.0
C464 C 0.33532 0.88142 0.94431 0.0
C465 C 0.39484 0.85572 0.96529 0.0
C466 C 0.38551 0.80454 0.07716 0.0
C467 C 0.40918 0.82548 0.02266 0.0
C468 C 0.4039 0.80641 0.02627 0.0
C469 C 0.39197 0.79589 0.05371 0.0
N470 N 0.40278 0.83386 0.04575 0.0
C471 C 0.39111 0.82365 0.07276 0.0
Co472 Co 0.50478 0.36952 0.16322 0.0
Co473 Co 0.54619 0.40838 0.19209 0.0
O474 O 0.52733 0.38141 0.19313 0.0
C475 C 0.52479 0.34875 0.14659 0.0
O476 O 0.54029 0.36535 0.14457 0.0
C477 C 0.53471 0.40233 0.26633 0.0
O478 O 0.51697 0.39247 0.25615 0.0
O479 O 0.52607 0.41538 0.19555 0.0
O480 O 0.50013 0.39111 0.17124 0.0
H481 H 0.57345 0.47586 0.15241 0.0
H482 H 0.50875 0.34762 0.22139 0.0
O483 O 0.50907 0.34768 0.15438 0.0
H484 H 0.45051 0.34968 0.24752 0.0
H485 H 0.44458 0.31422 0.11727 0.0
H486 H 0.48858 0.38304 0.10829 0.0
H487 H 0.46904 0.36484 0.19416 0.0
H488 H 0.47302 0.32986 0.1548 0.0
O489 O 0.54806 0.40887 0.24398 0.0
H490 H 0.54998 0.44171 0.15353 0.0
H491 H 0.5826 0.43257 0.22976 0.0
H492 H 0.46023 0.36801 0.07046 0.0
H493 H 0.49056 0.33213 0.27491 0.0
H494 H 0.438 0.33336 0.07483 0.0
H495 H 0.46123 0.33315 0.2883 0.0
O496 O 0.51985 0.38228 0.12046 0.0
H497 H 0.57872 0.37213 0.22609 0.0
H498 H 0.57983 0.42012 0.14577 0.0
H499 H 0.60417 0.41071 0.14006 0.0
H500 H 0.60371 0.38656 0.18042 0.0
H501 H 0.55454 0.38185 0.23068 0.0
H502 H 0.60634 0.46665 0.2297 0.0
H503 H 0.60188 0.48854 0.19071 0.0
O504 O 0.54497 0.40884 0.14043 0.0
C505 C 0.50896 0.40764 0.18482 0.0
C506 C 0.57558 0.46646 0.16945 0.0
C507 C 0.59403 0.4613 0.21285 0.0
N508 N 0.56498 0.43515 0.19151 0.0
C509 C 0.56236 0.44711 0.17014 0.0
C510 C 0.58052 0.44202 0.21283 0.0
C511 C 0.59152 0.47357 0.19096 0.0
C512 C 0.49591 0.34797 0.22689 0.0
N513 N 0.48991 0.35703 0.2046 0.0
C514 C 0.48571 0.33924 0.2573 0.0
C515 C 0.46927 0.33985 0.26482 0.0
C516 C 0.46325 0.34913 0.24196 0.0
C517 C 0.47383 0.35772 0.21182 0.0
C518 C 0.45414 0.32934 0.11518 0.0
C519 C 0.4789 0.36797 0.11049 0.0
C520 C 0.47027 0.33826 0.13631 0.0
N521 N 0.48235 0.35736 0.13392 0.0
C522 C 0.46291 0.35953 0.08894 0.0
C523 C 0.45045 0.34008 0.09138 0.0
C524 C 0.53492 0.39812 0.11563 0.0
C525 C 0.5791 0.38271 0.20841 0.0
C526 C 0.57951 0.40957 0.16338 0.0
C527 C 0.59335 0.40433 0.16007 0.0
C528 C 0.5931 0.39079 0.18274 0.0
N529 N 0.56582 0.40158 0.18863 0.0
C530 C 0.56549 0.38832 0.21098 0.0
Co531 Co 0.1336 0.50406 0.33731 0.0
Co532 Co 0.13378 0.54532 0.35886 0.0
O533 O 0.14391 0.52811 0.36246 0.0
C534 C 0.17388 0.52479 0.31676 0.0
O535 O 0.17178 0.53954 0.31114 0.0
C536 C 0.1336 0.53852 0.43457 0.0
O537 O 0.12654 0.52046 0.42739 0.0
O538 O 0.10761 0.52434 0.36786 0.0
O539 O 0.10704 0.49836 0.34631 0.0
H540 H 0.08798 0.56578 0.31858 0.0
H541 H 0.16155 0.51287 0.39427 0.0
O542 O 0.15996 0.50929 0.32766 0.0
H543 H 0.10421 0.45437 0.43158 0.0
H544 H 0.13133 0.44329 0.30289 0.0
H545 H 0.10248 0.48347 0.28619 0.0
H546 H 0.10497 0.46934 0.37494 0.0
H547 H 0.14367 0.47356 0.33471 0.0
O548 O 0.13763 0.55049 0.41004 0.0
H549 H 0.10102 0.54427 0.32267 0.0
H550 H 0.14509 0.58324 0.38931 0.0
H551 H 0.08956 0.45322 0.25409 0.0
H552 H 0.16148 0.49828 0.45099 0.0
H553 H 0.10403 0.43291 0.26236 0.0
H554 H 0.13263 0.46885 0.47003 0.0
O555 O 0.13389 0.51641 0.29204 0.0
H556 H 0.20387 0.58399 0.38077 0.0
H557 H 0.15127 0.57584 0.30492 0.0
H558 H 0.18381 0.60129 0.29193 0.0
H559 H 0.21039 0.6055 0.33003 0.0
H560 H 0.17112 0.55862 0.39264 0.0
H561 H 0.13243 0.60511 0.38621 0.0
H562 H 0.10372 0.59646 0.35052 0.0
O563 O 0.12953 0.54056 0.30783 0.0
C564 C 0.09885 0.50688 0.3592 0.0
C565 C 0.10055 0.56975 0.33409 0.0
C566 C 0.12548 0.59181 0.37209 0.0
N567 N 0.12391 0.56257 0.35589 0.0
C568 C 0.10804 0.55766 0.33639 0.0
C569 C 0.13256 0.57935 0.37379 0.0
C570 C 0.10937 0.58695 0.35205 0.0
C571 C 0.14901 0.49997 0.40223 0.0
N572 N 0.1333 0.49194 0.38129 0.0
C573 C 0.14902 0.49181 0.43444 0.0
C574 C 0.13282 0.47532 0.44513 0.0
C575 C 0.11686 0.4672 0.42358 0.0
C576 C 0.11735 0.47577 0.39158 0.0
C577 C 0.12489 0.452 0.29911 0.0
C578 C 0.10876 0.47465 0.29008 0.0
C579 C 0.13185 0.46918 0.31699 0.0
N580 N 0.12371 0.48019 0.31248 0.0
C581 C 0.10143 0.45756 0.27176 0.0
C582 C 0.10956 0.44618 0.27638 0.0
C583 C 0.13078 0.52991 0.28488 0.0
C584 C 0.1924 0.58234 0.36406 0.0
C585 C 0.16276 0.57756 0.3216 0.0
C586 C 0.18115 0.59202 0.31415 0.0
C587 C 0.19605 0.59439 0.33554 0.0
N588 N 0.15929 0.56582 0.34963 0.0
C589 C 0.17382 0.56806 0.37075 0.0
Co590 Co 0.62657 0.13524 0.49731 0.0
Co591 Co 0.58754 0.1369 0.52778 0.0
O592 O 0.61458 0.14539 0.52818 0.0
C593 C 0.64703 0.17623 0.48314 0.0
O594 O 0.63034 0.17491 0.48064 0.0
C595 C 0.59442 0.13197 0.60186 0.0
O596 O 0.60414 0.12396 0.59149 0.0
O597 O 0.5811 0.10999 0.53122 0.0
O598 O 0.60506 0.10882 0.50426 0.0
H599 H 0.51985 0.09568 0.49001 0.0
H600 H 0.64829 0.16023 0.55663 0.0
O601 O 0.64826 0.16154 0.48978 0.0
H602 H 0.64676 0.09981 0.57844 0.0
H603 H 0.68216 0.13153 0.44918 0.0
H604 H 0.61323 0.10635 0.4409 0.0
H605 H 0.63152 0.1039 0.52587 0.0
H606 H 0.66633 0.14356 0.4881 0.0
O607 O 0.58751 0.13846 0.57963 0.0
H608 H 0.55414 0.10691 0.49012 0.0
H609 H 0.56318 0.14866 0.56625 0.0
H610 H 0.62845 0.09379 0.40167 0.0
H611 H 0.66386 0.15681 0.6094 0.0
H612 H 0.66316 0.1064 0.40568 0.0
H613 H 0.6631 0.12641 0.6206 0.0
O614 O 0.61375 0.13812 0.45519 0.0
H615 H 0.62306 0.20576 0.56112 0.0
H616 H 0.57486 0.15824 0.48199 0.0
H617 H 0.58365 0.1918 0.47621 0.0
H618 H 0.60791 0.21582 0.51598 0.0
H619 H 0.61396 0.17205 0.5658 0.0
H620 H 0.52897 0.13779 0.5672 0.0
H621 H 0.50706 0.11115 0.52877 0.0
O622 O 0.58665 0.13509 0.4761 0.0
C623 C 0.58881 0.10088 0.51899 0.0
C624 C 0.52926 0.10733 0.50681 0.0
C625 C 0.53437 0.13095 0.55016 0.0
N626 N 0.56066 0.1285 0.52799 0.0
C627 C 0.54869 0.11378 0.50692 0.0
C628 C 0.55372 0.13701 0.54957 0.0
C629 C 0.52209 0.11601 0.52858 0.0
C630 C 0.64805 0.14702 0.56118 0.0
N631 N 0.6391 0.13232 0.53812 0.0
C632 C 0.65682 0.14514 0.59117 0.0
C633 C 0.65637 0.12807 0.59746 0.0
C634 C 0.6472 0.11313 0.57383 0.0
C635 C 0.63856 0.11552 0.54414 0.0
C636 C 0.66702 0.12589 0.44723 0.0
C637 C 0.62833 0.11181 0.44294 0.0
C638 C 0.65799 0.13268 0.46914 0.0
N639 N 0.63886 0.12555 0.46694 0.0
C640 C 0.63687 0.10469 0.4206 0.0
C641 C 0.65635 0.11179 0.42284 0.0
C642 C 0.59753 0.13661 0.45092 0.0
C643 C 0.61243 0.19542 0.54371 0.0
C644 C 0.58546 0.16861 0.49934 0.0
C645 C 0.59035 0.18759 0.496 0.0
C646 C 0.60395 0.20106 0.51834 0.0
N647 N 0.59385 0.16318 0.5243 0.0
C648 C 0.60717 0.1763 0.54634 0.0
Co649 Co 0.49331 0.62921 0.67628 0.0
Co650 Co 0.45219 0.5893 0.7035 0.0
O651 O 0.4712 0.61618 0.70709 0.0
C652 C 0.47255 0.64986 0.66572 0.0
O653 O 0.45706 0.63324 0.66419 0.0
C654 C 0.46606 0.59303 0.77604 0.0
O655 O 0.48335 0.60447 0.76481 0.0
O656 O 0.47217 0.5821 0.70034 0.0
O657 O 0.49846 0.60775 0.6804 0.0
H658 H 0.42294 0.52389 0.65199 0.0
H659 H 0.48976 0.64931 0.73803 0.0
O660 O 0.48851 0.65095 0.67122 0.0
H661 H 0.54883 0.64767 0.75682 0.0
H662 H 0.55241 0.68627 0.63157 0.0
H663 H 0.50906 0.6176 0.61738 0.0
H664 H 0.52967 0.6337 0.70354 0.0
H665 H 0.52457 0.66926 0.67013 0.0
O666 O 0.45204 0.58648 0.75517 0.0
H667 H 0.44666 0.55787 0.65673 0.0
H668 H 0.41722 0.56344 0.74369 0.0
H669 H 0.53682 0.63402 0.57843 0.0
H670 H 0.50857 0.66359 0.79157 0.0
H671 H 0.55871 0.66861 0.58541 0.0
H672 H 0.53832 0.66277 0.80126 0.0
O673 O 0.47776 0.61745 0.63348 0.0
H674 H 0.42144 0.62405 0.75506 0.0
H675 H 0.41701 0.57944 0.66312 0.0
H676 H 0.39271 0.58903 0.66617 0.0
H677 H 0.39484 0.61149 0.71243 0.0
H678 H 0.44553 0.6142 0.75083 0.0
H679 H 0.39328 0.52949 0.74009 0.0
H680 H 0.39601 0.50949 0.69389 0.0
O681 O 0.45177 0.59118 0.65194 0.0
C682 C 0.48942 0.59049 0.69034 0.0
C683 C 0.42156 0.53247 0.67216 0.0
C684 C 0.40492 0.5356 0.72164 0.0
N685 N 0.43324 0.56265 0.70026 0.0
C686 C 0.43492 0.55172 0.67491 0.0
C687 C 0.41854 0.55481 0.72358 0.0
C688 C 0.40646 0.52439 0.6957 0.0
C689 C 0.50278 0.64906 0.74193 0.0
N690 N 0.50866 0.64078 0.71763 0.0
C691 C 0.51333 0.65709 0.77235 0.0
C692 C 0.53 0.65661 0.7778 0.0
C693 C 0.53591 0.64813 0.75288 0.0
C694 C 0.52498 0.64021 0.7228 0.0
C695 C 0.54299 0.67119 0.62832 0.0
C696 C 0.5186 0.63263 0.62072 0.0
C697 C 0.52719 0.66149 0.65003 0.0
N698 N 0.5153 0.64243 0.64619 0.0
C699 C 0.53426 0.64186 0.59853 0.0
C700 C 0.54653 0.66127 0.60243 0.0
C701 C 0.46199 0.6024 0.62784 0.0
C702 C 0.42034 0.61423 0.73483 0.0
C703 C 0.41807 0.58927 0.68323 0.0
C704 C 0.40424 0.59461 0.6849 0.0
C705 C 0.40543 0.60719 0.71087 0.0
N706 N 0.43265 0.59623 0.70682 0.0
C707 C 0.4339 0.60855 0.73239 0.0
C708 C 0.52756 0.139 0.16719 0.0
C709 C 0.53988 0.14112 0.13954 0.0
C710 C 0.53343 0.13999 0.20198 0.0
C711 C 0.57624 0.1566 0.25676 0.0
H712 H 0.543 0.11611 0.31956 0.0
C713 C 0.60254 0.14078 0.38582 0.0
C714 C 0.59083 0.13717 0.41522 0.0
C715 C 0.59609 0.14192 0.35245 0.0
C716 C 0.55236 0.12762 0.30243 0.0
H717 H 0.56813 0.14625 0.12689 0.0
H718 H 0.57812 0.14789 0.18696 0.0
H719 H 0.53172 0.11813 0.26135 0.0
H720 H 0.56305 0.13167 0.43249 0.0
H721 H 0.55206 0.13383 0.37469 0.0
H722 H 0.59697 0.16595 0.29764 0.0
C723 C 0.56407 0.1457 0.18192 0.0
C724 C 0.54586 0.12882 0.26923 0.0
C725 C 0.55823 0.14462 0.14739 0.0
C726 C 0.57251 0.13449 0.4105 0.0
C727 C 0.56611 0.13561 0.3773 0.0
C728 C 0.58273 0.1554 0.28993 0.0
C729 C 0.55172 0.14326 0.20955 0.0
C730 C 0.55783 0.14318 0.24596 0.0
C731 C 0.57782 0.1394 0.34798 0.0
C732 C 0.57092 0.14079 0.31293 0.0
H733 H 0.51334 0.13628 0.162 0.0
H734 H 0.52367 0.13813 0.22293 0.0
H735 H 0.58567 0.16795 0.23941 0.0
H736 H 0.6167 0.14287 0.38858 0.0
H737 H 0.60532 0.14465 0.33013 0.0
C738 C 0.39156 0.53384 0.3441 0.0
C739 C 0.40314 0.5434 0.31524 0.0
C740 C 0.39756 0.54061 0.37812 0.0
C741 C 0.44081 0.57075 0.42896 0.0
H742 H 0.40634 0.57351 0.49564 0.0
C743 C 0.46606 0.60777 0.56283 0.0
C744 C 0.45496 0.59732 0.59156 0.0
C745 C 0.45948 0.60211 0.52864 0.0
C746 C 0.41608 0.57274 0.47728 0.0
H747 H 0.43013 0.56759 0.2996 0.0
H748 H 0.44026 0.57931 0.35837 0.0
H749 H 0.39497 0.56071 0.43708 0.0
H750 H 0.42806 0.57291 0.60679 0.0
H751 H 0.4168 0.56318 0.54755 0.0
H752 H 0.46189 0.5827 0.46912 0.0
C753 C 0.42671 0.5665 0.35489 0.0
C754 C 0.40956 0.56533 0.44391 0.0
C755 C 0.42078 0.55979 0.32111 0.0
C756 C 0.43702 0.58138 0.58538 0.0
C757 C 0.43046 0.57581 0.55138 0.0
C758 C 0.44733 0.57817 0.46226 0.0
C759 C 0.41523 0.55697 0.38373 0.0
C760 C 0.42187 0.56428 0.41946 0.0
C761 C 0.44167 0.58599 0.52269 0.0
C762 C 0.43501 0.57918 0.48676 0.0
H763 H 0.37792 0.52117 0.34046 0.0
H764 H 0.3885 0.53292 0.40002 0.0
H765 H 0.45055 0.56986 0.41076 0.0
H766 H 0.47992 0.62011 0.56669 0.0
H767 H 0.46833 0.61028 0.50687 0.0
C768 C 0.85779 0.46657 0.72071 0.0
C769 C 0.86943 0.46531 0.74638 0.0
C770 C 0.8574 0.45982 0.68682 0.0
C771 C 0.86529 0.45169 0.61278 0.0
H772 H 0.86936 0.4063 0.6061 0.0
C773 C 0.87504 0.42476 0.48056 0.0
C774 C 0.86529 0.40514 0.47442 0.0
C775 C 0.87561 0.43187 0.51394 0.0
C776 C 0.86798 0.41884 0.60751 0.0
H777 H 0.89075 0.45741 0.75657 0.0
H778 H 0.89071 0.44642 0.69739 0.0
H779 H 0.86987 0.41965 0.66335 0.0
H780 H 0.84885 0.3775 0.49846 0.0
H781 H 0.84945 0.38996 0.55713 0.0
H782 H 0.86267 0.45045 0.55701 0.0
C783 C 0.88128 0.45182 0.70348 0.0
C784 C 0.86857 0.42668 0.6403 0.0
C785 C 0.88145 0.45827 0.73729 0.0
C786 C 0.85655 0.39269 0.50258 0.0
C787 C 0.85691 0.39984 0.5361 0.0
C788 C 0.8645 0.44373 0.58001 0.0
C789 C 0.86884 0.45196 0.67814 0.0
C790 C 0.8675 0.44334 0.64327 0.0
C791 C 0.86622 0.41953 0.54196 0.0
C792 C 0.8661 0.42737 0.57697 0.0
H793 H 0.8483 0.47183 0.72728 0.0
H794 H 0.8476 0.46005 0.66792 0.0
H795 H 0.8645 0.46455 0.61413 0.0
H796 H 0.88215 0.43471 0.45944 0.0
H797 H 0.88338 0.44708 0.51772 0.0
C798 C 0.43965 0.86325 0.6585 0.0
C799 C 0.45504 0.86036 0.65218 0.0
C800 C 0.43264 0.86188 0.69225 0.0
C801 C 0.44539 0.86418 0.78479 0.0
H802 H 0.39092 0.83834 0.79904 0.0
C803 C 0.41343 0.84884 0.92192 0.0
C804 C 0.39925 0.85349 0.92869 0.0
C805 C 0.41918 0.84844 0.88781 0.0
C806 C 0.40614 0.84573 0.79534 0.0
H807 H 0.47529 0.85397 0.67652 0.0
H808 H 0.46286 0.85144 0.73583 0.0
H809 H 0.4036 0.84007 0.74025 0.0
H810 H 0.37945 0.86062 0.90471 0.0
H811 H 0.38972 0.86004 0.84459 0.0
H812 H 0.44796 0.86987 0.83979 0.0
C813 C 0.45637 0.85491 0.71446 0.0
C814 C 0.41341 0.84672 0.76179 0.0
C815 C 0.46345 0.85632 0.68054 0.0
C816 C 0.3904 0.85699 0.90034 0.0
C817 C 0.39624 0.85663 0.86599 0.0
C818 C 0.43814 0.86316 0.81829 0.0
C819 C 0.44081 0.85755 0.72052 0.0
C820 C 0.43311 0.85599 0.75621 0.0
C821 C 0.41097 0.85275 0.85959 0.0
C822 C 0.41846 0.85391 0.82388 0.0
H823 H 0.43288 0.86654 0.63736 0.0
H824 H 0.42089 0.86437 0.69622 0.0
H825 H 0.46062 0.87169 0.78116 0.0
H826 H 0.42045 0.84586 0.943 0.0
H827 H 0.43027 0.845 0.88356 0.0
C828 C 0.55796 0.4224 0.07435 0.0
C829 C 0.54171 0.40457 0.07961 0.0
C830 C 0.56498 0.42858 0.04081 0.0
C831 C 0.56519 0.41146 0.95234 0.0
H832 H 0.58285 0.46371 0.92612 0.0
C833 C 0.5822 0.43794 0.81078 0.0
C834 C 0.59832 0.4557 0.80434 0.0
C835 C 0.57639 0.43176 0.84486 0.0
C836 C 0.57824 0.44917 0.9333 0.0
H837 H 0.51994 0.37938 0.05354 0.0
H838 H 0.53222 0.39038 -0.00554 0.0
H839 H 0.56932 0.45252 0.98419 0.0
H840 H 0.62108 0.48084 0.82884 0.0
H841 H 0.61077 0.46992 0.88889 0.0
H842 H 0.57396 0.40809 0.90127 0.0
C843 C 0.53958 0.39939 0.01663 0.0
C844 C 0.57043 0.44274 0.96642 0.0
C845 C 0.5325 0.39315 0.05038 0.0
C846 C 0.60863 0.46708 0.83292 0.0
C847 C 0.6027 0.46089 0.86722 0.0
C848 C 0.57298 0.41789 0.91919 0.0
C849 C 0.55592 0.41716 0.01163 0.0
C850 C 0.56378 0.42381 0.97621 0.0
C851 C 0.58648 0.44319 0.87339 0.0
C852 C 0.57948 0.43677 0.90933 0.0
H853 H 0.56546 0.43164 0.09617 0.0
H854 H 0.57774 0.44222 0.03781 0.0
H855 H 0.56049 0.3969 0.95943 0.0
H856 H 0.5738 0.42879 0.78951 0.0
H857 H 0.56366 0.4182 0.84883 0.0
C858 C 0.11748 0.54187 0.23984 0.0
C859 C 0.12907 0.53422 0.24814 0.0
C860 C 0.11741 0.54832 0.20614 0.0
C861 C 0.12966 0.57294 0.14224 0.0
H862 H 0.13309 0.54781 0.05864 0.0
C863 C 0.141 0.60611 0.00391 0.0
C864 C 0.13175 0.59359 0.97607 0.0
C865 C 0.14056 0.59904 0.03753 0.0
C866 C 0.13193 0.5549 0.08173 0.0
H867 H 0.14922 0.52666 0.22771 0.0
H868 H 0.14951 0.53842 0.16852 0.0
H869 H 0.13179 0.53401 0.11583 0.0
H870 H 0.11384 0.56406 0.96172 0.0
H871 H 0.11246 0.55185 0.02026 0.0
H872 H 0.12903 0.59342 0.1081 0.0
C873 C 0.14022 0.53915 0.188 0.0
C874 C 0.13146 0.54712 0.11453 0.0
C875 C 0.14007 0.53241 0.22179 0.0
C876 C 0.12134 0.57403 0.98263 0.0
C877 C 0.12068 0.56702 0.01614 0.0
C878 C 0.12993 0.58061 0.10943 0.0
C879 C 0.12917 0.54755 0.18007 0.0
C880 C 0.13017 0.55597 0.14515 0.0
C881 C 0.13066 0.57938 0.04381 0.0
C882 C 0.13092 0.5716 0.07879 0.0
H883 H 0.10864 0.54316 0.25961 0.0
H884 H 0.10829 0.55415 0.20066 0.0
H885 H 0.12906 0.58034 0.16536 0.0
H886 H 0.14922 0.62125 -0.00058 0.0
H887 H 0.14848 0.60894 0.05827 0.0
C888 C 0.54277 0.33193 0.133 0.0
C889 C 0.52538 0.33128 0.13848 0.0
C890 C 0.54323 0.31548 0.1243 0.0
C891 C 0.51394 0.2682 0.08548 0.0
H892 H 0.54939 0.25633 0.13072 0.0
C893 C 0.5424 0.21096 0.07435 0.0
C894 C 0.52496 0.19423 0.06953 0.0
C895 C 0.543 0.2281 0.08144 0.0
C896 C 0.53959 0.25956 0.11744 0.0
H897 H 0.49485 0.3128 0.13948 0.0
H898 H 0.4957 0.28417 0.12431 0.0
H899 H 0.5495 0.28548 0.146 0.0
H900 H 0.49446 0.1824 0.06819 0.0
H901 H 0.49548 0.21213 0.08113 0.0
H902 H 0.50407 0.24241 0.05675 0.0
C903 C 0.50896 0.29742 0.12645 0.0
C904 C 0.53963 0.27625 0.12628 0.0
C905 C 0.50849 0.31381 0.13538 0.0
C906 C 0.50815 0.19504 0.07159 0.0
C907 C 0.50874 0.21214 0.07884 0.0
C908 C 0.51396 0.25158 0.07649 0.0
C909 C 0.52632 0.29808 0.12065 0.0
C910 C 0.5267 0.28066 0.11061 0.0
C911 C 0.52616 0.22888 0.084 0.0
C912 C 0.52668 0.24696 0.09256 0.0
H913 H 0.55604 0.34516 0.13526 0.0
H914 H 0.55682 0.31645 0.11977 0.0
H915 H 0.50402 0.27137 0.07251 0.0
H916 H 0.55562 0.21085 0.07272 0.0
H917 H 0.55667 0.24077 0.08473 0.0
C918 C 0.33128 0.54483 0.25358 0.0
C919 C 0.33081 0.5274 0.25043 0.0
C920 C 0.31469 0.54535 0.26072 0.0
C921 C 0.26762 0.51701 0.30026 0.0
H922 H 0.25454 0.54974 0.24811 0.0
C923 C 0.19376 0.50947 0.31062 0.0
C924 C 0.19232 0.52595 0.30998 0.0
C925 C 0.21104 0.51038 0.30385 0.0
C926 C 0.25811 0.54072 0.2633 0.0
H927 H 0.31253 0.49685 0.25193 0.0
H928 H 0.28368 0.4978 0.26455 0.0
H929 H 0.28408 0.55008 0.23513 0.0
H930 H 0.20796 0.55638 0.30206 0.0
H931 H 0.23828 0.55804 0.29093 0.0
H932 H 0.24188 0.50776 0.32873 0.0
C933 C 0.29688 0.51105 0.26169 0.0
C934 C 0.27501 0.5409 0.25577 0.0
C935 C 0.31339 0.51052 0.25424 0.0
C936 C 0.20859 0.54341 0.30257 0.0
C937 C 0.22594 0.54434 0.29601 0.0
C938 C 0.25083 0.51694 0.30798 0.0
C939 C 0.29736 0.52846 0.2652 0.0
C940 C 0.27982 0.52888 0.27392 0.0
C941 C 0.22737 0.52782 0.29655 0.0
C942 C 0.24573 0.52863 0.28934 0.0
H943 H 0.34447 0.55809 0.25067 0.0
H944 H 0.31549 0.55897 0.26345 0.0
H945 H 0.27113 0.50784 0.31512 0.0
H946 H 0.18148 0.49577 0.31599 0.0
H947 H 0.21149 0.49732 0.30383 0.0
C948 C 0.66359 0.21145 0.4747 0.0
C949 C 0.66447 0.19471 0.47799 0.0
C950 C 0.68012 0.22887 0.46953 0.0
C951 C 0.73245 0.25246 0.47818 0.0
H952 H 0.73222 0.28827 0.41144 0.0
C953 C 0.80095 0.31435 0.4221 0.0
C954 C 0.8022 0.33216 0.41995 0.0
C955 C 0.78386 0.29825 0.4309 0.0
C956 C 0.73244 0.2785 0.43046 0.0
H957 H 0.68337 0.18314 0.47839 0.0
H958 H 0.71205 0.21335 0.4687 0.0
H959 H 0.70286 0.25884 0.42376 0.0
H960 H 0.78642 0.34703 0.425 0.0
H961 H 0.75643 0.31875 0.44018 0.0
H962 H 0.76212 0.27194 0.48424 0.0
C963 C 0.69868 0.21314 0.47079 0.0
C964 C 0.71562 0.26165 0.43759 0.0
C965 C 0.6822 0.19577 0.47613 0.0
C966 C 0.78592 0.3335 0.42653 0.0
C967 C 0.76874 0.31732 0.43505 0.0
C968 C 0.74926 0.26922 0.47089 0.0
C969 C 0.69786 0.22992 0.46743 0.0
C970 C 0.71547 0.24832 0.46124 0.0
C971 C 0.76758 0.29956 0.43751 0.0
C972 C 0.74948 0.28232 0.44667 0.0
H973 H 0.65015 0.21112 0.47625 0.0
H974 H 0.679 0.24153 0.4675 0.0
H975 H 0.73279 0.24272 0.49712 0.0
H976 H 0.81321 0.31281 0.41719 0.0
H977 H 0.78333 0.28471 0.43214 0.0
C978 C 0.48748 0.8028 0.59138 0.0
C979 C 0.47063 0.80358 0.58992 0.0
C980 C 0.48701 0.78583 0.59913 0.0
C981 C 0.4569 0.73884 0.63986 0.0
H982 H 0.49167 0.72662 0.59287 0.0
C983 C 0.45421 0.66661 0.65502 0.0
C984 C 0.47172 0.66733 0.659 0.0
C985 C 0.45353 0.68301 0.64693 0.0
C986 C 0.48198 0.72992 0.60644 0.0
H987 H 0.44004 0.78703 0.59488 0.0
H988 H 0.43921 0.75728 0.60781 0.0
H989 H 0.49126 0.75537 0.57695 0.0
H990 H 0.50224 0.68591 0.65825 0.0
H991 H 0.50101 0.71444 0.64418 0.0
H992 H 0.44756 0.71323 0.66915 0.0
C993 C 0.45281 0.7699 0.60361 0.0
C994 C 0.48176 0.74641 0.59735 0.0
C995 C 0.45328 0.78693 0.596 0.0
C996 C 0.48851 0.68484 0.65528 0.0
C997 C 0.48782 0.70117 0.64698 0.0
C998 C 0.45706 0.72227 0.64881 0.0
C999 C 0.46969 0.76916 0.60541 0.0
C1000 C 0.46934 0.75118 0.61416 0.0
C1001 C 0.47033 0.70042 0.64242 0.0
C1002 C 0.46973 0.71773 0.63241 0.0
H1003 H 0.5011 0.81539 0.58702 0.0
H1004 H 0.5003 0.78587 0.60084 0.0
H1005 H 0.44732 0.7422 0.65367 0.0
H1006 H 0.44102 0.65335 0.65779 0.0
H1007 H 0.43984 0.68198 0.64339 0.0
C1008 C 0.68624 0.48824 0.74381 0.0
C1009 C 0.66892 0.47142 0.73868 0.0
C1010 C 0.70258 0.48762 0.75249 0.0
C1011 C 0.72461 0.45789 0.7483 0.0
H1012 H 0.75584 0.49002 0.82416 0.0
C1013 C 0.79006 0.45501 0.7998 0.0
C1014 C 0.80611 0.4724 0.80847 0.0
C1015 C 0.77279 0.45407 0.79221 0.0
C1016 C 0.74743 0.48112 0.80264 0.0
H1017 H 0.65527 0.44074 0.73778 0.0
H1018 H 0.68394 0.43969 0.75267 0.0
H1019 H 0.72692 0.49008 0.80814 0.0
H1020 H 0.81665 0.50246 0.81582 0.0
H1021 H 0.78681 0.5009 0.80188 0.0
H1022 H 0.7453 0.44922 0.74225 0.0
C1023 C 0.6848 0.45334 0.75003 0.0
C1024 C 0.73083 0.48114 0.79353 0.0
C1025 C 0.66839 0.45395 0.74168 0.0
C1026 C 0.80453 0.4888 0.80947 0.0
C1027 C 0.78734 0.48788 0.80167 0.0
C1028 C 0.74133 0.45799 0.75722 0.0
C1029 C 0.70201 0.47017 0.75592 0.0
C1030 C 0.71932 0.46964 0.76611 0.0
C1031 C 0.77124 0.47052 0.79295 0.0
C1032 C 0.75303 0.46973 0.78433 0.0
H1033 H 0.68716 0.50194 0.74168 0.0
H1034 H 0.7157 0.50083 0.75642 0.0
H1035 H 0.71608 0.44899 0.72687 0.0
H1036 H 0.79079 0.4421 0.79899 0.0
H1037 H 0.76063 0.44042 0.78608 0.0
C1038 C 0.21141 0.66404 0.93314 0.0
C1039 C 0.1955 0.6657 0.9246 0.0
C1040 C 0.2283 0.67992 0.94393 0.0
C1041 C 0.24667 0.72716 0.98302 0.0
H1042 H 0.29471 0.73815 0.9422 0.0
C1043 C 0.31376 0.80016 -0.00284 0.0
C1044 C 0.3314 0.80112 0.00047 0.0
C1045 C 0.29739 0.78292 -0.00969 0.0
C1046 C 0.28147 0.73514 0.95433 0.0
H1047 H 0.18488 0.68534 0.92056 0.0
H1048 H 0.21428 0.71294 0.93946 0.0
H1049 H 0.26578 0.70925 0.92552 0.0
H1050 H 0.34561 0.7846 8e-05 0.0
H1051 H 0.31693 0.75438 0.98876 0.0
H1052 H 0.26224 0.75294 0.0119 0.0
C1053 C 0.21366 0.69936 0.93802 0.0
C1054 C 0.2649 0.71861 0.94467 0.0
C1055 C 0.19686 0.68356 0.92694 0.0
C1056 C 0.33225 0.78436 -0.00256 0.0
C1057 C 0.31583 0.76706 -0.00924 0.0
C1058 C 0.26323 0.7436 -0.00714 0.0
C1059 C 0.22954 0.69771 0.94672 0.0
C1060 C 0.2473 0.7146 0.95853 0.0
C1061 C 0.29822 0.76615 0.98685 0.0
C1062 C 0.28081 0.74796 0.97824 0.0
H1063 H 0.21082 0.65047 0.93153 0.0
H1064 H 0.2403 0.67823 0.95063 0.0
H1065 H 0.23334 0.72427 -0.0054 0.0
H1066 H 0.3126 0.81281 -0.00082 0.0
H1067 H 0.28415 0.78284 0.98689 0.0
C1068 C 0.57625 0.13736 0.64824 0.0
C1069 C 0.58959 0.13194 0.63909 0.0
C1070 C 0.57039 0.13625 0.68276 0.0
C1071 C 0.56782 0.11296 0.76691 0.0
H1072 H 0.55612 0.15064 0.80223 0.0
C1073 C 0.55395 0.12233 0.91185 0.0
C1074 C 0.53804 0.12423 0.91885 0.0
C1075 C 0.55925 0.12163 0.87748 0.0
C1076 C 0.55913 0.13993 0.79248 0.0
H1077 H 0.60764 0.12158 0.65916 0.0
H1078 H 0.59777 0.1202 0.72024 0.0
H1079 H 0.56944 0.15424 0.74371 0.0
H1080 H 0.51487 0.12637 0.8958 0.0
H1081 H 0.52455 0.12566 0.83506 0.0
H1082 H 0.55809 0.09911 0.81658 0.0
C1083 C 0.59155 0.12488 0.70032 0.0
C1084 C 0.56677 0.14196 0.75904 0.0
C1085 C 0.5973 0.12579 0.66546 0.0
C1086 C 0.52717 0.12489 0.89094 0.0
C1087 C 0.53272 0.12455 0.8564 0.0
C1088 C 0.56044 0.1111 0.80064 0.0
C1089 C 0.5779 0.12997 0.70923 0.0
C1090 C 0.57101 0.1284 0.74571 0.0
C1091 C 0.54892 0.12312 0.84953 0.0
C1092 C 0.55591 0.1245 0.81348 0.0
H1093 H 0.56989 0.14204 0.62861 0.0
H1094 H 0.55957 0.1399 0.68848 0.0
H1095 H 0.57067 0.10213 0.75725 0.0
H1096 H 0.56247 0.12163 0.933 0.0
H1097 H 0.57185 0.12064 0.87273 0.0
C1098 C 0.47395 0.59842 0.83992 0.0
C1099 C 0.46246 0.58677 0.8127 0.0
C1100 C 0.46918 0.59273 0.87481 0.0
C1101 C 0.44191 0.55159 0.93149 0.0
H1102 H 0.4344 0.58618 0.99012 0.0
C1103 C 0.40296 0.52871 0.06466 0.0
C1104 C 0.41036 0.54211 0.09183 0.0
C1105 C 0.40975 0.53393 0.0304 0.0
C1106 C 0.4367 0.57645 0.97435 0.0
H1107 H 0.43771 0.55971 0.80009 0.0
H1108 H 0.42965 0.54972 0.86079 0.0
H1109 H 0.44765 0.59604 0.9316 0.0
H1110 H 0.43078 0.5714 0.10447 0.0
H1111 H 0.44283 0.5802 0.04561 0.0
H1112 H 0.43116 0.53204 0.97428 0.0
C1113 C 0.44216 0.56324 0.85533 0.0
C1114 C 0.44431 0.58214 0.9409 0.0
C1115 C 0.4467 0.56904 0.82068 0.0
C1116 C 0.42458 0.56074 0.08414 0.0
C1117 C 0.43147 0.56586 0.05022 0.0
C1118 C 0.43452 0.54597 0.96519 0.0
C1119 C 0.45313 0.57517 0.88267 0.0
C1120 C 0.44684 0.56972 0.91915 0.0
C1121 C 0.42415 0.55257 0.02291 0.0
C1122 C 0.43175 0.55831 0.98693 0.0
H1123 H 0.48617 0.61213 0.83431 0.0
H1124 H 0.47783 0.60211 0.89564 0.0
H1125 H 0.44376 0.54179 0.91504 0.0
H1126 H 0.39198 0.51426 0.06985 0.0
H1127 H 0.40364 0.52341 0.0098 0.0
C1128 C 0.86096 0.43478 0.97599 0.0
C1129 C 0.86284 0.45257 0.96895 0.0
C1130 C 0.85938 0.42839 0.01036 0.0
C1131 C 0.86903 0.44581 0.10166 0.0
H1132 H 0.83784 0.3924 0.1239 0.0
C1133 C 0.85367 0.4183 0.24271 0.0
C1134 C 0.85782 0.40392 0.25081 0.0
C1135 C 0.85319 0.42333 0.20805 0.0
C1136 C 0.84667 0.40731 0.11789 0.0
H1137 H 0.86402 0.47742 -0.00785 0.0
H1138 H 0.86063 0.46599 0.05237 0.0
H1139 H 0.83843 0.40327 0.06397 0.0
H1140 H 0.86395 0.38299 0.22885 0.0
H1141 H 0.8628 0.39171 0.16769 0.0
H1142 H 0.87687 0.44983 0.15585 0.0
C1143 C 0.86091 0.4572 0.03136 0.0
C1144 C 0.84708 0.41357 0.08365 0.0
C1145 C 0.86276 0.46372 -0.0031 0.0
C1146 C 0.86081 0.39418 0.22338 0.0
C1147 C 0.86008 0.3991 0.1885 0.0
C1148 C 0.8684 0.43959 0.13592 0.0
C1149 C 0.85938 0.43952 0.03849 0.0
C1150 C 0.85834 0.4329 0.0751 0.0
C1151 C 0.85662 0.41396 0.18069 0.0
C1152 C 0.85727 0.4203 0.14427 0.0
H1153 H 0.86112 0.42591 0.95498 0.0
H1154 H 0.8586 0.41489 0.01485 0.0
H1155 H 0.87817 0.46071 0.09592 0.0
H1156 H 0.85124 0.42607 0.26318 0.0
H1157 H 0.85028 0.43469 0.20259 0.0
C1158 C 0.4379 0.86375 0.42059 0.0
C1159 C 0.45627 0.86742 0.42873 0.0
C1160 C 0.43313 0.8656 0.38644 0.0
C1161 C 0.45399 0.8876 0.30129 0.0
H1162 H 0.40357 0.85195 0.26729 0.0
C1163 C 0.43138 0.87684 0.15636 0.0
C1164 C 0.41385 0.87531 0.14812 0.0
C1165 C 0.4371 0.87817 0.1911 0.0
C1166 C 0.41758 0.86216 0.27668 0.0
H1167 H 0.48398 0.87564 0.40735 0.0
H1168 H 0.47541 0.87827 0.34693 0.0
H1169 H 0.41279 0.84839 0.32624 0.0
H1170 H 0.3888 0.87454 0.16931 0.0
H1171 H 0.39869 0.87641 0.23071 0.0
H1172 H 0.45888 0.90084 0.25084 0.0
C1173 C 0.46486 0.87439 0.36733 0.0
C1174 C 0.42291 0.86013 0.31038 0.0
C1175 C 0.46973 0.87275 0.40181 0.0
C1176 C 0.40237 0.87572 0.17511 0.0
C1177 C 0.40798 0.87672 0.21006 0.0
C1178 C 0.44872 0.88946 0.26734 0.0
C1179 C 0.4465 0.8709 0.35936 0.0
C1180 C 0.44115 0.87285 0.32312 0.0
C1181 C 0.42529 0.87771 0.21823 0.0
C1182 C 0.43047 0.87676 0.25485 0.0
H1183 H 0.42722 0.85983 0.44075 0.0
H1184 H 0.41901 0.8632 0.38143 0.0
H1185 H 0.46803 0.89781 0.3105 0.0
H1186 H 0.44058 0.87673 0.13595 0.0
H1187 H 0.45043 0.87877 0.1968 0.0
C1188 C 0.56956 0.44275 0.5764 0.0
C1189 C 0.58753 0.45859 0.58229 0.0
C1190 C 0.56274 0.43735 0.5425 0.0
C1191 C 0.57044 0.45346 0.45018 0.0
H1192 H 0.54332 0.39937 0.43152 0.0
C1193 C 0.5581 0.42195 0.31202 0.0
C1194 C 0.53956 0.40783 0.30334 0.0
C1195 C 0.56279 0.42827 0.34637 0.0
C1196 C 0.55065 0.41448 0.43652 0.0
H1197 H 0.61232 0.48155 0.55768 0.0
H1198 H 0.60068 0.47167 0.49776 0.0
H1199 H 0.55442 0.41075 0.49068 0.0
H1200 H 0.51147 0.38898 0.324 0.0
H1201 H 0.51992 0.39987 0.3848 0.0
H1202 H 0.56725 0.45706 0.39545 0.0
C1203 C 0.59169 0.46365 0.5195 0.0
C1204 C 0.557 0.42104 0.47036 0.0
C1205 C 0.59842 0.46928 0.55368 0.0
C1206 C 0.52586 0.39987 0.32995 0.0
C1207 C 0.53067 0.40607 0.36461 0.0
C1208 C 0.5643 0.44688 0.41623 0.0
C1209 C 0.57386 0.44745 0.51359 0.0
C1210 C 0.567 0.44061 0.47759 0.0
C1211 C 0.54912 0.42049 0.3729 0.0
C1212 C 0.55444 0.42735 0.40916 0.0
H1213 H 0.56069 0.43448 0.59809 0.0
H1214 H 0.54874 0.42516 0.539 0.0
H1215 H 0.57782 0.46859 0.45495 0.0
H1216 H 0.56903 0.42842 0.2922 0.0
H1217 H 0.57719 0.43919 0.35226 0.0
C1218 C 0.13608 0.53374 0.49879 0.0
C1219 C 0.13616 0.54514 0.47115 0.0
C1220 C 0.1382 0.54015 0.53339 0.0
C1221 C 0.1531 0.5838 0.58638 0.0
H1222 H 0.12272 0.54773 0.65834 0.0
C1223 C 0.13913 0.6038 0.72513 0.0
C1224 C 0.14156 0.59393 0.75298 0.0
C1225 C 0.14006 0.59875 0.69044 0.0
C1226 C 0.13137 0.55791 0.63849 0.0
H1227 H 0.13844 0.57214 0.45792 0.0
H1228 H 0.14145 0.58297 0.51798 0.0
H1229 H 0.12133 0.53682 0.59839 0.0
H1230 H 0.14735 0.57136 0.76632 0.0
H1231 H 0.14869 0.56249 0.70601 0.0
H1232 H 0.16258 0.60497 0.62668 0.0
C1233 C 0.14034 0.56935 0.51315 0.0
C1234 C 0.13069 0.55167 0.60421 0.0
C1235 C 0.13848 0.56306 0.47866 0.0
C1236 C 0.14536 0.57924 0.74551 0.0
C1237 C 0.14605 0.57407 0.711 0.0
C1238 C 0.15357 0.59008 0.62063 0.0
C1239 C 0.14019 0.55798 0.54097 0.0
C1240 C 0.14152 0.56454 0.57771 0.0
C1241 C 0.14318 0.58361 0.68322 0.0
C1242 C 0.14272 0.57717 0.64692 0.0
H1243 H 0.13448 0.51993 0.49369 0.0
H1244 H 0.13834 0.53116 0.55415 0.0
H1245 H 0.16189 0.59405 0.56676 0.0
H1246 H 0.13626 0.61523 0.73012 0.0
H1247 H 0.13776 0.60626 0.66931 0.0
C1248 C 0.50886 0.0697 0.0338 0.0
C1249 C 0.49855 0.07928 0.0368 0.0
C1250 C 0.49947 0.04992 0.03215 0.0
C1251 C 0.45382 0.0086 0.00868 0.0
H1252 H 0.47049 0.98043 0.06619 0.0
C1253 C 0.40928 0.92747 0.02307 0.0
C1254 C 0.41876 0.91707 0.02573 0.0
C1255 C 0.41938 0.94725 0.02362 0.0
C1256 C 0.46581 0.98806 0.04952 0.0
H1257 H 0.47023 0.07544 0.04061 0.0
H1258 H 0.45394 0.04099 0.03737 0.0
H1259 H 0.48754 0.01497 0.06864 0.0
H1260 H 0.44644 0.91944 0.03029 0.0
H1261 H 0.46407 0.95393 0.03035 0.0
H1262 H 0.43227 0.98183 0.98912 0.0
C1263 C 0.46928 0.04883 0.03616 0.0
C1264 C 0.47556 0.00785 0.05105 0.0
C1265 C 0.47864 0.06858 0.03819 0.0
C1266 C 0.43864 0.92697 0.02847 0.0
C1267 C 0.44876 0.94678 0.02871 0.0
C1268 C 0.44417 0.98883 0.00689 0.0
C1269 C 0.47958 0.03929 0.03309 0.0
C1270 C 0.46957 0.01831 0.03084 0.0
C1271 C 0.43926 0.95718 0.02648 0.0
C1272 C 0.44994 0.97828 0.0275 0.0
H1273 H 0.5242 0.07746 0.03275 0.0
H1274 H 0.50777 0.04294 0.02957 0.0
H1275 H 0.44906 0.01631 -0.0076 0.0
H1276 H 0.39399 0.92036 0.02101 0.0
H1277 H 0.41153 0.95474 0.02242 0.0
C1278 C 0.48139 0.41213 0.17081 0.0
C1279 C 0.49875 0.41837 0.18814 0.0
C1280 C 0.47181 0.42229 0.17353 0.0
C1281 C 0.47878 0.4695 0.19817 0.0
H1282 H 0.42387 0.44204 0.20119 0.0
C1283 C 0.41203 0.48317 0.22698 0.0
C1284 C 0.41848 0.50043 0.20915 0.0
C1285 C 0.42204 0.47341 0.22492 0.0
C1286 C 0.43921 0.44997 0.20078 0.0
H1287 H 0.51954 0.44014 0.22231 0.0
H1288 H 0.50256 0.45756 0.22788 0.0
H1289 H 0.44083 0.42463 0.19815 0.0
H1290 H 0.44048 0.52087 0.17491 0.0
H1291 H 0.45762 0.50356 0.17049 0.0
H1292 H 0.47714 0.49484 0.20217 0.0
C1293 C 0.49655 0.44504 0.21145 0.0
C1294 C 0.44896 0.43996 0.19848 0.0
C1295 C 0.50625 0.43498 0.20844 0.0
C1296 C 0.43516 0.50767 0.18915 0.0
C1297 C 0.44507 0.49779 0.18679 0.0
C1298 C 0.46902 0.47952 0.2008 0.0
C1299 C 0.47922 0.43885 0.19397 0.0
C1300 C 0.46887 0.44958 0.19699 0.0
C1301 C 0.43864 0.48052 0.20466 0.0
C1302 C 0.4491 0.46989 0.20205 0.0
H1303 H 0.47524 0.39947 0.15474 0.0
H1304 H 0.45869 0.41726 0.15916 0.0
H1305 H 0.4941 0.47742 0.19665 0.0
H1306 H 0.39931 0.47723 0.24285 0.0
H1307 H 0.41683 0.46036 0.23959 0.0
C1308 C 0.06785 0.4763 0.35899 0.0
C1309 C 0.07792 0.49615 0.36243 0.0
C1310 C 0.04805 0.46632 0.35962 0.0
C1311 C 0.00723 0.47155 0.33975 0.0
H1312 H 0.97915 0.42732 0.39864 0.0
C1313 C 0.92586 0.43479 0.35447 0.0
C1314 C 0.91566 0.41508 0.35978 0.0
C1315 C 0.94567 0.44456 0.35392 0.0
C1316 C 0.98672 0.43943 0.38152 0.0
H1317 H 0.07499 0.52102 0.36961 0.0
H1318 H 0.0404 0.50354 0.37006 0.0
H1319 H 0.01368 0.44449 0.40026 0.0
H1320 H 0.91835 0.39012 0.36729 0.0
H1321 H 0.95274 0.40698 0.36476 0.0
H1322 H 0.98045 0.46631 0.32016 0.0
C1323 C 0.04792 0.49578 0.36701 0.0
C1324 C 0.00651 0.44932 0.38268 0.0
C1325 C 0.06772 0.50575 0.36696 0.0
C1326 C 0.92573 0.40531 0.36334 0.0
C1327 C 0.94551 0.41503 0.36225 0.0
C1328 C 0.98744 0.4615 0.33817 0.0
C1329 C 0.03791 0.476 0.36313 0.0
C1330 C 0.01694 0.46552 0.36195 0.0
C1331 C 0.95578 0.43484 0.35814 0.0
C1332 C 0.9769 0.44534 0.35915 0.0
H1333 H 0.07522 0.46845 0.35537 0.0
H1334 H 0.04065 0.45107 0.3564 0.0
H1335 H 0.01497 0.48386 0.32314 0.0
H1336 H 0.91859 0.4428 0.35185 0.0
H1337 H 0.95302 0.45983 0.35119 0.0
C1338 C 0.5154 0.92878 0.56079 0.0
C1339 C 0.49783 0.91782 0.544 0.0
C1340 C 0.52511 0.94851 0.55811 0.0
C1341 C 0.51823 0.98898 0.53508 0.0
H1342 H 0.57308 0.01609 0.52933 0.0
C1343 C 0.58452 0.06905 0.50351 0.0
C1344 C 0.57837 0.07994 0.52197 0.0
C1345 C 0.57462 0.04931 0.50602 0.0
C1346 C 0.55775 0.00876 0.53054 0.0
H1347 H 0.47684 0.91909 0.51084 0.0
H1348 H 0.49402 0.95345 0.50539 0.0
H1349 H 0.55598 0.98171 0.53262 0.0
H1350 H 0.55705 0.07855 0.55791 0.0
H1351 H 0.5401 0.04418 0.56304 0.0
H1352 H 0.51997 0.016 0.53166 0.0
C1353 C 0.50009 0.94683 0.52136 0.0
C1354 C 0.54794 0.98901 0.53295 0.0
C1355 C 0.49027 0.92709 0.5243 0.0
C1356 C 0.56213 0.07061 0.54315 0.0
C1357 C 0.55232 0.05086 0.54592 0.0
C1358 C 0.52804 0.00873 0.53235 0.0
C1359 C 0.51762 0.95781 0.5383 0.0
C1360 C 0.52805 0.97885 0.53536 0.0
C1361 C 0.55841 0.03994 0.52732 0.0
C1362 C 0.54794 0.01889 0.53013 0.0
H1363 H 0.5216 0.92214 0.57637 0.0
H1364 H 0.5384 0.95649 0.57203 0.0
H1365 H 0.50294 0.98168 0.53733 0.0
H1366 H 0.59691 0.07574 0.48675 0.0
H1367 H 0.57955 0.04138 0.49083 0.0
C1368 C 0.56436 0.4913 0.68144 0.0
C1369 C 0.58131 0.4987 0.70067 0.0
C1370 C 0.55434 0.50109 0.67969 0.0
C1371 C 0.55993 0.54879 0.69485 0.0
H1372 H 0.50502 0.52082 0.69267 0.0
C1373 C 0.49241 0.56262 0.70944 0.0
C1374 C 0.49963 0.5797 0.69067 0.0
C1375 C 0.50225 0.55265 0.71027 0.0
C1376 C 0.52034 0.52889 0.69365 0.0
H1377 H 0.60086 0.52208 0.73361 0.0
H1378 H 0.58313 0.53876 0.73158 0.0
H1379 H 0.52233 0.50373 0.69623 0.0
H1380 H 0.52272 0.59947 0.65748 0.0
H1381 H 0.5395 0.5818 0.65792 0.0
H1382 H 0.55796 0.57396 0.69389 0.0
C1383 C 0.5778 0.52568 0.71695 0.0
C1384 C 0.53031 0.51905 0.69514 0.0
C1385 C 0.58793 0.51603 0.71833 0.0
C1386 C 0.51681 0.58644 0.67243 0.0
C1387 C 0.52652 0.57635 0.67288 0.0
C1388 C 0.54997 0.55863 0.69378 0.0
C1389 C 0.56091 0.51841 0.69748 0.0
C1390 C 0.55025 0.52886 0.69574 0.0
C1391 C 0.51944 0.55937 0.69199 0.0
C1392 C 0.53004 0.54883 0.6931 0.0
H1393 H 0.55893 0.47806 0.6673 0.0
H1394 H 0.54159 0.49519 0.66394 0.0
H1395 H 0.57526 0.55687 0.69474 0.0
H1396 H 0.47928 0.55709 0.72401 0.0
H1397 H 0.4965 0.53982 0.72578 0.0
C1398 C 0.07273 0.59337 0.8623 0.0
C1399 C 0.08282 0.58358 0.85898 0.0
C1400 C 0.05294 0.58362 0.86097 0.0
C1401 C 0.01214 0.53745 0.87962 0.0
H1402 H 0.98399 0.55428 0.82247 0.0
C1403 C 0.93086 0.49308 0.86539 0.0
C1404 C 0.92056 0.5026 0.86132 0.0
C1405 C 0.95065 0.50313 0.86551 0.0
C1406 C 0.99159 0.54954 0.83908 0.0
H1407 H 0.07992 0.55586 0.85094 0.0
H1408 H 0.04535 0.53887 0.8492 0.0
H1409 H 0.01854 0.57157 0.82062 0.0
H1410 H 0.92309 0.53027 0.85538 0.0
H1411 H 0.95754 0.54782 0.85708 0.0
H1412 H 0.9854 0.51579 0.89897 0.0
C1413 C 0.05285 0.5541 0.85277 0.0
C1414 C 0.01139 0.5594 0.83778 0.0
C1415 C 0.07264 0.56387 0.85356 0.0
C1416 C 0.93055 0.52246 0.85842 0.0
C1417 C 0.95035 0.53253 0.85904 0.0
C1418 C 0.99237 0.52775 0.88132 0.0
C1419 C 0.04282 0.56386 0.85681 0.0
C1420 C 0.02184 0.55338 0.85791 0.0
C1421 C 0.96069 0.52298 0.86208 0.0
C1422 C 0.9818 0.5336 0.86095 0.0
H1423 H 0.08009 0.60854 0.86655 0.0
H1424 H 0.04554 0.59147 0.86432 0.0
H1425 H 0.01989 0.53269 0.89581 0.0
H1426 H 0.92367 0.47779 0.86745 0.0
H1427 H 0.95806 0.49522 0.86736 0.0
loop_
_geom_bond_atom_site_label_1
_geom_bond_atom_site_label_2
_geom_bond_distance
_geom_bond_site_symmetry_2
_ccdc_geom_bond_type
Co0 O2 2.143 . S
Co0 O8 2.074 . S
Co0 O11 2.093 . S
Co0 O24 2.097 . S
Co0 N41 2.151 . S
Co0 N49 2.214 . S
Co1 O2 2.160 . S
Co1 O7 2.058 . S
Co1 O17 2.057 1_554 S
Co1 O32 2.037 . S
Co1 N36 2.145 . S
Co1 N57 2.257 . S
O2 Co0 2.143 . S
O2 Co1 2.160 . S
C3 O4 1.278 . S
C3 O11 1.224 . S
O4 C3 1.278 . S
C5 O6 1.245 . S
C5 O17 1.232 . S
O6 C5 1.245 . S
O7 Co1 2.058 . S
O7 C33 1.269 . S
O8 Co0 2.074 . S
O8 C33 1.257 . S
H9 C34 0.930 . S
H10 C40 0.930 . S
O11 Co0 2.093 . S
O11 C3 1.224 . S
H12 C44 0.929 . S
H13 C46 0.930 . S
H14 C47 0.930 . S
H15 C45 0.929 . S
H16 C48 0.928 . S
O17 Co1 2.057 1_556 S
O17 C5 1.232 . S
H18 C37 0.929 . S
H19 C38 0.929 1_556 S
H20 C50 0.931 . S
H21 C42 0.929 1_556 S
H22 C51 0.930 . S
H23 C43 0.931 1_556 S
O24 Co0 2.097 . S
O24 C52 1.214 . S
H25 C53 0.929 . S
H26 C54 0.929 . S
H27 C55 0.930 . S
H28 C56 0.929 . S
H29 C58 0.930 . S
H30 C35 0.930 1_556 S
H31 C39 0.930 . S
O32 Co1 2.037 . S
O32 C52 1.234 . S
C33 O7 1.269 . S
C33 O8 1.257 . S
C34 H9 0.930 . S
C34 C37 1.388 . S
C34 C39 1.418 . S
C35 H30 0.930 1_554 S
C35 C38 1.404 . S
C35 C39 1.353 . S
N36 Co1 2.145 . S
N36 C37 1.397 . S
N36 C38 1.334 . S
C37 H18 0.929 . S
C37 C34 1.388 . S
C37 N36 1.397 . S
C38 H19 0.929 1_554 S
C38 C35 1.404 . S
C38 N36 1.334 . S
C39 H31 0.930 . S
C39 C34 1.418 . S
C39 C35 1.353 . S
C40 H10 0.930 . S
C40 N41 1.330 . S
C40 C42 1.446 . S
N41 Co0 2.151 . S
N41 C40 1.330 . S
N41 C45 1.418 . S
C42 H21 0.929 1_554 S
C42 C40 1.446 . S
C42 C43 1.332 . S
C43 H23 0.931 1_554 S
C43 C42 1.332 . S
C43 C44 1.267 . S
C44 H12 0.929 . S
C44 C43 1.267 . S
C44 C45 1.251 . S
C45 H15 0.929 . S
C45 N41 1.418 . S
C45 C44 1.251 . S
C46 H13 0.930 . S
C46 C48 1.406 . S
C46 C51 1.261 . S
C47 H14 0.930 . S
C47 N49 1.325 . S
C47 C50 1.357 . S
C48 H16 0.928 . S
C48 C46 1.406 . S
C48 N49 1.261 . S
N49 Co0 2.214 . S
N49 C47 1.325 . S
N49 C48 1.261 . S
C50 H20 0.931 . S
C50 C47 1.357 . S
C50 C51 1.312 . S
C51 H22 0.930 . S
C51 C46 1.261 . S
C51 C50 1.312 . S
C52 O24 1.214 . S
C52 O32 1.234 . S
C53 H25 0.929 . S
C53 C56 1.391 . S
C53 C58 1.391 . S
C54 H26 0.929 . S
C54 C55 1.390 . S
C54 N57 1.391 . S
C55 H27 0.930 . S
C55 C54 1.390 . S
C55 C56 1.392 . S
C56 H28 0.929 . S
C56 C53 1.391 . S
C56 C55 1.392 . S
N57 Co1 2.257 . S
N57 C54 1.391 . S
N57 C58 1.388 . S
C58 H29 0.930 . S
C58 C53 1.391 . S
C58 N57 1.388 . S
Co59 O61 2.143 . S
Co59 O67 2.074 . S
Co59 O70 2.093 . S
Co59 O83 2.097 . S
Co59 N100 2.151 . S
Co59 N108 2.214 . S
Co60 O61 2.160 . S
Co60 O66 2.058 . S
Co60 O76 2.057 . S
Co60 O91 2.037 . S
Co60 N95 2.145 . S
Co60 N116 2.257 . S
O61 Co59 2.143 . S
O61 Co60 2.160 . S
C62 O63 1.278 . S
C62 O70 1.224 . S
O63 C62 1.278 . S
C64 O65 1.245 . S
C64 O76 1.232 . S
O65 C64 1.245 . S
O66 Co60 2.058 . S
O66 C92 1.269 . S
O67 Co59 2.074 . S
O67 C92 1.257 . S
H68 C93 0.930 . S
H69 C99 0.930 . S
O70 Co59 2.093 . S
O70 C62 1.224 . S
H71 C103 0.929 . S
H72 C105 0.930 . S
H73 C106 0.930 . S
H74 C104 0.929 . S
H75 C107 0.928 . S
O76 Co60 2.057 . S
O76 C64 1.232 . S
H77 C96 0.929 . S
H78 C97 0.929 . S
H79 C109 0.931 . S
H80 C101 0.929 . S
H81 C110 0.930 . S
H82 C102 0.931 . S
O83 Co59 2.097 . S
O83 C111 1.214 . S
H84 C112 0.929 . S
H85 C113 0.929 . S
H86 C114 0.930 . S
H87 C115 0.929 . S
H88 C117 0.930 . S
H89 C94 0.930 . S
H90 C98 0.930 . S
O91 Co60 2.037 . S
O91 C111 1.234 . S
C92 O66 1.269 . S
C92 O67 1.257 . S
C93 H68 0.930 . S
C93 C96 1.388 . S
C93 C98 1.418 . S
C94 H89 0.930 . S
C94 C97 1.404 . S
C94 C98 1.353 . S
N95 Co60 2.145 . S
N95 C96 1.397 . S
N95 C97 1.334 . S
C96 H77 0.929 . S
C96 C93 1.388 . S
C96 N95 1.397 . S
C97 H78 0.929 . S
C97 C94 1.404 . S
C97 N95 1.334 . S
C98 H90 0.930 . S
C98 C93 1.418 . S
C98 C94 1.353 . S
C99 H69 0.930 . S
C99 N100 1.330 . S
C99 C101 1.446 . S
N100 Co59 2.151 . S
N100 C99 1.330 . S
N100 C104 1.418 . S
C101 H80 0.929 . S
C101 C99 1.446 . S
C101 C102 1.332 . S
C102 H82 0.931 . S
C102 C101 1.332 . S
C102 C103 1.267 . S
C103 H71 0.929 . S
C103 C102 1.267 . S
C103 C104 1.251 . S
C104 H74 0.929 . S
C104 N100 1.418 . S
C104 C103 1.251 . S
C105 H72 0.930 . S
C105 C107 1.406 . S
C105 C110 1.261 . S
C106 H73 0.930 . S
C106 N108 1.325 . S
C106 C109 1.357 . S
C107 H75 0.928 . S
C107 C105 1.406 . S
C107 N108 1.261 . S
N108 Co59 2.214 . S
N108 C106 1.325 . S
N108 C107 1.261 . S
C109 H79 0.931 . S
C109 C106 1.357 . S
C109 C110 1.312 . S
C110 H81 0.930 . S
C110 C105 1.261 . S
C110 C109 1.312 . S
C111 O83 1.214 . S
C111 O91 1.234 . S
C112 H84 0.929 . S
C112 C115 1.391 . S
C112 C117 1.391 . S
C113 H85 0.929 . S
C113 C114 1.390 . S
C113 N116 1.391 . S
C114 H86 0.930 . S
C114 C113 1.390 . S
C114 C115 1.392 . S
C115 H87 0.929 . S
C115 C112 1.391 . S
C115 C114 1.392 . S
N116 Co60 2.257 . S
N116 C113 1.391 . S
N116 C117 1.388 . S
C117 H88 0.930 . S
C117 C112 1.391 . S
C117 N116 1.388 . S
Co118 O120 2.143 . S
Co118 O126 2.074 . S
Co118 O129 2.093 . S
Co118 O142 2.097 . S
Co118 N159 2.151 . S
Co118 N167 2.214 . S
Co119 O120 2.160 . S
Co119 O125 2.058 . S
Co119 O135 2.057 . S
Co119 O150 2.037 . S
Co119 N154 2.145 . S
Co119 N175 2.257 . S
O120 Co118 2.143 . S
O120 Co119 2.160 . S
C121 O122 1.278 . S
C121 O129 1.224 . S
O122 C121 1.278 . S
C123 O124 1.245 . S
C123 O135 1.232 . S
O124 C123 1.245 . S
O125 Co119 2.058 . S
O125 C151 1.269 . S
O126 Co118 2.074 . S
O126 C151 1.257 . S
H127 C152 0.930 . S
H128 C158 0.930 . S
O129 Co118 2.093 . S
O129 C121 1.224 . S
H130 C162 0.929 . S
H131 C164 0.930 . S
H132 C165 0.930 . S
H133 C163 0.929 . S
H134 C166 0.928 . S
O135 Co119 2.057 . S
O135 C123 1.232 . S
H136 C155 0.929 . S
H137 C156 0.929 . S
H138 C168 0.931 . S
H139 C160 0.929 . S
H140 C169 0.930 . S
H141 C161 0.931 . S
O142 Co118 2.097 . S
O142 C170 1.214 . S
H143 C171 0.929 . S
H144 C172 0.929 . S
H145 C173 0.930 . S
H146 C174 0.929 . S
H147 C176 0.930 . S
H148 C153 0.930 . S
H149 C157 0.930 . S
O150 Co119 2.037 . S
O150 C170 1.234 . S
C151 O125 1.269 . S
C151 O126 1.257 . S
C152 H127 0.930 . S
C152 C155 1.388 . S
C152 C157 1.418 . S
C153 H148 0.930 . S
C153 C156 1.404 . S
C153 C157 1.353 . S
N154 Co119 2.145 . S
N154 C155 1.397 . S
N154 C156 1.334 . S
C155 H136 0.929 . S
C155 C152 1.388 . S
C155 N154 1.397 . S
C156 H137 0.929 . S
C156 C153 1.404 . S
C156 N154 1.334 . S
C157 H149 0.930 . S
C157 C152 1.418 . S
C157 C153 1.353 . S
C158 H128 0.930 . S
C158 N159 1.330 . S
C158 C160 1.446 . S
N159 Co118 2.151 . S
N159 C158 1.330 . S
N159 C163 1.418 . S
C160 H139 0.929 . S
C160 C158 1.446 . S
C160 C161 1.332 . S
C161 H141 0.931 . S
C161 C160 1.332 . S
C161 C162 1.267 . S
C162 H130 0.929 . S
C162 C161 1.267 . S
C162 C163 1.251 . S
C163 H133 0.929 . S
C163 N159 1.418 . S
C163 C162 1.251 . S
C164 H131 0.930 . S
C164 C166 1.406 . S
C164 C169 1.261 . S
C165 H132 0.930 . S
C165 N167 1.325 . S
C165 C168 1.357 . S
C166 H134 0.928 . S
C166 C164 1.406 . S
C166 N167 1.261 . S
N167 Co118 2.214 . S
N167 C165 1.325 . S
N167 C166 1.261 . S
C168 H138 0.931 . S
C168 C165 1.357 . S
C168 C169 1.312 . S
C169 H140 0.930 . S
C169 C164 1.261 . S
C169 C168 1.312 . S
C170 O142 1.214 . S
C170 O150 1.234 . S
C171 H143 0.929 . S
C171 C174 1.391 . S
C171 C176 1.391 . S
C172 H144 0.929 . S
C172 C173 1.390 . S
C172 N175 1.391 . S
C173 H145 0.930 . S
C173 C172 1.390 . S
C173 C174 1.392 . S
C174 H146 0.929 . S
C174 C171 1.391 . S
C174 C173 1.392 . S
N175 Co119 2.257 . S
N175 C172 1.391 . S
N175 C176 1.388 . S
C176 H147 0.930 . S
C176 C171 1.391 . S
C176 N175 1.388 . S
Co177 O179 2.143 . S
Co177 O185 2.074 . S
Co177 O188 2.093 . S
Co177 O201 2.097 . S
Co177 N218 2.151 . S
Co177 N226 2.214 . S
Co178 O179 2.160 . S
Co178 O184 2.058 . S
Co178 O194 2.057 . S
Co178 O209 2.037 . S
Co178 N213 2.145 . S
Co178 N234 2.257 . S
O179 Co177 2.143 . S
O179 Co178 2.160 . S
C180 O181 1.278 . S
C180 O188 1.224 . S
O181 C180 1.278 . S
C182 O183 1.245 . S
C182 O194 1.232 . S
O183 C182 1.245 . S
O184 Co178 2.058 . S
O184 C210 1.269 . S
O185 Co177 2.074 . S
O185 C210 1.257 . S
H186 C211 0.930 . S
H187 C217 0.930 . S
O188 Co177 2.093 . S
O188 C180 1.224 . S
H189 C221 0.929 . S
H190 C223 0.930 . S
H191 C224 0.930 . S
H192 C222 0.929 . S
H193 C225 0.928 . S
O194 Co178 2.057 . S
O194 C182 1.232 . S
H195 C214 0.929 . S
H196 C215 0.929 . S
H197 C227 0.931 . S
H198 C219 0.929 . S
H199 C228 0.930 . S
H200 C220 0.931 . S
O201 Co177 2.097 . S
O201 C229 1.214 . S
H202 C230 0.929 . S
H203 C231 0.929 . S
H204 C232 0.930 . S
H205 C233 0.929 . S
H206 C235 0.930 . S
H207 C212 0.930 . S
H208 C216 0.930 . S
O209 Co178 2.037 . S
O209 C229 1.234 . S
C210 O184 1.269 . S
C210 O185 1.257 . S
C211 H186 0.930 . S
C211 C214 1.388 . S
C211 C216 1.418 . S
C212 H207 0.930 . S
C212 C215 1.404 . S
C212 C216 1.353 . S
N213 Co178 2.145 . S
N213 C214 1.397 . S
N213 C215 1.334 . S
C214 H195 0.929 . S
C214 C211 1.388 . S
C214 N213 1.397 . S
C215 H196 0.929 . S
C215 C212 1.404 . S
C215 N213 1.334 . S
C216 H208 0.930 . S
C216 C211 1.418 . S
C216 C212 1.353 . S
C217 H187 0.930 . S
C217 N218 1.330 . S
C217 C219 1.446 . S
N218 Co177 2.151 . S
N218 C217 1.330 . S
N218 C222 1.418 . S
C219 H198 0.929 . S
C219 C217 1.446 . S
C219 C220 1.332 . S
C220 H200 0.931 . S
C220 C219 1.332 . S
C220 C221 1.267 . S
C221 H189 0.929 . S
C221 C220 1.267 . S
C221 C222 1.251 . S
C222 H192 0.929 . S
C222 N218 1.418 . S
C222 C221 1.251 . S
C223 H190 0.930 . S
C223 C225 1.406 . S
C223 C228 1.261 . S
C224 H191 0.930 . S
C224 N226 1.325 . S
C224 C227 1.357 . S
C225 H193 0.928 . S
C225 C223 1.406 . S
C225 N226 1.261 . S
N226 Co177 2.214 . S
N226 C224 1.325 . S
N226 C225 1.261 . S
C227 H197 0.931 . S
C227 C224 1.357 . S
C227 C228 1.312 . S
C228 H199 0.930 . S
C228 C223 1.261 . S
C228 C227 1.312 . S
C229 O201 1.214 . S
C229 O209 1.234 . S
C230 H202 0.929 . S
C230 C233 1.391 . S
C230 C235 1.391 . S
C231 H203 0.929 . S
C231 C232 1.390 . S
C231 N234 1.391 . S
C232 H204 0.930 . S
C232 C231 1.390 . S
C232 C233 1.392 . S
C233 H205 0.929 . S
C233 C230 1.391 . S
C233 C232 1.392 . S
N234 Co178 2.257 . S
N234 C231 1.391 . S
N234 C235 1.388 . S
C235 H206 0.930 . S
C235 C230 1.391 . S
C235 N234 1.388 . S
Co236 O238 2.143 . S
Co236 O244 2.074 . S
Co236 O247 2.093 . S
Co236 O260 2.097 . S
Co236 N277 2.151 . S
Co236 N285 2.214 . S
Co237 O238 2.160 . S
Co237 O243 2.058 . S
Co237 O253 2.057 . S
Co237 O268 2.037 . S
Co237 N272 2.145 . S
Co237 N293 2.257 . S
O238 Co236 2.143 . S
O238 Co237 2.160 . S
C239 O240 1.278 . S
C239 O247 1.224 . S
O240 C239 1.278 . S
C241 O242 1.245 . S
C241 O253 1.232 . S
O242 C241 1.245 . S
O243 Co237 2.058 . S
O243 C269 1.269 . S
O244 Co236 2.074 . S
O244 C269 1.257 . S
H245 C270 0.930 . S
H246 C276 0.930 . S
O247 Co236 2.093 . S
O247 C239 1.224 . S
H248 C280 0.929 . S
H249 C282 0.930 . S
H250 C283 0.930 . S
H251 C281 0.929 . S
H252 C284 0.928 . S
O253 Co237 2.057 . S
O253 C241 1.232 . S
H254 C273 0.929 . S
H255 C274 0.929 . S
H256 C286 0.931 . S
H257 C278 0.929 . S
H258 C287 0.930 . S
H259 C279 0.931 . S
O260 Co236 2.097 . S
O260 C288 1.214 . S
H261 C289 0.929 . S
H262 C290 0.929 . S
H263 C291 0.930 . S
H264 C292 0.929 . S
H265 C294 0.930 . S
H266 C271 0.930 . S
H267 C275 0.930 . S
O268 Co237 2.037 . S
O268 C288 1.234 . S
C269 O243 1.269 . S
C269 O244 1.257 . S
C270 H245 0.930 . S
C270 C273 1.388 . S
C270 C275 1.418 . S
C271 H266 0.930 . S
C271 C274 1.404 . S
C271 C275 1.353 . S
N272 Co237 2.145 . S
N272 C273 1.397 . S
N272 C274 1.334 . S
C273 H254 0.929 . S
C273 C270 1.388 . S
C273 N272 1.397 . S
C274 H255 0.929 . S
C274 C271 1.404 . S
C274 N272 1.334 . S
C275 H267 0.930 . S
C275 C270 1.418 . S
C275 C271 1.353 . S
C276 H246 0.930 . S
C276 N277 1.330 . S
C276 C278 1.446 . S
N277 Co236 2.151 . S
N277 C276 1.330 . S
N277 C281 1.418 . S
C278 H257 0.929 . S
C278 C276 1.446 . S
C278 C279 1.332 . S
C279 H259 0.931 . S
C279 C278 1.332 . S
C279 C280 1.267 . S
C280 H248 0.929 . S
C280 C279 1.267 . S
C280 C281 1.251 . S
C281 H251 0.929 . S
C281 N277 1.418 . S
C281 C280 1.251 . S
C282 H249 0.930 . S
C282 C284 1.406 . S
C282 C287 1.261 . S
C283 H250 0.930 . S
C283 N285 1.325 . S
C283 C286 1.357 . S
C284 H252 0.928 . S
C284 C282 1.406 . S
C284 N285 1.261 . S
N285 Co236 2.214 . S
N285 C283 1.325 . S
N285 C284 1.261 . S
C286 H256 0.931 . S
C286 C283 1.357 . S
C286 C287 1.312 . S
C287 H258 0.930 . S
C287 C282 1.261 . S
C287 C286 1.312 . S
C288 O260 1.214 . S
C288 O268 1.234 . S
C289 H261 0.929 . S
C289 C292 1.391 . S
C289 C294 1.391 . S
C290 H262 0.929 . S
C290 C291 1.390 . S
C290 N293 1.391 . S
C291 H263 0.930 . S
C291 C290 1.390 . S
C291 C292 1.392 . S
C292 H264 0.929 . S
C292 C289 1.391 . S
C292 C291 1.392 . S
N293 Co237 2.257 . S
N293 C290 1.391 . S
N293 C294 1.388 . S
C294 H265 0.930 . S
C294 C289 1.391 . S
C294 N293 1.388 . S
Co295 O297 2.143 . S
Co295 O303 2.074 . S
Co295 O306 2.093 . S
Co295 O319 2.097 . S
Co295 N336 2.151 . S
Co295 N344 2.214 . S
Co296 O297 2.160 . S
Co296 O302 2.058 . S
Co296 O312 2.057 . S
Co296 O327 2.037 . S
Co296 N331 2.145 . S
Co296 N352 2.257 . S
O297 Co295 2.143 . S
O297 Co296 2.160 . S
C298 O299 1.278 . S
C298 O306 1.224 . S
O299 C298 1.278 . S
C300 O301 1.245 . S
C300 O312 1.232 . S
O301 C300 1.245 . S
O302 Co296 2.058 . S
O302 C328 1.269 . S
O303 Co295 2.074 . S
O303 C328 1.257 . S
H304 C329 0.930 . S
H305 C335 0.930 . S
O306 Co295 2.093 . S
O306 C298 1.224 . S
H307 C339 0.929 . S
H308 C341 0.930 . S
H309 C342 0.930 . S
H310 C340 0.929 . S
H311 C343 0.928 . S
O312 Co296 2.057 . S
O312 C300 1.232 . S
H313 C332 0.929 . S
H314 C333 0.929 . S
H315 C345 0.931 . S
H316 C337 0.929 . S
H317 C346 0.930 . S
H318 C338 0.931 . S
O319 Co295 2.097 . S
O319 C347 1.214 . S
H320 C348 0.929 . S
H321 C349 0.929 . S
H322 C350 0.930 . S
H323 C351 0.929 . S
H324 C353 0.930 . S
H325 C330 0.930 . S
H326 C334 0.930 . S
O327 Co296 2.037 . S
O327 C347 1.234 . S
C328 O302 1.269 . S
C328 O303 1.257 . S
C329 H304 0.930 . S
C329 C332 1.388 . S
C329 C334 1.418 . S
C330 H325 0.930 . S
C330 C333 1.404 . S
C330 C334 1.353 . S
N331 Co296 2.145 . S
N331 C332 1.397 . S
N331 C333 1.334 . S
C332 H313 0.929 . S
C332 C329 1.388 . S
C332 N331 1.397 . S
C333 H314 0.929 . S
C333 C330 1.404 . S
C333 N331 1.334 . S
C334 H326 0.930 . S
C334 C329 1.418 . S
C334 C330 1.353 . S
C335 H305 0.930 . S
C335 N336 1.330 . S
C335 C337 1.446 . S
N336 Co295 2.151 . S
N336 C335 1.330 . S
N336 C340 1.418 . S
C337 H316 0.929 . S
C337 C335 1.446 . S
C337 C338 1.332 . S
C338 H318 0.931 . S
C338 C337 1.332 . S
C338 C339 1.267 . S
C339 H307 0.929 . S
C339 C338 1.267 . S
C339 C340 1.251 . S
C340 H310 0.929 . S
C340 N336 1.418 . S
C340 C339 1.251 . S
C341 H308 0.930 . S
C341 C343 1.406 . S
C341 C346 1.261 1_556 S
C342 H309 0.930 . S
C342 N344 1.325 . S
C342 C345 1.357 1_556 S
C343 H311 0.928 . S
C343 C341 1.406 . S
C343 N344 1.261 . S
N344 Co295 2.214 . S
N344 C342 1.325 . S
N344 C343 1.261 . S
C345 H315 0.931 . S
C345 C342 1.357 1_554 S
C345 C346 1.312 . S
C346 H317 0.930 . S
C346 C341 1.261 1_554 S
C346 C345 1.312 . S
C347 O319 1.214 . S
C347 O327 1.234 . S
C348 H320 0.929 . S
C348 C351 1.391 . S
C348 C353 1.391 . S
C349 H321 0.929 . S
C349 C350 1.390 . S
C349 N352 1.391 . S
C350 H322 0.930 . S
C350 C349 1.390 . S
C350 C351 1.392 . S
C351 H323 0.929 . S
C351 C348 1.391 . S
C351 C350 1.392 . S
N352 Co296 2.257 . S
N352 C349 1.391 . S
N352 C353 1.388 . S
C353 H324 0.930 . S
C353 C348 1.391 . S
C353 N352 1.388 . S
Co354 O356 2.143 . S
Co354 O362 2.074 . S
Co354 O365 2.093 . S
Co354 O378 2.097 . S
Co354 N395 2.151 . S
Co354 N403 2.214 . S
Co355 O356 2.160 . S
Co355 O361 2.058 . S
Co355 O371 2.057 . S
Co355 O386 2.037 . S
Co355 N390 2.145 . S
Co355 N411 2.257 . S
O356 Co354 2.143 . S
O356 Co355 2.160 . S
C357 O358 1.278 . S
C357 O365 1.224 . S
O358 C357 1.278 . S
C359 O360 1.245 . S
C359 O371 1.232 . S
O360 C359 1.245 . S
O361 Co355 2.058 . S
O361 C387 1.269 . S
O362 Co354 2.074 . S
O362 C387 1.257 . S
H363 C388 0.930 . S
H364 C394 0.930 . S
O365 Co354 2.093 . S
O365 C357 1.224 . S
H366 C398 0.929 . S
H367 C400 0.930 . S
H368 C401 0.930 . S
H369 C399 0.929 . S
H370 C402 0.928 . S
O371 Co355 2.057 . S
O371 C359 1.232 . S
H372 C391 0.929 . S
H373 C392 0.929 . S
H374 C404 0.931 . S
H375 C396 0.929 . S
H376 C405 0.930 . S
H377 C397 0.931 . S
O378 Co354 2.097 . S
O378 C406 1.214 . S
H379 C407 0.929 . S
H380 C408 0.929 . S
H381 C409 0.930 . S
H382 C410 0.929 . S
H383 C412 0.930 . S
H384 C389 0.930 . S
H385 C393 0.930 . S
O386 Co355 2.037 . S
O386 C406 1.234 . S
C387 O361 1.269 . S
C387 O362 1.257 . S
C388 H363 0.930 . S
C388 C391 1.388 . S
C388 C393 1.418 . S
C389 H384 0.930 . S
C389 C392 1.404 . S
C389 C393 1.353 . S
N390 Co355 2.145 . S
N390 C391 1.397 . S
N390 C392 1.334 . S
C391 H372 0.929 . S
C391 C388 1.388 . S
C391 N390 1.397 . S
C392 H373 0.929 . S
C392 C389 1.404 . S
C392 N390 1.334 . S
C393 H385 0.930 . S
C393 C388 1.418 . S
C393 C389 1.353 . S
C394 H364 0.930 . S
C394 N395 1.330 . S
C394 C396 1.446 . S
N395 Co354 2.151 . S
N395 C394 1.330 . S
N395 C399 1.418 . S
C396 H375 0.929 . S
C396 C394 1.446 . S
C396 C397 1.332 . S
C397 H377 0.931 . S
C397 C396 1.332 . S
C397 C398 1.267 . S
C398 H366 0.929 . S
C398 C397 1.267 . S
C398 C399 1.251 . S
C399 H369 0.929 . S
C399 N395 1.418 . S
C399 C398 1.251 . S
C400 H367 0.930 . S
C400 C402 1.406 . S
C400 C405 1.261 . S
C401 H368 0.930 . S
C401 N403 1.325 . S
C401 C404 1.357 . S
C402 H370 0.928 . S
C402 C400 1.406 . S
C402 N403 1.261 . S
N403 Co354 2.214 . S
N403 C401 1.325 . S
N403 C402 1.261 . S
C404 H374 0.931 . S
C404 C401 1.357 . S
C404 C405 1.312 . S
C405 H376 0.930 . S
C405 C400 1.261 . S
C405 C404 1.312 . S
C406 O378 1.214 . S
C406 O386 1.234 . S
C407 H379 0.929 . S
C407 C410 1.391 . S
C407 C412 1.391 . S
C408 H380 0.929 . S
C408 C409 1.390 . S
C408 N411 1.391 . S
C409 H381 0.930 . S
C409 C408 1.390 . S
C409 C410 1.392 . S
C410 H382 0.929 . S
C410 C407 1.391 . S
C410 C409 1.392 . S
N411 Co355 2.257 . S
N411 C408 1.391 . S
N411 C412 1.388 . S
C412 H383 0.930 . S
C412 C407 1.391 . S
C412 N411 1.388 . S
Co413 O415 2.147 . S
Co413 O421 2.074 . S
Co413 O424 2.092 1_554 S
Co413 O437 2.093 1_554 S
Co413 N454 2.154 . S
Co413 N462 2.209 1_554 S
Co414 O415 2.160 . S
Co414 O420 2.058 . S
Co414 O430 2.057 . S
Co414 O445 2.037 1_554 S
Co414 N449 2.145 . S
Co414 N470 2.257 . S
O415 Co413 2.147 . S
O415 Co414 2.160 . S
C416 O417 1.278 . S
C416 O424 1.224 1_554 S
O417 C416 1.278 . S
C418 O419 1.245 . S
C418 O430 1.232 . S
O419 C418 1.245 . S
O420 Co414 2.058 . S
O420 C446 1.269 . S
O421 Co413 2.074 . S
O421 C446 1.257 . S
H422 C447 0.930 1_556 S
H423 C453 0.930 . S
O424 Co413 2.092 1_556 S
O424 C416 1.224 1_556 S
H425 C457 0.929 . S
H426 C459 0.930 . S
H427 C460 0.930 . S
H428 C458 0.929 . S
H429 C461 0.928 . S
O430 Co414 2.057 . S
O430 C418 1.232 . S
H431 C450 0.929 1_556 S
H432 C451 0.929 . S
H433 C463 0.931 . S
H434 C455 0.929 . S
H435 C464 0.930 . S
H436 C456 0.931 . S
O437 Co413 2.093 1_556 S
O437 C465 1.214 . S
H438 C466 0.929 . S
H439 C467 0.929 1_556 S
H440 C468 0.910 1_556 S
H441 C469 0.929 . S
H442 C471 0.930 . S
H443 C448 0.930 . S
H444 C452 0.930 . S
O445 Co414 2.037 1_556 S
O445 C465 1.234 . S
C446 O420 1.269 . S
C446 O421 1.257 . S
C447 H422 0.930 1_554 S
C447 C450 1.388 . S
C447 C452 1.418 . S
C448 H443 0.930 . S
C448 C451 1.404 . S
C448 C452 1.353 . S
N449 Co414 2.145 . S
N449 C450 1.397 . S
N449 C451 1.334 . S
C450 H431 0.929 1_554 S
C450 C447 1.388 . S
C450 N449 1.397 . S
C451 H432 0.929 . S
C451 C448 1.404 . S
C451 N449 1.334 . S
C452 H444 0.930 . S
C452 C447 1.418 . S
C452 C448 1.353 . S
C453 H423 0.930 . S
C453 N454 1.330 . S
C453 C455 1.446 . S
N454 Co413 2.154 . S
N454 C453 1.330 . S
N454 C458 1.418 . S
C455 H434 0.929 . S
C455 C453 1.446 . S
C455 C456 1.332 . S
C456 H436 0.931 . S
C456 C455 1.332 . S
C456 C457 1.267 . S
C457 H425 0.929 . S
C457 C456 1.267 . S
C457 C458 1.251 . S
C458 H428 0.929 . S
C458 N454 1.418 . S
C458 C457 1.251 . S
C459 H426 0.930 . S
C459 C461 1.406 . S
C459 C464 1.261 . S
C460 H427 0.930 . S
C460 N462 1.325 . S
C460 C463 1.357 . S
C461 H429 0.928 . S
C461 C459 1.406 . S
C461 N462 1.261 . S
N462 Co413 2.209 1_556 S
N462 C460 1.325 . S
N462 C461 1.261 . S
C463 H433 0.931 . S
C463 C460 1.357 . S
C463 C464 1.312 . S
C464 H435 0.930 . S
C464 C459 1.261 . S
C464 C463 1.312 . S
C465 O437 1.214 . S
C465 O445 1.234 . S
C466 H438 0.929 . S
C466 C469 1.391 . S
C466 C471 1.391 . S
C467 H439 0.929 1_554 S
C467 C468 1.395 . S
C467 N470 1.391 . S
C468 H440 0.910 1_554 S
C468 C467 1.395 . S
C468 C469 1.407 . S
C469 H441 0.929 . S
C469 C466 1.391 . S
C469 C468 1.407 . S
N470 Co414 2.257 . S
N470 C467 1.391 . S
N470 C471 1.388 . S
C471 H442 0.930 . S
C471 C466 1.391 . S
C471 N470 1.388 . S
Co472 O474 2.143 . S
Co472 O480 2.074 . S
Co472 O483 2.093 . S
Co472 O496 2.097 . S
Co472 N513 2.151 . S
Co472 N521 2.214 . S
Co473 O474 2.160 . S
Co473 O479 2.058 . S
Co473 O489 2.057 . S
Co473 O504 2.037 . S
Co473 N508 2.145 . S
Co473 N529 2.257 . S
O474 Co472 2.143 . S
O474 Co473 2.160 . S
C475 O476 1.278 . S
C475 O483 1.224 . S
O476 C475 1.278 . S
C477 O478 1.245 . S
C477 O489 1.232 . S
O478 C477 1.245 . S
O479 Co473 2.058 . S
O479 C505 1.269 . S
O480 Co472 2.074 . S
O480 C505 1.257 . S
H481 C506 0.930 . S
H482 C512 0.930 . S
O483 Co472 2.093 . S
O483 C475 1.224 . S
H484 C516 0.929 . S
H485 C518 0.930 . S
H486 C519 0.930 . S
H487 C517 0.929 . S
H488 C520 0.928 . S
O489 Co473 2.057 . S
O489 C477 1.232 . S
H490 C509 0.929 . S
H491 C510 0.929 . S
H492 C522 0.931 . S
H493 C514 0.929 . S
H494 C523 0.930 . S
H495 C515 0.931 . S
O496 Co472 2.097 . S
O496 C524 1.214 . S
H497 C525 0.929 . S
H498 C526 0.929 . S
H499 C527 0.930 . S
H500 C528 0.929 . S
H501 C530 0.930 . S
H502 C507 0.930 . S
H503 C511 0.930 . S
O504 Co473 2.037 . S
O504 C524 1.234 . S
C505 O479 1.269 . S
C505 O480 1.257 . S
C506 H481 0.930 . S
C506 C509 1.388 . S
C506 C511 1.418 . S
C507 H502 0.930 . S
C507 C510 1.404 . S
C507 C511 1.353 . S
N508 Co473 2.145 . S
N508 C509 1.397 . S
N508 C510 1.334 . S
C509 H490 0.929 . S
C509 C506 1.388 . S
C509 N508 1.397 . S
C510 H491 0.929 . S
C510 C507 1.404 . S
C510 N508 1.334 . S
C511 H503 0.930 . S
C511 C506 1.418 . S
C511 C507 1.353 . S
C512 H482 0.930 . S
C512 N513 1.330 . S
C512 C514 1.446 . S
N513 Co472 2.151 . S
N513 C512 1.330 . S
N513 C517 1.418 . S
C514 H493 0.929 . S
C514 C512 1.446 . S
C514 C515 1.332 . S
C515 H495 0.931 . S
C515 C514 1.332 . S
C515 C516 1.267 . S
C516 H484 0.929 . S
C516 C515 1.267 . S
C516 C517 1.251 . S
C517 H487 0.929 . S
C517 N513 1.418 . S
C517 C516 1.251 . S
C518 H485 0.930 . S
C518 C520 1.406 . S
C518 C523 1.261 . S
C519 H486 0.930 . S
C519 N521 1.325 . S
C519 C522 1.357 . S
C520 H488 0.928 . S
C520 C518 1.406 . S
C520 N521 1.261 . S
N521 Co472 2.214 . S
N521 C519 1.325 . S
N521 C520 1.261 . S
C522 H492 0.931 . S
C522 C519 1.357 . S
C522 C523 1.312 . S
C523 H494 0.930 . S
C523 C518 1.261 . S
C523 C522 1.312 . S
C524 O496 1.214 . S
C524 O504 1.234 . S
C525 H497 0.929 . S
C525 C528 1.391 . S
C525 C530 1.391 . S
C526 H498 0.929 . S
C526 C527 1.390 . S
C526 N529 1.391 . S
C527 H499 0.930 . S
C527 C526 1.390 . S
C527 C528 1.392 . S
C528 H500 0.929 . S
C528 C525 1.391 . S
C528 C527 1.392 . S
N529 Co473 2.257 . S
N529 C526 1.391 . S
N529 C530 1.388 . S
C530 H501 0.930 . S
C530 C525 1.391 . S
C530 N529 1.388 . S
Co531 O533 2.143 . S
Co531 O539 2.074 . S
Co531 O542 2.093 . S
Co531 O555 2.097 . S
Co531 N572 2.151 . S
Co531 N580 2.214 . S
Co532 O533 2.160 . S
Co532 O538 2.058 . S
Co532 O548 2.057 . S
Co532 O563 2.037 . S
Co532 N567 2.145 . S
Co532 N588 2.257 . S
O533 Co531 2.143 . S
O533 Co532 2.160 . S
C534 O535 1.278 . S
C534 O542 1.224 . S
O535 C534 1.278 . S
C536 O537 1.245 . S
C536 O548 1.232 . S
O537 C536 1.245 . S
O538 Co532 2.058 . S
O538 C564 1.269 . S
O539 Co531 2.074 . S
O539 C564 1.257 . S
H540 C565 0.930 . S
H541 C571 0.930 . S
O542 Co531 2.093 . S
O542 C534 1.224 . S
H543 C575 0.929 . S
H544 C577 0.930 . S
H545 C578 0.930 . S
H546 C576 0.929 . S
H547 C579 0.928 . S
O548 Co532 2.057 . S
O548 C536 1.232 . S
H549 C568 0.929 . S
H550 C569 0.929 . S
H551 C581 0.931 . S
H552 C573 0.929 . S
H553 C582 0.930 . S
H554 C574 0.931 . S
O555 Co531 2.097 . S
O555 C583 1.214 . S
H556 C584 0.929 . S
H557 C585 0.929 . S
H558 C586 0.930 . S
H559 C587 0.929 . S
H560 C589 0.930 . S
H561 C566 0.930 . S
H562 C570 0.930 . S
O563 Co532 2.037 . S
O563 C583 1.234 . S
C564 O538 1.269 . S
C564 O539 1.257 . S
C565 H540 0.930 . S
C565 C568 1.388 . S
C565 C570 1.418 . S
C566 H561 0.930 . S
C566 C569 1.404 . S
C566 C570 1.353 . S
N567 Co532 2.145 . S
N567 C568 1.397 . S
N567 C569 1.334 . S
C568 H549 0.929 . S
C568 C565 1.388 . S
C568 N567 1.397 . S
C569 H550 0.929 . S
C569 C566 1.404 . S
C569 N567 1.334 . S
C570 H562 0.930 . S
C570 C565 1.418 . S
C570 C566 1.353 . S
C571 H541 0.930 . S
C571 N572 1.330 . S
C571 C573 1.446 . S
N572 Co531 2.151 . S
N572 C571 1.330 . S
N572 C576 1.418 . S
C573 H552 0.929 . S
C573 C571 1.446 . S
C573 C574 1.332 . S
C574 H554 0.931 . S
C574 C573 1.332 . S
C574 C575 1.267 . S
C575 H543 0.929 . S
C575 C574 1.267 . S
C575 C576 1.251 . S
C576 H546 0.929 . S
C576 N572 1.418 . S
C576 C575 1.251 . S
C577 H544 0.930 . S
C577 C579 1.406 . S
C577 C582 1.261 . S
C578 H545 0.930 . S
C578 N580 1.325 . S
C578 C581 1.357 . S
C579 H547 0.928 . S
C579 C577 1.406 . S
C579 N580 1.261 . S
N580 Co531 2.214 . S
N580 C578 1.325 . S
N580 C579 1.261 . S
C581 H551 0.931 . S
C581 C578 1.357 . S
C581 C582 1.312 . S
C582 H553 0.930 . S
C582 C577 1.261 . S
C582 C581 1.312 . S
C583 O555 1.214 . S
C583 O563 1.234 . S
C584 H556 0.929 . S
C584 C587 1.391 . S
C584 C589 1.391 . S
C585 H557 0.929 . S
C585 C586 1.390 . S
C585 N588 1.391 . S
C586 H558 0.930 . S
C586 C585 1.390 . S
C586 C587 1.392 . S
C587 H559 0.929 . S
C587 C584 1.391 . S
C587 C586 1.392 . S
N588 Co532 2.257 . S
N588 C585 1.391 . S
N588 C589 1.388 . S
C589 H560 0.930 . S
C589 C584 1.391 . S
C589 N588 1.388 . S
Co590 O592 2.143 . S
Co590 O598 2.074 . S
Co590 O601 2.093 . S
Co590 O614 2.097 . S
Co590 N631 2.151 . S
Co590 N639 2.214 . S
Co591 O592 2.160 . S
Co591 O597 2.058 . S
Co591 O607 2.057 . S
Co591 O622 2.037 . S
Co591 N626 2.145 . S
Co591 N647 2.257 . S
O592 Co590 2.143 . S
O592 Co591 2.160 . S
C593 O594 1.278 . S
C593 O601 1.224 . S
O594 C593 1.278 . S
C595 O596 1.245 . S
C595 O607 1.232 . S
O596 C595 1.245 . S
O597 Co591 2.058 . S
O597 C623 1.269 . S
O598 Co590 2.074 . S
O598 C623 1.257 . S
H599 C624 0.930 . S
H600 C630 0.930 . S
O601 Co590 2.093 . S
O601 C593 1.224 . S
H602 C634 0.929 . S
H603 C636 0.930 . S
H604 C637 0.930 . S
H605 C635 0.929 . S
H606 C638 0.928 . S
O607 Co591 2.057 . S
O607 C595 1.232 . S
H608 C627 0.929 . S
H609 C628 0.929 . S
H610 C640 0.931 . S
H611 C632 0.929 . S
H612 C641 0.930 . S
H613 C633 0.931 . S
O614 Co590 2.097 . S
O614 C642 1.214 . S
H615 C643 0.929 . S
H616 C644 0.929 . S
H617 C645 0.930 . S
H618 C646 0.929 . S
H619 C648 0.930 . S
H620 C625 0.930 . S
H621 C629 0.930 . S
O622 Co591 2.037 . S
O622 C642 1.234 . S
C623 O597 1.269 . S
C623 O598 1.257 . S
C624 H599 0.930 . S
C624 C627 1.388 . S
C624 C629 1.418 . S
C625 H620 0.930 . S
C625 C628 1.404 . S
C625 C629 1.353 . S
N626 Co591 2.145 . S
N626 C627 1.397 . S
N626 C628 1.334 . S
C627 H608 0.929 . S
C627 C624 1.388 . S
C627 N626 1.397 . S
C628 H609 0.929 . S
C628 C625 1.404 . S
C628 N626 1.334 . S
C629 H621 0.930 . S
C629 C624 1.418 . S
C629 C625 1.353 . S
C630 H600 0.930 . S
C630 N631 1.330 . S
C630 C632 1.446 . S
N631 Co590 2.151 . S
N631 C630 1.330 . S
N631 C635 1.418 . S
C632 H611 0.929 . S
C632 C630 1.446 . S
C632 C633 1.332 . S
C633 H613 0.931 . S
C633 C632 1.332 . S
C633 C634 1.267 . S
C634 H602 0.929 . S
C634 C633 1.267 . S
C634 C635 1.251 . S
C635 H605 0.929 . S
C635 N631 1.418 . S
C635 C634 1.251 . S
C636 H603 0.930 . S
C636 C638 1.406 . S
C636 C641 1.261 . S
C637 H604 0.930 . S
C637 N639 1.325 . S
C637 C640 1.357 . S
C638 H606 0.928 . S
C638 C636 1.406 . S
C638 N639 1.261 . S
N639 Co590 2.214 . S
N639 C637 1.325 . S
N639 C638 1.261 . S
C640 H610 0.931 . S
C640 C637 1.357 . S
C640 C641 1.312 . S
C641 H612 0.930 . S
C641 C636 1.261 . S
C641 C640 1.312 . S
C642 O614 1.214 . S
C642 O622 1.234 . S
C643 H615 0.929 . S
C643 C646 1.391 . S
C643 C648 1.391 . S
C644 H616 0.929 . S
C644 C645 1.390 . S
C644 N647 1.391 . S
C645 H617 0.930 . S
C645 C644 1.390 . S
C645 C646 1.392 . S
C646 H618 0.929 . S
C646 C643 1.391 . S
C646 C645 1.392 . S
N647 Co591 2.257 . S
N647 C644 1.391 . S
N647 C648 1.388 . S
C648 H619 0.930 . S
C648 C643 1.391 . S
C648 N647 1.388 . S
Co649 O651 2.143 . S
Co649 O657 2.074 . S
Co649 O660 2.093 . S
Co649 O673 2.097 . S
Co649 N690 2.151 . S
Co649 N698 2.214 . S
Co650 O651 2.160 . S
Co650 O656 2.058 . S
Co650 O666 2.057 . S
Co650 O681 2.037 . S
Co650 N685 2.145 . S
Co650 N706 2.257 . S
O651 Co649 2.143 . S
O651 Co650 2.160 . S
C652 O653 1.278 . S
C652 O660 1.224 . S
O653 C652 1.278 . S
C654 O655 1.245 . S
C654 O666 1.232 . S
O655 C654 1.245 . S
O656 Co650 2.058 . S
O656 C682 1.269 . S
O657 Co649 2.074 . S
O657 C682 1.257 . S
H658 C683 0.930 . S
H659 C689 0.930 . S
O660 Co649 2.093 . S
O660 C652 1.224 . S
H661 C693 0.929 . S
H662 C695 0.930 . S
H663 C696 0.930 . S
H664 C694 0.929 . S
H665 C697 0.928 . S
O666 Co650 2.057 . S
O666 C654 1.232 . S
H667 C686 0.929 . S
H668 C687 0.929 . S
H669 C699 0.931 . S
H670 C691 0.929 . S
H671 C700 0.930 . S
H672 C692 0.931 . S
O673 Co649 2.097 . S
O673 C701 1.214 . S
H674 C702 0.929 . S
H675 C703 0.929 . S
H676 C704 0.930 . S
H677 C705 0.929 . S
H678 C707 0.930 . S
H679 C684 0.930 . S
H680 C688 0.930 . S
O681 Co650 2.037 . S
O681 C701 1.234 . S
C682 O656 1.269 . S
C682 O657 1.257 . S
C683 H658 0.930 . S
C683 C686 1.388 . S
C683 C688 1.418 . S
C684 H679 0.930 . S
C684 C687 1.404 . S
C684 C688 1.353 . S
N685 Co650 2.145 . S
N685 C686 1.397 . S
N685 C687 1.334 . S
C686 H667 0.929 . S
C686 C683 1.388 . S
C686 N685 1.397 . S
C687 H668 0.929 . S
C687 C684 1.404 . S
C687 N685 1.334 . S
C688 H680 0.930 . S
C688 C683 1.418 . S
C688 C684 1.353 . S
C689 H659 0.930 . S
C689 N690 1.330 . S
C689 C691 1.446 . S
N690 Co649 2.151 . S
N690 C689 1.330 . S
N690 C694 1.418 . S
C691 H670 0.929 . S
C691 C689 1.446 . S
C691 C692 1.332 . S
C692 H672 0.931 . S
C692 C691 1.332 . S
C692 C693 1.267 . S
C693 H661 0.929 . S
C693 C692 1.267 . S
C693 C694 1.251 . S
C694 H664 0.929 . S
C694 N690 1.418 . S
C694 C693 1.251 . S
C695 H662 0.930 . S
C695 C697 1.406 . S
C695 C700 1.261 . S
C696 H663 0.930 . S
C696 N698 1.325 . S
C696 C699 1.357 . S
C697 H665 0.928 . S
C697 C695 1.406 . S
C697 N698 1.261 . S
N698 Co649 2.214 . S
N698 C696 1.325 . S
N698 C697 1.261 . S
C699 H669 0.931 . S
C699 C696 1.357 . S
C699 C700 1.312 . S
C700 H671 0.930 . S
C700 C695 1.261 . S
C700 C699 1.312 . S
C701 O673 1.214 . S
C701 O681 1.234 . S
C702 H674 0.929 . S
C702 C705 1.391 . S
C702 C707 1.391 . S
C703 H675 0.929 . S
C703 C704 1.390 . S
C703 N706 1.391 . S
C704 H676 0.930 . S
C704 C703 1.390 . S
C704 C705 1.392 . S
C705 H677 0.929 . S
C705 C702 1.391 . S
C705 C704 1.392 . S
N706 Co650 2.257 . S
N706 C703 1.391 . S
N706 C707 1.388 . S
C707 H678 0.930 . S
C707 C702 1.391 . S
C707 N706 1.388 . S
C708 C709 1.349 . S
C708 C710 1.327 . S
C708 H733 0.950 . S
C709 C708 1.349 . S
C709 C725 1.349 . S
C710 C708 1.327 . S
C710 C729 1.429 . S
C710 H734 0.950 . S
C711 C728 1.574 . S
C711 C730 1.368 . S
C711 H735 0.949 . S
H712 C716 0.949 . S
C713 C714 1.349 . S
C713 C715 1.327 . S
C713 H736 0.950 . S
C714 C713 1.349 . S
C714 C726 1.349 . S
C715 C713 1.327 . S
C715 C731 1.429 . S
C715 H737 0.950 . S
C716 H712 0.949 . S
C716 C724 1.574 . S
C716 C732 1.368 . S
H717 C725 0.950 . S
H718 C723 0.950 . S
H719 C724 0.949 . S
H720 C726 0.950 . S
H721 C727 0.950 . S
H722 C728 0.949 . S
C723 H718 0.950 . S
C723 C725 1.327 . S
C723 C729 1.429 . S
C724 C716 1.574 . S
C724 H719 0.949 . S
C724 C730 1.368 . S
C725 C709 1.349 . S
C725 H717 0.950 . S
C725 C723 1.327 . S
C726 C714 1.349 . S
C726 H720 0.950 . S
C726 C727 1.327 . S
C727 H721 0.950 . S
C727 C726 1.327 . S
C727 C731 1.429 . S
C728 C711 1.574 . S
C728 H722 0.949 . S
C728 C732 1.368 . S
C729 C710 1.429 . S
C729 C723 1.429 . S
C729 C730 1.523 . S
C730 C711 1.368 . S
C730 C724 1.368 . S
C730 C729 1.523 . S
C731 C715 1.429 . S
C731 C727 1.429 . S
C731 C732 1.523 . S
C732 C716 1.368 . S
C732 C728 1.368 . S
C732 C731 1.523 . S
H733 C708 0.950 . S
H734 C710 0.950 . S
H735 C711 0.949 . S
H736 C713 0.950 . S
H737 C715 0.950 . S
C738 C739 1.349 . S
C738 C740 1.327 . S
C738 H763 0.950 . S
C739 C738 1.349 . S
C739 C755 1.349 . S
C740 C738 1.327 . S
C740 C759 1.429 . S
C740 H764 0.950 . S
C741 C758 1.574 . S
C741 C760 1.368 . S
C741 H765 0.949 . S
H742 C746 0.949 . S
C743 C744 1.349 . S
C743 C745 1.327 . S
C743 H766 0.950 . S
C744 C743 1.349 . S
C744 C756 1.349 . S
C745 C743 1.327 . S
C745 C761 1.429 . S
C745 H767 0.950 . S
C746 H742 0.949 . S
C746 C754 1.574 . S
C746 C762 1.368 . S
H747 C755 0.950 . S
H748 C753 0.950 . S
H749 C754 0.949 . S
H750 C756 0.950 . S
H751 C757 0.950 . S
H752 C758 0.949 . S
C753 H748 0.950 . S
C753 C755 1.327 . S
C753 C759 1.429 . S
C754 C746 1.574 . S
C754 H749 0.949 . S
C754 C760 1.368 . S
C755 C739 1.349 . S
C755 H747 0.950 . S
C755 C753 1.327 . S
C756 C744 1.349 . S
C756 H750 0.950 . S
C756 C757 1.327 . S
C757 H751 0.950 . S
C757 C756 1.327 . S
C757 C761 1.429 . S
C758 C741 1.574 . S
C758 H752 0.949 . S
C758 C762 1.368 . S
C759 C740 1.429 . S
C759 C753 1.429 . S
C759 C760 1.523 . S
C760 C741 1.368 . S
C760 C754 1.368 . S
C760 C759 1.523 . S
C761 C745 1.429 . S
C761 C757 1.429 . S
C761 C762 1.523 . S
C762 C746 1.368 . S
C762 C758 1.368 . S
C762 C761 1.523 . S
H763 C738 0.950 . S
H764 C740 0.950 . S
H765 C741 0.949 . S
H766 C743 0.950 . S
H767 C745 0.950 . S
C768 C769 1.349 . S
C768 C770 1.327 . S
C768 H793 0.950 . S
C769 C768 1.349 . S
C769 C785 1.349 . S
C770 C768 1.327 . S
C770 C789 1.429 . S
C770 H794 0.950 . S
C771 C788 1.574 . S
C771 C790 1.368 . S
C771 H795 0.949 . S
H772 C776 0.949 . S
C773 C774 1.349 . S
C773 C775 1.327 . S
C773 H796 0.950 . S
C774 C773 1.349 . S
C774 C786 1.349 . S
C775 C773 1.327 . S
C775 C791 1.429 . S
C775 H797 0.950 . S
C776 H772 0.949 . S
C776 C784 1.574 . S
C776 C792 1.368 . S
H777 C785 0.950 . S
H778 C783 0.950 . S
H779 C784 0.949 . S
H780 C786 0.950 . S
H781 C787 0.950 . S
H782 C788 0.949 . S
C783 H778 0.950 . S
C783 C785 1.327 . S
C783 C789 1.429 . S
C784 C776 1.574 . S
C784 H779 0.949 . S
C784 C790 1.368 . S
C785 C769 1.349 . S
C785 H777 0.950 . S
C785 C783 1.327 . S
C786 C774 1.349 . S
C786 H780 0.950 . S
C786 C787 1.327 . S
C787 H781 0.950 . S
C787 C786 1.327 . S
C787 C791 1.429 . S
C788 C771 1.574 . S
C788 H782 0.949 . S
C788 C792 1.368 . S
C789 C770 1.429 . S
C789 C783 1.429 . S
C789 C790 1.523 . S
C790 C771 1.368 . S
C790 C784 1.368 . S
C790 C789 1.523 . S
C791 C775 1.429 . S
C791 C787 1.429 . S
C791 C792 1.523 . S
C792 C776 1.368 . S
C792 C788 1.368 . S
C792 C791 1.523 . S
H793 C768 0.950 . S
H794 C770 0.950 . S
H795 C771 0.949 . S
H796 C773 0.950 . S
H797 C775 0.950 . S
C798 C799 1.349 . S
C798 C800 1.327 . S
C798 H823 0.950 . S
C799 C798 1.349 . S
C799 C815 1.349 . S
C800 C798 1.327 . S
C800 C819 1.429 . S
C800 H824 0.950 . S
C801 C818 1.574 . S
C801 C820 1.368 . S
C801 H825 0.949 . S
H802 C806 0.949 . S
C803 C804 1.349 . S
C803 C805 1.327 . S
C803 H826 0.950 . S
C804 C803 1.349 . S
C804 C816 1.349 . S
C805 C803 1.327 . S
C805 C821 1.429 . S
C805 H827 0.950 . S
C806 H802 0.949 . S
C806 C814 1.574 . S
C806 C822 1.368 . S
H807 C815 0.950 . S
H808 C813 0.950 . S
H809 C814 0.949 . S
H810 C816 0.950 . S
H811 C817 0.950 . S
H812 C818 0.949 . S
C813 H808 0.950 . S
C813 C815 1.327 . S
C813 C819 1.429 . S
C814 C806 1.574 . S
C814 H809 0.949 . S
C814 C820 1.368 . S
C815 C799 1.349 . S
C815 H807 0.950 . S
C815 C813 1.327 . S
C816 C804 1.349 . S
C816 H810 0.950 . S
C816 C817 1.327 . S
C817 H811 0.950 . S
C817 C816 1.327 . S
C817 C821 1.429 . S
C818 C801 1.574 . S
C818 H812 0.949 . S
C818 C822 1.368 . S
C819 C800 1.429 . S
C819 C813 1.429 . S
C819 C820 1.523 . S
C820 C801 1.368 . S
C820 C814 1.368 . S
C820 C819 1.523 . S
C821 C805 1.429 . S
C821 C817 1.429 . S
C821 C822 1.523 . S
C822 C806 1.368 . S
C822 C818 1.368 . S
C822 C821 1.523 . S
H823 C798 0.950 . S
H824 C800 0.950 . S
H825 C801 0.949 . S
H826 C803 0.950 . S
H827 C805 0.950 . S
C828 C829 1.349 . S
C828 C830 1.327 . S
C828 H853 0.950 . S
C829 C828 1.349 . S
C829 C845 1.349 . S
C830 C828 1.327 . S
C830 C849 1.429 . S
C830 H854 0.950 . S
C831 C848 1.574 . S
C831 C850 1.368 . S
C831 H855 0.949 . S
H832 C836 0.949 . S
C833 C834 1.349 . S
C833 C835 1.327 . S
C833 H856 0.950 . S
C834 C833 1.349 . S
C834 C846 1.349 . S
C835 C833 1.327 . S
C835 C851 1.429 . S
C835 H857 0.950 . S
C836 H832 0.949 . S
C836 C844 1.574 . S
C836 C852 1.368 . S
H837 C845 0.950 . S
H838 C843 0.950 . S
H839 C844 0.949 1_554 S
H840 C846 0.950 . S
H841 C847 0.950 . S
H842 C848 0.949 . S
C843 H838 0.950 . S
C843 C845 1.327 . S
C843 C849 1.429 . S
C844 C836 1.574 . S
C844 H839 0.949 1_556 S
C844 C850 1.368 . S
C845 C829 1.349 . S
C845 H837 0.950 . S
C845 C843 1.327 . S
C846 C834 1.349 . S
C846 H840 0.950 . S
C846 C847 1.327 . S
C847 H841 0.950 . S
C847 C846 1.327 . S
C847 C851 1.429 . S
C848 C831 1.574 . S
C848 H842 0.949 . S
C848 C852 1.368 . S
C849 C830 1.429 . S
C849 C843 1.429 . S
C849 C850 1.523 1_554 S
C850 C831 1.368 . S
C850 C844 1.368 . S
C850 C849 1.523 1_556 S
C851 C835 1.429 . S
C851 C847 1.429 . S
C851 C852 1.523 . S
C852 C836 1.368 . S
C852 C848 1.368 . S
C852 C851 1.523 . S
H853 C828 0.950 . S
H854 C830 0.950 . S
H855 C831 0.949 . S
H856 C833 0.950 . S
H857 C835 0.950 . S
C858 C859 1.349 . S
C858 C860 1.327 . S
C858 H883 0.950 . S
C859 C858 1.349 . S
C859 C875 1.349 . S
C860 C858 1.327 . S
C860 C879 1.429 . S
C860 H884 0.950 . S
C861 C878 1.574 . S
C861 C880 1.368 . S
C861 H885 0.949 . S
H862 C866 0.949 . S
C863 C864 1.349 1_554 S
C863 C865 1.327 . S
C863 H886 0.950 1_554 S
C864 C863 1.349 1_556 S
C864 C876 1.349 . S
C865 C863 1.327 . S
C865 C881 1.429 . S
C865 H887 0.950 . S
C866 H862 0.949 . S
C866 C874 1.574 . S
C866 C882 1.368 . S
H867 C875 0.950 . S
H868 C873 0.950 . S
H869 C874 0.949 . S
H870 C876 0.950 . S
H871 C877 0.950 . S
H872 C878 0.949 . S
C873 H868 0.950 . S
C873 C875 1.327 . S
C873 C879 1.429 . S
C874 C866 1.574 . S
C874 H869 0.949 . S
C874 C880 1.368 . S
C875 C859 1.349 . S
C875 H867 0.950 . S
C875 C873 1.327 . S
C876 C864 1.349 . S
C876 H870 0.950 . S
C876 C877 1.327 1_556 S
C877 H871 0.950 . S
C877 C876 1.327 1_554 S
C877 C881 1.429 . S
C878 C861 1.574 . S
C878 H872 0.949 . S
C878 C882 1.368 . S
C879 C860 1.429 . S
C879 C873 1.429 . S
C879 C880 1.523 . S
C880 C861 1.368 . S
C880 C874 1.368 . S
C880 C879 1.523 . S
C881 C865 1.429 . S
C881 C877 1.429 . S
C881 C882 1.523 . S
C882 C866 1.368 . S
C882 C878 1.368 . S
C882 C881 1.523 . S
H883 C858 0.950 . S
H884 C860 0.950 . S
H885 C861 0.949 . S
H886 C863 0.950 1_556 S
H887 C865 0.950 . S
C888 C889 1.349 . S
C888 C890 1.327 . S
C888 H913 0.950 . S
C889 C888 1.349 . S
C889 C905 1.349 . S
C890 C888 1.327 . S
C890 C909 1.429 . S
C890 H914 0.950 . S
C891 C908 1.574 . S
C891 C910 1.368 . S
C891 H915 0.949 . S
H892 C896 0.949 . S
C893 C894 1.349 . S
C893 C895 1.327 . S
C893 H916 0.950 . S
C894 C893 1.349 . S
C894 C906 1.349 . S
C895 C893 1.327 . S
C895 C911 1.429 . S
C895 H917 0.950 . S
C896 H892 0.949 . S
C896 C904 1.574 . S
C896 C912 1.368 . S
H897 C905 0.950 . S
H898 C903 0.950 . S
H899 C904 0.949 . S
H900 C906 0.950 . S
H901 C907 0.950 . S
H902 C908 0.949 . S
C903 H898 0.950 . S
C903 C905 1.327 . S
C903 C909 1.429 . S
C904 C896 1.574 . S
C904 H899 0.949 . S
C904 C910 1.368 . S
C905 C889 1.349 . S
C905 H897 0.950 . S
C905 C903 1.327 . S
C906 C894 1.349 . S
C906 H900 0.950 . S
C906 C907 1.327 . S
C907 H901 0.950 . S
C907 C906 1.327 . S
C907 C911 1.429 . S
C908 C891 1.574 . S
C908 H902 0.949 . S
C908 C912 1.368 . S
C909 C890 1.429 . S
C909 C903 1.429 . S
C909 C910 1.523 . S
C910 C891 1.368 . S
C910 C904 1.368 . S
C910 C909 1.523 . S
C911 C895 1.429 . S
C911 C907 1.429 . S
C911 C912 1.523 . S
C912 C896 1.368 . S
C912 C908 1.368 . S
C912 C911 1.523 . S
H913 C888 0.950 . S
H914 C890 0.950 . S
H915 C891 0.949 . S
H916 C893 0.950 . S
H917 C895 0.950 . S
C918 C919 1.349 . S
C918 C920 1.327 . S
C918 H943 0.950 . S
C919 C918 1.349 . S
C919 C935 1.349 . S
C920 C918 1.327 . S
C920 C939 1.429 . S
C920 H944 0.950 . S
C921 C938 1.574 . S
C921 C940 1.368 . S
C921 H945 0.949 . S
H922 C926 0.949 . S
C923 C924 1.349 . S
C923 C925 1.327 . S
C923 H946 0.950 . S
C924 C923 1.349 . S
C924 C936 1.349 . S
C925 C923 1.327 . S
C925 C941 1.429 . S
C925 H947 0.950 . S
C926 H922 0.949 . S
C926 C934 1.574 . S
C926 C942 1.368 . S
H927 C935 0.950 . S
H928 C933 0.950 . S
H929 C934 0.949 . S
H930 C936 0.950 . S
H931 C937 0.950 . S
H932 C938 0.949 . S
C933 H928 0.950 . S
C933 C935 1.327 . S
C933 C939 1.429 . S
C934 C926 1.574 . S
C934 H929 0.949 . S
C934 C940 1.368 . S
C935 C919 1.349 . S
C935 H927 0.950 . S
C935 C933 1.327 . S
C936 C924 1.349 . S
C936 H930 0.950 . S
C936 C937 1.327 . S
C937 H931 0.950 . S
C937 C936 1.327 . S
C937 C941 1.429 . S
C938 C921 1.574 . S
C938 H932 0.949 . S
C938 C942 1.368 . S
C939 C920 1.429 . S
C939 C933 1.429 . S
C939 C940 1.523 . S
C940 C921 1.368 . S
C940 C934 1.368 . S
C940 C939 1.523 . S
C941 C925 1.429 . S
C941 C937 1.429 . S
C941 C942 1.523 . S
C942 C926 1.368 . S
C942 C938 1.368 . S
C942 C941 1.523 . S
H943 C918 0.950 . S
H944 C920 0.950 . S
H945 C921 0.949 . S
H946 C923 0.950 . S
H947 C925 0.950 . S
C948 C949 1.349 . S
C948 C950 1.327 . S
C948 H973 0.950 . S
C949 C948 1.349 . S
C949 C965 1.349 . S
C950 C948 1.327 . S
C950 C969 1.429 . S
C950 H974 0.950 . S
C951 C968 1.574 . S
C951 C970 1.368 . S
C951 H975 0.949 . S
H952 C956 0.949 . S
C953 C954 1.349 . S
C953 C955 1.327 . S
C953 H976 0.950 . S
C954 C953 1.349 . S
C954 C966 1.349 . S
C955 C953 1.327 . S
C955 C971 1.429 . S
C955 H977 0.950 . S
C956 H952 0.949 . S
C956 C964 1.574 . S
C956 C972 1.368 . S
H957 C965 0.950 . S
H958 C963 0.950 . S
H959 C964 0.949 . S
H960 C966 0.950 . S
H961 C967 0.950 . S
H962 C968 0.949 . S
C963 H958 0.950 . S
C963 C965 1.327 . S
C963 C969 1.429 . S
C964 C956 1.574 . S
C964 H959 0.949 . S
C964 C970 1.368 . S
C965 C949 1.349 . S
C965 H957 0.950 . S
C965 C963 1.327 . S
C966 C954 1.349 . S
C966 H960 0.950 . S
C966 C967 1.327 . S
C967 H961 0.950 . S
C967 C966 1.327 . S
C967 C971 1.429 . S
C968 C951 1.574 . S
C968 H962 0.949 . S
C968 C972 1.368 . S
C969 C950 1.429 . S
C969 C963 1.429 . S
C969 C970 1.523 . S
C970 C951 1.368 . S
C970 C964 1.368 . S
C970 C969 1.523 . S
C971 C955 1.429 . S
C971 C967 1.429 . S
C971 C972 1.523 . S
C972 C956 1.368 . S
C972 C968 1.368 . S
C972 C971 1.523 . S
H973 C948 0.950 . S
H974 C950 0.950 . S
H975 C951 0.949 . S
H976 C953 0.950 . S
H977 C955 0.950 . S
C978 C979 1.349 . S
C978 C980 1.327 . S
C978 H1003 0.950 . S
C979 C978 1.349 . S
C979 C995 1.349 . S
C980 C978 1.327 . S
C980 C999 1.429 . S
C980 H1004 0.950 . S
C981 C998 1.574 . S
C981 C1000 1.368 . S
C981 H1005 0.949 . S
H982 C986 0.949 . S
C983 C984 1.349 . S
C983 C985 1.327 . S
C983 H1006 0.950 . S
C984 C983 1.349 . S
C984 C996 1.349 . S
C985 C983 1.327 . S
C985 C1001 1.429 . S
C985 H1007 0.950 . S
C986 H982 0.949 . S
C986 C994 1.574 . S
C986 C1002 1.368 . S
H987 C995 0.950 . S
H988 C993 0.950 . S
H989 C994 0.949 . S
H990 C996 0.950 . S
H991 C997 0.950 . S
H992 C998 0.949 . S
C993 H988 0.950 . S
C993 C995 1.327 . S
C993 C999 1.429 . S
C994 C986 1.574 . S
C994 H989 0.949 . S
C994 C1000 1.368 . S
C995 C979 1.349 . S
C995 H987 0.950 . S
C995 C993 1.327 . S
C996 C984 1.349 . S
C996 H990 0.950 . S
C996 C997 1.327 . S
C997 H991 0.950 . S
C997 C996 1.327 . S
C997 C1001 1.429 . S
C998 C981 1.574 . S
C998 H992 0.949 . S
C998 C1002 1.368 . S
C999 C980 1.429 . S
C999 C993 1.429 . S
C999 C1000 1.523 . S
C1000 C981 1.368 . S
C1000 C994 1.368 . S
C1000 C999 1.523 . S
C1001 C985 1.429 . S
C1001 C997 1.429 . S
C1001 C1002 1.523 . S
C1002 C986 1.368 . S
C1002 C998 1.368 . S
C1002 C1001 1.523 . S
H1003 C978 0.950 . S
H1004 C980 0.950 . S
H1005 C981 0.949 . S
H1006 C983 0.950 . S
H1007 C985 0.950 . S
C1008 C1009 1.349 . S
C1008 C1010 1.327 . S
C1008 H1033 0.950 . S
C1009 C1008 1.349 . S
C1009 C1025 1.349 . S
C1010 C1008 1.327 . S
C1010 C1029 1.429 . S
C1010 H1034 0.950 . S
C1011 C1028 1.574 . S
C1011 C1030 1.368 . S
C1011 H1035 0.949 . S
H1012 C1016 0.949 . S
C1013 C1014 1.349 . S
C1013 C1015 1.327 . S
C1013 H1036 0.950 . S
C1014 C1013 1.349 . S
C1014 C1026 1.349 . S
C1015 C1013 1.327 . S
C1015 C1031 1.429 . S
C1015 H1037 0.950 . S
C1016 H1012 0.949 . S
C1016 C1024 1.574 . S
C1016 C1032 1.368 . S
H1017 C1025 0.950 . S
H1018 C1023 0.950 . S
H1019 C1024 0.949 . S
H1020 C1026 0.950 . S
H1021 C1027 0.950 . S
H1022 C1028 0.949 . S
C1023 H1018 0.950 . S
C1023 C1025 1.327 . S
C1023 C1029 1.429 . S
C1024 C1016 1.574 . S
C1024 H1019 0.949 . S
C1024 C1030 1.368 . S
C1025 C1009 1.349 . S
C1025 H1017 0.950 . S
C1025 C1023 1.327 . S
C1026 C1014 1.349 . S
C1026 H1020 0.950 . S
C1026 C1027 1.327 . S
C1027 H1021 0.950 . S
C1027 C1026 1.327 . S
C1027 C1031 1.429 . S
C1028 C1011 1.574 . S
C1028 H1022 0.949 . S
C1028 C1032 1.368 . S
C1029 C1010 1.429 . S
C1029 C1023 1.429 . S
C1029 C1030 1.523 . S
C1030 C1011 1.368 . S
C1030 C1024 1.368 . S
C1030 C1029 1.523 . S
C1031 C1015 1.429 . S
C1031 C1027 1.429 . S
C1031 C1032 1.523 . S
C1032 C1016 1.368 . S
C1032 C1028 1.368 . S
C1032 C1031 1.523 . S
H1033 C1008 0.950 . S
H1034 C1010 0.950 . S
H1035 C1011 0.949 . S
H1036 C1013 0.950 . S
H1037 C1015 0.950 . S
C1038 C1039 1.349 . S
C1038 C1040 1.327 . S
C1038 H1063 0.950 . S
C1039 C1038 1.349 . S
C1039 C1055 1.349 . S
C1040 C1038 1.327 . S
C1040 C1059 1.429 . S
C1040 H1064 0.950 . S
C1041 C1058 1.574 . S
C1041 C1060 1.368 . S
C1041 H1065 0.949 . S
H1042 C1046 0.949 . S
C1043 C1044 1.349 . S
C1043 C1045 1.327 . S
C1043 H1066 0.950 . S
C1044 C1043 1.349 . S
C1044 C1056 1.349 1_554 S
C1045 C1043 1.327 . S
C1045 C1061 1.429 1_554 S
C1045 H1067 0.950 . S
C1046 H1042 0.949 . S
C1046 C1054 1.574 . S
C1046 C1062 1.368 . S
H1047 C1055 0.950 . S
H1048 C1053 0.950 . S
H1049 C1054 0.949 . S
H1050 C1056 0.950 . S
H1051 C1057 0.950 . S
H1052 C1058 0.949 1_554 S
C1053 H1048 0.950 . S
C1053 C1055 1.327 . S
C1053 C1059 1.429 . S
C1054 C1046 1.574 . S
C1054 H1049 0.949 . S
C1054 C1060 1.368 . S
C1055 C1039 1.349 . S
C1055 H1047 0.950 . S
C1055 C1053 1.327 . S
C1056 C1044 1.349 1_556 S
C1056 H1050 0.950 . S
C1056 C1057 1.327 . S
C1057 H1051 0.950 . S
C1057 C1056 1.327 . S
C1057 C1061 1.429 . S
C1058 C1041 1.574 . S
C1058 H1052 0.949 1_556 S
C1058 C1062 1.368 . S
C1059 C1040 1.429 . S
C1059 C1053 1.429 . S
C1059 C1060 1.523 . S
C1060 C1041 1.368 . S
C1060 C1054 1.368 . S
C1060 C1059 1.523 . S
C1061 C1045 1.429 1_556 S
C1061 C1057 1.429 . S
C1061 C1062 1.523 . S
C1062 C1046 1.368 . S
C1062 C1058 1.368 . S
C1062 C1061 1.523 . S
H1063 C1038 0.950 . S
H1064 C1040 0.950 . S
H1065 C1041 0.949 . S
H1066 C1043 0.950 . S
H1067 C1045 0.950 . S
C1068 C1069 1.349 . S
C1068 C1070 1.327 . S
C1068 H1093 0.950 . S
C1069 C1068 1.349 . S
C1069 C1085 1.349 . S
C1070 C1068 1.327 . S
C1070 C1089 1.429 . S
C1070 H1094 0.950 . S
C1071 C1088 1.574 . S
C1071 C1090 1.368 . S
C1071 H1095 0.949 . S
H1072 C1076 0.949 . S
C1073 C1074 1.349 . S
C1073 C1075 1.327 . S
C1073 H1096 0.950 . S
C1074 C1073 1.349 . S
C1074 C1086 1.349 . S
C1075 C1073 1.327 . S
C1075 C1091 1.429 . S
C1075 H1097 0.950 . S
C1076 H1072 0.949 . S
C1076 C1084 1.574 . S
C1076 C1092 1.368 . S
H1077 C1085 0.950 . S
H1078 C1083 0.950 . S
H1079 C1084 0.949 . S
H1080 C1086 0.950 . S
H1081 C1087 0.950 . S
H1082 C1088 0.949 . S
C1083 H1078 0.950 . S
C1083 C1085 1.327 . S
C1083 C1089 1.429 . S
C1084 C1076 1.574 . S
C1084 H1079 0.949 . S
C1084 C1090 1.368 . S
C1085 C1069 1.349 . S
C1085 H1077 0.950 . S
C1085 C1083 1.327 . S
C1086 C1074 1.349 . S
C1086 H1080 0.950 . S
C1086 C1087 1.327 . S
C1087 H1081 0.950 . S
C1087 C1086 1.327 . S
C1087 C1091 1.429 . S
C1088 C1071 1.574 . S
C1088 H1082 0.949 . S
C1088 C1092 1.368 . S
C1089 C1070 1.429 . S
C1089 C1083 1.429 . S
C1089 C1090 1.523 . S
C1090 C1071 1.368 . S
C1090 C1084 1.368 . S
C1090 C1089 1.523 . S
C1091 C1075 1.429 . S
C1091 C1087 1.429 . S
C1091 C1092 1.523 . S
C1092 C1076 1.368 . S
C1092 C1088 1.368 . S
C1092 C1091 1.523 . S
H1093 C1068 0.950 . S
H1094 C1070 0.950 . S
H1095 C1071 0.949 . S
H1096 C1073 0.950 . S
H1097 C1075 0.950 . S
C1098 C1099 1.349 . S
C1098 C1100 1.327 . S
C1098 H1123 0.950 . S
C1099 C1098 1.349 . S
C1099 C1115 1.349 . S
C1100 C1098 1.327 . S
C1100 C1119 1.429 . S
C1100 H1124 0.950 . S
C1101 C1118 1.574 . S
C1101 C1120 1.368 . S
C1101 H1125 0.949 . S
H1102 C1106 0.949 . S
C1103 C1104 1.349 . S
C1103 C1105 1.327 . S
C1103 H1126 0.950 . S
C1104 C1103 1.349 . S
C1104 C1116 1.349 . S
C1105 C1103 1.327 . S
C1105 C1121 1.429 . S
C1105 H1127 0.950 . S
C1106 H1102 0.949 . S
C1106 C1114 1.574 . S
C1106 C1122 1.368 . S
H1107 C1115 0.950 . S
H1108 C1113 0.950 . S
H1109 C1114 0.949 . S
H1110 C1116 0.950 . S
H1111 C1117 0.950 . S
H1112 C1118 0.949 . S
C1113 H1108 0.950 . S
C1113 C1115 1.327 . S
C1113 C1119 1.429 . S
C1114 C1106 1.574 . S
C1114 H1109 0.949 . S
C1114 C1120 1.368 . S
C1115 C1099 1.349 . S
C1115 H1107 0.950 . S
C1115 C1113 1.327 . S
C1116 C1104 1.349 . S
C1116 H1110 0.950 . S
C1116 C1117 1.327 . S
C1117 H1111 0.950 . S
C1117 C1116 1.327 . S
C1117 C1121 1.429 . S
C1118 C1101 1.574 . S
C1118 H1112 0.949 . S
C1118 C1122 1.368 . S
C1119 C1100 1.429 . S
C1119 C1113 1.429 . S
C1119 C1120 1.523 . S
C1120 C1101 1.368 . S
C1120 C1114 1.368 . S
C1120 C1119 1.523 . S
C1121 C1105 1.429 . S
C1121 C1117 1.429 . S
C1121 C1122 1.523 1_554 S
C1122 C1106 1.368 . S
C1122 C1118 1.368 . S
C1122 C1121 1.523 1_556 S
H1123 C1098 0.950 . S
H1124 C1100 0.950 . S
H1125 C1101 0.949 . S
H1126 C1103 0.950 . S
H1127 C1105 0.950 . S
C1128 C1129 1.349 . S
C1128 C1130 1.327 1_556 S
C1128 H1153 0.950 . S
C1129 C1128 1.349 . S
C1129 C1145 1.349 1_556 S
C1130 C1128 1.327 1_554 S
C1130 C1149 1.429 . S
C1130 H1154 0.950 . S
C1131 C1148 1.574 . S
C1131 C1150 1.368 . S
C1131 H1155 0.949 . S
H1132 C1136 0.949 . S
C1133 C1134 1.349 . S
C1133 C1135 1.327 . S
C1133 H1156 0.950 . S
C1134 C1133 1.349 . S
C1134 C1146 1.349 . S
C1135 C1133 1.327 . S
C1135 C1151 1.429 . S
C1135 H1157 0.950 . S
C1136 H1132 0.949 . S
C1136 C1144 1.574 . S
C1136 C1152 1.368 . S
H1137 C1145 0.950 . S
H1138 C1143 0.950 . S
H1139 C1144 0.949 . S
H1140 C1146 0.950 . S
H1141 C1147 0.950 . S
H1142 C1148 0.949 . S
C1143 H1138 0.950 . S
C1143 C1145 1.327 . S
C1143 C1149 1.429 . S
C1144 C1136 1.574 . S
C1144 H1139 0.949 . S
C1144 C1150 1.368 . S
C1145 C1129 1.349 1_554 S
C1145 H1137 0.950 . S
C1145 C1143 1.327 . S
C1146 C1134 1.349 . S
C1146 H1140 0.950 . S
C1146 C1147 1.327 . S
C1147 H1141 0.950 . S
C1147 C1146 1.327 . S
C1147 C1151 1.429 . S
C1148 C1131 1.574 . S
C1148 H1142 0.949 . S
C1148 C1152 1.368 . S
C1149 C1130 1.429 . S
C1149 C1143 1.429 . S
C1149 C1150 1.523 . S
C1150 C1131 1.368 . S
C1150 C1144 1.368 . S
C1150 C1149 1.523 . S
C1151 C1135 1.429 . S
C1151 C1147 1.429 . S
C1151 C1152 1.523 . S
C1152 C1136 1.368 . S
C1152 C1148 1.368 . S
C1152 C1151 1.523 . S
H1153 C1128 0.950 . S
H1154 C1130 0.950 . S
H1155 C1131 0.949 . S
H1156 C1133 0.950 . S
H1157 C1135 0.950 . S
C1158 C1159 1.349 . S
C1158 C1160 1.327 . S
C1158 H1183 0.950 . S
C1159 C1158 1.349 . S
C1159 C1175 1.349 . S
C1160 C1158 1.327 . S
C1160 C1179 1.429 . S
C1160 H1184 0.950 . S
C1161 C1178 1.574 . S
C1161 C1180 1.368 . S
C1161 H1185 0.949 . S
H1162 C1166 0.949 . S
C1163 C1164 1.349 . S
C1163 C1165 1.327 . S
C1163 H1186 0.950 . S
C1164 C1163 1.349 . S
C1164 C1176 1.349 . S
C1165 C1163 1.327 . S
C1165 C1181 1.429 . S
C1165 H1187 0.950 . S
C1166 H1162 0.949 . S
C1166 C1174 1.574 . S
C1166 C1182 1.368 . S
H1167 C1175 0.950 . S
H1168 C1173 0.950 . S
H1169 C1174 0.949 . S
H1170 C1176 0.950 . S
H1171 C1177 0.950 . S
H1172 C1178 0.949 . S
C1173 H1168 0.950 . S
C1173 C1175 1.327 . S
C1173 C1179 1.429 . S
C1174 C1166 1.574 . S
C1174 H1169 0.949 . S
C1174 C1180 1.368 . S
C1175 C1159 1.349 . S
C1175 H1167 0.950 . S
C1175 C1173 1.327 . S
C1176 C1164 1.349 . S
C1176 H1170 0.950 . S
C1176 C1177 1.327 . S
C1177 H1171 0.950 . S
C1177 C1176 1.327 . S
C1177 C1181 1.429 . S
C1178 C1161 1.574 . S
C1178 H1172 0.949 . S
C1178 C1182 1.368 . S
C1179 C1160 1.429 . S
C1179 C1173 1.429 . S
C1179 C1180 1.523 . S
C1180 C1161 1.368 . S
C1180 C1174 1.368 . S
C1180 C1179 1.523 . S
C1181 C1165 1.429 . S
C1181 C1177 1.429 . S
C1181 C1182 1.523 . S
C1182 C1166 1.368 . S
C1182 C1178 1.368 . S
C1182 C1181 1.523 . S
H1183 C1158 0.950 . S
H1184 C1160 0.950 . S
H1185 C1161 0.949 . S
H1186 C1163 0.950 . S
H1187 C1165 0.950 . S
C1188 C1189 1.349 . S
C1188 C1190 1.327 . S
C1188 H1213 0.950 . S
C1189 C1188 1.349 . S
C1189 C1205 1.349 . S
C1190 C1188 1.327 . S
C1190 C1209 1.429 . S
C1190 H1214 0.950 . S
C1191 C1208 1.574 . S
C1191 C1210 1.368 . S
C1191 H1215 0.949 . S
H1192 C1196 0.949 . S
C1193 C1194 1.349 . S
C1193 C1195 1.327 . S
C1193 H1216 0.950 . S
C1194 C1193 1.349 . S
C1194 C1206 1.349 . S
C1195 C1193 1.327 . S
C1195 C1211 1.429 . S
C1195 H1217 0.950 . S
C1196 H1192 0.949 . S
C1196 C1204 1.574 . S
C1196 C1212 1.368 . S
H1197 C1205 0.950 . S
H1198 C1203 0.950 . S
H1199 C1204 0.949 . S
H1200 C1206 0.950 . S
H1201 C1207 0.950 . S
H1202 C1208 0.949 . S
C1203 H1198 0.950 . S
C1203 C1205 1.327 . S
C1203 C1209 1.429 . S
C1204 C1196 1.574 . S
C1204 H1199 0.949 . S
C1204 C1210 1.368 . S
C1205 C1189 1.349 . S
C1205 H1197 0.950 . S
C1205 C1203 1.327 . S
C1206 C1194 1.349 . S
C1206 H1200 0.950 . S
C1206 C1207 1.327 . S
C1207 H1201 0.950 . S
C1207 C1206 1.327 . S
C1207 C1211 1.429 . S
C1208 C1191 1.574 . S
C1208 H1202 0.949 . S
C1208 C1212 1.368 . S
C1209 C1190 1.429 . S
C1209 C1203 1.429 . S
C1209 C1210 1.523 . S
C1210 C1191 1.368 . S
C1210 C1204 1.368 . S
C1210 C1209 1.523 . S
C1211 C1195 1.429 . S
C1211 C1207 1.429 . S
C1211 C1212 1.523 . S
C1212 C1196 1.368 . S
C1212 C1208 1.368 . S
C1212 C1211 1.523 . S
H1213 C1188 0.950 . S
H1214 C1190 0.950 . S
H1215 C1191 0.949 . S
H1216 C1193 0.950 . S
H1217 C1195 0.950 . S
C1218 C1219 1.349 . S
C1218 C1220 1.327 . S
C1218 H1243 0.950 . S
C1219 C1218 1.349 . S
C1219 C1235 1.349 . S
C1220 C1218 1.327 . S
C1220 C1239 1.429 . S
C1220 H1244 0.950 . S
C1221 C1238 1.574 . S
C1221 C1240 1.368 . S
C1221 H1245 0.949 . S
H1222 C1226 0.949 . S
C1223 C1224 1.349 . S
C1223 C1225 1.327 . S
C1223 H1246 0.950 . S
C1224 C1223 1.349 . S
C1224 C1236 1.349 . S
C1225 C1223 1.327 . S
C1225 C1241 1.429 . S
C1225 H1247 0.950 . S
C1226 H1222 0.949 . S
C1226 C1234 1.574 . S
C1226 C1242 1.368 . S
H1227 C1235 0.950 . S
H1228 C1233 0.950 . S
H1229 C1234 0.949 . S
H1230 C1236 0.950 . S
H1231 C1237 0.950 . S
H1232 C1238 0.949 . S
C1233 H1228 0.950 . S
C1233 C1235 1.327 . S
C1233 C1239 1.429 . S
C1234 C1226 1.574 . S
C1234 H1229 0.949 . S
C1234 C1240 1.368 . S
C1235 C1219 1.349 . S
C1235 H1227 0.950 . S
C1235 C1233 1.327 . S
C1236 C1224 1.349 . S
C1236 H1230 0.950 . S
C1236 C1237 1.327 . S
C1237 H1231 0.950 . S
C1237 C1236 1.327 . S
C1237 C1241 1.429 . S
C1238 C1221 1.574 . S
C1238 H1232 0.949 . S
C1238 C1242 1.368 . S
C1239 C1220 1.429 . S
C1239 C1233 1.429 . S
C1239 C1240 1.523 . S
C1240 C1221 1.368 . S
C1240 C1234 1.368 . S
C1240 C1239 1.523 . S
C1241 C1225 1.429 . S
C1241 C1237 1.429 . S
C1241 C1242 1.523 . S
C1242 C1226 1.368 . S
C1242 C1238 1.368 . S
C1242 C1241 1.523 . S
H1243 C1218 0.950 . S
H1244 C1220 0.950 . S
H1245 C1221 0.949 . S
H1246 C1223 0.950 . S
H1247 C1225 0.950 . S
C1248 C1249 1.349 . S
C1248 C1250 1.327 . S
C1248 H1273 0.950 . S
C1249 C1248 1.349 . S
C1249 C1265 1.349 . S
C1250 C1248 1.327 . S
C1250 C1269 1.429 . S
C1250 H1274 0.950 . S
C1251 C1268 1.574 1_545 S
C1251 C1270 1.368 . S
C1251 H1275 0.949 . S
H1252 C1256 0.949 1_556 S
C1253 C1254 1.349 . S
C1253 C1255 1.327 . S
C1253 H1276 0.950 . S
C1254 C1253 1.349 . S
C1254 C1266 1.349 . S
C1255 C1253 1.327 . S
C1255 C1271 1.429 . S
C1255 H1277 0.950 . S
C1256 H1252 0.949 1_554 S
C1256 C1264 1.574 1_565 S
C1256 C1272 1.368 . S
H1257 C1265 0.950 . S
H1258 C1263 0.950 . S
H1259 C1264 0.949 . S
H1260 C1266 0.950 1_556 S
H1261 C1267 0.950 1_556 S
H1262 C1268 0.949 . S
C1263 H1258 0.950 . S
C1263 C1265 1.327 . S
C1263 C1269 1.429 . S
C1264 C1256 1.574 1_545 S
C1264 H1259 0.949 . S
C1264 C1270 1.368 . S
C1265 C1249 1.349 . S
C1265 H1257 0.950 . S
C1265 C1263 1.327 . S
C1266 C1254 1.349 . S
C1266 H1260 0.950 1_554 S
C1266 C1267 1.327 . S
C1267 H1261 0.950 1_554 S
C1267 C1266 1.327 . S
C1267 C1271 1.429 . S
C1268 C1251 1.574 1_565 S
C1268 H1262 0.949 . S
C1268 C1272 1.368 . S
C1269 C1250 1.429 . S
C1269 C1263 1.429 . S
C1269 C1270 1.523 . S
C1270 C1251 1.368 . S
C1270 C1264 1.368 . S
C1270 C1269 1.523 . S
C1271 C1255 1.429 . S
C1271 C1267 1.429 . S
C1271 C1272 1.523 . S
C1272 C1256 1.368 . S
C1272 C1268 1.368 . S
C1272 C1271 1.523 . S
H1273 C1248 0.950 . S
H1274 C1250 0.950 . S
H1275 C1251 0.949 . S
H1276 C1253 0.950 . S
H1277 C1255 0.950 . S
C1278 C1279 1.349 . S
C1278 C1280 1.327 . S
C1278 H1303 0.950 . S
C1279 C1278 1.349 . S
C1279 C1295 1.349 . S
C1280 C1278 1.327 . S
C1280 C1299 1.429 . S
C1280 H1304 0.950 . S
C1281 C1298 1.574 . S
C1281 C1300 1.368 . S
C1281 H1305 0.949 . S
H1282 C1286 0.949 . S
C1283 C1284 1.349 . S
C1283 C1285 1.327 . S
C1283 H1306 0.950 . S
C1284 C1283 1.349 . S
C1284 C1296 1.349 . S
C1285 C1283 1.327 . S
C1285 C1301 1.429 . S
C1285 H1307 0.950 . S
C1286 H1282 0.949 . S
C1286 C1294 1.574 . S
C1286 C1302 1.368 . S
H1287 C1295 0.950 . S
H1288 C1293 0.950 . S
H1289 C1294 0.949 . S
H1290 C1296 0.950 . S
H1291 C1297 0.950 . S
H1292 C1298 0.949 . S
C1293 H1288 0.950 . S
C1293 C1295 1.327 . S
C1293 C1299 1.429 . S
C1294 C1286 1.574 . S
C1294 H1289 0.949 . S
C1294 C1300 1.368 . S
C1295 C1279 1.349 . S
C1295 H1287 0.950 . S
C1295 C1293 1.327 . S
C1296 C1284 1.349 . S
C1296 H1290 0.950 . S
C1296 C1297 1.327 . S
C1297 H1291 0.950 . S
C1297 C1296 1.327 . S
C1297 C1301 1.429 . S
C1298 C1281 1.574 . S
C1298 H1292 0.949 . S
C1298 C1302 1.368 . S
C1299 C1280 1.429 . S
C1299 C1293 1.429 . S
C1299 C1300 1.523 . S
C1300 C1281 1.368 . S
C1300 C1294 1.368 . S
C1300 C1299 1.523 . S
C1301 C1285 1.429 . S
C1301 C1297 1.429 . S
C1301 C1302 1.523 . S
C1302 C1286 1.368 . S
C1302 C1298 1.368 . S
C1302 C1301 1.523 . S
H1303 C1278 0.950 . S
H1304 C1280 0.950 . S
H1305 C1281 0.949 . S
H1306 C1283 0.950 . S
H1307 C1285 0.950 . S
C1308 C1309 1.349 . S
C1308 C1310 1.327 . S
C1308 H1333 0.950 . S
C1309 C1308 1.349 . S
C1309 C1325 1.349 . S
C1310 C1308 1.327 . S
C1310 C1329 1.429 . S
C1310 H1334 0.950 . S
C1311 C1328 1.574 1_455 S
C1311 C1330 1.368 . S
C1311 H1335 0.949 . S
H1312 C1316 0.949 . S
C1313 C1314 1.349 . S
C1313 C1315 1.327 . S
C1313 H1336 0.950 . S
C1314 C1313 1.349 . S
C1314 C1326 1.349 . S
C1315 C1313 1.327 . S
C1315 C1331 1.429 . S
C1315 H1337 0.950 . S
C1316 H1312 0.949 . S
C1316 C1324 1.574 1_655 S
C1316 C1332 1.368 . S
H1317 C1325 0.950 . S
H1318 C1323 0.950 . S
H1319 C1324 0.949 . S
H1320 C1326 0.950 . S
H1321 C1327 0.950 . S
H1322 C1328 0.949 . S
C1323 H1318 0.950 . S
C1323 C1325 1.327 . S
C1323 C1329 1.429 . S
C1324 C1316 1.574 1_455 S
C1324 H1319 0.949 . S
C1324 C1330 1.368 . S
C1325 C1309 1.349 . S
C1325 H1317 0.950 . S
C1325 C1323 1.327 . S
C1326 C1314 1.349 . S
C1326 H1320 0.950 . S
C1326 C1327 1.327 . S
C1327 H1321 0.950 . S
C1327 C1326 1.327 . S
C1327 C1331 1.429 . S
C1328 C1311 1.574 1_655 S
C1328 H1322 0.949 . S
C1328 C1332 1.368 . S
C1329 C1310 1.429 . S
C1329 C1323 1.429 . S
C1329 C1330 1.523 . S
C1330 C1311 1.368 . S
C1330 C1324 1.368 . S
C1330 C1329 1.523 . S
C1331 C1315 1.429 . S
C1331 C1327 1.429 . S
C1331 C1332 1.523 . S
C1332 C1316 1.368 . S
C1332 C1328 1.368 . S
C1332 C1331 1.523 . S
H1333 C1308 0.950 . S
H1334 C1310 0.950 . S
H1335 C1311 0.949 . S
H1336 C1313 0.950 . S
H1337 C1315 0.950 . S
C1338 C1339 1.349 . S
C1338 C1340 1.327 . S
C1338 H1363 0.950 . S
C1339 C1338 1.349 . S
C1339 C1355 1.349 . S
C1340 C1338 1.327 . S
C1340 C1359 1.429 . S
C1340 H1364 0.950 . S
C1341 C1358 1.574 1_565 S
C1341 C1360 1.368 . S
C1341 H1365 0.949 . S
H1342 C1346 0.949 . S
C1343 C1344 1.349 . S
C1343 C1345 1.327 . S
C1343 H1366 0.950 . S
C1344 C1343 1.349 . S
C1344 C1356 1.349 . S
C1345 C1343 1.327 . S
C1345 C1361 1.429 . S
C1345 H1367 0.950 . S
C1346 H1342 0.949 . S
C1346 C1354 1.574 1_545 S
C1346 C1362 1.368 . S
H1347 C1355 0.950 . S
H1348 C1353 0.950 . S
H1349 C1354 0.949 . S
H1350 C1356 0.950 . S
H1351 C1357 0.950 . S
H1352 C1358 0.949 . S
C1353 H1348 0.950 . S
C1353 C1355 1.327 . S
C1353 C1359 1.429 . S
C1354 C1346 1.574 1_565 S
C1354 H1349 0.949 . S
C1354 C1360 1.368 . S
C1355 C1339 1.349 . S
C1355 H1347 0.950 . S
C1355 C1353 1.327 . S
C1356 C1344 1.349 . S
C1356 H1350 0.950 . S
C1356 C1357 1.327 . S
C1357 H1351 0.950 . S
C1357 C1356 1.327 . S
C1357 C1361 1.429 . S
C1358 C1341 1.574 1_545 S
C1358 H1352 0.949 . S
C1358 C1362 1.368 . S
C1359 C1340 1.429 . S
C1359 C1353 1.429 . S
C1359 C1360 1.523 . S
C1360 C1341 1.368 . S
C1360 C1354 1.368 . S
C1360 C1359 1.523 . S
C1361 C1345 1.429 . S
C1361 C1357 1.429 . S
C1361 C1362 1.523 . S
C1362 C1346 1.368 . S
C1362 C1358 1.368 . S
C1362 C1361 1.523 . S
H1363 C1338 0.950 . S
H1364 C1340 0.950 . S
H1365 C1341 0.949 . S
H1366 C1343 0.950 . S
H1367 C1345 0.950 . S
C1368 C1369 1.349 . S
C1368 C1370 1.327 . S
C1368 H1393 0.950 . S
C1369 C1368 1.349 . S
C1369 C1385 1.349 . S
C1370 C1368 1.327 . S
C1370 C1389 1.429 . S
C1370 H1394 0.950 . S
C1371 C1388 1.574 . S
C1371 C1390 1.368 . S
C1371 H1395 0.949 . S
H1372 C1376 0.949 . S
C1373 C1374 1.349 . S
C1373 C1375 1.327 . S
C1373 H1396 0.950 . S
C1374 C1373 1.349 . S
C1374 C1386 1.349 . S
C1375 C1373 1.327 . S
C1375 C1391 1.429 . S
C1375 H1397 0.950 . S
C1376 H1372 0.949 . S
C1376 C1384 1.574 . S
C1376 C1392 1.368 . S
H1377 C1385 0.950 . S
H1378 C1383 0.950 . S
H1379 C1384 0.949 . S
H1380 C1386 0.950 . S
H1381 C1387 0.950 . S
H1382 C1388 0.949 . S
C1383 H1378 0.950 . S
C1383 C1385 1.327 . S
C1383 C1389 1.429 . S
C1384 C1376 1.574 . S
C1384 H1379 0.949 . S
C1384 C1390 1.368 . S
C1385 C1369 1.349 . S
C1385 H1377 0.950 . S
C1385 C1383 1.327 . S
C1386 C1374 1.349 . S
C1386 H1380 0.950 . S
C1386 C1387 1.327 . S
C1387 H1381 0.950 . S
C1387 C1386 1.327 . S
C1387 C1391 1.429 . S
C1388 C1371 1.574 . S
C1388 H1382 0.949 . S
C1388 C1392 1.368 . S
C1389 C1370 1.429 . S
C1389 C1383 1.429 . S
C1389 C1390 1.523 . S
C1390 C1371 1.368 . S
C1390 C1384 1.368 . S
C1390 C1389 1.523 . S
C1391 C1375 1.429 . S
C1391 C1387 1.429 . S
C1391 C1392 1.523 . S
C1392 C1376 1.368 . S
C1392 C1388 1.368 . S
C1392 C1391 1.523 . S
H1393 C1368 0.950 . S
H1394 C1370 0.950 . S
H1395 C1371 0.949 . S
H1396 C1373 0.950 . S
H1397 C1375 0.950 . S
C1398 C1399 1.349 . S
C1398 C1400 1.327 . S
C1398 H1423 0.950 . S
C1399 C1398 1.349 . S
C1399 C1415 1.349 . S
C1400 C1398 1.327 . S
C1400 C1419 1.429 . S
C1400 H1424 0.950 . S
C1401 C1418 1.574 1_455 S
C1401 C1420 1.368 . S
C1401 H1425 0.949 . S
H1402 C1406 0.949 . S
C1403 C1404 1.349 . S
C1403 C1405 1.327 . S
C1403 H1426 0.950 . S
C1404 C1403 1.349 . S
C1404 C1416 1.349 . S
C1405 C1403 1.327 . S
C1405 C1421 1.429 . S
C1405 H1427 0.950 . S
C1406 H1402 0.949 . S
C1406 C1414 1.574 1_655 S
C1406 C1422 1.368 . S
H1407 C1415 0.950 . S
H1408 C1413 0.950 . S
H1409 C1414 0.949 . S
H1410 C1416 0.950 . S
H1411 C1417 0.950 . S
H1412 C1418 0.949 . S
C1413 H1408 0.950 . S
C1413 C1415 1.327 . S
C1413 C1419 1.429 . S
C1414 C1406 1.574 1_455 S
C1414 H1409 0.949 . S
C1414 C1420 1.368 . S
C1415 C1399 1.349 . S
C1415 H1407 0.950 . S
C1415 C1413 1.327 . S
C1416 C1404 1.349 . S
C1416 H1410 0.950 . S
C1416 C1417 1.327 . S
C1417 H1411 0.950 . S
C1417 C1416 1.327 . S
C1417 C1421 1.429 . S
C1418 C1401 1.574 1_655 S
C1418 H1412 0.949 . S
C1418 C1422 1.368 . S
C1419 C1400 1.429 . S
C1419 C1413 1.429 . S
C1419 C1420 1.523 . S
C1420 C1401 1.368 . S
C1420 C1414 1.368 . S
C1420 C1419 1.523 . S
C1421 C1405 1.429 . S
C1421 C1417 1.429 . S
C1421 C1422 1.523 . S
C1422 C1406 1.368 . S
C1422 C1418 1.368 . S
C1422 C1421 1.523 . S
H1423 C1398 0.950 . S
H1424 C1400 0.950 . S
H1425 C1401 0.949 . S
H1426 C1403 0.950 . S
H1427 C1405 0.950 . S
C709 C52 1.305 . S
C714 C642 1.305 . S
C739 C111 1.304 . S
C744 C701 1.304 . S
C769 C406 1.304 . S
C774 C170 1.304 . S
C799 C229 1.305 . S
C804 C465 1.305 . S
C829 C524 1.304 . S
C834 C288 1.304 . S
C859 C583 1.304 . S
C864 C347 1.304 . S
C889 C475 1.404 . S
C894 C3 1.404 . S
C919 C62 1.403 . S
C924 C534 1.403 . S
C949 C593 1.403 . S
C954 C121 1.403 . S
C979 C180 1.404 . S
C984 C652 1.404 . S
C1009 C239 1.403 . S
C1014 C357 1.403 . S
C1039 C298 1.403 . S
C1044 C416 1.403 . S
C1069 C595 1.430 . S
C1074 C5 1.430 . S
C1099 C654 1.430 . S
C1104 C64 1.430 . S
C1129 C359 1.430 . S
C1134 C123 1.430 . S
C1159 C182 1.430 . S
C1164 C418 1.430 . S
C1189 C241 1.430 . S
C1194 C477 1.430 . S
C1219 C536 1.430 . S
C1224 C300 1.430 . S
C1249 C33 1.384 . S
C1254 C446 1.384 . S
C1279 C505 1.383 . S
C1284 C92 1.383 . S
C1309 C564 1.383 . S
C1314 C151 1.383 . S
C1339 C210 1.384 . S
C1344 C623 1.384 . S
C1369 C269 1.384 . S
C1374 C682 1.384 . S
C1399 C328 1.384 . S
C1404 C387 1.384 . S
