# Generated by pormake.
# Topology wfa, (4)-cn, num edge types: 1
# Building blocks:
#     Node 0, Type 0, BuildingBlock: NAWXER_clean_sbu_0, # of connection points: 4
#     Node 1, Type 0, BuildingBlock: NAWXER_clean_sbu_0, # of connection points: 4
#     Node 2, Type 0, BuildingBlock: NAWXER_clean_sbu_0, # of connection points: 4
#     Node 3, Type 0, BuildingBlock: NAWXER_clean_sbu_0, # of connection points: 4
#     Node 4, Type 0, BuildingBlock: NAWXER_clean_sbu_0, # of connection points: 4
#     Node 5, Type 0, BuildingBlock: NAWXER_clean_sbu_0, # of connection points: 4
#     Node 6, Type 0, BuildingBlock: NAWXER_clean_sbu_0, # of connection points: 4
#     Node 7, Type 0, BuildingBlock: NAWXER_clean_sbu_0, # of connection points: 4
#     Node 8, Type 0, BuildingBlock: NAWXER_clean_sbu_0, # of connection points: 4
#     Node 9, Type 0, BuildingBlock: NAWXER_clean_sbu_0, # of connection points: 4
#     Node 10, Type 0, BuildingBlock: NAWXER_clean_sbu_0, # of connection points: 4
#     Node 11, Type 0, BuildingBlock: NAWXER_clean_sbu_0, # of connection points: 4
#     Node 12, Type 0, BuildingBlock: NAWXER_clean_sbu_0, # of connection points: 4
#     Node 13, Type 0, BuildingBlock: NAWXER_clean_sbu_0, # of connection points: 4
#     Node 14, Type 0, BuildingBlock: NAWXER_clean_sbu_0, # of connection points: 4
#     Node 15, Type 0, BuildingBlock: NAWXER_clean_sbu_0, # of connection points: 4
#     Edge 16, Type (0, 0), BuildingBlock: ZUJKAS_clean_linker_0, # of connection points: 2
#     Edge 17, Type (0, 0), BuildingBlock: ZUJKAS_clean_linker_0, # of connection points: 2
#     Edge 18, Type (0, 0), BuildingBlock: ZUJKAS_clean_linker_0, # of connection points: 2
#     Edge 19, Type (0, 0), BuildingBlock: ZUJKAS_clean_linker_0, # of connection points: 2
#     Edge 20, Type (0, 0), BuildingBlock: ZUJKAS_clean_linker_0, # of connection points: 2
#     Edge 21, Type (0, 0), BuildingBlock: ZUJKAS_clean_linker_0, # of connection points: 2
#     Edge 22, Type (0, 0), BuildingBlock: ZUJKAS_clean_linker_0, # of connection points: 2
#     Edge 23, Type (0, 0), BuildingBlock: ZUJKAS_clean_linker_0, # of connection points: 2
#     Edge 24, Type (0, 0), BuildingBlock: ZUJKAS_clean_linker_0, # of connection points: 2
#     Edge 25, Type (0, 0), BuildingBlock: ZUJKAS_clean_linker_0, # of connection points: 2
#     Edge 26, Type (0, 0), BuildingBlock: ZUJKAS_clean_linker_0, # of connection points: 2
#     Edge 27, Type (0, 0), BuildingBlock: ZUJKAS_clean_linker_0, # of connection points: 2
#     Edge 28, Type (0, 0), BuildingBlock: ZUJKAS_clean_linker_0, # of connection points: 2
#     Edge 29, Type (0, 0), BuildingBlock: ZUJKAS_clean_linker_0, # of connection points: 2
#     Edge 30, Type (0, 0), BuildingBlock: ZUJKAS_clean_linker_0, # of connection points: 2
#     Edge 31, Type (0, 0), BuildingBlock: ZUJKAS_clean_linker_0, # of connection points: 2
#     Edge 32, Type (0, 0), BuildingBlock: ZUJKAS_clean_linker_0, # of connection points: 2
#     Edge 33, Type (0, 0), BuildingBlock: ZUJKAS_clean_linker_0, # of connection points: 2
#     Edge 34, Type (0, 0), BuildingBlock: ZUJKAS_clean_linker_0, # of connection points: 2
#     Edge 35, Type (0, 0), BuildingBlock: ZUJKAS_clean_linker_0, # of connection points: 2
#     Edge 36, Type (0, 0), BuildingBlock: ZUJKAS_clean_linker_0, # of connection points: 2
#     Edge 37, Type (0, 0), BuildingBlock: ZUJKAS_clean_linker_0, # of connection points: 2
#     Edge 38, Type (0, 0), BuildingBlock: ZUJKAS_clean_linker_0, # of connection points: 2
#     Edge 39, Type (0, 0), BuildingBlock: ZUJKAS_clean_linker_0, # of connection points: 2
#     Edge 40, Type (0, 0), BuildingBlock: ZUJKAS_clean_linker_0, # of connection points: 2
#     Edge 41, Type (0, 0), BuildingBlock: ZUJKAS_clean_linker_0, # of connection points: 2
#     Edge 42, Type (0, 0), BuildingBlock: ZUJKAS_clean_linker_0, # of connection points: 2
#     Edge 43, Type (0, 0), BuildingBlock: ZUJKAS_clean_linker_0, # of connection points: 2
#     Edge 44, Type (0, 0), BuildingBlock: ZUJKAS_clean_linker_0, # of connection points: 2
#     Edge 45, Type (0, 0), BuildingBlock: ZUJKAS_clean_linker_0, # of connection points: 2
#     Edge 46, Type (0, 0), BuildingBlock: ZUJKAS_clean_linker_0, # of connection points: 2
#     Edge 47, Type (0, 0), BuildingBlock: ZUJKAS_clean_linker_0, # of connection points: 2
# Relax obj value: 0.153
# Max RMSD: 0.233
# Mean RMSD: 0.220
data_MOF--net-wfa--node1-NAWXER_clean_sbu_0--edge1-ZUJKAS_clean_linker_0
_symmetry_space_group_name_H-M    P1
_symmetry_Int_Tables_number       1
_symmetry_cell_setting            triclinic
loop_
_symmetry_equiv_pos_as_xyz
'x, y, z'
_cell_length_a     61.802492
_cell_length_b     61.82891
_cell_length_c     28.932675
_cell_angle_alpha  89.867154
_cell_angle_beta   90.040346
_cell_angle_gamma 88.150222
loop_
_atom_site_label
_atom_site_type_symbol
_atom_site_fract_x
_atom_site_fract_y
_atom_site_fract_z
_atom_type_partial_charge
C0 C 0.63387 1.00185 0.17465 0.0
C1 C 0.68642 1.01446 0.04907 0.0
O2 O 0.63902 0.02145 0.16822 0.0
Zn3 Zn 0.65826 0.04068 0.12526 0.0
O4 O 0.64277 0.98677 0.15052 0.0
Zn5 Zn 0.66104 1.00597 0.11334 0.0
O6 O 0.68293 0.01774 0.16383 0.0
O7 O 0.67798 0.05303 0.17104 0.0
O8 O 0.68016 0.9961 0.06289 0.0
O9 O 0.67923 0.03162 0.06949 0.0
O10 O 0.63381 0.05679 0.09538 0.0
O11 O 0.63527 0.02211 0.07759 0.0
C12 C 0.68797 0.03554 0.18306 0.0
C13 C 0.62586 0.04076 0.0743 0.0
C14 C 0.54008 0.70185 0.10112 0.0
C15 C 0.5304 0.63101 0.03056 0.0
O16 O 0.55351 0.68592 0.09834 0.0
Zn17 Zn 0.53625 0.66769 0.05979 0.0
O18 O 0.52195 0.70111 0.07957 0.0
Zn19 Zn 0.50549 0.67749 0.03796 0.0
O20 O 0.47987 0.67458 0.07258 0.0
O21 O 0.50941 0.66113 0.10658 0.0
O22 O 0.51388 0.64378 0.02417 0.0
O23 O 0.54744 0.63854 0.04807 0.0
O24 O 0.53546 0.68369 0.99245 0.0
O25 O 0.50076 0.69028 0.97965 0.0
C26 C 0.48881 0.66477 0.10646 0.0
C27 C 0.52016 0.69119 0.96622 0.0
C28 C 0.84702 0.5109 0.08366 0.0
C29 C 0.90784 0.49626 0.97904 0.0
O30 O 0.85587 0.52803 0.06875 0.0
Zn31 Zn 0.88072 0.53666 0.02172 0.0
O32 O 0.85365 0.4925 0.06885 0.0
Zn33 Zn 0.87614 0.50235 0.02786 0.0
O34 O 0.89913 0.51519 0.07443 0.0
O35 O 0.90222 0.55022 0.06185 0.0
O36 O 0.89607 0.48199 0.9972 0.0
O37 O 0.90292 0.51636 0.98449 0.0
O38 O 0.86504 0.55245 0.97273 0.0
O39 O 0.85875 0.51755 0.9722 0.0
C40 C 0.9081 0.53302 0.08349 0.0
C41 C 0.85565 0.53648 0.95475 0.0
C42 C 0.99763 0.90096 0.17136 0.0
C43 C 1.01278 0.8464 0.04958 0.0
O44 O 0.01731 0.89426 0.1677 0.0
Zn45 Zn 0.03737 0.87337 0.12756 0.0
O46 O 0.98311 0.89284 0.14592 0.0
Zn47 Zn 1.00296 0.8726 0.11239 0.0
O48 O 1.01365 0.85043 0.16522 0.0
O49 O 0.0488 0.85319 0.17517 0.0
O50 O 0.99414 0.85377 0.06162 0.0
O51 O 0.02952 0.85265 0.07143 0.0
O52 O 0.05398 0.89672 0.09831 0.0
O53 O 0.01972 0.89695 0.07702 0.0
C54 C 0.03114 0.84441 0.18616 0.0
C55 C 0.03833 0.90532 0.07518 0.0
C56 C 0.13145 0.03397 0.36389 0.0
C57 C 0.18631 0.02004 0.48613 0.0
O58 O 0.13794 1.01429 0.36878 0.0
Zn59 Zn 0.15904 0.99462 0.40982 0.0
O60 O 0.13983 0.04871 0.38825 0.0
Zn61 Zn 0.1599 0.02916 0.42308 0.0
O62 O 0.18193 0.01784 0.37101 0.0
O63 O 0.17904 0.98263 0.36275 0.0
O64 O 0.17889 0.03853 0.4731 0.0
O65 O 0.17998 1.00307 0.46534 0.0
O66 O 0.13591 0.97826 0.44015 0.0
O67 O 0.13563 1.01276 0.45947 0.0
C68 C 0.18785 1.00016 0.35093 0.0
C69 C 0.12733 0.99414 0.46243 0.0
C70 C 0.52099 0.18806 0.44057 0.0
C71 C 0.53167 0.12343 0.53593 0.0
O72 O 0.50332 0.17922 0.45223 0.0
Zn73 Zn 0.4929 0.15307 0.49398 0.0
O74 O 0.53894 0.18049 0.45622 0.0
Zn75 Zn 0.52752 0.15695 0.49189 0.0
O76 O 0.51487 0.13702 0.43914 0.0
O77 O 0.47962 0.13381 0.44836 0.0
O78 O 0.54662 0.13531 0.52099 0.0
O79 O 0.51182 0.12902 0.52912 0.0
O80 O 0.4766 0.16759 0.54375 0.0
O81 O 0.51165 0.17287 0.54824 0.0
C82 C 0.49702 0.12901 0.42644 0.0
C83 C 0.49249 0.17597 0.56436 0.0
C84 C 0.39843 0.50511 0.50777 0.0
C85 C 0.32707 0.49728 0.43741 0.0
O86 O 0.39015 0.48807 0.4921 0.0
Zn87 Zn 0.36117 0.49999 0.4799 0.0
O88 O 0.38624 0.5221 0.51332 0.0
Zn89 Zn 0.35269 0.53133 0.49985 0.0
O90 O 0.33975 0.5369 0.5579 0.0
O91 O 0.34487 0.50196 0.54661 0.0
O92 O 0.32877 0.51563 0.45758 0.0
O93 O 0.3421 0.48295 0.44243 0.0
O94 O 0.36852 0.52612 0.43132 0.0
O95 O 0.35645 0.55647 0.46413 0.0
C96 C 0.33779 0.5177 0.57197 0.0
C97 C 0.36567 0.54682 0.43045 0.0
C98 C 0.03121 0.39643 0.34618 0.0
C99 C 0.01953 0.34578 0.47667 0.0
O100 O 1.01161 0.39188 0.35468 0.0
Zn101 Zn 0.9927 0.37388 0.40074 0.0
O102 O 0.04652 0.38788 0.37037 0.0
Zn103 Zn 0.02765 0.37065 0.41087 0.0
O104 O 1.0147 0.34842 0.36281 0.0
O105 O 0.97938 0.35383 0.35672 0.0
O106 O 0.03783 0.35169 0.4618 0.0
O107 O 1.00224 0.35311 0.45677 0.0
O108 O 0.97756 0.39888 0.43081 0.0
O109 O 1.01252 0.39694 0.44618 0.0
C110 C 0.99662 0.34343 0.34465 0.0
C111 C 0.99406 0.40665 0.45059 0.0
C112 C 0.39963 0.03307 0.86149 0.0
C113 C 0.34668 0.02042 0.98628 0.0
O114 O 0.39048 0.04817 0.88513 0.0
Zn115 Zn 0.37221 0.02893 0.92225 0.0
O116 O 0.39457 1.01345 0.86803 0.0
Zn117 Zn 0.37519 0.9942 0.91068 0.0
O118 O 0.35573 0.98169 0.86462 0.0
O119 O 0.35059 0.01697 0.87149 0.0
O120 O 0.35401 1.00325 0.96614 0.0
O121 O 0.35287 0.03878 0.97233 0.0
O122 O 0.39798 1.01297 0.95846 0.0
O123 O 0.39961 0.97825 0.94096 0.0
C124 C 0.34571 0.99911 0.85229 0.0
C125 C 0.40746 0.99435 0.96198 0.0
C126 C 0.49596 0.32956 0.93499 0.0
C127 C 0.50453 0.40027 1.00733 0.0
O128 O 0.51467 0.33125 0.95372 0.0
Zn129 Zn 0.53098 0.35495 0.99514 0.0
O130 O 0.48166 0.34448 0.94136 0.0
Zn131 Zn 0.49927 0.36348 0.97777 0.0
O132 O 0.52447 0.37147 0.92755 0.0
O133 O 0.5554 0.35931 0.95793 0.0
O134 O 0.48734 0.39221 0.99178 0.0
O135 O 0.52165 0.38811 1.01119 0.0
O136 O 0.53786 0.34164 0.05202 0.0
O137 O 0.50269 0.34699 0.04426 0.0
C138 C 0.54517 0.36876 0.92522 0.0
C139 C 0.51899 0.33981 0.06801 0.0
C140 C 0.17219 0.49732 0.06715 0.0
C141 C 0.12254 0.50111 0.93336 0.0
O142 O 0.16254 0.48156 0.04902 0.0
Zn143 Zn 0.14829 0.49736 0.99818 0.0
O144 O 0.17005 0.51617 0.04885 0.0
Zn145 Zn 0.15421 0.53133 0.99115 0.0
O146 O 0.13417 0.55262 0.01844 0.0
O147 O 0.12589 0.5187 0.03207 0.0
O148 O 0.13219 0.51861 0.94223 0.0
O149 O 0.12699 0.48411 0.95701 0.0
O150 O 0.17431 0.50479 0.95264 0.0
O151 O 0.17774 0.54021 0.95217 0.0
C152 C 0.12145 0.53898 0.03581 0.0
C153 C 0.18398 0.52155 0.93813 0.0
C154 C 0.01784 0.18441 0.97913 0.0
C155 C 0.03161 0.13104 0.85397 0.0
O156 O 0.03633 0.17689 0.96638 0.0
Zn157 Zn 0.027 0.15846 0.91526 0.0
O158 O 1.00089 0.17844 0.95769 0.0
Zn159 Zn 0.9924 0.15815 0.90135 0.0
O160 O 0.97594 0.13461 0.93017 0.0
O161 O 1.01039 0.13383 0.95006 0.0
O162 O 1.01203 0.13782 0.85912 0.0
O163 O 0.04644 0.13861 0.87944 0.0
O164 O 1.01593 0.18121 0.86386 0.0
O165 O 0.98066 0.1788 0.855 0.0
C166 C 0.99171 0.12562 0.95225 0.0
C167 C 0.99832 0.18753 0.84375 0.0
C168 C 0.84445 0.03423 0.68314 0.0
C169 C 0.90654 0.04086 0.57623 0.0
O170 O 0.85325 0.05185 0.67192 0.0
Zn171 Zn 0.87394 0.04 0.62625 0.0
O172 O 0.85079 0.01659 0.6634 0.0
Zn173 Zn 0.87371 1.00545 0.61266 0.0
O174 O 0.89349 0.98603 0.64886 0.0
O175 O 0.89427 0.02043 0.66902 0.0
O176 O 0.89839 0.02215 0.57831 0.0
O177 O 0.8974 0.05661 0.59795 0.0
O178 O 0.85381 0.03142 0.56954 0.0
O179 O 0.85546 0.99599 0.56136 0.0
C180 C 0.90105 1.00085 0.67431 0.0
C181 C 0.84794 1.01442 0.54822 0.0
C182 C 0.51469 0.84236 0.59871 0.0
C183 C 0.49586 0.90562 0.5039 0.0
O184 O 0.49575 0.84849 0.58589 0.0
Zn185 Zn 0.50415 0.87255 0.54815 0.0
O186 O 0.53115 0.85257 0.58436 0.0
Zn187 Zn 0.538 0.87972 0.5411 0.0
O188 O 0.55078 0.90018 0.58489 0.0
O189 O 0.5165 0.89359 0.59914 0.0
O190 O 0.5162 0.90186 0.50858 0.0
O191 O 0.48254 0.8924 0.52051 0.0
O192 O 0.52011 0.8567 0.49176 0.0
O193 O 0.55399 0.86687 0.48896 0.0
C194 C 0.53382 0.90327 0.6094 0.0
C195 C 0.53883 0.85568 0.47271 0.0
C196 C 0.66192 0.48684 0.59004 0.0
C197 C 0.69158 0.51481 0.44923 0.0
O198 O 0.65936 0.50757 0.58873 0.0
Zn199 Zn 0.6674 0.53335 0.5397 0.0
O200 O 0.67121 0.47694 0.5568 0.0
Zn201 Zn 0.6756 0.50183 0.52082 0.0
O202 O 0.69936 0.51743 0.5638 0.0
O203 O 0.68633 0.55037 0.57752 0.0
O204 O 0.68905 0.49575 0.46357 0.0
O205 O 0.68445 0.5308 0.47383 0.0
O206 O 0.63865 0.54554 0.52611 0.0
O207 O 0.64228 0.51135 0.50598 0.0
C208 C 0.70112 0.53587 0.58356 0.0
C209 C 0.63025 0.52851 0.5107 0.0
C210 C 1.01071 0.68536 0.55229 0.0
C211 C 0.99982 0.63524 0.6844 0.0
O212 O 0.99249 0.67933 0.56745 0.0
Zn213 Zn 1.00296 0.66054 0.61852 0.0
O214 O 0.0281 0.67815 0.57199 0.0
Zn215 Zn 0.03797 0.65756 0.62807 0.0
O216 O 0.05305 0.63247 0.59819 0.0
O217 O 0.01805 0.63421 0.58341 0.0
O218 O 0.01934 0.63992 0.67536 0.0
O219 O 0.98439 0.64335 0.65989 0.0
O220 O 0.01609 0.6831 0.66574 0.0
O221 O 0.05146 0.67786 0.67116 0.0
C222 C 0.03653 0.62457 0.57882 0.0
C223 C 0.03424 0.68826 0.68334 0.0
H224 H 0.50988 0.13364 0.33789 0.0
H225 H 0.52568 0.1049 0.28945 0.0
H226 H 0.50665 0.05734 0.38928 0.0
H227 H 0.49017 0.08611 0.43713 0.0
H228 H 0.55937 0.08363 0.3194 0.0
H229 H 0.49913 0.02295 0.27427 0.0
H230 H 0.49139 0.04959 0.29519 0.0
H231 H 0.49949 0.02845 0.33506 0.0
C232 C 0.50799 0.11694 0.34816 0.0
C233 C 0.49838 0.11206 0.39069 0.0
C234 C 0.51726 0.1005 0.32075 0.0
C235 C 0.51751 0.07882 0.33571 0.0
C236 C 0.50638 0.07378 0.37652 0.0
H237 H 0.63176 1.00049 0.26831 0.0
H238 H 0.60067 1.01498 0.3121 0.0
C239 C 0.49681 0.09025 0.40373 0.0
C240 C 0.53246 0.06252 0.31324 0.0
H241 H 0.53657 1.01134 0.26819 0.0
C242 C 0.55423 0.06791 0.30792 0.0
C243 C 0.52595 0.04192 0.29814 0.0
C244 C 0.50267 0.03545 0.3005 0.0
C245 C 0.56957 0.05352 0.28813 0.0
C246 C 0.56331 0.03258 0.27477 0.0
C247 C 0.5415 0.02716 0.27946 0.0
C248 C 0.57917 0.01701 0.25304 0.0
C249 C 0.59226 0.06122 0.28056 0.0
C250 C 0.57673 1.01114 0.20652 0.0
C251 C 0.5943 1.00205 0.18193 0.0
C252 C 0.61458 0.99884 0.2034 0.0
C253 C 0.61621 1.00228 0.25119 0.0
C254 C 0.59853 1.01098 0.27599 0.0
H255 H 0.59288 0.07915 0.28163 0.0
H256 H 0.60301 0.05463 0.30829 0.0
H257 H 0.59877 0.0556 0.24675 0.0
H258 H 0.56199 1.01556 0.18801 0.0
H259 H 0.59277 1.00018 0.14483 0.0
H260 H 0.39223 0.53248 0.36086 0.0
H261 H 0.41101 0.55466 0.30454 0.0
H262 H 0.37822 0.61199 0.35771 0.0
H263 H 0.35956 0.59006 0.41453 0.0
H264 H 0.39582 0.58452 0.23592 0.0
H265 H 0.44336 0.62328 0.3745 0.0
H266 H 0.4282 0.59923 0.38423 0.0
H267 H 0.41449 0.62527 0.38159 0.0
C268 C 0.38879 0.54977 0.36018 0.0
C269 C 0.37466 0.55959 0.39248 0.0
C270 C 0.39953 0.56238 0.32805 0.0
C271 C 0.39625 0.58492 0.32782 0.0
C272 C 0.38123 0.59463 0.35816 0.0
H273 H 0.44538 0.6715 0.11901 0.0
H274 H 0.42232 0.65338 0.17452 0.0
C275 C 0.37055 0.58207 0.39041 0.0
C276 C 0.40933 0.59833 0.2973 0.0
H277 H 0.44832 0.63612 0.29833 0.0
C278 C 0.40725 0.59587 0.24941 0.0
C279 C 0.42441 0.61281 0.31539 0.0
C280 C 0.42796 0.61524 0.36673 0.0
C281 C 0.41989 0.60767 0.21884 0.0
C282 C 0.43464 0.62249 0.23693 0.0
C283 C 0.43677 0.62488 0.28482 0.0
C284 C 0.44867 0.63498 0.20655 0.0
C285 C 0.41778 0.60379 0.16756 0.0
C286 C 0.47116 0.63128 0.20788 0.0
C287 C 0.48441 0.64171 0.17652 0.0
C288 C 0.4753 0.65597 0.14344 0.0
C289 C 0.45284 0.66043 0.14379 0.0
C290 C 0.43964 0.65004 0.17527 0.0
H291 H 0.4094 0.58856 0.16007 0.0
H292 H 0.40821 0.61738 0.15176 0.0
H293 H 0.43394 0.60301 0.15076 0.0
H294 H 0.47836 0.61977 0.23215 0.0
H295 H 0.50167 0.638 0.17715 0.0
H296 H 0.91085 0.5333 0.1773 0.0
H297 H 0.94083 0.51722 0.22252 0.0
H298 H 0.97837 0.50906 0.09765 0.0
H299 H 0.94886 0.52618 0.05326 0.0
H300 H 0.95135 0.47717 0.21192 0.0
H301 H 0.02657 0.52138 0.18302 0.0
H302 H 1.00022 0.5329 0.16839 0.0
H303 H 1.01393 0.51424 0.12968 0.0
C304 C 0.92603 0.52929 0.16014 0.0
C305 C 0.92782 0.53157 0.11211 0.0
C306 C 0.9431 0.5198 0.18582 0.0
C307 C 0.96208 0.5119 0.16379 0.0
C308 C 0.96433 0.51547 0.11603 0.0
H309 H 0.02588 0.39383 0.25376 0.0
H310 H 1.01325 0.42412 0.20511 0.0
C311 C 0.94742 0.52534 0.09055 0.0
C312 C 0.97746 0.49685 0.18905 0.0
H313 H 0.03102 0.4847 0.21127 0.0
C314 C 0.96873 0.47912 0.21217 0.0
C315 C 1.00026 0.49905 0.18923 0.0
C316 C 1.01077 0.51805 0.1666 0.0
C317 C 0.98194 0.46355 0.23481 0.0
C318 C 1.00469 0.46535 0.2338 0.0
C319 C 1.01359 0.48321 0.21151 0.0
C320 C 0.01898 0.44861 0.25649 0.0
C321 C 0.97138 0.44516 0.25972 0.0
C322 C 0.02788 0.45249 0.30027 0.0
C323 C 0.03554 0.43515 0.32783 0.0
C324 C 0.03435 0.41374 0.31196 0.0
C325 C 0.02757 0.41019 0.26634 0.0
C326 C 0.0201 0.42749 0.2387 0.0
H327 H 0.95375 0.44835 0.26486 0.0
H328 H 0.97353 0.43014 0.23907 0.0
H329 H 0.97905 0.44225 0.294 0.0
H330 H 0.02698 0.46861 0.31486 0.0
H331 H 0.03997 0.43828 0.36338 0.0
H332 H 0.98762 0.94045 0.13559 0.0
H333 H 1.00218 0.97383 0.16672 0.0
H334 H 0.01802 0.94072 0.29407 0.0
H335 H 1.00387 0.90732 0.26273 0.0
H336 H 1.00232 0.99971 0.26722 0.0
H337 H 0.07531 0.9529 0.20714 0.0
H338 H 0.04846 0.94765 0.18629 0.0
H339 H 0.0567 0.93845 0.24265 0.0
C340 C 0.99274 0.94071 0.17141 0.0
C341 C 0.99429 0.92135 0.19704 0.0
C342 C 1.00132 0.95977 0.189 0.0
C343 C 1.01129 0.95972 0.23263 0.0
C344 C 1.01027 0.94115 0.26046 0.0
H345 H 0.09152 0.03704 0.40006 0.0
H346 H 0.05945 0.02347 0.36224 0.0
C347 C 1.00193 0.92209 0.24273 0.0
C348 C 0.02687 0.97664 0.2447 0.0
H349 H 0.0812 0.98419 0.25103 0.0
C350 C 0.01957 0.99651 0.26333 0.0
C351 C 0.04934 0.97261 0.23869 0.0
C352 C 0.05804 0.95184 0.2173 0.0
C353 C 0.03432 1.01215 0.27771 0.0
C354 C 0.05692 1.00758 0.27407 0.0
C355 C 0.06399 0.98794 0.25381 0.0
C356 C 0.07376 0.02174 0.29397 0.0
C357 C 0.02548 0.03337 0.29647 0.0
C358 C 0.09248 0.02617 0.26832 0.0
C359 C 0.11103 0.03361 0.2903 0.0
C360 C 0.11107 0.03731 0.33812 0.0
C361 C 0.09167 0.03519 0.36281 0.0
C362 C 0.07327 0.02726 0.3411 0.0
H363 H 1.00946 0.0377 0.28098 0.0
H364 H 0.02316 0.03184 0.33436 0.0
H365 H 0.03665 0.04673 0.28977 0.0
H366 H 0.0934 0.02205 0.23198 0.0
H367 H 0.12594 0.03441 0.27078 0.0
H368 H 0.4023 0.03741 0.76805 0.0
H369 H 0.43304 0.02295 0.723 0.0
H370 H 0.4708 1.01629 0.84792 0.0
H371 H 0.44058 0.03189 0.89227 0.0
H372 H 0.49732 0.02057 0.77324 0.0
H373 H 0.43655 0.95831 0.73986 0.0
H374 H 0.42903 0.98431 0.71624 0.0
H375 H 0.43123 0.98084 0.77792 0.0
C376 C 0.41766 0.03429 0.78528 0.0
C377 C 0.41916 0.03608 0.83351 0.0
C378 C 0.43511 0.02555 0.75971 0.0
C379 C 0.45398 0.01773 0.78229 0.0
C380 C 0.45642 0.02203 0.82961 0.0
H381 H 0.51712 0.89886 0.69496 0.0
H382 H 0.50168 0.92804 0.74256 0.0
C383 C 0.43917 0.03124 0.85495 0.0
C384 C 0.46921 1.00197 0.75906 0.0
H385 H 0.47084 0.95247 0.70678 0.0
C386 C 0.49155 1.00571 0.75852 0.0
C387 C 0.46183 0.98219 0.74113 0.0
C388 C 0.43841 0.97601 0.74416 0.0
C389 C 0.50659 0.99033 0.74016 0.0
C390 C 0.49904 0.97092 0.72095 0.0
C391 C 0.47673 0.9673 0.72148 0.0
C392 C 0.51355 0.95386 0.69979 0.0
C393 C 0.53042 0.99469 0.74304 0.0
C394 C 0.52661 0.95851 0.66151 0.0
C395 C 0.53588 0.94174 0.63463 0.0
C396 C 0.53203 0.92005 0.64556 0.0
C397 C 0.52058 0.91544 0.68612 0.0
C398 C 0.51157 0.93214 0.71311 0.0
H399 H 0.53386 1.00664 0.7705 0.0
H400 H 0.54007 0.97958 0.75001 0.0
H401 H 0.53587 1.00145 0.70966 0.0
H402 H 0.52816 0.97502 0.65023 0.0
H403 H 0.54414 0.94578 0.60289 0.0
H404 H 0.63611 0.50189 0.66038 0.0
H405 H 0.61785 0.48027 0.71854 0.0
H406 H 0.64865 0.42216 0.66407 0.0
H407 H 0.6668 0.44351 0.60557 0.0
H408 H 0.60337 0.42066 0.67206 0.0
H409 H 0.64193 0.44849 0.83402 0.0
H410 H 0.63151 0.46982 0.79716 0.0
H411 H 0.65366 0.45267 0.77766 0.0
C412 C 0.63927 0.48454 0.66125 0.0
C413 C 0.65281 0.47436 0.62833 0.0
C414 C 0.62888 0.47227 0.69455 0.0
C415 C 0.63207 0.44972 0.69556 0.0
C416 C 0.64606 0.43959 0.66368 0.0
H417 H 0.58826 0.36338 0.90762 0.0
H418 H 0.60921 0.38163 0.84869 0.0
C419 C 0.65641 0.45181 0.63036 0.0
C420 C 0.61969 0.4365 0.7278 0.0
H421 H 0.61096 0.42701 0.84214 0.0
C422 C 0.60507 0.42192 0.70927 0.0
C423 C 0.62217 0.43818 0.77613 0.0
C424 C 0.6383 0.45299 0.79756 0.0
C425 C 0.59255 0.40911 0.73807 0.0
C426 C 0.59458 0.41124 0.78641 0.0
C427 C 0.60942 0.42558 0.80493 0.0
C428 C 0.58151 0.39873 0.81868 0.0
C429 C 0.57742 0.39328 0.71665 0.0
C430 C 0.55899 0.40215 0.82062 0.0
C431 C 0.54693 0.3917 0.8542 0.0
C432 C 0.55731 0.37787 0.88645 0.0
C433 C 0.57981 0.374 0.88339 0.0
C434 C 0.5918 0.38441 0.84981 0.0
H435 H 0.58154 0.38994 0.67992 0.0
H436 H 0.57784 0.37775 0.73604 0.0
H437 H 0.56063 0.40015 0.71791 0.0
H438 H 0.55087 0.41343 0.79719 0.0
H439 H 0.52963 0.39506 0.85587 0.0
H440 H 0.98017 0.59645 0.67558 0.0
H441 H 0.98878 0.5642 0.72276 0.0
H442 H 0.02434 0.60348 0.81755 0.0
H443 H 1.01547 0.63538 0.77116 0.0
H444 H 0.02832 0.54921 0.7291 0.0
H445 H 1.00116 0.56162 0.90779 0.0
H446 H 0.99033 0.57797 0.86082 0.0
H447 H 1.01489 0.58528 0.88996 0.0
C448 C 0.98867 0.59833 0.70802 0.0
C449 C 0.99685 0.61848 0.72016 0.0
C450 C 0.99386 0.57983 0.73471 0.0
C451 C 1.00715 0.58126 0.77415 0.0
C452 C 1.01363 0.6018 0.78824 0.0
H453 H 0.12166 0.52163 0.85108 0.0
H454 H 0.08962 0.53508 0.80988 0.0
C455 C 1.00853 0.62015 0.7616 0.0
C456 C 0.01775 0.56151 0.79535 0.0
H457 H 0.03628 0.54167 0.89899 0.0
C458 C 0.02952 0.54724 0.76628 0.0
C459 C 0.01914 0.55834 0.84384 0.0
C460 C 1.00546 0.57152 0.87722 0.0
C461 C 0.04412 0.53145 0.78425 0.0
C462 C 0.04753 0.53018 0.8326 0.0
C463 C 0.03416 0.54289 0.86183 0.0
C464 C 0.06678 0.51841 0.85287 0.0
C465 C 0.05634 0.51685 0.75096 0.0
C466 C 0.06487 0.50421 0.89066 0.0
C467 C 0.08341 0.49631 0.91425 0.0
C468 C 0.1041 0.50276 0.90077 0.0
C469 C 0.10597 0.51599 0.86157 0.0
C470 C 0.08758 0.52371 0.83795 0.0
H471 H 0.04628 0.51343 0.72015 0.0
H472 H 0.07096 0.52509 0.73866 0.0
H473 H 0.06146 0.50126 0.76739 0.0
H474 H 0.04902 0.50005 0.90318 0.0
H475 H 0.08144 0.48667 0.94518 0.0
H476 H 0.05251 0.0926 0.87531 0.0
H477 H 0.04334 0.05761 0.84186 0.0
H478 H 1.00529 0.09098 0.73702 0.0
H479 H 1.01523 0.12544 0.76891 0.0
H480 H 1.00596 0.04329 0.84572 0.0
H481 H 0.02396 0.04209 0.66083 0.0
H482 H 0.03613 0.06147 0.69863 0.0
H483 H 1.01019 0.06742 0.67163 0.0
C484 C 0.04344 0.09238 0.84327 0.0
C485 C 0.03482 0.11176 0.82434 0.0
C486 C 0.03785 0.07234 0.82455 0.0
C487 C 0.02361 0.07139 0.78654 0.0
C488 C 0.01677 0.09091 0.76528 0.0
H489 H 0.90678 0.01716 0.75935 0.0
H490 H 0.94133 0.02691 0.79144 0.0
C491 C 0.02248 0.11079 0.78366 0.0
C492 C 1.01257 0.05095 0.77433 0.0
H493 H 0.98866 0.02652 0.68266 0.0
C494 C 1.00278 0.03921 0.80996 0.0
C495 C 1.0087 0.0448 0.72793 0.0
C496 C 0.02058 0.05452 0.68779 0.0
C497 C 0.98759 0.02335 0.80043 0.0
C498 C 0.98129 0.01964 0.75407 0.0
C499 C 0.99285 0.0296 0.71841 0.0
C500 C 0.96081 1.00862 0.74194 0.0
C501 C 0.97804 1.0113 0.84053 0.0
C502 C 0.9598 0.99443 0.70397 0.0
C503 C 0.93972 0.98895 0.68514 0.0
C504 C 0.92037 0.99761 0.70399 0.0
C505 C 0.92141 1.00989 0.74467 0.0
C506 C 0.94133 1.01549 0.76315 0.0
H507 H 0.99057 1.00787 0.86736 0.0
H508 H 0.96515 0.02158 0.85689 0.0
H509 H 0.97111 0.99578 0.82959 0.0
H510 H 0.97451 0.9889 0.68677 0.0
H511 H 0.93947 0.97992 0.65311 0.0
H512 H 0.70545 0.98219 0.99544 0.0
H513 H 0.73184 0.98632 0.93277 0.0
H514 H 0.7291 0.05546 0.95193 0.0
H515 H 0.70304 0.05154 1.01435 0.0
H516 H 0.72792 1.01056 0.84907 0.0
H517 H 0.7942 0.0408 0.95847 0.0
H518 H 0.77103 0.02771 0.98242 0.0
H519 H 0.76886 0.05555 0.9645 0.0
C520 C 0.7105 0.99826 0.98638 0.0
C521 C 0.70215 0.01649 1.01029 0.0
C522 C 0.72558 1.00061 0.9505 0.0
C523 C 0.73277 0.02118 0.93809 0.0
C524 C 0.7242 0.03938 0.96143 0.0
H525 H 0.82639 0.06774 0.73498 0.0
H526 H 0.79852 0.06539 0.79524 0.0
C527 C 0.70915 0.03708 0.99707 0.0
C528 C 0.74894 0.02379 0.90033 0.0
H529 H 0.79941 0.04236 0.87739 0.0
C530 C 0.74359 0.01742 0.85531 0.0
C531 C 0.76933 0.03295 0.90828 0.0
C532 C 0.77635 0.0395 0.95607 0.0
C533 C 0.75791 0.02016 0.81806 0.0
C534 C 0.77842 0.02908 0.82609 0.0
C535 C 0.7837 0.0356 0.87107 0.0
C536 C 0.79499 0.0308 0.78878 0.0
C537 C 0.75071 1.01385 0.77024 0.0
C538 C 0.80253 1.01218 0.76542 0.0
C539 C 0.81834 1.01349 0.73107 0.0
C540 C 0.82726 0.03345 0.71928 0.0
C541 C 0.81984 0.05213 0.74294 0.0
C542 C 0.80392 0.05079 0.77746 0.0
H543 H 0.73278 1.01385 0.76751 0.0
H544 H 0.75699 0.02499 0.74362 0.0
H545 H 0.75699 0.99723 0.76254 0.0
H546 H 0.79638 0.99649 0.7742 0.0
H547 H 0.8237 0.99869 0.71401 0.0
H548 H 0.48412 0.81631 0.63642 0.0
H549 H 0.4901 0.78726 0.69335 0.0
H550 H 0.55866 0.79801 0.69131 0.0
H551 H 0.55297 0.82695 0.6347 0.0
H552 H 0.52025 0.74817 0.68708 0.0
H553 H 0.53887 0.80497 0.82986 0.0
H554 H 0.52448 0.81365 0.77837 0.0
H555 H 0.55316 0.80828 0.77628 0.0
C556 C 0.50048 0.81242 0.64791 0.0
C557 C 0.51804 0.82405 0.63124 0.0
C558 C 0.50386 0.79582 0.68031 0.0
C559 C 0.52479 0.79071 0.6967 0.0
C560 C 0.54237 0.8019 0.67936 0.0
H561 H 0.55827 0.70793 0.93526 0.0
H562 H 0.56319 0.72967 0.86493 0.0
C563 C 0.53905 0.81841 0.64693 0.0
C564 C 0.52817 0.7741 0.73297 0.0
H565 H 0.54004 0.76786 0.84748 0.0
C566 C 0.52471 0.7524 0.7221 0.0
C567 C 0.53427 0.77972 0.77837 0.0
C568 C 0.53781 0.80291 0.7918 0.0
C569 C 0.52676 0.73614 0.75589 0.0
C570 C 0.53195 0.74187 0.80181 0.0
C571 C 0.53619 0.76349 0.8122 0.0
C572 C 0.53032 0.72638 0.84065 0.0
C573 C 0.52316 0.71301 0.74219 0.0
C574 C 0.51033 0.71726 0.84996 0.0
C575 C 0.50749 0.70502 0.88979 0.0
C576 C 0.52456 0.70172 0.92146 0.0
C577 C 0.54488 0.71013 0.91136 0.0
C578 C 0.54768 0.72256 0.87133 0.0
H579 H 0.52699 0.71029 0.7051 0.0
H580 H 0.53318 0.7015 0.76335 0.0
H581 H 0.50586 0.70938 0.74742 0.0
H582 H 0.49657 0.7204 0.82743 0.0
H583 H 0.49164 0.69871 0.89647 0.0
H584 H 0.83826 0.57428 0.91711 0.0
H585 H 0.81209 0.57776 0.85321 0.0
H586 H 0.81414 0.50844 0.83674 0.0
H587 H 0.83965 0.5048 0.9006 0.0
H588 H 0.81374 0.56556 0.76131 0.0
H589 H 0.74998 0.5209 0.85111 0.0
H590 H 0.77358 0.53031 0.88073 0.0
H591 H 0.77499 0.50544 0.84839 0.0
C592 C 0.83313 0.5598 0.89979 0.0
C593 C 0.84087 0.53925 0.91442 0.0
C594 C 0.81817 0.56181 0.86329 0.0
C595 C 0.81072 0.54332 0.84085 0.0
C596 C 0.8191 0.52291 0.85433 0.0
H597 H 0.73218 0.50633 0.61223 0.0
H598 H 0.75905 0.51044 0.6733 0.0
C599 C 0.83384 0.52088 0.89081 0.0
C600 C 0.79421 0.54504 0.80333 0.0
H601 H 0.74573 0.52521 0.76921 0.0
C602 C 0.79873 0.557 0.76328 0.0
C603 C 0.7745 0.534 0.80595 0.0
C604 C 0.76785 0.52214 0.84906 0.0
C605 C 0.78455 0.55734 0.7251 0.0
C606 C 0.7654 0.54547 0.7271 0.0
C607 C 0.76056 0.5341 0.76759 0.0
C608 C 0.75042 0.54396 0.68714 0.0
C609 C 0.7904 0.56974 0.68222 0.0
C610 C 0.73677 0.56155 0.67429 0.0
C611 C 0.72124 0.55924 0.63941 0.0
C612 C 0.71912 0.53929 0.61668 0.0
C613 C 0.73335 0.52195 0.62876 0.0
C614 C 0.74872 0.52424 0.66378 0.0
H615 H 0.80695 0.57618 0.68421 0.0
H616 H 0.78935 0.55919 0.65133 0.0
H617 H 0.77867 0.58353 0.67737 0.0
H618 H 0.73768 0.57685 0.69221 0.0
H619 H 0.71052 0.57291 0.63113 0.0
H620 H 0.98168 0.82979 0.99225 0.0
H621 H 0.98713 0.80356 0.92931 0.0
H622 H 0.05576 0.80131 0.95614 0.0
H623 H 0.05054 0.82721 0.01889 0.0
H624 H 1.01332 0.80673 0.84861 0.0
H625 H 0.04072 0.73717 0.95797 0.0
H626 H 0.02719 0.76098 0.9816 0.0
H627 H 0.05537 0.76146 0.96654 0.0
C628 C 0.99792 0.82366 0.98486 0.0
C629 C 1.01562 0.8306 1.01097 0.0
C630 C 1.00102 0.80868 0.94882 0.0
C631 C 0.02183 0.80016 0.93839 0.0
C632 C 0.03951 0.80725 0.96404 0.0
H633 H 0.06846 0.70298 0.73536 0.0
H634 H 0.06699 0.73112 0.7955 0.0
C635 C 0.03646 0.82222 0.99986 0.0
C636 C 0.02519 0.7842 0.90021 0.0
H637 H 0.04325 0.73244 0.87697 0.0
C638 C 0.01981 0.79047 0.85486 0.0
C639 C 0.03393 0.76305 0.90816 0.0
C640 C 0.03949 0.75513 0.95621 0.0
C641 C 0.02295 0.77624 0.81735 0.0
C642 C 0.03126 0.75492 0.82539 0.0
C643 C 0.03696 0.74876 0.87066 0.0
C644 C 0.03266 0.73836 0.78788 0.0
C645 C 0.0176 0.78434 0.76931 0.0
C646 C 1.01391 0.73288 0.76388 0.0
C647 C 1.01472 0.71696 0.72968 0.0
C648 C 0.03429 0.70584 0.71862 0.0
C649 C 0.05315 0.71127 0.74271 0.0
C650 C 0.05231 0.72732 0.77718 0.0
H651 H 0.0184 0.80224 0.76709 0.0
H652 H 0.0288 0.77704 0.74325 0.0
H653 H 1.00085 0.77992 0.7604 0.0
H654 H 0.99846 0.74068 0.77215 0.0
H655 H 0.99978 0.71322 0.71227 0.0
H656 H 0.20538 0.98265 0.51943 0.0
H657 H 0.23152 0.97821 0.58225 0.0
H658 H 0.23012 0.04724 0.60312 0.0
H659 H 0.20365 0.05187 0.54028 0.0
H660 H 0.27256 0.99444 0.59097 0.0
H661 H 0.21956 0.02413 0.73349 0.0
H662 H 0.20912 0.01716 0.67737 0.0
H663 H 0.22159 0.04271 0.686 0.0
C664 C 0.2105 0.99696 0.5374 0.0
C665 C 0.20225 0.01766 0.52475 0.0
C666 C 0.22553 0.99435 0.57337 0.0
C667 C 0.23264 1.01232 0.59797 0.0
C668 C 0.22459 0.03305 0.58531 0.0
H669 H 0.32308 0.03431 0.81866 0.0
H670 H 0.29604 0.03592 0.7575 0.0
C671 C 0.20953 0.0357 0.54916 0.0
C672 C 0.24876 1.00926 0.63612 0.0
H673 H 0.25669 0.01782 0.75155 0.0
C674 C 0.26905 0.99944 0.62615 0.0
C675 C 0.24419 1.01567 0.68213 0.0
C676 C 0.22238 0.02532 0.69566 0.0
C677 C 0.28508 0.99649 0.66046 0.0
C678 C 0.2806 1.00314 0.70639 0.0
C679 C 0.26019 1.01269 0.71644 0.0
C680 C 0.29718 1.00152 0.744 0.0
C681 C 0.30693 0.98695 0.64683 0.0
C682 C 0.30685 0.98155 0.75751 0.0
C683 C 0.32256 0.98054 0.79275 0.0
C684 C 0.32879 0.99948 0.81542 0.0
C685 C 0.3188 0.01934 0.80213 0.0
C686 C 0.30323 0.02033 0.76704 0.0
H687 H 0.30947 0.98758 0.60885 0.0
H688 H 0.32017 0.9956 0.66404 0.0
H689 H 0.30805 0.96973 0.65772 0.0
H690 H 0.30216 0.96671 0.741 0.0
H691 H 0.3298 0.96496 0.80218 0.0
H692 H 0.52365 0.18933 0.62318 0.0
H693 H 0.51983 0.214 0.68827 0.0
H694 H 0.45096 0.21952 0.66479 0.0
H695 H 0.45462 0.19426 0.59957 0.0
H696 H 0.50552 0.25582 0.68459 0.0
H697 H 0.45366 0.20963 0.8039 0.0
H698 H 0.46714 0.19723 0.75487 0.0
H699 H 0.44296 0.2137 0.74668 0.0
C700 C 0.5076 0.19556 0.63198 0.0
C701 C 0.48943 0.1898 0.60599 0.0
C702 C 0.50546 0.20972 0.66933 0.0
C703 C 0.48511 0.21856 0.68179 0.0
C704 C 0.4668 0.21261 0.65646 0.0
H705 H 0.45883 0.32132 0.88638 0.0
H706 H 0.45432 0.29414 0.8257 0.0
C707 C 0.46891 0.19824 0.61904 0.0
C708 C 0.48365 0.23487 0.71962 0.0
H709 H 0.46282 0.24484 0.82738 0.0
C710 C 0.49611 0.2534 0.71571 0.0
C711 C 0.4713 0.23182 0.76023 0.0
C712 C 0.45812 0.21196 0.76707 0.0
C713 C 0.49686 0.26871 0.75138 0.0
C714 C 0.48497 0.2654 0.79236 0.0
C715 C 0.47197 0.24727 0.79593 0.0
C716 C 0.48674 0.28028 0.83233 0.0
C717 C 0.51052 0.2883 0.74514 0.0
C718 C 0.50624 0.28107 0.85701 0.0
C719 C 0.50886 0.29646 0.89174 0.0
C720 C 0.49201 0.31148 0.9025 0.0
C721 C 0.47214 0.31004 0.87899 0.0
C722 C 0.46952 0.29452 0.8443 0.0
H723 H 0.51496 0.29084 0.70837 0.0
H724 H 0.50185 0.30309 0.75805 0.0
H725 H 0.52568 0.28605 0.76543 0.0
H726 H 0.51967 0.2701 0.84854 0.0
H727 H 0.52436 0.29701 0.90909 0.0
H728 H 0.32834 0.54742 0.63845 0.0
H729 H 0.30552 0.54336 0.70605 0.0
H730 H 0.2979 0.47599 0.67355 0.0
H731 H 0.32074 0.48001 0.60468 0.0
H732 H 0.25902 0.49854 0.68775 0.0
H733 H 0.3153 0.51507 0.83111 0.0
H734 H 0.31581 0.53555 0.78718 0.0
H735 H 0.32461 0.50825 0.77364 0.0
C736 C 0.32213 0.5316 0.6459 0.0
C737 C 0.32631 0.51403 0.61605 0.0
C738 C 0.30921 0.52928 0.68492 0.0
C739 C 0.30026 0.50931 0.69528 0.0
C740 C 0.30484 0.49151 0.66635 0.0
H741 H 0.1995 0.48402 0.89906 0.0
H742 H 0.22825 0.47951 0.84172 0.0
C743 C 0.31792 0.4938 0.62715 0.0
C744 C 0.28447 0.50791 0.73367 0.0
H745 H 0.27725 0.52012 0.84785 0.0
C746 C 0.26307 0.50285 0.72296 0.0
C747 C 0.28978 0.51369 0.77952 0.0
C748 C 0.31268 0.51824 0.79366 0.0
C749 C 0.24664 0.50437 0.75636 0.0
C750 C 0.25182 0.51088 0.80176 0.0
C751 C 0.27332 0.51531 0.81288 0.0
C752 C 0.23501 0.51356 0.83789 0.0
C753 C 0.22368 0.49987 0.74243 0.0
C754 C 0.22963 0.53418 0.85549 0.0
C755 C 0.21316 0.53686 0.88837 0.0
C756 C 0.20192 0.51891 0.90442 0.0
C757 C 0.20773 0.49822 0.88735 0.0
C758 C 0.22412 0.49559 0.85444 0.0
H759 H 0.22174 0.49918 0.70428 0.0
H760 H 0.21909 0.48406 0.75703 0.0
H761 H 0.21228 0.5125 0.7563 0.0
H762 H 0.23793 0.54824 0.84318 0.0
H763 H 0.20914 0.55299 0.9009 0.0
H764 H 0.98253 0.32981 0.51322 0.0
H765 H 0.97879 0.30399 0.57631 0.0
H766 H 0.04813 0.30004 0.59251 0.0
H767 H 0.05207 0.32619 0.52923 0.0
H768 H 0.99472 0.26168 0.58293 0.0
H769 H 0.02719 0.31142 0.72486 0.0
H770 H 0.01943 0.32278 0.66951 0.0
H771 H 0.04489 0.30819 0.67595 0.0
C772 C 0.99707 0.3236 0.53023 0.0
C773 C 0.01764 0.33024 0.51602 0.0
C774 C 0.99486 0.30875 0.56639 0.0
C775 C 1.01312 0.30018 0.58971 0.0
C776 C 0.03374 0.30669 0.5757 0.0
H777 H 0.03414 0.20725 0.8111 0.0
H778 H 0.03654 0.23423 0.75006 0.0
C779 C 0.03598 0.32158 0.5393 0.0
C780 C 1.01042 0.28405 0.62776 0.0
H781 H 0.01985 0.27498 0.74283 0.0
C782 C 1.00014 0.26462 0.61795 0.0
C783 C 0.01741 0.28786 0.67355 0.0
C784 C 0.02767 0.30876 0.6869 0.0
C785 C 0.99717 0.24874 0.65219 0.0
C786 C 1.00423 0.25251 0.69801 0.0
C787 C 1.01438 0.27202 0.70785 0.0
C788 C 1.00219 0.23608 0.73575 0.0
C789 C 0.9871 0.22778 0.63856 0.0
C790 C 0.98198 0.22812 0.74887 0.0
C791 C 0.98052 0.21244 0.78398 0.0
C792 C 0.99923 0.20452 0.80702 0.0
C793 C 0.01933 0.21285 0.79425 0.0
C794 C 0.02077 0.22839 0.75923 0.0
H795 H 0.98779 0.22515 0.6006 0.0
H796 H 0.99533 0.21377 0.65601 0.0
H797 H 0.96983 0.22825 0.64903 0.0
H798 H 0.96729 0.23411 0.73213 0.0
H799 H 0.96476 0.20654 0.79303 0.0
H800 H 0.20761 0.0357 0.31716 0.0
H801 H 0.23458 0.03767 0.25617 0.0
H802 H 0.23389 0.96841 0.23977 0.0
H803 H 0.20635 0.9663 0.30069 0.0
H804 H 0.2753 0.02023 0.25061 0.0
H805 H 0.22534 0.98892 0.10754 0.0
H806 H 0.21389 0.9968 0.16257 0.0
H807 H 0.22801 0.97109 0.15642 0.0
C808 C 0.21307 0.0208 0.30064 0.0
C809 C 0.20463 1.00081 0.31389 0.0
C810 C 0.2286 0.02199 0.26566 0.0
C811 C 0.23615 1.00327 0.24272 0.0
C812 C 0.22802 0.98318 0.25617 0.0
H813 H 0.3302 0.98334 0.02141 0.0
H814 H 0.30414 0.97946 0.0839 0.0
C815 C 0.21235 0.98197 0.29126 0.0
C816 C 0.2527 1.00504 0.20533 0.0
H817 H 0.26193 0.99569 0.09038 0.0
C818 C 0.27234 1.01488 0.21556 0.0
C819 C 0.24891 0.99811 0.15947 0.0
C820 C 0.22784 0.98831 0.14556 0.0
C821 C 0.28828 0.01778 0.18154 0.0
C822 C 0.28443 1.01099 0.13565 0.0
C823 C 0.26489 1.00097 0.12547 0.0
C824 C 0.30059 1.01373 0.09787 0.0
C825 C 0.30931 0.02772 0.19527 0.0
C826 C 0.30728 0.03435 0.08439 0.0
C827 C 0.32231 0.03668 0.0484 0.0
C828 C 0.3309 0.01841 0.025 0.0
C829 C 0.32405 0.99782 0.03857 0.0
C830 C 0.30906 0.99553 0.07436 0.0
H831 H 0.31196 0.02697 0.23323 0.0
H832 H 0.32326 0.01944 0.17782 0.0
H833 H 0.30894 0.04499 0.18471 0.0
H834 H 0.3007 0.0487 0.10135 0.0
H835 H 0.32709 0.05277 0.03878 0.0
H836 H 0.48515 0.20647 0.39973 0.0
H837 H 0.48354 0.2346 0.34061 0.0
H838 H 0.55291 0.23959 0.34729 0.0
H839 H 0.55478 0.211 0.40612 0.0
H840 H 0.49639 0.27705 0.33948 0.0
H841 H 0.54203 0.2271 0.21093 0.0
H842 H 0.53151 0.21591 0.26367 0.0
H843 H 0.55617 0.23058 0.26448 0.0
C844 C 0.50011 0.21356 0.38886 0.0
C845 C 0.52015 0.2063 0.40733 0.0
C846 C 0.49912 0.22969 0.3551 0.0
C847 C 0.51812 0.2389 0.33905 0.0
C848 C 0.5381 0.23234 0.35859 0.0
H849 H 0.55018 0.33099 0.13183 0.0
H850 H 0.54791 0.30804 0.19995 0.0
C851 C 0.53912 0.21609 0.39234 0.0
C852 C 0.51696 0.25487 0.30084 0.0
H853 H 0.53417 0.26366 0.19059 0.0
C854 C 0.50457 0.27413 0.30684 0.0
C855 C 0.52742 0.25084 0.25812 0.0
C856 C 0.53986 0.22991 0.24859 0.0
C857 C 0.50292 0.28976 0.27158 0.0
C858 C 0.5138 0.28589 0.22939 0.0
C859 C 0.52591 0.26654 0.22318 0.0
C860 C 0.51387 0.30205 0.19169 0.0
C861 C 0.49003 0.31051 0.27988 0.0
C862 C 0.49527 0.30665 0.16502 0.0
C863 C 0.49648 0.31987 0.12571 0.0
C864 C 0.51637 0.32843 0.11255 0.0
C865 C 0.53465 0.32449 0.1407 0.0
C866 C 0.53341 0.31141 0.17975 0.0
H867 H 0.48509 0.31232 0.31661 0.0
H868 H 0.49961 0.32465 0.26974 0.0
H869 H 0.47522 0.3107 0.25816 0.0
H870 H 0.48009 0.29934 0.17353 0.0
H871 H 0.48216 0.32257 0.10461 0.0
H872 H 0.3183 0.46074 0.3875 0.0
H873 H 0.29083 0.45706 0.32691 0.0
H874 H 0.2676 0.52242 0.35197 0.0
H875 H 0.29477 0.52627 0.41255 0.0
H876 H 0.24049 0.46771 0.33117 0.0
H877 H 0.28885 0.51672 0.21003 0.0
H878 H 0.30083 0.50249 0.25881 0.0
H879 H 0.28528 0.52713 0.26768 0.0
C880 C 0.30713 0.47423 0.38064 0.0
C881 C 0.30885 0.49385 0.40485 0.0
C882 C 0.29145 0.47207 0.34601 0.0
C883 C 0.27732 0.48952 0.33478 0.0
C884 C 0.27843 0.5088 0.36 0.0
H885 H 0.18822 0.52875 0.12196 0.0
H886 H 0.21301 0.52469 0.18707 0.0
C887 C 0.29398 0.51094 0.39472 0.0
C888 C 0.26224 0.48824 0.29496 0.0
H889 H 0.25363 0.50818 0.18616 0.0
C890 C 0.24337 0.47637 0.29924 0.0
C891 C 0.26612 0.49955 0.25345 0.0
C892 C 0.28642 0.51211 0.24676 0.0
C893 C 0.22781 0.47623 0.26361 0.0
C894 C 0.23149 0.48791 0.22229 0.0
C895 C 0.25072 0.49928 0.21777 0.0
C896 C 0.21525 0.48972 0.18419 0.0
C897 C 0.20719 0.46432 0.2713 0.0
C898 C 0.20801 0.47139 0.16077 0.0
C899 C 0.19354 0.47366 0.12346 0.0
C900 C 0.18631 0.49433 0.10848 0.0
C901 C 0.19348 0.51257 0.13233 0.0
C902 C 0.20771 0.51029 0.16966 0.0
H903 H 0.20452 0.46079 0.3085 0.0
H904 H 0.19296 0.4738 0.25789 0.0
H905 H 0.20821 0.44868 0.25258 0.0
H906 H 0.21392 0.45536 0.17059 0.0
H907 H 0.18848 0.45929 0.10563 0.0
H908 H 0.98048 0.20387 1.01125 0.0
H909 H 0.97603 0.23048 0.07286 0.0
H910 H 0.04486 0.22742 0.09761 0.0
H911 H 0.04954 0.20094 0.03506 0.0
H912 H 0.98487 0.22838 0.16468 0.0
H913 H 0.03349 0.29197 0.08358 0.0
H914 H 0.02514 0.26844 0.05233 0.0
H915 H 0.0481 0.26662 0.09056 0.0
C916 C 0.99476 0.20883 0.02961 0.0
C917 C 1.01544 0.20028 0.01778 0.0
C918 C 0.99214 0.22409 0.06503 0.0
C919 C 1.0101 0.23131 0.08958 0.0
C920 C 0.03076 0.22253 0.07854 0.0
H921 H 0.03117 0.31863 0.3155 0.0
H922 H 0.03269 0.29161 0.25458 0.0
C923 C 0.03342 0.20726 0.04291 0.0
C924 C 1.00705 0.24789 0.1268 0.0
H925 H 0.02249 0.29799 0.16125 0.0
C926 C 0.99301 0.24366 0.16377 0.0
C927 C 0.01748 0.26795 0.12559 0.0
C928 C 0.03173 0.27417 0.08569 0.0
C929 C 0.98966 0.25857 0.20007 0.0
C930 C 1.00043 0.27843 0.19923 0.0
C931 C 1.01424 0.28277 0.16199 0.0
C932 C 0.99864 0.29444 0.23772 0.0
C933 C 0.97515 0.2527 0.23974 0.0
C934 C 0.97889 0.30515 0.24895 0.0
C935 C 0.9779 0.32083 0.28419 0.0
C936 C 0.99669 0.32611 0.30874 0.0
C937 C 0.01631 0.31511 0.29752 0.0
C938 C 0.01727 0.2996 0.26249 0.0
H939 H 0.97159 0.2352 0.23992 0.0
H940 H 0.98266 0.25687 0.27331 0.0
H941 H 0.95958 0.26204 0.23674 0.0
H942 H 0.96432 0.30171 0.22988 0.0
H943 H 0.96256 0.32902 0.29167 0.0
H944 H 0.71062 1.0002 0.21602 0.0
H945 H 0.73786 0.99837 0.27676 0.0
H946 H 0.73208 0.06757 0.29383 0.0
H947 H 0.70423 0.06953 0.23311 0.0
H948 H 0.77731 1.01623 0.28255 0.0
H949 H 0.72498 0.04657 0.42586 0.0
H950 H 0.71413 0.0387 0.3707 0.0
H951 H 0.72636 0.06451 0.37713 0.0
C952 C 0.71502 1.01512 0.2326 0.0
C953 C 0.70504 0.03504 0.21962 0.0
C954 C 0.7307 1.01401 0.26743 0.0
C955 C 0.7369 0.03275 0.29053 0.0
C956 C 0.72728 0.05278 0.27729 0.0
H957 H 0.82902 0.05172 0.51416 0.0
H958 H 0.80292 0.05601 0.45126 0.0
C959 C 0.71144 0.05391 0.24231 0.0
C960 C 0.75357 0.03101 0.32797 0.0
H961 H 0.76195 0.03974 0.44326 0.0
C962 C 0.77393 0.02138 0.3177 0.0
C963 C 0.74923 0.03767 0.37395 0.0
C964 C 0.72745 0.04727 0.38786 0.0
C965 C 0.79002 0.01837 0.35182 0.0
C966 C 0.7856 0.02484 0.39786 0.0
C967 C 0.76535 0.0347 0.40806 0.0
C968 C 0.80185 0.02187 0.43582 0.0
C969 C 0.81176 1.00865 0.33805 0.0
C970 C 0.80996 1.00117 0.44859 0.0
C971 C 0.82502 0.99861 0.4848 0.0
C972 C 0.83222 0.01671 0.50915 0.0
C973 C 0.82396 0.03737 0.49627 0.0
C974 C 0.80894 0.03989 0.46024 0.0
H975 H 0.81446 1.00977 0.30017 0.0
H976 H 0.82509 0.01681 0.35607 0.0
H977 H 0.81254 0.99128 0.34785 0.0
H978 H 0.80445 0.98694 0.43092 0.0
H979 H 0.83089 0.98247 0.49387 0.0
H980 H 0.51912 0.81792 0.45758 0.0
H981 H 0.52308 0.79364 0.3918 0.0
H982 H 0.56928 0.83607 0.33064 0.0
H983 H 0.56624 0.85989 0.39837 0.0
H984 H 0.51277 0.79944 0.30797 0.0
H985 H 0.60093 0.7803 0.31024 0.0
H986 H 0.58741 0.79446 0.35692 0.0
H987 H 0.59484 0.80875 0.30529 0.0
C988 C 0.53033 0.82197 0.43037 0.0
C989 C 0.5424 0.8408 0.43316 0.0
C990 C 0.53257 0.80807 0.39262 0.0
C991 C 0.54664 0.81277 0.35608 0.0
C992 C 0.55876 0.83165 0.35876 0.0
H993 H 0.52364 0.74341 0.09614 0.0
H994 H 0.52702 0.77209 0.15366 0.0
C995 C 0.55692 0.84536 0.39733 0.0
C996 C 0.5475 0.79832 0.3147 0.0
H997 H 0.58144 0.76822 0.24496 0.0
C998 C 0.52783 0.79259 0.29437 0.0
C999 C 0.56708 0.78913 0.29692 0.0
C1000 C 0.58873 0.79328 0.31874 0.0
C1001 C 0.52708 0.77771 0.25783 0.0
C1002 C 0.54668 0.76905 0.23901 0.0
C1003 C 0.5664 0.77501 0.25882 0.0
C1004 C 0.54695 0.7528 0.2008 0.0
C1005 C 0.50516 0.77074 0.2415 0.0
C1006 C 0.55834 0.7329 0.20618 0.0
C1007 C 0.55707 0.71677 0.17246 0.0
C1008 C 0.54412 0.72006 0.13294 0.0
C1009 C 0.53353 0.74031 0.12651 0.0
C1010 C 0.53527 0.75664 0.15967 0.0
H1011 H 0.49252 0.77359 0.26829 0.0
H1012 H 0.50028 0.78032 0.21052 0.0
H1013 H 0.50548 0.75331 0.23233 0.0
H1014 H 0.56759 0.72949 0.23731 0.0
H1015 H 0.56538 0.70132 0.17851 0.0
H1016 H 0.70343 0.48412 0.38636 0.0
H1017 H 0.72742 0.48765 0.32045 0.0
H1018 H 0.73172 0.55599 0.34692 0.0
H1019 H 0.70781 0.55252 0.41425 0.0
H1020 H 0.72524 0.51199 0.24064 0.0
H1021 H 0.79504 0.53454 0.35016 0.0
H1022 H 0.7705 0.52426 0.37432 0.0
H1023 H 0.77121 0.55183 0.3548 0.0
C1024 C 0.70931 0.49999 0.37818 0.0
C1025 C 0.7039 0.51801 0.40598 0.0
C1026 C 0.723 0.50197 0.34029 0.0
C1027 C 0.73167 0.52198 0.32924 0.0
C1028 C 0.72553 0.5403 0.35545 0.0
H1029 H 0.83152 0.54776 0.12538 0.0
H1030 H 0.80267 0.55146 0.1826 0.0
C1031 C 0.71175 0.53833 0.39364 0.0
C1032 C 0.74781 0.52306 0.29145 0.0
H1033 H 0.80134 0.53106 0.27035 0.0
C1034 C 0.74185 0.51632 0.24702 0.0
C1035 C 0.7695 0.52858 0.29996 0.0
C1036 C 0.77709 0.53505 0.34741 0.0
C1037 C 0.75703 0.51475 0.21101 0.0
C1038 C 0.77878 0.51981 0.21982 0.0
C1039 C 0.78464 0.52711 0.26383 0.0
C1040 C 0.79583 0.5174 0.18404 0.0
C1041 C 0.74969 0.50769 0.16381 0.0
C1042 C 0.80169 0.49693 0.16614 0.0
C1043 C 0.81829 0.4947 0.13341 0.0
C1044 C 0.82932 0.51292 0.1181 0.0
C1045 C 0.82336 0.53337 0.13624 0.0
C1046 C 0.80686 0.53555 0.169 0.0
H1047 H 0.73184 0.50953 0.1598 0.0
H1048 H 0.75756 0.51716 0.13622 0.0
H1049 H 0.75433 0.49037 0.15882 0.0
H1050 H 0.7936 0.48265 0.17795 0.0
H1051 H 0.82251 0.47873 0.12027 0.0
H1052 H 0.99522 0.82494 0.21916 0.0
H1053 H 0.99275 0.79795 0.28022 0.0
H1054 H 0.06201 0.79792 0.29814 0.0
H1055 H 0.0646 0.82548 0.23727 0.0
H1056 H 1.0093 0.75719 0.28711 0.0
H1057 H 0.0417 0.80648 0.42978 0.0
H1058 H 0.03418 0.81803 0.37452 0.0
H1059 H 0.05965 0.80347 0.38132 0.0
C1060 C 1.01001 0.81932 0.23605 0.0
C1061 C 0.03014 0.82759 0.22324 0.0
C1062 C 1.00854 0.80377 0.27107 0.0
C1063 C 0.02711 0.79602 0.29454 0.0
C1064 C 0.04733 0.80396 0.28145 0.0
H1065 H 0.04752 0.70149 0.51516 0.0
H1066 H 0.05094 0.72755 0.45245 0.0
C1067 C 0.04883 0.81964 0.24635 0.0
C1068 C 0.02507 0.77948 0.3321 0.0
H1069 H 0.03493 0.76984 0.4469 0.0
C1070 C 1.01487 0.76001 0.32207 0.0
C1071 C 0.03225 0.78306 0.3779 0.0
C1072 C 0.04238 0.80396 0.39179 0.0
C1073 C 1.01194 0.74403 0.35613 0.0
C1074 C 0.01908 0.74764 0.4019 0.0
C1075 C 0.02938 0.76704 0.41191 0.0
C1076 C 0.01656 0.73133 0.43968 0.0
C1077 C 1.00163 0.72319 0.34254 0.0
C1078 C 0.99602 0.72469 0.45392 0.0
C1079 C 0.99395 0.70965 0.49012 0.0
C1080 C 1.01239 0.70096 0.51297 0.0
C1081 C 0.0329 0.70771 0.4985 0.0
C1082 C 0.03493 0.72271 0.46255 0.0
H1083 H 1.00196 0.7207 0.30452 0.0
H1084 H 1.00995 0.7091 0.3595 0.0
H1085 H 0.98447 0.72369 0.3538 0.0
H1086 H 0.98154 0.73137 0.43747 0.0
H1087 H 0.97791 0.70498 0.50041 0.0
H1088 H 0.44342 0.97042 0.93478 0.0
H1089 H 0.48113 0.97779 0.95484 0.0
H1090 H 0.45882 0.02592 0.05292 0.0
H1091 H 0.42141 0.01847 0.03348 0.0
H1092 H 0.49932 0.01746 0.94075 0.0
H1093 H 0.50662 0.99564 0.12594 0.0
H1094 H 0.48483 0.98649 0.09009 0.0
H1095 H 0.4837 1.01333 0.11413 0.0
C1096 C 0.44658 0.98185 0.9621 0.0
C1097 C 0.4294 0.99363 0.98302 0.0
C1098 C 0.46815 0.98629 0.97311 0.0
C1099 C 0.47292 1.00235 1.00569 0.0
C1100 C 0.45571 1.01318 0.02842 0.0
H1101 H 0.58997 0.06476 0.10172 0.0
H1102 H 0.55223 0.05755 0.08156 0.0
C1103 C 0.43425 1.00886 0.01727 0.0
C1104 C 0.49559 1.00942 1.01271 0.0
H1105 H 0.53395 0.018 0.09542 0.0
C1106 C 0.50696 0.01738 0.97453 0.0
C1107 C 0.50553 1.00965 0.05684 0.0
C1108 C 0.49463 1.00064 0.09901 0.0
C1109 C 0.52774 0.02582 0.97934 0.0
C1110 C 0.53768 0.02605 0.02347 0.0
C1111 C 0.52631 0.01809 0.06165 0.0
C1112 C 0.56037 0.03308 0.03048 0.0
C1113 C 0.53864 0.03484 0.93716 0.0
C1114 C 0.57755 0.02225 1.00765 0.0
C1115 C 0.59902 0.02649 0.01884 0.0
C1116 C 0.60392 0.04162 0.05325 0.0
C1117 C 0.58678 0.05341 0.07427 0.0
C1118 C 0.56518 0.04906 0.06321 0.0
H1119 H 0.52663 0.0399 0.91031 0.0
H1120 H 0.5485 0.04894 0.94609 0.0
H1121 H 0.5495 0.02213 0.92192 0.0
H1122 H 0.57441 1.00956 0.98304 0.0
H1123 H 0.61184 0.01688 1.00253 0.0
H1124 H 0.53901 0.42236 0.03995 0.0
H1125 H 0.54266 0.46152 0.0447 0.0
H1126 H 0.47703 0.47121 0.99651 0.0
H1127 H 0.47311 0.43199 0.99222 0.0
H1128 H 0.53941 0.49031 0.97201 0.0
H1129 H 0.47859 0.51211 0.10641 0.0
H1130 H 0.4883 0.48462 0.09714 0.0
H1131 H 0.46812 0.49665 0.05946 0.0
C1132 C 0.52518 0.43277 0.03113 0.0
C1133 C 0.50572 0.42394 0.01584 0.0
C1134 C 0.52735 0.4552 0.0337 0.0
C1135 C 0.51009 0.46937 0.02131 0.0
C1136 C 0.49046 0.46064 1.00709 0.0
H1137 H 0.49547 0.60959 0.99779 0.0
H1138 H 0.49112 0.5705 0.99285 0.0
C1139 C 0.48825 0.43817 1.00456 0.0
C1140 C 0.51315 0.49319 0.02072 0.0
H1141 H 0.49386 0.54119 0.06535 0.0
C1142 C 0.52951 0.50143 0.9926 0.0
C1143 C 0.50018 0.50773 0.04739 0.0
C1144 C 0.48293 0.49987 0.07965 0.0
C1145 C 0.53306 0.52376 0.98994 0.0
C1146 C 0.52015 0.53829 0.01673 0.0
C1147 C 0.50373 0.53007 0.04473 0.0
C1148 C 0.52349 0.56206 0.01667 0.0
C1149 C 0.55032 0.53161 0.9577 0.0
C1150 C 0.54322 0.57042 0.03133 0.0
C1151 C 0.54581 0.59282 0.03402 0.0
C1152 C 0.52867 0.60737 0.0224 0.0
C1153 C 0.50908 0.59892 1.00681 0.0
C1154 C 0.50651 0.57653 1.00415 0.0
H1155 H 0.55454 0.51943 0.93072 0.0
H1156 H 0.54503 0.54696 0.94047 0.0
H1157 H 0.56519 0.53466 0.97784 0.0
H1158 H 0.55644 0.55961 0.04201 0.0
H1159 H 0.56105 0.5987 0.04656 0.0
H1160 H 0.93021 0.51465 0.90956 0.0
H1161 H 0.9688 0.52164 0.91482 0.0
H1162 H 0.97497 0.47635 0.028 0.0
H1163 H 0.93655 0.469 0.02211 0.0
H1164 H 0.98063 0.54072 0.99572 0.0
H1165 H 0.03315 0.468 0.96389 0.0
H1166 H 1.00561 0.47041 0.94313 0.0
H1167 H 1.01105 0.46291 1.00222 0.0
C1168 C 0.94011 0.50512 0.93347 0.0
C1169 C 0.93039 0.4913 0.96542 0.0
C1170 C 0.9621 0.50937 0.93693 0.0
C1171 C 0.97471 0.49973 0.97216 0.0
C1172 C 0.96565 0.48378 1.00014 0.0
H1173 H 0.09628 0.5225 0.1031 0.0
H1174 H 0.05776 0.51633 0.09226 0.0
C1175 C 0.94365 0.4794 0.99642 0.0
C1176 C 0.99564 0.50914 0.98511 0.0
H1177 H 0.04883 0.49662 1.00647 0.0
C1178 C 0.99561 0.53112 0.9976 0.0
C1179 C 1.01509 0.4966 0.98796 0.0
C1180 C 0.01634 0.47322 0.97317 0.0
C1181 C 1.01442 0.54077 1.01371 0.0
C1182 C 0.03376 0.52813 0.01725 0.0
C1183 C 0.03385 0.50622 1.00437 0.0
C1184 C 0.05446 0.53724 0.03249 0.0
C1185 C 1.01338 0.56426 0.02767 0.0
C1186 C 0.06485 0.55241 1.00478 0.0
C1187 C 0.08679 0.55636 1.01168 0.0
C1188 C 0.09864 0.54477 0.04563 0.0
C1189 C 0.08748 0.5318 0.07699 0.0
C1190 C 0.06555 0.52799 0.07035 0.0
H1191 H 0.99646 0.57017 0.03383 0.0
H1192 H 0.02304 0.56686 0.05945 0.0
H1193 H 0.02025 0.57414 0.99952 0.0
H1194 H 0.05666 0.55955 0.97507 0.0
H1195 H 0.09503 0.56611 0.98643 0.0
H1196 H 0.96842 0.091 0.92332 0.0
H1197 H 0.97553 0.0529 0.9447 0.0
H1198 H 0.02169 0.07266 0.04684 0.0
H1199 H 1.01445 0.11042 0.02613 0.0
H1200 H 1.0146 0.03182 0.93453 0.0
H1201 H 0.99104 0.02724 0.11856 0.0
H1202 H 0.9826 0.04961 0.08186 0.0
H1203 H 1.0091 0.04879 0.10783 0.0
C1204 C 0.97931 0.08724 0.95177 0.0
C1205 C 0.99062 0.10378 0.97351 0.0
C1206 C 0.98362 0.06542 0.96356 0.0
C1207 C 0.99905 0.05978 0.99778 0.0
C1208 C 1.00939 0.07643 0.02115 0.0
H1209 H 0.06153 0.94028 0.1027 0.0
H1210 H 0.05397 0.97819 0.08049 0.0
C1211 C 1.0052 0.09811 1.00925 0.0
C1212 C 1.00607 0.0367 1.00599 0.0
H1213 H 1.01445 0.99863 0.09075 0.0
C1214 C 1.01435 0.02451 0.96863 0.0
C1215 C 1.00604 0.02711 0.05054 0.0
C1216 C 0.99652 0.0388 0.09188 0.0
C1217 C 0.02297 1.00331 0.97471 0.0
C1218 C 0.02308 0.99378 0.01933 0.0
C1219 C 1.0147 1.00594 0.05663 0.0
C1220 C 0.03042 0.9708 0.02781 0.0
C1221 C 0.03234 0.99156 0.9333 0.0
C1222 C 0.02025 0.95392 1.00489 0.0
C1223 C 0.02467 0.93235 0.0173 0.0
C1224 C 0.03933 0.92701 0.05315 0.0
C1225 C 0.05052 0.94378 0.07431 0.0
C1226 C 0.04598 0.96549 0.062 0.0
H1227 H 0.03752 1.00307 0.90621 0.0
H1228 H 0.04643 0.98093 0.94312 0.0
H1229 H 0.01977 0.98137 0.91793 0.0
H1230 H 1.00786 0.95743 0.97922 0.0
H1231 H 1.01552 0.91986 1.00079 0.0
H1232 H 0.09242 0.97064 0.43588 0.0
H1233 H 0.05442 0.97878 0.45679 0.0
H1234 H 0.07511 0.02552 0.55641 0.0
H1235 H 0.11285 0.0175 0.53587 0.0
H1236 H 0.03036 0.98168 0.54979 0.0
H1237 H 0.03721 0.0597 0.45569 0.0
H1238 H 0.05588 0.03703 0.44688 0.0
H1239 H 0.05802 0.05345 0.49761 0.0
C1240 C 0.08889 0.98195 0.46359 0.0
C1241 C 0.10567 0.99333 0.48438 0.0
C1242 C 0.06716 0.9868 0.47513 0.0
C1243 C 0.06194 1.00307 0.50755 0.0
C1244 C 0.07874 1.01314 0.53088 0.0
H1245 H 0.9407 0.06452 0.60641 0.0
H1246 H 0.97914 0.05676 0.58871 0.0
C1247 C 0.10033 1.00836 0.5194 0.0
C1248 C 0.03911 1.01082 0.5147 0.0
H1249 H 1.00451 0.05437 0.49605 0.0
C1250 C 0.02469 0.99752 0.53792 0.0
C1251 C 0.03174 0.03158 0.49942 0.0
C1252 C 0.04641 0.04629 0.4732 0.0
C1253 C 1.00317 1.00454 0.54664 0.0
C1254 C 0.99577 0.02522 0.53104 0.0
C1255 C 1.01021 0.03857 0.50806 0.0
C1256 C 0.97278 0.03267 0.53674 0.0
C1257 C 0.98847 0.98987 0.57291 0.0
C1258 C 0.95653 0.02255 0.51176 0.0
C1259 C 0.93471 0.02709 0.52143 0.0
C1260 C 0.92859 0.04193 0.55625 0.0
C1261 C 0.94485 0.05335 0.57878 0.0
C1262 C 0.96682 0.04873 0.56909 0.0
H1263 H 0.99768 0.97663 0.59096 0.0
H1264 H 0.97877 0.99922 0.59878 0.0
H1265 H 0.97704 0.98249 0.5484 0.0
H1266 H 0.96076 1.0103 0.4863 0.0
H1267 H 0.9226 0.01792 0.50368 0.0
H1268 H 0.46771 0.9321 0.55026 0.0
H1269 H 0.47157 0.97129 0.55528 0.0
H1270 H 0.51534 0.96895 0.43926 0.0
H1271 H 0.51159 0.92987 0.43438 0.0
H1272 H 0.5139 0.98394 0.57528 0.0
H1273 H 0.48213 0.02679 0.41984 0.0
H1274 H 0.4734 1.00028 0.43653 0.0
H1275 H 0.4987 1.00318 0.40685 0.0
C1276 C 0.47701 0.94014 0.52396 0.0
C1277 C 0.4893 0.928 0.4918 0.0
C1278 C 0.47949 0.9625 0.52732 0.0
C1279 C 0.49387 0.973 0.49786 0.0
C1280 C 0.50398 0.96127 0.46203 0.0
H1281 H 0.55843 0.09471 0.49213 0.0
H1282 H 0.55183 0.05595 0.48733 0.0
C1283 C 0.50169 0.93892 0.459 0.0
C1284 C 0.5014 0.99485 0.50946 0.0
H1285 H 0.50737 0.04564 0.46629 0.0
C1286 C 0.51229 0.99751 0.55165 0.0
C1287 C 0.4996 1.01239 0.47821 0.0
C1288 C 0.48766 1.01064 0.43298 0.0
C1289 C 0.52176 0.01712 0.5631 0.0
C1290 C 0.52005 0.0346 0.53173 0.0
C1291 C 0.50899 0.03203 0.48976 0.0
C1292 C 0.52826 0.05621 0.54256 0.0
C1293 C 0.53381 0.01864 0.60827 0.0
C1294 C 0.51815 0.0688 0.57708 0.0
C1295 C 0.52194 0.09089 0.57992 0.0
C1296 C 0.53592 0.10065 0.54839 0.0
C1297 C 0.54794 0.08753 0.51751 0.0
C1298 C 0.54391 0.06546 0.51421 0.0
H1299 H 0.54431 1.00394 0.61349 0.0
H1300 H 0.54418 0.03291 0.6103 0.0
H1301 H 0.5219 0.01944 0.63699 0.0
H1302 H 0.50598 0.06194 0.59916 0.0
H1303 H 0.51223 0.10074 0.60348 0.0
H1304 H 0.59904 0.56035 0.5264 0.0
H1305 H 0.55968 0.55674 0.5256 0.0
H1306 H 0.56792 0.49048 0.48131 0.0
H1307 H 0.6072 0.49399 0.48142 0.0
H1308 H 0.53441 0.51267 0.43514 0.0
H1309 H 0.52691 0.52384 0.62484 0.0
H1310 H 0.53985 0.54547 0.5953 0.0
H1311 H 0.55266 0.51896 0.59674 0.0
C1312 C 0.5925 0.54509 0.51588 0.0
C1313 C 0.60638 0.52744 0.50417 0.0
C1314 C 0.56996 0.54298 0.5159 0.0
C1315 C 0.56081 0.52318 0.50443 0.0
C1316 C 0.57457 0.50586 0.49067 0.0
H1317 H 0.42983 0.47352 0.49151 0.0
H1318 H 0.46915 0.47739 0.49207 0.0
C1319 C 0.59708 0.50794 0.49066 0.0
C1320 C 0.53696 0.52031 0.50741 0.0
H1321 H 0.49422 0.52157 0.5826 0.0
C1322 C 0.52564 0.51455 0.46741 0.0
C1323 C 0.52548 0.52271 0.54955 0.0
C1324 C 0.53682 0.52789 0.59419 0.0
C1325 C 0.50316 0.51155 0.46818 0.0
C1326 C 0.49167 0.51392 0.51033 0.0
C1327 C 0.50299 0.5197 0.55033 0.0
C1328 C 0.46785 0.51093 0.51336 0.0
C1329 C 0.49181 0.50638 0.42354 0.0
C1330 C 0.454 0.52815 0.52724 0.0
C1331 C 0.43151 0.52593 0.52739 0.0
C1332 C 0.42231 0.50637 0.5139 0.0
C1333 C 0.43629 0.48883 0.502 0.0
C1334 C 0.4588 0.49108 0.50186 0.0
H1335 H 0.50169 0.51052 0.3929 0.0
H1336 H 0.48886 0.48878 0.42232 0.0
H1337 H 0.47593 0.51524 0.42107 0.0
H1338 H 0.46056 0.54358 0.53663 0.0
H1339 H 0.42131 0.53981 0.53677 0.0
H1340 H 0.06241 0.58878 0.5998 0.0
H1341 H 0.0559 0.55122 0.57697 0.0
H1342 H 1.00357 0.57368 0.48873 0.0
H1343 H 1.01013 0.6109 0.51082 0.0
H1344 H 0.01751 0.53059 0.59415 0.0
H1345 H 0.03378 0.52961 0.40605 0.0
H1346 H 0.04308 0.55076 0.44337 0.0
H1347 H 1.01556 0.55135 0.42285 0.0
C1348 C 0.05011 0.58573 0.57415 0.0
C1349 C 0.03693 0.60286 0.55681 0.0
C1350 C 0.04621 0.56424 0.56152 0.0
C1351 C 0.02931 0.55953 0.53081 0.0
C1352 C 0.01696 0.57677 0.51171 0.0
H1353 H 0.96842 0.44259 0.42947 0.0
H1354 H 0.97507 0.48008 0.45257 0.0
C1355 C 0.02074 0.59812 0.52446 0.0
C1356 C 0.02309 0.53675 0.52194 0.0
H1357 H 1.01346 0.50048 0.43575 0.0
C1358 C 0.01683 0.52395 0.55954 0.0
C1359 C 0.02188 0.52809 0.47674 0.0
C1360 C 0.02913 0.54059 0.43499 0.0
C1361 C 1.00908 0.50298 0.55316 0.0
C1362 C 1.00784 0.49433 0.50796 0.0
C1363 C 1.01413 0.50713 0.47037 0.0
C1364 C 1.00151 0.47158 0.499 0.0
C1365 C 1.00185 0.49048 0.59494 0.0
C1366 C 1.01371 0.45426 0.51818 0.0
C1367 C 1.00984 0.43295 0.5053 0.0
C1368 C 0.99369 0.42833 0.47274 0.0
C1369 C 0.98066 0.44554 0.45531 0.0
C1370 C 0.98464 0.46699 0.46809 0.0
H1371 H 0.99721 0.50146 0.62388 0.0
H1372 H 0.9879 0.48031 0.58659 0.0
H1373 H 1.01542 0.47972 0.60707 0.0
H1374 H 0.02707 0.45726 0.5413 0.0
H1375 H 0.02034 0.4201 0.51901 0.0
loop_
_geom_bond_atom_site_label_1
_geom_bond_atom_site_label_2
_geom_bond_distance
_geom_bond_site_symmetry_2
_ccdc_geom_bond_type
C0 O2 1.247 . S
C0 O4 1.258 1_545 S
C1 O8 1.247 . S
C1 O9 1.258 1_565 S
O2 C0 1.247 . S
O2 Zn3 2.028 . S
Zn3 O2 2.028 . S
Zn3 O7 2.035 . S
Zn3 O9 2.035 . S
Zn3 O10 2.028 . S
O4 C0 1.258 1_565 S
O4 Zn5 2.035 . S
Zn5 O4 2.035 . S
Zn5 O6 2.028 . S
Zn5 O8 2.028 . S
Zn5 O11 2.035 . S
O6 Zn5 2.028 . S
O6 C12 1.247 1_565 S
O7 Zn3 2.035 . S
O7 C12 1.258 . S
O8 C1 1.247 . S
O8 Zn5 2.028 . S
O9 C1 1.258 1_545 S
O9 Zn3 2.035 . S
O10 Zn3 2.028 . S
O10 C13 1.205 1_545 S
O11 Zn5 2.035 . S
O11 C13 1.300 . S
C12 O6 1.247 1_545 S
C12 O7 1.258 . S
C13 O10 1.205 1_565 S
C13 O11 1.300 . S
C14 O16 1.247 . S
C14 O18 1.258 . S
C15 O22 1.247 . S
C15 O23 1.258 . S
O16 C14 1.247 . S
O16 Zn17 2.028 . S
Zn17 O16 2.028 . S
Zn17 O21 2.035 . S
Zn17 O23 2.035 . S
Zn17 O24 2.028 . S
O18 C14 1.258 . S
O18 Zn19 2.035 . S
Zn19 O18 2.035 . S
Zn19 O20 2.028 . S
Zn19 O22 2.028 . S
Zn19 O25 2.035 . S
O20 Zn19 2.028 . S
O20 C26 1.247 . S
O21 Zn17 2.035 . S
O21 C26 1.258 . S
O22 C15 1.247 . S
O22 Zn19 2.028 . S
O23 C15 1.258 . S
O23 Zn17 2.035 . S
O24 Zn17 2.028 . S
O24 C27 1.247 . S
O25 Zn19 2.035 . S
O25 C27 1.258 . S
C26 O20 1.247 . S
C26 O21 1.258 . S
C27 O24 1.247 . S
C27 O25 1.258 . S
C28 O30 1.247 . S
C28 O32 1.258 . S
C29 O36 1.247 . S
C29 O37 1.258 . S
O30 C28 1.247 . S
O30 Zn31 2.028 . S
Zn31 O30 2.028 . S
Zn31 O35 2.035 . S
Zn31 O37 2.035 . S
Zn31 O38 2.028 . S
O32 C28 1.258 . S
O32 Zn33 2.035 . S
Zn33 O32 2.035 . S
Zn33 O34 2.028 . S
Zn33 O36 2.028 . S
Zn33 O39 2.035 . S
O34 Zn33 2.028 . S
O34 C40 1.247 . S
O35 Zn31 2.035 . S
O35 C40 1.258 . S
O36 C29 1.247 . S
O36 Zn33 2.028 . S
O37 C29 1.258 . S
O37 Zn31 2.035 . S
O38 Zn31 2.028 . S
O38 C41 1.247 . S
O39 Zn33 2.035 . S
O39 C41 1.258 . S
C40 O34 1.247 . S
C40 O35 1.258 . S
C41 O38 1.247 . S
C41 O39 1.258 . S
C42 O44 1.247 . S
C42 O46 1.258 1_455 S
C43 O50 1.247 . S
C43 O51 1.258 1_655 S
O44 C42 1.247 . S
O44 Zn45 2.028 . S
Zn45 O44 2.028 . S
Zn45 O49 2.035 . S
Zn45 O51 2.035 . S
Zn45 O52 2.028 . S
O46 C42 1.258 1_655 S
O46 Zn47 2.035 . S
Zn47 O46 2.035 . S
Zn47 O48 2.028 . S
Zn47 O50 2.028 . S
Zn47 O53 2.035 . S
O48 Zn47 2.028 . S
O48 C54 1.211 1_655 S
O49 Zn45 2.035 . S
O49 C54 1.295 . S
O50 C43 1.247 . S
O50 Zn47 2.028 . S
O51 C43 1.258 1_455 S
O51 Zn45 2.035 . S
O52 Zn45 2.028 . S
O52 C55 1.221 1_455 S
O53 Zn47 2.035 . S
O53 C55 1.284 . S
C54 O48 1.211 1_455 S
C54 O49 1.295 . S
C55 O52 1.221 1_655 S
C55 O53 1.284 . S
C56 O58 1.247 . S
C56 O60 1.258 1_565 S
C57 O64 1.247 . S
C57 O65 1.258 1_545 S
O58 C56 1.247 . S
O58 Zn59 2.028 . S
Zn59 O58 2.028 . S
Zn59 O63 2.035 . S
Zn59 O65 2.035 . S
Zn59 O66 2.028 . S
O60 C56 1.258 1_545 S
O60 Zn61 2.035 . S
Zn61 O60 2.035 . S
Zn61 O62 2.028 . S
Zn61 O64 2.028 . S
Zn61 O67 2.035 . S
O62 Zn61 2.028 . S
O62 C68 1.211 1_545 S
O63 Zn59 2.035 . S
O63 C68 1.295 . S
O64 C57 1.247 . S
O64 Zn61 2.028 . S
O65 C57 1.258 1_565 S
O65 Zn59 2.035 . S
O66 Zn59 2.028 . S
O66 C69 1.221 1_565 S
O67 Zn61 2.035 . S
O67 C69 1.284 . S
C68 O62 1.211 1_565 S
C68 O63 1.295 . S
C69 O66 1.221 1_545 S
C69 O67 1.284 . S
C70 O72 1.247 . S
C70 O74 1.258 . S
C71 O78 1.247 . S
C71 O79 1.258 . S
O72 C70 1.247 . S
O72 Zn73 2.028 . S
Zn73 O72 2.028 . S
Zn73 O77 2.035 . S
Zn73 O79 2.035 . S
Zn73 O80 2.028 . S
O74 C70 1.258 . S
O74 Zn75 2.035 . S
Zn75 O74 2.035 . S
Zn75 O76 2.028 . S
Zn75 O78 2.028 . S
Zn75 O81 2.035 . S
O76 Zn75 2.028 . S
O76 C82 1.247 . S
O77 Zn73 2.035 . S
O77 C82 1.258 . S
O78 C71 1.247 . S
O78 Zn75 2.028 . S
O79 C71 1.258 . S
O79 Zn73 2.035 . S
O80 Zn73 2.028 . S
O80 C83 1.247 . S
O81 Zn75 2.035 . S
O81 C83 1.258 . S
C82 O76 1.247 . S
C82 O77 1.258 . S
C83 O80 1.247 . S
C83 O81 1.258 . S
C84 O86 1.247 . S
C84 O88 1.258 . S
C85 O92 1.247 . S
C85 O93 1.258 . S
O86 C84 1.247 . S
O86 Zn87 2.028 . S
Zn87 O86 2.028 . S
Zn87 O91 2.035 . S
Zn87 O93 2.035 . S
Zn87 O94 2.028 . S
O88 C84 1.258 . S
O88 Zn89 2.035 . S
Zn89 O88 2.035 . S
Zn89 O90 2.028 . S
Zn89 O92 2.028 . S
Zn89 O95 2.035 . S
O90 Zn89 2.028 . S
O90 C96 1.247 . S
O91 Zn87 2.035 . S
O91 C96 1.258 . S
O92 C85 1.247 . S
O92 Zn89 2.028 . S
O93 C85 1.258 . S
O93 Zn87 2.035 . S
O94 Zn87 2.028 . S
O94 C97 1.247 . S
O95 Zn89 2.035 . S
O95 C97 1.258 . S
C96 O90 1.247 . S
C96 O91 1.258 . S
C97 O94 1.247 . S
C97 O95 1.258 . S
C98 O100 1.247 . S
C98 O102 1.258 1_655 S
C99 O106 1.247 . S
C99 O107 1.258 1_455 S
O100 C98 1.247 . S
O100 Zn101 2.028 . S
Zn101 O100 2.028 . S
Zn101 O105 2.035 . S
Zn101 O107 2.035 . S
Zn101 O108 2.028 . S
O102 C98 1.258 1_455 S
O102 Zn103 2.035 . S
Zn103 O102 2.035 . S
Zn103 O104 2.028 . S
Zn103 O106 2.028 . S
Zn103 O109 2.035 . S
O104 Zn103 2.028 . S
O104 C110 1.247 1_455 S
O105 Zn101 2.035 . S
O105 C110 1.258 . S
O106 C99 1.247 . S
O106 Zn103 2.028 . S
O107 C99 1.258 1_655 S
O107 Zn101 2.035 . S
O108 Zn101 2.028 . S
O108 C111 1.205 1_655 S
O109 Zn103 2.035 . S
O109 C111 1.300 . S
C110 O104 1.247 1_655 S
C110 O105 1.258 . S
C111 O108 1.205 1_455 S
C111 O109 1.300 . S
C112 O114 1.247 1_565 S
C112 O116 1.258 . S
C113 O120 1.247 1_545 S
C113 O121 1.258 . S
O114 C112 1.247 1_545 S
O114 Zn115 2.028 . S
Zn115 O114 2.028 . S
Zn115 O119 2.035 . S
Zn115 O121 2.035 . S
Zn115 O122 2.028 . S
O116 C112 1.258 . S
O116 Zn117 2.035 . S
Zn117 O116 2.035 . S
Zn117 O118 2.028 . S
Zn117 O120 2.028 . S
Zn117 O123 2.035 . S
O118 Zn117 2.028 . S
O118 C124 1.247 . S
O119 Zn115 2.035 . S
O119 C124 1.258 1_545 S
O120 C113 1.247 1_565 S
O120 Zn117 2.028 . S
O121 C113 1.258 . S
O121 Zn115 2.035 . S
O122 Zn115 2.028 . S
O122 C125 1.247 . S
O123 Zn117 2.035 . S
O123 C125 1.258 1_565 S
C124 O118 1.247 . S
C124 O119 1.258 1_565 S
C125 O122 1.247 . S
C125 O123 1.258 1_545 S
C126 O128 1.247 . S
C126 O130 1.258 . S
C127 O134 1.247 . S
C127 O135 1.258 . S
O128 C126 1.247 . S
O128 Zn129 2.028 . S
Zn129 O128 2.028 . S
Zn129 O133 2.035 . S
Zn129 O135 2.035 . S
Zn129 O136 2.028 . S
O130 C126 1.258 . S
O130 Zn131 2.035 . S
Zn131 O130 2.035 . S
Zn131 O132 2.028 . S
Zn131 O134 2.028 . S
Zn131 O137 2.035 . S
O132 Zn131 2.028 . S
O132 C138 1.247 . S
O133 Zn129 2.035 . S
O133 C138 1.258 . S
O134 C127 1.247 . S
O134 Zn131 2.028 . S
O135 C127 1.258 . S
O135 Zn129 2.035 . S
O136 Zn129 2.028 . S
O136 C139 1.247 . S
O137 Zn131 2.035 . S
O137 C139 1.258 . S
C138 O132 1.247 . S
C138 O133 1.258 . S
C139 O136 1.247 . S
C139 O137 1.258 . S
C140 O142 1.247 . S
C140 O144 1.258 . S
C141 O148 1.247 . S
C141 O149 1.258 . S
O142 C140 1.247 . S
O142 Zn143 2.028 . S
Zn143 O142 2.028 . S
Zn143 O147 2.035 . S
Zn143 O149 2.035 . S
Zn143 O150 2.028 . S
O144 C140 1.258 . S
O144 Zn145 2.035 . S
Zn145 O144 2.035 . S
Zn145 O146 2.028 . S
Zn145 O148 2.028 . S
Zn145 O151 2.035 . S
O146 Zn145 2.028 . S
O146 C152 1.247 . S
O147 Zn143 2.035 . S
O147 C152 1.258 . S
O148 C141 1.247 . S
O148 Zn145 2.028 . S
O149 C141 1.258 . S
O149 Zn143 2.035 . S
O150 Zn143 2.028 . S
O150 C153 1.247 . S
O151 Zn145 2.035 . S
O151 C153 1.258 . S
C152 O146 1.247 . S
C152 O147 1.258 . S
C153 O150 1.247 . S
C153 O151 1.258 . S
C154 O156 1.247 . S
C154 O158 1.258 1_455 S
C155 O162 1.247 . S
C155 O163 1.258 1_655 S
O156 C154 1.247 . S
O156 Zn157 2.028 . S
Zn157 O156 2.028 . S
Zn157 O161 2.035 . S
Zn157 O163 2.035 . S
Zn157 O164 2.028 . S
O158 C154 1.258 1_655 S
O158 Zn159 2.035 . S
Zn159 O158 2.035 . S
Zn159 O160 2.028 . S
Zn159 O162 2.028 . S
Zn159 O165 2.035 . S
O160 Zn159 2.028 . S
O160 C166 1.221 1_655 S
O161 Zn157 2.035 . S
O161 C166 1.284 . S
O162 C155 1.247 . S
O162 Zn159 2.028 . S
O163 C155 1.258 1_455 S
O163 Zn157 2.035 . S
O164 Zn157 2.028 . S
O164 C167 1.211 1_455 S
O165 Zn159 2.035 . S
O165 C167 1.295 . S
C166 O160 1.221 1_455 S
C166 O161 1.284 . S
C167 O164 1.211 1_655 S
C167 O165 1.295 . S
C168 O170 1.292 . S
C168 O172 1.215 1_545 S
C169 O176 1.281 . S
C169 O177 1.225 1_565 S
O170 C168 1.292 . S
O170 Zn171 2.028 . S
Zn171 O170 2.028 . S
Zn171 O175 2.035 . S
Zn171 O177 2.035 . S
Zn171 O178 2.028 . S
O172 C168 1.215 1_565 S
O172 Zn173 2.035 . S
Zn173 O172 2.035 . S
Zn173 O174 2.028 . S
Zn173 O176 2.028 . S
Zn173 O179 2.035 . S
O174 Zn173 2.028 . S
O174 C180 1.247 1_565 S
O175 Zn171 2.035 . S
O175 C180 1.258 . S
O176 C169 1.281 . S
O176 Zn173 2.028 . S
O177 C169 1.225 1_545 S
O177 Zn171 2.035 . S
O178 Zn171 2.028 . S
O178 C181 1.247 1_545 S
O179 Zn173 2.035 . S
O179 C181 1.258 . S
C180 O174 1.247 1_545 S
C180 O175 1.258 . S
C181 O178 1.247 1_565 S
C181 O179 1.258 . S
C182 O184 1.247 . S
C182 O186 1.258 . S
C183 O190 1.247 . S
C183 O191 1.258 . S
O184 C182 1.247 . S
O184 Zn185 2.028 . S
Zn185 O184 2.028 . S
Zn185 O189 2.035 . S
Zn185 O191 2.035 . S
Zn185 O192 2.028 . S
O186 C182 1.258 . S
O186 Zn187 2.035 . S
Zn187 O186 2.035 . S
Zn187 O188 2.028 . S
Zn187 O190 2.028 . S
Zn187 O193 2.035 . S
O188 Zn187 2.028 . S
O188 C194 1.247 . S
O189 Zn185 2.035 . S
O189 C194 1.258 . S
O190 C183 1.247 . S
O190 Zn187 2.028 . S
O191 C183 1.258 . S
O191 Zn185 2.035 . S
O192 Zn185 2.028 . S
O192 C195 1.247 . S
O193 Zn187 2.035 . S
O193 C195 1.258 . S
C194 O188 1.247 . S
C194 O189 1.258 . S
C195 O192 1.247 . S
C195 O193 1.258 . S
C196 O198 1.247 . S
C196 O200 1.258 . S
C197 O204 1.247 . S
C197 O205 1.258 . S
O198 C196 1.247 . S
O198 Zn199 2.028 . S
Zn199 O198 2.028 . S
Zn199 O203 2.035 . S
Zn199 O205 2.035 . S
Zn199 O206 2.028 . S
O200 C196 1.258 . S
O200 Zn201 2.035 . S
Zn201 O200 2.035 . S
Zn201 O202 2.028 . S
Zn201 O204 2.028 . S
Zn201 O207 2.035 . S
O202 Zn201 2.028 . S
O202 C208 1.247 . S
O203 Zn199 2.035 . S
O203 C208 1.258 . S
O204 C197 1.247 . S
O204 Zn201 2.028 . S
O205 C197 1.258 . S
O205 Zn199 2.035 . S
O206 Zn199 2.028 . S
O206 C209 1.247 . S
O207 Zn201 2.035 . S
O207 C209 1.258 . S
C208 O202 1.247 . S
C208 O203 1.258 . S
C209 O206 1.247 . S
C209 O207 1.258 . S
C210 O212 1.247 . S
C210 O214 1.258 1_655 S
C211 O218 1.247 . S
C211 O219 1.258 1_455 S
O212 C210 1.247 . S
O212 Zn213 2.028 . S
Zn213 O212 2.028 . S
Zn213 O217 2.035 . S
Zn213 O219 2.035 . S
Zn213 O220 2.028 . S
O214 C210 1.258 1_455 S
O214 Zn215 2.035 . S
Zn215 O214 2.035 . S
Zn215 O216 2.028 . S
Zn215 O218 2.028 . S
Zn215 O221 2.035 . S
O216 Zn215 2.028 . S
O216 C222 1.205 1_455 S
O217 Zn213 2.035 . S
O217 C222 1.300 . S
O218 C211 1.247 . S
O218 Zn215 2.028 . S
O219 C211 1.258 1_655 S
O219 Zn213 2.035 . S
O220 Zn213 2.028 . S
O220 C223 1.247 1_655 S
O221 Zn215 2.035 . S
O221 C223 1.258 . S
C222 O216 1.205 1_655 S
C222 O217 1.300 . S
C223 O220 1.247 1_455 S
C223 O221 1.258 . S
H224 C232 0.929 . S
H225 C234 0.930 . S
H226 C236 0.930 . S
H227 C239 0.929 . S
H228 C242 0.930 . S
H229 C244 0.960 . S
H230 C244 0.960 . S
H231 C244 0.960 . S
C232 H224 0.929 . S
C232 C233 1.377 . S
C232 C234 1.384 . S
C233 C232 1.377 . S
C233 C239 1.390 . S
C234 H225 0.930 . S
C234 C232 1.384 . S
C234 C235 1.372 . S
C235 C234 1.372 . S
C235 C236 1.400 . S
C235 C240 1.490 . S
C236 H226 0.930 . S
C236 C235 1.400 . S
C236 C239 1.386 . S
H237 C253 0.930 1_565 S
H238 C254 0.931 . S
C239 H227 0.929 . S
C239 C233 1.390 . S
C239 C236 1.386 . S
C240 C235 1.490 . S
C240 C242 1.395 . S
C240 C243 1.403 . S
H241 C247 0.930 . S
C242 H228 0.930 . S
C242 C240 1.395 . S
C242 C245 1.403 . S
C243 C240 1.403 . S
C243 C244 1.524 . S
C243 C247 1.400 . S
C244 H229 0.960 . S
C244 H230 0.960 . S
C244 H231 0.960 . S
C244 C243 1.524 . S
C245 C242 1.403 . S
C245 C246 1.392 . S
C245 C249 1.495 . S
C246 C245 1.392 . S
C246 C247 1.385 . S
C246 C248 1.478 . S
C247 H241 0.930 . S
C247 C243 1.400 . S
C247 C246 1.385 . S
C248 C246 1.478 . S
C248 C250 1.381 . S
C248 C254 1.383 . S
C249 C245 1.495 . S
C249 H255 0.959 . S
C249 H256 0.961 . S
C249 H257 0.960 . S
C250 C248 1.381 . S
C250 C251 1.394 . S
C250 H258 0.930 . S
C251 C250 1.394 . S
C251 C252 1.383 . S
C251 H259 0.929 . S
C252 C251 1.383 . S
C252 C253 1.377 . S
C253 H237 0.930 1_545 S
C253 C252 1.377 . S
C253 C254 1.379 . S
C254 H238 0.931 . S
C254 C248 1.383 . S
C254 C253 1.379 . S
H255 C249 0.959 . S
H256 C249 0.961 . S
H257 C249 0.960 . S
H258 C250 0.930 . S
H259 C251 0.929 . S
H260 C268 0.929 . S
H261 C270 0.930 . S
H262 C272 0.930 . S
H263 C275 0.929 . S
H264 C278 0.930 . S
H265 C280 0.960 . S
H266 C280 0.960 . S
H267 C280 0.960 . S
C268 H260 0.929 . S
C268 C269 1.377 . S
C268 C270 1.384 . S
C269 C268 1.377 . S
C269 C275 1.390 . S
C270 H261 0.930 . S
C270 C268 1.384 . S
C270 C271 1.372 . S
C271 C270 1.372 . S
C271 C272 1.400 . S
C271 C276 1.490 . S
C272 H262 0.930 . S
C272 C271 1.400 . S
C272 C275 1.386 . S
H273 C289 0.930 . S
H274 C290 0.931 . S
C275 H263 0.929 . S
C275 C269 1.390 . S
C275 C272 1.386 . S
C276 C271 1.490 . S
C276 C278 1.395 . S
C276 C279 1.403 . S
H277 C283 0.930 . S
C278 H264 0.930 . S
C278 C276 1.395 . S
C278 C281 1.403 . S
C279 C276 1.403 . S
C279 C280 1.524 . S
C279 C283 1.400 . S
C280 H265 0.960 . S
C280 H266 0.960 . S
C280 H267 0.960 . S
C280 C279 1.524 . S
C281 C278 1.403 . S
C281 C282 1.392 . S
C281 C285 1.495 . S
C282 C281 1.392 . S
C282 C283 1.385 . S
C282 C284 1.478 . S
C283 H277 0.930 . S
C283 C279 1.400 . S
C283 C282 1.385 . S
C284 C282 1.478 . S
C284 C286 1.381 . S
C284 C290 1.383 . S
C285 C281 1.495 . S
C285 H291 0.959 . S
C285 H292 0.961 . S
C285 H293 0.960 . S
C286 C284 1.381 . S
C286 C287 1.394 . S
C286 H294 0.930 . S
C287 C286 1.394 . S
C287 C288 1.383 . S
C287 H295 0.929 . S
C288 C287 1.383 . S
C288 C289 1.377 . S
C289 H273 0.930 . S
C289 C288 1.377 . S
C289 C290 1.379 . S
C290 H274 0.931 . S
C290 C284 1.383 . S
C290 C289 1.379 . S
H291 C285 0.959 . S
H292 C285 0.961 . S
H293 C285 0.960 . S
H294 C286 0.930 . S
H295 C287 0.929 . S
H296 C304 0.929 . S
H297 C306 0.930 . S
H298 C308 0.930 . S
H299 C311 0.929 . S
H300 C314 0.930 . S
H301 C316 0.960 . S
H302 C316 0.960 . S
H303 C316 0.960 . S
C304 H296 0.929 . S
C304 C305 1.377 . S
C304 C306 1.384 . S
C305 C304 1.377 . S
C305 C311 1.390 . S
C306 H297 0.930 . S
C306 C304 1.384 . S
C306 C307 1.372 . S
C307 C306 1.372 . S
C307 C308 1.400 . S
C307 C312 1.490 . S
C308 H298 0.930 . S
C308 C307 1.400 . S
C308 C311 1.386 . S
H309 C325 0.930 1_455 S
H310 C326 0.931 . S
C311 H299 0.929 . S
C311 C305 1.390 . S
C311 C308 1.386 . S
C312 C307 1.490 . S
C312 C314 1.395 . S
C312 C315 1.403 . S
H313 C319 0.930 . S
C314 H300 0.930 . S
C314 C312 1.395 . S
C314 C317 1.403 . S
C315 C312 1.403 . S
C315 C316 1.524 . S
C315 C319 1.400 . S
C316 H301 0.960 . S
C316 H302 0.960 . S
C316 H303 0.960 . S
C316 C315 1.524 . S
C317 C314 1.403 . S
C317 C318 1.392 . S
C317 C321 1.495 . S
C318 C317 1.392 . S
C318 C319 1.385 . S
C318 C320 1.478 . S
C319 H313 0.930 . S
C319 C315 1.400 . S
C319 C318 1.385 . S
C320 C318 1.478 . S
C320 C322 1.381 . S
C320 C326 1.383 . S
C321 C317 1.495 . S
C321 H327 0.959 . S
C321 H328 0.961 . S
C321 H329 0.960 . S
C322 C320 1.381 . S
C322 C323 1.394 . S
C322 H330 0.930 . S
C323 C322 1.394 . S
C323 C324 1.383 . S
C323 H331 0.929 . S
C324 C323 1.383 . S
C324 C325 1.377 . S
C325 H309 0.930 1_655 S
C325 C324 1.377 . S
C325 C326 1.379 . S
C326 H310 0.931 . S
C326 C320 1.383 . S
C326 C325 1.379 . S
H327 C321 0.959 . S
H328 C321 0.961 . S
H329 C321 0.960 . S
H330 C322 0.930 . S
H331 C323 0.929 . S
H332 C340 0.929 . S
H333 C342 0.930 . S
H334 C344 0.930 . S
H335 C347 0.929 1_655 S
H336 C350 0.930 . S
H337 C352 0.960 . S
H338 C352 0.960 . S
H339 C352 0.960 . S
C340 H332 0.929 . S
C340 C341 1.377 . S
C340 C342 1.384 . S
C341 C340 1.377 . S
C341 C347 1.390 . S
C342 H333 0.930 . S
C342 C340 1.384 . S
C342 C343 1.372 . S
C343 C342 1.372 . S
C343 C344 1.400 . S
C343 C348 1.490 . S
C344 H334 0.930 . S
C344 C343 1.400 . S
C344 C347 1.386 . S
H345 C361 0.930 . S
H346 C362 0.931 . S
C347 H335 0.929 1_455 S
C347 C341 1.390 . S
C347 C344 1.386 . S
C348 C343 1.490 . S
C348 C350 1.395 . S
C348 C351 1.403 . S
H349 C355 0.930 . S
C350 H336 0.930 . S
C350 C348 1.395 . S
C350 C353 1.403 . S
C351 C348 1.403 . S
C351 C352 1.524 . S
C351 C355 1.400 . S
C352 H337 0.960 . S
C352 H338 0.960 . S
C352 H339 0.960 . S
C352 C351 1.524 . S
C353 C350 1.403 . S
C353 C354 1.392 . S
C353 C357 1.495 . S
C354 C353 1.392 . S
C354 C355 1.385 . S
C354 C356 1.478 . S
C355 H349 0.930 . S
C355 C351 1.400 . S
C355 C354 1.385 . S
C356 C354 1.478 . S
C356 C358 1.381 . S
C356 C362 1.383 . S
C357 C353 1.495 . S
C357 H363 0.959 . S
C357 H364 0.961 . S
C357 H365 0.960 . S
C358 C356 1.381 . S
C358 C359 1.394 . S
C358 H366 0.930 . S
C359 C358 1.394 . S
C359 C360 1.383 . S
C359 H367 0.929 . S
C360 C359 1.383 . S
C360 C361 1.377 . S
C361 H345 0.930 . S
C361 C360 1.377 . S
C361 C362 1.379 . S
C362 H346 0.931 . S
C362 C356 1.383 . S
C362 C361 1.379 . S
H363 C357 0.959 . S
H364 C357 0.961 . S
H365 C357 0.960 . S
H366 C358 0.930 . S
H367 C359 0.929 . S
H368 C376 0.929 1_545 S
H369 C378 0.930 . S
H370 C380 0.930 . S
H371 C383 0.929 . S
H372 C386 0.930 . S
H373 C388 0.960 . S
H374 C388 0.960 . S
H375 C388 0.960 . S
C376 H368 0.929 1_565 S
C376 C377 1.377 . S
C376 C378 1.384 . S
C377 C376 1.377 . S
C377 C383 1.390 . S
C378 H369 0.930 . S
C378 C376 1.384 . S
C378 C379 1.372 . S
C379 C378 1.372 . S
C379 C380 1.400 . S
C379 C384 1.490 . S
C380 H370 0.930 . S
C380 C379 1.400 . S
C380 C383 1.386 . S
H381 C397 0.930 . S
H382 C398 0.931 . S
C383 H371 0.929 . S
C383 C377 1.390 . S
C383 C380 1.386 . S
C384 C379 1.490 . S
C384 C386 1.395 . S
C384 C387 1.403 . S
H385 C391 0.930 . S
C386 H372 0.930 . S
C386 C384 1.395 . S
C386 C389 1.403 . S
C387 C384 1.403 . S
C387 C388 1.524 . S
C387 C391 1.400 . S
C388 H373 0.960 . S
C388 H374 0.960 . S
C388 H375 0.960 . S
C388 C387 1.524 . S
C389 C386 1.403 . S
C389 C390 1.392 . S
C389 C393 1.495 . S
C390 C389 1.392 . S
C390 C391 1.385 . S
C390 C392 1.478 . S
C391 H385 0.930 . S
C391 C387 1.400 . S
C391 C390 1.385 . S
C392 C390 1.478 . S
C392 C394 1.381 . S
C392 C398 1.383 . S
C393 C389 1.495 . S
C393 H399 0.959 . S
C393 H400 0.961 . S
C393 H401 0.960 . S
C394 C392 1.381 . S
C394 C395 1.394 . S
C394 H402 0.930 . S
C395 C394 1.394 . S
C395 C396 1.383 . S
C395 H403 0.929 . S
C396 C395 1.383 . S
C396 C397 1.377 . S
C397 H381 0.930 . S
C397 C396 1.377 . S
C397 C398 1.379 . S
C398 H382 0.931 . S
C398 C392 1.383 . S
C398 C397 1.379 . S
H399 C393 0.959 . S
H400 C393 0.961 . S
H401 C393 0.960 . S
H402 C394 0.930 . S
H403 C395 0.929 . S
H404 C412 0.929 . S
H405 C414 0.930 . S
H406 C416 0.930 . S
H407 C419 0.929 . S
H408 C422 0.930 . S
H409 C424 0.960 . S
H410 C424 0.960 . S
H411 C424 0.960 . S
C412 H404 0.929 . S
C412 C413 1.377 . S
C412 C414 1.384 . S
C413 C412 1.377 . S
C413 C419 1.390 . S
C414 H405 0.930 . S
C414 C412 1.384 . S
C414 C415 1.372 . S
C415 C414 1.372 . S
C415 C416 1.400 . S
C415 C420 1.490 . S
C416 H406 0.930 . S
C416 C415 1.400 . S
C416 C419 1.386 . S
H417 C433 0.930 . S
H418 C434 0.931 . S
C419 H407 0.929 . S
C419 C413 1.390 . S
C419 C416 1.386 . S
C420 C415 1.490 . S
C420 C422 1.395 . S
C420 C423 1.403 . S
H421 C427 0.930 . S
C422 H408 0.930 . S
C422 C420 1.395 . S
C422 C425 1.403 . S
C423 C420 1.403 . S
C423 C424 1.524 . S
C423 C427 1.400 . S
C424 H409 0.960 . S
C424 H410 0.960 . S
C424 H411 0.960 . S
C424 C423 1.524 . S
C425 C422 1.403 . S
C425 C426 1.392 . S
C425 C429 1.495 . S
C426 C425 1.392 . S
C426 C427 1.385 . S
C426 C428 1.478 . S
C427 H421 0.930 . S
C427 C423 1.400 . S
C427 C426 1.385 . S
C428 C426 1.478 . S
C428 C430 1.381 . S
C428 C434 1.383 . S
C429 C425 1.495 . S
C429 H435 0.959 . S
C429 H436 0.961 . S
C429 H437 0.960 . S
C430 C428 1.381 . S
C430 C431 1.394 . S
C430 H438 0.930 . S
C431 C430 1.394 . S
C431 C432 1.383 . S
C431 H439 0.929 . S
C432 C431 1.383 . S
C432 C433 1.377 . S
C433 H417 0.930 . S
C433 C432 1.377 . S
C433 C434 1.379 . S
C434 H418 0.931 . S
C434 C428 1.383 . S
C434 C433 1.379 . S
H435 C429 0.959 . S
H436 C429 0.961 . S
H437 C429 0.960 . S
H438 C430 0.930 . S
H439 C431 0.929 . S
H440 C448 0.929 . S
H441 C450 0.930 . S
H442 C452 0.930 . S
H443 C455 0.929 . S
H444 C458 0.930 . S
H445 C460 0.960 . S
H446 C460 0.960 . S
H447 C460 0.960 . S
C448 H440 0.929 . S
C448 C449 1.377 . S
C448 C450 1.384 . S
C449 C448 1.377 . S
C449 C455 1.390 . S
C450 H441 0.930 . S
C450 C448 1.384 . S
C450 C451 1.372 . S
C451 C450 1.372 . S
C451 C452 1.400 . S
C451 C456 1.490 . S
C452 H442 0.930 . S
C452 C451 1.400 . S
C452 C455 1.386 . S
H453 C469 0.930 . S
H454 C470 0.931 . S
C455 H443 0.929 . S
C455 C449 1.390 . S
C455 C452 1.386 . S
C456 C451 1.490 . S
C456 C458 1.395 . S
C456 C459 1.403 . S
H457 C463 0.930 . S
C458 H444 0.930 . S
C458 C456 1.395 . S
C458 C461 1.403 . S
C459 C456 1.403 . S
C459 C460 1.524 . S
C459 C463 1.400 . S
C460 H445 0.960 . S
C460 H446 0.960 . S
C460 H447 0.960 . S
C460 C459 1.524 . S
C461 C458 1.403 . S
C461 C462 1.392 . S
C461 C465 1.495 . S
C462 C461 1.392 . S
C462 C463 1.385 . S
C462 C464 1.478 . S
C463 H457 0.930 . S
C463 C459 1.400 . S
C463 C462 1.385 . S
C464 C462 1.478 . S
C464 C466 1.381 . S
C464 C470 1.383 . S
C465 C461 1.495 . S
C465 H471 0.959 . S
C465 H472 0.961 . S
C465 H473 0.960 . S
C466 C464 1.381 . S
C466 C467 1.394 . S
C466 H474 0.930 . S
C467 C466 1.394 . S
C467 C468 1.383 . S
C467 H475 0.929 . S
C468 C467 1.383 . S
C468 C469 1.377 . S
C469 H453 0.930 . S
C469 C468 1.377 . S
C469 C470 1.379 . S
C470 H454 0.931 . S
C470 C464 1.383 . S
C470 C469 1.379 . S
H471 C465 0.959 . S
H472 C465 0.961 . S
H473 C465 0.960 . S
H474 C466 0.930 . S
H475 C467 0.929 . S
H476 C484 0.929 1_455 S
H477 C486 0.930 . S
H478 C488 0.930 . S
H479 C491 0.929 . S
H480 C494 0.930 . S
H481 C496 0.960 . S
H482 C496 0.960 . S
H483 C496 0.960 . S
C484 H476 0.929 1_655 S
C484 C485 1.377 . S
C484 C486 1.384 . S
C485 C484 1.377 . S
C485 C491 1.390 . S
C486 H477 0.930 . S
C486 C484 1.384 . S
C486 C487 1.372 . S
C487 C486 1.372 . S
C487 C488 1.400 . S
C487 C492 1.490 . S
C488 H478 0.930 . S
C488 C487 1.400 . S
C488 C491 1.386 . S
H489 C505 0.930 . S
H490 C506 0.931 . S
C491 H479 0.929 . S
C491 C485 1.390 . S
C491 C488 1.386 . S
C492 C487 1.490 . S
C492 C494 1.395 . S
C492 C495 1.403 . S
H493 C499 0.930 . S
C494 H480 0.930 . S
C494 C492 1.395 . S
C494 C497 1.403 . S
C495 C492 1.403 . S
C495 C496 1.524 . S
C495 C499 1.400 . S
C496 H481 0.960 . S
C496 H482 0.960 . S
C496 H483 0.960 . S
C496 C495 1.524 . S
C497 C494 1.403 . S
C497 C498 1.392 . S
C497 C501 1.495 . S
C498 C497 1.392 . S
C498 C499 1.385 . S
C498 C500 1.478 . S
C499 H493 0.930 . S
C499 C495 1.400 . S
C499 C498 1.385 . S
C500 C498 1.478 . S
C500 C502 1.381 . S
C500 C506 1.383 . S
C501 C497 1.495 . S
C501 H507 0.959 . S
C501 H508 0.961 . S
C501 H509 0.960 . S
C502 C500 1.381 . S
C502 C503 1.417 . S
C502 H510 0.930 . S
C503 C502 1.417 . S
C503 C504 1.398 . S
C503 H511 0.893 1_545 S
C504 C503 1.398 . S
C504 C505 1.377 . S
C505 H489 0.930 . S
C505 C504 1.377 . S
C505 C506 1.379 . S
C506 H490 0.931 . S
C506 C500 1.383 . S
C506 C505 1.379 . S
H507 C501 0.959 . S
H508 C501 0.961 . S
H509 C501 0.960 . S
H510 C502 0.930 . S
H511 C503 0.893 1_565 S
H512 C520 0.929 . S
H513 C522 0.930 . S
H514 C524 0.930 . S
H515 C527 0.943 1_554 S
H516 C530 0.930 . S
H517 C532 0.960 . S
H518 C532 0.960 . S
H519 C532 0.960 . S
C520 H512 0.929 . S
C520 C521 1.377 . S
C520 C522 1.384 . S
C521 C520 1.377 . S
C521 C527 1.375 1_565 S
C522 H513 0.930 . S
C522 C520 1.384 . S
C522 C523 1.372 . S
C523 C522 1.372 . S
C523 C524 1.400 1_565 S
C523 C528 1.490 . S
C524 H514 0.930 . S
C524 C523 1.400 1_545 S
C524 C527 1.387 . S
H525 C541 0.930 . S
H526 C542 0.931 . S
C527 H515 0.943 1_556 S
C527 C521 1.375 1_545 S
C527 C524 1.387 . S
C528 C523 1.490 . S
C528 C530 1.395 . S
C528 C531 1.403 . S
H529 C535 0.930 . S
C530 H516 0.930 . S
C530 C528 1.395 . S
C530 C533 1.403 . S
C531 C528 1.403 . S
C531 C532 1.524 . S
C531 C535 1.400 . S
C532 H517 0.960 . S
C532 H518 0.960 . S
C532 H519 0.960 . S
C532 C531 1.524 . S
C533 C530 1.403 . S
C533 C534 1.392 . S
C533 C537 1.495 1_565 S
C534 C533 1.392 . S
C534 C535 1.385 . S
C534 C536 1.478 . S
C535 H529 0.930 . S
C535 C531 1.400 . S
C535 C534 1.385 . S
C536 C534 1.478 . S
C536 C538 1.381 . S
C536 C542 1.383 1_565 S
C537 C533 1.495 1_545 S
C537 H543 0.959 . S
C537 H544 0.961 . S
C537 H545 0.960 1_545 S
C538 C536 1.381 . S
C538 C539 1.394 . S
C538 H546 0.930 . S
C539 C538 1.394 . S
C539 C540 1.388 . S
C539 H547 0.929 . S
C540 C539 1.388 . S
C540 C541 1.372 1_565 S
C541 H525 0.930 . S
C541 C540 1.372 1_545 S
C541 C542 1.379 . S
C542 H526 0.931 . S
C542 C536 1.383 1_545 S
C542 C541 1.379 . S
H543 C537 0.959 . S
H544 C537 0.961 . S
H545 C537 0.960 1_565 S
H546 C538 0.930 . S
H547 C539 0.929 . S
H548 C556 0.929 . S
H549 C558 0.930 . S
H550 C560 0.930 . S
H551 C563 0.929 . S
H552 C566 0.930 . S
H553 C568 0.960 . S
H554 C568 0.960 . S
H555 C568 0.960 . S
C556 H548 0.929 . S
C556 C557 1.377 . S
C556 C558 1.384 . S
C557 C556 1.377 . S
C557 C563 1.390 . S
C558 H549 0.930 . S
C558 C556 1.384 . S
C558 C559 1.372 . S
C559 C558 1.372 . S
C559 C560 1.400 . S
C559 C564 1.490 . S
C560 H550 0.930 . S
C560 C559 1.400 . S
C560 C563 1.386 . S
H561 C577 0.930 . S
H562 C578 0.931 . S
C563 H551 0.929 . S
C563 C557 1.390 . S
C563 C560 1.386 . S
C564 C559 1.490 . S
C564 C566 1.395 . S
C564 C567 1.403 . S
H565 C571 0.930 . S
C566 H552 0.930 . S
C566 C564 1.395 . S
C566 C569 1.403 . S
C567 C564 1.403 . S
C567 C568 1.524 . S
C567 C571 1.400 . S
C568 H553 0.960 . S
C568 H554 0.960 . S
C568 H555 0.960 . S
C568 C567 1.524 . S
C569 C566 1.403 . S
C569 C570 1.392 . S
C569 C573 1.495 . S
C570 C569 1.392 . S
C570 C571 1.385 . S
C570 C572 1.478 . S
C571 H565 0.930 . S
C571 C567 1.400 . S
C571 C570 1.385 . S
C572 C570 1.478 . S
C572 C574 1.381 . S
C572 C578 1.383 . S
C573 C569 1.495 . S
C573 H579 0.959 . S
C573 H580 0.961 . S
C573 H581 0.960 . S
C574 C572 1.381 . S
C574 C575 1.394 . S
C574 H582 0.930 . S
C575 C574 1.394 . S
C575 C576 1.383 . S
C575 H583 0.929 1_556 S
C576 C575 1.383 . S
C576 C577 1.377 . S
C577 H561 0.930 . S
C577 C576 1.377 . S
C577 C578 1.379 . S
C578 H562 0.931 . S
C578 C572 1.383 . S
C578 C577 1.379 . S
H579 C573 0.959 . S
H580 C573 0.961 . S
H581 C573 0.960 . S
H582 C574 0.930 . S
H583 C575 0.929 1_554 S
H584 C592 0.929 . S
H585 C594 0.930 . S
H586 C596 0.930 . S
H587 C599 0.929 1_554 S
H588 C602 0.930 . S
H589 C604 0.960 . S
H590 C604 0.960 . S
H591 C604 0.960 . S
C592 H584 0.929 . S
C592 C593 1.377 . S
C592 C594 1.384 . S
C593 C592 1.377 . S
C593 C599 1.390 . S
C594 H585 0.930 . S
C594 C592 1.384 . S
C594 C595 1.372 . S
C595 C594 1.372 . S
C595 C596 1.400 . S
C595 C600 1.490 . S
C596 H586 0.930 . S
C596 C595 1.400 . S
C596 C599 1.386 . S
H597 C613 0.930 . S
H598 C614 0.931 . S
C599 H587 0.929 1_556 S
C599 C593 1.390 . S
C599 C596 1.386 . S
C600 C595 1.490 . S
C600 C602 1.395 . S
C600 C603 1.403 . S
H601 C607 0.930 . S
C602 H588 0.930 . S
C602 C600 1.395 . S
C602 C605 1.403 . S
C603 C600 1.403 . S
C603 C604 1.524 . S
C603 C607 1.400 . S
C604 H589 0.960 . S
C604 H590 0.960 . S
C604 H591 0.960 . S
C604 C603 1.524 . S
C605 C602 1.403 . S
C605 C606 1.392 . S
C605 C609 1.495 . S
C606 C605 1.392 . S
C606 C607 1.385 . S
C606 C608 1.478 . S
C607 H601 0.930 . S
C607 C603 1.400 . S
C607 C606 1.385 . S
C608 C606 1.478 . S
C608 C610 1.381 . S
C608 C614 1.383 . S
C609 C605 1.495 . S
C609 H615 0.959 . S
C609 H616 0.961 . S
C609 H617 0.960 . S
C610 C608 1.381 . S
C610 C611 1.394 . S
C610 H618 0.930 . S
C611 C610 1.394 . S
C611 C612 1.383 . S
C611 H619 0.929 . S
C612 C611 1.383 . S
C612 C613 1.377 . S
C613 H597 0.930 . S
C613 C612 1.377 . S
C613 C614 1.379 . S
C614 H598 0.931 . S
C614 C608 1.383 . S
C614 C613 1.379 . S
H615 C609 0.959 . S
H616 C609 0.961 . S
H617 C609 0.960 . S
H618 C610 0.930 . S
H619 C611 0.929 . S
H620 C628 0.929 . S
H621 C630 0.930 . S
H622 C632 0.930 . S
H623 C635 0.929 . S
H624 C638 0.930 . S
H625 C640 0.960 . S
H626 C640 0.960 . S
H627 C640 0.960 . S
C628 H620 0.929 . S
C628 C629 1.377 . S
C628 C630 1.384 . S
C629 C628 1.377 . S
C629 C635 1.390 1_655 S
C630 H621 0.930 . S
C630 C628 1.384 . S
C630 C631 1.372 . S
C631 C630 1.372 . S
C631 C632 1.400 1_655 S
C631 C636 1.490 . S
C632 H622 0.930 . S
C632 C631 1.400 1_455 S
C632 C635 1.386 . S
H633 C649 0.930 . S
H634 C650 0.931 . S
C635 H623 0.929 . S
C635 C629 1.390 1_455 S
C635 C632 1.386 . S
C636 C631 1.490 . S
C636 C638 1.395 . S
C636 C639 1.403 1_655 S
H637 C643 0.930 . S
C638 H624 0.930 . S
C638 C636 1.395 . S
C638 C641 1.403 . S
C639 C636 1.403 1_455 S
C639 C640 1.524 . S
C639 C643 1.400 . S
C640 H625 0.960 . S
C640 H626 0.960 . S
C640 H627 0.960 . S
C640 C639 1.524 . S
C641 C638 1.403 . S
C641 C642 1.392 . S
C641 C645 1.495 . S
C642 C641 1.392 . S
C642 C643 1.385 1_655 S
C642 C644 1.478 . S
C643 H637 0.930 . S
C643 C639 1.400 . S
C643 C642 1.385 1_455 S
C644 C642 1.478 . S
C644 C646 1.381 . S
C644 C650 1.383 1_655 S
C645 C641 1.495 . S
C645 H651 0.959 . S
C645 H652 0.961 . S
C645 H653 0.960 . S
C646 C644 1.381 . S
C646 C647 1.394 . S
C646 H654 0.930 . S
C647 C646 1.394 . S
C647 C648 1.383 . S
C647 H655 0.929 . S
C648 C647 1.383 . S
C648 C649 1.377 1_655 S
C649 H633 0.930 . S
C649 C648 1.377 1_455 S
C649 C650 1.379 . S
C650 H634 0.931 . S
C650 C644 1.383 1_455 S
C650 C649 1.379 . S
H651 C645 0.959 . S
H652 C645 0.961 . S
H653 C645 0.960 . S
H654 C646 0.930 . S
H655 C647 0.929 . S
H656 C664 0.929 . S
H657 C666 0.930 . S
H658 C668 0.930 . S
H659 C671 0.929 . S
H660 C674 0.930 . S
H661 C676 0.960 . S
H662 C676 0.960 . S
H663 C676 0.960 . S
C664 H656 0.929 . S
C664 C665 1.377 1_565 S
C664 C666 1.384 . S
C665 C664 1.377 1_545 S
C665 C671 1.390 . S
C666 H657 0.930 . S
C666 C664 1.384 . S
C666 C667 1.372 1_565 S
C667 C666 1.372 1_545 S
C667 C668 1.400 . S
C667 C672 1.490 . S
C668 H658 0.930 . S
C668 C667 1.400 . S
C668 C671 1.386 . S
H669 C685 0.930 . S
H670 C686 0.931 . S
C671 H659 0.929 . S
C671 C665 1.390 . S
C671 C668 1.386 . S
C672 C667 1.490 . S
C672 C674 1.395 . S
C672 C675 1.403 . S
H673 C679 0.930 . S
C674 H660 0.930 . S
C674 C672 1.395 . S
C674 C677 1.403 . S
C675 C672 1.403 . S
C675 C676 1.524 . S
C675 C679 1.400 . S
C676 H661 0.960 . S
C676 H662 0.960 . S
C676 H663 0.960 . S
C676 C675 1.524 . S
C677 C674 1.403 . S
C677 C678 1.392 . S
C677 C681 1.495 1_545 S
C678 C677 1.392 . S
C678 C679 1.385 . S
C678 C680 1.478 . S
C679 H673 0.930 . S
C679 C675 1.400 . S
C679 C678 1.385 . S
C680 C678 1.478 . S
C680 C682 1.381 1_545 S
C680 C686 1.383 . S
C681 C677 1.495 1_565 S
C681 H687 0.959 . S
C681 H688 0.961 1_565 S
C681 H689 0.960 . S
C682 C680 1.381 1_565 S
C682 C683 1.394 . S
C682 H690 0.930 . S
C683 C682 1.394 . S
C683 C684 1.367 1_565 S
C683 H691 0.929 . S
C684 C683 1.367 1_545 S
C684 C685 1.394 . S
C685 H669 0.930 . S
C685 C684 1.394 . S
C685 C686 1.379 . S
C686 H670 0.931 . S
C686 C680 1.383 . S
C686 C685 1.379 . S
H687 C681 0.959 . S
H688 C681 0.961 1_545 S
H689 C681 0.960 . S
H690 C682 0.930 . S
H691 C683 0.929 . S
H692 C700 0.929 . S
H693 C702 0.930 . S
H694 C704 0.930 . S
H695 C707 0.929 . S
H696 C710 0.930 . S
H697 C712 0.960 . S
H698 C712 0.960 . S
H699 C712 0.960 . S
C700 H692 0.929 . S
C700 C701 1.377 . S
C700 C702 1.384 . S
C701 C700 1.377 . S
C701 C707 1.390 . S
C702 H693 0.930 . S
C702 C700 1.384 . S
C702 C703 1.372 . S
C703 C702 1.372 . S
C703 C704 1.400 . S
C703 C708 1.490 . S
C704 H694 0.930 . S
C704 C703 1.400 . S
C704 C707 1.386 . S
H705 C721 0.930 . S
H706 C722 0.931 . S
C707 H695 0.929 . S
C707 C701 1.390 . S
C707 C704 1.386 . S
C708 C703 1.490 . S
C708 C710 1.395 . S
C708 C711 1.403 . S
H709 C715 0.930 . S
C710 H696 0.930 . S
C710 C708 1.395 . S
C710 C713 1.403 . S
C711 C708 1.403 . S
C711 C712 1.524 . S
C711 C715 1.400 . S
C712 H697 0.960 . S
C712 H698 0.960 . S
C712 H699 0.960 . S
C712 C711 1.524 . S
C713 C710 1.403 . S
C713 C714 1.392 . S
C713 C717 1.495 . S
C714 C713 1.392 . S
C714 C715 1.385 . S
C714 C716 1.478 . S
C715 H709 0.930 . S
C715 C711 1.400 . S
C715 C714 1.385 . S
C716 C714 1.478 . S
C716 C718 1.381 . S
C716 C722 1.383 . S
C717 C713 1.495 . S
C717 H723 0.959 . S
C717 H724 0.961 . S
C717 H725 0.960 . S
C718 C716 1.381 . S
C718 C719 1.394 . S
C718 H726 0.930 . S
C719 C718 1.394 . S
C719 C720 1.383 . S
C719 H727 0.929 . S
C720 C719 1.383 . S
C720 C721 1.377 . S
C721 H705 0.930 . S
C721 C720 1.377 . S
C721 C722 1.379 . S
C722 H706 0.931 . S
C722 C716 1.383 . S
C722 C721 1.379 . S
H723 C717 0.959 . S
H724 C717 0.961 . S
H725 C717 0.960 . S
H726 C718 0.930 . S
H727 C719 0.929 . S
H728 C736 0.929 . S
H729 C738 0.930 . S
H730 C740 0.930 . S
H731 C743 0.929 . S
H732 C746 0.930 . S
H733 C748 0.960 . S
H734 C748 0.960 . S
H735 C748 0.960 . S
C736 H728 0.929 . S
C736 C737 1.377 . S
C736 C738 1.384 . S
C737 C736 1.377 . S
C737 C743 1.390 . S
C738 H729 0.930 . S
C738 C736 1.384 . S
C738 C739 1.372 . S
C739 C738 1.372 . S
C739 C740 1.400 . S
C739 C744 1.490 . S
C740 H730 0.930 . S
C740 C739 1.400 . S
C740 C743 1.386 . S
H741 C757 0.930 . S
H742 C758 0.931 . S
C743 H731 0.929 . S
C743 C737 1.390 . S
C743 C740 1.386 . S
C744 C739 1.490 . S
C744 C746 1.395 . S
C744 C747 1.403 . S
H745 C751 0.930 . S
C746 H732 0.930 . S
C746 C744 1.395 . S
C746 C749 1.403 . S
C747 C744 1.403 . S
C747 C748 1.524 . S
C747 C751 1.400 . S
C748 H733 0.960 . S
C748 H734 0.960 . S
C748 H735 0.960 . S
C748 C747 1.524 . S
C749 C746 1.403 . S
C749 C750 1.392 . S
C749 C753 1.495 . S
C750 C749 1.392 . S
C750 C751 1.385 . S
C750 C752 1.478 . S
C751 H745 0.930 . S
C751 C747 1.400 . S
C751 C750 1.385 . S
C752 C750 1.478 . S
C752 C754 1.381 . S
C752 C758 1.383 . S
C753 C749 1.495 . S
C753 H759 0.959 . S
C753 H760 0.961 . S
C753 H761 0.960 . S
C754 C752 1.381 . S
C754 C755 1.394 . S
C754 H762 0.930 . S
C755 C754 1.394 . S
C755 C756 1.383 . S
C755 H763 0.929 . S
C756 C755 1.383 . S
C756 C757 1.377 . S
C757 H741 0.930 . S
C757 C756 1.377 . S
C757 C758 1.379 . S
C758 H742 0.931 . S
C758 C752 1.383 . S
C758 C757 1.379 . S
H759 C753 0.959 . S
H760 C753 0.961 . S
H761 C753 0.960 . S
H762 C754 0.930 . S
H763 C755 0.929 . S
H764 C772 0.929 . S
H765 C774 0.930 . S
H766 C776 0.930 . S
H767 C779 0.929 . S
H768 C782 0.922 1_655 S
H769 C784 0.960 . S
H770 C784 0.960 . S
H771 C784 0.960 . S
C772 H764 0.929 . S
C772 C773 1.377 1_655 S
C772 C774 1.384 . S
C773 C772 1.377 1_455 S
C773 C779 1.390 . S
C774 H765 0.930 . S
C774 C772 1.384 . S
C774 C775 1.372 1_655 S
C775 C774 1.372 1_455 S
C775 C776 1.400 . S
C775 C780 1.490 . S
C776 H766 0.930 . S
C776 C775 1.400 . S
C776 C779 1.386 . S
H777 C793 0.930 . S
H778 C794 0.931 . S
C779 H767 0.929 . S
C779 C773 1.390 . S
C779 C776 1.386 . S
C780 C775 1.490 . S
C780 C782 1.395 . S
C780 C783 1.403 . S
H781 C787 0.930 . S
C782 H768 0.922 1_455 S
C782 C780 1.395 . S
C782 C785 1.403 . S
C783 C780 1.403 . S
C783 C784 1.524 . S
C783 C787 1.400 . S
C784 H769 0.960 . S
C784 H770 0.960 . S
C784 H771 0.960 . S
C784 C783 1.524 . S
C785 C782 1.403 . S
C785 C786 1.391 . S
C785 C789 1.496 1_455 S
C786 C785 1.391 . S
C786 C787 1.385 . S
C786 C788 1.478 . S
C787 H781 0.930 . S
C787 C783 1.400 . S
C787 C786 1.385 . S
C788 C786 1.478 . S
C788 C790 1.381 1_455 S
C788 C794 1.383 . S
C789 C785 1.496 1_655 S
C789 H795 0.959 . S
C789 H796 0.961 1_655 S
C789 H797 0.960 . S
C790 C788 1.381 1_655 S
C790 C791 1.394 . S
C790 H798 0.930 . S
C791 C790 1.394 . S
C791 C792 1.363 1_655 S
C791 H799 0.929 . S
C792 C791 1.363 1_455 S
C792 C793 1.399 . S
C793 H777 0.930 . S
C793 C792 1.399 . S
C793 C794 1.379 . S
C794 H778 0.931 . S
C794 C788 1.383 . S
C794 C793 1.379 . S
H795 C789 0.959 . S
H796 C789 0.961 1_455 S
H797 C789 0.960 . S
H798 C790 0.930 . S
H799 C791 0.929 . S
H800 C808 0.929 . S
H801 C810 0.930 . S
H802 C812 0.930 . S
H803 C815 0.929 . S
H804 C818 0.930 . S
H805 C820 0.960 . S
H806 C820 0.960 . S
H807 C820 0.960 . S
C808 H800 0.929 . S
C808 C809 1.422 . S
C808 C810 1.384 . S
C809 C808 1.422 . S
C809 C815 1.349 1_545 S
C810 H801 0.930 . S
C810 C808 1.384 . S
C810 C811 1.372 . S
C811 C810 1.372 . S
C811 C812 1.400 1_545 S
C811 C816 1.490 . S
C812 H802 0.930 . S
C812 C811 1.400 1_565 S
C812 C815 1.386 . S
H813 C829 0.930 . S
H814 C830 0.931 . S
C815 H803 0.929 . S
C815 C809 1.349 1_565 S
C815 C812 1.386 . S
C816 C811 1.490 . S
C816 C818 1.395 . S
C816 C819 1.403 1_545 S
H817 C823 0.953 . S
C818 H804 0.930 . S
C818 C816 1.395 . S
C818 C821 1.403 . S
C819 C816 1.403 1_565 S
C819 C820 1.524 . S
C819 C823 1.405 . S
C820 H805 0.960 . S
C820 H806 0.960 . S
C820 H807 0.960 . S
C820 C819 1.524 . S
C821 C818 1.403 . S
C821 C822 1.392 . S
C821 C825 1.495 . S
C822 C821 1.392 . S
C822 C823 1.360 1_545 S
C822 C824 1.478 . S
C823 H817 0.953 . S
C823 C819 1.405 . S
C823 C822 1.360 1_565 S
C824 C822 1.478 . S
C824 C826 1.381 . S
C824 C830 1.383 1_545 S
C825 C821 1.495 . S
C825 H831 0.959 . S
C825 H832 0.961 . S
C825 H833 0.960 . S
C826 C824 1.381 . S
C826 C827 1.394 . S
C826 H834 0.930 . S
C827 C826 1.394 . S
C827 C828 1.383 . S
C827 H835 0.929 . S
C828 C827 1.383 . S
C828 C829 1.377 1_545 S
C829 H813 0.930 . S
C829 C828 1.377 1_565 S
C829 C830 1.379 . S
C830 H814 0.931 . S
C830 C824 1.383 1_565 S
C830 C829 1.379 . S
H831 C825 0.959 . S
H832 C825 0.961 . S
H833 C825 0.960 . S
H834 C826 0.930 . S
H835 C827 0.929 . S
H836 C844 0.929 . S
H837 C846 0.930 . S
H838 C848 0.930 . S
H839 C851 0.929 . S
H840 C854 0.930 . S
H841 C856 0.960 . S
H842 C856 0.960 . S
H843 C856 0.960 . S
C844 H836 0.929 . S
C844 C845 1.377 . S
C844 C846 1.384 . S
C845 C844 1.377 . S
C845 C851 1.390 . S
C846 H837 0.930 . S
C846 C844 1.384 . S
C846 C847 1.372 . S
C847 C846 1.372 . S
C847 C848 1.400 . S
C847 C852 1.490 . S
C848 H838 0.930 . S
C848 C847 1.400 . S
C848 C851 1.386 . S
H849 C865 0.930 . S
H850 C866 0.931 . S
C851 H839 0.929 . S
C851 C845 1.390 . S
C851 C848 1.386 . S
C852 C847 1.490 . S
C852 C854 1.395 . S
C852 C855 1.403 . S
H853 C859 0.930 . S
C854 H840 0.930 . S
C854 C852 1.395 . S
C854 C857 1.403 . S
C855 C852 1.403 . S
C855 C856 1.524 . S
C855 C859 1.400 . S
C856 H841 0.960 . S
C856 H842 0.960 . S
C856 H843 0.960 . S
C856 C855 1.524 . S
C857 C854 1.403 . S
C857 C858 1.392 . S
C857 C861 1.495 . S
C858 C857 1.392 . S
C858 C859 1.385 . S
C858 C860 1.478 . S
C859 H853 0.930 . S
C859 C855 1.400 . S
C859 C858 1.385 . S
C860 C858 1.478 . S
C860 C862 1.381 . S
C860 C866 1.383 . S
C861 C857 1.495 . S
C861 H867 0.959 . S
C861 H868 0.961 . S
C861 H869 0.960 . S
C862 C860 1.381 . S
C862 C863 1.394 . S
C862 H870 0.930 . S
C863 C862 1.394 . S
C863 C864 1.383 . S
C863 H871 0.937 . S
C864 C863 1.383 . S
C864 C865 1.377 . S
C865 H849 0.930 . S
C865 C864 1.377 . S
C865 C866 1.379 . S
C866 H850 0.931 . S
C866 C860 1.383 . S
C866 C865 1.379 . S
H867 C861 0.959 . S
H868 C861 0.961 . S
H869 C861 0.960 . S
H870 C862 0.930 . S
H871 C863 0.937 . S
H872 C880 0.929 . S
H873 C882 0.930 . S
H874 C884 0.930 . S
H875 C887 0.929 . S
H876 C890 0.930 . S
H877 C892 0.960 . S
H878 C892 0.960 . S
H879 C892 0.960 . S
C880 H872 0.929 . S
C880 C881 1.377 . S
C880 C882 1.384 . S
C881 C880 1.377 . S
C881 C887 1.390 . S
C882 H873 0.930 . S
C882 C880 1.384 . S
C882 C883 1.372 . S
C883 C882 1.372 . S
C883 C884 1.400 . S
C883 C888 1.490 . S
C884 H874 0.930 . S
C884 C883 1.400 . S
C884 C887 1.386 . S
H885 C901 0.930 . S
H886 C902 0.931 . S
C887 H875 0.929 . S
C887 C881 1.390 . S
C887 C884 1.386 . S
C888 C883 1.490 . S
C888 C890 1.395 . S
C888 C891 1.403 . S
H889 C895 0.930 . S
C890 H876 0.930 . S
C890 C888 1.395 . S
C890 C893 1.403 . S
C891 C888 1.403 . S
C891 C892 1.524 . S
C891 C895 1.400 . S
C892 H877 0.960 . S
C892 H878 0.960 . S
C892 H879 0.960 . S
C892 C891 1.524 . S
C893 C890 1.403 . S
C893 C894 1.392 . S
C893 C897 1.495 . S
C894 C893 1.392 . S
C894 C895 1.385 . S
C894 C896 1.478 . S
C895 H889 0.930 . S
C895 C891 1.400 . S
C895 C894 1.385 . S
C896 C894 1.478 . S
C896 C898 1.381 . S
C896 C902 1.383 . S
C897 C893 1.495 . S
C897 H903 0.959 . S
C897 H904 0.961 . S
C897 H905 0.960 . S
C898 C896 1.381 . S
C898 C899 1.394 . S
C898 H906 0.930 . S
C899 C898 1.394 . S
C899 C900 1.383 . S
C899 H907 0.929 1_554 S
C900 C899 1.383 . S
C900 C901 1.377 . S
C901 H885 0.930 . S
C901 C900 1.377 . S
C901 C902 1.379 . S
C902 H886 0.931 . S
C902 C896 1.383 . S
C902 C901 1.379 . S
H903 C897 0.959 . S
H904 C897 0.961 . S
H905 C897 0.960 . S
H906 C898 0.930 . S
H907 C899 0.929 1_556 S
H908 C916 0.929 . S
H909 C918 0.930 . S
H910 C920 0.930 . S
H911 C923 0.929 . S
H912 C926 0.930 . S
H913 C928 0.960 . S
H914 C928 0.941 1_655 S
H915 C928 0.960 . S
C916 H908 0.929 . S
C916 C917 1.377 1_655 S
C916 C918 1.384 . S
C917 C916 1.377 1_455 S
C917 C923 1.390 . S
C918 H909 0.930 . S
C918 C916 1.384 . S
C918 C919 1.372 1_655 S
C919 C918 1.372 1_455 S
C919 C920 1.400 . S
C919 C924 1.490 . S
C920 H910 0.930 . S
C920 C919 1.400 . S
C920 C923 1.386 . S
H921 C937 0.930 . S
H922 C938 0.931 . S
C923 H911 0.929 . S
C923 C917 1.390 . S
C923 C920 1.386 . S
C924 C919 1.490 . S
C924 C926 1.395 . S
C924 C927 1.403 . S
H925 C931 0.930 . S
C926 H912 0.930 . S
C926 C924 1.395 . S
C926 C929 1.403 . S
C927 C924 1.403 . S
C927 C928 1.524 . S
C927 C931 1.400 . S
C928 H913 0.960 . S
C928 H914 0.941 1_455 S
C928 H915 0.960 . S
C928 C927 1.524 . S
C929 C926 1.403 . S
C929 C930 1.392 . S
C929 C933 1.495 1_455 S
C930 C929 1.392 . S
C930 C931 1.385 . S
C930 C932 1.478 . S
C931 H925 0.930 . S
C931 C927 1.400 . S
C931 C930 1.385 . S
C932 C930 1.478 . S
C932 C934 1.381 1_455 S
C932 C938 1.383 . S
C933 C929 1.495 1_655 S
C933 H939 0.957 . S
C933 H940 0.958 1_655 S
C933 H941 0.963 . S
C934 C932 1.381 1_655 S
C934 C935 1.394 . S
C934 H942 0.930 . S
C935 C934 1.394 . S
C935 C936 1.363 1_655 S
C935 H943 0.929 . S
C936 C935 1.363 1_455 S
C936 C937 1.399 . S
C937 H921 0.930 . S
C937 C936 1.399 . S
C937 C938 1.379 . S
C938 H922 0.931 . S
C938 C932 1.383 . S
C938 C937 1.379 . S
H939 C933 0.957 . S
H940 C933 0.958 1_455 S
H941 C933 0.963 . S
H942 C934 0.930 . S
H943 C935 0.929 . S
H944 C952 0.929 . S
H945 C954 0.930 . S
H946 C956 0.930 . S
H947 C959 0.929 . S
H948 C962 0.930 . S
H949 C964 0.960 . S
H950 C964 0.960 . S
H951 C964 0.960 1_545 S
C952 H944 0.929 . S
C952 C953 1.417 . S
C952 C954 1.384 . S
C953 C952 1.417 . S
C953 C959 1.354 1_565 S
C954 H945 0.930 . S
C954 C952 1.384 . S
C954 C955 1.372 . S
C955 C954 1.372 . S
C955 C956 1.400 1_565 S
C955 C960 1.490 . S
C956 H946 0.930 . S
C956 C955 1.400 1_545 S
C956 C959 1.386 . S
H957 C973 0.930 . S
H958 C974 0.931 . S
C959 H947 0.929 . S
C959 C953 1.354 1_545 S
C959 C956 1.386 . S
C960 C955 1.490 . S
C960 C962 1.395 . S
C960 C963 1.403 . S
H961 C967 0.930 . S
C962 H948 0.930 . S
C962 C960 1.395 . S
C962 C965 1.403 . S
C963 C960 1.403 . S
C963 C964 1.524 . S
C963 C967 1.400 . S
C964 H949 0.960 . S
C964 H950 0.960 . S
C964 H951 0.960 1_565 S
C964 C963 1.524 . S
C965 C962 1.403 . S
C965 C966 1.392 . S
C965 C969 1.495 . S
C966 C965 1.392 . S
C966 C967 1.385 . S
C966 C968 1.478 . S
C967 H961 0.930 . S
C967 C963 1.400 . S
C967 C966 1.385 . S
C968 C966 1.478 . S
C968 C970 1.381 . S
C968 C974 1.383 1_565 S
C969 C965 1.495 . S
C969 H975 0.959 . S
C969 H976 0.961 . S
C969 H977 0.960 . S
C970 C968 1.381 . S
C970 C971 1.394 . S
C970 H978 0.930 . S
C971 C970 1.394 . S
C971 C972 1.383 . S
C971 H979 0.929 . S
C972 C971 1.383 . S
C972 C973 1.377 1_565 S
C973 H957 0.930 . S
C973 C972 1.377 1_545 S
C973 C974 1.379 . S
C974 H958 0.931 . S
C974 C968 1.383 1_545 S
C974 C973 1.379 . S
H975 C969 0.959 . S
H976 C969 0.961 . S
H977 C969 0.960 . S
H978 C970 0.930 . S
H979 C971 0.929 . S
H980 C988 0.929 . S
H981 C990 0.930 . S
H982 C992 0.930 . S
H983 C995 0.929 . S
H984 C998 0.930 . S
H985 C1000 0.960 . S
H986 C1000 0.960 . S
H987 C1000 0.960 . S
C988 H980 0.929 . S
C988 C989 1.377 . S
C988 C990 1.384 . S
C989 C988 1.377 . S
C989 C995 1.390 . S
C990 H981 0.930 . S
C990 C988 1.384 . S
C990 C991 1.372 . S
C991 C990 1.372 . S
C991 C992 1.400 . S
C991 C996 1.490 . S
C992 H982 0.930 . S
C992 C991 1.400 . S
C992 C995 1.386 . S
H993 C1009 0.930 . S
H994 C1010 0.931 . S
C995 H983 0.929 . S
C995 C989 1.390 . S
C995 C992 1.386 . S
C996 C991 1.490 . S
C996 C998 1.395 . S
C996 C999 1.403 . S
H997 C1003 0.930 . S
C998 H984 0.930 . S
C998 C996 1.395 . S
C998 C1001 1.403 . S
C999 C996 1.403 . S
C999 C1000 1.524 . S
C999 C1003 1.400 . S
C1000 H985 0.960 . S
C1000 H986 0.960 . S
C1000 H987 0.960 . S
C1000 C999 1.524 . S
C1001 C998 1.403 . S
C1001 C1002 1.392 . S
C1001 C1005 1.495 . S
C1002 C1001 1.392 . S
C1002 C1003 1.385 . S
C1002 C1004 1.478 . S
C1003 H997 0.930 . S
C1003 C999 1.400 . S
C1003 C1002 1.385 . S
C1004 C1002 1.478 . S
C1004 C1006 1.381 . S
C1004 C1010 1.383 . S
C1005 C1001 1.495 . S
C1005 H1011 0.959 . S
C1005 H1012 0.961 . S
C1005 H1013 0.960 . S
C1006 C1004 1.381 . S
C1006 C1007 1.394 . S
C1006 H1014 0.930 . S
C1007 C1006 1.394 . S
C1007 C1008 1.383 . S
C1007 H1015 0.929 . S
C1008 C1007 1.383 . S
C1008 C1009 1.377 . S
C1009 H993 0.930 . S
C1009 C1008 1.377 . S
C1009 C1010 1.379 . S
C1010 H994 0.931 . S
C1010 C1004 1.383 . S
C1010 C1009 1.379 . S
H1011 C1005 0.959 . S
H1012 C1005 0.961 . S
H1013 C1005 0.960 . S
H1014 C1006 0.930 . S
H1015 C1007 0.929 . S
H1016 C1024 0.929 . S
H1017 C1026 0.930 . S
H1018 C1028 0.930 . S
H1019 C1031 0.929 . S
H1020 C1034 0.930 . S
H1021 C1036 0.960 . S
H1022 C1036 0.960 . S
H1023 C1036 0.960 . S
C1024 H1016 0.929 . S
C1024 C1025 1.377 . S
C1024 C1026 1.384 . S
C1025 C1024 1.377 . S
C1025 C1031 1.390 . S
C1026 H1017 0.930 . S
C1026 C1024 1.384 . S
C1026 C1027 1.372 . S
C1027 C1026 1.372 . S
C1027 C1028 1.400 . S
C1027 C1032 1.490 . S
C1028 H1018 0.930 . S
C1028 C1027 1.400 . S
C1028 C1031 1.386 . S
H1029 C1045 0.930 . S
H1030 C1046 0.931 . S
C1031 H1019 0.929 . S
C1031 C1025 1.390 . S
C1031 C1028 1.386 . S
C1032 C1027 1.490 . S
C1032 C1034 1.395 . S
C1032 C1035 1.403 . S
H1033 C1039 0.930 . S
C1034 H1020 0.930 . S
C1034 C1032 1.395 . S
C1034 C1037 1.403 . S
C1035 C1032 1.403 . S
C1035 C1036 1.524 . S
C1035 C1039 1.400 . S
C1036 H1021 0.960 . S
C1036 H1022 0.960 . S
C1036 H1023 0.960 . S
C1036 C1035 1.524 . S
C1037 C1034 1.403 . S
C1037 C1038 1.392 . S
C1037 C1041 1.495 . S
C1038 C1037 1.392 . S
C1038 C1039 1.385 . S
C1038 C1040 1.478 . S
C1039 H1033 0.930 . S
C1039 C1035 1.400 . S
C1039 C1038 1.385 . S
C1040 C1038 1.478 . S
C1040 C1042 1.381 . S
C1040 C1046 1.383 . S
C1041 C1037 1.495 . S
C1041 H1047 0.959 . S
C1041 H1048 0.961 . S
C1041 H1049 0.960 . S
C1042 C1040 1.381 . S
C1042 C1043 1.394 . S
C1042 H1050 0.930 . S
C1043 C1042 1.394 . S
C1043 C1044 1.383 . S
C1043 H1051 0.929 . S
C1044 C1043 1.383 . S
C1044 C1045 1.377 . S
C1045 H1029 0.930 . S
C1045 C1044 1.377 . S
C1045 C1046 1.379 . S
C1046 H1030 0.931 . S
C1046 C1040 1.383 . S
C1046 C1045 1.379 . S
H1047 C1041 0.959 . S
H1048 C1041 0.961 . S
H1049 C1041 0.960 . S
H1050 C1042 0.930 . S
H1051 C1043 0.929 . S
H1052 C1060 0.929 . S
H1053 C1062 0.930 . S
H1054 C1064 0.930 . S
H1055 C1067 0.929 . S
H1056 C1070 0.930 . S
H1057 C1072 0.960 . S
H1058 C1072 0.960 . S
H1059 C1072 0.960 1_455 S
C1060 H1052 0.929 . S
C1060 C1061 1.377 . S
C1060 C1062 1.384 . S
C1061 C1060 1.377 . S
C1061 C1067 1.390 1_655 S
C1062 H1053 0.930 . S
C1062 C1060 1.384 . S
C1062 C1063 1.372 . S
C1063 C1062 1.372 . S
C1063 C1064 1.400 1_655 S
C1063 C1068 1.490 . S
C1064 H1054 0.930 . S
C1064 C1063 1.400 1_455 S
C1064 C1067 1.386 . S
H1065 C1081 0.930 . S
H1066 C1082 0.931 . S
C1067 H1055 0.929 . S
C1067 C1061 1.390 1_455 S
C1067 C1064 1.386 . S
C1068 C1063 1.490 . S
C1068 C1070 1.395 . S
C1068 C1071 1.403 . S
H1069 C1075 0.930 . S
C1070 H1056 0.930 . S
C1070 C1068 1.395 . S
C1070 C1073 1.403 . S
C1071 C1068 1.403 . S
C1071 C1072 1.524 . S
C1071 C1075 1.400 . S
C1072 H1057 0.960 . S
C1072 H1058 0.960 . S
C1072 H1059 0.960 1_655 S
C1072 C1071 1.524 . S
C1073 C1070 1.403 . S
C1073 C1074 1.392 . S
C1073 C1077 1.495 . S
C1074 C1073 1.392 . S
C1074 C1075 1.385 . S
C1074 C1076 1.478 . S
C1075 H1069 0.930 . S
C1075 C1071 1.400 . S
C1075 C1074 1.385 . S
C1076 C1074 1.478 . S
C1076 C1078 1.381 . S
C1076 C1082 1.383 1_655 S
C1077 C1073 1.495 . S
C1077 H1083 0.959 . S
C1077 H1084 0.961 1_655 S
C1077 H1085 0.960 . S
C1078 C1076 1.381 . S
C1078 C1079 1.394 . S
C1078 H1086 0.930 . S
C1079 C1078 1.394 . S
C1079 C1080 1.383 . S
C1079 H1087 0.929 . S
C1080 C1079 1.383 . S
C1080 C1081 1.377 1_655 S
C1081 H1065 0.930 . S
C1081 C1080 1.377 1_455 S
C1081 C1082 1.379 . S
C1082 H1066 0.931 . S
C1082 C1076 1.383 1_455 S
C1082 C1081 1.379 . S
H1083 C1077 0.959 . S
H1084 C1077 0.961 1_455 S
H1085 C1077 0.960 . S
H1086 C1078 0.930 . S
H1087 C1079 0.929 . S
H1088 C1096 0.929 . S
H1089 C1098 0.930 . S
H1090 C1100 0.930 . S
H1091 C1103 0.929 . S
H1092 C1106 0.930 . S
H1093 C1108 0.960 . S
H1094 C1108 0.921 1_565 S
H1095 C1108 0.960 . S
C1096 H1088 0.929 . S
C1096 C1097 1.355 1_565 S
C1096 C1098 1.384 . S
C1097 C1096 1.355 1_545 S
C1097 C1103 1.412 . S
C1098 H1089 0.930 . S
C1098 C1096 1.384 . S
C1098 C1099 1.412 . S
C1099 C1098 1.412 . S
C1099 C1100 1.360 1_565 S
C1099 C1104 1.491 . S
C1100 H1090 0.930 . S
C1100 C1099 1.360 1_545 S
C1100 C1103 1.386 . S
H1101 C1117 0.930 . S
H1102 C1118 0.931 . S
C1103 H1091 0.929 . S
C1103 C1097 1.412 . S
C1103 C1100 1.386 . S
C1104 C1099 1.491 . S
C1104 C1106 1.395 . S
C1104 C1107 1.403 1_566 S
H1105 C1111 0.930 . S
C1106 H1092 0.930 . S
C1106 C1104 1.395 . S
C1106 C1109 1.403 . S
C1107 C1104 1.403 1_544 S
C1107 C1108 1.524 . S
C1107 C1111 1.400 . S
C1108 H1093 0.960 . S
C1108 H1094 0.921 1_545 S
C1108 H1095 0.960 . S
C1108 C1107 1.524 . S
C1109 C1106 1.403 . S
C1109 C1110 1.391 1_556 S
C1109 C1113 1.495 . S
C1110 C1109 1.391 1_554 S
C1110 C1111 1.386 1_565 S
C1110 C1112 1.478 . S
C1111 H1105 0.930 . S
C1111 C1107 1.400 . S
C1111 C1110 1.386 1_545 S
C1112 C1110 1.478 . S
C1112 C1114 1.381 . S
C1112 C1118 1.383 1_565 S
C1113 C1109 1.495 . S
C1113 H1119 0.959 . S
C1113 H1120 0.961 . S
C1113 H1121 0.960 . S
C1114 C1112 1.381 . S
C1114 C1115 1.394 . S
C1114 H1122 0.930 . S
C1115 C1114 1.394 . S
C1115 C1116 1.383 . S
C1115 H1123 0.929 . S
C1116 C1115 1.383 . S
C1116 C1117 1.377 1_565 S
C1117 H1101 0.930 . S
C1117 C1116 1.377 1_545 S
C1117 C1118 1.379 . S
C1118 H1102 0.931 . S
C1118 C1112 1.383 1_545 S
C1118 C1117 1.379 . S
H1119 C1113 0.959 . S
H1120 C1113 0.961 . S
H1121 C1113 0.960 . S
H1122 C1114 0.930 . S
H1123 C1115 0.929 . S
H1124 C1132 0.929 . S
H1125 C1134 0.930 . S
H1126 C1136 0.930 . S
H1127 C1139 0.929 . S
H1128 C1142 0.930 . S
H1129 C1144 0.960 . S
H1130 C1144 0.960 . S
H1131 C1144 0.960 1_556 S
C1132 H1124 0.929 . S
C1132 C1133 1.377 1_554 S
C1132 C1134 1.384 . S
C1133 C1132 1.377 1_556 S
C1133 C1139 1.390 . S
C1134 H1125 0.930 . S
C1134 C1132 1.384 . S
C1134 C1135 1.372 1_554 S
C1135 C1134 1.372 1_556 S
C1135 C1136 1.400 . S
C1135 C1140 1.490 . S
C1136 H1126 0.930 . S
C1136 C1135 1.400 . S
C1136 C1139 1.386 . S
H1137 C1153 0.930 . S
H1138 C1154 0.931 . S
C1139 H1127 0.929 . S
C1139 C1133 1.390 . S
C1139 C1136 1.386 . S
C1140 C1135 1.490 . S
C1140 C1142 1.395 . S
C1140 C1143 1.403 1_556 S
H1141 C1147 0.930 . S
C1142 H1128 0.930 . S
C1142 C1140 1.395 . S
C1142 C1145 1.403 . S
C1143 C1140 1.403 1_554 S
C1143 C1144 1.524 . S
C1143 C1147 1.400 . S
C1144 H1129 0.960 . S
C1144 H1130 0.960 . S
C1144 H1131 0.960 1_554 S
C1144 C1143 1.524 . S
C1145 C1142 1.403 . S
C1145 C1146 1.392 1_556 S
C1145 C1149 1.495 . S
C1146 C1145 1.392 1_554 S
C1146 C1147 1.385 . S
C1146 C1148 1.478 . S
C1147 H1141 0.930 . S
C1147 C1143 1.400 . S
C1147 C1146 1.385 . S
C1148 C1146 1.478 . S
C1148 C1150 1.381 . S
C1148 C1154 1.383 1_554 S
C1149 C1145 1.495 . S
C1149 H1155 0.959 . S
C1149 H1156 0.961 . S
C1149 H1157 0.960 1_556 S
C1150 C1148 1.381 . S
C1150 C1151 1.394 . S
C1150 H1158 0.930 . S
C1151 C1150 1.394 . S
C1151 C1152 1.383 . S
C1151 H1159 0.929 . S
C1152 C1151 1.383 . S
C1152 C1153 1.377 1_554 S
C1153 H1137 0.930 . S
C1153 C1152 1.377 1_556 S
C1153 C1154 1.379 . S
C1154 H1138 0.931 . S
C1154 C1148 1.383 1_556 S
C1154 C1153 1.379 . S
H1155 C1149 0.959 . S
H1156 C1149 0.961 . S
H1157 C1149 0.960 1_554 S
H1158 C1150 0.930 . S
H1159 C1151 0.929 . S
H1160 C1168 0.929 . S
H1161 C1170 0.930 . S
H1162 C1172 0.930 . S
H1163 C1175 0.929 . S
H1164 C1178 0.930 . S
H1165 C1180 0.960 . S
H1166 C1180 0.960 1_556 S
H1167 C1180 0.960 . S
C1168 H1160 0.929 . S
C1168 C1169 1.377 1_556 S
C1168 C1170 1.384 . S
C1169 C1168 1.377 1_554 S
C1169 C1175 1.390 . S
C1170 H1161 0.930 . S
C1170 C1168 1.384 . S
C1170 C1171 1.372 1_556 S
C1171 C1170 1.372 1_554 S
C1171 C1172 1.400 . S
C1171 C1176 1.490 . S
C1172 H1162 0.930 . S
C1172 C1171 1.400 . S
C1172 C1175 1.386 . S
H1173 C1189 0.930 . S
H1174 C1190 0.931 . S
C1175 H1163 0.929 . S
C1175 C1169 1.390 . S
C1175 C1172 1.386 . S
C1176 C1171 1.490 . S
C1176 C1178 1.395 1_554 S
C1176 C1179 1.403 . S
H1177 C1183 0.930 . S
C1178 H1164 0.930 . S
C1178 C1176 1.395 1_556 S
C1178 C1181 1.403 1_655 S
C1179 C1176 1.403 . S
C1179 C1180 1.524 . S
C1179 C1183 1.400 1_654 S
C1180 H1165 0.960 . S
C1180 H1166 0.960 1_554 S
C1180 H1167 0.960 . S
C1180 C1179 1.524 . S
C1181 C1178 1.403 1_455 S
C1181 C1182 1.392 . S
C1181 C1185 1.495 . S
C1182 C1181 1.392 . S
C1182 C1183 1.385 . S
C1182 C1184 1.478 . S
C1183 H1177 0.930 . S
C1183 C1179 1.400 1_456 S
C1183 C1182 1.385 . S
C1184 C1182 1.478 . S
C1184 C1186 1.381 . S
C1184 C1190 1.383 1_556 S
C1185 C1181 1.495 . S
C1185 H1191 0.959 . S
C1185 H1192 0.961 1_556 S
C1185 H1193 0.960 . S
C1186 C1184 1.381 . S
C1186 C1187 1.394 . S
C1186 H1194 0.930 . S
C1187 C1186 1.394 . S
C1187 C1188 1.383 . S
C1187 H1195 0.929 . S
C1188 C1187 1.383 . S
C1188 C1189 1.377 1_556 S
C1189 H1173 0.930 . S
C1189 C1188 1.377 1_554 S
C1189 C1190 1.379 . S
C1190 H1174 0.931 . S
C1190 C1184 1.383 1_554 S
C1190 C1189 1.379 . S
H1191 C1185 0.959 . S
H1192 C1185 0.961 1_554 S
H1193 C1185 0.960 . S
H1194 C1186 0.930 . S
H1195 C1187 0.929 . S
H1196 C1204 0.929 . S
H1197 C1206 0.930 . S
H1198 C1208 0.930 . S
H1199 C1211 0.929 . S
H1200 C1214 0.930 . S
H1201 C1216 0.960 . S
H1202 C1216 0.964 . S
H1203 C1216 0.960 . S
C1204 H1196 0.929 . S
C1204 C1205 1.376 1_655 S
C1204 C1206 1.384 . S
C1205 C1204 1.376 1_455 S
C1205 C1211 1.391 . S
C1206 H1197 0.930 . S
C1206 C1204 1.384 . S
C1206 C1207 1.372 . S
C1207 C1206 1.372 . S
C1207 C1208 1.400 1_655 S
C1207 C1212 1.490 . S
C1208 H1198 0.930 . S
C1208 C1207 1.400 1_455 S
C1208 C1211 1.386 . S
H1209 C1225 0.930 . S
H1210 C1226 0.931 . S
C1211 H1199 0.929 . S
C1211 C1205 1.391 . S
C1211 C1208 1.386 . S
C1212 C1207 1.490 . S
C1212 C1214 1.395 . S
C1212 C1215 1.403 1_656 S
H1213 C1219 0.930 . S
C1214 H1200 0.930 . S
C1214 C1212 1.395 . S
C1214 C1217 1.403 1_545 S
C1215 C1212 1.403 1_454 S
C1215 C1216 1.524 . S
C1215 C1219 1.400 1_545 S
C1216 H1201 0.960 . S
C1216 H1202 0.964 . S
C1216 H1203 0.960 . S
C1216 C1215 1.524 . S
C1217 C1214 1.403 1_565 S
C1217 C1218 1.408 . S
C1217 C1221 1.495 . S
C1218 C1217 1.408 . S
C1218 C1219 1.371 1_656 S
C1218 C1220 1.476 1_556 S
C1219 H1213 0.930 . S
C1219 C1215 1.400 1_565 S
C1219 C1218 1.371 1_454 S
C1220 C1218 1.476 1_554 S
C1220 C1222 1.381 . S
C1220 C1226 1.383 1_655 S
C1221 C1217 1.495 . S
C1221 H1227 0.959 . S
C1221 H1228 0.961 . S
C1221 H1229 0.960 . S
C1222 C1220 1.381 . S
C1222 C1223 1.394 . S
C1222 H1230 0.930 . S
C1223 C1222 1.394 . S
C1223 C1224 1.433 . S
C1223 H1231 0.929 . S
C1224 C1223 1.433 . S
C1224 C1225 1.329 1_655 S
C1225 H1209 0.930 . S
C1225 C1224 1.329 1_455 S
C1225 C1226 1.379 . S
C1226 H1210 0.931 . S
C1226 C1220 1.383 1_455 S
C1226 C1225 1.379 . S
H1227 C1221 0.959 . S
H1228 C1221 0.961 . S
H1229 C1221 0.960 . S
H1230 C1222 0.930 . S
H1231 C1223 0.929 . S
H1232 C1240 0.929 . S
H1233 C1242 0.930 . S
H1234 C1244 0.930 . S
H1235 C1247 0.929 . S
H1236 C1250 0.930 . S
H1237 C1252 0.960 . S
H1238 C1252 0.960 . S
H1239 C1252 0.960 . S
C1240 H1232 0.929 . S
C1240 C1241 1.375 1_565 S
C1240 C1242 1.384 . S
C1241 C1240 1.375 1_545 S
C1241 C1247 1.392 . S
C1242 H1233 0.930 . S
C1242 C1240 1.384 . S
C1242 C1243 1.372 . S
C1243 C1242 1.372 . S
C1243 C1244 1.400 1_565 S
C1243 C1248 1.490 . S
C1244 H1234 0.930 . S
C1244 C1243 1.400 1_545 S
C1244 C1247 1.386 . S
H1245 C1261 0.930 . S
H1246 C1262 0.931 . S
C1247 H1235 0.929 . S
C1247 C1241 1.392 . S
C1247 C1244 1.386 . S
C1248 C1243 1.490 . S
C1248 C1250 1.395 . S
C1248 C1251 1.403 1_565 S
H1249 C1255 0.930 . S
C1250 H1236 0.930 . S
C1250 C1248 1.395 . S
C1250 C1253 1.403 1_455 S
C1251 C1248 1.403 1_545 S
C1251 C1252 1.524 . S
C1251 C1255 1.400 1_455 S
C1252 H1237 0.960 . S
C1252 H1238 0.960 . S
C1252 H1239 0.960 . S
C1252 C1251 1.524 . S
C1253 C1250 1.403 1_655 S
C1253 C1254 1.392 . S
C1253 C1257 1.495 . S
C1254 C1253 1.392 . S
C1254 C1255 1.385 1_565 S
C1254 C1256 1.478 . S
C1255 H1249 0.930 . S
C1255 C1251 1.400 1_655 S
C1255 C1254 1.385 1_545 S
C1256 C1254 1.478 . S
C1256 C1258 1.381 . S
C1256 C1262 1.383 1_565 S
C1257 C1253 1.495 . S
C1257 H1263 0.959 . S
C1257 H1264 0.961 . S
C1257 H1265 0.960 . S
C1258 C1256 1.381 . S
C1258 C1259 1.394 . S
C1258 H1266 0.930 . S
C1259 C1258 1.394 . S
C1259 C1260 1.383 . S
C1259 H1267 0.929 . S
C1260 C1259 1.383 . S
C1260 C1261 1.377 1_565 S
C1261 H1245 0.930 . S
C1261 C1260 1.377 1_545 S
C1261 C1262 1.379 . S
C1262 H1246 0.931 . S
C1262 C1256 1.383 1_545 S
C1262 C1261 1.379 . S
H1263 C1257 0.959 . S
H1264 C1257 0.961 . S
H1265 C1257 0.960 . S
H1266 C1258 0.930 . S
H1267 C1259 0.929 . S
H1268 C1276 0.929 . S
H1269 C1278 0.930 . S
H1270 C1280 0.930 . S
H1271 C1283 0.929 . S
H1272 C1286 0.930 . S
H1273 C1288 0.960 . S
H1274 C1288 0.960 . S
H1275 C1288 0.960 . S
C1276 H1268 0.929 . S
C1276 C1277 1.377 . S
C1276 C1278 1.384 . S
C1277 C1276 1.377 . S
C1277 C1283 1.390 . S
C1278 H1269 0.930 . S
C1278 C1276 1.384 . S
C1278 C1279 1.372 . S
C1279 C1278 1.372 . S
C1279 C1280 1.400 . S
C1279 C1284 1.490 . S
C1280 H1270 0.930 . S
C1280 C1279 1.400 . S
C1280 C1283 1.386 . S
H1281 C1297 0.930 . S
H1282 C1298 0.931 . S
C1283 H1271 0.929 . S
C1283 C1277 1.390 . S
C1283 C1280 1.386 . S
C1284 C1279 1.490 . S
C1284 C1286 1.395 . S
C1284 C1287 1.403 . S
H1285 C1291 0.930 . S
C1286 H1272 0.930 . S
C1286 C1284 1.395 . S
C1286 C1289 1.403 1_565 S
C1287 C1284 1.403 . S
C1287 C1288 1.524 . S
C1287 C1291 1.400 1_565 S
C1288 H1273 0.960 . S
C1288 H1274 0.960 . S
C1288 H1275 0.960 . S
C1288 C1287 1.524 . S
C1289 C1286 1.403 1_545 S
C1289 C1290 1.392 . S
C1289 C1293 1.495 . S
C1290 C1289 1.392 . S
C1290 C1291 1.385 . S
C1290 C1292 1.478 . S
C1291 H1285 0.930 . S
C1291 C1287 1.400 1_545 S
C1291 C1290 1.385 . S
C1292 C1290 1.478 . S
C1292 C1294 1.381 . S
C1292 C1298 1.383 . S
C1293 C1289 1.495 . S
C1293 H1299 0.959 . S
C1293 H1300 0.961 . S
C1293 H1301 0.960 . S
C1294 C1292 1.381 . S
C1294 C1295 1.394 . S
C1294 H1302 0.930 . S
C1295 C1294 1.394 . S
C1295 C1296 1.383 . S
C1295 H1303 0.929 . S
C1296 C1295 1.383 . S
C1296 C1297 1.377 . S
C1297 H1281 0.930 . S
C1297 C1296 1.377 . S
C1297 C1298 1.379 . S
C1298 H1282 0.931 . S
C1298 C1292 1.383 . S
C1298 C1297 1.379 . S
H1299 C1293 0.959 . S
H1300 C1293 0.961 . S
H1301 C1293 0.960 . S
H1302 C1294 0.930 . S
H1303 C1295 0.929 . S
H1304 C1312 0.929 . S
H1305 C1314 0.930 . S
H1306 C1316 0.930 . S
H1307 C1319 0.929 . S
H1308 C1322 0.930 . S
H1309 C1324 0.960 . S
H1310 C1324 0.960 . S
H1311 C1324 0.960 . S
C1312 H1304 0.929 . S
C1312 C1313 1.377 . S
C1312 C1314 1.384 . S
C1313 C1312 1.377 . S
C1313 C1319 1.390 . S
C1314 H1305 0.930 . S
C1314 C1312 1.384 . S
C1314 C1315 1.372 . S
C1315 C1314 1.372 . S
C1315 C1316 1.400 . S
C1315 C1320 1.490 . S
C1316 H1306 0.930 . S
C1316 C1315 1.400 . S
C1316 C1319 1.386 . S
H1317 C1333 0.930 . S
H1318 C1334 0.931 . S
C1319 H1307 0.929 . S
C1319 C1313 1.390 . S
C1319 C1316 1.386 . S
C1320 C1315 1.490 . S
C1320 C1322 1.395 . S
C1320 C1323 1.403 . S
H1321 C1327 0.930 . S
C1322 H1308 0.930 . S
C1322 C1320 1.395 . S
C1322 C1325 1.403 . S
C1323 C1320 1.403 . S
C1323 C1324 1.524 . S
C1323 C1327 1.400 . S
C1324 H1309 0.960 . S
C1324 H1310 0.960 . S
C1324 H1311 0.960 . S
C1324 C1323 1.524 . S
C1325 C1322 1.403 . S
C1325 C1326 1.392 . S
C1325 C1329 1.495 . S
C1326 C1325 1.392 . S
C1326 C1327 1.385 . S
C1326 C1328 1.478 . S
C1327 H1321 0.930 . S
C1327 C1323 1.400 . S
C1327 C1326 1.385 . S
C1328 C1326 1.478 . S
C1328 C1330 1.381 . S
C1328 C1334 1.383 . S
C1329 C1325 1.495 . S
C1329 H1335 0.959 . S
C1329 H1336 0.961 . S
C1329 H1337 0.960 . S
C1330 C1328 1.381 . S
C1330 C1331 1.394 . S
C1330 H1338 0.930 . S
C1331 C1330 1.394 . S
C1331 C1332 1.383 . S
C1331 H1339 0.929 . S
C1332 C1331 1.383 . S
C1332 C1333 1.377 . S
C1333 H1317 0.930 . S
C1333 C1332 1.377 . S
C1333 C1334 1.379 . S
C1334 H1318 0.931 . S
C1334 C1328 1.383 . S
C1334 C1333 1.379 . S
H1335 C1329 0.959 . S
H1336 C1329 0.961 . S
H1337 C1329 0.960 . S
H1338 C1330 0.930 . S
H1339 C1331 0.929 . S
H1340 C1348 0.929 . S
H1341 C1350 0.930 . S
H1342 C1352 0.930 . S
H1343 C1355 0.929 . S
H1344 C1358 0.930 . S
H1345 C1360 0.960 . S
H1346 C1360 0.960 . S
H1347 C1360 0.960 . S
C1348 H1340 0.929 . S
C1348 C1349 1.373 1_455 S
C1348 C1350 1.384 . S
C1349 C1348 1.373 1_655 S
C1349 C1355 1.394 . S
C1350 H1341 0.930 . S
C1350 C1348 1.384 . S
C1350 C1351 1.372 . S
C1351 C1350 1.372 . S
C1351 C1352 1.399 1_455 S
C1351 C1356 1.490 1_455 S
C1352 H1342 0.930 . S
C1352 C1351 1.399 1_655 S
C1352 C1355 1.386 . S
H1353 C1369 0.930 . S
H1354 C1370 0.931 . S
C1355 H1343 0.929 . S
C1355 C1349 1.394 . S
C1355 C1352 1.386 . S
C1356 C1351 1.490 1_655 S
C1356 C1358 1.399 . S
C1356 C1359 1.398 1_655 S
H1357 C1363 0.930 . S
C1358 H1344 0.930 . S
C1358 C1356 1.399 . S
C1358 C1361 1.403 . S
C1359 C1356 1.398 1_455 S
C1359 C1360 1.524 . S
C1359 C1363 1.400 . S
C1360 H1345 0.960 . S
C1360 H1346 0.960 . S
C1360 H1347 0.960 . S
C1360 C1359 1.524 . S
C1361 C1358 1.403 . S
C1361 C1362 1.392 . S
C1361 C1365 1.495 . S
C1362 C1361 1.392 . S
C1362 C1363 1.385 1_655 S
C1362 C1364 1.478 . S
C1363 H1357 0.930 . S
C1363 C1359 1.400 . S
C1363 C1362 1.385 1_455 S
C1364 C1362 1.478 . S
C1364 C1366 1.381 1_655 S
C1364 C1370 1.383 . S
C1365 C1361 1.495 . S
C1365 H1371 0.959 . S
C1365 H1372 0.961 . S
C1365 H1373 0.960 . S
C1366 C1364 1.381 1_455 S
C1366 C1367 1.394 . S
C1366 H1374 0.930 . S
C1367 C1366 1.394 . S
C1367 C1368 1.380 1_455 S
C1367 H1375 0.929 . S
C1368 C1367 1.380 1_655 S
C1368 C1369 1.381 . S
C1369 H1353 0.930 . S
C1369 C1368 1.381 . S
C1369 C1370 1.379 . S
C1370 H1354 0.931 . S
C1370 C1364 1.383 . S
C1370 C1369 1.379 . S
H1371 C1365 0.959 . S
H1372 C1365 0.961 . S
H1373 C1365 0.960 . S
H1374 C1366 0.930 . S
H1375 C1367 0.929 . S
C233 C82 0.556 . S
C252 C0 0.520 . S
C269 C97 0.809 . S
C288 C26 0.763 . S
C305 C40 0.557 . S
C324 C98 0.517 . S
C341 C42 0.272 . S
C360 C56 0.376 . S
C377 C112 0.532 . S
C396 C194 0.592 . S
C413 C196 0.804 . S
C432 C138 0.794 . S
C449 C211 0.535 . S
C468 C141 0.556 . S
C485 C155 0.306 . S
C504 C180 0.349 . S
C521 C1 1.957 1_556 S
C540 C168 1.965 1_565 S
C557 C182 2.149 . S
C576 C27 2.121 1_556 S
C593 C41 2.283 1_556 S
C612 C208 2.314 . S
C629 C43 2.063 1_556 S
C648 C223 2.075 1_655 S
C665 C57 2.058 . S
C684 C124 2.056 1_545 S
C701 C83 2.278 . S
C720 C126 2.298 . S
C737 C96 2.135 . S
C756 C153 2.143 . S
C773 C99 1.951 . S
C792 C167 1.935 1_455 S
C809 C68 1.949 1_545 S
C828 C113 1.949 1_554 S
C845 C70 2.149 . S
C864 C139 2.137 1_554 S
C881 C85 2.309 . S
C900 C140 2.289 1_554 S
C917 C154 2.059 1_554 S
C936 C110 2.079 1_455 S
C953 C12 2.069 1_565 S
C972 C181 2.051 . S
C989 C195 2.280 . S
C1008 C14 2.303 . S
C1025 C197 2.137 . S
C1044 C28 2.152 . S
C1061 C54 1.951 1_655 S
C1080 C210 1.942 . S
C1097 C125 1.366 . S
C1116 C13 1.383 . S
C1133 C127 1.472 . S
C1152 C15 1.477 . S
C1169 C29 1.859 . S
C1188 C152 1.848 . S
C1205 C166 1.691 . S
C1224 C55 1.701 . S
C1241 C69 1.686 . S
C1260 C169 1.669 . S
C1277 C183 1.859 . S
C1296 C71 1.869 . S
C1313 C209 1.468 . S
C1332 C84 1.446 . S
C1349 C222 1.362 . S
C1368 C111 1.371 1_655 S
