# Generated by pormake.
# Topology zfx, (5)-cn, num edge types: 1
# Building blocks:
#     Node 0, Type 0, BuildingBlock: BEQFEK_clean_sbu_0, # of connection points: 5
#     Node 1, Type 0, BuildingBlock: BEQFEK_clean_sbu_0, # of connection points: 5
#     Node 2, Type 0, BuildingBlock: BEQFEK_clean_sbu_0, # of connection points: 5
#     Node 3, Type 0, BuildingBlock: BEQFEK_clean_sbu_0, # of connection points: 5
#     Node 4, Type 0, BuildingBlock: BEQFEK_clean_sbu_0, # of connection points: 5
#     Node 5, Type 0, BuildingBlock: BEQFEK_clean_sbu_0, # of connection points: 5
#     Node 6, Type 0, BuildingBlock: BEQFEK_clean_sbu_0, # of connection points: 5
#     Node 7, Type 0, BuildingBlock: BEQFEK_clean_sbu_0, # of connection points: 5
#     Node 8, Type 0, BuildingBlock: BEQFEK_clean_sbu_0, # of connection points: 5
#     Node 9, Type 0, BuildingBlock: BEQFEK_clean_sbu_0, # of connection points: 5
#     Node 10, Type 0, BuildingBlock: BEQFEK_clean_sbu_0, # of connection points: 5
#     Node 11, Type 0, BuildingBlock: BEQFEK_clean_sbu_0, # of connection points: 5
#     Node 12, Type 0, BuildingBlock: BEQFEK_clean_sbu_0, # of connection points: 5
#     Node 13, Type 0, BuildingBlock: BEQFEK_clean_sbu_0, # of connection points: 5
#     Node 14, Type 0, BuildingBlock: BEQFEK_clean_sbu_0, # of connection points: 5
#     Node 15, Type 0, BuildingBlock: BEQFEK_clean_sbu_0, # of connection points: 5
#     Edge 16, Type (0, 0), BuildingBlock: UVAHIK_clean_linker_0, # of connection points: 2
#     Edge 17, Type (0, 0), BuildingBlock: UVAHIK_clean_linker_0, # of connection points: 2
#     Edge 18, Type (0, 0), BuildingBlock: UVAHIK_clean_linker_0, # of connection points: 2
#     Edge 19, Type (0, 0), BuildingBlock: UVAHIK_clean_linker_0, # of connection points: 2
#     Edge 20, Type (0, 0), BuildingBlock: UVAHIK_clean_linker_0, # of connection points: 2
#     Edge 21, Type (0, 0), BuildingBlock: UVAHIK_clean_linker_0, # of connection points: 2
#     Edge 22, Type (0, 0), BuildingBlock: UVAHIK_clean_linker_0, # of connection points: 2
#     Edge 23, Type (0, 0), BuildingBlock: UVAHIK_clean_linker_0, # of connection points: 2
#     Edge 24, Type (0, 0), BuildingBlock: UVAHIK_clean_linker_0, # of connection points: 2
#     Edge 25, Type (0, 0), BuildingBlock: UVAHIK_clean_linker_0, # of connection points: 2
#     Edge 26, Type (0, 0), BuildingBlock: UVAHIK_clean_linker_0, # of connection points: 2
#     Edge 27, Type (0, 0), BuildingBlock: UVAHIK_clean_linker_0, # of connection points: 2
#     Edge 28, Type (0, 0), BuildingBlock: UVAHIK_clean_linker_0, # of connection points: 2
#     Edge 29, Type (0, 0), BuildingBlock: UVAHIK_clean_linker_0, # of connection points: 2
#     Edge 30, Type (0, 0), BuildingBlock: UVAHIK_clean_linker_0, # of connection points: 2
#     Edge 31, Type (0, 0), BuildingBlock: UVAHIK_clean_linker_0, # of connection points: 2
#     Edge 32, Type (0, 0), BuildingBlock: UVAHIK_clean_linker_0, # of connection points: 2
#     Edge 33, Type (0, 0), BuildingBlock: UVAHIK_clean_linker_0, # of connection points: 2
#     Edge 34, Type (0, 0), BuildingBlock: UVAHIK_clean_linker_0, # of connection points: 2
#     Edge 35, Type (0, 0), BuildingBlock: UVAHIK_clean_linker_0, # of connection points: 2
#     Edge 36, Type (0, 0), BuildingBlock: UVAHIK_clean_linker_0, # of connection points: 2
#     Edge 37, Type (0, 0), BuildingBlock: UVAHIK_clean_linker_0, # of connection points: 2
#     Edge 38, Type (0, 0), BuildingBlock: UVAHIK_clean_linker_0, # of connection points: 2
#     Edge 39, Type (0, 0), BuildingBlock: UVAHIK_clean_linker_0, # of connection points: 2
#     Edge 40, Type (0, 0), BuildingBlock: UVAHIK_clean_linker_0, # of connection points: 2
#     Edge 41, Type (0, 0), BuildingBlock: UVAHIK_clean_linker_0, # of connection points: 2
#     Edge 42, Type (0, 0), BuildingBlock: UVAHIK_clean_linker_0, # of connection points: 2
#     Edge 43, Type (0, 0), BuildingBlock: UVAHIK_clean_linker_0, # of connection points: 2
#     Edge 44, Type (0, 0), BuildingBlock: UVAHIK_clean_linker_0, # of connection points: 2
#     Edge 45, Type (0, 0), BuildingBlock: UVAHIK_clean_linker_0, # of connection points: 2
#     Edge 46, Type (0, 0), BuildingBlock: UVAHIK_clean_linker_0, # of connection points: 2
#     Edge 47, Type (0, 0), BuildingBlock: UVAHIK_clean_linker_0, # of connection points: 2
#     Edge 48, Type (0, 0), BuildingBlock: UVAHIK_clean_linker_0, # of connection points: 2
#     Edge 49, Type (0, 0), BuildingBlock: UVAHIK_clean_linker_0, # of connection points: 2
#     Edge 50, Type (0, 0), BuildingBlock: UVAHIK_clean_linker_0, # of connection points: 2
#     Edge 51, Type (0, 0), BuildingBlock: UVAHIK_clean_linker_0, # of connection points: 2
#     Edge 52, Type (0, 0), BuildingBlock: UVAHIK_clean_linker_0, # of connection points: 2
#     Edge 53, Type (0, 0), BuildingBlock: UVAHIK_clean_linker_0, # of connection points: 2
#     Edge 54, Type (0, 0), BuildingBlock: UVAHIK_clean_linker_0, # of connection points: 2
#     Edge 55, Type (0, 0), BuildingBlock: UVAHIK_clean_linker_0, # of connection points: 2
# Relax obj value: 0.544
# Max RMSD: 0.177
# Mean RMSD: 0.177
data_MOF--net-zfx--node1-BEQFEK_clean_sbu_0--edge1-UVAHIK_clean_linker_0
_symmetry_space_group_name_H-M    P1
_symmetry_Int_Tables_number       1
_symmetry_cell_setting            triclinic
loop_
_symmetry_equiv_pos_as_xyz
'x, y, z'
_cell_length_a     74.069529
_cell_length_b     74.097322
_cell_length_c     31.199732
_cell_angle_alpha  89.987114
_cell_angle_beta   90.002475
_cell_angle_gamma 90.060509
loop_
_atom_site_label
_atom_site_type_symbol
_atom_site_fract_x
_atom_site_fract_y
_atom_site_fract_z
_atom_type_partial_charge
Co0 Co 0.49624 0.11267 0.40692 0.0
Co1 Co 0.5352 0.10676 0.37408 0.0
C2 C 0.52891 0.13103 0.44756 0.0
O3 O 0.51206 0.1276 0.44531 0.0
O4 O 0.53996 0.12419 0.42081 0.0
C5 C 0.46621 0.13496 0.42194 0.0
O6 O 0.47728 0.14755 0.40808 0.0
C7 C 0.57215 0.10961 0.3391 0.0
C8 C 0.57348 0.08429 0.30176 0.0
C9 C 0.5832 0.09968 0.31188 0.0
N10 N 0.55655 0.10059 0.34403 0.0
N11 N 0.55757 0.08534 0.32223 0.0
C12 C 0.57651 0.12686 0.36185 0.0
H13 H 0.57234 0.1258 0.39581 0.0
H14 H 0.56884 0.13809 0.34703 0.0
H15 H 0.59118 0.12987 0.36086 0.0
C16 C 0.49033 0.123 0.31569 0.0
N17 N 0.5008 0.11706 0.3481 0.0
N18 N 0.5176 0.11589 0.33478 0.0
C19 C 0.51849 0.12195 0.29399 0.0
C20 C 0.50121 0.1266 0.28048 0.0
C21 C 0.47039 0.12607 0.31897 0.0
H22 H 0.46438 0.11692 0.34313 0.0
H23 H 0.46785 0.14031 0.3281 0.0
H24 H 0.46356 0.12366 0.28795 0.0
O25 O 0.49934 0.08718 0.42125 0.0
O26 O 0.5277 0.08363 0.40079 0.0
H27 H 0.54123 0.10971 0.26369 0.0
H28 H 0.5333 0.1298 0.23702 0.0
C29 C 0.53559 0.1234 0.26871 0.0
H30 H 0.54564 0.13135 0.28711 0.0
H31 H 0.54717 0.07585 0.3205 0.0
O32 O 0.47146 0.11869 0.42246 0.0
C33 C 0.51336 0.07748 0.41778 0.0
Co34 Co 0.13706 0.24337 0.66927 0.0
Co35 Co 0.14666 0.27744 0.6171 0.0
C36 C 0.12768 0.28165 0.6991 0.0
O37 O 0.12891 0.26457 0.70367 0.0
O38 O 0.13314 0.28946 0.66492 0.0
C39 C 0.1359 0.2194 0.73492 0.0
O40 O 0.14618 0.23226 0.7506 0.0
C41 C 0.1516 0.31 0.56202 0.0
C42 C 0.1744 0.30019 0.52253 0.0
C43 C 0.16318 0.31482 0.52891 0.0
N44 N 0.15594 0.29323 0.57474 0.0
N45 N 0.16969 0.28758 0.55131 0.0
C46 C 0.13594 0.32048 0.57905 0.0
H47 H 0.1262 0.31136 0.59526 0.0
H48 H 0.12911 0.32791 0.55274 0.0
H49 H 0.14094 0.3305 0.60267 0.0
C50 C 0.11887 0.23302 0.58847 0.0
N51 N 0.12863 0.24452 0.61252 0.0
N52 N 0.13238 0.25905 0.59006 0.0
C53 C 0.12487 0.25734 0.55079 0.0
C54 C 0.11612 0.24069 0.54836 0.0
C55 C 0.11184 0.21532 0.6045 0.0
H56 H 0.12338 0.20613 0.61061 0.0
H57 H 0.10474 0.21741 0.6354 0.0
H58 H 0.10244 0.20894 0.58133 0.0
O59 O 0.16336 0.24175 0.67126 0.0
O60 O 0.16951 0.26805 0.6417 0.0
H61 H 0.14101 0.27168 0.50549 0.0
H62 H 0.11819 0.26777 0.48778 0.0
C63 C 0.12671 0.27108 0.51591 0.0
H64 H 0.12299 0.28458 0.52848 0.0
H65 H 0.17565 0.2749 0.55447 0.0
O66 O 0.12906 0.22136 0.69791 0.0
C67 C 0.17462 0.25379 0.66066 0.0
Co68 Co 0.01788 0.87845 0.91036 0.0
Co69 Co 0.98151 0.88654 0.86575 0.0
C70 C 0.9814 0.86484 0.94447 0.0
O71 O -0.0015 0.86703 0.94603 0.0
O72 O 0.97212 0.87111 0.91328 0.0
C73 C 0.04661 0.85539 0.93947 0.0
O74 O 0.03612 0.84182 0.92866 0.0
C75 C 0.94737 0.88945 0.81502 0.0
C76 C 0.95357 0.91482 0.78054 0.0
C77 C 0.94058 0.90152 0.78484 0.0
N78 N 0.96366 0.89547 0.82769 0.0
N79 N 0.96712 0.91071 0.80729 0.0
C80 C 0.93934 0.8719 0.8291 0.0
H81 H 0.94972 0.86329 0.84456 0.0
H82 H 0.93333 0.86472 0.80132 0.0
H83 H 0.92847 0.87458 0.85269 0.0
C84 C 0.02711 0.86406 0.82442 0.0
N85 N 0.01573 0.87212 0.85206 0.0
N86 N -1e-05 0.87446 0.83346 0.0
C87 C 0.00068 0.86732 0.7936 0.0
C88 C 0.01793 0.86035 0.78657 0.0
C89 C 0.04678 0.86111 0.83295 0.0
H90 H 0.05204 0.87172 0.85468 0.0
H91 H 0.04871 0.84775 0.84825 0.0
H92 H 0.05462 0.86136 0.80264 0.0
O93 O 0.01731 0.90447 0.91838 0.0
O94 O 0.99008 0.90942 0.89236 0.0
H95 H 0.98248 0.87948 0.74915 0.0
H96 H 0.98681 0.85586 0.73886 0.0
C97 C 0.98475 0.86612 0.76427 0.0
H98 H 0.97253 0.86259 0.78295 0.0
H99 H 0.979 0.91814 0.81094 0.0
O100 O 0.04126 0.87142 0.93355 0.0
C101 C 0.00429 0.91505 0.91083 0.0
Co102 Co 0.38403 0.75566 0.1567 0.0
Co103 Co 0.37265 0.71797 0.12336 0.0
C104 C 0.39968 0.72134 0.1938 0.0
O105 O 0.39831 0.7385 0.19256 0.0
O106 O 0.39087 0.7114 0.16774 0.0
C107 C 0.40725 0.78594 0.17519 0.0
O108 O 0.42077 0.77472 0.16952 0.0
C109 C 0.37307 0.68335 0.07773 0.0
C110 C 0.34435 0.68103 0.05919 0.0
C111 C 0.36106 0.673 0.05382 0.0
N112 N 0.3639 0.69712 0.09513 0.0
N113 N 0.34667 0.69538 0.08491 0.0
C114 C 0.3928 0.68016 0.08497 0.0
H115 H 0.40081 0.6909 0.06919 0.0
H116 H 0.39704 0.66674 0.07282 0.0
H117 H 0.39572 0.68096 0.11979 0.0
C118 C 0.39253 0.76147 0.0647 0.0
N119 N 0.38646 0.75112 0.09721 0.0
N120 N 0.38185 0.73514 0.08234 0.0
C121 C 0.38503 0.73487 0.03958 0.0
C122 C 0.39197 0.7515 0.02717 0.0
C123 C 0.39957 0.78029 0.06987 0.0
H124 H 0.39011 0.78828 0.08976 0.0
H125 H 0.41283 0.77977 0.08629 0.0
H126 H 0.40147 0.78715 0.03863 0.0
O127 O 0.35864 0.75466 0.17476 0.0
O128 O 0.35113 0.72724 0.15347 0.0
H129 H 0.36791 0.71311 0.01929 0.0
H130 H 0.38028 0.72391 0.97647 0.0
C131 C 0.38095 0.7194 0.01037 0.0
H132 H 0.39178 0.70919 0.0131 0.0
H133 H 0.33663 0.70454 0.09364 0.0
O134 O 0.3912 0.78036 0.17053 0.0
C135 C 0.34722 0.74195 0.17207 0.0
Co136 Co 0.4963 0.86554 0.56997 0.0
Co137 Co 0.52812 0.86736 0.63348 0.0
C138 C 0.53536 0.85367 0.54826 0.0
O139 O 0.51886 0.85732 0.54028 0.0
O140 O 0.5419 0.85575 0.58583 0.0
C141 C 0.48017 0.87121 0.49503 0.0
O142 O 0.49571 0.87971 0.49229 0.0
C143 C 0.55859 0.87122 0.69554 0.0
C144 C 0.54327 0.88371 0.74873 0.0
C145 C 0.56042 0.87857 0.73633 0.0
N146 N 0.54106 0.8721 0.68454 0.0
N147 N 0.53208 0.8797 0.71636 0.0
C148 C 0.57299 0.86325 0.66787 0.0
H149 H 0.56716 0.85286 0.64634 0.0
H150 H 0.58383 0.85718 0.68775 0.0
H151 H 0.57899 0.87407 0.6478 0.0
C152 C 0.47959 0.84387 0.64026 0.0
N153 N 0.49319 0.85332 0.62229 0.0
N154 N 0.50713 0.85341 0.64835 0.0
C155 C 0.50307 0.84343 0.68322 0.0
C156 C 0.48535 0.83725 0.67979 0.0
C157 C 0.46122 0.84215 0.62077 0.0
H158 H 0.4584 0.85386 0.59964 0.0
H159 H 0.46072 0.8297 0.60105 0.0
H160 H 0.45069 0.84124 0.64598 0.0
O161 O 0.49706 0.89146 0.57926 0.0
O162 O 0.52253 0.89256 0.61564 0.0
H163 H 0.51564 0.84864 0.74372 0.0
H164 H 0.5134 0.82509 0.73095 0.0
C165 C 0.51642 0.83862 0.71741 0.0
H166 H 0.53033 0.83867 0.70422 0.0
H167 H 0.51825 0.88236 0.71565 0.0
O168 O 0.47648 0.86246 0.52898 0.0
C169 C 0.50964 0.90044 0.59647 0.0
Co170 Co 0.38776 0.23316 0.83787 0.0
Co171 Co 0.38166 0.26806 0.88957 0.0
C172 C 0.40152 0.27016 0.80837 0.0
O173 O 0.39839 0.25334 0.80363 0.0
O174 O 0.39669 0.27846 0.84234 0.0
C175 C 0.40983 0.20837 0.79443 0.0
O176 O 0.42253 0.22018 0.80341 0.0
C177 C 0.37755 0.30267 0.93704 0.0
C178 C 0.35931 0.29325 0.98855 0.0
C179 C 0.3681 0.30842 0.97317 0.0
N180 N 0.37454 0.2849 0.93201 0.0
N181 N 0.36347 0.27946 0.96257 0.0
C182 C 0.38798 0.31392 0.90582 0.0
H183 H 0.38596 0.30875 0.87283 0.0
H184 H 0.40258 0.31301 0.91349 0.0
H185 H 0.38368 0.32825 0.90709 0.0
C186 C 0.40442 0.221 0.91909 0.0
N187 N 0.39586 0.23337 0.89493 0.0
N188 N 0.39399 0.24839 0.91689 0.0
C189 C 0.40187 0.2462 0.95564 0.0
C190 C 0.40859 0.22869 0.95844 0.0
C191 C 0.40951 0.20259 0.90342 0.0
H192 H 0.39816 0.19664 0.88504 0.0
H193 H 0.42132 0.20381 0.8818 0.0
H194 H 0.41325 0.19338 0.9299 0.0
O195 O 0.36157 0.23426 0.83459 0.0
O196 O 0.35788 0.26092 0.8649 0.0
H197 H 0.38964 0.26069 0.00703 0.0
H198 H 0.41356 0.25786 0.01295 0.0
C199 C 0.40265 0.2605 0.98946 0.0
H200 H 0.40471 0.27392 0.97448 0.0
H201 H 0.35874 0.26625 0.96561 0.0
O202 O 0.39406 0.21086 0.80882 0.0
C203 C 0.35149 0.24727 0.84545 0.0
Co204 Co 0.01569 0.12809 0.08748 0.0
Co205 Co 0.98162 0.12037 0.14165 0.0
C206 C 0.9774 0.13838 0.05842 0.0
O207 O 0.99444 0.13666 0.05387 0.0
O208 O 0.96953 0.13333 0.09292 0.0
C209 C 0.03895 0.12553 0.02128 0.0
O210 O 0.02574 0.11461 0.01038 0.0
C211 C 0.9489 0.11542 0.19669 0.0
C212 C 0.95955 0.09374 0.23839 0.0
C213 C 0.94427 0.10388 0.23025 0.0
N214 N 0.96611 0.11201 0.18566 0.0
N215 N 0.9723 0.09903 0.21065 0.0
C216 C 0.9377 0.12994 0.17672 0.0
H217 H 0.9465 0.1402 0.16135 0.0
H218 H 0.92898 0.13646 0.20113 0.0
H219 H 0.92894 0.12389 0.15169 0.0
C220 C 0.0274 0.14688 0.16642 0.0
N221 N 0.01531 0.13741 0.14336 0.0
N222 N 0.00079 0.13448 0.16659 0.0
C223 C 0.00313 0.14228 0.20536 0.0
C224 C 0.02016 0.15031 0.20667 0.0
C225 C 0.04538 0.15275 0.14954 0.0
H226 H 0.05419 0.14075 0.14595 0.0
H227 H 0.04365 0.15886 0.11733 0.0
H228 H 0.05199 0.16266 0.17112 0.0
O229 O 0.01636 0.10172 0.0887 0.0
O230 O 0.98994 0.09682 0.11879 0.0
H231 H 0.98968 0.12731 0.25427 0.0
H232 H 0.99288 0.15076 0.26725 0.0
C233 C 0.98966 0.1412 0.24102 0.0
H234 H 0.97594 0.14401 0.22841 0.0
H235 H 0.98532 0.09372 0.20858 0.0
O236 O 0.0376 0.13455 0.05577 0.0
C237 C 0.00402 0.09099 0.10031 0.0
Co238 Co 0.13424 0.7582 0.33049 0.0
Co239 Co 0.13939 0.72486 0.38855 0.0
C240 C 0.12417 0.71946 0.30321 0.0
O241 O 0.12635 0.73639 0.29786 0.0
O242 O 0.128 0.712 0.33899 0.0
C243 C 0.13724 0.77707 0.25837 0.0
O244 O 0.14672 0.76235 0.25179 0.0
C245 C 0.14254 0.69248 0.44499 0.0
C246 C 0.16107 0.70401 0.49342 0.0
C247 C 0.15234 0.68822 0.48179 0.0
N248 N 0.14563 0.70992 0.43549 0.0
N249 N 0.15668 0.71666 0.46459 0.0
C250 C 0.12988 0.68069 0.42026 0.0
H251 H 0.11988 0.68903 0.40274 0.0
H252 H 0.12273 0.67122 0.442 0.0
H253 H 0.13769 0.67274 0.39651 0.0
C254 C 0.11329 0.77149 0.4052 0.0
N255 N 0.12311 0.75894 0.3845 0.0
N256 N 0.12468 0.74451 0.40871 0.0
C257 C 0.11544 0.74724 0.44542 0.0
C258 C 0.10796 0.76453 0.44473 0.0
C259 C 0.11025 0.79015 0.38833 0.0
H260 H 0.12162 0.79425 0.36734 0.0
H261 H 0.09768 0.79028 0.36899 0.0
H262 H 0.10888 0.80001 0.41489 0.0
O263 O 0.1604 0.75869 0.33649 0.0
O264 O 0.16391 0.73281 0.37028 0.0
H265 H 0.12472 0.73363 0.50158 0.0
H266 H 0.10047 0.7354 0.4978 0.0
C267 C 0.11306 0.73314 0.47929 0.0
H268 H 0.1126 0.71954 0.46447 0.0
H269 H 0.16142 0.72993 0.46435 0.0
O270 O 0.12904 0.77901 0.29385 0.0
C271 C 0.17053 0.74657 0.3518 0.0
Co272 Co 0.88915 0.74295 0.34805 0.0
Co273 Co 0.87905 0.77826 0.39451 0.0
C274 C 0.90042 0.78056 0.31593 0.0
O275 O 0.89902 0.76343 0.31379 0.0
O276 O 0.89386 0.78925 0.34764 0.0
C277 C 0.91596 0.71965 0.31759 0.0
O278 O 0.92673 0.73224 0.33267 0.0
C279 C 0.8713 0.81291 0.43952 0.0
C280 C 0.85261 0.80253 0.48902 0.0
C281 C 0.86077 0.81818 0.47438 0.0
N282 N 0.8695 0.79497 0.43455 0.0
N283 N 0.85815 0.78895 0.46388 0.0
C284 C 0.88186 0.82464 0.40958 0.0
H285 H 0.88118 0.81915 0.37658 0.0
H286 H 0.89623 0.82476 0.41968 0.0
H287 H 0.87659 0.83865 0.40953 0.0
C288 C 0.90359 0.7334 0.43354 0.0
N289 N 0.89533 0.74478 0.40622 0.0
N290 N 0.8924 0.76028 0.42546 0.0
C291 C 0.8995 0.7595 0.46535 0.0
C292 C 0.90668 0.74237 0.47184 0.0
C293 C 0.90904 0.71449 0.42256 0.0
H294 H 0.89955 0.70864 0.39888 0.0
H295 H 0.92283 0.71467 0.40873 0.0
H296 H 0.90935 0.70572 0.45129 0.0
O297 O 0.86314 0.74168 0.34019 0.0
O298 O 0.85668 0.76837 0.36777 0.0
H299 H 0.88608 0.77456 0.51405 0.0
H300 H 0.91013 0.77338 0.52077 0.0
C301 C 0.89917 0.77473 0.49678 0.0
H302 H 0.90046 0.78782 0.47977 0.0
H303 H 0.85428 0.77546 0.46688 0.0
O304 O 0.89906 0.72123 0.32253 0.0
C305 C 0.85185 0.754 0.34863 0.0
Co306 Co 0.62999 0.25303 0.83892 0.0
Co307 Co 0.63891 0.21576 0.87876 0.0
C308 C 0.61087 0.2194 0.80981 0.0
O309 O 0.61359 0.23638 0.80742 0.0
O310 O 0.61939 0.20966 0.83689 0.0
C311 C 0.61164 0.28538 0.80921 0.0
O312 O 0.59649 0.27615 0.81059 0.0
C313 C 0.63722 0.18356 0.93427 0.0
C314 C 0.66612 0.1762 0.93684 0.0
C315 C 0.64935 0.17161 0.95288 0.0
N316 N 0.64652 0.19487 0.90894 0.0
N317 N 0.66372 0.19014 0.90993 0.0
C318 C 0.6171 0.18384 0.93882 0.0
H319 H 0.61151 0.19672 0.92641 0.0
H320 H 0.61294 0.18179 0.97257 0.0
H321 H 0.61135 0.17255 0.91985 0.0
C322 C 0.62223 0.26231 0.92863 0.0
N323 N 0.62782 0.25049 0.89875 0.0
N324 N 0.63185 0.23499 0.91702 0.0
C325 C 0.62909 0.23668 0.95977 0.0
C326 C 0.62285 0.25401 0.96837 0.0
C327 C 0.61492 0.28064 0.91842 0.0
H328 H 0.6036 0.27921 0.89547 0.0
H329 H 0.60984 0.28779 0.94714 0.0
H330 H 0.62562 0.28888 0.90303 0.0
O331 O 0.65486 0.24916 0.8195 0.0
O332 O 0.66065 0.22213 0.84554 0.0
H333 H 0.63553 0.22848 0.02423 0.0
H334 H 0.62088 0.21352 0.99536 0.0
C335 C 0.63287 0.22238 0.99235 0.0
H336 H 0.64467 0.21421 0.98253 0.0
H337 H 0.674 0.19686 0.89354 0.0
O338 O 0.62617 0.27801 0.82141 0.0
C339 C 0.66535 0.23581 0.82387 0.0
Co340 Co 0.64089 0.73805 0.15817 0.0
Co341 Co 0.64892 0.77257 0.10676 0.0
C342 C 0.62988 0.77612 0.18796 0.0
O343 O 0.63206 0.75914 0.19204 0.0
O344 O 0.63489 0.78431 0.15394 0.0
C345 C 0.61608 0.71646 0.20127 0.0
O346 O 0.60481 0.72889 0.18764 0.0
C347 C 0.65255 0.80536 0.05228 0.0
C348 C 0.67607 0.79702 0.0133 0.0
C349 C 0.66406 0.81103 0.01977 0.0
N350 N 0.65771 0.78878 0.06463 0.0
N351 N 0.67186 0.78399 0.04148 0.0
C352 C 0.63618 0.81481 0.06905 0.0
H353 H 0.62688 0.80506 0.08461 0.0
H354 H 0.62908 0.82196 0.04272 0.0
H355 H 0.64042 0.82497 0.09317 0.0
C356 C 0.62322 0.72703 0.07717 0.0
N357 N 0.63265 0.73878 0.10129 0.0
N358 N 0.63521 0.75379 0.07964 0.0
C359 C 0.62691 0.75225 0.04123 0.0
C360 C 0.61913 0.73518 0.03837 0.0
C361 C 0.61737 0.70873 0.09206 0.0
H362 H 0.62787 0.70273 0.11299 0.0
H363 H 0.60471 0.71007 0.11076 0.0
H364 H 0.61471 0.69956 0.06472 0.0
O365 O 0.66706 0.73699 0.16119 0.0
O366 O 0.67199 0.76364 0.13181 0.0
H367 H 0.61743 0.76334 0.9811 0.0
H368 H 0.62207 0.77965 0.0231 0.0
C369 C 0.62652 0.76683 0.00812 0.0
H370 H 0.64038 0.76896 0.99558 0.0
H371 H 0.67848 0.77164 0.0445 0.0
O372 O 0.63232 0.71689 0.18871 0.0
C373 C 0.67775 0.74958 0.15068 0.0
Co374 Co 0.87761 0.25045 0.6495 0.0
Co375 Co 0.87271 0.21472 0.60054 0.0
C376 C 0.88998 0.21345 0.68433 0.0
O377 O 0.88709 0.2304 0.68617 0.0
O378 O 0.88576 0.20443 0.65092 0.0
C379 C 0.90237 0.27439 0.68306 0.0
O380 O 0.91345 0.26238 0.6667 0.0
C381 C 0.86607 0.17959 0.55733 0.0
C382 C 0.85217 0.18967 0.49932 0.0
C383 C 0.8573 0.17401 0.52017 0.0
N384 N 0.86604 0.19773 0.55808 0.0
N385 N 0.85763 0.20361 0.52347 0.0
C386 C 0.87291 0.16808 0.59321 0.0
H387 H 0.87001 0.17464 0.62441 0.0
H388 H 0.88777 0.16668 0.59018 0.0
H389 H 0.86663 0.15448 0.59257 0.0
C390 C 0.89598 0.2612 0.56905 0.0
N391 N 0.88695 0.24924 0.59347 0.0
N392 N 0.8864 0.23358 0.57386 0.0
C393 C 0.89585 0.23485 0.53692 0.0
C394 C 0.90231 0.25246 0.53263 0.0
C395 C 0.89718 0.28098 0.57866 0.0
H396 H 0.88569 0.28524 0.59905 0.0
H397 H 0.90996 0.28387 0.59585 0.0
H398 H 0.89713 0.28896 0.54854 0.0
O399 O 0.85135 0.25017 0.64968 0.0
O400 O 0.84858 0.22317 0.62033 0.0
H401 H 0.88927 0.21878 0.48235 0.0
H402 H 0.91309 0.22069 0.49264 0.0
C403 C 0.89964 0.21922 0.50796 0.0
H404 H 0.89912 0.20637 0.52618 0.0
H405 H 0.85535 0.21722 0.51674 0.0
O406 O 0.88552 0.27243 0.67788 0.0
C407 C 0.8416 0.23705 0.63763 0.0
Co408 Co 0.00912 0.62097 0.90157 0.0
Co409 Co 0.04412 0.61154 0.8529 0.0
C410 C 0.04684 0.63159 0.93357 0.0
O411 O 0.02974 0.63015 0.93607 0.0
O412 O 0.05536 0.62552 0.90106 0.0
C413 C 0.98712 0.64683 0.93952 0.0
O414 O -8e-05 0.65767 0.92571 0.0
C415 C 0.07893 0.60455 0.80839 0.0
C416 C 0.06897 0.58738 0.75544 0.0
C417 C 0.08452 0.59493 0.77239 0.0
N418 N 0.06091 0.60288 0.81185 0.0
N419 N 0.05513 0.5924 0.78048 0.0
C420 C 0.09044 0.61398 0.84086 0.0
H421 H 0.08491 0.61173 0.87344 0.0
H422 H 0.09026 0.6287 0.83439 0.0
H423 H 0.10456 0.60901 0.83987 0.0
C424 C -0.00085 0.63731 0.81869 0.0
N425 N 0.01068 0.62836 0.8443 0.0
N426 N 0.02591 0.62548 0.8238 0.0
C427 C 0.02475 0.63321 0.78461 0.0
C428 C 0.00767 0.6408 0.78 0.0
C429 C 0.98063 0.64317 0.83203 0.0
H430 H 0.9745 0.63293 0.85348 0.0
H431 H 0.98167 0.65613 0.84964 0.0
H432 H 0.97163 0.64535 0.80418 0.0
O433 O 0.00782 0.59489 0.90629 0.0
O434 O 0.03432 0.58866 0.87732 0.0
H435 H 0.03885 0.62031 0.73355 0.0
H436 H 0.03815 0.64446 0.72917 0.0
C437 C 0.03956 0.63308 0.75202 0.0
H438 H 0.05289 0.6338 0.76811 0.0
H439 H 0.04165 0.58875 0.77606 0.0
O440 O 0.9877 0.63026 0.9297 0.0
C441 C 0.01996 0.58363 0.89623 0.0
Co442 Co 0.52814 0.37208 0.42221 0.0
Co443 Co 0.49267 0.37787 0.37201 0.0
C444 C 0.49134 0.35744 0.4522 0.0
O445 O 0.50821 0.36062 0.45628 0.0
O446 O 0.48266 0.36256 0.41897 0.0
C447 C 0.55893 0.35217 0.45693 0.0
O448 O 0.5519 0.33714 0.44204 0.0
C449 C 0.45985 0.37889 0.3162 0.0
C450 C 0.46622 0.40392 0.2805 0.0
C451 C 0.45351 0.39035 0.28422 0.0
N452 N 0.47563 0.38554 0.33055 0.0
N453 N 0.47921 0.40055 0.30932 0.0
C454 C 0.45191 0.36135 0.33062 0.0
H455 H 0.46228 0.353 0.34693 0.0
H456 H 0.44621 0.35388 0.3029 0.0
H457 H 0.44081 0.36408 0.3536 0.0
C458 C 0.54028 0.35748 0.33774 0.0
N459 N 0.52787 0.36484 0.36409 0.0
N460 N 0.51241 0.3662 0.34359 0.0
C461 C 0.51429 0.35893 0.30415 0.0
C462 C 0.53203 0.35323 0.29911 0.0
C463 C 0.5596 0.35425 0.34944 0.0
H464 H 0.56407 0.36409 0.37396 0.0
H465 H 0.56106 0.34034 0.36201 0.0
H466 H 0.56854 0.35548 0.32113 0.0
O467 O 0.5264 0.39814 0.42672 0.0
O468 O 0.4996 0.40158 0.39719 0.0
H469 H 0.49577 0.3716 0.26124 0.0
H470 H 0.50354 0.34983 0.24326 0.0
C471 C 0.49945 0.35779 0.27175 0.0
H472 H 0.48735 0.35159 0.28667 0.0
H473 H 0.49078 0.40836 0.31396 0.0
O474 O 0.551 0.36707 0.45085 0.0
C475 C 0.51325 0.40808 0.41635 0.0
Co476 Co 0.00394 0.37467 0.09199 0.0
Co477 Co 0.0375 0.38311 0.14623 0.0
C478 C 0.043 0.36578 0.06422 0.0
O479 O 0.02599 0.36752 0.05916 0.0
O480 O 0.05063 0.37018 0.09942 0.0
C481 C 0.98326 0.34845 0.05075 0.0
O482 O 0.99588 0.33774 0.06587 0.0
C483 C 0.06912 0.38954 0.20359 0.0
C484 C 0.05653 0.40945 0.24721 0.0
C485 C 0.07244 0.40032 0.23918 0.0
N486 N 0.05199 0.39235 0.19111 0.0
N487 N 0.04466 0.40436 0.21708 0.0
C488 C 0.08143 0.3759 0.18382 0.0
H489 H 0.07352 0.36555 0.16624 0.0
H490 H 0.08986 0.36934 0.20874 0.0
H491 H 0.09053 0.38281 0.16081 0.0
C492 C 0.9926 0.35562 0.17094 0.0
N493 N 0.00432 0.36568 0.14821 0.0
N494 N 0.01903 0.3683 0.17082 0.0
C495 C 0.01738 0.35945 0.20848 0.0
C496 C 0.00053 0.35102 0.20982 0.0
C497 C 0.9737 0.35158 0.1568 0.0
H498 H 0.96866 0.36245 0.13551 0.0
H499 H 0.97353 0.33867 0.13885 0.0
H500 H 0.96456 0.35027 0.18482 0.0
O501 O 0.00161 0.40073 0.0906 0.0
O502 O 0.02801 0.40594 0.12095 0.0
H503 H 0.0314 0.37016 0.26256 0.0
H504 H 0.03078 0.34582 0.26078 0.0
C505 C 0.03212 0.35823 0.24112 0.0
H506 H 0.04548 0.3583 0.22505 0.0
H507 H 0.03136 0.4089 0.21454 0.0
O508 O 0.98364 0.36508 0.06006 0.0
C509 C 0.01395 0.41157 0.1018 0.0
Co510 Co 0.51932 0.62358 0.59898 0.0
Co511 Co 0.48227 0.61339 0.63706 0.0
C512 C 0.48353 0.63711 0.56176 0.0
O513 O 0.50066 0.63536 0.56217 0.0
O514 O 0.47377 0.62974 0.59057 0.0
C515 C 0.54493 0.65019 0.57824 0.0
O516 O 0.53216 0.66116 0.59154 0.0
C517 C 0.44704 0.61067 0.68112 0.0
C518 C 0.4485 0.58249 0.7043 0.0
C519 C 0.43755 0.59762 0.70404 0.0
N520 N 0.4628 0.60346 0.66859 0.0
N521 N 0.46347 0.58657 0.68209 0.0
C522 C 0.44204 0.62998 0.67381 0.0
H523 H 0.45395 0.63785 0.66293 0.0
H524 H 0.4365 0.63598 0.70362 0.0
H525 H 0.43152 0.63071 0.64856 0.0
C526 C 0.52591 0.63641 0.68728 0.0
N527 N 0.51547 0.6283 0.6577 0.0
N528 N 0.49944 0.62506 0.67415 0.0
C529 C 0.49909 0.63156 0.71472 0.0
C530 C 0.51585 0.63918 0.72404 0.0
C531 C 0.54548 0.64088 0.68143 0.0
H532 H 0.55187 0.63129 0.65882 0.0
H533 H 0.5468 0.6548 0.66881 0.0
H534 H 0.55269 0.64031 0.7126 0.0
O535 O 0.52007 0.59775 0.5869 0.0
O536 O 0.4925 0.59155 0.60945 0.0
H537 H 0.47675 0.6179 0.74376 0.0
H538 H 0.48592 0.63615 0.77569 0.0
C539 C 0.4827 0.63163 0.74269 0.0
H540 H 0.47252 0.64089 0.72879 0.0
H541 H 0.47434 0.57791 0.67687 0.0
O542 O 0.54239 0.6333 0.58013 0.0
C543 C 0.50719 0.58668 0.59193 0.0
C544 C 0.52984 0.05053 0.44577 0.0
C545 C 0.51343 0.05924 0.43678 0.0
C546 C 0.53 0.03402 0.4673 0.0
C547 C 0.50118 0.00491 0.53599 0.0
H548 H 0.53599 0.96807 0.50524 0.0
C549 C 0.49449 0.92935 0.57695 0.0
C550 C 0.51011 0.92016 0.59016 0.0
C551 C 0.4954 0.94744 0.56479 0.0
C552 C 0.52638 0.97835 0.51459 0.0
H553 H 0.4843 0.05718 0.4419 0.0
H554 H 0.48453 0.02805 0.47792 0.0
H555 H 0.53641 0.99696 0.46803 0.0
H556 H 0.53877 0.92291 0.60303 0.0
H557 H 0.54039 0.95455 0.581 0.0
H558 H 0.49071 0.98583 0.5813 0.0
C559 C 0.49732 0.03423 0.46968 0.0
C560 C 0.5266 0.99491 0.4933 0.0
C561 C 0.49717 0.05086 0.44864 0.0
C562 C 0.52651 0.92965 0.593 0.0
C563 C 0.52747 0.94769 0.58021 0.0
C564 C 0.50083 0.98825 0.55688 0.0
C565 C 0.51374 0.02574 0.47983 0.0
C566 C 0.5139 0.00834 0.50346 0.0
C567 C 0.512 0.95659 0.56511 0.0
C568 C 0.51334 0.9748 0.54611 0.0
H569 H 0.54261 0.05672 0.43737 0.0
H570 H 0.54291 0.02799 0.47503 0.0
H571 H 0.49146 0.01507 0.54532 0.0
H572 H 0.48165 0.9224 0.57463 0.0
H573 H 0.4833 0.95399 0.55304 0.0
C574 C 0.32402 0.23094 0.81967 0.0
C575 C 0.33243 0.24717 0.83177 0.0
C576 C 0.30668 0.23107 0.80212 0.0
C577 C 0.27755 0.25902 0.73776 0.0
H578 H 0.23833 0.22887 0.77842 0.0
C579 C 0.20488 0.26721 0.67584 0.0
C580 C 0.19364 0.25196 0.67404 0.0
C581 C 0.22216 0.26599 0.69337 0.0
C582 C 0.24922 0.23712 0.76608 0.0
H583 H 0.32912 0.27621 0.83612 0.0
H584 H 0.29891 0.27642 0.8046 0.0
H585 H 0.26748 0.22796 0.81477 0.0
H586 H 0.19202 0.22324 0.68701 0.0
H587 H 0.22247 0.22092 0.71591 0.0
H588 H 0.25969 0.26783 0.68832 0.0
C589 C 0.30576 0.26364 0.80895 0.0
C590 C 0.26584 0.23669 0.78718 0.0
C591 C 0.32296 0.26348 0.82722 0.0
C592 C 0.20033 0.23527 0.68831 0.0
C593 C 0.21773 0.23399 0.70524 0.0
C594 C 0.26106 0.25924 0.7162 0.0
C595 C 0.29761 0.24746 0.79571 0.0
C596 C 0.28005 0.24777 0.77343 0.0
C597 C 0.22871 0.24941 0.70888 0.0
C598 C 0.24661 0.24843 0.73032 0.0
H599 H 0.33098 0.21816 0.82293 0.0
H600 H 0.30065 0.21844 0.79204 0.0
H601 H 0.28847 0.26747 0.7262 0.0
H602 H 0.20007 0.28029 0.66537 0.0
H603 H 0.23008 0.27821 0.69616 0.0
C604 C 0.98969 0.061 0.08684 0.0
C605 C 0.00528 0.07177 0.08829 0.0
C606 C 0.99039 0.04359 0.06991 0.0
C607 C 0.01839 0.01568 0.9973 0.0
H608 H 0.98671 0.97739 0.0365 0.0
C609 C 0.02168 0.9414 0.93922 0.0
C610 C 0.00509 0.93374 0.927 0.0
C611 C 0.02224 0.95841 0.95839 0.0
C612 C 0.99554 0.98803 0.02517 0.0
H613 H 0.03407 0.07238 0.07567 0.0
H614 H 0.03548 0.04173 0.04783 0.0
H615 H 0.98736 0.00604 0.07495 0.0
H616 H 0.97613 0.93803 0.92441 0.0
H617 H 0.97715 0.96767 0.95864 0.0
H618 H 0.02684 -0.00266 0.94813 0.0
C619 C 0.02255 0.04693 0.05825 0.0
C620 C 0.9959 0.00445 0.04705 0.0
C621 C 0.02179 0.06445 0.07458 0.0
C622 C 0.98912 0.9436 0.93337 0.0
C623 C 0.98967 0.96047 0.9532 0.0
C624 C 0.01823 -0.00085 0.97586 0.0
C625 C 0.00677 0.03645 0.05466 0.0
C626 C 0.00719 0.01856 0.03313 0.0
C627 C 0.0062 0.9679 0.9663 0.0
C628 C 0.00666 0.98528 0.98935 0.0
H629 H 0.97674 0.0663 0.09694 0.0
H630 H 0.97792 0.03605 0.0672 0.0
H631 H 0.02699 0.02633 0.98508 0.0
H632 H 0.03421 0.93413 0.93461 0.0
H633 H 0.03515 0.96389 0.96832 0.0
C634 C 0.31901 0.7285 0.20214 0.0
C635 C 0.32948 0.74387 0.1931 0.0
C636 C 0.30275 0.7301 0.22433 0.0
C637 C 0.26592 0.76071 0.24583 0.0
H638 H 0.25639 0.72981 0.34367 0.0
C639 C 0.19807 0.76442 0.33352 0.0
C640 C 0.19017 0.74783 0.34463 0.0
C641 C 0.21618 0.76528 0.32136 0.0
C642 C 0.25876 0.73843 0.3162 0.0
H643 H 0.33095 0.773 0.19946 0.0
H644 H 0.30216 0.77579 0.23738 0.0
H645 H 0.2857 0.72848 0.30804 0.0
H646 H 0.19516 0.71925 0.35345 0.0
H647 H 0.22652 0.72057 0.33074 0.0
H648 H 0.23883 0.77006 0.25224 0.0
C649 C 0.30674 0.76253 0.22762 0.0
C650 C 0.27555 0.7377 0.29597 0.0
C651 C 0.32318 0.76092 0.206 0.0
C652 C 0.20091 0.73224 0.34519 0.0
C653 C 0.21895 0.73304 0.33235 0.0
C654 C 0.24904 0.76125 0.2656 0.0
C655 C 0.29651 0.74711 0.23732 0.0
C656 C 0.27918 0.74869 0.26036 0.0
C657 C 0.22669 0.74951 0.31932 0.0
C658 C 0.24517 0.74998 0.30077 0.0
H659 H 0.32353 0.71517 0.19278 0.0
H660 H 0.29496 0.71804 0.23104 0.0
H661 H 0.26838 0.7692 0.21815 0.0
H662 H 0.19016 0.77671 0.33331 0.0
H663 H 0.22181 0.77826 0.31263 0.0
C664 C 0.8226 0.76783 0.3264 0.0
C665 C 0.83323 0.75233 0.33238 0.0
C666 C 0.8059 0.76661 0.30594 0.0
C667 C 0.76871 0.73676 0.28002 0.0
H668 H 0.76199 0.7677 0.18098 0.0
C669 C 0.70432 0.73218 0.17775 0.0
C670 C 0.69682 0.7486 0.16408 0.0
C671 C 0.7217 0.73166 0.19501 0.0
C672 C 0.76352 0.75912 0.20884 0.0
H673 H 0.83432 0.7233 0.32368 0.0
H674 H 0.8048 0.72116 0.28887 0.0
H675 H 0.79018 0.76906 0.22115 0.0
H676 H 0.70182 0.77728 0.15655 0.0
H677 H 0.73179 0.77652 0.1879 0.0
H678 H 0.74187 0.72728 0.26907 0.0
C679 C 0.80958 0.73423 0.29955 0.0
C680 C 0.77968 0.75988 0.2317 0.0
C681 C 0.82644 0.73548 0.31935 0.0
C682 C 0.70727 0.76439 0.16659 0.0
C683 C 0.72452 0.76393 0.18443 0.0
C684 C 0.7524 0.7362 0.2576 0.0
C685 C 0.7994 0.74984 0.29183 0.0
C686 C 0.78235 0.74879 0.26757 0.0
C687 C 0.73185 0.74761 0.19954 0.0
C688 C 0.74957 0.74745 0.22185 0.0
H689 H 0.82748 0.78102 0.33598 0.0
H690 H 0.79815 0.7788 0.30064 0.0
H691 H 0.77049 0.72814 0.30775 0.0
H692 H 0.69664 0.71975 0.17582 0.0
H693 H 0.72707 0.71879 0.20536 0.0
C694 C 0.8121 0.22111 0.6462 0.0
C695 C 0.82207 0.23726 0.64693 0.0
C696 C 0.79422 0.22083 0.66023 0.0
C697 C 0.75431 0.24824 0.68175 0.0
H698 H 0.74547 0.21414 0.77372 0.0
C699 C 0.69062 0.25211 0.78741 0.0
C700 C 0.683 0.23588 0.80201 0.0
C701 C 0.70715 0.25208 0.76591 0.0
C702 C 0.74753 0.22351 0.74755 0.0
H703 H 0.82081 0.26597 0.6604 0.0
H704 H 0.78939 0.26546 0.68429 0.0
H705 H 0.77455 0.21425 0.73754 0.0
H706 H 0.68649 0.20684 0.80487 0.0
H707 H 0.71495 0.20669 0.7661 0.0
H708 H 0.72722 0.25735 0.69112 0.0
C709 C 0.79552 0.25305 0.67317 0.0
C710 C 0.76422 0.22359 0.72695 0.0
C711 C 0.8135 0.2533 0.65972 0.0
C712 C 0.69215 0.2196 0.79444 0.0
C713 C 0.70852 0.21954 0.77235 0.0
C714 C 0.73747 0.24799 0.70191 0.0
C715 C 0.78592 0.23673 0.67458 0.0
C716 C 0.7678 0.23605 0.69416 0.0
C717 C 0.71628 0.23578 0.75796 0.0
C718 C 0.73393 0.23572 0.73536 0.0
H719 H 0.8183 0.20853 0.63646 0.0
H720 H 0.78699 0.20811 0.66076 0.0
H721 H 0.75677 0.2579 0.65634 0.0
H722 H 0.6839 0.26488 0.79296 0.0
H723 H 0.71287 0.26489 0.75606 0.0
C724 C 0.00113 0.55797 0.92268 0.0
C725 C 0.01809 0.56478 0.91062 0.0
C726 C -0.00034 0.54094 0.94149 0.0
C727 C 0.00165 0.51137 0.00763 0.0
H728 H 0.03406 0.47205 0.97958 0.0
C729 C 0.99676 0.43778 0.07207 0.0
C730 C 0.01303 0.43053 0.08759 0.0
C731 C 0.99654 0.45473 0.0525 0.0
C732 C 0.02501 0.483 0.98782 0.0
H733 H 0.04673 0.55893 0.90753 0.0
H734 H 0.0443 0.52956 0.94161 0.0
H735 H 0.03473 0.49955 0.93677 0.0
H736 H 0.04165 0.43569 0.09663 0.0
H737 H 0.04123 0.46515 0.06172 0.0
H738 H 0.99164 0.49437 0.058 0.0
C739 C 0.03204 0.53709 0.93567 0.0
C740 C 0.02541 0.49876 0.96343 0.0
C741 C 0.03346 0.55398 0.91622 0.0
C742 C 0.02889 0.4409 0.08501 0.0
C743 C 0.02871 0.45769 0.06482 0.0
C744 C 0.00106 0.49545 0.03155 0.0
C745 C 0.01515 0.5305 0.94927 0.0
C746 C 0.01389 0.51324 0.97334 0.0
C747 C 0.01262 0.46452 0.04759 0.0
C748 C 0.0129 0.48127 0.02213 0.0
H749 H 0.98902 0.56595 0.91834 0.0
H750 H 0.98639 0.53612 0.95054 0.0
H751 H 0.99281 0.52234 0.01674 0.0
H752 H 0.98432 0.43012 0.07378 0.0
H753 H 0.98398 0.4598 0.03941 0.0
C754 C 0.52977 0.43565 0.4405 0.0
C755 C 0.51349 0.42729 0.42869 0.0
C756 C 0.52988 0.45342 0.45521 0.0
C757 C 0.50162 0.49479 0.46255 0.0
H758 H 0.53345 0.50584 0.55781 0.0
C759 C 0.49324 0.55754 0.56919 0.0
C760 C 0.50878 0.56817 0.57489 0.0
C761 C 0.49445 0.54055 0.55023 0.0
C762 C 0.52461 0.50295 0.53099 0.0
H763 H 0.48459 0.43106 0.42218 0.0
H764 H 0.48465 0.46185 0.44923 0.0
H765 H 0.53429 0.47593 0.52537 0.0
H766 H 0.53785 0.56912 0.56639 0.0
H767 H 0.53996 0.53913 0.53402 0.0
H768 H 0.49152 0.52171 0.46952 0.0
C769 C 0.49743 0.45488 0.44619 0.0
C770 C 0.52514 0.48587 0.5122 0.0
C771 C 0.49737 0.43718 0.43087 0.0
C772 C 0.52564 0.56125 0.56232 0.0
C773 C 0.52687 0.54411 0.54392 0.0
C774 C 0.50093 0.51178 0.48177 0.0
C775 C 0.51367 0.46315 0.45903 0.0
C776 C 0.51359 0.48156 0.47784 0.0
C777 C 0.51125 0.53376 0.5372 0.0
C778 C 0.51236 0.51595 0.51624 0.0
H779 H 0.54245 0.42841 0.4387 0.0
H780 H 0.54268 0.45949 0.46386 0.0
H781 H 0.49279 0.49207 0.43565 0.0
H782 H 0.48005 0.56249 0.57847 0.0
H783 H 0.48225 0.53269 0.54576 0.0
C784 C 0.48206 0.12898 0.21483 0.0
C785 C 0.49565 0.13618 0.241 0.0
C786 C 0.47447 0.13932 0.18201 0.0
C787 C 0.46854 0.18725 0.14941 0.0
H788 H 0.44795 0.1653 0.04773 0.0
C789 C 0.43516 0.22695 0.00814 0.0
C790 C 0.41852 0.22003 0.99413 0.0
C791 C 0.44544 0.21751 0.03846 0.0
C792 C 0.45358 0.1716 0.07609 0.0
H793 H 0.51283 0.15934 0.25201 0.0
H794 H 0.5002 0.17724 0.19333 0.0
H795 H 0.46574 0.14697 0.09685 0.0
H796 H 0.39917 0.19839 0.0018 0.0
H797 H 0.41725 0.18168 0.05411 0.0
H798 H 0.45654 0.21199 0.12773 0.0
C799 C 0.4949 0.16382 0.19894 0.0
C800 C 0.46374 0.16109 0.10439 0.0
C801 C 0.50235 0.1535 0.23214 0.0
C802 C 0.41205 0.20387 0.01187 0.0
C803 C 0.42241 0.19432 0.0416 0.0
C804 C 0.45859 0.19783 0.12067 0.0
C805 C 0.4805 0.15706 0.17415 0.0
C806 C 0.4711 0.16866 0.14191 0.0
C807 C 0.43934 0.20088 0.05471 0.0
C808 C 0.45074 0.19003 0.08414 0.0
H809 H 0.47682 0.11556 0.22084 0.0
H810 H 0.46333 0.13362 0.1641 0.0
H811 H 0.47371 0.19357 0.17818 0.0
H812 H 0.4405 0.23929 0.99452 0.0
H813 H 0.45846 0.22284 0.04795 0.0
C814 C 0.04577 0.1532 0.25838 0.0
C815 C 0.02916 0.15956 0.24302 0.0
C816 C 0.05486 0.16234 0.29118 0.0
C817 C 0.04857 0.19688 0.3771 0.0
H818 H 0.10085 0.19879 0.37278 0.0
C819 C 0.0914 0.24097 0.49327 0.0
C820 C 0.10654 0.23252 0.5114 0.0
C821 C 0.08183 0.23265 0.45987 0.0
C822 C 0.08626 0.19828 0.37463 0.0
H823 H 0.00899 0.18046 0.24949 0.0
H824 H 0.02494 0.19671 0.30639 0.0
H825 H 0.0843 0.18323 0.31636 0.0
H826 H 0.12371 0.20896 0.50884 0.0
H827 H 0.10718 0.19446 0.45028 0.0
H828 H 0.05065 0.2122 0.43523 0.0
C829 C 0.03085 0.18444 0.29389 0.0
C830 C 0.07673 0.18927 0.34232 0.0
C831 C 0.02169 0.17517 0.26124 0.0
C832 C 0.1121 0.21575 0.49524 0.0
C833 C 0.10268 0.20752 0.46163 0.0
C834 C 0.05812 0.20603 0.40925 0.0
C835 C 0.04765 0.17822 0.30916 0.0
C836 C 0.05774 0.18827 0.34324 0.0
C837 C 0.08735 0.2158 0.44368 0.0
C838 C 0.0771 0.20671 0.4086 0.0
H839 H 0.05175 0.14113 0.2449 0.0
H840 H 0.06753 0.15686 0.30255 0.0
H841 H 0.03399 0.19623 0.37936 0.0
H842 H 0.08678 0.25385 0.50548 0.0
H843 H 0.07017 0.23945 0.44656 0.0
C844 C 0.10259 0.77229 0.52211 0.0
C845 C 0.09745 0.7738 0.47895 0.0
C846 C 0.09307 0.7814 0.55421 0.0
C847 C 0.04993 0.80642 0.57547 0.0
H848 H 0.07663 0.82328 0.67457 0.0
C849 C 0.0222 0.85585 0.70696 0.0
C850 C 0.02493 0.84996 0.74931 0.0
C851 C 0.03002 0.84648 0.67251 0.0
C852 C 0.06899 0.8186 0.64711 0.0
H853 H 0.07797 0.78584 0.4358 0.0
H854 H 0.06199 0.80257 0.49119 0.0
H855 H 0.09244 0.80749 0.61751 0.0
H856 H 0.03713 0.82911 0.78848 0.0
H857 H 0.05129 0.81329 0.7288 0.0
H858 H 0.02656 0.81825 0.60511 0.0
C859 C 0.07311 0.79398 0.50068 0.0
C860 C 0.07802 0.80939 0.61443 0.0
C861 C 0.08247 0.78459 0.46868 0.0
C862 C 0.03518 0.83429 0.75636 0.0
C863 C 0.04322 0.82516 0.7222 0.0
C864 C 0.04096 0.81596 0.60791 0.0
C865 C 0.07831 0.7926 0.54399 0.0
C866 C 0.06861 0.80292 0.5783 0.0
C867 C 0.0409 0.83125 0.67996 0.0
C868 C 0.05037 0.82195 0.64429 0.0
H869 H 0.1142 0.76428 0.53114 0.0
H870 H 0.09734 0.77959 0.5871 0.0
H871 H 0.04209 0.80149 0.54863 0.0
H872 H 0.01448 0.86795 0.70056 0.0
H873 H 0.02806 0.85148 0.64022 0.0
C874 C 0.41485 0.74841 0.96885 0.0
C875 C 0.39933 0.75686 0.98493 0.0
C876 C 0.4234 0.75512 0.93212 0.0
C877 C 0.41757 0.78432 0.83692 0.0
H878 H 0.46891 0.79324 0.84945 0.0
C879 C 0.46345 0.8126 0.7002 0.0
C880 C 0.47485 0.82691 0.71226 0.0
C881 C 0.45377 0.80288 0.73122 0.0
C882 C 0.45459 0.7908 0.84543 0.0
H883 H 0.37996 0.77822 0.97451 0.0
H884 H 0.39471 0.78985 0.90977 0.0
H885 H 0.45246 0.77772 0.90645 0.0
H886 H 0.48454 0.84257 0.76625 0.0
H887 H 0.46821 0.82528 0.82028 0.0
H888 H 0.41974 0.79761 0.77595 0.0
C889 C 0.40034 0.77811 0.92552 0.0
C890 C 0.44519 0.78177 0.8779 0.0
C891 C 0.39193 0.77152 0.96254 0.0
C892 C 0.47627 0.83133 0.75593 0.0
C893 C 0.46684 0.82148 0.78691 0.0
C894 C 0.42704 0.79313 0.8041 0.0
C895 C 0.41643 0.77026 0.91049 0.0
C896 C 0.42653 0.77862 0.8743 0.0
C897 C 0.45551 0.80712 0.77497 0.0
C898 C 0.4456 0.79671 0.80831 0.0
H899 H 0.42078 0.7371 0.98574 0.0
H900 H 0.43567 0.74869 0.92108 0.0
H901 H 0.40321 0.78202 0.83316 0.0
H902 H 0.46222 0.80871 0.66688 0.0
H903 H 0.44522 0.79181 0.72109 0.0
C904 C 0.57477 0.87726 0.80764 0.0
C905 C 0.57653 0.88039 0.76359 0.0
C906 C 0.58954 0.87905 0.83469 0.0
C907 C 0.63874 0.87614 0.83313 0.0
H908 H 0.62899 0.88096 0.95453 0.0
C909 C 0.66394 0.82471 0.9475 0.0
C910 C 0.66245 0.82695 0.99189 0.0
C911 C 0.66034 0.83901 0.91997 0.0
C912 C 0.63247 0.88001 0.92094 0.0
H913 H 0.59482 0.889 0.71336 0.0
H914 H 0.62095 0.8922 0.76096 0.0
H915 H 0.6084 0.89395 0.90338 0.0
H916 H 0.65827 0.84627 0.04292 0.0
H917 H 0.65263 0.87169 0.99487 0.0
H918 H 0.66306 0.86262 0.85063 0.0
C919 C 0.60815 0.88797 0.77443 0.0
C920 C 0.62038 0.88726 0.8914 0.0
C921 C 0.59327 0.88597 0.7471 0.0
C922 C 0.6589 0.84414 0.00861 0.0
C923 C 0.65571 0.85867 0.98099 0.0
C924 C 0.65122 0.8695 0.86271 0.0
C925 C 0.60648 0.88435 0.81857 0.0
C926 C 0.62244 0.88373 0.84741 0.0
C927 C 0.65553 0.8561 0.93619 0.0
C928 C 0.64724 0.86966 0.90687 0.0
H929 H 0.562 0.87296 0.82117 0.0
H930 H 0.58772 0.87555 0.8681 0.0
H931 H 0.6411 0.87361 0.79943 0.0
H932 H 0.66678 0.81157 0.93386 0.0
H933 H 0.66011 0.83614 0.88599 0.0
C934 C 0.92617 0.90507 0.71376 0.0
C935 C 0.92465 0.89981 0.75678 0.0
C936 C 0.91183 0.90271 0.6856 0.0
C937 C 0.87271 0.87322 0.67165 0.0
H938 H 0.8712 0.89914 0.56364 0.0
C939 C 0.84473 0.83926 0.52349 0.0
C940 C 0.85975 0.83566 0.49717 0.0
C941 C 0.84536 0.85312 0.55373 0.0
C942 C 0.87109 0.89203 0.59398 0.0
H943 H 0.9064 0.88944 0.80514 0.0
H944 H 0.88104 0.88538 0.75581 0.0
H945 H 0.88557 0.91304 0.62589 0.0
H946 H 0.88678 0.84464 0.4806 0.0
H947 H 0.88746 0.86922 0.53161 0.0
H948 H 0.85876 0.85199 0.6392 0.0
C949 C 0.89357 0.89087 0.74357 0.0
C950 C 0.87948 0.89984 0.62951 0.0
C951 C 0.90811 0.89305 0.77179 0.0
C952 C 0.87472 0.84727 0.49902 0.0
C953 C 0.87517 0.86137 0.52861 0.0
C954 C 0.86396 0.86562 0.63644 0.0
C955 C 0.89542 0.89527 0.69984 0.0
C956 C 0.88154 0.88995 0.66779 0.0
C957 C 0.86088 0.86382 0.55757 0.0
C958 C 0.86412 0.87448 0.59669 0.0
H959 H 0.93877 0.91033 0.70127 0.0
H960 H 0.91405 0.90587 0.65214 0.0
H961 H 0.87399 0.86515 0.70041 0.0
H962 H 0.83296 0.83058 0.52274 0.0
H963 H 0.83423 0.85474 0.57593 0.0
C964 C 0.91037 0.10539 0.23736 0.0
C965 C 0.92747 0.10257 0.25557 0.0
C966 C 0.89484 0.10442 0.26288 0.0
C967 C 0.87928 0.09274 0.37419 0.0
H968 H 0.85249 0.13731 0.3627 0.0
C969 C 0.86941 0.14332 0.50392 0.0
C970 C 0.85524 0.15581 0.50163 0.0
C971 C 0.86982 0.12861 0.47602 0.0
C972 C 0.8593 0.12446 0.36604 0.0
H973 H 0.94168 0.09553 0.31402 0.0
H974 H 0.91503 0.09439 0.35834 0.0
H975 H 0.87006 0.12643 0.3029 0.0
H976 H 0.82935 0.16162 0.47232 0.0
H977 H 0.83025 0.13605 0.42307 0.0
H978 H 0.87002 0.09204 0.43925 0.0
C979 C 0.9133 0.09697 0.32442 0.0
C980 C 0.86945 0.11819 0.33152 0.0
C981 C 0.92869 0.09789 0.29905 0.0
C982 C 0.84055 0.15226 0.47438 0.0
C983 C 0.841 0.1376 0.44634 0.0
C984 C 0.86931 0.09917 0.40897 0.0
C985 C 0.89619 0.10057 0.30696 0.0
C986 C 0.88063 0.10303 0.33636 0.0
C987 C 0.85619 0.12632 0.44508 0.0
C988 C 0.8603 0.11577 0.40604 0.0
H989 H 0.90893 0.10831 0.20357 0.0
H990 H 0.88183 0.10707 0.24834 0.0
H991 H 0.88728 0.08064 0.37836 0.0
H992 H 0.88109 0.14583 0.5239 0.0
H993 H 0.88183 0.12028 0.47554 0.0
C994 C 0.61207 0.09207 0.27506 0.0
C995 C 0.5999 0.10524 0.28973 0.0
C996 C 0.62558 0.09662 0.24572 0.0
C997 C 0.64713 0.13518 0.18944 0.0
H998 H 0.63646 0.10789 0.08634 0.0
C999 C 0.63969 0.1687 0.02842 0.0
C1000 C 0.64692 0.16067 0.9916 0.0
C1001 C 0.63996 0.15957 0.06734 0.0
C1002 C 0.64003 0.11539 0.11493 0.0
H1003 H 0.59265 0.13358 0.28567 0.0
H1004 H 0.61642 0.14157 0.23642 0.0
H1005 H 0.62801 0.09569 0.15605 0.0
H1006 H 0.66051 0.13712 0.96628 0.0
H1007 H 0.66048 0.1207 0.03483 0.0
H1008 H 0.65788 0.15549 0.14794 0.0
C1009 C 0.61585 0.1278 0.24808 0.0
C1010 C 0.63527 0.10837 0.15489 0.0
C1011 C 0.60222 0.12323 0.27677 0.0
C1012 C 0.65445 0.14332 0.99423 0.0
C1013 C 0.65457 0.13406 0.03329 0.0
C1014 C 0.65186 0.14218 0.14954 0.0
C1015 C 0.62717 0.11444 0.23091 0.0
C1016 C 0.6378 0.11873 0.19219 0.0
C1017 C 0.64759 0.14227 0.07029 0.0
C1018 C 0.64734 0.13281 0.11189 0.0
H1019 H 0.61049 0.07807 0.28437 0.0
H1020 H 0.63412 0.08608 0.23284 0.0
H1021 H 0.64944 0.14328 0.21782 0.0
H1022 H 0.63454 0.18236 0.02765 0.0
H1023 H 0.63422 0.1661 0.09526 0.0
C1024 C 0.00707 0.66783 0.73177 0.0
C1025 C 2e-05 0.65094 0.74345 0.0
C1026 C -0.00209 0.67873 0.70217 0.0
C1027 C 0.95197 0.68716 0.66446 0.0
H1028 H 0.97417 0.71207 0.56878 0.0
C1029 C 0.90968 0.71994 0.53089 0.0
C1030 C 0.9164 0.73516 0.50951 0.0
C1031 C 0.92009 0.71118 0.56187 0.0
C1032 C 0.96779 0.70551 0.59583 0.0
H1033 H 0.97861 0.63168 0.732 0.0
H1034 H 0.96249 0.6507 0.68061 0.0
H1035 H 0.9927 0.69333 0.61587 0.0
H1036 H 0.93881 0.75377 0.50476 0.0
H1037 H 0.95689 0.73891 0.56027 0.0
H1038 H 0.92715 0.69941 0.64528 0.0
C1039 C 0.97496 0.65564 0.69449 0.0
C1040 C 0.97842 0.69467 0.62262 0.0
C1041 C 0.98421 0.64472 0.72361 0.0
C1042 C 0.93334 0.74207 0.52109 0.0
C1043 C 0.94376 0.73339 0.5524 0.0
C1044 C 0.9414 0.69812 0.6381 0.0
C1045 C 0.98146 0.67294 0.68425 0.0
C1046 C 0.97054 0.68514 0.65674 0.0
C1047 C 0.93743 0.71758 0.57254 0.0
C1048 C 0.94907 0.70721 0.60292 0.0
H1049 H 0.01918 0.67294 0.74702 0.0
H1050 H 0.00322 0.692 0.69489 0.0
H1051 H 0.94559 0.68026 0.6911 0.0
H1052 H 0.89662 0.71439 0.52238 0.0
H1053 H 0.91479 0.69895 0.57611 0.0
C1054 C 0.61353 0.71219 0.98152 0.0
C1055 C 0.60776 0.72753 0.00391 0.0
C1056 C 0.60196 0.70346 0.95279 0.0
C1057 C 0.55942 0.7091 0.89067 0.0
H1058 H 0.56151 0.65684 0.88633 0.0
C1059 C 0.52798 0.668 0.75294 0.0
C1060 C 0.52145 0.65053 0.76081 0.0
C1061 C 0.53617 0.67798 0.78552 0.0
C1062 C 0.5605 0.67141 0.88754 0.0
H1063 H 0.58564 0.74609 0.01362 0.0
H1064 H 0.5652 0.73079 0.9637 0.0
H1065 H 0.58069 0.67315 0.93636 0.0
H1066 H 0.51761 0.62999 0.80918 0.0
H1067 H 0.53157 0.64764 0.867 0.0
H1068 H 0.53896 0.70732 0.8424 0.0
C1069 C 0.57874 0.72557 0.9677 0.0
C1070 C 0.57177 0.68082 0.91578 0.0
C1071 C 0.59041 0.73436 0.99627 0.0
C1072 C 0.52244 0.6435 0.80248 0.0
C1073 C 0.53064 0.65354 0.83532 0.0
C1074 C 0.54807 0.69968 0.86257 0.0
C1075 C 0.58426 0.70981 0.94609 0.0
C1076 C 0.57161 0.69981 0.91726 0.0
C1077 C 0.538 0.67076 0.82698 0.0
C1078 C 0.54865 0.68071 0.8601 0.0
H1079 H 0.6269 0.70673 0.98698 0.0
H1080 H 0.60687 0.69165 0.93605 0.0
H1081 H 0.55892 0.7237 0.8907 0.0
H1082 H 0.52735 0.67371 0.721 0.0
H1083 H 0.54183 0.69104 0.77754 0.0
C1084 C 0.62292 0.27824 0.02383 0.0
C1085 C 0.61624 0.26162 0.00928 0.0
C1086 C 0.6144 0.28731 0.05744 0.0
C1087 C 0.58135 0.28269 0.1461 0.0
H1088 H 0.57314 0.33353 0.1239 0.0
C1089 C 0.53405 0.32588 0.25247 0.0
C1090 C 0.54017 0.34326 0.2629 0.0
C1091 C 0.54301 0.31564 0.22133 0.0
C1092 C 0.57547 0.31941 0.13092 0.0
H1093 H 0.59624 0.2408 0.01992 0.0
H1094 H 0.5813 0.25659 0.07909 0.0
H1095 H 0.59046 0.31569 0.07304 0.0
H1096 H 0.55986 0.36391 0.24826 0.0
H1097 H 0.57572 0.34605 0.19435 0.0
H1098 H 0.56637 0.28647 0.20414 0.0
C1099 C 0.59312 0.26266 0.06456 0.0
C1100 C 0.58544 0.30917 0.10175 0.0
C1101 C 0.60167 0.25359 0.0308 0.0
C1102 C 0.55499 0.35048 0.24083 0.0
C1103 C 0.56397 0.34027 0.20978 0.0
C1104 C 0.5714 0.29297 0.17542 0.0
C1105 C 0.59903 0.27991 0.0773 0.0
C1106 C 0.58859 0.2907 0.10903 0.0
C1107 C 0.55824 0.32262 0.19998 0.0
C1108 C 0.56838 0.31149 0.16826 0.0
H1109 H 0.63425 0.28459 0.00784 0.0
H1110 H 0.61956 0.30037 0.06711 0.0
H1111 H 0.58362 0.26853 0.15279 0.0
H1112 H 0.52264 0.32005 0.26925 0.0
H1113 H 0.53804 0.30223 0.21413 0.0
C1114 C 0.91079 0.2568 0.4551 0.0
C1115 C 0.91407 0.26022 0.49866 0.0
C1116 C 0.92135 0.2651 0.42341 0.0
C1117 C 0.96423 0.29143 0.40756 0.0
H1118 H 0.9405 0.30657 0.30285 0.0
C1119 C 0.99381 0.34389 0.28716 0.0
C1120 C 0.99278 0.33917 0.24361 0.0
C1121 C 0.98535 0.33319 0.31835 0.0
C1122 C 0.94734 0.30231 0.33182 0.0
H1123 H 0.93161 0.27426 0.54315 0.0
H1124 H 0.94923 0.28946 0.4885 0.0
H1125 H 0.92353 0.28976 0.3565 0.0
H1126 H 0.98294 0.31905 0.19891 0.0
H1127 H 0.96769 0.30079 0.25303 0.0
H1128 H 0.98787 0.30471 0.38311 0.0
C1129 C 0.93879 0.28018 0.47833 0.0
C1130 C 0.93765 0.29254 0.36256 0.0
C1131 C 0.92842 0.2717 0.50986 0.0
C1132 C 0.98356 0.32331 0.23206 0.0
C1133 C 0.9749 0.3128 0.26304 0.0
C1134 C 0.97383 0.30146 0.37707 0.0
C1135 C 0.93534 0.27715 0.43456 0.0
C1136 C 0.94593 0.28697 0.40098 0.0
C1137 C 0.97553 0.31772 0.30646 0.0
C1138 C 0.96548 0.307 0.3389 0.0
H1139 H 0.8998 0.24807 0.44544 0.0
H1140 H 0.91846 0.2621 0.39016 0.0
H1141 H 0.97125 0.28711 0.4362 0.0
H1142 H 0.00068 0.35611 0.29699 0.0
H1143 H 0.98599 0.33733 0.35161 0.0
C1144 C 0.08538 0.39991 0.31208 0.0
C1145 C 0.08821 0.40046 0.26776 0.0
C1146 C 0.09993 0.3989 0.34006 0.0
C1147 C 0.1471 0.38325 0.34078 0.0
H1148 H 0.13782 0.39008 0.46182 0.0
C1149 C 0.16262 0.32799 0.45627 0.0
C1150 C 0.16234 0.33064 0.50064 0.0
C1151 C 0.16068 0.34253 0.42854 0.0
C1152 C 0.14119 0.38836 0.42834 0.0
H1153 H 0.10834 0.40201 0.21763 0.0
H1154 H 0.13408 0.40088 0.26671 0.0
H1155 H 0.12126 0.40761 0.41008 0.0
H1156 H 0.16143 0.35051 0.55134 0.0
H1157 H 0.15887 0.37631 0.50283 0.0
H1158 H 0.1677 0.36473 0.35904 0.0
C1159 C 0.12059 0.4005 0.27997 0.0
C1160 C 0.13132 0.39823 0.39839 0.0
C1161 C 0.10589 0.4011 0.25178 0.0
C1162 C 0.16122 0.3482 0.51707 0.0
C1163 C 0.15977 0.36292 0.48918 0.0
C1164 C 0.15754 0.37398 0.37075 0.0
C1165 C 0.11779 0.39886 0.32452 0.0
C1166 C 0.13285 0.39439 0.35436 0.0
C1167 C 0.15888 0.36024 0.44446 0.0
C1168 C 0.15341 0.37502 0.41474 0.0
H1169 H 0.07183 0.39941 0.32515 0.0
H1170 H 0.09696 0.39715 0.37375 0.0
H1171 H 0.14918 0.3802 0.30723 0.0
H1172 H 0.16348 0.31451 0.44293 0.0
H1173 H 0.1596 0.33957 0.39469 0.0
C1174 C 0.35403 0.33048 0.02315 0.0
C1175 C 0.36846 0.32592 0.99588 0.0
C1176 C 0.35589 0.34433 0.05312 0.0
C1177 C 0.38463 0.38151 0.09127 0.0
H1178 H 0.38607 0.35496 0.19835 0.0
C1179 C 0.44014 0.39261 0.21177 0.0
C1180 C 0.43801 0.38814 0.25514 0.0
C1181 C 0.42596 0.39035 0.18308 0.0
C1182 C 0.38526 0.36296 0.16938 0.0
H1183 H 0.39577 0.33315 0.97723 0.0
H1184 H 0.39864 0.35771 0.02798 0.0
H1185 H 0.36979 0.34259 0.13774 0.0
H1186 H 0.41904 0.37903 0.30334 0.0
H1187 H 0.39395 0.37521 0.25309 0.0
H1188 H 0.40058 0.40165 0.12239 0.0
C1189 C 0.38586 0.35064 0.02591 0.0
C1190 C 0.3759 0.35581 0.13452 0.0
C1191 C 0.38415 0.33656 0.99652 0.0
C1192 C 0.42116 0.38207 0.26978 0.0
C1193 C 0.40679 0.38002 0.24103 0.0
C1194 C 0.39366 0.38888 0.12643 0.0
C1195 C 0.3721 0.35402 0.05581 0.0
C1196 C 0.37645 0.36451 0.09458 0.0
C1197 C 0.40914 0.38384 0.19714 0.0
C1198 C 0.39512 0.37908 0.16498 0.0
H1199 H 0.34173 0.32256 0.0233 0.0
H1200 H 0.34515 0.34669 0.07602 0.0
H1201 H 0.38507 0.38849 0.06077 0.0
H1202 H 0.45301 0.39732 0.19962 0.0
H1203 H 0.42855 0.39299 0.14951 0.0
C1204 C 0.37979 0.66394 0.9914 0.0
C1205 C 0.36513 0.66043 0.01861 0.0
C1206 C 0.38173 0.65445 0.95328 0.0
C1207 C 0.37049 0.61362 0.8957 0.0
H1208 H 0.38485 0.64333 0.79914 0.0
C1209 C 0.42038 0.59118 0.77056 0.0
C1210 C 0.4212 0.59978 0.73053 0.0
C1211 C 0.40661 0.59525 0.79928 0.0
C1212 C 0.38034 0.63475 0.82513 0.0
H1213 H 0.34115 0.64409 0.02777 0.0
H1214 H 0.34478 0.62712 0.96068 0.0
H1215 H 0.37456 0.65756 0.86461 0.0
H1216 H 0.4068 0.61723 0.68651 0.0
H1217 H 0.3827 0.62456 0.73701 0.0
H1218 H 0.37693 0.59077 0.85657 0.0
C1219 C 0.35473 0.63722 0.96925 0.0
C1220 C 0.3747 0.64295 0.86291 0.0
C1221 C 0.35273 0.64683 0.00754 0.0
C1222 C 0.40696 0.61108 0.71794 0.0
C1223 C 0.39307 0.6151 0.74668 0.0
C1224 C 0.37609 0.60536 0.85769 0.0
C1225 C 0.36898 0.64136 0.9413 0.0
C1226 C 0.37072 0.63248 0.89919 0.0
C1227 C 0.39326 0.6079 0.78842 0.0
C1228 C 0.38205 0.61589 0.82286 0.0
H1229 H 0.38921 0.67474 0.99809 0.0
H1230 H 0.39303 0.65768 0.93257 0.0
H1231 H 0.36727 0.60527 0.92318 0.0
H1232 H 0.43107 0.58222 0.78098 0.0
H1233 H 0.40734 0.58954 0.83119 0.0
C1234 C 0.10637 0.58021 0.72272 0.0
C1235 C 0.10224 0.59457 0.75056 0.0
C1236 C 0.12047 0.58175 0.69322 0.0
C1237 C 0.15768 0.61159 0.6563 0.0
H1238 H 0.13069 0.61264 0.54983 0.0
C1239 C 0.15682 0.67216 0.55063 0.0
C1240 C 0.15354 0.6712 0.50639 0.0
C1241 C 0.15787 0.65656 0.57521 0.0
C1242 C 0.13884 0.61194 0.57861 0.0
H1243 H 0.11052 0.62136 0.77079 0.0
H1244 H 0.13531 0.62373 0.72095 0.0
H1245 H 0.12006 0.59415 0.60875 0.0
H1246 H 0.15035 0.65289 0.45261 0.0
H1247 H 0.15144 0.62545 0.49617 0.0
H1248 H 0.1757 0.6305 0.62708 0.0
C1249 C 0.12782 0.61117 0.72214 0.0
C1250 C 0.13273 0.60129 0.61252 0.0
C1251 C 0.11356 0.60976 0.75108 0.0
C1252 C 0.1521 0.65416 0.48687 0.0
C1253 C 0.15305 0.63842 0.51168 0.0
C1254 C 0.1639 0.6221 0.62223 0.0
C1255 C 0.13078 0.59761 0.69142 0.0
C1256 C 0.14131 0.60217 0.65265 0.0
C1257 C 0.15572 0.6395 0.55624 0.0
C1258 C 0.15367 0.62351 0.58437 0.0
H1259 H 0.0979 0.56828 0.72168 0.0
H1260 H 0.12247 0.57113 0.66985 0.0
H1261 H 0.16468 0.61225 0.68676 0.0
H1262 H 0.15809 0.68506 0.56671 0.0
H1263 H 0.15948 0.65798 0.60955 0.0
C1264 C 0.42953 0.193 0.74116 0.0
C1265 C 0.41252 0.195 0.76023 0.0
C1266 C 0.43116 0.18393 0.70227 0.0
C1267 C 0.40754 0.15589 0.62156 0.0
H1268 H 0.43792 0.1837 0.54491 0.0
C1269 C 0.44325 0.1577 0.4437 0.0
C1270 C 0.44972 0.13995 0.44524 0.0
C1271 C 0.43135 0.16383 0.47511 0.0
C1272 C 0.42894 0.17599 0.56527 0.0
H1273 H 0.38423 0.1873 0.75637 0.0
H1274 H 0.38707 0.17191 0.68798 0.0
H1275 H 0.43386 0.19368 0.61773 0.0
H1276 H 0.44666 0.11386 0.47615 0.0
H1277 H 0.4269 0.1247 0.53201 0.0
H1278 H 0.40255 0.13823 0.56853 0.0
C1279 C 0.39912 0.1773 0.70294 0.0
C1280 C 0.42702 0.18149 0.60752 0.0
C1281 C 0.39752 0.18619 0.74209 0.0
C1282 C 0.44219 0.12777 0.47477 0.0
C1283 C 0.43065 0.13398 0.5067 0.0
C1284 C 0.40935 0.15042 0.57891 0.0
C1285 C 0.41578 0.17693 0.68168 0.0
C1286 C 0.41683 0.17119 0.63646 0.0
C1287 C 0.42626 0.15239 0.50905 0.0
C1288 C 0.42054 0.16013 0.55065 0.0
H1289 H 0.44138 0.19934 0.75487 0.0
H1290 H 0.44431 0.18327 0.68714 0.0
H1291 H 0.39939 0.14783 0.64314 0.0
H1292 H 0.44844 0.16722 0.42039 0.0
H1293 H 0.42757 0.17794 0.47512 0.0
C1294 C 0.06823 0.14022 0.00197 0.0
C1295 C 0.05474 0.12745 0.99305 0.0
C1296 C 0.08216 0.14317 0.9727 0.0
C1297 C 0.08749 0.14271 0.85858 0.0
H1298 H 0.13615 0.15845 0.88509 0.0
C1299 C 0.13582 0.20296 0.80438 0.0
C1300 C 0.13223 0.20309 0.76025 0.0
C1301 C 0.13106 0.18809 0.82922 0.0
C1302 C 0.12263 0.15401 0.87711 0.0
H1303 H 0.04605 0.10666 0.94847 0.0
H1304 H 0.0703 0.11197 0.89731 0.0
H1305 H 0.11878 0.14181 0.93875 0.0
H1306 H 0.12227 0.18731 0.70669 0.0
H1307 H 0.11431 0.16108 0.75 0.0
H1308 H 0.09053 0.15606 0.79867 0.0
C1309 C 0.06999 0.11979 0.92665 0.0
C1310 C 0.11275 0.14445 0.90773 0.0
C1311 C 0.05609 0.11685 0.95585 0.0
C1312 C 0.12484 0.18767 0.74087 0.0
C1313 C 0.12033 0.17266 0.76564 0.0
C1314 C 0.09725 0.15241 0.82824 0.0
C1315 C 0.0828 0.13338 0.93414 0.0
C1316 C 0.09484 0.1394 0.89929 0.0
C1317 C 0.12284 0.17294 0.81032 0.0
C1318 C 0.11461 0.1589 0.83791 0.0
H1319 H 0.06763 0.14845 0.03063 0.0
H1320 H 0.09176 0.15388 0.97904 0.0
H1321 H 0.07364 0.13914 0.85133 0.0
H1322 H 0.14159 0.21465 0.82012 0.0
H1323 H 0.13292 0.18895 0.86359 0.0
C1324 C 0.07243 0.86685 0.9827 0.0
C1325 C 0.06383 0.85236 0.96185 0.0
C1326 C 0.08718 0.86377 0.00934 0.0
C1327 C 0.10036 0.84614 0.0924 0.0
H1328 H 0.14256 0.81637 0.07321 0.0
C1329 C 0.13784 0.78499 0.18131 0.0
C1330 C 0.13556 0.79045 0.22396 0.0
C1331 C 0.13499 0.79711 0.14799 0.0
C1332 C 0.13081 0.82467 0.07918 0.0
H1333 H 0.06492 0.82362 0.94918 0.0
H1334 H 0.09094 0.81826 0.99574 0.0
H1335 H 0.12629 0.82894 0.01198 0.0
H1336 H 0.12998 0.81307 0.26581 0.0
H1337 H 0.12579 0.83466 0.20751 0.0
H1338 H 0.10331 0.84042 0.15874 0.0
C1339 C 0.08614 0.83195 0.99144 0.0
C1340 C 0.12168 0.83198 0.04413 0.0
C1341 C 0.07117 0.83498 0.96526 0.0
C1342 C 0.13146 0.80851 0.233 0.0
C1343 C 0.12905 0.82082 0.19959 0.0
C1344 C 0.10915 0.83845 0.1273 0.0
C1345 C 0.09377 0.84623 0.01486 0.0
C1346 C 0.10602 0.84219 0.05059 0.0
C1347 C 0.13019 0.81512 0.15659 0.0
C1348 C 0.12398 0.82691 0.12102 0.0
H1349 H 0.06717 0.88046 0.98043 0.0
H1350 H 0.09287 0.87492 0.02735 0.0
H1351 H 0.08819 0.85389 0.09799 0.0
H1352 H 0.141 0.7711 0.17352 0.0
H1353 H 0.13562 0.79199 0.11555 0.0
C1354 C 0.42787 0.81094 0.19769 0.0
C1355 C 0.41029 0.80429 0.19191 0.0
C1356 C 0.43069 0.82676 0.22103 0.0
C1357 C 0.43154 0.86282 0.27063 0.0
H1358 H 0.41608 0.84655 0.38288 0.0
C1359 C 0.44918 0.86952 0.46376 0.0
C1360 C 0.46787 0.87132 0.45823 0.0
C1361 C 0.43779 0.86897 0.42809 0.0
C1362 C 0.42007 0.85191 0.35204 0.0
H1363 H 0.3818 0.80996 0.20186 0.0
H1364 H 0.38691 0.83717 0.24394 0.0
H1365 H 0.40348 0.83273 0.31963 0.0
H1366 H 0.48937 0.8746 0.41181 0.0
H1367 H 0.46996 0.87225 0.34993 0.0
H1368 H 0.44838 0.88185 0.30295 0.0
C1369 C 0.39839 0.83025 0.23012 0.0
C1370 C 0.41283 0.84386 0.31562 0.0
C1371 C 0.39554 0.8146 0.20632 0.0
C1372 C 0.47497 0.87317 0.41685 0.0
C1373 C 0.46371 0.87211 0.38127 0.0
C1374 C 0.43843 0.87129 0.30713 0.0
C1375 C 0.416 0.83598 0.23919 0.0
C1376 C 0.4193 0.84851 0.27487 0.0
C1377 C 0.44498 0.86961 0.38628 0.0
C1378 C 0.43372 0.86504 0.34834 0.0
H1379 H 0.43946 0.80341 0.18645 0.0
H1380 H 0.44442 0.83087 0.22804 0.0
H1381 H 0.43657 0.86669 0.23934 0.0
H1382 H 0.44341 0.86845 0.49557 0.0
H1383 H 0.42342 0.86751 0.43337 0.0
C1384 C 0.54247 0.85257 0.47008 0.0
C1385 C 0.54687 0.84744 0.51218 0.0
C1386 C 0.55256 0.84641 0.43524 0.0
C1387 C 0.5957 0.82283 0.40573 0.0
H1388 H 0.57009 0.81476 0.29895 0.0
C1389 C 0.62259 0.77886 0.26596 0.0
C1390 C 0.62171 0.78617 0.22435 0.0
C1391 C 0.61459 0.78772 0.30064 0.0
C1392 C 0.57746 0.81714 0.3284 0.0
H1393 H 0.56552 0.83192 0.55073 0.0
H1394 H 0.58272 0.82032 0.48974 0.0
H1395 H 0.55393 0.8267 0.36057 0.0
H1396 H 0.61177 0.80862 0.18668 0.0
H1397 H 0.59718 0.8239 0.24748 0.0
H1398 H 0.61901 0.81222 0.37351 0.0
C1399 C 0.57175 0.8296 0.48356 0.0
C1400 C 0.56824 0.82409 0.3639 0.0
C1401 C 0.56183 0.83614 0.51867 0.0
C1402 C 0.6127 0.80267 0.21832 0.0
C1403 C 0.60432 0.81136 0.25303 0.0
C1404 C 0.60483 0.81552 0.3704 0.0
C1405 C 0.56716 0.83452 0.44117 0.0
C1406 C 0.57719 0.8271 0.40321 0.0
C1407 C 0.60519 0.80395 0.29455 0.0
C1408 C 0.5958 0.81262 0.33136 0.0
H1409 H 0.53119 0.86152 0.46397 0.0
H1410 H 0.54884 0.85107 0.40357 0.0
H1411 H 0.60324 0.8252 0.4349 0.0
H1412 H 0.62949 0.76622 0.27185 0.0
H1413 H 0.61536 0.78161 0.33214 0.0
C1414 C 0.91471 0.78045 0.2431 0.0
C1415 C 0.90897 0.79024 0.27931 0.0
C1416 C 0.92174 0.78927 0.20722 0.0
C1417 C 0.94358 0.83121 0.17129 0.0
H1418 H 0.92875 0.81487 0.05846 0.0
C1419 C 0.98232 0.85087 0.01774 0.0
C1420 C 0.97227 0.85585 0.9813 0.0
C1421 C 0.97384 0.84355 0.0538 0.0
C1422 C 0.93293 0.8197 0.08968 0.0
H1423 H 0.90653 0.81712 0.30613 0.0
H1424 H 0.91908 0.83258 0.2433 0.0
H1425 H 0.91531 0.80131 0.12231 0.0
H1426 H 0.9453 0.85662 0.95425 0.0
H1427 H 0.93049 0.84359 0.01727 0.0
H1428 H 0.96128 0.84951 0.13863 0.0
C1429 C 0.91804 0.818 0.24292 0.0
C1430 C 0.92535 0.81182 0.12632 0.0
C1431 C 0.91083 0.80915 0.27891 0.0
C1432 C 0.95349 0.85293 0.98164 0.0
C1433 C 0.945 0.84544 0.01775 0.0
C1434 C 0.95127 0.83898 0.13464 0.0
C1435 C 0.92338 0.80815 0.20645 0.0
C1436 C 0.93071 0.81734 0.16759 0.0
C1437 C 0.95506 0.84085 0.05446 0.0
C1438 C 0.94617 0.8332 0.09337 0.0
H1439 H 0.91359 0.76588 0.24209 0.0
H1440 H 0.92602 0.78124 0.18006 0.0
H1441 H 0.94807 0.83572 0.20254 0.0
H1442 H 0.9968 0.85286 0.01879 0.0
H1443 H 0.98205 0.83988 0.08117 0.0
C1444 C 0.90208 0.2145 0.75944 0.0
C1445 C 0.89797 0.20436 0.72252 0.0
C1446 C 0.90918 0.20624 0.79601 0.0
C1447 C 0.93405 0.16591 0.83236 0.0
H1448 H 0.91909 0.18215 0.94512 0.0
C1449 C 0.97581 0.15044 0.98342 0.0
C1450 C 0.96684 0.14573 0.02164 0.0
C1451 C 0.96623 0.15655 0.94772 0.0
C1452 C 0.9233 0.17731 0.91394 0.0
H1453 H 0.89823 0.17741 0.69547 0.0
H1454 H 0.91073 0.16294 0.75951 0.0
H1455 H 0.90431 0.19426 0.88134 0.0
H1456 H 0.94057 0.14406 0.05204 0.0
H1457 H 0.92375 0.15487 0.98937 0.0
H1458 H 0.95304 0.14898 0.8649 0.0
C1459 C 0.90848 0.17737 0.75991 0.0
C1460 C 0.91496 0.1844 0.87728 0.0
C1461 C 0.90128 0.18566 0.7232 0.0
C1462 C 0.94794 0.14758 0.02325 0.0
C1463 C 0.93831 0.15381 0.98733 0.0
C1464 C 0.94243 0.15888 0.86898 0.0
C1465 C 0.91246 0.18756 0.79687 0.0
C1466 C 0.9204 0.179 0.83596 0.0
C1467 C 0.94735 0.15821 0.94895 0.0
C1468 C 0.93737 0.16469 0.91025 0.0
H1469 H 0.8998 0.22894 0.76027 0.0
H1470 H 0.91238 0.21459 0.82347 0.0
H1471 H 0.93868 0.16149 0.80116 0.0
H1472 H 0.99035 0.14929 0.98077 0.0
H1473 H 0.97371 0.16014 0.91912 0.0
C1474 C 0.5242 0.1487 0.51558 0.0
C1475 C 0.53593 0.14204 0.4838 0.0
C1476 C 0.531 0.15763 0.55172 0.0
C1477 C 0.57272 0.16156 0.61614 0.0
H1478 H 0.54918 0.2033 0.66589 0.0
C1479 C 0.5971 0.19173 0.77627 0.0
C1480 C 0.59891 0.21063 0.77763 0.0
C1481 C 0.58777 0.18337 0.74266 0.0
C1482 C 0.55595 0.19168 0.65233 0.0
H1483 H 0.56404 0.14024 0.46467 0.0
H1484 H 0.57581 0.15595 0.52718 0.0
H1485 H 0.53673 0.18949 0.60118 0.0
H1486 H 0.5915 0.23554 0.74553 0.0
H1487 H 0.57538 0.22097 0.687 0.0
H1488 H 0.59216 0.16394 0.66651 0.0
C1489 C 0.56136 0.15397 0.52458 0.0
C1490 C 0.54872 0.18367 0.61543 0.0
C1491 C 0.55458 0.14506 0.48848 0.0
C1492 C 0.59042 0.22096 0.74558 0.0
C1493 C 0.58108 0.2126 0.71201 0.0
C1494 C 0.5799 0.16952 0.65302 0.0
C1495 C 0.5497 0.16011 0.55702 0.0
C1496 C 0.55711 0.16858 0.59667 0.0
C1497 C 0.57998 0.19368 0.70958 0.0
C1498 C 0.57168 0.18475 0.67151 0.0
H1499 H 0.50975 0.14663 0.51313 0.0
H1500 H 0.52163 0.16209 0.57616 0.0
H1501 H 0.57939 0.1498 0.60298 0.0
H1502 H 0.60335 0.18332 0.80046 0.0
H1503 H 0.58689 0.16878 0.74224 0.0
C1504 C 0.97335 0.67103 0.9841 0.0
C1505 C 0.97492 0.65269 0.97385 0.0
C1506 C 0.96498 0.67623 0.02214 0.0
C1507 C 0.96217 0.68192 0.11661 0.0
H1508 H 0.92277 0.65675 0.17251 0.0
C1509 C 0.94154 0.70305 0.28388 0.0
C1510 C 0.92291 0.70569 0.28861 0.0
C1511 C 0.94809 0.69261 0.25012 0.0
C1512 C 0.93377 0.66395 0.15729 0.0
H1513 H 0.9677 0.62546 0.99329 0.0
H1514 H 0.95383 0.63445 0.06015 0.0
H1515 H 0.93104 0.64871 0.09954 0.0
H1516 H 0.89644 0.69809 0.26463 0.0
H1517 H 0.90777 0.68076 0.20495 0.0
H1518 H 0.96421 0.69797 0.17291 0.0
C1519 C 0.95872 0.6449 0.03882 0.0
C1520 C 0.9386 0.65925 0.11556 0.0
C1521 C 0.96676 0.63973 0.00045 0.0
C1522 C 0.91091 0.69644 0.26153 0.0
C1523 C 0.91744 0.68633 0.22737 0.0
C1524 C 0.95715 0.68683 0.1579 0.0
C1525 C 0.95839 0.66315 0.05086 0.0
C1526 C 0.95275 0.66832 0.09464 0.0
C1527 C 0.9361 0.685 0.22013 0.0
C1528 C 0.94279 0.67803 0.17863 0.0
H1529 H 0.9793 0.68129 0.96376 0.0
H1530 H 0.96437 0.69047 0.02985 0.0
H1531 H 0.97349 0.68884 0.10198 0.0
H1532 H 0.95106 0.70974 0.30492 0.0
H1533 H 0.96256 0.69133 0.2462 0.0
C1534 C 0.59359 0.70447 0.25328 0.0
C1535 C 0.61148 0.70545 0.23887 0.0
C1536 C 0.5898 0.69757 0.29384 0.0
C1537 C 0.58734 0.69742 0.38925 0.0
H1538 H 0.6125 0.65792 0.44449 0.0
C1539 C 0.56397 0.67578 0.55256 0.0
C1540 C 0.56051 0.65719 0.55433 0.0
C1541 C 0.57585 0.68265 0.52193 0.0
C1542 C 0.60537 0.66901 0.42954 0.0
H1543 H 0.6393 0.69866 0.25395 0.0
H1544 H 0.63276 0.68725 0.32502 0.0
H1545 H 0.61961 0.66557 0.37055 0.0
H1546 H 0.56842 0.63099 0.5295 0.0
H1547 H 0.58818 0.64288 0.47501 0.0
H1548 H 0.57209 0.70007 0.44653 0.0
C1549 C 0.6216 0.69155 0.30508 0.0
C1550 C 0.60953 0.67347 0.38723 0.0
C1551 C 0.62535 0.69814 0.26426 0.0
C1552 C 0.57059 0.64544 0.52841 0.0
C1553 C 0.58214 0.6523 0.49729 0.0
C1554 C 0.58295 0.69278 0.43112 0.0
C1555 C 0.60388 0.69185 0.32092 0.0
C1556 C 0.6002 0.68743 0.36631 0.0
C1557 C 0.58407 0.67104 0.49205 0.0
C1558 C 0.59157 0.67821 0.45145 0.0
H1559 H 0.58263 0.70979 0.23408 0.0
H1560 H 0.5759 0.69736 0.30458 0.0
H1561 H 0.58033 0.70866 0.3746 0.0
H1562 H 0.5567 0.6851 0.573 0.0
H1563 H 0.57758 0.69714 0.51973 0.0
C1564 C 0.58789 0.33841 0.4818 0.0
C1565 C 0.57471 0.35185 0.48532 0.0
C1566 C 0.60149 0.33709 0.51269 0.0
C1567 C 0.61542 0.35677 0.62009 0.0
H1568 H 0.61701 0.30596 0.64885 0.0
C1569 C 0.59747 0.30967 0.76529 0.0
C1570 C 0.6129 0.3023 0.78454 0.0
C1571 C 0.5993 0.32206 0.73194 0.0
C1572 C 0.61699 0.32021 0.64091 0.0
H1573 H 0.5661 0.37534 0.52131 0.0
H1574 H 0.58845 0.37221 0.57659 0.0
H1575 H 0.6106 0.31474 0.57618 0.0
H1576 H 0.64219 0.30413 0.7886 0.0
H1577 H 0.64521 0.32517 0.72899 0.0
H1578 H 0.61971 0.36172 0.68729 0.0
C1579 C 0.58916 0.36303 0.54968 0.0
C1580 C 0.61351 0.32535 0.59896 0.0
C1581 C 0.57604 0.36471 0.51812 0.0
C1582 C 0.63002 0.30933 0.77384 0.0
C1583 C 0.63183 0.32151 0.74006 0.0
C1584 C 0.61845 0.35154 0.66256 0.0
C1585 C 0.60156 0.34866 0.54862 0.0
C1586 C 0.61149 0.34371 0.58842 0.0
C1587 C 0.61654 0.3271 0.71753 0.0
C1588 C 0.61834 0.33322 0.6732 0.0
H1589 H 0.58739 0.32867 0.45595 0.0
H1590 H 0.61125 0.32631 0.50965 0.0
H1591 H 0.61476 0.37105 0.61291 0.0
H1592 H 0.58412 0.30472 0.77327 0.0
H1593 H 0.58736 0.32622 0.71448 0.0
C1594 C 0.96952 0.32366 0.00775 0.0
C1595 C 0.97067 0.34206 0.01771 0.0
C1596 C 0.95995 0.31803 0.97169 0.0
C1597 C 0.92855 0.33334 0.88612 0.0
H1598 H 0.95379 0.29668 0.82093 0.0
C1599 C 0.89755 0.29548 0.74378 0.0
C1600 C 0.90915 0.28809 0.71287 0.0
C1601 C 0.90455 0.30537 0.77786 0.0
C1602 C 0.94675 0.30721 0.83822 0.0
H1603 H 0.96169 0.36893 -0.00023 0.0
H1604 H 0.94559 0.3592 0.93626 0.0
H1605 H 0.96567 0.30609 0.88954 0.0
H1606 H 0.93676 0.28698 0.69009 0.0
H1607 H 0.94898 0.30497 0.74876 0.0
H1608 H 0.90998 0.33487 0.83377 0.0
C1609 C 0.95178 0.34904 0.95642 0.0
C1610 C 0.95333 0.31228 0.87814 0.0
C1611 C 0.96111 0.35463 0.99276 0.0
C1612 C 0.9276 0.29226 0.71408 0.0
C1613 C 0.93458 0.30245 0.74776 0.0
C1614 C 0.92207 0.32841 0.8458 0.0
C1615 C 0.95161 0.33076 0.94472 0.0
C1616 C 0.9442 0.32523 0.90277 0.0
C1617 C 0.92324 0.30828 0.78116 0.0
C1618 C 0.93102 0.31515 0.82163 0.0
H1619 H 0.97654 0.31367 0.02685 0.0
H1620 H 0.95961 0.30377 0.96412 0.0
H1621 H 0.92119 0.34334 0.9044 0.0
H1622 H 0.88322 0.29253 0.74347 0.0
H1623 H 0.89543 0.30958 0.80307 0.0
C1624 C 0.11171 0.30897 0.72916 0.0
C1625 C 0.12044 0.29233 0.7355 0.0
C1626 C 0.10434 0.31838 0.7641 0.0
C1627 C 0.10786 0.32492 0.88005 0.0
H1628 H 0.05662 0.3352 0.87775 0.0
C1629 C 0.0692 0.34851 0.03258 0.0
C1630 C 0.05371 0.35917 0.02722 0.0
C1631 C 0.07821 0.34138 0.99674 0.0
C1632 C 0.07103 0.33288 0.8789 0.0
H1633 H 0.12886 0.27292 0.78359 0.0
H1634 H 0.11653 0.2896 0.84428 0.0
H1635 H 0.07104 0.32208 0.81509 0.0
H1636 H 0.03614 0.3716 0.9802 0.0
H1637 H 0.05225 0.36025 0.91832 0.0
H1638 H 0.10813 0.33611 0.94326 0.0
C1639 C 0.11515 0.29522 0.81238 0.0
C1640 C 0.07925 0.32523 0.84283 0.0
C1641 C 0.12209 0.28563 0.77753 0.0
C1642 C 0.04787 0.36316 0.98544 0.0
C1643 C 0.05707 0.35645 0.94979 0.0
C1644 C 0.09974 0.33296 0.91588 0.0
C1645 C 0.10602 0.31158 0.80605 0.0
C1646 C 0.0977 0.32101 0.84316 0.0
C1647 C 0.07216 0.34509 0.95468 0.0
C1648 C 0.08113 0.33694 0.91608 0.0
H1649 H 0.11023 0.31447 0.69719 0.0
H1650 H 0.09737 0.331 0.7584 0.0
H1651 H 0.12215 0.32183 0.88108 0.0
H1652 H 0.07397 0.34518 0.06443 0.0
H1653 H 0.08961 0.33255 0.00222 0.0
C1654 C 0.40888 0.27343 0.73046 0.0
C1655 C 0.41032 0.28006 0.77261 0.0
C1656 C 0.41703 0.28252 0.69626 0.0
C1657 C 0.45508 0.30991 0.66744 0.0
H1658 H 0.42699 0.32563 0.56947 0.0
C1659 C 0.48848 0.3501 0.53015 0.0
C1660 C 0.48169 0.34855 0.48825 0.0
C1661 C 0.47943 0.34224 0.56478 0.0
C1662 C 0.43518 0.32107 0.59606 0.0
H1663 H 0.42157 0.30143 0.81182 0.0
H1664 H 0.43652 0.31698 0.75183 0.0
H1665 H 0.41195 0.3111 0.62992 0.0
H1666 H 0.46012 0.33731 0.4498 0.0
H1667 H 0.4448 0.32265 0.50975 0.0
H1668 H 0.47842 0.31877 0.63334 0.0
C1669 C 0.42877 0.30486 0.74552 0.0
C1670 C 0.42647 0.3129 0.63093 0.0
C1671 C 0.4202 0.296 0.77975 0.0
C1672 C 0.46565 0.3388 0.48174 0.0
C1673 C 0.45679 0.33052 0.51636 0.0
C1674 C 0.46386 0.31767 0.63221 0.0
C1675 C 0.42718 0.29822 0.70345 0.0
C1676 C 0.43633 0.30734 0.66703 0.0
C1677 C 0.46351 0.33216 0.55856 0.0
C1678 C 0.45407 0.32351 0.59595 0.0
H1679 H 0.40128 0.26125 0.72377 0.0
H1680 H 0.41568 0.27707 0.66419 0.0
H1681 H 0.46302 0.30548 0.69464 0.0
H1682 H 0.50066 0.35776 0.53643 0.0
H1683 H 0.48489 0.34438 0.59654 0.0
C1684 C 0.45613 0.64863 0.52219 0.0
C1685 C 0.475 0.64709 0.52563 0.0
C1686 C 0.44828 0.65709 0.48656 0.0
C1687 C 0.45879 0.68795 0.39546 0.0
H1688 H 0.41553 0.66721 0.34575 0.0
C1689 C 0.41858 0.72354 0.26056 0.0
C1690 C 0.41038 0.71283 0.22877 0.0
C1691 C 0.42701 0.7156 0.29599 0.0
C1692 C 0.42772 0.67309 0.35892 0.0
H1693 H 0.50038 0.65354 0.49424 0.0
H1694 H 0.48675 0.66797 0.43236 0.0
H1695 H 0.42879 0.65353 0.4094 0.0
H1696 H 0.40527 0.68524 0.20884 0.0
H1697 H 0.42029 0.67141 0.27016 0.0
H1698 H 0.45799 0.70723 0.34439 0.0
C1699 C 0.47796 0.6629 0.45735 0.0
C1700 C 0.43518 0.66539 0.39589 0.0
C1701 C 0.48579 0.65449 0.4929 0.0
C1702 C 0.41137 0.69394 0.23271 0.0
C1703 C 0.41985 0.68599 0.26814 0.0
C1704 C 0.45135 0.69563 0.35846 0.0
C1705 C 0.4591 0.66422 0.45347 0.0
C1706 C 0.45084 0.6727 0.41467 0.0
C1707 C 0.42755 0.69671 0.30061 0.0
C1708 C 0.43571 0.68831 0.33963 0.0
H1709 H 0.44739 0.64313 0.54678 0.0
H1710 H 0.43371 0.65809 0.48501 0.0
H1711 H 0.47073 0.69409 0.40918 0.0
H1712 H 0.41806 0.73813 0.25878 0.0
H1713 H 0.43261 0.72432 0.32046 0.0
C1714 C 0.11504 0.71697 0.2261 0.0
C1715 C 0.11756 0.7086 0.26619 0.0
C1716 C 0.10915 0.70711 0.19063 0.0
C1717 C 0.0845 0.66594 0.16 0.0
H1718 H 0.10371 0.67688 0.04721 0.0
C1719 C 0.04678 0.64637 0.00579 0.0
C1720 C 0.05663 0.63986 0.97042 0.0
C1721 C 0.05557 0.65334 0.04174 0.0
C1722 C 0.09832 0.67349 0.07846 0.0
H1723 H 0.11581 0.68311 0.30006 0.0
H1724 H 0.10537 0.66581 0.23779 0.0
H1725 H 0.11691 0.6911 0.11047 0.0
H1726 H 0.08362 0.63588 0.94526 0.0
H1727 H 0.09905 0.64823 0.00835 0.0
H1728 H 0.06587 0.64841 0.12801 0.0
C1729 C 0.10795 0.68011 0.23409 0.0
C1730 C 0.10577 0.68179 0.11475 0.0
C1731 C 0.11398 0.69001 0.26976 0.0
C1732 C 0.07559 0.6408 0.97182 0.0
C1733 C 0.08443 0.64789 0.00797 0.0
C1734 C 0.07701 0.6577 0.12371 0.0
C1735 C 0.10552 0.68856 0.19401 0.0
C1736 C 0.09874 0.67838 0.15593 0.0
C1737 C 0.0745 0.65409 0.04357 0.0
C1738 C 0.0836 0.66162 0.08238 0.0
H1739 H 0.11764 0.73125 0.22189 0.0
H1740 H 0.10713 0.71416 0.16059 0.0
H1741 H 0.07869 0.66305 0.1911 0.0
H1742 H 0.03216 0.646 0.00599 0.0
H1743 H 0.04745 0.65834 0.06806 0.0
loop_
_geom_bond_atom_site_label_1
_geom_bond_atom_site_label_2
_geom_bond_distance
_geom_bond_site_symmetry_2
_ccdc_geom_bond_type
Co0 O3 1.970 . S
Co0 N17 1.989 . S
Co0 O25 1.967 . S
Co0 O32 1.920 . S
Co1 O4 1.966 . S
Co1 N10 2.022 . S
Co1 N18 1.993 . S
Co1 O26 1.941 . S
C2 O3 1.258 . S
C2 O4 1.263 . S
O3 Co0 1.970 . S
O3 C2 1.258 . S
O4 Co1 1.966 . S
O4 C2 1.263 . S
C5 O6 1.235 . S
C5 O32 1.289 . S
O6 C5 1.235 . S
C7 C9 1.400 . S
C7 N10 1.351 . S
C7 C12 1.501 . S
C8 C9 1.387 . S
C8 N11 1.341 . S
C9 C7 1.400 . S
C9 C8 1.387 . S
N10 Co1 2.022 . S
N10 C7 1.351 . S
N10 N11 1.365 . S
N11 C8 1.341 . S
N11 N10 1.365 . S
N11 H31 0.862 . S
C12 C7 1.501 . S
C12 H13 0.961 . S
C12 H14 0.961 . S
C12 H15 0.960 . S
H13 C12 0.961 . S
H14 C12 0.961 . S
H15 C12 0.960 . S
C16 N17 1.342 . S
C16 C20 1.401 . S
C16 C21 1.499 . S
N17 Co0 1.989 . S
N17 C16 1.342 . S
N17 N18 1.388 . S
N18 Co1 1.993 . S
N18 N17 1.388 . S
N18 C19 1.346 . S
C19 N18 1.346 . S
C19 C20 1.396 . S
C19 C29 1.510 . S
C20 C16 1.401 . S
C20 C19 1.396 . S
C21 C16 1.499 . S
C21 H22 0.959 . S
C21 H23 0.960 . S
C21 H24 0.961 . S
H22 C21 0.959 . S
H23 C21 0.960 . S
H24 C21 0.961 . S
O25 Co0 1.967 . S
O25 C33 1.258 . S
O26 Co1 1.941 . S
O26 C33 1.266 . S
H27 C29 0.959 . S
H28 C29 0.961 . S
C29 C19 1.510 . S
C29 H27 0.959 . S
C29 H28 0.961 . S
C29 H30 0.960 . S
H30 C29 0.960 . S
H31 N11 0.862 . S
O32 Co0 1.920 . S
O32 C5 1.289 . S
C33 O25 1.258 . S
C33 O26 1.266 . S
Co34 O37 1.970 . S
Co34 N51 1.989 . S
Co34 O59 1.967 . S
Co34 O66 1.920 . S
Co35 O38 1.966 . S
Co35 N44 2.022 . S
Co35 N52 1.993 . S
Co35 O60 1.941 . S
C36 O37 1.258 . S
C36 O38 1.263 . S
O37 Co34 1.970 . S
O37 C36 1.258 . S
O38 Co35 1.966 . S
O38 C36 1.263 . S
C39 O40 1.235 . S
C39 O66 1.289 . S
O40 C39 1.235 . S
C41 C43 1.400 . S
C41 N44 1.351 . S
C41 C46 1.501 . S
C42 C43 1.387 . S
C42 N45 1.341 . S
C43 C41 1.400 . S
C43 C42 1.387 . S
N44 Co35 2.022 . S
N44 C41 1.351 . S
N44 N45 1.365 . S
N45 C42 1.341 . S
N45 N44 1.365 . S
N45 H65 0.862 . S
C46 C41 1.501 . S
C46 H47 0.961 . S
C46 H48 0.961 . S
C46 H49 0.960 . S
H47 C46 0.961 . S
H48 C46 0.961 . S
H49 C46 0.960 . S
C50 N51 1.342 . S
C50 C54 1.401 . S
C50 C55 1.499 . S
N51 Co34 1.989 . S
N51 C50 1.342 . S
N51 N52 1.388 . S
N52 Co35 1.993 . S
N52 N51 1.388 . S
N52 C53 1.346 . S
C53 N52 1.346 . S
C53 C54 1.396 . S
C53 C63 1.510 . S
C54 C50 1.401 . S
C54 C53 1.396 . S
C55 C50 1.499 . S
C55 H56 0.959 . S
C55 H57 0.960 . S
C55 H58 0.961 . S
H56 C55 0.959 . S
H57 C55 0.960 . S
H58 C55 0.961 . S
O59 Co34 1.967 . S
O59 C67 1.258 . S
O60 Co35 1.941 . S
O60 C67 1.266 . S
H61 C63 0.959 . S
H62 C63 0.961 . S
C63 C53 1.510 . S
C63 H61 0.959 . S
C63 H62 0.961 . S
C63 H64 0.960 . S
H64 C63 0.960 . S
H65 N45 0.862 . S
O66 Co34 1.920 . S
O66 C39 1.289 . S
C67 O59 1.258 . S
C67 O60 1.266 . S
Co68 O71 1.970 . S
Co68 N85 1.989 . S
Co68 O93 1.967 . S
Co68 O100 1.920 . S
Co69 O72 1.966 . S
Co69 N78 2.022 . S
Co69 N86 1.993 1_655 S
Co69 O94 1.941 1_655 S
C70 O71 1.258 1_655 S
C70 O72 1.263 . S
O71 Co68 1.970 . S
O71 C70 1.258 1_455 S
O72 Co69 1.966 . S
O72 C70 1.263 . S
C73 O74 1.235 . S
C73 O100 1.289 . S
O74 C73 1.235 . S
C75 C77 1.400 . S
C75 N78 1.351 . S
C75 C80 1.501 . S
C76 C77 1.387 . S
C76 N79 1.341 . S
C77 C75 1.400 . S
C77 C76 1.387 . S
N78 Co69 2.022 . S
N78 C75 1.351 . S
N78 N79 1.365 . S
N79 C76 1.341 . S
N79 N78 1.365 . S
N79 H99 0.862 . S
C80 C75 1.501 . S
C80 H81 0.961 . S
C80 H82 0.961 . S
C80 H83 0.960 . S
H81 C80 0.961 . S
H82 C80 0.961 . S
H83 C80 0.960 . S
C84 N85 1.342 . S
C84 C88 1.401 . S
C84 C89 1.499 . S
N85 Co68 1.989 . S
N85 C84 1.342 . S
N85 N86 1.388 . S
N86 Co69 1.993 1_455 S
N86 N85 1.388 . S
N86 C87 1.346 . S
C87 N86 1.346 . S
C87 C88 1.396 . S
C87 C97 1.510 . S
C88 C84 1.401 . S
C88 C87 1.396 . S
C89 C84 1.499 . S
C89 H90 0.959 . S
C89 H91 0.960 . S
C89 H92 0.961 . S
H90 C89 0.959 . S
H91 C89 0.960 . S
H92 C89 0.961 . S
O93 Co68 1.967 . S
O93 C101 1.258 . S
O94 Co69 1.941 1_455 S
O94 C101 1.269 . S
H95 C97 0.959 . S
H96 C97 0.961 . S
C97 C87 1.510 . S
C97 H95 0.959 . S
C97 H96 0.961 . S
C97 H98 0.960 . S
H98 C97 0.960 . S
H99 N79 0.862 . S
O100 Co68 1.920 . S
O100 C73 1.289 . S
C101 O93 1.258 . S
C101 O94 1.269 . S
Co102 O105 1.970 . S
Co102 N119 1.989 . S
Co102 O127 1.967 . S
Co102 O134 1.920 . S
Co103 O106 1.966 . S
Co103 N112 2.022 . S
Co103 N120 1.993 . S
Co103 O128 1.941 . S
C104 O105 1.258 . S
C104 O106 1.263 . S
O105 Co102 1.970 . S
O105 C104 1.258 . S
O106 Co103 1.966 . S
O106 C104 1.263 . S
C107 O108 1.235 . S
C107 O134 1.289 . S
O108 C107 1.235 . S
C109 C111 1.400 . S
C109 N112 1.351 . S
C109 C114 1.501 . S
C110 C111 1.387 1_556 S
C110 N113 1.341 1_556 S
C111 C109 1.400 . S
C111 C110 1.387 1_554 S
N112 Co103 2.022 . S
N112 C109 1.351 . S
N112 N113 1.365 . S
N113 C110 1.341 1_554 S
N113 N112 1.365 . S
N113 H133 0.862 . S
C114 C109 1.501 . S
C114 H115 0.961 . S
C114 H116 0.961 . S
C114 H117 0.960 . S
H115 C114 0.961 . S
H116 C114 0.961 . S
H117 C114 0.960 . S
C118 N119 1.342 . S
C118 C122 1.401 . S
C118 C123 1.499 . S
N119 Co102 1.989 . S
N119 C118 1.342 . S
N119 N120 1.388 . S
N120 Co103 1.993 . S
N120 N119 1.388 . S
N120 C121 1.346 . S
C121 N120 1.346 . S
C121 C122 1.396 . S
C121 C131 1.510 . S
C122 C118 1.401 . S
C122 C121 1.396 . S
C123 C118 1.499 . S
C123 H124 0.959 . S
C123 H125 0.960 . S
C123 H126 0.961 . S
H124 C123 0.959 . S
H125 C123 0.960 . S
H126 C123 0.961 . S
O127 Co102 1.967 . S
O127 C135 1.258 . S
O128 Co103 1.941 . S
O128 C135 1.266 . S
H129 C131 0.959 1_556 S
H130 C131 0.958 1_556 S
C131 C121 1.510 . S
C131 H129 0.959 1_554 S
C131 H130 0.958 1_554 S
C131 H132 0.960 . S
H132 C131 0.960 . S
H133 N113 0.862 . S
O134 Co102 1.920 . S
O134 C107 1.289 . S
C135 O127 1.258 . S
C135 O128 1.266 . S
Co136 O139 1.970 . S
Co136 N153 1.989 . S
Co136 O161 1.967 . S
Co136 O168 1.920 . S
Co137 O140 1.966 . S
Co137 N146 2.022 . S
Co137 N154 1.993 . S
Co137 O162 1.941 . S
C138 O139 1.258 . S
C138 O140 1.263 . S
O139 Co136 1.970 . S
O139 C138 1.258 . S
O140 Co137 1.966 . S
O140 C138 1.263 . S
C141 O142 1.235 . S
C141 O168 1.289 . S
O142 C141 1.235 . S
C143 C145 1.400 . S
C143 N146 1.351 . S
C143 C148 1.501 . S
C144 C145 1.387 . S
C144 N147 1.341 . S
C145 C143 1.400 . S
C145 C144 1.387 . S
N146 Co137 2.022 . S
N146 C143 1.351 . S
N146 N147 1.365 . S
N147 C144 1.341 . S
N147 N146 1.365 . S
N147 H167 0.862 . S
C148 C143 1.501 . S
C148 H149 0.961 . S
C148 H150 0.961 . S
C148 H151 0.960 . S
H149 C148 0.961 . S
H150 C148 0.961 . S
H151 C148 0.960 . S
C152 N153 1.342 . S
C152 C156 1.401 . S
C152 C157 1.499 . S
N153 Co136 1.989 . S
N153 C152 1.342 . S
N153 N154 1.388 . S
N154 Co137 1.993 . S
N154 N153 1.388 . S
N154 C155 1.346 . S
C155 N154 1.346 . S
C155 C156 1.396 . S
C155 C165 1.510 . S
C156 C152 1.401 . S
C156 C155 1.396 . S
C157 C152 1.499 . S
C157 H158 0.959 . S
C157 H159 0.960 . S
C157 H160 0.961 . S
H158 C157 0.959 . S
H159 C157 0.960 . S
H160 C157 0.961 . S
O161 Co136 1.967 . S
O161 C169 1.258 . S
O162 Co137 1.941 . S
O162 C169 1.266 . S
H163 C165 0.959 . S
H164 C165 0.961 . S
C165 C155 1.510 . S
C165 H163 0.959 . S
C165 H164 0.961 . S
C165 H166 0.960 . S
H166 C165 0.960 . S
H167 N147 0.862 . S
O168 Co136 1.920 . S
O168 C141 1.289 . S
C169 O161 1.258 . S
C169 O162 1.266 . S
Co170 O173 1.970 . S
Co170 N187 1.989 . S
Co170 O195 1.967 . S
Co170 O202 1.920 . S
Co171 O174 1.966 . S
Co171 N180 2.022 . S
Co171 N188 1.993 . S
Co171 O196 1.941 . S
C172 O173 1.258 . S
C172 O174 1.263 . S
O173 Co170 1.970 . S
O173 C172 1.258 . S
O174 Co171 1.966 . S
O174 C172 1.263 . S
C175 O176 1.235 . S
C175 O202 1.289 . S
O176 C175 1.235 . S
C177 C179 1.400 . S
C177 N180 1.351 . S
C177 C182 1.501 . S
C178 C179 1.387 1_554 S
C178 N181 1.341 1_554 S
C179 C177 1.400 . S
C179 C178 1.387 1_556 S
N180 Co171 2.022 . S
N180 C177 1.351 . S
N180 N181 1.365 . S
N181 C178 1.341 1_556 S
N181 N180 1.365 . S
N181 H201 0.862 . S
C182 C177 1.501 . S
C182 H183 0.961 . S
C182 H184 0.961 . S
C182 H185 0.960 . S
H183 C182 0.961 . S
H184 C182 0.961 . S
H185 C182 0.960 . S
C186 N187 1.342 . S
C186 C190 1.401 . S
C186 C191 1.499 . S
N187 Co170 1.989 . S
N187 C186 1.342 . S
N187 N188 1.388 . S
N188 Co171 1.993 . S
N188 N187 1.388 . S
N188 C189 1.346 . S
C189 N188 1.346 . S
C189 C190 1.396 . S
C189 C199 1.510 . S
C190 C186 1.401 . S
C190 C189 1.396 . S
C191 C186 1.499 . S
C191 H192 0.959 . S
C191 H193 0.960 . S
C191 H194 0.961 . S
H192 C191 0.959 . S
H193 C191 0.960 . S
H194 C191 0.961 . S
O195 Co170 1.967 . S
O195 C203 1.258 . S
O196 Co171 1.941 . S
O196 C203 1.266 . S
H197 C199 0.959 1_554 S
H198 C199 0.958 1_554 S
C199 C189 1.510 . S
C199 H197 0.959 1_556 S
C199 H198 0.958 1_556 S
C199 H200 0.960 . S
H200 C199 0.960 . S
H201 N181 0.862 . S
O202 Co170 1.920 . S
O202 C175 1.289 . S
C203 O195 1.258 . S
C203 O196 1.266 . S
Co204 O207 1.970 . S
Co204 N221 1.989 . S
Co204 O229 1.967 . S
Co204 O236 1.920 . S
Co205 O208 1.966 . S
Co205 N214 2.022 . S
Co205 N222 1.993 1_655 S
Co205 O230 1.941 1_655 S
C206 O207 1.258 1_655 S
C206 O208 1.263 . S
O207 Co204 1.970 . S
O207 C206 1.258 1_455 S
O208 Co205 1.966 . S
O208 C206 1.263 . S
C209 O210 1.235 . S
C209 O236 1.289 . S
O210 C209 1.235 . S
C211 C213 1.400 . S
C211 N214 1.351 . S
C211 C216 1.501 . S
C212 C213 1.387 . S
C212 N215 1.341 . S
C213 C211 1.400 . S
C213 C212 1.387 . S
N214 Co205 2.022 . S
N214 C211 1.351 . S
N214 N215 1.365 . S
N215 C212 1.341 . S
N215 N214 1.365 . S
N215 H235 0.862 . S
C216 C211 1.501 . S
C216 H217 0.961 . S
C216 H218 0.961 . S
C216 H219 0.960 . S
H217 C216 0.961 . S
H218 C216 0.961 . S
H219 C216 0.960 . S
C220 N221 1.342 . S
C220 C224 1.401 . S
C220 C225 1.499 . S
N221 Co204 1.989 . S
N221 C220 1.342 . S
N221 N222 1.388 . S
N222 Co205 1.993 1_455 S
N222 N221 1.388 . S
N222 C223 1.346 . S
C223 N222 1.346 . S
C223 C224 1.396 . S
C223 C233 1.510 . S
C224 C220 1.401 . S
C224 C223 1.396 . S
C225 C220 1.499 . S
C225 H226 0.959 . S
C225 H227 0.960 . S
C225 H228 0.961 . S
H226 C225 0.959 . S
H227 C225 0.960 . S
H228 C225 0.961 . S
O229 Co204 1.967 . S
O229 C237 1.258 . S
O230 Co205 1.941 1_455 S
O230 C237 1.269 . S
H231 C233 0.959 . S
H232 C233 0.961 . S
C233 C223 1.510 . S
C233 H231 0.959 . S
C233 H232 0.961 . S
C233 H234 0.960 . S
H234 C233 0.960 . S
H235 N215 0.862 . S
O236 Co204 1.920 . S
O236 C209 1.289 . S
C237 O229 1.258 . S
C237 O230 1.269 . S
Co238 O241 1.970 . S
Co238 N255 1.989 . S
Co238 O263 1.967 . S
Co238 O270 1.920 . S
Co239 O242 1.966 . S
Co239 N248 2.022 . S
Co239 N256 1.993 . S
Co239 O264 1.941 . S
C240 O241 1.258 . S
C240 O242 1.263 . S
O241 Co238 1.970 . S
O241 C240 1.258 . S
O242 Co239 1.966 . S
O242 C240 1.263 . S
C243 O244 1.235 . S
C243 O270 1.289 . S
O244 C243 1.235 . S
C245 C247 1.400 . S
C245 N248 1.351 . S
C245 C250 1.501 . S
C246 C247 1.387 . S
C246 N249 1.341 . S
C247 C245 1.400 . S
C247 C246 1.387 . S
N248 Co239 2.022 . S
N248 C245 1.351 . S
N248 N249 1.365 . S
N249 C246 1.341 . S
N249 N248 1.365 . S
N249 H269 0.862 . S
C250 C245 1.501 . S
C250 H251 0.961 . S
C250 H252 0.961 . S
C250 H253 0.960 . S
H251 C250 0.961 . S
H252 C250 0.961 . S
H253 C250 0.960 . S
C254 N255 1.342 . S
C254 C258 1.401 . S
C254 C259 1.499 . S
N255 Co238 1.989 . S
N255 C254 1.342 . S
N255 N256 1.388 . S
N256 Co239 1.993 . S
N256 N255 1.388 . S
N256 C257 1.346 . S
C257 N256 1.346 . S
C257 C258 1.396 . S
C257 C267 1.510 . S
C258 C254 1.401 . S
C258 C257 1.396 . S
C259 C254 1.499 . S
C259 H260 0.959 . S
C259 H261 0.960 . S
C259 H262 0.961 . S
H260 C259 0.959 . S
H261 C259 0.960 . S
H262 C259 0.961 . S
O263 Co238 1.967 . S
O263 C271 1.258 . S
O264 Co239 1.941 . S
O264 C271 1.266 . S
H265 C267 0.959 . S
H266 C267 0.961 . S
C267 C257 1.510 . S
C267 H265 0.959 . S
C267 H266 0.961 . S
C267 H268 0.960 . S
H268 C267 0.960 . S
H269 N249 0.862 . S
O270 Co238 1.920 . S
O270 C243 1.289 . S
C271 O263 1.258 . S
C271 O264 1.266 . S
Co272 O275 1.970 . S
Co272 N289 1.989 . S
Co272 O297 1.967 . S
Co272 O304 1.920 . S
Co273 O276 1.966 . S
Co273 N282 2.022 . S
Co273 N290 1.993 . S
Co273 O298 1.941 . S
C274 O275 1.258 . S
C274 O276 1.263 . S
O275 Co272 1.970 . S
O275 C274 1.258 . S
O276 Co273 1.966 . S
O276 C274 1.263 . S
C277 O278 1.235 . S
C277 O304 1.289 . S
O278 C277 1.235 . S
C279 C281 1.400 . S
C279 N282 1.351 . S
C279 C284 1.501 . S
C280 C281 1.387 . S
C280 N283 1.341 . S
C281 C279 1.400 . S
C281 C280 1.387 . S
N282 Co273 2.022 . S
N282 C279 1.351 . S
N282 N283 1.365 . S
N283 C280 1.341 . S
N283 N282 1.365 . S
N283 H303 0.862 . S
C284 C279 1.501 . S
C284 H285 0.961 . S
C284 H286 0.961 . S
C284 H287 0.960 . S
H285 C284 0.961 . S
H286 C284 0.961 . S
H287 C284 0.960 . S
C288 N289 1.342 . S
C288 C292 1.401 . S
C288 C293 1.499 . S
N289 Co272 1.989 . S
N289 C288 1.342 . S
N289 N290 1.388 . S
N290 Co273 1.993 . S
N290 N289 1.388 . S
N290 C291 1.346 . S
C291 N290 1.346 . S
C291 C292 1.396 . S
C291 C301 1.510 . S
C292 C288 1.401 . S
C292 C291 1.396 . S
C293 C288 1.499 . S
C293 H294 0.959 . S
C293 H295 0.960 . S
C293 H296 0.961 . S
H294 C293 0.959 . S
H295 C293 0.960 . S
H296 C293 0.961 . S
O297 Co272 1.967 . S
O297 C305 1.258 . S
O298 Co273 1.941 . S
O298 C305 1.266 . S
H299 C301 0.959 . S
H300 C301 0.961 . S
C301 C291 1.510 . S
C301 H299 0.959 . S
C301 H300 0.961 . S
C301 H302 0.960 . S
H302 C301 0.960 . S
H303 N283 0.862 . S
O304 Co272 1.920 . S
O304 C277 1.289 . S
C305 O297 1.258 . S
C305 O298 1.266 . S
Co306 O309 1.970 . S
Co306 N323 1.989 . S
Co306 O331 1.967 . S
Co306 O338 1.920 . S
Co307 O310 1.966 . S
Co307 N316 2.022 . S
Co307 N324 1.993 . S
Co307 O332 1.941 . S
C308 O309 1.258 . S
C308 O310 1.263 . S
O309 Co306 1.970 . S
O309 C308 1.258 . S
O310 Co307 1.966 . S
O310 C308 1.263 . S
C311 O312 1.235 . S
C311 O338 1.289 . S
O312 C311 1.235 . S
C313 C315 1.400 . S
C313 N316 1.351 . S
C313 C318 1.501 . S
C314 C315 1.387 1_554 S
C314 N317 1.341 1_554 S
C315 C313 1.400 . S
C315 C314 1.387 1_556 S
N316 Co307 2.022 . S
N316 C313 1.351 . S
N316 N317 1.365 . S
N317 C314 1.341 1_556 S
N317 N316 1.365 . S
N317 H337 0.862 . S
C318 C313 1.501 . S
C318 H319 0.961 . S
C318 H320 0.961 . S
C318 H321 0.960 . S
H319 C318 0.961 . S
H320 C318 0.961 . S
H321 C318 0.960 . S
C322 N323 1.342 . S
C322 C326 1.401 . S
C322 C327 1.499 . S
N323 Co306 1.989 . S
N323 C322 1.342 . S
N323 N324 1.388 . S
N324 Co307 1.993 . S
N324 N323 1.388 . S
N324 C325 1.346 . S
C325 N324 1.346 . S
C325 C326 1.396 . S
C325 C335 1.510 . S
C326 C322 1.401 . S
C326 C325 1.396 . S
C327 C322 1.499 . S
C327 H328 0.959 . S
C327 H329 0.960 . S
C327 H330 0.961 . S
H328 C327 0.959 . S
H329 C327 0.960 . S
H330 C327 0.961 . S
O331 Co306 1.967 . S
O331 C339 1.258 . S
O332 Co307 1.941 . S
O332 C339 1.266 . S
H333 C335 0.959 1_554 S
H334 C335 0.958 1_554 S
C335 C325 1.510 . S
C335 H333 0.959 1_556 S
C335 H334 0.958 1_556 S
C335 H336 0.960 . S
H336 C335 0.960 . S
H337 N317 0.862 . S
O338 Co306 1.920 . S
O338 C311 1.289 . S
C339 O331 1.258 . S
C339 O332 1.266 . S
Co340 O343 1.970 . S
Co340 N357 1.989 . S
Co340 O365 1.967 . S
Co340 O372 1.920 . S
Co341 O344 1.966 . S
Co341 N350 2.022 . S
Co341 N358 1.993 . S
Co341 O366 1.941 . S
C342 O343 1.258 . S
C342 O344 1.263 . S
O343 Co340 1.970 . S
O343 C342 1.258 . S
O344 Co341 1.966 . S
O344 C342 1.263 . S
C345 O346 1.235 . S
C345 O372 1.289 . S
O346 C345 1.235 . S
C347 C349 1.400 . S
C347 N350 1.351 . S
C347 C352 1.501 . S
C348 C349 1.387 1_556 S
C348 N351 1.341 1_556 S
C349 C347 1.400 . S
C349 C348 1.387 1_554 S
N350 Co341 2.022 . S
N350 C347 1.351 . S
N350 N351 1.365 . S
N351 C348 1.341 1_554 S
N351 N350 1.365 . S
N351 H371 0.862 . S
C352 C347 1.501 . S
C352 H353 0.961 . S
C352 H354 0.961 . S
C352 H355 0.960 . S
H353 C352 0.961 . S
H354 C352 0.961 . S
H355 C352 0.960 . S
C356 N357 1.342 . S
C356 C360 1.401 . S
C356 C361 1.499 . S
N357 Co340 1.989 . S
N357 C356 1.342 . S
N357 N358 1.388 . S
N358 Co341 1.993 . S
N358 N357 1.388 . S
N358 C359 1.346 . S
C359 N358 1.346 . S
C359 C360 1.396 . S
C359 C369 1.510 . S
C360 C356 1.401 . S
C360 C359 1.396 . S
C361 C356 1.499 . S
C361 H362 0.959 . S
C361 H363 0.960 . S
C361 H364 0.961 . S
H362 C361 0.959 . S
H363 C361 0.960 . S
H364 C361 0.961 . S
O365 Co340 1.967 . S
O365 C373 1.258 . S
O366 Co341 1.941 . S
O366 C373 1.266 . S
H367 C369 0.959 1_556 S
H368 C369 0.958 1_556 S
C369 C359 1.510 . S
C369 H367 0.959 1_554 S
C369 H368 0.958 1_554 S
C369 H370 0.960 . S
H370 C369 0.960 . S
H371 N351 0.862 . S
O372 Co340 1.920 . S
O372 C345 1.289 . S
C373 O365 1.258 . S
C373 O366 1.266 . S
Co374 O377 1.970 . S
Co374 N391 1.989 . S
Co374 O399 1.967 . S
Co374 O406 1.920 . S
Co375 O378 1.966 . S
Co375 N384 2.022 . S
Co375 N392 1.993 . S
Co375 O400 1.941 . S
C376 O377 1.258 . S
C376 O378 1.263 . S
O377 Co374 1.970 . S
O377 C376 1.258 . S
O378 Co375 1.966 . S
O378 C376 1.263 . S
C379 O380 1.235 . S
C379 O406 1.289 . S
O380 C379 1.235 . S
C381 C383 1.400 . S
C381 N384 1.351 . S
C381 C386 1.501 . S
C382 C383 1.387 . S
C382 N385 1.341 . S
C383 C381 1.400 . S
C383 C382 1.387 . S
N384 Co375 2.022 . S
N384 C381 1.351 . S
N384 N385 1.365 . S
N385 C382 1.341 . S
N385 N384 1.365 . S
N385 H405 0.862 . S
C386 C381 1.501 . S
C386 H387 0.961 . S
C386 H388 0.961 . S
C386 H389 0.960 . S
H387 C386 0.961 . S
H388 C386 0.961 . S
H389 C386 0.960 . S
C390 N391 1.342 . S
C390 C394 1.401 . S
C390 C395 1.499 . S
N391 Co374 1.989 . S
N391 C390 1.342 . S
N391 N392 1.388 . S
N392 Co375 1.993 . S
N392 N391 1.388 . S
N392 C393 1.346 . S
C393 N392 1.346 . S
C393 C394 1.396 . S
C393 C403 1.510 . S
C394 C390 1.401 . S
C394 C393 1.396 . S
C395 C390 1.499 . S
C395 H396 0.959 . S
C395 H397 0.960 . S
C395 H398 0.961 . S
H396 C395 0.959 . S
H397 C395 0.960 . S
H398 C395 0.961 . S
O399 Co374 1.967 . S
O399 C407 1.258 . S
O400 Co375 1.941 . S
O400 C407 1.266 . S
H401 C403 0.959 . S
H402 C403 0.961 . S
C403 C393 1.510 . S
C403 H401 0.959 . S
C403 H402 0.961 . S
C403 H404 0.960 . S
H404 C403 0.960 . S
H405 N385 0.862 . S
O406 Co374 1.920 . S
O406 C379 1.289 . S
C407 O399 1.258 . S
C407 O400 1.266 . S
Co408 O411 1.970 . S
Co408 N425 1.989 1_455 S
Co408 O433 1.967 . S
Co408 O440 1.920 1_455 S
Co409 O412 1.966 . S
Co409 N418 2.022 . S
Co409 N426 1.993 . S
Co409 O434 1.941 . S
C410 O411 1.258 . S
C410 O412 1.263 . S
O411 Co408 1.970 . S
O411 C410 1.258 . S
O412 Co409 1.966 . S
O412 C410 1.263 . S
C413 O414 1.235 . S
C413 O440 1.289 . S
O414 C413 1.235 . S
C415 C417 1.400 . S
C415 N418 1.351 . S
C415 C420 1.501 . S
C416 C417 1.387 . S
C416 N419 1.341 . S
C417 C415 1.400 . S
C417 C416 1.387 . S
N418 Co409 2.022 . S
N418 C415 1.351 . S
N418 N419 1.365 . S
N419 C416 1.341 . S
N419 N418 1.365 . S
N419 H439 0.862 . S
C420 C415 1.501 . S
C420 H421 0.961 . S
C420 H422 0.961 . S
C420 H423 0.960 . S
H421 C420 0.961 . S
H422 C420 0.961 . S
H423 C420 0.960 . S
C424 N425 1.342 . S
C424 C428 1.401 . S
C424 C429 1.499 . S
N425 Co408 1.989 1_655 S
N425 C424 1.342 . S
N425 N426 1.388 1_655 S
N426 Co409 1.993 . S
N426 N425 1.388 1_455 S
N426 C427 1.346 . S
C427 N426 1.346 . S
C427 C428 1.396 1_455 S
C427 C437 1.510 . S
C428 C424 1.401 . S
C428 C427 1.396 1_655 S
C429 C424 1.499 . S
C429 H430 0.959 . S
C429 H431 0.960 . S
C429 H432 0.961 . S
H430 C429 0.959 . S
H431 C429 0.960 . S
H432 C429 0.961 . S
O433 Co408 1.967 . S
O433 C441 1.258 . S
O434 Co409 1.941 . S
O434 C441 1.266 . S
H435 C437 0.959 . S
H436 C437 0.961 . S
C437 C427 1.510 . S
C437 H435 0.959 . S
C437 H436 0.961 . S
C437 H438 0.960 . S
H438 C437 0.960 . S
H439 N419 0.862 . S
O440 Co408 1.920 1_655 S
O440 C413 1.289 . S
C441 O433 1.258 . S
C441 O434 1.266 . S
Co442 O445 1.970 . S
Co442 N459 1.989 . S
Co442 O467 1.967 . S
Co442 O474 1.920 . S
Co443 O446 1.966 . S
Co443 N452 2.022 . S
Co443 N460 1.993 . S
Co443 O468 1.941 . S
C444 O445 1.258 . S
C444 O446 1.263 . S
O445 Co442 1.970 . S
O445 C444 1.258 . S
O446 Co443 1.966 . S
O446 C444 1.263 . S
C447 O448 1.235 . S
C447 O474 1.289 . S
O448 C447 1.235 . S
C449 C451 1.400 . S
C449 N452 1.351 . S
C449 C454 1.501 . S
C450 C451 1.387 . S
C450 N453 1.341 . S
C451 C449 1.400 . S
C451 C450 1.387 . S
N452 Co443 2.022 . S
N452 C449 1.351 . S
N452 N453 1.365 . S
N453 C450 1.341 . S
N453 N452 1.365 . S
N453 H473 0.862 . S
C454 C449 1.501 . S
C454 H455 0.961 . S
C454 H456 0.961 . S
C454 H457 0.960 . S
H455 C454 0.961 . S
H456 C454 0.961 . S
H457 C454 0.960 . S
C458 N459 1.342 . S
C458 C462 1.401 . S
C458 C463 1.499 . S
N459 Co442 1.989 . S
N459 C458 1.342 . S
N459 N460 1.388 . S
N460 Co443 1.993 . S
N460 N459 1.388 . S
N460 C461 1.346 . S
C461 N460 1.346 . S
C461 C462 1.396 . S
C461 C471 1.510 . S
C462 C458 1.401 . S
C462 C461 1.396 . S
C463 C458 1.499 . S
C463 H464 0.959 . S
C463 H465 0.960 . S
C463 H466 0.961 . S
H464 C463 0.959 . S
H465 C463 0.960 . S
H466 C463 0.961 . S
O467 Co442 1.967 . S
O467 C475 1.258 . S
O468 Co443 1.941 . S
O468 C475 1.266 . S
H469 C471 0.959 . S
H470 C471 0.961 . S
C471 C461 1.510 . S
C471 H469 0.959 . S
C471 H470 0.961 . S
C471 H472 0.960 . S
H472 C471 0.960 . S
H473 N453 0.862 . S
O474 Co442 1.920 . S
O474 C447 1.289 . S
C475 O467 1.258 . S
C475 O468 1.266 . S
Co476 O479 1.970 . S
Co476 N493 1.989 1_455 S
Co476 O501 1.967 . S
Co476 O508 1.920 1_455 S
Co477 O480 1.966 . S
Co477 N486 2.022 . S
Co477 N494 1.993 . S
Co477 O502 1.941 . S
C478 O479 1.258 . S
C478 O480 1.263 . S
O479 Co476 1.970 . S
O479 C478 1.258 . S
O480 Co477 1.966 . S
O480 C478 1.263 . S
C481 O482 1.235 . S
C481 O508 1.289 . S
O482 C481 1.235 . S
C483 C485 1.400 . S
C483 N486 1.351 . S
C483 C488 1.501 . S
C484 C485 1.387 . S
C484 N487 1.341 . S
C485 C483 1.400 . S
C485 C484 1.387 . S
N486 Co477 2.022 . S
N486 C483 1.351 . S
N486 N487 1.365 . S
N487 C484 1.341 . S
N487 N486 1.365 . S
N487 H507 0.862 . S
C488 C483 1.501 . S
C488 H489 0.961 . S
C488 H490 0.961 . S
C488 H491 0.960 . S
H489 C488 0.961 . S
H490 C488 0.961 . S
H491 C488 0.960 . S
C492 N493 1.342 . S
C492 C496 1.401 . S
C492 C497 1.499 . S
N493 Co476 1.989 1_655 S
N493 C492 1.342 . S
N493 N494 1.388 1_655 S
N494 Co477 1.993 . S
N494 N493 1.388 1_455 S
N494 C495 1.346 . S
C495 N494 1.346 . S
C495 C496 1.396 1_455 S
C495 C505 1.510 . S
C496 C492 1.401 . S
C496 C495 1.396 1_655 S
C497 C492 1.499 . S
C497 H498 0.959 . S
C497 H499 0.960 . S
C497 H500 0.961 . S
H498 C497 0.959 . S
H499 C497 0.960 . S
H500 C497 0.961 . S
O501 Co476 1.967 . S
O501 C509 1.258 . S
O502 Co477 1.941 . S
O502 C509 1.266 . S
H503 C505 0.959 . S
H504 C505 0.961 . S
C505 C495 1.510 . S
C505 H503 0.959 . S
C505 H504 0.961 . S
C505 H506 0.960 . S
H506 C505 0.960 . S
H507 N487 0.862 . S
O508 Co476 1.920 1_655 S
O508 C481 1.289 . S
C509 O501 1.258 . S
C509 O502 1.266 . S
Co510 O513 1.970 . S
Co510 N527 1.989 . S
Co510 O535 1.967 . S
Co510 O542 1.920 . S
Co511 O514 1.966 . S
Co511 N520 2.022 . S
Co511 N528 1.993 . S
Co511 O536 1.941 . S
C512 O513 1.258 . S
C512 O514 1.263 . S
O513 Co510 1.970 . S
O513 C512 1.258 . S
O514 Co511 1.966 . S
O514 C512 1.263 . S
C515 O516 1.235 . S
C515 O542 1.289 . S
O516 C515 1.235 . S
C517 C519 1.400 . S
C517 N520 1.351 . S
C517 C522 1.501 . S
C518 C519 1.387 . S
C518 N521 1.341 . S
C519 C517 1.400 . S
C519 C518 1.387 . S
N520 Co511 2.022 . S
N520 C517 1.351 . S
N520 N521 1.365 . S
N521 C518 1.341 . S
N521 N520 1.365 . S
N521 H541 0.862 . S
C522 C517 1.501 . S
C522 H523 0.961 . S
C522 H524 0.961 . S
C522 H525 0.960 . S
H523 C522 0.961 . S
H524 C522 0.961 . S
H525 C522 0.960 . S
C526 N527 1.342 . S
C526 C530 1.401 . S
C526 C531 1.499 . S
N527 Co510 1.989 . S
N527 C526 1.342 . S
N527 N528 1.388 . S
N528 Co511 1.993 . S
N528 N527 1.388 . S
N528 C529 1.346 . S
C529 N528 1.346 . S
C529 C530 1.396 . S
C529 C539 1.510 . S
C530 C526 1.401 . S
C530 C529 1.396 . S
C531 C526 1.499 . S
C531 H532 0.959 . S
C531 H533 0.960 . S
C531 H534 0.961 . S
H532 C531 0.959 . S
H533 C531 0.960 . S
H534 C531 0.961 . S
O535 Co510 1.967 . S
O535 C543 1.258 . S
O536 Co511 1.941 . S
O536 C543 1.266 . S
H537 C539 0.959 . S
H538 C539 0.961 . S
C539 C529 1.510 . S
C539 H537 0.959 . S
C539 H538 0.961 . S
C539 H540 0.960 . S
H540 C539 0.960 . S
H541 N521 0.862 . S
O542 Co510 1.920 . S
O542 C515 1.289 . S
C543 O535 1.258 . S
C543 O536 1.266 . S
C544 C545 1.349 . S
C544 C546 1.327 . S
C544 H569 0.950 . S
C545 C544 1.349 . S
C545 C561 1.349 . S
C546 C544 1.327 . S
C546 C565 1.429 . S
C546 H570 0.950 . S
C547 C564 1.574 1_545 S
C547 C566 1.368 . S
C547 H571 0.949 . S
H548 C552 0.949 . S
C549 C550 1.349 . S
C549 C551 1.327 . S
C549 H572 0.950 . S
C550 C549 1.349 . S
C550 C562 1.349 . S
C551 C549 1.327 . S
C551 C567 1.429 . S
C551 H573 0.950 . S
C552 H548 0.949 . S
C552 C560 1.574 1_565 S
C552 C568 1.368 . S
H553 C561 0.950 . S
H554 C559 0.950 . S
H555 C560 0.949 . S
H556 C562 0.950 . S
H557 C563 0.950 . S
H558 C564 0.949 . S
C559 H554 0.950 . S
C559 C561 1.327 . S
C559 C565 1.429 . S
C560 C552 1.574 1_545 S
C560 H555 0.949 . S
C560 C566 1.368 . S
C561 C545 1.349 . S
C561 H553 0.950 . S
C561 C559 1.327 . S
C562 C550 1.349 . S
C562 H556 0.950 . S
C562 C563 1.327 . S
C563 H557 0.950 . S
C563 C562 1.327 . S
C563 C567 1.429 . S
C564 C547 1.574 1_565 S
C564 H558 0.949 . S
C564 C568 1.368 . S
C565 C546 1.429 . S
C565 C559 1.429 . S
C565 C566 1.523 . S
C566 C547 1.368 . S
C566 C560 1.368 . S
C566 C565 1.523 . S
C567 C551 1.429 . S
C567 C563 1.429 . S
C567 C568 1.523 . S
C568 C552 1.368 . S
C568 C564 1.368 . S
C568 C567 1.523 . S
H569 C544 0.950 . S
H570 C546 0.950 . S
H571 C547 0.949 . S
H572 C549 0.950 . S
H573 C551 0.950 . S
C574 C575 1.349 . S
C574 C576 1.327 . S
C574 H599 0.950 . S
C575 C574 1.349 . S
C575 C591 1.349 . S
C576 C574 1.327 . S
C576 C595 1.429 . S
C576 H600 0.950 . S
C577 C594 1.574 . S
C577 C596 1.368 . S
C577 H601 0.949 . S
H578 C582 0.949 . S
C579 C580 1.349 . S
C579 C581 1.327 . S
C579 H602 0.950 . S
C580 C579 1.349 . S
C580 C592 1.349 . S
C581 C579 1.327 . S
C581 C597 1.429 . S
C581 H603 0.950 . S
C582 H578 0.949 . S
C582 C590 1.574 . S
C582 C598 1.368 . S
H583 C591 0.950 . S
H584 C589 0.950 . S
H585 C590 0.949 . S
H586 C592 0.950 . S
H587 C593 0.950 . S
H588 C594 0.949 . S
C589 H584 0.950 . S
C589 C591 1.327 . S
C589 C595 1.429 . S
C590 C582 1.574 . S
C590 H585 0.949 . S
C590 C596 1.368 . S
C591 C575 1.349 . S
C591 H583 0.950 . S
C591 C589 1.327 . S
C592 C580 1.349 . S
C592 H586 0.950 . S
C592 C593 1.327 . S
C593 H587 0.950 . S
C593 C592 1.327 . S
C593 C597 1.429 . S
C594 C577 1.574 . S
C594 H588 0.949 . S
C594 C598 1.368 . S
C595 C576 1.429 . S
C595 C589 1.429 . S
C595 C596 1.523 . S
C596 C577 1.368 . S
C596 C590 1.368 . S
C596 C595 1.523 . S
C597 C581 1.429 . S
C597 C593 1.429 . S
C597 C598 1.523 . S
C598 C582 1.368 . S
C598 C594 1.368 . S
C598 C597 1.523 . S
H599 C574 0.950 . S
H600 C576 0.950 . S
H601 C577 0.949 . S
H602 C579 0.950 . S
H603 C581 0.950 . S
C604 C605 1.349 . S
C604 C606 1.329 . S
C604 H629 0.950 1_455 S
C605 C604 1.349 . S
C605 C621 1.349 . S
C606 C604 1.329 . S
C606 C625 1.460 . S
C606 H630 0.920 1_455 S
C607 C624 1.574 1_545 S
C607 C626 1.368 1_556 S
C607 H631 0.949 . S
H608 C612 0.936 1_655 S
C609 C610 1.349 . S
C609 C611 1.327 . S
C609 H632 0.950 . S
C610 C609 1.349 . S
C610 C622 1.349 . S
C611 C609 1.327 . S
C611 C627 1.429 . S
C611 H633 0.950 . S
C612 H608 0.936 1_455 S
C612 C620 1.574 1_565 S
C612 C628 1.383 1_554 S
H613 C621 0.950 . S
H614 C619 0.950 . S
H615 C620 0.936 1_655 S
H616 C622 0.950 1_655 S
H617 C623 0.920 1_655 S
H618 C624 0.949 . S
C619 H614 0.950 . S
C619 C621 1.327 . S
C619 C625 1.429 . S
C620 C612 1.574 1_545 S
C620 H615 0.936 1_455 S
C620 C626 1.383 . S
C621 C605 1.349 . S
C621 H613 0.950 . S
C621 C619 1.327 . S
C622 C610 1.349 . S
C622 H616 0.950 1_455 S
C622 C623 1.329 . S
C623 H617 0.920 1_455 S
C623 C622 1.329 . S
C623 C627 1.460 . S
C624 C607 1.574 1_565 S
C624 H618 0.949 . S
C624 C628 1.368 . S
C625 C606 1.460 . S
C625 C619 1.429 . S
C625 C626 1.523 . S
C626 C607 1.368 1_554 S
C626 C620 1.383 . S
C626 C625 1.523 . S
C627 C611 1.429 . S
C627 C623 1.460 . S
C627 C628 1.523 . S
C628 C612 1.383 1_556 S
C628 C624 1.368 . S
C628 C627 1.523 . S
H629 C604 0.950 1_655 S
H630 C606 0.920 1_655 S
H631 C607 0.949 . S
H632 C609 0.950 . S
H633 C611 0.950 . S
C634 C635 1.349 . S
C634 C636 1.327 . S
C634 H659 0.950 . S
C635 C634 1.349 . S
C635 C651 1.349 . S
C636 C634 1.327 . S
C636 C655 1.429 . S
C636 H660 0.950 . S
C637 C654 1.574 . S
C637 C656 1.368 . S
C637 H661 0.949 . S
H638 C642 0.949 . S
C639 C640 1.349 . S
C639 C641 1.327 . S
C639 H662 0.950 . S
C640 C639 1.349 . S
C640 C652 1.349 . S
C641 C639 1.327 . S
C641 C657 1.429 . S
C641 H663 0.950 . S
C642 H638 0.949 . S
C642 C650 1.574 . S
C642 C658 1.368 . S
H643 C651 0.950 . S
H644 C649 0.950 . S
H645 C650 0.949 . S
H646 C652 0.950 . S
H647 C653 0.950 . S
H648 C654 0.949 . S
C649 H644 0.950 . S
C649 C651 1.327 . S
C649 C655 1.429 . S
C650 C642 1.574 . S
C650 H645 0.949 . S
C650 C656 1.368 . S
C651 C635 1.349 . S
C651 H643 0.950 . S
C651 C649 1.327 . S
C652 C640 1.349 . S
C652 H646 0.950 . S
C652 C653 1.327 . S
C653 H647 0.950 . S
C653 C652 1.327 . S
C653 C657 1.429 . S
C654 C637 1.574 . S
C654 H648 0.949 . S
C654 C658 1.368 . S
C655 C636 1.429 . S
C655 C649 1.429 . S
C655 C656 1.523 . S
C656 C637 1.368 . S
C656 C650 1.368 . S
C656 C655 1.523 . S
C657 C641 1.429 . S
C657 C653 1.429 . S
C657 C658 1.523 . S
C658 C642 1.368 . S
C658 C654 1.368 . S
C658 C657 1.523 . S
H659 C634 0.950 . S
H660 C636 0.950 . S
H661 C637 0.949 . S
H662 C639 0.950 . S
H663 C641 0.950 . S
C664 C665 1.349 . S
C664 C666 1.327 . S
C664 H689 0.950 . S
C665 C664 1.349 . S
C665 C681 1.349 . S
C666 C664 1.327 . S
C666 C685 1.429 . S
C666 H690 0.950 . S
C667 C684 1.574 . S
C667 C686 1.368 . S
C667 H691 0.949 . S
H668 C672 0.949 . S
C669 C670 1.349 . S
C669 C671 1.327 . S
C669 H692 0.950 . S
C670 C669 1.349 . S
C670 C682 1.349 . S
C671 C669 1.327 . S
C671 C687 1.429 . S
C671 H693 0.950 . S
C672 H668 0.949 . S
C672 C680 1.574 . S
C672 C688 1.368 . S
H673 C681 0.950 . S
H674 C679 0.950 . S
H675 C680 0.949 . S
H676 C682 0.950 . S
H677 C683 0.950 . S
H678 C684 0.949 . S
C679 H674 0.950 . S
C679 C681 1.327 . S
C679 C685 1.429 . S
C680 C672 1.574 . S
C680 H675 0.949 . S
C680 C686 1.368 . S
C681 C665 1.349 . S
C681 H673 0.950 . S
C681 C679 1.327 . S
C682 C670 1.349 . S
C682 H676 0.950 . S
C682 C683 1.327 . S
C683 H677 0.950 . S
C683 C682 1.327 . S
C683 C687 1.429 . S
C684 C667 1.574 . S
C684 H678 0.949 . S
C684 C688 1.368 . S
C685 C666 1.429 . S
C685 C679 1.429 . S
C685 C686 1.523 . S
C686 C667 1.368 . S
C686 C680 1.368 . S
C686 C685 1.523 . S
C687 C671 1.429 . S
C687 C683 1.429 . S
C687 C688 1.523 . S
C688 C672 1.368 . S
C688 C684 1.368 . S
C688 C687 1.523 . S
H689 C664 0.950 . S
H690 C666 0.950 . S
H691 C667 0.949 . S
H692 C669 0.950 . S
H693 C671 0.950 . S
C694 C695 1.349 . S
C694 C696 1.327 . S
C694 H719 0.950 . S
C695 C694 1.349 . S
C695 C711 1.349 . S
C696 C694 1.327 . S
C696 C715 1.429 . S
C696 H720 0.950 . S
C697 C714 1.574 . S
C697 C716 1.368 . S
C697 H721 0.949 . S
H698 C702 0.949 . S
C699 C700 1.349 . S
C699 C701 1.327 . S
C699 H722 0.950 . S
C700 C699 1.349 . S
C700 C712 1.349 . S
C701 C699 1.327 . S
C701 C717 1.429 . S
C701 H723 0.950 . S
C702 H698 0.949 . S
C702 C710 1.574 . S
C702 C718 1.368 . S
H703 C711 0.950 . S
H704 C709 0.950 . S
H705 C710 0.949 . S
H706 C712 0.950 . S
H707 C713 0.950 . S
H708 C714 0.949 . S
C709 H704 0.950 . S
C709 C711 1.327 . S
C709 C715 1.429 . S
C710 C702 1.574 . S
C710 H705 0.949 . S
C710 C716 1.368 . S
C711 C695 1.349 . S
C711 H703 0.950 . S
C711 C709 1.327 . S
C712 C700 1.349 . S
C712 H706 0.950 . S
C712 C713 1.327 . S
C713 H707 0.950 . S
C713 C712 1.327 . S
C713 C717 1.429 . S
C714 C697 1.574 . S
C714 H708 0.949 . S
C714 C718 1.368 . S
C715 C696 1.429 . S
C715 C709 1.429 . S
C715 C716 1.523 . S
C716 C697 1.368 . S
C716 C710 1.368 . S
C716 C715 1.523 . S
C717 C701 1.429 . S
C717 C713 1.429 . S
C717 C718 1.523 . S
C718 C702 1.368 . S
C718 C714 1.368 . S
C718 C717 1.523 . S
H719 C694 0.950 . S
H720 C696 0.950 . S
H721 C697 0.949 . S
H722 C699 0.950 . S
H723 C701 0.950 . S
C724 C725 1.349 . S
C724 C726 1.327 . S
C724 H749 0.950 . S
C725 C724 1.349 . S
C725 C741 1.349 . S
C726 C724 1.327 . S
C726 C745 1.429 . S
C726 H750 0.950 . S
C727 C744 1.574 . S
C727 C746 1.368 1_554 S
C727 H751 0.949 . S
H728 C732 0.949 . S
C729 C730 1.349 . S
C729 C731 1.327 . S
C729 H752 0.950 . S
C730 C729 1.349 . S
C730 C742 1.349 . S
C731 C729 1.327 . S
C731 C747 1.429 . S
C731 H753 0.950 . S
C732 H728 0.949 . S
C732 C740 1.574 . S
C732 C748 1.368 1_556 S
H733 C741 0.950 . S
H734 C739 0.950 . S
H735 C740 0.949 . S
H736 C742 0.950 . S
H737 C743 0.950 . S
H738 C744 0.949 . S
C739 H734 0.950 . S
C739 C741 1.327 . S
C739 C745 1.429 . S
C740 C732 1.574 . S
C740 H735 0.949 . S
C740 C746 1.368 . S
C741 C725 1.349 . S
C741 H733 0.950 . S
C741 C739 1.327 . S
C742 C730 1.349 . S
C742 H736 0.950 . S
C742 C743 1.327 . S
C743 H737 0.950 . S
C743 C742 1.327 . S
C743 C747 1.429 . S
C744 C727 1.574 . S
C744 H738 0.949 . S
C744 C748 1.368 . S
C745 C726 1.429 . S
C745 C739 1.429 . S
C745 C746 1.523 . S
C746 C727 1.368 1_556 S
C746 C740 1.368 . S
C746 C745 1.523 . S
C747 C731 1.429 . S
C747 C743 1.429 . S
C747 C748 1.523 . S
C748 C732 1.368 1_554 S
C748 C744 1.368 . S
C748 C747 1.523 . S
H749 C724 0.950 . S
H750 C726 0.950 . S
H751 C727 0.949 . S
H752 C729 0.950 . S
H753 C731 0.950 . S
C754 C755 1.349 . S
C754 C756 1.327 . S
C754 H779 0.950 . S
C755 C754 1.349 . S
C755 C771 1.349 . S
C756 C754 1.327 . S
C756 C775 1.429 . S
C756 H780 0.950 . S
C757 C774 1.574 . S
C757 C776 1.368 . S
C757 H781 0.949 . S
H758 C762 0.949 . S
C759 C760 1.349 . S
C759 C761 1.327 . S
C759 H782 0.950 . S
C760 C759 1.349 . S
C760 C772 1.349 . S
C761 C759 1.327 . S
C761 C777 1.429 . S
C761 H783 0.950 . S
C762 H758 0.949 . S
C762 C770 1.574 . S
C762 C778 1.368 . S
H763 C771 0.950 . S
H764 C769 0.950 . S
H765 C770 0.949 . S
H766 C772 0.950 . S
H767 C773 0.950 . S
H768 C774 0.949 . S
C769 H764 0.950 . S
C769 C771 1.327 . S
C769 C775 1.429 . S
C770 C762 1.574 . S
C770 H765 0.949 . S
C770 C776 1.368 . S
C771 C755 1.349 . S
C771 H763 0.950 . S
C771 C769 1.327 . S
C772 C760 1.349 . S
C772 H766 0.950 . S
C772 C773 1.327 . S
C773 H767 0.950 . S
C773 C772 1.327 . S
C773 C777 1.429 . S
C774 C757 1.574 . S
C774 H768 0.949 . S
C774 C778 1.368 . S
C775 C756 1.429 . S
C775 C769 1.429 . S
C775 C776 1.523 . S
C776 C757 1.368 . S
C776 C770 1.368 . S
C776 C775 1.523 . S
C777 C761 1.429 . S
C777 C773 1.429 . S
C777 C778 1.523 . S
C778 C762 1.368 . S
C778 C774 1.368 . S
C778 C777 1.523 . S
H779 C754 0.950 . S
H780 C756 0.950 . S
H781 C757 0.949 . S
H782 C759 0.950 . S
H783 C761 0.950 . S
C784 C785 1.349 . S
C784 C786 1.327 . S
C784 H809 0.950 . S
C785 C784 1.349 . S
C785 C801 1.349 . S
C786 C784 1.327 . S
C786 C805 1.429 . S
C786 H810 0.950 . S
C787 C804 1.574 . S
C787 C806 1.368 . S
C787 H811 0.949 . S
H788 C792 0.949 . S
C789 C790 1.349 1_554 S
C789 C791 1.327 . S
C789 H812 0.950 . S
C790 C789 1.349 1_556 S
C790 C802 1.349 1_556 S
C791 C789 1.327 . S
C791 C807 1.429 . S
C791 H813 0.950 . S
C792 H788 0.949 . S
C792 C800 1.574 . S
C792 C808 1.368 . S
H793 C801 0.950 . S
H794 C799 0.950 . S
H795 C800 0.949 . S
H796 C802 0.950 1_556 S
H797 C803 0.950 . S
H798 C804 0.949 . S
C799 H794 0.950 . S
C799 C801 1.327 . S
C799 C805 1.429 . S
C800 C792 1.574 . S
C800 H795 0.949 . S
C800 C806 1.368 . S
C801 C785 1.349 . S
C801 H793 0.950 . S
C801 C799 1.327 . S
C802 C790 1.349 1_554 S
C802 H796 0.950 1_554 S
C802 C803 1.327 . S
C803 H797 0.950 . S
C803 C802 1.327 . S
C803 C807 1.429 . S
C804 C787 1.574 . S
C804 H798 0.949 . S
C804 C808 1.368 . S
C805 C786 1.429 . S
C805 C799 1.429 . S
C805 C806 1.523 . S
C806 C787 1.368 . S
C806 C800 1.368 . S
C806 C805 1.523 . S
C807 C791 1.429 . S
C807 C803 1.429 . S
C807 C808 1.523 . S
C808 C792 1.368 . S
C808 C804 1.368 . S
C808 C807 1.523 . S
H809 C784 0.950 . S
H810 C786 0.950 . S
H811 C787 0.949 . S
H812 C789 0.950 . S
H813 C791 0.950 . S
C814 C815 1.349 . S
C814 C816 1.327 . S
C814 H839 0.950 . S
C815 C814 1.349 . S
C815 C831 1.349 . S
C816 C814 1.327 . S
C816 C835 1.429 . S
C816 H840 0.950 . S
C817 C834 1.574 . S
C817 C836 1.368 . S
C817 H841 0.949 . S
H818 C822 0.949 . S
C819 C820 1.349 . S
C819 C821 1.327 . S
C819 H842 0.950 . S
C820 C819 1.349 . S
C820 C832 1.349 . S
C821 C819 1.327 . S
C821 C837 1.429 . S
C821 H843 0.950 . S
C822 H818 0.949 . S
C822 C830 1.574 . S
C822 C838 1.368 . S
H823 C831 0.950 . S
H824 C829 0.950 . S
H825 C830 0.949 . S
H826 C832 0.950 . S
H827 C833 0.950 . S
H828 C834 0.949 . S
C829 H824 0.950 . S
C829 C831 1.327 . S
C829 C835 1.429 . S
C830 C822 1.574 . S
C830 H825 0.949 . S
C830 C836 1.368 . S
C831 C815 1.349 . S
C831 H823 0.950 . S
C831 C829 1.327 . S
C832 C820 1.349 . S
C832 H826 0.950 . S
C832 C833 1.327 . S
C833 H827 0.950 . S
C833 C832 1.327 . S
C833 C837 1.429 . S
C834 C817 1.574 . S
C834 H828 0.949 . S
C834 C838 1.368 . S
C835 C816 1.429 . S
C835 C829 1.429 . S
C835 C836 1.523 . S
C836 C817 1.368 . S
C836 C830 1.368 . S
C836 C835 1.523 . S
C837 C821 1.429 . S
C837 C833 1.429 . S
C837 C838 1.523 . S
C838 C822 1.368 . S
C838 C834 1.368 . S
C838 C837 1.523 . S
H839 C814 0.950 . S
H840 C816 0.950 . S
H841 C817 0.949 . S
H842 C819 0.950 . S
H843 C821 0.950 . S
C844 C845 1.349 . S
C844 C846 1.327 . S
C844 H869 0.950 . S
C845 C844 1.349 . S
C845 C861 1.349 . S
C846 C844 1.327 . S
C846 C865 1.429 . S
C846 H870 0.950 . S
C847 C864 1.574 . S
C847 C866 1.368 . S
C847 H871 0.949 . S
H848 C852 0.949 . S
C849 C850 1.349 . S
C849 C851 1.327 . S
C849 H872 0.950 . S
C850 C849 1.349 . S
C850 C862 1.349 . S
C851 C849 1.327 . S
C851 C867 1.429 . S
C851 H873 0.950 . S
C852 H848 0.949 . S
C852 C860 1.574 . S
C852 C868 1.368 . S
H853 C861 0.950 . S
H854 C859 0.950 . S
H855 C860 0.949 . S
H856 C862 0.950 . S
H857 C863 0.950 . S
H858 C864 0.949 . S
C859 H854 0.950 . S
C859 C861 1.327 . S
C859 C865 1.429 . S
C860 C852 1.574 . S
C860 H855 0.949 . S
C860 C866 1.368 . S
C861 C845 1.349 . S
C861 H853 0.950 . S
C861 C859 1.327 . S
C862 C850 1.349 . S
C862 H856 0.950 . S
C862 C863 1.327 . S
C863 H857 0.950 . S
C863 C862 1.327 . S
C863 C867 1.429 . S
C864 C847 1.574 . S
C864 H858 0.949 . S
C864 C868 1.368 . S
C865 C846 1.429 . S
C865 C859 1.429 . S
C865 C866 1.523 . S
C866 C847 1.368 . S
C866 C860 1.368 . S
C866 C865 1.523 . S
C867 C851 1.429 . S
C867 C863 1.429 . S
C867 C868 1.523 . S
C868 C852 1.368 . S
C868 C864 1.368 . S
C868 C867 1.523 . S
H869 C844 0.950 . S
H870 C846 0.950 . S
H871 C847 0.949 . S
H872 C849 0.950 . S
H873 C851 0.950 . S
C874 C875 1.349 . S
C874 C876 1.327 1_554 S
C874 H899 0.950 . S
C875 C874 1.349 . S
C875 C891 1.349 1_554 S
C876 C874 1.327 1_556 S
C876 C895 1.429 . S
C876 H900 0.950 . S
C877 C894 1.574 . S
C877 C896 1.368 . S
C877 H901 0.949 . S
H878 C882 0.949 . S
C879 C880 1.349 . S
C879 C881 1.327 . S
C879 H902 0.950 . S
C880 C879 1.349 . S
C880 C892 1.349 . S
C881 C879 1.327 . S
C881 C897 1.429 . S
C881 H903 0.950 . S
C882 H878 0.949 . S
C882 C890 1.574 . S
C882 C898 1.368 . S
H883 C891 0.950 . S
H884 C889 0.950 . S
H885 C890 0.949 . S
H886 C892 0.950 . S
H887 C893 0.950 . S
H888 C894 0.949 . S
C889 H884 0.950 . S
C889 C891 1.327 . S
C889 C895 1.429 . S
C890 C882 1.574 . S
C890 H885 0.949 . S
C890 C896 1.368 . S
C891 C875 1.349 1_556 S
C891 H883 0.950 . S
C891 C889 1.327 . S
C892 C880 1.349 . S
C892 H886 0.950 . S
C892 C893 1.327 . S
C893 H887 0.950 . S
C893 C892 1.327 . S
C893 C897 1.429 . S
C894 C877 1.574 . S
C894 H888 0.949 . S
C894 C898 1.368 . S
C895 C876 1.429 . S
C895 C889 1.429 . S
C895 C896 1.523 . S
C896 C877 1.368 . S
C896 C890 1.368 . S
C896 C895 1.523 . S
C897 C881 1.429 . S
C897 C893 1.429 . S
C897 C898 1.523 . S
C898 C882 1.368 . S
C898 C894 1.368 . S
C898 C897 1.523 . S
H899 C874 0.950 . S
H900 C876 0.950 . S
H901 C877 0.949 . S
H902 C879 0.950 . S
H903 C881 0.950 . S
C904 C905 1.349 . S
C904 C906 1.327 . S
C904 H929 0.950 . S
C905 C904 1.349 . S
C905 C921 1.349 . S
C906 C904 1.327 . S
C906 C925 1.429 . S
C906 H930 0.950 . S
C907 C924 1.574 . S
C907 C926 1.368 . S
C907 H931 0.949 . S
H908 C912 0.949 . S
C909 C910 1.349 . S
C909 C911 1.327 . S
C909 H932 0.950 . S
C910 C909 1.349 . S
C910 C922 1.349 1_556 S
C911 C909 1.327 . S
C911 C927 1.429 . S
C911 H933 0.950 . S
C912 H908 0.949 . S
C912 C920 1.574 . S
C912 C928 1.368 . S
H913 C921 0.950 . S
H914 C919 0.950 . S
H915 C920 0.949 . S
H916 C922 0.950 . S
H917 C923 0.950 . S
H918 C924 0.949 . S
C919 H914 0.950 . S
C919 C921 1.327 . S
C919 C925 1.429 . S
C920 C912 1.574 . S
C920 H915 0.949 . S
C920 C926 1.368 . S
C921 C905 1.349 . S
C921 H913 0.950 . S
C921 C919 1.327 . S
C922 C910 1.349 1_554 S
C922 H916 0.950 . S
C922 C923 1.327 1_554 S
C923 H917 0.950 . S
C923 C922 1.327 1_556 S
C923 C927 1.429 . S
C924 C907 1.574 . S
C924 H918 0.949 . S
C924 C928 1.368 . S
C925 C906 1.429 . S
C925 C919 1.429 . S
C925 C926 1.523 . S
C926 C907 1.368 . S
C926 C920 1.368 . S
C926 C925 1.523 . S
C927 C911 1.429 . S
C927 C923 1.429 . S
C927 C928 1.523 . S
C928 C912 1.368 . S
C928 C924 1.368 . S
C928 C927 1.523 . S
H929 C904 0.950 . S
H930 C906 0.950 . S
H931 C907 0.949 . S
H932 C909 0.950 . S
H933 C911 0.950 . S
C934 C935 1.349 . S
C934 C936 1.327 . S
C934 H959 0.950 . S
C935 C934 1.349 . S
C935 C951 1.349 . S
C936 C934 1.327 . S
C936 C955 1.429 . S
C936 H960 0.950 . S
C937 C954 1.574 . S
C937 C956 1.368 . S
C937 H961 0.949 . S
H938 C942 0.949 . S
C939 C940 1.349 . S
C939 C941 1.327 . S
C939 H962 0.950 . S
C940 C939 1.349 . S
C940 C952 1.349 . S
C941 C939 1.327 . S
C941 C957 1.429 . S
C941 H963 0.950 . S
C942 H938 0.949 . S
C942 C950 1.574 . S
C942 C958 1.368 . S
H943 C951 0.950 . S
H944 C949 0.950 . S
H945 C950 0.949 . S
H946 C952 0.950 . S
H947 C953 0.950 . S
H948 C954 0.949 . S
C949 H944 0.950 . S
C949 C951 1.327 . S
C949 C955 1.429 . S
C950 C942 1.574 . S
C950 H945 0.949 . S
C950 C956 1.368 . S
C951 C935 1.349 . S
C951 H943 0.950 . S
C951 C949 1.327 . S
C952 C940 1.349 . S
C952 H946 0.950 . S
C952 C953 1.327 . S
C953 H947 0.950 . S
C953 C952 1.327 . S
C953 C957 1.429 . S
C954 C937 1.574 . S
C954 H948 0.949 . S
C954 C958 1.368 . S
C955 C936 1.429 . S
C955 C949 1.429 . S
C955 C956 1.523 . S
C956 C937 1.368 . S
C956 C950 1.368 . S
C956 C955 1.523 . S
C957 C941 1.429 . S
C957 C953 1.429 . S
C957 C958 1.523 . S
C958 C942 1.368 . S
C958 C954 1.368 . S
C958 C957 1.523 . S
H959 C934 0.950 . S
H960 C936 0.950 . S
H961 C937 0.949 . S
H962 C939 0.950 . S
H963 C941 0.950 . S
C964 C965 1.349 . S
C964 C966 1.327 . S
C964 H989 0.950 . S
C965 C964 1.349 . S
C965 C981 1.349 . S
C966 C964 1.327 . S
C966 C985 1.429 . S
C966 H990 0.950 . S
C967 C984 1.574 . S
C967 C986 1.368 . S
C967 H991 0.949 . S
H968 C972 0.949 . S
C969 C970 1.349 . S
C969 C971 1.327 . S
C969 H992 0.950 . S
C970 C969 1.349 . S
C970 C982 1.349 . S
C971 C969 1.327 . S
C971 C987 1.429 . S
C971 H993 0.950 . S
C972 H968 0.949 . S
C972 C980 1.574 . S
C972 C988 1.368 . S
H973 C981 0.950 . S
H974 C979 0.950 . S
H975 C980 0.949 . S
H976 C982 0.950 . S
H977 C983 0.950 . S
H978 C984 0.949 . S
C979 H974 0.950 . S
C979 C981 1.327 . S
C979 C985 1.429 . S
C980 C972 1.574 . S
C980 H975 0.949 . S
C980 C986 1.368 . S
C981 C965 1.349 . S
C981 H973 0.950 . S
C981 C979 1.327 . S
C982 C970 1.349 . S
C982 H976 0.950 . S
C982 C983 1.327 . S
C983 H977 0.950 . S
C983 C982 1.327 . S
C983 C987 1.429 . S
C984 C967 1.574 . S
C984 H978 0.949 . S
C984 C988 1.368 . S
C985 C966 1.429 . S
C985 C979 1.429 . S
C985 C986 1.523 . S
C986 C967 1.368 . S
C986 C980 1.368 . S
C986 C985 1.523 . S
C987 C971 1.429 . S
C987 C983 1.429 . S
C987 C988 1.523 . S
C988 C972 1.368 . S
C988 C984 1.368 . S
C988 C987 1.523 . S
H989 C964 0.950 . S
H990 C966 0.950 . S
H991 C967 0.949 . S
H992 C969 0.950 . S
H993 C971 0.950 . S
C994 C995 1.349 . S
C994 C996 1.327 . S
C994 H1019 0.950 . S
C995 C994 1.349 . S
C995 C1011 1.349 . S
C996 C994 1.327 . S
C996 C1015 1.429 . S
C996 H1020 0.950 . S
C997 C1014 1.574 . S
C997 C1016 1.368 . S
C997 H1021 0.949 . S
H998 C1002 0.949 . S
C999 C1000 1.349 . S
C999 C1001 1.327 . S
C999 H1022 0.950 . S
C1000 C999 1.349 . S
C1000 C1012 1.349 . S
C1001 C999 1.327 . S
C1001 C1017 1.429 . S
C1001 H1023 0.950 . S
C1002 H998 0.949 . S
C1002 C1010 1.574 . S
C1002 C1018 1.368 . S
H1003 C1011 0.950 . S
H1004 C1009 0.950 . S
H1005 C1010 0.949 . S
H1006 C1012 0.950 1_556 S
H1007 C1013 0.950 . S
H1008 C1014 0.949 . S
C1009 H1004 0.950 . S
C1009 C1011 1.327 . S
C1009 C1015 1.429 . S
C1010 C1002 1.574 . S
C1010 H1005 0.949 . S
C1010 C1016 1.368 . S
C1011 C995 1.349 . S
C1011 H1003 0.950 . S
C1011 C1009 1.327 . S
C1012 C1000 1.349 . S
C1012 H1006 0.950 1_554 S
C1012 C1013 1.327 . S
C1013 H1007 0.950 . S
C1013 C1012 1.327 . S
C1013 C1017 1.429 . S
C1014 C997 1.574 . S
C1014 H1008 0.949 . S
C1014 C1018 1.368 . S
C1015 C996 1.429 . S
C1015 C1009 1.429 . S
C1015 C1016 1.523 . S
C1016 C997 1.368 . S
C1016 C1010 1.368 . S
C1016 C1015 1.523 . S
C1017 C1001 1.429 . S
C1017 C1013 1.429 . S
C1017 C1018 1.523 . S
C1018 C1002 1.368 . S
C1018 C1014 1.368 . S
C1018 C1017 1.523 . S
H1019 C994 0.950 . S
H1020 C996 0.950 . S
H1021 C997 0.949 . S
H1022 C999 0.950 . S
H1023 C1001 0.950 . S
C1024 C1025 1.349 . S
C1024 C1026 1.327 . S
C1024 H1049 0.950 . S
C1025 C1024 1.349 . S
C1025 C1041 1.349 . S
C1026 C1024 1.327 . S
C1026 C1045 1.429 . S
C1026 H1050 0.950 . S
C1027 C1044 1.574 . S
C1027 C1046 1.368 . S
C1027 H1051 0.949 . S
H1028 C1032 0.949 . S
C1029 C1030 1.349 . S
C1029 C1031 1.327 . S
C1029 H1052 0.950 . S
C1030 C1029 1.349 . S
C1030 C1042 1.349 . S
C1031 C1029 1.327 . S
C1031 C1047 1.429 . S
C1031 H1053 0.950 . S
C1032 H1028 0.949 . S
C1032 C1040 1.574 . S
C1032 C1048 1.368 . S
H1033 C1041 0.950 . S
H1034 C1039 0.950 . S
H1035 C1040 0.949 . S
H1036 C1042 0.950 . S
H1037 C1043 0.950 . S
H1038 C1044 0.949 . S
C1039 H1034 0.950 . S
C1039 C1041 1.327 . S
C1039 C1045 1.429 . S
C1040 C1032 1.574 . S
C1040 H1035 0.949 . S
C1040 C1046 1.368 . S
C1041 C1025 1.349 . S
C1041 H1033 0.950 . S
C1041 C1039 1.327 . S
C1042 C1030 1.349 . S
C1042 H1036 0.950 . S
C1042 C1043 1.327 . S
C1043 H1037 0.950 . S
C1043 C1042 1.327 . S
C1043 C1047 1.429 . S
C1044 C1027 1.574 . S
C1044 H1038 0.949 . S
C1044 C1048 1.368 . S
C1045 C1026 1.429 . S
C1045 C1039 1.429 . S
C1045 C1046 1.523 . S
C1046 C1027 1.368 . S
C1046 C1040 1.368 . S
C1046 C1045 1.523 . S
C1047 C1031 1.429 . S
C1047 C1043 1.429 . S
C1047 C1048 1.523 . S
C1048 C1032 1.368 . S
C1048 C1044 1.368 . S
C1048 C1047 1.523 . S
H1049 C1024 0.950 . S
H1050 C1026 0.950 . S
H1051 C1027 0.949 . S
H1052 C1029 0.950 . S
H1053 C1031 0.950 . S
C1054 C1055 1.349 . S
C1054 C1056 1.327 1_554 S
C1054 H1079 0.950 . S
C1055 C1054 1.349 . S
C1055 C1071 1.349 1_554 S
C1056 C1054 1.327 1_556 S
C1056 C1075 1.429 . S
C1056 H1080 0.950 . S
C1057 C1074 1.574 . S
C1057 C1076 1.368 . S
C1057 H1081 0.949 . S
H1058 C1062 0.949 . S
C1059 C1060 1.349 . S
C1059 C1061 1.327 . S
C1059 H1082 0.950 . S
C1060 C1059 1.349 . S
C1060 C1072 1.349 . S
C1061 C1059 1.327 . S
C1061 C1077 1.429 . S
C1061 H1083 0.950 . S
C1062 H1058 0.949 . S
C1062 C1070 1.574 . S
C1062 C1078 1.368 . S
H1063 C1071 0.950 . S
H1064 C1069 0.950 . S
H1065 C1070 0.949 . S
H1066 C1072 0.950 . S
H1067 C1073 0.950 . S
H1068 C1074 0.949 . S
C1069 H1064 0.950 . S
C1069 C1071 1.327 . S
C1069 C1075 1.429 . S
C1070 C1062 1.574 . S
C1070 H1065 0.949 . S
C1070 C1076 1.368 . S
C1071 C1055 1.349 1_556 S
C1071 H1063 0.950 . S
C1071 C1069 1.327 . S
C1072 C1060 1.349 . S
C1072 H1066 0.950 . S
C1072 C1073 1.327 . S
C1073 H1067 0.950 . S
C1073 C1072 1.327 . S
C1073 C1077 1.429 . S
C1074 C1057 1.574 . S
C1074 H1068 0.949 . S
C1074 C1078 1.368 . S
C1075 C1056 1.429 . S
C1075 C1069 1.429 . S
C1075 C1076 1.523 . S
C1076 C1057 1.368 . S
C1076 C1070 1.368 . S
C1076 C1075 1.523 . S
C1077 C1061 1.429 . S
C1077 C1073 1.429 . S
C1077 C1078 1.523 . S
C1078 C1062 1.368 . S
C1078 C1074 1.368 . S
C1078 C1077 1.523 . S
H1079 C1054 0.950 . S
H1080 C1056 0.950 . S
H1081 C1057 0.949 . S
H1082 C1059 0.950 . S
H1083 C1061 0.950 . S
C1084 C1085 1.349 . S
C1084 C1086 1.327 1_556 S
C1084 H1109 0.950 . S
C1085 C1084 1.349 . S
C1085 C1101 1.349 1_556 S
C1086 C1084 1.327 1_554 S
C1086 C1105 1.429 . S
C1086 H1110 0.950 . S
C1087 C1104 1.574 . S
C1087 C1106 1.368 . S
C1087 H1111 0.949 . S
H1088 C1092 0.949 . S
C1089 C1090 1.349 . S
C1089 C1091 1.327 . S
C1089 H1112 0.950 . S
C1090 C1089 1.349 . S
C1090 C1102 1.349 . S
C1091 C1089 1.327 . S
C1091 C1107 1.429 . S
C1091 H1113 0.950 . S
C1092 H1088 0.949 . S
C1092 C1100 1.574 . S
C1092 C1108 1.368 . S
H1093 C1101 0.950 . S
H1094 C1099 0.950 . S
H1095 C1100 0.949 . S
H1096 C1102 0.950 . S
H1097 C1103 0.950 . S
H1098 C1104 0.949 . S
C1099 H1094 0.950 . S
C1099 C1101 1.327 . S
C1099 C1105 1.429 . S
C1100 C1092 1.574 . S
C1100 H1095 0.949 . S
C1100 C1106 1.368 . S
C1101 C1085 1.349 1_554 S
C1101 H1093 0.950 . S
C1101 C1099 1.327 . S
C1102 C1090 1.349 . S
C1102 H1096 0.950 . S
C1102 C1103 1.327 . S
C1103 H1097 0.950 . S
C1103 C1102 1.327 . S
C1103 C1107 1.429 . S
C1104 C1087 1.574 . S
C1104 H1098 0.949 . S
C1104 C1108 1.368 . S
C1105 C1086 1.429 . S
C1105 C1099 1.429 . S
C1105 C1106 1.523 . S
C1106 C1087 1.368 . S
C1106 C1100 1.368 . S
C1106 C1105 1.523 . S
C1107 C1091 1.429 . S
C1107 C1103 1.429 . S
C1107 C1108 1.523 . S
C1108 C1092 1.368 . S
C1108 C1104 1.368 . S
C1108 C1107 1.523 . S
H1109 C1084 0.950 . S
H1110 C1086 0.950 . S
H1111 C1087 0.949 . S
H1112 C1089 0.950 . S
H1113 C1091 0.950 . S
C1114 C1115 1.349 . S
C1114 C1116 1.327 . S
C1114 H1139 0.950 . S
C1115 C1114 1.349 . S
C1115 C1131 1.349 . S
C1116 C1114 1.327 . S
C1116 C1135 1.429 . S
C1116 H1140 0.950 . S
C1117 C1134 1.574 . S
C1117 C1136 1.368 . S
C1117 H1141 0.949 . S
H1118 C1122 0.949 . S
C1119 C1120 1.349 . S
C1119 C1121 1.327 . S
C1119 H1142 0.950 . S
C1120 C1119 1.349 . S
C1120 C1132 1.349 . S
C1121 C1119 1.327 . S
C1121 C1137 1.429 . S
C1121 H1143 0.950 . S
C1122 H1118 0.949 . S
C1122 C1130 1.574 . S
C1122 C1138 1.368 . S
H1123 C1131 0.950 . S
H1124 C1129 0.950 . S
H1125 C1130 0.949 . S
H1126 C1132 0.950 . S
H1127 C1133 0.950 . S
H1128 C1134 0.949 . S
C1129 H1124 0.950 . S
C1129 C1131 1.327 . S
C1129 C1135 1.429 . S
C1130 C1122 1.574 . S
C1130 H1125 0.949 . S
C1130 C1136 1.368 . S
C1131 C1115 1.349 . S
C1131 H1123 0.950 . S
C1131 C1129 1.327 . S
C1132 C1120 1.349 . S
C1132 H1126 0.950 . S
C1132 C1133 1.327 . S
C1133 H1127 0.950 . S
C1133 C1132 1.327 . S
C1133 C1137 1.429 . S
C1134 C1117 1.574 . S
C1134 H1128 0.949 . S
C1134 C1138 1.368 . S
C1135 C1116 1.429 . S
C1135 C1129 1.429 . S
C1135 C1136 1.523 . S
C1136 C1117 1.368 . S
C1136 C1130 1.368 . S
C1136 C1135 1.523 . S
C1137 C1121 1.429 . S
C1137 C1133 1.429 . S
C1137 C1138 1.523 . S
C1138 C1122 1.368 . S
C1138 C1134 1.368 . S
C1138 C1137 1.523 . S
H1139 C1114 0.950 . S
H1140 C1116 0.950 . S
H1141 C1117 0.949 . S
H1142 C1119 0.950 . S
H1143 C1121 0.950 . S
C1144 C1145 1.349 . S
C1144 C1146 1.327 . S
C1144 H1169 0.950 . S
C1145 C1144 1.349 . S
C1145 C1161 1.349 . S
C1146 C1144 1.327 . S
C1146 C1165 1.429 . S
C1146 H1170 0.950 . S
C1147 C1164 1.574 . S
C1147 C1166 1.368 . S
C1147 H1171 0.949 . S
H1148 C1152 0.949 . S
C1149 C1150 1.349 . S
C1149 C1151 1.327 . S
C1149 H1172 0.950 . S
C1150 C1149 1.349 . S
C1150 C1162 1.349 . S
C1151 C1149 1.327 . S
C1151 C1167 1.429 . S
C1151 H1173 0.950 . S
C1152 H1148 0.949 . S
C1152 C1160 1.574 . S
C1152 C1168 1.368 . S
H1153 C1161 0.950 . S
H1154 C1159 0.950 . S
H1155 C1160 0.949 . S
H1156 C1162 0.950 . S
H1157 C1163 0.950 . S
H1158 C1164 0.949 . S
C1159 H1154 0.950 . S
C1159 C1161 1.327 . S
C1159 C1165 1.429 . S
C1160 C1152 1.574 . S
C1160 H1155 0.949 . S
C1160 C1166 1.368 . S
C1161 C1145 1.349 . S
C1161 H1153 0.950 . S
C1161 C1159 1.327 . S
C1162 C1150 1.349 . S
C1162 H1156 0.950 . S
C1162 C1163 1.327 . S
C1163 H1157 0.950 . S
C1163 C1162 1.327 . S
C1163 C1167 1.429 . S
C1164 C1147 1.574 . S
C1164 H1158 0.949 . S
C1164 C1168 1.368 . S
C1165 C1146 1.429 . S
C1165 C1159 1.429 . S
C1165 C1166 1.523 . S
C1166 C1147 1.368 . S
C1166 C1160 1.368 . S
C1166 C1165 1.523 . S
C1167 C1151 1.429 . S
C1167 C1163 1.429 . S
C1167 C1168 1.523 . S
C1168 C1152 1.368 . S
C1168 C1164 1.368 . S
C1168 C1167 1.523 . S
H1169 C1144 0.950 . S
H1170 C1146 0.950 . S
H1171 C1147 0.949 . S
H1172 C1149 0.950 . S
H1173 C1151 0.950 . S
C1174 C1175 1.349 . S
C1174 C1176 1.327 . S
C1174 H1199 0.950 . S
C1175 C1174 1.349 . S
C1175 C1191 1.349 . S
C1176 C1174 1.327 . S
C1176 C1195 1.429 . S
C1176 H1200 0.950 . S
C1177 C1194 1.574 . S
C1177 C1196 1.368 . S
C1177 H1201 0.949 . S
H1178 C1182 0.949 . S
C1179 C1180 1.349 . S
C1179 C1181 1.327 . S
C1179 H1202 0.950 . S
C1180 C1179 1.349 . S
C1180 C1192 1.349 . S
C1181 C1179 1.327 . S
C1181 C1197 1.429 . S
C1181 H1203 0.950 . S
C1182 H1178 0.949 . S
C1182 C1190 1.574 . S
C1182 C1198 1.368 . S
H1183 C1191 0.950 1_556 S
H1184 C1189 0.950 . S
H1185 C1190 0.949 . S
H1186 C1192 0.950 . S
H1187 C1193 0.950 . S
H1188 C1194 0.949 . S
C1189 H1184 0.950 . S
C1189 C1191 1.327 . S
C1189 C1195 1.429 . S
C1190 C1182 1.574 . S
C1190 H1185 0.949 . S
C1190 C1196 1.368 . S
C1191 C1175 1.349 . S
C1191 H1183 0.950 1_554 S
C1191 C1189 1.327 . S
C1192 C1180 1.349 . S
C1192 H1186 0.950 . S
C1192 C1193 1.327 . S
C1193 H1187 0.950 . S
C1193 C1192 1.327 . S
C1193 C1197 1.429 . S
C1194 C1177 1.574 . S
C1194 H1188 0.949 . S
C1194 C1198 1.368 . S
C1195 C1176 1.429 . S
C1195 C1189 1.429 . S
C1195 C1196 1.523 . S
C1196 C1177 1.368 . S
C1196 C1190 1.368 . S
C1196 C1195 1.523 . S
C1197 C1181 1.429 . S
C1197 C1193 1.429 . S
C1197 C1198 1.523 . S
C1198 C1182 1.368 . S
C1198 C1194 1.368 . S
C1198 C1197 1.523 . S
H1199 C1174 0.950 . S
H1200 C1176 0.950 . S
H1201 C1177 0.949 . S
H1202 C1179 0.950 . S
H1203 C1181 0.950 . S
C1204 C1205 1.349 . S
C1204 C1206 1.327 . S
C1204 H1229 0.950 . S
C1205 C1204 1.349 . S
C1205 C1221 1.349 1_556 S
C1206 C1204 1.327 . S
C1206 C1225 1.429 . S
C1206 H1230 0.950 . S
C1207 C1224 1.574 . S
C1207 C1226 1.368 . S
C1207 H1231 0.949 . S
H1208 C1212 0.949 . S
C1209 C1210 1.349 . S
C1209 C1211 1.327 . S
C1209 H1232 0.950 . S
C1210 C1209 1.349 . S
C1210 C1222 1.349 . S
C1211 C1209 1.327 . S
C1211 C1227 1.429 . S
C1211 H1233 0.950 . S
C1212 H1208 0.949 . S
C1212 C1220 1.574 . S
C1212 C1228 1.368 . S
H1213 C1221 0.950 . S
H1214 C1219 0.950 . S
H1215 C1220 0.949 . S
H1216 C1222 0.950 . S
H1217 C1223 0.950 . S
H1218 C1224 0.949 . S
C1219 H1214 0.950 . S
C1219 C1221 1.327 1_556 S
C1219 C1225 1.429 . S
C1220 C1212 1.574 . S
C1220 H1215 0.949 . S
C1220 C1226 1.368 . S
C1221 C1205 1.349 1_554 S
C1221 H1213 0.950 . S
C1221 C1219 1.327 1_554 S
C1222 C1210 1.349 . S
C1222 H1216 0.950 . S
C1222 C1223 1.327 . S
C1223 H1217 0.950 . S
C1223 C1222 1.327 . S
C1223 C1227 1.429 . S
C1224 C1207 1.574 . S
C1224 H1218 0.949 . S
C1224 C1228 1.368 . S
C1225 C1206 1.429 . S
C1225 C1219 1.429 . S
C1225 C1226 1.523 . S
C1226 C1207 1.368 . S
C1226 C1220 1.368 . S
C1226 C1225 1.523 . S
C1227 C1211 1.429 . S
C1227 C1223 1.429 . S
C1227 C1228 1.523 . S
C1228 C1212 1.368 . S
C1228 C1224 1.368 . S
C1228 C1227 1.523 . S
H1229 C1204 0.950 . S
H1230 C1206 0.950 . S
H1231 C1207 0.949 . S
H1232 C1209 0.950 . S
H1233 C1211 0.950 . S
C1234 C1235 1.349 . S
C1234 C1236 1.327 . S
C1234 H1259 0.950 . S
C1235 C1234 1.349 . S
C1235 C1251 1.349 . S
C1236 C1234 1.327 . S
C1236 C1255 1.429 . S
C1236 H1260 0.950 . S
C1237 C1254 1.574 . S
C1237 C1256 1.368 . S
C1237 H1261 0.949 . S
H1238 C1242 0.949 . S
C1239 C1240 1.349 . S
C1239 C1241 1.327 . S
C1239 H1262 0.950 . S
C1240 C1239 1.349 . S
C1240 C1252 1.349 . S
C1241 C1239 1.327 . S
C1241 C1257 1.429 . S
C1241 H1263 0.950 . S
C1242 H1238 0.949 . S
C1242 C1250 1.574 . S
C1242 C1258 1.368 . S
H1243 C1251 0.950 . S
H1244 C1249 0.950 . S
H1245 C1250 0.949 . S
H1246 C1252 0.950 . S
H1247 C1253 0.950 . S
H1248 C1254 0.949 . S
C1249 H1244 0.950 . S
C1249 C1251 1.327 . S
C1249 C1255 1.429 . S
C1250 C1242 1.574 . S
C1250 H1245 0.949 . S
C1250 C1256 1.368 . S
C1251 C1235 1.349 . S
C1251 H1243 0.950 . S
C1251 C1249 1.327 . S
C1252 C1240 1.349 . S
C1252 H1246 0.950 . S
C1252 C1253 1.327 . S
C1253 H1247 0.950 . S
C1253 C1252 1.327 . S
C1253 C1257 1.429 . S
C1254 C1237 1.574 . S
C1254 H1248 0.949 . S
C1254 C1258 1.368 . S
C1255 C1236 1.429 . S
C1255 C1249 1.429 . S
C1255 C1256 1.523 . S
C1256 C1237 1.368 . S
C1256 C1250 1.368 . S
C1256 C1255 1.523 . S
C1257 C1241 1.429 . S
C1257 C1253 1.429 . S
C1257 C1258 1.523 . S
C1258 C1242 1.368 . S
C1258 C1254 1.368 . S
C1258 C1257 1.523 . S
H1259 C1234 0.950 . S
H1260 C1236 0.950 . S
H1261 C1237 0.949 . S
H1262 C1239 0.950 . S
H1263 C1241 0.950 . S
C1264 C1265 1.349 . S
C1264 C1266 1.327 . S
C1264 H1289 0.950 . S
C1265 C1264 1.349 . S
C1265 C1281 1.349 . S
C1266 C1264 1.327 . S
C1266 C1285 1.429 . S
C1266 H1290 0.950 . S
C1267 C1284 1.574 . S
C1267 C1286 1.368 . S
C1267 H1291 0.949 . S
H1268 C1272 0.949 . S
C1269 C1270 1.349 . S
C1269 C1271 1.327 . S
C1269 H1292 0.950 . S
C1270 C1269 1.349 . S
C1270 C1282 1.349 . S
C1271 C1269 1.327 . S
C1271 C1287 1.429 . S
C1271 H1293 0.950 . S
C1272 H1268 0.949 . S
C1272 C1280 1.574 . S
C1272 C1288 1.368 . S
H1273 C1281 0.950 . S
H1274 C1279 0.950 . S
H1275 C1280 0.949 . S
H1276 C1282 0.950 . S
H1277 C1283 0.950 . S
H1278 C1284 0.949 . S
C1279 H1274 0.950 . S
C1279 C1281 1.327 . S
C1279 C1285 1.429 . S
C1280 C1272 1.574 . S
C1280 H1275 0.949 . S
C1280 C1286 1.368 . S
C1281 C1265 1.349 . S
C1281 H1273 0.950 . S
C1281 C1279 1.327 . S
C1282 C1270 1.349 . S
C1282 H1276 0.950 . S
C1282 C1283 1.327 . S
C1283 H1277 0.950 . S
C1283 C1282 1.327 . S
C1283 C1287 1.429 . S
C1284 C1267 1.574 . S
C1284 H1278 0.949 . S
C1284 C1288 1.368 . S
C1285 C1266 1.429 . S
C1285 C1279 1.429 . S
C1285 C1286 1.523 . S
C1286 C1267 1.368 . S
C1286 C1280 1.368 . S
C1286 C1285 1.523 . S
C1287 C1271 1.429 . S
C1287 C1283 1.429 . S
C1287 C1288 1.523 . S
C1288 C1272 1.368 . S
C1288 C1284 1.368 . S
C1288 C1287 1.523 . S
H1289 C1264 0.950 . S
H1290 C1266 0.950 . S
H1291 C1267 0.949 . S
H1292 C1269 0.950 . S
H1293 C1271 0.950 . S
C1294 C1295 1.349 . S
C1294 C1296 1.327 . S
C1294 H1319 0.950 . S
C1295 C1294 1.349 . S
C1295 C1311 1.349 . S
C1296 C1294 1.327 . S
C1296 C1315 1.429 . S
C1296 H1320 0.950 . S
C1297 C1314 1.574 . S
C1297 C1316 1.368 . S
C1297 H1321 0.949 . S
H1298 C1302 0.949 . S
C1299 C1300 1.349 . S
C1299 C1301 1.327 . S
C1299 H1322 0.950 . S
C1300 C1299 1.349 . S
C1300 C1312 1.349 . S
C1301 C1299 1.327 . S
C1301 C1317 1.429 . S
C1301 H1323 0.950 . S
C1302 H1298 0.949 . S
C1302 C1310 1.574 . S
C1302 C1318 1.368 . S
H1303 C1311 0.950 . S
H1304 C1309 0.950 . S
H1305 C1310 0.949 . S
H1306 C1312 0.950 . S
H1307 C1313 0.950 . S
H1308 C1314 0.949 . S
C1309 H1304 0.950 . S
C1309 C1311 1.327 . S
C1309 C1315 1.429 . S
C1310 C1302 1.574 . S
C1310 H1305 0.949 . S
C1310 C1316 1.368 . S
C1311 C1295 1.349 . S
C1311 H1303 0.950 . S
C1311 C1309 1.327 . S
C1312 C1300 1.349 . S
C1312 H1306 0.950 . S
C1312 C1313 1.327 . S
C1313 H1307 0.950 . S
C1313 C1312 1.327 . S
C1313 C1317 1.429 . S
C1314 C1297 1.574 . S
C1314 H1308 0.949 . S
C1314 C1318 1.368 . S
C1315 C1296 1.429 . S
C1315 C1309 1.429 . S
C1315 C1316 1.523 . S
C1316 C1297 1.368 . S
C1316 C1310 1.368 . S
C1316 C1315 1.523 . S
C1317 C1301 1.429 . S
C1317 C1313 1.429 . S
C1317 C1318 1.523 . S
C1318 C1302 1.368 . S
C1318 C1314 1.368 . S
C1318 C1317 1.523 . S
H1319 C1294 0.950 . S
H1320 C1296 0.950 . S
H1321 C1297 0.949 . S
H1322 C1299 0.950 . S
H1323 C1301 0.950 . S
C1324 C1325 1.349 . S
C1324 C1326 1.327 . S
C1324 H1349 0.950 . S
C1325 C1324 1.349 . S
C1325 C1341 1.349 . S
C1326 C1324 1.327 . S
C1326 C1345 1.429 . S
C1326 H1350 0.950 . S
C1327 C1344 1.574 . S
C1327 C1346 1.368 . S
C1327 H1351 0.949 . S
H1328 C1332 0.949 . S
C1329 C1330 1.349 . S
C1329 C1331 1.327 . S
C1329 H1352 0.950 . S
C1330 C1329 1.349 . S
C1330 C1342 1.349 . S
C1331 C1329 1.327 . S
C1331 C1347 1.429 . S
C1331 H1353 0.950 . S
C1332 H1328 0.949 . S
C1332 C1340 1.574 . S
C1332 C1348 1.368 . S
H1333 C1341 0.950 1_556 S
H1334 C1339 0.950 . S
H1335 C1340 0.949 . S
H1336 C1342 0.950 . S
H1337 C1343 0.950 . S
H1338 C1344 0.949 . S
C1339 H1334 0.950 . S
C1339 C1341 1.327 . S
C1339 C1345 1.429 . S
C1340 C1332 1.574 . S
C1340 H1335 0.949 . S
C1340 C1346 1.368 . S
C1341 C1325 1.349 . S
C1341 H1333 0.950 1_554 S
C1341 C1339 1.327 . S
C1342 C1330 1.349 . S
C1342 H1336 0.950 . S
C1342 C1343 1.327 . S
C1343 H1337 0.950 . S
C1343 C1342 1.327 . S
C1343 C1347 1.429 . S
C1344 C1327 1.574 . S
C1344 H1338 0.949 . S
C1344 C1348 1.368 . S
C1345 C1326 1.429 . S
C1345 C1339 1.429 . S
C1345 C1346 1.523 . S
C1346 C1327 1.368 . S
C1346 C1340 1.368 . S
C1346 C1345 1.523 . S
C1347 C1331 1.429 . S
C1347 C1343 1.429 . S
C1347 C1348 1.523 . S
C1348 C1332 1.368 . S
C1348 C1344 1.368 . S
C1348 C1347 1.523 . S
H1349 C1324 0.950 . S
H1350 C1326 0.950 . S
H1351 C1327 0.949 . S
H1352 C1329 0.950 . S
H1353 C1331 0.950 . S
C1354 C1355 1.349 . S
C1354 C1356 1.327 . S
C1354 H1379 0.950 . S
C1355 C1354 1.349 . S
C1355 C1371 1.349 . S
C1356 C1354 1.327 . S
C1356 C1375 1.429 . S
C1356 H1380 0.950 . S
C1357 C1374 1.574 . S
C1357 C1376 1.368 . S
C1357 H1381 0.949 . S
H1358 C1362 0.949 . S
C1359 C1360 1.349 . S
C1359 C1361 1.327 . S
C1359 H1382 0.950 . S
C1360 C1359 1.349 . S
C1360 C1372 1.349 . S
C1361 C1359 1.327 . S
C1361 C1377 1.429 . S
C1361 H1383 0.950 . S
C1362 H1358 0.949 . S
C1362 C1370 1.574 . S
C1362 C1378 1.368 . S
H1363 C1371 0.950 . S
H1364 C1369 0.950 . S
H1365 C1370 0.949 . S
H1366 C1372 0.950 . S
H1367 C1373 0.950 . S
H1368 C1374 0.949 . S
C1369 H1364 0.950 . S
C1369 C1371 1.327 . S
C1369 C1375 1.429 . S
C1370 C1362 1.574 . S
C1370 H1365 0.949 . S
C1370 C1376 1.368 . S
C1371 C1355 1.349 . S
C1371 H1363 0.950 . S
C1371 C1369 1.327 . S
C1372 C1360 1.349 . S
C1372 H1366 0.950 . S
C1372 C1373 1.327 . S
C1373 H1367 0.950 . S
C1373 C1372 1.327 . S
C1373 C1377 1.429 . S
C1374 C1357 1.574 . S
C1374 H1368 0.949 . S
C1374 C1378 1.368 . S
C1375 C1356 1.429 . S
C1375 C1369 1.429 . S
C1375 C1376 1.523 . S
C1376 C1357 1.368 . S
C1376 C1370 1.368 . S
C1376 C1375 1.523 . S
C1377 C1361 1.429 . S
C1377 C1373 1.429 . S
C1377 C1378 1.523 . S
C1378 C1362 1.368 . S
C1378 C1374 1.368 . S
C1378 C1377 1.523 . S
H1379 C1354 0.950 . S
H1380 C1356 0.950 . S
H1381 C1357 0.949 . S
H1382 C1359 0.950 . S
H1383 C1361 0.950 . S
C1384 C1385 1.349 . S
C1384 C1386 1.327 . S
C1384 H1409 0.950 . S
C1385 C1384 1.349 . S
C1385 C1401 1.349 . S
C1386 C1384 1.327 . S
C1386 C1405 1.429 . S
C1386 H1410 0.950 . S
C1387 C1404 1.574 . S
C1387 C1406 1.368 . S
C1387 H1411 0.949 . S
H1388 C1392 0.949 . S
C1389 C1390 1.349 . S
C1389 C1391 1.327 . S
C1389 H1412 0.950 . S
C1390 C1389 1.349 . S
C1390 C1402 1.349 . S
C1391 C1389 1.327 . S
C1391 C1407 1.429 . S
C1391 H1413 0.950 . S
C1392 H1388 0.949 . S
C1392 C1400 1.574 . S
C1392 C1408 1.368 . S
H1393 C1401 0.950 . S
H1394 C1399 0.950 . S
H1395 C1400 0.949 . S
H1396 C1402 0.950 . S
H1397 C1403 0.950 . S
H1398 C1404 0.949 . S
C1399 H1394 0.950 . S
C1399 C1401 1.327 . S
C1399 C1405 1.429 . S
C1400 C1392 1.574 . S
C1400 H1395 0.949 . S
C1400 C1406 1.368 . S
C1401 C1385 1.349 . S
C1401 H1393 0.950 . S
C1401 C1399 1.327 . S
C1402 C1390 1.349 . S
C1402 H1396 0.950 . S
C1402 C1403 1.327 . S
C1403 H1397 0.950 . S
C1403 C1402 1.327 . S
C1403 C1407 1.429 . S
C1404 C1387 1.574 . S
C1404 H1398 0.949 . S
C1404 C1408 1.368 . S
C1405 C1386 1.429 . S
C1405 C1399 1.429 . S
C1405 C1406 1.523 . S
C1406 C1387 1.368 . S
C1406 C1400 1.368 . S
C1406 C1405 1.523 . S
C1407 C1391 1.429 . S
C1407 C1403 1.429 . S
C1407 C1408 1.523 . S
C1408 C1392 1.368 . S
C1408 C1404 1.368 . S
C1408 C1407 1.523 . S
H1409 C1384 0.950 . S
H1410 C1386 0.950 . S
H1411 C1387 0.949 . S
H1412 C1389 0.950 . S
H1413 C1391 0.950 . S
C1414 C1415 1.349 . S
C1414 C1416 1.327 . S
C1414 H1439 0.950 . S
C1415 C1414 1.349 . S
C1415 C1431 1.349 . S
C1416 C1414 1.327 . S
C1416 C1435 1.429 . S
C1416 H1440 0.950 . S
C1417 C1434 1.574 . S
C1417 C1436 1.368 . S
C1417 H1441 0.949 . S
H1418 C1422 0.949 . S
C1419 C1420 1.349 1_554 S
C1419 C1421 1.327 . S
C1419 H1442 0.950 . S
C1420 C1419 1.349 1_556 S
C1420 C1432 1.349 . S
C1421 C1419 1.327 . S
C1421 C1437 1.429 . S
C1421 H1443 0.950 . S
C1422 H1418 0.949 . S
C1422 C1430 1.574 . S
C1422 C1438 1.368 . S
H1423 C1431 0.950 . S
H1424 C1429 0.950 . S
H1425 C1430 0.949 . S
H1426 C1432 0.950 . S
H1427 C1433 0.950 . S
H1428 C1434 0.949 . S
C1429 H1424 0.950 . S
C1429 C1431 1.327 . S
C1429 C1435 1.429 . S
C1430 C1422 1.574 . S
C1430 H1425 0.949 . S
C1430 C1436 1.368 . S
C1431 C1415 1.349 . S
C1431 H1423 0.950 . S
C1431 C1429 1.327 . S
C1432 C1420 1.349 . S
C1432 H1426 0.950 . S
C1432 C1433 1.327 1_556 S
C1433 H1427 0.950 . S
C1433 C1432 1.327 1_554 S
C1433 C1437 1.429 . S
C1434 C1417 1.574 . S
C1434 H1428 0.949 . S
C1434 C1438 1.368 . S
C1435 C1416 1.429 . S
C1435 C1429 1.429 . S
C1435 C1436 1.523 . S
C1436 C1417 1.368 . S
C1436 C1430 1.368 . S
C1436 C1435 1.523 . S
C1437 C1421 1.429 . S
C1437 C1433 1.429 . S
C1437 C1438 1.523 . S
C1438 C1422 1.368 . S
C1438 C1434 1.368 . S
C1438 C1437 1.523 . S
H1439 C1414 0.950 . S
H1440 C1416 0.950 . S
H1441 C1417 0.949 . S
H1442 C1419 0.950 . S
H1443 C1421 0.950 . S
C1444 C1445 1.349 . S
C1444 C1446 1.327 . S
C1444 H1469 0.950 . S
C1445 C1444 1.349 . S
C1445 C1461 1.349 . S
C1446 C1444 1.327 . S
C1446 C1465 1.429 . S
C1446 H1470 0.950 . S
C1447 C1464 1.574 . S
C1447 C1466 1.368 . S
C1447 H1471 0.949 . S
H1448 C1452 0.949 . S
C1449 C1450 1.349 1_556 S
C1449 C1451 1.327 . S
C1449 H1472 0.950 . S
C1450 C1449 1.349 1_554 S
C1450 C1462 1.349 . S
C1451 C1449 1.327 . S
C1451 C1467 1.429 . S
C1451 H1473 0.950 . S
C1452 H1448 0.949 . S
C1452 C1460 1.574 . S
C1452 C1468 1.368 . S
H1453 C1461 0.950 . S
H1454 C1459 0.950 . S
H1455 C1460 0.949 . S
H1456 C1462 0.950 . S
H1457 C1463 0.950 . S
H1458 C1464 0.949 . S
C1459 H1454 0.950 . S
C1459 C1461 1.327 . S
C1459 C1465 1.429 . S
C1460 C1452 1.574 . S
C1460 H1455 0.949 . S
C1460 C1466 1.368 . S
C1461 C1445 1.349 . S
C1461 H1453 0.950 . S
C1461 C1459 1.327 . S
C1462 C1450 1.349 . S
C1462 H1456 0.950 . S
C1462 C1463 1.327 1_554 S
C1463 H1457 0.950 . S
C1463 C1462 1.327 1_556 S
C1463 C1467 1.429 . S
C1464 C1447 1.574 . S
C1464 H1458 0.949 . S
C1464 C1468 1.368 . S
C1465 C1446 1.429 . S
C1465 C1459 1.429 . S
C1465 C1466 1.523 . S
C1466 C1447 1.368 . S
C1466 C1460 1.368 . S
C1466 C1465 1.523 . S
C1467 C1451 1.429 . S
C1467 C1463 1.429 . S
C1467 C1468 1.523 . S
C1468 C1452 1.368 . S
C1468 C1464 1.368 . S
C1468 C1467 1.523 . S
H1469 C1444 0.950 . S
H1470 C1446 0.950 . S
H1471 C1447 0.949 . S
H1472 C1449 0.950 . S
H1473 C1451 0.950 . S
C1474 C1475 1.349 . S
C1474 C1476 1.327 . S
C1474 H1499 0.950 . S
C1475 C1474 1.349 . S
C1475 C1491 1.349 . S
C1476 C1474 1.327 . S
C1476 C1495 1.429 . S
C1476 H1500 0.950 . S
C1477 C1494 1.574 . S
C1477 C1496 1.368 . S
C1477 H1501 0.949 . S
H1478 C1482 0.949 . S
C1479 C1480 1.349 . S
C1479 C1481 1.327 . S
C1479 H1502 0.950 . S
C1480 C1479 1.349 . S
C1480 C1492 1.349 . S
C1481 C1479 1.327 . S
C1481 C1497 1.429 . S
C1481 H1503 0.950 . S
C1482 H1478 0.949 . S
C1482 C1490 1.574 . S
C1482 C1498 1.368 . S
H1483 C1491 0.950 . S
H1484 C1489 0.950 . S
H1485 C1490 0.949 . S
H1486 C1492 0.950 . S
H1487 C1493 0.950 . S
H1488 C1494 0.949 . S
C1489 H1484 0.950 . S
C1489 C1491 1.327 . S
C1489 C1495 1.429 . S
C1490 C1482 1.574 . S
C1490 H1485 0.949 . S
C1490 C1496 1.368 . S
C1491 C1475 1.349 . S
C1491 H1483 0.950 . S
C1491 C1489 1.327 . S
C1492 C1480 1.349 . S
C1492 H1486 0.950 . S
C1492 C1493 1.327 . S
C1493 H1487 0.950 . S
C1493 C1492 1.327 . S
C1493 C1497 1.429 . S
C1494 C1477 1.574 . S
C1494 H1488 0.949 . S
C1494 C1498 1.368 . S
C1495 C1476 1.429 . S
C1495 C1489 1.429 . S
C1495 C1496 1.523 . S
C1496 C1477 1.368 . S
C1496 C1490 1.368 . S
C1496 C1495 1.523 . S
C1497 C1481 1.429 . S
C1497 C1493 1.429 . S
C1497 C1498 1.523 . S
C1498 C1482 1.368 . S
C1498 C1494 1.368 . S
C1498 C1497 1.523 . S
H1499 C1474 0.950 . S
H1500 C1476 0.950 . S
H1501 C1477 0.949 . S
H1502 C1479 0.950 . S
H1503 C1481 0.950 . S
C1504 C1505 1.349 1_556 S
C1504 C1506 1.327 1_556 S
C1504 H1529 0.950 . S
C1505 C1504 1.349 1_554 S
C1505 C1521 1.349 . S
C1506 C1504 1.327 1_554 S
C1506 C1525 1.429 . S
C1506 H1530 0.950 . S
C1507 C1524 1.574 . S
C1507 C1526 1.368 . S
C1507 H1531 0.949 . S
H1508 C1512 0.949 . S
C1509 C1510 1.349 . S
C1509 C1511 1.327 . S
C1509 H1532 0.950 . S
C1510 C1509 1.349 . S
C1510 C1522 1.349 . S
C1511 C1509 1.327 . S
C1511 C1527 1.429 . S
C1511 H1533 0.950 . S
C1512 H1508 0.949 . S
C1512 C1520 1.574 . S
C1512 C1528 1.368 . S
H1513 C1521 0.950 . S
H1514 C1519 0.950 . S
H1515 C1520 0.949 . S
H1516 C1522 0.950 . S
H1517 C1523 0.950 . S
H1518 C1524 0.949 . S
C1519 H1514 0.950 . S
C1519 C1521 1.327 . S
C1519 C1525 1.429 . S
C1520 C1512 1.574 . S
C1520 H1515 0.949 . S
C1520 C1526 1.368 . S
C1521 C1505 1.349 . S
C1521 H1513 0.950 . S
C1521 C1519 1.327 . S
C1522 C1510 1.349 . S
C1522 H1516 0.950 . S
C1522 C1523 1.327 . S
C1523 H1517 0.950 . S
C1523 C1522 1.327 . S
C1523 C1527 1.429 . S
C1524 C1507 1.574 . S
C1524 H1518 0.949 . S
C1524 C1528 1.368 . S
C1525 C1506 1.429 . S
C1525 C1519 1.429 . S
C1525 C1526 1.523 . S
C1526 C1507 1.368 . S
C1526 C1520 1.368 . S
C1526 C1525 1.523 . S
C1527 C1511 1.429 . S
C1527 C1523 1.429 . S
C1527 C1528 1.523 . S
C1528 C1512 1.368 . S
C1528 C1524 1.368 . S
C1528 C1527 1.523 . S
H1529 C1504 0.950 . S
H1530 C1506 0.950 . S
H1531 C1507 0.949 . S
H1532 C1509 0.950 . S
H1533 C1511 0.950 . S
C1534 C1535 1.349 . S
C1534 C1536 1.327 . S
C1534 H1559 0.950 . S
C1535 C1534 1.349 . S
C1535 C1551 1.349 . S
C1536 C1534 1.327 . S
C1536 C1555 1.429 . S
C1536 H1560 0.950 . S
C1537 C1554 1.574 . S
C1537 C1556 1.368 . S
C1537 H1561 0.949 . S
H1538 C1542 0.949 . S
C1539 C1540 1.349 . S
C1539 C1541 1.327 . S
C1539 H1562 0.950 . S
C1540 C1539 1.349 . S
C1540 C1552 1.349 . S
C1541 C1539 1.327 . S
C1541 C1557 1.429 . S
C1541 H1563 0.950 . S
C1542 H1538 0.949 . S
C1542 C1550 1.574 . S
C1542 C1558 1.368 . S
H1543 C1551 0.950 . S
H1544 C1549 0.950 . S
H1545 C1550 0.949 . S
H1546 C1552 0.950 . S
H1547 C1553 0.950 . S
H1548 C1554 0.949 . S
C1549 H1544 0.950 . S
C1549 C1551 1.327 . S
C1549 C1555 1.429 . S
C1550 C1542 1.574 . S
C1550 H1545 0.949 . S
C1550 C1556 1.368 . S
C1551 C1535 1.349 . S
C1551 H1543 0.950 . S
C1551 C1549 1.327 . S
C1552 C1540 1.349 . S
C1552 H1546 0.950 . S
C1552 C1553 1.327 . S
C1553 H1547 0.950 . S
C1553 C1552 1.327 . S
C1553 C1557 1.429 . S
C1554 C1537 1.574 . S
C1554 H1548 0.949 . S
C1554 C1558 1.368 . S
C1555 C1536 1.429 . S
C1555 C1549 1.429 . S
C1555 C1556 1.523 . S
C1556 C1537 1.368 . S
C1556 C1550 1.368 . S
C1556 C1555 1.523 . S
C1557 C1541 1.429 . S
C1557 C1553 1.429 . S
C1557 C1558 1.523 . S
C1558 C1542 1.368 . S
C1558 C1554 1.368 . S
C1558 C1557 1.523 . S
H1559 C1534 0.950 . S
H1560 C1536 0.950 . S
H1561 C1537 0.949 . S
H1562 C1539 0.950 . S
H1563 C1541 0.950 . S
C1564 C1565 1.349 . S
C1564 C1566 1.327 . S
C1564 H1589 0.950 . S
C1565 C1564 1.349 . S
C1565 C1581 1.349 . S
C1566 C1564 1.327 . S
C1566 C1585 1.429 . S
C1566 H1590 0.950 . S
C1567 C1584 1.574 . S
C1567 C1586 1.368 . S
C1567 H1591 0.949 . S
H1568 C1572 0.949 . S
C1569 C1570 1.349 . S
C1569 C1571 1.327 . S
C1569 H1592 0.950 . S
C1570 C1569 1.349 . S
C1570 C1582 1.349 . S
C1571 C1569 1.327 . S
C1571 C1587 1.429 . S
C1571 H1593 0.950 . S
C1572 H1568 0.949 . S
C1572 C1580 1.574 . S
C1572 C1588 1.368 . S
H1573 C1581 0.950 . S
H1574 C1579 0.950 . S
H1575 C1580 0.949 . S
H1576 C1582 0.950 . S
H1577 C1583 0.950 . S
H1578 C1584 0.949 . S
C1579 H1574 0.950 . S
C1579 C1581 1.327 . S
C1579 C1585 1.429 . S
C1580 C1572 1.574 . S
C1580 H1575 0.949 . S
C1580 C1586 1.368 . S
C1581 C1565 1.349 . S
C1581 H1573 0.950 . S
C1581 C1579 1.327 . S
C1582 C1570 1.349 . S
C1582 H1576 0.950 . S
C1582 C1583 1.327 . S
C1583 H1577 0.950 . S
C1583 C1582 1.327 . S
C1583 C1587 1.429 . S
C1584 C1567 1.574 . S
C1584 H1578 0.949 . S
C1584 C1588 1.368 . S
C1585 C1566 1.429 . S
C1585 C1579 1.429 . S
C1585 C1586 1.523 . S
C1586 C1567 1.368 . S
C1586 C1580 1.368 . S
C1586 C1585 1.523 . S
C1587 C1571 1.429 . S
C1587 C1583 1.429 . S
C1587 C1588 1.523 . S
C1588 C1572 1.368 . S
C1588 C1584 1.368 . S
C1588 C1587 1.523 . S
H1589 C1564 0.950 . S
H1590 C1566 0.950 . S
H1591 C1567 0.949 . S
H1592 C1569 0.950 . S
H1593 C1571 0.950 . S
C1594 C1595 1.349 . S
C1594 C1596 1.327 . S
C1594 H1619 0.950 . S
C1595 C1594 1.349 . S
C1595 C1611 1.349 1_556 S
C1596 C1594 1.327 . S
C1596 C1615 1.429 . S
C1596 H1620 0.950 . S
C1597 C1614 1.574 . S
C1597 C1616 1.368 . S
C1597 H1621 0.949 . S
H1598 C1602 0.949 . S
C1599 C1600 1.349 . S
C1599 C1601 1.327 . S
C1599 H1622 0.950 . S
C1600 C1599 1.349 . S
C1600 C1612 1.349 . S
C1601 C1599 1.327 . S
C1601 C1617 1.429 . S
C1601 H1623 0.950 . S
C1602 H1598 0.949 . S
C1602 C1610 1.574 . S
C1602 C1618 1.368 . S
H1603 C1611 0.950 . S
H1604 C1609 0.950 . S
H1605 C1610 0.949 . S
H1606 C1612 0.950 . S
H1607 C1613 0.950 . S
H1608 C1614 0.949 . S
C1609 H1604 0.950 . S
C1609 C1611 1.327 1_556 S
C1609 C1615 1.429 . S
C1610 C1602 1.574 . S
C1610 H1605 0.949 . S
C1610 C1616 1.368 . S
C1611 C1595 1.349 1_554 S
C1611 H1603 0.950 . S
C1611 C1609 1.327 1_554 S
C1612 C1600 1.349 . S
C1612 H1606 0.950 . S
C1612 C1613 1.327 . S
C1613 H1607 0.950 . S
C1613 C1612 1.327 . S
C1613 C1617 1.429 . S
C1614 C1597 1.574 . S
C1614 H1608 0.949 . S
C1614 C1618 1.368 . S
C1615 C1596 1.429 . S
C1615 C1609 1.429 . S
C1615 C1616 1.523 . S
C1616 C1597 1.368 . S
C1616 C1610 1.368 . S
C1616 C1615 1.523 . S
C1617 C1601 1.429 . S
C1617 C1613 1.429 . S
C1617 C1618 1.523 . S
C1618 C1602 1.368 . S
C1618 C1614 1.368 . S
C1618 C1617 1.523 . S
H1619 C1594 0.950 . S
H1620 C1596 0.950 . S
H1621 C1597 0.949 . S
H1622 C1599 0.950 . S
H1623 C1601 0.950 . S
C1624 C1625 1.349 . S
C1624 C1626 1.327 . S
C1624 H1649 0.950 . S
C1625 C1624 1.349 . S
C1625 C1641 1.349 . S
C1626 C1624 1.327 . S
C1626 C1645 1.429 . S
C1626 H1650 0.950 . S
C1627 C1644 1.574 . S
C1627 C1646 1.368 . S
C1627 H1651 0.949 . S
H1628 C1632 0.949 . S
C1629 C1630 1.349 . S
C1629 C1631 1.327 1_554 S
C1629 H1652 0.950 . S
C1630 C1629 1.349 . S
C1630 C1642 1.349 1_554 S
C1631 C1629 1.327 1_556 S
C1631 C1647 1.429 . S
C1631 H1653 0.950 . S
C1632 H1628 0.949 . S
C1632 C1640 1.574 . S
C1632 C1648 1.368 . S
H1633 C1641 0.950 . S
H1634 C1639 0.950 . S
H1635 C1640 0.949 . S
H1636 C1642 0.950 . S
H1637 C1643 0.950 . S
H1638 C1644 0.949 . S
C1639 H1634 0.950 . S
C1639 C1641 1.327 . S
C1639 C1645 1.429 . S
C1640 C1632 1.574 . S
C1640 H1635 0.949 . S
C1640 C1646 1.368 . S
C1641 C1625 1.349 . S
C1641 H1633 0.950 . S
C1641 C1639 1.327 . S
C1642 C1630 1.349 1_556 S
C1642 H1636 0.950 . S
C1642 C1643 1.327 . S
C1643 H1637 0.950 . S
C1643 C1642 1.327 . S
C1643 C1647 1.429 . S
C1644 C1627 1.574 . S
C1644 H1638 0.949 . S
C1644 C1648 1.368 . S
C1645 C1626 1.429 . S
C1645 C1639 1.429 . S
C1645 C1646 1.523 . S
C1646 C1627 1.368 . S
C1646 C1640 1.368 . S
C1646 C1645 1.523 . S
C1647 C1631 1.429 . S
C1647 C1643 1.429 . S
C1647 C1648 1.523 . S
C1648 C1632 1.368 . S
C1648 C1644 1.368 . S
C1648 C1647 1.523 . S
H1649 C1624 0.950 . S
H1650 C1626 0.950 . S
H1651 C1627 0.949 . S
H1652 C1629 0.950 . S
H1653 C1631 0.950 . S
C1654 C1655 1.349 . S
C1654 C1656 1.327 . S
C1654 H1679 0.950 . S
C1655 C1654 1.349 . S
C1655 C1671 1.349 . S
C1656 C1654 1.327 . S
C1656 C1675 1.429 . S
C1656 H1680 0.950 . S
C1657 C1674 1.574 . S
C1657 C1676 1.368 . S
C1657 H1681 0.949 . S
H1658 C1662 0.949 . S
C1659 C1660 1.349 . S
C1659 C1661 1.327 . S
C1659 H1682 0.950 . S
C1660 C1659 1.349 . S
C1660 C1672 1.349 . S
C1661 C1659 1.327 . S
C1661 C1677 1.429 . S
C1661 H1683 0.950 . S
C1662 H1658 0.949 . S
C1662 C1670 1.574 . S
C1662 C1678 1.368 . S
H1663 C1671 0.950 . S
H1664 C1669 0.950 . S
H1665 C1670 0.949 . S
H1666 C1672 0.950 . S
H1667 C1673 0.950 . S
H1668 C1674 0.949 . S
C1669 H1664 0.950 . S
C1669 C1671 1.327 . S
C1669 C1675 1.429 . S
C1670 C1662 1.574 . S
C1670 H1665 0.949 . S
C1670 C1676 1.368 . S
C1671 C1655 1.349 . S
C1671 H1663 0.950 . S
C1671 C1669 1.327 . S
C1672 C1660 1.349 . S
C1672 H1666 0.950 . S
C1672 C1673 1.327 . S
C1673 H1667 0.950 . S
C1673 C1672 1.327 . S
C1673 C1677 1.429 . S
C1674 C1657 1.574 . S
C1674 H1668 0.949 . S
C1674 C1678 1.368 . S
C1675 C1656 1.429 . S
C1675 C1669 1.429 . S
C1675 C1676 1.523 . S
C1676 C1657 1.368 . S
C1676 C1670 1.368 . S
C1676 C1675 1.523 . S
C1677 C1661 1.429 . S
C1677 C1673 1.429 . S
C1677 C1678 1.523 . S
C1678 C1662 1.368 . S
C1678 C1674 1.368 . S
C1678 C1677 1.523 . S
H1679 C1654 0.950 . S
H1680 C1656 0.950 . S
H1681 C1657 0.949 . S
H1682 C1659 0.950 . S
H1683 C1661 0.950 . S
C1684 C1685 1.349 . S
C1684 C1686 1.327 . S
C1684 H1709 0.950 . S
C1685 C1684 1.349 . S
C1685 C1701 1.349 . S
C1686 C1684 1.327 . S
C1686 C1705 1.429 . S
C1686 H1710 0.950 . S
C1687 C1704 1.574 . S
C1687 C1706 1.368 . S
C1687 H1711 0.949 . S
H1688 C1692 0.949 . S
C1689 C1690 1.349 . S
C1689 C1691 1.327 . S
C1689 H1712 0.950 . S
C1690 C1689 1.349 . S
C1690 C1702 1.349 . S
C1691 C1689 1.327 . S
C1691 C1707 1.429 . S
C1691 H1713 0.950 . S
C1692 H1688 0.949 . S
C1692 C1700 1.574 . S
C1692 C1708 1.368 . S
H1693 C1701 0.950 . S
H1694 C1699 0.950 . S
H1695 C1700 0.949 . S
H1696 C1702 0.950 . S
H1697 C1703 0.950 . S
H1698 C1704 0.949 . S
C1699 H1694 0.950 . S
C1699 C1701 1.327 . S
C1699 C1705 1.429 . S
C1700 C1692 1.574 . S
C1700 H1695 0.949 . S
C1700 C1706 1.368 . S
C1701 C1685 1.349 . S
C1701 H1693 0.950 . S
C1701 C1699 1.327 . S
C1702 C1690 1.349 . S
C1702 H1696 0.950 . S
C1702 C1703 1.327 . S
C1703 H1697 0.950 . S
C1703 C1702 1.327 . S
C1703 C1707 1.429 . S
C1704 C1687 1.574 . S
C1704 H1698 0.949 . S
C1704 C1708 1.368 . S
C1705 C1686 1.429 . S
C1705 C1699 1.429 . S
C1705 C1706 1.523 . S
C1706 C1687 1.368 . S
C1706 C1700 1.368 . S
C1706 C1705 1.523 . S
C1707 C1691 1.429 . S
C1707 C1703 1.429 . S
C1707 C1708 1.523 . S
C1708 C1692 1.368 . S
C1708 C1704 1.368 . S
C1708 C1707 1.523 . S
H1709 C1684 0.950 . S
H1710 C1686 0.950 . S
H1711 C1687 0.949 . S
H1712 C1689 0.950 . S
H1713 C1691 0.950 . S
C1714 C1715 1.349 . S
C1714 C1716 1.327 . S
C1714 H1739 0.950 . S
C1715 C1714 1.349 . S
C1715 C1731 1.349 . S
C1716 C1714 1.327 . S
C1716 C1735 1.429 . S
C1716 H1740 0.950 . S
C1717 C1734 1.574 . S
C1717 C1736 1.368 . S
C1717 H1741 0.949 . S
H1718 C1722 0.949 . S
C1719 C1720 1.349 1_554 S
C1719 C1721 1.327 . S
C1719 H1742 0.950 . S
C1720 C1719 1.349 1_556 S
C1720 C1732 1.349 . S
C1721 C1719 1.327 . S
C1721 C1737 1.429 . S
C1721 H1743 0.950 . S
C1722 H1718 0.949 . S
C1722 C1730 1.574 . S
C1722 C1738 1.368 . S
H1723 C1731 0.950 . S
H1724 C1729 0.950 . S
H1725 C1730 0.949 . S
H1726 C1732 0.950 . S
H1727 C1733 0.950 . S
H1728 C1734 0.949 . S
C1729 H1724 0.950 . S
C1729 C1731 1.327 . S
C1729 C1735 1.429 . S
C1730 C1722 1.574 . S
C1730 H1725 0.949 . S
C1730 C1736 1.368 . S
C1731 C1715 1.349 . S
C1731 H1723 0.950 . S
C1731 C1729 1.327 . S
C1732 C1720 1.349 . S
C1732 H1726 0.950 . S
C1732 C1733 1.327 1_556 S
C1733 H1727 0.950 . S
C1733 C1732 1.327 1_554 S
C1733 C1737 1.429 . S
C1734 C1717 1.574 . S
C1734 H1728 0.949 . S
C1734 C1738 1.368 . S
C1735 C1716 1.429 . S
C1735 C1729 1.429 . S
C1735 C1736 1.523 . S
C1736 C1717 1.368 . S
C1736 C1730 1.368 . S
C1736 C1735 1.523 . S
C1737 C1721 1.429 . S
C1737 C1733 1.429 . S
C1737 C1738 1.523 . S
C1738 C1722 1.368 . S
C1738 C1734 1.368 . S
C1738 C1737 1.523 . S
H1739 C1714 0.950 . S
H1740 C1716 0.950 . S
H1741 C1717 0.949 . S
H1742 C1719 0.950 . S
H1743 C1721 0.950 . S
C545 C33 0.234 . S
C550 C169 0.234 . S
C575 C203 0.234 . S
C580 C67 0.234 . S
C605 C237 0.234 . S
C610 C101 0.234 . S
C635 C135 0.234 . S
C640 C271 0.234 . S
C665 C305 0.234 . S
C670 C373 0.234 . S
C695 C407 0.234 . S
C700 C339 0.234 . S
C725 C441 0.234 . S
C730 C509 0.234 . S
C755 C475 0.234 . S
C760 C543 0.234 . S
C785 C20 2.114 . S
C790 C190 2.114 . S
C815 C224 2.114 . S
C820 C54 2.114 . S
C845 C258 2.114 . S
C850 C88 2.114 . S
C875 C122 2.114 . S
C880 C156 2.114 . S
C905 C145 0.658 . S
C910 C349 0.658 1_556 S
C935 C77 0.658 . S
C940 C281 0.658 . S
C965 C213 0.658 . S
C970 C383 0.658 . S
C995 C9 0.658 . S
C1000 C315 0.658 1_554 S
C1025 C428 2.114 . S
C1030 C292 2.114 . S
C1055 C360 2.114 . S
C1060 C530 2.114 . S
C1085 C326 2.114 . S
C1090 C462 2.114 . S
C1115 C394 2.114 . S
C1120 C496 2.114 . S
C1145 C485 0.658 . S
C1150 C43 0.658 . S
C1175 C179 0.658 1_554 S
C1180 C451 0.658 . S
C1205 C111 0.658 1_556 S
C1210 C519 0.658 . S
C1235 C417 0.658 . S
C1240 C247 0.658 . S
C1265 C175 1.093 . S
C1270 C5 1.093 . S
C1295 C209 1.093 1_556 S
C1300 C39 1.093 . S
C1325 C73 1.093 1_554 S
C1330 C243 1.093 . S
C1355 C107 1.093 . S
C1360 C141 1.093 . S
C1385 C138 2.618 . S
C1390 C342 2.618 . S
C1415 C274 2.618 . S
C1420 C70 2.618 . S
C1445 C376 2.618 . S
C1450 C206 2.618 . S
C1475 C2 2.618 . S
C1480 C308 2.618 . S
C1505 C413 1.093 1_554 S
C1510 C277 1.093 . S
C1535 C345 1.093 . S
C1540 C515 1.093 . S
C1565 C447 1.093 . S
C1570 C311 1.093 . S
C1595 C481 1.093 1_556 S
C1600 C379 1.093 . S
C1625 C36 2.618 . S
C1630 C478 2.618 . S
C1655 C172 2.618 . S
C1660 C444 2.618 . S
C1685 C512 2.618 . S
C1690 C104 2.618 . S
C1715 C240 2.618 . S
C1720 C410 2.618 . S
