# Generated by pormake.
# Topology snp, (6)-cn, num edge types: 1
# Building blocks:
#     Node 0, Type 0, BuildingBlock: VOLQOD_clean_sbu_1, # of connection points: 6
#     Node 1, Type 0, BuildingBlock: VOLQOD_clean_sbu_1, # of connection points: 6
#     Node 2, Type 0, BuildingBlock: VOLQOD_clean_sbu_1, # of connection points: 6
#     Node 3, Type 0, BuildingBlock: VOLQOD_clean_sbu_1, # of connection points: 6
#     Edge 4, Type (0, 0), BuildingBlock: CIFDUS_clean_linker_0, # of connection points: 2
#     Edge 5, Type (0, 0), BuildingBlock: CIFDUS_clean_linker_0, # of connection points: 2
#     Edge 6, Type (0, 0), BuildingBlock: CIFDUS_clean_linker_0, # of connection points: 2
#     Edge 7, Type (0, 0), BuildingBlock: CIFDUS_clean_linker_0, # of connection points: 2
#     Edge 8, Type (0, 0), BuildingBlock: CIFDUS_clean_linker_0, # of connection points: 2
#     Edge 9, Type (0, 0), BuildingBlock: CIFDUS_clean_linker_0, # of connection points: 2
#     Edge 10, Type (0, 0), BuildingBlock: CIFDUS_clean_linker_0, # of connection points: 2
#     Edge 11, Type (0, 0), BuildingBlock: CIFDUS_clean_linker_0, # of connection points: 2
#     Edge 12, Type (0, 0), BuildingBlock: CIFDUS_clean_linker_0, # of connection points: 2
#     Edge 13, Type (0, 0), BuildingBlock: CIFDUS_clean_linker_0, # of connection points: 2
#     Edge 14, Type (0, 0), BuildingBlock: CIFDUS_clean_linker_0, # of connection points: 2
#     Edge 15, Type (0, 0), BuildingBlock: CIFDUS_clean_linker_0, # of connection points: 2
# Relax obj value: 0.790
# Max RMSD: 0.301
# Mean RMSD: 0.301
data_MOF--net-snp--node1-VOLQOD_clean_sbu_1--edge1-CIFDUS_clean_linker_0
_symmetry_space_group_name_H-M    P1
_symmetry_Int_Tables_number       1
_symmetry_cell_setting            triclinic
loop_
_symmetry_equiv_pos_as_xyz
'x, y, z'
_cell_length_a     26.65732
_cell_length_b     27.348121
_cell_length_c     21.076243
_cell_angle_alpha  91.645573
_cell_angle_beta   89.568576
_cell_angle_gamma 101.77739
loop_
_atom_site_label
_atom_site_type_symbol
_atom_site_fract_x
_atom_site_fract_y
_atom_site_fract_z
_atom_type_partial_charge
O0 O 0.19034 -0.02838 0.98573 0.0
Zn1 Zn 0.26153 -0.00621 1.01318 0.0
O2 O 0.27523 0.06664 1.01985 0.0
Zn3 Zn 0.31706 0.08727 0.94776 0.0
Zn4 Zn 0.217 0.09528 1.01453 0.0
Zn5 Zn 0.30659 0.08441 0.10058 0.0
O6 O 0.38785 0.09206 0.97912 0.0
O7 O 0.38225 0.09162 0.08535 0.0
O8 O 0.29796 0.96586 0.94149 0.0
O9 O 0.30066 0.03117 0.88141 0.0
O10 O 0.30227 0.14928 0.90646 0.0
O11 O 0.226 0.14788 0.9498 0.0
O12 O 0.2043 0.12841 0.09694 0.0
O13 O 0.26506 0.96072 0.09616 0.0
O14 O 0.2807 0.14148 0.14413 0.0
O15 O 0.28323 0.02764 0.16009 0.0
C16 C 0.15476 -0.00534 0.97516 0.0
C17 C 0.40785 0.09102 0.03386 0.0
C18 C 0.26127 0.1664 0.91136 0.0
C19 C 0.29724 -0.01573 0.88678 0.0
C20 C 0.23492 0.14866 0.14078 0.0
C21 C 0.26953 -0.01947 0.15171 0.0
O22 O 0.1595 0.0415 0.98573 0.0
O23 O 0.91448 0.13886 0.60871 0.0
Zn24 Zn 0.91332 0.19773 0.55692 0.0
O25 O -0.01834 0.23669 0.55423 0.0
Zn26 Zn -0.01641 0.28031 0.62755 0.0
Zn27 Zn 0.03273 0.19901 0.56909 0.0
Zn28 Zn -0.00771 0.26529 0.47179 0.0
O29 O -0.0054 0.34728 0.59246 0.0
O30 O 0.00233 0.34018 0.48667 0.0
O31 O 0.86428 0.23249 0.60199 0.0
O32 O 0.91813 0.26117 0.67931 0.0
O33 O 0.04363 0.27922 0.68625 0.0
O34 O 0.08708 0.23302 0.62908 0.0
O35 O 0.0694 0.18518 0.48947 0.0
O36 O 0.88659 0.17676 0.47078 0.0
O37 O 0.05613 0.24819 0.43186 0.0
O38 O 0.93473 0.23284 0.40976 0.0
C39 C 0.95161 0.1212 0.62922 0.0
C40 C 0.00313 0.3665 0.53804 0.0
C41 C 0.08354 0.26104 0.67726 0.0
C42 C 0.87248 0.24405 0.66027 0.0
C43 C 0.07932 0.21256 0.44121 0.0
C44 C 0.89749 0.19561 0.41672 0.0
O45 O -0.00204 0.13904 0.61411 0.0
O46 O 0.85711 -0.02651 0.92722 0.0
Zn47 Zn 0.7993 -0.00958 0.97456 0.0
O48 O 0.75138 0.92974 0.98668 0.0
Zn49 Zn 0.70576 0.92196 0.91439 0.0
Zn50 Zn 0.78313 0.87306 0.98273 0.0
Zn51 Zn 0.72273 0.93476 0.06998 0.0
O52 O 0.63573 0.91879 0.95144 0.0
O53 O 0.64968 0.93737 0.05497 0.0
O54 O 0.77214 0.03727 0.92137 0.0
O55 O 0.71912 -0.01577 0.8594 0.0
O56 O 0.71514 0.86166 0.85796 0.0
O57 O 0.74574 0.81711 0.92841 0.0
O58 O 0.79084 0.84758 0.0686 0.0
O59 O 0.8235 0.02764 0.05515 0.0
O60 O 0.73323 0.87803 0.12559 0.0
O61 O 0.75831 -0.00175 0.11843 0.0
C62 C 0.87331 0.93336 0.91738 0.0
C63 C 0.62024 0.92992 1.00658 0.0
C64 C 0.73009 0.8219 0.87262 0.0
C65 C 0.74368 0.02845 0.8727 0.0
C66 C 0.76596 0.84997 0.11995 0.0
C67 C 0.80011 0.02916 0.10772 0.0
O68 O 0.85073 0.89213 0.94026 0.0
O69 O -0.01422 0.87089 0.59274 0.0
Zn70 Zn 0.03709 0.83736 0.55126 0.0
O71 O 0.00282 0.77063 0.53403 0.0
Zn72 Zn 0.01719 0.73116 0.60303 0.0
Zn73 Zn 0.92874 0.76254 0.53466 0.0
Zn74 Zn 0.02314 0.75144 0.4512 0.0
O75 O 0.0319 0.66963 0.5607 0.0
O76 O 0.03871 0.68339 0.45648 0.0
O77 O 0.09336 0.84098 0.6143 0.0
O78 O 0.07882 0.76617 0.65647 0.0
O79 O 0.95329 0.71689 0.65955 0.0
O80 O 0.89451 0.7043 0.58442 0.0
O81 O 0.89968 0.75975 0.44745 0.0
O82 O 0.07172 0.87021 0.47343 0.0
O83 O 0.96597 0.74968 0.38787 0.0
O84 O 0.08336 0.80229 0.41962 0.0
C85 C 0.93781 0.85927 0.60418 0.0
C86 C 0.04005 0.65568 0.5038 0.0
C87 C 0.90639 0.70418 0.6427 0.0
C88 C 0.10507 0.81063 0.65341 0.0
C89 C 0.91947 0.75428 0.3933 0.0
C90 C 0.09362 0.84959 0.42905 0.0
O91 O 0.90973 0.81935 0.58238 0.0
H92 H 0.93778 0.86974 0.93012 0.0
H93 H 0.92338 0.00758 0.844 0.0
H94 H 0.0158 0.03588 0.84531 0.0
H95 H 0.09576 0.03015 0.89453 0.0
H96 H 0.10998 0.89673 0.99095 0.0
H97 H 0.02265 0.8567 0.95952 0.0
C98 C 0.95507 0.90484 0.90876 0.0
C99 C 0.92437 0.93777 0.88995 0.0
C100 C 0.00802 0.92178 0.91222 0.0
C101 C 0.94673 -0.01749 0.86085 0.0
C102 C -0.00055 -0.00116 0.86189 0.0
C103 C 0.07981 -0.00794 0.90789 0.0
C104 C 0.10741 0.96698 0.94721 0.0
C105 C 0.02977 0.97032 0.89156 0.0
C106 C 0.08812 0.91696 0.96201 0.0
C107 C 0.03847 0.89416 0.944 0.0
H108 H -0.01788 0.91859 0.69845 0.0
H109 H 0.84172 0.87938 0.59204 0.0
H110 H 0.82317 0.96198 0.61586 0.0
H111 H 0.86455 0.05039 0.62838 0.0
H112 H 0.01544 0.09051 0.71129 0.0
H113 H 0.01416 0.00361 0.73204 0.0
C114 C 0.94668 0.92787 0.68231 0.0
C115 C 0.91485 0.89515 0.64063 0.0
C116 C 0.93952 -0.02348 0.68997 0.0
C117 C 0.8676 0.90534 0.62254 0.0
C118 C 0.85739 0.95269 0.63553 0.0
C119 C 0.8958 0.04021 0.6542 0.0
C120 C 0.94104 0.07569 0.66561 0.0
C121 C 0.89572 -0.01016 0.66336 0.0
C122 C -0.019 0.06299 0.7002 0.0
C123 C -0.01987 0.01339 0.71258 0.0
H124 H 0.59228 -0.00875 0.09743 0.0
H125 H 0.5413 0.91098 0.92221 0.0
H126 H 0.47461 0.95938 0.9123 0.0
H127 H 0.43492 0.02686 0.94941 0.0
H128 H 0.48167 0.10544 0.1266 0.0
H129 H 0.54846 0.05635 0.13829 0.0
C130 C 0.56582 -0.01661 0.05784 0.0
C131 C 0.57188 0.94774 1.01034 0.0
C132 C 0.52865 0.01233 0.05145 0.0
C133 C 0.53741 0.93824 0.9593 0.0
C134 C 0.49982 0.96634 0.95314 0.0
C135 C 0.4605 0.03431 0.98995 0.0
C136 C 0.45461 0.07076 0.03623 0.0
C137 C 0.49631 0.00442 0.99784 0.0
C138 C 0.48658 0.07842 0.08969 0.0
C139 C 0.524 0.04986 0.09678 0.0
H140 H 0.00303 0.42731 0.4375 0.0
H141 H 0.04214 0.42747 0.63628 0.0
H142 H 0.06648 0.51766 0.639 0.0
H143 H 0.06773 0.59611 0.58947 0.0
H144 H 0.02328 0.59919 0.39344 0.0
H145 H 0.01205 0.50815 0.38435 0.0
C146 C 0.01716 0.44724 0.48112 0.0
C147 C 0.01946 0.42096 0.53686 0.0
C148 C 0.03055 0.49954 0.48284 0.0
C149 C 0.03855 0.44696 0.59304 0.0
C150 C 0.05298 0.49854 0.59467 0.0
C151 C 0.05622 0.57695 0.54445 0.0
C152 C 0.0452 0.60383 0.49275 0.0
C153 C 0.04775 0.52512 0.54046 0.0
C154 C 0.03164 0.57895 0.43416 0.0
C155 C 0.02469 0.52695 0.42912 0.0
H156 H 0.0949 0.2472 0.32162 0.0
H157 H 0.14997 0.15405 0.45578 0.0
H158 H 0.2096 0.13237 0.37649 0.0
H159 H 0.24034 0.1337 0.26604 0.0
H160 H 0.17924 0.2204 0.1298 0.0
H161 H 0.12872 0.25193 0.21312 0.0
C162 C 0.12034 0.22262 0.3338 0.0
C163 C 0.11767 0.20203 0.3944 0.0
C164 C 0.15375 0.20946 0.28761 0.0
C165 C 0.15083 0.17006 0.40927 0.0
C166 C 0.1851 0.15776 0.36403 0.0
C167 C 0.21707 0.16064 0.25528 0.0
C168 C 0.21382 0.17544 0.1925 0.0
C169 C 0.18623 0.1765 0.30271 0.0
C170 C 0.1825 0.2091 0.17821 0.0
C171 C 0.15338 0.22673 0.22563 0.0
H172 H 0.79338 0.1653 0.6397 0.0
H173 H 0.8674 0.26729 0.78684 0.0
H174 H 0.82412 0.21152 0.86777 0.0
H175 H 0.78033 0.12727 0.89527 0.0
H176 H 0.71395 0.02158 0.74772 0.0
H177 H 0.7386 0.08563 0.66836 0.0
C178 C 0.79876 0.17629 0.68943 0.0
C179 C 0.83417 0.22024 0.70721 0.0
C180 C 0.77597 0.14275 0.7356 0.0
C181 C 0.84065 0.23362 0.77191 0.0
C182 C 0.81626 0.20148 0.81818 0.0
C183 C 0.77024 0.11842 0.8459 0.0
C184 C 0.74625 0.06933 0.82731 0.0
C185 C 0.78621 0.15481 0.80042 0.0
C186 C 0.73268 0.05888 0.76334 0.0
C187 C 0.74709 0.09546 0.71787 0.0
H188 H 0.82912 0.78542 0.38644 0.0
H189 H 0.94299 0.73357 0.2703 0.0
H190 H 0.90053 0.75259 0.17464 0.0
H191 H 0.83767 0.79268 0.12501 0.0
H192 H 0.727 0.84974 0.24096 0.0
H193 H 0.76125 0.81899 0.33577 0.0
C194 C 0.84424 0.77747 0.34022 0.0
C195 C 0.88956 0.7586 0.33561 0.0
C196 C 0.82043 0.78972 0.28543 0.0
C197 C 0.90849 0.74851 0.27527 0.0
C198 C 0.88426 0.75944 0.22053 0.0
C199 C 0.82041 0.79787 0.17083 0.0
C200 C 0.78021 0.82414 0.17585 0.0
C201 C 0.8412 0.78145 0.22518 0.0
C202 C 0.75817 0.82999 0.23567 0.0
C203 C 0.77789 0.81259 0.28997 0.0
H204 H 0.1818 0.89178 0.6408 0.0
H205 H 0.12349 0.77265 0.76823 0.0
H206 H 0.1848 0.8125 0.84945 0.0
H207 H 0.24652 0.88685 0.88865 0.0
H208 H 0.30189 0.00708 0.76146 0.0
H209 H 0.25095 0.96054 0.67541 0.0
C210 C 0.18291 0.87407 0.68603 0.0
C211 C 0.14752 0.82961 0.69869 0.0
C212 C 0.21776 0.89749 0.73264 0.0
C213 C 0.15012 0.80689 0.75722 0.0
C214 C 0.18506 0.82982 0.80381 0.0
C215 C 0.24871 0.9023 0.84165 0.0
C216 C 0.27786 0.9507 0.83178 0.0
C217 C 0.218 0.87591 0.7927 0.0
C218 C 0.27973 0.97011 0.77056 0.0
C219 C 0.25028 0.94363 0.72138 0.0
H220 H 0.78627 0.75021 0.88508 0.0
H221 H 0.70645 0.81805 0.74542 0.0
H222 H 0.74825 0.77834 0.66041 0.0
H223 H 0.81808 0.73703 0.62677 0.0
H224 H 0.90571 0.67939 0.76749 0.0
H225 H 0.84981 0.70201 0.85119 0.0
C226 C 0.77679 0.75544 0.83612 0.0
C227 C 0.74339 0.78763 0.8219 0.0
C228 C 0.80305 0.73474 0.78762 0.0
C229 C 0.73194 0.79369 0.75796 0.0
C230 C 0.75621 0.77126 0.70928 0.0
C231 C 0.82403 0.72796 0.67554 0.0
C232 C 0.866 0.70631 0.6909 0.0
C233 C 0.79344 0.74353 0.72363 0.0
C234 C 0.87368 0.69582 0.75447 0.0
C235 C 0.84188 0.70905 0.8023 0.0
H236 H 0.23492 0.01164 0.26412 0.0
H237 H 0.25575 0.87912 0.15968 0.0
H238 H 0.20547 0.82671 0.23906 0.0
H239 H 0.1484 0.81872 0.33159 0.0
H240 H 0.12415 0.95149 0.43297 0.0
H241 H 0.18281 0.00354 0.36101 0.0
C242 C 0.22955 -0.02871 0.25946 0.0
C243 C 0.24902 0.94932 0.20595 0.0
C244 C 0.19909 0.94141 0.30403 0.0
C245 C 0.24112 0.89696 0.20035 0.0
C246 C 0.21208 0.86698 0.2455 0.0
C247 C 0.15609 0.85902 0.33828 0.0
C248 C 0.13129 0.88106 0.38728 0.0
C249 C 0.18955 0.88882 0.2964 0.0
C250 C 0.14223 0.9334 0.3954 0.0
C251 C 0.17592 0.96327 0.35433 0.0
H252 H 0.17965 0.24225 0.66648 0.0
H253 H 0.0748 0.28769 0.80224 0.0
H254 H 0.12864 0.27178 0.88927 0.0
H255 H 0.19509 0.22898 0.92593 0.0
H256 H 0.29805 0.18047 0.79038 0.0
H257 H 0.25628 0.21487 0.7043 0.0
C258 C 0.16921 0.24985 0.71508 0.0
C259 C 0.12259 0.26497 0.72786 0.0
C260 C 0.19983 0.23964 0.76497 0.0
C261 C 0.11016 0.27561 0.79099 0.0
C262 C 0.1408 0.2662 0.84088 0.0
C263 C 0.20939 0.2273 0.87775 0.0
C264 C 0.24891 0.20132 0.86435 0.0
C265 C 0.18421 0.2458 0.82838 0.0
C266 C 0.26762 0.2001 0.80196 0.0
C267 C 0.24331 0.21927 0.75259 0.0
H268 H 0.76015 0.04746 0.22369 0.0
H269 H 0.89092 0.09697 0.10254 0.0
H270 H 0.93016 0.15697 0.18458 0.0
H271 H 0.93038 0.19158 0.29396 0.0
H272 H 0.80057 0.14013 0.41561 0.0
H273 H 0.75788 0.08571 0.33009 0.0
C274 C 0.79711 0.0715 0.21502 0.0
C275 C 0.82257 0.06717 0.15705 0.0
C276 C 0.81974 0.10595 0.2626 0.0
C277 C 0.87038 0.09908 0.14673 0.0
C278 C 0.89295 0.13358 0.19368 0.0
C279 C 0.8923 0.16927 0.30123 0.0
C280 C 0.86879 0.16993 0.36113 0.0
C281 C 0.86834 0.13694 0.25217 0.0
C282 C 0.81966 0.14023 0.37002 0.0
C283 C 0.79524 0.10887 0.32121 0.0
loop_
_geom_bond_atom_site_label_1
_geom_bond_atom_site_label_2
_geom_bond_distance
_geom_bond_site_symmetry_2
_ccdc_geom_bond_type
O0 Zn1 1.953 1_545 S
O0 C16 1.225 1_556 S
Zn1 O0 1.953 1_565 S
Zn1 O2 1.949 1_566 S
Zn1 O8 1.919 . S
Zn1 O13 1.924 1_556 S
O2 Zn1 1.949 1_544 S
O2 Zn3 1.923 1_554 S
O2 Zn4 1.950 . S
O2 Zn5 1.945 . S
Zn3 O2 1.923 1_556 S
Zn3 O6 1.933 . S
Zn3 O9 1.941 . S
Zn3 O10 1.965 . S
Zn4 O2 1.950 . S
Zn4 O11 1.938 1_554 S
Zn4 O12 1.906 . S
Zn4 O22 1.953 . S
Zn5 O2 1.945 . S
Zn5 O7 1.932 . S
Zn5 O14 1.977 . S
Zn5 O15 1.910 1_545 S
O6 Zn3 1.933 . S
O6 C17 1.226 1_556 S
O7 Zn5 1.932 . S
O7 C17 1.307 . S
O8 Zn1 1.919 . S
O8 C19 1.253 . S
O9 Zn3 1.941 . S
O9 C19 1.283 1_545 S
O10 Zn3 1.965 . S
O10 C18 1.303 . S
O11 Zn4 1.938 1_556 S
O11 C18 1.247 . S
O12 Zn4 1.906 . S
O12 C20 1.304 . S
O13 Zn1 1.924 1_554 S
O13 C21 1.311 . S
O14 Zn5 1.977 . S
O14 C20 1.272 . S
O15 Zn5 1.910 1_565 S
O15 C21 1.231 . S
C16 O0 1.225 1_554 S
C16 O22 1.298 . S
C17 O6 1.226 1_554 S
C17 O7 1.307 . S
C18 O10 1.303 . S
C18 O11 1.247 . S
C19 O8 1.253 . S
C19 O9 1.283 1_565 S
C20 O12 1.304 . S
C20 O14 1.272 . S
C21 O13 1.311 . S
C21 O15 1.231 . S
O22 Zn4 1.953 . S
O22 C16 1.298 . S
O23 Zn24 1.953 1_455 S
O23 C39 1.225 . S
Zn24 O23 1.953 1_655 S
Zn24 O25 1.949 1_655 S
Zn24 O31 1.919 . S
Zn24 O36 1.924 . S
O25 Zn24 1.949 1_455 S
O25 Zn26 1.923 . S
O25 Zn27 1.950 . S
O25 Zn28 1.945 . S
Zn26 O25 1.923 . S
Zn26 O29 1.933 . S
Zn26 O32 1.941 . S
Zn26 O33 1.965 . S
Zn27 O25 1.950 . S
Zn27 O34 1.938 . S
Zn27 O35 1.906 . S
Zn27 O45 1.953 . S
Zn28 O25 1.945 . S
Zn28 O30 1.932 . S
Zn28 O37 1.977 . S
Zn28 O38 1.910 1_455 S
O29 Zn26 1.933 . S
O29 C40 1.226 . S
O30 Zn28 1.932 . S
O30 C40 1.307 . S
O31 Zn24 1.919 . S
O31 C42 1.253 . S
O32 Zn26 1.941 . S
O32 C42 1.283 1_455 S
O33 Zn26 1.965 . S
O33 C41 1.303 . S
O34 Zn27 1.938 . S
O34 C41 1.247 . S
O35 Zn27 1.906 . S
O35 C43 1.304 . S
O36 Zn24 1.924 . S
O36 C44 1.311 . S
O37 Zn28 1.977 . S
O37 C43 1.272 . S
O38 Zn28 1.910 1_655 S
O38 C44 1.231 . S
C39 O23 1.225 . S
C39 O45 1.298 . S
C40 O29 1.226 . S
C40 O30 1.307 . S
C41 O33 1.303 . S
C41 O34 1.247 . S
C42 O31 1.253 . S
C42 O32 1.283 1_655 S
C43 O35 1.304 . S
C43 O37 1.272 . S
C44 O36 1.311 . S
C44 O38 1.231 . S
O45 Zn27 1.953 . S
O45 C39 1.298 . S
O46 Zn47 1.953 . S
O46 C62 1.225 1_556 S
Zn47 O46 1.953 . S
Zn47 O48 1.949 1_556 S
Zn47 O54 1.919 . S
Zn47 O59 1.924 1_556 S
O48 Zn47 1.949 1_554 S
O48 Zn49 1.923 1_544 S
O48 Zn50 1.950 1_545 S
O48 Zn51 1.945 . S
Zn49 O48 1.923 1_566 S
Zn49 O52 1.933 . S
Zn49 O55 1.941 1_565 S
Zn49 O56 1.965 . S
Zn50 O48 1.950 1_565 S
Zn50 O57 1.938 1_554 S
Zn50 O58 1.906 . S
Zn50 O68 1.953 . S
Zn51 O48 1.945 . S
Zn51 O53 1.932 . S
Zn51 O60 1.977 1_545 S
Zn51 O61 1.910 . S
O52 Zn49 1.933 . S
O52 C63 1.226 1_556 S
O53 Zn51 1.932 . S
O53 C63 1.307 1_545 S
O54 Zn47 1.919 . S
O54 C65 1.253 . S
O55 Zn49 1.941 1_545 S
O55 C65 1.283 . S
O56 Zn49 1.965 . S
O56 C64 1.303 . S
O57 Zn50 1.938 1_556 S
O57 C64 1.247 . S
O58 Zn50 1.906 . S
O58 C66 1.304 . S
O59 Zn47 1.924 1_554 S
O59 C67 1.311 . S
O60 Zn51 1.977 1_565 S
O60 C66 1.272 . S
O61 Zn51 1.910 . S
O61 C67 1.231 . S
C62 O46 1.225 1_554 S
C62 O68 1.298 1_545 S
C63 O52 1.226 1_554 S
C63 O53 1.307 1_565 S
C64 O56 1.303 . S
C64 O57 1.247 . S
C65 O54 1.253 . S
C65 O55 1.283 . S
C66 O58 1.304 . S
C66 O60 1.272 . S
C67 O59 1.311 . S
C67 O61 1.231 . S
O68 Zn50 1.953 . S
O68 C62 1.298 1_565 S
O69 Zn70 1.953 . S
O69 C85 1.225 . S
Zn70 O69 1.953 . S
Zn70 O71 1.949 . S
Zn70 O77 1.919 . S
Zn70 O82 1.924 . S
O71 Zn70 1.949 . S
O71 Zn72 1.923 1_455 S
O71 Zn73 1.950 1_455 S
O71 Zn74 1.945 . S
Zn72 O71 1.923 1_655 S
Zn72 O75 1.933 . S
Zn72 O78 1.941 1_655 S
Zn72 O79 1.965 . S
Zn73 O71 1.950 1_655 S
Zn73 O80 1.938 . S
Zn73 O81 1.906 . S
Zn73 O91 1.953 . S
Zn74 O71 1.945 . S
Zn74 O76 1.932 . S
Zn74 O83 1.977 1_455 S
Zn74 O84 1.910 . S
O75 Zn72 1.933 . S
O75 C86 1.226 . S
O76 Zn74 1.932 . S
O76 C86 1.307 1_455 S
O77 Zn70 1.919 . S
O77 C88 1.253 . S
O78 Zn72 1.941 1_455 S
O78 C88 1.283 . S
O79 Zn72 1.965 . S
O79 C87 1.303 . S
O80 Zn73 1.938 . S
O80 C87 1.247 . S
O81 Zn73 1.906 . S
O81 C89 1.304 . S
O82 Zn70 1.924 . S
O82 C90 1.311 . S
O83 Zn74 1.977 1_655 S
O83 C89 1.272 . S
O84 Zn74 1.910 . S
O84 C90 1.231 . S
C85 O69 1.225 . S
C85 O91 1.298 1_455 S
C86 O75 1.226 . S
C86 O76 1.307 1_655 S
C87 O79 1.303 . S
C87 O80 1.247 . S
C88 O77 1.253 . S
C88 O78 1.283 . S
C89 O81 1.304 . S
C89 O83 1.272 . S
C90 O82 1.311 . S
C90 O84 1.231 . S
O91 Zn73 1.953 . S
O91 C85 1.298 1_655 S
H92 C98 0.930 . S
H93 C101 0.930 . S
H94 C102 0.930 1_455 S
H95 C103 0.930 . S
H96 C106 0.930 1_565 S
H97 C107 0.930 . S
C98 H92 0.930 . S
C98 C99 1.355 1_565 S
C98 C100 1.415 1_665 S
C99 C98 1.355 1_545 S
C99 C101 1.419 1_554 S
C100 C98 1.415 1_445 S
C100 C105 1.425 1_554 S
C100 C107 1.409 1_545 S
C101 H93 0.930 . S
C101 C99 1.419 1_556 S
C101 C102 1.362 . S
C102 H94 0.930 1_655 S
C102 C101 1.362 . S
C102 C105 1.409 1_655 S
C103 H95 0.930 . S
C103 C104 1.355 1_556 S
C103 C105 1.415 . S
C104 C103 1.355 1_554 S
C104 C106 1.419 . S
C105 C100 1.425 1_556 S
C105 C102 1.409 1_455 S
C105 C103 1.415 . S
C106 H96 0.930 1_545 S
C106 C104 1.419 . S
C106 C107 1.362 1_545 S
C107 H97 0.930 . S
C107 C100 1.409 1_565 S
C107 C106 1.362 1_565 S
H108 C114 0.930 . S
H109 C117 0.930 . S
H110 C118 0.930 . S
H111 C119 0.930 . S
H112 C122 0.930 . S
H113 C123 0.930 . S
C114 H108 0.930 . S
C114 C115 1.355 1_455 S
C114 C116 1.415 1_565 S
C115 C114 1.355 1_655 S
C115 C117 1.419 . S
C116 C114 1.415 1_545 S
C116 C121 1.425 . S
C116 C123 1.409 . S
C117 H109 0.930 . S
C117 C115 1.419 . S
C117 C118 1.362 1_565 S
C118 H110 0.930 . S
C118 C117 1.362 1_545 S
C118 C121 1.409 1_655 S
C119 H111 0.930 . S
C119 C120 1.355 . S
C119 C121 1.415 . S
C120 C119 1.355 . S
C120 C122 1.419 . S
C121 C116 1.425 . S
C121 C118 1.409 1_455 S
C121 C119 1.415 . S
C122 H112 0.930 . S
C122 C120 1.419 . S
C122 C123 1.362 . S
C123 H113 0.930 . S
C123 C116 1.409 . S
C123 C122 1.362 . S
H124 C130 0.930 . S
H125 C133 0.925 1_565 S
H126 C134 0.930 . S
H127 C135 0.930 . S
H128 C138 0.930 . S
H129 C139 0.930 . S
C130 H124 0.930 . S
C130 C131 1.355 1_544 S
C130 C132 1.415 . S
C131 C130 1.355 1_566 S
C131 C133 1.418 1_565 S
C132 C130 1.415 . S
C132 C137 1.425 1_554 S
C132 C139 1.409 . S
C133 H125 0.925 1_545 S
C133 C131 1.418 1_545 S
C133 C134 1.368 . S
C134 H126 0.930 . S
C134 C133 1.368 . S
C134 C137 1.409 . S
C135 H127 0.930 . S
C135 C136 1.355 1_556 S
C135 C137 1.415 . S
C136 C135 1.355 1_554 S
C136 C138 1.419 . S
C137 C132 1.425 1_556 S
C137 C134 1.409 . S
C137 C135 1.415 . S
C138 H128 0.930 . S
C138 C136 1.419 . S
C138 C139 1.362 . S
C139 H129 0.930 . S
C139 C132 1.409 . S
C139 C138 1.362 . S
H140 C146 0.930 . S
H141 C149 0.930 . S
H142 C150 0.930 . S
H143 C151 0.930 . S
H144 C154 0.930 . S
H145 C155 0.930 . S
C146 H140 0.930 . S
C146 C147 1.355 . S
C146 C148 1.415 . S
C147 C146 1.355 . S
C147 C149 1.419 . S
C148 C146 1.415 . S
C148 C153 1.425 . S
C148 C155 1.409 1_455 S
C149 H141 0.930 . S
C149 C147 1.419 . S
C149 C150 1.362 . S
C150 H142 0.930 . S
C150 C149 1.362 . S
C150 C153 1.409 . S
C151 H143 0.930 . S
C151 C152 1.355 1_455 S
C151 C153 1.415 . S
C152 C151 1.355 1_655 S
C152 C154 1.419 . S
C153 C148 1.425 . S
C153 C150 1.409 . S
C153 C151 1.415 . S
C154 H144 0.930 . S
C154 C152 1.419 . S
C154 C155 1.362 . S
C155 H145 0.930 . S
C155 C148 1.409 1_655 S
C155 C154 1.362 . S
H156 C162 0.930 . S
H157 C165 0.930 . S
H158 C166 0.930 . S
H159 C167 0.930 . S
H160 C170 0.930 . S
H161 C171 0.930 . S
C162 H156 0.930 . S
C162 C163 1.355 . S
C162 C164 1.415 . S
C163 C162 1.355 . S
C163 C165 1.419 . S
C164 C162 1.415 . S
C164 C169 1.425 . S
C164 C171 1.409 . S
C165 H157 0.930 . S
C165 C163 1.419 . S
C165 C166 1.362 . S
C166 H158 0.930 . S
C166 C165 1.362 . S
C166 C169 1.409 . S
C167 H159 0.930 . S
C167 C168 1.355 . S
C167 C169 1.415 . S
C168 C167 1.355 . S
C168 C170 1.419 . S
C169 C164 1.425 . S
C169 C166 1.409 . S
C169 C167 1.415 . S
C170 H160 0.930 . S
C170 C168 1.419 . S
C170 C171 1.362 . S
C171 H161 0.930 . S
C171 C164 1.409 . S
C171 C170 1.362 . S
H172 C178 0.930 . S
H173 C181 0.930 . S
H174 C182 0.930 . S
H175 C183 0.930 . S
H176 C186 0.930 . S
H177 C187 0.930 . S
C178 H172 0.930 . S
C178 C179 1.355 . S
C178 C180 1.415 . S
C179 C178 1.355 . S
C179 C181 1.419 . S
C180 C178 1.415 . S
C180 C185 1.425 . S
C180 C187 1.409 . S
C181 H173 0.930 . S
C181 C179 1.419 . S
C181 C182 1.362 . S
C182 H174 0.930 . S
C182 C181 1.362 . S
C182 C185 1.409 . S
C183 H175 0.930 . S
C183 C184 1.355 . S
C183 C185 1.415 . S
C184 C183 1.355 . S
C184 C186 1.419 . S
C185 C180 1.425 . S
C185 C182 1.409 . S
C185 C183 1.415 . S
C186 H176 0.930 . S
C186 C184 1.419 . S
C186 C187 1.362 . S
C187 H177 0.930 . S
C187 C180 1.409 . S
C187 C186 1.362 . S
H188 C194 0.930 . S
H189 C197 0.930 . S
H190 C198 0.930 . S
H191 C199 0.930 . S
H192 C202 0.930 . S
H193 C203 0.930 . S
C194 H188 0.930 . S
C194 C195 1.355 . S
C194 C196 1.415 . S
C195 C194 1.355 . S
C195 C197 1.419 . S
C196 C194 1.415 . S
C196 C201 1.425 . S
C196 C203 1.409 . S
C197 H189 0.930 . S
C197 C195 1.419 . S
C197 C198 1.362 . S
C198 H190 0.930 . S
C198 C197 1.362 . S
C198 C201 1.409 . S
C199 H191 0.930 . S
C199 C200 1.355 . S
C199 C201 1.415 . S
C200 C199 1.355 . S
C200 C202 1.419 . S
C201 C196 1.425 . S
C201 C198 1.409 . S
C201 C199 1.415 . S
C202 H192 0.930 . S
C202 C200 1.419 . S
C202 C203 1.362 . S
C203 H193 0.930 . S
C203 C196 1.409 . S
C203 C202 1.362 . S
H204 C210 0.930 . S
H205 C213 0.930 . S
H206 C214 0.930 . S
H207 C215 0.930 . S
H208 C218 0.930 . S
H209 C219 0.930 . S
C210 H204 0.930 . S
C210 C211 1.355 . S
C210 C212 1.415 . S
C211 C210 1.355 . S
C211 C213 1.419 . S
C212 C210 1.415 . S
C212 C217 1.425 . S
C212 C219 1.409 . S
C213 H205 0.930 . S
C213 C211 1.419 . S
C213 C214 1.362 . S
C214 H206 0.930 . S
C214 C213 1.362 . S
C214 C217 1.409 . S
C215 H207 0.930 . S
C215 C216 1.355 . S
C215 C217 1.415 . S
C216 C215 1.355 . S
C216 C218 1.419 . S
C217 C212 1.425 . S
C217 C214 1.409 . S
C217 C215 1.415 . S
C218 H208 0.930 . S
C218 C216 1.419 . S
C218 C219 1.362 . S
C219 H209 0.930 . S
C219 C212 1.409 . S
C219 C218 1.362 . S
H220 C226 0.930 . S
H221 C229 0.930 . S
H222 C230 0.930 . S
H223 C231 0.930 . S
H224 C234 0.930 . S
H225 C235 0.930 . S
C226 H220 0.930 . S
C226 C227 1.355 . S
C226 C228 1.415 . S
C227 C226 1.355 . S
C227 C229 1.419 . S
C228 C226 1.415 . S
C228 C233 1.425 . S
C228 C235 1.409 . S
C229 H221 0.930 . S
C229 C227 1.419 . S
C229 C230 1.362 . S
C230 H222 0.930 . S
C230 C229 1.362 . S
C230 C233 1.409 . S
C231 H223 0.930 . S
C231 C232 1.355 . S
C231 C233 1.415 . S
C232 C231 1.355 . S
C232 C234 1.419 . S
C233 C228 1.425 . S
C233 C230 1.409 . S
C233 C231 1.415 . S
C234 H224 0.930 . S
C234 C232 1.419 . S
C234 C235 1.362 . S
C235 H225 0.930 . S
C235 C228 1.409 . S
C235 C234 1.362 . S
H236 C242 0.930 . S
H237 C245 0.930 . S
H238 C246 0.930 . S
H239 C247 0.930 . S
H240 C250 0.930 . S
H241 C251 0.930 . S
C242 H236 0.930 . S
C242 C243 1.355 . S
C242 C244 1.415 . S
C243 C242 1.355 . S
C243 C245 1.419 . S
C244 C242 1.415 . S
C244 C249 1.425 . S
C244 C251 1.409 . S
C245 H237 0.930 . S
C245 C243 1.419 . S
C245 C246 1.362 . S
C246 H238 0.930 . S
C246 C245 1.362 . S
C246 C249 1.409 . S
C247 H239 0.930 . S
C247 C248 1.355 . S
C247 C249 1.415 . S
C248 C247 1.355 . S
C248 C250 1.419 . S
C249 C244 1.425 . S
C249 C246 1.409 . S
C249 C247 1.415 . S
C250 H240 0.930 . S
C250 C248 1.419 . S
C250 C251 1.362 . S
C251 H241 0.930 . S
C251 C244 1.409 . S
C251 C250 1.362 . S
H252 C258 0.930 . S
H253 C261 0.930 . S
H254 C262 0.930 . S
H255 C263 0.930 . S
H256 C266 0.930 . S
H257 C267 0.930 . S
C258 H252 0.930 . S
C258 C259 1.355 . S
C258 C260 1.415 . S
C259 C258 1.355 . S
C259 C261 1.419 . S
C260 C258 1.415 . S
C260 C265 1.425 . S
C260 C267 1.409 . S
C261 H253 0.930 . S
C261 C259 1.419 . S
C261 C262 1.362 . S
C262 H254 0.930 . S
C262 C261 1.362 . S
C262 C265 1.409 . S
C263 H255 0.930 . S
C263 C264 1.355 . S
C263 C265 1.415 . S
C264 C263 1.355 . S
C264 C266 1.419 . S
C265 C260 1.425 . S
C265 C262 1.409 . S
C265 C263 1.415 . S
C266 H256 0.930 . S
C266 C264 1.419 . S
C266 C267 1.362 . S
C267 H257 0.930 . S
C267 C260 1.409 . S
C267 C266 1.362 . S
H268 C274 0.930 . S
H269 C277 0.930 . S
H270 C278 0.930 . S
H271 C279 0.930 . S
H272 C282 0.930 . S
H273 C283 0.930 . S
C274 H268 0.930 . S
C274 C275 1.355 . S
C274 C276 1.415 . S
C275 C274 1.355 . S
C275 C277 1.419 . S
C276 C274 1.415 . S
C276 C281 1.425 . S
C276 C283 1.409 . S
C277 H269 0.930 . S
C277 C275 1.419 . S
C277 C278 1.362 . S
C278 H270 0.930 . S
C278 C277 1.362 . S
C278 C281 1.409 . S
C279 H271 0.930 . S
C279 C280 1.355 . S
C279 C281 1.415 . S
C280 C279 1.355 . S
C280 C282 1.419 . S
C281 C276 1.425 . S
C281 C278 1.409 . S
C281 C279 1.415 . S
C282 H272 0.930 . S
C282 C280 1.419 . S
C282 C283 1.362 . S
C283 H273 0.930 . S
C283 C276 1.409 . S
C283 C282 1.362 . S
C99 C62 0.184 . S
C104 C16 0.188 . S
C115 C85 0.391 1_655 S
C120 C39 0.387 . S
C131 C63 0.915 1_556 S
C136 C17 0.917 . S
C147 C40 0.928 . S
C152 C86 0.929 . S
C163 C43 1.586 . S
C168 C20 1.687 . S
C179 C42 1.702 . S
C184 C65 1.636 . S
C195 C89 1.685 . S
C200 C66 1.583 . S
C211 C88 1.700 . S
C216 C19 1.607 . S
C227 C64 1.214 . S
C232 C87 1.207 . S
C243 C21 1.234 . S
C248 C90 1.225 . S
C259 C41 1.207 . S
C264 C18 1.215 . S
C275 C67 1.230 . S
C280 C44 1.237 . S
