# Generated by pormake.
# Topology skc, (5)-cn, num edge types: 1
# Building blocks:
#     Node 0, Type 0, BuildingBlock: BEQFEK_clean_sbu_0, # of connection points: 5
#     Node 1, Type 0, BuildingBlock: BEQFEK_clean_sbu_0, # of connection points: 5
#     Node 2, Type 0, BuildingBlock: BEQFEK_clean_sbu_0, # of connection points: 5
#     Node 3, Type 0, BuildingBlock: BEQFEK_clean_sbu_0, # of connection points: 5
#     Node 4, Type 0, BuildingBlock: BEQFEK_clean_sbu_0, # of connection points: 5
#     Node 5, Type 0, BuildingBlock: BEQFEK_clean_sbu_0, # of connection points: 5
#     Node 6, Type 0, BuildingBlock: BEQFEK_clean_sbu_0, # of connection points: 5
#     Node 7, Type 0, BuildingBlock: BEQFEK_clean_sbu_0, # of connection points: 5
#     Edge 8, Type (0, 0), BuildingBlock: EZIPEK_clean_linker_0, # of connection points: 2
#     Edge 9, Type (0, 0), BuildingBlock: EZIPEK_clean_linker_0, # of connection points: 2
#     Edge 10, Type (0, 0), BuildingBlock: EZIPEK_clean_linker_0, # of connection points: 2
#     Edge 11, Type (0, 0), BuildingBlock: EZIPEK_clean_linker_0, # of connection points: 2
#     Edge 12, Type (0, 0), BuildingBlock: EZIPEK_clean_linker_0, # of connection points: 2
#     Edge 13, Type (0, 0), BuildingBlock: EZIPEK_clean_linker_0, # of connection points: 2
#     Edge 14, Type (0, 0), BuildingBlock: EZIPEK_clean_linker_0, # of connection points: 2
#     Edge 15, Type (0, 0), BuildingBlock: EZIPEK_clean_linker_0, # of connection points: 2
#     Edge 16, Type (0, 0), BuildingBlock: EZIPEK_clean_linker_0, # of connection points: 2
#     Edge 17, Type (0, 0), BuildingBlock: EZIPEK_clean_linker_0, # of connection points: 2
#     Edge 18, Type (0, 0), BuildingBlock: EZIPEK_clean_linker_0, # of connection points: 2
#     Edge 19, Type (0, 0), BuildingBlock: EZIPEK_clean_linker_0, # of connection points: 2
#     Edge 20, Type (0, 0), BuildingBlock: EZIPEK_clean_linker_0, # of connection points: 2
#     Edge 21, Type (0, 0), BuildingBlock: EZIPEK_clean_linker_0, # of connection points: 2
#     Edge 22, Type (0, 0), BuildingBlock: EZIPEK_clean_linker_0, # of connection points: 2
#     Edge 23, Type (0, 0), BuildingBlock: EZIPEK_clean_linker_0, # of connection points: 2
#     Edge 24, Type (0, 0), BuildingBlock: EZIPEK_clean_linker_0, # of connection points: 2
#     Edge 25, Type (0, 0), BuildingBlock: EZIPEK_clean_linker_0, # of connection points: 2
#     Edge 26, Type (0, 0), BuildingBlock: EZIPEK_clean_linker_0, # of connection points: 2
#     Edge 27, Type (0, 0), BuildingBlock: EZIPEK_clean_linker_0, # of connection points: 2
# Relax obj value: 0.149
# Max RMSD: 0.201
# Mean RMSD: 0.201
data_MOF--net-skc--node1-BEQFEK_clean_sbu_0--edge1-EZIPEK_clean_linker_0
_symmetry_space_group_name_H-M    P1
_symmetry_Int_Tables_number       1
_symmetry_cell_setting            triclinic
loop_
_symmetry_equiv_pos_as_xyz
'x, y, z'
_cell_length_a     35.645707
_cell_length_b     16.318661
_cell_length_c     18.961548
_cell_angle_alpha  90.037617
_cell_angle_beta   90.337802
_cell_angle_gamma 90.00456
loop_
_atom_site_label
_atom_site_type_symbol
_atom_site_fract_x
_atom_site_fract_y
_atom_site_fract_z
_atom_type_partial_charge
Co0 Co 0.08532 0.20027 0.18121 0.0
Co1 Co 0.13316 0.28946 0.06899 0.0
C2 C 0.06613 0.17041 0.0376 0.0
O3 O 0.06311 0.14167 0.09999 0.0
O4 O 0.09064 0.22508 0.02281 0.0
C5 C 0.04685 0.11836 0.30073 0.0
O6 O 0.04434 0.05203 0.26193 0.0
C7 C 0.18074 0.28084 0.94401 0.0
C8 C 0.214 0.39458 0.95469 0.0
C9 C 0.20967 0.32496 0.9139 0.0
N10 N 0.16857 0.32232 1.00051 0.0
N11 N 0.18825 0.39063 0.00614 0.0
C12 C 0.16577 0.19941 0.92145 0.0
H13 H 0.13807 0.20884 0.89578 0.0
H14 H 0.16158 0.15998 0.96843 0.0
H15 H 0.1847 0.16874 0.88342 0.0
C16 C 0.16166 0.14812 0.22985 0.0
N17 N 0.13834 0.18723 0.18483 0.0
N18 N 0.15839 0.23332 0.14264 0.0
C19 C 0.19468 0.23028 0.16321 0.0
C20 C 0.198 0.17587 0.21909 0.0
C21 C 0.15024 0.08159 0.27945 0.0
H22 H 0.12004 0.06732 0.27377 0.0
H23 H 0.16678 0.02561 0.26782 0.0
H24 H 0.15703 0.0991 0.33451 0.0
O25 O 0.06885 0.31563 0.1654 0.0
O26 O 0.10989 0.38846 0.10507 0.0
H27 H 0.25126 0.27915 0.16585 0.0
H28 H 0.23025 0.26924 0.07954 0.0
C29 C 0.22478 0.28503 0.13528 0.0
H30 H 0.21513 0.34955 0.13755 0.0
H31 H 0.18494 0.43311 0.04668 0.0
O32 O 0.06266 0.18146 0.27582 0.0
C33 C 0.07938 0.38323 0.13875 0.0
Co34 Co 0.93817 0.79379 0.19458 0.0
Co35 Co 0.89972 0.7075 0.0613 0.0
C36 C 0.94688 0.86286 0.04977 0.0
O37 O 0.95351 0.86753 0.11589 0.0
O38 O 0.92621 0.80581 0.0244 0.0
C39 C 0.9789 0.89019 0.29959 0.0
O40 O 0.98952 0.93427 0.24553 0.0
C41 C 0.84369 0.69074 0.94504 0.0
C42 C 0.84541 0.55774 0.92425 0.0
C43 C 0.82744 0.62922 0.90415 0.0
N44 N 0.86993 0.65705 0.98747 0.0
N45 N 0.87102 0.57754 0.97403 0.0
C46 C 0.83445 0.78011 0.9438 0.0
H47 H 0.84432 0.8068 0.89339 0.0
H48 H 0.84828 0.81237 0.98848 0.0
H49 H 0.80365 0.78924 0.9462 0.0
C50 C 0.85966 0.78705 0.24376 0.0
N51 N 0.88574 0.77266 0.19426 0.0
N52 N 0.86976 0.7345 0.14066 0.0
C53 C 0.83316 0.7227 0.15565 0.0
C54 C 0.82569 0.75649 0.22078 0.0
C55 C 0.86678 0.8311 0.31122 0.0
H56 H 0.89018 0.8009 0.33984 0.0
H57 H 0.87476 0.89492 0.29816 0.0
H58 H 0.84164 0.83231 0.34544 0.0
O59 O 0.96648 0.69197 0.18043 0.0
O60 O 0.93986 0.62928 0.08863 0.0
H61 H 0.81928 0.62543 0.08459 0.0
H62 H 0.78101 0.65817 0.14029 0.0
C63 C 0.80573 0.67897 0.10977 0.0
H64 H 0.79591 0.72228 0.06871 0.0
H65 H 0.88859 0.53626 1.00017 0.0
O66 O 0.95582 0.83189 0.28976 0.0
C67 C 0.96477 0.63277 0.13704 0.0
Co68 Co 0.0635 0.79836 0.69914 0.0
Co69 Co 0.0971 0.69663 0.82493 0.0
C70 C 0.04872 0.85314 0.84028 0.0
O71 O 0.04984 0.87384 0.77558 0.0
O72 O 0.06579 0.78933 0.86285 0.0
C73 C 0.04484 0.90727 0.57832 0.0
O74 O 0.05448 0.97147 0.61601 0.0
C75 C 0.15063 0.69196 0.94329 0.0
C76 C 0.16397 0.56033 0.94908 0.0
C77 C 0.17446 0.63597 0.97585 0.0
N78 N 0.12802 0.65136 0.89811 0.0
N79 N 0.13571 0.57238 0.90289 0.0
C80 C 0.14941 0.78258 0.95396 0.0
H81 H 0.12421 0.79722 0.98553 0.0
H82 H 0.14665 0.81387 0.90222 0.0
H83 H 0.17446 0.80535 0.98287 0.0
C84 C 0.14196 0.78783 0.65065 0.0
N85 N 0.11518 0.77385 0.6989 0.0
N86 N 0.12865 0.72512 0.74804 0.0
C87 C 0.16392 0.70304 0.73029 0.0
C88 C 0.17368 0.74385 0.66901 0.0
C89 C 0.13673 0.83958 0.58653 0.0
H90 H 0.12571 0.90011 0.60293 0.0
H91 H 0.16342 0.84819 0.5576 0.0
H92 H 0.1159 0.81016 0.55098 0.0
O93 O 0.03242 0.69862 0.71475 0.0
O94 O 0.05922 0.61682 0.79425 0.0
H95 H 0.16747 0.57834 0.76371 0.0
H96 H 0.21171 0.62111 0.735 0.0
C97 C 0.18526 0.63414 0.76351 0.0
H98 H 0.19195 0.64925 0.81869 0.0
H99 H 0.12301 0.52716 0.87198 0.0
O100 O 0.04681 0.83589 0.60455 0.0
C101 C 0.03302 0.63243 0.75027 0.0
Co102 Co 0.9268 0.22026 0.67524 0.0
Co103 Co 0.87673 0.24374 0.8076 0.0
C104 C 0.94692 0.16216 0.82601 0.0
O105 O 0.95522 0.18162 0.76269 0.0
O106 O 0.91317 0.16592 0.84707 0.0
C107 C 0.977 0.13323 0.57688 0.0
O108 O 0.98483 0.08226 0.62844 0.0
C109 C 0.82159 0.23165 0.92599 0.0
C110 C 0.80951 0.36351 0.93999 0.0
C111 C 0.8005 0.28661 0.96552 0.0
N112 N 0.84176 0.27473 0.87881 0.0
N113 N 0.83451 0.35335 0.88817 0.0
C114 C 0.82194 0.14023 0.93181 0.0
H115 H 0.83622 0.1124 0.88577 0.0
H116 H 0.79282 0.11675 0.93623 0.0
H117 H 0.83741 0.12184 0.98015 0.0
C118 C 0.8509 0.18662 0.61227 0.0
N119 N 0.87384 0.19736 0.66851 0.0
N120 N 0.85309 0.20203 0.7256 0.0
C121 C 0.81677 0.18942 0.70802 0.0
C122 C 0.81418 0.17927 0.63544 0.0
C123 C 0.86221 0.19866 0.53719 0.0
H124 H 0.89119 0.22249 0.5335 0.0
H125 H 0.85961 0.13985 0.50837 0.0
H126 H 0.84278 0.24261 0.51123 0.0
O127 O 0.9326 0.33709 0.68308 0.0
O128 O 0.90378 0.34942 0.78503 0.0
H129 H 0.78405 0.25341 0.78465 0.0
H130 H 0.75756 0.18012 0.73289 0.0
C131 C 0.7849 0.19238 0.75897 0.0
H132 H 0.7893 0.14538 0.80011 0.0
H133 H 0.84602 0.40023 0.85789 0.0
O134 O 0.95358 0.19078 0.58654 0.0
C135 C 0.92332 0.38041 0.73579 0.0
Co136 Co 0.58341 0.68907 0.6889 0.0
Co137 Co 0.63002 0.77468 0.57171 0.0
C138 C 0.56269 0.656 0.54543 0.0
O139 O 0.55985 0.6299 0.60876 0.0
O140 O 0.58745 0.70908 0.52841 0.0
C141 C 0.53772 0.61775 0.80192 0.0
O142 O 0.52557 0.5669 0.75328 0.0
C143 C 0.67758 0.76237 0.4466 0.0
C144 C 0.70973 0.87782 0.45385 0.0
C145 C 0.70651 0.80597 0.41564 0.0
N146 N 0.66475 0.8061 0.50142 0.0
N147 N 0.6837 0.87556 0.50482 0.0
C148 C 0.66287 0.67992 0.42607 0.0
H149 H 0.63413 0.68735 0.40424 0.0
H150 H 0.66087 0.64049 0.47359 0.0
H151 H 0.68076 0.65022 0.38577 0.0
C152 C 0.66039 0.63875 0.73495 0.0
N153 N 0.63654 0.67627 0.68991 0.0
N154 N 0.65609 0.72057 0.64553 0.0
C155 C 0.69266 0.71781 0.66439 0.0
C156 C 0.69669 0.66566 0.72174 0.0
C157 C 0.64928 0.575 0.78735 0.0
H158 H 0.61899 0.56035 0.78259 0.0
H159 H 0.6659 0.51855 0.77795 0.0
H160 H 0.65622 0.59588 0.84147 0.0
O161 O 0.56678 0.80386 0.67277 0.0
O162 O 0.60625 0.87404 0.60645 0.0
H163 H 0.7129 0.83557 0.63352 0.0
H164 H 0.7493 0.76641 0.66285 0.0
C165 C 0.72246 0.77094 0.63324 0.0
H166 H 0.72726 0.75239 0.5779 0.0
H167 H 0.67987 0.91991 0.54377 0.0
O168 O 0.56213 0.67052 0.78495 0.0
C169 C 0.57667 0.87019 0.64316 0.0
Co170 Co 0.43891 0.2869 0.69046 0.0
Co171 Co 0.39936 0.19736 0.5619 0.0
C172 C 0.45049 0.34921 0.54803 0.0
O173 O 0.45641 0.35835 0.61392 0.0
O174 O 0.42946 0.29149 0.52456 0.0
C175 C 0.47051 0.38531 0.80587 0.0
O176 O 0.47008 0.44738 0.76195 0.0
C177 C 0.34327 0.18623 0.44597 0.0
C178 C 0.34146 0.05281 0.42679 0.0
C179 C 0.32566 0.12623 0.40563 0.0
N180 N 0.36849 0.14997 0.48882 0.0
N181 N 0.3674 0.07019 0.47658 0.0
C182 C 0.33574 0.27634 0.4447 0.0
H183 H 0.34385 0.30131 0.39253 0.0
H184 H 0.35188 0.30805 0.48688 0.0
H185 H 0.30532 0.28801 0.45154 0.0
C186 C 0.35919 0.30454 0.73229 0.0
N187 N 0.38588 0.27695 0.6883 0.0
N188 N 0.36983 0.23159 0.63918 0.0
C189 C 0.33295 0.2249 0.65361 0.0
C190 C 0.32523 0.27124 0.7126 0.0
C191 C 0.36473 0.36688 0.78889 0.0
H192 H 0.39287 0.3951 0.78546 0.0
H193 H 0.34321 0.41568 0.78344 0.0
H194 H 0.36016 0.33758 0.84089 0.0
O195 O 0.46488 0.18168 0.676 0.0
O196 O 0.43594 0.11339 0.59045 0.0
H197 H 0.31926 0.1212 0.58874 0.0
H198 H 0.28208 0.15429 0.64697 0.0
C199 C 0.3054 0.17506 0.61279 0.0
H200 H 0.29336 0.2147 0.57105 0.0
H201 H 0.3837 0.02718 0.50357 0.0
O202 O 0.45785 0.31648 0.78592 0.0
C203 C 0.46172 0.11905 0.63677 0.0
Co204 Co 0.56152 0.27303 0.18989 0.0
Co205 Co 0.6013 0.18096 0.31354 0.0
C206 C 0.54966 0.32804 0.33301 0.0
O207 O 0.54857 0.34717 0.26806 0.0
O208 O 0.56864 0.26686 0.35468 0.0
C209 C 0.54356 0.39055 0.07683 0.0
O210 O 0.55923 0.44936 0.11401 0.0
C211 C 0.66132 0.1846 0.41928 0.0
C212 C 0.65927 0.06 0.46414 0.0
C213 C 0.67874 0.13343 0.46771 0.0
N214 N 0.63323 0.14298 0.38783 0.0
N215 N 0.63185 0.06879 0.41555 0.0
C216 C 0.67221 0.27061 0.40109 0.0
H217 H 0.65628 0.29289 0.35454 0.0
H218 H 0.70282 0.27388 0.39103 0.0
H219 H 0.66613 0.31164 0.4462 0.0
C220 C 0.63667 0.26528 0.1302 0.0
N221 N 0.61317 0.25369 0.18404 0.0
N222 N 0.63107 0.21818 0.2361 0.0
C223 C 0.6674 0.20834 0.21764 0.0
C224 C 0.67335 0.24729 0.15219 0.0
C225 C 0.62245 0.26595 0.05548 0.0
H226 H 0.59648 0.22873 0.05134 0.0
H227 H 0.61524 0.32905 0.03988 0.0
H228 H 0.64324 0.24023 0.01824 0.0
O229 O 0.5336 0.17068 0.20464 0.0
O230 O 0.56435 0.09549 0.28422 0.0
H231 H 0.71103 0.11608 0.21107 0.0
H232 H 0.70693 0.16586 0.29607 0.0
C233 C 0.69115 0.14202 0.24998 0.0
H234 H 0.67296 0.09175 0.2694 0.0
H235 H 0.61265 0.0237 0.40042 0.0
O236 O 0.54205 0.31798 0.1007 0.0
C237 C 0.5371 0.10576 0.24106 0.0
Co238 Co 0.41999 0.69333 0.18543 0.0
Co239 Co 0.37207 0.74629 0.31669 0.0
C240 C 0.4421 0.65287 0.33629 0.0
O241 O 0.45005 0.65866 0.27084 0.0
O242 O 0.40925 0.66954 0.35825 0.0
C243 C 0.46915 0.61075 0.08108 0.0
O244 O 0.48203 0.56533 0.13298 0.0
C245 C 0.32131 0.72966 0.43857 0.0
C246 C 0.29452 0.85172 0.44099 0.0
C247 C 0.29402 0.77535 0.47282 0.0
N248 N 0.33656 0.7764 0.38773 0.0
N249 N 0.32072 0.84957 0.39015 0.0
C250 C 0.33238 0.6428 0.45265 0.0
H251 H 0.36165 0.64156 0.47287 0.0
H252 H 0.33175 0.60763 0.40252 0.0
H253 H 0.31368 0.61364 0.49193 0.0
C254 C 0.34344 0.64511 0.13502 0.0
N255 N 0.36704 0.67063 0.18649 0.0
N256 N 0.34693 0.70019 0.23858 0.0
C257 C 0.31026 0.69711 0.22083 0.0
C258 C 0.30672 0.66129 0.15497 0.0
C259 C 0.35586 0.61083 0.06615 0.0
H260 H 0.37207 0.55425 0.07697 0.0
H261 H 0.33174 0.59564 0.03127 0.0
H262 H 0.37439 0.65553 0.03938 0.0
O263 O 0.42778 0.81221 0.18916 0.0
O264 O 0.39975 0.84683 0.28817 0.0
H265 H 0.28688 0.80511 0.26652 0.0
H266 H 0.25216 0.7337 0.23393 0.0
C267 C 0.2798 0.73928 0.26067 0.0
H268 H 0.27792 0.71209 0.31368 0.0
H269 H 0.32704 0.89731 0.35562 0.0
O270 O 0.4431 0.66213 0.09277 0.0
C271 C 0.42005 0.86581 0.23566 0.0
C272 C 0.04342 0.49466 0.0763 0.0
C273 C 0.05296 0.45323 0.13993 0.0
C274 C 0.00215 0.52505 0.20071 0.0
C275 C 0.99509 0.57121 0.13872 0.0
N276 N 0.01768 0.61818 0.02587 0.0
N277 N 0.04724 0.44407 0.26651 0.0
C278 C 0.01837 0.56171 0.07903 0.0
C279 C 0.03407 0.47302 0.20344 0.0
N280 N 0.05593 0.4673 0.01242 0.0
N281 N 0.97778 0.52871 0.256 0.0
H282 H 0.07148 0.40853 0.27072 0.0
H283 H 0.03652 0.46249 0.315 0.0
H284 H 0.95377 0.56525 0.25546 0.0
H285 H 0.97956 0.48998 0.29955 0.0
H286 H 0.04653 0.49183 0.96471 0.0
H287 H 0.07204 0.41465 0.00596 0.0
H288 H 0.03735 0.61833 0.98536 0.0
H289 H 1.0003 0.66962 0.02629 0.0
C290 C 0.95356 0.50043 0.67883 0.0
C291 C 0.94034 0.46408 0.74191 0.0
C292 C 0.9794 0.561 0.80875 0.0
C293 C 0.99994 0.57779 0.74652 0.0
N294 N 0.00659 0.56196 0.62047 0.0
N295 N 0.93704 0.47117 0.87001 0.0
C296 C 0.98671 0.5482 0.68071 0.0
C297 C 0.95171 0.49829 0.80792 0.0
N298 N 0.93405 0.48953 0.61737 0.0
N299 N 0.98464 0.60837 0.86747 0.0
H300 H 0.91192 0.43936 0.8737 0.0
H301 H 0.94966 0.48279 0.91875 0.0
H302 H 0.00352 0.6572 0.86928 0.0
H303 H 0.96724 0.60536 0.91137 0.0
H304 H 0.94083 0.51952 0.57063 0.0
H305 H 0.90849 0.45821 0.61593 0.0
H306 H 0.99978 0.53462 0.57238 0.0
H307 H 0.03177 0.59447 0.61975 0.0
C308 C 0.53313 0.96548 0.70651 0.0
C309 C 0.54974 0.93912 0.64253 0.0
C310 C 0.51242 0.03964 0.57748 0.0
C311 C 0.49171 0.05668 0.63934 0.0
N312 N 0.47899 0.02771 0.7617 0.0
N313 N 0.54735 0.93735 0.51447 0.0
C314 C 0.50118 0.01755 0.70382 0.0
C315 C 0.53741 0.97248 0.57715 0.0
N316 N 0.54843 0.94248 0.76972 0.0
N317 N 0.50954 0.08933 0.51972 0.0
H318 H 0.56351 0.88439 0.51062 0.0
H319 H 0.53581 0.95559 0.4663 0.0
H320 H 0.49253 0.14131 0.51807 0.0
H321 H 0.52745 0.084 0.47666 0.0
H322 H 0.53958 0.96596 0.81793 0.0
H323 H 0.57248 0.90627 0.77349 0.0
H324 H 0.48247 -0.00582 0.80801 0.0
H325 H 0.45493 0.06411 0.76127 0.0
C326 C 0.46118 0.9647 0.17133 0.0
C327 C 0.44121 0.94557 0.23371 0.0
C328 C 0.47995 0.04643 0.2976 0.0
C329 C 0.5052 0.04789 0.2399 0.0
N330 N 0.52021 0.00761 0.12103 0.0
N331 N 0.42643 0.98438 0.35387 0.0
C332 C 0.49577 0.00723 0.17628 0.0
C333 C 0.44884 -0.00836 0.29614 0.0
N334 N 0.44609 0.94511 0.10714 0.0
N335 N 0.48422 0.10135 0.35163 0.0
H336 H 0.39873 0.96459 0.35064 0.0
H337 H 0.43488 0.00182 0.40439 0.0
H338 H 0.50644 0.14279 0.35479 0.0
H339 H 0.46412 0.11085 0.39043 0.0
H340 H 0.45795 0.96297 0.05946 0.0
H341 H 0.41919 0.92032 0.10223 0.0
H342 H 0.5163 0.97208 0.0759 0.0
H343 H 0.546 0.03785 0.12295 0.0
C344 C 0.25796 0.15956 0.38444 0.0
C345 C 0.29308 0.1355 0.35694 0.0
C346 C 0.26458 0.1265 0.239 0.0
C347 C 0.23125 0.16258 0.26572 0.0
N348 N 0.20075 0.23365 0.36163 0.0
N349 N 0.33135 0.10333 0.25619 0.0
C350 C 0.22927 0.18526 0.33778 0.0
C351 C 0.29688 0.12084 0.28353 0.0
N352 N 0.25114 0.15315 0.45489 0.0
N353 N 0.26504 0.09565 0.17201 0.0
H354 H 0.35544 0.09805 0.28736 0.0
H355 H 0.33655 0.10025 0.20226 0.0
H356 H 0.24186 0.09832 0.13827 0.0
H357 H 0.28726 0.06147 0.15205 0.0
H358 H 0.22489 0.16429 0.47689 0.0
H359 H 0.27025 0.12562 0.48917 0.0
H360 H 0.20018 0.25716 0.41277 0.0
H361 H 0.17991 0.25733 0.32863 0.0
C362 C 0.75797 0.71642 0.36787 0.0
C363 C 0.73197 0.78152 0.35788 0.0
C364 C 0.76428 0.82283 0.24985 0.0
C365 C 0.78996 0.75762 0.26004 0.0
N366 N 0.80569 0.62983 0.31595 0.0
N367 N 0.70471 0.88412 0.28187 0.0
C368 C 0.78474 0.69997 0.3147 0.0
C369 C 0.73329 0.83064 0.29619 0.0
N370 N 0.75901 0.6741 0.43004 0.0
N371 N 0.77044 0.8791 0.19781 0.0
H372 H 0.68139 0.89027 0.31445 0.0
H373 H 0.70235 0.91682 0.23494 0.0
H374 H 0.79205 0.87326 0.16127 0.0
H375 H 0.7555 0.93364 0.19306 0.0
H376 H 0.78031 0.63319 0.44338 0.0
H377 H 0.74028 0.68415 0.471 0.0
H378 H 0.80065 0.58153 0.35051 0.0
H379 H 0.82577 0.61656 0.27777 0.0
C380 C 0.27033 0.7924 0.59584 0.0
C381 C 0.26789 0.75103 0.53013 0.0
C382 C 0.20954 0.68481 0.56816 0.0
C383 C 0.20874 0.73721 0.62757 0.0
N384 N 0.23784 0.84059 0.70017 0.0
N385 N 0.23463 0.65855 0.45221 0.0
C386 C 0.23928 0.79015 0.64265 0.0
C387 C 0.23771 0.69614 0.51633 0.0
N388 N 0.30262 0.83286 0.61358 0.0
N389 N 0.18331 0.62411 0.56156 0.0
H390 H 0.25521 0.66227 0.41386 0.0
H391 H 0.21078 0.62709 0.43545 0.0
H392 H 0.16216 0.61494 0.59854 0.0
H393 H 0.1845 0.57836 0.52334 0.0
H394 H 0.30763 0.85845 0.66304 0.0
H395 H 0.32599 0.83419 0.58068 0.0
H396 H 0.25689 0.88772 0.70961 0.0
H397 H 0.21626 0.83795 0.73705 0.0
C398 C 0.75062 0.22909 0.59324 0.0
C399 C 0.77973 0.1697 0.59092 0.0
C400 C 0.74555 0.09772 0.49719 0.0
C401 C 0.71385 0.14846 0.50857 0.0
N402 N 0.68406 0.2531 0.57882 0.0
N403 N 0.8008 0.03724 0.54981 0.0
C404 C 0.71573 0.21179 0.55975 0.0
C405 C 0.77609 0.10103 0.54541 0.0
N406 N 0.75654 0.30297 0.62531 0.0
N407 N 0.74735 0.04891 0.43877 0.0
H408 H 0.82286 0.03562 0.58617 0.0
H409 H 0.79705 0.98258 0.52215 0.0
H410 H 0.72636 0.04776 0.40021 0.0
H411 H 0.77142 0.01645 0.42504 0.0
H412 H 0.73719 0.35079 0.62297 0.0
H413 H 0.78226 0.31932 0.64773 0.0
H414 H 0.68351 0.29464 0.62059 0.0
H415 H 0.65769 0.23983 0.5576 0.0
C416 C 0.79687 0.61661 0.78347 0.0
C417 C 0.79405 0.63468 0.85654 0.0
C418 C 0.72946 0.68065 0.83878 0.0
C419 C 0.73056 0.65474 0.76746 0.0
N420 N 0.76358 0.58417 0.67477 0.0
N421 N 0.7529 0.65316 0.95557 0.0
C422 C 0.76382 0.61853 0.74048 0.0
C423 C 0.75896 0.65791 0.88481 0.0
N424 N 0.83108 0.5996 0.75481 0.0
N425 N 0.70104 0.72936 0.86249 0.0
H426 H 0.77252 0.62677 0.98944 0.0
H427 H 0.72679 0.66398 0.97828 0.0
H428 H 0.67965 0.75118 0.82979 0.0
H429 H 0.70109 0.75498 0.91289 0.0
H430 H 0.83543 0.59397 0.70076 0.0
H431 H 0.85572 0.59746 0.78469 0.0
H432 H 0.78579 0.5498 0.65503 0.0
H433 H 0.73986 0.58408 0.64228 0.0
C434 C 0.23443 0.34751 0.79256 0.0
C435 C 0.23467 0.30081 0.85567 0.0
C436 C 0.28699 0.21883 0.81173 0.0
C437 C 0.2905 0.27379 0.75448 0.0
N438 N 0.26872 0.39066 0.68866 0.0
N439 N 0.26337 0.19695 0.92928 0.0
C440 C 0.26424 0.33774 0.74383 0.0
C441 C 0.26116 0.23686 0.86599 0.0
N442 N 0.20548 0.40038 0.77922 0.0
N443 N 0.30857 0.1496 0.81433 0.0
H444 H 0.24504 0.20766 0.97075 0.0
H445 H 0.28517 0.15741 0.94284 0.0
H446 H 0.32828 0.1351 0.77585 0.0
H447 H 0.30451 0.10282 0.85082 0.0
H448 H 0.20187 0.43112 0.73159 0.0
H449 H 0.18315 0.40837 0.8139 0.0
H450 H 0.25331 0.44438 0.68248 0.0
H451 H 0.28934 0.38263 0.65043 0.0
C452 C 0.70705 0.31663 0.05082 0.0
C453 C 0.70909 0.26745 0.11203 0.0
C454 C 0.77557 0.24258 0.08472 0.0
C455 C 0.76904 0.27165 0.01494 0.0
N456 N 0.7251 0.32762 0.92969 0.0
N457 N 0.7539 0.24798 0.20534 0.0
C458 C 0.73366 0.30558 0.99734 0.0
C459 C 0.74582 0.24619 0.13506 0.0
N460 N 0.68384 0.38296 0.04857 0.0
N461 N 0.81026 0.21476 0.1038 0.0
H462 H 0.73494 0.27284 0.24115 0.0
H463 H 0.78064 0.23887 0.2263 0.0
H464 H 0.83347 0.21895 0.07082 0.0
H465 H 0.81542 0.18412 0.15106 0.0
H466 H 0.68381 0.42448 0.00672 0.0
H467 H 0.6686 0.40164 0.09261 0.0
H468 H 0.69847 0.3487 0.9154 0.0
H469 H 0.74305 0.31666 0.88745 0.0
C470 C 0.23823 0.69817 0.00336 0.0
C471 C 0.20685 0.65033 0.02464 0.0
C472 C 0.24205 0.60558 0.12951 0.0
C473 C 0.27212 0.65793 0.11055 0.0
N474 N 0.29405 0.77119 0.04018 0.0
N475 N 0.17573 0.57571 0.11717 0.0
C476 C 0.26877 0.70944 0.05073 0.0
C477 C 0.20784 0.60908 0.09056 0.0
N478 N 0.23998 0.7301 0.93694 0.0
N479 N 0.24645 0.55096 0.18351 0.0
H480 H 0.14992 0.57926 0.09108 0.0
H481 H 0.17392 0.55157 0.16788 0.0
H482 H 0.27105 0.54681 0.21338 0.0
H483 H 0.22696 0.50528 0.19472 0.0
H484 H 0.26426 0.75609 0.91628 0.0
H485 H 0.2183 0.72546 0.90045 0.0
H486 H 0.29058 0.81591 1.00148 0.0
H487 H 0.31638 0.78297 0.07448 0.0
C488 C 0.05198 0.13733 0.43311 0.0
C489 C 0.02951 0.12192 0.37198 0.0
C490 C 0.97365 0.11175 0.44588 0.0
C491 C 0.99567 0.1255 0.50725 0.0
N492 N 0.05611 0.14896 0.56112 0.0
N493 N 0.96689 0.10393 0.32202 0.0
C494 C 0.03504 0.13739 0.50137 0.0
C495 C 0.99017 0.11204 0.37889 0.0
N496 N 0.08929 0.15434 0.42556 0.0
N497 N 0.93632 0.09498 0.44934 0.0
H498 H 0.9757 0.10613 0.26967 0.0
H499 H 0.9757 0.10613 0.26967 0.0
H500 H 0.92195 0.08589 0.49642 0.0
H501 H 0.92195 0.08589 0.49642 0.0
H502 H 0.10712 0.17267 0.46614 0.0
H503 H 0.1026 0.15443 0.37704 0.0
H504 H 0.08526 0.14887 0.56265 0.0
H505 H 0.04448 0.15564 0.61108 0.0
C506 C 0.98854 0.90947 0.49908 0.0
C507 C 0.02786 0.91655 0.50752 0.0
C508 C 0.03558 0.90646 0.37948 0.0
C509 C 0.99589 0.90373 0.37074 0.0
N510 N 0.93492 0.91856 0.42617 0.0
N511 N 0.08758 0.94645 0.45486 0.0
C512 C 0.97268 0.90939 0.4312 0.0
C513 C 0.05104 0.92294 0.44739 0.0
N514 N 0.96485 0.9065 0.55515 0.0
N515 N 0.05867 0.8877 0.3245 0.0
H516 H 0.09901 0.96276 0.50357 0.0
H517 H 0.10487 0.95954 0.41219 0.0
H518 H 0.04881 0.87062 0.2748 0.0
H519 H 0.0876 0.88102 0.3302 0.0
H520 H 0.97368 0.9084 0.60772 0.0
H521 H 0.97368 0.9084 0.60772 0.0
H522 H 0.92104 0.92969 0.37869 0.0
H523 H 0.92104 0.92969 0.37869 0.0
C524 C 0.03443 0.9158 0.95807 0.0
C525 C 0.02208 0.8944 0.88907 0.0
C526 C 0.95702 0.91362 0.928 0.0
C527 C 0.96967 0.91125 0.99847 0.0
N528 N 0.01935 0.95219 0.07759 0.0
N529 N 0.96963 0.87802 0.80703 0.0
C530 C 0.00799 0.92664 0.0125 0.0
C531 C 0.98283 0.89777 0.87273 0.0
N532 N 0.07147 0.92503 0.9737 0.0
N533 N 0.91998 0.92883 0.91504 0.0
H534 H 0.98647 0.866 0.76377 0.0
H535 H 0.94129 0.86899 0.79587 0.0
H536 H 0.90133 0.94014 0.95626 0.0
H537 H 0.90892 0.93869 0.8648 0.0
H538 H 0.09269 0.92127 0.93613 0.0
H539 H 0.09269 0.92127 0.93613 0.0
H540 H 0.04755 0.96147 0.09052 0.0
H541 H 1.00018 0.97166 0.11532 0.0
C542 C 0.99956 0.19421 1.00006 0.0
C543 C 0.03491 0.15756 0.98606 0.0
C544 C 0.01155 0.11564 0.86875 0.0
C545 C 0.9773 0.15772 0.88094 0.0
N546 N 0.94714 0.26532 0.94864 0.0
N547 N 0.07508 0.08843 0.90205 0.0
C548 C 0.97329 0.20405 0.94429 0.0
C549 C 0.04118 0.12079 0.91912 0.0
N550 N 0.99117 0.22329 0.06578 0.0
N551 N 0.01641 0.07099 0.80862 0.0
H552 H 0.0981 0.08729 0.93629 0.0
H553 H 0.0981 0.08729 0.93629 0.0
H554 H 0.99481 0.05996 0.77258 0.0
H555 H 0.04167 0.04178 0.79692 0.0
H556 H 0.96406 0.24041 0.07997 0.0
H557 H 0.01002 0.22507 0.10781 0.0
H558 H 0.94581 0.3062 0.99081 0.0
H559 H 0.93052 0.2842 0.9064 0.0
C560 C 0.52595 0.62911 0.00341 0.0
C561 C 0.48739 0.6095 0.0105 0.0
C562 C 0.48117 0.60862 0.88133 0.0
C563 C 0.52066 0.61821 0.87414 0.0
N564 N 0.58081 0.63697 0.93534 0.0
N565 N 0.43087 0.55991 0.95507 0.0
C566 C 0.54289 0.62823 0.93651 0.0
C567 C 0.46568 0.59371 0.94906 0.0
N568 N 0.54802 0.64939 0.05969 0.0
N569 N 0.45796 0.61898 0.82441 0.0
H570 H 0.42042 0.54109 0.00352 0.0
H571 H 0.41506 0.54011 0.9119 0.0
H572 H 0.46754 0.63699 0.77496 0.0
H573 H 0.42881 0.61979 0.82843 0.0
H574 H 0.53851 0.6545 0.11142 0.0
H575 H 0.53851 0.6545 0.11142 0.0
H576 H 0.59702 0.6347 0.89 0.0
H577 H 0.59702 0.6347 0.89 0.0
C578 C 0.46771 0.37937 0.93892 0.0
C579 C 0.48872 0.39281 0.87628 0.0
C580 C 0.54474 0.42167 0.94745 0.0
C581 C 0.52401 0.40745 0.00965 0.0
N582 N 0.46446 0.39077 0.06652 0.0
N583 N 0.55004 0.41564 0.82343 0.0
C584 C 0.48503 0.3917 0.00581 0.0
C585 C 0.52758 0.41157 0.88119 0.0
N586 N 0.43176 0.35102 0.93477 0.0
N587 N 0.58149 0.44423 0.94912 0.0
H588 H 0.54093 0.40417 0.77195 0.0
H589 H 0.54093 0.40417 0.77195 0.0
H590 H 0.59625 0.45747 0.99541 0.0
H591 H 0.59625 0.45747 0.99541 0.0
H592 H 0.41626 0.33144 0.9779 0.0
H593 H 0.41834 0.33993 0.88721 0.0
H594 H 0.43529 0.38919 0.06768 0.0
H595 H 0.4765 0.39971 0.11625 0.0
C596 C 0.48479 0.37429 0.37 0.0
C597 C 0.52422 0.36871 0.38405 0.0
C598 C 0.51276 0.40374 0.50803 0.0
C599 C 0.47389 0.39377 0.49563 0.0
N600 N 0.42369 0.41575 0.41412 0.0
N601 N 0.57556 0.39467 0.46628 0.0
C602 C 0.4604 0.39608 0.42582 0.0
C603 C 0.53812 0.38954 0.45231 0.0
N604 N 0.46986 0.35067 0.30654 0.0
N605 N 0.5258 0.4268 0.57283 0.0
H606 H 0.59635 0.38835 0.42811 0.0
H607 H 0.59635 0.38835 0.42811 0.0
H608 H 0.508 0.44746 0.61249 0.0
H609 H 0.55439 0.43226 0.58421 0.0
H610 H 0.44112 0.34472 0.29775 0.0
H611 H 0.48539 0.33034 0.26383 0.0
H612 H 0.41239 0.42565 0.36405 0.0
H613 H 0.40592 0.43071 0.45586 0.0
C614 C 0.49682 0.68593 0.50784 0.0
C615 C 0.53089 0.64352 0.49516 0.0
C616 C 0.50601 0.59965 0.37945 0.0
C617 C 0.47306 0.64724 0.39033 0.0
N618 N 0.4484 0.76563 0.45253 0.0
N619 N 0.5691 0.56698 0.41274 0.0
C620 C 0.47121 0.69813 0.45145 0.0
C621 C 0.536 0.60344 0.4293 0.0
N622 N 0.48924 0.71872 0.5726 0.0
N623 N 0.50953 0.5516 0.32093 0.0
H624 H 0.59232 0.56528 0.4465 0.0
H625 H 0.59232 0.56528 0.4465 0.0
H626 H 0.48743 0.53992 0.28618 0.0
H627 H 0.53418 0.51986 0.30954 0.0
H628 H 0.46288 0.74193 0.58541 0.0
H629 H 0.50768 0.71721 0.61527 0.0
H630 H 0.4488 0.80851 0.49332 0.0
H631 H 0.43375 0.7869 0.40854 0.0
loop_
_geom_bond_atom_site_label_1
_geom_bond_atom_site_label_2
_geom_bond_distance
_geom_bond_site_symmetry_2
_ccdc_geom_bond_type
Co0 O3 1.970 . S
Co0 N17 1.989 . S
Co0 O25 1.967 . S
Co0 O32 1.920 . S
Co1 O4 1.966 . S
Co1 N10 2.022 1_554 S
Co1 N18 1.993 . S
Co1 O26 1.941 . S
C2 O3 1.258 . S
C2 O4 1.263 . S
O3 Co0 1.970 . S
O3 C2 1.258 . S
O4 Co1 1.966 . S
O4 C2 1.263 . S
C5 O6 1.235 . S
C5 O32 1.289 . S
O6 C5 1.235 . S
C7 C9 1.400 . S
C7 N10 1.351 . S
C7 C12 1.501 . S
C8 C9 1.387 . S
C8 N11 1.341 . S
C9 C7 1.400 . S
C9 C8 1.387 . S
N10 Co1 2.022 1_556 S
N10 C7 1.351 . S
N10 N11 1.365 . S
N11 C8 1.341 . S
N11 N10 1.365 . S
N11 H31 0.862 1_556 S
C12 C7 1.501 . S
C12 H13 0.961 . S
C12 H14 0.961 . S
C12 H15 0.960 . S
H13 C12 0.961 . S
H14 C12 0.961 . S
H15 C12 0.960 . S
C16 N17 1.342 . S
C16 C20 1.401 . S
C16 C21 1.499 . S
N17 Co0 1.989 . S
N17 C16 1.342 . S
N17 N18 1.388 . S
N18 Co1 1.993 . S
N18 N17 1.388 . S
N18 C19 1.346 . S
C19 N18 1.346 . S
C19 C20 1.396 . S
C19 C29 1.510 . S
C20 C16 1.401 . S
C20 C19 1.396 . S
C21 C16 1.499 . S
C21 H22 0.959 . S
C21 H23 0.960 . S
C21 H24 0.961 . S
H22 C21 0.959 . S
H23 C21 0.960 . S
H24 C21 0.961 . S
O25 Co0 1.967 . S
O25 C33 1.258 . S
O26 Co1 1.941 . S
O26 C33 1.266 . S
H27 C29 0.959 . S
H28 C29 0.961 . S
C29 C19 1.510 . S
C29 H27 0.959 . S
C29 H28 0.961 . S
C29 H30 0.960 . S
H30 C29 0.960 . S
H31 N11 0.862 1_554 S
O32 Co0 1.920 . S
O32 C5 1.289 . S
C33 O25 1.258 . S
C33 O26 1.266 . S
Co34 O37 1.970 . S
Co34 N51 1.989 . S
Co34 O59 1.967 . S
Co34 O66 1.920 . S
Co35 O38 1.966 . S
Co35 N44 2.022 1_554 S
Co35 N52 1.993 . S
Co35 O60 1.941 . S
C36 O37 1.258 . S
C36 O38 1.263 . S
O37 Co34 1.970 . S
O37 C36 1.258 . S
O38 Co35 1.966 . S
O38 C36 1.263 . S
C39 O40 1.235 . S
C39 O66 1.289 . S
O40 C39 1.235 . S
C41 C43 1.400 . S
C41 N44 1.351 . S
C41 C46 1.501 . S
C42 C43 1.387 . S
C42 N45 1.341 . S
C43 C41 1.400 . S
C43 C42 1.387 . S
N44 Co35 2.022 1_556 S
N44 C41 1.351 . S
N44 N45 1.365 . S
N45 C42 1.341 . S
N45 N44 1.365 . S
N45 H65 0.862 1_556 S
C46 C41 1.501 . S
C46 H47 0.961 . S
C46 H48 0.961 . S
C46 H49 0.960 . S
H47 C46 0.961 . S
H48 C46 0.961 . S
H49 C46 0.960 . S
C50 N51 1.342 . S
C50 C54 1.401 . S
C50 C55 1.499 . S
N51 Co34 1.989 . S
N51 C50 1.342 . S
N51 N52 1.388 . S
N52 Co35 1.993 . S
N52 N51 1.388 . S
N52 C53 1.346 . S
C53 N52 1.346 . S
C53 C54 1.396 . S
C53 C63 1.510 . S
C54 C50 1.401 . S
C54 C53 1.396 . S
C55 C50 1.499 . S
C55 H56 0.959 . S
C55 H57 0.960 . S
C55 H58 0.961 . S
H56 C55 0.959 . S
H57 C55 0.960 . S
H58 C55 0.961 . S
O59 Co34 1.967 . S
O59 C67 1.258 . S
O60 Co35 1.941 . S
O60 C67 1.266 . S
H61 C63 0.959 . S
H62 C63 0.961 . S
C63 C53 1.510 . S
C63 H61 0.959 . S
C63 H62 0.961 . S
C63 H64 0.960 . S
H64 C63 0.960 . S
H65 N45 0.862 1_554 S
O66 Co34 1.920 . S
O66 C39 1.289 . S
C67 O59 1.258 . S
C67 O60 1.266 . S
Co68 O71 1.970 . S
Co68 N85 1.989 . S
Co68 O93 1.967 . S
Co68 O100 1.920 . S
Co69 O72 1.966 . S
Co69 N78 2.022 . S
Co69 N86 1.993 . S
Co69 O94 1.941 . S
C70 O71 1.258 . S
C70 O72 1.263 . S
O71 Co68 1.970 . S
O71 C70 1.258 . S
O72 Co69 1.966 . S
O72 C70 1.263 . S
C73 O74 1.235 . S
C73 O100 1.289 . S
O74 C73 1.235 . S
C75 C77 1.400 . S
C75 N78 1.351 . S
C75 C80 1.501 . S
C76 C77 1.387 . S
C76 N79 1.341 . S
C77 C75 1.400 . S
C77 C76 1.387 . S
N78 Co69 2.022 . S
N78 C75 1.351 . S
N78 N79 1.365 . S
N79 C76 1.341 . S
N79 N78 1.365 . S
N79 H99 0.862 . S
C80 C75 1.501 . S
C80 H81 0.961 . S
C80 H82 0.961 . S
C80 H83 0.960 1_556 S
H81 C80 0.961 . S
H82 C80 0.961 . S
H83 C80 0.960 1_554 S
C84 N85 1.342 . S
C84 C88 1.401 . S
C84 C89 1.499 . S
N85 Co68 1.989 . S
N85 C84 1.342 . S
N85 N86 1.388 . S
N86 Co69 1.993 . S
N86 N85 1.388 . S
N86 C87 1.346 . S
C87 N86 1.346 . S
C87 C88 1.396 . S
C87 C97 1.510 . S
C88 C84 1.401 . S
C88 C87 1.396 . S
C89 C84 1.499 . S
C89 H90 0.959 . S
C89 H91 0.960 . S
C89 H92 0.961 . S
H90 C89 0.959 . S
H91 C89 0.960 . S
H92 C89 0.961 . S
O93 Co68 1.967 . S
O93 C101 1.258 . S
O94 Co69 1.941 . S
O94 C101 1.266 . S
H95 C97 0.959 . S
H96 C97 0.961 . S
C97 C87 1.510 . S
C97 H95 0.959 . S
C97 H96 0.961 . S
C97 H98 0.960 . S
H98 C97 0.960 . S
H99 N79 0.862 . S
O100 Co68 1.920 . S
O100 C73 1.289 . S
C101 O93 1.258 . S
C101 O94 1.266 . S
Co102 O105 1.970 . S
Co102 N119 1.989 . S
Co102 O127 1.967 . S
Co102 O134 1.920 . S
Co103 O106 1.966 . S
Co103 N112 2.022 . S
Co103 N120 1.993 . S
Co103 O128 1.941 . S
C104 O105 1.258 . S
C104 O106 1.263 . S
O105 Co102 1.970 . S
O105 C104 1.258 . S
O106 Co103 1.966 . S
O106 C104 1.263 . S
C107 O108 1.235 . S
C107 O134 1.289 . S
O108 C107 1.235 . S
C109 C111 1.400 . S
C109 N112 1.351 . S
C109 C114 1.501 . S
C110 C111 1.387 . S
C110 N113 1.341 . S
C111 C109 1.400 . S
C111 C110 1.387 . S
N112 Co103 2.022 . S
N112 C109 1.351 . S
N112 N113 1.365 . S
N113 C110 1.341 . S
N113 N112 1.365 . S
N113 H133 0.862 . S
C114 C109 1.501 . S
C114 H115 0.961 . S
C114 H116 0.961 . S
C114 H117 0.960 1_556 S
H115 C114 0.961 . S
H116 C114 0.961 . S
H117 C114 0.960 1_554 S
C118 N119 1.342 . S
C118 C122 1.401 . S
C118 C123 1.499 . S
N119 Co102 1.989 . S
N119 C118 1.342 . S
N119 N120 1.388 . S
N120 Co103 1.993 . S
N120 N119 1.388 . S
N120 C121 1.346 . S
C121 N120 1.346 . S
C121 C122 1.396 . S
C121 C131 1.510 . S
C122 C118 1.401 . S
C122 C121 1.396 . S
C123 C118 1.499 . S
C123 H124 0.959 . S
C123 H125 0.960 . S
C123 H126 0.961 . S
H124 C123 0.959 . S
H125 C123 0.960 . S
H126 C123 0.961 . S
O127 Co102 1.967 . S
O127 C135 1.258 . S
O128 Co103 1.941 . S
O128 C135 1.266 . S
H129 C131 0.959 . S
H130 C131 0.961 . S
C131 C121 1.510 . S
C131 H129 0.959 . S
C131 H130 0.961 . S
C131 H132 0.960 . S
H132 C131 0.960 . S
H133 N113 0.862 . S
O134 Co102 1.920 . S
O134 C107 1.289 . S
C135 O127 1.258 . S
C135 O128 1.266 . S
Co136 O139 1.970 . S
Co136 N153 1.989 . S
Co136 O161 1.967 . S
Co136 O168 1.920 . S
Co137 O140 1.966 . S
Co137 N146 2.022 . S
Co137 N154 1.993 . S
Co137 O162 1.941 . S
C138 O139 1.258 . S
C138 O140 1.263 . S
O139 Co136 1.970 . S
O139 C138 1.258 . S
O140 Co137 1.966 . S
O140 C138 1.263 . S
C141 O142 1.235 . S
C141 O168 1.289 . S
O142 C141 1.235 . S
C143 C145 1.400 . S
C143 N146 1.351 . S
C143 C148 1.501 . S
C144 C145 1.387 . S
C144 N147 1.341 . S
C145 C143 1.400 . S
C145 C144 1.387 . S
N146 Co137 2.022 . S
N146 C143 1.351 . S
N146 N147 1.365 . S
N147 C144 1.341 . S
N147 N146 1.365 . S
N147 H167 0.862 . S
C148 C143 1.501 . S
C148 H149 0.961 . S
C148 H150 0.961 . S
C148 H151 0.960 . S
H149 C148 0.961 . S
H150 C148 0.961 . S
H151 C148 0.960 . S
C152 N153 1.342 . S
C152 C156 1.401 . S
C152 C157 1.499 . S
N153 Co136 1.989 . S
N153 C152 1.342 . S
N153 N154 1.388 . S
N154 Co137 1.993 . S
N154 N153 1.388 . S
N154 C155 1.346 . S
C155 N154 1.346 . S
C155 C156 1.396 . S
C155 C165 1.510 . S
C156 C152 1.401 . S
C156 C155 1.396 . S
C157 C152 1.499 . S
C157 H158 0.959 . S
C157 H159 0.960 . S
C157 H160 0.961 . S
H158 C157 0.959 . S
H159 C157 0.960 . S
H160 C157 0.961 . S
O161 Co136 1.967 . S
O161 C169 1.258 . S
O162 Co137 1.941 . S
O162 C169 1.266 . S
H163 C165 0.959 . S
H164 C165 0.961 . S
C165 C155 1.510 . S
C165 H163 0.959 . S
C165 H164 0.961 . S
C165 H166 0.960 . S
H166 C165 0.960 . S
H167 N147 0.862 . S
O168 Co136 1.920 . S
O168 C141 1.289 . S
C169 O161 1.258 . S
C169 O162 1.266 . S
Co170 O173 1.970 . S
Co170 N187 1.989 . S
Co170 O195 1.967 . S
Co170 O202 1.920 . S
Co171 O174 1.966 . S
Co171 N180 2.022 . S
Co171 N188 1.993 . S
Co171 O196 1.941 . S
C172 O173 1.258 . S
C172 O174 1.263 . S
O173 Co170 1.970 . S
O173 C172 1.258 . S
O174 Co171 1.966 . S
O174 C172 1.263 . S
C175 O176 1.235 . S
C175 O202 1.289 . S
O176 C175 1.235 . S
C177 C179 1.400 . S
C177 N180 1.351 . S
C177 C182 1.501 . S
C178 C179 1.387 . S
C178 N181 1.341 . S
C179 C177 1.400 . S
C179 C178 1.387 . S
N180 Co171 2.022 . S
N180 C177 1.351 . S
N180 N181 1.365 . S
N181 C178 1.341 . S
N181 N180 1.365 . S
N181 H201 0.862 . S
C182 C177 1.501 . S
C182 H183 0.961 . S
C182 H184 0.961 . S
C182 H185 0.960 . S
H183 C182 0.961 . S
H184 C182 0.961 . S
H185 C182 0.960 . S
C186 N187 1.342 . S
C186 C190 1.401 . S
C186 C191 1.499 . S
N187 Co170 1.989 . S
N187 C186 1.342 . S
N187 N188 1.388 . S
N188 Co171 1.993 . S
N188 N187 1.388 . S
N188 C189 1.346 . S
C189 N188 1.346 . S
C189 C190 1.396 . S
C189 C199 1.510 . S
C190 C186 1.401 . S
C190 C189 1.396 . S
C191 C186 1.499 . S
C191 H192 0.959 . S
C191 H193 0.960 . S
C191 H194 0.961 . S
H192 C191 0.959 . S
H193 C191 0.960 . S
H194 C191 0.961 . S
O195 Co170 1.967 . S
O195 C203 1.258 . S
O196 Co171 1.941 . S
O196 C203 1.266 . S
H197 C199 0.959 . S
H198 C199 0.961 . S
C199 C189 1.510 . S
C199 H197 0.959 . S
C199 H198 0.961 . S
C199 H200 0.960 . S
H200 C199 0.960 . S
H201 N181 0.862 . S
O202 Co170 1.920 . S
O202 C175 1.289 . S
C203 O195 1.258 . S
C203 O196 1.266 . S
Co204 O207 1.970 . S
Co204 N221 1.989 . S
Co204 O229 1.967 . S
Co204 O236 1.920 . S
Co205 O208 1.966 . S
Co205 N214 2.022 . S
Co205 N222 1.993 . S
Co205 O230 1.941 . S
C206 O207 1.258 . S
C206 O208 1.263 . S
O207 Co204 1.970 . S
O207 C206 1.258 . S
O208 Co205 1.966 . S
O208 C206 1.263 . S
C209 O210 1.235 . S
C209 O236 1.289 . S
O210 C209 1.235 . S
C211 C213 1.400 . S
C211 N214 1.351 . S
C211 C216 1.501 . S
C212 C213 1.387 . S
C212 N215 1.341 . S
C213 C211 1.400 . S
C213 C212 1.387 . S
N214 Co205 2.022 . S
N214 C211 1.351 . S
N214 N215 1.365 . S
N215 C212 1.341 . S
N215 N214 1.365 . S
N215 H235 0.862 . S
C216 C211 1.501 . S
C216 H217 0.961 . S
C216 H218 0.961 . S
C216 H219 0.960 . S
H217 C216 0.961 . S
H218 C216 0.961 . S
H219 C216 0.960 . S
C220 N221 1.342 . S
C220 C224 1.401 . S
C220 C225 1.499 . S
N221 Co204 1.989 . S
N221 C220 1.342 . S
N221 N222 1.388 . S
N222 Co205 1.993 . S
N222 N221 1.388 . S
N222 C223 1.346 . S
C223 N222 1.346 . S
C223 C224 1.396 . S
C223 C233 1.510 . S
C224 C220 1.401 . S
C224 C223 1.396 . S
C225 C220 1.499 . S
C225 H226 0.959 . S
C225 H227 0.960 . S
C225 H228 0.961 . S
H226 C225 0.959 . S
H227 C225 0.960 . S
H228 C225 0.961 . S
O229 Co204 1.967 . S
O229 C237 1.258 . S
O230 Co205 1.941 . S
O230 C237 1.266 . S
H231 C233 0.959 . S
H232 C233 0.961 . S
C233 C223 1.510 . S
C233 H231 0.959 . S
C233 H232 0.961 . S
C233 H234 0.960 . S
H234 C233 0.960 . S
H235 N215 0.862 . S
O236 Co204 1.920 . S
O236 C209 1.289 . S
C237 O229 1.258 . S
C237 O230 1.266 . S
Co238 O241 1.970 . S
Co238 N255 1.989 . S
Co238 O263 1.967 . S
Co238 O270 1.920 . S
Co239 O242 1.966 . S
Co239 N248 2.022 . S
Co239 N256 1.993 . S
Co239 O264 1.941 . S
C240 O241 1.258 . S
C240 O242 1.263 . S
O241 Co238 1.970 . S
O241 C240 1.258 . S
O242 Co239 1.966 . S
O242 C240 1.263 . S
C243 O244 1.235 . S
C243 O270 1.289 . S
O244 C243 1.235 . S
C245 C247 1.400 . S
C245 N248 1.351 . S
C245 C250 1.501 . S
C246 C247 1.387 . S
C246 N249 1.341 . S
C247 C245 1.400 . S
C247 C246 1.387 . S
N248 Co239 2.022 . S
N248 C245 1.351 . S
N248 N249 1.365 . S
N249 C246 1.341 . S
N249 N248 1.365 . S
N249 H269 0.862 . S
C250 C245 1.501 . S
C250 H251 0.961 . S
C250 H252 0.961 . S
C250 H253 0.960 . S
H251 C250 0.961 . S
H252 C250 0.961 . S
H253 C250 0.960 . S
C254 N255 1.342 . S
C254 C258 1.401 . S
C254 C259 1.499 . S
N255 Co238 1.989 . S
N255 C254 1.342 . S
N255 N256 1.388 . S
N256 Co239 1.993 . S
N256 N255 1.388 . S
N256 C257 1.346 . S
C257 N256 1.346 . S
C257 C258 1.396 . S
C257 C267 1.510 . S
C258 C254 1.401 . S
C258 C257 1.396 . S
C259 C254 1.499 . S
C259 H260 0.959 . S
C259 H261 0.960 . S
C259 H262 0.961 . S
H260 C259 0.959 . S
H261 C259 0.960 . S
H262 C259 0.961 . S
O263 Co238 1.967 . S
O263 C271 1.258 . S
O264 Co239 1.941 . S
O264 C271 1.266 . S
H265 C267 0.959 . S
H266 C267 0.961 . S
C267 C257 1.510 . S
C267 H265 0.959 . S
C267 H266 0.961 . S
C267 H268 0.960 . S
H268 C267 0.960 . S
H269 N249 0.862 . S
O270 Co238 1.920 . S
O270 C243 1.289 . S
C271 O263 1.258 . S
C271 O264 1.266 . S
C272 C273 1.363 . S
C272 C278 1.379 1_455 S
C272 N280 1.356 . S
C273 C272 1.363 . S
C273 C279 1.363 . S
C274 C275 1.363 . S
C274 C279 1.379 1_655 S
C274 N281 1.356 . S
C275 C274 1.363 . S
C275 C278 1.363 . S
N276 C278 1.356 . S
N276 H288 0.984 1_554 S
N276 H289 0.985 . S
N277 C279 1.356 . S
N277 H282 0.984 . S
N277 H283 0.985 . S
C278 C272 1.379 1_655 S
C278 C275 1.363 . S
C278 N276 1.356 . S
C279 C273 1.363 . S
C279 C274 1.379 1_455 S
C279 N277 1.356 . S
N280 C272 1.356 . S
N280 H286 0.984 1_554 S
N280 H287 0.984 . S
N281 C274 1.356 . S
N281 H284 0.984 . S
N281 H285 0.985 . S
H282 N277 0.984 . S
H283 N277 0.985 . S
H284 N281 0.984 . S
H285 N281 0.985 . S
H286 N280 0.984 1_556 S
H287 N280 0.984 . S
H288 N276 0.984 1_556 S
H289 N276 0.985 . S
C290 C291 1.363 . S
C290 C296 1.379 1_655 S
C290 N298 1.356 . S
C291 C290 1.363 . S
C291 C297 1.363 . S
C292 C293 1.363 . S
C292 C297 1.379 1_455 S
C292 N299 1.356 . S
C293 C292 1.363 . S
C293 C296 1.363 . S
N294 C296 1.356 . S
N294 H306 0.984 . S
N294 H307 0.985 . S
N295 C297 1.356 . S
N295 H300 0.984 . S
N295 H301 0.985 . S
C296 C290 1.379 1_455 S
C296 C293 1.363 . S
C296 N294 1.356 . S
C297 C291 1.363 . S
C297 C292 1.379 1_655 S
C297 N295 1.356 . S
N298 C290 1.356 . S
N298 H304 0.984 . S
N298 H305 0.984 . S
N299 C292 1.356 . S
N299 H302 0.984 . S
N299 H303 0.985 . S
H300 N295 0.984 . S
H301 N295 0.985 . S
H302 N299 0.984 . S
H303 N299 0.985 . S
H304 N298 0.984 . S
H305 N298 0.984 . S
H306 N294 0.984 . S
H307 N294 0.985 . S
C308 C309 1.363 . S
C308 C314 1.379 . S
C308 N316 1.356 . S
C309 C308 1.363 . S
C309 C315 1.363 1_565 S
C310 C311 1.363 . S
C310 C315 1.379 . S
C310 N317 1.356 . S
C311 C310 1.363 . S
C311 C314 1.363 1_545 S
N312 C314 1.356 1_545 S
N312 H324 0.984 1_545 S
N312 H325 0.985 . S
N313 C315 1.356 1_565 S
N313 H318 0.984 . S
N313 H319 0.985 1_565 S
C314 C308 1.379 . S
C314 C311 1.363 1_565 S
C314 N312 1.356 1_565 S
C315 C309 1.363 1_545 S
C315 C310 1.379 . S
C315 N313 1.356 1_545 S
N316 C308 1.356 . S
N316 H322 0.984 . S
N316 H323 0.984 . S
N317 C310 1.356 . S
N317 H320 0.984 . S
N317 H321 0.985 . S
H318 N313 0.984 . S
H319 N313 0.985 1_545 S
H320 N317 0.984 . S
H321 N317 0.985 . S
H322 N316 0.984 . S
H323 N316 0.984 . S
H324 N312 0.984 1_565 S
H325 N312 0.985 . S
C326 C327 1.363 . S
C326 C332 1.379 . S
C326 N334 1.356 . S
C327 C326 1.363 . S
C327 C333 1.363 1_565 S
C328 C329 1.363 . S
C328 C333 1.379 . S
C328 N335 1.356 . S
C329 C328 1.363 . S
C329 C332 1.363 1_545 S
N330 C332 1.356 1_545 S
N330 H342 0.984 1_545 S
N330 H343 0.985 . S
N331 C333 1.356 1_565 S
N331 H336 0.984 . S
N331 H337 0.985 1_565 S
C332 C326 1.379 . S
C332 C329 1.363 1_565 S
C332 N330 1.356 1_565 S
C333 C327 1.363 1_545 S
C333 C328 1.379 . S
C333 N331 1.356 1_545 S
N334 C326 1.356 . S
N334 H340 0.984 . S
N334 H341 0.984 . S
N335 C328 1.356 . S
N335 H338 0.984 . S
N335 H339 0.985 . S
H336 N331 0.984 . S
H337 N331 0.985 1_545 S
H338 N335 0.984 . S
H339 N335 0.985 . S
H340 N334 0.984 . S
H341 N334 0.984 . S
H342 N330 0.984 1_565 S
H343 N330 0.985 . S
C344 C345 1.363 . S
C344 C350 1.379 . S
C344 N352 1.356 . S
C345 C344 1.363 . S
C345 C351 1.363 . S
C346 C347 1.363 . S
C346 C351 1.379 . S
C346 N353 1.356 . S
C347 C346 1.363 . S
C347 C350 1.363 . S
N348 C350 1.356 . S
N348 H360 0.984 . S
N348 H361 0.985 . S
N349 C351 1.356 . S
N349 H354 0.984 . S
N349 H355 0.985 . S
C350 C344 1.379 . S
C350 C347 1.363 . S
C350 N348 1.356 . S
C351 C345 1.363 . S
C351 C346 1.379 . S
C351 N349 1.356 . S
N352 C344 1.356 . S
N352 H358 0.984 . S
N352 H359 0.984 . S
N353 C346 1.356 . S
N353 H356 0.984 . S
N353 H357 0.985 . S
H354 N349 0.984 . S
H355 N349 0.985 . S
H356 N353 0.984 . S
H357 N353 0.985 . S
H358 N352 0.984 . S
H359 N352 0.984 . S
H360 N348 0.984 . S
H361 N348 0.985 . S
C362 C363 1.363 . S
C362 C368 1.379 . S
C362 N370 1.356 . S
C363 C362 1.363 . S
C363 C369 1.363 . S
C364 C365 1.363 . S
C364 C369 1.379 . S
C364 N371 1.356 . S
C365 C364 1.363 . S
C365 C368 1.363 . S
N366 C368 1.356 . S
N366 H378 0.984 . S
N366 H379 0.985 . S
N367 C369 1.356 . S
N367 H372 0.984 . S
N367 H373 0.985 . S
C368 C362 1.379 . S
C368 C365 1.363 . S
C368 N366 1.356 . S
C369 C363 1.363 . S
C369 C364 1.379 . S
C369 N367 1.356 . S
N370 C362 1.356 . S
N370 H376 0.984 . S
N370 H377 0.984 . S
N371 C364 1.356 . S
N371 H374 0.984 . S
N371 H375 0.985 . S
H372 N367 0.984 . S
H373 N367 0.985 . S
H374 N371 0.984 . S
H375 N371 0.985 . S
H376 N370 0.984 . S
H377 N370 0.984 . S
H378 N366 0.984 . S
H379 N366 0.985 . S
C380 C381 1.363 . S
C380 C386 1.379 . S
C380 N388 1.356 . S
C381 C380 1.363 . S
C381 C387 1.363 . S
C382 C383 1.363 . S
C382 C387 1.379 . S
C382 N389 1.356 . S
C383 C382 1.363 . S
C383 C386 1.363 . S
N384 C386 1.356 . S
N384 H396 0.984 . S
N384 H397 0.985 . S
N385 C387 1.356 . S
N385 H390 0.984 . S
N385 H391 0.985 . S
C386 C380 1.379 . S
C386 C383 1.363 . S
C386 N384 1.356 . S
C387 C381 1.363 . S
C387 C382 1.379 . S
C387 N385 1.356 . S
N388 C380 1.356 . S
N388 H394 0.984 . S
N388 H395 0.984 . S
N389 C382 1.356 . S
N389 H392 0.984 . S
N389 H393 0.985 . S
H390 N385 0.984 . S
H391 N385 0.985 . S
H392 N389 0.984 . S
H393 N389 0.985 . S
H394 N388 0.984 . S
H395 N388 0.984 . S
H396 N384 0.984 . S
H397 N384 0.985 . S
C398 C399 1.363 . S
C398 C404 1.379 . S
C398 N406 1.356 . S
C399 C398 1.363 . S
C399 C405 1.363 . S
C400 C401 1.363 . S
C400 C405 1.379 . S
C400 N407 1.356 . S
C401 C400 1.363 . S
C401 C404 1.363 . S
N402 C404 1.356 . S
N402 H414 0.984 . S
N402 H415 0.985 . S
N403 C405 1.356 . S
N403 H408 0.984 . S
N403 H409 0.985 . S
C404 C398 1.379 . S
C404 C401 1.363 . S
C404 N402 1.356 . S
C405 C399 1.363 . S
C405 C400 1.379 . S
C405 N403 1.356 . S
N406 C398 1.356 . S
N406 H412 0.984 . S
N406 H413 0.984 . S
N407 C400 1.356 . S
N407 H410 0.984 . S
N407 H411 0.985 . S
H408 N403 0.984 . S
H409 N403 0.985 . S
H410 N407 0.984 . S
H411 N407 0.985 . S
H412 N406 0.984 . S
H413 N406 0.984 . S
H414 N402 0.984 . S
H415 N402 0.985 . S
C416 C417 1.363 . S
C416 C422 1.379 . S
C416 N424 1.356 . S
C417 C416 1.363 . S
C417 C423 1.363 . S
C418 C419 1.363 . S
C418 C423 1.379 . S
C418 N425 1.356 . S
C419 C418 1.363 . S
C419 C422 1.363 . S
N420 C422 1.356 . S
N420 H432 0.984 . S
N420 H433 0.985 . S
N421 C423 1.356 . S
N421 H426 0.984 . S
N421 H427 0.985 . S
C422 C416 1.379 . S
C422 C419 1.363 . S
C422 N420 1.356 . S
C423 C417 1.363 . S
C423 C418 1.379 . S
C423 N421 1.356 . S
N424 C416 1.356 . S
N424 H430 0.984 . S
N424 H431 0.984 . S
N425 C418 1.356 . S
N425 H428 0.984 . S
N425 H429 0.985 . S
H426 N421 0.984 . S
H427 N421 0.985 . S
H428 N425 0.984 . S
H429 N425 0.985 . S
H430 N424 0.984 . S
H431 N424 0.984 . S
H432 N420 0.984 . S
H433 N420 0.985 . S
C434 C435 1.363 . S
C434 C440 1.379 . S
C434 N442 1.356 . S
C435 C434 1.363 . S
C435 C441 1.363 . S
C436 C437 1.363 . S
C436 C441 1.379 . S
C436 N443 1.356 . S
C437 C436 1.363 . S
C437 C440 1.363 . S
N438 C440 1.356 . S
N438 H450 0.984 . S
N438 H451 0.985 . S
N439 C441 1.356 . S
N439 H444 0.984 . S
N439 H445 0.985 . S
C440 C434 1.379 . S
C440 C437 1.363 . S
C440 N438 1.356 . S
C441 C435 1.363 . S
C441 C436 1.379 . S
C441 N439 1.356 . S
N442 C434 1.356 . S
N442 H448 0.984 . S
N442 H449 0.984 . S
N443 C436 1.356 . S
N443 H446 0.984 . S
N443 H447 0.985 . S
H444 N439 0.984 . S
H445 N439 0.985 . S
H446 N443 0.984 . S
H447 N443 0.985 . S
H448 N442 0.984 . S
H449 N442 0.984 . S
H450 N438 0.984 . S
H451 N438 0.985 . S
C452 C453 1.363 . S
C452 C458 1.379 1_554 S
C452 N460 1.356 . S
C453 C452 1.363 . S
C453 C459 1.363 . S
C454 C455 1.363 . S
C454 C459 1.379 . S
C454 N461 1.356 . S
C455 C454 1.363 . S
C455 C458 1.363 1_554 S
N456 C458 1.356 . S
N456 H468 0.984 . S
N456 H469 0.985 . S
N457 C459 1.356 . S
N457 H462 0.984 . S
N457 H463 0.985 . S
C458 C452 1.379 1_556 S
C458 C455 1.363 1_556 S
C458 N456 1.356 . S
C459 C453 1.363 . S
C459 C454 1.379 . S
C459 N457 1.356 . S
N460 C452 1.356 . S
N460 H466 0.984 1_554 S
N460 H467 0.984 . S
N461 C454 1.356 . S
N461 H464 0.984 . S
N461 H465 0.985 . S
H462 N457 0.984 . S
H463 N457 0.985 . S
H464 N461 0.984 . S
H465 N461 0.985 . S
H466 N460 0.984 1_556 S
H467 N460 0.984 . S
H468 N456 0.984 . S
H469 N456 0.985 . S
C470 C471 1.363 . S
C470 C476 1.379 . S
C470 N478 1.356 . S
C471 C470 1.363 . S
C471 C477 1.363 . S
C472 C473 1.363 . S
C472 C477 1.379 . S
C472 N479 1.356 . S
C473 C472 1.363 . S
C473 C476 1.363 . S
N474 C476 1.356 . S
N474 H486 0.984 . S
N474 H487 0.985 . S
N475 C477 1.356 . S
N475 H480 0.984 1_554 S
N475 H481 0.985 . S
C476 C470 1.379 . S
C476 C473 1.363 . S
C476 N474 1.356 . S
C477 C471 1.363 . S
C477 C472 1.379 . S
C477 N475 1.356 . S
N478 C470 1.356 . S
N478 H484 0.984 . S
N478 H485 0.984 1_554 S
N479 C472 1.356 . S
N479 H482 0.984 . S
N479 H483 0.985 . S
H480 N475 0.984 1_556 S
H481 N475 0.985 . S
H482 N479 0.984 . S
H483 N479 0.985 . S
H484 N478 0.984 . S
H485 N478 0.984 1_556 S
H486 N474 0.984 . S
H487 N474 0.985 . S
C488 C489 1.363 . S
C488 C494 1.379 . S
C488 N496 1.356 . S
C489 C488 1.363 . S
C489 C495 1.363 1_455 S
C490 C491 1.363 . S
C490 C495 1.379 . S
C490 N497 1.356 . S
C491 C490 1.363 . S
C491 C494 1.363 1_655 S
N492 C494 1.356 . S
N492 H504 0.984 . S
N492 H505 0.985 . S
N493 C495 1.356 . S
N493 H498 0.984 . S
N493 H499 0.985 1_545 S
C494 C488 1.379 . S
C494 C491 1.363 1_455 S
C494 N492 1.356 . S
C495 C489 1.363 1_655 S
C495 C490 1.379 . S
C495 N493 1.356 . S
N496 C488 1.356 . S
N496 H502 0.984 . S
N496 H503 0.984 . S
N497 C490 1.356 . S
N497 H500 0.984 . S
N497 H501 0.985 1_545 S
H498 N493 0.984 . S
H499 N493 0.985 1_565 S
H500 N497 0.984 . S
H501 N497 0.985 1_565 S
H502 N496 0.984 . S
H503 N496 0.984 . S
H504 N492 0.984 . S
H505 N492 0.985 . S
C506 C507 1.363 1_655 S
C506 C512 1.379 . S
C506 N514 1.356 . S
C507 C506 1.363 1_455 S
C507 C513 1.363 . S
C508 C509 1.363 1_455 S
C508 C513 1.379 . S
C508 N515 1.356 . S
C509 C508 1.363 1_655 S
C509 C512 1.363 . S
N510 C512 1.356 . S
N510 H522 0.984 1_565 S
N510 H523 0.985 . S
N511 C513 1.356 . S
N511 H516 0.984 . S
N511 H517 0.985 . S
C512 C506 1.379 . S
C512 C509 1.363 . S
C512 N510 1.356 . S
C513 C507 1.363 . S
C513 C508 1.379 . S
C513 N511 1.356 . S
N514 C506 1.356 . S
N514 H520 0.984 1_565 S
N514 H521 0.984 . S
N515 C508 1.356 . S
N515 H518 0.984 . S
N515 H519 0.985 . S
H516 N511 0.984 . S
H517 N511 0.985 . S
H518 N515 0.984 . S
H519 N515 0.985 . S
H520 N514 0.984 1_545 S
H521 N514 0.984 . S
H522 N510 0.984 1_545 S
H523 N510 0.985 . S
C524 C525 1.363 . S
C524 C530 1.365 1_455 S
C524 N532 1.356 . S
C525 C524 1.363 . S
C525 C531 1.377 . S
C526 C527 1.363 . S
C526 C531 1.365 1_655 S
C526 N533 1.356 . S
C527 C526 1.363 . S
C527 C530 1.377 . S
N528 C530 1.361 1_554 S
N528 H540 0.984 1_665 S
N528 H541 0.985 . S
N529 C531 1.361 . S
N529 H534 0.984 . S
N529 H535 0.985 1_455 S
C530 C524 1.365 1_655 S
C530 C527 1.377 . S
C530 N528 1.361 1_556 S
C531 C525 1.377 . S
C531 C526 1.365 1_455 S
C531 N529 1.361 . S
N532 C524 1.356 . S
N532 H538 0.984 1_565 S
N532 H539 0.984 . S
N533 C526 1.356 . S
N533 H536 0.984 . S
N533 H537 0.985 . S
H534 N529 0.984 . S
H535 N529 0.985 1_655 S
H536 N533 0.984 . S
H537 N533 0.985 . S
H538 N532 0.984 1_545 S
H539 N532 0.984 . S
H540 N528 0.984 1_445 S
H541 N528 0.985 . S
C542 C543 1.376 . S
C542 C548 1.366 1_455 S
C542 N550 1.361 1_556 S
C543 C542 1.376 . S
C543 C549 1.363 . S
C544 C545 1.376 . S
C544 C549 1.366 1_655 S
C544 N551 1.361 . S
C545 C544 1.376 . S
C545 C548 1.363 . S
N546 C548 1.356 . S
N546 H558 0.984 . S
N546 H559 0.985 . S
N547 C549 1.356 . S
N547 H552 0.984 . S
N547 H553 0.985 1_545 S
C548 C542 1.366 1_655 S
C548 C545 1.363 . S
C548 N546 1.356 . S
C549 C543 1.363 . S
C549 C544 1.366 1_455 S
C549 N547 1.356 . S
N550 C542 1.361 1_554 S
N550 H556 0.984 1_455 S
N550 H557 0.984 . S
N551 C544 1.361 . S
N551 H554 0.984 . S
N551 H555 0.985 1_645 S
H552 N547 0.984 . S
H553 N547 0.985 1_565 S
H554 N551 0.984 . S
H555 N551 0.985 1_465 S
H556 N550 0.984 1_655 S
H557 N550 0.984 . S
H558 N546 0.984 . S
H559 N546 0.985 . S
C560 C561 1.363 1_556 S
C560 C566 1.379 . S
C560 N568 1.356 1_556 S
C561 C560 1.363 1_554 S
C561 C567 1.363 1_554 S
C562 C563 1.363 . S
C562 C567 1.379 . S
C562 N569 1.356 . S
C563 C562 1.363 . S
C563 C566 1.363 . S
N564 C566 1.356 . S
N564 H576 0.984 . S
N564 H577 0.985 . S
N565 C567 1.356 1_554 S
N565 H570 0.984 . S
N565 H571 0.985 1_554 S
C566 C560 1.379 . S
C566 C563 1.363 . S
C566 N564 1.356 . S
C567 C561 1.363 1_556 S
C567 C562 1.379 . S
C567 N565 1.356 1_556 S
N568 C560 1.356 1_554 S
N568 H574 0.984 . S
N568 H575 0.984 . S
N569 C562 1.356 . S
N569 H572 0.984 . S
N569 H573 0.985 . S
H570 N565 0.984 . S
H571 N565 0.985 1_556 S
H572 N569 0.984 . S
H573 N569 0.985 . S
H574 N568 0.984 . S
H575 N568 0.984 . S
H576 N564 0.984 . S
H577 N564 0.985 . S
C578 C579 1.363 . S
C578 C584 1.379 . S
C578 N586 1.356 . S
C579 C578 1.363 . S
C579 C585 1.363 . S
C580 C581 1.363 1_556 S
C580 C585 1.379 . S
C580 N587 1.356 1_556 S
C581 C580 1.363 1_554 S
C581 C584 1.363 1_554 S
N582 C584 1.356 1_554 S
N582 H594 0.984 . S
N582 H595 0.985 . S
N583 C585 1.356 . S
N583 H588 0.984 . S
N583 H589 0.985 . S
C584 C578 1.379 . S
C584 C581 1.363 1_556 S
C584 N582 1.356 1_556 S
C585 C579 1.363 . S
C585 C580 1.379 . S
C585 N583 1.356 . S
N586 C578 1.356 . S
N586 H592 0.984 . S
N586 H593 0.984 . S
N587 C580 1.356 1_554 S
N587 H590 0.984 . S
N587 H591 0.985 1_554 S
H588 N583 0.984 . S
H589 N583 0.985 . S
H590 N587 0.984 . S
H591 N587 0.985 1_556 S
H592 N586 0.984 . S
H593 N586 0.984 . S
H594 N582 0.984 . S
H595 N582 0.985 . S
C596 C597 1.363 . S
C596 C602 1.379 . S
C596 N604 1.356 . S
C597 C596 1.363 . S
C597 C603 1.363 . S
C598 C599 1.363 . S
C598 C603 1.379 . S
C598 N605 1.356 . S
C599 C598 1.363 . S
C599 C602 1.363 . S
N600 C602 1.356 . S
N600 H612 0.984 . S
N600 H613 0.985 . S
N601 C603 1.356 . S
N601 H606 0.984 . S
N601 H607 0.985 . S
C602 C596 1.379 . S
C602 C599 1.363 . S
C602 N600 1.356 . S
C603 C597 1.363 . S
C603 C598 1.379 . S
C603 N601 1.356 . S
N604 C596 1.356 . S
N604 H610 0.984 . S
N604 H611 0.984 . S
N605 C598 1.356 . S
N605 H608 0.984 . S
N605 H609 0.985 . S
H606 N601 0.984 . S
H607 N601 0.985 . S
H608 N605 0.984 . S
H609 N605 0.985 . S
H610 N604 0.984 . S
H611 N604 0.984 . S
H612 N600 0.984 . S
H613 N600 0.985 . S
C614 C615 1.363 . S
C614 C620 1.379 . S
C614 N622 1.356 . S
C615 C614 1.363 . S
C615 C621 1.363 . S
C616 C617 1.363 . S
C616 C621 1.379 . S
C616 N623 1.356 . S
C617 C616 1.363 . S
C617 C620 1.363 . S
N618 C620 1.356 . S
N618 H630 0.984 . S
N618 H631 0.985 . S
N619 C621 1.356 . S
N619 H624 0.984 . S
N619 H625 0.985 . S
C620 C614 1.379 . S
C620 C617 1.363 . S
C620 N618 1.356 . S
C621 C615 1.363 . S
C621 C616 1.379 . S
C621 N619 1.356 . S
N622 C614 1.356 . S
N622 H628 0.984 . S
N622 H629 0.984 . S
N623 C616 1.356 . S
N623 H626 0.984 . S
N623 H627 0.985 . S
H624 N619 0.984 . S
H625 N619 0.985 . S
H626 N623 0.984 . S
H627 N623 0.985 . S
H628 N622 0.984 . S
H629 N622 0.984 . S
H630 N618 0.984 . S
H631 N618 0.985 . S
C273 C33 1.572 . S
C275 C67 1.572 . S
C291 C135 1.572 . S
C293 C101 1.572 . S
C309 C169 1.572 . S
C311 C203 1.572 . S
C327 C271 1.572 . S
C329 C237 1.572 . S
C345 C179 1.390 . S
C347 C20 1.523 . S
C363 C145 1.390 . S
C365 C54 1.523 . S
C381 C247 1.390 . S
C383 C88 1.523 . S
C399 C122 1.523 . S
C401 C213 1.390 . S
C417 C43 1.390 . S
C419 C156 1.523 . S
C435 C9 1.390 . S
C437 C190 1.523 . S
C453 C224 1.523 . S
C455 C111 1.390 1_554 S
C471 C77 1.390 1_554 S
C473 C258 1.523 . S
C489 C5 1.641 . S
C491 C107 1.641 . S
C507 C73 1.641 . S
C509 C39 1.641 . S
C525 C70 1.243 . S
C527 C36 1.243 1_556 S
C543 C2 1.243 1_556 S
C545 C104 1.243 . S
C561 C243 1.641 . S
C563 C141 1.641 . S
C579 C175 1.641 . S
C581 C209 1.641 . S
C597 C206 1.243 . S
C599 C172 1.243 . S
C615 C138 1.243 . S
C617 C240 1.243 . S
