# Generated by pormake.
# Topology lcy-e, (6)-cn, num edge types: 1
# Building blocks:
#     Node 0, Type 0, BuildingBlock: KUMBUR_clean_sbu_0, # of connection points: 6
#     Node 1, Type 0, BuildingBlock: KUMBUR_clean_sbu_0, # of connection points: 6
#     Node 2, Type 0, BuildingBlock: KUMBUR_clean_sbu_0, # of connection points: 6
#     Node 3, Type 0, BuildingBlock: KUMBUR_clean_sbu_0, # of connection points: 6
#     Node 4, Type 0, BuildingBlock: KUMBUR_clean_sbu_0, # of connection points: 6
#     Node 5, Type 0, BuildingBlock: KUMBUR_clean_sbu_0, # of connection points: 6
#     Node 6, Type 0, BuildingBlock: KUMBUR_clean_sbu_0, # of connection points: 6
#     Node 7, Type 0, BuildingBlock: KUMBUR_clean_sbu_0, # of connection points: 6
#     Node 8, Type 0, BuildingBlock: KUMBUR_clean_sbu_0, # of connection points: 6
#     Node 9, Type 0, BuildingBlock: KUMBUR_clean_sbu_0, # of connection points: 6
#     Node 10, Type 0, BuildingBlock: KUMBUR_clean_sbu_0, # of connection points: 6
#     Node 11, Type 0, BuildingBlock: KUMBUR_clean_sbu_0, # of connection points: 6
#     Edge 12, Type (0, 0), None
#     Edge 13, Type (0, 0), None
#     Edge 14, Type (0, 0), None
#     Edge 15, Type (0, 0), None
#     Edge 16, Type (0, 0), None
#     Edge 17, Type (0, 0), None
#     Edge 18, Type (0, 0), None
#     Edge 19, Type (0, 0), None
#     Edge 20, Type (0, 0), None
#     Edge 21, Type (0, 0), None
#     Edge 22, Type (0, 0), None
#     Edge 23, Type (0, 0), None
#     Edge 24, Type (0, 0), None
#     Edge 25, Type (0, 0), None
#     Edge 26, Type (0, 0), None
#     Edge 27, Type (0, 0), None
#     Edge 28, Type (0, 0), None
#     Edge 29, Type (0, 0), None
#     Edge 30, Type (0, 0), None
#     Edge 31, Type (0, 0), None
#     Edge 32, Type (0, 0), None
#     Edge 33, Type (0, 0), None
#     Edge 34, Type (0, 0), None
#     Edge 35, Type (0, 0), None
#     Edge 36, Type (0, 0), None
#     Edge 37, Type (0, 0), None
#     Edge 38, Type (0, 0), None
#     Edge 39, Type (0, 0), None
#     Edge 40, Type (0, 0), None
#     Edge 41, Type (0, 0), None
#     Edge 42, Type (0, 0), None
#     Edge 43, Type (0, 0), None
#     Edge 44, Type (0, 0), None
#     Edge 45, Type (0, 0), None
#     Edge 46, Type (0, 0), None
#     Edge 47, Type (0, 0), None
# Relax obj value: 0.090
# Max RMSD: 0.314
# Mean RMSD: 0.310
data_MOF--net-lcy-e--node1-KUMBUR_clean_sbu_0--edge1-none
_symmetry_space_group_name_H-M    P1
_symmetry_Int_Tables_number       1
_symmetry_cell_setting            triclinic
loop_
_symmetry_equiv_pos_as_xyz
'x, y, z'
_cell_length_a     23.887347
_cell_length_b     23.688092
_cell_length_c     23.772507
_cell_angle_alpha  89.551939
_cell_angle_beta   90.212898
_cell_angle_gamma 91.120189
loop_
_atom_site_label
_atom_site_type_symbol
_atom_site_fract_x
_atom_site_fract_y
_atom_site_fract_z
_atom_type_partial_charge
Tb0 Tb 0.15987 0.21654 0.59601 0.0
C1 C 0.03448 0.34346 0.39892 0.0
C2 C 0.02658 0.2684 0.33139 0.0
C3 C 0.98931 0.36066 0.30871 0.0
C4 C 0.04703 0.29 0.38278 0.0
C5 C 1.00655 0.38025 0.36184 0.0
C6 C 0.99801 0.30421 0.2941 0.0
C7 C 1.01464 0.45203 0.43282 0.0
N8 N 0.05315 0.36044 0.45006 0.0
C9 C 0.04094 0.41325 0.46866 0.0
C10 C 0.99763 0.43556 0.37907 0.0
Tb11 Tb 0.1288 0.31255 0.48459 0.0
N12 N 0.0798 0.25947 0.4177 0.0
C13 C 0.08904 0.20388 0.40537 0.0
C14 C 0.03641 0.212 0.31874 0.0
C15 C 0.06687 0.17929 0.35654 0.0
H16 H 0.05626 0.42705 0.50886 0.0
H17 H 0.07433 0.13534 0.34761 0.0
H18 H 0.98292 0.28886 0.25387 0.0
H19 H 1.00755 0.49462 0.44613 0.0
H20 H 0.11286 0.17747 0.43324 0.0
H21 H 0.16527 0.30613 0.82315 0.0
H22 H 0.02066 0.19337 0.28017 0.0
H23 H 0.21707 0.09767 0.5453 0.0
H24 H 0.12314 0.25018 0.73028 0.0
H25 H 0.29511 0.03694 0.57303 0.0
H26 H 0.96785 0.38819 0.2795 0.0
H27 H 0.27656 0.3267 0.83633 0.0
H28 H 0.4076 0.24858 0.72125 0.0
H29 H 0.97687 0.46547 0.35176 0.0
H30 H 0.41195 0.15689 0.68341 0.0
N31 N 0.20199 0.23286 0.68205 0.0
C32 C 0.16752 0.25622 0.73365 0.0
C33 C 0.26232 0.30363 0.79962 0.0
C34 C 0.31513 0.25621 0.71325 0.0
C35 C 0.19255 0.29202 0.79092 0.0
C36 C 0.26564 0.22741 0.67056 0.0
H37 H 0.36795 0.07329 0.63811 0.0
N38 N 0.24064 0.16467 0.60027 0.0
C39 C 0.29135 0.07844 0.59119 0.0
C40 C 0.2801 0.18449 0.63637 0.0
C41 C 0.24644 0.11243 0.57657 0.0
C42 C 0.33234 0.09917 0.62789 0.0
C43 C 0.32871 0.15424 0.64839 0.0
O44 O 0.12826 0.13579 0.57557 0.0
O45 O 0.10941 0.23299 0.52083 0.0
O46 O 0.07746 0.32952 0.56803 0.0
O47 O 0.12842 0.28579 0.6398 0.0
O48 O 0.06764 0.20822 0.59163 0.0
O49 O 0.12969 0.1637 0.6622 0.0
O50 O 0.14045 0.3813 0.42792 0.0
O51 O 0.18364 0.30441 0.55758 0.0
O52 O 0.22759 0.21191 0.53341 0.0
O53 O 0.18463 0.2459 0.4531 0.0
O54 O 0.1432 0.38186 0.53732 0.0
O55 O 0.20882 0.33024 0.44869 0.0
C56 C 0.0614 0.21889 0.53917 0.0
C57 C 0.1171 0.06332 0.64647 0.0
C58 C 0.08136 0.98661 0.70819 0.0
C59 C 0.08973 0.04484 0.69667 0.0
C60 C 0.10309 0.94795 0.66997 0.0
C61 C 0.13728 0.02248 0.60951 0.0
C62 C 0.13151 0.96543 0.62196 0.0
C63 C 0.08804 0.31794 0.6242 0.0
C64 C 0.11506 0.12338 0.62769 0.0
C65 C 0.37264 0.17876 0.6796 0.0
C66 C 0.36912 0.23254 0.70328 0.0
C67 C 0.18031 0.35925 0.56873 0.0
C68 C 0.20528 0.36824 0.35496 0.0
C69 C 0.21551 0.41766 0.32101 0.0
C70 C 0.2276 0.41268 0.26251 0.0
C71 C 0.22934 0.35774 0.24003 0.0
C72 C 0.2061 0.31508 0.32946 0.0
C73 C 0.21841 0.31 0.27282 0.0
C74 C 0.22462 0.2168 0.47823 0.0
C75 C 0.19171 0.37085 0.41623 0.0
H76 H 0.07341 0.07517 0.72561 0.0
H77 H 0.09531 0.90376 0.67543 0.0
H78 H 0.15479 0.03385 0.56921 0.0
H79 H 0.14642 0.93442 0.59263 0.0
H80 H 0.21409 0.45909 0.33985 0.0
H81 H 0.23932 0.35083 0.1964 0.0
H82 H 0.1972 0.27692 0.35323 0.0
H83 H 0.21954 0.26855 0.25403 0.0
Tb84 Tb 0.96537 0.87886 0.76037 0.0
C85 C 0.13652 0.02608 0.87203 0.0
C86 C 0.21206 0.0283 0.80472 0.0
C87 C 0.20724 0.10155 0.87493 0.0
C88 C 0.16341 1.00231 0.82766 0.0
C89 C 0.15968 0.07453 0.89802 0.0
C90 C 0.23303 0.07867 0.82783 0.0
C91 C 0.08908 0.0645 0.96935 0.0
N92 N 0.0913 0.99815 0.89366 0.0
C93 C 0.06728 1.017 0.94175 0.0
C94 C 0.13613 0.09266 0.9481 0.0
Tb95 Tb 0.07288 0.90863 0.8616 0.0
N96 N 0.14531 0.95067 0.81095 0.0
C97 C 0.17707 0.92137 0.77372 0.0
C98 C 0.24057 1.00082 0.76208 0.0
C99 C 0.22336 0.94658 0.74707 0.0
H100 H 0.03336 0.99309 0.9604 0.0
H101 H 0.24683 0.9233 0.71639 0.0
H102 H 0.27082 0.09842 0.81135 0.0
H103 H 0.07079 0.07881 1.00786 0.0
H104 H 0.16795 0.87815 0.76471 0.0
H105 H 0.68576 0.87671 0.76724 0.0
H106 H 0.27763 1.01966 0.74292 0.0
H107 H 0.03152 0.80959 0.66326 0.0
H108 H 0.84307 0.94202 0.78716 0.0
H109 H 0.02038 0.72719 0.60297 0.0
H110 H 0.22518 0.13919 0.89403 0.0
H111 H 0.69271 0.77092 0.72122 0.0
H112 H 0.75313 0.6988 0.67315 0.0
H113 H 0.15369 0.12864 0.9704 0.0
H114 H 0.83467 0.67184 0.62497 0.0
N115 N 0.87312 0.85478 0.7574 0.0
C116 C 0.82927 0.89947 0.77573 0.0
C117 C 0.73092 0.79399 0.73137 0.0
C118 C 0.79408 0.76616 0.71678 0.0
C119 C 0.72698 0.85918 0.75966 0.0
C120 C 0.85948 0.79606 0.72957 0.0
H121 H 0.93292 0.67341 0.60421 0.0
N122 N 0.95553 0.79663 0.70774 0.0
C123 C 0.98827 0.73742 0.63299 0.0
C124 C 0.90408 0.77042 0.7047 0.0
C125 C 0.995 0.7833 0.66837 0.0
C126 C 0.93839 0.70725 0.63369 0.0
C127 C 0.89436 0.72492 0.6673 0.0
O128 O 0.99368 0.89829 0.67933 0.0
O129 O 0.04999 0.91519 0.77479 0.0
O130 O 0.99444 0.96706 0.86574 0.0
O131 O 0.91979 0.9146 0.83023 0.0
O132 O 0.99129 0.96845 0.74848 0.0
O133 O 0.91299 0.92596 0.70422 0.0
O134 O 0.11916 0.9088 0.93778 0.0
O135 O 0.99392 0.8655 0.85104 0.0
O136 O 1.01085 0.79854 0.77443 0.0
O137 O 0.09383 0.83347 0.81157 0.0
O138 O 0.02667 0.87194 0.93234 0.0
O139 O 0.13775 0.84993 0.87228 0.0
C140 C 0.04443 0.96447 0.75484 0.0
C141 C 0.93019 0.91626 0.60338 0.0
C142 C 0.87865 0.94755 0.51792 0.0
C143 C 0.8875 0.94931 0.57737 0.0
C144 C 0.91438 0.91401 0.486 0.0
C145 C 0.9626 0.88187 0.56872 0.0
C146 C 0.95452 0.88063 0.51105 0.0
C147 C 0.93792 0.96022 0.85543 0.0
C148 C 0.94899 0.92453 0.66331 0.0
C149 C 0.84091 0.70126 0.65807 0.0
C150 C 0.79286 0.71856 0.68433 0.0
C151 C 0.98491 0.85244 0.90413 0.0
C152 C 0.18096 0.83249 0.96178 0.0
C153 C 0.23576 0.81271 0.95115 0.0
C154 C 0.26396 0.77855 0.99099 0.0
C155 C 0.23425 0.76132 0.03931 0.0
C156 C 0.15518 0.81868 1.01296 0.0
C157 C 0.18196 0.78352 0.05142 0.0
C158 C 0.06492 0.79265 0.78624 0.0
C159 C 0.15333 0.87029 0.92054 0.0
H160 H 0.86458 0.97884 0.6024 0.0
H161 H 0.91289 0.91452 0.44081 0.0
H162 H 0.99731 0.85842 0.58511 0.0
H163 H 0.98138 0.85536 0.48515 0.0
H164 H 0.25673 0.82464 0.91235 0.0
H165 H 0.25118 0.73171 0.06899 0.0
H166 H 0.11428 0.83469 0.02309 0.0
H167 H 0.16193 0.77304 0.09102 0.0
Tb168 Tb 0.42103 0.69889 0.98299 0.0
C169 C 0.28992 0.89026 0.06456 0.0
C170 C 0.29712 0.94338 0.97795 0.0
C171 C 0.22629 0.96734 0.04607 0.0
C172 C 0.31661 0.90095 1.01493 0.0
C173 C 0.24458 0.92331 0.08103 0.0
C174 C 0.25225 0.97697 0.99413 0.0
C175 C 0.23559 0.86413 0.1631 0.0
N176 N 0.3076 0.84622 0.09621 0.0
C177 C 0.28061 0.83285 0.14458 0.0
C178 C 0.21908 0.91085 0.1322 0.0
Tb179 Tb 0.3926 0.80926 0.07448 0.0
N180 N 0.35936 0.86697 1.00141 0.0
C181 C 0.38334 0.8732 0.94935 0.0
C182 C 0.32239 0.94985 0.92546 0.0
C183 C 0.36531 0.914 0.91085 0.0
H184 H 0.29668 0.80084 0.16993 0.0
H185 H 0.3845 0.91745 0.86975 0.0
H186 H 0.23705 1.00996 0.96663 0.0
H187 H 0.2148 0.85362 0.20189 0.0
H188 H 0.41445 0.84516 0.93563 0.0
H189 H 0.6021 0.56833 0.97892 0.0
H190 H 0.30833 0.98141 0.8956 0.0
H191 H 0.3589 0.77018 0.87858 0.0
H192 H 0.52305 0.61761 0.02373 0.0
H193 H 0.37736 0.79529 0.78036 0.0
H194 H 0.19141 0.99314 0.05817 0.0
H195 H 0.63516 0.59838 0.88504 0.0
H196 H 0.62119 0.65891 0.79874 0.0
H197 H 0.18801 0.9377 0.14899 0.0
H198 H 0.55903 0.72045 0.74397 0.0
N199 N 0.50697 0.66886 0.95276 0.0
C200 C 0.53655 0.62979 0.98215 0.0
C201 C 0.59943 0.61865 0.90352 0.0
C202 C 0.56992 0.6596 0.87381 0.0
C203 C 0.58095 0.60181 0.95675 0.0
C204 C 0.52194 0.68214 0.89885 0.0
H205 H 0.46661 0.76935 0.73591 0.0
N206 N 0.43743 0.73069 0.89212 0.0
C207 C 0.40843 0.77275 0.80445 0.0
C208 C 0.48557 0.71392 0.86712 0.0
C209 C 0.39817 0.75831 0.86077 0.0
C210 C 0.45884 0.75807 0.77948 0.0
C211 C 0.49807 0.72791 0.81073 0.0
O212 O 0.35403 0.65433 0.94406 0.0
O213 O 0.36891 0.77058 1.00003 0.0
O214 O 0.34648 0.71875 0.08312 0.0
O215 O 0.41154 0.65304 0.05603 0.0
O216 O 0.33074 0.70861 0.95872 0.0
O217 O 0.4275 0.61114 0.96837 0.0
O218 O 0.39422 0.86242 0.14628 0.0
O219 O 0.44544 0.73557 0.07444 0.0
O220 O 0.4833 0.764 0.96368 0.0
O221 O 0.47169 0.83353 0.02994 0.0
O222 O 0.40978 0.76356 0.15205 0.0
O223 O 0.45173 0.87612 0.07763 0.0
C224 C 0.32158 0.75682 0.97971 0.0
C225 C 0.38448 0.58864 0.87942 0.0
C226 C 0.3384 0.57708 0.78792 0.0
C227 C 0.3355 0.57735 0.84725 0.0
C228 C 0.38655 0.60007 0.76236 0.0
C229 C 0.43548 0.59233 0.8509 0.0
C230 C 0.43621 0.60313 0.79319 0.0
C231 C 0.36215 0.66318 0.07497 0.0
C232 C 0.38155 0.60827 0.93866 0.0
C233 C 0.54842 0.70983 0.7871 0.0
C234 C 0.584 0.67512 0.8184 0.0
C235 C 0.44287 0.7269 0.13108 0.0
C236 C 0.4739 0.92624 0.16178 0.0
C237 C 0.47325 0.98629 0.16723 0.0
C238 C 0.51147 1.01505 0.20366 0.0
C239 C 0.55212 0.98267 0.23143 0.0
C240 C 0.51523 0.89601 0.19013 0.0
C241 C 0.55431 0.92418 0.22417 0.0
C242 C 0.49782 0.81254 0.98596 0.0
C243 C 0.43283 0.8961 0.12468 0.0
H244 H 0.29551 0.57108 0.8676 0.0
H245 H 0.38878 0.60468 0.71706 0.0
H246 H 0.47436 0.58997 0.87357 0.0
H247 H 0.47553 0.61084 0.77181 0.0
H248 H 0.44215 1.01023 0.14452 0.0
H249 H 0.58253 1.00251 0.2591 0.0
H250 H 0.51725 0.85058 0.18591 0.0
H251 H 0.58613 0.9004 0.2459 0.0
Tb252 Tb 0.5902 0.16434 0.22799 0.0
C253 C 0.4281 1.0145 0.29683 0.0
C254 C 0.35169 0.03306 0.23245 0.0
C255 C 0.37495 0.93643 0.25546 0.0
C256 C 0.39694 0.05261 0.26604 0.0
C257 C 0.41843 0.95596 0.2905 0.0
C258 C 0.34115 0.9749 0.22714 0.0
C259 C 0.49401 0.93968 0.35565 0.0
N260 N 0.46965 0.03453 0.33081 0.0
C261 C 0.50001 0.99792 0.36267 0.0
C262 C 0.45433 0.91877 0.31775 0.0
Tb263 Tb 0.48684 0.12997 0.32704 0.0
N264 N 0.40989 0.10862 0.27023 0.0
C265 C 0.37231 0.14693 0.24949 0.0
C266 C 0.31762 0.07247 0.20602 0.0
C267 C 0.32715 0.12965 0.21583 0.0
H268 H 0.53022 1.01322 0.39215 0.0
H269 H 0.29891 0.16054 0.19853 0.0
H270 H 0.30721 0.95929 0.20095 0.0
H271 H 0.5206 0.91111 0.37874 0.0
H272 H 0.37461 0.1911 0.25982 0.0
H273 H 0.75374 0.32125 0.24142 0.0
H274 H 0.28245 0.05914 0.18007 0.0
H275 H 0.46383 0.17931 0.15759 0.0
H276 H 0.68628 0.24939 0.27952 0.0
H277 H 0.4354 0.22029 0.06671 0.0
H278 H 0.3672 0.89165 0.2499 0.0
H279 H 0.74597 0.35097 0.14206 0.0
H280 H 0.68494 0.35515 0.05313 0.0
H281 H 0.45136 0.87385 0.31003 0.0
H282 H 0.59745 0.32684 1.00505 0.0
N283 N 0.64073 0.24284 0.20388 0.0
C284 C 0.68132 0.26561 0.23757 0.0
C285 C 0.71464 0.32245 0.15948 0.0
C286 C 0.66897 0.30322 0.12712 0.0
C287 C 0.71954 0.30536 0.21568 0.0
C288 C 0.63279 0.26232 0.15085 0.0
H289 H 0.50284 0.27759 1.01057 0.0
N290 N 0.54831 0.21073 0.15258 0.0
C291 C 0.47775 0.227 0.08193 0.0
C292 C 0.58428 0.24549 0.12379 0.0
C293 C 0.49427 0.20367 0.13356 0.0
C294 C 0.51602 0.2591 0.05018 0.0
C295 C 0.56962 0.27012 0.07182 0.0
O296 O 0.623 0.08748 0.19754 0.0
O297 O 0.53044 0.10095 0.25655 0.0
O298 O 0.57582 0.08589 0.33919 0.0
O299 O 0.64311 0.14411 0.29591 0.0
O300 O 0.5341 0.11007 0.17491 0.0
O301 O 0.67142 0.16182 0.19286 0.0
O302 O 0.4429 0.10379 0.39987 0.0
O303 O 0.56302 0.1787 0.31941 0.0
O304 O 0.55439 0.24171 0.257 0.0
O305 O 0.46738 0.20448 0.27111 0.0
O306 O 0.52232 0.17673 0.39644 0.0
O307 O 0.43012 0.18638 0.36307 0.0
C308 C 0.51132 0.07833 0.21246 0.0
C309 C 0.66845 0.1058 0.11134 0.0
C310 C 0.71648 0.08361 0.02401 0.0
C311 C 0.71383 0.08138 0.08335 0.0
C312 C 0.67289 0.10833 0.9934 0.0
C313 C 0.62401 0.12595 0.07853 0.0
C314 C 0.62667 0.12874 1.0205 0.0
C315 C 0.6311 0.09886 0.32497 0.0
C316 C 0.66562 0.11135 0.17363 0.0
C317 C 0.60745 0.30799 0.04544 0.0
C318 C 0.65716 0.32443 0.07304 0.0
C319 C 0.56654 0.19452 0.37263 0.0
C320 C 0.35081 0.14391 0.40851 0.0
C321 C 0.31867 0.1859 0.43591 0.0
C322 C 0.25986 0.17828 0.44377 0.0
C323 C 0.23398 0.12936 0.42219 0.0
C324 C 0.32283 0.09528 0.38884 0.0
C325 C 0.26507 0.08852 0.39499 0.0
C326 C 0.50007 0.24848 0.25765 0.0
C327 C 0.41317 0.14997 0.40122 0.0
H328 H 0.74573 0.05962 0.10697 0.0
H329 H 0.67252 0.10843 0.9481 0.0
H330 H 0.58603 0.13845 0.09685 0.0
H331 H 0.59198 0.14524 0.99643 0.0
H332 H 0.33943 0.22352 0.45201 0.0
H333 H 0.18967 0.12141 0.42818 0.0
H334 H 0.34564 0.06191 0.36912 0.0
H335 H 0.24432 0.05064 0.37955 0.0
Tb336 Tb 0.63289 0.21539 0.55581 0.0
C337 C 0.79402 0.34923 0.44182 0.0
C338 C 0.80515 0.42585 0.50727 0.0
C339 C 0.8861 0.38868 0.46057 0.0
C340 C 0.77173 0.38476 0.48031 0.0
C341 C 0.85121 0.35222 0.42937 0.0
C342 C 0.86324 0.42614 0.49917 0.0
C343 C 0.83409 0.28452 0.35564 0.0
N344 N 0.75867 0.31392 0.4142 0.0
C345 C 0.77726 0.2841 0.36931 0.0
C346 C 0.87141 0.31747 0.38713 0.0
Tb347 Tb 0.66796 0.31054 0.44468 0.0
N348 N 0.71598 0.38173 0.48814 0.0
C349 C 0.68961 0.42571 0.5123 0.0
C350 C 0.77858 0.46554 0.54045 0.0
C351 C 0.72032 0.46726 0.54093 0.0
H352 H 0.74851 0.25783 0.34619 0.0
H353 H 0.6992 0.50053 0.56287 0.0
H354 H 0.89045 0.45538 0.52161 0.0
H355 H 0.84927 0.25862 0.32188 0.0
H356 H 0.64505 0.42935 0.50856 0.0
H357 H 0.55858 0.95298 0.49025 0.0
H358 H 0.80224 0.49613 0.56371 0.0
H359 H 0.55118 0.28211 0.6576 0.0
H360 H 0.66574 0.07614 0.54954 0.0
H361 H 0.45292 0.30923 0.65591 0.0
H362 H 0.93051 0.38674 0.45615 0.0
H363 H 0.45 0.99207 0.49664 0.0
H364 H 0.38519 0.07787 0.51339 0.0
H365 H 0.91545 0.31506 0.37911 0.0
H366 H 0.36327 0.17435 0.53891 0.0
N367 N 0.58599 0.1283 0.56179 0.0
C368 C 0.62007 0.07444 0.5464 0.0
C369 C 0.4842 1.01827 0.51218 0.0
C370 C 0.47148 0.08405 0.53739 0.0
C371 C 0.55124 0.99461 0.50795 0.0
C372 C 0.52062 0.13311 0.56001 0.0
H373 H 0.38671 0.26296 0.58883 0.0
N374 N 0.541 0.22205 0.59083 0.0
C375 C 0.46656 0.27517 0.62955 0.0
C376 C 0.50254 0.18509 0.57058 0.0
C377 C 0.52227 0.25872 0.631 0.0
C378 C 0.42952 0.24886 0.59184 0.0
C379 C 0.44574 0.19845 0.56705 0.0
O380 O 0.64777 0.24081 0.63752 0.0
O381 O 0.67887 0.2924 0.53185 0.0
O382 O 0.71671 0.22575 0.44492 0.0
O383 O 0.66358 0.15834 0.49261 0.0
O384 O 0.72432 0.23081 0.56583 0.0
O385 O 0.67918 0.16124 0.61293 0.0
O386 O 0.67568 0.36178 0.37118 0.0
O387 O 0.61113 0.24036 0.46138 0.0
O388 O 0.59745 0.29788 0.56951 0.0
O389 O 0.58918 0.33955 0.48348 0.0
O390 O 0.6452 0.25489 0.37869 0.0
O391 O 0.60728 0.37236 0.4277 0.0
C392 C 0.72639 0.28407 0.55412 0.0
C393 C 0.67836 0.18547 0.71443 0.0
C394 C 0.72475 0.15549 0.8034 0.0
C395 C 0.72467 0.16039 0.74338 0.0
C396 C 0.67927 0.17866 0.83246 0.0
C397 C 0.63365 0.20554 0.74638 0.0
C398 C 0.63478 0.2032 0.80452 0.0
C399 C 0.70545 0.17074 0.45984 0.0
C400 C 0.67833 0.1988 0.65265 0.0
C401 C 0.40605 0.16101 0.54342 0.0
C402 C 0.418 0.10491 0.53045 0.0
C403 C 0.61154 0.22334 0.40755 0.0
C404 C 0.59916 0.42138 0.33978 0.0
C405 C 0.56754 0.47125 0.35019 0.0
C406 C 0.5375 0.4985 0.30562 0.0
C407 C 0.53633 0.47205 0.25353 0.0
C408 C 0.60301 0.40249 0.28482 0.0
C409 C 0.57323 0.42881 0.24248 0.0
C410 C 0.57398 0.33489 0.5365 0.0
C411 C 0.63307 0.39299 0.38425 0.0
H412 H 0.75849 0.14265 0.71948 0.0
H413 H 0.67519 0.17418 0.8774 0.0
H414 H 0.59766 0.22432 0.72647 0.0
H415 H 0.5999 0.21907 0.82825 0.0
H416 H 0.56765 0.48941 0.39186 0.0
H417 H 0.51109 0.48796 0.21954 0.0
H418 H 0.63014 0.36822 0.27405 0.0
H419 H 0.58195 0.41782 0.19992 0.0
Tb420 Tb 0.97312 0.4314 0.70308 0.0
C421 C 1.01483 0.29556 0.90922 0.0
C422 C 0.93203 0.32844 0.95441 0.0
C423 C 0.98641 0.2551 0.99877 0.0
C424 C 0.97219 0.33288 0.91134 0.0
C425 C 0.01991 0.25329 0.95058 0.0
C426 C 0.94232 0.29314 1.00068 0.0
C427 C 0.08002 0.20487 0.88707 0.0
N428 N 0.04529 0.29548 0.86136 0.0
C429 C 0.07431 0.24883 0.84838 0.0
C430 C 0.05498 0.20845 0.93989 0.0
Tb431 Tb 0.04989 0.38183 0.81685 0.0
N432 N 0.96522 0.36614 0.8655 0.0
C433 C 0.91369 0.39022 0.85717 0.0
C434 C 0.88126 0.35578 0.94747 0.0
C435 C 0.87097 0.38431 0.89718 0.0
H436 H 0.09165 0.24462 0.80836 0.0
H437 H 0.83114 0.40432 0.89027 0.0
H438 H 0.91477 0.29312 0.03632 0.0
H439 H 0.10314 0.16849 0.87505 0.0
H440 H 0.90572 0.41664 0.82131 0.0
H441 H 0.09279 0.52722 0.53808 0.0
H442 H 0.84877 0.35246 0.97908 0.0
H443 H 0.86646 0.4919 0.77803 0.0
H444 H 0.08115 0.46706 0.61643 0.0
H445 H 0.78676 0.54986 0.7511 0.0
H446 H 0.99215 0.22518 0.03273 0.0
H447 H 1.01538 0.58397 0.49857 0.0
H448 H 0.91198 0.60441 0.50293 0.0
H449 H 0.05893 0.1748 0.97036 0.0
H450 H 0.82599 0.60431 0.55936 0.0
N451 N 0.99739 0.49185 0.63232 0.0
C452 C 0.04689 0.49331 0.60457 0.0
C453 C 1.00983 0.5591 0.53666 0.0
C454 C 0.95889 0.55675 0.56462 0.0
C455 C 0.05392 0.52805 0.55814 0.0
C456 C 0.9556 0.52612 0.61549 0.0
H457 H 0.78038 0.58861 0.65465 0.0
N458 N 0.91104 0.50549 0.701 0.0
C459 C 0.82128 0.54524 0.72225 0.0
C460 C 0.90992 0.53137 0.64994 0.0
C461 C 0.86758 0.51345 0.73791 0.0
C462 C 0.8178 0.56693 0.66776 0.0
C463 C 0.86317 0.5616 0.63129 0.0
O464 O 0.89107 0.40534 0.71892 0.0
O465 O 0.97721 0.37081 0.77113 0.0
O466 O 0.06936 0.33529 0.72923 0.0
O467 O 0.03379 0.3919 0.65468 0.0
O468 O 0.95514 0.33976 0.69496 0.0
O469 O 0.92251 0.405 0.63209 0.0
O470 O 0.10932 0.36494 0.88131 0.0
O471 O 0.06139 0.43922 0.74722 0.0
O472 O 0.97433 0.50302 0.76226 0.0
O473 O 1.00713 0.45982 0.84275 0.0
O474 O 0.13078 0.39147 0.77573 0.0
O475 O 0.07212 0.44643 0.87376 0.0
C476 C 0.96124 0.32581 0.7467 0.0
C477 C 0.82155 0.37912 0.65013 0.0
C478 C 0.74792 0.3245 0.59891 0.0
C479 C 0.80546 0.33695 0.61027 0.0
C480 C 0.70827 0.35156 0.63225 0.0
C481 C 0.7794 0.40543 0.68066 0.0
C482 C 0.72354 0.39152 0.67204 0.0
C483 C 0.06264 0.34912 0.6722 0.0
C484 C 0.88104 0.39172 0.66648 0.0
C485 C 0.86289 0.5843 0.57628 0.0
C486 C 0.91137 0.58348 0.54362 0.0
C487 C 0.11659 0.43007 0.74046 0.0
C488 C 0.15319 0.44188 0.9322 0.0
C489 C 0.15185 0.45936 0.98982 0.0
C490 C 0.19905 0.48725 1.01482 0.0
C491 C 0.24523 0.4994 0.97981 0.0
C492 C 0.20192 0.45111 0.90098 0.0
C493 C 0.24759 0.47913 0.92489 0.0
C494 C 0.98248 0.50275 0.81713 0.0
C495 C 0.10389 0.41442 0.90454 0.0
H496 H 0.8371 0.31356 0.5897 0.0
H497 H 0.66464 0.34143 0.62876 0.0
H498 H 0.78938 0.43517 0.71338 0.0
H499 H 0.69169 0.41139 0.69693 0.0
H500 H 0.11507 0.45023 1.01506 0.0
H501 H 0.28152 0.52183 0.99578 0.0
H502 H 0.20468 0.43667 0.85796 0.0
H503 H 0.28583 0.48373 0.90112 0.0
Tb504 Tb 0.9141 0.82853 0.07822 0.0
C505 C 0.74394 0.69607 0.99486 0.0
C506 C 0.75672 0.61052 0.04885 0.0
C507 C 0.66429 0.64843 0.03829 0.0
C508 C 0.77904 0.65739 1.01893 0.0
C509 C 0.68557 0.69095 1.00291 0.0
C510 C 0.69953 0.60746 0.05977 0.0
C511 C 0.67481 0.77447 0.94689 0.0
N512 N 0.76697 0.74101 0.9672 0.0
C513 C 0.73291 0.78065 0.94514 0.0
C514 C 0.65084 0.73053 0.97782 0.0
Tb515 Tb 0.8631 0.74862 0.96755 0.0
N516 N 0.83469 0.6639 1.01038 0.0
C517 C 0.8675 0.61748 1.01922 0.0
C518 C 0.79229 0.5678 0.0662 0.0
C519 C 0.84776 0.57032 0.04936 0.0
H520 H 0.74999 0.81892 0.93078 0.0
H521 H 0.87506 0.53532 0.05798 0.0
H522 H 0.68232 0.57404 0.08513 0.0
H523 H 0.64877 0.80505 0.9267 0.0
H524 H 0.90894 0.6147 1.00162 0.0
H525 H 0.07048 0.99465 0.06055 0.0
H526 H 0.77671 0.53121 0.08923 0.0
H527 H 0.91051 0.70837 0.15396 0.0
H528 H 0.99178 0.93589 0.02498 0.0
H529 H 0.96553 0.6675 0.23261 0.0
H530 H 0.62085 0.64751 0.05043 0.0
H531 H 0.10885 0.97682 0.15432 0.0
H532 H 0.1273 0.90375 0.23074 0.0
H533 H 0.60591 0.7285 0.98314 0.0
H534 H 0.1051 0.81062 0.2726 0.0
N535 N 0.99424 0.87861 0.09413 0.0
C536 C 1.01196 0.92448 0.06381 0.0
C537 C 0.07957 0.94664 0.13626 0.0
C538 C 0.06625 0.89566 0.16344 0.0
C539 C 0.05579 0.95847 0.0841 0.0
C540 C 0.02285 0.86184 0.14087 0.0
H541 H 0.04677 0.72075 0.27164 0.0
N542 N 0.9641 0.78058 0.14506 0.0
C543 C 0.97809 0.70768 0.21419 0.0
C544 C 1.00828 0.81069 0.1664 0.0
C545 C 0.94755 0.73039 0.1693 0.0
C546 C 0.02396 0.7379 0.23613 0.0
C547 C 0.03884 0.79064 0.21301 0.0
O548 O 0.87347 0.81411 0.15488 0.0
O549 O 0.84814 0.7642 0.05579 0.0
O550 O 0.83684 0.84495 0.96662 0.0
O551 O 0.90063 0.89725 0.02277 0.0
O552 O 0.82474 0.8431 0.07947 0.0
O553 O 0.90076 0.89918 0.13139 0.0
O554 O 0.83554 0.7077 0.89282 0.0
O555 O 0.93096 0.80523 0.98594 0.0
O556 O 0.98269 0.77199 0.06231 0.0
O557 O 0.93119 0.70659 1.01328 0.0
O558 O 0.8929 0.80851 0.90489 0.0
O559 O 0.92113 0.70518 0.91767 0.0
C560 C 0.80569 0.79338 0.07033 0.0
C561 C 0.87145 0.87979 0.22927 0.0
C562 C 0.82439 0.92163 0.31074 0.0
C563 C 0.83112 0.91675 0.2517 0.0
C564 C 0.85358 0.88488 0.34602 0.0
C565 C 0.90284 0.84691 0.26678 0.0
C566 C 0.8935 0.84897 0.32451 0.0
C567 C 0.86024 0.89536 0.98576 0.0
C568 C 0.87288 0.8675 0.16794 0.0
C569 C 0.08189 0.82461 0.23597 0.0
C570 C 0.0946 0.87762 0.21207 0.0
C571 C 0.93541 0.82611 0.93414 0.0
C572 C 0.88771 0.62381 0.87103 0.0
C573 C 0.93339 0.59834 0.8419 0.0
C574 C 0.94686 0.54066 0.85319 0.0
C575 C 0.91806 0.51416 0.89773 0.0
C576 C 0.85015 0.58786 0.89962 0.0
C577 C 0.86682 0.53416 0.91558 0.0
C578 C 0.97646 0.7214 0.04164 0.0
C579 C 0.88441 0.68622 0.88177 0.0
H580 H 0.80557 0.94171 0.22356 0.0
H581 H 0.84404 0.88303 0.39035 0.0
H582 H 0.93233 0.81702 0.25153 0.0
H583 H 0.91624 0.82141 0.35261 0.0
H584 H 0.95908 0.62329 0.81325 0.0
H585 H 0.93318 0.47586 0.91646 0.0
H586 H 0.81152 0.60359 0.91651 0.0
H587 H 0.84137 0.50918 0.94438 0.0
Tb588 Tb 0.44605 0.65048 0.31694 0.0
C589 C 0.62288 0.52383 0.17121 0.0
C590 C 0.69797 0.50361 0.23599 0.0
C591 C 0.69541 0.45946 0.1442 0.0
C592 C 0.64927 0.53328 0.22163 0.0
C593 C 0.64424 0.485 0.13272 0.0
C594 C 0.72193 0.46786 0.19624 0.0
C595 C 0.56425 0.50235 0.07388 0.0
N596 N 0.575 0.5519 0.16086 0.0
C597 C 0.54558 0.54194 0.11264 0.0
C598 C 0.61422 0.47448 0.08336 0.0
Tb599 Tb 0.55814 0.62718 0.2176 0.0
N600 N 0.6245 0.56874 0.25794 0.0
C601 C 0.64623 0.57449 0.3112 0.0
C602 C 0.72052 0.51028 0.28983 0.0
C603 C 0.69392 0.54517 0.32789 0.0
H604 H 0.50867 0.56574 0.1034 0.0
H605 H 0.71024 0.54974 0.37019 0.0
H606 H 0.7605 0.44626 0.20547 0.0
H607 H 0.54155 0.49454 0.03565 0.0
H608 H 0.62666 0.60019 0.34225 0.0
H609 H 0.18387 0.73349 0.25139 0.0
H610 H 0.75757 0.48784 0.30277 0.0
H611 H 0.51094 0.69624 0.43511 0.0
H612 H 0.30837 0.61531 0.28431 0.0
H613 H 0.51801 0.78169 0.49232 0.0
H614 H 0.71474 0.43368 0.11277 0.0
H615 H 0.22213 0.84 0.29625 0.0
H616 H 0.29855 0.89446 0.35871 0.0
H617 H 0.62921 0.44526 0.0523 0.0
H618 H 0.37609 0.89983 0.42429 0.0
N619 N 0.36113 0.69271 0.31977 0.0
C620 C 0.30688 0.66058 0.29296 0.0
C621 C 0.24993 0.80454 0.29658 0.0
C622 C 0.31678 0.81196 0.329 0.0
C623 C 0.22507 0.73785 0.27112 0.0
C624 C 0.36683 0.75799 0.33824 0.0
H625 H 0.45639 0.86155 0.47292 0.0
N626 N 0.45109 0.72931 0.37731 0.0
C627 C 0.48878 0.77966 0.45747 0.0
C628 C 0.41208 0.77039 0.37087 0.0
C629 C 0.48536 0.73154 0.42405 0.0
C630 C 0.45365 0.82453 0.44644 0.0
C631 C 0.41275 0.81971 0.40434 0.0
O632 O 0.46174 0.6159 0.39851 0.0
O633 O 0.52342 0.60375 0.29766 0.0
O634 O 0.472 0.58003 0.19926 0.0
O635 O 0.39847 0.62737 0.24259 0.0
O636 O 0.45563 0.55741 0.32182 0.0
O637 O 0.38102 0.60601 0.36085 0.0
O638 O 0.62403 0.63975 0.15803 0.0
O639 O 0.48061 0.67392 0.22538 0.0
O640 O 0.50771 0.72093 0.31896 0.0
O641 O 0.5855 0.67245 0.29331 0.0
O642 O 0.52157 0.66863 0.14662 0.0
O643 O 0.60783 0.70246 0.21796 0.0
C644 C 0.50793 0.55393 0.31172 0.0
C645 C 0.3836 0.60043 0.46308 0.0
C646 C 0.33981 0.56029 0.55127 0.0
C647 C 0.35745 0.5539 0.49365 0.0
C648 C 0.35499 0.61101 0.57762 0.0
C649 C 0.38642 0.65271 0.48999 0.0
C650 C 0.37485 0.65741 0.54699 0.0
C651 C 0.41559 0.58832 0.20828 0.0
C652 C 0.41088 0.5952 0.40546 0.0
C653 C 0.37255 0.86252 0.39827 0.0
C654 C 0.32771 0.86007 0.36018 0.0
C655 C 0.47974 0.69083 0.17079 0.0
C656 C 0.6663 0.73235 0.14036 0.0
C657 C 0.72433 0.73469 0.12262 0.0
C658 C 0.74507 0.78008 0.08732 0.0
C659 C 0.7076 0.82377 0.07505 0.0
C660 C 0.63167 0.77681 0.12505 0.0
C661 C 0.65264 0.8225 0.09444 0.0
C662 C 0.56239 0.71478 0.31946 0.0
C663 C 0.64203 0.6872 0.17878 0.0
H664 H 0.35147 0.51355 0.47321 0.0
H665 H 0.35046 0.61527 0.62248 0.0
H666 H 0.39895 0.69013 0.46757 0.0
H667 H 0.3818 0.69744 0.56783 0.0
H668 H 0.75264 0.70227 0.13654 0.0
H669 H 0.72139 0.86056 0.05105 0.0
H670 H 0.58846 0.77737 0.13874 0.0
H671 H 0.62629 0.8582 0.08724 0.0
Tb672 Tb 0.22659 0.57666 0.16346 0.0
C673 C 0.35328 0.42185 1.00465 0.0
C674 C 0.28743 0.34524 0.9843 0.0
C675 C 0.36438 0.36528 0.92218 0.0
C676 C 0.30482 0.39144 1.01749 0.0
C677 C 0.3823 0.41031 0.95524 0.0
C678 C 0.31951 0.33049 0.9383 0.0
C679 C 0.44668 0.48635 0.97676 0.0
N680 N 0.37138 0.4631 0.03987 0.0
C681 C 0.41864 0.49419 0.02753 0.0
C682 C 0.42875 0.44386 0.94073 0.0
Tb683 Tb 0.32062 0.47211 0.11998 0.0
N684 N 0.27558 0.40635 0.06341 0.0
C685 C 0.22723 0.37665 0.0772 0.0
C686 C 0.23859 0.31517 0.99821 0.0
C687 C 0.20795 0.3315 0.04459 0.0
H688 H 0.43394 0.52624 0.05586 0.0
H689 H 0.16964 0.30897 0.05569 0.0
H690 H 0.30925 0.29287 0.91466 0.0
H691 H 0.48219 0.5129 0.96524 0.0
H692 H 0.20187 0.38714 0.11265 0.0
H693 H 0.34604 0.77343 0.24093 0.0
H694 H 0.22393 0.27979 0.97314 0.0
H695 H 0.12309 0.48551 0.2007 0.0
H696 H 0.29552 0.70916 0.16288 0.0
H697 H 0.04586 0.48697 0.26914 0.0
H698 H 0.38508 0.35753 0.8843 0.0
H699 H 0.28477 0.73131 0.33199 0.0
H700 H 0.16687 0.71083 0.39557 0.0
H701 H 0.45147 0.43696 0.90235 0.0
H702 H 0.08194 0.65467 0.37361 0.0
N703 N 0.2414 0.65191 0.22155 0.0
C704 C 0.28541 0.69985 0.20517 0.0
C705 C 0.26796 0.71928 0.35101 0.0
C706 C 0.2194 0.66792 0.34071 0.0
C707 C 0.31349 0.74318 0.25451 0.0
C708 C 0.21017 0.63713 0.27798 0.0
H709 H 0.04242 0.56321 0.33932 0.0
N710 N 0.16502 0.55803 0.23459 0.0
C711 C 0.0794 0.51824 0.27145 0.0
C712 C 0.16655 0.59723 0.27619 0.0
C713 C 0.12344 0.51725 0.23316 0.0
C714 C 0.07769 0.56137 0.3109 0.0
C715 C 0.12212 0.60074 0.31443 0.0
O716 O 0.19354 0.61213 0.08781 0.0
O717 O 0.2493 0.51761 0.0999 0.0
O718 O 0.3389 0.55835 0.07437 0.0
O719 O 0.29712 0.6214 0.13396 0.0
O720 O 0.16791 0.52337 0.10877 0.0
O721 O 0.17398 0.6474 0.16641 0.0
O722 O 0.35301 0.43835 0.19667 0.0
O723 O 0.31737 0.5447 0.17408 0.0
O724 O 0.23406 0.51494 0.2345 0.0
O725 O 0.24646 0.44981 0.16911 0.0
O726 O 0.39563 0.50824 0.15338 0.0
O727 O 0.33581 0.3853 0.12744 0.0
C728 C 0.20474 0.50109 0.07704 0.0
C729 C 0.09989 0.64068 0.10148 0.0
C730 C 1.01113 0.6764 0.06576 0.0
C731 C 0.06991 0.68162 0.07087 0.0
C732 C 0.98322 0.63092 0.09225 0.0
C733 C 0.06994 0.59487 0.12487 0.0
C734 C 1.01245 0.58976 0.12037 0.0
C735 C 0.32771 0.61227 0.09062 0.0
C736 C 0.16087 0.64618 0.11365 0.0
C737 C 0.12087 0.64524 0.35281 0.0
C738 C 0.16973 0.67452 0.36889 0.0
C739 C 0.37304 0.54821 0.18183 0.0
C740 C 0.41137 0.36193 0.18215 0.0
C741 C 0.42383 0.31702 0.22018 0.0
C742 C 0.47977 0.2988 0.22477 0.0
C743 C 0.52 0.32768 0.192 0.0
C744 C 0.45208 0.38286 0.14505 0.0
C745 C 0.50588 0.3647 0.14913 0.0
C746 C 0.23964 0.46135 0.2223 0.0
C747 C 0.35664 0.3876 0.17749 0.0
H748 H 0.09119 0.71748 0.05214 0.0
H749 H 0.93846 0.62956 0.09592 0.0
H750 H 0.0903 0.56355 0.14856 0.0
H751 H 0.99028 0.55519 0.14112 0.0
H752 H 0.39123 0.29776 0.24585 0.0
H753 H 0.56368 0.32194 0.19931 0.0
H754 H 0.44274 0.4148 0.11389 0.0
H755 H 0.53771 0.38249 0.12163 0.0
Tb756 Tb 0.74799 0.99431 0.895 0.0
C757 C 0.88538 0.14532 0.04617 0.0
C758 C 0.82283 0.22262 0.05997 0.0
C759 C 0.89947 0.20873 0.12555 0.0
C760 C 0.83974 0.17495 0.02957 0.0
C761 C 0.9163 0.16197 0.09422 0.0
C762 C 0.85226 0.23876 0.10874 0.0
C763 C 0.97894 0.08638 0.07569 0.0
N764 N 0.90078 0.10141 1.01382 0.0
C765 C 0.94741 0.07197 0.02779 0.0
C766 C 0.96368 0.13174 0.10873 0.0
Tb767 Tb 0.85681 0.09152 0.92809 0.0
N768 N 0.81395 0.15903 0.98143 0.0
C769 C 0.7721 0.19131 0.96005 0.0
C770 C 0.7789 0.25435 0.03879 0.0
C771 C 0.75306 0.23846 0.98865 0.0
H772 H 0.96082 0.03815 1.00134 0.0
H773 H 0.72005 0.26372 0.97082 0.0
H774 H 0.83984 0.27514 0.1327 0.0
H775 H 1.01538 0.06324 0.08749 0.0
H776 H 0.7551 0.18216 0.9197 0.0
H777 H 0.81106 0.77099 0.81371 0.0
H778 H 0.76686 0.29268 0.05919 0.0
H779 H 0.61929 0.04715 0.8547 0.0
H780 H 0.78374 0.83761 0.83079 0.0
H781 H 0.57762 0.08138 0.76635 0.0
H782 H 0.92261 0.22195 0.16262 0.0
H783 H 0.80789 0.85025 0.65862 0.0
H784 H 0.77333 0.95388 0.61708 0.0
H785 H 0.98857 0.14284 0.14536 0.0
H786 H 0.71097 0.034 0.62497 0.0
N787 N 0.75244 0.92936 0.82642 0.0
C788 C 0.76946 0.86984 0.8493 0.0
C789 C 0.79452 0.86537 0.69964 0.0
C790 C 0.7686 0.93184 0.70432 0.0
C791 C 0.79543 0.81848 0.80274 0.0
C792 C 0.74884 0.9577 0.76685 0.0
H793 H 0.62902 0.0727 0.67702 0.0
N794 N 0.69317 1.01612 0.81544 0.0
C795 C 0.61727 0.06005 0.76565 0.0
C796 C 0.71599 1.00291 0.7655 0.0
C797 C 0.64072 0.03951 0.81564 0.0
C798 C 0.64664 0.05529 0.71523 0.0
C799 C 0.69614 0.02463 0.71414 0.0
O800 O 0.66675 0.99585 0.9292 0.0
O801 O 0.77227 0.06783 0.94355 0.0
O802 O 0.86223 1.00348 0.9762 0.0
O803 O 0.81657 0.94349 0.91396 0.0
O804 O 0.7453 0.99905 0.98687 0.0
O805 O 0.71348 0.921 0.93415 0.0
O806 O 0.9361 0.13008 0.91371 0.0
O807 O 0.84264 1.01712 0.87746 0.0
O808 O 0.72774 0.07747 0.86535 0.0
O809 O 0.81255 0.11892 0.84837 0.0
O810 O 0.92464 0.04949 0.89178 0.0
O811 O 0.86012 0.16858 0.88423 0.0
C812 C 0.75745 0.05157 0.99211 0.0
C813 C 0.61534 0.911 0.92755 0.0
C814 C 0.5338 0.84988 0.94881 0.0
C815 C 0.57911 0.88421 0.96741 0.0
C816 C 0.52249 0.84903 0.8906 0.0
C817 C 0.60432 0.90547 0.86998 0.0
C818 C 0.55734 0.87581 0.85173 0.0
C819 C 0.84473 0.95024 0.96005 0.0
C820 C 0.66565 0.94342 0.94464 0.0
C821 C 0.72263 1.01181 0.66292 0.0
C822 C 0.75867 0.96601 0.65797 0.0
C823 C 0.89777 1.00871 0.86854 0.0
C824 C 0.94062 0.18937 0.83141 0.0
C825 C 0.93612 0.24603 0.81379 0.0
C826 C 0.9643 0.26613 0.7656 0.0
C827 C 0.99012 0.22687 0.73074 0.0
C828 C 0.9684 0.15125 0.79692 0.0
C829 C 0.99153 0.16995 0.74603 0.0
C830 C 0.75845 0.11325 0.83649 0.0
C831 C 0.91443 0.17168 0.88502 0.0
H832 H 0.58699 0.88887 1.01168 0.0
H833 H 0.48592 0.82801 0.87451 0.0
H834 H 0.63191 0.92438 0.83902 0.0
H835 H 0.54808 0.87307 0.8072 0.0
H836 H 0.91018 0.27399 0.83749 0.0
H837 H 1.00887 0.24001 0.69127 0.0
H838 H 0.97119 0.10712 0.80844 0.0
H839 H 1.01019 0.14045 0.7178 0.0
Tb840 Tb 0.71785 0.97467 0.42991 0.0
C841 C 0.84597 0.07073 0.25342 0.0
C842 C 0.92318 1.00949 0.23669 0.0
C843 C 0.87063 0.04726 0.15794 0.0
C844 C 0.88531 0.03498 0.27343 0.0
C845 C 0.84024 0.08013 0.19549 0.0
C846 C 0.91449 1.01433 0.17848 0.0
C847 C 0.7903 0.16434 0.21736 0.0
N848 N 0.81902 0.10221 0.29139 0.0
C849 C 0.79576 0.15181 0.27454 0.0
C850 C 0.80885 0.12593 0.17781 0.0
Tb851 Tb 0.82226 0.07179 0.38309 0.0
N852 N 0.88997 0.03004 0.32968 0.0
C853 C 0.93627 1.00533 0.35248 0.0
C854 C 0.96827 0.98049 0.25976 0.0
C855 C 0.97544 0.97932 0.31804 0.0
H856 H 0.77882 0.17982 0.3052 0.0
H857 H 1.01127 0.95877 0.33645 0.0
H858 H 0.94236 0.99442 0.14924 0.0
H859 H 0.77128 0.20294 0.20358 0.0
H860 H 0.94402 1.00619 0.3972 0.0
H861 H 0.52343 0.11585 0.46339 0.0
H862 H 0.9983 0.96028 0.23309 0.0
H863 H 0.7848 0.86731 0.4865 0.0
H864 H 0.5813 0.07122 0.46147 0.0
H865 H 0.77106 0.80049 0.56511 0.0
H866 H 0.86383 0.0507 0.11313 0.0
H867 H 0.51697 0.04637 0.62045 0.0
H868 H 0.56595 0.95694 0.67302 0.0
H869 H 0.80292 0.13472 0.1338 0.0
H870 H 0.62569 0.87492 0.67417 0.0
N871 N 0.64714 1.00566 0.48245 0.0
C872 C 0.61257 0.05077 0.45038 0.0
C873 C 0.54675 0.03964 0.58641 0.0
C874 C 0.59743 0.98966 0.5949 0.0
C875 C 0.55557 0.0824 0.48267 0.0
C876 C 0.64359 0.97653 0.5422 0.0
H877 H 0.69426 0.81406 0.63155 0.0
N878 N 0.71987 0.92214 0.51214 0.0
C879 C 0.74557 0.83768 0.56197 0.0
C880 C 0.67885 0.93177 0.55086 0.0
C881 C 0.75334 0.87582 0.51776 0.0
C882 C 0.70251 0.84595 0.60007 0.0
C883 C 0.67002 0.8944 0.59698 0.0
O884 O 0.72025 0.88975 0.40523 0.0
O885 O 0.79607 0.98609 0.38312 0.0
O886 O 0.73502 0.08751 0.34053 0.0
O887 O 0.66924 1.02009 0.37076 0.0
O888 O 0.73393 0.94695 0.34274 0.0
O889 O 0.64066 0.93151 0.41343 0.0
O890 O 0.88955 0.13152 0.37623 0.0
O891 O 0.74584 0.06906 0.4335 0.0
O892 O 0.78322 0.97944 0.49693 0.0
O893 O 0.85273 1.0006 0.435 0.0
O894 O 0.78804 0.14617 0.4156 0.0
O895 O 0.86941 0.09249 0.45538 0.0
C896 C 0.78518 0.96163 0.33738 0.0
C897 C 0.63912 0.82924 0.40521 0.0
C898 C 0.59656 0.74447 0.36275 0.0
C899 C 0.60998 0.80287 0.36011 0.0
C900 C 0.61486 0.71288 0.4093 0.0
C901 C 0.64931 0.79772 0.45399 0.0
C902 C 0.63884 0.73975 0.45556 0.0
C903 C 0.68152 0.06647 0.3444 0.0
C904 C 0.66606 0.88581 0.39758 0.0
C905 C 0.63015 0.90454 0.63942 0.0
C906 C 0.59598 0.95183 0.63955 0.0
C907 C 0.7455 0.125 0.44129 0.0
C908 C 0.92752 0.1747 0.4599 0.0
C909 C 0.98402 0.17581 0.47874 0.0
C910 C 1.00551 0.22137 0.51133 0.0
C911 C 0.96885 0.26387 0.52665 0.0
C912 C 0.89257 0.2182 0.47578 0.0
C913 C 0.91343 0.26214 0.50866 0.0
C914 C 0.83717 0.98255 0.48552 0.0
C915 C 0.90452 0.12545 0.42875 0.0
H916 H 0.59952 0.82698 0.32275 0.0
H917 H 0.6063 0.66788 0.41192 0.0
H918 H 0.66622 0.81755 0.49053 0.0
H919 H 0.64907 0.7156 0.49293 0.0
H920 H 1.01049 0.14036 0.4698 0.0
H921 H 0.98188 0.29769 0.55418 0.0
H922 H 0.84894 0.2181 0.4637 0.0
H923 H 0.88623 0.29506 0.52067 0.0
Tb924 Tb 0.31079 0.4386 0.67546 0.0
C925 C 0.19038 0.60558 0.53739 0.0
C926 C 0.21121 0.7039 0.55128 0.0
C927 C 0.13632 0.67421 0.4881 0.0
C928 C 0.21566 0.64703 0.56798 0.0
C929 C 0.15418 0.61828 0.49336 0.0
C930 C 0.16916 0.71777 0.51225 0.0
C931 C 0.1655 0.52257 0.4621 0.0
N932 N 0.20033 0.55201 0.55216 0.0
C933 C 0.1972 0.51196 0.51063 0.0
C934 C 0.13801 0.57397 0.45772 0.0
Tb935 Tb 0.21111 0.54288 0.64889 0.0
N936 N 0.23954 0.63176 0.61704 0.0
C937 C 0.26429 0.67294 0.64981 0.0
C938 C 0.24182 0.74476 0.58096 0.0
C939 C 0.26901 0.72892 0.63051 0.0
H940 H 0.21622 0.47133 0.51471 0.0
H941 H 0.28992 0.76059 0.65607 0.0
H942 H 0.15956 0.76143 0.50322 0.0
H943 H 0.15749 0.48971 0.43173 0.0
H944 H 0.28008 0.66424 0.69136 0.0
H945 H 0.22483 0.1819 0.77027 0.0
H946 H 0.24065 0.78892 0.56889 0.0
H947 H 0.41714 0.50974 0.72951 0.0
H948 H 0.21254 0.3321 0.68767 0.0
H949 H 0.50333 0.49441 0.78121 0.0
H950 H 0.10117 0.68491 0.46169 0.0
H951 H 0.324 0.1836 0.83225 0.0
H952 H 0.42001 0.23242 0.85073 0.0
H953 H 0.10361 0.57717 0.42891 0.0
H954 H 0.49277 0.30433 0.83979 0.0
N955 N 0.29981 0.35292 0.72305 0.0
C956 C 0.24724 0.31502 0.71132 0.0
C957 C 0.31326 0.21984 0.80678 0.0
C958 C 0.35785 0.27682 0.80336 0.0
C959 C 0.253 0.21869 0.76821 0.0
C960 C 0.34959 0.33724 0.76325 0.0
H961 H 0.52314 0.40017 0.81894 0.0
N962 N 0.38111 0.42928 0.74432 0.0
C963 C 0.47182 0.46106 0.77847 0.0
C964 C 0.39078 0.37741 0.76758 0.0
C965 C 0.42107 0.47076 0.75133 0.0
C966 C 0.48319 0.40756 0.79868 0.0
C967 C 0.44226 0.36492 0.79497 0.0
O968 O 0.38562 0.47216 0.64536 0.0
O969 O 0.29513 0.52253 0.63838 0.0
O970 O 0.19263 0.45515 0.60693 0.0
O971 O 0.25908 0.38536 0.62567 0.0
O972 O 0.31643 0.46233 0.58381 0.0
O973 O 0.36807 0.38312 0.63358 0.0
O974 O 0.13203 0.58049 0.6487 0.0
O975 O 0.21656 0.46293 0.69426 0.0
O976 O 0.30518 0.48862 0.75243 0.0
O977 O 0.27862 0.56904 0.70708 0.0
O978 O 0.14003 0.50815 0.68682 0.0
O979 O 0.18667 0.59155 0.71958 0.0
C980 C 0.30916 0.51584 0.5874 0.0
C981 C 0.4633 0.42256 0.61158 0.0
C982 C 0.54564 0.38226 0.56554 0.0
C983 C 0.48665 0.38526 0.57168 0.0
C984 C 0.57939 0.41907 0.5977 0.0
C985 C 0.49931 0.46217 0.6378 0.0
C986 C 0.55665 0.45985 0.6315 0.0
C987 C 0.21211 0.40101 0.60344 0.0
C988 C 0.40175 0.42611 0.62163 0.0
C989 C 0.45239 0.31205 0.82054 0.0
C990 C 0.41044 0.27073 0.82784 0.0
C991 C 0.16169 0.46536 0.70965 0.0
C992 C 0.12169 0.66598 0.70046 0.0
C993 C 0.10152 0.6946 0.74938 0.0
C994 C 0.09834 0.75507 0.74833 0.0
C995 C 0.12337 0.78317 0.70271 0.0
C996 C 0.12526 0.69744 0.65086 0.0
C997 C 0.13081 0.75557 0.65246 0.0
C998 C 0.29916 0.54378 0.75202 0.0
C999 C 0.13832 0.60502 0.69764 0.0
H1000 H 0.45949 0.35722 0.54776 0.0
H1001 H 0.62397 0.41673 0.5977 0.0
H1002 H 0.48374 0.496 0.66297 0.0
H1003 H 0.5838 0.48924 0.65385 0.0
H1004 H 0.0886 0.67086 0.78634 0.0
H1005 H 0.12702 0.82794 0.70181 0.0
H1006 H 0.12396 0.67674 0.61097 0.0
H1007 H 0.13769 0.77986 0.61433 0.0
loop_
_geom_bond_atom_site_label_1
_geom_bond_atom_site_label_2
_geom_bond_distance
_geom_bond_site_symmetry_2
_ccdc_geom_bond_type
Tb0 N31 2.660 . S
Tb0 N38 2.600 . S
Tb0 O44 2.546 . S
Tb0 O45 2.610 . S
Tb0 O47 2.320 . S
Tb0 O48 2.552 . S
Tb0 O49 2.413 . S
Tb0 O51 2.362 . S
Tb0 O52 2.421 . S
Tb0 C64 2.833 . S
C1 C4 1.430 1_655 S
C1 C5 1.414 . S
C1 N8 1.359 . S
C2 C4 1.415 1_655 S
C2 C6 1.432 . S
C2 C14 1.410 1_655 S
C3 C5 1.444 . S
C3 C6 1.317 . S
C3 H26 0.929 . S
C4 C1 1.430 1_455 S
C4 C2 1.415 1_455 S
C4 N12 1.364 . S
C5 C1 1.414 . S
C5 C3 1.444 . S
C5 C10 1.385 . S
C6 C2 1.432 . S
C6 C3 1.317 . S
C6 H18 0.930 . S
C7 C9 1.392 . S
C7 C10 1.370 . S
C7 H19 0.931 . S
N8 C1 1.359 . S
N8 C9 1.327 . S
N8 Tb11 2.600 1_655 S
C9 C7 1.392 . S
C9 N8 1.327 . S
C9 H16 0.930 . S
C10 C5 1.385 . S
C10 C7 1.370 . S
C10 H29 0.930 . S
Tb11 N8 2.600 1_455 S
Tb11 N12 2.660 . S
Tb11 O45 2.362 . S
Tb11 O46 2.421 . S
Tb11 O50 2.546 . S
Tb11 O51 2.610 . S
Tb11 O53 2.320 . S
Tb11 O54 2.552 . S
Tb11 O55 2.413 . S
Tb11 C75 2.833 . S
N12 C4 1.364 . S
N12 Tb11 2.660 . S
N12 C13 1.305 . S
C13 N12 1.305 . S
C13 C15 1.407 . S
C13 H20 0.930 . S
C14 C2 1.410 1_455 S
C14 C15 1.345 . S
C14 H22 0.930 1_455 S
C15 C13 1.407 . S
C15 C14 1.345 . S
C15 H17 0.930 . S
H16 C9 0.930 . S
H17 C15 0.930 . S
H18 C6 0.930 . S
H19 C7 0.931 . S
H20 C13 0.930 . S
H21 C35 0.930 . S
H22 C14 0.930 1_655 S
H23 C41 0.930 . S
H24 C32 0.930 . S
H25 C39 0.931 . S
H26 C3 0.929 . S
H27 C33 0.930 . S
H28 C66 0.930 . S
H29 C10 0.930 . S
H30 C65 0.929 . S
N31 Tb0 2.660 . S
N31 C32 1.305 . S
N31 C36 1.360 . S
C32 H24 0.930 . S
C32 N31 1.305 . S
C32 C35 1.407 . S
C33 H27 0.930 . S
C33 C34 1.410 . S
C33 C35 1.345 . S
C34 C33 1.410 . S
C34 C36 1.417 . S
C34 C66 1.432 . S
C35 H21 0.930 . S
C35 C32 1.407 . S
C35 C33 1.345 . S
C36 N31 1.360 . S
C36 C34 1.417 . S
C36 C40 1.432 . S
H37 C42 0.930 . S
N38 Tb0 2.600 . S
N38 C40 1.359 . S
N38 C41 1.327 . S
C39 H25 0.931 . S
C39 C41 1.392 . S
C39 C42 1.370 . S
C40 C36 1.432 . S
C40 N38 1.359 . S
C40 C43 1.414 . S
C41 H23 0.930 . S
C41 N38 1.327 . S
C41 C39 1.392 . S
C42 H37 0.930 . S
C42 C39 1.370 . S
C42 C43 1.385 . S
C43 C40 1.414 . S
C43 C42 1.385 . S
C43 C65 1.444 . S
O44 Tb0 2.546 . S
O44 C64 1.251 . S
O45 Tb0 2.610 . S
O45 Tb11 2.362 . S
O45 C56 1.283 . S
O46 Tb11 2.421 . S
O46 C63 1.262 . S
O47 Tb0 2.320 . S
O47 C63 1.260 . S
O48 Tb0 2.552 . S
O48 C56 1.243 . S
O49 Tb0 2.413 . S
O49 C64 1.256 . S
O50 Tb11 2.546 . S
O50 C75 1.251 . S
O51 Tb0 2.362 . S
O51 Tb11 2.610 . S
O51 C67 1.283 . S
O52 Tb0 2.421 . S
O52 C74 1.262 . S
O53 Tb11 2.320 . S
O53 C74 1.260 . S
O54 Tb11 2.552 . S
O54 C67 1.243 . S
O55 Tb11 2.413 . S
O55 C75 1.256 . S
C56 O45 1.283 . S
C56 O48 1.243 . S
C57 C59 1.382 . S
C57 C61 1.393 . S
C57 C64 1.500 . S
C58 C59 1.400 . S
C58 C60 1.384 1_545 S
C59 C57 1.382 . S
C59 C58 1.400 . S
C59 H76 0.930 . S
C60 C58 1.384 1_565 S
C60 C62 1.392 . S
C60 H77 0.931 . S
C61 C57 1.393 . S
C61 C62 1.401 1_545 S
C61 H78 0.930 . S
C62 C60 1.392 . S
C62 C61 1.401 1_565 S
C62 H79 0.930 . S
C63 O46 1.262 . S
C63 O47 1.260 . S
C64 Tb0 2.833 . S
C64 O44 1.251 . S
C64 O49 1.256 . S
C64 C57 1.500 . S
C65 H30 0.929 . S
C65 C43 1.444 . S
C65 C66 1.317 . S
C66 H28 0.930 . S
C66 C34 1.432 . S
C66 C65 1.317 . S
C67 O51 1.283 . S
C67 O54 1.243 . S
C68 C69 1.382 . S
C68 C72 1.393 . S
C68 C75 1.500 . S
C69 C68 1.382 . S
C69 C70 1.400 . S
C69 H80 0.930 . S
C70 C69 1.400 . S
C70 C71 1.384 . S
C71 C70 1.384 . S
C71 C73 1.392 . S
C71 H81 0.931 . S
C72 C68 1.393 . S
C72 C73 1.401 . S
C72 H82 0.930 . S
C73 C71 1.392 . S
C73 C72 1.401 . S
C73 H83 0.930 . S
C74 O52 1.262 . S
C74 O53 1.260 . S
C75 Tb11 2.833 . S
C75 O50 1.251 . S
C75 O55 1.256 . S
C75 C68 1.500 . S
H76 C59 0.930 . S
H77 C60 0.931 . S
H78 C61 0.930 . S
H79 C62 0.930 . S
H80 C69 0.930 . S
H81 C71 0.931 . S
H82 C72 0.930 . S
H83 C73 0.930 . S
Tb84 N115 2.660 . S
Tb84 N122 2.600 . S
Tb84 O128 2.546 . S
Tb84 O129 2.610 1_655 S
Tb84 O131 2.320 . S
Tb84 O132 2.552 . S
Tb84 O133 2.413 . S
Tb84 O135 2.362 . S
Tb84 O136 2.421 1_655 S
Tb84 C148 2.833 . S
C85 C88 1.432 1_545 S
C85 C89 1.414 . S
C85 N92 1.359 . S
C86 C88 1.417 1_545 S
C86 C90 1.432 . S
C86 C98 1.410 1_545 S
C87 C89 1.444 . S
C87 C90 1.317 . S
C87 H110 0.929 . S
C88 C85 1.432 1_565 S
C88 C86 1.417 1_565 S
C88 N96 1.360 . S
C89 C85 1.414 . S
C89 C87 1.444 . S
C89 C94 1.385 . S
C90 C86 1.432 . S
C90 C87 1.317 . S
C90 H102 0.930 . S
C91 C93 1.392 . S
C91 C94 1.370 . S
C91 H103 0.931 . S
N92 C85 1.359 . S
N92 C93 1.327 . S
N92 Tb95 2.600 1_545 S
C93 C91 1.392 . S
C93 N92 1.327 . S
C93 H100 0.930 . S
C94 C89 1.385 . S
C94 C91 1.370 . S
C94 H113 0.930 . S
Tb95 N92 2.600 1_565 S
Tb95 N96 2.660 . S
Tb95 O129 2.362 . S
Tb95 O130 2.421 1_455 S
Tb95 O134 2.546 . S
Tb95 O135 2.610 1_455 S
Tb95 O137 2.320 . S
Tb95 O138 2.552 . S
Tb95 O139 2.413 . S
Tb95 C159 2.833 . S
N96 C88 1.360 . S
N96 Tb95 2.660 . S
N96 C97 1.305 . S
C97 N96 1.305 . S
C97 C99 1.407 . S
C97 H104 0.930 . S
C98 C86 1.410 1_565 S
C98 C99 1.345 . S
C98 H106 0.930 1_565 S
C99 C97 1.407 . S
C99 C98 1.345 . S
C99 H101 0.930 . S
H100 C93 0.930 . S
H101 C99 0.930 . S
H102 C90 0.930 . S
H103 C91 0.931 . S
H104 C97 0.930 . S
H105 C119 0.930 . S
H106 C98 0.930 1_545 S
H107 C125 0.930 . S
H108 C116 0.930 . S
H109 C123 0.931 . S
H110 C87 0.929 . S
H111 C117 0.930 . S
H112 C150 0.930 . S
H113 C94 0.930 . S
H114 C149 0.929 . S
N115 Tb84 2.660 . S
N115 C116 1.305 . S
N115 C120 1.360 . S
C116 H108 0.930 . S
C116 N115 1.305 . S
C116 C119 1.407 . S
C117 H111 0.930 . S
C117 C118 1.410 . S
C117 C119 1.345 . S
C118 C117 1.410 . S
C118 C120 1.417 . S
C118 C150 1.432 . S
C119 H105 0.930 . S
C119 C116 1.407 . S
C119 C117 1.345 . S
C120 N115 1.360 . S
C120 C118 1.417 . S
C120 C124 1.432 . S
H121 C126 0.930 . S
N122 Tb84 2.600 . S
N122 C124 1.359 . S
N122 C125 1.327 . S
C123 H109 0.931 . S
C123 C125 1.392 . S
C123 C126 1.370 . S
C124 C120 1.432 . S
C124 N122 1.359 . S
C124 C127 1.414 . S
C125 H107 0.930 . S
C125 N122 1.327 . S
C125 C123 1.392 . S
C126 H121 0.930 . S
C126 C123 1.370 . S
C126 C127 1.385 . S
C127 C124 1.414 . S
C127 C126 1.385 . S
C127 C149 1.444 . S
O128 Tb84 2.546 . S
O128 C148 1.251 . S
O129 Tb84 2.610 1_455 S
O129 Tb95 2.362 . S
O129 C140 1.283 . S
O130 Tb95 2.421 1_655 S
O130 C147 1.262 . S
O131 Tb84 2.320 . S
O131 C147 1.260 . S
O132 Tb84 2.552 . S
O132 C140 1.243 1_655 S
O133 Tb84 2.413 . S
O133 C148 1.256 . S
O134 Tb95 2.546 . S
O134 C159 1.251 . S
O135 Tb84 2.362 . S
O135 Tb95 2.610 1_655 S
O135 C151 1.283 . S
O136 Tb84 2.421 1_455 S
O136 C158 1.262 . S
O137 Tb95 2.320 . S
O137 C158 1.260 . S
O138 Tb95 2.552 . S
O138 C151 1.243 1_455 S
O139 Tb95 2.413 . S
O139 C159 1.256 . S
C140 O129 1.283 . S
C140 O132 1.243 1_455 S
C141 C143 1.382 . S
C141 C145 1.393 . S
C141 C148 1.500 . S
C142 C143 1.400 . S
C142 C144 1.384 . S
C143 C141 1.382 . S
C143 C142 1.400 . S
C143 H160 0.930 . S
C144 C142 1.384 . S
C144 C146 1.392 . S
C144 H161 0.931 . S
C145 C141 1.393 . S
C145 C146 1.401 . S
C145 H162 0.930 . S
C146 C144 1.392 . S
C146 C145 1.401 . S
C146 H163 0.930 . S
C147 O130 1.262 . S
C147 O131 1.260 . S
C148 Tb84 2.833 . S
C148 O128 1.251 . S
C148 O133 1.256 . S
C148 C141 1.500 . S
C149 H114 0.929 . S
C149 C127 1.444 . S
C149 C150 1.317 . S
C150 H112 0.930 . S
C150 C118 1.432 . S
C150 C149 1.317 . S
C151 O135 1.283 . S
C151 O138 1.243 1_655 S
C152 C153 1.382 . S
C152 C156 1.393 . S
C152 C159 1.500 . S
C153 C152 1.382 . S
C153 C154 1.397 1_556 S
C153 H164 0.930 . S
C154 C153 1.397 1_554 S
C154 C155 1.387 . S
C155 C154 1.387 . S
C155 C157 1.392 . S
C155 H165 0.931 . S
C156 C152 1.393 . S
C156 C157 1.401 1_556 S
C156 H166 0.930 . S
C157 C155 1.392 . S
C157 C156 1.401 1_554 S
C157 H167 0.930 . S
C158 O136 1.262 . S
C158 O137 1.260 . S
C159 Tb95 2.833 . S
C159 O134 1.251 . S
C159 O139 1.256 . S
C159 C152 1.500 . S
H160 C143 0.930 . S
H161 C144 0.931 . S
H162 C145 0.930 . S
H163 C146 0.930 . S
H164 C153 0.930 . S
H165 C155 0.931 . S
H166 C156 0.930 . S
H167 C157 0.930 . S
Tb168 N199 2.660 . S
Tb168 N206 2.600 . S
Tb168 O212 2.546 . S
Tb168 O213 2.610 . S
Tb168 O215 2.320 1_556 S
Tb168 O216 2.552 . S
Tb168 O217 2.413 . S
Tb168 O219 2.362 1_556 S
Tb168 O220 2.421 . S
Tb168 C232 2.833 . S
C169 C172 1.432 . S
C169 C173 1.414 . S
C169 N176 1.359 . S
C170 C172 1.417 1_556 S
C170 C174 1.432 1_556 S
C170 C182 1.410 . S
C171 C173 1.444 . S
C171 C174 1.317 . S
C171 H194 0.929 . S
C172 C169 1.432 . S
C172 C170 1.417 1_554 S
C172 N180 1.360 . S
C173 C169 1.414 . S
C173 C171 1.444 . S
C173 C178 1.385 . S
C174 C170 1.432 1_554 S
C174 C171 1.317 . S
C174 H186 0.930 1_554 S
C175 C177 1.392 . S
C175 C178 1.370 . S
C175 H187 0.931 . S
N176 C169 1.359 . S
N176 C177 1.327 . S
N176 Tb179 2.600 . S
C177 C175 1.392 . S
C177 N176 1.327 . S
C177 H184 0.930 . S
C178 C173 1.385 . S
C178 C175 1.370 . S
C178 H197 0.930 . S
Tb179 N176 2.600 . S
Tb179 N180 2.660 . S
Tb179 O213 2.362 1_554 S
Tb179 O214 2.421 . S
Tb179 O218 2.546 . S
Tb179 O219 2.610 . S
Tb179 O221 2.320 1_554 S
Tb179 O222 2.552 . S
Tb179 O223 2.413 . S
Tb179 C243 2.833 . S
N180 C172 1.360 . S
N180 Tb179 2.660 . S
N180 C181 1.305 1_554 S
C181 N180 1.305 1_556 S
C181 C183 1.407 . S
C181 H188 0.930 . S
C182 C170 1.410 . S
C182 C183 1.345 . S
C182 H190 0.930 . S
C183 C181 1.407 . S
C183 C182 1.345 . S
C183 H185 0.930 . S
H184 C177 0.930 . S
H185 C183 0.930 . S
H186 C174 0.930 1_556 S
H187 C175 0.931 . S
H188 C181 0.930 . S
H189 C203 0.930 . S
H190 C182 0.930 . S
H191 C209 0.930 . S
H192 C200 0.930 . S
H193 C207 0.931 . S
H194 C171 0.929 . S
H195 C201 0.930 . S
H196 C234 0.930 1_554 S
H197 C178 0.930 . S
H198 C233 0.929 . S
N199 Tb168 2.660 . S
N199 C200 1.305 1_556 S
N199 C204 1.360 . S
C200 H192 0.930 . S
C200 N199 1.305 1_554 S
C200 C203 1.407 . S
C201 H195 0.930 . S
C201 C202 1.410 . S
C201 C203 1.345 . S
C202 C201 1.410 . S
C202 C204 1.417 1_554 S
C202 C234 1.432 1_554 S
C203 H189 0.930 . S
C203 C200 1.407 . S
C203 C201 1.345 . S
C204 N199 1.360 . S
C204 C202 1.417 1_556 S
C204 C208 1.432 . S
H205 C210 0.930 . S
N206 Tb168 2.600 . S
N206 C208 1.359 . S
N206 C209 1.327 . S
C207 H193 0.931 . S
C207 C209 1.392 . S
C207 C210 1.370 . S
C208 C204 1.432 . S
C208 N206 1.359 . S
C208 C211 1.414 . S
C209 H191 0.930 . S
C209 N206 1.327 . S
C209 C207 1.392 . S
C210 H205 0.930 . S
C210 C207 1.370 . S
C210 C211 1.385 . S
C211 C208 1.414 . S
C211 C210 1.385 . S
C211 C233 1.444 . S
O212 Tb168 2.546 . S
O212 C232 1.251 . S
O213 Tb168 2.610 . S
O213 Tb179 2.362 1_556 S
O213 C224 1.283 . S
O214 Tb179 2.421 . S
O214 C231 1.262 . S
O215 Tb168 2.320 1_554 S
O215 C231 1.260 . S
O216 Tb168 2.552 . S
O216 C224 1.243 . S
O217 Tb168 2.413 . S
O217 C232 1.256 . S
O218 Tb179 2.546 . S
O218 C243 1.251 . S
O219 Tb168 2.362 1_554 S
O219 Tb179 2.610 . S
O219 C235 1.283 . S
O220 Tb168 2.421 . S
O220 C242 1.262 . S
O221 Tb179 2.320 1_556 S
O221 C242 1.260 . S
O222 Tb179 2.552 . S
O222 C235 1.243 . S
O223 Tb179 2.413 . S
O223 C243 1.256 . S
C224 O213 1.283 . S
C224 O216 1.243 . S
C225 C227 1.382 . S
C225 C229 1.393 . S
C225 C232 1.500 . S
C226 C227 1.400 . S
C226 C228 1.384 . S
C227 C225 1.382 . S
C227 C226 1.400 . S
C227 H244 0.930 . S
C228 C226 1.384 . S
C228 C230 1.392 . S
C228 H245 0.931 . S
C229 C225 1.393 . S
C229 C230 1.401 . S
C229 H246 0.930 . S
C230 C228 1.392 . S
C230 C229 1.401 . S
C230 H247 0.930 . S
C231 O214 1.262 . S
C231 O215 1.260 . S
C232 Tb168 2.833 . S
C232 O212 1.251 . S
C232 O217 1.256 . S
C232 C225 1.500 . S
C233 H198 0.929 . S
C233 C211 1.444 . S
C233 C234 1.317 . S
C234 H196 0.930 1_556 S
C234 C202 1.432 1_556 S
C234 C233 1.317 . S
C235 O219 1.283 . S
C235 O222 1.243 . S
C236 C237 1.382 . S
C236 C240 1.393 . S
C236 C243 1.500 . S
C237 C236 1.382 . S
C237 C238 1.400 . S
C237 H248 0.930 . S
C238 C237 1.400 . S
C238 C239 1.384 . S
C239 C238 1.384 . S
C239 C241 1.392 . S
C239 H249 0.931 . S
C240 C236 1.393 . S
C240 C241 1.401 . S
C240 H250 0.930 . S
C241 C239 1.392 . S
C241 C240 1.401 . S
C241 H251 0.930 . S
C242 O220 1.262 . S
C242 O221 1.260 . S
C243 Tb179 2.833 . S
C243 O218 1.251 . S
C243 O223 1.256 . S
C243 C236 1.500 . S
H244 C227 0.930 . S
H245 C228 0.931 . S
H246 C229 0.930 . S
H247 C230 0.930 . S
H248 C237 0.930 . S
H249 C239 0.931 . S
H250 C240 0.930 . S
H251 C241 0.930 . S
Tb252 N283 2.660 . S
Tb252 N290 2.600 . S
Tb252 O296 2.546 . S
Tb252 O297 2.610 . S
Tb252 O299 2.320 . S
Tb252 O300 2.552 . S
Tb252 O301 2.413 . S
Tb252 O303 2.362 . S
Tb252 O304 2.421 . S
Tb252 C316 2.833 . S
C253 C256 1.432 . S
C253 C257 1.414 . S
C253 N260 1.359 . S
C254 C256 1.417 . S
C254 C258 1.432 . S
C254 C266 1.410 1_565 S
C255 C257 1.444 . S
C255 C258 1.317 . S
C255 H278 0.929 . S
C256 C253 1.432 . S
C256 C254 1.417 . S
C256 N264 1.360 1_565 S
C257 C253 1.414 . S
C257 C255 1.444 . S
C257 C262 1.385 . S
C258 C254 1.432 . S
C258 C255 1.317 . S
C258 H270 0.930 . S
C259 C261 1.392 . S
C259 C262 1.370 . S
C259 H271 0.931 . S
N260 C253 1.359 . S
N260 C261 1.327 . S
N260 Tb263 2.600 1_565 S
C261 C259 1.392 . S
C261 N260 1.327 . S
C261 H268 0.930 . S
C262 C257 1.385 . S
C262 C259 1.370 . S
C262 H281 0.930 . S
Tb263 N260 2.600 1_545 S
Tb263 N264 2.660 . S
Tb263 O297 2.362 . S
Tb263 O298 2.421 . S
Tb263 O302 2.546 . S
Tb263 O303 2.610 . S
Tb263 O305 2.320 . S
Tb263 O306 2.552 . S
Tb263 O307 2.413 . S
Tb263 C327 2.833 . S
N264 C256 1.360 1_545 S
N264 Tb263 2.660 . S
N264 C265 1.305 . S
C265 N264 1.305 . S
C265 C267 1.407 . S
C265 H272 0.930 . S
C266 C254 1.410 1_545 S
C266 C267 1.345 . S
C266 H274 0.930 1_545 S
C267 C265 1.407 . S
C267 C266 1.345 . S
C267 H269 0.930 . S
H268 C261 0.930 . S
H269 C267 0.930 . S
H270 C258 0.930 . S
H271 C259 0.931 . S
H272 C265 0.930 . S
H273 C287 0.930 . S
H274 C266 0.930 1_565 S
H275 C293 0.930 . S
H276 C284 0.930 . S
H277 C291 0.931 . S
H278 C255 0.929 . S
H279 C285 0.930 . S
H280 C318 0.930 . S
H281 C262 0.930 . S
H282 C317 0.929 . S
N283 Tb252 2.660 . S
N283 C284 1.305 . S
N283 C288 1.360 . S
C284 H276 0.930 . S
C284 N283 1.305 . S
C284 C287 1.407 . S
C285 H279 0.930 . S
C285 C286 1.410 . S
C285 C287 1.345 . S
C286 C285 1.410 . S
C286 C288 1.417 . S
C286 C318 1.432 . S
C287 H273 0.930 . S
C287 C284 1.407 . S
C287 C285 1.345 . S
C288 N283 1.360 . S
C288 C286 1.417 . S
C288 C292 1.432 . S
H289 C294 0.930 . S
N290 Tb252 2.600 . S
N290 C292 1.359 . S
N290 C293 1.327 . S
C291 H277 0.931 . S
C291 C293 1.392 . S
C291 C294 1.370 . S
C292 C288 1.432 . S
C292 N290 1.359 . S
C292 C295 1.414 . S
C293 H275 0.930 . S
C293 N290 1.327 . S
C293 C291 1.392 . S
C294 H289 0.930 . S
C294 C291 1.370 . S
C294 C295 1.385 . S
C295 C292 1.414 . S
C295 C294 1.385 . S
C295 C317 1.444 . S
O296 Tb252 2.546 . S
O296 C316 1.251 . S
O297 Tb252 2.610 . S
O297 Tb263 2.362 . S
O297 C308 1.283 . S
O298 Tb263 2.421 . S
O298 C315 1.262 . S
O299 Tb252 2.320 . S
O299 C315 1.260 . S
O300 Tb252 2.552 . S
O300 C308 1.243 . S
O301 Tb252 2.413 . S
O301 C316 1.256 . S
O302 Tb263 2.546 . S
O302 C327 1.251 . S
O303 Tb252 2.362 . S
O303 Tb263 2.610 . S
O303 C319 1.283 . S
O304 Tb252 2.421 . S
O304 C326 1.262 . S
O305 Tb263 2.320 . S
O305 C326 1.260 . S
O306 Tb263 2.552 . S
O306 C319 1.243 . S
O307 Tb263 2.413 . S
O307 C327 1.256 . S
C308 O297 1.283 . S
C308 O300 1.243 . S
C309 C311 1.382 . S
C309 C313 1.393 . S
C309 C316 1.500 . S
C310 C311 1.400 . S
C310 C312 1.384 1_554 S
C311 C309 1.382 . S
C311 C310 1.400 . S
C311 H328 0.930 . S
C312 C310 1.384 1_556 S
C312 C314 1.392 . S
C312 H329 0.931 . S
C313 C309 1.393 . S
C313 C314 1.401 1_554 S
C313 H330 0.930 . S
C314 C312 1.392 . S
C314 C313 1.401 1_556 S
C314 H331 0.930 . S
C315 O298 1.262 . S
C315 O299 1.260 . S
C316 Tb252 2.833 . S
C316 O296 1.251 . S
C316 O301 1.256 . S
C316 C309 1.500 . S
C317 H282 0.929 . S
C317 C295 1.444 . S
C317 C318 1.317 . S
C318 H280 0.930 . S
C318 C286 1.432 . S
C318 C317 1.317 . S
C319 O303 1.283 . S
C319 O306 1.243 . S
C320 C321 1.382 . S
C320 C324 1.393 . S
C320 C327 1.500 . S
C321 C320 1.382 . S
C321 C322 1.400 . S
C321 H332 0.930 . S
C322 C321 1.400 . S
C322 C323 1.384 . S
C323 C322 1.384 . S
C323 C325 1.392 . S
C323 H333 0.931 . S
C324 C320 1.393 . S
C324 C325 1.401 . S
C324 H334 0.930 . S
C325 C323 1.392 . S
C325 C324 1.401 . S
C325 H335 0.930 . S
C326 O304 1.262 . S
C326 O305 1.260 . S
C327 Tb263 2.833 . S
C327 O302 1.251 . S
C327 O307 1.256 . S
C327 C320 1.500 . S
H328 C311 0.930 . S
H329 C312 0.931 . S
H330 C313 0.930 . S
H331 C314 0.930 . S
H332 C321 0.930 . S
H333 C323 0.931 . S
H334 C324 0.930 . S
H335 C325 0.930 . S
Tb336 N367 2.660 . S
Tb336 N374 2.600 . S
Tb336 O380 2.546 . S
Tb336 O381 2.610 . S
Tb336 O383 2.320 . S
Tb336 O384 2.552 . S
Tb336 O385 2.413 . S
Tb336 O387 2.362 . S
Tb336 O388 2.421 . S
Tb336 C400 2.833 . S
C337 C340 1.432 . S
C337 C341 1.414 . S
C337 N344 1.359 . S
C338 C340 1.417 . S
C338 C342 1.432 . S
C338 C350 1.410 . S
C339 C341 1.444 . S
C339 C342 1.317 . S
C339 H362 0.929 . S
C340 C337 1.432 . S
C340 C338 1.417 . S
C340 N348 1.360 . S
C341 C337 1.414 . S
C341 C339 1.444 . S
C341 C346 1.385 . S
C342 C338 1.432 . S
C342 C339 1.317 . S
C342 H354 0.930 . S
C343 C345 1.392 . S
C343 C346 1.370 . S
C343 H355 0.931 . S
N344 C337 1.359 . S
N344 C345 1.327 . S
N344 Tb347 2.600 . S
C345 C343 1.392 . S
C345 N344 1.327 . S
C345 H352 0.930 . S
C346 C341 1.385 . S
C346 C343 1.370 . S
C346 H365 0.930 . S
Tb347 N344 2.600 . S
Tb347 N348 2.660 . S
Tb347 O381 2.362 . S
Tb347 O382 2.421 . S
Tb347 O386 2.546 . S
Tb347 O387 2.610 . S
Tb347 O389 2.320 . S
Tb347 O390 2.552 . S
Tb347 O391 2.413 . S
Tb347 C411 2.833 . S
N348 C340 1.360 . S
N348 Tb347 2.660 . S
N348 C349 1.305 . S
C349 N348 1.305 . S
C349 C351 1.407 . S
C349 H356 0.930 . S
C350 C338 1.410 . S
C350 C351 1.345 . S
C350 H358 0.930 . S
C351 C349 1.407 . S
C351 C350 1.345 . S
C351 H353 0.930 . S
H352 C345 0.930 . S
H353 C351 0.930 . S
H354 C342 0.930 . S
H355 C343 0.931 . S
H356 C349 0.930 . S
H357 C371 0.930 . S
H358 C350 0.930 . S
H359 C377 0.930 . S
H360 C368 0.930 . S
H361 C375 0.931 . S
H362 C339 0.929 . S
H363 C369 0.930 1_565 S
H364 C402 0.930 1_565 S
H365 C346 0.930 . S
H366 C401 0.929 . S
N367 Tb336 2.660 . S
N367 C368 1.305 . S
N367 C372 1.360 . S
C368 H360 0.930 . S
C368 N367 1.305 . S
C368 C371 1.407 . S
C369 H363 0.930 1_545 S
C369 C370 1.410 . S
C369 C371 1.345 . S
C370 C369 1.410 . S
C370 C372 1.417 . S
C370 C402 1.432 . S
C371 H357 0.930 . S
C371 C368 1.407 . S
C371 C369 1.345 . S
C372 N367 1.360 . S
C372 C370 1.417 . S
C372 C376 1.432 . S
H373 C378 0.930 . S
N374 Tb336 2.600 . S
N374 C376 1.359 . S
N374 C377 1.327 . S
C375 H361 0.931 . S
C375 C377 1.392 . S
C375 C378 1.370 . S
C376 C372 1.432 . S
C376 N374 1.359 . S
C376 C379 1.414 . S
C377 H359 0.930 . S
C377 N374 1.327 . S
C377 C375 1.392 . S
C378 H373 0.930 . S
C378 C375 1.370 . S
C378 C379 1.385 . S
C379 C376 1.414 . S
C379 C378 1.385 . S
C379 C401 1.444 . S
O380 Tb336 2.546 . S
O380 C400 1.251 . S
O381 Tb336 2.610 . S
O381 Tb347 2.362 . S
O381 C392 1.283 . S
O382 Tb347 2.421 . S
O382 C399 1.262 . S
O383 Tb336 2.320 . S
O383 C399 1.260 . S
O384 Tb336 2.552 . S
O384 C392 1.243 . S
O385 Tb336 2.413 . S
O385 C400 1.256 . S
O386 Tb347 2.546 . S
O386 C411 1.251 . S
O387 Tb336 2.362 . S
O387 Tb347 2.610 . S
O387 C403 1.283 . S
O388 Tb336 2.421 . S
O388 C410 1.262 . S
O389 Tb347 2.320 . S
O389 C410 1.260 . S
O390 Tb347 2.552 . S
O390 C403 1.243 . S
O391 Tb347 2.413 . S
O391 C411 1.256 . S
C392 O381 1.283 . S
C392 O384 1.243 . S
C393 C395 1.382 . S
C393 C397 1.393 . S
C393 C400 1.500 . S
C394 C395 1.400 . S
C394 C396 1.384 . S
C395 C393 1.382 . S
C395 C394 1.400 . S
C395 H412 0.930 . S
C396 C394 1.384 . S
C396 C398 1.392 . S
C396 H413 0.931 1_545 S
C397 C393 1.393 . S
C397 C398 1.401 . S
C397 H414 0.930 . S
C398 C396 1.392 . S
C398 C397 1.401 . S
C398 H415 0.930 . S
C399 O382 1.262 . S
C399 O383 1.260 . S
C400 Tb336 2.833 . S
C400 O380 1.251 . S
C400 O385 1.256 . S
C400 C393 1.500 . S
C401 H366 0.929 . S
C401 C379 1.444 . S
C401 C402 1.317 . S
C402 H364 0.930 1_545 S
C402 C370 1.432 . S
C402 C401 1.317 . S
C403 O387 1.283 . S
C403 O390 1.243 . S
C404 C405 1.382 . S
C404 C408 1.393 . S
C404 C411 1.500 . S
C405 C404 1.382 . S
C405 C406 1.400 . S
C405 H416 0.930 . S
C406 C405 1.400 . S
C406 C407 1.384 . S
C407 C406 1.384 . S
C407 C409 1.392 . S
C407 H417 0.931 . S
C408 C404 1.393 . S
C408 C409 1.401 . S
C408 H418 0.930 . S
C409 C407 1.392 . S
C409 C408 1.401 . S
C409 H419 0.930 . S
C410 O388 1.262 . S
C410 O389 1.260 . S
C411 Tb347 2.833 . S
C411 O386 1.251 . S
C411 O391 1.256 . S
C411 C404 1.500 . S
H412 C395 0.930 . S
H413 C396 0.931 1_565 S
H414 C397 0.930 . S
H415 C398 0.930 . S
H416 C405 0.930 . S
H417 C407 0.931 . S
H418 C408 0.930 . S
H419 C409 0.930 . S
Tb420 N451 2.660 . S
Tb420 N458 2.600 . S
Tb420 O464 2.546 . S
Tb420 O465 2.610 . S
Tb420 O467 2.320 1_655 S
Tb420 O468 2.552 . S
Tb420 O469 2.413 . S
Tb420 O471 2.362 1_655 S
Tb420 O472 2.421 . S
Tb420 C484 2.833 . S
C421 C424 1.432 . S
C421 C425 1.414 . S
C421 N428 1.359 . S
C422 C424 1.417 1_655 S
C422 C426 1.432 1_655 S
C422 C434 1.410 . S
C423 C425 1.444 . S
C423 C426 1.317 . S
C423 H446 0.929 . S
C424 C421 1.432 . S
C424 C422 1.417 1_455 S
C424 N432 1.360 . S
C425 C421 1.414 . S
C425 C423 1.444 . S
C425 C430 1.385 . S
C426 C422 1.432 1_455 S
C426 C423 1.317 . S
C426 H438 0.930 1_455 S
C427 C429 1.392 . S
C427 C430 1.370 . S
C427 H439 0.931 . S
N428 C421 1.359 . S
N428 C429 1.327 . S
N428 Tb431 2.600 . S
C429 C427 1.392 . S
C429 N428 1.327 . S
C429 H436 0.930 . S
C430 C425 1.385 . S
C430 C427 1.370 . S
C430 H449 0.930 . S
Tb431 N428 2.600 . S
Tb431 N432 2.660 . S
Tb431 O465 2.362 1_455 S
Tb431 O466 2.421 . S
Tb431 O470 2.546 . S
Tb431 O471 2.610 . S
Tb431 O473 2.320 1_455 S
Tb431 O474 2.552 . S
Tb431 O475 2.413 . S
Tb431 C495 2.833 . S
N432 C424 1.360 . S
N432 Tb431 2.660 . S
N432 C433 1.305 1_455 S
C433 N432 1.305 1_655 S
C433 C435 1.407 . S
C433 H440 0.930 . S
C434 C422 1.410 . S
C434 C435 1.345 . S
C434 H442 0.930 . S
C435 C433 1.407 . S
C435 C434 1.345 . S
C435 H437 0.930 . S
H436 C429 0.930 . S
H437 C435 0.930 . S
H438 C426 0.930 1_655 S
H439 C427 0.931 . S
H440 C433 0.930 . S
H441 C455 0.930 . S
H442 C434 0.930 . S
H443 C461 0.930 . S
H444 C452 0.930 . S
H445 C459 0.931 . S
H446 C423 0.929 . S
H447 C453 0.930 . S
H448 C486 0.930 1_455 S
H449 C430 0.930 . S
H450 C485 0.929 . S
N451 Tb420 2.660 . S
N451 C452 1.305 1_655 S
N451 C456 1.360 . S
C452 H444 0.930 . S
C452 N451 1.305 1_455 S
C452 C455 1.407 . S
C453 H447 0.930 . S
C453 C454 1.410 . S
C453 C455 1.345 . S
C454 C453 1.410 . S
C454 C456 1.417 1_455 S
C454 C486 1.432 1_455 S
C455 H441 0.930 . S
C455 C452 1.407 . S
C455 C453 1.345 . S
C456 N451 1.360 . S
C456 C454 1.417 1_655 S
C456 C460 1.432 . S
H457 C462 0.930 . S
N458 Tb420 2.600 . S
N458 C460 1.359 . S
N458 C461 1.327 . S
C459 H445 0.931 . S
C459 C461 1.392 . S
C459 C462 1.370 . S
C460 C456 1.432 . S
C460 N458 1.359 . S
C460 C463 1.414 . S
C461 H443 0.930 . S
C461 N458 1.327 . S
C461 C459 1.392 . S
C462 H457 0.930 . S
C462 C459 1.370 . S
C462 C463 1.385 . S
C463 C460 1.414 . S
C463 C462 1.385 . S
C463 C485 1.444 . S
O464 Tb420 2.546 . S
O464 C484 1.251 . S
O465 Tb420 2.610 . S
O465 Tb431 2.362 1_655 S
O465 C476 1.283 . S
O466 Tb431 2.421 . S
O466 C483 1.262 . S
O467 Tb420 2.320 1_455 S
O467 C483 1.260 . S
O468 Tb420 2.552 . S
O468 C476 1.243 . S
O469 Tb420 2.413 . S
O469 C484 1.256 . S
O470 Tb431 2.546 . S
O470 C495 1.251 . S
O471 Tb420 2.362 1_455 S
O471 Tb431 2.610 . S
O471 C487 1.283 . S
O472 Tb420 2.421 . S
O472 C494 1.262 . S
O473 Tb431 2.320 1_655 S
O473 C494 1.260 . S
O474 Tb431 2.552 . S
O474 C487 1.243 . S
O475 Tb431 2.413 . S
O475 C495 1.256 . S
C476 O465 1.283 . S
C476 O468 1.243 . S
C477 C479 1.382 . S
C477 C481 1.393 . S
C477 C484 1.500 . S
C478 C479 1.400 . S
C478 C480 1.384 . S
C479 C477 1.382 . S
C479 C478 1.400 . S
C479 H496 0.930 . S
C480 C478 1.384 . S
C480 C482 1.392 . S
C480 H497 0.931 . S
C481 C477 1.393 . S
C481 C482 1.401 . S
C481 H498 0.930 . S
C482 C480 1.392 . S
C482 C481 1.401 . S
C482 H499 0.930 . S
C483 O466 1.262 . S
C483 O467 1.260 . S
C484 Tb420 2.833 . S
C484 O464 1.251 . S
C484 O469 1.256 . S
C484 C477 1.500 . S
C485 H450 0.929 . S
C485 C463 1.444 . S
C485 C486 1.317 . S
C486 H448 0.930 1_655 S
C486 C454 1.432 1_655 S
C486 C485 1.317 . S
C487 O471 1.283 . S
C487 O474 1.243 . S
C488 C489 1.382 . S
C488 C492 1.393 . S
C488 C495 1.500 . S
C489 C488 1.382 . S
C489 C490 1.400 . S
C489 H500 0.930 . S
C490 C489 1.400 . S
C490 C491 1.384 . S
C491 C490 1.384 . S
C491 C493 1.392 . S
C491 H501 0.931 . S
C492 C488 1.393 . S
C492 C493 1.401 . S
C492 H502 0.930 . S
C493 C491 1.392 . S
C493 C492 1.401 . S
C493 H503 0.930 . S
C494 O472 1.262 . S
C494 O473 1.260 . S
C495 Tb431 2.833 . S
C495 O470 1.251 . S
C495 O475 1.256 . S
C495 C488 1.500 . S
H496 C479 0.930 . S
H497 C480 0.931 . S
H498 C481 0.930 . S
H499 C482 0.930 . S
H500 C489 0.930 . S
H501 C491 0.931 . S
H502 C492 0.930 . S
H503 C493 0.930 . S
Tb504 N535 2.660 . S
Tb504 N542 2.581 1_655 S
Tb504 O548 2.546 . S
Tb504 O549 2.610 . S
Tb504 O551 2.306 1_554 S
Tb504 O552 2.552 . S
Tb504 O553 2.413 . S
Tb504 O555 2.362 1_554 S
Tb504 O556 2.421 . S
Tb504 C568 2.833 . S
C505 C508 1.432 . S
C505 C509 1.414 . S
C505 N512 1.359 . S
C506 C508 1.417 1_554 S
C506 C510 1.432 1_554 S
C506 C518 1.410 . S
C507 C509 1.444 . S
C507 C510 1.317 . S
C507 H530 0.929 . S
C508 C505 1.432 . S
C508 C506 1.417 1_556 S
C508 N516 1.360 . S
C509 C505 1.414 . S
C509 C507 1.444 . S
C509 C514 1.385 . S
C510 C506 1.432 1_556 S
C510 C507 1.317 . S
C510 H522 0.930 1_556 S
C511 C513 1.392 . S
C511 C514 1.370 . S
C511 H523 0.931 . S
N512 C505 1.359 . S
N512 C513 1.327 . S
N512 Tb515 2.600 . S
C513 C511 1.392 . S
C513 N512 1.327 . S
C513 H520 0.930 . S
C514 C509 1.385 . S
C514 C511 1.370 . S
C514 H533 0.930 . S
Tb515 N512 2.600 . S
Tb515 N516 2.660 . S
Tb515 O549 2.362 1_556 S
Tb515 O550 2.421 . S
Tb515 O554 2.546 . S
Tb515 O555 2.610 . S
Tb515 O557 2.320 1_556 S
Tb515 O558 2.552 . S
Tb515 O559 2.413 . S
Tb515 C579 2.833 . S
N516 C508 1.360 . S
N516 Tb515 2.660 . S
N516 C517 1.305 1_556 S
C517 N516 1.305 1_554 S
C517 C519 1.407 . S
C517 H524 0.930 . S
C518 C506 1.410 . S
C518 C519 1.345 . S
C518 H526 0.930 . S
C519 C517 1.407 . S
C519 C518 1.345 . S
C519 H521 0.930 . S
H520 C513 0.930 . S
H521 C519 0.930 . S
H522 C510 0.930 1_554 S
H523 C511 0.931 . S
H524 C517 0.930 . S
H525 C539 0.930 . S
H526 C518 0.930 . S
H527 C545 0.930 . S
H528 C536 0.930 . S
H529 C543 0.931 . S
H530 C507 0.929 . S
H531 C537 0.930 1_445 S
H532 C570 0.930 1_546 S
H533 C514 0.930 . S
H534 C569 0.929 . S
N535 Tb504 2.660 . S
N535 C536 1.305 1_554 S
N535 C540 1.380 . S
C536 H528 0.930 . S
C536 N535 1.305 1_556 S
C536 C539 1.407 . S
C537 H531 0.930 1_665 S
C537 C538 1.410 1_655 S
C537 C539 1.345 . S
C538 C537 1.410 1_455 S
C538 C540 1.406 1_456 S
C538 C570 1.432 1_556 S
C539 H525 0.930 . S
C539 C536 1.407 . S
C539 C537 1.345 . S
C540 N535 1.380 . S
C540 C538 1.406 1_654 S
C540 C544 1.421 1_655 S
H541 C546 0.930 . S
N542 Tb504 2.581 1_455 S
N542 C544 1.368 . S
N542 C545 1.337 . S
C543 H529 0.931 . S
C543 C545 1.392 . S
C543 C546 1.370 . S
C544 C540 1.421 1_455 S
C544 N542 1.368 . S
C544 C547 1.414 . S
C545 H527 0.930 . S
C545 N542 1.337 . S
C545 C543 1.392 . S
C546 H541 0.930 . S
C546 C543 1.370 . S
C546 C547 1.385 . S
C547 C544 1.414 . S
C547 C546 1.385 . S
C547 C569 1.444 . S
O548 Tb504 2.546 . S
O548 C568 1.251 . S
O549 Tb504 2.610 . S
O549 Tb515 2.362 1_554 S
O549 C560 1.283 . S
O550 Tb515 2.421 . S
O550 C567 1.262 . S
O551 Tb504 2.306 1_556 S
O551 C567 1.275 . S
O552 Tb504 2.552 . S
O552 C560 1.243 . S
O553 Tb504 2.413 . S
O553 C568 1.256 . S
O554 Tb515 2.546 . S
O554 C579 1.251 . S
O555 Tb504 2.362 1_556 S
O555 Tb515 2.610 . S
O555 C571 1.283 . S
O556 Tb504 2.421 . S
O556 C578 1.262 . S
O557 Tb515 2.320 1_554 S
O557 C578 1.260 . S
O558 Tb515 2.552 . S
O558 C571 1.243 . S
O559 Tb515 2.413 . S
O559 C579 1.256 . S
C560 O549 1.283 . S
C560 O552 1.243 . S
C561 C563 1.382 . S
C561 C565 1.393 . S
C561 C568 1.500 . S
C562 C563 1.400 . S
C562 C564 1.384 . S
C563 C561 1.382 . S
C563 C562 1.400 . S
C563 H580 0.930 . S
C564 C562 1.384 . S
C564 C566 1.392 . S
C564 H581 0.925 1_565 S
C565 C561 1.393 . S
C565 C566 1.401 . S
C565 H582 0.930 . S
C566 C564 1.392 . S
C566 C565 1.401 . S
C566 H583 0.930 . S
C567 O550 1.262 . S
C567 O551 1.275 . S
C568 Tb504 2.833 . S
C568 O548 1.251 . S
C568 O553 1.256 . S
C568 C561 1.500 . S
C569 H534 0.929 . S
C569 C547 1.444 . S
C569 C570 1.317 . S
C570 H532 0.930 1_564 S
C570 C538 1.432 1_554 S
C570 C569 1.317 . S
C571 O555 1.283 . S
C571 O558 1.243 . S
C572 C573 1.382 . S
C572 C576 1.393 . S
C572 C579 1.500 . S
C573 C572 1.382 . S
C573 C574 1.400 . S
C573 H584 0.930 . S
C574 C573 1.400 . S
C574 C575 1.384 . S
C575 C574 1.384 . S
C575 C577 1.392 . S
C575 H585 0.931 . S
C576 C572 1.393 . S
C576 C577 1.401 . S
C576 H586 0.930 . S
C577 C575 1.392 . S
C577 C576 1.401 . S
C577 H587 0.930 . S
C578 O556 1.262 . S
C578 O557 1.260 . S
C579 Tb515 2.833 . S
C579 O554 1.251 . S
C579 O559 1.256 . S
C579 C572 1.500 . S
H580 C563 0.930 . S
H581 C564 0.925 1_545 S
H582 C565 0.930 . S
H583 C566 0.930 . S
H584 C573 0.930 . S
H585 C575 0.931 . S
H586 C576 0.930 . S
H587 C577 0.930 . S
Tb588 N619 2.660 . S
Tb588 N626 2.600 . S
Tb588 O632 2.546 . S
Tb588 O633 2.610 . S
Tb588 O635 2.320 . S
Tb588 O636 2.552 . S
Tb588 O637 2.413 . S
Tb588 O639 2.362 . S
Tb588 O640 2.421 . S
Tb588 C652 2.833 . S
C589 C592 1.432 . S
C589 C593 1.414 . S
C589 N596 1.359 . S
C590 C592 1.417 . S
C590 C594 1.432 . S
C590 C602 1.410 . S
C591 C593 1.444 . S
C591 C594 1.317 . S
C591 H614 0.929 . S
C592 C589 1.432 . S
C592 C590 1.417 . S
C592 N600 1.360 . S
C593 C589 1.414 . S
C593 C591 1.444 . S
C593 C598 1.385 . S
C594 C590 1.432 . S
C594 C591 1.317 . S
C594 H606 0.930 . S
C595 C597 1.392 . S
C595 C598 1.370 . S
C595 H607 0.931 . S
N596 C589 1.359 . S
N596 C597 1.327 . S
N596 Tb599 2.600 . S
C597 C595 1.392 . S
C597 N596 1.327 . S
C597 H604 0.930 . S
C598 C593 1.385 . S
C598 C595 1.370 . S
C598 H617 0.930 . S
Tb599 N596 2.600 . S
Tb599 N600 2.660 . S
Tb599 O633 2.362 . S
Tb599 O634 2.421 . S
Tb599 O638 2.546 . S
Tb599 O639 2.610 . S
Tb599 O641 2.320 . S
Tb599 O642 2.552 . S
Tb599 O643 2.413 . S
Tb599 C663 2.833 . S
N600 C592 1.360 . S
N600 Tb599 2.660 . S
N600 C601 1.305 . S
C601 N600 1.305 . S
C601 C603 1.407 . S
C601 H608 0.930 . S
C602 C590 1.410 . S
C602 C603 1.345 . S
C602 H610 0.930 . S
C603 C601 1.407 . S
C603 C602 1.345 . S
C603 H605 0.930 . S
H604 C597 0.930 . S
H605 C603 0.930 . S
H606 C594 0.930 . S
H607 C595 0.931 . S
H608 C601 0.930 . S
H609 C623 0.930 . S
H610 C602 0.930 . S
H611 C629 0.930 . S
H612 C620 0.930 . S
H613 C627 0.931 . S
H614 C591 0.929 . S
H615 C621 0.930 . S
H616 C654 0.930 . S
H617 C598 0.930 . S
H618 C653 0.929 . S
N619 Tb588 2.660 . S
N619 C620 1.305 . S
N619 C624 1.360 . S
C620 H612 0.930 . S
C620 N619 1.305 . S
C620 C623 1.407 . S
C621 H615 0.930 . S
C621 C622 1.410 . S
C621 C623 1.345 . S
C622 C621 1.410 . S
C622 C624 1.417 . S
C622 C654 1.432 . S
C623 H609 0.930 . S
C623 C620 1.407 . S
C623 C621 1.345 . S
C624 N619 1.360 . S
C624 C622 1.417 . S
C624 C628 1.432 . S
H625 C630 0.930 . S
N626 Tb588 2.600 . S
N626 C628 1.359 . S
N626 C629 1.327 . S
C627 H613 0.931 . S
C627 C629 1.392 . S
C627 C630 1.370 . S
C628 C624 1.432 . S
C628 N626 1.359 . S
C628 C631 1.414 . S
C629 H611 0.930 . S
C629 N626 1.327 . S
C629 C627 1.392 . S
C630 H625 0.930 . S
C630 C627 1.370 . S
C630 C631 1.385 . S
C631 C628 1.414 . S
C631 C630 1.385 . S
C631 C653 1.444 . S
O632 Tb588 2.546 . S
O632 C652 1.251 . S
O633 Tb588 2.610 . S
O633 Tb599 2.362 . S
O633 C644 1.283 . S
O634 Tb599 2.421 . S
O634 C651 1.262 . S
O635 Tb588 2.320 . S
O635 C651 1.260 . S
O636 Tb588 2.552 . S
O636 C644 1.243 . S
O637 Tb588 2.413 . S
O637 C652 1.256 . S
O638 Tb599 2.546 . S
O638 C663 1.251 . S
O639 Tb588 2.362 . S
O639 Tb599 2.610 . S
O639 C655 1.283 . S
O640 Tb588 2.421 . S
O640 C662 1.262 . S
O641 Tb599 2.320 . S
O641 C662 1.260 . S
O642 Tb599 2.552 . S
O642 C655 1.243 . S
O643 Tb599 2.413 . S
O643 C663 1.256 . S
C644 O633 1.283 . S
C644 O636 1.243 . S
C645 C647 1.382 . S
C645 C649 1.393 . S
C645 C652 1.500 . S
C646 C647 1.400 . S
C646 C648 1.384 . S
C647 C645 1.382 . S
C647 C646 1.400 . S
C647 H664 0.930 . S
C648 C646 1.384 . S
C648 C650 1.392 . S
C648 H665 0.931 . S
C649 C645 1.393 . S
C649 C650 1.401 . S
C649 H666 0.930 . S
C650 C648 1.392 . S
C650 C649 1.401 . S
C650 H667 0.930 . S
C651 O634 1.262 . S
C651 O635 1.260 . S
C652 Tb588 2.833 . S
C652 O632 1.251 . S
C652 O637 1.256 . S
C652 C645 1.500 . S
C653 H618 0.929 . S
C653 C631 1.444 . S
C653 C654 1.317 . S
C654 H616 0.930 . S
C654 C622 1.432 . S
C654 C653 1.317 . S
C655 O639 1.283 . S
C655 O642 1.243 . S
C656 C657 1.382 . S
C656 C660 1.393 1_554 S
C656 C663 1.500 . S
C657 C656 1.382 . S
C657 C658 1.400 1_554 S
C657 H668 0.930 . S
C658 C657 1.400 1_556 S
C658 C659 1.384 . S
C659 C658 1.384 . S
C659 C661 1.392 . S
C659 H669 0.931 . S
C660 C656 1.393 1_556 S
C660 C661 1.401 . S
C660 H670 0.930 . S
C661 C659 1.392 . S
C661 C660 1.401 . S
C661 H671 0.930 . S
C662 O640 1.262 . S
C662 O641 1.260 . S
C663 Tb599 2.833 . S
C663 O638 1.251 . S
C663 O643 1.256 . S
C663 C656 1.500 . S
H664 C647 0.930 . S
H665 C648 0.931 . S
H666 C649 0.930 . S
H667 C650 0.930 . S
H668 C657 0.930 . S
H669 C659 0.931 . S
H670 C660 0.930 . S
H671 C661 0.930 . S
Tb672 N703 2.660 . S
Tb672 N710 2.600 . S
Tb672 O716 2.546 . S
Tb672 O717 2.610 . S
Tb672 O719 2.320 . S
Tb672 O720 2.552 . S
Tb672 O721 2.413 . S
Tb672 O723 2.362 . S
Tb672 O724 2.421 . S
Tb672 C736 2.833 . S
C673 C676 1.421 1_556 S
C673 C677 1.414 . S
C673 N680 1.359 . S
C674 C676 1.407 1_556 S
C674 C678 1.432 . S
C674 C686 1.410 1_556 S
C675 C677 1.444 . S
C675 C678 1.317 . S
C675 H698 0.929 . S
C676 C673 1.421 1_554 S
C676 C674 1.407 1_554 S
C676 N684 1.380 . S
C677 C673 1.414 . S
C677 C675 1.444 . S
C677 C682 1.385 . S
C678 C674 1.432 . S
C678 C675 1.317 . S
C678 H690 0.930 . S
C679 C681 1.392 . S
C679 C682 1.370 . S
C679 H691 0.931 . S
N680 C673 1.359 . S
N680 C681 1.327 . S
N680 Tb683 2.600 1_556 S
C681 C679 1.392 . S
C681 N680 1.327 . S
C681 H688 0.930 . S
C682 C677 1.385 . S
C682 C679 1.370 . S
C682 H701 0.930 . S
Tb683 N680 2.600 1_554 S
Tb683 N684 2.660 . S
Tb683 O717 2.362 . S
Tb683 O718 2.421 . S
Tb683 O722 2.546 . S
Tb683 O723 2.610 . S
Tb683 O725 2.320 . S
Tb683 O726 2.552 . S
Tb683 O727 2.413 . S
Tb683 C747 2.833 . S
N684 C676 1.380 . S
N684 Tb683 2.660 . S
N684 C685 1.305 . S
C685 N684 1.305 . S
C685 C687 1.407 . S
C685 H692 0.930 . S
C686 C674 1.410 1_554 S
C686 C687 1.345 . S
C686 H694 0.930 1_554 S
C687 C685 1.407 . S
C687 C686 1.345 . S
C687 H689 0.930 . S
H688 C681 0.930 . S
H689 C687 0.930 . S
H690 C678 0.930 . S
H691 C679 0.931 . S
H692 C685 0.930 . S
H693 C707 0.930 . S
H694 C686 0.930 1_556 S
H695 C713 0.930 . S
H696 C704 0.930 . S
H697 C711 0.931 . S
H698 C675 0.929 . S
H699 C705 0.930 . S
H700 C738 0.930 . S
H701 C682 0.930 . S
H702 C737 0.929 . S
N703 Tb672 2.660 . S
N703 C704 1.305 . S
N703 C708 1.360 . S
C704 H696 0.930 . S
C704 N703 1.305 . S
C704 C707 1.407 . S
C705 H699 0.930 . S
C705 C706 1.410 . S
C705 C707 1.345 . S
C706 C705 1.410 . S
C706 C708 1.417 . S
C706 C738 1.432 . S
C707 H693 0.930 . S
C707 C704 1.407 . S
C707 C705 1.345 . S
C708 N703 1.360 . S
C708 C706 1.417 . S
C708 C712 1.432 . S
H709 C714 0.930 . S
N710 Tb672 2.600 . S
N710 C712 1.359 . S
N710 C713 1.327 . S
C711 H697 0.931 . S
C711 C713 1.392 . S
C711 C714 1.370 . S
C712 C708 1.432 . S
C712 N710 1.359 . S
C712 C715 1.414 . S
C713 H695 0.930 . S
C713 N710 1.327 . S
C713 C711 1.392 . S
C714 H709 0.930 . S
C714 C711 1.370 . S
C714 C715 1.385 . S
C715 C712 1.414 . S
C715 C714 1.385 . S
C715 C737 1.444 . S
O716 Tb672 2.546 . S
O716 C736 1.251 . S
O717 Tb672 2.610 . S
O717 Tb683 2.362 . S
O717 C728 1.283 . S
O718 Tb683 2.421 . S
O718 C735 1.262 . S
O719 Tb672 2.320 . S
O719 C735 1.260 . S
O720 Tb672 2.552 . S
O720 C728 1.243 . S
O721 Tb672 2.413 . S
O721 C736 1.256 . S
O722 Tb683 2.546 . S
O722 C747 1.251 . S
O723 Tb672 2.362 . S
O723 Tb683 2.610 . S
O723 C739 1.283 . S
O724 Tb672 2.421 . S
O724 C746 1.262 . S
O725 Tb683 2.320 . S
O725 C746 1.260 . S
O726 Tb683 2.552 . S
O726 C739 1.243 . S
O727 Tb683 2.413 . S
O727 C747 1.256 . S
C728 O717 1.283 . S
C728 O720 1.243 . S
C729 C731 1.382 . S
C729 C733 1.393 . S
C729 C736 1.500 . S
C730 C731 1.400 . S
C730 C732 1.384 1_455 S
C731 C729 1.382 . S
C731 C730 1.400 . S
C731 H748 0.930 . S
C732 C730 1.384 1_655 S
C732 C734 1.392 . S
C732 H749 0.931 . S
C733 C729 1.393 . S
C733 C734 1.401 1_455 S
C733 H750 0.930 . S
C734 C732 1.392 . S
C734 C733 1.401 1_655 S
C734 H751 0.930 . S
C735 O718 1.262 . S
C735 O719 1.260 . S
C736 Tb672 2.833 . S
C736 O716 1.251 . S
C736 O721 1.256 . S
C736 C729 1.500 . S
C737 H702 0.929 . S
C737 C715 1.444 . S
C737 C738 1.317 . S
C738 H700 0.930 . S
C738 C706 1.432 . S
C738 C737 1.317 . S
C739 O723 1.283 . S
C739 O726 1.243 . S
C740 C741 1.382 . S
C740 C744 1.393 . S
C740 C747 1.500 . S
C741 C740 1.382 . S
C741 C742 1.400 . S
C741 H752 0.930 . S
C742 C741 1.400 . S
C742 C743 1.384 . S
C743 C742 1.384 . S
C743 C745 1.392 . S
C743 H753 0.931 . S
C744 C740 1.393 . S
C744 C745 1.401 . S
C744 H754 0.930 . S
C745 C743 1.392 . S
C745 C744 1.401 . S
C745 H755 0.930 . S
C746 O724 1.262 . S
C746 O725 1.260 . S
C747 Tb683 2.833 . S
C747 O722 1.251 . S
C747 O727 1.256 . S
C747 C740 1.500 . S
H748 C731 0.930 . S
H749 C732 0.931 . S
H750 C733 0.930 . S
H751 C734 0.930 . S
H752 C741 0.930 . S
H753 C743 0.931 . S
H754 C744 0.930 . S
H755 C745 0.930 . S
Tb756 N787 2.660 . S
Tb756 N794 2.600 . S
Tb756 O800 2.546 . S
Tb756 O801 2.610 1_565 S
Tb756 O803 2.320 . S
Tb756 O804 2.552 . S
Tb756 O805 2.413 . S
Tb756 O807 2.362 . S
Tb756 O808 2.421 1_565 S
Tb756 C820 2.833 . S
C757 C760 1.432 1_554 S
C757 C761 1.414 . S
C757 N764 1.359 . S
C758 C760 1.417 1_554 S
C758 C762 1.432 . S
C758 C770 1.410 1_554 S
C759 C761 1.444 . S
C759 C762 1.317 . S
C759 H782 0.929 . S
C760 C757 1.432 1_556 S
C760 C758 1.417 1_556 S
C760 N768 1.360 . S
C761 C757 1.414 . S
C761 C759 1.444 . S
C761 C766 1.385 . S
C762 C758 1.432 . S
C762 C759 1.317 . S
C762 H774 0.930 . S
C763 C765 1.392 . S
C763 C766 1.370 . S
C763 H775 0.931 . S
N764 C757 1.359 . S
N764 C765 1.327 . S
N764 Tb767 2.600 1_554 S
C765 C763 1.392 . S
C765 N764 1.327 . S
C765 H772 0.930 . S
C766 C761 1.385 . S
C766 C763 1.370 . S
C766 H785 0.930 . S
Tb767 N764 2.600 1_556 S
Tb767 N768 2.660 . S
Tb767 O801 2.362 . S
Tb767 O802 2.421 1_545 S
Tb767 O806 2.546 . S
Tb767 O807 2.610 1_545 S
Tb767 O809 2.320 . S
Tb767 O810 2.552 . S
Tb767 O811 2.413 . S
Tb767 C831 2.833 . S
N768 C760 1.360 . S
N768 Tb767 2.660 . S
N768 C769 1.305 . S
C769 N768 1.305 . S
C769 C771 1.407 . S
C769 H776 0.930 . S
C770 C758 1.410 1_556 S
C770 C771 1.345 . S
C770 H778 0.930 1_556 S
C771 C769 1.407 . S
C771 C770 1.345 . S
C771 H773 0.930 . S
H772 C765 0.930 . S
H773 C771 0.930 . S
H774 C762 0.930 . S
H775 C763 0.931 . S
H776 C769 0.930 . S
H777 C791 0.930 . S
H778 C770 0.930 1_554 S
H779 C797 0.930 . S
H780 C788 0.930 . S
H781 C795 0.931 . S
H782 C759 0.929 . S
H783 C789 0.930 . S
H784 C822 0.930 . S
H785 C766 0.930 . S
H786 C821 0.929 . S
N787 Tb756 2.660 . S
N787 C788 1.305 . S
N787 C792 1.360 . S
C788 H780 0.930 . S
C788 N787 1.305 . S
C788 C791 1.407 . S
C789 H783 0.930 . S
C789 C790 1.410 . S
C789 C791 1.345 . S
C790 C789 1.410 . S
C790 C792 1.417 . S
C790 C822 1.432 . S
C791 H777 0.930 . S
C791 C788 1.407 . S
C791 C789 1.345 . S
C792 N787 1.360 . S
C792 C790 1.417 . S
C792 C796 1.432 . S
H793 C798 0.930 . S
N794 Tb756 2.600 . S
N794 C796 1.359 . S
N794 C797 1.327 . S
C795 H781 0.931 . S
C795 C797 1.392 . S
C795 C798 1.370 . S
C796 C792 1.432 . S
C796 N794 1.359 . S
C796 C799 1.414 . S
C797 H779 0.930 . S
C797 N794 1.327 . S
C797 C795 1.392 . S
C798 H793 0.930 . S
C798 C795 1.370 . S
C798 C799 1.385 . S
C799 C796 1.414 . S
C799 C798 1.385 . S
C799 C821 1.444 . S
O800 Tb756 2.546 . S
O800 C820 1.251 . S
O801 Tb756 2.610 1_545 S
O801 Tb767 2.362 . S
O801 C812 1.283 . S
O802 Tb767 2.421 1_565 S
O802 C819 1.262 . S
O803 Tb756 2.320 . S
O803 C819 1.260 . S
O804 Tb756 2.552 . S
O804 C812 1.243 1_565 S
O805 Tb756 2.413 . S
O805 C820 1.256 . S
O806 Tb767 2.546 . S
O806 C831 1.251 . S
O807 Tb756 2.362 . S
O807 Tb767 2.610 1_565 S
O807 C823 1.283 . S
O808 Tb756 2.421 1_545 S
O808 C830 1.262 . S
O809 Tb767 2.320 . S
O809 C830 1.260 . S
O810 Tb767 2.552 . S
O810 C823 1.243 1_545 S
O811 Tb767 2.413 . S
O811 C831 1.256 . S
C812 O801 1.283 . S
C812 O804 1.243 1_545 S
C813 C815 1.382 . S
C813 C817 1.393 . S
C813 C820 1.500 . S
C814 C815 1.400 . S
C814 C816 1.384 . S
C815 C813 1.382 . S
C815 C814 1.400 . S
C815 H832 0.930 . S
C816 C814 1.384 . S
C816 C818 1.392 . S
C816 H833 0.931 . S
C817 C813 1.393 . S
C817 C818 1.401 . S
C817 H834 0.930 . S
C818 C816 1.392 . S
C818 C817 1.401 . S
C818 H835 0.930 . S
C819 O802 1.262 . S
C819 O803 1.260 . S
C820 Tb756 2.833 . S
C820 O800 1.251 . S
C820 O805 1.256 . S
C820 C813 1.500 . S
C821 H786 0.929 . S
C821 C799 1.444 . S
C821 C822 1.317 . S
C822 H784 0.930 . S
C822 C790 1.432 . S
C822 C821 1.317 . S
C823 O807 1.283 . S
C823 O810 1.243 1_565 S
C824 C825 1.382 . S
C824 C828 1.400 . S
C824 C831 1.500 . S
C825 C824 1.382 . S
C825 C826 1.400 1_655 S
C825 H836 0.930 . S
C826 C825 1.400 1_455 S
C826 C827 1.384 . S
C827 C826 1.384 . S
C827 C829 1.392 . S
C827 H837 0.931 . S
C828 C824 1.400 . S
C828 C829 1.395 1_655 S
C828 H838 0.930 . S
C829 C827 1.392 . S
C829 C828 1.395 1_455 S
C829 H839 0.930 . S
C830 O808 1.262 . S
C830 O809 1.260 . S
C831 Tb767 2.833 . S
C831 O806 1.251 . S
C831 O811 1.256 . S
C831 C824 1.500 . S
H832 C815 0.930 . S
H833 C816 0.931 . S
H834 C817 0.930 . S
H835 C818 0.930 . S
H836 C825 0.930 . S
H837 C827 0.931 . S
H838 C828 0.930 . S
H839 C829 0.930 . S
Tb840 N871 2.660 . S
Tb840 N878 2.600 . S
Tb840 O884 2.546 . S
Tb840 O885 2.610 . S
Tb840 O887 2.320 1_565 S
Tb840 O888 2.552 . S
Tb840 O889 2.413 . S
Tb840 O891 2.362 1_565 S
Tb840 O892 2.421 . S
Tb840 C904 2.833 . S
C841 C844 1.432 . S
C841 C845 1.414 . S
C841 N848 1.359 . S
C842 C844 1.417 1_565 S
C842 C846 1.432 1_565 S
C842 C854 1.410 . S
C843 C845 1.444 . S
C843 C846 1.317 . S
C843 H866 0.929 . S
C844 C841 1.432 . S
C844 C842 1.417 1_545 S
C844 N852 1.360 . S
C845 C841 1.414 . S
C845 C843 1.444 . S
C845 C850 1.385 . S
C846 C842 1.432 1_545 S
C846 C843 1.317 . S
C846 H858 0.930 1_545 S
C847 C849 1.392 . S
C847 C850 1.370 . S
C847 H859 0.931 . S
N848 C841 1.359 . S
N848 C849 1.327 . S
N848 Tb851 2.600 . S
C849 C847 1.392 . S
C849 N848 1.327 . S
C849 H856 0.930 . S
C850 C845 1.385 . S
C850 C847 1.370 . S
C850 H869 0.930 . S
Tb851 N848 2.600 . S
Tb851 N852 2.660 . S
Tb851 O885 2.362 1_545 S
Tb851 O886 2.421 . S
Tb851 O890 2.546 . S
Tb851 O891 2.610 . S
Tb851 O893 2.320 1_545 S
Tb851 O894 2.552 . S
Tb851 O895 2.413 . S
Tb851 C915 2.833 . S
N852 C844 1.360 . S
N852 Tb851 2.660 . S
N852 C853 1.305 1_545 S
C853 N852 1.305 1_565 S
C853 C855 1.407 . S
C853 H860 0.930 . S
C854 C842 1.410 . S
C854 C855 1.345 . S
C854 H862 0.930 . S
C855 C853 1.407 . S
C855 C854 1.345 . S
C855 H857 0.930 . S
H856 C849 0.930 . S
H857 C855 0.930 . S
H858 C846 0.930 1_565 S
H859 C847 0.931 . S
H860 C853 0.930 . S
H861 C875 0.930 . S
H862 C854 0.930 . S
H863 C881 0.930 . S
H864 C872 0.930 . S
H865 C879 0.931 . S
H866 C843 0.929 . S
H867 C873 0.930 . S
H868 C906 0.930 1_545 S
H869 C850 0.930 . S
H870 C905 0.929 . S
N871 Tb840 2.660 . S
N871 C872 1.305 1_565 S
N871 C876 1.360 . S
C872 H864 0.930 . S
C872 N871 1.305 1_545 S
C872 C875 1.407 . S
C873 H867 0.930 . S
C873 C874 1.410 . S
C873 C875 1.345 . S
C874 C873 1.410 . S
C874 C876 1.417 1_545 S
C874 C906 1.432 1_545 S
C875 H861 0.930 . S
C875 C872 1.407 . S
C875 C873 1.345 . S
C876 N871 1.360 . S
C876 C874 1.417 1_565 S
C876 C880 1.432 . S
H877 C882 0.930 . S
N878 Tb840 2.600 . S
N878 C880 1.359 . S
N878 C881 1.327 . S
C879 H865 0.931 . S
C879 C881 1.392 . S
C879 C882 1.370 . S
C880 C876 1.432 . S
C880 N878 1.359 . S
C880 C883 1.414 . S
C881 H863 0.930 . S
C881 N878 1.327 . S
C881 C879 1.392 . S
C882 H877 0.930 . S
C882 C879 1.370 . S
C882 C883 1.385 . S
C883 C880 1.414 . S
C883 C882 1.385 . S
C883 C905 1.444 . S
O884 Tb840 2.546 . S
O884 C904 1.251 . S
O885 Tb840 2.610 . S
O885 Tb851 2.362 1_565 S
O885 C896 1.283 . S
O886 Tb851 2.421 . S
O886 C903 1.262 . S
O887 Tb840 2.320 1_545 S
O887 C903 1.260 . S
O888 Tb840 2.552 . S
O888 C896 1.243 . S
O889 Tb840 2.413 . S
O889 C904 1.256 . S
O890 Tb851 2.546 . S
O890 C915 1.251 . S
O891 Tb840 2.362 1_545 S
O891 Tb851 2.610 . S
O891 C907 1.283 . S
O892 Tb840 2.421 . S
O892 C914 1.262 . S
O893 Tb851 2.320 1_565 S
O893 C914 1.260 . S
O894 Tb851 2.552 . S
O894 C907 1.243 . S
O895 Tb851 2.413 . S
O895 C915 1.256 . S
C896 O885 1.283 . S
C896 O888 1.243 . S
C897 C899 1.382 . S
C897 C901 1.393 . S
C897 C904 1.500 . S
C898 C899 1.400 . S
C898 C900 1.384 . S
C899 C897 1.382 . S
C899 C898 1.400 . S
C899 H916 0.930 . S
C900 C898 1.384 . S
C900 C902 1.392 . S
C900 H917 0.931 . S
C901 C897 1.393 . S
C901 C902 1.401 . S
C901 H918 0.930 . S
C902 C900 1.392 . S
C902 C901 1.401 . S
C902 H919 0.930 . S
C903 O886 1.262 . S
C903 O887 1.260 . S
C904 Tb840 2.833 . S
C904 O884 1.251 . S
C904 O889 1.256 . S
C904 C897 1.500 . S
C905 H870 0.929 . S
C905 C883 1.444 . S
C905 C906 1.317 . S
C906 H868 0.930 1_565 S
C906 C874 1.432 1_565 S
C906 C905 1.317 . S
C907 O891 1.283 . S
C907 O894 1.243 . S
C908 C909 1.382 . S
C908 C912 1.393 . S
C908 C915 1.500 . S
C909 C908 1.382 . S
C909 C910 1.400 . S
C909 H920 0.930 . S
C910 C909 1.400 . S
C910 C911 1.384 . S
C911 C910 1.384 . S
C911 C913 1.392 . S
C911 H921 0.931 . S
C912 C908 1.393 . S
C912 C913 1.401 . S
C912 H922 0.930 . S
C913 C911 1.392 . S
C913 C912 1.401 . S
C913 H923 0.930 . S
C914 O892 1.262 . S
C914 O893 1.260 . S
C915 Tb851 2.833 . S
C915 O890 1.251 . S
C915 O895 1.256 . S
C915 C908 1.500 . S
H916 C899 0.930 . S
H917 C900 0.931 . S
H918 C901 0.930 . S
H919 C902 0.930 . S
H920 C909 0.930 . S
H921 C911 0.931 . S
H922 C912 0.930 . S
H923 C913 0.930 . S
Tb924 N955 2.660 . S
Tb924 N962 2.600 . S
Tb924 O968 2.546 . S
Tb924 O969 2.610 . S
Tb924 O971 2.320 . S
Tb924 O972 2.552 . S
Tb924 O973 2.413 . S
Tb924 O975 2.362 . S
Tb924 O976 2.421 . S
Tb924 C988 2.833 . S
C925 C928 1.432 . S
C925 C929 1.414 . S
C925 N932 1.359 . S
C926 C928 1.417 . S
C926 C930 1.432 . S
C926 C938 1.410 . S
C927 C929 1.444 . S
C927 C930 1.317 . S
C927 H950 0.929 . S
C928 C925 1.432 . S
C928 C926 1.417 . S
C928 N936 1.360 . S
C929 C925 1.414 . S
C929 C927 1.444 . S
C929 C934 1.385 . S
C930 C926 1.432 . S
C930 C927 1.317 . S
C930 H942 0.930 . S
C931 C933 1.392 . S
C931 C934 1.370 . S
C931 H943 0.931 . S
N932 C925 1.359 . S
N932 C933 1.327 . S
N932 Tb935 2.600 . S
C933 C931 1.392 . S
C933 N932 1.327 . S
C933 H940 0.930 . S
C934 C929 1.385 . S
C934 C931 1.370 . S
C934 H953 0.930 . S
Tb935 N932 2.600 . S
Tb935 N936 2.660 . S
Tb935 O969 2.362 . S
Tb935 O970 2.421 . S
Tb935 O974 2.546 . S
Tb935 O975 2.610 . S
Tb935 O977 2.320 . S
Tb935 O978 2.552 . S
Tb935 O979 2.413 . S
Tb935 C999 2.833 . S
N936 C928 1.360 . S
N936 Tb935 2.660 . S
N936 C937 1.305 . S
C937 N936 1.305 . S
C937 C939 1.407 . S
C937 H944 0.930 . S
C938 C926 1.410 . S
C938 C939 1.345 . S
C938 H946 0.930 . S
C939 C937 1.407 . S
C939 C938 1.345 . S
C939 H941 0.930 . S
H940 C933 0.930 . S
H941 C939 0.930 . S
H942 C930 0.930 . S
H943 C931 0.931 . S
H944 C937 0.930 . S
H945 C959 0.930 . S
H946 C938 0.930 . S
H947 C965 0.930 . S
H948 C956 0.930 . S
H949 C963 0.931 . S
H950 C927 0.929 . S
H951 C957 0.930 . S
H952 C990 0.930 . S
H953 C934 0.930 . S
H954 C989 0.929 . S
N955 Tb924 2.660 . S
N955 C956 1.305 . S
N955 C960 1.360 . S
C956 H948 0.930 . S
C956 N955 1.305 . S
C956 C959 1.407 . S
C957 H951 0.930 . S
C957 C958 1.410 . S
C957 C959 1.345 . S
C958 C957 1.410 . S
C958 C960 1.417 . S
C958 C990 1.432 . S
C959 H945 0.930 . S
C959 C956 1.407 . S
C959 C957 1.345 . S
C960 N955 1.360 . S
C960 C958 1.417 . S
C960 C964 1.432 . S
H961 C966 0.930 . S
N962 Tb924 2.600 . S
N962 C964 1.359 . S
N962 C965 1.327 . S
C963 H949 0.931 . S
C963 C965 1.392 . S
C963 C966 1.370 . S
C964 C960 1.432 . S
C964 N962 1.359 . S
C964 C967 1.414 . S
C965 H947 0.930 . S
C965 N962 1.327 . S
C965 C963 1.392 . S
C966 H961 0.930 . S
C966 C963 1.370 . S
C966 C967 1.385 . S
C967 C964 1.414 . S
C967 C966 1.385 . S
C967 C989 1.444 . S
O968 Tb924 2.546 . S
O968 C988 1.251 . S
O969 Tb924 2.610 . S
O969 Tb935 2.362 . S
O969 C980 1.283 . S
O970 Tb935 2.421 . S
O970 C987 1.262 . S
O971 Tb924 2.320 . S
O971 C987 1.260 . S
O972 Tb924 2.552 . S
O972 C980 1.243 . S
O973 Tb924 2.413 . S
O973 C988 1.256 . S
O974 Tb935 2.546 . S
O974 C999 1.251 . S
O975 Tb924 2.362 . S
O975 Tb935 2.610 . S
O975 C991 1.283 . S
O976 Tb924 2.421 . S
O976 C998 1.262 . S
O977 Tb935 2.320 . S
O977 C998 1.260 . S
O978 Tb935 2.552 . S
O978 C991 1.243 . S
O979 Tb935 2.413 . S
O979 C999 1.256 . S
C980 O969 1.283 . S
C980 O972 1.243 . S
C981 C983 1.382 . S
C981 C985 1.393 . S
C981 C988 1.500 . S
C982 C983 1.400 . S
C982 C984 1.384 . S
C983 C981 1.382 . S
C983 C982 1.400 . S
C983 H1000 0.930 . S
C984 C982 1.384 . S
C984 C986 1.392 . S
C984 H1001 0.931 . S
C985 C981 1.393 . S
C985 C986 1.401 . S
C985 H1002 0.930 . S
C986 C984 1.392 . S
C986 C985 1.401 . S
C986 H1003 0.930 . S
C987 O970 1.262 . S
C987 O971 1.260 . S
C988 Tb924 2.833 . S
C988 O968 1.251 . S
C988 O973 1.256 . S
C988 C981 1.500 . S
C989 H954 0.929 . S
C989 C967 1.444 . S
C989 C990 1.317 . S
C990 H952 0.930 . S
C990 C958 1.432 . S
C990 C989 1.317 . S
C991 O975 1.283 . S
C991 O978 1.243 . S
C992 C993 1.382 . S
C992 C996 1.393 1_455 S
C992 C999 1.500 . S
C993 C992 1.382 . S
C993 C994 1.401 1_455 S
C993 H1004 0.930 . S
C994 C993 1.401 1_655 S
C994 C995 1.383 . S
C995 C994 1.383 . S
C995 C997 1.392 . S
C995 H1005 0.931 . S
C996 C992 1.393 1_655 S
C996 C997 1.402 . S
C996 H1006 0.930 . S
C997 C995 1.392 . S
C997 C996 1.402 . S
C997 H1007 0.930 . S
C998 O976 1.262 . S
C998 O977 1.260 . S
C999 Tb935 2.833 . S
C999 O974 1.251 . S
C999 O979 1.256 . S
C999 C992 1.500 . S
H1000 C983 0.930 . S
H1001 C984 0.931 . S
H1002 C985 0.930 . S
H1003 C986 0.930 . S
H1004 C993 0.930 . S
H1005 C995 0.931 . S
H1006 C996 0.930 . S
H1007 C997 0.930 . S
C67 C987 1.939 . S
C823 C147 2.377 . S
C231 C735 2.161 . S
C315 C903 2.189 . S
C399 C907 2.273 . S
C487 C991 2.191 . S
C819 C567 2.425 . S
C651 C739 1.959 . S
C319 C403 1.909 . S
C63 C483 2.179 . S
C151 C571 2.330 . S
C655 C235 2.218 . S
C70 C746 2.901 . S
C142 C914 1.977 . S
C998 C226 2.038 . S
C310 C812 2.484 1_554 S
C394 C830 2.278 . S
C728 C490 3.130 1_554 S
C896 C562 2.549 . S
C980 C646 2.560 . S
C74 C322 2.904 . S
C58 C140 2.410 1_545 S
C154 C224 3.307 1_554 S
C308 C238 3.060 1_545 S
C478 C392 2.461 . S
C494 C574 2.667 . S
C560 C658 3.413 1_554 S
C406 C644 3.267 . S
C742 C326 2.842 . S
C476 C826 3.310 1_655 S
C730 C578 2.168 1_455 S
C898 C662 2.059 . S
C410 C982 2.219 . S
C994 C158 2.987 1_655 S
C242 C814 1.911 . S
C910 C56 3.091 1_655 S
