# Generated by pormake.
# Topology whw, (6)-cn, num edge types: 1
# Building blocks:
#     Node 0, Type 0, BuildingBlock: MIFKUJ_clean_sbu_0, # of connection points: 6
#     Node 1, Type 0, BuildingBlock: MIFKUJ_clean_sbu_0, # of connection points: 6
#     Node 2, Type 0, BuildingBlock: MIFKUJ_clean_sbu_0, # of connection points: 6
#     Node 3, Type 0, BuildingBlock: MIFKUJ_clean_sbu_0, # of connection points: 6
#     Node 4, Type 0, BuildingBlock: MIFKUJ_clean_sbu_0, # of connection points: 6
#     Node 5, Type 0, BuildingBlock: MIFKUJ_clean_sbu_0, # of connection points: 6
#     Node 6, Type 0, BuildingBlock: MIFKUJ_clean_sbu_0, # of connection points: 6
#     Node 7, Type 0, BuildingBlock: MIFKUJ_clean_sbu_0, # of connection points: 6
#     Node 8, Type 0, BuildingBlock: MIFKUJ_clean_sbu_0, # of connection points: 6
#     Node 9, Type 0, BuildingBlock: MIFKUJ_clean_sbu_0, # of connection points: 6
#     Node 10, Type 0, BuildingBlock: MIFKUJ_clean_sbu_0, # of connection points: 6
#     Node 11, Type 0, BuildingBlock: MIFKUJ_clean_sbu_0, # of connection points: 6
#     Node 12, Type 0, BuildingBlock: MIFKUJ_clean_sbu_0, # of connection points: 6
#     Node 13, Type 0, BuildingBlock: MIFKUJ_clean_sbu_0, # of connection points: 6
#     Node 14, Type 0, BuildingBlock: MIFKUJ_clean_sbu_0, # of connection points: 6
#     Node 15, Type 0, BuildingBlock: MIFKUJ_clean_sbu_0, # of connection points: 6
#     Edge 16, Type (0, 0), BuildingBlock: XIVTED_clean_linker_0, # of connection points: 2
#     Edge 17, Type (0, 0), BuildingBlock: XIVTED_clean_linker_0, # of connection points: 2
#     Edge 18, Type (0, 0), BuildingBlock: XIVTED_clean_linker_0, # of connection points: 2
#     Edge 19, Type (0, 0), BuildingBlock: XIVTED_clean_linker_0, # of connection points: 2
#     Edge 20, Type (0, 0), BuildingBlock: XIVTED_clean_linker_0, # of connection points: 2
#     Edge 21, Type (0, 0), BuildingBlock: XIVTED_clean_linker_0, # of connection points: 2
#     Edge 22, Type (0, 0), BuildingBlock: XIVTED_clean_linker_0, # of connection points: 2
#     Edge 23, Type (0, 0), BuildingBlock: XIVTED_clean_linker_0, # of connection points: 2
#     Edge 24, Type (0, 0), BuildingBlock: XIVTED_clean_linker_0, # of connection points: 2
#     Edge 25, Type (0, 0), BuildingBlock: XIVTED_clean_linker_0, # of connection points: 2
#     Edge 26, Type (0, 0), BuildingBlock: XIVTED_clean_linker_0, # of connection points: 2
#     Edge 27, Type (0, 0), BuildingBlock: XIVTED_clean_linker_0, # of connection points: 2
#     Edge 28, Type (0, 0), BuildingBlock: XIVTED_clean_linker_0, # of connection points: 2
#     Edge 29, Type (0, 0), BuildingBlock: XIVTED_clean_linker_0, # of connection points: 2
#     Edge 30, Type (0, 0), BuildingBlock: XIVTED_clean_linker_0, # of connection points: 2
#     Edge 31, Type (0, 0), BuildingBlock: XIVTED_clean_linker_0, # of connection points: 2
#     Edge 32, Type (0, 0), BuildingBlock: XIVTED_clean_linker_0, # of connection points: 2
#     Edge 33, Type (0, 0), BuildingBlock: XIVTED_clean_linker_0, # of connection points: 2
#     Edge 34, Type (0, 0), BuildingBlock: XIVTED_clean_linker_0, # of connection points: 2
#     Edge 35, Type (0, 0), BuildingBlock: XIVTED_clean_linker_0, # of connection points: 2
#     Edge 36, Type (0, 0), BuildingBlock: XIVTED_clean_linker_0, # of connection points: 2
#     Edge 37, Type (0, 0), BuildingBlock: XIVTED_clean_linker_0, # of connection points: 2
#     Edge 38, Type (0, 0), BuildingBlock: XIVTED_clean_linker_0, # of connection points: 2
#     Edge 39, Type (0, 0), BuildingBlock: XIVTED_clean_linker_0, # of connection points: 2
#     Edge 40, Type (0, 0), BuildingBlock: XIVTED_clean_linker_0, # of connection points: 2
#     Edge 41, Type (0, 0), BuildingBlock: XIVTED_clean_linker_0, # of connection points: 2
#     Edge 42, Type (0, 0), BuildingBlock: XIVTED_clean_linker_0, # of connection points: 2
#     Edge 43, Type (0, 0), BuildingBlock: XIVTED_clean_linker_0, # of connection points: 2
#     Edge 44, Type (0, 0), BuildingBlock: XIVTED_clean_linker_0, # of connection points: 2
#     Edge 45, Type (0, 0), BuildingBlock: XIVTED_clean_linker_0, # of connection points: 2
#     Edge 46, Type (0, 0), BuildingBlock: XIVTED_clean_linker_0, # of connection points: 2
#     Edge 47, Type (0, 0), BuildingBlock: XIVTED_clean_linker_0, # of connection points: 2
#     Edge 48, Type (0, 0), BuildingBlock: XIVTED_clean_linker_0, # of connection points: 2
#     Edge 49, Type (0, 0), BuildingBlock: XIVTED_clean_linker_0, # of connection points: 2
#     Edge 50, Type (0, 0), BuildingBlock: XIVTED_clean_linker_0, # of connection points: 2
#     Edge 51, Type (0, 0), BuildingBlock: XIVTED_clean_linker_0, # of connection points: 2
#     Edge 52, Type (0, 0), BuildingBlock: XIVTED_clean_linker_0, # of connection points: 2
#     Edge 53, Type (0, 0), BuildingBlock: XIVTED_clean_linker_0, # of connection points: 2
#     Edge 54, Type (0, 0), BuildingBlock: XIVTED_clean_linker_0, # of connection points: 2
#     Edge 55, Type (0, 0), BuildingBlock: XIVTED_clean_linker_0, # of connection points: 2
#     Edge 56, Type (0, 0), BuildingBlock: XIVTED_clean_linker_0, # of connection points: 2
#     Edge 57, Type (0, 0), BuildingBlock: XIVTED_clean_linker_0, # of connection points: 2
#     Edge 58, Type (0, 0), BuildingBlock: XIVTED_clean_linker_0, # of connection points: 2
#     Edge 59, Type (0, 0), BuildingBlock: XIVTED_clean_linker_0, # of connection points: 2
#     Edge 60, Type (0, 0), BuildingBlock: XIVTED_clean_linker_0, # of connection points: 2
#     Edge 61, Type (0, 0), BuildingBlock: XIVTED_clean_linker_0, # of connection points: 2
#     Edge 62, Type (0, 0), BuildingBlock: XIVTED_clean_linker_0, # of connection points: 2
#     Edge 63, Type (0, 0), BuildingBlock: XIVTED_clean_linker_0, # of connection points: 2
# Relax obj value: 0.359
# Max RMSD: 0.222
# Mean RMSD: 0.222
data_MOF--net-whw--node1-MIFKUJ_clean_sbu_0--edge1-XIVTED_clean_linker_0
_symmetry_space_group_name_H-M    P1
_symmetry_Int_Tables_number       1
_symmetry_cell_setting            triclinic
loop_
_symmetry_equiv_pos_as_xyz
'x, y, z'
_cell_length_a     44.038413
_cell_length_b     44.066528
_cell_length_c     30.049887
_cell_angle_alpha  89.879136
_cell_angle_beta   90.27564
_cell_angle_gamma 90.198767
loop_
_atom_site_label
_atom_site_type_symbol
_atom_site_fract_x
_atom_site_fract_y
_atom_site_fract_z
_atom_type_partial_charge
Zn0 Zn 0.00556 0.09264 0.18845 0.0
Zn1 Zn 0.02003 0.10738 0.0545 0.0
C2 C 0.05606 0.07891 0.24793 0.0
O3 O 0.03961 0.05505 0.25845 0.0
C4 C 0.98242 0.14734 0.00205 0.0
O5 O -0.00287 0.16807 0.02502 0.0
O6 O 0.97426 0.09915 0.23617 0.0
O7 O 0.00145 0.12907 0.14444 0.0
O8 O 0.03315 0.14276 0.09147 0.0
C9 C 0.97849 0.12569 0.25149 0.0
O10 O 0.00111 0.14189 0.23575 0.0
O11 O 0.04648 0.09696 0.218 0.0
C12 C 0.05211 0.08245 0.98206 0.0
O13 O 0.02461 0.07281 0.97262 0.0
O14 O 0.05684 0.09376 0.02028 0.0
O15 O 0.00588 0.08104 0.10312 0.0
O16 O 0.00289 0.05032 0.15825 0.0
O17 O 0.98732 0.11945 0.01023 0.0
C18 C 0.02349 0.1456 0.13117 0.0
C19 C 0.0053 0.05411 0.11662 0.0
Zn20 Zn 0.20929 0.70811 0.43855 0.0
Zn21 Zn 0.1946 0.69896 0.29903 0.0
C22 C 0.22662 0.75018 0.50668 0.0
O23 O 0.24511 0.72792 0.5172 0.0
C24 C 0.17194 0.67249 0.22016 0.0
O25 O 0.16364 0.70092 0.21526 0.0
O26 O 0.1979 0.67439 0.48136 0.0
O27 O 0.17746 0.71238 0.39096 0.0
O28 O 0.15485 0.71265 0.32603 0.0
C29 C 0.17731 0.68219 0.50857 0.0
O30 O 0.16541 0.70939 0.505 0.0
O31 O 0.2099 0.74749 0.47238 0.0
C32 C 0.22212 0.73471 0.22777 0.0
O33 O 0.23071 0.70802 0.21317 0.0
O34 O 0.20918 0.73634 0.26542 0.0
O35 O 0.22031 0.68686 0.35253 0.0
O36 O 0.24946 0.70302 0.40614 0.0
O37 O 0.18592 0.66468 0.25553 0.0
C38 C 0.154 0.7175 0.36774 0.0
C39 C 0.24588 0.69719 0.36498 0.0
Zn40 Zn 0.59951 0.90038 0.69314 0.0
Zn41 Zn 0.59759 0.88882 0.55608 0.0
C42 C 0.54078 0.91279 0.73705 0.0
O43 O 0.54773 0.94175 0.73435 0.0
C44 C 0.61899 0.85267 0.48686 0.0
O45 O 0.59147 0.84204 0.49361 0.0
O46 O 0.63139 0.89515 0.74091 0.0
O47 O 0.60647 0.86631 0.64828 0.0
O48 O 0.58042 0.8529 0.5893 0.0
C49 C 0.62815 0.86862 0.7569 0.0
O50 O 0.60527 0.85192 0.74308 0.0
O51 O 0.55877 0.89316 0.72106 0.0
C52 C 0.56151 0.91343 0.483 0.0
O53 O 0.58789 0.91663 0.46331 0.0
O54 O 0.56086 0.90536 0.52364 0.0
O55 O 0.61481 0.91429 0.60585 0.0
O56 O 0.59941 0.9415 0.6613 0.0
O57 O 0.62859 0.87415 0.51145 0.0
C58 C 0.58574 0.85009 0.63073 0.0
C59 C 0.60434 0.93917 0.61981 0.0
Zn60 Zn 0.39546 0.28817 0.94921 0.0
Zn61 Zn 0.41264 0.30089 0.81282 0.0
C62 C 0.37853 0.2376 0.00715 0.0
O63 O 0.3553 0.25454 0.01833 0.0
C64 C 0.43264 0.3245 0.73256 0.0
O65 O 0.44482 0.29734 0.73368 0.0
O66 O 0.40391 0.32037 0.99609 0.0
O67 O 0.43011 0.28897 0.90539 0.0
O68 O 0.45369 0.29442 0.84182 0.0
C69 C 0.4244 0.31224 0.02364 0.0
O70 O 0.43696 0.28546 0.01902 0.0
O71 O 0.39696 0.24718 0.97792 0.0
C72 C 0.39036 0.25696 0.74643 0.0
O73 O 0.37929 0.28094 0.72615 0.0
O74 O 0.4031 0.26016 0.78424 0.0
O75 O 0.38517 0.31094 0.86413 0.0
O76 O 0.35566 0.29166 0.91442 0.0
O77 O 0.41677 0.33327 0.76533 0.0
C78 C 0.45448 0.2881 0.88315 0.0
C79 C 0.3599 0.29892 0.87396 0.0
Zn80 Zn 0.09188 0.89166 0.93843 0.0
Zn81 Zn 0.10016 0.90366 0.80251 0.0
C82 C 0.12694 0.85182 0.99207 0.0
O83 O 0.10785 0.83242 0.9741 0.0
C84 C 0.04436 0.91606 0.75254 0.0
O85 O 0.05534 0.94362 0.74762 0.0
O86 O 0.05469 0.9051 0.97279 0.0
O87 O 0.10669 0.91604 0.88786 0.0
O88 O 0.10088 0.94611 0.83238 0.0
C89 C 0.05818 0.91552 0.01193 0.0
O90 O 0.08578 0.92175 0.026 0.0
O91 O 0.12521 0.87973 0.98171 0.0
C92 C 0.13207 0.87114 0.74039 0.0
O93 O 0.11461 0.85089 0.75973 0.0
O94 O 0.13042 0.89875 0.75245 0.0
O95 O 0.10766 0.86736 0.84569 0.0
O96 O 0.07882 0.85559 0.903 0.0
O97 O 0.05914 0.89675 0.77536 0.0
C98 C 0.10221 0.94256 0.87418 0.0
C99 C 0.08727 0.85057 0.86315 0.0
Zn100 Zn 0.40446 0.79707 0.18793 0.0
Zn101 Zn 0.39383 0.79468 0.04892 0.0
C102 C 0.42543 0.82059 0.26881 0.0
O103 O 0.43456 0.79231 0.27137 0.0
C104 C 0.38312 0.73236 0.00441 0.0
O105 O 0.36373 0.72172 0.03367 0.0
O106 O 0.39428 0.75573 0.21431 0.0
O107 O 0.38205 0.80947 0.13354 0.0
O108 O 0.35258 0.79626 0.07952 0.0
C109 C 0.38247 0.75115 0.25231 0.0
O110 O 0.37013 0.77406 0.27334 0.0
O111 O 0.41044 0.82925 0.23483 0.0
C112 C 0.42874 0.82218 0.98805 0.0
O113 O 0.44341 0.79845 0.00339 0.0
O114 O 0.40352 0.82905 0.00592 0.0
O115 O 0.43048 0.78942 0.09168 0.0
O116 O 0.44514 0.79018 0.16237 0.0
O117 O 0.39443 0.7587 0.00892 0.0
C118 C 0.35613 0.8008 0.12079 0.0
C119 C 0.4512 0.78678 0.12129 0.0
Zn120 Zn 0.50832 0.109 0.44073 0.0
Zn121 Zn 0.50722 0.08683 0.30303 0.0
C122 C 0.48549 0.13923 0.51471 0.0
O123 O 0.51418 0.14754 0.51431 0.0
C124 C 0.56844 0.08463 0.26244 0.0
O125 O 0.57917 0.09364 0.3011 0.0
O126 O 0.54433 0.09374 0.4769 0.0
O127 O 0.49339 0.08268 0.39106 0.0
O128 O 0.50173 0.04894 0.34054 0.0
C129 C 0.54096 0.08338 0.51614 0.0
O130 O 0.51341 0.07771 0.53058 0.0
O131 O 0.47552 0.12242 0.48349 0.0
C132 C 0.4793 0.11872 0.23817 0.0
O133 O 0.50699 0.12975 0.24115 0.0
O134 O 0.47095 0.09849 0.2658 0.0
O135 O 0.51977 0.12314 0.34148 0.0
O136 O 0.52448 0.14508 0.40741 0.0
O137 O 0.54023 0.07914 0.25823 0.0
C138 C 0.4994 0.05545 0.38143 0.0
C139 C 0.5276 0.14576 0.36525 0.0
Zn140 Zn 0.19738 0.21885 0.67852 0.0
Zn141 Zn 0.21364 0.19381 0.55179 0.0
C142 C 0.15565 0.19212 0.73484 0.0
O143 O 0.14174 0.21679 0.72113 0.0
C144 C 0.22253 0.25782 0.5122 0.0
O145 O 0.24782 0.2636 0.53396 0.0
O146 O 0.21106 0.25528 0.714 0.0
O147 O 0.22466 0.20295 0.63423 0.0
O148 O 0.25641 0.19368 0.58272 0.0
C149 C 0.22451 0.25018 0.75077 0.0
O150 O 0.23243 0.2222 0.7603 0.0
O151 O 0.1821 0.18663 0.72037 0.0
C152 C 0.18326 0.16718 0.48286 0.0
O153 O 0.16691 0.19073 0.49434 0.0
O154 O 0.20721 0.1611 0.50505 0.0
O155 O 0.17553 0.19216 0.5929 0.0
O156 O 0.16387 0.23018 0.63735 0.0
O157 O 0.20898 0.23259 0.51744 0.0
C158 C 0.25184 0.20061 0.62296 0.0
C159 C 0.15937 0.21548 0.6014 0.0
Zn160 Zn 0.91299 0.30041 0.69234 0.0
Zn161 Zn 0.89512 0.29286 0.55518 0.0
C162 C 0.9267 0.33168 0.77277 0.0
O163 O 0.92099 0.30443 0.78832 0.0
C164 C 0.88455 0.23144 0.50839 0.0
O165 O 0.86362 0.22121 0.53561 0.0
O166 O 0.89617 0.26706 0.73178 0.0
O167 O 0.887 0.31161 0.63959 0.0
O168 O 0.85552 0.2949 0.58962 0.0
C169 C 0.90247 0.23907 0.72811 0.0
O170 O 0.9162 0.2296 0.69203 0.0
O171 O 0.92448 0.33645 0.73108 0.0
C172 C 0.93205 0.32398 0.50016 0.0
O173 O 0.94627 0.29914 0.51223 0.0
O174 O 0.90585 0.32899 0.51619 0.0
O175 O 0.92961 0.28467 0.59924 0.0
O176 O 0.95113 0.28365 0.6654 0.0
O177 O 0.89607 0.25762 0.51389 0.0
C178 C 0.86108 0.30083 0.63021 0.0
C179 C 0.95239 0.27865 0.62378 0.0
Zn180 Zn 0.70625 0.69874 0.18517 0.0
Zn181 Zn 0.71701 0.69688 0.04579 0.0
C182 C 0.68504 0.67653 0.26566 0.0
O183 O 0.67398 0.70417 0.2645 0.0
C184 C 0.72104 0.75879 0.00648 0.0
O185 O 0.72168 0.76992 0.047 0.0
O186 O 0.71653 0.7401 0.21175 0.0
O187 O 0.72792 0.68534 0.13166 0.0
O188 O 0.75826 0.69576 0.07802 0.0
C189 C 0.72812 0.7439 0.25025 0.0
O190 O 0.74044 0.72058 0.27062 0.0
O191 O 0.70085 0.66721 0.23318 0.0
C192 C 0.68054 0.6668 0.98922 0.0
O193 O 0.66752 0.69248 9e-05 0.0
O194 O 0.70599 0.6604 0.00723 0.0
O195 O 0.67949 0.70505 0.08651 0.0
O196 O 0.66615 0.70598 0.15795 0.0
O197 O 0.71965 0.73029 0.00085 0.0
C198 C 0.75424 0.69253 0.11938 0.0
C199 C 0.65955 0.70899 0.11682 0.0
Zn200 Zn 0.70652 0.19377 0.93803 0.0
Zn201 Zn 0.69505 0.21356 0.80308 0.0
C202 C 0.71419 0.25556 0.98058 0.0
O203 O 0.74047 0.26005 0.96109 0.0
C204 C 0.66405 0.16111 0.76472 0.0
O205 O 0.65024 0.15982 0.80333 0.0
O206 O 0.69919 0.15949 0.98184 0.0
O207 O 0.67294 0.19244 0.88944 0.0
O208 O 0.65816 0.22474 0.83783 0.0
C209 C 0.67144 0.15901 0.99336 0.0
O210 O 0.6528 0.17875 0.9754 0.0
O211 O 0.69937 0.23124 0.97356 0.0
C212 C 0.72238 0.2461 0.7324 0.0
O213 O 0.73226 0.21864 0.72387 0.0
O214 O 0.70832 0.25054 0.76862 0.0
O215 O 0.72193 0.2012 0.85276 0.0
O216 O 0.74997 0.19432 0.91069 0.0
O217 O 0.68474 0.18081 0.75872 0.0
C218 C 0.65597 0.21441 0.87733 0.0
C219 C 0.74814 0.19892 0.86903 0.0
Zn220 Zn 0.89816 0.79461 0.44177 0.0
Zn221 Zn 0.91221 0.78501 0.30762 0.0
C222 C 0.89048 0.74177 0.49883 0.0
O223 O 0.86596 0.75598 0.51207 0.0
C224 C 0.94356 0.83606 0.26567 0.0
O225 O 0.95809 0.83796 0.30387 0.0
O226 O 0.90298 0.82392 0.49323 0.0
O227 O 0.93361 0.80368 0.39897 0.0
O228 O 0.94888 0.77439 0.34413 0.0
C229 C 0.92819 0.81833 0.51242 0.0
O230 O 0.94565 0.79702 0.49605 0.0
O231 O 0.90622 0.75316 0.46759 0.0
C232 C 0.88652 0.74939 0.23809 0.0
O233 O 0.87951 0.77679 0.22426 0.0
O234 O 0.89856 0.74647 0.27638 0.0
O235 O 0.88601 0.80086 0.35549 0.0
O236 O 0.85591 0.79342 0.41044 0.0
O237 O 0.92285 0.8162 0.26096 0.0
C238 C 0.95143 0.78336 0.38433 0.0
C239 C 0.85972 0.79449 0.36864 0.0
Zn240 Zn 0.5065 0.59081 0.69038 0.0
Zn241 Zn 0.5173 0.60999 0.55763 0.0
C242 C 0.564 0.57708 0.73916 0.0
O243 O 0.55695 0.54814 0.73673 0.0
C244 C 0.49708 0.64257 0.4827 0.0
O245 O 0.52519 0.65242 0.48641 0.0
O246 O 0.47444 0.59461 0.73815 0.0
O247 O 0.50005 0.62869 0.65018 0.0
O248 O 0.52938 0.64506 0.59615 0.0
C249 C 0.47841 0.62084 0.75488 0.0
O250 O 0.5016 0.63719 0.74138 0.0
O251 O 0.54681 0.59663 0.72088 0.0
C252 C 0.55776 0.58755 0.48884 0.0
O253 O 0.53229 0.58302 0.46691 0.0
O254 O 0.55658 0.59644 0.52902 0.0
O255 O 0.49931 0.58272 0.60308 0.0
O256 O 0.50701 0.55031 0.65541 0.0
O257 O 0.48718 0.62361 0.51111 0.0
C258 C 0.52091 0.64648 0.63656 0.0
C259 C 0.50569 0.55593 0.61403 0.0
Zn260 Zn 0.10153 0.39923 0.19367 0.0
Zn261 Zn 0.10229 0.39091 0.05538 0.0
C262 C 0.039 0.40486 0.23464 0.0
O263 O 0.03503 0.43143 0.21561 0.0
C264 C 0.15196 0.35685 0.01549 0.0
O265 O 0.15033 0.34045 0.05197 0.0
O266 O 0.13494 0.39369 0.23998 0.0
O267 O 0.10855 0.36701 0.146 0.0
O268 O 0.08519 0.35337 0.08494 0.0
C269 C 0.13174 0.36654 0.25383 0.0
O270 O 0.10974 0.35005 0.23677 0.0
O271 O 0.06302 0.38985 0.22705 0.0
C272 C 0.06802 0.4162 0.98161 0.0
O273 O 0.09482 0.4177 0.96272 0.0
O274 O 0.06625 0.40799 0.02211 0.0
O275 O 0.11742 0.41601 0.10719 0.0
O276 O 0.09835 0.44084 0.16274 0.0
O277 O 0.13475 0.37975 0.01115 0.0
C278 C 0.0888 0.35051 0.12676 0.0
C279 C 0.10461 0.4397 0.12145 0.0
Zn280 Zn 0.5878 0.38844 0.42845 0.0
Zn281 Zn 0.6056 0.40743 0.29815 0.0
C282 C 0.62246 0.34751 0.4815 0.0
O283 O 0.60523 0.32808 0.45987 0.0
C284 C 0.55461 0.41953 0.23831 0.0
O285 O 0.57282 0.44015 0.22131 0.0
O286 O 0.54931 0.40127 0.45889 0.0
O287 O 0.60309 0.41583 0.38269 0.0
O288 O 0.61008 0.44882 0.33149 0.0
C289 C 0.54986 0.41168 0.49827 0.0
O290 O 0.57623 0.417 0.51735 0.0
O291 O 0.61964 0.37569 0.47349 0.0
C292 C 0.6278 0.37487 0.23074 0.0
O293 O 0.6041 0.36049 0.2468 0.0
O294 O 0.63476 0.40063 0.24703 0.0
O295 O 0.61066 0.3689 0.33837 0.0
O296 O 0.57705 0.35413 0.38829 0.0
O297 O 0.56328 0.4046 0.27228 0.0
C298 C 0.60592 0.44323 0.37241 0.0
C299 C 0.58878 0.35149 0.34979 0.0
Zn300 Zn 0.00238 0.59405 0.93779 0.0
Zn301 Zn 0.01487 0.58343 0.79878 0.0
C302 C 0.97725 0.62503 0.00753 0.0
O303 O 0.00365 0.6382 0.00088 0.0
C304 C 0.06276 0.56826 0.73456 0.0
O305 O 0.04315 0.54872 0.71802 0.0
O306 O 0.04221 0.58167 0.96673 0.0
O307 O 0.99053 0.57167 0.88291 0.0
O308 O 0.00892 0.54306 0.83138 0.0
C309 C 0.04422 0.57317 0.0071 0.0
O310 O 0.01921 0.56796 0.02956 0.0
O311 O 0.96991 0.6022 0.98388 0.0
C312 C 0.99403 0.61422 0.72428 0.0
O313 O 0.02114 0.62564 0.73177 0.0
O314 O 0.98398 0.59377 0.75045 0.0
O315 O 0.01801 0.61965 0.8414 0.0
O316 O 0.01256 0.63404 0.9115 0.0
O317 O 0.05597 0.58278 0.76959 0.0
C318 C 0.0012 0.54624 0.87173 0.0
C319 C 0.01892 0.6402 0.87123 0.0
H320 H 0.10644 0.06319 0.94558 0.0
H321 H 0.09664 0.19295 0.75943 0.0
H322 H 0.03693 0.13151 0.93581 0.0
H323 H 0.18089 0.14622 0.78556 0.0
H324 H 0.07258 0.16371 0.81785 0.0
H325 H 0.13307 0.08752 0.88222 0.0
C326 C 0.09695 0.08327 0.93008 0.0
C327 C 0.06951 0.09545 0.94523 0.0
C328 C 0.09636 0.15975 0.81101 0.0
C329 C 0.09922 0.12291 0.87389 0.0
C330 C 0.11012 0.17646 0.7775 0.0
C331 C 0.1409 0.1723 0.768 0.0
C332 C 0.11341 0.13868 0.83566 0.0
C333 C 0.15708 0.15018 0.79209 0.0
C334 C 0.11202 0.09707 0.89418 0.0
C335 C 0.05791 0.12137 0.92455 0.0
N336 N 0.14316 0.13424 0.82522 0.0
N337 N 0.07277 0.13417 0.89001 0.0
H338 H 0.19468 0.79014 0.23999 0.0
H339 H 0.1583 0.79949 0.988 0.0
H340 H 0.24344 0.73761 0.14273 0.0
H341 H 0.14583 0.87858 0.06998 0.0
H342 H 0.19073 0.77749 0.04547 0.0
H343 H 0.17887 0.82511 0.18081 0.0
C344 C 0.20277 0.78638 0.20648 0.0
C345 C 0.21974 0.76039 0.19608 0.0
C346 C 0.18144 0.79992 0.05072 0.0
C347 C 0.20142 0.80002 0.12846 0.0
C348 C 0.16282 0.81237 0.018 0.0
C349 C 0.14949 0.84077 0.02444 0.0
C350 C 0.18605 0.81554 0.09087 0.0
C351 C 0.15595 0.85663 0.06386 0.0
C352 C 0.1937 0.80637 0.17273 0.0
C353 C 0.22979 0.75691 0.15217 0.0
N354 N 0.17333 0.84349 0.0962 0.0
N355 N 0.21991 0.77606 0.11984 0.0
H356 H 0.44777 0.87772 0.25573 0.0
H357 H 0.50662 0.88923 0.50709 0.0
H358 H 0.42847 0.81183 0.35804 0.0
H359 H 0.55284 0.93109 0.39632 0.0
H360 H 0.46597 0.87332 0.45668 0.0
H361 H 0.47483 0.90888 0.31105 0.0
C362 C 0.44845 0.87034 0.29013 0.0
C363 C 0.43606 0.84227 0.30259 0.0
C364 C 0.48473 0.88651 0.44362 0.0
C365 C 0.4666 0.87756 0.3656 0.0
C366 C 0.5079 0.89579 0.47239 0.0
C367 C 0.53355 0.91094 0.45569 0.0
C368 C 0.48707 0.89268 0.39793 0.0
C369 C 0.53376 0.91895 0.41044 0.0
C370 C 0.46402 0.88795 0.32152 0.0
C371 C 0.43793 0.83333 0.34727 0.0
N372 N 0.51107 0.90934 0.38295 0.0
N373 N 0.45306 0.85087 0.37719 0.0
H374 H 0.42975 0.2107 0.76533 0.0
H375 H 0.42333 0.14543 0.51753 0.0
H376 H 0.36348 0.23973 0.668 0.0
H377 H 0.50413 0.15195 0.59874 0.0
H378 H 0.39344 0.165 0.58032 0.0
H379 H 0.44814 0.17296 0.71263 0.0
C380 C 0.41845 0.2086 0.73338 0.0
C381 C 0.39555 0.22895 0.72056 0.0
C382 C 0.41766 0.16168 0.58437 0.0
C383 C 0.41661 0.18589 0.66021 0.0
C384 C 0.43466 0.15059 0.54869 0.0
C385 C 0.46628 0.14781 0.55274 0.0
C386 C 0.43241 0.16934 0.62439 0.0
C387 C 0.47988 0.15447 0.5939 0.0
C388 C 0.42911 0.18715 0.70323 0.0
C389 C 0.38162 0.22491 0.67885 0.0
N390 N 0.46291 0.16506 0.62801 0.0
N391 N 0.3927 0.20413 0.64979 0.0
H392 H 0.92506 0.831 0.17864 0.0
H393 H 0.05467 0.94357 0.09254 0.0
H394 H 0.98496 0.88254 0.26416 0.0
H395 H 0.00536 0.88223 0.00671 0.0
H396 H 0.0205 0.93036 0.1534 0.0
H397 H 0.94628 0.85738 0.11408 0.0
C398 C 0.94238 0.84816 0.18394 0.0
C399 C 0.95352 0.85432 0.22692 0.0
C400 C 0.01686 0.92008 0.12111 0.0
C401 C 0.97783 0.88461 0.15307 0.0
C402 C 0.03628 0.92774 0.08626 0.0
C403 C 0.03325 0.91355 0.04473 0.0
C404 C 0.9944 0.89779 0.11458 0.0
C405 C 0.00871 0.89353 0.03831 0.0
C406 C 0.95449 0.86318 0.14701 0.0
C407 C 0.97589 0.87682 0.23168 0.0
N408 N 0.99057 0.8858 0.07313 0.0
N409 N 0.98746 0.89095 0.19522 0.0
H410 H 0.88292 0.25427 0.81159 0.0
H411 H 0.9648 0.11354 0.92964 0.0
H412 H 0.92285 0.18055 0.73799 0.0
H413 H 0.95625 0.20249 0.98795 0.0
H414 H 0.93706 0.13168 0.86367 0.0
H415 H 0.89608 0.22839 0.88089 0.0
C416 C 0.8939 0.23235 0.80988 0.0
C417 C 0.90259 0.21999 0.76882 0.0
C418 C 0.94093 0.14702 0.89125 0.0
C419 C 0.91757 0.19023 0.84821 0.0
C420 C 0.95662 0.1367 0.92892 0.0
C421 C 0.96289 0.1566 0.96426 0.0
C422 C 0.93109 0.17728 0.8893 0.0
C423 C 0.95203 0.18643 0.96139 0.0
C424 C 0.90152 0.21767 0.84953 0.0
C425 C 0.91621 0.1912 0.76886 0.0
N426 N 0.93674 0.19587 0.92456 0.0
N427 N 0.92369 0.17746 0.808 0.0
H428 H 0.67887 0.16693 0.67651 0.0
H429 H 0.54426 0.05729 0.59841 0.0
H430 H 0.62268 0.11465 0.76586 0.0
H431 H 0.5945 0.11505 0.50877 0.0
H432 H 0.5798 0.07039 0.65796 0.0
H433 H 0.65465 0.14144 0.61338 0.0
C434 C 0.6618 0.14973 0.68293 0.0
C435 C 0.6526 0.14308 0.72661 0.0
C436 C 0.58334 0.07989 0.62513 0.0
C437 C 0.62476 0.11387 0.65439 0.0
C438 C 0.56313 0.07227 0.59103 0.0
C439 C 0.56616 0.08539 0.54872 0.0
C440 C 0.6066 0.10106 0.61705 0.0
C441 C 0.59121 0.10448 0.54095 0.0
C442 C 0.64793 0.13524 0.64681 0.0
C443 C 0.63032 0.12067 0.7328 0.0
N444 N 0.61017 0.11217 0.57502 0.0
N445 N 0.61702 0.10707 0.69712 0.0
H446 H 0.6026 0.80897 0.4275 0.0
H447 H 0.75601 0.76934 0.32316 0.0
H448 H 0.67723 0.86852 0.46158 0.0
H449 H 0.67553 0.7757 0.24125 0.0
H450 H 0.73131 0.80165 0.37907 0.0
H451 H 0.63202 0.7895 0.36536 0.0
C452 C 0.62514 0.81807 0.42191 0.0
C453 C 0.63739 0.84055 0.44979 0.0
C454 C 0.7195 0.7965 0.34828 0.0
C455 C 0.67118 0.81811 0.37857 0.0
C456 C 0.73354 0.7782 0.3164 0.0
C457 C 0.71773 0.76968 0.27765 0.0
C458 C 0.68921 0.80529 0.34182 0.0
C459 C 0.68861 0.7817 0.27056 0.0
C460 C 0.6418 0.80705 0.38623 0.0
C461 C 0.66693 0.85117 0.44093 0.0
N462 N 0.67497 0.79816 0.30291 0.0
N463 N 0.68304 0.83963 0.40622 0.0
H464 H 0.67378 0.6154 0.2645 0.0
H465 H 0.6092 0.61892 0.51226 0.0
H466 H 0.67818 0.6928 0.35187 0.0
H467 H 0.57136 0.56313 0.40781 0.0
H468 H 0.64998 0.63434 0.462 0.0
H469 H 0.65129 0.58545 0.32527 0.0
C470 C 0.67075 0.62579 0.29681 0.0
C471 C 0.6773 0.65661 0.30325 0.0
C472 C 0.63314 0.61814 0.45052 0.0
C473 C 0.65215 0.62271 0.37242 0.0
C474 C 0.60994 0.60917 0.47923 0.0
C475 C 0.58647 0.59022 0.4638 0.0
C476 C 0.63298 0.60782 0.40636 0.0
C477 C 0.58871 0.57823 0.42071 0.0
C478 C 0.65787 0.60879 0.33128 0.0
C479 C 0.67292 0.66916 0.34554 0.0
N480 N 0.61131 0.58759 0.3932 0.0
N481 N 0.66041 0.65222 0.37848 0.0
H482 H 0.69927 0.30407 0.73502 0.0
H483 H 0.64544 0.29065 0.48928 0.0
H484 H 0.73699 0.23802 0.6451 0.0
H485 H 0.64791 0.37876 0.55168 0.0
H486 H 0.67791 0.27092 0.54839 0.0
H487 H 0.68104 0.33327 0.67071 0.0
C488 C 0.70437 0.29607 0.70184 0.0
C489 C 0.719 0.26812 0.69546 0.0
C490 C 0.67178 0.2947 0.54885 0.0
C491 C 0.69772 0.30102 0.6222 0.0
C492 C 0.65306 0.30593 0.51527 0.0
C493 C 0.64396 0.33636 0.51563 0.0
C494 C 0.681 0.31382 0.5837 0.0
C495 C 0.65453 0.35514 0.55016 0.0
C496 C 0.69391 0.31273 0.66521 0.0
C497 C 0.7253 0.25909 0.65172 0.0
N498 N 0.67216 0.34343 0.58335 0.0
N499 N 0.71396 0.27507 0.6168 0.0
H500 H 0.0097 0.40224 0.00578 0.0
H501 H 0.95838 0.38388 0.7526 0.0
H502 H 0.06291 0.43302 0.89406 0.0
H503 H 0.92304 0.33204 0.86294 0.0
H504 H 0.98625 0.41606 0.80562 0.0
H505 H 0.96746 0.39168 0.95518 0.0
C506 C 0.0123 0.40748 0.97077 0.0
C507 C 0.04023 0.41758 0.95388 0.0
C508 C 0.9719 0.39797 0.81811 0.0
C509 C 0.99202 0.40543 0.89588 0.0
C510 C 0.95597 0.37968 0.78793 0.0
C511 C 0.93892 0.35489 0.80341 0.0
C512 C 0.97051 0.39146 0.86387 0.0
C513 C 0.9364 0.35056 0.84953 0.0
C514 C 0.98818 0.40134 0.94188 0.0
C515 C 0.04204 0.42444 0.90831 0.0
N516 N 0.95232 0.3684 0.87807 0.0
N517 N 0.01845 0.4177 0.8807 0.0
H518 H 0.90581 0.69035 0.25072 0.0
H519 H 0.96583 0.6846 0.01459 0.0
H520 H 0.87005 0.7511 0.15063 0.0
H521 H 0.9411 0.59807 0.07127 0.0
H522 H 0.93432 0.70994 0.06962 0.0
H523 H 0.92019 0.65484 0.19143 0.0
C524 C 0.90029 0.69591 0.21651 0.0
C525 C 0.88756 0.7242 0.20551 0.0
C526 C 0.93534 0.68537 0.06963 0.0
C527 C 0.90431 0.68409 0.13817 0.0
C528 C 0.95341 0.67094 0.03845 0.0
C529 C 0.95581 0.63929 0.03842 0.0
C530 C 0.92026 0.66814 0.10201 0.0
C531 C 0.93947 0.62257 0.07018 0.0
C532 C 0.90845 0.67561 0.18281 0.0
C533 C 0.88053 0.72997 0.16068 0.0
N534 N 0.92273 0.63728 0.10155 0.0
N535 N 0.8898 0.71053 0.12859 0.0
H536 H 0.53974 0.43882 0.57866 0.0
H537 H 0.43442 0.30688 0.64656 0.0
H538 H 0.49732 0.38042 0.48128 0.0
H539 H 0.44348 0.38582 0.73008 0.0
H540 H 0.45272 0.33645 0.58338 0.0
H541 H 0.50044 0.42452 0.63213 0.0
C542 C 0.52175 0.42355 0.56821 0.0
C543 C 0.52225 0.41014 0.52592 0.0
C544 C 0.45011 0.34761 0.61521 0.0
C545 C 0.47767 0.39332 0.587 0.0
C546 C 0.43982 0.33068 0.65129 0.0
C547 C 0.43794 0.34393 0.6935 0.0
C548 C 0.45956 0.37776 0.62173 0.0
C549 C 0.44484 0.37484 0.69796 0.0
C550 C 0.49928 0.41545 0.59871 0.0
C551 C 0.49812 0.39093 0.5138 0.0
N552 N 0.45615 0.3906 0.66267 0.0
N553 N 0.47726 0.38244 0.5446 0.0
H554 H 0.5158 0.66943 0.40592 0.0
H555 H 0.35762 0.72815 0.32888 0.0
H556 H 0.43509 0.63825 0.47318 0.0
H557 H 0.43105 0.71435 0.23656 0.0
H558 H 0.38346 0.69467 0.38227 0.0
H559 H 0.48432 0.68745 0.34443 0.0
C560 C 0.49143 0.66628 0.40769 0.0
C561 C 0.47801 0.65253 0.44487 0.0
C562 C 0.39349 0.69847 0.34989 0.0
C563 C 0.4418 0.6732 0.37451 0.0
C564 C 0.37875 0.71749 0.31942 0.0
C565 C 0.39246 0.72452 0.27858 0.0
C566 C 0.42239 0.68712 0.3397 0.0
C567 C 0.41972 0.70985 0.26779 0.0
C568 C 0.47349 0.67633 0.37237 0.0
C569 C 0.44631 0.64885 0.44516 0.0
N570 N 0.43417 0.6925 0.29863 0.0
N571 N 0.42916 0.65957 0.41075 0.0
H572 H 0.15959 0.61162 0.22893 0.0
H573 H 0.09544 0.60345 0.98038 0.0
H574 H 0.16653 0.68331 0.13156 0.0
H575 H 0.0593 0.55086 0.08938 0.0
H576 H 0.1368 0.6206 0.02877 0.0
H577 H 0.13774 0.57834 0.17133 0.0
C578 C 0.15714 0.6201 0.19525 0.0
C579 C 0.16413 0.65039 0.18508 0.0
C580 C 0.1202 0.60475 0.04176 0.0
C581 C 0.1397 0.61261 0.11939 0.0
C582 C 0.09664 0.59479 0.0141 0.0
C583 C 0.07337 0.57641 0.03133 0.0
C584 C 0.12057 0.59606 0.08675 0.0
C585 C 0.07636 0.56568 0.07514 0.0
C586 C 0.14466 0.60117 0.16251 0.0
C587 C 0.16073 0.66027 0.14094 0.0
N588 N 0.09922 0.57609 0.10165 0.0
N589 N 0.1485 0.64153 0.10981 0.0
H590 H 0.19767 0.30643 0.74995 0.0
H591 H 0.19242 0.30979 0.01322 0.0
H592 H 0.24999 0.24624 0.83367 0.0
H593 H 0.15379 0.38031 0.93088 0.0
H594 H 0.21812 0.28948 0.948 0.0
H595 H 0.18673 0.3377 0.81497 0.0
C596 C 0.20743 0.30013 0.7818 0.0
C597 C 0.22414 0.27322 0.78657 0.0
C598 C 0.20439 0.30967 0.94426 0.0
C599 C 0.21129 0.30867 0.86126 0.0
C600 C 0.18964 0.32125 0.98155 0.0
C601 C 0.17065 0.34662 0.97751 0.0
C602 C 0.19987 0.32329 0.90242 0.0
C603 C 0.16804 0.36058 0.93556 0.0
C604 C 0.20105 0.31795 0.819 0.0
C605 C 0.23642 0.2664 0.8286 0.0
N606 N 0.18213 0.3485 0.89956 0.0
N607 N 0.22928 0.28367 0.86444 0.0
H608 H 0.03 0.33195 0.12872 0.0
H609 H 0.07949 0.16466 0.15572 0.0
H610 H 0.11988 0.30717 0.17242 0.0
H611 H 0.98531 0.19065 0.15711 0.0
H612 H 0.09382 0.21661 0.17515 0.0
H613 H 0.01153 0.28169 0.15094 0.0
C614 C 0.04561 0.31609 0.14411 0.0
C615 C 0.07639 0.32347 0.14883 0.0
C616 C 0.06995 0.21091 0.17242 0.0
C617 C 0.05587 0.26585 0.17301 0.0
C618 C 0.06184 0.18127 0.16139 0.0
C619 C 0.03131 0.17373 0.15453 0.0
C620 C 0.04736 0.2333 0.17487 0.0
C621 C 0.00914 0.19582 0.16211 0.0
C622 C 0.03513 0.28747 0.15689 0.0
C623 C 0.09589 0.30228 0.16863 0.0
N624 N 0.01764 0.22491 0.17077 0.0
N625 N 0.08542 0.27416 0.17921 0.0
H626 H 0.97203 0.7303 0.418 0.0
H627 H 0.13037 0.77168 0.34523 0.0
H628 H 0.99673 0.82402 0.39863 0.0
H629 H 0.11818 0.69618 0.43475 0.0
H630 H 0.08271 0.79338 0.37139 0.0
H631 H 0.0252 0.71843 0.43443 0.0
C632 C 0.98863 0.74849 0.41875 0.0
C633 C 0.98044 0.778 0.40667 0.0
C634 C 0.09069 0.7724 0.38613 0.0
C635 C 0.04098 0.7646 0.42327 0.0
C636 C 0.11765 0.75994 0.37085 0.0
C637 C 0.12753 0.732 0.38743 0.0
C638 C 0.07304 0.75615 0.41689 0.0
C639 C 0.11081 0.71767 0.42098 0.0
C640 C 0.0189 0.74179 0.4281 0.0
C641 C 0.00248 0.80094 0.4077 0.0
N642 N 0.08378 0.72952 0.43386 0.0
N643 N 0.03205 0.7936 0.41452 0.0
H644 H 0.48135 0.68983 0.66464 0.0
H645 H 0.61738 0.80875 0.67979 0.0
H646 H 0.57636 0.66707 0.66122 0.0
H647 H 0.5274 0.82992 0.63233 0.0
H648 H 0.59908 0.75881 0.70392 0.0
H649 H 0.49509 0.74232 0.68395 0.0
C650 C 0.50504 0.69571 0.66957 0.0
C651 C 0.52789 0.67454 0.66076 0.0
C652 C 0.58315 0.77471 0.68934 0.0
C653 C 0.54365 0.73397 0.68242 0.0
C654 C 0.59353 0.80321 0.67583 0.0
C655 C 0.57381 0.82322 0.65395 0.0
C656 C 0.55294 0.76622 0.68052 0.0
C657 C 0.54328 0.81486 0.6488 0.0
C658 C 0.51286 0.72559 0.68032 0.0
C659 C 0.55821 0.68305 0.66725 0.0
N660 N 0.53381 0.78679 0.6615 0.0
N661 N 0.56528 0.71227 0.67716 0.0
H662 H 0.64408 0.26997 0.91096 0.0
H663 H 0.4674 0.23218 0.91576 0.0
H664 H 0.60725 0.17966 0.89951 0.0
H665 H 0.50609 0.32094 0.89501 0.0
H666 H 0.51813 0.21278 0.93466 0.0
H667 H 0.59388 0.2885 0.93243 0.0
C668 C 0.62551 0.25394 0.9144 0.0
C669 C 0.62949 0.22339 0.90343 0.0
C670 C 0.5154 0.23667 0.92718 0.0
C671 C 0.57201 0.24441 0.92596 0.0
C672 C 0.48654 0.24771 0.91657 0.0
C673 C 0.48297 0.27804 0.90361 0.0
C674 C 0.54058 0.2563 0.9251 0.0
C675 C 0.50821 0.29733 0.90454 0.0
C676 C 0.59688 0.26449 0.92631 0.0
C677 C 0.6049 0.2034 0.908 0.0
N678 N 0.53605 0.28608 0.91477 0.0
N679 N 0.57694 0.21437 0.91806 0.0
H680 H 0.12044 0.80351 0.89264 0.0
H681 H 0.02071 0.67036 0.79043 0.0
H682 H 0.04741 0.82645 0.80296 0.0
H683 H 0.04467 0.67939 0.9293 0.0
H684 H 0.04267 0.72121 0.77663 0.0
H685 H 0.10709 0.74981 0.88507 0.0
C686 C 0.10218 0.79702 0.87025 0.0
C687 C 0.08469 0.81904 0.84868 0.0
C688 C 0.0431 0.71171 0.80989 0.0
C689 C 0.06929 0.75824 0.84019 0.0
C690 C 0.0307 0.68287 0.81778 0.0
C691 C 0.0309 0.67069 0.86103 0.0
C692 C 0.0564 0.72767 0.84534 0.0
C693 C 0.04385 0.68788 0.89548 0.0
C694 C 0.09454 0.76656 0.86607 0.0
C695 C 0.06121 0.80982 0.82011 0.0
N696 N 0.05624 0.71535 0.88681 0.0
N697 N 0.05377 0.77988 0.81706 0.0
H698 H 0.63748 0.73761 0.04117 0.0
H699 H 0.50212 0.80073 0.16747 0.0
H700 H 0.60971 0.69933 0.16707 0.0
H701 H 0.47178 0.75485 0.04837 0.0
H702 H 0.55306 0.78099 0.15546 0.0
H703 H 0.5856 0.75788 0.03109 0.0
C704 C 0.6204 0.7328 0.06601 0.0
C705 C 0.62797 0.7171 0.1053 0.0
C706 C 0.53532 0.77588 0.13146 0.0
C707 C 0.56967 0.74037 0.09425 0.0
C708 C 0.5063 0.78699 0.13829 0.0
C709 C 0.48266 0.7792 0.10906 0.0
C710 C 0.54087 0.7569 0.0952 0.0
C711 C 0.48949 0.76154 0.07147 0.0
C712 C 0.59101 0.74441 0.06024 0.0
C713 C 0.6051 0.71181 0.13671 0.0
N714 N 0.5181 0.75047 0.06583 0.0
N715 N 0.57719 0.72389 0.13087 0.0
H716 H 0.50306 0.18173 0.30054 0.0
H717 H 0.63124 0.30769 0.33784 0.0
H718 H 0.5821 0.17097 0.38409 0.0
H719 H 0.53681 0.32822 0.31555 0.0
H720 H 0.62026 0.25387 0.32379 0.0
H721 H 0.52242 0.23171 0.2768 0.0
C722 C 0.52487 0.18961 0.31282 0.0
C723 C 0.54098 0.17275 0.34459 0.0
C724 C 0.60218 0.27034 0.3205 0.0
C725 C 0.56325 0.22895 0.31739 0.0
C726 C 0.60847 0.30095 0.32818 0.0
C727 C 0.58475 0.32201 0.32815 0.0
C728 C 0.57208 0.26109 0.31252 0.0
C729 C 0.55554 0.31236 0.31613 0.0
C730 C 0.53584 0.21797 0.29938 0.0
C731 C 0.56897 0.18371 0.35992 0.0
N732 N 0.54988 0.28242 0.3093 0.0
N733 N 0.57918 0.21128 0.34638 0.0
H734 H 0.13652 0.26258 0.55426 0.0
H735 H 0.97302 0.22202 0.64039 0.0
H736 H 0.11288 0.1753 0.60895 0.0
H737 H 0.99347 0.30347 0.56683 0.0
H738 H 0.02175 0.20066 0.6175 0.0
H739 H 0.08251 0.2738 0.54434 0.0
C740 C 0.11982 0.24543 0.56277 0.0
C741 C 0.12883 0.21808 0.58242 0.0
C742 C 0.01539 0.22294 0.60547 0.0
C743 C 0.06727 0.2311 0.57329 0.0
C744 C 0.98767 0.2351 0.61866 0.0
C745 C 0.97947 0.26436 0.60519 0.0
C746 C 0.03529 0.24058 0.57957 0.0
C747 C -0.001 0.28062 0.57729 0.0
C748 C 0.08903 0.25184 0.55743 0.0
C749 C 0.10661 0.19658 0.59339 0.0
N750 N 0.02628 0.26868 0.56589 0.0
N751 N 0.07674 0.20382 0.58962 0.0
H752 H 0.97673 0.03376 0.04301 0.0
H753 H 0.12923 0.96087 0.94979 0.0
H754 H 0.05846 0.02376 0.12084 0.0
H755 H 0.04833 0.97261 0.87053 0.0
H756 H 0.10435 0.98607 0.01197 0.0
H757 H 0.00129 0.00785 0.98098 0.0
C758 C -0.00044 0.02509 0.04735 0.0
C759 C 0.01563 0.03034 0.08683 0.0
C760 C 0.09209 0.98354 0.98087 0.0
C761 C 0.04451 0.003 0.01556 0.0
C762 C 0.10643 0.96959 0.94531 0.0
C763 C 0.09069 0.96497 0.90536 0.0
C764 C 0.06149 0.99183 0.97673 0.0
C765 C 0.06115 0.97612 0.90093 0.0
C766 C 0.01375 0.01084 0.01182 0.0
C767 C 0.04532 0.01957 0.09091 0.0
N768 N 0.04721 0.98866 0.93663 0.0
N769 N 0.05908 0.00682 0.05528 0.0
H770 H 0.26587 0.75554 0.36575 0.0
H771 H 0.32686 0.74634 0.11597 0.0
H772 H 0.26896 0.67282 0.28968 0.0
H773 H 0.33896 0.82495 0.19941 0.0
H774 H 0.30077 0.72056 0.1772 0.0
H775 H 0.2906 0.78242 0.30435 0.0
C776 C 0.27247 0.74296 0.33642 0.0
C777 C 0.2654 0.71209 0.33228 0.0
C778 C 0.30882 0.74358 0.18196 0.0
C779 C 0.29321 0.74248 0.26214 0.0
C780 C 0.32333 0.75837 0.14692 0.0
C781 C 0.33518 0.78757 0.15318 0.0
C782 C 0.30584 0.7584 0.22305 0.0
C783 C 0.33024 0.80227 0.19371 0.0
C784 C 0.28631 0.7583 0.30131 0.0
C785 C 0.27402 0.69672 0.29373 0.0
N786 N 0.31581 0.78753 0.22721 0.0
N787 N 0.28758 0.7121 0.26002 0.0
H788 H 0.55188 0.02396 0.37442 0.0
H789 H 0.5524 0.97257 0.62999 0.0
H790 H 0.47828 0.04268 0.46419 0.0
H791 H 0.62416 0.95279 0.53737 0.0
H792 H 0.52555 0.00035 0.57104 0.0
H793 H 0.57842 -0.0028 0.43413 0.0
C794 C 0.54112 0.02188 0.40664 0.0
C795 C 0.5131 0.03559 0.4149 0.0
C796 C 0.54727 0.9901 0.56375 0.0
C797 C 0.54328 0.00548 0.48332 0.0
C798 C 0.56269 0.97455 0.59743 0.0
C799 C 0.59022 0.96013 0.58803 0.0
C800 C 0.55974 0.99129 0.52082 0.0
C801 C 0.60274 0.96336 0.54558 0.0
C802 C 0.55635 0.0069 0.44082 0.0
C803 C 0.50005 0.03249 0.45698 0.0
N804 N 0.58733 0.97852 0.51344 0.0
N805 N 0.51528 0.01768 0.48983 0.0
H806 H 0.33952 0.24054 0.87095 0.0
H807 H 0.27807 0.25607 0.62067 0.0
H808 H 0.33965 0.3245 0.79716 0.0
H809 H 0.27548 0.17265 0.69537 0.0
H810 H 0.30347 0.28093 0.68354 0.0
H811 H 0.31606 0.21504 0.80706 0.0
C812 C 0.33399 0.25368 0.84151 0.0
C813 C 0.34161 0.28452 0.83887 0.0
C814 C 0.29796 0.25702 0.68592 0.0
C815 C 0.31506 0.25567 0.76584 0.0
C816 C 0.28404 0.24275 0.64974 0.0
C817 C 0.27542 0.21224 0.65282 0.0
C818 C 0.30307 0.24058 0.72536 0.0
C819 C 0.28245 0.19611 0.69165 0.0
C820 C 0.32086 0.23912 0.80496 0.0
C821 C 0.33424 0.3006 0.80012 0.0
N822 N 0.29583 0.2105 0.72658 0.0
N823 N 0.32123 0.28599 0.76508 0.0
H824 H 0.7668 0.17181 0.79384 0.0
H825 H 0.84979 0.32311 0.71253 0.0
H826 H 0.78541 0.24753 0.88022 0.0
H827 H 0.83328 0.24552 0.62854 0.0
H828 H 0.82787 0.29532 0.77541 0.0
H829 H 0.79685 0.19602 0.73552 0.0
C830 C 0.77823 0.19309 0.8009 0.0
C831 C 0.77402 0.20771 0.84166 0.0
C832 C 0.82889 0.28441 0.7432 0.0
C833 C 0.80654 0.23647 0.77455 0.0
C834 C 0.84103 0.30038 0.70731 0.0
C835 C 0.84321 0.28649 0.66557 0.0
C836 C 0.81914 0.25432 0.73717 0.0
C837 C 0.83179 0.25702 0.66025 0.0
C838 C 0.79496 0.20715 0.76748 0.0
C839 C 0.78858 0.2355 0.84922 0.0
N840 N 0.82044 0.24179 0.69581 0.0
N841 N 0.80378 0.24936 0.81553 0.0
H842 H 0.83352 0.82163 0.29808 0.0
H843 H 0.77759 0.66483 0.19209 0.0
H844 H 0.84017 0.73585 0.36629 0.0
H845 H 0.77651 0.75009 0.12173 0.0
H846 H 0.80282 0.68972 0.25505 0.0
H847 H 0.8096 0.79605 0.23477 0.0
C848 C 0.82912 0.79745 0.29999 0.0
C849 C 0.83836 0.78072 0.33724 0.0
C850 C 0.79745 0.70296 0.22567 0.0
C851 C 0.81292 0.75106 0.2643 0.0
C852 C 0.78335 0.68871 0.18972 0.0
C853 C 0.7753 0.70553 0.15197 0.0
C854 C 0.80216 0.73448 0.22443 0.0
C855 C 0.78274 0.7364 0.1503 0.0
C856 C 0.81591 0.78279 0.26372 0.0
C857 C 0.83284 0.74945 0.3382 0.0
N858 N 0.79532 0.75007 0.18646 0.0
N859 N 0.8208 0.73548 0.30186 0.0
H860 H 0.48529 0.5474 0.53044 0.0
H861 H 0.62823 0.44963 0.45552 0.0
H862 H 0.5557 0.5193 0.62156 0.0
H863 H 0.56215 0.4863 0.36417 0.0
H864 H 0.60347 0.47634 0.51662 0.0
H865 H 0.51156 0.52155 0.47014 0.0
C866 C 0.50616 0.53537 0.53771 0.0
C867 C 0.51859 0.53557 0.58066 0.0
C868 C 0.59462 0.47897 0.48316 0.0
C869 C 0.54958 0.50748 0.51165 0.0
C870 C 0.60901 0.46415 0.44828 0.0
C871 C 0.5973 0.4662 0.40498 0.0
C872 C 0.5677 0.49491 0.47474 0.0
C873 C 0.57203 0.48461 0.39714 0.0
C874 C 0.5213 0.5209 0.50328 0.0
C875 C 0.54554 0.51967 0.58869 0.0
N876 N 0.55768 0.49788 0.43193 0.0
N877 N 0.56047 0.5066 0.55421 0.0
H878 H 0.05511 0.516 0.86971 0.0
H879 H 0.04744 0.46424 0.12498 0.0
H880 H 0.97711 0.53225 0.95243 0.0
H881 H 0.12792 0.46002 0.04413 0.0
H882 H 0.02049 0.48881 0.06294 0.0
H883 H 0.08056 0.49182 0.93276 0.0
C884 C 0.04311 0.51387 0.90096 0.0
C885 C 0.01417 0.52639 0.90624 0.0
C886 C 0.04415 0.48284 0.05903 0.0
C887 C 0.04319 0.49915 0.97858 0.0
C888 C 0.05957 0.46916 0.09452 0.0
C889 C 0.08976 0.45993 0.08921 0.0
C890 C 0.05922 0.48733 0.01836 0.0
C891 C 0.10453 0.46663 0.04921 0.0
C892 C 0.05777 0.50043 0.93711 0.0
C893 C -0.0004 0.52306 0.94734 0.0
N894 N 0.08908 0.47983 0.01523 0.0
N895 N 0.01428 0.50972 0.98208 0.0
H896 H 0.09252 0.12878 0.23832 0.0
H897 H 0.17913 0.10529 0.47071 0.0
H898 H 0.08066 0.04878 0.31975 0.0
H899 H 0.16588 0.19117 0.40462 0.0
H900 H 0.15444 0.07967 0.40703 0.0
H901 H 0.13129 0.14682 0.29002 0.0
C902 C 0.09835 0.11475 0.26674 0.0
C903 C 0.08288 0.08746 0.27512 0.0
C904 C 0.15752 0.10405 0.40626 0.0
C905 C 0.12726 0.10818 0.33473 0.0
C906 C 0.17175 0.11857 0.44231 0.0
C907 C 0.17428 0.15029 0.44271 0.0
C908 C 0.14636 0.12151 0.3705 0.0
C909 C 0.1641 0.16665 0.40556 0.0
C910 C 0.12048 0.12513 0.29634 0.0
C911 C 0.09172 0.07016 0.31232 0.0
N912 N 0.1505 0.15211 0.37111 0.0
N913 N 0.11309 0.08099 0.34113 0.0
H914 H 0.24981 0.7565 0.59062 0.0
H915 H 0.14289 0.89532 0.65759 0.0
H916 H 0.19013 0.80015 0.49589 0.0
H917 H 0.16894 0.82273 0.74606 0.0
H918 H 0.17255 0.8712 0.59783 0.0
H919 H 0.2332 0.79222 0.64743 0.0
C920 C 0.23365 0.77393 0.58148 0.0
C921 C 0.22096 0.775 0.53862 0.0
C922 C 0.17218 0.86101 0.63065 0.0
C923 C 0.20194 0.81594 0.60354 0.0
C924 C 0.15552 0.87481 0.66464 0.0
C925 C 0.1536 0.86084 0.70649 0.0
C926 C 0.18738 0.8336 0.63929 0.0
C927 C 0.16988 0.83407 0.71408 0.0
C928 C 0.22413 0.79425 0.61398 0.0
C929 C 0.20022 0.79828 0.5287 0.0
N930 N 0.18606 0.8213 0.6808 0.0
N931 N 0.19107 0.81769 0.56111 0.0
H932 H 0.47153 0.80061 0.93282 0.0
H933 H 0.50493 0.94604 0.79408 0.0
H934 H 0.41271 0.87783 0.9508 0.0
H935 H 0.51898 0.85522 0.74468 0.0
H936 H 0.47139 0.92513 0.8519 0.0
H937 H 0.49177 0.82376 0.86641 0.0
C938 C 0.46279 0.82256 0.92284 0.0
C939 C 0.44041 0.83735 0.94765 0.0
C940 C 0.48136 0.91001 0.8277 0.0
C941 C 0.46371 0.86411 0.87066 0.0
C942 C 0.50049 0.92185 0.79475 0.0
C943 C 0.51545 0.90223 0.7653 0.0
C944 C 0.47764 0.87846 0.83115 0.0
C945 C 0.50859 0.87117 0.76733 0.0
C946 C 0.47422 0.83565 0.88447 0.0
C947 C 0.42998 0.86571 0.93259 0.0
N948 N 0.49068 0.86023 0.80019 0.0
N949 N 0.44203 0.87847 0.89511 0.0
H950 H 0.41686 0.12301 0.23413 0.0
H951 H 0.4252 0.19846 0.99247 0.0
H952 H 0.49819 0.13561 0.15669 0.0
H953 H 0.35143 0.21568 0.08308 0.0
H954 H 0.44556 0.16139 0.0446 0.0
H955 H 0.38694 0.14427 0.17185 0.0
C956 C 0.42827 0.12984 0.20386 0.0
C957 C 0.45998 0.12816 0.20062 0.0
C958 C 0.42466 0.17293 0.05282 0.0
C959 C 0.42626 0.15168 0.12978 0.0
C960 C 0.41294 0.19408 0.02301 0.0
C961 C 0.38696 0.21076 0.03395 0.0
C962 C 0.41041 0.16845 0.094 0.0
C963 C 0.37182 0.20369 0.0737 0.0
C964 C 0.41129 0.14193 0.16852 0.0
C965 C 0.47382 0.13711 0.16081 0.0
N966 N 0.38407 0.18337 0.10278 0.0
N967 N 0.4569 0.14856 0.12707 0.0
H968 H 0.96252 0.79459 0.57795 0.0
H969 H 0.0131 0.94686 0.68687 0.0
H970 H 0.9169 0.87716 0.5396 0.0
H971 H 0.01627 0.86099 0.75618 0.0
H972 H 0.97757 0.92439 0.63279 0.0
H973 H 0.98366 0.82031 0.64242 0.0
C974 C 0.95671 0.81816 0.58343 0.0
C975 C 0.93799 0.83382 0.55346 0.0
C976 C 0.98563 0.91078 0.66044 0.0
C977 C 0.96246 0.86362 0.62725 0.0
C978 C 0.0059 0.92352 0.69127 0.0
C979 C 0.01829 0.90552 0.72544 0.0
C980 C 0.97815 0.87986 0.66378 0.0
C981 C 0.00792 0.87554 0.72982 0.0
C982 C 0.96865 0.8328 0.62043 0.0
C983 C 0.93117 0.86433 0.56219 0.0
N984 N 0.98894 0.86353 0.69888 0.0
N985 N 0.94387 0.87852 0.59809 0.0
H986 H 0.93555 0.24244 0.46149 0.0
H987 H 0.93912 0.09664 0.30962 0.0
H988 H 0.86208 0.17763 0.47268 0.0
H989 H 0.97459 0.18473 0.27337 0.0
H990 H 0.91334 0.1203 0.37371 0.0
H991 H 0.95513 0.21469 0.39902 0.0
C992 C 0.92332 0.22237 0.45068 0.0
C993 C 0.89669 0.21273 0.47191 0.0
C994 C 0.92653 0.13426 0.3512 0.0
C995 C 0.91929 0.18064 0.39947 0.0
C996 C 0.94118 0.12088 0.31481 0.0
C997 C 0.9595 0.1387 0.2868 0.0
C998 C 0.93065 0.16539 0.35921 0.0
C999 C 0.96131 0.16996 0.29463 0.0
C1000 C 0.93458 0.20652 0.41478 0.0
C1001 C 0.8825 0.18598 0.45686 0.0
N1002 N 0.94736 0.18217 0.33022 0.0
N1003 N 0.89394 0.17077 0.42114 0.0
H1004 H 0.61475 0.13622 -9e-05 0.0
H1005 H 0.62997 0.09555 0.25593 0.0
H1006 H 0.70136 0.13702 0.06743 0.0
H1007 H 0.54988 0.07847 0.17624 0.0
H1008 H 0.65835 0.10632 0.18751 0.0
H1009 H 0.59229 0.11069 0.06355 0.0
C1010 C 0.62916 0.13052 0.02803 0.0
C1011 C 0.65988 0.13881 0.02859 0.0
C1012 C 0.63469 0.09976 0.18511 0.0
C1013 C 0.63415 0.11008 0.10237 0.0
C1014 C 0.61847 0.09362 0.22412 0.0
C1015 C 0.58739 0.08644 0.22193 0.0
C1016 C 0.61956 0.09902 0.14383 0.0
C1017 C 0.57372 0.08407 0.17977 0.0
C1018 C 0.61633 0.11593 0.06446 0.0
C1019 C 0.67756 0.13085 0.06577 0.0
N1020 N 0.58977 0.09074 0.14261 0.0
N1021 N 0.6643 0.11736 0.10167 0.0
H1022 H 0.64431 0.80991 0.76223 0.0
H1023 H 0.712 0.82067 0.00389 0.0
H1024 H 0.66102 0.89688 0.82337 0.0
H1025 H 0.72148 0.74218 0.91932 0.0
H1026 H 0.69682 0.85058 0.93848 0.0
H1027 H 0.67519 0.78579 0.81917 0.0
C1028 C 0.6548 0.82397 0.7876 0.0
C1029 C 0.64993 0.85534 0.78853 0.0
C1030 C 0.70279 0.82694 0.93429 0.0
C1031 C 0.68509 0.8278 0.85446 0.0
C1032 C 0.71143 0.80987 0.97156 0.0
C1033 C 0.71733 0.77873 0.96724 0.0
C1034 C 0.69986 0.81259 0.89278 0.0
C1035 C 0.71653 0.76596 0.9245 0.0
C1036 C 0.67258 0.81021 0.82003 0.0
C1037 C 0.66427 0.87257 0.82176 0.0
N1038 N 0.70747 0.78281 0.88915 0.0
N1039 N 0.68083 0.85846 0.85412 0.0
H1040 H 0.58045 0.63556 0.7553 0.0
H1041 H 0.70309 0.6163 0.94455 0.0
H1042 H 0.60258 0.54351 0.79291 0.0
H1043 H 0.62525 0.67544 0.95244 0.0
H1044 H 0.67928 0.59132 0.8792 0.0
H1045 H 0.61271 0.65404 0.81522 0.0
C1046 C 0.59248 0.61915 0.77563 0.0
C1047 C 0.58821 0.58786 0.76965 0.0
C1048 C 0.66761 0.60965 0.89581 0.0
C1049 C 0.62541 0.60915 0.83829 0.0
C1050 C 0.68103 0.62381 0.93297 0.0
C1051 C 0.66634 0.64828 0.95366 0.0
C1052 C 0.63984 0.62064 0.8793 0.0
C1053 C 0.63777 0.65708 0.93734 0.0
C1054 C 0.61085 0.62979 0.80989 0.0
C1055 C 0.60489 0.56782 0.79685 0.0
N1056 N 0.62574 0.64359 0.90094 0.0
N1057 N 0.62262 0.57881 0.83057 0.0
H1058 H 0.66851 0.40006 0.17033 0.0
H1059 H 0.66111 0.25086 0.02515 0.0
H1060 H 0.62747 0.3154 0.21119 0.0
H1061 H 0.74017 0.30865 0.0131 0.0
H1062 H 0.64334 0.28191 0.08566 0.0
H1063 H 0.69212 0.37321 0.107 0.0
C1064 C 0.66474 0.37593 0.16628 0.0
C1065 C 0.64548 0.36004 0.19539 0.0
C1066 C 0.6646 0.28791 0.06988 0.0
C1067 C 0.67182 0.32975 0.12383 0.0
C1068 C 0.67478 0.27021 0.03506 0.0
C1069 C 0.70248 0.27683 0.01434 0.0
C1070 C 0.68196 0.31274 0.08434 0.0
C1071 C 0.71881 0.30261 0.0285 0.0
C1072 C 0.67814 0.36072 0.13031 0.0
C1073 C 0.64147 0.32879 0.189 0.0
N1074 N 0.70833 0.31973 0.06296 0.0
N1075 N 0.65423 0.31484 0.15382 0.0
H1076 H 0.98492 0.42965 0.26417 0.0
H1077 H 0.99179 0.33069 0.48464 0.0
H1078 H 0.04764 0.35626 0.28888 0.0
H1079 H 0.90428 0.36025 0.43651 0.0
H1080 H 0.01548 0.35304 0.41946 0.0
H1081 H 0.95648 0.41428 0.33129 0.0
C1082 C 0.99256 0.41026 0.28333 0.0
C1083 C 0.01891 0.39442 0.27105 0.0
C1084 C 0.9911 0.35488 0.4232 0.0
C1085 C 0.98718 0.37751 0.34772 0.0
C1086 C 0.97757 0.3423 0.46054 0.0
C1087 C 0.946 0.34324 0.46559 0.0
C1088 C 0.97303 0.3685 0.3903 0.0
C1089 C 0.92873 0.35901 0.43364 0.0
C1090 C 0.97639 0.40162 0.32152 0.0
C1091 C 0.02769 0.36939 0.29697 0.0
N1092 N 0.94247 0.37081 0.39677 0.0
N1093 N 0.01213 0.36203 0.33419 0.0
H1094 H 0.93175 0.61472 0.71222 0.0
H1095 H 0.9461 0.7153 0.4909 0.0
H1096 H 0.01599 0.64087 0.64996 0.0
H1097 H 0.86342 0.71022 0.56721 0.0
H1098 H 0.96925 0.67858 0.54099 0.0
H1099 H 0.90388 0.64063 0.65185 0.0
C1100 C 0.94432 0.62548 0.68558 0.0
C1101 C 0.97618 0.62599 0.68629 0.0
C1102 C 0.94591 0.68518 0.54657 0.0
C1103 C 0.94471 0.65531 0.61755 0.0
C1104 C 0.93259 0.70609 0.51776 0.0
C1105 C 0.90284 0.71613 0.52508 0.0
C1106 C 0.92944 0.67407 0.58309 0.0
C1107 C 0.88653 0.70332 0.56061 0.0
C1108 C 0.92846 0.64034 0.65134 0.0
C1109 C 0.99142 0.64027 0.65107 0.0
N1110 N 0.90013 0.68312 0.58859 0.0
N1111 N 0.97558 0.65441 0.61835 0.0
H1112 H 0.51625 0.37273 0.25893 0.0
H1113 H 0.42895 0.37468 0.02463 0.0
H1114 H 0.53081 0.44285 0.16064 0.0
H1115 H 0.44499 0.29488 0.10456 0.0
H1116 H 0.45442 0.40557 0.08224 0.0
H1117 H 0.47744 0.35036 0.21102 0.0
C1118 C 0.51096 0.38377 0.22761 0.0
C1119 C 0.52728 0.40941 0.21343 0.0
C1120 C 0.45187 0.38136 0.08729 0.0
C1121 C 0.48283 0.3837 0.15826 0.0
C1122 C 0.43724 0.36381 0.05466 0.0
C1123 C 0.43516 0.33221 0.05983 0.0
C1124 C 0.46382 0.36713 0.12544 0.0
C1125 C 0.44642 0.31914 0.09911 0.0
C1126 C 0.48883 0.37089 0.20019 0.0
C1127 C 0.51911 0.42283 0.17262 0.0
N1128 N 0.46031 0.33661 0.13027 0.0
N1129 N 0.49768 0.40959 0.14613 0.0
H1130 H 0.42179 0.75041 0.93989 0.0
H1131 H 0.44184 0.5927 0.8179 0.0
H1132 H 0.36762 0.67331 0.98064 0.0
H1133 H 0.46745 0.68018 0.76499 0.0
H1134 H 0.41391 0.61877 0.87795 0.0
H1135 H 0.43989 0.72201 0.87744 0.0
C1136 C 0.41346 0.72743 0.93564 0.0
C1137 C 0.39304 0.71428 0.96577 0.0
C1138 C 0.42534 0.63205 0.85268 0.0
C1139 C 0.41392 0.68121 0.89297 0.0
C1140 C 0.44115 0.61726 0.81853 0.0
C1141 C 0.45746 0.63439 0.7872 0.0
C1142 C 0.42611 0.66393 0.85489 0.0
C1143 C 0.45582 0.66607 0.78909 0.0
C1144 C 0.4238 0.71116 0.89954 0.0
C1145 C 0.38336 0.68428 0.95816 0.0
N1146 N 0.44074 0.6797 0.82248 0.0
N1147 N 0.39406 0.66855 0.92243 0.0
H1148 H 0.17816 0.61965 0.51214 0.0
H1149 H 0.10024 0.61637 0.75164 0.0
H1150 H 0.15327 0.69895 0.58747 0.0
H1151 H 0.0835 0.54592 0.65476 0.0
H1152 H 0.1345 0.64113 0.69949 0.0
H1153 H 0.15679 0.58747 0.57165 0.0
C1154 C 0.16857 0.63023 0.54136 0.0
C1155 C 0.16712 0.66195 0.54478 0.0
C1156 C 0.12371 0.61997 0.68994 0.0
C1157 C 0.14344 0.62559 0.61266 0.0
C1158 C 0.10423 0.60568 0.71977 0.0
C1159 C 0.08845 0.57928 0.70724 0.0
C1160 C 0.12774 0.60771 0.64737 0.0
C1161 C 0.09484 0.56648 0.66553 0.0
C1162 C 0.15638 0.61192 0.57508 0.0
C1163 C 0.15449 0.67458 0.58323 0.0
N1164 N 0.11378 0.58103 0.63676 0.0
N1165 N 0.14317 0.65639 0.61562 0.0
H1166 H 0.13652 0.30709 0.27311 0.0
H1167 H 0.24794 0.31091 0.47886 0.0
H1168 H 0.16942 0.39478 0.31601 0.0
H1169 H 0.16933 0.25246 0.46722 0.0
H1170 H 0.22877 0.34073 0.41487 0.0
H1171 H 0.16045 0.28395 0.33727 0.0
C1172 C 0.14898 0.32156 0.29596 0.0
C1173 C 0.15046 0.35305 0.28962 0.0
C1174 C 0.21582 0.3215 0.42693 0.0
C1175 C 0.17801 0.32639 0.36367 0.0
C1176 C 0.22665 0.30453 0.46328 0.0
C1177 C 0.21053 0.27879 0.47791 0.0
C1178 C 0.18911 0.31217 0.40516 0.0
C1179 C 0.18295 0.27166 0.45675 0.0
C1180 C 0.16257 0.30827 0.33271 0.0
C1181 C 0.16757 0.37043 0.31997 0.0
N1182 N 0.17341 0.28797 0.42126 0.0
N1183 N 0.18062 0.35685 0.35621 0.0
loop_
_geom_bond_atom_site_label_1
_geom_bond_atom_site_label_2
_geom_bond_distance
_geom_bond_site_symmetry_2
_ccdc_geom_bond_type
Zn0 O6 1.969 1_455 S
Zn0 O7 1.965 . S
Zn0 O11 2.024 . S
Zn0 O16 1.969 . S
Zn1 O8 1.969 . S
Zn1 O14 1.969 . S
Zn1 O15 1.965 . S
Zn1 O17 2.024 1_455 S
C2 O3 1.229 . S
C2 O11 1.058 . S
O3 C2 1.229 . S
C4 O5 1.229 1_655 S
C4 O17 1.058 1_556 S
O5 C4 1.229 1_455 S
O6 Zn0 1.969 1_655 S
O6 C9 1.267 . S
O7 Zn0 1.965 . S
O7 C18 1.260 . S
O8 Zn1 1.969 . S
O8 C18 1.258 . S
C9 O6 1.267 . S
C9 O10 1.228 . S
O10 C9 1.228 . S
O11 Zn0 2.024 . S
O11 C2 1.058 . S
C12 O13 1.228 . S
C12 O14 1.267 1_556 S
O13 C12 1.228 . S
O14 Zn1 1.969 . S
O14 C12 1.267 1_554 S
O15 Zn1 1.965 . S
O15 C19 1.260 . S
O16 Zn0 1.969 . S
O16 C19 1.258 . S
O17 Zn1 2.024 1_655 S
O17 C4 1.058 1_554 S
C18 O7 1.260 . S
C18 O8 1.258 . S
C19 O15 1.260 . S
C19 O16 1.258 . S
Zn20 O26 1.969 . S
Zn20 O27 1.965 . S
Zn20 O31 2.024 . S
Zn20 O36 1.969 . S
Zn21 O28 1.969 . S
Zn21 O34 1.969 . S
Zn21 O35 1.965 . S
Zn21 O37 2.024 . S
C22 O23 1.229 . S
C22 O31 1.058 . S
O23 C22 1.229 . S
C24 O25 1.229 . S
C24 O37 1.058 . S
O25 C24 1.229 . S
O26 Zn20 1.969 . S
O26 C29 1.267 . S
O27 Zn20 1.965 . S
O27 C38 1.260 . S
O28 Zn21 1.969 . S
O28 C38 1.258 . S
C29 O26 1.267 . S
C29 O30 1.228 . S
O30 C29 1.228 . S
O31 Zn20 2.024 . S
O31 C22 1.058 . S
C32 O33 1.228 . S
C32 O34 1.267 . S
O33 C32 1.228 . S
O34 Zn21 1.969 . S
O34 C32 1.267 . S
O35 Zn21 1.965 . S
O35 C39 1.260 . S
O36 Zn20 1.969 . S
O36 C39 1.258 . S
O37 Zn21 2.024 . S
O37 C24 1.058 . S
C38 O27 1.260 . S
C38 O28 1.258 . S
C39 O35 1.260 . S
C39 O36 1.258 . S
Zn40 O46 1.969 . S
Zn40 O47 1.965 . S
Zn40 O51 2.024 . S
Zn40 O56 1.969 . S
Zn41 O48 1.969 . S
Zn41 O54 1.969 . S
Zn41 O55 1.965 . S
Zn41 O57 2.024 . S
C42 O43 1.229 . S
C42 O51 1.058 . S
O43 C42 1.229 . S
C44 O45 1.229 . S
C44 O57 1.058 . S
O45 C44 1.229 . S
O46 Zn40 1.969 . S
O46 C49 1.267 . S
O47 Zn40 1.965 . S
O47 C58 1.260 . S
O48 Zn41 1.969 . S
O48 C58 1.258 . S
C49 O46 1.267 . S
C49 O50 1.228 . S
O50 C49 1.228 . S
O51 Zn40 2.024 . S
O51 C42 1.058 . S
C52 O53 1.228 . S
C52 O54 1.267 . S
O53 C52 1.228 . S
O54 Zn41 1.969 . S
O54 C52 1.267 . S
O55 Zn41 1.965 . S
O55 C59 1.260 . S
O56 Zn40 1.969 . S
O56 C59 1.258 . S
O57 Zn41 2.024 . S
O57 C44 1.058 . S
C58 O47 1.260 . S
C58 O48 1.258 . S
C59 O55 1.260 . S
C59 O56 1.258 . S
Zn60 O66 1.969 . S
Zn60 O67 1.965 . S
Zn60 O71 2.024 . S
Zn60 O76 1.969 . S
Zn61 O68 1.969 . S
Zn61 O74 1.969 . S
Zn61 O75 1.965 . S
Zn61 O77 2.024 . S
C62 O63 1.229 1_556 S
C62 O71 1.058 . S
O63 C62 1.229 1_554 S
C64 O65 1.229 . S
C64 O77 1.058 . S
O65 C64 1.229 . S
O66 Zn60 1.969 . S
O66 C69 1.267 . S
O67 Zn60 1.965 . S
O67 C78 1.260 . S
O68 Zn61 1.969 . S
O68 C78 1.258 . S
C69 O66 1.267 . S
C69 O70 1.228 1_556 S
O70 C69 1.228 1_554 S
O71 Zn60 2.024 . S
O71 C62 1.058 . S
C72 O73 1.228 . S
C72 O74 1.267 . S
O73 C72 1.228 . S
O74 Zn61 1.969 . S
O74 C72 1.267 . S
O75 Zn61 1.965 . S
O75 C79 1.260 . S
O76 Zn60 1.969 . S
O76 C79 1.258 . S
O77 Zn61 2.024 . S
O77 C64 1.058 . S
C78 O67 1.260 . S
C78 O68 1.258 . S
C79 O75 1.260 . S
C79 O76 1.258 . S
Zn80 O86 1.969 . S
Zn80 O87 1.965 . S
Zn80 O91 2.024 . S
Zn80 O96 1.969 . S
Zn81 O88 1.969 . S
Zn81 O94 1.969 . S
Zn81 O95 1.965 . S
Zn81 O97 2.024 . S
C82 O83 1.229 . S
C82 O91 1.058 1_554 S
O83 C82 1.229 . S
C84 O85 1.229 . S
C84 O97 1.058 . S
O85 C84 1.229 . S
O86 Zn80 1.969 . S
O86 C89 1.267 1_556 S
O87 Zn80 1.965 . S
O87 C98 1.260 . S
O88 Zn81 1.969 . S
O88 C98 1.258 . S
C89 O86 1.267 1_554 S
C89 O90 1.228 . S
O90 C89 1.228 . S
O91 Zn80 2.024 . S
O91 C82 1.058 1_556 S
C92 O93 1.228 . S
C92 O94 1.267 . S
O93 C92 1.228 . S
O94 Zn81 1.969 . S
O94 C92 1.267 . S
O95 Zn81 1.965 . S
O95 C99 1.260 . S
O96 Zn80 1.969 . S
O96 C99 1.258 . S
O97 Zn81 2.024 . S
O97 C84 1.058 . S
C98 O87 1.260 . S
C98 O88 1.258 . S
C99 O95 1.260 . S
C99 O96 1.258 . S
Zn100 O106 1.969 . S
Zn100 O107 1.965 . S
Zn100 O111 2.024 . S
Zn100 O116 1.969 . S
Zn101 O108 1.969 . S
Zn101 O114 1.969 . S
Zn101 O115 1.965 . S
Zn101 O117 2.024 . S
C102 O103 1.229 . S
C102 O111 1.058 . S
O103 C102 1.229 . S
C104 O105 1.229 1_554 S
C104 O117 1.058 . S
O105 C104 1.229 1_556 S
O106 Zn100 1.969 . S
O106 C109 1.267 . S
O107 Zn100 1.965 . S
O107 C118 1.260 . S
O108 Zn101 1.969 . S
O108 C118 1.258 . S
C109 O106 1.267 . S
C109 O110 1.228 . S
O110 C109 1.228 . S
O111 Zn100 2.024 . S
O111 C102 1.058 . S
C112 O113 1.228 1_554 S
C112 O114 1.267 . S
O113 C112 1.228 1_556 S
O114 Zn101 1.969 . S
O114 C112 1.267 . S
O115 Zn101 1.965 . S
O115 C119 1.260 . S
O116 Zn100 1.969 . S
O116 C119 1.258 . S
O117 Zn101 2.024 . S
O117 C104 1.058 . S
C118 O107 1.260 . S
C118 O108 1.258 . S
C119 O115 1.260 . S
C119 O116 1.258 . S
Zn120 O126 1.969 . S
Zn120 O127 1.965 . S
Zn120 O131 2.024 . S
Zn120 O136 1.969 . S
Zn121 O128 1.969 . S
Zn121 O134 1.969 . S
Zn121 O135 1.965 . S
Zn121 O137 2.024 . S
C122 O123 1.229 . S
C122 O131 1.058 . S
O123 C122 1.229 . S
C124 O125 1.229 . S
C124 O137 1.058 . S
O125 C124 1.229 . S
O126 Zn120 1.969 . S
O126 C129 1.267 . S
O127 Zn120 1.965 . S
O127 C138 1.260 . S
O128 Zn121 1.969 . S
O128 C138 1.258 . S
C129 O126 1.267 . S
C129 O130 1.228 . S
O130 C129 1.228 . S
O131 Zn120 2.024 . S
O131 C122 1.058 . S
C132 O133 1.228 . S
C132 O134 1.267 . S
O133 C132 1.228 . S
O134 Zn121 1.969 . S
O134 C132 1.267 . S
O135 Zn121 1.965 . S
O135 C139 1.260 . S
O136 Zn120 1.969 . S
O136 C139 1.258 . S
O137 Zn121 2.024 . S
O137 C124 1.058 . S
C138 O127 1.260 . S
C138 O128 1.258 . S
C139 O135 1.260 . S
C139 O136 1.258 . S
Zn140 O146 1.969 . S
Zn140 O147 1.965 . S
Zn140 O151 2.024 . S
Zn140 O156 1.969 . S
Zn141 O148 1.969 . S
Zn141 O154 1.969 . S
Zn141 O155 1.965 . S
Zn141 O157 2.024 . S
C142 O143 1.229 . S
C142 O151 1.058 . S
O143 C142 1.229 . S
C144 O145 1.229 . S
C144 O157 1.058 . S
O145 C144 1.229 . S
O146 Zn140 1.969 . S
O146 C149 1.267 . S
O147 Zn140 1.965 . S
O147 C158 1.260 . S
O148 Zn141 1.969 . S
O148 C158 1.258 . S
C149 O146 1.267 . S
C149 O150 1.228 . S
O150 C149 1.228 . S
O151 Zn140 2.024 . S
O151 C142 1.058 . S
C152 O153 1.228 . S
C152 O154 1.267 . S
O153 C152 1.228 . S
O154 Zn141 1.969 . S
O154 C152 1.267 . S
O155 Zn141 1.965 . S
O155 C159 1.260 . S
O156 Zn140 1.969 . S
O156 C159 1.258 . S
O157 Zn141 2.024 . S
O157 C144 1.058 . S
C158 O147 1.260 . S
C158 O148 1.258 . S
C159 O155 1.260 . S
C159 O156 1.258 . S
Zn160 O166 1.969 . S
Zn160 O167 1.965 . S
Zn160 O171 2.024 . S
Zn160 O176 1.969 . S
Zn161 O168 1.969 . S
Zn161 O174 1.969 . S
Zn161 O175 1.965 . S
Zn161 O177 2.024 . S
C162 O163 1.229 . S
C162 O171 1.058 . S
O163 C162 1.229 . S
C164 O165 1.229 . S
C164 O177 1.058 . S
O165 C164 1.229 . S
O166 Zn160 1.969 . S
O166 C169 1.267 . S
O167 Zn160 1.965 . S
O167 C178 1.260 . S
O168 Zn161 1.969 . S
O168 C178 1.258 . S
C169 O166 1.267 . S
C169 O170 1.228 . S
O170 C169 1.228 . S
O171 Zn160 2.024 . S
O171 C162 1.058 . S
C172 O173 1.228 . S
C172 O174 1.267 . S
O173 C172 1.228 . S
O174 Zn161 1.969 . S
O174 C172 1.267 . S
O175 Zn161 1.965 . S
O175 C179 1.260 . S
O176 Zn160 1.969 . S
O176 C179 1.258 . S
O177 Zn161 2.024 . S
O177 C164 1.058 . S
C178 O167 1.260 . S
C178 O168 1.258 . S
C179 O175 1.260 . S
C179 O176 1.258 . S
Zn180 O186 1.969 . S
Zn180 O187 1.965 . S
Zn180 O191 2.024 . S
Zn180 O196 1.969 . S
Zn181 O188 1.969 . S
Zn181 O194 1.969 . S
Zn181 O195 1.965 . S
Zn181 O197 2.024 . S
C182 O183 1.229 . S
C182 O191 1.058 . S
O183 C182 1.229 . S
C184 O185 1.229 1_554 S
C184 O197 1.058 . S
O185 C184 1.229 1_556 S
O186 Zn180 1.969 . S
O186 C189 1.267 . S
O187 Zn180 1.965 . S
O187 C198 1.260 . S
O188 Zn181 1.969 . S
O188 C198 1.258 . S
C189 O186 1.267 . S
C189 O190 1.228 . S
O190 C189 1.228 . S
O191 Zn180 2.024 . S
O191 C182 1.058 . S
C192 O193 1.228 1_554 S
C192 O194 1.267 . S
O193 C192 1.228 1_556 S
O194 Zn181 1.969 . S
O194 C192 1.267 . S
O195 Zn181 1.965 . S
O195 C199 1.260 . S
O196 Zn180 1.969 . S
O196 C199 1.258 . S
O197 Zn181 2.024 . S
O197 C184 1.058 . S
C198 O187 1.260 . S
C198 O188 1.258 . S
C199 O195 1.260 . S
C199 O196 1.258 . S
Zn200 O206 1.969 . S
Zn200 O207 1.965 . S
Zn200 O211 2.024 . S
Zn200 O216 1.969 . S
Zn201 O208 1.969 . S
Zn201 O214 1.969 . S
Zn201 O215 1.965 . S
Zn201 O217 2.024 . S
C202 O203 1.229 1_556 S
C202 O211 1.058 . S
O203 C202 1.229 1_554 S
C204 O205 1.229 . S
C204 O217 1.058 . S
O205 C204 1.229 . S
O206 Zn200 1.969 . S
O206 C209 1.267 . S
O207 Zn200 1.965 . S
O207 C218 1.260 . S
O208 Zn201 1.969 . S
O208 C218 1.258 . S
C209 O206 1.267 . S
C209 O210 1.228 1_556 S
O210 C209 1.228 1_554 S
O211 Zn200 2.024 . S
O211 C202 1.058 . S
C212 O213 1.228 . S
C212 O214 1.267 . S
O213 C212 1.228 . S
O214 Zn201 1.969 . S
O214 C212 1.267 . S
O215 Zn201 1.965 . S
O215 C219 1.260 . S
O216 Zn200 1.969 . S
O216 C219 1.258 . S
O217 Zn201 2.024 . S
O217 C204 1.058 . S
C218 O207 1.260 . S
C218 O208 1.258 . S
C219 O215 1.260 . S
C219 O216 1.258 . S
Zn220 O226 1.969 . S
Zn220 O227 1.965 . S
Zn220 O231 2.024 . S
Zn220 O236 1.969 . S
Zn221 O228 1.969 . S
Zn221 O234 1.969 . S
Zn221 O235 1.965 . S
Zn221 O237 2.024 . S
C222 O223 1.229 . S
C222 O231 1.058 . S
O223 C222 1.229 . S
C224 O225 1.229 . S
C224 O237 1.058 . S
O225 C224 1.229 . S
O226 Zn220 1.969 . S
O226 C229 1.267 . S
O227 Zn220 1.965 . S
O227 C238 1.260 . S
O228 Zn221 1.969 . S
O228 C238 1.258 . S
C229 O226 1.267 . S
C229 O230 1.228 . S
O230 C229 1.228 . S
O231 Zn220 2.024 . S
O231 C222 1.058 . S
C232 O233 1.228 . S
C232 O234 1.267 . S
O233 C232 1.228 . S
O234 Zn221 1.969 . S
O234 C232 1.267 . S
O235 Zn221 1.965 . S
O235 C239 1.260 . S
O236 Zn220 1.969 . S
O236 C239 1.258 . S
O237 Zn221 2.024 . S
O237 C224 1.058 . S
C238 O227 1.260 . S
C238 O228 1.258 . S
C239 O235 1.260 . S
C239 O236 1.258 . S
Zn240 O246 1.969 . S
Zn240 O247 1.965 . S
Zn240 O251 2.024 . S
Zn240 O256 1.969 . S
Zn241 O248 1.969 . S
Zn241 O254 1.969 . S
Zn241 O255 1.965 . S
Zn241 O257 2.024 . S
C242 O243 1.229 . S
C242 O251 1.058 . S
O243 C242 1.229 . S
C244 O245 1.229 . S
C244 O257 1.058 . S
O245 C244 1.229 . S
O246 Zn240 1.969 . S
O246 C249 1.267 . S
O247 Zn240 1.965 . S
O247 C258 1.260 . S
O248 Zn241 1.969 . S
O248 C258 1.258 . S
C249 O246 1.267 . S
C249 O250 1.228 . S
O250 C249 1.228 . S
O251 Zn240 2.024 . S
O251 C242 1.058 . S
C252 O253 1.228 . S
C252 O254 1.267 . S
O253 C252 1.228 . S
O254 Zn241 1.969 . S
O254 C252 1.267 . S
O255 Zn241 1.965 . S
O255 C259 1.260 . S
O256 Zn240 1.969 . S
O256 C259 1.258 . S
O257 Zn241 2.024 . S
O257 C244 1.058 . S
C258 O247 1.260 . S
C258 O248 1.258 . S
C259 O255 1.260 . S
C259 O256 1.258 . S
Zn260 O266 1.969 . S
Zn260 O267 1.965 . S
Zn260 O271 2.024 . S
Zn260 O276 1.969 . S
Zn261 O268 1.969 . S
Zn261 O274 1.969 . S
Zn261 O275 1.965 . S
Zn261 O277 2.024 . S
C262 O263 1.229 . S
C262 O271 1.058 . S
O263 C262 1.229 . S
C264 O265 1.229 . S
C264 O277 1.058 1_556 S
O265 C264 1.229 . S
O266 Zn260 1.969 . S
O266 C269 1.267 . S
O267 Zn260 1.965 . S
O267 C278 1.260 . S
O268 Zn261 1.969 . S
O268 C278 1.258 . S
C269 O266 1.267 . S
C269 O270 1.228 . S
O270 C269 1.228 . S
O271 Zn260 2.024 . S
O271 C262 1.058 . S
C272 O273 1.228 . S
C272 O274 1.267 1_556 S
O273 C272 1.228 . S
O274 Zn261 1.969 . S
O274 C272 1.267 1_554 S
O275 Zn261 1.965 . S
O275 C279 1.260 . S
O276 Zn260 1.969 . S
O276 C279 1.258 . S
O277 Zn261 2.024 . S
O277 C264 1.058 1_554 S
C278 O267 1.260 . S
C278 O268 1.258 . S
C279 O275 1.260 . S
C279 O276 1.258 . S
Zn280 O286 1.969 . S
Zn280 O287 1.965 . S
Zn280 O291 2.024 . S
Zn280 O296 1.969 . S
Zn281 O288 1.969 . S
Zn281 O294 1.969 . S
Zn281 O295 1.965 . S
Zn281 O297 2.024 . S
C282 O283 1.229 . S
C282 O291 1.058 . S
O283 C282 1.229 . S
C284 O285 1.229 . S
C284 O297 1.058 . S
O285 C284 1.229 . S
O286 Zn280 1.969 . S
O286 C289 1.267 . S
O287 Zn280 1.965 . S
O287 C298 1.260 . S
O288 Zn281 1.969 . S
O288 C298 1.258 . S
C289 O286 1.267 . S
C289 O290 1.228 . S
O290 C289 1.228 . S
O291 Zn280 2.024 . S
O291 C282 1.058 . S
C292 O293 1.228 . S
C292 O294 1.267 . S
O293 C292 1.228 . S
O294 Zn281 1.969 . S
O294 C292 1.267 . S
O295 Zn281 1.965 . S
O295 C299 1.260 . S
O296 Zn280 1.969 . S
O296 C299 1.258 . S
O297 Zn281 2.024 . S
O297 C284 1.058 . S
C298 O287 1.260 . S
C298 O288 1.258 . S
C299 O295 1.260 . S
C299 O296 1.258 . S
Zn300 O306 1.969 . S
Zn300 O307 1.965 . S
Zn300 O311 2.024 1_455 S
Zn300 O316 1.969 . S
Zn301 O308 1.969 . S
Zn301 O314 1.969 1_455 S
Zn301 O315 1.965 . S
Zn301 O317 2.024 . S
C302 O303 1.229 1_655 S
C302 O311 1.058 1_554 S
O303 C302 1.229 1_455 S
C304 O305 1.229 . S
C304 O317 1.058 . S
O305 C304 1.229 . S
O306 Zn300 1.969 . S
O306 C309 1.267 1_556 S
O307 Zn300 1.965 . S
O307 C318 1.260 . S
O308 Zn301 1.969 . S
O308 C318 1.258 . S
C309 O306 1.267 1_554 S
C309 O310 1.228 . S
O310 C309 1.228 . S
O311 Zn300 2.024 1_655 S
O311 C302 1.058 1_556 S
C312 O313 1.228 . S
C312 O314 1.267 . S
O313 C312 1.228 . S
O314 Zn301 1.969 1_655 S
O314 C312 1.267 . S
O315 Zn301 1.965 . S
O315 C319 1.260 . S
O316 Zn300 1.969 . S
O316 C319 1.258 . S
O317 Zn301 2.024 . S
O317 C304 1.058 . S
C318 O307 1.260 . S
C318 O308 1.258 . S
C319 O315 1.260 . S
C319 O316 1.258 . S
H320 C326 0.930 . S
H321 C330 0.930 . S
H322 C335 0.929 . S
H323 C333 0.929 . S
H324 C328 0.929 . S
H325 C334 0.929 . S
C326 H320 0.930 . S
C326 C327 1.367 . S
C326 C334 1.378 . S
C327 C326 1.367 . S
C327 C335 1.433 . S
C328 H324 0.929 . S
C328 C330 1.378 . S
C328 C332 1.350 . S
C329 C332 1.463 . S
C329 C334 1.350 . S
C329 N337 1.427 . S
C330 H321 0.930 . S
C330 C328 1.378 . S
C330 C331 1.367 . S
C331 C330 1.367 . S
C331 C333 1.433 . S
C332 C328 1.350 . S
C332 C329 1.463 . S
C332 N336 1.427 . S
C333 H323 0.929 . S
C333 C331 1.433 . S
C333 N336 1.384 . S
C334 H325 0.929 . S
C334 C326 1.378 . S
C334 C329 1.350 . S
C335 H322 0.929 . S
C335 C327 1.433 . S
C335 N337 1.384 . S
N336 C332 1.427 . S
N336 C333 1.384 . S
N337 C329 1.427 . S
N337 C335 1.384 . S
H338 C344 0.930 . S
H339 C348 0.930 1_556 S
H340 C353 0.929 . S
H341 C351 0.929 . S
H342 C346 0.929 . S
H343 C352 0.929 . S
C344 H338 0.930 . S
C344 C345 1.367 . S
C344 C352 1.378 . S
C345 C344 1.367 . S
C345 C353 1.433 . S
C346 H342 0.929 . S
C346 C348 1.378 . S
C346 C350 1.350 . S
C347 C350 1.463 . S
C347 C352 1.350 . S
C347 N355 1.427 . S
C348 H339 0.930 1_554 S
C348 C346 1.378 . S
C348 C349 1.367 . S
C349 C348 1.367 . S
C349 C351 1.433 . S
C350 C346 1.350 . S
C350 C347 1.463 . S
C350 N354 1.427 . S
C351 H341 0.929 . S
C351 C349 1.433 . S
C351 N354 1.384 . S
C352 H343 0.929 . S
C352 C344 1.378 . S
C352 C347 1.350 . S
C353 H340 0.929 . S
C353 C345 1.433 . S
C353 N355 1.384 . S
N354 C350 1.427 . S
N354 C351 1.384 . S
N355 C347 1.427 . S
N355 C353 1.384 . S
H356 C362 0.930 . S
H357 C366 0.930 . S
H358 C371 0.929 . S
H359 C369 0.929 . S
H360 C364 0.929 . S
H361 C370 0.929 . S
C362 H356 0.930 . S
C362 C363 1.367 . S
C362 C370 1.378 . S
C363 C362 1.367 . S
C363 C371 1.433 . S
C364 H360 0.929 . S
C364 C366 1.378 . S
C364 C368 1.350 . S
C365 C368 1.463 . S
C365 C370 1.350 . S
C365 N373 1.427 . S
C366 H357 0.930 . S
C366 C364 1.378 . S
C366 C367 1.367 . S
C367 C366 1.367 . S
C367 C369 1.433 . S
C368 C364 1.350 . S
C368 C365 1.463 . S
C368 N372 1.427 . S
C369 H359 0.929 . S
C369 C367 1.433 . S
C369 N372 1.384 . S
C370 H361 0.929 . S
C370 C362 1.378 . S
C370 C365 1.350 . S
C371 H358 0.929 . S
C371 C363 1.433 . S
C371 N373 1.384 . S
N372 C368 1.427 . S
N372 C369 1.384 . S
N373 C365 1.427 . S
N373 C371 1.384 . S
H374 C380 0.930 . S
H375 C384 0.930 . S
H376 C389 0.929 . S
H377 C387 0.929 . S
H378 C382 0.929 . S
H379 C388 0.929 . S
C380 H374 0.930 . S
C380 C381 1.367 . S
C380 C388 1.378 . S
C381 C380 1.367 . S
C381 C389 1.433 . S
C382 H378 0.929 . S
C382 C384 1.378 . S
C382 C386 1.350 . S
C383 C386 1.463 . S
C383 C388 1.350 . S
C383 N391 1.427 . S
C384 H375 0.930 . S
C384 C382 1.378 . S
C384 C385 1.367 . S
C385 C384 1.367 . S
C385 C387 1.433 . S
C386 C382 1.350 . S
C386 C383 1.463 . S
C386 N390 1.427 . S
C387 H377 0.929 . S
C387 C385 1.433 . S
C387 N390 1.384 . S
C388 H379 0.929 . S
C388 C380 1.378 . S
C388 C383 1.350 . S
C389 H376 0.929 . S
C389 C381 1.433 . S
C389 N391 1.384 . S
N390 C386 1.427 . S
N390 C387 1.384 . S
N391 C383 1.427 . S
N391 C389 1.384 . S
H392 C398 0.930 . S
H393 C402 0.930 . S
H394 C407 0.929 . S
H395 C405 0.929 . S
H396 C400 0.929 . S
H397 C406 0.929 . S
C398 H392 0.930 . S
C398 C399 1.367 . S
C398 C406 1.378 . S
C399 C398 1.367 . S
C399 C407 1.433 . S
C400 H396 0.929 . S
C400 C402 1.378 . S
C400 C404 1.350 1_455 S
C401 C404 1.463 . S
C401 C406 1.350 . S
C401 N409 1.427 . S
C402 H393 0.930 . S
C402 C400 1.378 . S
C402 C403 1.367 . S
C403 C402 1.367 . S
C403 C405 1.433 . S
C404 C400 1.350 1_655 S
C404 C401 1.463 . S
C404 N408 1.427 . S
C405 H395 0.929 . S
C405 C403 1.433 . S
C405 N408 1.384 1_455 S
C406 H397 0.929 . S
C406 C398 1.378 . S
C406 C401 1.350 . S
C407 H394 0.929 . S
C407 C399 1.433 . S
C407 N409 1.384 . S
N408 C404 1.427 . S
N408 C405 1.384 1_655 S
N409 C401 1.427 . S
N409 C407 1.384 . S
H410 C416 0.930 . S
H411 C420 0.930 . S
H412 C425 0.929 . S
H413 C423 0.912 1_554 S
H414 C418 0.929 . S
H415 C424 0.929 . S
C416 H410 0.930 . S
C416 C417 1.367 . S
C416 C424 1.378 . S
C417 C416 1.367 . S
C417 C425 1.433 . S
C418 H414 0.929 . S
C418 C420 1.378 . S
C418 C422 1.350 . S
C419 C422 1.463 . S
C419 C424 1.350 . S
C419 N427 1.427 . S
C420 H411 0.930 . S
C420 C418 1.378 . S
C420 C421 1.367 . S
C421 C420 1.367 . S
C421 C423 1.433 . S
C422 C418 1.350 . S
C422 C419 1.463 . S
C422 N426 1.427 . S
C423 H413 0.912 1_556 S
C423 C421 1.433 . S
C423 N426 1.384 . S
C424 H415 0.929 . S
C424 C416 1.378 . S
C424 C419 1.350 . S
C425 H412 0.929 . S
C425 C417 1.433 . S
C425 N427 1.384 . S
N426 C422 1.427 . S
N426 C423 1.384 . S
N427 C419 1.427 . S
N427 C425 1.384 . S
H428 C434 0.930 . S
H429 C438 0.930 . S
H430 C443 0.929 . S
H431 C441 0.929 . S
H432 C436 0.929 . S
H433 C442 0.929 . S
C434 H428 0.930 . S
C434 C435 1.367 . S
C434 C442 1.378 . S
C435 C434 1.367 . S
C435 C443 1.433 . S
C436 H432 0.929 . S
C436 C438 1.378 . S
C436 C440 1.350 . S
C437 C440 1.463 . S
C437 C442 1.350 . S
C437 N445 1.427 . S
C438 H429 0.930 . S
C438 C436 1.378 . S
C438 C439 1.367 . S
C439 C438 1.367 . S
C439 C441 1.433 . S
C440 C436 1.350 . S
C440 C437 1.463 . S
C440 N444 1.427 . S
C441 H431 0.929 . S
C441 C439 1.433 . S
C441 N444 1.384 . S
C442 H433 0.929 . S
C442 C434 1.378 . S
C442 C437 1.350 . S
C443 H430 0.929 . S
C443 C435 1.433 . S
C443 N445 1.384 . S
N444 C440 1.427 . S
N444 C441 1.384 . S
N445 C437 1.427 . S
N445 C443 1.384 . S
H446 C452 0.930 . S
H447 C456 0.930 . S
H448 C461 0.929 . S
H449 C459 0.929 . S
H450 C454 0.929 . S
H451 C460 0.929 . S
C452 H446 0.930 . S
C452 C453 1.367 . S
C452 C460 1.378 . S
C453 C452 1.367 . S
C453 C461 1.433 . S
C454 H450 0.929 . S
C454 C456 1.378 . S
C454 C458 1.350 . S
C455 C458 1.463 . S
C455 C460 1.350 . S
C455 N463 1.427 . S
C456 H447 0.930 . S
C456 C454 1.378 . S
C456 C457 1.367 . S
C457 C456 1.367 . S
C457 C459 1.433 . S
C458 C454 1.350 . S
C458 C455 1.463 . S
C458 N462 1.427 . S
C459 H449 0.929 . S
C459 C457 1.433 . S
C459 N462 1.384 . S
C460 H451 0.929 . S
C460 C452 1.378 . S
C460 C455 1.350 . S
C461 H448 0.929 . S
C461 C453 1.433 . S
C461 N463 1.384 . S
N462 C458 1.427 . S
N462 C459 1.384 . S
N463 C455 1.427 . S
N463 C461 1.384 . S
H464 C470 0.930 . S
H465 C474 0.930 . S
H466 C479 0.929 . S
H467 C477 0.929 . S
H468 C472 0.929 . S
H469 C478 0.929 . S
C470 H464 0.930 . S
C470 C471 1.367 . S
C470 C478 1.378 . S
C471 C470 1.367 . S
C471 C479 1.433 . S
C472 H468 0.929 . S
C472 C474 1.378 . S
C472 C476 1.350 . S
C473 C476 1.463 . S
C473 C478 1.350 . S
C473 N481 1.427 . S
C474 H465 0.930 . S
C474 C472 1.378 . S
C474 C475 1.367 . S
C475 C474 1.367 . S
C475 C477 1.433 . S
C476 C472 1.350 . S
C476 C473 1.463 . S
C476 N480 1.427 . S
C477 H467 0.929 . S
C477 C475 1.433 . S
C477 N480 1.384 . S
C478 H469 0.929 . S
C478 C470 1.378 . S
C478 C473 1.350 . S
C479 H466 0.929 . S
C479 C471 1.433 . S
C479 N481 1.384 . S
N480 C476 1.427 . S
N480 C477 1.384 . S
N481 C473 1.427 . S
N481 C479 1.384 . S
H482 C488 0.930 . S
H483 C492 0.930 . S
H484 C497 0.929 . S
H485 C495 0.929 . S
H486 C490 0.929 . S
H487 C496 0.929 . S
C488 H482 0.930 . S
C488 C489 1.367 . S
C488 C496 1.378 . S
C489 C488 1.367 . S
C489 C497 1.433 . S
C490 H486 0.929 . S
C490 C492 1.378 . S
C490 C494 1.350 . S
C491 C494 1.463 . S
C491 C496 1.350 . S
C491 N499 1.427 . S
C492 H483 0.930 . S
C492 C490 1.378 . S
C492 C493 1.367 . S
C493 C492 1.367 . S
C493 C495 1.433 . S
C494 C490 1.350 . S
C494 C491 1.463 . S
C494 N498 1.427 . S
C495 H485 0.929 . S
C495 C493 1.433 . S
C495 N498 1.384 . S
C496 H487 0.929 . S
C496 C488 1.378 . S
C496 C491 1.350 . S
C497 H484 0.929 . S
C497 C489 1.433 . S
C497 N499 1.384 . S
N498 C494 1.427 . S
N498 C495 1.384 . S
N499 C491 1.427 . S
N499 C497 1.384 . S
H500 C506 0.930 1_655 S
H501 C510 0.930 . S
H502 C515 0.929 . S
H503 C513 0.929 . S
H504 C508 0.929 1_455 S
H505 C514 0.929 . S
C506 H500 0.930 1_455 S
C506 C507 1.367 . S
C506 C514 1.378 1_455 S
C507 C506 1.367 . S
C507 C515 1.433 . S
C508 H504 0.929 1_655 S
C508 C510 1.378 . S
C508 C512 1.350 . S
C509 C512 1.463 . S
C509 C514 1.350 . S
C509 N517 1.427 1_655 S
C510 H501 0.930 . S
C510 C508 1.378 . S
C510 C511 1.367 . S
C511 C510 1.367 . S
C511 C513 1.433 . S
C512 C508 1.350 . S
C512 C509 1.463 . S
C512 N516 1.427 . S
C513 H503 0.929 . S
C513 C511 1.433 . S
C513 N516 1.384 . S
C514 H505 0.929 . S
C514 C506 1.378 1_655 S
C514 C509 1.350 . S
C515 H502 0.929 . S
C515 C507 1.433 . S
C515 N517 1.384 . S
N516 C512 1.427 . S
N516 C513 1.384 . S
N517 C509 1.427 1_455 S
N517 C515 1.384 . S
H518 C524 0.930 . S
H519 C528 0.930 . S
H520 C533 0.929 . S
H521 C531 0.929 . S
H522 C526 0.929 . S
H523 C532 0.929 . S
C524 H518 0.930 . S
C524 C525 1.367 . S
C524 C532 1.378 . S
C525 C524 1.367 . S
C525 C533 1.433 . S
C526 H522 0.929 . S
C526 C528 1.378 . S
C526 C530 1.350 . S
C527 C530 1.463 . S
C527 C532 1.350 . S
C527 N535 1.427 . S
C528 H519 0.930 . S
C528 C526 1.378 . S
C528 C529 1.367 . S
C529 C528 1.367 . S
C529 C531 1.433 . S
C530 C526 1.350 . S
C530 C527 1.463 . S
C530 N534 1.427 . S
C531 H521 0.929 . S
C531 C529 1.433 . S
C531 N534 1.384 . S
C532 H523 0.929 . S
C532 C524 1.378 . S
C532 C527 1.350 . S
C533 H520 0.929 . S
C533 C525 1.433 . S
C533 N535 1.384 . S
N534 C530 1.427 . S
N534 C531 1.384 . S
N535 C527 1.427 . S
N535 C533 1.384 . S
H536 C542 0.930 . S
H537 C546 0.930 . S
H538 C551 0.929 . S
H539 C549 0.929 . S
H540 C544 0.929 . S
H541 C550 0.929 . S
C542 H536 0.930 . S
C542 C543 1.367 . S
C542 C550 1.378 . S
C543 C542 1.367 . S
C543 C551 1.433 . S
C544 H540 0.929 . S
C544 C546 1.378 . S
C544 C548 1.350 . S
C545 C548 1.463 . S
C545 C550 1.350 . S
C545 N553 1.427 . S
C546 H537 0.930 . S
C546 C544 1.378 . S
C546 C547 1.367 . S
C547 C546 1.367 . S
C547 C549 1.433 . S
C548 C544 1.350 . S
C548 C545 1.463 . S
C548 N552 1.427 . S
C549 H539 0.929 . S
C549 C547 1.433 . S
C549 N552 1.384 . S
C550 H541 0.929 . S
C550 C542 1.378 . S
C550 C545 1.350 . S
C551 H538 0.929 . S
C551 C543 1.433 . S
C551 N553 1.384 . S
N552 C548 1.427 . S
N552 C549 1.384 . S
N553 C545 1.427 . S
N553 C551 1.384 . S
H554 C560 0.930 . S
H555 C564 0.930 . S
H556 C569 0.929 . S
H557 C567 0.929 . S
H558 C562 0.929 . S
H559 C568 0.929 . S
C560 H554 0.930 . S
C560 C561 1.367 . S
C560 C568 1.378 . S
C561 C560 1.367 . S
C561 C569 1.433 . S
C562 H558 0.929 . S
C562 C564 1.378 . S
C562 C566 1.350 . S
C563 C566 1.463 . S
C563 C568 1.350 . S
C563 N571 1.427 . S
C564 H555 0.930 . S
C564 C562 1.378 . S
C564 C565 1.367 . S
C565 C564 1.367 . S
C565 C567 1.433 . S
C566 C562 1.350 . S
C566 C563 1.463 . S
C566 N570 1.427 . S
C567 H557 0.929 . S
C567 C565 1.433 . S
C567 N570 1.384 . S
C568 H559 0.929 . S
C568 C560 1.378 . S
C568 C563 1.350 . S
C569 H556 0.929 . S
C569 C561 1.433 . S
C569 N571 1.384 . S
N570 C566 1.427 . S
N570 C567 1.384 . S
N571 C563 1.427 . S
N571 C569 1.384 . S
H572 C578 0.930 . S
H573 C582 0.930 . S
H574 C587 0.929 . S
H575 C585 0.929 . S
H576 C580 0.929 . S
H577 C586 0.929 . S
C578 H572 0.930 . S
C578 C579 1.367 . S
C578 C586 1.378 . S
C579 C578 1.367 . S
C579 C587 1.433 . S
C580 H576 0.929 . S
C580 C582 1.378 . S
C580 C584 1.350 . S
C581 C584 1.463 . S
C581 C586 1.350 . S
C581 N589 1.427 . S
C582 H573 0.930 . S
C582 C580 1.378 . S
C582 C583 1.367 . S
C583 C582 1.367 . S
C583 C585 1.433 . S
C584 C580 1.350 . S
C584 C581 1.463 . S
C584 N588 1.427 . S
C585 H575 0.929 . S
C585 C583 1.433 . S
C585 N588 1.384 . S
C586 H577 0.929 . S
C586 C578 1.378 . S
C586 C581 1.350 . S
C587 H574 0.929 . S
C587 C579 1.433 . S
C587 N589 1.384 . S
N588 C584 1.427 . S
N588 C585 1.384 . S
N589 C581 1.427 . S
N589 C587 1.384 . S
H590 C596 0.930 . S
H591 C600 0.930 1_554 S
H592 C605 0.929 . S
H593 C603 0.929 . S
H594 C598 0.929 . S
H595 C604 0.929 . S
C596 H590 0.930 . S
C596 C597 1.367 . S
C596 C604 1.378 . S
C597 C596 1.367 . S
C597 C605 1.433 . S
C598 H594 0.929 . S
C598 C600 1.378 . S
C598 C602 1.350 . S
C599 C602 1.463 . S
C599 C604 1.350 . S
C599 N607 1.427 . S
C600 H591 0.930 1_556 S
C600 C598 1.378 . S
C600 C601 1.367 . S
C601 C600 1.367 . S
C601 C603 1.433 . S
C602 C598 1.350 . S
C602 C599 1.463 . S
C602 N606 1.427 . S
C603 H593 0.929 . S
C603 C601 1.433 . S
C603 N606 1.384 . S
C604 H595 0.929 . S
C604 C596 1.378 . S
C604 C599 1.350 . S
C605 H592 0.929 . S
C605 C597 1.433 . S
C605 N607 1.384 . S
N606 C602 1.427 . S
N606 C603 1.384 . S
N607 C599 1.427 . S
N607 C605 1.384 . S
H608 C614 0.930 . S
H609 C618 0.930 . S
H610 C623 0.929 . S
H611 C621 0.929 1_655 S
H612 C616 0.929 . S
H613 C622 0.929 . S
C614 H608 0.930 . S
C614 C615 1.367 . S
C614 C622 1.378 . S
C615 C614 1.367 . S
C615 C623 1.433 . S
C616 H612 0.929 . S
C616 C618 1.378 . S
C616 C620 1.350 . S
C617 C620 1.463 . S
C617 C622 1.350 . S
C617 N625 1.427 . S
C618 H609 0.930 . S
C618 C616 1.378 . S
C618 C619 1.367 . S
C619 C618 1.367 . S
C619 C621 1.433 . S
C620 C616 1.350 . S
C620 C617 1.463 . S
C620 N624 1.427 . S
C621 H611 0.929 1_455 S
C621 C619 1.433 . S
C621 N624 1.384 . S
C622 H613 0.929 . S
C622 C614 1.378 . S
C622 C617 1.350 . S
C623 H610 0.929 . S
C623 C615 1.433 . S
C623 N625 1.384 . S
N624 C620 1.427 . S
N624 C621 1.384 . S
N625 C617 1.427 . S
N625 C623 1.384 . S
H626 C632 0.930 . S
H627 C636 0.930 . S
H628 C641 0.929 1_655 S
H629 C639 0.929 . S
H630 C634 0.929 . S
H631 C640 0.929 . S
C632 H626 0.930 . S
C632 C633 1.367 . S
C632 C640 1.378 1_655 S
C633 C632 1.367 . S
C633 C641 1.433 1_655 S
C634 H630 0.929 . S
C634 C636 1.378 . S
C634 C638 1.350 . S
C635 C638 1.463 . S
C635 C640 1.350 . S
C635 N643 1.427 . S
C636 H627 0.930 . S
C636 C634 1.378 . S
C636 C637 1.367 . S
C637 C636 1.367 . S
C637 C639 1.433 . S
C638 C634 1.350 . S
C638 C635 1.463 . S
C638 N642 1.427 . S
C639 H629 0.929 . S
C639 C637 1.433 . S
C639 N642 1.384 . S
C640 H631 0.929 . S
C640 C632 1.378 1_455 S
C640 C635 1.350 . S
C641 H628 0.929 1_455 S
C641 C633 1.433 1_455 S
C641 N643 1.384 . S
N642 C638 1.427 . S
N642 C639 1.384 . S
N643 C635 1.427 . S
N643 C641 1.384 . S
H644 C650 0.930 . S
H645 C654 0.930 . S
H646 C659 0.929 . S
H647 C657 0.929 . S
H648 C652 0.929 . S
H649 C658 0.929 . S
C650 H644 0.930 . S
C650 C651 1.367 . S
C650 C658 1.378 . S
C651 C650 1.367 . S
C651 C659 1.433 . S
C652 H648 0.929 . S
C652 C654 1.378 . S
C652 C656 1.350 . S
C653 C656 1.463 . S
C653 C658 1.350 . S
C653 N661 1.427 . S
C654 H645 0.930 . S
C654 C652 1.378 . S
C654 C655 1.367 . S
C655 C654 1.367 . S
C655 C657 1.433 . S
C656 C652 1.350 . S
C656 C653 1.463 . S
C656 N660 1.427 . S
C657 H647 0.929 . S
C657 C655 1.433 . S
C657 N660 1.384 . S
C658 H649 0.929 . S
C658 C650 1.378 . S
C658 C653 1.350 . S
C659 H646 0.929 . S
C659 C651 1.433 . S
C659 N661 1.384 . S
N660 C656 1.427 . S
N660 C657 1.384 . S
N661 C653 1.427 . S
N661 C659 1.384 . S
H662 C668 0.930 . S
H663 C672 0.930 . S
H664 C677 0.929 . S
H665 C675 0.929 . S
H666 C670 0.929 . S
H667 C676 0.929 . S
C668 H662 0.930 . S
C668 C669 1.367 . S
C668 C676 1.378 . S
C669 C668 1.367 . S
C669 C677 1.433 . S
C670 H666 0.929 . S
C670 C672 1.378 . S
C670 C674 1.350 . S
C671 C674 1.463 . S
C671 C676 1.350 . S
C671 N679 1.427 . S
C672 H663 0.930 . S
C672 C670 1.378 . S
C672 C673 1.367 . S
C673 C672 1.367 . S
C673 C675 1.433 . S
C674 C670 1.350 . S
C674 C671 1.463 . S
C674 N678 1.427 . S
C675 H665 0.929 . S
C675 C673 1.433 . S
C675 N678 1.384 . S
C676 H667 0.929 . S
C676 C668 1.378 . S
C676 C671 1.350 . S
C677 H664 0.929 . S
C677 C669 1.433 . S
C677 N679 1.384 . S
N678 C674 1.427 . S
N678 C675 1.384 . S
N679 C671 1.427 . S
N679 C677 1.384 . S
H680 C686 0.930 . S
H681 C690 0.930 . S
H682 C695 0.929 . S
H683 C693 0.929 . S
H684 C688 0.929 . S
H685 C694 0.929 . S
C686 H680 0.930 . S
C686 C687 1.367 . S
C686 C694 1.378 . S
C687 C686 1.367 . S
C687 C695 1.433 . S
C688 H684 0.929 . S
C688 C690 1.378 . S
C688 C692 1.350 . S
C689 C692 1.463 . S
C689 C694 1.350 . S
C689 N697 1.427 . S
C690 H681 0.930 . S
C690 C688 1.378 . S
C690 C691 1.367 . S
C691 C690 1.367 . S
C691 C693 1.433 . S
C692 C688 1.350 . S
C692 C689 1.463 . S
C692 N696 1.427 . S
C693 H683 0.929 . S
C693 C691 1.433 . S
C693 N696 1.384 . S
C694 H685 0.929 . S
C694 C686 1.378 . S
C694 C689 1.350 . S
C695 H682 0.929 . S
C695 C687 1.433 . S
C695 N697 1.384 . S
N696 C692 1.427 . S
N696 C693 1.384 . S
N697 C689 1.427 . S
N697 C695 1.384 . S
H698 C704 0.930 . S
H699 C708 0.930 . S
H700 C713 0.929 . S
H701 C711 0.929 . S
H702 C706 0.929 . S
H703 C712 0.929 . S
C704 H698 0.930 . S
C704 C705 1.367 . S
C704 C712 1.378 . S
C705 C704 1.367 . S
C705 C713 1.433 . S
C706 H702 0.929 . S
C706 C708 1.378 . S
C706 C710 1.350 . S
C707 C710 1.463 . S
C707 C712 1.350 . S
C707 N715 1.427 . S
C708 H699 0.930 . S
C708 C706 1.378 . S
C708 C709 1.367 . S
C709 C708 1.367 . S
C709 C711 1.433 . S
C710 C706 1.350 . S
C710 C707 1.463 . S
C710 N714 1.427 . S
C711 H701 0.929 . S
C711 C709 1.433 . S
C711 N714 1.384 . S
C712 H703 0.929 . S
C712 C704 1.378 . S
C712 C707 1.350 . S
C713 H700 0.929 . S
C713 C705 1.433 . S
C713 N715 1.384 . S
N714 C710 1.427 . S
N714 C711 1.384 . S
N715 C707 1.427 . S
N715 C713 1.384 . S
H716 C722 0.930 . S
H717 C726 0.930 . S
H718 C731 0.929 . S
H719 C729 0.929 . S
H720 C724 0.929 . S
H721 C730 0.929 . S
C722 H716 0.930 . S
C722 C723 1.367 . S
C722 C730 1.378 . S
C723 C722 1.367 . S
C723 C731 1.433 . S
C724 H720 0.929 . S
C724 C726 1.378 . S
C724 C728 1.350 . S
C725 C728 1.463 . S
C725 C730 1.350 . S
C725 N733 1.427 . S
C726 H717 0.930 . S
C726 C724 1.378 . S
C726 C727 1.367 . S
C727 C726 1.367 . S
C727 C729 1.433 . S
C728 C724 1.350 . S
C728 C725 1.463 . S
C728 N732 1.427 . S
C729 H719 0.929 . S
C729 C727 1.433 . S
C729 N732 1.384 . S
C730 H721 0.929 . S
C730 C722 1.378 . S
C730 C725 1.350 . S
C731 H718 0.929 . S
C731 C723 1.433 . S
C731 N733 1.384 . S
N732 C728 1.427 . S
N732 C729 1.384 . S
N733 C725 1.427 . S
N733 C731 1.384 . S
H734 C740 0.930 . S
H735 C744 0.930 . S
H736 C749 0.929 . S
H737 C747 0.936 . S
H738 C742 0.929 . S
H739 C748 0.929 . S
C740 H734 0.930 . S
C740 C741 1.367 . S
C740 C748 1.378 . S
C741 C740 1.367 . S
C741 C749 1.433 . S
C742 H738 0.929 . S
C742 C744 1.378 1_455 S
C742 C746 1.350 . S
C743 C746 1.463 . S
C743 C748 1.350 . S
C743 N751 1.427 . S
C744 H735 0.930 . S
C744 C742 1.378 1_655 S
C744 C745 1.367 . S
C745 C744 1.367 . S
C745 C747 1.433 1_655 S
C746 C742 1.350 . S
C746 C743 1.463 . S
C746 N750 1.427 . S
C747 H737 0.936 . S
C747 C745 1.433 1_455 S
C747 N750 1.384 . S
C748 H739 0.929 . S
C748 C740 1.378 . S
C748 C743 1.350 . S
C749 H736 0.929 . S
C749 C741 1.433 . S
C749 N751 1.384 . S
N750 C746 1.427 . S
N750 C747 1.384 . S
N751 C743 1.427 . S
N751 C749 1.384 . S
H752 C758 0.930 1_655 S
H753 C762 0.930 . S
H754 C767 0.929 . S
H755 C765 0.929 . S
H756 C760 0.929 1_554 S
H757 C766 0.929 1_556 S
C758 H752 0.930 1_455 S
C758 C759 1.367 . S
C758 C766 1.378 . S
C759 C758 1.367 . S
C759 C767 1.433 . S
C760 H756 0.929 1_556 S
C760 C762 1.378 . S
C760 C764 1.350 . S
C761 C764 1.463 1_544 S
C761 C766 1.350 . S
C761 N769 1.427 . S
C762 H753 0.930 . S
C762 C760 1.378 . S
C762 C763 1.367 . S
C763 C762 1.367 . S
C763 C765 1.433 . S
C764 C760 1.350 . S
C764 C761 1.463 1_566 S
C764 N768 1.427 . S
C765 H755 0.929 . S
C765 C763 1.433 . S
C765 N768 1.384 . S
C766 H757 0.929 1_554 S
C766 C758 1.378 . S
C766 C761 1.350 . S
C767 H754 0.929 . S
C767 C759 1.433 . S
C767 N769 1.384 . S
N768 C764 1.427 . S
N768 C765 1.384 . S
N769 C761 1.427 . S
N769 C767 1.384 . S
H770 C776 0.930 . S
H771 C780 0.930 . S
H772 C785 0.929 . S
H773 C783 0.929 . S
H774 C778 0.929 . S
H775 C784 0.929 . S
C776 H770 0.930 . S
C776 C777 1.367 . S
C776 C784 1.378 . S
C777 C776 1.367 . S
C777 C785 1.433 . S
C778 H774 0.929 . S
C778 C780 1.378 . S
C778 C782 1.350 . S
C779 C782 1.463 . S
C779 C784 1.350 . S
C779 N787 1.427 . S
C780 H771 0.930 . S
C780 C778 1.378 . S
C780 C781 1.367 . S
C781 C780 1.367 . S
C781 C783 1.433 . S
C782 C778 1.350 . S
C782 C779 1.463 . S
C782 N786 1.427 . S
C783 H773 0.929 . S
C783 C781 1.433 . S
C783 N786 1.384 . S
C784 H775 0.929 . S
C784 C776 1.378 . S
C784 C779 1.350 . S
C785 H772 0.929 . S
C785 C777 1.433 . S
C785 N787 1.384 . S
N786 C782 1.427 . S
N786 C783 1.384 . S
N787 C779 1.427 . S
N787 C785 1.384 . S
H788 C794 0.930 . S
H789 C798 0.930 . S
H790 C803 0.929 . S
H791 C801 0.929 . S
H792 C796 0.929 1_545 S
H793 C802 0.929 1_565 S
C794 H788 0.930 . S
C794 C795 1.367 . S
C794 C802 1.378 . S
C795 C794 1.367 . S
C795 C803 1.433 . S
C796 H792 0.929 1_565 S
C796 C798 1.378 . S
C796 C800 1.350 . S
C797 C800 1.463 1_545 S
C797 C802 1.350 . S
C797 N805 1.427 . S
C798 H789 0.930 . S
C798 C796 1.378 . S
C798 C799 1.367 . S
C799 C798 1.367 . S
C799 C801 1.433 . S
C800 C796 1.350 . S
C800 C797 1.463 1_565 S
C800 N804 1.427 . S
C801 H791 0.929 . S
C801 C799 1.433 . S
C801 N804 1.384 . S
C802 H793 0.929 1_545 S
C802 C794 1.378 . S
C802 C797 1.350 . S
C803 H790 0.929 . S
C803 C795 1.433 . S
C803 N805 1.384 . S
N804 C800 1.427 . S
N804 C801 1.384 . S
N805 C797 1.427 . S
N805 C803 1.384 . S
H806 C812 0.930 . S
H807 C816 0.930 . S
H808 C821 0.929 . S
H809 C819 0.929 . S
H810 C814 0.929 . S
H811 C820 0.929 . S
C812 H806 0.930 . S
C812 C813 1.367 . S
C812 C820 1.378 . S
C813 C812 1.367 . S
C813 C821 1.433 . S
C814 H810 0.929 . S
C814 C816 1.378 . S
C814 C818 1.350 . S
C815 C818 1.463 . S
C815 C820 1.350 . S
C815 N823 1.427 . S
C816 H807 0.930 . S
C816 C814 1.378 . S
C816 C817 1.367 . S
C817 C816 1.367 . S
C817 C819 1.433 . S
C818 C814 1.350 . S
C818 C815 1.463 . S
C818 N822 1.427 . S
C819 H809 0.929 . S
C819 C817 1.433 . S
C819 N822 1.384 . S
C820 H811 0.929 . S
C820 C812 1.378 . S
C820 C815 1.350 . S
C821 H808 0.929 . S
C821 C813 1.433 . S
C821 N823 1.384 . S
N822 C818 1.427 . S
N822 C819 1.384 . S
N823 C815 1.427 . S
N823 C821 1.384 . S
H824 C830 0.930 . S
H825 C834 0.930 . S
H826 C839 0.929 . S
H827 C837 0.929 . S
H828 C832 0.929 . S
H829 C838 0.929 . S
C830 H824 0.930 . S
C830 C831 1.367 . S
C830 C838 1.378 . S
C831 C830 1.367 . S
C831 C839 1.433 . S
C832 H828 0.929 . S
C832 C834 1.378 . S
C832 C836 1.350 . S
C833 C836 1.463 . S
C833 C838 1.350 . S
C833 N841 1.427 . S
C834 H825 0.930 . S
C834 C832 1.378 . S
C834 C835 1.367 . S
C835 C834 1.367 . S
C835 C837 1.433 . S
C836 C832 1.350 . S
C836 C833 1.463 . S
C836 N840 1.427 . S
C837 H827 0.929 . S
C837 C835 1.433 . S
C837 N840 1.384 . S
C838 H829 0.929 . S
C838 C830 1.378 . S
C838 C833 1.350 . S
C839 H826 0.929 . S
C839 C831 1.433 . S
C839 N841 1.384 . S
N840 C836 1.427 . S
N840 C837 1.384 . S
N841 C833 1.427 . S
N841 C839 1.384 . S
H842 C848 0.930 . S
H843 C852 0.930 . S
H844 C857 0.929 . S
H845 C855 0.929 . S
H846 C850 0.929 . S
H847 C856 0.929 . S
C848 H842 0.930 . S
C848 C849 1.367 . S
C848 C856 1.378 . S
C849 C848 1.367 . S
C849 C857 1.433 . S
C850 H846 0.929 . S
C850 C852 1.378 . S
C850 C854 1.350 . S
C851 C854 1.463 . S
C851 C856 1.350 . S
C851 N859 1.427 . S
C852 H843 0.930 . S
C852 C850 1.378 . S
C852 C853 1.367 . S
C853 C852 1.367 . S
C853 C855 1.433 . S
C854 C850 1.350 . S
C854 C851 1.463 . S
C854 N858 1.427 . S
C855 H845 0.929 . S
C855 C853 1.433 . S
C855 N858 1.384 . S
C856 H847 0.929 . S
C856 C848 1.378 . S
C856 C851 1.350 . S
C857 H844 0.929 . S
C857 C849 1.433 . S
C857 N859 1.384 . S
N858 C854 1.427 . S
N858 C855 1.384 . S
N859 C851 1.427 . S
N859 C857 1.384 . S
H860 C866 0.930 . S
H861 C870 0.930 . S
H862 C875 0.929 . S
H863 C873 0.929 . S
H864 C868 0.929 . S
H865 C874 0.929 . S
C866 H860 0.930 . S
C866 C867 1.367 . S
C866 C874 1.378 . S
C867 C866 1.367 . S
C867 C875 1.433 . S
C868 H864 0.929 . S
C868 C870 1.378 . S
C868 C872 1.350 . S
C869 C872 1.463 . S
C869 C874 1.350 . S
C869 N877 1.427 . S
C870 H861 0.930 . S
C870 C868 1.378 . S
C870 C871 1.367 . S
C871 C870 1.367 . S
C871 C873 1.433 . S
C872 C868 1.350 . S
C872 C869 1.463 . S
C872 N876 1.427 . S
C873 H863 0.929 . S
C873 C871 1.433 . S
C873 N876 1.384 . S
C874 H865 0.929 . S
C874 C866 1.378 . S
C874 C869 1.350 . S
C875 H862 0.929 . S
C875 C867 1.433 . S
C875 N877 1.384 . S
N876 C872 1.427 . S
N876 C873 1.384 . S
N877 C869 1.427 . S
N877 C875 1.384 . S
H878 C884 0.930 . S
H879 C888 0.930 . S
H880 C893 0.929 . S
H881 C891 0.929 . S
H882 C886 0.929 . S
H883 C892 0.929 . S
C884 H878 0.930 . S
C884 C885 1.367 . S
C884 C892 1.378 . S
C885 C884 1.367 . S
C885 C893 1.433 . S
C886 H882 0.929 . S
C886 C888 1.378 . S
C886 C890 1.350 . S
C887 C890 1.463 1_556 S
C887 C892 1.350 . S
C887 N895 1.427 . S
C888 H879 0.930 . S
C888 C886 1.378 . S
C888 C889 1.367 . S
C889 C888 1.367 . S
C889 C891 1.433 . S
C890 C886 1.350 . S
C890 C887 1.463 1_554 S
C890 N894 1.427 . S
C891 H881 0.929 . S
C891 C889 1.433 . S
C891 N894 1.384 . S
C892 H883 0.929 . S
C892 C884 1.378 . S
C892 C887 1.350 . S
C893 H880 0.929 . S
C893 C885 1.433 . S
C893 N895 1.384 . S
N894 C890 1.427 . S
N894 C891 1.384 . S
N895 C887 1.427 . S
N895 C893 1.384 . S
H896 C902 0.930 . S
H897 C906 0.930 . S
H898 C911 0.929 . S
H899 C909 0.929 . S
H900 C904 0.929 . S
H901 C910 0.929 . S
C902 H896 0.930 . S
C902 C903 1.367 . S
C902 C910 1.378 . S
C903 C902 1.367 . S
C903 C911 1.433 . S
C904 H900 0.929 . S
C904 C906 1.378 . S
C904 C908 1.350 . S
C905 C908 1.463 . S
C905 C910 1.350 . S
C905 N913 1.427 . S
C906 H897 0.930 . S
C906 C904 1.378 . S
C906 C907 1.367 . S
C907 C906 1.367 . S
C907 C909 1.433 . S
C908 C904 1.350 . S
C908 C905 1.463 . S
C908 N912 1.427 . S
C909 H899 0.929 . S
C909 C907 1.433 . S
C909 N912 1.384 . S
C910 H901 0.929 . S
C910 C902 1.378 . S
C910 C905 1.350 . S
C911 H898 0.929 . S
C911 C903 1.433 . S
C911 N913 1.384 . S
N912 C908 1.427 . S
N912 C909 1.384 . S
N913 C905 1.427 . S
N913 C911 1.384 . S
H914 C920 0.930 . S
H915 C924 0.930 . S
H916 C929 0.929 . S
H917 C927 0.929 . S
H918 C922 0.929 . S
H919 C928 0.929 . S
C920 H914 0.930 . S
C920 C921 1.367 . S
C920 C928 1.378 . S
C921 C920 1.367 . S
C921 C929 1.433 . S
C922 H918 0.929 . S
C922 C924 1.378 . S
C922 C926 1.350 . S
C923 C926 1.463 . S
C923 C928 1.350 . S
C923 N931 1.427 . S
C924 H915 0.930 . S
C924 C922 1.378 . S
C924 C925 1.367 . S
C925 C924 1.367 . S
C925 C927 1.433 . S
C926 C922 1.350 . S
C926 C923 1.463 . S
C926 N930 1.427 . S
C927 H917 0.929 . S
C927 C925 1.433 . S
C927 N930 1.384 . S
C928 H919 0.929 . S
C928 C920 1.378 . S
C928 C923 1.350 . S
C929 H916 0.929 . S
C929 C921 1.433 . S
C929 N931 1.384 . S
N930 C926 1.427 . S
N930 C927 1.384 . S
N931 C923 1.427 . S
N931 C929 1.384 . S
H932 C938 0.930 . S
H933 C942 0.930 . S
H934 C947 0.929 . S
H935 C945 0.929 . S
H936 C940 0.929 . S
H937 C946 0.929 . S
C938 H932 0.930 . S
C938 C939 1.367 . S
C938 C946 1.378 . S
C939 C938 1.367 . S
C939 C947 1.433 . S
C940 H936 0.929 . S
C940 C942 1.378 . S
C940 C944 1.350 . S
C941 C944 1.463 . S
C941 C946 1.350 . S
C941 N949 1.427 . S
C942 H933 0.930 . S
C942 C940 1.378 . S
C942 C943 1.367 . S
C943 C942 1.367 . S
C943 C945 1.433 . S
C944 C940 1.350 . S
C944 C941 1.463 . S
C944 N948 1.427 . S
C945 H935 0.929 . S
C945 C943 1.433 . S
C945 N948 1.384 . S
C946 H937 0.929 . S
C946 C938 1.378 . S
C946 C941 1.350 . S
C947 H934 0.929 . S
C947 C939 1.433 . S
C947 N949 1.384 . S
N948 C944 1.427 . S
N948 C945 1.384 . S
N949 C941 1.427 . S
N949 C947 1.384 . S
H950 C956 0.930 . S
H951 C960 0.930 . S
H952 C965 0.929 . S
H953 C963 0.929 . S
H954 C958 0.929 . S
H955 C964 0.929 . S
C956 H950 0.930 . S
C956 C957 1.367 . S
C956 C964 1.378 . S
C957 C956 1.367 . S
C957 C965 1.433 . S
C958 H954 0.929 . S
C958 C960 1.378 . S
C958 C962 1.350 . S
C959 C962 1.463 . S
C959 C964 1.350 . S
C959 N967 1.427 . S
C960 H951 0.930 . S
C960 C958 1.378 . S
C960 C961 1.367 . S
C961 C960 1.367 . S
C961 C963 1.433 . S
C962 C958 1.350 . S
C962 C959 1.463 . S
C962 N966 1.427 . S
C963 H953 0.929 . S
C963 C961 1.433 . S
C963 N966 1.384 . S
C964 H955 0.929 . S
C964 C956 1.378 . S
C964 C959 1.350 . S
C965 H952 0.929 . S
C965 C957 1.433 . S
C965 N967 1.384 . S
N966 C962 1.427 . S
N966 C963 1.384 . S
N967 C959 1.427 . S
N967 C965 1.384 . S
H968 C974 0.930 . S
H969 C978 0.930 1_655 S
H970 C983 0.929 . S
H971 C981 0.929 . S
H972 C976 0.929 . S
H973 C982 0.929 1_455 S
C974 H968 0.930 . S
C974 C975 1.367 . S
C974 C982 1.378 . S
C975 C974 1.367 . S
C975 C983 1.433 . S
C976 H972 0.929 . S
C976 C978 1.378 1_655 S
C976 C980 1.350 . S
C977 C980 1.463 . S
C977 C982 1.350 . S
C977 N985 1.427 . S
C978 H969 0.930 1_455 S
C978 C976 1.378 1_455 S
C978 C979 1.367 . S
C979 C978 1.367 . S
C979 C981 1.433 . S
C980 C976 1.350 . S
C980 C977 1.463 . S
C980 N984 1.427 1_655 S
C981 H971 0.929 . S
C981 C979 1.433 . S
C981 N984 1.384 . S
C982 H973 0.929 1_655 S
C982 C974 1.378 . S
C982 C977 1.350 . S
C983 H970 0.929 . S
C983 C975 1.433 . S
C983 N985 1.384 . S
N984 C980 1.427 1_455 S
N984 C981 1.384 . S
N985 C977 1.427 . S
N985 C983 1.384 . S
H986 C992 0.930 . S
H987 C996 0.930 . S
H988 C1001 0.929 . S
H989 C999 0.929 . S
H990 C994 0.929 . S
H991 C1000 0.929 . S
C992 H986 0.930 . S
C992 C993 1.367 . S
C992 C1000 1.378 . S
C993 C992 1.367 . S
C993 C1001 1.433 . S
C994 H990 0.929 . S
C994 C996 1.378 . S
C994 C998 1.350 . S
C995 C998 1.463 . S
C995 C1000 1.350 . S
C995 N1003 1.427 . S
C996 H987 0.930 . S
C996 C994 1.378 . S
C996 C997 1.367 . S
C997 C996 1.367 . S
C997 C999 1.433 . S
C998 C994 1.350 . S
C998 C995 1.463 . S
C998 N1002 1.427 . S
C999 H989 0.929 . S
C999 C997 1.433 . S
C999 N1002 1.384 . S
C1000 H991 0.929 . S
C1000 C992 1.378 . S
C1000 C995 1.350 . S
C1001 H988 0.929 . S
C1001 C993 1.433 . S
C1001 N1003 1.384 . S
N1002 C998 1.427 . S
N1002 C999 1.384 . S
N1003 C995 1.427 . S
N1003 C1001 1.384 . S
H1004 C1010 0.930 . S
H1005 C1014 0.930 . S
H1006 C1019 0.929 . S
H1007 C1017 0.929 . S
H1008 C1012 0.929 . S
H1009 C1018 0.929 . S
C1010 H1004 0.930 . S
C1010 C1011 1.367 . S
C1010 C1018 1.378 . S
C1011 C1010 1.367 . S
C1011 C1019 1.433 . S
C1012 H1008 0.929 . S
C1012 C1014 1.378 . S
C1012 C1016 1.350 . S
C1013 C1016 1.463 . S
C1013 C1018 1.350 . S
C1013 N1021 1.427 . S
C1014 H1005 0.930 . S
C1014 C1012 1.378 . S
C1014 C1015 1.367 . S
C1015 C1014 1.367 . S
C1015 C1017 1.433 . S
C1016 C1012 1.350 . S
C1016 C1013 1.463 . S
C1016 N1020 1.427 . S
C1017 H1007 0.929 . S
C1017 C1015 1.433 . S
C1017 N1020 1.384 . S
C1018 H1009 0.929 . S
C1018 C1010 1.378 . S
C1018 C1013 1.350 . S
C1019 H1006 0.929 . S
C1019 C1011 1.433 . S
C1019 N1021 1.384 . S
N1020 C1016 1.427 . S
N1020 C1017 1.384 . S
N1021 C1013 1.427 . S
N1021 C1019 1.384 . S
H1022 C1028 0.930 . S
H1023 C1032 0.930 1_554 S
H1024 C1037 0.929 . S
H1025 C1035 0.929 . S
H1026 C1030 0.929 . S
H1027 C1036 0.929 . S
C1028 H1022 0.930 . S
C1028 C1029 1.367 . S
C1028 C1036 1.378 . S
C1029 C1028 1.367 . S
C1029 C1037 1.433 . S
C1030 H1026 0.929 . S
C1030 C1032 1.378 . S
C1030 C1034 1.350 . S
C1031 C1034 1.463 . S
C1031 C1036 1.350 . S
C1031 N1039 1.427 . S
C1032 H1023 0.930 1_556 S
C1032 C1030 1.378 . S
C1032 C1033 1.367 . S
C1033 C1032 1.367 . S
C1033 C1035 1.433 . S
C1034 C1030 1.350 . S
C1034 C1031 1.463 . S
C1034 N1038 1.427 . S
C1035 H1025 0.929 . S
C1035 C1033 1.433 . S
C1035 N1038 1.384 . S
C1036 H1027 0.929 . S
C1036 C1028 1.378 . S
C1036 C1031 1.350 . S
C1037 H1024 0.929 . S
C1037 C1029 1.433 . S
C1037 N1039 1.384 . S
N1038 C1034 1.427 . S
N1038 C1035 1.384 . S
N1039 C1031 1.427 . S
N1039 C1037 1.384 . S
H1040 C1046 0.930 . S
H1041 C1050 0.930 . S
H1042 C1055 0.929 . S
H1043 C1053 0.929 . S
H1044 C1048 0.929 . S
H1045 C1054 0.929 . S
C1046 H1040 0.930 . S
C1046 C1047 1.367 . S
C1046 C1054 1.378 . S
C1047 C1046 1.367 . S
C1047 C1055 1.433 . S
C1048 H1044 0.929 . S
C1048 C1050 1.378 . S
C1048 C1052 1.350 . S
C1049 C1052 1.463 . S
C1049 C1054 1.350 . S
C1049 N1057 1.427 . S
C1050 H1041 0.930 . S
C1050 C1048 1.378 . S
C1050 C1051 1.367 . S
C1051 C1050 1.367 . S
C1051 C1053 1.433 . S
C1052 C1048 1.350 . S
C1052 C1049 1.463 . S
C1052 N1056 1.427 . S
C1053 H1043 0.929 . S
C1053 C1051 1.433 . S
C1053 N1056 1.384 . S
C1054 H1045 0.929 . S
C1054 C1046 1.378 . S
C1054 C1049 1.350 . S
C1055 H1042 0.929 . S
C1055 C1047 1.433 . S
C1055 N1057 1.384 . S
N1056 C1052 1.427 . S
N1056 C1053 1.384 . S
N1057 C1049 1.427 . S
N1057 C1055 1.384 . S
H1058 C1064 0.930 . S
H1059 C1068 0.930 . S
H1060 C1073 0.929 . S
H1061 C1071 0.929 . S
H1062 C1066 0.929 . S
H1063 C1072 0.929 . S
C1064 H1058 0.930 . S
C1064 C1065 1.367 . S
C1064 C1072 1.378 . S
C1065 C1064 1.367 . S
C1065 C1073 1.433 . S
C1066 H1062 0.929 . S
C1066 C1068 1.378 . S
C1066 C1070 1.350 . S
C1067 C1070 1.463 . S
C1067 C1072 1.350 . S
C1067 N1075 1.427 . S
C1068 H1059 0.930 . S
C1068 C1066 1.378 . S
C1068 C1069 1.367 . S
C1069 C1068 1.367 . S
C1069 C1071 1.433 . S
C1070 C1066 1.350 . S
C1070 C1067 1.463 . S
C1070 N1074 1.427 . S
C1071 H1061 0.929 . S
C1071 C1069 1.433 . S
C1071 N1074 1.384 . S
C1072 H1063 0.929 . S
C1072 C1064 1.378 . S
C1072 C1067 1.350 . S
C1073 H1060 0.929 . S
C1073 C1065 1.433 . S
C1073 N1075 1.384 . S
N1074 C1070 1.427 . S
N1074 C1071 1.384 . S
N1075 C1067 1.427 . S
N1075 C1073 1.384 . S
H1076 C1082 0.930 . S
H1077 C1086 0.930 . S
H1078 C1091 0.929 . S
H1079 C1089 0.929 . S
H1080 C1084 0.929 1_455 S
H1081 C1090 0.929 . S
C1082 H1076 0.930 . S
C1082 C1083 1.367 1_655 S
C1082 C1090 1.378 . S
C1083 C1082 1.367 1_455 S
C1083 C1091 1.433 . S
C1084 H1080 0.929 1_655 S
C1084 C1086 1.378 . S
C1084 C1088 1.350 . S
C1085 C1088 1.463 . S
C1085 C1090 1.350 . S
C1085 N1093 1.427 1_655 S
C1086 H1077 0.930 . S
C1086 C1084 1.378 . S
C1086 C1087 1.367 . S
C1087 C1086 1.367 . S
C1087 C1089 1.433 . S
C1088 C1084 1.350 . S
C1088 C1085 1.463 . S
C1088 N1092 1.427 . S
C1089 H1079 0.929 . S
C1089 C1087 1.433 . S
C1089 N1092 1.384 . S
C1090 H1081 0.929 . S
C1090 C1082 1.378 . S
C1090 C1085 1.350 . S
C1091 H1078 0.929 . S
C1091 C1083 1.433 . S
C1091 N1093 1.384 . S
N1092 C1088 1.427 . S
N1092 C1089 1.384 . S
N1093 C1085 1.427 1_455 S
N1093 C1091 1.384 . S
H1094 C1100 0.930 . S
H1095 C1104 0.930 . S
H1096 C1109 0.929 . S
H1097 C1107 0.929 . S
H1098 C1102 0.929 . S
H1099 C1108 0.929 . S
C1100 H1094 0.930 . S
C1100 C1101 1.367 . S
C1100 C1108 1.378 . S
C1101 C1100 1.367 . S
C1101 C1109 1.433 . S
C1102 H1098 0.929 . S
C1102 C1104 1.378 . S
C1102 C1106 1.350 . S
C1103 C1106 1.463 . S
C1103 C1108 1.350 . S
C1103 N1111 1.427 . S
C1104 H1095 0.930 . S
C1104 C1102 1.378 . S
C1104 C1105 1.367 . S
C1105 C1104 1.367 . S
C1105 C1107 1.433 . S
C1106 C1102 1.350 . S
C1106 C1103 1.463 . S
C1106 N1110 1.427 . S
C1107 H1097 0.929 . S
C1107 C1105 1.433 . S
C1107 N1110 1.384 . S
C1108 H1099 0.929 . S
C1108 C1100 1.378 . S
C1108 C1103 1.350 . S
C1109 H1096 0.929 . S
C1109 C1101 1.433 . S
C1109 N1111 1.384 . S
N1110 C1106 1.427 . S
N1110 C1107 1.384 . S
N1111 C1103 1.427 . S
N1111 C1109 1.384 . S
H1112 C1118 0.930 . S
H1113 C1122 0.930 . S
H1114 C1127 0.929 . S
H1115 C1125 0.929 . S
H1116 C1120 0.929 . S
H1117 C1126 0.929 . S
C1118 H1112 0.930 . S
C1118 C1119 1.367 . S
C1118 C1126 1.378 . S
C1119 C1118 1.367 . S
C1119 C1127 1.433 . S
C1120 H1116 0.929 . S
C1120 C1122 1.378 . S
C1120 C1124 1.350 . S
C1121 C1124 1.463 . S
C1121 C1126 1.350 . S
C1121 N1129 1.427 . S
C1122 H1113 0.930 . S
C1122 C1120 1.378 . S
C1122 C1123 1.367 . S
C1123 C1122 1.367 . S
C1123 C1125 1.433 . S
C1124 C1120 1.350 . S
C1124 C1121 1.463 . S
C1124 N1128 1.427 . S
C1125 H1115 0.929 . S
C1125 C1123 1.433 . S
C1125 N1128 1.384 . S
C1126 H1117 0.929 . S
C1126 C1118 1.378 . S
C1126 C1121 1.350 . S
C1127 H1114 0.929 . S
C1127 C1119 1.433 . S
C1127 N1129 1.384 . S
N1128 C1124 1.427 . S
N1128 C1125 1.384 . S
N1129 C1121 1.427 . S
N1129 C1127 1.384 . S
H1130 C1136 0.930 . S
H1131 C1140 0.930 . S
H1132 C1145 0.929 . S
H1133 C1143 0.929 . S
H1134 C1138 0.929 . S
H1135 C1144 0.929 . S
C1136 H1130 0.930 . S
C1136 C1137 1.367 . S
C1136 C1144 1.378 . S
C1137 C1136 1.367 . S
C1137 C1145 1.433 . S
C1138 H1134 0.929 . S
C1138 C1140 1.378 . S
C1138 C1142 1.350 . S
C1139 C1142 1.463 . S
C1139 C1144 1.350 . S
C1139 N1147 1.427 . S
C1140 H1131 0.930 . S
C1140 C1138 1.378 . S
C1140 C1141 1.367 . S
C1141 C1140 1.367 . S
C1141 C1143 1.433 . S
C1142 C1138 1.350 . S
C1142 C1139 1.463 . S
C1142 N1146 1.427 . S
C1143 H1133 0.929 . S
C1143 C1141 1.433 . S
C1143 N1146 1.384 . S
C1144 H1135 0.929 . S
C1144 C1136 1.378 . S
C1144 C1139 1.350 . S
C1145 H1132 0.929 . S
C1145 C1137 1.433 . S
C1145 N1147 1.384 . S
N1146 C1142 1.427 . S
N1146 C1143 1.384 . S
N1147 C1139 1.427 . S
N1147 C1145 1.384 . S
H1148 C1154 0.930 . S
H1149 C1158 0.930 . S
H1150 C1163 0.929 . S
H1151 C1161 0.929 . S
H1152 C1156 0.929 . S
H1153 C1162 0.929 . S
C1154 H1148 0.930 . S
C1154 C1155 1.367 . S
C1154 C1162 1.378 . S
C1155 C1154 1.367 . S
C1155 C1163 1.433 . S
C1156 H1152 0.929 . S
C1156 C1158 1.378 . S
C1156 C1160 1.350 . S
C1157 C1160 1.463 . S
C1157 C1162 1.350 . S
C1157 N1165 1.427 . S
C1158 H1149 0.930 . S
C1158 C1156 1.378 . S
C1158 C1159 1.367 . S
C1159 C1158 1.367 . S
C1159 C1161 1.433 . S
C1160 C1156 1.350 . S
C1160 C1157 1.463 . S
C1160 N1164 1.427 . S
C1161 H1151 0.929 . S
C1161 C1159 1.433 . S
C1161 N1164 1.384 . S
C1162 H1153 0.929 . S
C1162 C1154 1.378 . S
C1162 C1157 1.350 . S
C1163 H1150 0.929 . S
C1163 C1155 1.433 . S
C1163 N1165 1.384 . S
N1164 C1160 1.427 . S
N1164 C1161 1.384 . S
N1165 C1157 1.427 . S
N1165 C1163 1.384 . S
H1166 C1172 0.930 . S
H1167 C1176 0.930 . S
H1168 C1181 0.929 . S
H1169 C1179 0.929 . S
H1170 C1174 0.929 . S
H1171 C1180 0.929 . S
C1172 H1166 0.930 . S
C1172 C1173 1.367 . S
C1172 C1180 1.378 . S
C1173 C1172 1.367 . S
C1173 C1181 1.433 . S
C1174 H1170 0.929 . S
C1174 C1176 1.378 . S
C1174 C1178 1.350 . S
C1175 C1178 1.463 . S
C1175 C1180 1.350 . S
C1175 N1183 1.427 . S
C1176 H1167 0.930 . S
C1176 C1174 1.378 . S
C1176 C1177 1.367 . S
C1177 C1176 1.367 . S
C1177 C1179 1.433 . S
C1178 C1174 1.350 . S
C1178 C1175 1.463 . S
C1178 N1182 1.427 . S
C1179 H1169 0.929 . S
C1179 C1177 1.433 . S
C1179 N1182 1.384 . S
C1180 H1171 0.929 . S
C1180 C1172 1.378 . S
C1180 C1175 1.350 . S
C1181 H1168 0.929 . S
C1181 C1173 1.433 . S
C1181 N1183 1.384 . S
N1182 C1178 1.427 . S
N1182 C1179 1.384 . S
N1183 C1175 1.427 . S
N1183 C1181 1.384 . S
C327 C12 1.012 . S
C331 C142 0.920 . S
C345 C32 1.012 . S
C349 C82 0.933 . S
C363 C102 0.940 . S
C367 C52 1.010 . S
C381 C72 0.995 . S
C385 C122 0.955 . S
C399 C224 0.921 . S
C403 C89 1.001 . S
C417 C169 0.991 . S
C421 C4 0.946 . S
C435 C204 0.930 . S
C439 C129 0.996 . S
C453 C44 0.920 . S
C457 C189 1.011 . S
C471 C182 0.955 . S
C475 C252 0.998 . S
C489 C212 1.013 . S
C493 C282 0.924 . S
C507 C272 1.007 . S
C511 C162 0.946 . S
C525 C232 1.013 . S
C529 C302 0.925 . S
C543 C289 1.007 . S
C547 C64 0.918 . S
C561 C244 0.918 . S
C565 C109 1.010 . S
C579 C24 0.949 . S
C583 C309 1.005 . S
C597 C149 1.011 . S
C601 C264 0.938 . S
C615 C278 0.505 . S
C619 C18 0.520 . S
C633 C238 0.532 . S
C637 C38 0.500 . S
C651 C258 0.515 . S
C655 C58 0.533 . S
C669 C218 0.525 . S
C673 C78 0.502 . S
C687 C99 0.503 . S
C691 C319 0.537 . S
C705 C199 0.536 . S
C709 C119 0.501 . S
C723 C139 0.536 . S
C727 C299 0.510 . S
C741 C159 0.530 . S
C745 C179 0.500 . S
C759 C19 1.530 . S
C763 C98 1.530 . S
C777 C39 1.519 . S
C781 C118 1.519 . S
C795 C138 1.528 . S
C799 C59 1.528 . S
C813 C79 1.518 . S
C817 C158 1.518 . S
C831 C219 1.527 . S
C835 C178 1.527 . S
C849 C239 1.536 . S
C853 C198 1.536 . S
C867 C259 1.520 . S
C871 C298 1.520 . S
C885 C318 1.533 . S
C889 C279 1.533 . S
C903 C2 1.570 . S
C907 C152 1.529 . S
C921 C22 1.562 . S
C925 C92 1.524 . S
C939 C112 1.510 1_556 S
C943 C42 1.578 . S
C957 C132 1.530 . S
C961 C62 1.569 1_554 S
C975 C229 1.510 . S
C979 C84 1.578 . S
C993 C164 1.562 . S
C997 C9 1.530 . S
C1011 C209 1.514 1_554 S
C1015 C124 1.580 . S
C1029 C49 1.514 . S
C1033 C184 1.580 1_556 S
C1047 C242 1.562 . S
C1051 C192 1.531 1_556 S
C1065 C292 1.529 . S
C1069 C202 1.562 1_554 S
C1083 C262 1.580 . S
C1087 C172 1.513 . S
C1101 C312 1.532 . S
C1105 C222 1.564 . S
C1119 C284 1.569 . S
C1123 C69 1.530 1_554 S
C1137 C104 1.561 1_556 S
C1141 C249 1.529 . S
C1155 C29 1.532 . S
C1159 C304 1.564 . S
C1173 C269 1.511 . S
C1177 C144 1.579 . S
