# Generated by pormake.
# Topology qtz-e, (6)-cn, num edge types: 1
# Building blocks:
#     Node 0, Type 0, BuildingBlock: HISSIN_clean_sbu_0, # of connection points: 6
#     Node 1, Type 0, BuildingBlock: HISSIN_clean_sbu_0, # of connection points: 6
#     Node 2, Type 0, BuildingBlock: HISSIN_clean_sbu_0, # of connection points: 6
#     Node 3, Type 0, BuildingBlock: HISSIN_clean_sbu_0, # of connection points: 6
#     Node 4, Type 0, BuildingBlock: HISSIN_clean_sbu_0, # of connection points: 6
#     Node 5, Type 0, BuildingBlock: HISSIN_clean_sbu_0, # of connection points: 6
#     Edge 6, Type (0, 0), BuildingBlock: UVAHIK_clean_linker_0, # of connection points: 2
#     Edge 7, Type (0, 0), BuildingBlock: UVAHIK_clean_linker_0, # of connection points: 2
#     Edge 8, Type (0, 0), BuildingBlock: UVAHIK_clean_linker_0, # of connection points: 2
#     Edge 9, Type (0, 0), BuildingBlock: UVAHIK_clean_linker_0, # of connection points: 2
#     Edge 10, Type (0, 0), BuildingBlock: UVAHIK_clean_linker_0, # of connection points: 2
#     Edge 11, Type (0, 0), BuildingBlock: UVAHIK_clean_linker_0, # of connection points: 2
#     Edge 12, Type (0, 0), BuildingBlock: UVAHIK_clean_linker_0, # of connection points: 2
#     Edge 13, Type (0, 0), BuildingBlock: UVAHIK_clean_linker_0, # of connection points: 2
#     Edge 14, Type (0, 0), BuildingBlock: UVAHIK_clean_linker_0, # of connection points: 2
#     Edge 15, Type (0, 0), BuildingBlock: UVAHIK_clean_linker_0, # of connection points: 2
#     Edge 16, Type (0, 0), BuildingBlock: UVAHIK_clean_linker_0, # of connection points: 2
#     Edge 17, Type (0, 0), BuildingBlock: UVAHIK_clean_linker_0, # of connection points: 2
#     Edge 18, Type (0, 0), BuildingBlock: UVAHIK_clean_linker_0, # of connection points: 2
#     Edge 19, Type (0, 0), BuildingBlock: UVAHIK_clean_linker_0, # of connection points: 2
#     Edge 20, Type (0, 0), BuildingBlock: UVAHIK_clean_linker_0, # of connection points: 2
#     Edge 21, Type (0, 0), BuildingBlock: UVAHIK_clean_linker_0, # of connection points: 2
#     Edge 22, Type (0, 0), BuildingBlock: UVAHIK_clean_linker_0, # of connection points: 2
#     Edge 23, Type (0, 0), BuildingBlock: UVAHIK_clean_linker_0, # of connection points: 2
# Relax obj value: 0.140
# Max RMSD: 0.198
# Mean RMSD: 0.198
data_MOF--net-qtz-e--node1-HISSIN_clean_sbu_0--edge1-UVAHIK_clean_linker_0
_symmetry_space_group_name_H-M    P1
_symmetry_Int_Tables_number       1
_symmetry_cell_setting            triclinic
loop_
_symmetry_equiv_pos_as_xyz
'x, y, z'
_cell_length_a     32.328959
_cell_length_b     32.202031
_cell_length_c     63.448636
_cell_angle_alpha  89.96183
_cell_angle_beta   89.991356
_cell_angle_gamma 119.98317
loop_
_atom_site_label
_atom_site_type_symbol
_atom_site_fract_x
_atom_site_fract_y
_atom_site_fract_z
_atom_type_partial_charge
Eu0 Eu 0.17806 0.45945 0.04957 0.0
Eu1 Eu 0.16959 0.35947 0.03098 0.0
C2 C 0.10224 0.39749 0.01479 0.0
C3 C 0.18943 0.55596 0.08751 0.0
C4 C 0.21128 0.54264 0.10316 0.0
C5 C 0.17683 0.60444 0.11318 0.0
C6 C 0.2159 0.56018 0.12372 0.0
C7 C 0.1725 0.58712 0.09262 0.0
C8 C 0.19828 0.59092 0.12901 0.0
C9 C 0.18167 0.53553 0.06617 0.0
O10 O 0.22841 0.42071 0.01272 0.0
O11 O 0.20438 0.47651 0.01598 0.0
C12 C 0.22858 0.45953 1.00609 0.0
O13 O 0.24596 0.46097 0.05861 0.0
O14 O 0.12584 0.28922 0.01634 0.0
O15 O 0.20043 0.31481 0.02328 0.0
O16 O 0.21996 0.38033 0.05854 0.0
C17 C 0.25112 0.42446 0.06403 0.0
O18 O 0.15324 0.40748 0.0765 0.0
O19 O 0.1164 0.33723 0.05773 0.0
O20 O 0.13077 0.38219 1.0085 0.0
O21 O 0.21806 0.53578 0.05714 0.0
O22 O 0.14221 0.49493 0.06355 0.0
O23 O 0.10688 0.41608 0.03358 0.0
C24 C 0.16948 0.27164 0.99167 0.0
C25 C 0.20583 0.30675 0.97902 0.0
C26 C 0.146 0.21526 0.96255 0.0
C27 C 0.21276 0.29598 0.95848 0.0
C28 C 0.13937 0.22596 0.98324 0.0
C29 C 0.18313 0.25006 0.95007 0.0
C30 C 0.16227 0.28289 0.01339 0.0
C31 C 0.12258 0.3614 0.07528 0.0
H32 H 0.22408 0.51811 0.09956 0.0
H33 H 0.16339 0.62846 0.11669 0.0
H34 H 0.23211 0.54869 0.1356 0.0
H35 H 0.15535 0.59759 0.08076 0.0
H36 H 0.22903 0.34253 0.98504 0.0
H37 H 0.12279 0.17954 0.95647 0.0
H38 H 0.24122 0.32368 0.94912 0.0
H39 H 0.11088 0.19853 0.99269 0.0
Eu40 Eu 0.7293 0.18061 0.38609 0.0
Eu41 Eu 0.81767 0.1705 0.36493 0.0
C42 C 0.71078 0.10405 0.35129 0.0
C43 C 0.64724 0.18967 0.42662 0.0
C44 C 0.65856 0.16897 0.44356 0.0
C45 C 0.61215 0.22104 0.45134 0.0
C46 C 0.64598 0.17354 0.46416 0.0
C47 C 0.6243 0.21602 0.43069 0.0
C48 C 0.6224 0.1994 0.46827 0.0
C49 C 0.65869 0.18358 0.40472 0.0
O50 O 0.81475 0.23004 0.34756 0.0
O51 O 0.73612 0.20804 0.35269 0.0
C52 C 0.77621 0.23122 0.34194 0.0
O53 O 0.79641 0.2478 0.39528 0.0
O54 O 0.84014 0.12485 0.34905 0.0
O55 O 0.89135 0.19968 0.35464 0.0
O56 O 0.85329 0.22526 0.39057 0.0
C57 C 0.83965 0.25459 0.39804 0.0
O58 O 0.76161 0.15953 0.41224 0.0
O59 O 0.7907 0.1197 0.39282 0.0
O60 O 0.75345 0.13286 0.34391 0.0
O61 O 0.69433 0.22083 0.39583 0.0
O62 O 0.65888 0.14399 0.40059 0.0
O63 O 0.70042 0.10826 0.37082 0.0
C64 C 0.89506 0.16756 0.32212 0.0
C65 C 0.87332 0.18562 0.30867 0.0
C66 C 0.94262 0.16629 0.29277 0.0
C67 C 0.88666 0.19473 0.28752 0.0
C68 C 0.92945 0.15751 0.31405 0.0
C69 C 0.92178 0.18561 0.27937 0.0
C70 C 0.88241 0.16075 0.34458 0.0
C71 C 0.77725 0.1291 0.41092 0.0
H72 H 0.67682 0.14894 0.44087 0.0
H73 H 0.59375 0.24092 0.45401 0.0
H74 H 0.65491 0.15702 0.47691 0.0
H75 H 0.61539 0.23237 0.41786 0.0
H76 H 0.84639 0.19323 0.31461 0.0
H77 H 0.97 0.15922 0.28694 0.0
H78 H 0.86952 0.209 0.27753 0.0
H79 H 0.94654 0.14355 0.32425 0.0
Eu80 Eu 0.53853 0.72699 0.71638 0.0
Eu81 Eu 0.63784 0.81944 0.69768 0.0
C82 C 0.60226 0.71383 0.6825 0.0
C83 C 0.44284 0.64104 0.75406 0.0
C84 C 0.45531 0.67673 0.76942 0.0
C85 C 0.39526 0.58044 0.78008 0.0
C86 C 0.43781 0.66431 0.79001 0.0
C87 C 0.41254 0.59292 0.75949 0.0
C88 C 0.40798 0.61595 0.79562 0.0
C89 C 0.46359 0.65331 0.73279 0.0
O90 O 0.57692 0.8153 0.67856 0.0
O91 O 0.52173 0.73542 0.68265 0.0
C92 C 0.53827 0.77615 0.67235 0.0
O93 O 0.53572 0.79244 0.72642 0.0
O94 O 0.7097 0.8467 0.68518 0.0
O95 O 0.68029 0.894 0.68772 0.0
O96 O 0.61506 0.85084 0.72373 0.0
C97 C 0.57129 0.83576 0.73033 0.0
O98 O 0.58863 0.756 0.74366 0.0
O99 O 0.65972 0.79082 0.72568 0.0
O100 O 0.61642 0.75721 0.67574 0.0
O101 O 0.4621 0.68847 0.72325 0.0
O102 O 0.5049 0.65587 0.73065 0.0
O103 O 0.58475 0.70103 0.70152 0.0
C104 C 0.72781 0.90346 0.65822 0.0
C105 C 0.69845 0.87499 0.64171 0.0
C106 C 0.77952 0.96321 0.63277 0.0
C107 C 0.70948 0.89062 0.62084 0.0
C108 C 0.76854 0.94744 0.65364 0.0
C109 C 0.74989 0.93515 0.61616 0.0
C110 C 0.71469 0.88832 0.68019 0.0
C111 C 0.63475 0.77246 0.74302 0.0
H112 H 0.47921 0.71409 0.76558 0.0
H113 H 0.37195 0.54295 0.78385 0.0
H114 H 0.44868 0.69243 0.80166 0.0
H115 H 0.40277 0.56491 0.74785 0.0
H116 H 0.66654 0.84107 0.64501 0.0
H117 H 0.81111 -0.00253 0.62964 0.0
H118 H 0.68561 0.8685 0.60844 0.0
H119 H 0.79148 0.96986 0.66622 0.0
Eu120 Eu 0.80194 0.53488 0.0519 0.0
Eu121 Eu 0.79966 0.63013 0.03357 0.0
C122 C 0.87403 0.60131 0.01692 0.0
C123 C 0.79936 0.44247 0.08979 0.0
C124 C 0.77581 0.45405 0.1053 0.0
C125 C 0.81444 0.39597 0.11564 0.0
C126 C 0.77159 0.43665 0.12588 0.0
C127 C 0.81843 0.41319 0.09506 0.0
C128 C 0.79123 0.40773 0.13133 0.0
C129 C 0.80643 0.46283 0.06845 0.0
O130 O 0.7439 0.56576 0.01579 0.0
O131 O 0.77549 0.5161 0.01838 0.0
C132 C 0.748 0.52955 1.0088 0.0
O133 O 0.73144 0.52642 0.06178 0.0
O134 O 0.83838 0.70175 0.01969 0.0
O135 O 0.76191 0.66755 0.0244 0.0
O136 O 0.7485 0.60483 0.06094 0.0
C137 C 0.72149 0.56 0.0669 0.0
O138 O 0.82246 0.5862 0.07888 0.0
O139 O 0.85279 0.65681 0.06044 0.0
O140 O 0.84229 0.61265 0.01089 0.0
O141 O 0.7686 0.45845 0.05899 0.0
O142 O 0.84334 0.50559 0.06616 0.0
O143 O 0.87176 0.58364 0.03574 0.0
C144 C 0.79312 0.71096 0.99309 0.0
C145 C 0.77662 0.67298 0.97865 0.0
C146 C 0.7977 0.76393 0.96478 0.0
C147 C 0.77006 0.68018 0.95751 0.0
C148 C 0.80393 0.75655 0.98604 0.0
C149 C 0.78029 0.72567 0.95034 0.0
C150 C 0.79937 0.70263 0.01534 0.0
C151 C 0.84945 0.63295 0.07781 0.0
H152 H 0.76132 0.47711 0.10157 0.0
H153 H 0.82947 0.37335 0.11926 0.0
H154 H 0.75401 0.44682 0.13763 0.0
H155 H 0.8369 0.40409 0.0833 0.0
H156 H 0.76871 0.63765 0.98377 0.0
H157 H 0.8056 0.79928 0.95972 0.0
H158 H 0.75728 0.65018 0.94674 0.0
H159 H 0.81693 0.7863 0.99696 0.0
Eu160 Eu 0.25773 0.81467 0.38398 0.0
Eu161 Eu 0.16416 0.81882 0.36498 0.0
C162 C 0.26922 0.89223 0.35096 0.0
C163 C 0.34495 0.81111 0.42307 0.0
C164 C 0.3365 0.83413 0.43998 0.0
C165 C 0.3786 0.77799 0.44769 0.0
C166 C 0.34957 0.82961 0.46049 0.0
C167 C 0.36591 0.78287 0.42712 0.0
C168 C 0.37087 0.80159 0.46459 0.0
C169 C 0.33179 0.81606 0.40129 0.0
O170 O 0.1712 0.76353 0.34598 0.0
O171 O 0.25116 0.79001 0.35017 0.0
C172 C 0.21092 0.76552 0.33968 0.0
O173 O 0.19372 0.74443 0.39292 0.0
O174 O 0.13622 0.86187 0.35101 0.0
O175 O 0.08973 0.78543 0.35521 0.0
O176 O 0.13309 0.76226 0.39019 0.0
C177 C 0.14974 0.73458 0.3966 0.0
O178 O 0.22486 0.83154 0.41125 0.0
O179 O 0.18884 0.86725 0.39366 0.0
O180 O 0.22695 0.86178 0.34369 0.0
O181 O 0.29667 0.77777 0.39279 0.0
O182 O 0.32935 0.85447 0.39718 0.0
O183 O 0.28098 0.88746 0.37016 0.0
C184 C 0.08171 0.81932 0.32395 0.0
C185 C 0.10591 0.80646 0.30933 0.0
C186 C 0.03017 0.81852 0.29593 0.0
C187 C 0.0919 0.79892 0.28824 0.0
C188 C 0.04407 0.82575 0.31714 0.0
C189 C 0.05357 0.80439 0.28133 0.0
C190 C 0.09521 0.82439 0.3463 0.0
C191 C 0.20587 0.85923 0.41108 0.0
H192 H 0.31986 0.8557 0.43737 0.0
H193 H 0.39524 0.75641 0.45033 0.0
H194 H 0.34254 0.84769 0.4732 0.0
H195 H 0.37261 0.76471 0.41434 0.0
H196 H 0.13531 0.80167 0.31431 0.0
H197 H 0.00031 0.82265 0.29108 0.0
H198 H 0.11103 0.78869 0.27733 0.0
H199 H 0.02503 0.83565 0.32826 0.0
Eu200 Eu 0.43962 0.26206 0.71861 0.0
Eu201 Eu 0.34211 0.16943 0.69912 0.0
C202 C 0.37661 0.27505 0.68445 0.0
C203 C 0.5336 0.34856 0.75695 0.0
C204 C 0.52452 0.3125 0.77173 0.0
C205 C 0.57849 0.40889 0.78344 0.0
C206 C 0.54239 0.32462 0.79227 0.0
C207 C 0.56089 0.39674 0.7629 0.0
C208 C 0.56914 0.37298 0.79842 0.0
C209 C 0.51243 0.33651 0.73575 0.0
O210 O 0.40386 0.17531 0.68004 0.0
O211 O 0.45837 0.25517 0.68501 0.0
C212 C 0.44272 0.21496 0.67439 0.0
O213 O 0.44512 0.19762 0.72783 0.0
O214 O 0.27214 0.14328 0.68449 0.0
O215 O 0.29846 0.09429 0.6905 0.0
O216 O 0.36677 0.13722 0.72411 0.0
C217 C 0.4106 0.15328 0.73089 0.0
O218 O 0.38947 0.22809 0.74564 0.0
O219 O 0.31896 0.19567 0.7275 0.0
O220 O 0.36376 0.23218 0.67747 0.0
O221 O 0.51593 0.30321 0.72554 0.0
O222 O 0.47004 0.33167 0.73409 0.0
O223 O 0.39258 0.28704 0.70372 0.0
C224 C 0.25599 0.08395 0.659 0.0
C225 C 0.29291 0.08918 0.64562 0.0
C226 C 0.19934 0.04663 0.63036 0.0
C227 C 0.28298 0.07237 0.62494 0.0
C228 C 0.20925 0.06305 0.65119 0.0
C229 C 0.23606 0.05057 0.61714 0.0
C230 C 0.2664 0.1008 0.68094 0.0
C231 C 0.34321 0.21082 0.7452 0.0
H232 H 0.50297 0.27502 0.76748 0.0
H233 H 0.59941 0.44644 0.78762 0.0
H234 H 0.53417 0.29616 0.8035 0.0
H235 H 0.56802 0.42502 0.75172 0.0
H236 H 0.32942 0.10596 0.65121 0.0
H237 H 0.16285 0.02979 0.62475 0.0
H238 H 0.31204 0.07644 0.615 0.0
H239 H 0.18041 0.05911 0.66125 0.0
C240 C 0.25253 0.74666 0.31082 0.0
C241 C 0.2106 0.74321 0.31917 0.0
C242 C 0.25259 0.72907 0.29062 0.0
C243 C 0.18773 0.70214 0.24024 0.0
H244 H 0.2497 0.62851 0.2276 0.0
C245 C 0.16173 0.60822 0.16026 0.0
C246 C 0.20112 0.60795 0.15104 0.0
C247 C 0.16417 0.62441 0.18089 0.0
C248 C 0.23276 0.64957 0.23079 0.0
H249 H 0.13553 0.71736 0.3129 0.0
H250 H 0.13579 0.68691 0.27793 0.0
H251 H 0.252 0.65706 0.26351 0.0
H252 H 0.27406 0.62457 0.1563 0.0
H253 H 0.27863 0.65354 0.19228 0.0
H254 H 0.16887 0.69533 0.20764 0.0
C255 C 0.16873 0.70359 0.28688 0.0
C256 C 0.23402 0.66584 0.25139 0.0
C257 C 0.16857 0.72082 0.30704 0.0
C258 C 0.24296 0.62394 0.16303 0.0
C259 C 0.24551 0.64045 0.18367 0.0
C260 C 0.18671 0.68618 0.21968 0.0
C261 C 0.21083 0.70805 0.27831 0.0
C262 C 0.21109 0.69189 0.25637 0.0
C263 C 0.20618 0.64107 0.19284 0.0
C264 C 0.20879 0.65927 0.2147 0.0
H265 H 0.28557 0.76385 0.31968 0.0
H266 H 0.28566 0.73325 0.2844 0.0
H267 H 0.17052 0.72295 0.24347 0.0
H268 H 0.12867 0.59527 0.15159 0.0
H269 H 0.1328 0.62332 0.18755 0.0
C270 C 0.45634 0.17164 0.64476 0.0
C271 C 0.46689 0.21504 0.65452 0.0
C272 C 0.47681 0.17162 0.62534 0.0
C273 C 0.52658 0.24387 0.57768 0.0
H274 H 0.57812 0.15998 0.56707 0.0
C275 C 0.61548 0.24689 0.49812 0.0
C276 C 0.60768 0.2029 0.49009 0.0
C277 C 0.60114 0.24991 0.51861 0.0
C278 C 0.56332 0.18319 0.56964 0.0
H279 H 0.50738 0.29251 0.65149 0.0
H280 H 0.54279 0.29235 0.61749 0.0
H281 H 0.54792 0.16208 0.60204 0.0
H282 H 0.57808 0.12745 0.49713 0.0
H283 H 0.55197 0.13228 0.53258 0.0
H284 H 0.5405 0.26405 0.54523 0.0
C285 C 0.51875 0.25838 0.62494 0.0
C286 C 0.5462 0.1845 0.58973 0.0
C287 C 0.49874 0.25844 0.64449 0.0
C288 C 0.58518 0.16199 0.50298 0.0
C289 C 0.57038 0.16487 0.52337 0.0
C290 C 0.54321 0.2422 0.55752 0.0
C291 C 0.50781 0.21497 0.6151 0.0
C292 C 0.5275 0.21473 0.59396 0.0
C293 C 0.57814 0.20887 0.5315 0.0
C294 C 0.56165 0.21168 0.55317 0.0
H295 H 0.43187 0.13757 0.65202 0.0
H296 H 0.46735 0.13759 0.61806 0.0
H297 H 0.5118 0.26708 0.58039 0.0
H298 H 0.63325 0.27914 0.48864 0.0
H299 H 0.60855 0.28459 0.5244 0.0
C300 C 0.27667 0.46196 0.97466 0.0
C301 C 0.25273 0.48137 0.98586 0.0
C302 C 0.29528 0.479 0.95461 0.0
C303 C 0.33307 0.58064 0.91797 0.0
H304 H 0.30649 0.48439 0.87527 0.0
C305 C 0.37437 0.6281 0.82935 0.0
C306 C 0.39116 0.60237 0.81771 0.0
C307 C 0.35818 0.6148 0.85007 0.0
C308 C 0.31487 0.51184 0.88702 0.0
H309 H 0.23108 0.53519 0.98493 0.0
H310 H 0.26402 0.5652 0.94991 0.0
H311 H 0.27857 0.4596 0.91117 0.0
H312 H 0.40555 0.5435 0.81894 0.0
H313 H 0.37804 0.52072 0.85505 0.0
H314 H 0.36981 0.63294 0.89384 0.0
C315 C 0.26833 0.53675 0.95673 0.0
C316 C 0.29875 0.49757 0.90762 0.0
C317 C 0.24939 0.51948 0.97679 0.0
C318 C 0.39198 0.56349 0.82734 0.0
C319 C 0.37611 0.55039 0.84806 0.0
C320 C 0.3495 0.59498 0.89735 0.0
C321 C 0.29071 0.51608 0.94527 0.0
C322 C 0.30781 0.53176 0.92337 0.0
C323 C 0.35868 0.57564 0.85968 0.0
C324 C 0.34076 0.56073 0.88161 0.0
H325 H 0.28028 0.43284 0.98116 0.0
H326 H 0.31303 0.46286 0.94633 0.0
H327 H 0.34092 0.60784 0.9298 0.0
H328 H 0.3729 0.65798 0.8223 0.0
H329 H 0.34444 0.6347 0.85842 0.0
C330 C 0.81974 0.27801 0.30987 0.0
C331 C 0.77729 0.25494 0.32171 0.0
C332 C 0.82019 0.29587 0.28977 0.0
C333 C 0.7548 0.33289 0.25376 0.0
H334 H 0.82292 0.30587 0.21055 0.0
C335 C 0.74622 0.37336 0.1652 0.0
C336 C 0.7885 0.39071 0.15338 0.0
C337 C 0.74379 0.35712 0.18589 0.0
C338 C 0.80423 0.31432 0.22245 0.0
H339 H 0.70222 0.23391 0.32182 0.0
H340 H 0.70314 0.26553 0.28665 0.0
H341 H 0.82086 0.27828 0.24644 0.0
H342 H 0.86179 0.4059 0.15431 0.0
H343 H 0.8578 0.37813 0.19034 0.0
H344 H 0.73851 0.36931 0.22974 0.0
C345 C 0.73611 0.26982 0.29305 0.0
C346 C 0.803 0.29841 0.24305 0.0
C347 C 0.73559 0.25167 0.3132 0.0
C348 C 0.82841 0.39191 0.16282 0.0
C349 C 0.82607 0.37591 0.1835 0.0
C350 C 0.7562 0.34904 0.23312 0.0
C351 C 0.77826 0.29134 0.28096 0.0
C352 C 0.77853 0.30774 0.25899 0.0
C353 C 0.78367 0.35804 0.19529 0.0
C354 C 0.78118 0.34018 0.21722 0.0
H355 H 0.85265 0.28141 0.31589 0.0
H356 H 0.85344 0.31299 0.28104 0.0
H357 H 0.73597 0.34099 0.26573 0.0
H358 H 0.71469 0.37152 0.15831 0.0
H359 H 0.71037 0.34303 0.19437 0.0
C360 C 0.52763 0.82125 0.64257 0.0
C361 C 0.51548 0.77728 0.65224 0.0
C362 C 0.50865 0.82239 0.62291 0.0
C363 C 0.45972 0.75138 0.57481 0.0
H364 H 0.41394 0.83975 0.56328 0.0
C365 C 0.37531 0.75279 0.49455 0.0
C366 C 0.38535 0.79745 0.48639 0.0
C367 C 0.38881 0.74903 0.51511 0.0
C368 C 0.42715 0.81527 0.56611 0.0
H369 H 0.47355 0.69999 0.64882 0.0
H370 H 0.44062 0.70209 0.61444 0.0
H371 H 0.44147 0.83574 0.5986 0.0
H372 H 0.41823 0.87332 0.49325 0.0
H373 H 0.44275 0.8671 0.52886 0.0
H374 H 0.44668 0.73168 0.54228 0.0
C375 C 0.46486 0.73564 0.62212 0.0
C376 C 0.44275 0.81287 0.58641 0.0
C377 C 0.48343 0.73448 0.64189 0.0
C378 C 0.40939 0.8383 0.4992 0.0
C379 C 0.42328 0.83464 0.51967 0.0
C380 C 0.44454 0.75407 0.55446 0.0
C381 C 0.47748 0.77962 0.61235 0.0
C382 C 0.45936 0.78103 0.59097 0.0
C383 C 0.41311 0.78994 0.52796 0.0
C384 C 0.42821 0.7862 0.54979 0.0
H385 H 0.55229 0.8549 0.65007 0.0
H386 H 0.51942 0.85684 0.61572 0.0
H387 H 0.47292 0.72693 0.57776 0.0
H388 H 0.35631 0.72058 0.48515 0.0
H389 H 0.37961 0.71389 0.52101 0.0
C390 C 0.69763 0.52345 0.97769 0.0
C391 C 0.72485 0.50717 0.98849 0.0
C392 C 0.67974 0.50633 0.95759 0.0
C393 C 0.6501 0.40813 0.92002 0.0
H394 H 0.66632 0.50357 0.8785 0.0
C395 C 0.60694 0.36289 0.83128 0.0
C396 C 0.58623 0.38613 0.82049 0.0
C397 C 0.62366 0.37609 0.85194 0.0
C398 C 0.66087 0.47629 0.88992 0.0
H399 H 0.75333 0.45889 0.98675 0.0
H400 H 0.7216 0.42865 0.95159 0.0
H401 H 0.69458 0.52837 0.91433 0.0
H402 H 0.56531 0.44021 0.82318 0.0
H403 H 0.59372 0.46274 0.85917 0.0
H404 H 0.61587 0.35594 0.89562 0.0
C405 C 0.71415 0.45469 0.9588 0.0
C406 C 0.67719 0.49057 0.91048 0.0
C407 C 0.73236 0.47207 0.97894 0.0
C408 C 0.58193 0.42227 0.83091 0.0
C409 C 0.59833 0.43523 0.85156 0.0
C410 C 0.63347 0.39375 0.89942 0.0
C411 C 0.68837 0.4723 0.94776 0.0
C412 C 0.67173 0.45667 0.92581 0.0
C413 C 0.61979 0.41264 0.86231 0.0
C414 C 0.63837 0.42765 0.88414 0.0
H415 H 0.69088 0.5503 0.98455 0.0
H416 H 0.65935 0.52003 0.94966 0.0
H417 H 0.64509 0.38113 0.93152 0.0
H418 H 0.61109 0.33516 0.8236 0.0
H419 H 0.64047 0.35829 0.85961 0.0
C420 C 0.30207 0.39613 0.08161 0.0
C421 C 0.29499 0.43397 0.07532 0.0
C422 C 0.34606 0.4056 0.08981 0.0
C423 C 0.46553 0.50458 0.10747 0.0
H424 H 0.51081 0.42902 0.07845 0.0
C425 C 0.65821 0.57714 0.07965 0.0
C426 C 0.67637 0.54569 0.07821 0.0
C427 C 0.61204 0.56083 0.08724 0.0
C428 C 0.49867 0.44987 0.08715 0.0
H429 H 0.32739 0.51145 0.0741 0.0
H430 H 0.4041 0.52782 0.08766 0.0
H431 H 0.42666 0.40373 0.0776 0.0
H432 H 0.66221 0.47385 0.08555 0.0
H433 H 0.58179 0.44559 0.09879 0.0
H434 H 0.5386 0.55242 0.11581 0.0
C435 C 0.37571 0.49083 0.08666 0.0
C436 C 0.4502 0.43527 0.0867 0.0
C437 C 0.33171 0.4814 0.07863 0.0
C438 C 0.64893 0.49876 0.08607 0.0
C439 C 0.60287 0.48253 0.09368 0.0
C440 C 0.51421 0.51938 0.10781 0.0
C441 C 0.38393 0.45307 0.09172 0.0
C442 C 0.43327 0.46336 0.09618 0.0
C443 C 0.58328 0.51283 0.09357 0.0
C444 C 0.53142 0.49299 0.09703 0.0
H445 H 0.27424 0.35917 0.07956 0.0
H446 H 0.35095 0.37569 0.09394 0.0
H447 H 0.45348 0.52651 0.1153 0.0
H448 H 0.67854 0.61358 0.07385 0.0
H449 H 0.59784 0.58498 0.08681 0.0
C450 C 0.06844 0.66478 0.40264 0.0
C451 C 0.11733 0.6892 0.40733 0.0
C452 C 0.03893 0.61849 0.4103 0.0
C453 C 0.97815 0.52267 0.43058 0.0
H454 H 0.03658 0.44302 0.42806 0.0
C455 C 0.85984 0.31992 0.42403 0.0
C456 C 0.87479 0.29871 0.40877 0.0
C457 C 0.89167 0.36543 0.43188 0.0
C458 C 0.01957 0.46464 0.42877 0.0
H459 H 0.17316 0.68659 0.42516 0.0
H460 H 0.12126 0.60665 0.43941 0.0
H461 H 0.0865 0.52931 0.42647 0.0
H462 H 0.93499 0.3068 0.39054 0.0
H463 H 0.98983 0.38698 0.40318 0.0
H464 H 0.91098 0.45807 0.43061 0.0
C465 C 0.10589 0.62216 0.4291 0.0
C466 C 0.04838 0.51444 0.42825 0.0
C467 C 0.13561 0.66806 0.42103 0.0
C468 C 0.92267 0.32239 0.40237 0.0
C469 C 0.95422 0.36837 0.4098 0.0
C470 C 0.94929 0.47289 0.43059 0.0
C471 C 0.05752 0.59603 0.42319 0.0
C472 C 0.0279 0.54409 0.42826 0.0
C473 C 0.93873 0.39117 0.42416 0.0
C474 C 0.96954 0.44319 0.42879 0.0
H475 H 0.0535 0.68023 0.39204 0.0
H476 H 0.00216 0.5995 0.40506 0.0
H477 H 0.96114 0.5443 0.43131 0.0
H478 H 0.82315 0.30188 0.42947 0.0
H479 H 0.87876 0.3811 0.44337 0.0
C480 C 0.46074 0.13638 0.75548 0.0
C481 C 0.42228 0.11964 0.74137 0.0
C482 C 0.47509 0.10515 0.76353 0.0
C483 C 0.52208 0.04466 0.76332 0.0
H484 H 0.43774 0.90708 0.76259 0.0
C485 C 0.58664 0.9186 0.73629 0.0
C486 C 0.56078 0.86969 0.74128 0.0
C487 C 0.57217 0.94982 0.74406 0.0
C488 C 0.46209 0.94532 0.76345 0.0
H489 H 0.3674 0.05706 0.72521 0.0
H490 H 0.39372 0.00332 0.73809 0.0
H491 H 0.40413 0.95924 0.76374 0.0
H492 H 0.50236 0.81554 0.75979 0.0
H493 H 0.47853 0.87047 0.77438 0.0
H494 H 0.58005 0.03074 0.76379 0.0
C495 C 0.41205 0.0399 0.74376 0.0
C496 C 0.44263 0.97543 0.76368 0.0
C497 C 0.39707 0.07085 0.73615 0.0
C498 C 0.5224 0.85309 0.75544 0.0
C499 C 0.50863 0.88457 0.76368 0.0
C500 C 0.54156 0.01454 0.76371 0.0
C501 C 0.45199 0.05681 0.75717 0.0
C502 C 0.47231 0.02545 0.76234 0.0
C503 C 0.53212 0.93303 0.75743 0.0
C504 C 0.51187 0.9645 0.7625 0.0
H505 H 0.48031 0.17382 0.76001 0.0
H506 H 0.50515 0.11932 0.77423 0.0
H507 H 0.5464 0.08291 0.76239 0.0
H508 H 0.61627 0.93227 0.72531 0.0
H509 H 0.59088 0.9865 0.73849 0.0
C510 C 0.57527 0.67438 0.64756 0.0
C511 C 0.59477 0.67595 0.66754 0.0
C512 C 0.55523 0.63211 0.63573 0.0
C513 C 0.47367 0.52786 0.634 0.0
H514 H 0.51633 0.43479 0.63495 0.0
C515 C 0.38186 0.35307 0.67667 0.0
C516 C 0.38457 0.31333 0.66958 0.0
C517 C 0.40035 0.39449 0.66443 0.0
C518 C 0.50378 0.46025 0.63385 0.0
H519 H 0.61346 0.63729 0.6899 0.0
H520 H 0.58 0.56413 0.66907 0.0
H521 H 0.57506 0.52012 0.63423 0.0
H522 H 0.40552 0.28402 0.64361 0.0
H523 H 0.43965 0.35749 0.62247 0.0
H524 H 0.40252 0.46807 0.63604 0.0
C525 C 0.57973 0.59506 0.6625 0.0
C526 C 0.53747 0.5091 0.63352 0.0
C527 C 0.59863 0.63677 0.67452 0.0
C528 C 0.40269 0.3142 0.64934 0.0
C529 C 0.42227 0.35614 0.63726 0.0
C530 C 0.44 0.47902 0.63456 0.0
C531 C 0.5556 0.59148 0.64355 0.0
C532 C 0.52267 0.5432 0.6351 0.0
C533 C 0.42285 0.3972 0.64509 0.0
C534 C 0.45496 0.44502 0.63597 0.0
H535 H 0.57154 0.70415 0.64197 0.0
H536 H 0.5366 0.63009 0.62124 0.0
H537 H 0.46124 0.55339 0.63526 0.0
H538 H 0.36806 0.35313 0.69223 0.0
H539 H 0.40088 0.42579 0.67101 0.0
C540 C 0.08928 0.42314 0.97959 0.0
C541 C 0.07148 0.40357 0.99959 0.0
C542 C 0.06589 0.44137 0.96739 0.0
C543 C 0.03837 0.51961 0.96448 0.0
H544 H 0.90179 0.47031 0.96553 0.0
C545 C 0.94968 0.6037 1.00766 0.0
C546 C 0.90541 0.59733 1.0013 0.0
C547 C 0.97412 0.58797 0.99487 0.0
C548 C 0.94 0.48474 0.96436 0.0
H549 H 0.01355 0.38311 0.0217 0.0
H550 H 0.97189 0.41336 1.00026 0.0
H551 H 0.93212 0.41465 0.96515 0.0
H552 H 0.8534 0.57313 0.97602 0.0
H553 H 0.89555 0.54385 0.95387 0.0
H554 H 0.04622 0.58963 0.9661 0.0
C555 C 0.00381 0.41503 0.99393 0.0
C556 C 0.95731 0.45277 0.96425 0.0
C557 C 0.02774 0.39798 1.0063 0.0
C558 C 0.88778 0.57874 0.98117 0.0
C559 C 0.91176 0.56192 0.96853 0.0
C560 C 0.02105 0.55158 0.96479 0.0
C561 C 0.0239 0.43908 0.97488 0.0
C562 C 0.00656 0.47 0.9659 0.0
C563 C 0.95412 0.56457 0.9757 0.0
C564 C 0.97176 0.53426 0.96633 0.0
H565 H 0.12334 0.42822 0.97423 0.0
H566 H 0.08219 0.46002 0.95284 0.0
H567 H 0.07655 0.53391 0.96575 0.0
H568 H 0.96384 0.61794 0.02314 0.0
H569 H 0.00637 0.58998 1.00097 0.0
C570 C 0.34628 0.96625 0.34396 0.0
C571 C 0.30751 0.92373 0.33641 0.0
C572 C 0.38818 0.98998 0.33219 0.0
C573 C 0.4746 0.03596 0.30358 0.0
H574 H 0.51553 0.94142 0.30354 0.0
C575 C 0.66964 0.09351 0.3169 0.0
C576 C 0.67136 0.07511 0.33678 0.0
C577 C 0.62714 0.07238 0.30534 0.0
C578 C 0.50458 0.96817 0.30279 0.0
H579 H 0.28027 0.87437 0.31006 0.0
H580 H 0.35457 0.91515 0.28974 0.0
H581 H 0.43053 0.9151 0.30327 0.0
H582 H 0.63232 0.01813 0.35928 0.0
H583 H 0.55864 0.98031 0.33887 0.0
H584 H 0.54867 0.0889 0.30514 0.0
C585 C 0.35213 0.93058 0.30453 0.0
C586 C 0.45594 0.95318 0.30252 0.0
C587 C 0.30971 0.9074 0.31613 0.0
C588 C 0.63171 0.03282 0.34398 0.0
C589 C 0.58973 0.01108 0.33222 0.0
C590 C 0.52327 0.05097 0.30359 0.0
C591 C 0.39233 0.97093 0.31289 0.0
C592 C 0.44064 0.9869 0.30447 0.0
C593 C 0.58637 0.03193 0.31329 0.0
C594 C 0.53845 0.01705 0.30473 0.0
H595 H 0.34529 0.97941 0.35956 0.0
H596 H 0.41877 0.02066 0.33916 0.0
H597 H 0.46361 0.06259 0.30496 0.0
H598 H 0.69976 0.12645 0.31113 0.0
H599 H 0.62526 0.08923 0.29086 0.0
C600 C 0.26935 0.19062 0.76643 0.0
C601 C 0.31878 0.20785 0.76539 0.0
C602 C 0.24737 0.18797 0.78587 0.0
C603 C 0.26688 0.18463 0.84324 0.0
H604 H 0.18104 0.23516 0.84979 0.0
C605 C 0.23877 0.25124 0.92246 0.0
C606 C 0.19213 0.2384 0.92856 0.0
C607 C 0.24791 0.24085 0.90224 0.0
C608 C 0.20437 0.22023 0.84813 0.0
H609 H 0.38379 0.23617 0.78399 0.0
H610 H 0.34586 0.23187 0.81737 0.0
H611 H 0.20805 0.22855 0.8145 0.0
H612 H 0.11846 0.20489 0.91827 0.0
H613 H 0.13465 0.18706 0.88258 0.0
H614 H 0.26468 0.17789 0.87682 0.0
C615 C 0.32377 0.21964 0.80337 0.0
C616 C 0.21976 0.21638 0.82795 0.0
C617 C 0.34561 0.22244 0.78411 0.0
C618 C 0.15471 0.21491 0.91399 0.0
C619 C 0.16398 0.20501 0.89358 0.0
C620 C 0.25176 0.1887 0.86332 0.0
C621 C 0.27442 0.20213 0.80456 0.0
C622 C 0.25231 0.19984 0.82538 0.0
C623 C 0.21069 0.21771 0.88757 0.0
C624 C 0.22141 0.20775 0.86604 0.0
H625 H 0.24769 0.17916 0.7523 0.0
H626 H 0.20922 0.17429 0.78631 0.0
H627 H 0.29106 0.17067 0.84175 0.0
H628 H 0.26824 0.26905 0.93341 0.0
H629 H 0.28435 0.25157 0.89797 0.0
C630 C 0.94394 0.16602 0.24424 0.0
C631 C 0.93757 0.19785 0.25714 0.0
C632 C 0.95858 0.17791 0.22326 0.0
C633 C 0.96903 0.26243 0.18065 0.0
H634 H 0.06201 0.23269 0.15721 0.0
C635 C 0.08974 0.36352 0.11055 0.0
C636 C 0.09504 0.33671 0.09439 0.0
C637 C 0.06519 0.34124 0.12899 0.0
C638 C 0.03551 0.24059 0.16346 0.0
H639 H 0.94269 0.26753 0.25835 0.0
H640 H 0.96913 0.28875 0.2221 0.0
H641 H 0.02979 0.20407 0.19245 0.0
H642 H 0.07868 0.26545 0.08487 0.0
H643 H 0.03639 0.22644 0.11757 0.0
H644 H 0.97649 0.30076 0.15199 0.0
C645 C 0.96146 0.25394 0.22785 0.0
C646 C 0.01695 0.22416 0.18363 0.0
C647 C 0.94648 0.24189 0.2487 0.0
C648 C 0.07499 0.28696 0.09703 0.0
C649 C 0.05104 0.26472 0.11573 0.0
C650 C 0.98798 0.27927 0.16063 0.0
C651 C 0.96753 0.22207 0.2148 0.0
C652 C 0.98416 0.23569 0.19264 0.0
C653 C 0.04593 0.29174 0.13186 0.0
C654 C 0.02201 0.26924 0.152 0.0
H655 H 0.93691 0.13162 0.25029 0.0
H656 H 0.96236 0.15226 0.21363 0.0
H657 H 0.94292 0.27096 0.18682 0.0
H658 H 0.10461 0.4019 0.10898 0.0
H659 H 0.0622 0.363 0.14126 0.0
C660 C 0.77296 0.00094 0.58973 0.0
C661 C 0.75987 0.95317 0.59413 0.0
C662 C 0.7805 0.0177 0.569 0.0
C663 C 0.75113 0.9761 0.51386 0.0
H664 H 0.84632 0.10815 0.50195 0.0
C665 C 0.78329 0.06423 0.43049 0.0
C666 C 0.78119 0.10679 0.43064 0.0
C667 C 0.7854 0.04311 0.44951 0.0
C668 C 0.81972 0.07113 0.50504 0.0
H669 H 0.7454 0.88573 0.58023 0.0
H670 H 0.75917 0.91519 0.54394 0.0
H671 H 0.84204 0.07542 0.53705 0.0
H672 H 0.7808 0.16114 0.45076 0.0
H673 H 0.7853 0.12489 0.48362 0.0
H674 H 0.72881 0.9723 0.48172 0.0
C675 C 0.76283 0.93949 0.55653 0.0
C676 C 0.81703 0.05242 0.52517 0.0
C677 C 0.75501 0.92263 0.57731 0.0
C678 C 0.78217 0.12823 0.45006 0.0
C679 C 0.7851 0.10768 0.46892 0.0
C680 C 0.75417 -0.00525 0.49362 0.0
C681 C 0.77545 0.98722 0.55211 0.0
C682 C 0.78183 0.0051 0.53002 0.0
C683 C 0.7865 0.06484 0.46887 0.0
C684 C 0.78767 0.04282 0.48921 0.0
H685 H 0.77613 0.02512 0.60229 0.0
H686 H 0.78908 0.05433 0.56621 0.0
H687 H 0.72333 0.93963 0.51706 0.0
H688 H 0.78245 0.04686 0.41576 0.0
H689 H 0.78646 0.01002 0.44909 0.0
C690 C 0.70705 0.79901 0.76617 0.0
C691 C 0.65797 0.76883 0.76247 0.0
C692 C 0.72747 0.79602 0.78523 0.0
C693 C 0.70917 0.71391 0.82898 0.0
H694 H 0.77633 0.82713 0.86395 0.0
C695 C 0.72972 0.69873 0.91783 0.0
C696 C 0.77184 0.73262 0.92793 0.0
C697 C 0.72157 0.70453 0.89672 0.0
C698 C 0.75847 0.79528 0.85427 0.0
H699 H 0.59216 0.71103 0.77553 0.0
H700 H 0.62782 0.70538 0.80831 0.0
H701 H 0.75352 0.83469 0.82801 0.0
H702 H 0.83863 0.79912 0.92377 0.0
H703 H 0.82472 0.80905 0.88669 0.0
H704 H 0.71366 0.67427 0.85502 0.0
C705 C 0.6505 0.73148 0.79665 0.0
C706 C 0.74542 0.79968 0.83369 0.0
C707 C 0.63005 0.73501 0.77791 0.0
C708 C 0.80562 0.77264 0.91645 0.0
C709 C 0.79762 0.77831 0.89521 0.0
C710 C 0.72258 0.70955 0.84941 0.0
C711 C 0.69928 0.76208 0.8006 0.0
C712 C 0.71952 0.75883 0.82108 0.0
C713 C 0.75551 0.7442 0.88506 0.0
C714 C 0.74618 0.74995 0.86255 0.0
H715 H 0.72937 0.82549 0.75457 0.0
H716 H 0.76522 0.81999 0.78793 0.0
H717 H 0.68977 0.68192 0.81947 0.0
H718 H 0.70262 0.66795 0.92635 0.0
H719 H 0.68818 0.67816 0.88964 0.0
C720 C 0.02589 0.82394 0.2476 0.0
C721 C 0.03718 0.79361 0.25911 0.0
C722 C 0.01068 0.81343 0.22663 0.0
C723 C 0.00765 0.73835 0.1813 0.0
H724 H 0.90371 0.7557 0.1616 0.0
C725 C 0.88665 0.63335 0.11222 0.0
C726 C 0.87668 0.65852 0.09682 0.0
C727 C 0.9113 0.65625 0.13052 0.0
C728 C 0.93325 0.75138 0.1668 0.0
H729 H 0.04015 0.72789 0.25787 0.0
H730 H 0.01285 0.70903 0.22165 0.0
H731 H 0.93673 0.78331 0.19682 0.0
H732 H 0.88473 0.7275 0.08853 0.0
H733 H 0.92716 0.76752 0.12108 0.0
H734 H 0.00251 0.70438 0.15165 0.0
C735 C 0.01708 0.74175 0.22846 0.0
C736 C 0.95226 0.76722 0.18696 0.0
C737 C 0.03257 0.75244 0.2493 0.0
C738 C 0.89208 0.70729 0.1001 0.0
C739 C 0.91611 0.73008 0.11871 0.0
C740 C 0.98831 0.72208 0.16132 0.0
C741 C 0.00612 0.77218 0.21679 0.0
C742 C 0.989 0.75991 0.19464 0.0
C743 C 0.926 0.70469 0.13404 0.0
C744 C 0.95031 0.72756 0.15404 0.0
H745 H 0.0295 0.85616 0.25471 0.0
H746 H 0.00302 0.83792 0.21807 0.0
H747 H 0.03677 0.73327 0.18643 0.0
H748 H 0.87547 0.59579 0.11013 0.0
H749 H 0.91801 0.63571 0.14217 0.0
C750 C 0.24396 0.00147 0.58871 0.0
C751 C 0.22552 0.03044 0.59554 0.0
C752 C 0.23448 0.98229 0.56843 0.0
C753 C 0.20552 0.0007 0.51509 0.0
H754 H 0.17134 0.86767 0.50812 0.0
C755 C 0.18084 0.90838 0.43304 0.0
C756 C 0.20276 0.88019 0.4314 0.0
C757 C 0.17738 0.92654 0.45266 0.0
C758 C 0.18101 0.90493 0.50978 0.0
H759 H 0.18298 0.06243 0.58651 0.0
H760 H 0.16678 0.02911 0.55067 0.0
H761 H 0.17669 0.89971 0.54339 0.0
H762 H 0.239 0.84989 0.44911 0.0
H763 H 0.23343 0.88167 0.48278 0.0
H764 H 0.21152 0.00621 0.48139 0.0
C765 C 0.18839 0.02121 0.56116 0.0
C766 C 0.18397 0.9232 0.52997 0.0
C767 C 0.1974 0.03997 0.58163 0.0
C768 C 0.22155 0.87112 0.44969 0.0
C769 C 0.21804 0.88907 0.46913 0.0
C770 C 0.20281 0.9824 0.49478 0.0
C771 C 0.20665 0.99195 0.55443 0.0
C772 C 0.19752 0.97156 0.53288 0.0
C773 C 0.19552 0.91655 0.47094 0.0
C774 C 0.19189 0.93466 0.49198 0.0
H775 H 0.26543 0.99325 0.59914 0.0
H776 H 0.24947 0.9603 0.56359 0.0
H777 H 0.21614 0.03817 0.51692 0.0
H778 H 0.16606 0.91606 0.41926 0.0
H779 H 0.15983 0.94765 0.45359 0.0
loop_
_geom_bond_atom_site_label_1
_geom_bond_atom_site_label_2
_geom_bond_distance
_geom_bond_site_symmetry_2
_ccdc_geom_bond_type
Eu0 C9 2.828 . S
Eu0 O11 2.392 . S
Eu0 O13 2.418 . S
Eu0 O18 2.373 . S
Eu0 O21 2.488 . S
Eu0 O22 2.471 . S
Eu0 O23 2.349 . S
Eu1 O10 2.373 1_554 S
Eu1 O14 2.488 1_554 S
Eu1 O15 2.471 1_554 S
Eu1 O16 2.349 . S
Eu1 O19 2.392 . S
Eu1 O20 2.418 . S
Eu1 C30 2.828 1_554 S
C2 O20 1.244 . S
C2 O23 1.265 . S
C3 C4 1.379 . S
C3 C7 1.373 . S
C3 C9 1.505 . S
C4 C3 1.379 . S
C4 C6 1.369 . S
C4 H32 0.930 . S
C5 C7 1.383 . S
C5 C8 1.382 . S
C5 H33 0.930 . S
C6 C4 1.369 . S
C6 C8 1.392 . S
C6 H34 0.930 . S
C7 C3 1.373 . S
C7 C5 1.383 . S
C7 H35 0.931 . S
C8 C5 1.382 . S
C8 C6 1.392 . S
C9 Eu0 2.828 . S
C9 C3 1.505 . S
C9 O21 1.249 . S
C9 O22 1.244 . S
O10 Eu1 2.373 1_556 S
O10 C12 1.258 . S
O11 Eu0 2.392 . S
O11 C12 1.242 1_554 S
C12 O10 1.258 . S
C12 O11 1.242 1_556 S
O13 Eu0 2.418 . S
O13 C17 1.244 . S
O14 Eu1 2.488 1_556 S
O14 C30 1.249 . S
O15 Eu1 2.471 1_556 S
O15 C30 1.244 . S
O16 Eu1 2.349 . S
O16 C17 1.265 . S
C17 O13 1.244 . S
C17 O16 1.265 . S
O18 Eu0 2.373 . S
O18 C31 1.258 . S
O19 Eu1 2.392 . S
O19 C31 1.242 . S
O20 Eu1 2.418 . S
O20 C2 1.244 . S
O21 Eu0 2.488 . S
O21 C9 1.249 . S
O22 Eu0 2.471 . S
O22 C9 1.244 . S
O23 Eu0 2.349 . S
O23 C2 1.265 . S
C24 C25 1.379 . S
C24 C28 1.373 . S
C24 C30 1.505 . S
C25 C24 1.379 . S
C25 C27 1.369 . S
C25 H36 0.930 . S
C26 C28 1.383 . S
C26 C29 1.382 . S
C26 H37 0.930 . S
C27 C25 1.369 . S
C27 C29 1.392 . S
C27 H38 0.930 . S
C28 C24 1.373 . S
C28 C26 1.383 . S
C28 H39 0.931 . S
C29 C26 1.382 . S
C29 C27 1.392 . S
C30 Eu1 2.828 1_556 S
C30 O14 1.249 . S
C30 O15 1.244 . S
C30 C24 1.505 . S
C31 O18 1.258 . S
C31 O19 1.242 . S
H32 C4 0.930 . S
H33 C5 0.930 . S
H34 C6 0.930 . S
H35 C7 0.931 . S
H36 C25 0.930 . S
H37 C26 0.930 . S
H38 C27 0.930 . S
H39 C28 0.931 . S
Eu40 C49 2.828 . S
Eu40 O51 2.392 . S
Eu40 O53 2.418 . S
Eu40 O58 2.373 . S
Eu40 O61 2.488 . S
Eu40 O62 2.471 . S
Eu40 O63 2.349 . S
Eu41 O50 2.373 . S
Eu41 O54 2.488 . S
Eu41 O55 2.471 . S
Eu41 O56 2.349 . S
Eu41 O59 2.392 . S
Eu41 O60 2.418 . S
Eu41 C70 2.828 . S
C42 O60 1.244 . S
C42 O63 1.265 . S
C43 C44 1.379 . S
C43 C47 1.373 . S
C43 C49 1.505 . S
C44 C43 1.379 . S
C44 C46 1.369 . S
C44 H72 0.930 . S
C45 C47 1.383 . S
C45 C48 1.382 . S
C45 H73 0.930 . S
C46 C44 1.369 . S
C46 C48 1.392 . S
C46 H74 0.930 . S
C47 C43 1.373 . S
C47 C45 1.383 . S
C47 H75 0.931 . S
C48 C45 1.382 . S
C48 C46 1.392 . S
C49 Eu40 2.828 . S
C49 C43 1.505 . S
C49 O61 1.249 . S
C49 O62 1.244 . S
O50 Eu41 2.373 . S
O50 C52 1.258 . S
O51 Eu40 2.392 . S
O51 C52 1.242 . S
C52 O50 1.258 . S
C52 O51 1.242 . S
O53 Eu40 2.418 . S
O53 C57 1.244 . S
O54 Eu41 2.488 . S
O54 C70 1.249 . S
O55 Eu41 2.471 . S
O55 C70 1.244 . S
O56 Eu41 2.349 . S
O56 C57 1.265 . S
C57 O53 1.244 . S
C57 O56 1.265 . S
O58 Eu40 2.373 . S
O58 C71 1.258 . S
O59 Eu41 2.392 . S
O59 C71 1.242 . S
O60 Eu41 2.418 . S
O60 C42 1.244 . S
O61 Eu40 2.488 . S
O61 C49 1.249 . S
O62 Eu40 2.471 . S
O62 C49 1.244 . S
O63 Eu40 2.349 . S
O63 C42 1.265 . S
C64 C65 1.379 . S
C64 C68 1.373 . S
C64 C70 1.505 . S
C65 C64 1.379 . S
C65 C67 1.369 . S
C65 H76 0.930 . S
C66 C68 1.383 . S
C66 C69 1.382 . S
C66 H77 0.930 . S
C67 C65 1.369 . S
C67 C69 1.392 . S
C67 H78 0.930 . S
C68 C64 1.373 . S
C68 C66 1.383 . S
C68 H79 0.931 . S
C69 C66 1.382 . S
C69 C67 1.392 . S
C70 Eu41 2.828 . S
C70 O54 1.249 . S
C70 O55 1.244 . S
C70 C64 1.505 . S
C71 O58 1.258 . S
C71 O59 1.242 . S
H72 C44 0.930 . S
H73 C45 0.930 . S
H74 C46 0.930 . S
H75 C47 0.931 . S
H76 C65 0.930 . S
H77 C66 0.930 . S
H78 C67 0.930 . S
H79 C68 0.931 . S
Eu80 C89 2.828 . S
Eu80 O91 2.392 . S
Eu80 O93 2.418 . S
Eu80 O98 2.373 . S
Eu80 O101 2.488 . S
Eu80 O102 2.471 . S
Eu80 O103 2.349 . S
Eu81 O90 2.373 . S
Eu81 O94 2.488 . S
Eu81 O95 2.471 . S
Eu81 O96 2.349 . S
Eu81 O99 2.392 . S
Eu81 O100 2.418 . S
Eu81 C110 2.828 . S
C82 O100 1.244 . S
C82 O103 1.265 . S
C83 C84 1.379 . S
C83 C87 1.373 . S
C83 C89 1.505 . S
C84 C83 1.379 . S
C84 C86 1.369 . S
C84 H112 0.930 . S
C85 C87 1.383 . S
C85 C88 1.382 . S
C85 H113 0.930 . S
C86 C84 1.369 . S
C86 C88 1.392 . S
C86 H114 0.930 . S
C87 C83 1.373 . S
C87 C85 1.383 . S
C87 H115 0.931 . S
C88 C85 1.382 . S
C88 C86 1.392 . S
C89 Eu80 2.828 . S
C89 C83 1.505 . S
C89 O101 1.249 . S
C89 O102 1.244 . S
O90 Eu81 2.373 . S
O90 C92 1.258 . S
O91 Eu80 2.392 . S
O91 C92 1.242 . S
C92 O90 1.258 . S
C92 O91 1.242 . S
O93 Eu80 2.418 . S
O93 C97 1.244 . S
O94 Eu81 2.488 . S
O94 C110 1.249 . S
O95 Eu81 2.471 . S
O95 C110 1.244 . S
O96 Eu81 2.349 . S
O96 C97 1.265 . S
C97 O93 1.244 . S
C97 O96 1.265 . S
O98 Eu80 2.373 . S
O98 C111 1.258 . S
O99 Eu81 2.392 . S
O99 C111 1.242 . S
O100 Eu81 2.418 . S
O100 C82 1.244 . S
O101 Eu80 2.488 . S
O101 C89 1.249 . S
O102 Eu80 2.471 . S
O102 C89 1.244 . S
O103 Eu80 2.349 . S
O103 C82 1.265 . S
C104 C105 1.379 . S
C104 C108 1.373 . S
C104 C110 1.505 . S
C105 C104 1.379 . S
C105 C107 1.369 . S
C105 H116 0.930 . S
C106 C108 1.383 . S
C106 C109 1.382 . S
C106 H117 0.930 . S
C107 C105 1.369 . S
C107 C109 1.392 . S
C107 H118 0.930 . S
C108 C104 1.373 . S
C108 C106 1.383 . S
C108 H119 0.931 . S
C109 C106 1.382 . S
C109 C107 1.392 . S
C110 Eu81 2.828 . S
C110 O94 1.249 . S
C110 O95 1.244 . S
C110 C104 1.505 . S
C111 O98 1.258 . S
C111 O99 1.242 . S
H112 C84 0.930 . S
H113 C85 0.930 . S
H114 C86 0.930 . S
H115 C87 0.931 . S
H116 C105 0.930 . S
H117 C106 0.930 . S
H118 C107 0.930 . S
H119 C108 0.931 . S
Eu120 C129 2.828 . S
Eu120 O131 2.392 . S
Eu120 O133 2.418 . S
Eu120 O138 2.373 . S
Eu120 O141 2.488 . S
Eu120 O142 2.471 . S
Eu120 O143 2.349 . S
Eu121 O130 2.373 1_554 S
Eu121 O134 2.488 1_554 S
Eu121 O135 2.471 1_554 S
Eu121 O136 2.349 . S
Eu121 O139 2.392 . S
Eu121 O140 2.418 . S
Eu121 C150 2.828 1_554 S
C122 O140 1.244 . S
C122 O143 1.265 . S
C123 C124 1.379 . S
C123 C127 1.373 . S
C123 C129 1.505 . S
C124 C123 1.379 . S
C124 C126 1.369 . S
C124 H152 0.930 . S
C125 C127 1.383 . S
C125 C128 1.382 . S
C125 H153 0.930 . S
C126 C124 1.369 . S
C126 C128 1.392 . S
C126 H154 0.930 . S
C127 C123 1.373 . S
C127 C125 1.383 . S
C127 H155 0.931 . S
C128 C125 1.382 . S
C128 C126 1.392 . S
C129 Eu120 2.828 . S
C129 C123 1.505 . S
C129 O141 1.249 . S
C129 O142 1.244 . S
O130 Eu121 2.373 1_556 S
O130 C132 1.258 . S
O131 Eu120 2.392 . S
O131 C132 1.242 1_554 S
C132 O130 1.258 . S
C132 O131 1.242 1_556 S
O133 Eu120 2.418 . S
O133 C137 1.244 . S
O134 Eu121 2.488 1_556 S
O134 C150 1.249 . S
O135 Eu121 2.471 1_556 S
O135 C150 1.244 . S
O136 Eu121 2.349 . S
O136 C137 1.265 . S
C137 O133 1.244 . S
C137 O136 1.265 . S
O138 Eu120 2.373 . S
O138 C151 1.258 . S
O139 Eu121 2.392 . S
O139 C151 1.242 . S
O140 Eu121 2.418 . S
O140 C122 1.244 . S
O141 Eu120 2.488 . S
O141 C129 1.249 . S
O142 Eu120 2.471 . S
O142 C129 1.244 . S
O143 Eu120 2.349 . S
O143 C122 1.265 . S
C144 C145 1.379 . S
C144 C148 1.373 . S
C144 C150 1.505 . S
C145 C144 1.379 . S
C145 C147 1.369 . S
C145 H156 0.930 . S
C146 C148 1.383 . S
C146 C149 1.382 . S
C146 H157 0.930 . S
C147 C145 1.369 . S
C147 C149 1.392 . S
C147 H158 0.930 . S
C148 C144 1.373 . S
C148 C146 1.383 . S
C148 H159 0.931 . S
C149 C146 1.382 . S
C149 C147 1.392 . S
C150 Eu121 2.828 1_556 S
C150 O134 1.249 . S
C150 O135 1.244 . S
C150 C144 1.505 . S
C151 O138 1.258 . S
C151 O139 1.242 . S
H152 C124 0.930 . S
H153 C125 0.930 . S
H154 C126 0.930 . S
H155 C127 0.931 . S
H156 C145 0.930 . S
H157 C146 0.930 . S
H158 C147 0.930 . S
H159 C148 0.931 . S
Eu160 C169 2.828 . S
Eu160 O171 2.392 . S
Eu160 O173 2.418 . S
Eu160 O178 2.373 . S
Eu160 O181 2.488 . S
Eu160 O182 2.471 . S
Eu160 O183 2.349 . S
Eu161 O170 2.373 . S
Eu161 O174 2.488 . S
Eu161 O175 2.471 . S
Eu161 O176 2.349 . S
Eu161 O179 2.392 . S
Eu161 O180 2.418 . S
Eu161 C190 2.828 . S
C162 O180 1.244 . S
C162 O183 1.265 . S
C163 C164 1.379 . S
C163 C167 1.373 . S
C163 C169 1.505 . S
C164 C163 1.379 . S
C164 C166 1.369 . S
C164 H192 0.930 . S
C165 C167 1.383 . S
C165 C168 1.382 . S
C165 H193 0.930 . S
C166 C164 1.369 . S
C166 C168 1.392 . S
C166 H194 0.930 . S
C167 C163 1.373 . S
C167 C165 1.383 . S
C167 H195 0.931 . S
C168 C165 1.382 . S
C168 C166 1.392 . S
C169 Eu160 2.828 . S
C169 C163 1.505 . S
C169 O181 1.249 . S
C169 O182 1.244 . S
O170 Eu161 2.373 . S
O170 C172 1.258 . S
O171 Eu160 2.392 . S
O171 C172 1.242 . S
C172 O170 1.258 . S
C172 O171 1.242 . S
O173 Eu160 2.418 . S
O173 C177 1.244 . S
O174 Eu161 2.488 . S
O174 C190 1.249 . S
O175 Eu161 2.471 . S
O175 C190 1.244 . S
O176 Eu161 2.349 . S
O176 C177 1.265 . S
C177 O173 1.244 . S
C177 O176 1.265 . S
O178 Eu160 2.373 . S
O178 C191 1.258 . S
O179 Eu161 2.392 . S
O179 C191 1.242 . S
O180 Eu161 2.418 . S
O180 C162 1.244 . S
O181 Eu160 2.488 . S
O181 C169 1.249 . S
O182 Eu160 2.471 . S
O182 C169 1.244 . S
O183 Eu160 2.349 . S
O183 C162 1.265 . S
C184 C185 1.379 . S
C184 C188 1.373 . S
C184 C190 1.505 . S
C185 C184 1.379 . S
C185 C187 1.369 . S
C185 H196 0.930 . S
C186 C188 1.383 . S
C186 C189 1.382 . S
C186 H197 0.930 . S
C187 C185 1.369 . S
C187 C189 1.392 . S
C187 H198 0.930 . S
C188 C184 1.373 . S
C188 C186 1.383 . S
C188 H199 0.931 . S
C189 C186 1.382 . S
C189 C187 1.392 . S
C190 Eu161 2.828 . S
C190 O174 1.249 . S
C190 O175 1.244 . S
C190 C184 1.505 . S
C191 O178 1.258 . S
C191 O179 1.242 . S
H192 C164 0.930 . S
H193 C165 0.930 . S
H194 C166 0.930 . S
H195 C167 0.931 . S
H196 C185 0.930 . S
H197 C186 0.930 . S
H198 C187 0.930 . S
H199 C188 0.931 . S
Eu200 C209 2.828 . S
Eu200 O211 2.392 . S
Eu200 O213 2.418 . S
Eu200 O218 2.373 . S
Eu200 O221 2.488 . S
Eu200 O222 2.471 . S
Eu200 O223 2.349 . S
Eu201 O210 2.373 . S
Eu201 O214 2.488 . S
Eu201 O215 2.471 . S
Eu201 O216 2.349 . S
Eu201 O219 2.392 . S
Eu201 O220 2.418 . S
Eu201 C230 2.828 . S
C202 O220 1.244 . S
C202 O223 1.265 . S
C203 C204 1.379 . S
C203 C207 1.373 . S
C203 C209 1.505 . S
C204 C203 1.379 . S
C204 C206 1.369 . S
C204 H232 0.930 . S
C205 C207 1.383 . S
C205 C208 1.382 . S
C205 H233 0.930 . S
C206 C204 1.369 . S
C206 C208 1.392 . S
C206 H234 0.930 . S
C207 C203 1.373 . S
C207 C205 1.383 . S
C207 H235 0.931 . S
C208 C205 1.382 . S
C208 C206 1.392 . S
C209 Eu200 2.828 . S
C209 C203 1.505 . S
C209 O221 1.249 . S
C209 O222 1.244 . S
O210 Eu201 2.373 . S
O210 C212 1.258 . S
O211 Eu200 2.392 . S
O211 C212 1.242 . S
C212 O210 1.258 . S
C212 O211 1.242 . S
O213 Eu200 2.418 . S
O213 C217 1.244 . S
O214 Eu201 2.488 . S
O214 C230 1.249 . S
O215 Eu201 2.471 . S
O215 C230 1.244 . S
O216 Eu201 2.349 . S
O216 C217 1.265 . S
C217 O213 1.244 . S
C217 O216 1.265 . S
O218 Eu200 2.373 . S
O218 C231 1.258 . S
O219 Eu201 2.392 . S
O219 C231 1.242 . S
O220 Eu201 2.418 . S
O220 C202 1.244 . S
O221 Eu200 2.488 . S
O221 C209 1.249 . S
O222 Eu200 2.471 . S
O222 C209 1.244 . S
O223 Eu200 2.349 . S
O223 C202 1.265 . S
C224 C225 1.379 . S
C224 C228 1.373 . S
C224 C230 1.505 . S
C225 C224 1.379 . S
C225 C227 1.369 . S
C225 H236 0.930 . S
C226 C228 1.383 . S
C226 C229 1.382 . S
C226 H237 0.930 . S
C227 C225 1.369 . S
C227 C229 1.392 . S
C227 H238 0.930 . S
C228 C224 1.373 . S
C228 C226 1.383 . S
C228 H239 0.931 . S
C229 C226 1.382 . S
C229 C227 1.392 . S
C230 Eu201 2.828 . S
C230 O214 1.249 . S
C230 O215 1.244 . S
C230 C224 1.505 . S
C231 O218 1.258 . S
C231 O219 1.242 . S
H232 C204 0.930 . S
H233 C205 0.930 . S
H234 C206 0.930 . S
H235 C207 0.931 . S
H236 C225 0.930 . S
H237 C226 0.930 . S
H238 C227 0.930 . S
H239 C228 0.931 . S
C240 C241 1.349 . S
C240 C242 1.327 . S
C240 H265 0.950 . S
C241 C240 1.349 . S
C241 C257 1.349 . S
C242 C240 1.327 . S
C242 C261 1.429 . S
C242 H266 0.950 . S
C243 C260 1.574 . S
C243 C262 1.368 . S
C243 H267 0.949 . S
H244 C248 0.949 . S
C245 C246 1.349 . S
C245 C247 1.327 . S
C245 H268 0.950 . S
C246 C245 1.349 . S
C246 C258 1.349 . S
C247 C245 1.327 . S
C247 C263 1.429 . S
C247 H269 0.950 . S
C248 H244 0.949 . S
C248 C256 1.574 . S
C248 C264 1.368 . S
H249 C257 0.950 . S
H250 C255 0.950 . S
H251 C256 0.949 . S
H252 C258 0.950 . S
H253 C259 0.950 . S
H254 C260 0.949 . S
C255 H250 0.950 . S
C255 C257 1.327 . S
C255 C261 1.429 . S
C256 C248 1.574 . S
C256 H251 0.949 . S
C256 C262 1.368 . S
C257 C241 1.349 . S
C257 H249 0.950 . S
C257 C255 1.327 . S
C258 C246 1.349 . S
C258 H252 0.950 . S
C258 C259 1.327 . S
C259 H253 0.950 . S
C259 C258 1.327 . S
C259 C263 1.429 . S
C260 C243 1.574 . S
C260 H254 0.949 . S
C260 C264 1.368 . S
C261 C242 1.429 . S
C261 C255 1.429 . S
C261 C262 1.523 . S
C262 C243 1.368 . S
C262 C256 1.368 . S
C262 C261 1.523 . S
C263 C247 1.429 . S
C263 C259 1.429 . S
C263 C264 1.523 . S
C264 C248 1.368 . S
C264 C260 1.368 . S
C264 C263 1.523 . S
H265 C240 0.950 . S
H266 C242 0.950 . S
H267 C243 0.949 . S
H268 C245 0.950 . S
H269 C247 0.950 . S
C270 C271 1.349 . S
C270 C272 1.327 . S
C270 H295 0.950 . S
C271 C270 1.349 . S
C271 C287 1.349 . S
C272 C270 1.327 . S
C272 C291 1.429 . S
C272 H296 0.950 . S
C273 C290 1.574 . S
C273 C292 1.368 . S
C273 H297 0.949 . S
H274 C278 0.949 . S
C275 C276 1.349 . S
C275 C277 1.327 . S
C275 H298 0.950 . S
C276 C275 1.349 . S
C276 C288 1.349 . S
C277 C275 1.327 . S
C277 C293 1.429 . S
C277 H299 0.950 . S
C278 H274 0.949 . S
C278 C286 1.574 . S
C278 C294 1.368 . S
H279 C287 0.950 . S
H280 C285 0.950 . S
H281 C286 0.949 . S
H282 C288 0.950 . S
H283 C289 0.950 . S
H284 C290 0.949 . S
C285 H280 0.950 . S
C285 C287 1.327 . S
C285 C291 1.429 . S
C286 C278 1.574 . S
C286 H281 0.949 . S
C286 C292 1.368 . S
C287 C271 1.349 . S
C287 H279 0.950 . S
C287 C285 1.327 . S
C288 C276 1.349 . S
C288 H282 0.950 . S
C288 C289 1.327 . S
C289 H283 0.950 . S
C289 C288 1.327 . S
C289 C293 1.429 . S
C290 C273 1.574 . S
C290 H284 0.949 . S
C290 C294 1.368 . S
C291 C272 1.429 . S
C291 C285 1.429 . S
C291 C292 1.523 . S
C292 C273 1.368 . S
C292 C286 1.368 . S
C292 C291 1.523 . S
C293 C277 1.429 . S
C293 C289 1.429 . S
C293 C294 1.523 . S
C294 C278 1.368 . S
C294 C290 1.368 . S
C294 C293 1.523 . S
H295 C270 0.950 . S
H296 C272 0.950 . S
H297 C273 0.949 . S
H298 C275 0.950 . S
H299 C277 0.950 . S
C300 C301 1.349 . S
C300 C302 1.327 . S
C300 H325 0.950 . S
C301 C300 1.349 . S
C301 C317 1.349 . S
C302 C300 1.327 . S
C302 C321 1.429 . S
C302 H326 0.950 . S
C303 C320 1.574 . S
C303 C322 1.368 . S
C303 H327 0.949 . S
H304 C308 0.949 . S
C305 C306 1.349 . S
C305 C307 1.327 . S
C305 H328 0.950 . S
C306 C305 1.349 . S
C306 C318 1.349 . S
C307 C305 1.327 . S
C307 C323 1.429 . S
C307 H329 0.950 . S
C308 H304 0.949 . S
C308 C316 1.574 . S
C308 C324 1.368 . S
H309 C317 0.950 . S
H310 C315 0.950 . S
H311 C316 0.949 . S
H312 C318 0.950 . S
H313 C319 0.950 . S
H314 C320 0.949 . S
C315 H310 0.950 . S
C315 C317 1.327 . S
C315 C321 1.429 . S
C316 C308 1.574 . S
C316 H311 0.949 . S
C316 C322 1.368 . S
C317 C301 1.349 . S
C317 H309 0.950 . S
C317 C315 1.327 . S
C318 C306 1.349 . S
C318 H312 0.950 . S
C318 C319 1.327 . S
C319 H313 0.950 . S
C319 C318 1.327 . S
C319 C323 1.429 . S
C320 C303 1.574 . S
C320 H314 0.949 . S
C320 C324 1.368 . S
C321 C302 1.429 . S
C321 C315 1.429 . S
C321 C322 1.523 . S
C322 C303 1.368 . S
C322 C316 1.368 . S
C322 C321 1.523 . S
C323 C307 1.429 . S
C323 C319 1.429 . S
C323 C324 1.523 . S
C324 C308 1.368 . S
C324 C320 1.368 . S
C324 C323 1.523 . S
H325 C300 0.950 . S
H326 C302 0.950 . S
H327 C303 0.949 . S
H328 C305 0.950 . S
H329 C307 0.950 . S
C330 C331 1.349 . S
C330 C332 1.327 . S
C330 H355 0.950 . S
C331 C330 1.349 . S
C331 C347 1.349 . S
C332 C330 1.327 . S
C332 C351 1.429 . S
C332 H356 0.950 . S
C333 C350 1.574 . S
C333 C352 1.368 . S
C333 H357 0.949 . S
H334 C338 0.949 . S
C335 C336 1.349 . S
C335 C337 1.327 . S
C335 H358 0.950 . S
C336 C335 1.349 . S
C336 C348 1.349 . S
C337 C335 1.327 . S
C337 C353 1.429 . S
C337 H359 0.950 . S
C338 H334 0.949 . S
C338 C346 1.574 . S
C338 C354 1.368 . S
H339 C347 0.950 . S
H340 C345 0.950 . S
H341 C346 0.949 . S
H342 C348 0.950 . S
H343 C349 0.950 . S
H344 C350 0.949 . S
C345 H340 0.950 . S
C345 C347 1.327 . S
C345 C351 1.429 . S
C346 C338 1.574 . S
C346 H341 0.949 . S
C346 C352 1.368 . S
C347 C331 1.349 . S
C347 H339 0.950 . S
C347 C345 1.327 . S
C348 C336 1.349 . S
C348 H342 0.950 . S
C348 C349 1.327 . S
C349 H343 0.950 . S
C349 C348 1.327 . S
C349 C353 1.429 . S
C350 C333 1.574 . S
C350 H344 0.949 . S
C350 C354 1.368 . S
C351 C332 1.429 . S
C351 C345 1.429 . S
C351 C352 1.523 . S
C352 C333 1.368 . S
C352 C346 1.368 . S
C352 C351 1.523 . S
C353 C337 1.429 . S
C353 C349 1.429 . S
C353 C354 1.523 . S
C354 C338 1.368 . S
C354 C350 1.368 . S
C354 C353 1.523 . S
H355 C330 0.950 . S
H356 C332 0.950 . S
H357 C333 0.949 . S
H358 C335 0.950 . S
H359 C337 0.950 . S
C360 C361 1.349 . S
C360 C362 1.327 . S
C360 H385 0.950 . S
C361 C360 1.349 . S
C361 C377 1.349 . S
C362 C360 1.327 . S
C362 C381 1.429 . S
C362 H386 0.950 . S
C363 C380 1.574 . S
C363 C382 1.368 . S
C363 H387 0.949 . S
H364 C368 0.949 . S
C365 C366 1.349 . S
C365 C367 1.327 . S
C365 H388 0.950 . S
C366 C365 1.349 . S
C366 C378 1.349 . S
C367 C365 1.327 . S
C367 C383 1.429 . S
C367 H389 0.950 . S
C368 H364 0.949 . S
C368 C376 1.574 . S
C368 C384 1.368 . S
H369 C377 0.950 . S
H370 C375 0.950 . S
H371 C376 0.949 . S
H372 C378 0.950 . S
H373 C379 0.950 . S
H374 C380 0.949 . S
C375 H370 0.950 . S
C375 C377 1.327 . S
C375 C381 1.429 . S
C376 C368 1.574 . S
C376 H371 0.949 . S
C376 C382 1.368 . S
C377 C361 1.349 . S
C377 H369 0.950 . S
C377 C375 1.327 . S
C378 C366 1.349 . S
C378 H372 0.950 . S
C378 C379 1.327 . S
C379 H373 0.950 . S
C379 C378 1.327 . S
C379 C383 1.429 . S
C380 C363 1.574 . S
C380 H374 0.949 . S
C380 C384 1.368 . S
C381 C362 1.429 . S
C381 C375 1.429 . S
C381 C382 1.523 . S
C382 C363 1.368 . S
C382 C376 1.368 . S
C382 C381 1.523 . S
C383 C367 1.429 . S
C383 C379 1.429 . S
C383 C384 1.523 . S
C384 C368 1.368 . S
C384 C380 1.368 . S
C384 C383 1.523 . S
H385 C360 0.950 . S
H386 C362 0.950 . S
H387 C363 0.949 . S
H388 C365 0.950 . S
H389 C367 0.950 . S
C390 C391 1.349 . S
C390 C392 1.327 . S
C390 H415 0.950 . S
C391 C390 1.349 . S
C391 C407 1.349 . S
C392 C390 1.327 . S
C392 C411 1.429 . S
C392 H416 0.950 . S
C393 C410 1.574 . S
C393 C412 1.368 . S
C393 H417 0.949 . S
H394 C398 0.949 . S
C395 C396 1.349 . S
C395 C397 1.327 . S
C395 H418 0.950 . S
C396 C395 1.349 . S
C396 C408 1.349 . S
C397 C395 1.327 . S
C397 C413 1.429 . S
C397 H419 0.950 . S
C398 H394 0.949 . S
C398 C406 1.574 . S
C398 C414 1.368 . S
H399 C407 0.950 . S
H400 C405 0.950 . S
H401 C406 0.949 . S
H402 C408 0.950 . S
H403 C409 0.950 . S
H404 C410 0.949 . S
C405 H400 0.950 . S
C405 C407 1.327 . S
C405 C411 1.429 . S
C406 C398 1.574 . S
C406 H401 0.949 . S
C406 C412 1.368 . S
C407 C391 1.349 . S
C407 H399 0.950 . S
C407 C405 1.327 . S
C408 C396 1.349 . S
C408 H402 0.950 . S
C408 C409 1.327 . S
C409 H403 0.950 . S
C409 C408 1.327 . S
C409 C413 1.429 . S
C410 C393 1.574 . S
C410 H404 0.949 . S
C410 C414 1.368 . S
C411 C392 1.429 . S
C411 C405 1.429 . S
C411 C412 1.523 . S
C412 C393 1.368 . S
C412 C406 1.368 . S
C412 C411 1.523 . S
C413 C397 1.429 . S
C413 C409 1.429 . S
C413 C414 1.523 . S
C414 C398 1.368 . S
C414 C410 1.368 . S
C414 C413 1.523 . S
H415 C390 0.950 . S
H416 C392 0.950 . S
H417 C393 0.949 . S
H418 C395 0.950 . S
H419 C397 0.950 . S
C420 C421 1.349 . S
C420 C422 1.327 . S
C420 H445 0.950 . S
C421 C420 1.349 . S
C421 C437 1.349 . S
C422 C420 1.327 . S
C422 C441 1.429 . S
C422 H446 0.950 . S
C423 C440 1.574 . S
C423 C442 1.368 . S
C423 H447 0.949 . S
H424 C428 0.949 . S
C425 C426 1.349 . S
C425 C427 1.327 . S
C425 H448 0.950 . S
C426 C425 1.349 . S
C426 C438 1.349 . S
C427 C425 1.327 . S
C427 C443 1.429 . S
C427 H449 0.950 . S
C428 H424 0.949 . S
C428 C436 1.574 . S
C428 C444 1.368 . S
H429 C437 0.950 . S
H430 C435 0.950 . S
H431 C436 0.949 . S
H432 C438 0.950 . S
H433 C439 0.950 . S
H434 C440 0.949 . S
C435 H430 0.950 . S
C435 C437 1.327 . S
C435 C441 1.429 . S
C436 C428 1.574 . S
C436 H431 0.949 . S
C436 C442 1.368 . S
C437 C421 1.349 . S
C437 H429 0.950 . S
C437 C435 1.327 . S
C438 C426 1.349 . S
C438 H432 0.950 . S
C438 C439 1.327 . S
C439 H433 0.950 . S
C439 C438 1.327 . S
C439 C443 1.429 . S
C440 C423 1.574 . S
C440 H434 0.949 . S
C440 C444 1.368 . S
C441 C422 1.429 . S
C441 C435 1.429 . S
C441 C442 1.523 . S
C442 C423 1.368 . S
C442 C436 1.368 . S
C442 C441 1.523 . S
C443 C427 1.429 . S
C443 C439 1.429 . S
C443 C444 1.523 . S
C444 C428 1.368 . S
C444 C440 1.368 . S
C444 C443 1.523 . S
H445 C420 0.950 . S
H446 C422 0.950 . S
H447 C423 0.949 . S
H448 C425 0.950 . S
H449 C427 0.950 . S
C450 C451 1.349 . S
C450 C452 1.327 . S
C450 H475 0.950 . S
C451 C450 1.349 . S
C451 C467 1.349 . S
C452 C450 1.327 . S
C452 C471 1.429 . S
C452 H476 0.950 . S
C453 C470 1.574 . S
C453 C472 1.368 1_655 S
C453 H477 0.949 . S
H454 C458 0.949 . S
C455 C456 1.349 . S
C455 C457 1.327 . S
C455 H478 0.950 . S
C456 C455 1.349 . S
C456 C468 1.349 . S
C457 C455 1.327 . S
C457 C473 1.429 . S
C457 H479 0.950 . S
C458 H454 0.949 . S
C458 C466 1.574 . S
C458 C474 1.368 1_455 S
H459 C467 0.950 . S
H460 C465 0.950 . S
H461 C466 0.949 . S
H462 C468 0.950 . S
H463 C469 0.950 . S
H464 C470 0.949 . S
C465 H460 0.950 . S
C465 C467 1.327 . S
C465 C471 1.429 . S
C466 C458 1.574 . S
C466 H461 0.949 . S
C466 C472 1.368 . S
C467 C451 1.349 . S
C467 H459 0.950 . S
C467 C465 1.327 . S
C468 C456 1.349 . S
C468 H462 0.950 . S
C468 C469 1.327 . S
C469 H463 0.950 . S
C469 C468 1.327 . S
C469 C473 1.429 . S
C470 C453 1.574 . S
C470 H464 0.949 . S
C470 C474 1.368 . S
C471 C452 1.429 . S
C471 C465 1.429 . S
C471 C472 1.523 . S
C472 C453 1.368 1_455 S
C472 C466 1.368 . S
C472 C471 1.523 . S
C473 C457 1.429 . S
C473 C469 1.429 . S
C473 C474 1.523 . S
C474 C458 1.368 1_655 S
C474 C470 1.368 . S
C474 C473 1.523 . S
H475 C450 0.950 . S
H476 C452 0.950 . S
H477 C453 0.949 . S
H478 C455 0.950 . S
H479 C457 0.950 . S
C480 C481 1.349 . S
C480 C482 1.327 . S
C480 H505 0.950 . S
C481 C480 1.349 . S
C481 C497 1.349 . S
C482 C480 1.327 . S
C482 C501 1.429 . S
C482 H506 0.950 . S
C483 C500 1.574 . S
C483 C502 1.368 . S
C483 H507 0.949 . S
H484 C488 0.949 . S
C485 C486 1.349 . S
C485 C487 1.327 . S
C485 H508 0.950 . S
C486 C485 1.349 . S
C486 C498 1.349 . S
C487 C485 1.327 . S
C487 C503 1.429 . S
C487 H509 0.950 . S
C488 H484 0.949 . S
C488 C496 1.574 . S
C488 C504 1.368 . S
H489 C497 0.950 . S
H490 C495 0.950 . S
H491 C496 0.949 . S
H492 C498 0.950 . S
H493 C499 0.950 . S
H494 C500 0.949 . S
C495 H490 0.950 . S
C495 C497 1.327 . S
C495 C501 1.429 . S
C496 C488 1.574 . S
C496 H491 0.949 . S
C496 C502 1.368 1_565 S
C497 C481 1.349 . S
C497 H489 0.950 . S
C497 C495 1.327 . S
C498 C486 1.349 . S
C498 H492 0.950 . S
C498 C499 1.327 . S
C499 H493 0.950 . S
C499 C498 1.327 . S
C499 C503 1.429 . S
C500 C483 1.574 . S
C500 H494 0.949 . S
C500 C504 1.368 1_545 S
C501 C482 1.429 . S
C501 C495 1.429 . S
C501 C502 1.523 . S
C502 C483 1.368 . S
C502 C496 1.368 1_545 S
C502 C501 1.523 . S
C503 C487 1.429 . S
C503 C499 1.429 . S
C503 C504 1.523 . S
C504 C488 1.368 . S
C504 C500 1.368 1_565 S
C504 C503 1.523 . S
H505 C480 0.950 . S
H506 C482 0.950 . S
H507 C483 0.949 . S
H508 C485 0.950 . S
H509 C487 0.950 . S
C510 C511 1.349 . S
C510 C512 1.327 . S
C510 H535 0.950 . S
C511 C510 1.349 . S
C511 C527 1.349 . S
C512 C510 1.327 . S
C512 C531 1.429 . S
C512 H536 0.950 . S
C513 C530 1.574 . S
C513 C532 1.368 . S
C513 H537 0.949 . S
H514 C518 0.949 . S
C515 C516 1.349 . S
C515 C517 1.327 . S
C515 H538 0.950 . S
C516 C515 1.349 . S
C516 C528 1.349 . S
C517 C515 1.327 . S
C517 C533 1.429 . S
C517 H539 0.950 . S
C518 H514 0.949 . S
C518 C526 1.574 . S
C518 C534 1.368 . S
H519 C527 0.950 . S
H520 C525 0.950 . S
H521 C526 0.949 . S
H522 C528 0.950 . S
H523 C529 0.950 . S
H524 C530 0.949 . S
C525 H520 0.950 . S
C525 C527 1.327 . S
C525 C531 1.429 . S
C526 C518 1.574 . S
C526 H521 0.949 . S
C526 C532 1.368 . S
C527 C511 1.349 . S
C527 H519 0.950 . S
C527 C525 1.327 . S
C528 C516 1.349 . S
C528 H522 0.950 . S
C528 C529 1.327 . S
C529 H523 0.950 . S
C529 C528 1.327 . S
C529 C533 1.429 . S
C530 C513 1.574 . S
C530 H524 0.949 . S
C530 C534 1.368 . S
C531 C512 1.429 . S
C531 C525 1.429 . S
C531 C532 1.523 . S
C532 C513 1.368 . S
C532 C526 1.368 . S
C532 C531 1.523 . S
C533 C517 1.429 . S
C533 C529 1.429 . S
C533 C534 1.523 . S
C534 C518 1.368 . S
C534 C530 1.368 . S
C534 C533 1.523 . S
H535 C510 0.950 . S
H536 C512 0.950 . S
H537 C513 0.949 . S
H538 C515 0.950 . S
H539 C517 0.950 . S
C540 C541 1.349 . S
C540 C542 1.327 . S
C540 H565 0.950 1_554 S
C541 C540 1.349 . S
C541 C557 1.349 . S
C542 C540 1.327 . S
C542 C561 1.429 . S
C542 H566 0.950 1_554 S
C543 C560 1.574 . S
C543 C562 1.368 . S
C543 H567 0.949 . S
H544 C548 0.949 1_556 S
C545 C546 1.349 . S
C545 C547 1.327 . S
C545 H568 0.950 . S
C546 C545 1.349 . S
C546 C558 1.349 . S
C547 C545 1.327 . S
C547 C563 1.429 . S
C547 H569 0.950 . S
C548 H544 0.949 1_554 S
C548 C556 1.574 . S
C548 C564 1.368 . S
H549 C557 0.950 . S
H550 C555 0.950 . S
H551 C556 0.949 1_556 S
H552 C558 0.950 1_556 S
H553 C559 0.950 1_556 S
H554 C560 0.949 . S
C555 H550 0.950 . S
C555 C557 1.327 . S
C555 C561 1.429 . S
C556 C548 1.574 . S
C556 H551 0.949 1_554 S
C556 C562 1.368 1_655 S
C557 C541 1.349 . S
C557 H549 0.950 . S
C557 C555 1.327 . S
C558 C546 1.349 . S
C558 H552 0.950 1_554 S
C558 C559 1.327 . S
C559 H553 0.950 1_554 S
C559 C558 1.327 . S
C559 C563 1.429 . S
C560 C543 1.574 . S
C560 H554 0.949 . S
C560 C564 1.368 1_455 S
C561 C542 1.429 . S
C561 C555 1.429 . S
C561 C562 1.523 . S
C562 C543 1.368 . S
C562 C556 1.368 1_455 S
C562 C561 1.523 . S
C563 C547 1.429 . S
C563 C559 1.429 . S
C563 C564 1.523 . S
C564 C548 1.368 . S
C564 C560 1.368 1_655 S
C564 C563 1.523 . S
H565 C540 0.950 1_556 S
H566 C542 0.950 1_556 S
H567 C543 0.949 . S
H568 C545 0.950 . S
H569 C547 0.950 . S
C570 C571 1.349 . S
C570 C572 1.327 . S
C570 H595 0.950 . S
C571 C570 1.349 . S
C571 C587 1.349 . S
C572 C570 1.327 . S
C572 C591 1.429 . S
C572 H596 0.950 . S
C573 C590 1.574 . S
C573 C592 1.368 1_545 S
C573 H597 0.949 . S
H574 C578 0.949 . S
C575 C576 1.349 . S
C575 C577 1.327 . S
C575 H598 0.950 . S
C576 C575 1.349 . S
C576 C588 1.349 . S
C577 C575 1.327 . S
C577 C593 1.429 . S
C577 H599 0.950 . S
C578 H574 0.949 . S
C578 C586 1.574 . S
C578 C594 1.368 1_565 S
H579 C587 0.950 . S
H580 C585 0.950 . S
H581 C586 0.949 . S
H582 C588 0.950 . S
H583 C589 0.950 . S
H584 C590 0.949 . S
C585 H580 0.950 . S
C585 C587 1.327 . S
C585 C591 1.429 . S
C586 C578 1.574 . S
C586 H581 0.949 . S
C586 C592 1.368 . S
C587 C571 1.349 . S
C587 H579 0.950 . S
C587 C585 1.327 . S
C588 C576 1.349 . S
C588 H582 0.950 . S
C588 C589 1.327 . S
C589 H583 0.950 . S
C589 C588 1.327 . S
C589 C593 1.429 . S
C590 C573 1.574 . S
C590 H584 0.949 . S
C590 C594 1.368 . S
C591 C572 1.429 . S
C591 C585 1.429 . S
C591 C592 1.523 . S
C592 C573 1.368 1_565 S
C592 C586 1.368 . S
C592 C591 1.523 . S
C593 C577 1.429 . S
C593 C589 1.429 . S
C593 C594 1.523 . S
C594 C578 1.368 1_545 S
C594 C590 1.368 . S
C594 C593 1.523 . S
H595 C570 0.950 . S
H596 C572 0.950 . S
H597 C573 0.949 . S
H598 C575 0.950 . S
H599 C577 0.950 . S
C600 C601 1.349 . S
C600 C602 1.327 . S
C600 H625 0.950 . S
C601 C600 1.349 . S
C601 C617 1.349 . S
C602 C600 1.327 . S
C602 C621 1.429 . S
C602 H626 0.950 . S
C603 C620 1.574 . S
C603 C622 1.368 . S
C603 H627 0.949 . S
H604 C608 0.949 . S
C605 C606 1.349 . S
C605 C607 1.327 . S
C605 H628 0.950 . S
C606 C605 1.349 . S
C606 C618 1.349 . S
C607 C605 1.327 . S
C607 C623 1.429 . S
C607 H629 0.950 . S
C608 H604 0.949 . S
C608 C616 1.574 . S
C608 C624 1.368 . S
H609 C617 0.950 . S
H610 C615 0.950 . S
H611 C616 0.949 . S
H612 C618 0.950 . S
H613 C619 0.950 . S
H614 C620 0.949 . S
C615 H610 0.950 . S
C615 C617 1.327 . S
C615 C621 1.429 . S
C616 C608 1.574 . S
C616 H611 0.949 . S
C616 C622 1.368 . S
C617 C601 1.349 . S
C617 H609 0.950 . S
C617 C615 1.327 . S
C618 C606 1.349 . S
C618 H612 0.950 . S
C618 C619 1.327 . S
C619 H613 0.950 . S
C619 C618 1.327 . S
C619 C623 1.429 . S
C620 C603 1.574 . S
C620 H614 0.949 . S
C620 C624 1.368 . S
C621 C602 1.429 . S
C621 C615 1.429 . S
C621 C622 1.523 . S
C622 C603 1.368 . S
C622 C616 1.368 . S
C622 C621 1.523 . S
C623 C607 1.429 . S
C623 C619 1.429 . S
C623 C624 1.523 . S
C624 C608 1.368 . S
C624 C620 1.368 . S
C624 C623 1.523 . S
H625 C600 0.950 . S
H626 C602 0.950 . S
H627 C603 0.949 . S
H628 C605 0.950 . S
H629 C607 0.950 . S
C630 C631 1.349 . S
C630 C632 1.327 . S
C630 H655 0.950 . S
C631 C630 1.349 . S
C631 C647 1.349 1_655 S
C632 C630 1.327 . S
C632 C651 1.429 1_655 S
C632 H656 0.950 . S
C633 C650 1.574 . S
C633 C652 1.368 . S
C633 H657 0.949 . S
H634 C638 0.949 . S
C635 C636 1.349 . S
C635 C637 1.327 . S
C635 H658 0.950 . S
C636 C635 1.349 . S
C636 C648 1.349 . S
C637 C635 1.327 . S
C637 C653 1.429 . S
C637 H659 0.950 . S
C638 H634 0.949 . S
C638 C646 1.574 . S
C638 C654 1.368 . S
H639 C647 0.950 . S
H640 C645 0.950 . S
H641 C646 0.949 1_655 S
H642 C648 0.950 . S
H643 C649 0.950 . S
H644 C650 0.949 . S
C645 H640 0.950 . S
C645 C647 1.327 . S
C645 C651 1.429 . S
C646 C638 1.574 . S
C646 H641 0.949 1_455 S
C646 C652 1.368 . S
C647 C631 1.349 1_455 S
C647 H639 0.950 . S
C647 C645 1.327 . S
C648 C636 1.349 . S
C648 H642 0.950 . S
C648 C649 1.327 . S
C649 H643 0.950 . S
C649 C648 1.327 . S
C649 C653 1.429 . S
C650 C633 1.574 . S
C650 H644 0.949 . S
C650 C654 1.368 . S
C651 C632 1.429 1_455 S
C651 C645 1.429 . S
C651 C652 1.523 . S
C652 C633 1.368 . S
C652 C646 1.368 . S
C652 C651 1.523 . S
C653 C637 1.429 . S
C653 C649 1.429 . S
C653 C654 1.523 . S
C654 C638 1.368 . S
C654 C650 1.368 . S
C654 C653 1.523 . S
H655 C630 0.950 . S
H656 C632 0.950 . S
H657 C633 0.949 . S
H658 C635 0.950 . S
H659 C637 0.950 . S
C660 C661 1.349 1_545 S
C660 C662 1.327 . S
C660 H685 0.950 . S
C661 C660 1.349 1_565 S
C661 C677 1.349 . S
C662 C660 1.327 . S
C662 C681 1.429 . S
C662 H686 0.950 . S
C663 C680 1.574 . S
C663 C682 1.368 . S
C663 H687 0.949 1_545 S
H664 C668 0.949 . S
C665 C666 1.349 . S
C665 C667 1.327 . S
C665 H688 0.950 . S
C666 C665 1.349 . S
C666 C678 1.349 . S
C667 C665 1.327 . S
C667 C683 1.429 . S
C667 H689 0.950 . S
C668 H664 0.949 . S
C668 C676 1.574 . S
C668 C684 1.368 . S
H669 C677 0.950 . S
H670 C675 0.950 . S
H671 C676 0.949 . S
H672 C678 0.950 . S
H673 C679 0.950 . S
H674 C680 0.949 . S
C675 H670 0.950 . S
C675 C677 1.327 . S
C675 C681 1.429 1_565 S
C676 C668 1.574 . S
C676 H671 0.949 . S
C676 C682 1.368 . S
C677 C661 1.349 . S
C677 H669 0.950 . S
C677 C675 1.327 . S
C678 C666 1.349 . S
C678 H672 0.950 . S
C678 C679 1.327 . S
C679 H673 0.950 . S
C679 C678 1.327 . S
C679 C683 1.429 . S
C680 C663 1.574 . S
C680 H674 0.949 . S
C680 C684 1.368 . S
C681 C662 1.429 . S
C681 C675 1.429 1_545 S
C681 C682 1.523 . S
C682 C663 1.368 . S
C682 C676 1.368 . S
C682 C681 1.523 . S
C683 C667 1.429 . S
C683 C679 1.429 . S
C683 C684 1.523 . S
C684 C668 1.368 . S
C684 C680 1.368 . S
C684 C683 1.523 . S
H685 C660 0.950 . S
H686 C662 0.950 . S
H687 C663 0.949 1_565 S
H688 C665 0.950 . S
H689 C667 0.950 . S
C690 C691 1.349 . S
C690 C692 1.327 . S
C690 H715 0.950 . S
C691 C690 1.349 . S
C691 C707 1.349 . S
C692 C690 1.327 . S
C692 C711 1.429 . S
C692 H716 0.950 . S
C693 C710 1.574 . S
C693 C712 1.368 . S
C693 H717 0.949 . S
H694 C698 0.949 . S
C695 C696 1.349 . S
C695 C697 1.327 . S
C695 H718 0.950 . S
C696 C695 1.349 . S
C696 C708 1.349 . S
C697 C695 1.327 . S
C697 C713 1.429 . S
C697 H719 0.950 . S
C698 H694 0.949 . S
C698 C706 1.574 . S
C698 C714 1.368 . S
H699 C707 0.950 . S
H700 C705 0.950 . S
H701 C706 0.949 . S
H702 C708 0.950 . S
H703 C709 0.950 . S
H704 C710 0.949 . S
C705 H700 0.950 . S
C705 C707 1.327 . S
C705 C711 1.429 . S
C706 C698 1.574 . S
C706 H701 0.949 . S
C706 C712 1.368 . S
C707 C691 1.349 . S
C707 H699 0.950 . S
C707 C705 1.327 . S
C708 C696 1.349 . S
C708 H702 0.950 . S
C708 C709 1.327 . S
C709 H703 0.950 . S
C709 C708 1.327 . S
C709 C713 1.429 . S
C710 C693 1.574 . S
C710 H704 0.949 . S
C710 C714 1.368 . S
C711 C692 1.429 . S
C711 C705 1.429 . S
C711 C712 1.523 . S
C712 C693 1.368 . S
C712 C706 1.368 . S
C712 C711 1.523 . S
C713 C697 1.429 . S
C713 C709 1.429 . S
C713 C714 1.523 . S
C714 C698 1.368 . S
C714 C710 1.368 . S
C714 C713 1.523 . S
H715 C690 0.950 . S
H716 C692 0.950 . S
H717 C693 0.949 . S
H718 C695 0.950 . S
H719 C697 0.950 . S
C720 C721 1.349 . S
C720 C722 1.327 . S
C720 H745 0.950 . S
C721 C720 1.349 . S
C721 C737 1.349 1_455 S
C722 C720 1.327 . S
C722 C741 1.429 1_455 S
C722 H746 0.950 . S
C723 C740 1.574 . S
C723 C742 1.368 . S
C723 H747 0.949 . S
H724 C728 0.949 . S
C725 C726 1.349 . S
C725 C727 1.327 . S
C725 H748 0.950 . S
C726 C725 1.349 . S
C726 C738 1.349 . S
C727 C725 1.327 . S
C727 C743 1.429 . S
C727 H749 0.950 . S
C728 H724 0.949 . S
C728 C736 1.574 . S
C728 C744 1.368 . S
H729 C737 0.950 . S
H730 C735 0.950 . S
H731 C736 0.949 1_455 S
H732 C738 0.950 . S
H733 C739 0.950 . S
H734 C740 0.949 . S
C735 H730 0.950 . S
C735 C737 1.327 . S
C735 C741 1.429 . S
C736 C728 1.574 . S
C736 H731 0.949 1_655 S
C736 C742 1.368 . S
C737 C721 1.349 1_655 S
C737 H729 0.950 . S
C737 C735 1.327 . S
C738 C726 1.349 . S
C738 H732 0.950 . S
C738 C739 1.327 . S
C739 H733 0.950 . S
C739 C738 1.327 . S
C739 C743 1.429 . S
C740 C723 1.574 . S
C740 H734 0.949 . S
C740 C744 1.368 . S
C741 C722 1.429 1_655 S
C741 C735 1.429 . S
C741 C742 1.523 . S
C742 C723 1.368 . S
C742 C736 1.368 . S
C742 C741 1.523 . S
C743 C727 1.429 . S
C743 C739 1.429 . S
C743 C744 1.523 . S
C744 C728 1.368 . S
C744 C740 1.368 . S
C744 C743 1.523 . S
H745 C720 0.950 . S
H746 C722 0.950 . S
H747 C723 0.949 . S
H748 C725 0.950 . S
H749 C727 0.950 . S
C750 C751 1.349 1_565 S
C750 C752 1.327 . S
C750 H775 0.950 . S
C751 C750 1.349 1_545 S
C751 C767 1.349 . S
C752 C750 1.327 . S
C752 C771 1.429 . S
C752 H776 0.950 . S
C753 C770 1.574 . S
C753 C772 1.368 . S
C753 H777 0.949 1_565 S
H754 C758 0.949 . S
C755 C756 1.349 . S
C755 C757 1.327 . S
C755 H778 0.950 . S
C756 C755 1.349 . S
C756 C768 1.349 . S
C757 C755 1.327 . S
C757 C773 1.429 . S
C757 H779 0.950 . S
C758 H754 0.949 . S
C758 C766 1.574 . S
C758 C774 1.368 . S
H759 C767 0.950 . S
H760 C765 0.950 . S
H761 C766 0.949 . S
H762 C768 0.950 . S
H763 C769 0.950 . S
H764 C770 0.949 . S
C765 H760 0.950 . S
C765 C767 1.327 . S
C765 C771 1.429 1_545 S
C766 C758 1.574 . S
C766 H761 0.949 . S
C766 C772 1.368 . S
C767 C751 1.349 . S
C767 H759 0.950 . S
C767 C765 1.327 . S
C768 C756 1.349 . S
C768 H762 0.950 . S
C768 C769 1.327 . S
C769 H763 0.950 . S
C769 C768 1.327 . S
C769 C773 1.429 . S
C770 C753 1.574 . S
C770 H764 0.949 . S
C770 C774 1.368 . S
C771 C752 1.429 . S
C771 C765 1.429 1_565 S
C771 C772 1.523 . S
C772 C753 1.368 . S
C772 C766 1.368 . S
C772 C771 1.523 . S
C773 C757 1.429 . S
C773 C769 1.429 . S
C773 C774 1.523 . S
C774 C758 1.368 . S
C774 C770 1.368 . S
C774 C773 1.523 . S
H775 C750 0.950 . S
H776 C752 0.950 . S
H777 C753 0.949 1_545 S
H778 C755 0.950 . S
H779 C757 0.950 . S
C241 C172 1.133 . S
C246 C8 1.130 . S
C271 C212 1.133 . S
C276 C48 1.130 . S
C301 C12 1.133 . S
C306 C88 1.130 . S
C331 C52 1.133 . S
C336 C128 1.130 . S
C361 C92 1.133 . S
C366 C168 1.130 . S
C391 C132 1.133 . S
C396 C208 1.130 . S
C421 C17 0.615 . S
C426 C137 0.615 . S
C451 C177 0.615 . S
C456 C57 0.615 . S
C481 C217 0.615 . S
C486 C97 0.615 . S
C511 C82 0.584 . S
C516 C202 0.584 . S
C541 C2 0.586 . S
C546 C122 0.586 . S
C571 C162 0.585 . S
C576 C42 0.585 . S
C601 C231 1.136 . S
C606 C29 1.139 . S
C631 C69 1.139 . S
C636 C31 1.136 . S
C661 C109 1.139 . S
C666 C71 1.136 . S
C691 C111 1.136 . S
C696 C149 1.139 . S
C721 C189 1.139 . S
C726 C151 1.136 . S
C751 C229 1.139 . S
C756 C191 1.136 . S
