# Generated by pormake.
# Topology uow, (4)-cn, num edge types: 1
# Building blocks:
#     Node 0, Type 0, BuildingBlock: QUQFOY_clean_sbu_1, # of connection points: 4
#     Node 1, Type 0, BuildingBlock: QUQFOY_clean_sbu_1, # of connection points: 4
#     Node 2, Type 0, BuildingBlock: QUQFOY_clean_sbu_1, # of connection points: 4
#     Node 3, Type 0, BuildingBlock: QUQFOY_clean_sbu_1, # of connection points: 4
#     Node 4, Type 0, BuildingBlock: QUQFOY_clean_sbu_1, # of connection points: 4
#     Node 5, Type 0, BuildingBlock: QUQFOY_clean_sbu_1, # of connection points: 4
#     Node 6, Type 0, BuildingBlock: QUQFOY_clean_sbu_1, # of connection points: 4
#     Node 7, Type 0, BuildingBlock: QUQFOY_clean_sbu_1, # of connection points: 4
#     Node 8, Type 0, BuildingBlock: QUQFOY_clean_sbu_1, # of connection points: 4
#     Node 9, Type 0, BuildingBlock: QUQFOY_clean_sbu_1, # of connection points: 4
#     Node 10, Type 0, BuildingBlock: QUQFOY_clean_sbu_1, # of connection points: 4
#     Node 11, Type 0, BuildingBlock: QUQFOY_clean_sbu_1, # of connection points: 4
#     Node 12, Type 0, BuildingBlock: QUQFOY_clean_sbu_1, # of connection points: 4
#     Node 13, Type 0, BuildingBlock: QUQFOY_clean_sbu_1, # of connection points: 4
#     Node 14, Type 0, BuildingBlock: QUQFOY_clean_sbu_1, # of connection points: 4
#     Node 15, Type 0, BuildingBlock: QUQFOY_clean_sbu_1, # of connection points: 4
#     Node 16, Type 0, BuildingBlock: QUQFOY_clean_sbu_1, # of connection points: 4
#     Node 17, Type 0, BuildingBlock: QUQFOY_clean_sbu_1, # of connection points: 4
#     Node 18, Type 0, BuildingBlock: QUQFOY_clean_sbu_1, # of connection points: 4
#     Node 19, Type 0, BuildingBlock: QUQFOY_clean_sbu_1, # of connection points: 4
#     Node 20, Type 0, BuildingBlock: QUQFOY_clean_sbu_1, # of connection points: 4
#     Node 21, Type 0, BuildingBlock: QUQFOY_clean_sbu_1, # of connection points: 4
#     Node 22, Type 0, BuildingBlock: QUQFOY_clean_sbu_1, # of connection points: 4
#     Node 23, Type 0, BuildingBlock: QUQFOY_clean_sbu_1, # of connection points: 4
#     Node 24, Type 0, BuildingBlock: QUQFOY_clean_sbu_1, # of connection points: 4
#     Node 25, Type 0, BuildingBlock: QUQFOY_clean_sbu_1, # of connection points: 4
#     Node 26, Type 0, BuildingBlock: QUQFOY_clean_sbu_1, # of connection points: 4
#     Node 27, Type 0, BuildingBlock: QUQFOY_clean_sbu_1, # of connection points: 4
#     Node 28, Type 0, BuildingBlock: QUQFOY_clean_sbu_1, # of connection points: 4
#     Node 29, Type 0, BuildingBlock: QUQFOY_clean_sbu_1, # of connection points: 4
#     Node 30, Type 0, BuildingBlock: QUQFOY_clean_sbu_1, # of connection points: 4
#     Node 31, Type 0, BuildingBlock: QUQFOY_clean_sbu_1, # of connection points: 4
#     Edge 32, Type (0, 0), BuildingBlock: ZUJKAS_clean_linker_0, # of connection points: 2
#     Edge 33, Type (0, 0), BuildingBlock: ZUJKAS_clean_linker_0, # of connection points: 2
#     Edge 34, Type (0, 0), BuildingBlock: ZUJKAS_clean_linker_0, # of connection points: 2
#     Edge 35, Type (0, 0), BuildingBlock: ZUJKAS_clean_linker_0, # of connection points: 2
#     Edge 36, Type (0, 0), BuildingBlock: ZUJKAS_clean_linker_0, # of connection points: 2
#     Edge 37, Type (0, 0), BuildingBlock: ZUJKAS_clean_linker_0, # of connection points: 2
#     Edge 38, Type (0, 0), BuildingBlock: ZUJKAS_clean_linker_0, # of connection points: 2
#     Edge 39, Type (0, 0), BuildingBlock: ZUJKAS_clean_linker_0, # of connection points: 2
#     Edge 40, Type (0, 0), BuildingBlock: ZUJKAS_clean_linker_0, # of connection points: 2
#     Edge 41, Type (0, 0), BuildingBlock: ZUJKAS_clean_linker_0, # of connection points: 2
#     Edge 42, Type (0, 0), BuildingBlock: ZUJKAS_clean_linker_0, # of connection points: 2
#     Edge 43, Type (0, 0), BuildingBlock: ZUJKAS_clean_linker_0, # of connection points: 2
#     Edge 44, Type (0, 0), BuildingBlock: ZUJKAS_clean_linker_0, # of connection points: 2
#     Edge 45, Type (0, 0), BuildingBlock: ZUJKAS_clean_linker_0, # of connection points: 2
#     Edge 46, Type (0, 0), BuildingBlock: ZUJKAS_clean_linker_0, # of connection points: 2
#     Edge 47, Type (0, 0), BuildingBlock: ZUJKAS_clean_linker_0, # of connection points: 2
#     Edge 48, Type (0, 0), BuildingBlock: ZUJKAS_clean_linker_0, # of connection points: 2
#     Edge 49, Type (0, 0), BuildingBlock: ZUJKAS_clean_linker_0, # of connection points: 2
#     Edge 50, Type (0, 0), BuildingBlock: ZUJKAS_clean_linker_0, # of connection points: 2
#     Edge 51, Type (0, 0), BuildingBlock: ZUJKAS_clean_linker_0, # of connection points: 2
#     Edge 52, Type (0, 0), BuildingBlock: ZUJKAS_clean_linker_0, # of connection points: 2
#     Edge 53, Type (0, 0), BuildingBlock: ZUJKAS_clean_linker_0, # of connection points: 2
#     Edge 54, Type (0, 0), BuildingBlock: ZUJKAS_clean_linker_0, # of connection points: 2
#     Edge 55, Type (0, 0), BuildingBlock: ZUJKAS_clean_linker_0, # of connection points: 2
#     Edge 56, Type (0, 0), BuildingBlock: ZUJKAS_clean_linker_0, # of connection points: 2
#     Edge 57, Type (0, 0), BuildingBlock: ZUJKAS_clean_linker_0, # of connection points: 2
#     Edge 58, Type (0, 0), BuildingBlock: ZUJKAS_clean_linker_0, # of connection points: 2
#     Edge 59, Type (0, 0), BuildingBlock: ZUJKAS_clean_linker_0, # of connection points: 2
#     Edge 60, Type (0, 0), BuildingBlock: ZUJKAS_clean_linker_0, # of connection points: 2
#     Edge 61, Type (0, 0), BuildingBlock: ZUJKAS_clean_linker_0, # of connection points: 2
#     Edge 62, Type (0, 0), BuildingBlock: ZUJKAS_clean_linker_0, # of connection points: 2
#     Edge 63, Type (0, 0), BuildingBlock: ZUJKAS_clean_linker_0, # of connection points: 2
#     Edge 64, Type (0, 0), BuildingBlock: ZUJKAS_clean_linker_0, # of connection points: 2
#     Edge 65, Type (0, 0), BuildingBlock: ZUJKAS_clean_linker_0, # of connection points: 2
#     Edge 66, Type (0, 0), BuildingBlock: ZUJKAS_clean_linker_0, # of connection points: 2
#     Edge 67, Type (0, 0), BuildingBlock: ZUJKAS_clean_linker_0, # of connection points: 2
#     Edge 68, Type (0, 0), BuildingBlock: ZUJKAS_clean_linker_0, # of connection points: 2
#     Edge 69, Type (0, 0), BuildingBlock: ZUJKAS_clean_linker_0, # of connection points: 2
#     Edge 70, Type (0, 0), BuildingBlock: ZUJKAS_clean_linker_0, # of connection points: 2
#     Edge 71, Type (0, 0), BuildingBlock: ZUJKAS_clean_linker_0, # of connection points: 2
#     Edge 72, Type (0, 0), BuildingBlock: ZUJKAS_clean_linker_0, # of connection points: 2
#     Edge 73, Type (0, 0), BuildingBlock: ZUJKAS_clean_linker_0, # of connection points: 2
#     Edge 74, Type (0, 0), BuildingBlock: ZUJKAS_clean_linker_0, # of connection points: 2
#     Edge 75, Type (0, 0), BuildingBlock: ZUJKAS_clean_linker_0, # of connection points: 2
#     Edge 76, Type (0, 0), BuildingBlock: ZUJKAS_clean_linker_0, # of connection points: 2
#     Edge 77, Type (0, 0), BuildingBlock: ZUJKAS_clean_linker_0, # of connection points: 2
#     Edge 78, Type (0, 0), BuildingBlock: ZUJKAS_clean_linker_0, # of connection points: 2
#     Edge 79, Type (0, 0), BuildingBlock: ZUJKAS_clean_linker_0, # of connection points: 2
#     Edge 80, Type (0, 0), BuildingBlock: ZUJKAS_clean_linker_0, # of connection points: 2
#     Edge 81, Type (0, 0), BuildingBlock: ZUJKAS_clean_linker_0, # of connection points: 2
#     Edge 82, Type (0, 0), BuildingBlock: ZUJKAS_clean_linker_0, # of connection points: 2
#     Edge 83, Type (0, 0), BuildingBlock: ZUJKAS_clean_linker_0, # of connection points: 2
#     Edge 84, Type (0, 0), BuildingBlock: ZUJKAS_clean_linker_0, # of connection points: 2
#     Edge 85, Type (0, 0), BuildingBlock: ZUJKAS_clean_linker_0, # of connection points: 2
#     Edge 86, Type (0, 0), BuildingBlock: ZUJKAS_clean_linker_0, # of connection points: 2
#     Edge 87, Type (0, 0), BuildingBlock: ZUJKAS_clean_linker_0, # of connection points: 2
#     Edge 88, Type (0, 0), BuildingBlock: ZUJKAS_clean_linker_0, # of connection points: 2
#     Edge 89, Type (0, 0), BuildingBlock: ZUJKAS_clean_linker_0, # of connection points: 2
#     Edge 90, Type (0, 0), BuildingBlock: ZUJKAS_clean_linker_0, # of connection points: 2
#     Edge 91, Type (0, 0), BuildingBlock: ZUJKAS_clean_linker_0, # of connection points: 2
#     Edge 92, Type (0, 0), BuildingBlock: ZUJKAS_clean_linker_0, # of connection points: 2
#     Edge 93, Type (0, 0), BuildingBlock: ZUJKAS_clean_linker_0, # of connection points: 2
#     Edge 94, Type (0, 0), BuildingBlock: ZUJKAS_clean_linker_0, # of connection points: 2
#     Edge 95, Type (0, 0), BuildingBlock: ZUJKAS_clean_linker_0, # of connection points: 2
# Relax obj value: 0.128
# Max RMSD: 0.125
# Mean RMSD: 0.125
data_MOF--net-uow--node1-QUQFOY_clean_sbu_1--edge1-ZUJKAS_clean_linker_0
_symmetry_space_group_name_H-M    P1
_symmetry_Int_Tables_number       1
_symmetry_cell_setting            triclinic
loop_
_symmetry_equiv_pos_as_xyz
'x, y, z'
_cell_length_a     83.124159
_cell_length_b     83.120667
_cell_length_c     56.733045
_cell_angle_alpha  89.993438
_cell_angle_beta   89.992354
_cell_angle_gamma 90.004948
loop_
_atom_site_label
_atom_site_type_symbol
_atom_site_fract_x
_atom_site_fract_y
_atom_site_fract_z
_atom_type_partial_charge
O0 O 0.0276 0.38947 0.31235 0.0
Cd1 Cd 0.05161 0.39442 0.30649 0.0
Cd2 Cd 0.04918 0.36934 0.27641 0.0
O3 O 0.02498 0.37097 0.28475 0.0
O4 O 0.05523 0.41749 0.31447 0.0
O5 O 0.05774 0.40771 0.27834 0.0
C6 C 0.05811 0.41996 0.2924 0.0
C7 C 0.05703 0.36381 0.23755 0.0
C8 C 0.01887 0.37958 0.301 0.0
C9 C 0.07067 0.36563 0.31946 0.0
O10 O 0.06403 0.35929 0.30154 0.0
O11 O 0.06802 0.3803 0.32451 0.0
O12 O 0.05016 0.35313 0.25055 0.0
O13 O 0.05896 0.37802 0.24633 0.0
O14 O 0.86315 0.77849 0.56215 0.0
Cd15 Cd 0.85838 0.80249 0.55601 0.0
Cd16 Cd 0.88302 0.79956 0.52527 0.0
O17 O 0.8813 0.77543 0.53414 0.0
O18 O 0.83536 0.80644 0.56409 0.0
O19 O 0.84506 0.80847 0.52784 0.0
C20 C 0.83286 0.80909 0.54197 0.0
C21 C 0.88835 0.80721 0.48627 0.0
C22 C 0.87284 0.76957 0.55075 0.0
C23 C 0.88748 0.82131 0.56793 0.0
O24 O 0.89346 0.81452 0.54987 0.0
O25 O 0.87288 0.81883 0.57354 0.0
O26 O 0.89904 0.80024 0.49913 0.0
O27 O 0.87422 0.80926 0.49522 0.0
O28 O 0.47695 0.61426 0.80956 0.0
Cd29 Cd 0.45294 0.60972 0.8029 0.0
Cd30 Cd 0.45621 0.63492 0.77304 0.0
O31 O 0.48001 0.63379 0.78359 0.0
O32 O 0.4489 0.5869 0.81196 0.0
O33 O 0.4471 0.59577 0.77525 0.0
C34 C 0.44635 0.5839 0.78995 0.0
C35 C 0.4495 0.63944 0.73351 0.0
C36 C 0.4858 0.62467 0.79948 0.0
C37 C 0.43352 0.63881 0.81442 0.0
O38 O 0.4404 0.64505 0.79663 0.0
O39 O 0.43635 0.62426 0.82002 0.0
O40 O 0.45605 0.65045 0.74627 0.0
O41 O 0.4473 0.62547 0.74293 0.0
O42 O 0.64029 0.22596 0.06181 0.0
Cd43 Cd 0.64534 0.20202 0.05544 0.0
Cd44 Cd 0.62029 0.20478 0.02526 0.0
O45 O 0.62199 0.2289 0.03399 0.0
O46 O 0.66828 0.1984 0.06414 0.0
O47 O 0.65915 0.19633 0.0276 0.0
C48 C 0.67115 0.19583 0.0421 0.0
C49 C 0.61474 0.19717 0.98633 0.0
C50 C 0.6305 0.23482 0.05049 0.0
C51 C 0.6165 0.18281 0.06776 0.0
O52 O 0.61016 0.18974 0.05008 0.0
O53 O 0.63118 0.18533 0.07284 0.0
O54 O 0.60409 0.20401 0.99939 0.0
O55 O 0.62895 0.19517 0.99506 0.0
O56 O 0.0282 0.61353 0.19166 0.0
Cd57 Cd 0.05232 0.60908 0.19749 0.0
Cd58 Cd 0.04941 0.63441 0.22721 0.0
O59 O 0.02547 0.63325 0.21742 0.0
O60 O 0.05627 0.58621 0.18859 0.0
O61 O 0.05861 0.5953 0.22511 0.0
C62 C 0.05914 0.58334 0.21055 0.0
C63 C 0.0567 0.63942 0.2664 0.0
C64 C 0.01948 0.62399 0.20186 0.0
C65 C 0.07146 0.63814 0.18499 0.0
O66 O 0.06487 0.64438 0.203 0.0
O67 O 0.06858 0.62357 0.17955 0.0
O68 O 0.05017 0.65033 0.25343 0.0
O69 O 0.05848 0.62525 0.25743 0.0
O70 O 0.63946 0.77707 0.43897 0.0
Cd71 Cd 0.64405 0.80114 0.44544 0.0
Cd72 Cd 0.61928 0.79738 0.47581 0.0
O73 O 0.62174 0.77332 0.4674 0.0
O74 O 0.66692 0.80522 0.43669 0.0
O75 O 0.6578 0.807 0.47328 0.0
C76 C 0.66977 0.80776 0.45875 0.0
C77 C 0.61308 0.80502 0.5145 0.0
C78 C 0.63018 0.7678 0.45054 0.0
C79 C 0.61463 0.81914 0.43314 0.0
O80 O 0.60865 0.81171 0.45064 0.0
O81 O 0.62948 0.81762 0.42827 0.0
O82 O 0.60267 0.7981 0.50112 0.0
O83 O 0.62743 0.80707 0.5063 0.0
O84 O 0.4774 0.38997 0.68928 0.0
Cd85 Cd 0.45342 0.39432 0.6967 0.0
Cd86 Cd 0.45772 0.36988 0.72681 0.0
O87 O 0.48172 0.37304 0.71849 0.0
O88 O 0.44893 0.41718 0.68825 0.0
O89 O 0.44799 0.40792 0.72483 0.0
C90 C 0.44683 0.41993 0.71044 0.0
C91 C 0.44977 0.36513 0.76579 0.0
C92 C 0.48696 0.38119 0.70115 0.0
C93 C 0.43567 0.36449 0.68509 0.0
O94 O 0.44372 0.35843 0.70195 0.0
O95 O 0.43669 0.37945 0.68063 0.0
O96 O 0.4577 0.35459 0.75389 0.0
O97 O 0.44681 0.37879 0.75583 0.0
O98 O 0.86471 0.22582 0.93802 0.0
Cd99 Cd 0.85946 0.20178 0.943 0.0
Cd100 Cd 0.8863 0.20304 0.97083 0.0
O101 O 0.88612 0.22704 0.96099 0.0
O102 O 0.83619 0.19895 0.93558 0.0
O103 O 0.84637 0.19526 0.97123 0.0
C104 C 0.83394 0.19554 0.95752 0.0
C105 C 0.89331 0.19584 0.0094 0.0
C106 C 0.87625 0.23378 0.94698 0.0
C107 C 0.88685 0.1812 0.92781 0.0
O108 O 0.89395 0.18683 0.94583 0.0
O109 O 0.87249 0.18539 0.92312 0.0
O110 O 0.90382 0.2011 0.99462 0.0
O111 O 0.87849 0.19526 0.00265 0.0
O112 O 0.97629 0.61443 0.68903 0.0
Cd113 Cd 0.95227 0.60953 0.69488 0.0
Cd114 Cd 0.95488 0.63425 0.72566 0.0
O115 O 0.97905 0.63262 0.71703 0.0
O116 O 0.94849 0.58651 0.68666 0.0
O117 O 0.94616 0.59612 0.72292 0.0
C118 C 0.94567 0.58395 0.70873 0.0
C119 C 0.94714 0.63963 0.76462 0.0
C120 C 0.98508 0.62417 0.70055 0.0
C121 C 0.93324 0.63848 0.6828 0.0
O122 O 0.9399 0.64453 0.70091 0.0
O123 O 0.9359 0.62391 0.67722 0.0
O124 O 0.95403 0.65034 0.75169 0.0
O125 O 0.9452 0.62546 0.75575 0.0
O126 O 0.14166 0.227 0.43946 0.0
Cd127 Cd 0.14633 0.20296 0.44542 0.0
Cd128 Cd 0.12194 0.20598 0.4766 0.0
O129 O 0.12391 0.23013 0.468 0.0
O130 O 0.16924 0.19889 0.43694 0.0
O131 O 0.15982 0.19685 0.47335 0.0
C132 C 0.1719 0.19617 0.45901 0.0
C133 C 0.11662 0.19823 0.51556 0.0
C134 C 0.13222 0.23598 0.45123 0.0
C135 C 0.11704 0.18432 0.43394 0.0
O136 O 0.11121 0.1912 0.45203 0.0
O137 O 0.13163 0.18667 0.42817 0.0
O138 O 0.106 0.20541 0.50284 0.0
O139 O 0.13071 0.19603 0.5065 0.0
O140 O 0.52761 0.39034 0.18879 0.0
Cd141 Cd 0.5517 0.39487 0.19462 0.0
Cd142 Cd 0.54876 0.37001 0.22494 0.0
O143 O 0.52458 0.37212 0.21668 0.0
O144 O 0.55575 0.41785 0.18646 0.0
O145 O 0.55796 0.40817 0.2227 0.0
C146 C 0.55857 0.42035 0.20854 0.0
C147 C 0.5567 0.36463 0.26379 0.0
C148 C 0.51867 0.38073 0.20029 0.0
C149 C 0.57016 0.36565 0.18194 0.0
O150 O 0.56335 0.35952 0.19987 0.0
O151 O 0.56787 0.38036 0.17678 0.0
O152 O 0.54955 0.35399 0.25106 0.0
O153 O 0.55883 0.37874 0.25476 0.0
O154 O 0.36351 0.77848 0.93613 0.0
Cd155 Cd 0.35925 0.80223 0.94472 0.0
Cd156 Cd 0.38352 0.79765 0.97511 0.0
O157 O 0.38064 0.77386 0.96506 0.0
O158 O 0.33637 0.8078 0.93771 0.0
O159 O 0.34628 0.8061 0.97396 0.0
C160 C 0.33411 0.80847 0.9602 0.0
C161 C 0.38853 0.80451 0.01449 0.0
C162 C 0.37248 0.76884 0.94755 0.0
C163 C 0.38904 0.82045 0.93423 0.0
O164 O 0.39492 0.81253 0.95134 0.0
O165 O 0.37423 0.81904 0.92906 0.0
O166 O 0.39909 0.79716 0.00185 0.0
O167 O 0.37467 0.80735 0.00508 0.0
O168 O 0.97676 0.39083 0.81118 0.0
Cd169 Cd 0.95279 0.39483 0.80348 0.0
Cd170 Cd 0.95769 0.37067 0.77313 0.0
O171 O 0.98158 0.37408 0.78191 0.0
O172 O 0.94786 0.41748 0.81252 0.0
O173 O 0.94733 0.40874 0.77566 0.0
C174 C 0.94589 0.42052 0.79039 0.0
C175 C 0.95004 0.36586 0.73404 0.0
C176 C 0.98655 0.38222 0.79944 0.0
C177 C 0.93561 0.36458 0.81463 0.0
O178 O 0.94376 0.35881 0.79767 0.0
O179 O 0.93635 0.37952 0.81934 0.0
O180 O 0.95813 0.35546 0.74597 0.0
O181 O 0.94679 0.37945 0.74401 0.0
O182 O 0.3652 0.22712 0.56007 0.0
Cd183 Cd 0.36125 0.20304 0.55277 0.0
Cd184 Cd 0.38665 0.20748 0.52399 0.0
O185 O 0.38409 0.23132 0.53343 0.0
O186 O 0.33851 0.19848 0.56175 0.0
O187 O 0.34735 0.19736 0.52498 0.0
C188 C 0.33551 0.19623 0.53967 0.0
C189 C 0.39157 0.19992 0.48492 0.0
C190 C 0.37494 0.23656 0.54967 0.0
C191 C 0.39098 0.18499 0.56533 0.0
O192 O 0.39739 0.19284 0.54858 0.0
O193 O 0.376 0.1864 0.56951 0.0
O194 O 0.4022 0.20742 0.49726 0.0
O195 O 0.37771 0.19727 0.49447 0.0
O196 O 0.527 0.6136 0.31017 0.0
Cd197 Cd 0.55114 0.60923 0.30428 0.0
Cd198 Cd 0.54824 0.63487 0.27515 0.0
O199 O 0.52422 0.63331 0.28443 0.0
O200 O 0.55508 0.58635 0.31309 0.0
O201 O 0.55744 0.5955 0.2766 0.0
C202 C 0.55796 0.58351 0.29112 0.0
C203 C 0.55583 0.64018 0.23616 0.0
C204 C 0.51823 0.624 0.29991 0.0
C205 C 0.57004 0.63829 0.31762 0.0
O206 O 0.56335 0.6448 0.29989 0.0
O207 O 0.56737 0.62358 0.32244 0.0
O208 O 0.54887 0.65089 0.24902 0.0
O209 O 0.55793 0.62605 0.24514 0.0
O210 O 0.14016 0.77909 0.06557 0.0
Cd211 Cd 0.145 0.80283 0.05756 0.0
Cd212 Cd 0.1201 0.7993 0.0272 0.0
O213 O 0.122 0.77549 0.03766 0.0
O214 O 0.16805 0.8077 0.06426 0.0
O215 O 0.15778 0.80684 0.02816 0.0
C216 C 0.17012 0.80873 0.04176 0.0
C217 C 0.11373 0.80551 0.98801 0.0
C218 C 0.13045 0.76996 0.05453 0.0
C219 C 0.11618 0.82242 0.06842 0.0
O220 O 0.11003 0.81515 0.05092 0.0
O221 O 0.13078 0.81993 0.074 0.0
O222 O 0.1033 0.79936 0.00215 0.0
O223 O 0.1282 0.80751 0.99575 0.0
O224 O 0.53009 0.8907 0.81516 0.0
Cd225 Cd 0.55389 0.89629 0.80882 0.0
Cd226 Cd 0.55159 0.87081 0.77851 0.0
O227 O 0.52756 0.87173 0.78819 0.0
O228 O 0.55696 0.91937 0.81717 0.0
O229 O 0.5594 0.91002 0.7808 0.0
C230 C 0.5596 0.92213 0.79512 0.0
C231 C 0.55854 0.86372 0.73984 0.0
C232 C 0.52148 0.8804 0.8044 0.0
C233 C 0.57413 0.86824 0.82093 0.0
O234 O 0.56755 0.86185 0.80302 0.0
O235 O 0.57087 0.88268 0.82652 0.0
O236 O 0.55272 0.8534 0.75444 0.0
O237 O 0.55976 0.87847 0.74676 0.0
O238 O 0.36356 0.27845 0.06115 0.0
Cd239 Cd 0.35926 0.30255 0.05505 0.0
Cd240 Cd 0.38472 0.29968 0.02581 0.0
O241 O 0.38333 0.27573 0.03551 0.0
O242 O 0.33627 0.30666 0.06307 0.0
O243 O 0.34603 0.30879 0.02689 0.0
C244 C 0.33382 0.30942 0.04097 0.0
C245 C 0.38952 0.3068 0.98649 0.0
C246 C 0.37404 0.26972 0.051 0.0
C247 C 0.38832 0.32157 0.06811 0.0
O248 O 0.39475 0.315 0.05021 0.0
O249 O 0.37367 0.31877 0.07316 0.0
O250 O 0.40042 0.30005 0.99923 0.0
O251 O 0.37554 0.30907 0.99584 0.0
O252 O 0.97577 0.11556 0.31287 0.0
Cd253 Cd 0.95193 0.11049 0.30555 0.0
Cd254 Cd 0.95541 0.13581 0.27596 0.0
O255 O 0.97933 0.13408 0.28552 0.0
O256 O 0.94826 0.08739 0.31335 0.0
O257 O 0.94666 0.09712 0.27708 0.0
C258 C 0.94597 0.08489 0.29114 0.0
C259 C 0.94856 0.14201 0.23695 0.0
C260 C 0.98489 0.12541 0.30211 0.0
C261 C 0.93266 0.1392 0.31778 0.0
O262 O 0.94005 0.14563 0.30058 0.0
O263 O 0.93481 0.12441 0.32255 0.0
O264 O 0.95475 0.15257 0.25085 0.0
O265 O 0.94677 0.12756 0.24488 0.0
O266 O 0.14131 0.72689 0.56279 0.0
Cd267 Cd 0.1458 0.70275 0.5573 0.0
Cd268 Cd 0.12101 0.70563 0.52682 0.0
O269 O 0.1233 0.72987 0.53458 0.0
O270 O 0.16869 0.69876 0.56601 0.0
O271 O 0.15942 0.69631 0.5296 0.0
C272 C 0.17145 0.69581 0.54404 0.0
C273 C 0.11551 0.69738 0.48816 0.0
C274 C 0.13185 0.73583 0.55101 0.0
C275 C 0.11642 0.68455 0.57011 0.0
O276 O 0.11036 0.69136 0.55213 0.0
O277 O 0.13116 0.68671 0.57523 0.0
O278 O 0.10496 0.70477 0.50075 0.0
O279 O 0.12961 0.69519 0.49719 0.0
O280 O 0.52761 0.11411 0.68954 0.0
Cd281 Cd 0.55181 0.11023 0.69597 0.0
Cd282 Cd 0.54787 0.13573 0.72479 0.0
O283 O 0.52394 0.13344 0.71568 0.0
O284 O 0.55631 0.08728 0.6881 0.0
O285 O 0.55794 0.0971 0.7243 0.0
C286 C 0.55889 0.08488 0.71027 0.0
C287 C 0.55562 0.14079 0.76375 0.0
C288 C 0.5184 0.12408 0.69991 0.0
C289 C 0.56991 0.13975 0.68271 0.0
O290 O 0.56252 0.14614 0.69993 0.0
O291 O 0.56815 0.12484 0.67832 0.0
O292 O 0.54849 0.15155 0.75118 0.0
O293 O 0.55778 0.12676 0.7545 0.0
O294 O 0.1398 0.27787 0.93823 0.0
Cd295 Cd 0.14493 0.30177 0.94473 0.0
Cd296 Cd 0.12019 0.299 0.97546 0.0
O297 O 0.12165 0.27493 0.96625 0.0
O298 O 0.16784 0.30546 0.93591 0.0
O299 O 0.15879 0.3074 0.97252 0.0
C300 C 0.17075 0.308 0.95795 0.0
C301 C 0.11493 0.30624 0.01465 0.0
C302 C 0.13001 0.26903 0.94957 0.0
C303 C 0.11611 0.32123 0.93328 0.0
O304 O 0.10996 0.31435 0.95114 0.0
O305 O 0.13068 0.31853 0.92769 0.0
O306 O 0.10417 0.29957 0.00158 0.0
O307 O 0.12909 0.30828 0.00575 0.0
O308 O 0.97523 0.89105 0.18879 0.0
Cd309 Cd 0.95125 0.89577 0.19533 0.0
Cd310 Cd 0.9545 0.87077 0.22533 0.0
O311 O 0.97859 0.87274 0.21648 0.0
O312 O 0.94737 0.91867 0.18658 0.0
O313 O 0.94543 0.90956 0.22315 0.0
C314 C 0.94481 0.92154 0.20863 0.0
C315 C 0.9468 0.86548 0.26431 0.0
C316 C 0.9843 0.88136 0.19994 0.0
C317 C 0.93253 0.86662 0.18296 0.0
O318 O 0.93962 0.86038 0.20058 0.0
O319 O 0.93475 0.88136 0.17794 0.0
O320 O 0.95382 0.85478 0.25151 0.0
O321 O 0.94472 0.8796 0.25529 0.0
O322 O 0.36372 0.72736 0.43798 0.0
Cd323 Cd 0.35976 0.70336 0.44572 0.0
Cd324 Cd 0.38436 0.70826 0.47526 0.0
O325 O 0.38051 0.73221 0.4672 0.0
O326 O 0.33685 0.69852 0.43795 0.0
O327 O 0.34658 0.69791 0.47428 0.0
C328 C 0.33441 0.69652 0.46024 0.0
C329 C 0.38978 0.70014 0.51398 0.0
C330 C 0.37225 0.73718 0.44979 0.0
C331 C 0.38978 0.68624 0.43346 0.0
O332 O 0.39584 0.69456 0.45003 0.0
O333 O 0.37473 0.68681 0.42946 0.0
O334 O 0.39999 0.7084 0.50193 0.0
O335 O 0.37604 0.69701 0.50438 0.0
O336 O 0.47718 0.11349 0.18819 0.0
Cd337 Cd 0.45315 0.10965 0.19579 0.0
Cd338 Cd 0.45811 0.13379 0.22607 0.0
O339 O 0.482 0.13008 0.21766 0.0
O340 O 0.44805 0.0869 0.18742 0.0
O341 O 0.44758 0.0962 0.224 0.0
C342 C 0.44604 0.08421 0.20964 0.0
C343 C 0.4503 0.13854 0.26512 0.0
C344 C 0.48699 0.12196 0.20013 0.0
C345 C 0.43622 0.13994 0.1844 0.0
O346 O 0.44446 0.14571 0.20127 0.0
O347 O 0.43675 0.12496 0.17989 0.0
O348 O 0.45847 0.14896 0.2533 0.0
O349 O 0.447 0.12502 0.25502 0.0
O350 O 0.64145 0.7273 0.9402 0.0
Cd351 Cd 0.64528 0.70319 0.94731 0.0
Cd352 Cd 0.621 0.70792 0.97744 0.0
O353 O 0.62461 0.73189 0.96945 0.0
O354 O 0.66809 0.69831 0.93898 0.0
O355 O 0.65868 0.69735 0.97548 0.0
C356 C 0.67073 0.69607 0.96117 0.0
C357 C 0.61618 0.69977 0.01633 0.0
C358 C 0.63287 0.73701 0.95214 0.0
C359 C 0.61503 0.68636 0.9353 0.0
O360 O 0.60922 0.69443 0.95232 0.0
O361 O 0.63003 0.68693 0.93089 0.0
O362 O 0.60572 0.7079 0.00455 0.0
O363 O 0.62979 0.69671 0.00629 0.0
O364 O 0.02881 0.88962 0.68829 0.0
Cd365 Cd 0.05273 0.89494 0.69417 0.0
Cd366 Cd 0.05059 0.86916 0.72369 0.0
O367 O 0.02646 0.87027 0.71471 0.0
O368 O 0.05586 0.91815 0.68662 0.0
O369 O 0.0587 0.9081 0.72254 0.0
C370 C 0.05879 0.92047 0.70871 0.0
C371 C 0.05802 0.86205 0.76214 0.0
C372 C 0.02025 0.87921 0.69893 0.0
C373 C 0.07251 0.86685 0.68061 0.0
O374 O 0.06611 0.86027 0.69851 0.0
O375 O 0.06935 0.88142 0.67559 0.0
O376 O 0.052 0.85173 0.74771 0.0
O377 O 0.05922 0.87679 0.75516 0.0
O378 O 0.86297 0.27624 0.44137 0.0
Cd379 Cd 0.85934 0.30055 0.44671 0.0
Cd380 Cd 0.88488 0.29733 0.47585 0.0
O381 O 0.88283 0.27331 0.46682 0.0
O382 O 0.83647 0.3051 0.43842 0.0
O383 O 0.84615 0.30744 0.47461 0.0
C384 C 0.834 0.30818 0.46043 0.0
C385 C 0.8897 0.30493 0.51495 0.0
C386 C 0.87325 0.26736 0.45166 0.0
C387 C 0.88888 0.31873 0.4331 0.0
O388 O 0.89521 0.31214 0.45105 0.0
O389 O 0.87414 0.31624 0.42822 0.0
O390 O 0.90049 0.29775 0.50252 0.0
O391 O 0.87579 0.30735 0.50542 0.0
O392 O 0.47578 0.88988 0.3094 0.0
Cd393 Cd 0.4517 0.89493 0.3045 0.0
Cd394 Cd 0.45309 0.8683 0.27642 0.0
O395 O 0.47713 0.86871 0.28598 0.0
O396 O 0.44879 0.91797 0.31318 0.0
O397 O 0.44518 0.90874 0.27698 0.0
C398 C 0.44542 0.9208 0.29137 0.0
C399 C 0.44567 0.86241 0.23753 0.0
C400 C 0.48383 0.87851 0.30013 0.0
C401 C 0.43134 0.86708 0.31925 0.0
O402 O 0.43709 0.86001 0.30128 0.0
O403 O 0.43535 0.88149 0.32394 0.0
O404 O 0.45156 0.8516 0.25131 0.0
O405 O 0.44454 0.87692 0.24555 0.0
O406 O 0.86414 0.72668 0.0623 0.0
Cd407 Cd 0.85998 0.70261 0.05524 0.0
Cd408 Cd 0.88442 0.70711 0.02515 0.0
O409 O 0.88117 0.73112 0.03322 0.0
O410 O 0.83724 0.69801 0.0642 0.0
O411 O 0.84615 0.69682 0.02746 0.0
C412 C 0.83429 0.69569 0.04212 0.0
C413 C 0.8895 0.69886 0.98637 0.0
C414 C 0.87291 0.73631 0.0505 0.0
C415 C 0.88998 0.68541 0.06734 0.0
O416 O 0.89589 0.69341 0.05032 0.0
O417 O 0.875 0.68619 0.07175 0.0
O418 O 0.90001 0.70672 0.99845 0.0
O419 O 0.87566 0.69622 0.996 0.0
O420 O 0.0263 0.11361 0.81004 0.0
Cd421 Cd 0.05049 0.10921 0.80483 0.0
Cd422 Cd 0.04765 0.13399 0.77434 0.0
O423 O 0.02338 0.13163 0.78183 0.0
O424 O 0.05452 0.08636 0.81376 0.0
O425 O 0.05712 0.09552 0.7773 0.0
C426 C 0.0576 0.08354 0.79184 0.0
C427 C 0.05617 0.1393 0.73575 0.0
C428 C 0.01737 0.12304 0.79818 0.0
C429 C 0.06856 0.13863 0.81777 0.0
O430 O 0.06179 0.14469 0.79976 0.0
O431 O 0.06641 0.12389 0.82286 0.0
O432 O 0.04873 0.14993 0.74814 0.0
O433 O 0.05824 0.12523 0.74494 0.0
O434 O 0.64048 0.27702 0.55952 0.0
Cd435 Cd 0.64487 0.30125 0.55444 0.0
Cd436 Cd 0.61897 0.29875 0.52548 0.0
O437 O 0.62027 0.27467 0.53452 0.0
O438 O 0.66774 0.30498 0.5635 0.0
O439 O 0.65871 0.30792 0.52705 0.0
C440 C 0.67065 0.30818 0.54166 0.0
C441 C 0.61375 0.3065 0.48655 0.0
C442 C 0.62984 0.26845 0.54945 0.0
C443 C 0.61599 0.32034 0.56828 0.0
O444 O 0.6094 0.31396 0.55037 0.0
O445 O 0.63063 0.31734 0.57311 0.0
O446 O 0.60287 0.29991 0.49951 0.0
O447 O 0.62798 0.30814 0.4954 0.0
H448 H 0.07302 0.38302 0.20579 0.0
H449 H 0.08458 0.37492 0.16777 0.0
H450 H 0.06674 0.32672 0.17808 0.0
H451 H 0.05525 0.33462 0.21591 0.0
H452 H 0.10002 0.32878 0.16482 0.0
H453 H 0.05976 0.36412 0.10592 0.0
H454 H 0.06945 0.37495 0.12942 0.0
H455 H 0.05472 0.35988 0.13626 0.0
C456 C 0.07144 0.37074 0.19984 0.0
C457 C 0.06318 0.35948 0.21386 0.0
C458 C 0.07803 0.36614 0.17812 0.0
C459 C 0.07645 0.35023 0.1701 0.0
C460 C 0.06811 0.33905 0.18397 0.0
H461 H 0.08592 0.30395 0.03671 0.0
H462 H 0.0781 0.31522 0.0747 0.0
C463 C 0.0615 0.34362 0.20557 0.0
C464 C 0.08367 0.34499 0.14747 0.0
H465 H 0.07993 0.34854 0.08777 0.0
C466 C 0.09575 0.33319 0.14795 0.0
C467 C 0.07796 0.3507 0.12554 0.0
C468 C 0.06468 0.36303 0.12406 0.0
C469 C 0.10212 0.32675 0.12704 0.0
C470 C 0.09631 0.33235 0.10512 0.0
C471 C 0.08441 0.34434 0.10464 0.0
C472 C 0.10156 0.32514 0.08249 0.0
C473 C 0.11457 0.31358 0.12852 0.0
C474 C 0.11741 0.32689 0.07432 0.0
C475 C 0.12197 0.32042 0.0525 0.0
C476 C 0.11071 0.31212 0.03852 0.0
C477 C 0.09492 0.31023 0.047 0.0
C478 C 0.09039 0.31672 0.0687 0.0
H479 H 0.11576 0.30872 0.14668 0.0
H480 H 0.11146 0.30355 0.11641 0.0
H481 H 0.12643 0.31843 0.12303 0.0
H482 H 0.12617 0.33351 0.08461 0.0
H483 H 0.13419 0.32216 0.04641 0.0
H484 H 0.94838 0.83632 0.2861 0.0
H485 H 0.93638 0.82845 0.3236 0.0
H486 H 0.91885 0.87677 0.33369 0.0
H487 H 0.93089 0.88484 0.29594 0.0
H488 H 0.93407 0.86215 0.37442 0.0
H489 H 0.88721 0.82307 0.33483 0.0
H490 H 0.90723 0.81906 0.32444 0.0
H491 H 0.89797 0.83811 0.3181 0.0
C492 C 0.94204 0.84534 0.29628 0.0
C493 C 0.94053 0.86121 0.28795 0.0
C494 C 0.9351 0.84077 0.31765 0.0
C495 C 0.92648 0.85194 0.33117 0.0
C496 C 0.92534 0.86793 0.32336 0.0
H497 H 0.86907 0.82321 0.45463 0.0
H498 H 0.8772 0.83525 0.41692 0.0
C499 C 0.93225 0.87252 0.30184 0.0
C500 C 0.91884 0.8468 0.35355 0.0
H501 H 0.89168 0.82009 0.3762 0.0
C502 C 0.92468 0.8531 0.37483 0.0
C503 C 0.90644 0.83514 0.35401 0.0
C504 C 0.89921 0.82853 0.33162 0.0
C505 C 0.91894 0.84748 0.39662 0.0
C506 C 0.90718 0.83516 0.39707 0.0
C507 C 0.9008 0.82942 0.37579 0.0
C508 C 0.902 0.82754 0.41945 0.0
C509 C 0.92563 0.85463 0.419 0.0
C510 C 0.91314 0.81886 0.43296 0.0
C511 C 0.90853 0.81192 0.45432 0.0
C512 C 0.89266 0.81348 0.46263 0.0
C513 C 0.88138 0.82181 0.44874 0.0
C514 C 0.88601 0.82872 0.42724 0.0
H515 H 0.93115 0.86661 0.41582 0.0
H516 H 0.9161 0.85589 0.43259 0.0
H517 H 0.93509 0.84655 0.4261 0.0
H518 H 0.92545 0.81754 0.42702 0.0
H519 H 0.91752 0.80554 0.4645 0.0
H520 H 0.45624 0.66618 0.70755 0.0
H521 H 0.4449 0.67386 0.66943 0.0
H522 H 0.41825 0.62943 0.66688 0.0
H523 H 0.42966 0.6215 0.70513 0.0
H524 H 0.44412 0.65115 0.62288 0.0
H525 H 0.38615 0.6722 0.66162 0.0
H526 H 0.40456 0.67259 0.67855 0.0
H527 H 0.39524 0.65373 0.67174 0.0
C528 C 0.4481 0.65793 0.69882 0.0
C529 C 0.44383 0.64323 0.70939 0.0
C530 C 0.44164 0.66236 0.67705 0.0
C531 C 0.43068 0.65226 0.66553 0.0
C532 C 0.42666 0.63739 0.67564 0.0
H533 H 0.37373 0.67768 0.54056 0.0
H534 H 0.38304 0.66492 0.57711 0.0
C535 C 0.43323 0.63287 0.6974 0.0
C536 C 0.42326 0.65762 0.64319 0.0
H537 H 0.39024 0.67689 0.62116 0.0
C538 C 0.43228 0.65664 0.62239 0.0
C539 C 0.4078 0.66466 0.64271 0.0
C540 C 0.39777 0.66595 0.66478 0.0
C541 C 0.42634 0.66282 0.60107 0.0
C542 C 0.41115 0.67057 0.60075 0.0
C543 C 0.40191 0.67105 0.62146 0.0
C544 C 0.40502 0.6788 0.57932 0.0
C545 C 0.43638 0.66093 0.57908 0.0
C546 C 0.41398 0.69122 0.56892 0.0
C547 C 0.40874 0.69847 0.54809 0.0
C548 C 0.39429 0.6936 0.53736 0.0
C549 C 0.38492 0.68169 0.54838 0.0
C550 C 0.39024 0.67435 0.56922 0.0
H551 H 0.44484 0.65063 0.58061 0.0
H552 H 0.4287 0.65909 0.56329 0.0
H553 H 0.44364 0.67198 0.57638 0.0
H554 H 0.42517 0.6952 0.57678 0.0
H555 H 0.41617 0.70772 0.5402 0.0
H556 H 0.55395 0.16975 0.78613 0.0
H557 H 0.56605 0.17734 0.82368 0.0
H558 H 0.58393 0.12904 0.83262 0.0
H559 H 0.57178 0.12125 0.79484 0.0
H560 H 0.56889 0.14302 0.87374 0.0
H561 H 0.61515 0.18305 0.83461 0.0
H562 H 0.59503 0.18704 0.82462 0.0
H563 H 0.6044 0.16815 0.8176 0.0
C564 C 0.56038 0.16068 0.79607 0.0
C565 C 0.56196 0.1449 0.78742 0.0
C566 C 0.56739 0.16508 0.81747 0.0
C567 C 0.57614 0.15384 0.83068 0.0
C568 C 0.57734 0.13793 0.82254 0.0
H569 H 0.63399 0.18163 0.95414 0.0
H570 H 0.62575 0.16992 0.91625 0.0
C571 C 0.57037 0.1335 0.801 0.0
C572 C 0.58384 0.15879 0.8531 0.0
H573 H 0.61088 0.18547 0.87612 0.0
C574 C 0.5782 0.15216 0.87428 0.0
C575 C 0.59613 0.17057 0.85371 0.0
C576 C 0.60317 0.17753 0.83142 0.0
C577 C 0.58402 0.15755 0.89614 0.0
C578 C 0.59567 0.16996 0.89677 0.0
C579 C 0.60185 0.17606 0.87557 0.0
C580 C 0.60089 0.17736 0.91928 0.0
C581 C 0.57754 0.15003 0.91841 0.0
C582 C 0.58975 0.18576 0.93314 0.0
C583 C 0.59441 0.19251 0.9546 0.0
C584 C 0.61035 0.19103 0.96266 0.0
C585 C 0.62162 0.18296 0.94844 0.0
C586 C 0.61694 0.17624 0.92685 0.0
H587 H 0.57212 0.13804 0.91497 0.0
H588 H 0.58718 0.14869 0.93182 0.0
H589 H 0.56805 0.15792 0.92586 0.0
H590 H 0.57739 0.18703 0.92739 0.0
H591 H 0.58542 0.19869 0.96503 0.0
H592 H 0.0558 0.66863 0.28812 0.0
H593 H 0.06776 0.67619 0.32577 0.0
H594 H 0.08366 0.62736 0.33633 0.0
H595 H 0.07167 0.6196 0.29841 0.0
H596 H 0.06855 0.64279 0.37687 0.0
H597 H 0.11718 0.67974 0.33738 0.0
H598 H 0.09739 0.68436 0.32656 0.0
H599 H 0.10602 0.66493 0.32076 0.0
C600 C 0.06175 0.65943 0.29844 0.0
C601 C 0.06284 0.64351 0.29018 0.0
C602 C 0.06868 0.66382 0.3199 0.0
C603 C 0.07684 0.6524 0.33359 0.0
C604 C 0.07752 0.63637 0.32587 0.0
H605 H 0.13446 0.68041 0.45718 0.0
H606 H 0.12615 0.66815 0.4197 0.0
C607 C 0.07064 0.63196 0.30426 0.0
C608 C 0.08453 0.65737 0.35601 0.0
H609 H 0.11254 0.68318 0.37863 0.0
C610 C 0.0783 0.65147 0.37729 0.0
C611 C 0.09738 0.66853 0.35646 0.0
C612 C 0.10502 0.67467 0.33408 0.0
C613 C 0.08408 0.65704 0.39907 0.0
C614 C 0.0963 0.6689 0.3995 0.0
C615 C 0.10306 0.67421 0.37823 0.0
C616 C 0.10157 0.67655 0.42181 0.0
C617 C 0.07695 0.65033 0.42146 0.0
C618 C 0.09061 0.68568 0.43501 0.0
C619 C 0.09532 0.69274 0.45623 0.0
C620 C 0.11111 0.69086 0.46471 0.0
C621 C 0.12221 0.68206 0.45115 0.0
C622 C 0.11748 0.67502 0.42979 0.0
H623 H 0.07109 0.63849 0.41841 0.0
H624 H 0.08629 0.64891 0.43529 0.0
H625 H 0.06766 0.65876 0.42816 0.0
H626 H 0.07837 0.68729 0.42891 0.0
H627 H 0.08646 0.69949 0.46616 0.0
H628 H 0.6324 0.81213 0.55238 0.0
H629 H 0.62384 0.822 0.59122 0.0
H630 H 0.57454 0.82265 0.56745 0.0
H631 H 0.58287 0.81204 0.52936 0.0
H632 H 0.6099 0.8484 0.60566 0.0
H633 H 0.56897 0.79806 0.62654 0.0
H634 H 0.58244 0.79748 0.60168 0.0
H635 H 0.56325 0.8075 0.59944 0.0
C636 C 0.61973 0.81424 0.55561 0.0
C637 C 0.60828 0.81106 0.538 0.0
C638 C 0.61485 0.81992 0.57775 0.0
C639 C 0.59847 0.8227 0.58253 0.0
C640 C 0.58715 0.82004 0.5646 0.0
H641 H 0.56258 0.88165 0.69956 0.0
H642 H 0.57241 0.87217 0.6612 0.0
C643 C 0.59196 0.81405 0.54273 0.0
C644 C 0.59316 0.82862 0.60604 0.0
H645 H 0.56584 0.8218 0.64983 0.0
C646 C 0.60038 0.8425 0.61545 0.0
C647 C 0.58091 0.8208 0.61907 0.0
C648 C 0.57359 0.80504 0.61127 0.0
C649 C 0.59551 0.84889 0.63727 0.0
C650 C 0.58262 0.84158 0.64963 0.0
C651 C 0.57557 0.82759 0.64031 0.0
C652 C 0.57663 0.84766 0.67273 0.0
C653 C 0.60457 0.86314 0.64705 0.0
C654 C 0.57508 0.83698 0.69178 0.0
C655 C 0.56895 0.84224 0.71333 0.0
C656 C 0.56447 0.85838 0.71654 0.0
C657 C 0.56606 0.86916 0.6976 0.0
C658 C 0.57184 0.86378 0.67576 0.0
H659 H 0.61689 0.86395 0.63952 0.0
H660 H 0.5981 0.87436 0.64232 0.0
H661 H 0.60557 0.86248 0.66654 0.0
H662 H 0.57866 0.82451 0.69001 0.0
H663 H 0.568 0.83366 0.72765 0.0
H664 H 0.37244 0.32781 0.95883 0.0
H665 H 0.3805 0.3389 0.92042 0.0
H666 H 0.42342 0.30982 0.92164 0.0
H667 H 0.41562 0.29885 0.95994 0.0
H668 H 0.41403 0.35479 0.91214 0.0
H669 H 0.3996 0.30224 0.85525 0.0
H670 H 0.38957 0.30589 0.88302 0.0
H671 H 0.40968 0.29806 0.88266 0.0
C672 C 0.38349 0.32365 0.95076 0.0
C673 C 0.3934 0.31245 0.9624 0.0
C674 C 0.3881 0.33003 0.92891 0.0
C675 C 0.40251 0.32512 0.91825 0.0
C676 C 0.4122 0.31368 0.92956 0.0
H677 H 0.45811 0.33966 0.79337 0.0
H678 H 0.44611 0.33142 0.83072 0.0
C679 C 0.40772 0.30745 0.95145 0.0
C680 C 0.40792 0.33228 0.89573 0.0
H681 H 0.41524 0.32299 0.83817 0.0
C682 C 0.41414 0.34797 0.89584 0.0
C683 C 0.40811 0.32325 0.87466 0.0
C684 C 0.4013 0.30645 0.87367 0.0
C685 C 0.42116 0.35467 0.87554 0.0
C686 C 0.42161 0.34553 0.85448 0.0
C687 C 0.41495 0.32999 0.85431 0.0
C688 C 0.42954 0.35145 0.83265 0.0
C689 C 0.42867 0.37117 0.87713 0.0
C690 C 0.42437 0.3656 0.8214 0.0
C691 C 0.43138 0.37047 0.8001 0.0
C692 C 0.4435 0.36113 0.78951 0.0
C693 C 0.4488 0.34712 0.80103 0.0
C694 C 0.44191 0.34236 0.82236 0.0
H695 H 0.43099 0.37474 0.89569 0.0
H696 H 0.44019 0.37165 0.86724 0.0
H697 H 0.42034 0.38013 0.86933 0.0
H698 H 0.41462 0.37264 0.82872 0.0
H699 H 0.42693 0.38123 0.79153 0.0
H700 H 0.92316 0.18589 0.02205 0.0
H701 H 0.93192 0.17531 0.05997 0.0
H702 H 0.88421 0.18254 0.08808 0.0
H703 H 0.87513 0.19233 0.04951 0.0
H704 H 0.93448 0.18842 0.10021 0.0
H705 H 0.89163 0.13793 0.11014 0.0
H706 H 0.89353 0.14909 0.08303 0.0
H707 H 0.88148 0.15682 0.10688 0.0
C708 C 0.91449 0.18517 0.03627 0.0
C709 C 0.89844 0.18992 0.03281 0.0
C710 C 0.91952 0.17909 0.05798 0.0
C711 C 0.9087 0.17783 0.0769 0.0
C712 C 0.89269 0.18288 0.07362 0.0
H713 H 0.94202 0.17219 0.22138 0.0
H714 H 0.93223 0.18034 0.18273 0.0
C715 C 0.88754 0.18864 0.05165 0.0
C716 C 0.91452 0.17187 0.10016 0.0
H717 H 0.90687 0.14495 0.14431 0.0
C718 C 0.92847 0.17883 0.10972 0.0
C719 C 0.90692 0.15914 0.1125 0.0
C720 C 0.89267 0.1502 0.10249 0.0
C721 C 0.93493 0.17357 0.13123 0.0
C722 C 0.92682 0.16149 0.14422 0.0
C723 C 0.913 0.15435 0.13454 0.0
C724 C 0.93236 0.15631 0.16798 0.0
C725 C 0.95064 0.18081 0.13941 0.0
C726 C 0.93499 0.13996 0.17307 0.0
C727 C 0.94023 0.13519 0.1955 0.0
C728 C 0.94307 0.14673 0.21312 0.0
C729 C 0.94024 0.16304 0.20805 0.0
C730 C 0.93473 0.16774 0.18586 0.0
H731 H 0.95787 0.18529 0.1243 0.0
H732 H 0.9481 0.19123 0.15106 0.0
H733 H 0.95799 0.17195 0.14933 0.0
H734 H 0.93312 0.13089 0.15964 0.0
H735 H 0.94221 0.12253 0.19896 0.0
H736 H 0.93178 0.62018 0.79673 0.0
H737 H 0.91987 0.62825 0.83457 0.0
H738 H 0.93632 0.67685 0.82349 0.0
H739 H 0.94821 0.66898 0.78593 0.0
H740 H 0.93533 0.64367 0.87485 0.0
H741 H 0.887 0.68108 0.83553 0.0
H742 H 0.8979 0.66607 0.81892 0.0
H743 H 0.90681 0.6854 0.82452 0.0
C744 C 0.93293 0.63256 0.80244 0.0
C745 C 0.94089 0.64394 0.78826 0.0
C746 C 0.9261 0.63715 0.82401 0.0
C747 C 0.92697 0.65321 0.83157 0.0
C748 C 0.93525 0.66447 0.81775 0.0
H749 H 0.91828 0.70117 0.96363 0.0
H750 H 0.92607 0.68885 0.92632 0.0
C751 C 0.94213 0.6599 0.79633 0.0
C752 C 0.91943 0.65834 0.85402 0.0
H753 H 0.89183 0.68456 0.87673 0.0
C754 C 0.92569 0.65245 0.87529 0.0
C755 C 0.90673 0.66967 0.85452 0.0
C756 C 0.89908 0.67584 0.83216 0.0
C757 C 0.92007 0.65817 0.89709 0.0
C758 C 0.90798 0.67016 0.89755 0.0
C759 C 0.90119 0.67548 0.87631 0.0
C760 C 0.90288 0.67791 0.91986 0.0
C761 C 0.92724 0.6515 0.91947 0.0
C762 C 0.88707 0.67627 0.92824 0.0
C763 C 0.88253 0.68335 0.94965 0.0
C764 C 0.8937 0.69232 0.96286 0.0
C765 C 0.90937 0.69431 0.95398 0.0
C766 C 0.9139 0.68718 0.93271 0.0
H767 H 0.93314 0.63968 0.91644 0.0
H768 H 0.93648 0.65998 0.92617 0.0
H769 H 0.91789 0.65006 0.9333 0.0
H770 H 0.87836 0.66927 0.91843 0.0
H771 H 0.87036 0.6816 0.956 0.0
H772 H 0.13564 0.18146 0.54668 0.0
H773 H 0.12734 0.1692 0.58417 0.0
H774 H 0.07952 0.18825 0.5749 0.0
H775 H 0.08762 0.20047 0.53767 0.0
H776 H 0.11326 0.18422 0.62546 0.0
H777 H 0.07271 0.13914 0.58461 0.0
H778 H 0.08801 0.14971 0.56813 0.0
H779 H 0.06925 0.15941 0.57488 0.0
C780 C 0.12339 0.18312 0.55273 0.0
C781 C 0.11228 0.19188 0.53913 0.0
C782 C 0.11867 0.17608 0.57409 0.0
C783 C 0.10274 0.17757 0.58203 0.0
C784 C 0.09178 0.18669 0.56884 0.0
H785 H 0.05537 0.16858 0.71425 0.0
H786 H 0.06794 0.17643 0.67714 0.0
C787 C 0.09649 0.19376 0.54762 0.0
C788 C 0.09742 0.16976 0.60419 0.0
H789 H 0.06985 0.14319 0.62613 0.0
C790 C 0.10392 0.17511 0.62562 0.0
C791 C 0.08537 0.15773 0.60432 0.0
C792 C 0.07851 0.15102 0.58175 0.0
C793 C 0.09811 0.16928 0.64725 0.0
C794 C 0.08543 0.15792 0.64739 0.0
C795 C 0.07948 0.152 0.62595 0.0
C796 C 0.07757 0.15281 0.6696 0.0
C797 C 0.10543 0.17548 0.66982 0.0
C798 C 0.07841 0.13679 0.67731 0.0
C799 C 0.0712 0.13222 0.69863 0.0
C800 C 0.06289 0.14359 0.71238 0.0
C801 C 0.06171 0.15952 0.70416 0.0
C802 C 0.06897 0.16407 0.68301 0.0
H803 H 0.11752 0.18078 0.6668 0.0
H804 H 0.09755 0.18499 0.67726 0.0
H805 H 0.10648 0.1657 0.68308 0.0
H806 H 0.08488 0.1279 0.66706 0.0
H807 H 0.07231 0.11986 0.70446 0.0
H808 H 0.63346 0.32179 0.45472 0.0
H809 H 0.62567 0.33379 0.41683 0.0
H810 H 0.57695 0.31748 0.42718 0.0
H811 H 0.58453 0.30554 0.46484 0.0
H812 H 0.61096 0.31884 0.3764 0.0
H813 H 0.57244 0.36649 0.41508 0.0
H814 H 0.58714 0.35549 0.43213 0.0
H815 H 0.56794 0.3466 0.4256 0.0
C816 C 0.62111 0.3207 0.44885 0.0
C817 C 0.60961 0.31278 0.46286 0.0
C818 C 0.61668 0.32758 0.42725 0.0
C819 C 0.60067 0.32679 0.41947 0.0
C820 C 0.58929 0.31852 0.43311 0.0
H821 H 0.55493 0.33551 0.28567 0.0
H822 H 0.5668 0.32764 0.32324 0.0
C823 C 0.5937 0.31161 0.45458 0.0
C824 C 0.59572 0.33437 0.39695 0.0
H825 H 0.56945 0.36173 0.37375 0.0
C826 C 0.60203 0.32834 0.3758 0.0
C827 C 0.58423 0.34692 0.39624 0.0
C828 C 0.57764 0.35439 0.41847 0.0
C829 C 0.59658 0.33403 0.35389 0.0
C830 C 0.58442 0.34593 0.35319 0.0
C831 C 0.57866 0.3525 0.37434 0.0
C832 C 0.57693 0.35106 0.3307 0.0
C833 C 0.60376 0.32713 0.33166 0.0
C834 C 0.57823 0.36701 0.32279 0.0
C835 C 0.57139 0.37161 0.30123 0.0
C836 C 0.56301 0.36034 0.2874 0.0
C837 C 0.56135 0.3445 0.2958 0.0
C838 C 0.56823 0.33992 0.31722 0.0
H839 H 0.61569 0.32155 0.33501 0.0
H840 H 0.59564 0.31768 0.32464 0.0
H841 H 0.60515 0.33657 0.31794 0.0
H842 H 0.58478 0.37582 0.33308 0.0
H843 H 0.57286 0.3839 0.29527 0.0
H844 H 0.4317 0.88191 0.20417 0.0
H845 H 0.42006 0.87367 0.16625 0.0
H846 H 0.43424 0.82463 0.17968 0.0
H847 H 0.44581 0.83266 0.21739 0.0
H848 H 0.43507 0.85754 0.12721 0.0
H849 H 0.3854 0.8216 0.16583 0.0
H850 H 0.39666 0.83623 0.18263 0.0
H851 H 0.40493 0.81659 0.17723 0.0
C852 C 0.4324 0.86939 0.19897 0.0
C853 C 0.43961 0.85793 0.21386 0.0
C854 C 0.42572 0.8647 0.17735 0.0
C855 C 0.42602 0.84849 0.17041 0.0
C856 C 0.43358 0.83714 0.18494 0.0
H857 H 0.41713 0.8011 0.03744 0.0
H858 H 0.42506 0.81275 0.07516 0.0
C859 C 0.44029 0.8418 0.20644 0.0
C860 C 0.41865 0.84331 0.14786 0.0
H861 H 0.39062 0.81767 0.12481 0.0
C862 C 0.42524 0.84896 0.12666 0.0
C863 C 0.40569 0.83228 0.1472 0.0
C864 C 0.39763 0.82642 0.16943 0.0
C865 C 0.41967 0.84332 0.1048 0.0
C866 C 0.4073 0.83162 0.10419 0.0
C867 C 0.40022 0.82651 0.12535 0.0
C868 C 0.40207 0.82407 0.0818 0.0
C869 C 0.42715 0.84982 0.08252 0.0
C870 C 0.38631 0.82608 0.07343 0.0
C871 C 0.38168 0.81937 0.05181 0.0
C872 C 0.39272 0.81042 0.03835 0.0
C873 C 0.40833 0.80798 0.04727 0.0
C874 C 0.41294 0.81472 0.06877 0.0
H875 H 0.43326 0.86152 0.08561 0.0
H876 H 0.43627 0.84115 0.076 0.0
H877 H 0.41794 0.85143 0.06853 0.0
H878 H 0.37771 0.83315 0.08337 0.0
H879 H 0.36957 0.82146 0.04544 0.0
H880 H 0.95899 0.34061 0.70643 0.0
H881 H 0.94703 0.33198 0.66926 0.0
H882 H 0.91457 0.37245 0.6713 0.0
H883 H 0.92683 0.38143 0.70833 0.0
H884 H 0.91624 0.32282 0.66251 0.0
H885 H 0.93039 0.37451 0.60398 0.0
H886 H 0.93989 0.3718 0.6323 0.0
H887 H 0.91985 0.37983 0.63048 0.0
C888 C 0.94948 0.34784 0.69881 0.0
C889 C 0.94388 0.36173 0.71031 0.0
C890 C 0.94262 0.34286 0.67757 0.0
C891 C 0.92997 0.35161 0.66736 0.0
C892 C 0.92453 0.36567 0.67856 0.0
H893 H 0.87286 0.32659 0.54185 0.0
H894 H 0.881 0.33814 0.57991 0.0
C895 C 0.93151 0.37077 0.69977 0.0
C896 C 0.92201 0.34537 0.64575 0.0
H897 H 0.91376 0.35407 0.58811 0.0
C898 C 0.91568 0.32969 0.64628 0.0
C899 C 0.92119 0.35435 0.62458 0.0
C900 C 0.92831 0.371 0.62263 0.0
C901 C 0.90881 0.32267 0.62616 0.0
C902 C 0.90828 0.33154 0.60495 0.0
C903 C 0.91415 0.34736 0.6045 0.0
C904 C 0.90282 0.32411 0.58263 0.0
C905 C 0.90231 0.30576 0.62759 0.0
C906 C 0.91238 0.31239 0.57171 0.0
C907 C 0.90786 0.30588 0.55002 0.0
C908 C 0.89361 0.3109 0.53886 0.0
C909 C 0.88384 0.3224 0.55009 0.0
C910 C 0.88849 0.32906 0.57174 0.0
H911 H 0.90054 0.30182 0.64613 0.0
H912 H 0.89068 0.3048 0.61807 0.0
H913 H 0.91095 0.2974 0.61908 0.0
H914 H 0.92355 0.30851 0.57978 0.0
H915 H 0.91566 0.29705 0.54184 0.0
H916 H 0.42764 0.12243 0.29122 0.0
H917 H 0.41605 0.13073 0.32918 0.0
H918 H 0.4475 0.17194 0.33057 0.0
H919 H 0.45903 0.16389 0.29274 0.0
H920 H 0.44413 0.15032 0.37515 0.0
H921 H 0.38735 0.17418 0.33623 0.0
H922 H 0.39477 0.15484 0.32678 0.0
H923 H 0.40565 0.17271 0.31918 0.0
C924 C 0.43219 0.13317 0.29974 0.0
C925 C 0.44423 0.14253 0.28895 0.0
C926 C 0.42551 0.13792 0.32132 0.0
C927 C 0.43085 0.152 0.33248 0.0
C928 C 0.44319 0.16107 0.32213 0.0
H929 H 0.41804 0.20706 0.45863 0.0
H930 H 0.42654 0.19467 0.42169 0.0
C931 C 0.44976 0.15643 0.30053 0.0
C932 C 0.42354 0.15756 0.35482 0.0
H933 H 0.39112 0.17777 0.37698 0.0
C934 C 0.43249 0.1562 0.37564 0.0
C935 C 0.40831 0.16511 0.35533 0.0
C936 C 0.39838 0.16692 0.33324 0.0
C937 C 0.4267 0.16243 0.39702 0.0
C938 C 0.41177 0.17067 0.39738 0.0
C939 C 0.40259 0.17156 0.37665 0.0
C940 C 0.40588 0.17895 0.4189 0.0
C941 C 0.43663 0.16008 0.41902 0.0
C942 C 0.39098 0.17487 0.42898 0.0
C943 C 0.38595 0.18214 0.45001 0.0
C944 C 0.39573 0.19361 0.46128 0.0
C945 C 0.41029 0.19815 0.45055 0.0
C946 C 0.41524 0.19098 0.42952 0.0
H947 H 0.44475 0.14952 0.41738 0.0
H948 H 0.44424 0.17087 0.4219 0.0
H949 H 0.42886 0.15838 0.43475 0.0
H950 H 0.38348 0.16575 0.42093 0.0
H951 H 0.37466 0.1784 0.45783 0.0
H952 H 0.57568 0.62249 0.20741 0.0
H953 H 0.58822 0.63127 0.17038 0.0
H954 H 0.56257 0.67627 0.17459 0.0
H955 H 0.55026 0.66777 0.21157 0.0
H956 H 0.57538 0.641 0.12731 0.0
H957 H 0.60914 0.69096 0.16887 0.0
H958 H 0.59959 0.67527 0.18586 0.0
H959 H 0.58796 0.6919 0.17479 0.0
C960 C 0.57263 0.6342 0.20033 0.0
C961 C 0.5621 0.6445 0.21255 0.0
C962 C 0.57984 0.63921 0.17922 0.0
C963 C 0.57664 0.65459 0.17006 0.0
C964 C 0.56556 0.66454 0.18168 0.0
H965 H 0.58972 0.7067 0.04281 0.0
H966 H 0.58185 0.69482 0.0805 0.0
C967 C 0.55844 0.6596 0.20275 0.0
C968 C 0.58483 0.66036 0.1484 0.0
H969 H 0.6072 0.69155 0.12669 0.0
C970 C 0.58254 0.65191 0.12723 0.0
C971 C 0.59429 0.67454 0.14835 0.0
C972 C 0.59804 0.68361 0.17073 0.0
C973 C 0.58882 0.65771 0.10586 0.0
C974 C 0.59759 0.67226 0.10572 0.0
C975 C 0.60039 0.68041 0.12693 0.0
C976 C 0.60294 0.67976 0.08344 0.0
C977 C 0.58564 0.64862 0.08334 0.0
C978 C 0.61756 0.67537 0.07291 0.0
C979 C 0.62218 0.68221 0.05137 0.0
C980 C 0.61218 0.69348 0.04005 0.0
C981 C 0.5977 0.69804 0.05101 0.0
C982 C 0.59315 0.69127 0.07253 0.0
H983 H 0.5788 0.63733 0.08643 0.0
H984 H 0.57872 0.65634 0.071 0.0
H985 H 0.59723 0.64561 0.07466 0.0
H986 H 0.62527 0.66652 0.0812 0.0
H987 H 0.63337 0.67841 0.04334 0.0
H988 H 0.06268 0.8801 0.80213 0.0
H989 H 0.07279 0.8707 0.84036 0.0
H990 H 0.07822 0.82283 0.81193 0.0
H991 H 0.06729 0.83193 0.77442 0.0
H992 H 0.06579 0.82048 0.85249 0.0
H993 H 0.11741 0.86208 0.86104 0.0
H994 H 0.09875 0.87272 0.8585 0.0
H995 H 0.1058 0.86057 0.8343 0.0
C996 C 0.06604 0.86758 0.80414 0.0
C997 C 0.06415 0.85674 0.78534 0.0
C998 C 0.07198 0.86224 0.8259 0.0
C999 C 0.07662 0.84609 0.82899 0.0
C1000 C 0.07476 0.83533 0.8101 0.0
H1001 H 0.13287 0.81145 0.94949 0.0
H1002 H 0.1242 0.8206 0.91034 0.0
C1003 C 0.06848 0.84056 0.78862 0.0
C1004 C 0.08279 0.84007 0.85203 0.0
H1005 H 0.11049 0.84696 0.89538 0.0
C1006 C 0.07566 0.82624 0.86173 0.0
C1007 C 0.09587 0.84733 0.86401 0.0
C1008 C 0.10501 0.86138 0.8538 0.0
C1009 C 0.08108 0.81957 0.88301 0.0
C1010 C 0.09352 0.82738 0.89568 0.0
C1011 C 0.10083 0.84107 0.88587 0.0
C1012 C 0.09888 0.82168 0.91928 0.0
C1013 C 0.07363 0.80399 0.89127 0.0
C1014 C 0.08762 0.81942 0.93743 0.0
C1015 C 0.0925 0.81385 0.95949 0.0
C1016 C 0.10882 0.81086 0.9642 0.0
C1017 C 0.1202 0.81355 0.94631 0.0
C1018 C 0.11525 0.81883 0.92398 0.0
H1019 H 0.06887 0.79689 0.87622 0.0
H1020 H 0.08244 0.79644 0.90096 0.0
H1021 H 0.06337 0.80669 0.90314 0.0
H1022 H 0.07502 0.8221 0.93461 0.0
H1023 H 0.08347 0.8122 0.97305 0.0
H1024 H 0.08008 0.33465 0.31186 0.0
H1025 H 0.09307 0.31643 0.3396 0.0
H1026 H 0.09635 0.35459 0.39079 0.0
H1027 H 0.08327 0.37312 0.36301 0.0
H1028 H 0.12541 0.33242 0.3848 0.0
H1029 H 0.06708 0.30162 0.40022 0.0
H1030 H 0.0722 0.30441 0.3697 0.0
H1031 H 0.06844 0.32164 0.38801 0.0
C1032 C 0.0837 0.3393 0.32889 0.0
C1033 C 0.08045 0.35533 0.33529 0.0
C1034 C 0.09112 0.32883 0.34473 0.0
C1035 C 0.09545 0.33413 0.36729 0.0
C1036 C 0.09302 0.3503 0.37343 0.0
H1037 H 0.11241 0.25856 0.47125 0.0
H1038 H 0.10506 0.28481 0.45504 0.0
C1039 C 0.08555 0.36084 0.35754 0.0
C1040 C 0.10155 0.32235 0.38469 0.0
H1041 H 0.0906 0.28796 0.41322 0.0
C1042 C 0.1178 0.32281 0.39135 0.0
C1043 C 0.09151 0.31002 0.39347 0.0
C1044 C 0.07379 0.3094 0.3877 0.0
C1045 C 0.12446 0.31067 0.40563 0.0
C1046 C 0.11462 0.29772 0.4131 0.0
C1047 C 0.09819 0.29782 0.40742 0.0
C1048 C 0.12118 0.28329 0.42517 0.0
C1049 C 0.14197 0.31176 0.41235 0.0
C1050 C 0.13294 0.27384 0.41406 0.0
C1051 C 0.13721 0.25885 0.42331 0.0
C1052 C 0.12966 0.2529 0.44373 0.0
C1053 C 0.11845 0.26273 0.45546 0.0
C1054 C 0.11422 0.27775 0.44623 0.0
H1055 H 0.14618 0.32445 0.41245 0.0
H1056 H 0.14419 0.30642 0.43 0.0
H1057 H 0.14927 0.30511 0.3992 0.0
H1058 H 0.13821 0.27764 0.39752 0.0
H1059 H 0.14587 0.25161 0.41377 0.0
H1060 H 0.88183 0.83211 0.61305 0.0
H1061 H 0.90137 0.84462 0.63984 0.0
H1062 H 0.93681 0.84469 0.58434 0.0
H1063 H 0.91757 0.83217 0.55766 0.0
H1064 H 0.94643 0.82913 0.62655 0.0
H1065 H 0.92197 0.89046 0.64299 0.0
H1066 H 0.90832 0.87378 0.64624 0.0
H1067 H 0.91619 0.87861 0.61767 0.0
C1068 C 0.89368 0.8351 0.60643 0.0
C1069 C 0.89817 0.83103 0.58326 0.0
C1070 C 0.90481 0.84228 0.62175 0.0
C1071 C 0.92052 0.84559 0.61404 0.0
C1072 C 0.92475 0.84221 0.59064 0.0
H1073 H 0.00401 0.89428 0.66325 0.0
H1074 H 0.97816 0.88658 0.64623 0.0
C1075 C 0.91371 0.83504 0.57541 0.0
C1076 C 0.93313 0.85116 0.63061 0.0
H1077 H 0.94599 0.88345 0.66273 0.0
C1078 C 0.94627 0.84095 0.63465 0.0
C1079 C 0.93288 0.8666 0.64102 0.0
C1080 C 0.91916 0.87811 0.63674 0.0
C1081 C 0.95942 0.84589 0.64832 0.0
C1082 C 0.95928 0.86139 0.65865 0.0
C1083 C 0.94597 0.87152 0.65499 0.0
C1084 C 0.9735 0.86765 0.67149 0.0
C1085 C 0.97366 0.83473 0.65071 0.0
C1086 C 0.97916 0.85998 0.69192 0.0
C1087 C 0.99402 0.86427 0.70162 0.0
C1088 C 0.00344 0.8764 0.69116 0.0
C1089 C 0.99716 0.88481 0.67168 0.0
C1090 C 0.98234 0.88046 0.66195 0.0
H1091 H 0.97322 0.82471 0.63776 0.0
H1092 H 0.98512 0.84138 0.64824 0.0
H1093 H 0.97371 0.82941 0.66865 0.0
H1094 H 0.97237 0.85024 0.69979 0.0
H1095 H 0.9984 0.85764 0.71677 0.0
H1096 H 0.39155 0.74522 0.96646 0.0
H1097 H 0.39886 0.71954 0.94835 0.0
H1098 H 0.36648 0.72909 0.89069 0.0
H1099 H 0.35893 0.7547 0.90873 0.0
H1100 H 0.36758 0.69564 0.90591 0.0
H1101 H 0.42788 0.72242 0.88896 0.0
H1102 H 0.42139 0.72232 0.91917 0.0
H1103 H 0.41085 0.73439 0.89793 0.0
C1104 C 0.38573 0.74174 0.95016 0.0
C1105 C 0.37483 0.75216 0.93886 0.0
C1106 C 0.38995 0.72706 0.93983 0.0
C1107 C 0.38341 0.72257 0.91801 0.0
C1108 C 0.3717 0.73238 0.90752 0.0
H1109 H 0.42257 0.66892 0.80444 0.0
H1110 H 0.40897 0.68757 0.83089 0.0
C1111 C 0.36744 0.74705 0.91784 0.0
C1112 C 0.38997 0.70864 0.90484 0.0
H1113 H 0.42352 0.69611 0.87541 0.0
C1114 C 0.37985 0.69562 0.89941 0.0
C1115 C 0.40593 0.70879 0.89617 0.0
C1116 C 0.41716 0.72275 0.90064 0.0
C1117 C 0.38527 0.6828 0.8853 0.0
C1118 C 0.40118 0.68307 0.87652 0.0
C1119 C 0.41134 0.69595 0.88229 0.0
C1120 C 0.40736 0.67079 0.85992 0.0
C1121 C 0.37387 0.66933 0.87916 0.0
C1122 C 0.41066 0.65502 0.86734 0.0
C1123 C 0.41849 0.64424 0.85219 0.0
C1124 C 0.42322 0.64914 0.82947 0.0
C1125 C 0.41922 0.66475 0.82185 0.0
C1126 C 0.41141 0.67544 0.83693 0.0
H1127 H 0.36135 0.67195 0.88482 0.0
H1128 H 0.37397 0.66713 0.85985 0.0
H1129 H 0.37789 0.65811 0.88796 0.0
H1130 H 0.40778 0.65127 0.88513 0.0
H1131 H 0.42144 0.63233 0.85862 0.0
H1132 H 0.58536 0.17392 0.06021 0.0
H1133 H 0.56719 0.16048 0.08758 0.0
H1134 H 0.60567 0.15563 0.13797 0.0
H1135 H 0.62414 0.16919 0.11058 0.0
H1136 H 0.58225 0.12667 0.12957 0.0
H1137 H 0.55422 0.18558 0.151 0.0
H1138 H 0.55691 0.18152 0.12011 0.0
H1139 H 0.57421 0.18386 0.13874 0.0
C1140 C 0.59009 0.16985 0.07697 0.0
C1141 C 0.6062 0.1728 0.08328 0.0
C1142 C 0.57966 0.16216 0.09258 0.0
C1143 C 0.58508 0.15724 0.11482 0.0
C1144 C 0.6013 0.15939 0.12085 0.0
H1145 H 0.51116 0.13942 0.22075 0.0
H1146 H 0.53737 0.14605 0.20382 0.0
C1147 C 0.61181 0.16714 0.10519 0.0
C1148 C 0.57336 0.15092 0.13211 0.0
H1149 H 0.54006 0.16219 0.16305 0.0
C1150 C 0.57314 0.13441 0.13722 0.0
C1151 C 0.56166 0.16112 0.14226 0.0
C1152 C 0.56176 0.17904 0.13797 0.0
C1153 C 0.56097 0.12771 0.15141 0.0
C1154 C 0.54868 0.1378 0.16036 0.0
C1155 C 0.54944 0.15443 0.15615 0.0
C1156 C 0.53423 0.13143 0.17261 0.0
C1157 C 0.56131 0.10991 0.15646 0.0
C1158 C 0.52388 0.12071 0.16096 0.0
C1159 C 0.50889 0.11685 0.17062 0.0
C1160 C 0.50386 0.1238 0.19201 0.0
C1161 C 0.5146 0.13389 0.20422 0.0
C1162 C 0.52961 0.1377 0.19457 0.0
H1163 H 0.57375 0.10507 0.15539 0.0
H1164 H 0.55632 0.1072 0.17418 0.0
H1165 H 0.55392 0.10355 0.1431 0.0
H1166 H 0.52699 0.116 0.14375 0.0
H1167 H 0.50093 0.10907 0.1607 0.0
H1168 H 0.08229 0.66839 0.19433 0.0
H1169 H 0.09508 0.68714 0.16714 0.0
H1170 H 0.09583 0.65065 0.11321 0.0
H1171 H 0.0829 0.6316 0.14042 0.0
H1172 H 0.12605 0.67315 0.12045 0.0
H1173 H 0.06686 0.70304 0.10776 0.0
H1174 H 0.07239 0.69895 0.13783 0.0
H1175 H 0.06872 0.68253 0.11797 0.0
C1176 C 0.08534 0.6642 0.17681 0.0
C1177 C 0.08139 0.64852 0.16947 0.0
C1178 C 0.09268 0.67496 0.16132 0.0
C1179 C 0.09622 0.6703 0.13817 0.0
C1180 C 0.09314 0.65443 0.13105 0.0
H1181 H 0.11074 0.74701 0.03532 0.0
H1182 H 0.10397 0.72071 0.05184 0.0
C1183 C 0.08577 0.64358 0.14661 0.0
C1184 C 0.10193 0.68254 0.12119 0.0
H1185 H 0.08986 0.71712 0.09415 0.0
C1186 C 0.11814 0.68267 0.11437 0.0
C1187 C 0.0915 0.69477 0.11311 0.0
C1188 C 0.07385 0.69484 0.11934 0.0
C1189 C 0.12437 0.69522 0.10045 0.0
C1190 C 0.11413 0.708 0.09355 0.0
C1191 C 0.09775 0.70738 0.0995 0.0
C1192 C 0.12016 0.72269 0.08156 0.0
C1193 C 0.14187 0.69476 0.09346 0.0
C1194 C 0.13171 0.73246 0.09255 0.0
C1195 C 0.13565 0.7475 0.08313 0.0
C1196 C 0.12796 0.75316 0.06264 0.0
C1197 C 0.11687 0.74307 0.05115 0.0
C1198 C 0.11299 0.728 0.06055 0.0
H1199 H 0.14653 0.68223 0.09323 0.0
H1200 H 0.14377 0.70022 0.07582 0.0
H1201 H 0.14902 0.70165 0.10653 0.0
H1202 H 0.13714 0.72881 0.10906 0.0
H1203 H 0.1442 0.75496 0.0925 0.0
H1204 H 0.50063 0.85034 0.29907 0.0
H1205 H 0.52634 0.84464 0.31812 0.0
H1206 H 0.53105 0.89471 0.33697 0.0
H1207 H 0.50486 0.90032 0.31899 0.0
H1208 H 0.55678 0.85363 0.31474 0.0
H1209 H 0.53256 0.87467 0.40067 0.0
H1210 H 0.5201 0.8727 0.37489 0.0
H1211 H 0.53305 0.8899 0.37832 0.0
C1212 C 0.50723 0.86018 0.30699 0.0
C1213 C 0.5006 0.87573 0.30788 0.0
C1214 C 0.52196 0.85692 0.31788 0.0
C1215 C 0.53045 0.86916 0.32959 0.0
C1216 C 0.52447 0.88496 0.32878 0.0
H1217 H 0.62256 0.83971 0.39672 0.0
H1218 H 0.60393 0.85429 0.37076 0.0
C1219 C 0.50956 0.88817 0.31834 0.0
C1220 C 0.54482 0.865 0.34398 0.0
H1221 H 0.55896 0.86486 0.4005 0.0
C1222 C 0.55734 0.85618 0.33347 0.0
C1223 C 0.54548 0.86824 0.36849 0.0
C1224 C 0.53203 0.87676 0.38134 0.0
C1225 C 0.57013 0.84997 0.3469 0.0
C1226 C 0.57067 0.85308 0.37142 0.0
C1227 C 0.55856 0.86254 0.38169 0.0
C1228 C 0.58237 0.84503 0.38736 0.0
C1229 C 0.58241 0.83937 0.33493 0.0
C1230 C 0.5765 0.83546 0.40582 0.0
C1231 C 0.58703 0.82745 0.42087 0.0
C1232 C 0.60378 0.82866 0.41777 0.0
C1233 C 0.60973 0.83845 0.39949 0.0
C1234 C 0.5991 0.84668 0.38452 0.0
H1235 H 0.57834 0.83541 0.3172 0.0
H1236 H 0.59379 0.84618 0.33273 0.0
H1237 H 0.58498 0.82853 0.34572 0.0
H1238 H 0.56367 0.83397 0.40841 0.0
H1239 H 0.58197 0.82001 0.43468 0.0
H1240 H 0.35351 0.25447 0.57526 0.0
H1241 H 0.35837 0.28048 0.59416 0.0
H1242 H 0.40611 0.28159 0.56426 0.0
H1243 H 0.40099 0.25614 0.54441 0.0
H1244 H 0.37812 0.28602 0.62696 0.0
H1245 H 0.39512 0.32722 0.55535 0.0
H1246 H 0.38599 0.30793 0.54953 0.0
H1247 H 0.40747 0.30963 0.5536 0.0
C1248 C 0.36487 0.2605 0.57222 0.0
C1249 C 0.37686 0.25326 0.55832 0.0
C1250 C 0.36766 0.27536 0.58306 0.0
C1251 C 0.38255 0.2832 0.58047 0.0
C1252 C 0.39433 0.27616 0.56599 0.0
H1253 H 0.43568 0.33176 0.68474 0.0
H1254 H 0.42043 0.31382 0.65939 0.0
C1255 C 0.39143 0.26148 0.55476 0.0
C1256 C 0.38657 0.2975 0.59516 0.0
H1257 H 0.40665 0.33335 0.59403 0.0
C1258 C 0.38403 0.29652 0.61961 0.0
C1259 C 0.39397 0.31145 0.58575 0.0
C1260 C 0.3956 0.31418 0.55958 0.0
C1261 C 0.38963 0.3085 0.63494 0.0
C1262 C 0.39859 0.32156 0.62573 0.0
C1263 C 0.40013 0.32316 0.60119 0.0
C1264 C 0.40754 0.3328 0.64132 0.0
C1265 C 0.38605 0.30689 0.66092 0.0
C1266 C 0.40588 0.34956 0.63908 0.0
C1267 C 0.41489 0.35997 0.65338 0.0
C1268 C 0.42569 0.35376 0.67018 0.0
C1269 C 0.42732 0.33698 0.67226 0.0
C1270 C 0.41849 0.32666 0.65785 0.0
H1271 H 0.37451 0.30043 0.66383 0.0
H1272 H 0.3957 0.29972 0.66942 0.0
H1273 H 0.38535 0.3188 0.6697 0.0
H1274 H 0.39762 0.35458 0.62627 0.0
H1275 H 0.4134 0.37283 0.65126 0.0
H1276 H 1.00142 0.1089 0.83492 0.0
H1277 H 0.9748 0.11561 0.84993 0.0
H1278 H 0.96779 0.14867 0.79223 0.0
H1279 H 0.99465 0.14229 0.77732 0.0
H1280 H 0.96282 0.16288 0.83356 0.0
H1281 H 0.92889 0.10575 0.83299 0.0
H1282 H 0.94796 0.10342 0.84734 0.0
H1283 H 0.94727 0.10843 0.81645 0.0
C1284 C 0.99412 0.11735 0.82508 0.0
C1285 C 1.00026 0.12514 0.80499 0.0
C1286 C 0.97879 0.12107 0.8336 0.0
C1287 C 0.96917 0.1325 0.82206 0.0
C1288 C 0.97496 0.13974 0.80136 0.0
H1289 H 0.87968 0.17335 0.88186 0.0
H1290 H 0.89764 0.16024 0.85327 0.0
C1291 C 0.99033 0.13608 0.79287 0.0
C1292 C 0.95418 0.13842 0.8334 0.0
H1293 H 0.9197 0.12602 0.86085 0.0
C1294 C 0.95322 0.15485 0.839 0.0
C1295 C 0.94159 0.128 0.84051 0.0
C1296 C 0.94139 0.11045 0.83378 0.0
C1297 C 0.94055 0.16094 0.85264 0.0
C1298 C 0.92858 0.15033 0.86103 0.0
C1299 C 0.929 0.13407 0.85448 0.0
C1300 C 0.91662 0.15584 0.87851 0.0
C1301 C 0.94037 0.17857 0.85897 0.0
C1302 C 0.92125 0.15724 0.90215 0.0
C1303 C 0.91113 0.16472 0.91841 0.0
C1304 C 0.89614 0.17094 0.91134 0.0
C1305 C 0.89112 0.16866 0.88787 0.0
C1306 C 0.90135 0.16119 0.87153 0.0
H1307 H 0.94918 0.1856 0.84843 0.0
H1308 H 0.92818 0.18368 0.85619 0.0
H1309 H 0.94339 0.17998 0.87792 0.0
H1310 H 0.93301 0.15317 0.90781 0.0
H1311 H 0.91534 0.16615 0.93635 0.0
H1312 H 0.92244 0.66867 0.69265 0.0
H1313 H 0.90942 0.68755 0.66594 0.0
H1314 H 0.90898 0.65157 0.61122 0.0
H1315 H 0.922 0.63238 0.63803 0.0
H1316 H 0.92418 0.69691 0.62293 0.0
H1317 H 0.86286 0.67163 0.60931 0.0
H1318 H 0.8752 0.66625 0.63432 0.0
H1319 H 0.87962 0.65813 0.60577 0.0
C1320 C 0.91938 0.66462 0.67507 0.0
C1321 C 0.92338 0.64902 0.66744 0.0
C1322 C 0.91192 0.67545 0.65982 0.0
C1323 C 0.90822 0.67096 0.63663 0.0
C1324 C 0.91156 0.65521 0.62915 0.0
H1325 H 0.8937 0.74731 0.53224 0.0
H1326 H 0.90141 0.72148 0.54958 0.0
C1327 C 0.91904 0.64428 0.64448 0.0
C1328 C 0.90224 0.68333 0.61999 0.0
H1329 H 0.86928 0.69549 0.58874 0.0
C1330 C 0.91223 0.69654 0.61526 0.0
C1331 C 0.88663 0.68281 0.61015 0.0
C1332 C 0.87534 0.66902 0.61517 0.0
C1333 C 0.90692 0.70947 0.60144 0.0
C1334 C 0.89126 0.70904 0.59168 0.0
C1335 C 0.88133 0.69569 0.59604 0.0
C1336 C 0.88467 0.72304 0.57868 0.0
C1337 C 0.9179 0.72379 0.59825 0.0
C1338 C 0.87211 0.73205 0.5886 0.0
C1339 C 0.8676 0.74677 0.57869 0.0
C1340 C 0.87559 0.75277 0.55864 0.0
C1341 C 0.8874 0.74314 0.5478 0.0
C1342 C 0.89186 0.72839 0.55771 0.0
H1343 H 0.92819 0.72357 0.61074 0.0
H1344 H 0.92282 0.72372 0.58007 0.0
H1345 H 0.91118 0.73521 0.60078 0.0
H1346 H 0.86637 0.7281 0.60474 0.0
H1347 H 0.85839 0.75378 0.58742 0.0
H1348 H 0.99991 0.11104 0.33955 0.0
H1349 H 0.02559 0.11862 0.35732 0.0
H1350 H 0.03348 0.15313 0.30178 0.0
H1351 H 0.00769 0.14582 0.284 0.0
H1352 H 0.05844 0.12067 0.34155 0.0
H1353 H 0.03159 0.1803 0.36266 0.0
H1354 H 0.01962 0.16349 0.35282 0.0
H1355 H 0.0314 0.17478 0.33204 0.0
C1356 C 0.0072 0.12006 0.33086 0.0
C1357 C 1.00159 0.12801 0.31055 0.0
C1358 C 0.02191 0.12434 0.34102 0.0
C1359 C 0.03128 0.13662 0.33108 0.0
C1360 C 0.02629 0.14379 0.30992 0.0
H1361 H 0.12271 0.17259 0.38932 0.0
H1362 H 0.10316 0.15969 0.36296 0.0
C1363 C 0.01155 0.13956 0.29977 0.0
C1364 C 0.04536 0.14296 0.34415 0.0
H1365 H 0.05821 0.17587 0.3748 0.0
C1366 C 0.0585 0.13278 0.34867 0.0
C1367 C 0.04527 0.1587 0.35365 0.0
C1368 C 0.03119 0.16995 0.35027 0.0
C1369 C 0.0715 0.13792 0.36264 0.0
C1370 C 0.07133 0.15363 0.37219 0.0
C1371 C 0.05832 0.16385 0.36735 0.0
C1372 C 0.08389 0.15951 0.38859 0.0
C1373 C 0.08506 0.1264 0.36781 0.0
C1374 C 0.07957 0.16351 0.41174 0.0
C1375 C 0.09061 0.1709 0.42672 0.0
C1376 C 0.10624 0.17454 0.41886 0.0
C1377 C 0.11079 0.16991 0.39594 0.0
C1378 C 0.09966 0.1625 0.38087 0.0
H1379 H 0.08218 0.11392 0.36222 0.0
H1380 H 0.09602 0.13037 0.35826 0.0
H1381 H 0.08788 0.12638 0.38694 0.0
H1382 H 0.06745 0.16129 0.41802 0.0
H1383 H 0.0867 0.1742 0.44429 0.0
H1384 H 0.61018 0.25721 0.03114 0.0
H1385 H 0.60288 0.28343 0.04748 0.0
H1386 H 0.63685 0.27654 0.10405 0.0
H1387 H 0.64445 0.25053 0.08764 0.0
H1388 H 0.58901 0.28671 0.08975 0.0
H1389 H 0.64453 0.32331 0.08834 0.0
H1390 H 0.6423 0.3052 0.07104 0.0
H1391 H 0.64781 0.30403 0.10169 0.0
C1392 C 0.61639 0.26143 0.04675 0.0
C1393 C 0.62784 0.25169 0.05814 0.0
C1394 C 0.6122 0.27644 0.05606 0.0
C1395 C 0.61942 0.28205 0.07688 0.0
C1396 C 0.63137 0.27267 0.08768 0.0
H1397 H 0.57911 0.33459 0.19001 0.0
H1398 H 0.59176 0.31595 0.16254 0.0
C1399 C 0.63561 0.2577 0.07835 0.0
C1400 C 0.613 0.29653 0.089 0.0
H1401 H 0.62408 0.3315 0.11629 0.0
C1402 C 0.59664 0.29663 0.09515 0.0
C1403 C 0.6229 0.30956 0.09595 0.0
C1404 C 0.64032 0.31062 0.08869 0.0
C1405 C 0.59012 0.30895 0.10904 0.0
C1406 C 0.60024 0.32139 0.11728 0.0
C1407 C 0.6164 0.32181 0.11017 0.0
C1408 C 0.59432 0.33339 0.13451 0.0
C1409 C 0.57247 0.30837 0.11524 0.0
C1410 C 0.59214 0.34955 0.12811 0.0
C1411 C 0.58487 0.36033 0.14386 0.0
C1412 C 0.57974 0.35507 0.16623 0.0
C1413 C 0.58275 0.33905 0.17288 0.0
C1414 C 0.58997 0.32834 0.15719 0.0
H1415 H 0.56562 0.30055 0.10293 0.0
H1416 H 0.57107 0.30343 0.1333 0.0
H1417 H 0.56711 0.32061 0.11496 0.0
H1418 H 0.5955 0.35365 0.11067 0.0
H1419 H 0.58277 0.3726 0.1382 0.0
H1420 H 0.38282 0.83424 0.89107 0.0
H1421 H 0.40239 0.8468 0.86435 0.0
H1422 H 0.43949 0.84102 0.91673 0.0
H1423 H 0.42022 0.82845 0.94337 0.0
H1424 H 0.42467 0.87415 0.86978 0.0
H1425 H 0.45543 0.81551 0.8579 0.0
H1426 H 0.43542 0.81719 0.87006 0.0
H1427 H 0.45271 0.82113 0.88821 0.0
C1428 C 0.39509 0.83587 0.89703 0.0
C1429 C 0.39999 0.83015 0.91925 0.0
C1430 C 0.40624 0.84303 0.88173 0.0
C1431 C 0.42242 0.84454 0.88844 0.0
C1432 C 0.42711 0.8397 0.91108 0.0
H1433 H 0.50564 0.89457 0.84122 0.0
H1434 H 0.47971 0.88692 0.85787 0.0
C1435 C 0.41604 0.83254 0.92631 0.0
C1436 C 0.43473 0.85032 0.87157 0.0
H1437 H 0.46966 0.83876 0.84495 0.0
C1438 C 0.43442 0.86641 0.86407 0.0
C1439 C 0.44724 0.84009 0.86378 0.0
C1440 C 0.4477 0.82247 0.87019 0.0
C1441 C 0.4468 0.87274 0.84992 0.0
C1442 C 0.45988 0.86275 0.84345 0.0
C1443 C 0.45971 0.84647 0.85001 0.0
C1444 C 0.47442 0.86901 0.83128 0.0
C1445 C 0.44578 0.89006 0.84217 0.0
C1446 C 0.48016 0.86149 0.81076 0.0
C1447 C 0.49513 0.86571 0.80133 0.0
C1448 C 0.5047 0.87749 0.8123 0.0
C1449 C 0.49859 0.88549 0.83225 0.0
C1450 C 0.48366 0.88121 0.84172 0.0
H1451 H 0.43309 0.89424 0.84148 0.0
H1452 H 0.45225 0.89772 0.85508 0.0
H1453 H 0.45134 0.89182 0.82456 0.0
H1454 H 0.47328 0.85198 0.80247 0.0
H1455 H 0.49944 0.85932 0.78592 0.0
H1456 H 0.9042 0.25097 0.94922 0.0
H1457 H 0.90993 0.27678 0.93065 0.0
H1458 H 0.86035 0.28058 0.90875 0.0
H1459 H 0.85473 0.25434 0.92642 0.0
H1460 H 0.87847 0.28574 0.87319 0.0
H1461 H 0.90277 0.32276 0.94537 0.0
H1462 H 0.91372 0.30425 0.94366 0.0
H1463 H 0.89257 0.30396 0.95082 0.0
C1464 C 0.89443 0.25746 0.94092 0.0
C1465 C 0.87902 0.25057 0.93922 0.0
C1466 C 0.89769 0.27233 0.93043 0.0
C1467 C 0.88553 0.28083 0.91855 0.0
C1468 C 0.86994 0.2743 0.91784 0.0
H1469 H 0.9152 0.37208 0.85131 0.0
H1470 H 0.90039 0.35323 0.87662 0.0
C1471 C 0.86674 0.2593 0.92796 0.0
C1472 C 0.88955 0.29542 0.90451 0.0
H1473 H 0.91138 0.33024 0.90578 0.0
C1474 C 0.88539 0.29561 0.88051 0.0
C1475 C 0.8983 0.30855 0.91396 0.0
C1476 C 0.90191 0.30995 0.93994 0.0
C1477 C 0.89054 0.30798 0.86549 0.0
C1478 C 0.90062 0.32025 0.87448 0.0
C1479 C 0.90392 0.32067 0.89875 0.0
C1480 C 0.90889 0.33187 0.8587 0.0
C1481 C 0.88528 0.30761 0.84003 0.0
C1482 C 0.91868 0.32614 0.8404 0.0
C1483 C 0.92698 0.33681 0.82586 0.0
C1484 C 0.92594 0.35352 0.8295 0.0
C1485 C 0.9162 0.35929 0.84795 0.0
C1486 C 0.90776 0.34855 0.86245 0.0
H1487 H 0.87344 0.30155 0.83811 0.0
H1488 H 0.88437 0.31992 0.83253 0.0
H1489 H 0.89417 0.30067 0.82957 0.0
H1490 H 0.92015 0.31334 0.83759 0.0
H1491 H 0.9345 0.33188 0.81203 0.0
H1492 H 0.49914 0.15042 0.70459 0.0
H1493 H 0.47343 0.15532 0.68539 0.0
H1494 H 0.47361 0.10692 0.65785 0.0
H1495 H 0.49989 0.10225 0.67605 0.0
H1496 H 0.46778 0.12586 0.6243 0.0
H1497 H 0.42781 0.14519 0.69606 0.0
H1498 H 0.44556 0.15735 0.69677 0.0
H1499 H 0.44705 0.13596 0.70185 0.0
C1500 C 0.49354 0.14068 0.69491 0.0
C1501 C 0.50158 0.12596 0.69177 0.0
C1502 C 0.47871 0.14345 0.68407 0.0
C1503 C 0.47133 0.13142 0.67042 0.0
C1504 C 0.47899 0.1164 0.66831 0.0
H1505 H 0.38192 0.16344 0.59984 0.0
H1506 H 0.39969 0.14735 0.62518 0.0
C1507 C 0.49401 0.11373 0.67873 0.0
C1508 C 0.45689 0.13528 0.65596 0.0
H1509 H 0.42151 0.15619 0.65699 0.0
C1510 C 0.4575 0.13215 0.63163 0.0
C1511 C 0.44319 0.14316 0.66534 0.0
C1512 C 0.4408 0.14541 0.69149 0.0
C1513 C 0.44548 0.1377 0.61633 0.0
C1514 C 0.43277 0.14718 0.62541 0.0
C1515 C 0.43145 0.14925 0.6499 0.0
C1516 C 0.42175 0.15627 0.60966 0.0
C1517 C 0.44672 0.13354 0.5905 0.0
C1518 C 0.42822 0.16677 0.59278 0.0
C1519 C 0.41817 0.17578 0.57821 0.0
C1520 C 0.40135 0.17478 0.58045 0.0
C1521 C 0.39482 0.16443 0.59759 0.0
C1522 C 0.40495 0.15524 0.61208 0.0
H1523 H 0.45277 0.12175 0.58798 0.0
H1524 H 0.43471 0.13307 0.58198 0.0
H1525 H 0.45412 0.14278 0.58143 0.0
H1526 H 0.44111 0.16823 0.59108 0.0
H1527 H 0.42366 0.18378 0.56546 0.0
H1528 H 0.61109 0.7446 0.47048 0.0
H1529 H 0.60423 0.71832 0.45396 0.0
H1530 H 0.63672 0.72673 0.39598 0.0
H1531 H 0.64388 0.75282 0.41255 0.0
H1532 H 0.58951 0.71523 0.41227 0.0
H1533 H 0.64587 0.67997 0.41004 0.0
H1534 H 0.6436 0.6978 0.42795 0.0
H1535 H 0.6484 0.6995 0.3971 0.0
C1536 C 0.61708 0.7407 0.45452 0.0
C1537 C 0.62796 0.7509 0.44276 0.0
C1538 C 0.61314 0.72566 0.44511 0.0
C1539 C 0.62006 0.72046 0.42384 0.0
C1540 C 0.63149 0.73028 0.41268 0.0
H1541 H 0.57987 0.66913 0.31009 0.0
H1542 H 0.59288 0.68723 0.33797 0.0
C1543 C 0.63548 0.7453 0.42211 0.0
C1544 C 0.61373 0.70597 0.41165 0.0
H1545 H 0.62503 0.6717 0.38272 0.0
C1546 C 0.59725 0.70557 0.40623 0.0
C1547 C 0.62378 0.69329 0.40384 0.0
C1548 C 0.64137 0.69256 0.41025 0.0
C1549 C 0.59073 0.69331 0.39222 0.0
C1550 C 0.60096 0.68124 0.38316 0.0
C1551 C 0.61727 0.6811 0.38952 0.0
C1552 C 0.59497 0.66949 0.36566 0.0
C1553 C 0.57298 0.69361 0.38663 0.0
C1554 C 0.59236 0.65335 0.37178 0.0
C1555 C 0.58486 0.64287 0.35581 0.0
C1556 C 0.57992 0.64845 0.33352 0.0
C1557 C 0.58337 0.66444 0.32715 0.0
C1558 C 0.59082 0.67483 0.34305 0.0
H1559 H 0.5662 0.70137 0.39911 0.0
H1560 H 0.57123 0.69844 0.36857 0.0
H1561 H 0.56785 0.68128 0.38717 0.0
H1562 H 0.59553 0.64903 0.38919 0.0
H1563 H 0.5824 0.63063 0.36126 0.0
H1564 H 0.08625 0.83351 0.05776 0.0
H1565 H 0.06716 0.84664 0.08407 0.0
H1566 H 0.10271 0.84722 0.13939 0.0
H1567 H 0.12209 0.83411 0.11298 0.0
H1568 H 0.05762 0.83161 0.12669 0.0
H1569 H 0.08215 0.89309 0.14158 0.0
H1570 H 0.08786 0.88095 0.11651 0.0
H1571 H 0.09582 0.87647 0.14515 0.0
C1572 C 0.09016 0.83667 0.07538 0.0
C1573 C 0.10568 0.83264 0.08332 0.0
C1574 C 0.07921 0.84419 0.09039 0.0
C1575 C 0.08351 0.84791 0.11365 0.0
C1576 C 0.09922 0.84462 0.12139 0.0
H1577 H 0.00685 0.8606 0.21792 0.0
H1578 H 0.03276 0.85341 0.20037 0.0
C1579 C 0.11026 0.8371 0.10629 0.0
C1580 C 0.07095 0.85367 0.13015 0.0
H1581 H 0.05831 0.88622 0.16194 0.0
C1582 C 0.05783 0.8435 0.13457 0.0
C1583 C 0.07126 0.86921 0.14028 0.0
C1584 C 0.08495 0.88067 0.13561 0.0
C1585 C 0.04479 0.84854 0.14839 0.0
C1586 C 0.04502 0.86411 0.15847 0.0
C1587 C 0.05827 0.87424 0.15439 0.0
C1588 C 0.03093 0.87039 0.1716 0.0
C1589 C 0.03059 0.83738 0.15128 0.0
C1590 C 0.02173 0.8829 0.16194 0.0
C1591 C 0.00696 0.88711 0.17196 0.0
C1592 C 1.0011 0.87887 0.19188 0.0
C1593 C 0.0109 0.8671 0.20247 0.0
C1594 C 0.0257 0.86293 0.19244 0.0
H1595 H 0.03095 0.82722 0.13856 0.0
H1596 H 0.03067 0.83227 0.16935 0.0
H1597 H 0.0191 0.84399 0.14884 0.0
H1598 H 0.02558 0.88884 0.1459 0.0
H1599 H 0.99981 0.89631 0.16343 0.0
H1600 H 0.61448 0.7608 0.97202 0.0
H1601 H 0.60777 0.78693 0.95479 0.0
H1602 H 0.63991 0.77755 0.89677 0.0
H1603 H 0.64687 0.7515 0.91392 0.0
H1604 H 0.63937 0.81088 0.91297 0.0
H1605 H 0.57868 0.78518 0.89531 0.0
H1606 H 0.58521 0.78481 0.9255 0.0
H1607 H 0.59554 0.77285 0.90391 0.0
C1608 C 0.62039 0.76441 0.95584 0.0
C1609 C 0.63103 0.75392 0.94416 0.0
C1610 C 0.61651 0.77935 0.94602 0.0
C1611 C 0.62314 0.78403 0.92433 0.0
C1612 C 0.63463 0.77413 0.91351 0.0
H1613 H 0.58627 0.83864 0.81072 0.0
H1614 H 0.59968 0.82004 0.83743 0.0
C1615 C 0.63855 0.7592 0.92332 0.0
C1616 C 0.61679 0.79822 0.91154 0.0
H1617 H 0.58354 0.81145 0.88205 0.0
C1618 C 0.62712 0.81114 0.90641 0.0
C1619 C 0.60085 0.79837 0.90278 0.0
C1620 C 0.58941 0.78454 0.90694 0.0
C1621 C 0.62191 0.82416 0.8925 0.0
C1622 C 0.60605 0.82416 0.88356 0.0
C1623 C 0.59568 0.8114 0.88907 0.0
C1624 C 0.60019 0.83653 0.86688 0.0
C1625 C 0.63349 0.83754 0.88666 0.0
C1626 C 0.59636 0.85214 0.87448 0.0
C1627 C 0.58862 0.8629 0.85917 0.0
C1628 C 0.58452 0.85811 0.83614 0.0
C1629 C 0.58912 0.84271 0.82837 0.0
C1630 C 0.59683 0.83204 0.84359 0.0
H1631 H 0.64584 0.83503 0.89318 0.0
H1632 H 0.63395 0.83941 0.86728 0.0
H1633 H 0.6292 0.84891 0.89476 0.0
H1634 H 0.59873 0.85575 0.89249 0.0
H1635 H 0.5852 0.87465 0.86572 0.0
H1636 H 0.50286 0.39516 0.16365 0.0
H1637 H 0.47669 0.38793 0.14746 0.0
H1638 H 0.46978 0.35365 0.20363 0.0
H1639 H 0.49616 0.36058 0.21976 0.0
H1640 H 0.46631 0.34007 0.16121 0.0
H1641 H 0.43 0.39575 0.16347 0.0
H1642 H 0.44927 0.39905 0.1501 0.0
H1643 H 0.44813 0.39333 0.18067 0.0
C1644 C 0.49565 0.38634 0.17291 0.0
C1645 C 0.5017 0.37836 0.19292 0.0
C1646 C 0.48058 0.38231 0.16371 0.0
C1647 C 0.47116 0.37037 0.17445 0.0
C1648 C 0.47681 0.36296 0.19511 0.0
H1649 H 0.38101 0.3333 0.11223 0.0
H1650 H 0.39963 0.34606 0.14021 0.0
C1651 C 0.49191 0.36694 0.2043 0.0
C1652 C 0.45661 0.36411 0.16232 0.0
H1653 H 0.42177 0.37558 0.13504 0.0
C1654 C 0.45643 0.34779 0.15591 0.0
C1655 C 0.44365 0.37413 0.15549 0.0
C1656 C 0.44267 0.3915 0.16301 0.0
C1657 C 0.44412 0.34145 0.14185 0.0
C1658 C 0.43175 0.3517 0.13372 0.0
C1659 C 0.4314 0.3678 0.1411 0.0
C1660 C 0.41985 0.34598 0.11623 0.0
C1661 C 0.44464 0.32386 0.13524 0.0
C1662 C 0.42497 0.34226 0.09335 0.0
C1663 C 0.41445 0.33502 0.07741 0.0
C1664 C 0.39855 0.33137 0.08402 0.0
C1665 C 0.39318 0.33593 0.1066 0.0
C1666 C 0.40378 0.3432 0.1226 0.0
H1667 H 0.45257 0.31688 0.14723 0.0
H1668 H 0.4324 0.31852 0.13562 0.0
H1669 H 0.44941 0.32266 0.11705 0.0
H1670 H 0.4373 0.34448 0.08807 0.0
H1671 H 0.41898 0.33183 0.06013 0.0
H1672 H 0.85095 0.24794 0.43049 0.0
H1673 H 0.85548 0.22141 0.413 0.0
H1674 H 0.90491 0.22283 0.43624 0.0
H1675 H 0.90016 0.24879 0.45484 0.0
H1676 H 0.87298 0.21522 0.37816 0.0
H1677 H 0.89648 0.17726 0.44956 0.0
H1678 H 0.88707 0.1964 0.45542 0.0
H1679 H 0.90823 0.19528 0.44837 0.0
C1680 C 0.86265 0.24235 0.43242 0.0
C1681 C 0.87519 0.25043 0.44407 0.0
C1682 C 0.86524 0.22719 0.42239 0.0
C1683 C 0.8805 0.21991 0.42349 0.0
C1684 C 0.89288 0.22781 0.43576 0.0
H1685 H 0.92965 0.17175 0.31598 0.0
H1686 H 0.91437 0.18915 0.34197 0.0
C1687 C 0.89019 0.24279 0.44625 0.0
C1688 C 0.88409 0.20526 0.4093 0.0
H1689 H 0.906 0.17048 0.4098 0.0
C1690 C 0.87987 0.20527 0.38531 0.0
C1691 C 0.89274 0.19196 0.41848 0.0
C1692 C 0.89619 0.19016 0.44444 0.0
C1693 C 0.88504 0.19307 0.37003 0.0
C1694 C 0.89529 0.18082 0.37869 0.0
C1695 C 0.89847 0.18007 0.40298 0.0
C1696 C 0.90405 0.16979 0.36256 0.0
C1697 C 0.87969 0.19365 0.34462 0.0
C1698 C 0.90385 0.15303 0.36589 0.0
C1699 C 0.91291 0.14293 0.35116 0.0
C1700 C 0.92232 0.14946 0.33288 0.0
C1701 C 0.9224 0.16624 0.32964 0.0
C1702 C 0.91353 0.17625 0.34443 0.0
H1703 H 0.86758 0.19921 0.34306 0.0
H1704 H 0.88819 0.20121 0.33438 0.0
H1705 H 0.87928 0.18146 0.33663 0.0
H1706 H 0.89676 0.14777 0.37994 0.0
H1707 H 0.91265 0.13007 0.35421 0.0
H1708 H 0.08525 0.67597 0.56214 0.0
H1709 H 0.06653 0.6634 0.58958 0.0
H1710 H 0.10424 0.6592 0.64134 0.0
H1711 H 0.12327 0.67184 0.61383 0.0
H1712 H 0.08201 0.63082 0.6356 0.0
H1713 H 0.05115 0.68927 0.64932 0.0
H1714 H 0.05399 0.68393 0.61891 0.0
H1715 H 0.0712 0.68778 0.63723 0.0
C1716 C 0.08969 0.67226 0.57925 0.0
C1717 C 0.10575 0.67509 0.58586 0.0
C1718 C 0.07893 0.66509 0.59491 0.0
C1719 C 0.08396 0.66062 0.61756 0.0
C1720 C 0.10015 0.66265 0.62393 0.0
H1721 H 0.00735 0.64446 0.72027 0.0
H1722 H 0.03365 0.65184 0.70423 0.0
C1723 C 0.11098 0.66987 0.6082 0.0
C1724 C 0.07194 0.65467 0.63473 0.0
H1725 H 0.0372 0.66584 0.66216 0.0
C1726 C 0.07231 0.63848 0.64173 0.0
C1727 C 0.05949 0.66478 0.643 0.0
C1728 C 0.05895 0.68245 0.63694 0.0
C1729 C 0.06002 0.63194 0.65584 0.0
C1730 C 0.04697 0.64183 0.66278 0.0
C1731 C 0.04712 0.65821 0.65676 0.0
C1732 C 0.03243 0.63538 0.67473 0.0
C1733 C 0.06105 0.6145 0.66297 0.0
C1734 C 0.02312 0.62344 0.66376 0.0
C1735 C 0.00811 0.61915 0.67292 0.0
C1736 C 1.00199 0.62686 0.69311 0.0
C1737 C 0.01166 0.6383 0.70467 0.0
C1738 C 0.02671 0.64254 0.69553 0.0
H1739 H 0.07373 0.6103 0.66343 0.0
H1740 H 0.05553 0.61245 0.68055 0.0
H1741 H 0.05453 0.60706 0.64983 0.0
H1742 H 0.02707 0.61801 0.6474 0.0
H1743 H 1.001 0.61033 0.66351 0.0
H1744 H 0.65183 0.24854 0.57036 0.0
H1745 H 0.64688 0.22202 0.58761 0.0
H1746 H 0.59744 0.22437 0.56462 0.0
H1747 H 0.60257 0.25037 0.5463 0.0
H1748 H 0.62919 0.21603 0.62252 0.0
H1749 H 0.6053 0.1787 0.55063 0.0
H1750 H 0.61501 0.19774 0.54502 0.0
H1751 H 0.59384 0.1969 0.55207 0.0
C1752 C 0.64002 0.24318 0.56845 0.0
C1753 C 0.62759 0.25153 0.55695 0.0
C1754 C 0.63719 0.22802 0.57834 0.0
C1755 C 0.62182 0.22099 0.57723 0.0
C1756 C 0.60954 0.22917 0.56511 0.0
H1757 H 0.5723 0.17236 0.6841 0.0
H1758 H 0.58737 0.18991 0.65804 0.0
C1759 C 0.61245 0.24415 0.55478 0.0
C1760 C 0.61803 0.20632 0.59126 0.0
H1761 H 0.59591 0.17167 0.5903 0.0
C1762 C 0.62223 0.20617 0.61525 0.0
C1763 C 0.60928 0.19315 0.5819 0.0
C1764 C 0.60579 0.19156 0.55592 0.0
C1765 C 0.61696 0.19391 0.63037 0.0
C1766 C 0.60668 0.18176 0.62153 0.0
C1767 C 0.60348 0.18119 0.59724 0.0
C1768 C 0.59791 0.17065 0.63752 0.0
C1769 C 0.62226 0.19433 0.65581 0.0
C1770 C 0.5983 0.15389 0.63422 0.0
C1771 C 0.58938 0.1437 0.64901 0.0
C1772 C 0.57993 0.15013 0.66731 0.0
C1773 C 0.57959 0.16692 0.67043 0.0
C1774 C 0.58833 0.17702 0.6556 0.0
H1775 H 0.63433 0.19996 0.65755 0.0
H1776 H 0.61368 0.20175 0.66614 0.0
H1777 H 0.62271 0.18208 0.6636 0.0
H1778 H 0.60547 0.14871 0.62021 0.0
H1779 H 0.58984 0.13083 0.64605 0.0
H1780 H 0.01043 0.36365 0.78015 0.0
H1781 H 0.03612 0.35641 0.79829 0.0
H1782 H 0.02616 0.3883 0.8564 0.0
H1783 H 1.00056 0.39579 0.83832 0.0
H1784 H 0.05961 0.38741 0.84187 0.0
H1785 H 0.03295 0.32682 0.85694 0.0
H1786 H 0.03334 0.33359 0.82686 0.0
H1787 H 0.021 0.34388 0.84803 0.0
C1788 C 0.01383 0.3694 0.79654 0.0
C1789 C 0.00329 0.38011 0.80797 0.0
C1790 C 0.02851 0.36521 0.8069 0.0
C1791 C 0.03288 0.3716 0.82887 0.0
C1792 C 0.02297 0.38319 0.83946 0.0
H1793 H 0.08562 0.33138 0.94266 0.0
H1794 H 0.06706 0.345 0.9161 0.0
C1795 C 0.00831 0.38742 0.82911 0.0
C1796 C 0.04672 0.36495 0.84213 0.0
H1797 H 0.05909 0.33117 0.87115 0.0
C1798 C 0.05962 0.37508 0.8481 0.0
C1799 C 0.04655 0.3489 0.85047 0.0
C1800 C 0.03269 0.33765 0.84546 0.0
C1801 C 0.07231 0.36958 0.86241 0.0
C1802 C 0.07203 0.35358 0.87084 0.0
C1803 C 0.05927 0.34342 0.86454 0.0
C1804 C 0.08417 0.34729 0.88757 0.0
C1805 C 0.08563 0.381 0.86914 0.0
C1806 C 0.10007 0.34434 0.88047 0.0
C1807 C 0.1108 0.3365 0.8957 0.0
C1808 C 0.10571 0.33141 0.91817 0.0
C1809 C 0.08994 0.33502 0.92546 0.0
C1810 C 0.0793 0.34283 0.91031 0.0
H1811 H 0.08293 0.39359 0.86388 0.0
H1812 H 0.08772 0.38061 0.88846 0.0
H1813 H 0.09694 0.37723 0.86033 0.0
H1814 H 0.10399 0.34752 0.86287 0.0
H1815 H 0.12284 0.33386 0.88951 0.0
H1816 H 0.8595 0.75064 0.08924 0.0
H1817 H 0.86644 0.7767 0.10614 0.0
H1818 H 0.8978 0.78633 0.04724 0.0
H1819 H 0.89116 0.7601 0.03036 0.0
H1820 H 0.91314 0.78923 0.08858 0.0
H1821 H 0.85619 0.82345 0.09335 0.0
H1822 H 0.85425 0.80374 0.10592 0.0
H1823 H 0.85853 0.80585 0.07496 0.0
C1824 C 0.86759 0.75843 0.07955 0.0
C1825 C 0.87487 0.75319 0.05851 0.0
C1826 C 0.87145 0.77343 0.08918 0.0
C1827 C 0.88252 0.78357 0.07786 0.0
C1828 C 0.88917 0.77873 0.05623 0.0
H1829 H 0.91894 0.87397 0.14001 0.0
H1830 H 0.90581 0.85524 0.11257 0.0
C1831 C 0.88535 0.76372 0.04661 0.0
C1832 C 0.88878 0.79806 0.09015 0.0
H1833 H 0.87735 0.83196 0.11991 0.0
C1834 C 0.90533 0.79872 0.09502 0.0
C1835 C 0.87864 0.8105 0.09849 0.0
C1836 C 0.86094 0.81096 0.0927 0.0
C1837 C 0.91186 0.811 0.10896 0.0
C1838 C 0.90157 0.82285 0.11852 0.0
C1839 C 0.88516 0.82273 0.11274 0.0
C1840 C 0.90766 0.83471 0.13582 0.0
C1841 C 0.92971 0.81101 0.11388 0.0
C1842 C 0.91255 0.82942 0.15814 0.0
C1843 C 0.91999 0.84 0.17378 0.0
C1844 C 0.92271 0.85614 0.16742 0.0
C1845 C 0.91706 0.86162 0.14544 0.0
C1846 C 0.90956 0.85096 0.12974 0.0
H1847 H 0.93641 0.80349 0.101 0.0
H1848 H 0.9346 0.82344 0.11337 0.0
H1849 H 0.93188 0.80605 0.13176 0.0
H1850 H 0.91102 0.81694 0.1632 0.0
H1851 H 0.92405 0.83537 0.1906 0.0
H1852 H 0.38158 0.66418 0.39925 0.0
H1853 H 0.39994 0.64858 0.37417 0.0
H1854 H 0.44056 0.67122 0.40788 0.0
H1855 H 0.42252 0.68635 0.43325 0.0
H1856 H 0.42169 0.65809 0.3422 0.0
H1857 H 0.4534 0.62494 0.41229 0.0
H1858 H 0.43499 0.63581 0.41779 0.0
H1859 H 0.4541 0.6461 0.41817 0.0
C1860 C 0.39444 0.66568 0.40146 0.0
C1861 C 0.40057 0.6764 0.41843 0.0
C1862 C 0.4049 0.65678 0.3871 0.0
C1863 C 0.42165 0.65845 0.3895 0.0
C1864 C 0.42772 0.66931 0.4062 0.0
H1865 H 0.49965 0.65081 0.29464 0.0
H1866 H 0.47409 0.65658 0.31383 0.0
C1867 C 0.41734 0.67806 0.42062 0.0
C1868 C 0.43295 0.64951 0.37401 0.0
H1869 H 0.46805 0.62833 0.37571 0.0
C1870 C 0.43167 0.65131 0.34947 0.0
C1871 C 0.44574 0.64026 0.38338 0.0
C1872 C 0.44702 0.63651 0.40934 0.0
C1873 C 0.44345 0.64507 0.3342 0.0
C1874 C 0.45711 0.63726 0.3438 0.0
C1875 C 0.45777 0.63453 0.36823 0.0
C1876 C 0.47143 0.63291 0.32936 0.0
C1877 C 0.44111 0.64704 0.308 0.0
C1878 C 0.47867 0.61771 0.33175 0.0
C1879 C 0.49356 0.61452 0.32127 0.0
C1880 C 0.50145 0.62641 0.30796 0.0
C1881 C 0.49381 0.64132 0.30455 0.0
C1882 C 0.47907 0.6446 0.3154 0.0
H1883 H 0.42812 0.64707 0.3034 0.0
H1884 H 0.44617 0.65878 0.30239 0.0
H1885 H 0.44715 0.63731 0.29793 0.0
H1886 H 0.47306 0.60849 0.34246 0.0
H1887 H 0.49912 0.6029 0.32418 0.0
H1888 H 0.41311 0.13249 0.15133 0.0
H1889 H 0.39817 0.15131 0.12618 0.0
H1890 H 0.42355 0.1911 0.15785 0.0
H1891 H 0.43794 0.1726 0.18343 0.0
H1892 H 0.39266 0.19768 0.15422 0.0
H1893 H 0.41457 0.17404 0.06839 0.0
H1894 H 0.40409 0.15969 0.08639 0.0
H1895 H 0.42303 0.16774 0.09617 0.0
C1896 C 0.41544 0.14526 0.15293 0.0
C1897 C 0.42673 0.15103 0.16938 0.0
C1898 C 0.40699 0.156 0.13842 0.0
C1899 C 0.40991 0.17263 0.13983 0.0
C1900 C 0.42106 0.17834 0.15641 0.0
H1901 H 0.40119 0.25158 0.04635 0.0
H1902 H 0.40737 0.22634 0.06633 0.0
C1903 C 0.4293 0.16771 0.17106 0.0
C1904 C 0.40147 0.18435 0.12438 0.0
H1905 H 0.39699 0.19622 0.06709 0.0
C1906 C 0.39349 0.1973 0.13514 0.0
C1907 C 0.40264 0.18388 0.09949 0.0
C1908 C 0.41165 0.17068 0.08686 0.0
C1909 C 0.38733 0.21015 0.1219 0.0
C1910 C 0.38856 0.20975 0.09699 0.0
C1911 C 0.39595 0.19646 0.08614 0.0
C1912 C 0.38381 0.22374 0.08219 0.0
C1913 C 0.38049 0.22445 0.13493 0.0
C1914 C 0.36828 0.23036 0.08355 0.0
C1915 C 0.36482 0.24501 0.07251 0.0
C1916 C 0.37669 0.25305 0.05935 0.0
C1917 C 0.39178 0.24571 0.05638 0.0
C1918 C 0.39533 0.23124 0.06781 0.0
H1919 H 0.38413 0.22454 0.15378 0.0
H1920 H 0.38449 0.23593 0.12678 0.0
H1921 H 0.36717 0.22396 0.13428 0.0
H1922 H 0.35902 0.22452 0.09388 0.0
H1923 H 0.353 0.25027 0.07485 0.0
H1924 H 0.505 0.60381 0.82406 0.0
H1925 H 0.53053 0.60994 0.84361 0.0
H1926 H 0.52894 0.65818 0.81564 0.0
H1927 H 0.50392 0.65188 0.79513 0.0
H1928 H 0.55903 0.64788 0.817 0.0
H1929 H 0.53012 0.6352 0.90331 0.0
H1930 H 0.53082 0.61816 0.88398 0.0
H1931 H 0.51893 0.63546 0.87615 0.0
C1932 C 0.51026 0.61563 0.82175 0.0
C1933 C 0.50234 0.62743 0.80829 0.0
C1934 C 0.52479 0.61916 0.83309 0.0
C1935 C 0.53141 0.63469 0.83174 0.0
C1936 C 0.52403 0.64615 0.81711 0.0
H1937 H 0.58241 0.68832 0.93401 0.0
H1938 H 0.56391 0.67422 0.90809 0.0
C1939 C 0.50969 0.64253 0.80538 0.0
C1940 C 0.5453 0.63948 0.84673 0.0
H1941 H 0.55707 0.64349 0.90411 0.0
C1942 C 0.55867 0.64683 0.83605 0.0
C1943 C 0.54475 0.63826 0.87164 0.0
C1944 C 0.53034 0.63149 0.8845 0.0
C1945 C 0.57122 0.65345 0.84956 0.0
C1946 C 0.57062 0.65225 0.87444 0.0
C1947 C 0.55756 0.64434 0.88504 0.0
C1948 C 0.58236 0.66056 0.89004 0.0
C1949 C 0.58453 0.66241 0.83708 0.0
C1950 C 0.59898 0.65754 0.88874 0.0
C1951 C 0.60972 0.66584 0.90345 0.0
C1952 C 0.60396 0.67705 0.92001 0.0
C1953 C 0.58729 0.67973 0.92157 0.0
C1954 C 0.57666 0.67165 0.90672 0.0
H1955 H 0.58125 0.66542 0.81862 0.0
H1956 H 0.58754 0.67373 0.8465 0.0
H1957 H 0.59546 0.65476 0.83661 0.0
H1958 H 0.60365 0.64876 0.87643 0.0
H1959 H 0.62248 0.66343 0.90193 0.0
H1960 H 0.08352 0.8741 0.63604 0.0
H1961 H 0.09655 0.85558 0.60815 0.0
H1962 H 0.09683 0.81848 0.66122 0.0
H1963 H 0.08395 0.83671 0.68906 0.0
H1964 H 0.12726 0.83325 0.61463 0.0
H1965 H 0.06826 0.80306 0.60157 0.0
H1966 H 0.07001 0.8235 0.61212 0.0
H1967 H 0.07379 0.80696 0.6317 0.0
C1968 C 0.08665 0.8621 0.6419 0.0
C1969 C 0.08253 0.85684 0.66471 0.0
C1970 C 0.09407 0.85155 0.62595 0.0
C1971 C 0.09747 0.83566 0.63264 0.0
C1972 C 0.09419 0.83069 0.65573 0.0
H1973 H 0.14596 0.75174 0.58782 0.0
H1974 H 0.13889 0.77814 0.60333 0.0
C1975 C 0.0868 0.84114 0.6716 0.0
C1976 C 0.10321 0.82369 0.61529 0.0
H1977 H 0.09138 0.78917 0.5879 0.0
C1978 C 0.11941 0.82373 0.60842 0.0
C1979 C 0.09286 0.81145 0.60701 0.0
C1980 C 0.07522 0.81122 0.61327 0.0
C1981 C 0.12573 0.81129 0.59438 0.0
C1982 C 0.11559 0.79845 0.5874 0.0
C1983 C 0.09919 0.79895 0.59328 0.0
C1984 C 0.12179 0.7837 0.57573 0.0
C1985 C 0.14322 0.81193 0.5874 0.0
C1986 C 0.11458 0.77797 0.55497 0.0
C1987 C 0.11846 0.76273 0.54617 0.0
C1988 C 0.12959 0.75288 0.55805 0.0
C1989 C 0.13737 0.75899 0.57818 0.0
C1990 C 0.13344 0.77419 0.58699 0.0
H1991 H 0.14767 0.82453 0.58683 0.0
H1992 H 0.15047 0.80534 0.6007 0.0
H1993 H 0.14524 0.80628 0.56992 0.0
H1994 H 0.10549 0.78506 0.54605 0.0
H1995 H 0.11226 0.75844 0.53061 0.0
H1996 H 0.88155 0.33082 0.38917 0.0
H1997 H 0.90019 0.34358 0.36121 0.0
H1998 H 0.93815 0.34089 0.41279 0.0
H1999 H 0.91982 0.32821 0.44068 0.0
H2000 H 0.92207 0.37261 0.36628 0.0
H2001 H 0.95356 0.3144 0.35336 0.0
H2002 H 0.93351 0.31575 0.36546 0.0
H2003 H 0.95068 0.31997 0.38368 0.0
C2004 C 0.8938 0.33316 0.39467 0.0
C2005 C 0.89923 0.32831 0.41709 0.0
C2006 C 0.90441 0.34045 0.37868 0.0
C2007 C 0.92057 0.34293 0.38488 0.0
C2008 C 0.92577 0.33887 0.4076 0.0
H2009 H 0.00282 0.39364 0.33773 0.0
H2010 H 0.97679 0.3859 0.35394 0.0
C2011 C 0.91524 0.33163 0.42352 0.0
C2012 C 0.93241 0.34888 0.36745 0.0
H2013 H 0.96716 0.33787 0.33992 0.0
C2014 C 0.93182 0.365 0.36018 0.0
C2015 C 0.94493 0.33884 0.35924 0.0
C2016 C 0.94569 0.32123 0.36563 0.0
C2017 C 0.94399 0.37157 0.34587 0.0
C2018 C 0.95712 0.36177 0.33899 0.0
C2019 C 0.95717 0.34543 0.34527 0.0
C2020 C 0.97157 0.36829 0.32689 0.0
C2021 C 0.94275 0.38894 0.33847 0.0
C2022 C 0.97735 0.36102 0.30621 0.0
C2023 C 0.99237 0.36529 0.29702 0.0
C2024 C 1.00196 0.37687 0.30841 0.0
C2025 C 0.99577 0.38471 0.32845 0.0
C2026 C 0.98078 0.38038 0.33766 0.0
H2027 H 0.93002 0.39299 0.338 0.0
H2028 H 0.94921 0.39655 0.35145 0.0
H2029 H 0.94821 0.39092 0.32083 0.0
H2030 H 0.97048 0.3516 0.29766 0.0
H2031 H 0.99673 0.35904 0.28153 0.0
H2032 H 0.42399 0.8738 0.36545 0.0
H2033 H 0.41017 0.85604 0.39356 0.0
H2034 H 0.40164 0.82166 0.33811 0.0
H2035 H 0.41545 0.83913 0.31003 0.0
H2036 H 0.37402 0.83193 0.37839 0.0
H2037 H 0.43396 0.80799 0.40534 0.0
H2038 H 0.43104 0.82923 0.40024 0.0
H2039 H 0.43088 0.81555 0.37585 0.0
C2040 C 0.41887 0.86262 0.35915 0.0
C2041 C 0.42093 0.85781 0.33555 0.0
C2042 C 0.411 0.85251 0.37522 0.0
C2043 C 0.40495 0.83758 0.36782 0.0
C2044 C 0.40622 0.83317 0.34407 0.0
H2045 H 0.36087 0.75047 0.409 0.0
H2046 H 0.36712 0.77689 0.39289 0.0
C2047 C 0.41417 0.84315 0.3281 0.0
C2048 C 0.39874 0.82574 0.38497 0.0
H2049 H 0.41115 0.79405 0.41848 0.0
C2050 C 0.38208 0.82379 0.38754 0.0
C2051 C 0.40933 0.81526 0.39691 0.0
C2052 C 0.42733 0.81699 0.3946 0.0
C2053 C 0.37571 0.8112 0.40123 0.0
C2054 C 0.38631 0.80006 0.412 0.0
C2055 C 0.40299 0.80254 0.41025 0.0
C2056 C 0.38059 0.78498 0.42334 0.0
C2057 C 0.3577 0.80993 0.40382 0.0
C2058 C 0.38612 0.78058 0.44584 0.0
C2059 C 0.38279 0.7653 0.45497 0.0
C2060 C 0.37384 0.7541 0.44178 0.0
C2061 C 0.3677 0.75881 0.41973 0.0
C2062 C 0.37116 0.77402 0.41053 0.0
H2063 H 0.35192 0.82195 0.40253 0.0
H2064 H 0.35284 0.8024 0.38931 0.0
H2065 H 0.35429 0.80436 0.42089 0.0
H2066 H 0.39349 0.78879 0.45601 0.0
H2067 H 0.38768 0.76209 0.47203 0.0
H2068 H 0.99992 0.60279 0.17857 0.0
H2069 H 0.97414 0.60867 0.15955 0.0
H2070 H 0.97615 0.6573 0.18599 0.0
H2071 H 1.00143 0.65125 0.206 0.0
H2072 H 0.946 0.64704 0.18557 0.0
H2073 H 0.97411 0.63309 0.09909 0.0
H2074 H 0.9735 0.61634 0.11898 0.0
H2075 H 0.98554 0.6337 0.12601 0.0
C2076 C 0.9947 0.61464 0.18067 0.0
C2077 C 0.0028 0.62662 0.19353 0.0
C2078 C 0.98003 0.61803 0.16963 0.0
C2079 C 0.97345 0.63358 0.17067 0.0
C2080 C 0.98102 0.64524 0.18476 0.0
H2081 H 0.92263 0.68683 0.06835 0.0
H2082 H 0.94097 0.67256 0.09428 0.0
C2083 C 0.9955 0.64176 0.1962 0.0
C2084 C 0.95945 0.63822 0.15582 0.0
H2085 H 0.94728 0.64169 0.09855 0.0
C2086 C 0.94621 0.64577 0.16654 0.0
C2087 C 0.95979 0.63669 0.13094 0.0
C2088 C 0.97404 0.62966 0.11802 0.0
C2089 C 0.93362 0.65236 0.15307 0.0
C2090 C 0.93404 0.6509 0.12821 0.0
C2091 C 0.94693 0.64273 0.11761 0.0
C2092 C 0.92237 0.65929 0.1126 0.0
C2093 C 0.92047 0.66155 0.16553 0.0
C2094 C 0.90571 0.65654 0.11406 0.0
C2095 C 0.89506 0.66493 0.09934 0.0
C2096 C 0.90094 0.67598 0.08262 0.0
C2097 C 0.91764 0.67838 0.08092 0.0
C2098 C 0.92819 0.6702 0.09577 0.0
H2099 H 0.92384 0.66462 0.18394 0.0
H2100 H 0.9176 0.67286 0.156 0.0
H2101 H 0.90943 0.65407 0.16615 0.0
H2102 H 0.90095 0.64789 0.12651 0.0
H2103 H 0.88226 0.66274 0.10098 0.0
H2104 H 0.10968 0.24668 0.969 0.0
H2105 H 0.10208 0.22059 0.95248 0.0
H2106 H 0.13567 0.22755 0.89545 0.0
H2107 H 0.14357 0.25342 0.91202 0.0
H2108 H 0.08788 0.21753 0.91042 0.0
H2109 H 0.14323 0.18068 0.91062 0.0
H2110 H 0.14122 0.19874 0.9281 0.0
H2111 H 0.1465 0.2 0.89737 0.0
C2112 C 0.11574 0.2425 0.95324 0.0
C2113 C 0.12718 0.25222 0.94177 0.0
C2114 C 0.11137 0.22757 0.94383 0.0
C2115 C 0.11841 0.22201 0.92284 0.0
C2116 C 0.13034 0.23137 0.91194 0.0
H2117 H 0.07693 0.1699 0.81006 0.0
H2118 H 0.08963 0.18851 0.83751 0.0
C2119 C 0.13475 0.24626 0.92137 0.0
C2120 C 0.11183 0.20761 0.91069 0.0
H2121 H 0.12253 0.17267 0.88299 0.0
C2122 C 0.09543 0.2076 0.90482 0.0
C2123 C 0.12162 0.19456 0.90349 0.0
C2124 C 0.13908 0.19339 0.91044 0.0
C2125 C 0.08873 0.19535 0.89097 0.0
C2126 C 0.09873 0.18288 0.88247 0.0
C2127 C 0.11494 0.18238 0.8893 0.0
C2128 C 0.09262 0.17095 0.86528 0.0
C2129 C 0.07103 0.19601 0.88511 0.0
C2130 C 0.09066 0.15473 0.87152 0.0
C2131 C 0.08337 0.14396 0.85578 0.0
C2132 C 0.078 0.14928 0.83356 0.0
C2133 C 0.08075 0.16539 0.82707 0.0
C2134 C 0.088 0.17608 0.84275 0.0
H2135 H 0.06431 0.20377 0.89767 0.0
H2136 H 0.06949 0.2011 0.86716 0.0
H2137 H 0.06564 0.18379 0.8853 0.0
H2138 H 0.09424 0.15055 0.88883 0.0
H2139 H 0.08147 0.13163 0.86131 0.0
H2140 H 0.62382 0.33236 0.61207 0.0
H2141 H 0.60566 0.34579 0.64005 0.0
H2142 H 0.56745 0.34399 0.58879 0.0
H2143 H 0.58532 0.33071 0.56085 0.0
H2144 H 0.58267 0.37611 0.6321 0.0
H2145 H 0.55385 0.3172 0.65139 0.0
H2146 H 0.57407 0.31886 0.63993 0.0
H2147 H 0.55714 0.32167 0.62073 0.0
C2148 C 0.61164 0.33507 0.60663 0.0
C2149 C 0.60599 0.3303 0.58429 0.0
C2150 C 0.6013 0.34274 0.62262 0.0
C2151 C 0.58523 0.34572 0.61647 0.0
C2152 C 0.57981 0.34169 0.59386 0.0
H2153 H 0.5014 0.3942 0.66219 0.0
H2154 H 0.52751 0.3871 0.64559 0.0
C2155 C 0.59006 0.33408 0.57793 0.0
C2156 C 0.57358 0.3519 0.63395 0.0
H2157 H 0.53998 0.34055 0.66413 0.0
C2158 C 0.57346 0.36835 0.63946 0.0
C2159 C 0.56174 0.34168 0.64369 0.0
C2160 C 0.56168 0.32383 0.63885 0.0
C2161 C 0.56126 0.37498 0.65363 0.0
C2162 C 0.54881 0.3649 0.66215 0.0
C2163 C 0.54947 0.34831 0.65757 0.0
C2164 C 0.53428 0.37127 0.67422 0.0
C2165 C 0.56171 0.39272 0.65911 0.0
C2166 C 0.52937 0.36481 0.69593 0.0
C2167 C 0.51433 0.36871 0.70537 0.0
C2168 C 0.50385 0.3791 0.69321 0.0
C2169 C 0.50915 0.38619 0.67207 0.0
C2170 C 0.52418 0.38224 0.66261 0.0
H2171 H 0.57421 0.39745 0.65845 0.0
H2172 H 0.55454 0.39931 0.64573 0.0
H2173 H 0.55656 0.39529 0.67678 0.0
H2174 H 0.53694 0.35626 0.70514 0.0
H2175 H 0.51066 0.36306 0.72172 0.0
H2176 H 0.0598 0.44779 0.31789 0.0
H2177 H 0.0623 0.47527 0.30298 0.0
H2178 H 0.06544 0.45716 0.23192 0.0
H2179 H 0.06276 0.42958 0.24666 0.0
H2180 H 0.08647 0.49029 0.27532 0.0
H2181 H 0.02738 0.48886 0.22952 0.0
H2182 H 0.03316 0.47396 0.25105 0.0
H2183 H 0.04101 0.47298 0.22158 0.0
C2184 C 0.06111 0.44962 0.29909 0.0
C2185 C 0.06095 0.43648 0.28344 0.0
C2186 C 0.06256 0.46534 0.29061 0.0
C2187 C 0.0638 0.46827 0.26634 0.0
C2188 C 0.0642 0.45518 0.2507 0.0
H2189 H 0.06219 0.55626 0.1837 0.0
H2190 H 0.06483 0.52848 0.1972 0.0
C2191 C 0.06276 0.43942 0.25917 0.0
C2192 C 0.06424 0.48506 0.25744 0.0
H2193 H 0.04314 0.51222 0.22452 0.0
C2194 C 0.07702 0.4951 0.26419 0.0
C2195 C 0.05186 0.49132 0.24299 0.0
C2196 C 0.03749 0.4813 0.23598 0.0
C2197 C 0.07786 0.51119 0.25663 0.0
C2198 C 0.06542 0.51747 0.24229 0.0
C2199 C 0.05269 0.50739 0.23546 0.0
C2200 C 0.06518 0.5345 0.2343 0.0
C2201 C 0.09218 0.52123 0.26372 0.0
C2202 C 0.06459 0.54717 0.25066 0.0
C2203 C 0.06314 0.56312 0.24298 0.0
C2204 C 0.0621 0.56667 0.21879 0.0
C2205 C 0.06296 0.55396 0.20246 0.0
C2206 C 0.06446 0.53806 0.21014 0.0
H2207 H 0.10258 0.51361 0.2689 0.0
H2208 H 0.09597 0.52932 0.24916 0.0
H2209 H 0.08888 0.52879 0.2791 0.0
H2210 H 0.06477 0.5447 0.2694 0.0
H2211 H 0.06239 0.57261 0.25602 0.0
H2212 H 0.82308 0.8126 0.49611 0.0
H2213 H 0.79545 0.81511 0.48149 0.0
H2214 H 0.77766 0.81402 0.55286 0.0
H2215 H 0.80516 0.81166 0.56762 0.0
H2216 H 0.77088 0.79266 0.48895 0.0
H2217 H 0.75355 0.85238 0.52448 0.0
H2218 H 0.77424 0.84588 0.52239 0.0
H2219 H 0.76171 0.83887 0.5461 0.0
C2220 C 0.8133 0.81313 0.50871 0.0
C2221 C 0.81633 0.81195 0.53304 0.0
C2222 C 0.79752 0.81454 0.50032 0.0
C2223 C 0.7845 0.81496 0.51609 0.0
C2224 C 0.78752 0.81406 0.54039 0.0
H2225 H 0.68046 0.81053 0.50432 0.0
H2226 H 0.70838 0.81288 0.51781 0.0
C2227 C 0.80327 0.81261 0.54878 0.0
C2228 C 0.76772 0.81516 0.50713 0.0
H2229 H 0.73237 0.83612 0.5092 0.0
C2230 C 0.7625 0.80224 0.49318 0.0
C2231 C 0.75677 0.8276 0.51286 0.0
C2232 C 0.76185 0.84205 0.5271 0.0
C2233 C 0.74654 0.80122 0.48521 0.0
C2234 C 0.73556 0.81364 0.49094 0.0
C2235 C 0.74079 0.82661 0.50482 0.0
C2236 C 0.7186 0.81328 0.48274 0.0
C2237 C 0.74146 0.78659 0.4713 0.0
C2238 C 0.71505 0.81318 0.45856 0.0
C2239 C 0.69915 0.81179 0.45081 0.0
C2240 C 0.68644 0.81062 0.4671 0.0
C2241 C 0.68996 0.81137 0.49132 0.0
C2242 C 0.70591 0.81271 0.49906 0.0
H2243 H 0.74995 0.77641 0.47372 0.0
H2244 H 0.72922 0.78257 0.47653 0.0
H2245 H 0.74121 0.78966 0.45227 0.0
H2246 H 0.72462 0.81397 0.44565 0.0
H2247 H 0.69686 0.81138 0.43203 0.0
H2248 H 0.44429 0.44746 0.68434 0.0
H2249 H 0.44201 0.47509 0.6987 0.0
H2250 H 0.44065 0.45776 0.7703 0.0
H2251 H 0.44314 0.43004 0.75612 0.0
H2252 H 0.41865 0.49046 0.72683 0.0
H2253 H 0.47849 0.48952 0.77045 0.0
H2254 H 0.47228 0.47429 0.74968 0.0
H2255 H 0.46505 0.47377 0.77952 0.0
C2256 C 0.44341 0.44949 0.70315 0.0
C2257 C 0.44403 0.43653 0.7191 0.0
C2258 C 0.44209 0.4653 0.71131 0.0
C2259 C 0.44143 0.4685 0.73557 0.0
C2260 C 0.44146 0.45558 0.75152 0.0
H2261 H 0.44351 0.55688 0.81702 0.0
H2262 H 0.4409 0.52905 0.80375 0.0
C2263 C 0.44279 0.43974 0.74337 0.0
C2264 C 0.44115 0.48539 0.7441 0.0
H2265 H 0.46268 0.51282 0.77592 0.0
C2266 C 0.42827 0.49537 0.73756 0.0
C2267 C 0.45374 0.49178 0.75802 0.0
C2268 C 0.46826 0.48186 0.76469 0.0
C2269 C 0.42752 0.51152 0.74489 0.0
C2270 C 0.44014 0.5179 0.75877 0.0
C2271 C 0.45299 0.50789 0.76534 0.0
C2272 C 0.44041 0.53495 0.76662 0.0
C2273 C 0.41311 0.52151 0.73805 0.0
C2274 C 0.44093 0.54756 0.75014 0.0
C2275 C 0.44238 0.56354 0.75769 0.0
C2276 C 0.44348 0.56718 0.78185 0.0
C2277 C 0.44269 0.55453 0.79828 0.0
C2278 C 0.44121 0.53859 0.79073 0.0
H2279 H 0.4027 0.51386 0.73302 0.0
H2280 H 0.40942 0.52956 0.7527 0.0
H2281 H 0.41627 0.52911 0.72265 0.0
H2282 H 0.44066 0.54502 0.73143 0.0
H2283 H 0.44305 0.57299 0.74457 0.0
H2284 H 0.82455 0.19123 0.00344 0.0
H2285 H 0.79703 0.18863 0.0185 0.0
H2286 H 0.77861 0.19139 0.94758 0.0
H2287 H 0.80598 0.19388 0.93238 0.0
H2288 H 0.77231 0.2115 0.01214 0.0
H2289 H 0.75483 0.15229 0.97496 0.0
H2290 H 0.77554 0.15871 0.97721 0.0
H2291 H 0.76301 0.1661 0.95377 0.0
C2292 C 0.81466 0.19106 0.99103 0.0
C2293 C 0.81747 0.19274 0.96671 0.0
C2294 C 0.79894 0.1896 0.99967 0.0
C2295 C 0.78578 0.18961 0.98414 0.0
C2296 C 0.78859 0.19103 0.95985 0.0
H2297 H 0.68186 0.19341 0.9965 0.0
H2298 H 0.70979 0.19133 0.98298 0.0
C2299 C 0.80426 0.19255 0.95121 0.0
C2300 C 0.76907 0.18924 0.99336 0.0
H2301 H 0.73374 0.16829 0.99099 0.0
C2302 C 0.76391 0.20198 0.00772 0.0
C2303 C 0.75811 0.17688 0.98738 0.0
C2304 C 0.76315 0.16263 0.97265 0.0
C2305 C 0.74797 0.2029 0.01581 0.0
C2306 C 0.73698 0.19054 0.00982 0.0
C2307 C 0.74217 0.17774 0.99557 0.0
C2308 C 0.72002 0.19081 0.01805 0.0
C2309 C 0.74293 0.21737 0.0301 0.0
C2310 C 0.71647 0.19077 0.04223 0.0
C2311 C 0.70056 0.19203 0.05 0.0
C2312 C 0.68784 0.19318 0.03372 0.0
C2313 C 0.69137 0.19258 0.00949 0.0
C2314 C 0.70732 0.19139 0.00174 0.0
H2315 H 0.7514 0.22759 0.02782 0.0
H2316 H 0.73067 0.22142 0.0251 0.0
H2317 H 0.74279 0.2141 0.04907 0.0
H2318 H 0.72603 0.18996 0.05513 0.0
H2319 H 0.69826 0.19231 0.06878 0.0
H2320 H 0.944 0.43156 0.74491 0.0
H2321 H 0.94172 0.45957 0.7318 0.0
H2322 H 0.93883 0.4752 0.80414 0.0
H2323 H 0.94133 0.44734 0.81741 0.0
H2324 H 0.91807 0.48339 0.73982 0.0
H2325 H 0.97699 0.50087 0.77822 0.0
H2326 H 0.97098 0.48015 0.77469 0.0
H2327 H 0.96329 0.49186 0.79883 0.0
C2328 C 0.94276 0.44095 0.75803 0.0
C2329 C 0.94299 0.43722 0.78222 0.0
C2330 C 0.94146 0.45694 0.7505 0.0
C2331 C 0.94042 0.46949 0.76701 0.0
C2332 C 0.93998 0.46574 0.79111 0.0
H2333 H 0.94153 0.57408 0.75445 0.0
H2334 H 0.93874 0.54643 0.76888 0.0
C2335 C 0.94132 0.44979 0.79865 0.0
C2336 C 0.94017 0.48651 0.75907 0.0
H2337 H 0.9611 0.52182 0.7623 0.0
C2338 C 0.92748 0.4918 0.7447 0.0
C2339 C 0.95246 0.49746 0.76546 0.0
C2340 C 0.96679 0.49231 0.77997 0.0
C2341 C 0.92665 0.50781 0.73678 0.0
C2342 C 0.93898 0.51874 0.74311 0.0
C2343 C 0.95161 0.51345 0.75759 0.0
C2344 C 0.9394 0.53554 0.73424 0.0
C2345 C 0.91248 0.51296 0.72199 0.0
C2346 C 0.94069 0.53861 0.71 0.0
C2347 C 0.94229 0.55437 0.70171 0.0
C2348 C 0.94272 0.5674 0.71752 0.0
C2349 C 0.94118 0.56433 0.74179 0.0
C2350 C 0.9396 0.54853 0.75007 0.0
H2351 H 0.90208 0.5047 0.72424 0.0
H2352 H 0.90861 0.52536 0.72654 0.0
H2353 H 0.91598 0.5128 0.70312 0.0
H2354 H 0.9409 0.52877 0.69749 0.0
H2355 H 0.94352 0.55629 0.68291 0.0
H2356 H 0.32451 0.194 0.4942 0.0
H2357 H 0.29649 0.19177 0.4811 0.0
H2358 H 0.2808 0.18962 0.55347 0.0
H2359 H 0.30866 0.19207 0.56672 0.0
H2360 H 0.27248 0.16833 0.48961 0.0
H2361 H 0.25543 0.22773 0.52678 0.0
H2362 H 0.27611 0.22155 0.52335 0.0
H2363 H 0.26436 0.2142 0.54769 0.0
C2364 C 0.3151 0.19294 0.50732 0.0
C2365 C 0.31881 0.19336 0.53151 0.0
C2366 C 0.2991 0.19166 0.49981 0.0
C2367 C 0.28655 0.19084 0.51632 0.0
C2368 C 0.29027 0.1906 0.54044 0.0
H2369 H 0.182 0.19229 0.50466 0.0
H2370 H 0.20971 0.18948 0.5188 0.0
C2371 C 0.30623 0.19191 0.54796 0.0
C2372 C 0.26952 0.19064 0.5084 0.0
H2373 H 0.23434 0.21176 0.51143 0.0
C2374 C 0.26413 0.17783 0.49433 0.0
C2375 C 0.25866 0.20305 0.51458 0.0
C2376 C 0.26392 0.2175 0.52875 0.0
C2377 C 0.24809 0.177 0.48654 0.0
C2378 C 0.23725 0.18944 0.49271 0.0
C2379 C 0.24264 0.20219 0.50685 0.0
C2380 C 0.2204 0.18982 0.48403 0.0
C2381 C 0.24283 0.16271 0.47209 0.0
C2382 C 0.21721 0.19092 0.4598 0.0
C2383 C 0.20142 0.19253 0.45167 0.0
C2384 C 0.18847 0.19316 0.46763 0.0
C2385 C 0.19167 0.19179 0.49189 0.0
C2386 C 0.2075 0.19021 0.50001 0.0
H2387 H 0.25108 0.15231 0.47442 0.0
H2388 H 0.23044 0.15892 0.47688 0.0
H2389 H 0.24289 0.16605 0.45315 0.0
H2390 H 0.22699 0.19099 0.44717 0.0
H2391 H 0.1994 0.19363 0.43288 0.0
H2392 H 0.56099 0.57279 0.2456 0.0
H2393 H 0.5633 0.54484 0.23221 0.0
H2394 H 0.56404 0.52869 0.30443 0.0
H2395 H 0.56147 0.55647 0.31795 0.0
H2396 H 0.58631 0.52072 0.24096 0.0
H2397 H 0.52642 0.50356 0.27626 0.0
H2398 H 0.53274 0.52424 0.27346 0.0
H2399 H 0.53968 0.51222 0.29777 0.0
C2400 C 0.56175 0.56329 0.25863 0.0
C2401 C 0.56089 0.56685 0.28284 0.0
C2402 C 0.56307 0.54733 0.25095 0.0
C2403 C 0.56352 0.53466 0.26732 0.0
C2404 C 0.56334 0.53824 0.29148 0.0
H2405 H 0.56227 0.43018 0.25435 0.0
H2406 H 0.56499 0.45781 0.26886 0.0
C2407 C 0.56196 0.55415 0.29917 0.0
C2408 C 0.56379 0.51768 0.25917 0.0
H2409 H 0.5426 0.48249 0.26124 0.0
C2410 C 0.57675 0.51236 0.24534 0.0
C2411 C 0.55129 0.5068 0.2649 0.0
C2412 C 0.53666 0.51199 0.27872 0.0
C2413 C 0.57765 0.49637 0.23737 0.0
C2414 C 0.56514 0.4855 0.24311 0.0
C2415 C 0.55223 0.49082 0.257 0.0
C2416 C 0.56485 0.4687 0.23422 0.0
C2417 C 0.59208 0.49117 0.22316 0.0
C2418 C 0.56389 0.46565 0.20993 0.0
C2419 C 0.56232 0.4499 0.2016 0.0
C2420 C 0.56159 0.43687 0.21739 0.0
C2421 C 0.56285 0.43993 0.24171 0.0
C2422 C 0.56438 0.45571 0.25003 0.0
H2423 H 0.60244 0.49943 0.22572 0.0
H2424 H 0.59585 0.47878 0.22796 0.0
H2425 H 0.58891 0.49125 0.20416 0.0
H2426 H 0.56389 0.4755 0.19743 0.0
H2427 H 0.56131 0.44799 0.18277 0.0
H2428 H 0.18368 0.79263 0.0052 0.0
H2429 H 0.21169 0.79387 0.99207 0.0
H2430 H 0.22078 0.83208 0.04193 0.0
H2431 H 0.19316 0.8297 0.05651 0.0
H2432 H 0.2296 0.81324 0.97204 0.0
H2433 H 0.25676 0.80485 0.06002 0.0
H2434 H 0.23542 0.80319 0.0553 0.0
H2435 H 0.24466 0.82265 0.0595 0.0
C2436 C 0.19172 0.80128 0.0133 0.0
C2437 C 0.18639 0.81097 0.03197 0.0
C2438 C 0.20774 0.802 0.00582 0.0
C2439 C 0.21865 0.81275 0.01644 0.0
C2440 C 0.21294 0.82316 0.03413 0.0
H2441 H 0.31116 0.8295 0.9452 0.0
H2442 H 0.28349 0.83195 0.95958 0.0
C2443 C 0.19708 0.82197 0.04225 0.0
C2444 C 0.23588 0.813 0.00889 0.0
H2445 H 0.27451 0.81314 0.02947 0.0
C2446 C 0.2394 0.81306 0.98466 0.0
C2447 C 0.24881 0.81247 0.0252 0.0
C2448 C 0.24621 0.81059 0.05141 0.0
C2449 C 0.25531 0.81248 0.9763 0.0
C2450 C 0.26824 0.81295 0.99261 0.0
C2451 C 0.26471 0.813 0.01685 0.0
C2452 C 0.28548 0.81262 0.98509 0.0
C2453 C 0.2579 0.81064 0.95009 0.0
C2454 C 0.29631 0.80182 0.99577 0.0
C2455 C 0.31235 0.80105 0.9884 0.0
C2456 C 0.31779 0.81074 0.9698 0.0
C2457 C 0.30716 0.82178 0.95943 0.0
C2458 C 0.29127 0.823 0.96743 0.0
H2459 H 0.24733 0.80496 0.94145 0.0
H2460 H 0.25953 0.82269 0.94204 0.0
H2461 H 0.26866 0.80319 0.94619 0.0
H2462 H 0.29229 0.7937 0.00948 0.0
H2463 H 0.32032 0.79238 0.99657 0.0
H2464 H 0.56215 0.9495 0.82146 0.0
H2465 H 0.56427 0.9772 0.80745 0.0
H2466 H 0.5644 0.96043 0.73554 0.0
H2467 H 0.56253 0.93256 0.74942 0.0
H2468 H 0.58708 0.98489 0.74437 0.0
H2469 H 0.52665 1.00167 0.77802 0.0
H2470 H 0.53976 0.99331 0.79998 0.0
H2471 H 0.53321 0.98104 0.77571 0.0
C2472 C 0.56271 0.95166 0.80265 0.0
C2473 C 0.56204 0.93881 0.78654 0.0
C2474 C 0.56384 0.96753 0.79468 0.0
C2475 C 0.56416 0.97091 0.77045 0.0
C2476 C 0.56406 0.9581 0.75432 0.0
H2477 H 0.56218 0.05717 0.68481 0.0
H2478 H 0.56479 0.02974 0.69977 0.0
C2479 C 0.56298 0.94218 0.76228 0.0
C2480 C 0.56433 0.98782 0.762 0.0
H2481 H 0.5428 0.02282 0.76313 0.0
C2482 C 0.57739 0.99318 0.74841 0.0
C2483 C 0.55167 0.99862 0.76729 0.0
C2484 C 0.53695 0.99337 0.78086 0.0
C2485 C 0.57823 0.00914 0.74025 0.0
C2486 C 0.56557 0.01993 0.74557 0.0
C2487 C 0.55255 0.01456 0.75921 0.0
C2488 C 0.56525 0.03668 0.73652 0.0
C2489 C 0.59278 0.01439 0.72633 0.0
C2490 C 0.5645 0.04973 0.75221 0.0
C2491 C 0.56295 0.06547 0.7437 0.0
C2492 C 0.56196 0.06843 0.71933 0.0
C2493 C 0.56298 0.05534 0.70367 0.0
C2494 C 0.56457 0.03963 0.71219 0.0
H2495 H 0.60318 0.00622 0.72923 0.0
H2496 H 0.58982 0.01419 0.70726 0.0
H2497 H 0.5964 0.02683 0.73109 0.0
H2498 H 0.5649 0.04771 0.77106 0.0
H2499 H 0.56214 0.07526 0.75624 0.0
H2500 H 0.32409 0.31298 0.9951 0.0
H2501 H 0.29648 0.3155 0.98043 0.0
H2502 H 0.27864 0.31448 0.05178 0.0
H2503 H 0.30612 0.31211 0.06659 0.0
H2504 H 0.27195 0.29297 0.98802 0.0
H2505 H 0.25449 0.35275 0.02317 0.0
H2506 H 0.27519 0.3463 0.0211 0.0
H2507 H 0.2627 0.33934 0.04487 0.0
C2508 C 0.31431 0.31354 0.00768 0.0
C2509 C 0.31732 0.31236 0.03202 0.0
C2510 C 0.29854 0.31495 0.99927 0.0
C2511 C 0.28551 0.31537 0.01502 0.0
C2512 C 0.28851 0.31451 0.03932 0.0
H2513 H 0.1815 0.31081 0.00348 0.0
H2514 H 0.20944 0.31317 0.01688 0.0
C2515 C 0.30425 0.31306 0.04774 0.0
C2516 C 0.26874 0.31552 0.00605 0.0
H2517 H 0.23334 0.3364 0.00802 0.0
C2518 C 0.26354 0.30254 0.9922 0.0
C2519 C 0.25776 0.32795 0.0117 0.0
C2520 C 0.26282 0.34246 0.02585 0.0
C2521 C 0.24758 0.30145 0.98427 0.0
C2522 C 0.23658 0.31386 0.98993 0.0
C2523 C 0.24179 0.3269 0.0037 0.0
C2524 C 0.21962 0.31343 0.98177 0.0
C2525 C 0.24253 0.28676 0.97048 0.0
C2526 C 0.21604 0.31323 0.95761 0.0
C2527 C 0.20013 0.31183 0.94991 0.0
C2528 C 0.18744 0.31075 0.96624 0.0
C2529 C 0.191 0.31157 0.99045 0.0
C2530 C 0.20695 0.31293 0.99814 0.0
H2531 H 0.25105 0.2766 0.97297 0.0
H2532 H 0.23031 0.28273 0.97575 0.0
H2533 H 0.24227 0.28975 0.95143 0.0
H2534 H 0.2256 0.31397 0.94466 0.0
H2535 H 0.19782 0.31137 0.93113 0.0
H2536 H 0.94396 0.05705 0.31658 0.0
H2537 H 0.94168 0.02957 0.30163 0.0
H2538 H 0.93969 0.04765 0.23046 0.0
H2539 H 0.94216 0.07524 0.24524 0.0
H2540 H 0.91796 0.01462 0.27359 0.0
H2541 H 0.97743 0.01575 0.22886 0.0
H2542 H 0.97149 0.03075 0.25014 0.0
H2543 H 0.96397 0.03165 0.22047 0.0
C2544 C 0.94297 0.05522 0.29774 0.0
C2545 C 0.94337 0.06835 0.28209 0.0
C2546 C 0.94164 0.03949 0.28924 0.0
C2547 C 0.94077 0.03655 0.26493 0.0
C2548 C 0.94065 0.04964 0.24927 0.0
H2549 H 0.94204 0.94875 0.18196 0.0
H2550 H 0.93966 0.97651 0.19565 0.0
C2551 C 0.94197 0.0654 0.25776 0.0
C2552 C 0.94035 0.01975 0.25604 0.0
H2553 H 0.96153 0.99252 0.22337 0.0
C2554 C 0.92747 0.00976 0.2626 0.0
C2555 C 0.9528 0.01344 0.24178 0.0
C2556 C 0.96729 0.02337 0.23502 0.0
C2557 C 0.92661 0.99369 0.25499 0.0
C2558 C 0.9391 0.98737 0.2408 0.0
C2559 C 0.95193 0.99739 0.23419 0.0
C2560 C 0.93926 0.97037 0.2327 0.0
C2561 C 0.9122 0.9837 0.26187 0.0
C2562 C 0.93976 0.95764 0.24898 0.0
C2563 C 0.94108 0.9417 0.2412 0.0
C2564 C 0.94206 0.93822 0.21698 0.0
C2565 C 0.9413 0.95098 0.20074 0.0
C2566 C 0.93996 0.96688 0.20852 0.0
H2567 H 0.90184 0.99136 0.26708 0.0
H2568 H 0.9084 0.97573 0.24718 0.0
H2569 H 0.9154 0.97602 0.27716 0.0
H2570 H 0.93959 0.96005 0.26774 0.0
H2571 H 0.94174 0.93217 0.25417 0.0
H2572 H 0.30657 0.69351 0.43496 0.0
H2573 H 0.27915 0.6911 0.45013 0.0
H2574 H 0.29741 0.69043 0.52125 0.0
H2575 H 0.32492 0.69305 0.50625 0.0
H2576 H 0.2643 0.66785 0.47911 0.0
H2577 H 0.2654 0.72805 0.52166 0.0
H2578 H 0.28039 0.72178 0.50055 0.0
H2579 H 0.28136 0.71479 0.5305 0.0
C2580 C 0.30479 0.69275 0.45384 0.0
C2581 C 0.31795 0.69361 0.4694 0.0
C2582 C 0.2891 0.69135 0.46247 0.0
C2583 C 0.28621 0.69086 0.48682 0.0
C2584 C 0.29934 0.69111 0.5024 0.0
H2585 H 0.19876 0.69334 0.57053 0.0
H2586 H 0.22646 0.69066 0.55665 0.0
C2587 C 0.31507 0.69251 0.49378 0.0
C2588 C 0.26944 0.69053 0.49583 0.0
H2589 H 0.24227 0.71214 0.52802 0.0
C2590 C 0.25946 0.67752 0.48981 0.0
C2591 C 0.26315 0.70319 0.50971 0.0
C2592 C 0.27305 0.71783 0.51586 0.0
C2593 C 0.24342 0.67673 0.4976 0.0
C2594 C 0.23712 0.68943 0.51143 0.0
C2595 C 0.24713 0.70239 0.51749 0.0
C2596 C 0.22015 0.68968 0.51969 0.0
C2597 C 0.23344 0.6622 0.4913 0.0
C2598 C 0.20735 0.68993 0.50352 0.0
C2599 C 0.19145 0.69141 0.51142 0.0
C2600 C 0.18808 0.69281 0.53563 0.0
C2601 C 0.20092 0.69227 0.55177 0.0
C2602 C 0.21677 0.69076 0.54387 0.0
H2603 H 0.2411 0.65178 0.48634 0.0
H2604 H 0.22555 0.65861 0.5062 0.0
H2605 H 0.22568 0.66515 0.47599 0.0
H2606 H 0.20968 0.68945 0.48475 0.0
H2607 H 0.18186 0.6919 0.49851 0.0
H2608 H 0.44178 0.05689 0.18359 0.0
H2609 H 0.43911 0.0293 0.19792 0.0
H2610 H 0.44083 0.04635 0.26965 0.0
H2611 H 0.44365 0.07405 0.25546 0.0
H2612 H 0.46244 0.02136 0.25996 0.0
H2613 H 0.40113 0.00583 0.22862 0.0
H2614 H 0.41412 0.01391 0.20625 0.0
H2615 H 0.40819 0.02633 0.23068 0.0
C2616 C 0.44137 0.05482 0.20242 0.0
C2617 C 0.44293 0.06769 0.21838 0.0
C2618 C 0.43975 0.03903 0.21058 0.0
C2619 C 0.43956 0.03578 0.23485 0.0
C2620 C 0.44084 0.04861 0.25084 0.0
H2621 H 0.44347 0.94802 0.31812 0.0
H2622 H 0.44125 0.9758 0.30453 0.0
C2623 C 0.44243 0.06443 0.2427 0.0
C2624 C 0.43924 0.01892 0.24348 0.0
H2625 H 0.41725 0.98418 0.24266 0.0
C2626 C 0.4525 0.01326 0.25636 0.0
C2627 C 0.42633 0.00835 0.23856 0.0
C2628 C 0.41156 0.01391 0.22545 0.0
C2629 C 0.45334 0.99724 0.26409 0.0
C2630 C 0.44041 0.98666 0.25925 0.0
C2631 C 0.42714 0.99231 0.24637 0.0
C2632 C 0.44052 0.9697 0.26748 0.0
C2633 C 0.46828 0.99169 0.27684 0.0
C2634 C 0.44016 0.95698 0.2512 0.0
C2635 C 0.4413 0.94101 0.25893 0.0
C2636 C 0.44276 0.93751 0.2831 0.0
C2637 C 0.4425 0.95028 0.29937 0.0
C2638 C 0.44132 0.9662 0.29163 0.0
H2639 H 0.47863 0.99986 0.27362 0.0
H2640 H 0.46591 0.99152 0.29609 0.0
H2641 H 0.47172 0.97934 0.27132 0.0
H2642 H 0.43944 0.95942 0.23247 0.0
H2643 H 0.44142 0.93146 0.24595 0.0
H2644 H 0.80725 0.69229 0.069 0.0
H2645 H 0.77947 0.68953 0.05553 0.0
H2646 H 0.79562 0.69007 0.9833 0.0
H2647 H 0.82352 0.69263 0.99664 0.0
H2648 H 0.76315 0.71145 0.02798 0.0
H2649 H 0.76473 0.65185 0.98401 0.0
H2650 H 0.78031 0.6585 0.00394 0.0
H2651 H 0.77993 0.6656 0.97401 0.0
C2652 C 0.80494 0.6916 0.05024 0.0
C2653 C 0.81763 0.69267 0.03389 0.0
C2654 C 0.78904 0.69004 0.04258 0.0
C2655 C 0.78546 0.68942 0.01843 0.0
C2656 C 0.79811 0.69019 0.00204 0.0
H2657 H 0.69837 0.69355 0.93534 0.0
H2658 H 0.72592 0.69113 0.94999 0.0
C2659 C 0.81405 0.69174 0.00969 0.0
C2660 C 0.76843 0.68909 0.01048 0.0
H2661 H 0.74125 0.66772 0.97788 0.0
C2662 C 0.75833 0.70182 0.01719 0.0
C2663 C 0.76218 0.67655 0.99631 0.0
C2664 C 0.77229 0.66227 0.98929 0.0
C2665 C 0.74224 0.70256 0.00972 0.0
C2666 C 0.73598 0.69005 0.9955 0.0
C2667 C 0.74606 0.67727 0.98884 0.0
C2668 C 0.71914 0.69033 0.98678 0.0
C2669 C 0.73223 0.71697 0.01654 0.0
C2670 C 0.70613 0.69025 0.00257 0.0
C2671 C 0.69033 0.69166 0.99426 0.0
C2672 C 0.68726 0.69308 0.96997 0.0
C2673 C 0.7003 0.69253 0.95417 0.0
C2674 C 0.71607 0.69113 0.96249 0.0
H2675 H 0.73981 0.7272 0.02252 0.0
H2676 H 0.7247 0.72107 0.00152 0.0
H2677 H 0.7241 0.71362 0.03125 0.0
H2678 H 0.7082 0.68932 0.02137 0.0
H2679 H 0.68057 0.69195 0.0069 0.0
H2680 H 0.06062 0.05642 0.81865 0.0
H2681 H 0.06366 0.0287 0.80509 0.0
H2682 H 0.06411 0.04508 0.73296 0.0
H2683 H 0.06135 0.07293 0.74641 0.0
H2684 H 0.04244 0.01224 0.77736 0.0
H2685 H 0.1022 0.01439 0.73399 0.0
H2686 H 0.09524 0.03001 0.75363 0.0
H2687 H 0.08843 0.02944 0.72356 0.0
C2688 C 0.0616 0.05418 0.7999 0.0
C2689 C 0.06077 0.06691 0.78361 0.0
C2690 C 0.06331 0.0383 0.79218 0.0
C2691 C 0.0643 0.0348 0.76803 0.0
C2692 C 0.06373 0.0475 0.75171 0.0
H2693 H 0.06023 0.94848 0.6836 0.0
H2694 H 0.06237 0.97589 0.69888 0.0
C2695 C 0.06207 0.06342 0.75942 0.0
C2696 C 0.06479 0.01779 0.75997 0.0
H2697 H 0.08635 0.99095 0.72703 0.0
C2698 C 0.05212 0.00755 0.76654 0.0
C2699 C 0.0774 0.01169 0.74578 0.0
C2700 C 0.09167 0.0219 0.73898 0.0
C2701 C 0.05151 0.9915 0.75887 0.0
C2702 C 0.06405 0.98543 0.74454 0.0
C2703 C 0.07678 0.99563 0.73807 0.0
C2704 C 0.06382 0.96869 0.73544 0.0
C2705 C 0.0372 0.9813 0.76559 0.0
C2706 C 0.06431 0.9555 0.75091 0.0
C2707 C 0.06308 0.93978 0.74224 0.0
C2708 C 0.0614 0.93697 0.71791 0.0
C2709 C 0.06145 0.9502 0.70244 0.0
C2710 C 0.0627 0.96589 0.71112 0.0
H2711 H 0.027 0.98872 0.77208 0.0
H2712 H 0.03302 0.97403 0.75036 0.0
H2713 H 0.04073 0.9729 0.77989 0.0
H2714 H 0.06544 0.95739 0.76973 0.0
H2715 H 0.06315 0.92986 0.75462 0.0
H2716 H 0.68159 0.31158 0.4963 0.0
H2717 H 0.7096 0.31396 0.48322 0.0
H2718 H 0.72541 0.31412 0.5556 0.0
H2719 H 0.69757 0.31147 0.5688 0.0
H2720 H 0.73376 0.33678 0.49246 0.0
H2721 H 0.75054 0.27664 0.5272 0.0
H2722 H 0.7299 0.28305 0.52433 0.0
H2723 H 0.74186 0.2898 0.54881 0.0
C2724 C 0.69102 0.31224 0.50943 0.0
C2725 C 0.68735 0.31118 0.53359 0.0
C2726 C 0.70702 0.31359 0.50193 0.0
C2727 C 0.71961 0.31389 0.51843 0.0
C2728 C 0.71592 0.31353 0.54255 0.0
H2729 H 0.82414 0.3121 0.50618 0.0
H2730 H 0.7965 0.31512 0.52056 0.0
C2731 C 0.69997 0.31211 0.55006 0.0
C2732 C 0.73663 0.31416 0.51045 0.0
H2733 H 0.77173 0.29282 0.51258 0.0
C2734 C 0.74206 0.32717 0.49681 0.0
C2735 C 0.74745 0.30158 0.51613 0.0
C2736 C 0.74215 0.2869 0.52973 0.0
C2737 C 0.75809 0.32804 0.48898 0.0
C2738 C 0.76888 0.31547 0.49468 0.0
C2739 C 0.76346 0.30251 0.50839 0.0
C2740 C 0.7857 0.31512 0.48587 0.0
C2741 C 0.7634 0.34252 0.47494 0.0
C2742 C 0.7888 0.31418 0.4616 0.0
C2743 C 0.80455 0.31244 0.45333 0.0
C2744 C 0.81753 0.31153 0.46919 0.0
C2745 C 0.81443 0.31282 0.49349 0.0
C2746 C 0.79865 0.31452 0.50174 0.0
H2747 H 0.75517 0.3529 0.47754 0.0
H2748 H 0.77578 0.34622 0.47988 0.0
H2749 H 0.76338 0.33942 0.45592 0.0
H2750 H 0.77898 0.3143 0.44905 0.0
H2751 H 0.80649 0.31141 0.43452 0.0
loop_
_geom_bond_atom_site_label_1
_geom_bond_atom_site_label_2
_geom_bond_distance
_geom_bond_site_symmetry_2
_ccdc_geom_bond_type
O0 Cd1 2.223 . S
O0 C8 1.315 . S
Cd1 O0 2.223 . S
Cd1 O4 2.297 . S
Cd1 O5 2.439 . S
Cd1 O11 2.240 . S
Cd2 O3 2.240 . S
Cd2 O10 2.223 . S
Cd2 O12 2.297 . S
Cd2 O13 2.439 . S
O3 Cd2 2.240 . S
O3 C8 1.279 . S
O4 Cd1 2.297 . S
O4 C6 1.247 . S
O5 Cd1 2.439 . S
O5 C6 1.208 . S
C6 O4 1.247 . S
C6 O5 1.208 . S
C7 O12 1.247 . S
C7 O13 1.208 . S
C8 O0 1.315 . S
C8 O3 1.279 . S
C9 O10 1.315 . S
C9 O11 1.279 . S
O10 Cd2 2.223 . S
O10 C9 1.315 . S
O11 Cd1 2.240 . S
O11 C9 1.279 . S
O12 Cd2 2.297 . S
O12 C7 1.247 . S
O13 Cd2 2.439 . S
O13 C7 1.208 . S
O14 Cd15 2.223 . S
O14 C22 1.315 . S
Cd15 O14 2.223 . S
Cd15 O18 2.297 . S
Cd15 O19 2.439 . S
Cd15 O25 2.240 . S
Cd16 O17 2.240 . S
Cd16 O24 2.223 . S
Cd16 O26 2.297 . S
Cd16 O27 2.439 . S
O17 Cd16 2.240 . S
O17 C22 1.279 . S
O18 Cd15 2.297 . S
O18 C20 1.247 . S
O19 Cd15 2.439 . S
O19 C20 1.208 . S
C20 O18 1.247 . S
C20 O19 1.208 . S
C21 O26 1.247 . S
C21 O27 1.208 . S
C22 O14 1.315 . S
C22 O17 1.279 . S
C23 O24 1.315 . S
C23 O25 1.279 . S
O24 Cd16 2.223 . S
O24 C23 1.315 . S
O25 Cd15 2.240 . S
O25 C23 1.279 . S
O26 Cd16 2.297 . S
O26 C21 1.247 . S
O27 Cd16 2.439 . S
O27 C21 1.208 . S
O28 Cd29 2.223 . S
O28 C36 1.315 . S
Cd29 O28 2.223 . S
Cd29 O32 2.297 . S
Cd29 O33 2.439 . S
Cd29 O39 2.240 . S
Cd30 O31 2.240 . S
Cd30 O38 2.223 . S
Cd30 O40 2.297 . S
Cd30 O41 2.439 . S
O31 Cd30 2.240 . S
O31 C36 1.279 . S
O32 Cd29 2.297 . S
O32 C34 1.247 . S
O33 Cd29 2.439 . S
O33 C34 1.208 . S
C34 O32 1.247 . S
C34 O33 1.208 . S
C35 O40 1.247 . S
C35 O41 1.208 . S
C36 O28 1.315 . S
C36 O31 1.279 . S
C37 O38 1.315 . S
C37 O39 1.279 . S
O38 Cd30 2.223 . S
O38 C37 1.315 . S
O39 Cd29 2.240 . S
O39 C37 1.279 . S
O40 Cd30 2.297 . S
O40 C35 1.247 . S
O41 Cd30 2.439 . S
O41 C35 1.208 . S
O42 Cd43 2.223 . S
O42 C50 1.315 . S
Cd43 O42 2.223 . S
Cd43 O46 2.297 . S
Cd43 O47 2.439 . S
Cd43 O53 2.240 . S
Cd44 O45 2.240 . S
Cd44 O52 2.223 . S
Cd44 O54 2.297 1_554 S
Cd44 O55 2.439 1_554 S
O45 Cd44 2.240 . S
O45 C50 1.279 . S
O46 Cd43 2.297 . S
O46 C48 1.247 . S
O47 Cd43 2.439 . S
O47 C48 1.208 . S
C48 O46 1.247 . S
C48 O47 1.208 . S
C49 O54 1.247 . S
C49 O55 1.208 . S
C50 O42 1.315 . S
C50 O45 1.279 . S
C51 O52 1.315 . S
C51 O53 1.279 . S
O52 Cd44 2.223 . S
O52 C51 1.315 . S
O53 Cd43 2.240 . S
O53 C51 1.279 . S
O54 Cd44 2.297 1_556 S
O54 C49 1.247 . S
O55 Cd44 2.439 1_556 S
O55 C49 1.208 . S
O56 Cd57 2.223 . S
O56 C64 1.315 . S
Cd57 O56 2.223 . S
Cd57 O60 2.297 . S
Cd57 O61 2.439 . S
Cd57 O67 2.240 . S
Cd58 O59 2.240 . S
Cd58 O66 2.223 . S
Cd58 O68 2.297 . S
Cd58 O69 2.439 . S
O59 Cd58 2.240 . S
O59 C64 1.279 . S
O60 Cd57 2.297 . S
O60 C62 1.247 . S
O61 Cd57 2.439 . S
O61 C62 1.208 . S
C62 O60 1.247 . S
C62 O61 1.208 . S
C63 O68 1.247 . S
C63 O69 1.208 . S
C64 O56 1.315 . S
C64 O59 1.279 . S
C65 O66 1.315 . S
C65 O67 1.279 . S
O66 Cd58 2.223 . S
O66 C65 1.315 . S
O67 Cd57 2.240 . S
O67 C65 1.279 . S
O68 Cd58 2.297 . S
O68 C63 1.247 . S
O69 Cd58 2.439 . S
O69 C63 1.208 . S
O70 Cd71 2.223 . S
O70 C78 1.315 . S
Cd71 O70 2.223 . S
Cd71 O74 2.297 . S
Cd71 O75 2.439 . S
Cd71 O81 2.240 . S
Cd72 O73 2.240 . S
Cd72 O80 2.223 . S
Cd72 O82 2.297 . S
Cd72 O83 2.439 . S
O73 Cd72 2.240 . S
O73 C78 1.279 . S
O74 Cd71 2.297 . S
O74 C76 1.247 . S
O75 Cd71 2.439 . S
O75 C76 1.208 . S
C76 O74 1.247 . S
C76 O75 1.208 . S
C77 O82 1.247 . S
C77 O83 1.208 . S
C78 O70 1.315 . S
C78 O73 1.279 . S
C79 O80 1.315 . S
C79 O81 1.279 . S
O80 Cd72 2.223 . S
O80 C79 1.315 . S
O81 Cd71 2.240 . S
O81 C79 1.279 . S
O82 Cd72 2.297 . S
O82 C77 1.247 . S
O83 Cd72 2.439 . S
O83 C77 1.208 . S
O84 Cd85 2.223 . S
O84 C92 1.315 . S
Cd85 O84 2.223 . S
Cd85 O88 2.297 . S
Cd85 O89 2.439 . S
Cd85 O95 2.240 . S
Cd86 O87 2.240 . S
Cd86 O94 2.223 . S
Cd86 O96 2.297 . S
Cd86 O97 2.439 . S
O87 Cd86 2.240 . S
O87 C92 1.279 . S
O88 Cd85 2.297 . S
O88 C90 1.247 . S
O89 Cd85 2.439 . S
O89 C90 1.208 . S
C90 O88 1.247 . S
C90 O89 1.208 . S
C91 O96 1.247 . S
C91 O97 1.208 . S
C92 O84 1.315 . S
C92 O87 1.279 . S
C93 O94 1.315 . S
C93 O95 1.279 . S
O94 Cd86 2.223 . S
O94 C93 1.315 . S
O95 Cd85 2.240 . S
O95 C93 1.279 . S
O96 Cd86 2.297 . S
O96 C91 1.247 . S
O97 Cd86 2.439 . S
O97 C91 1.208 . S
O98 Cd99 2.223 . S
O98 C106 1.315 . S
Cd99 O98 2.223 . S
Cd99 O102 2.297 . S
Cd99 O103 2.439 . S
Cd99 O109 2.240 . S
Cd100 O101 2.240 . S
Cd100 O108 2.223 . S
Cd100 O110 2.297 1_556 S
Cd100 O111 2.439 1_556 S
O101 Cd100 2.240 . S
O101 C106 1.279 . S
O102 Cd99 2.297 . S
O102 C104 1.247 . S
O103 Cd99 2.439 . S
O103 C104 1.208 . S
C104 O102 1.247 . S
C104 O103 1.208 . S
C105 O110 1.247 . S
C105 O111 1.208 . S
C106 O98 1.315 . S
C106 O101 1.279 . S
C107 O108 1.315 . S
C107 O109 1.279 . S
O108 Cd100 2.223 . S
O108 C107 1.315 . S
O109 Cd99 2.240 . S
O109 C107 1.279 . S
O110 Cd100 2.297 1_554 S
O110 C105 1.247 . S
O111 Cd100 2.439 1_554 S
O111 C105 1.208 . S
O112 Cd113 2.223 . S
O112 C120 1.315 . S
Cd113 O112 2.223 . S
Cd113 O116 2.297 . S
Cd113 O117 2.439 . S
Cd113 O123 2.240 . S
Cd114 O115 2.240 . S
Cd114 O122 2.223 . S
Cd114 O124 2.297 . S
Cd114 O125 2.439 . S
O115 Cd114 2.240 . S
O115 C120 1.279 . S
O116 Cd113 2.297 . S
O116 C118 1.247 . S
O117 Cd113 2.439 . S
O117 C118 1.208 . S
C118 O116 1.247 . S
C118 O117 1.208 . S
C119 O124 1.247 . S
C119 O125 1.208 . S
C120 O112 1.315 . S
C120 O115 1.279 . S
C121 O122 1.315 . S
C121 O123 1.279 . S
O122 Cd114 2.223 . S
O122 C121 1.315 . S
O123 Cd113 2.240 . S
O123 C121 1.279 . S
O124 Cd114 2.297 . S
O124 C119 1.247 . S
O125 Cd114 2.439 . S
O125 C119 1.208 . S
O126 Cd127 2.223 . S
O126 C134 1.315 . S
Cd127 O126 2.223 . S
Cd127 O130 2.297 . S
Cd127 O131 2.439 . S
Cd127 O137 2.240 . S
Cd128 O129 2.240 . S
Cd128 O136 2.223 . S
Cd128 O138 2.297 . S
Cd128 O139 2.439 . S
O129 Cd128 2.240 . S
O129 C134 1.279 . S
O130 Cd127 2.297 . S
O130 C132 1.247 . S
O131 Cd127 2.439 . S
O131 C132 1.208 . S
C132 O130 1.247 . S
C132 O131 1.208 . S
C133 O138 1.247 . S
C133 O139 1.208 . S
C134 O126 1.315 . S
C134 O129 1.279 . S
C135 O136 1.315 . S
C135 O137 1.279 . S
O136 Cd128 2.223 . S
O136 C135 1.315 . S
O137 Cd127 2.240 . S
O137 C135 1.279 . S
O138 Cd128 2.297 . S
O138 C133 1.247 . S
O139 Cd128 2.439 . S
O139 C133 1.208 . S
O140 Cd141 2.223 . S
O140 C148 1.315 . S
Cd141 O140 2.223 . S
Cd141 O144 2.297 . S
Cd141 O145 2.439 . S
Cd141 O151 2.240 . S
Cd142 O143 2.240 . S
Cd142 O150 2.223 . S
Cd142 O152 2.297 . S
Cd142 O153 2.439 . S
O143 Cd142 2.240 . S
O143 C148 1.279 . S
O144 Cd141 2.297 . S
O144 C146 1.247 . S
O145 Cd141 2.439 . S
O145 C146 1.208 . S
C146 O144 1.247 . S
C146 O145 1.208 . S
C147 O152 1.247 . S
C147 O153 1.208 . S
C148 O140 1.315 . S
C148 O143 1.279 . S
C149 O150 1.315 . S
C149 O151 1.279 . S
O150 Cd142 2.223 . S
O150 C149 1.315 . S
O151 Cd141 2.240 . S
O151 C149 1.279 . S
O152 Cd142 2.297 . S
O152 C147 1.247 . S
O153 Cd142 2.439 . S
O153 C147 1.208 . S
O154 Cd155 2.223 . S
O154 C162 1.315 . S
Cd155 O154 2.223 . S
Cd155 O158 2.297 . S
Cd155 O159 2.439 . S
Cd155 O165 2.240 . S
Cd156 O157 2.240 . S
Cd156 O164 2.223 . S
Cd156 O166 2.297 1_556 S
Cd156 O167 2.439 1_556 S
O157 Cd156 2.240 . S
O157 C162 1.279 . S
O158 Cd155 2.297 . S
O158 C160 1.247 . S
O159 Cd155 2.439 . S
O159 C160 1.208 . S
C160 O158 1.247 . S
C160 O159 1.208 . S
C161 O166 1.247 . S
C161 O167 1.208 . S
C162 O154 1.315 . S
C162 O157 1.279 . S
C163 O164 1.315 . S
C163 O165 1.279 . S
O164 Cd156 2.223 . S
O164 C163 1.315 . S
O165 Cd155 2.240 . S
O165 C163 1.279 . S
O166 Cd156 2.297 1_554 S
O166 C161 1.247 . S
O167 Cd156 2.439 1_554 S
O167 C161 1.208 . S
O168 Cd169 2.223 . S
O168 C176 1.315 . S
Cd169 O168 2.223 . S
Cd169 O172 2.297 . S
Cd169 O173 2.439 . S
Cd169 O179 2.240 . S
Cd170 O171 2.240 . S
Cd170 O178 2.223 . S
Cd170 O180 2.297 . S
Cd170 O181 2.439 . S
O171 Cd170 2.240 . S
O171 C176 1.279 . S
O172 Cd169 2.297 . S
O172 C174 1.247 . S
O173 Cd169 2.439 . S
O173 C174 1.208 . S
C174 O172 1.247 . S
C174 O173 1.208 . S
C175 O180 1.247 . S
C175 O181 1.208 . S
C176 O168 1.315 . S
C176 O171 1.279 . S
C177 O178 1.315 . S
C177 O179 1.279 . S
O178 Cd170 2.223 . S
O178 C177 1.315 . S
O179 Cd169 2.240 . S
O179 C177 1.279 . S
O180 Cd170 2.297 . S
O180 C175 1.247 . S
O181 Cd170 2.439 . S
O181 C175 1.208 . S
O182 Cd183 2.223 . S
O182 C190 1.315 . S
Cd183 O182 2.223 . S
Cd183 O186 2.297 . S
Cd183 O187 2.439 . S
Cd183 O193 2.240 . S
Cd184 O185 2.240 . S
Cd184 O192 2.223 . S
Cd184 O194 2.297 . S
Cd184 O195 2.439 . S
O185 Cd184 2.240 . S
O185 C190 1.279 . S
O186 Cd183 2.297 . S
O186 C188 1.247 . S
O187 Cd183 2.439 . S
O187 C188 1.208 . S
C188 O186 1.247 . S
C188 O187 1.208 . S
C189 O194 1.247 . S
C189 O195 1.208 . S
C190 O182 1.315 . S
C190 O185 1.279 . S
C191 O192 1.315 . S
C191 O193 1.279 . S
O192 Cd184 2.223 . S
O192 C191 1.315 . S
O193 Cd183 2.240 . S
O193 C191 1.279 . S
O194 Cd184 2.297 . S
O194 C189 1.247 . S
O195 Cd184 2.439 . S
O195 C189 1.208 . S
O196 Cd197 2.223 . S
O196 C204 1.315 . S
Cd197 O196 2.223 . S
Cd197 O200 2.297 . S
Cd197 O201 2.439 . S
Cd197 O207 2.240 . S
Cd198 O199 2.240 . S
Cd198 O206 2.223 . S
Cd198 O208 2.297 . S
Cd198 O209 2.439 . S
O199 Cd198 2.240 . S
O199 C204 1.279 . S
O200 Cd197 2.297 . S
O200 C202 1.247 . S
O201 Cd197 2.439 . S
O201 C202 1.208 . S
C202 O200 1.247 . S
C202 O201 1.208 . S
C203 O208 1.247 . S
C203 O209 1.208 . S
C204 O196 1.315 . S
C204 O199 1.279 . S
C205 O206 1.315 . S
C205 O207 1.279 . S
O206 Cd198 2.223 . S
O206 C205 1.315 . S
O207 Cd197 2.240 . S
O207 C205 1.279 . S
O208 Cd198 2.297 . S
O208 C203 1.247 . S
O209 Cd198 2.439 . S
O209 C203 1.208 . S
O210 Cd211 2.223 . S
O210 C218 1.315 . S
Cd211 O210 2.223 . S
Cd211 O214 2.297 . S
Cd211 O215 2.439 . S
Cd211 O221 2.240 . S
Cd212 O213 2.240 . S
Cd212 O220 2.223 . S
Cd212 O222 2.297 1_554 S
Cd212 O223 2.439 1_554 S
O213 Cd212 2.240 . S
O213 C218 1.279 . S
O214 Cd211 2.297 . S
O214 C216 1.247 . S
O215 Cd211 2.439 . S
O215 C216 1.208 . S
C216 O214 1.247 . S
C216 O215 1.208 . S
C217 O222 1.247 . S
C217 O223 1.208 . S
C218 O210 1.315 . S
C218 O213 1.279 . S
C219 O220 1.315 . S
C219 O221 1.279 . S
O220 Cd212 2.223 . S
O220 C219 1.315 . S
O221 Cd211 2.240 . S
O221 C219 1.279 . S
O222 Cd212 2.297 1_556 S
O222 C217 1.247 . S
O223 Cd212 2.439 1_556 S
O223 C217 1.208 . S
O224 Cd225 2.223 . S
O224 C232 1.315 . S
Cd225 O224 2.223 . S
Cd225 O228 2.297 . S
Cd225 O229 2.439 . S
Cd225 O235 2.240 . S
Cd226 O227 2.240 . S
Cd226 O234 2.223 . S
Cd226 O236 2.297 . S
Cd226 O237 2.439 . S
O227 Cd226 2.240 . S
O227 C232 1.279 . S
O228 Cd225 2.297 . S
O228 C230 1.247 . S
O229 Cd225 2.439 . S
O229 C230 1.208 . S
C230 O228 1.247 . S
C230 O229 1.208 . S
C231 O236 1.247 . S
C231 O237 1.208 . S
C232 O224 1.315 . S
C232 O227 1.279 . S
C233 O234 1.315 . S
C233 O235 1.279 . S
O234 Cd226 2.223 . S
O234 C233 1.315 . S
O235 Cd225 2.240 . S
O235 C233 1.279 . S
O236 Cd226 2.297 . S
O236 C231 1.247 . S
O237 Cd226 2.439 . S
O237 C231 1.208 . S
O238 Cd239 2.223 . S
O238 C246 1.315 . S
Cd239 O238 2.223 . S
Cd239 O242 2.297 . S
Cd239 O243 2.439 . S
Cd239 O249 2.240 . S
Cd240 O241 2.240 . S
Cd240 O248 2.223 . S
Cd240 O250 2.297 1_554 S
Cd240 O251 2.439 1_554 S
O241 Cd240 2.240 . S
O241 C246 1.279 . S
O242 Cd239 2.297 . S
O242 C244 1.247 . S
O243 Cd239 2.439 . S
O243 C244 1.208 . S
C244 O242 1.247 . S
C244 O243 1.208 . S
C245 O250 1.247 . S
C245 O251 1.208 . S
C246 O238 1.315 . S
C246 O241 1.279 . S
C247 O248 1.315 . S
C247 O249 1.279 . S
O248 Cd240 2.223 . S
O248 C247 1.315 . S
O249 Cd239 2.240 . S
O249 C247 1.279 . S
O250 Cd240 2.297 1_556 S
O250 C245 1.247 . S
O251 Cd240 2.439 1_556 S
O251 C245 1.208 . S
O252 Cd253 2.223 . S
O252 C260 1.315 . S
Cd253 O252 2.223 . S
Cd253 O256 2.297 . S
Cd253 O257 2.439 . S
Cd253 O263 2.240 . S
Cd254 O255 2.240 . S
Cd254 O262 2.223 . S
Cd254 O264 2.297 . S
Cd254 O265 2.439 . S
O255 Cd254 2.240 . S
O255 C260 1.279 . S
O256 Cd253 2.297 . S
O256 C258 1.247 . S
O257 Cd253 2.439 . S
O257 C258 1.208 . S
C258 O256 1.247 . S
C258 O257 1.208 . S
C259 O264 1.247 . S
C259 O265 1.208 . S
C260 O252 1.315 . S
C260 O255 1.279 . S
C261 O262 1.315 . S
C261 O263 1.279 . S
O262 Cd254 2.223 . S
O262 C261 1.315 . S
O263 Cd253 2.240 . S
O263 C261 1.279 . S
O264 Cd254 2.297 . S
O264 C259 1.247 . S
O265 Cd254 2.439 . S
O265 C259 1.208 . S
O266 Cd267 2.223 . S
O266 C274 1.315 . S
Cd267 O266 2.223 . S
Cd267 O270 2.297 . S
Cd267 O271 2.439 . S
Cd267 O277 2.240 . S
Cd268 O269 2.240 . S
Cd268 O276 2.223 . S
Cd268 O278 2.297 . S
Cd268 O279 2.439 . S
O269 Cd268 2.240 . S
O269 C274 1.279 . S
O270 Cd267 2.297 . S
O270 C272 1.247 . S
O271 Cd267 2.439 . S
O271 C272 1.208 . S
C272 O270 1.247 . S
C272 O271 1.208 . S
C273 O278 1.247 . S
C273 O279 1.208 . S
C274 O266 1.315 . S
C274 O269 1.279 . S
C275 O276 1.315 . S
C275 O277 1.279 . S
O276 Cd268 2.223 . S
O276 C275 1.315 . S
O277 Cd267 2.240 . S
O277 C275 1.279 . S
O278 Cd268 2.297 . S
O278 C273 1.247 . S
O279 Cd268 2.439 . S
O279 C273 1.208 . S
O280 Cd281 2.223 . S
O280 C288 1.315 . S
Cd281 O280 2.223 . S
Cd281 O284 2.297 . S
Cd281 O285 2.439 . S
Cd281 O291 2.240 . S
Cd282 O283 2.240 . S
Cd282 O290 2.223 . S
Cd282 O292 2.297 . S
Cd282 O293 2.439 . S
O283 Cd282 2.240 . S
O283 C288 1.279 . S
O284 Cd281 2.297 . S
O284 C286 1.247 . S
O285 Cd281 2.439 . S
O285 C286 1.208 . S
C286 O284 1.247 . S
C286 O285 1.208 . S
C287 O292 1.247 . S
C287 O293 1.208 . S
C288 O280 1.315 . S
C288 O283 1.279 . S
C289 O290 1.315 . S
C289 O291 1.279 . S
O290 Cd282 2.223 . S
O290 C289 1.315 . S
O291 Cd281 2.240 . S
O291 C289 1.279 . S
O292 Cd282 2.297 . S
O292 C287 1.247 . S
O293 Cd282 2.439 . S
O293 C287 1.208 . S
O294 Cd295 2.223 . S
O294 C302 1.315 . S
Cd295 O294 2.223 . S
Cd295 O298 2.297 . S
Cd295 O299 2.439 . S
Cd295 O305 2.240 . S
Cd296 O297 2.240 . S
Cd296 O304 2.223 . S
Cd296 O306 2.297 1_556 S
Cd296 O307 2.439 1_556 S
O297 Cd296 2.240 . S
O297 C302 1.279 . S
O298 Cd295 2.297 . S
O298 C300 1.247 . S
O299 Cd295 2.439 . S
O299 C300 1.208 . S
C300 O298 1.247 . S
C300 O299 1.208 . S
C301 O306 1.247 . S
C301 O307 1.208 . S
C302 O294 1.315 . S
C302 O297 1.279 . S
C303 O304 1.315 . S
C303 O305 1.279 . S
O304 Cd296 2.223 . S
O304 C303 1.315 . S
O305 Cd295 2.240 . S
O305 C303 1.279 . S
O306 Cd296 2.297 1_554 S
O306 C301 1.247 . S
O307 Cd296 2.439 1_554 S
O307 C301 1.208 . S
O308 Cd309 2.223 . S
O308 C316 1.315 . S
Cd309 O308 2.223 . S
Cd309 O312 2.297 . S
Cd309 O313 2.439 . S
Cd309 O319 2.240 . S
Cd310 O311 2.240 . S
Cd310 O318 2.223 . S
Cd310 O320 2.297 . S
Cd310 O321 2.439 . S
O311 Cd310 2.240 . S
O311 C316 1.279 . S
O312 Cd309 2.297 . S
O312 C314 1.247 . S
O313 Cd309 2.439 . S
O313 C314 1.208 . S
C314 O312 1.247 . S
C314 O313 1.208 . S
C315 O320 1.247 . S
C315 O321 1.208 . S
C316 O308 1.315 . S
C316 O311 1.279 . S
C317 O318 1.315 . S
C317 O319 1.279 . S
O318 Cd310 2.223 . S
O318 C317 1.315 . S
O319 Cd309 2.240 . S
O319 C317 1.279 . S
O320 Cd310 2.297 . S
O320 C315 1.247 . S
O321 Cd310 2.439 . S
O321 C315 1.208 . S
O322 Cd323 2.223 . S
O322 C330 1.315 . S
Cd323 O322 2.223 . S
Cd323 O326 2.297 . S
Cd323 O327 2.439 . S
Cd323 O333 2.240 . S
Cd324 O325 2.240 . S
Cd324 O332 2.223 . S
Cd324 O334 2.297 . S
Cd324 O335 2.439 . S
O325 Cd324 2.240 . S
O325 C330 1.279 . S
O326 Cd323 2.297 . S
O326 C328 1.247 . S
O327 Cd323 2.439 . S
O327 C328 1.208 . S
C328 O326 1.247 . S
C328 O327 1.208 . S
C329 O334 1.247 . S
C329 O335 1.208 . S
C330 O322 1.315 . S
C330 O325 1.279 . S
C331 O332 1.315 . S
C331 O333 1.279 . S
O332 Cd324 2.223 . S
O332 C331 1.315 . S
O333 Cd323 2.240 . S
O333 C331 1.279 . S
O334 Cd324 2.297 . S
O334 C329 1.247 . S
O335 Cd324 2.439 . S
O335 C329 1.208 . S
O336 Cd337 2.223 . S
O336 C344 1.315 . S
Cd337 O336 2.223 . S
Cd337 O340 2.297 . S
Cd337 O341 2.439 . S
Cd337 O347 2.240 . S
Cd338 O339 2.240 . S
Cd338 O346 2.223 . S
Cd338 O348 2.297 . S
Cd338 O349 2.439 . S
O339 Cd338 2.240 . S
O339 C344 1.279 . S
O340 Cd337 2.297 . S
O340 C342 1.247 . S
O341 Cd337 2.439 . S
O341 C342 1.208 . S
C342 O340 1.247 . S
C342 O341 1.208 . S
C343 O348 1.247 . S
C343 O349 1.208 . S
C344 O336 1.315 . S
C344 O339 1.279 . S
C345 O346 1.315 . S
C345 O347 1.279 . S
O346 Cd338 2.223 . S
O346 C345 1.315 . S
O347 Cd337 2.240 . S
O347 C345 1.279 . S
O348 Cd338 2.297 . S
O348 C343 1.247 . S
O349 Cd338 2.439 . S
O349 C343 1.208 . S
O350 Cd351 2.223 . S
O350 C358 1.315 . S
Cd351 O350 2.223 . S
Cd351 O354 2.297 . S
Cd351 O355 2.439 . S
Cd351 O361 2.240 . S
Cd352 O353 2.240 . S
Cd352 O360 2.223 . S
Cd352 O362 2.297 1_556 S
Cd352 O363 2.439 1_556 S
O353 Cd352 2.240 . S
O353 C358 1.279 . S
O354 Cd351 2.297 . S
O354 C356 1.247 . S
O355 Cd351 2.439 . S
O355 C356 1.208 . S
C356 O354 1.247 . S
C356 O355 1.208 . S
C357 O362 1.247 . S
C357 O363 1.208 . S
C358 O350 1.315 . S
C358 O353 1.279 . S
C359 O360 1.315 . S
C359 O361 1.279 . S
O360 Cd352 2.223 . S
O360 C359 1.315 . S
O361 Cd351 2.240 . S
O361 C359 1.279 . S
O362 Cd352 2.297 1_554 S
O362 C357 1.247 . S
O363 Cd352 2.439 1_554 S
O363 C357 1.208 . S
O364 Cd365 2.223 . S
O364 C372 1.315 . S
Cd365 O364 2.223 . S
Cd365 O368 2.297 . S
Cd365 O369 2.439 . S
Cd365 O375 2.240 . S
Cd366 O367 2.240 . S
Cd366 O374 2.223 . S
Cd366 O376 2.297 . S
Cd366 O377 2.439 . S
O367 Cd366 2.240 . S
O367 C372 1.279 . S
O368 Cd365 2.297 . S
O368 C370 1.247 . S
O369 Cd365 2.439 . S
O369 C370 1.208 . S
C370 O368 1.247 . S
C370 O369 1.208 . S
C371 O376 1.247 . S
C371 O377 1.208 . S
C372 O364 1.315 . S
C372 O367 1.279 . S
C373 O374 1.315 . S
C373 O375 1.279 . S
O374 Cd366 2.223 . S
O374 C373 1.315 . S
O375 Cd365 2.240 . S
O375 C373 1.279 . S
O376 Cd366 2.297 . S
O376 C371 1.247 . S
O377 Cd366 2.439 . S
O377 C371 1.208 . S
O378 Cd379 2.223 . S
O378 C386 1.315 . S
Cd379 O378 2.223 . S
Cd379 O382 2.297 . S
Cd379 O383 2.439 . S
Cd379 O389 2.240 . S
Cd380 O381 2.240 . S
Cd380 O388 2.223 . S
Cd380 O390 2.297 . S
Cd380 O391 2.439 . S
O381 Cd380 2.240 . S
O381 C386 1.279 . S
O382 Cd379 2.297 . S
O382 C384 1.247 . S
O383 Cd379 2.439 . S
O383 C384 1.208 . S
C384 O382 1.247 . S
C384 O383 1.208 . S
C385 O390 1.247 . S
C385 O391 1.208 . S
C386 O378 1.315 . S
C386 O381 1.279 . S
C387 O388 1.315 . S
C387 O389 1.279 . S
O388 Cd380 2.223 . S
O388 C387 1.315 . S
O389 Cd379 2.240 . S
O389 C387 1.279 . S
O390 Cd380 2.297 . S
O390 C385 1.247 . S
O391 Cd380 2.439 . S
O391 C385 1.208 . S
O392 Cd393 2.223 . S
O392 C400 1.315 . S
Cd393 O392 2.223 . S
Cd393 O396 2.297 . S
Cd393 O397 2.439 . S
Cd393 O403 2.240 . S
Cd394 O395 2.240 . S
Cd394 O402 2.223 . S
Cd394 O404 2.297 . S
Cd394 O405 2.439 . S
O395 Cd394 2.240 . S
O395 C400 1.279 . S
O396 Cd393 2.297 . S
O396 C398 1.247 . S
O397 Cd393 2.439 . S
O397 C398 1.208 . S
C398 O396 1.247 . S
C398 O397 1.208 . S
C399 O404 1.247 . S
C399 O405 1.208 . S
C400 O392 1.315 . S
C400 O395 1.279 . S
C401 O402 1.315 . S
C401 O403 1.279 . S
O402 Cd394 2.223 . S
O402 C401 1.315 . S
O403 Cd393 2.240 . S
O403 C401 1.279 . S
O404 Cd394 2.297 . S
O404 C399 1.247 . S
O405 Cd394 2.439 . S
O405 C399 1.208 . S
O406 Cd407 2.223 . S
O406 C414 1.315 . S
Cd407 O406 2.223 . S
Cd407 O410 2.297 . S
Cd407 O411 2.439 . S
Cd407 O417 2.240 . S
Cd408 O409 2.240 . S
Cd408 O416 2.223 . S
Cd408 O418 2.297 1_554 S
Cd408 O419 2.439 1_554 S
O409 Cd408 2.240 . S
O409 C414 1.279 . S
O410 Cd407 2.297 . S
O410 C412 1.247 . S
O411 Cd407 2.439 . S
O411 C412 1.208 . S
C412 O410 1.247 . S
C412 O411 1.208 . S
C413 O418 1.247 . S
C413 O419 1.208 . S
C414 O406 1.315 . S
C414 O409 1.279 . S
C415 O416 1.315 . S
C415 O417 1.279 . S
O416 Cd408 2.223 . S
O416 C415 1.315 . S
O417 Cd407 2.240 . S
O417 C415 1.279 . S
O418 Cd408 2.297 1_556 S
O418 C413 1.247 . S
O419 Cd408 2.439 1_556 S
O419 C413 1.208 . S
O420 Cd421 2.223 . S
O420 C428 1.315 . S
Cd421 O420 2.223 . S
Cd421 O424 2.297 . S
Cd421 O425 2.439 . S
Cd421 O431 2.240 . S
Cd422 O423 2.240 . S
Cd422 O430 2.223 . S
Cd422 O432 2.297 . S
Cd422 O433 2.439 . S
O423 Cd422 2.240 . S
O423 C428 1.279 . S
O424 Cd421 2.297 . S
O424 C426 1.247 . S
O425 Cd421 2.439 . S
O425 C426 1.208 . S
C426 O424 1.247 . S
C426 O425 1.208 . S
C427 O432 1.247 . S
C427 O433 1.208 . S
C428 O420 1.315 . S
C428 O423 1.279 . S
C429 O430 1.315 . S
C429 O431 1.279 . S
O430 Cd422 2.223 . S
O430 C429 1.315 . S
O431 Cd421 2.240 . S
O431 C429 1.279 . S
O432 Cd422 2.297 . S
O432 C427 1.247 . S
O433 Cd422 2.439 . S
O433 C427 1.208 . S
O434 Cd435 2.223 . S
O434 C442 1.315 . S
Cd435 O434 2.223 . S
Cd435 O438 2.297 . S
Cd435 O439 2.439 . S
Cd435 O445 2.240 . S
Cd436 O437 2.240 . S
Cd436 O444 2.223 . S
Cd436 O446 2.297 . S
Cd436 O447 2.439 . S
O437 Cd436 2.240 . S
O437 C442 1.279 . S
O438 Cd435 2.297 . S
O438 C440 1.247 . S
O439 Cd435 2.439 . S
O439 C440 1.208 . S
C440 O438 1.247 . S
C440 O439 1.208 . S
C441 O446 1.247 . S
C441 O447 1.208 . S
C442 O434 1.315 . S
C442 O437 1.279 . S
C443 O444 1.315 . S
C443 O445 1.279 . S
O444 Cd436 2.223 . S
O444 C443 1.315 . S
O445 Cd435 2.240 . S
O445 C443 1.279 . S
O446 Cd436 2.297 . S
O446 C441 1.247 . S
O447 Cd436 2.439 . S
O447 C441 1.208 . S
H448 C456 0.929 . S
H449 C458 0.930 . S
H450 C460 0.930 . S
H451 C463 0.929 . S
H452 C466 0.930 . S
H453 C468 0.960 . S
H454 C468 0.960 . S
H455 C468 0.960 . S
C456 H448 0.929 . S
C456 C457 1.377 . S
C456 C458 1.384 . S
C457 C456 1.377 . S
C457 C463 1.390 . S
C458 H449 0.930 . S
C458 C456 1.384 . S
C458 C459 1.372 . S
C459 C458 1.372 . S
C459 C460 1.400 . S
C459 C464 1.490 . S
C460 H450 0.930 . S
C460 C459 1.400 . S
C460 C463 1.386 . S
H461 C477 0.930 . S
H462 C478 0.931 . S
C463 H451 0.929 . S
C463 C457 1.390 . S
C463 C460 1.386 . S
C464 C459 1.490 . S
C464 C466 1.395 . S
C464 C467 1.403 . S
H465 C471 0.930 . S
C466 H452 0.930 . S
C466 C464 1.395 . S
C466 C469 1.403 . S
C467 C464 1.403 . S
C467 C468 1.524 . S
C467 C471 1.400 . S
C468 H453 0.960 . S
C468 H454 0.960 . S
C468 H455 0.960 . S
C468 C467 1.524 . S
C469 C466 1.403 . S
C469 C470 1.392 . S
C469 C473 1.495 . S
C470 C469 1.392 . S
C470 C471 1.385 . S
C470 C472 1.478 . S
C471 H465 0.930 . S
C471 C467 1.400 . S
C471 C470 1.385 . S
C472 C470 1.478 . S
C472 C474 1.381 . S
C472 C478 1.383 . S
C473 C469 1.495 . S
C473 H479 0.959 . S
C473 H480 0.961 . S
C473 H481 0.960 . S
C474 C472 1.381 . S
C474 C475 1.394 . S
C474 H482 0.930 . S
C475 C474 1.394 . S
C475 C476 1.383 . S
C475 H483 0.929 . S
C476 C475 1.383 . S
C476 C477 1.377 . S
C477 H461 0.930 . S
C477 C476 1.377 . S
C477 C478 1.379 . S
C478 H462 0.931 . S
C478 C472 1.383 . S
C478 C477 1.379 . S
H479 C473 0.959 . S
H480 C473 0.961 . S
H481 C473 0.960 . S
H482 C474 0.930 . S
H483 C475 0.929 . S
H484 C492 0.929 . S
H485 C494 0.930 . S
H486 C496 0.930 . S
H487 C499 0.929 . S
H488 C502 0.930 . S
H489 C504 0.960 . S
H490 C504 0.960 . S
H491 C504 0.960 . S
C492 H484 0.929 . S
C492 C493 1.377 . S
C492 C494 1.384 . S
C493 C492 1.377 . S
C493 C499 1.390 . S
C494 H485 0.930 . S
C494 C492 1.384 . S
C494 C495 1.372 . S
C495 C494 1.372 . S
C495 C496 1.400 . S
C495 C500 1.490 . S
C496 H486 0.930 . S
C496 C495 1.400 . S
C496 C499 1.386 . S
H497 C513 0.930 . S
H498 C514 0.931 . S
C499 H487 0.929 . S
C499 C493 1.390 . S
C499 C496 1.386 . S
C500 C495 1.490 . S
C500 C502 1.395 . S
C500 C503 1.403 . S
H501 C507 0.930 . S
C502 H488 0.930 . S
C502 C500 1.395 . S
C502 C505 1.403 . S
C503 C500 1.403 . S
C503 C504 1.524 . S
C503 C507 1.400 . S
C504 H489 0.960 . S
C504 H490 0.960 . S
C504 H491 0.960 . S
C504 C503 1.524 . S
C505 C502 1.403 . S
C505 C506 1.392 . S
C505 C509 1.495 . S
C506 C505 1.392 . S
C506 C507 1.385 . S
C506 C508 1.478 . S
C507 H501 0.930 . S
C507 C503 1.400 . S
C507 C506 1.385 . S
C508 C506 1.478 . S
C508 C510 1.381 . S
C508 C514 1.383 . S
C509 C505 1.495 . S
C509 H515 0.959 . S
C509 H516 0.961 . S
C509 H517 0.960 . S
C510 C508 1.381 . S
C510 C511 1.394 . S
C510 H518 0.930 . S
C511 C510 1.394 . S
C511 C512 1.383 . S
C511 H519 0.929 . S
C512 C511 1.383 . S
C512 C513 1.377 . S
C513 H497 0.930 . S
C513 C512 1.377 . S
C513 C514 1.379 . S
C514 H498 0.931 . S
C514 C508 1.383 . S
C514 C513 1.379 . S
H515 C509 0.959 . S
H516 C509 0.961 . S
H517 C509 0.960 . S
H518 C510 0.930 . S
H519 C511 0.929 . S
H520 C528 0.929 . S
H521 C530 0.930 . S
H522 C532 0.930 . S
H523 C535 0.929 . S
H524 C538 0.930 . S
H525 C540 0.960 . S
H526 C540 0.960 . S
H527 C540 0.960 . S
C528 H520 0.929 . S
C528 C529 1.377 . S
C528 C530 1.384 . S
C529 C528 1.377 . S
C529 C535 1.390 . S
C530 H521 0.930 . S
C530 C528 1.384 . S
C530 C531 1.372 . S
C531 C530 1.372 . S
C531 C532 1.400 . S
C531 C536 1.490 . S
C532 H522 0.930 . S
C532 C531 1.400 . S
C532 C535 1.386 . S
H533 C549 0.930 . S
H534 C550 0.931 . S
C535 H523 0.929 . S
C535 C529 1.390 . S
C535 C532 1.386 . S
C536 C531 1.490 . S
C536 C538 1.395 . S
C536 C539 1.403 . S
H537 C543 0.930 . S
C538 H524 0.930 . S
C538 C536 1.395 . S
C538 C541 1.403 . S
C539 C536 1.403 . S
C539 C540 1.524 . S
C539 C543 1.400 . S
C540 H525 0.960 . S
C540 H526 0.960 . S
C540 H527 0.960 . S
C540 C539 1.524 . S
C541 C538 1.403 . S
C541 C542 1.392 . S
C541 C545 1.495 . S
C542 C541 1.392 . S
C542 C543 1.385 . S
C542 C544 1.478 . S
C543 H537 0.930 . S
C543 C539 1.400 . S
C543 C542 1.385 . S
C544 C542 1.478 . S
C544 C546 1.381 . S
C544 C550 1.383 . S
C545 C541 1.495 . S
C545 H551 0.959 . S
C545 H552 0.961 . S
C545 H553 0.960 . S
C546 C544 1.381 . S
C546 C547 1.394 . S
C546 H554 0.930 . S
C547 C546 1.394 . S
C547 C548 1.383 . S
C547 H555 0.929 . S
C548 C547 1.383 . S
C548 C549 1.377 . S
C549 H533 0.930 . S
C549 C548 1.377 . S
C549 C550 1.379 . S
C550 H534 0.931 . S
C550 C544 1.383 . S
C550 C549 1.379 . S
H551 C545 0.959 . S
H552 C545 0.961 . S
H553 C545 0.960 . S
H554 C546 0.930 . S
H555 C547 0.929 . S
H556 C564 0.929 . S
H557 C566 0.930 . S
H558 C568 0.930 . S
H559 C571 0.929 . S
H560 C574 0.930 . S
H561 C576 0.960 . S
H562 C576 0.960 . S
H563 C576 0.960 . S
C564 H556 0.929 . S
C564 C565 1.377 . S
C564 C566 1.384 . S
C565 C564 1.377 . S
C565 C571 1.390 . S
C566 H557 0.930 . S
C566 C564 1.384 . S
C566 C567 1.372 . S
C567 C566 1.372 . S
C567 C568 1.400 . S
C567 C572 1.490 . S
C568 H558 0.930 . S
C568 C567 1.400 . S
C568 C571 1.386 . S
H569 C585 0.930 . S
H570 C586 0.931 . S
C571 H559 0.929 . S
C571 C565 1.390 . S
C571 C568 1.386 . S
C572 C567 1.490 . S
C572 C574 1.395 . S
C572 C575 1.403 . S
H573 C579 0.930 . S
C574 H560 0.930 . S
C574 C572 1.395 . S
C574 C577 1.403 . S
C575 C572 1.403 . S
C575 C576 1.524 . S
C575 C579 1.400 . S
C576 H561 0.960 . S
C576 H562 0.960 . S
C576 H563 0.960 . S
C576 C575 1.524 . S
C577 C574 1.403 . S
C577 C578 1.392 . S
C577 C581 1.495 . S
C578 C577 1.392 . S
C578 C579 1.385 . S
C578 C580 1.478 . S
C579 H573 0.930 . S
C579 C575 1.400 . S
C579 C578 1.385 . S
C580 C578 1.478 . S
C580 C582 1.381 . S
C580 C586 1.383 . S
C581 C577 1.495 . S
C581 H587 0.959 . S
C581 H588 0.961 . S
C581 H589 0.960 . S
C582 C580 1.381 . S
C582 C583 1.394 . S
C582 H590 0.930 . S
C583 C582 1.394 . S
C583 C584 1.383 . S
C583 H591 0.929 . S
C584 C583 1.383 . S
C584 C585 1.377 . S
C585 H569 0.930 . S
C585 C584 1.377 . S
C585 C586 1.379 . S
C586 H570 0.931 . S
C586 C580 1.383 . S
C586 C585 1.379 . S
H587 C581 0.959 . S
H588 C581 0.961 . S
H589 C581 0.960 . S
H590 C582 0.930 . S
H591 C583 0.929 . S
H592 C600 0.929 . S
H593 C602 0.930 . S
H594 C604 0.930 . S
H595 C607 0.929 . S
H596 C610 0.930 . S
H597 C612 0.960 . S
H598 C612 0.960 . S
H599 C612 0.960 . S
C600 H592 0.929 . S
C600 C601 1.377 . S
C600 C602 1.384 . S
C601 C600 1.377 . S
C601 C607 1.390 . S
C602 H593 0.930 . S
C602 C600 1.384 . S
C602 C603 1.372 . S
C603 C602 1.372 . S
C603 C604 1.400 . S
C603 C608 1.490 . S
C604 H594 0.930 . S
C604 C603 1.400 . S
C604 C607 1.386 . S
H605 C621 0.930 . S
H606 C622 0.931 . S
C607 H595 0.929 . S
C607 C601 1.390 . S
C607 C604 1.386 . S
C608 C603 1.490 . S
C608 C610 1.395 . S
C608 C611 1.403 . S
H609 C615 0.930 . S
C610 H596 0.930 . S
C610 C608 1.395 . S
C610 C613 1.403 . S
C611 C608 1.403 . S
C611 C612 1.524 . S
C611 C615 1.400 . S
C612 H597 0.960 . S
C612 H598 0.960 . S
C612 H599 0.960 . S
C612 C611 1.524 . S
C613 C610 1.403 . S
C613 C614 1.392 . S
C613 C617 1.495 . S
C614 C613 1.392 . S
C614 C615 1.385 . S
C614 C616 1.478 . S
C615 H609 0.930 . S
C615 C611 1.400 . S
C615 C614 1.385 . S
C616 C614 1.478 . S
C616 C618 1.381 . S
C616 C622 1.383 . S
C617 C613 1.495 . S
C617 H623 0.959 . S
C617 H624 0.961 . S
C617 H625 0.960 . S
C618 C616 1.381 . S
C618 C619 1.394 . S
C618 H626 0.930 . S
C619 C618 1.394 . S
C619 C620 1.383 . S
C619 H627 0.929 . S
C620 C619 1.383 . S
C620 C621 1.377 . S
C621 H605 0.930 . S
C621 C620 1.377 . S
C621 C622 1.379 . S
C622 H606 0.931 . S
C622 C616 1.383 . S
C622 C621 1.379 . S
H623 C617 0.959 . S
H624 C617 0.961 . S
H625 C617 0.960 . S
H626 C618 0.930 . S
H627 C619 0.929 . S
H628 C636 0.929 . S
H629 C638 0.930 . S
H630 C640 0.930 . S
H631 C643 0.929 . S
H632 C646 0.930 . S
H633 C648 0.960 . S
H634 C648 0.960 . S
H635 C648 0.960 . S
C636 H628 0.929 . S
C636 C637 1.377 . S
C636 C638 1.384 . S
C637 C636 1.377 . S
C637 C643 1.390 . S
C638 H629 0.930 . S
C638 C636 1.384 . S
C638 C639 1.372 . S
C639 C638 1.372 . S
C639 C640 1.400 . S
C639 C644 1.490 . S
C640 H630 0.930 . S
C640 C639 1.400 . S
C640 C643 1.386 . S
H641 C657 0.930 . S
H642 C658 0.931 . S
C643 H631 0.929 . S
C643 C637 1.390 . S
C643 C640 1.386 . S
C644 C639 1.490 . S
C644 C646 1.395 . S
C644 C647 1.403 . S
H645 C651 0.930 . S
C646 H632 0.930 . S
C646 C644 1.395 . S
C646 C649 1.403 . S
C647 C644 1.403 . S
C647 C648 1.524 . S
C647 C651 1.400 . S
C648 H633 0.960 . S
C648 H634 0.960 . S
C648 H635 0.960 . S
C648 C647 1.524 . S
C649 C646 1.403 . S
C649 C650 1.392 . S
C649 C653 1.495 . S
C650 C649 1.392 . S
C650 C651 1.385 . S
C650 C652 1.478 . S
C651 H645 0.930 . S
C651 C647 1.400 . S
C651 C650 1.385 . S
C652 C650 1.478 . S
C652 C654 1.381 . S
C652 C658 1.383 . S
C653 C649 1.495 . S
C653 H659 0.959 . S
C653 H660 0.961 . S
C653 H661 0.960 . S
C654 C652 1.381 . S
C654 C655 1.394 . S
C654 H662 0.930 . S
C655 C654 1.394 . S
C655 C656 1.383 . S
C655 H663 0.929 . S
C656 C655 1.383 . S
C656 C657 1.377 . S
C657 H641 0.930 . S
C657 C656 1.377 . S
C657 C658 1.379 . S
C658 H642 0.931 . S
C658 C652 1.383 . S
C658 C657 1.379 . S
H659 C653 0.959 . S
H660 C653 0.961 . S
H661 C653 0.960 . S
H662 C654 0.930 . S
H663 C655 0.929 . S
H664 C672 0.929 . S
H665 C674 0.930 . S
H666 C676 0.930 . S
H667 C679 0.929 . S
H668 C682 0.930 . S
H669 C684 0.960 . S
H670 C684 0.960 . S
H671 C684 0.960 . S
C672 H664 0.929 . S
C672 C673 1.377 . S
C672 C674 1.384 . S
C673 C672 1.377 . S
C673 C679 1.390 . S
C674 H665 0.930 . S
C674 C672 1.384 . S
C674 C675 1.372 . S
C675 C674 1.372 . S
C675 C676 1.400 . S
C675 C680 1.490 . S
C676 H666 0.930 . S
C676 C675 1.400 . S
C676 C679 1.386 . S
H677 C693 0.930 . S
H678 C694 0.931 . S
C679 H667 0.929 . S
C679 C673 1.390 . S
C679 C676 1.386 . S
C680 C675 1.490 . S
C680 C682 1.395 . S
C680 C683 1.403 . S
H681 C687 0.930 . S
C682 H668 0.930 . S
C682 C680 1.395 . S
C682 C685 1.403 . S
C683 C680 1.403 . S
C683 C684 1.524 . S
C683 C687 1.400 . S
C684 H669 0.960 . S
C684 H670 0.960 . S
C684 H671 0.960 . S
C684 C683 1.524 . S
C685 C682 1.403 . S
C685 C686 1.392 . S
C685 C689 1.495 . S
C686 C685 1.392 . S
C686 C687 1.385 . S
C686 C688 1.478 . S
C687 H681 0.930 . S
C687 C683 1.400 . S
C687 C686 1.385 . S
C688 C686 1.478 . S
C688 C690 1.381 . S
C688 C694 1.383 . S
C689 C685 1.495 . S
C689 H695 0.959 . S
C689 H696 0.961 . S
C689 H697 0.960 . S
C690 C688 1.381 . S
C690 C691 1.394 . S
C690 H698 0.930 . S
C691 C690 1.394 . S
C691 C692 1.383 . S
C691 H699 0.929 . S
C692 C691 1.383 . S
C692 C693 1.377 . S
C693 H677 0.930 . S
C693 C692 1.377 . S
C693 C694 1.379 . S
C694 H678 0.931 . S
C694 C688 1.383 . S
C694 C693 1.379 . S
H695 C689 0.959 . S
H696 C689 0.961 . S
H697 C689 0.960 . S
H698 C690 0.930 . S
H699 C691 0.929 . S
H700 C708 0.929 . S
H701 C710 0.930 . S
H702 C712 0.930 . S
H703 C715 0.929 . S
H704 C718 0.930 . S
H705 C720 0.960 . S
H706 C720 0.960 . S
H707 C720 0.960 . S
C708 H700 0.929 . S
C708 C709 1.377 . S
C708 C710 1.384 . S
C709 C708 1.377 . S
C709 C715 1.390 . S
C710 H701 0.930 . S
C710 C708 1.384 . S
C710 C711 1.372 . S
C711 C710 1.372 . S
C711 C712 1.400 . S
C711 C716 1.490 . S
C712 H702 0.930 . S
C712 C711 1.400 . S
C712 C715 1.386 . S
H713 C729 0.930 . S
H714 C730 0.931 . S
C715 H703 0.929 . S
C715 C709 1.390 . S
C715 C712 1.386 . S
C716 C711 1.490 . S
C716 C718 1.395 . S
C716 C719 1.403 . S
H717 C723 0.930 . S
C718 H704 0.930 . S
C718 C716 1.395 . S
C718 C721 1.403 . S
C719 C716 1.403 . S
C719 C720 1.524 . S
C719 C723 1.400 . S
C720 H705 0.960 . S
C720 H706 0.960 . S
C720 H707 0.960 . S
C720 C719 1.524 . S
C721 C718 1.403 . S
C721 C722 1.392 . S
C721 C725 1.495 . S
C722 C721 1.392 . S
C722 C723 1.385 . S
C722 C724 1.478 . S
C723 H717 0.930 . S
C723 C719 1.400 . S
C723 C722 1.385 . S
C724 C722 1.478 . S
C724 C726 1.381 . S
C724 C730 1.383 . S
C725 C721 1.495 . S
C725 H731 0.959 . S
C725 H732 0.961 . S
C725 H733 0.960 . S
C726 C724 1.381 . S
C726 C727 1.394 . S
C726 H734 0.930 . S
C727 C726 1.394 . S
C727 C728 1.383 . S
C727 H735 0.929 . S
C728 C727 1.383 . S
C728 C729 1.377 . S
C729 H713 0.930 . S
C729 C728 1.377 . S
C729 C730 1.379 . S
C730 H714 0.931 . S
C730 C724 1.383 . S
C730 C729 1.379 . S
H731 C725 0.959 . S
H732 C725 0.961 . S
H733 C725 0.960 . S
H734 C726 0.930 . S
H735 C727 0.929 . S
H736 C744 0.929 . S
H737 C746 0.930 . S
H738 C748 0.930 . S
H739 C751 0.929 . S
H740 C754 0.930 . S
H741 C756 0.960 . S
H742 C756 0.960 . S
H743 C756 0.960 . S
C744 H736 0.929 . S
C744 C745 1.377 . S
C744 C746 1.384 . S
C745 C744 1.377 . S
C745 C751 1.390 . S
C746 H737 0.930 . S
C746 C744 1.384 . S
C746 C747 1.372 . S
C747 C746 1.372 . S
C747 C748 1.400 . S
C747 C752 1.490 . S
C748 H738 0.930 . S
C748 C747 1.400 . S
C748 C751 1.386 . S
H749 C765 0.930 . S
H750 C766 0.931 . S
C751 H739 0.929 . S
C751 C745 1.390 . S
C751 C748 1.386 . S
C752 C747 1.490 . S
C752 C754 1.395 . S
C752 C755 1.403 . S
H753 C759 0.930 . S
C754 H740 0.930 . S
C754 C752 1.395 . S
C754 C757 1.403 . S
C755 C752 1.403 . S
C755 C756 1.524 . S
C755 C759 1.400 . S
C756 H741 0.960 . S
C756 H742 0.960 . S
C756 H743 0.960 . S
C756 C755 1.524 . S
C757 C754 1.403 . S
C757 C758 1.392 . S
C757 C761 1.495 . S
C758 C757 1.392 . S
C758 C759 1.385 . S
C758 C760 1.478 . S
C759 H753 0.930 . S
C759 C755 1.400 . S
C759 C758 1.385 . S
C760 C758 1.478 . S
C760 C762 1.381 . S
C760 C766 1.383 . S
C761 C757 1.495 . S
C761 H767 0.959 . S
C761 H768 0.961 . S
C761 H769 0.960 . S
C762 C760 1.381 . S
C762 C763 1.394 . S
C762 H770 0.930 . S
C763 C762 1.394 . S
C763 C764 1.383 . S
C763 H771 0.929 . S
C764 C763 1.383 . S
C764 C765 1.377 . S
C765 H749 0.930 . S
C765 C764 1.377 . S
C765 C766 1.379 . S
C766 H750 0.931 . S
C766 C760 1.383 . S
C766 C765 1.379 . S
H767 C761 0.959 . S
H768 C761 0.961 . S
H769 C761 0.960 . S
H770 C762 0.930 . S
H771 C763 0.929 . S
H772 C780 0.929 . S
H773 C782 0.930 . S
H774 C784 0.930 . S
H775 C787 0.929 . S
H776 C790 0.930 . S
H777 C792 0.960 . S
H778 C792 0.960 . S
H779 C792 0.960 . S
C780 H772 0.929 . S
C780 C781 1.377 . S
C780 C782 1.384 . S
C781 C780 1.377 . S
C781 C787 1.390 . S
C782 H773 0.930 . S
C782 C780 1.384 . S
C782 C783 1.372 . S
C783 C782 1.372 . S
C783 C784 1.400 . S
C783 C788 1.490 . S
C784 H774 0.930 . S
C784 C783 1.400 . S
C784 C787 1.386 . S
H785 C801 0.930 . S
H786 C802 0.931 . S
C787 H775 0.929 . S
C787 C781 1.390 . S
C787 C784 1.386 . S
C788 C783 1.490 . S
C788 C790 1.395 . S
C788 C791 1.403 . S
H789 C795 0.930 . S
C790 H776 0.930 . S
C790 C788 1.395 . S
C790 C793 1.403 . S
C791 C788 1.403 . S
C791 C792 1.524 . S
C791 C795 1.400 . S
C792 H777 0.960 . S
C792 H778 0.960 . S
C792 H779 0.960 . S
C792 C791 1.524 . S
C793 C790 1.403 . S
C793 C794 1.392 . S
C793 C797 1.495 . S
C794 C793 1.392 . S
C794 C795 1.385 . S
C794 C796 1.478 . S
C795 H789 0.930 . S
C795 C791 1.400 . S
C795 C794 1.385 . S
C796 C794 1.478 . S
C796 C798 1.381 . S
C796 C802 1.383 . S
C797 C793 1.495 . S
C797 H803 0.959 . S
C797 H804 0.961 . S
C797 H805 0.960 . S
C798 C796 1.381 . S
C798 C799 1.394 . S
C798 H806 0.930 . S
C799 C798 1.394 . S
C799 C800 1.383 . S
C799 H807 0.929 . S
C800 C799 1.383 . S
C800 C801 1.377 . S
C801 H785 0.930 . S
C801 C800 1.377 . S
C801 C802 1.379 . S
C802 H786 0.931 . S
C802 C796 1.383 . S
C802 C801 1.379 . S
H803 C797 0.959 . S
H804 C797 0.961 . S
H805 C797 0.960 . S
H806 C798 0.930 . S
H807 C799 0.929 . S
H808 C816 0.929 . S
H809 C818 0.930 . S
H810 C820 0.930 . S
H811 C823 0.929 . S
H812 C826 0.930 . S
H813 C828 0.960 . S
H814 C828 0.960 . S
H815 C828 0.960 . S
C816 H808 0.929 . S
C816 C817 1.377 . S
C816 C818 1.384 . S
C817 C816 1.377 . S
C817 C823 1.390 . S
C818 H809 0.930 . S
C818 C816 1.384 . S
C818 C819 1.372 . S
C819 C818 1.372 . S
C819 C820 1.400 . S
C819 C824 1.490 . S
C820 H810 0.930 . S
C820 C819 1.400 . S
C820 C823 1.386 . S
H821 C837 0.930 . S
H822 C838 0.931 . S
C823 H811 0.929 . S
C823 C817 1.390 . S
C823 C820 1.386 . S
C824 C819 1.490 . S
C824 C826 1.395 . S
C824 C827 1.403 . S
H825 C831 0.930 . S
C826 H812 0.930 . S
C826 C824 1.395 . S
C826 C829 1.403 . S
C827 C824 1.403 . S
C827 C828 1.524 . S
C827 C831 1.400 . S
C828 H813 0.960 . S
C828 H814 0.960 . S
C828 H815 0.960 . S
C828 C827 1.524 . S
C829 C826 1.403 . S
C829 C830 1.392 . S
C829 C833 1.495 . S
C830 C829 1.392 . S
C830 C831 1.385 . S
C830 C832 1.478 . S
C831 H825 0.930 . S
C831 C827 1.400 . S
C831 C830 1.385 . S
C832 C830 1.478 . S
C832 C834 1.381 . S
C832 C838 1.383 . S
C833 C829 1.495 . S
C833 H839 0.959 . S
C833 H840 0.961 . S
C833 H841 0.960 . S
C834 C832 1.381 . S
C834 C835 1.394 . S
C834 H842 0.930 . S
C835 C834 1.394 . S
C835 C836 1.383 . S
C835 H843 0.929 . S
C836 C835 1.383 . S
C836 C837 1.377 . S
C837 H821 0.930 . S
C837 C836 1.377 . S
C837 C838 1.379 . S
C838 H822 0.931 . S
C838 C832 1.383 . S
C838 C837 1.379 . S
H839 C833 0.959 . S
H840 C833 0.961 . S
H841 C833 0.960 . S
H842 C834 0.930 . S
H843 C835 0.929 . S
H844 C852 0.929 . S
H845 C854 0.930 . S
H846 C856 0.930 . S
H847 C859 0.929 . S
H848 C862 0.930 . S
H849 C864 0.960 . S
H850 C864 0.960 . S
H851 C864 0.960 . S
C852 H844 0.929 . S
C852 C853 1.377 . S
C852 C854 1.384 . S
C853 C852 1.377 . S
C853 C859 1.390 . S
C854 H845 0.930 . S
C854 C852 1.384 . S
C854 C855 1.372 . S
C855 C854 1.372 . S
C855 C856 1.400 . S
C855 C860 1.490 . S
C856 H846 0.930 . S
C856 C855 1.400 . S
C856 C859 1.386 . S
H857 C873 0.930 . S
H858 C874 0.931 . S
C859 H847 0.929 . S
C859 C853 1.390 . S
C859 C856 1.386 . S
C860 C855 1.490 . S
C860 C862 1.395 . S
C860 C863 1.403 . S
H861 C867 0.930 . S
C862 H848 0.930 . S
C862 C860 1.395 . S
C862 C865 1.403 . S
C863 C860 1.403 . S
C863 C864 1.524 . S
C863 C867 1.400 . S
C864 H849 0.960 . S
C864 H850 0.960 . S
C864 H851 0.960 . S
C864 C863 1.524 . S
C865 C862 1.403 . S
C865 C866 1.392 . S
C865 C869 1.495 . S
C866 C865 1.392 . S
C866 C867 1.385 . S
C866 C868 1.478 . S
C867 H861 0.930 . S
C867 C863 1.400 . S
C867 C866 1.385 . S
C868 C866 1.478 . S
C868 C870 1.381 . S
C868 C874 1.383 . S
C869 C865 1.495 . S
C869 H875 0.959 . S
C869 H876 0.961 . S
C869 H877 0.960 . S
C870 C868 1.381 . S
C870 C871 1.394 . S
C870 H878 0.930 . S
C871 C870 1.394 . S
C871 C872 1.383 . S
C871 H879 0.929 . S
C872 C871 1.383 . S
C872 C873 1.377 . S
C873 H857 0.930 . S
C873 C872 1.377 . S
C873 C874 1.379 . S
C874 H858 0.931 . S
C874 C868 1.383 . S
C874 C873 1.379 . S
H875 C869 0.959 . S
H876 C869 0.961 . S
H877 C869 0.960 . S
H878 C870 0.930 . S
H879 C871 0.929 . S
H880 C888 0.929 . S
H881 C890 0.930 . S
H882 C892 0.930 . S
H883 C895 0.929 . S
H884 C898 0.930 . S
H885 C900 0.960 . S
H886 C900 0.960 . S
H887 C900 0.960 . S
C888 H880 0.929 . S
C888 C889 1.377 . S
C888 C890 1.384 . S
C889 C888 1.377 . S
C889 C895 1.390 . S
C890 H881 0.930 . S
C890 C888 1.384 . S
C890 C891 1.372 . S
C891 C890 1.372 . S
C891 C892 1.400 . S
C891 C896 1.490 . S
C892 H882 0.930 . S
C892 C891 1.400 . S
C892 C895 1.386 . S
H893 C909 0.930 . S
H894 C910 0.931 . S
C895 H883 0.929 . S
C895 C889 1.390 . S
C895 C892 1.386 . S
C896 C891 1.490 . S
C896 C898 1.395 . S
C896 C899 1.403 . S
H897 C903 0.930 . S
C898 H884 0.930 . S
C898 C896 1.395 . S
C898 C901 1.403 . S
C899 C896 1.403 . S
C899 C900 1.524 . S
C899 C903 1.400 . S
C900 H885 0.960 . S
C900 H886 0.960 . S
C900 H887 0.960 . S
C900 C899 1.524 . S
C901 C898 1.403 . S
C901 C902 1.392 . S
C901 C905 1.495 . S
C902 C901 1.392 . S
C902 C903 1.385 . S
C902 C904 1.478 . S
C903 H897 0.930 . S
C903 C899 1.400 . S
C903 C902 1.385 . S
C904 C902 1.478 . S
C904 C906 1.381 . S
C904 C910 1.383 . S
C905 C901 1.495 . S
C905 H911 0.959 . S
C905 H912 0.961 . S
C905 H913 0.960 . S
C906 C904 1.381 . S
C906 C907 1.394 . S
C906 H914 0.930 . S
C907 C906 1.394 . S
C907 C908 1.383 . S
C907 H915 0.929 . S
C908 C907 1.383 . S
C908 C909 1.377 . S
C909 H893 0.930 . S
C909 C908 1.377 . S
C909 C910 1.379 . S
C910 H894 0.931 . S
C910 C904 1.383 . S
C910 C909 1.379 . S
H911 C905 0.959 . S
H912 C905 0.961 . S
H913 C905 0.960 . S
H914 C906 0.930 . S
H915 C907 0.929 . S
H916 C924 0.929 . S
H917 C926 0.930 . S
H918 C928 0.930 . S
H919 C931 0.929 . S
H920 C934 0.930 . S
H921 C936 0.960 . S
H922 C936 0.960 . S
H923 C936 0.960 . S
C924 H916 0.929 . S
C924 C925 1.377 . S
C924 C926 1.384 . S
C925 C924 1.377 . S
C925 C931 1.390 . S
C926 H917 0.930 . S
C926 C924 1.384 . S
C926 C927 1.372 . S
C927 C926 1.372 . S
C927 C928 1.400 . S
C927 C932 1.490 . S
C928 H918 0.930 . S
C928 C927 1.400 . S
C928 C931 1.386 . S
H929 C945 0.930 . S
H930 C946 0.931 . S
C931 H919 0.929 . S
C931 C925 1.390 . S
C931 C928 1.386 . S
C932 C927 1.490 . S
C932 C934 1.395 . S
C932 C935 1.403 . S
H933 C939 0.930 . S
C934 H920 0.930 . S
C934 C932 1.395 . S
C934 C937 1.403 . S
C935 C932 1.403 . S
C935 C936 1.524 . S
C935 C939 1.400 . S
C936 H921 0.960 . S
C936 H922 0.960 . S
C936 H923 0.960 . S
C936 C935 1.524 . S
C937 C934 1.403 . S
C937 C938 1.392 . S
C937 C941 1.495 . S
C938 C937 1.392 . S
C938 C939 1.385 . S
C938 C940 1.478 . S
C939 H933 0.930 . S
C939 C935 1.400 . S
C939 C938 1.385 . S
C940 C938 1.478 . S
C940 C942 1.381 . S
C940 C946 1.383 . S
C941 C937 1.495 . S
C941 H947 0.959 . S
C941 H948 0.961 . S
C941 H949 0.960 . S
C942 C940 1.381 . S
C942 C943 1.394 . S
C942 H950 0.930 . S
C943 C942 1.394 . S
C943 C944 1.383 . S
C943 H951 0.929 . S
C944 C943 1.383 . S
C944 C945 1.377 . S
C945 H929 0.930 . S
C945 C944 1.377 . S
C945 C946 1.379 . S
C946 H930 0.931 . S
C946 C940 1.383 . S
C946 C945 1.379 . S
H947 C941 0.959 . S
H948 C941 0.961 . S
H949 C941 0.960 . S
H950 C942 0.930 . S
H951 C943 0.929 . S
H952 C960 0.929 . S
H953 C962 0.930 . S
H954 C964 0.930 . S
H955 C967 0.929 . S
H956 C970 0.930 . S
H957 C972 0.960 . S
H958 C972 0.960 . S
H959 C972 0.960 . S
C960 H952 0.929 . S
C960 C961 1.377 . S
C960 C962 1.384 . S
C961 C960 1.377 . S
C961 C967 1.390 . S
C962 H953 0.930 . S
C962 C960 1.384 . S
C962 C963 1.372 . S
C963 C962 1.372 . S
C963 C964 1.400 . S
C963 C968 1.490 . S
C964 H954 0.930 . S
C964 C963 1.400 . S
C964 C967 1.386 . S
H965 C981 0.930 . S
H966 C982 0.931 . S
C967 H955 0.929 . S
C967 C961 1.390 . S
C967 C964 1.386 . S
C968 C963 1.490 . S
C968 C970 1.395 . S
C968 C971 1.403 . S
H969 C975 0.930 . S
C970 H956 0.930 . S
C970 C968 1.395 . S
C970 C973 1.403 . S
C971 C968 1.403 . S
C971 C972 1.524 . S
C971 C975 1.400 . S
C972 H957 0.960 . S
C972 H958 0.960 . S
C972 H959 0.960 . S
C972 C971 1.524 . S
C973 C970 1.403 . S
C973 C974 1.392 . S
C973 C977 1.495 . S
C974 C973 1.392 . S
C974 C975 1.385 . S
C974 C976 1.478 . S
C975 H969 0.930 . S
C975 C971 1.400 . S
C975 C974 1.385 . S
C976 C974 1.478 . S
C976 C978 1.381 . S
C976 C982 1.383 . S
C977 C973 1.495 . S
C977 H983 0.959 . S
C977 H984 0.961 . S
C977 H985 0.960 . S
C978 C976 1.381 . S
C978 C979 1.394 . S
C978 H986 0.930 . S
C979 C978 1.394 . S
C979 C980 1.383 . S
C979 H987 0.929 . S
C980 C979 1.383 . S
C980 C981 1.377 . S
C981 H965 0.930 . S
C981 C980 1.377 . S
C981 C982 1.379 . S
C982 H966 0.931 . S
C982 C976 1.383 . S
C982 C981 1.379 . S
H983 C977 0.959 . S
H984 C977 0.961 . S
H985 C977 0.960 . S
H986 C978 0.930 . S
H987 C979 0.929 . S
H988 C996 0.929 . S
H989 C998 0.930 . S
H990 C1000 0.930 . S
H991 C1003 0.929 . S
H992 C1006 0.930 . S
H993 C1008 0.960 . S
H994 C1008 0.960 . S
H995 C1008 0.960 . S
C996 H988 0.929 . S
C996 C997 1.377 . S
C996 C998 1.384 . S
C997 C996 1.377 . S
C997 C1003 1.390 . S
C998 H989 0.930 . S
C998 C996 1.384 . S
C998 C999 1.372 . S
C999 C998 1.372 . S
C999 C1000 1.400 . S
C999 C1004 1.490 . S
C1000 H990 0.930 . S
C1000 C999 1.400 . S
C1000 C1003 1.386 . S
H1001 C1017 0.930 . S
H1002 C1018 0.931 . S
C1003 H991 0.929 . S
C1003 C997 1.390 . S
C1003 C1000 1.386 . S
C1004 C999 1.490 . S
C1004 C1006 1.395 . S
C1004 C1007 1.403 . S
H1005 C1011 0.930 . S
C1006 H992 0.930 . S
C1006 C1004 1.395 . S
C1006 C1009 1.403 . S
C1007 C1004 1.403 . S
C1007 C1008 1.524 . S
C1007 C1011 1.400 . S
C1008 H993 0.960 . S
C1008 H994 0.960 . S
C1008 H995 0.960 . S
C1008 C1007 1.524 . S
C1009 C1006 1.403 . S
C1009 C1010 1.392 . S
C1009 C1013 1.495 . S
C1010 C1009 1.392 . S
C1010 C1011 1.385 . S
C1010 C1012 1.478 . S
C1011 H1005 0.930 . S
C1011 C1007 1.400 . S
C1011 C1010 1.385 . S
C1012 C1010 1.478 . S
C1012 C1014 1.381 . S
C1012 C1018 1.383 . S
C1013 C1009 1.495 . S
C1013 H1019 0.959 . S
C1013 H1020 0.961 . S
C1013 H1021 0.960 . S
C1014 C1012 1.381 . S
C1014 C1015 1.394 . S
C1014 H1022 0.930 . S
C1015 C1014 1.394 . S
C1015 C1016 1.383 . S
C1015 H1023 0.929 . S
C1016 C1015 1.383 . S
C1016 C1017 1.377 . S
C1017 H1001 0.930 . S
C1017 C1016 1.377 . S
C1017 C1018 1.379 . S
C1018 H1002 0.931 . S
C1018 C1012 1.383 . S
C1018 C1017 1.379 . S
H1019 C1013 0.959 . S
H1020 C1013 0.961 . S
H1021 C1013 0.960 . S
H1022 C1014 0.930 . S
H1023 C1015 0.929 . S
H1024 C1032 0.929 . S
H1025 C1034 0.930 . S
H1026 C1036 0.930 . S
H1027 C1039 0.929 . S
H1028 C1042 0.930 . S
H1029 C1044 0.960 . S
H1030 C1044 0.960 . S
H1031 C1044 0.960 . S
C1032 H1024 0.929 . S
C1032 C1033 1.377 . S
C1032 C1034 1.384 . S
C1033 C1032 1.377 . S
C1033 C1039 1.390 . S
C1034 H1025 0.930 . S
C1034 C1032 1.384 . S
C1034 C1035 1.372 . S
C1035 C1034 1.372 . S
C1035 C1036 1.400 . S
C1035 C1040 1.490 . S
C1036 H1026 0.930 . S
C1036 C1035 1.400 . S
C1036 C1039 1.386 . S
H1037 C1053 0.930 . S
H1038 C1054 0.931 . S
C1039 H1027 0.929 . S
C1039 C1033 1.390 . S
C1039 C1036 1.386 . S
C1040 C1035 1.490 . S
C1040 C1042 1.395 . S
C1040 C1043 1.403 . S
H1041 C1047 0.930 . S
C1042 H1028 0.930 . S
C1042 C1040 1.395 . S
C1042 C1045 1.403 . S
C1043 C1040 1.403 . S
C1043 C1044 1.524 . S
C1043 C1047 1.400 . S
C1044 H1029 0.960 . S
C1044 H1030 0.960 . S
C1044 H1031 0.960 . S
C1044 C1043 1.524 . S
C1045 C1042 1.403 . S
C1045 C1046 1.392 . S
C1045 C1049 1.495 . S
C1046 C1045 1.392 . S
C1046 C1047 1.385 . S
C1046 C1048 1.478 . S
C1047 H1041 0.930 . S
C1047 C1043 1.400 . S
C1047 C1046 1.385 . S
C1048 C1046 1.478 . S
C1048 C1050 1.381 . S
C1048 C1054 1.383 . S
C1049 C1045 1.495 . S
C1049 H1055 0.959 . S
C1049 H1056 0.961 . S
C1049 H1057 0.960 . S
C1050 C1048 1.381 . S
C1050 C1051 1.394 . S
C1050 H1058 0.930 . S
C1051 C1050 1.394 . S
C1051 C1052 1.383 . S
C1051 H1059 0.929 . S
C1052 C1051 1.383 . S
C1052 C1053 1.377 . S
C1053 H1037 0.930 . S
C1053 C1052 1.377 . S
C1053 C1054 1.379 . S
C1054 H1038 0.931 . S
C1054 C1048 1.383 . S
C1054 C1053 1.379 . S
H1055 C1049 0.959 . S
H1056 C1049 0.961 . S
H1057 C1049 0.960 . S
H1058 C1050 0.930 . S
H1059 C1051 0.929 . S
H1060 C1068 0.929 . S
H1061 C1070 0.930 . S
H1062 C1072 0.930 . S
H1063 C1075 0.929 . S
H1064 C1078 0.930 . S
H1065 C1080 0.960 . S
H1066 C1080 0.960 . S
H1067 C1080 0.960 . S
C1068 H1060 0.929 . S
C1068 C1069 1.377 . S
C1068 C1070 1.384 . S
C1069 C1068 1.377 . S
C1069 C1075 1.390 . S
C1070 H1061 0.930 . S
C1070 C1068 1.384 . S
C1070 C1071 1.372 . S
C1071 C1070 1.372 . S
C1071 C1072 1.400 . S
C1071 C1076 1.490 . S
C1072 H1062 0.930 . S
C1072 C1071 1.400 . S
C1072 C1075 1.386 . S
H1073 C1089 0.930 . S
H1074 C1090 0.931 . S
C1075 H1063 0.929 . S
C1075 C1069 1.390 . S
C1075 C1072 1.386 . S
C1076 C1071 1.490 . S
C1076 C1078 1.395 . S
C1076 C1079 1.403 . S
H1077 C1083 0.930 . S
C1078 H1064 0.930 . S
C1078 C1076 1.395 . S
C1078 C1081 1.403 . S
C1079 C1076 1.403 . S
C1079 C1080 1.524 . S
C1079 C1083 1.400 . S
C1080 H1065 0.960 . S
C1080 H1066 0.960 . S
C1080 H1067 0.960 . S
C1080 C1079 1.524 . S
C1081 C1078 1.403 . S
C1081 C1082 1.392 . S
C1081 C1085 1.495 . S
C1082 C1081 1.392 . S
C1082 C1083 1.385 . S
C1082 C1084 1.478 . S
C1083 H1077 0.930 . S
C1083 C1079 1.400 . S
C1083 C1082 1.385 . S
C1084 C1082 1.478 . S
C1084 C1086 1.381 . S
C1084 C1090 1.383 . S
C1085 C1081 1.495 . S
C1085 H1091 0.959 . S
C1085 H1092 0.961 . S
C1085 H1093 0.960 . S
C1086 C1084 1.381 . S
C1086 C1087 1.394 . S
C1086 H1094 0.930 . S
C1087 C1086 1.394 . S
C1087 C1088 1.383 1_655 S
C1087 H1095 0.929 . S
C1088 C1087 1.383 1_455 S
C1088 C1089 1.377 . S
C1089 H1073 0.930 . S
C1089 C1088 1.377 . S
C1089 C1090 1.379 1_455 S
C1090 H1074 0.931 . S
C1090 C1084 1.383 . S
C1090 C1089 1.379 1_655 S
H1091 C1085 0.959 . S
H1092 C1085 0.961 . S
H1093 C1085 0.960 . S
H1094 C1086 0.930 . S
H1095 C1087 0.929 . S
H1096 C1104 0.929 . S
H1097 C1106 0.930 . S
H1098 C1108 0.930 . S
H1099 C1111 0.929 . S
H1100 C1114 0.930 . S
H1101 C1116 0.960 . S
H1102 C1116 0.960 . S
H1103 C1116 0.960 . S
C1104 H1096 0.929 . S
C1104 C1105 1.377 . S
C1104 C1106 1.384 . S
C1105 C1104 1.377 . S
C1105 C1111 1.390 . S
C1106 H1097 0.930 . S
C1106 C1104 1.384 . S
C1106 C1107 1.372 . S
C1107 C1106 1.372 . S
C1107 C1108 1.400 . S
C1107 C1112 1.490 . S
C1108 H1098 0.930 . S
C1108 C1107 1.400 . S
C1108 C1111 1.386 . S
H1109 C1125 0.930 . S
H1110 C1126 0.931 . S
C1111 H1099 0.929 . S
C1111 C1105 1.390 . S
C1111 C1108 1.386 . S
C1112 C1107 1.490 . S
C1112 C1114 1.395 . S
C1112 C1115 1.403 . S
H1113 C1119 0.930 . S
C1114 H1100 0.930 . S
C1114 C1112 1.395 . S
C1114 C1117 1.403 . S
C1115 C1112 1.403 . S
C1115 C1116 1.524 . S
C1115 C1119 1.400 . S
C1116 H1101 0.960 . S
C1116 H1102 0.960 . S
C1116 H1103 0.960 . S
C1116 C1115 1.524 . S
C1117 C1114 1.403 . S
C1117 C1118 1.392 . S
C1117 C1121 1.495 . S
C1118 C1117 1.392 . S
C1118 C1119 1.385 . S
C1118 C1120 1.478 . S
C1119 H1113 0.930 . S
C1119 C1115 1.400 . S
C1119 C1118 1.385 . S
C1120 C1118 1.478 . S
C1120 C1122 1.381 . S
C1120 C1126 1.383 . S
C1121 C1117 1.495 . S
C1121 H1127 0.959 . S
C1121 H1128 0.961 . S
C1121 H1129 0.960 . S
C1122 C1120 1.381 . S
C1122 C1123 1.394 . S
C1122 H1130 0.930 . S
C1123 C1122 1.394 . S
C1123 C1124 1.383 . S
C1123 H1131 0.929 . S
C1124 C1123 1.383 . S
C1124 C1125 1.377 . S
C1125 H1109 0.930 . S
C1125 C1124 1.377 . S
C1125 C1126 1.379 . S
C1126 H1110 0.931 . S
C1126 C1120 1.383 . S
C1126 C1125 1.379 . S
H1127 C1121 0.959 . S
H1128 C1121 0.961 . S
H1129 C1121 0.960 . S
H1130 C1122 0.930 . S
H1131 C1123 0.929 . S
H1132 C1140 0.929 . S
H1133 C1142 0.930 . S
H1134 C1144 0.930 . S
H1135 C1147 0.929 . S
H1136 C1150 0.930 . S
H1137 C1152 0.960 . S
H1138 C1152 0.960 . S
H1139 C1152 0.960 . S
C1140 H1132 0.929 . S
C1140 C1141 1.377 . S
C1140 C1142 1.384 . S
C1141 C1140 1.377 . S
C1141 C1147 1.390 . S
C1142 H1133 0.930 . S
C1142 C1140 1.384 . S
C1142 C1143 1.372 . S
C1143 C1142 1.372 . S
C1143 C1144 1.400 . S
C1143 C1148 1.490 . S
C1144 H1134 0.930 . S
C1144 C1143 1.400 . S
C1144 C1147 1.386 . S
H1145 C1161 0.930 . S
H1146 C1162 0.931 . S
C1147 H1135 0.929 . S
C1147 C1141 1.390 . S
C1147 C1144 1.386 . S
C1148 C1143 1.490 . S
C1148 C1150 1.395 . S
C1148 C1151 1.403 . S
H1149 C1155 0.930 . S
C1150 H1136 0.930 . S
C1150 C1148 1.395 . S
C1150 C1153 1.403 . S
C1151 C1148 1.403 . S
C1151 C1152 1.524 . S
C1151 C1155 1.400 . S
C1152 H1137 0.960 . S
C1152 H1138 0.960 . S
C1152 H1139 0.960 . S
C1152 C1151 1.524 . S
C1153 C1150 1.403 . S
C1153 C1154 1.392 . S
C1153 C1157 1.495 . S
C1154 C1153 1.392 . S
C1154 C1155 1.385 . S
C1154 C1156 1.478 . S
C1155 H1149 0.930 . S
C1155 C1151 1.400 . S
C1155 C1154 1.385 . S
C1156 C1154 1.478 . S
C1156 C1158 1.381 . S
C1156 C1162 1.383 . S
C1157 C1153 1.495 . S
C1157 H1163 0.959 . S
C1157 H1164 0.961 . S
C1157 H1165 0.960 . S
C1158 C1156 1.381 . S
C1158 C1159 1.394 . S
C1158 H1166 0.930 . S
C1159 C1158 1.394 . S
C1159 C1160 1.383 . S
C1159 H1167 0.929 . S
C1160 C1159 1.383 . S
C1160 C1161 1.377 . S
C1161 H1145 0.930 . S
C1161 C1160 1.377 . S
C1161 C1162 1.379 . S
C1162 H1146 0.931 . S
C1162 C1156 1.383 . S
C1162 C1161 1.379 . S
H1163 C1157 0.959 . S
H1164 C1157 0.961 . S
H1165 C1157 0.960 . S
H1166 C1158 0.930 . S
H1167 C1159 0.929 . S
H1168 C1176 0.929 . S
H1169 C1178 0.930 . S
H1170 C1180 0.930 . S
H1171 C1183 0.929 . S
H1172 C1186 0.930 . S
H1173 C1188 0.960 . S
H1174 C1188 0.960 . S
H1175 C1188 0.960 . S
C1176 H1168 0.929 . S
C1176 C1177 1.377 . S
C1176 C1178 1.384 . S
C1177 C1176 1.377 . S
C1177 C1183 1.390 . S
C1178 H1169 0.930 . S
C1178 C1176 1.384 . S
C1178 C1179 1.372 . S
C1179 C1178 1.372 . S
C1179 C1180 1.400 . S
C1179 C1184 1.490 . S
C1180 H1170 0.930 . S
C1180 C1179 1.400 . S
C1180 C1183 1.386 . S
H1181 C1197 0.930 . S
H1182 C1198 0.931 . S
C1183 H1171 0.929 . S
C1183 C1177 1.390 . S
C1183 C1180 1.386 . S
C1184 C1179 1.490 . S
C1184 C1186 1.395 . S
C1184 C1187 1.403 . S
H1185 C1191 0.930 . S
C1186 H1172 0.930 . S
C1186 C1184 1.395 . S
C1186 C1189 1.403 . S
C1187 C1184 1.403 . S
C1187 C1188 1.524 . S
C1187 C1191 1.400 . S
C1188 H1173 0.960 . S
C1188 H1174 0.960 . S
C1188 H1175 0.960 . S
C1188 C1187 1.524 . S
C1189 C1186 1.403 . S
C1189 C1190 1.392 . S
C1189 C1193 1.495 . S
C1190 C1189 1.392 . S
C1190 C1191 1.385 . S
C1190 C1192 1.478 . S
C1191 H1185 0.930 . S
C1191 C1187 1.400 . S
C1191 C1190 1.385 . S
C1192 C1190 1.478 . S
C1192 C1194 1.381 . S
C1192 C1198 1.383 . S
C1193 C1189 1.495 . S
C1193 H1199 0.959 . S
C1193 H1200 0.961 . S
C1193 H1201 0.960 . S
C1194 C1192 1.381 . S
C1194 C1195 1.394 . S
C1194 H1202 0.930 . S
C1195 C1194 1.394 . S
C1195 C1196 1.383 . S
C1195 H1203 0.929 . S
C1196 C1195 1.383 . S
C1196 C1197 1.377 . S
C1197 H1181 0.930 . S
C1197 C1196 1.377 . S
C1197 C1198 1.379 . S
C1198 H1182 0.931 . S
C1198 C1192 1.383 . S
C1198 C1197 1.379 . S
H1199 C1193 0.959 . S
H1200 C1193 0.961 . S
H1201 C1193 0.960 . S
H1202 C1194 0.930 . S
H1203 C1195 0.929 . S
H1204 C1212 0.929 . S
H1205 C1214 0.930 . S
H1206 C1216 0.930 . S
H1207 C1219 0.929 . S
H1208 C1222 0.930 . S
H1209 C1224 0.960 . S
H1210 C1224 0.960 . S
H1211 C1224 0.960 . S
C1212 H1204 0.929 . S
C1212 C1213 1.377 . S
C1212 C1214 1.384 . S
C1213 C1212 1.377 . S
C1213 C1219 1.390 . S
C1214 H1205 0.930 . S
C1214 C1212 1.384 . S
C1214 C1215 1.372 . S
C1215 C1214 1.372 . S
C1215 C1216 1.400 . S
C1215 C1220 1.490 . S
C1216 H1206 0.930 . S
C1216 C1215 1.400 . S
C1216 C1219 1.386 . S
H1217 C1233 0.930 . S
H1218 C1234 0.931 . S
C1219 H1207 0.929 . S
C1219 C1213 1.390 . S
C1219 C1216 1.386 . S
C1220 C1215 1.490 . S
C1220 C1222 1.395 . S
C1220 C1223 1.403 . S
H1221 C1227 0.930 . S
C1222 H1208 0.930 . S
C1222 C1220 1.395 . S
C1222 C1225 1.403 . S
C1223 C1220 1.403 . S
C1223 C1224 1.524 . S
C1223 C1227 1.400 . S
C1224 H1209 0.960 . S
C1224 H1210 0.960 . S
C1224 H1211 0.960 . S
C1224 C1223 1.524 . S
C1225 C1222 1.403 . S
C1225 C1226 1.392 . S
C1225 C1229 1.495 . S
C1226 C1225 1.392 . S
C1226 C1227 1.385 . S
C1226 C1228 1.478 . S
C1227 H1221 0.930 . S
C1227 C1223 1.400 . S
C1227 C1226 1.385 . S
C1228 C1226 1.478 . S
C1228 C1230 1.381 . S
C1228 C1234 1.383 . S
C1229 C1225 1.495 . S
C1229 H1235 0.959 . S
C1229 H1236 0.961 . S
C1229 H1237 0.960 . S
C1230 C1228 1.381 . S
C1230 C1231 1.394 . S
C1230 H1238 0.930 . S
C1231 C1230 1.394 . S
C1231 C1232 1.383 . S
C1231 H1239 0.929 . S
C1232 C1231 1.383 . S
C1232 C1233 1.377 . S
C1233 H1217 0.930 . S
C1233 C1232 1.377 . S
C1233 C1234 1.379 . S
C1234 H1218 0.931 . S
C1234 C1228 1.383 . S
C1234 C1233 1.379 . S
H1235 C1229 0.959 . S
H1236 C1229 0.961 . S
H1237 C1229 0.960 . S
H1238 C1230 0.930 . S
H1239 C1231 0.929 . S
H1240 C1248 0.929 . S
H1241 C1250 0.930 . S
H1242 C1252 0.930 . S
H1243 C1255 0.929 . S
H1244 C1258 0.930 . S
H1245 C1260 0.960 . S
H1246 C1260 0.960 . S
H1247 C1260 0.960 . S
C1248 H1240 0.929 . S
C1248 C1249 1.377 . S
C1248 C1250 1.384 . S
C1249 C1248 1.377 . S
C1249 C1255 1.390 . S
C1250 H1241 0.930 . S
C1250 C1248 1.384 . S
C1250 C1251 1.372 . S
C1251 C1250 1.372 . S
C1251 C1252 1.400 . S
C1251 C1256 1.490 . S
C1252 H1242 0.930 . S
C1252 C1251 1.400 . S
C1252 C1255 1.386 . S
H1253 C1269 0.930 . S
H1254 C1270 0.931 . S
C1255 H1243 0.929 . S
C1255 C1249 1.390 . S
C1255 C1252 1.386 . S
C1256 C1251 1.490 . S
C1256 C1258 1.395 . S
C1256 C1259 1.403 . S
H1257 C1263 0.930 . S
C1258 H1244 0.930 . S
C1258 C1256 1.395 . S
C1258 C1261 1.403 . S
C1259 C1256 1.403 . S
C1259 C1260 1.524 . S
C1259 C1263 1.400 . S
C1260 H1245 0.960 . S
C1260 H1246 0.960 . S
C1260 H1247 0.960 . S
C1260 C1259 1.524 . S
C1261 C1258 1.403 . S
C1261 C1262 1.392 . S
C1261 C1265 1.495 . S
C1262 C1261 1.392 . S
C1262 C1263 1.385 . S
C1262 C1264 1.478 . S
C1263 H1257 0.930 . S
C1263 C1259 1.400 . S
C1263 C1262 1.385 . S
C1264 C1262 1.478 . S
C1264 C1266 1.381 . S
C1264 C1270 1.383 . S
C1265 C1261 1.495 . S
C1265 H1271 0.959 . S
C1265 H1272 0.961 . S
C1265 H1273 0.960 . S
C1266 C1264 1.381 . S
C1266 C1267 1.394 . S
C1266 H1274 0.930 . S
C1267 C1266 1.394 . S
C1267 C1268 1.383 . S
C1267 H1275 0.929 . S
C1268 C1267 1.383 . S
C1268 C1269 1.377 . S
C1269 H1253 0.930 . S
C1269 C1268 1.377 . S
C1269 C1270 1.379 . S
C1270 H1254 0.931 . S
C1270 C1264 1.383 . S
C1270 C1269 1.379 . S
H1271 C1265 0.959 . S
H1272 C1265 0.961 . S
H1273 C1265 0.960 . S
H1274 C1266 0.930 . S
H1275 C1267 0.929 . S
H1276 C1284 0.929 1_455 S
H1277 C1286 0.930 . S
H1278 C1288 0.930 . S
H1279 C1291 0.929 1_455 S
H1280 C1294 0.930 . S
H1281 C1296 0.960 . S
H1282 C1296 0.960 . S
H1283 C1296 0.960 . S
C1284 H1276 0.929 1_655 S
C1284 C1285 1.377 1_655 S
C1284 C1286 1.384 . S
C1285 C1284 1.377 1_455 S
C1285 C1291 1.390 1_455 S
C1286 H1277 0.930 . S
C1286 C1284 1.384 . S
C1286 C1287 1.372 . S
C1287 C1286 1.372 . S
C1287 C1288 1.400 . S
C1287 C1292 1.490 . S
C1288 H1278 0.930 . S
C1288 C1287 1.400 . S
C1288 C1291 1.386 . S
H1289 C1305 0.930 . S
H1290 C1306 0.931 . S
C1291 H1279 0.929 1_655 S
C1291 C1285 1.390 1_655 S
C1291 C1288 1.386 . S
C1292 C1287 1.490 . S
C1292 C1294 1.395 . S
C1292 C1295 1.403 . S
H1293 C1299 0.930 . S
C1294 H1280 0.930 . S
C1294 C1292 1.395 . S
C1294 C1297 1.403 . S
C1295 C1292 1.403 . S
C1295 C1296 1.524 . S
C1295 C1299 1.400 . S
C1296 H1281 0.960 . S
C1296 H1282 0.960 . S
C1296 H1283 0.960 . S
C1296 C1295 1.524 . S
C1297 C1294 1.403 . S
C1297 C1298 1.392 . S
C1297 C1301 1.495 . S
C1298 C1297 1.392 . S
C1298 C1299 1.385 . S
C1298 C1300 1.478 . S
C1299 H1293 0.930 . S
C1299 C1295 1.400 . S
C1299 C1298 1.385 . S
C1300 C1298 1.478 . S
C1300 C1302 1.381 . S
C1300 C1306 1.383 . S
C1301 C1297 1.495 . S
C1301 H1307 0.959 . S
C1301 H1308 0.961 . S
C1301 H1309 0.960 . S
C1302 C1300 1.381 . S
C1302 C1303 1.394 . S
C1302 H1310 0.930 . S
C1303 C1302 1.394 . S
C1303 C1304 1.383 . S
C1303 H1311 0.929 . S
C1304 C1303 1.383 . S
C1304 C1305 1.377 . S
C1305 H1289 0.930 . S
C1305 C1304 1.377 . S
C1305 C1306 1.379 . S
C1306 H1290 0.931 . S
C1306 C1300 1.383 . S
C1306 C1305 1.379 . S
H1307 C1301 0.959 . S
H1308 C1301 0.961 . S
H1309 C1301 0.960 . S
H1310 C1302 0.930 . S
H1311 C1303 0.929 . S
H1312 C1320 0.929 . S
H1313 C1322 0.930 . S
H1314 C1324 0.930 . S
H1315 C1327 0.929 . S
H1316 C1330 0.930 . S
H1317 C1332 0.960 . S
H1318 C1332 0.960 . S
H1319 C1332 0.960 . S
C1320 H1312 0.929 . S
C1320 C1321 1.377 . S
C1320 C1322 1.384 . S
C1321 C1320 1.377 . S
C1321 C1327 1.390 . S
C1322 H1313 0.930 . S
C1322 C1320 1.384 . S
C1322 C1323 1.372 . S
C1323 C1322 1.372 . S
C1323 C1324 1.400 . S
C1323 C1328 1.490 . S
C1324 H1314 0.930 . S
C1324 C1323 1.400 . S
C1324 C1327 1.386 . S
H1325 C1341 0.930 . S
H1326 C1342 0.931 . S
C1327 H1315 0.929 . S
C1327 C1321 1.390 . S
C1327 C1324 1.386 . S
C1328 C1323 1.490 . S
C1328 C1330 1.395 . S
C1328 C1331 1.403 . S
H1329 C1335 0.930 . S
C1330 H1316 0.930 . S
C1330 C1328 1.395 . S
C1330 C1333 1.403 . S
C1331 C1328 1.403 . S
C1331 C1332 1.524 . S
C1331 C1335 1.400 . S
C1332 H1317 0.960 . S
C1332 H1318 0.960 . S
C1332 H1319 0.960 . S
C1332 C1331 1.524 . S
C1333 C1330 1.403 . S
C1333 C1334 1.392 . S
C1333 C1337 1.495 . S
C1334 C1333 1.392 . S
C1334 C1335 1.385 . S
C1334 C1336 1.478 . S
C1335 H1329 0.930 . S
C1335 C1331 1.400 . S
C1335 C1334 1.385 . S
C1336 C1334 1.478 . S
C1336 C1338 1.381 . S
C1336 C1342 1.383 . S
C1337 C1333 1.495 . S
C1337 H1343 0.959 . S
C1337 H1344 0.961 . S
C1337 H1345 0.960 . S
C1338 C1336 1.381 . S
C1338 C1339 1.394 . S
C1338 H1346 0.930 . S
C1339 C1338 1.394 . S
C1339 C1340 1.383 . S
C1339 H1347 0.929 . S
C1340 C1339 1.383 . S
C1340 C1341 1.377 . S
C1341 H1325 0.930 . S
C1341 C1340 1.377 . S
C1341 C1342 1.379 . S
C1342 H1326 0.931 . S
C1342 C1336 1.383 . S
C1342 C1341 1.379 . S
H1343 C1337 0.959 . S
H1344 C1337 0.961 . S
H1345 C1337 0.960 . S
H1346 C1338 0.930 . S
H1347 C1339 0.929 . S
H1348 C1356 0.929 . S
H1349 C1358 0.930 . S
H1350 C1360 0.930 . S
H1351 C1363 0.929 . S
H1352 C1366 0.930 . S
H1353 C1368 0.960 . S
H1354 C1368 0.960 . S
H1355 C1368 0.960 . S
C1356 H1348 0.929 . S
C1356 C1357 1.377 . S
C1356 C1358 1.384 1_655 S
C1357 C1356 1.377 . S
C1357 C1363 1.390 1_655 S
C1358 H1349 0.930 . S
C1358 C1356 1.384 1_455 S
C1358 C1359 1.372 . S
C1359 C1358 1.372 . S
C1359 C1360 1.400 . S
C1359 C1364 1.490 . S
C1360 H1350 0.930 . S
C1360 C1359 1.400 . S
C1360 C1363 1.386 . S
H1361 C1377 0.930 . S
H1362 C1378 0.931 . S
C1363 H1351 0.929 . S
C1363 C1357 1.390 1_455 S
C1363 C1360 1.386 . S
C1364 C1359 1.490 . S
C1364 C1366 1.395 . S
C1364 C1367 1.403 . S
H1365 C1371 0.930 . S
C1366 H1352 0.930 . S
C1366 C1364 1.395 . S
C1366 C1369 1.403 . S
C1367 C1364 1.403 . S
C1367 C1368 1.524 . S
C1367 C1371 1.400 . S
C1368 H1353 0.960 . S
C1368 H1354 0.960 . S
C1368 H1355 0.960 . S
C1368 C1367 1.524 . S
C1369 C1366 1.403 . S
C1369 C1370 1.392 . S
C1369 C1373 1.495 . S
C1370 C1369 1.392 . S
C1370 C1371 1.385 . S
C1370 C1372 1.478 . S
C1371 H1365 0.930 . S
C1371 C1367 1.400 . S
C1371 C1370 1.385 . S
C1372 C1370 1.478 . S
C1372 C1374 1.381 . S
C1372 C1378 1.383 . S
C1373 C1369 1.495 . S
C1373 H1379 0.959 . S
C1373 H1380 0.961 . S
C1373 H1381 0.960 . S
C1374 C1372 1.381 . S
C1374 C1375 1.394 . S
C1374 H1382 0.930 . S
C1375 C1374 1.394 . S
C1375 C1376 1.383 . S
C1375 H1383 0.929 . S
C1376 C1375 1.383 . S
C1376 C1377 1.377 . S
C1377 H1361 0.930 . S
C1377 C1376 1.377 . S
C1377 C1378 1.379 . S
C1378 H1362 0.931 . S
C1378 C1372 1.383 . S
C1378 C1377 1.379 . S
H1379 C1373 0.959 . S
H1380 C1373 0.961 . S
H1381 C1373 0.960 . S
H1382 C1374 0.930 . S
H1383 C1375 0.929 . S
H1384 C1392 0.929 . S
H1385 C1394 0.930 . S
H1386 C1396 0.930 . S
H1387 C1399 0.929 . S
H1388 C1402 0.930 . S
H1389 C1404 0.960 . S
H1390 C1404 0.960 . S
H1391 C1404 0.960 . S
C1392 H1384 0.929 . S
C1392 C1393 1.377 . S
C1392 C1394 1.384 . S
C1393 C1392 1.377 . S
C1393 C1399 1.390 . S
C1394 H1385 0.930 . S
C1394 C1392 1.384 . S
C1394 C1395 1.372 . S
C1395 C1394 1.372 . S
C1395 C1396 1.400 . S
C1395 C1400 1.490 . S
C1396 H1386 0.930 . S
C1396 C1395 1.400 . S
C1396 C1399 1.386 . S
H1397 C1413 0.930 . S
H1398 C1414 0.931 . S
C1399 H1387 0.929 . S
C1399 C1393 1.390 . S
C1399 C1396 1.386 . S
C1400 C1395 1.490 . S
C1400 C1402 1.395 . S
C1400 C1403 1.403 . S
H1401 C1407 0.930 . S
C1402 H1388 0.930 . S
C1402 C1400 1.395 . S
C1402 C1405 1.403 . S
C1403 C1400 1.403 . S
C1403 C1404 1.524 . S
C1403 C1407 1.400 . S
C1404 H1389 0.960 . S
C1404 H1390 0.960 . S
C1404 H1391 0.960 . S
C1404 C1403 1.524 . S
C1405 C1402 1.403 . S
C1405 C1406 1.392 . S
C1405 C1409 1.495 . S
C1406 C1405 1.392 . S
C1406 C1407 1.385 . S
C1406 C1408 1.478 . S
C1407 H1401 0.930 . S
C1407 C1403 1.400 . S
C1407 C1406 1.385 . S
C1408 C1406 1.478 . S
C1408 C1410 1.381 . S
C1408 C1414 1.383 . S
C1409 C1405 1.495 . S
C1409 H1415 0.959 . S
C1409 H1416 0.961 . S
C1409 H1417 0.960 . S
C1410 C1408 1.381 . S
C1410 C1411 1.394 . S
C1410 H1418 0.930 . S
C1411 C1410 1.394 . S
C1411 C1412 1.383 . S
C1411 H1419 0.929 . S
C1412 C1411 1.383 . S
C1412 C1413 1.377 . S
C1413 H1397 0.930 . S
C1413 C1412 1.377 . S
C1413 C1414 1.379 . S
C1414 H1398 0.931 . S
C1414 C1408 1.383 . S
C1414 C1413 1.379 . S
H1415 C1409 0.959 . S
H1416 C1409 0.961 . S
H1417 C1409 0.960 . S
H1418 C1410 0.930 . S
H1419 C1411 0.929 . S
H1420 C1428 0.929 . S
H1421 C1430 0.930 . S
H1422 C1432 0.930 . S
H1423 C1435 0.929 . S
H1424 C1438 0.930 . S
H1425 C1440 0.960 . S
H1426 C1440 0.960 . S
H1427 C1440 0.960 . S
C1428 H1420 0.929 . S
C1428 C1429 1.377 . S
C1428 C1430 1.384 . S
C1429 C1428 1.377 . S
C1429 C1435 1.390 . S
C1430 H1421 0.930 . S
C1430 C1428 1.384 . S
C1430 C1431 1.372 . S
C1431 C1430 1.372 . S
C1431 C1432 1.400 . S
C1431 C1436 1.490 . S
C1432 H1422 0.930 . S
C1432 C1431 1.400 . S
C1432 C1435 1.386 . S
H1433 C1449 0.930 . S
H1434 C1450 0.931 . S
C1435 H1423 0.929 . S
C1435 C1429 1.390 . S
C1435 C1432 1.386 . S
C1436 C1431 1.490 . S
C1436 C1438 1.395 . S
C1436 C1439 1.403 . S
H1437 C1443 0.930 . S
C1438 H1424 0.930 . S
C1438 C1436 1.395 . S
C1438 C1441 1.403 . S
C1439 C1436 1.403 . S
C1439 C1440 1.524 . S
C1439 C1443 1.400 . S
C1440 H1425 0.960 . S
C1440 H1426 0.960 . S
C1440 H1427 0.960 . S
C1440 C1439 1.524 . S
C1441 C1438 1.403 . S
C1441 C1442 1.392 . S
C1441 C1445 1.495 . S
C1442 C1441 1.392 . S
C1442 C1443 1.385 . S
C1442 C1444 1.478 . S
C1443 H1437 0.930 . S
C1443 C1439 1.400 . S
C1443 C1442 1.385 . S
C1444 C1442 1.478 . S
C1444 C1446 1.381 . S
C1444 C1450 1.383 . S
C1445 C1441 1.495 . S
C1445 H1451 0.959 . S
C1445 H1452 0.961 . S
C1445 H1453 0.960 . S
C1446 C1444 1.381 . S
C1446 C1447 1.394 . S
C1446 H1454 0.930 . S
C1447 C1446 1.394 . S
C1447 C1448 1.383 . S
C1447 H1455 0.929 . S
C1448 C1447 1.383 . S
C1448 C1449 1.377 . S
C1449 H1433 0.930 . S
C1449 C1448 1.377 . S
C1449 C1450 1.379 . S
C1450 H1434 0.931 . S
C1450 C1444 1.383 . S
C1450 C1449 1.379 . S
H1451 C1445 0.959 . S
H1452 C1445 0.961 . S
H1453 C1445 0.960 . S
H1454 C1446 0.930 . S
H1455 C1447 0.929 . S
H1456 C1464 0.929 . S
H1457 C1466 0.930 . S
H1458 C1468 0.930 . S
H1459 C1471 0.929 . S
H1460 C1474 0.930 . S
H1461 C1476 0.960 . S
H1462 C1476 0.960 . S
H1463 C1476 0.960 . S
C1464 H1456 0.929 . S
C1464 C1465 1.377 . S
C1464 C1466 1.384 . S
C1465 C1464 1.377 . S
C1465 C1471 1.390 . S
C1466 H1457 0.930 . S
C1466 C1464 1.384 . S
C1466 C1467 1.372 . S
C1467 C1466 1.372 . S
C1467 C1468 1.400 . S
C1467 C1472 1.490 . S
C1468 H1458 0.930 . S
C1468 C1467 1.400 . S
C1468 C1471 1.386 . S
H1469 C1485 0.930 . S
H1470 C1486 0.931 . S
C1471 H1459 0.929 . S
C1471 C1465 1.390 . S
C1471 C1468 1.386 . S
C1472 C1467 1.490 . S
C1472 C1474 1.395 . S
C1472 C1475 1.403 . S
H1473 C1479 0.930 . S
C1474 H1460 0.930 . S
C1474 C1472 1.395 . S
C1474 C1477 1.403 . S
C1475 C1472 1.403 . S
C1475 C1476 1.524 . S
C1475 C1479 1.400 . S
C1476 H1461 0.960 . S
C1476 H1462 0.960 . S
C1476 H1463 0.960 . S
C1476 C1475 1.524 . S
C1477 C1474 1.403 . S
C1477 C1478 1.392 . S
C1477 C1481 1.495 . S
C1478 C1477 1.392 . S
C1478 C1479 1.385 . S
C1478 C1480 1.478 . S
C1479 H1473 0.930 . S
C1479 C1475 1.400 . S
C1479 C1478 1.385 . S
C1480 C1478 1.478 . S
C1480 C1482 1.381 . S
C1480 C1486 1.383 . S
C1481 C1477 1.495 . S
C1481 H1487 0.959 . S
C1481 H1488 0.961 . S
C1481 H1489 0.960 . S
C1482 C1480 1.381 . S
C1482 C1483 1.394 . S
C1482 H1490 0.930 . S
C1483 C1482 1.394 . S
C1483 C1484 1.383 . S
C1483 H1491 0.929 . S
C1484 C1483 1.383 . S
C1484 C1485 1.377 . S
C1485 H1469 0.930 . S
C1485 C1484 1.377 . S
C1485 C1486 1.379 . S
C1486 H1470 0.931 . S
C1486 C1480 1.383 . S
C1486 C1485 1.379 . S
H1487 C1481 0.959 . S
H1488 C1481 0.961 . S
H1489 C1481 0.960 . S
H1490 C1482 0.930 . S
H1491 C1483 0.929 . S
H1492 C1500 0.929 . S
H1493 C1502 0.930 . S
H1494 C1504 0.930 . S
H1495 C1507 0.929 . S
H1496 C1510 0.930 . S
H1497 C1512 0.960 . S
H1498 C1512 0.960 . S
H1499 C1512 0.960 . S
C1500 H1492 0.929 . S
C1500 C1501 1.377 . S
C1500 C1502 1.384 . S
C1501 C1500 1.377 . S
C1501 C1507 1.390 . S
C1502 H1493 0.930 . S
C1502 C1500 1.384 . S
C1502 C1503 1.372 . S
C1503 C1502 1.372 . S
C1503 C1504 1.400 . S
C1503 C1508 1.490 . S
C1504 H1494 0.930 . S
C1504 C1503 1.400 . S
C1504 C1507 1.386 . S
H1505 C1521 0.930 . S
H1506 C1522 0.931 . S
C1507 H1495 0.929 . S
C1507 C1501 1.390 . S
C1507 C1504 1.386 . S
C1508 C1503 1.490 . S
C1508 C1510 1.395 . S
C1508 C1511 1.403 . S
H1509 C1515 0.930 . S
C1510 H1496 0.930 . S
C1510 C1508 1.395 . S
C1510 C1513 1.403 . S
C1511 C1508 1.403 . S
C1511 C1512 1.524 . S
C1511 C1515 1.400 . S
C1512 H1497 0.960 . S
C1512 H1498 0.960 . S
C1512 H1499 0.960 . S
C1512 C1511 1.524 . S
C1513 C1510 1.403 . S
C1513 C1514 1.392 . S
C1513 C1517 1.495 . S
C1514 C1513 1.392 . S
C1514 C1515 1.385 . S
C1514 C1516 1.478 . S
C1515 H1509 0.930 . S
C1515 C1511 1.400 . S
C1515 C1514 1.385 . S
C1516 C1514 1.478 . S
C1516 C1518 1.381 . S
C1516 C1522 1.383 . S
C1517 C1513 1.495 . S
C1517 H1523 0.959 . S
C1517 H1524 0.961 . S
C1517 H1525 0.960 . S
C1518 C1516 1.381 . S
C1518 C1519 1.394 . S
C1518 H1526 0.930 . S
C1519 C1518 1.394 . S
C1519 C1520 1.383 . S
C1519 H1527 0.929 . S
C1520 C1519 1.383 . S
C1520 C1521 1.377 . S
C1521 H1505 0.930 . S
C1521 C1520 1.377 . S
C1521 C1522 1.379 . S
C1522 H1506 0.931 . S
C1522 C1516 1.383 . S
C1522 C1521 1.379 . S
H1523 C1517 0.959 . S
H1524 C1517 0.961 . S
H1525 C1517 0.960 . S
H1526 C1518 0.930 . S
H1527 C1519 0.929 . S
H1528 C1536 0.929 . S
H1529 C1538 0.930 . S
H1530 C1540 0.930 . S
H1531 C1543 0.929 . S
H1532 C1546 0.930 . S
H1533 C1548 0.960 . S
H1534 C1548 0.960 . S
H1535 C1548 0.960 . S
C1536 H1528 0.929 . S
C1536 C1537 1.377 . S
C1536 C1538 1.384 . S
C1537 C1536 1.377 . S
C1537 C1543 1.390 . S
C1538 H1529 0.930 . S
C1538 C1536 1.384 . S
C1538 C1539 1.372 . S
C1539 C1538 1.372 . S
C1539 C1540 1.400 . S
C1539 C1544 1.490 . S
C1540 H1530 0.930 . S
C1540 C1539 1.400 . S
C1540 C1543 1.386 . S
H1541 C1557 0.930 . S
H1542 C1558 0.931 . S
C1543 H1531 0.929 . S
C1543 C1537 1.390 . S
C1543 C1540 1.386 . S
C1544 C1539 1.490 . S
C1544 C1546 1.395 . S
C1544 C1547 1.403 . S
H1545 C1551 0.930 . S
C1546 H1532 0.930 . S
C1546 C1544 1.395 . S
C1546 C1549 1.403 . S
C1547 C1544 1.403 . S
C1547 C1548 1.524 . S
C1547 C1551 1.400 . S
C1548 H1533 0.960 . S
C1548 H1534 0.960 . S
C1548 H1535 0.960 . S
C1548 C1547 1.524 . S
C1549 C1546 1.403 . S
C1549 C1550 1.392 . S
C1549 C1553 1.495 . S
C1550 C1549 1.392 . S
C1550 C1551 1.385 . S
C1550 C1552 1.478 . S
C1551 H1545 0.930 . S
C1551 C1547 1.400 . S
C1551 C1550 1.385 . S
C1552 C1550 1.478 . S
C1552 C1554 1.381 . S
C1552 C1558 1.383 . S
C1553 C1549 1.495 . S
C1553 H1559 0.959 . S
C1553 H1560 0.961 . S
C1553 H1561 0.960 . S
C1554 C1552 1.381 . S
C1554 C1555 1.394 . S
C1554 H1562 0.930 . S
C1555 C1554 1.394 . S
C1555 C1556 1.383 . S
C1555 H1563 0.929 . S
C1556 C1555 1.383 . S
C1556 C1557 1.377 . S
C1557 H1541 0.930 . S
C1557 C1556 1.377 . S
C1557 C1558 1.379 . S
C1558 H1542 0.931 . S
C1558 C1552 1.383 . S
C1558 C1557 1.379 . S
H1559 C1553 0.959 . S
H1560 C1553 0.961 . S
H1561 C1553 0.960 . S
H1562 C1554 0.930 . S
H1563 C1555 0.929 . S
H1564 C1572 0.929 . S
H1565 C1574 0.930 . S
H1566 C1576 0.930 . S
H1567 C1579 0.929 . S
H1568 C1582 0.930 . S
H1569 C1584 0.960 . S
H1570 C1584 0.960 . S
H1571 C1584 0.960 . S
C1572 H1564 0.929 . S
C1572 C1573 1.377 . S
C1572 C1574 1.384 . S
C1573 C1572 1.377 . S
C1573 C1579 1.390 . S
C1574 H1565 0.930 . S
C1574 C1572 1.384 . S
C1574 C1575 1.372 . S
C1575 C1574 1.372 . S
C1575 C1576 1.400 . S
C1575 C1580 1.490 . S
C1576 H1566 0.930 . S
C1576 C1575 1.400 . S
C1576 C1579 1.386 . S
H1577 C1593 0.916 1_655 S
H1578 C1594 0.931 . S
C1579 H1567 0.929 . S
C1579 C1573 1.390 . S
C1579 C1576 1.386 . S
C1580 C1575 1.490 . S
C1580 C1582 1.395 . S
C1580 C1583 1.403 . S
H1581 C1587 0.930 . S
C1582 H1568 0.930 . S
C1582 C1580 1.395 . S
C1582 C1585 1.403 . S
C1583 C1580 1.403 . S
C1583 C1584 1.524 . S
C1583 C1587 1.400 . S
C1584 H1569 0.960 . S
C1584 H1570 0.960 . S
C1584 H1571 0.960 . S
C1584 C1583 1.524 . S
C1585 C1582 1.403 . S
C1585 C1586 1.392 . S
C1585 C1589 1.495 . S
C1586 C1585 1.392 . S
C1586 C1587 1.385 . S
C1586 C1588 1.478 . S
C1587 H1581 0.930 . S
C1587 C1583 1.400 . S
C1587 C1586 1.385 . S
C1588 C1586 1.478 . S
C1588 C1590 1.381 . S
C1588 C1594 1.383 . S
C1589 C1585 1.495 . S
C1589 H1595 0.959 . S
C1589 H1596 0.961 . S
C1589 H1597 0.960 . S
C1590 C1588 1.381 . S
C1590 C1591 1.364 1_455 S
C1590 H1598 0.930 . S
C1591 C1590 1.364 1_655 S
C1591 C1592 1.396 . S
C1591 H1599 0.949 . S
C1592 C1591 1.396 . S
C1592 C1593 1.377 1_655 S
C1593 H1577 0.916 1_455 S
C1593 C1592 1.377 1_455 S
C1593 C1594 1.379 . S
C1594 H1578 0.931 . S
C1594 C1588 1.383 . S
C1594 C1593 1.379 . S
H1595 C1589 0.959 . S
H1596 C1589 0.961 . S
H1597 C1589 0.960 . S
H1598 C1590 0.930 . S
H1599 C1591 0.949 . S
H1600 C1608 0.929 . S
H1601 C1610 0.930 . S
H1602 C1612 0.930 . S
H1603 C1615 0.929 . S
H1604 C1618 0.930 . S
H1605 C1620 0.960 . S
H1606 C1620 0.960 . S
H1607 C1620 0.960 . S
C1608 H1600 0.929 . S
C1608 C1609 1.377 . S
C1608 C1610 1.384 . S
C1609 C1608 1.377 . S
C1609 C1615 1.390 . S
C1610 H1601 0.930 . S
C1610 C1608 1.384 . S
C1610 C1611 1.372 . S
C1611 C1610 1.372 . S
C1611 C1612 1.400 . S
C1611 C1616 1.490 . S
C1612 H1602 0.930 . S
C1612 C1611 1.400 . S
C1612 C1615 1.386 . S
H1613 C1629 0.930 . S
H1614 C1630 0.931 . S
C1615 H1603 0.929 . S
C1615 C1609 1.390 . S
C1615 C1612 1.386 . S
C1616 C1611 1.490 . S
C1616 C1618 1.395 . S
C1616 C1619 1.403 . S
H1617 C1623 0.930 . S
C1618 H1604 0.930 . S
C1618 C1616 1.395 . S
C1618 C1621 1.403 . S
C1619 C1616 1.403 . S
C1619 C1620 1.524 . S
C1619 C1623 1.400 . S
C1620 H1605 0.960 . S
C1620 H1606 0.960 . S
C1620 H1607 0.960 . S
C1620 C1619 1.524 . S
C1621 C1618 1.403 . S
C1621 C1622 1.392 . S
C1621 C1625 1.495 . S
C1622 C1621 1.392 . S
C1622 C1623 1.385 . S
C1622 C1624 1.478 . S
C1623 H1617 0.930 . S
C1623 C1619 1.400 . S
C1623 C1622 1.385 . S
C1624 C1622 1.478 . S
C1624 C1626 1.381 . S
C1624 C1630 1.383 . S
C1625 C1621 1.495 . S
C1625 H1631 0.959 . S
C1625 H1632 0.961 . S
C1625 H1633 0.960 . S
C1626 C1624 1.381 . S
C1626 C1627 1.394 . S
C1626 H1634 0.930 . S
C1627 C1626 1.394 . S
C1627 C1628 1.383 . S
C1627 H1635 0.929 . S
C1628 C1627 1.383 . S
C1628 C1629 1.377 . S
C1629 H1613 0.930 . S
C1629 C1628 1.377 . S
C1629 C1630 1.379 . S
C1630 H1614 0.931 . S
C1630 C1624 1.383 . S
C1630 C1629 1.379 . S
H1631 C1625 0.959 . S
H1632 C1625 0.961 . S
H1633 C1625 0.960 . S
H1634 C1626 0.930 . S
H1635 C1627 0.929 . S
H1636 C1644 0.929 . S
H1637 C1646 0.930 . S
H1638 C1648 0.930 . S
H1639 C1651 0.929 . S
H1640 C1654 0.930 . S
H1641 C1656 0.960 . S
H1642 C1656 0.960 . S
H1643 C1656 0.960 . S
C1644 H1636 0.929 . S
C1644 C1645 1.377 . S
C1644 C1646 1.384 . S
C1645 C1644 1.377 . S
C1645 C1651 1.390 . S
C1646 H1637 0.930 . S
C1646 C1644 1.384 . S
C1646 C1647 1.372 . S
C1647 C1646 1.372 . S
C1647 C1648 1.400 . S
C1647 C1652 1.490 . S
C1648 H1638 0.930 . S
C1648 C1647 1.400 . S
C1648 C1651 1.386 . S
H1649 C1665 0.930 . S
H1650 C1666 0.931 . S
C1651 H1639 0.929 . S
C1651 C1645 1.390 . S
C1651 C1648 1.386 . S
C1652 C1647 1.490 . S
C1652 C1654 1.395 . S
C1652 C1655 1.403 . S
H1653 C1659 0.930 . S
C1654 H1640 0.930 . S
C1654 C1652 1.395 . S
C1654 C1657 1.403 . S
C1655 C1652 1.403 . S
C1655 C1656 1.524 . S
C1655 C1659 1.400 . S
C1656 H1641 0.960 . S
C1656 H1642 0.960 . S
C1656 H1643 0.960 . S
C1656 C1655 1.524 . S
C1657 C1654 1.403 . S
C1657 C1658 1.392 . S
C1657 C1661 1.495 . S
C1658 C1657 1.392 . S
C1658 C1659 1.385 . S
C1658 C1660 1.478 . S
C1659 H1653 0.930 . S
C1659 C1655 1.400 . S
C1659 C1658 1.385 . S
C1660 C1658 1.478 . S
C1660 C1662 1.381 . S
C1660 C1666 1.383 . S
C1661 C1657 1.495 . S
C1661 H1667 0.959 . S
C1661 H1668 0.961 . S
C1661 H1669 0.960 . S
C1662 C1660 1.381 . S
C1662 C1663 1.394 . S
C1662 H1670 0.930 . S
C1663 C1662 1.394 . S
C1663 C1664 1.383 . S
C1663 H1671 0.929 . S
C1664 C1663 1.383 . S
C1664 C1665 1.377 . S
C1665 H1649 0.930 . S
C1665 C1664 1.377 . S
C1665 C1666 1.379 . S
C1666 H1650 0.931 . S
C1666 C1660 1.383 . S
C1666 C1665 1.379 . S
H1667 C1661 0.959 . S
H1668 C1661 0.961 . S
H1669 C1661 0.960 . S
H1670 C1662 0.930 . S
H1671 C1663 0.929 . S
H1672 C1680 0.929 . S
H1673 C1682 0.930 . S
H1674 C1684 0.930 . S
H1675 C1687 0.929 . S
H1676 C1690 0.930 . S
H1677 C1692 0.960 . S
H1678 C1692 0.960 . S
H1679 C1692 0.960 . S
C1680 H1672 0.929 . S
C1680 C1681 1.377 . S
C1680 C1682 1.384 . S
C1681 C1680 1.377 . S
C1681 C1687 1.390 . S
C1682 H1673 0.930 . S
C1682 C1680 1.384 . S
C1682 C1683 1.372 . S
C1683 C1682 1.372 . S
C1683 C1684 1.400 . S
C1683 C1688 1.490 . S
C1684 H1674 0.930 . S
C1684 C1683 1.400 . S
C1684 C1687 1.386 . S
H1685 C1701 0.930 . S
H1686 C1702 0.931 . S
C1687 H1675 0.929 . S
C1687 C1681 1.390 . S
C1687 C1684 1.386 . S
C1688 C1683 1.490 . S
C1688 C1690 1.395 . S
C1688 C1691 1.403 . S
H1689 C1695 0.930 . S
C1690 H1676 0.930 . S
C1690 C1688 1.395 . S
C1690 C1693 1.403 . S
C1691 C1688 1.403 . S
C1691 C1692 1.524 . S
C1691 C1695 1.400 . S
C1692 H1677 0.960 . S
C1692 H1678 0.960 . S
C1692 H1679 0.960 . S
C1692 C1691 1.524 . S
C1693 C1690 1.403 . S
C1693 C1694 1.392 . S
C1693 C1697 1.495 . S
C1694 C1693 1.392 . S
C1694 C1695 1.385 . S
C1694 C1696 1.478 . S
C1695 H1689 0.930 . S
C1695 C1691 1.400 . S
C1695 C1694 1.385 . S
C1696 C1694 1.478 . S
C1696 C1698 1.381 . S
C1696 C1702 1.383 . S
C1697 C1693 1.495 . S
C1697 H1703 0.959 . S
C1697 H1704 0.961 . S
C1697 H1705 0.960 . S
C1698 C1696 1.381 . S
C1698 C1699 1.394 . S
C1698 H1706 0.930 . S
C1699 C1698 1.394 . S
C1699 C1700 1.383 . S
C1699 H1707 0.929 . S
C1700 C1699 1.383 . S
C1700 C1701 1.377 . S
C1701 H1685 0.930 . S
C1701 C1700 1.377 . S
C1701 C1702 1.379 . S
C1702 H1686 0.931 . S
C1702 C1696 1.383 . S
C1702 C1701 1.379 . S
H1703 C1697 0.959 . S
H1704 C1697 0.961 . S
H1705 C1697 0.960 . S
H1706 C1698 0.930 . S
H1707 C1699 0.929 . S
H1708 C1716 0.929 . S
H1709 C1718 0.930 . S
H1710 C1720 0.930 . S
H1711 C1723 0.929 . S
H1712 C1726 0.930 . S
H1713 C1728 0.960 . S
H1714 C1728 0.960 . S
H1715 C1728 0.960 . S
C1716 H1708 0.929 . S
C1716 C1717 1.377 . S
C1716 C1718 1.384 . S
C1717 C1716 1.377 . S
C1717 C1723 1.390 . S
C1718 H1709 0.930 . S
C1718 C1716 1.384 . S
C1718 C1719 1.372 . S
C1719 C1718 1.372 . S
C1719 C1720 1.400 . S
C1719 C1724 1.490 . S
C1720 H1710 0.930 . S
C1720 C1719 1.400 . S
C1720 C1723 1.386 . S
H1721 C1737 0.930 . S
H1722 C1738 0.931 . S
C1723 H1711 0.929 . S
C1723 C1717 1.390 . S
C1723 C1720 1.386 . S
C1724 C1719 1.490 . S
C1724 C1726 1.395 . S
C1724 C1727 1.403 . S
H1725 C1731 0.930 . S
C1726 H1712 0.930 . S
C1726 C1724 1.395 . S
C1726 C1729 1.403 . S
C1727 C1724 1.403 . S
C1727 C1728 1.524 . S
C1727 C1731 1.400 . S
C1728 H1713 0.960 . S
C1728 H1714 0.960 . S
C1728 H1715 0.960 . S
C1728 C1727 1.524 . S
C1729 C1726 1.403 . S
C1729 C1730 1.392 . S
C1729 C1733 1.495 . S
C1730 C1729 1.392 . S
C1730 C1731 1.385 . S
C1730 C1732 1.478 . S
C1731 H1725 0.930 . S
C1731 C1727 1.400 . S
C1731 C1730 1.385 . S
C1732 C1730 1.478 . S
C1732 C1734 1.381 . S
C1732 C1738 1.383 . S
C1733 C1729 1.495 . S
C1733 H1739 0.959 . S
C1733 H1740 0.961 . S
C1733 H1741 0.960 . S
C1734 C1732 1.381 . S
C1734 C1735 1.394 1_455 S
C1734 H1742 0.935 . S
C1735 C1734 1.394 1_655 S
C1735 C1736 1.383 . S
C1735 H1743 0.929 . S
C1736 C1735 1.383 . S
C1736 C1737 1.377 1_655 S
C1737 H1721 0.930 . S
C1737 C1736 1.377 1_455 S
C1737 C1738 1.379 . S
C1738 H1722 0.931 . S
C1738 C1732 1.383 . S
C1738 C1737 1.379 . S
H1739 C1733 0.959 . S
H1740 C1733 0.961 . S
H1741 C1733 0.960 . S
H1742 C1734 0.935 . S
H1743 C1735 0.929 . S
H1744 C1752 0.929 . S
H1745 C1754 0.930 . S
H1746 C1756 0.930 . S
H1747 C1759 0.929 . S
H1748 C1762 0.930 . S
H1749 C1764 0.960 . S
H1750 C1764 0.960 . S
H1751 C1764 0.960 . S
C1752 H1744 0.929 . S
C1752 C1753 1.377 . S
C1752 C1754 1.384 . S
C1753 C1752 1.377 . S
C1753 C1759 1.390 . S
C1754 H1745 0.930 . S
C1754 C1752 1.384 . S
C1754 C1755 1.372 . S
C1755 C1754 1.372 . S
C1755 C1756 1.400 . S
C1755 C1760 1.490 . S
C1756 H1746 0.930 . S
C1756 C1755 1.400 . S
C1756 C1759 1.386 . S
H1757 C1773 0.930 . S
H1758 C1774 0.931 . S
C1759 H1747 0.929 . S
C1759 C1753 1.390 . S
C1759 C1756 1.386 . S
C1760 C1755 1.490 . S
C1760 C1762 1.395 . S
C1760 C1763 1.403 . S
H1761 C1767 0.930 . S
C1762 H1748 0.930 . S
C1762 C1760 1.395 . S
C1762 C1765 1.403 . S
C1763 C1760 1.403 . S
C1763 C1764 1.524 . S
C1763 C1767 1.400 . S
C1764 H1749 0.960 . S
C1764 H1750 0.960 . S
C1764 H1751 0.960 . S
C1764 C1763 1.524 . S
C1765 C1762 1.403 . S
C1765 C1766 1.392 . S
C1765 C1769 1.495 . S
C1766 C1765 1.392 . S
C1766 C1767 1.385 . S
C1766 C1768 1.478 . S
C1767 H1761 0.930 . S
C1767 C1763 1.400 . S
C1767 C1766 1.385 . S
C1768 C1766 1.478 . S
C1768 C1770 1.381 . S
C1768 C1774 1.383 . S
C1769 C1765 1.495 . S
C1769 H1775 0.959 . S
C1769 H1776 0.961 . S
C1769 H1777 0.960 . S
C1770 C1768 1.381 . S
C1770 C1771 1.394 . S
C1770 H1778 0.930 . S
C1771 C1770 1.394 . S
C1771 C1772 1.383 . S
C1771 H1779 0.929 . S
C1772 C1771 1.383 . S
C1772 C1773 1.377 . S
C1773 H1757 0.930 . S
C1773 C1772 1.377 . S
C1773 C1774 1.379 . S
C1774 H1758 0.931 . S
C1774 C1768 1.383 . S
C1774 C1773 1.379 . S
H1775 C1769 0.959 . S
H1776 C1769 0.961 . S
H1777 C1769 0.960 . S
H1778 C1770 0.930 . S
H1779 C1771 0.929 . S
H1780 C1788 0.929 . S
H1781 C1790 0.930 . S
H1782 C1792 0.930 . S
H1783 C1795 0.929 . S
H1784 C1798 0.930 . S
H1785 C1800 0.960 . S
H1786 C1800 0.960 . S
H1787 C1800 0.960 . S
C1788 H1780 0.929 . S
C1788 C1789 1.377 1_455 S
C1788 C1790 1.384 . S
C1789 C1788 1.377 1_655 S
C1789 C1795 1.390 . S
C1790 H1781 0.930 . S
C1790 C1788 1.384 . S
C1790 C1791 1.372 . S
C1791 C1790 1.372 . S
C1791 C1792 1.400 . S
C1791 C1796 1.490 . S
C1792 H1782 0.930 . S
C1792 C1791 1.400 . S
C1792 C1795 1.386 1_455 S
H1793 C1809 0.930 . S
H1794 C1810 0.931 . S
C1795 H1783 0.929 . S
C1795 C1789 1.390 . S
C1795 C1792 1.386 1_655 S
C1796 C1791 1.490 . S
C1796 C1798 1.395 . S
C1796 C1799 1.403 . S
H1797 C1803 0.930 . S
C1798 H1784 0.930 . S
C1798 C1796 1.395 . S
C1798 C1801 1.403 . S
C1799 C1796 1.403 . S
C1799 C1800 1.524 . S
C1799 C1803 1.400 . S
C1800 H1785 0.960 . S
C1800 H1786 0.960 . S
C1800 H1787 0.960 . S
C1800 C1799 1.524 . S
C1801 C1798 1.403 . S
C1801 C1802 1.392 . S
C1801 C1805 1.495 . S
C1802 C1801 1.392 . S
C1802 C1803 1.385 . S
C1802 C1804 1.478 . S
C1803 H1797 0.930 . S
C1803 C1799 1.400 . S
C1803 C1802 1.385 . S
C1804 C1802 1.478 . S
C1804 C1806 1.381 . S
C1804 C1810 1.383 . S
C1805 C1801 1.495 . S
C1805 H1811 0.959 . S
C1805 H1812 0.961 . S
C1805 H1813 0.960 . S
C1806 C1804 1.381 . S
C1806 C1807 1.394 . S
C1806 H1814 0.930 . S
C1807 C1806 1.394 . S
C1807 C1808 1.383 . S
C1807 H1815 0.929 . S
C1808 C1807 1.383 . S
C1808 C1809 1.377 . S
C1809 H1793 0.930 . S
C1809 C1808 1.377 . S
C1809 C1810 1.379 . S
C1810 H1794 0.931 . S
C1810 C1804 1.383 . S
C1810 C1809 1.379 . S
H1811 C1805 0.959 . S
H1812 C1805 0.961 . S
H1813 C1805 0.960 . S
H1814 C1806 0.930 . S
H1815 C1807 0.929 . S
H1816 C1824 0.929 . S
H1817 C1826 0.930 . S
H1818 C1828 0.930 . S
H1819 C1831 0.929 . S
H1820 C1834 0.930 . S
H1821 C1836 0.960 . S
H1822 C1836 0.960 . S
H1823 C1836 0.960 . S
C1824 H1816 0.929 . S
C1824 C1825 1.377 . S
C1824 C1826 1.384 . S
C1825 C1824 1.377 . S
C1825 C1831 1.390 . S
C1826 H1817 0.930 . S
C1826 C1824 1.384 . S
C1826 C1827 1.372 . S
C1827 C1826 1.372 . S
C1827 C1828 1.400 . S
C1827 C1832 1.490 . S
C1828 H1818 0.930 . S
C1828 C1827 1.400 . S
C1828 C1831 1.386 . S
H1829 C1845 0.930 . S
H1830 C1846 0.931 . S
C1831 H1819 0.929 . S
C1831 C1825 1.390 . S
C1831 C1828 1.386 . S
C1832 C1827 1.490 . S
C1832 C1834 1.395 . S
C1832 C1835 1.403 . S
H1833 C1839 0.930 . S
C1834 H1820 0.930 . S
C1834 C1832 1.395 . S
C1834 C1837 1.403 . S
C1835 C1832 1.403 . S
C1835 C1836 1.524 . S
C1835 C1839 1.400 . S
C1836 H1821 0.960 . S
C1836 H1822 0.960 . S
C1836 H1823 0.960 . S
C1836 C1835 1.524 . S
C1837 C1834 1.403 . S
C1837 C1838 1.392 . S
C1837 C1841 1.495 . S
C1838 C1837 1.392 . S
C1838 C1839 1.385 . S
C1838 C1840 1.478 . S
C1839 H1833 0.930 . S
C1839 C1835 1.400 . S
C1839 C1838 1.385 . S
C1840 C1838 1.478 . S
C1840 C1842 1.381 . S
C1840 C1846 1.383 . S
C1841 C1837 1.495 . S
C1841 H1847 0.959 . S
C1841 H1848 0.961 . S
C1841 H1849 0.960 . S
C1842 C1840 1.381 . S
C1842 C1843 1.394 . S
C1842 H1850 0.930 . S
C1843 C1842 1.394 . S
C1843 C1844 1.383 . S
C1843 H1851 0.929 . S
C1844 C1843 1.383 . S
C1844 C1845 1.377 . S
C1845 H1829 0.930 . S
C1845 C1844 1.377 . S
C1845 C1846 1.379 . S
C1846 H1830 0.931 . S
C1846 C1840 1.383 . S
C1846 C1845 1.379 . S
H1847 C1841 0.959 . S
H1848 C1841 0.961 . S
H1849 C1841 0.960 . S
H1850 C1842 0.930 . S
H1851 C1843 0.929 . S
H1852 C1860 0.929 . S
H1853 C1862 0.930 . S
H1854 C1864 0.930 . S
H1855 C1867 0.929 . S
H1856 C1870 0.930 . S
H1857 C1872 0.960 . S
H1858 C1872 0.960 . S
H1859 C1872 0.960 . S
C1860 H1852 0.929 . S
C1860 C1861 1.377 . S
C1860 C1862 1.384 . S
C1861 C1860 1.377 . S
C1861 C1867 1.390 . S
C1862 H1853 0.930 . S
C1862 C1860 1.384 . S
C1862 C1863 1.372 . S
C1863 C1862 1.372 . S
C1863 C1864 1.400 . S
C1863 C1868 1.490 . S
C1864 H1854 0.930 . S
C1864 C1863 1.400 . S
C1864 C1867 1.386 . S
H1865 C1881 0.930 . S
H1866 C1882 0.931 . S
C1867 H1855 0.929 . S
C1867 C1861 1.390 . S
C1867 C1864 1.386 . S
C1868 C1863 1.490 . S
C1868 C1870 1.395 . S
C1868 C1871 1.403 . S
H1869 C1875 0.930 . S
C1870 H1856 0.930 . S
C1870 C1868 1.395 . S
C1870 C1873 1.403 . S
C1871 C1868 1.403 . S
C1871 C1872 1.524 . S
C1871 C1875 1.400 . S
C1872 H1857 0.960 . S
C1872 H1858 0.960 . S
C1872 H1859 0.960 . S
C1872 C1871 1.524 . S
C1873 C1870 1.403 . S
C1873 C1874 1.392 . S
C1873 C1877 1.495 . S
C1874 C1873 1.392 . S
C1874 C1875 1.385 . S
C1874 C1876 1.478 . S
C1875 H1869 0.930 . S
C1875 C1871 1.400 . S
C1875 C1874 1.385 . S
C1876 C1874 1.478 . S
C1876 C1878 1.381 . S
C1876 C1882 1.383 . S
C1877 C1873 1.495 . S
C1877 H1883 0.959 . S
C1877 H1884 0.961 . S
C1877 H1885 0.960 . S
C1878 C1876 1.381 . S
C1878 C1879 1.394 . S
C1878 H1886 0.930 . S
C1879 C1878 1.394 . S
C1879 C1880 1.383 . S
C1879 H1887 0.929 . S
C1880 C1879 1.383 . S
C1880 C1881 1.377 . S
C1881 H1865 0.930 . S
C1881 C1880 1.377 . S
C1881 C1882 1.379 . S
C1882 H1866 0.931 . S
C1882 C1876 1.383 . S
C1882 C1881 1.379 . S
H1883 C1877 0.959 . S
H1884 C1877 0.961 . S
H1885 C1877 0.960 . S
H1886 C1878 0.930 . S
H1887 C1879 0.929 . S
H1888 C1896 0.929 . S
H1889 C1898 0.930 . S
H1890 C1900 0.930 . S
H1891 C1903 0.929 . S
H1892 C1906 0.930 . S
H1893 C1908 0.960 . S
H1894 C1908 0.960 . S
H1895 C1908 0.960 . S
C1896 H1888 0.929 . S
C1896 C1897 1.377 . S
C1896 C1898 1.384 . S
C1897 C1896 1.377 . S
C1897 C1903 1.390 . S
C1898 H1889 0.930 . S
C1898 C1896 1.384 . S
C1898 C1899 1.372 . S
C1899 C1898 1.372 . S
C1899 C1900 1.400 . S
C1899 C1904 1.490 . S
C1900 H1890 0.930 . S
C1900 C1899 1.400 . S
C1900 C1903 1.386 . S
H1901 C1917 0.930 . S
H1902 C1918 0.931 . S
C1903 H1891 0.929 . S
C1903 C1897 1.390 . S
C1903 C1900 1.386 . S
C1904 C1899 1.490 . S
C1904 C1906 1.395 . S
C1904 C1907 1.403 . S
H1905 C1911 0.930 . S
C1906 H1892 0.930 . S
C1906 C1904 1.395 . S
C1906 C1909 1.403 . S
C1907 C1904 1.403 . S
C1907 C1908 1.524 . S
C1907 C1911 1.400 . S
C1908 H1893 0.960 . S
C1908 H1894 0.960 . S
C1908 H1895 0.960 . S
C1908 C1907 1.524 . S
C1909 C1906 1.403 . S
C1909 C1910 1.392 . S
C1909 C1913 1.495 . S
C1910 C1909 1.392 . S
C1910 C1911 1.385 . S
C1910 C1912 1.478 . S
C1911 H1905 0.930 . S
C1911 C1907 1.400 . S
C1911 C1910 1.385 . S
C1912 C1910 1.478 . S
C1912 C1914 1.381 . S
C1912 C1918 1.383 . S
C1913 C1909 1.495 . S
C1913 H1919 0.959 . S
C1913 H1920 0.961 . S
C1913 H1921 0.960 . S
C1914 C1912 1.381 . S
C1914 C1915 1.394 . S
C1914 H1922 0.930 . S
C1915 C1914 1.394 . S
C1915 C1916 1.383 . S
C1915 H1923 0.929 . S
C1916 C1915 1.383 . S
C1916 C1917 1.377 . S
C1917 H1901 0.930 . S
C1917 C1916 1.377 . S
C1917 C1918 1.379 . S
C1918 H1902 0.931 . S
C1918 C1912 1.383 . S
C1918 C1917 1.379 . S
H1919 C1913 0.959 . S
H1920 C1913 0.961 . S
H1921 C1913 0.960 . S
H1922 C1914 0.930 . S
H1923 C1915 0.929 . S
H1924 C1932 0.929 . S
H1925 C1934 0.930 . S
H1926 C1936 0.930 . S
H1927 C1939 0.929 . S
H1928 C1942 0.930 . S
H1929 C1944 0.960 . S
H1930 C1944 0.960 . S
H1931 C1944 0.960 . S
C1932 H1924 0.929 . S
C1932 C1933 1.377 . S
C1932 C1934 1.384 . S
C1933 C1932 1.377 . S
C1933 C1939 1.390 . S
C1934 H1925 0.930 . S
C1934 C1932 1.384 . S
C1934 C1935 1.372 . S
C1935 C1934 1.372 . S
C1935 C1936 1.400 . S
C1935 C1940 1.490 . S
C1936 H1926 0.930 . S
C1936 C1935 1.400 . S
C1936 C1939 1.386 . S
H1937 C1953 0.930 . S
H1938 C1954 0.931 . S
C1939 H1927 0.929 . S
C1939 C1933 1.390 . S
C1939 C1936 1.386 . S
C1940 C1935 1.490 . S
C1940 C1942 1.395 . S
C1940 C1943 1.403 . S
H1941 C1947 0.930 . S
C1942 H1928 0.930 . S
C1942 C1940 1.395 . S
C1942 C1945 1.403 . S
C1943 C1940 1.403 . S
C1943 C1944 1.524 . S
C1943 C1947 1.400 . S
C1944 H1929 0.960 . S
C1944 H1930 0.960 . S
C1944 H1931 0.960 . S
C1944 C1943 1.524 . S
C1945 C1942 1.403 . S
C1945 C1946 1.392 . S
C1945 C1949 1.495 . S
C1946 C1945 1.392 . S
C1946 C1947 1.385 . S
C1946 C1948 1.478 . S
C1947 H1941 0.930 . S
C1947 C1943 1.400 . S
C1947 C1946 1.385 . S
C1948 C1946 1.478 . S
C1948 C1950 1.381 . S
C1948 C1954 1.383 . S
C1949 C1945 1.495 . S
C1949 H1955 0.959 . S
C1949 H1956 0.961 . S
C1949 H1957 0.960 . S
C1950 C1948 1.381 . S
C1950 C1951 1.394 . S
C1950 H1958 0.930 . S
C1951 C1950 1.394 . S
C1951 C1952 1.383 . S
C1951 H1959 0.929 . S
C1952 C1951 1.383 . S
C1952 C1953 1.377 . S
C1953 H1937 0.930 . S
C1953 C1952 1.377 . S
C1953 C1954 1.379 . S
C1954 H1938 0.931 . S
C1954 C1948 1.383 . S
C1954 C1953 1.379 . S
H1955 C1949 0.959 . S
H1956 C1949 0.961 . S
H1957 C1949 0.960 . S
H1958 C1950 0.930 . S
H1959 C1951 0.929 . S
H1960 C1968 0.929 . S
H1961 C1970 0.930 . S
H1962 C1972 0.930 . S
H1963 C1975 0.929 . S
H1964 C1978 0.930 . S
H1965 C1980 0.960 . S
H1966 C1980 0.960 . S
H1967 C1980 0.960 . S
C1968 H1960 0.929 . S
C1968 C1969 1.377 . S
C1968 C1970 1.384 . S
C1969 C1968 1.377 . S
C1969 C1975 1.390 . S
C1970 H1961 0.930 . S
C1970 C1968 1.384 . S
C1970 C1971 1.372 . S
C1971 C1970 1.372 . S
C1971 C1972 1.400 . S
C1971 C1976 1.490 . S
C1972 H1962 0.930 . S
C1972 C1971 1.400 . S
C1972 C1975 1.386 . S
H1973 C1989 0.930 . S
H1974 C1990 0.931 . S
C1975 H1963 0.929 . S
C1975 C1969 1.390 . S
C1975 C1972 1.386 . S
C1976 C1971 1.490 . S
C1976 C1978 1.395 . S
C1976 C1979 1.403 . S
H1977 C1983 0.930 . S
C1978 H1964 0.930 . S
C1978 C1976 1.395 . S
C1978 C1981 1.403 . S
C1979 C1976 1.403 . S
C1979 C1980 1.524 . S
C1979 C1983 1.400 . S
C1980 H1965 0.960 . S
C1980 H1966 0.960 . S
C1980 H1967 0.960 . S
C1980 C1979 1.524 . S
C1981 C1978 1.403 . S
C1981 C1982 1.392 . S
C1981 C1985 1.495 . S
C1982 C1981 1.392 . S
C1982 C1983 1.385 . S
C1982 C1984 1.478 . S
C1983 H1977 0.930 . S
C1983 C1979 1.400 . S
C1983 C1982 1.385 . S
C1984 C1982 1.478 . S
C1984 C1986 1.381 . S
C1984 C1990 1.383 . S
C1985 C1981 1.495 . S
C1985 H1991 0.959 . S
C1985 H1992 0.961 . S
C1985 H1993 0.960 . S
C1986 C1984 1.381 . S
C1986 C1987 1.394 . S
C1986 H1994 0.930 . S
C1987 C1986 1.394 . S
C1987 C1988 1.383 . S
C1987 H1995 0.929 . S
C1988 C1987 1.383 . S
C1988 C1989 1.377 . S
C1989 H1973 0.930 . S
C1989 C1988 1.377 . S
C1989 C1990 1.379 . S
C1990 H1974 0.931 . S
C1990 C1984 1.383 . S
C1990 C1989 1.379 . S
H1991 C1985 0.959 . S
H1992 C1985 0.961 . S
H1993 C1985 0.960 . S
H1994 C1986 0.930 . S
H1995 C1987 0.929 . S
H1996 C2004 0.929 . S
H1997 C2006 0.930 . S
H1998 C2008 0.930 . S
H1999 C2011 0.929 . S
H2000 C2014 0.930 . S
H2001 C2016 0.960 . S
H2002 C2016 0.960 . S
H2003 C2016 0.960 . S
C2004 H1996 0.929 . S
C2004 C2005 1.377 . S
C2004 C2006 1.384 . S
C2005 C2004 1.377 . S
C2005 C2011 1.390 . S
C2006 H1997 0.930 . S
C2006 C2004 1.384 . S
C2006 C2007 1.372 . S
C2007 C2006 1.372 . S
C2007 C2008 1.400 . S
C2007 C2012 1.490 . S
C2008 H1998 0.930 . S
C2008 C2007 1.400 . S
C2008 C2011 1.386 . S
H2009 C2025 0.922 1_455 S
H2010 C2026 0.931 . S
C2011 H1999 0.929 . S
C2011 C2005 1.390 . S
C2011 C2008 1.386 . S
C2012 C2007 1.490 . S
C2012 C2014 1.395 . S
C2012 C2015 1.403 . S
H2013 C2019 0.930 . S
C2014 H2000 0.930 . S
C2014 C2012 1.395 . S
C2014 C2017 1.403 . S
C2015 C2012 1.403 . S
C2015 C2016 1.524 . S
C2015 C2019 1.400 . S
C2016 H2001 0.960 . S
C2016 H2002 0.960 . S
C2016 H2003 0.960 . S
C2016 C2015 1.524 . S
C2017 C2014 1.403 . S
C2017 C2018 1.392 . S
C2017 C2021 1.495 . S
C2018 C2017 1.392 . S
C2018 C2019 1.385 . S
C2018 C2020 1.478 . S
C2019 H2013 0.930 . S
C2019 C2015 1.400 . S
C2019 C2018 1.385 . S
C2020 C2018 1.478 . S
C2020 C2022 1.381 . S
C2020 C2026 1.383 . S
C2021 C2017 1.495 . S
C2021 H2027 0.959 . S
C2021 H2028 0.961 . S
C2021 H2029 0.960 . S
C2022 C2020 1.381 . S
C2022 C2023 1.394 . S
C2022 H2030 0.930 . S
C2023 C2022 1.394 . S
C2023 C2024 1.383 1_655 S
C2023 H2031 0.929 . S
C2024 C2023 1.383 1_455 S
C2024 C2025 1.374 1_455 S
C2025 H2009 0.922 1_655 S
C2025 C2024 1.374 1_655 S
C2025 C2026 1.390 . S
C2026 H2010 0.931 . S
C2026 C2020 1.383 . S
C2026 C2025 1.390 . S
H2027 C2021 0.959 . S
H2028 C2021 0.961 . S
H2029 C2021 0.960 . S
H2030 C2022 0.930 . S
H2031 C2023 0.929 . S
H2032 C2040 0.929 . S
H2033 C2042 0.930 . S
H2034 C2044 0.930 . S
H2035 C2047 0.929 . S
H2036 C2050 0.930 . S
H2037 C2052 0.960 . S
H2038 C2052 0.960 . S
H2039 C2052 0.960 . S
C2040 H2032 0.929 . S
C2040 C2041 1.377 . S
C2040 C2042 1.384 . S
C2041 C2040 1.377 . S
C2041 C2047 1.390 . S
C2042 H2033 0.930 . S
C2042 C2040 1.384 . S
C2042 C2043 1.372 . S
C2043 C2042 1.372 . S
C2043 C2044 1.400 . S
C2043 C2048 1.490 . S
C2044 H2034 0.930 . S
C2044 C2043 1.400 . S
C2044 C2047 1.386 . S
H2045 C2061 0.930 . S
H2046 C2062 0.931 . S
C2047 H2035 0.929 . S
C2047 C2041 1.390 . S
C2047 C2044 1.386 . S
C2048 C2043 1.490 . S
C2048 C2050 1.395 . S
C2048 C2051 1.403 . S
H2049 C2055 0.930 . S
C2050 H2036 0.930 . S
C2050 C2048 1.395 . S
C2050 C2053 1.403 . S
C2051 C2048 1.403 . S
C2051 C2052 1.524 . S
C2051 C2055 1.400 . S
C2052 H2037 0.960 . S
C2052 H2038 0.960 . S
C2052 H2039 0.960 . S
C2052 C2051 1.524 . S
C2053 C2050 1.403 . S
C2053 C2054 1.392 . S
C2053 C2057 1.495 . S
C2054 C2053 1.392 . S
C2054 C2055 1.385 . S
C2054 C2056 1.478 . S
C2055 H2049 0.930 . S
C2055 C2051 1.400 . S
C2055 C2054 1.385 . S
C2056 C2054 1.478 . S
C2056 C2058 1.381 . S
C2056 C2062 1.383 . S
C2057 C2053 1.495 . S
C2057 H2063 0.959 . S
C2057 H2064 0.961 . S
C2057 H2065 0.960 . S
C2058 C2056 1.381 . S
C2058 C2059 1.394 . S
C2058 H2066 0.930 . S
C2059 C2058 1.394 . S
C2059 C2060 1.383 . S
C2059 H2067 0.929 . S
C2060 C2059 1.383 . S
C2060 C2061 1.377 . S
C2061 H2045 0.930 . S
C2061 C2060 1.377 . S
C2061 C2062 1.379 . S
C2062 H2046 0.931 . S
C2062 C2056 1.383 . S
C2062 C2061 1.379 . S
H2063 C2057 0.959 . S
H2064 C2057 0.961 . S
H2065 C2057 0.960 . S
H2066 C2058 0.930 . S
H2067 C2059 0.929 . S
H2068 C2076 0.929 . S
H2069 C2078 0.930 . S
H2070 C2080 0.930 . S
H2071 C2083 0.942 . S
H2072 C2086 0.930 . S
H2073 C2088 0.960 . S
H2074 C2088 0.960 . S
H2075 C2088 0.960 . S
C2076 H2068 0.929 . S
C2076 C2077 1.377 1_655 S
C2076 C2078 1.384 . S
C2077 C2076 1.377 1_455 S
C2077 C2083 1.396 . S
C2078 H2069 0.930 . S
C2078 C2076 1.384 . S
C2078 C2079 1.372 . S
C2079 C2078 1.372 . S
C2079 C2080 1.400 . S
C2079 C2084 1.490 . S
C2080 H2070 0.930 . S
C2080 C2079 1.400 . S
C2080 C2083 1.368 1_655 S
H2081 C2097 0.930 . S
H2082 C2098 0.931 . S
C2083 H2071 0.942 . S
C2083 C2077 1.396 . S
C2083 C2080 1.368 1_455 S
C2084 C2079 1.490 . S
C2084 C2086 1.395 . S
C2084 C2087 1.403 . S
H2085 C2091 0.930 . S
C2086 H2072 0.930 . S
C2086 C2084 1.395 . S
C2086 C2089 1.403 . S
C2087 C2084 1.403 . S
C2087 C2088 1.524 . S
C2087 C2091 1.400 . S
C2088 H2073 0.960 . S
C2088 H2074 0.960 . S
C2088 H2075 0.960 . S
C2088 C2087 1.524 . S
C2089 C2086 1.403 . S
C2089 C2090 1.392 . S
C2089 C2093 1.495 . S
C2090 C2089 1.392 . S
C2090 C2091 1.385 . S
C2090 C2092 1.478 . S
C2091 H2085 0.930 . S
C2091 C2087 1.400 . S
C2091 C2090 1.385 . S
C2092 C2090 1.478 . S
C2092 C2094 1.381 . S
C2092 C2098 1.383 . S
C2093 C2089 1.495 . S
C2093 H2099 0.959 . S
C2093 H2100 0.961 . S
C2093 H2101 0.960 . S
C2094 C2092 1.381 . S
C2094 C2095 1.394 . S
C2094 H2102 0.930 . S
C2095 C2094 1.394 . S
C2095 C2096 1.383 . S
C2095 H2103 0.929 . S
C2096 C2095 1.383 . S
C2096 C2097 1.377 . S
C2097 H2081 0.930 . S
C2097 C2096 1.377 . S
C2097 C2098 1.379 . S
C2098 H2082 0.931 . S
C2098 C2092 1.383 . S
C2098 C2097 1.379 . S
H2099 C2093 0.959 . S
H2100 C2093 0.961 . S
H2101 C2093 0.960 . S
H2102 C2094 0.930 . S
H2103 C2095 0.929 . S
H2104 C2112 0.929 . S
H2105 C2114 0.930 . S
H2106 C2116 0.930 . S
H2107 C2119 0.929 . S
H2108 C2122 0.930 . S
H2109 C2124 0.960 . S
H2110 C2124 0.960 . S
H2111 C2124 0.960 . S
C2112 H2104 0.929 . S
C2112 C2113 1.377 . S
C2112 C2114 1.384 . S
C2113 C2112 1.377 . S
C2113 C2119 1.390 . S
C2114 H2105 0.930 . S
C2114 C2112 1.384 . S
C2114 C2115 1.372 . S
C2115 C2114 1.372 . S
C2115 C2116 1.400 . S
C2115 C2120 1.490 . S
C2116 H2106 0.930 . S
C2116 C2115 1.400 . S
C2116 C2119 1.386 . S
H2117 C2133 0.930 . S
H2118 C2134 0.931 . S
C2119 H2107 0.929 . S
C2119 C2113 1.390 . S
C2119 C2116 1.386 . S
C2120 C2115 1.490 . S
C2120 C2122 1.395 . S
C2120 C2123 1.403 . S
H2121 C2127 0.930 . S
C2122 H2108 0.930 . S
C2122 C2120 1.395 . S
C2122 C2125 1.403 . S
C2123 C2120 1.403 . S
C2123 C2124 1.524 . S
C2123 C2127 1.400 . S
C2124 H2109 0.960 . S
C2124 H2110 0.960 . S
C2124 H2111 0.960 . S
C2124 C2123 1.524 . S
C2125 C2122 1.403 . S
C2125 C2126 1.392 . S
C2125 C2129 1.495 . S
C2126 C2125 1.392 . S
C2126 C2127 1.385 . S
C2126 C2128 1.478 . S
C2127 H2121 0.930 . S
C2127 C2123 1.400 . S
C2127 C2126 1.385 . S
C2128 C2126 1.478 . S
C2128 C2130 1.381 . S
C2128 C2134 1.383 . S
C2129 C2125 1.495 . S
C2129 H2135 0.959 . S
C2129 H2136 0.961 . S
C2129 H2137 0.960 . S
C2130 C2128 1.381 . S
C2130 C2131 1.394 . S
C2130 H2138 0.930 . S
C2131 C2130 1.394 . S
C2131 C2132 1.383 . S
C2131 H2139 0.929 . S
C2132 C2131 1.383 . S
C2132 C2133 1.377 . S
C2133 H2117 0.930 . S
C2133 C2132 1.377 . S
C2133 C2134 1.379 . S
C2134 H2118 0.931 . S
C2134 C2128 1.383 . S
C2134 C2133 1.379 . S
H2135 C2129 0.959 . S
H2136 C2129 0.961 . S
H2137 C2129 0.960 . S
H2138 C2130 0.930 . S
H2139 C2131 0.929 . S
H2140 C2148 0.929 . S
H2141 C2150 0.930 . S
H2142 C2152 0.930 . S
H2143 C2155 0.929 . S
H2144 C2158 0.930 . S
H2145 C2160 0.960 . S
H2146 C2160 0.960 . S
H2147 C2160 0.960 . S
C2148 H2140 0.929 . S
C2148 C2149 1.377 . S
C2148 C2150 1.384 . S
C2149 C2148 1.377 . S
C2149 C2155 1.390 . S
C2150 H2141 0.930 . S
C2150 C2148 1.384 . S
C2150 C2151 1.372 . S
C2151 C2150 1.372 . S
C2151 C2152 1.400 . S
C2151 C2156 1.490 . S
C2152 H2142 0.930 . S
C2152 C2151 1.400 . S
C2152 C2155 1.386 . S
H2153 C2169 0.930 . S
H2154 C2170 0.931 . S
C2155 H2143 0.929 . S
C2155 C2149 1.390 . S
C2155 C2152 1.386 . S
C2156 C2151 1.490 . S
C2156 C2158 1.395 . S
C2156 C2159 1.403 . S
H2157 C2163 0.930 . S
C2158 H2144 0.930 . S
C2158 C2156 1.395 . S
C2158 C2161 1.403 . S
C2159 C2156 1.403 . S
C2159 C2160 1.524 . S
C2159 C2163 1.400 . S
C2160 H2145 0.960 . S
C2160 H2146 0.960 . S
C2160 H2147 0.960 . S
C2160 C2159 1.524 . S
C2161 C2158 1.403 . S
C2161 C2162 1.392 . S
C2161 C2165 1.495 . S
C2162 C2161 1.392 . S
C2162 C2163 1.385 . S
C2162 C2164 1.478 . S
C2163 H2157 0.930 . S
C2163 C2159 1.400 . S
C2163 C2162 1.385 . S
C2164 C2162 1.478 . S
C2164 C2166 1.381 . S
C2164 C2170 1.383 . S
C2165 C2161 1.495 . S
C2165 H2171 0.959 . S
C2165 H2172 0.961 . S
C2165 H2173 0.960 . S
C2166 C2164 1.381 . S
C2166 C2167 1.394 . S
C2166 H2174 0.930 . S
C2167 C2166 1.394 . S
C2167 C2168 1.383 . S
C2167 H2175 0.929 . S
C2168 C2167 1.383 . S
C2168 C2169 1.377 . S
C2169 H2153 0.930 . S
C2169 C2168 1.377 . S
C2169 C2170 1.379 . S
C2170 H2154 0.931 . S
C2170 C2164 1.383 . S
C2170 C2169 1.379 . S
H2171 C2165 0.959 . S
H2172 C2165 0.961 . S
H2173 C2165 0.960 . S
H2174 C2166 0.930 . S
H2175 C2167 0.929 . S
H2176 C2184 0.929 . S
H2177 C2186 0.930 . S
H2178 C2188 0.930 . S
H2179 C2191 0.929 . S
H2180 C2194 0.930 . S
H2181 C2196 0.998 . S
H2182 C2196 0.960 . S
H2183 C2196 0.960 . S
C2184 H2176 0.929 . S
C2184 C2185 1.377 . S
C2184 C2186 1.384 . S
C2185 C2184 1.377 . S
C2185 C2191 1.390 . S
C2186 H2177 0.930 . S
C2186 C2184 1.384 . S
C2186 C2187 1.372 . S
C2187 C2186 1.372 . S
C2187 C2188 1.400 . S
C2187 C2192 1.490 . S
C2188 H2178 0.930 . S
C2188 C2187 1.400 . S
C2188 C2191 1.386 . S
H2189 C2205 0.930 . S
H2190 C2206 0.931 . S
C2191 H2179 0.929 . S
C2191 C2185 1.390 . S
C2191 C2188 1.386 . S
C2192 C2187 1.490 . S
C2192 C2194 1.395 . S
C2192 C2195 1.403 . S
H2193 C2199 0.930 . S
C2194 H2180 0.930 . S
C2194 C2192 1.395 . S
C2194 C2197 1.403 . S
C2195 C2192 1.403 . S
C2195 C2196 1.524 . S
C2195 C2199 1.400 . S
C2196 H2181 0.998 . S
C2196 H2182 0.960 . S
C2196 H2183 0.960 . S
C2196 C2195 1.524 . S
C2197 C2194 1.403 . S
C2197 C2198 1.392 . S
C2197 C2201 1.495 . S
C2198 C2197 1.392 . S
C2198 C2199 1.385 . S
C2198 C2200 1.478 . S
C2199 H2193 0.930 . S
C2199 C2195 1.400 . S
C2199 C2198 1.385 . S
C2200 C2198 1.478 . S
C2200 C2202 1.381 . S
C2200 C2206 1.383 . S
C2201 C2197 1.495 . S
C2201 H2207 0.959 . S
C2201 H2208 0.961 . S
C2201 H2209 0.960 . S
C2202 C2200 1.381 . S
C2202 C2203 1.394 . S
C2202 H2210 0.930 . S
C2203 C2202 1.394 . S
C2203 C2204 1.383 . S
C2203 H2211 0.929 . S
C2204 C2203 1.383 . S
C2204 C2205 1.377 . S
C2205 H2189 0.930 . S
C2205 C2204 1.377 . S
C2205 C2206 1.379 . S
C2206 H2190 0.931 . S
C2206 C2200 1.383 . S
C2206 C2205 1.379 . S
H2207 C2201 0.959 . S
H2208 C2201 0.961 . S
H2209 C2201 0.960 . S
H2210 C2202 0.930 . S
H2211 C2203 0.929 . S
H2212 C2220 0.929 . S
H2213 C2222 0.930 . S
H2214 C2224 0.930 . S
H2215 C2227 0.929 . S
H2216 C2230 0.930 . S
H2217 C2232 0.960 . S
H2218 C2232 0.960 . S
H2219 C2232 0.960 . S
C2220 H2212 0.929 . S
C2220 C2221 1.377 . S
C2220 C2222 1.384 . S
C2221 C2220 1.377 . S
C2221 C2227 1.390 . S
C2222 H2213 0.930 . S
C2222 C2220 1.384 . S
C2222 C2223 1.372 . S
C2223 C2222 1.372 . S
C2223 C2224 1.400 . S
C2223 C2228 1.490 . S
C2224 H2214 0.930 . S
C2224 C2223 1.400 . S
C2224 C2227 1.386 . S
H2225 C2241 0.930 . S
H2226 C2242 0.931 . S
C2227 H2215 0.929 . S
C2227 C2221 1.390 . S
C2227 C2224 1.386 . S
C2228 C2223 1.490 . S
C2228 C2230 1.395 . S
C2228 C2231 1.403 . S
H2229 C2235 0.930 . S
C2230 H2216 0.930 . S
C2230 C2228 1.395 . S
C2230 C2233 1.403 . S
C2231 C2228 1.403 . S
C2231 C2232 1.524 . S
C2231 C2235 1.400 . S
C2232 H2217 0.960 . S
C2232 H2218 0.960 . S
C2232 H2219 0.960 . S
C2232 C2231 1.524 . S
C2233 C2230 1.403 . S
C2233 C2234 1.392 . S
C2233 C2237 1.495 . S
C2234 C2233 1.392 . S
C2234 C2235 1.385 . S
C2234 C2236 1.478 . S
C2235 H2229 0.930 . S
C2235 C2231 1.400 . S
C2235 C2234 1.385 . S
C2236 C2234 1.478 . S
C2236 C2238 1.381 . S
C2236 C2242 1.383 . S
C2237 C2233 1.495 . S
C2237 H2243 0.959 . S
C2237 H2244 0.961 . S
C2237 H2245 0.960 . S
C2238 C2236 1.381 . S
C2238 C2239 1.394 . S
C2238 H2246 0.930 . S
C2239 C2238 1.394 . S
C2239 C2240 1.383 . S
C2239 H2247 0.929 . S
C2240 C2239 1.383 . S
C2240 C2241 1.377 . S
C2241 H2225 0.930 . S
C2241 C2240 1.377 . S
C2241 C2242 1.379 . S
C2242 H2226 0.931 . S
C2242 C2236 1.383 . S
C2242 C2241 1.379 . S
H2243 C2237 0.959 . S
H2244 C2237 0.961 . S
H2245 C2237 0.960 . S
H2246 C2238 0.930 . S
H2247 C2239 0.929 . S
H2248 C2256 0.929 . S
H2249 C2258 0.930 . S
H2250 C2260 0.930 . S
H2251 C2263 0.929 . S
H2252 C2266 0.930 . S
H2253 C2268 0.960 . S
H2254 C2268 0.960 . S
H2255 C2268 0.960 . S
C2256 H2248 0.929 . S
C2256 C2257 1.377 . S
C2256 C2258 1.384 . S
C2257 C2256 1.377 . S
C2257 C2263 1.390 . S
C2258 H2249 0.930 . S
C2258 C2256 1.384 . S
C2258 C2259 1.372 . S
C2259 C2258 1.372 . S
C2259 C2260 1.400 . S
C2259 C2264 1.490 . S
C2260 H2250 0.930 . S
C2260 C2259 1.400 . S
C2260 C2263 1.386 . S
H2261 C2277 0.930 . S
H2262 C2278 0.931 . S
C2263 H2251 0.929 . S
C2263 C2257 1.390 . S
C2263 C2260 1.386 . S
C2264 C2259 1.490 . S
C2264 C2266 1.395 . S
C2264 C2267 1.403 . S
H2265 C2271 0.930 . S
C2266 H2252 0.930 . S
C2266 C2264 1.395 . S
C2266 C2269 1.403 . S
C2267 C2264 1.403 . S
C2267 C2268 1.524 . S
C2267 C2271 1.400 . S
C2268 H2253 0.960 . S
C2268 H2254 0.960 . S
C2268 H2255 0.960 . S
C2268 C2267 1.524 . S
C2269 C2266 1.403 . S
C2269 C2270 1.392 . S
C2269 C2273 1.495 . S
C2270 C2269 1.392 . S
C2270 C2271 1.385 . S
C2270 C2272 1.478 . S
C2271 H2265 0.930 . S
C2271 C2267 1.400 . S
C2271 C2270 1.385 . S
C2272 C2270 1.478 . S
C2272 C2274 1.381 . S
C2272 C2278 1.383 . S
C2273 C2269 1.495 . S
C2273 H2279 0.959 . S
C2273 H2280 0.961 . S
C2273 H2281 0.960 . S
C2274 C2272 1.381 . S
C2274 C2275 1.394 . S
C2274 H2282 0.930 . S
C2275 C2274 1.394 . S
C2275 C2276 1.383 . S
C2275 H2283 0.929 . S
C2276 C2275 1.383 . S
C2276 C2277 1.377 . S
C2277 H2261 0.930 . S
C2277 C2276 1.377 . S
C2277 C2278 1.379 . S
C2278 H2262 0.931 . S
C2278 C2272 1.383 . S
C2278 C2277 1.379 . S
H2279 C2273 0.959 . S
H2280 C2273 0.961 . S
H2281 C2273 0.960 . S
H2282 C2274 0.930 . S
H2283 C2275 0.929 . S
H2284 C2292 0.929 . S
H2285 C2294 0.927 . S
H2286 C2296 0.930 . S
H2287 C2299 0.929 . S
H2288 C2302 0.930 . S
H2289 C2304 0.960 . S
H2290 C2304 0.960 . S
H2291 C2304 0.960 . S
C2292 H2284 0.929 . S
C2292 C2293 1.377 . S
C2292 C2294 1.384 . S
C2293 C2292 1.377 . S
C2293 C2299 1.390 . S
C2294 H2285 0.927 . S
C2294 C2292 1.384 . S
C2294 C2295 1.372 . S
C2295 C2294 1.372 . S
C2295 C2296 1.400 . S
C2295 C2300 1.490 . S
C2296 H2286 0.930 . S
C2296 C2295 1.400 . S
C2296 C2299 1.386 . S
H2297 C2313 0.930 . S
H2298 C2314 0.931 . S
C2299 H2287 0.929 . S
C2299 C2293 1.390 . S
C2299 C2296 1.386 . S
C2300 C2295 1.490 . S
C2300 C2302 1.395 1_556 S
C2300 C2303 1.403 . S
H2301 C2307 0.930 . S
C2302 H2288 0.930 . S
C2302 C2300 1.395 1_554 S
C2302 C2305 1.403 . S
C2303 C2300 1.403 . S
C2303 C2304 1.524 . S
C2303 C2307 1.400 . S
C2304 H2289 0.960 . S
C2304 H2290 0.960 . S
C2304 H2291 0.960 . S
C2304 C2303 1.524 . S
C2305 C2302 1.403 . S
C2305 C2306 1.392 . S
C2305 C2309 1.495 . S
C2306 C2305 1.392 . S
C2306 C2307 1.385 1_554 S
C2306 C2308 1.478 . S
C2307 H2301 0.930 . S
C2307 C2303 1.400 . S
C2307 C2306 1.385 1_556 S
C2308 C2306 1.478 . S
C2308 C2310 1.381 . S
C2308 C2314 1.383 . S
C2309 C2305 1.495 . S
C2309 H2315 0.959 . S
C2309 H2316 0.961 . S
C2309 H2317 0.960 . S
C2310 C2308 1.381 . S
C2310 C2311 1.394 . S
C2310 H2318 0.930 . S
C2311 C2310 1.394 . S
C2311 C2312 1.383 . S
C2311 H2319 0.929 . S
C2312 C2311 1.383 . S
C2312 C2313 1.377 . S
C2313 H2297 0.930 . S
C2313 C2312 1.377 . S
C2313 C2314 1.379 . S
C2314 H2298 0.931 . S
C2314 C2308 1.383 . S
C2314 C2313 1.379 . S
H2315 C2309 0.959 . S
H2316 C2309 0.961 . S
H2317 C2309 0.960 . S
H2318 C2310 0.930 . S
H2319 C2311 0.929 . S
H2320 C2328 0.929 . S
H2321 C2330 0.930 . S
H2322 C2332 0.930 . S
H2323 C2335 0.929 . S
H2324 C2338 0.930 . S
H2325 C2340 0.960 . S
H2326 C2340 0.960 . S
H2327 C2340 0.960 . S
C2328 H2320 0.929 . S
C2328 C2329 1.377 . S
C2328 C2330 1.384 . S
C2329 C2328 1.377 . S
C2329 C2335 1.390 . S
C2330 H2321 0.930 . S
C2330 C2328 1.384 . S
C2330 C2331 1.372 . S
C2331 C2330 1.372 . S
C2331 C2332 1.400 . S
C2331 C2336 1.490 . S
C2332 H2322 0.930 . S
C2332 C2331 1.400 . S
C2332 C2335 1.386 . S
H2333 C2349 0.930 . S
H2334 C2350 0.931 . S
C2335 H2323 0.929 . S
C2335 C2329 1.390 . S
C2335 C2332 1.386 . S
C2336 C2331 1.490 . S
C2336 C2338 1.395 . S
C2336 C2339 1.403 . S
H2337 C2343 0.930 . S
C2338 H2324 0.930 . S
C2338 C2336 1.395 . S
C2338 C2341 1.403 . S
C2339 C2336 1.403 . S
C2339 C2340 1.524 . S
C2339 C2343 1.400 . S
C2340 H2325 0.960 . S
C2340 H2326 0.960 . S
C2340 H2327 0.960 . S
C2340 C2339 1.524 . S
C2341 C2338 1.403 . S
C2341 C2342 1.392 . S
C2341 C2345 1.495 . S
C2342 C2341 1.392 . S
C2342 C2343 1.385 . S
C2342 C2344 1.478 . S
C2343 H2337 0.930 . S
C2343 C2339 1.400 . S
C2343 C2342 1.385 . S
C2344 C2342 1.478 . S
C2344 C2346 1.381 . S
C2344 C2350 1.383 . S
C2345 C2341 1.495 . S
C2345 H2351 0.959 . S
C2345 H2352 0.961 . S
C2345 H2353 0.960 . S
C2346 C2344 1.381 . S
C2346 C2347 1.394 . S
C2346 H2354 0.930 . S
C2347 C2346 1.394 . S
C2347 C2348 1.383 . S
C2347 H2355 0.929 . S
C2348 C2347 1.383 . S
C2348 C2349 1.377 . S
C2349 H2333 0.930 . S
C2349 C2348 1.377 . S
C2349 C2350 1.379 . S
C2350 H2334 0.931 . S
C2350 C2344 1.383 . S
C2350 C2349 1.379 . S
H2351 C2345 0.959 . S
H2352 C2345 0.961 . S
H2353 C2345 0.960 . S
H2354 C2346 0.930 . S
H2355 C2347 0.929 . S
H2356 C2364 0.929 . S
H2357 C2366 0.930 . S
H2358 C2368 0.930 . S
H2359 C2371 0.929 . S
H2360 C2374 0.930 . S
H2361 C2376 0.960 . S
H2362 C2376 0.960 . S
H2363 C2376 0.960 . S
C2364 H2356 0.929 . S
C2364 C2365 1.377 . S
C2364 C2366 1.384 . S
C2365 C2364 1.377 . S
C2365 C2371 1.390 . S
C2366 H2357 0.930 . S
C2366 C2364 1.384 . S
C2366 C2367 1.372 . S
C2367 C2366 1.372 . S
C2367 C2368 1.400 . S
C2367 C2372 1.490 . S
C2368 H2358 0.930 . S
C2368 C2367 1.400 . S
C2368 C2371 1.386 . S
H2369 C2385 0.930 . S
H2370 C2386 0.931 . S
C2371 H2359 0.929 . S
C2371 C2365 1.390 . S
C2371 C2368 1.386 . S
C2372 C2367 1.490 . S
C2372 C2374 1.395 . S
C2372 C2375 1.403 . S
H2373 C2379 0.930 . S
C2374 H2360 0.930 . S
C2374 C2372 1.395 . S
C2374 C2377 1.403 . S
C2375 C2372 1.403 . S
C2375 C2376 1.524 . S
C2375 C2379 1.400 . S
C2376 H2361 0.960 . S
C2376 H2362 0.960 . S
C2376 H2363 0.960 . S
C2376 C2375 1.524 . S
C2377 C2374 1.403 . S
C2377 C2378 1.392 . S
C2377 C2381 1.495 . S
C2378 C2377 1.392 . S
C2378 C2379 1.385 . S
C2378 C2380 1.478 . S
C2379 H2373 0.930 . S
C2379 C2375 1.400 . S
C2379 C2378 1.385 . S
C2380 C2378 1.478 . S
C2380 C2382 1.381 . S
C2380 C2386 1.383 . S
C2381 C2377 1.495 . S
C2381 H2387 0.959 . S
C2381 H2388 0.961 . S
C2381 H2389 0.960 . S
C2382 C2380 1.381 . S
C2382 C2383 1.394 . S
C2382 H2390 0.930 . S
C2383 C2382 1.394 . S
C2383 C2384 1.383 . S
C2383 H2391 0.929 . S
C2384 C2383 1.383 . S
C2384 C2385 1.377 . S
C2385 H2369 0.930 . S
C2385 C2384 1.377 . S
C2385 C2386 1.379 . S
C2386 H2370 0.931 . S
C2386 C2380 1.383 . S
C2386 C2385 1.379 . S
H2387 C2381 0.959 . S
H2388 C2381 0.961 . S
H2389 C2381 0.960 . S
H2390 C2382 0.930 . S
H2391 C2383 0.929 . S
H2392 C2400 0.929 . S
H2393 C2402 0.930 . S
H2394 C2404 0.930 . S
H2395 C2407 0.929 . S
H2396 C2410 0.930 . S
H2397 C2412 0.960 . S
H2398 C2412 0.960 . S
H2399 C2412 0.960 . S
C2400 H2392 0.929 . S
C2400 C2401 1.377 . S
C2400 C2402 1.384 . S
C2401 C2400 1.377 . S
C2401 C2407 1.390 . S
C2402 H2393 0.930 . S
C2402 C2400 1.384 . S
C2402 C2403 1.372 . S
C2403 C2402 1.372 . S
C2403 C2404 1.400 . S
C2403 C2408 1.490 . S
C2404 H2394 0.930 . S
C2404 C2403 1.400 . S
C2404 C2407 1.386 . S
H2405 C2421 0.930 . S
H2406 C2422 0.931 . S
C2407 H2395 0.929 . S
C2407 C2401 1.390 . S
C2407 C2404 1.386 . S
C2408 C2403 1.490 . S
C2408 C2410 1.395 . S
C2408 C2411 1.403 . S
H2409 C2415 0.930 . S
C2410 H2396 0.930 . S
C2410 C2408 1.395 . S
C2410 C2413 1.403 . S
C2411 C2408 1.403 . S
C2411 C2412 1.524 . S
C2411 C2415 1.400 . S
C2412 H2397 0.960 . S
C2412 H2398 0.960 . S
C2412 H2399 0.960 . S
C2412 C2411 1.524 . S
C2413 C2410 1.403 . S
C2413 C2414 1.392 . S
C2413 C2417 1.495 . S
C2414 C2413 1.392 . S
C2414 C2415 1.385 . S
C2414 C2416 1.478 . S
C2415 H2409 0.930 . S
C2415 C2411 1.400 . S
C2415 C2414 1.385 . S
C2416 C2414 1.478 . S
C2416 C2418 1.381 . S
C2416 C2422 1.383 . S
C2417 C2413 1.495 . S
C2417 H2423 0.959 . S
C2417 H2424 0.961 . S
C2417 H2425 0.960 . S
C2418 C2416 1.381 . S
C2418 C2419 1.394 . S
C2418 H2426 0.930 . S
C2419 C2418 1.394 . S
C2419 C2420 1.383 . S
C2419 H2427 0.929 . S
C2420 C2419 1.383 . S
C2420 C2421 1.377 . S
C2421 H2405 0.930 . S
C2421 C2420 1.377 . S
C2421 C2422 1.379 . S
C2422 H2406 0.931 . S
C2422 C2416 1.383 . S
C2422 C2421 1.379 . S
H2423 C2417 0.959 . S
H2424 C2417 0.961 . S
H2425 C2417 0.960 . S
H2426 C2418 0.930 . S
H2427 C2419 0.929 . S
H2428 C2436 0.929 . S
H2429 C2438 0.930 . S
H2430 C2440 0.930 . S
H2431 C2443 0.929 . S
H2432 C2446 0.930 . S
H2433 C2448 0.960 . S
H2434 C2448 0.960 . S
H2435 C2448 0.960 . S
C2436 H2428 0.929 . S
C2436 C2437 1.377 . S
C2436 C2438 1.384 . S
C2437 C2436 1.377 . S
C2437 C2443 1.390 . S
C2438 H2429 0.930 . S
C2438 C2436 1.384 . S
C2438 C2439 1.372 . S
C2439 C2438 1.372 . S
C2439 C2440 1.400 . S
C2439 C2444 1.490 . S
C2440 H2430 0.930 . S
C2440 C2439 1.400 . S
C2440 C2443 1.386 . S
H2441 C2457 0.930 . S
H2442 C2458 0.931 . S
C2443 H2431 0.929 . S
C2443 C2437 1.390 . S
C2443 C2440 1.386 . S
C2444 C2439 1.490 . S
C2444 C2446 1.395 1_554 S
C2444 C2447 1.403 . S
H2445 C2451 0.930 . S
C2446 H2432 0.930 . S
C2446 C2444 1.395 1_556 S
C2446 C2449 1.403 . S
C2447 C2444 1.403 . S
C2447 C2448 1.524 . S
C2447 C2451 1.400 . S
C2448 H2433 0.960 . S
C2448 H2434 0.960 . S
C2448 H2435 0.960 . S
C2448 C2447 1.524 . S
C2449 C2446 1.403 . S
C2449 C2450 1.392 . S
C2449 C2453 1.495 . S
C2450 C2449 1.392 . S
C2450 C2451 1.385 1_556 S
C2450 C2452 1.478 . S
C2451 H2445 0.930 . S
C2451 C2447 1.400 . S
C2451 C2450 1.385 1_554 S
C2452 C2450 1.478 . S
C2452 C2454 1.381 . S
C2452 C2458 1.383 . S
C2453 C2449 1.495 . S
C2453 H2459 0.959 . S
C2453 H2460 0.961 . S
C2453 H2461 0.960 . S
C2454 C2452 1.381 . S
C2454 C2455 1.394 . S
C2454 H2462 0.930 . S
C2455 C2454 1.394 . S
C2455 C2456 1.383 . S
C2455 H2463 0.929 . S
C2456 C2455 1.383 . S
C2456 C2457 1.377 . S
C2457 H2441 0.930 . S
C2457 C2456 1.377 . S
C2457 C2458 1.379 . S
C2458 H2442 0.931 . S
C2458 C2452 1.383 . S
C2458 C2457 1.379 . S
H2459 C2453 0.959 . S
H2460 C2453 0.961 . S
H2461 C2453 0.960 . S
H2462 C2454 0.930 . S
H2463 C2455 0.929 . S
H2464 C2472 0.929 . S
H2465 C2474 0.930 . S
H2466 C2476 0.930 . S
H2467 C2479 0.929 . S
H2468 C2482 0.930 . S
H2469 C2484 0.960 . S
H2470 C2484 0.960 . S
H2471 C2484 0.960 . S
C2472 H2464 0.929 . S
C2472 C2473 1.377 . S
C2472 C2474 1.384 . S
C2473 C2472 1.377 . S
C2473 C2479 1.390 . S
C2474 H2465 0.930 . S
C2474 C2472 1.384 . S
C2474 C2475 1.372 . S
C2475 C2474 1.372 . S
C2475 C2476 1.400 . S
C2475 C2480 1.490 . S
C2476 H2466 0.930 . S
C2476 C2475 1.400 . S
C2476 C2479 1.386 . S
H2477 C2493 0.930 . S
H2478 C2494 0.931 . S
C2479 H2467 0.929 . S
C2479 C2473 1.390 . S
C2479 C2476 1.386 . S
C2480 C2475 1.490 . S
C2480 C2482 1.395 . S
C2480 C2483 1.403 . S
H2481 C2487 0.930 . S
C2482 H2468 0.930 . S
C2482 C2480 1.395 . S
C2482 C2485 1.403 1_565 S
C2483 C2480 1.403 . S
C2483 C2484 1.524 . S
C2483 C2487 1.400 1_565 S
C2484 H2469 0.960 . S
C2484 H2470 0.960 . S
C2484 H2471 0.960 . S
C2484 C2483 1.524 . S
C2485 C2482 1.403 1_545 S
C2485 C2486 1.392 . S
C2485 C2489 1.495 . S
C2486 C2485 1.392 . S
C2486 C2487 1.385 . S
C2486 C2488 1.478 . S
C2487 H2481 0.930 . S
C2487 C2483 1.400 1_545 S
C2487 C2486 1.385 . S
C2488 C2486 1.478 . S
C2488 C2490 1.381 . S
C2488 C2494 1.383 . S
C2489 C2485 1.495 . S
C2489 H2495 0.959 . S
C2489 H2496 0.961 . S
C2489 H2497 0.960 . S
C2490 C2488 1.381 . S
C2490 C2491 1.394 . S
C2490 H2498 0.930 . S
C2491 C2490 1.394 . S
C2491 C2492 1.383 . S
C2491 H2499 0.929 . S
C2492 C2491 1.383 . S
C2492 C2493 1.377 . S
C2493 H2477 0.930 . S
C2493 C2492 1.377 . S
C2493 C2494 1.379 . S
C2494 H2478 0.931 . S
C2494 C2488 1.383 . S
C2494 C2493 1.379 . S
H2495 C2489 0.959 . S
H2496 C2489 0.961 . S
H2497 C2489 0.960 . S
H2498 C2490 0.930 . S
H2499 C2491 0.929 . S
H2500 C2508 0.929 1_556 S
H2501 C2510 0.930 . S
H2502 C2512 0.930 . S
H2503 C2515 0.929 . S
H2504 C2518 0.930 . S
H2505 C2520 0.960 . S
H2506 C2520 0.960 . S
H2507 C2520 0.960 . S
C2508 H2500 0.929 1_554 S
C2508 C2509 1.377 . S
C2508 C2510 1.384 1_554 S
C2509 C2508 1.377 . S
C2509 C2515 1.390 . S
C2510 H2501 0.930 . S
C2510 C2508 1.384 1_556 S
C2510 C2511 1.372 1_556 S
C2511 C2510 1.372 1_554 S
C2511 C2512 1.400 . S
C2511 C2516 1.490 . S
C2512 H2502 0.930 . S
C2512 C2511 1.400 . S
C2512 C2515 1.386 . S
H2513 C2529 0.930 1_554 S
H2514 C2530 0.931 . S
C2515 H2503 0.929 . S
C2515 C2509 1.390 . S
C2515 C2512 1.386 . S
C2516 C2511 1.490 . S
C2516 C2518 1.395 1_554 S
C2516 C2519 1.403 . S
H2517 C2523 0.930 . S
C2518 H2504 0.930 . S
C2518 C2516 1.395 1_556 S
C2518 C2521 1.403 . S
C2519 C2516 1.403 . S
C2519 C2520 1.524 . S
C2519 C2523 1.400 . S
C2520 H2505 0.960 . S
C2520 H2506 0.960 . S
C2520 H2507 0.960 . S
C2520 C2519 1.524 . S
C2521 C2518 1.403 . S
C2521 C2522 1.392 . S
C2521 C2525 1.495 . S
C2522 C2521 1.392 . S
C2522 C2523 1.385 1_556 S
C2522 C2524 1.478 . S
C2523 H2517 0.930 . S
C2523 C2519 1.400 . S
C2523 C2522 1.385 1_554 S
C2524 C2522 1.478 . S
C2524 C2526 1.381 . S
C2524 C2530 1.383 1_556 S
C2525 C2521 1.495 . S
C2525 H2531 0.959 . S
C2525 H2532 0.961 . S
C2525 H2533 0.960 . S
C2526 C2524 1.381 . S
C2526 C2527 1.394 . S
C2526 H2534 0.930 . S
C2527 C2526 1.394 . S
C2527 C2528 1.383 . S
C2527 H2535 0.929 . S
C2528 C2527 1.383 . S
C2528 C2529 1.377 . S
C2529 H2513 0.930 1_556 S
C2529 C2528 1.377 . S
C2529 C2530 1.379 1_556 S
C2530 H2514 0.931 . S
C2530 C2524 1.383 1_554 S
C2530 C2529 1.379 1_554 S
H2531 C2525 0.959 . S
H2532 C2525 0.961 . S
H2533 C2525 0.960 . S
H2534 C2526 0.930 . S
H2535 C2527 0.929 . S
H2536 C2544 0.929 . S
H2537 C2546 0.930 . S
H2538 C2548 0.930 . S
H2539 C2551 0.929 . S
H2540 C2554 0.930 . S
H2541 C2556 0.960 . S
H2542 C2556 0.960 . S
H2543 C2556 0.960 . S
C2544 H2536 0.929 . S
C2544 C2545 1.377 . S
C2544 C2546 1.384 . S
C2545 C2544 1.377 . S
C2545 C2551 1.390 . S
C2546 H2537 0.930 . S
C2546 C2544 1.384 . S
C2546 C2547 1.372 . S
C2547 C2546 1.372 . S
C2547 C2548 1.400 . S
C2547 C2552 1.490 . S
C2548 H2538 0.930 . S
C2548 C2547 1.400 . S
C2548 C2551 1.386 . S
H2549 C2565 0.930 . S
H2550 C2566 0.931 . S
C2551 H2539 0.929 . S
C2551 C2545 1.390 . S
C2551 C2548 1.386 . S
C2552 C2547 1.490 . S
C2552 C2554 1.395 . S
C2552 C2555 1.403 . S
H2553 C2559 0.930 . S
C2554 H2540 0.930 . S
C2554 C2552 1.395 . S
C2554 C2557 1.403 1_545 S
C2555 C2552 1.403 . S
C2555 C2556 1.524 . S
C2555 C2559 1.400 1_545 S
C2556 H2541 0.960 . S
C2556 H2542 0.960 . S
C2556 H2543 0.960 . S
C2556 C2555 1.524 . S
C2557 C2554 1.403 1_565 S
C2557 C2558 1.392 . S
C2557 C2561 1.495 . S
C2558 C2557 1.392 . S
C2558 C2559 1.385 . S
C2558 C2560 1.478 . S
C2559 H2553 0.930 . S
C2559 C2555 1.400 1_565 S
C2559 C2558 1.385 . S
C2560 C2558 1.478 . S
C2560 C2562 1.381 . S
C2560 C2566 1.383 . S
C2561 C2557 1.495 . S
C2561 H2567 0.959 . S
C2561 H2568 0.961 . S
C2561 H2569 0.960 . S
C2562 C2560 1.381 . S
C2562 C2563 1.394 . S
C2562 H2570 0.930 . S
C2563 C2562 1.394 . S
C2563 C2564 1.383 . S
C2563 H2571 0.929 . S
C2564 C2563 1.383 . S
C2564 C2565 1.377 . S
C2565 H2549 0.930 . S
C2565 C2564 1.377 . S
C2565 C2566 1.379 . S
C2566 H2550 0.931 . S
C2566 C2560 1.383 . S
C2566 C2565 1.379 . S
H2567 C2561 0.959 . S
H2568 C2561 0.961 . S
H2569 C2561 0.960 . S
H2570 C2562 0.930 . S
H2571 C2563 0.929 . S
H2572 C2580 0.929 . S
H2573 C2582 0.930 . S
H2574 C2584 0.930 . S
H2575 C2587 0.929 . S
H2576 C2590 0.930 . S
H2577 C2592 0.960 . S
H2578 C2592 0.960 . S
H2579 C2592 0.960 . S
C2580 H2572 0.929 . S
C2580 C2581 1.377 . S
C2580 C2582 1.384 . S
C2581 C2580 1.377 . S
C2581 C2587 1.390 . S
C2582 H2573 0.930 . S
C2582 C2580 1.384 . S
C2582 C2583 1.372 . S
C2583 C2582 1.372 . S
C2583 C2584 1.400 . S
C2583 C2588 1.490 . S
C2584 H2574 0.930 . S
C2584 C2583 1.400 . S
C2584 C2587 1.386 . S
H2585 C2601 0.930 . S
H2586 C2602 0.931 . S
C2587 H2575 0.929 . S
C2587 C2581 1.390 . S
C2587 C2584 1.386 . S
C2588 C2583 1.490 . S
C2588 C2590 1.395 . S
C2588 C2591 1.403 . S
H2589 C2595 0.930 . S
C2590 H2576 0.930 . S
C2590 C2588 1.395 . S
C2590 C2593 1.403 . S
C2591 C2588 1.403 . S
C2591 C2592 1.524 . S
C2591 C2595 1.400 . S
C2592 H2577 0.960 . S
C2592 H2578 0.960 . S
C2592 H2579 0.960 . S
C2592 C2591 1.524 . S
C2593 C2590 1.403 . S
C2593 C2594 1.392 . S
C2593 C2597 1.495 . S
C2594 C2593 1.392 . S
C2594 C2595 1.385 . S
C2594 C2596 1.478 . S
C2595 H2589 0.930 . S
C2595 C2591 1.400 . S
C2595 C2594 1.385 . S
C2596 C2594 1.478 . S
C2596 C2598 1.381 . S
C2596 C2602 1.383 . S
C2597 C2593 1.495 . S
C2597 H2603 0.959 . S
C2597 H2604 0.961 . S
C2597 H2605 0.960 . S
C2598 C2596 1.381 . S
C2598 C2599 1.394 . S
C2598 H2606 0.930 . S
C2599 C2598 1.394 . S
C2599 C2600 1.383 . S
C2599 H2607 0.929 . S
C2600 C2599 1.383 . S
C2600 C2601 1.377 . S
C2601 H2585 0.930 . S
C2601 C2600 1.377 . S
C2601 C2602 1.379 . S
C2602 H2586 0.931 . S
C2602 C2596 1.383 . S
C2602 C2601 1.379 . S
H2603 C2597 0.959 . S
H2604 C2597 0.961 . S
H2605 C2597 0.960 . S
H2606 C2598 0.930 . S
H2607 C2599 0.929 . S
H2608 C2616 0.929 . S
H2609 C2618 0.930 . S
H2610 C2620 0.930 . S
H2611 C2623 0.929 . S
H2612 C2626 0.930 . S
H2613 C2628 0.960 . S
H2614 C2628 0.960 . S
H2615 C2628 0.960 . S
C2616 H2608 0.929 . S
C2616 C2617 1.377 . S
C2616 C2618 1.384 . S
C2617 C2616 1.377 . S
C2617 C2623 1.390 . S
C2618 H2609 0.930 . S
C2618 C2616 1.384 . S
C2618 C2619 1.372 . S
C2619 C2618 1.372 . S
C2619 C2620 1.400 . S
C2619 C2624 1.490 . S
C2620 H2610 0.930 . S
C2620 C2619 1.400 . S
C2620 C2623 1.386 . S
H2621 C2637 0.930 . S
H2622 C2638 0.931 . S
C2623 H2611 0.929 . S
C2623 C2617 1.390 . S
C2623 C2620 1.386 . S
C2624 C2619 1.490 . S
C2624 C2626 1.395 . S
C2624 C2627 1.403 . S
H2625 C2631 0.930 . S
C2626 H2612 0.930 . S
C2626 C2624 1.395 . S
C2626 C2629 1.403 1_545 S
C2627 C2624 1.403 . S
C2627 C2628 1.524 . S
C2627 C2631 1.400 1_545 S
C2628 H2613 0.960 . S
C2628 H2614 0.960 . S
C2628 H2615 0.960 . S
C2628 C2627 1.524 . S
C2629 C2626 1.403 1_565 S
C2629 C2630 1.392 . S
C2629 C2633 1.495 . S
C2630 C2629 1.392 . S
C2630 C2631 1.385 . S
C2630 C2632 1.478 . S
C2631 H2625 0.930 . S
C2631 C2627 1.400 1_565 S
C2631 C2630 1.385 . S
C2632 C2630 1.478 . S
C2632 C2634 1.381 . S
C2632 C2638 1.383 . S
C2633 C2629 1.495 . S
C2633 H2639 0.959 . S
C2633 H2640 0.961 . S
C2633 H2641 0.960 . S
C2634 C2632 1.381 . S
C2634 C2635 1.394 . S
C2634 H2642 0.930 . S
C2635 C2634 1.394 . S
C2635 C2636 1.383 . S
C2635 H2643 0.929 . S
C2636 C2635 1.383 . S
C2636 C2637 1.377 . S
C2637 H2621 0.930 . S
C2637 C2636 1.377 . S
C2637 C2638 1.379 . S
C2638 H2622 0.931 . S
C2638 C2632 1.383 . S
C2638 C2637 1.379 . S
H2639 C2633 0.959 . S
H2640 C2633 0.961 . S
H2641 C2633 0.960 . S
H2642 C2634 0.930 . S
H2643 C2635 0.929 . S
H2644 C2652 0.929 . S
H2645 C2654 0.930 . S
H2646 C2656 0.930 . S
H2647 C2659 0.929 . S
H2648 C2662 0.930 . S
H2649 C2664 0.960 . S
H2650 C2664 0.960 . S
H2651 C2664 0.960 . S
C2652 H2644 0.929 . S
C2652 C2653 1.377 . S
C2652 C2654 1.384 . S
C2653 C2652 1.377 . S
C2653 C2659 1.390 . S
C2654 H2645 0.930 . S
C2654 C2652 1.384 . S
C2654 C2655 1.372 . S
C2655 C2654 1.372 . S
C2655 C2656 1.400 . S
C2655 C2660 1.490 . S
C2656 H2646 0.930 . S
C2656 C2655 1.400 . S
C2656 C2659 1.386 . S
H2657 C2673 0.930 . S
H2658 C2674 0.931 . S
C2659 H2647 0.929 . S
C2659 C2653 1.390 . S
C2659 C2656 1.386 . S
C2660 C2655 1.490 . S
C2660 C2662 1.395 . S
C2660 C2663 1.403 1_554 S
H2661 C2667 0.930 . S
C2662 H2648 0.930 . S
C2662 C2660 1.395 . S
C2662 C2665 1.403 . S
C2663 C2660 1.403 1_556 S
C2663 C2664 1.524 . S
C2663 C2667 1.400 . S
C2664 H2649 0.960 . S
C2664 H2650 0.960 . S
C2664 H2651 0.960 . S
C2664 C2663 1.524 . S
C2665 C2662 1.403 . S
C2665 C2666 1.392 1_554 S
C2665 C2669 1.495 . S
C2666 C2665 1.392 1_556 S
C2666 C2667 1.385 . S
C2666 C2668 1.478 . S
C2667 H2661 0.930 . S
C2667 C2663 1.400 . S
C2667 C2666 1.385 . S
C2668 C2666 1.478 . S
C2668 C2670 1.381 . S
C2668 C2674 1.383 . S
C2669 C2665 1.495 . S
C2669 H2675 0.959 . S
C2669 H2676 0.961 . S
C2669 H2677 0.960 . S
C2670 C2668 1.381 . S
C2670 C2671 1.394 . S
C2670 H2678 0.930 . S
C2671 C2670 1.394 . S
C2671 C2672 1.383 . S
C2671 H2679 0.929 . S
C2672 C2671 1.383 . S
C2672 C2673 1.377 . S
C2673 H2657 0.930 . S
C2673 C2672 1.377 . S
C2673 C2674 1.379 . S
C2674 H2658 0.931 . S
C2674 C2668 1.383 . S
C2674 C2673 1.379 . S
H2675 C2669 0.959 . S
H2676 C2669 0.961 . S
H2677 C2669 0.960 . S
H2678 C2670 0.930 . S
H2679 C2671 0.929 . S
H2680 C2688 0.929 . S
H2681 C2690 0.930 . S
H2682 C2692 0.930 . S
H2683 C2695 0.929 . S
H2684 C2698 0.930 . S
H2685 C2700 0.960 . S
H2686 C2700 0.960 . S
H2687 C2700 0.960 . S
C2688 H2680 0.929 . S
C2688 C2689 1.377 . S
C2688 C2690 1.384 . S
C2689 C2688 1.377 . S
C2689 C2695 1.390 . S
C2690 H2681 0.930 . S
C2690 C2688 1.384 . S
C2690 C2691 1.372 . S
C2691 C2690 1.372 . S
C2691 C2692 1.400 . S
C2691 C2696 1.490 . S
C2692 H2682 0.930 . S
C2692 C2691 1.400 . S
C2692 C2695 1.386 . S
H2693 C2709 0.930 . S
H2694 C2710 0.931 . S
C2695 H2683 0.929 . S
C2695 C2689 1.390 . S
C2695 C2692 1.386 . S
C2696 C2691 1.490 . S
C2696 C2698 1.395 . S
C2696 C2699 1.403 . S
H2697 C2703 0.930 . S
C2698 H2684 0.930 . S
C2698 C2696 1.395 . S
C2698 C2701 1.403 1_545 S
C2699 C2696 1.403 . S
C2699 C2700 1.524 . S
C2699 C2703 1.400 1_545 S
C2700 H2685 0.960 . S
C2700 H2686 0.960 . S
C2700 H2687 0.960 . S
C2700 C2699 1.524 . S
C2701 C2698 1.403 1_565 S
C2701 C2702 1.392 . S
C2701 C2705 1.495 . S
C2702 C2701 1.392 . S
C2702 C2703 1.385 . S
C2702 C2704 1.478 . S
C2703 H2697 0.930 . S
C2703 C2699 1.400 1_565 S
C2703 C2702 1.385 . S
C2704 C2702 1.478 . S
C2704 C2706 1.381 . S
C2704 C2710 1.383 . S
C2705 C2701 1.495 . S
C2705 H2711 0.959 1_455 S
C2705 H2712 0.961 . S
C2705 H2713 0.960 . S
C2706 C2704 1.381 . S
C2706 C2707 1.394 . S
C2706 H2714 0.930 . S
C2707 C2706 1.394 . S
C2707 C2708 1.383 . S
C2707 H2715 0.929 . S
C2708 C2707 1.383 . S
C2708 C2709 1.377 . S
C2709 H2693 0.930 . S
C2709 C2708 1.377 . S
C2709 C2710 1.379 . S
C2710 H2694 0.931 . S
C2710 C2704 1.383 . S
C2710 C2709 1.379 . S
H2711 C2705 0.959 1_655 S
H2712 C2705 0.961 . S
H2713 C2705 0.960 . S
H2714 C2706 0.930 . S
H2715 C2707 0.929 . S
H2716 C2724 0.929 . S
H2717 C2726 0.930 . S
H2718 C2728 0.930 . S
H2719 C2731 0.929 . S
H2720 C2734 0.930 . S
H2721 C2736 0.960 . S
H2722 C2736 0.960 . S
H2723 C2736 0.960 . S
C2724 H2716 0.929 . S
C2724 C2725 1.377 . S
C2724 C2726 1.384 . S
C2725 C2724 1.377 . S
C2725 C2731 1.390 . S
C2726 H2717 0.930 . S
C2726 C2724 1.384 . S
C2726 C2727 1.372 . S
C2727 C2726 1.372 . S
C2727 C2728 1.400 . S
C2727 C2732 1.490 . S
C2728 H2718 0.930 . S
C2728 C2727 1.400 . S
C2728 C2731 1.386 . S
H2729 C2745 0.930 . S
H2730 C2746 0.931 . S
C2731 H2719 0.929 . S
C2731 C2725 1.390 . S
C2731 C2728 1.386 . S
C2732 C2727 1.490 . S
C2732 C2734 1.395 . S
C2732 C2735 1.403 . S
H2733 C2739 0.930 . S
C2734 H2720 0.930 . S
C2734 C2732 1.395 . S
C2734 C2737 1.403 . S
C2735 C2732 1.403 . S
C2735 C2736 1.524 . S
C2735 C2739 1.400 . S
C2736 H2721 0.960 . S
C2736 H2722 0.960 . S
C2736 H2723 0.960 . S
C2736 C2735 1.524 . S
C2737 C2734 1.403 . S
C2737 C2738 1.392 . S
C2737 C2741 1.495 . S
C2738 C2737 1.392 . S
C2738 C2739 1.385 . S
C2738 C2740 1.478 . S
C2739 H2733 0.930 . S
C2739 C2735 1.400 . S
C2739 C2738 1.385 . S
C2740 C2738 1.478 . S
C2740 C2742 1.381 . S
C2740 C2746 1.383 . S
C2741 C2737 1.495 . S
C2741 H2747 0.959 . S
C2741 H2748 0.961 . S
C2741 H2749 0.960 . S
C2742 C2740 1.381 . S
C2742 C2743 1.394 . S
C2742 H2750 0.930 . S
C2743 C2742 1.394 . S
C2743 C2744 1.383 . S
C2743 H2751 0.929 . S
C2744 C2743 1.383 . S
C2744 C2745 1.377 . S
C2745 H2729 0.930 . S
C2745 C2744 1.377 . S
C2745 C2746 1.379 . S
C2746 H2730 0.931 . S
C2746 C2740 1.383 . S
C2746 C2745 1.379 . S
H2747 C2741 0.959 . S
H2748 C2741 0.961 . S
H2749 C2741 0.960 . S
H2750 C2742 0.930 . S
H2751 C2743 0.929 . S
C457 C7 1.023 . S
C476 C301 1.010 . S
C493 C315 1.015 . S
C512 C21 0.995 . S
C529 C35 1.018 . S
C548 C329 0.988 . S
C565 C287 1.013 . S
C584 C49 1.008 . S
C601 C63 1.014 . S
C620 C273 0.999 . S
C637 C77 1.013 . S
C656 C231 1.040 . S
C673 C245 1.019 . S
C692 C91 1.038 . S
C709 C105 1.022 . S
C728 C259 0.990 . S
C745 C119 1.023 . S
C764 C413 1.007 . S
C781 C133 1.015 . S
C800 C427 1.044 . S
C817 C441 1.016 . S
C836 C147 1.041 . S
C853 C399 1.019 . S
C872 C161 1.031 . S
C889 C175 1.017 . S
C908 C385 0.993 . S
C925 C343 1.023 . S
C944 C189 1.000 . S
C961 C203 1.019 . S
C980 C357 1.033 . S
C997 C371 1.023 . S
C1016 C217 0.990 . S
C1033 C9 1.490 . S
C1052 C134 1.510 . S
C1069 C23 1.496 . S
C1088 C372 1.523 . S
C1105 C162 1.516 . S
C1124 C37 1.500 . S
C1141 C51 1.490 . S
C1160 C344 1.511 . S
C1177 C65 1.490 . S
C1196 C218 1.507 . S
C1213 C400 1.511 . S
C1232 C79 1.501 . S
C1249 C190 1.516 . S
C1268 C93 1.485 . S
C1285 C428 1.514 . S
C1304 C107 1.471 . S
C1321 C121 1.495 . S
C1340 C22 1.501 . S
C1357 C260 1.511 . S
C1376 C135 1.497 . S
C1393 C50 1.516 . S
C1412 C149 1.472 . S
C1429 C163 1.492 . S
C1448 C232 1.522 . S
C1465 C106 1.516 . S
C1484 C177 1.470 . S
C1501 C288 1.515 . S
C1520 C191 1.471 . S
C1537 C78 1.516 . S
C1556 C205 1.472 . S
C1573 C219 1.497 . S
C1592 C316 1.497 . S
C1609 C358 1.516 . S
C1628 C233 1.501 . S
C1645 C148 1.514 . S
C1664 C247 1.470 . S
C1681 C386 1.515 . S
C1700 C261 1.475 . S
C1717 C275 1.491 . S
C1736 C120 1.500 . S
C1753 C442 1.516 . S
C1772 C289 1.489 . S
C1789 C176 1.516 . S
C1808 C303 1.500 . S
C1825 C414 1.511 . S
C1844 C317 1.492 . S
C1861 C331 1.492 . S
C1880 C204 1.523 . S
C1897 C345 1.498 . S
C1916 C246 1.497 . S
C1933 C36 1.511 . S
C1952 C359 1.511 . S
C1969 C373 1.496 . S
C1988 C274 1.511 . S
C2005 C387 1.492 . S
C2024 C8 1.522 . S
C2041 C401 1.498 . S
C2060 C330 1.502 . S
C2077 C64 1.511 . S
C2096 C415 1.511 . S
C2113 C302 1.513 . S
C2132 C429 1.503 . S
C2149 C443 1.492 . S
C2168 C92 1.521 . S
C2185 C6 1.344 . S
C2204 C62 1.330 . S
C2221 C20 1.345 . S
C2240 C76 1.351 . S
C2257 C90 1.346 . S
C2276 C34 1.333 . S
C2293 C104 1.343 . S
C2312 C48 1.336 . S
C2329 C174 1.348 . S
C2348 C118 1.330 . S
C2365 C188 1.346 . S
C2384 C132 1.337 . S
C2401 C202 1.347 . S
C2420 C146 1.336 . S
C2437 C216 1.346 . S
C2456 C160 1.339 . S
C2473 C230 1.344 . S
C2492 C286 1.329 . S
C2509 C244 1.344 . S
C2528 C300 1.350 . S
C2545 C258 1.347 . S
C2564 C314 1.342 . S
C2581 C328 1.345 . S
C2600 C272 1.331 . S
C2617 C342 1.344 . S
C2636 C398 1.350 . S
C2653 C412 1.344 . S
C2672 C356 1.347 . S
C2689 C426 1.343 . S
C2708 C370 1.352 . S
C2725 C440 1.346 . S
C2744 C384 1.339 . S
