# Generated by pormake.
# Topology ukt, (4)-cn, num edge types: 1
# Building blocks:
#     Node 0, Type 0, BuildingBlock: GALJAG_clean_sbu_0, # of connection points: 4
#     Node 1, Type 0, BuildingBlock: GALJAG_clean_sbu_0, # of connection points: 4
#     Node 2, Type 0, BuildingBlock: GALJAG_clean_sbu_0, # of connection points: 4
#     Node 3, Type 0, BuildingBlock: GALJAG_clean_sbu_0, # of connection points: 4
#     Node 4, Type 0, BuildingBlock: GALJAG_clean_sbu_0, # of connection points: 4
#     Node 5, Type 0, BuildingBlock: GALJAG_clean_sbu_0, # of connection points: 4
#     Node 6, Type 0, BuildingBlock: GALJAG_clean_sbu_0, # of connection points: 4
#     Node 7, Type 0, BuildingBlock: GALJAG_clean_sbu_0, # of connection points: 4
#     Node 8, Type 0, BuildingBlock: GALJAG_clean_sbu_0, # of connection points: 4
#     Node 9, Type 0, BuildingBlock: GALJAG_clean_sbu_0, # of connection points: 4
#     Node 10, Type 0, BuildingBlock: GALJAG_clean_sbu_0, # of connection points: 4
#     Node 11, Type 0, BuildingBlock: GALJAG_clean_sbu_0, # of connection points: 4
#     Node 12, Type 0, BuildingBlock: GALJAG_clean_sbu_0, # of connection points: 4
#     Node 13, Type 0, BuildingBlock: GALJAG_clean_sbu_0, # of connection points: 4
#     Node 14, Type 0, BuildingBlock: GALJAG_clean_sbu_0, # of connection points: 4
#     Node 15, Type 0, BuildingBlock: GALJAG_clean_sbu_0, # of connection points: 4
#     Edge 16, Type (0, 0), BuildingBlock: TEMPAE_clean_linker_10, # of connection points: 2
#     Edge 17, Type (0, 0), BuildingBlock: TEMPAE_clean_linker_10, # of connection points: 2
#     Edge 18, Type (0, 0), BuildingBlock: TEMPAE_clean_linker_10, # of connection points: 2
#     Edge 19, Type (0, 0), BuildingBlock: TEMPAE_clean_linker_10, # of connection points: 2
#     Edge 20, Type (0, 0), BuildingBlock: TEMPAE_clean_linker_10, # of connection points: 2
#     Edge 21, Type (0, 0), BuildingBlock: TEMPAE_clean_linker_10, # of connection points: 2
#     Edge 22, Type (0, 0), BuildingBlock: TEMPAE_clean_linker_10, # of connection points: 2
#     Edge 23, Type (0, 0), BuildingBlock: TEMPAE_clean_linker_10, # of connection points: 2
#     Edge 24, Type (0, 0), BuildingBlock: TEMPAE_clean_linker_10, # of connection points: 2
#     Edge 25, Type (0, 0), BuildingBlock: TEMPAE_clean_linker_10, # of connection points: 2
#     Edge 26, Type (0, 0), BuildingBlock: TEMPAE_clean_linker_10, # of connection points: 2
#     Edge 27, Type (0, 0), BuildingBlock: TEMPAE_clean_linker_10, # of connection points: 2
#     Edge 28, Type (0, 0), BuildingBlock: TEMPAE_clean_linker_10, # of connection points: 2
#     Edge 29, Type (0, 0), BuildingBlock: TEMPAE_clean_linker_10, # of connection points: 2
#     Edge 30, Type (0, 0), BuildingBlock: TEMPAE_clean_linker_10, # of connection points: 2
#     Edge 31, Type (0, 0), BuildingBlock: TEMPAE_clean_linker_10, # of connection points: 2
#     Edge 32, Type (0, 0), BuildingBlock: TEMPAE_clean_linker_10, # of connection points: 2
#     Edge 33, Type (0, 0), BuildingBlock: TEMPAE_clean_linker_10, # of connection points: 2
#     Edge 34, Type (0, 0), BuildingBlock: TEMPAE_clean_linker_10, # of connection points: 2
#     Edge 35, Type (0, 0), BuildingBlock: TEMPAE_clean_linker_10, # of connection points: 2
#     Edge 36, Type (0, 0), BuildingBlock: TEMPAE_clean_linker_10, # of connection points: 2
#     Edge 37, Type (0, 0), BuildingBlock: TEMPAE_clean_linker_10, # of connection points: 2
#     Edge 38, Type (0, 0), BuildingBlock: TEMPAE_clean_linker_10, # of connection points: 2
#     Edge 39, Type (0, 0), BuildingBlock: TEMPAE_clean_linker_10, # of connection points: 2
#     Edge 40, Type (0, 0), BuildingBlock: TEMPAE_clean_linker_10, # of connection points: 2
#     Edge 41, Type (0, 0), BuildingBlock: TEMPAE_clean_linker_10, # of connection points: 2
#     Edge 42, Type (0, 0), BuildingBlock: TEMPAE_clean_linker_10, # of connection points: 2
#     Edge 43, Type (0, 0), BuildingBlock: TEMPAE_clean_linker_10, # of connection points: 2
#     Edge 44, Type (0, 0), BuildingBlock: TEMPAE_clean_linker_10, # of connection points: 2
#     Edge 45, Type (0, 0), BuildingBlock: TEMPAE_clean_linker_10, # of connection points: 2
#     Edge 46, Type (0, 0), BuildingBlock: TEMPAE_clean_linker_10, # of connection points: 2
#     Edge 47, Type (0, 0), BuildingBlock: TEMPAE_clean_linker_10, # of connection points: 2
# Relax obj value: 0.210
# Max RMSD: 0.110
# Mean RMSD: 0.110
data_MOF--net-ukt--node1-GALJAG_clean_sbu_0--edge1-TEMPAE_clean_linker_10
_symmetry_space_group_name_H-M    P1
_symmetry_Int_Tables_number       1
_symmetry_cell_setting            triclinic
loop_
_symmetry_equiv_pos_as_xyz
'x, y, z'
_cell_length_a     42.58978
_cell_length_b     42.637815
_cell_length_c     34.887293
_cell_angle_alpha  90.026723
_cell_angle_beta   90.059472
_cell_angle_gamma 90.013037
loop_
_atom_site_label
_atom_site_type_symbol
_atom_site_fract_x
_atom_site_fract_y
_atom_site_fract_z
_atom_type_partial_charge
In0 In 0.5201 0.14996 0.05857 0.0
O1 O 0.57317 0.15513 0.06716 0.0
O2 O 0.55657 0.11685 0.03394 0.0
C3 C 0.50955 0.17432 0.12829 0.0
C4 C 0.48218 0.09948 0.05432 0.0
C5 C 0.51684 0.1961 0.00538 0.0
O6 O 0.53418 0.15922 0.1202 0.0
O7 O 0.48971 0.17633 0.10142 0.0
O8 O 0.51025 0.20027 0.04017 0.0
O9 O 0.52366 0.16821 0.99692 0.0
C10 C 0.5799 0.13124 0.04746 0.0
O11 O 0.47917 0.12268 0.03214 0.0
O12 O 0.50296 0.10276 0.0797 0.0
In13 In 0.32838 0.53228 0.0529 0.0
O14 O 0.33406 0.5853 0.06044 0.0
O15 O 0.34786 0.56485 0.00748 0.0
C16 C 0.30674 0.51613 0.12246 0.0
C17 C 0.38444 0.5037 0.04874 0.0
C18 C 0.27627 0.52629 0.01008 0.0
O19 O 0.32033 0.54191 0.11606 0.0
O20 O 0.30477 0.49802 0.09392 0.0
O21 O 0.29993 0.50888 0.00479 0.0
O22 O 0.27914 0.54597 0.03686 0.0
C23 C 0.34544 0.58941 0.02739 0.0
O24 O 0.36135 0.495 0.02854 0.0
O25 O 0.37853 0.52546 0.07208 0.0
In26 In 0.96095 0.35641 0.09588 0.0
O27 O 0.91071 0.37066 0.11061 0.0
O28 O 0.93065 0.38755 0.05862 0.0
C29 C 0.97735 0.32724 0.16123 0.0
C30 C -8e-05 0.40557 0.08969 0.0
C31 C 0.95157 0.30817 0.0474 0.0
O32 O 0.95406 0.34543 0.15901 0.0
O33 O 0.99284 0.32434 0.13062 0.0
O34 O 0.97665 0.32404 0.04671 0.0
O35 O 0.93212 0.31644 0.07263 0.0
C36 C 0.90704 0.3866 0.08039 0.0
O37 O 0.00011 0.38316 0.06597 0.0
O38 O 0.98134 0.40213 0.1175 0.0
In39 In 0.17027 0.96164 0.05248 0.0
O40 O 0.13232 0.99597 0.03192 0.0
O41 O 0.11872 0.95661 0.06543 0.0
C42 C 0.22014 0.97431 0.00799 0.0
C43 C 0.16246 0.90269 0.02674 0.0
C44 C 0.18858 0.97962 0.12299 0.0
O45 O 0.19368 0.98689 0.00201 0.0
O46 O 0.22128 0.95649 0.03681 0.0
O47 O 0.17898 0.9523 0.11552 0.0
O48 O 0.18827 -0.00164 0.09497 0.0
C49 C 0.11016 0.98011 0.04629 0.0
O50 O 0.17116 0.90842 0.06069 0.0
O51 O 0.15856 0.92658 0.006 0.0
In52 In 0.52555 0.34465 0.42641 0.0
O53 O 0.5767 0.35477 0.41154 0.0
O54 O 0.55547 0.38093 0.45667 0.0
C55 C 0.51557 0.31037 0.36259 0.0
C56 C 0.4855 0.39344 0.42742 0.0
C57 C 0.53093 0.30113 0.48219 0.0
O58 O 0.53693 0.33078 0.36488 0.0
O59 O 0.49896 0.30759 0.39227 0.0
O60 O 0.50453 0.30866 0.46849 0.0
O61 O 0.5539 0.31552 0.46795 0.0
C62 C 0.5798 0.37568 0.43702 0.0
O63 O 0.48763 0.37427 0.45486 0.0
O64 O 0.50209 0.38671 0.3987 0.0
In65 In 0.16973 0.53452 0.4387 0.0
O66 O 0.16836 0.588 0.43393 0.0
O67 O 0.15534 0.56692 0.48687 0.0
C68 C 0.18848 0.51824 0.36803 0.0
C69 C 0.11042 0.5136 0.44261 0.0
C70 C 0.2217 0.52282 0.47989 0.0
O71 O 0.17891 0.54545 0.37622 0.0
O72 O 0.18782 0.49882 0.39536 0.0
O73 O 0.19635 0.50819 0.48613 0.0
O74 O 0.22054 0.54241 0.45285 0.0
C75 C 0.15872 0.59183 0.46787 0.0
O76 O 0.1325 0.50004 0.46038 0.0
O77 O 0.11885 0.53601 0.42148 0.0
In78 In 0.97564 0.14829 0.44987 0.0
O79 O 0.0128 0.11984 0.48153 0.0
O80 O 0.00184 0.10692 0.42435 0.0
C81 C 0.96731 0.19278 0.50414 0.0
C82 C 0.92139 0.11651 0.45578 0.0
C83 C 0.98621 0.18216 0.38601 0.0
O84 O 0.99405 0.18687 0.49035 0.0
O85 O 0.94546 0.17609 0.49101 0.0
O86 O 0.96483 0.16178 0.38823 0.0
O87 O 0.00273 0.18504 0.41581 0.0
C88 C 0.01711 0.1008 0.45435 0.0
O89 O 0.92603 0.1368 0.42996 0.0
O90 O 0.94424 0.11221 0.47829 0.0
In91 In 0.32617 0.96164 0.43835 0.0
O92 O 0.32596 0.90843 0.42986 0.0
O93 O 0.34092 0.9267 0.48362 0.0
C94 C 0.30546 0.97972 0.36891 0.0
C95 C 0.38598 0.98154 0.44216 0.0
C96 C 0.27712 0.97252 0.48486 0.0
O97 O 0.31627 0.95272 0.3755 0.0
O98 O 0.30569 -0.00187 0.39727 0.0
O99 O 0.303 0.98667 0.48922 0.0
O100 O 0.2761 0.95404 0.45663 0.0
C101 C 0.3364 0.90279 0.46308 0.0
O102 O 0.36408 0.9959 0.45922 0.0
O103 O 0.37718 0.95891 0.42161 0.0
In104 In 0.43026 0.85092 0.88328 0.0
O105 O 0.41269 0.89785 0.86048 0.0
O106 O 0.37968 0.86089 0.86766 0.0
C107 C 0.46653 0.83003 0.8252 0.0
C108 C 0.44734 0.89116 0.93864 0.0
C109 C 0.41255 0.7969 0.91693 0.0
O110 O 0.43909 0.84036 0.82054 0.0
O111 O 0.47648 0.83164 0.85919 0.0
O112 O 0.43853 0.80991 0.92406 0.0
O113 O 0.39569 0.81109 0.89278 0.0
C114 C 0.38427 0.88942 0.85965 0.0
O115 O 0.42421 0.8729 0.94177 0.0
O116 O 0.46338 0.88759 0.90846 0.0
In117 In 0.64915 0.43578 0.91248 0.0
O118 O 0.61108 0.40415 0.88681 0.0
O119 O 0.64807 0.38297 0.91848 0.0
C120 C 0.67157 0.46437 0.84911 0.0
C121 C 0.60097 0.45968 0.9528 0.0
C122 C 0.70207 0.43094 0.95407 0.0
O123 O 0.65937 0.43744 0.84856 0.0
O124 O 0.67118 0.47759 0.88143 0.0
O125 O 0.68267 0.45296 0.9592 0.0
O126 O 0.6947 0.41175 0.92803 0.0
C127 C 0.62259 0.37929 0.90057 0.0
O128 O 0.61977 0.43973 0.96627 0.0
O129 O 0.60744 0.46905 0.91939 0.0
In130 In 0.05508 0.64295 0.90358 0.0
O131 O 0.10266 0.62986 0.8796 0.0
O132 O 0.0691 0.59333 0.88628 0.0
C133 C 0.01682 0.66462 0.84773 0.0
C134 C 0.03745 0.60771 0.96349 0.0
C135 C 0.08051 0.69584 0.93229 0.0
O136 O 0.04187 0.64992 0.84113 0.0
O137 O 0.01002 0.66691 0.88275 0.0
O138 O 0.05281 0.68738 0.93987 0.0
O139 O 0.09523 0.67773 0.91011 0.0
C140 C 0.09693 0.60082 0.87778 0.0
O141 O 0.06166 0.62468 0.96385 0.0
O142 O 0.02091 0.6099 0.93348 0.0
In143 In 0.84901 0.05739 0.92033 0.0
O144 O 0.87034 0.02646 0.96619 0.0
O145 O 0.8932 0.02826 0.91197 0.0
C146 C 0.7957 0.07465 0.95583 0.0
C147 C 0.88386 0.10957 0.92908 0.0
C148 C 0.82395 0.03201 0.85663 0.0
O149 O 0.81053 0.05012 0.96502 0.0
O150 O 0.80791 0.09033 0.92909 0.0
O151 O 0.84189 0.05562 0.85564 0.0
O152 O 0.82006 0.02034 0.88952 0.0
C153 C 0.89373 0.01858 0.94619 0.0
O154 O 0.87175 0.10259 0.89706 0.0
O155 O 0.8779 0.09066 0.95579 0.0
In156 In 0.43937 0.64207 0.58843 0.0
O157 O 0.43248 0.62231 0.52895 0.0
O158 O 0.4731 0.6078 0.55974 0.0
C159 C 0.41535 0.69494 0.55815 0.0
C160 C 0.39657 0.60097 0.61435 0.0
C161 C 0.47715 0.66435 0.64445 0.0
O162 O 0.44252 0.68519 0.55001 0.0
O163 O 0.40048 0.67811 0.58166 0.0
O164 O 0.45187 0.64998 0.6509 0.0
O165 O 0.48446 0.66596 0.60951 0.0
C166 C 0.45633 0.60487 0.53 0.0
O167 O 0.3909 0.62986 0.61021 0.0
O168 O 0.42474 0.59322 0.60823 0.0
In169 In 0.84508 0.4512 0.57372 0.0
O170 O 0.86946 0.47082 0.52118 0.0
O171 O 0.88916 0.4817 0.57546 0.0
C172 C 0.78911 0.44032 0.54072 0.0
C173 C 0.87488 0.39551 0.57292 0.0
C174 C 0.82244 0.47675 0.63854 0.0
O175 O 0.80548 0.46409 0.53243 0.0
O176 O 0.80102 0.42238 0.56554 0.0
O177 O 0.83712 0.45104 0.63789 0.0
O178 O 0.82056 0.49052 0.60657 0.0
C179 C 0.89171 0.48323 0.53949 0.0
O180 O 0.87488 0.41284 0.60229 0.0
O181 O 0.85933 0.40602 0.54501 0.0
In182 In 0.07023 0.85129 0.61395 0.0
O183 O 0.07771 0.87282 0.55549 0.0
O184 O 0.03696 0.88656 0.58653 0.0
C185 C 0.08978 0.79749 0.58134 0.0
C186 C 0.11476 0.89109 0.63876 0.0
C187 C 0.03231 0.83057 0.67047 0.0
O188 O 0.06365 0.80986 0.5734 0.0
O189 O 0.10582 0.81213 0.60591 0.0
O190 O 0.05969 0.84069 0.6763 0.0
O191 O 0.02334 0.83223 0.63609 0.0
C192 C 0.05387 0.89026 0.55709 0.0
O193 O 0.08629 0.89906 0.63592 0.0
O194 O 0.11998 0.8624 0.63233 0.0
In195 In 0.64985 0.04652 0.57403 0.0
O196 O 0.61832 0.08538 0.59852 0.0
O197 O 0.63541 0.08981 0.54154 0.0
C198 C 0.67295 0.0252 0.64093 0.0
C199 C 0.60412 0.01209 0.54138 0.0
C200 C 0.70607 0.05672 0.54155 0.0
O201 O 0.65858 0.05098 0.63794 0.0
O202 O 0.67402 0.00919 0.61049 0.0
O203 O 0.6905 0.03201 0.53513 0.0
O204 O 0.6931 0.07598 0.56398 0.0
C205 C 0.61877 0.10123 0.56792 0.0
O206 O 0.62674 0.02338 0.5227 0.0
O207 O 0.60595 0.01588 0.57718 0.0
C208 C 0.5334 0.21722 0.94166 0.0
C209 C 0.52207 0.22256 0.97883 0.0
C210 C 0.54568 0.24196 0.91972 0.0
C211 C 0.54706 0.27243 0.93574 0.0
C212 C 0.53283 0.27837 0.97169 0.0
C213 C 0.52029 0.25335 0.99269 0.0
C214 C 0.55953 0.23494 0.88087 0.0
C215 C 0.53364 0.31056 0.98979 0.0
C216 C 0.6181 0.32393 0.92183 0.0
C217 C 0.60532 0.34927 0.9016 0.0
C218 C 0.5998 0.29773 0.93092 0.0
C219 C 0.56803 0.29662 0.91893 0.0
C220 C 0.55586 0.32077 0.89539 0.0
C221 C 0.57463 0.34705 0.88723 0.0
C222 C 0.6138 0.27247 0.95606 0.0
C223 C 0.52244 0.31999 0.88103 0.0
H224 H 0.53444 0.19349 0.93058 0.0
H225 H 0.51121 0.25766 0.02123 0.0
H226 H 0.5544 0.25414 0.86034 0.0
H227 H 0.58542 0.23298 0.88344 0.0
H228 H 0.55041 0.21254 0.86898 0.0
H229 H 0.51871 0.31196 0.01583 0.0
H230 H 0.55814 0.3164 0.99801 0.0
H231 H 0.52563 0.3286 0.96911 0.0
H232 H 0.64192 0.32539 0.93271 0.0
H233 H 0.5647 0.3665 0.87129 0.0
H234 H 0.60998 0.24901 0.94315 0.0
H235 H 0.60199 0.27262 0.98442 0.0
H236 H 0.6394 0.2758 0.96068 0.0
H237 H 0.51541 0.29583 0.87285 0.0
H238 H 0.51913 0.33572 0.85597 0.0
H239 H 0.50646 0.32794 0.90415 0.0
C240 C 0.11779 0.54765 0.8925 0.0
C241 C 0.12262 0.57764 0.87703 0.0
C242 C 0.14316 0.53019 0.90679 0.0
C243 C 0.17369 0.54325 0.90548 0.0
C244 C 0.17904 0.57099 0.88416 0.0
C245 C 0.15331 0.58791 0.87008 0.0
C246 C 0.13664 0.49998 0.92782 0.0
C247 C 0.21134 0.58535 0.88115 0.0
C248 C 0.22226 0.5443 0.99574 0.0
C249 C 0.2481 0.52586 0.98543 0.0
C250 C 0.19701 0.54847 0.97069 0.0
C251 C 0.19748 0.53366 0.93431 0.0
C252 C 0.22237 0.51304 0.92485 0.0
C253 C 0.24761 0.5095 0.95055 0.0
C254 C 0.17072 0.57034 0.98239 0.0
C255 C 0.22332 0.49605 0.88694 0.0
H256 H 0.09407 0.53928 0.89732 0.0
H257 H 0.15715 0.61078 0.85732 0.0
H258 H 0.15631 0.48316 0.92439 0.0
H259 H 0.13393 0.50497 0.95887 0.0
H260 H 0.11459 0.48885 0.91754 0.0
H261 H 0.2124 0.60368 0.85855 0.0
H262 H 0.21765 0.59632 0.90898 0.0
H263 H 0.22917 0.56716 0.87477 0.0
H264 H 0.2223 0.55658 0.02297 0.0
H265 H 0.26746 0.49498 0.94261 0.0
H266 H 0.14774 0.55824 0.98012 0.0
H267 H 0.17008 0.59089 0.96289 0.0
H268 H 0.17345 0.57903 0.01224 0.0
H269 H 0.1994 0.48974 0.87693 0.0
H270 H 0.23773 0.47439 0.88884 0.0
H271 H 0.23411 0.51153 0.86506 0.0
C272 C 0.91981 0.14062 0.97001 0.0
C273 C 0.9019 0.13846 0.93641 0.0
C274 C 0.93259 0.16924 0.98183 0.0
C275 C 0.92716 0.19643 0.95956 0.0
C276 C 0.91151 0.19385 0.92382 0.0
C277 C 0.89901 0.16473 0.91257 0.0
C278 C 0.9494 0.17081 0.01995 0.0
C279 C 0.90571 0.22224 0.89902 0.0
C280 C 0.91537 0.26742 0.02241 0.0
C281 C 0.94507 0.28155 0.0215 0.0
C282 C 0.90886 0.24068 0.00063 0.0
C283 C 0.93266 0.22764 0.97725 0.0
C284 C 0.96226 0.24264 0.97466 0.0
C285 C 0.96817 0.26952 0.99696 0.0
C286 C 0.87692 0.22549 0.00423 0.0
C287 C 0.98807 0.22955 0.94976 0.0
H288 H 0.9226 0.12015 0.98814 0.0
H289 H 0.88538 0.16302 0.88639 0.0
H290 H 0.97129 0.18473 0.0175 0.0
H291 H 0.93412 0.18267 0.04125 0.0
H292 H 0.9554 0.14715 0.03107 0.0
H293 H 0.89915 0.21555 0.8693 0.0
H294 H 0.88625 0.23624 0.91141 0.0
H295 H 0.9268 0.2375 0.89805 0.0
H296 H 0.89728 0.27686 0.04096 0.0
H297 H 0.9911 0.28054 0.99598 0.0
H298 H 0.87935 0.20221 0.01812 0.0
H299 H 0.86649 0.22165 0.97547 0.0
H300 H 0.86037 0.23985 0.02148 0.0
H301 H 0.99783 0.20812 0.9633 0.0
H302 H 0.00749 0.24663 0.94575 0.0
H303 H 0.97876 0.22272 0.92124 0.0
C304 C 0.36459 0.94399 0.8685 0.0
C305 C 0.35829 0.91229 0.86082 0.0
C306 C 0.34143 0.96335 0.88464 0.0
C307 C 0.3117 0.95041 0.89339 0.0
C308 C 0.30399 0.91993 0.8802 0.0
C309 C 0.32743 0.90125 0.8638 0.0
C310 C 0.34996 0.99631 0.89641 0.0
C311 C 0.27233 0.90538 0.88817 0.0
C312 C 0.27505 0.96181 0.99032 0.0
C313 C 0.24649 0.97599 0.98062 0.0
C314 C 0.29785 0.95585 0.96245 0.0
C315 C 0.292 0.96461 0.9239 0.0
C316 C 0.26477 0.98214 0.91478 0.0
C317 C 0.24209 0.98746 0.94332 0.0
C318 C 0.32683 0.93752 0.97378 0.0
C319 C 0.25828 0.99319 0.87449 0.0
H320 H 0.38833 0.95287 0.86561 0.0
H321 H 0.32233 0.87694 0.8571 0.0
H322 H 0.32972 0.0124 0.89257 0.0
H323 H 0.35649 0.99658 0.9272 0.0
H324 H 0.37025 0.0053 0.87971 0.0
H325 H 0.26879 0.88324 0.87193 0.0
H326 H 0.27036 0.90011 0.91924 0.0
H327 H 0.25319 0.92188 0.88065 0.0
H328 H 0.2788 0.95346 0.01933 0.0
H329 H 0.22017 -0.00117 0.93578 0.0
H330 H 0.34833 0.94966 0.96379 0.0
H331 H 0.32629 0.91405 0.96002 0.0
H332 H 0.32863 0.93421 0.00529 0.0
H333 H 0.28032 -0.00194 0.85863 0.0
H334 H 0.24357 0.0147 0.87461 0.0
H335 H 0.24518 0.97473 0.85878 0.0
C336 C 0.51505 0.24946 0.50965 0.0
C337 C 0.5358 0.27494 0.50901 0.0
C338 C 0.52391 0.22106 0.52696 0.0
C339 C 0.554 0.21849 0.54406 0.0
C340 C 0.57328 0.24538 0.54739 0.0
C341 C 0.56401 0.27326 0.52956 0.0
C342 C 0.50254 0.193 0.52323 0.0
C343 C 0.60531 0.24385 0.5659 0.0
C344 C 0.58363 0.1441 0.59234 0.0
C345 C 0.60091 0.13053 0.56242 0.0
C346 C 0.56718 0.17234 0.58671 0.0
C347 C 0.56822 0.18713 0.55039 0.0
C348 C 0.585 0.17298 0.51993 0.0
C349 C 0.60113 0.14495 0.52637 0.0
C350 C 0.54946 0.18673 0.61975 0.0
C351 C 0.58666 0.18787 0.48065 0.0
H352 H 0.49313 0.25081 0.49391 0.0
H353 H 0.57984 0.2932 0.52961 0.0
H354 H 0.51085 0.17798 0.49931 0.0
H355 H 0.50291 0.17862 0.54972 0.0
H356 H 0.47795 0.2001 0.51706 0.0
H357 H 0.61476 0.26758 0.57225 0.0
H358 H 0.60448 0.23017 0.5929 0.0
H359 H 0.62187 0.23182 0.54623 0.0
H360 H 0.58327 0.13288 0.62021 0.0
H361 H 0.61421 0.13443 0.50302 0.0
H362 H 0.5256 0.19401 0.61056 0.0
H363 H 0.5619 0.20811 0.62968 0.0
H364 H 0.54732 0.17032 0.64433 0.0
H365 H 0.56267 0.19218 0.46944 0.0
H366 H 0.59951 0.17305 0.45968 0.0
H367 H 0.59872 0.21089 0.48258 0.0
C368 C 0.33988 0.58836 0.61798 0.0
C369 C 0.37089 0.57774 0.61508 0.0
C370 C 0.31505 0.57036 0.60354 0.0
C371 C 0.32157 0.54098 0.58631 0.0
C372 C 0.35203 0.528 0.58939 0.0
C373 C 0.37657 0.5467 0.60362 0.0
C374 C 0.28272 0.58483 0.60178 0.0
C375 C 0.35941 0.49595 0.57346 0.0
C376 C 0.24831 0.50659 0.54098 0.0
C377 C 0.24974 0.52051 0.50461 0.0
C378 C 0.27306 0.51038 0.56732 0.0
C379 C 0.29935 0.52888 0.55698 0.0
C380 C 0.30204 0.54039 0.51901 0.0
C381 C 0.27725 0.5359 0.49332 0.0
C382 C 0.26986 0.49643 0.60683 0.0
C383 C 0.32987 0.55986 0.50629 0.0
H384 H 0.33533 0.61208 0.62771 0.0
H385 H 0.40048 0.53808 0.60203 0.0
H386 H 0.27764 0.59223 0.5719 0.0
H387 H 0.2646 0.56752 0.61023 0.0
H388 H 0.28068 0.60569 0.6207 0.0
H389 H 0.3817 0.48654 0.58538 0.0
H390 H 0.34008 0.47927 0.57973 0.0
H391 H 0.36185 0.49743 0.54186 0.0
H392 H 0.22721 0.49428 0.54968 0.0
H393 H 0.27871 0.54612 0.46492 0.0
H394 H 0.25702 0.51309 0.62553 0.0
H395 H 0.29307 0.49161 0.62006 0.0
H396 H 0.25612 0.47429 0.60584 0.0
H397 H 0.33061 0.58209 0.52285 0.0
H398 H 0.3289 0.56574 0.47529 0.0
H399 H 0.35212 0.54716 0.51188 0.0
C400 C 0.89316 0.34973 0.53524 0.0
C401 C 0.89227 0.36566 0.57033 0.0
C402 C 0.90929 0.32137 0.53143 0.0
C403 C 0.92487 0.30843 0.56362 0.0
C404 C 0.92452 0.32457 0.59909 0.0
C405 C 0.90818 0.35314 0.60205 0.0
C406 C 0.90914 0.305 0.49296 0.0
C407 C 0.94086 0.31141 0.63394 0.0
C408 C 0.93156 0.22165 0.54768 0.0
C409 C 0.96065 0.21984 0.52911 0.0
C410 C 0.92094 0.24999 0.56324 0.0
C411 C 0.93982 0.27714 0.55973 0.0
C412 C 0.97064 0.27461 0.54478 0.0
C413 C 0.98079 0.24581 0.52966 0.0
C414 C 0.88812 0.25151 0.57945 0.0
C415 C 0.9916 0.30296 0.54092 0.0
H416 H 0.88111 0.35941 0.51054 0.0
H417 H 0.90762 0.36551 0.62919 0.0
H418 H 0.93356 0.30062 0.48331 0.0
H419 H 0.89732 0.2819 0.49553 0.0
H420 H 0.89686 0.31884 0.47053 0.0
H421 H 0.94095 0.32822 0.65828 0.0
H422 H 0.92885 0.28962 0.64324 0.0
H423 H 0.96545 0.30507 0.62695 0.0
H424 H 0.91615 0.2014 0.54783 0.0
H425 H 0.0034 0.2444 0.51551 0.0
H426 H 0.87221 0.26232 0.55798 0.0
H427 H 0.88745 0.2663 0.60559 0.0
H428 H 0.8789 0.22785 0.5866 0.0
H429 H 0.9839 0.31702 0.51585 0.0
H430 H 0.01653 0.29619 0.53652 0.0
H431 H 0.98997 0.31818 0.56664 0.0
C432 C 0.13395 0.94543 0.62706 0.0
C433 C 0.14045 0.91429 0.63744 0.0
C434 C 0.15721 0.96414 0.61004 0.0
C435 C 0.18726 0.95115 0.60327 0.0
C436 C 0.19511 0.92171 0.61946 0.0
C437 C 0.17153 0.90363 0.63658 0.0
C438 C 0.14852 0.99612 0.59494 0.0
C439 C 0.22713 0.90726 0.61378 0.0
C440 C 0.22348 0.95749 0.50522 0.0
C441 C 0.25135 0.97368 0.5131 0.0
C442 C 0.2013 0.95203 0.53395 0.0
C443 C 0.20696 0.96342 0.57152 0.0
C444 C 0.23355 0.98247 0.57874 0.0
C445 C 0.25568 0.98721 0.54939 0.0
C446 C 0.17309 0.93182 0.52467 0.0
C447 C 0.23992 0.99607 0.61789 0.0
H448 H 0.11003 0.95407 0.62832 0.0
H449 H 0.17679 0.87982 0.64541 0.0
H450 H 0.1681 0.01294 0.59924 0.0
H451 H 0.14392 0.99457 0.56369 0.0
H452 H 0.12708 0.00541 0.60908 0.0
H453 H 0.23085 0.88662 0.63267 0.0
H454 H 0.22955 0.89951 0.58354 0.0
H455 H 0.24587 0.92468 0.61956 0.0
H456 H 0.21979 0.94743 0.47702 0.0
H457 H 0.27709 3e-05 0.55553 0.0
H458 H 0.15113 0.94367 0.53367 0.0
H459 H 0.17464 0.90936 0.54064 0.0
H460 H 0.17131 0.92638 0.4936 0.0
H461 H 0.21787 0.00085 0.63375 0.0
H462 H 0.25364 0.01817 0.6157 0.0
H463 H 0.25402 0.97916 0.63483 0.0
C464 C 0.4231 0.7509 0.95938 0.0
C465 C 0.40256 0.76733 0.93524 0.0
C466 C 0.41406 0.72238 0.97614 0.0
C467 C 0.38374 0.71019 0.96867 0.0
C468 C 0.36274 0.72698 0.94485 0.0
C469 C 0.37244 0.75533 0.92832 0.0
C470 C 0.43714 0.70501 0.00124 0.0
C471 C 0.33017 0.71477 0.93636 0.0
C472 C 0.37041 0.62261 0.97725 0.0
C473 C 0.35543 0.62036 0.01291 0.0
C474 C 0.38005 0.6517 0.96277 0.0
C475 C 0.37441 0.67921 0.98438 0.0
C476 C 0.3594 0.6771 0.02049 0.0
C477 C 0.35014 0.64762 0.03441 0.0
C478 C 0.39614 0.65299 0.92422 0.0
C479 C 0.35288 0.706 0.0442 0.0
H480 H 0.4464 0.76013 0.96482 0.0
H481 H 0.35644 0.76803 0.9098 0.0
H482 H 0.42664 0.70044 0.02978 0.0
H483 H 0.44269 0.68191 0.98826 0.0
H484 H 0.4594 0.7182 0.00527 0.0
H485 H 0.31624 0.73132 0.91859 0.0
H486 H 0.33178 0.69205 0.92096 0.0
H487 H 0.31734 0.71039 0.96349 0.0
H488 H 0.37466 0.60158 0.96059 0.0
H489 H 0.33857 0.64595 0.06199 0.0
H490 H 0.41949 0.6643 0.92712 0.0
H491 H 0.38213 0.66747 0.90408 0.0
H492 H 0.39939 0.62934 0.91144 0.0
H493 H 0.37512 0.71865 0.05018 0.0
H494 H 0.34137 0.70031 0.0719 0.0
H495 H 0.33749 0.72226 0.02797 0.0
C496 C 0.74001 0.45029 0.00361 0.0
C497 C 0.73118 0.42755 0.97662 0.0
C498 C 0.76804 0.44722 0.02455 0.0
C499 C 0.78744 0.42076 0.0183 0.0
C500 C 0.77836 0.39758 0.99142 0.0
C501 C 0.75039 0.4013 0.97087 0.0
C502 C 0.77711 0.4724 0.0529 0.0
C503 C 0.79839 0.36896 0.98399 0.0
C504 C 0.87482 0.41928 0.03634 0.0
C505 C 0.87661 0.40013 0.0689 0.0
C506 C 0.84573 0.42814 0.02107 0.0
C507 C 0.81783 0.41737 0.03869 0.0
C508 C 0.8195 0.39983 0.07309 0.0
C509 C 0.84897 0.39147 0.0879 0.0
C510 C 0.84493 0.44715 0.98456 0.0
C511 C 0.79024 0.38796 0.0927 0.0
H512 H 0.72517 0.47061 0.00813 0.0
H513 H 0.7436 0.3836 0.95014 0.0
H514 H 0.78105 0.46193 0.0816 0.0
H515 H 0.79951 0.48346 0.04397 0.0
H516 H 0.7589 0.49094 0.05538 0.0
H517 H 0.7875 0.35271 0.96292 0.0
H518 H 0.8217 0.37623 0.97292 0.0
H519 H 0.80243 0.356 0.01112 0.0
H520 H 0.89619 0.4263 0.02181 0.0
H521 H 0.85029 0.37674 0.11317 0.0
H522 H 0.82772 0.46658 0.98695 0.0
H523 H 0.83731 0.43196 0.96045 0.0
H524 H 0.86828 0.45718 0.97742 0.0
H525 H 0.77256 0.40695 0.09528 0.0
H526 H 0.7953 0.3785 0.12171 0.0
H527 H 0.77959 0.36901 0.07517 0.0
C528 C 0.12645 0.73133 0.94182 0.0
C529 C 0.09459 0.72475 0.94795 0.0
C530 C 0.13998 0.75909 0.95573 0.0
C531 C 0.12109 0.78082 0.97589 0.0
C532 C 0.08901 0.77406 0.98264 0.0
C533 C 0.07617 0.74601 0.96869 0.0
C534 C 0.17431 0.76544 0.94822 0.0
C535 C 0.06808 0.79681 0.00381 0.0
C536 C 0.15731 0.84489 0.03729 0.0
C537 C 0.15481 0.87089 0.01292 0.0
C538 C 0.14725 0.8151 0.02525 0.0
C539 C 0.1343 0.81143 0.98812 0.0
C540 C 0.13263 0.83744 0.96304 0.0
C541 C 0.14299 0.86684 0.97572 0.0
C542 C 0.14962 0.78778 0.05261 0.0
C543 C 0.11892 0.83447 0.92324 0.0
H544 H 0.14082 0.71483 0.92597 0.0
H545 H 0.05153 0.74097 0.9735 0.0
H546 H 0.17677 0.78636 0.92956 0.0
H547 H 0.18664 0.77071 0.97551 0.0
H548 H 0.18618 0.74531 0.93412 0.0
H549 H 0.04395 0.7875 0.0079 0.0
H550 H 0.07823 0.80232 0.03232 0.0
H551 H 0.06654 0.81916 0.98763 0.0
H552 H 0.16648 0.84794 0.06605 0.0
H553 H 0.14104 0.88687 0.95674 0.0
H554 H 0.16198 0.76789 0.03874 0.0
H555 H 0.12573 0.77949 0.06021 0.0
H556 H 0.16224 0.79406 0.07942 0.0
H557 H 0.13124 0.81577 0.90704 0.0
H558 H 0.12056 0.85669 0.90674 0.0
H559 H 0.09384 0.8276 0.92517 0.0
C560 C 0.6379 0.1372 0.05597 0.0
C561 C 0.61244 0.12166 0.03899 0.0
C562 C 0.66888 0.12941 0.04608 0.0
C563 C 0.67433 0.10581 0.01832 0.0
C564 C 0.64868 0.08956 0.00181 0.0
C565 C 0.61804 0.09758 0.01252 0.0
C566 C 0.69572 0.14696 0.06455 0.0
C567 C 0.65354 0.06444 0.97184 0.0
C568 C 0.74808 0.1084 0.95798 0.0
C569 C 0.76569 0.08378 0.97368 0.0
C570 C 0.71861 0.11629 0.97289 0.0
C571 C 0.70663 0.09934 0.00454 0.0
C572 C 0.72474 0.07513 0.02133 0.0
C573 C 0.75405 0.06748 0.00552 0.0
C574 C 0.69985 0.14207 0.95395 0.0
C575 C 0.71282 0.05684 0.05538 0.0
H576 H 0.63363 0.15574 0.07658 0.0
H577 H 0.59841 0.0855 -0.00067 0.0
H578 H 0.71305 0.13021 0.07659 0.0
H579 H 0.70809 0.16118 0.04265 0.0
H580 H 0.68764 0.16282 0.08781 0.0
H581 H 0.63116 0.05313 0.96304 0.0
H582 H 0.6647 0.07483 0.94607 0.0
H583 H 0.66964 0.04608 0.98284 0.0
H584 H 0.757 0.12107 0.93335 0.0
H585 H 0.7677 0.04854 0.01784 0.0
H586 H 0.69302 0.16001 0.97541 0.0
H587 H 0.67788 0.1322 0.94179 0.0
H588 H 0.71308 0.15378 0.93056 0.0
H589 H 0.70559 0.0731 0.07859 0.0
H590 H 0.73074 0.04041 0.06687 0.0
H591 H 0.69176 0.04313 0.04699 0.0
C592 C 0.42069 0.74386 0.5195 0.0
C593 C 0.40201 0.72391 0.54178 0.0
C594 C 0.40863 0.7721 0.5051 0.0
C595 C 0.37709 0.78037 0.513 0.0
C596 C 0.35788 0.75989 0.53462 0.0
C597 C 0.37064 0.73193 0.54891 0.0
C598 C 0.42986 0.79348 0.48234 0.0
C599 C 0.3241 0.76787 0.54339 0.0
C600 C 0.35808 0.86707 0.51282 0.0
C601 C 0.34469 0.87103 0.47643 0.0
C602 C 0.36829 0.83756 0.52524 0.0
C603 C 0.36487 0.81136 0.5007 0.0
C604 C 0.35065 0.81501 0.46428 0.0
C605 C 0.34075 0.84491 0.4525 0.0
C606 C 0.38339 0.83459 0.56428 0.0
C607 C 0.34647 0.78749 0.43752 0.0
H608 H 0.44495 0.7377 0.5139 0.0
H609 H 0.35606 0.71644 0.56594 0.0
H610 H 0.41898 0.79911 0.45427 0.0
H611 H 0.43309 0.81594 0.49794 0.0
H612 H 0.45333 0.78293 0.47719 0.0
H613 H 0.31175 0.74848 0.55838 0.0
H614 H 0.32312 0.78911 0.56173 0.0
H615 H 0.31125 0.77332 0.51653 0.0
H616 H 0.36117 0.8872 0.53145 0.0
H617 H 0.33039 0.84791 0.42434 0.0
H618 H 0.40798 0.82638 0.56114 0.0
H619 H 0.37075 0.81686 0.58167 0.0
H620 H 0.38354 0.85715 0.58023 0.0
H621 H 0.36977 0.77797 0.42939 0.0
H622 H 0.3336 0.79399 0.41097 0.0
H623 H 0.33346 0.7684 0.45216 0.0
C624 C 0.74119 0.40735 0.53451 0.0
C625 C 0.75846 0.4336 0.52274 0.0
C626 C 0.71213 0.40025 0.51783 0.0
C627 C 0.70008 0.41985 0.48859 0.0
C628 C 0.71738 0.44642 0.47652 0.0
C629 C 0.74644 0.45303 0.49383 0.0
C630 C 0.6943 0.37176 0.53162 0.0
C631 C 0.7052 0.46778 0.44539 0.0
C632 C 0.63773 0.38062 0.4277 0.0
C633 C 0.61023 0.39045 0.44617 0.0
C634 C 0.66723 0.39139 0.43988 0.0
C635 C 0.66914 0.41243 0.47121 0.0
C636 C 0.64133 0.42379 0.48849 0.0
C637 C 0.61218 0.41265 0.47574 0.0
C638 C 0.6964 0.37887 0.42065 0.0
C639 C 0.6424 0.44631 0.5219 0.0
H640 H 0.75037 0.39227 0.55688 0.0
H641 H 0.75976 0.47333 0.48464 0.0
H642 H 0.67102 0.37893 0.54286 0.0
H643 H 0.69008 0.35546 0.50737 0.0
H644 H 0.70704 0.3589 0.55455 0.0
H645 H 0.72161 0.48737 0.43913 0.0
H646 H 0.70128 0.45421 0.41867 0.0
H647 H 0.68221 0.47778 0.45398 0.0
H648 H 0.6363 0.36355 0.40473 0.0
H649 H 0.59095 0.42049 0.48994 0.0
H650 H 0.70905 0.36311 0.4407 0.0
H651 H 0.71257 0.39835 0.41329 0.0
H652 H 0.69087 0.36552 0.39414 0.0
H653 H 0.65215 0.43418 0.5474 0.0
H654 H 0.61877 0.45551 0.52932 0.0
H655 H 0.65809 0.46638 0.51541 0.0
C656 C 0.13634 0.62467 0.52009 0.0
C657 C 0.15048 0.62278 0.48389 0.0
C658 C 0.12697 0.65357 0.53532 0.0
C659 C 0.13208 0.68128 0.51393 0.0
C660 C 0.14675 0.67961 0.47757 0.0
C661 C 0.15569 0.65028 0.46288 0.0
C662 C 0.11123 0.6544 0.5741 0.0
C663 C 0.15276 0.70876 0.45414 0.0
C664 C 0.08097 0.75117 0.5389 0.0
C665 C 0.10084 0.76825 0.56321 0.0
C666 C 0.09104 0.72303 0.52211 0.0
C667 C 0.12175 0.71192 0.52966 0.0
C668 C 0.14209 0.72937 0.55365 0.0
C669 C 0.13133 0.75731 0.57027 0.0
C670 C 0.06863 0.70488 0.49689 0.0
C671 C 0.17505 0.71831 0.56219 0.0
H672 H 0.13216 0.60344 0.5364 0.0
H673 H 0.16663 0.64888 0.43489 0.0
H674 H 0.12472 0.66964 0.59395 0.0
H675 H 0.08737 0.66463 0.57139 0.0
H676 H 0.10913 0.63072 0.58711 0.0
H677 H 0.16507 0.70351 0.42682 0.0
H678 H 0.13019 0.72053 0.44744 0.0
H679 H 0.16715 0.7256 0.47087 0.0
H680 H 0.05738 0.75958 0.53336 0.0
H681 H 0.14681 0.77056 0.58891 0.0
H682 H 0.06392 0.68155 0.50974 0.0
H683 H 0.07931 0.70079 0.46833 0.0
H684 H 0.0459 0.71725 0.49289 0.0
H685 H 0.17421 0.69557 0.5776 0.0
H686 H 0.18838 0.73537 0.57995 0.0
H687 H 0.18804 0.71434 0.53507 0.0
C688 C 0.75355 0.09014 0.53482 0.0
C689 C 0.73731 0.06274 0.52488 0.0
C690 C 0.78356 0.0962 0.52034 0.0
C691 C 0.79767 0.07434 0.49514 0.0
C692 C 0.78128 0.04677 0.48454 0.0
C693 C 0.75121 0.04124 0.49965 0.0
C694 C 0.80033 0.12585 0.53242 0.0
C695 C 0.79563 0.02307 0.45762 0.0
C696 C 0.86487 0.10948 0.43877 0.0
C697 C 0.89055 0.10159 0.46198 0.0
C698 C 0.83454 0.09903 0.44782 0.0
C699 C 0.82992 0.08038 0.48089 0.0
C700 C 0.85606 0.07074 0.50302 0.0
C701 C 0.88611 0.08145 0.49325 0.0
C702 C 0.80725 0.10958 0.42338 0.0
C703 C 0.85209 0.05082 0.53848 0.0
H704 H 0.7429 0.10685 0.55431 0.0
H705 H 0.73868 0.02004 0.49187 0.0
H706 H 0.82253 0.11984 0.54738 0.0
H707 H 0.8066 0.13994 0.50683 0.0
H708 H 0.78586 0.14061 0.55182 0.0
H709 H 0.77937 0.00336 0.4512 0.0
H710 H 0.8023 0.03457 0.43029 0.0
H711 H 0.81742 0.01336 0.47039 0.0
H712 H 0.86824 0.12489 0.4144 0.0
H713 H 0.90595 0.07509 0.51113 0.0
H714 H 0.79317 0.12711 0.4394 0.0
H715 H 0.79157 0.08953 0.41671 0.0
H716 H 0.81511 0.1204 0.39606 0.0
H717 H 0.84032 0.06479 0.56114 0.0
H718 H 0.87493 0.04234 0.54986 0.0
H719 H 0.83693 0.03027 0.53232 0.0
C720 C 0.47777 0.93765 0.96073 0.0
C721 C 0.45149 0.91822 0.96443 0.0
C722 C 0.47944 0.96627 0.98037 0.0
C723 C 0.45406 0.97571 0.00397 0.0
C724 C 0.42806 0.95553 0.00913 0.0
C725 C 0.42713 0.92692 0.98935 0.0
C726 C 0.50779 0.98704 0.97454 0.0
C727 C 0.40044 0.96482 0.03374 0.0
C728 C 0.47564 0.04286 0.06943 0.0
C729 C 0.46773 0.06869 0.04648 0.0
C730 C 0.4692 0.0122 0.05726 0.0
C731 C 0.45442 0.00743 0.02143 0.0
C732 C 0.44361 0.03348 -1e-05 0.0
C733 C 0.45045 0.06392 0.01279 0.0
C734 C 0.48052 0.98499 0.08123 0.0
C735 C 0.42712 0.02924 0.962 0.0
H736 H 0.49658 0.93098 0.94146 0.0
H737 H 0.40655 0.91211 0.99199 0.0
H738 H 0.50059 0.00901 0.95994 0.0
H739 H 0.51809 0.99366 0.00262 0.0
H740 H 0.52623 0.97548 0.95703 0.0
H741 H 0.38519 0.94443 0.04056 0.0
H742 H 0.40838 0.97571 0.06096 0.0
H743 H 0.38608 0.98243 0.01823 0.0
H744 H 0.48873 0.04644 0.09574 0.0
H745 H 0.44407 0.08383 0.9951 0.0
H746 H 0.50116 0.97403 0.06718 0.0
H747 H 0.46203 0.96676 0.08354 0.0
H748 H 0.48749 0.99244 0.11055 0.0
H749 H 0.44424 0.02097 0.94027 0.0
H750 H 0.41643 0.05143 0.95157 0.0
H751 H 0.40847 0.01119 0.96429 0.0
C752 C 0.44192 0.50816 0.06013 0.0
C753 C 0.41686 0.49303 0.04168 0.0
C754 C 0.47303 0.50245 0.04918 0.0
C755 C 0.47916 0.48084 0.01937 0.0
C756 C 0.45409 0.46408 0.00222 0.0
C757 C 0.42313 0.4705 0.01348 0.0
C758 C 0.49915 0.52079 0.06808 0.0
C759 C 0.45985 0.44044 0.97077 0.0
C760 C 0.55159 0.49091 0.95756 0.0
C761 C 0.57148 0.46781 0.97251 0.0
C762 C 0.52175 0.496 0.97333 0.0
C763 C 0.51153 0.47722 0.0044 0.0
C764 C 0.53188 0.4545 0.02032 0.0
C765 C 0.56174 0.45021 0.00432 0.0
C766 C 0.50082 0.52085 0.95604 0.0
C767 C 0.52169 0.43389 0.05324 0.0
H768 H 0.4372 0.52561 0.08198 0.0
H769 H 0.40382 0.45871 -0.00077 0.0
H770 H 0.51797 0.50477 0.07806 0.0
H771 H 0.50981 0.53701 0.0469 0.0
H772 H 0.49071 0.53478 0.09289 0.0
H773 H 0.43817 0.42747 0.96281 0.0
H774 H 0.46886 0.4526 0.94491 0.0
H775 H 0.47798 0.42328 0.97981 0.0
H776 H 0.55908 0.50455 0.93299 0.0
H777 H 0.57698 0.43216 0.01583 0.0
H778 H 0.49261 0.53723 0.97863 0.0
H779 H 0.4797 0.5097 0.94331 0.0
H780 H 0.51293 0.53458 0.9334 0.0
H781 H 0.5132 0.44845 0.07746 0.0
H782 H 0.54097 0.41857 0.06371 0.0
H783 H 0.50183 0.41882 0.04399 0.0
C784 C 0.0056 0.56414 0.99061 0.0
C785 C 0.03248 0.58294 0.99225 0.0
C786 C 0.00341 0.53677 0.01261 0.0
C787 C 0.02886 0.52799 0.03651 0.0
C788 C 0.05524 0.54789 0.04005 0.0
C789 C 0.05669 0.57527 0.01792 0.0
C790 C 0.97463 0.5163 0.00852 0.0
C791 C 0.08284 0.53932 0.06513 0.0
C792 C 0.00752 0.46223 0.10396 0.0
C793 C 0.01481 0.43602 0.08135 0.0
C794 C 0.01418 0.49263 0.09108 0.0
C795 C 0.02861 0.49669 0.05495 0.0
C796 C 0.03896 0.47022 0.03394 0.0
C797 C 0.03184 0.44009 0.0474 0.0
C798 C 0.00329 0.52032 0.11454 0.0
C799 C 0.05511 0.47368 0.99564 0.0
H800 H 0.98684 0.57008 0.97087 0.0
H801 H 0.07763 0.58971 0.01917 0.0
H802 H 0.98117 0.49388 0.99447 0.0
H803 H 0.9649 0.51051 0.03714 0.0
H804 H 0.95595 0.5277 0.99118 0.0
H805 H 0.09859 0.55968 0.07021 0.0
H806 H 0.07485 0.53007 0.09319 0.0
H807 H 0.09668 0.52058 0.05095 0.0
H808 H 0.99459 0.45919 0.13046 0.0
H809 H 0.03781 0.41986 0.03005 0.0
H810 H 0.98203 0.53059 0.10108 0.0
H811 H 0.02154 0.53887 0.11535 0.0
H812 H 0.99737 0.51348 0.14441 0.0
H813 H 0.03791 0.48202 0.974 0.0
H814 H 0.06525 0.45117 0.98544 0.0
H815 H 0.07415 0.49138 0.99735 0.0
C816 C 0.06684 0.01359 0.02044 0.0
C817 C 0.07684 0.98535 0.03682 0.0
C818 C 0.03573 0.01719 0.00784 0.0
C819 C 0.01455 0.99164 0.01084 0.0
C820 C 0.02447 0.96327 0.0279 0.0
C821 C 0.0554 0.96061 0.04112 0.0
C822 C 0.02568 0.04809 0.99062 0.0
C823 C 0.00278 0.93533 0.03086 0.0
C824 C 0.92776 0.00993 0.00302 0.0
C825 C 0.92252 0.00581 0.96365 0.0
C826 C 0.95749 0.00473 0.01902 0.0
C827 C 0.98227 0.9944 0.99519 0.0
C828 C 0.97651 0.98807 0.95594 0.0
C829 C 0.94673 0.99426 0.94049 0.0
C830 C 0.96284 0.01218 0.06085 0.0
C831 C 0.00216 0.9761 0.92992 0.0
H832 H 0.0834 0.0327 0.0171 0.0
H833 H 0.06315 0.93857 0.0534 0.0
H834 H 0.01961 0.04476 0.95996 0.0
H835 H 0.00432 0.05689 0.0053 0.0
H836 H 0.04433 0.06623 0.99272 0.0
H837 H 0.01391 0.91524 0.04593 0.0
H838 H 0.98101 0.94185 0.04633 0.0
H839 H 0.99576 0.92757 0.00172 0.0
H840 H 0.90917 0.0192 0.02095 0.0
H841 H 0.94269 0.99108 0.91005 0.0
H842 H 0.97906 0.03246 0.06336 0.0
H843 H 0.97411 0.99208 0.07559 0.0
H844 H 0.94066 0.01801 0.076 0.0
H845 H 0.02029 0.99452 0.92615 0.0
H846 H 0.99307 0.96939 0.9012 0.0
H847 H 0.01386 0.95543 0.94294 0.0
C848 C 0.48677 0.55943 0.50508 0.0
C849 C 0.46012 0.57852 0.50309 0.0
C850 C 0.48763 0.53053 0.486 0.0
C851 C 0.46103 0.52048 0.46484 0.0
C852 C 0.43489 0.54062 0.46062 0.0
C853 C 0.43483 0.56956 0.47967 0.0
C854 C 0.51618 0.50986 0.49064 0.0
C855 C 0.40603 0.53072 0.43856 0.0
C856 C 0.47775 0.4484 0.40546 0.0
C857 C 0.47111 0.42465 0.43207 0.0
C858 C 0.4723 0.47997 0.41447 0.0
C859 C 0.4597 0.48772 0.45073 0.0
C860 C 0.44978 0.46362 0.47589 0.0
C861 C 0.45573 0.43227 0.46628 0.0
C862 C 0.48267 0.50502 0.38667 0.0
C863 C 0.43552 0.47098 0.51448 0.0
H864 H 0.50636 0.56637 0.52307 0.0
H865 H 0.41405 0.58419 0.4782 0.0
H866 H 0.50997 0.489 0.50807 0.0
H867 H 0.52433 0.50132 0.4623 0.0
H868 H 0.53591 0.52228 0.50495 0.0
H869 H 0.39068 0.55102 0.43164 0.0
H870 H 0.41251 0.51865 0.41153 0.0
H871 H 0.39226 0.51394 0.45611 0.0
H872 H 0.48944 0.4426 0.37879 0.0
H873 H 0.45026 0.41394 0.48675 0.0
H874 H 0.50482 0.51577 0.39712 0.0
H875 H 0.46488 0.52395 0.38466 0.0
H876 H 0.4869 0.49535 0.35755 0.0
H877 H 0.45408 0.47985 0.53402 0.0
H878 H 0.42461 0.44998 0.52781 0.0
H879 H 0.41746 0.48958 0.51185 0.0
C880 C 0.06765 0.48179 0.4726 0.0
C881 C 0.07694 0.50749 0.45038 0.0
C882 C 0.03629 0.47844 0.48427 0.0
C883 C 0.01404 0.50171 0.47407 0.0
C884 C 0.02314 0.52718 0.45068 0.0
C885 C 0.05443 0.52958 0.43878 0.0
C886 C 0.02718 0.45055 0.50848 0.0
C887 C 0.0002 0.55266 0.43969 0.0
C888 C 0.92776 0.48156 0.48361 0.0
C889 C 0.92115 0.49266 0.52058 0.0
C890 C 0.95782 0.48475 0.4678 0.0
C891 C 0.98153 0.50005 0.48917 0.0
C892 C 0.97446 0.51296 0.52558 0.0
C893 C 0.94437 0.50878 0.54107 0.0
C894 C 0.9646 0.47031 0.42914 0.0
C895 C -0.00102 0.53019 0.54873 0.0
H896 H 0.08501 0.4647 0.48157 0.0
H897 H 0.06153 0.54964 0.42178 0.0
H898 H 0.02032 0.45857 0.53754 0.0
H899 H 0.00654 0.4385 0.49578 0.0
H900 H 0.04664 0.43336 0.51136 0.0
H901 H 0.01067 0.57009 0.41978 0.0
H902 H 0.9791 0.54236 0.42593 0.0
H903 H 0.9922 0.56513 0.46585 0.0
H904 H 0.90994 0.46878 0.46782 0.0
H905 H 0.93928 0.51735 0.56967 0.0
H906 H 0.98187 0.45102 0.43253 0.0
H907 H 0.97524 0.48792 0.40969 0.0
H908 H 0.94315 0.46071 0.41532 0.0
H909 H 0.0179 0.51371 0.55725 0.0
H910 H 0.98903 0.54094 0.57506 0.0
H911 H 0.00994 0.54892 0.53117 0.0
C912 C 0.02232 0.93489 0.5322 0.0
C913 C 0.04983 0.91703 0.53095 0.0
C914 C 0.02059 0.96387 0.51346 0.0
C915 C 0.0472 0.97531 0.49348 0.0
C916 C 0.07438 0.95649 0.49017 0.0
C917 C 0.07531 0.92741 0.50885 0.0
C918 C 0.99092 0.98307 0.517 0.0
C919 C 0.10331 0.96788 0.46944 0.0
C920 C 0.02831 0.04626 0.43317 0.0
C921 C 0.03278 0.07036 0.46001 0.0
C922 C 0.03523 0.01506 0.44254 0.0
C923 C 0.04714 0.00808 0.47939 0.0
C924 C 0.0549 0.03271 0.50494 0.0
C925 C 0.04745 0.06365 0.49499 0.0
C926 C 0.02717 0.98942 0.41435 0.0
C927 C 0.06851 0.02619 0.54412 0.0
H928 H 0.0026 0.92683 0.54918 0.0
H929 H 0.09677 0.91375 0.50803 0.0
H930 H 0.99562 0.00418 0.53473 0.0
H931 H 0.98309 0.99125 0.48836 0.0
H932 H 0.97149 0.96964 0.53047 0.0
H933 H 0.11892 0.94811 0.46126 0.0
H934 H 0.09709 0.98127 0.44326 0.0
H935 H 0.11672 0.98377 0.48862 0.0
H936 H 0.0172 0.05138 0.40591 0.0
H937 H 0.05127 0.08229 0.51563 0.0
H938 H 0.00569 0.97705 0.42412 0.0
H939 H 0.04633 0.97184 0.41282 0.0
H940 H 0.02278 -0.00117 0.38513 0.0
H941 H 0.04995 0.0163 0.56289 0.0
H942 H 0.07786 0.04777 0.55786 0.0
H943 H 0.08763 0.00861 0.54225 0.0
C944 C 0.56896 0.0109 0.48452 0.0
C945 C 0.57492 0.00177 0.52246 0.0
C946 C 0.53904 0.00736 0.46833 0.0
C947 C 0.51478 0.99369 0.49036 0.0
C948 C 0.52121 0.98259 0.52782 0.0
C949 C 0.55118 0.98711 0.54362 0.0
C950 C 0.53297 0.01987 0.4285 0.0
C951 C 0.49611 0.96707 0.55175 0.0
C952 C 0.42932 0.01342 0.47095 0.0
C953 C 0.41953 0.98701 0.45031 0.0
C954 C 0.46065 0.01645 0.48299 0.0
C955 C 0.48234 0.99213 0.47488 0.0
C956 C 0.47273 0.96583 0.45316 0.0
C957 C 0.44151 0.96377 0.44078 0.0
C958 C 0.47032 0.04522 0.50533 0.0
C959 C 0.49502 0.93921 0.44449 0.0
H960 H 0.58718 0.02255 0.46816 0.0
H961 H 0.55575 0.98006 0.57296 0.0
H962 H 0.52195 0.00158 0.41031 0.0
H963 H 0.51628 0.03981 0.43011 0.0
H964 H 0.55481 0.02808 0.4143 0.0
H965 H 0.50563 0.9573 0.57889 0.0
H966 H 0.47759 0.9844 0.5589 0.0
H967 H 0.48477 0.94785 0.53534 0.0
H968 H 0.41237 0.0314 0.47834 0.0
H969 H 0.434 0.94314 0.42507 0.0
H970 H 0.49134 0.05611 0.49208 0.0
H971 H 0.47679 0.03845 0.535 0.0
H972 H 0.4513 0.06301 0.50671 0.0
H973 H 0.51651 0.9482 0.43034 0.0
H974 H 0.48421 0.9211 0.42575 0.0
H975 H 0.50245 0.92789 0.47166 0.0
C976 C 0.49106 0.26442 0.32978 0.0
C977 C 0.51122 0.2904 0.32845 0.0
C978 C 0.48812 0.24421 0.29823 0.0
C979 C 0.50554 0.25037 0.26456 0.0
C980 C 0.52535 0.27701 0.26277 0.0
C981 C 0.52807 0.29663 0.29485 0.0
C982 C 0.46699 0.21587 0.30124 0.0
C983 C 0.54408 0.2845 0.22719 0.0
C984 C 0.52707 0.18565 0.19503 0.0
C985 C 0.50586 0.19105 0.16503 0.0
C986 C 0.52632 0.20396 0.22838 0.0
C987 C 0.50405 0.22847 0.23152 0.0
C988 C 0.4818 0.23325 0.20194 0.0
C989 C 0.48285 0.21432 0.16906 0.0
C990 C 0.55016 0.19788 0.25958 0.0
C991 C 0.45785 0.25929 0.2042 0.0
H992 H 0.47806 0.25949 0.35579 0.0
H993 H 0.5436 0.31676 0.2937 0.0
H994 H 0.44961 0.21588 0.27754 0.0
H995 H 0.48115 0.19416 0.29838 0.0
H996 H 0.45418 0.21504 0.32895 0.0
H997 H 0.55728 0.30687 0.22987 0.0
H998 H 0.56105 0.26535 0.2214 0.0
H999 H 0.52825 0.28613 0.20199 0.0
H1000 H 0.54479 0.16756 0.19206 0.0
H1001 H 0.46647 0.21862 0.14585 0.0
H1002 H 0.5383 0.19555 0.28773 0.0
H1003 H 0.56653 0.21806 0.26168 0.0
H1004 H 0.56411 0.17632 0.25415 0.0
H1005 H 0.4448 0.25803 0.23165 0.0
H1006 H 0.44074 0.25841 0.18016 0.0
H1007 H 0.47 0.28231 0.20348 0.0
C1008 C 0.19599 0.53016 0.29893 0.0
C1009 C 0.20244 0.51093 0.33047 0.0
C1010 C 0.2123 0.52641 0.2644 0.0
C1011 C 0.23609 0.50332 0.26173 0.0
C1012 C 0.24169 0.48286 0.29294 0.0
C1013 C 0.22453 0.48674 0.32694 0.0
C1014 C 0.20515 0.54824 0.23143 0.0
C1015 C 0.2671 0.45823 0.2913 0.0
C1016 C 0.2669 0.48763 0.16156 0.0
C1017 C 0.29161 0.50929 0.15948 0.0
C1018 C 0.24923 0.48439 0.19527 0.0
C1019 C 0.25693 0.50287 0.22766 0.0
C1020 C 0.28313 0.52331 0.22635 0.0
C1021 C 0.29996 0.5265 0.1921 0.0
C1022 C 0.22126 0.46265 0.19547 0.0
C1023 C 0.29248 0.54294 0.26055 0.0
H1024 H 0.17872 0.54871 0.30158 0.0
H1025 H 0.22963 0.47194 0.35143 0.0
H1026 H 0.22527 0.56436 0.2269 0.0
H1027 H 0.20182 0.5347 0.20457 0.0
H1028 H 0.18379 0.56255 0.23668 0.0
H1029 H 0.26601 0.44189 0.31606 0.0
H1030 H 0.26534 0.44443 0.26442 0.0
H1031 H 0.29043 0.46984 0.29135 0.0
H1032 H 0.26033 0.47439 0.13625 0.0
H1033 H 0.31924 0.54308 0.19059 0.0
H1034 H 0.19935 0.47672 0.19628 0.0
H1035 H 0.22147 0.44764 0.22143 0.0
H1036 H 0.22058 0.44734 0.1697 0.0
H1037 H 0.27417 0.56088 0.26612 0.0
H1038 H 0.31525 0.55512 0.25611 0.0
H1039 H 0.29432 0.52808 0.28656 0.0
C1040 C 0.00729 0.28526 0.19518 0.0
C1041 C 0.98418 0.30867 0.1959 0.0
C1042 C 0.01136 0.26493 0.2264 0.0
C1043 C 0.9919 0.26825 0.25899 0.0
C1044 C 0.96959 0.29283 0.26059 0.0
C1045 C 0.96597 0.31273 0.22895 0.0
C1046 C 0.03543 0.23903 0.22376 0.0
C1047 C 0.94856 0.29723 0.295 0.0
C1048 C 0.97154 0.19751 0.31953 0.0
C1049 C 0.99006 0.2025 0.35217 0.0
C1050 C 0.97276 0.21823 0.28843 0.0
C1051 C 0.99291 0.24461 0.29014 0.0
C1052 C 0.01246 0.24919 0.32247 0.0
C1053 C 0.01085 0.22799 0.35316 0.0
C1054 C 0.95169 0.21245 0.25428 0.0
C1055 C 0.03421 0.27707 0.32524 0.0
H1056 H 0.02146 0.28209 0.16968 0.0
H1057 H 0.94819 0.33091 0.22969 0.0
H1058 H 0.0504 0.2387 0.24979 0.0
H1059 H 0.02331 0.21603 0.22213 0.0
H1060 H 0.05074 0.24153 0.19818 0.0
H1061 H 0.93422 0.31893 0.29297 0.0
H1062 H 0.93246 0.27688 0.29761 0.0
H1063 H 0.96276 0.29826 0.32164 0.0
H1064 H 0.95554 0.17774 0.31861 0.0
H1065 H 0.02521 0.23191 0.37838 0.0
H1066 H 0.9657 0.21228 0.2275 0.0
H1067 H 0.93431 0.23173 0.2518 0.0
H1068 H 0.93878 0.18988 0.25649 0.0
H1069 H 0.04915 0.27863 0.29928 0.0
H1070 H 0.04964 0.27591 0.3509 0.0
H1071 H 0.0202 0.29897 0.32672 0.0
C1072 C 0.29859 0.97028 0.29916 0.0
C1073 C 0.29094 0.98772 0.33183 0.0
C1074 C 0.28198 0.97428 0.26485 0.0
C1075 C 0.25666 0.99578 0.2635 0.0
C1076 C 0.24982 0.01459 0.29588 0.0
C1077 C 0.26731 0.01053 0.3297 0.0
C1078 C 0.29049 0.95425 0.23068 0.0
C1079 C 0.22281 0.03749 0.29566 0.0
C1080 C 0.2248 0.01142 0.16372 0.0
C1081 C 0.20219 0.98766 0.16057 0.0
C1082 C 0.24183 0.01555 0.19786 0.0
C1083 C 0.23557 0.9958 0.22956 0.0
C1084 C 0.21113 0.97335 0.22728 0.0
C1085 C 0.19497 0.96932 0.19264 0.0
C1086 C 0.26789 0.03952 0.19907 0.0
C1087 C 0.20325 0.95229 0.26072 0.0
H1088 H 0.31706 0.95282 0.30073 0.0
H1089 H 0.26129 0.02394 0.35505 0.0
H1090 H 0.27155 0.93691 0.22531 0.0
H1091 H 0.29269 0.96895 0.20459 0.0
H1092 H 0.31285 0.94133 0.23506 0.0
H1093 H 0.22322 0.05324 0.32104 0.0
H1094 H 0.2232 0.05202 0.26931 0.0
H1095 H 0.20033 0.02433 0.29573 0.0
H1096 H 0.23049 0.02555 0.13885 0.0
H1097 H 0.17728 0.95112 0.19031 0.0
H1098 H 0.29089 0.02729 0.19857 0.0
H1099 H 0.26688 0.05336 0.22597 0.0
H1100 H 0.26689 0.05586 0.1743 0.0
H1101 H 0.22272 0.93545 0.2655 0.0
H1102 H 0.18131 0.93876 0.25581 0.0
H1103 H 0.20056 0.9663 0.28731 0.0
C1104 C 0.50946 0.79408 0.80351 0.0
C1105 C 0.48262 0.81185 0.79503 0.0
C1106 C 0.51965 0.77035 0.77847 0.0
C1107 C 0.50215 0.76409 0.74482 0.0
C1108 C 0.47721 0.78433 0.73425 0.0
C1109 C 0.46795 0.80815 0.75939 0.0
C1110 C 0.54736 0.75038 0.78982 0.0
C1111 C 0.45804 0.77882 0.69838 0.0
C1112 C 0.51443 0.70673 0.66414 0.0
C1113 C 0.49232 0.68377 0.67421 0.0
C1114 C 0.52127 0.73159 0.68924 0.0
C1115 C 0.50515 0.73357 0.72461 0.0
C1116 C 0.48604 0.70826 0.73675 0.0
C1117 C 0.48008 0.6835 0.71144 0.0
C1118 C 0.5432 0.75721 0.6762 0.0
C1119 C 0.46875 0.70907 0.77453 0.0
H1120 H 0.52125 0.79719 0.83081 0.0
H1121 H 0.44754 0.82224 0.75238 0.0
H1122 H 0.539 0.7299 0.80653 0.0
H1123 H 0.56012 0.74148 0.76432 0.0
H1124 H 0.56398 0.76376 0.80817 0.0
H1125 H 0.44114 0.79814 0.69281 0.0
H1126 H 0.47358 0.77642 0.6731 0.0
H1127 H 0.44461 0.75663 0.70128 0.0
H1128 H 0.52446 0.70674 0.63559 0.0
H1129 H 0.46349 0.66541 0.71965 0.0
H1130 H 0.55606 0.76765 0.70078 0.0
H1131 H 0.52944 0.77611 0.66223 0.0
H1132 H 0.56046 0.74822 0.65501 0.0
H1133 H 0.48497 0.71524 0.79821 0.0
H1134 H 0.45748 0.68624 0.78133 0.0
H1135 H 0.4502 0.72734 0.77342 0.0
C1136 C 0.80779 0.47044 0.70703 0.0
C1137 C 0.80422 0.48667 0.67241 0.0
C1138 C 0.78594 0.47395 0.73669 0.0
C1139 C 0.75987 0.49413 0.73148 0.0
C1140 C 0.75777 0.51279 0.69804 0.0
C1141 C 0.78006 0.50884 0.66878 0.0
C1142 C 0.78934 0.45396 0.77219 0.0
C1143 C 0.73065 0.53496 0.69173 0.0
C1144 C 0.68857 0.46093 0.7811 0.0
C1145 C 0.68932 0.47689 0.81617 0.0
C1146 C 0.71005 0.46807 0.75202 0.0
C1147 C 0.73288 0.49171 0.75828 0.0
C1148 C 0.73203 0.5097 0.79235 0.0
C1149 C 0.71018 0.50205 0.82101 0.0
C1150 C 0.70985 0.44859 0.71584 0.0
C1151 C 0.75563 0.53539 0.79983 0.0
H1152 H 0.82665 0.45355 0.71012 0.0
H1153 H 0.77729 0.52158 0.64211 0.0
H1154 H 0.78609 0.46836 0.79837 0.0
H1155 H 0.7709 0.43556 0.77223 0.0
H1156 H 0.81264 0.44231 0.77374 0.0
H1157 H 0.73576 0.5522 0.6687 0.0
H1158 H 0.70956 0.52132 0.68326 0.0
H1159 H 0.72486 0.54783 0.71844 0.0
H1160 H 0.67225 0.44169 0.77709 0.0
H1161 H 0.71076 0.51457 0.84806 0.0
H1162 H 0.73098 0.43336 0.71523 0.0
H1163 H 0.71075 0.46393 0.69019 0.0
H1164 H 0.6887 0.43343 0.71376 0.0
H1165 H 0.77841 0.52474 0.80813 0.0
H1166 H 0.74795 0.55117 0.82337 0.0
H1167 H 0.75969 0.54959 0.77366 0.0
C1168 C 0.02906 0.80806 0.73582 0.0
C1169 C 0.01517 0.81253 0.69986 0.0
C1170 C 0.01871 0.78419 0.76021 0.0
C1171 C 0.99345 0.76473 0.74856 0.0
C1172 C 0.9767 0.7719 0.71463 0.0
C1173 C 0.98799 0.79562 0.69033 0.0
C1174 C 0.03712 0.77773 0.79644 0.0
C1175 C 0.9486 0.7529 0.70218 0.0
C1176 C 0.01378 0.68354 0.78071 0.0
C1177 C 0.00155 0.68388 0.81793 0.0
C1178 C 0.00818 0.70849 0.75558 0.0
C1179 C 0.98942 0.734 0.76792 0.0
C1180 C 0.97305 0.73196 0.80309 0.0
C1181 C 0.97956 0.70694 0.82804 0.0
C1182 C 0.02564 0.70931 0.71792 0.0
C1183 C 0.9513 0.75772 0.81618 0.0
H1184 H 0.04971 0.82151 0.74363 0.0
H1185 H 0.97678 0.79938 0.6628 0.0
H1186 H 0.02109 0.77563 0.82131 0.0
H1187 H 0.04985 0.75513 0.79353 0.0
H1188 H 0.05455 0.79643 0.80271 0.0
H1189 H 0.93232 0.7673 0.68457 0.0
H1190 H 0.95657 0.73293 0.68427 0.0
H1191 H 0.93559 0.74332 0.72711 0.0
H1192 H 0.03022 0.66534 0.77245 0.0
H1193 H 0.96945 0.70695 0.85655 0.0
H1194 H 0.04447 0.72728 0.71936 0.0
H1195 H 0.00961 0.71589 0.69422 0.0
H1196 H 0.03658 0.68635 0.71092 0.0
H1197 H 0.96513 0.77627 0.83077 0.0
H1198 H 0.93366 0.7487 0.83687 0.0
H1199 H 0.93889 0.7686 0.79156 0.0
C1200 C 0.71444 0.99365 0.67385 0.0
C1201 C 0.69151 0.01723 0.67538 0.0
C1202 C 0.73652 0.99022 0.70351 0.0
C1203 C 0.73547 0.01081 0.73531 0.0
C1204 C 0.71095 0.03312 0.7382 0.0
C1205 C 0.68929 0.03609 0.70815 0.0
C1206 C 0.76213 0.96597 0.69956 0.0
C1207 C 0.70874 0.05528 0.77189 0.0
C1208 C 0.78119 -0.00037 0.82759 0.0
C1209 C 0.80516 0.02192 0.82317 0.0
C1210 C 0.75928 0.99422 0.79823 0.0
C1211 C 0.7615 0.01149 0.76372 0.0
C1212 C 0.78701 0.03232 0.75811 0.0
C1213 C 0.80853 0.03731 0.78794 0.0
C1214 C 0.73261 0.97161 0.80517 0.0
C1215 C 0.79042 0.05094 0.72152 0.0
H1216 H 0.71626 0.979 0.64855 0.0
H1217 H 0.67149 0.05422 0.70956 0.0
H1218 H 0.7846 0.97784 0.69264 0.0
H1219 H 0.76555 0.95314 0.72689 0.0
H1220 H 0.7569 0.94876 0.67649 0.0
H1221 H 0.68675 0.06929 0.77146 0.0
H1222 H 0.70982 0.04205 0.79923 0.0
H1223 H 0.72899 0.07166 0.77148 0.0
H1224 H 0.77853 0.98756 0.85473 0.0
H1225 H 0.82713 0.05441 0.78428 0.0
H1226 H 0.72884 0.95636 0.7798 0.0
H1227 H 0.71061 0.98499 0.80993 0.0
H1228 H 0.73689 0.95656 0.83063 0.0
H1229 H 0.7886 0.03527 0.69623 0.0
H1230 H 0.81315 0.06368 0.72016 0.0
H1231 H 0.7711 0.06832 0.71948 0.0
loop_
_geom_bond_atom_site_label_1
_geom_bond_atom_site_label_2
_geom_bond_distance
_geom_bond_site_symmetry_2
_ccdc_geom_bond_type
In0 O1 2.294 . S
In0 O2 2.326 . S
In0 O6 2.266 . S
In0 O7 2.326 . S
In0 O8 2.266 . S
In0 O9 2.326 . S
In0 O11 2.294 . S
In0 O12 2.326 . S
O1 In0 2.294 . S
O1 C10 1.240 . S
O2 In0 2.326 . S
O2 C10 1.252 . S
C3 O6 1.252 . S
C3 O7 1.260 . S
C4 O11 1.240 . S
C4 O12 1.252 . S
C5 O8 1.252 . S
C5 O9 1.260 . S
O6 In0 2.266 . S
O6 C3 1.252 . S
O7 In0 2.326 . S
O7 C3 1.260 . S
O8 In0 2.266 . S
O8 C5 1.252 . S
O9 In0 2.326 . S
O9 C5 1.260 . S
C10 O1 1.240 . S
C10 O2 1.252 . S
O11 In0 2.294 . S
O11 C4 1.240 . S
O12 In0 2.326 . S
O12 C4 1.252 . S
In13 O14 2.294 . S
In13 O15 2.326 . S
In13 O19 2.266 . S
In13 O20 2.326 . S
In13 O21 2.266 . S
In13 O22 2.326 . S
In13 O24 2.294 . S
In13 O25 2.326 . S
O14 In13 2.294 . S
O14 C23 1.240 . S
O15 In13 2.326 . S
O15 C23 1.252 . S
C16 O19 1.252 . S
C16 O20 1.260 . S
C17 O24 1.240 . S
C17 O25 1.252 . S
C18 O21 1.252 . S
C18 O22 1.260 . S
O19 In13 2.266 . S
O19 C16 1.252 . S
O20 In13 2.326 . S
O20 C16 1.260 . S
O21 In13 2.266 . S
O21 C18 1.252 . S
O22 In13 2.326 . S
O22 C18 1.260 . S
C23 O14 1.240 . S
C23 O15 1.252 . S
O24 In13 2.294 . S
O24 C17 1.240 . S
O25 In13 2.326 . S
O25 C17 1.252 . S
In26 O27 2.294 . S
In26 O28 2.326 . S
In26 O32 2.266 . S
In26 O33 2.326 1_655 S
In26 O34 2.266 . S
In26 O35 2.326 . S
In26 O37 2.294 1_655 S
In26 O38 2.326 . S
O27 In26 2.294 . S
O27 C36 1.240 . S
O28 In26 2.326 . S
O28 C36 1.252 . S
C29 O32 1.252 . S
C29 O33 1.260 1_655 S
C30 O37 1.240 . S
C30 O38 1.252 1_455 S
C31 O34 1.252 . S
C31 O35 1.260 . S
O32 In26 2.266 . S
O32 C29 1.252 . S
O33 In26 2.326 1_455 S
O33 C29 1.260 1_455 S
O34 In26 2.266 . S
O34 C31 1.252 . S
O35 In26 2.326 . S
O35 C31 1.260 . S
C36 O27 1.240 . S
C36 O28 1.252 . S
O37 In26 2.294 1_455 S
O37 C30 1.240 . S
O38 In26 2.326 . S
O38 C30 1.252 1_655 S
In39 O40 2.294 1_565 S
In39 O41 2.326 . S
In39 O45 2.266 . S
In39 O46 2.326 . S
In39 O47 2.266 . S
In39 O48 2.326 1_565 S
In39 O50 2.294 . S
In39 O51 2.326 . S
O40 In39 2.294 1_545 S
O40 C49 1.240 . S
O41 In39 2.326 . S
O41 C49 1.252 1_565 S
C42 O45 1.252 . S
C42 O46 1.260 . S
C43 O50 1.240 . S
C43 O51 1.252 . S
C44 O47 1.252 . S
C44 O48 1.260 1_565 S
O45 In39 2.266 . S
O45 C42 1.252 . S
O46 In39 2.326 . S
O46 C42 1.260 . S
O47 In39 2.266 . S
O47 C44 1.252 . S
O48 In39 2.326 1_545 S
O48 C44 1.260 1_545 S
C49 O40 1.240 . S
C49 O41 1.252 1_545 S
O50 In39 2.294 . S
O50 C43 1.240 . S
O51 In39 2.326 . S
O51 C43 1.252 . S
In52 O53 2.294 . S
In52 O54 2.326 . S
In52 O58 2.266 . S
In52 O59 2.326 . S
In52 O60 2.266 . S
In52 O61 2.326 . S
In52 O63 2.294 . S
In52 O64 2.326 . S
O53 In52 2.294 . S
O53 C62 1.240 . S
O54 In52 2.326 . S
O54 C62 1.252 . S
C55 O58 1.252 . S
C55 O59 1.260 . S
C56 O63 1.240 . S
C56 O64 1.252 . S
C57 O60 1.252 . S
C57 O61 1.260 . S
O58 In52 2.266 . S
O58 C55 1.252 . S
O59 In52 2.326 . S
O59 C55 1.260 . S
O60 In52 2.266 . S
O60 C57 1.252 . S
O61 In52 2.326 . S
O61 C57 1.260 . S
C62 O53 1.240 . S
C62 O54 1.252 . S
O63 In52 2.294 . S
O63 C56 1.240 . S
O64 In52 2.326 . S
O64 C56 1.252 . S
In65 O66 2.294 . S
In65 O67 2.326 . S
In65 O71 2.266 . S
In65 O72 2.326 . S
In65 O73 2.266 . S
In65 O74 2.326 . S
In65 O76 2.294 . S
In65 O77 2.326 . S
O66 In65 2.294 . S
O66 C75 1.240 . S
O67 In65 2.326 . S
O67 C75 1.252 . S
C68 O71 1.252 . S
C68 O72 1.260 . S
C69 O76 1.240 . S
C69 O77 1.252 . S
C70 O73 1.252 . S
C70 O74 1.260 . S
O71 In65 2.266 . S
O71 C68 1.252 . S
O72 In65 2.326 . S
O72 C68 1.260 . S
O73 In65 2.266 . S
O73 C70 1.252 . S
O74 In65 2.326 . S
O74 C70 1.260 . S
C75 O66 1.240 . S
C75 O67 1.252 . S
O76 In65 2.294 . S
O76 C69 1.240 . S
O77 In65 2.326 . S
O77 C69 1.252 . S
In78 O79 2.294 1_655 S
In78 O80 2.326 . S
In78 O84 2.266 . S
In78 O85 2.326 . S
In78 O86 2.266 . S
In78 O87 2.326 1_655 S
In78 O89 2.294 . S
In78 O90 2.326 . S
O79 In78 2.294 1_455 S
O79 C88 1.240 . S
O80 In78 2.326 . S
O80 C88 1.252 1_655 S
C81 O84 1.252 . S
C81 O85 1.260 . S
C82 O89 1.240 . S
C82 O90 1.252 . S
C83 O86 1.252 . S
C83 O87 1.260 1_655 S
O84 In78 2.266 . S
O84 C81 1.252 . S
O85 In78 2.326 . S
O85 C81 1.260 . S
O86 In78 2.266 . S
O86 C83 1.252 . S
O87 In78 2.326 1_455 S
O87 C83 1.260 1_455 S
C88 O79 1.240 . S
C88 O80 1.252 1_455 S
O89 In78 2.294 . S
O89 C82 1.240 . S
O90 In78 2.326 . S
O90 C82 1.252 . S
In91 O92 2.294 . S
In91 O93 2.326 . S
In91 O97 2.266 . S
In91 O98 2.326 1_565 S
In91 O99 2.266 . S
In91 O100 2.326 . S
In91 O102 2.294 1_565 S
In91 O103 2.326 . S
O92 In91 2.294 . S
O92 C101 1.240 . S
O93 In91 2.326 . S
O93 C101 1.252 . S
C94 O97 1.252 . S
C94 O98 1.260 1_565 S
C95 O102 1.240 . S
C95 O103 1.252 1_545 S
C96 O99 1.252 . S
C96 O100 1.260 . S
O97 In91 2.266 . S
O97 C94 1.252 . S
O98 In91 2.326 1_545 S
O98 C94 1.260 1_545 S
O99 In91 2.266 . S
O99 C96 1.252 . S
O100 In91 2.326 . S
O100 C96 1.260 . S
C101 O92 1.240 . S
C101 O93 1.252 . S
O102 In91 2.294 1_545 S
O102 C95 1.240 . S
O103 In91 2.326 . S
O103 C95 1.252 1_565 S
In104 O105 2.294 . S
In104 O106 2.326 . S
In104 O110 2.266 . S
In104 O111 2.326 . S
In104 O112 2.266 . S
In104 O113 2.326 . S
In104 O115 2.294 . S
In104 O116 2.326 . S
O105 In104 2.294 . S
O105 C114 1.240 . S
O106 In104 2.326 . S
O106 C114 1.252 . S
C107 O110 1.252 . S
C107 O111 1.260 . S
C108 O115 1.240 . S
C108 O116 1.252 . S
C109 O112 1.252 . S
C109 O113 1.260 . S
O110 In104 2.266 . S
O110 C107 1.252 . S
O111 In104 2.326 . S
O111 C107 1.260 . S
O112 In104 2.266 . S
O112 C109 1.252 . S
O113 In104 2.326 . S
O113 C109 1.260 . S
C114 O105 1.240 . S
C114 O106 1.252 . S
O115 In104 2.294 . S
O115 C108 1.240 . S
O116 In104 2.326 . S
O116 C108 1.252 . S
In117 O118 2.294 . S
In117 O119 2.326 . S
In117 O123 2.266 . S
In117 O124 2.326 . S
In117 O125 2.266 . S
In117 O126 2.326 . S
In117 O128 2.294 . S
In117 O129 2.326 . S
O118 In117 2.294 . S
O118 C127 1.240 . S
O119 In117 2.326 . S
O119 C127 1.252 . S
C120 O123 1.252 . S
C120 O124 1.260 . S
C121 O128 1.240 . S
C121 O129 1.252 . S
C122 O125 1.252 . S
C122 O126 1.260 . S
O123 In117 2.266 . S
O123 C120 1.252 . S
O124 In117 2.326 . S
O124 C120 1.260 . S
O125 In117 2.266 . S
O125 C122 1.252 . S
O126 In117 2.326 . S
O126 C122 1.260 . S
C127 O118 1.240 . S
C127 O119 1.252 . S
O128 In117 2.294 . S
O128 C121 1.240 . S
O129 In117 2.326 . S
O129 C121 1.252 . S
In130 O131 2.294 . S
In130 O132 2.326 . S
In130 O136 2.266 . S
In130 O137 2.326 1_455 S
In130 O138 2.266 . S
In130 O139 2.326 . S
In130 O141 2.294 1_455 S
In130 O142 2.326 . S
O131 In130 2.294 . S
O131 C140 1.240 . S
O132 In130 2.326 . S
O132 C140 1.252 . S
C133 O136 1.252 . S
C133 O137 1.260 1_455 S
C134 O141 1.240 . S
C134 O142 1.252 1_655 S
C135 O138 1.252 . S
C135 O139 1.260 . S
O136 In130 2.266 . S
O136 C133 1.252 . S
O137 In130 2.326 1_655 S
O137 C133 1.260 1_655 S
O138 In130 2.266 . S
O138 C135 1.252 . S
O139 In130 2.326 . S
O139 C135 1.260 . S
C140 O131 1.240 . S
C140 O132 1.252 . S
O141 In130 2.294 1_655 S
O141 C134 1.240 . S
O142 In130 2.326 . S
O142 C134 1.252 1_455 S
In143 O144 2.294 1_545 S
In143 O145 2.326 . S
In143 O149 2.266 . S
In143 O150 2.326 . S
In143 O151 2.266 . S
In143 O152 2.326 1_545 S
In143 O154 2.294 . S
In143 O155 2.326 . S
O144 In143 2.294 1_565 S
O144 C153 1.240 . S
O145 In143 2.326 . S
O145 C153 1.252 1_545 S
C146 O149 1.252 . S
C146 O150 1.260 . S
C147 O154 1.240 . S
C147 O155 1.252 . S
C148 O151 1.252 . S
C148 O152 1.260 1_545 S
O149 In143 2.266 . S
O149 C146 1.252 . S
O150 In143 2.326 . S
O150 C146 1.260 . S
O151 In143 2.266 . S
O151 C148 1.252 . S
O152 In143 2.326 1_565 S
O152 C148 1.260 1_565 S
C153 O144 1.240 . S
C153 O145 1.252 1_565 S
O154 In143 2.294 . S
O154 C147 1.240 . S
O155 In143 2.326 . S
O155 C147 1.252 . S
In156 O157 2.294 . S
In156 O158 2.326 . S
In156 O162 2.266 . S
In156 O163 2.326 . S
In156 O164 2.266 . S
In156 O165 2.326 . S
In156 O167 2.294 . S
In156 O168 2.326 . S
O157 In156 2.294 . S
O157 C166 1.240 . S
O158 In156 2.326 . S
O158 C166 1.252 . S
C159 O162 1.252 . S
C159 O163 1.260 . S
C160 O167 1.240 . S
C160 O168 1.252 . S
C161 O164 1.252 . S
C161 O165 1.260 . S
O162 In156 2.266 . S
O162 C159 1.252 . S
O163 In156 2.326 . S
O163 C159 1.260 . S
O164 In156 2.266 . S
O164 C161 1.252 . S
O165 In156 2.326 . S
O165 C161 1.260 . S
C166 O157 1.240 . S
C166 O158 1.252 . S
O167 In156 2.294 . S
O167 C160 1.240 . S
O168 In156 2.326 . S
O168 C160 1.252 . S
In169 O170 2.294 . S
In169 O171 2.326 . S
In169 O175 2.266 . S
In169 O176 2.326 . S
In169 O177 2.266 . S
In169 O178 2.326 . S
In169 O180 2.294 . S
In169 O181 2.326 . S
O170 In169 2.294 . S
O170 C179 1.240 . S
O171 In169 2.326 . S
O171 C179 1.252 . S
C172 O175 1.252 . S
C172 O176 1.260 . S
C173 O180 1.240 . S
C173 O181 1.252 . S
C174 O177 1.252 . S
C174 O178 1.260 . S
O175 In169 2.266 . S
O175 C172 1.252 . S
O176 In169 2.326 . S
O176 C172 1.260 . S
O177 In169 2.266 . S
O177 C174 1.252 . S
O178 In169 2.326 . S
O178 C174 1.260 . S
C179 O170 1.240 . S
C179 O171 1.252 . S
O180 In169 2.294 . S
O180 C173 1.240 . S
O181 In169 2.326 . S
O181 C173 1.252 . S
In182 O183 2.294 1_455 S
In182 O184 2.326 . S
In182 O188 2.266 . S
In182 O189 2.326 . S
In182 O190 2.266 . S
In182 O191 2.326 1_455 S
In182 O193 2.294 . S
In182 O194 2.326 . S
O183 In182 2.294 1_655 S
O183 C192 1.240 . S
O184 In182 2.326 . S
O184 C192 1.252 1_455 S
C185 O188 1.252 . S
C185 O189 1.260 . S
C186 O193 1.240 . S
C186 O194 1.252 . S
C187 O190 1.252 . S
C187 O191 1.260 1_455 S
O188 In182 2.266 . S
O188 C185 1.252 . S
O189 In182 2.326 . S
O189 C185 1.260 . S
O190 In182 2.266 . S
O190 C187 1.252 . S
O191 In182 2.326 1_655 S
O191 C187 1.260 1_655 S
C192 O183 1.240 . S
C192 O184 1.252 1_655 S
O193 In182 2.294 . S
O193 C186 1.240 . S
O194 In182 2.326 . S
O194 C186 1.252 . S
In195 O196 2.294 . S
In195 O197 2.326 . S
In195 O201 2.266 . S
In195 O202 2.326 1_545 S
In195 O203 2.266 . S
In195 O204 2.326 . S
In195 O206 2.294 1_545 S
In195 O207 2.326 . S
O196 In195 2.294 . S
O196 C205 1.240 . S
O197 In195 2.326 . S
O197 C205 1.252 . S
C198 O201 1.252 . S
C198 O202 1.260 1_545 S
C199 O206 1.240 . S
C199 O207 1.252 1_565 S
C200 O203 1.252 . S
C200 O204 1.260 . S
O201 In195 2.266 . S
O201 C198 1.252 . S
O202 In195 2.326 1_565 S
O202 C198 1.260 1_565 S
O203 In195 2.266 . S
O203 C200 1.252 . S
O204 In195 2.326 . S
O204 C200 1.260 . S
C205 O196 1.240 . S
C205 O197 1.252 . S
O206 In195 2.294 1_565 S
O206 C199 1.240 . S
O207 In195 2.326 . S
O207 C199 1.252 1_545 S
C208 C209 1.391 1_556 S
C208 C210 1.394 . S
C208 H224 0.931 . S
C209 C208 1.391 1_554 S
C209 C213 1.376 . S
C210 C208 1.394 . S
C210 C211 1.369 . S
C210 C214 1.531 . S
C211 C210 1.369 . S
C211 C212 1.410 1_556 S
C211 C219 1.503 . S
C212 C211 1.410 1_554 S
C212 C213 1.392 . S
C212 C215 1.511 . S
C213 C209 1.376 . S
C213 C212 1.392 . S
C213 H225 0.929 . S
C214 C210 1.531 . S
C214 H226 0.960 . S
C214 H227 0.962 . S
C214 H228 0.960 . S
C215 C212 1.511 . S
C215 H229 0.961 . S
C215 H230 0.961 . S
C215 H231 0.961 . S
C216 C217 1.370 1_554 S
C216 C218 1.363 . S
C216 H232 0.931 . S
C217 C216 1.370 1_556 S
C217 C221 1.408 . S
C218 C216 1.363 . S
C218 C219 1.370 1_554 S
C218 C222 1.524 . S
C219 C211 1.503 . S
C219 C218 1.370 1_556 S
C219 C220 1.403 . S
C220 C219 1.403 . S
C220 C221 1.404 . S
C220 C223 1.539 . S
C221 C217 1.408 . S
C221 C220 1.404 . S
C221 H233 0.930 . S
C222 C218 1.524 . S
C222 H234 0.956 . S
C222 H235 0.961 . S
C222 H236 0.961 . S
C223 C220 1.539 . S
C223 H237 0.958 . S
C223 H238 0.961 . S
C223 H239 0.960 . S
H224 C208 0.931 . S
H225 C213 0.929 . S
H226 C214 0.960 . S
H227 C214 0.962 . S
H228 C214 0.960 . S
H229 C215 0.961 . S
H230 C215 0.961 . S
H231 C215 0.961 . S
H232 C216 0.931 . S
H233 C221 0.930 . S
H234 C222 0.956 . S
H235 C222 0.961 . S
H236 C222 0.961 . S
H237 C223 0.958 . S
H238 C223 0.961 . S
H239 C223 0.960 . S
C240 C241 1.391 1_554 S
C240 C242 1.394 . S
C240 H256 0.931 . S
C241 C240 1.391 1_556 S
C241 C245 1.376 . S
C242 C240 1.394 . S
C242 C243 1.369 1_554 S
C242 C246 1.531 . S
C243 C242 1.369 1_556 S
C243 C244 1.410 . S
C243 C251 1.508 . S
C244 C243 1.410 . S
C244 C245 1.392 . S
C244 C247 1.511 . S
C245 C241 1.376 . S
C245 C244 1.392 . S
C245 H257 0.929 . S
C246 C242 1.531 . S
C246 H258 0.960 . S
C246 H259 0.962 . S
C246 H260 0.960 . S
C247 C244 1.511 . S
C247 H261 0.961 . S
C247 H262 0.961 . S
C247 H263 0.961 . S
C248 C249 1.370 . S
C248 C250 1.363 . S
C248 H264 0.931 . S
C249 C248 1.370 . S
C249 C253 1.408 1_554 S
C250 C248 1.363 . S
C250 C251 1.357 1_554 S
C250 C254 1.524 . S
C251 C243 1.508 . S
C251 C250 1.357 1_556 S
C251 C252 1.412 . S
C252 C251 1.412 . S
C252 C253 1.404 . S
C252 C255 1.539 . S
C253 C249 1.408 1_556 S
C253 C252 1.404 . S
C253 H265 0.930 . S
C254 C250 1.524 . S
C254 H266 0.956 . S
C254 H267 0.961 . S
C254 H268 0.961 . S
C255 C252 1.539 . S
C255 H269 0.958 . S
C255 H270 0.961 . S
C255 H271 0.960 . S
H256 C240 0.931 . S
H257 C245 0.929 . S
H258 C246 0.960 . S
H259 C246 0.962 . S
H260 C246 0.960 . S
H261 C247 0.961 . S
H262 C247 0.961 . S
H263 C247 0.961 . S
H264 C248 0.931 . S
H265 C253 0.930 . S
H266 C254 0.956 . S
H267 C254 0.961 . S
H268 C254 0.961 . S
H269 C255 0.958 . S
H270 C255 0.961 . S
H271 C255 0.960 . S
C272 C273 1.391 . S
C272 C274 1.394 . S
C272 H288 0.931 1_556 S
C273 C272 1.391 . S
C273 C277 1.376 . S
C274 C272 1.394 . S
C274 C275 1.369 . S
C274 C278 1.531 1_556 S
C275 C274 1.369 . S
C275 C276 1.410 . S
C275 C283 1.503 . S
C276 C275 1.410 . S
C276 C277 1.392 . S
C276 C279 1.511 . S
C277 C273 1.376 . S
C277 C276 1.392 . S
C277 H289 0.929 . S
C278 C274 1.531 1_554 S
C278 H290 0.960 . S
C278 H291 0.962 . S
C278 H292 0.960 . S
C279 C276 1.511 . S
C279 H293 0.961 . S
C279 H294 0.961 . S
C279 H295 0.961 . S
C280 C281 1.370 . S
C280 C282 1.363 . S
C280 H296 0.931 . S
C281 C280 1.370 . S
C281 C285 1.408 1_554 S
C282 C280 1.363 . S
C282 C283 1.370 1_554 S
C282 C286 1.524 . S
C283 C275 1.503 . S
C283 C282 1.370 1_556 S
C283 C284 1.403 . S
C284 C283 1.403 . S
C284 C285 1.404 . S
C284 C287 1.539 . S
C285 C281 1.408 1_556 S
C285 C284 1.404 . S
C285 H297 0.930 . S
C286 C282 1.524 . S
C286 H298 0.956 . S
C286 H299 0.961 . S
C286 H300 0.961 . S
C287 C284 1.539 . S
C287 H301 0.958 . S
C287 H302 0.961 . S
C287 H303 0.960 . S
H288 C272 0.931 1_554 S
H289 C277 0.929 . S
H290 C278 0.960 . S
H291 C278 0.962 . S
H292 C278 0.960 . S
H293 C279 0.961 . S
H294 C279 0.961 . S
H295 C279 0.961 . S
H296 C280 0.931 . S
H297 C285 0.930 . S
H298 C286 0.956 . S
H299 C286 0.961 . S
H300 C286 0.961 . S
H301 C287 0.958 . S
H302 C287 0.961 . S
H303 C287 0.960 . S
C304 C305 1.391 . S
C304 C306 1.394 . S
C304 H320 0.931 . S
C305 C304 1.391 . S
C305 C309 1.376 . S
C306 C304 1.394 . S
C306 C307 1.369 . S
C306 C310 1.531 . S
C307 C306 1.369 . S
C307 C308 1.410 . S
C307 C315 1.503 . S
C308 C307 1.410 . S
C308 C309 1.392 . S
C308 C311 1.517 . S
C309 C305 1.376 . S
C309 C308 1.392 . S
C309 H321 0.929 . S
C310 C306 1.531 . S
C310 H322 0.960 . S
C310 H323 0.962 . S
C310 H324 0.960 . S
C311 C308 1.517 . S
C311 H325 0.946 1_556 S
C311 H326 0.944 1_556 S
C311 H327 0.988 . S
C312 C313 1.370 . S
C312 C314 1.363 . S
C312 H328 0.931 . S
C313 C312 1.370 . S
C313 C317 1.408 1_554 S
C314 C312 1.363 . S
C314 C315 1.370 1_554 S
C314 C318 1.524 . S
C315 C307 1.503 . S
C315 C314 1.370 1_556 S
C315 C316 1.403 . S
C316 C315 1.403 . S
C316 C317 1.404 . S
C316 C319 1.539 . S
C317 C313 1.408 1_556 S
C317 C316 1.404 . S
C317 H329 0.930 . S
C318 C314 1.524 . S
C318 H330 0.956 . S
C318 H331 0.961 . S
C318 H332 0.961 . S
C319 C316 1.539 . S
C319 H333 0.958 . S
C319 H334 0.961 . S
C319 H335 0.960 . S
H320 C304 0.931 . S
H321 C309 0.929 . S
H322 C310 0.960 . S
H323 C310 0.962 . S
H324 C310 0.960 . S
H325 C311 0.946 1_554 S
H326 C311 0.944 1_554 S
H327 C311 0.988 . S
H328 C312 0.931 . S
H329 C317 0.930 . S
H330 C318 0.956 . S
H331 C318 0.961 . S
H332 C318 0.961 . S
H333 C319 0.958 . S
H334 C319 0.961 . S
H335 C319 0.960 . S
C336 C337 1.391 . S
C336 C338 1.394 . S
C336 H352 0.931 . S
C337 C336 1.391 . S
C337 C341 1.376 . S
C338 C336 1.394 . S
C338 C339 1.369 . S
C338 C342 1.531 . S
C339 C338 1.369 . S
C339 C340 1.410 . S
C339 C347 1.503 . S
C340 C339 1.410 . S
C340 C341 1.392 . S
C340 C343 1.511 . S
C341 C337 1.376 . S
C341 C340 1.392 . S
C341 H353 0.929 . S
C342 C338 1.531 . S
C342 H354 0.960 . S
C342 H355 0.962 . S
C342 H356 0.960 . S
C343 C340 1.511 . S
C343 H357 0.961 . S
C343 H358 0.961 . S
C343 H359 0.961 . S
C344 C345 1.370 . S
C344 C346 1.363 . S
C344 H360 0.931 . S
C345 C344 1.370 . S
C345 C349 1.408 . S
C346 C344 1.363 . S
C346 C347 1.370 . S
C346 C350 1.524 . S
C347 C339 1.503 . S
C347 C346 1.370 . S
C347 C348 1.403 . S
C348 C347 1.403 . S
C348 C349 1.404 . S
C348 C351 1.539 . S
C349 C345 1.408 . S
C349 C348 1.404 . S
C349 H361 0.930 . S
C350 C346 1.524 . S
C350 H362 0.956 . S
C350 H363 0.961 . S
C350 H364 0.961 . S
C351 C348 1.539 . S
C351 H365 0.958 . S
C351 H366 0.961 . S
C351 H367 0.960 . S
H352 C336 0.931 . S
H353 C341 0.929 . S
H354 C342 0.960 . S
H355 C342 0.962 . S
H356 C342 0.960 . S
H357 C343 0.961 . S
H358 C343 0.961 . S
H359 C343 0.961 . S
H360 C344 0.931 . S
H361 C349 0.930 . S
H362 C350 0.956 . S
H363 C350 0.961 . S
H364 C350 0.961 . S
H365 C351 0.958 . S
H366 C351 0.961 . S
H367 C351 0.960 . S
C368 C369 1.391 . S
C368 C370 1.394 . S
C368 H384 0.931 . S
C369 C368 1.391 . S
C369 C373 1.376 . S
C370 C368 1.394 . S
C370 C371 1.369 . S
C370 C374 1.531 . S
C371 C370 1.369 . S
C371 C372 1.410 . S
C371 C379 1.503 . S
C372 C371 1.410 . S
C372 C373 1.392 . S
C372 C375 1.511 . S
C373 C369 1.376 . S
C373 C372 1.392 . S
C373 H385 0.929 . S
C374 C370 1.531 . S
C374 H386 0.960 . S
C374 H387 0.962 . S
C374 H388 0.960 . S
C375 C372 1.511 . S
C375 H389 0.961 . S
C375 H390 0.961 . S
C375 H391 0.961 . S
C376 C377 1.370 . S
C376 C378 1.363 . S
C376 H392 0.931 . S
C377 C376 1.370 . S
C377 C381 1.408 . S
C378 C376 1.363 . S
C378 C379 1.370 . S
C378 C382 1.524 . S
C379 C371 1.503 . S
C379 C378 1.370 . S
C379 C380 1.403 . S
C380 C379 1.403 . S
C380 C381 1.404 . S
C380 C383 1.539 . S
C381 C377 1.408 . S
C381 C380 1.404 . S
C381 H393 0.930 . S
C382 C378 1.524 . S
C382 H394 0.956 . S
C382 H395 0.961 . S
C382 H396 0.961 . S
C383 C380 1.539 . S
C383 H397 0.958 . S
C383 H398 0.961 . S
C383 H399 0.960 . S
H384 C368 0.931 . S
H385 C373 0.929 . S
H386 C374 0.960 . S
H387 C374 0.962 . S
H388 C374 0.960 . S
H389 C375 0.961 . S
H390 C375 0.961 . S
H391 C375 0.961 . S
H392 C376 0.931 . S
H393 C381 0.930 . S
H394 C382 0.956 . S
H395 C382 0.961 . S
H396 C382 0.961 . S
H397 C383 0.958 . S
H398 C383 0.961 . S
H399 C383 0.960 . S
C400 C401 1.391 . S
C400 C402 1.394 . S
C400 H416 0.931 . S
C401 C400 1.391 . S
C401 C405 1.376 . S
C402 C400 1.394 . S
C402 C403 1.369 . S
C402 C406 1.531 . S
C403 C402 1.369 . S
C403 C404 1.410 . S
C403 C411 1.503 . S
C404 C403 1.410 . S
C404 C405 1.392 . S
C404 C407 1.511 . S
C405 C401 1.376 . S
C405 C404 1.392 . S
C405 H417 0.929 . S
C406 C402 1.531 . S
C406 H418 0.960 . S
C406 H419 0.962 . S
C406 H420 0.960 . S
C407 C404 1.511 . S
C407 H421 0.961 . S
C407 H422 0.961 . S
C407 H423 0.961 . S
C408 C409 1.370 . S
C408 C410 1.363 . S
C408 H424 0.931 . S
C409 C408 1.370 . S
C409 C413 1.408 . S
C410 C408 1.363 . S
C410 C411 1.370 . S
C410 C414 1.524 . S
C411 C403 1.503 . S
C411 C410 1.370 . S
C411 C412 1.403 . S
C412 C411 1.403 . S
C412 C413 1.404 . S
C412 C415 1.539 . S
C413 C409 1.408 . S
C413 C412 1.404 . S
C413 H425 0.930 . S
C414 C410 1.524 . S
C414 H426 0.956 . S
C414 H427 0.961 . S
C414 H428 0.961 . S
C415 C412 1.539 . S
C415 H429 0.958 . S
C415 H430 0.961 . S
C415 H431 0.960 . S
H416 C400 0.931 . S
H417 C405 0.929 . S
H418 C406 0.960 . S
H419 C406 0.962 . S
H420 C406 0.960 . S
H421 C407 0.961 . S
H422 C407 0.961 . S
H423 C407 0.961 . S
H424 C408 0.931 . S
H425 C413 0.930 . S
H426 C414 0.956 . S
H427 C414 0.961 . S
H428 C414 0.961 . S
H429 C415 0.958 . S
H430 C415 0.961 . S
H431 C415 0.960 . S
C432 C433 1.391 . S
C432 C434 1.394 . S
C432 H448 0.931 . S
C433 C432 1.391 . S
C433 C437 1.376 . S
C434 C432 1.394 . S
C434 C435 1.369 . S
C434 C438 1.531 . S
C435 C434 1.369 . S
C435 C436 1.410 . S
C435 C443 1.503 . S
C436 C435 1.410 . S
C436 C437 1.392 . S
C436 C439 1.511 . S
C437 C433 1.376 . S
C437 C436 1.392 . S
C437 H449 0.929 . S
C438 C434 1.531 . S
C438 H450 0.960 . S
C438 H451 0.962 . S
C438 H452 0.960 . S
C439 C436 1.511 . S
C439 H453 0.961 . S
C439 H454 0.961 . S
C439 H455 0.961 . S
C440 C441 1.370 . S
C440 C442 1.363 . S
C440 H456 0.931 . S
C441 C440 1.370 . S
C441 C445 1.408 . S
C442 C440 1.363 . S
C442 C443 1.370 . S
C442 C446 1.524 . S
C443 C435 1.503 . S
C443 C442 1.370 . S
C443 C444 1.403 . S
C444 C443 1.403 . S
C444 C445 1.404 . S
C444 C447 1.539 . S
C445 C441 1.408 . S
C445 C444 1.404 . S
C445 H457 0.930 . S
C446 C442 1.524 . S
C446 H458 0.956 . S
C446 H459 0.961 . S
C446 H460 0.961 . S
C447 C444 1.539 . S
C447 H461 0.958 . S
C447 H462 0.961 . S
C447 H463 0.960 . S
H448 C432 0.931 . S
H449 C437 0.929 . S
H450 C438 0.960 . S
H451 C438 0.962 . S
H452 C438 0.960 . S
H453 C439 0.961 . S
H454 C439 0.961 . S
H455 C439 0.961 . S
H456 C440 0.931 . S
H457 C445 0.930 . S
H458 C446 0.956 . S
H459 C446 0.961 . S
H460 C446 0.961 . S
H461 C447 0.958 . S
H462 C447 0.961 . S
H463 C447 0.960 . S
C464 C465 1.391 1_554 S
C464 C466 1.394 . S
C464 H480 0.931 . S
C465 C464 1.391 1_556 S
C465 C469 1.376 . S
C466 C464 1.394 . S
C466 C467 1.369 . S
C466 C470 1.531 . S
C467 C466 1.369 . S
C467 C468 1.410 1_554 S
C467 C475 1.503 . S
C468 C467 1.410 1_556 S
C468 C469 1.392 . S
C468 C471 1.511 . S
C469 C465 1.376 . S
C469 C468 1.392 . S
C469 H481 0.929 . S
C470 C466 1.531 . S
C470 H482 0.960 . S
C470 H483 0.962 . S
C470 H484 0.960 . S
C471 C468 1.511 . S
C471 H485 0.961 . S
C471 H486 0.961 . S
C471 H487 0.961 . S
C472 C473 1.370 1_556 S
C472 C474 1.363 . S
C472 H488 0.931 . S
C473 C472 1.370 1_554 S
C473 C477 1.408 . S
C474 C472 1.363 . S
C474 C475 1.370 1_556 S
C474 C478 1.524 . S
C475 C467 1.503 . S
C475 C474 1.370 1_554 S
C475 C476 1.403 . S
C476 C475 1.403 . S
C476 C477 1.404 . S
C476 C479 1.539 . S
C477 C473 1.408 . S
C477 C476 1.404 . S
C477 H489 0.930 . S
C478 C474 1.524 . S
C478 H490 0.956 . S
C478 H491 0.961 . S
C478 H492 0.961 . S
C479 C476 1.539 . S
C479 H493 0.958 . S
C479 H494 0.961 . S
C479 H495 0.960 . S
H480 C464 0.931 . S
H481 C469 0.929 . S
H482 C470 0.960 . S
H483 C470 0.962 . S
H484 C470 0.960 . S
H485 C471 0.961 . S
H486 C471 0.961 . S
H487 C471 0.961 . S
H488 C472 0.931 . S
H489 C477 0.930 . S
H490 C478 0.956 . S
H491 C478 0.961 . S
H492 C478 0.961 . S
H493 C479 0.958 . S
H494 C479 0.961 . S
H495 C479 0.960 . S
C496 C497 1.391 . S
C496 C498 1.394 . S
C496 H512 0.931 . S
C497 C496 1.391 . S
C497 C501 1.376 1_556 S
C498 C496 1.394 . S
C498 C499 1.369 1_556 S
C498 C502 1.531 . S
C499 C498 1.369 1_554 S
C499 C500 1.410 . S
C499 C507 1.503 . S
C500 C499 1.410 . S
C500 C501 1.392 . S
C500 C503 1.511 . S
C501 C497 1.376 1_554 S
C501 C500 1.392 . S
C501 H513 0.929 . S
C502 C498 1.531 . S
C502 H514 0.960 . S
C502 H515 0.962 . S
C502 H516 0.960 . S
C503 C500 1.511 . S
C503 H517 0.961 . S
C503 H518 0.961 . S
C503 H519 0.961 . S
C504 C505 1.370 1_556 S
C504 C506 1.363 . S
C504 H520 0.931 . S
C505 C504 1.370 1_554 S
C505 C509 1.408 . S
C506 C504 1.363 . S
C506 C507 1.370 1_556 S
C506 C510 1.524 . S
C507 C499 1.503 . S
C507 C506 1.370 1_554 S
C507 C508 1.403 . S
C508 C507 1.403 . S
C508 C509 1.404 . S
C508 C511 1.539 . S
C509 C505 1.408 . S
C509 C508 1.404 . S
C509 H521 0.930 . S
C510 C506 1.524 . S
C510 H522 0.956 . S
C510 H523 0.961 . S
C510 H524 0.961 . S
C511 C508 1.539 . S
C511 H525 0.958 . S
C511 H526 0.961 . S
C511 H527 0.960 . S
H512 C496 0.931 . S
H513 C501 0.929 . S
H514 C502 0.960 . S
H515 C502 0.962 . S
H516 C502 0.960 . S
H517 C503 0.961 . S
H518 C503 0.961 . S
H519 C503 0.961 . S
H520 C504 0.931 . S
H521 C509 0.930 . S
H522 C510 0.956 . S
H523 C510 0.961 . S
H524 C510 0.961 . S
H525 C511 0.958 . S
H526 C511 0.961 . S
H527 C511 0.960 . S
C528 C529 1.391 . S
C528 C530 1.394 . S
C528 H544 0.931 . S
C529 C528 1.391 . S
C529 C533 1.376 . S
C530 C528 1.394 . S
C530 C531 1.369 . S
C530 C534 1.531 . S
C531 C530 1.369 . S
C531 C532 1.410 1_556 S
C531 C539 1.503 . S
C532 C531 1.410 1_554 S
C532 C533 1.392 1_554 S
C532 C535 1.511 . S
C533 C529 1.376 . S
C533 C532 1.392 1_556 S
C533 H545 0.929 1_556 S
C534 C530 1.531 . S
C534 H546 0.960 . S
C534 H547 0.962 . S
C534 H548 0.960 . S
C535 C532 1.511 . S
C535 H549 0.961 . S
C535 H550 0.961 . S
C535 H551 0.961 . S
C536 C537 1.370 . S
C536 C538 1.363 . S
C536 H552 0.931 . S
C537 C536 1.370 . S
C537 C541 1.408 1_554 S
C538 C536 1.363 . S
C538 C539 1.370 1_554 S
C538 C542 1.524 . S
C539 C531 1.503 . S
C539 C538 1.370 1_556 S
C539 C540 1.403 . S
C540 C539 1.403 . S
C540 C541 1.404 . S
C540 C543 1.539 . S
C541 C537 1.408 1_556 S
C541 C540 1.404 . S
C541 H553 0.930 . S
C542 C538 1.524 . S
C542 H554 0.956 . S
C542 H555 0.961 . S
C542 H556 0.961 . S
C543 C540 1.539 . S
C543 H557 0.958 . S
C543 H558 0.961 . S
C543 H559 0.960 . S
H544 C528 0.931 . S
H545 C533 0.929 1_554 S
H546 C534 0.960 . S
H547 C534 0.962 . S
H548 C534 0.960 . S
H549 C535 0.961 . S
H550 C535 0.961 . S
H551 C535 0.961 . S
H552 C536 0.931 . S
H553 C541 0.930 . S
H554 C542 0.956 . S
H555 C542 0.961 . S
H556 C542 0.961 . S
H557 C543 0.958 . S
H558 C543 0.961 . S
H559 C543 0.960 . S
C560 C561 1.391 . S
C560 C562 1.394 . S
C560 H576 0.931 . S
C561 C560 1.391 . S
C561 C565 1.376 1_554 S
C562 C560 1.394 . S
C562 C563 1.369 . S
C562 C566 1.531 . S
C563 C562 1.369 . S
C563 C564 1.410 1_554 S
C563 C571 1.503 . S
C564 C563 1.410 1_556 S
C564 C565 1.392 . S
C564 C567 1.511 . S
C565 C561 1.376 1_556 S
C565 C564 1.392 . S
C565 H577 0.929 . S
C566 C562 1.531 . S
C566 H578 0.960 . S
C566 H579 0.962 . S
C566 H580 0.960 . S
C567 C564 1.511 . S
C567 H581 0.961 . S
C567 H582 0.961 . S
C567 H583 0.961 . S
C568 C569 1.370 . S
C568 C570 1.363 . S
C568 H584 0.931 . S
C569 C568 1.370 . S
C569 C573 1.408 1_556 S
C570 C568 1.363 . S
C570 C571 1.370 1_556 S
C570 C574 1.524 . S
C571 C563 1.503 . S
C571 C570 1.370 1_554 S
C571 C572 1.403 . S
C572 C571 1.403 . S
C572 C573 1.404 . S
C572 C575 1.539 . S
C573 C569 1.408 1_554 S
C573 C572 1.404 . S
C573 H585 0.930 . S
C574 C570 1.524 . S
C574 H586 0.956 . S
C574 H587 0.961 . S
C574 H588 0.961 . S
C575 C572 1.539 . S
C575 H589 0.958 . S
C575 H590 0.961 . S
C575 H591 0.960 . S
H576 C560 0.931 . S
H577 C565 0.929 . S
H578 C566 0.960 . S
H579 C566 0.962 . S
H580 C566 0.960 . S
H581 C567 0.961 . S
H582 C567 0.961 . S
H583 C567 0.961 . S
H584 C568 0.931 . S
H585 C573 0.930 . S
H586 C574 0.956 . S
H587 C574 0.961 . S
H588 C574 0.961 . S
H589 C575 0.958 . S
H590 C575 0.961 . S
H591 C575 0.960 . S
C592 C593 1.391 . S
C592 C594 1.394 . S
C592 H608 0.931 . S
C593 C592 1.391 . S
C593 C597 1.376 . S
C594 C592 1.394 . S
C594 C595 1.369 . S
C594 C598 1.531 . S
C595 C594 1.369 . S
C595 C596 1.410 . S
C595 C603 1.503 . S
C596 C595 1.410 . S
C596 C597 1.392 . S
C596 C599 1.511 . S
C597 C593 1.376 . S
C597 C596 1.392 . S
C597 H609 0.929 . S
C598 C594 1.531 . S
C598 H610 0.960 . S
C598 H611 0.962 . S
C598 H612 0.960 . S
C599 C596 1.511 . S
C599 H613 0.961 . S
C599 H614 0.961 . S
C599 H615 0.961 . S
C600 C601 1.370 . S
C600 C602 1.363 . S
C600 H616 0.931 . S
C601 C600 1.370 . S
C601 C605 1.408 . S
C602 C600 1.363 . S
C602 C603 1.370 . S
C602 C606 1.524 . S
C603 C595 1.503 . S
C603 C602 1.370 . S
C603 C604 1.403 . S
C604 C603 1.403 . S
C604 C605 1.404 . S
C604 C607 1.539 . S
C605 C601 1.408 . S
C605 C604 1.404 . S
C605 H617 0.930 . S
C606 C602 1.524 . S
C606 H618 0.956 . S
C606 H619 0.961 . S
C606 H620 0.961 . S
C607 C604 1.539 . S
C607 H621 0.958 . S
C607 H622 0.961 . S
C607 H623 0.960 . S
H608 C592 0.931 . S
H609 C597 0.929 . S
H610 C598 0.960 . S
H611 C598 0.962 . S
H612 C598 0.960 . S
H613 C599 0.961 . S
H614 C599 0.961 . S
H615 C599 0.961 . S
H616 C600 0.931 . S
H617 C605 0.930 . S
H618 C606 0.956 . S
H619 C606 0.961 . S
H620 C606 0.961 . S
H621 C607 0.958 . S
H622 C607 0.961 . S
H623 C607 0.960 . S
C624 C625 1.391 . S
C624 C626 1.394 . S
C624 H640 0.931 . S
C625 C624 1.391 . S
C625 C629 1.376 . S
C626 C624 1.394 . S
C626 C627 1.369 . S
C626 C630 1.531 . S
C627 C626 1.369 . S
C627 C628 1.410 . S
C627 C635 1.503 . S
C628 C627 1.410 . S
C628 C629 1.392 . S
C628 C631 1.511 . S
C629 C625 1.376 . S
C629 C628 1.392 . S
C629 H641 0.929 . S
C630 C626 1.531 . S
C630 H642 0.960 . S
C630 H643 0.962 . S
C630 H644 0.960 . S
C631 C628 1.511 . S
C631 H645 0.961 . S
C631 H646 0.961 . S
C631 H647 0.961 . S
C632 C633 1.370 . S
C632 C634 1.363 . S
C632 H648 0.931 . S
C633 C632 1.370 . S
C633 C637 1.408 . S
C634 C632 1.363 . S
C634 C635 1.370 . S
C634 C638 1.524 . S
C635 C627 1.503 . S
C635 C634 1.370 . S
C635 C636 1.403 . S
C636 C635 1.403 . S
C636 C637 1.404 . S
C636 C639 1.539 . S
C637 C633 1.408 . S
C637 C636 1.404 . S
C637 H649 0.930 . S
C638 C634 1.524 . S
C638 H650 0.956 . S
C638 H651 0.961 . S
C638 H652 0.961 . S
C639 C636 1.539 . S
C639 H653 0.958 . S
C639 H654 0.961 . S
C639 H655 0.960 . S
H640 C624 0.931 . S
H641 C629 0.929 . S
H642 C630 0.960 . S
H643 C630 0.962 . S
H644 C630 0.960 . S
H645 C631 0.961 . S
H646 C631 0.961 . S
H647 C631 0.961 . S
H648 C632 0.931 . S
H649 C637 0.930 . S
H650 C638 0.956 . S
H651 C638 0.961 . S
H652 C638 0.961 . S
H653 C639 0.958 . S
H654 C639 0.961 . S
H655 C639 0.960 . S
C656 C657 1.391 . S
C656 C658 1.394 . S
C656 H672 0.931 . S
C657 C656 1.391 . S
C657 C661 1.376 . S
C658 C656 1.394 . S
C658 C659 1.369 . S
C658 C662 1.531 . S
C659 C658 1.369 . S
C659 C660 1.410 . S
C659 C667 1.503 . S
C660 C659 1.410 . S
C660 C661 1.392 . S
C660 C663 1.511 . S
C661 C657 1.376 . S
C661 C660 1.392 . S
C661 H673 0.929 . S
C662 C658 1.531 . S
C662 H674 0.960 . S
C662 H675 0.962 . S
C662 H676 0.960 . S
C663 C660 1.511 . S
C663 H677 0.961 . S
C663 H678 0.961 . S
C663 H679 0.961 . S
C664 C665 1.370 . S
C664 C666 1.363 . S
C664 H680 0.931 . S
C665 C664 1.370 . S
C665 C669 1.408 . S
C666 C664 1.363 . S
C666 C667 1.370 . S
C666 C670 1.524 . S
C667 C659 1.503 . S
C667 C666 1.370 . S
C667 C668 1.403 . S
C668 C667 1.403 . S
C668 C669 1.404 . S
C668 C671 1.539 . S
C669 C665 1.408 . S
C669 C668 1.404 . S
C669 H681 0.930 . S
C670 C666 1.524 . S
C670 H682 0.956 . S
C670 H683 0.961 . S
C670 H684 0.961 . S
C671 C668 1.539 . S
C671 H685 0.958 . S
C671 H686 0.961 . S
C671 H687 0.960 . S
H672 C656 0.931 . S
H673 C661 0.929 . S
H674 C662 0.960 . S
H675 C662 0.962 . S
H676 C662 0.960 . S
H677 C663 0.961 . S
H678 C663 0.961 . S
H679 C663 0.961 . S
H680 C664 0.931 . S
H681 C669 0.930 . S
H682 C670 0.956 . S
H683 C670 0.961 . S
H684 C670 0.961 . S
H685 C671 0.958 . S
H686 C671 0.961 . S
H687 C671 0.960 . S
C688 C689 1.391 . S
C688 C690 1.394 . S
C688 H704 0.931 . S
C689 C688 1.391 . S
C689 C693 1.376 . S
C690 C688 1.394 . S
C690 C691 1.369 . S
C690 C694 1.531 . S
C691 C690 1.369 . S
C691 C692 1.410 . S
C691 C699 1.503 . S
C692 C691 1.410 . S
C692 C693 1.392 . S
C692 C695 1.511 . S
C693 C689 1.376 . S
C693 C692 1.392 . S
C693 H705 0.929 . S
C694 C690 1.531 . S
C694 H706 0.960 . S
C694 H707 0.962 . S
C694 H708 0.960 . S
C695 C692 1.511 . S
C695 H709 0.961 . S
C695 H710 0.961 . S
C695 H711 0.961 . S
C696 C697 1.370 . S
C696 C698 1.363 . S
C696 H712 0.931 . S
C697 C696 1.370 . S
C697 C701 1.408 . S
C698 C696 1.363 . S
C698 C699 1.370 . S
C698 C702 1.524 . S
C699 C691 1.503 . S
C699 C698 1.370 . S
C699 C700 1.403 . S
C700 C699 1.403 . S
C700 C701 1.404 . S
C700 C703 1.539 . S
C701 C697 1.408 . S
C701 C700 1.404 . S
C701 H713 0.930 . S
C702 C698 1.524 . S
C702 H714 0.956 . S
C702 H715 0.961 . S
C702 H716 0.961 . S
C703 C700 1.539 . S
C703 H717 0.958 . S
C703 H718 0.961 . S
C703 H719 0.960 . S
H704 C688 0.931 . S
H705 C693 0.929 . S
H706 C694 0.960 . S
H707 C694 0.962 . S
H708 C694 0.960 . S
H709 C695 0.961 . S
H710 C695 0.961 . S
H711 C695 0.961 . S
H712 C696 0.931 . S
H713 C701 0.930 . S
H714 C702 0.956 . S
H715 C702 0.961 . S
H716 C702 0.961 . S
H717 C703 0.958 . S
H718 C703 0.961 . S
H719 C703 0.960 . S
C720 C721 1.391 . S
C720 C722 1.394 . S
C720 H736 0.931 . S
C721 C720 1.391 . S
C721 C725 1.376 . S
C722 C720 1.394 . S
C722 C723 1.369 . S
C722 C726 1.531 . S
C723 C722 1.369 . S
C723 C724 1.410 . S
C723 C731 1.503 1_565 S
C724 C723 1.410 . S
C724 C725 1.392 . S
C724 C727 1.511 . S
C725 C721 1.376 . S
C725 C724 1.392 . S
C725 H737 0.929 . S
C726 C722 1.531 . S
C726 H738 0.960 1_565 S
C726 H739 0.962 . S
C726 H740 0.960 . S
C727 C724 1.511 . S
C727 H741 0.961 1_556 S
C727 H742 0.961 1_556 S
C727 H743 0.961 . S
C728 C729 1.370 . S
C728 C730 1.363 . S
C728 H744 0.931 . S
C729 C728 1.370 . S
C729 C733 1.408 1_554 S
C730 C728 1.363 . S
C730 C731 1.370 1_554 S
C730 C734 1.549 . S
C731 C723 1.503 1_545 S
C731 C730 1.370 1_556 S
C731 C732 1.403 . S
C732 C731 1.403 . S
C732 C733 1.404 . S
C732 C735 1.539 . S
C733 C729 1.408 1_556 S
C733 C732 1.404 . S
C733 H745 0.930 . S
C734 C730 1.549 . S
C734 H746 0.944 1_545 S
C734 H747 0.935 1_545 S
C734 H748 0.975 . S
C735 C732 1.539 . S
C735 H749 0.958 . S
C735 H750 0.961 . S
C735 H751 0.960 . S
H736 C720 0.931 . S
H737 C725 0.929 . S
H738 C726 0.960 1_545 S
H739 C726 0.962 . S
H740 C726 0.960 . S
H741 C727 0.961 1_554 S
H742 C727 0.961 1_554 S
H743 C727 0.961 . S
H744 C728 0.931 . S
H745 C733 0.930 . S
H746 C734 0.944 1_565 S
H747 C734 0.935 1_565 S
H748 C734 0.975 . S
H749 C735 0.958 . S
H750 C735 0.961 . S
H751 C735 0.960 . S
C752 C753 1.391 . S
C752 C754 1.394 . S
C752 H768 0.931 . S
C753 C752 1.391 . S
C753 C757 1.376 . S
C754 C752 1.394 . S
C754 C755 1.369 . S
C754 C758 1.531 . S
C755 C754 1.369 . S
C755 C756 1.410 1_554 S
C755 C763 1.504 . S
C756 C755 1.410 1_556 S
C756 C757 1.392 1_556 S
C756 C759 1.511 . S
C757 C753 1.376 . S
C757 C756 1.392 1_554 S
C757 H769 0.929 1_554 S
C758 C754 1.531 . S
C758 H770 0.960 . S
C758 H771 0.962 . S
C758 H772 0.960 . S
C759 C756 1.511 . S
C759 H773 0.961 . S
C759 H774 0.961 . S
C759 H775 0.961 . S
C760 C761 1.370 . S
C760 C762 1.363 . S
C760 H776 0.931 . S
C761 C760 1.370 . S
C761 C765 1.408 1_556 S
C762 C760 1.363 . S
C762 C763 1.369 1_556 S
C762 C766 1.524 . S
C763 C755 1.504 . S
C763 C762 1.369 1_554 S
C763 C764 1.404 . S
C764 C763 1.404 . S
C764 C765 1.404 . S
C764 C767 1.539 . S
C765 C761 1.408 1_554 S
C765 C764 1.404 . S
C765 H777 0.930 . S
C766 C762 1.524 . S
C766 H778 0.956 . S
C766 H779 0.961 . S
C766 H780 0.961 . S
C767 C764 1.539 . S
C767 H781 0.958 . S
C767 H782 0.961 . S
C767 H783 0.960 . S
H768 C752 0.931 . S
H769 C757 0.929 1_556 S
H770 C758 0.960 . S
H771 C758 0.962 . S
H772 C758 0.960 . S
H773 C759 0.961 . S
H774 C759 0.961 . S
H775 C759 0.961 . S
H776 C760 0.931 . S
H777 C765 0.930 . S
H778 C766 0.956 . S
H779 C766 0.961 . S
H780 C766 0.961 . S
H781 C767 0.958 . S
H782 C767 0.961 . S
H783 C767 0.960 . S
C784 C785 1.391 . S
C784 C786 1.394 . S
C784 H800 0.931 . S
C785 C784 1.391 . S
C785 C789 1.376 1_655 S
C786 C784 1.394 . S
C786 C787 1.371 1_655 S
C786 C790 1.531 . S
C787 C786 1.371 1_455 S
C787 C788 1.407 . S
C787 C795 1.511 . S
C788 C787 1.407 . S
C788 C789 1.392 . S
C788 C791 1.511 1_556 S
C789 C785 1.376 1_455 S
C789 C788 1.392 . S
C789 H801 0.929 . S
C790 C786 1.531 . S
C790 H802 0.960 . S
C790 H803 0.962 . S
C790 H804 0.960 . S
C791 C788 1.511 1_554 S
C791 H805 0.961 . S
C791 H806 0.961 . S
C791 H807 0.961 1_554 S
C792 C793 1.370 1_655 S
C792 C794 1.363 . S
C792 H808 0.931 . S
C793 C792 1.370 1_455 S
C793 C797 1.408 1_554 S
C794 C792 1.363 . S
C794 C795 1.345 1_654 S
C794 C798 1.524 . S
C795 C787 1.511 . S
C795 C794 1.345 1_456 S
C795 C796 1.420 . S
C796 C795 1.420 . S
C796 C797 1.404 . S
C796 C799 1.539 . S
C797 C793 1.408 1_556 S
C797 C796 1.404 . S
C797 H809 0.930 . S
C798 C794 1.524 . S
C798 H810 0.956 . S
C798 H811 0.961 . S
C798 H812 0.961 . S
C799 C796 1.539 . S
C799 H813 0.958 . S
C799 H814 0.961 . S
C799 H815 0.960 . S
H800 C784 0.931 . S
H801 C789 0.929 . S
H802 C790 0.960 . S
H803 C790 0.962 . S
H804 C790 0.960 . S
H805 C791 0.961 . S
H806 C791 0.961 . S
H807 C791 0.961 1_556 S
H808 C792 0.931 . S
H809 C797 0.930 . S
H810 C798 0.956 . S
H811 C798 0.961 . S
H812 C798 0.961 . S
H813 C799 0.958 . S
H814 C799 0.961 . S
H815 C799 0.960 . S
C816 C817 1.391 . S
C816 C818 1.397 . S
C816 H832 0.931 . S
C817 C816 1.391 . S
C817 C821 1.376 1_545 S
C818 C816 1.397 . S
C818 C819 1.368 1_554 S
C818 C822 1.528 1_554 S
C819 C818 1.368 1_556 S
C819 C820 1.410 1_546 S
C819 C827 1.503 1_445 S
C820 C819 1.410 1_564 S
C820 C821 1.392 . S
C820 C823 1.511 1_554 S
C821 C817 1.376 1_565 S
C821 C820 1.392 . S
C821 H833 0.929 . S
C822 C818 1.528 1_556 S
C822 H834 0.960 1_455 S
C822 H835 0.969 1_556 S
C822 H836 0.960 . S
C823 C820 1.511 1_556 S
C823 H837 0.961 1_556 S
C823 H838 0.961 1_556 S
C823 H839 0.961 . S
C824 C825 1.370 1_554 S
C824 C826 1.363 . S
C824 H840 0.931 . S
C825 C824 1.370 1_556 S
C825 C829 1.408 . S
C826 C824 1.363 . S
C826 C827 1.370 1_554 S
C826 C830 1.525 . S
C827 C819 1.503 1_665 S
C827 C826 1.370 1_556 S
C827 C828 1.403 . S
C828 C827 1.403 . S
C828 C829 1.404 . S
C828 C831 1.539 . S
C829 C825 1.408 . S
C829 C828 1.404 . S
C829 H841 0.930 . S
C830 C826 1.525 . S
C830 H842 0.948 1_565 S
C830 H843 0.967 . S
C830 H844 0.962 . S
C831 C828 1.539 . S
C831 H845 0.962 1_565 S
C831 H846 0.961 . S
C831 H847 0.960 1_655 S
H832 C816 0.931 . S
H833 C821 0.929 . S
H834 C822 0.960 1_655 S
H835 C822 0.969 1_554 S
H836 C822 0.960 . S
H837 C823 0.961 1_554 S
H838 C823 0.961 1_554 S
H839 C823 0.961 . S
H840 C824 0.931 . S
H841 C829 0.930 . S
H842 C830 0.948 1_545 S
H843 C830 0.967 . S
H844 C830 0.962 . S
H845 C831 0.962 1_545 S
H846 C831 0.961 . S
H847 C831 0.960 1_455 S
C848 C849 1.391 . S
C848 C850 1.394 . S
C848 H864 0.931 . S
C849 C848 1.391 . S
C849 C853 1.376 . S
C850 C848 1.394 . S
C850 C851 1.369 . S
C850 C854 1.531 . S
C851 C850 1.369 . S
C851 C852 1.410 . S
C851 C859 1.503 . S
C852 C851 1.410 . S
C852 C853 1.392 . S
C852 C855 1.511 . S
C853 C849 1.376 . S
C853 C852 1.392 . S
C853 H865 0.929 . S
C854 C850 1.531 . S
C854 H866 0.960 . S
C854 H867 0.962 . S
C854 H868 0.960 . S
C855 C852 1.511 . S
C855 H869 0.961 . S
C855 H870 0.961 . S
C855 H871 0.961 . S
C856 C857 1.370 . S
C856 C858 1.363 . S
C856 H872 0.931 . S
C857 C856 1.370 . S
C857 C861 1.408 . S
C858 C856 1.363 . S
C858 C859 1.370 . S
C858 C862 1.524 . S
C859 C851 1.503 . S
C859 C858 1.370 . S
C859 C860 1.403 . S
C860 C859 1.403 . S
C860 C861 1.404 . S
C860 C863 1.539 . S
C861 C857 1.408 . S
C861 C860 1.404 . S
C861 H873 0.930 . S
C862 C858 1.524 . S
C862 H874 0.956 . S
C862 H875 0.961 . S
C862 H876 0.961 . S
C863 C860 1.539 . S
C863 H877 0.958 . S
C863 H878 0.961 . S
C863 H879 0.960 . S
H864 C848 0.931 . S
H865 C853 0.929 . S
H866 C854 0.960 . S
H867 C854 0.962 . S
H868 C854 0.960 . S
H869 C855 0.961 . S
H870 C855 0.961 . S
H871 C855 0.961 . S
H872 C856 0.931 . S
H873 C861 0.930 . S
H874 C862 0.956 . S
H875 C862 0.961 . S
H876 C862 0.961 . S
H877 C863 0.958 . S
H878 C863 0.961 . S
H879 C863 0.960 . S
C880 C881 1.391 . S
C880 C882 1.394 . S
C880 H896 0.931 . S
C881 C880 1.391 . S
C881 C885 1.376 . S
C882 C880 1.394 . S
C882 C883 1.369 . S
C882 C886 1.531 . S
C883 C882 1.369 . S
C883 C884 1.410 . S
C883 C891 1.503 1_455 S
C884 C883 1.410 . S
C884 C885 1.392 . S
C884 C887 1.511 . S
C885 C881 1.376 . S
C885 C884 1.392 . S
C885 H897 0.929 . S
C886 C882 1.531 . S
C886 H898 0.960 . S
C886 H899 0.962 . S
C886 H900 0.960 . S
C887 C884 1.511 . S
C887 H901 0.961 . S
C887 H902 0.961 1_455 S
C887 H903 0.961 . S
C888 C889 1.370 . S
C888 C890 1.363 . S
C888 H904 0.931 . S
C889 C888 1.370 . S
C889 C893 1.408 . S
C890 C888 1.363 . S
C890 C891 1.370 . S
C890 C894 1.524 . S
C891 C883 1.503 1_655 S
C891 C890 1.370 . S
C891 C892 1.403 . S
C892 C891 1.403 . S
C892 C893 1.404 . S
C892 C895 1.539 . S
C893 C889 1.408 . S
C893 C892 1.404 . S
C893 H905 0.930 . S
C894 C890 1.524 . S
C894 H906 0.956 . S
C894 H907 0.961 . S
C894 H908 0.961 . S
C895 C892 1.539 . S
C895 H909 0.958 1_655 S
C895 H910 0.961 . S
C895 H911 0.960 1_655 S
H896 C880 0.931 . S
H897 C885 0.929 . S
H898 C886 0.960 . S
H899 C886 0.962 . S
H900 C886 0.960 . S
H901 C887 0.961 . S
H902 C887 0.961 1_655 S
H903 C887 0.961 . S
H904 C888 0.931 . S
H905 C893 0.930 . S
H906 C894 0.956 . S
H907 C894 0.961 . S
H908 C894 0.961 . S
H909 C895 0.958 1_455 S
H910 C895 0.961 . S
H911 C895 0.960 1_455 S
C912 C913 1.391 . S
C912 C914 1.394 . S
C912 H928 0.931 . S
C913 C912 1.391 . S
C913 C917 1.376 1_655 S
C914 C912 1.394 . S
C914 C915 1.369 1_655 S
C914 C918 1.553 . S
C915 C914 1.369 1_455 S
C915 C916 1.410 . S
C915 C923 1.503 1_565 S
C916 C915 1.410 . S
C916 C917 1.392 . S
C916 C919 1.511 . S
C917 C913 1.376 1_455 S
C917 C916 1.392 . S
C917 H929 0.929 . S
C918 C914 1.553 . S
C918 H930 0.932 1_565 S
C918 H931 0.957 1_565 S
C918 H932 0.972 . S
C919 C916 1.511 . S
C919 H933 0.961 . S
C919 H934 0.961 . S
C919 H935 0.961 . S
C920 C921 1.370 1_655 S
C920 C922 1.363 . S
C920 H936 0.931 . S
C921 C920 1.370 1_455 S
C921 C925 1.408 . S
C922 C920 1.363 . S
C922 C923 1.370 1_655 S
C922 C926 1.524 . S
C923 C915 1.503 1_545 S
C923 C922 1.370 1_455 S
C923 C924 1.403 . S
C924 C923 1.403 . S
C924 C925 1.404 . S
C924 C927 1.539 . S
C925 C921 1.408 . S
C925 C924 1.404 . S
C925 H937 0.930 . S
C926 C922 1.524 . S
C926 H938 0.956 1_545 S
C926 H939 0.961 1_545 S
C926 H940 0.961 . S
C927 C924 1.539 . S
C927 H941 0.958 . S
C927 H942 0.961 . S
C927 H943 0.960 . S
H928 C912 0.931 . S
H929 C917 0.929 . S
H930 C918 0.932 1_545 S
H931 C918 0.957 1_545 S
H932 C918 0.972 . S
H933 C919 0.961 . S
H934 C919 0.961 . S
H935 C919 0.961 . S
H936 C920 0.931 . S
H937 C925 0.930 . S
H938 C926 0.956 1_565 S
H939 C926 0.961 1_565 S
H940 C926 0.961 . S
H941 C927 0.958 . S
H942 C927 0.961 . S
H943 C927 0.960 . S
C944 C945 1.391 . S
C944 C946 1.394 . S
C944 H960 0.931 . S
C945 C944 1.391 . S
C945 C949 1.376 . S
C946 C944 1.394 . S
C946 C947 1.369 . S
C946 C950 1.531 . S
C947 C946 1.369 . S
C947 C948 1.410 . S
C947 C955 1.503 . S
C948 C947 1.410 . S
C948 C949 1.392 . S
C948 C951 1.511 . S
C949 C945 1.376 . S
C949 C948 1.392 . S
C949 H961 0.929 . S
C950 C946 1.531 . S
C950 H962 0.960 . S
C950 H963 0.962 1_565 S
C950 H964 0.960 . S
C951 C948 1.511 . S
C951 H965 0.961 1_565 S
C951 H966 0.961 1_565 S
C951 H967 0.961 . S
C952 C953 1.370 . S
C952 C954 1.363 . S
C952 H968 0.931 . S
C953 C952 1.370 . S
C953 C957 1.408 1_545 S
C954 C952 1.363 . S
C954 C955 1.370 1_545 S
C954 C958 1.524 . S
C955 C947 1.503 . S
C955 C954 1.370 1_565 S
C955 C956 1.403 . S
C956 C955 1.403 . S
C956 C957 1.404 . S
C956 C959 1.539 . S
C957 C953 1.408 1_565 S
C957 C956 1.404 . S
C957 H969 0.930 . S
C958 C954 1.524 . S
C958 H970 0.956 . S
C958 H971 0.961 . S
C958 H972 0.961 . S
C959 C956 1.539 . S
C959 H973 0.958 . S
C959 H974 0.961 . S
C959 H975 0.960 . S
H960 C944 0.931 . S
H961 C949 0.929 . S
H962 C950 0.960 . S
H963 C950 0.962 1_545 S
H964 C950 0.960 . S
H965 C951 0.961 1_545 S
H966 C951 0.961 1_545 S
H967 C951 0.961 . S
H968 C952 0.931 . S
H969 C957 0.930 . S
H970 C958 0.956 . S
H971 C958 0.961 . S
H972 C958 0.961 . S
H973 C959 0.958 . S
H974 C959 0.961 . S
H975 C959 0.960 . S
C976 C977 1.391 . S
C976 C978 1.394 . S
C976 H992 0.931 . S
C977 C976 1.391 . S
C977 C981 1.376 . S
C978 C976 1.394 . S
C978 C979 1.369 . S
C978 C982 1.531 . S
C979 C978 1.369 . S
C979 C980 1.410 . S
C979 C987 1.503 . S
C980 C979 1.410 . S
C980 C981 1.392 . S
C980 C983 1.511 . S
C981 C977 1.376 . S
C981 C980 1.392 . S
C981 H993 0.929 . S
C982 C978 1.531 . S
C982 H994 0.960 . S
C982 H995 0.962 . S
C982 H996 0.960 . S
C983 C980 1.511 . S
C983 H997 0.961 . S
C983 H998 0.961 . S
C983 H999 0.961 . S
C984 C985 1.370 . S
C984 C986 1.363 . S
C984 H1000 0.931 . S
C985 C984 1.370 . S
C985 C989 1.408 . S
C986 C984 1.363 . S
C986 C987 1.370 . S
C986 C990 1.524 . S
C987 C979 1.503 . S
C987 C986 1.370 . S
C987 C988 1.403 . S
C988 C987 1.403 . S
C988 C989 1.404 . S
C988 C991 1.539 . S
C989 C985 1.408 . S
C989 C988 1.404 . S
C989 H1001 0.930 . S
C990 C986 1.524 . S
C990 H1002 0.956 . S
C990 H1003 0.961 . S
C990 H1004 0.961 . S
C991 C988 1.539 . S
C991 H1005 0.958 . S
C991 H1006 0.961 . S
C991 H1007 0.960 . S
H992 C976 0.931 . S
H993 C981 0.929 . S
H994 C982 0.960 . S
H995 C982 0.962 . S
H996 C982 0.960 . S
H997 C983 0.961 . S
H998 C983 0.961 . S
H999 C983 0.961 . S
H1000 C984 0.931 . S
H1001 C989 0.930 . S
H1002 C990 0.956 . S
H1003 C990 0.961 . S
H1004 C990 0.961 . S
H1005 C991 0.958 . S
H1006 C991 0.961 . S
H1007 C991 0.960 . S
C1008 C1009 1.391 . S
C1008 C1010 1.394 . S
C1008 H1024 0.931 . S
C1009 C1008 1.391 . S
C1009 C1013 1.376 . S
C1010 C1008 1.394 . S
C1010 C1011 1.369 . S
C1010 C1014 1.531 . S
C1011 C1010 1.369 . S
C1011 C1012 1.410 . S
C1011 C1019 1.503 . S
C1012 C1011 1.410 . S
C1012 C1013 1.392 . S
C1012 C1015 1.511 . S
C1013 C1009 1.376 . S
C1013 C1012 1.392 . S
C1013 H1025 0.929 . S
C1014 C1010 1.531 . S
C1014 H1026 0.960 . S
C1014 H1027 0.962 . S
C1014 H1028 0.960 . S
C1015 C1012 1.511 . S
C1015 H1029 0.961 . S
C1015 H1030 0.961 . S
C1015 H1031 0.961 . S
C1016 C1017 1.370 . S
C1016 C1018 1.363 . S
C1016 H1032 0.931 . S
C1017 C1016 1.370 . S
C1017 C1021 1.408 . S
C1018 C1016 1.363 . S
C1018 C1019 1.370 . S
C1018 C1022 1.524 . S
C1019 C1011 1.503 . S
C1019 C1018 1.370 . S
C1019 C1020 1.403 . S
C1020 C1019 1.403 . S
C1020 C1021 1.404 . S
C1020 C1023 1.539 . S
C1021 C1017 1.408 . S
C1021 C1020 1.404 . S
C1021 H1033 0.930 . S
C1022 C1018 1.524 . S
C1022 H1034 0.956 . S
C1022 H1035 0.961 . S
C1022 H1036 0.961 . S
C1023 C1020 1.539 . S
C1023 H1037 0.958 . S
C1023 H1038 0.961 . S
C1023 H1039 0.960 . S
H1024 C1008 0.931 . S
H1025 C1013 0.929 . S
H1026 C1014 0.960 . S
H1027 C1014 0.962 . S
H1028 C1014 0.960 . S
H1029 C1015 0.961 . S
H1030 C1015 0.961 . S
H1031 C1015 0.961 . S
H1032 C1016 0.931 . S
H1033 C1021 0.930 . S
H1034 C1022 0.956 . S
H1035 C1022 0.961 . S
H1036 C1022 0.961 . S
H1037 C1023 0.958 . S
H1038 C1023 0.961 . S
H1039 C1023 0.960 . S
C1040 C1041 1.391 1_455 S
C1040 C1042 1.394 . S
C1040 H1056 0.931 . S
C1041 C1040 1.391 1_655 S
C1041 C1045 1.376 . S
C1042 C1040 1.394 . S
C1042 C1043 1.369 1_455 S
C1042 C1046 1.531 . S
C1043 C1042 1.369 1_655 S
C1043 C1044 1.410 . S
C1043 C1051 1.503 . S
C1044 C1043 1.410 . S
C1044 C1045 1.392 . S
C1044 C1047 1.511 . S
C1045 C1041 1.376 . S
C1045 C1044 1.392 . S
C1045 H1057 0.929 . S
C1046 C1042 1.531 . S
C1046 H1058 0.960 . S
C1046 H1059 0.962 . S
C1046 H1060 0.960 . S
C1047 C1044 1.511 . S
C1047 H1061 0.961 . S
C1047 H1062 0.961 . S
C1047 H1063 0.961 . S
C1048 C1049 1.370 1_455 S
C1048 C1050 1.363 . S
C1048 H1064 0.931 . S
C1049 C1048 1.370 1_655 S
C1049 C1053 1.408 . S
C1050 C1048 1.363 . S
C1050 C1051 1.370 1_455 S
C1050 C1054 1.524 . S
C1051 C1043 1.503 . S
C1051 C1050 1.370 1_655 S
C1051 C1052 1.403 . S
C1052 C1051 1.403 . S
C1052 C1053 1.404 . S
C1052 C1055 1.539 . S
C1053 C1049 1.408 . S
C1053 C1052 1.404 . S
C1053 H1065 0.930 . S
C1054 C1050 1.524 . S
C1054 H1066 0.956 . S
C1054 H1067 0.961 1_455 S
C1054 H1068 0.961 . S
C1055 C1052 1.539 . S
C1055 H1069 0.958 . S
C1055 H1070 0.961 . S
C1055 H1071 0.960 . S
H1056 C1040 0.931 . S
H1057 C1045 0.929 . S
H1058 C1046 0.960 . S
H1059 C1046 0.962 . S
H1060 C1046 0.960 . S
H1061 C1047 0.961 . S
H1062 C1047 0.961 . S
H1063 C1047 0.961 . S
H1064 C1048 0.931 . S
H1065 C1053 0.930 . S
H1066 C1054 0.956 . S
H1067 C1054 0.961 1_655 S
H1068 C1054 0.961 . S
H1069 C1055 0.958 . S
H1070 C1055 0.961 . S
H1071 C1055 0.960 . S
C1072 C1073 1.391 . S
C1072 C1074 1.394 . S
C1072 H1088 0.931 1_565 S
C1073 C1072 1.391 . S
C1073 C1077 1.376 . S
C1074 C1072 1.394 . S
C1074 C1075 1.369 . S
C1074 C1078 1.531 1_565 S
C1075 C1074 1.369 . S
C1075 C1076 1.410 . S
C1075 C1083 1.503 . S
C1076 C1075 1.410 . S
C1076 C1077 1.392 . S
C1076 C1079 1.511 . S
C1077 C1073 1.376 . S
C1077 C1076 1.392 . S
C1077 H1089 0.929 . S
C1078 C1074 1.531 1_545 S
C1078 H1090 0.960 1_545 S
C1078 H1091 0.962 . S
C1078 H1092 0.960 1_545 S
C1079 C1076 1.511 . S
C1079 H1093 0.961 . S
C1079 H1094 0.961 . S
C1079 H1095 0.961 . S
C1080 C1081 1.370 1_545 S
C1080 C1082 1.363 . S
C1080 H1096 0.931 . S
C1081 C1080 1.370 1_565 S
C1081 C1085 1.408 . S
C1082 C1080 1.363 . S
C1082 C1083 1.370 1_545 S
C1082 C1086 1.524 . S
C1083 C1075 1.503 . S
C1083 C1082 1.370 1_565 S
C1083 C1084 1.403 . S
C1084 C1083 1.403 . S
C1084 C1085 1.404 . S
C1084 C1087 1.539 . S
C1085 C1081 1.408 . S
C1085 C1084 1.404 . S
C1085 H1097 0.930 . S
C1086 C1082 1.524 . S
C1086 H1098 0.956 . S
C1086 H1099 0.961 . S
C1086 H1100 0.961 . S
C1087 C1084 1.539 . S
C1087 H1101 0.958 . S
C1087 H1102 0.961 . S
C1087 H1103 0.960 . S
H1088 C1072 0.931 1_545 S
H1089 C1077 0.929 . S
H1090 C1078 0.960 1_565 S
H1091 C1078 0.962 . S
H1092 C1078 0.960 1_565 S
H1093 C1079 0.961 . S
H1094 C1079 0.961 . S
H1095 C1079 0.961 . S
H1096 C1080 0.931 . S
H1097 C1085 0.930 . S
H1098 C1086 0.956 . S
H1099 C1086 0.961 . S
H1100 C1086 0.961 . S
H1101 C1087 0.958 . S
H1102 C1087 0.961 . S
H1103 C1087 0.960 . S
C1104 C1105 1.391 . S
C1104 C1106 1.394 . S
C1104 H1120 0.931 . S
C1105 C1104 1.391 . S
C1105 C1109 1.376 . S
C1106 C1104 1.394 . S
C1106 C1107 1.369 . S
C1106 C1110 1.531 . S
C1107 C1106 1.369 . S
C1107 C1108 1.410 . S
C1107 C1115 1.503 . S
C1108 C1107 1.410 . S
C1108 C1109 1.392 . S
C1108 C1111 1.511 . S
C1109 C1105 1.376 . S
C1109 C1108 1.392 . S
C1109 H1121 0.929 . S
C1110 C1106 1.531 . S
C1110 H1122 0.960 . S
C1110 H1123 0.962 . S
C1110 H1124 0.960 . S
C1111 C1108 1.511 . S
C1111 H1125 0.961 . S
C1111 H1126 0.961 . S
C1111 H1127 0.961 . S
C1112 C1113 1.370 . S
C1112 C1114 1.363 . S
C1112 H1128 0.931 . S
C1113 C1112 1.370 . S
C1113 C1117 1.408 . S
C1114 C1112 1.363 . S
C1114 C1115 1.370 . S
C1114 C1118 1.524 . S
C1115 C1107 1.503 . S
C1115 C1114 1.370 . S
C1115 C1116 1.403 . S
C1116 C1115 1.403 . S
C1116 C1117 1.404 . S
C1116 C1119 1.539 . S
C1117 C1113 1.408 . S
C1117 C1116 1.404 . S
C1117 H1129 0.930 . S
C1118 C1114 1.524 . S
C1118 H1130 0.956 . S
C1118 H1131 0.961 . S
C1118 H1132 0.961 . S
C1119 C1116 1.539 . S
C1119 H1133 0.958 . S
C1119 H1134 0.961 . S
C1119 H1135 0.960 . S
H1120 C1104 0.931 . S
H1121 C1109 0.929 . S
H1122 C1110 0.960 . S
H1123 C1110 0.962 . S
H1124 C1110 0.960 . S
H1125 C1111 0.961 . S
H1126 C1111 0.961 . S
H1127 C1111 0.961 . S
H1128 C1112 0.931 . S
H1129 C1117 0.930 . S
H1130 C1118 0.956 . S
H1131 C1118 0.961 . S
H1132 C1118 0.961 . S
H1133 C1119 0.958 . S
H1134 C1119 0.961 . S
H1135 C1119 0.960 . S
C1136 C1137 1.391 . S
C1136 C1138 1.394 . S
C1136 H1152 0.931 . S
C1137 C1136 1.391 . S
C1137 C1141 1.376 . S
C1138 C1136 1.394 . S
C1138 C1139 1.369 . S
C1138 C1142 1.531 . S
C1139 C1138 1.369 . S
C1139 C1140 1.410 . S
C1139 C1147 1.503 . S
C1140 C1139 1.410 . S
C1140 C1141 1.392 . S
C1140 C1143 1.511 . S
C1141 C1137 1.376 . S
C1141 C1140 1.392 . S
C1141 H1153 0.929 . S
C1142 C1138 1.531 . S
C1142 H1154 0.960 . S
C1142 H1155 0.962 . S
C1142 H1156 0.960 . S
C1143 C1140 1.511 . S
C1143 H1157 0.961 . S
C1143 H1158 0.961 . S
C1143 H1159 0.961 . S
C1144 C1145 1.370 . S
C1144 C1146 1.363 . S
C1144 H1160 0.931 . S
C1145 C1144 1.370 . S
C1145 C1149 1.408 . S
C1146 C1144 1.363 . S
C1146 C1147 1.370 . S
C1146 C1150 1.524 . S
C1147 C1139 1.503 . S
C1147 C1146 1.370 . S
C1147 C1148 1.403 . S
C1148 C1147 1.403 . S
C1148 C1149 1.404 . S
C1148 C1151 1.539 . S
C1149 C1145 1.408 . S
C1149 C1148 1.404 . S
C1149 H1161 0.930 . S
C1150 C1146 1.524 . S
C1150 H1162 0.956 . S
C1150 H1163 0.961 . S
C1150 H1164 0.961 . S
C1151 C1148 1.539 . S
C1151 H1165 0.958 . S
C1151 H1166 0.961 . S
C1151 H1167 0.960 . S
H1152 C1136 0.931 . S
H1153 C1141 0.929 . S
H1154 C1142 0.960 . S
H1155 C1142 0.962 . S
H1156 C1142 0.960 . S
H1157 C1143 0.961 . S
H1158 C1143 0.961 . S
H1159 C1143 0.961 . S
H1160 C1144 0.931 . S
H1161 C1149 0.930 . S
H1162 C1150 0.956 . S
H1163 C1150 0.961 . S
H1164 C1150 0.961 . S
H1165 C1151 0.958 . S
H1166 C1151 0.961 . S
H1167 C1151 0.960 . S
C1168 C1169 1.391 . S
C1168 C1170 1.394 . S
C1168 H1184 0.931 . S
C1169 C1168 1.391 . S
C1169 C1173 1.376 1_455 S
C1170 C1168 1.394 . S
C1170 C1171 1.369 . S
C1170 C1174 1.531 . S
C1171 C1170 1.369 . S
C1171 C1172 1.410 1_455 S
C1171 C1179 1.503 . S
C1172 C1171 1.410 1_655 S
C1172 C1173 1.392 . S
C1172 C1175 1.511 . S
C1173 C1169 1.376 1_655 S
C1173 C1172 1.392 . S
C1173 H1185 0.929 . S
C1174 C1170 1.531 . S
C1174 H1186 0.960 . S
C1174 H1187 0.962 . S
C1174 H1188 0.960 . S
C1175 C1172 1.511 . S
C1175 H1189 0.961 . S
C1175 H1190 0.961 . S
C1175 H1191 0.961 . S
C1176 C1177 1.370 . S
C1176 C1178 1.363 . S
C1176 H1192 0.931 . S
C1177 C1176 1.370 . S
C1177 C1181 1.408 1_455 S
C1178 C1176 1.363 . S
C1178 C1179 1.370 . S
C1178 C1182 1.524 . S
C1179 C1171 1.503 . S
C1179 C1178 1.370 . S
C1179 C1180 1.403 1_455 S
C1180 C1179 1.403 1_655 S
C1180 C1181 1.404 . S
C1180 C1183 1.539 . S
C1181 C1177 1.408 1_655 S
C1181 C1180 1.404 . S
C1181 H1193 0.930 . S
C1182 C1178 1.524 . S
C1182 H1194 0.956 . S
C1182 H1195 0.961 . S
C1182 H1196 0.961 . S
C1183 C1180 1.539 . S
C1183 H1197 0.958 . S
C1183 H1198 0.961 . S
C1183 H1199 0.960 . S
H1184 C1168 0.931 . S
H1185 C1173 0.929 . S
H1186 C1174 0.960 . S
H1187 C1174 0.962 . S
H1188 C1174 0.960 . S
H1189 C1175 0.961 . S
H1190 C1175 0.961 . S
H1191 C1175 0.961 . S
H1192 C1176 0.931 . S
H1193 C1181 0.930 . S
H1194 C1182 0.956 . S
H1195 C1182 0.961 . S
H1196 C1182 0.961 . S
H1197 C1183 0.958 . S
H1198 C1183 0.961 . S
H1199 C1183 0.960 . S
C1200 C1201 1.391 . S
C1200 C1202 1.394 . S
C1200 H1216 0.931 . S
C1201 C1200 1.391 . S
C1201 C1205 1.373 1_545 S
C1202 C1200 1.394 . S
C1202 C1203 1.369 . S
C1202 C1206 1.531 . S
C1203 C1202 1.369 . S
C1203 C1204 1.410 . S
C1203 C1211 1.503 . S
C1204 C1203 1.410 . S
C1204 C1205 1.392 1_545 S
C1204 C1207 1.511 1_545 S
C1205 C1201 1.373 1_565 S
C1205 C1204 1.392 1_565 S
C1205 H1217 0.933 . S
C1206 C1202 1.531 . S
C1206 H1218 0.960 . S
C1206 H1219 0.962 . S
C1206 H1220 0.960 . S
C1207 C1204 1.511 1_565 S
C1207 H1221 0.961 . S
C1207 H1222 0.961 . S
C1207 H1223 0.961 1_565 S
C1208 C1209 1.370 1_565 S
C1208 C1210 1.363 . S
C1208 H1224 0.931 . S
C1209 C1208 1.370 1_545 S
C1209 C1213 1.408 . S
C1210 C1208 1.363 . S
C1210 C1211 1.370 1_565 S
C1210 C1214 1.524 . S
C1211 C1203 1.503 . S
C1211 C1210 1.370 1_545 S
C1211 C1212 1.403 . S
C1212 C1211 1.403 . S
C1212 C1213 1.404 . S
C1212 C1215 1.539 . S
C1213 C1209 1.408 . S
C1213 C1212 1.404 . S
C1213 H1225 0.930 . S
C1214 C1210 1.524 . S
C1214 H1226 0.956 . S
C1214 H1227 0.961 . S
C1214 H1228 0.961 . S
C1215 C1212 1.539 . S
C1215 H1229 0.958 . S
C1215 H1230 0.961 . S
C1215 H1231 0.960 . S
H1216 C1200 0.931 . S
H1217 C1205 0.933 . S
H1218 C1206 0.960 . S
H1219 C1206 0.962 . S
H1220 C1206 0.960 . S
H1221 C1207 0.961 . S
H1222 C1207 0.961 . S
H1223 C1207 0.961 1_545 S
H1224 C1208 0.931 . S
H1225 C1213 0.930 . S
H1226 C1214 0.956 . S
H1227 C1214 0.961 . S
H1228 C1214 0.961 . S
H1229 C1215 0.958 . S
H1230 C1215 0.961 . S
H1231 C1215 0.960 . S
C209 C5 1.230 . S
C217 C127 1.229 . S
C241 C140 1.219 . S
C249 C18 1.210 . S
C273 C147 1.217 . S
C281 C31 1.206 . S
C305 C114 1.218 . S
C313 C42 1.198 . S
C337 C57 1.156 . S
C345 C205 1.234 . S
C369 C160 1.237 . S
C377 C70 1.181 . S
C401 C173 1.234 . S
C409 C81 1.205 . S
C433 C186 1.218 . S
C441 C96 1.199 . S
C465 C109 1.195 . S
C473 C23 1.228 . S
C497 C122 1.225 . S
C505 C36 1.227 . S
C529 C135 1.195 . S
C537 C43 1.235 . S
C561 C10 1.219 . S
C569 C146 1.211 . S
C593 C159 1.196 . S
C601 C101 1.228 . S
C625 C172 1.200 . S
C633 C62 1.234 . S
C657 C75 1.240 . S
C665 C185 1.184 . S
C689 C200 1.184 . S
C697 C82 1.236 . S
C721 C108 1.634 . S
C729 C4 1.652 . S
C753 C17 1.663 . S
C761 C121 1.636 . S
C785 C134 1.630 . S
C793 C30 1.654 . S
C817 C49 1.640 . S
C825 C153 1.649 . S
C849 C166 1.622 . S
C857 C56 1.657 . S
C881 C69 1.620 . S
C889 C179 1.657 . S
C913 C192 1.622 . S
C921 C88 1.656 . S
C945 C199 1.679 . S
C953 C95 1.631 . S
C977 C55 1.737 . S
C985 C3 1.728 . S
C1009 C68 1.705 . S
C1017 C16 1.723 . S
C1041 C29 1.721 . S
C1049 C83 1.719 . S
C1073 C94 1.708 . S
C1081 C44 1.719 . S
C1105 C107 1.708 . S
C1113 C161 1.724 . S
C1137 C174 1.735 . S
C1145 C120 1.732 . S
C1169 C187 1.734 . S
C1177 C133 1.727 . S
C1201 C198 1.710 . S
C1209 C148 1.718 . S
