# Generated by pormake.
# Topology zfa, (5)-cn, num edge types: 1
# Building blocks:
#     Node 0, Type 0, BuildingBlock: BEQFEK_clean_sbu_0, # of connection points: 5
#     Node 1, Type 0, BuildingBlock: BEQFEK_clean_sbu_0, # of connection points: 5
#     Node 2, Type 0, BuildingBlock: BEQFEK_clean_sbu_0, # of connection points: 5
#     Node 3, Type 0, BuildingBlock: BEQFEK_clean_sbu_0, # of connection points: 5
#     Node 4, Type 0, BuildingBlock: BEQFEK_clean_sbu_0, # of connection points: 5
#     Node 5, Type 0, BuildingBlock: BEQFEK_clean_sbu_0, # of connection points: 5
#     Node 6, Type 0, BuildingBlock: BEQFEK_clean_sbu_0, # of connection points: 5
#     Node 7, Type 0, BuildingBlock: BEQFEK_clean_sbu_0, # of connection points: 5
#     Edge 8, Type (0, 0), BuildingBlock: ZUJKAS_clean_linker_0, # of connection points: 2
#     Edge 9, Type (0, 0), BuildingBlock: ZUJKAS_clean_linker_0, # of connection points: 2
#     Edge 10, Type (0, 0), BuildingBlock: ZUJKAS_clean_linker_0, # of connection points: 2
#     Edge 11, Type (0, 0), BuildingBlock: ZUJKAS_clean_linker_0, # of connection points: 2
#     Edge 12, Type (0, 0), BuildingBlock: ZUJKAS_clean_linker_0, # of connection points: 2
#     Edge 13, Type (0, 0), BuildingBlock: ZUJKAS_clean_linker_0, # of connection points: 2
#     Edge 14, Type (0, 0), BuildingBlock: ZUJKAS_clean_linker_0, # of connection points: 2
#     Edge 15, Type (0, 0), BuildingBlock: ZUJKAS_clean_linker_0, # of connection points: 2
#     Edge 16, Type (0, 0), BuildingBlock: ZUJKAS_clean_linker_0, # of connection points: 2
#     Edge 17, Type (0, 0), BuildingBlock: ZUJKAS_clean_linker_0, # of connection points: 2
#     Edge 18, Type (0, 0), BuildingBlock: ZUJKAS_clean_linker_0, # of connection points: 2
#     Edge 19, Type (0, 0), BuildingBlock: ZUJKAS_clean_linker_0, # of connection points: 2
#     Edge 20, Type (0, 0), BuildingBlock: ZUJKAS_clean_linker_0, # of connection points: 2
#     Edge 21, Type (0, 0), BuildingBlock: ZUJKAS_clean_linker_0, # of connection points: 2
#     Edge 22, Type (0, 0), BuildingBlock: ZUJKAS_clean_linker_0, # of connection points: 2
#     Edge 23, Type (0, 0), BuildingBlock: ZUJKAS_clean_linker_0, # of connection points: 2
#     Edge 24, Type (0, 0), BuildingBlock: ZUJKAS_clean_linker_0, # of connection points: 2
#     Edge 25, Type (0, 0), BuildingBlock: ZUJKAS_clean_linker_0, # of connection points: 2
#     Edge 26, Type (0, 0), BuildingBlock: ZUJKAS_clean_linker_0, # of connection points: 2
#     Edge 27, Type (0, 0), BuildingBlock: ZUJKAS_clean_linker_0, # of connection points: 2
# Relax obj value: 0.310
# Max RMSD: 0.173
# Mean RMSD: 0.173
data_MOF--net-zfa--node1-BEQFEK_clean_sbu_0--edge1-ZUJKAS_clean_linker_0
_symmetry_space_group_name_H-M    P1
_symmetry_Int_Tables_number       1
_symmetry_cell_setting            triclinic
loop_
_symmetry_equiv_pos_as_xyz
'x, y, z'
_cell_length_a     39.652216
_cell_length_b     39.638577
_cell_length_c     49.722502
_cell_angle_alpha  90.11925
_cell_angle_beta   89.925704
_cell_angle_gamma 89.99308
loop_
_atom_site_label
_atom_site_type_symbol
_atom_site_fract_x
_atom_site_fract_y
_atom_site_fract_z
_atom_type_partial_charge
Co0 Co 0.16391 0.21635 0.32178 0.0
Co1 Co 0.16759 0.29431 0.33301 0.0
C2 C 0.17425 0.24608 0.37784 0.0
O3 O 0.1724 0.2218 0.3611 0.0
O4 O 0.17171 0.27659 0.37015 0.0
C5 C 0.13183 0.15572 0.3349 0.0
O6 O 0.12647 0.17346 0.35682 0.0
C7 C 0.15124 0.36215 0.35324 0.0
C8 C 0.15649 0.39245 0.31629 0.0
C9 C 0.14514 0.39404 0.34266 0.0
N10 N 0.16408 0.34245 0.33369 0.0
N11 N 0.1681 0.36102 0.31189 0.0
C12 C 0.14533 0.35034 0.38144 0.0
H13 H 0.16808 0.33689 0.38864 0.0
H14 H 0.12393 0.33232 0.38183 0.0
H15 H 0.14025 0.37172 0.39529 0.0
C16 C 0.09664 0.2363 0.3001 0.0
N17 N 0.12712 0.2441 0.31056 0.0
N18 N 0.12777 0.27648 0.31636 0.0
C19 C 0.09735 0.29006 0.31033 0.0
C20 C 0.07657 0.26501 0.29983 0.0
C21 C 0.08671 0.20201 0.29027 0.0
H22 H 0.10868 0.1891 0.28107 0.0
H23 H 0.0774 0.18687 0.30747 0.0
H24 H 0.06619 0.20375 0.27517 0.0
O25 O 0.20702 0.22752 0.30296 0.0
O26 O 0.21002 0.28215 0.3129 0.0
H27 H 0.10107 0.34334 0.30469 0.0
H28 H 0.05961 0.32945 0.31467 0.0
C29 C 0.08701 0.32527 0.31746 0.0
H30 H 0.09321 0.33029 0.33877 0.0
H31 H 0.17669 0.35163 0.29348 0.0
O32 O 0.14985 0.16846 0.31629 0.0
C33 C 0.22276 0.25563 0.30232 0.0
Co34 Co 0.31909 0.66167 0.82087 0.0
Co35 Co 0.24217 0.66669 0.83304 0.0
C36 C 0.29125 0.67245 0.87729 0.0
O37 O 0.3152 0.66984 0.86041 0.0
O38 O 0.26075 0.67087 0.86969 0.0
C39 C 0.37213 0.62212 0.8329 0.0
O40 O 0.34781 0.61251 0.84915 0.0
C41 C 0.17803 0.64592 0.85528 0.0
C42 C 0.14124 0.66593 0.82608 0.0
C43 C 0.14405 0.64587 0.84878 0.0
N44 N 0.19458 0.6644 0.83692 0.0
N45 N 0.17241 0.67699 0.81985 0.0
C46 C 0.19487 0.62901 0.87862 0.0
H47 H 0.21698 0.6143 0.87155 0.0
H48 H 0.17735 0.61264 0.89006 0.0
H49 H 0.20442 0.64872 0.89252 0.0
C50 C 0.2969 0.59585 0.79626 0.0
N51 N 0.2904 0.6256 0.80872 0.0
N52 N 0.25819 0.62678 0.81508 0.0
C53 C 0.24356 0.5974 0.80746 0.0
C54 C 0.26763 0.57664 0.79565 0.0
C55 C 0.33078 0.58512 0.78603 0.0
H56 H 0.34629 0.60736 0.78073 0.0
H57 H 0.34366 0.56998 0.80168 0.0
H58 H 0.32837 0.56899 0.76794 0.0
O59 O 0.30861 0.70529 0.80239 0.0
O60 O 0.25414 0.70875 0.81295 0.0
H61 H 0.19973 0.56713 0.79822 0.0
H62 H 0.20236 0.58242 0.8322 0.0
C63 C 0.20707 0.58899 0.81091 0.0
H64 H 0.19128 0.6109 0.80535 0.0
H65 H 0.17876 0.69166 0.80318 0.0
O66 O 0.36649 0.64641 0.81679 0.0
C67 C 0.28058 0.72124 0.80213 0.0
Co68 Co 0.87629 0.82341 0.32066 0.0
Co69 Co 0.87167 0.74572 0.33079 0.0
C70 C 0.86882 0.79569 0.37639 0.0
O71 O 0.87104 0.82046 0.36021 0.0
O72 O 0.86937 0.76531 0.36787 0.0
C73 C 0.88814 0.89465 0.32768 0.0
O74 O 0.87492 0.88979 0.3516 0.0
C75 C 0.8966 0.68048 0.34936 0.0
C76 C 0.87081 0.64527 0.32171 0.0
C77 C 0.89496 0.64674 0.34185 0.0
N78 N 0.87489 0.698 0.33403 0.0
N79 N 0.85897 0.67672 0.31801 0.0
C80 C 0.92106 0.69665 0.36835 0.0
H81 H 0.92363 0.72396 0.36398 0.0
H82 H 0.94613 0.6843 0.36703 0.0
H83 H 0.91155 0.69376 0.38922 0.0
C84 C 0.94419 0.80324 0.30075 0.0
N85 N 0.91291 0.79542 0.30956 0.0
N86 N 0.91031 0.7625 0.31186 0.0
C87 C 0.93943 0.74825 0.30323 0.0
C88 C 0.96216 0.77357 0.29634 0.0
C89 C 0.95777 0.83848 0.30001 0.0
H90 H 0.94724 0.85173 0.28228 0.0
H91 H 0.94985 0.85226 0.31839 0.0
H92 H 0.98568 0.83898 0.29888 0.0
O93 O 0.83195 0.81124 0.30357 0.0
O94 O 0.82863 0.75637 0.31197 0.0
H95 H 0.96357 0.70603 0.28383 0.0
H96 H 0.95568 0.70081 0.31906 0.0
C97 C 0.94515 0.71112 0.30018 0.0
H98 H 0.92117 0.69811 0.29544 0.0
H99 H 0.8414 0.68394 0.30348 0.0
O100 O 0.8887 0.87038 0.31095 0.0
C101 C 0.81588 0.78335 0.30244 0.0
Co102 Co 0.72101 0.37471 0.82175 0.0
Co103 Co 0.79829 0.36935 0.8328 0.0
C104 C 0.74937 0.36351 0.87766 0.0
O105 O 0.72514 0.36688 0.86118 0.0
O106 O 0.77977 0.36431 0.8696 0.0
C107 C 0.66756 0.41409 0.83366 0.0
O108 O 0.6916 0.42415 0.84998 0.0
C109 C 0.86305 0.38819 0.85553 0.0
C110 C 0.89835 0.37659 0.82245 0.0
C111 C 0.89628 0.39215 0.84741 0.0
N112 N 0.84607 0.37225 0.8359 0.0
N113 N 0.86751 0.36445 0.8165 0.0
C114 C 0.8473 0.39964 0.88141 0.0
H115 H 0.83676 0.37739 0.89195 0.0
H116 H 0.82613 0.41714 0.87723 0.0
H117 H 0.86585 0.41176 0.895 0.0
C118 C 0.74263 0.44088 0.79822 0.0
N119 N 0.74951 0.4108 0.80981 0.0
N120 N 0.78181 0.40966 0.81577 0.0
C121 C 0.79618 0.4394 0.80869 0.0
C122 C 0.77169 0.4603 0.7976 0.0
C123 C 0.70925 0.45084 0.78667 0.0
H124 H 0.69477 0.42827 0.78036 0.0
H125 H 0.69471 0.46522 0.80192 0.0
H126 H 0.7129 0.46761 0.76904 0.0
O127 O 0.73143 0.33109 0.80329 0.0
O128 O 0.7864 0.3276 0.81191 0.0
H129 H 0.8491 0.43025 0.80489 0.0
H130 H 0.8383 0.47437 0.8071 0.0
C131 C 0.83196 0.44879 0.81446 0.0
H132 H 0.83601 0.44826 0.83644 0.0
H133 H 0.86063 0.35287 0.79844 0.0
O134 O 0.67364 0.38976 0.81761 0.0
C135 C 0.75945 0.31523 0.80182 0.0
Co136 Co 0.66372 0.31944 0.21188 0.0
Co137 Co 0.66854 0.24229 0.19982 0.0
C138 C 0.675 0.29154 0.15558 0.0
O139 O 0.672 0.31558 0.17235 0.0
O140 O 0.67355 0.26106 0.16329 0.0
C141 C 0.62415 0.37242 0.19996 0.0
O142 O 0.61455 0.34805 0.18373 0.0
C143 C 0.64789 0.17833 0.17684 0.0
C144 C 0.66282 0.14172 0.208 0.0
C145 C 0.64498 0.1447 0.18414 0.0
N146 N 0.66549 0.1946 0.19593 0.0
N147 N 0.67522 0.17243 0.21414 0.0
C148 C 0.63415 0.1951 0.15218 0.0
H149 H 0.61727 0.21621 0.15802 0.0
H150 H 0.6207 0.17716 0.13885 0.0
H151 H 0.6554 0.20595 0.14056 0.0
C152 C 0.5978 0.29752 0.23633 0.0
N153 N 0.62754 0.29087 0.22392 0.0
N154 N 0.62843 0.25873 0.21729 0.0
C155 C 0.59876 0.24436 0.2245 0.0
C156 C 0.57822 0.26848 0.2365 0.0
C157 C 0.58746 0.33132 0.24702 0.0
H158 H 0.60986 0.34666 0.2522 0.0
H159 H 0.57202 0.34448 0.23171 0.0
H160 H 0.57172 0.32866 0.2653 0.0
O161 O 0.70724 0.30868 0.23035 0.0
O162 O 0.71042 0.25395 0.22045 0.0
H163 H 0.61079 0.19185 0.22727 0.0
H164 H 0.56665 0.2011 0.23145 0.0
C165 C 0.58988 0.20809 0.22031 0.0
H166 H 0.58562 0.20362 0.19862 0.0
H167 H 0.68844 0.17864 0.23161 0.0
O168 O 0.64855 0.36689 0.21599 0.0
C169 C 0.72299 0.28053 0.23106 0.0
Co170 Co 0.21486 0.16139 0.71203 0.0
Co171 Co 0.29257 0.16589 0.70087 0.0
C172 C 0.24084 0.17102 0.65634 0.0
O173 O 0.21627 0.16774 0.67263 0.0
O174 O 0.27128 0.17041 0.66458 0.0
C175 C 0.14344 0.14882 0.70665 0.0
O176 O 0.14733 0.16182 0.68257 0.0
C177 C 0.35533 0.13869 0.67921 0.0
C178 C 0.39363 0.16149 0.70581 0.0
C179 C 0.38947 0.13787 0.68547 0.0
N180 N 0.34001 0.16083 0.69571 0.0
N181 N 0.36316 0.17497 0.71114 0.0
C182 C 0.33722 0.11896 0.65792 0.0
H183 H 0.32039 0.13597 0.6465 0.0
H184 H 0.32117 0.09941 0.66742 0.0
H185 H 0.35507 0.10698 0.64361 0.0
C186 C 0.23518 0.09276 0.73014 0.0
N187 N 0.24287 0.12422 0.72169 0.0
N188 N 0.27575 0.1269 0.71921 0.0
C189 C 0.29011 0.09773 0.72746 0.0
C190 C 0.2649 0.07482 0.73422 0.0
C191 C 0.2 0.07907 0.73106 0.0
H192 H 0.18733 0.0884 0.74953 0.0
H193 H 0.18565 0.08804 0.71335 0.0
H194 H 0.19963 0.05111 0.73104 0.0
O195 O 0.22847 0.20526 0.72943 0.0
O196 O 0.28349 0.20833 0.7212 0.0
H197 H 0.33235 0.07368 0.74677 0.0
H198 H 0.33787 0.08216 0.71167 0.0
C199 C 0.32725 0.09229 0.73062 0.0
H200 H 0.33997 0.11633 0.73569 0.0
H201 H 0.35788 0.19249 0.7263 0.0
O202 O 0.1682 0.14902 0.72287 0.0
C203 C 0.25653 0.22103 0.73095 0.0
Co204 Co 0.37595 0.72086 0.21087 0.0
Co205 Co 0.37108 0.79783 0.19898 0.0
C206 C 0.36566 0.74875 0.15452 0.0
O207 O 0.36816 0.72476 0.17133 0.0
O208 O 0.36713 0.77928 0.16221 0.0
C209 C 0.41536 0.66738 0.1991 0.0
O210 O 0.4254 0.69137 0.18275 0.0
C211 C 0.39038 0.86268 0.17695 0.0
C212 C 0.37311 0.89838 0.20819 0.0
C213 C 0.39126 0.89638 0.18439 0.0
N214 N 0.37331 0.84549 0.1958 0.0
N215 N 0.36229 0.86705 0.2141 0.0
C216 C 0.40521 0.84677 0.15224 0.0
H217 H 0.42064 0.82452 0.15782 0.0
H218 H 0.42043 0.86483 0.14033 0.0
H219 H 0.38436 0.83756 0.13933 0.0
C220 C 0.44191 0.74264 0.23473 0.0
N221 N 0.41201 0.74944 0.22284 0.0
N222 N 0.41093 0.78173 0.21681 0.0
C223 C 0.44043 0.79623 0.22432 0.0
C224 C 0.46123 0.77178 0.23558 0.0
C225 C 0.45184 0.70925 0.24627 0.0
H226 H 0.42925 0.69479 0.25253 0.0
H227 H 0.4662 0.69469 0.23103 0.0
H228 H 0.46857 0.71288 0.26393 0.0
O229 O 0.3323 0.73135 0.22936 0.0
O230 O 0.3289 0.78581 0.21896 0.0
H231 H 0.47382 0.83933 0.22856 0.0
H232 H 0.45231 0.83582 0.19703 0.0
C233 C 0.44966 0.83218 0.21897 0.0
H234 H 0.42948 0.84904 0.22653 0.0
H235 H 0.349 0.86011 0.23137 0.0
O236 O 0.39105 0.6735 0.21513 0.0
C237 C 0.31634 0.75937 0.22968 0.0
Co238 Co 0.82685 0.87472 0.71234 0.0
Co239 Co 0.74946 0.87022 0.70017 0.0
C240 C 0.8012 0.86561 0.65602 0.0
O241 O 0.82536 0.86841 0.67274 0.0
O242 O 0.77056 0.86647 0.66381 0.0
C243 C 0.89798 0.88838 0.70624 0.0
O244 O 0.89383 0.8757 0.68205 0.0
C245 C 0.68555 0.8946 0.67855 0.0
C246 C 0.64839 0.87113 0.70583 0.0
C247 C 0.65142 0.89393 0.68485 0.0
N248 N 0.7019 0.87394 0.69551 0.0
N249 N 0.67948 0.85944 0.71141 0.0
C250 C 0.70266 0.91378 0.65647 0.0
H251 H 0.72141 0.93149 0.66511 0.0
H252 H 0.68444 0.9276 0.64369 0.0
H253 H 0.71671 0.8958 0.64357 0.0
C254 C 0.806 0.94273 0.73186 0.0
N255 N 0.79849 0.91159 0.72248 0.0
N256 N 0.76574 0.90937 0.71874 0.0
C257 C 0.75131 0.93876 0.72658 0.0
C258 C 0.77633 0.96108 0.73479 0.0
C259 C 0.84121 0.95577 0.73497 0.0
H260 H 0.8533 0.94294 0.75225 0.0
H261 H 0.85595 0.9499 0.71659 0.0
H262 H 0.84186 0.98341 0.73834 0.0
O263 O 0.8138 0.83074 0.72961 0.0
O264 O 0.75918 0.82762 0.72009 0.0
H265 H 0.70804 0.96501 0.74255 0.0
H266 H 0.70574 0.95469 0.70749 0.0
C267 C 0.71416 0.94538 0.72735 0.0
H268 H 0.70029 0.92199 0.73238 0.0
H269 H 0.68558 0.84276 0.72689 0.0
O270 O 0.87352 0.88757 0.7228 0.0
C271 C 0.78576 0.81489 0.73035 0.0
H272 H 0.92185 0.60126 0.30736 0.0
H273 H 0.96363 0.55781 0.31674 0.0
H274 H 0.96402 0.5864 0.4005 0.0
H275 H 0.92214 0.63049 0.39109 0.0
H276 H 0.02777 0.57822 0.3808 0.0
H277 H 0.95019 0.46801 0.35284 0.0
H278 H 0.95108 0.49833 0.32616 0.0
H279 H 0.93222 0.50936 0.35799 0.0
C280 C 0.93047 0.59805 0.32786 0.0
C281 C 0.91883 0.61934 0.34848 0.0
C282 C 0.95431 0.57313 0.33321 0.0
C283 C 0.96653 0.56846 0.3594 0.0
C284 C 0.95483 0.58953 0.38015 0.0
H285 H 0.089 0.38776 0.37475 0.0
H286 H 0.04829 0.43121 0.38619 0.0
C287 C 0.93104 0.61475 0.37475 0.0
C288 C 0.99244 0.54229 0.36454 0.0
H289 H 1.01042 0.45977 0.35168 0.0
C290 C 0.02386 0.55215 0.37491 0.0
C291 C 0.98712 0.50815 0.35742 0.0
C292 C 0.95318 0.49528 0.34828 0.0
C293 C 0.05072 0.52914 0.37684 0.0
C294 C 0.04621 0.49568 0.36749 0.0
C295 C 1.01418 0.48548 0.35857 0.0
C296 C 0.07446 0.4712 0.36517 0.0
C297 C 0.08361 0.54104 0.38876 0.0
C298 C 0.10337 0.47923 0.35012 0.0
C299 C 0.12751 0.45452 0.34437 0.0
C300 C 0.12305 0.42118 0.35325 0.0
C301 C 0.0944 0.41339 0.36875 0.0
C302 C 0.07061 0.43821 0.3749 0.0
H303 H 0.07939 0.56168 0.40354 0.0
H304 H 0.09726 0.52018 0.39889 0.0
H305 H 0.09985 0.55119 0.37249 0.0
H306 H 0.10647 0.50413 0.34158 0.0
H307 H 0.14895 0.46114 0.33192 0.0
H308 H 0.96456 0.38517 0.84983 0.0
H309 H 1.00597 0.42971 0.8595 0.0
H310 H 0.92511 0.49965 0.87555 0.0
H311 H 0.88401 0.45596 0.86547 0.0
H312 H 0.97237 0.51809 0.83405 0.0
H313 H 0.03505 0.48203 0.92978 0.0
H314 H 0.03001 0.44915 0.90508 0.0
H315 H 0.99343 0.46729 0.92071 0.0
C316 C 0.95576 0.40982 0.85617 0.0
C317 C 0.92109 0.41679 0.8576 0.0
C318 C 0.97934 0.43511 0.86179 0.0
C319 C 0.96846 0.46771 0.86866 0.0
C320 C 0.93391 0.47446 0.87076 0.0
H321 H 0.07827 0.65948 0.86035 0.0
H322 H 0.03343 0.61826 0.86964 0.0
C323 C 0.91044 0.44928 0.86523 0.0
C324 C 0.99267 0.49589 0.87001 0.0
H325 H 0.0597 0.52696 0.90506 0.0
C326 C 0.99127 0.52033 0.84972 0.0
C327 C 1.01722 0.4984 0.89043 0.0
C328 C 0.01906 0.473 0.91291 0.0
C329 C 1.01464 0.54676 0.8487 0.0
C330 C 0.03945 0.54928 0.86904 0.0
C331 C 0.04041 0.52513 0.88967 0.0
C332 C 0.06652 0.57485 0.86764 0.0
C333 C 1.01351 0.57072 0.82513 0.0
C334 C 0.1 0.56416 0.86471 0.0
C335 C 0.12546 0.58755 0.85985 0.0
C336 C 0.11796 0.62211 0.85804 0.0
C337 C 0.08463 0.63297 0.8619 0.0
C338 C 0.05909 0.6095 0.86703 0.0
H339 H 0.99794 0.56068 0.80836 0.0
H340 H 1.00225 0.595 0.83171 0.0
H341 H 0.03927 0.57585 0.81737 0.0
H342 H 0.10622 0.53754 0.86491 0.0
H343 H 0.1507 0.57831 0.85617 0.0
H344 H 0.45804 0.88909 0.17358 0.0
H345 H 0.49895 0.93354 0.16497 0.0
H346 H 0.41926 1.00764 0.16664 0.0
H347 H 0.37796 0.96286 0.17577 0.0
H348 H 0.50796 0.9829 0.12659 0.0
H349 H 0.48076 0.03774 0.22738 0.0
H350 H 0.46458 0.99728 0.21697 0.0
H351 H 0.44498 0.03549 0.20537 0.0
C352 C 0.449 0.91467 0.17127 0.0
C353 C 0.41475 0.92255 0.17489 0.0
C354 C 0.47248 0.94009 0.1665 0.0
C355 C 0.46218 0.97386 0.16548 0.0
C356 C 0.42774 0.98172 0.16778 0.0
H357 H 0.57978 0.15657 0.16955 0.0
H358 H 0.53617 0.11521 0.16015 0.0
C359 C 0.40421 0.95622 0.17281 0.0
C360 C 0.48801 1.0007 0.16438 0.0
H361 H 0.52151 0.06534 0.201 0.0
C362 C 0.51085 1.00109 0.14275 0.0
C363 C 0.49193 0.02402 0.18573 0.0
C364 C 0.46951 0.02355 0.21031 0.0
C365 C 0.53752 0.02436 0.1419 0.0
C366 C 0.54131 0.04756 0.16324 0.0
C367 C 0.51828 0.04747 0.18464 0.0
C368 C 0.56917 0.07214 0.16422 0.0
C369 C 0.56142 0.02413 0.1183 0.0
C370 C 0.60232 0.06151 0.16929 0.0
C371 C 0.62759 0.08527 0.1745 0.0
C372 C 0.62 0.11988 0.17447 0.0
C373 C 0.58689 0.13028 0.16869 0.0
C374 C 0.56176 0.10663 0.16354 0.0
H375 H 0.55163 1.00875 0.10131 0.0
H376 H 0.56607 0.05025 0.11114 0.0
H377 H 0.58597 1.01339 0.1247 0.0
H378 H 0.60827 0.03488 0.17045 0.0
H379 H 0.65275 0.07662 0.17941 0.0
H380 H 0.58533 0.8792 0.67641 0.0
H381 H 0.53912 0.91917 0.66862 0.0
H382 H 0.61029 1.00143 0.66845 0.0
H383 H 0.65622 0.96188 0.67641 0.0
H384 H 0.52347 0.97017 0.7043 0.0
H385 H 0.55091 0.02417 0.60385 0.0
H386 H 0.56942 0.98514 0.61537 0.0
H387 H 0.58631 0.02497 0.62633 0.0
C388 C 0.59112 0.90574 0.674 0.0
C389 C 0.62448 0.91728 0.67622 0.0
C390 C 0.56477 0.9285 0.66957 0.0
C391 C 0.57137 0.96319 0.66738 0.0
C392 C 0.60474 0.97469 0.66916 0.0
H393 H 0.45692 0.14776 0.67903 0.0
H394 H 0.5005 0.10457 0.67227 0.0
C395 C 0.63105 0.95197 0.67359 0.0
C396 C 0.54321 0.98771 0.66647 0.0
H397 H 0.51138 0.05437 0.63123 0.0
C398 C 0.52053 0.98829 0.68814 0.0
C399 C 0.53972 1.01153 0.64551 0.0
C400 C 0.5627 1.01132 0.62132 0.0
C401 C 0.49497 1.01263 0.68983 0.0
C402 C 0.49161 0.03663 0.66898 0.0
C403 C 0.51405 0.03589 0.64714 0.0
C404 C 0.46523 0.06302 0.66997 0.0
C405 C 0.47252 1.01312 0.71438 0.0
C406 C 0.43106 0.054 0.67023 0.0
C407 C 0.40626 0.07848 0.67425 0.0
C408 C 0.41513 0.1126 0.67752 0.0
C409 C 0.44935 0.12172 0.67629 0.0
C410 C 0.4742 0.09714 0.67238 0.0
H411 H 0.48356 0.99854 0.73128 0.0
H412 H 0.46791 0.03938 0.72131 0.0
H413 H 0.44784 1.00161 0.70927 0.0
H414 H 0.42363 0.02782 0.66825 0.0
H415 H 0.38037 0.07026 0.67609 0.0
H416 H 0.52759 0.24938 0.20289 0.0
H417 H 0.46695 0.24649 0.21246 0.0
H418 H 0.48554 0.27869 0.294 0.0
H419 H 0.54635 0.2805 0.28465 0.0
H420 H 0.44017 0.22653 0.2916 0.0
H421 H 0.40317 0.32635 0.2195 0.0
H422 H 0.42671 0.29256 0.20441 0.0
H423 H 0.44644 0.31918 0.22914 0.0
C424 C 0.51868 0.2557 0.22288 0.0
C425 C 0.54162 0.26565 0.24292 0.0
C426 C 0.484 0.25437 0.22827 0.0
C427 C 0.47144 0.26313 0.2538 0.0
C428 C 0.49448 0.27221 0.27406 0.0
H429 H 0.26447 0.3107 0.29843 0.0
H430 H 0.32411 0.31176 0.28598 0.0
C431 C 0.5292 0.27349 0.26866 0.0
C432 C 0.43442 0.26238 0.25949 0.0
H433 H 0.35861 0.29522 0.2396 0.0
C434 C 0.42236 0.24158 0.28023 0.0
C435 C 0.41109 0.28234 0.24493 0.0
C436 C 0.42245 0.30663 0.22342 0.0
C437 C 0.38777 0.23984 0.28656 0.0
C438 C 0.36433 0.259 0.27145 0.0
C439 C 0.37642 0.28017 0.25096 0.0
C440 C 0.32735 0.25837 0.2773 0.0
C441 C 0.37674 0.21809 0.30984 0.0
C442 C 0.30882 0.22819 0.2758 0.0
C443 C 0.27456 0.22746 0.28291 0.0
C444 C 0.25795 0.25697 0.29158 0.0
C445 C 0.27629 0.28742 0.29196 0.0
C446 C 0.31051 0.2881 0.28484 0.0
H447 H 0.3981 0.21205 0.32345 0.0
H448 H 0.35665 0.23071 0.32174 0.0
H449 H 0.36649 0.19397 0.30197 0.0
H450 H 0.32097 0.20503 0.26945 0.0
H451 H 0.26135 0.20356 0.28225 0.0
H452 H 0.23249 0.03916 0.77372 0.0
H453 H 0.23654 0.97845 0.78311 0.0
H454 H 0.31042 0.96771 0.72006 0.0
H455 H 0.30562 0.02803 0.70993 0.0
H456 H 0.22917 0.92223 0.73668 0.0
H457 H 0.34873 0.92408 0.7954 0.0
H458 H 0.32075 0.96006 0.79451 0.0
H459 H 0.34544 0.94953 0.76549 0.0
C460 C 0.24951 0.02382 0.76181 0.0
C461 C 0.26873 0.03842 0.74109 0.0
C462 C 0.25188 0.98921 0.76726 0.0
C463 C 0.27387 0.96865 0.75234 0.0
C464 C 0.29349 0.9832 0.73193 0.0
H465 H 0.32905 0.7561 0.77366 0.0
H466 H 0.32722 0.81519 0.7592 0.0
C467 C 0.29089 1.01772 0.72631 0.0
C468 C 0.27562 0.93179 0.75759 0.0
H469 H 0.32323 0.87123 0.78823 0.0
C470 C 0.2497 0.91099 0.74794 0.0
C471 C 0.30268 0.91723 0.77191 0.0
C472 C 0.33107 0.93869 0.78259 0.0
C473 C 0.25009 0.87591 0.75225 0.0
C474 C 0.27663 0.86132 0.7674 0.0
C475 C 0.30284 0.88223 0.77668 0.0
C476 C 0.27707 0.82476 0.77472 0.0
C477 C 0.22234 0.85486 0.74 0.0
C478 C 0.24958 0.81026 0.78827 0.0
C479 C 0.25036 0.77643 0.79618 0.0
C480 C 0.27897 0.75625 0.79127 0.0
C481 C 0.30654 0.77076 0.77767 0.0
C482 C 0.30556 0.80462 0.76947 0.0
H483 H 0.21147 0.86729 0.72198 0.0
H484 H 0.23158 0.82946 0.7341 0.0
H485 H 0.20172 0.8518 0.7549 0.0
H486 H 0.22771 0.82533 0.79336 0.0
H487 H 0.2288 0.76641 0.80692 0.0
H488 H 0.51262 0.735 0.21432 0.0
H489 H 0.57289 0.7382 0.22501 0.0
H490 H 0.55268 0.81754 0.28227 0.0
H491 H 0.49213 0.81392 0.27189 0.0
H492 H 0.61732 0.79363 0.2205 0.0
H493 H 0.60781 0.74854 0.32594 0.0
H494 H 0.574 0.74346 0.30198 0.0
H495 H 0.58103 0.78363 0.31779 0.0
C496 C 0.52104 0.75295 0.22934 0.0
C497 C 0.49774 0.77422 0.2423 0.0
C498 C 0.55549 0.75489 0.23531 0.0
C499 C 0.56739 0.77791 0.25461 0.0
C500 C 0.54412 0.79928 0.26756 0.0
H501 H 0.77825 0.83575 0.2819 0.0
H502 H 0.71856 0.83506 0.2692 0.0
C503 C 0.50959 0.79741 0.26149 0.0
C504 C 0.60414 0.7795 0.26094 0.0
H505 H 0.66146 0.76709 0.31131 0.0
C506 C 0.62697 0.78791 0.24037 0.0
C507 C 0.61682 0.77162 0.28678 0.0
C508 C 0.59376 0.76101 0.30939 0.0
C509 C 0.66201 0.78893 0.24499 0.0
C510 C 0.67463 0.7816 0.27095 0.0
C511 C 0.65181 0.77295 0.29146 0.0
C512 C 0.71144 0.78189 0.27717 0.0
C513 C 0.68532 0.79708 0.22191 0.0
C514 C 0.72744 0.75229 0.28591 0.0
C515 C 0.76157 0.75257 0.29314 0.0
C516 C 0.78057 0.78258 0.29206 0.0
C517 C 0.76459 0.81213 0.28285 0.0
C518 C 0.73041 0.81177 0.27552 0.0
H519 H 0.67249 0.79449 0.20215 0.0
H520 H 0.69417 0.82352 0.22392 0.0
H521 H 0.70779 0.78036 0.2221 0.0
H522 H 0.71338 0.72893 0.28739 0.0
H523 H 0.77282 0.72931 0.30018 0.0
H524 H 0.81487 0.27571 0.79174 0.0
H525 H 0.81605 0.21639 0.77823 0.0
H526 H 0.70753 0.21557 0.77363 0.0
H527 H 0.70601 0.27499 0.78722 0.0
H528 H 0.73551 0.16184 0.80435 0.0
H529 H 0.79705 0.17237 0.70439 0.0
H530 H 0.81874 0.19365 0.73122 0.0
H531 H 0.77767 0.20794 0.72112 0.0
C532 C 0.79121 0.26315 0.78748 0.0
C533 C 0.76033 0.28033 0.79055 0.0
C534 C 0.79197 0.22917 0.77967 0.0
C535 C 0.7619 0.21152 0.77471 0.0
C536 C 0.73107 0.22869 0.77726 0.0
H537 H 0.74307 1.00932 0.70615 0.0
H538 H 0.73831 0.06976 0.71622 0.0
C539 C 0.73027 0.26276 0.78492 0.0
C540 C 0.76261 0.17477 0.76828 0.0
H541 H 0.79158 0.11716 0.72245 0.0
C542 C 0.74764 0.15208 0.78639 0.0
C543 C 0.77823 0.16202 0.74475 0.0
C544 C 0.79361 0.18521 0.72409 0.0
C545 C 0.74844 0.11701 0.78186 0.0
C546 C 0.76487 0.1042 0.7587 0.0
C547 C 0.77924 0.12693 0.74032 0.0
C548 C 0.76716 0.0673 0.75307 0.0
C549 C 0.73137 0.09396 0.80177 0.0
C550 C 0.78503 0.04574 0.77037 0.0
C551 C 0.7877 1.01118 0.76465 0.0
C552 C 0.7726 0.99752 0.74151 0.0
C553 C 0.75462 1.01908 0.72429 0.0
C554 C 0.75208 0.05364 0.72994 0.0
H555 H 0.71328 0.10784 0.81481 0.0
H556 H 0.71769 0.07335 0.79126 0.0
H557 H 0.75074 0.08232 0.81489 0.0
H558 H 0.79729 0.05572 0.78813 0.0
H559 H 0.80166 0.99511 0.77827 0.0
H560 H 0.04518 0.30985 0.2664 0.0
H561 H 0.98459 0.31424 0.25657 0.0
H562 H 0.96519 0.22914 0.30822 0.0
H563 H 0.0255 0.2252 0.31847 0.0
H564 H 0.94129 0.26648 0.23361 0.0
H565 H 0.89894 0.30034 0.33656 0.0
H566 H 0.94257 0.30261 0.32627 0.0
H567 H 0.92405 0.26268 0.33492 0.0
C568 C 0.02788 0.29226 0.27575 0.0
C569 C 0.04 0.26728 0.29326 0.0
C570 C 0.99332 0.2947 0.27008 0.0
C571 C 0.97019 0.27237 0.28198 0.0
C572 C 0.98238 0.24709 0.29919 0.0
H573 H 0.76587 0.22631 0.23181 0.0
H574 H 0.82522 0.22527 0.2448 0.0
C575 C 1.01691 0.24461 0.3048 0.0
C576 C 0.93344 0.27498 0.27592 0.0
H577 H 0.85597 0.28654 0.30498 0.0
C578 C 0.92267 0.27099 0.24921 0.0
C579 C 0.9091 0.28125 0.29622 0.0
C580 C 0.91917 0.28729 0.32507 0.0
C581 C 0.88827 0.27231 0.24236 0.0
C582 C 0.86387 0.27745 0.26277 0.0
C583 C 0.87464 0.28227 0.28939 0.0
C584 C 0.82707 0.27771 0.25674 0.0
C585 C 0.8783 0.26845 0.21324 0.0
C586 C 0.80793 0.30726 0.26003 0.0
C587 C 0.77379 0.30801 0.25261 0.0
C588 C 0.75801 0.27907 0.24197 0.0
C589 C 0.77703 0.24915 0.23982 0.0
C590 C 0.81112 0.24851 0.24709 0.0
H591 H 0.90001 0.27255 0.19948 0.0
H592 H 0.86864 0.24252 0.20985 0.0
H593 H 0.85794 0.28648 0.20793 0.0
H594 H 0.81967 0.33005 0.26761 0.0
H595 H 0.76003 0.33148 0.25461 0.0
H596 H 0.28063 0.54436 0.74778 0.0
H597 H 0.27807 0.48357 0.73852 0.0
H598 H 0.24352 0.46579 0.81955 0.0
H599 H 0.24723 0.52643 0.82907 0.0
H600 H 0.29331 0.42159 0.80495 0.0
H601 H 0.19519 0.42573 0.72573 0.0
H602 H 0.23089 0.45214 0.71874 0.0
H603 H 0.20429 0.46138 0.74716 0.0
C604 C 0.27274 0.52742 0.76364 0.0
C605 C 0.26441 0.54006 0.78921 0.0
C606 C 0.27085 0.4927 0.75824 0.0
C607 C 0.26021 0.46997 0.77823 0.0
C608 C 0.25171 0.48271 0.80375 0.0
H609 H 0.20352 0.25962 0.74922 0.0
H610 H 0.20442 0.31913 0.7625 0.0
C611 C 0.25365 0.51738 0.80914 0.0
C612 C 0.25874 0.4329 0.77284 0.0
H613 H 0.22349 0.37334 0.73168 0.0
C614 C 0.27793 0.41106 0.78898 0.0
C615 C 0.23834 0.41895 0.75226 0.0
C616 C 0.21574 0.44069 0.73513 0.0
C617 C 0.27779 0.3759 0.78479 0.0
C618 C 0.25832 0.36208 0.7636 0.0
C619 C 0.23862 0.38385 0.7478 0.0
C620 C 0.25824 0.32522 0.75725 0.0
C621 C 0.29815 0.35384 0.80339 0.0
C622 C 0.2882 0.30859 0.75002 0.0
C623 C 0.28781 0.27448 0.74251 0.0
C624 C 0.25737 0.25615 0.74186 0.0
C625 C 0.22746 0.27274 0.7496 0.0
C626 C 0.2279 0.30689 0.7571 0.0
H627 H 0.30352 0.36676 0.82277 0.0
H628 H 0.28484 0.32979 0.80764 0.0
H629 H 0.32265 0.34778 0.79371 0.0
H630 H 0.31185 0.32222 0.74943 0.0
H631 H 0.31133 0.26276 0.73652 0.0
H632 H 0.99772 0.8055 0.25652 0.0
H633 H 0.05852 0.80179 0.24723 0.0
H634 H 0.06953 0.72929 0.31105 0.0
H635 H 1.00912 0.73374 0.32105 0.0
H636 H 0.11455 0.80989 0.2947 0.0
H637 H 0.11375 0.69077 0.235 0.0
H638 H 0.07784 0.71887 0.23554 0.0
H639 H 0.08759 0.69412 0.26461 0.0
C640 C 1.01314 0.78884 0.2686 0.0
C641 C 0.9986 0.76989 0.28949 0.0
C642 C 0.0478 0.78666 0.26322 0.0
C643 C 0.06846 0.76518 0.2784 0.0
C644 C 0.05397 0.74584 0.29899 0.0
H645 H 0.28122 0.71068 0.25766 0.0
H646 H 0.22198 0.71235 0.27184 0.0
C647 C 0.0194 0.74822 0.30453 0.0
C648 C 0.10535 0.76366 0.27325 0.0
H649 H 0.16637 0.71656 0.24241 0.0
C650 C 0.12597 0.78952 0.28328 0.0
C651 C 0.12015 0.73681 0.25872 0.0
C652 C 0.09888 0.70846 0.24769 0.0
C653 C 0.16108 0.78928 0.27912 0.0
C654 C 0.17592 0.76294 0.26377 0.0
C655 C 0.15519 0.7368 0.25411 0.0
C656 C 0.21256 0.76264 0.25668 0.0
C657 C 0.18192 0.81695 0.29173 0.0
C658 C 0.22721 0.79027 0.24344 0.0
C659 C 0.26113 0.78958 0.23568 0.0
C660 C 0.28125 0.76092 0.24045 0.0
C661 C 0.26661 0.73323 0.25377 0.0
C662 C 0.23266 0.73411 0.2618 0.0
H663 H 0.16924 0.82764 0.30978 0.0
H664 H 0.20724 0.80767 0.29771 0.0
H665 H 0.18516 0.83772 0.27703 0.0
H666 H 0.21218 0.81218 0.23845 0.0
H667 H 0.27125 0.81124 0.22517 0.0
H668 H 0.73114 0.77254 0.73288 0.0
H669 H 0.73003 0.71317 0.74592 0.0
H670 H 0.8362 0.71719 0.76409 0.0
H671 H 0.83759 0.77679 0.75123 0.0
H672 H 0.76687 0.66072 0.72225 0.0
H673 H 0.79614 0.67162 0.83109 0.0
H674 H 0.78262 0.70718 0.81118 0.0
H675 H 0.82544 0.69257 0.80917 0.0
C676 C 0.75424 0.76105 0.74 0.0
C677 C 0.78447 0.77971 0.74102 0.0
C678 C 0.75355 0.72696 0.74736 0.0
C679 C 0.78295 0.71064 0.75617 0.0
C680 C 0.81304 0.72928 0.75777 0.0
H681 H 0.81431 0.49127 0.76177 0.0
H682 H 0.81795 0.55185 0.75139 0.0
C683 C 0.8138 0.76342 0.75033 0.0
C684 C 0.78228 0.67381 0.76244 0.0
H685 H 0.79475 0.61636 0.81273 0.0
C686 C 0.773 0.65104 0.74204 0.0
C687 C 0.78998 0.66112 0.78831 0.0
C688 C 0.79883 0.68433 0.81131 0.0
C689 C 0.77148 0.61604 0.74673 0.0
C690 C 0.77974 0.6033 0.77246 0.0
C691 C 0.78873 0.62607 0.79294 0.0
C692 C 0.77803 0.56654 0.77876 0.0
C693 C 0.7603 0.59301 0.72425 0.0
C694 C 0.75478 0.55464 0.79783 0.0
C695 C 0.75273 0.52016 0.80374 0.0
C696 C 0.77416 0.49685 0.79095 0.0
C697 C 0.79762 0.50873 0.772 0.0
C698 C 0.79955 0.54327 0.76596 0.0
H699 H 0.74805 0.60715 0.70765 0.0
H700 H 0.78261 0.5797 0.7159 0.0
H701 H 0.7424 0.57368 0.73183 0.0
H702 H 0.73799 0.57205 0.80802 0.0
H703 H 0.7346 0.51173 0.81859 0.0
H704 H 0.19192 0.18555 0.3999 0.0
H705 H 0.20235 0.17276 0.44711 0.0
H706 H 0.17929 0.27572 0.46851 0.0
H707 H 0.16966 0.28902 0.42111 0.0
H708 H 0.23516 0.25407 0.49357 0.0
H709 H 0.13426 0.15881 0.50603 0.0
H710 H 0.16261 0.14852 0.47911 0.0
H711 H 0.13684 0.18582 0.47695 0.0
C712 C 0.18888 0.2055 0.41462 0.0
C713 C 0.17986 0.23835 0.40667 0.0
C714 C 0.19464 0.19805 0.44167 0.0
C715 C 0.19097 0.22309 0.46145 0.0
C716 C 0.18211 0.25594 0.45361 0.0
H717 H 0.17997 0.18501 0.63309 0.0
H718 H 0.16854 0.19801 0.58605 0.0
C719 C 0.17662 0.26352 0.42649 0.0
C720 C 0.19743 0.21523 0.49019 0.0
H721 H 0.17512 0.16199 0.54112 0.0
C722 C 0.2219 0.23406 0.50402 0.0
C723 C 0.17981 0.18941 0.50394 0.0
C724 C 0.15167 0.16972 0.49083 0.0
C725 C 0.2296 0.22748 0.53107 0.0
C726 C 0.21302 0.20069 0.54447 0.0
C727 C 0.18817 0.18221 0.53075 0.0
C728 C 0.22028 0.19207 0.57296 0.0
C729 C 0.25488 0.24982 0.54514 0.0
C730 C 0.2531 0.18375 0.58125 0.0
C731 C 0.25982 0.17663 0.60827 0.0
C732 C 0.23372 0.17709 0.62746 0.0
C733 C 0.20071 0.1844 0.61891 0.0
C734 C 0.1941 0.19186 0.59197 0.0
H735 H 0.25766 0.27451 0.53483 0.0
H736 H 0.24747 0.25452 0.56636 0.0
H737 H 0.27989 0.23726 0.54502 0.0
H738 H 0.27356 0.1828 0.56682 0.0
H739 H 0.28547 0.17083 0.61408 0.0
H740 H 0.34684 0.79197 0.11431 0.0
H741 H 0.33449 0.77803 0.06741 0.0
H742 H 0.36021 0.67403 0.08238 0.0
H743 H 0.37174 0.68753 0.12944 0.0
H744 H 0.37279 0.75259 0.02758 0.0
H745 H 0.26795 0.66428 0.04936 0.0
H746 H 0.28598 0.69136 0.07474 0.0
H747 H 0.30663 0.65259 0.06551 0.0
C748 C 0.34991 0.76613 0.10764 0.0
C749 C 0.35996 0.74081 0.12572 0.0
C750 C 0.34282 0.75819 0.08081 0.0
C751 C 0.34571 0.72484 0.07149 0.0
C752 C 0.35684 0.69974 0.08927 0.0
H753 H 0.35258 0.6675 0.90218 0.0
H754 H 0.36591 0.6795 0.9492 0.0
C755 C 0.36363 0.70757 0.11616 0.0
C756 C 0.33729 0.71644 0.04315 0.0
H757 H 0.28747 0.6659 1.00414 0.0
C758 C 0.35407 0.7337 0.02245 0.0
C759 C 0.31247 0.69216 0.03645 0.0
C760 C 0.29196 0.67427 0.05767 0.0
C761 C 0.34701 0.72709 0.99526 0.0
C762 C 0.32313 0.70189 0.98857 0.0
C763 C 0.30606 0.68492 1.00927 0.0
C764 C 0.3149 0.69327 0.96022 0.0
C765 C 0.36466 0.74779 0.97404 0.0
C766 C 0.28152 0.69561 0.951 0.0
C767 C 0.27369 0.68825 0.9242 0.0
C768 C 0.29914 0.67847 0.90605 0.0
C769 C 0.33243 0.67537 0.91552 0.0
C770 C 0.34016 0.68244 0.94238 0.0
H771 H 0.37429 0.77197 0.98237 0.0
H772 H 0.38656 0.7334 0.96616 0.0
H773 H 0.34754 0.75349 0.95699 0.0
H774 H 0.26156 0.70369 0.96445 0.0
H775 H 0.2478 0.69085 0.91762 0.0
H776 H 0.75781 0.86712 0.61306 0.0
H777 H 0.77077 0.85536 0.56589 0.0
H778 H 0.8749 0.83781 0.58656 0.0
H779 H 0.86243 0.85058 0.63356 0.0
H780 H 0.8705 0.87428 0.54198 0.0
H781 H 0.78551 0.76397 0.53287 0.0
H782 H 0.76372 0.80149 0.54319 0.0
H783 H 0.79519 0.78327 0.56482 0.0
C784 C 0.78349 0.86085 0.60759 0.0
C785 C 0.80903 0.85969 0.62719 0.0
C786 C 0.79081 0.85384 0.58061 0.0
C787 C 0.82366 0.84492 0.57273 0.0
C788 C 0.84931 0.84442 0.59215 0.0
H789 H 0.87271 0.75097 0.41838 0.0
H790 H 0.86393 0.76273 0.46628 0.0
C791 C 0.84211 0.85177 0.61906 0.0
C792 C 0.83153 0.83653 0.54423 0.0
H793 H 0.80899 0.78501 0.49209 0.0
C794 C 0.85715 0.85464 0.53112 0.0
C795 C 0.81458 0.81046 0.53017 0.0
C796 C 0.78847 0.78844 0.54355 0.0
C797 C 0.86583 0.84788 0.50424 0.0
C798 C 0.84776 0.82294 0.4898 0.0
C799 C 0.82262 0.80436 0.50306 0.0
C800 C 0.85419 0.81602 0.46083 0.0
C801 C 0.89471 0.86717 0.49181 0.0
C802 C 0.85139 0.84196 0.4418 0.0
C803 C 0.85672 0.8354 0.41451 0.0
C804 C 0.86439 0.80259 0.40553 0.0
C805 C 0.86687 0.77653 0.4246 0.0
C806 C 0.86184 0.7832 0.45198 0.0
H807 H 0.91232 0.87684 0.50739 0.0
H808 H 0.90914 0.8512 0.47748 0.0
H809 H 0.88458 0.88922 0.48073 0.0
H810 H 0.84457 0.86726 0.44799 0.0
H811 H 0.85417 0.85602 0.4004 0.0
H812 H 0.69374 0.24783 0.1155 0.0
H813 H 0.70636 0.26117 0.06859 0.0
H814 H 0.68222 0.36568 0.08333 0.0
H815 H 0.67025 0.35274 0.13043 0.0
H816 H 0.66772 0.28704 0.02897 0.0
H817 H 0.7747 0.37329 0.04963 0.0
H818 H 0.75646 0.34667 0.0752 0.0
H819 H 0.73636 0.38571 0.0661 0.0
C820 C 0.69106 0.27367 0.10879 0.0
C821 C 0.68122 0.29926 0.12682 0.0
C822 C 0.69833 0.28125 0.08195 0.0
C823 C 0.6959 0.31454 0.07255 0.0
C824 C 0.68517 0.33998 0.09029 0.0
H825 H 0.68878 0.37085 0.90338 0.0
H826 H 0.67583 0.35965 0.95056 0.0
C827 C 0.67813 0.33248 0.11719 0.0
C828 C 0.70425 0.32246 0.04411 0.0
H829 H 0.75506 0.37119 1.0045 0.0
C830 C 0.68688 0.30538 0.02362 0.0
C831 C 0.72961 0.34604 0.03713 0.0
C832 C 0.75061 0.36375 0.05815 0.0
C833 C 0.69386 0.31148 0.99636 0.0
C834 C 0.71836 0.33594 0.98937 0.0
C835 C 0.73603 0.35272 1.00987 0.0
C836 C 0.72647 0.34402 0.96093 0.0
C837 C 0.67544 0.29107 0.97534 0.0
C838 C 0.75955 0.34027 0.95126 0.0
C839 C 0.76717 0.34708 0.92433 0.0
C840 C 0.74181 0.35778 0.90652 0.0
C841 C 0.70885 0.36226 0.91644 0.0
C842 C 0.70133 0.35568 0.9434 0.0
H843 H 0.66509 0.26732 0.98384 0.0
H844 H 0.65398 0.30606 0.96749 0.0
H845 H 0.69229 0.28461 0.95823 0.0
H846 H 0.77941 0.3315 0.96446 0.0
H847 H 0.79279 0.34334 0.91738 0.0
H848 H 0.90022 0.94738 0.36177 0.0
H849 H 0.94071 0.993 0.35563 0.0
H850 H 0.96259 0.95717 0.27553 0.0
H851 H 0.92222 0.91113 0.28156 0.0
H852 H 0.01965 0.9658 0.30626 0.0
H853 H 0.93947 0.07975 0.31248 0.0
H854 H 0.93229 0.05164 0.34012 0.0
H855 H 0.92229 0.03822 0.30644 0.0
C856 C 0.91304 0.94957 0.3426 0.0
C857 C 0.9081 0.92546 0.32222 0.0
C858 C 0.93613 0.97579 0.33909 0.0
C859 C 0.95447 0.97865 0.31504 0.0
C860 C 0.94863 0.95545 0.29422 0.0
H861 H 0.12274 0.12064 0.28764 0.0
H862 H 0.08129 0.07578 0.2793 0.0
C863 C 0.9255 0.92919 0.29771 0.0
C864 C 0.9818 1.00399 0.31277 0.0
H865 H 0.99862 0.08767 0.32166 0.0
C866 C 1.01504 0.99255 0.30908 0.0
C867 C 0.97569 0.03885 0.31635 0.0
C868 C 0.94045 0.05289 0.31879 0.0
C869 C 0.0425 1.01488 0.31046 0.0
C870 C 0.0364 0.04939 0.31552 0.0
C871 C 1.00313 0.06106 0.31797 0.0
C872 C 0.06412 0.07348 0.32056 0.0
C873 C 0.0779 1.00135 0.30787 0.0
C874 C 0.06854 0.08634 0.34657 0.0
C875 C 0.09211 0.1117 0.3514 0.0
C876 C 0.1116 0.1249 0.33025 0.0
C877 C 0.10825 0.11087 0.30437 0.0
C878 C 0.08455 0.08535 0.29955 0.0
H879 H 0.07845 0.9734 0.30619 0.0
H880 H 0.09 1.01219 0.2897 0.0
H881 H 0.09315 1.00911 0.32555 0.0
H882 H 0.05303 0.07737 0.36303 0.0
H883 H 0.09412 0.12181 0.37159 0.0
H884 H 0.43177 0.63679 0.80707 0.0
H885 H 0.48214 0.60078 0.80443 0.0
H886 H 0.4309 0.52407 0.85044 0.0
H887 H 0.38157 0.55999 0.85402 0.0
H888 H 0.49143 0.5352 0.86976 0.0
H889 H 0.49986 0.51777 0.75918 0.0
H890 H 0.50022 0.56116 0.76961 0.0
H891 H 0.46329 0.53583 0.77538 0.0
C892 C 0.43141 0.61224 0.81659 0.0
C893 C 0.40287 0.60133 0.83091 0.0
C894 C 0.45999 0.59158 0.81484 0.0
C895 C 0.46005 0.55954 0.82692 0.0
C896 C 0.43142 0.54867 0.84097 0.0
H897 H 0.60851 0.39802 0.80766 0.0
H898 H 0.55709 0.43263 0.80535 0.0
C899 C 0.40324 0.56936 0.84306 0.0
C900 C 0.49032 0.53771 0.82647 0.0
H901 H 0.54578 0.49684 0.78514 0.0
C902 C 0.50321 0.52673 0.85123 0.0
C903 C 0.50528 0.52622 0.80228 0.0
C904 C 0.49129 0.53555 0.77509 0.0
C905 C 0.53077 0.50479 0.85252 0.0
C906 C 0.54668 0.49448 0.8284 0.0
C907 C 0.53361 0.50503 0.80358 0.0
C908 C 0.57768 0.47382 0.8288 0.0
C909 C 0.54219 0.49248 0.87976 0.0
C910 C 0.60624 0.48586 0.84229 0.0
C911 C 0.63512 0.4661 0.84402 0.0
C912 C 0.63633 0.43412 0.83179 0.0
C913 C 0.60811 0.42244 0.81747 0.0
C914 C 0.57888 0.44219 0.81604 0.0
H915 H 0.52146 0.49375 0.89479 0.0
H916 H 0.5515 0.46609 0.87872 0.0
H917 H 0.563 0.50879 0.88708 0.0
H918 H 0.60615 0.51058 0.85162 0.0
H919 H 0.65665 0.47617 0.85474 0.0
H920 H 0.47673 0.65581 0.17697 0.0
H921 H 0.51113 0.60529 0.18015 0.0
H922 H 0.43451 0.55742 0.22849 0.0
H923 H 0.39993 0.60884 0.22608 0.0
H924 H 0.49945 0.54669 0.24774 0.0
H925 H 0.4929 0.51942 0.13862 0.0
H926 H 0.50806 0.5612 0.14535 0.0
H927 H 0.46569 0.54983 0.15474 0.0
C928 C 0.46695 0.63453 0.18817 0.0
C929 C 0.43535 0.63609 0.20096 0.0
C930 C 0.48669 0.60564 0.18992 0.0
C931 C 0.47503 0.57742 0.20403 0.0
C932 C 0.44378 0.57895 0.21732 0.0
H933 H 0.56132 0.38099 0.17999 0.0
H934 H 0.52517 0.43015 0.18366 0.0
C935 C 0.42404 0.60819 0.21584 0.0
C936 C 0.4957 0.54641 0.20454 0.0
H937 H 0.53524 0.49017 0.1633 0.0
C938 C 0.50707 0.53404 0.22935 0.0
C939 C 0.50527 0.52987 0.18049 0.0
C940 C 0.49206 0.54055 0.15333 0.0
C941 C 0.52839 0.50579 0.23069 0.0
C942 C 0.53915 0.49021 0.20653 0.0
C943 C 0.52733 0.5024 0.1818 0.0
C944 C 0.56113 0.46004 0.20614 0.0
C945 C 0.53864 0.49258 0.25792 0.0
C946 C 0.5935 0.46042 0.21764 0.0
C947 C 0.6143 0.43192 0.21586 0.0
C948 C 0.60318 0.40304 0.20206 0.0
C949 C 0.57085 0.40295 0.19051 0.0
C950 C 0.55003 0.43103 0.19267 0.0
H951 H 0.52128 0.50144 0.27401 0.0
H952 H 0.53912 0.46457 0.25807 0.0
H953 H 0.56433 0.50184 0.26278 0.0
H954 H 0.60288 0.48284 0.22759 0.0
H955 H 0.63913 0.43264 0.2249 0.0
H956 H 0.12958 0.11416 0.753 0.0
H957 H 0.08726 0.06991 0.759 0.0
H958 H 0.04813 0.09002 0.6798 0.0
H959 H 0.09045 0.13414 0.67346 0.0
H960 H 0.99787 0.07713 0.72226 0.0
H961 H 0.09895 0.97997 0.71478 0.0
H962 H 0.10494 1.01296 0.73922 0.0
H963 H 0.10516 0.02301 0.70406 0.0
C964 C 0.11168 0.10955 0.73698 0.0
C965 C 0.11381 0.12729 0.71254 0.0
C966 C 0.08759 0.08419 0.74045 0.0
C967 C 0.0651 0.07634 0.71963 0.0
C968 C 0.06549 0.09561 0.69602 0.0
H969 H 0.94996 0.90442 0.67242 0.0
H970 H 0.9921 0.94867 0.67888 0.0
C971 C 0.08967 0.12087 0.69247 0.0
C972 C 0.0427 0.0466 0.72157 0.0
H973 H 0.04329 0.96042 0.72035 0.0
C974 C 1.00771 0.0516 0.72214 0.0
C975 C 0.0558 1.0134 0.72105 0.0
C976 C 0.09324 1.00676 0.71956 0.0
C977 C 0.98535 0.02414 0.72199 0.0
C978 C 0.99844 0.99093 0.72142 0.0
C979 C 0.03344 0.98594 0.72106 0.0
C980 C 0.97601 0.96124 0.71925 0.0
C981 C 0.94787 0.03081 0.72152 0.0
C982 C 0.95407 0.95271 0.74029 0.0
C983 C 0.93008 0.92726 0.73675 0.0
C984 C 0.9275 0.9101 0.71202 0.0
C985 C 0.95108 0.91723 0.69166 0.0
C986 C 0.97516 0.94257 0.69527 0.0
H987 H 0.94203 0.05773 0.71748 0.0
H988 H 0.93543 1.01502 0.70596 0.0
H989 H 0.93684 0.02404 0.74131 0.0
H990 H 0.95479 0.96649 0.75912 0.0
H991 H 0.91263 0.92208 0.75299 0.0
loop_
_geom_bond_atom_site_label_1
_geom_bond_atom_site_label_2
_geom_bond_distance
_geom_bond_site_symmetry_2
_ccdc_geom_bond_type
Co0 O3 1.970 . S
Co0 N17 1.989 . S
Co0 O25 1.967 . S
Co0 O32 1.920 . S
Co1 O4 1.966 . S
Co1 N10 2.022 . S
Co1 N18 1.993 . S
Co1 O26 1.941 . S
C2 O3 1.258 . S
C2 O4 1.263 . S
O3 Co0 1.970 . S
O3 C2 1.258 . S
O4 Co1 1.966 . S
O4 C2 1.263 . S
C5 O6 1.235 . S
C5 O32 1.289 . S
O6 C5 1.235 . S
C7 C9 1.400 . S
C7 N10 1.351 . S
C7 C12 1.501 . S
C8 C9 1.387 . S
C8 N11 1.341 . S
C9 C7 1.400 . S
C9 C8 1.387 . S
N10 Co1 2.022 . S
N10 C7 1.351 . S
N10 N11 1.365 . S
N11 C8 1.341 . S
N11 N10 1.365 . S
N11 H31 0.862 . S
C12 C7 1.501 . S
C12 H13 0.961 . S
C12 H14 0.961 . S
C12 H15 0.960 . S
H13 C12 0.961 . S
H14 C12 0.961 . S
H15 C12 0.960 . S
C16 N17 1.342 1_655 S
C16 C20 1.401 . S
C16 C21 1.499 . S
N17 Co0 1.989 . S
N17 C16 1.342 1_455 S
N17 N18 1.388 . S
N18 Co1 1.993 . S
N18 N17 1.388 . S
N18 C19 1.346 1_455 S
C19 N18 1.346 1_655 S
C19 C20 1.396 . S
C19 C29 1.510 . S
C20 C16 1.401 . S
C20 C19 1.396 . S
C21 C16 1.499 . S
C21 H22 0.959 1_655 S
C21 H23 0.960 . S
C21 H24 0.961 . S
H22 C21 0.959 1_455 S
H23 C21 0.960 . S
H24 C21 0.961 . S
O25 Co0 1.967 . S
O25 C33 1.258 . S
O26 Co1 1.941 . S
O26 C33 1.266 . S
H27 C29 0.959 . S
H28 C29 0.961 . S
C29 C19 1.510 . S
C29 H27 0.959 . S
C29 H28 0.961 . S
C29 H30 0.960 1_655 S
H30 C29 0.960 1_455 S
H31 N11 0.862 . S
O32 Co0 1.920 . S
O32 C5 1.289 . S
C33 O25 1.258 . S
C33 O26 1.266 . S
Co34 O37 1.970 . S
Co34 N51 1.989 . S
Co34 O59 1.967 . S
Co34 O66 1.920 . S
Co35 O38 1.966 . S
Co35 N44 2.022 . S
Co35 N52 1.993 . S
Co35 O60 1.941 . S
C36 O37 1.258 . S
C36 O38 1.263 . S
O37 Co34 1.970 . S
O37 C36 1.258 . S
O38 Co35 1.966 . S
O38 C36 1.263 . S
C39 O40 1.235 . S
C39 O66 1.289 . S
O40 C39 1.235 . S
C41 C43 1.400 . S
C41 N44 1.351 . S
C41 C46 1.501 . S
C42 C43 1.387 . S
C42 N45 1.341 . S
C43 C41 1.400 . S
C43 C42 1.387 . S
N44 Co35 2.022 . S
N44 C41 1.351 . S
N44 N45 1.365 . S
N45 C42 1.341 . S
N45 N44 1.365 . S
N45 H65 0.862 . S
C46 C41 1.501 . S
C46 H47 0.961 . S
C46 H48 0.961 . S
C46 H49 0.960 . S
H47 C46 0.961 . S
H48 C46 0.961 . S
H49 C46 0.960 . S
C50 N51 1.342 . S
C50 C54 1.401 . S
C50 C55 1.499 . S
N51 Co34 1.989 . S
N51 C50 1.342 . S
N51 N52 1.388 . S
N52 Co35 1.993 . S
N52 N51 1.388 . S
N52 C53 1.346 . S
C53 N52 1.346 . S
C53 C54 1.396 . S
C53 C63 1.510 . S
C54 C50 1.401 . S
C54 C53 1.396 . S
C55 C50 1.499 . S
C55 H56 0.959 . S
C55 H57 0.960 . S
C55 H58 0.961 . S
H56 C55 0.959 . S
H57 C55 0.960 . S
H58 C55 0.961 . S
O59 Co34 1.967 . S
O59 C67 1.258 . S
O60 Co35 1.941 . S
O60 C67 1.266 . S
H61 C63 0.959 . S
H62 C63 0.961 . S
C63 C53 1.510 . S
C63 H61 0.959 . S
C63 H62 0.961 . S
C63 H64 0.960 . S
H64 C63 0.960 . S
H65 N45 0.862 . S
O66 Co34 1.920 . S
O66 C39 1.289 . S
C67 O59 1.258 . S
C67 O60 1.266 . S
Co68 O71 1.970 . S
Co68 N85 1.989 . S
Co68 O93 1.967 . S
Co68 O100 1.920 . S
Co69 O72 1.966 . S
Co69 N78 2.022 . S
Co69 N86 1.993 . S
Co69 O94 1.941 . S
C70 O71 1.258 . S
C70 O72 1.263 . S
O71 Co68 1.970 . S
O71 C70 1.258 . S
O72 Co69 1.966 . S
O72 C70 1.263 . S
C73 O74 1.235 . S
C73 O100 1.289 . S
O74 C73 1.235 . S
C75 C77 1.400 . S
C75 N78 1.351 . S
C75 C80 1.501 . S
C76 C77 1.387 . S
C76 N79 1.341 . S
C77 C75 1.400 . S
C77 C76 1.387 . S
N78 Co69 2.022 . S
N78 C75 1.351 . S
N78 N79 1.365 . S
N79 C76 1.341 . S
N79 N78 1.365 . S
N79 H99 0.862 . S
C80 C75 1.501 . S
C80 H81 0.961 . S
C80 H82 0.961 . S
C80 H83 0.960 . S
H81 C80 0.961 . S
H82 C80 0.961 . S
H83 C80 0.960 . S
C84 N85 1.342 1_455 S
C84 C88 1.401 . S
C84 C89 1.499 . S
N85 Co68 1.989 . S
N85 C84 1.342 1_655 S
N85 N86 1.388 . S
N86 Co69 1.993 . S
N86 N85 1.388 . S
N86 C87 1.346 1_655 S
C87 N86 1.346 1_455 S
C87 C88 1.396 . S
C87 C97 1.510 . S
C88 C84 1.401 . S
C88 C87 1.396 . S
C89 C84 1.499 . S
C89 H90 0.959 1_455 S
C89 H91 0.960 . S
C89 H92 0.961 . S
H90 C89 0.959 1_655 S
H91 C89 0.960 . S
H92 C89 0.961 . S
O93 Co68 1.967 . S
O93 C101 1.258 . S
O94 Co69 1.941 . S
O94 C101 1.266 . S
H95 C97 0.959 . S
H96 C97 0.961 . S
C97 C87 1.510 . S
C97 H95 0.959 . S
C97 H96 0.961 . S
C97 H98 0.960 1_455 S
H98 C97 0.960 1_655 S
H99 N79 0.862 . S
O100 Co68 1.920 . S
O100 C73 1.289 . S
C101 O93 1.258 . S
C101 O94 1.266 . S
Co102 O105 1.970 . S
Co102 N119 1.989 . S
Co102 O127 1.967 . S
Co102 O134 1.920 . S
Co103 O106 1.966 . S
Co103 N112 2.022 . S
Co103 N120 1.993 . S
Co103 O128 1.941 . S
C104 O105 1.258 . S
C104 O106 1.263 . S
O105 Co102 1.970 . S
O105 C104 1.258 . S
O106 Co103 1.966 . S
O106 C104 1.263 . S
C107 O108 1.235 . S
C107 O134 1.289 . S
O108 C107 1.235 . S
C109 C111 1.400 . S
C109 N112 1.351 . S
C109 C114 1.501 . S
C110 C111 1.387 . S
C110 N113 1.341 . S
C111 C109 1.400 . S
C111 C110 1.387 . S
N112 Co103 2.022 . S
N112 C109 1.351 . S
N112 N113 1.365 . S
N113 C110 1.341 . S
N113 N112 1.365 . S
N113 H133 0.862 . S
C114 C109 1.501 . S
C114 H115 0.961 . S
C114 H116 0.961 . S
C114 H117 0.960 . S
H115 C114 0.961 . S
H116 C114 0.961 . S
H117 C114 0.960 . S
C118 N119 1.342 . S
C118 C122 1.401 . S
C118 C123 1.499 . S
N119 Co102 1.989 . S
N119 C118 1.342 . S
N119 N120 1.388 . S
N120 Co103 1.993 . S
N120 N119 1.388 . S
N120 C121 1.346 . S
C121 N120 1.346 . S
C121 C122 1.396 . S
C121 C131 1.510 . S
C122 C118 1.401 . S
C122 C121 1.396 . S
C123 C118 1.499 . S
C123 H124 0.959 . S
C123 H125 0.960 . S
C123 H126 0.961 . S
H124 C123 0.959 . S
H125 C123 0.960 . S
H126 C123 0.961 . S
O127 Co102 1.967 . S
O127 C135 1.258 . S
O128 Co103 1.941 . S
O128 C135 1.266 . S
H129 C131 0.959 . S
H130 C131 0.961 . S
C131 C121 1.510 . S
C131 H129 0.959 . S
C131 H130 0.961 . S
C131 H132 0.960 . S
H132 C131 0.960 . S
H133 N113 0.862 . S
O134 Co102 1.920 . S
O134 C107 1.289 . S
C135 O127 1.258 . S
C135 O128 1.266 . S
Co136 O139 1.970 . S
Co136 N153 1.989 . S
Co136 O161 1.967 . S
Co136 O168 1.920 . S
Co137 O140 1.966 . S
Co137 N146 2.022 . S
Co137 N154 1.993 . S
Co137 O162 1.941 . S
C138 O139 1.258 . S
C138 O140 1.263 . S
O139 Co136 1.970 . S
O139 C138 1.258 . S
O140 Co137 1.966 . S
O140 C138 1.263 . S
C141 O142 1.235 . S
C141 O168 1.289 . S
O142 C141 1.235 . S
C143 C145 1.400 . S
C143 N146 1.351 . S
C143 C148 1.501 . S
C144 C145 1.387 . S
C144 N147 1.341 . S
C145 C143 1.400 . S
C145 C144 1.387 . S
N146 Co137 2.022 . S
N146 C143 1.351 . S
N146 N147 1.365 . S
N147 C144 1.341 . S
N147 N146 1.365 . S
N147 H167 0.862 . S
C148 C143 1.501 . S
C148 H149 0.961 . S
C148 H150 0.961 . S
C148 H151 0.960 . S
H149 C148 0.961 . S
H150 C148 0.961 . S
H151 C148 0.960 . S
C152 N153 1.342 . S
C152 C156 1.401 . S
C152 C157 1.499 . S
N153 Co136 1.989 . S
N153 C152 1.342 . S
N153 N154 1.388 . S
N154 Co137 1.993 . S
N154 N153 1.388 . S
N154 C155 1.346 . S
C155 N154 1.346 . S
C155 C156 1.396 . S
C155 C165 1.510 . S
C156 C152 1.401 . S
C156 C155 1.396 . S
C157 C152 1.499 . S
C157 H158 0.959 . S
C157 H159 0.960 . S
C157 H160 0.961 . S
H158 C157 0.959 . S
H159 C157 0.960 . S
H160 C157 0.961 . S
O161 Co136 1.967 . S
O161 C169 1.258 . S
O162 Co137 1.941 . S
O162 C169 1.266 . S
H163 C165 0.959 . S
H164 C165 0.961 . S
C165 C155 1.510 . S
C165 H163 0.959 . S
C165 H164 0.961 . S
C165 H166 0.960 . S
H166 C165 0.960 . S
H167 N147 0.862 . S
O168 Co136 1.920 . S
O168 C141 1.289 . S
C169 O161 1.258 . S
C169 O162 1.266 . S
Co170 O173 1.970 . S
Co170 N187 1.989 . S
Co170 O195 1.967 . S
Co170 O202 1.920 . S
Co171 O174 1.966 . S
Co171 N180 2.022 . S
Co171 N188 1.993 . S
Co171 O196 1.941 . S
C172 O173 1.258 . S
C172 O174 1.263 . S
O173 Co170 1.970 . S
O173 C172 1.258 . S
O174 Co171 1.966 . S
O174 C172 1.263 . S
C175 O176 1.235 . S
C175 O202 1.289 . S
O176 C175 1.235 . S
C177 C179 1.400 . S
C177 N180 1.351 . S
C177 C182 1.501 . S
C178 C179 1.387 . S
C178 N181 1.341 . S
C179 C177 1.400 . S
C179 C178 1.387 . S
N180 Co171 2.022 . S
N180 C177 1.351 . S
N180 N181 1.365 . S
N181 C178 1.341 . S
N181 N180 1.365 . S
N181 H201 0.862 . S
C182 C177 1.501 . S
C182 H183 0.961 . S
C182 H184 0.961 . S
C182 H185 0.960 . S
H183 C182 0.961 . S
H184 C182 0.961 . S
H185 C182 0.960 . S
C186 N187 1.342 1_565 S
C186 C190 1.401 . S
C186 C191 1.499 . S
N187 Co170 1.989 . S
N187 C186 1.342 1_545 S
N187 N188 1.388 . S
N188 Co171 1.993 . S
N188 N187 1.388 . S
N188 C189 1.346 1_545 S
C189 N188 1.346 1_565 S
C189 C190 1.396 . S
C189 C199 1.510 . S
C190 C186 1.401 . S
C190 C189 1.396 . S
C191 C186 1.499 . S
C191 H192 0.959 1_565 S
C191 H193 0.960 . S
C191 H194 0.961 . S
H192 C191 0.959 1_545 S
H193 C191 0.960 . S
H194 C191 0.961 . S
O195 Co170 1.967 . S
O195 C203 1.258 . S
O196 Co171 1.941 . S
O196 C203 1.266 . S
H197 C199 0.959 . S
H198 C199 0.961 . S
C199 C189 1.510 . S
C199 H197 0.959 . S
C199 H198 0.961 . S
C199 H200 0.960 1_565 S
H200 C199 0.960 1_545 S
H201 N181 0.862 . S
O202 Co170 1.920 . S
O202 C175 1.289 . S
C203 O195 1.258 . S
C203 O196 1.266 . S
Co204 O207 1.970 . S
Co204 N221 1.989 . S
Co204 O229 1.967 . S
Co204 O236 1.920 . S
Co205 O208 1.966 . S
Co205 N214 2.022 . S
Co205 N222 1.993 . S
Co205 O230 1.941 . S
C206 O207 1.258 . S
C206 O208 1.263 . S
O207 Co204 1.970 . S
O207 C206 1.258 . S
O208 Co205 1.966 . S
O208 C206 1.263 . S
C209 O210 1.235 . S
C209 O236 1.289 . S
O210 C209 1.235 . S
C211 C213 1.400 . S
C211 N214 1.351 . S
C211 C216 1.501 . S
C212 C213 1.387 . S
C212 N215 1.341 . S
C213 C211 1.400 . S
C213 C212 1.387 . S
N214 Co205 2.022 . S
N214 C211 1.351 . S
N214 N215 1.365 . S
N215 C212 1.341 . S
N215 N214 1.365 . S
N215 H235 0.862 . S
C216 C211 1.501 . S
C216 H217 0.961 . S
C216 H218 0.961 . S
C216 H219 0.960 . S
H217 C216 0.961 . S
H218 C216 0.961 . S
H219 C216 0.960 . S
C220 N221 1.342 . S
C220 C224 1.401 . S
C220 C225 1.499 . S
N221 Co204 1.989 . S
N221 C220 1.342 . S
N221 N222 1.388 . S
N222 Co205 1.993 . S
N222 N221 1.388 . S
N222 C223 1.346 . S
C223 N222 1.346 . S
C223 C224 1.396 . S
C223 C233 1.510 . S
C224 C220 1.401 . S
C224 C223 1.396 . S
C225 C220 1.499 . S
C225 H226 0.959 . S
C225 H227 0.960 . S
C225 H228 0.961 . S
H226 C225 0.959 . S
H227 C225 0.960 . S
H228 C225 0.961 . S
O229 Co204 1.967 . S
O229 C237 1.258 . S
O230 Co205 1.941 . S
O230 C237 1.266 . S
H231 C233 0.959 . S
H232 C233 0.961 . S
C233 C223 1.510 . S
C233 H231 0.959 . S
C233 H232 0.961 . S
C233 H234 0.960 . S
H234 C233 0.960 . S
H235 N215 0.862 . S
O236 Co204 1.920 . S
O236 C209 1.289 . S
C237 O229 1.258 . S
C237 O230 1.266 . S
Co238 O241 1.970 . S
Co238 N255 1.989 . S
Co238 O263 1.967 . S
Co238 O270 1.920 . S
Co239 O242 1.966 . S
Co239 N248 2.022 . S
Co239 N256 1.993 . S
Co239 O264 1.941 . S
C240 O241 1.258 . S
C240 O242 1.263 . S
O241 Co238 1.970 . S
O241 C240 1.258 . S
O242 Co239 1.966 . S
O242 C240 1.263 . S
C243 O244 1.235 . S
C243 O270 1.289 . S
O244 C243 1.235 . S
C245 C247 1.400 . S
C245 N248 1.351 . S
C245 C250 1.501 . S
C246 C247 1.387 . S
C246 N249 1.341 . S
C247 C245 1.400 . S
C247 C246 1.387 . S
N248 Co239 2.022 . S
N248 C245 1.351 . S
N248 N249 1.365 . S
N249 C246 1.341 . S
N249 N248 1.365 . S
N249 H269 0.862 . S
C250 C245 1.501 . S
C250 H251 0.961 . S
C250 H252 0.961 . S
C250 H253 0.960 . S
H251 C250 0.961 . S
H252 C250 0.961 . S
H253 C250 0.960 . S
C254 N255 1.342 1_545 S
C254 C258 1.401 . S
C254 C259 1.499 . S
N255 Co238 1.989 . S
N255 C254 1.342 1_565 S
N255 N256 1.388 . S
N256 Co239 1.993 . S
N256 N255 1.388 . S
N256 C257 1.346 1_565 S
C257 N256 1.346 1_545 S
C257 C258 1.396 . S
C257 C267 1.510 . S
C258 C254 1.401 . S
C258 C257 1.396 . S
C259 C254 1.499 . S
C259 H260 0.959 1_545 S
C259 H261 0.960 . S
C259 H262 0.961 . S
H260 C259 0.959 1_565 S
H261 C259 0.960 . S
H262 C259 0.961 . S
O263 Co238 1.967 . S
O263 C271 1.258 . S
O264 Co239 1.941 . S
O264 C271 1.266 . S
H265 C267 0.959 . S
H266 C267 0.961 . S
C267 C257 1.510 . S
C267 H265 0.959 . S
C267 H266 0.961 . S
C267 H268 0.960 1_545 S
H268 C267 0.960 1_565 S
H269 N249 0.862 . S
O270 Co238 1.920 . S
O270 C243 1.289 . S
C271 O263 1.258 . S
C271 O264 1.266 . S
H272 C280 0.929 . S
H273 C282 0.930 . S
H274 C284 0.930 . S
H275 C287 0.929 . S
H276 C290 0.930 . S
H277 C292 0.960 . S
H278 C292 0.960 . S
H279 C292 0.960 . S
C280 H272 0.929 . S
C280 C281 1.377 . S
C280 C282 1.384 . S
C281 C280 1.377 . S
C281 C287 1.390 . S
C282 H273 0.930 . S
C282 C280 1.384 . S
C282 C283 1.372 . S
C283 C282 1.372 . S
C283 C284 1.400 . S
C283 C288 1.490 . S
C284 H274 0.930 . S
C284 C283 1.400 . S
C284 C287 1.386 . S
H285 C301 0.930 . S
H286 C302 0.931 . S
C287 H275 0.929 . S
C287 C281 1.390 . S
C287 C284 1.386 . S
C288 C283 1.490 . S
C288 C290 1.395 1_655 S
C288 C291 1.403 . S
H289 C295 0.930 . S
C290 H276 0.930 . S
C290 C288 1.395 1_455 S
C290 C293 1.403 . S
C291 C288 1.403 . S
C291 C292 1.524 . S
C291 C295 1.400 . S
C292 H277 0.960 . S
C292 H278 0.960 . S
C292 H279 0.960 . S
C292 C291 1.524 . S
C293 C290 1.403 . S
C293 C294 1.392 . S
C293 C297 1.495 . S
C294 C293 1.392 . S
C294 C295 1.385 1_455 S
C294 C296 1.478 . S
C295 H289 0.930 . S
C295 C291 1.400 . S
C295 C294 1.385 1_655 S
C296 C294 1.478 . S
C296 C298 1.381 . S
C296 C302 1.383 . S
C297 C293 1.495 . S
C297 H303 0.959 . S
C297 H304 0.961 . S
C297 H305 0.960 . S
C298 C296 1.381 . S
C298 C299 1.394 . S
C298 H306 0.930 . S
C299 C298 1.394 . S
C299 C300 1.383 . S
C299 H307 0.929 . S
C300 C299 1.383 . S
C300 C301 1.377 . S
C301 H285 0.930 . S
C301 C300 1.377 . S
C301 C302 1.379 . S
C302 H286 0.931 . S
C302 C296 1.383 . S
C302 C301 1.379 . S
H303 C297 0.959 . S
H304 C297 0.961 . S
H305 C297 0.960 . S
H306 C298 0.930 . S
H307 C299 0.929 . S
H308 C316 0.929 . S
H309 C318 0.930 . S
H310 C320 0.930 . S
H311 C323 0.929 . S
H312 C326 0.930 . S
H313 C328 0.960 . S
H314 C328 0.960 . S
H315 C328 0.960 . S
C316 H308 0.929 . S
C316 C317 1.377 . S
C316 C318 1.384 . S
C317 C316 1.377 . S
C317 C323 1.390 . S
C318 H309 0.930 . S
C318 C316 1.384 . S
C318 C319 1.372 . S
C319 C318 1.372 . S
C319 C320 1.400 . S
C319 C324 1.490 . S
C320 H310 0.930 . S
C320 C319 1.400 . S
C320 C323 1.386 . S
H321 C337 0.930 . S
H322 C338 0.931 . S
C323 H311 0.929 . S
C323 C317 1.390 . S
C323 C320 1.386 . S
C324 C319 1.490 . S
C324 C326 1.395 . S
C324 C327 1.403 . S
H325 C331 0.930 . S
C326 H312 0.930 . S
C326 C324 1.395 . S
C326 C329 1.403 1_655 S
C327 C324 1.403 . S
C327 C328 1.524 . S
C327 C331 1.400 1_655 S
C328 H313 0.960 . S
C328 H314 0.960 . S
C328 H315 0.960 . S
C328 C327 1.524 . S
C329 C326 1.403 1_455 S
C329 C330 1.392 . S
C329 C333 1.495 . S
C330 C329 1.392 . S
C330 C331 1.385 . S
C330 C332 1.478 . S
C331 H325 0.930 . S
C331 C327 1.400 1_455 S
C331 C330 1.385 . S
C332 C330 1.478 . S
C332 C334 1.381 . S
C332 C338 1.383 . S
C333 C329 1.495 . S
C333 H339 0.959 . S
C333 H340 0.961 . S
C333 H341 0.960 . S
C334 C332 1.381 . S
C334 C335 1.394 . S
C334 H342 0.930 . S
C335 C334 1.394 . S
C335 C336 1.383 . S
C335 H343 0.929 . S
C336 C335 1.383 . S
C336 C337 1.377 . S
C337 H321 0.930 . S
C337 C336 1.377 . S
C337 C338 1.379 . S
C338 H322 0.931 . S
C338 C332 1.383 . S
C338 C337 1.379 . S
H339 C333 0.959 . S
H340 C333 0.961 . S
H341 C333 0.960 . S
H342 C334 0.930 . S
H343 C335 0.929 . S
H344 C352 0.929 . S
H345 C354 0.930 . S
H346 C356 0.930 . S
H347 C359 0.929 . S
H348 C362 0.930 . S
H349 C364 0.983 . S
H350 C364 0.960 . S
H351 C364 0.960 . S
C352 H344 0.929 . S
C352 C353 1.377 . S
C352 C354 1.384 . S
C353 C352 1.377 . S
C353 C359 1.390 . S
C354 H345 0.930 . S
C354 C352 1.384 . S
C354 C355 1.372 . S
C355 C354 1.372 . S
C355 C356 1.400 . S
C355 C360 1.490 . S
C356 H346 0.930 . S
C356 C355 1.400 . S
C356 C359 1.386 . S
H357 C373 0.930 . S
H358 C374 0.931 . S
C359 H347 0.929 . S
C359 C353 1.390 . S
C359 C356 1.386 . S
C360 C355 1.490 . S
C360 C362 1.395 . S
C360 C363 1.403 . S
H361 C367 0.930 . S
C362 H348 0.930 . S
C362 C360 1.395 . S
C362 C365 1.403 1_565 S
C363 C360 1.403 . S
C363 C364 1.524 . S
C363 C367 1.400 1_565 S
C364 H349 0.983 . S
C364 H350 0.960 . S
C364 H351 0.960 . S
C364 C363 1.524 . S
C365 C362 1.403 1_545 S
C365 C366 1.392 . S
C365 C369 1.495 . S
C366 C365 1.392 . S
C366 C367 1.385 . S
C366 C368 1.478 . S
C367 H361 0.930 . S
C367 C363 1.400 1_545 S
C367 C366 1.385 . S
C368 C366 1.478 . S
C368 C370 1.381 . S
C368 C374 1.383 . S
C369 C365 1.495 . S
C369 H375 0.959 1_545 S
C369 H376 0.961 . S
C369 H377 0.960 . S
C370 C368 1.381 . S
C370 C371 1.394 . S
C370 H378 0.930 . S
C371 C370 1.394 . S
C371 C372 1.383 . S
C371 H379 0.929 . S
C372 C371 1.383 . S
C372 C373 1.377 . S
C373 H357 0.930 . S
C373 C372 1.377 . S
C373 C374 1.379 . S
C374 H358 0.931 . S
C374 C368 1.383 . S
C374 C373 1.379 . S
H375 C369 0.959 1_565 S
H376 C369 0.961 . S
H377 C369 0.960 . S
H378 C370 0.930 . S
H379 C371 0.929 . S
H380 C388 0.929 . S
H381 C390 0.930 . S
H382 C392 0.930 1_545 S
H383 C395 0.929 . S
H384 C398 0.930 . S
H385 C400 0.960 . S
H386 C400 0.960 . S
H387 C400 0.960 . S
C388 H380 0.929 . S
C388 C389 1.377 . S
C388 C390 1.384 . S
C389 C388 1.377 . S
C389 C395 1.390 . S
C390 H381 0.930 . S
C390 C388 1.384 . S
C390 C391 1.372 . S
C391 C390 1.372 . S
C391 C392 1.400 . S
C391 C396 1.490 . S
C392 H382 0.930 1_565 S
C392 C391 1.400 . S
C392 C395 1.386 . S
H393 C409 0.930 . S
H394 C410 0.931 . S
C395 H383 0.929 . S
C395 C389 1.390 . S
C395 C392 1.386 . S
C396 C391 1.490 . S
C396 C398 1.395 . S
C396 C399 1.403 1_565 S
H397 C403 0.930 . S
C398 H384 0.930 . S
C398 C396 1.395 . S
C398 C401 1.403 . S
C399 C396 1.403 1_545 S
C399 C400 1.524 . S
C399 C403 1.400 . S
C400 H385 0.960 . S
C400 H386 0.960 . S
C400 H387 0.960 . S
C400 C399 1.524 . S
C401 C398 1.403 . S
C401 C402 1.392 1_565 S
C401 C405 1.495 . S
C402 C401 1.392 1_545 S
C402 C403 1.385 . S
C402 C404 1.478 . S
C403 H397 0.930 . S
C403 C399 1.400 . S
C403 C402 1.385 . S
C404 C402 1.478 . S
C404 C406 1.381 . S
C404 C410 1.383 . S
C405 C401 1.495 . S
C405 H411 0.959 . S
C405 H412 0.961 . S
C405 H413 0.960 . S
C406 C404 1.381 . S
C406 C407 1.394 . S
C406 H414 0.930 1_545 S
C407 C406 1.394 . S
C407 C408 1.383 . S
C407 H415 0.929 . S
C408 C407 1.383 . S
C408 C409 1.377 . S
C409 H393 0.930 . S
C409 C408 1.377 . S
C409 C410 1.379 . S
C410 H394 0.931 . S
C410 C404 1.383 . S
C410 C409 1.379 . S
H411 C405 0.959 . S
H412 C405 0.961 . S
H413 C405 0.960 . S
H414 C406 0.930 1_565 S
H415 C407 0.929 . S
H416 C424 0.929 . S
H417 C426 0.930 . S
H418 C428 0.930 . S
H419 C431 0.929 . S
H420 C434 0.930 . S
H421 C436 0.960 . S
H422 C436 0.960 . S
H423 C436 0.960 . S
C424 H416 0.929 . S
C424 C425 1.377 . S
C424 C426 1.384 . S
C425 C424 1.377 . S
C425 C431 1.390 . S
C426 H417 0.930 . S
C426 C424 1.384 . S
C426 C427 1.372 . S
C427 C426 1.372 . S
C427 C428 1.400 . S
C427 C432 1.490 . S
C428 H418 0.930 . S
C428 C427 1.400 . S
C428 C431 1.386 . S
H429 C445 0.930 . S
H430 C446 0.931 . S
C431 H419 0.929 . S
C431 C425 1.390 . S
C431 C428 1.386 . S
C432 C427 1.490 . S
C432 C434 1.395 . S
C432 C435 1.403 . S
H433 C439 0.930 . S
C434 H420 0.930 . S
C434 C432 1.395 . S
C434 C437 1.403 . S
C435 C432 1.403 . S
C435 C436 1.524 . S
C435 C439 1.400 . S
C436 H421 0.960 . S
C436 H422 0.960 . S
C436 H423 0.960 . S
C436 C435 1.524 . S
C437 C434 1.403 . S
C437 C438 1.392 . S
C437 C441 1.495 . S
C438 C437 1.392 . S
C438 C439 1.385 . S
C438 C440 1.478 . S
C439 H433 0.930 . S
C439 C435 1.400 . S
C439 C438 1.385 . S
C440 C438 1.478 . S
C440 C442 1.381 . S
C440 C446 1.383 . S
C441 C437 1.495 . S
C441 H447 0.959 . S
C441 H448 0.961 . S
C441 H449 0.960 . S
C442 C440 1.381 . S
C442 C443 1.394 . S
C442 H450 0.930 . S
C443 C442 1.394 . S
C443 C444 1.383 . S
C443 H451 0.929 . S
C444 C443 1.383 . S
C444 C445 1.377 . S
C445 H429 0.930 . S
C445 C444 1.377 . S
C445 C446 1.379 . S
C446 H430 0.931 . S
C446 C440 1.383 . S
C446 C445 1.379 . S
H447 C441 0.959 . S
H448 C441 0.961 . S
H449 C441 0.960 . S
H450 C442 0.930 . S
H451 C443 0.929 . S
H452 C460 0.929 . S
H453 C462 0.930 . S
H454 C464 0.930 . S
H455 C467 0.929 . S
H456 C470 0.930 . S
H457 C472 0.960 . S
H458 C472 0.960 . S
H459 C472 0.960 . S
C460 H452 0.929 . S
C460 C461 1.377 . S
C460 C462 1.384 . S
C461 C460 1.377 . S
C461 C467 1.390 . S
C462 H453 0.930 . S
C462 C460 1.384 . S
C462 C463 1.372 . S
C463 C462 1.372 . S
C463 C464 1.400 . S
C463 C468 1.490 . S
C464 H454 0.930 . S
C464 C463 1.400 . S
C464 C467 1.386 . S
H465 C481 0.930 . S
H466 C482 0.931 . S
C467 H455 0.929 . S
C467 C461 1.390 . S
C467 C464 1.386 . S
C468 C463 1.490 . S
C468 C470 1.395 . S
C468 C471 1.403 . S
H469 C475 0.930 . S
C470 H456 0.930 . S
C470 C468 1.395 . S
C470 C473 1.403 . S
C471 C468 1.403 . S
C471 C472 1.524 . S
C471 C475 1.400 . S
C472 H457 0.960 . S
C472 H458 0.960 . S
C472 H459 0.960 . S
C472 C471 1.524 . S
C473 C470 1.403 . S
C473 C474 1.392 . S
C473 C477 1.495 . S
C474 C473 1.392 . S
C474 C475 1.385 . S
C474 C476 1.478 . S
C475 H469 0.930 . S
C475 C471 1.400 . S
C475 C474 1.385 . S
C476 C474 1.478 . S
C476 C478 1.381 . S
C476 C482 1.383 . S
C477 C473 1.495 . S
C477 H483 0.959 . S
C477 H484 0.961 . S
C477 H485 0.960 . S
C478 C476 1.381 . S
C478 C479 1.394 . S
C478 H486 0.930 . S
C479 C478 1.394 . S
C479 C480 1.383 . S
C479 H487 0.929 . S
C480 C479 1.383 . S
C480 C481 1.377 . S
C481 H465 0.930 . S
C481 C480 1.377 . S
C481 C482 1.379 . S
C482 H466 0.931 . S
C482 C476 1.383 . S
C482 C481 1.379 . S
H483 C477 0.959 . S
H484 C477 0.961 . S
H485 C477 0.960 . S
H486 C478 0.930 . S
H487 C479 0.929 . S
H488 C496 0.929 . S
H489 C498 0.930 . S
H490 C500 0.930 . S
H491 C503 0.929 . S
H492 C506 0.930 . S
H493 C508 0.960 . S
H494 C508 0.960 . S
H495 C508 0.960 . S
C496 H488 0.929 . S
C496 C497 1.377 . S
C496 C498 1.384 . S
C497 C496 1.377 . S
C497 C503 1.390 . S
C498 H489 0.930 . S
C498 C496 1.384 . S
C498 C499 1.372 . S
C499 C498 1.372 . S
C499 C500 1.400 . S
C499 C504 1.490 . S
C500 H490 0.930 . S
C500 C499 1.400 . S
C500 C503 1.386 . S
H501 C517 0.930 . S
H502 C518 0.931 . S
C503 H491 0.929 . S
C503 C497 1.390 . S
C503 C500 1.386 . S
C504 C499 1.490 . S
C504 C506 1.395 . S
C504 C507 1.403 . S
H505 C511 0.930 . S
C506 H492 0.930 . S
C506 C504 1.395 . S
C506 C509 1.403 . S
C507 C504 1.403 . S
C507 C508 1.524 . S
C507 C511 1.400 . S
C508 H493 0.960 . S
C508 H494 0.960 . S
C508 H495 0.960 . S
C508 C507 1.524 . S
C509 C506 1.403 . S
C509 C510 1.392 . S
C509 C513 1.495 . S
C510 C509 1.392 . S
C510 C511 1.385 . S
C510 C512 1.478 . S
C511 H505 0.930 . S
C511 C507 1.400 . S
C511 C510 1.385 . S
C512 C510 1.478 . S
C512 C514 1.381 . S
C512 C518 1.383 . S
C513 C509 1.495 . S
C513 H519 0.959 . S
C513 H520 0.961 . S
C513 H521 0.960 . S
C514 C512 1.381 . S
C514 C515 1.394 . S
C514 H522 0.930 . S
C515 C514 1.394 . S
C515 C516 1.383 . S
C515 H523 0.929 . S
C516 C515 1.383 . S
C516 C517 1.377 . S
C517 H501 0.930 . S
C517 C516 1.377 . S
C517 C518 1.379 . S
C518 H502 0.931 . S
C518 C512 1.383 . S
C518 C517 1.379 . S
H519 C513 0.959 . S
H520 C513 0.961 . S
H521 C513 0.960 . S
H522 C514 0.930 . S
H523 C515 0.929 . S
H524 C532 0.929 . S
H525 C534 0.930 . S
H526 C536 0.930 . S
H527 C539 0.929 . S
H528 C542 0.930 . S
H529 C544 0.960 . S
H530 C544 0.960 . S
H531 C544 0.960 . S
C532 H524 0.929 . S
C532 C533 1.377 . S
C532 C534 1.384 . S
C533 C532 1.377 . S
C533 C539 1.390 . S
C534 H525 0.930 . S
C534 C532 1.384 . S
C534 C535 1.372 . S
C535 C534 1.372 . S
C535 C536 1.400 . S
C535 C540 1.490 . S
C536 H526 0.930 . S
C536 C535 1.400 . S
C536 C539 1.386 . S
H537 C553 0.930 . S
H538 C554 0.931 . S
C539 H527 0.929 . S
C539 C533 1.390 . S
C539 C536 1.386 . S
C540 C535 1.490 . S
C540 C542 1.395 . S
C540 C543 1.403 . S
H541 C547 0.930 . S
C542 H528 0.930 . S
C542 C540 1.395 . S
C542 C545 1.403 . S
C543 C540 1.403 . S
C543 C544 1.524 . S
C543 C547 1.400 . S
C544 H529 0.960 . S
C544 H530 0.960 . S
C544 H531 0.960 . S
C544 C543 1.524 . S
C545 C542 1.403 . S
C545 C546 1.392 . S
C545 C549 1.495 . S
C546 C545 1.392 . S
C546 C547 1.385 . S
C546 C548 1.478 . S
C547 H541 0.930 . S
C547 C543 1.400 . S
C547 C546 1.385 . S
C548 C546 1.478 . S
C548 C550 1.381 . S
C548 C554 1.383 . S
C549 C545 1.495 . S
C549 H555 0.959 . S
C549 H556 0.961 . S
C549 H557 0.960 . S
C550 C548 1.381 . S
C550 C551 1.394 . S
C550 H558 0.930 . S
C551 C550 1.394 . S
C551 C552 1.383 . S
C551 H559 0.929 . S
C552 C551 1.383 . S
C552 C553 1.377 . S
C553 H537 0.930 . S
C553 C552 1.377 . S
C553 C554 1.379 . S
C554 H538 0.931 . S
C554 C548 1.383 . S
C554 C553 1.379 . S
H555 C549 0.959 . S
H556 C549 0.961 . S
H557 C549 0.960 . S
H558 C550 0.930 . S
H559 C551 0.929 . S
H560 C568 0.929 . S
H561 C570 0.930 . S
H562 C572 0.930 . S
H563 C575 0.929 . S
H564 C578 0.930 . S
H565 C580 0.960 . S
H566 C580 0.960 . S
H567 C580 0.960 . S
C568 H560 0.929 . S
C568 C569 1.377 . S
C568 C570 1.384 . S
C569 C568 1.377 . S
C569 C575 1.390 . S
C570 H561 0.930 . S
C570 C568 1.384 . S
C570 C571 1.372 . S
C571 C570 1.372 . S
C571 C572 1.400 . S
C571 C576 1.490 . S
C572 H562 0.930 . S
C572 C571 1.400 . S
C572 C575 1.386 . S
H573 C589 0.930 . S
H574 C590 0.931 . S
C575 H563 0.929 . S
C575 C569 1.390 . S
C575 C572 1.386 . S
C576 C571 1.490 . S
C576 C578 1.395 . S
C576 C579 1.403 . S
H577 C583 0.930 . S
C578 H564 0.930 . S
C578 C576 1.395 . S
C578 C581 1.403 . S
C579 C576 1.403 . S
C579 C580 1.524 . S
C579 C583 1.400 . S
C580 H565 0.960 . S
C580 H566 0.960 . S
C580 H567 0.960 . S
C580 C579 1.524 . S
C581 C578 1.403 . S
C581 C582 1.392 . S
C581 C585 1.495 . S
C582 C581 1.392 . S
C582 C583 1.385 . S
C582 C584 1.478 . S
C583 H577 0.930 . S
C583 C579 1.400 . S
C583 C582 1.385 . S
C584 C582 1.478 . S
C584 C586 1.381 . S
C584 C590 1.383 . S
C585 C581 1.495 . S
C585 H591 0.959 . S
C585 H592 0.961 . S
C585 H593 0.960 . S
C586 C584 1.381 . S
C586 C587 1.394 . S
C586 H594 0.930 . S
C587 C586 1.394 . S
C587 C588 1.383 . S
C587 H595 0.929 . S
C588 C587 1.383 . S
C588 C589 1.377 . S
C589 H573 0.930 . S
C589 C588 1.377 . S
C589 C590 1.379 . S
C590 H574 0.931 . S
C590 C584 1.383 . S
C590 C589 1.379 . S
H591 C585 0.959 . S
H592 C585 0.961 . S
H593 C585 0.960 . S
H594 C586 0.930 . S
H595 C587 0.929 . S
H596 C604 0.929 . S
H597 C606 0.930 . S
H598 C608 0.930 . S
H599 C611 0.929 . S
H600 C614 0.930 . S
H601 C616 0.960 . S
H602 C616 0.960 . S
H603 C616 0.960 . S
C604 H596 0.929 . S
C604 C605 1.377 . S
C604 C606 1.384 . S
C605 C604 1.377 . S
C605 C611 1.390 . S
C606 H597 0.930 . S
C606 C604 1.384 . S
C606 C607 1.372 . S
C607 C606 1.372 . S
C607 C608 1.400 . S
C607 C612 1.490 . S
C608 H598 0.930 . S
C608 C607 1.400 . S
C608 C611 1.386 . S
H609 C625 0.930 . S
H610 C626 0.931 . S
C611 H599 0.929 . S
C611 C605 1.390 . S
C611 C608 1.386 . S
C612 C607 1.490 . S
C612 C614 1.395 . S
C612 C615 1.403 . S
H613 C619 0.930 . S
C614 H600 0.930 . S
C614 C612 1.395 . S
C614 C617 1.403 . S
C615 C612 1.403 . S
C615 C616 1.524 . S
C615 C619 1.400 . S
C616 H601 0.960 . S
C616 H602 0.960 . S
C616 H603 0.960 . S
C616 C615 1.524 . S
C617 C614 1.403 . S
C617 C618 1.392 . S
C617 C621 1.495 . S
C618 C617 1.392 . S
C618 C619 1.385 . S
C618 C620 1.478 . S
C619 H613 0.930 . S
C619 C615 1.400 . S
C619 C618 1.385 . S
C620 C618 1.478 . S
C620 C622 1.381 . S
C620 C626 1.383 . S
C621 C617 1.495 . S
C621 H627 0.959 . S
C621 H628 0.961 . S
C621 H629 0.960 . S
C622 C620 1.381 . S
C622 C623 1.394 . S
C622 H630 0.930 . S
C623 C622 1.394 . S
C623 C624 1.383 . S
C623 H631 0.929 . S
C624 C623 1.383 . S
C624 C625 1.377 . S
C625 H609 0.930 . S
C625 C624 1.377 . S
C625 C626 1.379 . S
C626 H610 0.931 . S
C626 C620 1.383 . S
C626 C625 1.379 . S
H627 C621 0.959 . S
H628 C621 0.961 . S
H629 C621 0.960 . S
H630 C622 0.930 . S
H631 C623 0.929 . S
H632 C640 0.929 . S
H633 C642 0.930 . S
H634 C644 0.930 . S
H635 C647 0.929 . S
H636 C650 0.930 . S
H637 C652 0.960 . S
H638 C652 0.960 . S
H639 C652 0.960 . S
C640 H632 0.929 . S
C640 C641 1.377 . S
C640 C642 1.384 . S
C641 C640 1.377 . S
C641 C647 1.390 . S
C642 H633 0.930 . S
C642 C640 1.384 . S
C642 C643 1.372 . S
C643 C642 1.372 . S
C643 C644 1.400 . S
C643 C648 1.490 . S
C644 H634 0.930 . S
C644 C643 1.400 . S
C644 C647 1.386 . S
H645 C661 0.930 . S
H646 C662 0.931 . S
C647 H635 0.929 . S
C647 C641 1.390 . S
C647 C644 1.386 . S
C648 C643 1.490 . S
C648 C650 1.395 . S
C648 C651 1.403 . S
H649 C655 0.930 . S
C650 H636 0.930 . S
C650 C648 1.395 . S
C650 C653 1.403 . S
C651 C648 1.403 . S
C651 C652 1.524 . S
C651 C655 1.400 . S
C652 H637 0.960 . S
C652 H638 0.960 . S
C652 H639 0.960 . S
C652 C651 1.524 . S
C653 C650 1.403 . S
C653 C654 1.392 . S
C653 C657 1.495 . S
C654 C653 1.392 . S
C654 C655 1.385 . S
C654 C656 1.478 . S
C655 H649 0.930 . S
C655 C651 1.400 . S
C655 C654 1.385 . S
C656 C654 1.478 . S
C656 C658 1.381 . S
C656 C662 1.383 . S
C657 C653 1.495 . S
C657 H663 0.959 . S
C657 H664 0.961 . S
C657 H665 0.960 . S
C658 C656 1.381 . S
C658 C659 1.394 . S
C658 H666 0.930 . S
C659 C658 1.394 . S
C659 C660 1.383 . S
C659 H667 0.929 . S
C660 C659 1.383 . S
C660 C661 1.377 . S
C661 H645 0.930 . S
C661 C660 1.377 . S
C661 C662 1.379 . S
C662 H646 0.931 . S
C662 C656 1.383 . S
C662 C661 1.379 . S
H663 C657 0.959 . S
H664 C657 0.961 . S
H665 C657 0.960 . S
H666 C658 0.930 . S
H667 C659 0.929 . S
H668 C676 0.929 . S
H669 C678 0.930 . S
H670 C680 0.930 . S
H671 C683 0.929 . S
H672 C686 0.930 . S
H673 C688 0.960 . S
H674 C688 0.960 . S
H675 C688 0.960 . S
C676 H668 0.929 . S
C676 C677 1.377 . S
C676 C678 1.384 . S
C677 C676 1.377 . S
C677 C683 1.390 . S
C678 H669 0.930 . S
C678 C676 1.384 . S
C678 C679 1.372 . S
C679 C678 1.372 . S
C679 C680 1.400 . S
C679 C684 1.490 . S
C680 H670 0.930 . S
C680 C679 1.400 . S
C680 C683 1.386 . S
H681 C697 0.930 . S
H682 C698 0.931 . S
C683 H671 0.929 . S
C683 C677 1.390 . S
C683 C680 1.386 . S
C684 C679 1.490 . S
C684 C686 1.395 . S
C684 C687 1.403 . S
H685 C691 0.930 . S
C686 H672 0.930 . S
C686 C684 1.395 . S
C686 C689 1.403 . S
C687 C684 1.403 . S
C687 C688 1.524 . S
C687 C691 1.400 . S
C688 H673 0.960 . S
C688 H674 0.960 . S
C688 H675 0.960 . S
C688 C687 1.524 . S
C689 C686 1.403 . S
C689 C690 1.392 . S
C689 C693 1.495 . S
C690 C689 1.392 . S
C690 C691 1.385 . S
C690 C692 1.478 . S
C691 H685 0.930 . S
C691 C687 1.400 . S
C691 C690 1.385 . S
C692 C690 1.478 . S
C692 C694 1.381 . S
C692 C698 1.383 . S
C693 C689 1.495 . S
C693 H699 0.959 . S
C693 H700 0.961 . S
C693 H701 0.960 . S
C694 C692 1.381 . S
C694 C695 1.394 . S
C694 H702 0.930 . S
C695 C694 1.394 . S
C695 C696 1.383 . S
C695 H703 0.929 . S
C696 C695 1.383 . S
C696 C697 1.377 . S
C697 H681 0.930 . S
C697 C696 1.377 . S
C697 C698 1.379 . S
C698 H682 0.931 . S
C698 C692 1.383 . S
C698 C697 1.379 . S
H699 C693 0.959 . S
H700 C693 0.961 . S
H701 C693 0.960 . S
H702 C694 0.930 . S
H703 C695 0.929 . S
H704 C712 0.929 . S
H705 C714 0.930 . S
H706 C716 0.930 . S
H707 C719 0.929 . S
H708 C722 0.930 . S
H709 C724 0.960 . S
H710 C724 0.960 . S
H711 C724 0.960 . S
C712 H704 0.929 . S
C712 C713 1.377 . S
C712 C714 1.384 . S
C713 C712 1.377 . S
C713 C719 1.390 . S
C714 H705 0.930 . S
C714 C712 1.384 . S
C714 C715 1.372 . S
C715 C714 1.372 . S
C715 C716 1.400 . S
C715 C720 1.490 . S
C716 H706 0.930 . S
C716 C715 1.400 . S
C716 C719 1.386 . S
H717 C733 0.930 . S
H718 C734 0.931 . S
C719 H707 0.929 . S
C719 C713 1.390 . S
C719 C716 1.386 . S
C720 C715 1.490 . S
C720 C722 1.395 . S
C720 C723 1.403 . S
H721 C727 0.930 . S
C722 H708 0.930 . S
C722 C720 1.395 . S
C722 C725 1.403 . S
C723 C720 1.403 . S
C723 C724 1.524 . S
C723 C727 1.400 . S
C724 H709 0.960 . S
C724 H710 0.960 . S
C724 H711 0.960 . S
C724 C723 1.524 . S
C725 C722 1.403 . S
C725 C726 1.392 . S
C725 C729 1.495 . S
C726 C725 1.392 . S
C726 C727 1.385 . S
C726 C728 1.478 . S
C727 H721 0.930 . S
C727 C723 1.400 . S
C727 C726 1.385 . S
C728 C726 1.478 . S
C728 C730 1.381 . S
C728 C734 1.383 . S
C729 C725 1.495 . S
C729 H735 0.959 . S
C729 H736 0.961 . S
C729 H737 0.960 . S
C730 C728 1.381 . S
C730 C731 1.394 . S
C730 H738 0.930 . S
C731 C730 1.394 . S
C731 C732 1.383 . S
C731 H739 0.929 . S
C732 C731 1.383 . S
C732 C733 1.377 . S
C733 H717 0.930 . S
C733 C732 1.377 . S
C733 C734 1.379 . S
C734 H718 0.931 . S
C734 C728 1.383 . S
C734 C733 1.379 . S
H735 C729 0.959 . S
H736 C729 0.961 . S
H737 C729 0.960 . S
H738 C730 0.930 . S
H739 C731 0.929 . S
H740 C748 0.929 . S
H741 C750 0.930 . S
H742 C752 0.930 . S
H743 C755 0.929 . S
H744 C758 0.930 . S
H745 C760 0.960 . S
H746 C760 0.960 . S
H747 C760 0.960 . S
C748 H740 0.929 . S
C748 C749 1.377 . S
C748 C750 1.384 . S
C749 C748 1.377 . S
C749 C755 1.390 . S
C750 H741 0.930 . S
C750 C748 1.384 . S
C750 C751 1.372 . S
C751 C750 1.372 . S
C751 C752 1.400 . S
C751 C756 1.490 . S
C752 H742 0.930 . S
C752 C751 1.400 . S
C752 C755 1.386 . S
H753 C769 0.930 . S
H754 C770 0.931 . S
C755 H743 0.929 . S
C755 C749 1.390 . S
C755 C752 1.386 . S
C756 C751 1.490 . S
C756 C758 1.395 1_554 S
C756 C759 1.403 . S
H757 C763 0.929 1_554 S
C758 H744 0.930 . S
C758 C756 1.395 1_556 S
C758 C761 1.403 . S
C759 C756 1.403 . S
C759 C760 1.524 . S
C759 C763 1.380 1_554 S
C760 H745 0.960 . S
C760 H746 0.960 . S
C760 H747 0.960 . S
C760 C759 1.524 . S
C761 C758 1.403 . S
C761 C762 1.392 . S
C761 C765 1.495 . S
C762 C761 1.392 . S
C762 C763 1.406 . S
C762 C764 1.478 . S
C763 H757 0.929 1_556 S
C763 C759 1.380 1_556 S
C763 C762 1.406 . S
C764 C762 1.478 . S
C764 C766 1.381 . S
C764 C770 1.383 . S
C765 C761 1.495 . S
C765 H771 0.959 . S
C765 H772 0.961 . S
C765 H773 0.960 . S
C766 C764 1.381 . S
C766 C767 1.394 . S
C766 H774 0.930 . S
C767 C766 1.394 . S
C767 C768 1.383 . S
C767 H775 0.929 . S
C768 C767 1.383 . S
C768 C769 1.377 . S
C769 H753 0.930 . S
C769 C768 1.377 . S
C769 C770 1.379 . S
C770 H754 0.931 . S
C770 C764 1.383 . S
C770 C769 1.379 . S
H771 C765 0.959 . S
H772 C765 0.961 . S
H773 C765 0.960 . S
H774 C766 0.930 . S
H775 C767 0.929 . S
H776 C784 0.929 . S
H777 C786 0.930 . S
H778 C788 0.930 . S
H779 C791 0.929 . S
H780 C794 0.930 . S
H781 C796 0.960 . S
H782 C796 0.960 . S
H783 C796 0.960 . S
C784 H776 0.929 . S
C784 C785 1.377 . S
C784 C786 1.384 . S
C785 C784 1.377 . S
C785 C791 1.390 . S
C786 H777 0.930 . S
C786 C784 1.384 . S
C786 C787 1.372 . S
C787 C786 1.372 . S
C787 C788 1.400 . S
C787 C792 1.490 . S
C788 H778 0.930 . S
C788 C787 1.400 . S
C788 C791 1.386 . S
H789 C805 0.930 . S
H790 C806 0.931 . S
C791 H779 0.929 . S
C791 C785 1.390 . S
C791 C788 1.386 . S
C792 C787 1.490 . S
C792 C794 1.395 . S
C792 C795 1.403 . S
H793 C799 0.930 . S
C794 H780 0.930 . S
C794 C792 1.395 . S
C794 C797 1.403 . S
C795 C792 1.403 . S
C795 C796 1.524 . S
C795 C799 1.400 . S
C796 H781 0.960 . S
C796 H782 0.960 . S
C796 H783 0.960 . S
C796 C795 1.524 . S
C797 C794 1.403 . S
C797 C798 1.392 . S
C797 C801 1.495 . S
C798 C797 1.392 . S
C798 C799 1.385 . S
C798 C800 1.478 . S
C799 H793 0.930 . S
C799 C795 1.400 . S
C799 C798 1.385 . S
C800 C798 1.478 . S
C800 C802 1.381 . S
C800 C806 1.383 . S
C801 C797 1.495 . S
C801 H807 0.959 . S
C801 H808 0.961 . S
C801 H809 0.960 . S
C802 C800 1.381 . S
C802 C803 1.394 . S
C802 H810 0.930 . S
C803 C802 1.394 . S
C803 C804 1.383 . S
C803 H811 0.929 . S
C804 C803 1.383 . S
C804 C805 1.377 . S
C805 H789 0.930 . S
C805 C804 1.377 . S
C805 C806 1.379 . S
C806 H790 0.931 . S
C806 C800 1.383 . S
C806 C805 1.379 . S
H807 C801 0.959 . S
H808 C801 0.961 . S
H809 C801 0.960 . S
H810 C802 0.930 . S
H811 C803 0.929 . S
H812 C820 0.929 . S
H813 C822 0.930 . S
H814 C824 0.930 . S
H815 C827 0.929 . S
H816 C830 0.930 . S
H817 C832 0.960 . S
H818 C832 0.960 . S
H819 C832 0.960 . S
C820 H812 0.929 . S
C820 C821 1.377 . S
C820 C822 1.384 . S
C821 C820 1.377 . S
C821 C827 1.390 . S
C822 H813 0.930 . S
C822 C820 1.384 . S
C822 C823 1.372 . S
C823 C822 1.372 . S
C823 C824 1.400 . S
C823 C828 1.490 . S
C824 H814 0.930 . S
C824 C823 1.400 . S
C824 C827 1.386 . S
H825 C841 0.930 . S
H826 C842 0.931 . S
C827 H815 0.929 . S
C827 C821 1.390 . S
C827 C824 1.386 . S
C828 C823 1.490 . S
C828 C830 1.395 . S
C828 C831 1.403 . S
H829 C835 0.930 . S
C830 H816 0.930 . S
C830 C828 1.395 . S
C830 C833 1.403 1_554 S
C831 C828 1.403 . S
C831 C832 1.524 . S
C831 C835 1.400 1_554 S
C832 H817 0.960 . S
C832 H818 0.960 . S
C832 H819 0.960 . S
C832 C831 1.524 . S
C833 C830 1.403 1_556 S
C833 C834 1.392 . S
C833 C837 1.495 . S
C834 C833 1.392 . S
C834 C835 1.385 . S
C834 C836 1.478 . S
C835 H829 0.930 . S
C835 C831 1.400 1_556 S
C835 C834 1.385 . S
C836 C834 1.478 . S
C836 C838 1.381 . S
C836 C842 1.383 . S
C837 C833 1.495 . S
C837 H843 0.959 . S
C837 H844 0.961 . S
C837 H845 0.960 . S
C838 C836 1.381 . S
C838 C839 1.394 . S
C838 H846 0.930 . S
C839 C838 1.394 . S
C839 C840 1.383 . S
C839 H847 0.929 . S
C840 C839 1.383 . S
C840 C841 1.377 . S
C841 H825 0.930 . S
C841 C840 1.377 . S
C841 C842 1.379 . S
C842 H826 0.931 . S
C842 C836 1.383 . S
C842 C841 1.379 . S
H843 C837 0.959 . S
H844 C837 0.961 . S
H845 C837 0.960 . S
H846 C838 0.930 . S
H847 C839 0.929 . S
H848 C856 0.929 . S
H849 C858 0.930 . S
H850 C860 0.930 . S
H851 C863 0.929 . S
H852 C866 0.930 . S
H853 C868 0.960 1_545 S
H854 C868 0.960 . S
H855 C868 0.960 . S
C856 H848 0.929 . S
C856 C857 1.377 . S
C856 C858 1.384 . S
C857 C856 1.377 . S
C857 C863 1.390 . S
C858 H849 0.930 . S
C858 C856 1.384 . S
C858 C859 1.372 . S
C859 C858 1.372 . S
C859 C860 1.400 . S
C859 C864 1.490 . S
C860 H850 0.930 . S
C860 C859 1.400 . S
C860 C863 1.386 . S
H861 C877 0.930 . S
H862 C878 0.931 . S
C863 H851 0.929 . S
C863 C857 1.390 . S
C863 C860 1.386 . S
C864 C859 1.490 . S
C864 C866 1.395 1_655 S
C864 C867 1.403 . S
H865 C871 0.930 . S
C866 H852 0.930 . S
C866 C864 1.395 1_455 S
C866 C869 1.403 1_565 S
C867 C864 1.403 . S
C867 C868 1.524 . S
C867 C871 1.400 1_565 S
C868 H853 0.960 1_565 S
C868 H854 0.960 . S
C868 H855 0.960 . S
C868 C867 1.524 . S
C869 C866 1.403 1_545 S
C869 C870 1.392 . S
C869 C873 1.495 . S
C870 C869 1.392 . S
C870 C871 1.385 1_455 S
C870 C872 1.478 . S
C871 H865 0.930 . S
C871 C867 1.400 1_545 S
C871 C870 1.385 1_655 S
C872 C870 1.478 . S
C872 C874 1.381 . S
C872 C878 1.383 . S
C873 C869 1.495 . S
C873 H879 0.959 1_545 S
C873 H880 0.961 . S
C873 H881 0.960 . S
C874 C872 1.381 . S
C874 C875 1.394 . S
C874 H882 0.930 . S
C875 C874 1.394 . S
C875 C876 1.383 . S
C875 H883 0.929 . S
C876 C875 1.383 . S
C876 C877 1.377 . S
C877 H861 0.930 . S
C877 C876 1.377 . S
C877 C878 1.379 . S
C878 H862 0.931 . S
C878 C872 1.383 . S
C878 C877 1.379 . S
H879 C873 0.959 1_565 S
H880 C873 0.961 . S
H881 C873 0.960 . S
H882 C874 0.930 . S
H883 C875 0.929 . S
H884 C892 0.929 . S
H885 C894 0.930 . S
H886 C896 0.930 . S
H887 C899 0.929 . S
H888 C902 0.930 . S
H889 C904 0.960 . S
H890 C904 0.960 . S
H891 C904 0.960 . S
C892 H884 0.929 . S
C892 C893 1.377 . S
C892 C894 1.384 . S
C893 C892 1.377 . S
C893 C899 1.390 . S
C894 H885 0.930 . S
C894 C892 1.384 . S
C894 C895 1.372 . S
C895 C894 1.372 . S
C895 C896 1.400 . S
C895 C900 1.490 . S
C896 H886 0.930 . S
C896 C895 1.400 . S
C896 C899 1.386 . S
H897 C913 0.930 . S
H898 C914 0.931 . S
C899 H887 0.929 . S
C899 C893 1.390 . S
C899 C896 1.386 . S
C900 C895 1.490 . S
C900 C902 1.395 . S
C900 C903 1.403 . S
H901 C907 0.930 . S
C902 H888 0.930 . S
C902 C900 1.395 . S
C902 C905 1.403 . S
C903 C900 1.403 . S
C903 C904 1.524 . S
C903 C907 1.400 . S
C904 H889 0.960 . S
C904 H890 0.960 . S
C904 H891 0.960 . S
C904 C903 1.524 . S
C905 C902 1.403 . S
C905 C906 1.392 . S
C905 C909 1.495 . S
C906 C905 1.392 . S
C906 C907 1.385 . S
C906 C908 1.478 . S
C907 H901 0.930 . S
C907 C903 1.400 . S
C907 C906 1.385 . S
C908 C906 1.478 . S
C908 C910 1.381 . S
C908 C914 1.383 . S
C909 C905 1.495 . S
C909 H915 0.959 . S
C909 H916 0.961 . S
C909 H917 0.960 . S
C910 C908 1.381 . S
C910 C911 1.394 . S
C910 H918 0.930 . S
C911 C910 1.394 . S
C911 C912 1.383 . S
C911 H919 0.929 . S
C912 C911 1.383 . S
C912 C913 1.377 . S
C913 H897 0.930 . S
C913 C912 1.377 . S
C913 C914 1.379 . S
C914 H898 0.931 . S
C914 C908 1.383 . S
C914 C913 1.379 . S
H915 C909 0.959 . S
H916 C909 0.961 . S
H917 C909 0.960 . S
H918 C910 0.930 . S
H919 C911 0.929 . S
H920 C928 0.929 . S
H921 C930 0.930 . S
H922 C932 0.930 . S
H923 C935 0.929 . S
H924 C938 0.930 . S
H925 C940 0.960 . S
H926 C940 0.960 . S
H927 C940 0.960 . S
C928 H920 0.929 . S
C928 C929 1.377 . S
C928 C930 1.384 . S
C929 C928 1.377 . S
C929 C935 1.390 . S
C930 H921 0.930 . S
C930 C928 1.384 . S
C930 C931 1.372 . S
C931 C930 1.372 . S
C931 C932 1.400 . S
C931 C936 1.490 . S
C932 H922 0.930 . S
C932 C931 1.400 . S
C932 C935 1.386 . S
H933 C949 0.930 . S
H934 C950 0.931 . S
C935 H923 0.929 . S
C935 C929 1.390 . S
C935 C932 1.386 . S
C936 C931 1.490 . S
C936 C938 1.395 . S
C936 C939 1.403 . S
H937 C943 0.930 . S
C938 H924 0.930 . S
C938 C936 1.395 . S
C938 C941 1.403 . S
C939 C936 1.403 . S
C939 C940 1.524 . S
C939 C943 1.400 . S
C940 H925 0.960 . S
C940 H926 0.960 . S
C940 H927 0.960 . S
C940 C939 1.524 . S
C941 C938 1.403 . S
C941 C942 1.392 . S
C941 C945 1.495 . S
C942 C941 1.392 . S
C942 C943 1.385 . S
C942 C944 1.478 . S
C943 H937 0.930 . S
C943 C939 1.400 . S
C943 C942 1.385 . S
C944 C942 1.478 . S
C944 C946 1.381 . S
C944 C950 1.383 . S
C945 C941 1.495 . S
C945 H951 0.959 . S
C945 H952 0.961 . S
C945 H953 0.960 . S
C946 C944 1.381 . S
C946 C947 1.394 . S
C946 H954 0.930 . S
C947 C946 1.394 . S
C947 C948 1.383 . S
C947 H955 0.929 . S
C948 C947 1.383 . S
C948 C949 1.377 . S
C949 H933 0.930 . S
C949 C948 1.377 . S
C949 C950 1.379 . S
C950 H934 0.931 . S
C950 C944 1.383 . S
C950 C949 1.379 . S
H951 C945 0.959 . S
H952 C945 0.961 . S
H953 C945 0.960 . S
H954 C946 0.930 . S
H955 C947 0.929 . S
H956 C964 0.929 . S
H957 C966 0.930 . S
H958 C968 0.930 . S
H959 C971 0.929 . S
H960 C974 0.930 . S
H961 C976 0.960 . S
H962 C976 0.960 . S
H963 C976 0.960 . S
C964 H956 0.929 . S
C964 C965 1.377 . S
C964 C966 1.384 . S
C965 C964 1.377 . S
C965 C971 1.390 . S
C966 H957 0.930 . S
C966 C964 1.384 . S
C966 C967 1.372 . S
C967 C966 1.372 . S
C967 C968 1.400 . S
C967 C972 1.490 . S
C968 H958 0.930 . S
C968 C967 1.400 . S
C968 C971 1.386 . S
H969 C985 0.930 . S
H970 C986 0.931 . S
C971 H959 0.929 . S
C971 C965 1.390 . S
C971 C968 1.386 . S
C972 C967 1.490 . S
C972 C974 1.395 . S
C972 C975 1.403 1_545 S
H973 C979 0.930 . S
C974 H960 0.930 . S
C974 C972 1.395 . S
C974 C977 1.403 1_455 S
C975 C972 1.403 1_565 S
C975 C976 1.524 . S
C975 C979 1.400 1_455 S
C976 H961 0.960 . S
C976 H962 0.960 . S
C976 H963 0.960 . S
C976 C975 1.524 . S
C977 C974 1.403 1_655 S
C977 C978 1.392 1_545 S
C977 C981 1.495 . S
C978 C977 1.392 1_565 S
C978 C979 1.385 . S
C978 C980 1.478 . S
C979 H973 0.930 . S
C979 C975 1.400 1_655 S
C979 C978 1.385 . S
C980 C978 1.478 . S
C980 C982 1.381 . S
C980 C986 1.383 . S
C981 C977 1.495 . S
C981 H987 0.959 . S
C981 H988 0.961 . S
C981 H989 0.960 . S
C982 C980 1.381 . S
C982 C983 1.394 . S
C982 H990 0.930 . S
C983 C982 1.394 . S
C983 C984 1.383 . S
C983 H991 0.929 . S
C984 C983 1.383 . S
C984 C985 1.377 . S
C985 H969 0.930 . S
C985 C984 1.377 . S
C985 C986 1.379 . S
C986 H970 0.931 . S
C986 C980 1.383 . S
C986 C985 1.379 . S
H987 C981 0.959 . S
H988 C981 0.961 . S
H989 C981 0.960 . S
H990 C982 0.930 . S
H991 C983 0.929 . S
C281 C77 0.487 . S
C300 C9 0.481 . S
C317 C111 0.501 . S
C336 C43 0.419 . S
C353 C213 0.491 . S
C372 C145 0.583 . S
C389 C247 0.524 . S
C408 C179 0.525 . S
C425 C156 2.465 . S
C444 C33 2.465 . S
C461 C190 2.468 . S
C480 C67 2.461 . S
C497 C224 2.467 . S
C516 C101 2.469 . S
C533 C135 2.465 . S
C552 C258 2.469 . S
C569 C20 2.466 . S
C588 C169 2.457 . S
C605 C54 2.468 . S
C624 C203 2.456 . S
C641 C88 2.468 . S
C660 C237 2.455 . S
C677 C271 2.466 . S
C696 C122 2.467 . S
C713 C2 1.737 . S
C732 C172 1.754 . S
C749 C206 1.739 . S
C768 C36 1.725 . S
C785 C240 1.743 . S
C804 C70 1.724 . S
C821 C138 1.736 . S
C840 C104 1.737 . S
C857 C73 0.331 . S
C876 C5 0.415 . S
C893 C39 0.351 . S
C912 C107 0.243 . S
C929 C209 0.312 . S
C948 C141 0.423 . S
C965 C175 0.325 . S
C984 C243 0.295 . S
