# Generated by pormake.
# Topology ukh, (4)-cn, num edge types: 1
# Building blocks:
#     Node 0, Type 0, BuildingBlock: NAHDIM_clean_sbu_0, # of connection points: 4
#     Node 1, Type 0, BuildingBlock: NAHDIM_clean_sbu_0, # of connection points: 4
#     Node 2, Type 0, BuildingBlock: NAHDIM_clean_sbu_0, # of connection points: 4
#     Node 3, Type 0, BuildingBlock: NAHDIM_clean_sbu_0, # of connection points: 4
#     Node 4, Type 0, BuildingBlock: NAHDIM_clean_sbu_0, # of connection points: 4
#     Node 5, Type 0, BuildingBlock: NAHDIM_clean_sbu_0, # of connection points: 4
#     Node 6, Type 0, BuildingBlock: NAHDIM_clean_sbu_0, # of connection points: 4
#     Node 7, Type 0, BuildingBlock: NAHDIM_clean_sbu_0, # of connection points: 4
#     Node 8, Type 0, BuildingBlock: NAHDIM_clean_sbu_0, # of connection points: 4
#     Node 9, Type 0, BuildingBlock: NAHDIM_clean_sbu_0, # of connection points: 4
#     Node 10, Type 0, BuildingBlock: NAHDIM_clean_sbu_0, # of connection points: 4
#     Node 11, Type 0, BuildingBlock: NAHDIM_clean_sbu_0, # of connection points: 4
#     Edge 12, Type (0, 0), BuildingBlock: XIVTED_clean_linker_0, # of connection points: 2
#     Edge 13, Type (0, 0), BuildingBlock: XIVTED_clean_linker_0, # of connection points: 2
#     Edge 14, Type (0, 0), BuildingBlock: XIVTED_clean_linker_0, # of connection points: 2
#     Edge 15, Type (0, 0), BuildingBlock: XIVTED_clean_linker_0, # of connection points: 2
#     Edge 16, Type (0, 0), BuildingBlock: XIVTED_clean_linker_0, # of connection points: 2
#     Edge 17, Type (0, 0), BuildingBlock: XIVTED_clean_linker_0, # of connection points: 2
#     Edge 18, Type (0, 0), BuildingBlock: XIVTED_clean_linker_0, # of connection points: 2
#     Edge 19, Type (0, 0), BuildingBlock: XIVTED_clean_linker_0, # of connection points: 2
#     Edge 20, Type (0, 0), BuildingBlock: XIVTED_clean_linker_0, # of connection points: 2
#     Edge 21, Type (0, 0), BuildingBlock: XIVTED_clean_linker_0, # of connection points: 2
#     Edge 22, Type (0, 0), BuildingBlock: XIVTED_clean_linker_0, # of connection points: 2
#     Edge 23, Type (0, 0), BuildingBlock: XIVTED_clean_linker_0, # of connection points: 2
#     Edge 24, Type (0, 0), BuildingBlock: XIVTED_clean_linker_0, # of connection points: 2
#     Edge 25, Type (0, 0), BuildingBlock: XIVTED_clean_linker_0, # of connection points: 2
#     Edge 26, Type (0, 0), BuildingBlock: XIVTED_clean_linker_0, # of connection points: 2
#     Edge 27, Type (0, 0), BuildingBlock: XIVTED_clean_linker_0, # of connection points: 2
#     Edge 28, Type (0, 0), BuildingBlock: XIVTED_clean_linker_0, # of connection points: 2
#     Edge 29, Type (0, 0), BuildingBlock: XIVTED_clean_linker_0, # of connection points: 2
#     Edge 30, Type (0, 0), BuildingBlock: XIVTED_clean_linker_0, # of connection points: 2
#     Edge 31, Type (0, 0), BuildingBlock: XIVTED_clean_linker_0, # of connection points: 2
#     Edge 32, Type (0, 0), BuildingBlock: XIVTED_clean_linker_0, # of connection points: 2
#     Edge 33, Type (0, 0), BuildingBlock: XIVTED_clean_linker_0, # of connection points: 2
#     Edge 34, Type (0, 0), BuildingBlock: XIVTED_clean_linker_0, # of connection points: 2
#     Edge 35, Type (0, 0), BuildingBlock: XIVTED_clean_linker_0, # of connection points: 2
# Relax obj value: 0.181
# Max RMSD: 0.212
# Mean RMSD: 0.212
data_MOF--net-ukh--node1-NAHDIM_clean_sbu_0--edge1-XIVTED_clean_linker_0
_symmetry_space_group_name_H-M    P1
_symmetry_Int_Tables_number       1
_symmetry_cell_setting            triclinic
loop_
_symmetry_equiv_pos_as_xyz
'x, y, z'
_cell_length_a     32.297399
_cell_length_b     32.279718
_cell_length_c     59.979838
_cell_angle_alpha  89.94081
_cell_angle_beta   90.099949
_cell_angle_gamma 119.91632
loop_
_atom_site_label
_atom_site_type_symbol
_atom_site_fract_x
_atom_site_fract_y
_atom_site_fract_z
_atom_type_partial_charge
C0 C 0.38933 0.32734 0.0134 0.0
O1 O 0.35028 0.31313 0.00157 0.0
O2 O 0.27498 0.22906 0.01979 0.0
Zn3 Zn 0.33388 0.23527 0.0346 0.0
O4 O 0.32589 0.22979 0.06774 0.0
C5 C 0.3482 0.16807 0.00667 0.0
O6 O 0.3514 0.19473 0.98946 0.0
O7 O 0.39109 0.29906 0.02764 0.0
C8 C 0.28841 0.19633 0.07665 0.0
O9 O 0.25277 0.1667 0.06388 0.0
C10 C 0.25007 0.24461 0.02909 0.0
O11 O 0.26264 0.26462 0.04885 0.0
O12 O 0.34248 0.18023 0.02602 0.0
C13 C 0.11342 0.4114 0.37752 0.0
O14 O 0.14351 0.41753 0.39367 0.0
O15 O 0.0616 0.26073 0.3593 0.0
Zn16 Zn 0.11133 0.32199 0.37321 0.0
O17 O 0.10836 0.31246 0.40634 0.0
C18 C 0.19464 0.34595 0.34437 0.0
O19 O 0.17056 0.35091 0.32792 0.0
O20 O 0.09657 0.37379 0.36573 0.0
C21 C 0.12798 0.29005 0.41441 0.0
O22 O 0.14804 0.27328 0.40086 0.0
C23 C 0.01925 0.24283 0.36667 0.0
O24 O 0.01039 0.26531 0.38257 0.0
O25 O 0.17659 0.33623 0.36376 0.0
C26 C 0.66238 0.05601 0.7039 0.0
O27 O 0.67749 0.03143 0.71537 0.0
O28 O 0.77367 0.06575 0.68756 0.0
Zn29 Zn 0.76084 0.11419 0.70255 0.0
O30 O 0.77035 0.11503 0.73558 0.0
C31 C 0.82334 0.19044 0.67231 0.0
O32 O 0.80155 0.15853 0.65654 0.0
O33 O 0.69296 0.0965 0.69609 0.0
C34 C 0.81087 0.12446 0.74319 0.0
O35 O 0.84483 0.13072 0.72923 0.0
C36 C 0.77385 0.03134 0.69781 0.0
O37 O 0.76638 0.02685 0.71941 0.0
O38 O 0.80915 0.17972 0.69229 0.0
C39 C 0.62232 0.67309 0.03645 0.0
O40 O 0.6629 0.68688 0.04692 0.0
O41 O 0.72133 0.78802 0.02686 0.0
Zn42 Zn 0.65776 0.77143 0.04031 0.0
O43 O 0.66316 0.77711 0.07364 0.0
C44 C 0.63473 0.82673 0.00931 0.0
O45 O 0.6382 0.79988 0.99382 0.0
O46 O 0.61044 0.70409 0.0316 0.0
C47 C 0.67971 0.81834 0.08227 0.0
O48 O 0.69313 0.85554 0.06918 0.0
C49 C 0.75651 0.7931 0.03849 0.0
O50 O 0.75216 0.78858 0.06025 0.0
O51 O 0.63918 0.81861 0.02962 0.0
C52 C 0.96305 0.61774 0.3769 0.0
O53 O 0.98184 0.65684 0.389 0.0
O54 O 0.94756 0.71433 0.35483 0.0
Zn55 Zn 0.90093 0.65252 0.36995 0.0
O56 O 0.89577 0.66277 0.40252 0.0
C57 C 0.82775 0.64248 0.33899 0.0
O58 O 0.86356 0.66329 0.32494 0.0
O59 O 0.92457 0.60579 0.36629 0.0
C60 C 0.88541 0.69406 0.40883 0.0
O61 O 0.88094 0.72144 0.39392 0.0
C62 C 0.98053 0.75023 0.36498 0.0
O63 O 0.98503 0.74825 0.38666 0.0
O64 O 0.83508 0.63027 0.35806 0.0
C65 C 0.31015 0.92704 0.69194 0.0
O66 O 0.2935 0.95019 0.6804 0.0
O67 O 0.20535 0.93128 0.69692 0.0
Zn68 Zn 0.21583 0.88096 0.71139 0.0
O69 O 0.20629 0.8807 0.74445 0.0
C70 C 0.15906 0.80547 0.67952 0.0
O71 O 0.18797 0.83563 0.6645 0.0
O72 O 0.28278 0.89469 0.70554 0.0
C73 C 0.16439 0.85697 0.75243 0.0
O74 O 0.128 0.83411 0.73881 0.0
C75 C 0.20807 0.96657 0.70757 0.0
O76 O 0.21698 0.97029 0.72908 0.0
O77 O 0.16649 0.81682 0.69998 0.0
C78 C 0.66741 0.62271 0.61249 0.0
O79 O 0.67789 0.66163 0.60122 0.0
O80 O 0.77747 0.72996 0.62513 0.0
Zn81 Zn 0.76697 0.66881 0.61092 0.0
O82 O 0.77365 0.6747 0.57772 0.0
C83 C 0.825 0.64548 0.6407 0.0
O84 O 0.79408 0.63923 0.65639 0.0
O85 O 0.70119 0.61605 0.61888 0.0
C86 C 0.81103 0.70895 0.56915 0.0
O87 O 0.84346 0.74187 0.58218 0.0
C88 C 0.77261 0.76187 0.61497 0.0
O89 O 0.76065 0.75602 0.59379 0.0
O90 O 0.8186 0.65616 0.62112 0.0
C91 C 0.03741 0.66599 0.95939 0.0
O92 O 0.0135 0.68292 0.94868 0.0
O93 O 0.05643 0.78117 0.97262 0.0
Zn94 Zn 0.10249 0.76365 0.95879 0.0
O95 O 0.10416 0.77258 0.92558 0.0
C96 C 0.17589 0.82621 0.98947 0.0
O97 O 0.14033 0.80929 0.00374 0.0
O98 O 0.07973 0.69489 0.96585 0.0
C99 C 0.13031 0.81437 0.91778 0.0
O100 O 0.15467 0.85004 0.93157 0.0
C101 C 0.02827 0.78957 0.96117 0.0
O102 O 0.0294 0.78785 0.93932 0.0
O103 O 0.16851 0.80839 0.97005 0.0
C104 C 0.3748 0.04178 0.26824 0.0
O105 O 0.33901 0.02612 0.2541 0.0
O106 O 0.27646 0.0554 0.29093 0.0
Zn107 Zn 0.33853 0.10261 0.27636 0.0
O108 O 0.32944 0.10988 0.24385 0.0
C109 C 0.3584 0.17456 0.31019 0.0
O110 O 0.34681 0.13932 0.32432 0.0
O111 O 0.38427 0.07789 0.28026 0.0
C112 C 0.29725 0.11875 0.23727 0.0
O113 O 0.26802 0.12067 0.2519 0.0
C114 C 0.24192 0.02125 0.28061 0.0
O115 O 0.24532 0.01652 0.25905 0.0
O116 O 0.36071 0.16726 0.28957 0.0
C117 C 0.32244 0.3794 0.63247 0.0
O118 O 0.31078 0.33634 0.63942 0.0
O119 O 0.2116 0.27387 0.63632 0.0
Zn120 Zn 0.22306 0.33303 0.61965 0.0
O121 O 0.21192 0.31852 0.58691 0.0
C122 C 0.16143 0.35167 0.64876 0.0
O123 O 0.18336 0.34393 0.66534 0.0
O124 O 0.29045 0.38667 0.62407 0.0
C125 C 0.16934 0.29838 0.57955 0.0
O126 O 0.13393 0.28647 0.59356 0.0
C127 C 0.214 0.24052 0.62623 0.0
O128 O 0.22361 0.24484 0.6048 0.0
O129 O 0.17488 0.35139 0.62894 0.0
C130 C 0.90988 0.31496 0.97178 0.0
O131 O 0.93002 0.29709 0.98467 0.0
O132 O 0.93064 0.22109 0.96199 0.0
Zn133 Zn 0.87667 0.22641 0.94808 0.0
O134 O 0.87729 0.2208 0.91488 0.0
C135 C 0.79444 0.16328 0.97663 0.0
O136 O 0.81496 0.1947 0.9927 0.0
O137 O 0.88347 0.29004 0.95573 0.0
C138 C 0.88333 0.18875 0.9057 0.0
O139 O 0.89233 0.16067 0.91817 0.0
C140 C 0.9713 0.23873 0.95271 0.0
O141 O 0.97816 0.26003 0.93329 0.0
O142 O 0.81427 0.17119 0.95766 0.0
C143 C 0.56609 0.87623 0.28023 0.0
O144 O 0.56506 0.84994 0.2633 0.0
O145 O 0.71146 0.93062 0.30499 0.0
Zn146 Zn 0.65414 0.87802 0.28956 0.0
O147 O 0.667 0.88086 0.25656 0.0
C148 C 0.64794 0.80501 0.32041 0.0
O149 O 0.65822 0.83748 0.3359 0.0
O150 O 0.59955 0.88991 0.29446 0.0
C151 C 0.68054 0.85362 0.24795 0.0
O152 O 0.68799 0.82513 0.2609 0.0
C153 C 0.75414 0.94265 0.29984 0.0
O154 O 0.76191 0.91909 0.2841 0.0
O155 O 0.64149 0.814 0.30052 0.0
H156 H 0.63568 0.59807 0.04656 0.0
H157 H 0.39006 0.40176 0.99108 0.0
H158 H 0.53816 0.63226 0.01294 0.0
H159 H 0.47618 0.36801 0.03434 0.0
H160 H 0.44976 0.48651 0.99417 0.0
H161 H 0.58285 0.51389 0.03782 0.0
C162 C 0.6032 0.58792 0.03728 0.0
C163 C 0.59111 0.62224 0.03063 0.0
C164 C 0.45574 0.46049 0.00283 0.0
C165 C 0.53051 0.52581 0.0205 0.0
C166 C 0.4218 0.41208 0.00099 0.0
C167 C 0.42791 0.37778 0.01266 0.0
C168 C 0.49613 0.47465 0.01635 0.0
C169 C 0.46978 0.39325 0.02521 0.0
C170 C 0.57306 0.5398 0.03229 0.0
C171 C 0.54869 0.60696 0.01853 0.0
N172 N 0.50214 0.44057 0.02684 0.0
N173 N 0.51981 0.55981 0.01391 0.0
H174 H 0.04334 0.40368 0.3491 0.0
H175 H 0.04414 0.63413 0.39851 0.0
H176 H 0.14084 0.49488 0.40001 0.0
H177 H 0.93697 0.53608 0.35258 0.0
H178 H 0.0836 0.58673 0.39687 0.0
H179 H 0.00822 0.45541 0.34751 0.0
C180 C 0.05769 0.43482 0.3598 0.0
C181 C 0.09495 0.44481 0.37482 0.0
C182 C 0.0515 0.57553 0.38711 0.0
C183 C 0.05468 0.50396 0.37315 0.0
C184 C 0.02885 0.60259 0.38804 0.0
C185 C 0.987 0.58894 0.37573 0.0
C186 C 0.03229 0.5344 0.37375 0.0
C187 C 0.96904 0.5478 0.36242 0.0
C188 C 0.03746 0.46422 0.35894 0.0
C189 C 0.11205 0.48565 0.38826 0.0
N190 N 0.99177 0.5219 0.3618 0.0
N191 N 0.09164 0.51358 0.38717 0.0
H192 H 0.35584 0.88519 0.71237 0.0
H193 H 0.6175 0.09541 0.68026 0.0
H194 H 0.38145 0.00347 0.66971 0.0
H195 H 0.58943 0.97139 0.71912 0.0
H196 H 0.53134 0.06156 0.67509 0.0
H197 H 0.44157 0.91492 0.7136 0.0
C198 C 0.37946 0.91724 0.70311 0.0
C199 C 0.36145 0.94205 0.69104 0.0
C200 C 0.54411 0.04173 0.68467 0.0
C201 C 0.45983 0.9766 0.69253 0.0
C202 C 0.59326 0.06108 0.68767 0.0
C203 C 0.61067 0.03631 0.70024 0.0
C204 C 0.51226 -0.0026 0.69437 0.0
C205 C 0.57767 0.99188 0.70938 0.0
C206 C 0.42848 0.93425 0.70384 0.0
C207 C 0.39378 0.98327 0.67929 0.0
N208 N 0.53012 0.97397 0.70633 0.0
N209 N 0.44147 -0.00052 0.68047 0.0
H210 H 0.63162 0.53668 0.63427 0.0
H211 H 0.3596 0.47137 0.61764 0.0
H212 H 0.58847 0.62904 0.60222 0.0
H213 H 0.40054 0.3748 0.64696 0.0
H214 H 0.44376 0.53202 0.61468 0.0
H215 H 0.54751 0.47896 0.64155 0.0
C216 C 0.60451 0.54486 0.62881 0.0
C217 C 0.61707 0.58761 0.61751 0.0
C218 C 0.43437 0.49766 0.62188 0.0
C219 C 0.52096 0.52192 0.62582 0.0
C220 C 0.38627 0.46301 0.62362 0.0
C221 C 0.37299 0.41779 0.63241 0.0
C222 C 0.46955 0.48705 0.62894 0.0
C223 C 0.40914 0.40909 0.63996 0.0
C224 C 0.55653 0.51194 0.63299 0.0
C225 C 0.58048 0.59645 0.61088 0.0
N226 N 0.45581 0.44332 0.63793 0.0
N227 N 0.53415 0.56385 0.61509 0.0
H228 H 0.97943 0.38372 -0.00182 0.0
H229 H 0.95026 0.59521 0.94518 0.0
H230 H 0.87148 0.3621 0.94968 0.0
H231 H 0.07387 0.6186 0.98311 0.0
H232 H 0.9149 0.50942 0.95111 0.0
H233 H 0.00776 0.46949 -0.00245 0.0
C234 C 0.96127 0.39689 0.98761 0.0
C235 C 0.9233 0.36575 0.97379 0.0
C236 C 0.94969 0.53331 0.9582 0.0
C237 C 0.95572 0.46378 0.97293 0.0
C238 C 0.96995 0.58234 0.95482 0.0
C239 C 0.0153 0.61412 0.96351 0.0
C240 C 0.97484 0.51583 0.97042 0.0
C241 C 0.03898 0.59535 0.97597 0.0
C242 C 0.97764 0.44589 0.98719 0.0
C243 C 0.90112 0.38484 0.96046 0.0
N244 N 0.01851 0.54736 0.979 0.0
N245 N 0.91785 0.43266 0.96028 0.0
H246 H 0.36403 0.96565 0.24395 0.0
H247 H 0.56563 0.94034 0.31002 0.0
H248 H 0.4463 0.05872 0.29806 0.0
H249 H 0.49253 0.8575 0.25171 0.0
H250 H 0.5174 0.97925 0.3081 0.0
H251 H 0.4069 0.92192 0.2484 0.0
C252 C 0.39121 0.97699 0.25677 0.0
C253 C 0.40171 0.01607 0.27061 0.0
C254 C 0.51173 0.95235 0.29582 0.0
C255 C 0.45087 0.9658 0.27587 0.0
C256 C 0.53908 0.92992 0.29695 0.0
C257 C 0.53333 0.89578 0.2809 0.0
C258 C 0.47832 0.94053 0.27854 0.0
C259 C 0.49837 0.88375 0.26437 0.0
C260 C 0.41564 0.95189 0.25932 0.0
C261 C 0.4372 0.02895 0.28696 0.0
N262 N 0.47238 0.90628 0.26356 0.0
N263 N 0.46054 0.00386 0.28914 0.0
H264 H 0.36672 0.14538 0.20582 0.0
H265 H 0.21066 0.14088 0.10292 0.0
H266 H 0.22237 0.11719 0.21495 0.0
H267 H 0.36395 0.23154 0.10532 0.0
H268 H 0.21139 0.12232 0.14259 0.0
H269 H 0.36349 0.16632 0.16698 0.0
C270 C 0.33423 0.14333 0.19961 0.0
C271 C 0.29475 0.12961 0.2136 0.0
C272 C 0.24471 0.14654 0.13438 0.0
C273 C 0.29084 0.15331 0.16922 0.0
C274 C 0.24436 0.15708 0.11181 0.0
C275 C 0.28732 0.18771 0.10084 0.0
C276 C 0.2884 0.16602 0.14581 0.0
C277 C 0.32999 0.20783 0.11312 0.0
C278 C 0.33256 0.15559 0.17751 0.0
C279 C 0.25365 0.1278 0.20471 0.0
N280 N 0.32951 0.19619 0.13489 0.0
N281 N 0.2526 0.13926 0.18296 0.0
H282 H 0.18605 0.2659 0.43728 0.0
H283 H 0.08814 0.28032 0.55733 0.0
H284 H 0.07677 0.30403 0.44688 0.0
H285 H 0.22921 0.3004 0.54683 0.0
H286 H 0.07506 0.27348 0.51699 0.0
H287 H 0.19372 0.26301 0.47775 0.0
C288 C 0.1634 0.27329 0.44789 0.0
C289 C 0.1309 0.28551 0.43874 0.0
C290 C 0.10876 0.27919 0.52357 0.0
C291 C 0.13936 0.28197 0.48492 0.0
C292 C 0.1162 0.28288 0.54656 0.0
C293 C 0.15996 0.29124 0.55539 0.0
C294 C 0.14507 0.28319 0.50938 0.0
C295 C 0.1951 0.29435 0.54067 0.0
C296 C 0.16796 0.27182 0.47095 0.0
C297 C 0.10251 0.2948 0.45327 0.0
N298 N 0.18688 0.29027 0.51835 0.0
N299 N 0.10736 0.29279 0.47569 0.0
H300 H 0.76001 0.1407 0.77478 0.0
H301 H 0.9116 0.13894 0.87874 0.0
H302 H 0.88392 0.12446 0.76642 0.0
H303 H 0.8371 0.21886 0.87773 0.0
H304 H 0.89418 0.12196 0.83886 0.0
H305 H 0.77907 0.15675 0.81439 0.0
C306 C 0.79103 0.14015 0.78132 0.0
C307 C 0.82056 0.13141 0.76732 0.0
C308 C 0.88195 0.1434 0.84743 0.0
C309 C 0.84235 0.14955 0.81254 0.0
C310 C 0.89177 0.15302 0.87012 0.0
C311 C 0.8758 0.18038 0.8815 0.0
C312 C 0.85517 0.16043 0.83628 0.0
C313 C 0.85029 0.19783 0.86957 0.0
C314 C 0.80202 0.14962 0.80386 0.0
C315 C 0.8604 0.13131 0.77665 0.0
N316 N 0.84038 0.18718 0.84764 0.0
N317 N 0.87008 0.14008 0.79877 0.0
H318 H 0.6698 0.75297 0.11396 0.0
H319 H 0.67795 0.91378 0.21643 0.0
H320 H 0.69708 0.89745 0.10617 0.0
H321 H 0.69248 0.78855 0.2239 0.0
H322 H 0.68076 0.90673 0.17593 0.0
H323 H 0.67347 0.76334 0.15441 0.0
C324 C 0.67662 0.78688 0.12076 0.0
C325 C 0.68303 0.82437 0.1067 0.0
C326 C 0.68364 0.881 0.18646 0.0
C327 C 0.68705 0.83637 0.1529 0.0
C328 C 0.68195 0.88495 0.20956 0.0
C329 C 0.68487 0.85163 0.22354 0.0
C330 C 0.68768 0.84315 0.17731 0.0
C331 C 0.69013 0.81505 0.21375 0.0
C332 C 0.67888 0.79283 0.14383 0.0
C333 C 0.69198 0.86762 0.1164 0.0
N334 N 0.691 0.81158 0.19122 0.0
N335 N 0.69341 0.87234 0.13893 0.0
H336 H 0.87139 0.78493 0.54311 0.0
H337 H 0.85915 0.62542 0.44074 0.0
H338 H 0.77164 0.63328 0.54059 0.0
H339 H 0.88883 0.77013 0.43066 0.0
H340 H 0.83937 0.63012 0.47965 0.0
H341 H 0.88957 0.78273 0.50351 0.0
C342 C 0.8532 0.75129 0.5342 0.0
C343 C 0.81999 0.70921 0.54507 0.0
C344 C 0.85023 0.66079 0.46888 0.0
C345 C 0.84126 0.7064 0.50026 0.0
C346 C 0.86183 0.6583 0.44677 0.0
C347 C 0.87556 0.69746 0.43251 0.0
C348 C 0.85334 0.70305 0.47689 0.0
C349 C 0.87817 0.7391 0.44114 0.0
C350 C 0.86349 0.75013 0.51168 0.0
C351 C 0.79731 0.66657 0.5328 0.0
N352 N 0.86747 0.74099 0.46289 0.0
N353 N 0.80881 0.66613 0.51109 0.0
H354 H 0.19533 0.89422 0.89541 0.0
H355 H 0.08392 0.79426 0.77516 0.0
H356 H 0.07356 0.75368 0.88492 0.0
H357 H 0.22807 0.91014 0.78508 0.0
H358 H 0.07385 0.78526 0.8156 0.0
H359 H 0.20214 0.90673 0.85508 0.0
C360 C 0.1699 0.86607 0.88463 0.0
C361 C 0.13394 0.82275 0.8935 0.0
C362 C 0.10761 0.8127 0.80889 0.0
C363 C 0.14143 0.83697 0.84743 0.0
C364 C 0.11334 0.81802 0.78584 0.0
C365 C 0.15699 0.85286 0.77677 0.0
C366 C 0.14561 0.8428 0.82295 0.0
C367 C 0.19392 0.88261 0.79139 0.0
C368 C 0.17392 0.8732 0.86163 0.0
C369 C 0.102 0.7875 0.87876 0.0
N370 N 0.18738 0.87692 0.81378 0.0
N371 N 0.10644 0.79542 0.85642 0.0
H372 H 0.24988 0.87886 0.96074 0.0
H373 H 0.34255 0.12162 0.96745 0.0
H374 H 0.20031 0.88084 0.02733 0.0
H375 H 0.33952 0.10448 0.03893 0.0
H376 H 0.31613 0.03697 0.96317 0.0
H377 H 0.3092 0.96338 0.96439 0.0
C378 C 0.25191 0.89685 0.97628 0.0
C379 C 0.21907 0.87304 0.99354 0.0
C380 C 0.32277 0.05187 0.9798 0.0
C381 C 0.28594 0.97016 -0.00248 0.0
C382 C 0.33759 0.10035 0.98223 0.0
C383 C 0.34236 0.12 0.00356 0.0
C384 C 0.31256 0.02294 -0.00112 0.0
C385 C 0.33552 0.09071 0.02214 0.0
C386 C 0.28547 0.94536 0.97822 0.0
C387 C 0.22415 0.89798 0.01341 0.0
N388 N 0.32001 0.04349 0.01936 0.0
N389 N 0.25642 0.94539 0.01472 0.0
H390 H 0.23719 0.35018 0.30413 0.0
H391 H 0.34783 0.2008 0.35236 0.0
H392 H 0.24904 0.3307 0.37462 0.0
H393 H 0.36337 0.2459 0.2836 0.0
H394 H 0.32467 0.25997 0.36178 0.0
H395 H 0.2955 0.32459 0.29689 0.0
C396 C 0.25274 0.34148 0.31811 0.0
C397 C 0.23724 0.34137 0.33995 0.0
C398 C 0.33409 0.25763 0.3447 0.0
C399 C 0.30345 0.31145 0.33179 0.0
C400 C 0.34739 0.22382 0.33932 0.0
C401 C 0.35636 0.2175 0.31708 0.0
C402 C 0.32902 0.28473 0.32765 0.0
C403 C 0.35585 0.24884 0.30093 0.0
C404 C 0.28606 0.32684 0.31398 0.0
C405 C 0.2591 0.33031 0.35745 0.0
N406 N 0.34127 0.28034 0.30644 0.0
N407 N 0.29032 0.31485 0.35296 0.0
H408 H 0.8849 0.25493 0.70278 0.0
H409 H 0.10127 0.35386 0.61721 0.0
H410 H 0.86985 0.22283 0.63235 0.0
H411 H 0.11538 0.34375 0.68833 0.0
H412 H 0.01774 0.33123 0.62247 0.0
H413 H 0.96933 0.31229 0.69696 0.0
C414 C 0.899 0.26068 0.68598 0.0
C415 C 0.87048 0.23307 0.66808 0.0
C416 C 0.03941 0.33491 0.63695 0.0
C417 C 0.9671 0.29871 0.66143 0.0
C418 C 0.08718 0.34793 0.63401 0.0
C419 C 0.11509 0.34949 0.65234 0.0
C420 C 0.01948 0.32363 0.65836 0.0
C421 C 0.09497 0.34211 0.6737 0.0
C422 C 0.94728 0.29339 0.68273 0.0
C423 C 0.89069 0.24265 0.64669 0.0
N424 N 0.0481 0.32873 0.67609 0.0
N425 N 0.93801 0.27416 0.64401 0.0
H426 H 0.63837 0.86358 0.96764 0.0
H427 H 0.75256 0.12451 0.01694 0.0
H428 H 0.63665 0.89408 0.03761 0.0
H429 H 0.7423 0.09272 0.94657 0.0
H430 H 0.69556 0.04035 0.02433 0.0
H431 H 0.66083 0.94607 0.95899 0.0
C432 C 0.64175 0.88731 0.98116 0.0
C433 C 0.63688 0.87224 0.00341 0.0
C434 C 0.70512 0.05196 0.00723 0.0
C435 C 0.66332 0.9669 0.99369 0.0
C436 C 0.73765 0.10007 0.00301 0.0
C437 C 0.75316 0.11542 0.98117 0.0
C438 C 0.68838 0.01909 0.98948 0.0
C439 C 0.73221 0.08226 0.96374 0.0
C440 C 0.65468 0.93451 0.97622 0.0
C441 C 0.64106 0.90441 0.02022 0.0
N442 N 0.70159 0.03554 0.96831 0.0
N443 N 0.65501 0.95048 0.01505 0.0
H444 H 0.66499 0.77472 0.36035 0.0
H445 H 0.75609 0.62321 0.36883 0.0
H446 H 0.64824 0.74202 0.28999 0.0
H447 H 0.79996 0.6696 0.30109 0.0
H448 H 0.69577 0.64739 0.36551 0.0
H449 H 0.69404 0.7186 0.36547 0.0
C450 C 0.6662 0.75481 0.34608 0.0
C451 C 0.65491 0.76373 0.32467 0.0
C452 C 0.71838 0.65196 0.35135 0.0
C453 C 0.68799 0.69922 0.33038 0.0
C454 C 0.75253 0.63767 0.3531 0.0
C455 C 0.78404 0.64556 0.33537 0.0
C456 C 0.71578 0.67423 0.33172 0.0
C457 C 0.77713 0.66375 0.31533 0.0
C458 C 0.68251 0.72243 0.34903 0.0
C459 C 0.65711 0.73678 0.30678 0.0
N460 N 0.74411 0.67805 0.31414 0.0
N461 N 0.67453 0.70665 0.30995 0.0
H462 H 0.12439 0.77539 0.63727 0.0
H463 H 0.85945 0.64031 0.6819 0.0
H464 H 0.08758 0.7417 0.70668 0.0
H465 H 0.89654 0.65953 0.61205 0.0
H466 H 0.94194 0.66314 0.69093 0.0
H467 H 0.04158 0.71932 0.62722 0.0
C468 C 0.09916 0.75552 0.65037 0.0
C469 C 0.11269 0.7642 0.67286 0.0
C470 C 0.93183 0.66152 0.67359 0.0
C471 C 0.0177 0.70051 0.66154 0.0
C472 C 0.88466 0.64843 0.66844 0.0
C473 C 0.87135 0.64918 0.64624 0.0
C474 C 0.96588 0.67586 0.65643 0.0
C475 C 0.90544 0.65946 0.62946 0.0
C476 C 0.05178 0.72351 0.64464 0.0
C477 C 0.07856 0.73691 0.68912 0.0
N478 N 0.9513 0.67325 0.63492 0.0
N479 N 0.03244 0.70704 0.68317 0.0
H480 H 0.97763 0.2201 -0.00333 0.0
H481 H 0.22745 0.22825 0.98479 0.0
H482 H 0.05503 0.25291 0.93456 0.0
H483 H 0.17713 0.25322 0.04719 0.0
H484 H 0.15839 0.22466 0.96596 0.0
H485 H 0.04473 0.21947 0.01535 0.0
C486 C 0.00863 0.22691 0.98694 0.0
C487 C 0.01088 0.23672 0.96404 0.0
C488 C 0.16254 0.23089 0.98377 0.0
C489 C 0.08744 0.23575 0.98527 0.0
C490 C 0.20176 0.23274 0.99454 0.0
C491 C 0.20805 0.24119 0.01758 0.0
C492 C 0.12904 0.23678 -0.00381 0.0
C493 C 0.17377 0.24692 0.02939 0.0
C494 C 0.04694 0.22675 -0.00237 0.0
C495 C 0.05197 0.24546 0.95226 0.0
N496 N 0.13559 0.24441 0.01857 0.0
N497 N 0.08861 0.2446 0.963 0.0
H498 H 0.84982 0.98319 0.2908 0.0
H499 H 0.92502 0.19599 0.37848 0.0
H500 H 0.7502 -0.00205 0.33334 0.0
H501 H 0.02501 0.18614 0.33418 0.0
H502 H 0.86115 0.1214 0.36314 0.0
H503 H 0.91519 0.05519 0.30765 0.0
C504 C 0.84169 0.0014 0.30375 0.0
C505 C 0.79442 0.9846 0.31061 0.0
C506 C 0.89705 0.13548 0.35677 0.0
C507 C 0.86901 0.06704 0.32989 0.0
C508 C 0.93358 0.17813 0.36553 0.0
C509 C 0.98043 0.19744 0.35757 0.0
C510 C 0.90735 0.11183 0.33991 0.0
C511 C 0.98938 0.17261 0.34079 0.0
C512 C 0.87903 0.04256 0.31333 0.0
C513 C 0.78604 0.00966 0.32746 0.0
N514 N 0.95314 0.13111 0.33249 0.0
N515 N 0.82293 0.04964 0.33647 0.0
H516 H 0.78918 0.78114 0.65958 0.0
H517 H 0.78067 0.02443 0.65259 0.0
H518 H 0.76867 0.83878 0.59823 0.0
H519 H 0.77952 0.95535 0.71447 0.0
H520 H 0.78504 0.96126 0.63219 0.0
H521 H 0.79437 0.84931 0.6797 0.0
C522 C 0.78599 0.80824 0.65031 0.0
C523 C 0.77817 0.80409 0.62719 0.0
C524 C 0.784 0.96003 0.65023 0.0
C525 C 0.78409 0.88222 0.65015 0.0
C526 C 0.78161 0.99614 0.66191 0.0
C527 C 0.77941 0.99501 0.68528 0.0
C528 C 0.78436 0.92259 0.66201 0.0
C529 C 0.78086 0.95752 0.69645 0.0
C530 C 0.78888 0.84711 0.66183 0.0
C531 C 0.77444 0.84036 0.61607 0.0
N532 N 0.7831 0.92274 0.68471 0.0
N533 N 0.77731 0.87785 0.62766 0.0
H534 H 0.8365 0.80036 0.05807 0.0
H535 H 0.95933 0.80355 0.94187 0.0
H536 H 0.77662 0.80164 0.99382 0.0
H537 H 0.01473 0.79365 0.00601 0.0
H538 H 0.89637 0.8109 0.96072 0.0
H539 H 0.9062 0.80593 0.03938 0.0
C540 C 0.83813 0.80214 0.04004 0.0
C541 C 0.80046 0.80014 0.02749 0.0
C542 C 0.92245 0.80739 0.97068 0.0
C543 C 0.88013 0.80637 0.00598 0.0
C544 C 0.95847 0.80323 0.95992 0.0
C545 C 0.99214 0.79757 0.97237 0.0
C546 C 0.92004 0.80585 0.99406 0.0
C547 C 0.98935 0.79763 -0.00427 0.0
C548 C 0.87794 0.80527 0.02937 0.0
C549 C 0.80466 0.80278 0.00417 0.0
N550 N 0.95375 0.80141 0.00581 0.0
N551 N 0.84364 0.80548 0.99417 0.0
H552 H 0.98463 0.76437 0.31981 0.0
H553 H 0.22573 0.01743 0.32556 0.0
H554 H 0.05516 0.83319 0.38126 0.0
H555 H 0.16242 0.9427 0.26413 0.0
H556 H 0.1589 0.95419 0.34613 0.0
H557 H 0.04494 0.83324 0.2991 0.0
C558 C 0.01264 0.79406 0.32897 0.0
C559 C 0.01507 0.79284 0.35231 0.0
C560 C 0.1595 0.95174 0.32814 0.0
C561 C 0.08424 0.87177 0.32868 0.0
C562 C 0.19763 0.98788 0.31637 0.0
C563 C 0.19989 0.98516 0.29309 0.0
C564 C 0.12332 0.91255 0.31657 0.0
C565 C 0.16232 0.94613 0.28208 0.0
C566 C 0.0471 0.83337 0.31712 0.0
C567 C 0.05205 0.83244 0.36328 0.0
N568 N 0.12571 0.91123 0.29393 0.0
N569 N 0.08531 0.87019 0.35136 0.0
H570 H 0.19824 0.97406 0.66267 0.0
H571 H 0.20331 0.22407 0.6713 0.0
H572 H 0.20883 0.04537 0.72506 0.0
H573 H 0.21224 0.16108 0.60931 0.0
H574 H 0.19777 0.15545 0.69135 0.0
H575 H 0.19564 0.03885 0.64295 0.0
C576 C 0.19977 0.00322 0.67225 0.0
C577 C 0.204 0.0044 0.69557 0.0
C578 C 0.2008 0.15662 0.67336 0.0
C579 C 0.20112 0.07882 0.67304 0.0
C580 C 0.20388 0.19573 0.66189 0.0
C581 C 0.20847 0.19843 0.63859 0.0
C582 C 0.20215 0.11989 0.66143 0.0
C583 C 0.20898 0.16065 0.62728 0.0
C584 C 0.19838 0.04028 0.66096 0.0
C585 C 0.20578 0.04311 0.70708 0.0
N586 N 0.20595 0.12302 0.63881 0.0
N587 N 0.20445 0.07885 0.69569 0.0
loop_
_geom_bond_atom_site_label_1
_geom_bond_atom_site_label_2
_geom_bond_distance
_geom_bond_site_symmetry_2
_ccdc_geom_bond_type
C0 O1 1.160 . S
C0 O7 1.185 . S
O1 C0 1.160 . S
O2 Zn3 1.899 . S
O2 C10 1.284 . S
Zn3 O2 1.899 . S
Zn3 O4 2.032 . S
Zn3 O7 2.086 . S
Zn3 O12 1.977 . S
O4 Zn3 2.032 . S
O4 C8 1.278 . S
C5 O6 1.203 . S
C5 O12 1.267 . S
O6 C5 1.203 . S
O7 C0 1.185 . S
O7 Zn3 2.086 . S
C8 O4 1.278 . S
C8 O9 1.211 . S
O9 C8 1.211 . S
C10 O2 1.284 . S
C10 O11 1.273 . S
O11 C10 1.273 . S
O12 Zn3 1.977 . S
O12 C5 1.267 . S
C13 O14 1.160 . S
C13 O20 1.185 . S
O14 C13 1.160 . S
O15 Zn16 1.899 . S
O15 C23 1.284 . S
Zn16 O15 1.899 . S
Zn16 O17 2.032 . S
Zn16 O20 2.086 . S
Zn16 O25 1.977 . S
O17 Zn16 2.032 . S
O17 C21 1.278 . S
C18 O19 1.203 . S
C18 O25 1.267 . S
O19 C18 1.203 . S
O20 C13 1.185 . S
O20 Zn16 2.086 . S
C21 O17 1.278 . S
C21 O22 1.211 . S
O22 C21 1.211 . S
C23 O15 1.284 . S
C23 O24 1.273 . S
O24 C23 1.273 . S
O25 Zn16 1.977 . S
O25 C18 1.267 . S
C26 O27 1.160 . S
C26 O33 1.185 . S
O27 C26 1.160 . S
O28 Zn29 1.899 . S
O28 C36 1.284 . S
Zn29 O28 1.899 . S
Zn29 O30 2.032 . S
Zn29 O33 2.086 . S
Zn29 O38 1.977 . S
O30 Zn29 2.032 . S
O30 C34 1.278 . S
C31 O32 1.203 . S
C31 O38 1.267 . S
O32 C31 1.203 . S
O33 C26 1.185 . S
O33 Zn29 2.086 . S
C34 O30 1.278 . S
C34 O35 1.211 . S
O35 C34 1.211 . S
C36 O28 1.284 . S
C36 O37 1.273 . S
O37 C36 1.273 . S
O38 Zn29 1.977 . S
O38 C31 1.267 . S
C39 O40 1.160 . S
C39 O46 1.185 . S
O40 C39 1.160 . S
O41 Zn42 1.899 . S
O41 C49 1.284 . S
Zn42 O41 1.899 . S
Zn42 O43 2.032 . S
Zn42 O46 2.086 . S
Zn42 O51 1.977 . S
O43 Zn42 2.032 . S
O43 C47 1.278 . S
C44 O45 1.203 . S
C44 O51 1.267 . S
O45 C44 1.203 . S
O46 C39 1.185 . S
O46 Zn42 2.086 . S
C47 O43 1.278 . S
C47 O48 1.211 . S
O48 C47 1.211 . S
C49 O41 1.284 . S
C49 O50 1.273 . S
O50 C49 1.273 . S
O51 Zn42 1.977 . S
O51 C44 1.267 . S
C52 O53 1.160 . S
C52 O59 1.185 . S
O53 C52 1.160 . S
O54 Zn55 1.899 . S
O54 C62 1.284 . S
Zn55 O54 1.899 . S
Zn55 O56 2.032 . S
Zn55 O59 2.086 . S
Zn55 O64 1.977 . S
O56 Zn55 2.032 . S
O56 C60 1.278 . S
C57 O58 1.203 . S
C57 O64 1.267 . S
O58 C57 1.203 . S
O59 C52 1.185 . S
O59 Zn55 2.086 . S
C60 O56 1.278 . S
C60 O61 1.211 . S
O61 C60 1.211 . S
C62 O54 1.284 . S
C62 O63 1.273 . S
O63 C62 1.273 . S
O64 Zn55 1.977 . S
O64 C57 1.267 . S
C65 O66 1.160 . S
C65 O72 1.185 . S
O66 C65 1.160 . S
O67 Zn68 1.899 . S
O67 C75 1.284 . S
Zn68 O67 1.899 . S
Zn68 O69 2.032 . S
Zn68 O72 2.086 . S
Zn68 O77 1.977 . S
O69 Zn68 2.032 . S
O69 C73 1.278 . S
C70 O71 1.203 . S
C70 O77 1.267 . S
O71 C70 1.203 . S
O72 C65 1.185 . S
O72 Zn68 2.086 . S
C73 O69 1.278 . S
C73 O74 1.211 . S
O74 C73 1.211 . S
C75 O67 1.284 . S
C75 O76 1.273 . S
O76 C75 1.273 . S
O77 Zn68 1.977 . S
O77 C70 1.267 . S
C78 O79 1.160 . S
C78 O85 1.185 . S
O79 C78 1.160 . S
O80 Zn81 1.899 . S
O80 C88 1.284 . S
Zn81 O80 1.899 . S
Zn81 O82 2.032 . S
Zn81 O85 2.086 . S
Zn81 O90 1.977 . S
O82 Zn81 2.032 . S
O82 C86 1.278 . S
C83 O84 1.203 . S
C83 O90 1.267 . S
O84 C83 1.203 . S
O85 C78 1.185 . S
O85 Zn81 2.086 . S
C86 O82 1.278 . S
C86 O87 1.211 . S
O87 C86 1.211 . S
C88 O80 1.284 . S
C88 O89 1.273 . S
O89 C88 1.273 . S
O90 Zn81 1.977 . S
O90 C83 1.267 . S
C91 O92 1.160 . S
C91 O98 1.185 . S
O92 C91 1.160 . S
O93 Zn94 1.899 . S
O93 C101 1.284 . S
Zn94 O93 1.899 . S
Zn94 O95 2.032 . S
Zn94 O98 2.086 . S
Zn94 O103 1.977 . S
O95 Zn94 2.032 . S
O95 C99 1.278 . S
C96 O97 1.203 . S
C96 O103 1.267 . S
O97 C96 1.203 . S
O98 C91 1.185 . S
O98 Zn94 2.086 . S
C99 O95 1.278 . S
C99 O100 1.211 . S
O100 C99 1.211 . S
C101 O93 1.284 . S
C101 O102 1.273 . S
O102 C101 1.273 . S
O103 Zn94 1.977 . S
O103 C96 1.267 . S
C104 O105 1.160 . S
C104 O111 1.185 . S
O105 C104 1.160 . S
O106 Zn107 1.899 . S
O106 C114 1.284 . S
Zn107 O106 1.899 . S
Zn107 O108 2.032 . S
Zn107 O111 2.086 . S
Zn107 O116 1.977 . S
O108 Zn107 2.032 . S
O108 C112 1.278 . S
C109 O110 1.203 . S
C109 O116 1.267 . S
O110 C109 1.203 . S
O111 C104 1.185 . S
O111 Zn107 2.086 . S
C112 O108 1.278 . S
C112 O113 1.211 . S
O113 C112 1.211 . S
C114 O106 1.284 . S
C114 O115 1.273 . S
O115 C114 1.273 . S
O116 Zn107 1.977 . S
O116 C109 1.267 . S
C117 O118 1.160 . S
C117 O124 1.185 . S
O118 C117 1.160 . S
O119 Zn120 1.899 . S
O119 C127 1.284 . S
Zn120 O119 1.899 . S
Zn120 O121 2.032 . S
Zn120 O124 2.086 . S
Zn120 O129 1.977 . S
O121 Zn120 2.032 . S
O121 C125 1.278 . S
C122 O123 1.203 . S
C122 O129 1.267 . S
O123 C122 1.203 . S
O124 C117 1.185 . S
O124 Zn120 2.086 . S
C125 O121 1.278 . S
C125 O126 1.211 . S
O126 C125 1.211 . S
C127 O119 1.284 . S
C127 O128 1.273 . S
O128 C127 1.273 . S
O129 Zn120 1.977 . S
O129 C122 1.267 . S
C130 O131 1.160 . S
C130 O137 1.185 . S
O131 C130 1.160 . S
O132 Zn133 1.899 . S
O132 C140 1.284 . S
Zn133 O132 1.899 . S
Zn133 O134 2.032 . S
Zn133 O137 2.086 . S
Zn133 O142 1.977 . S
O134 Zn133 2.032 . S
O134 C138 1.278 . S
C135 O136 1.203 . S
C135 O142 1.267 . S
O136 C135 1.203 . S
O137 C130 1.185 . S
O137 Zn133 2.086 . S
C138 O134 1.278 . S
C138 O139 1.211 . S
O139 C138 1.211 . S
C140 O132 1.284 . S
C140 O141 1.273 . S
O141 C140 1.273 . S
O142 Zn133 1.977 . S
O142 C135 1.267 . S
C143 O144 1.160 . S
C143 O150 1.185 . S
O144 C143 1.160 . S
O145 Zn146 1.899 . S
O145 C153 1.284 . S
Zn146 O145 1.899 . S
Zn146 O147 2.032 . S
Zn146 O150 2.086 . S
Zn146 O155 1.977 . S
O147 Zn146 2.032 . S
O147 C151 1.278 . S
C148 O149 1.203 . S
C148 O155 1.267 . S
O149 C148 1.203 . S
O150 C143 1.185 . S
O150 Zn146 2.086 . S
C151 O147 1.278 . S
C151 O152 1.211 . S
O152 C151 1.211 . S
C153 O145 1.284 . S
C153 O154 1.273 . S
O154 C153 1.273 . S
O155 Zn146 1.977 . S
O155 C148 1.267 . S
H156 C162 0.930 . S
H157 C166 0.930 . S
H158 C171 0.929 . S
H159 C169 0.929 . S
H160 C164 0.929 . S
H161 C170 0.929 . S
C162 H156 0.930 . S
C162 C163 1.367 . S
C162 C170 1.378 . S
C163 C162 1.367 . S
C163 C171 1.433 . S
C164 H160 0.929 . S
C164 C166 1.378 . S
C164 C168 1.350 . S
C165 C168 1.463 . S
C165 C170 1.350 . S
C165 N173 1.427 . S
C166 H157 0.930 . S
C166 C164 1.378 . S
C166 C167 1.367 . S
C167 C166 1.367 . S
C167 C169 1.433 . S
C168 C164 1.350 . S
C168 C165 1.463 . S
C168 N172 1.427 . S
C169 H159 0.929 . S
C169 C167 1.433 . S
C169 N172 1.384 . S
C170 H161 0.929 . S
C170 C162 1.378 . S
C170 C165 1.350 . S
C171 H158 0.929 . S
C171 C163 1.433 . S
C171 N173 1.384 . S
N172 C168 1.427 . S
N172 C169 1.384 . S
N173 C165 1.427 . S
N173 C171 1.384 . S
H174 C180 0.930 . S
H175 C184 0.930 . S
H176 C189 0.929 . S
H177 C187 0.929 . S
H178 C182 0.929 . S
H179 C188 0.929 . S
C180 H174 0.930 . S
C180 C181 1.367 . S
C180 C188 1.378 . S
C181 C180 1.367 . S
C181 C189 1.433 . S
C182 H178 0.929 . S
C182 C184 1.378 . S
C182 C186 1.350 . S
C183 C186 1.463 1_455 S
C183 C188 1.350 . S
C183 N191 1.427 . S
C184 H175 0.930 . S
C184 C182 1.378 . S
C184 C185 1.367 . S
C185 C184 1.367 . S
C185 C187 1.433 . S
C186 C182 1.350 . S
C186 C183 1.463 1_655 S
C186 N190 1.427 . S
C187 H177 0.929 . S
C187 C185 1.433 . S
C187 N190 1.384 . S
C188 H179 0.929 . S
C188 C180 1.378 . S
C188 C183 1.350 . S
C189 H176 0.929 . S
C189 C181 1.433 . S
C189 N191 1.384 . S
N190 C186 1.427 . S
N190 C187 1.384 . S
N191 C183 1.427 . S
N191 C189 1.384 . S
H192 C198 0.930 . S
H193 C202 0.930 . S
H194 C207 0.929 . S
H195 C205 0.929 . S
H196 C200 0.929 . S
H197 C206 0.929 . S
C198 H192 0.930 . S
C198 C199 1.367 . S
C198 C206 1.378 . S
C199 C198 1.367 . S
C199 C207 1.433 . S
C200 H196 0.929 . S
C200 C202 1.378 . S
C200 C204 1.350 . S
C201 C204 1.463 1_565 S
C201 C206 1.350 . S
C201 N209 1.427 . S
C202 H193 0.930 . S
C202 C200 1.378 . S
C202 C203 1.367 . S
C203 C202 1.367 . S
C203 C205 1.433 . S
C204 C200 1.350 . S
C204 C201 1.463 1_545 S
C204 N208 1.427 . S
C205 H195 0.929 . S
C205 C203 1.433 . S
C205 N208 1.384 . S
C206 H197 0.929 . S
C206 C198 1.378 . S
C206 C201 1.350 . S
C207 H194 0.929 . S
C207 C199 1.433 . S
C207 N209 1.384 . S
N208 C204 1.427 . S
N208 C205 1.384 . S
N209 C201 1.427 . S
N209 C207 1.384 . S
H210 C216 0.930 . S
H211 C220 0.930 . S
H212 C225 0.929 . S
H213 C223 0.929 . S
H214 C218 0.929 . S
H215 C224 0.929 . S
C216 H210 0.930 . S
C216 C217 1.367 . S
C216 C224 1.378 . S
C217 C216 1.367 . S
C217 C225 1.433 . S
C218 H214 0.929 . S
C218 C220 1.378 . S
C218 C222 1.350 . S
C219 C222 1.463 . S
C219 C224 1.350 . S
C219 N227 1.427 . S
C220 H211 0.930 . S
C220 C218 1.378 . S
C220 C221 1.367 . S
C221 C220 1.367 . S
C221 C223 1.433 . S
C222 C218 1.350 . S
C222 C219 1.463 . S
C222 N226 1.427 . S
C223 H213 0.929 . S
C223 C221 1.433 . S
C223 N226 1.384 . S
C224 H215 0.929 . S
C224 C216 1.378 . S
C224 C219 1.350 . S
C225 H212 0.929 . S
C225 C217 1.433 . S
C225 N227 1.384 . S
N226 C222 1.427 . S
N226 C223 1.384 . S
N227 C219 1.427 . S
N227 C225 1.384 . S
H228 C234 0.930 . S
H229 C238 0.930 . S
H230 C243 0.929 . S
H231 C241 0.929 . S
H232 C236 0.929 . S
H233 C242 0.929 . S
C234 H228 0.930 . S
C234 C235 1.367 . S
C234 C242 1.378 1_655 S
C235 C234 1.367 . S
C235 C243 1.433 . S
C236 H232 0.929 . S
C236 C238 1.378 1_655 S
C236 C240 1.350 1_655 S
C237 C240 1.463 1_655 S
C237 C242 1.350 1_655 S
C237 N245 1.427 . S
C238 H229 0.930 . S
C238 C236 1.378 1_455 S
C238 C239 1.367 . S
C239 C238 1.367 . S
C239 C241 1.433 . S
C240 C236 1.350 1_455 S
C240 C237 1.463 1_455 S
C240 N244 1.427 . S
C241 H231 0.929 . S
C241 C239 1.433 . S
C241 N244 1.384 . S
C242 H233 0.929 . S
C242 C234 1.378 1_455 S
C242 C237 1.350 1_455 S
C243 H230 0.929 . S
C243 C235 1.433 . S
C243 N245 1.384 . S
N244 C240 1.427 . S
N244 C241 1.384 . S
N245 C237 1.427 . S
N245 C243 1.384 . S
H246 C252 0.930 . S
H247 C256 0.930 . S
H248 C261 0.929 . S
H249 C259 0.929 . S
H250 C254 0.929 1_545 S
H251 C260 0.929 1_565 S
C252 H246 0.930 . S
C252 C253 1.367 . S
C252 C260 1.378 . S
C253 C252 1.367 . S
C253 C261 1.433 . S
C254 H250 0.929 1_565 S
C254 C256 1.378 . S
C254 C258 1.350 . S
C255 C258 1.463 1_545 S
C255 C260 1.350 . S
C255 N263 1.427 . S
C256 H247 0.930 . S
C256 C254 1.378 . S
C256 C257 1.367 . S
C257 C256 1.367 . S
C257 C259 1.433 . S
C258 C254 1.350 . S
C258 C255 1.463 1_565 S
C258 N262 1.427 . S
C259 H249 0.929 . S
C259 C257 1.433 . S
C259 N262 1.384 . S
C260 H251 0.929 1_545 S
C260 C252 1.378 . S
C260 C255 1.350 . S
C261 H248 0.929 . S
C261 C253 1.433 . S
C261 N263 1.384 . S
N262 C258 1.427 . S
N262 C259 1.384 . S
N263 C255 1.427 . S
N263 C261 1.384 . S
H264 C270 0.930 . S
H265 C274 0.930 . S
H266 C279 0.929 . S
H267 C277 0.929 . S
H268 C272 0.929 . S
H269 C278 0.929 . S
C270 H264 0.930 . S
C270 C271 1.367 . S
C270 C278 1.378 . S
C271 C270 1.367 . S
C271 C279 1.433 . S
C272 H268 0.929 . S
C272 C274 1.378 . S
C272 C276 1.350 . S
C273 C276 1.463 . S
C273 C278 1.350 . S
C273 N281 1.427 . S
C274 H265 0.930 . S
C274 C272 1.378 . S
C274 C275 1.367 . S
C275 C274 1.367 . S
C275 C277 1.433 . S
C276 C272 1.350 . S
C276 C273 1.463 . S
C276 N280 1.427 . S
C277 H267 0.929 . S
C277 C275 1.433 . S
C277 N280 1.384 . S
C278 H269 0.929 . S
C278 C270 1.378 . S
C278 C273 1.350 . S
C279 H266 0.929 . S
C279 C271 1.433 . S
C279 N281 1.384 . S
N280 C276 1.427 . S
N280 C277 1.384 . S
N281 C273 1.427 . S
N281 C279 1.384 . S
H282 C288 0.930 . S
H283 C292 0.930 . S
H284 C297 0.929 . S
H285 C295 0.929 . S
H286 C290 0.929 . S
H287 C296 0.929 . S
C288 H282 0.930 . S
C288 C289 1.367 . S
C288 C296 1.378 . S
C289 C288 1.367 . S
C289 C297 1.433 . S
C290 H286 0.929 . S
C290 C292 1.378 . S
C290 C294 1.350 . S
C291 C294 1.463 . S
C291 C296 1.350 . S
C291 N299 1.427 . S
C292 H283 0.930 . S
C292 C290 1.378 . S
C292 C293 1.367 . S
C293 C292 1.367 . S
C293 C295 1.433 . S
C294 C290 1.350 . S
C294 C291 1.463 . S
C294 N298 1.427 . S
C295 H285 0.929 . S
C295 C293 1.433 . S
C295 N298 1.384 . S
C296 H287 0.929 . S
C296 C288 1.378 . S
C296 C291 1.350 . S
C297 H284 0.929 . S
C297 C289 1.433 . S
C297 N299 1.384 . S
N298 C294 1.427 . S
N298 C295 1.384 . S
N299 C291 1.427 . S
N299 C297 1.384 . S
H300 C306 0.930 . S
H301 C310 0.930 . S
H302 C315 0.929 . S
H303 C313 0.929 . S
H304 C308 0.929 . S
H305 C314 0.929 . S
C306 H300 0.930 . S
C306 C307 1.367 . S
C306 C314 1.378 . S
C307 C306 1.367 . S
C307 C315 1.433 . S
C308 H304 0.929 . S
C308 C310 1.378 . S
C308 C312 1.350 . S
C309 C312 1.463 . S
C309 C314 1.350 . S
C309 N317 1.427 . S
C310 H301 0.930 . S
C310 C308 1.378 . S
C310 C311 1.367 . S
C311 C310 1.367 . S
C311 C313 1.433 . S
C312 C308 1.350 . S
C312 C309 1.463 . S
C312 N316 1.427 . S
C313 H303 0.929 . S
C313 C311 1.433 . S
C313 N316 1.384 . S
C314 H305 0.929 . S
C314 C306 1.378 . S
C314 C309 1.350 . S
C315 H302 0.929 . S
C315 C307 1.433 . S
C315 N317 1.384 . S
N316 C312 1.427 . S
N316 C313 1.384 . S
N317 C309 1.427 . S
N317 C315 1.384 . S
H318 C324 0.930 . S
H319 C328 0.930 . S
H320 C333 0.929 . S
H321 C331 0.929 . S
H322 C326 0.929 . S
H323 C332 0.929 . S
C324 H318 0.930 . S
C324 C325 1.367 . S
C324 C332 1.378 . S
C325 C324 1.367 . S
C325 C333 1.433 . S
C326 H322 0.929 . S
C326 C328 1.378 . S
C326 C330 1.350 . S
C327 C330 1.463 . S
C327 C332 1.350 . S
C327 N335 1.427 . S
C328 H319 0.930 . S
C328 C326 1.378 . S
C328 C329 1.367 . S
C329 C328 1.367 . S
C329 C331 1.433 . S
C330 C326 1.350 . S
C330 C327 1.463 . S
C330 N334 1.427 . S
C331 H321 0.929 . S
C331 C329 1.433 . S
C331 N334 1.384 . S
C332 H323 0.929 . S
C332 C324 1.378 . S
C332 C327 1.350 . S
C333 H320 0.929 . S
C333 C325 1.433 . S
C333 N335 1.384 . S
N334 C330 1.427 . S
N334 C331 1.384 . S
N335 C327 1.427 . S
N335 C333 1.384 . S
H336 C342 0.930 . S
H337 C346 0.930 . S
H338 C351 0.929 . S
H339 C349 0.929 . S
H340 C344 0.929 . S
H341 C350 0.929 . S
C342 H336 0.930 . S
C342 C343 1.367 . S
C342 C350 1.378 . S
C343 C342 1.367 . S
C343 C351 1.433 . S
C344 H340 0.929 . S
C344 C346 1.378 . S
C344 C348 1.350 . S
C345 C348 1.463 . S
C345 C350 1.350 . S
C345 N353 1.427 . S
C346 H337 0.930 . S
C346 C344 1.378 . S
C346 C347 1.367 . S
C347 C346 1.367 . S
C347 C349 1.433 . S
C348 C344 1.350 . S
C348 C345 1.463 . S
C348 N352 1.427 . S
C349 H339 0.929 . S
C349 C347 1.433 . S
C349 N352 1.384 . S
C350 H341 0.929 . S
C350 C342 1.378 . S
C350 C345 1.350 . S
C351 H338 0.929 . S
C351 C343 1.433 . S
C351 N353 1.384 . S
N352 C348 1.427 . S
N352 C349 1.384 . S
N353 C345 1.427 . S
N353 C351 1.384 . S
H354 C360 0.930 . S
H355 C364 0.930 . S
H356 C369 0.929 . S
H357 C367 0.929 . S
H358 C362 0.929 . S
H359 C368 0.929 . S
C360 H354 0.930 . S
C360 C361 1.367 . S
C360 C368 1.378 . S
C361 C360 1.367 . S
C361 C369 1.433 . S
C362 H358 0.929 . S
C362 C364 1.378 . S
C362 C366 1.350 . S
C363 C366 1.463 . S
C363 C368 1.350 . S
C363 N371 1.427 . S
C364 H355 0.930 . S
C364 C362 1.378 . S
C364 C365 1.367 . S
C365 C364 1.367 . S
C365 C367 1.433 . S
C366 C362 1.350 . S
C366 C363 1.463 . S
C366 N370 1.427 . S
C367 H357 0.929 . S
C367 C365 1.433 . S
C367 N370 1.384 . S
C368 H359 0.929 . S
C368 C360 1.378 . S
C368 C363 1.350 . S
C369 H356 0.929 . S
C369 C361 1.433 . S
C369 N371 1.384 . S
N370 C366 1.427 . S
N370 C367 1.384 . S
N371 C363 1.427 . S
N371 C369 1.384 . S
H372 C378 0.930 1_554 S
H373 C382 0.930 1_556 S
H374 C387 0.929 . S
H375 C385 0.929 . S
H376 C380 0.929 . S
H377 C386 0.929 . S
C378 H372 0.930 1_556 S
C378 C379 1.367 . S
C378 C386 1.378 1_556 S
C379 C378 1.367 . S
C379 C387 1.433 . S
C380 H376 0.929 . S
C380 C382 1.378 1_556 S
C380 C384 1.350 1_556 S
C381 C384 1.463 1_566 S
C381 C386 1.350 1_556 S
C381 N389 1.427 . S
C382 H373 0.930 1_554 S
C382 C380 1.378 1_554 S
C382 C383 1.367 . S
C383 C382 1.367 . S
C383 C385 1.433 . S
C384 C380 1.350 1_554 S
C384 C381 1.463 1_544 S
C384 N388 1.427 . S
C385 H375 0.929 . S
C385 C383 1.433 . S
C385 N388 1.384 . S
C386 H377 0.929 . S
C386 C378 1.378 1_554 S
C386 C381 1.350 1_554 S
C387 H374 0.929 . S
C387 C379 1.433 . S
C387 N389 1.384 . S
N388 C384 1.427 . S
N388 C385 1.384 . S
N389 C381 1.427 . S
N389 C387 1.384 . S
H390 C396 0.930 . S
H391 C400 0.930 . S
H392 C405 0.929 . S
H393 C403 0.929 . S
H394 C398 0.929 . S
H395 C404 0.929 . S
C396 H390 0.930 . S
C396 C397 1.367 . S
C396 C404 1.378 . S
C397 C396 1.367 . S
C397 C405 1.433 . S
C398 H394 0.929 . S
C398 C400 1.378 . S
C398 C402 1.350 . S
C399 C402 1.463 . S
C399 C404 1.350 . S
C399 N407 1.427 . S
C400 H391 0.930 . S
C400 C398 1.378 . S
C400 C401 1.367 . S
C401 C400 1.367 . S
C401 C403 1.433 . S
C402 C398 1.350 . S
C402 C399 1.463 . S
C402 N406 1.427 . S
C403 H393 0.929 . S
C403 C401 1.433 . S
C403 N406 1.384 . S
C404 H395 0.929 . S
C404 C396 1.378 . S
C404 C399 1.350 . S
C405 H392 0.929 . S
C405 C397 1.433 . S
C405 N407 1.384 . S
N406 C402 1.427 . S
N406 C403 1.384 . S
N407 C399 1.427 . S
N407 C405 1.384 . S
H408 C414 0.930 . S
H409 C418 0.930 . S
H410 C423 0.929 . S
H411 C421 0.929 . S
H412 C416 0.929 . S
H413 C422 0.929 . S
C414 H408 0.930 . S
C414 C415 1.367 . S
C414 C422 1.378 . S
C415 C414 1.367 . S
C415 C423 1.433 . S
C416 H412 0.929 . S
C416 C418 1.378 . S
C416 C420 1.350 . S
C417 C420 1.463 1_655 S
C417 C422 1.350 . S
C417 N425 1.427 . S
C418 H409 0.930 . S
C418 C416 1.378 . S
C418 C419 1.367 . S
C419 C418 1.367 . S
C419 C421 1.433 . S
C420 C416 1.350 . S
C420 C417 1.463 1_455 S
C420 N424 1.427 . S
C421 H411 0.929 . S
C421 C419 1.433 . S
C421 N424 1.384 . S
C422 H413 0.929 . S
C422 C414 1.378 . S
C422 C417 1.350 . S
C423 H410 0.929 . S
C423 C415 1.433 . S
C423 N425 1.384 . S
N424 C420 1.427 . S
N424 C421 1.384 . S
N425 C417 1.427 . S
N425 C423 1.384 . S
H426 C432 0.930 . S
H427 C436 0.930 . S
H428 C441 0.929 . S
H429 C439 0.929 . S
H430 C434 0.929 . S
H431 C440 0.929 . S
C432 H426 0.930 . S
C432 C433 1.367 1_556 S
C432 C440 1.378 . S
C433 C432 1.367 1_554 S
C433 C441 1.433 . S
C434 H430 0.929 . S
C434 C436 1.378 . S
C434 C438 1.350 1_554 S
C435 C438 1.463 1_564 S
C435 C440 1.350 1_554 S
C435 N443 1.427 . S
C436 H427 0.930 . S
C436 C434 1.378 . S
C436 C437 1.367 1_554 S
C437 C436 1.367 1_556 S
C437 C439 1.433 . S
C438 C434 1.350 1_556 S
C438 C435 1.463 1_546 S
C438 N442 1.427 . S
C439 H429 0.929 . S
C439 C437 1.433 . S
C439 N442 1.384 . S
C440 H431 0.929 . S
C440 C432 1.378 . S
C440 C435 1.350 1_556 S
C441 H428 0.929 . S
C441 C433 1.433 . S
C441 N443 1.384 . S
N442 C438 1.427 . S
N442 C439 1.384 . S
N443 C435 1.427 . S
N443 C441 1.384 . S
H444 C450 0.930 . S
H445 C454 0.930 . S
H446 C459 0.929 . S
H447 C457 0.929 . S
H448 C452 0.929 . S
H449 C458 0.929 . S
C450 H444 0.930 . S
C450 C451 1.367 . S
C450 C458 1.378 . S
C451 C450 1.367 . S
C451 C459 1.433 . S
C452 H448 0.929 . S
C452 C454 1.378 . S
C452 C456 1.350 . S
C453 C456 1.463 . S
C453 C458 1.350 . S
C453 N461 1.427 . S
C454 H445 0.930 . S
C454 C452 1.378 . S
C454 C455 1.367 . S
C455 C454 1.367 . S
C455 C457 1.433 . S
C456 C452 1.350 . S
C456 C453 1.463 . S
C456 N460 1.427 . S
C457 H447 0.929 . S
C457 C455 1.433 . S
C457 N460 1.384 . S
C458 H449 0.929 . S
C458 C450 1.378 . S
C458 C453 1.350 . S
C459 H446 0.929 . S
C459 C451 1.433 . S
C459 N461 1.384 . S
N460 C456 1.427 . S
N460 C457 1.384 . S
N461 C453 1.427 . S
N461 C459 1.384 . S
H462 C468 0.930 . S
H463 C472 0.930 . S
H464 C477 0.929 . S
H465 C475 0.929 . S
H466 C470 0.929 . S
H467 C476 0.929 . S
C468 H462 0.930 . S
C468 C469 1.367 . S
C468 C476 1.378 . S
C469 C468 1.367 . S
C469 C477 1.433 . S
C470 H466 0.929 . S
C470 C472 1.378 . S
C470 C474 1.350 . S
C471 C474 1.463 1_455 S
C471 C476 1.350 . S
C471 N479 1.427 . S
C472 H463 0.930 . S
C472 C470 1.378 . S
C472 C473 1.367 . S
C473 C472 1.367 . S
C473 C475 1.433 . S
C474 C470 1.350 . S
C474 C471 1.463 1_655 S
C474 N478 1.427 . S
C475 H465 0.929 . S
C475 C473 1.433 . S
C475 N478 1.384 . S
C476 H467 0.929 . S
C476 C468 1.378 . S
C476 C471 1.350 . S
C477 H464 0.929 . S
C477 C469 1.433 . S
C477 N479 1.384 . S
N478 C474 1.427 . S
N478 C475 1.384 . S
N479 C471 1.427 . S
N479 C477 1.384 . S
H480 C486 0.930 1_654 S
H481 C490 0.930 1_556 S
H482 C495 0.929 . S
H483 C493 0.929 . S
H484 C488 0.929 . S
H485 C494 0.929 . S
C486 H480 0.930 1_456 S
C486 C487 1.367 . S
C486 C494 1.378 1_556 S
C487 C486 1.367 . S
C487 C495 1.433 . S
C488 H484 0.929 . S
C488 C490 1.378 1_556 S
C488 C492 1.350 1_556 S
C489 C492 1.463 1_556 S
C489 C494 1.350 1_556 S
C489 N497 1.427 . S
C490 H481 0.930 1_554 S
C490 C488 1.378 1_554 S
C490 C491 1.367 . S
C491 C490 1.367 . S
C491 C493 1.433 . S
C492 C488 1.350 1_554 S
C492 C489 1.463 1_554 S
C492 N496 1.427 . S
C493 H483 0.929 . S
C493 C491 1.433 . S
C493 N496 1.384 . S
C494 H485 0.929 . S
C494 C486 1.378 1_554 S
C494 C489 1.350 1_554 S
C495 H482 0.929 . S
C495 C487 1.433 . S
C495 N497 1.384 . S
N496 C492 1.427 . S
N496 C493 1.384 . S
N497 C489 1.427 . S
N497 C495 1.384 . S
H498 C504 0.930 . S
H499 C508 0.930 . S
H500 C513 0.929 . S
H501 C511 0.929 1_455 S
H502 C506 0.929 . S
H503 C512 0.929 . S
C504 H498 0.930 . S
C504 C505 1.367 . S
C504 C512 1.378 . S
C505 C504 1.367 . S
C505 C513 1.433 . S
C506 H502 0.929 . S
C506 C508 1.378 . S
C506 C510 1.350 . S
C507 C510 1.463 . S
C507 C512 1.350 . S
C507 N515 1.427 . S
C508 H499 0.930 . S
C508 C506 1.378 . S
C508 C509 1.367 . S
C509 C508 1.367 . S
C509 C511 1.433 . S
C510 C506 1.350 . S
C510 C507 1.463 . S
C510 N514 1.427 . S
C511 H501 0.929 1_655 S
C511 C509 1.433 . S
C511 N514 1.384 . S
C512 H503 0.929 . S
C512 C504 1.378 . S
C512 C507 1.350 . S
C513 H500 0.929 . S
C513 C505 1.433 . S
C513 N515 1.384 . S
N514 C510 1.427 . S
N514 C511 1.384 . S
N515 C507 1.427 . S
N515 C513 1.384 . S
H516 C522 0.930 . S
H517 C526 0.930 1_545 S
H518 C531 0.929 . S
H519 C529 0.929 . S
H520 C524 0.929 . S
H521 C530 0.929 . S
C522 H516 0.930 . S
C522 C523 1.367 . S
C522 C530 1.378 . S
C523 C522 1.367 . S
C523 C531 1.433 . S
C524 H520 0.929 . S
C524 C526 1.378 . S
C524 C528 1.350 . S
C525 C528 1.463 . S
C525 C530 1.350 . S
C525 N533 1.427 . S
C526 H517 0.930 1_565 S
C526 C524 1.378 . S
C526 C527 1.367 . S
C527 C526 1.367 . S
C527 C529 1.433 . S
C528 C524 1.350 . S
C528 C525 1.463 . S
C528 N532 1.427 . S
C529 H519 0.929 . S
C529 C527 1.433 . S
C529 N532 1.384 . S
C530 H521 0.929 . S
C530 C522 1.378 . S
C530 C525 1.350 . S
C531 H518 0.929 . S
C531 C523 1.433 . S
C531 N533 1.384 . S
N532 C528 1.427 . S
N532 C529 1.384 . S
N533 C525 1.427 . S
N533 C531 1.384 . S
H534 C540 0.930 . S
H535 C544 0.930 . S
H536 C549 0.929 . S
H537 C547 0.929 1_455 S
H538 C542 0.929 . S
H539 C548 0.929 . S
C540 H534 0.930 . S
C540 C541 1.367 . S
C540 C548 1.378 . S
C541 C540 1.367 . S
C541 C549 1.433 . S
C542 H538 0.929 . S
C542 C544 1.378 . S
C542 C546 1.350 . S
C543 C546 1.463 1_554 S
C543 C548 1.350 . S
C543 N551 1.417 1_554 S
C544 H535 0.930 . S
C544 C542 1.378 . S
C544 C545 1.367 . S
C545 C544 1.367 . S
C545 C547 1.433 . S
C546 C542 1.350 . S
C546 C543 1.463 1_556 S
C546 N550 1.417 1_556 S
C547 H537 0.929 1_655 S
C547 C545 1.433 . S
C547 N550 1.366 1_556 S
C548 H539 0.929 . S
C548 C540 1.378 . S
C548 C543 1.350 . S
C549 H536 0.929 . S
C549 C541 1.433 . S
C549 N551 1.366 1_554 S
N550 C546 1.417 1_554 S
N550 C547 1.366 1_554 S
N551 C543 1.417 1_556 S
N551 C549 1.366 1_556 S
H552 C558 0.930 . S
H553 C562 0.930 1_545 S
H554 C567 0.929 . S
H555 C565 0.929 . S
H556 C560 0.929 . S
H557 C566 0.929 . S
C558 H552 0.930 . S
C558 C559 1.367 . S
C558 C566 1.378 . S
C559 C558 1.367 . S
C559 C567 1.433 . S
C560 H556 0.929 . S
C560 C562 1.378 . S
C560 C564 1.350 . S
C561 C564 1.463 . S
C561 C566 1.350 . S
C561 N569 1.427 . S
C562 H553 0.930 1_565 S
C562 C560 1.378 . S
C562 C563 1.367 . S
C563 C562 1.367 . S
C563 C565 1.433 . S
C564 C560 1.350 . S
C564 C561 1.463 . S
C564 N568 1.427 . S
C565 H555 0.929 . S
C565 C563 1.433 . S
C565 N568 1.384 . S
C566 H557 0.929 . S
C566 C558 1.378 . S
C566 C561 1.350 . S
C567 H554 0.929 . S
C567 C559 1.433 . S
C567 N569 1.384 . S
N568 C564 1.427 . S
N568 C565 1.384 . S
N569 C561 1.427 . S
N569 C567 1.384 . S
H570 C576 0.930 . S
H571 C580 0.930 . S
H572 C585 0.929 . S
H573 C583 0.929 . S
H574 C578 0.929 . S
H575 C584 0.929 . S
C576 H570 0.930 . S
C576 C577 1.367 . S
C576 C584 1.378 . S
C577 C576 1.367 . S
C577 C585 1.433 . S
C578 H574 0.929 . S
C578 C580 1.378 . S
C578 C582 1.350 . S
C579 C582 1.463 . S
C579 C584 1.350 . S
C579 N587 1.427 . S
C580 H571 0.930 . S
C580 C578 1.378 . S
C580 C581 1.367 . S
C581 C580 1.367 . S
C581 C583 1.433 . S
C582 C578 1.350 . S
C582 C579 1.463 . S
C582 N586 1.427 . S
C583 H573 0.929 . S
C583 C581 1.433 . S
C583 N586 1.384 . S
C584 H575 0.929 . S
C584 C576 1.378 . S
C584 C579 1.350 . S
C585 H572 0.929 . S
C585 C577 1.433 . S
C585 N587 1.384 . S
N586 C582 1.427 . S
N586 C583 1.384 . S
N587 C579 1.427 . S
N587 C585 1.384 . S
C163 C39 1.398 . S
C167 C0 1.398 . S
C181 C13 1.402 . S
C185 C52 1.402 . S
C199 C65 1.411 . S
C203 C26 1.410 . S
C217 C78 1.408 . S
C221 C117 1.408 . S
C235 C130 1.395 . S
C239 C91 1.395 . S
C253 C104 1.400 . S
C257 C143 1.400 . S
C271 C112 1.503 . S
C275 C8 1.501 . S
C289 C21 1.499 . S
C293 C125 1.499 . S
C307 C34 1.504 . S
C311 C138 1.502 . S
C325 C47 1.511 . S
C329 C151 1.512 . S
C343 C86 1.504 . S
C347 C60 1.507 . S
C361 C99 1.499 . S
C365 C73 1.499 . S
C379 C96 0.931 . S
C383 C5 0.905 . S
C397 C18 0.926 . S
C401 C109 0.917 . S
C415 C31 0.908 . S
C419 C122 0.904 . S
C433 C44 0.922 . S
C437 C135 0.921 . S
C451 C148 0.897 . S
C455 C57 0.926 . S
C469 C70 0.922 . S
C473 C83 0.921 . S
C487 C140 1.288 1_455 S
C491 C10 1.289 . S
C505 C153 1.286 1_545 S
C509 C23 1.289 1_655 S
C523 C88 1.288 . S
C527 C36 1.288 1_565 S
C541 C49 1.286 . S
C545 C101 1.289 1_655 S
C559 C62 1.289 1_455 S
C563 C114 1.288 1_565 S
C577 C75 1.289 1_545 S
C581 C127 1.287 . S
