# Generated by pormake.
# Topology acs-a, (4)-cn, num edge types: 1
# Building blocks:
#     Node 0, Type 0, BuildingBlock: GALJAG_clean_sbu_0, # of connection points: 4
#     Node 1, Type 0, BuildingBlock: GALJAG_clean_sbu_0, # of connection points: 4
#     Node 2, Type 0, BuildingBlock: GALJAG_clean_sbu_0, # of connection points: 4
#     Node 3, Type 0, BuildingBlock: GALJAG_clean_sbu_0, # of connection points: 4
#     Node 4, Type 0, BuildingBlock: GALJAG_clean_sbu_0, # of connection points: 4
#     Node 5, Type 0, BuildingBlock: GALJAG_clean_sbu_0, # of connection points: 4
#     Node 6, Type 0, BuildingBlock: GALJAG_clean_sbu_0, # of connection points: 4
#     Node 7, Type 0, BuildingBlock: GALJAG_clean_sbu_0, # of connection points: 4
#     Node 8, Type 0, BuildingBlock: GALJAG_clean_sbu_0, # of connection points: 4
#     Node 9, Type 0, BuildingBlock: GALJAG_clean_sbu_0, # of connection points: 4
#     Node 10, Type 0, BuildingBlock: GALJAG_clean_sbu_0, # of connection points: 4
#     Node 11, Type 0, BuildingBlock: GALJAG_clean_sbu_0, # of connection points: 4
#     Edge 12, Type (0, 0), BuildingBlock: OJICUG_clean_linker_0, # of connection points: 2
#     Edge 13, Type (0, 0), BuildingBlock: OJICUG_clean_linker_0, # of connection points: 2
#     Edge 14, Type (0, 0), BuildingBlock: OJICUG_clean_linker_0, # of connection points: 2
#     Edge 15, Type (0, 0), BuildingBlock: OJICUG_clean_linker_0, # of connection points: 2
#     Edge 16, Type (0, 0), BuildingBlock: OJICUG_clean_linker_0, # of connection points: 2
#     Edge 17, Type (0, 0), BuildingBlock: OJICUG_clean_linker_0, # of connection points: 2
#     Edge 18, Type (0, 0), BuildingBlock: OJICUG_clean_linker_0, # of connection points: 2
#     Edge 19, Type (0, 0), BuildingBlock: OJICUG_clean_linker_0, # of connection points: 2
#     Edge 20, Type (0, 0), BuildingBlock: OJICUG_clean_linker_0, # of connection points: 2
#     Edge 21, Type (0, 0), BuildingBlock: OJICUG_clean_linker_0, # of connection points: 2
#     Edge 22, Type (0, 0), BuildingBlock: OJICUG_clean_linker_0, # of connection points: 2
#     Edge 23, Type (0, 0), BuildingBlock: OJICUG_clean_linker_0, # of connection points: 2
#     Edge 24, Type (0, 0), BuildingBlock: OJICUG_clean_linker_0, # of connection points: 2
#     Edge 25, Type (0, 0), BuildingBlock: OJICUG_clean_linker_0, # of connection points: 2
#     Edge 26, Type (0, 0), BuildingBlock: OJICUG_clean_linker_0, # of connection points: 2
#     Edge 27, Type (0, 0), BuildingBlock: OJICUG_clean_linker_0, # of connection points: 2
#     Edge 28, Type (0, 0), BuildingBlock: OJICUG_clean_linker_0, # of connection points: 2
#     Edge 29, Type (0, 0), BuildingBlock: OJICUG_clean_linker_0, # of connection points: 2
#     Edge 30, Type (0, 0), BuildingBlock: OJICUG_clean_linker_0, # of connection points: 2
#     Edge 31, Type (0, 0), BuildingBlock: OJICUG_clean_linker_0, # of connection points: 2
#     Edge 32, Type (0, 0), BuildingBlock: OJICUG_clean_linker_0, # of connection points: 2
#     Edge 33, Type (0, 0), BuildingBlock: OJICUG_clean_linker_0, # of connection points: 2
#     Edge 34, Type (0, 0), BuildingBlock: OJICUG_clean_linker_0, # of connection points: 2
#     Edge 35, Type (0, 0), BuildingBlock: OJICUG_clean_linker_0, # of connection points: 2
# Relax obj value: 0.468
# Max RMSD: 0.203
# Mean RMSD: 0.201
data_MOF--net-acs-a--node1-GALJAG_clean_sbu_0--edge1-OJICUG_clean_linker_0
_symmetry_space_group_name_H-M    P1
_symmetry_Int_Tables_number       1
_symmetry_cell_setting            triclinic
loop_
_symmetry_equiv_pos_as_xyz
'x, y, z'
_cell_length_a     38.407006
_cell_length_b     38.431865
_cell_length_c     21.692786
_cell_angle_alpha  90.213641
_cell_angle_beta   89.835627
_cell_angle_gamma 120.74162
loop_
_atom_site_label
_atom_site_type_symbol
_atom_site_fract_x
_atom_site_fract_y
_atom_site_fract_z
_atom_type_partial_charge
In0 In 0.5914 0.1555 0.01295 0.0
O1 O 0.59389 0.19173 0.09801 0.0
O2 O 0.55434 0.12786 0.09974 0.0
C3 C 0.67078 0.2117 0.00262 0.0
C4 C 0.57389 0.07942 0.98939 0.0
C5 C 0.54734 0.17986 0.94965 0.0
O6 O 0.65511 0.19239 0.05164 0.0
O7 O 0.64692 0.20055 0.95725 0.0
O8 O 0.58002 0.18407 0.9289 0.0
O9 O 0.53628 0.16172 0.00055 0.0
C10 C 0.56821 0.16113 0.12787 0.0
O11 O 0.5582 0.09631 0.96044 0.0
O12 O 0.60112 0.10207 0.02693 0.0
In13 In 0.39811 0.57043 0.44984 0.0
O14 O 0.38344 0.58629 0.54497 0.0
O15 O 0.41196 0.55134 0.54093 0.0
C16 C 0.42962 0.64766 0.41324 0.0
C17 C 0.44457 0.5415 0.40897 0.0
C18 C 0.31861 0.52749 0.4214 0.0
O19 O 0.43733 0.63805 0.46478 0.0
O20 O 0.40624 0.61814 0.3793 0.0
O21 O 0.34449 0.55447 0.38626 0.0
O22 O 0.33327 0.52103 0.46886 0.0
C23 C 0.3976 0.56792 0.57432 0.0
O24 O 0.40643 0.52076 0.40708 0.0
O25 O 0.45877 0.57745 0.42666 0.0
In26 In 0.83065 0.45546 0.04993 0.0
O27 O 0.88858 0.4552 0.06748 0.0
O28 O 0.89429 0.50828 0.02807 0.0
C29 C 0.79663 0.37557 0.02609 0.0
C30 C 0.8104 0.46369 0.16541 0.0
C31 C 0.79286 0.48163 0.9748 0.0
O32 O 0.80427 0.39014 0.07986 0.0
O33 O 0.80711 0.40148 0.98372 0.0
O34 O 0.79774 0.48956 0.03163 0.0
O35 O 0.80928 0.46252 0.9551 0.0
C36 C 0.91191 0.49086 0.04951 0.0
O37 O 0.84344 0.48933 0.14059 0.0
O38 O 0.78671 0.43463 0.13091 0.0
In39 In 0.40018 0.83019 0.48691 0.0
O40 O 0.44431 0.89346 0.45084 0.0
O41 O 0.39142 0.884 0.49686 0.0
C42 C 0.43552 0.79493 0.42616 0.0
C43 C 0.41707 0.82199 0.60422 0.0
C44 C 0.32018 0.78282 0.46748 0.0
O45 O 0.409 0.8003 0.40116 0.0
O46 O 0.44566 0.80968 0.47947 0.0
O47 O 0.33514 0.79797 0.51936 0.0
O48 O 0.34564 0.79295 0.42422 0.0
C49 C 0.42493 0.90892 0.4731 0.0
O50 O 0.38687 0.79415 0.57607 0.0
O51 O 0.43851 0.8536 0.57313 0.0
In52 In 0.56454 0.38665 0.98482 0.0
O53 O 0.55975 0.35565 0.07719 0.0
O54 O 0.60823 0.41583 0.06532 0.0
C55 C 0.52883 0.31155 0.93719 0.0
C56 C 0.51204 0.41336 0.98615 0.0
C57 C 0.63599 0.43301 0.9275 0.0
O58 O 0.52174 0.31892 0.99105 0.0
O59 O 0.55248 0.34251 0.9061 0.0
O60 O 0.61522 0.44753 0.94795 0.0
O61 O 0.61978 0.39526 0.93392 0.0
C62 C 0.59006 0.38597 0.10089 0.0
O63 O 0.5322 0.41439 0.03221 0.0
O64 O 0.51844 0.39909 0.93788 0.0
In65 In 0.13459 0.55334 0.51644 0.0
O66 O 0.07851 0.55841 0.51813 0.0
O67 O 0.07073 0.50117 0.49511 0.0
C68 C 0.17575 0.63171 0.48246 0.0
C69 C 0.147 0.55155 0.6378 0.0
C70 C 0.17054 0.51685 0.46116 0.0
O71 O 0.16585 0.6034 0.44403 0.0
O72 O 0.16355 0.6202 0.53667 0.0
O73 O 0.16271 0.51396 0.51798 0.0
O74 O 0.15841 0.53672 0.43116 0.0
C75 C 0.05422 0.52152 0.50741 0.0
O76 O 0.17467 0.57591 0.60192 0.0
O77 O 0.11394 0.52718 0.6119 0.0
In78 In 0.80769 0.42968 0.5441 0.0
O79 O 0.86996 0.46693 0.589 0.0
O80 O 0.85967 0.41874 0.52953 0.0
C81 C 0.7768 0.47054 0.60131 0.0
C82 C 0.80042 0.44775 0.42674 0.0
C83 C 0.75904 0.34977 0.56177 0.0
O84 O 0.77006 0.4366 0.62009 0.0
O85 O 0.80158 0.4848 0.55729 0.0
O86 O 0.77324 0.3653 0.50982 0.0
O87 O 0.77025 0.37467 0.60614 0.0
C88 C 0.88471 0.44859 0.56097 0.0
O89 O 0.77127 0.41917 0.45548 0.0
O90 O 0.83268 0.46699 0.4573 0.0
In91 In 0.45092 0.82599 0.9858 0.0
O92 O 0.45404 0.88587 0.99229 0.0
O93 O 0.50722 0.88552 0.01711 0.0
C94 C 0.37471 0.79086 0.03007 0.0
C95 C 0.44582 0.81793 0.86267 0.0
C96 C 0.47987 0.77801 0.01868 0.0
O97 O 0.40401 0.79606 0.06319 0.0
O98 O 0.38435 0.80472 0.97617 0.0
O99 O 0.48515 0.79356 0.96597 0.0
O100 O 0.46255 0.78922 0.05663 0.0
C101 C 0.49075 0.90617 0.00726 0.0
O102 O 0.41956 0.79159 0.89818 0.0
O103 O 0.47519 0.84756 0.88944 0.0
In104 In 0.57655 0.42581 0.47151 0.0
O105 O 0.52353 0.42754 0.42867 0.0
O106 O 0.56594 0.47877 0.48021 0.0
C107 C 0.53544 0.35638 0.53507 0.0
C108 C 0.59793 0.40924 0.36076 0.0
C109 C 0.64082 0.47022 0.54466 0.0
O110 O 0.51762 0.37195 0.50796 0.0
O111 O 0.57353 0.37604 0.53045 0.0
O112 O 0.64307 0.47066 0.48654 0.0
O113 O 0.60555 0.44837 0.56621 0.0
C114 C 0.53465 0.46275 0.44704 0.0
O115 O 0.61168 0.44471 0.38062 0.0
O116 O 0.57458 0.38201 0.39767 0.0
In117 In 0.1582 0.58157 0.02376 0.0
O118 O 0.10044 0.54385 0.07971 0.0
O119 O 0.10698 0.59456 0.03113 0.0
C120 C 0.18542 0.53144 0.05282 0.0
C121 C 0.15674 0.57188 0.90081 0.0
C122 C 0.21508 0.65836 0.05184 0.0
O123 O 0.1628 0.52583 0.00744 0.0
O124 O 0.19225 0.56113 0.08653 0.0
O125 O 0.19445 0.64868 0.00297 0.0
O126 O 0.20565 0.62937 0.08845 0.0
C127 C 0.08443 0.56389 0.06313 0.0
O128 O 0.12558 0.55342 0.93418 0.0
O129 O 0.18887 0.59583 0.92938 0.0
In130 In 0.53329 0.15859 0.50743 0.0
O131 O 0.55745 0.19444 0.41836 0.0
O132 O 0.50907 0.13332 0.41234 0.0
C133 C 0.49867 0.19926 0.55218 0.0
C134 C 0.50016 0.07884 0.52572 0.0
C135 C 0.61115 0.20137 0.54427 0.0
O136 O 0.49462 0.18728 0.49712 0.0
O137 O 0.51771 0.18797 0.586 0.0
O138 O 0.58211 0.19106 0.58139 0.0
O139 O 0.60065 0.18831 0.49006 0.0
C140 C 0.5339 0.16514 0.38412 0.0
O141 O 0.53751 0.10235 0.51719 0.0
O142 O 0.47992 0.09615 0.53143 0.0
In143 In 0.39042 0.53978 0.96204 0.0
O144 O 0.43255 0.52393 0.01107 0.0
O145 O 0.38702 0.47921 0.95318 0.0
C146 C 0.43879 0.61644 0.00293 0.0
C147 C 0.39228 0.55098 0.83915 0.0
C148 C 0.31514 0.50847 0.0089 0.0
O149 O 0.40707 0.59098 0.03062 0.0
O150 O 0.44662 0.60305 0.95502 0.0
O151 O 0.32185 0.50811 0.95202 0.0
O152 O 0.34629 0.52316 0.04229 0.0
C153 C 0.41711 0.48917 0.9874 0.0
O154 O 0.37443 0.56276 0.87523 0.0
O155 O 0.40883 0.53385 0.86522 0.0
C156 C 0.51626 0.13028 0.28236 0.0
C157 C 0.53863 0.16604 0.31672 0.0
H158 H 0.50828 0.10073 0.19545 0.0
C159 C 0.56848 0.20122 0.28712 0.0
H160 H 0.49304 0.1027 0.30398 0.0
C161 C 0.57715 0.20009 0.22482 0.0
C162 C 0.55628 0.1637 0.19145 0.0
H163 H 0.58615 0.2292 0.31258 0.0
H164 H 0.60118 0.22729 0.20348 0.0
C165 C 0.52511 0.12908 0.22031 0.0
C166 C 0.37759 0.58056 0.67872 0.0
C167 C 0.39675 0.5649 0.64223 0.0
H168 H 0.36097 0.58836 0.77013 0.0
C169 C 0.41469 0.54529 0.67108 0.0
H170 H 0.36347 0.59579 0.65765 0.0
C171 C 0.41331 0.54112 0.73497 0.0
C172 C 0.39387 0.55635 0.7716 0.0
H173 H 0.42972 0.53293 0.64426 0.0
H174 H 0.42734 0.52567 0.75562 0.0
C175 C 0.37611 0.57627 0.74298 0.0
C176 C 0.83367 0.494 0.26948 0.0
C177 C 0.80323 0.46415 0.23205 0.0
H178 H 0.85643 0.51217 0.36093 0.0
C179 C 0.76878 0.43185 0.25979 0.0
H180 H 0.86042 0.51939 0.24937 0.0
C181 C 0.76645 0.42776 0.32391 0.0
C182 C 0.79864 0.45581 0.36092 0.0
H183 H 0.74475 0.40851 0.23196 0.0
H184 H 0.74066 0.40143 0.34413 0.0
C185 C 0.83145 0.4898 0.33336 0.0
C186 C 0.40618 0.78416 0.76758 0.0
C187 C 0.4407 0.81634 0.79537 0.0
H188 H 0.37163 0.76065 0.68465 0.0
C189 C 0.46873 0.8488 0.75894 0.0
H190 H 0.38411 0.75874 0.79468 0.0
C191 C 0.46148 0.84999 0.69632 0.0
C192 C 0.42617 0.81867 0.66899 0.0
H193 H 0.49564 0.87397 0.77916 0.0
H194 H 0.4831 0.87596 0.66968 0.0
C195 C 0.399 0.78528 0.70474 0.0
C196 C 0.62942 0.43242 0.25698 0.0
C197 C 0.60307 0.4007 0.29606 0.0
H198 H 0.64655 0.4523 0.16402 0.0
C199 C 0.57746 0.36209 0.27074 0.0
H200 H 0.64976 0.4624 0.27531 0.0
C201 C 0.57536 0.35635 0.20686 0.0
C202 C 0.5991 0.38905 0.16747 0.0
H203 H 0.55697 0.337 0.29984 0.0
H204 H 0.55337 0.32698 0.18829 0.0
C205 C 0.62758 0.4266 0.19322 0.0
C206 C 0.18753 0.5836 0.73305 0.0
C207 C 0.15121 0.55421 0.70529 0.0
H208 H 0.2178 0.61231 0.81729 0.0
C209 C 0.11753 0.52953 0.74251 0.0
H210 H 0.21392 0.60307 0.70534 0.0
C211 C 0.11962 0.53508 0.80616 0.0
C212 C 0.15549 0.56523 0.83384 0.0
H213 H 0.08912 0.50666 0.72235 0.0
H214 H 0.0929 0.51607 0.83357 0.0
C215 C 0.18969 0.58899 0.79696 0.0
C216 C 0.51785 0.01115 0.96096 0.0
C217 C 0.55576 0.03519 0.98885 0.0
H218 H 0.46735 0.95183 0.94676 0.0
C219 C 0.57294 0.01647 0.02256 0.0
H220 H 0.50367 0.02465 0.93509 0.0
C221 C 0.55203 0.97428 0.02897 0.0
C222 C 0.51339 0.95058 0.00295 0.0
H223 H 0.60205 0.03444 0.04492 0.0
H224 H 0.56567 0.96033 0.05506 0.0
C225 C 0.49676 0.9694 0.96845 0.0
C226 C 0.45244 0.4816 0.39321 0.0
C227 C 0.46987 0.523 0.40631 0.0
H228 H 0.45955 0.42988 0.39609 0.0
C229 C 0.51001 0.54508 0.42762 0.0
H230 H 0.42151 0.46389 0.37691 0.0
C231 C 0.53132 0.52551 0.43995 0.0
C232 C 0.51309 0.48371 0.4302 0.0
H233 H 0.52422 0.57705 0.43824 0.0
H234 H 0.56171 0.54295 0.4585 0.0
C235 C 0.47404 0.46212 0.40472 0.0
C236 C 0.02353 0.56903 0.04129 0.0
C237 C 0.04066 0.54811 0.0686 0.0
H238 H 0.96912 0.56705 0.01312 0.0
C239 C 0.01509 0.50924 0.09248 0.0
H240 H 0.04257 0.59901 0.02222 0.0
C241 C 0.97319 0.49082 0.08647 0.0
C242 C 0.95613 0.51101 0.05672 0.0
H243 H 0.02745 0.49233 0.11346 0.0
H244 H 0.95423 0.46044 0.10418 0.0
C245 C 0.98156 0.55063 0.03546 0.0
C246 C 0.43899 0.00938 0.52341 0.0
C247 C 0.48096 0.03492 0.51605 0.0
H248 H 0.38805 0.94923 0.51432 0.0
C249 C 0.50392 0.01903 0.49171 0.0
H250 H 0.42053 0.02101 0.54125 0.0
C251 C 0.48526 0.97841 0.47472 0.0
C252 C 0.44337 0.95276 0.48251 0.0
H253 H 0.53627 0.03816 0.48461 0.0
H254 H 0.50383 0.96691 0.45683 0.0
C255 C 0.42037 0.96853 0.50712 0.0
C256 C 0.43205 0.43827 0.94383 0.0
C257 C 0.43671 0.46509 0.99163 0.0
H258 H 0.45316 0.40125 0.90387 0.0
C259 C 0.46408 0.47245 0.03944 0.0
H260 H 0.41128 0.43242 0.90616 0.0
C261 C 0.48755 0.45437 0.03844 0.0
C262 C 0.48459 0.42932 0.98894 0.0
H263 H 0.46814 0.49305 0.0767 0.0
H264 H 0.50911 0.46125 0.07531 0.0
C265 C 0.45619 0.42078 0.94216 0.0
C266 C 0.94309 0.44334 0.52272 0.0
C267 C 0.92852 0.46564 0.55347 0.0
H268 H -0.00551 0.4438 0.48308 0.0
C269 C 0.95548 0.50636 0.56829 0.0
H270 H 0.92278 0.41197 0.51019 0.0
C271 C -0.0039 0.52478 0.55124 0.0
C272 C 0.01062 0.50267 0.51985 0.0
H273 H 0.94495 0.52441 0.59114 0.0
H274 H 0.0162 0.5563 0.56322 0.0
C275 C 0.98391 0.46165 0.5064 0.0
C276 C 0.55055 0.23321 0.88102 0.0
C277 C 0.52989 0.20364 0.9264 0.0
H278 H 0.56531 0.29142 0.84744 0.0
C279 C 0.49903 0.20426 0.96044 0.0
H280 H 0.574 0.23307 0.85334 0.0
C281 C 0.49429 0.23783 0.95745 0.0
C282 C 0.52006 0.27079 0.91993 0.0
H283 H 0.48196 0.18133 0.99482 0.0
H284 H 0.47382 0.23995 0.98965 0.0
C285 C 0.54549 0.26666 0.87759 0.0
C286 C 0.26082 0.53027 0.37455 0.0
C287 C 0.27487 0.5123 0.41626 0.0
H288 H 0.21521 0.54504 0.35559 0.0
C289 C 0.24855 0.48658 0.46221 0.0
H290 H 0.28032 0.54989 0.33824 0.0
C291 C 0.21141 0.48394 0.47226 0.0
C292 C 0.20003 0.50676 0.43624 0.0
H293 H 0.25831 0.47178 0.49439 0.0
H294 H 0.19353 0.46722 0.51192 0.0
C295 C 0.22346 0.52743 0.38444 0.0
C296 C 0.75307 0.31654 0.95767 0.0
C297 C 0.772 0.33156 0.01491 0.0
H298 H 0.70605 0.26594 0.90843 0.0
C299 C 0.76266 0.30453 0.0641 0.0
H300 H 0.75986 0.33668 0.91886 0.0
C301 C 0.73215 0.26405 0.05802 0.0
C302 C 0.71024 0.24995 0.00276 0.0
H303 H 0.77712 0.3152 0.10855 0.0
H304 H 0.72373 0.24463 0.0981 0.0
C305 C 0.72232 0.27599 0.95167 0.0
C306 C 0.41986 0.73511 0.36102 0.0
C307 C 0.44518 0.76452 0.40421 0.0
H308 H 0.39531 0.67407 0.3295 0.0
C309 C 0.47276 0.75846 0.43804 0.0
H310 H 0.39847 0.73912 0.33405 0.0
C311 C 0.47061 0.72118 0.43599 0.0
C312 C 0.44121 0.6897 0.3995 0.0
H313 H 0.49307 0.7809 0.471 0.0
H314 H 0.48948 0.71591 0.46705 0.0
C315 C 0.41794 0.69779 0.3586 0.0
C316 C 0.703 0.49239 0.95208 0.0
C317 C 0.67968 0.458 0.91534 0.0
H318 H 0.7591 0.52763 6e-05 0.0
C319 C 0.699 0.44104 0.88255 0.0
H320 H 0.68881 0.50614 0.97763 0.0
C321 C 0.73951 0.45385 0.89452 0.0
C322 C 0.76054 0.48301 0.94049 0.0
H323 H 0.68162 0.41473 0.85344 0.0
H324 H 0.75225 0.437 0.87417 0.0
C325 C 0.74326 0.50462 0.96513 0.0
C326 C 0.22989 0.6848 0.41575 0.0
C327 C 0.2057 0.67438 0.46898 0.0
H328 H 0.2857 0.72843 0.373 0.0
C329 C 0.21532 0.70377 0.5149 0.0
H330 H 0.22304 0.66275 0.37951 0.0
C331 C 0.25108 0.74117 0.51126 0.0
C332 C 0.27772 0.74983 0.46156 0.0
H333 H 0.19689 0.69674 0.55607 0.0
H334 H 0.25932 0.76201 0.5497 0.0
C335 C 0.26575 0.72241 0.41202 0.0
C336 C 0.75018 0.51515 0.57473 0.0
C337 C 0.74815 0.48467 0.61288 0.0
H338 H 0.71597 0.53438 0.52229 0.0
C339 C 0.7122 0.45975 0.64559 0.0
H340 H 0.77778 0.53553 0.55009 0.0
C341 C 0.67682 0.45972 0.63045 0.0
C342 C 0.67741 0.48434 0.58227 0.0
H343 H 0.70996 0.43651 0.67628 0.0
H344 H 0.64836 0.43643 0.64989 0.0
C345 C 0.71476 0.51457 0.55872 0.0
C346 C 0.3013 0.76089 0.00867 0.0
C347 C 0.33194 0.76419 0.04776 0.0
H348 H 0.23956 0.72483 0.98036 0.0
C349 C 0.32148 0.73686 0.09686 0.0
H350 H 0.30842 0.78185 0.97089 0.0
C351 C 0.28186 0.70401 0.10228 0.0
C352 C 0.25234 0.69824 0.05868 0.0
H353 H 0.3445 0.73882 0.12783 0.0
H354 H 0.27531 0.68146 0.13732 0.0
C355 C 0.26183 0.72822 0.01413 0.0
C356 C 0.52263 0.26339 0.60907 0.0
C357 C 0.49442 0.23412 0.56832 0.0
H358 H 0.55838 0.32667 0.62971 0.0
C359 C 0.4715 0.24426 0.53004 0.0
H360 H 0.54063 0.25638 0.63929 0.0
C361 C 0.48112 0.28448 0.52563 0.0
C362 C 0.51422 0.31476 0.55856 0.0
H363 H 0.4494 0.22211 0.49848 0.0
H364 H 0.46615 0.29236 0.49083 0.0
C365 C 0.53297 0.30371 0.60345 0.0
C366 C 0.20909 0.48821 0.00558 0.0
C367 C 0.21046 0.5125 0.05524 0.0
H368 H 0.24194 0.46772 0.95175 0.0
C369 C 0.24206 0.52605 0.09824 0.0
H370 H 0.18479 0.47685 0.9721 0.0
C371 C 0.2746 0.52027 0.0869 0.0
C372 C 0.27598 0.50135 0.03214 0.0
H373 H 0.24366 0.54447 0.13727 0.0
H374 H 0.30043 0.53438 0.11763 0.0
C375 C 0.24185 0.483 0.99378 0.0
C376 C 0.66208 0.25718 0.61157 0.0
C377 C 0.65324 0.23287 0.55862 0.0
H378 H 0.70355 0.31387 0.65461 0.0
C379 C 0.68334 0.24375 0.51353 0.0
H380 H 0.63944 0.24943 0.64715 0.0
C381 C 0.71974 0.28054 0.51765 0.0
C382 C 0.72678 0.30698 0.56711 0.0
H383 H 0.67756 0.22537 0.47256 0.0
H384 H 0.74112 0.28954 0.47984 0.0
C385 C 0.69876 0.29406 0.61585 0.0
C386 C 0.44793 0.67335 0.06995 0.0
C387 C 0.46034 0.65984 0.01878 0.0
H388 H 0.44584 0.72283 0.11138 0.0
C389 C 0.48836 0.68838 0.97719 0.0
H390 H 0.42682 0.65203 0.10329 0.0
C391 C 0.49925 0.72894 0.98182 0.0
C392 C 0.48236 0.74142 0.0282 0.0
H393 H 0.4989 0.67887 0.93782 0.0
H394 H 0.51769 0.7496 0.94566 0.0
C395 C 0.45906 0.714 0.07482 0.0
loop_
_geom_bond_atom_site_label_1
_geom_bond_atom_site_label_2
_geom_bond_distance
_geom_bond_site_symmetry_2
_ccdc_geom_bond_type
In0 O1 2.296 . S
In0 O2 2.328 . S
In0 O6 2.266 1_554 S
In0 O7 2.324 1_554 S
In0 O8 2.265 1_554 S
In0 O9 2.326 . S
In0 O11 2.293 1_554 S
In0 O12 2.326 . S
O1 In0 2.296 . S
O1 C10 1.240 . S
O2 In0 2.328 . S
O2 C10 1.252 . S
C3 O6 1.252 . S
C3 O7 1.260 . S
C4 O11 1.240 . S
C4 O12 1.252 1_556 S
C5 O8 1.252 . S
C5 O9 1.260 1_556 S
O6 In0 2.266 1_556 S
O6 C3 1.252 . S
O7 In0 2.324 1_556 S
O7 C3 1.260 . S
O8 In0 2.265 1_556 S
O8 C5 1.252 . S
O9 In0 2.326 . S
O9 C5 1.260 1_554 S
C10 O1 1.240 . S
C10 O2 1.252 . S
O11 In0 2.293 1_556 S
O11 C4 1.240 . S
O12 In0 2.326 . S
O12 C4 1.252 1_554 S
In13 O14 2.294 . S
In13 O15 2.326 . S
In13 O19 2.266 . S
In13 O20 2.326 . S
In13 O21 2.266 . S
In13 O22 2.326 . S
In13 O24 2.294 . S
In13 O25 2.326 . S
O14 In13 2.294 . S
O14 C23 1.240 . S
O15 In13 2.326 . S
O15 C23 1.252 . S
C16 O19 1.252 . S
C16 O20 1.260 . S
C17 O24 1.240 . S
C17 O25 1.252 . S
C18 O21 1.252 . S
C18 O22 1.260 . S
O19 In13 2.266 . S
O19 C16 1.252 . S
O20 In13 2.326 . S
O20 C16 1.260 . S
O21 In13 2.266 . S
O21 C18 1.252 . S
O22 In13 2.326 . S
O22 C18 1.260 . S
C23 O14 1.240 . S
C23 O15 1.252 . S
O24 In13 2.294 . S
O24 C17 1.240 . S
O25 In13 2.326 . S
O25 C17 1.252 . S
In26 O27 2.293 1_554 S
In26 O28 2.326 . S
In26 O32 2.265 1_554 S
In26 O33 2.326 . S
In26 O34 2.266 1_554 S
In26 O35 2.324 1_554 S
In26 O37 2.296 . S
In26 O38 2.328 . S
O27 In26 2.293 1_556 S
O27 C36 1.240 . S
O28 In26 2.326 . S
O28 C36 1.252 1_554 S
C29 O32 1.252 . S
C29 O33 1.260 1_556 S
C30 O37 1.240 . S
C30 O38 1.252 . S
C31 O34 1.252 . S
C31 O35 1.260 . S
O32 In26 2.265 1_556 S
O32 C29 1.252 . S
O33 In26 2.326 . S
O33 C29 1.260 1_554 S
O34 In26 2.266 1_556 S
O34 C31 1.252 . S
O35 In26 2.324 1_556 S
O35 C31 1.260 . S
C36 O27 1.240 . S
C36 O28 1.252 1_556 S
O37 In26 2.296 . S
O37 C30 1.240 . S
O38 In26 2.328 . S
O38 C30 1.252 . S
In39 O40 2.294 . S
In39 O41 2.326 . S
In39 O45 2.266 . S
In39 O46 2.326 . S
In39 O47 2.266 . S
In39 O48 2.326 . S
In39 O50 2.294 . S
In39 O51 2.326 . S
O40 In39 2.294 . S
O40 C49 1.240 . S
O41 In39 2.326 . S
O41 C49 1.252 . S
C42 O45 1.252 . S
C42 O46 1.260 . S
C43 O50 1.240 . S
C43 O51 1.252 . S
C44 O47 1.252 . S
C44 O48 1.260 . S
O45 In39 2.266 . S
O45 C42 1.252 . S
O46 In39 2.326 . S
O46 C42 1.260 . S
O47 In39 2.266 . S
O47 C44 1.252 . S
O48 In39 2.326 . S
O48 C44 1.260 . S
C49 O40 1.240 . S
C49 O41 1.252 . S
O50 In39 2.294 . S
O50 C43 1.240 . S
O51 In39 2.326 . S
O51 C43 1.252 . S
In52 O53 2.296 . S
In52 O54 2.328 . S
In52 O58 2.266 1_554 S
In52 O59 2.324 1_554 S
In52 O60 2.265 1_554 S
In52 O61 2.326 . S
In52 O63 2.293 1_554 S
In52 O64 2.326 . S
O53 In52 2.296 . S
O53 C62 1.240 . S
O54 In52 2.328 . S
O54 C62 1.252 . S
C55 O58 1.252 . S
C55 O59 1.260 . S
C56 O63 1.240 . S
C56 O64 1.252 1_556 S
C57 O60 1.252 . S
C57 O61 1.260 1_556 S
O58 In52 2.266 1_556 S
O58 C55 1.252 . S
O59 In52 2.324 1_556 S
O59 C55 1.260 . S
O60 In52 2.265 1_556 S
O60 C57 1.252 . S
O61 In52 2.326 . S
O61 C57 1.260 1_554 S
C62 O53 1.240 . S
C62 O54 1.252 . S
O63 In52 2.293 1_556 S
O63 C56 1.240 . S
O64 In52 2.326 . S
O64 C56 1.252 1_554 S
In65 O66 2.294 . S
In65 O67 2.326 . S
In65 O71 2.266 . S
In65 O72 2.326 . S
In65 O73 2.266 . S
In65 O74 2.326 . S
In65 O76 2.294 . S
In65 O77 2.326 . S
O66 In65 2.294 . S
O66 C75 1.240 . S
O67 In65 2.326 . S
O67 C75 1.252 . S
C68 O71 1.252 . S
C68 O72 1.260 . S
C69 O76 1.240 . S
C69 O77 1.252 . S
C70 O73 1.252 . S
C70 O74 1.260 . S
O71 In65 2.266 . S
O71 C68 1.252 . S
O72 In65 2.326 . S
O72 C68 1.260 . S
O73 In65 2.266 . S
O73 C70 1.252 . S
O74 In65 2.326 . S
O74 C70 1.260 . S
C75 O66 1.240 . S
C75 O67 1.252 . S
O76 In65 2.294 . S
O76 C69 1.240 . S
O77 In65 2.326 . S
O77 C69 1.252 . S
In78 O79 2.294 . S
In78 O80 2.326 . S
In78 O84 2.266 . S
In78 O85 2.326 . S
In78 O86 2.266 . S
In78 O87 2.326 . S
In78 O89 2.294 . S
In78 O90 2.326 . S
O79 In78 2.294 . S
O79 C88 1.240 . S
O80 In78 2.326 . S
O80 C88 1.252 . S
C81 O84 1.252 . S
C81 O85 1.260 . S
C82 O89 1.240 . S
C82 O90 1.252 . S
C83 O86 1.252 . S
C83 O87 1.260 . S
O84 In78 2.266 . S
O84 C81 1.252 . S
O85 In78 2.326 . S
O85 C81 1.260 . S
O86 In78 2.266 . S
O86 C83 1.252 . S
O87 In78 2.326 . S
O87 C83 1.260 . S
C88 O79 1.240 . S
C88 O80 1.252 . S
O89 In78 2.294 . S
O89 C82 1.240 . S
O90 In78 2.326 . S
O90 C82 1.252 . S
In91 O92 2.293 1_556 S
In91 O93 2.326 . S
In91 O97 2.265 1_556 S
In91 O98 2.326 . S
In91 O99 2.266 1_556 S
In91 O100 2.324 1_556 S
In91 O102 2.296 . S
In91 O103 2.328 . S
O92 In91 2.293 1_554 S
O92 C101 1.240 . S
O93 In91 2.326 . S
O93 C101 1.252 1_556 S
C94 O97 1.252 . S
C94 O98 1.260 1_554 S
C95 O102 1.240 . S
C95 O103 1.252 . S
C96 O99 1.252 . S
C96 O100 1.260 . S
O97 In91 2.265 1_554 S
O97 C94 1.252 . S
O98 In91 2.326 . S
O98 C94 1.260 1_556 S
O99 In91 2.266 1_554 S
O99 C96 1.252 . S
O100 In91 2.324 1_554 S
O100 C96 1.260 . S
C101 O92 1.240 . S
C101 O93 1.252 1_554 S
O102 In91 2.296 . S
O102 C95 1.240 . S
O103 In91 2.328 . S
O103 C95 1.252 . S
In104 O105 2.294 . S
In104 O106 2.326 . S
In104 O110 2.266 . S
In104 O111 2.326 . S
In104 O112 2.266 . S
In104 O113 2.326 . S
In104 O115 2.294 . S
In104 O116 2.326 . S
O105 In104 2.294 . S
O105 C114 1.240 . S
O106 In104 2.326 . S
O106 C114 1.252 . S
C107 O110 1.252 . S
C107 O111 1.260 . S
C108 O115 1.240 . S
C108 O116 1.252 . S
C109 O112 1.252 . S
C109 O113 1.260 . S
O110 In104 2.266 . S
O110 C107 1.252 . S
O111 In104 2.326 . S
O111 C107 1.260 . S
O112 In104 2.266 . S
O112 C109 1.252 . S
O113 In104 2.326 . S
O113 C109 1.260 . S
C114 O105 1.240 . S
C114 O106 1.252 . S
O115 In104 2.294 . S
O115 C108 1.240 . S
O116 In104 2.326 . S
O116 C108 1.252 . S
In117 O118 2.293 1_556 S
In117 O119 2.326 . S
In117 O123 2.265 1_556 S
In117 O124 2.326 . S
In117 O125 2.266 1_556 S
In117 O126 2.324 1_556 S
In117 O128 2.296 . S
In117 O129 2.328 . S
O118 In117 2.293 1_554 S
O118 C127 1.240 . S
O119 In117 2.326 . S
O119 C127 1.252 1_556 S
C120 O123 1.252 . S
C120 O124 1.260 1_554 S
C121 O128 1.240 . S
C121 O129 1.252 . S
C122 O125 1.252 . S
C122 O126 1.260 . S
O123 In117 2.265 1_554 S
O123 C120 1.252 . S
O124 In117 2.326 . S
O124 C120 1.260 1_556 S
O125 In117 2.266 1_554 S
O125 C122 1.252 . S
O126 In117 2.324 1_554 S
O126 C122 1.260 . S
C127 O118 1.240 . S
C127 O119 1.252 1_554 S
O128 In117 2.296 . S
O128 C121 1.240 . S
O129 In117 2.328 . S
O129 C121 1.252 . S
In130 O131 2.294 . S
In130 O132 2.326 . S
In130 O136 2.266 . S
In130 O137 2.326 . S
In130 O138 2.266 . S
In130 O139 2.326 . S
In130 O141 2.294 . S
In130 O142 2.326 . S
O131 In130 2.294 . S
O131 C140 1.240 . S
O132 In130 2.326 . S
O132 C140 1.252 . S
C133 O136 1.252 . S
C133 O137 1.260 . S
C134 O141 1.240 . S
C134 O142 1.252 . S
C135 O138 1.252 . S
C135 O139 1.260 . S
O136 In130 2.266 . S
O136 C133 1.252 . S
O137 In130 2.326 . S
O137 C133 1.260 . S
O138 In130 2.266 . S
O138 C135 1.252 . S
O139 In130 2.326 . S
O139 C135 1.260 . S
C140 O131 1.240 . S
C140 O132 1.252 . S
O141 In130 2.294 . S
O141 C134 1.240 . S
O142 In130 2.326 . S
O142 C134 1.252 . S
In143 O144 2.293 1_556 S
In143 O145 2.326 . S
In143 O149 2.265 1_556 S
In143 O150 2.326 . S
In143 O151 2.266 1_556 S
In143 O152 2.324 1_556 S
In143 O154 2.296 . S
In143 O155 2.328 . S
O144 In143 2.293 1_554 S
O144 C153 1.240 . S
O145 In143 2.326 . S
O145 C153 1.252 1_556 S
C146 O149 1.252 . S
C146 O150 1.260 1_554 S
C147 O154 1.240 . S
C147 O155 1.252 . S
C148 O151 1.252 . S
C148 O152 1.260 . S
O149 In143 2.265 1_554 S
O149 C146 1.252 . S
O150 In143 2.326 . S
O150 C146 1.260 1_556 S
O151 In143 2.266 1_554 S
O151 C148 1.252 . S
O152 In143 2.324 1_554 S
O152 C148 1.260 . S
C153 O144 1.240 . S
C153 O145 1.252 1_554 S
O154 In143 2.296 . S
O154 C147 1.240 . S
O155 In143 2.328 . S
O155 C147 1.252 . S
C156 C157 1.387 . S
C156 H160 0.950 . S
C156 C165 1.390 . S
C157 C156 1.387 . S
C157 C159 1.387 . S
H158 C165 0.950 . S
C159 C157 1.387 . S
C159 C161 1.390 . S
C159 H163 0.950 . S
H160 C156 0.950 . S
C161 C159 1.390 . S
C161 C162 1.387 . S
C161 H164 0.950 . S
C162 C161 1.387 . S
C162 C165 1.387 . S
H163 C159 0.950 . S
H164 C161 0.950 . S
C165 C156 1.390 . S
C165 H158 0.950 . S
C165 C162 1.387 . S
C166 C167 1.387 . S
C166 H170 0.950 . S
C166 C175 1.390 . S
C167 C166 1.387 . S
C167 C169 1.387 . S
H168 C175 0.950 . S
C169 C167 1.387 . S
C169 C171 1.390 . S
C169 H173 0.950 . S
H170 C166 0.950 . S
C171 C169 1.390 . S
C171 C172 1.387 . S
C171 H174 0.950 . S
C172 C171 1.387 . S
C172 C175 1.387 . S
H173 C169 0.950 . S
H174 C171 0.950 . S
C175 C166 1.390 . S
C175 H168 0.950 . S
C175 C172 1.387 . S
C176 C177 1.387 . S
C176 H180 0.950 . S
C176 C185 1.390 . S
C177 C176 1.387 . S
C177 C179 1.387 . S
H178 C185 0.950 . S
C179 C177 1.387 . S
C179 C181 1.390 . S
C179 H183 0.950 . S
H180 C176 0.950 . S
C181 C179 1.390 . S
C181 C182 1.387 . S
C181 H184 0.950 . S
C182 C181 1.387 . S
C182 C185 1.387 . S
H183 C179 0.950 . S
H184 C181 0.950 . S
C185 C176 1.390 . S
C185 H178 0.950 . S
C185 C182 1.387 . S
C186 C187 1.387 . S
C186 H190 0.950 . S
C186 C195 1.390 . S
C187 C186 1.387 . S
C187 C189 1.387 . S
H188 C195 0.950 . S
C189 C187 1.387 . S
C189 C191 1.390 . S
C189 H193 0.950 . S
H190 C186 0.950 . S
C191 C189 1.390 . S
C191 C192 1.387 . S
C191 H194 0.950 . S
C192 C191 1.387 . S
C192 C195 1.387 . S
H193 C189 0.950 . S
H194 C191 0.950 . S
C195 C186 1.390 . S
C195 H188 0.950 . S
C195 C192 1.387 . S
C196 C197 1.387 . S
C196 H200 0.950 . S
C196 C205 1.390 . S
C197 C196 1.387 . S
C197 C199 1.387 . S
H198 C205 0.950 . S
C199 C197 1.387 . S
C199 C201 1.390 . S
C199 H203 0.950 . S
H200 C196 0.950 . S
C201 C199 1.390 . S
C201 C202 1.387 . S
C201 H204 0.950 . S
C202 C201 1.387 . S
C202 C205 1.387 . S
H203 C199 0.950 . S
H204 C201 0.950 . S
C205 C196 1.390 . S
C205 H198 0.950 . S
C205 C202 1.387 . S
C206 C207 1.387 . S
C206 H210 0.950 . S
C206 C215 1.390 . S
C207 C206 1.387 . S
C207 C209 1.387 . S
H208 C215 0.950 . S
C209 C207 1.387 . S
C209 C211 1.390 . S
C209 H213 0.950 . S
H210 C206 0.950 . S
C211 C209 1.390 . S
C211 C212 1.387 . S
C211 H214 0.950 . S
C212 C211 1.387 . S
C212 C215 1.387 . S
H213 C209 0.950 . S
H214 C211 0.950 . S
C215 C206 1.390 . S
C215 H208 0.950 . S
C215 C212 1.387 . S
C216 C217 1.387 1_554 S
C216 H220 0.950 . S
C216 C225 1.390 1_545 S
C217 C216 1.387 1_556 S
C217 C219 1.387 . S
H218 C225 0.950 . S
C219 C217 1.387 . S
C219 C221 1.390 1_545 S
C219 H223 0.950 . S
H220 C216 0.950 . S
C221 C219 1.390 1_565 S
C221 C222 1.387 1_556 S
C221 H224 0.950 . S
C222 C221 1.387 1_554 S
C222 C225 1.387 . S
H223 C219 0.950 . S
H224 C221 0.950 . S
C225 C216 1.390 1_565 S
C225 H218 0.950 . S
C225 C222 1.387 . S
C226 C227 1.387 . S
C226 H230 0.950 . S
C226 C235 1.390 . S
C227 C226 1.387 . S
C227 C229 1.387 . S
H228 C235 0.950 . S
C229 C227 1.387 . S
C229 C231 1.390 . S
C229 H233 0.950 . S
H230 C226 0.950 . S
C231 C229 1.390 . S
C231 C232 1.387 . S
C231 H234 0.950 . S
C232 C231 1.387 . S
C232 C235 1.387 . S
H233 C229 0.950 . S
H234 C231 0.950 . S
C235 C226 1.390 . S
C235 H228 0.950 . S
C235 C232 1.387 . S
C236 C237 1.387 1_556 S
C236 H240 0.950 . S
C236 C245 1.390 1_455 S
C237 C236 1.387 1_554 S
C237 C239 1.387 . S
H238 C245 0.950 . S
C239 C237 1.387 . S
C239 C241 1.390 1_455 S
C239 H243 0.950 . S
H240 C236 0.950 . S
C241 C239 1.390 1_655 S
C241 C242 1.387 1_554 S
C241 H244 0.950 . S
C242 C241 1.387 1_556 S
C242 C245 1.387 . S
H243 C239 0.950 . S
H244 C241 0.950 . S
C245 C236 1.390 1_655 S
C245 H238 0.950 . S
C245 C242 1.387 . S
C246 C247 1.387 . S
C246 H250 0.950 . S
C246 C255 1.390 1_545 S
C247 C246 1.387 . S
C247 C249 1.387 . S
H248 C255 0.950 . S
C249 C247 1.387 . S
C249 C251 1.390 1_545 S
C249 H253 0.950 . S
H250 C246 0.950 . S
C251 C249 1.390 1_565 S
C251 C252 1.387 . S
C251 H254 0.950 . S
C252 C251 1.387 . S
C252 C255 1.387 . S
H253 C249 0.950 . S
H254 C251 0.950 . S
C255 C246 1.390 1_565 S
C255 H248 0.950 . S
C255 C252 1.387 . S
C256 C257 1.387 1_556 S
C256 H260 0.950 . S
C256 C265 1.390 . S
C257 C256 1.387 1_554 S
C257 C259 1.387 . S
H258 C265 0.950 . S
C259 C257 1.387 . S
C259 C261 1.390 . S
C259 H263 0.950 . S
H260 C256 0.950 . S
C261 C259 1.390 . S
C261 C262 1.387 1_554 S
C261 H264 0.950 . S
C262 C261 1.387 1_556 S
C262 C265 1.387 . S
H263 C259 0.950 . S
H264 C261 0.950 . S
C265 C256 1.390 . S
C265 H258 0.950 . S
C265 C262 1.387 . S
C266 C267 1.387 . S
C266 H270 0.950 . S
C266 C275 1.390 1_655 S
C267 C266 1.387 . S
C267 C269 1.387 . S
H268 C275 0.950 . S
C269 C267 1.387 . S
C269 C271 1.390 1_655 S
C269 H273 0.950 . S
H270 C266 0.950 . S
C271 C269 1.390 1_455 S
C271 C272 1.387 . S
C271 H274 0.950 . S
C272 C271 1.387 . S
C272 C275 1.387 . S
H273 C269 0.950 . S
H274 C271 0.950 . S
C275 C266 1.390 1_455 S
C275 H268 0.950 . S
C275 C272 1.387 . S
C276 C277 1.387 . S
C276 H280 0.950 . S
C276 C285 1.390 . S
C277 C276 1.387 . S
C277 C279 1.387 1_556 S
H278 C285 0.950 . S
C279 C277 1.387 1_554 S
C279 C281 1.390 1_554 S
C279 H283 0.950 . S
H280 C276 0.950 . S
C281 C279 1.390 1_556 S
C281 C282 1.387 . S
C281 H284 0.950 1_556 S
C282 C281 1.387 . S
C282 C285 1.387 . S
H283 C279 0.950 . S
H284 C281 0.950 1_554 S
C285 C276 1.390 . S
C285 H278 0.950 . S
C285 C282 1.387 . S
C286 C287 1.387 . S
C286 H290 0.950 . S
C286 C295 1.390 . S
C287 C286 1.387 . S
C287 C289 1.387 . S
H288 C295 0.950 . S
C289 C287 1.387 . S
C289 C291 1.390 . S
C289 H293 0.950 . S
H290 C286 0.950 . S
C291 C289 1.390 . S
C291 C292 1.387 . S
C291 H294 0.950 . S
C292 C291 1.387 . S
C292 C295 1.387 . S
H293 C289 0.950 . S
H294 C291 0.950 . S
C295 C286 1.390 . S
C295 H288 0.950 . S
C295 C292 1.387 . S
C296 C297 1.387 . S
C296 H300 0.950 . S
C296 C305 1.390 . S
C297 C296 1.387 . S
C297 C299 1.388 . S
H298 C305 0.950 . S
C299 C297 1.388 . S
C299 C301 1.390 . S
C299 H303 0.949 1_556 S
H300 C296 0.950 . S
C301 C299 1.390 . S
C301 C302 1.387 . S
C301 H304 0.950 1_556 S
C302 C301 1.387 . S
C302 C305 1.387 . S
H303 C299 0.949 1_554 S
H304 C301 0.950 1_554 S
C305 C296 1.390 . S
C305 H298 0.950 . S
C305 C302 1.387 . S
C306 C307 1.387 . S
C306 H310 0.950 . S
C306 C315 1.390 . S
C307 C306 1.387 . S
C307 C309 1.387 . S
H308 C315 0.950 . S
C309 C307 1.387 . S
C309 C311 1.390 . S
C309 H313 0.950 . S
H310 C306 0.950 . S
C311 C309 1.390 . S
C311 C312 1.387 . S
C311 H314 0.950 . S
C312 C311 1.387 . S
C312 C315 1.387 . S
H313 C309 0.950 . S
H314 C311 0.950 . S
C315 C306 1.390 . S
C315 H308 0.950 . S
C315 C312 1.387 . S
C316 C317 1.387 . S
C316 H320 0.940 1_556 S
C316 C325 1.390 . S
C317 C316 1.387 . S
C317 C319 1.387 . S
H318 C325 0.950 . S
C319 C317 1.387 . S
C319 C321 1.390 . S
C319 H323 0.950 . S
H320 C316 0.940 1_554 S
C321 C319 1.390 . S
C321 C322 1.387 . S
C321 H324 0.950 . S
C322 C321 1.387 . S
C322 C325 1.387 . S
H323 C319 0.950 . S
H324 C321 0.950 . S
C325 C316 1.390 . S
C325 H318 0.950 . S
C325 C322 1.387 . S
C326 C327 1.387 . S
C326 H330 0.950 . S
C326 C335 1.390 . S
C327 C326 1.387 . S
C327 C329 1.387 . S
H328 C335 0.950 . S
C329 C327 1.387 . S
C329 C331 1.390 . S
C329 H333 0.950 . S
H330 C326 0.950 . S
C331 C329 1.390 . S
C331 C332 1.387 . S
C331 H334 0.950 . S
C332 C331 1.387 . S
C332 C335 1.387 . S
H333 C329 0.950 . S
H334 C331 0.950 . S
C335 C326 1.390 . S
C335 H328 0.950 . S
C335 C332 1.387 . S
C336 C337 1.387 . S
C336 H340 0.950 . S
C336 C345 1.390 . S
C337 C336 1.387 . S
C337 C339 1.387 . S
H338 C345 0.950 . S
C339 C337 1.387 . S
C339 C341 1.390 . S
C339 H343 0.950 . S
H340 C336 0.950 . S
C341 C339 1.390 . S
C341 C342 1.387 . S
C341 H344 0.950 . S
C342 C341 1.387 . S
C342 C345 1.387 . S
H343 C339 0.950 . S
H344 C341 0.950 . S
C345 C336 1.390 . S
C345 H338 0.950 . S
C345 C342 1.387 . S
C346 C347 1.387 1_556 S
C346 H350 0.950 . S
C346 C355 1.390 1_556 S
C347 C346 1.387 1_554 S
C347 C349 1.387 . S
H348 C355 0.950 1_556 S
C349 C347 1.387 . S
C349 C351 1.390 . S
C349 H353 0.950 . S
H350 C346 0.950 . S
C351 C349 1.390 . S
C351 C352 1.387 . S
C351 H354 0.950 . S
C352 C351 1.387 . S
C352 C355 1.387 . S
H353 C349 0.950 . S
H354 C351 0.950 . S
C355 C346 1.390 1_554 S
C355 H348 0.950 1_554 S
C355 C352 1.387 . S
C356 C357 1.387 . S
C356 H360 0.950 . S
C356 C365 1.390 . S
C357 C356 1.387 . S
C357 C359 1.387 . S
H358 C365 0.950 . S
C359 C357 1.387 . S
C359 C361 1.390 . S
C359 H363 0.950 . S
H360 C356 0.950 . S
C361 C359 1.390 . S
C361 C362 1.387 . S
C361 H364 0.950 . S
C362 C361 1.387 . S
C362 C365 1.387 . S
H363 C359 0.950 . S
H364 C361 0.950 . S
C365 C356 1.390 . S
C365 H358 0.950 . S
C365 C362 1.387 . S
C366 C367 1.387 . S
C366 H370 0.950 1_554 S
C366 C375 1.390 . S
C367 C366 1.387 . S
C367 C369 1.387 . S
H368 C375 0.950 . S
C369 C367 1.387 . S
C369 C371 1.390 . S
C369 H373 0.950 . S
H370 C366 0.950 1_556 S
C371 C369 1.390 . S
C371 C372 1.387 . S
C371 H374 0.950 . S
C372 C371 1.387 . S
C372 C375 1.387 . S
H373 C369 0.950 . S
H374 C371 0.950 . S
C375 C366 1.390 . S
C375 H368 0.950 . S
C375 C372 1.387 . S
C376 C377 1.387 . S
C376 H380 0.950 . S
C376 C385 1.390 . S
C377 C376 1.387 . S
C377 C379 1.387 . S
H378 C385 0.950 . S
C379 C377 1.387 . S
C379 C381 1.390 . S
C379 H383 0.950 . S
H380 C376 0.950 . S
C381 C379 1.390 . S
C381 C382 1.387 . S
C381 H384 0.950 . S
C382 C381 1.387 . S
C382 C385 1.387 . S
H383 C379 0.950 . S
H384 C381 0.950 . S
C385 C376 1.390 . S
C385 H378 0.950 . S
C385 C382 1.387 . S
C386 C387 1.387 . S
C386 H390 0.950 . S
C386 C395 1.390 . S
C387 C386 1.387 . S
C387 C389 1.387 1_554 S
H388 C395 0.950 . S
C389 C387 1.387 1_556 S
C389 C391 1.390 1_556 S
C389 H393 0.950 . S
H390 C386 0.950 . S
C391 C389 1.390 1_554 S
C391 C392 1.387 . S
C391 H394 0.950 1_554 S
C392 C391 1.387 . S
C392 C395 1.387 . S
H393 C389 0.950 . S
H394 C391 0.950 1_556 S
C395 C386 1.390 . S
C395 H388 0.950 . S
C395 C392 1.387 . S
C157 C140 1.693 . S
C162 C10 1.688 . S
C167 C23 1.691 . S
C172 C147 1.686 . S
C177 C30 1.690 . S
C182 C82 1.689 . S
C187 C95 1.689 . S
C192 C43 1.688 . S
C197 C108 1.691 . S
C202 C62 1.686 . S
C207 C69 1.692 . S
C212 C121 1.686 . S
C217 C4 1.265 . S
C222 C101 1.263 . S
C227 C17 1.307 . S
C232 C114 1.307 . S
C237 C127 1.268 . S
C242 C36 1.266 . S
C247 C134 1.310 . S
C252 C49 1.312 . S
C257 C153 1.269 . S
C262 C56 1.268 . S
C267 C88 1.311 . S
C272 C75 1.309 . S
C277 C5 1.419 . S
C282 C55 1.301 . S
C287 C18 1.455 . S
C292 C70 1.333 . S
C297 C29 1.421 . S
C302 C3 1.301 . S
C307 C42 1.451 . S
C312 C16 1.330 . S
C317 C57 1.424 . S
C322 C31 1.298 . S
C327 C68 1.452 . S
C332 C44 1.331 . S
C337 C81 1.451 . S
C342 C109 1.327 . S
C347 C94 1.422 . S
C352 C122 1.300 . S
C357 C133 1.332 . S
C362 C107 1.455 . S
C367 C120 1.419 . S
C372 C148 1.297 . S
C377 C135 1.452 . S
C382 C83 1.331 . S
C387 C146 1.423 . S
C392 C96 1.303 . S
