# Generated by pormake.
# Topology snp, (6)-cn, num edge types: 1
# Building blocks:
#     Node 0, Type 0, BuildingBlock: VOLQOD_clean_sbu_1, # of connection points: 6
#     Node 1, Type 0, BuildingBlock: VOLQOD_clean_sbu_1, # of connection points: 6
#     Node 2, Type 0, BuildingBlock: VOLQOD_clean_sbu_1, # of connection points: 6
#     Node 3, Type 0, BuildingBlock: VOLQOD_clean_sbu_1, # of connection points: 6
#     Edge 4, Type (0, 0), BuildingBlock: TEMPAE_clean_linker_10, # of connection points: 2
#     Edge 5, Type (0, 0), BuildingBlock: TEMPAE_clean_linker_10, # of connection points: 2
#     Edge 6, Type (0, 0), BuildingBlock: TEMPAE_clean_linker_10, # of connection points: 2
#     Edge 7, Type (0, 0), BuildingBlock: TEMPAE_clean_linker_10, # of connection points: 2
#     Edge 8, Type (0, 0), BuildingBlock: TEMPAE_clean_linker_10, # of connection points: 2
#     Edge 9, Type (0, 0), BuildingBlock: TEMPAE_clean_linker_10, # of connection points: 2
#     Edge 10, Type (0, 0), BuildingBlock: TEMPAE_clean_linker_10, # of connection points: 2
#     Edge 11, Type (0, 0), BuildingBlock: TEMPAE_clean_linker_10, # of connection points: 2
#     Edge 12, Type (0, 0), BuildingBlock: TEMPAE_clean_linker_10, # of connection points: 2
#     Edge 13, Type (0, 0), BuildingBlock: TEMPAE_clean_linker_10, # of connection points: 2
#     Edge 14, Type (0, 0), BuildingBlock: TEMPAE_clean_linker_10, # of connection points: 2
#     Edge 15, Type (0, 0), BuildingBlock: TEMPAE_clean_linker_10, # of connection points: 2
# Relax obj value: 0.790
# Max RMSD: 0.301
# Mean RMSD: 0.301
data_MOF--net-snp--node1-VOLQOD_clean_sbu_1--edge1-TEMPAE_clean_linker_10
_symmetry_space_group_name_H-M    P1
_symmetry_Int_Tables_number       1
_symmetry_cell_setting            triclinic
loop_
_symmetry_equiv_pos_as_xyz
'x, y, z'
_cell_length_a     29.468891
_cell_length_b     29.499372
_cell_length_c     25.019005
_cell_angle_alpha  90.161304
_cell_angle_beta   89.461278
_cell_angle_gamma 101.62473
loop_
_atom_site_label
_atom_site_type_symbol
_atom_site_fract_x
_atom_site_fract_y
_atom_site_fract_z
_atom_type_partial_charge
O0 O 0.15569 0.11078 0.98404 0.0
Zn1 Zn 0.1924 0.0635 0.9645 0.0
O2 O 0.25705 0.09003 0.97775 0.0
Zn3 Zn 0.2924 0.07862 0.91613 0.0
Zn4 Zn 0.26778 0.1565 0.98987 0.0
Zn5 Zn 0.27592 0.06441 0.0428 0.0
O6 O 0.34049 0.04482 0.93869 0.0
O7 O 0.33151 0.03655 0.02714 0.0
O8 O 0.18087 0.04233 0.88849 0.0
O9 O 0.25213 0.04239 0.85914 0.0
O10 O 0.32268 0.13803 0.88086 0.0
O11 O 0.29655 0.19234 0.92622 0.0
O12 O 0.30602 0.17766 0.05422 0.0
O13 O 0.16808 0.00875 0.01363 0.0
O14 O 0.28593 0.11323 0.10079 0.0
O15 O 0.22558 0.01478 0.07161 0.0
C16 C 0.16578 0.15079 0.00527 0.0
C17 C 0.3522 0.03052 0.98344 0.0
C18 C 0.31943 0.1801 0.88721 0.0
C19 C 0.20843 0.03333 0.85229 0.0
C20 C 0.29943 0.15703 0.09898 0.0
C21 C 0.18531 -0.00428 0.05606 0.0
O22 O 0.20741 0.1723 0.01053 0.0
O23 O 0.08221 0.1337 0.49273 0.0
Zn24 Zn 0.03968 0.17623 0.51379 0.0
O25 O 0.07267 0.23899 0.50761 0.0
Zn26 Zn 0.06998 0.26986 0.57421 0.0
Zn27 Zn 0.13611 0.24052 0.48878 0.0
Zn28 Zn 0.05169 0.26903 0.44727 0.0
O29 O 0.05932 0.33342 0.5591 0.0
O30 O 0.0444 0.33131 0.47146 0.0
O31 O 0.01242 0.16273 0.58811 0.0
O32 O 0.01961 0.23356 0.62218 0.0
O33 O 0.13066 0.27423 0.61197 0.0
O34 O 0.17684 0.24932 0.55244 0.0
O35 O 0.16045 0.29124 0.43791 0.0
O36 O 0.98563 0.16546 0.46215 0.0
O37 O 0.0994 0.27458 0.38633 0.0
O38 O -0.00965 0.23343 0.42182 0.0
C39 C 0.11387 0.14153 0.45688 0.0
C40 C 0.04898 0.35223 0.5163 0.0
C41 C 0.16955 0.26476 0.59856 0.0
C42 C 0.00348 0.19006 0.62458 0.0
C43 C 0.14306 0.28821 0.39155 0.0
C44 C 0.96958 0.19183 0.43016 0.0
O45 O 0.13656 0.18225 0.4479 0.0
O46 O 0.86412 0.03574 0.10072 0.0
Zn47 Zn 0.80656 0.03048 0.05947 0.0
O48 O 0.78027 0.96642 0.0516 0.0
Zn49 Zn 0.75379 0.95675 0.98209 0.0
Zn50 Zn 0.82664 0.92973 0.05958 0.0
Zn51 Zn 0.73482 0.95356 0.10738 0.0
O52 O 0.68472 0.95093 0.98755 0.0
O53 O 0.67348 0.95265 0.07588 0.0
O54 O 0.82388 0.06037 0.98796 0.0
O55 O 0.78344 0.00914 0.9324 0.0
O56 O 0.7701 0.90007 0.94992 0.0
O57 O 0.83846 0.90165 0.988 0.0
O58 O 0.80211 0.87775 0.10958 0.0
O59 O 0.76718 0.06303 0.1052 0.0
O60 O 0.7354 0.89187 0.14119 0.0
O61 O 0.74835 0.00501 0.16216 0.0
C62 C 0.89188 0.00908 0.11056 0.0
C63 C 0.65835 0.95068 0.0283 0.0
C64 C 0.80894 0.88743 0.95149 0.0
C65 C 0.81187 0.0472 0.94071 0.0
C66 C 0.76557 0.86653 0.13811 0.0
C67 C 0.75762 0.04838 0.15266 0.0
O68 O 0.88449 0.9675 0.09336 0.0
O69 O 0.97801 0.87273 0.40452 0.0
Zn70 Zn 0.00766 0.82701 0.44001 0.0
O71 O 0.95831 0.77991 0.46581 0.0
Zn72 Zn 0.97571 0.7601 0.53358 0.0
Zn73 Zn 0.90147 0.80203 0.47434 0.0
Zn74 Zn 0.95229 0.73286 0.41171 0.0
O75 O -0.0087 0.69826 0.52605 0.0
O76 O 0.9813 0.68156 0.43924 0.0
O77 O 0.04801 0.85845 0.49959 0.0
O78 O 0.0298 0.80547 0.56311 0.0
O79 O 0.92554 0.75905 0.58811 0.0
O80 O 0.88709 0.80898 0.5526 0.0
O81 O 0.84992 0.75566 0.44255 0.0
O82 O 0.04513 0.80494 0.38169 0.0
O83 O 0.88476 0.70825 0.39578 0.0
O84 O 0.98449 0.76078 0.34352 0.0
C85 C 0.93831 0.88336 0.4045 0.0
C86 C -0.00656 0.67202 0.48604 0.0
C87 C 0.89646 0.78549 0.59228 0.0
C88 C 0.05341 0.84391 0.54653 0.0
C89 C 0.84796 0.72091 0.41165 0.0
C90 C 0.02493 0.78608 0.34017 0.0
O91 O 0.905 0.86207 0.43347 0.0
C92 C 0.97627 0.01323 0.1219 0.0
C93 C 0.93652 0.03021 0.13472 0.0
C94 C 0.01986 0.04273 0.1238 0.0
C95 C 0.02274 0.08969 0.13864 0.0
C96 C 0.98434 0.10321 0.16319 0.0
C97 C 0.94111 0.07327 0.16047 0.0
C98 C 0.06119 0.02575 0.1014 0.0
C99 C 0.98717 0.15141 0.18477 0.0
C100 C 0.1395 0.15704 0.0967 0.0
C101 C 0.13089 0.16165 0.04215 0.0
C102 C 0.10348 0.1375 0.13166 0.0
C103 C 0.05807 0.12505 0.11146 0.0
C104 C 0.04853 0.13836 0.05882 0.0
C105 C 0.08544 0.15612 0.02444 0.0
C106 C 0.11492 0.12621 0.18817 0.0
C107 C 0.00018 0.12772 0.03612 0.0
H108 H 0.97304 0.97916 0.10416 0.0
H109 H 0.91048 0.08574 0.17302 0.0
H110 H 0.09249 0.03886 0.12549 0.0
H111 H 0.05511 0.98734 0.1004 0.0
H112 H 0.06835 0.03882 0.05997 0.0
H113 H 0.96593 0.15014 0.22181 0.0
H114 H 0.02334 0.16871 0.19381 0.0
H115 H 0.97293 0.1725 0.15502 0.0
H116 H 0.17502 0.16178 0.11026 0.0
H117 H 0.07913 0.15998 0.9822 0.0
H118 H 0.1526 0.1277 0.19322 0.0
H119 H 0.09604 0.09137 0.20051 0.0
H120 H 0.10443 0.15187 0.21569 0.0
H121 H 0.98826 0.08972 0.03202 0.0
H122 H -0.00138 0.14367 0.99621 0.0
H123 H 0.97565 0.14067 0.06321 0.0
C124 C 0.93621 0.96455 0.41268 0.0
C125 C 0.93613 0.92712 0.37854 0.0
C126 C 0.96776 0.00609 0.40371 0.0
C127 C -0.00281 0.01011 0.35786 0.0
C128 C 0.98767 0.97668 0.31684 0.0
C129 C 0.95688 0.93493 0.32783 0.0
C130 C 0.97504 0.04108 0.44862 0.0
C131 C 0.01458 0.98111 0.26499 0.0
C132 C 0.08449 0.12024 0.36806 0.0
C133 C 0.10793 0.10838 0.41283 0.0
C134 C 0.05067 0.08687 0.34322 0.0
C135 C 0.04351 0.04068 0.36143 0.0
C136 C 0.07569 0.02741 0.39707 0.0
C137 C 0.10667 0.06185 0.42409 0.0
C138 C 0.01993 0.10262 0.30234 0.0
C139 C 0.07236 0.97757 0.41325 0.0
H140 H 0.91899 0.95873 0.45132 0.0
H141 H 0.95527 0.90607 0.30046 0.0
H142 H -0.00368 0.07491 0.43657 0.0
H143 H 0.94108 0.04654 0.46408 0.0
H144 H -0.00726 0.02733 0.48209 0.0
H145 H 0.03771 0.9558 0.2647 0.0
H146 H -0.00971 0.97217 0.23116 0.0
H147 H 0.03564 0.01627 0.25828 0.0
H148 H 0.08654 0.15647 0.35848 0.0
H149 H 0.12553 0.0527 0.45811 0.0
H150 H 0.98807 0.07667 0.29388 0.0
H151 H 0.03966 0.10959 0.2645 0.0
H152 H 0.01036 0.13561 0.31493 0.0
H153 H 0.04541 0.9683 0.44484 0.0
H154 H 0.10571 0.97186 0.42956 0.0
H155 H 0.06256 0.95405 0.3787 0.0
C156 C 0.58314 0.92612 0.9817 0.0
C157 C 0.60981 0.95282 0.02081 0.0
C158 C 0.53698 0.9298 0.97397 0.0
C159 C 0.51853 0.96241 0.00449 0.0
C160 C 0.54541 0.98893 0.04449 0.0
C161 C 0.59056 0.98312 0.05278 0.0
C162 C 0.50847 0.89978 0.9325 0.0
C163 C 0.5274 0.0251 0.07676 0.0
C164 C 0.42973 0.02437 0.94998 0.0
C165 C 0.39234 0.00845 0.9845 0.0
C166 C 0.47046 0.00736 0.95376 0.0
C167 C 0.47295 0.97265 0.99188 0.0
C168 C 0.43386 0.95373 0.02376 0.0
C169 C 0.39407 0.97264 0.02048 0.0
C170 C 0.51191 0.02931 0.92014 0.0
C171 C 0.43494 0.91537 0.06323 0.0
H172 H 0.59828 0.90233 0.95753 0.0
H173 H 0.61162 0.00386 0.08281 0.0
H174 H 0.4732 0.88538 0.9483 0.0
H175 H 0.50454 0.92089 0.89689 0.0
H176 H 0.52486 0.87074 0.91955 0.0
H177 H 0.553 0.04267 0.10629 0.0
H178 H 0.51861 0.05171 0.04962 0.0
H179 H 0.49526 0.00907 0.09854 0.0
H180 H 0.4281 0.05205 0.92208 0.0
H181 H 0.36455 0.95981 0.04633 0.0
H182 H 0.52701 0.00242 0.89955 0.0
H183 H 0.5391 0.04911 0.94636 0.0
H184 H 0.503 0.05327 0.88958 0.0
H185 H 0.45211 0.88867 0.04529 0.0
H186 H 0.39958 0.89859 0.0769 0.0
H187 H 0.45525 0.92964 0.09872 0.0
C188 C 0.07511 0.43401 0.54324 0.0
C189 C 0.04252 0.39984 0.51802 0.0
C190 C 0.07127 0.48046 0.54072 0.0
C191 C 0.03311 0.49205 0.51395 0.0
C192 C -0.00076 0.45721 0.49016 0.0
C193 C 0.00487 0.41141 0.49167 0.0
C194 C 0.10859 0.51713 0.56506 0.0
C195 C 0.95732 0.46831 0.46271 0.0
C196 C -0.00533 0.60384 0.54262 0.0
C197 C 0.00775 0.6281 0.4951 0.0
C198 C 0.00414 0.55982 0.55022 0.0
C199 C 0.02843 0.54064 0.5099 0.0
C200 C 0.04412 0.56621 0.46319 0.0
C201 C 0.0328 0.60956 0.45587 0.0
C202 C 0.98576 0.53284 0.59978 0.0
C203 C 0.07132 0.54709 0.42018 0.0
H204 H 0.10446 0.42458 0.56303 0.0
H205 H 0.97973 0.3845 0.47249 0.0
H206 H 0.12543 0.54121 0.53341 0.0
H207 H 0.09325 0.53795 0.59458 0.0
H208 H 0.13558 0.5021 0.58521 0.0
H209 H 0.93281 0.43668 0.44942 0.0
H210 H 0.93866 0.48805 0.49012 0.0
H211 H 0.96841 0.4904 0.42727 0.0
H212 H 0.97505 0.61836 0.57276 0.0
H213 H 0.04332 0.62886 0.41948 0.0
H214 H 0.01372 0.5193 0.61973 0.0
H215 H 0.95865 0.50259 0.58836 0.0
H216 H 0.9705 0.55412 0.62895 0.0
H217 H 0.10008 0.5333 0.43808 0.0
H218 H 0.08597 0.57367 0.38993 0.0
H219 H 0.04847 0.51798 0.39948 0.0
C220 C 0.15686 0.27596 0.29405 0.0
C221 C 0.17466 0.28742 0.34516 0.0
C222 C 0.18487 0.26302 0.25334 0.0
C223 C 0.23164 0.26126 0.26422 0.0
C224 C 0.25097 0.27752 0.31384 0.0
C225 C 0.22232 0.29059 0.35366 0.0
C226 C 0.16376 0.24943 0.19947 0.0
C227 C 0.30105 0.27787 0.32638 0.0
C228 C 0.27207 0.1628 0.19313 0.0
C229 C 0.29379 0.18486 0.1473 0.0
C230 C 0.25369 0.18781 0.23276 0.0
C231 C 0.25783 0.23626 0.22701 0.0
C232 C 0.28337 0.25934 0.18346 0.0
C233 C 0.30099 0.23337 0.14404 0.0
C234 C 0.22687 0.16183 0.27886 0.0
C235 C 0.28934 0.31097 0.17628 0.0
H236 H 0.12041 0.27451 0.28665 0.0
H237 H 0.23683 0.30027 0.39269 0.0
H238 H 0.17672 0.27746 0.1704 0.0
H239 H 0.17414 0.21769 0.18439 0.0
H240 H 0.12532 0.24361 0.20064 0.0
H241 H 0.3128 0.29903 0.36233 0.0
H242 H 0.30541 0.24195 0.33386 0.0
H243 H 0.32381 0.29151 0.29206 0.0
H244 H 0.26638 0.12543 0.19631 0.0
H245 H 0.31789 0.25093 0.109 0.0
H246 H 0.1904 0.16643 0.27822 0.0
H247 H 0.24189 0.17601 0.31736 0.0
H248 H 0.22689 0.12419 0.27758 0.0
H249 H 0.25719 0.31883 0.15919 0.0
H250 H 0.31853 0.32477 0.14861 0.0
H251 H 0.29547 0.32935 0.2151 0.0
C252 C 0.94639 0.19784 0.6972 0.0
C253 C 0.97354 0.17083 0.67043 0.0
C254 C 0.91734 0.17975 0.74022 0.0
C255 C 0.91645 0.134 0.75792 0.0
C256 C 0.94416 0.10672 0.7313 0.0
C257 C 0.97182 0.12523 0.68741 0.0
C258 C 0.88758 0.20957 0.76672 0.0
C259 C 0.94518 0.05821 0.74969 0.0
C260 C 0.87987 0.10182 0.90131 0.0
C261 C 0.83589 0.07355 0.89456 0.0
C262 C 0.90612 0.12221 0.8573 0.0
C263 C 0.88764 0.11501 0.80522 0.0
C264 C 0.84243 0.0882 0.79833 0.0
C265 C 0.81733 0.0673 0.84299 0.0
C266 C 0.95454 0.14961 0.86639 0.0
C267 C 0.82099 0.08072 0.74364 0.0
H268 H 0.94725 0.23295 0.68391 0.0
H269 H -0.00706 0.1043 0.66706 0.0
H270 H 0.85072 0.19145 0.76652 0.0
H271 H 0.89773 0.21575 0.80911 0.0
H272 H 0.89057 0.24357 0.74657 0.0
H273 H 0.96933 0.04191 0.72541 0.0
H274 H 0.95594 0.05882 0.79213 0.0
H275 H 0.91001 0.03616 0.74737 0.0
H276 H 0.89482 0.10638 0.94088 0.0
H277 H 0.78337 0.04557 0.83745 0.0
H278 H 0.95955 0.18373 0.84628 0.0
H279 H 0.98006 0.13074 0.84873 0.0
H280 H 0.96227 0.15539 0.90951 0.0
H281 H 0.82322 0.11439 0.72307 0.0
H282 H 0.78409 0.06266 0.74558 0.0
H283 H 0.8404 0.05972 0.71883 0.0
C284 C 0.80505 0.67862 0.33527 0.0
C285 C 0.80427 0.70441 0.38241 0.0
C286 C 0.77876 0.68714 0.2913 0.0
C287 C 0.7533 0.72281 0.29531 0.0
C288 C 0.74242 0.73813 0.34654 0.0
C289 C 0.76777 0.72787 0.39038 0.0
C290 C 0.78573 0.66524 0.23821 0.0
C291 C 0.71141 0.77265 0.35345 0.0
C292 C 0.80091 0.82247 0.20316 0.0
C293 C 0.7619 0.82683 0.17408 0.0
C294 C 0.79847 0.78827 0.24201 0.0
C295 C 0.75616 0.75586 0.25018 0.0
C296 C 0.71716 0.75856 0.21848 0.0
C297 C 0.72018 0.79498 0.18162 0.0
C298 C 0.84103 0.78868 0.27565 0.0
C299 C 0.67197 0.72411 0.22337 0.0
H300 H 0.83098 0.65761 0.32973 0.0
H301 H 0.76447 0.74507 0.42816 0.0
H302 H 0.75491 0.66348 0.21246 0.0
H303 H 0.81615 0.68635 0.21735 0.0
H304 H 0.79253 0.62986 0.24376 0.0
H305 H 0.70184 0.77648 0.39604 0.0
H306 H 0.72956 0.80697 0.33837 0.0
H307 H 0.67929 0.76182 0.33006 0.0
H308 H 0.833 0.84751 0.19734 0.0
H309 H 0.69008 0.79832 0.1585 0.0
H310 H 0.85428 0.75653 0.26884 0.0
H311 H 0.83233 0.79068 0.31868 0.0
H312 H 0.86961 0.81844 0.26621 0.0
H313 H 0.65906 0.71267 0.18297 0.0
H314 H 0.64559 0.74121 0.24225 0.0
H315 H 0.67483 0.69313 0.24713 0.0
C316 C 0.09823 0.9215 0.57553 0.0
C317 C 0.08402 0.8738 0.58475 0.0
C318 C 0.12162 0.95097 0.6151 0.0
C319 C 0.13126 0.93215 0.66477 0.0
C320 C 0.11895 0.88379 0.67322 0.0
C321 C 0.09542 0.85528 0.63323 0.0
C322 C 0.13407 0.00238 0.60464 0.0
C323 C 0.12894 0.86227 0.72543 0.0
C324 C 0.21837 -0.00292 0.76314 0.0
C325 C 0.18916 0.01089 0.80193 0.0
C326 C 0.20017 0.97314 0.717 0.0
C327 C 0.15164 0.96282 0.70941 0.0
C328 C 0.12213 0.97833 0.74726 0.0
C329 C 0.14121 0.00207 0.79306 0.0
C330 C 0.23274 0.95729 0.67745 0.0
C331 C 0.07016 0.96831 0.74046 0.0
H332 H 0.08938 0.93615 0.53828 0.0
H333 H 0.08486 0.81844 0.64057 0.0
H334 H 0.11267 0.0204 0.63071 0.0
H335 H 0.17087 0.01616 0.61461 0.0
H336 H 0.12827 0.01098 0.56236 0.0
H337 H 0.11983 0.82386 0.72433 0.0
H338 H 0.16618 0.87303 0.73533 0.0
H339 H 0.10885 0.8746 0.75821 0.0
H340 H 0.25547 0.00399 0.76935 0.0
H341 H 0.11833 0.01296 0.82243 0.0
H342 H 0.22541 0.96754 0.6363 0.0
H343 H 0.22731 0.91897 0.67812 0.0
H344 H 0.26967 0.97178 0.68647 0.0
H345 H 0.06111 0.97916 0.70018 0.0
H346 H 0.05242 0.9862 0.77093 0.0
H347 H 0.05651 0.9305 0.74379 0.0
C348 C 0.86761 0.86813 0.88771 0.0
C349 C 0.8216 0.86079 0.90581 0.0
C350 C 0.87864 0.85067 0.83813 0.0
C351 C 0.84284 0.82455 0.80676 0.0
C352 C 0.79691 0.81405 0.82685 0.0
C353 C 0.78675 0.83273 0.87599 0.0
C354 C 0.92799 0.86293 0.81772 0.0
C355 C 0.75805 0.78543 0.79507 0.0
C356 C 0.8606 0.8328 0.65678 0.0
C357 C 0.87742 0.79257 0.64576 0.0
C358 C 0.84853 0.84321 0.70903 0.0
C359 C 0.85266 0.8122 0.75099 0.0
C360 C 0.86754 0.77049 0.73976 0.0
C361 C 0.88009 0.76131 0.68725 0.0
C362 C 0.83311 0.88827 0.71964 0.0
C363 C 0.87152 0.73629 0.7834 0.0
H364 H 0.89455 0.89008 0.91057 0.0
H365 H 0.75117 0.82672 0.89023 0.0
H366 H 0.93965 0.83153 0.80333 0.0
H367 H 0.92996 0.88689 0.78326 0.0
H368 H 0.95233 0.87988 0.84885 0.0
H369 H 0.72579 0.77533 0.81923 0.0
H370 H 0.75048 0.80559 0.76006 0.0
H371 H 0.76829 0.75363 0.7796 0.0
H372 H 0.85874 0.85722 0.62498 0.0
H373 H 0.89284 0.73 0.67889 0.0
H374 H 0.85795 0.9102 0.74679 0.0
H375 H 0.79877 0.88156 0.73991 0.0
H376 H 0.83068 0.90802 0.68238 0.0
H377 H 0.89903 0.75199 0.81169 0.0
H378 H 0.87999 0.70381 0.76735 0.0
H379 H 0.83862 0.72757 0.80655 0.0
C380 C 0.13169 0.91915 0.07122 0.0
C381 C 0.15712 0.96083 0.09127 0.0
C382 C 0.10806 0.88478 0.10612 0.0
C383 C 0.10813 0.89351 0.16197 0.0
C384 C 0.13228 0.93671 0.18182 0.0
C385 C 0.15712 0.96927 0.14632 0.0
C386 C 0.08393 0.83906 0.08298 0.0
C387 C 0.13363 0.94922 0.24053 0.0
C388 C 0.01634 0.82538 0.25445 0.0
C389 C 0.04361 0.80392 0.28783 0.0
C390 C 0.03628 0.85314 0.21141 0.0
C391 C 0.08425 0.85768 0.20024 0.0
C392 C 0.11084 0.83245 0.23105 0.0
C393 C 0.09048 0.8069 0.27543 0.0
C394 C 0.00623 0.87914 0.17991 0.0
C395 C 0.16153 0.83468 0.21916 0.0
H396 H 0.13177 0.91271 0.02853 0.0
H397 H 0.17637 0.00185 0.16181 0.0
H398 H 0.08632 0.80982 0.10992 0.0
H399 H 0.04679 0.83962 0.07733 0.0
H400 H 0.09874 0.83258 0.04334 0.0
H401 H 0.12822 0.98518 0.24578 0.0
H402 H 0.10756 0.92585 0.26523 0.0
H403 H 0.16855 0.94838 0.25623 0.0
H404 H 0.98009 0.82339 0.26449 0.0
H405 H 0.11153 0.79038 0.30143 0.0
H406 H -0.00448 0.86008 0.14238 0.0
H407 H 0.0251 0.91442 0.16908 0.0
H408 H 0.97427 0.88215 0.20236 0.0
H409 H 0.16778 0.83339 0.17539 0.0
H410 H 0.17436 0.80588 0.23851 0.0
H411 H 0.18202 0.86782 0.23444 0.0
C412 C 0.25182 0.28849 0.6265 0.0
C413 C 0.20574 0.26826 0.63879 0.0
C414 C 0.2869 0.28881 0.66413 0.0
C415 C 0.27552 0.26617 0.7137 0.0
C416 C 0.22854 0.24644 0.72628 0.0
C417 C 0.19417 0.24882 0.68901 0.0
C418 C 0.33572 0.31238 0.64954 0.0
C419 C 0.21443 0.22062 0.77796 0.0
C420 C 0.33922 0.19416 0.79138 0.0
C421 C 0.33239 0.21232 0.84204 0.0
C422 C 0.32831 0.21638 0.74535 0.0
C423 C 0.31176 0.25794 0.75093 0.0
C424 C 0.31669 0.28173 0.80026 0.0
C425 C 0.3261 0.25811 0.84606 0.0
C426 C 0.32664 0.19136 0.6925 0.0
C427 C 0.30456 0.32875 0.80604 0.0
H428 H 0.26043 0.30406 0.58754 0.0
H429 H 0.15837 0.23313 0.698 0.0
H430 H 0.35916 0.31794 0.68442 0.0
H431 H 0.34986 0.29116 0.61937 0.0
H432 H 0.33561 0.34642 0.6307 0.0
H433 H 0.1769 0.20475 0.77941 0.0
H434 H 0.2342 0.19267 0.78311 0.0
H435 H 0.22215 0.24457 0.81239 0.0
H436 H 0.34654 0.15971 0.78776 0.0
H437 H 0.32327 0.27348 0.88506 0.0
H438 H 0.3419 0.21565 0.6604 0.0
H439 H 0.29001 0.17701 0.68203 0.0
H440 H 0.34558 0.16241 0.6937 0.0
H441 H 0.31351 0.34942 0.769 0.0
H442 H 0.32288 0.34794 0.8404 0.0
H443 H 0.26674 0.32464 0.81331 0.0
C444 C 0.80735 0.1195 0.18939 0.0
C445 C 0.77189 0.08056 0.19764 0.0
C446 C 0.83239 0.14209 0.23242 0.0
C447 C 0.82022 0.12657 0.28516 0.0
C448 C 0.78007 0.09185 0.29396 0.0
C449 C 0.75702 0.0683 0.24998 0.0
C450 C 0.87307 0.18099 0.22037 0.0
C451 C 0.76344 0.07739 0.34974 0.0
C452 C 0.92211 0.12895 0.37662 0.0
C453 C 0.92764 0.17309 0.39914 0.0
C454 C 0.88608 0.11266 0.34105 0.0
C455 C 0.85367 0.14074 0.32918 0.0
C456 C 0.85729 0.1842 0.35472 0.0
C457 C 0.89492 0.20036 0.38855 0.0
C458 C 0.88514 0.06702 0.31301 0.0
C459 C 0.82283 0.21461 0.34457 0.0
H460 H 0.8185 0.12989 0.14904 0.0
H461 H 0.72891 0.03888 0.25662 0.0
H462 H 0.86087 0.21418 0.22062 0.0
H463 H 0.9011 0.1836 0.25012 0.0
H464 H 0.88793 0.17697 0.18007 0.0
H465 H 0.7267 0.05877 0.35001 0.0
H466 H 0.7848 0.05397 0.36642 0.0
H467 H 0.76696 0.10801 0.37645 0.0
H468 H 0.94778 0.10835 0.38399 0.0
H469 H 0.89904 0.23451 0.40628 0.0
H470 H 0.91019 0.04772 0.33018 0.0
H471 H 0.89376 0.07355 0.27011 0.0
H472 H 0.85021 0.04457 0.31535 0.0
H473 H 0.83291 0.23492 0.30759 0.0
H474 H 0.82209 0.23941 0.37793 0.0
H475 H 0.78741 0.19367 0.33907 0.0
loop_
_geom_bond_atom_site_label_1
_geom_bond_atom_site_label_2
_geom_bond_distance
_geom_bond_site_symmetry_2
_ccdc_geom_bond_type
O0 Zn1 1.953 1_545 S
O0 C16 1.225 1_556 S
Zn1 O0 1.953 1_565 S
Zn1 O2 1.949 1_566 S
Zn1 O8 1.919 . S
Zn1 O13 1.924 1_556 S
O2 Zn1 1.949 1_544 S
O2 Zn3 1.923 1_554 S
O2 Zn4 1.950 . S
O2 Zn5 1.945 . S
Zn3 O2 1.923 1_556 S
Zn3 O6 1.933 . S
Zn3 O9 1.941 . S
Zn3 O10 1.965 . S
Zn4 O2 1.950 . S
Zn4 O11 1.938 1_554 S
Zn4 O12 1.906 . S
Zn4 O22 1.953 . S
Zn5 O2 1.945 . S
Zn5 O7 1.932 . S
Zn5 O14 1.977 . S
Zn5 O15 1.910 1_545 S
O6 Zn3 1.933 . S
O6 C17 1.226 1_556 S
O7 Zn5 1.932 . S
O7 C17 1.307 . S
O8 Zn1 1.919 . S
O8 C19 1.253 . S
O9 Zn3 1.941 . S
O9 C19 1.283 1_545 S
O10 Zn3 1.965 . S
O10 C18 1.303 . S
O11 Zn4 1.938 1_556 S
O11 C18 1.247 . S
O12 Zn4 1.906 . S
O12 C20 1.304 . S
O13 Zn1 1.924 1_554 S
O13 C21 1.311 . S
O14 Zn5 1.977 . S
O14 C20 1.272 . S
O15 Zn5 1.910 1_565 S
O15 C21 1.231 . S
C16 O0 1.225 1_554 S
C16 O22 1.298 . S
C17 O6 1.226 1_554 S
C17 O7 1.307 . S
C18 O10 1.303 . S
C18 O11 1.247 . S
C19 O8 1.253 . S
C19 O9 1.283 1_565 S
C20 O12 1.304 . S
C20 O14 1.272 . S
C21 O13 1.311 . S
C21 O15 1.231 . S
O22 Zn4 1.953 . S
O22 C16 1.298 . S
O23 Zn24 1.953 1_455 S
O23 C39 1.225 . S
Zn24 O23 1.953 1_655 S
Zn24 O25 1.949 1_655 S
Zn24 O31 1.919 . S
Zn24 O36 1.924 . S
O25 Zn24 1.949 1_455 S
O25 Zn26 1.923 . S
O25 Zn27 1.950 . S
O25 Zn28 1.945 . S
Zn26 O25 1.923 . S
Zn26 O29 1.933 . S
Zn26 O32 1.941 . S
Zn26 O33 1.965 . S
Zn27 O25 1.950 . S
Zn27 O34 1.938 . S
Zn27 O35 1.906 . S
Zn27 O45 1.953 . S
Zn28 O25 1.945 . S
Zn28 O30 1.932 . S
Zn28 O37 1.977 . S
Zn28 O38 1.910 1_455 S
O29 Zn26 1.933 . S
O29 C40 1.226 . S
O30 Zn28 1.932 . S
O30 C40 1.307 . S
O31 Zn24 1.919 . S
O31 C42 1.253 . S
O32 Zn26 1.941 . S
O32 C42 1.283 1_455 S
O33 Zn26 1.965 . S
O33 C41 1.303 . S
O34 Zn27 1.938 . S
O34 C41 1.247 . S
O35 Zn27 1.906 . S
O35 C43 1.304 . S
O36 Zn24 1.924 . S
O36 C44 1.311 . S
O37 Zn28 1.977 . S
O37 C43 1.272 . S
O38 Zn28 1.910 1_655 S
O38 C44 1.231 . S
C39 O23 1.225 . S
C39 O45 1.298 . S
C40 O29 1.226 . S
C40 O30 1.307 . S
C41 O33 1.303 . S
C41 O34 1.247 . S
C42 O31 1.253 . S
C42 O32 1.283 1_655 S
C43 O35 1.304 . S
C43 O37 1.272 . S
C44 O36 1.311 . S
C44 O38 1.231 . S
O45 Zn27 1.953 . S
O45 C39 1.298 . S
O46 Zn47 1.953 . S
O46 C62 1.225 1_556 S
Zn47 O46 1.953 . S
Zn47 O48 1.954 1_556 S
Zn47 O54 1.919 . S
Zn47 O59 1.924 1_556 S
O48 Zn47 1.954 1_554 S
O48 Zn49 1.922 1_544 S
O48 Zn50 1.944 1_545 S
O48 Zn51 1.946 . S
Zn49 O48 1.922 1_566 S
Zn49 O52 1.933 . S
Zn49 O55 1.941 1_565 S
Zn49 O56 1.965 . S
Zn50 O48 1.944 1_565 S
Zn50 O57 1.938 1_554 S
Zn50 O58 1.906 . S
Zn50 O68 1.953 . S
Zn51 O48 1.946 . S
Zn51 O53 1.932 . S
Zn51 O60 1.977 1_545 S
Zn51 O61 1.910 . S
O52 Zn49 1.933 . S
O52 C63 1.226 1_556 S
O53 Zn51 1.932 . S
O53 C63 1.307 1_545 S
O54 Zn47 1.919 . S
O54 C65 1.253 . S
O55 Zn49 1.941 1_545 S
O55 C65 1.283 . S
O56 Zn49 1.965 . S
O56 C64 1.303 . S
O57 Zn50 1.938 1_556 S
O57 C64 1.247 . S
O58 Zn50 1.906 . S
O58 C66 1.304 . S
O59 Zn47 1.924 1_554 S
O59 C67 1.311 . S
O60 Zn51 1.977 1_565 S
O60 C66 1.272 . S
O61 Zn51 1.910 . S
O61 C67 1.231 . S
C62 O46 1.225 1_554 S
C62 O68 1.298 1_545 S
C63 O52 1.226 1_554 S
C63 O53 1.307 1_565 S
C64 O56 1.303 . S
C64 O57 1.247 . S
C65 O54 1.253 . S
C65 O55 1.283 . S
C66 O58 1.304 . S
C66 O60 1.272 . S
C67 O59 1.311 . S
C67 O61 1.231 . S
O68 Zn50 1.953 . S
O68 C62 1.298 1_565 S
O69 Zn70 1.953 . S
O69 C85 1.225 . S
Zn70 O69 1.953 . S
Zn70 O71 1.954 . S
Zn70 O77 1.919 . S
Zn70 O82 1.924 . S
O71 Zn70 1.954 . S
O71 Zn72 1.922 1_455 S
O71 Zn73 1.944 1_455 S
O71 Zn74 1.946 . S
Zn72 O71 1.922 1_655 S
Zn72 O75 1.933 . S
Zn72 O78 1.941 1_655 S
Zn72 O79 1.965 . S
Zn73 O71 1.944 1_655 S
Zn73 O80 1.938 . S
Zn73 O81 1.906 . S
Zn73 O91 1.953 . S
Zn74 O71 1.946 . S
Zn74 O76 1.932 . S
Zn74 O83 1.977 1_455 S
Zn74 O84 1.910 . S
O75 Zn72 1.933 . S
O75 C86 1.226 . S
O76 Zn74 1.932 . S
O76 C86 1.307 1_455 S
O77 Zn70 1.919 . S
O77 C88 1.253 . S
O78 Zn72 1.941 1_455 S
O78 C88 1.283 . S
O79 Zn72 1.965 . S
O79 C87 1.303 . S
O80 Zn73 1.938 . S
O80 C87 1.247 . S
O81 Zn73 1.906 . S
O81 C89 1.304 . S
O82 Zn70 1.924 . S
O82 C90 1.311 . S
O83 Zn74 1.977 1_655 S
O83 C89 1.272 . S
O84 Zn74 1.910 . S
O84 C90 1.231 . S
C85 O69 1.225 . S
C85 O91 1.298 1_455 S
C86 O75 1.226 . S
C86 O76 1.307 1_655 S
C87 O79 1.303 . S
C87 O80 1.247 . S
C88 O77 1.253 . S
C88 O78 1.283 . S
C89 O81 1.304 . S
C89 O83 1.272 . S
C90 O82 1.311 . S
C90 O84 1.231 . S
O91 Zn73 1.953 . S
O91 C85 1.298 1_655 S
C92 C93 1.391 . S
C92 C94 1.394 . S
C92 H108 0.931 . S
C93 C92 1.391 . S
C93 C97 1.376 1_566 S
C94 C92 1.394 . S
C94 C95 1.369 1_665 S
C94 C98 1.531 1_655 S
C95 C94 1.369 1_445 S
C95 C96 1.410 1_456 S
C95 C103 1.503 . S
C96 C95 1.410 1_654 S
C96 C97 1.392 . S
C96 C99 1.511 . S
C97 C93 1.376 1_544 S
C97 C96 1.392 . S
C97 H109 0.929 . S
C98 C94 1.531 1_455 S
C98 H110 0.960 . S
C98 H111 0.962 . S
C98 H112 0.960 1_455 S
C99 C96 1.511 . S
C99 H113 0.961 . S
C99 H114 0.961 1_655 S
C99 H115 0.960 . S
C100 C101 1.373 . S
C100 C102 1.363 . S
C100 H116 0.931 . S
C101 C100 1.373 . S
C101 C105 1.406 1_554 S
C102 C100 1.363 . S
C102 C103 1.370 1_554 S
C102 C106 1.525 1_545 S
C103 C95 1.503 . S
C103 C102 1.370 1_556 S
C103 C104 1.403 . S
C104 C103 1.403 . S
C104 C105 1.404 . S
C104 C107 1.539 . S
C105 C101 1.406 1_556 S
C105 C104 1.404 . S
C105 H117 0.930 . S
C106 C102 1.525 1_565 S
C106 H118 0.955 . S
C106 H119 0.961 1_565 S
C106 H120 0.960 . S
C107 C104 1.539 . S
C107 H121 0.958 . S
C107 H122 0.961 . S
C107 H123 0.960 . S
H108 C92 0.931 . S
H109 C97 0.929 . S
H110 C98 0.960 . S
H111 C98 0.962 . S
H112 C98 0.960 1_655 S
H113 C99 0.961 . S
H114 C99 0.961 1_455 S
H115 C99 0.960 . S
H116 C100 0.931 . S
H117 C105 0.930 . S
H118 C106 0.955 . S
H119 C106 0.961 1_545 S
H120 C106 0.960 . S
H121 C107 0.958 . S
H122 C107 0.961 . S
H123 C107 0.960 . S
C124 C125 1.391 . S
C124 C126 1.394 . S
C124 H140 0.931 . S
C125 C124 1.391 . S
C125 C129 1.376 1_655 S
C126 C124 1.394 . S
C126 C127 1.369 1_665 S
C126 C130 1.531 1_565 S
C127 C126 1.369 1_445 S
C127 C128 1.410 1_545 S
C127 C135 1.503 . S
C128 C127 1.410 1_565 S
C128 C129 1.392 . S
C128 C131 1.511 . S
C129 C125 1.376 1_455 S
C129 C128 1.392 . S
C129 H141 0.929 . S
C130 C126 1.531 1_545 S
C130 H142 0.960 . S
C130 H143 0.962 . S
C130 H144 0.960 1_545 S
C131 C128 1.511 . S
C131 H145 0.961 . S
C131 H146 0.961 1_565 S
C131 H147 0.961 . S
C132 C133 1.370 . S
C132 C134 1.363 . S
C132 H148 0.931 . S
C133 C132 1.370 . S
C133 C137 1.408 . S
C134 C132 1.363 . S
C134 C135 1.370 . S
C134 C138 1.524 . S
C135 C127 1.503 . S
C135 C134 1.370 . S
C135 C136 1.403 . S
C136 C135 1.403 . S
C136 C137 1.404 . S
C136 C139 1.539 . S
C137 C133 1.408 . S
C137 C136 1.404 . S
C137 H149 0.930 . S
C138 C134 1.524 . S
C138 H150 0.956 1_455 S
C138 H151 0.961 . S
C138 H152 0.961 . S
C139 C136 1.539 . S
C139 H153 0.958 . S
C139 H154 0.961 . S
C139 H155 0.960 . S
H140 C124 0.931 . S
H141 C129 0.929 . S
H142 C130 0.960 . S
H143 C130 0.962 . S
H144 C130 0.960 1_565 S
H145 C131 0.961 . S
H146 C131 0.961 1_545 S
H147 C131 0.961 . S
H148 C132 0.931 . S
H149 C137 0.930 . S
H150 C138 0.956 1_655 S
H151 C138 0.961 . S
H152 C138 0.961 . S
H153 C139 0.958 . S
H154 C139 0.961 . S
H155 C139 0.960 . S
C156 C157 1.391 1_556 S
C156 C158 1.394 . S
C156 H172 0.931 . S
C157 C156 1.391 1_554 S
C157 C161 1.376 1_565 S
C158 C156 1.394 . S
C158 C159 1.369 1_566 S
C158 C162 1.531 . S
C159 C158 1.369 1_544 S
C159 C160 1.410 . S
C159 C167 1.503 . S
C160 C159 1.410 . S
C160 C161 1.392 . S
C160 C163 1.511 . S
C161 C157 1.376 1_545 S
C161 C160 1.392 . S
C161 H173 0.929 . S
C162 C158 1.531 . S
C162 H174 0.960 . S
C162 H175 0.962 1_565 S
C162 H176 0.960 . S
C163 C160 1.511 . S
C163 H177 0.961 . S
C163 H178 0.961 . S
C163 H179 0.970 . S
C164 C165 1.370 1_556 S
C164 C166 1.363 . S
C164 H180 0.931 . S
C165 C164 1.370 1_554 S
C165 C169 1.408 . S
C166 C164 1.363 . S
C166 C167 1.370 1_556 S
C166 C170 1.524 . S
C167 C159 1.503 . S
C167 C166 1.370 1_554 S
C167 C168 1.403 1_545 S
C168 C167 1.403 1_565 S
C168 C169 1.404 1_565 S
C168 C171 1.539 . S
C169 C165 1.408 . S
C169 C168 1.404 1_545 S
C169 H181 0.930 1_545 S
C170 C166 1.524 . S
C170 H182 0.956 . S
C170 H183 0.961 1_556 S
C170 H184 0.961 . S
C171 C168 1.539 . S
C171 H185 0.958 1_554 S
C171 H186 0.961 . S
C171 H187 0.960 . S
H172 C156 0.931 . S
H173 C161 0.929 . S
H174 C162 0.960 . S
H175 C162 0.962 1_545 S
H176 C162 0.960 . S
H177 C163 0.961 . S
H178 C163 0.961 . S
H179 C163 0.970 . S
H180 C164 0.931 . S
H181 C169 0.930 1_565 S
H182 C170 0.956 . S
H183 C170 0.961 1_554 S
H184 C170 0.961 . S
H185 C171 0.958 1_556 S
H186 C171 0.961 . S
H187 C171 0.960 . S
C188 C189 1.391 . S
C188 C190 1.394 . S
C188 H204 0.931 . S
C189 C188 1.391 . S
C189 C193 1.376 . S
C190 C188 1.394 . S
C190 C191 1.369 . S
C190 C194 1.531 . S
C191 C190 1.369 . S
C191 C192 1.410 . S
C191 C199 1.503 . S
C192 C191 1.410 . S
C192 C193 1.392 . S
C192 C195 1.511 . S
C193 C189 1.376 . S
C193 C192 1.392 . S
C193 H205 0.929 . S
C194 C190 1.531 . S
C194 H206 0.960 . S
C194 H207 0.962 . S
C194 H208 0.960 . S
C195 C192 1.511 . S
C195 H209 0.961 . S
C195 H210 0.961 . S
C195 H211 0.961 . S
C196 C197 1.368 1_655 S
C196 C198 1.363 . S
C196 H212 0.931 . S
C197 C196 1.368 1_455 S
C197 C201 1.413 . S
C198 C196 1.363 . S
C198 C199 1.370 1_655 S
C198 C202 1.524 . S
C199 C191 1.503 . S
C199 C198 1.370 1_455 S
C199 C200 1.403 . S
C200 C199 1.403 . S
C200 C201 1.404 . S
C200 C203 1.539 . S
C201 C197 1.413 . S
C201 C200 1.404 . S
C201 H213 0.930 . S
C202 C198 1.524 . S
C202 H214 0.956 . S
C202 H215 0.961 . S
C202 H216 0.961 . S
C203 C200 1.539 . S
C203 H217 0.958 . S
C203 H218 0.961 . S
C203 H219 0.960 . S
H204 C188 0.931 . S
H205 C193 0.929 . S
H206 C194 0.960 . S
H207 C194 0.962 . S
H208 C194 0.960 . S
H209 C195 0.961 . S
H210 C195 0.961 . S
H211 C195 0.961 . S
H212 C196 0.931 . S
H213 C201 0.930 . S
H214 C202 0.956 . S
H215 C202 0.961 . S
H216 C202 0.961 . S
H217 C203 0.958 . S
H218 C203 0.961 . S
H219 C203 0.960 . S
C220 C221 1.391 . S
C220 C222 1.394 . S
C220 H236 0.931 . S
C221 C220 1.391 . S
C221 C225 1.376 . S
C222 C220 1.394 . S
C222 C223 1.369 . S
C222 C226 1.531 . S
C223 C222 1.369 . S
C223 C224 1.410 . S
C223 C231 1.503 . S
C224 C223 1.410 . S
C224 C225 1.392 . S
C224 C227 1.511 . S
C225 C221 1.376 . S
C225 C224 1.392 . S
C225 H237 0.929 . S
C226 C222 1.531 . S
C226 H238 0.960 . S
C226 H239 0.962 . S
C226 H240 0.960 . S
C227 C224 1.511 . S
C227 H241 0.961 . S
C227 H242 0.961 . S
C227 H243 0.961 . S
C228 C229 1.370 . S
C228 C230 1.363 . S
C228 H244 0.931 . S
C229 C228 1.370 . S
C229 C233 1.408 . S
C230 C228 1.363 . S
C230 C231 1.370 . S
C230 C234 1.524 . S
C231 C223 1.503 . S
C231 C230 1.370 . S
C231 C232 1.403 . S
C232 C231 1.403 . S
C232 C233 1.404 . S
C232 C235 1.539 . S
C233 C229 1.408 . S
C233 C232 1.404 . S
C233 H245 0.930 . S
C234 C230 1.524 . S
C234 H246 0.956 . S
C234 H247 0.961 . S
C234 H248 0.961 . S
C235 C232 1.539 . S
C235 H249 0.958 . S
C235 H250 0.961 . S
C235 H251 0.960 . S
H236 C220 0.931 . S
H237 C225 0.929 . S
H238 C226 0.960 . S
H239 C226 0.962 . S
H240 C226 0.960 . S
H241 C227 0.961 . S
H242 C227 0.961 . S
H243 C227 0.961 . S
H244 C228 0.931 . S
H245 C233 0.930 . S
H246 C234 0.956 . S
H247 C234 0.961 . S
H248 C234 0.961 . S
H249 C235 0.958 . S
H250 C235 0.961 . S
H251 C235 0.960 . S
C252 C253 1.391 . S
C252 C254 1.394 . S
C252 H268 0.931 . S
C253 C252 1.391 . S
C253 C257 1.376 . S
C254 C252 1.394 . S
C254 C255 1.369 . S
C254 C258 1.531 . S
C255 C254 1.369 . S
C255 C256 1.410 . S
C255 C263 1.503 . S
C256 C255 1.410 . S
C256 C257 1.392 . S
C256 C259 1.511 . S
C257 C253 1.376 . S
C257 C256 1.392 . S
C257 H269 0.929 . S
C258 C254 1.531 . S
C258 H270 0.960 . S
C258 H271 0.962 . S
C258 H272 0.960 . S
C259 C256 1.511 . S
C259 H273 0.961 . S
C259 H274 0.961 . S
C259 H275 0.961 . S
C260 C261 1.370 . S
C260 C262 1.363 . S
C260 H276 0.931 . S
C261 C260 1.370 . S
C261 C265 1.408 . S
C262 C260 1.363 . S
C262 C263 1.370 . S
C262 C266 1.524 . S
C263 C255 1.503 . S
C263 C262 1.370 . S
C263 C264 1.403 . S
C264 C263 1.403 . S
C264 C265 1.404 . S
C264 C267 1.539 . S
C265 C261 1.408 . S
C265 C264 1.404 . S
C265 H277 0.930 . S
C266 C262 1.524 . S
C266 H278 0.956 . S
C266 H279 0.961 . S
C266 H280 0.961 . S
C267 C264 1.539 . S
C267 H281 0.958 . S
C267 H282 0.961 . S
C267 H283 0.960 . S
H268 C252 0.931 . S
H269 C257 0.929 . S
H270 C258 0.960 . S
H271 C258 0.962 . S
H272 C258 0.960 . S
H273 C259 0.961 . S
H274 C259 0.961 . S
H275 C259 0.961 . S
H276 C260 0.931 . S
H277 C265 0.930 . S
H278 C266 0.956 . S
H279 C266 0.961 . S
H280 C266 0.961 . S
H281 C267 0.958 . S
H282 C267 0.961 . S
H283 C267 0.960 . S
C284 C285 1.391 . S
C284 C286 1.394 . S
C284 H300 0.931 . S
C285 C284 1.391 . S
C285 C289 1.376 . S
C286 C284 1.394 . S
C286 C287 1.369 . S
C286 C290 1.531 . S
C287 C286 1.369 . S
C287 C288 1.410 . S
C287 C295 1.503 . S
C288 C287 1.410 . S
C288 C289 1.392 . S
C288 C291 1.511 . S
C289 C285 1.376 . S
C289 C288 1.392 . S
C289 H301 0.929 . S
C290 C286 1.531 . S
C290 H302 0.960 . S
C290 H303 0.962 . S
C290 H304 0.960 . S
C291 C288 1.511 . S
C291 H305 0.961 . S
C291 H306 0.961 . S
C291 H307 0.961 . S
C292 C293 1.370 . S
C292 C294 1.363 . S
C292 H308 0.931 . S
C293 C292 1.370 . S
C293 C297 1.408 . S
C294 C292 1.363 . S
C294 C295 1.370 . S
C294 C298 1.524 . S
C295 C287 1.503 . S
C295 C294 1.370 . S
C295 C296 1.403 . S
C296 C295 1.403 . S
C296 C297 1.404 . S
C296 C299 1.539 . S
C297 C293 1.408 . S
C297 C296 1.404 . S
C297 H309 0.930 . S
C298 C294 1.524 . S
C298 H310 0.956 . S
C298 H311 0.961 . S
C298 H312 0.961 . S
C299 C296 1.539 . S
C299 H313 0.958 . S
C299 H314 0.961 . S
C299 H315 0.960 . S
H300 C284 0.931 . S
H301 C289 0.929 . S
H302 C290 0.960 . S
H303 C290 0.962 . S
H304 C290 0.960 . S
H305 C291 0.961 . S
H306 C291 0.961 . S
H307 C291 0.961 . S
H308 C292 0.931 . S
H309 C297 0.930 . S
H310 C298 0.956 . S
H311 C298 0.961 . S
H312 C298 0.961 . S
H313 C299 0.958 . S
H314 C299 0.961 . S
H315 C299 0.960 . S
C316 C317 1.391 . S
C316 C318 1.394 . S
C316 H332 0.931 . S
C317 C316 1.391 . S
C317 C321 1.376 . S
C318 C316 1.394 . S
C318 C319 1.369 . S
C318 C322 1.531 . S
C319 C318 1.369 . S
C319 C320 1.410 . S
C319 C327 1.503 . S
C320 C319 1.410 . S
C320 C321 1.392 . S
C320 C323 1.511 . S
C321 C317 1.376 . S
C321 C320 1.392 . S
C321 H333 0.929 . S
C322 C318 1.531 . S
C322 H334 0.960 . S
C322 H335 0.962 . S
C322 H336 0.960 . S
C323 C320 1.511 . S
C323 H337 0.961 . S
C323 H338 0.961 . S
C323 H339 0.961 . S
C324 C325 1.370 . S
C324 C326 1.363 . S
C324 H340 0.931 . S
C325 C324 1.370 . S
C325 C329 1.408 . S
C326 C324 1.363 . S
C326 C327 1.370 . S
C326 C330 1.524 . S
C327 C319 1.503 . S
C327 C326 1.370 . S
C327 C328 1.403 . S
C328 C327 1.403 . S
C328 C329 1.404 . S
C328 C331 1.539 . S
C329 C325 1.408 . S
C329 C328 1.404 . S
C329 H341 0.930 . S
C330 C326 1.524 . S
C330 H342 0.956 . S
C330 H343 0.961 . S
C330 H344 0.961 . S
C331 C328 1.539 . S
C331 H345 0.958 . S
C331 H346 0.961 . S
C331 H347 0.960 . S
H332 C316 0.931 . S
H333 C321 0.929 . S
H334 C322 0.960 . S
H335 C322 0.962 . S
H336 C322 0.960 . S
H337 C323 0.961 . S
H338 C323 0.961 . S
H339 C323 0.961 . S
H340 C324 0.931 . S
H341 C329 0.930 . S
H342 C330 0.956 . S
H343 C330 0.961 . S
H344 C330 0.961 . S
H345 C331 0.958 . S
H346 C331 0.961 . S
H347 C331 0.960 . S
C348 C349 1.391 . S
C348 C350 1.394 . S
C348 H364 0.931 . S
C349 C348 1.391 . S
C349 C353 1.376 . S
C350 C348 1.394 . S
C350 C351 1.369 . S
C350 C354 1.531 . S
C351 C350 1.369 . S
C351 C352 1.410 . S
C351 C359 1.503 . S
C352 C351 1.410 . S
C352 C353 1.392 . S
C352 C355 1.511 . S
C353 C349 1.376 . S
C353 C352 1.392 . S
C353 H365 0.929 . S
C354 C350 1.531 . S
C354 H366 0.960 . S
C354 H367 0.962 . S
C354 H368 0.960 . S
C355 C352 1.511 . S
C355 H369 0.961 . S
C355 H370 0.961 . S
C355 H371 0.961 . S
C356 C357 1.370 . S
C356 C358 1.363 . S
C356 H372 0.931 . S
C357 C356 1.370 . S
C357 C361 1.408 . S
C358 C356 1.363 . S
C358 C359 1.370 . S
C358 C362 1.524 . S
C359 C351 1.503 . S
C359 C358 1.370 . S
C359 C360 1.403 . S
C360 C359 1.403 . S
C360 C361 1.404 . S
C360 C363 1.539 . S
C361 C357 1.408 . S
C361 C360 1.404 . S
C361 H373 0.930 . S
C362 C358 1.524 . S
C362 H374 0.956 . S
C362 H375 0.961 . S
C362 H376 0.961 . S
C363 C360 1.539 . S
C363 H377 0.958 . S
C363 H378 0.961 . S
C363 H379 0.960 . S
H364 C348 0.931 . S
H365 C353 0.929 . S
H366 C354 0.960 . S
H367 C354 0.962 . S
H368 C354 0.960 . S
H369 C355 0.961 . S
H370 C355 0.961 . S
H371 C355 0.961 . S
H372 C356 0.931 . S
H373 C361 0.930 . S
H374 C362 0.956 . S
H375 C362 0.961 . S
H376 C362 0.961 . S
H377 C363 0.958 . S
H378 C363 0.961 . S
H379 C363 0.960 . S
C380 C381 1.391 . S
C380 C382 1.394 . S
C380 H396 0.931 . S
C381 C380 1.391 . S
C381 C385 1.376 . S
C382 C380 1.394 . S
C382 C383 1.369 . S
C382 C386 1.531 . S
C383 C382 1.369 . S
C383 C384 1.410 . S
C383 C391 1.503 . S
C384 C383 1.410 . S
C384 C385 1.392 . S
C384 C387 1.511 . S
C385 C381 1.376 . S
C385 C384 1.392 . S
C385 H397 0.929 . S
C386 C382 1.531 . S
C386 H398 0.960 . S
C386 H399 0.962 . S
C386 H400 0.960 . S
C387 C384 1.511 . S
C387 H401 0.961 . S
C387 H402 0.961 . S
C387 H403 0.961 . S
C388 C389 1.370 . S
C388 C390 1.363 . S
C388 H404 0.931 . S
C389 C388 1.370 . S
C389 C393 1.408 . S
C390 C388 1.363 . S
C390 C391 1.370 . S
C390 C394 1.524 . S
C391 C383 1.503 . S
C391 C390 1.370 . S
C391 C392 1.403 . S
C392 C391 1.403 . S
C392 C393 1.404 . S
C392 C395 1.539 . S
C393 C389 1.408 . S
C393 C392 1.404 . S
C393 H405 0.930 . S
C394 C390 1.524 . S
C394 H406 0.956 . S
C394 H407 0.961 . S
C394 H408 0.961 . S
C395 C392 1.539 . S
C395 H409 0.958 . S
C395 H410 0.961 . S
C395 H411 0.960 . S
H396 C380 0.931 . S
H397 C385 0.929 . S
H398 C386 0.960 . S
H399 C386 0.962 . S
H400 C386 0.960 . S
H401 C387 0.961 . S
H402 C387 0.961 . S
H403 C387 0.961 . S
H404 C388 0.931 . S
H405 C393 0.930 . S
H406 C394 0.956 . S
H407 C394 0.961 . S
H408 C394 0.961 . S
H409 C395 0.958 . S
H410 C395 0.961 . S
H411 C395 0.960 . S
C412 C413 1.391 . S
C412 C414 1.394 . S
C412 H428 0.931 . S
C413 C412 1.391 . S
C413 C417 1.376 . S
C414 C412 1.394 . S
C414 C415 1.369 . S
C414 C418 1.531 . S
C415 C414 1.369 . S
C415 C416 1.410 . S
C415 C423 1.503 . S
C416 C415 1.410 . S
C416 C417 1.392 . S
C416 C419 1.511 . S
C417 C413 1.376 . S
C417 C416 1.392 . S
C417 H429 0.929 . S
C418 C414 1.531 . S
C418 H430 0.960 . S
C418 H431 0.962 . S
C418 H432 0.960 . S
C419 C416 1.511 . S
C419 H433 0.961 . S
C419 H434 0.961 . S
C419 H435 0.961 . S
C420 C421 1.370 . S
C420 C422 1.363 . S
C420 H436 0.931 . S
C421 C420 1.370 . S
C421 C425 1.408 . S
C422 C420 1.363 . S
C422 C423 1.370 . S
C422 C426 1.524 . S
C423 C415 1.503 . S
C423 C422 1.370 . S
C423 C424 1.403 . S
C424 C423 1.403 . S
C424 C425 1.404 . S
C424 C427 1.539 . S
C425 C421 1.408 . S
C425 C424 1.404 . S
C425 H437 0.930 . S
C426 C422 1.524 . S
C426 H438 0.956 . S
C426 H439 0.961 . S
C426 H440 0.961 . S
C427 C424 1.539 . S
C427 H441 0.958 . S
C427 H442 0.961 . S
C427 H443 0.960 . S
H428 C412 0.931 . S
H429 C417 0.929 . S
H430 C418 0.960 . S
H431 C418 0.962 . S
H432 C418 0.960 . S
H433 C419 0.961 . S
H434 C419 0.961 . S
H435 C419 0.961 . S
H436 C420 0.931 . S
H437 C425 0.930 . S
H438 C426 0.956 . S
H439 C426 0.961 . S
H440 C426 0.961 . S
H441 C427 0.958 . S
H442 C427 0.961 . S
H443 C427 0.960 . S
C444 C445 1.391 . S
C444 C446 1.394 . S
C444 H460 0.931 . S
C445 C444 1.391 . S
C445 C449 1.376 . S
C446 C444 1.394 . S
C446 C447 1.369 . S
C446 C450 1.531 . S
C447 C446 1.369 . S
C447 C448 1.410 . S
C447 C455 1.503 . S
C448 C447 1.410 . S
C448 C449 1.392 . S
C448 C451 1.511 . S
C449 C445 1.376 . S
C449 C448 1.392 . S
C449 H461 0.929 . S
C450 C446 1.531 . S
C450 H462 0.960 . S
C450 H463 0.962 . S
C450 H464 0.960 . S
C451 C448 1.511 . S
C451 H465 0.961 . S
C451 H466 0.961 . S
C451 H467 0.961 . S
C452 C453 1.370 . S
C452 C454 1.363 . S
C452 H468 0.931 . S
C453 C452 1.370 . S
C453 C457 1.408 . S
C454 C452 1.363 . S
C454 C455 1.370 . S
C454 C458 1.524 . S
C455 C447 1.503 . S
C455 C454 1.370 . S
C455 C456 1.403 . S
C456 C455 1.403 . S
C456 C457 1.404 . S
C456 C459 1.539 . S
C457 C453 1.408 . S
C457 C456 1.404 . S
C457 H469 0.930 . S
C458 C454 1.524 . S
C458 H470 0.956 . S
C458 H471 0.961 . S
C458 H472 0.961 . S
C459 C456 1.539 . S
C459 H473 0.958 . S
C459 H474 0.961 . S
C459 H475 0.960 . S
H460 C444 0.931 . S
H461 C449 0.929 . S
H462 C450 0.960 . S
H463 C450 0.962 . S
H464 C450 0.960 . S
H465 C451 0.961 . S
H466 C451 0.961 . S
H467 C451 0.961 . S
H468 C452 0.931 . S
H469 C457 0.930 . S
H470 C458 0.956 . S
H471 C458 0.961 . S
H472 C458 0.961 . S
H473 C459 0.958 . S
H474 C459 0.961 . S
H475 C459 0.960 . S
C93 C62 0.397 1_566 S
C101 C16 0.416 . S
C125 C85 0.409 1_655 S
C133 C39 0.411 . S
C157 C63 0.831 . S
C165 C17 0.803 . S
C189 C40 0.831 . S
C197 C86 0.802 1_455 S
C221 C43 1.569 . S
C229 C20 1.554 . S
C253 C42 1.635 . S
C261 C65 1.617 . S
C285 C89 1.574 . S
C293 C66 1.556 . S
C317 C88 1.605 . S
C325 C19 1.596 . S
C349 C64 1.121 . S
C357 C87 1.126 . S
C381 C21 1.163 . S
C389 C90 1.157 . S
C413 C41 1.127 . S
C421 C18 1.128 . S
C445 C67 1.161 . S
C453 C44 1.158 . S
