# Generated by pormake.
# Topology una, (4)-cn, num edge types: 1
# Building blocks:
#     Node 0, Type 0, BuildingBlock: NAHDIM_clean_sbu_0, # of connection points: 4
#     Node 1, Type 0, BuildingBlock: NAHDIM_clean_sbu_0, # of connection points: 4
#     Node 2, Type 0, BuildingBlock: NAHDIM_clean_sbu_0, # of connection points: 4
#     Node 3, Type 0, BuildingBlock: NAHDIM_clean_sbu_0, # of connection points: 4
#     Node 4, Type 0, BuildingBlock: NAHDIM_clean_sbu_0, # of connection points: 4
#     Node 5, Type 0, BuildingBlock: NAHDIM_clean_sbu_0, # of connection points: 4
#     Node 6, Type 0, BuildingBlock: NAHDIM_clean_sbu_0, # of connection points: 4
#     Node 7, Type 0, BuildingBlock: NAHDIM_clean_sbu_0, # of connection points: 4
#     Node 8, Type 0, BuildingBlock: NAHDIM_clean_sbu_0, # of connection points: 4
#     Node 9, Type 0, BuildingBlock: NAHDIM_clean_sbu_0, # of connection points: 4
#     Node 10, Type 0, BuildingBlock: NAHDIM_clean_sbu_0, # of connection points: 4
#     Node 11, Type 0, BuildingBlock: NAHDIM_clean_sbu_0, # of connection points: 4
#     Edge 12, Type (0, 0), BuildingBlock: OJICUG_clean_linker_0, # of connection points: 2
#     Edge 13, Type (0, 0), BuildingBlock: OJICUG_clean_linker_0, # of connection points: 2
#     Edge 14, Type (0, 0), BuildingBlock: OJICUG_clean_linker_0, # of connection points: 2
#     Edge 15, Type (0, 0), BuildingBlock: OJICUG_clean_linker_0, # of connection points: 2
#     Edge 16, Type (0, 0), BuildingBlock: OJICUG_clean_linker_0, # of connection points: 2
#     Edge 17, Type (0, 0), BuildingBlock: OJICUG_clean_linker_0, # of connection points: 2
#     Edge 18, Type (0, 0), BuildingBlock: OJICUG_clean_linker_0, # of connection points: 2
#     Edge 19, Type (0, 0), BuildingBlock: OJICUG_clean_linker_0, # of connection points: 2
#     Edge 20, Type (0, 0), BuildingBlock: OJICUG_clean_linker_0, # of connection points: 2
#     Edge 21, Type (0, 0), BuildingBlock: OJICUG_clean_linker_0, # of connection points: 2
#     Edge 22, Type (0, 0), BuildingBlock: OJICUG_clean_linker_0, # of connection points: 2
#     Edge 23, Type (0, 0), BuildingBlock: OJICUG_clean_linker_0, # of connection points: 2
#     Edge 24, Type (0, 0), BuildingBlock: OJICUG_clean_linker_0, # of connection points: 2
#     Edge 25, Type (0, 0), BuildingBlock: OJICUG_clean_linker_0, # of connection points: 2
#     Edge 26, Type (0, 0), BuildingBlock: OJICUG_clean_linker_0, # of connection points: 2
#     Edge 27, Type (0, 0), BuildingBlock: OJICUG_clean_linker_0, # of connection points: 2
#     Edge 28, Type (0, 0), BuildingBlock: OJICUG_clean_linker_0, # of connection points: 2
#     Edge 29, Type (0, 0), BuildingBlock: OJICUG_clean_linker_0, # of connection points: 2
#     Edge 30, Type (0, 0), BuildingBlock: OJICUG_clean_linker_0, # of connection points: 2
#     Edge 31, Type (0, 0), BuildingBlock: OJICUG_clean_linker_0, # of connection points: 2
#     Edge 32, Type (0, 0), BuildingBlock: OJICUG_clean_linker_0, # of connection points: 2
#     Edge 33, Type (0, 0), BuildingBlock: OJICUG_clean_linker_0, # of connection points: 2
#     Edge 34, Type (0, 0), BuildingBlock: OJICUG_clean_linker_0, # of connection points: 2
#     Edge 35, Type (0, 0), BuildingBlock: OJICUG_clean_linker_0, # of connection points: 2
# Relax obj value: 0.122
# Max RMSD: 0.175
# Mean RMSD: 0.172
data_MOF--net-una--node1-NAHDIM_clean_sbu_0--edge1-OJICUG_clean_linker_0
_symmetry_space_group_name_H-M    P1
_symmetry_Int_Tables_number       1
_symmetry_cell_setting            triclinic
loop_
_symmetry_equiv_pos_as_xyz
'x, y, z'
_cell_length_a     43.052323
_cell_length_b     42.345455
_cell_length_c     15.953073
_cell_angle_alpha  89.729715
_cell_angle_beta   89.719842
_cell_angle_gamma 120.63434
loop_
_atom_site_label
_atom_site_type_symbol
_atom_site_fract_x
_atom_site_fract_y
_atom_site_fract_z
_atom_type_partial_charge
C0 C 0.08122 0.39335 0.92492 0.0
O1 O 0.1091 0.39643 0.88355 0.0
O2 O 0.17175 0.46424 0.93694 0.0
Zn3 Zn 0.13569 0.451 0.03013 0.0
O4 O 0.13339 0.49574 0.06151 0.0
C5 C 0.17746 0.42738 0.12398 0.0
O6 O 0.19185 0.42956 0.04986 0.0
O7 O 0.08642 0.41254 0.99019 0.0
C8 C 0.16123 0.52769 0.0589 0.0
O9 O 0.19241 0.53157 0.03652 0.0
C10 C 0.17148 0.47917 0.86796 0.0
O11 O 0.1463 0.48737 0.8546 0.0
O12 O 0.1518 0.43391 0.13072 0.0
C13 C 0.75124 0.1794 0.27003 0.0
O14 O 0.75159 0.20301 0.21575 0.0
O15 O 0.64691 0.13899 0.22833 0.0
Zn16 Zn 0.68675 0.13254 0.18082 0.0
O17 O 0.70899 0.16443 0.0792 0.0
C18 C 0.63506 0.06775 0.10364 0.0
O19 O 0.62089 0.08867 0.09505 0.0
O20 O 0.72548 0.14619 0.26802 0.0
C21 C 0.73256 0.16019 0.04112 0.0
O22 O 0.73982 0.13547 0.06935 0.0
C23 C 0.64384 0.16682 0.21398 0.0
O24 O 0.66862 0.19411 0.16858 0.0
O25 O 0.66485 0.08029 0.14194 0.0
C26 C 0.61195 0.67557 0.26676 0.0
O27 O 0.58566 0.67525 0.22458 0.0
O28 O 0.57779 0.73387 0.3027 0.0
Zn29 Zn 0.58278 0.70175 0.38782 0.0
O30 O 0.53424 0.65676 0.41035 0.0
C31 C 0.6119 0.76507 0.49449 0.0
O32 O 0.61955 0.78246 0.42213 0.0
O33 O 0.61707 0.68659 0.34228 0.0
C34 C 0.51002 0.66086 0.44569 0.0
O35 O 0.51745 0.69412 0.46506 0.0
C36 C 0.55066 0.72563 0.25708 0.0
O37 O 0.52228 0.69235 0.26085 0.0
O38 O 0.59901 0.73053 0.49552 0.0
C39 C 0.93649 0.59267 0.52097 0.0
O40 O 0.93532 0.57313 0.5864 0.0
O41 O 0.82394 0.53868 0.43665 0.0
Zn42 Zn 0.85858 0.54502 0.52678 0.0
O43 O 0.86126 0.49888 0.53491 0.0
C44 C 0.80844 0.52463 0.6561 0.0
O45 O 0.79719 0.49406 0.61439 0.0
O46 O 0.90708 0.58702 0.48946 0.0
C47 C 0.86816 0.48742 0.60205 0.0
O48 O 0.87431 0.50639 0.67118 0.0
C49 C 0.79932 0.50805 0.40876 0.0
O50 O 0.79627 0.47746 0.43749 0.0
O51 O 0.83764 0.55313 0.63286 0.0
C52 C 0.23087 0.82581 0.78912 0.0
O53 O 0.21914 0.812 0.71453 0.0
O54 O 0.34326 0.85949 0.74014 0.0
Zn55 Zn 0.29985 0.86163 0.70254 0.0
O56 O 0.27615 0.82397 0.61268 0.0
C57 C 0.34532 0.93969 0.67987 0.0
O58 O 0.36188 0.93567 0.74441 0.0
O59 O 0.26436 0.84876 0.79888 0.0
C60 C 0.27699 0.83253 0.53602 0.0
O61 O 0.29467 0.86727 0.51336 0.0
C62 C 0.34143 0.82908 0.75524 0.0
O63 O 0.31013 0.79847 0.74954 0.0
O64 O 0.31667 0.91194 0.65338 0.0
C65 C 0.36101 0.31264 0.77923 0.0
O66 O 0.36186 0.28932 0.72666 0.0
O67 O 0.4069 0.26587 0.77583 0.0
Zn68 Zn 0.40919 0.29723 0.87207 0.0
O69 O 0.45987 0.34008 0.88156 0.0
C70 C 0.4121 0.24649 0.97801 0.0
O71 O 0.4355 0.25175 0.9185 0.0
O72 O 0.37709 0.31832 0.84913 0.0
C73 C 0.47449 0.35392 0.95125 0.0
O74 O 0.45631 0.33943 0.0211 0.0
C75 C 0.43351 0.27276 0.7287 0.0
O76 O 0.46465 0.30306 0.73955 0.0
O77 O 0.39596 0.26466 0.97519 0.0
C78 C 0.58366 0.82622 0.78594 0.0
O79 O 0.57985 0.81098 0.86 0.0
O80 O 0.50173 0.8555 0.82648 0.0
Zn81 Zn 0.54809 0.86048 0.86846 0.0
O82 O 0.53707 0.82528 0.96437 0.0
C83 C 0.56191 0.92412 0.95411 0.0
O84 O 0.52684 0.90318 0.96464 0.0
O85 O 0.57301 0.84904 0.77516 0.0
C86 C 0.56019 0.83414 0.02216 0.0
O87 O 0.58984 0.86649 0.019 0.0
C88 C 0.47108 0.82644 0.83487 0.0
O89 O 0.4691 0.79702 0.86811 0.0
O90 O 0.57872 0.91203 0.91179 0.0
C91 C 0.68406 0.60392 0.12859 0.0
O92 O 0.70678 0.59969 0.17512 0.0
O93 O 0.70727 0.53741 0.13251 0.0
Zn94 Zn 0.68049 0.54318 0.03737 0.0
O95 O 0.63217 0.49669 0.02782 0.0
C96 C 0.71459 0.52366 0.91763 0.0
O97 O 0.6964 0.4937 0.96322 0.0
O98 O 0.6713 0.5845 0.06314 0.0
C99 C 0.61564 0.48529 0.95883 0.0
O100 O 0.63045 0.50429 0.88987 0.0
C101 C 0.70027 0.50708 0.16537 0.0
O102 O 0.67262 0.47631 0.13871 0.0
O103 O 0.71146 0.55126 0.93449 0.0
C104 C 0.06947 0.66863 0.3305 0.0
O105 O 0.09781 0.66857 0.36025 0.0
O106 O 0.15931 0.72895 0.26795 0.0
Zn107 Zn 0.11795 0.6957 0.19398 0.0
O108 O 0.12098 0.65093 0.16809 0.0
C109 C 0.145 0.75863 0.08549 0.0
O110 O 0.15452 0.77576 0.15755 0.0
O111 O 0.07084 0.68001 0.25575 0.0
C112 C 0.14924 0.65468 0.13293 0.0
O113 O 0.17584 0.68785 0.11421 0.0
C114 C 0.17805 0.72044 0.31366 0.0
O115 O 0.17042 0.68623 0.31773 0.0
O116 O 0.12548 0.72376 0.08544 0.0
C117 C 0.40088 0.15506 0.25936 0.0
O118 O 0.38716 0.15817 0.33033 0.0
O119 O 0.48618 0.13374 0.34166 0.0
Zn120 Zn 0.43829 0.12929 0.36645 0.0
O121 O 0.44575 0.16764 0.45031 0.0
C122 C 0.41787 0.07482 0.48718 0.0
O123 O 0.44903 0.10165 0.51379 0.0
O124 O 0.42055 0.14059 0.2596 0.0
C125 C 0.41994 0.16174 0.49922 0.0
O126 O 0.3893 0.13034 0.49496 0.0
C127 C 0.51217 0.16288 0.30976 0.0
O128 O 0.50759 0.19066 0.29315 0.0
O129 O 0.40555 0.07921 0.41848 0.0
C130 C 0.32402 0.41719 0.65355 0.0
O131 O 0.3271 0.44371 0.70171 0.0
O132 O 0.28535 0.47064 0.6181 0.0
Zn133 Zn 0.31225 0.45932 0.53115 0.0
O134 O 0.36179 0.5035 0.50894 0.0
C135 C 0.24972 0.4246 0.42416 0.0
O136 O 0.23248 0.4113 0.49559 0.0
O137 O 0.31761 0.41779 0.57596 0.0
C138 C 0.36825 0.53614 0.51761 0.0
O139 O 0.34215 0.54144 0.54236 0.0
C140 C 0.26558 0.48429 0.60345 0.0
O141 O 0.26269 0.49348 0.52633 0.0
O142 O 0.28393 0.44479 0.424 0.0
C143 C 0.93896 0.32126 0.78038 0.0
O144 O 0.91264 0.32116 0.82274 0.0
O145 O 0.84851 0.26066 0.75441 0.0
Zn146 Zn 0.88297 0.29546 0.66795 0.0
O147 O 0.87962 0.34136 0.66589 0.0
C148 C 0.84811 0.23601 0.54973 0.0
O149 O 0.84082 0.21558 0.61746 0.0
O150 O 0.93324 0.31015 0.70496 0.0
C151 C 0.8712 0.35239 0.60031 0.0
O152 O 0.86398 0.33325 0.53119 0.0
C153 C 0.81909 0.25891 0.77437 0.0
O154 O 0.8102 0.28098 0.73758 0.0
O155 O 0.86837 0.27064 0.55548 0.0
C156 C 0.22907 0.42755 0.19533 0.0
C157 C 0.19406 0.42215 0.19969 0.0
H158 H 0.2742 0.43273 0.26317 0.0
C159 C 0.17634 0.41433 0.27781 0.0
H160 H 0.24347 0.43362 0.13609 0.0
C161 C 0.19381 0.41326 0.35054 0.0
C162 C 0.22953 0.42064 0.34657 0.0
H163 H 0.14929 0.40988 0.28304 0.0
H164 H 0.17989 0.40827 0.41021 0.0
C165 C 0.24674 0.42714 0.26813 0.0
C166 C 0.80009 0.1827 0.46983 0.0
C167 C 0.82721 0.21998 0.47226 0.0
H168 H 0.75476 0.14049 0.40391 0.0
C169 C 0.83127 0.2427 0.40354 0.0
H170 H 0.7963 0.16439 0.5216 0.0
C171 C 0.80739 0.22903 0.33641 0.0
C172 C 0.77894 0.19232 0.3363 0.0
H173 H 0.85197 0.2715 0.40308 0.0
H174 H 0.81057 0.24766 0.28589 0.0
C175 C 0.7762 0.16899 0.40247 0.0
C176 C 0.61161 0.81737 0.56598 0.0
C177 C 0.6108 0.78379 0.57155 0.0
H178 H 0.6034 0.85707 0.62932 0.0
C179 C 0.60472 0.7664 0.65008 0.0
H180 H 0.61622 0.8315 0.50638 0.0
C181 C 0.59771 0.78127 0.72066 0.0
C182 C 0.59612 0.81356 0.71392 0.0
H183 H 0.60409 0.7406 0.65647 0.0
H184 H 0.5919 0.7665 0.77968 0.0
C185 C 0.60407 0.83197 0.63634 0.0
C186 C 0.78942 0.55856 0.75328 0.0
C187 C 0.78592 0.52546 0.72533 0.0
H188 H 0.76902 0.58406 0.83533 0.0
C189 C 0.75894 0.49224 0.76089 0.0
H190 H 0.80982 0.58456 0.72648 0.0
C191 C 0.73588 0.49195 0.82282 0.0
C192 C 0.73889 0.52485 0.85025 0.0
H193 H 0.75553 0.46625 0.7408 0.0
H194 H 0.71544 0.46575 0.84878 0.0
C195 C 0.76589 0.55824 0.81491 0.0
C196 C 0.21645 0.82928 0.93998 0.0
C197 C 0.20622 0.81133 0.86253 0.0
H198 H 0.20455 0.82712 0.07086 0.0
C199 C 0.1733 0.77787 0.85727 0.0
H200 H 0.24149 0.85523 0.94588 0.0
C201 C 0.15227 0.76149 0.9291 0.0
C202 C 0.16344 0.77855 0.00738 0.0
H203 H 0.16458 0.76339 0.79841 0.0
H204 H 0.12795 0.73486 0.92381 0.0
C205 C 0.19512 0.81321 0.01152 0.0
C206 C 0.41858 0.17587 0.11078 0.0
C207 C 0.39936 0.17448 0.18342 0.0
H208 H 0.43764 0.19964 0.98949 0.0
C209 C 0.38194 0.195 0.18557 0.0
H210 H 0.43225 0.16039 0.1068 0.0
C211 C 0.38512 0.21774 0.11801 0.0
C212 C 0.40585 0.22043 0.04718 0.0
H213 H 0.36686 0.19452 0.24059 0.0
H214 H 0.37227 0.23399 0.12239 0.0
C215 C 0.42183 0.1986 0.04359 0.0
C216 C 0.18793 0.59579 0.06635 0.0
C217 C 0.15832 0.56018 0.07889 0.0
H218 H 0.20825 0.65354 0.07313 0.0
C219 C 0.12574 0.55591 0.10974 0.0
H220 H 0.2134 0.60004 0.04251 0.0
C221 C 0.12283 0.58658 0.1276 0.0
C222 C 0.15237 0.62219 0.1145 0.0
H223 H 0.10241 0.52885 0.1202 0.0
H224 H 0.09734 0.58233 0.15126 0.0
C225 C 0.18495 0.62647 0.08372 0.0
C226 C 0.58356 0.13644 0.286 0.0
C227 C 0.61118 0.16697 0.24281 0.0
H228 H 0.53079 0.11123 0.34097 0.0
C229 C 0.60652 0.1968 0.22456 0.0
H230 H 0.58625 0.11299 0.30117 0.0
C231 C 0.57461 0.19578 0.24748 0.0
C232 C 0.54668 0.16487 0.28895 0.0
H233 H 0.62729 0.22075 0.19146 0.0
H234 H 0.57164 0.21899 0.23152 0.0
C235 C 0.55168 0.13539 0.30872 0.0
C236 C 0.43224 0.56275 0.46751 0.0
C237 C 0.40464 0.5679 0.49943 0.0
H238 H 0.48714 0.58805 0.4252 0.0
C239 C 0.41206 0.60382 0.51348 0.0
H240 H 0.42741 0.53543 0.4559 0.0
C241 C 0.44628 0.63392 0.49616 0.0
C242 C 0.47384 0.62883 0.46403 0.0
H243 H 0.39143 0.60878 0.53801 0.0
H244 H 0.45103 0.66122 0.50773 0.0
C245 C 0.46646 0.59291 0.4498 0.0
C246 C 0.86076 0.43187 0.52873 0.0
C247 C 0.86882 0.45282 0.60208 0.0
H248 H 0.85509 0.38381 0.47072 0.0
C249 C 0.87741 0.44031 0.67518 0.0
H250 H 0.85394 0.44066 0.47134 0.0
C251 C 0.87806 0.40763 0.67481 0.0
C252 C 0.8701 0.38676 0.60133 0.0
H253 H 0.88373 0.45579 0.73274 0.0
H254 H 0.88489 0.3988 0.73211 0.0
C255 C 0.86138 0.39922 0.52838 0.0
C256 C 0.40847 0.86052 0.77157 0.0
C257 C 0.37449 0.82821 0.7757 0.0
H258 H 0.46551 0.88524 0.78614 0.0
C259 C 0.37254 0.7951 0.79818 0.0
H260 H 0.41096 0.88648 0.75416 0.0
C261 C 0.40391 0.79439 0.81673 0.0
C262 C 0.43788 0.82673 0.81263 0.0
H263 H 0.34677 0.76971 0.80182 0.0
H264 H 0.40151 0.7685 0.83441 0.0
C265 C 0.4398 0.85977 0.78955 0.0
C266 C 0.52878 0.40479 0.87825 0.0
C267 C 0.51106 0.38689 0.95317 0.0
H268 H 0.57559 0.44991 0.82124 0.0
C269 C 0.52832 0.40126 0.02983 0.0
H270 H 0.51624 0.39443 0.81807 0.0
C271 C 0.56243 0.433 0.03159 0.0
C272 C 0.57992 0.45119 0.95673 0.0
H273 H 0.51544 0.3881 0.08864 0.0
H274 H 0.5749 0.44346 0.09178 0.0
C275 C 0.56279 0.43665 0.88003 0.0
C276 C 0.2174 0.49615 0.65566 0.0
C277 C 0.24371 0.48669 0.67202 0.0
H278 H 0.17382 0.50131 0.70503 0.0
C279 C 0.24766 0.47739 0.75431 0.0
H280 H 0.21377 0.50352 0.59288 0.0
C281 C 0.22488 0.47612 0.8182 0.0
C282 C 0.19759 0.48412 0.80139 0.0
H283 H 0.26784 0.47022 0.76923 0.0
H284 H 0.22821 0.46805 0.88051 0.0
C285 C 0.19452 0.49488 0.71985 0.0
C286 C 0.74523 0.21022 0.93778 0.0
C287 C 0.75332 0.1843 0.96999 0.0
H288 H 0.7596 0.25412 0.85011 0.0
C289 C 0.78234 0.18234 0.93539 0.0
H290 H 0.72296 0.21232 0.96309 0.0
C291 C 0.80336 0.20634 0.87125 0.0
C292 C 0.79571 0.23269 0.83991 0.0
H293 H 0.78926 0.16266 0.95869 0.0
H294 H 0.82581 0.20436 0.84668 0.0
C295 C 0.76618 0.23414 0.87306 0.0
C296 C 0.52407 0.74444 0.14139 0.0
C297 C 0.55168 0.75358 0.19966 0.0
H298 H 0.50496 0.76288 0.03946 0.0
C299 C 0.58091 0.78985 0.20208 0.0
H300 H 0.50113 0.71676 0.13827 0.0
C301 C 0.58302 0.81622 0.14603 0.0
C302 C 0.55601 0.8069 0.08607 0.0
H303 H 0.6025 0.79791 0.24674 0.0
H304 H 0.60624 0.84374 0.14877 0.0
C305 C 0.52624 0.77088 0.08496 0.0
C306 C 0.77763 0.54034 0.31651 0.0
C307 C 0.77365 0.50725 0.34671 0.0
H308 H 0.75751 0.56617 0.23639 0.0
C309 C 0.74476 0.47383 0.31814 0.0
H310 H 0.79951 0.56658 0.33742 0.0
C311 C 0.72043 0.4736 0.25999 0.0
C312 C 0.72469 0.50677 0.22943 0.0
H313 H 0.74092 0.44789 0.34058 0.0
H314 H 0.69855 0.44748 0.2385 0.0
C315 C 0.75346 0.5401 0.25858 0.0
C316 C 0.22144 0.78607 0.34503 0.0
C317 C 0.20641 0.74883 0.36629 0.0
H318 H 0.25612 0.84181 0.38149 0.0
C319 C 0.2171 0.73927 0.44052 0.0
H320 H 0.2139 0.79418 0.28767 0.0
C321 C 0.24097 0.76658 0.49482 0.0
C322 C 0.25497 0.80384 0.47495 0.0
H323 H 0.20591 0.71075 0.45831 0.0
H324 H 0.24784 0.7585 0.55317 0.0
C325 C 0.24573 0.81334 0.39854 0.0
C326 C 0.39718 0.21164 0.6612 0.0
C327 C 0.42994 0.24514 0.66748 0.0
H328 H 0.36845 0.15903 0.60368 0.0
C329 C 0.45942 0.25119 0.61733 0.0
H330 H 0.37394 0.20608 0.69905 0.0
C331 C 0.45625 0.22409 0.56252 0.0
C332 C 0.42357 0.19045 0.55708 0.0
H333 H 0.48502 0.27671 0.62085 0.0
H334 H 0.47945 0.22945 0.52478 0.0
C335 C 0.39405 0.18458 0.6067 0.0
C336 C 0.01459 0.36692 0.93689 0.0
C337 C 0.04439 0.3713 0.89067 0.0
H338 H 0.95811 0.3475 0.9386 0.0
C339 C 0.03885 0.35671 0.80939 0.0
H340 H 0.01785 0.37761 -0.00018 0.0
C341 C 0.00442 0.33949 0.77385 0.0
C342 C 0.97491 0.33644 0.81911 0.0
H343 H 0.06128 0.35962 0.77214 0.0
H344 H 0.00111 0.32942 0.71031 0.0
C345 C 0.98028 0.34965 0.90161 0.0
C346 C 0.56197 0.9784 0.01362 0.0
C347 C 0.58113 0.9609 -0.00798 0.0
H348 H 0.56413 0.02596 0.06522 0.0
C349 C 0.6183 0.97855 0.0086 0.0
H350 H 0.53332 0.96548 0.00151 0.0
C351 C 0.63588 0.01303 0.04674 0.0
C352 C 0.61669 0.03066 0.0672 0.0
H353 H 0.63365 0.96553 -0.00695 0.0
H354 H 0.66454 0.02613 0.05886 0.0
C355 C 0.57962 0.01305 0.05003 0.0
C356 C 0.64291 0.62919 0.11291 0.0
C357 C 0.66909 0.62645 0.15935 0.0
H358 H 0.60454 0.64698 0.11021 0.0
C359 C 0.6784 0.64266 0.23904 0.0
H360 H 0.63519 0.61715 0.05124 0.0
C361 C 0.66063 0.65962 0.27319 0.0
C362 C 0.63329 0.66084 0.22823 0.0
H363 H 0.69853 0.64115 0.27646 0.0
H364 H 0.66767 0.67087 0.3357 0.0
C365 C 0.62526 0.64624 0.14692 0.0
C366 C 0.03561 0.64 0.46357 0.0
C367 C 0.03605 0.65303 0.38202 0.0
H368 H 0.00407 0.61117 0.57158 0.0
C369 C 0.00401 0.64918 0.34971 0.0
H370 H 0.05987 0.6428 0.49087 0.0
C371 C 0.97187 0.6311 0.39654 0.0
C372 C 0.97116 0.61644 0.47644 0.0
H373 H 0.00348 0.6591 0.28735 0.0
H374 H 0.94736 0.62744 0.36874 0.0
C375 C 0.00358 0.62189 0.51013 0.0
C376 C 0.41213 0.03746 0.61423 0.0
C377 C 0.39793 0.04062 0.53755 0.0
H378 H 0.40656 0.00348 0.71939 0.0
C379 C 0.36508 0.01088 0.51005 0.0
H380 H 0.43727 0.0599 0.63768 0.0
C381 C 0.34731 0.97835 0.55739 0.0
C382 C 0.36208 0.97498 0.63312 0.0
H383 H 0.35335 0.01252 0.45146 0.0
H384 H 0.32242 0.95563 0.53376 0.0
C385 C 0.39445 0.00508 0.66138 0.0
C386 C 0.32591 0.35934 0.63787 0.0
C387 C 0.32993 0.38823 0.68846 0.0
H388 H 0.33194 0.31244 0.62734 0.0
C389 C 0.34098 0.38995 0.77197 0.0
H390 H 0.31711 0.357 0.57353 0.0
C391 C 0.34951 0.36436 0.80296 0.0
C392 C 0.34704 0.33644 0.75115 0.0
H393 H 0.3441 0.41171 0.81285 0.0
H394 H 0.35915 0.36722 0.86664 0.0
C395 C 0.33429 0.33368 0.66893 0.0
loop_
_geom_bond_atom_site_label_1
_geom_bond_atom_site_label_2
_geom_bond_distance
_geom_bond_site_symmetry_2
_ccdc_geom_bond_type
C0 O1 1.160 . S
C0 O7 1.185 1_556 S
O1 C0 1.160 . S
O2 Zn3 1.899 1_556 S
O2 C10 1.284 . S
Zn3 O2 1.899 1_554 S
Zn3 O4 2.032 . S
Zn3 O7 2.086 . S
Zn3 O12 1.977 . S
O4 Zn3 2.032 . S
O4 C8 1.278 . S
C5 O6 1.203 . S
C5 O12 1.267 . S
O6 C5 1.203 . S
O7 C0 1.185 1_554 S
O7 Zn3 2.086 . S
C8 O4 1.278 . S
C8 O9 1.211 . S
O9 C8 1.211 . S
C10 O2 1.284 . S
C10 O11 1.273 . S
O11 C10 1.273 . S
O12 Zn3 1.977 . S
O12 C5 1.267 . S
C13 O14 1.160 . S
C13 O20 1.185 . S
O14 C13 1.160 . S
O15 Zn16 1.899 . S
O15 C23 1.284 . S
Zn16 O15 1.899 . S
Zn16 O17 2.032 . S
Zn16 O20 2.086 . S
Zn16 O25 1.977 . S
O17 Zn16 2.032 . S
O17 C21 1.278 . S
C18 O19 1.203 . S
C18 O25 1.267 . S
O19 C18 1.203 . S
O20 C13 1.185 . S
O20 Zn16 2.086 . S
C21 O17 1.278 . S
C21 O22 1.211 . S
O22 C21 1.211 . S
C23 O15 1.284 . S
C23 O24 1.273 . S
O24 C23 1.273 . S
O25 Zn16 1.977 . S
O25 C18 1.267 . S
C26 O27 1.160 . S
C26 O33 1.185 . S
O27 C26 1.160 . S
O28 Zn29 1.899 . S
O28 C36 1.284 . S
Zn29 O28 1.899 . S
Zn29 O30 2.032 . S
Zn29 O33 2.086 . S
Zn29 O38 1.977 . S
O30 Zn29 2.032 . S
O30 C34 1.278 . S
C31 O32 1.203 . S
C31 O38 1.267 . S
O32 C31 1.203 . S
O33 C26 1.185 . S
O33 Zn29 2.086 . S
C34 O30 1.278 . S
C34 O35 1.211 . S
O35 C34 1.211 . S
C36 O28 1.284 . S
C36 O37 1.273 . S
O37 C36 1.273 . S
O38 Zn29 1.977 . S
O38 C31 1.267 . S
C39 O40 1.160 . S
C39 O46 1.185 . S
O40 C39 1.160 . S
O41 Zn42 1.899 . S
O41 C49 1.284 . S
Zn42 O41 1.899 . S
Zn42 O43 2.032 . S
Zn42 O46 2.086 . S
Zn42 O51 1.977 . S
O43 Zn42 2.032 . S
O43 C47 1.278 . S
C44 O45 1.203 . S
C44 O51 1.267 . S
O45 C44 1.203 . S
O46 C39 1.185 . S
O46 Zn42 2.086 . S
C47 O43 1.278 . S
C47 O48 1.211 . S
O48 C47 1.211 . S
C49 O41 1.284 . S
C49 O50 1.273 . S
O50 C49 1.273 . S
O51 Zn42 1.977 . S
O51 C44 1.267 . S
C52 O53 1.160 . S
C52 O59 1.185 . S
O53 C52 1.160 . S
O54 Zn55 1.899 . S
O54 C62 1.284 . S
Zn55 O54 1.899 . S
Zn55 O56 2.032 . S
Zn55 O59 2.086 . S
Zn55 O64 1.977 . S
O56 Zn55 2.032 . S
O56 C60 1.278 . S
C57 O58 1.203 . S
C57 O64 1.267 . S
O58 C57 1.203 . S
O59 C52 1.185 . S
O59 Zn55 2.086 . S
C60 O56 1.278 . S
C60 O61 1.211 . S
O61 C60 1.211 . S
C62 O54 1.284 . S
C62 O63 1.273 . S
O63 C62 1.273 . S
O64 Zn55 1.977 . S
O64 C57 1.267 . S
C65 O66 1.160 . S
C65 O72 1.185 . S
O66 C65 1.160 . S
O67 Zn68 1.899 . S
O67 C75 1.284 . S
Zn68 O67 1.899 . S
Zn68 O69 2.032 . S
Zn68 O72 2.086 . S
Zn68 O77 1.977 . S
O69 Zn68 2.032 . S
O69 C73 1.278 . S
C70 O71 1.203 . S
C70 O77 1.267 . S
O71 C70 1.203 . S
O72 C65 1.185 . S
O72 Zn68 2.086 . S
C73 O69 1.278 . S
C73 O74 1.211 . S
O74 C73 1.211 . S
C75 O67 1.284 . S
C75 O76 1.273 . S
O76 C75 1.273 . S
O77 Zn68 1.977 . S
O77 C70 1.267 . S
C78 O79 1.160 . S
C78 O85 1.185 . S
O79 C78 1.160 . S
O80 Zn81 1.899 . S
O80 C88 1.284 . S
Zn81 O80 1.899 . S
Zn81 O82 2.032 . S
Zn81 O85 2.086 . S
Zn81 O90 1.977 . S
O82 Zn81 2.032 . S
O82 C86 1.278 1_556 S
C83 O84 1.203 . S
C83 O90 1.267 . S
O84 C83 1.203 . S
O85 C78 1.185 . S
O85 Zn81 2.086 . S
C86 O82 1.278 1_554 S
C86 O87 1.211 . S
O87 C86 1.211 . S
C88 O80 1.284 . S
C88 O89 1.273 . S
O89 C88 1.273 . S
O90 Zn81 1.977 . S
O90 C83 1.267 . S
C91 O92 1.160 . S
C91 O98 1.185 . S
O92 C91 1.160 . S
O93 Zn94 1.899 . S
O93 C101 1.284 . S
Zn94 O93 1.899 . S
Zn94 O95 2.032 . S
Zn94 O98 2.086 . S
Zn94 O103 1.977 1_554 S
O95 Zn94 2.032 . S
O95 C99 1.278 . S
C96 O97 1.203 . S
C96 O103 1.267 . S
O97 C96 1.203 . S
O98 C91 1.185 . S
O98 Zn94 2.086 . S
C99 O95 1.278 . S
C99 O100 1.211 1_554 S
O100 C99 1.211 1_556 S
C101 O93 1.284 . S
C101 O102 1.273 . S
O102 C101 1.273 . S
O103 Zn94 1.977 1_556 S
O103 C96 1.267 . S
C104 O105 1.160 . S
C104 O111 1.185 . S
O105 C104 1.160 . S
O106 Zn107 1.899 . S
O106 C114 1.284 . S
Zn107 O106 1.899 . S
Zn107 O108 2.032 . S
Zn107 O111 2.086 . S
Zn107 O116 1.977 . S
O108 Zn107 2.032 . S
O108 C112 1.278 . S
C109 O110 1.203 . S
C109 O116 1.267 . S
O110 C109 1.203 . S
O111 C104 1.185 . S
O111 Zn107 2.086 . S
C112 O108 1.278 . S
C112 O113 1.211 . S
O113 C112 1.211 . S
C114 O106 1.284 . S
C114 O115 1.273 . S
O115 C114 1.273 . S
O116 Zn107 1.977 . S
O116 C109 1.267 . S
C117 O118 1.160 . S
C117 O124 1.185 . S
O118 C117 1.160 . S
O119 Zn120 1.899 . S
O119 C127 1.284 . S
Zn120 O119 1.899 . S
Zn120 O121 2.032 . S
Zn120 O124 2.086 . S
Zn120 O129 1.977 . S
O121 Zn120 2.032 . S
O121 C125 1.278 . S
C122 O123 1.203 . S
C122 O129 1.267 . S
O123 C122 1.203 . S
O124 C117 1.185 . S
O124 Zn120 2.086 . S
C125 O121 1.278 . S
C125 O126 1.211 . S
O126 C125 1.211 . S
C127 O119 1.284 . S
C127 O128 1.273 . S
O128 C127 1.273 . S
O129 Zn120 1.977 . S
O129 C122 1.267 . S
C130 O131 1.160 . S
C130 O137 1.185 . S
O131 C130 1.160 . S
O132 Zn133 1.899 . S
O132 C140 1.284 . S
Zn133 O132 1.899 . S
Zn133 O134 2.032 . S
Zn133 O137 2.086 . S
Zn133 O142 1.977 . S
O134 Zn133 2.032 . S
O134 C138 1.278 . S
C135 O136 1.203 . S
C135 O142 1.267 . S
O136 C135 1.203 . S
O137 C130 1.185 . S
O137 Zn133 2.086 . S
C138 O134 1.278 . S
C138 O139 1.211 . S
O139 C138 1.211 . S
C140 O132 1.284 . S
C140 O141 1.273 . S
O141 C140 1.273 . S
O142 Zn133 1.977 . S
O142 C135 1.267 . S
C143 O144 1.160 . S
C143 O150 1.185 . S
O144 C143 1.160 . S
O145 Zn146 1.899 . S
O145 C153 1.284 . S
Zn146 O145 1.899 . S
Zn146 O147 2.032 . S
Zn146 O150 2.086 . S
Zn146 O155 1.977 . S
O147 Zn146 2.032 . S
O147 C151 1.278 . S
C148 O149 1.203 . S
C148 O155 1.267 . S
O149 C148 1.203 . S
O150 C143 1.185 . S
O150 Zn146 2.086 . S
C151 O147 1.278 . S
C151 O152 1.211 . S
O152 C151 1.211 . S
C153 O145 1.284 . S
C153 O154 1.273 . S
O154 C153 1.273 . S
O155 Zn146 1.977 . S
O155 C148 1.267 . S
C156 C157 1.387 . S
C156 H160 0.950 . S
C156 C165 1.390 . S
C157 C156 1.387 . S
C157 C159 1.387 . S
H158 C165 0.950 . S
C159 C157 1.387 . S
C159 C161 1.390 . S
C159 H163 0.950 . S
H160 C156 0.950 . S
C161 C159 1.390 . S
C161 C162 1.387 . S
C161 H164 0.950 . S
C162 C161 1.387 . S
C162 C165 1.387 . S
H163 C159 0.950 . S
H164 C161 0.950 . S
C165 C156 1.390 . S
C165 H158 0.950 . S
C165 C162 1.387 . S
C166 C167 1.387 . S
C166 H170 0.950 . S
C166 C175 1.390 . S
C167 C166 1.387 . S
C167 C169 1.387 . S
H168 C175 0.950 . S
C169 C167 1.387 . S
C169 C171 1.390 . S
C169 H173 0.950 . S
H170 C166 0.950 . S
C171 C169 1.390 . S
C171 C172 1.387 . S
C171 H174 0.950 . S
C172 C171 1.387 . S
C172 C175 1.387 . S
H173 C169 0.950 . S
H174 C171 0.950 . S
C175 C166 1.390 . S
C175 H168 0.950 . S
C175 C172 1.387 . S
C176 C177 1.387 . S
C176 H180 0.950 . S
C176 C185 1.390 . S
C177 C176 1.387 . S
C177 C179 1.387 . S
H178 C185 0.950 . S
C179 C177 1.387 . S
C179 C181 1.390 . S
C179 H183 0.950 . S
H180 C176 0.950 . S
C181 C179 1.390 . S
C181 C182 1.387 . S
C181 H184 0.950 . S
C182 C181 1.387 . S
C182 C185 1.387 . S
H183 C179 0.950 . S
H184 C181 0.950 . S
C185 C176 1.390 . S
C185 H178 0.950 . S
C185 C182 1.387 . S
C186 C187 1.387 . S
C186 H190 0.950 . S
C186 C195 1.390 . S
C187 C186 1.387 . S
C187 C189 1.387 . S
H188 C195 0.950 . S
C189 C187 1.387 . S
C189 C191 1.390 . S
C189 H193 0.950 . S
H190 C186 0.950 . S
C191 C189 1.390 . S
C191 C192 1.387 . S
C191 H194 0.950 . S
C192 C191 1.387 . S
C192 C195 1.387 . S
H193 C189 0.950 . S
H194 C191 0.950 . S
C195 C186 1.390 . S
C195 H188 0.950 . S
C195 C192 1.387 . S
C196 C197 1.387 1_554 S
C196 H200 0.950 . S
C196 C205 1.390 . S
C197 C196 1.387 1_556 S
C197 C199 1.387 . S
H198 C205 0.950 . S
C199 C197 1.387 . S
C199 C201 1.390 . S
C199 H203 0.950 . S
H200 C196 0.950 . S
C201 C199 1.390 . S
C201 C202 1.387 1_556 S
C201 H204 0.950 . S
C202 C201 1.387 1_554 S
C202 C205 1.387 . S
H203 C199 0.950 . S
H204 C201 0.950 . S
C205 C196 1.390 . S
C205 H198 0.950 . S
C205 C202 1.387 . S
C206 C207 1.387 . S
C206 H210 0.950 . S
C206 C215 1.390 . S
C207 C206 1.387 . S
C207 C209 1.387 . S
H208 C215 0.950 1_556 S
C209 C207 1.387 . S
C209 C211 1.390 . S
C209 H213 0.950 . S
H210 C206 0.950 . S
C211 C209 1.390 . S
C211 C212 1.387 . S
C211 H214 0.950 . S
C212 C211 1.387 . S
C212 C215 1.387 . S
H213 C209 0.950 . S
H214 C211 0.950 . S
C215 C206 1.390 . S
C215 H208 0.950 1_554 S
C215 C212 1.387 . S
C216 C217 1.387 . S
C216 H220 0.950 . S
C216 C225 1.390 . S
C217 C216 1.387 . S
C217 C219 1.387 . S
H218 C225 0.950 . S
C219 C217 1.387 . S
C219 C221 1.390 . S
C219 H223 0.950 . S
H220 C216 0.950 . S
C221 C219 1.390 . S
C221 C222 1.387 . S
C221 H224 0.950 . S
C222 C221 1.387 . S
C222 C225 1.387 . S
H223 C219 0.950 . S
H224 C221 0.950 . S
C225 C216 1.390 . S
C225 H218 0.950 . S
C225 C222 1.387 . S
C226 C227 1.387 . S
C226 H230 0.950 . S
C226 C235 1.390 . S
C227 C226 1.387 . S
C227 C229 1.387 . S
H228 C235 0.950 . S
C229 C227 1.387 . S
C229 C231 1.390 . S
C229 H233 0.950 . S
H230 C226 0.950 . S
C231 C229 1.390 . S
C231 C232 1.387 . S
C231 H234 0.950 . S
C232 C231 1.387 . S
C232 C235 1.387 . S
H233 C229 0.950 . S
H234 C231 0.950 . S
C235 C226 1.390 . S
C235 H228 0.950 . S
C235 C232 1.387 . S
C236 C237 1.387 . S
C236 H240 0.950 . S
C236 C245 1.390 . S
C237 C236 1.387 . S
C237 C239 1.387 . S
H238 C245 0.950 . S
C239 C237 1.387 . S
C239 C241 1.390 . S
C239 H243 0.950 . S
H240 C236 0.950 . S
C241 C239 1.390 . S
C241 C242 1.387 . S
C241 H244 0.950 . S
C242 C241 1.387 . S
C242 C245 1.387 . S
H243 C239 0.950 . S
H244 C241 0.950 . S
C245 C236 1.390 . S
C245 H238 0.950 . S
C245 C242 1.387 . S
C246 C247 1.387 . S
C246 H250 0.950 . S
C246 C255 1.390 . S
C247 C246 1.387 . S
C247 C249 1.387 . S
H248 C255 0.950 . S
C249 C247 1.387 . S
C249 C251 1.390 . S
C249 H253 0.950 . S
H250 C246 0.950 . S
C251 C249 1.390 . S
C251 C252 1.387 . S
C251 H254 0.950 . S
C252 C251 1.387 . S
C252 C255 1.387 . S
H253 C249 0.950 . S
H254 C251 0.950 . S
C255 C246 1.390 . S
C255 H248 0.950 . S
C255 C252 1.387 . S
C256 C257 1.387 . S
C256 H260 0.950 . S
C256 C265 1.390 . S
C257 C256 1.387 . S
C257 C259 1.387 . S
H258 C265 0.950 . S
C259 C257 1.387 . S
C259 C261 1.390 . S
C259 H263 0.950 . S
H260 C256 0.950 . S
C261 C259 1.390 . S
C261 C262 1.387 . S
C261 H264 0.950 . S
C262 C261 1.387 . S
C262 C265 1.387 . S
H263 C259 0.950 . S
H264 C261 0.950 . S
C265 C256 1.390 . S
C265 H258 0.950 . S
C265 C262 1.387 . S
C266 C267 1.387 . S
C266 H270 0.950 . S
C266 C275 1.390 . S
C267 C266 1.387 . S
C267 C269 1.374 1_556 S
H268 C275 0.950 . S
C269 C267 1.374 1_554 S
C269 C271 1.396 . S
C269 H273 0.957 . S
H270 C266 0.950 . S
C271 C269 1.396 . S
C271 C272 1.387 1_554 S
C271 H274 0.950 . S
C272 C271 1.387 1_556 S
C272 C275 1.387 . S
H273 C269 0.957 . S
H274 C271 0.950 . S
C275 C266 1.390 . S
C275 H268 0.950 . S
C275 C272 1.387 . S
C276 C277 1.387 . S
C276 H280 0.950 . S
C276 C285 1.390 . S
C277 C276 1.387 . S
C277 C279 1.387 . S
H278 C285 0.950 . S
C279 C277 1.387 . S
C279 C281 1.390 . S
C279 H283 0.950 . S
H280 C276 0.950 . S
C281 C279 1.390 . S
C281 C282 1.387 . S
C281 H284 0.950 . S
C282 C281 1.387 . S
C282 C285 1.387 . S
H283 C279 0.950 . S
H284 C281 0.950 . S
C285 C276 1.390 . S
C285 H278 0.950 . S
C285 C282 1.387 . S
C286 C287 1.387 . S
C286 H290 0.950 . S
C286 C295 1.390 1_554 S
C287 C286 1.387 . S
C287 C289 1.387 1_554 S
H288 C295 0.950 . S
C289 C287 1.387 1_556 S
C289 C291 1.390 . S
C289 H293 0.950 . S
H290 C286 0.950 . S
C291 C289 1.390 . S
C291 C292 1.387 . S
C291 H294 0.950 . S
C292 C291 1.387 . S
C292 C295 1.387 . S
H293 C289 0.950 . S
H294 C291 0.950 . S
C295 C286 1.390 1_556 S
C295 H288 0.950 . S
C295 C292 1.387 . S
C296 C297 1.387 . S
C296 H300 0.950 . S
C296 C305 1.390 . S
C297 C296 1.387 . S
C297 C299 1.387 . S
H298 C305 0.950 1_556 S
C299 C297 1.387 . S
C299 C301 1.390 . S
C299 H303 0.950 . S
H300 C296 0.950 . S
C301 C299 1.390 . S
C301 C302 1.387 . S
C301 H304 0.950 . S
C302 C301 1.387 . S
C302 C305 1.387 . S
H303 C299 0.950 . S
H304 C301 0.950 . S
C305 C296 1.390 . S
C305 H298 0.950 1_554 S
C305 C302 1.387 . S
C306 C307 1.387 . S
C306 H310 0.950 . S
C306 C315 1.390 . S
C307 C306 1.387 . S
C307 C309 1.387 . S
H308 C315 0.950 . S
C309 C307 1.387 . S
C309 C311 1.390 . S
C309 H313 0.950 . S
H310 C306 0.950 . S
C311 C309 1.390 . S
C311 C312 1.387 . S
C311 H314 0.950 . S
C312 C311 1.387 . S
C312 C315 1.387 . S
H313 C309 0.950 . S
H314 C311 0.950 . S
C315 C306 1.390 . S
C315 H308 0.950 . S
C315 C312 1.387 . S
C316 C317 1.387 . S
C316 H320 0.950 . S
C316 C325 1.390 . S
C317 C316 1.387 . S
C317 C319 1.387 . S
H318 C325 0.950 . S
C319 C317 1.387 . S
C319 C321 1.390 . S
C319 H323 0.950 . S
H320 C316 0.950 . S
C321 C319 1.390 . S
C321 C322 1.387 . S
C321 H324 0.950 . S
C322 C321 1.387 . S
C322 C325 1.387 . S
H323 C319 0.950 . S
H324 C321 0.950 . S
C325 C316 1.390 . S
C325 H318 0.950 . S
C325 C322 1.387 . S
C326 C327 1.387 . S
C326 H330 0.950 . S
C326 C335 1.390 . S
C327 C326 1.387 . S
C327 C329 1.387 . S
H328 C335 0.950 . S
C329 C327 1.387 . S
C329 C331 1.390 . S
C329 H333 0.950 . S
H330 C326 0.950 . S
C331 C329 1.390 . S
C331 C332 1.387 . S
C331 H334 0.950 . S
C332 C331 1.387 . S
C332 C335 1.387 . S
H333 C329 0.950 . S
H334 C331 0.950 . S
C335 C326 1.390 . S
C335 H328 0.950 . S
C335 C332 1.387 . S
C336 C337 1.387 . S
C336 H340 0.950 . S
C336 C345 1.390 1_455 S
C337 C336 1.387 . S
C337 C339 1.387 . S
H338 C345 0.950 . S
C339 C337 1.387 . S
C339 C341 1.390 1_455 S
C339 H343 0.950 . S
H340 C336 0.950 . S
C341 C339 1.390 1_655 S
C341 C342 1.387 . S
C341 H344 0.950 . S
C342 C341 1.387 . S
C342 C345 1.387 . S
H343 C339 0.950 . S
H344 C341 0.950 . S
C345 C336 1.390 1_655 S
C345 H338 0.950 . S
C345 C342 1.387 . S
C346 C347 1.387 1_554 S
C346 H350 0.950 1_554 S
C346 C355 1.390 1_565 S
C347 C346 1.387 1_556 S
C347 C349 1.387 1_556 S
H348 C355 0.950 . S
C349 C347 1.387 1_554 S
C349 C351 1.390 1_565 S
C349 H353 0.950 1_554 S
H350 C346 0.950 1_556 S
C351 C349 1.390 1_545 S
C351 C352 1.387 . S
C351 H354 0.950 . S
C352 C351 1.387 . S
C352 C355 1.387 . S
H353 C349 0.950 1_556 S
H354 C351 0.950 . S
C355 C346 1.390 1_545 S
C355 H348 0.950 . S
C355 C352 1.387 . S
C356 C357 1.387 . S
C356 H360 0.950 . S
C356 C365 1.390 . S
C357 C356 1.387 . S
C357 C359 1.387 . S
H358 C365 0.950 . S
C359 C357 1.387 . S
C359 C361 1.390 . S
C359 H363 0.950 . S
H360 C356 0.950 . S
C361 C359 1.390 . S
C361 C362 1.387 . S
C361 H364 0.950 . S
C362 C361 1.387 . S
C362 C365 1.387 . S
H363 C359 0.950 . S
H364 C361 0.950 . S
C365 C356 1.390 . S
C365 H358 0.950 . S
C365 C362 1.387 . S
C366 C367 1.387 . S
C366 H370 0.950 . S
C366 C375 1.390 1_455 S
C367 C366 1.387 . S
C367 C369 1.387 . S
H368 C375 0.950 . S
C369 C367 1.387 . S
C369 C371 1.390 1_455 S
C369 H373 0.950 . S
H370 C366 0.950 . S
C371 C369 1.390 1_655 S
C371 C372 1.387 . S
C371 H374 0.950 . S
C372 C371 1.387 . S
C372 C375 1.387 . S
H373 C369 0.950 . S
H374 C371 0.950 . S
C375 C366 1.390 1_655 S
C375 H368 0.950 . S
C375 C372 1.387 . S
C376 C377 1.387 . S
C376 H380 0.950 . S
C376 C385 1.390 1_545 S
C377 C376 1.387 . S
C377 C379 1.387 . S
H378 C385 0.950 . S
C379 C377 1.387 . S
C379 C381 1.390 1_545 S
C379 H383 0.950 . S
H380 C376 0.950 . S
C381 C379 1.390 1_565 S
C381 C382 1.387 . S
C381 H384 0.950 . S
C382 C381 1.387 . S
C382 C385 1.387 . S
H383 C379 0.950 . S
H384 C381 0.950 . S
C385 C376 1.390 1_565 S
C385 H378 0.950 . S
C385 C382 1.387 . S
C386 C387 1.387 . S
C386 H390 0.950 . S
C386 C395 1.390 . S
C387 C386 1.387 . S
C387 C389 1.387 . S
H388 C395 0.950 . S
C389 C387 1.387 . S
C389 C391 1.390 . S
C389 H393 0.950 . S
H390 C386 0.950 . S
C391 C389 1.390 . S
C391 C392 1.387 . S
C391 H394 0.950 . S
C392 C391 1.387 . S
C392 C395 1.387 . S
H393 C389 0.950 . S
H394 C391 0.950 . S
C395 C386 1.390 . S
C395 H388 0.950 . S
C395 C392 1.387 . S
C157 C5 1.232 . S
C162 C135 1.232 . S
C167 C148 1.212 . S
C172 C13 1.237 . S
C177 C31 1.213 . S
C182 C78 1.235 . S
C187 C44 1.236 . S
C192 C96 1.236 . S
C197 C52 1.234 . S
C202 C109 1.213 . S
C207 C117 1.234 . S
C212 C70 1.211 1_554 S
C217 C8 1.520 . S
C222 C112 1.519 . S
C227 C23 1.570 . S
C232 C127 1.570 . S
C237 C138 1.523 . S
C242 C34 1.521 . S
C247 C47 1.521 . S
C252 C151 1.520 . S
C257 C62 1.570 . S
C262 C88 1.570 . S
C267 C73 1.519 . S
C272 C99 1.522 1_556 S
C277 C140 1.252 . S
C282 C10 1.252 . S
C287 C21 1.218 . S
C292 C153 1.232 . S
C297 C36 1.232 . S
C302 C86 1.219 . S
C307 C49 1.252 . S
C312 C101 1.252 . S
C317 C114 1.231 . S
C322 C60 1.217 . S
C327 C75 1.232 . S
C332 C125 1.219 . S
C337 C0 1.430 . S
C342 C143 1.430 . S
C347 C83 1.434 . S
C352 C18 1.434 . S
C357 C91 1.433 . S
C362 C26 1.434 . S
C367 C104 1.434 . S
C372 C39 1.434 . S
C377 C122 1.434 . S
C382 C57 1.434 . S
C387 C130 1.430 . S
C392 C65 1.431 . S
