# Generated by pormake.
# Topology gis, (4)-cn, num edge types: 1
# Building blocks:
#     Node 0, Type 0, BuildingBlock: ICAMEG_clean_sbu_1, # of connection points: 4
#     Node 1, Type 0, BuildingBlock: ICAMEG_clean_sbu_1, # of connection points: 4
#     Node 2, Type 0, BuildingBlock: ICAMEG_clean_sbu_1, # of connection points: 4
#     Node 3, Type 0, BuildingBlock: ICAMEG_clean_sbu_1, # of connection points: 4
#     Node 4, Type 0, BuildingBlock: ICAMEG_clean_sbu_1, # of connection points: 4
#     Node 5, Type 0, BuildingBlock: ICAMEG_clean_sbu_1, # of connection points: 4
#     Node 6, Type 0, BuildingBlock: ICAMEG_clean_sbu_1, # of connection points: 4
#     Node 7, Type 0, BuildingBlock: ICAMEG_clean_sbu_1, # of connection points: 4
#     Node 8, Type 0, BuildingBlock: ICAMEG_clean_sbu_1, # of connection points: 4
#     Node 9, Type 0, BuildingBlock: ICAMEG_clean_sbu_1, # of connection points: 4
#     Node 10, Type 0, BuildingBlock: ICAMEG_clean_sbu_1, # of connection points: 4
#     Node 11, Type 0, BuildingBlock: ICAMEG_clean_sbu_1, # of connection points: 4
#     Node 12, Type 0, BuildingBlock: ICAMEG_clean_sbu_1, # of connection points: 4
#     Node 13, Type 0, BuildingBlock: ICAMEG_clean_sbu_1, # of connection points: 4
#     Node 14, Type 0, BuildingBlock: ICAMEG_clean_sbu_1, # of connection points: 4
#     Node 15, Type 0, BuildingBlock: ICAMEG_clean_sbu_1, # of connection points: 4
#     Edge 16, Type (0, 0), None
#     Edge 17, Type (0, 0), None
#     Edge 18, Type (0, 0), None
#     Edge 19, Type (0, 0), None
#     Edge 20, Type (0, 0), None
#     Edge 21, Type (0, 0), None
#     Edge 22, Type (0, 0), None
#     Edge 23, Type (0, 0), None
#     Edge 24, Type (0, 0), None
#     Edge 25, Type (0, 0), None
#     Edge 26, Type (0, 0), None
#     Edge 27, Type (0, 0), None
#     Edge 28, Type (0, 0), None
#     Edge 29, Type (0, 0), None
#     Edge 30, Type (0, 0), None
#     Edge 31, Type (0, 0), None
#     Edge 32, Type (0, 0), None
#     Edge 33, Type (0, 0), None
#     Edge 34, Type (0, 0), None
#     Edge 35, Type (0, 0), None
#     Edge 36, Type (0, 0), None
#     Edge 37, Type (0, 0), None
#     Edge 38, Type (0, 0), None
#     Edge 39, Type (0, 0), None
#     Edge 40, Type (0, 0), None
#     Edge 41, Type (0, 0), None
#     Edge 42, Type (0, 0), None
#     Edge 43, Type (0, 0), None
#     Edge 44, Type (0, 0), None
#     Edge 45, Type (0, 0), None
#     Edge 46, Type (0, 0), None
#     Edge 47, Type (0, 0), None
# Relax obj value: 0.026
# Max RMSD: 0.086
# Mean RMSD: 0.085
data_MOF--net-gis--node1-ICAMEG_clean_sbu_1--edge1-none
_symmetry_space_group_name_H-M    P1
_symmetry_Int_Tables_number       1
_symmetry_cell_setting            triclinic
loop_
_symmetry_equiv_pos_as_xyz
'x, y, z'
_cell_length_a     27.486965
_cell_length_b     27.527514
_cell_length_c     17.558148
_cell_angle_alpha  90.222238
_cell_angle_beta   90.022769
_cell_angle_gamma 90.077085
loop_
_atom_site_label
_atom_site_type_symbol
_atom_site_fract_x
_atom_site_fract_y
_atom_site_fract_z
_atom_type_partial_charge
Co0 Co 0.12585 0.63788 0.04261 0.0
Co1 Co 0.12425 0.6424 0.2403 0.0
O2 O 0.14698 0.61611 0.14288 0.0
C3 C 0.12603 0.52762 0.03668 0.0
O4 O 0.14297 0.52542 0.10634 0.0
C5 C 0.23306 0.64872 0.24337 0.0
O6 O 0.23235 0.66038 0.17108 0.0
O7 O 0.13361 0.71098 0.20522 0.0
O8 O 0.12904 0.70804 0.07706 0.0
H9 H 0.02202 0.6405 0.47671 0.0
H10 H 0.21324 0.5724 0.05463 0.0
O11 O 0.11976 0.56849 0.00387 0.0
H12 H 0.26876 0.71602 0.91272 0.0
H13 H 0.12723 0.63977 0.75616 0.0
H14 H 0.05139 0.70673 0.98806 0.0
H15 H 0.18526 0.71182 0.96291 0.0
H16 H 0.15373 0.61238 0.88299 0.0
O17 O 0.19354 0.64064 0.27921 0.0
H18 H 0.0394 0.62361 0.34151 0.0
H19 H 0.16536 0.71268 0.35187 0.0
H20 H 0.0192 0.72855 0.86298 0.0
H21 H 0.29712 0.57521 0.00641 0.0
H22 H 0.05807 0.6972 0.7451 0.0
H23 H 0.32518 0.64731 0.93352 0.0
O24 O 0.05637 0.63444 0.0746 0.0
H25 H 0.14756 0.50234 0.42108 0.0
H26 H 0.06633 0.55652 0.1864 0.0
H27 H 0.05059 0.47489 0.23409 0.0
H28 H 0.09195 0.44631 0.35174 0.0
H29 H 0.1605 0.58523 0.37332 0.0
H30 H 0.15016 0.72952 0.48779 0.0
H31 H 0.0782 0.69302 0.55134 0.0
O32 O 0.05447 0.6453 0.20212 0.0
C33 C 0.13246 0.73155 0.14004 0.0
C34 C 0.05325 0.65696 0.44957 0.0
C35 C 0.12543 0.70651 0.45597 0.0
N36 N 0.10347 0.66682 0.33888 0.0
C37 C 0.0629 0.64799 0.3727 0.0
C38 C 0.13367 0.69708 0.37881 0.0
C39 C 0.08501 0.68609 0.49156 0.0
C40 C 0.22488 0.6038 0.0233 0.0
N41 N 0.1937 0.64155 0.01058 0.0
C42 C 0.27272 0.60535 0.99644 0.0
C43 C 0.28861 0.64587 0.95609 0.0
C44 C 0.25699 0.68457 0.94458 0.0
C45 C 0.20971 0.68203 0.97324 0.0
C46 C 0.10967 0.65371 0.80666 0.0
C47 C 0.06786 0.69153 0.93742 0.0
C48 C 0.12504 0.63906 0.87873 0.0
N49 N 0.10472 0.65872 0.94294 0.0
C50 C 0.05004 0.70494 0.86643 0.0
C51 C 0.07134 0.68638 0.80055 0.0
C52 C 0.03339 0.64039 0.13709 0.0
C53 C 0.12968 0.51402 0.36936 0.0
C54 C 0.08395 0.5454 0.23819 0.0
C55 C 0.07526 0.4985 0.26468 0.0
C56 C 0.0984 0.48265 0.33061 0.0
N57 N 0.11472 0.57608 0.27615 0.0
C58 C 0.1373 0.56087 0.34136 0.0
Co59 Co 0.61708 0.87008 0.46837 0.0
Co60 Co 0.63173 0.86394 0.2722 0.0
O61 O 0.64856 0.88884 0.37382 0.0
C62 C 0.6252 0.97847 0.4752 0.0
O63 O 0.66296 0.97687 0.42955 0.0
C64 C 0.73942 0.87767 0.27421 0.0
O65 O 0.73421 0.91501 0.3202 0.0
O66 O 0.62711 0.79566 0.31333 0.0
O67 O 0.62568 0.7994 0.44258 0.0
H68 H 0.55083 0.87281 0.01622 0.0
H69 H 0.6562 0.91826 0.60942 0.0
O70 O 0.60396 0.93974 0.49592 0.0
H71 H 0.79374 0.82979 0.49456 0.0
H72 H 0.60601 0.76475 0.73224 0.0
H73 H 0.56463 0.86461 0.54769 0.0
H74 H 0.71292 0.8274 0.43494 0.0
H75 H 0.64682 0.80677 0.61294 0.0
O76 O 0.70274 0.85334 0.25167 0.0
H77 H 0.56035 0.89198 0.15235 0.0
H78 H 0.67292 0.78694 0.17105 0.0
H79 H 0.44478 0.82737 0.69759 0.0
H80 H 0.73759 0.92285 0.66976 0.0
H81 H 0.51149 0.77065 0.77617 0.0
H82 H 0.80671 0.87801 0.61277 0.0
O83 O 0.5543 0.86825 0.41581 0.0
H84 H 0.69204 0.99704 0.09861 0.0
H85 H 0.58911 0.95773 0.31971 0.0
H86 H 0.59591 0.04251 0.27738 0.0
H87 H 0.64776 0.06281 0.16605 0.0
H88 H 0.68396 0.91223 0.14261 0.0
H89 H 0.66604 0.76894 0.03366 0.0
H90 H 0.60425 0.81125 0.95579 0.0
O91 O 0.55984 0.87186 0.28914 0.0
C92 C 0.62602 0.77562 0.37957 0.0
C93 C 0.57726 0.8534 0.05003 0.0
C94 C 0.64234 0.79542 0.0598 0.0
N95 N 0.61719 0.84061 0.17007 0.0
C96 C 0.58252 0.86366 0.12753 0.0
C97 C 0.64602 0.80587 0.13753 0.0
C98 C 0.60755 0.81919 0.01599 0.0
C99 C 0.68639 0.89905 0.58394 0.0
N100 N 0.67973 0.8722 0.51909 0.0
C101 C 0.73216 0.90156 0.6186 0.0
C102 C 0.77109 0.87639 0.58653 0.0
C103 C 0.76392 0.8493 0.52032 0.0
C104 C 0.71786 0.8478 0.48706 0.0
C105 C 0.58253 0.78777 0.69869 0.0
C106 C 0.52748 0.86834 0.56354 0.0
C107 C 0.60925 0.81635 0.62272 0.0
N108 N 0.58338 0.85221 0.56241 0.0
C109 C 0.48246 0.82559 0.67788 0.0
C110 C 0.52336 0.79085 0.72684 0.0
C111 C 0.53526 0.87021 0.35036 0.0
C112 C 0.66924 0.98859 0.14699 0.0
C113 C 0.61147 0.96605 0.27093 0.0
C114 C 0.61524 0.01425 0.24722 0.0
C115 C 0.64439 0.02555 0.18488 0.0
N116 N 0.63625 0.93003 0.23404 0.0
C117 C 0.66465 0.94072 0.17236 0.0
Co118 Co 0.38795 0.36682 0.72253 0.0
Co119 Co 0.39095 0.36603 0.52483 0.0
O120 O 0.36638 0.38955 0.62275 0.0
C121 C 0.27856 0.37609 0.73138 0.0
O122 O 0.27548 0.38504 0.65841 0.0
C123 C 0.40402 0.47302 0.5239 0.0
O124 O 0.41775 0.47045 0.59525 0.0
O125 O 0.45984 0.3727 0.56026 0.0
O126 O 0.4574 0.36372 0.68764 0.0
H127 H 0.38407 0.26507 0.28676 0.0
H128 H 0.32855 0.4579 0.71631 0.0
O129 O 0.31945 0.36859 0.76328 0.0
H130 H 0.48248 0.50478 0.84025 0.0
H131 H 0.38685 0.36702 0.00889 0.0
H132 H 0.45053 0.28661 0.77798 0.0
H133 H 0.4696 0.42097 0.79512 0.0
H134 H 0.36592 0.39771 0.8816 0.0
O135 O 0.39202 0.43494 0.48717 0.0
H136 H 0.36825 0.28245 0.42229 0.0
H137 H 0.463 0.40421 0.41422 0.0
H138 H 0.46784 0.2523 0.90391 0.0
H139 H 0.33851 0.54093 0.76441 0.0
H140 H 0.43799 0.29309 0.02081 0.0
H141 H 0.41636 0.56538 0.8265 0.0
O142 O 0.37839 0.2977 0.68937 0.0
H143 H 0.25246 0.39622 0.34269 0.0
H144 H 0.30197 0.31059 0.57577 0.0
H145 H 0.21915 0.29973 0.52676 0.0
H146 H 0.1936 0.34277 0.4094 0.0
H147 H 0.33551 0.40532 0.39246 0.0
H148 H 0.47925 0.38865 0.27828 0.0
H149 H 0.43943 0.31876 0.21344 0.0
O150 O 0.39109 0.29672 0.56199 0.0
C151 C 0.48058 0.36853 0.62514 0.0
C152 C 0.40205 0.29531 0.31452 0.0
C153 C 0.45506 0.36494 0.30957 0.0
N154 N 0.41431 0.34451 0.42604 0.0
C155 C 0.3936 0.30501 0.39152 0.0
C156 C 0.44596 0.37338 0.38674 0.0
C157 C 0.43279 0.32568 0.27326 0.0
C158 C 0.36197 0.4675 0.7446 0.0
N159 N 0.39805 0.43398 0.75408 0.0
C160 C 0.36777 0.51505 0.77091 0.0
C161 C 0.41134 0.52868 0.8056 0.0
C162 C 0.44848 0.4947 0.81336 0.0
C163 C 0.44112 0.44731 0.78716 0.0
C164 C 0.40093 0.34911 0.95859 0.0
C165 C 0.43668 0.30452 0.82839 0.0
C166 C 0.3896 0.36655 0.88622 0.0
N167 N 0.40772 0.34443 0.82226 0.0
C168 C 0.44738 0.2853 0.89972 0.0
C169 C 0.42974 0.30785 0.96523 0.0
C170 C 0.38435 0.27527 0.62594 0.0
C171 C 0.26304 0.37755 0.39425 0.0
C172 C 0.2918 0.32939 0.5246 0.0
C173 C 0.24444 0.32322 0.49722 0.0
C174 C 0.23007 0.34746 0.43153 0.0
N175 N 0.32401 0.35933 0.48836 0.0
C176 C 0.31002 0.38301 0.42347 0.0
Co177 Co 0.88224 0.1446 0.7845 0.0
Co178 Co 0.88558 0.14643 0.98139 0.0
O179 O 0.86142 0.12247 0.88431 0.0
C180 C 0.77246 0.13787 0.78211 0.0
O181 O 0.77152 0.1146 0.8471 0.0
C182 C 0.89435 0.03822 0.98798 0.0
O183 O 0.91253 0.03815 0.91888 0.0
O184 O 0.95464 0.13762 0.94631 0.0
O185 O 0.95225 0.14401 0.81788 0.0
H186 H 0.87836 0.2502 0.21618 0.0
H187 H 0.82076 0.05234 0.79401 0.0
O188 O 0.81242 0.14895 0.74953 0.0
H189 H 0.97037 0.00662 0.65794 0.0
H190 H 0.87641 0.1404 0.49898 0.0
H191 H 0.94845 0.22122 0.72371 0.0
H192 H 0.95965 0.08963 0.70659 0.0
H193 H 0.85417 0.11475 0.62839 0.0
O194 O 0.88315 0.07797 0.02093 0.0
H195 H 0.86205 0.23034 0.08181 0.0
H196 H 0.95761 0.10965 0.09356 0.0
H197 H 0.96601 0.25176 0.59486 0.0
H198 H 0.82935 0.96941 0.74471 0.0
H199 H 0.93242 0.21033 0.48154 0.0
H200 H 0.90437 0.94631 0.6741 0.0
O201 O 0.87718 0.21416 0.8168 0.0
H202 H 0.74373 0.12526 0.16063 0.0
H203 H 0.79847 0.1988 0.92013 0.0
H204 H 0.71474 0.21242 0.96369 0.0
H205 H 0.68674 0.17579 0.08511 0.0
H206 H 0.82769 0.11327 0.11577 0.0
H207 H 0.97664 0.12977 0.22791 0.0
H208 H 0.93604 0.19959 0.29032 0.0
O209 O 0.88826 0.21539 0.94396 0.0
C210 C 0.97539 0.13989 0.88086 0.0
C211 C 0.89664 0.21983 0.18946 0.0
C212 C 0.95107 0.1516 0.19623 0.0
N213 N 0.90856 0.16868 0.08003 0.0
C214 C 0.88777 0.20858 0.11314 0.0
C215 C 0.94076 0.14093 0.11998 0.0
C216 C 0.92857 0.19112 0.2312 0.0
C217 C 0.85321 0.04321 0.76351 0.0
N218 N 0.88901 0.07689 0.75193 0.0
C219 C 0.85813 0.99571 0.73607 0.0
C220 C 0.90028 0.98256 0.69711 0.0
C221 C 0.93731 0.01645 0.68769 0.0
C222 C 0.93109 0.06346 0.7159 0.0
C223 C 0.89207 0.15863 0.54784 0.0
C224 C 0.93255 0.20344 0.67464 0.0
C225 C 0.88009 0.14396 0.6214 0.0
N226 N 0.90094 0.16576 0.68363 0.0
C227 C 0.94355 0.22032 0.60188 0.0
C228 C 0.92371 0.19751 0.53813 0.0
C229 C 0.88317 0.23674 0.87983 0.0
C230 C 0.75552 0.14151 0.10769 0.0
C231 C 0.7871 0.18298 0.97321 0.0
C232 C 0.73932 0.19063 0.99747 0.0
C233 C 0.72357 0.1699 0.06536 0.0
N234 N 0.81846 0.15528 0.01502 0.0
C235 C 0.80301 0.13451 0.08151 0.0
Co236 Co 0.12363 0.37378 0.98513 0.0
Co237 Co 0.12508 0.37812 0.78767 0.0
O238 O 0.14819 0.39831 0.88816 0.0
C239 C 0.11664 0.48203 0.99506 0.0
O240 O 0.0981 0.48278 0.92619 0.0
C241 C 0.23485 0.37921 0.77843 0.0
O242 O 0.23895 0.38895 0.85114 0.0
O243 O 0.1308 0.30812 0.81702 0.0
O244 O 0.1199 0.30511 0.94441 0.0
H245 H 0.03974 0.27005 0.60139 0.0
H246 H 0.18266 0.40819 0.11786 0.0
O247 O 0.12725 0.4419 0.02684 0.0
H248 H 0.29123 0.2976 0.977 0.0
H249 H 0.13072 0.2695 0.21798 0.0
H250 H 0.05256 0.41111 0.09848 0.0
H251 H 0.2093 0.31457 0.92928 0.0
H252 H 0.14572 0.28864 0.08322 0.0
O253 O 0.1934 0.37563 0.74667 0.0
H254 H 0.05742 0.30273 0.7287 0.0
H255 H 0.15011 0.40884 0.62998 0.0
H256 H 0.0345 0.39155 0.23294 0.0
H257 H 0.26507 0.39323 0.16597 0.0
H258 H 0.07466 0.32115 0.2939 0.0
H259 H 0.31989 0.33699 0.09633 0.0
O260 O 0.05429 0.38435 0.95183 0.0
H261 H 0.1859 0.54927 0.75096 0.0
H262 H 0.04888 0.43652 0.71145 0.0
H263 H 0.04456 0.51902 0.65831 0.0
H264 H 0.11406 0.57525 0.67509 0.0
H265 H 0.1888 0.46614 0.80244 0.0
H266 H 0.12855 0.38029 0.50143 0.0
H267 H 0.07276 0.30984 0.48632 0.0
O268 O 0.05535 0.37913 0.82361 0.0
C269 C 0.12545 0.28464 0.87919 0.0
C270 C 0.06167 0.30201 0.60697 0.0
C271 C 0.11266 0.36312 0.55089 0.0
N272 N 0.10411 0.35814 0.68697 0.0
C273 C 0.07272 0.32015 0.67908 0.0
C274 C 0.12438 0.37935 0.624 0.0
C275 C 0.08128 0.32384 0.54247 0.0
C276 C 0.20651 0.385 0.08514 0.0
N277 N 0.19067 0.36323 0.0193 0.0
C278 C 0.25313 0.37612 0.11357 0.0
C279 C 0.28383 0.34449 0.07461 0.0
C280 C 0.26768 0.32228 0.00786 0.0
C281 C 0.22077 0.33193 0.98122 0.0
C282 C 0.11258 0.30004 0.19188 0.0
C283 C 0.06903 0.3795 0.12411 0.0
C284 C 0.12076 0.31093 0.11537 0.0
N285 N 0.10042 0.35121 0.08317 0.0
C286 C 0.05931 0.36914 0.20049 0.0
C287 C 0.08158 0.32935 0.23464 0.0
C288 C 0.03272 0.38332 0.88707 0.0
C289 C 0.15558 0.52474 0.74222 0.0
C290 C 0.07861 0.46131 0.72133 0.0
C291 C 0.07607 0.50794 0.69079 0.0
C292 C 0.11513 0.53956 0.70048 0.0
N293 N 0.11941 0.44603 0.75871 0.0
C294 C 0.15708 0.47752 0.77116 0.0
Co295 Co 0.89015 0.88206 0.03448 0.0
Co296 Co 0.89345 0.87986 0.23147 0.0
O297 O 0.87006 0.90442 0.13468 0.0
C298 C 0.88646 0.99233 0.02898 0.0
O299 O 0.87009 0.9942 0.099 0.0
C300 C 0.78714 0.86656 0.24162 0.0
O301 O 0.7901 0.83917 0.18047 0.0
O302 O 0.88258 0.81114 0.19801 0.0
O303 O 0.8899 0.81226 0.06986 0.0
H304 H 0.99716 0.88219 0.46661 0.0
H305 H 0.80127 0.94602 0.04554 0.0
O306 O 0.89355 0.95156 0.99561 0.0
H307 H 0.74552 0.79437 0.92401 0.0
H308 H 0.87813 0.88137 0.74937 0.0
H309 H 0.96793 0.81758 0.97067 0.0
H310 H 0.83062 0.80344 0.96512 0.0
H311 H 0.85496 0.90508 0.87929 0.0
O312 O 0.8251 0.88553 0.27053 0.0
H313 H 0.97811 0.8994 0.3322 0.0
H314 H 0.85254 0.8105 0.34361 0.0
H315 H 0.99666 0.80004 0.84005 0.0
H316 H 0.71668 0.93936 1.00152 0.0
H317 H 0.9511 0.82993 0.72893 0.0
H318 H 0.68836 0.86351 0.93947 0.0
O319 O 0.96027 0.88705 0.06429 0.0
H320 H 0.87713 0.02343 0.40907 0.0
H321 H 0.95113 0.96383 0.17123 0.0
H322 H 0.96939 0.04592 0.21509 0.0
H323 H 0.93164 0.07727 0.33449 0.0
H324 H 0.86165 0.9399 0.36482 0.0
H325 H 0.87022 0.79171 0.47826 0.0
H326 H 0.94231 0.82858 0.5411 0.0
O327 O 0.96194 0.87434 0.19163 0.0
C328 C 0.88527 0.78974 0.13328 0.0
C329 C 0.96566 0.86578 0.43992 0.0
C330 C 0.89395 0.81569 0.4467 0.0
N331 N 0.91433 0.85631 0.33024 0.0
C332 C 0.95514 0.87503 0.36354 0.0
C333 C 0.88454 0.8259 0.37018 0.0
C334 C 0.93462 0.83612 0.48185 0.0
C335 C 0.78978 0.91302 0.01805 0.0
N336 N 0.82168 0.87569 0.00651 0.0
C337 C 0.74147 0.90927 0.99391 0.0
C338 C 0.72548 0.86656 0.95934 0.0
C339 C 0.75758 0.82791 0.95034 0.0
C340 C 0.80573 0.83315 0.97441 0.0
C341 C 0.89864 0.868 0.79741 0.0
C342 C 0.94838 0.83202 0.92238 0.0
C343 C 0.88509 0.88038 0.87146 0.0
N344 N 0.90928 0.86171 0.93295 0.0
C345 C 0.96446 0.8212 0.8488 0.0
C346 C 0.93919 0.83882 0.78607 0.0
C347 C 0.98298 0.87939 0.12678 0.0
C348 C 0.89348 0.01052 0.35669 0.0
C349 C 0.93522 0.97607 0.22384 0.0
C350 C 0.9452 0.02332 0.24808 0.0
C351 C 0.92411 0.04069 0.31493 0.0
N352 N 0.90516 0.94653 0.26482 0.0
C353 C 0.88446 0.9633 0.33078 0.0
Co354 Co 0.3862 0.6237 0.28892 0.0
Co355 Co 0.3826 0.62616 0.48558 0.0
O356 O 0.3623 0.60332 0.38657 0.0
C357 C 0.27984 0.64532 0.28385 0.0
O358 O 0.28214 0.65678 0.35628 0.0
C359 C 0.4023 0.52017 0.48585 0.0
O360 O 0.4159 0.52373 0.41457 0.0
O361 O 0.45423 0.62367 0.45619 0.0
O362 O 0.45542 0.61925 0.32702 0.0
H363 H 0.43377 0.74767 0.68085 0.0
H364 H 0.3128 0.54529 0.29639 0.0
O365 O 0.31769 0.63081 0.24847 0.0
H366 H 0.45851 0.46682 0.18958 0.0
H367 H 0.39163 0.61113 0.00359 0.0
H368 H 0.45291 0.70029 0.22831 0.0
H369 H 0.45956 0.55452 0.22293 0.0
H370 H 0.36488 0.58879 0.13208 0.0
O371 O 0.3871 0.55718 0.5223 0.0
H372 H 0.43761 0.70894 0.55405 0.0
H373 H 0.35709 0.58964 0.63914 0.0
H374 H 0.47112 0.72997 0.09914 0.0
H375 H 0.31011 0.45856 0.26236 0.0
H376 H 0.4449 0.68311 0.98618 0.0
H377 H 0.38335 0.41888 0.20818 0.0
O378 O 0.38561 0.69382 0.32088 0.0
H379 H 0.21293 0.55873 0.50876 0.0
H380 H 0.31722 0.70222 0.55123 0.0
H381 H 0.23017 0.70628 0.58418 0.0
H382 H 0.17747 0.63399 0.56363 0.0
H383 H 0.30008 0.55636 0.47566 0.0
H384 H 0.3577 0.62523 0.76747 0.0
H385 H 0.39535 0.70576 0.78866 0.0
O386 O 0.38082 0.6958 0.44935 0.0
C387 C 0.47703 0.62118 0.39198 0.0
C388 C 0.41819 0.71268 0.67212 0.0
C389 C 0.37594 0.64348 0.72113 0.0
N390 N 0.39792 0.6472 0.58842 0.0
C391 C 0.42016 0.6906 0.60051 0.0
C392 C 0.37678 0.62311 0.64821 0.0
C393 C 0.39653 0.68888 0.7329 0.0
C394 C 0.34476 0.52862 0.27195 0.0
N395 N 0.3862 0.55525 0.26063 0.0
C396 C 0.34306 0.47931 0.2533 0.0
C397 C 0.38422 0.45704 0.22319 0.0
C398 C 0.42651 0.48414 0.21264 0.0
C399 C 0.42694 0.53352 0.23193 0.0
C400 C 0.40498 0.63111 0.05248 0.0
C401 C 0.43926 0.68061 0.17938 0.0
C402 C 0.39078 0.61803 0.12584 0.0
N403 N 0.40884 0.64193 0.18838 0.0
C404 C 0.45136 0.69664 0.1065 0.0
C405 C 0.4352 0.67108 0.04281 0.0
C406 C 0.38456 0.7168 0.38456 0.0
C407 C 0.23561 0.59034 0.51841 0.0
C408 C 0.29454 0.6707 0.54155 0.0
C409 C 0.24525 0.67319 0.56057 0.0
C410 C 0.21569 0.63264 0.549 0.0
N411 N 0.31394 0.62894 0.51207 0.0
C412 C 0.28507 0.58914 0.50016 0.0
Co413 Co 0.62154 0.12673 0.71478 0.0
Co414 Co 0.61913 0.13186 0.51819 0.0
O415 O 0.64366 0.10674 0.61418 0.0
C416 C 0.72653 0.15138 0.74641 0.0
O417 O 0.7222 0.19411 0.71457 0.0
C418 C 0.60922 0.02501 0.50739 0.0
O419 O 0.58318 0.02609 0.57002 0.0
O420 O 0.54968 0.12184 0.55266 0.0
O421 O 0.55117 0.12955 0.68071 0.0
H422 H 0.6239 0.23644 0.28523 0.0
H423 H 0.6811 0.037 0.69635 0.0
O424 O 0.69074 0.12221 0.751 0.0
H425 H 0.53708 0.98812 0.84467 0.0
H426 H 0.63033 0.12176 1.00044 0.0
H427 H 0.55774 0.20405 0.77856 0.0
H428 H 0.54375 0.07091 0.79283 0.0
H429 H 0.64812 0.0937 0.87034 0.0
O430 O 0.6236 0.06414 0.47671 0.0
H431 H 0.63977 0.21773 0.42012 0.0
H432 H 0.54831 0.09376 0.40602 0.0
H433 H 0.54311 0.23569 0.90789 0.0
H434 H 0.67544 0.95353 0.74673 0.0
H435 H 0.57756 0.19392 0.01996 0.0
H436 H 0.60353 0.929 0.82242 0.0
O437 O 0.62963 0.19668 0.68654 0.0
H438 H 0.7575 0.11796 0.33083 0.0
H439 H 0.70718 0.18213 0.58028 0.0
H440 H 0.78957 0.19961 0.53348 0.0
H441 H 0.81509 0.16788 0.4069 0.0
H442 H 0.67513 0.10243 0.37951 0.0
H443 H 0.53049 0.1117 0.27123 0.0
H444 H 0.56905 0.18312 0.20963 0.0
O445 O 0.61685 0.20051 0.55951 0.0
C446 C 0.5282 0.12446 0.6175 0.0
C447 C 0.60632 0.20564 0.31165 0.0
C448 C 0.55437 0.13531 0.30357 0.0
N449 N 0.59527 0.15453 0.42066 0.0
C450 C 0.61488 0.19512 0.38823 0.0
C451 C 0.56416 0.12562 0.38011 0.0
C452 C 0.57595 0.17542 0.26906 0.0
C453 C 0.64905 0.02621 0.72771 0.0
N454 N 0.61276 0.05891 0.7419 0.0
C455 C 0.64612 0.97892 0.75599 0.0
C456 C 0.60568 0.96511 0.79847 0.0
C457 C 0.56824 0.99821 0.81072 0.0
C458 C 0.57211 0.04497 0.78091 0.0
C459 C 0.61419 0.14003 0.95219 0.0
C460 C 0.57339 0.18566 0.82703 0.0
C461 C 0.62379 0.12411 0.87821 0.0
N462 N 0.60315 0.14665 0.81676 0.0
C463 C 0.56431 0.20339 0.90014 0.0
C464 C 0.5845 0.18029 0.96308 0.0
C465 C 0.62439 0.22055 0.62468 0.0
C466 C 0.74681 0.13207 0.38597 0.0
C467 C 0.71792 0.168 0.52606 0.0
C468 C 0.7648 0.17788 0.49956 0.0
C469 C 0.77914 0.16001 0.42874 0.0
N470 N 0.68591 0.14156 0.48333 0.0
C471 C 0.70021 0.12306 0.41434 0.0
Co472 Co 0.88503 0.38259 0.97829 0.0
Co473 Co 0.88781 0.38087 0.78068 0.0
O474 O 0.864 0.40479 0.87825 0.0
C475 C 0.89737 0.49034 0.98369 0.0
O476 O 0.90606 0.48974 0.91038 0.0
C477 C 0.78077 0.36079 0.77636 0.0
O478 O 0.78308 0.34817 0.84818 0.0
O479 O 0.8832 0.31166 0.81397 0.0
O480 O 0.88505 0.3131 0.94243 0.0
H481 H 0.99378 0.38467 0.5462 0.0
H482 H 0.7997 0.44837 0.96889 0.0
O483 O 0.88697 0.45128 0.01869 0.0
H484 H 0.73609 0.29561 0.07592 0.0
H485 H 0.87393 0.38061 0.26366 0.0
H486 H 0.96189 0.31716 0.03959 0.0
H487 H 0.82316 0.30405 0.04486 0.0
H488 H 0.85022 0.40515 0.13445 0.0
O489 O 0.81864 0.37588 0.74167 0.0
H490 H 0.97561 0.39964 0.68085 0.0
H491 H 0.85005 0.31028 0.666 0.0
H492 H 0.99015 0.2972 0.16895 0.0
H493 H 0.71252 0.44186 1.00053 0.0
H494 H 0.9459 0.3275 0.28175 0.0
H495 H 0.68019 0.36507 0.05442 0.0
O496 O 0.9555 0.38825 0.94857 0.0
H497 H 0.81973 0.5415 0.68755 0.0
H498 H 0.96835 0.45791 0.77029 0.0
H499 H 0.97277 0.54217 0.732 0.0
H500 H 0.89857 0.58526 0.68929 0.0
H501 H 0.81548 0.45746 0.727 0.0
H502 H 0.86687 0.29433 0.53095 0.0
H503 H 0.93869 0.33237 0.46926 0.0
O504 O 0.95715 0.38135 0.82015 0.0
C505 C 0.88365 0.29048 0.87866 0.0
C506 C 0.96186 0.36857 0.5719 0.0
C507 C 0.89047 0.3183 0.56314 0.0
N508 N 0.91002 0.35866 0.68097 0.0
C509 C 0.95115 0.37728 0.64852 0.0
C510 C 0.88115 0.32756 0.64 0.0
C511 C 0.93089 0.3394 0.52871 0.0
C512 C 0.78606 0.41503 0.9932 0.0
N513 N 0.81667 0.37677 0.00555 0.0
C514 C 0.73658 0.41145 0.01056 0.0
C515 C 0.71843 0.36829 0.04059 0.0
C516 C 0.74978 0.32933 0.05269 0.0
C517 C 0.79905 0.33424 0.0347 0.0
C518 C 0.89394 0.36718 0.21496 0.0
C519 C 0.94272 0.33146 0.08851 0.0
C520 C 0.88021 0.38022 0.14138 0.0
N521 N 0.90416 0.36191 0.07922 0.0
C522 C 0.95858 0.31942 0.16148 0.0
C523 C 0.93399 0.33714 0.22502 0.0
C524 C 0.97844 0.38494 0.88517 0.0
C525 C 0.85261 0.52283 0.70454 0.0
C526 C 0.93534 0.47447 0.75064 0.0
C527 C 0.93834 0.52322 0.72934 0.0
C528 C 0.89674 0.54743 0.7057 0.0
N529 N 0.89206 0.4495 0.74789 0.0
C530 C 0.85083 0.47409 0.72641 0.0
Co531 Co 0.38046 0.12987 0.52563 0.0
Co532 Co 0.3825 0.13033 0.72291 0.0
O533 O 0.35833 0.10794 0.62488 0.0
C534 C 0.39841 0.02319 0.51059 0.0
O535 O 0.42622 0.02512 0.57131 0.0
C536 C 0.27493 0.14986 0.72744 0.0
O537 O 0.27666 0.16197 0.65538 0.0
O538 O 0.38048 0.19991 0.69059 0.0
O539 O 0.38392 0.19921 0.56207 0.0
H540 H 0.49209 0.12949 0.95503 0.0
H541 H 0.29152 0.06852 0.53464 0.0
O542 O 0.37719 0.06117 0.48633 0.0
H543 H 0.23761 0.22272 0.42042 0.0
H544 H 0.37414 0.12688 0.2399 0.0
H545 H 0.45861 0.19416 0.46499 0.0
H546 H 0.32339 0.21101 0.4572 0.0
H547 H 0.34706 0.1061 0.36922 0.0
O548 O 0.31332 0.13625 0.76215 0.0
H549 H 0.4742 0.11696 0.82007 0.0
H550 H 0.34392 0.19822 0.8414 0.0
H551 H 0.48861 0.21253 0.33597 0.0
H552 H 0.2055 0.0785 0.49789 0.0
H553 H 0.44611 0.18031 0.22267 0.0
H554 H 0.17818 0.15585 0.4397 0.0
O555 O 0.45077 0.12149 0.55566 0.0
H556 H 0.30308 0.97005 0.78529 0.0
H557 H 0.46037 0.0528 0.75611 0.0
H558 H 0.45794 0.97006 0.80618 0.0
H559 H 0.37931 0.92757 0.82038 0.0
H560 H 0.30621 0.05347 0.73991 0.0
H561 H 0.36161 0.21349 0.97605 0.0
H562 H 0.43526 0.17753 0.03516 0.0
O563 O 0.45218 0.12709 0.68421 0.0
C564 C 0.38256 0.22148 0.62623 0.0
C565 C 0.45898 0.14393 0.93077 0.0
C566 C 0.38562 0.19064 0.94278 0.0
N567 N 0.4051 0.15177 0.82351 0.0
C568 C 0.44798 0.13589 0.85404 0.0
C569 C 0.37567 0.18145 0.86606 0.0
C570 C 0.42708 0.17078 0.97574 0.0
C571 C 0.27998 0.10225 0.50906 0.0
N572 N 0.31262 0.13903 0.49759 0.0
C573 C 0.23116 0.10776 0.4887 0.0
C574 C 0.2158 0.15126 0.45636 0.0
C575 C 0.24914 0.18878 0.4455 0.0
C576 C 0.29765 0.18203 0.46673 0.0
C577 C 0.39291 0.14179 0.28888 0.0
C578 C 0.43986 0.17951 0.41586 0.0
C579 C 0.37759 0.13047 0.36243 0.0
N580 N 0.40086 0.1495 0.42479 0.0
C581 C 0.45676 0.19056 0.34306 0.0
C582 C 0.43311 0.1718 0.27927 0.0
C583 C 0.47369 0.12376 0.6193 0.0
C584 C 0.33768 0.98874 0.78178 0.0
C585 C 0.42547 0.03673 0.76679 0.0
C586 C 0.42459 0.98879 0.79286 0.0
C587 C 0.38038 0.96484 0.80096 0.0
N588 N 0.38319 0.06162 0.7537 0.0
C589 C 0.33983 0.03694 0.75743 0.0
Co590 Co 0.62218 0.631 0.28706 0.0
Co591 Co 0.62437 0.63047 0.48264 0.0
O592 O 0.64679 0.60822 0.38352 0.0
C593 C 0.7294 0.64319 0.2746 0.0
O594 O 0.72911 0.66444 0.34161 0.0
C595 C 0.62128 0.52311 0.49012 0.0
O596 O 0.59867 0.52286 0.42428 0.0
O597 O 0.55481 0.61561 0.45373 0.0
O598 O 0.55293 0.63285 0.32802 0.0
H599 H 0.50791 0.69107 0.6829 0.0
H600 H 0.68119 0.54084 0.29484 0.0
O601 O 0.68993 0.62843 0.24431 0.0
H602 H 0.5326 0.49623 0.154 0.0
H603 H 0.61833 0.63572 1.00075 0.0
H604 H 0.5612 0.71381 0.23767 0.0
H605 H 0.54184 0.57824 0.20931 0.0
H606 H 0.63975 0.60156 0.12567 0.0
O607 O 0.63351 0.56291 0.52167 0.0
H608 H 0.53614 0.6779 0.55082 0.0
H609 H 0.66579 0.61437 0.6362 0.0
H610 H 0.54653 0.75354 0.11473 0.0
H611 H 0.67226 0.45754 0.24413 0.0
H612 H 0.57133 0.71257 0.99451 0.0
H613 H 0.59767 0.43523 0.17155 0.0
O614 O 0.63315 0.69927 0.32006 0.0
H615 H 0.80346 0.59636 0.51273 0.0
H616 H 0.67341 0.71741 0.5484 0.0
H617 H 0.75714 0.73795 0.58594 0.0
H618 H 0.82244 0.67696 0.57074 0.0
H619 H 0.7192 0.57778 0.4734 0.0
H620 H 0.63929 0.629 0.7674 0.0
H621 H 0.55892 0.66706 0.79158 0.0
O622 O 0.61556 0.69994 0.44546 0.0
C623 C 0.53158 0.62278 0.39134 0.0
C624 C 0.54259 0.67477 0.67243 0.0
C625 C 0.61656 0.64031 0.72034 0.0
N626 N 0.60372 0.64772 0.58508 0.0
C627 C 0.55916 0.66765 0.59797 0.0
C628 C 0.63173 0.63298 0.64542 0.0
C629 C 0.57151 0.66134 0.73383 0.0
C630 C 0.64813 0.53087 0.26526 0.0
N631 N 0.61198 0.56425 0.25501 0.0
C632 C 0.64334 0.48372 0.23647 0.0
C633 C 0.60144 0.47111 0.19622 0.0
C634 C 0.56458 0.50521 0.18687 0.0
C635 C 0.57007 0.55158 0.21813 0.0
C636 C 0.60566 0.6531 0.05244 0.0
C637 C 0.57376 0.69647 0.18598 0.0
C638 C 0.61704 0.63354 0.12344 0.0
N639 N 0.60036 0.65477 0.18908 0.0
C640 C 0.56451 0.71866 0.11629 0.0
C641 C 0.57927 0.6961 0.04899 0.0
C642 C 0.62518 0.7217 0.38247 0.0
C643 C 0.77514 0.62324 0.52018 0.0
C644 C 0.70188 0.69104 0.53894 0.0
C645 C 0.74919 0.70276 0.56111 0.0
C646 C 0.7859 0.66844 0.55225 0.0
N647 N 0.69131 0.64635 0.50868 0.0
C648 C 0.72734 0.61283 0.4983 0.0
Co649 Co 0.12665 0.87982 0.22799 0.0
Co650 Co 0.12919 0.87458 0.03143 0.0
O651 O 0.14993 0.90071 0.12895 0.0
C652 C 0.23134 0.86261 0.24185 0.0
O653 O 0.22779 0.83298 0.18346 0.0
C654 C 0.11498 0.98203 0.01925 0.0
O655 O 0.0972 0.9829 0.08858 0.0
O656 O 0.05883 0.88072 0.06118 0.0
O657 O 0.05827 0.87563 0.18984 0.0
H658 H 0.13836 0.76524 0.80006 0.0
H659 H 0.18694 0.97003 0.21808 0.0
O660 O 0.19433 0.88451 0.26753 0.0
H661 H 0.03377 0.01899 0.34256 0.0
H662 H 0.12991 0.88581 0.51385 0.0
H663 H 0.06317 0.80119 0.2884 0.0
H664 H 0.04499 0.93553 0.29492 0.0
H665 H 0.14856 0.91462 0.38467 0.0
O666 O 0.12785 0.94215 0.98846 0.0
H667 H 0.14998 0.78501 0.93458 0.0
H668 H 0.06099 0.90986 0.91267 0.0
H669 H 0.04796 0.76893 0.41665 0.0
H670 H 0.17742 0.05428 0.26449 0.0
H671 H 0.07922 0.81184 0.5305 0.0
H672 H 0.10071 0.07845 0.32997 0.0
O673 O 0.13585 0.80935 0.20016 0.0
H674 H 0.29486 0.94167 0.95972 0.0
H675 H 0.20523 0.79261 0.02235 0.0
H676 H 0.28977 0.78731 0.98499 0.0
H677 H 0.33593 0.8618 0.95222 0.0
H678 H 0.21017 0.94646 0.99654 0.0
H679 H 0.04567 0.88928 0.77807 0.0
H680 H 0.08561 0.81751 0.72015 0.0
O681 O 0.12796 0.80615 0.0724 0.0
C682 C 0.03668 0.87848 0.12546 0.0
C683 C 0.12135 0.79719 0.82421 0.0
C684 C 0.06986 0.86713 0.81179 0.0
N685 N 0.10941 0.85063 0.9312 0.0
C686 C 0.12863 0.80914 0.90073 0.0
C687 C 0.07856 0.87835 0.88832 0.0
C688 C 0.09197 0.8266 0.77937 0.0
C689 C 0.15323 0.98068 0.24503 0.0
N690 N 0.11661 0.94764 0.25479 0.0
C691 C 0.14804 0.02843 0.27115 0.0
C692 C 0.10496 0.04217 0.3072 0.0
C693 C 0.06729 0.00874 0.31457 0.0
C694 C 0.07369 0.96155 0.28727 0.0
C695 C 0.11491 0.86715 0.46477 0.0
C696 C 0.07746 0.82016 0.3376 0.0
C697 C 0.12498 0.88349 0.39132 0.0
N698 N 0.10624 0.86007 0.32884 0.0
C699 C 0.06796 0.80208 0.41015 0.0
C700 C 0.08646 0.82581 0.47408 0.0
C701 C 0.13256 0.78565 0.1374 0.0
C702 C 0.27475 0.90866 0.97125 0.0
C703 C 0.22293 0.82568 0.00563 0.0
C704 C 0.27198 0.82223 0.9857 0.0
C705 C 0.29788 0.86396 0.96759 0.0
N706 N 0.19897 0.86939 0.00465 0.0
C707 C 0.22555 0.91078 0.99085 0.0
Co708 Co 0.89049 0.64481 0.03058 0.0
Co709 Co 0.88555 0.64428 0.2282 0.0
O710 O 0.86495 0.62142 0.12774 0.0
C711 C 0.89926 0.53657 0.02575 0.0
O712 O 0.91027 0.53694 0.09839 0.0
C713 C 0.77541 0.63594 0.23349 0.0
O714 O 0.77427 0.61693 0.16496 0.0
O715 O 0.87862 0.71361 0.19535 0.0
O716 O 0.89103 0.71414 0.06822 0.0
H717 H 0.97327 0.75214 0.41255 0.0
H718 H 0.83606 0.61 0.89337 0.0
O719 O 0.89079 0.57603 0.99065 0.0
H720 H 0.71707 0.70304 0.04426 0.0
H721 H 0.88689 0.74798 0.79588 0.0
H722 H 0.96293 0.60679 0.91991 0.0
H723 H 0.8013 0.69513 0.08816 0.0
H724 H 0.86902 0.72893 0.92993 0.0
O725 O 0.81577 0.64632 0.26583 0.0
H726 H 0.95039 0.72253 0.28551 0.0
H727 H 0.86147 0.6141 0.38639 0.0
H728 H 0.98118 0.62408 0.7852 0.0
H729 H 0.75203 0.6179 0.8466 0.0
H730 H 0.94281 0.6949 0.72208 0.0
H731 H 0.69177 0.66504 0.92184 0.0
O732 O 0.9592 0.63761 0.06745 0.0
H733 H 0.8344 0.46926 0.26737 0.0
H734 H 0.965 0.58972 0.30318 0.0
H735 H 0.97692 0.50636 0.34874 0.0
H736 H 0.91103 0.44574 0.33303 0.0
H737 H 0.82455 0.55259 0.22088 0.0
H738 H 0.88969 0.63848 0.51414 0.0
H739 H 0.94505 0.70929 0.52814 0.0
O740 O 0.95564 0.6452 0.19523 0.0
C741 C 0.88468 0.73587 0.13214 0.0
C742 C 0.95055 0.72068 0.40731 0.0
C743 C 0.90227 0.65782 0.46441 0.0
N744 N 0.90502 0.66634 0.32841 0.0
C745 C 0.93648 0.70436 0.33546 0.0
C746 C 0.887 0.64381 0.3918 0.0
C747 C 0.93377 0.69708 0.47217 0.0
C748 C 0.81013 0.6303 0.92699 0.0
N749 N 0.82391 0.65186 0.99402 0.0
C750 C 0.76257 0.63487 0.89984 0.0
C751 C 0.72881 0.6614 0.94196 0.0
C752 C 0.74303 0.68311 0.0102 0.0
C753 C 0.79105 0.67842 0.03496 0.0
C754 C 0.90422 0.71727 0.82286 0.0
C755 C 0.94645 0.638 0.89313 0.0
C756 C 0.89466 0.70664 0.8991 0.0
N757 N 0.91463 0.66664 0.93265 0.0
C758 C 0.95662 0.64735 0.81663 0.0
C759 C 0.93523 0.68723 0.78132 0.0
C760 C 0.97942 0.6409 0.13308 0.0
C761 C 0.86325 0.49557 0.27549 0.0
C762 C 0.93639 0.56348 0.29429 0.0
C763 C 0.94329 0.51627 0.32076 0.0
C764 C 0.90627 0.48224 0.31178 0.0
N765 N 0.89366 0.57687 0.26025 0.0
C766 C 0.85763 0.54324 0.24977 0.0
Co767 Co 0.12219 0.13734 0.9712 0.0
Co768 Co 0.11962 0.14208 0.77341 0.0
O769 O 0.14277 0.11562 0.8701 0.0
C770 C 0.12225 0.02731 0.97655 0.0
O771 O 0.13719 0.02483 0.90581 0.0
C772 C 0.22824 0.15142 0.76868 0.0
O773 O 0.22755 0.16301 0.84115 0.0
O774 O 0.12811 0.21047 0.80997 0.0
O775 O 0.12348 0.20722 0.93793 0.0
H776 H 0.01511 0.14147 0.53915 0.0
H777 H 0.20879 0.07125 0.96081 0.0
O778 O 0.11733 0.06823 0.00997 0.0
H779 H 0.26867 0.22018 0.08582 0.0
H780 H 0.13142 0.14113 0.25696 0.0
H781 H 0.04657 0.20423 0.03069 0.0
H782 H 0.1835 0.21416 0.04325 0.0
H783 H 0.15462 0.11356 0.12858 0.0
O784 O 0.18879 0.14159 0.73356 0.0
H785 H 0.03418 0.12333 0.67324 0.0
H786 H 0.15953 0.21316 0.66271 0.0
H787 H 0.01786 0.22625 0.15844 0.0
H788 H 0.2937 0.07527 0.00403 0.0
H789 H 0.06066 0.1962 0.27303 0.0
H790 H 0.32406 0.14981 0.06835 0.0
O791 O 0.05229 0.13314 0.94039 0.0
H792 H 0.1436 1.0036 0.58828 0.0
H793 H 0.06186 0.05548 0.82436 0.0
H794 H 0.04591 0.97441 0.77325 0.0
H795 H 0.0876 0.94703 0.65494 0.0
H796 H 0.15651 0.08594 0.63915 0.0
H797 H 0.14306 0.23073 0.52765 0.0
H798 H 0.07048 0.1946 0.46475 0.0
O799 O 0.05028 0.14402 0.81272 0.0
C800 C 0.12612 0.2308 0.87548 0.0
C801 C 0.04669 0.15766 0.56595 0.0
C802 C 0.11871 0.2074 0.55933 0.0
N803 N 0.09805 0.16681 0.6757 0.0
C804 C 0.05724 0.14803 0.64224 0.0
C805 C 0.12772 0.1975 0.636 0.0
C806 C 0.07795 0.18717 0.5241 0.0
C807 C 0.22124 0.10368 0.98908 0.0
N808 N 0.19048 0.14198 1.00075 0.0
C809 C 0.26969 0.1059 0.01298 0.0
C810 C 0.2868 0.14785 0.04865 0.0
C811 C 0.25571 0.18728 0.05857 0.0
C812 C 0.20752 0.18375 0.03386 0.0
C813 C 0.11173 0.15405 0.2078 0.0
C814 C 0.06484 0.18969 0.08011 0.0
C815 C 0.12531 0.13942 0.13473 0.0
N816 N 0.10248 0.15797 0.07197 0.0
C817 C 0.04884 0.20303 0.15242 0.0
C818 C 0.07252 0.18538 0.21669 0.0
C819 C 0.02931 0.13898 0.87773 0.0
C820 C 0.12564 0.01475 0.64034 0.0
C821 C 0.07969 0.04484 0.77238 0.0
C822 C 0.07086 0.99827 0.74393 0.0
C823 C 0.09414 0.98308 0.67759 0.0
N824 N 0.11063 0.07587 0.73581 0.0
C825 C 0.1333 0.06129 0.67017 0.0
Co826 Co 0.62505 0.36308 0.73095 0.0
Co827 Co 0.62637 0.3678 0.53319 0.0
O828 O 0.64853 0.38859 0.6339 0.0
C829 C 0.73423 0.35711 0.73503 0.0
O830 O 0.73427 0.34778 0.66181 0.0
C831 C 0.63172 0.47747 0.52951 0.0
O832 O 0.65008 0.47898 0.59838 0.0
O833 O 0.55713 0.37436 0.56519 0.0
O834 O 0.55557 0.36228 0.69245 0.0
H835 H 0.51695 0.28351 0.3474 0.0
H836 H 0.66107 0.41789 0.86687 0.0
O837 O 0.69429 0.36306 0.77076 0.0
H838 H 0.55953 0.53439 0.72583 0.0
H839 H 0.5205 0.36507 0.96514 0.0
H840 H 0.66413 0.29189 0.84212 0.0
H841 H 0.57172 0.45166 0.67676 0.0
H842 H 0.54006 0.38307 0.83122 0.0
O843 O 0.62361 0.43711 0.49596 0.0
H844 H 0.54868 0.30267 0.47462 0.0
H845 H 0.65683 0.39293 0.37562 0.0
H846 H 0.64734 0.2747 0.97734 0.0
H847 H 0.65065 0.50076 0.91692 0.0
H848 H 0.57515 0.31148 0.03983 0.0
H849 H 0.59912 0.5596 0.84688 0.0
O850 O 0.63191 0.29444 0.69421 0.0
H851 H 0.80025 0.42256 0.49369 0.0
H852 H 0.68306 0.28869 0.4596 0.0
H853 H 0.76712 0.27873 0.41409 0.0
H854 H 0.82608 0.34653 0.42904 0.0
H855 H 0.71638 0.43052 0.53984 0.0
H856 H 0.62935 0.36965 0.24709 0.0
H857 H 0.55771 0.31539 0.23216 0.0
O858 O 0.62503 0.29797 0.56631 0.0
C859 C 0.5344 0.36829 0.62789 0.0
C860 C 0.54862 0.30594 0.35291 0.0
C861 C 0.61104 0.35533 0.29665 0.0
N862 N 0.60487 0.34845 0.43265 0.0
C863 C 0.56638 0.31761 0.42496 0.0
C864 C 0.62681 0.36779 0.36967 0.0
C865 C 0.57117 0.32463 0.28833 0.0
C866 C 0.6395 0.4434 0.83473 0.0
N867 N 0.61751 0.42958 0.76808 0.0
C868 C 0.63335 0.49027 0.86394 0.0
C869 C 0.60438 0.52324 0.8247 0.0
C870 C 0.58207 0.50906 0.75694 0.0
C871 C 0.58894 0.46184 0.72956 0.0
C872 C 0.55191 0.34856 0.93848 0.0
C873 C 0.63249 0.30788 0.86874 0.0
C874 C 0.56269 0.35809 0.86225 0.0
N875 N 0.60326 0.33887 0.82891 0.0
C876 C 0.6233 0.29815 0.94543 0.0
C877 C 0.58276 0.31878 0.98048 0.0
C878 C 0.62769 0.27428 0.62868 0.0
C879 C 0.77467 0.39302 0.48585 0.0
C880 C 0.70861 0.31801 0.46798 0.0
C881 C 0.75618 0.31224 0.44155 0.0
C882 C 0.78925 0.35024 0.45002 0.0
N883 N 0.69408 0.36053 0.50157 0.0
C884 C 0.72675 0.39751 0.51144 0.0
Co885 Co 0.40268 0.86628 0.47203 0.0
Co886 Co 0.3849 0.85753 0.27481 0.0
O887 O 0.36738 0.88242 0.37809 0.0
C888 C 0.38942 0.97651 0.47172 0.0
O889 O 0.35906 0.97497 0.41417 0.0
C890 C 0.27882 0.87327 0.2743 0.0
O891 O 0.28525 0.91236 0.31619 0.0
O892 O 0.38785 0.79013 0.31586 0.0
O893 O 0.39366 0.79493 0.44437 0.0
H894 H 0.46559 0.85831 0.017 0.0
H895 H 0.3052 0.91731 0.47145 0.0
O896 O 0.40944 0.93797 0.49691 0.0
H897 H 0.29446 0.79223 0.67016 0.0
H898 H 0.50482 0.94211 0.70685 0.0
H899 H 0.46476 0.77834 0.50369 0.0
H900 H 0.36929 0.80166 0.59482 0.0
H901 H 0.42577 0.92483 0.62185 0.0
O902 O 0.3145 0.84709 0.25424 0.0
H903 H 0.45438 0.88477 0.15021 0.0
H904 H 0.34638 0.77609 0.1819 0.0
H905 H 0.54841 0.76026 0.57587 0.0
H906 H 0.22999 0.90945 0.5454 0.0
H907 H 0.58062 0.87591 0.7168 0.0
H908 H 0.22404 0.84654 0.64597 0.0
O909 O 0.46381 0.8699 0.41713 0.0
H910 H 0.32871 0.98641 0.09117 0.0
H911 H 0.43009 0.95234 0.3163 0.0
H912 H 0.42725 0.03546 0.26505 0.0
H913 H 0.37607 0.05301 0.1517 0.0
H914 H 0.33324 0.90366 0.14355 0.0
H915 H 0.35642 0.74888 0.0492 0.0
H916 H 0.41607 0.79037 0.96541 0.0
O917 O 0.45688 0.86529 0.2908 0.0
C918 C 0.38855 0.77069 0.38195 0.0
C919 C 0.43968 0.83989 0.05309 0.0
C920 C 0.37789 0.77893 0.07075 0.0
N921 N 0.39932 0.83238 0.17376 0.0
C922 C 0.43328 0.85451 0.12871 0.0
C923 C 0.37259 0.79432 0.14609 0.0
C924 C 0.41159 0.802 0.02394 0.0
C925 C 0.30386 0.89084 0.51605 0.0
N926 N 0.34288 0.86163 0.53077 0.0
C927 C 0.2607 0.88612 0.55745 0.0
C928 C 0.25733 0.85075 0.61372 0.0
C929 C 0.29683 0.82038 0.62743 0.0
C930 C 0.33938 0.82623 0.58495 0.0
C931 C 0.50264 0.90857 0.67515 0.0
C932 C 0.4737 0.8029 0.54904 0.0
C933 C 0.45349 0.89732 0.61749 0.0
N934 N 0.44405 0.85157 0.56261 0.0
C935 C 0.52792 0.79229 0.59244 0.0
C936 C 0.54907 0.86729 0.68138 0.0
C937 C 0.48204 0.86919 0.35114 0.0
C938 C 0.35091 0.9793 0.14082 0.0
C939 C 0.4078 0.95957 0.26705 0.0
C940 C 0.40627 0.0068 0.23828 0.0
C941 C 0.37753 0.01664 0.17479 0.0
N942 N 0.38127 0.92318 0.23402 0.0
C943 C 0.35338 0.93253 0.17116 0.0
loop_
_geom_bond_atom_site_label_1
_geom_bond_atom_site_label_2
_geom_bond_distance
_geom_bond_site_symmetry_2
_ccdc_geom_bond_type
Co0 O2 2.143 . S
Co0 O8 2.074 . S
Co0 O11 2.093 1_554 S
Co0 O24 2.097 . S
Co0 N41 2.151 1_554 S
Co0 N49 2.214 1_554 S
Co1 O2 2.160 . S
Co1 O7 2.058 . S
Co1 O17 2.057 . S
Co1 O32 2.037 . S
Co1 N36 2.145 . S
Co1 N57 2.257 . S
O2 Co0 2.143 . S
O2 Co1 2.160 . S
C3 O4 1.278 . S
C3 O11 1.224 1_554 S
O4 C3 1.278 . S
C5 O6 1.245 . S
C5 O17 1.232 . S
O6 C5 1.245 . S
O7 Co1 2.058 . S
O7 C33 1.269 . S
O8 Co0 2.074 . S
O8 C33 1.257 . S
H9 C34 0.930 . S
H10 C40 0.930 . S
O11 Co0 2.093 1_556 S
O11 C3 1.224 1_556 S
H12 C44 0.929 . S
H13 C46 0.930 . S
H14 C47 0.930 . S
H15 C45 0.929 . S
H16 C48 0.928 . S
O17 Co1 2.057 . S
O17 C5 1.232 . S
H18 C37 0.929 . S
H19 C38 0.929 . S
H20 C50 0.931 . S
H21 C42 0.929 . S
H22 C51 0.930 1_655 S
H23 C43 0.931 . S
O24 Co0 2.097 . S
O24 C52 1.214 . S
H25 C53 0.929 . S
H26 C54 0.929 . S
H27 C55 0.930 . S
H28 C56 0.929 . S
H29 C58 0.930 . S
H30 C35 0.930 . S
H31 C39 0.930 . S
O32 Co1 2.037 . S
O32 C52 1.234 . S
C33 O7 1.269 . S
C33 O8 1.257 . S
C34 H9 0.930 . S
C34 C37 1.388 . S
C34 C39 1.418 . S
C35 H30 0.930 . S
C35 C38 1.404 . S
C35 C39 1.353 . S
N36 Co1 2.145 . S
N36 C37 1.397 . S
N36 C38 1.334 . S
C37 H18 0.929 . S
C37 C34 1.388 . S
C37 N36 1.397 . S
C38 H19 0.929 . S
C38 C35 1.404 . S
C38 N36 1.334 . S
C39 H31 0.930 . S
C39 C34 1.418 . S
C39 C35 1.353 . S
C40 H10 0.930 . S
C40 N41 1.330 . S
C40 C42 1.446 . S
N41 Co0 2.151 1_556 S
N41 C40 1.330 . S
N41 C45 1.418 . S
C42 H21 0.929 . S
C42 C40 1.446 . S
C42 C43 1.332 . S
C43 H23 0.931 . S
C43 C42 1.332 . S
C43 C44 1.267 . S
C44 H12 0.929 . S
C44 C43 1.267 . S
C44 C45 1.251 . S
C45 H15 0.929 . S
C45 N41 1.418 . S
C45 C44 1.251 . S
C46 H13 0.930 . S
C46 C48 1.406 . S
C46 C51 1.261 . S
C47 H14 0.930 . S
C47 N49 1.325 . S
C47 C50 1.357 1_455 S
C48 H16 0.928 . S
C48 C46 1.406 . S
C48 N49 1.261 . S
N49 Co0 2.214 1_556 S
N49 C47 1.325 . S
N49 C48 1.261 . S
C50 H20 0.931 . S
C50 C47 1.357 1_655 S
C50 C51 1.312 1_655 S
C51 H22 0.930 1_455 S
C51 C46 1.261 . S
C51 C50 1.312 1_455 S
C52 O24 1.214 . S
C52 O32 1.234 . S
C53 H25 0.929 . S
C53 C56 1.391 . S
C53 C58 1.391 . S
C54 H26 0.929 . S
C54 C55 1.390 . S
C54 N57 1.391 . S
C55 H27 0.930 . S
C55 C54 1.390 . S
C55 C56 1.392 . S
C56 H28 0.929 . S
C56 C53 1.391 . S
C56 C55 1.392 . S
N57 Co1 2.257 . S
N57 C54 1.391 . S
N57 C58 1.388 . S
C58 H29 0.930 . S
C58 C53 1.391 . S
C58 N57 1.388 . S
Co59 O61 2.143 . S
Co59 O67 2.074 . S
Co59 O70 2.093 . S
Co59 O83 2.097 . S
Co59 N100 2.151 . S
Co59 N108 2.214 . S
Co60 O61 2.160 . S
Co60 O66 2.058 . S
Co60 O76 2.057 . S
Co60 O91 2.037 . S
Co60 N95 2.145 . S
Co60 N116 2.257 . S
O61 Co59 2.143 . S
O61 Co60 2.160 . S
C62 O63 1.278 . S
C62 O70 1.224 . S
O63 C62 1.278 . S
C64 O65 1.245 . S
C64 O76 1.232 . S
O65 C64 1.245 . S
O66 Co60 2.058 . S
O66 C92 1.269 . S
O67 Co59 2.074 . S
O67 C92 1.257 . S
H68 C93 0.930 . S
H69 C99 0.930 . S
O70 Co59 2.093 . S
O70 C62 1.224 . S
H71 C103 0.929 . S
H72 C105 0.930 . S
H73 C106 0.930 . S
H74 C104 0.929 . S
H75 C107 0.928 . S
O76 Co60 2.057 . S
O76 C64 1.232 . S
H77 C96 0.929 . S
H78 C97 0.929 . S
H79 C109 0.931 . S
H80 C101 0.929 . S
H81 C110 0.930 . S
H82 C102 0.931 . S
O83 Co59 2.097 . S
O83 C111 1.214 . S
H84 C112 0.929 . S
H85 C113 0.929 . S
H86 C114 0.930 . S
H87 C115 0.929 . S
H88 C117 0.930 . S
H89 C94 0.930 1_556 S
H90 C98 0.930 1_556 S
O91 Co60 2.037 . S
O91 C111 1.234 . S
C92 O66 1.269 . S
C92 O67 1.257 . S
C93 H68 0.930 . S
C93 C96 1.388 . S
C93 C98 1.418 . S
C94 H89 0.930 1_554 S
C94 C97 1.404 . S
C94 C98 1.353 . S
N95 Co60 2.145 . S
N95 C96 1.397 . S
N95 C97 1.334 . S
C96 H77 0.929 . S
C96 C93 1.388 . S
C96 N95 1.397 . S
C97 H78 0.929 . S
C97 C94 1.404 . S
C97 N95 1.334 . S
C98 H90 0.930 1_554 S
C98 C93 1.418 . S
C98 C94 1.353 . S
C99 H69 0.930 . S
C99 N100 1.330 . S
C99 C101 1.446 . S
N100 Co59 2.151 . S
N100 C99 1.330 . S
N100 C104 1.418 . S
C101 H80 0.929 . S
C101 C99 1.446 . S
C101 C102 1.332 . S
C102 H82 0.931 . S
C102 C101 1.332 . S
C102 C103 1.267 . S
C103 H71 0.929 . S
C103 C102 1.267 . S
C103 C104 1.251 . S
C104 H74 0.929 . S
C104 N100 1.418 . S
C104 C103 1.251 . S
C105 H72 0.930 . S
C105 C107 1.406 . S
C105 C110 1.261 . S
C106 H73 0.930 . S
C106 N108 1.325 . S
C106 C109 1.357 . S
C107 H75 0.928 . S
C107 C105 1.406 . S
C107 N108 1.261 . S
N108 Co59 2.214 . S
N108 C106 1.325 . S
N108 C107 1.261 . S
C109 H79 0.931 . S
C109 C106 1.357 . S
C109 C110 1.312 . S
C110 H81 0.930 . S
C110 C105 1.261 . S
C110 C109 1.312 . S
C111 O83 1.214 . S
C111 O91 1.234 . S
C112 H84 0.929 . S
C112 C115 1.391 . S
C112 C117 1.391 1_545 S
C113 H85 0.929 . S
C113 C114 1.390 . S
C113 N116 1.391 . S
C114 H86 0.930 . S
C114 C113 1.390 . S
C114 C115 1.392 1_565 S
C115 H87 0.929 . S
C115 C112 1.391 . S
C115 C114 1.392 1_545 S
N116 Co60 2.257 . S
N116 C113 1.391 . S
N116 C117 1.388 . S
C117 H88 0.930 . S
C117 C112 1.391 1_565 S
C117 N116 1.388 . S
Co118 O120 2.143 . S
Co118 O126 2.074 . S
Co118 O129 2.093 . S
Co118 O142 2.097 . S
Co118 N159 2.151 . S
Co118 N167 2.214 . S
Co119 O120 2.160 . S
Co119 O125 2.058 . S
Co119 O135 2.057 . S
Co119 O150 2.037 . S
Co119 N154 2.145 . S
Co119 N175 2.257 . S
O120 Co118 2.143 . S
O120 Co119 2.160 . S
C121 O122 1.278 . S
C121 O129 1.224 . S
O122 C121 1.278 . S
C123 O124 1.245 . S
C123 O135 1.232 . S
O124 C123 1.245 . S
O125 Co119 2.058 . S
O125 C151 1.269 . S
O126 Co118 2.074 . S
O126 C151 1.257 . S
H127 C152 0.930 . S
H128 C158 0.930 . S
O129 Co118 2.093 . S
O129 C121 1.224 . S
H130 C162 0.929 . S
H131 C164 0.930 1_554 S
H132 C165 0.930 . S
H133 C163 0.929 . S
H134 C166 0.928 . S
O135 Co119 2.057 . S
O135 C123 1.232 . S
H136 C155 0.929 . S
H137 C156 0.929 . S
H138 C168 0.931 . S
H139 C160 0.929 . S
H140 C169 0.930 . S
H141 C161 0.931 . S
O142 Co118 2.097 . S
O142 C170 1.214 . S
H143 C171 0.929 . S
H144 C172 0.929 . S
H145 C173 0.930 . S
H146 C174 0.929 . S
H147 C176 0.930 . S
H148 C153 0.930 . S
H149 C157 0.930 . S
O150 Co119 2.037 . S
O150 C170 1.234 . S
C151 O125 1.269 . S
C151 O126 1.257 . S
C152 H127 0.930 . S
C152 C155 1.388 . S
C152 C157 1.418 . S
C153 H148 0.930 . S
C153 C156 1.404 . S
C153 C157 1.353 . S
N154 Co119 2.145 . S
N154 C155 1.397 . S
N154 C156 1.334 . S
C155 H136 0.929 . S
C155 C152 1.388 . S
C155 N154 1.397 . S
C156 H137 0.929 . S
C156 C153 1.404 . S
C156 N154 1.334 . S
C157 H149 0.930 . S
C157 C152 1.418 . S
C157 C153 1.353 . S
C158 H128 0.930 . S
C158 N159 1.330 . S
C158 C160 1.446 . S
N159 Co118 2.151 . S
N159 C158 1.330 . S
N159 C163 1.418 . S
C160 H139 0.929 . S
C160 C158 1.446 . S
C160 C161 1.332 . S
C161 H141 0.931 . S
C161 C160 1.332 . S
C161 C162 1.267 . S
C162 H130 0.929 . S
C162 C161 1.267 . S
C162 C163 1.251 . S
C163 H133 0.929 . S
C163 N159 1.418 . S
C163 C162 1.251 . S
C164 H131 0.930 1_556 S
C164 C166 1.406 . S
C164 C169 1.261 . S
C165 H132 0.930 . S
C165 N167 1.325 . S
C165 C168 1.357 . S
C166 H134 0.928 . S
C166 C164 1.406 . S
C166 N167 1.261 . S
N167 Co118 2.214 . S
N167 C165 1.325 . S
N167 C166 1.261 . S
C168 H138 0.931 . S
C168 C165 1.357 . S
C168 C169 1.312 . S
C169 H140 0.930 . S
C169 C164 1.261 . S
C169 C168 1.312 . S
C170 O142 1.214 . S
C170 O150 1.234 . S
C171 H143 0.929 . S
C171 C174 1.391 . S
C171 C176 1.391 . S
C172 H144 0.929 . S
C172 C173 1.390 . S
C172 N175 1.391 . S
C173 H145 0.930 . S
C173 C172 1.390 . S
C173 C174 1.392 . S
C174 H146 0.929 . S
C174 C171 1.391 . S
C174 C173 1.392 . S
N175 Co119 2.257 . S
N175 C172 1.391 . S
N175 C176 1.388 . S
C176 H147 0.930 . S
C176 C171 1.391 . S
C176 N175 1.388 . S
Co177 O179 2.143 . S
Co177 O185 2.074 . S
Co177 O188 2.093 . S
Co177 O201 2.097 . S
Co177 N218 2.151 . S
Co177 N226 2.214 . S
Co178 O179 2.160 . S
Co178 O184 2.058 . S
Co178 O194 2.057 1_556 S
Co178 O209 2.037 . S
Co178 N213 2.145 1_556 S
Co178 N234 2.257 1_556 S
O179 Co177 2.143 . S
O179 Co178 2.160 . S
C180 O181 1.278 . S
C180 O188 1.224 . S
O181 C180 1.278 . S
C182 O183 1.245 . S
C182 O194 1.232 1_556 S
O183 C182 1.245 . S
O184 Co178 2.058 . S
O184 C210 1.269 . S
O185 Co177 2.074 . S
O185 C210 1.257 . S
H186 C211 0.930 . S
H187 C217 0.930 . S
O188 Co177 2.093 . S
O188 C180 1.224 . S
H189 C221 0.929 . S
H190 C223 0.930 . S
H191 C224 0.930 . S
H192 C222 0.929 . S
H193 C225 0.928 . S
O194 Co178 2.057 1_554 S
O194 C182 1.232 1_554 S
H195 C214 0.929 . S
H196 C215 0.929 . S
H197 C227 0.931 . S
H198 C219 0.929 1_565 S
H199 C228 0.930 . S
H200 C220 0.931 1_565 S
O201 Co177 2.097 . S
O201 C229 1.214 . S
H202 C230 0.929 . S
H203 C231 0.929 . S
H204 C232 0.930 . S
H205 C233 0.929 . S
H206 C235 0.930 1_556 S
H207 C212 0.930 . S
H208 C216 0.930 . S
O209 Co178 2.037 . S
O209 C229 1.234 . S
C210 O184 1.269 . S
C210 O185 1.257 . S
C211 H186 0.930 . S
C211 C214 1.388 . S
C211 C216 1.418 . S
C212 H207 0.930 . S
C212 C215 1.404 . S
C212 C216 1.353 . S
N213 Co178 2.145 1_554 S
N213 C214 1.397 . S
N213 C215 1.334 . S
C214 H195 0.929 . S
C214 C211 1.388 . S
C214 N213 1.397 . S
C215 H196 0.929 . S
C215 C212 1.404 . S
C215 N213 1.334 . S
C216 H208 0.930 . S
C216 C211 1.418 . S
C216 C212 1.353 . S
C217 H187 0.930 . S
C217 N218 1.330 . S
C217 C219 1.446 . S
N218 Co177 2.151 . S
N218 C217 1.330 . S
N218 C222 1.418 . S
C219 H198 0.929 1_545 S
C219 C217 1.446 . S
C219 C220 1.332 . S
C220 H200 0.931 1_545 S
C220 C219 1.332 . S
C220 C221 1.267 . S
C221 H189 0.929 . S
C221 C220 1.267 . S
C221 C222 1.251 . S
C222 H192 0.929 . S
C222 N218 1.418 . S
C222 C221 1.251 . S
C223 H190 0.930 . S
C223 C225 1.406 . S
C223 C228 1.261 . S
C224 H191 0.930 . S
C224 N226 1.325 . S
C224 C227 1.357 . S
C225 H193 0.928 . S
C225 C223 1.406 . S
C225 N226 1.261 . S
N226 Co177 2.214 . S
N226 C224 1.325 . S
N226 C225 1.261 . S
C227 H197 0.931 . S
C227 C224 1.357 . S
C227 C228 1.312 . S
C228 H199 0.930 . S
C228 C223 1.261 . S
C228 C227 1.312 . S
C229 O201 1.214 . S
C229 O209 1.234 . S
C230 H202 0.929 . S
C230 C233 1.391 . S
C230 C235 1.391 . S
C231 H203 0.929 . S
C231 C232 1.390 . S
C231 N234 1.391 . S
C232 H204 0.930 . S
C232 C231 1.390 . S
C232 C233 1.392 . S
C233 H205 0.929 . S
C233 C230 1.391 . S
C233 C232 1.392 . S
N234 Co178 2.257 1_554 S
N234 C231 1.391 . S
N234 C235 1.388 . S
C235 H206 0.930 1_554 S
C235 C230 1.391 . S
C235 N234 1.388 . S
Co236 O238 2.143 . S
Co236 O244 2.074 . S
Co236 O247 2.093 1_556 S
Co236 O260 2.097 . S
Co236 N277 2.151 1_556 S
Co236 N285 2.214 1_556 S
Co237 O238 2.160 . S
Co237 O243 2.058 . S
Co237 O253 2.057 . S
Co237 O268 2.037 . S
Co237 N272 2.145 . S
Co237 N293 2.257 . S
O238 Co236 2.143 . S
O238 Co237 2.160 . S
C239 O240 1.278 . S
C239 O247 1.224 1_556 S
O240 C239 1.278 . S
C241 O242 1.245 . S
C241 O253 1.232 . S
O242 C241 1.245 . S
O243 Co237 2.058 . S
O243 C269 1.269 . S
O244 Co236 2.074 . S
O244 C269 1.257 . S
H245 C270 0.930 . S
H246 C276 0.930 . S
O247 Co236 2.093 1_554 S
O247 C239 1.224 1_554 S
H248 C280 0.929 . S
H249 C282 0.930 . S
H250 C283 0.930 . S
H251 C281 0.929 . S
H252 C284 0.928 . S
O253 Co237 2.057 . S
O253 C241 1.232 . S
H254 C273 0.929 . S
H255 C274 0.929 . S
H256 C286 0.931 . S
H257 C278 0.929 . S
H258 C287 0.930 1_655 S
H259 C279 0.931 . S
O260 Co236 2.097 . S
O260 C288 1.214 . S
H261 C289 0.929 . S
H262 C290 0.929 . S
H263 C291 0.930 . S
H264 C292 0.929 . S
H265 C294 0.930 . S
H266 C271 0.930 . S
H267 C275 0.930 . S
O268 Co237 2.037 . S
O268 C288 1.234 . S
C269 O243 1.269 . S
C269 O244 1.257 . S
C270 H245 0.930 . S
C270 C273 1.388 . S
C270 C275 1.418 . S
C271 H266 0.930 . S
C271 C274 1.404 . S
C271 C275 1.353 . S
N272 Co237 2.145 . S
N272 C273 1.397 . S
N272 C274 1.334 . S
C273 H254 0.929 . S
C273 C270 1.388 . S
C273 N272 1.397 . S
C274 H255 0.929 . S
C274 C271 1.404 . S
C274 N272 1.334 . S
C275 H267 0.930 . S
C275 C270 1.418 . S
C275 C271 1.353 . S
C276 H246 0.930 . S
C276 N277 1.330 . S
C276 C278 1.446 . S
N277 Co236 2.151 1_554 S
N277 C276 1.330 . S
N277 C281 1.418 . S
C278 H257 0.929 . S
C278 C276 1.446 . S
C278 C279 1.332 . S
C279 H259 0.931 . S
C279 C278 1.332 . S
C279 C280 1.267 . S
C280 H248 0.929 . S
C280 C279 1.267 . S
C280 C281 1.251 . S
C281 H251 0.929 . S
C281 N277 1.418 . S
C281 C280 1.251 . S
C282 H249 0.930 . S
C282 C284 1.406 . S
C282 C287 1.261 . S
C283 H250 0.930 . S
C283 N285 1.325 . S
C283 C286 1.357 1_455 S
C284 H252 0.928 . S
C284 C282 1.406 . S
C284 N285 1.261 . S
N285 Co236 2.214 1_554 S
N285 C283 1.325 . S
N285 C284 1.261 . S
C286 H256 0.931 . S
C286 C283 1.357 1_655 S
C286 C287 1.312 1_655 S
C287 H258 0.930 1_455 S
C287 C282 1.261 . S
C287 C286 1.312 1_455 S
C288 O260 1.214 . S
C288 O268 1.234 . S
C289 H261 0.929 . S
C289 C292 1.391 . S
C289 C294 1.391 . S
C290 H262 0.929 . S
C290 C291 1.390 . S
C290 N293 1.391 . S
C291 H263 0.930 . S
C291 C290 1.390 . S
C291 C292 1.392 . S
C292 H264 0.929 . S
C292 C289 1.391 . S
C292 C291 1.392 . S
N293 Co237 2.257 . S
N293 C290 1.391 . S
N293 C294 1.388 . S
C294 H265 0.930 . S
C294 C289 1.391 . S
C294 N293 1.388 . S
Co295 O297 2.143 . S
Co295 O303 2.074 . S
Co295 O306 2.093 1_554 S
Co295 O319 2.097 . S
Co295 N336 2.151 1_554 S
Co295 N344 2.214 1_554 S
Co296 O297 2.160 . S
Co296 O302 2.058 . S
Co296 O312 2.057 . S
Co296 O327 2.037 . S
Co296 N331 2.145 . S
Co296 N352 2.257 . S
O297 Co295 2.143 . S
O297 Co296 2.160 . S
C298 O299 1.278 . S
C298 O306 1.224 1_554 S
O299 C298 1.278 . S
C300 O301 1.245 . S
C300 O312 1.232 . S
O301 C300 1.245 . S
O302 Co296 2.058 . S
O302 C328 1.269 . S
O303 Co295 2.074 . S
O303 C328 1.257 . S
H304 C329 0.930 . S
H305 C335 0.930 . S
O306 Co295 2.093 1_556 S
O306 C298 1.224 1_556 S
H307 C339 0.929 . S
H308 C341 0.930 . S
H309 C342 0.930 . S
H310 C340 0.929 . S
H311 C343 0.928 . S
O312 Co296 2.057 . S
O312 C300 1.232 . S
H313 C332 0.929 . S
H314 C333 0.929 . S
H315 C345 0.931 . S
H316 C337 0.929 . S
H317 C346 0.930 1_455 S
H318 C338 0.931 . S
O319 Co295 2.097 . S
O319 C347 1.214 . S
H320 C348 0.929 . S
H321 C349 0.929 . S
H322 C350 0.930 . S
H323 C351 0.929 . S
H324 C353 0.930 . S
H325 C330 0.930 . S
H326 C334 0.930 . S
O327 Co296 2.037 . S
O327 C347 1.234 . S
C328 O302 1.269 . S
C328 O303 1.257 . S
C329 H304 0.930 . S
C329 C332 1.388 . S
C329 C334 1.418 . S
C330 H325 0.930 . S
C330 C333 1.404 . S
C330 C334 1.353 . S
N331 Co296 2.145 . S
N331 C332 1.397 . S
N331 C333 1.334 . S
C332 H313 0.929 . S
C332 C329 1.388 . S
C332 N331 1.397 . S
C333 H314 0.929 . S
C333 C330 1.404 . S
C333 N331 1.334 . S
C334 H326 0.930 . S
C334 C329 1.418 . S
C334 C330 1.353 . S
C335 H305 0.930 . S
C335 N336 1.330 . S
C335 C337 1.446 . S
N336 Co295 2.151 1_556 S
N336 C335 1.330 . S
N336 C340 1.418 . S
C337 H316 0.929 . S
C337 C335 1.446 . S
C337 C338 1.332 . S
C338 H318 0.931 . S
C338 C337 1.332 . S
C338 C339 1.267 . S
C339 H307 0.929 . S
C339 C338 1.267 . S
C339 C340 1.251 . S
C340 H310 0.929 . S
C340 N336 1.418 . S
C340 C339 1.251 . S
C341 H308 0.930 . S
C341 C343 1.406 . S
C341 C346 1.261 . S
C342 H309 0.930 . S
C342 N344 1.325 . S
C342 C345 1.357 1_655 S
C343 H311 0.928 . S
C343 C341 1.406 . S
C343 N344 1.261 . S
N344 Co295 2.214 1_556 S
N344 C342 1.325 . S
N344 C343 1.261 . S
C345 H315 0.931 . S
C345 C342 1.357 1_455 S
C345 C346 1.312 1_455 S
C346 H317 0.930 1_655 S
C346 C341 1.261 . S
C346 C345 1.312 1_655 S
C347 O319 1.214 . S
C347 O327 1.234 . S
C348 H320 0.929 . S
C348 C351 1.391 . S
C348 C353 1.391 1_545 S
C349 H321 0.929 . S
C349 C350 1.390 . S
C349 N352 1.391 . S
C350 H322 0.930 . S
C350 C349 1.390 . S
C350 C351 1.392 1_565 S
C351 H323 0.929 . S
C351 C348 1.391 . S
C351 C350 1.392 1_545 S
N352 Co296 2.257 . S
N352 C349 1.391 . S
N352 C353 1.388 . S
C353 H324 0.930 . S
C353 C348 1.391 1_565 S
C353 N352 1.388 . S
Co354 O356 2.143 . S
Co354 O362 2.074 . S
Co354 O365 2.093 . S
Co354 O378 2.097 . S
Co354 N395 2.151 . S
Co354 N403 2.214 . S
Co355 O356 2.160 . S
Co355 O361 2.058 . S
Co355 O371 2.057 . S
Co355 O386 2.037 . S
Co355 N390 2.145 . S
Co355 N411 2.257 . S
O356 Co354 2.143 . S
O356 Co355 2.160 . S
C357 O358 1.278 . S
C357 O365 1.224 . S
O358 C357 1.278 . S
C359 O360 1.245 . S
C359 O371 1.232 . S
O360 C359 1.245 . S
O361 Co355 2.058 . S
O361 C387 1.269 . S
O362 Co354 2.074 . S
O362 C387 1.257 . S
H363 C388 0.930 . S
H364 C394 0.930 . S
O365 Co354 2.093 . S
O365 C357 1.224 . S
H366 C398 0.929 . S
H367 C400 0.930 1_556 S
H368 C401 0.930 . S
H369 C399 0.929 . S
H370 C402 0.928 . S
O371 Co355 2.057 . S
O371 C359 1.232 . S
H372 C391 0.929 . S
H373 C392 0.929 . S
H374 C404 0.931 . S
H375 C396 0.929 . S
H376 C405 0.930 . S
H377 C397 0.931 . S
O378 Co354 2.097 . S
O378 C406 1.214 . S
H379 C407 0.929 . S
H380 C408 0.929 . S
H381 C409 0.930 . S
H382 C410 0.929 . S
H383 C412 0.930 . S
H384 C389 0.930 . S
H385 C393 0.930 . S
O386 Co355 2.037 . S
O386 C406 1.234 . S
C387 O361 1.269 . S
C387 O362 1.257 . S
C388 H363 0.930 . S
C388 C391 1.388 . S
C388 C393 1.418 . S
C389 H384 0.930 . S
C389 C392 1.404 . S
C389 C393 1.353 . S
N390 Co355 2.145 . S
N390 C391 1.397 . S
N390 C392 1.334 . S
C391 H372 0.929 . S
C391 C388 1.388 . S
C391 N390 1.397 . S
C392 H373 0.929 . S
C392 C389 1.404 . S
C392 N390 1.334 . S
C393 H385 0.930 . S
C393 C388 1.418 . S
C393 C389 1.353 . S
C394 H364 0.930 . S
C394 N395 1.330 . S
C394 C396 1.446 . S
N395 Co354 2.151 . S
N395 C394 1.330 . S
N395 C399 1.418 . S
C396 H375 0.929 . S
C396 C394 1.446 . S
C396 C397 1.332 . S
C397 H377 0.931 . S
C397 C396 1.332 . S
C397 C398 1.267 . S
C398 H366 0.929 . S
C398 C397 1.267 . S
C398 C399 1.251 . S
C399 H369 0.929 . S
C399 N395 1.418 . S
C399 C398 1.251 . S
C400 H367 0.930 1_554 S
C400 C402 1.406 . S
C400 C405 1.261 . S
C401 H368 0.930 . S
C401 N403 1.325 . S
C401 C404 1.357 . S
C402 H370 0.928 . S
C402 C400 1.406 . S
C402 N403 1.261 . S
N403 Co354 2.214 . S
N403 C401 1.325 . S
N403 C402 1.261 . S
C404 H374 0.931 . S
C404 C401 1.357 . S
C404 C405 1.312 . S
C405 H376 0.930 . S
C405 C400 1.261 . S
C405 C404 1.312 . S
C406 O378 1.214 . S
C406 O386 1.234 . S
C407 H379 0.929 . S
C407 C410 1.391 . S
C407 C412 1.391 . S
C408 H380 0.929 . S
C408 C409 1.390 . S
C408 N411 1.391 . S
C409 H381 0.930 . S
C409 C408 1.390 . S
C409 C410 1.392 . S
C410 H382 0.929 . S
C410 C407 1.391 . S
C410 C409 1.392 . S
N411 Co355 2.257 . S
N411 C408 1.391 . S
N411 C412 1.388 . S
C412 H383 0.930 . S
C412 C407 1.391 . S
C412 N411 1.388 . S
Co413 O415 2.143 . S
Co413 O421 2.074 . S
Co413 O424 2.093 . S
Co413 O437 2.097 . S
Co413 N454 2.151 . S
Co413 N462 2.214 . S
Co414 O415 2.160 . S
Co414 O420 2.058 . S
Co414 O430 2.057 . S
Co414 O445 2.037 . S
Co414 N449 2.145 . S
Co414 N470 2.257 . S
O415 Co413 2.143 . S
O415 Co414 2.160 . S
C416 O417 1.278 . S
C416 O424 1.224 . S
O417 C416 1.278 . S
C418 O419 1.245 . S
C418 O430 1.232 . S
O419 C418 1.245 . S
O420 Co414 2.058 . S
O420 C446 1.269 . S
O421 Co413 2.074 . S
O421 C446 1.257 . S
H422 C447 0.930 . S
H423 C453 0.930 . S
O424 Co413 2.093 . S
O424 C416 1.224 . S
H425 C457 0.929 . S
H426 C459 0.930 1_554 S
H427 C460 0.930 . S
H428 C458 0.929 . S
H429 C461 0.928 . S
O430 Co414 2.057 . S
O430 C418 1.232 . S
H431 C450 0.929 . S
H432 C451 0.929 . S
H433 C463 0.931 . S
H434 C455 0.929 1_565 S
H435 C464 0.930 . S
H436 C456 0.931 1_565 S
O437 Co413 2.097 . S
O437 C465 1.214 . S
H438 C466 0.929 . S
H439 C467 0.929 . S
H440 C468 0.930 . S
H441 C469 0.929 . S
H442 C471 0.930 . S
H443 C448 0.930 . S
H444 C452 0.930 . S
O445 Co414 2.037 . S
O445 C465 1.234 . S
C446 O420 1.269 . S
C446 O421 1.257 . S
C447 H422 0.930 . S
C447 C450 1.388 . S
C447 C452 1.418 . S
C448 H443 0.930 . S
C448 C451 1.404 . S
C448 C452 1.353 . S
N449 Co414 2.145 . S
N449 C450 1.397 . S
N449 C451 1.334 . S
C450 H431 0.929 . S
C450 C447 1.388 . S
C450 N449 1.397 . S
C451 H432 0.929 . S
C451 C448 1.404 . S
C451 N449 1.334 . S
C452 H444 0.930 . S
C452 C447 1.418 . S
C452 C448 1.353 . S
C453 H423 0.930 . S
C453 N454 1.330 . S
C453 C455 1.446 . S
N454 Co413 2.151 . S
N454 C453 1.330 . S
N454 C458 1.418 . S
C455 H434 0.929 1_545 S
C455 C453 1.446 . S
C455 C456 1.332 . S
C456 H436 0.931 1_545 S
C456 C455 1.332 . S
C456 C457 1.267 . S
C457 H425 0.929 . S
C457 C456 1.267 . S
C457 C458 1.251 . S
C458 H428 0.929 . S
C458 N454 1.418 . S
C458 C457 1.251 . S
C459 H426 0.930 1_556 S
C459 C461 1.406 . S
C459 C464 1.261 . S
C460 H427 0.930 . S
C460 N462 1.325 . S
C460 C463 1.357 . S
C461 H429 0.928 . S
C461 C459 1.406 . S
C461 N462 1.261 . S
N462 Co413 2.214 . S
N462 C460 1.325 . S
N462 C461 1.261 . S
C463 H433 0.931 . S
C463 C460 1.357 . S
C463 C464 1.312 . S
C464 H435 0.930 . S
C464 C459 1.261 . S
C464 C463 1.312 . S
C465 O437 1.214 . S
C465 O445 1.234 . S
C466 H438 0.929 . S
C466 C469 1.391 . S
C466 C471 1.391 . S
C467 H439 0.929 . S
C467 C468 1.390 . S
C467 N470 1.391 . S
C468 H440 0.930 . S
C468 C467 1.390 . S
C468 C469 1.392 . S
C469 H441 0.929 . S
C469 C466 1.391 . S
C469 C468 1.392 . S
N470 Co414 2.257 . S
N470 C467 1.391 . S
N470 C471 1.388 . S
C471 H442 0.930 . S
C471 C466 1.391 . S
C471 N470 1.388 . S
Co472 O474 2.143 . S
Co472 O480 2.074 . S
Co472 O483 2.093 1_556 S
Co472 O496 2.097 . S
Co472 N513 2.151 1_556 S
Co472 N521 2.214 1_556 S
Co473 O474 2.160 . S
Co473 O479 2.058 . S
Co473 O489 2.057 . S
Co473 O504 2.037 . S
Co473 N508 2.145 . S
Co473 N529 2.257 . S
O474 Co472 2.143 . S
O474 Co473 2.160 . S
C475 O476 1.278 . S
C475 O483 1.224 1_556 S
O476 C475 1.278 . S
C477 O478 1.245 . S
C477 O489 1.232 . S
O478 C477 1.245 . S
O479 Co473 2.058 . S
O479 C505 1.269 . S
O480 Co472 2.074 . S
O480 C505 1.257 . S
H481 C506 0.930 . S
H482 C512 0.930 . S
O483 Co472 2.093 1_554 S
O483 C475 1.224 1_554 S
H484 C516 0.929 . S
H485 C518 0.930 . S
H486 C519 0.930 . S
H487 C517 0.929 . S
H488 C520 0.928 . S
O489 Co473 2.057 . S
O489 C477 1.232 . S
H490 C509 0.929 . S
H491 C510 0.929 . S
H492 C522 0.931 . S
H493 C514 0.929 . S
H494 C523 0.930 1_455 S
H495 C515 0.931 . S
O496 Co472 2.097 . S
O496 C524 1.214 . S
H497 C525 0.929 . S
H498 C526 0.929 . S
H499 C527 0.930 . S
H500 C528 0.929 . S
H501 C530 0.930 . S
H502 C507 0.930 . S
H503 C511 0.930 . S
O504 Co473 2.037 . S
O504 C524 1.234 . S
C505 O479 1.269 . S
C505 O480 1.257 . S
C506 H481 0.930 . S
C506 C509 1.388 . S
C506 C511 1.418 . S
C507 H502 0.930 . S
C507 C510 1.404 . S
C507 C511 1.353 . S
N508 Co473 2.145 . S
N508 C509 1.397 . S
N508 C510 1.334 . S
C509 H490 0.929 . S
C509 C506 1.388 . S
C509 N508 1.397 . S
C510 H491 0.929 . S
C510 C507 1.404 . S
C510 N508 1.334 . S
C511 H503 0.930 . S
C511 C506 1.418 . S
C511 C507 1.353 . S
C512 H482 0.930 . S
C512 N513 1.330 . S
C512 C514 1.446 . S
N513 Co472 2.151 1_554 S
N513 C512 1.330 . S
N513 C517 1.418 . S
C514 H493 0.929 . S
C514 C512 1.446 . S
C514 C515 1.332 . S
C515 H495 0.931 . S
C515 C514 1.332 . S
C515 C516 1.267 . S
C516 H484 0.929 . S
C516 C515 1.267 . S
C516 C517 1.251 . S
C517 H487 0.929 . S
C517 N513 1.418 . S
C517 C516 1.251 . S
C518 H485 0.930 . S
C518 C520 1.406 . S
C518 C523 1.261 . S
C519 H486 0.930 . S
C519 N521 1.325 . S
C519 C522 1.357 1_655 S
C520 H488 0.928 . S
C520 C518 1.406 . S
C520 N521 1.261 . S
N521 Co472 2.214 1_554 S
N521 C519 1.325 . S
N521 C520 1.261 . S
C522 H492 0.931 . S
C522 C519 1.357 1_455 S
C522 C523 1.312 1_455 S
C523 H494 0.930 1_655 S
C523 C518 1.261 . S
C523 C522 1.312 1_655 S
C524 O496 1.214 . S
C524 O504 1.234 . S
C525 H497 0.929 . S
C525 C528 1.391 . S
C525 C530 1.391 . S
C526 H498 0.929 . S
C526 C527 1.390 . S
C526 N529 1.391 . S
C527 H499 0.930 . S
C527 C526 1.390 . S
C527 C528 1.392 . S
C528 H500 0.929 . S
C528 C525 1.391 . S
C528 C527 1.392 . S
N529 Co473 2.257 . S
N529 C526 1.391 . S
N529 C530 1.388 . S
C530 H501 0.930 . S
C530 C525 1.391 . S
C530 N529 1.388 . S
Co531 O533 2.143 . S
Co531 O539 2.074 . S
Co531 O542 2.093 . S
Co531 O555 2.097 . S
Co531 N572 2.151 . S
Co531 N580 2.214 . S
Co532 O533 2.160 . S
Co532 O538 2.058 . S
Co532 O548 2.057 . S
Co532 O563 2.037 . S
Co532 N567 2.145 . S
Co532 N588 2.257 . S
O533 Co531 2.143 . S
O533 Co532 2.160 . S
C534 O535 1.278 . S
C534 O542 1.224 . S
O535 C534 1.278 . S
C536 O537 1.245 . S
C536 O548 1.232 . S
O537 C536 1.245 . S
O538 Co532 2.058 . S
O538 C564 1.269 . S
O539 Co531 2.074 . S
O539 C564 1.257 . S
H540 C565 0.930 . S
H541 C571 0.930 . S
O542 Co531 2.093 . S
O542 C534 1.224 . S
H543 C575 0.929 . S
H544 C577 0.930 . S
H545 C578 0.930 . S
H546 C576 0.929 . S
H547 C579 0.928 . S
O548 Co532 2.057 . S
O548 C536 1.232 . S
H549 C568 0.929 . S
H550 C569 0.929 . S
H551 C581 0.931 . S
H552 C573 0.929 . S
H553 C582 0.930 . S
H554 C574 0.931 . S
O555 Co531 2.097 . S
O555 C583 1.214 . S
H556 C584 0.929 . S
H557 C585 0.929 . S
H558 C586 0.930 . S
H559 C587 0.929 . S
H560 C589 0.930 . S
H561 C566 0.930 1_554 S
H562 C570 0.930 1_554 S
O563 Co532 2.037 . S
O563 C583 1.234 . S
C564 O538 1.269 . S
C564 O539 1.257 . S
C565 H540 0.930 . S
C565 C568 1.388 . S
C565 C570 1.418 . S
C566 H561 0.930 1_556 S
C566 C569 1.404 . S
C566 C570 1.353 . S
N567 Co532 2.145 . S
N567 C568 1.397 . S
N567 C569 1.334 . S
C568 H549 0.929 . S
C568 C565 1.388 . S
C568 N567 1.397 . S
C569 H550 0.929 . S
C569 C566 1.404 . S
C569 N567 1.334 . S
C570 H562 0.930 1_556 S
C570 C565 1.418 . S
C570 C566 1.353 . S
C571 H541 0.930 . S
C571 N572 1.330 . S
C571 C573 1.446 . S
N572 Co531 2.151 . S
N572 C571 1.330 . S
N572 C576 1.418 . S
C573 H552 0.929 . S
C573 C571 1.446 . S
C573 C574 1.332 . S
C574 H554 0.931 . S
C574 C573 1.332 . S
C574 C575 1.267 . S
C575 H543 0.929 . S
C575 C574 1.267 . S
C575 C576 1.251 . S
C576 H546 0.929 . S
C576 N572 1.418 . S
C576 C575 1.251 . S
C577 H544 0.930 . S
C577 C579 1.406 . S
C577 C582 1.261 . S
C578 H545 0.930 . S
C578 N580 1.325 . S
C578 C581 1.357 . S
C579 H547 0.928 . S
C579 C577 1.406 . S
C579 N580 1.261 . S
N580 Co531 2.214 . S
N580 C578 1.325 . S
N580 C579 1.261 . S
C581 H551 0.931 . S
C581 C578 1.357 . S
C581 C582 1.312 . S
C582 H553 0.930 . S
C582 C577 1.261 . S
C582 C581 1.312 . S
C583 O555 1.214 . S
C583 O563 1.234 . S
C584 H556 0.929 . S
C584 C587 1.391 . S
C584 C589 1.391 1_565 S
C585 H557 0.929 . S
C585 C586 1.390 . S
C585 N588 1.391 . S
C586 H558 0.930 . S
C586 C585 1.390 . S
C586 C587 1.392 1_545 S
C587 H559 0.929 . S
C587 C584 1.391 . S
C587 C586 1.392 1_565 S
N588 Co532 2.257 . S
N588 C585 1.391 . S
N588 C589 1.388 . S
C589 H560 0.930 . S
C589 C584 1.391 1_545 S
C589 N588 1.388 . S
Co590 O592 2.143 . S
Co590 O598 2.074 . S
Co590 O601 2.093 . S
Co590 O614 2.097 . S
Co590 N631 2.151 . S
Co590 N639 2.214 . S
Co591 O592 2.160 . S
Co591 O597 2.058 . S
Co591 O607 2.057 . S
Co591 O622 2.037 . S
Co591 N626 2.145 . S
Co591 N647 2.257 . S
O592 Co590 2.143 . S
O592 Co591 2.160 . S
C593 O594 1.278 . S
C593 O601 1.224 . S
O594 C593 1.278 . S
C595 O596 1.245 . S
C595 O607 1.232 . S
O596 C595 1.245 . S
O597 Co591 2.058 . S
O597 C623 1.269 . S
O598 Co590 2.074 . S
O598 C623 1.257 . S
H599 C624 0.930 . S
H600 C630 0.930 . S
O601 Co590 2.093 . S
O601 C593 1.224 . S
H602 C634 0.929 . S
H603 C636 0.930 1_556 S
H604 C637 0.930 . S
H605 C635 0.929 . S
H606 C638 0.928 . S
O607 Co591 2.057 . S
O607 C595 1.232 . S
H608 C627 0.929 . S
H609 C628 0.929 . S
H610 C640 0.931 . S
H611 C632 0.929 . S
H612 C641 0.930 . S
H613 C633 0.931 . S
O614 Co590 2.097 . S
O614 C642 1.214 . S
H615 C643 0.929 . S
H616 C644 0.929 . S
H617 C645 0.930 . S
H618 C646 0.929 . S
H619 C648 0.930 . S
H620 C625 0.930 . S
H621 C629 0.930 . S
O622 Co591 2.037 . S
O622 C642 1.234 . S
C623 O597 1.269 . S
C623 O598 1.257 . S
C624 H599 0.930 . S
C624 C627 1.388 . S
C624 C629 1.418 . S
C625 H620 0.930 . S
C625 C628 1.404 . S
C625 C629 1.353 . S
N626 Co591 2.145 . S
N626 C627 1.397 . S
N626 C628 1.334 . S
C627 H608 0.929 . S
C627 C624 1.388 . S
C627 N626 1.397 . S
C628 H609 0.929 . S
C628 C625 1.404 . S
C628 N626 1.334 . S
C629 H621 0.930 . S
C629 C624 1.418 . S
C629 C625 1.353 . S
C630 H600 0.930 . S
C630 N631 1.330 . S
C630 C632 1.446 . S
N631 Co590 2.151 . S
N631 C630 1.330 . S
N631 C635 1.418 . S
C632 H611 0.929 . S
C632 C630 1.446 . S
C632 C633 1.332 . S
C633 H613 0.931 . S
C633 C632 1.332 . S
C633 C634 1.267 . S
C634 H602 0.929 . S
C634 C633 1.267 . S
C634 C635 1.251 . S
C635 H605 0.929 . S
C635 N631 1.418 . S
C635 C634 1.251 . S
C636 H603 0.930 1_554 S
C636 C638 1.406 . S
C636 C641 1.261 . S
C637 H604 0.930 . S
C637 N639 1.325 . S
C637 C640 1.357 . S
C638 H606 0.928 . S
C638 C636 1.406 . S
C638 N639 1.261 . S
N639 Co590 2.214 . S
N639 C637 1.325 . S
N639 C638 1.261 . S
C640 H610 0.931 . S
C640 C637 1.357 . S
C640 C641 1.312 . S
C641 H612 0.930 . S
C641 C636 1.261 . S
C641 C640 1.312 . S
C642 O614 1.214 . S
C642 O622 1.234 . S
C643 H615 0.929 . S
C643 C646 1.391 . S
C643 C648 1.391 . S
C644 H616 0.929 . S
C644 C645 1.390 . S
C644 N647 1.391 . S
C645 H617 0.930 . S
C645 C644 1.390 . S
C645 C646 1.392 . S
C646 H618 0.929 . S
C646 C643 1.391 . S
C646 C645 1.392 . S
N647 Co591 2.257 . S
N647 C644 1.391 . S
N647 C648 1.388 . S
C648 H619 0.930 . S
C648 C643 1.391 . S
C648 N647 1.388 . S
Co649 O651 2.143 . S
Co649 O657 2.074 . S
Co649 O660 2.093 . S
Co649 O673 2.097 . S
Co649 N690 2.151 . S
Co649 N698 2.214 . S
Co650 O651 2.160 . S
Co650 O656 2.058 . S
Co650 O666 2.057 1_554 S
Co650 O681 2.037 . S
Co650 N685 2.145 1_554 S
Co650 N706 2.257 1_554 S
O651 Co649 2.143 . S
O651 Co650 2.160 . S
C652 O653 1.278 . S
C652 O660 1.224 . S
O653 C652 1.278 . S
C654 O655 1.245 . S
C654 O666 1.232 1_554 S
O655 C654 1.245 . S
O656 Co650 2.058 . S
O656 C682 1.269 . S
O657 Co649 2.074 . S
O657 C682 1.257 . S
H658 C683 0.930 . S
H659 C689 0.930 . S
O660 Co649 2.093 . S
O660 C652 1.224 . S
H661 C693 0.929 . S
H662 C695 0.930 . S
H663 C696 0.930 . S
H664 C694 0.929 . S
H665 C697 0.928 . S
O666 Co650 2.057 1_556 S
O666 C654 1.232 1_556 S
H667 C686 0.929 . S
H668 C687 0.929 . S
H669 C699 0.931 . S
H670 C691 0.929 1_545 S
H671 C700 0.930 . S
H672 C692 0.931 1_545 S
O673 Co649 2.097 . S
O673 C701 1.214 . S
H674 C702 0.929 . S
H675 C703 0.929 . S
H676 C704 0.930 . S
H677 C705 0.929 . S
H678 C707 0.930 1_554 S
H679 C684 0.930 . S
H680 C688 0.930 . S
O681 Co650 2.037 . S
O681 C701 1.234 . S
C682 O656 1.269 . S
C682 O657 1.257 . S
C683 H658 0.930 . S
C683 C686 1.388 . S
C683 C688 1.418 . S
C684 H679 0.930 . S
C684 C687 1.404 . S
C684 C688 1.353 . S
N685 Co650 2.145 1_556 S
N685 C686 1.397 . S
N685 C687 1.334 . S
C686 H667 0.929 . S
C686 C683 1.388 . S
C686 N685 1.397 . S
C687 H668 0.929 . S
C687 C684 1.404 . S
C687 N685 1.334 . S
C688 H680 0.930 . S
C688 C683 1.418 . S
C688 C684 1.353 . S
C689 H659 0.930 . S
C689 N690 1.330 . S
C689 C691 1.446 . S
N690 Co649 2.151 . S
N690 C689 1.330 . S
N690 C694 1.418 . S
C691 H670 0.929 1_565 S
C691 C689 1.446 . S
C691 C692 1.332 . S
C692 H672 0.931 1_565 S
C692 C691 1.332 . S
C692 C693 1.267 . S
C693 H661 0.929 . S
C693 C692 1.267 . S
C693 C694 1.251 . S
C694 H664 0.929 . S
C694 N690 1.418 . S
C694 C693 1.251 . S
C695 H662 0.930 . S
C695 C697 1.406 . S
C695 C700 1.261 . S
C696 H663 0.930 . S
C696 N698 1.325 . S
C696 C699 1.357 . S
C697 H665 0.928 . S
C697 C695 1.406 . S
C697 N698 1.261 . S
N698 Co649 2.214 . S
N698 C696 1.325 . S
N698 C697 1.261 . S
C699 H669 0.931 . S
C699 C696 1.357 . S
C699 C700 1.312 . S
C700 H671 0.930 . S
C700 C695 1.261 . S
C700 C699 1.312 . S
C701 O673 1.214 . S
C701 O681 1.234 . S
C702 H674 0.929 . S
C702 C705 1.391 . S
C702 C707 1.391 . S
C703 H675 0.929 . S
C703 C704 1.390 . S
C703 N706 1.391 . S
C704 H676 0.930 . S
C704 C703 1.390 . S
C704 C705 1.392 . S
C705 H677 0.929 . S
C705 C702 1.391 . S
C705 C704 1.392 . S
N706 Co650 2.257 1_556 S
N706 C703 1.391 . S
N706 C707 1.388 . S
C707 H678 0.930 1_556 S
C707 C702 1.391 . S
C707 N706 1.388 . S
Co708 O710 2.143 . S
Co708 O716 2.074 . S
Co708 O719 2.093 1_554 S
Co708 O732 2.097 . S
Co708 N749 2.151 1_554 S
Co708 N757 2.214 1_554 S
Co709 O710 2.160 . S
Co709 O715 2.058 . S
Co709 O725 2.057 . S
Co709 O740 2.037 . S
Co709 N744 2.145 . S
Co709 N765 2.257 . S
O710 Co708 2.143 . S
O710 Co709 2.160 . S
C711 O712 1.278 . S
C711 O719 1.224 1_554 S
O712 C711 1.278 . S
C713 O714 1.245 . S
C713 O725 1.232 . S
O714 C713 1.245 . S
O715 Co709 2.058 . S
O715 C741 1.269 . S
O716 Co708 2.074 . S
O716 C741 1.257 . S
H717 C742 0.930 . S
H718 C748 0.930 . S
O719 Co708 2.093 1_556 S
O719 C711 1.224 1_556 S
H720 C752 0.929 . S
H721 C754 0.930 . S
H722 C755 0.930 . S
H723 C753 0.929 . S
H724 C756 0.928 . S
O725 Co709 2.057 . S
O725 C713 1.232 . S
H726 C745 0.929 . S
H727 C746 0.929 . S
H728 C758 0.931 . S
H729 C750 0.929 . S
H730 C759 0.930 1_455 S
H731 C751 0.931 . S
O732 Co708 2.097 . S
O732 C760 1.214 . S
H733 C761 0.929 . S
H734 C762 0.929 . S
H735 C763 0.930 . S
H736 C764 0.929 . S
H737 C766 0.930 . S
H738 C743 0.930 . S
H739 C747 0.930 . S
O740 Co709 2.037 . S
O740 C760 1.234 . S
C741 O715 1.269 . S
C741 O716 1.257 . S
C742 H717 0.930 . S
C742 C745 1.388 . S
C742 C747 1.418 . S
C743 H738 0.930 . S
C743 C746 1.404 . S
C743 C747 1.353 . S
N744 Co709 2.145 . S
N744 C745 1.397 . S
N744 C746 1.334 . S
C745 H726 0.929 . S
C745 C742 1.388 . S
C745 N744 1.397 . S
C746 H727 0.929 . S
C746 C743 1.404 . S
C746 N744 1.334 . S
C747 H739 0.930 . S
C747 C742 1.418 . S
C747 C743 1.353 . S
C748 H718 0.930 . S
C748 N749 1.330 . S
C748 C750 1.446 . S
N749 Co708 2.151 1_556 S
N749 C748 1.330 . S
N749 C753 1.418 . S
C750 H729 0.929 . S
C750 C748 1.446 . S
C750 C751 1.332 . S
C751 H731 0.931 . S
C751 C750 1.332 . S
C751 C752 1.267 . S
C752 H720 0.929 . S
C752 C751 1.267 . S
C752 C753 1.251 . S
C753 H723 0.929 . S
C753 N749 1.418 . S
C753 C752 1.251 . S
C754 H721 0.930 . S
C754 C756 1.406 . S
C754 C759 1.261 . S
C755 H722 0.930 . S
C755 N757 1.325 . S
C755 C758 1.357 1_655 S
C756 H724 0.928 . S
C756 C754 1.406 . S
C756 N757 1.261 . S
N757 Co708 2.214 1_556 S
N757 C755 1.325 . S
N757 C756 1.261 . S
C758 H728 0.931 . S
C758 C755 1.357 1_455 S
C758 C759 1.312 1_455 S
C759 H730 0.930 1_655 S
C759 C754 1.261 . S
C759 C758 1.312 1_655 S
C760 O732 1.214 . S
C760 O740 1.234 . S
C761 H733 0.929 . S
C761 C764 1.391 . S
C761 C766 1.391 . S
C762 H734 0.929 . S
C762 C763 1.390 . S
C762 N765 1.391 . S
C763 H735 0.930 . S
C763 C762 1.390 . S
C763 C764 1.392 . S
C764 H736 0.929 . S
C764 C761 1.391 . S
C764 C763 1.392 . S
N765 Co709 2.257 . S
N765 C762 1.391 . S
N765 C766 1.388 . S
C766 H737 0.930 . S
C766 C761 1.391 . S
C766 N765 1.388 . S
Co767 O769 2.143 . S
Co767 O775 2.074 . S
Co767 O778 2.093 1_556 S
Co767 O791 2.097 . S
Co767 N808 2.151 1_556 S
Co767 N816 2.214 1_556 S
Co768 O769 2.160 . S
Co768 O774 2.058 . S
Co768 O784 2.057 . S
Co768 O799 2.037 . S
Co768 N803 2.145 . S
Co768 N824 2.257 . S
O769 Co767 2.143 . S
O769 Co768 2.160 . S
C770 O771 1.278 . S
C770 O778 1.224 1_556 S
O771 C770 1.278 . S
C772 O773 1.245 . S
C772 O784 1.232 . S
O773 C772 1.245 . S
O774 Co768 2.058 . S
O774 C800 1.269 . S
O775 Co767 2.074 . S
O775 C800 1.257 . S
H776 C801 0.930 . S
H777 C807 0.930 . S
O778 Co767 2.093 1_554 S
O778 C770 1.224 1_554 S
H779 C811 0.929 . S
H780 C813 0.930 . S
H781 C814 0.930 . S
H782 C812 0.929 . S
H783 C815 0.928 . S
O784 Co768 2.057 . S
O784 C772 1.232 . S
H785 C804 0.929 . S
H786 C805 0.929 . S
H787 C817 0.931 . S
H788 C809 0.929 . S
H789 C818 0.930 1_655 S
H790 C810 0.931 . S
O791 Co767 2.097 . S
O791 C819 1.214 . S
H792 C820 0.929 . S
H793 C821 0.929 . S
H794 C822 0.930 . S
H795 C823 0.929 . S
H796 C825 0.930 . S
H797 C802 0.930 . S
H798 C806 0.930 . S
O799 Co768 2.037 . S
O799 C819 1.234 . S
C800 O774 1.269 . S
C800 O775 1.257 . S
C801 H776 0.930 . S
C801 C804 1.388 . S
C801 C806 1.418 . S
C802 H797 0.930 . S
C802 C805 1.404 . S
C802 C806 1.353 . S
N803 Co768 2.145 . S
N803 C804 1.397 . S
N803 C805 1.334 . S
C804 H785 0.929 . S
C804 C801 1.388 . S
C804 N803 1.397 . S
C805 H786 0.929 . S
C805 C802 1.404 . S
C805 N803 1.334 . S
C806 H798 0.930 . S
C806 C801 1.418 . S
C806 C802 1.353 . S
C807 H777 0.930 . S
C807 N808 1.330 . S
C807 C809 1.446 . S
N808 Co767 2.151 1_554 S
N808 C807 1.330 . S
N808 C812 1.418 . S
C809 H788 0.929 . S
C809 C807 1.446 . S
C809 C810 1.332 . S
C810 H790 0.931 . S
C810 C809 1.332 . S
C810 C811 1.267 . S
C811 H779 0.929 . S
C811 C810 1.267 . S
C811 C812 1.251 . S
C812 H782 0.929 . S
C812 N808 1.418 . S
C812 C811 1.251 . S
C813 H780 0.930 . S
C813 C815 1.406 . S
C813 C818 1.261 . S
C814 H781 0.930 . S
C814 N816 1.325 . S
C814 C817 1.357 1_455 S
C815 H783 0.928 . S
C815 C813 1.406 . S
C815 N816 1.261 . S
N816 Co767 2.214 1_554 S
N816 C814 1.325 . S
N816 C815 1.261 . S
C817 H787 0.931 . S
C817 C814 1.357 1_655 S
C817 C818 1.312 1_655 S
C818 H789 0.930 1_455 S
C818 C813 1.261 . S
C818 C817 1.312 1_455 S
C819 O791 1.214 . S
C819 O799 1.234 . S
C820 H792 0.929 . S
C820 C823 1.391 . S
C820 C825 1.391 1_565 S
C821 H793 0.929 . S
C821 C822 1.390 . S
C821 N824 1.391 . S
C822 H794 0.930 . S
C822 C821 1.390 . S
C822 C823 1.392 1_545 S
C823 H795 0.929 . S
C823 C820 1.391 . S
C823 C822 1.392 1_565 S
N824 Co768 2.257 . S
N824 C821 1.391 . S
N824 C825 1.388 . S
C825 H796 0.930 . S
C825 C820 1.391 1_545 S
C825 N824 1.388 . S
Co826 O828 2.143 . S
Co826 O834 2.074 . S
Co826 O837 2.093 . S
Co826 O850 2.097 . S
Co826 N867 2.151 . S
Co826 N875 2.214 . S
Co827 O828 2.160 . S
Co827 O833 2.058 . S
Co827 O843 2.057 . S
Co827 O858 2.037 . S
Co827 N862 2.145 . S
Co827 N883 2.257 . S
O828 Co826 2.143 . S
O828 Co827 2.160 . S
C829 O830 1.278 . S
C829 O837 1.224 . S
O830 C829 1.278 . S
C831 O832 1.245 . S
C831 O843 1.232 . S
O832 C831 1.245 . S
O833 Co827 2.058 . S
O833 C859 1.269 . S
O834 Co826 2.074 . S
O834 C859 1.257 . S
H835 C860 0.930 . S
H836 C866 0.930 . S
O837 Co826 2.093 . S
O837 C829 1.224 . S
H838 C870 0.929 . S
H839 C872 0.930 1_554 S
H840 C873 0.930 . S
H841 C871 0.929 . S
H842 C874 0.928 . S
O843 Co827 2.057 . S
O843 C831 1.232 . S
H844 C863 0.929 . S
H845 C864 0.929 . S
H846 C876 0.931 . S
H847 C868 0.929 . S
H848 C877 0.930 . S
H849 C869 0.931 . S
O850 Co826 2.097 . S
O850 C878 1.214 . S
H851 C879 0.929 . S
H852 C880 0.929 . S
H853 C881 0.930 . S
H854 C882 0.929 . S
H855 C884 0.930 . S
H856 C861 0.930 . S
H857 C865 0.930 . S
O858 Co827 2.037 . S
O858 C878 1.234 . S
C859 O833 1.269 . S
C859 O834 1.257 . S
C860 H835 0.930 . S
C860 C863 1.388 . S
C860 C865 1.418 . S
C861 H856 0.930 . S
C861 C864 1.404 . S
C861 C865 1.353 . S
N862 Co827 2.145 . S
N862 C863 1.397 . S
N862 C864 1.334 . S
C863 H844 0.929 . S
C863 C860 1.388 . S
C863 N862 1.397 . S
C864 H845 0.929 . S
C864 C861 1.404 . S
C864 N862 1.334 . S
C865 H857 0.930 . S
C865 C860 1.418 . S
C865 C861 1.353 . S
C866 H836 0.930 . S
C866 N867 1.330 . S
C866 C868 1.446 . S
N867 Co826 2.151 . S
N867 C866 1.330 . S
N867 C871 1.418 . S
C868 H847 0.929 . S
C868 C866 1.446 . S
C868 C869 1.332 . S
C869 H849 0.931 . S
C869 C868 1.332 . S
C869 C870 1.267 . S
C870 H838 0.929 . S
C870 C869 1.267 . S
C870 C871 1.251 . S
C871 H841 0.929 . S
C871 N867 1.418 . S
C871 C870 1.251 . S
C872 H839 0.930 1_556 S
C872 C874 1.406 . S
C872 C877 1.261 . S
C873 H840 0.930 . S
C873 N875 1.325 . S
C873 C876 1.357 . S
C874 H842 0.928 . S
C874 C872 1.406 . S
C874 N875 1.261 . S
N875 Co826 2.214 . S
N875 C873 1.325 . S
N875 C874 1.261 . S
C876 H846 0.931 . S
C876 C873 1.357 . S
C876 C877 1.312 . S
C877 H848 0.930 . S
C877 C872 1.261 . S
C877 C876 1.312 . S
C878 O850 1.214 . S
C878 O858 1.234 . S
C879 H851 0.929 . S
C879 C882 1.391 . S
C879 C884 1.391 . S
C880 H852 0.929 . S
C880 C881 1.390 . S
C880 N883 1.391 . S
C881 H853 0.930 . S
C881 C880 1.390 . S
C881 C882 1.392 . S
C882 H854 0.929 . S
C882 C879 1.391 . S
C882 C881 1.392 . S
N883 Co827 2.257 . S
N883 C880 1.391 . S
N883 C884 1.388 . S
C884 H855 0.930 . S
C884 C879 1.391 . S
C884 N883 1.388 . S
Co885 O887 2.143 . S
Co885 O893 2.074 . S
Co885 O896 2.093 . S
Co885 O909 2.097 . S
Co885 N926 2.151 . S
Co885 N934 2.214 . S
Co886 O887 2.160 . S
Co886 O892 2.058 . S
Co886 O902 2.057 . S
Co886 O917 2.037 . S
Co886 N921 2.145 . S
Co886 N942 2.257 . S
O887 Co885 2.143 . S
O887 Co886 2.160 . S
C888 O889 1.278 . S
C888 O896 1.224 . S
O889 C888 1.278 . S
C890 O891 1.245 . S
C890 O902 1.232 . S
O891 C890 1.245 . S
O892 Co886 2.058 . S
O892 C918 1.269 . S
O893 Co885 2.074 . S
O893 C918 1.257 . S
H894 C919 0.930 . S
H895 C925 0.930 . S
O896 Co885 2.093 . S
O896 C888 1.224 . S
H897 C929 0.929 . S
H898 C931 0.930 . S
H899 C932 0.930 . S
H900 C930 0.929 . S
H901 C933 0.928 . S
O902 Co886 2.057 . S
O902 C890 1.232 . S
H903 C922 0.929 . S
H904 C923 0.929 . S
H905 C935 0.931 . S
H906 C927 0.929 . S
H907 C936 0.930 . S
H908 C928 0.931 . S
O909 Co885 2.097 . S
O909 C937 1.214 . S
H910 C938 0.929 . S
H911 C939 0.929 . S
H912 C940 0.930 . S
H913 C941 0.929 . S
H914 C943 0.930 . S
H915 C920 0.930 1_556 S
H916 C924 0.930 1_556 S
O917 Co886 2.037 . S
O917 C937 1.234 . S
C918 O892 1.269 . S
C918 O893 1.257 . S
C919 H894 0.930 . S
C919 C922 1.388 . S
C919 C924 1.418 . S
C920 H915 0.930 1_554 S
C920 C923 1.404 . S
C920 C924 1.353 . S
N921 Co886 2.145 . S
N921 C922 1.397 . S
N921 C923 1.334 . S
C922 H903 0.929 . S
C922 C919 1.388 . S
C922 N921 1.397 . S
C923 H904 0.929 . S
C923 C920 1.404 . S
C923 N921 1.334 . S
C924 H916 0.930 1_554 S
C924 C919 1.418 . S
C924 C920 1.353 . S
C925 H895 0.930 . S
C925 N926 1.330 . S
C925 C927 1.446 . S
N926 Co885 2.151 . S
N926 C925 1.330 . S
N926 C930 1.418 . S
C927 H906 0.929 . S
C927 C925 1.446 . S
C927 C928 1.332 . S
C928 H908 0.931 . S
C928 C927 1.332 . S
C928 C929 1.267 . S
C929 H897 0.929 . S
C929 C928 1.267 . S
C929 C930 1.251 . S
C930 H900 0.929 . S
C930 N926 1.418 . S
C930 C929 1.251 . S
C931 H898 0.930 . S
C931 C933 1.406 . S
C931 C936 1.261 . S
C932 H899 0.930 . S
C932 N934 1.325 . S
C932 C935 1.357 . S
C933 H901 0.928 . S
C933 C931 1.406 . S
C933 N934 1.261 . S
N934 Co885 2.214 . S
N934 C932 1.325 . S
N934 C933 1.261 . S
C935 H905 0.931 . S
C935 C932 1.357 . S
C935 C936 1.312 . S
C936 H907 0.930 . S
C936 C931 1.261 . S
C936 C935 1.312 . S
C937 O909 1.214 . S
C937 O917 1.234 . S
C938 H910 0.929 . S
C938 C941 1.391 . S
C938 C943 1.391 1_545 S
C939 H911 0.929 . S
C939 C940 1.390 . S
C939 N942 1.391 . S
C940 H912 0.930 . S
C940 C939 1.390 . S
C940 C941 1.392 1_565 S
C941 H913 0.929 . S
C941 C938 1.391 . S
C941 C940 1.392 1_545 S
N942 Co886 2.257 . S
N942 C939 1.391 . S
N942 C943 1.388 . S
C943 H914 0.930 . S
C943 C938 1.391 1_565 S
C943 N942 1.388 . S
C701 C33 1.409 . S
C937 C111 1.401 . S
C170 C564 1.406 . S
C819 C210 1.406 1_455 S
C269 C800 1.406 . S
C347 C682 1.403 1_655 S
C406 C918 1.405 . S
C446 C583 1.406 . S
C229 C505 1.408 . S
C642 C92 1.402 . S
C741 C328 1.406 . S
C878 C465 1.400 . S
C288 C524 1.405 1_455 S
C623 C387 1.404 . S
C859 C151 1.404 . S
C52 C760 1.404 1_455 S
C3 C239 1.422 1_554 S
C64 C300 1.438 . S
C123 C359 1.444 . S
C416 C180 1.424 . S
C475 C711 1.420 1_556 S
C772 C536 1.442 . S
C595 C831 1.442 . S
C890 C652 1.435 . S
C418 C62 1.428 1_545 S
C121 C241 1.442 . S
C182 C298 1.440 1_546 S
C5 C357 1.435 . S
C534 C888 1.421 1_545 S
C713 C593 1.442 . S
C654 C770 1.438 1_564 S
C829 C477 1.432 . S
