# Generated by pormake.
# Topology wkj, (6)-cn, num edge types: 1
# Building blocks:
#     Node 0, Type 0, BuildingBlock: GEDQOX_clean_sbu_0, # of connection points: 6
#     Node 1, Type 0, BuildingBlock: GEDQOX_clean_sbu_0, # of connection points: 6
#     Node 2, Type 0, BuildingBlock: GEDQOX_clean_sbu_0, # of connection points: 6
#     Node 3, Type 0, BuildingBlock: GEDQOX_clean_sbu_0, # of connection points: 6
#     Node 4, Type 0, BuildingBlock: GEDQOX_clean_sbu_0, # of connection points: 6
#     Node 5, Type 0, BuildingBlock: GEDQOX_clean_sbu_0, # of connection points: 6
#     Node 6, Type 0, BuildingBlock: GEDQOX_clean_sbu_0, # of connection points: 6
#     Node 7, Type 0, BuildingBlock: GEDQOX_clean_sbu_0, # of connection points: 6
#     Node 8, Type 0, BuildingBlock: GEDQOX_clean_sbu_0, # of connection points: 6
#     Node 9, Type 0, BuildingBlock: GEDQOX_clean_sbu_0, # of connection points: 6
#     Node 10, Type 0, BuildingBlock: GEDQOX_clean_sbu_0, # of connection points: 6
#     Node 11, Type 0, BuildingBlock: GEDQOX_clean_sbu_0, # of connection points: 6
#     Edge 12, Type (0, 0), BuildingBlock: KIFKEQ_clean_linker_1, # of connection points: 2
#     Edge 13, Type (0, 0), BuildingBlock: KIFKEQ_clean_linker_1, # of connection points: 2
#     Edge 14, Type (0, 0), BuildingBlock: KIFKEQ_clean_linker_1, # of connection points: 2
#     Edge 15, Type (0, 0), BuildingBlock: KIFKEQ_clean_linker_1, # of connection points: 2
#     Edge 16, Type (0, 0), BuildingBlock: KIFKEQ_clean_linker_1, # of connection points: 2
#     Edge 17, Type (0, 0), BuildingBlock: KIFKEQ_clean_linker_1, # of connection points: 2
#     Edge 18, Type (0, 0), BuildingBlock: KIFKEQ_clean_linker_1, # of connection points: 2
#     Edge 19, Type (0, 0), BuildingBlock: KIFKEQ_clean_linker_1, # of connection points: 2
#     Edge 20, Type (0, 0), BuildingBlock: KIFKEQ_clean_linker_1, # of connection points: 2
#     Edge 21, Type (0, 0), BuildingBlock: KIFKEQ_clean_linker_1, # of connection points: 2
#     Edge 22, Type (0, 0), BuildingBlock: KIFKEQ_clean_linker_1, # of connection points: 2
#     Edge 23, Type (0, 0), BuildingBlock: KIFKEQ_clean_linker_1, # of connection points: 2
#     Edge 24, Type (0, 0), BuildingBlock: KIFKEQ_clean_linker_1, # of connection points: 2
#     Edge 25, Type (0, 0), BuildingBlock: KIFKEQ_clean_linker_1, # of connection points: 2
#     Edge 26, Type (0, 0), BuildingBlock: KIFKEQ_clean_linker_1, # of connection points: 2
#     Edge 27, Type (0, 0), BuildingBlock: KIFKEQ_clean_linker_1, # of connection points: 2
#     Edge 28, Type (0, 0), BuildingBlock: KIFKEQ_clean_linker_1, # of connection points: 2
#     Edge 29, Type (0, 0), BuildingBlock: KIFKEQ_clean_linker_1, # of connection points: 2
#     Edge 30, Type (0, 0), BuildingBlock: KIFKEQ_clean_linker_1, # of connection points: 2
#     Edge 31, Type (0, 0), BuildingBlock: KIFKEQ_clean_linker_1, # of connection points: 2
#     Edge 32, Type (0, 0), BuildingBlock: KIFKEQ_clean_linker_1, # of connection points: 2
#     Edge 33, Type (0, 0), BuildingBlock: KIFKEQ_clean_linker_1, # of connection points: 2
#     Edge 34, Type (0, 0), BuildingBlock: KIFKEQ_clean_linker_1, # of connection points: 2
#     Edge 35, Type (0, 0), BuildingBlock: KIFKEQ_clean_linker_1, # of connection points: 2
#     Edge 36, Type (0, 0), BuildingBlock: KIFKEQ_clean_linker_1, # of connection points: 2
#     Edge 37, Type (0, 0), BuildingBlock: KIFKEQ_clean_linker_1, # of connection points: 2
#     Edge 38, Type (0, 0), BuildingBlock: KIFKEQ_clean_linker_1, # of connection points: 2
#     Edge 39, Type (0, 0), BuildingBlock: KIFKEQ_clean_linker_1, # of connection points: 2
#     Edge 40, Type (0, 0), BuildingBlock: KIFKEQ_clean_linker_1, # of connection points: 2
#     Edge 41, Type (0, 0), BuildingBlock: KIFKEQ_clean_linker_1, # of connection points: 2
#     Edge 42, Type (0, 0), BuildingBlock: KIFKEQ_clean_linker_1, # of connection points: 2
#     Edge 43, Type (0, 0), BuildingBlock: KIFKEQ_clean_linker_1, # of connection points: 2
#     Edge 44, Type (0, 0), BuildingBlock: KIFKEQ_clean_linker_1, # of connection points: 2
#     Edge 45, Type (0, 0), BuildingBlock: KIFKEQ_clean_linker_1, # of connection points: 2
#     Edge 46, Type (0, 0), BuildingBlock: KIFKEQ_clean_linker_1, # of connection points: 2
#     Edge 47, Type (0, 0), BuildingBlock: KIFKEQ_clean_linker_1, # of connection points: 2
# Relax obj value: 0.707
# Max RMSD: 0.169
# Mean RMSD: 0.169
data_MOF--net-wkj--node1-GEDQOX_clean_sbu_0--edge1-KIFKEQ_clean_linker_1
_symmetry_space_group_name_H-M    P1
_symmetry_Int_Tables_number       1
_symmetry_cell_setting            triclinic
loop_
_symmetry_equiv_pos_as_xyz
'x, y, z'
_cell_length_a     49.20873
_cell_length_b     49.226638
_cell_length_c     30.552377
_cell_angle_alpha  90.396989
_cell_angle_beta   89.596321
_cell_angle_gamma 120.09039
loop_
_atom_site_label
_atom_site_type_symbol
_atom_site_fract_x
_atom_site_fract_y
_atom_site_fract_z
_atom_type_partial_charge
Nd0 Nd 0.50076 0.10327 0.3826 0.0
Nd1 Nd 0.43774 0.06705 0.35736 0.0
C2 C 0.55867 0.14001 0.41188 0.0
C3 C 0.5738 0.15235 0.45397 0.0
C4 C 0.5603 0.13556 0.49246 0.0
C5 C 0.56842 0.15106 0.53268 0.0
C6 C 0.58972 0.1836 0.53476 0.0
C7 C 0.60537 0.19959 0.49654 0.0
C8 C 0.59743 0.18399 0.45633 0.0
C9 C 0.47992 0.13922 0.33749 0.0
C10 C 0.44944 0.0676 0.46724 0.0
C11 C 0.37983 0.04692 0.33164 0.0
C12 C 0.3538 0.04438 0.30581 0.0
C13 C 0.35604 0.04803 0.26033 0.0
C14 C 0.329 0.03917 0.23583 0.0
C15 C 0.29944 0.02629 0.25658 0.0
C16 C 0.2978 0.02498 0.30242 0.0
C17 C 0.32486 0.03406 0.32687 0.0
C18 C 0.45558 0.02838 0.39362 0.0
C19 C 0.49369 0.0763 0.28204 0.0
O20 O 0.54714 0.11015 0.40376 0.0
O21 O 0.53966 0.14991 0.40075 0.0
O22 O 0.50413 0.13672 0.32762 0.0
O23 O 0.46508 0.12012 0.36863 0.0
O24 O 0.47948 0.08549 0.45504 0.0
O25 O 0.42804 0.05984 0.43554 0.0
O26 O 0.3941 0.06995 0.35966 0.0
O27 O 0.39743 0.03631 0.31533 0.0
O28 O 0.42692 0.0227 0.39317 0.0
O29 O 0.47293 0.05155 0.36922 0.0
O30 O 0.46386 0.0698 0.28817 0.0
O31 O 0.51261 0.08671 0.31649 0.0
H32 H 0.54191 0.11114 0.49121 0.0
H33 H 0.55667 0.13796 0.5619 0.0
H34 H 0.62193 0.22459 0.49719 0.0
H35 H 0.60783 0.19728 0.42671 0.0
H36 H 0.37825 0.05597 0.24365 0.0
H37 H 0.33093 0.04006 0.20047 0.0
H38 H 0.27538 0.01525 0.31915 0.0
H39 H 0.32286 0.03116 0.36209 0.0
Nd40 Nd 0.38534 0.49136 0.71805 0.0
Nd41 Nd 0.34852 0.43456 0.69774 0.0
C42 C 0.42088 0.55246 0.73262 0.0
C43 C 0.41288 0.57588 0.74795 0.0
C44 C 0.43426 0.60122 0.77362 0.0
C45 C 0.42406 0.61857 0.79803 0.0
C46 C 0.39227 0.61039 0.79737 0.0
C47 C 0.37173 0.58709 0.76816 0.0
C48 C 0.382 0.56999 0.7435 0.0
C49 C 0.32227 0.47897 0.70282 0.0
C50 C 0.37528 0.4473 0.80303 0.0
C51 C 0.29882 0.38157 0.67329 0.0
C52 C 0.27672 0.3726 0.63712 0.0
C53 C 0.27423 0.39581 0.61427 0.0
C54 C 0.2591 0.38891 0.57398 0.0
C55 C 0.24664 0.35872 0.55583 0.0
C56 C 0.24679 0.33483 0.5807 0.0
C57 C 0.26187 0.3418 0.62114 0.0
C58 C 0.40113 0.4332 0.71094 0.0
C59 C 0.39442 0.48212 0.61493 0.0
O60 O 0.41641 0.53114 0.76144 0.0
O61 O 0.41049 0.54046 0.69402 0.0
O62 O 0.33656 0.4881 0.74023 0.0
O63 O 0.33952 0.47315 0.67936 0.0
O64 O 0.39591 0.47388 0.78441 0.0
O65 O 0.35013 0.42946 0.77777 0.0
O66 O 0.29763 0.40053 0.7026 0.0
O67 O 0.32749 0.38969 0.66142 0.0
O68 O 0.37508 0.4146 0.73038 0.0
O69 O 0.40063 0.45617 0.69262 0.0
O70 O 0.3691 0.45406 0.62427 0.0
O71 O 0.40806 0.50078 0.64867 0.0
H72 H 0.45814 0.606 0.77747 0.0
H73 H 0.44025 0.63619 0.82072 0.0
H74 H 0.34713 0.58036 0.76722 0.0
H75 H 0.36516 0.55061 0.72362 0.0
H76 H 0.28594 0.41971 0.62617 0.0
H77 H 0.25926 0.40771 0.55554 0.0
H78 H 0.2378 0.31146 0.56725 0.0
H79 H 0.26388 0.32372 0.63837 0.0
Nd80 Nd 0.88669 0.38782 1.05124 0.0
Nd81 Nd 0.92396 0.36243 1.02832 0.0
C82 C 0.84833 0.40832 1.07635 0.0
C83 C 0.83342 0.41122 1.11614 0.0
C84 C 0.84858 0.41702 0.15657 0.0
C85 C 0.83114 0.41061 0.19511 0.0
C86 C 0.79829 0.39759 0.19357 0.0
C87 C 0.78385 0.39479 0.15305 0.0
C88 C 0.8014 0.40168 1.11455 0.0
C89 C 0.85212 0.32894 1.00874 0.0
C90 C 0.92324 0.37558 0.13775 0.0
C91 C 0.94512 0.32523 1.00231 0.0
C92 C 0.94532 0.30251 0.97149 0.0
C93 C 0.95192 0.27985 0.98757 0.0
C94 C 0.9594 0.26245 0.9588 0.0
C95 C 0.96048 0.26762 0.91352 0.0
C96 C 0.95104 0.28838 0.89747 0.0
C97 C 0.94353 0.30575 0.9263 0.0
C98 C 0.96158 0.41989 1.06357 0.0
C99 C 0.91407 0.40698 0.95099 0.0
O100 O 0.87851 0.42682 1.07135 0.0
O101 O 0.83921 0.37943 1.06541 0.0
O102 O 0.85476 0.35504 0.99556 0.0
O103 O 0.8709 0.33515 1.04079 0.0
O104 O 0.90473 0.38674 1.12469 0.0
O105 O 0.93143 0.36167 1.1066 0.0
O106 O 0.92107 0.31593 1.02868 0.0
O107 O 0.95712 0.35432 0.98937 0.0
O108 O 0.9675 0.3971 1.06485 0.0
O109 O 0.93858 0.41323 1.03844 0.0
O110 O 0.92091 0.38405 0.95797 0.0
O111 O 0.90333 0.41567 0.9851 0.0
H112 H 0.87332 0.42438 0.15839 0.0
H113 H 0.84308 0.41398 0.22604 0.0
H114 H 0.75868 0.38494 0.15076 0.0
H115 H 0.78942 0.39702 1.08339 0.0
H116 H 0.95327 0.27706 1.02251 0.0
H117 H 0.96621 0.24639 0.97206 0.0
H118 H 0.95194 0.29322 0.86281 0.0
H119 H 0.93838 0.32311 0.91336 0.0
Nd120 Nd 0.49803 0.88634 0.38376 0.0
Nd121 Nd 0.55957 0.93016 0.35412 0.0
C122 C 0.43824 0.84573 0.40041 0.0
C123 C 0.42304 0.81531 0.42264 0.0
C124 C 0.39644 0.8067 0.44867 0.0
C125 C 0.38713 0.78278 0.47949 0.0
C126 C 0.40463 0.76759 0.48484 0.0
C127 C 0.42909 0.77392 0.45537 0.0
C128 C 0.43822 0.79762 0.42439 0.0
C129 C 0.53136 0.85537 0.36072 0.0
C130 C 0.54911 0.92458 0.46564 0.0
C131 C 0.61633 0.95451 0.32219 0.0
C132 C 0.64819 0.96811 0.30425 0.0
C133 C 0.66051 0.94873 0.293 0.0
C134 C 0.68985 0.96142 0.27261 0.0
C135 C 0.70742 0.99373 0.26372 0.0
C136 C 0.69551 0.0132 0.27697 0.0
C137 C 0.6661 0.00048 0.29689 0.0
C138 C 0.53497 0.96094 0.39855 0.0
C139 C 0.50325 0.91664 0.28173 0.0
O140 O 0.45566 0.86973 0.42562 0.0
O141 O 0.45182 0.84691 0.36309 0.0
O142 O 0.51696 0.85221 0.3976 0.0
O143 O 0.53074 0.87723 0.33976 0.0
O144 O 0.51888 0.90647 0.45501 0.0
O145 O 0.56994 0.93274 0.43249 0.0
O146 O 0.60366 0.9289 0.34595 0.0
O147 O 0.59858 0.96688 0.31489 0.0
O148 O 0.56481 0.97095 0.3958 0.0
O149 O 0.5198 0.93794 0.3728 0.0
O150 O 0.53422 0.93066 0.28811 0.0
O151 O 0.48455 0.89972 0.31483 0.0
H152 H 0.38452 0.82016 0.44774 0.0
H153 H 0.36838 0.77857 0.50215 0.0
H154 H 0.44291 0.7625 0.45893 0.0
H155 H 0.4587 0.80374 0.40432 0.0
H156 H 0.64696 0.92364 0.29847 0.0
H157 H 0.69838 0.94585 0.26261 0.0
H158 H 0.70811 0.03809 0.26978 0.0
H159 H 0.65706 0.01585 0.30561 0.0
Nd160 Nd 0.60377 0.49231 0.71439 0.0
Nd161 Nd 0.61403 0.55135 0.6878 0.0
C162 C 0.5884 0.43286 0.72697 0.0
C163 C 0.5824 0.41276 0.76487 0.0
C164 C 0.57425 0.42076 0.80494 0.0
C165 C 0.57824 0.40839 0.84356 0.0
C166 C 0.59064 0.38814 0.84246 0.0
C167 C 0.59546 0.37749 0.8021 0.0
C168 C 0.59143 0.38989 0.76331 0.0
C169 C 0.66741 0.53123 0.69315 0.0
C170 C 0.59732 0.53517 0.79772 0.0
C171 C 0.64609 0.61309 0.68256 0.0
C172 C 0.66936 0.63751 0.65428 0.0
C173 C 0.68432 0.66889 0.668 0.0
C174 C 0.70439 0.6927 0.63947 0.0
C175 C 0.70952 0.6853 0.59679 0.0
C176 C 0.69567 0.65348 0.5843 0.0
C177 C 0.67582 0.62979 0.61289 0.0
C178 C 0.55219 0.50971 0.69323 0.0
C179 C 0.58753 0.49966 0.60746 0.0
O180 O 0.56799 0.44153 0.71861 0.0
O181 O 0.61711 0.45611 0.72441 0.0
O182 O 0.65684 0.51729 0.73051 0.0
O183 O 0.64415 0.52852 0.67121 0.0
O184 O 0.5962 0.508 0.78727 0.0
O185 O 0.60426 0.55541 0.76472 0.0
O186 O 0.65584 0.59683 0.70444 0.0
O187 O 0.61804 0.59583 0.66577 0.0
O188 O 0.5637 0.5328 0.66531 0.0
O189 O 0.57278 0.51274 0.72038 0.0
O190 O 0.6018 0.53048 0.61574 0.0
O191 O 0.58473 0.48073 0.64054 0.0
H192 H 0.56739 0.4385 0.8067 0.0
H193 H 0.57403 0.41658 0.8745 0.0
H194 H 0.605 0.36187 0.80067 0.0
H195 H 0.59794 0.38368 0.73247 0.0
H196 H 0.67969 0.67504 0.70022 0.0
H197 H 0.71488 0.7169 0.65018 0.0
H198 H 0.69849 0.64682 0.55147 0.0
H199 H 0.6645 0.60553 0.60208 0.0
Nd200 Nd 0.10586 0.6105 1.05369 0.0
Nd201 Nd 0.0647 0.6309 1.0307 0.0
C202 C 0.14678 0.59435 1.08127 0.0
C203 C 0.15856 0.59052 1.12303 0.0
C204 C 0.14043 0.5846 0.16104 0.0
C205 C 0.15482 0.59087 0.20184 0.0
C206 C 0.18752 0.60353 0.20497 0.0
C207 C 0.20496 0.60637 0.16703 0.0
C208 C 0.19049 0.5999 1.12618 0.0
C209 C 0.13704 0.66812 1.00824 0.0
C210 C 0.06679 0.62135 0.13974 0.0
C211 C 0.04031 0.66507 1.00478 0.0
C212 C 0.04375 0.69053 0.97662 0.0
C213 C 0.03827 0.7136 0.99478 0.0
C214 C 0.03727 0.73593 0.96807 0.0
C215 C 0.04154 0.73534 0.92266 0.0
C216 C 0.04909 0.71335 0.90507 0.0
C217 C 0.05024 0.69114 0.93187 0.0
C218 C 0.03083 0.57328 1.06816 0.0
C219 C 0.07723 0.5874 0.95421 0.0
O220 O 0.11795 0.57385 1.07065 0.0
O221 O 0.15366 0.62311 1.0737 0.0
O222 O 0.13637 0.64251 0.99663 0.0
O223 O 0.11808 0.66177 1.04045 0.0
O224 O 0.08727 0.61231 1.1272 0.0
O225 O 0.05647 0.63247 1.10812 0.0
O226 O 0.06014 0.6731 1.03707 0.0
O227 O 0.03321 0.63807 0.98682 0.0
O228 O 0.02211 0.59408 1.06782 0.0
O229 O 0.05412 0.58141 1.0428 0.0
O230 O 0.06766 0.60833 0.96116 0.0
O231 O 0.09066 0.58158 0.98768 0.0
H232 H 0.11575 0.57745 0.15914 0.0
H233 H 0.14071 0.58771 0.2308 0.0
H234 H 0.23013 0.61595 0.16859 0.0
H235 H 0.20477 0.60478 1.09693 0.0
H236 H 0.03345 0.71354 1.02947 0.0
H237 H 0.03172 0.75269 0.98264 0.0
H238 H 0.05203 0.71183 0.87015 0.0
H239 H 0.05477 0.67366 0.9173 0.0
Nd240 Nd 0.90998 0.51207 0.54028 0.0
Nd241 Nd 0.94141 0.57225 0.56375 0.0
C242 C 0.87842 0.45396 0.51019 0.0
C243 C 0.84504 0.43401 0.4996 0.0
C244 C 0.82909 0.44686 0.47812 0.0
C245 C 0.79837 0.42767 0.46428 0.0
C246 C 0.78245 0.395 0.4721 0.0
C247 C 0.79751 0.38296 0.49824 0.0
C248 C 0.82871 0.40226 0.51137 0.0
C249 C 0.86673 0.52965 0.57315 0.0
C250 C 0.94991 0.56176 0.45626 0.0
C251 C 0.95858 0.62954 0.59145 0.0
C252 C 0.95089 0.64834 0.62083 0.0
C253 C 0.95399 0.67646 0.60516 0.0
C254 C 0.95161 0.69736 0.6338 0.0
C255 C 0.94637 0.69051 0.67865 0.0
C256 C 0.94077 0.66104 0.69345 0.0
C257 C 0.94296 0.64009 0.66473 0.0
C258 C 0.98433 0.55482 0.54241 0.0
C259 C 0.9288 0.51738 0.64205 0.0
O260 O 0.89448 0.47833 0.48505 0.0
O261 O 0.88468 0.46058 0.55147 0.0
O262 O 0.86831 0.50524 0.58356 0.0
O263 O 0.88891 0.5455 0.54586 0.0
O264 O 0.9319 0.53192 0.46853 0.0
O265 O 0.95593 0.58307 0.48758 0.0
O266 O 0.93974 0.61616 0.55846 0.0
O267 O 0.9689 0.61216 0.60867 0.0
O268 O 0.98734 0.58126 0.53017 0.0
O269 O 0.9597 0.53894 0.56473 0.0
O270 O 0.93192 0.54587 0.63501 0.0
O271 O 0.92568 0.5007 0.6064 0.0
H272 H 0.84085 0.47161 0.47009 0.0
H273 H 0.7884 0.43855 0.44441 0.0
H274 H 0.78593 0.35833 0.50663 0.0
H275 H 0.84036 0.3922 0.52951 0.0
H276 H 0.95978 0.68296 0.57111 0.0
H277 H 0.95561 0.71961 0.62127 0.0
H278 H 0.93707 0.65501 0.72784 0.0
H279 H 0.94011 0.61828 0.67732 0.0
Nd280 Nd 0.39943 0.91518 0.87091 0.0
Nd281 Nd 0.36739 0.9432 0.89092 0.0
C282 C 0.42899 0.88638 0.84061 0.0
C283 C 0.41855 0.85575 0.81986 0.0
C284 C 0.39463 0.84418 0.78858 0.0
C285 C 0.38633 0.81639 0.76631 0.0
C286 C 0.40129 0.79902 0.77536 0.0
C287 C 0.42388 0.80971 0.80894 0.0
C288 C 0.43258 0.83799 0.8308 0.0
C289 C 0.33792 0.87015 0.90006 0.0
C290 C 0.3892 0.95239 0.78457 0.0
C291 C 0.32502 0.95783 0.91723 0.0
C292 C 0.2981 0.94831 0.94616 0.0
C293 C 0.28173 0.91812 0.96421 0.0
C294 C 0.2573 0.91062 0.99404 0.0
C295 C 0.24922 0.93333 1.00623 0.0
C296 C 0.26475 0.96292 0.98584 0.0
C297 C 0.28894 0.97027 0.95609 0.0
C298 C 0.42718 0.98948 0.87447 0.0
C299 C 0.40966 0.93257 0.97208 0.0
O300 O 0.42499 0.90647 0.81794 0.0
O301 O 0.4215 0.88586 0.88163 0.0
O302 O 0.36396 0.87345 0.91417 0.0
O303 O 0.34453 0.89146 0.8716 0.0
O304 O 0.40364 0.93754 0.79937 0.0
O305 O 0.37055 0.95549 0.81374 0.0
O306 O 0.32095 0.93923 0.88428 0.0
O307 O 0.35251 0.96914 0.93556 0.0
O308 O 0.40303 0.99007 0.85947 0.0
O309 O 0.41952 0.9649 0.89628 0.0
O310 O 0.38308 0.93321 0.96319 0.0
O311 O 0.42545 0.93196 0.93738 0.0
H312 H 0.38303 0.8572 0.7801 0.0
H313 H 0.36934 0.80967 0.74025 0.0
H314 H 0.43553 0.79678 0.81747 0.0
H315 H 0.45072 0.84633 0.85553 0.0
H316 H 0.28845 0.90079 0.95627 0.0
H317 H 0.24574 0.88762 1.00902 0.0
H318 H 0.25983 0.98131 0.99499 0.0
H319 H 0.3013 0.9936 0.94204 0.0
Nd320 Nd 0.48394 0.39638 0.19864 0.0
Nd321 Nd 0.43142 0.35489 0.21469 0.0
C322 C 0.5416 0.43322 0.16864 0.0
C323 C 0.56797 0.42765 0.16216 0.0
C324 C 0.59181 0.4461 1.13244 0.0
C325 C 0.61153 0.43558 1.11616 0.0
C326 C 0.60717 0.4062 1.12895 0.0
C327 C 0.58581 0.38974 0.1627 0.0
C328 C 0.56637 0.40047 0.17924 0.0
C329 C 0.48175 0.33851 0.22039 0.0
C330 C 0.43752 0.38637 1.11486 0.0
C331 C 0.38121 0.30404 0.24498 0.0
C332 C 0.3497 0.29796 0.25669 0.0
C333 C 0.33623 0.28256 0.29599 0.0
C334 C 0.31026 0.28308 0.31342 0.0
C335 C 0.29713 0.29893 0.29167 0.0
C336 C 0.30929 0.3123 0.25051 0.0
C337 C 0.3355 0.31198 0.23327 0.0
C338 C 0.41996 0.40227 0.21444 0.0
C339 C 0.47959 0.4032 0.29863 0.0
O340 O 0.51751 0.41643 0.14337 0.0
O341 O 0.53336 0.43404 0.20905 0.0
O342 O 0.49704 0.36482 0.24093 0.0
O343 O 0.46628 0.34247 0.19079 0.0
O344 O 0.46365 0.40718 0.13453 0.0
O345 O 0.42077 0.35998 0.13798 0.0
O346 O 0.40349 0.32455 0.26985 0.0
O347 O 0.38893 0.3082 0.20371 0.0
O348 O 0.40314 0.37646 0.19346 0.0
O349 O 0.44542 0.40501 0.22918 0.0
O350 O 0.45576 0.3743 0.28802 0.0
O351 O 0.49346 0.42136 0.26504 0.0
H352 H 0.59342 0.46717 1.11898 0.0
H353 H 0.6276 0.4487 1.08988 0.0
H354 H 0.58203 0.36711 0.17317 0.0
H355 H 0.54839 0.38608 0.20257 0.0
H356 H 0.34713 0.27198 0.31475 0.0
H357 H 0.30206 0.27303 0.34555 0.0
H358 H 0.29955 0.32434 0.23263 0.0
H359 H 0.34559 0.32415 0.20285 0.0
Nd360 Nd 0.06914 0.47984 0.54561 0.0
Nd361 Nd 0.05817 0.42596 0.5604 0.0
C362 C 0.08778 0.53753 0.51847 0.0
C363 C 0.1184 0.5664 0.51712 0.0
C364 C 0.12226 0.59144 0.49135 0.0
C365 C 0.15236 0.61476 0.47895 0.0
C366 C 0.17889 0.61295 0.49177 0.0
C367 C 0.17499 0.59014 0.52245 0.0
C368 C 0.14487 0.56689 0.53487 0.0
C369 C 0.12489 0.47944 0.57327 0.0
C370 C 0.03799 0.43556 0.45751 0.0
C371 C 0.06253 0.37661 0.58365 0.0
C372 C 0.07661 0.36495 0.61486 0.0
C373 C 0.07948 0.33896 0.60313 0.0
C374 C 0.08411 0.32172 0.63531 0.0
C375 C 0.08535 0.33006 0.67967 0.0
C376 C 0.08655 0.35858 0.69034 0.0
C377 C 0.08223 0.37593 0.65808 0.0
C378 C -9e-05 0.41421 0.54695 0.0
C379 C 0.05639 0.47263 0.64547 0.0
O380 O 0.08544 0.51513 0.49279 0.0
O381 O 0.0757 0.52736 0.55715 0.0
O382 O 0.1127 0.49449 0.59152 0.0
O383 O 0.10663 0.46358 0.5423 0.0
O384 O 0.04184 0.46094 0.47807 0.0
O385 O 0.04685 0.41847 0.48135 0.0
O386 O 0.08086 0.39673 0.5544 0.0
O387 O 0.04148 0.38287 0.59916 0.0
O388 O 0.01054 0.39704 0.5309 0.0
O389 O 0.02036 0.43895 0.56715 0.0
O390 O 0.06236 0.44939 0.63447 0.0
O391 O 0.0516 0.4863 0.61224 0.0
H392 H 0.10204 0.59146 0.47756 0.0
H393 H 0.1544 0.63188 0.45512 0.0
H394 H 0.19497 0.58832 0.53314 0.0
H395 H 0.14234 0.54787 0.55515 0.0
H396 H 0.0756 0.33049 0.56963 0.0
H397 H 0.08388 0.30035 0.62589 0.0
H398 H 0.0874 0.36589 0.72404 0.0
H399 H 0.08049 0.39626 0.66753 0.0
Nd400 Nd 0.59512 0.07066 0.87311 0.0
Nd401 Nd 0.63593 0.05601 0.88864 0.0
C402 C 0.5578 0.09172 0.84722 0.0
C403 C 0.5608 0.12283 0.84595 0.0
C404 C 0.58775 0.14903 0.86269 0.0
C405 C 0.59516 0.17927 0.85048 0.0
C406 C 0.57592 0.18353 0.8208 0.0
C407 C 0.54676 0.15737 0.80925 0.0
C408 C 0.53938 0.12717 0.82155 0.0
C409 C 0.65368 0.12437 0.89913 0.0
C410 C 0.60718 0.03842 0.78511 0.0
C411 C 0.68661 0.05394 0.91143 0.0
C412 C 0.7131 0.0629 0.94073 0.0
C413 C 0.72936 0.0925 0.96081 0.0
C414 C 0.75263 0.09854 0.99173 0.0
C415 C 0.7595 0.07491 1.00322 0.0
C416 C 0.74419 0.04603 0.98069 0.0
C417 C 0.72135 0.04021 0.94975 0.0
C418 C 0.5862 -0.00043 0.87383 0.0
C419 C 0.58868 0.05731 0.97299 0.0
O420 O 0.57686 0.08812 0.82101 0.0
O421 O 0.556 0.07991 0.88589 0.0
O422 O 0.62697 0.11406 0.91841 0.0
O423 O 0.64954 0.10501 0.86878 0.0
O424 O 0.58636 0.04375 0.80502 0.0
O425 O 0.6324 0.04534 0.80966 0.0
O426 O 0.68737 0.07489 0.88477 0.0
O427 O 0.65864 0.03488 0.92684 0.0
O428 O 0.61361 0.00821 0.85773 0.0
O429 O 0.58415 0.02116 0.89462 0.0
O430 O 0.61746 0.06182 0.96247 0.0
O431 O 0.57076 0.05369 0.93949 0.0
H432 H 0.60441 0.14609 0.88201 0.0
H433 H 0.61754 0.19896 0.86038 0.0
H434 H 0.53132 0.15962 0.78634 0.0
H435 H 0.51835 0.10715 0.80869 0.0
H436 H 0.7234 0.11042 0.95376 0.0
H437 H 0.76418 0.12116 1.00802 0.0
H438 H 0.74805 0.02689 0.98897 0.0
H439 H 0.70906 0.0173 0.9342 0.0
Nd440 Nd 0.49071 0.59698 0.19607 0.0
Nd441 Nd 0.54902 0.60651 0.22586 0.0
C442 C 0.43252 0.58271 0.177 0.0
C443 C 0.42095 0.5991 0.14979 0.0
C444 C 0.4408 0.62001 1.11788 0.0
C445 C 0.4296 0.63366 1.08889 0.0
C446 C 0.39831 0.62723 1.09154 0.0
C447 C 0.37906 0.60783 1.12568 0.0
C448 C 0.3903 0.5937 0.15449 0.0
C449 C 0.52954 0.66084 0.21642 0.0
C450 C 0.53587 0.59071 1.11599 0.0
C451 C 0.61058 0.63849 0.23377 0.0
C452 C 0.63426 0.6647 0.2596 0.0
C453 C 0.62934 0.6891 0.27369 0.0
C454 C 0.65065 0.71216 0.30205 0.0
C455 C 0.67688 0.71084 0.31726 0.0
C456 C 0.68261 0.68739 0.30078 0.0
C457 C 0.66144 0.66453 0.27212 0.0
C458 C 0.50652 0.54454 0.2231 0.0
C459 C 0.49536 0.58137 0.30388 0.0
O460 O 0.44776 0.57136 0.15591 0.0
O461 O 0.44676 0.59722 0.21275 0.0
O462 O 0.51473 0.65013 0.17967 0.0
O463 O 0.52692 0.6377 0.23828 0.0
O464 O 0.5097 0.59199 1.12444 0.0
O465 O 0.55438 0.59523 0.15033 0.0
O466 O 0.59513 0.64549 0.20552 0.0
O467 O 0.59275 0.61239 0.25509 0.0
O468 O 0.53025 0.55641 0.24998 0.0
O469 O 0.50987 0.56462 0.19483 0.0
O470 O 0.52641 0.5966 0.29706 0.0
O471 O 0.47694 0.57665 0.26923 0.0
H472 H 0.46471 0.62475 1.11413 0.0
H473 H 0.44518 0.64773 1.06278 0.0
H474 H 0.35506 0.60271 1.12933 0.0
H475 H 0.37487 0.57799 0.17958 0.0
H476 H 0.60847 0.68968 0.26412 0.0
H477 H 0.64575 0.73007 0.31386 0.0
H478 H 0.70225 0.68532 0.31233 0.0
H479 H 0.66557 0.64588 0.26131 0.0
H480 H 0.42797 0.14923 0.33453 0.0
H481 H 0.52665 0.19416 0.30381 0.0
H482 H 0.42664 0.19539 0.30533 0.0
H483 H 0.52551 0.23967 0.2759 0.0
H484 H 0.52332 0.33181 0.27174 0.0
H485 H 0.52084 0.28445 0.30042 0.0
H486 H 0.43249 0.22753 0.23509 0.0
H487 H 0.43534 0.27553 0.20556 0.0
C488 C 0.44944 0.16888 0.32205 0.0
C489 C 0.47747 0.16749 0.32213 0.0
C490 C 0.44868 0.19545 0.30484 0.0
C491 C 0.47605 0.22198 0.28801 0.0
C492 C 0.50389 0.22038 0.28869 0.0
C493 C 0.5045 0.19385 0.30482 0.0
C494 C 0.50338 0.30927 0.26297 0.0
C495 C 0.47981 0.30803 0.23553 0.0
C496 C 0.50193 0.28178 0.27959 0.0
C497 C 0.47647 0.25145 0.27043 0.0
C498 C 0.4525 0.25011 0.24341 0.0
C499 C 0.45428 0.2778 0.22595 0.0
H500 H 0.27584 0.4867 0.74717 0.0
H501 H 0.30223 0.47354 0.61767 0.0
H502 H 0.22928 0.48597 0.71678 0.0
H503 H 0.2561 0.47249 0.58733 0.0
H504 H 0.15625 0.44809 0.54247 0.0
H505 H 0.20196 0.44771 0.57382 0.0
H506 H 0.20551 0.5093 0.67747 0.0
H507 H 0.16 0.50931 0.64633 0.0
C508 C 0.27187 0.48359 0.71222 0.0
C509 C 0.29321 0.47961 0.68549 0.0
C510 C 0.24488 0.48325 0.69438 0.0
C511 C 0.23771 0.47885 0.64885 0.0
C512 C 0.25944 0.47524 0.62238 0.0
C513 C 0.28638 0.47586 0.64011 0.0
C514 C 0.16677 0.46164 0.57188 0.0
C515 C 0.15382 0.47884 0.59124 0.0
C516 C 0.19344 0.46159 0.59013 0.0
C517 C 0.20848 0.47852 0.62898 0.0
C518 C 0.1952 0.49549 0.64822 0.0
C519 C 0.1688 0.4957 0.62985 0.0
H520 H 0.82381 0.31383 0.92819 0.0
H521 H 0.8186 0.27093 1.05252 0.0
H522 H 0.77872 0.26499 0.90196 0.0
H523 H 0.77255 0.22195 1.02666 0.0
H524 H 0.66749 0.15329 0.98 0.0
H525 H 0.71543 0.19957 1.00618 0.0
H526 H 0.75844 0.20867 0.8798 0.0
H527 H 0.71053 0.16151 0.85401 0.0
C528 C 0.81327 0.29388 0.95006 0.0
C529 C 0.82564 0.2969 0.99267 0.0
C530 C 0.78711 0.26553 0.93479 0.0
C531 C 0.7712 0.23874 0.96171 0.0
C532 C 0.7836 0.24167 1.00449 0.0
C533 C 0.81042 0.26993 1.01942 0.0
C534 C 0.68717 0.1649 0.95762 0.0
C535 C 0.68449 0.15304 0.91452 0.0
C536 C 0.71504 0.19167 0.97291 0.0
C537 C 0.74159 0.20865 0.94558 0.0
C538 C 0.73889 0.19683 0.9023 0.0
C539 C 0.7112 0.16945 0.88733 0.0
H540 H 0.52235 0.70796 0.17863 0.0
H541 H 0.54458 0.68288 0.30249 0.0
H542 H 0.52396 0.75387 0.21228 0.0
H543 H 0.54689 0.72926 0.33638 0.0
H544 H 0.52081 0.79969 0.39794 0.0
H545 H 0.52178 0.75501 0.36438 0.0
H546 H 0.54948 0.80433 0.24136 0.0
H547 H 0.54779 0.84876 0.27516 0.0
C548 C 0.52804 0.71235 0.21308 0.0
C549 C 0.53344 0.69112 0.2373 0.0
C550 C 0.52909 0.73916 0.2327 0.0
C551 C 0.53554 0.7463 0.27782 0.0
C552 C 0.54134 0.72514 0.30192 0.0
C553 C 0.54033 0.69831 0.28219 0.0
C554 C 0.52735 0.80125 0.36375 0.0
C555 C 0.53429 0.82848 0.33976 0.0
C556 C 0.52806 0.77529 0.34418 0.0
C557 C 0.53569 0.77502 0.29938 0.0
C558 C 0.54296 0.80256 0.27555 0.0
C559 C 0.54229 0.82857 0.29521 0.0
H560 H 0.71275 0.5234 0.73382 0.0
H561 H 0.69293 0.54773 0.60769 0.0
H562 H 0.75979 0.52547 0.70444 0.0
H563 H 0.74064 0.54974 0.57762 0.0
H564 H 0.84539 0.57117 0.54521 0.0
H565 H 0.79895 0.57362 0.57167 0.0
H566 H 0.77757 0.49819 0.66129 0.0
H567 H 0.82309 0.49603 0.63554 0.0
C568 C 0.71837 0.52938 0.69963 0.0
C569 C 0.69824 0.53531 0.67365 0.0
C570 C 0.74567 0.53032 0.68235 0.0
C571 C 0.7548 0.53739 0.63789 0.0
C572 C 0.73515 0.54426 0.61193 0.0
C573 C 0.70744 0.54305 0.62931 0.0
C574 C 0.83087 0.55522 0.57071 0.0
C575 C 0.83881 0.53347 0.588 0.0
C576 C 0.80383 0.55645 0.58592 0.0
C577 C 0.78377 0.53634 0.61954 0.0
C578 C 0.79201 0.51474 0.63633 0.0
C579 C 0.81851 0.51334 0.62103 0.0
H580 H 0.28 0.83653 0.85543 0.0
H581 H 0.32252 0.84114 0.97988 0.0
H582 H 0.23105 0.79005 0.88072 0.0
H583 H 0.27374 0.79577 1.00556 0.0
H584 H 0.17082 0.72587 1.05296 0.0
H585 H 0.21693 0.77484 1.02732 0.0
H586 H 0.20961 0.73271 0.90075 0.0
H587 H 0.16446 0.68378 0.9268 0.0
C588 C 0.27893 0.82813 0.88841 0.0
C589 C 0.30581 0.84326 0.91533 0.0
C590 C 0.25068 0.80109 0.90304 0.0
C591 C 0.24766 0.78845 0.9457 0.0
C592 C 0.27433 0.80433 0.97281 0.0
C593 C 0.30267 0.83063 0.95782 0.0
C594 C 0.17869 0.72709 1.01947 0.0
C595 C 0.16314 0.70033 0.99215 0.0
C596 C 0.20556 0.75534 1.00465 0.0
C597 C 0.2177 0.75852 0.96144 0.0
C598 C 0.20141 0.73199 0.93393 0.0
C599 C 0.17521 0.70359 0.94908 0.0
H600 H 0.53038 0.04897 0.99621 0.0
H601 H 0.61645 0.06924 1.05903 0.0
H602 H 0.50864 0.053 1.06547 0.0
H603 H 0.59436 0.07265 1.12986 0.0
H604 H 0.55458 0.09001 0.25933 0.0
H605 H 0.57679 0.08526 0.19021 0.0
H606 H 0.48596 0.04818 1.12981 0.0
H607 H 0.46421 0.05375 0.1992 0.0
C608 C 0.54501 0.0541 1.02488 0.0
C609 C 0.57582 0.0586 1.01994 0.0
C610 C 0.53207 0.05639 1.066 0.0
C611 C 0.54876 0.06331 1.10619 0.0
C612 C 0.5797 0.06757 1.10136 0.0
C613 C 0.59277 0.06537 1.05979 0.0
C614 C 0.53904 0.08083 0.23145 0.0
C615 C 0.507 0.07248 0.23675 0.0
C616 C 0.55209 0.07788 0.19064 0.0
C617 C 0.53416 0.06622 0.15153 0.0
C618 C 0.50189 0.05767 0.15711 0.0
C619 C 0.48887 0.06076 0.19804 0.0
H620 H 0.43193 0.54666 0.33034 0.0
H621 H 0.52416 0.5818 0.38398 0.0
H622 H 0.40837 0.52205 0.40066 0.0
H623 H 0.50077 0.55752 0.4545 0.0
H624 H 0.36986 0.46022 0.52882 0.0
H625 H 0.39303 0.4829 0.45691 0.0
H626 H 0.47548 0.55533 0.52112 0.0
H627 H 0.45245 0.53291 0.592 0.0
C628 C 0.44753 0.54951 0.35701 0.0
C629 C 0.48056 0.56698 0.34973 0.0
C630 C 0.43373 0.53488 0.39814 0.0
C631 C 0.45192 0.53709 0.43545 0.0
C632 C 0.48503 0.55488 0.42818 0.0
C633 C 0.49881 0.56912 0.38683 0.0
C634 C 0.39303 0.48085 0.52792 0.0
C635 C 0.40871 0.49409 0.56805 0.0
C636 C 0.40655 0.49434 0.48591 0.0
C637 C 0.43686 0.5217 0.48109 0.0
C638 C 0.45253 0.53439 0.52137 0.0
C639 C 0.43892 0.52126 0.56306 0.0
H640 H 0.90314 0.45586 0.92878 0.0
H641 H 0.93346 0.39696 0.86667 0.0
H642 H 0.90732 0.4818 0.85931 0.0
H643 H 0.9382 0.42325 0.79666 0.0
H644 H 0.92692 0.46116 0.66234 0.0
H645 H 0.92433 0.43622 0.73203 0.0
H646 H 0.92736 0.51461 0.8001 0.0
H647 H 0.92951 0.53937 0.72956 0.0
C648 C 0.91089 0.4482 0.90044 0.0
C649 C 0.91775 0.42349 0.90536 0.0
C650 C 0.91353 0.46362 0.85949 0.0
C651 C 0.92319 0.45561 0.81974 0.0
C652 C 0.93024 0.43087 0.82474 0.0
C653 C 0.92766 0.41546 0.86593 0.0
C654 C 0.92711 0.47349 0.69192 0.0
C655 C 0.92845 0.50299 0.68827 0.0
C656 C 0.92575 0.45885 0.73307 0.0
C657 C 0.92546 0.47237 0.77433 0.0
C658 C 0.92703 0.50214 0.77067 0.0
C659 C 0.92852 0.5169 0.72926 0.0
H660 H 0.38254 0.92425 1.0582 0.0
H661 H 0.46715 0.93864 0.99542 0.0
H662 H 0.40383 0.92121 1.12964 0.0
H663 H 0.48825 0.93543 1.06578 0.0
H664 H 0.53344 0.94644 0.20262 0.0
H665 H 0.51188 0.95122 1.13303 0.0
H666 H 0.41838 0.89904 0.18653 0.0
H667 H 0.44024 0.89459 0.2563 0.0
C668 C 0.40575 0.92696 1.05907 0.0
C669 C 0.42254 0.93186 1.01905 0.0
C670 C 0.41824 0.92495 1.10092 0.0
C671 C 0.44855 0.92796 1.10595 0.0
C672 C 0.46525 0.93321 1.06574 0.0
C673 C 0.45273 0.93495 1.02418 0.0
C674 C 0.5082 0.93585 0.20006 0.0
C675 C 0.48921 0.91995 0.23702 0.0
C676 C 0.49542 0.93845 0.15903 0.0
C677 C 0.46256 0.9255 0.1516 0.0
C678 C 0.44362 0.90987 0.18891 0.0
C679 C 0.45643 0.90711 0.22988 0.0
H680 H 0.4653 0.37366 0.38323 0.0
H681 H 0.52557 0.46312 0.3233 0.0
H682 H 0.48965 0.39579 0.45467 0.0
H683 H 0.55005 0.48492 0.39329 0.0
H684 H 0.55387 0.43671 0.57911 0.0
H685 H 0.52759 0.41383 0.5096 0.0
H686 H 0.55697 0.50658 0.46123 0.0
H687 H 0.58352 0.5292 0.53059 0.0
C688 C 0.4836 0.39807 0.38478 0.0
C689 C 0.49277 0.41602 0.34566 0.0
C690 C 0.49812 0.41107 0.42651 0.0
C691 C 0.52273 0.44294 0.43208 0.0
C692 C 0.53138 0.46069 0.39278 0.0
C693 C 0.51705 0.44776 0.35144 0.0
C694 C 0.55517 0.45252 0.55368 0.0
C695 C 0.57189 0.48542 0.56201 0.0
C696 C 0.53948 0.43909 0.51299 0.0
C697 C 0.53941 0.45756 0.47733 0.0
C698 C 0.55614 0.49056 0.48593 0.0
C699 C 0.57171 0.50395 0.5267 0.0
H700 H 0.04915 0.5897 0.87415 0.0
H701 H 0.09581 0.54402 0.92925 0.0
H702 H 0.04303 0.56197 0.80501 0.0
H703 H 0.09054 0.51674 0.86015 0.0
H704 H 0.07161 0.45867 0.73043 0.0
H705 H 0.07543 0.48422 0.8014 0.0
H706 H 0.04959 0.54637 0.73937 0.0
H707 H 0.04513 0.52052 0.67 0.0
C708 C 0.05838 0.57387 0.87191 0.0
C709 C 0.07319 0.56994 0.90915 0.0
C710 C 0.055 0.55757 0.83111 0.0
C711 C 0.06626 0.53609 0.82416 0.0
C712 C 0.08096 0.53223 0.8618 0.0
C713 C 0.08423 0.54844 0.90253 0.0
C714 C 0.06642 0.47758 0.73175 0.0
C715 C 0.05779 0.48666 0.69254 0.0
C716 C 0.06888 0.49289 0.77336 0.0
C717 C 0.06304 0.51849 0.77885 0.0
C718 C 0.05422 0.52712 0.73933 0.0
C719 C 0.0517 0.51189 0.69817 0.0
H720 H 0.20661 0.95322 1.02033 0.0
H721 H 0.24914 0.90524 1.08282 0.0
H722 H 0.19782 0.96974 1.09195 0.0
H723 H 0.23948 0.92068 0.15348 0.0
H724 H 0.25041 0.96743 0.27082 0.0
H725 H 0.21407 0.93283 0.21529 0.0
H726 H 0.24823 0.01113 1.12626 0.0
H727 H 0.28414 0.04569 0.18192 0.0
C728 C 0.21266 0.94488 1.04933 0.0
C729 C 0.23002 0.92933 1.04589 0.0
C730 C 0.20742 0.95419 1.09031 0.0
C731 C 0.21902 0.94751 1.12812 0.0
C732 C 0.23049 0.92652 1.12496 0.0
C733 C 0.23609 0.91758 1.08408 0.0
C734 C 0.24896 0.97759 0.24021 0.0
C735 C 0.27062 0.00907 0.23012 0.0
C736 C 0.22813 0.9577 0.20841 0.0
C737 C 0.22875 0.96907 0.16619 0.0
C738 C 0.24708 0.00156 0.15848 0.0
C739 C 0.26799 0.02139 0.19018 0.0
H740 H 0.24923 0.25999 0.34674 0.0
H741 H 0.29375 0.35291 0.29048 0.0
H742 H 0.22549 0.27645 0.40258 0.0
H743 H 0.26742 0.36853 0.34373 0.0
H744 H 0.28302 0.39656 0.49067 0.0
H745 H 0.28282 0.38203 0.41537 0.0
H746 H 0.19586 0.29492 0.4372 0.0
H747 H 0.19708 0.3093 0.51417 0.0
C748 C 0.25308 0.28364 0.34536 0.0
C749 C 0.27443 0.30542 0.3152 0.0
C750 C 0.23895 0.29303 0.37708 0.0
C751 C 0.24531 0.32427 0.37871 0.0
C752 C 0.26288 0.34462 0.34445 0.0
C753 C 0.27767 0.33545 0.31336 0.0
C754 C 0.26313 0.37487 0.4791 0.0
C755 C 0.24029 0.35382 0.5084 0.0
C756 C 0.26291 0.36646 0.43551 0.0
C757 C 0.23963 0.33686 0.42005 0.0
C758 C 0.21465 0.31748 0.44824 0.0
C759 C 0.21517 0.32574 0.49223 0.0
H760 H 0.04384 0.26688 0.67498 0.0
H761 H 0.10787 0.33912 0.76378 0.0
H762 H 0.01509 0.23413 0.73646 0.0
H763 H 0.07773 0.3073 0.82526 0.0
H764 H 0.01425 0.26612 0.92952 0.0
H765 H 0.0497 0.26525 0.87456 0.0
H766 H 0.98016 0.24566 0.77489 0.0
H767 H 0.94428 0.24481 0.83013 0.0
C768 C 0.05274 0.27537 0.70753 0.0
C769 C 0.07743 0.3063 0.71449 0.0
C770 C 0.03588 0.25659 0.74292 0.0
C771 C 0.04308 0.26862 0.78571 0.0
C772 C 0.07105 0.29728 0.79277 0.0
C773 C 0.08826 0.31584 0.75738 0.0
C774 C 0.00589 0.26 0.89622 0.0
C775 C 0.97678 0.25643 0.88385 0.0
C776 C 0.02641 0.25981 0.8646 0.0
C777 C 0.0183 0.25644 0.82011 0.0
C778 C 0.98746 0.24847 0.80876 0.0
C779 C 0.96687 0.24837 0.84039 0.0
H780 H 0.7628 0.04931 0.2726 0.0
H781 H 0.71487 0.96779 0.18888 0.0
H782 H 0.79843 0.0783 0.21243 0.0
H783 H 0.75064 -0.00365 1.12964 0.0
H784 H 0.76055 0.10425 1.08001 0.0
H785 H 0.76918 0.08936 0.15112 0.0
H786 H 0.80463 0.03351 1.09141 0.0
H787 H 0.79797 0.05023 1.01919 0.0
C788 C 0.76076 0.03719 0.24201 0.0
C789 C 0.73546 0.00668 0.23492 0.0
C790 C 0.78134 0.05368 0.20781 0.0
C791 C 0.77689 0.03977 0.16627 0.0
C792 C 0.75477 0.00769 0.16138 0.0
C793 C 0.73407 0.99128 0.19542 0.0
C794 C 0.77212 0.0905 1.08156 0.0
C795 C 0.77721 0.07729 1.04367 0.0
C796 C 0.7771 0.08189 1.12273 0.0
C797 C 0.78676 0.05956 1.12668 0.0
C798 C 0.79672 0.05041 1.08912 0.0
C799 C 0.79251 0.05972 1.04782 0.0
H800 H 0.7041 0.73756 0.58646 0.0
H801 H 0.74861 0.68888 0.52997 0.0
H802 H 0.71154 0.76542 0.51829 0.0
H803 H 0.75385 0.71486 0.4609 0.0
H804 H 0.65301 0.72379 0.38958 0.0
H805 H 0.6767 0.73736 0.46065 0.0
H806 H 0.76457 0.75289 0.40561 0.0
H807 H 0.74031 0.7389 0.33331 0.0
C808 C 0.71661 0.73366 0.56014 0.0
C809 C 0.72456 0.70998 0.56295 0.0
C810 C 0.72063 0.74949 0.52081 0.0
C811 C 0.73191 0.74132 0.48353 0.0
C812 C 0.74464 0.72154 0.48863 0.0
C813 C 0.7412 0.70618 0.52819 0.0
C814 C 0.67781 0.73159 0.39194 0.0
C815 C 0.69455 0.72947 0.35594 0.0
C816 C 0.6916 0.73954 0.43308 0.0
C817 C 0.72245 0.74553 0.43918 0.0
C818 C 0.74053 0.74766 0.40213 0.0
C819 C 0.72664 0.7396 0.36078 0.0
H820 H 0.99258 0.74656 0.93124 0.0
H821 H 0.07031 0.76457 0.84621 0.0
H822 H 0.96705 0.75692 0.87135 0.0
H823 H 0.04393 0.77257 0.7857 0.0
H824 H 0.99219 0.75249 0.67515 0.0
H825 H 0.01585 0.78597 0.73832 0.0
H826 H 0.94039 0.71771 0.81956 0.0
H827 H 0.91563 0.68566 0.75593 0.0
C828 C 0.00489 0.75394 0.90023 0.0
C829 C 0.03281 0.7533 0.8928 0.0
C830 C 0.99002 0.7596 0.86566 0.0
C831 C 0.00243 0.76383 0.82305 0.0
C832 C 0.03307 0.76878 0.81769 0.0
C833 C 0.04818 0.7637 0.85239 0.0
C834 C 0.97964 0.74544 0.706 0.0
C835 C 0.95281 0.7156 0.71104 0.0
C836 C -0.00652 0.76461 0.74247 0.0
C837 C 0.98118 0.75377 0.78451 0.0
C838 C 0.9512 0.72677 0.78802 0.0
C839 C 0.93704 0.70796 0.75145 0.0
H840 H 0.41949 0.9857 0.45518 0.0
H841 H 0.51515 0.05504 0.42423 0.0
H842 H 0.43727 0.97118 0.52037 0.0
H843 H 0.53248 0.04278 0.49083 0.0
H844 H 0.47441 0.92819 0.42787 0.0
H845 H 0.45389 0.93635 0.49605 0.0
H846 H 0.54548 0.00978 0.53244 0.0
H847 H 0.56737 0.00072 0.46569 0.0
C848 C 0.44441 -0.00232 0.46212 0.0
C849 C 0.46651 0.01961 0.4326 0.0
C850 C 0.45443 0.99038 0.50054 0.0
C851 C 0.48674 0.00225 0.50678 0.0
C852 C 0.50757 0.02995 0.48388 0.0
C853 C 0.49798 0.03675 0.44488 0.0
C854 C 0.49026 0.94635 0.45009 0.0
C855 C 0.52194 0.96601 0.43919 0.0
C856 C 0.47888 0.95057 0.48994 0.0
C857 C 0.49734 0.97892 0.51297 0.0
C858 C 0.52993 0.99112 0.51047 0.0
C859 C 0.54225 0.98712 0.47117 0.0
H860 H 0.4128 0.38915 0.74539 0.0
H861 H 0.41039 0.43089 0.62297 0.0
H862 H 0.43851 0.36374 0.70732 0.0
H863 H 0.43491 0.4037 0.58734 0.0
H864 H 0.52439 0.49139 0.61359 0.0
H865 H 0.48721 0.43881 0.59012 0.0
H866 H 0.48872 0.40462 0.72005 0.0
H867 H 0.52618 0.45736 0.74263 0.0
C868 C 0.41916 0.39418 0.71117 0.0
C869 C 0.41517 0.41684 0.68869 0.0
C870 C 0.43271 0.37887 0.68895 0.0
C871 C 0.44812 0.39222 0.64917 0.0
C872 C 0.43094 0.40132 0.62236 0.0
C873 C 0.41795 0.41776 0.64272 0.0
C874 C 0.51636 0.47256 0.63719 0.0
C875 C 0.52702 0.47851 0.68048 0.0
C876 C 0.49542 0.44211 0.62356 0.0
C877 C 0.48197 0.41741 0.65426 0.0
C878 C 0.49624 0.42301 0.6959 0.0
C879 C 0.51738 0.45344 0.7094 0.0
H880 H 0.00453 0.4293 1.12586 0.0
H881 H 0.93422 0.45305 1.09126 0.0
H882 H 0.01893 0.46394 0.18915 0.0
H883 H 0.94666 0.4854 0.15568 0.0
H884 H 0.9883 0.56296 1.13249 0.0
H885 H 0.97802 0.53133 0.19804 0.0
H886 H 0.05312 0.51487 0.16359 0.0
H887 H 0.06342 0.54568 1.09769 0.0
C888 C 0.99228 0.44215 1.13163 0.0
C889 C 0.9701 0.44085 1.10154 0.0
C890 C -0.00042 0.46089 0.16896 0.0
C891 C 0.98729 0.4811 0.17363 0.0
C892 C 0.9596 0.47324 0.15015 0.0
C893 C 0.95269 0.45522 1.11234 0.0
C894 C 0.0023 0.55201 0.1384 0.0
C895 C 0.02472 0.55411 1.10755 0.0
C896 C -0.00253 0.53517 0.17706 0.0
C897 C 0.01013 0.51525 0.17963 0.0
C898 C 0.03895 0.5256 0.15758 0.0
C899 C 0.04441 0.54241 1.11887 0.0
H900 H 0.97103 0.4001 0.46809 0.0
H901 H 0.95469 0.41096 0.60417 0.0
H902 H 0.94769 0.43148 0.44792 0.0
H903 H 0.92608 0.43706 0.58236 0.0
H904 H 0.99194 0.54185 0.45493 0.0
H905 H 0.95678 0.48482 0.44887 0.0
H906 H 0.98683 0.4759 0.57833 0.0
H907 H 0.01746 0.53202 0.5844 0.0
C908 C 0.96062 0.40742 0.49345 0.0
C909 C 0.96811 0.40727 0.53765 0.0
C910 C 0.94653 0.42481 0.48187 0.0
C911 C 0.94199 0.44178 0.51532 0.0
C912 C 0.93439 0.42758 0.55685 0.0
C913 C 0.95094 0.41279 0.56967 0.0
C914 C 0.99011 0.52712 0.48201 0.0
C915 C 0.00121 0.54028 0.52342 0.0
C916 C 0.96982 0.49471 0.47878 0.0
C917 C 0.96534 0.47587 0.51545 0.0
C918 C 0.98634 0.48955 0.55109 0.0
C919 C 0.00557 0.52188 0.55378 0.0
H920 H 0.48219 0.0229 0.92054 0.0
H921 H 0.4497 0.00337 0.78892 0.0
H922 H 0.51021 0.99477 0.91017 0.0
H923 H 0.47406 0.97065 0.77826 0.0
H924 H 0.54247 0.95626 0.93047 0.0
H925 H 0.48803 0.93618 0.91059 0.0
H926 H 0.51516 0.95869 0.77593 0.0
H927 H 0.56828 0.97176 0.79423 0.0
C928 C 0.48169 0.013 0.88856 0.0
C929 C 0.45908 0.00902 0.85801 0.0
C930 C 0.49623 0.99524 0.88329 0.0
C931 C 0.48998 0.97613 0.84554 0.0
C932 C 0.4763 0.98212 0.80944 0.0
C933 C 0.46292 0.00113 0.81524 0.0
C934 C 0.53631 0.95391 0.89612 0.0
C935 C 0.55941 0.96894 0.86396 0.0
C936 C 0.50513 0.94251 0.88444 0.0
C937 C 0.49994 0.95235 0.84377 0.0
C938 C 0.52005 0.95512 0.80923 0.0
C939 C 0.55068 0.96322 0.81981 0.0
H940 H 0.49126 0.51447 0.30141 0.0
H941 H 0.45115 0.52509 0.1823 0.0
H942 H 0.4395 0.48225 0.33162 0.0
H943 H 0.39905 0.49377 0.21233 0.0
H944 H 0.37577 0.41565 0.18361 0.0
H945 H 0.35521 0.44488 0.22502 0.0
H946 H 0.39354 0.43474 0.34195 0.0
H947 H 0.416 0.40617 0.30356 0.0
C948 C 0.47119 0.50929 0.28126 0.0
C949 C 0.47513 0.5211 0.23868 0.0
C950 C 0.44124 0.49138 0.29896 0.0
C951 C 0.41423 0.48262 0.27325 0.0
C952 C 0.41872 0.49795 0.23264 0.0
C953 C 0.44867 0.51566 0.21485 0.0
C954 C 0.38121 0.42076 0.21802 0.0
C955 C 0.40256 0.41408 0.23904 0.0
C956 C 0.36901 0.43671 0.24196 0.0
C957 C 0.38484 0.45135 0.28102 0.0
C958 C 0.39032 0.43107 0.30694 0.0
C959 C 0.40384 0.41556 0.28515 0.0
H960 H 0.35989 0.98022 0.73562 0.0
H961 H 0.43649 0.96248 0.72173 0.0
H962 H 0.37303 0.00639 0.66372 0.0
H963 H 0.4507 0.99012 0.65122 0.0
H964 H 0.4874 0.06901 0.53836 0.0
H965 H 0.47332 0.0418 0.6093 0.0
H966 H 0.37551 0.00326 0.58001 0.0
H967 H 0.38963 0.02936 0.50816 0.0
C968 C 0.37967 0.98168 0.71781 0.0
C969 C 0.39665 0.96831 0.73706 0.0
C970 C 0.38745 -0.00287 0.67549 0.0
C971 C 0.41356 0.00154 0.64924 0.0
C972 C 0.43063 0.98831 0.66866 0.0
C973 C 0.42221 0.97195 0.71021 0.0
C974 C 0.46272 0.05497 0.54651 0.0
C975 C 0.44014 0.05253 0.51516 0.0
C976 C 0.45441 0.03876 0.5882 0.0
C977 C 0.42276 0.01939 0.603 0.0
C978 C 0.4002 0.01756 0.57206 0.0
C979 C 0.4085 0.03304 0.5298 0.0
H980 H 0.46814 0.44023 1.06127 0.0
H981 H 0.38303 0.35094 1.06049 0.0
H982 H 0.45382 0.45369 0.99196 0.0
H983 H 0.36824 0.36418 0.99056 0.0
H984 H 0.34186 0.391 0.85499 0.0
H985 H 0.35542 0.37666 0.92507 0.0
H986 H 0.4404 0.4666 0.92947 0.0
H987 H 0.42667 0.48044 0.86005 0.0
C988 C 0.44614 0.42301 1.04663 0.0
C989 C 0.42734 0.39399 1.06893 0.0
C990 C 0.43752 0.43097 1.00543 0.0
C991 C 0.40913 0.41067 0.98227 0.0
C992 C 0.3903 0.38149 1.00477 0.0
C993 C 0.39898 0.37354 1.04617 0.0
C994 C 0.36345 0.40805 0.8707 0.0
C995 C 0.38255 0.43747 0.84952 0.0
C996 C 0.37162 0.39962 0.91217 0.0
C997 C 0.39969 0.41981 0.93629 0.0
C998 C 0.4186 0.44925 0.91472 0.0
C999 C 0.41045 0.45759 0.87347 0.0
H1000 H 0.91866 0.41026 0.21044 0.0
H1001 H 0.96518 0.35882 0.1776 0.0
H1002 H 0.94468 0.42375 0.28204 0.0
H1003 H 0.99121 0.37211 0.24914 0.0
H1004 H 0.02801 0.38655 0.39582 0.0
H1005 H 0.00174 0.37259 0.32416 0.0
H1006 H 0.98224 0.44822 0.33685 0.0
H1007 H 0.00858 0.46206 0.40794 0.0
C1008 C 0.93409 0.40121 0.21809 0.0
C1009 C 0.93843 0.38248 0.18586 0.0
C1010 C 0.94977 0.40943 0.26031 0.0
C1011 C 0.97115 0.39951 0.27462 0.0
C1012 C 0.97528 0.38063 0.24228 0.0
C1013 C 0.95983 0.37269 0.19992 0.0
C1014 C 0.01838 0.40057 0.38373 0.0
C1015 C 0.02159 0.42607 0.41018 0.0
C1016 C 0.00287 0.39242 0.3413 0.0
C1017 C 0.98868 0.40867 0.32156 0.0
C1018 C 0.99183 0.43406 0.3484 0.0
C1019 C 0.00764 0.44242 0.39042 0.0
H1020 H 0.64552 0.02692 0.7245 0.0
H1021 H 0.55172 0.01138 0.73449 0.0
H1022 H 0.6329 0.00079 0.65233 0.0
H1023 H 0.53883 0.98477 0.66323 0.0
H1024 H 0.51198 0.9165 0.54148 0.0
H1025 H 0.52546 0.94259 0.61321 0.0
H1026 H 0.62252 0.99496 0.57445 0.0
H1027 H 0.60879 0.96902 0.50231 0.0
C1028 C 0.62207 0.01811 0.71186 0.0
C1029 C 0.60012 0.02225 0.73773 0.0
C1030 C 0.61458 0.00274 0.66929 0.0
C1031 C 0.58429 0.98951 0.64921 0.0
C1032 C 0.56239 0.99359 0.67541 0.0
C1033 C 0.57005 0.00948 0.7174 0.0
C1034 C 0.53644 0.93324 0.54779 0.0
C1035 C 0.55887 0.93941 0.51376 0.0
C1036 C 0.54438 0.94892 0.59 0.0
C1037 C 0.57563 0.97195 0.60246 0.0
C1038 C 0.59816 0.9777 0.56863 0.0
C1039 C 0.59012 0.96233 0.5261 0.0
H1040 H 0.57686 0.56824 1.09168 0.0
H1041 H 0.51439 0.593 1.0294 0.0
H1042 H 0.59001 0.55458 1.0202 0.0
H1043 H 0.52828 0.58024 0.95745 0.0
H1044 H 0.57906 0.57913 0.8236 0.0
H1045 H 0.56411 0.591 0.89498 0.0
H1046 H 0.5793 0.52103 0.9549 0.0
H1047 H 0.59336 0.50848 0.88288 0.0
C1048 C 0.56576 0.5711 1.06299 0.0
C1049 C 0.54419 0.5823 1.06882 0.0
C1050 C 0.57341 0.56291 1.02083 0.0
C1051 C 0.56083 0.56589 0.9803 0.0
C1052 C 0.53938 0.57735 0.98608 0.0
C1053 C 0.53109 0.5848 1.02848 0.0
C1054 C 0.57935 0.56594 0.85162 0.0
C1055 C 0.5881 0.54254 0.84497 0.0
C1056 C 0.57037 0.57285 0.89372 0.0
C1057 C 0.57004 0.55755 0.93347 0.0
C1058 C 0.57902 0.53423 0.92691 0.0
C1059 C 0.58725 0.52675 0.88447 0.0
H1060 H 0.08411 0.60455 0.22066 0.0
H1061 H 0.012 0.62061 0.17077 0.0
H1062 H 0.05778 0.59157 0.293 0.0
H1063 H 0.98479 0.60571 0.24196 0.0
H1064 H 0.92897 0.53513 0.37088 0.0
H1065 H 0.95603 0.54966 0.29912 0.0
H1066 H 0.03881 0.62281 0.36085 0.0
H1067 H 0.01113 0.60964 0.43198 0.0
C1068 C 0.06279 0.60564 0.22447 0.0
C1069 C 0.05137 0.61463 0.18762 0.0
C1070 C 0.04721 0.59783 0.26689 0.0
C1071 C 0.01823 0.59709 0.27559 0.0
C1072 C 0.00664 0.6056 0.23859 0.0
C1073 C 0.0228 0.61458 0.19681 0.0
C1074 C 0.95281 0.55469 0.36969 0.0
C1075 C 0.96678 0.57116 0.40941 0.0
C1076 C 0.96874 0.56317 0.32758 0.0
C1077 C 0.00051 0.58787 0.32191 0.0
C1078 C 0.01471 0.60375 0.36182 0.0
C1079 C -0.00163 0.59613 0.40355 0.0
H1080 H 0.54297 0.1762 0.5894 0.0
H1081 H 0.64347 0.23147 0.57161 0.0
H1082 H 0.5476 0.19887 0.66095 0.0
H1083 H 0.64824 0.2559 0.64326 0.0
H1084 H 0.63449 0.21307 0.78504 0.0
H1085 H 0.64453 0.23308 0.71191 0.0
H1086 H 0.55914 0.23773 0.71484 0.0
H1087 H 0.54839 0.21627 0.78869 0.0
C1088 C 0.56611 0.19362 0.60071 0.0
C1089 C 0.59299 0.20106 0.5758 0.0
C1090 C 0.56877 0.20739 0.64147 0.0
C1091 C 0.59844 0.22915 0.65841 0.0
C1092 C 0.62509 0.23888 0.63154 0.0
C1093 C 0.6224 0.22486 0.59059 0.0
C1094 C 0.61861 0.21998 0.7714 0.0
C1095 C 0.58964 0.21131 0.79166 0.0
C1096 C 0.62446 0.23162 0.72889 0.0
C1097 C 0.60152 0.235 0.70641 0.0
C1098 C 0.57645 0.23372 0.73064 0.0
C1099 C 0.57034 0.22159 0.77308 0.0
H1100 H 0.3464 0.57192 0.8523 0.0
H1101 H 0.41029 0.66996 0.82688 0.0
H1102 H 0.33669 0.58425 0.92453 0.0
H1103 H 0.39862 0.68337 0.89897 0.0
H1104 H 0.42797 0.68068 1.04124 0.0
H1105 H 0.41588 0.68321 0.96591 0.0
H1106 H 0.32397 0.60124 0.98422 0.0
H1107 H 0.33825 0.59598 1.05777 0.0
C1108 C 0.35713 0.59645 0.86158 0.0
C1109 C 0.37946 0.61995 0.83439 0.0
C1110 C 0.35143 0.60377 0.90343 0.0
C1111 C 0.36756 0.63498 0.91904 0.0
C1112 C 0.38674 0.65893 0.88926 0.0
C1113 C 0.39321 0.65141 0.84765 0.0
C1114 C 0.40513 0.66311 1.02922 0.0
C1115 C 0.38522 0.63674 1.05465 0.0
C1116 C 0.39778 0.66489 0.98573 0.0
C1117 C 0.36964 0.64099 0.96736 0.0
C1118 C 0.34688 0.61875 0.996 0.0
C1119 C 0.35485 0.61611 1.03892 0.0
H1120 H 0.80695 0.36339 0.25501 0.0
H1121 H 0.745 0.39824 0.22064 0.0
H1122 H 0.77998 0.34451 0.32318 0.0
H1123 H 0.71572 0.37694 0.28858 0.0
H1124 H 0.73715 0.40617 0.43559 0.0
H1125 H 0.723 0.39212 0.36011 0.0
H1126 H 0.74183 0.3158 0.37287 0.0
H1127 H 0.76129 0.33328 0.44565 0.0
C1128 C 0.78724 0.36679 0.26202 0.0
C1129 C 0.77903 0.38356 0.23333 0.0
C1130 C 0.7709 0.35501 0.30092 0.0
C1131 C 0.74545 0.35927 0.31229 0.0
C1132 C 0.73551 0.37371 0.28164 0.0
C1133 C 0.75227 0.38592 0.24262 0.0
C1134 C 0.73828 0.38628 0.42243 0.0
C1135 C 0.7546 0.37385 0.44461 0.0
C1136 C 0.72942 0.37769 0.37896 0.0
C1137 C 0.73483 0.35502 0.35888 0.0
C1138 C 0.74045 0.33551 0.38626 0.0
C1139 C 0.75129 0.34541 0.42873 0.0
H1140 H 0.35294 0.71993 0.52592 0.0
H1141 H 0.45257 0.78278 0.53978 0.0
H1142 H 0.34903 0.70743 0.60372 0.0
H1143 H 0.44883 0.77287 0.61679 0.0
H1144 H 0.44402 0.78111 0.75009 0.0
H1145 H 0.44157 0.75292 0.6839 0.0
H1146 H 0.34629 0.73278 0.66305 0.0
H1147 H 0.34732 0.75672 0.73228 0.0
C1148 C 0.37408 0.7304 0.54551 0.0
C1149 C 0.40295 0.7525 0.52712 0.0
C1150 C 0.3719 0.72363 0.59026 0.0
C1151 C 0.39832 0.73994 0.61763 0.0
C1152 C 0.42774 0.75943 0.59773 0.0
C1153 C 0.43001 0.76538 0.55305 0.0
C1154 C 0.42196 0.7693 0.73268 0.0
C1155 C 0.39646 0.77302 0.74523 0.0
C1156 C 0.42075 0.75355 0.69389 0.0
C1157 C 0.39467 0.74264 0.66587 0.0
C1158 C 0.36738 0.74161 0.68242 0.0
C1159 C 0.36813 0.75608 0.72214 0.0
H1160 H 0.57878 0.33241 0.87938 0.0
H1161 H 0.6326 0.433 0.8953 0.0
H1162 H 0.59583 0.3259 0.95207 0.0
H1163 H 0.64897 0.42701 0.96693 0.0
H1164 H 0.57097 0.34831 1.09413 0.0
H1165 H 0.57803 0.33447 1.02095 0.0
H1166 H 0.67361 0.41191 1.02017 0.0
H1167 H 0.66578 0.42685 1.09344 0.0
C1168 C 0.59469 0.35301 0.89817 0.0
C1169 C 0.60361 0.38315 0.88285 0.0
C1170 C 0.60458 0.34937 0.93953 0.0
C1171 C 0.62362 0.37587 0.96569 0.0
C1172 C 0.63472 0.40594 0.94795 0.0
C1173 C 0.62479 0.40948 0.90712 0.0
C1174 C 0.59412 0.36142 1.07949 0.0
C1175 C 0.61742 0.38952 1.09859 0.0
C1176 C 0.59824 0.35336 1.03716 0.0
C1177 C 0.62583 0.37321 1.01377 0.0
C1178 C 0.65156 0.39701 1.03681 0.0
C1179 C 0.6472 0.40553 1.07885 0.0
H1180 H 0.21134 0.67344 0.46015 0.0
H1181 H 0.20948 0.58482 0.4569 0.0
H1182 H 0.23501 0.68542 0.38736 0.0
H1183 H 0.23154 0.59596 0.38452 0.0
H1184 H 0.23488 0.59819 0.24377 0.0
H1185 H 0.25675 0.61671 0.31688 0.0
H1186 H 0.19755 0.65803 0.33209 0.0
H1187 H 0.17725 0.6409 0.25945 0.0
C1188 C 0.21742 0.65725 0.44489 0.0
C1189 C 0.2071 0.62755 0.46321 0.0
C1190 C 0.23081 0.66399 0.40306 0.0
C1191 C 0.23315 0.64072 0.37903 0.0
C1192 C 0.22937 0.61419 0.40141 0.0
C1193 C 0.21654 0.60772 0.4434 0.0
C1194 C 0.22724 0.61187 0.26264 0.0
C1195 C 0.20353 0.6171 0.24685 0.0
C1196 C 0.23981 0.62258 0.30436 0.0
C1197 C 0.22875 0.63859 0.33081 0.0
C1198 C 0.20708 0.64613 0.31294 0.0
C1199 C 0.1947 0.63556 0.27153 0.0
loop_
_geom_bond_atom_site_label_1
_geom_bond_atom_site_label_2
_geom_bond_distance
_geom_bond_site_symmetry_2
_ccdc_geom_bond_type
Nd0 C2 2.836 . S
Nd0 O20 2.500 . S
Nd0 O21 2.492 . S
Nd0 O22 2.487 . S
Nd0 O23 2.682 . S
Nd0 O24 2.410 . S
Nd0 O29 2.414 . S
Nd0 O31 2.424 . S
Nd1 C11 2.836 . S
Nd1 O23 2.414 . S
Nd1 O25 2.424 . S
Nd1 O26 2.500 . S
Nd1 O27 2.492 . S
Nd1 O28 2.487 . S
Nd1 O29 2.682 . S
Nd1 O30 2.410 . S
C2 Nd0 2.836 . S
C2 C3 1.498 . S
C2 O20 1.258 . S
C2 O21 1.239 . S
C3 C2 1.498 . S
C3 C4 1.366 . S
C3 C8 1.407 . S
C4 C3 1.366 . S
C4 C5 1.392 . S
C4 H32 0.930 . S
C5 C4 1.392 . S
C5 C6 1.398 . S
C5 H33 0.929 . S
C6 C5 1.398 . S
C6 C7 1.352 . S
C7 C6 1.352 . S
C7 C8 1.384 . S
C7 H34 0.930 . S
C8 C3 1.407 . S
C8 C7 1.384 . S
C8 H35 0.929 . S
C9 O22 1.241 . S
C9 O23 1.273 . S
C10 O24 1.251 . S
C10 O25 1.268 . S
C11 Nd1 2.836 . S
C11 C12 1.498 . S
C11 O26 1.258 . S
C11 O27 1.239 . S
C12 C11 1.498 . S
C12 C13 1.366 . S
C12 C17 1.407 . S
C13 C12 1.366 . S
C13 C14 1.392 . S
C13 H36 0.930 . S
C14 C13 1.392 . S
C14 C15 1.398 . S
C14 H37 0.929 . S
C15 C14 1.398 . S
C15 C16 1.352 . S
C16 C15 1.352 . S
C16 C17 1.384 . S
C16 H38 0.930 1_545 S
C17 C12 1.407 . S
C17 C16 1.384 . S
C17 H39 0.954 . S
C18 O28 1.241 . S
C18 O29 1.273 . S
C19 O30 1.251 . S
C19 O31 1.268 . S
O20 Nd0 2.500 . S
O20 C2 1.258 . S
O21 Nd0 2.492 . S
O21 C2 1.239 . S
O22 Nd0 2.487 . S
O22 C9 1.241 . S
O23 Nd0 2.682 . S
O23 Nd1 2.414 . S
O23 C9 1.273 . S
O24 Nd0 2.410 . S
O24 C10 1.251 . S
O25 Nd1 2.424 . S
O25 C10 1.268 . S
O26 Nd1 2.500 . S
O26 C11 1.258 . S
O27 Nd1 2.492 . S
O27 C11 1.239 . S
O28 Nd1 2.487 . S
O28 C18 1.241 . S
O29 Nd0 2.414 . S
O29 Nd1 2.682 . S
O29 C18 1.273 . S
O30 Nd1 2.410 . S
O30 C19 1.251 . S
O31 Nd0 2.424 . S
O31 C19 1.268 . S
H32 C4 0.930 . S
H33 C5 0.929 . S
H34 C7 0.930 . S
H35 C8 0.929 . S
H36 C13 0.930 . S
H37 C14 0.929 . S
H38 C16 0.930 1_565 S
H39 C17 0.954 . S
Nd40 C42 2.836 . S
Nd40 O60 2.500 . S
Nd40 O61 2.492 . S
Nd40 O62 2.487 . S
Nd40 O63 2.682 . S
Nd40 O64 2.410 . S
Nd40 O69 2.414 . S
Nd40 O71 2.424 . S
Nd41 C51 2.836 . S
Nd41 O63 2.414 . S
Nd41 O65 2.424 . S
Nd41 O66 2.500 . S
Nd41 O67 2.492 . S
Nd41 O68 2.487 . S
Nd41 O69 2.682 . S
Nd41 O70 2.410 . S
C42 Nd40 2.836 . S
C42 C43 1.498 . S
C42 O60 1.258 . S
C42 O61 1.239 . S
C43 C42 1.498 . S
C43 C44 1.366 . S
C43 C48 1.407 . S
C44 C43 1.366 . S
C44 C45 1.392 . S
C44 H72 0.930 . S
C45 C44 1.392 . S
C45 C46 1.398 . S
C45 H73 0.929 . S
C46 C45 1.398 . S
C46 C47 1.352 . S
C47 C46 1.352 . S
C47 C48 1.384 . S
C47 H74 0.930 . S
C48 C43 1.407 . S
C48 C47 1.384 . S
C48 H75 0.929 . S
C49 O62 1.241 . S
C49 O63 1.273 . S
C50 O64 1.251 . S
C50 O65 1.268 . S
C51 Nd41 2.836 . S
C51 C52 1.498 . S
C51 O66 1.258 . S
C51 O67 1.239 . S
C52 C51 1.498 . S
C52 C53 1.366 . S
C52 C57 1.407 . S
C53 C52 1.366 . S
C53 C54 1.392 . S
C53 H76 0.930 . S
C54 C53 1.392 . S
C54 C55 1.398 . S
C54 H77 0.929 . S
C55 C54 1.398 . S
C55 C56 1.352 . S
C56 C55 1.352 . S
C56 C57 1.384 . S
C56 H78 0.930 . S
C57 C52 1.407 . S
C57 C56 1.384 . S
C57 H79 0.929 . S
C58 O68 1.241 . S
C58 O69 1.273 . S
C59 O70 1.251 . S
C59 O71 1.268 . S
O60 Nd40 2.500 . S
O60 C42 1.258 . S
O61 Nd40 2.492 . S
O61 C42 1.239 . S
O62 Nd40 2.487 . S
O62 C49 1.241 . S
O63 Nd40 2.682 . S
O63 Nd41 2.414 . S
O63 C49 1.273 . S
O64 Nd40 2.410 . S
O64 C50 1.251 . S
O65 Nd41 2.424 . S
O65 C50 1.268 . S
O66 Nd41 2.500 . S
O66 C51 1.258 . S
O67 Nd41 2.492 . S
O67 C51 1.239 . S
O68 Nd41 2.487 . S
O68 C58 1.241 . S
O69 Nd40 2.414 . S
O69 Nd41 2.682 . S
O69 C58 1.273 . S
O70 Nd41 2.410 . S
O70 C59 1.251 . S
O71 Nd40 2.424 . S
O71 C59 1.268 . S
H72 C44 0.930 . S
H73 C45 0.929 . S
H74 C47 0.930 . S
H75 C48 0.929 . S
H76 C53 0.930 . S
H77 C54 0.929 . S
H78 C56 0.930 . S
H79 C57 0.929 . S
Nd80 C82 2.836 1_556 S
Nd80 O100 2.500 . S
Nd80 O101 2.492 . S
Nd80 O102 2.487 . S
Nd80 O103 2.682 . S
Nd80 O104 2.410 . S
Nd80 O109 2.414 . S
Nd80 O111 2.424 . S
Nd81 C91 2.836 . S
Nd81 O103 2.414 . S
Nd81 O105 2.424 . S
Nd81 O106 2.500 . S
Nd81 O107 2.492 . S
Nd81 O108 2.487 . S
Nd81 O109 2.682 . S
Nd81 O110 2.410 . S
C82 Nd80 2.836 1_554 S
C82 C83 1.498 . S
C82 O100 1.258 1_554 S
C82 O101 1.239 1_554 S
C83 C82 1.498 . S
C83 C84 1.366 . S
C83 C88 1.407 . S
C84 C83 1.366 . S
C84 C85 1.392 . S
C84 H112 0.930 . S
C85 C84 1.392 . S
C85 C86 1.398 . S
C85 H113 0.929 . S
C86 C85 1.398 . S
C86 C87 1.352 . S
C87 C86 1.352 . S
C87 C88 1.384 . S
C87 H114 0.930 . S
C88 C83 1.407 . S
C88 C87 1.384 . S
C88 H115 0.929 . S
C89 O102 1.241 . S
C89 O103 1.273 . S
C90 O104 1.251 . S
C90 O105 1.268 . S
C91 Nd81 2.836 . S
C91 C92 1.498 . S
C91 O106 1.258 . S
C91 O107 1.239 . S
C92 C91 1.498 . S
C92 C93 1.366 . S
C92 C97 1.407 . S
C93 C92 1.366 . S
C93 C94 1.392 . S
C93 H116 0.930 . S
C94 C93 1.392 . S
C94 C95 1.398 . S
C94 H117 0.929 . S
C95 C94 1.398 . S
C95 C96 1.352 . S
C96 C95 1.352 . S
C96 C97 1.384 . S
C96 H118 0.930 1_655 S
C97 C92 1.407 . S
C97 C96 1.384 . S
C97 H119 0.942 . S
C98 O108 1.241 . S
C98 O109 1.273 . S
C99 O110 1.251 . S
C99 O111 1.268 . S
O100 Nd80 2.500 . S
O100 C82 1.258 1_556 S
O101 Nd80 2.492 . S
O101 C82 1.239 1_556 S
O102 Nd80 2.487 . S
O102 C89 1.241 . S
O103 Nd80 2.682 . S
O103 Nd81 2.414 . S
O103 C89 1.273 . S
O104 Nd80 2.410 . S
O104 C90 1.251 . S
O105 Nd81 2.424 . S
O105 C90 1.268 . S
O106 Nd81 2.500 . S
O106 C91 1.258 . S
O107 Nd81 2.492 . S
O107 C91 1.239 . S
O108 Nd81 2.487 . S
O108 C98 1.241 . S
O109 Nd80 2.414 . S
O109 Nd81 2.682 . S
O109 C98 1.273 . S
O110 Nd81 2.410 . S
O110 C99 1.251 . S
O111 Nd80 2.424 . S
O111 C99 1.268 . S
H112 C84 0.930 . S
H113 C85 0.929 . S
H114 C87 0.930 . S
H115 C88 0.929 . S
H116 C93 0.930 . S
H117 C94 0.929 . S
H118 C96 0.930 1_455 S
H119 C97 0.942 . S
Nd120 C122 2.836 . S
Nd120 O140 2.500 . S
Nd120 O141 2.492 . S
Nd120 O142 2.487 . S
Nd120 O143 2.682 . S
Nd120 O144 2.410 . S
Nd120 O149 2.414 . S
Nd120 O151 2.424 . S
Nd121 C131 2.836 . S
Nd121 O143 2.414 . S
Nd121 O145 2.424 . S
Nd121 O146 2.500 . S
Nd121 O147 2.492 . S
Nd121 O148 2.487 . S
Nd121 O149 2.682 . S
Nd121 O150 2.410 . S
C122 Nd120 2.836 . S
C122 C123 1.498 . S
C122 O140 1.258 . S
C122 O141 1.239 . S
C123 C122 1.498 . S
C123 C124 1.366 . S
C123 C128 1.407 . S
C124 C123 1.366 . S
C124 C125 1.392 . S
C124 H152 0.930 . S
C125 C124 1.392 . S
C125 C126 1.398 . S
C125 H153 0.929 . S
C126 C125 1.398 . S
C126 C127 1.352 . S
C127 C126 1.352 . S
C127 C128 1.384 . S
C127 H154 0.930 . S
C128 C123 1.407 . S
C128 C127 1.384 . S
C128 H155 0.929 . S
C129 O142 1.241 . S
C129 O143 1.273 . S
C130 O144 1.251 . S
C130 O145 1.268 . S
C131 Nd121 2.836 . S
C131 C132 1.498 . S
C131 O146 1.258 . S
C131 O147 1.239 . S
C132 C131 1.498 . S
C132 C133 1.366 . S
C132 C137 1.407 . S
C133 C132 1.366 . S
C133 C134 1.392 . S
C133 H156 0.930 . S
C134 C133 1.392 . S
C134 C135 1.398 . S
C134 H157 0.929 . S
C135 C134 1.398 . S
C135 C136 1.352 . S
C136 C135 1.352 . S
C136 C137 1.384 . S
C136 H158 0.930 1_565 S
C137 C132 1.407 . S
C137 C136 1.384 . S
C137 H159 0.954 . S
C138 O148 1.241 . S
C138 O149 1.273 . S
C139 O150 1.251 . S
C139 O151 1.268 . S
O140 Nd120 2.500 . S
O140 C122 1.258 . S
O141 Nd120 2.492 . S
O141 C122 1.239 . S
O142 Nd120 2.487 . S
O142 C129 1.241 . S
O143 Nd120 2.682 . S
O143 Nd121 2.414 . S
O143 C129 1.273 . S
O144 Nd120 2.410 . S
O144 C130 1.251 . S
O145 Nd121 2.424 . S
O145 C130 1.268 . S
O146 Nd121 2.500 . S
O146 C131 1.258 . S
O147 Nd121 2.492 . S
O147 C131 1.239 . S
O148 Nd121 2.487 . S
O148 C138 1.241 . S
O149 Nd120 2.414 . S
O149 Nd121 2.682 . S
O149 C138 1.273 . S
O150 Nd121 2.410 . S
O150 C139 1.251 . S
O151 Nd120 2.424 . S
O151 C139 1.268 . S
H152 C124 0.930 . S
H153 C125 0.929 . S
H154 C127 0.930 . S
H155 C128 0.929 . S
H156 C133 0.930 . S
H157 C134 0.929 . S
H158 C136 0.930 1_545 S
H159 C137 0.954 . S
Nd160 C162 2.836 . S
Nd160 O180 2.500 . S
Nd160 O181 2.492 . S
Nd160 O182 2.487 . S
Nd160 O183 2.682 . S
Nd160 O184 2.410 . S
Nd160 O189 2.414 . S
Nd160 O191 2.424 . S
Nd161 C171 2.836 . S
Nd161 O183 2.414 . S
Nd161 O185 2.424 . S
Nd161 O186 2.500 . S
Nd161 O187 2.492 . S
Nd161 O188 2.487 . S
Nd161 O189 2.682 . S
Nd161 O190 2.410 . S
C162 Nd160 2.836 . S
C162 C163 1.498 . S
C162 O180 1.258 . S
C162 O181 1.239 . S
C163 C162 1.498 . S
C163 C164 1.366 . S
C163 C168 1.407 . S
C164 C163 1.366 . S
C164 C165 1.392 . S
C164 H192 0.930 . S
C165 C164 1.392 . S
C165 C166 1.398 . S
C165 H193 0.929 . S
C166 C165 1.398 . S
C166 C167 1.352 . S
C167 C166 1.352 . S
C167 C168 1.384 . S
C167 H194 0.930 . S
C168 C163 1.407 . S
C168 C167 1.384 . S
C168 H195 0.929 . S
C169 O182 1.241 . S
C169 O183 1.273 . S
C170 O184 1.251 . S
C170 O185 1.268 . S
C171 Nd161 2.836 . S
C171 C172 1.498 . S
C171 O186 1.258 . S
C171 O187 1.239 . S
C172 C171 1.498 . S
C172 C173 1.366 . S
C172 C177 1.407 . S
C173 C172 1.366 . S
C173 C174 1.392 . S
C173 H196 0.930 . S
C174 C173 1.392 . S
C174 C175 1.398 . S
C174 H197 0.929 . S
C175 C174 1.398 . S
C175 C176 1.352 . S
C176 C175 1.352 . S
C176 C177 1.384 . S
C176 H198 0.930 . S
C177 C172 1.407 . S
C177 C176 1.384 . S
C177 H199 0.929 . S
C178 O188 1.241 . S
C178 O189 1.273 . S
C179 O190 1.251 . S
C179 O191 1.268 . S
O180 Nd160 2.500 . S
O180 C162 1.258 . S
O181 Nd160 2.492 . S
O181 C162 1.239 . S
O182 Nd160 2.487 . S
O182 C169 1.241 . S
O183 Nd160 2.682 . S
O183 Nd161 2.414 . S
O183 C169 1.273 . S
O184 Nd160 2.410 . S
O184 C170 1.251 . S
O185 Nd161 2.424 . S
O185 C170 1.268 . S
O186 Nd161 2.500 . S
O186 C171 1.258 . S
O187 Nd161 2.492 . S
O187 C171 1.239 . S
O188 Nd161 2.487 . S
O188 C178 1.241 . S
O189 Nd160 2.414 . S
O189 Nd161 2.682 . S
O189 C178 1.273 . S
O190 Nd161 2.410 . S
O190 C179 1.251 . S
O191 Nd160 2.424 . S
O191 C179 1.268 . S
H192 C164 0.930 . S
H193 C165 0.929 . S
H194 C167 0.930 . S
H195 C168 0.929 . S
H196 C173 0.930 . S
H197 C174 0.929 . S
H198 C176 0.930 . S
H199 C177 0.929 . S
Nd200 C202 2.836 1_556 S
Nd200 O220 2.500 . S
Nd200 O221 2.492 . S
Nd200 O222 2.487 . S
Nd200 O223 2.682 . S
Nd200 O224 2.410 . S
Nd200 O229 2.414 . S
Nd200 O231 2.424 . S
Nd201 C211 2.836 . S
Nd201 O223 2.414 . S
Nd201 O225 2.424 . S
Nd201 O226 2.500 . S
Nd201 O227 2.492 . S
Nd201 O228 2.487 . S
Nd201 O229 2.682 . S
Nd201 O230 2.410 . S
C202 Nd200 2.836 1_554 S
C202 C203 1.498 . S
C202 O220 1.258 1_554 S
C202 O221 1.239 1_554 S
C203 C202 1.498 . S
C203 C204 1.366 . S
C203 C208 1.407 . S
C204 C203 1.366 . S
C204 C205 1.392 . S
C204 H232 0.930 . S
C205 C204 1.392 . S
C205 C206 1.398 . S
C205 H233 0.929 . S
C206 C205 1.398 . S
C206 C207 1.352 . S
C207 C206 1.352 . S
C207 C208 1.384 . S
C207 H234 0.930 . S
C208 C203 1.407 . S
C208 C207 1.384 . S
C208 H235 0.929 . S
C209 O222 1.241 . S
C209 O223 1.273 . S
C210 O224 1.251 . S
C210 O225 1.268 . S
C211 Nd201 2.836 . S
C211 C212 1.498 . S
C211 O226 1.258 . S
C211 O227 1.239 . S
C212 C211 1.498 . S
C212 C213 1.366 . S
C212 C217 1.407 . S
C213 C212 1.366 . S
C213 C214 1.392 . S
C213 H236 0.930 . S
C214 C213 1.392 . S
C214 C215 1.398 . S
C214 H237 0.929 . S
C215 C214 1.398 . S
C215 C216 1.352 . S
C216 C215 1.352 . S
C216 C217 1.384 . S
C216 H238 0.930 1_455 S
C217 C212 1.407 . S
C217 C216 1.384 . S
C217 H239 0.942 . S
C218 O228 1.241 . S
C218 O229 1.273 . S
C219 O230 1.251 . S
C219 O231 1.268 . S
O220 Nd200 2.500 . S
O220 C202 1.258 1_556 S
O221 Nd200 2.492 . S
O221 C202 1.239 1_556 S
O222 Nd200 2.487 . S
O222 C209 1.241 . S
O223 Nd200 2.682 . S
O223 Nd201 2.414 . S
O223 C209 1.273 . S
O224 Nd200 2.410 . S
O224 C210 1.251 . S
O225 Nd201 2.424 . S
O225 C210 1.268 . S
O226 Nd201 2.500 . S
O226 C211 1.258 . S
O227 Nd201 2.492 . S
O227 C211 1.239 . S
O228 Nd201 2.487 . S
O228 C218 1.241 . S
O229 Nd200 2.414 . S
O229 Nd201 2.682 . S
O229 C218 1.273 . S
O230 Nd201 2.410 . S
O230 C219 1.251 . S
O231 Nd200 2.424 . S
O231 C219 1.268 . S
H232 C204 0.930 . S
H233 C205 0.929 . S
H234 C207 0.930 . S
H235 C208 0.929 . S
H236 C213 0.930 . S
H237 C214 0.929 . S
H238 C216 0.930 1_655 S
H239 C217 0.942 . S
Nd240 C242 2.836 . S
Nd240 O260 2.500 . S
Nd240 O261 2.492 . S
Nd240 O262 2.487 . S
Nd240 O263 2.682 . S
Nd240 O264 2.410 . S
Nd240 O269 2.414 . S
Nd240 O271 2.424 . S
Nd241 C251 2.836 . S
Nd241 O263 2.414 . S
Nd241 O265 2.424 . S
Nd241 O266 2.500 . S
Nd241 O267 2.492 . S
Nd241 O268 2.487 . S
Nd241 O269 2.682 . S
Nd241 O270 2.410 . S
C242 Nd240 2.836 . S
C242 C243 1.498 . S
C242 O260 1.258 . S
C242 O261 1.239 . S
C243 C242 1.498 . S
C243 C244 1.366 . S
C243 C248 1.407 . S
C244 C243 1.366 . S
C244 C245 1.392 . S
C244 H272 0.930 . S
C245 C244 1.392 . S
C245 C246 1.398 . S
C245 H273 0.929 . S
C246 C245 1.398 . S
C246 C247 1.352 . S
C247 C246 1.352 . S
C247 C248 1.384 . S
C247 H274 0.930 . S
C248 C243 1.407 . S
C248 C247 1.384 . S
C248 H275 0.929 . S
C249 O262 1.241 . S
C249 O263 1.273 . S
C250 O264 1.251 . S
C250 O265 1.268 . S
C251 Nd241 2.836 . S
C251 C252 1.498 . S
C251 O266 1.258 . S
C251 O267 1.239 . S
C252 C251 1.498 . S
C252 C253 1.366 . S
C252 C257 1.407 . S
C253 C252 1.366 . S
C253 C254 1.392 . S
C253 H276 0.930 . S
C254 C253 1.392 . S
C254 C255 1.398 . S
C254 H277 0.929 . S
C255 C254 1.398 . S
C255 C256 1.352 . S
C256 C255 1.352 . S
C256 C257 1.384 . S
C256 H278 0.930 1_655 S
C257 C252 1.407 . S
C257 C256 1.384 . S
C257 H279 0.954 . S
C258 O268 1.241 . S
C258 O269 1.273 . S
C259 O270 1.251 . S
C259 O271 1.268 . S
O260 Nd240 2.500 . S
O260 C242 1.258 . S
O261 Nd240 2.492 . S
O261 C242 1.239 . S
O262 Nd240 2.487 . S
O262 C249 1.241 . S
O263 Nd240 2.682 . S
O263 Nd241 2.414 . S
O263 C249 1.273 . S
O264 Nd240 2.410 . S
O264 C250 1.251 . S
O265 Nd241 2.424 . S
O265 C250 1.268 . S
O266 Nd241 2.500 . S
O266 C251 1.258 . S
O267 Nd241 2.492 . S
O267 C251 1.239 . S
O268 Nd241 2.487 . S
O268 C258 1.241 . S
O269 Nd240 2.414 . S
O269 Nd241 2.682 . S
O269 C258 1.273 . S
O270 Nd241 2.410 . S
O270 C259 1.251 . S
O271 Nd240 2.424 . S
O271 C259 1.268 . S
H272 C244 0.930 . S
H273 C245 0.929 . S
H274 C247 0.930 . S
H275 C248 0.929 . S
H276 C253 0.930 . S
H277 C254 0.929 . S
H278 C256 0.930 1_455 S
H279 C257 0.954 . S
Nd280 C282 2.836 . S
Nd280 O300 2.500 . S
Nd280 O301 2.492 . S
Nd280 O302 2.487 . S
Nd280 O303 2.682 . S
Nd280 O304 2.410 . S
Nd280 O309 2.414 . S
Nd280 O311 2.424 . S
Nd281 C291 2.836 . S
Nd281 O303 2.414 . S
Nd281 O305 2.424 . S
Nd281 O306 2.500 . S
Nd281 O307 2.492 . S
Nd281 O308 2.487 . S
Nd281 O309 2.682 . S
Nd281 O310 2.410 . S
C282 Nd280 2.836 . S
C282 C283 1.498 . S
C282 O300 1.258 . S
C282 O301 1.239 . S
C283 C282 1.498 . S
C283 C284 1.366 . S
C283 C288 1.407 . S
C284 C283 1.366 . S
C284 C285 1.392 . S
C284 H312 0.930 . S
C285 C284 1.392 . S
C285 C286 1.398 . S
C285 H313 0.929 . S
C286 C285 1.398 . S
C286 C287 1.352 . S
C287 C286 1.352 . S
C287 C288 1.384 . S
C287 H314 0.930 . S
C288 C283 1.407 . S
C288 C287 1.384 . S
C288 H315 0.929 . S
C289 O302 1.241 . S
C289 O303 1.273 . S
C290 O304 1.251 . S
C290 O305 1.268 . S
C291 Nd281 2.836 . S
C291 C292 1.498 . S
C291 O306 1.258 . S
C291 O307 1.239 . S
C292 C291 1.498 . S
C292 C293 1.366 . S
C292 C297 1.407 . S
C293 C292 1.366 . S
C293 C294 1.392 . S
C293 H316 0.930 . S
C294 C293 1.392 . S
C294 C295 1.398 . S
C294 H317 0.929 . S
C295 C294 1.398 . S
C295 C296 1.352 . S
C296 C295 1.352 . S
C296 C297 1.384 . S
C296 H318 0.930 1_565 S
C297 C292 1.407 . S
C297 C296 1.384 . S
C297 H319 0.942 . S
C298 O308 1.241 . S
C298 O309 1.273 . S
C299 O310 1.251 . S
C299 O311 1.268 . S
O300 Nd280 2.500 . S
O300 C282 1.258 . S
O301 Nd280 2.492 . S
O301 C282 1.239 . S
O302 Nd280 2.487 . S
O302 C289 1.241 . S
O303 Nd280 2.682 . S
O303 Nd281 2.414 . S
O303 C289 1.273 . S
O304 Nd280 2.410 . S
O304 C290 1.251 . S
O305 Nd281 2.424 . S
O305 C290 1.268 . S
O306 Nd281 2.500 . S
O306 C291 1.258 . S
O307 Nd281 2.492 . S
O307 C291 1.239 . S
O308 Nd281 2.487 . S
O308 C298 1.241 . S
O309 Nd280 2.414 . S
O309 Nd281 2.682 . S
O309 C298 1.273 . S
O310 Nd281 2.410 . S
O310 C299 1.251 . S
O311 Nd280 2.424 . S
O311 C299 1.268 . S
H312 C284 0.930 . S
H313 C285 0.929 . S
H314 C287 0.930 . S
H315 C288 0.929 . S
H316 C293 0.930 . S
H317 C294 0.929 . S
H318 C296 0.930 1_545 S
H319 C297 0.942 . S
Nd320 C322 2.836 1_554 S
Nd320 O340 2.500 . S
Nd320 O341 2.492 . S
Nd320 O342 2.487 . S
Nd320 O343 2.682 . S
Nd320 O344 2.410 . S
Nd320 O349 2.414 . S
Nd320 O351 2.424 . S
Nd321 C331 2.836 . S
Nd321 O343 2.414 . S
Nd321 O345 2.424 . S
Nd321 O346 2.500 . S
Nd321 O347 2.492 . S
Nd321 O348 2.487 . S
Nd321 O349 2.682 . S
Nd321 O350 2.410 . S
C322 Nd320 2.836 1_556 S
C322 C323 1.498 . S
C322 O340 1.258 1_556 S
C322 O341 1.239 1_556 S
C323 C322 1.498 . S
C323 C324 1.366 . S
C323 C328 1.407 . S
C324 C323 1.366 . S
C324 C325 1.392 . S
C324 H352 0.930 . S
C325 C324 1.392 . S
C325 C326 1.398 . S
C325 H353 0.929 . S
C326 C325 1.398 . S
C326 C327 1.352 . S
C327 C326 1.352 . S
C327 C328 1.384 . S
C327 H354 0.930 . S
C328 C323 1.407 . S
C328 C327 1.384 . S
C328 H355 0.929 . S
C329 O342 1.241 . S
C329 O343 1.273 . S
C330 O344 1.251 . S
C330 O345 1.268 . S
C331 Nd321 2.836 . S
C331 C332 1.498 . S
C331 O346 1.258 . S
C331 O347 1.239 . S
C332 C331 1.498 . S
C332 C333 1.366 . S
C332 C337 1.407 . S
C333 C332 1.366 . S
C333 C334 1.392 . S
C333 H356 0.930 . S
C334 C333 1.392 . S
C334 C335 1.398 . S
C334 H357 0.929 . S
C335 C334 1.398 . S
C335 C336 1.352 . S
C336 C335 1.352 . S
C336 C337 1.384 . S
C336 H358 0.930 . S
C337 C332 1.407 . S
C337 C336 1.384 . S
C337 H359 0.929 . S
C338 O348 1.241 . S
C338 O349 1.273 . S
C339 O350 1.251 . S
C339 O351 1.268 . S
O340 Nd320 2.500 . S
O340 C322 1.258 1_554 S
O341 Nd320 2.492 . S
O341 C322 1.239 1_554 S
O342 Nd320 2.487 . S
O342 C329 1.241 . S
O343 Nd320 2.682 . S
O343 Nd321 2.414 . S
O343 C329 1.273 . S
O344 Nd320 2.410 . S
O344 C330 1.251 . S
O345 Nd321 2.424 . S
O345 C330 1.268 . S
O346 Nd321 2.500 . S
O346 C331 1.258 . S
O347 Nd321 2.492 . S
O347 C331 1.239 . S
O348 Nd321 2.487 . S
O348 C338 1.241 . S
O349 Nd320 2.414 . S
O349 Nd321 2.682 . S
O349 C338 1.273 . S
O350 Nd321 2.410 . S
O350 C339 1.251 . S
O351 Nd320 2.424 . S
O351 C339 1.268 . S
H352 C324 0.930 . S
H353 C325 0.929 . S
H354 C327 0.930 . S
H355 C328 0.929 . S
H356 C333 0.930 . S
H357 C334 0.929 . S
H358 C336 0.930 . S
H359 C337 0.929 . S
Nd360 C362 2.836 . S
Nd360 O380 2.500 . S
Nd360 O381 2.492 . S
Nd360 O382 2.487 . S
Nd360 O383 2.682 . S
Nd360 O384 2.410 . S
Nd360 O389 2.414 . S
Nd360 O391 2.424 . S
Nd361 C371 2.836 . S
Nd361 O383 2.414 . S
Nd361 O385 2.424 . S
Nd361 O386 2.500 . S
Nd361 O387 2.492 . S
Nd361 O388 2.487 . S
Nd361 O389 2.682 . S
Nd361 O390 2.410 . S
C362 Nd360 2.836 . S
C362 C363 1.498 . S
C362 O380 1.258 . S
C362 O381 1.239 . S
C363 C362 1.498 . S
C363 C364 1.366 . S
C363 C368 1.407 . S
C364 C363 1.366 . S
C364 C365 1.392 . S
C364 H392 0.930 . S
C365 C364 1.392 . S
C365 C366 1.398 . S
C365 H393 0.929 . S
C366 C365 1.398 . S
C366 C367 1.352 . S
C367 C366 1.352 . S
C367 C368 1.384 . S
C367 H394 0.930 . S
C368 C363 1.407 . S
C368 C367 1.384 . S
C368 H395 0.929 . S
C369 O382 1.241 . S
C369 O383 1.273 . S
C370 O384 1.251 . S
C370 O385 1.268 . S
C371 Nd361 2.836 . S
C371 C372 1.498 . S
C371 O386 1.258 . S
C371 O387 1.239 . S
C372 C371 1.498 . S
C372 C373 1.366 . S
C372 C377 1.407 . S
C373 C372 1.366 . S
C373 C374 1.392 . S
C373 H396 0.930 . S
C374 C373 1.392 . S
C374 C375 1.398 . S
C374 H397 0.929 . S
C375 C374 1.398 . S
C375 C376 1.352 . S
C376 C375 1.352 . S
C376 C377 1.384 . S
C376 H398 0.930 1_455 S
C377 C372 1.407 . S
C377 C376 1.384 . S
C377 H399 0.954 . S
C378 O388 1.241 . S
C378 O389 1.273 . S
C379 O390 1.251 . S
C379 O391 1.268 . S
O380 Nd360 2.500 . S
O380 C362 1.258 . S
O381 Nd360 2.492 . S
O381 C362 1.239 . S
O382 Nd360 2.487 . S
O382 C369 1.241 . S
O383 Nd360 2.682 . S
O383 Nd361 2.414 . S
O383 C369 1.273 . S
O384 Nd360 2.410 . S
O384 C370 1.251 . S
O385 Nd361 2.424 . S
O385 C370 1.268 . S
O386 Nd361 2.500 . S
O386 C371 1.258 . S
O387 Nd361 2.492 . S
O387 C371 1.239 . S
O388 Nd361 2.487 . S
O388 C378 1.241 . S
O389 Nd360 2.414 . S
O389 Nd361 2.682 . S
O389 C378 1.273 . S
O390 Nd361 2.410 . S
O390 C379 1.251 . S
O391 Nd360 2.424 . S
O391 C379 1.268 . S
H392 C364 0.930 . S
H393 C365 0.929 . S
H394 C367 0.930 . S
H395 C368 0.929 . S
H396 C373 0.930 . S
H397 C374 0.929 . S
H398 C376 0.930 1_655 S
H399 C377 0.954 . S
Nd400 C402 2.836 . S
Nd400 O420 2.500 . S
Nd400 O421 2.492 . S
Nd400 O422 2.487 . S
Nd400 O423 2.682 . S
Nd400 O424 2.410 . S
Nd400 O429 2.414 . S
Nd400 O431 2.424 . S
Nd401 C411 2.836 . S
Nd401 O423 2.414 . S
Nd401 O425 2.424 . S
Nd401 O426 2.500 . S
Nd401 O427 2.492 . S
Nd401 O428 2.487 . S
Nd401 O429 2.682 . S
Nd401 O430 2.410 . S
C402 Nd400 2.836 . S
C402 C403 1.498 . S
C402 O420 1.258 . S
C402 O421 1.239 . S
C403 C402 1.498 . S
C403 C404 1.366 . S
C403 C408 1.407 . S
C404 C403 1.366 . S
C404 C405 1.392 . S
C404 H432 0.930 . S
C405 C404 1.392 . S
C405 C406 1.398 . S
C405 H433 0.929 . S
C406 C405 1.398 . S
C406 C407 1.352 . S
C407 C406 1.352 . S
C407 C408 1.384 . S
C407 H434 0.930 . S
C408 C403 1.407 . S
C408 C407 1.384 . S
C408 H435 0.929 . S
C409 O422 1.241 . S
C409 O423 1.273 . S
C410 O424 1.251 . S
C410 O425 1.268 . S
C411 Nd401 2.836 . S
C411 C412 1.498 . S
C411 O426 1.258 . S
C411 O427 1.239 . S
C412 C411 1.498 . S
C412 C413 1.366 . S
C412 C417 1.407 . S
C413 C412 1.366 . S
C413 C414 1.392 . S
C413 H436 0.930 . S
C414 C413 1.392 . S
C414 C415 1.398 . S
C414 H437 0.929 . S
C415 C414 1.398 . S
C415 C416 1.352 . S
C416 C415 1.352 . S
C416 C417 1.384 . S
C416 H438 0.930 1_545 S
C417 C412 1.407 . S
C417 C416 1.384 . S
C417 H439 0.942 . S
C418 O428 1.241 . S
C418 O429 1.273 . S
C419 O430 1.251 . S
C419 O431 1.268 . S
O420 Nd400 2.500 . S
O420 C402 1.258 . S
O421 Nd400 2.492 . S
O421 C402 1.239 . S
O422 Nd400 2.487 . S
O422 C409 1.241 . S
O423 Nd400 2.682 . S
O423 Nd401 2.414 . S
O423 C409 1.273 . S
O424 Nd400 2.410 . S
O424 C410 1.251 . S
O425 Nd401 2.424 . S
O425 C410 1.268 . S
O426 Nd401 2.500 . S
O426 C411 1.258 . S
O427 Nd401 2.492 . S
O427 C411 1.239 . S
O428 Nd401 2.487 . S
O428 C418 1.241 . S
O429 Nd400 2.414 . S
O429 Nd401 2.682 . S
O429 C418 1.273 . S
O430 Nd401 2.410 . S
O430 C419 1.251 . S
O431 Nd400 2.424 . S
O431 C419 1.268 . S
H432 C404 0.930 . S
H433 C405 0.929 . S
H434 C407 0.930 . S
H435 C408 0.929 . S
H436 C413 0.930 . S
H437 C414 0.929 . S
H438 C416 0.930 1_565 S
H439 C417 0.942 . S
Nd440 C442 2.836 1_554 S
Nd440 O460 2.500 . S
Nd440 O461 2.492 . S
Nd440 O462 2.487 . S
Nd440 O463 2.682 . S
Nd440 O464 2.410 . S
Nd440 O469 2.414 . S
Nd440 O471 2.424 . S
Nd441 C451 2.836 . S
Nd441 O463 2.414 . S
Nd441 O465 2.424 . S
Nd441 O466 2.500 . S
Nd441 O467 2.492 . S
Nd441 O468 2.487 . S
Nd441 O469 2.682 . S
Nd441 O470 2.410 . S
C442 Nd440 2.836 1_556 S
C442 C443 1.498 . S
C442 O460 1.258 1_556 S
C442 O461 1.239 1_556 S
C443 C442 1.498 . S
C443 C444 1.366 . S
C443 C448 1.407 . S
C444 C443 1.366 . S
C444 C445 1.392 . S
C444 H472 0.930 . S
C445 C444 1.392 . S
C445 C446 1.398 . S
C445 H473 0.929 . S
C446 C445 1.398 . S
C446 C447 1.352 . S
C447 C446 1.352 . S
C447 C448 1.384 . S
C447 H474 0.930 . S
C448 C443 1.407 . S
C448 C447 1.384 . S
C448 H475 0.929 . S
C449 O462 1.241 . S
C449 O463 1.273 . S
C450 O464 1.251 . S
C450 O465 1.268 . S
C451 Nd441 2.836 . S
C451 C452 1.498 . S
C451 O466 1.258 . S
C451 O467 1.239 . S
C452 C451 1.498 . S
C452 C453 1.366 . S
C452 C457 1.407 . S
C453 C452 1.366 . S
C453 C454 1.392 . S
C453 H476 0.930 . S
C454 C453 1.392 . S
C454 C455 1.398 . S
C454 H477 0.929 . S
C455 C454 1.398 . S
C455 C456 1.352 . S
C456 C455 1.352 . S
C456 C457 1.384 . S
C456 H478 0.930 . S
C457 C452 1.407 . S
C457 C456 1.384 . S
C457 H479 0.929 . S
C458 O468 1.241 . S
C458 O469 1.273 . S
C459 O470 1.251 . S
C459 O471 1.268 . S
O460 Nd440 2.500 . S
O460 C442 1.258 1_554 S
O461 Nd440 2.492 . S
O461 C442 1.239 1_554 S
O462 Nd440 2.487 . S
O462 C449 1.241 . S
O463 Nd440 2.682 . S
O463 Nd441 2.414 . S
O463 C449 1.273 . S
O464 Nd440 2.410 . S
O464 C450 1.251 . S
O465 Nd441 2.424 . S
O465 C450 1.268 . S
O466 Nd441 2.500 . S
O466 C451 1.258 . S
O467 Nd441 2.492 . S
O467 C451 1.239 . S
O468 Nd441 2.487 . S
O468 C458 1.241 . S
O469 Nd440 2.414 . S
O469 Nd441 2.682 . S
O469 C458 1.273 . S
O470 Nd441 2.410 . S
O470 C459 1.251 . S
O471 Nd440 2.424 . S
O471 C459 1.268 . S
H472 C444 0.930 . S
H473 C445 0.929 . S
H474 C447 0.930 . S
H475 C448 0.929 . S
H476 C453 0.930 . S
H477 C454 0.929 . S
H478 C456 0.930 . S
H479 C457 0.929 . S
H480 C488 0.950 . S
H481 C493 0.950 . S
H482 C490 0.950 . S
H483 C492 0.950 . S
H484 C494 0.950 . S
H485 C496 0.950 . S
H486 C498 0.950 . S
H487 C499 0.950 . S
C488 H480 0.950 . S
C488 C489 1.386 . S
C488 C490 1.391 . S
C489 C488 1.386 . S
C489 C493 1.393 . S
C490 H482 0.950 . S
C490 C488 1.391 . S
C490 C491 1.400 . S
C491 C490 1.400 . S
C491 C492 1.398 . S
C491 C497 1.491 . S
C492 H483 0.950 . S
C492 C491 1.398 . S
C492 C493 1.391 . S
C493 H481 0.950 . S
C493 C489 1.393 . S
C493 C492 1.391 . S
C494 H484 0.950 . S
C494 C495 1.386 . S
C494 C496 1.391 . S
C495 C494 1.386 . S
C495 C499 1.393 . S
C496 H485 0.950 . S
C496 C494 1.391 . S
C496 C497 1.400 . S
C497 C491 1.491 . S
C497 C496 1.400 . S
C497 C498 1.398 . S
C498 H486 0.950 . S
C498 C497 1.398 . S
C498 C499 1.391 . S
C499 H487 0.950 . S
C499 C495 1.393 . S
C499 C498 1.391 . S
H500 C508 0.950 . S
H501 C513 0.950 . S
H502 C510 0.950 . S
H503 C512 0.950 . S
H504 C514 0.950 . S
H505 C516 0.950 . S
H506 C518 0.950 . S
H507 C519 0.950 . S
C508 H500 0.950 . S
C508 C509 1.386 . S
C508 C510 1.391 . S
C509 C508 1.386 . S
C509 C513 1.393 . S
C510 H502 0.950 . S
C510 C508 1.391 . S
C510 C511 1.400 . S
C511 C510 1.400 . S
C511 C512 1.398 . S
C511 C517 1.491 . S
C512 H503 0.950 . S
C512 C511 1.398 . S
C512 C513 1.391 . S
C513 H501 0.950 . S
C513 C509 1.393 . S
C513 C512 1.391 . S
C514 H504 0.950 . S
C514 C515 1.386 . S
C514 C516 1.391 . S
C515 C514 1.386 . S
C515 C519 1.393 . S
C516 H505 0.950 . S
C516 C514 1.391 . S
C516 C517 1.400 . S
C517 C511 1.491 . S
C517 C516 1.400 . S
C517 C518 1.398 . S
C518 H506 0.950 . S
C518 C517 1.398 . S
C518 C519 1.391 . S
C519 H507 0.950 . S
C519 C515 1.393 . S
C519 C518 1.391 . S
H520 C528 0.950 . S
H521 C533 0.950 . S
H522 C530 0.950 . S
H523 C532 0.950 . S
H524 C534 0.950 . S
H525 C536 0.950 . S
H526 C538 0.950 . S
H527 C539 0.950 . S
C528 H520 0.950 . S
C528 C529 1.386 . S
C528 C530 1.391 . S
C529 C528 1.386 . S
C529 C533 1.393 . S
C530 H522 0.950 . S
C530 C528 1.391 . S
C530 C531 1.400 . S
C531 C530 1.400 . S
C531 C532 1.398 . S
C531 C537 1.491 . S
C532 H523 0.950 . S
C532 C531 1.398 . S
C532 C533 1.391 . S
C533 H521 0.950 . S
C533 C529 1.393 . S
C533 C532 1.391 . S
C534 H524 0.950 . S
C534 C535 1.386 . S
C534 C536 1.391 . S
C535 C534 1.386 . S
C535 C539 1.393 . S
C536 H525 0.950 . S
C536 C534 1.391 . S
C536 C537 1.400 . S
C537 C531 1.491 . S
C537 C536 1.400 . S
C537 C538 1.398 . S
C538 H526 0.950 . S
C538 C537 1.398 . S
C538 C539 1.391 . S
C539 H527 0.950 . S
C539 C535 1.393 . S
C539 C538 1.391 . S
H540 C548 0.950 . S
H541 C553 0.950 . S
H542 C550 0.950 . S
H543 C552 0.950 . S
H544 C554 0.950 . S
H545 C556 0.950 . S
H546 C558 0.950 . S
H547 C559 0.950 . S
C548 H540 0.950 . S
C548 C549 1.386 . S
C548 C550 1.391 . S
C549 C548 1.386 . S
C549 C553 1.393 . S
C550 H542 0.950 . S
C550 C548 1.391 . S
C550 C551 1.400 . S
C551 C550 1.400 . S
C551 C552 1.398 . S
C551 C557 1.491 . S
C552 H543 0.950 . S
C552 C551 1.398 . S
C552 C553 1.391 . S
C553 H541 0.950 . S
C553 C549 1.393 . S
C553 C552 1.391 . S
C554 H544 0.950 . S
C554 C555 1.386 . S
C554 C556 1.391 . S
C555 C554 1.386 . S
C555 C559 1.393 . S
C556 H545 0.950 . S
C556 C554 1.391 . S
C556 C557 1.400 . S
C557 C551 1.491 . S
C557 C556 1.400 . S
C557 C558 1.398 . S
C558 H546 0.950 . S
C558 C557 1.398 . S
C558 C559 1.391 . S
C559 H547 0.950 . S
C559 C555 1.393 . S
C559 C558 1.391 . S
H560 C568 0.950 . S
H561 C573 0.950 . S
H562 C570 0.950 . S
H563 C572 0.950 . S
H564 C574 0.950 . S
H565 C576 0.950 . S
H566 C578 0.950 . S
H567 C579 0.950 . S
C568 H560 0.950 . S
C568 C569 1.386 . S
C568 C570 1.391 . S
C569 C568 1.386 . S
C569 C573 1.393 . S
C570 H562 0.950 . S
C570 C568 1.391 . S
C570 C571 1.400 . S
C571 C570 1.400 . S
C571 C572 1.398 . S
C571 C577 1.491 . S
C572 H563 0.950 . S
C572 C571 1.398 . S
C572 C573 1.391 . S
C573 H561 0.950 . S
C573 C569 1.393 . S
C573 C572 1.391 . S
C574 H564 0.950 . S
C574 C575 1.386 . S
C574 C576 1.391 . S
C575 C574 1.386 . S
C575 C579 1.393 . S
C576 H565 0.950 . S
C576 C574 1.391 . S
C576 C577 1.400 . S
C577 C571 1.491 . S
C577 C576 1.400 . S
C577 C578 1.398 . S
C578 H566 0.950 . S
C578 C577 1.398 . S
C578 C579 1.391 . S
C579 H567 0.950 . S
C579 C575 1.393 . S
C579 C578 1.391 . S
H580 C588 0.950 . S
H581 C593 0.950 . S
H582 C590 0.950 . S
H583 C592 0.950 . S
H584 C594 0.950 . S
H585 C596 0.950 . S
H586 C598 0.950 . S
H587 C599 0.950 . S
C588 H580 0.950 . S
C588 C589 1.386 . S
C588 C590 1.391 . S
C589 C588 1.386 . S
C589 C593 1.393 . S
C590 H582 0.950 . S
C590 C588 1.391 . S
C590 C591 1.400 . S
C591 C590 1.400 . S
C591 C592 1.398 . S
C591 C597 1.491 . S
C592 H583 0.950 . S
C592 C591 1.398 . S
C592 C593 1.391 . S
C593 H581 0.950 . S
C593 C589 1.393 . S
C593 C592 1.391 . S
C594 H584 0.950 . S
C594 C595 1.386 . S
C594 C596 1.391 . S
C595 C594 1.386 . S
C595 C599 1.393 . S
C596 H585 0.950 . S
C596 C594 1.391 . S
C596 C597 1.400 . S
C597 C591 1.491 . S
C597 C596 1.400 . S
C597 C598 1.398 . S
C598 H586 0.950 . S
C598 C597 1.398 . S
C598 C599 1.391 . S
C599 H587 0.950 . S
C599 C595 1.393 . S
C599 C598 1.391 . S
H600 C608 0.950 . S
H601 C613 0.950 . S
H602 C610 0.950 . S
H603 C612 0.936 1_554 S
H604 C614 0.950 . S
H605 C616 0.950 . S
H606 C618 0.937 1_556 S
H607 C619 0.950 . S
C608 H600 0.950 . S
C608 C609 1.386 . S
C608 C610 1.391 . S
C609 C608 1.386 . S
C609 C613 1.393 . S
C610 H602 0.950 . S
C610 C608 1.391 . S
C610 C611 1.400 . S
C611 C610 1.400 . S
C611 C612 1.398 . S
C611 C617 1.491 1_556 S
C612 H603 0.936 1_556 S
C612 C611 1.398 . S
C612 C613 1.391 . S
C613 H601 0.950 . S
C613 C609 1.393 . S
C613 C612 1.391 . S
C614 H604 0.950 . S
C614 C615 1.386 . S
C614 C616 1.391 . S
C615 C614 1.386 . S
C615 C619 1.393 . S
C616 H605 0.950 . S
C616 C614 1.391 . S
C616 C617 1.400 . S
C617 C611 1.491 1_554 S
C617 C616 1.400 . S
C617 C618 1.398 . S
C618 H606 0.937 1_554 S
C618 C617 1.398 . S
C618 C619 1.391 . S
C619 H607 0.950 . S
C619 C615 1.393 . S
C619 C618 1.391 . S
H620 C628 0.950 . S
H621 C633 0.950 . S
H622 C630 0.950 . S
H623 C632 0.950 . S
H624 C634 0.950 . S
H625 C636 0.950 . S
H626 C638 0.950 . S
H627 C639 0.950 . S
C628 H620 0.950 . S
C628 C629 1.386 . S
C628 C630 1.391 . S
C629 C628 1.386 . S
C629 C633 1.393 . S
C630 H622 0.950 . S
C630 C628 1.391 . S
C630 C631 1.400 . S
C631 C630 1.400 . S
C631 C632 1.398 . S
C631 C637 1.491 . S
C632 H623 0.950 . S
C632 C631 1.398 . S
C632 C633 1.391 . S
C633 H621 0.950 . S
C633 C629 1.393 . S
C633 C632 1.391 . S
C634 H624 0.950 . S
C634 C635 1.386 . S
C634 C636 1.391 . S
C635 C634 1.386 . S
C635 C639 1.393 . S
C636 H625 0.950 . S
C636 C634 1.391 . S
C636 C637 1.400 . S
C637 C631 1.491 . S
C637 C636 1.400 . S
C637 C638 1.398 . S
C638 H626 0.950 . S
C638 C637 1.398 . S
C638 C639 1.391 . S
C639 H627 0.950 . S
C639 C635 1.393 . S
C639 C638 1.391 . S
H640 C648 0.950 . S
H641 C653 0.950 . S
H642 C650 0.950 . S
H643 C652 0.950 . S
H644 C654 0.950 . S
H645 C656 0.950 . S
H646 C658 0.950 . S
H647 C659 0.950 . S
C648 H640 0.950 . S
C648 C649 1.386 . S
C648 C650 1.391 . S
C649 C648 1.386 . S
C649 C653 1.393 . S
C650 H642 0.950 . S
C650 C648 1.391 . S
C650 C651 1.400 . S
C651 C650 1.400 . S
C651 C652 1.398 . S
C651 C657 1.491 . S
C652 H643 0.950 . S
C652 C651 1.398 . S
C652 C653 1.391 . S
C653 H641 0.950 . S
C653 C649 1.393 . S
C653 C652 1.391 . S
C654 H644 0.950 . S
C654 C655 1.386 . S
C654 C656 1.391 . S
C655 C654 1.386 . S
C655 C659 1.393 . S
C656 H645 0.950 . S
C656 C654 1.391 . S
C656 C657 1.400 . S
C657 C651 1.491 . S
C657 C656 1.400 . S
C657 C658 1.398 . S
C658 H646 0.950 . S
C658 C657 1.398 . S
C658 C659 1.391 . S
C659 H647 0.950 . S
C659 C655 1.393 . S
C659 C658 1.391 . S
H660 C668 0.950 . S
H661 C673 0.950 . S
H662 C670 0.950 . S
H663 C672 0.950 . S
H664 C674 0.950 . S
H665 C676 0.950 . S
H666 C678 0.950 . S
H667 C679 0.950 . S
C668 H660 0.950 . S
C668 C669 1.386 . S
C668 C670 1.391 . S
C669 C668 1.386 . S
C669 C673 1.393 . S
C670 H662 0.950 . S
C670 C668 1.391 . S
C670 C671 1.400 . S
C671 C670 1.400 . S
C671 C672 1.398 . S
C671 C677 1.491 1_556 S
C672 H663 0.950 . S
C672 C671 1.398 . S
C672 C673 1.391 . S
C673 H661 0.950 . S
C673 C669 1.393 . S
C673 C672 1.391 . S
C674 H664 0.950 . S
C674 C675 1.386 . S
C674 C676 1.391 . S
C675 C674 1.386 . S
C675 C679 1.393 . S
C676 H665 0.950 . S
C676 C674 1.391 . S
C676 C677 1.400 . S
C677 C671 1.491 1_554 S
C677 C676 1.400 . S
C677 C678 1.398 . S
C678 H666 0.950 . S
C678 C677 1.398 . S
C678 C679 1.391 . S
C679 H667 0.950 . S
C679 C675 1.393 . S
C679 C678 1.391 . S
H680 C688 0.950 . S
H681 C693 0.950 . S
H682 C690 0.950 . S
H683 C692 0.950 . S
H684 C694 0.950 . S
H685 C696 0.950 . S
H686 C698 0.950 . S
H687 C699 0.950 . S
C688 H680 0.950 . S
C688 C689 1.386 . S
C688 C690 1.391 . S
C689 C688 1.386 . S
C689 C693 1.393 . S
C690 H682 0.950 . S
C690 C688 1.391 . S
C690 C691 1.400 . S
C691 C690 1.400 . S
C691 C692 1.398 . S
C691 C697 1.491 . S
C692 H683 0.950 . S
C692 C691 1.398 . S
C692 C693 1.391 . S
C693 H681 0.950 . S
C693 C689 1.393 . S
C693 C692 1.391 . S
C694 H684 0.950 . S
C694 C695 1.386 . S
C694 C696 1.391 . S
C695 C694 1.386 . S
C695 C699 1.393 . S
C696 H685 0.950 . S
C696 C694 1.391 . S
C696 C697 1.400 . S
C697 C691 1.491 . S
C697 C696 1.400 . S
C697 C698 1.398 . S
C698 H686 0.950 . S
C698 C697 1.398 . S
C698 C699 1.391 . S
C699 H687 0.950 . S
C699 C695 1.393 . S
C699 C698 1.391 . S
H700 C708 0.950 . S
H701 C713 0.950 . S
H702 C710 0.950 . S
H703 C712 0.950 . S
H704 C714 0.950 . S
H705 C716 0.950 . S
H706 C718 0.950 . S
H707 C719 0.950 . S
C708 H700 0.950 . S
C708 C709 1.386 . S
C708 C710 1.391 . S
C709 C708 1.386 . S
C709 C713 1.393 . S
C710 H702 0.950 . S
C710 C708 1.391 . S
C710 C711 1.400 . S
C711 C710 1.400 . S
C711 C712 1.398 . S
C711 C717 1.491 . S
C712 H703 0.950 . S
C712 C711 1.398 . S
C712 C713 1.391 . S
C713 H701 0.950 . S
C713 C709 1.393 . S
C713 C712 1.391 . S
C714 H704 0.950 . S
C714 C715 1.386 . S
C714 C716 1.391 . S
C715 C714 1.386 . S
C715 C719 1.393 . S
C716 H705 0.950 . S
C716 C714 1.391 . S
C716 C717 1.400 . S
C717 C711 1.491 . S
C717 C716 1.400 . S
C717 C718 1.398 . S
C718 H706 0.950 . S
C718 C717 1.398 . S
C718 C719 1.391 . S
C719 H707 0.950 . S
C719 C715 1.393 . S
C719 C718 1.391 . S
H720 C728 0.950 . S
H721 C733 0.950 . S
H722 C730 0.950 . S
H723 C732 0.950 . S
H724 C734 0.950 . S
H725 C736 0.950 . S
H726 C738 0.950 . S
H727 C739 0.950 . S
C728 H720 0.950 . S
C728 C729 1.386 . S
C728 C730 1.391 . S
C729 C728 1.386 . S
C729 C733 1.393 . S
C730 H722 0.950 . S
C730 C728 1.391 . S
C730 C731 1.400 . S
C731 C730 1.400 . S
C731 C732 1.398 . S
C731 C737 1.491 1_566 S
C732 H723 0.950 . S
C732 C731 1.398 . S
C732 C733 1.391 . S
C733 H721 0.950 . S
C733 C729 1.393 . S
C733 C732 1.391 . S
C734 H724 0.950 . S
C734 C735 1.386 . S
C734 C736 1.391 . S
C735 C734 1.386 . S
C735 C739 1.393 . S
C736 H725 0.950 . S
C736 C734 1.391 . S
C736 C737 1.400 . S
C737 C731 1.491 1_544 S
C737 C736 1.400 . S
C737 C738 1.398 . S
C738 H726 0.950 . S
C738 C737 1.398 . S
C738 C739 1.391 . S
C739 H727 0.950 . S
C739 C735 1.393 . S
C739 C738 1.391 . S
H740 C748 0.950 . S
H741 C753 0.950 . S
H742 C750 0.950 . S
H743 C752 0.950 . S
H744 C754 0.950 . S
H745 C756 0.950 . S
H746 C758 0.950 . S
H747 C759 0.950 . S
C748 H740 0.950 . S
C748 C749 1.386 . S
C748 C750 1.391 . S
C749 C748 1.386 . S
C749 C753 1.393 . S
C750 H742 0.950 . S
C750 C748 1.391 . S
C750 C751 1.400 . S
C751 C750 1.400 . S
C751 C752 1.398 . S
C751 C757 1.491 . S
C752 H743 0.950 . S
C752 C751 1.398 . S
C752 C753 1.391 . S
C753 H741 0.950 . S
C753 C749 1.393 . S
C753 C752 1.391 . S
C754 H744 0.950 . S
C754 C755 1.386 . S
C754 C756 1.391 . S
C755 C754 1.386 . S
C755 C759 1.393 . S
C756 H745 0.950 . S
C756 C754 1.391 . S
C756 C757 1.400 . S
C757 C751 1.491 . S
C757 C756 1.400 . S
C757 C758 1.398 . S
C758 H746 0.950 . S
C758 C757 1.398 . S
C758 C759 1.391 . S
C759 H747 0.950 . S
C759 C755 1.393 . S
C759 C758 1.391 . S
H760 C768 0.950 . S
H761 C773 0.950 . S
H762 C770 0.950 1_655 S
H763 C772 0.950 . S
H764 C774 0.950 . S
H765 C776 0.950 1_455 S
H766 C778 0.950 . S
H767 C779 0.950 . S
C768 H760 0.950 . S
C768 C769 1.386 . S
C768 C770 1.391 . S
C769 C768 1.386 . S
C769 C773 1.393 . S
C770 H762 0.950 1_455 S
C770 C768 1.391 . S
C770 C771 1.400 . S
C771 C770 1.400 . S
C771 C772 1.398 . S
C771 C777 1.491 1_455 S
C772 H763 0.950 . S
C772 C771 1.398 . S
C772 C773 1.391 . S
C773 H761 0.950 . S
C773 C769 1.393 . S
C773 C772 1.391 . S
C774 H764 0.950 . S
C774 C775 1.386 . S
C774 C776 1.391 . S
C775 C774 1.386 . S
C775 C779 1.393 . S
C776 H765 0.950 1_655 S
C776 C774 1.391 . S
C776 C777 1.400 . S
C777 C771 1.491 1_655 S
C777 C776 1.400 . S
C777 C778 1.398 . S
C778 H766 0.950 . S
C778 C777 1.398 . S
C778 C779 1.391 . S
C779 H767 0.950 . S
C779 C775 1.393 . S
C779 C778 1.391 . S
H780 C788 0.950 . S
H781 C793 0.950 . S
H782 C790 0.950 . S
H783 C792 0.950 . S
H784 C794 0.950 . S
H785 C796 0.950 . S
H786 C798 0.950 . S
H787 C799 0.950 . S
C788 H780 0.950 . S
C788 C789 1.386 . S
C788 C790 1.391 . S
C789 C788 1.386 . S
C789 C793 1.393 . S
C790 H782 0.950 . S
C790 C788 1.391 . S
C790 C791 1.400 . S
C791 C790 1.400 . S
C791 C792 1.398 . S
C791 C797 1.491 1_564 S
C792 H783 0.950 . S
C792 C791 1.398 . S
C792 C793 1.391 . S
C793 H781 0.950 . S
C793 C789 1.393 . S
C793 C792 1.391 . S
C794 H784 0.950 . S
C794 C795 1.386 . S
C794 C796 1.391 . S
C795 C794 1.386 . S
C795 C799 1.393 . S
C796 H785 0.950 . S
C796 C794 1.391 . S
C796 C797 1.400 . S
C797 C791 1.491 1_546 S
C797 C796 1.400 . S
C797 C798 1.398 . S
C798 H786 0.950 . S
C798 C797 1.398 . S
C798 C799 1.391 . S
C799 H787 0.950 . S
C799 C795 1.393 . S
C799 C798 1.391 . S
H800 C808 0.950 . S
H801 C813 0.950 . S
H802 C810 0.950 . S
H803 C812 0.950 . S
H804 C814 0.950 . S
H805 C816 0.950 . S
H806 C818 0.950 . S
H807 C819 0.950 . S
C808 H800 0.950 . S
C808 C809 1.386 . S
C808 C810 1.391 . S
C809 C808 1.386 . S
C809 C813 1.393 . S
C810 H802 0.950 . S
C810 C808 1.391 . S
C810 C811 1.400 . S
C811 C810 1.400 . S
C811 C812 1.398 . S
C811 C817 1.491 . S
C812 H803 0.950 . S
C812 C811 1.398 . S
C812 C813 1.391 . S
C813 H801 0.950 . S
C813 C809 1.393 . S
C813 C812 1.391 . S
C814 H804 0.950 . S
C814 C815 1.386 . S
C814 C816 1.391 . S
C815 C814 1.386 . S
C815 C819 1.393 . S
C816 H805 0.950 . S
C816 C814 1.391 . S
C816 C817 1.400 . S
C817 C811 1.491 . S
C817 C816 1.400 . S
C817 C818 1.398 . S
C818 H806 0.950 . S
C818 C817 1.398 . S
C818 C819 1.391 . S
C819 H807 0.950 . S
C819 C815 1.393 . S
C819 C818 1.391 . S
H820 C828 0.950 . S
H821 C833 0.950 . S
H822 C830 0.950 1_655 S
H823 C832 0.950 . S
H824 C834 0.950 . S
H825 C836 0.950 1_455 S
H826 C838 0.950 . S
H827 C839 0.950 . S
C828 H820 0.950 . S
C828 C829 1.386 . S
C828 C830 1.391 . S
C829 C828 1.386 . S
C829 C833 1.393 . S
C830 H822 0.950 1_455 S
C830 C828 1.391 . S
C830 C831 1.400 . S
C831 C830 1.400 . S
C831 C832 1.398 . S
C831 C837 1.491 1_455 S
C832 H823 0.950 . S
C832 C831 1.398 . S
C832 C833 1.391 . S
C833 H821 0.950 . S
C833 C829 1.393 . S
C833 C832 1.391 . S
C834 H824 0.950 . S
C834 C835 1.386 . S
C834 C836 1.391 . S
C835 C834 1.386 . S
C835 C839 1.393 . S
C836 H825 0.950 1_655 S
C836 C834 1.391 . S
C836 C837 1.400 . S
C837 C831 1.491 1_655 S
C837 C836 1.400 . S
C837 C838 1.398 . S
C838 H826 0.950 . S
C838 C837 1.398 . S
C838 C839 1.391 . S
C839 H827 0.950 . S
C839 C835 1.393 . S
C839 C838 1.391 . S
H840 C848 0.950 . S
H841 C853 0.950 . S
H842 C850 0.950 . S
H843 C852 0.950 1_565 S
H844 C854 0.950 . S
H845 C856 0.950 . S
H846 C858 0.950 1_545 S
H847 C859 0.950 . S
C848 H840 0.950 . S
C848 C849 1.386 . S
C848 C850 1.391 . S
C849 C848 1.386 . S
C849 C853 1.393 . S
C850 H842 0.950 . S
C850 C848 1.391 . S
C850 C851 1.400 . S
C851 C850 1.400 . S
C851 C852 1.398 . S
C851 C857 1.491 1_545 S
C852 H843 0.950 1_545 S
C852 C851 1.398 . S
C852 C853 1.391 . S
C853 H841 0.950 . S
C853 C849 1.393 . S
C853 C852 1.391 . S
C854 H844 0.950 . S
C854 C855 1.386 . S
C854 C856 1.391 . S
C855 C854 1.386 . S
C855 C859 1.393 . S
C856 H845 0.950 . S
C856 C854 1.391 . S
C856 C857 1.400 . S
C857 C851 1.491 1_565 S
C857 C856 1.400 . S
C857 C858 1.398 . S
C858 H846 0.950 1_565 S
C858 C857 1.398 . S
C858 C859 1.391 . S
C859 H847 0.950 . S
C859 C855 1.393 . S
C859 C858 1.391 . S
H860 C868 0.950 . S
H861 C873 0.950 . S
H862 C870 0.950 . S
H863 C872 0.950 . S
H864 C874 0.950 . S
H865 C876 0.950 . S
H866 C878 0.950 . S
H867 C879 0.950 . S
C868 H860 0.950 . S
C868 C869 1.386 . S
C868 C870 1.391 . S
C869 C868 1.386 . S
C869 C873 1.393 . S
C870 H862 0.950 . S
C870 C868 1.391 . S
C870 C871 1.400 . S
C871 C870 1.400 . S
C871 C872 1.398 . S
C871 C877 1.491 . S
C872 H863 0.950 . S
C872 C871 1.398 . S
C872 C873 1.391 . S
C873 H861 0.950 . S
C873 C869 1.393 . S
C873 C872 1.391 . S
C874 H864 0.950 . S
C874 C875 1.386 . S
C874 C876 1.391 . S
C875 C874 1.386 . S
C875 C879 1.393 . S
C876 H865 0.950 . S
C876 C874 1.391 . S
C876 C877 1.400 . S
C877 C871 1.491 . S
C877 C876 1.400 . S
C877 C878 1.398 . S
C878 H866 0.950 . S
C878 C877 1.398 . S
C878 C879 1.391 . S
C879 H867 0.950 . S
C879 C875 1.393 . S
C879 C878 1.391 . S
H880 C888 0.950 . S
H881 C893 0.950 . S
H882 C890 0.950 . S
H883 C892 0.950 1_455 S
H884 C894 0.950 . S
H885 C896 0.950 . S
H886 C898 0.950 1_655 S
H887 C899 0.950 . S
C888 H880 0.950 . S
C888 C889 1.386 . S
C888 C890 1.391 . S
C889 C888 1.386 . S
C889 C893 1.393 . S
C890 H882 0.950 . S
C890 C888 1.391 . S
C890 C891 1.400 . S
C891 C890 1.400 . S
C891 C892 1.398 . S
C891 C897 1.491 1_655 S
C892 H883 0.950 1_655 S
C892 C891 1.398 . S
C892 C893 1.391 . S
C893 H881 0.950 . S
C893 C889 1.393 . S
C893 C892 1.391 . S
C894 H884 0.950 . S
C894 C895 1.386 . S
C894 C896 1.391 . S
C895 C894 1.386 . S
C895 C899 1.393 . S
C896 H885 0.950 . S
C896 C894 1.391 . S
C896 C897 1.400 . S
C897 C891 1.491 1_455 S
C897 C896 1.400 . S
C897 C898 1.398 . S
C898 H886 0.950 1_455 S
C898 C897 1.398 . S
C898 C899 1.391 . S
C899 H887 0.950 . S
C899 C895 1.393 . S
C899 C898 1.391 . S
H900 C908 0.950 . S
H901 C913 0.950 . S
H902 C910 0.950 . S
H903 C912 0.950 1_655 S
H904 C914 0.950 . S
H905 C916 0.950 . S
H906 C918 0.950 1_455 S
H907 C919 0.950 . S
C908 H900 0.950 . S
C908 C909 1.386 . S
C908 C910 1.391 . S
C909 C908 1.386 . S
C909 C913 1.393 . S
C910 H902 0.950 . S
C910 C908 1.391 . S
C910 C911 1.400 . S
C911 C910 1.400 . S
C911 C912 1.398 . S
C911 C917 1.491 1_455 S
C912 H903 0.950 1_455 S
C912 C911 1.398 . S
C912 C913 1.391 . S
C913 H901 0.950 . S
C913 C909 1.393 . S
C913 C912 1.391 . S
C914 H904 0.950 . S
C914 C915 1.386 . S
C914 C916 1.391 . S
C915 C914 1.386 . S
C915 C919 1.393 . S
C916 H905 0.950 . S
C916 C914 1.391 . S
C916 C917 1.400 . S
C917 C911 1.491 1_655 S
C917 C916 1.400 . S
C917 C918 1.398 . S
C918 H906 0.950 1_655 S
C918 C917 1.398 . S
C918 C919 1.391 . S
C919 H907 0.950 . S
C919 C915 1.393 . S
C919 C918 1.391 . S
H920 C928 0.950 . S
H921 C933 0.950 . S
H922 C930 0.924 1_545 S
H923 C932 0.950 . S
H924 C934 0.950 . S
H925 C936 0.924 1_565 S
H926 C938 0.950 . S
H927 C939 0.950 . S
C928 H920 0.950 . S
C928 C929 1.386 . S
C928 C930 1.394 . S
C929 C928 1.386 . S
C929 C933 1.393 . S
C930 H922 0.924 1_565 S
C930 C928 1.394 . S
C930 C931 1.424 . S
C931 C930 1.424 . S
C931 C932 1.398 . S
C931 C937 1.491 1_565 S
C932 H923 0.950 . S
C932 C931 1.398 . S
C932 C933 1.391 . S
C933 H921 0.950 . S
C933 C929 1.393 . S
C933 C932 1.391 . S
C934 H924 0.950 . S
C934 C935 1.386 . S
C934 C936 1.394 . S
C935 C934 1.386 . S
C935 C939 1.393 . S
C936 H925 0.924 1_545 S
C936 C934 1.394 . S
C936 C937 1.424 . S
C937 C931 1.491 1_545 S
C937 C936 1.424 . S
C937 C938 1.398 . S
C938 H926 0.950 . S
C938 C937 1.398 . S
C938 C939 1.391 . S
C939 H927 0.950 . S
C939 C935 1.393 . S
C939 C938 1.391 . S
H940 C948 0.950 . S
H941 C953 0.950 . S
H942 C950 0.950 . S
H943 C952 0.950 . S
H944 C954 0.950 . S
H945 C956 0.950 . S
H946 C958 0.950 . S
H947 C959 0.950 . S
C948 H940 0.950 . S
C948 C949 1.386 . S
C948 C950 1.391 . S
C949 C948 1.386 . S
C949 C953 1.393 . S
C950 H942 0.950 . S
C950 C948 1.391 . S
C950 C951 1.400 . S
C951 C950 1.400 . S
C951 C952 1.398 . S
C951 C957 1.491 . S
C952 H943 0.950 . S
C952 C951 1.398 . S
C952 C953 1.391 . S
C953 H941 0.950 . S
C953 C949 1.393 . S
C953 C952 1.391 . S
C954 H944 0.950 . S
C954 C955 1.386 . S
C954 C956 1.391 . S
C955 C954 1.386 . S
C955 C959 1.393 . S
C956 H945 0.950 . S
C956 C954 1.391 . S
C956 C957 1.400 . S
C957 C951 1.491 . S
C957 C956 1.400 . S
C957 C958 1.398 . S
C958 H946 0.950 . S
C958 C957 1.398 . S
C958 C959 1.391 . S
C959 H947 0.950 . S
C959 C955 1.393 . S
C959 C958 1.391 . S
H960 C968 0.950 . S
H961 C973 0.950 . S
H962 C970 0.950 . S
H963 C972 0.950 . S
H964 C974 0.950 . S
H965 C976 0.950 . S
H966 C978 0.950 . S
H967 C979 0.950 . S
C968 H960 0.950 . S
C968 C969 1.386 . S
C968 C970 1.391 . S
C969 C968 1.386 . S
C969 C973 1.393 . S
C970 H962 0.950 . S
C970 C968 1.391 . S
C970 C971 1.400 . S
C971 C970 1.400 . S
C971 C972 1.398 . S
C971 C977 1.491 1_565 S
C972 H963 0.950 . S
C972 C971 1.398 . S
C972 C973 1.391 . S
C973 H961 0.950 . S
C973 C969 1.393 . S
C973 C972 1.391 . S
C974 H964 0.950 . S
C974 C975 1.386 . S
C974 C976 1.391 . S
C975 C974 1.386 . S
C975 C979 1.393 . S
C976 H965 0.950 . S
C976 C974 1.391 . S
C976 C977 1.400 . S
C977 C971 1.491 1_545 S
C977 C976 1.400 . S
C977 C978 1.398 . S
C978 H966 0.950 . S
C978 C977 1.398 . S
C978 C979 1.391 . S
C979 H967 0.950 . S
C979 C975 1.393 . S
C979 C978 1.391 . S
H980 C988 0.950 . S
H981 C993 0.950 . S
H982 C990 0.950 . S
H983 C992 0.950 . S
H984 C994 0.950 . S
H985 C996 0.950 . S
H986 C998 0.950 . S
H987 C999 0.950 . S
C988 H980 0.950 . S
C988 C989 1.386 . S
C988 C990 1.391 . S
C989 C988 1.386 . S
C989 C993 1.393 . S
C990 H982 0.950 . S
C990 C988 1.391 . S
C990 C991 1.400 . S
C991 C990 1.400 . S
C991 C992 1.398 . S
C991 C997 1.491 . S
C992 H983 0.950 . S
C992 C991 1.398 . S
C992 C993 1.391 . S
C993 H981 0.950 . S
C993 C989 1.393 . S
C993 C992 1.391 . S
C994 H984 0.950 . S
C994 C995 1.386 . S
C994 C996 1.391 . S
C995 C994 1.386 . S
C995 C999 1.393 . S
C996 H985 0.950 . S
C996 C994 1.391 . S
C996 C997 1.400 . S
C997 C991 1.491 . S
C997 C996 1.400 . S
C997 C998 1.398 . S
C998 H986 0.950 . S
C998 C997 1.398 . S
C998 C999 1.391 . S
C999 H987 0.950 . S
C999 C995 1.393 . S
C999 C998 1.391 . S
H1000 C1008 0.950 . S
H1001 C1013 0.950 . S
H1002 C1010 0.950 . S
H1003 C1012 0.950 1_455 S
H1004 C1014 0.950 . S
H1005 C1016 0.950 . S
H1006 C1018 0.950 1_655 S
H1007 C1019 0.950 . S
C1008 H1000 0.950 . S
C1008 C1009 1.386 . S
C1008 C1010 1.391 . S
C1009 C1008 1.386 . S
C1009 C1013 1.393 . S
C1010 H1002 0.950 . S
C1010 C1008 1.391 . S
C1010 C1011 1.400 . S
C1011 C1010 1.400 . S
C1011 C1012 1.398 . S
C1011 C1017 1.491 1_655 S
C1012 H1003 0.950 1_655 S
C1012 C1011 1.398 . S
C1012 C1013 1.391 . S
C1013 H1001 0.950 . S
C1013 C1009 1.393 . S
C1013 C1012 1.391 . S
C1014 H1004 0.950 . S
C1014 C1015 1.386 . S
C1014 C1016 1.391 . S
C1015 C1014 1.386 . S
C1015 C1019 1.393 . S
C1016 H1005 0.950 . S
C1016 C1014 1.391 . S
C1016 C1017 1.400 . S
C1017 C1011 1.491 1_455 S
C1017 C1016 1.400 . S
C1017 C1018 1.398 . S
C1018 H1006 0.950 1_455 S
C1018 C1017 1.398 . S
C1018 C1019 1.391 . S
C1019 H1007 0.950 . S
C1019 C1015 1.393 . S
C1019 C1018 1.391 . S
H1020 C1028 0.950 . S
H1021 C1033 0.950 . S
H1022 C1030 0.950 . S
H1023 C1032 0.950 . S
H1024 C1034 0.950 . S
H1025 C1036 0.950 . S
H1026 C1038 0.950 . S
H1027 C1039 0.950 . S
C1028 H1020 0.950 . S
C1028 C1029 1.386 . S
C1028 C1030 1.391 . S
C1029 C1028 1.386 . S
C1029 C1033 1.393 . S
C1030 H1022 0.950 . S
C1030 C1028 1.391 . S
C1030 C1031 1.400 . S
C1031 C1030 1.400 . S
C1031 C1032 1.398 1_545 S
C1031 C1037 1.491 1_545 S
C1032 H1023 0.950 . S
C1032 C1031 1.398 1_565 S
C1032 C1033 1.391 1_565 S
C1033 H1021 0.950 . S
C1033 C1029 1.393 . S
C1033 C1032 1.391 1_545 S
C1034 H1024 0.950 . S
C1034 C1035 1.386 . S
C1034 C1036 1.391 . S
C1035 C1034 1.386 . S
C1035 C1039 1.393 . S
C1036 H1025 0.950 . S
C1036 C1034 1.391 . S
C1036 C1037 1.400 . S
C1037 C1031 1.491 1_565 S
C1037 C1036 1.400 . S
C1037 C1038 1.398 1_565 S
C1038 H1026 0.950 . S
C1038 C1037 1.398 1_545 S
C1038 C1039 1.391 1_545 S
C1039 H1027 0.950 . S
C1039 C1035 1.393 . S
C1039 C1038 1.391 1_565 S
H1040 C1048 0.950 . S
H1041 C1053 0.950 . S
H1042 C1050 0.950 . S
H1043 C1052 0.950 . S
H1044 C1054 0.950 . S
H1045 C1056 0.950 . S
H1046 C1058 0.950 . S
H1047 C1059 0.950 . S
C1048 H1040 0.950 . S
C1048 C1049 1.386 . S
C1048 C1050 1.391 . S
C1049 C1048 1.386 . S
C1049 C1053 1.393 . S
C1050 H1042 0.950 . S
C1050 C1048 1.391 . S
C1050 C1051 1.400 . S
C1051 C1050 1.400 . S
C1051 C1052 1.398 . S
C1051 C1057 1.491 . S
C1052 H1043 0.950 . S
C1052 C1051 1.398 . S
C1052 C1053 1.391 . S
C1053 H1041 0.950 . S
C1053 C1049 1.393 . S
C1053 C1052 1.391 . S
C1054 H1044 0.950 . S
C1054 C1055 1.386 . S
C1054 C1056 1.391 . S
C1055 C1054 1.386 . S
C1055 C1059 1.393 . S
C1056 H1045 0.950 . S
C1056 C1054 1.391 . S
C1056 C1057 1.400 . S
C1057 C1051 1.491 . S
C1057 C1056 1.400 . S
C1057 C1058 1.398 . S
C1058 H1046 0.950 . S
C1058 C1057 1.398 . S
C1058 C1059 1.391 . S
C1059 H1047 0.950 . S
C1059 C1055 1.393 . S
C1059 C1058 1.391 . S
H1060 C1068 0.950 . S
H1061 C1073 0.950 1_655 S
H1062 C1070 0.950 . S
H1063 C1072 0.950 . S
H1064 C1074 0.950 . S
H1065 C1076 0.950 . S
H1066 C1078 0.950 . S
H1067 C1079 0.950 1_455 S
C1068 H1060 0.950 . S
C1068 C1069 1.386 . S
C1068 C1070 1.391 . S
C1069 C1068 1.386 . S
C1069 C1073 1.393 . S
C1070 H1062 0.950 . S
C1070 C1068 1.391 . S
C1070 C1071 1.400 . S
C1071 C1070 1.400 . S
C1071 C1072 1.398 1_455 S
C1071 C1077 1.491 1_455 S
C1072 H1063 0.950 . S
C1072 C1071 1.398 1_655 S
C1072 C1073 1.391 1_655 S
C1073 H1061 0.950 1_455 S
C1073 C1069 1.393 . S
C1073 C1072 1.391 1_455 S
C1074 H1064 0.950 . S
C1074 C1075 1.386 . S
C1074 C1076 1.391 . S
C1075 C1074 1.386 . S
C1075 C1079 1.393 . S
C1076 H1065 0.950 . S
C1076 C1074 1.391 . S
C1076 C1077 1.400 . S
C1077 C1071 1.491 1_655 S
C1077 C1076 1.400 . S
C1077 C1078 1.398 1_655 S
C1078 H1066 0.950 . S
C1078 C1077 1.398 1_455 S
C1078 C1079 1.391 1_455 S
C1079 H1067 0.950 1_655 S
C1079 C1075 1.393 . S
C1079 C1078 1.391 1_655 S
H1080 C1088 0.950 . S
H1081 C1093 0.950 . S
H1082 C1090 0.950 . S
H1083 C1092 0.950 . S
H1084 C1094 0.950 . S
H1085 C1096 0.950 . S
H1086 C1098 0.950 . S
H1087 C1099 0.950 . S
C1088 H1080 0.950 . S
C1088 C1089 1.386 . S
C1088 C1090 1.391 . S
C1089 C1088 1.386 . S
C1089 C1093 1.393 . S
C1090 H1082 0.950 . S
C1090 C1088 1.391 . S
C1090 C1091 1.400 . S
C1091 C1090 1.400 . S
C1091 C1092 1.398 . S
C1091 C1097 1.491 . S
C1092 H1083 0.950 . S
C1092 C1091 1.398 . S
C1092 C1093 1.391 . S
C1093 H1081 0.950 . S
C1093 C1089 1.393 . S
C1093 C1092 1.391 . S
C1094 H1084 0.950 . S
C1094 C1095 1.386 . S
C1094 C1096 1.391 . S
C1095 C1094 1.386 . S
C1095 C1099 1.393 . S
C1096 H1085 0.950 . S
C1096 C1094 1.391 . S
C1096 C1097 1.400 . S
C1097 C1091 1.491 . S
C1097 C1096 1.400 . S
C1097 C1098 1.398 . S
C1098 H1086 0.950 . S
C1098 C1097 1.398 . S
C1098 C1099 1.391 . S
C1099 H1087 0.950 . S
C1099 C1095 1.393 . S
C1099 C1098 1.391 . S
H1100 C1108 0.950 . S
H1101 C1113 0.950 . S
H1102 C1110 0.950 . S
H1103 C1112 0.950 . S
H1104 C1114 0.950 . S
H1105 C1116 0.950 . S
H1106 C1118 0.950 . S
H1107 C1119 0.950 . S
C1108 H1100 0.950 . S
C1108 C1109 1.386 . S
C1108 C1110 1.391 . S
C1109 C1108 1.386 . S
C1109 C1113 1.393 . S
C1110 H1102 0.950 . S
C1110 C1108 1.391 . S
C1110 C1111 1.400 . S
C1111 C1110 1.400 . S
C1111 C1112 1.398 . S
C1111 C1117 1.491 . S
C1112 H1103 0.950 . S
C1112 C1111 1.398 . S
C1112 C1113 1.391 . S
C1113 H1101 0.950 . S
C1113 C1109 1.393 . S
C1113 C1112 1.391 . S
C1114 H1104 0.950 . S
C1114 C1115 1.386 . S
C1114 C1116 1.391 . S
C1115 C1114 1.386 . S
C1115 C1119 1.393 . S
C1116 H1105 0.950 . S
C1116 C1114 1.391 . S
C1116 C1117 1.400 . S
C1117 C1111 1.491 . S
C1117 C1116 1.400 . S
C1117 C1118 1.398 . S
C1118 H1106 0.950 . S
C1118 C1117 1.398 . S
C1118 C1119 1.391 . S
C1119 H1107 0.950 . S
C1119 C1115 1.393 . S
C1119 C1118 1.391 . S
H1120 C1128 0.950 . S
H1121 C1133 0.950 . S
H1122 C1130 0.950 . S
H1123 C1132 0.950 . S
H1124 C1134 0.950 . S
H1125 C1136 0.950 . S
H1126 C1138 0.950 . S
H1127 C1139 0.950 . S
C1128 H1120 0.950 . S
C1128 C1129 1.386 . S
C1128 C1130 1.391 . S
C1129 C1128 1.386 . S
C1129 C1133 1.393 . S
C1130 H1122 0.950 . S
C1130 C1128 1.391 . S
C1130 C1131 1.400 . S
C1131 C1130 1.400 . S
C1131 C1132 1.398 . S
C1131 C1137 1.491 . S
C1132 H1123 0.950 . S
C1132 C1131 1.398 . S
C1132 C1133 1.391 . S
C1133 H1121 0.950 . S
C1133 C1129 1.393 . S
C1133 C1132 1.391 . S
C1134 H1124 0.950 . S
C1134 C1135 1.386 . S
C1134 C1136 1.391 . S
C1135 C1134 1.386 . S
C1135 C1139 1.393 . S
C1136 H1125 0.950 . S
C1136 C1134 1.391 . S
C1136 C1137 1.400 . S
C1137 C1131 1.491 . S
C1137 C1136 1.400 . S
C1137 C1138 1.398 . S
C1138 H1126 0.950 . S
C1138 C1137 1.398 . S
C1138 C1139 1.391 . S
C1139 H1127 0.950 . S
C1139 C1135 1.393 . S
C1139 C1138 1.391 . S
H1140 C1148 0.950 . S
H1141 C1153 0.950 . S
H1142 C1150 0.950 . S
H1143 C1152 0.950 . S
H1144 C1154 0.950 . S
H1145 C1156 0.950 . S
H1146 C1158 0.950 . S
H1147 C1159 0.950 . S
C1148 H1140 0.950 . S
C1148 C1149 1.386 . S
C1148 C1150 1.391 . S
C1149 C1148 1.386 . S
C1149 C1153 1.393 . S
C1150 H1142 0.950 . S
C1150 C1148 1.391 . S
C1150 C1151 1.400 . S
C1151 C1150 1.400 . S
C1151 C1152 1.398 . S
C1151 C1157 1.491 . S
C1152 H1143 0.950 . S
C1152 C1151 1.398 . S
C1152 C1153 1.391 . S
C1153 H1141 0.950 . S
C1153 C1149 1.393 . S
C1153 C1152 1.391 . S
C1154 H1144 0.950 . S
C1154 C1155 1.386 . S
C1154 C1156 1.391 . S
C1155 C1154 1.386 . S
C1155 C1159 1.393 . S
C1156 H1145 0.950 . S
C1156 C1154 1.391 . S
C1156 C1157 1.400 . S
C1157 C1151 1.491 . S
C1157 C1156 1.400 . S
C1157 C1158 1.398 . S
C1158 H1146 0.950 . S
C1158 C1157 1.398 . S
C1158 C1159 1.391 . S
C1159 H1147 0.950 . S
C1159 C1155 1.393 . S
C1159 C1158 1.391 . S
H1160 C1168 0.950 . S
H1161 C1173 0.950 . S
H1162 C1170 0.950 . S
H1163 C1172 0.950 . S
H1164 C1174 0.950 . S
H1165 C1176 0.950 . S
H1166 C1178 0.950 . S
H1167 C1179 0.950 . S
C1168 H1160 0.950 . S
C1168 C1169 1.386 . S
C1168 C1170 1.391 . S
C1169 C1168 1.386 . S
C1169 C1173 1.393 . S
C1170 H1162 0.950 . S
C1170 C1168 1.391 . S
C1170 C1171 1.400 . S
C1171 C1170 1.400 . S
C1171 C1172 1.398 . S
C1171 C1177 1.491 . S
C1172 H1163 0.950 . S
C1172 C1171 1.398 . S
C1172 C1173 1.391 . S
C1173 H1161 0.950 . S
C1173 C1169 1.393 . S
C1173 C1172 1.391 . S
C1174 H1164 0.950 . S
C1174 C1175 1.386 . S
C1174 C1176 1.391 . S
C1175 C1174 1.386 . S
C1175 C1179 1.393 . S
C1176 H1165 0.950 . S
C1176 C1174 1.391 . S
C1176 C1177 1.400 . S
C1177 C1171 1.491 . S
C1177 C1176 1.400 . S
C1177 C1178 1.398 . S
C1178 H1166 0.950 . S
C1178 C1177 1.398 . S
C1178 C1179 1.391 . S
C1179 H1167 0.950 . S
C1179 C1175 1.393 . S
C1179 C1178 1.391 . S
H1180 C1188 0.950 . S
H1181 C1193 0.950 . S
H1182 C1190 0.950 . S
H1183 C1192 0.950 . S
H1184 C1194 0.950 . S
H1185 C1196 0.950 . S
H1186 C1198 0.950 . S
H1187 C1199 0.950 . S
C1188 H1180 0.950 . S
C1188 C1189 1.386 . S
C1188 C1190 1.391 . S
C1189 C1188 1.386 . S
C1189 C1193 1.393 . S
C1190 H1182 0.950 . S
C1190 C1188 1.391 . S
C1190 C1191 1.400 . S
C1191 C1190 1.400 . S
C1191 C1192 1.398 . S
C1191 C1197 1.491 . S
C1192 H1183 0.950 . S
C1192 C1191 1.398 . S
C1192 C1193 1.391 . S
C1193 H1181 0.950 . S
C1193 C1189 1.393 . S
C1193 C1192 1.391 . S
C1194 H1184 0.950 . S
C1194 C1195 1.386 . S
C1194 C1196 1.391 . S
C1195 C1194 1.386 . S
C1195 C1199 1.393 . S
C1196 H1185 0.950 . S
C1196 C1194 1.391 . S
C1196 C1197 1.400 . S
C1197 C1191 1.491 . S
C1197 C1196 1.400 . S
C1197 C1198 1.398 . S
C1198 H1186 0.950 . S
C1198 C1197 1.398 . S
C1198 C1199 1.391 . S
C1199 H1187 0.950 . S
C1199 C1195 1.393 . S
C1199 C1198 1.391 . S
C489 C9 1.067 . S
C495 C329 1.100 . S
C509 C49 1.062 . S
C515 C369 1.096 . S
C529 C89 1.100 . S
C535 C409 1.064 . S
C549 C449 1.084 . S
C555 C129 1.089 . S
C569 C169 1.063 . S
C575 C249 1.092 . S
C589 C289 1.064 . S
C595 C209 1.100 . S
C609 C419 4.333 . S
C615 C19 4.338 . S
C629 C459 4.330 . S
C635 C59 4.334 . S
C649 C99 4.330 . S
C655 C259 4.332 . S
C669 C299 4.332 . S
C675 C139 4.331 . S
C689 C339 4.338 . S
C695 C179 4.334 . S
C709 C219 4.337 . S
C715 C379 4.332 . S
C729 C295 1.453 . S
C735 C15 1.454 . S
C749 C335 1.455 . S
C755 C55 1.452 . S
C769 C375 1.448 . S
C775 C95 1.434 . S
C789 C135 1.454 . S
C795 C415 1.453 . S
C809 C175 1.453 . S
C815 C455 1.441 . S
C829 C215 1.452 . S
C835 C255 1.439 . S
C849 C18 0.403 . S
C855 C138 0.363 . S
C869 C58 0.359 . S
C875 C178 0.433 . S
C889 C98 0.426 . S
C895 C218 0.388 . S
C909 C378 0.398 . S
C915 C258 0.366 . S
C929 C298 0.378 . S
C935 C418 0.431 . S
C949 C458 0.373 . S
C955 C338 0.433 . S
C969 C290 4.667 . S
C975 C10 4.668 . S
C989 C330 4.669 1_556 S
C995 C50 4.669 . S
C1009 C90 4.670 1_554 S
C1015 C370 4.668 . S
C1029 C410 4.668 . S
C1035 C130 4.667 . S
C1049 C450 4.667 1_556 S
C1055 C170 4.670 . S
C1069 C210 4.669 1_554 S
C1075 C250 4.667 . S
C1089 C6 0.769 . S
C1095 C406 0.788 . S
C1109 C46 0.766 . S
C1115 C446 0.777 . S
C1129 C86 0.770 . S
C1135 C246 0.790 . S
C1149 C126 0.818 . S
C1155 C286 0.803 . S
C1169 C166 0.816 . S
C1175 C326 0.817 . S
C1189 C366 0.805 . S
C1195 C206 0.783 . S
