# Generated by pormake.
# Topology swf, (7)-cn, num edge types: 1
# Building blocks:
#     Node 0, Type 0, BuildingBlock: NUHQUE_clean_sbu_2, # of connection points: 7
#     Node 1, Type 0, BuildingBlock: NUHQUE_clean_sbu_2, # of connection points: 7
#     Node 2, Type 0, BuildingBlock: NUHQUE_clean_sbu_2, # of connection points: 7
#     Node 3, Type 0, BuildingBlock: NUHQUE_clean_sbu_2, # of connection points: 7
#     Node 4, Type 0, BuildingBlock: NUHQUE_clean_sbu_2, # of connection points: 7
#     Node 5, Type 0, BuildingBlock: NUHQUE_clean_sbu_2, # of connection points: 7
#     Node 6, Type 0, BuildingBlock: NUHQUE_clean_sbu_2, # of connection points: 7
#     Node 7, Type 0, BuildingBlock: NUHQUE_clean_sbu_2, # of connection points: 7
#     Node 8, Type 0, BuildingBlock: NUHQUE_clean_sbu_2, # of connection points: 7
#     Node 9, Type 0, BuildingBlock: NUHQUE_clean_sbu_2, # of connection points: 7
#     Node 10, Type 0, BuildingBlock: NUHQUE_clean_sbu_2, # of connection points: 7
#     Node 11, Type 0, BuildingBlock: NUHQUE_clean_sbu_2, # of connection points: 7
#     Edge 12, Type (0, 0), BuildingBlock: AJUNOK_clean_linker_0, # of connection points: 2
#     Edge 13, Type (0, 0), BuildingBlock: AJUNOK_clean_linker_0, # of connection points: 2
#     Edge 14, Type (0, 0), BuildingBlock: AJUNOK_clean_linker_0, # of connection points: 2
#     Edge 15, Type (0, 0), BuildingBlock: AJUNOK_clean_linker_0, # of connection points: 2
#     Edge 16, Type (0, 0), BuildingBlock: AJUNOK_clean_linker_0, # of connection points: 2
#     Edge 17, Type (0, 0), BuildingBlock: AJUNOK_clean_linker_0, # of connection points: 2
#     Edge 18, Type (0, 0), BuildingBlock: AJUNOK_clean_linker_0, # of connection points: 2
#     Edge 19, Type (0, 0), BuildingBlock: AJUNOK_clean_linker_0, # of connection points: 2
#     Edge 20, Type (0, 0), BuildingBlock: AJUNOK_clean_linker_0, # of connection points: 2
#     Edge 21, Type (0, 0), BuildingBlock: AJUNOK_clean_linker_0, # of connection points: 2
#     Edge 22, Type (0, 0), BuildingBlock: AJUNOK_clean_linker_0, # of connection points: 2
#     Edge 23, Type (0, 0), BuildingBlock: AJUNOK_clean_linker_0, # of connection points: 2
#     Edge 24, Type (0, 0), BuildingBlock: AJUNOK_clean_linker_0, # of connection points: 2
#     Edge 25, Type (0, 0), BuildingBlock: AJUNOK_clean_linker_0, # of connection points: 2
#     Edge 26, Type (0, 0), BuildingBlock: AJUNOK_clean_linker_0, # of connection points: 2
#     Edge 27, Type (0, 0), BuildingBlock: AJUNOK_clean_linker_0, # of connection points: 2
#     Edge 28, Type (0, 0), BuildingBlock: AJUNOK_clean_linker_0, # of connection points: 2
#     Edge 29, Type (0, 0), BuildingBlock: AJUNOK_clean_linker_0, # of connection points: 2
#     Edge 30, Type (0, 0), BuildingBlock: AJUNOK_clean_linker_0, # of connection points: 2
#     Edge 31, Type (0, 0), BuildingBlock: AJUNOK_clean_linker_0, # of connection points: 2
#     Edge 32, Type (0, 0), BuildingBlock: AJUNOK_clean_linker_0, # of connection points: 2
#     Edge 33, Type (0, 0), BuildingBlock: AJUNOK_clean_linker_0, # of connection points: 2
#     Edge 34, Type (0, 0), BuildingBlock: AJUNOK_clean_linker_0, # of connection points: 2
#     Edge 35, Type (0, 0), BuildingBlock: AJUNOK_clean_linker_0, # of connection points: 2
#     Edge 36, Type (0, 0), BuildingBlock: AJUNOK_clean_linker_0, # of connection points: 2
#     Edge 37, Type (0, 0), BuildingBlock: AJUNOK_clean_linker_0, # of connection points: 2
#     Edge 38, Type (0, 0), BuildingBlock: AJUNOK_clean_linker_0, # of connection points: 2
#     Edge 39, Type (0, 0), BuildingBlock: AJUNOK_clean_linker_0, # of connection points: 2
#     Edge 40, Type (0, 0), BuildingBlock: AJUNOK_clean_linker_0, # of connection points: 2
#     Edge 41, Type (0, 0), BuildingBlock: AJUNOK_clean_linker_0, # of connection points: 2
#     Edge 42, Type (0, 0), BuildingBlock: AJUNOK_clean_linker_0, # of connection points: 2
#     Edge 43, Type (0, 0), BuildingBlock: AJUNOK_clean_linker_0, # of connection points: 2
#     Edge 44, Type (0, 0), BuildingBlock: AJUNOK_clean_linker_0, # of connection points: 2
#     Edge 45, Type (0, 0), BuildingBlock: AJUNOK_clean_linker_0, # of connection points: 2
#     Edge 46, Type (0, 0), BuildingBlock: AJUNOK_clean_linker_0, # of connection points: 2
#     Edge 47, Type (0, 0), BuildingBlock: AJUNOK_clean_linker_0, # of connection points: 2
#     Edge 48, Type (0, 0), BuildingBlock: AJUNOK_clean_linker_0, # of connection points: 2
#     Edge 49, Type (0, 0), BuildingBlock: AJUNOK_clean_linker_0, # of connection points: 2
#     Edge 50, Type (0, 0), BuildingBlock: AJUNOK_clean_linker_0, # of connection points: 2
#     Edge 51, Type (0, 0), BuildingBlock: AJUNOK_clean_linker_0, # of connection points: 2
#     Edge 52, Type (0, 0), BuildingBlock: AJUNOK_clean_linker_0, # of connection points: 2
#     Edge 53, Type (0, 0), BuildingBlock: AJUNOK_clean_linker_0, # of connection points: 2
# Relax obj value: 0.283
# Max RMSD: 0.208
# Mean RMSD: 0.208
data_MOF--net-swf--node1-NUHQUE_clean_sbu_2--edge1-AJUNOK_clean_linker_0
_symmetry_space_group_name_H-M    P1
_symmetry_Int_Tables_number       1
_symmetry_cell_setting            triclinic
loop_
_symmetry_equiv_pos_as_xyz
'x, y, z'
_cell_length_a     54.281267
_cell_length_b     54.296276
_cell_length_c     16.313073
_cell_angle_alpha  90.023725
_cell_angle_beta   89.85072
_cell_angle_gamma 119.96938
loop_
_atom_site_label
_atom_site_type_symbol
_atom_site_fract_x
_atom_site_fract_y
_atom_site_fract_z
_atom_type_partial_charge
O0 O 0.52843 0.14817 0.96928 0.0
Tb1 Tb 0.52141 0.11067 1.03773 0.0
Eu2 Eu 0.47176 0.1002 0.13728 0.0
C3 C 0.54645 0.15985 0.90817 0.0
O4 O 0.54632 0.18046 0.86644 0.0
C5 C 0.46353 0.06097 0.96973 0.0
O6 O 0.43814 0.06838 0.22141 0.0
C7 C 0.46614 0.14482 0.10983 0.0
C8 C 0.43521 0.04285 0.22075 0.0
O9 O 0.45172 0.03785 0.17306 0.0
C10 C 0.53404 0.121 0.22304 0.0
C11 C 0.4698 0.17428 0.11639 0.0
C12 C 0.47112 0.18873 1.0431 0.0
C13 C 0.4715 0.21499 1.04167 0.0
C14 C 0.47113 0.22718 0.12077 0.0
C15 C 0.47092 0.21368 0.19804 0.0
C16 C 0.46955 0.1868 0.19245 0.0
O17 O 0.49019 0.07969 0.95179 0.0
O18 O 0.45176 0.06473 1.03669 0.0
O19 O 0.54769 0.09169 1.02441 0.0
O20 O 0.5103 0.07364 0.1066 0.0
C21 C 0.53204 0.07173 0.07879 0.0
O22 O 0.50607 0.10618 0.23235 0.0
O23 O 0.54437 0.13169 0.15023 0.0
O24 O 0.45116 0.12519 0.16481 0.0
O25 O 0.48474 0.14023 0.07061 0.0
H26 H 0.47061 0.17854 0.98546 0.0
H27 H 0.4717 0.24738 0.12225 0.0
H28 H 0.46758 0.175 0.2479 0.0
O29 O 0.4587 0.55643 1.00033 0.0
Tb30 Tb 0.44317 0.52196 0.08682 0.0
Eu31 Eu 0.37592 0.4648 0.12441 0.0
C32 C 0.44102 0.56166 0.95968 0.0
O33 O 0.41349 0.54468 0.96851 0.0
C34 C 0.42168 0.46315 0.98415 0.0
O35 O 0.37081 0.43097 0.21411 0.0
C36 C 0.32785 0.46177 0.08195 0.0
C37 C 0.39113 0.42448 0.218 0.0
O38 O 0.41206 0.43598 0.16467 0.0
C39 C 0.41004 0.52254 0.22919 0.0
C40 C 0.30101 0.46363 0.0867 0.0
C41 C 0.28781 0.46384 1.01241 0.0
C42 C 0.26114 0.46263 1.00884 0.0
C43 C 0.2483 0.46271 0.08708 0.0
C44 C 0.26145 0.4632 0.16534 0.0
C45 C 0.28777 0.46337 0.16185 0.0
O46 O 0.44136 0.48957 1.00203 0.0
O47 O 0.39579 0.45086 1.01852 0.0
O48 O 0.48478 0.54814 0.14047 0.0
O49 O 0.45709 0.50752 0.19216 0.0
C50 C 0.48174 0.53056 0.19906 0.0
O51 O 0.39697 0.49463 0.2349 0.0
O52 O 0.41581 0.53281 0.15477 0.0
O53 O 0.32936 0.44124 0.12038 0.0
O54 O 0.35291 0.48444 0.06804 0.0
H55 H 0.29876 0.46486 0.9558 0.0
H56 H 0.2282 0.46235 0.08698 0.0
H57 H 0.29793 0.46276 0.21828 0.0
O58 O 0.87949 0.38064 0.08444 0.0
Tb59 Tb 0.92189 0.4175 0.06696 0.0
Eu60 Eu 0.91711 0.37203 0.1219 0.0
C61 C 0.85747 0.37732 1.04233 0.0
O62 O 0.83205 0.35576 0.05779 0.0
C63 C 0.95331 0.40504 0.94494 0.0
O64 O 0.95271 0.36938 0.18549 0.0
C65 C 0.87202 0.32108 0.10805 0.0
C66 C 0.95496 0.37152 0.2657 0.0
O67 O 0.93334 0.36929 0.30816 0.0
C68 C 0.90399 0.42174 0.22395 0.0
C69 C 0.84583 0.29182 0.10483 0.0
C70 C 0.83309 0.27931 1.02918 0.0
C71 C 0.80674 0.25344 1.02368 0.0
C72 C 0.79363 0.23956 0.10075 0.0
C73 C 0.80624 0.25153 0.17987 0.0
C74 C 0.83226 0.27772 0.17842 0.0
O75 O 0.9386 0.4183 0.94723 0.0
O76 O 0.94951 0.3872 1.00732 0.0
O77 O 0.95563 0.45642 0.11758 0.0
O78 O 0.95534 0.41707 0.13999 0.0
C79 C 0.96789 0.4442 0.15556 0.0
O80 O 0.90944 0.39996 0.22471 0.0
O81 O 0.90338 0.43258 0.15266 0.0
O82 O 0.88722 0.33071 0.17497 0.0
O83 O 0.88271 0.33828 1.04473 0.0
H84 H 0.84408 0.29006 0.9734 0.0
H85 H 0.77373 0.21964 0.09897 0.0
H86 H 0.84176 0.28796 0.23592 0.0
O87 O 0.46953 0.89735 0.96694 0.0
Tb88 Tb 0.50619 0.91369 1.04388 0.0
Eu89 Eu 0.55873 0.91495 0.12632 0.0
C90 C 0.46365 0.87646 0.91629 0.0
O91 O 0.48051 0.86562 0.91253 0.0
C92 C 0.56151 0.94471 0.9471 0.0
O93 O 0.59635 0.94823 0.1974 0.0
C94 C 0.56184 0.86912 0.09588 0.0
C95 C 0.59257 0.96688 0.23884 0.0
O96 O 0.56725 0.96428 0.24141 0.0
C97 C 0.49747 0.89449 0.21963 0.0
C98 C 0.55777 0.83954 0.10213 0.0
C99 C 0.55682 0.82525 1.02898 0.0
C100 C 0.55581 0.79867 1.02757 0.0
C101 C 0.55529 0.78613 0.10689 0.0
C102 C 0.55647 0.80019 0.18404 0.0
C103 C 0.55724 0.82677 0.17818 0.0
O104 O 0.53531 0.9232 0.94087 0.0
O105 O 0.57494 0.94755 1.01749 0.0
O106 O 0.49646 0.94722 0.06525 0.0
O107 O 0.53645 0.95272 0.10453 0.0
C108 C 0.52043 0.96406 0.10125 0.0
O109 O 0.52554 0.90909 0.22636 0.0
O110 O 0.48672 0.88509 0.14673 0.0
O111 O 0.57838 0.88891 0.14839 0.0
O112 O 0.54294 0.87416 0.06054 0.0
H113 H 0.55697 0.83534 0.97155 0.0
H114 H 0.55491 0.76602 0.10871 0.0
H115 H 0.55719 0.83777 0.23343 0.0
O116 O 0.64043 0.50518 0.07842 0.0
Tb117 Tb 0.60048 0.50583 0.06881 0.0
Eu118 Eu 0.64419 0.54654 0.13213 0.0
C119 C 0.64619 0.48867 1.03337 0.0
O120 O 0.66918 0.48715 1.0477 0.0
C121 C 0.60812 0.55264 0.96606 0.0
O122 O 0.64251 0.58117 0.20317 0.0
C123 C 0.69867 0.56287 0.11424 0.0
C124 C 0.63846 0.5793 0.28266 0.0
O125 O 0.63901 0.55857 0.32261 0.0
C126 C 0.59951 0.47863 0.21513 0.0
C127 C 0.72249 0.55593 0.11716 0.0
C128 C 0.73504 0.55401 1.04313 0.0
C129 C 0.75998 0.55184 1.0408 0.0
C130 C 0.7723 0.55123 0.11928 0.0
C131 C 0.75957 0.55205 0.19695 0.0
C132 C 0.73497 0.55496 0.1925 0.0
O133 O 0.59723 0.52506 0.95748 0.0
O134 O 0.62549 0.56502 1.03051 0.0
O135 O 0.56019 0.49433 0.12666 0.0
O136 O 0.59726 0.53412 0.1577 0.0
C137 C 0.57042 0.51693 0.17319 0.0
O138 O 0.61947 0.50637 0.22483 0.0
O139 O 0.58932 0.46979 0.14134 0.0
O140 O 0.68708 0.56482 0.18299 0.0
O141 O 0.68055 0.55366 1.05294 0.0
H142 H 0.72588 0.55557 0.98577 0.0
H143 H 0.79133 0.54952 0.11993 0.0
H144 H 0.72592 0.55756 0.24879 0.0
O145 O 0.12074 0.57192 0.97207 0.0
Tb146 Tb 0.09732 0.58086 0.06258 0.0
Eu147 Eu 0.10449 0.64536 0.12332 0.0
C148 C 0.14539 0.59098 0.9415 0.0
O149 O 0.15622 0.61805 0.95896 0.0
C150 C 0.05818 0.60427 0.97828 0.0
O151 O 0.07567 0.64967 0.21424 0.0
C152 C 0.15124 0.69298 0.0912 0.0
C153 C 0.04864 0.62991 0.21439 0.0
O154 O 0.03927 0.61068 0.15614 0.0
C155 C 0.12424 0.60666 0.22076 0.0
C156 C 0.18042 0.71869 0.09866 0.0
C157 C 0.19492 0.7317 1.02559 0.0
C158 C 0.22176 0.75675 1.02419 0.0
C159 C 0.23404 0.76919 0.10309 0.0
C160 C 0.22017 0.75608 0.18028 0.0
C161 C 0.19302 0.73096 0.17479 0.0
O162 O 0.06495 0.58418 0.98926 0.0
O163 O 0.07204 0.62939 1.01587 0.0
O164 O 0.08305 0.53674 0.09105 0.0
O165 O 0.06867 0.55952 0.16452 0.0
C166 C 0.06833 0.53556 0.15544 0.0
O167 O 0.10919 0.61947 0.22703 0.0
O168 O 0.13197 0.60428 0.14659 0.0
O169 O 0.12951 0.69175 0.13102 0.0
O170 O 0.14762 0.66789 0.07021 0.0
H171 H 0.18445 0.72239 0.96802 0.0
H172 H 0.25452 0.78849 0.10444 0.0
H173 H 0.18117 0.72105 0.23022 0.0
O174 O 0.91561 0.46959 0.76218 0.0
Tb175 Tb 0.94311 0.50941 0.70227 0.0
Eu176 Eu 0.92 0.55237 0.59634 0.0
C177 C 0.89295 0.4655 0.80258 0.0
O178 O 0.88581 0.48531 0.80207 0.0
C179 C 0.95501 0.56507 0.7652 0.0
O180 O 0.94766 0.5808 0.49429 0.0
C181 C 0.87517 0.55757 0.62444 0.0
C182 C 0.97528 0.5907 0.49699 0.0
O183 O 0.98598 0.58397 0.55937 0.0
C184 C 0.91891 0.4941 0.51736 0.0
C185 C 0.84564 0.55377 0.61959 0.0
C186 C 0.83162 0.55258 0.69362 0.0
C187 C 0.8056 0.55267 0.69695 0.0
C188 C 0.79255 0.55208 0.61875 0.0
C189 C 0.80588 0.55271 0.54046 0.0
C190 C 0.83267 0.55383 0.54436 0.0
O191 O 0.93517 0.5384 0.77204 0.0
O192 O 0.9555 0.57653 0.69359 0.0
O193 O 0.97555 0.50719 0.77393 0.0
O194 O 0.98799 0.53991 0.68407 0.0
C195 C 0.99678 0.52992 0.74248 0.0
O196 O 0.90881 0.51205 0.51891 0.0
O197 O 0.93492 0.49313 0.57677 0.0
O198 O 0.89416 0.5718 0.56721 0.0
O199 O 0.88055 0.54 0.6663 0.0
H200 H 0.84162 0.55191 0.75031 0.0
H201 H 0.77264 0.55211 0.61905 0.0
H202 H 0.8436 0.55443 0.48815 0.0
O203 O 0.38586 0.87993 0.63049 0.0
Tb204 Tb 0.42336 0.92217 0.64981 0.0
Eu205 Eu 0.37861 0.91601 0.58934 0.0
C206 C 0.38161 0.85677 0.66784 0.0
O207 O 0.35961 0.83212 0.64842 0.0
C208 C 0.4104 0.95397 0.76521 0.0
O209 O 0.37707 0.94988 0.51387 0.0
C210 C 0.32523 0.87477 0.60629 0.0
C211 C 0.37539 0.94715 0.43394 0.0
O212 O 0.37046 0.9229 0.40187 0.0
C213 C 0.42983 0.90162 0.49978 0.0
C214 C 0.3018 0.84397 0.60304 0.0
C215 C 0.28943 0.82974 0.6772 0.0
C216 C 0.26491 0.80242 0.68033 0.0
C217 C 0.25291 0.78893 0.6022 0.0
C218 C 0.26488 0.80268 0.524 0.0
C219 C 0.28947 0.83023 0.52792 0.0
O220 O 0.42223 0.93799 0.76873 0.0
O221 O 0.39357 0.95012 0.70008 0.0
O222 O 0.46214 0.96112 0.62062 0.0
O223 O 0.42281 0.95473 0.57212 0.0
C224 C 0.45001 0.97213 0.57633 0.0
O225 O 0.40685 0.90526 0.49316 0.0
O226 O 0.4414 0.90476 0.57219 0.0
O227 O 0.33602 0.88902 0.53822 0.0
O228 O 0.34356 0.88393 0.66695 0.0
H229 H 0.29907 0.84051 0.73409 0.0
H230 H 0.23376 0.76835 0.60245 0.0
H231 H 0.29925 0.84138 0.47154 0.0
O232 O 0.55797 0.44555 0.73357 0.0
Tb233 Tb 0.52155 0.42534 0.65539 0.0
Eu234 Eu 0.46746 0.37207 0.58439 0.0
C235 C 0.56447 0.42985 0.77945 0.0
O236 O 0.54892 0.40203 0.77473 0.0
C237 C 0.46578 0.40721 0.75124 0.0
O238 O 0.43662 0.36768 0.48492 0.0
C239 C 0.46441 0.32397 0.62686 0.0
C240 C 0.41776 0.37589 0.49638 0.0
O241 O 0.41341 0.38199 0.57089 0.0
C242 C 0.52875 0.40638 0.49187 0.0
C243 C 0.4675 0.29783 0.621 0.0
C244 C 0.46878 0.28508 0.69497 0.0
C245 C 0.46907 0.25917 0.69819 0.0
C246 C 0.46979 0.24677 0.61989 0.0
C247 C 0.46897 0.25932 0.54161 0.0
C248 C 0.46753 0.28485 0.54561 0.0
O249 O 0.49267 0.4143 0.76016 0.0
O250 O 0.45205 0.39245 0.68496 0.0
O251 O 0.53632 0.46757 0.60752 0.0
O252 O 0.49449 0.4343 0.578 0.0
C253 C 0.51322 0.46095 0.56688 0.0
O254 O 0.5011 0.39595 0.48332 0.0
O255 O 0.53819 0.40786 0.5666 0.0
O256 O 0.44449 0.32547 0.58495 0.0
O257 O 0.48629 0.34908 0.64524 0.0
H258 H 0.46942 0.29576 0.75173 0.0
H259 H 0.47006 0.22699 0.62014 0.0
H260 H 0.46686 0.29515 0.48953 0.0
O261 O 0.14157 0.5149 0.65158 0.0
Tb262 Tb 0.10235 0.51598 0.67079 0.0
Eu263 Eu 0.10334 0.46672 0.57719 0.0
C264 C 0.16587 0.53198 0.68806 0.0
O265 O 0.18832 0.52969 0.67152 0.0
C266 C 0.05251 0.45562 0.71203 0.0
O267 O 0.06598 0.43311 0.50662 0.0
C268 C 0.14372 0.45348 0.59462 0.0
C269 C 0.06493 0.43235 0.4261 0.0
O270 O 0.08732 0.45062 0.38396 0.0
C271 C 0.1076 0.52476 0.48789 0.0
C272 C 0.17415 0.45939 0.58991 0.0
C273 C 0.18858 0.46089 0.66354 0.0
C274 C 0.2155 0.4626 0.66529 0.0
C275 C 0.22801 0.46259 0.58629 0.0
C276 C 0.21404 0.4611 0.50894 0.0
C277 C 0.18731 0.46002 0.51419 0.0
O278 O 0.05933 0.48185 0.69597 0.0
O279 O 0.06939 0.44623 0.68372 0.0
O280 O 0.10173 0.5301 0.79459 0.0
O281 O 0.10845 0.5578 0.69607 0.0
C282 C 0.10319 0.55404 0.77442 0.0
O283 O 0.11683 0.50605 0.48883 0.0
O284 O 0.09401 0.52649 0.55175 0.0
O285 O 0.12822 0.44811 0.52797 0.0
O286 O 0.13635 0.46539 0.65258 0.0
H287 H 0.17799 0.45957 0.72112 0.0
H288 H 0.24843 0.46362 0.58494 0.0
H289 H 0.17637 0.45963 0.45845 0.0
O290 O 0.62724 0.11351 0.74585 0.0
Tb291 Tb 0.59171 0.09279 0.66087 0.0
Eu292 Eu 0.64646 0.09366 0.58135 0.0
C293 C 0.62962 0.12843 0.81185 0.0
O294 O 0.65315 0.13831 0.85467 0.0
C295 C 0.6039 0.04391 0.71338 0.0
O296 O 0.65091 0.0624 0.50161 0.0
C297 C 0.69567 0.13905 0.6125 0.0
C298 C 0.65701 0.06771 0.42344 0.0
O299 O 0.66459 0.09323 0.39552 0.0
C300 C 0.60773 0.11575 0.4885 0.0
C301 C 0.722 0.16791 0.606 0.0
C302 C 0.7356 0.182 0.67908 0.0
C303 C 0.76157 0.20818 0.68009 0.0
C304 C 0.77348 0.2207 0.60066 0.0
C305 C 0.75987 0.20715 0.52382 0.0
C306 C 0.73438 0.18039 0.52984 0.0
O307 O 0.58461 0.05052 0.69162 0.0
O308 O 0.63074 0.06063 0.68934 0.0
O309 O 0.54942 0.08663 0.68329 0.0
O310 O 0.55938 0.0703 0.57327 0.0
C311 C 0.53995 0.07329 0.61233 0.0
O312 O 0.61958 0.09968 0.47993 0.0
O313 O 0.60683 0.12424 0.56303 0.0
O314 O 0.69271 0.11798 0.56584 0.0
O315 O 0.67138 0.13581 0.63989 0.0
H316 H 0.72563 0.17207 0.73676 0.0
H317 H 0.79326 0.24074 0.5985 0.0
H318 H 0.72417 0.1687 0.47462 0.0
O319 O 0.50327 0.63768 0.65493 0.0
Tb320 Tb 0.50312 0.59797 0.67504 0.0
Eu321 Eu 0.54599 0.6362 0.58952 0.0
C322 C 0.4891 0.64504 0.70475 0.0
O323 O 0.48828 0.66849 0.6921 0.0
C324 C 0.55514 0.60607 0.75957 0.0
O325 O 0.57897 0.63122 0.52073 0.0
C326 C 0.56394 0.69097 0.60556 0.0
C327 C 0.58022 0.63134 0.4405 0.0
O328 O 0.56293 0.63665 0.39771 0.0
C329 C 0.47955 0.59363 0.51023 0.0
C330 C 0.55775 0.71528 0.60437 0.0
C331 C 0.55666 0.72781 0.67933 0.0
C332 C 0.55432 0.75263 0.68372 0.0
C333 C 0.55408 0.76565 0.60616 0.0
C334 C 0.55482 0.75339 0.52751 0.0
C335 C 0.55655 0.72812 0.52992 0.0
O336 O 0.52934 0.6006 0.77947 0.0
O337 O 0.56501 0.61762 0.68593 0.0
O338 O 0.48323 0.55308 0.6592 0.0
O339 O 0.52223 0.58172 0.5909 0.0
C340 C 0.50192 0.55523 0.60368 0.0
O341 O 0.50733 0.61164 0.49762 0.0
O342 O 0.4703 0.58736 0.58619 0.0
O343 O 0.56489 0.67899 0.53641 0.0
O344 O 0.55482 0.673 0.66746 0.0
H345 H 0.55883 0.71854 0.73572 0.0
H346 H 0.5527 0.78485 0.60706 0.0
H347 H 0.55816 0.7189 0.47269 0.0
C348 C 0.39964 0.99237 0.24329 0.0
C349 C 0.41511 0.02004 0.2748 0.0
C350 C 0.38484 0.96902 0.29525 0.0
C351 C 0.38548 0.97249 0.38083 0.0
H352 H 0.39997 0.98862 0.17813 0.0
H353 H 0.37418 0.948 0.26818 0.0
S354 S 0.42204 0.04124 0.49287 0.0
N355 N 0.42912 0.05016 0.3953 0.0
N356 N 0.40165 1.00629 0.49423 0.0
C357 C 0.39962 1.00037 0.41274 0.0
C358 C 0.41443 0.02419 0.35932 0.0
C359 C 0.40937 0.39447 0.27806 0.0
C360 C 0.39312 0.40794 0.28727 0.0
C361 C 0.41564 0.38249 0.34523 0.0
C362 C 0.40622 0.3838 0.42476 0.0
H363 H 0.41816 0.39399 0.21875 0.0
H364 H 0.42912 0.37334 0.33501 0.0
S365 S 0.36152 0.41544 0.48094 0.0
N366 N 0.36646 0.42067 0.38115 0.0
N367 N 0.37823 0.3983 0.50773 0.0
C368 C 0.38875 0.39603 0.43416 0.0
C369 C 0.3822 0.40806 0.36538 0.0
C370 C 1.01192 0.40227 0.42969 0.0
C371 C 0.03744 0.41356 0.38457 0.0
C372 C 0.9854 0.38733 0.39117 0.0
C373 C 0.98316 0.38277 0.30589 0.0
H374 H 1.0123 0.406 0.49504 0.0
H375 H 0.9665 0.38025 0.4285 0.0
S376 S 0.04362 0.40452 0.1613 0.0
N377 N 0.05885 0.41689 0.25099 0.0
N378 N 1.00903 0.38831 0.17862 0.0
C379 C 1.00853 0.39237 0.26068 0.0
C380 C 0.03562 0.40793 0.29994 0.0
C381 C 0.62675 0.9918 0.35156 0.0
C382 C 0.61633 0.99269 0.27376 0.0
C383 C 0.64232 0.0168 0.39737 0.0
C384 C 0.64789 0.04338 0.36662 0.0
H385 H 0.62094 0.97153 0.37974 0.0
H386 H 0.64838 0.01501 0.45935 0.0
S387 S 0.62755 0.05672 0.16136 0.0
N388 N 0.61445 0.02198 0.16467 0.0
N389 N 0.64402 0.06904 0.2495 0.0
C390 C 0.63957 0.04462 0.28578 0.0
C391 C 0.62357 0.01917 0.23975 0.0
C392 C 0.62133 0.5928 0.40748 0.0
C393 C 0.62776 0.59655 0.32331 0.0
C394 C 0.60701 0.60518 0.44526 0.0
C395 C 0.59823 0.62155 0.40022 0.0
H396 H 0.62647 0.57937 0.44421 0.0
H397 H 0.60173 0.60079 0.50969 0.0
S398 S 0.6124 0.64044 0.18001 0.0
N399 N 0.62658 0.62022 0.19748 0.0
N400 N 0.59885 0.64272 0.2685 0.0
C401 C 0.60563 0.62661 0.31692 0.0
C402 C 0.62069 0.6144 0.27856 0.0
C403 C 0.9825 0.59903 0.3463 0.0
C404 C 0.99369 0.60557 0.42598 0.0
C405 C 1.00046 0.6086 0.27764 0.0
C406 C 0.03016 0.62544 0.28618 0.0
H407 H 0.95993 0.585 0.33686 0.0
H408 H 0.99106 0.60171 0.2175 0.0
S409 S 0.06954 0.65163 0.48182 0.0
N410 N 0.03591 0.63212 0.50976 0.0
N411 N 0.06964 0.65049 0.38068 0.0
C412 C 0.04139 0.6339 0.36542 0.0
C413 C 0.02313 0.6238 0.43538 0.0
C414 C 0.61257 0.01304 0.81955 0.0
C415 C 0.59408 0.01719 0.76725 0.0
C416 C 0.60239 0.9896 0.87573 0.0
C417 C 0.57319 0.96845 0.8817 0.0
H418 H 0.63503 0.02864 0.81953 0.0
H419 H 0.61757 0.98834 0.91589 0.0
S420 S 0.51565 0.96817 0.75688 0.0
N421 N 0.54473 0.99683 0.7253 0.0
N422 N 0.52622 0.95366 0.82716 0.0
C423 C 0.55475 0.97198 0.82784 0.0
C424 C 0.56495 0.9959 0.77206 0.0
C425 C 0.59062 0.5887 0.9433 0.0
C426 C 0.59736 0.56844 0.91115 0.0
C427 C 0.57721 0.6008 0.89522 0.0
C428 C 0.57062 0.59418 0.81114 0.0
H429 H 0.59474 0.59451 1.0074 0.0
H430 H 0.57196 0.6155 0.92442 0.0
S431 S 0.58345 0.54254 0.69564 0.0
N432 N 0.59537 0.54219 0.7885 0.0
N433 N 0.57211 0.56566 0.69888 0.0
C434 C 0.57777 0.57444 0.77805 0.0
C435 C 0.59051 0.56148 0.82745 0.0
C436 C 1.00693 0.56981 0.93659 0.0
C437 C 0.03187 0.59649 0.92586 0.0
C438 C 0.98226 0.56077 0.88759 0.0
C439 C 0.98105 0.57736 0.82236 0.0
H440 H 1.00644 0.55548 0.98359 0.0
H441 H 0.96419 0.5399 0.89948 0.0
S442 S 0.04016 0.64961 0.76859 0.0
N443 N 0.05303 0.6401 0.84644 0.0
N444 N 1.00766 0.62286 0.75257 0.0
C445 C 1.0057 0.60444 0.81188 0.0
C446 C 0.03068 0.61397 0.86358 0.0
C447 C 0.46316 0.01922 0.89562 0.0
C448 C 0.4483 0.0334 0.91884 0.0
C449 C 0.45026 0.99337 0.85027 0.0
C450 C 0.4218 0.98024 0.82172 0.0
H451 H 0.48517 0.02805 0.91372 0.0
H452 H 0.4633 0.9841 0.83483 0.0
S453 S 0.37285 1.00807 0.86469 0.0
N454 N 0.40259 0.0312 0.91104 0.0
N455 N 0.37918 0.98419 0.82168 0.0
C456 C 0.40664 0.99424 0.84391 0.0
C457 C 0.41954 0.02016 0.8932 0.0
C458 C 0.47007 0.44012 0.87017 0.0
C459 C 0.45254 0.41912 0.81255 0.0
C460 C 0.45973 0.45358 0.92392 0.0
C461 C 0.43089 0.44682 0.92562 0.0
H462 H 0.4925 0.4469 0.87304 0.0
H463 H 0.4748 0.46963 0.96523 0.0
S464 S 0.37521 0.39339 0.78827 0.0
N465 N 0.40414 0.39255 0.7611 0.0
N466 N 0.38479 0.417 0.86296 0.0
C467 C 0.41283 0.42549 0.86948 0.0
C468 C 0.42355 0.41204 0.81317 0.0
C469 C 0.02481 0.42247 0.83498 0.0
C470 C 0.02555 0.43794 0.76402 0.0
C471 C 1.00116 0.41071 0.89092 0.0
C472 C 0.97678 0.41364 0.87922 0.0
H473 H 0.04324 0.42061 0.84978 0.0
H474 H 1.00259 0.40027 0.94576 0.0
S475 S 0.96619 0.44889 0.69783 0.0
N476 N 0.99818 0.45316 0.683 0.0
N477 N 0.95462 0.43132 0.78499 0.0
C478 C 0.97689 0.42789 0.80637 0.0
C479 C 1.00084 0.43988 0.75016 0.0
C480 C 0.51307 1.00076 0.16268 0.0
C481 C 0.53017 0.99376 0.11554 0.0
C482 C 0.51601 0.0276 0.15624 0.0
C483 C 0.53558 0.04772 0.10072 0.0
H484 H 0.49602 0.9848 0.20008 0.0
H485 H 0.5012 0.03167 0.18998 0.0
S486 S 0.58757 0.0403 0.97175 0.0
N487 N 0.56944 0.00941 1.01931 0.0
N488 N 0.57462 0.06019 1.0057 0.0
C489 C 0.55462 0.04184 0.05914 0.0
C490 C 0.55192 0.01456 0.06679 0.0
C491 C 0.53296 0.55547 0.22525 0.0
C492 C 0.50599 0.53207 0.24258 0.0
C493 C 0.55621 0.55143 0.21452 0.0
C494 C 0.55272 0.5242 0.22305 0.0
H495 H 0.53514 0.57559 0.20622 0.0
H496 H 0.5754 0.56845 0.18735 0.0
S497 S 0.49045 0.46063 0.30998 0.0
N498 N 0.47992 0.48424 0.29934 0.0
N499 N 0.52389 0.47661 0.27858 0.0
C500 C 0.52786 0.50271 0.25948 0.0
C501 C 0.50427 0.50685 0.27076 0.0
C502 C 0.04488 0.48355 0.16448 0.0
C503 C 0.0482 0.50911 0.19617 0.0
C504 C 0.01812 0.4591 0.16486 0.0
C505 C 0.99481 0.46021 0.19738 0.0
H506 H 0.06161 0.48344 0.12837 0.0
H507 H 0.01492 0.44117 0.12787 0.0
S508 S 0.99592 0.51799 0.3199 0.0
N509 N 0.02886 0.53117 0.28601 0.0
N510 N 0.97821 0.48504 0.28515 0.0
C511 C 0.9994 0.48349 0.24518 0.0
C512 C 0.02658 0.50826 0.24538 0.0
C513 C 0.03264 0.53037 0.83712 0.0
C514 C 0.02587 0.54362 0.77423 0.0
C515 C 0.06099 0.53998 0.85734 0.0
C516 C 0.08294 0.56152 0.81025 0.0
H517 H 0.01621 0.51129 0.86652 0.0
H518 H 0.06542 0.52704 0.89862 0.0
S519 S 0.0758 0.61155 0.67227 0.0
N520 N 0.04281 0.58598 0.68953 0.0
N521 N 0.09635 0.60325 0.72627 0.0
C522 C 0.0763 0.57904 0.76327 0.0
C523 C 0.04749 0.56956 0.74285 0.0
C524 C 0.46537 0.01876 0.63578 0.0
C525 C 0.46299 1.00269 0.56571 0.0
C526 C 0.48903 0.04577 0.64664 0.0
C527 C 0.51025 0.057 0.58638 0.0
H528 H 0.45108 0.00897 0.68675 0.0
H529 H 0.49263 0.05564 0.70648 0.0
S530 S 0.50668 0.02809 0.3781 0.0
N531 N 0.47861 1.00286 0.4265 0.0
N532 N 0.5223 0.05473 0.44356 0.0
C533 C 0.50436 0.04388 0.50874 0.0
C534 C 0.48084 0.01604 0.49916 0.0
C535 C 0.52637 0.53345 0.53213 0.0
C536 C 0.50127 0.53064 0.56564 0.0
C537 C 0.52901 0.50944 0.51995 0.0
C538 C 0.50643 0.48235 0.53978 0.0
H539 H 0.545 0.55424 0.52367 0.0
H540 H 0.54968 0.51236 0.50378 0.0
S541 S 0.43368 0.46366 0.60434 0.0
N542 N 0.45156 0.49874 0.6005 0.0
N543 N 0.45632 0.45345 0.57502 0.0
C544 C 0.47979 0.47905 0.55935 0.0
C545 C 0.47728 0.50345 0.5735 0.0
C546 C 0.57615 0.11613 0.27385 0.0
C547 C 0.55382 0.1218 0.29087 0.0
C548 C 0.59351 0.11445 0.33669 0.0
C549 C 0.59016 0.1192 0.42029 0.0
H550 H 0.57966 0.11191 0.21132 0.0
H551 H 0.60964 0.10924 0.3194 0.0
S552 S 0.53503 0.13524 0.49851 0.0
N553 N 0.52928 0.13166 0.39873 0.0
N554 N 0.56237 0.13047 0.51486 0.0
C555 C 0.56823 0.12554 0.43759 0.0
C556 C 0.55001 0.12625 0.3739 0.0
C557 C 0.45017 0.56871 0.29055 0.0
C558 C 0.42604 0.54137 0.302 0.0
C559 C 0.46688 0.58565 0.35725 0.0
C560 C 0.46004 0.57661 0.43958 0.0
H561 H 0.45684 0.57688 0.22904 0.0
H562 H 0.48556 0.60595 0.34392 0.0
S563 S 0.39876 0.50701 0.50441 0.0
N564 N 0.3964 0.50634 0.4035 0.0
N565 N 0.4267 0.53799 0.52755 0.0
C566 C 0.43555 0.54957 0.45187 0.0
C567 C 0.41894 0.53211 0.38387 0.0
C568 C 0.899 0.46052 0.29945 0.0
C569 C 0.90452 0.4376 0.30198 0.0
C570 C 0.90281 0.47803 0.36875 0.0
C571 C 0.91273 0.47392 0.44473 0.0
H572 H 0.89219 0.4655 0.24256 0.0
H573 H 0.89868 0.49546 0.36177 0.0
S574 S 0.92954 0.41634 0.48638 0.0
N575 N 0.91972 0.41157 0.38938 0.0
N576 N 0.92692 0.44385 0.5177 0.0
C577 C 0.91773 0.45063 0.44847 0.0
C578 C 0.91363 0.43274 0.37814 0.0
C579 C 0.4716 0.89875 0.43797 0.0
C580 C 0.44496 0.89728 0.42654 0.0
C581 C 0.48787 0.8972 0.37201 0.0
C582 C 0.47838 0.89347 0.29017 0.0
H583 H 0.48058 0.90188 0.49885 0.0
H584 H 0.50833 0.89923 0.3855 0.0
S585 S 0.41028 0.88832 0.22411 0.0
N586 N 0.41017 0.892 0.32464 0.0
N587 N 0.44003 0.88841 0.20184 0.0
C588 C 0.45152 0.89139 0.27759 0.0
C589 C 0.43511 0.89345 0.34496 0.0
C590 C 0.54076 0.41657 0.34024 0.0
C591 C 0.54897 0.42341 0.42276 0.0
C592 C 0.55792 0.43368 0.27464 0.0
C593 C 0.58409 0.45914 0.28741 0.0
H594 H 0.52056 0.39792 0.32597 0.0
H595 H 0.54988 0.42725 0.21303 0.0
S596 S 0.6154 0.48748 0.49194 0.0
N597 N 0.58558 0.45781 0.51326 0.0
N598 N 0.61708 0.49011 0.39096 0.0
C599 C 0.59269 0.46618 0.36973 0.0
C600 C 0.57543 0.44839 0.43673 0.0
C601 C 0.12535 0.56258 0.27506 0.0
C602 C 0.12327 0.58727 0.28959 0.0
C603 C 0.12089 0.54264 0.3384 0.0
C604 C 0.11436 0.5465 0.41967 0.0
H605 H 0.1295 0.55806 0.21356 0.0
H606 H 0.12188 0.52375 0.323 0.0
S607 S 0.11112 0.60994 0.49283 0.0
N608 N 0.11707 0.61549 0.39363 0.0
N609 N 0.10944 0.57928 0.51137 0.0
C610 C 0.11378 0.57195 0.43523 0.0
C611 C 0.11805 0.5919 0.37097 0.0
C612 C 0.4206 0.85049 0.72201 0.0
C613 C 0.40021 0.85874 0.73428 0.0
C614 C 0.44046 0.85504 0.78317 0.0
C615 C 0.44029 0.86799 0.85774 0.0
H616 H 0.42183 0.84145 0.66394 0.0
H617 H 0.45669 0.84949 0.77054 0.0
S618 S 0.38811 0.88968 0.92149 0.0
N619 N 0.37886 0.87769 0.82704 0.0
N620 N 0.41599 0.88628 0.9429 0.0
C621 C 0.41883 0.87487 0.87172 0.0
C622 C 0.39878 0.87025 0.80948 0.0
C623 C 0.60353 0.47366 0.84147 0.0
C624 C 0.58727 0.44376 0.8406 0.0
C625 C 0.62326 0.48796 0.9033 0.0
C626 C 0.62746 0.47289 0.9659 0.0
H627 H 0.60062 0.48629 0.7952 0.0
H628 H 0.63508 0.511 0.90276 0.0
S629 S 0.59215 0.39485 0.99028 0.0
N630 N 0.57795 0.39959 0.90654 0.0
N631 N 0.6155 0.427 1.02289 0.0
C632 C 0.61252 0.44316 0.96453 0.0
C633 C 0.59223 0.42843 0.9017 0.0
C634 C 0.16088 0.53937 0.83467 0.0
C635 C 0.16707 0.55043 0.75499 0.0
C636 C 0.15684 0.55439 0.8978 0.0
C637 C 0.15911 0.58098 0.88307 0.0
H638 H 0.1573 0.51822 0.84702 0.0
H639 H 0.14985 0.5442 0.95711 0.0
S640 S 0.17922 0.62066 0.68687 0.0
N641 N 0.17865 0.59059 0.66582 0.0
N642 N 0.17136 0.61923 0.78537 0.0
C643 C 0.16832 0.59358 0.80556 0.0
C644 C 0.17208 0.57804 0.74084 0.0
C645 C 0.59015 0.13786 0.77941 0.0
C646 C 0.60746 0.13494 0.83781 0.0
C647 C 0.56987 0.1453 0.80291 0.0
C648 C 0.56661 0.15043 0.88552 0.0
H649 H 0.59293 0.13537 0.7149 0.0
H650 H 0.55691 0.1474 0.75606 0.0
S651 S 0.60991 0.15033 0.06035 0.0
N652 N 0.6215 0.13998 0.98128 0.0
N653 N 0.58467 0.15579 1.02399 0.0
C654 C 0.58463 0.14889 0.94395 0.0
C655 C 0.60484 0.14078 0.92044 0.0
C656 C 0.44724 0.60524 0.77186 0.0
C657 C 0.47552 0.62738 0.77638 0.0
C658 C 0.43565 0.58462 0.83375 0.0
C659 C 0.45228 0.58543 0.90089 0.0
H660 H 0.43447 0.60314 0.71856 0.0
H661 H 0.41405 0.56723 0.82684 0.0
S662 S 0.52691 0.64113 0.94283 0.0
N663 N 0.51929 0.65045 0.85428 0.0
N664 N 0.49782 0.61177 0.97102 0.0
C665 C 0.48027 0.6084 0.90742 0.0
C666 C 0.49186 0.62939 0.84479 0.0
C667 C 0.87515 0.39635 0.90443 0.0
C668 C 0.86168 0.39721 0.97671 0.0
C669 C 0.88352 0.41774 0.8456 0.0
C670 C 0.87882 0.44075 0.8577 0.0
H671 H 0.88021 0.37961 0.8948 0.0
H672 H 0.89477 0.41681 0.79182 0.0
S673 S 0.84239 0.45115 1.03612 0.0
N674 N 0.8423 0.4213 0.0564 0.0
N675 N 0.85813 0.46196 0.94597 0.0
C676 C 0.86386 0.44088 0.92819 0.0
C677 C 0.85531 0.41896 0.98796 0.0
C678 C 0.45529 0.23943 0.30531 0.0
C679 C 0.47147 0.22628 0.28527 0.0
C680 C 0.45422 0.24917 0.38656 0.0
C681 C 0.46932 0.24674 0.45491 0.0
H682 H 0.44269 0.24177 0.2579 0.0
H683 H 0.44088 0.25851 0.39571 0.0
S684 S 0.51733 0.21642 0.43701 0.0
N685 N 0.50467 0.21325 0.34331 0.0
N686 N 0.50249 0.23104 0.49222 0.0
C687 C 0.4859 0.23397 0.4354 0.0
C688 C 0.48704 0.22408 0.35264 0.0
C689 C 0.25528 0.47805 0.4004 0.0
C690 C 0.2262 0.46054 0.42179 0.0
C691 C 0.26601 0.47913 0.31896 0.0
C692 C 0.24858 0.46293 0.25182 0.0
H693 H 0.27004 0.4916 0.44687 0.0
H694 H 0.2885 0.49326 0.30849 0.0
S695 S 0.17137 0.41088 0.27358 0.0
N696 N 0.18066 0.42444 0.36649 0.0
N697 N 0.20044 0.42714 0.21691 0.0
C698 C 0.2196 0.445 0.2726 0.0
C699 C 0.20867 0.44363 0.35563 0.0
C700 C 0.80066 0.23147 0.41498 0.0
C701 C 0.77156 0.21937 0.43633 0.0
C702 C 0.81108 0.2406 0.33324 0.0
C703 C 0.79336 0.23852 0.26587 0.0
H704 H 0.81567 0.23347 0.46173 0.0
H705 H 0.83365 0.24939 0.32286 0.0
S706 S 0.7156 0.21061 0.28713 0.0
N707 N 0.72534 0.20747 0.38058 0.0
N708 N 0.74471 0.22417 0.23039 0.0
C709 C 0.76426 0.22668 0.28649 0.0
C710 C 0.75359 0.21741 0.36983 0.0
C711 C 0.53999 0.75913 0.29259 0.0
C712 C 0.55699 0.78828 0.27146 0.0
C713 C 0.53894 0.74852 0.37405 0.0
C714 C 0.55463 0.76615 0.44146 0.0
H715 H 0.52686 0.74419 0.24585 0.0
H716 H 0.52532 0.72594 0.3843 0.0
S717 S 0.60523 0.84368 0.42075 0.0
N718 N 0.5921 0.83418 0.3275 0.0
N719 N 0.58935 0.81457 0.47717 0.0
C720 C 0.57201 0.79522 0.42107 0.0
C721 C 0.57338 0.80603 0.33799 0.0
C722 C 0.81107 0.56772 0.38555 0.0
C723 C 0.79326 0.55264 0.4537 0.0
C724 C 0.80059 0.56684 0.30412 0.0
C725 C 0.77133 0.5509 0.28381 0.0
H726 H 0.83373 0.58092 0.395 0.0
H727 H 0.81571 0.57944 0.25687 0.0
S728 S 0.71492 0.50536 0.4349 0.0
N729 N 0.7442 0.51982 0.49053 0.0
N730 N 0.72481 0.51807 0.34123 0.0
C731 C 0.75327 0.53538 0.35095 0.0
C732 C 0.76398 0.5363 0.43387 0.0
C733 C 0.24505 0.79697 0.28819 0.0
C734 C 0.23267 0.76784 0.26737 0.0
C735 C 0.25443 0.80749 0.36964 0.0
C736 C 0.25254 0.78986 0.43727 0.0
H737 H 0.24695 0.81194 0.24132 0.0
H738 H 0.26303 0.83002 0.37947 0.0
S739 S 0.22385 0.7119 0.417 0.0
N740 N 0.22046 0.72161 0.32371 0.0
N741 N 0.23795 0.7411 0.47308 0.0
C742 C 0.24047 0.76069 0.41694 0.0
C743 C 0.23079 0.74993 0.33399 0.0
C744 C 0.57031 0.7933 0.79212 0.0
C745 C 0.55331 0.76428 0.77077 0.0
C746 C 0.57157 0.80358 0.87393 0.0
C747 C 0.5558 0.78581 0.9414 0.0
H748 H 0.58345 0.80834 0.7454 0.0
H749 H 0.58552 0.82609 0.88426 0.0
S750 S 0.50627 0.70802 0.92022 0.0
N751 N 0.51917 0.71794 0.82668 0.0
N752 N 0.52161 0.73707 0.97695 0.0
C753 C 0.53858 0.75674 0.92076 0.0
C754 C 0.53728 0.7462 0.83736 0.0
C755 C 0.76472 0.53601 0.8063 0.0
C756 C 0.79363 0.55363 0.78375 0.0
C757 C 0.75451 0.535 0.88833 0.0
C758 C 0.77239 0.5513 0.95463 0.0
H759 H 0.74974 0.52235 0.7604 0.0
H760 H 0.73206 0.52098 0.89997 0.0
S761 S 0.84933 0.6035 0.92961 0.0
N762 N 0.83949 0.58989 0.83692 0.0
N763 N 0.82062 0.58719 0.98772 0.0
C764 C 0.80118 0.56929 0.93268 0.0
C765 C 0.81156 0.57066 0.84911 0.0
C766 C 0.25341 0.80738 0.83297 0.0
C767 C 0.25288 0.78976 0.76703 0.0
C768 C 0.24487 0.79732 0.91519 0.0
C769 C 0.23501 0.76876 0.93821 0.0
H770 H 0.26029 0.82949 0.82099 0.0
H771 H 0.24527 0.81203 0.96071 0.0
S772 S 0.23065 0.71341 0.79327 0.0
N773 N 0.24232 0.74191 0.7347 0.0
N774 N 0.2266 0.72319 0.8859 0.0
C775 C 0.23466 0.75095 0.87324 0.0
C776 C 0.24331 0.76122 0.78947 0.0
C777 C 0.48674 0.23583 0.80694 0.0
C778 C 0.46854 0.24647 0.78497 0.0
C779 C 0.48813 0.22683 0.88883 0.0
C780 C 0.47158 0.22785 0.95568 0.0
H781 H 0.50058 0.2349 0.76066 0.0
H782 H 0.50267 0.21901 0.89985 0.0
S783 S 0.41812 0.25107 0.9324 0.0
N784 N 0.43172 0.25515 0.8394 0.0
N785 N 0.43494 0.23916 0.98984 0.0
C786 C 0.45305 0.23807 0.93433 0.0
C787 C 0.45138 0.24697 0.8509 0.0
C788 C 0.22649 0.47908 0.81841 0.0
C789 C 0.22861 0.46325 0.75141 0.0
C790 C 0.23591 0.47827 0.90018 0.0
C791 C 0.24815 0.46143 0.92198 0.0
H792 H 0.21746 0.49262 0.80759 0.0
H793 H 0.23403 0.49152 0.94651 0.0
S794 S 0.25617 0.4132 0.77422 0.0
N795 N 0.24272 0.42867 0.71705 0.0
N796 N 0.25953 0.42654 0.86719 0.0
C797 C 0.24978 0.44497 0.85593 0.0
C798 C 0.24042 0.44604 0.7726 0.0
C799 C 0.77338 0.20298 0.83218 0.0
C800 C 0.77476 0.22084 0.7659 0.0
C801 C 0.78268 0.2131 0.91393 0.0
C802 C 0.79422 0.242 0.93642 0.0
H803 H 0.76504 0.18055 0.82088 0.0
H804 H 0.78127 0.19802 0.95974 0.0
S805 S 0.80087 0.29811 0.79049 0.0
N806 N 0.7878 0.26934 0.7327 0.0
N807 N 0.80466 0.28814 0.88302 0.0
C808 C 0.79539 0.26009 0.87104 0.0
C809 C 0.78601 0.24974 0.78765 0.0
loop_
_geom_bond_atom_site_label_1
_geom_bond_atom_site_label_2
_geom_bond_distance
_geom_bond_site_symmetry_2
_ccdc_geom_bond_type
O0 Tb1 2.292 . S
O0 C3 1.255 . S
Tb1 O0 2.292 . S
Tb1 O17 2.326 . S
Tb1 O19 2.500 . S
Tb1 O20 2.473 1_556 S
Tb1 O23 2.324 1_556 S
Eu2 O6 2.292 . S
Eu2 C7 2.852 . S
Eu2 O18 2.324 1_554 S
Eu2 O22 2.326 . S
Eu2 O24 2.500 . S
Eu2 O25 2.473 . S
C3 O0 1.255 . S
C3 O4 1.247 . S
O4 C3 1.247 . S
C5 O17 1.242 . S
C5 O18 1.258 . S
O6 Eu2 2.292 . S
O6 C8 1.255 . S
C7 Eu2 2.852 . S
C7 C11 1.503 . S
C7 O24 1.273 . S
C7 O25 1.257 . S
C8 O6 1.255 . S
C8 O9 1.247 . S
O9 C8 1.247 . S
C10 O22 1.242 . S
C10 O23 1.258 . S
C11 C7 1.503 . S
C11 C12 1.379 . S
C11 C16 1.392 . S
C12 C11 1.379 . S
C12 C13 1.404 . S
C12 H26 0.929 1_554 S
C13 C12 1.404 . S
C13 C14 1.389 . S
C14 C13 1.389 . S
C14 C15 1.399 . S
C14 H27 0.931 . S
C15 C14 1.399 . S
C15 C16 1.390 . S
C16 C11 1.392 . S
C16 C15 1.390 . S
C16 H28 0.929 . S
O17 Tb1 2.326 . S
O17 C5 1.242 . S
O18 Eu2 2.324 1_556 S
O18 C5 1.258 . S
O19 Tb1 2.500 . S
O19 C21 1.273 . S
O20 Tb1 2.473 1_554 S
O20 C21 1.257 1_554 S
C21 O19 1.273 . S
C21 O20 1.257 1_556 S
O22 Eu2 2.326 . S
O22 C10 1.242 . S
O23 Tb1 2.324 1_554 S
O23 C10 1.258 . S
O24 Eu2 2.500 . S
O24 C7 1.273 . S
O25 Eu2 2.473 . S
O25 C7 1.257 . S
H26 C12 0.929 1_556 S
H27 C14 0.931 . S
H28 C16 0.929 . S
O29 Tb30 2.292 . S
O29 C32 1.255 . S
Tb30 O29 2.292 . S
Tb30 O46 2.326 . S
Tb30 O48 2.500 . S
Tb30 O49 2.473 1_556 S
Tb30 O52 2.324 1_556 S
Eu31 O35 2.292 . S
Eu31 C36 2.852 . S
Eu31 O47 2.324 1_554 S
Eu31 O51 2.326 . S
Eu31 O53 2.500 . S
Eu31 O54 2.473 . S
C32 O29 1.255 . S
C32 O33 1.247 . S
O33 C32 1.247 . S
C34 O46 1.242 . S
C34 O47 1.258 . S
O35 Eu31 2.292 . S
O35 C37 1.255 . S
C36 Eu31 2.852 . S
C36 C40 1.503 . S
C36 O53 1.273 . S
C36 O54 1.257 . S
C37 O35 1.255 . S
C37 O38 1.247 . S
O38 C37 1.247 . S
C39 O51 1.242 . S
C39 O52 1.258 . S
C40 C36 1.503 . S
C40 C41 1.379 . S
C40 C45 1.392 . S
C41 C40 1.379 . S
C41 C42 1.404 . S
C41 H55 0.929 1_554 S
C42 C41 1.404 . S
C42 C43 1.389 . S
C43 C42 1.389 . S
C43 C44 1.399 . S
C43 H56 0.931 . S
C44 C43 1.399 . S
C44 C45 1.390 . S
C45 C40 1.392 . S
C45 C44 1.390 . S
C45 H57 0.929 . S
O46 Tb30 2.326 . S
O46 C34 1.242 . S
O47 Eu31 2.324 1_556 S
O47 C34 1.258 . S
O48 Tb30 2.500 . S
O48 C50 1.273 . S
O49 Tb30 2.473 1_554 S
O49 C50 1.257 1_554 S
C50 O48 1.273 . S
C50 O49 1.257 1_556 S
O51 Eu31 2.326 . S
O51 C39 1.242 . S
O52 Tb30 2.324 1_554 S
O52 C39 1.258 . S
O53 Eu31 2.500 . S
O53 C36 1.273 . S
O54 Eu31 2.473 . S
O54 C36 1.257 . S
H55 C41 0.929 1_556 S
H56 C43 0.931 . S
H57 C45 0.929 . S
O58 Tb59 2.292 . S
O58 C61 1.255 . S
Tb59 O58 2.292 . S
Tb59 O75 2.326 . S
Tb59 O77 2.500 . S
Tb59 O78 2.473 1_556 S
Tb59 O81 2.324 1_556 S
Eu60 O64 2.292 . S
Eu60 C65 2.852 . S
Eu60 O76 2.324 1_554 S
Eu60 O80 2.326 . S
Eu60 O82 2.500 . S
Eu60 O83 2.473 . S
C61 O58 1.255 . S
C61 O62 1.247 . S
O62 C61 1.247 . S
C63 O75 1.242 . S
C63 O76 1.258 . S
O64 Eu60 2.292 . S
O64 C66 1.255 . S
C65 Eu60 2.852 . S
C65 C69 1.503 . S
C65 O82 1.273 . S
C65 O83 1.257 . S
C66 O64 1.255 . S
C66 O67 1.247 . S
O67 C66 1.247 . S
C68 O80 1.242 . S
C68 O81 1.258 . S
C69 C65 1.503 . S
C69 C70 1.379 . S
C69 C74 1.392 . S
C70 C69 1.379 . S
C70 C71 1.404 . S
C70 H84 0.929 1_554 S
C71 C70 1.404 . S
C71 C72 1.389 . S
C72 C71 1.389 . S
C72 C73 1.399 . S
C72 H85 0.931 . S
C73 C72 1.399 . S
C73 C74 1.390 . S
C74 C69 1.392 . S
C74 C73 1.390 . S
C74 H86 0.929 . S
O75 Tb59 2.326 . S
O75 C63 1.242 . S
O76 Eu60 2.324 1_556 S
O76 C63 1.258 . S
O77 Tb59 2.500 . S
O77 C79 1.273 . S
O78 Tb59 2.473 1_554 S
O78 C79 1.257 1_554 S
C79 O77 1.273 . S
C79 O78 1.257 1_556 S
O80 Eu60 2.326 . S
O80 C68 1.242 . S
O81 Tb59 2.324 1_554 S
O81 C68 1.258 . S
O82 Eu60 2.500 . S
O82 C65 1.273 . S
O83 Eu60 2.473 . S
O83 C65 1.257 . S
H84 C70 0.929 1_556 S
H85 C72 0.931 . S
H86 C74 0.929 . S
O87 Tb88 2.292 . S
O87 C90 1.255 . S
Tb88 O87 2.292 . S
Tb88 O104 2.326 . S
Tb88 O106 2.500 . S
Tb88 O107 2.473 1_556 S
Tb88 O110 2.324 1_556 S
Eu89 O93 2.292 . S
Eu89 C94 2.852 . S
Eu89 O105 2.324 1_554 S
Eu89 O109 2.326 . S
Eu89 O111 2.500 . S
Eu89 O112 2.473 . S
C90 O87 1.255 . S
C90 O91 1.247 . S
O91 C90 1.247 . S
C92 O104 1.242 . S
C92 O105 1.258 . S
O93 Eu89 2.292 . S
O93 C95 1.255 . S
C94 Eu89 2.852 . S
C94 C98 1.503 . S
C94 O111 1.273 . S
C94 O112 1.257 . S
C95 O93 1.255 . S
C95 O96 1.247 . S
O96 C95 1.247 . S
C97 O109 1.242 . S
C97 O110 1.258 . S
C98 C94 1.503 . S
C98 C99 1.379 . S
C98 C103 1.392 . S
C99 C98 1.379 . S
C99 C100 1.404 . S
C99 H113 0.929 1_554 S
C100 C99 1.404 . S
C100 C101 1.389 . S
C101 C100 1.389 . S
C101 C102 1.399 . S
C101 H114 0.931 . S
C102 C101 1.399 . S
C102 C103 1.390 . S
C103 C98 1.392 . S
C103 C102 1.390 . S
C103 H115 0.929 . S
O104 Tb88 2.326 . S
O104 C92 1.242 . S
O105 Eu89 2.324 1_556 S
O105 C92 1.258 . S
O106 Tb88 2.500 . S
O106 C108 1.273 . S
O107 Tb88 2.473 1_554 S
O107 C108 1.257 1_554 S
C108 O106 1.273 . S
C108 O107 1.257 1_556 S
O109 Eu89 2.326 . S
O109 C97 1.242 . S
O110 Tb88 2.324 1_554 S
O110 C97 1.258 . S
O111 Eu89 2.500 . S
O111 C94 1.273 . S
O112 Eu89 2.473 . S
O112 C94 1.257 . S
H113 C99 0.929 1_556 S
H114 C101 0.931 . S
H115 C103 0.929 . S
O116 Tb117 2.292 . S
O116 C119 1.255 . S
Tb117 O116 2.292 . S
Tb117 O133 2.326 . S
Tb117 O135 2.500 . S
Tb117 O136 2.473 1_556 S
Tb117 O139 2.324 1_556 S
Eu118 O122 2.292 . S
Eu118 C123 2.852 . S
Eu118 O134 2.324 1_554 S
Eu118 O138 2.326 . S
Eu118 O140 2.500 . S
Eu118 O141 2.473 . S
C119 O116 1.255 . S
C119 O120 1.247 . S
O120 C119 1.247 . S
C121 O133 1.242 . S
C121 O134 1.258 . S
O122 Eu118 2.292 . S
O122 C124 1.255 . S
C123 Eu118 2.852 . S
C123 C127 1.503 . S
C123 O140 1.273 . S
C123 O141 1.257 . S
C124 O122 1.255 . S
C124 O125 1.247 . S
O125 C124 1.247 . S
C126 O138 1.242 . S
C126 O139 1.258 . S
C127 C123 1.503 . S
C127 C128 1.379 . S
C127 C132 1.392 . S
C128 C127 1.379 . S
C128 C129 1.404 . S
C128 H142 0.929 1_554 S
C129 C128 1.404 . S
C129 C130 1.389 . S
C130 C129 1.389 . S
C130 C131 1.399 . S
C130 H143 0.931 . S
C131 C130 1.399 . S
C131 C132 1.390 . S
C132 C127 1.392 . S
C132 C131 1.390 . S
C132 H144 0.929 . S
O133 Tb117 2.326 . S
O133 C121 1.242 . S
O134 Eu118 2.324 1_556 S
O134 C121 1.258 . S
O135 Tb117 2.500 . S
O135 C137 1.273 . S
O136 Tb117 2.473 1_554 S
O136 C137 1.257 1_554 S
C137 O135 1.273 . S
C137 O136 1.257 1_556 S
O138 Eu118 2.326 . S
O138 C126 1.242 . S
O139 Tb117 2.324 1_554 S
O139 C126 1.258 . S
O140 Eu118 2.500 . S
O140 C123 1.273 . S
O141 Eu118 2.473 . S
O141 C123 1.257 . S
H142 C128 0.929 1_556 S
H143 C130 0.931 . S
H144 C132 0.929 . S
O145 Tb146 2.292 . S
O145 C148 1.255 . S
Tb146 O145 2.292 . S
Tb146 O162 2.326 . S
Tb146 O164 2.500 . S
Tb146 O165 2.473 1_556 S
Tb146 O168 2.324 1_556 S
Eu147 O151 2.292 . S
Eu147 C152 2.852 . S
Eu147 O163 2.324 1_554 S
Eu147 O167 2.326 . S
Eu147 O169 2.500 . S
Eu147 O170 2.473 . S
C148 O145 1.255 . S
C148 O149 1.247 . S
O149 C148 1.247 . S
C150 O162 1.242 . S
C150 O163 1.258 . S
O151 Eu147 2.292 . S
O151 C153 1.255 . S
C152 Eu147 2.852 . S
C152 C156 1.503 . S
C152 O169 1.273 . S
C152 O170 1.257 . S
C153 O151 1.255 . S
C153 O154 1.247 . S
O154 C153 1.247 . S
C155 O167 1.242 . S
C155 O168 1.258 . S
C156 C152 1.503 . S
C156 C157 1.379 . S
C156 C161 1.392 . S
C157 C156 1.379 . S
C157 C158 1.404 . S
C157 H171 0.929 1_554 S
C158 C157 1.404 . S
C158 C159 1.389 . S
C159 C158 1.389 . S
C159 C160 1.399 . S
C159 H172 0.931 . S
C160 C159 1.399 . S
C160 C161 1.390 . S
C161 C156 1.392 . S
C161 C160 1.390 . S
C161 H173 0.929 . S
O162 Tb146 2.326 . S
O162 C150 1.242 . S
O163 Eu147 2.324 1_556 S
O163 C150 1.258 . S
O164 Tb146 2.500 . S
O164 C166 1.273 . S
O165 Tb146 2.473 1_554 S
O165 C166 1.257 1_554 S
C166 O164 1.273 . S
C166 O165 1.257 1_556 S
O167 Eu147 2.326 . S
O167 C155 1.242 . S
O168 Tb146 2.324 1_554 S
O168 C155 1.258 . S
O169 Eu147 2.500 . S
O169 C152 1.273 . S
O170 Eu147 2.473 . S
O170 C152 1.257 . S
H171 C157 0.929 1_556 S
H172 C159 0.931 . S
H173 C161 0.929 . S
O174 Tb175 2.292 . S
O174 C177 1.255 . S
Tb175 O174 2.292 . S
Tb175 O191 2.326 . S
Tb175 O193 2.500 . S
Tb175 O194 2.473 . S
Tb175 O197 2.324 . S
Eu176 O180 2.292 . S
Eu176 C181 2.852 . S
Eu176 O192 2.324 . S
Eu176 O196 2.326 . S
Eu176 O198 2.500 . S
Eu176 O199 2.473 . S
C177 O174 1.255 . S
C177 O178 1.247 . S
O178 C177 1.247 . S
C179 O191 1.242 . S
C179 O192 1.258 . S
O180 Eu176 2.292 . S
O180 C182 1.255 . S
C181 Eu176 2.852 . S
C181 C185 1.503 . S
C181 O198 1.273 . S
C181 O199 1.257 . S
C182 O180 1.255 . S
C182 O183 1.247 . S
O183 C182 1.247 . S
C184 O196 1.242 . S
C184 O197 1.258 . S
C185 C181 1.503 . S
C185 C186 1.379 . S
C185 C190 1.392 . S
C186 C185 1.379 . S
C186 C187 1.404 . S
C186 H200 0.929 . S
C187 C186 1.404 . S
C187 C188 1.389 . S
C188 C187 1.389 . S
C188 C189 1.399 . S
C188 H201 0.931 . S
C189 C188 1.399 . S
C189 C190 1.390 . S
C190 C185 1.392 . S
C190 C189 1.390 . S
C190 H202 0.929 . S
O191 Tb175 2.326 . S
O191 C179 1.242 . S
O192 Eu176 2.324 . S
O192 C179 1.258 . S
O193 Tb175 2.500 . S
O193 C195 1.273 . S
O194 Tb175 2.473 . S
O194 C195 1.257 . S
C195 O193 1.273 . S
C195 O194 1.257 . S
O196 Eu176 2.326 . S
O196 C184 1.242 . S
O197 Tb175 2.324 . S
O197 C184 1.258 . S
O198 Eu176 2.500 . S
O198 C181 1.273 . S
O199 Eu176 2.473 . S
O199 C181 1.257 . S
H200 C186 0.929 . S
H201 C188 0.931 . S
H202 C190 0.929 . S
O203 Tb204 2.292 . S
O203 C206 1.255 . S
Tb204 O203 2.292 . S
Tb204 O220 2.326 . S
Tb204 O222 2.500 . S
Tb204 O223 2.473 . S
Tb204 O226 2.324 . S
Eu205 O209 2.292 . S
Eu205 C210 2.852 . S
Eu205 O221 2.324 . S
Eu205 O225 2.326 . S
Eu205 O227 2.500 . S
Eu205 O228 2.473 . S
C206 O203 1.255 . S
C206 O207 1.247 . S
O207 C206 1.247 . S
C208 O220 1.242 . S
C208 O221 1.258 . S
O209 Eu205 2.292 . S
O209 C211 1.255 . S
C210 Eu205 2.852 . S
C210 C214 1.503 . S
C210 O227 1.273 . S
C210 O228 1.257 . S
C211 O209 1.255 . S
C211 O212 1.247 . S
O212 C211 1.247 . S
C213 O225 1.242 . S
C213 O226 1.258 . S
C214 C210 1.503 . S
C214 C215 1.379 . S
C214 C219 1.392 . S
C215 C214 1.379 . S
C215 C216 1.404 . S
C215 H229 0.929 . S
C216 C215 1.404 . S
C216 C217 1.389 . S
C217 C216 1.389 . S
C217 C218 1.399 . S
C217 H230 0.931 . S
C218 C217 1.399 . S
C218 C219 1.390 . S
C219 C214 1.392 . S
C219 C218 1.390 . S
C219 H231 0.929 . S
O220 Tb204 2.326 . S
O220 C208 1.242 . S
O221 Eu205 2.324 . S
O221 C208 1.258 . S
O222 Tb204 2.500 . S
O222 C224 1.273 . S
O223 Tb204 2.473 . S
O223 C224 1.257 . S
C224 O222 1.273 . S
C224 O223 1.257 . S
O225 Eu205 2.326 . S
O225 C213 1.242 . S
O226 Tb204 2.324 . S
O226 C213 1.258 . S
O227 Eu205 2.500 . S
O227 C210 1.273 . S
O228 Eu205 2.473 . S
O228 C210 1.257 . S
H229 C215 0.929 . S
H230 C217 0.931 . S
H231 C219 0.929 . S
O232 Tb233 2.292 . S
O232 C235 1.255 . S
Tb233 O232 2.292 . S
Tb233 O249 2.326 . S
Tb233 O251 2.500 . S
Tb233 O252 2.473 . S
Tb233 O255 2.324 . S
Eu234 O238 2.292 . S
Eu234 C239 2.852 . S
Eu234 O250 2.324 . S
Eu234 O254 2.326 . S
Eu234 O256 2.500 . S
Eu234 O257 2.473 . S
C235 O232 1.255 . S
C235 O236 1.247 . S
O236 C235 1.247 . S
C237 O249 1.242 . S
C237 O250 1.258 . S
O238 Eu234 2.292 . S
O238 C240 1.255 . S
C239 Eu234 2.852 . S
C239 C243 1.503 . S
C239 O256 1.273 . S
C239 O257 1.257 . S
C240 O238 1.255 . S
C240 O241 1.247 . S
O241 C240 1.247 . S
C242 O254 1.242 . S
C242 O255 1.258 . S
C243 C239 1.503 . S
C243 C244 1.379 . S
C243 C248 1.392 . S
C244 C243 1.379 . S
C244 C245 1.404 . S
C244 H258 0.929 . S
C245 C244 1.404 . S
C245 C246 1.389 . S
C246 C245 1.389 . S
C246 C247 1.399 . S
C246 H259 0.931 . S
C247 C246 1.399 . S
C247 C248 1.390 . S
C248 C243 1.392 . S
C248 C247 1.390 . S
C248 H260 0.929 . S
O249 Tb233 2.326 . S
O249 C237 1.242 . S
O250 Eu234 2.324 . S
O250 C237 1.258 . S
O251 Tb233 2.500 . S
O251 C253 1.273 . S
O252 Tb233 2.473 . S
O252 C253 1.257 . S
C253 O251 1.273 . S
C253 O252 1.257 . S
O254 Eu234 2.326 . S
O254 C242 1.242 . S
O255 Tb233 2.324 . S
O255 C242 1.258 . S
O256 Eu234 2.500 . S
O256 C239 1.273 . S
O257 Eu234 2.473 . S
O257 C239 1.257 . S
H258 C244 0.929 . S
H259 C246 0.931 . S
H260 C248 0.929 . S
O261 Tb262 2.292 . S
O261 C264 1.255 . S
Tb262 O261 2.292 . S
Tb262 O278 2.326 . S
Tb262 O280 2.500 . S
Tb262 O281 2.473 . S
Tb262 O284 2.324 . S
Eu263 O267 2.292 . S
Eu263 C268 2.852 . S
Eu263 O279 2.324 . S
Eu263 O283 2.326 . S
Eu263 O285 2.500 . S
Eu263 O286 2.473 . S
C264 O261 1.255 . S
C264 O265 1.247 . S
O265 C264 1.247 . S
C266 O278 1.242 . S
C266 O279 1.258 . S
O267 Eu263 2.292 . S
O267 C269 1.255 . S
C268 Eu263 2.852 . S
C268 C272 1.503 . S
C268 O285 1.273 . S
C268 O286 1.257 . S
C269 O267 1.255 . S
C269 O270 1.247 . S
O270 C269 1.247 . S
C271 O283 1.242 . S
C271 O284 1.258 . S
C272 C268 1.503 . S
C272 C273 1.379 . S
C272 C277 1.392 . S
C273 C272 1.379 . S
C273 C274 1.404 . S
C273 H287 0.929 . S
C274 C273 1.404 . S
C274 C275 1.389 . S
C275 C274 1.389 . S
C275 C276 1.399 . S
C275 H288 0.931 . S
C276 C275 1.399 . S
C276 C277 1.390 . S
C277 C272 1.392 . S
C277 C276 1.390 . S
C277 H289 0.929 . S
O278 Tb262 2.326 . S
O278 C266 1.242 . S
O279 Eu263 2.324 . S
O279 C266 1.258 . S
O280 Tb262 2.500 . S
O280 C282 1.273 . S
O281 Tb262 2.473 . S
O281 C282 1.257 . S
C282 O280 1.273 . S
C282 O281 1.257 . S
O283 Eu263 2.326 . S
O283 C271 1.242 . S
O284 Tb262 2.324 . S
O284 C271 1.258 . S
O285 Eu263 2.500 . S
O285 C268 1.273 . S
O286 Eu263 2.473 . S
O286 C268 1.257 . S
H287 C273 0.929 . S
H288 C275 0.931 . S
H289 C277 0.929 . S
O290 Tb291 2.292 . S
O290 C293 1.255 . S
Tb291 O290 2.292 . S
Tb291 O307 2.326 . S
Tb291 O309 2.500 . S
Tb291 O310 2.473 . S
Tb291 O313 2.324 . S
Eu292 O296 2.292 . S
Eu292 C297 2.852 . S
Eu292 O308 2.324 . S
Eu292 O312 2.326 . S
Eu292 O314 2.500 . S
Eu292 O315 2.473 . S
C293 O290 1.255 . S
C293 O294 1.247 . S
O294 C293 1.247 . S
C295 O307 1.242 . S
C295 O308 1.258 . S
O296 Eu292 2.292 . S
O296 C298 1.255 . S
C297 Eu292 2.852 . S
C297 C301 1.503 . S
C297 O314 1.273 . S
C297 O315 1.257 . S
C298 O296 1.255 . S
C298 O299 1.247 . S
O299 C298 1.247 . S
C300 O312 1.242 . S
C300 O313 1.258 . S
C301 C297 1.503 . S
C301 C302 1.379 . S
C301 C306 1.392 . S
C302 C301 1.379 . S
C302 C303 1.404 . S
C302 H316 0.929 . S
C303 C302 1.404 . S
C303 C304 1.389 . S
C304 C303 1.389 . S
C304 C305 1.399 . S
C304 H317 0.931 . S
C305 C304 1.399 . S
C305 C306 1.390 . S
C306 C301 1.392 . S
C306 C305 1.390 . S
C306 H318 0.929 . S
O307 Tb291 2.326 . S
O307 C295 1.242 . S
O308 Eu292 2.324 . S
O308 C295 1.258 . S
O309 Tb291 2.500 . S
O309 C311 1.273 . S
O310 Tb291 2.473 . S
O310 C311 1.257 . S
C311 O309 1.273 . S
C311 O310 1.257 . S
O312 Eu292 2.326 . S
O312 C300 1.242 . S
O313 Tb291 2.324 . S
O313 C300 1.258 . S
O314 Eu292 2.500 . S
O314 C297 1.273 . S
O315 Eu292 2.473 . S
O315 C297 1.257 . S
H316 C302 0.929 . S
H317 C304 0.931 . S
H318 C306 0.929 . S
O319 Tb320 2.292 . S
O319 C322 1.255 . S
Tb320 O319 2.292 . S
Tb320 O336 2.326 . S
Tb320 O338 2.500 . S
Tb320 O339 2.473 . S
Tb320 O342 2.324 . S
Eu321 O325 2.292 . S
Eu321 C326 2.852 . S
Eu321 O337 2.324 . S
Eu321 O341 2.326 . S
Eu321 O343 2.500 . S
Eu321 O344 2.473 . S
C322 O319 1.255 . S
C322 O323 1.247 . S
O323 C322 1.247 . S
C324 O336 1.242 . S
C324 O337 1.258 . S
O325 Eu321 2.292 . S
O325 C327 1.255 . S
C326 Eu321 2.852 . S
C326 C330 1.503 . S
C326 O343 1.273 . S
C326 O344 1.257 . S
C327 O325 1.255 . S
C327 O328 1.247 . S
O328 C327 1.247 . S
C329 O341 1.242 . S
C329 O342 1.258 . S
C330 C326 1.503 . S
C330 C331 1.379 . S
C330 C335 1.392 . S
C331 C330 1.379 . S
C331 C332 1.404 . S
C331 H345 0.929 . S
C332 C331 1.404 . S
C332 C333 1.389 . S
C333 C332 1.389 . S
C333 C334 1.399 . S
C333 H346 0.931 . S
C334 C333 1.399 . S
C334 C335 1.390 . S
C335 C330 1.392 . S
C335 C334 1.390 . S
C335 H347 0.929 . S
O336 Tb320 2.326 . S
O336 C324 1.242 . S
O337 Eu321 2.324 . S
O337 C324 1.258 . S
O338 Tb320 2.500 . S
O338 C340 1.273 . S
O339 Tb320 2.473 . S
O339 C340 1.257 . S
C340 O338 1.273 . S
C340 O339 1.257 . S
O341 Eu321 2.326 . S
O341 C329 1.242 . S
O342 Tb320 2.324 . S
O342 C329 1.258 . S
O343 Eu321 2.500 . S
O343 C326 1.273 . S
O344 Eu321 2.473 . S
O344 C326 1.257 . S
H345 C331 0.929 . S
H346 C333 0.931 . S
H347 C335 0.929 . S
C348 C349 1.369 . S
C348 C350 1.419 1_545 S
C348 H352 0.930 . S
C349 C348 1.369 . S
C349 C358 1.429 . S
C350 C348 1.419 1_565 S
C350 C351 1.363 . S
C350 H353 0.929 . S
C351 C350 1.363 . S
C351 C357 1.428 . S
H352 C348 0.930 . S
H353 C350 0.929 . S
S354 N355 1.649 . S
S354 N356 1.596 1_545 S
N355 S354 1.649 . S
N355 C358 1.350 . S
N356 S354 1.596 1_565 S
N356 C357 1.351 . S
C357 C351 1.428 . S
C357 N356 1.351 . S
C357 C358 1.434 1_565 S
C358 C349 1.429 . S
C358 N355 1.350 . S
C358 C357 1.434 1_545 S
C359 C360 1.369 . S
C359 C361 1.419 . S
C359 H363 0.930 . S
C360 C359 1.369 . S
C360 C369 1.429 . S
C361 C359 1.419 . S
C361 C362 1.363 . S
C361 H364 0.929 . S
C362 C361 1.363 . S
C362 C368 1.428 . S
H363 C359 0.930 . S
H364 C361 0.929 . S
S365 N366 1.613 . S
S365 N367 1.610 . S
N366 S365 1.613 . S
N366 C369 1.350 . S
N367 S365 1.610 . S
N367 C368 1.351 . S
C368 C362 1.428 . S
C368 N367 1.351 . S
C368 C369 1.434 . S
C369 C360 1.429 . S
C369 N366 1.350 . S
C369 C368 1.434 . S
C370 C371 1.369 . S
C370 C372 1.419 1_455 S
C370 H374 0.930 . S
C371 C370 1.369 . S
C371 C380 1.429 . S
C372 C370 1.419 1_655 S
C372 C373 1.363 . S
C372 H375 0.929 . S
C373 C372 1.363 . S
C373 C379 1.428 . S
H374 C370 0.930 . S
H375 C372 0.929 . S
S376 N377 1.613 . S
S376 N378 1.610 1_455 S
N377 S376 1.613 . S
N377 C380 1.350 . S
N378 S376 1.610 1_655 S
N378 C379 1.351 . S
C379 C373 1.428 . S
C379 N378 1.351 . S
C379 C380 1.434 1_655 S
C380 C371 1.429 . S
C380 N377 1.350 . S
C380 C379 1.434 1_455 S
C381 C382 1.369 . S
C381 C383 1.419 1_565 S
C381 H385 0.930 . S
C382 C381 1.369 . S
C382 C391 1.429 . S
C383 C381 1.419 1_545 S
C383 C384 1.363 . S
C383 H386 0.929 . S
C384 C383 1.363 . S
C384 C390 1.428 . S
H385 C381 0.930 . S
H386 C383 0.929 . S
S387 N388 1.649 . S
S387 N389 1.596 1_565 S
N388 S387 1.649 . S
N388 C391 1.350 . S
N389 S387 1.596 1_545 S
N389 C390 1.351 . S
C390 C384 1.428 . S
C390 N389 1.351 . S
C390 C391 1.434 1_545 S
C391 C382 1.429 . S
C391 N388 1.350 . S
C391 C390 1.434 1_565 S
C392 C393 1.369 . S
C392 C394 1.419 . S
C392 H396 0.930 . S
C393 C392 1.369 . S
C393 C402 1.429 . S
C394 C392 1.419 . S
C394 C395 1.363 . S
C394 H397 0.929 . S
C395 C394 1.363 . S
C395 C401 1.428 . S
H396 C392 0.930 . S
H397 C394 0.929 . S
S398 N399 1.613 . S
S398 N400 1.610 . S
N399 S398 1.613 . S
N399 C402 1.350 . S
N400 S398 1.610 . S
N400 C401 1.351 . S
C401 C395 1.428 . S
C401 N400 1.351 . S
C401 C402 1.434 . S
C402 C393 1.429 . S
C402 N399 1.350 . S
C402 C401 1.434 . S
C403 C404 1.369 . S
C403 C405 1.419 1_655 S
C403 H407 0.930 . S
C404 C403 1.369 . S
C404 C413 1.429 . S
C405 C403 1.419 1_455 S
C405 C406 1.363 . S
C405 H408 0.929 . S
C406 C405 1.363 . S
C406 C412 1.428 . S
H407 C403 0.930 . S
H408 C405 0.929 . S
S409 N410 1.598 1_455 S
S409 N411 1.616 . S
N410 S409 1.598 1_655 S
N410 C413 1.350 . S
N411 S409 1.616 . S
N411 C412 1.351 . S
C412 C406 1.428 . S
C412 N411 1.351 . S
C412 C413 1.434 1_455 S
C413 C404 1.429 . S
C413 N410 1.350 . S
C413 C412 1.434 1_655 S
C414 C415 1.369 . S
C414 C416 1.419 . S
C414 H418 0.930 . S
C415 C414 1.369 . S
C415 C424 1.429 1_545 S
C416 C414 1.419 . S
C416 C417 1.363 1_545 S
C416 H419 0.929 . S
C417 C416 1.363 1_565 S
C417 C423 1.428 . S
H418 C414 0.930 . S
H419 C416 0.929 . S
S420 N421 1.613 . S
S420 N422 1.610 . S
N421 S420 1.613 . S
N421 C424 1.350 . S
N422 S420 1.610 . S
N422 C423 1.351 . S
C423 C417 1.428 . S
C423 N422 1.351 . S
C423 C424 1.434 . S
C424 C415 1.429 1_565 S
C424 N421 1.350 . S
C424 C423 1.434 . S
C425 C426 1.369 . S
C425 C427 1.419 . S
C425 H429 0.930 . S
C426 C425 1.369 . S
C426 C435 1.429 . S
C427 C425 1.419 . S
C427 C428 1.363 . S
C427 H430 0.929 . S
C428 C427 1.363 . S
C428 C434 1.428 . S
H429 C425 0.930 . S
H430 C427 0.929 . S
S431 N432 1.613 . S
S431 N433 1.610 . S
N432 S431 1.613 . S
N432 C435 1.350 . S
N433 S431 1.610 . S
N433 C434 1.351 . S
C434 C428 1.428 . S
C434 N433 1.351 . S
C434 C435 1.434 . S
C435 C426 1.429 . S
C435 N432 1.350 . S
C435 C434 1.434 . S
C436 C437 1.369 1_655 S
C436 C438 1.419 . S
C436 H440 0.930 . S
C437 C436 1.369 1_455 S
C437 C446 1.429 . S
C438 C436 1.419 . S
C438 C439 1.363 . S
C438 H441 0.929 . S
C439 C438 1.363 . S
C439 C445 1.428 1_655 S
H440 C436 0.930 . S
H441 C438 0.929 . S
S442 N443 1.613 . S
S442 N444 1.610 . S
N443 S442 1.613 . S
N443 C446 1.350 . S
N444 S442 1.610 . S
N444 C445 1.351 . S
C445 C439 1.428 1_455 S
C445 N444 1.351 . S
C445 C446 1.434 . S
C446 C437 1.429 . S
C446 N443 1.350 . S
C446 C445 1.434 . S
C447 C448 1.369 . S
C447 C449 1.419 1_545 S
C447 H451 0.930 . S
C448 C447 1.369 . S
C448 C457 1.429 . S
C449 C447 1.419 1_565 S
C449 C450 1.363 . S
C449 H452 0.929 . S
C450 C449 1.363 . S
C450 C456 1.428 . S
H451 C447 0.930 . S
H452 C449 0.929 . S
S453 N454 1.613 . S
S453 N455 1.610 1_545 S
N454 S453 1.613 . S
N454 C457 1.350 . S
N455 S453 1.610 1_565 S
N455 C456 1.351 . S
C456 C450 1.428 . S
C456 N455 1.351 . S
C456 C457 1.434 1_565 S
C457 C448 1.429 . S
C457 N454 1.350 . S
C457 C456 1.434 1_545 S
C458 C459 1.369 . S
C458 C460 1.419 . S
C458 H462 0.930 . S
C459 C458 1.369 . S
C459 C468 1.429 . S
C460 C458 1.419 . S
C460 C461 1.363 . S
C460 H463 0.929 . S
C461 C460 1.363 . S
C461 C467 1.428 . S
H462 C458 0.930 . S
H463 C460 0.929 . S
S464 N465 1.613 . S
S464 N466 1.610 . S
N465 S464 1.613 . S
N465 C468 1.350 . S
N466 S464 1.610 . S
N466 C467 1.351 . S
C467 C461 1.428 . S
C467 N466 1.351 . S
C467 C468 1.434 . S
C468 C459 1.429 . S
C468 N465 1.350 . S
C468 C467 1.434 . S
C469 C470 1.369 . S
C469 C471 1.419 . S
C469 H473 0.930 . S
C470 C469 1.369 . S
C470 C479 1.429 1_455 S
C471 C469 1.419 . S
C471 C472 1.363 1_455 S
C471 H474 0.929 . S
C472 C471 1.363 1_655 S
C472 C478 1.428 . S
H473 C469 0.930 . S
H474 C471 0.929 . S
S475 N476 1.613 . S
S475 N477 1.610 . S
N476 S475 1.613 . S
N476 C479 1.350 . S
N477 S475 1.610 . S
N477 C478 1.351 . S
C478 C472 1.428 . S
C478 N477 1.351 . S
C478 C479 1.434 . S
C479 C470 1.429 1_655 S
C479 N476 1.350 . S
C479 C478 1.434 . S
C480 C481 1.369 . S
C480 C482 1.419 . S
C480 H484 0.930 . S
C481 C480 1.369 . S
C481 C490 1.429 1_566 S
C482 C480 1.419 . S
C482 C483 1.363 1_565 S
C482 H485 0.929 . S
C483 C482 1.363 1_545 S
C483 C489 1.428 1_556 S
H484 C480 0.930 . S
H485 C482 0.929 . S
S486 N487 1.613 . S
S486 N488 1.610 . S
N487 S486 1.613 . S
N487 C490 1.350 . S
N488 S486 1.610 . S
N488 C489 1.351 . S
C489 C483 1.428 1_554 S
C489 N488 1.351 . S
C489 C490 1.434 . S
C490 C481 1.429 1_544 S
C490 N487 1.350 . S
C490 C489 1.434 . S
C491 C492 1.369 . S
C491 C493 1.419 . S
C491 H495 0.930 . S
C492 C491 1.369 . S
C492 C501 1.429 1_556 S
C493 C491 1.419 . S
C493 C494 1.363 . S
C493 H496 0.929 . S
C494 C493 1.363 . S
C494 C500 1.428 1_556 S
H495 C491 0.930 . S
H496 C493 0.929 . S
S497 N498 1.613 . S
S497 N499 1.610 . S
N498 S497 1.613 . S
N498 C501 1.350 . S
N499 S497 1.610 . S
N499 C500 1.351 . S
C500 C494 1.428 1_554 S
C500 N499 1.351 . S
C500 C501 1.434 . S
C501 C492 1.429 1_554 S
C501 N498 1.350 . S
C501 C500 1.434 . S
C502 C503 1.369 . S
C502 C504 1.419 1_455 S
C502 H506 0.930 . S
C503 C502 1.369 . S
C503 C512 1.429 1_556 S
C504 C502 1.419 1_655 S
C504 C505 1.363 . S
C504 H507 0.929 . S
C505 C504 1.363 . S
C505 C511 1.428 1_556 S
H506 C502 0.930 . S
H507 C504 0.929 . S
S508 N509 1.613 1_655 S
S508 N510 1.610 . S
N509 S508 1.613 1_455 S
N509 C512 1.350 . S
N510 S508 1.610 . S
N510 C511 1.351 . S
C511 C505 1.428 1_554 S
C511 N510 1.351 . S
C511 C512 1.434 1_655 S
C512 C503 1.429 1_554 S
C512 N509 1.350 . S
C512 C511 1.434 1_455 S
C513 C514 1.369 . S
C513 C515 1.419 1_655 S
C513 H517 0.930 . S
C514 C513 1.369 . S
C514 C523 1.429 . S
C515 C513 1.419 1_455 S
C515 C516 1.363 . S
C515 H518 0.929 . S
C516 C515 1.363 . S
C516 C522 1.428 . S
H517 C513 0.930 . S
H518 C515 0.929 . S
S519 N520 1.613 . S
S519 N521 1.610 1_655 S
N520 S519 1.613 . S
N520 C523 1.350 . S
N521 S519 1.610 1_455 S
N521 C522 1.351 . S
C522 C516 1.428 . S
C522 N521 1.351 . S
C522 C523 1.434 1_455 S
C523 C514 1.429 . S
C523 N520 1.350 . S
C523 C522 1.434 1_655 S
C524 C525 1.391 . S
C524 C526 1.412 1_565 S
C524 H528 0.922 . S
C525 C524 1.391 . S
C525 C534 1.429 . S
C526 C524 1.412 1_545 S
C526 C527 1.363 . S
C526 H529 0.929 . S
C527 C526 1.363 . S
C527 C533 1.427 1_545 S
H528 C524 0.922 . S
H529 C526 0.929 . S
S530 N531 1.613 . S
S530 N532 1.610 . S
N531 S530 1.613 . S
N531 C534 1.350 . S
N532 S530 1.610 . S
N532 C533 1.352 . S
C533 C527 1.427 1_565 S
C533 N532 1.352 . S
C533 C534 1.434 . S
C534 C525 1.429 . S
C534 N531 1.350 . S
C534 C533 1.434 . S
C535 C536 1.369 . S
C535 C537 1.419 . S
C535 H539 0.930 . S
C536 C535 1.369 . S
C536 C545 1.429 . S
C537 C535 1.419 . S
C537 C538 1.363 . S
C537 H540 0.929 . S
C538 C537 1.363 . S
C538 C544 1.428 . S
H539 C535 0.930 . S
H540 C537 0.929 . S
S541 N542 1.613 . S
S541 N543 1.610 . S
N542 S541 1.613 . S
N542 C545 1.350 . S
N543 S541 1.610 . S
N543 C544 1.351 . S
C544 C538 1.428 . S
C544 N543 1.351 . S
C544 C545 1.434 . S
C545 C536 1.429 . S
C545 N542 1.350 . S
C545 C544 1.434 . S
C546 C547 1.369 . S
C546 C548 1.419 . S
C546 H550 0.930 . S
C547 C546 1.369 . S
C547 C556 1.429 . S
C548 C546 1.419 . S
C548 C549 1.363 . S
C548 H551 0.929 . S
C549 C548 1.363 . S
C549 C555 1.428 . S
H550 C546 0.930 . S
H551 C548 0.929 . S
S552 N553 1.613 . S
S552 N554 1.610 . S
N553 S552 1.613 . S
N553 C556 1.350 . S
N554 S552 1.610 . S
N554 C555 1.351 . S
C555 C549 1.428 . S
C555 N554 1.351 . S
C555 C556 1.434 . S
C556 C547 1.429 . S
C556 N553 1.350 . S
C556 C555 1.434 . S
C557 C558 1.369 . S
C557 C559 1.419 . S
C557 H561 0.930 . S
C558 C557 1.369 . S
C558 C567 1.429 . S
C559 C557 1.419 . S
C559 C560 1.363 . S
C559 H562 0.929 . S
C560 C559 1.363 . S
C560 C566 1.428 . S
H561 C557 0.930 . S
H562 C559 0.929 . S
S563 N564 1.613 . S
S563 N565 1.610 . S
N564 S563 1.613 . S
N564 C567 1.350 . S
N565 S563 1.610 . S
N565 C566 1.351 . S
C566 C560 1.428 . S
C566 N565 1.351 . S
C566 C567 1.434 . S
C567 C558 1.429 . S
C567 N564 1.350 . S
C567 C566 1.434 . S
C568 C569 1.369 . S
C568 C570 1.419 . S
C568 H572 0.930 . S
C569 C568 1.369 . S
C569 C578 1.429 . S
C570 C568 1.419 . S
C570 C571 1.363 . S
C570 H573 0.929 . S
C571 C570 1.363 . S
C571 C577 1.428 . S
H572 C568 0.930 . S
H573 C570 0.929 . S
S574 N575 1.613 . S
S574 N576 1.610 . S
N575 S574 1.613 . S
N575 C578 1.350 . S
N576 S574 1.610 . S
N576 C577 1.351 . S
C577 C571 1.428 . S
C577 N576 1.351 . S
C577 C578 1.434 . S
C578 C569 1.429 . S
C578 N575 1.350 . S
C578 C577 1.434 . S
C579 C580 1.369 . S
C579 C581 1.419 . S
C579 H583 0.930 . S
C580 C579 1.369 . S
C580 C589 1.429 . S
C581 C579 1.419 . S
C581 C582 1.363 . S
C581 H584 0.929 . S
C582 C581 1.363 . S
C582 C588 1.428 . S
H583 C579 0.930 . S
H584 C581 0.929 . S
S585 N586 1.613 . S
S585 N587 1.610 . S
N586 S585 1.613 . S
N586 C589 1.350 . S
N587 S585 1.610 . S
N587 C588 1.351 . S
C588 C582 1.428 . S
C588 N587 1.351 . S
C588 C589 1.434 . S
C589 C580 1.429 . S
C589 N586 1.350 . S
C589 C588 1.434 . S
C590 C591 1.369 . S
C590 C592 1.419 . S
C590 H594 0.930 . S
C591 C590 1.369 . S
C591 C600 1.429 . S
C592 C590 1.419 . S
C592 C593 1.363 . S
C592 H595 0.929 . S
C593 C592 1.363 . S
C593 C599 1.428 . S
H594 C590 0.930 . S
H595 C592 0.929 . S
S596 N597 1.613 . S
S596 N598 1.610 . S
N597 S596 1.613 . S
N597 C600 1.350 . S
N598 S596 1.610 . S
N598 C599 1.351 . S
C599 C593 1.428 . S
C599 N598 1.351 . S
C599 C600 1.434 . S
C600 C591 1.429 . S
C600 N597 1.350 . S
C600 C599 1.434 . S
C601 C602 1.369 . S
C601 C603 1.419 . S
C601 H605 0.930 . S
C602 C601 1.369 . S
C602 C611 1.429 . S
C603 C601 1.419 . S
C603 C604 1.363 . S
C603 H606 0.929 . S
C604 C603 1.363 . S
C604 C610 1.428 . S
H605 C601 0.930 . S
H606 C603 0.929 . S
S607 N608 1.613 . S
S607 N609 1.610 . S
N608 S607 1.613 . S
N608 C611 1.350 . S
N609 S607 1.610 . S
N609 C610 1.351 . S
C610 C604 1.428 . S
C610 N609 1.351 . S
C610 C611 1.434 . S
C611 C602 1.429 . S
C611 N608 1.350 . S
C611 C610 1.434 . S
C612 C613 1.369 . S
C612 C614 1.419 . S
C612 H616 0.930 . S
C613 C612 1.369 . S
C613 C622 1.429 . S
C614 C612 1.419 . S
C614 C615 1.363 . S
C614 H617 0.929 . S
C615 C614 1.363 . S
C615 C621 1.428 . S
H616 C612 0.930 . S
H617 C614 0.929 . S
S618 N619 1.613 . S
S618 N620 1.610 . S
N619 S618 1.613 . S
N619 C622 1.350 . S
N620 S618 1.610 . S
N620 C621 1.351 . S
C621 C615 1.428 . S
C621 N620 1.351 . S
C621 C622 1.434 . S
C622 C613 1.429 . S
C622 N619 1.350 . S
C622 C621 1.434 . S
C623 C624 1.369 . S
C623 C625 1.419 . S
C623 H627 0.930 . S
C624 C623 1.369 . S
C624 C633 1.429 . S
C625 C623 1.419 . S
C625 C626 1.363 . S
C625 H628 0.929 . S
C626 C625 1.363 . S
C626 C632 1.428 . S
H627 C623 0.930 . S
H628 C625 0.929 . S
S629 N630 1.613 . S
S629 N631 1.610 . S
N630 S629 1.613 . S
N630 C633 1.350 . S
N631 S629 1.610 . S
N631 C632 1.351 . S
C632 C626 1.428 . S
C632 N631 1.351 . S
C632 C633 1.434 . S
C633 C624 1.429 . S
C633 N630 1.350 . S
C633 C632 1.434 . S
C634 C635 1.369 . S
C634 C636 1.419 . S
C634 H638 0.930 . S
C635 C634 1.369 . S
C635 C644 1.429 . S
C636 C634 1.419 . S
C636 C637 1.363 . S
C636 H639 0.929 . S
C637 C636 1.363 . S
C637 C643 1.428 . S
H638 C634 0.930 . S
H639 C636 0.929 . S
S640 N641 1.613 . S
S640 N642 1.610 . S
N641 S640 1.613 . S
N641 C644 1.350 . S
N642 S640 1.610 . S
N642 C643 1.351 . S
C643 C637 1.428 . S
C643 N642 1.351 . S
C643 C644 1.434 . S
C644 C635 1.429 . S
C644 N641 1.350 . S
C644 C643 1.434 . S
C645 C646 1.369 . S
C645 C647 1.419 . S
C645 H649 0.930 . S
C646 C645 1.369 . S
C646 C655 1.429 . S
C647 C645 1.419 . S
C647 C648 1.363 . S
C647 H650 0.929 . S
C648 C647 1.363 . S
C648 C654 1.428 . S
H649 C645 0.930 . S
H650 C647 0.929 . S
S651 N652 1.613 . S
S651 N653 1.610 . S
N652 S651 1.613 . S
N652 C655 1.350 . S
N653 S651 1.610 . S
N653 C654 1.351 . S
C654 C648 1.428 . S
C654 N653 1.351 . S
C654 C655 1.434 . S
C655 C646 1.429 . S
C655 N652 1.350 . S
C655 C654 1.434 . S
C656 C657 1.369 . S
C656 C658 1.419 . S
C656 H660 0.930 . S
C657 C656 1.369 . S
C657 C666 1.429 . S
C658 C656 1.419 . S
C658 C659 1.363 . S
C658 H661 0.929 . S
C659 C658 1.363 . S
C659 C665 1.428 . S
H660 C656 0.930 . S
H661 C658 0.929 . S
S662 N663 1.613 . S
S662 N664 1.610 . S
N663 S662 1.613 . S
N663 C666 1.350 . S
N664 S662 1.610 . S
N664 C665 1.351 . S
C665 C659 1.428 . S
C665 N664 1.351 . S
C665 C666 1.434 . S
C666 C657 1.429 . S
C666 N663 1.350 . S
C666 C665 1.434 . S
C667 C668 1.369 . S
C667 C669 1.419 . S
C667 H671 0.930 . S
C668 C667 1.369 . S
C668 C677 1.429 . S
C669 C667 1.419 . S
C669 C670 1.363 . S
C669 H672 0.929 . S
C670 C669 1.363 . S
C670 C676 1.428 . S
H671 C667 0.930 . S
H672 C669 0.929 . S
S673 N674 1.613 . S
S673 N675 1.610 . S
N674 S673 1.613 . S
N674 C677 1.350 . S
N675 S673 1.610 . S
N675 C676 1.351 . S
C676 C670 1.428 . S
C676 N675 1.351 . S
C676 C677 1.434 . S
C677 C668 1.429 . S
C677 N674 1.350 . S
C677 C676 1.434 . S
C678 C679 1.369 . S
C678 C680 1.419 . S
C678 H682 0.930 . S
C679 C678 1.369 . S
C679 C688 1.429 . S
C680 C678 1.419 . S
C680 C681 1.363 . S
C680 H683 0.929 . S
C681 C680 1.363 . S
C681 C687 1.428 . S
H682 C678 0.930 . S
H683 C680 0.929 . S
S684 N685 1.613 . S
S684 N686 1.610 . S
N685 S684 1.613 . S
N685 C688 1.350 . S
N686 S684 1.610 . S
N686 C687 1.351 . S
C687 C681 1.428 . S
C687 N686 1.351 . S
C687 C688 1.434 . S
C688 C679 1.429 . S
C688 N685 1.350 . S
C688 C687 1.434 . S
C689 C690 1.369 . S
C689 C691 1.419 . S
C689 H693 0.930 . S
C690 C689 1.369 . S
C690 C699 1.429 . S
C691 C689 1.419 . S
C691 C692 1.363 . S
C691 H694 0.929 . S
C692 C691 1.363 . S
C692 C698 1.428 . S
H693 C689 0.930 . S
H694 C691 0.929 . S
S695 N696 1.613 . S
S695 N697 1.610 . S
N696 S695 1.613 . S
N696 C699 1.350 . S
N697 S695 1.610 . S
N697 C698 1.351 . S
C698 C692 1.428 . S
C698 N697 1.351 . S
C698 C699 1.434 . S
C699 C690 1.429 . S
C699 N696 1.350 . S
C699 C698 1.434 . S
C700 C701 1.369 . S
C700 C702 1.419 . S
C700 H704 0.930 . S
C701 C700 1.369 . S
C701 C710 1.429 . S
C702 C700 1.419 . S
C702 C703 1.363 . S
C702 H705 0.929 . S
C703 C702 1.363 . S
C703 C709 1.428 . S
H704 C700 0.930 . S
H705 C702 0.929 . S
S706 N707 1.613 . S
S706 N708 1.610 . S
N707 S706 1.613 . S
N707 C710 1.350 . S
N708 S706 1.610 . S
N708 C709 1.351 . S
C709 C703 1.428 . S
C709 N708 1.351 . S
C709 C710 1.434 . S
C710 C701 1.429 . S
C710 N707 1.350 . S
C710 C709 1.434 . S
C711 C712 1.369 . S
C711 C713 1.419 . S
C711 H715 0.930 . S
C712 C711 1.369 . S
C712 C721 1.429 . S
C713 C711 1.419 . S
C713 C714 1.363 . S
C713 H716 0.929 . S
C714 C713 1.363 . S
C714 C720 1.428 . S
H715 C711 0.930 . S
H716 C713 0.929 . S
S717 N718 1.613 . S
S717 N719 1.610 . S
N718 S717 1.613 . S
N718 C721 1.350 . S
N719 S717 1.610 . S
N719 C720 1.351 . S
C720 C714 1.428 . S
C720 N719 1.351 . S
C720 C721 1.434 . S
C721 C712 1.429 . S
C721 N718 1.350 . S
C721 C720 1.434 . S
C722 C723 1.369 . S
C722 C724 1.419 . S
C722 H726 0.930 . S
C723 C722 1.369 . S
C723 C732 1.429 . S
C724 C722 1.419 . S
C724 C725 1.363 . S
C724 H727 0.929 . S
C725 C724 1.363 . S
C725 C731 1.428 . S
H726 C722 0.930 . S
H727 C724 0.929 . S
S728 N729 1.613 . S
S728 N730 1.610 . S
N729 S728 1.613 . S
N729 C732 1.350 . S
N730 S728 1.610 . S
N730 C731 1.351 . S
C731 C725 1.428 . S
C731 N730 1.351 . S
C731 C732 1.434 . S
C732 C723 1.429 . S
C732 N729 1.350 . S
C732 C731 1.434 . S
C733 C734 1.369 . S
C733 C735 1.419 . S
C733 H737 0.930 . S
C734 C733 1.369 . S
C734 C743 1.429 . S
C735 C733 1.419 . S
C735 C736 1.363 . S
C735 H738 0.929 . S
C736 C735 1.363 . S
C736 C742 1.428 . S
H737 C733 0.930 . S
H738 C735 0.929 . S
S739 N740 1.613 . S
S739 N741 1.610 . S
N740 S739 1.613 . S
N740 C743 1.350 . S
N741 S739 1.610 . S
N741 C742 1.351 . S
C742 C736 1.428 . S
C742 N741 1.351 . S
C742 C743 1.434 . S
C743 C734 1.429 . S
C743 N740 1.350 . S
C743 C742 1.434 . S
C744 C745 1.369 . S
C744 C746 1.419 . S
C744 H748 0.930 . S
C745 C744 1.369 . S
C745 C754 1.429 . S
C746 C744 1.419 . S
C746 C747 1.363 . S
C746 H749 0.929 . S
C747 C746 1.363 . S
C747 C753 1.428 . S
H748 C744 0.930 . S
H749 C746 0.929 . S
S750 N751 1.613 . S
S750 N752 1.610 . S
N751 S750 1.613 . S
N751 C754 1.350 . S
N752 S750 1.610 . S
N752 C753 1.351 . S
C753 C747 1.428 . S
C753 N752 1.351 . S
C753 C754 1.434 . S
C754 C745 1.429 . S
C754 N751 1.350 . S
C754 C753 1.434 . S
C755 C756 1.369 . S
C755 C757 1.419 . S
C755 H759 0.930 . S
C756 C755 1.369 . S
C756 C765 1.429 . S
C757 C755 1.419 . S
C757 C758 1.363 . S
C757 H760 0.929 . S
C758 C757 1.363 . S
C758 C764 1.428 . S
H759 C755 0.930 . S
H760 C757 0.929 . S
S761 N762 1.613 . S
S761 N763 1.610 . S
N762 S761 1.613 . S
N762 C765 1.350 . S
N763 S761 1.610 . S
N763 C764 1.351 . S
C764 C758 1.428 . S
C764 N763 1.351 . S
C764 C765 1.434 . S
C765 C756 1.429 . S
C765 N762 1.350 . S
C765 C764 1.434 . S
C766 C767 1.369 . S
C766 C768 1.419 . S
C766 H770 0.930 . S
C767 C766 1.369 . S
C767 C776 1.429 . S
C768 C766 1.419 . S
C768 C769 1.363 . S
C768 H771 0.929 . S
C769 C768 1.363 . S
C769 C775 1.428 . S
H770 C766 0.930 . S
H771 C768 0.929 . S
S772 N773 1.613 . S
S772 N774 1.610 . S
N773 S772 1.613 . S
N773 C776 1.350 . S
N774 S772 1.610 . S
N774 C775 1.351 . S
C775 C769 1.428 . S
C775 N774 1.351 . S
C775 C776 1.434 . S
C776 C767 1.429 . S
C776 N773 1.350 . S
C776 C775 1.434 . S
C777 C778 1.369 . S
C777 C779 1.419 . S
C777 H781 0.930 . S
C778 C777 1.369 . S
C778 C787 1.429 . S
C779 C777 1.419 . S
C779 C780 1.363 . S
C779 H782 0.929 . S
C780 C779 1.363 . S
C780 C786 1.428 . S
H781 C777 0.930 . S
H782 C779 0.929 . S
S783 N784 1.613 . S
S783 N785 1.610 . S
N784 S783 1.613 . S
N784 C787 1.350 . S
N785 S783 1.610 . S
N785 C786 1.351 . S
C786 C780 1.428 . S
C786 N785 1.351 . S
C786 C787 1.434 . S
C787 C778 1.429 . S
C787 N784 1.350 . S
C787 C786 1.434 . S
C788 C789 1.369 . S
C788 C790 1.419 . S
C788 H792 0.930 . S
C789 C788 1.369 . S
C789 C798 1.429 . S
C790 C788 1.419 . S
C790 C791 1.363 . S
C790 H793 0.929 . S
C791 C790 1.363 . S
C791 C797 1.428 . S
H792 C788 0.930 . S
H793 C790 0.929 . S
S794 N795 1.613 . S
S794 N796 1.610 . S
N795 S794 1.613 . S
N795 C798 1.350 . S
N796 S794 1.610 . S
N796 C797 1.351 . S
C797 C791 1.428 . S
C797 N796 1.351 . S
C797 C798 1.434 . S
C798 C789 1.429 . S
C798 N795 1.350 . S
C798 C797 1.434 . S
C799 C800 1.369 . S
C799 C801 1.419 . S
C799 H803 0.930 . S
C800 C799 1.369 . S
C800 C809 1.429 . S
C801 C799 1.419 . S
C801 C802 1.363 . S
C801 H804 0.929 . S
C802 C801 1.363 . S
C802 C808 1.428 . S
H803 C799 0.930 . S
H804 C801 0.929 . S
S805 N806 1.613 . S
S805 N807 1.610 . S
N806 S805 1.613 . S
N806 C809 1.350 . S
N807 S805 1.610 . S
N807 C808 1.351 . S
C808 C802 1.428 . S
C808 N807 1.351 . S
C808 C809 1.434 . S
C809 C800 1.429 . S
C809 N806 1.350 . S
C809 C808 1.434 . S
C349 C8 0.882 . S
C351 C211 0.881 . S
C360 C37 0.875 . S
C362 C240 0.888 . S
C371 C269 0.897 . S
C373 C66 0.876 . S
C382 C95 0.882 . S
C384 C298 0.881 . S
C393 C124 0.893 . S
C395 C327 0.892 . S
C404 C182 0.875 . S
C406 C153 0.888 . S
C415 C295 1.728 . S
C417 C92 1.735 . S
C426 C121 1.734 . S
C428 C324 1.730 . S
C437 C150 1.735 . S
C439 C179 1.730 . S
C448 C5 1.733 . S
C450 C208 1.731 . S
C459 C237 1.732 . S
C461 C34 1.732 . S
C470 C266 1.728 . S
C472 C63 1.735 . S
C481 C108 0.476 . S
C483 C21 0.461 . S
C492 C50 0.461 . S
C494 C137 0.473 . S
C503 C166 0.468 . S
C505 C79 0.467 . S
C514 C195 0.461 . S
C516 C282 0.473 . S
C525 C224 0.454 . S
C527 C311 0.477 . S
C536 C340 0.451 . S
C538 C253 0.478 . S
C547 C10 2.894 . S
C549 C300 2.888 . S
C558 C39 2.894 . S
C560 C329 2.888 . S
C569 C68 2.893 . S
C571 C184 2.888 . S
C580 C213 2.894 . S
C582 C97 2.888 . S
C591 C242 2.891 . S
C593 C126 2.889 . S
C602 C155 2.893 . S
C604 C271 2.891 . S
C613 C206 0.979 . S
C615 C90 0.989 . S
C624 C235 0.985 . S
C626 C119 0.983 . S
C635 C264 0.995 . S
C637 C148 0.976 . S
C646 C293 0.997 . S
C648 C3 0.974 . S
C657 C322 0.975 . S
C659 C32 0.991 . S
C668 C61 0.974 . S
C670 C177 0.992 . S
C679 C15 2.251 . S
C681 C247 2.253 . S
C690 C276 2.253 . S
C692 C44 2.253 . S
C701 C305 2.252 . S
C703 C73 2.253 . S
C712 C102 2.252 . S
C714 C334 2.253 . S
C723 C189 2.253 . S
C725 C131 2.252 . S
C734 C160 2.251 . S
C736 C218 2.252 . S
C745 C332 2.963 . S
C747 C100 2.962 1_556 S
C756 C187 2.961 . S
C758 C129 2.960 1_556 S
C767 C216 2.959 . S
C769 C158 2.961 1_556 S
C778 C245 2.959 . S
C780 C13 2.959 1_556 S
C789 C274 2.958 . S
C791 C42 2.959 1_556 S
C800 C303 2.961 . S
C802 C71 2.962 1_556 S
