# Generated by pormake.
# Topology wga, (5)-cn, num edge types: 1
# Building blocks:
#     Node 0, Type 0, BuildingBlock: BEQFEK_clean_sbu_0, # of connection points: 5
#     Node 1, Type 0, BuildingBlock: BEQFEK_clean_sbu_0, # of connection points: 5
#     Node 2, Type 0, BuildingBlock: BEQFEK_clean_sbu_0, # of connection points: 5
#     Node 3, Type 0, BuildingBlock: BEQFEK_clean_sbu_0, # of connection points: 5
#     Node 4, Type 0, BuildingBlock: BEQFEK_clean_sbu_0, # of connection points: 5
#     Node 5, Type 0, BuildingBlock: BEQFEK_clean_sbu_0, # of connection points: 5
#     Node 6, Type 0, BuildingBlock: BEQFEK_clean_sbu_0, # of connection points: 5
#     Node 7, Type 0, BuildingBlock: BEQFEK_clean_sbu_0, # of connection points: 5
#     Node 8, Type 0, BuildingBlock: BEQFEK_clean_sbu_0, # of connection points: 5
#     Node 9, Type 0, BuildingBlock: BEQFEK_clean_sbu_0, # of connection points: 5
#     Node 10, Type 0, BuildingBlock: BEQFEK_clean_sbu_0, # of connection points: 5
#     Node 11, Type 0, BuildingBlock: BEQFEK_clean_sbu_0, # of connection points: 5
#     Node 12, Type 0, BuildingBlock: BEQFEK_clean_sbu_0, # of connection points: 5
#     Node 13, Type 0, BuildingBlock: BEQFEK_clean_sbu_0, # of connection points: 5
#     Node 14, Type 0, BuildingBlock: BEQFEK_clean_sbu_0, # of connection points: 5
#     Node 15, Type 0, BuildingBlock: BEQFEK_clean_sbu_0, # of connection points: 5
#     Node 16, Type 0, BuildingBlock: BEQFEK_clean_sbu_0, # of connection points: 5
#     Node 17, Type 0, BuildingBlock: BEQFEK_clean_sbu_0, # of connection points: 5
#     Node 18, Type 0, BuildingBlock: BEQFEK_clean_sbu_0, # of connection points: 5
#     Node 19, Type 0, BuildingBlock: BEQFEK_clean_sbu_0, # of connection points: 5
#     Node 20, Type 0, BuildingBlock: BEQFEK_clean_sbu_0, # of connection points: 5
#     Node 21, Type 0, BuildingBlock: BEQFEK_clean_sbu_0, # of connection points: 5
#     Node 22, Type 0, BuildingBlock: BEQFEK_clean_sbu_0, # of connection points: 5
#     Node 23, Type 0, BuildingBlock: BEQFEK_clean_sbu_0, # of connection points: 5
#     Node 24, Type 0, BuildingBlock: BEQFEK_clean_sbu_0, # of connection points: 5
#     Node 25, Type 0, BuildingBlock: BEQFEK_clean_sbu_0, # of connection points: 5
#     Node 26, Type 0, BuildingBlock: BEQFEK_clean_sbu_0, # of connection points: 5
#     Node 27, Type 0, BuildingBlock: BEQFEK_clean_sbu_0, # of connection points: 5
#     Node 28, Type 0, BuildingBlock: BEQFEK_clean_sbu_0, # of connection points: 5
#     Node 29, Type 0, BuildingBlock: BEQFEK_clean_sbu_0, # of connection points: 5
#     Node 30, Type 0, BuildingBlock: BEQFEK_clean_sbu_0, # of connection points: 5
#     Node 31, Type 0, BuildingBlock: BEQFEK_clean_sbu_0, # of connection points: 5
#     Edge 32, Type (0, 0), BuildingBlock: OJICUG_clean_linker_0, # of connection points: 2
#     Edge 33, Type (0, 0), BuildingBlock: OJICUG_clean_linker_0, # of connection points: 2
#     Edge 34, Type (0, 0), BuildingBlock: OJICUG_clean_linker_0, # of connection points: 2
#     Edge 35, Type (0, 0), BuildingBlock: OJICUG_clean_linker_0, # of connection points: 2
#     Edge 36, Type (0, 0), BuildingBlock: OJICUG_clean_linker_0, # of connection points: 2
#     Edge 37, Type (0, 0), BuildingBlock: OJICUG_clean_linker_0, # of connection points: 2
#     Edge 38, Type (0, 0), BuildingBlock: OJICUG_clean_linker_0, # of connection points: 2
#     Edge 39, Type (0, 0), BuildingBlock: OJICUG_clean_linker_0, # of connection points: 2
#     Edge 40, Type (0, 0), BuildingBlock: OJICUG_clean_linker_0, # of connection points: 2
#     Edge 41, Type (0, 0), BuildingBlock: OJICUG_clean_linker_0, # of connection points: 2
#     Edge 42, Type (0, 0), BuildingBlock: OJICUG_clean_linker_0, # of connection points: 2
#     Edge 43, Type (0, 0), BuildingBlock: OJICUG_clean_linker_0, # of connection points: 2
#     Edge 44, Type (0, 0), BuildingBlock: OJICUG_clean_linker_0, # of connection points: 2
#     Edge 45, Type (0, 0), BuildingBlock: OJICUG_clean_linker_0, # of connection points: 2
#     Edge 46, Type (0, 0), BuildingBlock: OJICUG_clean_linker_0, # of connection points: 2
#     Edge 47, Type (0, 0), BuildingBlock: OJICUG_clean_linker_0, # of connection points: 2
#     Edge 48, Type (0, 0), BuildingBlock: OJICUG_clean_linker_0, # of connection points: 2
#     Edge 49, Type (0, 0), BuildingBlock: OJICUG_clean_linker_0, # of connection points: 2
#     Edge 50, Type (0, 0), BuildingBlock: OJICUG_clean_linker_0, # of connection points: 2
#     Edge 51, Type (0, 0), BuildingBlock: OJICUG_clean_linker_0, # of connection points: 2
#     Edge 52, Type (0, 0), BuildingBlock: OJICUG_clean_linker_0, # of connection points: 2
#     Edge 53, Type (0, 0), BuildingBlock: OJICUG_clean_linker_0, # of connection points: 2
#     Edge 54, Type (0, 0), BuildingBlock: OJICUG_clean_linker_0, # of connection points: 2
#     Edge 55, Type (0, 0), BuildingBlock: OJICUG_clean_linker_0, # of connection points: 2
#     Edge 56, Type (0, 0), BuildingBlock: OJICUG_clean_linker_0, # of connection points: 2
#     Edge 57, Type (0, 0), BuildingBlock: OJICUG_clean_linker_0, # of connection points: 2
#     Edge 58, Type (0, 0), BuildingBlock: OJICUG_clean_linker_0, # of connection points: 2
#     Edge 59, Type (0, 0), BuildingBlock: OJICUG_clean_linker_0, # of connection points: 2
#     Edge 60, Type (0, 0), BuildingBlock: OJICUG_clean_linker_0, # of connection points: 2
#     Edge 61, Type (0, 0), BuildingBlock: OJICUG_clean_linker_0, # of connection points: 2
#     Edge 62, Type (0, 0), BuildingBlock: OJICUG_clean_linker_0, # of connection points: 2
#     Edge 63, Type (0, 0), BuildingBlock: OJICUG_clean_linker_0, # of connection points: 2
#     Edge 64, Type (0, 0), BuildingBlock: OJICUG_clean_linker_0, # of connection points: 2
#     Edge 65, Type (0, 0), BuildingBlock: OJICUG_clean_linker_0, # of connection points: 2
#     Edge 66, Type (0, 0), BuildingBlock: OJICUG_clean_linker_0, # of connection points: 2
#     Edge 67, Type (0, 0), BuildingBlock: OJICUG_clean_linker_0, # of connection points: 2
#     Edge 68, Type (0, 0), BuildingBlock: OJICUG_clean_linker_0, # of connection points: 2
#     Edge 69, Type (0, 0), BuildingBlock: OJICUG_clean_linker_0, # of connection points: 2
#     Edge 70, Type (0, 0), BuildingBlock: OJICUG_clean_linker_0, # of connection points: 2
#     Edge 71, Type (0, 0), BuildingBlock: OJICUG_clean_linker_0, # of connection points: 2
#     Edge 72, Type (0, 0), BuildingBlock: OJICUG_clean_linker_0, # of connection points: 2
#     Edge 73, Type (0, 0), BuildingBlock: OJICUG_clean_linker_0, # of connection points: 2
#     Edge 74, Type (0, 0), BuildingBlock: OJICUG_clean_linker_0, # of connection points: 2
#     Edge 75, Type (0, 0), BuildingBlock: OJICUG_clean_linker_0, # of connection points: 2
#     Edge 76, Type (0, 0), BuildingBlock: OJICUG_clean_linker_0, # of connection points: 2
#     Edge 77, Type (0, 0), BuildingBlock: OJICUG_clean_linker_0, # of connection points: 2
#     Edge 78, Type (0, 0), BuildingBlock: OJICUG_clean_linker_0, # of connection points: 2
#     Edge 79, Type (0, 0), BuildingBlock: OJICUG_clean_linker_0, # of connection points: 2
#     Edge 80, Type (0, 0), BuildingBlock: OJICUG_clean_linker_0, # of connection points: 2
#     Edge 81, Type (0, 0), BuildingBlock: OJICUG_clean_linker_0, # of connection points: 2
#     Edge 82, Type (0, 0), BuildingBlock: OJICUG_clean_linker_0, # of connection points: 2
#     Edge 83, Type (0, 0), BuildingBlock: OJICUG_clean_linker_0, # of connection points: 2
#     Edge 84, Type (0, 0), BuildingBlock: OJICUG_clean_linker_0, # of connection points: 2
#     Edge 85, Type (0, 0), BuildingBlock: OJICUG_clean_linker_0, # of connection points: 2
#     Edge 86, Type (0, 0), BuildingBlock: OJICUG_clean_linker_0, # of connection points: 2
#     Edge 87, Type (0, 0), BuildingBlock: OJICUG_clean_linker_0, # of connection points: 2
#     Edge 88, Type (0, 0), BuildingBlock: OJICUG_clean_linker_0, # of connection points: 2
#     Edge 89, Type (0, 0), BuildingBlock: OJICUG_clean_linker_0, # of connection points: 2
#     Edge 90, Type (0, 0), BuildingBlock: OJICUG_clean_linker_0, # of connection points: 2
#     Edge 91, Type (0, 0), BuildingBlock: OJICUG_clean_linker_0, # of connection points: 2
#     Edge 92, Type (0, 0), BuildingBlock: OJICUG_clean_linker_0, # of connection points: 2
#     Edge 93, Type (0, 0), BuildingBlock: OJICUG_clean_linker_0, # of connection points: 2
#     Edge 94, Type (0, 0), BuildingBlock: OJICUG_clean_linker_0, # of connection points: 2
#     Edge 95, Type (0, 0), BuildingBlock: OJICUG_clean_linker_0, # of connection points: 2
#     Edge 96, Type (0, 0), BuildingBlock: OJICUG_clean_linker_0, # of connection points: 2
#     Edge 97, Type (0, 0), BuildingBlock: OJICUG_clean_linker_0, # of connection points: 2
#     Edge 98, Type (0, 0), BuildingBlock: OJICUG_clean_linker_0, # of connection points: 2
#     Edge 99, Type (0, 0), BuildingBlock: OJICUG_clean_linker_0, # of connection points: 2
#     Edge 100, Type (0, 0), BuildingBlock: OJICUG_clean_linker_0, # of connection points: 2
#     Edge 101, Type (0, 0), BuildingBlock: OJICUG_clean_linker_0, # of connection points: 2
#     Edge 102, Type (0, 0), BuildingBlock: OJICUG_clean_linker_0, # of connection points: 2
#     Edge 103, Type (0, 0), BuildingBlock: OJICUG_clean_linker_0, # of connection points: 2
#     Edge 104, Type (0, 0), BuildingBlock: OJICUG_clean_linker_0, # of connection points: 2
#     Edge 105, Type (0, 0), BuildingBlock: OJICUG_clean_linker_0, # of connection points: 2
#     Edge 106, Type (0, 0), BuildingBlock: OJICUG_clean_linker_0, # of connection points: 2
#     Edge 107, Type (0, 0), BuildingBlock: OJICUG_clean_linker_0, # of connection points: 2
#     Edge 108, Type (0, 0), BuildingBlock: OJICUG_clean_linker_0, # of connection points: 2
#     Edge 109, Type (0, 0), BuildingBlock: OJICUG_clean_linker_0, # of connection points: 2
#     Edge 110, Type (0, 0), BuildingBlock: OJICUG_clean_linker_0, # of connection points: 2
#     Edge 111, Type (0, 0), BuildingBlock: OJICUG_clean_linker_0, # of connection points: 2
# Relax obj value: 0.053
# Max RMSD: 0.134
# Mean RMSD: 0.134
data_MOF--net-wga--node1-BEQFEK_clean_sbu_0--edge1-OJICUG_clean_linker_0
_symmetry_space_group_name_H-M    P1
_symmetry_Int_Tables_number       1
_symmetry_cell_setting            triclinic
loop_
_symmetry_equiv_pos_as_xyz
'x, y, z'
_cell_length_a     80.047524
_cell_length_b     80.037619
_cell_length_c     15.452315
_cell_angle_alpha  90.012071
_cell_angle_beta   90.000778
_cell_angle_gamma 90.001286
loop_
_atom_site_label
_atom_site_type_symbol
_atom_site_fract_x
_atom_site_fract_y
_atom_site_fract_z
_atom_type_partial_charge
Co0 Co 0.06518 0.56693 0.96767 0.0
Co1 Co 0.06553 0.56122 0.16676 0.0
C2 C 0.03426 0.57152 0.07379 0.0
O3 O 0.04184 0.57211 0.00121 0.0
O4 O 0.04191 0.56748 0.14316 0.0
C5 C 0.06069 0.57885 0.78865 0.0
O6 O 0.04879 0.58904 0.81392 0.0
C7 C 0.06189 0.56575 0.35614 0.0
C8 C 0.08538 0.554 0.40044 0.0
C9 C 0.07147 0.56264 0.4294 0.0
N10 N 0.07009 0.55961 0.28708 0.0
N11 N 0.08399 0.55245 0.31424 0.0
C12 C 0.04495 0.57355 0.3514 0.0
H13 H 0.04617 0.58667 0.32907 0.0
H14 H 0.0385 0.57326 0.41488 0.0
H15 H 0.0372 0.56668 0.30406 0.0
C16 C 0.09223 0.59071 0.01265 0.0
N17 N 0.08065 0.5792 0.03376 0.0
N18 N 0.08033 0.57734 0.11825 0.0
C19 C 0.09137 0.58804 0.15401 0.0
C20 C 0.09945 0.5967 0.08835 0.0
C21 C 0.09657 0.59533 0.92154 0.0
H22 H 0.09708 0.58391 0.88092 0.0
H23 H 0.08667 0.60358 0.89513 0.0
H24 H 0.10878 0.60184 0.91788 0.0
O25 O 0.06898 0.54291 0.97948 0.0
O26 O 0.06963 0.53832 0.12033 0.0
H27 H 0.10078 0.58131 0.2787 0.0
H28 H 0.09874 0.60351 0.26262 0.0
C29 C 0.09293 0.5912 0.2492 0.0
H30 H 0.08042 0.591 0.27969 0.0
H31 H 0.09273 0.54683 0.27345 0.0
O32 O 0.06856 0.57015 0.84375 0.0
C33 C 0.07053 0.53299 0.04291 0.0
Co34 Co 0.67864 0.81513 0.2292 0.0
Co35 Co 0.68625 0.81522 0.42711 0.0
C36 C 0.67546 0.78403 0.33152 0.0
O37 O 0.67378 0.79169 0.25975 0.0
O38 O 0.68034 0.79163 0.39953 0.0
C39 C 0.66654 0.81101 0.0507 0.0
O40 O 0.65673 0.79881 0.07613 0.0
C41 C 0.67922 0.81208 0.61491 0.0
C42 C 0.69819 0.82945 0.66673 0.0
C43 C 0.6851 0.81916 0.69161 0.0
N44 N 0.68831 0.81821 0.54877 0.0
N45 N 0.69968 0.82847 0.58043 0.0
C46 C 0.6655 0.79956 0.60387 0.0
H47 H 0.66616 0.79351 0.53972 0.0
H48 H 0.65325 0.80595 0.60876 0.0
H49 H 0.66626 0.78985 0.655 0.0
C50 C 0.65453 0.84123 0.28235 0.0
N51 N 0.66665 0.83008 0.29991 0.0
N52 N 0.66987 0.83026 0.38341 0.0
C53 C 0.65988 0.84164 0.42172 0.0
C54 C 0.6498 0.84888 0.3591 0.0
C55 C 0.64723 0.84384 0.1943 0.0
H56 H 0.64419 0.83155 0.165 0.0
H57 H 0.63579 0.85165 0.19673 0.0
H58 H 0.65666 0.84998 0.15238 0.0
O59 O 0.70284 0.81894 0.23826 0.0
O60 O 0.7087 0.81991 0.37788 0.0
H61 H 0.65321 0.85763 0.52968 0.0
H62 H 0.65522 0.8357 0.55429 0.0
C63 C 0.66046 0.84613 0.51571 0.0
H64 H 0.67358 0.84819 0.53577 0.0
H65 H 0.70828 0.83505 0.54282 0.0
O66 O 0.67495 0.81922 0.10576 0.0
C67 C 0.7133 0.82072 0.29923 0.0
Co68 Co 0.43152 0.42822 0.46628 0.0
Co69 Co 0.43097 0.43537 0.66538 0.0
C70 C 0.46233 0.42474 0.57569 0.0
O71 O 0.4548 0.42359 0.50326 0.0
O72 O 0.45463 0.42923 0.64406 0.0
C73 C 0.44073 0.42597 0.29045 0.0
O74 O 0.45495 0.43162 0.32118 0.0
C75 C 0.43512 0.4311 0.85358 0.0
C76 C 0.41364 0.44562 0.90285 0.0
C77 C 0.42691 0.43573 0.92892 0.0
N78 N 0.42699 0.43789 0.78607 0.0
N79 N 0.41426 0.44667 0.81605 0.0
C80 C 0.44942 0.41917 0.84484 0.0
H81 H 0.44824 0.41192 0.78394 0.0
H82 H 0.44993 0.41044 0.9006 0.0
H83 H 0.46126 0.42636 0.84235 0.0
C84 C 0.40453 0.40478 0.51636 0.0
N85 N 0.4161 0.41641 0.53553 0.0
N86 N 0.41627 0.41892 0.61964 0.0
C87 C 0.40504 0.40867 0.65707 0.0
C88 C 0.39711 0.39945 0.59287 0.0
C89 C 0.40029 0.39951 0.42606 0.0
H90 H 0.39979 0.41063 0.38334 0.0
H91 H 0.41025 0.39111 0.40146 0.0
H92 H 0.38811 0.39293 0.42325 0.0
O93 O 0.42739 0.45243 0.47235 0.0
O94 O 0.42671 0.45767 0.61304 0.0
H95 H 0.3961 0.41771 0.77874 0.0
H96 H 0.39602 0.39521 0.76976 0.0
C97 C 0.40295 0.40675 0.75286 0.0
H98 H 0.41537 0.40618 0.78412 0.0
H99 H 0.40578 0.45309 0.77698 0.0
O100 O 0.42895 0.42261 0.34272 0.0
C101 C 0.42576 0.46261 0.53489 0.0
Co102 Co 0.81783 0.18149 0.72792 0.0
Co103 Co 0.80904 0.18105 0.92638 0.0
C104 C 0.82063 0.2123 0.83662 0.0
O105 O 0.82236 0.20475 0.76452 0.0
O106 O 0.81551 0.20465 0.90398 0.0
C107 C 0.82215 0.1903 0.55094 0.0
O108 O 0.81863 0.20528 0.58062 0.0
C109 C 0.81464 0.18474 0.11377 0.0
C110 C 0.79668 0.16644 0.1668 0.0
C111 C 0.809 0.17771 0.19056 0.0
N112 N 0.80611 0.17784 0.04783 0.0
N113 N 0.79529 0.16704 0.08008 0.0
C114 C 0.8288 0.19673 0.10207 0.0
H115 H 0.83484 0.19474 0.03825 0.0
H116 H 0.83817 0.19526 0.15446 0.0
H117 H 0.82386 0.20968 0.10404 0.0
C118 C 0.84131 0.15508 0.78438 0.0
N119 N 0.82917 0.16629 0.80059 0.0
N120 N 0.82565 0.16614 0.88384 0.0
C121 C 0.83553 0.15481 0.92329 0.0
C122 C 0.84577 0.1475 0.86168 0.0
C123 C 0.84891 0.15237 0.69707 0.0
H124 H 0.85231 0.16461 0.66827 0.0
H125 H 0.86017 0.14431 0.7006 0.0
H126 H 0.83952 0.14645 0.65405 0.0
O127 O 0.79356 0.17756 0.73144 0.0
O128 O 0.78705 0.17677 0.87072 0.0
H129 H 0.84264 0.1396 0.03348 0.0
H130 H 0.83928 0.16147 0.05577 0.0
C131 C 0.83483 0.15063 0.01761 0.0
H132 H 0.82176 0.14791 0.03638 0.0
H133 H 0.78722 0.15978 0.04264 0.0
O134 O 0.82364 0.17827 0.60413 0.0
C135 C 0.78282 0.17591 0.79139 0.0
Co136 Co 0.06421 0.42778 0.03365 0.0
Co137 Co 0.0648 0.43544 0.83472 0.0
C138 C 0.03341 0.42468 0.92357 0.0
O139 O 0.04091 0.42329 0.99603 0.0
O140 O 0.04116 0.42935 0.85568 0.0
C141 C 0.05507 0.42577 0.20938 0.0
O142 O 0.04101 0.43176 0.1783 0.0
C143 C 0.06057 0.43143 0.64625 0.0
C144 C 0.08203 0.446 0.5971 0.0
C145 C 0.06877 0.43611 0.57091 0.0
N146 N 0.06871 0.4382 0.71388 0.0
N147 N 0.08142 0.44701 0.68395 0.0
C148 C 0.04632 0.41945 0.65482 0.0
H149 H 0.0475 0.4122 0.7157 0.0
H150 H 0.04586 0.41073 0.59903 0.0
H151 H 0.03445 0.4266 0.65719 0.0
C152 C 0.09122 0.40442 0.98143 0.0
N153 N 0.07964 0.41611 0.96334 0.0
N154 N 0.07943 0.41883 0.87938 0.0
C155 C 0.09062 0.40866 0.84102 0.0
C156 C 0.09859 0.39928 0.90439 0.0
C157 C 0.09549 0.39888 0.07124 0.0
H158 H 0.09582 0.40985 0.11511 0.0
H159 H 0.08565 0.39025 0.09484 0.0
H160 H 0.10777 0.39246 0.07345 0.0
O161 O 0.06834 0.45201 0.02938 0.0
O162 O 0.06918 0.45755 0.88902 0.0
H163 H 0.09942 0.41797 0.71962 0.0
H164 H 0.0995 0.39545 0.72722 0.0
C165 C 0.09261 0.40696 0.74506 0.0
H166 H 0.08015 0.40643 0.71417 0.0
H167 H 0.08991 0.45341 0.72306 0.0
O168 O 0.06676 0.422 0.15724 0.0
C169 C 0.07007 0.46232 0.96753 0.0
Co170 Co 0.81828 0.81441 0.27382 0.0
Co171 Co 0.80965 0.81522 0.07531 0.0
C172 C 0.82089 0.78373 0.16427 0.0
O173 O 0.82264 0.79114 0.23676 0.0
O174 O 0.81591 0.79155 0.09715 0.0
C175 C 0.82269 0.80554 0.45107 0.0
O176 O 0.81925 0.79052 0.42179 0.0
C177 C 0.81541 0.8116 0.88815 0.0
C178 C 0.79743 0.82983 0.83469 0.0
C179 C 0.80977 0.81857 0.81121 0.0
N180 N 0.80684 0.81852 0.9539 0.0
N181 N 0.79602 0.82929 0.92141 0.0
C182 C 0.82957 0.79962 0.90015 0.0
H183 H 0.8356 0.80166 0.96397 0.0
H184 H 0.83894 0.80105 0.84776 0.0
H185 H 0.82463 0.78668 0.89845 0.0
C186 C 0.84199 0.84072 0.2188 0.0
N187 N 0.82983 0.82958 0.20184 0.0
N188 N 0.82632 0.82994 0.11861 0.0
C189 C 0.83618 0.84138 0.07993 0.0
C190 C 0.84645 0.84853 0.14204 0.0
C191 C 0.84958 0.84321 0.30633 0.0
H192 H 0.85248 0.83088 0.33554 0.0
H193 H 0.86115 0.85082 0.303 0.0
H194 H 0.84037 0.84954 0.34885 0.0
O195 O 0.79402 0.81856 0.27006 0.0
O196 O 0.78767 0.81964 0.13062 0.0
H197 H 0.84289 0.85716 0.97115 0.0
H198 H 0.83982 0.83533 0.94657 0.0
C199 C 0.83528 0.84595 0.98612 0.0
H200 H 0.82214 0.84855 0.96818 0.0
H201 H 0.7879 0.83653 0.95866 0.0
O202 O 0.82406 0.81754 0.39764 0.0
C203 C 0.78336 0.82042 0.20986 0.0
Co204 Co 0.43093 0.56786 0.52711 0.0
Co205 Co 0.43056 0.56032 0.32804 0.0
C206 C 0.46178 0.57136 0.41877 0.0
O207 O 0.45419 0.57256 0.49099 0.0
O208 O 0.45417 0.56672 0.35034 0.0
C209 C 0.43991 0.57239 0.70385 0.0
O210 O 0.45496 0.56913 0.67438 0.0
C211 C 0.43415 0.56604 0.14096 0.0
C212 C 0.41534 0.54854 0.08846 0.0
C213 C 0.42692 0.56054 0.06445 0.0
N214 N 0.42707 0.55772 0.20703 0.0
N215 N 0.41596 0.54718 0.17515 0.0
C216 C 0.44656 0.57984 0.15228 0.0
H217 H 0.4447 0.58607 0.21573 0.0
H218 H 0.44545 0.58916 0.09938 0.0
H219 H 0.45935 0.57449 0.15101 0.0
C220 C 0.40444 0.59158 0.47478 0.0
N221 N 0.41571 0.5796 0.45652 0.0
N222 N 0.41563 0.57667 0.37271 0.0
C223 C 0.40433 0.58679 0.33484 0.0
C224 C 0.3969 0.59656 0.3982 0.0
C225 C 0.40166 0.59858 0.56338 0.0
H226 H 0.41384 0.60224 0.59197 0.0
H227 H 0.39322 0.60958 0.5621 0.0
H228 H 0.39617 0.58875 0.60529 0.0
O229 O 0.42696 0.54356 0.52114 0.0
O230 O 0.4264 0.5381 0.38067 0.0
H231 H 0.38961 0.59505 0.22493 0.0
H232 H 0.4114 0.59102 0.2033 0.0
C233 C 0.40032 0.58678 0.24023 0.0
H234 H 0.39719 0.57391 0.21939 0.0
H235 H 0.40855 0.53929 0.21281 0.0
O236 O 0.42783 0.57346 0.65076 0.0
C237 C 0.42544 0.53327 0.45897 0.0
Co238 Co 0.67794 0.18136 0.76124 0.0
Co239 Co 0.68668 0.18085 0.56274 0.0
C240 C 0.67508 0.21212 0.65245 0.0
O241 O 0.67337 0.2046 0.72461 0.0
O242 O 0.68018 0.20445 0.58509 0.0
C243 C 0.67349 0.19018 0.93833 0.0
O244 O 0.67684 0.2052 0.90884 0.0
C245 C 0.68098 0.1845 0.37546 0.0
C246 C 0.699 0.16628 0.32219 0.0
C247 C 0.68663 0.17751 0.29859 0.0
N248 N 0.68955 0.17762 0.44129 0.0
N249 N 0.70041 0.16687 0.40891 0.0
C250 C 0.66678 0.19643 0.38735 0.0
H251 H 0.66076 0.19441 0.4512 0.0
H252 H 0.6574 0.19494 0.33501 0.0
H253 H 0.67166 0.2094 0.38546 0.0
C254 C 0.65451 0.15492 0.7053 0.0
N255 N 0.6666 0.16614 0.68877 0.0
N256 N 0.6701 0.16594 0.60551 0.0
C257 C 0.66025 0.15454 0.56635 0.0
C258 C 0.65005 0.14724 0.6282 0.0
C259 C 0.64694 0.15226 0.79273 0.0
H260 H 0.64368 0.16452 0.82172 0.0
H261 H 0.63559 0.14431 0.78935 0.0
H262 H 0.6563 0.14623 0.83551 0.0
O263 O 0.70222 0.17747 0.75752 0.0
O264 O 0.7087 0.17662 0.61821 0.0
H265 H 0.65324 0.13916 0.4566 0.0
H266 H 0.65647 0.16103 0.43367 0.0
C267 C 0.66098 0.15025 0.47215 0.0
H268 H 0.67407 0.1476 0.45348 0.0
H269 H 0.70853 0.15965 0.44624 0.0
O270 O 0.67216 0.17814 0.88503 0.0
C271 C 0.71295 0.17581 0.69753 0.0
Co272 Co 0.93062 0.42865 0.03043 0.0
Co273 Co 0.93018 0.43549 0.83123 0.0
C274 C 0.96145 0.42489 0.92114 0.0
O275 O 0.95387 0.42389 0.99348 0.0
O276 O 0.95382 0.42929 0.85244 0.0
C277 C 0.93987 0.42638 0.20617 0.0
O278 O 0.9541 0.43202 0.17542 0.0
C279 C 0.93432 0.43124 0.64306 0.0
C280 C 0.91268 0.44557 0.59405 0.0
C281 C 0.92604 0.43582 0.56784 0.0
N282 N 0.92614 0.43796 0.71065 0.0
N283 N 0.91332 0.44661 0.68084 0.0
C284 C 0.94873 0.41945 0.65163 0.0
H285 H 0.94758 0.4121 0.71218 0.0
H286 H 0.9494 0.41082 0.59553 0.0
H287 H 0.96049 0.42677 0.65479 0.0
C288 C 0.90356 0.40522 0.98098 0.0
N289 N 0.91516 0.41681 0.96155 0.0
N290 N 0.91542 0.41915 0.87733 0.0
C291 C 0.90424 0.40881 0.84008 0.0
C292 C 0.89623 0.39972 0.90453 0.0
C293 C 0.89922 0.40013 0.07143 0.0
H294 H 0.89883 0.41132 0.11376 0.0
H295 H 0.90907 0.39165 0.09643 0.0
H296 H 0.88696 0.3937 0.0743 0.0
O297 O 0.9266 0.45287 0.02395 0.0
O298 O 0.92606 0.45786 0.88304 0.0
H299 H 0.89534 0.41743 0.71755 0.0
H300 H 0.8956 0.39496 0.72789 0.0
C301 C 0.90232 0.40664 0.74434 0.0
H302 H 0.9148 0.40619 0.71357 0.0
H303 H 0.90479 0.45294 0.72002 0.0
O304 O 0.92807 0.42307 0.15395 0.0
C305 C 0.92509 0.46296 0.96093 0.0
Co306 Co 0.319 0.18188 0.78113 0.0
Co307 Co 0.31073 0.18088 0.58242 0.0
C308 C 0.32185 0.21244 0.6706 0.0
O309 O 0.32347 0.20514 0.74346 0.0
O310 O 0.31698 0.20453 0.6036 0.0
C311 C 0.32317 0.19082 0.95831 0.0
O312 O 0.31944 0.20578 0.92909 0.0
C313 C 0.31637 0.18449 0.39526 0.0
C314 C 0.2987 0.16592 0.34217 0.0
C315 C 0.3108 0.17741 0.31847 0.0
N316 N 0.30799 0.17742 0.46117 0.0
N317 N 0.29734 0.16644 0.42892 0.0
C318 C 0.33031 0.19674 0.40693 0.0
H319 H 0.3365 0.19476 0.47037 0.0
H320 H 0.33962 0.19556 0.35406 0.0
H321 H 0.3251 0.20958 0.40585 0.0
C322 C 0.34263 0.15529 0.72771 0.0
N323 N 0.33058 0.16652 0.71003 0.0
N324 N 0.32729 0.16619 0.62657 0.0
C325 C 0.33722 0.15476 0.5884 0.0
C326 C 0.34726 0.14752 0.65112 0.0
C327 C 0.34995 0.15268 0.81574 0.0
H328 H 0.35346 0.16493 0.84396 0.0
H329 H 0.36108 0.14443 0.81357 0.0
H330 H 0.34034 0.14703 0.85847 0.0
O331 O 0.29468 0.17785 0.77722 0.0
O332 O 0.28875 0.17657 0.63733 0.0
H333 H 0.32365 0.1474 0.47547 0.0
H334 H 0.34465 0.13942 0.47914 0.0
C335 C 0.33667 0.15036 0.4943 0.0
H336 H 0.34095 0.1612 0.4556 0.0
H337 H 0.28938 0.15906 0.46634 0.0
O338 O 0.32477 0.17885 0.90486 0.0
C339 C 0.2842 0.17594 0.71623 0.0
Co340 Co 0.56433 0.56868 0.53387 0.0
Co341 Co 0.56526 0.56061 0.33505 0.0
C342 C 0.53373 0.57162 0.42356 0.0
O343 O 0.54107 0.57314 0.49637 0.0
O344 O 0.5416 0.56682 0.35629 0.0
C345 C 0.55536 0.57283 0.71094 0.0
O346 O 0.54042 0.56907 0.68165 0.0
C347 C 0.56165 0.56622 0.14789 0.0
C348 C 0.5804 0.54871 0.09503 0.0
C349 C 0.5688 0.56071 0.07121 0.0
N350 N 0.56877 0.55791 0.21388 0.0
N351 N 0.57986 0.54737 0.18178 0.0
C352 C 0.54926 0.58004 0.1594 0.0
H353 H 0.55118 0.58628 0.22277 0.0
H354 H 0.55035 0.58934 0.10643 0.0
H355 H 0.53647 0.57471 0.15838 0.0
C356 C 0.59084 0.59241 0.48101 0.0
N357 N 0.57964 0.58035 0.46305 0.0
N358 N 0.57992 0.57717 0.37947 0.0
C359 C 0.59129 0.5872 0.34149 0.0
C360 C 0.59854 0.59717 0.40449 0.0
C361 C 0.59349 0.59962 0.56927 0.0
H362 H 0.58126 0.60323 0.5974 0.0
H363 H 0.60184 0.61067 0.56751 0.0
H364 H 0.59902 0.58991 0.61184 0.0
O365 O 0.56845 0.54438 0.5295 0.0
O366 O 0.56961 0.53858 0.38945 0.0
H367 H 0.60639 0.59502 0.23207 0.0
H368 H 0.58464 0.591 0.20902 0.0
C369 C 0.59559 0.58684 0.24725 0.0
H370 H 0.59873 0.57389 0.22786 0.0
H371 H 0.5873 0.53948 0.2193 0.0
O372 O 0.56734 0.57442 0.65757 0.0
C373 C 0.57034 0.53396 0.46821 0.0
Co374 Co 0.17813 0.81459 0.26437 0.0
Co375 Co 0.18646 0.8152 0.0657 0.0
C376 C 0.17531 0.78381 0.15538 0.0
O377 O 0.17371 0.79131 0.22769 0.0
O378 O 0.1802 0.79153 0.08779 0.0
C379 C 0.17373 0.80567 0.44138 0.0
O380 O 0.17719 0.79067 0.41192 0.0
C381 C 0.18078 0.81152 0.8785 0.0
C382 C 0.19844 0.83011 0.82549 0.0
C383 C 0.18631 0.81864 0.80175 0.0
N384 N 0.1892 0.81855 0.94441 0.0
N385 N 0.19984 0.82954 0.9122 0.0
C386 C 0.16683 0.79929 0.8902 0.0
H387 H 0.16071 0.80121 0.9539 0.0
H388 H 0.15746 0.80055 0.83765 0.0
H389 H 0.172 0.78643 0.88856 0.0
C390 C 0.15433 0.84085 0.20986 0.0
N391 N 0.16651 0.82974 0.19269 0.0
N392 N 0.16982 0.82996 0.10924 0.0
C393 C 0.15976 0.84121 0.07057 0.0
C394 C 0.14962 0.84844 0.13296 0.0
C395 C 0.14691 0.84345 0.29769 0.0
H396 H 0.14357 0.83117 0.32621 0.0
H397 H 0.13565 0.85151 0.29511 0.0
H398 H 0.1564 0.8493 0.34042 0.0
O399 O 0.20238 0.81872 0.25992 0.0
O400 O 0.20852 0.81958 0.1202 0.0
H401 H 0.15214 0.85629 0.96077 0.0
H402 H 0.15586 0.83448 0.9383 0.0
C403 C 0.16018 0.84541 0.97621 0.0
H404 H 0.17316 0.84836 0.95672 0.0
H405 H 0.20781 0.8369 0.94964 0.0
O406 O 0.17238 0.81771 0.38813 0.0
C407 C 0.21295 0.82045 0.19921 0.0
Co408 Co 0.9314 0.56809 0.96333 0.0
Co409 Co 0.93092 0.56114 0.16248 0.0
C410 C 0.96226 0.57163 0.07256 0.0
O411 O 0.95471 0.5727 0.00015 0.0
O412 O 0.95457 0.56724 0.14113 0.0
C413 C 0.94061 0.57024 0.78761 0.0
O414 O 0.95478 0.56447 0.81841 0.0
C415 C 0.93507 0.56534 0.35073 0.0
C416 C 0.91344 0.55099 0.39966 0.0
C417 C 0.9268 0.56074 0.42593 0.0
N418 N 0.9269 0.55863 0.28309 0.0
N419 N 0.91408 0.54997 0.31285 0.0
C420 C 0.94948 0.57713 0.34225 0.0
H421 H 0.94838 0.58444 0.28152 0.0
H422 H 0.95008 0.5858 0.39821 0.0
H423 H 0.96125 0.56983 0.33958 0.0
C424 C 0.90439 0.59158 0.01327 0.0
N425 N 0.916 0.57999 0.03248 0.0
N426 N 0.91624 0.57757 0.11665 0.0
C427 C 0.90504 0.58787 0.15408 0.0
C428 C 0.89704 0.597 0.08982 0.0
C429 C 0.90005 0.59673 0.92292 0.0
H430 H 0.89964 0.58557 0.88042 0.0
H431 H 0.9099 0.60521 0.89801 0.0
H432 H 0.8878 0.60318 0.92021 0.0
O433 O 0.92721 0.54388 0.96956 0.0
O434 O 0.92662 0.53884 0.11042 0.0
H435 H 0.8961 0.57907 0.27619 0.0
H436 H 0.89629 0.60155 0.26657 0.0
C437 C 0.90306 0.58991 0.24986 0.0
H438 H 0.91552 0.59037 0.28084 0.0
H439 H 0.90556 0.54364 0.27364 0.0
O440 O 0.92885 0.5737 0.83982 0.0
C441 C 0.9256 0.53379 0.03248 0.0
Co442 Co 0.17989 0.18122 0.72288 0.0
Co443 Co 0.18556 0.18209 0.92189 0.0
C444 C 0.17566 0.21277 0.83096 0.0
O445 O 0.17498 0.20476 0.75958 0.0
O446 O 0.17979 0.20555 0.90111 0.0
C447 C 0.17941 0.19013 0.54877 0.0
O448 O 0.18711 0.20321 0.58119 0.0
C449 C 0.1827 0.18626 0.11138 0.0
C450 C 0.19244 0.16185 0.15569 0.0
C451 C 0.18567 0.17673 0.18482 0.0
N452 N 0.1875 0.17733 0.04196 0.0
N453 N 0.19339 0.16282 0.069 0.0
C454 C 0.17404 0.2028 0.10624 0.0
H455 H 0.16564 0.20313 0.04923 0.0
H456 H 0.16661 0.20533 0.16544 0.0
H457 H 0.18354 0.21279 0.09839 0.0
C458 C 0.1582 0.15268 0.77365 0.0
N459 N 0.16845 0.16552 0.79177 0.0
N460 N 0.16878 0.16795 0.87541 0.0
C461 C 0.15734 0.15806 0.91325 0.0
C462 C 0.15038 0.1474 0.85057 0.0
C463 C 0.15754 0.14502 0.6853 0.0
H464 H 0.16875 0.14858 0.64737 0.0
H465 H 0.14634 0.14963 0.65043 0.0
H466 H 0.15716 0.13119 0.68972 0.0
O467 O 0.20379 0.1773 0.7294 0.0
O468 O 0.20827 0.17756 0.8708 0.0
H469 H 0.15844 0.15254 0.04895 0.0
H470 H 0.13797 0.15895 0.01062 0.0
C471 C 0.15162 0.16099 0.00434 0.0
H472 H 0.15424 0.17406 0.02367 0.0
H473 H 0.19773 0.15343 0.02791 0.0
O474 O 0.17413 0.17887 0.59979 0.0
C475 C 0.21363 0.17611 0.79342 0.0
Co476 Co 0.56514 0.42947 0.46977 0.0
Co477 Co 0.56567 0.43514 0.6689 0.0
C478 C 0.53432 0.42489 0.57645 0.0
O479 O 0.54183 0.42429 0.50371 0.0
O480 O 0.54202 0.42893 0.64566 0.0
C481 C 0.56086 0.41737 0.29059 0.0
O482 O 0.54933 0.40675 0.31579 0.0
C483 C 0.56215 0.43042 0.85816 0.0
C484 C 0.58556 0.44231 0.90259 0.0
C485 C 0.57171 0.43356 0.93143 0.0
N486 N 0.57029 0.43665 0.78918 0.0
N487 N 0.58415 0.44389 0.81641 0.0
C488 C 0.54527 0.42247 0.85337 0.0
H489 H 0.54659 0.40941 0.83017 0.0
H490 H 0.53887 0.42256 0.91699 0.0
H491 H 0.53742 0.42938 0.80663 0.0
C492 C 0.59215 0.40563 0.51374 0.0
N493 N 0.58064 0.41716 0.53529 0.0
N494 N 0.58041 0.419 0.61981 0.0
C495 C 0.59146 0.40827 0.65516 0.0
C496 C 0.59944 0.3996 0.58917 0.0
C497 C 0.59639 0.40103 0.42247 0.0
H498 H 0.59688 0.41244 0.38194 0.0
H499 H 0.58644 0.3928 0.39627 0.0
H500 H 0.60858 0.39448 0.4184 0.0
O501 O 0.569 0.45346 0.48197 0.0
O502 O 0.5698 0.45806 0.62282 0.0
H503 H 0.60094 0.41503 0.77968 0.0
H504 H 0.59899 0.39281 0.7635 0.0
C505 C 0.59312 0.4051 0.75028 0.0
H506 H 0.58063 0.40524 0.78104 0.0
H507 H 0.59284 0.4496 0.77569 0.0
O508 O 0.5684 0.42634 0.34573 0.0
C509 C 0.57064 0.46338 0.54537 0.0
Co510 Co 0.31796 0.81507 0.22217 0.0
Co511 Co 0.30962 0.81563 0.42084 0.0
C512 C 0.32096 0.7843 0.33105 0.0
O513 O 0.32253 0.79181 0.25875 0.0
O514 O 0.31603 0.79201 0.39864 0.0
C515 C 0.32244 0.80619 0.04513 0.0
O516 O 0.31913 0.79115 0.07452 0.0
C517 C 0.31535 0.81201 0.60802 0.0
C518 C 0.29751 0.83042 0.66114 0.0
C519 C 0.30976 0.81907 0.68481 0.0
N520 N 0.30686 0.81896 0.54215 0.0
N521 N 0.29611 0.82984 0.57443 0.0
C522 C 0.32942 0.79991 0.59626 0.0
H523 H 0.3355 0.80188 0.53252 0.0
H524 H 0.33878 0.80127 0.64876 0.0
H525 H 0.32437 0.787 0.59794 0.0
C526 C 0.34155 0.84153 0.2767 0.0
N527 N 0.32947 0.83031 0.29387 0.0
N528 N 0.32614 0.83052 0.37731 0.0
C529 C 0.33609 0.84189 0.41596 0.0
C530 C 0.34617 0.84919 0.35358 0.0
C531 C 0.34896 0.84417 0.18889 0.0
H532 H 0.35235 0.83192 0.16028 0.0
H533 H 0.36019 0.85228 0.19154 0.0
H534 H 0.33945 0.85 0.14621 0.0
O535 O 0.29367 0.81904 0.22667 0.0
O536 O 0.28753 0.81986 0.36638 0.0
H537 H 0.32255 0.84892 0.5296 0.0
H538 H 0.34348 0.85711 0.52567 0.0
C539 C 0.33558 0.84613 0.51027 0.0
H540 H 0.34002 0.83527 0.54835 0.0
H541 H 0.28807 0.83712 0.53703 0.0
O542 O 0.32368 0.81824 0.09843 0.0
C543 C 0.28309 0.8207 0.28737 0.0
Co544 Co 0.56463 0.06753 0.45951 0.0
Co545 Co 0.56563 0.06159 0.65858 0.0
C546 C 0.53404 0.07187 0.56801 0.0
O547 O 0.54135 0.07267 0.49473 0.0
O548 O 0.54196 0.06772 0.63634 0.0
C549 C 0.56101 0.0801 0.27966 0.0
O550 O 0.55033 0.09162 0.30422 0.0
C551 C 0.56238 0.06663 0.84769 0.0
C552 C 0.58528 0.05388 0.89274 0.0
C553 C 0.57177 0.0632 0.92116 0.0
N554 N 0.57029 0.06 0.77896 0.0
N555 N 0.58385 0.05226 0.80656 0.0
C556 C 0.54585 0.07527 0.84247 0.0
H557 H 0.54766 0.08809 0.81672 0.0
H558 H 0.53958 0.07589 0.90634 0.0
H559 H 0.53762 0.06839 0.79746 0.0
C560 C 0.59189 0.09124 0.50333 0.0
N561 N 0.58032 0.07975 0.52486 0.0
N562 N 0.58026 0.07775 0.60931 0.0
C563 C 0.59147 0.08831 0.64462 0.0
C564 C 0.59939 0.09704 0.5787 0.0
C565 C 0.59599 0.09599 0.41212 0.0
H566 H 0.59629 0.08466 0.37088 0.0
H567 H 0.58607 0.10437 0.38696 0.0
H568 H 0.60823 0.10244 0.40782 0.0
O569 O 0.56843 0.04348 0.47075 0.0
O570 O 0.56978 0.03878 0.6114 0.0
H571 H 0.60089 0.08098 0.76842 0.0
H572 H 0.59964 0.1033 0.75368 0.0
C573 C 0.59338 0.09123 0.73985 0.0
H574 H 0.58093 0.09144 0.77098 0.0
H575 H 0.59232 0.04616 0.76611 0.0
O576 O 0.56774 0.0706 0.33521 0.0
C577 C 0.57033 0.03352 0.53375 0.0
Co578 Co 0.17804 0.3156 0.71768 0.0
Co579 Co 0.18593 0.31602 0.91663 0.0
C580 C 0.17495 0.28473 0.82568 0.0
O581 O 0.17358 0.29224 0.75332 0.0
O582 O 0.1796 0.29244 0.89378 0.0
C583 C 0.17327 0.30672 0.54079 0.0
O584 O 0.17629 0.29162 0.57011 0.0
C585 C 0.18014 0.31239 0.10371 0.0
C586 C 0.19794 0.33087 0.15665 0.0
C587 C 0.18572 0.3195 0.18039 0.0
N588 N 0.18862 0.31935 0.03781 0.0
N589 N 0.19934 0.33026 0.06997 0.0
C590 C 0.16612 0.30025 0.09204 0.0
H591 H 0.16012 0.30208 0.02799 0.0
H592 H 0.15668 0.30169 0.14415 0.0
H593 H 0.17118 0.28735 0.09464 0.0
C594 C 0.15419 0.3419 0.77184 0.0
N595 N 0.1663 0.33073 0.7892 0.0
N596 N 0.16947 0.33087 0.8728 0.0
C597 C 0.15939 0.34212 0.91137 0.0
C598 C 0.14938 0.34943 0.84878 0.0
C599 C 0.14693 0.34464 0.68377 0.0
H600 H 0.14346 0.33242 0.65499 0.0
H601 H 0.13577 0.35286 0.68605 0.0
H602 H 0.15655 0.35038 0.64147 0.0
O603 O 0.20234 0.31968 0.72313 0.0
O604 O 0.20806 0.3203 0.86333 0.0
H605 H 0.15167 0.35713 0.02127 0.0
H606 H 0.15525 0.33528 0.04329 0.0
C607 C 0.15969 0.34623 0.00586 0.0
H608 H 0.17265 0.3491 0.02598 0.0
H609 H 0.20736 0.33756 0.0325 0.0
O610 O 0.17238 0.31881 0.59402 0.0
C611 C 0.21274 0.32126 0.78478 0.0
Co612 Co 0.92994 0.92971 0.9691 0.0
Co613 Co 0.9303 0.93505 0.16826 0.0
C614 C 0.96118 0.92476 0.07311 0.0
O615 O 0.95335 0.9245 0.00122 0.0
O616 O 0.95381 0.92862 0.14358 0.0
C617 C 0.9353 0.91852 0.79095 0.0
O618 O 0.94819 0.90972 0.81714 0.0
C619 C 0.93431 0.93121 0.35786 0.0
C620 C 0.91017 0.94171 0.40133 0.0
C621 C 0.92454 0.93394 0.43091 0.0
N622 N 0.92579 0.93669 0.28844 0.0
N623 N 0.9115 0.94314 0.31509 0.0
C624 C 0.95171 0.92445 0.35361 0.0
H625 H 0.95892 0.93139 0.30426 0.0
H626 H 0.95126 0.9111 0.33435 0.0
H627 H 0.95822 0.92568 0.41663 0.0
C628 C 0.90312 0.90577 0.01535 0.0
N629 N 0.91468 0.91733 0.03587 0.0
N630 N 0.91538 0.91898 0.12041 0.0
C631 C 0.90463 0.90807 0.15675 0.0
C632 C 0.89631 0.89952 0.09149 0.0
C633 C 0.89846 0.90129 0.92448 0.0
H634 H 0.89783 0.91275 0.88432 0.0
H635 H 0.90827 0.89306 0.89688 0.0
H636 H 0.88624 0.89478 0.92175 0.0
O637 O 0.9261 0.95374 0.9814 0.0
O638 O 0.92618 0.95796 0.12261 0.0
H639 H 0.89541 0.91386 0.2831 0.0
H640 H 0.8985 0.89188 0.26442 0.0
C641 C 0.90365 0.90451 0.25177 0.0
H642 H 0.91625 0.90524 0.28101 0.0
H643 H 0.90247 0.94815 0.27391 0.0
O644 O 0.92639 0.92631 0.84548 0.0
C645 C 0.92489 0.96349 0.04576 0.0
Co646 Co 0.31813 0.68162 0.22007 0.0
Co647 Co 0.31038 0.68083 0.4189 0.0
C648 C 0.32115 0.71233 0.3305 0.0
O649 O 0.32261 0.70487 0.25799 0.0
O650 O 0.31643 0.70455 0.39819 0.0
C651 C 0.32014 0.69078 0.04412 0.0
O652 O 0.31421 0.70488 0.075 0.0
C653 C 0.31454 0.68504 0.60724 0.0
C654 C 0.3 0.66359 0.65674 0.0
C655 C 0.30991 0.67687 0.68271 0.0
N656 N 0.30773 0.67689 0.53977 0.0
N657 N 0.29894 0.66418 0.56991 0.0
C658 C 0.32652 0.69929 0.59836 0.0
H659 H 0.33379 0.69804 0.53758 0.0
H660 H 0.33522 0.69982 0.65421 0.0
H661 H 0.31937 0.71115 0.59552 0.0
C662 C 0.34154 0.65469 0.27124 0.0
N663 N 0.3298 0.66618 0.28987 0.0
N664 N 0.32703 0.66623 0.37379 0.0
C665 C 0.33724 0.655 0.41164 0.0
C666 C 0.34669 0.64721 0.3479 0.0
C667 C 0.34709 0.65059 0.18121 0.0
H668 H 0.3361 0.65011 0.1376 0.0
H669 H 0.35552 0.66061 0.15765 0.0
H670 H 0.35372 0.63843 0.17848 0.0
O671 O 0.29396 0.67743 0.2248 0.0
O672 O 0.28819 0.67648 0.3649 0.0
H673 H 0.32782 0.64598 0.53235 0.0
H674 H 0.35034 0.64579 0.52506 0.0
C675 C 0.33888 0.65279 0.50749 0.0
H676 H 0.33944 0.66518 0.53915 0.0
H677 H 0.29251 0.65569 0.53095 0.0
O678 O 0.32386 0.6791 0.09639 0.0
C679 C 0.28355 0.67564 0.28617 0.0
Co680 Co 0.56506 0.92868 0.53367 0.0
Co681 Co 0.56533 0.9348 0.33463 0.0
C682 C 0.53411 0.92425 0.42716 0.0
O683 O 0.54168 0.92356 0.49977 0.0
O684 O 0.54176 0.92842 0.35799 0.0
C685 C 0.55984 0.91741 0.71282 0.0
O686 O 0.5469 0.90854 0.6878 0.0
C687 C 0.56136 0.93097 0.14512 0.0
C688 C 0.58531 0.94173 0.10079 0.0
C689 C 0.57102 0.93372 0.07175 0.0
N690 N 0.56986 0.93665 0.21424 0.0
N691 N 0.58403 0.94327 0.18705 0.0
C692 C 0.54403 0.92407 0.14997 0.0
H693 H 0.53667 0.93144 0.19708 0.0
H694 H 0.54455 0.91094 0.1728 0.0
H695 H 0.5376 0.92465 0.08651 0.0
C696 C 0.59211 0.90502 0.48668 0.0
N697 N 0.58053 0.91658 0.46645 0.0
N698 N 0.5801 0.91856 0.38203 0.0
C699 C 0.59105 0.90788 0.34546 0.0
C700 C 0.59922 0.89912 0.41047 0.0
C701 C 0.59655 0.90025 0.57744 0.0
H702 H 0.59711 0.91159 0.61858 0.0
H703 H 0.58668 0.89195 0.60375 0.0
H704 H 0.60876 0.89372 0.58044 0.0
O705 O 0.56881 0.95275 0.52354 0.0
O706 O 0.56947 0.95754 0.38283 0.0
H707 H 0.60055 0.91438 0.22062 0.0
H708 H 0.59782 0.89226 0.23646 0.0
C709 C 0.5924 0.90474 0.25015 0.0
H710 H 0.57987 0.90534 0.21996 0.0
H711 H 0.59304 0.94843 0.22788 0.0
O712 O 0.56858 0.92516 0.65744 0.0
C713 C 0.57036 0.96275 0.46048 0.0
Co714 Co 0.31785 0.3153 0.77263 0.0
Co715 Co 0.31016 0.31557 0.57362 0.0
C716 C 0.32128 0.28439 0.66469 0.0
O717 O 0.32252 0.29203 0.73677 0.0
O718 O 0.31658 0.29195 0.59624 0.0
C719 C 0.3226 0.30636 0.94939 0.0
O720 O 0.31959 0.29126 0.91994 0.0
C721 C 0.31596 0.31198 0.38655 0.0
C722 C 0.29827 0.33058 0.33384 0.0
C723 C 0.31041 0.31914 0.30997 0.0
N724 N 0.30753 0.31896 0.45253 0.0
N725 N 0.29687 0.32995 0.42051 0.0
C726 C 0.32991 0.29974 0.39808 0.0
H727 H 0.33602 0.30163 0.4618 0.0
H728 H 0.33927 0.30103 0.34554 0.0
H729 H 0.32473 0.28688 0.39629 0.0
C730 C 0.34154 0.34173 0.71954 0.0
N731 N 0.32956 0.33046 0.70161 0.0
N732 N 0.32654 0.33052 0.61788 0.0
C733 C 0.3366 0.34185 0.57974 0.0
C734 C 0.34643 0.34928 0.64284 0.0
C735 C 0.34863 0.34452 0.80795 0.0
H736 H 0.33889 0.35016 0.84987 0.0
H737 H 0.35216 0.33233 0.83681 0.0
H738 H 0.35972 0.35282 0.80627 0.0
O739 O 0.29357 0.31933 0.76677 0.0
O740 O 0.28796 0.31981 0.62645 0.0
H741 H 0.32353 0.34885 0.46465 0.0
H742 H 0.34455 0.35675 0.46989 0.0
C743 C 0.33645 0.3459 0.48519 0.0
H744 H 0.34084 0.3349 0.44802 0.0
H745 H 0.28889 0.33728 0.45808 0.0
O746 O 0.32346 0.31846 0.8963 0.0
C747 C 0.28322 0.32086 0.70489 0.0
Co748 Co 0.93087 0.06879 0.04583 0.0
Co749 Co 0.93023 0.06161 0.84668 0.0
C750 C 0.96168 0.07197 0.93608 0.0
O751 O 0.95425 0.07318 0.00876 0.0
O752 O 0.95386 0.0676 0.86789 0.0
C753 C 0.94002 0.07078 0.22152 0.0
O754 O 0.95409 0.06479 0.19063 0.0
C755 C 0.93442 0.06565 0.65828 0.0
C756 C 0.9128 0.05129 0.60939 0.0
C757 C 0.92616 0.06103 0.58307 0.0
N758 N 0.92624 0.05899 0.72598 0.0
N759 N 0.91342 0.05031 0.69622 0.0
C760 C 0.94882 0.07747 0.66661 0.0
H761 H 0.94781 0.08469 0.72767 0.0
H762 H 0.9493 0.08622 0.61097 0.0
H763 H 0.9606 0.07018 0.66831 0.0
C764 C 0.90385 0.09231 0.99495 0.0
N765 N 0.91545 0.08068 0.97622 0.0
N766 N 0.91568 0.07815 0.89212 0.0
C767 C 0.90451 0.0884 0.85429 0.0
C768 C 0.89649 0.09761 0.91816 0.0
C769 C 0.8995 0.0976 0.08508 0.0
H770 H 0.89918 0.08653 0.12815 0.0
H771 H 0.9093 0.1062 0.10946 0.0
H772 H 0.88721 0.10399 0.08753 0.0
O773 O 0.92664 0.04456 0.04047 0.0
O774 O 0.92585 0.03944 0.89968 0.0
H775 H 0.8956 0.07949 0.73225 0.0
H776 H 0.89586 0.10199 0.74126 0.0
C777 C 0.90258 0.09034 0.75841 0.0
H778 H 0.91505 0.09075 0.72764 0.0
H779 H 0.90489 0.044 0.73545 0.0
O780 O 0.92833 0.07449 0.16933 0.0
C781 C 0.92493 0.03444 0.97775 0.0
Co782 Co 0.17847 0.68118 0.266 0.0
Co783 Co 0.18672 0.68041 0.0673 0.0
C784 C 0.17548 0.71184 0.15653 0.0
O785 O 0.17393 0.70442 0.22907 0.0
O786 O 0.18037 0.70406 0.08911 0.0
C787 C 0.17394 0.69008 0.44321 0.0
O788 O 0.17719 0.70515 0.41405 0.0
C789 C 0.18091 0.68398 0.88025 0.0
C790 C 0.19877 0.6656 0.82695 0.0
C791 C 0.18651 0.67695 0.8034 0.0
N792 N 0.18942 0.67702 0.94604 0.0
N793 N 0.20017 0.66616 0.91366 0.0
C794 C 0.16685 0.69607 0.89215 0.0
H795 H 0.16077 0.69407 0.95585 0.0
H796 H 0.15749 0.69474 0.83962 0.0
H797 H 0.1719 0.70898 0.89066 0.0
C798 C 0.15476 0.65479 0.2123 0.0
N799 N 0.16688 0.66593 0.19471 0.0
N800 N 0.17019 0.66561 0.11128 0.0
C801 C 0.16021 0.65422 0.07304 0.0
C802 C 0.1501 0.64703 0.13571 0.0
C803 C 0.14733 0.65231 0.30022 0.0
H804 H 0.14422 0.66463 0.32891 0.0
H805 H 0.13592 0.64446 0.29772 0.0
H806 H 0.15673 0.64626 0.34274 0.0
O807 O 0.20276 0.67715 0.2614 0.0
O808 O 0.20881 0.67616 0.12161 0.0
H809 H 0.15294 0.63874 0.96404 0.0
H810 H 0.15628 0.66057 0.9403 0.0
C811 C 0.16077 0.6498 0.97895 0.0
H812 H 0.17382 0.64705 0.95985 0.0
H813 H 0.20824 0.65888 0.95099 0.0
O814 O 0.17279 0.67805 0.38977 0.0
C815 C 0.2133 0.6754 0.20056 0.0
Co816 Co 0.43117 0.92807 0.5344 0.0
Co817 Co 0.43098 0.935 0.33525 0.0
C818 C 0.46213 0.92427 0.42601 0.0
O819 O 0.45447 0.92331 0.49814 0.0
O820 O 0.45457 0.92869 0.35709 0.0
C821 C 0.44035 0.92582 0.70994 0.0
O822 O 0.45456 0.93146 0.67896 0.0
C823 C 0.43514 0.93083 0.14692 0.0
C824 C 0.41359 0.94532 0.09818 0.0
C825 C 0.42687 0.93548 0.07179 0.0
N826 N 0.42703 0.93758 0.21463 0.0
N827 N 0.41426 0.94633 0.18497 0.0
C828 C 0.44948 0.91895 0.15528 0.0
H829 H 0.44836 0.91167 0.21609 0.0
H830 H 0.44999 0.91025 0.09939 0.0
H831 H 0.4613 0.92617 0.15771 0.0
C832 C 0.40408 0.90471 0.48362 0.0
N833 N 0.41575 0.91627 0.46483 0.0
N834 N 0.41612 0.91868 0.38067 0.0
C835 C 0.40494 0.90841 0.34284 0.0
C836 C 0.39682 0.89931 0.4068 0.0
C837 C 0.39964 0.89954 0.57379 0.0
H838 H 0.39932 0.91066 0.61654 0.0
H839 H 0.4094 0.89093 0.59865 0.0
H840 H 0.38733 0.8932 0.57614 0.0
O841 O 0.42717 0.95232 0.5281 0.0
O842 O 0.42684 0.95735 0.38722 0.0
H843 H 0.39626 0.91718 0.22015 0.0
H844 H 0.39635 0.8947 0.23007 0.0
C845 C 0.40313 0.90633 0.24699 0.0
H846 H 0.41564 0.9058 0.21666 0.0
H847 H 0.40578 0.9527 0.22426 0.0
O848 O 0.42853 0.92248 0.65789 0.0
C849 C 0.42576 0.96242 0.4651 0.0
Co850 Co 0.8177 0.68099 0.27108 0.0
Co851 Co 0.80962 0.6804 0.07227 0.0
C852 C 0.82073 0.71176 0.16217 0.0
O853 O 0.82221 0.70425 0.2345 0.0
O854 O 0.81591 0.70406 0.09437 0.0
C855 C 0.82216 0.68993 0.44805 0.0
O856 O 0.8188 0.70496 0.41868 0.0
C857 C 0.81534 0.68403 0.88514 0.0
C858 C 0.79768 0.66543 0.83218 0.0
C859 C 0.80979 0.6769 0.80843 0.0
N860 N 0.80693 0.677 0.95106 0.0
N861 N 0.79629 0.666 0.91889 0.0
C862 C 0.82926 0.69629 0.8968 0.0
H863 H 0.83541 0.69437 0.96041 0.0
H864 H 0.83861 0.69506 0.84413 0.0
H865 H 0.82406 0.70914 0.89535 0.0
C866 C 0.84144 0.65462 0.21741 0.0
N867 N 0.82935 0.6658 0.1998 0.0
N868 N 0.82615 0.6656 0.11624 0.0
C869 C 0.8362 0.65428 0.07792 0.0
C870 C 0.84621 0.647 0.14069 0.0
C871 C 0.84873 0.65199 0.30551 0.0
H872 H 0.85212 0.66425 0.33408 0.0
H873 H 0.85994 0.64385 0.30336 0.0
H874 H 0.83915 0.64622 0.34794 0.0
O875 O 0.79343 0.6769 0.26618 0.0
O876 O 0.78752 0.67608 0.1262 0.0
H877 H 0.84392 0.6392 0.96825 0.0
H878 H 0.84019 0.66102 0.94573 0.0
C879 C 0.83586 0.65008 0.98354 0.0
H880 H 0.82289 0.64712 0.96379 0.0
H881 H 0.78833 0.65864 0.95635 0.0
O882 O 0.82339 0.67788 0.39479 0.0
C883 C 0.78295 0.6752 0.20499 0.0
Co884 Co 0.06541 0.06571 0.0319 0.0
Co885 Co 0.06396 0.06086 0.83296 0.0
C886 C 0.0336 0.07057 0.92576 0.0
O887 O 0.04182 0.07082 0.99655 0.0
O888 O 0.04059 0.06675 0.85452 0.0
C889 C 0.0564 0.06607 0.20582 0.0
O890 O 0.04335 0.05834 0.17327 0.0
C891 C 0.05978 0.06357 0.64337 0.0
C892 C 0.08453 0.05456 0.59987 0.0
C893 C 0.06947 0.06084 0.57026 0.0
N894 N 0.06879 0.0591 0.71306 0.0
N895 N 0.0835 0.05365 0.68652 0.0
C896 C 0.04296 0.0717 0.64798 0.0
H897 H 0.04237 0.08023 0.70442 0.0
H898 H 0.0402 0.0789 0.58833 0.0
H899 H 0.03329 0.06191 0.65662 0.0
C900 C 0.09401 0.0875 0.98098 0.0
N901 N 0.08108 0.07733 0.96325 0.0
N902 N 0.07824 0.07743 0.88009 0.0
C903 C 0.0878 0.08914 0.84245 0.0
C904 C 0.09892 0.0958 0.90433 0.0
C905 C 0.10185 0.08777 0.06891 0.0
H906 H 0.09728 0.07717 0.10849 0.0
H907 H 0.09858 0.09957 0.10259 0.0
H908 H 0.11562 0.08653 0.06356 0.0
O909 O 0.06923 0.04178 0.02379 0.0
O910 O 0.06837 0.03799 0.88197 0.0
H911 H 0.09257 0.08966 0.70577 0.0
H912 H 0.08474 0.10922 0.7505 0.0
C913 C 0.0839 0.0954 0.75332 0.0
H914 H 0.07097 0.09197 0.73514 0.0
H915 H 0.09298 0.04963 0.72794 0.0
O916 O 0.06772 0.07129 0.15502 0.0
C917 C 0.07006 0.03223 0.95841 0.0
Co918 Co 0.67795 0.31463 0.7646 0.0
Co919 Co 0.68636 0.31553 0.56599 0.0
C920 C 0.67502 0.28405 0.6546 0.0
O921 O 0.6734 0.29142 0.72726 0.0
O922 O 0.67999 0.29188 0.58749 0.0
C923 C 0.67359 0.30573 0.94186 0.0
O924 O 0.67701 0.2907 0.91267 0.0
C925 C 0.68057 0.31195 0.37889 0.0
C926 C 0.69839 0.33036 0.32559 0.0
C927 C 0.68617 0.31898 0.30203 0.0
N928 N 0.68907 0.31894 0.44469 0.0
N929 N 0.69979 0.32982 0.41231 0.0
C930 C 0.66653 0.29983 0.39077 0.0
H931 H 0.66041 0.30187 0.45435 0.0
H932 H 0.65719 0.30111 0.33808 0.0
H933 H 0.67161 0.28694 0.38954 0.0
C934 C 0.65437 0.34111 0.71111 0.0
N935 N 0.66644 0.32993 0.69341 0.0
N936 N 0.66981 0.33031 0.61004 0.0
C937 C 0.65989 0.34177 0.57194 0.0
C938 C 0.64979 0.34895 0.63467 0.0
C939 C 0.64693 0.34358 0.79902 0.0
H940 H 0.64375 0.33126 0.82746 0.0
H941 H 0.63557 0.35149 0.79659 0.0
H942 H 0.65635 0.34955 0.84172 0.0
O943 O 0.70222 0.31864 0.76022 0.0
O944 O 0.70844 0.31976 0.62064 0.0
H945 H 0.65267 0.35731 0.46313 0.0
H946 H 0.65609 0.3355 0.43897 0.0
C947 C 0.66052 0.34625 0.47797 0.0
H948 H 0.67357 0.34906 0.45923 0.0
H949 H 0.70784 0.33712 0.44963 0.0
O950 O 0.67226 0.31773 0.88841 0.0
C951 C 0.71283 0.32046 0.69976 0.0
Co952 Co 0.43098 0.06767 0.46719 0.0
Co953 Co 0.43106 0.06066 0.66632 0.0
C954 C 0.46206 0.07146 0.57468 0.0
O955 O 0.45429 0.07245 0.5029 0.0
O956 O 0.45463 0.06699 0.64387 0.0
C957 C 0.44015 0.06999 0.29184 0.0
O958 O 0.45436 0.06441 0.32306 0.0
C959 C 0.4353 0.06476 0.85474 0.0
C960 C 0.41371 0.05029 0.90334 0.0
C961 C 0.42699 0.06013 0.92982 0.0
N962 N 0.42719 0.05802 0.78698 0.0
N963 N 0.41441 0.04927 0.81657 0.0
C964 C 0.44963 0.07665 0.84643 0.0
H965 H 0.44854 0.0839 0.78552 0.0
H966 H 0.45012 0.08537 0.90223 0.0
H967 H 0.46146 0.06942 0.84419 0.0
C968 C 0.40411 0.09116 0.51929 0.0
N969 N 0.41567 0.07946 0.53741 0.0
N970 N 0.41616 0.07701 0.62154 0.0
C971 C 0.40515 0.08738 0.65998 0.0
C972 C 0.39703 0.0966 0.59649 0.0
C973 C 0.39966 0.09652 0.42942 0.0
H974 H 0.39923 0.08547 0.38617 0.0
H975 H 0.40946 0.10509 0.40481 0.0
H976 H 0.38739 0.10296 0.42758 0.0
O977 O 0.427 0.04341 0.47338 0.0
O978 O 0.42688 0.03834 0.61422 0.0
H979 H 0.39674 0.07865 0.78326 0.0
H980 H 0.39684 0.10113 0.77325 0.0
C981 C 0.40356 0.08949 0.75592 0.0
H982 H 0.41614 0.09 0.78544 0.0
H983 H 0.40593 0.04291 0.77723 0.0
O984 O 0.42828 0.07329 0.34372 0.0
C985 C 0.4257 0.03329 0.53635 0.0
Co986 Co 0.67809 0.68118 0.22192 0.0
Co987 Co 0.68578 0.68064 0.42081 0.0
C988 C 0.67517 0.71204 0.33139 0.0
O989 O 0.67373 0.70449 0.25913 0.0
O990 O 0.6798 0.70434 0.39947 0.0
C991 C 0.67609 0.69034 0.0462 0.0
O992 O 0.68206 0.7044 0.07733 0.0
C993 C 0.68174 0.68492 0.60925 0.0
C994 C 0.69612 0.66334 0.65844 0.0
C995 C 0.68632 0.67668 0.6846 0.0
N996 N 0.68847 0.67675 0.54167 0.0
N997 N 0.69717 0.66396 0.57163 0.0
C998 C 0.66987 0.69927 0.60059 0.0
H999 H 0.66262 0.69814 0.53968 0.0
H1000 H 0.66114 0.69981 0.65634 0.0
H1001 H 0.6771 0.71108 0.5982 0.0
C1002 C 0.6545 0.65446 0.27413 0.0
N1003 N 0.66634 0.66588 0.29222 0.0
N1004 N 0.66908 0.66607 0.37616 0.0
C1005 C 0.65876 0.65502 0.41454 0.0
C1006 C 0.64926 0.64717 0.35117 0.0
C1007 C 0.64889 0.65026 0.18432 0.0
H1008 H 0.65985 0.64978 0.14045 0.0
H1009 H 0.6404 0.66023 0.16073 0.0
H1010 H 0.64229 0.63808 0.18209 0.0
O1011 O 0.70226 0.67691 0.22677 0.0
O1012 O 0.70794 0.6762 0.36698 0.0
H1013 H 0.66796 0.64621 0.53614 0.0
H1014 H 0.64545 0.64627 0.52832 0.0
C1015 C 0.657 0.65308 0.5105 0.0
H1016 H 0.65656 0.66556 0.54123 0.0
H1017 H 0.70351 0.65543 0.53253 0.0
O1018 O 0.67235 0.67863 0.09828 0.0
C1019 C 0.71263 0.67522 0.28839 0.0
Co1020 Co 0.06387 0.92686 0.95475 0.0
Co1021 Co 0.06468 0.93392 0.15391 0.0
C1022 C 0.03315 0.92359 0.06522 0.0
O1023 O 0.04054 0.9224 0.99239 0.0
O1024 O 0.04101 0.92796 0.13326 0.0
C1025 C 0.05469 0.92492 0.77891 0.0
O1026 O 0.04062 0.93094 0.80961 0.0
C1027 C 0.06056 0.92983 0.34222 0.0
C1028 C 0.08219 0.94416 0.39119 0.0
C1029 C 0.06881 0.93444 0.41745 0.0
N1030 N 0.06876 0.93648 0.27455 0.0
N1031 N 0.08159 0.94514 0.30435 0.0
C1032 C 0.04614 0.91805 0.33383 0.0
H1033 H 0.0472 0.91075 0.27303 0.0
H1034 H 0.04556 0.90936 0.38972 0.0
H1035 H 0.03438 0.92536 0.33147 0.0
C1036 C 0.09098 0.90338 0.00442 0.0
N1037 N 0.07936 0.91496 0.02376 0.0
N1038 N 0.07921 0.91742 0.10792 0.0
C1039 C 0.09046 0.90717 0.14519 0.0
C1040 C 0.09843 0.89804 0.08087 0.0
C1041 C 0.09528 0.89822 0.91403 0.0
H1042 H 0.0956 0.90936 0.87142 0.0
H1043 H 0.08545 0.88968 0.8894 0.0
H1044 H 0.10756 0.89182 0.91112 0.0
O1045 O 0.06807 0.9511 0.96016 0.0
O1046 O 0.06905 0.95611 0.10103 0.0
H1047 H 0.09957 0.91606 0.26685 0.0
H1048 H 0.09931 0.89356 0.2577 0.0
C1049 C 0.09255 0.90521 0.24096 0.0
H1050 H 0.08013 0.9048 0.27234 0.0
H1051 H 0.09013 0.95144 0.26515 0.0
O1052 O 0.06634 0.92118 0.83123 0.0
C1053 C 0.06987 0.96117 0.02303 0.0
Co1054 Co 0.81776 0.31485 0.72479 0.0
Co1055 Co 0.80937 0.3157 0.92341 0.0
C1056 C 0.82074 0.28425 0.83467 0.0
O1057 O 0.82235 0.29164 0.76206 0.0
O1058 O 0.81576 0.29206 0.90183 0.0
C1059 C 0.82212 0.30595 0.54757 0.0
O1060 O 0.81869 0.29093 0.57678 0.0
C1061 C 0.81513 0.31212 0.11055 0.0
C1062 C 0.79733 0.33055 0.1638 0.0
C1063 C 0.80954 0.31916 0.18739 0.0
N1064 N 0.80665 0.31911 0.04472 0.0
N1065 N 0.79593 0.33001 0.07708 0.0
C1066 C 0.82916 0.29998 0.0987 0.0
H1067 H 0.83528 0.302 0.03513 0.0
H1068 H 0.83849 0.30126 0.15139 0.0
H1069 H 0.82406 0.28709 0.09996 0.0
C1070 C 0.84125 0.34143 0.77833 0.0
N1071 N 0.82922 0.33019 0.79598 0.0
N1072 N 0.82588 0.33053 0.8794 0.0
C1073 C 0.83579 0.34199 0.91757 0.0
C1074 C 0.84583 0.34924 0.85485 0.0
C1075 C 0.84863 0.34399 0.69039 0.0
H1076 H 0.85208 0.33171 0.66223 0.0
H1077 H 0.85983 0.35215 0.69267 0.0
H1078 H 0.8391 0.34971 0.64753 0.0
O1079 O 0.79348 0.3188 0.72917 0.0
O1080 O 0.78728 0.31988 0.86878 0.0
H1081 H 0.84319 0.35735 0.02675 0.0
H1082 H 0.83964 0.33555 0.05025 0.0
C1083 C 0.83526 0.34637 0.0117 0.0
H1084 H 0.82223 0.34923 0.03079 0.0
H1085 H 0.7879 0.33731 0.03973 0.0
O1086 O 0.82346 0.31796 0.60101 0.0
C1087 C 0.78287 0.32059 0.78967 0.0
C1088 C 0.07203 0.56067 0.67244 0.0
C1089 C 0.06363 0.57541 0.69615 0.0
H1090 H 0.08063 0.54503 0.57003 0.0
C1091 C 0.05783 0.58618 0.63113 0.0
H1092 H 0.07662 0.55202 0.72084 0.0
C1093 C 0.06038 0.58221 0.54384 0.0
C1094 C 0.06836 0.5672 0.52057 0.0
H1095 H 0.0515 0.59771 0.64766 0.0
H1096 H 0.05637 0.59103 0.49504 0.0
C1097 C 0.07431 0.55661 0.58584 0.0
C1098 C 0.69094 0.82093 0.84919 0.0
C1099 C 0.67968 0.8168 0.7828 0.0
H1100 H 0.69555 0.8225 0.98461 0.0
C1101 C 0.66357 0.8112 0.80574 0.0
H1102 H 0.70343 0.82532 0.8347 0.0
C1103 C 0.65915 0.80921 0.8929 0.0
C1104 C 0.67053 0.81334 0.95842 0.0
H1105 H 0.65419 0.80865 0.75755 0.0
H1106 H 0.64677 0.80471 0.90903 0.0
C1107 C 0.6864 0.81935 0.93557 0.0
C1108 C 0.44732 0.43173 0.04991 0.0
C1109 C 0.43082 0.43128 0.01926 0.0
H1110 H 0.46344 0.43026 0.16021 0.0
C1111 C 0.41779 0.42773 0.07714 0.0
H1112 H 0.45755 0.43473 0.00684 0.0
C1113 C 0.42113 0.42506 0.16468 0.0
C1114 C 0.43755 0.42622 0.19629 0.0
H1115 H 0.40496 0.42729 0.05488 0.0
H1116 H 0.41075 0.42277 0.20805 0.0
C1117 C 0.45066 0.42926 0.13777 0.0
C1118 C 0.81736 0.19726 0.30979 0.0
C1119 C 0.81455 0.18092 0.28025 0.0
H1120 H 0.82209 0.21307 0.41896 0.0
C1121 C 0.81579 0.16759 0.33896 0.0
H1122 H 0.81621 0.20779 0.26624 0.0
C1123 C 0.8193 0.17056 0.42618 0.0
C1124 C 0.82129 0.18698 0.45679 0.0
H1125 H 0.81372 0.15486 0.31769 0.0
H1126 H 0.81968 0.16004 0.47019 0.0
C1127 C 0.82064 0.20028 0.39736 0.0
C1128 C 0.04843 0.43197 0.44966 0.0
C1129 C 0.06491 0.43158 0.48053 0.0
H1130 H 0.03235 0.43032 0.33925 0.0
C1131 C 0.07796 0.42792 0.4229 0.0
H1132 H 0.03817 0.43504 0.49251 0.0
C1133 C 0.07465 0.42508 0.33542 0.0
C1134 C 0.05824 0.42618 0.30359 0.0
H1135 H 0.09078 0.42752 0.4453 0.0
H1136 H 0.08504 0.42272 0.29222 0.0
C1137 C 0.04512 0.42935 0.36186 0.0
C1138 C 0.81652 0.8285 0.66246 0.0
C1139 C 0.81529 0.81525 0.7216 0.0
H1140 H 0.82033 0.83589 0.53096 0.0
C1141 C 0.81804 0.79886 0.69253 0.0
H1142 H 0.81449 0.84126 0.68336 0.0
C1143 C 0.82125 0.79573 0.60499 0.0
C1144 C 0.82189 0.80896 0.54514 0.0
H1145 H 0.8169 0.78838 0.73644 0.0
H1146 H 0.82265 0.78291 0.58376 0.0
C1147 C 0.81996 0.82542 0.57529 0.0
C1148 C 0.44986 0.57101 0.85744 0.0
C1149 C 0.43659 0.57186 0.79794 0.0
H1150 H 0.45722 0.5667 0.98887 0.0
C1151 C 0.42011 0.57046 0.82855 0.0
H1152 H 0.46269 0.57202 0.83583 0.0
C1153 C 0.41703 0.56732 0.91593 0.0
C1154 C 0.43031 0.56584 0.97471 0.0
H1155 H 0.4096 0.57105 0.7845 0.0
H1156 H 0.40424 0.56568 0.93727 0.0
C1157 C 0.44674 0.56807 0.94517 0.0
C1158 C 0.67491 0.2001 0.09205 0.0
C1159 C 0.67434 0.18683 0.03245 0.0
H1160 H 0.67928 0.20759 0.22329 0.0
C1161 C 0.6764 0.17041 0.06287 0.0
H1162 H 0.67341 0.2129 0.0706 0.0
C1163 C 0.67989 0.16741 0.15006 0.0
C1164 C 0.68106 0.18072 0.20895 0.0
H1165 H 0.67608 0.1599 0.01873 0.0
H1166 H 0.68203 0.15468 0.17118 0.0
C1167 C 0.67818 0.19707 0.17961 0.0
C1168 C 0.92031 0.4252 0.33202 0.0
C1169 C 0.93672 0.42656 0.30033 0.0
H1170 H 0.90415 0.4272 0.44194 0.0
C1171 C 0.9498 0.4297 0.35881 0.0
H1172 H 0.90994 0.42283 0.28868 0.0
C1173 C 0.94646 0.43208 0.44673 0.0
C1174 C 0.92998 0.43144 0.47745 0.0
H1175 H 0.96257 0.43084 0.33631 0.0
H1176 H 0.95668 0.43516 0.48978 0.0
C1177 C 0.91697 0.42778 0.41962 0.0
C1178 C 0.32096 0.17086 0.08236 0.0
C1179 C 0.32248 0.18737 0.05234 0.0
H1180 H 0.31595 0.15486 0.19039 0.0
C1181 C 0.32155 0.20057 0.11228 0.0
H1182 H 0.32157 0.16041 0.03794 0.0
C1183 C 0.31848 0.19734 0.19984 0.0
C1184 C 0.31616 0.18088 0.22879 0.0
H1185 H 0.32264 0.21342 0.09114 0.0
H1186 H 0.31711 0.20778 0.24387 0.0
C1187 C 0.31766 0.16768 0.16955 0.0
C1188 C 0.5753 0.57083 0.83511 0.0
C1189 C 0.55879 0.57219 0.80497 0.0
H1190 H 0.59132 0.566 0.94328 0.0
C1191 C 0.54559 0.57118 0.86483 0.0
H1192 H 0.58576 0.57151 0.79075 0.0
C1193 C 0.54883 0.56817 0.95242 0.0
C1194 C 0.5653 0.566 0.98149 0.0
H1195 H 0.53273 0.57215 0.84359 0.0
H1196 H 0.5384 0.56672 0.99639 0.0
C1197 C 0.5785 0.5676 0.92233 0.0
C1198 C 0.17837 0.79889 0.6827 0.0
C1199 C 0.18087 0.8153 0.71207 0.0
H1200 H 0.17403 0.78295 0.57362 0.0
C1201 C 0.17947 0.82857 0.65319 0.0
H1202 H 0.17966 0.7884 0.72642 0.0
C1203 C 0.17612 0.8255 0.56594 0.0
C1204 C 0.17444 0.80904 0.53548 0.0
H1205 H 0.1813 0.84135 0.67436 0.0
H1206 H 0.17561 0.836 0.5218 0.0
C1207 C 0.17524 0.79578 0.59509 0.0
C1208 C 0.92105 0.57139 0.66173 0.0
C1209 C 0.93746 0.57004 0.69344 0.0
H1210 H 0.9049 0.56938 0.55178 0.0
C1211 C 0.95054 0.56688 0.63501 0.0
H1212 H 0.91068 0.57378 0.70504 0.0
C1213 C 0.9472 0.56448 0.54709 0.0
C1214 C 0.93072 0.56512 0.51634 0.0
H1215 H 0.9633 0.56573 0.65754 0.0
H1216 H 0.95742 0.56138 0.50408 0.0
C1217 C 0.91771 0.56879 0.57413 0.0
C1218 C 0.17454 0.17178 0.42041 0.0
C1219 C 0.1791 0.18742 0.45432 0.0
H1220 H 0.17313 0.1562 0.30799 0.0
C1221 C 0.18477 0.19994 0.39769 0.0
H1222 H 0.17017 0.16186 0.46235 0.0
C1223 C 0.18639 0.19669 0.30928 0.0
C1224 C 0.18239 0.18087 0.27614 0.0
H1225 H 0.18843 0.2121 0.42193 0.0
H1226 H 0.19144 0.20633 0.26763 0.0
C1227 C 0.1763 0.16851 0.33221 0.0
C1228 C 0.57429 0.43973 0.08783 0.0
C1229 C 0.56859 0.429 0.02256 0.0
H1230 H 0.57637 0.44444 0.22281 0.0
C1231 C 0.56083 0.41388 0.04579 0.0
H1232 H 0.58044 0.4514 0.07201 0.0
C1233 C 0.55826 0.40991 0.13306 0.0
C1234 C 0.56381 0.42082 0.1981 0.0
H1235 H 0.55701 0.40497 0.99696 0.0
H1236 H 0.55211 0.39828 0.14956 0.0
C1237 C 0.57198 0.43569 0.17441 0.0
C1238 C 0.31988 0.82601 0.92065 0.0
C1239 C 0.32171 0.80955 0.95104 0.0
H1240 H 0.31455 0.84182 0.8123 0.0
C1241 C 0.32103 0.79629 0.89138 0.0
H1242 H 0.32029 0.83651 0.96483 0.0
C1243 C 0.31788 0.79938 0.80377 0.0
C1244 C 0.31523 0.81577 0.77447 0.0
H1245 H 0.32236 0.78348 0.91279 0.0
H1246 H 0.31669 0.78889 0.76001 0.0
C1247 C 0.31651 0.82906 0.83341 0.0
C1248 C 0.57364 0.05694 0.07773 0.0
C1249 C 0.56874 0.06796 0.01209 0.0
H1250 H 0.57507 0.05214 0.21284 0.0
C1251 C 0.5618 0.08352 0.03477 0.0
H1252 H 0.57915 0.04494 0.0623 0.0
C1253 C 0.55923 0.08765 0.12186 0.0
C1254 C 0.56395 0.07645 0.18731 0.0
H1255 H 0.55862 0.0926 0.98561 0.0
H1256 H 0.55373 0.09962 0.1379 0.0
C1257 C 0.57131 0.06112 0.16416 0.0
C1258 C 0.1776 0.29985 0.29946 0.0
C1259 C 0.18026 0.31623 0.27005 0.0
H1260 H 0.17317 0.28398 0.40862 0.0
C1261 C 0.17904 0.32953 0.3289 0.0
H1262 H 0.17876 0.28934 0.25575 0.0
C1263 C 0.17574 0.3265 0.4162 0.0
C1264 C 0.17392 0.31006 0.4467 0.0
H1265 H 0.181 0.34228 0.30767 0.0
H1266 H 0.17538 0.33702 0.46031 0.0
C1267 C 0.17451 0.29679 0.38711 0.0
C1268 C 0.92074 0.93971 0.58709 0.0
C1269 C 0.92776 0.92966 0.52234 0.0
H1270 H 0.91751 0.944 0.7219 0.0
C1271 C 0.93682 0.91532 0.54634 0.0
H1272 H 0.91357 0.95076 0.57076 0.0
C1273 C 0.93934 0.91153 0.63383 0.0
C1274 C 0.93241 0.92175 0.69829 0.0
H1275 H 0.9417 0.90685 0.498 0.0
H1276 H 0.94651 0.90054 0.65097 0.0
C1277 C 0.92297 0.93578 0.67387 0.0
C1278 C 0.31402 0.69729 0.80366 0.0
C1279 C 0.31443 0.68078 0.77303 0.0
H1280 H 0.31562 0.71343 0.91386 0.0
C1281 C 0.31807 0.66777 0.83088 0.0
H1282 H 0.31095 0.70752 0.76065 0.0
C1283 C 0.32088 0.67113 0.91834 0.0
C1284 C 0.31976 0.68757 0.94993 0.0
H1285 H 0.31849 0.65493 0.80868 0.0
H1286 H 0.32324 0.66076 0.96169 0.0
C1287 C 0.3166 0.70065 0.89144 0.0
C1288 C 0.559 0.91459 0.95773 0.0
C1289 C 0.56779 0.92917 0.9806 0.0
H1290 H 0.54938 0.89942 0.85435 0.0
C1291 C 0.57447 0.93924 0.91497 0.0
H1292 H 0.55443 0.9061 0.00675 0.0
C1293 C 0.57212 0.93511 0.82846 0.0
C1294 C 0.56291 0.92085 0.80521 0.0
H1295 H 0.58144 0.95046 0.93041 0.0
H1296 H 0.57729 0.94336 0.77973 0.0
C1297 C 0.55635 0.91059 0.87055 0.0
C1298 C 0.31833 0.29945 0.1907 0.0
C1299 C 0.31582 0.31584 0.22026 0.0
H1300 H 0.32258 0.28357 0.08135 0.0
C1301 C 0.31711 0.32915 0.16152 0.0
H1302 H 0.31712 0.28895 0.23435 0.0
C1303 C 0.32034 0.32612 0.07416 0.0
C1304 C 0.32201 0.30967 0.0435 0.0
H1305 H 0.31526 0.34191 0.18287 0.0
H1306 H 0.32076 0.33664 0.03013 0.0
C1307 C 0.32136 0.29639 0.10298 0.0
C1308 C 0.91709 0.06916 0.43491 0.0
C1309 C 0.93009 0.06542 0.49267 0.0
H1310 H 0.91008 0.07428 0.30408 0.0
C1311 C 0.94657 0.0648 0.46193 0.0
H1312 H 0.90427 0.06974 0.45724 0.0
C1313 C 0.94992 0.06727 0.37408 0.0
C1314 C 0.93685 0.07051 0.31569 0.0
H1315 H 0.95678 0.06166 0.50491 0.0
H1316 H 0.96269 0.06613 0.35156 0.0
C1317 C 0.92044 0.07184 0.34738 0.0
C1318 C 0.17647 0.67018 0.56736 0.0
C1319 C 0.17466 0.68666 0.53726 0.0
H1320 H 0.18176 0.6543 0.67545 0.0
C1321 C 0.17531 0.69988 0.59717 0.0
H1322 H 0.17607 0.65971 0.52298 0.0
C1323 C 0.17843 0.69672 0.68475 0.0
C1324 C 0.18106 0.68031 0.71377 0.0
H1325 H 0.17399 0.71271 0.57598 0.0
H1326 H 0.17961 0.70719 0.72872 0.0
C1327 C 0.17981 0.66707 0.65457 0.0
C1328 C 0.41762 0.92748 0.92381 0.0
C1329 C 0.4307 0.93105 0.98136 0.0
H1330 H 0.41045 0.92254 0.79305 0.0
C1331 C 0.44716 0.93153 0.95031 0.0
H1332 H 0.40481 0.92701 0.9464 0.0
C1333 C 0.45042 0.92909 0.86235 0.0
C1334 C 0.43726 0.92605 0.80416 0.0
H1335 H 0.45744 0.93454 0.99313 0.0
H1336 H 0.46318 0.93012 0.83958 0.0
C1337 C 0.42087 0.92484 0.83617 0.0
C1338 C 0.81659 0.667 0.6598 0.0
C1339 C 0.8152 0.68027 0.71875 0.0
H1340 H 0.82039 0.65959 0.52834 0.0
C1341 C 0.81764 0.69669 0.68944 0.0
H1342 H 0.8148 0.65422 0.68093 0.0
C1343 C 0.82071 0.69982 0.6018 0.0
C1344 C 0.8215 0.68656 0.54213 0.0
H1345 H 0.81635 0.70717 0.73323 0.0
H1346 H 0.82188 0.71265 0.58037 0.0
C1347 C 0.81988 0.67009 0.57253 0.0
C1348 C 0.07762 0.07017 0.42284 0.0
C1349 C 0.06534 0.06386 0.47878 0.0
H1350 H 0.0843 0.07619 0.29266 0.0
C1351 C 0.04968 0.05937 0.44534 0.0
H1352 H 0.0898 0.07371 0.4473 0.0
C1353 C 0.04651 0.06073 0.35676 0.0
C1354 C 0.05897 0.06659 0.30029 0.0
H1355 H 0.04013 0.05414 0.48692 0.0
H1356 H 0.03449 0.0567 0.33229 0.0
C1357 C 0.07443 0.07164 0.33446 0.0
C1358 C 0.67506 0.29597 0.09584 0.0
C1359 C 0.67432 0.30917 0.0359 0.0
H1360 H 0.67941 0.2887 0.2274 0.0
C1361 C 0.67607 0.32566 0.06596 0.0
H1362 H 0.67379 0.28312 0.07468 0.0
C1363 C 0.67941 0.3288 0.15315 0.0
C1364 C 0.68073 0.31557 0.21238 0.0
H1365 H 0.67561 0.33612 0.02156 0.0
H1366 H 0.68131 0.34159 0.174 0.0
C1367 C 0.67818 0.29915 0.1834 0.0
C1368 C 0.42076 0.07087 0.16519 0.0
C1369 C 0.43713 0.06974 0.19756 0.0
H1370 H 0.4048 0.06859 0.05463 0.0
C1371 C 0.45034 0.06673 0.13968 0.0
H1372 H 0.4103 0.07314 0.20807 0.0
C1373 C 0.44717 0.06424 0.05168 0.0
C1374 C 0.43073 0.06464 0.02027 0.0
H1375 H 0.46309 0.06576 0.16273 0.0
H1376 H 0.45749 0.06125 0.00913 0.0
C1377 C 0.41759 0.06818 0.0775 0.0
C1378 C 0.67527 0.6708 0.92001 0.0
C1379 C 0.67646 0.68719 0.95196 0.0
H1380 H 0.6776 0.65468 0.80999 0.0
C1381 C 0.67968 0.70031 0.89379 0.0
H1382 H 0.67286 0.6604 0.96312 0.0
C1383 C 0.68227 0.69702 0.80595 0.0
C1384 C 0.68179 0.68054 0.77496 0.0
H1385 H 0.68071 0.71308 0.9165 0.0
H1386 H 0.68539 0.70727 0.7632 0.0
C1387 C 0.67807 0.6675 0.83249 0.0
C1388 C 0.07776 0.92636 0.56587 0.0
C1389 C 0.06481 0.93012 0.50786 0.0
H1390 H 0.08466 0.92127 0.69686 0.0
C1391 C 0.04831 0.93085 0.53833 0.0
H1392 H 0.09059 0.92571 0.54374 0.0
C1393 C 0.04489 0.92844 0.62615 0.0
C1394 C 0.05792 0.92516 0.68479 0.0
H1395 H 0.03814 0.93401 0.49514 0.0
H1396 H 0.03212 0.92965 0.64846 0.0
C1397 C 0.07433 0.92373 0.65337 0.0
C1398 C 0.82064 0.29617 0.39361 0.0
C1399 C 0.82138 0.30938 0.45353 0.0
H1400 H 0.81629 0.28888 0.26207 0.0
C1401 C 0.81964 0.32587 0.42346 0.0
H1402 H 0.82191 0.28333 0.41478 0.0
C1403 C 0.81629 0.329 0.33627 0.0
C1404 C 0.81497 0.31576 0.27705 0.0
H1405 H 0.82009 0.33633 0.46785 0.0
H1406 H 0.8144 0.34178 0.3154 0.0
C1407 C 0.81752 0.29934 0.30605 0.0
C1408 C 0.1382 0.61895 0.16769 0.0
C1409 C 0.13719 0.63416 0.12311 0.0
H1410 H 0.12721 0.59492 0.18931 0.0
C1411 C 0.1239 0.63695 0.06567 0.0
H1412 H 0.14846 0.61654 0.2117 0.0
C1413 C 0.11166 0.62473 0.05365 0.0
C1414 C 0.11264 0.60949 0.09828 0.0
H1415 H 0.12291 0.64867 0.03099 0.0
H1416 H 0.10129 0.62729 0.01065 0.0
C1417 C 0.12609 0.60666 0.1549 0.0
C1418 C 0.62568 0.88922 0.34189 0.0
C1419 C 0.61238 0.88634 0.39937 0.0
H1420 H 0.64792 0.8794 0.28344 0.0
C1421 C 0.61148 0.87105 0.44354 0.0
H1422 H 0.62673 0.90099 0.30778 0.0
C1423 C 0.62369 0.85884 0.43036 0.0
C1424 C 0.63684 0.86169 0.37216 0.0
H1425 H 0.60121 0.86844 0.48713 0.0
H1426 H 0.62278 0.84709 0.46485 0.0
C1427 C 0.63776 0.87693 0.32793 0.0
C1428 C 0.35805 0.37762 0.67149 0.0
C1429 C 0.35941 0.36208 0.63032 0.0
H1430 H 0.36878 0.40189 0.68953 0.0
C1431 C 0.37306 0.35889 0.57591 0.0
H1432 H 0.3475 0.38032 0.71314 0.0
C1433 C 0.38532 0.37107 0.56336 0.0
C1434 C 0.38397 0.38666 0.60434 0.0
H1435 H 0.37431 0.34691 0.54384 0.0
H1436 H 0.39595 0.36822 0.52257 0.0
C1437 C 0.37018 0.38988 0.65805 0.0
C1438 C 0.88433 0.12589 0.94684 0.0
C1439 C 0.88325 0.11028 0.90587 0.0
H1440 H 0.87313 0.15002 0.96451 0.0
C1441 C 0.8697 0.10697 0.85064 0.0
H1442 H 0.89477 0.12882 0.98881 0.0
C1443 C 0.8576 0.11918 0.83528 0.0
C1444 C 0.85873 0.13475 0.87619 0.0
H1445 H 0.86848 0.09493 0.81921 0.0
H1446 H 0.84727 0.11641 0.79231 0.0
C1447 C 0.87209 0.13802 0.93248 0.0
C1448 C 0.13755 0.37775 0.82212 0.0
C1449 C 0.13631 0.3621 0.86221 0.0
H1450 H 0.12675 0.40205 0.80666 0.0
C1451 C 0.12278 0.35875 0.91723 0.0
H1452 H 0.14801 0.38059 0.78014 0.0
C1453 C 0.11053 0.37087 0.93143 0.0
C1454 C 0.11176 0.38657 0.89155 0.0
H1455 H 0.12164 0.3467 0.94862 0.0
H1456 H 0.09999 0.36789 0.97262 0.0
C1457 C 0.12543 0.38995 0.83728 0.0
C1458 C 0.88424 0.87145 0.0564 0.0
C1459 C 0.88332 0.88656 0.10229 0.0
H1460 H 0.87314 0.84744 0.03361 0.0
C1461 C 0.87018 0.88907 0.16116 0.0
H1462 H 0.89439 0.86912 0.01169 0.0
C1463 C 0.85827 0.87661 0.17476 0.0
C1464 C 0.8592 0.86154 0.12887 0.0
H1465 H 0.86912 0.90069 0.19664 0.0
H1466 H 0.84823 0.87879 0.22037 0.0
C1467 C 0.8722 0.85905 0.06933 0.0
C1468 C 0.35624 0.62022 0.41272 0.0
C1469 C 0.35952 0.63412 0.35985 0.0
H1470 H 0.36575 0.59745 0.46716 0.0
C1471 C 0.3752 0.63559 0.31993 0.0
H1472 H 0.34416 0.61872 0.44336 0.0
C1473 C 0.38739 0.62334 0.33253 0.0
C1474 C 0.38412 0.60957 0.38599 0.0
H1475 H 0.3781 0.6463 0.27982 0.0
H1476 H 0.39942 0.62468 0.30116 0.0
C1477 C 0.36851 0.60809 0.42626 0.0
C1478 C 0.62626 0.1067 0.6438 0.0
C1479 C 0.61269 0.10972 0.58825 0.0
H1480 H 0.64868 0.11645 0.70079 0.0
C1481 C 0.61162 0.1251 0.54493 0.0
H1482 H 0.62746 0.09486 0.6771 0.0
C1483 C 0.62387 0.1373 0.55757 0.0
C1484 C 0.63722 0.13435 0.6144 0.0
H1485 H 0.60117 0.1278 0.5027 0.0
H1486 H 0.6228 0.14914 0.52404 0.0
C1487 C 0.63836 0.11898 0.65734 0.0
C1488 C 0.87221 0.35917 0.9233 0.0
C1489 C 0.85871 0.36214 0.86751 0.0
H1490 H 0.89492 0.36873 0.9775 0.0
C1491 C 0.85743 0.37754 0.82493 0.0
H1492 H 0.87339 0.3473 0.95647 0.0
C1493 C 0.86949 0.38988 0.83829 0.0
C1494 C 0.88314 0.38688 0.89328 0.0
H1495 H 0.847 0.38007 0.78219 0.0
H1496 H 0.86814 0.40178 0.80569 0.0
C1497 C 0.8844 0.37142 0.93572 0.0
C1498 C 0.38553 0.12514 0.56791 0.0
C1499 C 0.38414 0.1096 0.60935 0.0
H1500 H 0.37478 0.14943 0.54923 0.0
C1501 C 0.37059 0.10666 0.66509 0.0
H1502 H 0.39598 0.12778 0.52561 0.0
C1503 C 0.35872 0.11912 0.67996 0.0
C1504 C 0.3601 0.13459 0.63819 0.0
H1505 H 0.36916 0.09469 0.69702 0.0
H1506 H 0.34833 0.11661 0.72298 0.0
C1507 C 0.37353 0.13752 0.58188 0.0
C1508 C 0.62698 0.60855 0.43252 0.0
C1509 C 0.61141 0.61007 0.39192 0.0
H1510 H 0.65144 0.61895 0.44891 0.0
C1511 C 0.60832 0.6237 0.33721 0.0
H1512 H 0.62961 0.59801 0.47431 0.0
C1513 C 0.62064 0.63577 0.32368 0.0
C1514 C 0.63629 0.63425 0.3639 0.0
H1515 H 0.59632 0.62505 0.30547 0.0
H1516 H 0.61788 0.64638 0.28262 0.0
C1517 C 0.63939 0.62049 0.41801 0.0
C1518 C 0.13762 0.87663 0.16105 0.0
C1519 C 0.13654 0.86111 0.1196 0.0
H1520 H 0.12659 0.90077 0.1787 0.0
C1521 C 0.12307 0.85781 0.06408 0.0
H1522 H 0.14803 0.87942 0.20349 0.0
C1523 C 0.1107 0.86985 0.05091 0.0
C1524 C 0.11175 0.88543 0.09233 0.0
H1525 H 0.12205 0.84584 0.03171 0.0
H1526 H 0.1002 0.86691 0.00942 0.0
C1527 C 0.12539 0.88876 0.14692 0.0
C1528 C 0.87018 0.60653 0.15595 0.0
C1529 C 0.88385 0.60973 0.10134 0.0
H1530 H 0.84758 0.61607 0.21205 0.0
C1531 C 0.88503 0.62527 0.05966 0.0
H1532 H 0.8689 0.59456 0.18797 0.0
C1533 C 0.87274 0.63741 0.07246 0.0
C1534 C 0.85922 0.63424 0.12785 0.0
H1535 H 0.89555 0.6281 0.01816 0.0
H1536 H 0.87386 0.64934 0.03986 0.0
C1537 C 0.85802 0.61876 0.16967 0.0
C1538 C 0.12858 0.12697 0.79435 0.0
C1539 C 0.13765 0.13376 0.86373 0.0
H1540 H 0.11239 0.10827 0.74941 0.0
C1541 C 0.13436 0.12722 0.94646 0.0
H1542 H 0.12994 0.1315 0.72929 0.0
C1543 C 0.12142 0.11581 0.96022 0.0
C1544 C 0.11259 0.10864 0.89065 0.0
H1545 H 0.14161 0.13076 0.00214 0.0
H1546 H 0.11873 0.11295 0.0264 0.0
C1547 C 0.11724 0.11394 0.807 0.0
C1548 C 0.62609 0.38948 0.65475 0.0
C1549 C 0.61257 0.38674 0.59853 0.0
H1550 H 0.64846 0.37943 0.71083 0.0
C1551 C 0.61144 0.37153 0.55373 0.0
H1552 H 0.62732 0.40119 0.68926 0.0
C1553 C 0.62363 0.35923 0.56522 0.0
C1554 C 0.63698 0.36192 0.62234 0.0
H1555 H 0.60101 0.36904 0.51102 0.0
H1556 H 0.62252 0.34752 0.53045 0.0
C1557 C 0.63814 0.3771 0.66705 0.0
C1558 C 0.38478 0.87103 0.43654 0.0
C1559 C 0.38366 0.88656 0.39474 0.0
H1560 H 0.37363 0.84693 0.45583 0.0
C1561 C 0.37009 0.88971 0.33938 0.0
H1562 H 0.39524 0.86822 0.47859 0.0
C1563 C 0.35799 0.87745 0.32503 0.0
C1564 C 0.35914 0.86198 0.36697 0.0
H1565 H 0.36885 0.90167 0.30723 0.0
H1566 H 0.34763 0.88011 0.28207 0.0
C1567 C 0.37255 0.85886 0.42311 0.0
C1568 C 0.07329 0.4921 0.9206 0.0
C1569 C 0.07202 0.48032 0.98759 0.0
H1570 H 0.07397 0.51788 0.88552 0.0
C1571 C 0.07162 0.486 0.07383 0.0
H1572 H 0.07373 0.48818 0.85353 0.0
C1573 C 0.07174 0.50311 0.09235 0.0
C1574 C 0.07228 0.51489 0.02503 0.0
H1575 H 0.07071 0.47726 0.12713 0.0
H1576 H 0.07091 0.50708 0.15922 0.0
C1577 C 0.07342 0.50917 0.93908 0.0
C1578 C 0.73629 0.8233 0.19005 0.0
C1579 C 0.73123 0.82255 0.27722 0.0
H1580 H 0.75664 0.82332 0.10037 0.0
C1581 C 0.74351 0.82247 0.34215 0.0
H1582 H 0.72717 0.82349 0.13825 0.0
C1583 C 0.76045 0.82238 0.32027 0.0
C1584 C 0.7655 0.82237 0.23296 0.0
H1585 H 0.74005 0.82197 0.40988 0.0
H1586 H 0.76958 0.82183 0.37194 0.0
C1587 C 0.75322 0.82321 0.16819 0.0
C1588 C 0.42324 0.50341 0.41122 0.0
C1589 C 0.42368 0.51523 0.47844 0.0
H1590 H 0.42344 0.47758 0.37622 0.0
C1591 C 0.42348 0.50956 0.56464 0.0
H1592 H 0.4233 0.50732 0.34412 0.0
C1593 C 0.42356 0.49247 0.58314 0.0
C1594 C 0.42384 0.48066 0.51587 0.0
H1595 H 0.42373 0.51832 0.61808 0.0
H1596 H 0.42387 0.48855 0.65021 0.0
C1597 C 0.42332 0.48633 0.42971 0.0
C1598 C 0.76013 0.17372 0.68005 0.0
C1599 C 0.76497 0.17407 0.76763 0.0
H1600 H 0.73996 0.17388 0.58912 0.0
C1601 C 0.75253 0.17369 0.83173 0.0
H1602 H 0.76937 0.17392 0.62888 0.0
C1603 C 0.73565 0.17367 0.8088 0.0
C1604 C 0.7308 0.17402 0.72123 0.0
H1605 H 0.75581 0.17388 0.89974 0.0
H1606 H 0.7264 0.17382 0.85998 0.0
C1607 C 0.74324 0.17369 0.65713 0.0
C1608 C 0.92313 0.49271 0.91102 0.0
C1609 C 0.92336 0.48106 0.979 0.0
H1610 H 0.92356 0.51847 0.87445 0.0
C1611 C 0.923 0.48693 0.06481 0.0
H1612 H 0.92333 0.48864 0.84418 0.0
C1613 C 0.92313 0.50406 0.08225 0.0
C1614 C 0.92363 0.51571 0.01429 0.0
H1615 H 0.92307 0.47831 0.11883 0.0
H1616 H 0.92331 0.50814 0.1491 0.0
C1617 C 0.92327 0.50984 0.92846 0.0
C1618 C 0.23737 0.17218 0.69021 0.0
C1619 C 0.23172 0.17414 0.7759 0.0
H1620 H 0.25825 0.17109 0.60428 0.0
C1621 C 0.24356 0.17531 0.84273 0.0
H1622 H 0.22861 0.17111 0.63703 0.0
C1623 C 0.26066 0.17529 0.82373 0.0
C1624 C 0.26625 0.1741 0.73751 0.0
H1625 H 0.23964 0.17679 0.90939 0.0
H1626 H 0.26945 0.17672 0.87646 0.0
C1627 C 0.2544 0.17217 0.67127 0.0
C1628 C 0.57385 0.48711 0.44138 0.0
C1629 C 0.57245 0.48147 0.52735 0.0
H1630 H 0.57441 0.508 0.35534 0.0
C1631 C 0.57172 0.49331 0.59435 0.0
H1632 H 0.57458 0.47834 0.38807 0.0
C1633 C 0.57162 0.5104 0.57539 0.0
C1634 C 0.57227 0.516 0.48905 0.0
H1635 H 0.57068 0.48939 0.66123 0.0
H1636 H 0.57054 0.5192 0.62838 0.0
C1637 C 0.57376 0.50415 0.42247 0.0
C1638 C 0.25293 0.82281 0.33018 0.0
C1639 C 0.26517 0.82249 0.26506 0.0
H1640 H 0.22688 0.82254 0.3606 0.0
C1641 C 0.26006 0.82283 0.17791 0.0
H1642 H 0.25641 0.82263 0.39792 0.0
C1643 C 0.2431 0.82277 0.1564 0.0
C1644 C 0.23086 0.82237 0.22153 0.0
H1645 H 0.26915 0.82268 0.12599 0.0
H1646 H 0.23962 0.82257 0.08867 0.0
C1647 C 0.23597 0.82275 0.30867 0.0
C1648 C 0.57236 0.99255 0.41123 0.0
C1649 C 0.57213 0.98083 0.47882 0.0
H1650 H 0.57209 0.01832 0.37551 0.0
C1651 C 0.57261 0.98662 0.56488 0.0
H1652 H 0.57207 0.98854 0.34429 0.0
C1653 C 0.5726 0.00373 0.58295 0.0
C1654 C 0.57212 0.01544 0.51538 0.0
H1655 H 0.57255 0.97795 0.61867 0.0
H1656 H 0.57251 0.00775 0.6499 0.0
C1657 C 0.57235 0.00965 0.4293 0.0
C1658 C 0.24269 0.32344 0.83092 0.0
C1659 C 0.23074 0.32302 0.76436 0.0
H1660 H 0.26859 0.32319 0.86447 0.0
C1661 C 0.23623 0.32321 0.67785 0.0
H1662 H 0.23892 0.32339 0.89824 0.0
C1663 C 0.25328 0.32309 0.6584 0.0
C1664 C 0.26523 0.32278 0.72501 0.0
H1665 H 0.22737 0.32297 0.62489 0.0
H1666 H 0.25706 0.32277 0.59111 0.0
C1667 C 0.25974 0.32332 0.81148 0.0
C1668 C 0.92365 0.99318 0.09829 0.0
C1669 C 0.92306 0.98165 0.02975 0.0
H1670 H 0.92461 0.01889 0.1358 0.0
C1671 C 0.92172 0.9877 0.94451 0.0
H1672 H 0.92462 0.98895 0.1647 0.0
C1673 C 0.92172 0.00483 0.92787 0.0
C1674 C 0.92305 0.01636 0.99606 0.0
H1675 H 0.92112 0.97919 0.89008 0.0
H1676 H 0.92114 0.00901 0.86126 0.0
C1677 C 0.92364 0.01035 0.08163 0.0
C1678 C 0.25345 0.67352 0.33043 0.0
C1679 C 0.2656 0.67371 0.26483 0.0
H1680 H 0.22744 0.67381 0.36172 0.0
C1681 C 0.26037 0.67311 0.17792 0.0
H1682 H 0.25703 0.67391 0.39801 0.0
C1683 C 0.24339 0.67304 0.15701 0.0
C1684 C 0.23124 0.6736 0.22252 0.0
H1685 H 0.26938 0.67314 0.12563 0.0
H1686 H 0.23983 0.67304 0.08939 0.0
C1687 C 0.23646 0.67347 0.30951 0.0
C1688 C 0.42359 0.00354 0.5863 0.0
C1689 C 0.42391 0.01519 0.51828 0.0
H1690 H 0.42382 0.97779 0.623 0.0
C1691 C 0.42354 0.0093 0.43249 0.0
H1692 H 0.42379 0.00763 0.65313 0.0
C1693 C 0.42356 0.99216 0.41513 0.0
C1694 C 0.42395 0.98052 0.48316 0.0
H1695 H 0.4237 0.01791 0.37844 0.0
H1696 H 0.42373 0.98808 0.34831 0.0
C1697 C 0.42361 0.98641 0.56895 0.0
C1698 C 0.73593 0.67274 0.18079 0.0
C1699 C 0.73059 0.6733 0.26754 0.0
H1700 H 0.75657 0.67278 0.09292 0.0
C1701 C 0.74267 0.67312 0.33353 0.0
H1702 H 0.72697 0.67276 0.12823 0.0
C1703 C 0.75968 0.67313 0.31316 0.0
C1704 C 0.765 0.67331 0.22634 0.0
H1705 H 0.73901 0.67348 0.40099 0.0
H1706 H 0.76864 0.67348 0.36566 0.0
C1707 C 0.75293 0.67274 0.16044 0.0
C1708 C 0.07364 0.99065 0.07354 0.0
C1709 C 0.07179 0.97926 0.00511 0.0
H1710 H 0.07471 0.01621 0.11243 0.0
C1711 C 0.07074 0.98542 0.91994 0.0
H1712 H 0.0746 0.98636 0.13984 0.0
C1713 C 0.07079 0.00263 0.90405 0.0
C1714 C 0.0719 0.01403 0.973 0.0
H1715 H 0.06937 0.97699 0.86559 0.0
H1716 H 0.06944 0.00699 0.83805 0.0
C1717 C 0.07371 0.00781 0.05769 0.0
C1718 C 0.74302 0.32272 0.65771 0.0
C1719 C 0.73072 0.32231 0.72253 0.0
H1720 H 0.76909 0.3226 0.62797 0.0
C1721 C 0.73575 0.32266 0.80981 0.0
H1722 H 0.7396 0.32253 0.58989 0.0
C1723 C 0.75268 0.3227 0.83176 0.0
C1724 C 0.76498 0.32238 0.76694 0.0
H1725 H 0.72661 0.32245 0.8615 0.0
H1726 H 0.7561 0.3225 0.89958 0.0
C1727 C 0.75995 0.32274 0.67966 0.0
C1728 C 0.00704 0.57744 -0.0005 0.0
C1729 C 0.01592 0.57405 0.07605 0.0
H1730 H 0.98317 0.5795 0.93837 0.0
C1731 C 0.00692 0.57166 0.15323 0.0
H1732 H 0.01355 0.57947 0.93894 0.0
C1733 C 0.98947 0.57167 0.15293 0.0
C1734 C 0.9806 0.57408 0.07541 0.0
H1735 H 0.01329 0.56911 0.21349 0.0
H1736 H 0.98296 0.56915 0.21297 0.0
C1737 C 0.98959 0.57746 -0.00082 0.0
C1738 C 0.66904 0.73934 0.25864 0.0
C1739 C 0.67288 0.7304 0.33441 0.0
H1740 H 0.66672 0.76326 0.19834 0.0
C1741 C 0.67585 0.7393 0.41132 0.0
H1742 H 0.66657 0.73289 0.19835 0.0
C1743 C 0.67593 0.75676 0.4113 0.0
C1744 C 0.67306 0.76569 0.33436 0.0
H1745 H 0.67873 0.73283 0.471 0.0
H1746 H 0.67886 0.76322 0.47103 0.0
C1747 C 0.66913 0.75679 0.25862 0.0
C1748 C 0.48963 0.41868 0.50269 0.0
C1749 C 0.48067 0.4223 0.57869 0.0
H1750 H 0.51358 0.4165 0.44246 0.0
C1751 C 0.48955 0.42495 0.65595 0.0
H1752 H 0.48321 0.41645 0.4421 0.0
C1753 C 0.507 0.42498 0.65613 0.0
C1754 C 0.51598 0.42236 0.57909 0.0
H1755 H 0.48305 0.42766 0.71581 0.0
H1756 H 0.51339 0.42774 0.71611 0.0
C1757 C 0.50709 0.41872 0.50289 0.0
C1758 C 0.82764 0.25691 0.76438 0.0
C1759 C 0.82319 0.26592 0.839 0.0
H1760 H 0.83049 0.23295 0.70525 0.0
C1761 C 0.81973 0.25709 0.91562 0.0
H1762 H 0.83053 0.26329 0.70442 0.0
C1763 C 0.8197 0.23963 0.9161 0.0
C1764 C 0.82313 0.23063 0.83997 0.0
H1765 H 0.81639 0.26364 0.97449 0.0
H1766 H 0.81634 0.23322 0.97532 0.0
C1767 C 0.82761 0.23947 0.76486 0.0
C1768 C 0.9888 0.42514 0.84196 0.0
C1769 C 0.97978 0.42238 0.9187 0.0
H1770 H 0.01281 0.42791 0.78303 0.0
C1771 C 0.9886 0.41859 0.99492 0.0
H1772 H 0.98242 0.42798 0.78195 0.0
C1773 C 0.00605 0.41854 0.99555 0.0
C1774 C 0.01508 0.42229 0.91997 0.0
H1775 H 0.98206 0.41627 0.0551 0.0
H1776 H 0.01242 0.41619 0.05618 0.0
C1777 C 0.00626 0.4251 0.84259 0.0
C1778 C 0.81984 0.75657 0.08331 0.0
C1779 C 0.82327 0.76539 0.16 0.0
H1780 H 0.81649 0.73269 0.02348 0.0
C1781 C 0.82765 0.75638 0.23469 0.0
H1782 H 0.81655 0.76311 0.02439 0.0
C1783 C 0.82761 0.73894 0.23417 0.0
C1784 C 0.82319 0.7301 0.15893 0.0
H1785 H 0.83051 0.76275 0.29472 0.0
H1786 H 0.83045 0.73242 0.29381 0.0
C1787 C 0.81981 0.7391 0.08278 0.0
C1788 C 0.48922 0.57077 0.34032 0.0
C1789 C 0.48011 0.5739 0.41639 0.0
H1790 H 0.51332 0.56771 0.2826 0.0
C1791 C 0.48883 0.5781 0.49234 0.0
H1792 H 0.48291 0.56761 0.2805 0.0
C1793 C 0.50627 0.57815 0.49355 0.0
C1794 C 0.5154 0.57401 0.41886 0.0
H1795 H 0.48223 0.58074 0.55196 0.0
H1796 H 0.51256 0.58082 0.55406 0.0
C1797 C 0.50668 0.57082 0.34154 0.0
C1798 C 0.66805 0.23929 0.72411 0.0
C1799 C 0.67257 0.23044 0.64905 0.0
H1800 H 0.66512 0.26311 0.7846 0.0
C1801 C 0.67605 0.23944 0.57299 0.0
H1802 H 0.66514 0.23277 0.78366 0.0
C1803 C 0.67604 0.25691 0.57353 0.0
C1804 C 0.67255 0.26573 0.65014 0.0
H1805 H 0.67944 0.23303 0.5138 0.0
H1806 H 0.67942 0.26345 0.51474 0.0
C1807 C 0.66804 0.25672 0.72466 0.0
C1808 C 0.32819 0.25741 0.73854 0.0
C1809 C 0.32389 0.26607 0.66255 0.0
H1810 H 0.33107 0.23373 0.80058 0.0
C1811 C 0.32075 0.25689 0.58668 0.0
H1812 H 0.33084 0.26407 0.798 0.0
C1813 C 0.32089 0.23943 0.58817 0.0
C1814 C 0.32418 0.23078 0.66556 0.0
H1815 H 0.31753 0.26316 0.52683 0.0
H1816 H 0.31778 0.23275 0.52939 0.0
C1817 C 0.32833 0.23997 0.74003 0.0
C1818 C 0.17634 0.73904 0.0759 0.0
C1819 C 0.173 0.73017 0.15252 0.0
H1820 H 0.17957 0.76296 0.01635 0.0
C1821 C 0.16861 0.73913 0.22739 0.0
H1822 H 0.17964 0.73254 0.01685 0.0
C1823 C 0.16857 0.75657 0.2271 0.0
C1824 C 0.17292 0.76547 0.15194 0.0
H1825 H 0.16581 0.73272 0.28737 0.0
H1826 H 0.16574 0.76305 0.28687 0.0
C1827 C 0.1763 0.75651 0.07561 0.0
C1828 C 0.16987 0.25722 0.75254 0.0
C1829 C 0.17262 0.26638 0.82894 0.0
H1830 H 0.16858 0.23311 0.69315 0.0
C1831 C 0.17457 0.25769 0.90732 0.0
H1832 H 0.16822 0.2635 0.69107 0.0
C1833 C 0.17475 0.24025 0.90851 0.0
C1834 C 0.17302 0.23109 0.83132 0.0
H1835 H 0.17657 0.26434 0.96751 0.0
H1836 H 0.17687 0.23398 0.96964 0.0
C1837 C 0.17008 0.23976 0.7537 0.0
C1838 C 0.32776 0.73963 0.25908 0.0
C1839 C 0.32352 0.73067 0.33419 0.0
H1840 H 0.33045 0.76354 0.19932 0.0
C1841 C 0.32023 0.73956 0.41083 0.0
H1842 H 0.33051 0.7332 0.19905 0.0
C1843 C 0.32019 0.75703 0.41099 0.0
C1844 C 0.32344 0.76597 0.33449 0.0
H1845 H 0.31703 0.73307 0.47003 0.0
H1846 H 0.31697 0.76348 0.47031 0.0
C1847 C 0.32773 0.75707 0.25923 0.0
C1848 C 0.50649 0.07789 0.49727 0.0
C1849 C 0.51569 0.07427 0.57245 0.0
H1850 H 0.48235 0.08001 0.43906 0.0
C1851 C 0.50702 0.07153 0.65035 0.0
H1852 H 0.51273 0.08019 0.43623 0.0
C1853 C 0.48958 0.07144 0.65204 0.0
C1854 C 0.48039 0.07406 0.57579 0.0
H1855 H 0.51365 0.06876 0.70959 0.0
H1856 H 0.48334 0.06864 0.71252 0.0
C1857 C 0.48903 0.07779 0.49892 0.0
C1858 C 0.0055 0.91854 0.99354 0.0
C1859 C 0.01479 0.92137 0.06936 0.0
H1860 H 0.98131 0.91724 0.93526 0.0
C1861 C 0.00622 0.92351 0.14802 0.0
H1862 H 0.01168 0.91673 0.93188 0.0
C1863 C 0.98877 0.92379 0.14997 0.0
C1864 C 0.97949 0.92198 0.07332 0.0
H1865 H 0.01296 0.9256 0.2078 0.0
H1866 H 0.98263 0.92609 0.21119 0.0
C1867 C 0.98805 0.91884 0.99549 0.0
C1868 C 0.50687 0.92374 0.34682 0.0
C1869 C 0.51577 0.9217 0.42458 0.0
H1870 H 0.483 0.92603 0.28597 0.0
C1871 C 0.5068 0.91863 0.50117 0.0
H1872 H 0.51332 0.92598 0.28647 0.0
C1873 C 0.48934 0.91863 0.50088 0.0
C1874 C 0.48046 0.92173 0.42399 0.0
H1875 H 0.51322 0.91686 0.56219 0.0
H1876 H 0.48285 0.91687 0.56169 0.0
C1877 C 0.48942 0.92377 0.34652 0.0
C1878 C 0.00596 0.07228 0.85047 0.0
C1879 C 0.01532 0.07338 0.92726 0.0
H1880 H 0.98173 0.07112 0.79287 0.0
C1881 C 0.00687 0.07586 0.006 0.0
H1882 H 0.01204 0.07051 0.78854 0.0
C1883 C 0.98941 0.07624 0.00843 0.0
C1884 C 0.98005 0.07412 0.93219 0.0
H1885 H 0.01369 0.07687 0.06632 0.0
H1886 H 0.98329 0.07751 0.07059 0.0
C1887 C 0.98853 0.07263 0.85292 0.0
loop_
_geom_bond_atom_site_label_1
_geom_bond_atom_site_label_2
_geom_bond_distance
_geom_bond_site_symmetry_2
_ccdc_geom_bond_type
Co0 O3 1.970 1_556 S
Co0 N17 1.989 1_556 S
Co0 O25 1.967 . S
Co0 O32 1.920 . S
Co1 O4 1.966 . S
Co1 N10 2.022 . S
Co1 N18 1.993 . S
Co1 O26 1.941 . S
C2 O3 1.258 . S
C2 O4 1.263 . S
O3 Co0 1.970 1_554 S
O3 C2 1.258 . S
O4 Co1 1.966 . S
O4 C2 1.263 . S
C5 O6 1.235 . S
C5 O32 1.289 . S
O6 C5 1.235 . S
C7 C9 1.400 . S
C7 N10 1.351 . S
C7 C12 1.501 . S
C8 C9 1.387 . S
C8 N11 1.341 . S
C9 C7 1.400 . S
C9 C8 1.387 . S
N10 Co1 2.022 . S
N10 C7 1.351 . S
N10 N11 1.365 . S
N11 C8 1.341 . S
N11 N10 1.365 . S
N11 H31 0.862 . S
C12 C7 1.501 . S
C12 H13 0.961 . S
C12 H14 0.961 . S
C12 H15 0.960 . S
H13 C12 0.961 . S
H14 C12 0.961 . S
H15 C12 0.960 . S
C16 N17 1.342 . S
C16 C20 1.401 . S
C16 C21 1.499 1_554 S
N17 Co0 1.989 1_554 S
N17 C16 1.342 . S
N17 N18 1.388 . S
N18 Co1 1.993 . S
N18 N17 1.388 . S
N18 C19 1.346 . S
C19 N18 1.346 . S
C19 C20 1.396 . S
C19 C29 1.510 . S
C20 C16 1.401 . S
C20 C19 1.396 . S
C21 C16 1.499 1_556 S
C21 H22 0.959 . S
C21 H23 0.960 . S
C21 H24 0.961 . S
H22 C21 0.959 . S
H23 C21 0.960 . S
H24 C21 0.961 . S
O25 Co0 1.967 . S
O25 C33 1.258 1_556 S
O26 Co1 1.941 . S
O26 C33 1.266 . S
H27 C29 0.959 . S
H28 C29 0.961 . S
C29 C19 1.510 . S
C29 H27 0.959 . S
C29 H28 0.961 . S
C29 H30 0.960 . S
H30 C29 0.960 . S
H31 N11 0.862 . S
O32 Co0 1.920 . S
O32 C5 1.289 . S
C33 O25 1.258 1_554 S
C33 O26 1.266 . S
Co34 O37 1.970 . S
Co34 N51 1.989 . S
Co34 O59 1.967 . S
Co34 O66 1.920 . S
Co35 O38 1.966 . S
Co35 N44 2.022 . S
Co35 N52 1.993 . S
Co35 O60 1.941 . S
C36 O37 1.258 . S
C36 O38 1.263 . S
O37 Co34 1.970 . S
O37 C36 1.258 . S
O38 Co35 1.966 . S
O38 C36 1.263 . S
C39 O40 1.235 . S
C39 O66 1.289 . S
O40 C39 1.235 . S
C41 C43 1.400 . S
C41 N44 1.351 . S
C41 C46 1.501 . S
C42 C43 1.387 . S
C42 N45 1.341 . S
C43 C41 1.400 . S
C43 C42 1.387 . S
N44 Co35 2.022 . S
N44 C41 1.351 . S
N44 N45 1.365 . S
N45 C42 1.341 . S
N45 N44 1.365 . S
N45 H65 0.862 . S
C46 C41 1.501 . S
C46 H47 0.961 . S
C46 H48 0.961 . S
C46 H49 0.960 . S
H47 C46 0.961 . S
H48 C46 0.961 . S
H49 C46 0.960 . S
C50 N51 1.342 . S
C50 C54 1.401 . S
C50 C55 1.499 . S
N51 Co34 1.989 . S
N51 C50 1.342 . S
N51 N52 1.388 . S
N52 Co35 1.993 . S
N52 N51 1.388 . S
N52 C53 1.346 . S
C53 N52 1.346 . S
C53 C54 1.396 . S
C53 C63 1.510 . S
C54 C50 1.401 . S
C54 C53 1.396 . S
C55 C50 1.499 . S
C55 H56 0.959 . S
C55 H57 0.960 . S
C55 H58 0.961 . S
H56 C55 0.959 . S
H57 C55 0.960 . S
H58 C55 0.961 . S
O59 Co34 1.967 . S
O59 C67 1.258 . S
O60 Co35 1.941 . S
O60 C67 1.266 . S
H61 C63 0.959 . S
H62 C63 0.961 . S
C63 C53 1.510 . S
C63 H61 0.959 . S
C63 H62 0.961 . S
C63 H64 0.960 . S
H64 C63 0.960 . S
H65 N45 0.862 . S
O66 Co34 1.920 . S
O66 C39 1.289 . S
C67 O59 1.258 . S
C67 O60 1.266 . S
Co68 O71 1.970 . S
Co68 N85 1.989 . S
Co68 O93 1.967 . S
Co68 O100 1.920 . S
Co69 O72 1.966 . S
Co69 N78 2.022 . S
Co69 N86 1.993 . S
Co69 O94 1.941 . S
C70 O71 1.258 . S
C70 O72 1.263 . S
O71 Co68 1.970 . S
O71 C70 1.258 . S
O72 Co69 1.966 . S
O72 C70 1.263 . S
C73 O74 1.235 . S
C73 O100 1.289 . S
O74 C73 1.235 . S
C75 C77 1.400 . S
C75 N78 1.351 . S
C75 C80 1.501 . S
C76 C77 1.387 . S
C76 N79 1.341 . S
C77 C75 1.400 . S
C77 C76 1.387 . S
N78 Co69 2.022 . S
N78 C75 1.351 . S
N78 N79 1.365 . S
N79 C76 1.341 . S
N79 N78 1.365 . S
N79 H99 0.862 . S
C80 C75 1.501 . S
C80 H81 0.961 . S
C80 H82 0.961 . S
C80 H83 0.960 . S
H81 C80 0.961 . S
H82 C80 0.961 . S
H83 C80 0.960 . S
C84 N85 1.342 . S
C84 C88 1.401 . S
C84 C89 1.499 . S
N85 Co68 1.989 . S
N85 C84 1.342 . S
N85 N86 1.388 . S
N86 Co69 1.993 . S
N86 N85 1.388 . S
N86 C87 1.346 . S
C87 N86 1.346 . S
C87 C88 1.396 . S
C87 C97 1.510 . S
C88 C84 1.401 . S
C88 C87 1.396 . S
C89 C84 1.499 . S
C89 H90 0.959 . S
C89 H91 0.960 . S
C89 H92 0.961 . S
H90 C89 0.959 . S
H91 C89 0.960 . S
H92 C89 0.961 . S
O93 Co68 1.967 . S
O93 C101 1.258 . S
O94 Co69 1.941 . S
O94 C101 1.266 . S
H95 C97 0.959 . S
H96 C97 0.961 . S
C97 C87 1.510 . S
C97 H95 0.959 . S
C97 H96 0.961 . S
C97 H98 0.960 . S
H98 C97 0.960 . S
H99 N79 0.862 . S
O100 Co68 1.920 . S
O100 C73 1.289 . S
C101 O93 1.258 . S
C101 O94 1.266 . S
Co102 O105 1.970 . S
Co102 N119 1.989 . S
Co102 O127 1.967 . S
Co102 O134 1.920 . S
Co103 O106 1.966 . S
Co103 N112 2.022 1_556 S
Co103 N120 1.993 . S
Co103 O128 1.941 . S
C104 O105 1.258 . S
C104 O106 1.263 . S
O105 Co102 1.970 . S
O105 C104 1.258 . S
O106 Co103 1.966 . S
O106 C104 1.263 . S
C107 O108 1.235 . S
C107 O134 1.289 . S
O108 C107 1.235 . S
C109 C111 1.400 . S
C109 N112 1.351 . S
C109 C114 1.501 . S
C110 C111 1.387 . S
C110 N113 1.341 . S
C111 C109 1.400 . S
C111 C110 1.387 . S
N112 Co103 2.022 1_554 S
N112 C109 1.351 . S
N112 N113 1.365 . S
N113 C110 1.341 . S
N113 N112 1.365 . S
N113 H133 0.862 . S
C114 C109 1.501 . S
C114 H115 0.961 . S
C114 H116 0.961 . S
C114 H117 0.960 . S
H115 C114 0.961 . S
H116 C114 0.961 . S
H117 C114 0.960 . S
C118 N119 1.342 . S
C118 C122 1.401 . S
C118 C123 1.499 . S
N119 Co102 1.989 . S
N119 C118 1.342 . S
N119 N120 1.388 . S
N120 Co103 1.993 . S
N120 N119 1.388 . S
N120 C121 1.346 . S
C121 N120 1.346 . S
C121 C122 1.396 . S
C121 C131 1.510 1_556 S
C122 C118 1.401 . S
C122 C121 1.396 . S
C123 C118 1.499 . S
C123 H124 0.959 . S
C123 H125 0.960 . S
C123 H126 0.961 . S
H124 C123 0.959 . S
H125 C123 0.960 . S
H126 C123 0.961 . S
O127 Co102 1.967 . S
O127 C135 1.258 . S
O128 Co103 1.941 . S
O128 C135 1.266 . S
H129 C131 0.959 . S
H130 C131 0.961 . S
C131 C121 1.510 1_554 S
C131 H129 0.959 . S
C131 H130 0.961 . S
C131 H132 0.960 . S
H132 C131 0.960 . S
H133 N113 0.862 . S
O134 Co102 1.920 . S
O134 C107 1.289 . S
C135 O127 1.258 . S
C135 O128 1.266 . S
Co136 O139 1.970 1_554 S
Co136 N153 1.989 1_554 S
Co136 O161 1.967 . S
Co136 O168 1.920 . S
Co137 O140 1.966 . S
Co137 N146 2.022 . S
Co137 N154 1.993 . S
Co137 O162 1.941 . S
C138 O139 1.258 . S
C138 O140 1.263 . S
O139 Co136 1.970 1_556 S
O139 C138 1.258 . S
O140 Co137 1.966 . S
O140 C138 1.263 . S
C141 O142 1.235 . S
C141 O168 1.289 . S
O142 C141 1.235 . S
C143 C145 1.400 . S
C143 N146 1.351 . S
C143 C148 1.501 . S
C144 C145 1.387 . S
C144 N147 1.341 . S
C145 C143 1.400 . S
C145 C144 1.387 . S
N146 Co137 2.022 . S
N146 C143 1.351 . S
N146 N147 1.365 . S
N147 C144 1.341 . S
N147 N146 1.365 . S
N147 H167 0.862 . S
C148 C143 1.501 . S
C148 H149 0.961 . S
C148 H150 0.961 . S
C148 H151 0.960 . S
H149 C148 0.961 . S
H150 C148 0.961 . S
H151 C148 0.960 . S
C152 N153 1.342 . S
C152 C156 1.401 . S
C152 C157 1.499 1_556 S
N153 Co136 1.989 1_556 S
N153 C152 1.342 . S
N153 N154 1.388 . S
N154 Co137 1.993 . S
N154 N153 1.388 . S
N154 C155 1.346 . S
C155 N154 1.346 . S
C155 C156 1.396 . S
C155 C165 1.510 . S
C156 C152 1.401 . S
C156 C155 1.396 . S
C157 C152 1.499 1_554 S
C157 H158 0.959 . S
C157 H159 0.960 . S
C157 H160 0.961 . S
H158 C157 0.959 . S
H159 C157 0.960 . S
H160 C157 0.961 . S
O161 Co136 1.967 . S
O161 C169 1.258 1_554 S
O162 Co137 1.941 . S
O162 C169 1.266 . S
H163 C165 0.959 . S
H164 C165 0.961 . S
C165 C155 1.510 . S
C165 H163 0.959 . S
C165 H164 0.961 . S
C165 H166 0.960 . S
H166 C165 0.960 . S
H167 N147 0.862 . S
O168 Co136 1.920 . S
O168 C141 1.289 . S
C169 O161 1.258 1_556 S
C169 O162 1.266 . S
Co170 O173 1.970 . S
Co170 N187 1.989 . S
Co170 O195 1.967 . S
Co170 O202 1.920 . S
Co171 O174 1.966 . S
Co171 N180 2.022 1_554 S
Co171 N188 1.993 . S
Co171 O196 1.941 . S
C172 O173 1.258 . S
C172 O174 1.263 . S
O173 Co170 1.970 . S
O173 C172 1.258 . S
O174 Co171 1.966 . S
O174 C172 1.263 . S
C175 O176 1.235 . S
C175 O202 1.289 . S
O176 C175 1.235 . S
C177 C179 1.400 . S
C177 N180 1.351 . S
C177 C182 1.501 . S
C178 C179 1.387 . S
C178 N181 1.341 . S
C179 C177 1.400 . S
C179 C178 1.387 . S
N180 Co171 2.022 1_556 S
N180 C177 1.351 . S
N180 N181 1.365 . S
N181 C178 1.341 . S
N181 N180 1.365 . S
N181 H201 0.862 . S
C182 C177 1.501 . S
C182 H183 0.961 . S
C182 H184 0.961 . S
C182 H185 0.960 . S
H183 C182 0.961 . S
H184 C182 0.961 . S
H185 C182 0.960 . S
C186 N187 1.342 . S
C186 C190 1.401 . S
C186 C191 1.499 . S
N187 Co170 1.989 . S
N187 C186 1.342 . S
N187 N188 1.388 . S
N188 Co171 1.993 . S
N188 N187 1.388 . S
N188 C189 1.346 . S
C189 N188 1.346 . S
C189 C190 1.396 . S
C189 C199 1.510 1_554 S
C190 C186 1.401 . S
C190 C189 1.396 . S
C191 C186 1.499 . S
C191 H192 0.959 . S
C191 H193 0.960 . S
C191 H194 0.961 . S
H192 C191 0.959 . S
H193 C191 0.960 . S
H194 C191 0.961 . S
O195 Co170 1.967 . S
O195 C203 1.258 . S
O196 Co171 1.941 . S
O196 C203 1.266 . S
H197 C199 0.959 . S
H198 C199 0.961 . S
C199 C189 1.510 1_556 S
C199 H197 0.959 . S
C199 H198 0.961 . S
C199 H200 0.960 . S
H200 C199 0.960 . S
H201 N181 0.862 . S
O202 Co170 1.920 . S
O202 C175 1.289 . S
C203 O195 1.258 . S
C203 O196 1.266 . S
Co204 O207 1.970 . S
Co204 N221 1.989 . S
Co204 O229 1.967 . S
Co204 O236 1.920 . S
Co205 O208 1.966 . S
Co205 N214 2.022 . S
Co205 N222 1.993 . S
Co205 O230 1.941 . S
C206 O207 1.258 . S
C206 O208 1.263 . S
O207 Co204 1.970 . S
O207 C206 1.258 . S
O208 Co205 1.966 . S
O208 C206 1.263 . S
C209 O210 1.235 . S
C209 O236 1.289 . S
O210 C209 1.235 . S
C211 C213 1.400 . S
C211 N214 1.351 . S
C211 C216 1.501 . S
C212 C213 1.387 . S
C212 N215 1.341 . S
C213 C211 1.400 . S
C213 C212 1.387 . S
N214 Co205 2.022 . S
N214 C211 1.351 . S
N214 N215 1.365 . S
N215 C212 1.341 . S
N215 N214 1.365 . S
N215 H235 0.862 . S
C216 C211 1.501 . S
C216 H217 0.961 . S
C216 H218 0.961 . S
C216 H219 0.960 . S
H217 C216 0.961 . S
H218 C216 0.961 . S
H219 C216 0.960 . S
C220 N221 1.342 . S
C220 C224 1.401 . S
C220 C225 1.499 . S
N221 Co204 1.989 . S
N221 C220 1.342 . S
N221 N222 1.388 . S
N222 Co205 1.993 . S
N222 N221 1.388 . S
N222 C223 1.346 . S
C223 N222 1.346 . S
C223 C224 1.396 . S
C223 C233 1.510 . S
C224 C220 1.401 . S
C224 C223 1.396 . S
C225 C220 1.499 . S
C225 H226 0.959 . S
C225 H227 0.960 . S
C225 H228 0.961 . S
H226 C225 0.959 . S
H227 C225 0.960 . S
H228 C225 0.961 . S
O229 Co204 1.967 . S
O229 C237 1.258 . S
O230 Co205 1.941 . S
O230 C237 1.266 . S
H231 C233 0.959 . S
H232 C233 0.961 . S
C233 C223 1.510 . S
C233 H231 0.959 . S
C233 H232 0.961 . S
C233 H234 0.960 . S
H234 C233 0.960 . S
H235 N215 0.862 . S
O236 Co204 1.920 . S
O236 C209 1.289 . S
C237 O229 1.258 . S
C237 O230 1.266 . S
Co238 O241 1.970 . S
Co238 N255 1.989 . S
Co238 O263 1.967 . S
Co238 O270 1.920 . S
Co239 O242 1.966 . S
Co239 N248 2.022 . S
Co239 N256 1.993 . S
Co239 O264 1.941 . S
C240 O241 1.258 . S
C240 O242 1.263 . S
O241 Co238 1.970 . S
O241 C240 1.258 . S
O242 Co239 1.966 . S
O242 C240 1.263 . S
C243 O244 1.235 . S
C243 O270 1.289 . S
O244 C243 1.235 . S
C245 C247 1.400 . S
C245 N248 1.351 . S
C245 C250 1.501 . S
C246 C247 1.387 . S
C246 N249 1.341 . S
C247 C245 1.400 . S
C247 C246 1.387 . S
N248 Co239 2.022 . S
N248 C245 1.351 . S
N248 N249 1.365 . S
N249 C246 1.341 . S
N249 N248 1.365 . S
N249 H269 0.862 . S
C250 C245 1.501 . S
C250 H251 0.961 . S
C250 H252 0.961 . S
C250 H253 0.960 . S
H251 C250 0.961 . S
H252 C250 0.961 . S
H253 C250 0.960 . S
C254 N255 1.342 . S
C254 C258 1.401 . S
C254 C259 1.499 . S
N255 Co238 1.989 . S
N255 C254 1.342 . S
N255 N256 1.388 . S
N256 Co239 1.993 . S
N256 N255 1.388 . S
N256 C257 1.346 . S
C257 N256 1.346 . S
C257 C258 1.396 . S
C257 C267 1.510 . S
C258 C254 1.401 . S
C258 C257 1.396 . S
C259 C254 1.499 . S
C259 H260 0.959 . S
C259 H261 0.960 . S
C259 H262 0.961 . S
H260 C259 0.959 . S
H261 C259 0.960 . S
H262 C259 0.961 . S
O263 Co238 1.967 . S
O263 C271 1.258 . S
O264 Co239 1.941 . S
O264 C271 1.266 . S
H265 C267 0.959 . S
H266 C267 0.961 . S
C267 C257 1.510 . S
C267 H265 0.959 . S
C267 H266 0.961 . S
C267 H268 0.960 . S
H268 C267 0.960 . S
H269 N249 0.862 . S
O270 Co238 1.920 . S
O270 C243 1.289 . S
C271 O263 1.258 . S
C271 O264 1.266 . S
Co272 O275 1.970 1_554 S
Co272 N289 1.989 1_554 S
Co272 O297 1.967 . S
Co272 O304 1.920 . S
Co273 O276 1.966 . S
Co273 N282 2.022 . S
Co273 N290 1.993 . S
Co273 O298 1.941 . S
C274 O275 1.258 . S
C274 O276 1.263 . S
O275 Co272 1.970 1_556 S
O275 C274 1.258 . S
O276 Co273 1.966 . S
O276 C274 1.263 . S
C277 O278 1.235 . S
C277 O304 1.289 . S
O278 C277 1.235 . S
C279 C281 1.400 . S
C279 N282 1.351 . S
C279 C284 1.501 . S
C280 C281 1.387 . S
C280 N283 1.341 . S
C281 C279 1.400 . S
C281 C280 1.387 . S
N282 Co273 2.022 . S
N282 C279 1.351 . S
N282 N283 1.365 . S
N283 C280 1.341 . S
N283 N282 1.365 . S
N283 H303 0.862 . S
C284 C279 1.501 . S
C284 H285 0.961 . S
C284 H286 0.961 . S
C284 H287 0.960 . S
H285 C284 0.961 . S
H286 C284 0.961 . S
H287 C284 0.960 . S
C288 N289 1.342 . S
C288 C292 1.401 . S
C288 C293 1.499 1_556 S
N289 Co272 1.989 1_556 S
N289 C288 1.342 . S
N289 N290 1.388 . S
N290 Co273 1.993 . S
N290 N289 1.388 . S
N290 C291 1.346 . S
C291 N290 1.346 . S
C291 C292 1.396 . S
C291 C301 1.510 . S
C292 C288 1.401 . S
C292 C291 1.396 . S
C293 C288 1.499 1_554 S
C293 H294 0.959 . S
C293 H295 0.960 . S
C293 H296 0.961 . S
H294 C293 0.959 . S
H295 C293 0.960 . S
H296 C293 0.961 . S
O297 Co272 1.967 . S
O297 C305 1.258 1_554 S
O298 Co273 1.941 . S
O298 C305 1.266 . S
H299 C301 0.959 . S
H300 C301 0.961 . S
C301 C291 1.510 . S
C301 H299 0.959 . S
C301 H300 0.961 . S
C301 H302 0.960 . S
H302 C301 0.960 . S
H303 N283 0.862 . S
O304 Co272 1.920 . S
O304 C277 1.289 . S
C305 O297 1.258 1_556 S
C305 O298 1.266 . S
Co306 O309 1.970 . S
Co306 N323 1.989 . S
Co306 O331 1.967 . S
Co306 O338 1.920 . S
Co307 O310 1.966 . S
Co307 N316 2.022 . S
Co307 N324 1.993 . S
Co307 O332 1.941 . S
C308 O309 1.258 . S
C308 O310 1.263 . S
O309 Co306 1.970 . S
O309 C308 1.258 . S
O310 Co307 1.966 . S
O310 C308 1.263 . S
C311 O312 1.235 . S
C311 O338 1.289 . S
O312 C311 1.235 . S
C313 C315 1.400 . S
C313 N316 1.351 . S
C313 C318 1.501 . S
C314 C315 1.387 . S
C314 N317 1.341 . S
C315 C313 1.400 . S
C315 C314 1.387 . S
N316 Co307 2.022 . S
N316 C313 1.351 . S
N316 N317 1.365 . S
N317 C314 1.341 . S
N317 N316 1.365 . S
N317 H337 0.862 . S
C318 C313 1.501 . S
C318 H319 0.961 . S
C318 H320 0.961 . S
C318 H321 0.960 . S
H319 C318 0.961 . S
H320 C318 0.961 . S
H321 C318 0.960 . S
C322 N323 1.342 . S
C322 C326 1.401 . S
C322 C327 1.499 . S
N323 Co306 1.989 . S
N323 C322 1.342 . S
N323 N324 1.388 . S
N324 Co307 1.993 . S
N324 N323 1.388 . S
N324 C325 1.346 . S
C325 N324 1.346 . S
C325 C326 1.396 . S
C325 C335 1.510 . S
C326 C322 1.401 . S
C326 C325 1.396 . S
C327 C322 1.499 . S
C327 H328 0.959 . S
C327 H329 0.960 . S
C327 H330 0.961 . S
H328 C327 0.959 . S
H329 C327 0.960 . S
H330 C327 0.961 . S
O331 Co306 1.967 . S
O331 C339 1.258 . S
O332 Co307 1.941 . S
O332 C339 1.266 . S
H333 C335 0.959 . S
H334 C335 0.961 . S
C335 C325 1.510 . S
C335 H333 0.959 . S
C335 H334 0.961 . S
C335 H336 0.960 . S
H336 C335 0.960 . S
H337 N317 0.862 . S
O338 Co306 1.920 . S
O338 C311 1.289 . S
C339 O331 1.258 . S
C339 O332 1.266 . S
Co340 O343 1.970 . S
Co340 N357 1.989 . S
Co340 O365 1.967 . S
Co340 O372 1.920 . S
Co341 O344 1.966 . S
Co341 N350 2.022 . S
Co341 N358 1.993 . S
Co341 O366 1.941 . S
C342 O343 1.258 . S
C342 O344 1.263 . S
O343 Co340 1.970 . S
O343 C342 1.258 . S
O344 Co341 1.966 . S
O344 C342 1.263 . S
C345 O346 1.235 . S
C345 O372 1.289 . S
O346 C345 1.235 . S
C347 C349 1.400 . S
C347 N350 1.351 . S
C347 C352 1.501 . S
C348 C349 1.387 . S
C348 N351 1.341 . S
C349 C347 1.400 . S
C349 C348 1.387 . S
N350 Co341 2.022 . S
N350 C347 1.351 . S
N350 N351 1.365 . S
N351 C348 1.341 . S
N351 N350 1.365 . S
N351 H371 0.862 . S
C352 C347 1.501 . S
C352 H353 0.961 . S
C352 H354 0.961 . S
C352 H355 0.960 . S
H353 C352 0.961 . S
H354 C352 0.961 . S
H355 C352 0.960 . S
C356 N357 1.342 . S
C356 C360 1.401 . S
C356 C361 1.499 . S
N357 Co340 1.989 . S
N357 C356 1.342 . S
N357 N358 1.388 . S
N358 Co341 1.993 . S
N358 N357 1.388 . S
N358 C359 1.346 . S
C359 N358 1.346 . S
C359 C360 1.396 . S
C359 C369 1.510 . S
C360 C356 1.401 . S
C360 C359 1.396 . S
C361 C356 1.499 . S
C361 H362 0.959 . S
C361 H363 0.960 . S
C361 H364 0.961 . S
H362 C361 0.959 . S
H363 C361 0.960 . S
H364 C361 0.961 . S
O365 Co340 1.967 . S
O365 C373 1.258 . S
O366 Co341 1.941 . S
O366 C373 1.266 . S
H367 C369 0.959 . S
H368 C369 0.961 . S
C369 C359 1.510 . S
C369 H367 0.959 . S
C369 H368 0.961 . S
C369 H370 0.960 . S
H370 C369 0.960 . S
H371 N351 0.862 . S
O372 Co340 1.920 . S
O372 C345 1.289 . S
C373 O365 1.258 . S
C373 O366 1.266 . S
Co374 O377 1.970 . S
Co374 N391 1.989 . S
Co374 O399 1.967 . S
Co374 O406 1.920 . S
Co375 O378 1.966 . S
Co375 N384 2.022 1_554 S
Co375 N392 1.993 . S
Co375 O400 1.941 . S
C376 O377 1.258 . S
C376 O378 1.263 . S
O377 Co374 1.970 . S
O377 C376 1.258 . S
O378 Co375 1.966 . S
O378 C376 1.263 . S
C379 O380 1.235 . S
C379 O406 1.289 . S
O380 C379 1.235 . S
C381 C383 1.400 . S
C381 N384 1.351 . S
C381 C386 1.501 . S
C382 C383 1.387 . S
C382 N385 1.341 . S
C383 C381 1.400 . S
C383 C382 1.387 . S
N384 Co375 2.022 1_556 S
N384 C381 1.351 . S
N384 N385 1.365 . S
N385 C382 1.341 . S
N385 N384 1.365 . S
N385 H405 0.862 . S
C386 C381 1.501 . S
C386 H387 0.961 . S
C386 H388 0.961 . S
C386 H389 0.960 . S
H387 C386 0.961 . S
H388 C386 0.961 . S
H389 C386 0.960 . S
C390 N391 1.342 . S
C390 C394 1.401 . S
C390 C395 1.499 . S
N391 Co374 1.989 . S
N391 C390 1.342 . S
N391 N392 1.388 . S
N392 Co375 1.993 . S
N392 N391 1.388 . S
N392 C393 1.346 . S
C393 N392 1.346 . S
C393 C394 1.396 . S
C393 C403 1.510 1_554 S
C394 C390 1.401 . S
C394 C393 1.396 . S
C395 C390 1.499 . S
C395 H396 0.959 . S
C395 H397 0.960 . S
C395 H398 0.961 . S
H396 C395 0.959 . S
H397 C395 0.960 . S
H398 C395 0.961 . S
O399 Co374 1.967 . S
O399 C407 1.258 . S
O400 Co375 1.941 . S
O400 C407 1.266 . S
H401 C403 0.959 . S
H402 C403 0.961 . S
C403 C393 1.510 1_556 S
C403 H401 0.959 . S
C403 H402 0.961 . S
C403 H404 0.960 . S
H404 C403 0.960 . S
H405 N385 0.862 . S
O406 Co374 1.920 . S
O406 C379 1.289 . S
C407 O399 1.258 . S
C407 O400 1.266 . S
Co408 O411 1.970 1_556 S
Co408 N425 1.989 1_556 S
Co408 O433 1.967 . S
Co408 O440 1.920 . S
Co409 O412 1.966 . S
Co409 N418 2.022 . S
Co409 N426 1.993 . S
Co409 O434 1.941 . S
C410 O411 1.258 . S
C410 O412 1.263 . S
O411 Co408 1.970 1_554 S
O411 C410 1.258 . S
O412 Co409 1.966 . S
O412 C410 1.263 . S
C413 O414 1.235 . S
C413 O440 1.289 . S
O414 C413 1.235 . S
C415 C417 1.400 . S
C415 N418 1.351 . S
C415 C420 1.501 . S
C416 C417 1.387 . S
C416 N419 1.341 . S
C417 C415 1.400 . S
C417 C416 1.387 . S
N418 Co409 2.022 . S
N418 C415 1.351 . S
N418 N419 1.365 . S
N419 C416 1.341 . S
N419 N418 1.365 . S
N419 H439 0.862 . S
C420 C415 1.501 . S
C420 H421 0.961 . S
C420 H422 0.961 . S
C420 H423 0.960 . S
H421 C420 0.961 . S
H422 C420 0.961 . S
H423 C420 0.960 . S
C424 N425 1.342 . S
C424 C428 1.401 . S
C424 C429 1.499 1_554 S
N425 Co408 1.989 1_554 S
N425 C424 1.342 . S
N425 N426 1.388 . S
N426 Co409 1.993 . S
N426 N425 1.388 . S
N426 C427 1.346 . S
C427 N426 1.346 . S
C427 C428 1.396 . S
C427 C437 1.510 . S
C428 C424 1.401 . S
C428 C427 1.396 . S
C429 C424 1.499 1_556 S
C429 H430 0.959 . S
C429 H431 0.960 . S
C429 H432 0.961 . S
H430 C429 0.959 . S
H431 C429 0.960 . S
H432 C429 0.961 . S
O433 Co408 1.967 . S
O433 C441 1.258 1_556 S
O434 Co409 1.941 . S
O434 C441 1.266 . S
H435 C437 0.959 . S
H436 C437 0.961 . S
C437 C427 1.510 . S
C437 H435 0.959 . S
C437 H436 0.961 . S
C437 H438 0.960 . S
H438 C437 0.960 . S
H439 N419 0.862 . S
O440 Co408 1.920 . S
O440 C413 1.289 . S
C441 O433 1.258 1_554 S
C441 O434 1.266 . S
Co442 O445 1.970 . S
Co442 N459 1.989 . S
Co442 O467 1.967 . S
Co442 O474 1.920 . S
Co443 O446 1.966 . S
Co443 N452 2.022 1_556 S
Co443 N460 1.993 . S
Co443 O468 1.941 . S
C444 O445 1.258 . S
C444 O446 1.263 . S
O445 Co442 1.970 . S
O445 C444 1.258 . S
O446 Co443 1.966 . S
O446 C444 1.263 . S
C447 O448 1.235 . S
C447 O474 1.289 . S
O448 C447 1.235 . S
C449 C451 1.400 . S
C449 N452 1.351 . S
C449 C454 1.501 . S
C450 C451 1.387 . S
C450 N453 1.341 . S
C451 C449 1.400 . S
C451 C450 1.387 . S
N452 Co443 2.022 1_554 S
N452 C449 1.351 . S
N452 N453 1.365 . S
N453 C450 1.341 . S
N453 N452 1.365 . S
N453 H473 0.862 . S
C454 C449 1.501 . S
C454 H455 0.961 . S
C454 H456 0.961 . S
C454 H457 0.960 . S
H455 C454 0.961 . S
H456 C454 0.961 . S
H457 C454 0.960 . S
C458 N459 1.342 . S
C458 C462 1.401 . S
C458 C463 1.499 . S
N459 Co442 1.989 . S
N459 C458 1.342 . S
N459 N460 1.388 . S
N460 Co443 1.993 . S
N460 N459 1.388 . S
N460 C461 1.346 . S
C461 N460 1.346 . S
C461 C462 1.396 . S
C461 C471 1.510 1_556 S
C462 C458 1.401 . S
C462 C461 1.396 . S
C463 C458 1.499 . S
C463 H464 0.959 . S
C463 H465 0.960 . S
C463 H466 0.961 . S
H464 C463 0.959 . S
H465 C463 0.960 . S
H466 C463 0.961 . S
O467 Co442 1.967 . S
O467 C475 1.258 . S
O468 Co443 1.941 . S
O468 C475 1.266 . S
H469 C471 0.959 . S
H470 C471 0.961 . S
C471 C461 1.510 1_554 S
C471 H469 0.959 . S
C471 H470 0.961 . S
C471 H472 0.960 . S
H472 C471 0.960 . S
H473 N453 0.862 . S
O474 Co442 1.920 . S
O474 C447 1.289 . S
C475 O467 1.258 . S
C475 O468 1.266 . S
Co476 O479 1.970 . S
Co476 N493 1.989 . S
Co476 O501 1.967 . S
Co476 O508 1.920 . S
Co477 O480 1.966 . S
Co477 N486 2.022 . S
Co477 N494 1.993 . S
Co477 O502 1.941 . S
C478 O479 1.258 . S
C478 O480 1.263 . S
O479 Co476 1.970 . S
O479 C478 1.258 . S
O480 Co477 1.966 . S
O480 C478 1.263 . S
C481 O482 1.235 . S
C481 O508 1.289 . S
O482 C481 1.235 . S
C483 C485 1.400 . S
C483 N486 1.351 . S
C483 C488 1.501 . S
C484 C485 1.387 . S
C484 N487 1.341 . S
C485 C483 1.400 . S
C485 C484 1.387 . S
N486 Co477 2.022 . S
N486 C483 1.351 . S
N486 N487 1.365 . S
N487 C484 1.341 . S
N487 N486 1.365 . S
N487 H507 0.862 . S
C488 C483 1.501 . S
C488 H489 0.961 . S
C488 H490 0.961 . S
C488 H491 0.960 . S
H489 C488 0.961 . S
H490 C488 0.961 . S
H491 C488 0.960 . S
C492 N493 1.342 . S
C492 C496 1.401 . S
C492 C497 1.499 . S
N493 Co476 1.989 . S
N493 C492 1.342 . S
N493 N494 1.388 . S
N494 Co477 1.993 . S
N494 N493 1.388 . S
N494 C495 1.346 . S
C495 N494 1.346 . S
C495 C496 1.396 . S
C495 C505 1.510 . S
C496 C492 1.401 . S
C496 C495 1.396 . S
C497 C492 1.499 . S
C497 H498 0.959 . S
C497 H499 0.960 . S
C497 H500 0.961 . S
H498 C497 0.959 . S
H499 C497 0.960 . S
H500 C497 0.961 . S
O501 Co476 1.967 . S
O501 C509 1.258 . S
O502 Co477 1.941 . S
O502 C509 1.266 . S
H503 C505 0.959 . S
H504 C505 0.961 . S
C505 C495 1.510 . S
C505 H503 0.959 . S
C505 H504 0.961 . S
C505 H506 0.960 . S
H506 C505 0.960 . S
H507 N487 0.862 . S
O508 Co476 1.920 . S
O508 C481 1.289 . S
C509 O501 1.258 . S
C509 O502 1.266 . S
Co510 O513 1.970 . S
Co510 N527 1.989 . S
Co510 O535 1.967 . S
Co510 O542 1.920 . S
Co511 O514 1.966 . S
Co511 N520 2.022 . S
Co511 N528 1.993 . S
Co511 O536 1.941 . S
C512 O513 1.258 . S
C512 O514 1.263 . S
O513 Co510 1.970 . S
O513 C512 1.258 . S
O514 Co511 1.966 . S
O514 C512 1.263 . S
C515 O516 1.235 . S
C515 O542 1.289 . S
O516 C515 1.235 . S
C517 C519 1.400 . S
C517 N520 1.351 . S
C517 C522 1.501 . S
C518 C519 1.387 . S
C518 N521 1.341 . S
C519 C517 1.400 . S
C519 C518 1.387 . S
N520 Co511 2.022 . S
N520 C517 1.351 . S
N520 N521 1.365 . S
N521 C518 1.341 . S
N521 N520 1.365 . S
N521 H541 0.862 . S
C522 C517 1.501 . S
C522 H523 0.961 . S
C522 H524 0.961 . S
C522 H525 0.960 . S
H523 C522 0.961 . S
H524 C522 0.961 . S
H525 C522 0.960 . S
C526 N527 1.342 . S
C526 C530 1.401 . S
C526 C531 1.499 . S
N527 Co510 1.989 . S
N527 C526 1.342 . S
N527 N528 1.388 . S
N528 Co511 1.993 . S
N528 N527 1.388 . S
N528 C529 1.346 . S
C529 N528 1.346 . S
C529 C530 1.396 . S
C529 C539 1.510 . S
C530 C526 1.401 . S
C530 C529 1.396 . S
C531 C526 1.499 . S
C531 H532 0.959 . S
C531 H533 0.960 . S
C531 H534 0.961 . S
H532 C531 0.959 . S
H533 C531 0.960 . S
H534 C531 0.961 . S
O535 Co510 1.967 . S
O535 C543 1.258 . S
O536 Co511 1.941 . S
O536 C543 1.266 . S
H537 C539 0.959 . S
H538 C539 0.961 . S
C539 C529 1.510 . S
C539 H537 0.959 . S
C539 H538 0.961 . S
C539 H540 0.960 . S
H540 C539 0.960 . S
H541 N521 0.862 . S
O542 Co510 1.920 . S
O542 C515 1.289 . S
C543 O535 1.258 . S
C543 O536 1.266 . S
Co544 O547 1.970 . S
Co544 N561 1.989 . S
Co544 O569 1.967 . S
Co544 O576 1.920 . S
Co545 O548 1.966 . S
Co545 N554 2.022 . S
Co545 N562 1.993 . S
Co545 O570 1.941 . S
C546 O547 1.258 . S
C546 O548 1.263 . S
O547 Co544 1.970 . S
O547 C546 1.258 . S
O548 Co545 1.966 . S
O548 C546 1.263 . S
C549 O550 1.235 . S
C549 O576 1.289 . S
O550 C549 1.235 . S
C551 C553 1.400 . S
C551 N554 1.351 . S
C551 C556 1.501 . S
C552 C553 1.387 . S
C552 N555 1.341 . S
C553 C551 1.400 . S
C553 C552 1.387 . S
N554 Co545 2.022 . S
N554 C551 1.351 . S
N554 N555 1.365 . S
N555 C552 1.341 . S
N555 N554 1.365 . S
N555 H575 0.862 . S
C556 C551 1.501 . S
C556 H557 0.961 . S
C556 H558 0.961 . S
C556 H559 0.960 . S
H557 C556 0.961 . S
H558 C556 0.961 . S
H559 C556 0.960 . S
C560 N561 1.342 . S
C560 C564 1.401 . S
C560 C565 1.499 . S
N561 Co544 1.989 . S
N561 C560 1.342 . S
N561 N562 1.388 . S
N562 Co545 1.993 . S
N562 N561 1.388 . S
N562 C563 1.346 . S
C563 N562 1.346 . S
C563 C564 1.396 . S
C563 C573 1.510 . S
C564 C560 1.401 . S
C564 C563 1.396 . S
C565 C560 1.499 . S
C565 H566 0.959 . S
C565 H567 0.960 . S
C565 H568 0.961 . S
H566 C565 0.959 . S
H567 C565 0.960 . S
H568 C565 0.961 . S
O569 Co544 1.967 . S
O569 C577 1.258 . S
O570 Co545 1.941 . S
O570 C577 1.266 . S
H571 C573 0.959 . S
H572 C573 0.961 . S
C573 C563 1.510 . S
C573 H571 0.959 . S
C573 H572 0.961 . S
C573 H574 0.960 . S
H574 C573 0.960 . S
H575 N555 0.862 . S
O576 Co544 1.920 . S
O576 C549 1.289 . S
C577 O569 1.258 . S
C577 O570 1.266 . S
Co578 O581 1.970 . S
Co578 N595 1.989 . S
Co578 O603 1.967 . S
Co578 O610 1.920 . S
Co579 O582 1.966 . S
Co579 N588 2.022 1_556 S
Co579 N596 1.993 . S
Co579 O604 1.941 . S
C580 O581 1.258 . S
C580 O582 1.263 . S
O581 Co578 1.970 . S
O581 C580 1.258 . S
O582 Co579 1.966 . S
O582 C580 1.263 . S
C583 O584 1.235 . S
C583 O610 1.289 . S
O584 C583 1.235 . S
C585 C587 1.400 . S
C585 N588 1.351 . S
C585 C590 1.501 . S
C586 C587 1.387 . S
C586 N589 1.341 . S
C587 C585 1.400 . S
C587 C586 1.387 . S
N588 Co579 2.022 1_554 S
N588 C585 1.351 . S
N588 N589 1.365 . S
N589 C586 1.341 . S
N589 N588 1.365 . S
N589 H609 0.862 . S
C590 C585 1.501 . S
C590 H591 0.961 . S
C590 H592 0.961 . S
C590 H593 0.960 . S
H591 C590 0.961 . S
H592 C590 0.961 . S
H593 C590 0.960 . S
C594 N595 1.342 . S
C594 C598 1.401 . S
C594 C599 1.499 . S
N595 Co578 1.989 . S
N595 C594 1.342 . S
N595 N596 1.388 . S
N596 Co579 1.993 . S
N596 N595 1.388 . S
N596 C597 1.346 . S
C597 N596 1.346 . S
C597 C598 1.396 . S
C597 C607 1.510 1_556 S
C598 C594 1.401 . S
C598 C597 1.396 . S
C599 C594 1.499 . S
C599 H600 0.959 . S
C599 H601 0.960 . S
C599 H602 0.961 . S
H600 C599 0.959 . S
H601 C599 0.960 . S
H602 C599 0.961 . S
O603 Co578 1.967 . S
O603 C611 1.258 . S
O604 Co579 1.941 . S
O604 C611 1.266 . S
H605 C607 0.959 . S
H606 C607 0.961 . S
C607 C597 1.510 1_554 S
C607 H605 0.959 . S
C607 H606 0.961 . S
C607 H608 0.960 . S
H608 C607 0.960 . S
H609 N589 0.862 . S
O610 Co578 1.920 . S
O610 C583 1.289 . S
C611 O603 1.258 . S
C611 O604 1.266 . S
Co612 O615 1.970 1_556 S
Co612 N629 1.989 1_556 S
Co612 O637 1.967 . S
Co612 O644 1.920 . S
Co613 O616 1.966 . S
Co613 N622 2.022 . S
Co613 N630 1.993 . S
Co613 O638 1.941 . S
C614 O615 1.258 . S
C614 O616 1.263 . S
O615 Co612 1.970 1_554 S
O615 C614 1.258 . S
O616 Co613 1.966 . S
O616 C614 1.263 . S
C617 O618 1.235 . S
C617 O644 1.289 . S
O618 C617 1.235 . S
C619 C621 1.400 . S
C619 N622 1.351 . S
C619 C624 1.501 . S
C620 C621 1.387 . S
C620 N623 1.341 . S
C621 C619 1.400 . S
C621 C620 1.387 . S
N622 Co613 2.022 . S
N622 C619 1.351 . S
N622 N623 1.365 . S
N623 C620 1.341 . S
N623 N622 1.365 . S
N623 H643 0.862 . S
C624 C619 1.501 . S
C624 H625 0.961 . S
C624 H626 0.961 . S
C624 H627 0.960 . S
H625 C624 0.961 . S
H626 C624 0.961 . S
H627 C624 0.960 . S
C628 N629 1.342 . S
C628 C632 1.401 . S
C628 C633 1.499 1_554 S
N629 Co612 1.989 1_554 S
N629 C628 1.342 . S
N629 N630 1.388 . S
N630 Co613 1.993 . S
N630 N629 1.388 . S
N630 C631 1.346 . S
C631 N630 1.346 . S
C631 C632 1.396 . S
C631 C641 1.510 . S
C632 C628 1.401 . S
C632 C631 1.396 . S
C633 C628 1.499 1_556 S
C633 H634 0.959 . S
C633 H635 0.960 . S
C633 H636 0.961 . S
H634 C633 0.959 . S
H635 C633 0.960 . S
H636 C633 0.961 . S
O637 Co612 1.967 . S
O637 C645 1.258 1_556 S
O638 Co613 1.941 . S
O638 C645 1.266 . S
H639 C641 0.959 . S
H640 C641 0.961 . S
C641 C631 1.510 . S
C641 H639 0.959 . S
C641 H640 0.961 . S
C641 H642 0.960 . S
H642 C641 0.960 . S
H643 N623 0.862 . S
O644 Co612 1.920 . S
O644 C617 1.289 . S
C645 O637 1.258 1_554 S
C645 O638 1.266 . S
Co646 O649 1.970 . S
Co646 N663 1.989 . S
Co646 O671 1.967 . S
Co646 O678 1.920 . S
Co647 O650 1.966 . S
Co647 N656 2.022 . S
Co647 N664 1.993 . S
Co647 O672 1.941 . S
C648 O649 1.258 . S
C648 O650 1.263 . S
O649 Co646 1.970 . S
O649 C648 1.258 . S
O650 Co647 1.966 . S
O650 C648 1.263 . S
C651 O652 1.235 . S
C651 O678 1.289 . S
O652 C651 1.235 . S
C653 C655 1.400 . S
C653 N656 1.351 . S
C653 C658 1.501 . S
C654 C655 1.387 . S
C654 N657 1.341 . S
C655 C653 1.400 . S
C655 C654 1.387 . S
N656 Co647 2.022 . S
N656 C653 1.351 . S
N656 N657 1.365 . S
N657 C654 1.341 . S
N657 N656 1.365 . S
N657 H677 0.862 . S
C658 C653 1.501 . S
C658 H659 0.961 . S
C658 H660 0.961 . S
C658 H661 0.960 . S
H659 C658 0.961 . S
H660 C658 0.961 . S
H661 C658 0.960 . S
C662 N663 1.342 . S
C662 C666 1.401 . S
C662 C667 1.499 . S
N663 Co646 1.989 . S
N663 C662 1.342 . S
N663 N664 1.388 . S
N664 Co647 1.993 . S
N664 N663 1.388 . S
N664 C665 1.346 . S
C665 N664 1.346 . S
C665 C666 1.396 . S
C665 C675 1.510 . S
C666 C662 1.401 . S
C666 C665 1.396 . S
C667 C662 1.499 . S
C667 H668 0.959 . S
C667 H669 0.960 . S
C667 H670 0.961 . S
H668 C667 0.959 . S
H669 C667 0.960 . S
H670 C667 0.961 . S
O671 Co646 1.967 . S
O671 C679 1.258 . S
O672 Co647 1.941 . S
O672 C679 1.266 . S
H673 C675 0.959 . S
H674 C675 0.961 . S
C675 C665 1.510 . S
C675 H673 0.959 . S
C675 H674 0.961 . S
C675 H676 0.960 . S
H676 C675 0.960 . S
H677 N657 0.862 . S
O678 Co646 1.920 . S
O678 C651 1.289 . S
C679 O671 1.258 . S
C679 O672 1.266 . S
Co680 O683 1.970 . S
Co680 N697 1.989 . S
Co680 O705 1.967 . S
Co680 O712 1.920 . S
Co681 O684 1.966 . S
Co681 N690 2.022 . S
Co681 N698 1.993 . S
Co681 O706 1.941 . S
C682 O683 1.258 . S
C682 O684 1.263 . S
O683 Co680 1.970 . S
O683 C682 1.258 . S
O684 Co681 1.966 . S
O684 C682 1.263 . S
C685 O686 1.235 . S
C685 O712 1.289 . S
O686 C685 1.235 . S
C687 C689 1.400 . S
C687 N690 1.351 . S
C687 C692 1.501 . S
C688 C689 1.387 . S
C688 N691 1.341 . S
C689 C687 1.400 . S
C689 C688 1.387 . S
N690 Co681 2.022 . S
N690 C687 1.351 . S
N690 N691 1.365 . S
N691 C688 1.341 . S
N691 N690 1.365 . S
N691 H711 0.862 . S
C692 C687 1.501 . S
C692 H693 0.961 . S
C692 H694 0.961 . S
C692 H695 0.960 . S
H693 C692 0.961 . S
H694 C692 0.961 . S
H695 C692 0.960 . S
C696 N697 1.342 . S
C696 C700 1.401 . S
C696 C701 1.499 . S
N697 Co680 1.989 . S
N697 C696 1.342 . S
N697 N698 1.388 . S
N698 Co681 1.993 . S
N698 N697 1.388 . S
N698 C699 1.346 . S
C699 N698 1.346 . S
C699 C700 1.396 . S
C699 C709 1.510 . S
C700 C696 1.401 . S
C700 C699 1.396 . S
C701 C696 1.499 . S
C701 H702 0.959 . S
C701 H703 0.960 . S
C701 H704 0.961 . S
H702 C701 0.959 . S
H703 C701 0.960 . S
H704 C701 0.961 . S
O705 Co680 1.967 . S
O705 C713 1.258 . S
O706 Co681 1.941 . S
O706 C713 1.266 . S
H707 C709 0.959 . S
H708 C709 0.961 . S
C709 C699 1.510 . S
C709 H707 0.959 . S
C709 H708 0.961 . S
C709 H710 0.960 . S
H710 C709 0.960 . S
H711 N691 0.862 . S
O712 Co680 1.920 . S
O712 C685 1.289 . S
C713 O705 1.258 . S
C713 O706 1.266 . S
Co714 O717 1.970 . S
Co714 N731 1.989 . S
Co714 O739 1.967 . S
Co714 O746 1.920 . S
Co715 O718 1.966 . S
Co715 N724 2.022 . S
Co715 N732 1.993 . S
Co715 O740 1.941 . S
C716 O717 1.258 . S
C716 O718 1.263 . S
O717 Co714 1.970 . S
O717 C716 1.258 . S
O718 Co715 1.966 . S
O718 C716 1.263 . S
C719 O720 1.235 . S
C719 O746 1.289 . S
O720 C719 1.235 . S
C721 C723 1.400 . S
C721 N724 1.351 . S
C721 C726 1.501 . S
C722 C723 1.387 . S
C722 N725 1.341 . S
C723 C721 1.400 . S
C723 C722 1.387 . S
N724 Co715 2.022 . S
N724 C721 1.351 . S
N724 N725 1.365 . S
N725 C722 1.341 . S
N725 N724 1.365 . S
N725 H745 0.862 . S
C726 C721 1.501 . S
C726 H727 0.961 . S
C726 H728 0.961 . S
C726 H729 0.960 . S
H727 C726 0.961 . S
H728 C726 0.961 . S
H729 C726 0.960 . S
C730 N731 1.342 . S
C730 C734 1.401 . S
C730 C735 1.499 . S
N731 Co714 1.989 . S
N731 C730 1.342 . S
N731 N732 1.388 . S
N732 Co715 1.993 . S
N732 N731 1.388 . S
N732 C733 1.346 . S
C733 N732 1.346 . S
C733 C734 1.396 . S
C733 C743 1.510 . S
C734 C730 1.401 . S
C734 C733 1.396 . S
C735 C730 1.499 . S
C735 H736 0.959 . S
C735 H737 0.960 . S
C735 H738 0.961 . S
H736 C735 0.959 . S
H737 C735 0.960 . S
H738 C735 0.961 . S
O739 Co714 1.967 . S
O739 C747 1.258 . S
O740 Co715 1.941 . S
O740 C747 1.266 . S
H741 C743 0.959 . S
H742 C743 0.961 . S
C743 C733 1.510 . S
C743 H741 0.959 . S
C743 H742 0.961 . S
C743 H744 0.960 . S
H744 C743 0.960 . S
H745 N725 0.862 . S
O746 Co714 1.920 . S
O746 C719 1.289 . S
C747 O739 1.258 . S
C747 O740 1.266 . S
Co748 O751 1.970 1_554 S
Co748 N765 1.989 1_554 S
Co748 O773 1.967 . S
Co748 O780 1.920 . S
Co749 O752 1.966 . S
Co749 N758 2.022 . S
Co749 N766 1.993 . S
Co749 O774 1.941 . S
C750 O751 1.258 . S
C750 O752 1.263 . S
O751 Co748 1.970 1_556 S
O751 C750 1.258 . S
O752 Co749 1.966 . S
O752 C750 1.263 . S
C753 O754 1.235 . S
C753 O780 1.289 . S
O754 C753 1.235 . S
C755 C757 1.400 . S
C755 N758 1.351 . S
C755 C760 1.501 . S
C756 C757 1.387 . S
C756 N759 1.341 . S
C757 C755 1.400 . S
C757 C756 1.387 . S
N758 Co749 2.022 . S
N758 C755 1.351 . S
N758 N759 1.365 . S
N759 C756 1.341 . S
N759 N758 1.365 . S
N759 H779 0.862 . S
C760 C755 1.501 . S
C760 H761 0.961 . S
C760 H762 0.961 . S
C760 H763 0.960 . S
H761 C760 0.961 . S
H762 C760 0.961 . S
H763 C760 0.960 . S
C764 N765 1.342 . S
C764 C768 1.401 . S
C764 C769 1.499 1_556 S
N765 Co748 1.989 1_556 S
N765 C764 1.342 . S
N765 N766 1.388 . S
N766 Co749 1.993 . S
N766 N765 1.388 . S
N766 C767 1.346 . S
C767 N766 1.346 . S
C767 C768 1.396 . S
C767 C777 1.510 . S
C768 C764 1.401 . S
C768 C767 1.396 . S
C769 C764 1.499 1_554 S
C769 H770 0.959 . S
C769 H771 0.960 . S
C769 H772 0.961 . S
H770 C769 0.959 . S
H771 C769 0.960 . S
H772 C769 0.961 . S
O773 Co748 1.967 . S
O773 C781 1.258 1_554 S
O774 Co749 1.941 . S
O774 C781 1.266 . S
H775 C777 0.959 . S
H776 C777 0.961 . S
C777 C767 1.510 . S
C777 H775 0.959 . S
C777 H776 0.961 . S
C777 H778 0.960 . S
H778 C777 0.960 . S
H779 N759 0.862 . S
O780 Co748 1.920 . S
O780 C753 1.289 . S
C781 O773 1.258 1_556 S
C781 O774 1.266 . S
Co782 O785 1.970 . S
Co782 N799 1.989 . S
Co782 O807 1.967 . S
Co782 O814 1.920 . S
Co783 O786 1.966 . S
Co783 N792 2.022 1_554 S
Co783 N800 1.993 . S
Co783 O808 1.941 . S
C784 O785 1.258 . S
C784 O786 1.263 . S
O785 Co782 1.970 . S
O785 C784 1.258 . S
O786 Co783 1.966 . S
O786 C784 1.263 . S
C787 O788 1.235 . S
C787 O814 1.289 . S
O788 C787 1.235 . S
C789 C791 1.400 . S
C789 N792 1.351 . S
C789 C794 1.501 . S
C790 C791 1.387 . S
C790 N793 1.341 . S
C791 C789 1.400 . S
C791 C790 1.387 . S
N792 Co783 2.022 1_556 S
N792 C789 1.351 . S
N792 N793 1.365 . S
N793 C790 1.341 . S
N793 N792 1.365 . S
N793 H813 0.862 . S
C794 C789 1.501 . S
C794 H795 0.961 . S
C794 H796 0.961 . S
C794 H797 0.960 . S
H795 C794 0.961 . S
H796 C794 0.961 . S
H797 C794 0.960 . S
C798 N799 1.342 . S
C798 C802 1.401 . S
C798 C803 1.499 . S
N799 Co782 1.989 . S
N799 C798 1.342 . S
N799 N800 1.388 . S
N800 Co783 1.993 . S
N800 N799 1.388 . S
N800 C801 1.346 . S
C801 N800 1.346 . S
C801 C802 1.396 . S
C801 C811 1.510 1_554 S
C802 C798 1.401 . S
C802 C801 1.396 . S
C803 C798 1.499 . S
C803 H804 0.959 . S
C803 H805 0.960 . S
C803 H806 0.961 . S
H804 C803 0.959 . S
H805 C803 0.960 . S
H806 C803 0.961 . S
O807 Co782 1.967 . S
O807 C815 1.258 . S
O808 Co783 1.941 . S
O808 C815 1.266 . S
H809 C811 0.959 . S
H810 C811 0.961 . S
C811 C801 1.510 1_556 S
C811 H809 0.959 . S
C811 H810 0.961 . S
C811 H812 0.960 . S
H812 C811 0.960 . S
H813 N793 0.862 . S
O814 Co782 1.920 . S
O814 C787 1.289 . S
C815 O807 1.258 . S
C815 O808 1.266 . S
Co816 O819 1.970 . S
Co816 N833 1.989 . S
Co816 O841 1.967 . S
Co816 O848 1.920 . S
Co817 O820 1.966 . S
Co817 N826 2.022 . S
Co817 N834 1.993 . S
Co817 O842 1.941 . S
C818 O819 1.258 . S
C818 O820 1.263 . S
O819 Co816 1.970 . S
O819 C818 1.258 . S
O820 Co817 1.966 . S
O820 C818 1.263 . S
C821 O822 1.235 . S
C821 O848 1.289 . S
O822 C821 1.235 . S
C823 C825 1.400 . S
C823 N826 1.351 . S
C823 C828 1.501 . S
C824 C825 1.387 . S
C824 N827 1.341 . S
C825 C823 1.400 . S
C825 C824 1.387 . S
N826 Co817 2.022 . S
N826 C823 1.351 . S
N826 N827 1.365 . S
N827 C824 1.341 . S
N827 N826 1.365 . S
N827 H847 0.862 . S
C828 C823 1.501 . S
C828 H829 0.961 . S
C828 H830 0.961 . S
C828 H831 0.960 . S
H829 C828 0.961 . S
H830 C828 0.961 . S
H831 C828 0.960 . S
C832 N833 1.342 . S
C832 C836 1.401 . S
C832 C837 1.499 . S
N833 Co816 1.989 . S
N833 C832 1.342 . S
N833 N834 1.388 . S
N834 Co817 1.993 . S
N834 N833 1.388 . S
N834 C835 1.346 . S
C835 N834 1.346 . S
C835 C836 1.396 . S
C835 C845 1.510 . S
C836 C832 1.401 . S
C836 C835 1.396 . S
C837 C832 1.499 . S
C837 H838 0.959 . S
C837 H839 0.960 . S
C837 H840 0.961 . S
H838 C837 0.959 . S
H839 C837 0.960 . S
H840 C837 0.961 . S
O841 Co816 1.967 . S
O841 C849 1.258 . S
O842 Co817 1.941 . S
O842 C849 1.266 . S
H843 C845 0.959 . S
H844 C845 0.961 . S
C845 C835 1.510 . S
C845 H843 0.959 . S
C845 H844 0.961 . S
C845 H846 0.960 . S
H846 C845 0.960 . S
H847 N827 0.862 . S
O848 Co816 1.920 . S
O848 C821 1.289 . S
C849 O841 1.258 . S
C849 O842 1.266 . S
Co850 O853 1.970 . S
Co850 N867 1.989 . S
Co850 O875 1.967 . S
Co850 O882 1.920 . S
Co851 O854 1.966 . S
Co851 N860 2.022 1_554 S
Co851 N868 1.993 . S
Co851 O876 1.941 . S
C852 O853 1.258 . S
C852 O854 1.263 . S
O853 Co850 1.970 . S
O853 C852 1.258 . S
O854 Co851 1.966 . S
O854 C852 1.263 . S
C855 O856 1.235 . S
C855 O882 1.289 . S
O856 C855 1.235 . S
C857 C859 1.400 . S
C857 N860 1.351 . S
C857 C862 1.501 . S
C858 C859 1.387 . S
C858 N861 1.341 . S
C859 C857 1.400 . S
C859 C858 1.387 . S
N860 Co851 2.022 1_556 S
N860 C857 1.351 . S
N860 N861 1.365 . S
N861 C858 1.341 . S
N861 N860 1.365 . S
N861 H881 0.862 . S
C862 C857 1.501 . S
C862 H863 0.961 . S
C862 H864 0.961 . S
C862 H865 0.960 . S
H863 C862 0.961 . S
H864 C862 0.961 . S
H865 C862 0.960 . S
C866 N867 1.342 . S
C866 C870 1.401 . S
C866 C871 1.499 . S
N867 Co850 1.989 . S
N867 C866 1.342 . S
N867 N868 1.388 . S
N868 Co851 1.993 . S
N868 N867 1.388 . S
N868 C869 1.346 . S
C869 N868 1.346 . S
C869 C870 1.396 . S
C869 C879 1.510 1_554 S
C870 C866 1.401 . S
C870 C869 1.396 . S
C871 C866 1.499 . S
C871 H872 0.959 . S
C871 H873 0.960 . S
C871 H874 0.961 . S
H872 C871 0.959 . S
H873 C871 0.960 . S
H874 C871 0.961 . S
O875 Co850 1.967 . S
O875 C883 1.258 . S
O876 Co851 1.941 . S
O876 C883 1.266 . S
H877 C879 0.959 . S
H878 C879 0.961 . S
C879 C869 1.510 1_556 S
C879 H877 0.959 . S
C879 H878 0.961 . S
C879 H880 0.960 . S
H880 C879 0.960 . S
H881 N861 0.862 . S
O882 Co850 1.920 . S
O882 C855 1.289 . S
C883 O875 1.258 . S
C883 O876 1.266 . S
Co884 O887 1.970 1_554 S
Co884 N901 1.989 1_554 S
Co884 O909 1.967 . S
Co884 O916 1.920 . S
Co885 O888 1.966 . S
Co885 N894 2.022 . S
Co885 N902 1.993 . S
Co885 O910 1.941 . S
C886 O887 1.258 . S
C886 O888 1.263 . S
O887 Co884 1.970 1_556 S
O887 C886 1.258 . S
O888 Co885 1.966 . S
O888 C886 1.263 . S
C889 O890 1.235 . S
C889 O916 1.289 . S
O890 C889 1.235 . S
C891 C893 1.400 . S
C891 N894 1.351 . S
C891 C896 1.501 . S
C892 C893 1.387 . S
C892 N895 1.341 . S
C893 C891 1.400 . S
C893 C892 1.387 . S
N894 Co885 2.022 . S
N894 C891 1.351 . S
N894 N895 1.365 . S
N895 C892 1.341 . S
N895 N894 1.365 . S
N895 H915 0.862 . S
C896 C891 1.501 . S
C896 H897 0.961 . S
C896 H898 0.961 . S
C896 H899 0.960 . S
H897 C896 0.961 . S
H898 C896 0.961 . S
H899 C896 0.960 . S
C900 N901 1.342 . S
C900 C904 1.401 . S
C900 C905 1.499 1_556 S
N901 Co884 1.989 1_556 S
N901 C900 1.342 . S
N901 N902 1.388 . S
N902 Co885 1.993 . S
N902 N901 1.388 . S
N902 C903 1.346 . S
C903 N902 1.346 . S
C903 C904 1.396 . S
C903 C913 1.510 . S
C904 C900 1.401 . S
C904 C903 1.396 . S
C905 C900 1.499 1_554 S
C905 H906 0.959 . S
C905 H907 0.960 . S
C905 H908 0.961 . S
H906 C905 0.959 . S
H907 C905 0.960 . S
H908 C905 0.961 . S
O909 Co884 1.967 . S
O909 C917 1.258 1_554 S
O910 Co885 1.941 . S
O910 C917 1.266 . S
H911 C913 0.959 . S
H912 C913 0.961 . S
C913 C903 1.510 . S
C913 H911 0.959 . S
C913 H912 0.961 . S
C913 H914 0.960 . S
H914 C913 0.960 . S
H915 N895 0.862 . S
O916 Co884 1.920 . S
O916 C889 1.289 . S
C917 O909 1.258 1_556 S
C917 O910 1.266 . S
Co918 O921 1.970 . S
Co918 N935 1.989 . S
Co918 O943 1.967 . S
Co918 O950 1.920 . S
Co919 O922 1.966 . S
Co919 N928 2.022 . S
Co919 N936 1.993 . S
Co919 O944 1.941 . S
C920 O921 1.258 . S
C920 O922 1.263 . S
O921 Co918 1.970 . S
O921 C920 1.258 . S
O922 Co919 1.966 . S
O922 C920 1.263 . S
C923 O924 1.235 . S
C923 O950 1.289 . S
O924 C923 1.235 . S
C925 C927 1.400 . S
C925 N928 1.351 . S
C925 C930 1.501 . S
C926 C927 1.387 . S
C926 N929 1.341 . S
C927 C925 1.400 . S
C927 C926 1.387 . S
N928 Co919 2.022 . S
N928 C925 1.351 . S
N928 N929 1.365 . S
N929 C926 1.341 . S
N929 N928 1.365 . S
N929 H949 0.862 . S
C930 C925 1.501 . S
C930 H931 0.961 . S
C930 H932 0.961 . S
C930 H933 0.960 . S
H931 C930 0.961 . S
H932 C930 0.961 . S
H933 C930 0.960 . S
C934 N935 1.342 . S
C934 C938 1.401 . S
C934 C939 1.499 . S
N935 Co918 1.989 . S
N935 C934 1.342 . S
N935 N936 1.388 . S
N936 Co919 1.993 . S
N936 N935 1.388 . S
N936 C937 1.346 . S
C937 N936 1.346 . S
C937 C938 1.396 . S
C937 C947 1.510 . S
C938 C934 1.401 . S
C938 C937 1.396 . S
C939 C934 1.499 . S
C939 H940 0.959 . S
C939 H941 0.960 . S
C939 H942 0.961 . S
H940 C939 0.959 . S
H941 C939 0.960 . S
H942 C939 0.961 . S
O943 Co918 1.967 . S
O943 C951 1.258 . S
O944 Co919 1.941 . S
O944 C951 1.266 . S
H945 C947 0.959 . S
H946 C947 0.961 . S
C947 C937 1.510 . S
C947 H945 0.959 . S
C947 H946 0.961 . S
C947 H948 0.960 . S
H948 C947 0.960 . S
H949 N929 0.862 . S
O950 Co918 1.920 . S
O950 C923 1.289 . S
C951 O943 1.258 . S
C951 O944 1.266 . S
Co952 O955 1.970 . S
Co952 N969 1.989 . S
Co952 O977 1.967 . S
Co952 O984 1.920 . S
Co953 O956 1.966 . S
Co953 N962 2.022 . S
Co953 N970 1.993 . S
Co953 O978 1.941 . S
C954 O955 1.258 . S
C954 O956 1.263 . S
O955 Co952 1.970 . S
O955 C954 1.258 . S
O956 Co953 1.966 . S
O956 C954 1.263 . S
C957 O958 1.235 . S
C957 O984 1.289 . S
O958 C957 1.235 . S
C959 C961 1.400 . S
C959 N962 1.351 . S
C959 C964 1.501 . S
C960 C961 1.387 . S
C960 N963 1.341 . S
C961 C959 1.400 . S
C961 C960 1.387 . S
N962 Co953 2.022 . S
N962 C959 1.351 . S
N962 N963 1.365 . S
N963 C960 1.341 . S
N963 N962 1.365 . S
N963 H983 0.862 . S
C964 C959 1.501 . S
C964 H965 0.961 . S
C964 H966 0.961 . S
C964 H967 0.960 . S
H965 C964 0.961 . S
H966 C964 0.961 . S
H967 C964 0.960 . S
C968 N969 1.342 . S
C968 C972 1.401 . S
C968 C973 1.499 . S
N969 Co952 1.989 . S
N969 C968 1.342 . S
N969 N970 1.388 . S
N970 Co953 1.993 . S
N970 N969 1.388 . S
N970 C971 1.346 . S
C971 N970 1.346 . S
C971 C972 1.396 . S
C971 C981 1.510 . S
C972 C968 1.401 . S
C972 C971 1.396 . S
C973 C968 1.499 . S
C973 H974 0.959 . S
C973 H975 0.960 . S
C973 H976 0.961 . S
H974 C973 0.959 . S
H975 C973 0.960 . S
H976 C973 0.961 . S
O977 Co952 1.967 . S
O977 C985 1.258 . S
O978 Co953 1.941 . S
O978 C985 1.266 . S
H979 C981 0.959 . S
H980 C981 0.961 . S
C981 C971 1.510 . S
C981 H979 0.959 . S
C981 H980 0.961 . S
C981 H982 0.960 . S
H982 C981 0.960 . S
H983 N963 0.862 . S
O984 Co952 1.920 . S
O984 C957 1.289 . S
C985 O977 1.258 . S
C985 O978 1.266 . S
Co986 O989 1.970 . S
Co986 N1003 1.989 . S
Co986 O1011 1.967 . S
Co986 O1018 1.920 . S
Co987 O990 1.966 . S
Co987 N996 2.022 . S
Co987 N1004 1.993 . S
Co987 O1012 1.941 . S
C988 O989 1.258 . S
C988 O990 1.263 . S
O989 Co986 1.970 . S
O989 C988 1.258 . S
O990 Co987 1.966 . S
O990 C988 1.263 . S
C991 O992 1.235 . S
C991 O1018 1.289 . S
O992 C991 1.235 . S
C993 C995 1.400 . S
C993 N996 1.351 . S
C993 C998 1.501 . S
C994 C995 1.387 . S
C994 N997 1.341 . S
C995 C993 1.400 . S
C995 C994 1.387 . S
N996 Co987 2.022 . S
N996 C993 1.351 . S
N996 N997 1.365 . S
N997 C994 1.341 . S
N997 N996 1.365 . S
N997 H1017 0.862 . S
C998 C993 1.501 . S
C998 H999 0.961 . S
C998 H1000 0.961 . S
C998 H1001 0.960 . S
H999 C998 0.961 . S
H1000 C998 0.961 . S
H1001 C998 0.960 . S
C1002 N1003 1.342 . S
C1002 C1006 1.401 . S
C1002 C1007 1.499 . S
N1003 Co986 1.989 . S
N1003 C1002 1.342 . S
N1003 N1004 1.388 . S
N1004 Co987 1.993 . S
N1004 N1003 1.388 . S
N1004 C1005 1.346 . S
C1005 N1004 1.346 . S
C1005 C1006 1.396 . S
C1005 C1015 1.510 . S
C1006 C1002 1.401 . S
C1006 C1005 1.396 . S
C1007 C1002 1.499 . S
C1007 H1008 0.959 . S
C1007 H1009 0.960 . S
C1007 H1010 0.961 . S
H1008 C1007 0.959 . S
H1009 C1007 0.960 . S
H1010 C1007 0.961 . S
O1011 Co986 1.967 . S
O1011 C1019 1.258 . S
O1012 Co987 1.941 . S
O1012 C1019 1.266 . S
H1013 C1015 0.959 . S
H1014 C1015 0.961 . S
C1015 C1005 1.510 . S
C1015 H1013 0.959 . S
C1015 H1014 0.961 . S
C1015 H1016 0.960 . S
H1016 C1015 0.960 . S
H1017 N997 0.862 . S
O1018 Co986 1.920 . S
O1018 C991 1.289 . S
C1019 O1011 1.258 . S
C1019 O1012 1.266 . S
Co1020 O1023 1.970 1_556 S
Co1020 N1037 1.989 1_556 S
Co1020 O1045 1.967 . S
Co1020 O1052 1.920 . S
Co1021 O1024 1.966 . S
Co1021 N1030 2.022 . S
Co1021 N1038 1.993 . S
Co1021 O1046 1.941 . S
C1022 O1023 1.258 . S
C1022 O1024 1.263 . S
O1023 Co1020 1.970 1_554 S
O1023 C1022 1.258 . S
O1024 Co1021 1.966 . S
O1024 C1022 1.263 . S
C1025 O1026 1.235 . S
C1025 O1052 1.289 . S
O1026 C1025 1.235 . S
C1027 C1029 1.400 . S
C1027 N1030 1.351 . S
C1027 C1032 1.501 . S
C1028 C1029 1.387 . S
C1028 N1031 1.341 . S
C1029 C1027 1.400 . S
C1029 C1028 1.387 . S
N1030 Co1021 2.022 . S
N1030 C1027 1.351 . S
N1030 N1031 1.365 . S
N1031 C1028 1.341 . S
N1031 N1030 1.365 . S
N1031 H1051 0.862 . S
C1032 C1027 1.501 . S
C1032 H1033 0.961 . S
C1032 H1034 0.961 . S
C1032 H1035 0.960 . S
H1033 C1032 0.961 . S
H1034 C1032 0.961 . S
H1035 C1032 0.960 . S
C1036 N1037 1.342 . S
C1036 C1040 1.401 . S
C1036 C1041 1.499 1_554 S
N1037 Co1020 1.989 1_554 S
N1037 C1036 1.342 . S
N1037 N1038 1.388 . S
N1038 Co1021 1.993 . S
N1038 N1037 1.388 . S
N1038 C1039 1.346 . S
C1039 N1038 1.346 . S
C1039 C1040 1.396 . S
C1039 C1049 1.510 . S
C1040 C1036 1.401 . S
C1040 C1039 1.396 . S
C1041 C1036 1.499 1_556 S
C1041 H1042 0.959 . S
C1041 H1043 0.960 . S
C1041 H1044 0.961 . S
H1042 C1041 0.959 . S
H1043 C1041 0.960 . S
H1044 C1041 0.961 . S
O1045 Co1020 1.967 . S
O1045 C1053 1.258 1_556 S
O1046 Co1021 1.941 . S
O1046 C1053 1.266 . S
H1047 C1049 0.959 . S
H1048 C1049 0.961 . S
C1049 C1039 1.510 . S
C1049 H1047 0.959 . S
C1049 H1048 0.961 . S
C1049 H1050 0.960 . S
H1050 C1049 0.960 . S
H1051 N1031 0.862 . S
O1052 Co1020 1.920 . S
O1052 C1025 1.289 . S
C1053 O1045 1.258 1_554 S
C1053 O1046 1.266 . S
Co1054 O1057 1.970 . S
Co1054 N1071 1.989 . S
Co1054 O1079 1.967 . S
Co1054 O1086 1.920 . S
Co1055 O1058 1.966 . S
Co1055 N1064 2.022 1_556 S
Co1055 N1072 1.993 . S
Co1055 O1080 1.941 . S
C1056 O1057 1.258 . S
C1056 O1058 1.263 . S
O1057 Co1054 1.970 . S
O1057 C1056 1.258 . S
O1058 Co1055 1.966 . S
O1058 C1056 1.263 . S
C1059 O1060 1.235 . S
C1059 O1086 1.289 . S
O1060 C1059 1.235 . S
C1061 C1063 1.400 . S
C1061 N1064 1.351 . S
C1061 C1066 1.501 . S
C1062 C1063 1.387 . S
C1062 N1065 1.341 . S
C1063 C1061 1.400 . S
C1063 C1062 1.387 . S
N1064 Co1055 2.022 1_554 S
N1064 C1061 1.351 . S
N1064 N1065 1.365 . S
N1065 C1062 1.341 . S
N1065 N1064 1.365 . S
N1065 H1085 0.862 . S
C1066 C1061 1.501 . S
C1066 H1067 0.961 . S
C1066 H1068 0.961 . S
C1066 H1069 0.960 . S
H1067 C1066 0.961 . S
H1068 C1066 0.961 . S
H1069 C1066 0.960 . S
C1070 N1071 1.342 . S
C1070 C1074 1.401 . S
C1070 C1075 1.499 . S
N1071 Co1054 1.989 . S
N1071 C1070 1.342 . S
N1071 N1072 1.388 . S
N1072 Co1055 1.993 . S
N1072 N1071 1.388 . S
N1072 C1073 1.346 . S
C1073 N1072 1.346 . S
C1073 C1074 1.396 . S
C1073 C1083 1.510 1_556 S
C1074 C1070 1.401 . S
C1074 C1073 1.396 . S
C1075 C1070 1.499 . S
C1075 H1076 0.959 . S
C1075 H1077 0.960 . S
C1075 H1078 0.961 . S
H1076 C1075 0.959 . S
H1077 C1075 0.960 . S
H1078 C1075 0.961 . S
O1079 Co1054 1.967 . S
O1079 C1087 1.258 . S
O1080 Co1055 1.941 . S
O1080 C1087 1.266 . S
H1081 C1083 0.959 . S
H1082 C1083 0.961 . S
C1083 C1073 1.510 1_554 S
C1083 H1081 0.959 . S
C1083 H1082 0.961 . S
C1083 H1084 0.960 . S
H1084 C1083 0.960 . S
H1085 N1065 0.862 . S
O1086 Co1054 1.920 . S
O1086 C1059 1.289 . S
C1087 O1079 1.258 . S
C1087 O1080 1.266 . S
C1088 C1089 1.387 . S
C1088 H1092 0.950 . S
C1088 C1097 1.390 . S
C1089 C1088 1.387 . S
C1089 C1091 1.387 . S
H1090 C1097 0.950 . S
C1091 C1089 1.387 . S
C1091 C1093 1.390 . S
C1091 H1095 0.950 . S
H1092 C1088 0.950 . S
C1093 C1091 1.390 . S
C1093 C1094 1.387 . S
C1093 H1096 0.950 . S
C1094 C1093 1.387 . S
C1094 C1097 1.387 . S
H1095 C1091 0.950 . S
H1096 C1093 0.950 . S
C1097 C1088 1.390 . S
C1097 H1090 0.950 . S
C1097 C1094 1.387 . S
C1098 C1099 1.387 . S
C1098 H1102 0.950 . S
C1098 C1107 1.390 . S
C1099 C1098 1.387 . S
C1099 C1101 1.387 . S
H1100 C1107 0.950 . S
C1101 C1099 1.387 . S
C1101 C1103 1.390 . S
C1101 H1105 0.950 . S
H1102 C1098 0.950 . S
C1103 C1101 1.390 . S
C1103 C1104 1.387 . S
C1103 H1106 0.950 . S
C1104 C1103 1.387 . S
C1104 C1107 1.387 . S
H1105 C1101 0.950 . S
H1106 C1103 0.950 . S
C1107 C1098 1.390 . S
C1107 H1100 0.950 . S
C1107 C1104 1.387 . S
C1108 C1109 1.387 . S
C1108 H1112 0.950 . S
C1108 C1117 1.390 . S
C1109 C1108 1.387 . S
C1109 C1111 1.387 . S
H1110 C1117 0.950 . S
C1111 C1109 1.387 . S
C1111 C1113 1.390 . S
C1111 H1115 0.950 . S
H1112 C1108 0.950 . S
C1113 C1111 1.390 . S
C1113 C1114 1.387 . S
C1113 H1116 0.950 . S
C1114 C1113 1.387 . S
C1114 C1117 1.387 . S
H1115 C1111 0.950 . S
H1116 C1113 0.950 . S
C1117 C1108 1.390 . S
C1117 H1110 0.950 . S
C1117 C1114 1.387 . S
C1118 C1119 1.387 . S
C1118 H1122 0.950 . S
C1118 C1127 1.390 . S
C1119 C1118 1.387 . S
C1119 C1121 1.387 . S
H1120 C1127 0.950 . S
C1121 C1119 1.387 . S
C1121 C1123 1.390 . S
C1121 H1125 0.950 . S
H1122 C1118 0.950 . S
C1123 C1121 1.390 . S
C1123 C1124 1.387 . S
C1123 H1126 0.950 . S
C1124 C1123 1.387 . S
C1124 C1127 1.387 . S
H1125 C1121 0.950 . S
H1126 C1123 0.950 . S
C1127 C1118 1.390 . S
C1127 H1120 0.950 . S
C1127 C1124 1.387 . S
C1128 C1129 1.387 . S
C1128 H1132 0.950 . S
C1128 C1137 1.390 . S
C1129 C1128 1.387 . S
C1129 C1131 1.387 . S
H1130 C1137 0.950 . S
C1131 C1129 1.387 . S
C1131 C1133 1.390 . S
C1131 H1135 0.950 . S
H1132 C1128 0.950 . S
C1133 C1131 1.390 . S
C1133 C1134 1.387 . S
C1133 H1136 0.950 . S
C1134 C1133 1.387 . S
C1134 C1137 1.387 . S
H1135 C1131 0.950 . S
H1136 C1133 0.950 . S
C1137 C1128 1.390 . S
C1137 H1130 0.950 . S
C1137 C1134 1.387 . S
C1138 C1139 1.387 . S
C1138 H1142 0.950 . S
C1138 C1147 1.390 . S
C1139 C1138 1.387 . S
C1139 C1141 1.387 . S
H1140 C1147 0.950 . S
C1141 C1139 1.387 . S
C1141 C1143 1.390 . S
C1141 H1145 0.950 . S
H1142 C1138 0.950 . S
C1143 C1141 1.390 . S
C1143 C1144 1.387 . S
C1143 H1146 0.950 . S
C1144 C1143 1.387 . S
C1144 C1147 1.387 . S
H1145 C1141 0.950 . S
H1146 C1143 0.950 . S
C1147 C1138 1.390 . S
C1147 H1140 0.950 . S
C1147 C1144 1.387 . S
C1148 C1149 1.387 . S
C1148 H1152 0.950 . S
C1148 C1157 1.390 . S
C1149 C1148 1.387 . S
C1149 C1151 1.387 . S
H1150 C1157 0.950 . S
C1151 C1149 1.387 . S
C1151 C1153 1.390 . S
C1151 H1155 0.950 . S
H1152 C1148 0.950 . S
C1153 C1151 1.390 . S
C1153 C1154 1.387 . S
C1153 H1156 0.950 . S
C1154 C1153 1.387 . S
C1154 C1157 1.387 . S
H1155 C1151 0.950 . S
H1156 C1153 0.950 . S
C1157 C1148 1.390 . S
C1157 H1150 0.950 . S
C1157 C1154 1.387 . S
C1158 C1159 1.387 . S
C1158 H1162 0.950 . S
C1158 C1167 1.390 . S
C1159 C1158 1.387 . S
C1159 C1161 1.387 . S
H1160 C1167 0.950 . S
C1161 C1159 1.387 . S
C1161 C1163 1.390 . S
C1161 H1165 0.950 . S
H1162 C1158 0.950 . S
C1163 C1161 1.390 . S
C1163 C1164 1.387 . S
C1163 H1166 0.950 . S
C1164 C1163 1.387 . S
C1164 C1167 1.387 . S
H1165 C1161 0.950 . S
H1166 C1163 0.950 . S
C1167 C1158 1.390 . S
C1167 H1160 0.950 . S
C1167 C1164 1.387 . S
C1168 C1169 1.387 . S
C1168 H1172 0.950 . S
C1168 C1177 1.390 . S
C1169 C1168 1.387 . S
C1169 C1171 1.387 . S
H1170 C1177 0.950 . S
C1171 C1169 1.387 . S
C1171 C1173 1.390 . S
C1171 H1175 0.950 . S
H1172 C1168 0.950 . S
C1173 C1171 1.390 . S
C1173 C1174 1.387 . S
C1173 H1176 0.950 . S
C1174 C1173 1.387 . S
C1174 C1177 1.387 . S
H1175 C1171 0.950 . S
H1176 C1173 0.950 . S
C1177 C1168 1.390 . S
C1177 H1170 0.950 . S
C1177 C1174 1.387 . S
C1178 C1179 1.387 . S
C1178 H1182 0.950 . S
C1178 C1187 1.390 . S
C1179 C1178 1.387 . S
C1179 C1181 1.387 . S
H1180 C1187 0.950 . S
C1181 C1179 1.387 . S
C1181 C1183 1.390 . S
C1181 H1185 0.950 . S
H1182 C1178 0.950 . S
C1183 C1181 1.390 . S
C1183 C1184 1.387 . S
C1183 H1186 0.950 . S
C1184 C1183 1.387 . S
C1184 C1187 1.387 . S
H1185 C1181 0.950 . S
H1186 C1183 0.950 . S
C1187 C1178 1.390 . S
C1187 H1180 0.950 . S
C1187 C1184 1.387 . S
C1188 C1189 1.387 . S
C1188 H1192 0.950 . S
C1188 C1197 1.390 . S
C1189 C1188 1.387 . S
C1189 C1191 1.387 . S
H1190 C1197 0.950 . S
C1191 C1189 1.387 . S
C1191 C1193 1.390 . S
C1191 H1195 0.950 . S
H1192 C1188 0.950 . S
C1193 C1191 1.390 . S
C1193 C1194 1.387 . S
C1193 H1196 0.950 . S
C1194 C1193 1.387 . S
C1194 C1197 1.387 . S
H1195 C1191 0.950 . S
H1196 C1193 0.950 . S
C1197 C1188 1.390 . S
C1197 H1190 0.950 . S
C1197 C1194 1.387 . S
C1198 C1199 1.387 . S
C1198 H1202 0.950 . S
C1198 C1207 1.390 . S
C1199 C1198 1.387 . S
C1199 C1201 1.387 . S
H1200 C1207 0.950 . S
C1201 C1199 1.387 . S
C1201 C1203 1.390 . S
C1201 H1205 0.950 . S
H1202 C1198 0.950 . S
C1203 C1201 1.390 . S
C1203 C1204 1.387 . S
C1203 H1206 0.950 . S
C1204 C1203 1.387 . S
C1204 C1207 1.387 . S
H1205 C1201 0.950 . S
H1206 C1203 0.950 . S
C1207 C1198 1.390 . S
C1207 H1200 0.950 . S
C1207 C1204 1.387 . S
C1208 C1209 1.387 . S
C1208 H1212 0.950 . S
C1208 C1217 1.390 . S
C1209 C1208 1.387 . S
C1209 C1211 1.387 . S
H1210 C1217 0.950 . S
C1211 C1209 1.387 . S
C1211 C1213 1.390 . S
C1211 H1215 0.950 . S
H1212 C1208 0.950 . S
C1213 C1211 1.390 . S
C1213 C1214 1.387 . S
C1213 H1216 0.950 . S
C1214 C1213 1.387 . S
C1214 C1217 1.387 . S
H1215 C1211 0.950 . S
H1216 C1213 0.950 . S
C1217 C1208 1.390 . S
C1217 H1210 0.950 . S
C1217 C1214 1.387 . S
C1218 C1219 1.387 . S
C1218 H1222 0.950 . S
C1218 C1227 1.390 . S
C1219 C1218 1.387 . S
C1219 C1221 1.387 . S
H1220 C1227 0.950 . S
C1221 C1219 1.387 . S
C1221 C1223 1.390 . S
C1221 H1225 0.950 . S
H1222 C1218 0.950 . S
C1223 C1221 1.390 . S
C1223 C1224 1.387 . S
C1223 H1226 0.950 . S
C1224 C1223 1.387 . S
C1224 C1227 1.387 . S
H1225 C1221 0.950 . S
H1226 C1223 0.950 . S
C1227 C1218 1.390 . S
C1227 H1220 0.950 . S
C1227 C1224 1.387 . S
C1228 C1229 1.387 . S
C1228 H1232 0.950 . S
C1228 C1237 1.390 . S
C1229 C1228 1.387 . S
C1229 C1231 1.387 . S
H1230 C1237 0.950 . S
C1231 C1229 1.387 . S
C1231 C1233 1.390 . S
C1231 H1235 0.950 . S
H1232 C1228 0.950 . S
C1233 C1231 1.390 . S
C1233 C1234 1.387 . S
C1233 H1236 0.950 . S
C1234 C1233 1.387 . S
C1234 C1237 1.387 . S
H1235 C1231 0.950 . S
H1236 C1233 0.950 . S
C1237 C1228 1.390 . S
C1237 H1230 0.950 . S
C1237 C1234 1.387 . S
C1238 C1239 1.387 . S
C1238 H1242 0.950 . S
C1238 C1247 1.390 . S
C1239 C1238 1.387 . S
C1239 C1241 1.387 . S
H1240 C1247 0.950 . S
C1241 C1239 1.387 . S
C1241 C1243 1.390 . S
C1241 H1245 0.950 . S
H1242 C1238 0.950 . S
C1243 C1241 1.390 . S
C1243 C1244 1.387 . S
C1243 H1246 0.950 . S
C1244 C1243 1.387 . S
C1244 C1247 1.387 . S
H1245 C1241 0.950 . S
H1246 C1243 0.950 . S
C1247 C1238 1.390 . S
C1247 H1240 0.950 . S
C1247 C1244 1.387 . S
C1248 C1249 1.387 . S
C1248 H1252 0.950 . S
C1248 C1257 1.390 . S
C1249 C1248 1.387 . S
C1249 C1251 1.387 . S
H1250 C1257 0.950 . S
C1251 C1249 1.387 . S
C1251 C1253 1.390 . S
C1251 H1255 0.950 . S
H1252 C1248 0.950 . S
C1253 C1251 1.390 . S
C1253 C1254 1.387 . S
C1253 H1256 0.950 . S
C1254 C1253 1.387 . S
C1254 C1257 1.387 . S
H1255 C1251 0.950 . S
H1256 C1253 0.950 . S
C1257 C1248 1.390 . S
C1257 H1250 0.950 . S
C1257 C1254 1.387 . S
C1258 C1259 1.387 . S
C1258 H1262 0.950 . S
C1258 C1267 1.390 . S
C1259 C1258 1.387 . S
C1259 C1261 1.387 . S
H1260 C1267 0.950 . S
C1261 C1259 1.387 . S
C1261 C1263 1.390 . S
C1261 H1265 0.950 . S
H1262 C1258 0.950 . S
C1263 C1261 1.390 . S
C1263 C1264 1.387 . S
C1263 H1266 0.950 . S
C1264 C1263 1.387 . S
C1264 C1267 1.387 . S
H1265 C1261 0.950 . S
H1266 C1263 0.950 . S
C1267 C1258 1.390 . S
C1267 H1260 0.950 . S
C1267 C1264 1.387 . S
C1268 C1269 1.387 . S
C1268 H1272 0.950 . S
C1268 C1277 1.390 . S
C1269 C1268 1.387 . S
C1269 C1271 1.387 . S
H1270 C1277 0.950 . S
C1271 C1269 1.387 . S
C1271 C1273 1.390 . S
C1271 H1275 0.950 . S
H1272 C1268 0.950 . S
C1273 C1271 1.390 . S
C1273 C1274 1.387 . S
C1273 H1276 0.950 . S
C1274 C1273 1.387 . S
C1274 C1277 1.387 . S
H1275 C1271 0.950 . S
H1276 C1273 0.950 . S
C1277 C1268 1.390 . S
C1277 H1270 0.950 . S
C1277 C1274 1.387 . S
C1278 C1279 1.387 . S
C1278 H1282 0.950 . S
C1278 C1287 1.390 . S
C1279 C1278 1.387 . S
C1279 C1281 1.387 . S
H1280 C1287 0.950 . S
C1281 C1279 1.387 . S
C1281 C1283 1.390 . S
C1281 H1285 0.950 . S
H1282 C1278 0.950 . S
C1283 C1281 1.390 . S
C1283 C1284 1.387 . S
C1283 H1286 0.950 . S
C1284 C1283 1.387 . S
C1284 C1287 1.387 . S
H1285 C1281 0.950 . S
H1286 C1283 0.950 . S
C1287 C1278 1.390 . S
C1287 H1280 0.950 . S
C1287 C1284 1.387 . S
C1288 C1289 1.387 . S
C1288 H1292 0.950 . S
C1288 C1297 1.390 . S
C1289 C1288 1.387 . S
C1289 C1291 1.387 . S
H1290 C1297 0.950 . S
C1291 C1289 1.387 . S
C1291 C1293 1.390 . S
C1291 H1295 0.950 . S
H1292 C1288 0.950 . S
C1293 C1291 1.390 . S
C1293 C1294 1.387 . S
C1293 H1296 0.950 . S
C1294 C1293 1.387 . S
C1294 C1297 1.387 . S
H1295 C1291 0.950 . S
H1296 C1293 0.950 . S
C1297 C1288 1.390 . S
C1297 H1290 0.950 . S
C1297 C1294 1.387 . S
C1298 C1299 1.387 . S
C1298 H1302 0.950 . S
C1298 C1307 1.390 . S
C1299 C1298 1.387 . S
C1299 C1301 1.387 . S
H1300 C1307 0.950 . S
C1301 C1299 1.387 . S
C1301 C1303 1.390 . S
C1301 H1305 0.950 . S
H1302 C1298 0.950 . S
C1303 C1301 1.390 . S
C1303 C1304 1.387 . S
C1303 H1306 0.950 . S
C1304 C1303 1.387 . S
C1304 C1307 1.387 . S
H1305 C1301 0.950 . S
H1306 C1303 0.950 . S
C1307 C1298 1.390 . S
C1307 H1300 0.950 . S
C1307 C1304 1.387 . S
C1308 C1309 1.387 . S
C1308 H1312 0.950 . S
C1308 C1317 1.390 . S
C1309 C1308 1.387 . S
C1309 C1311 1.387 . S
H1310 C1317 0.950 . S
C1311 C1309 1.387 . S
C1311 C1313 1.390 . S
C1311 H1315 0.950 . S
H1312 C1308 0.950 . S
C1313 C1311 1.390 . S
C1313 C1314 1.387 . S
C1313 H1316 0.950 . S
C1314 C1313 1.387 . S
C1314 C1317 1.387 . S
H1315 C1311 0.950 . S
H1316 C1313 0.950 . S
C1317 C1308 1.390 . S
C1317 H1310 0.950 . S
C1317 C1314 1.387 . S
C1318 C1319 1.387 . S
C1318 H1322 0.950 . S
C1318 C1327 1.390 . S
C1319 C1318 1.387 . S
C1319 C1321 1.387 . S
H1320 C1327 0.950 . S
C1321 C1319 1.387 . S
C1321 C1323 1.390 . S
C1321 H1325 0.950 . S
H1322 C1318 0.950 . S
C1323 C1321 1.390 . S
C1323 C1324 1.387 . S
C1323 H1326 0.950 . S
C1324 C1323 1.387 . S
C1324 C1327 1.387 . S
H1325 C1321 0.950 . S
H1326 C1323 0.950 . S
C1327 C1318 1.390 . S
C1327 H1320 0.950 . S
C1327 C1324 1.387 . S
C1328 C1329 1.387 . S
C1328 H1332 0.950 . S
C1328 C1337 1.390 . S
C1329 C1328 1.387 . S
C1329 C1331 1.387 . S
H1330 C1337 0.950 . S
C1331 C1329 1.387 . S
C1331 C1333 1.390 . S
C1331 H1335 0.950 . S
H1332 C1328 0.950 . S
C1333 C1331 1.390 . S
C1333 C1334 1.387 . S
C1333 H1336 0.950 . S
C1334 C1333 1.387 . S
C1334 C1337 1.387 . S
H1335 C1331 0.950 . S
H1336 C1333 0.950 . S
C1337 C1328 1.390 . S
C1337 H1330 0.950 . S
C1337 C1334 1.387 . S
C1338 C1339 1.387 . S
C1338 H1342 0.950 . S
C1338 C1347 1.390 . S
C1339 C1338 1.387 . S
C1339 C1341 1.387 . S
H1340 C1347 0.950 . S
C1341 C1339 1.387 . S
C1341 C1343 1.390 . S
C1341 H1345 0.950 . S
H1342 C1338 0.950 . S
C1343 C1341 1.390 . S
C1343 C1344 1.387 . S
C1343 H1346 0.950 . S
C1344 C1343 1.387 . S
C1344 C1347 1.387 . S
H1345 C1341 0.950 . S
H1346 C1343 0.950 . S
C1347 C1338 1.390 . S
C1347 H1340 0.950 . S
C1347 C1344 1.387 . S
C1348 C1349 1.387 . S
C1348 H1352 0.950 . S
C1348 C1357 1.390 . S
C1349 C1348 1.387 . S
C1349 C1351 1.387 . S
H1350 C1357 0.950 . S
C1351 C1349 1.387 . S
C1351 C1353 1.390 . S
C1351 H1355 0.950 . S
H1352 C1348 0.950 . S
C1353 C1351 1.390 . S
C1353 C1354 1.387 . S
C1353 H1356 0.950 . S
C1354 C1353 1.387 . S
C1354 C1357 1.387 . S
H1355 C1351 0.950 . S
H1356 C1353 0.950 . S
C1357 C1348 1.390 . S
C1357 H1350 0.950 . S
C1357 C1354 1.387 . S
C1358 C1359 1.387 . S
C1358 H1362 0.950 . S
C1358 C1367 1.390 . S
C1359 C1358 1.387 . S
C1359 C1361 1.387 . S
H1360 C1367 0.950 . S
C1361 C1359 1.387 . S
C1361 C1363 1.390 . S
C1361 H1365 0.950 . S
H1362 C1358 0.950 . S
C1363 C1361 1.390 . S
C1363 C1364 1.387 . S
C1363 H1366 0.950 . S
C1364 C1363 1.387 . S
C1364 C1367 1.387 . S
H1365 C1361 0.950 . S
H1366 C1363 0.950 . S
C1367 C1358 1.390 . S
C1367 H1360 0.950 . S
C1367 C1364 1.387 . S
C1368 C1369 1.387 . S
C1368 H1372 0.950 . S
C1368 C1377 1.390 . S
C1369 C1368 1.387 . S
C1369 C1371 1.387 . S
H1370 C1377 0.950 . S
C1371 C1369 1.387 . S
C1371 C1373 1.390 . S
C1371 H1375 0.950 . S
H1372 C1368 0.950 . S
C1373 C1371 1.390 . S
C1373 C1374 1.387 . S
C1373 H1376 0.950 . S
C1374 C1373 1.387 . S
C1374 C1377 1.387 . S
H1375 C1371 0.950 . S
H1376 C1373 0.950 . S
C1377 C1368 1.390 . S
C1377 H1370 0.950 . S
C1377 C1374 1.387 . S
C1378 C1379 1.387 . S
C1378 H1382 0.950 . S
C1378 C1387 1.390 . S
C1379 C1378 1.387 . S
C1379 C1381 1.387 . S
H1380 C1387 0.950 . S
C1381 C1379 1.387 . S
C1381 C1383 1.390 . S
C1381 H1385 0.950 . S
H1382 C1378 0.950 . S
C1383 C1381 1.390 . S
C1383 C1384 1.387 . S
C1383 H1386 0.950 . S
C1384 C1383 1.387 . S
C1384 C1387 1.387 . S
H1385 C1381 0.950 . S
H1386 C1383 0.950 . S
C1387 C1378 1.390 . S
C1387 H1380 0.950 . S
C1387 C1384 1.387 . S
C1388 C1389 1.387 . S
C1388 H1392 0.950 . S
C1388 C1397 1.390 . S
C1389 C1388 1.387 . S
C1389 C1391 1.387 . S
H1390 C1397 0.950 . S
C1391 C1389 1.387 . S
C1391 C1393 1.390 . S
C1391 H1395 0.950 . S
H1392 C1388 0.950 . S
C1393 C1391 1.390 . S
C1393 C1394 1.387 . S
C1393 H1396 0.950 . S
C1394 C1393 1.387 . S
C1394 C1397 1.387 . S
H1395 C1391 0.950 . S
H1396 C1393 0.950 . S
C1397 C1388 1.390 . S
C1397 H1390 0.950 . S
C1397 C1394 1.387 . S
C1398 C1399 1.387 . S
C1398 H1402 0.950 . S
C1398 C1407 1.390 . S
C1399 C1398 1.387 . S
C1399 C1401 1.387 . S
H1400 C1407 0.950 . S
C1401 C1399 1.387 . S
C1401 C1403 1.390 . S
C1401 H1405 0.950 . S
H1402 C1398 0.950 . S
C1403 C1401 1.390 . S
C1403 C1404 1.387 . S
C1403 H1406 0.950 . S
C1404 C1403 1.387 . S
C1404 C1407 1.387 . S
H1405 C1401 0.950 . S
H1406 C1403 0.950 . S
C1407 C1398 1.390 . S
C1407 H1400 0.950 . S
C1407 C1404 1.387 . S
C1408 C1409 1.387 . S
C1408 H1412 0.950 . S
C1408 C1417 1.390 . S
C1409 C1408 1.387 . S
C1409 C1411 1.387 . S
H1410 C1417 0.950 . S
C1411 C1409 1.387 . S
C1411 C1413 1.390 . S
C1411 H1415 0.950 . S
H1412 C1408 0.950 . S
C1413 C1411 1.390 . S
C1413 C1414 1.387 . S
C1413 H1416 0.950 1_554 S
C1414 C1413 1.387 . S
C1414 C1417 1.387 . S
H1415 C1411 0.950 . S
H1416 C1413 0.950 1_556 S
C1417 C1408 1.390 . S
C1417 H1410 0.950 . S
C1417 C1414 1.387 . S
C1418 C1419 1.387 . S
C1418 H1422 0.950 . S
C1418 C1427 1.390 . S
C1419 C1418 1.387 . S
C1419 C1421 1.387 . S
H1420 C1427 0.950 . S
C1421 C1419 1.387 . S
C1421 C1423 1.390 . S
C1421 H1425 0.950 . S
H1422 C1418 0.950 . S
C1423 C1421 1.390 . S
C1423 C1424 1.387 . S
C1423 H1426 0.950 . S
C1424 C1423 1.387 . S
C1424 C1427 1.387 . S
H1425 C1421 0.950 . S
H1426 C1423 0.950 . S
C1427 C1418 1.390 . S
C1427 H1420 0.950 . S
C1427 C1424 1.387 . S
C1428 C1429 1.387 . S
C1428 H1432 0.950 . S
C1428 C1437 1.390 . S
C1429 C1428 1.387 . S
C1429 C1431 1.387 . S
H1430 C1437 0.950 . S
C1431 C1429 1.387 . S
C1431 C1433 1.390 . S
C1431 H1435 0.950 . S
H1432 C1428 0.950 . S
C1433 C1431 1.390 . S
C1433 C1434 1.387 . S
C1433 H1436 0.950 . S
C1434 C1433 1.387 . S
C1434 C1437 1.387 . S
H1435 C1431 0.950 . S
H1436 C1433 0.950 . S
C1437 C1428 1.390 . S
C1437 H1430 0.950 . S
C1437 C1434 1.387 . S
C1438 C1439 1.387 . S
C1438 H1442 0.950 1_556 S
C1438 C1447 1.390 . S
C1439 C1438 1.387 . S
C1439 C1441 1.387 . S
H1440 C1447 0.950 . S
C1441 C1439 1.387 . S
C1441 C1443 1.390 . S
C1441 H1445 0.950 . S
H1442 C1438 0.950 1_554 S
C1443 C1441 1.390 . S
C1443 C1444 1.387 . S
C1443 H1446 0.950 . S
C1444 C1443 1.387 . S
C1444 C1447 1.387 . S
H1445 C1441 0.950 . S
H1446 C1443 0.950 . S
C1447 C1438 1.390 . S
C1447 H1440 0.950 . S
C1447 C1444 1.387 . S
C1448 C1449 1.387 . S
C1448 H1452 0.950 . S
C1448 C1457 1.390 . S
C1449 C1448 1.387 . S
C1449 C1451 1.387 . S
H1450 C1457 0.950 . S
C1451 C1449 1.387 . S
C1451 C1453 1.390 . S
C1451 H1455 0.950 . S
H1452 C1448 0.950 . S
C1453 C1451 1.390 . S
C1453 C1454 1.387 . S
C1453 H1456 0.950 1_556 S
C1454 C1453 1.387 . S
C1454 C1457 1.387 . S
H1455 C1451 0.950 . S
H1456 C1453 0.950 1_554 S
C1457 C1448 1.390 . S
C1457 H1450 0.950 . S
C1457 C1454 1.387 . S
C1458 C1459 1.387 . S
C1458 H1462 0.950 1_554 S
C1458 C1467 1.390 . S
C1459 C1458 1.387 . S
C1459 C1461 1.387 . S
H1460 C1467 0.950 . S
C1461 C1459 1.387 . S
C1461 C1463 1.390 . S
C1461 H1465 0.950 . S
H1462 C1458 0.950 1_556 S
C1463 C1461 1.390 . S
C1463 C1464 1.387 . S
C1463 H1466 0.950 . S
C1464 C1463 1.387 . S
C1464 C1467 1.387 . S
H1465 C1461 0.950 . S
H1466 C1463 0.950 . S
C1467 C1458 1.390 . S
C1467 H1460 0.950 . S
C1467 C1464 1.387 . S
C1468 C1469 1.387 . S
C1468 H1472 0.950 . S
C1468 C1477 1.390 . S
C1469 C1468 1.387 . S
C1469 C1471 1.387 . S
H1470 C1477 0.950 . S
C1471 C1469 1.387 . S
C1471 C1473 1.390 . S
C1471 H1475 0.950 . S
H1472 C1468 0.950 . S
C1473 C1471 1.390 . S
C1473 C1474 1.387 . S
C1473 H1476 0.950 . S
C1474 C1473 1.387 . S
C1474 C1477 1.387 . S
H1475 C1471 0.950 . S
H1476 C1473 0.950 . S
C1477 C1468 1.390 . S
C1477 H1470 0.950 . S
C1477 C1474 1.387 . S
C1478 C1479 1.387 . S
C1478 H1482 0.950 . S
C1478 C1487 1.390 . S
C1479 C1478 1.387 . S
C1479 C1481 1.387 . S
H1480 C1487 0.950 . S
C1481 C1479 1.387 . S
C1481 C1483 1.390 . S
C1481 H1485 0.950 . S
H1482 C1478 0.950 . S
C1483 C1481 1.390 . S
C1483 C1484 1.387 . S
C1483 H1486 0.950 . S
C1484 C1483 1.387 . S
C1484 C1487 1.387 . S
H1485 C1481 0.950 . S
H1486 C1483 0.950 . S
C1487 C1478 1.390 . S
C1487 H1480 0.950 . S
C1487 C1484 1.387 . S
C1488 C1489 1.387 . S
C1488 H1492 0.950 . S
C1488 C1497 1.390 . S
C1489 C1488 1.387 . S
C1489 C1491 1.387 . S
H1490 C1497 0.950 1_554 S
C1491 C1489 1.387 . S
C1491 C1493 1.390 . S
C1491 H1495 0.950 . S
H1492 C1488 0.950 . S
C1493 C1491 1.390 . S
C1493 C1494 1.387 . S
C1493 H1496 0.950 . S
C1494 C1493 1.387 . S
C1494 C1497 1.387 . S
H1495 C1491 0.950 . S
H1496 C1493 0.950 . S
C1497 C1488 1.390 . S
C1497 H1490 0.950 1_556 S
C1497 C1494 1.387 . S
C1498 C1499 1.387 . S
C1498 H1502 0.950 . S
C1498 C1507 1.390 . S
C1499 C1498 1.387 . S
C1499 C1501 1.387 . S
H1500 C1507 0.950 . S
C1501 C1499 1.387 . S
C1501 C1503 1.390 . S
C1501 H1505 0.950 . S
H1502 C1498 0.950 . S
C1503 C1501 1.390 . S
C1503 C1504 1.387 . S
C1503 H1506 0.950 . S
C1504 C1503 1.387 . S
C1504 C1507 1.387 . S
H1505 C1501 0.950 . S
H1506 C1503 0.950 . S
C1507 C1498 1.390 . S
C1507 H1500 0.950 . S
C1507 C1504 1.387 . S
C1508 C1509 1.387 . S
C1508 H1512 0.950 . S
C1508 C1517 1.390 . S
C1509 C1508 1.387 . S
C1509 C1511 1.387 . S
H1510 C1517 0.950 . S
C1511 C1509 1.387 . S
C1511 C1513 1.390 . S
C1511 H1515 0.950 . S
H1512 C1508 0.950 . S
C1513 C1511 1.390 . S
C1513 C1514 1.387 . S
C1513 H1516 0.950 . S
C1514 C1513 1.387 . S
C1514 C1517 1.387 . S
H1515 C1511 0.950 . S
H1516 C1513 0.950 . S
C1517 C1508 1.390 . S
C1517 H1510 0.950 . S
C1517 C1514 1.387 . S
C1518 C1519 1.387 . S
C1518 H1522 0.950 . S
C1518 C1527 1.390 . S
C1519 C1518 1.387 . S
C1519 C1521 1.387 . S
H1520 C1527 0.950 . S
C1521 C1519 1.387 . S
C1521 C1523 1.390 . S
C1521 H1525 0.950 . S
H1522 C1518 0.950 . S
C1523 C1521 1.390 . S
C1523 C1524 1.387 . S
C1523 H1526 0.950 1_554 S
C1524 C1523 1.387 . S
C1524 C1527 1.387 . S
H1525 C1521 0.950 . S
H1526 C1523 0.950 1_556 S
C1527 C1518 1.390 . S
C1527 H1520 0.950 . S
C1527 C1524 1.387 . S
C1528 C1529 1.387 . S
C1528 H1532 0.950 . S
C1528 C1537 1.390 . S
C1529 C1528 1.387 . S
C1529 C1531 1.387 . S
H1530 C1537 0.950 . S
C1531 C1529 1.387 . S
C1531 C1533 1.390 . S
C1531 H1535 0.950 1_554 S
H1532 C1528 0.950 . S
C1533 C1531 1.390 . S
C1533 C1534 1.387 . S
C1533 H1536 0.950 . S
C1534 C1533 1.387 . S
C1534 C1537 1.387 . S
H1535 C1531 0.950 1_556 S
H1536 C1533 0.950 . S
C1537 C1528 1.390 . S
C1537 H1530 0.950 . S
C1537 C1534 1.387 . S
C1538 C1539 1.387 . S
C1538 H1542 0.950 . S
C1538 C1547 1.390 . S
C1539 C1538 1.387 . S
C1539 C1541 1.387 . S
H1540 C1547 0.950 . S
C1541 C1539 1.387 . S
C1541 C1543 1.390 . S
C1541 H1545 0.950 . S
H1542 C1538 0.950 . S
C1543 C1541 1.390 . S
C1543 C1544 1.387 . S
C1543 H1546 0.950 1_556 S
C1544 C1543 1.387 . S
C1544 C1547 1.387 . S
H1545 C1541 0.950 . S
H1546 C1543 0.950 1_554 S
C1547 C1538 1.390 . S
C1547 H1540 0.950 . S
C1547 C1544 1.387 . S
C1548 C1549 1.387 . S
C1548 H1552 0.950 . S
C1548 C1557 1.390 . S
C1549 C1548 1.387 . S
C1549 C1551 1.387 . S
H1550 C1557 0.950 . S
C1551 C1549 1.387 . S
C1551 C1553 1.390 . S
C1551 H1555 0.950 . S
H1552 C1548 0.950 . S
C1553 C1551 1.390 . S
C1553 C1554 1.387 . S
C1553 H1556 0.950 . S
C1554 C1553 1.387 . S
C1554 C1557 1.387 . S
H1555 C1551 0.950 . S
H1556 C1553 0.950 . S
C1557 C1548 1.390 . S
C1557 H1550 0.950 . S
C1557 C1554 1.387 . S
C1558 C1559 1.387 . S
C1558 H1562 0.950 . S
C1558 C1567 1.390 . S
C1559 C1558 1.387 . S
C1559 C1561 1.387 . S
H1560 C1567 0.950 . S
C1561 C1559 1.387 . S
C1561 C1563 1.390 . S
C1561 H1565 0.950 . S
H1562 C1558 0.950 . S
C1563 C1561 1.390 . S
C1563 C1564 1.387 . S
C1563 H1566 0.950 . S
C1564 C1563 1.387 . S
C1564 C1567 1.387 . S
H1565 C1561 0.950 . S
H1566 C1563 0.950 . S
C1567 C1558 1.390 . S
C1567 H1560 0.950 . S
C1567 C1564 1.387 . S
C1568 C1569 1.387 . S
C1568 H1572 0.950 . S
C1568 C1577 1.390 1_556 S
C1569 C1568 1.387 . S
C1569 C1571 1.387 . S
H1570 C1577 0.950 . S
C1571 C1569 1.387 . S
C1571 C1573 1.390 1_556 S
C1571 H1575 0.950 . S
H1572 C1568 0.950 . S
C1573 C1571 1.390 1_554 S
C1573 C1574 1.387 . S
C1573 H1576 0.950 . S
C1574 C1573 1.387 . S
C1574 C1577 1.387 . S
H1575 C1571 0.950 . S
H1576 C1573 0.950 . S
C1577 C1568 1.390 1_554 S
C1577 H1570 0.950 . S
C1577 C1574 1.387 . S
C1578 C1579 1.387 . S
C1578 H1582 0.950 . S
C1578 C1587 1.390 . S
C1579 C1578 1.387 . S
C1579 C1581 1.387 . S
H1580 C1587 0.950 . S
C1581 C1579 1.387 . S
C1581 C1583 1.390 . S
C1581 H1585 0.950 . S
H1582 C1578 0.950 . S
C1583 C1581 1.390 . S
C1583 C1584 1.387 . S
C1583 H1586 0.950 . S
C1584 C1583 1.387 . S
C1584 C1587 1.387 . S
H1585 C1581 0.950 . S
H1586 C1583 0.950 . S
C1587 C1578 1.390 . S
C1587 H1580 0.950 . S
C1587 C1584 1.387 . S
C1588 C1589 1.387 . S
C1588 H1592 0.950 . S
C1588 C1597 1.390 . S
C1589 C1588 1.387 . S
C1589 C1591 1.387 . S
H1590 C1597 0.950 . S
C1591 C1589 1.387 . S
C1591 C1593 1.390 . S
C1591 H1595 0.950 . S
H1592 C1588 0.950 . S
C1593 C1591 1.390 . S
C1593 C1594 1.387 . S
C1593 H1596 0.950 . S
C1594 C1593 1.387 . S
C1594 C1597 1.387 . S
H1595 C1591 0.950 . S
H1596 C1593 0.950 . S
C1597 C1588 1.390 . S
C1597 H1590 0.950 . S
C1597 C1594 1.387 . S
C1598 C1599 1.387 . S
C1598 H1602 0.950 . S
C1598 C1607 1.390 . S
C1599 C1598 1.387 . S
C1599 C1601 1.387 . S
H1600 C1607 0.950 . S
C1601 C1599 1.387 . S
C1601 C1603 1.390 . S
C1601 H1605 0.950 . S
H1602 C1598 0.950 . S
C1603 C1601 1.390 . S
C1603 C1604 1.387 . S
C1603 H1606 0.950 . S
C1604 C1603 1.387 . S
C1604 C1607 1.387 . S
H1605 C1601 0.950 . S
H1606 C1603 0.950 . S
C1607 C1598 1.390 . S
C1607 H1600 0.950 . S
C1607 C1604 1.387 . S
C1608 C1609 1.387 . S
C1608 H1612 0.950 . S
C1608 C1617 1.390 1_556 S
C1609 C1608 1.387 . S
C1609 C1611 1.387 . S
H1610 C1617 0.950 . S
C1611 C1609 1.387 . S
C1611 C1613 1.390 1_556 S
C1611 H1615 0.950 . S
H1612 C1608 0.950 . S
C1613 C1611 1.390 1_554 S
C1613 C1614 1.387 . S
C1613 H1616 0.950 . S
C1614 C1613 1.387 . S
C1614 C1617 1.387 . S
H1615 C1611 0.950 . S
H1616 C1613 0.950 . S
C1617 C1608 1.390 1_554 S
C1617 H1610 0.950 . S
C1617 C1614 1.387 . S
C1618 C1619 1.387 . S
C1618 H1622 0.950 . S
C1618 C1627 1.390 . S
C1619 C1618 1.387 . S
C1619 C1621 1.387 . S
H1620 C1627 0.950 . S
C1621 C1619 1.387 . S
C1621 C1623 1.390 . S
C1621 H1625 0.950 . S
H1622 C1618 0.950 . S
C1623 C1621 1.390 . S
C1623 C1624 1.387 . S
C1623 H1626 0.950 . S
C1624 C1623 1.387 . S
C1624 C1627 1.387 . S
H1625 C1621 0.950 . S
H1626 C1623 0.950 . S
C1627 C1618 1.390 . S
C1627 H1620 0.950 . S
C1627 C1624 1.387 . S
C1628 C1629 1.387 . S
C1628 H1632 0.950 . S
C1628 C1637 1.390 . S
C1629 C1628 1.387 . S
C1629 C1631 1.387 . S
H1630 C1637 0.950 . S
C1631 C1629 1.387 . S
C1631 C1633 1.390 . S
C1631 H1635 0.950 . S
H1632 C1628 0.950 . S
C1633 C1631 1.390 . S
C1633 C1634 1.387 . S
C1633 H1636 0.950 . S
C1634 C1633 1.387 . S
C1634 C1637 1.387 . S
H1635 C1631 0.950 . S
H1636 C1633 0.950 . S
C1637 C1628 1.390 . S
C1637 H1630 0.950 . S
C1637 C1634 1.387 . S
C1638 C1639 1.387 . S
C1638 H1642 0.950 . S
C1638 C1647 1.390 . S
C1639 C1638 1.387 . S
C1639 C1641 1.387 . S
H1640 C1647 0.950 . S
C1641 C1639 1.387 . S
C1641 C1643 1.390 . S
C1641 H1645 0.950 . S
H1642 C1638 0.950 . S
C1643 C1641 1.390 . S
C1643 C1644 1.387 . S
C1643 H1646 0.950 . S
C1644 C1643 1.387 . S
C1644 C1647 1.387 . S
H1645 C1641 0.950 . S
H1646 C1643 0.950 . S
C1647 C1638 1.390 . S
C1647 H1640 0.950 . S
C1647 C1644 1.387 . S
C1648 C1649 1.387 . S
C1648 H1652 0.950 . S
C1648 C1657 1.390 1_565 S
C1649 C1648 1.387 . S
C1649 C1651 1.387 . S
H1650 C1657 0.950 . S
C1651 C1649 1.387 . S
C1651 C1653 1.390 1_565 S
C1651 H1655 0.950 . S
H1652 C1648 0.950 . S
C1653 C1651 1.390 1_545 S
C1653 C1654 1.387 . S
C1653 H1656 0.950 . S
C1654 C1653 1.387 . S
C1654 C1657 1.387 . S
H1655 C1651 0.950 . S
H1656 C1653 0.950 . S
C1657 C1648 1.390 1_545 S
C1657 H1650 0.950 . S
C1657 C1654 1.387 . S
C1658 C1659 1.387 . S
C1658 H1662 0.950 . S
C1658 C1667 1.390 . S
C1659 C1658 1.387 . S
C1659 C1661 1.387 . S
H1660 C1667 0.950 . S
C1661 C1659 1.387 . S
C1661 C1663 1.390 . S
C1661 H1665 0.950 . S
H1662 C1658 0.950 . S
C1663 C1661 1.390 . S
C1663 C1664 1.387 . S
C1663 H1666 0.950 . S
C1664 C1663 1.387 . S
C1664 C1667 1.387 . S
H1665 C1661 0.950 . S
H1666 C1663 0.950 . S
C1667 C1658 1.390 . S
C1667 H1660 0.950 . S
C1667 C1664 1.387 . S
C1668 C1669 1.387 . S
C1668 H1672 0.950 . S
C1668 C1677 1.390 1_564 S
C1669 C1668 1.387 . S
C1669 C1671 1.387 . S
H1670 C1677 0.950 . S
C1671 C1669 1.387 . S
C1671 C1673 1.390 1_564 S
C1671 H1675 0.950 . S
H1672 C1668 0.950 . S
C1673 C1671 1.390 1_546 S
C1673 C1674 1.387 . S
C1673 H1676 0.950 . S
C1674 C1673 1.387 . S
C1674 C1677 1.387 . S
H1675 C1671 0.950 . S
H1676 C1673 0.950 . S
C1677 C1668 1.390 1_546 S
C1677 H1670 0.950 . S
C1677 C1674 1.387 . S
C1678 C1679 1.387 . S
C1678 H1682 0.950 . S
C1678 C1687 1.390 . S
C1679 C1678 1.387 . S
C1679 C1681 1.387 . S
H1680 C1687 0.950 . S
C1681 C1679 1.387 . S
C1681 C1683 1.390 . S
C1681 H1685 0.950 . S
H1682 C1678 0.950 . S
C1683 C1681 1.390 . S
C1683 C1684 1.387 . S
C1683 H1686 0.950 . S
C1684 C1683 1.387 . S
C1684 C1687 1.387 . S
H1685 C1681 0.950 . S
H1686 C1683 0.950 . S
C1687 C1678 1.390 . S
C1687 H1680 0.950 . S
C1687 C1684 1.387 . S
C1688 C1689 1.387 . S
C1688 H1692 0.950 . S
C1688 C1697 1.390 1_545 S
C1689 C1688 1.387 . S
C1689 C1691 1.387 . S
H1690 C1697 0.950 . S
C1691 C1689 1.387 . S
C1691 C1693 1.390 1_545 S
C1691 H1695 0.950 . S
H1692 C1688 0.950 . S
C1693 C1691 1.390 1_565 S
C1693 C1694 1.387 . S
C1693 H1696 0.950 . S
C1694 C1693 1.387 . S
C1694 C1697 1.387 . S
H1695 C1691 0.950 . S
H1696 C1693 0.950 . S
C1697 C1688 1.390 1_565 S
C1697 H1690 0.950 . S
C1697 C1694 1.387 . S
C1698 C1699 1.387 . S
C1698 H1702 0.950 . S
C1698 C1707 1.390 . S
C1699 C1698 1.387 . S
C1699 C1701 1.387 . S
H1700 C1707 0.950 . S
C1701 C1699 1.387 . S
C1701 C1703 1.390 . S
C1701 H1705 0.950 . S
H1702 C1698 0.950 . S
C1703 C1701 1.390 . S
C1703 C1704 1.387 . S
C1703 H1706 0.950 . S
C1704 C1703 1.387 . S
C1704 C1707 1.387 . S
H1705 C1701 0.950 . S
H1706 C1703 0.950 . S
C1707 C1698 1.390 . S
C1707 H1700 0.950 . S
C1707 C1704 1.387 . S
C1708 C1709 1.387 . S
C1708 H1712 0.950 . S
C1708 C1717 1.390 1_564 S
C1709 C1708 1.387 . S
C1709 C1711 1.387 . S
H1710 C1717 0.950 . S
C1711 C1709 1.387 . S
C1711 C1713 1.390 1_564 S
C1711 H1715 0.950 . S
H1712 C1708 0.950 . S
C1713 C1711 1.390 1_546 S
C1713 C1714 1.387 . S
C1713 H1716 0.950 . S
C1714 C1713 1.387 . S
C1714 C1717 1.387 . S
H1715 C1711 0.950 . S
H1716 C1713 0.950 . S
C1717 C1708 1.390 1_546 S
C1717 H1710 0.950 . S
C1717 C1714 1.387 . S
C1718 C1719 1.387 . S
C1718 H1722 0.950 . S
C1718 C1727 1.390 . S
C1719 C1718 1.387 . S
C1719 C1721 1.387 . S
H1720 C1727 0.950 . S
C1721 C1719 1.387 . S
C1721 C1723 1.390 . S
C1721 H1725 0.950 . S
H1722 C1718 0.950 . S
C1723 C1721 1.390 . S
C1723 C1724 1.387 . S
C1723 H1726 0.950 . S
C1724 C1723 1.387 . S
C1724 C1727 1.387 . S
H1725 C1721 0.950 . S
H1726 C1723 0.950 . S
C1727 C1718 1.390 . S
C1727 H1720 0.950 . S
C1727 C1724 1.387 . S
C1728 C1729 1.387 . S
C1728 H1732 0.950 1_554 S
C1728 C1737 1.390 1_455 S
C1729 C1728 1.387 . S
C1729 C1731 1.387 . S
H1730 C1737 0.950 1_556 S
C1731 C1729 1.387 . S
C1731 C1733 1.390 1_455 S
C1731 H1735 0.950 . S
H1732 C1728 0.950 1_556 S
C1733 C1731 1.390 1_655 S
C1733 C1734 1.387 . S
C1733 H1736 0.950 . S
C1734 C1733 1.387 . S
C1734 C1737 1.387 . S
H1735 C1731 0.950 . S
H1736 C1733 0.950 . S
C1737 C1728 1.390 1_655 S
C1737 H1730 0.950 1_554 S
C1737 C1734 1.387 . S
C1738 C1739 1.387 . S
C1738 H1742 0.950 . S
C1738 C1747 1.390 . S
C1739 C1738 1.387 . S
C1739 C1741 1.387 . S
H1740 C1747 0.950 . S
C1741 C1739 1.387 . S
C1741 C1743 1.390 . S
C1741 H1745 0.950 . S
H1742 C1738 0.950 . S
C1743 C1741 1.390 . S
C1743 C1744 1.387 . S
C1743 H1746 0.950 . S
C1744 C1743 1.387 . S
C1744 C1747 1.387 . S
H1745 C1741 0.950 . S
H1746 C1743 0.950 . S
C1747 C1738 1.390 . S
C1747 H1740 0.950 . S
C1747 C1744 1.387 . S
C1748 C1749 1.387 . S
C1748 H1752 0.950 . S
C1748 C1757 1.390 . S
C1749 C1748 1.387 . S
C1749 C1751 1.387 . S
H1750 C1757 0.950 . S
C1751 C1749 1.387 . S
C1751 C1753 1.390 . S
C1751 H1755 0.950 . S
H1752 C1748 0.950 . S
C1753 C1751 1.390 . S
C1753 C1754 1.387 . S
C1753 H1756 0.950 . S
C1754 C1753 1.387 . S
C1754 C1757 1.387 . S
H1755 C1751 0.950 . S
H1756 C1753 0.950 . S
C1757 C1748 1.390 . S
C1757 H1750 0.950 . S
C1757 C1754 1.387 . S
C1758 C1759 1.387 . S
C1758 H1762 0.950 . S
C1758 C1767 1.390 . S
C1759 C1758 1.387 . S
C1759 C1761 1.387 . S
H1760 C1767 0.950 . S
C1761 C1759 1.387 . S
C1761 C1763 1.390 . S
C1761 H1765 0.950 . S
H1762 C1758 0.950 . S
C1763 C1761 1.390 . S
C1763 C1764 1.387 . S
C1763 H1766 0.950 . S
C1764 C1763 1.387 . S
C1764 C1767 1.387 . S
H1765 C1761 0.950 . S
H1766 C1763 0.950 . S
C1767 C1758 1.390 . S
C1767 H1760 0.950 . S
C1767 C1764 1.387 . S
C1768 C1769 1.387 . S
C1768 H1772 0.950 . S
C1768 C1777 1.390 1_655 S
C1769 C1768 1.387 . S
C1769 C1771 1.387 . S
H1770 C1777 0.950 . S
C1771 C1769 1.387 . S
C1771 C1773 1.390 1_655 S
C1771 H1775 0.950 1_556 S
H1772 C1768 0.950 . S
C1773 C1771 1.390 1_455 S
C1773 C1774 1.387 . S
C1773 H1776 0.950 1_556 S
C1774 C1773 1.387 . S
C1774 C1777 1.387 . S
H1775 C1771 0.950 1_554 S
H1776 C1773 0.950 1_554 S
C1777 C1768 1.390 1_455 S
C1777 H1770 0.950 . S
C1777 C1774 1.387 . S
C1778 C1779 1.387 . S
C1778 H1782 0.950 . S
C1778 C1787 1.390 . S
C1779 C1778 1.387 . S
C1779 C1781 1.387 . S
H1780 C1787 0.950 . S
C1781 C1779 1.387 . S
C1781 C1783 1.390 . S
C1781 H1785 0.950 . S
H1782 C1778 0.950 . S
C1783 C1781 1.390 . S
C1783 C1784 1.387 . S
C1783 H1786 0.950 . S
C1784 C1783 1.387 . S
C1784 C1787 1.387 . S
H1785 C1781 0.950 . S
H1786 C1783 0.950 . S
C1787 C1778 1.390 . S
C1787 H1780 0.950 . S
C1787 C1784 1.387 . S
C1788 C1789 1.387 . S
C1788 H1792 0.950 . S
C1788 C1797 1.390 . S
C1789 C1788 1.387 . S
C1789 C1791 1.387 . S
H1790 C1797 0.950 . S
C1791 C1789 1.387 . S
C1791 C1793 1.390 . S
C1791 H1795 0.950 . S
H1792 C1788 0.950 . S
C1793 C1791 1.390 . S
C1793 C1794 1.387 . S
C1793 H1796 0.950 . S
C1794 C1793 1.387 . S
C1794 C1797 1.387 . S
H1795 C1791 0.950 . S
H1796 C1793 0.950 . S
C1797 C1788 1.390 . S
C1797 H1790 0.950 . S
C1797 C1794 1.387 . S
C1798 C1799 1.387 . S
C1798 H1802 0.950 . S
C1798 C1807 1.390 . S
C1799 C1798 1.387 . S
C1799 C1801 1.387 . S
H1800 C1807 0.950 . S
C1801 C1799 1.387 . S
C1801 C1803 1.390 . S
C1801 H1805 0.950 . S
H1802 C1798 0.950 . S
C1803 C1801 1.390 . S
C1803 C1804 1.387 . S
C1803 H1806 0.950 . S
C1804 C1803 1.387 . S
C1804 C1807 1.387 . S
H1805 C1801 0.950 . S
H1806 C1803 0.950 . S
C1807 C1798 1.390 . S
C1807 H1800 0.950 . S
C1807 C1804 1.387 . S
C1808 C1809 1.387 . S
C1808 H1812 0.950 . S
C1808 C1817 1.390 . S
C1809 C1808 1.387 . S
C1809 C1811 1.387 . S
H1810 C1817 0.950 . S
C1811 C1809 1.387 . S
C1811 C1813 1.390 . S
C1811 H1815 0.950 . S
H1812 C1808 0.950 . S
C1813 C1811 1.390 . S
C1813 C1814 1.387 . S
C1813 H1816 0.950 . S
C1814 C1813 1.387 . S
C1814 C1817 1.387 . S
H1815 C1811 0.950 . S
H1816 C1813 0.950 . S
C1817 C1808 1.390 . S
C1817 H1810 0.950 . S
C1817 C1814 1.387 . S
C1818 C1819 1.387 . S
C1818 H1822 0.950 . S
C1818 C1827 1.390 . S
C1819 C1818 1.387 . S
C1819 C1821 1.387 . S
H1820 C1827 0.950 . S
C1821 C1819 1.387 . S
C1821 C1823 1.390 . S
C1821 H1825 0.950 . S
H1822 C1818 0.950 . S
C1823 C1821 1.390 . S
C1823 C1824 1.387 . S
C1823 H1826 0.950 . S
C1824 C1823 1.387 . S
C1824 C1827 1.387 . S
H1825 C1821 0.950 . S
H1826 C1823 0.950 . S
C1827 C1818 1.390 . S
C1827 H1820 0.950 . S
C1827 C1824 1.387 . S
C1828 C1829 1.387 . S
C1828 H1832 0.950 . S
C1828 C1837 1.390 . S
C1829 C1828 1.387 . S
C1829 C1831 1.387 . S
H1830 C1837 0.950 . S
C1831 C1829 1.387 . S
C1831 C1833 1.390 . S
C1831 H1835 0.950 . S
H1832 C1828 0.950 . S
C1833 C1831 1.390 . S
C1833 C1834 1.387 . S
C1833 H1836 0.950 . S
C1834 C1833 1.387 . S
C1834 C1837 1.387 . S
H1835 C1831 0.950 . S
H1836 C1833 0.950 . S
C1837 C1828 1.390 . S
C1837 H1830 0.950 . S
C1837 C1834 1.387 . S
C1838 C1839 1.387 . S
C1838 H1842 0.950 . S
C1838 C1847 1.390 . S
C1839 C1838 1.387 . S
C1839 C1841 1.387 . S
H1840 C1847 0.950 . S
C1841 C1839 1.387 . S
C1841 C1843 1.390 . S
C1841 H1845 0.950 . S
H1842 C1838 0.950 . S
C1843 C1841 1.390 . S
C1843 C1844 1.387 . S
C1843 H1846 0.950 . S
C1844 C1843 1.387 . S
C1844 C1847 1.387 . S
H1845 C1841 0.950 . S
H1846 C1843 0.950 . S
C1847 C1838 1.390 . S
C1847 H1840 0.950 . S
C1847 C1844 1.387 . S
C1848 C1849 1.387 . S
C1848 H1852 0.950 . S
C1848 C1857 1.390 . S
C1849 C1848 1.387 . S
C1849 C1851 1.387 . S
H1850 C1857 0.950 . S
C1851 C1849 1.387 . S
C1851 C1853 1.390 . S
C1851 H1855 0.950 . S
H1852 C1848 0.950 . S
C1853 C1851 1.390 . S
C1853 C1854 1.387 . S
C1853 H1856 0.950 . S
C1854 C1853 1.387 . S
C1854 C1857 1.387 . S
H1855 C1851 0.950 . S
H1856 C1853 0.950 . S
C1857 C1848 1.390 . S
C1857 H1850 0.950 . S
C1857 C1854 1.387 . S
C1858 C1859 1.387 . S
C1858 H1862 0.950 1_554 S
C1858 C1867 1.390 1_455 S
C1859 C1858 1.387 . S
C1859 C1861 1.387 . S
H1860 C1867 0.950 1_556 S
C1861 C1859 1.387 . S
C1861 C1863 1.390 1_455 S
C1861 H1865 0.950 . S
H1862 C1858 0.950 1_556 S
C1863 C1861 1.390 1_655 S
C1863 C1864 1.387 . S
C1863 H1866 0.950 . S
C1864 C1863 1.387 . S
C1864 C1867 1.387 . S
H1865 C1861 0.950 . S
H1866 C1863 0.950 . S
C1867 C1858 1.390 1_655 S
C1867 H1860 0.950 1_554 S
C1867 C1864 1.387 . S
C1868 C1869 1.387 . S
C1868 H1872 0.950 . S
C1868 C1877 1.390 . S
C1869 C1868 1.387 . S
C1869 C1871 1.387 . S
H1870 C1877 0.950 . S
C1871 C1869 1.387 . S
C1871 C1873 1.390 . S
C1871 H1875 0.950 . S
H1872 C1868 0.950 . S
C1873 C1871 1.390 . S
C1873 C1874 1.387 . S
C1873 H1876 0.950 . S
C1874 C1873 1.387 . S
C1874 C1877 1.387 . S
H1875 C1871 0.950 . S
H1876 C1873 0.950 . S
C1877 C1868 1.390 . S
C1877 H1870 0.950 . S
C1877 C1874 1.387 . S
C1878 C1879 1.387 . S
C1878 H1882 0.950 . S
C1878 C1887 1.390 1_455 S
C1879 C1878 1.387 . S
C1879 C1881 1.387 . S
H1880 C1887 0.950 . S
C1881 C1879 1.387 . S
C1881 C1883 1.390 1_455 S
C1881 H1885 0.950 1_556 S
H1882 C1878 0.950 . S
C1883 C1881 1.390 1_655 S
C1883 C1884 1.387 . S
C1883 H1886 0.950 1_556 S
C1884 C1883 1.387 . S
C1884 C1887 1.387 . S
H1885 C1881 0.950 1_554 S
H1886 C1883 0.950 1_554 S
C1887 C1878 1.390 1_655 S
C1887 H1880 0.950 . S
C1887 C1884 1.387 . S
C1089 C5 1.471 . S
C1094 C9 1.423 . S
C1099 C43 1.423 . S
C1104 C39 1.471 1_556 S
C1109 C77 1.422 1_554 S
C1114 C73 1.471 . S
C1119 C111 1.423 . S
C1124 C107 1.471 . S
C1129 C145 1.423 . S
C1134 C141 1.471 . S
C1139 C179 1.420 . S
C1144 C175 1.471 . S
C1149 C209 1.471 . S
C1154 C213 1.423 1_556 S
C1159 C243 1.471 1_554 S
C1164 C247 1.423 . S
C1169 C277 1.471 . S
C1174 C281 1.423 . S
C1179 C311 1.471 1_554 S
C1184 C315 1.423 . S
C1189 C345 1.471 . S
C1194 C349 1.423 1_556 S
C1199 C383 1.420 . S
C1204 C379 1.471 . S
C1209 C413 1.471 . S
C1214 C417 1.423 . S
C1219 C447 1.471 . S
C1224 C451 1.423 . S
C1229 C485 1.420 1_554 S
C1234 C481 1.471 . S
C1239 C515 1.471 1_556 S
C1244 C519 1.422 . S
C1249 C553 1.423 1_554 S
C1254 C549 1.471 . S
C1259 C587 1.423 . S
C1264 C583 1.471 . S
C1269 C621 1.422 . S
C1274 C617 1.471 . S
C1279 C655 1.423 . S
C1284 C651 1.471 1_556 S
C1289 C689 1.421 1_556 S
C1294 C685 1.471 . S
C1299 C723 1.423 . S
C1304 C719 1.471 1_554 S
C1309 C757 1.420 . S
C1314 C753 1.471 . S
C1319 C787 1.471 . S
C1324 C791 1.421 . S
C1329 C825 1.423 1_556 S
C1334 C821 1.471 . S
C1339 C859 1.423 . S
C1344 C855 1.471 . S
C1349 C893 1.423 . S
C1354 C889 1.471 . S
C1359 C923 1.471 1_554 S
C1364 C927 1.420 . S
C1369 C957 1.471 . S
C1374 C961 1.422 1_554 S
C1379 C991 1.471 1_556 S
C1384 C995 1.423 . S
C1389 C1029 1.423 . S
C1394 C1025 1.471 . S
C1399 C1059 1.471 . S
C1404 C1063 1.421 . S
C1409 C802 1.519 . S
C1414 C20 1.518 . S
C1419 C700 1.518 . S
C1424 C54 1.519 . S
C1429 C734 1.518 . S
C1434 C88 1.518 . S
C1439 C768 1.519 . S
C1444 C122 1.518 . S
C1449 C598 1.519 . S
C1454 C156 1.518 . S
C1459 C632 1.519 . S
C1464 C190 1.518 . S
C1469 C666 1.518 . S
C1474 C224 1.519 . S
C1479 C564 1.518 . S
C1484 C258 1.519 . S
C1489 C1074 1.519 . S
C1494 C292 1.518 . S
C1499 C972 1.518 . S
C1504 C326 1.519 . S
C1509 C360 1.518 . S
C1514 C1006 1.519 . S
C1519 C394 1.518 . S
C1524 C1040 1.519 . S
C1529 C428 1.519 . S
C1534 C870 1.518 . S
C1539 C462 1.518 . S
C1544 C904 1.519 . S
C1549 C496 1.519 . S
C1554 C938 1.518 . S
C1559 C836 1.518 . S
C1564 C530 1.518 . S
C1569 C169 1.294 . S
C1574 C33 1.294 . S
C1579 C67 1.296 . S
C1584 C203 1.296 . S
C1589 C237 1.296 . S
C1594 C101 1.296 . S
C1599 C135 1.294 . S
C1604 C271 1.294 . S
C1609 C305 1.294 . S
C1614 C441 1.294 . S
C1619 C475 1.296 . S
C1624 C339 1.296 . S
C1629 C509 1.296 . S
C1634 C373 1.296 . S
C1639 C543 1.296 . S
C1644 C407 1.296 . S
C1649 C713 1.294 . S
C1654 C577 1.294 . S
C1659 C611 1.294 . S
C1664 C747 1.294 . S
C1669 C645 1.294 . S
C1674 C781 1.294 . S
C1679 C679 1.296 . S
C1684 C815 1.296 . S
C1689 C985 1.296 . S
C1694 C849 1.296 . S
C1699 C1019 1.296 . S
C1704 C883 1.296 . S
C1709 C1053 1.296 . S
C1714 C917 1.296 . S
C1719 C951 1.296 . S
C1724 C1087 1.296 . S
C1729 C2 1.662 . S
C1734 C410 1.662 . S
C1739 C988 1.662 . S
C1744 C36 1.662 . S
C1749 C70 1.662 . S
C1754 C478 1.662 . S
C1759 C1056 1.662 . S
C1764 C104 1.662 . S
C1769 C274 1.662 . S
C1774 C138 1.662 . S
C1779 C172 1.662 . S
C1784 C852 1.662 . S
C1789 C206 1.662 . S
C1794 C342 1.662 . S
C1799 C240 1.662 . S
C1804 C920 1.662 . S
C1809 C716 1.662 . S
C1814 C308 1.662 . S
C1819 C784 1.662 . S
C1824 C376 1.662 . S
C1829 C580 1.662 . S
C1834 C444 1.662 . S
C1839 C648 1.662 . S
C1844 C512 1.662 . S
C1849 C546 1.662 . S
C1854 C954 1.662 . S
C1859 C1022 1.662 . S
C1864 C614 1.662 . S
C1869 C682 1.662 . S
C1874 C818 1.662 . S
C1879 C886 1.662 . S
C1884 C750 1.662 . S
