# Generated by pormake.
# Topology wjt, (5)-cn, num edge types: 1
# Building blocks:
#     Node 0, Type 0, BuildingBlock: XOMCOT_clean_sbu_0, # of connection points: 5
#     Node 1, Type 0, BuildingBlock: XOMCOT_clean_sbu_0, # of connection points: 5
#     Node 2, Type 0, BuildingBlock: XOMCOT_clean_sbu_0, # of connection points: 5
#     Node 3, Type 0, BuildingBlock: XOMCOT_clean_sbu_0, # of connection points: 5
#     Node 4, Type 0, BuildingBlock: XOMCOT_clean_sbu_0, # of connection points: 5
#     Node 5, Type 0, BuildingBlock: XOMCOT_clean_sbu_0, # of connection points: 5
#     Node 6, Type 0, BuildingBlock: XOMCOT_clean_sbu_0, # of connection points: 5
#     Node 7, Type 0, BuildingBlock: XOMCOT_clean_sbu_0, # of connection points: 5
#     Node 8, Type 0, BuildingBlock: XOMCOT_clean_sbu_0, # of connection points: 5
#     Node 9, Type 0, BuildingBlock: XOMCOT_clean_sbu_0, # of connection points: 5
#     Node 10, Type 0, BuildingBlock: XOMCOT_clean_sbu_0, # of connection points: 5
#     Node 11, Type 0, BuildingBlock: XOMCOT_clean_sbu_0, # of connection points: 5
#     Edge 12, Type (0, 0), BuildingBlock: EZIPEK_clean_linker_0, # of connection points: 2
#     Edge 13, Type (0, 0), BuildingBlock: EZIPEK_clean_linker_0, # of connection points: 2
#     Edge 14, Type (0, 0), BuildingBlock: EZIPEK_clean_linker_0, # of connection points: 2
#     Edge 15, Type (0, 0), BuildingBlock: EZIPEK_clean_linker_0, # of connection points: 2
#     Edge 16, Type (0, 0), BuildingBlock: EZIPEK_clean_linker_0, # of connection points: 2
#     Edge 17, Type (0, 0), BuildingBlock: EZIPEK_clean_linker_0, # of connection points: 2
#     Edge 18, Type (0, 0), BuildingBlock: EZIPEK_clean_linker_0, # of connection points: 2
#     Edge 19, Type (0, 0), BuildingBlock: EZIPEK_clean_linker_0, # of connection points: 2
#     Edge 20, Type (0, 0), BuildingBlock: EZIPEK_clean_linker_0, # of connection points: 2
#     Edge 21, Type (0, 0), BuildingBlock: EZIPEK_clean_linker_0, # of connection points: 2
#     Edge 22, Type (0, 0), BuildingBlock: EZIPEK_clean_linker_0, # of connection points: 2
#     Edge 23, Type (0, 0), BuildingBlock: EZIPEK_clean_linker_0, # of connection points: 2
#     Edge 24, Type (0, 0), BuildingBlock: EZIPEK_clean_linker_0, # of connection points: 2
#     Edge 25, Type (0, 0), BuildingBlock: EZIPEK_clean_linker_0, # of connection points: 2
#     Edge 26, Type (0, 0), BuildingBlock: EZIPEK_clean_linker_0, # of connection points: 2
#     Edge 27, Type (0, 0), BuildingBlock: EZIPEK_clean_linker_0, # of connection points: 2
#     Edge 28, Type (0, 0), BuildingBlock: EZIPEK_clean_linker_0, # of connection points: 2
#     Edge 29, Type (0, 0), BuildingBlock: EZIPEK_clean_linker_0, # of connection points: 2
#     Edge 30, Type (0, 0), BuildingBlock: EZIPEK_clean_linker_0, # of connection points: 2
#     Edge 31, Type (0, 0), BuildingBlock: EZIPEK_clean_linker_0, # of connection points: 2
#     Edge 32, Type (0, 0), BuildingBlock: EZIPEK_clean_linker_0, # of connection points: 2
#     Edge 33, Type (0, 0), BuildingBlock: EZIPEK_clean_linker_0, # of connection points: 2
#     Edge 34, Type (0, 0), BuildingBlock: EZIPEK_clean_linker_0, # of connection points: 2
#     Edge 35, Type (0, 0), BuildingBlock: EZIPEK_clean_linker_0, # of connection points: 2
#     Edge 36, Type (0, 0), BuildingBlock: EZIPEK_clean_linker_0, # of connection points: 2
#     Edge 37, Type (0, 0), BuildingBlock: EZIPEK_clean_linker_0, # of connection points: 2
#     Edge 38, Type (0, 0), BuildingBlock: EZIPEK_clean_linker_0, # of connection points: 2
#     Edge 39, Type (0, 0), BuildingBlock: EZIPEK_clean_linker_0, # of connection points: 2
#     Edge 40, Type (0, 0), BuildingBlock: EZIPEK_clean_linker_0, # of connection points: 2
#     Edge 41, Type (0, 0), BuildingBlock: EZIPEK_clean_linker_0, # of connection points: 2
# Relax obj value: 0.236
# Max RMSD: 0.186
# Mean RMSD: 0.186
data_MOF--net-wjt--node1-XOMCOT_clean_sbu_0--edge1-EZIPEK_clean_linker_0
_symmetry_space_group_name_H-M    P1
_symmetry_Int_Tables_number       1
_symmetry_cell_setting            triclinic
loop_
_symmetry_equiv_pos_as_xyz
'x, y, z'
_cell_length_a     50.344538
_cell_length_b     50.317884
_cell_length_c     13.324582
_cell_angle_alpha  89.998152
_cell_angle_beta   90.107182
_cell_angle_gamma 119.83656
loop_
_atom_site_label
_atom_site_type_symbol
_atom_site_fract_x
_atom_site_fract_y
_atom_site_fract_z
_atom_type_partial_charge
Co0 Co 0.31166 0.4163 0.21887 0.0
C1 C 0.31102 0.42393 0.43744 0.0
C2 C 0.2657 0.40551 0.37678 0.0
C3 C 0.2642 0.40719 0.48003 0.0
N4 N 0.29508 0.41573 0.35063 0.0
N5 N 0.29264 0.41793 0.51767 0.0
H6 H 0.33537 0.43223 0.44259 0.0
H7 H 0.24656 0.3964 0.32524 0.0
C8 C 0.27074 0.43631 0.10871 0.0
O9 O 0.29371 0.46441 0.10125 0.0
N10 N 0.32841 0.41652 0.08534 0.0
C11 C 0.3467 0.40504 0.05879 0.0
C12 C 0.34947 0.40567 0.95559 0.0
C13 C 0.3215 0.42497 0.9971 0.0
N14 N 0.33336 0.41809 0.91777 0.0
C15 C 0.36643 0.4739 0.20465 0.0
C16 C 0.34621 0.50759 0.31154 0.0
C17 C 0.3775 0.52038 0.29203 0.0
C18 C 0.38745 0.5036 0.23557 0.0
C19 C 0.32583 0.47773 0.27899 0.0
N20 N 0.33607 0.46094 0.22768 0.0
H21 H 0.3751 0.4605 0.16897 0.0
H22 H 0.30199 0.46761 0.29944 0.0
H23 H 0.35666 0.39571 0.10971 0.0
H24 H 0.3071 0.43478 0.98786 0.0
O25 O 0.34123 0.40741 0.28166 0.0
O26 O 0.29558 0.37189 0.22913 0.0
O27 O 0.27428 0.41556 0.15288 0.0
C28 C 0.32132 0.37844 0.27313 0.0
H29 H 0.24363 0.3992 0.52446 0.0
H30 H 0.3609 0.39625 0.91165 0.0
H31 H 0.33785 0.51995 0.35583 0.0
H32 H 0.4116 0.51275 0.2204 0.0
Co33 Co 0.89663 0.31349 0.53632 0.0
C34 C 0.8916 0.31044 0.7584 0.0
C35 C 0.8591 0.26765 0.69261 0.0
C36 C 0.85657 0.26481 0.79588 0.0
N37 N 0.8805 0.29661 0.66882 0.0
N38 N 0.87737 0.29175 0.83636 0.0
H39 H 0.91106 0.33311 0.76794 0.0
H40 H 0.84737 0.24926 0.63947 0.0
C41 C 0.83039 0.26738 0.4702 0.0
O42 O 0.81912 0.27835 0.53675 0.0
N43 N 0.91298 0.32994 0.40548 0.0
C44 C 0.92841 0.35959 0.37747 0.0
C45 C 0.93028 0.36089 0.27391 0.0
C46 C 0.90646 0.3137 0.31967 0.0
N47 N 0.91582 0.33194 0.23823 0.0
C48 C 0.88907 0.36191 0.6175 0.0
C49 C 0.84765 0.36095 0.47962 0.0
C50 C 0.85792 0.38266 0.55718 0.0
C51 C 0.87888 0.38295 0.62633 0.0
C52 C 0.85888 0.34043 0.47281 0.0
N53 N 0.87843 0.34013 0.54374 0.0
H54 H 0.90667 0.3643 0.66824 0.0
H55 H 0.85228 0.3254 0.40942 0.0
H56 H 0.93586 0.37882 0.4281 0.0
H57 H 0.89322 0.28897 0.31598 0.0
O58 O 0.93584 0.34157 0.59656 0.0
O59 O 0.92294 0.29509 0.54296 0.0
O60 O 0.85944 0.27826 0.46495 0.0
C61 C 0.9433 0.32054 0.58537 0.0
H62 H 0.84178 0.24427 0.83791 0.0
H63 H 0.93933 0.38133 0.22819 0.0
H64 H 0.83195 0.36056 0.42319 0.0
H65 H 0.88801 0.39995 0.68564 0.0
Co66 Co 0.59112 0.89048 0.9041 0.0
C67 C 0.5881 0.88563 0.12418 0.0
C68 C 0.59944 0.85337 0.06036 0.0
C69 C 0.59944 0.85098 0.1636 0.0
N70 N 0.59237 0.87516 0.03607 0.0
N71 N 0.59291 0.87174 0.20279 0.0
H72 H 0.58261 0.90379 0.13117 0.0
H73 H 0.60498 0.84061 0.00735 0.0
C74 C 0.569 0.83419 0.77258 0.0
O75 O 0.54733 0.83947 0.7407 0.0
N76 N 0.59086 0.9064 0.77045 0.0
C77 C 0.58357 0.92782 0.74193 0.0
C78 C 0.58488 0.93022 0.63866 0.0
C79 C 0.59895 0.8982 0.68429 0.0
N80 N 0.59415 0.91116 0.60344 0.0
C81 C 0.53489 0.89114 0.92136 0.0
C82 C 0.49778 0.83036 0.9726 0.0
C83 C 0.48557 0.85006 0.97292 0.0
C84 C 0.50444 0.88063 0.94627 0.0
C85 C 0.52866 0.84192 0.9465 0.0
N86 N 0.54671 0.87191 0.91859 0.0
H87 H 0.54932 0.91533 0.91155 0.0
H88 H 0.53839 0.82712 0.95317 0.0
H89 H 0.57816 0.94141 0.7913 0.0
H90 H 0.60777 0.88268 0.67922 0.0
O91 O 0.6023 0.92993 0.96213 0.0
O92 O 0.6358 0.91703 0.9078 0.0
O93 O 0.58771 0.85159 0.84073 0.0
C94 C 0.63069 0.93757 0.94935 0.0
H95 H 0.60501 0.83615 0.20663 0.0
H96 H 0.57885 0.94422 0.59292 0.0
H97 H 0.48398 0.80673 0.99596 0.0
H98 H 0.49603 0.89669 0.94922 0.0
Co99 Co 0.70654 0.58903 0.23663 0.0
C100 C 0.70913 0.58045 0.45402 0.0
C101 C 0.75383 0.61072 0.39523 0.0
C102 C 0.75599 0.60978 0.49814 0.0
N103 N 0.72457 0.59179 0.36748 0.0
N104 N 0.72762 0.59174 0.53511 0.0
H105 H 0.68443 0.56666 0.45812 0.0
H106 H 0.77199 0.62565 0.34487 0.0
C107 C 0.76355 0.58227 0.18111 0.0
O108 O 0.76856 0.57531 0.27132 0.0
N109 N 0.68887 0.58671 0.10398 0.0
C110 C 0.66805 0.59481 0.07564 0.0
C111 C 0.66566 0.59354 0.97226 0.0
C112 C 0.69812 0.57993 0.0172 0.0
N113 N 0.68469 0.58426 0.93648 0.0
C114 C 0.65196 0.53161 0.23158 0.0
C115 C 0.67443 0.49675 0.31758 0.0
C116 C 0.64278 0.48402 0.30534 0.0
C117 C 0.63167 0.50146 0.25929 0.0
C118 C 0.69407 0.5272 0.28867 0.0
N119 N 0.68273 0.54449 0.24784 0.0
H120 H 0.64256 0.54528 0.20325 0.0
H121 H 0.71789 0.53722 0.30649 0.0
H122 H 0.65627 0.6024 0.12553 0.0
H123 H 0.71553 0.57349 0.01103 0.0
O124 O 0.6769 0.59765 0.29976 0.0
O125 O 0.72141 0.6334 0.24122 0.0
O126 O 0.74204 0.58832 0.16376 0.0
C127 C 0.69567 0.6266 0.28579 0.0
H128 H 0.77623 0.62367 0.54295 0.0
H129 H 0.65246 0.60063 0.9267 0.0
H130 H 0.68367 0.48387 0.35418 0.0
H131 H 0.60727 0.49233 0.24951 0.0
Co132 Co 0.12361 0.70411 0.56535 0.0
C133 C 0.13559 0.70596 0.7823 0.0
C134 C 0.15218 0.75118 0.72384 0.0
C135 C 0.15535 0.75309 0.82681 0.0
N136 N 0.14022 0.72167 0.69587 0.0
N137 N 0.14366 0.72446 0.86363 0.0
H138 H 0.1235 0.68118 0.78626 0.0
H139 H 0.15622 0.76974 0.67383 0.0
C140 C 0.18734 0.75976 0.50346 0.0
O141 O 0.20091 0.76431 0.59089 0.0
N142 N 0.10715 0.68704 0.43289 0.0
C143 C 0.07781 0.66827 0.40423 0.0
C144 C 0.07661 0.66594 0.30074 0.0
C145 C 0.12327 0.69505 0.34624 0.0
N146 N 0.10528 0.68296 0.26518 0.0
C147 C 0.12478 0.64859 0.55452 0.0
C148 C 0.18166 0.66897 0.64095 0.0
C149 C 0.16201 0.63749 0.62774 0.0
C150 C 0.13374 0.62744 0.58117 0.0
C151 C 0.17175 0.68951 0.61307 0.0
N152 N 0.1433 0.67918 0.57237 0.0
H153 H 0.10184 0.64001 0.52623 0.0
H154 H 0.18602 0.71318 0.63211 0.0
H155 H 0.05831 0.65789 0.45391 0.0
H156 H 0.14756 0.71066 0.34061 0.0
O157 O 0.08561 0.67517 0.6305 0.0
O158 O 0.09534 0.72039 0.57461 0.0
O159 O 0.15936 0.73899 0.49058 0.0
C160 C 0.07625 0.6948 0.61946 0.0
H161 H 0.16254 0.77348 0.87177 0.0
H162 H 0.05619 0.65423 0.25496 0.0
H163 H 0.20357 0.67739 0.67801 0.0
H164 H 0.11794 0.60319 0.57067 0.0
Co165 Co 0.41859 0.11352 0.89306 0.0
C166 C 0.42335 0.1197 0.11296 0.0
C167 C 0.40905 0.14975 0.04915 0.0
C168 C 0.4094 0.15242 0.15235 0.0
N169 N 0.41762 0.12908 0.0249 0.0
N170 N 0.41768 0.13293 0.19167 0.0
H171 H 0.42998 0.10235 0.11979 0.0
H172 H 0.402 0.16132 0.99612 0.0
C173 C 0.44163 0.16993 0.76343 0.0
O174 O 0.46305 0.16413 0.73283 0.0
N175 N 0.41857 0.09739 0.75923 0.0
C176 C 0.42451 0.07497 0.73137 0.0
C177 C 0.42357 0.0727 0.62799 0.0
C178 C 0.41144 0.10624 0.67239 0.0
N179 N 0.41571 0.09277 0.59202 0.0
C180 C 0.47459 0.11246 0.90835 0.0
C181 C 0.51119 0.17223 0.97169 0.0
C182 C 0.52303 0.15223 0.97174 0.0
C183 C 0.50456 0.12229 0.9379 0.0
C184 C 0.48088 0.16145 0.94002 0.0
N185 N 0.46294 0.13182 0.90795 0.0
H186 H 0.46022 0.08849 0.89411 0.0
H187 H 0.47133 0.17642 0.94673 0.0
H188 H 0.42866 0.06058 0.78137 0.0
H189 H 0.40352 0.12245 0.66632 0.0
O190 O 0.40725 0.07413 0.95144 0.0
O191 O 0.37386 0.08715 0.89648 0.0
O192 O 0.42245 0.15255 0.83014 0.0
C193 C 0.37887 0.06652 0.93805 0.0
H194 H 0.40254 0.16626 0.19533 0.0
H195 H 0.42866 0.05791 0.58281 0.0
H196 H 0.5247 0.19536 1.00013 0.0
H197 H 0.5127 0.106 0.94012 0.0
Co198 Co 0.59268 0.69822 0.4429 0.0
C199 C 0.59754 0.7034 0.22132 0.0
C200 C 0.59973 0.74356 0.28391 0.0
C201 C 0.60119 0.74637 0.1807 0.0
N202 N 0.59638 0.71604 0.30962 0.0
N203 N 0.59976 0.72099 0.14254 0.0
H204 H 0.5967 0.68161 0.21343 0.0
H205 H 0.60137 0.76083 0.3352 0.0
C206 C 0.57066 0.74293 0.50554 0.0
O207 O 0.54996 0.73281 0.43382 0.0
N208 N 0.58995 0.68121 0.57456 0.0
C209 C 0.57539 0.65149 0.60232 0.0
C210 C 0.57568 0.65013 0.7059 0.0
C211 C 0.59922 0.69742 0.66044 0.0
N212 N 0.59053 0.67908 0.74129 0.0
C213 C 0.53748 0.654 0.34635 0.0
C214 C 0.49702 0.64803 0.49601 0.0
C215 C 0.48608 0.62888 0.41153 0.0
C216 C 0.50665 0.63236 0.33593 0.0
C217 C 0.5284 0.6696 0.5035 0.0
N218 N 0.54821 0.67287 0.42802 0.0
H219 H 0.55281 0.65395 0.29093 0.0
H220 H 0.53699 0.68269 0.57186 0.0
H221 H 0.5641 0.63231 0.55126 0.0
H222 H 0.61088 0.72217 0.66451 0.0
O223 O 0.60337 0.66918 0.38806 0.0
O224 O 0.63715 0.71508 0.44528 0.0
O225 O 0.5898 0.73317 0.51172 0.0
C226 C 0.63181 0.68926 0.40461 0.0
H227 H 0.60299 0.76535 0.13712 0.0
H228 H 0.56461 0.6297 0.75174 0.0
H229 H 0.48176 0.64543 0.55711 0.0
H230 H 0.49912 0.6174 0.27094 0.0
Co231 Co 0.90207 0.59458 0.76786 0.0
C232 C 0.9 0.59577 0.54855 0.0
C233 C 0.87233 0.61292 0.61269 0.0
C234 C 0.87081 0.61417 0.50941 0.0
N235 N 0.89054 0.60127 0.63653 0.0
N236 N 0.88843 0.60359 0.4703 0.0
H237 H 0.91505 0.58627 0.54166 0.0
H238 H 0.86114 0.62023 0.66623 0.0
C239 C 0.8457 0.57402 0.89535 0.0
O240 O 0.84926 0.55108 0.92502 0.0
N241 N 0.91408 0.5886 0.90138 0.0
C242 C 0.92708 0.57205 0.93233 0.0
C243 C 0.92888 0.57295 0.03561 0.0
C244 C 0.90969 0.60047 0.98634 0.0
N245 N 0.91749 0.59048 0.06864 0.0
C246 C 0.90032 0.53855 0.72075 0.0
C247 C 0.83872 0.50364 0.67691 0.0
C248 C 0.85767 0.49076 0.66521 0.0
C249 C 0.88871 0.50863 0.68765 0.0
C250 C 0.85137 0.53395 0.71215 0.0
N251 N 0.88177 0.55074 0.73711 0.0
H252 H 0.92476 0.55228 0.72823 0.0
H253 H 0.83701 0.54424 0.71505 0.0
H254 H 0.93473 0.55983 0.88542 0.0
H255 H 0.89975 0.61514 0.98869 0.0
O256 O 0.94217 0.60548 0.71724 0.0
O257 O 0.93031 0.63876 0.78121 0.0
O258 O 0.86342 0.59222 0.82729 0.0
C259 C 0.95077 0.63362 0.73952 0.0
H260 H 0.85815 0.62245 0.46636 0.0
H261 H 0.9368 0.5608 0.08296 0.0
H262 H 0.81473 0.49076 0.65651 0.0
H263 H 0.90423 0.49984 0.67585 0.0
Co264 Co 0.31265 0.89584 0.1068 0.0
C265 C 0.30898 0.88315 0.8896 0.0
C266 C 0.26614 0.8755 0.94818 0.0
C267 C 0.26487 0.87589 0.84474 0.0
N268 N 0.29401 0.88046 0.97647 0.0
N269 N 0.29199 0.88107 0.80864 0.0
H270 H 0.33289 0.89009 0.88421 0.0
H271 H 0.24908 0.87474 0.99911 0.0
C272 C 0.25808 0.83216 0.15961 0.0
O273 O 0.25481 0.82141 0.06789 0.0
N274 N 0.33078 0.91114 0.2366 0.0
C275 C 0.36006 0.92171 0.26513 0.0
C276 C 0.36128 0.92196 0.36866 0.0
C277 C 0.31481 0.90598 0.3224 0.0
N278 N 0.33274 0.91177 0.40376 0.0
C279 C 0.36459 0.8922 0.03837 0.0
C280 C 0.35179 0.83789 0.12995 0.0
C281 C 0.37835 0.85351 0.07181 0.0
C282 C 0.38464 0.88095 0.02617 0.0
C283 C 0.33213 0.85005 0.14044 0.0
N284 N 0.33813 0.87654 0.09236 0.0
H285 H 0.37072 0.91387 1.00398 0.0
H286 H 0.31285 0.83846 0.18985 0.0
H287 H 0.37883 0.92683 0.21485 0.0
H288 H 0.29017 0.89585 0.32567 0.0
O289 O 0.33987 0.93523 0.0458 0.0
O290 O 0.29469 0.92262 0.10966 0.0
O291 O 0.27901 0.8594 0.18052 0.0
C292 C 0.31935 0.94296 0.06418 0.0
H293 H 0.24643 0.87483 0.79982 0.0
H294 H 0.38114 0.9275 0.41454 0.0
H295 H 0.34669 0.81693 0.16847 0.0
H296 H 0.40529 0.89391 0.98235 0.0
Co297 Co 0.42568 0.31169 0.44981 0.0
C298 C 0.43336 0.30833 0.23089 0.0
C299 C 0.40014 0.26503 0.29208 0.0
C300 C 0.39808 0.26315 0.18878 0.0
N301 N 0.42209 0.29352 0.31859 0.0
N302 N 0.4189 0.29051 0.15126 0.0
H303 H 0.44929 0.33241 0.22351 0.0
H304 H 0.3848 0.24773 0.34418 0.0
C305 C 0.4391 0.25972 0.49279 0.0
O306 O 0.45128 0.26244 0.40365 0.0
N307 N 0.42866 0.3292 0.58032 0.0
C308 C 0.44632 0.35868 0.60865 0.0
C309 C 0.44697 0.35994 0.71214 0.0
C310 C 0.41833 0.31308 0.66586 0.0
N311 N 0.42954 0.33121 0.74705 0.0
C312 C 0.48087 0.36277 0.37709 0.0
C313 C 0.52223 0.353 0.48413 0.0
C314 C 0.5331 0.37812 0.41893 0.0
C315 C 0.51203 0.38299 0.36591 0.0
C316 C 0.49051 0.33312 0.4931 0.0
N317 N 0.4702 0.33726 0.43608 0.0
H318 H 0.46536 0.36829 0.33902 0.0
H319 H 0.48251 0.3154 0.54911 0.0
H320 H 0.45926 0.3776 0.55811 0.0
H321 H 0.40463 0.28836 0.66913 0.0
O322 O 0.41385 0.33961 0.39201 0.0
O323 O 0.38108 0.294 0.45261 0.0
O324 O 0.42856 0.27714 0.51888 0.0
C325 C 0.38563 0.31913 0.40917 0.0
H326 H 0.38131 0.244 0.14491 0.0
H327 H 0.46036 0.38001 0.75818 0.0
H328 H 0.53801 0.34933 0.52939 0.0
H329 H 0.51964 0.40279 0.3176 0.0
Co330 Co 0.11281 0.41792 0.77715 0.0
C331 C 0.11855 0.42068 0.55557 0.0
C332 C 0.14701 0.40489 0.62098 0.0
C333 C 0.14971 0.40479 0.51775 0.0
N334 N 0.12814 0.41575 0.64494 0.0
N335 N 0.13132 0.41428 0.47736 0.0
H336 H 0.10098 0.42678 0.54626 0.0
H337 H 0.15663 0.39584 0.67405 0.0
C338 C 0.17871 0.43417 0.84043 0.0
O339 O 0.19124 0.45404 0.76716 0.0
N340 N 0.09731 0.41967 0.90799 0.0
C341 C 0.0829 0.43506 0.93524 0.0
C342 C 0.08123 0.43499 0.03885 0.0
C343 C 0.10354 0.40992 0.99436 0.0
N344 N 0.09484 0.4197 0.07527 0.0
C345 C 0.11974 0.47365 0.6972 0.0
C346 C 0.16696 0.51483 0.8176 0.0
C347 C 0.15478 0.52584 0.74475 0.0
C348 C 0.13089 0.50486 0.68453 0.0
C349 C 0.1549 0.48308 0.82807 0.0
N350 N 0.1322 0.46274 0.76581 0.0
H351 H 0.10016 0.4584 0.65319 0.0
H352 H 0.1635 0.47526 0.88756 0.0
H353 H 0.07588 0.44708 0.88398 0.0
H354 H 0.11604 0.39761 0.9988 0.0
O355 O 0.07375 0.40774 0.71745 0.0
O356 O 0.08521 0.37339 0.7737 0.0
O357 O 0.14947 0.41874 0.84913 0.0
C358 C 0.06533 0.37917 0.73069 0.0
H359 H 0.1627 0.39674 0.47559 0.0
H360 H 0.07272 0.44703 0.08401 0.0
H361 H 0.18501 0.53053 0.86735 0.0
H362 H 0.12036 0.51255 0.62933 0.0
Co363 Co 0.69612 0.10731 0.12996 0.0
C364 C 0.6997 0.11244 0.90776 0.0
C365 C 0.74295 0.14319 0.97483 0.0
C366 C 0.74615 0.14564 0.87163 0.0
N367 N 0.71353 0.123 0.99772 0.0
N368 N 0.71891 0.12592 0.83034 0.0
H369 H 0.67663 0.09381 0.89762 0.0
H370 H 0.76126 0.15413 0.02879 0.0
C371 C 0.74175 0.17415 0.19171 0.0
O372 O 0.73226 0.18464 0.11777 0.0
N373 N 0.67927 0.09141 0.26075 0.0
C374 C 0.6497 0.07711 0.28945 0.0
C375 C 0.64864 0.07533 0.39309 0.0
C376 C 0.69562 0.09723 0.34611 0.0
N377 N 0.67765 0.08875 0.42809 0.0
C378 C 0.64705 0.11322 0.0451 0.0
C379 C 0.64947 0.15783 0.17132 0.0
C380 C 0.62772 0.14655 0.094 0.0
C381 C 0.62656 0.12389 0.031 0.0
C382 C 0.66952 0.14623 0.18322 0.0
N383 N 0.66921 0.12513 0.11766 0.0
H384 H 0.64404 0.09442 0.9992 0.0
H385 H 0.68472 0.15393 0.24611 0.0
H386 H 0.63047 0.07039 0.23931 0.0
H387 H 0.72039 0.10972 0.349 0.0
O388 O 0.66862 0.06776 0.07066 0.0
O389 O 0.71483 0.08118 0.12788 0.0
O390 O 0.73064 0.14514 0.20176 0.0
C391 C 0.68964 0.06048 0.08504 0.0
H392 H 0.76705 0.15962 0.83023 0.0
H393 H 0.62839 0.0671 0.43931 0.0
H394 H 0.65035 0.17476 0.22349 0.0
H395 H 0.60934 0.11389 0.97254 0.0
C396 C 0.23544 0.41291 0.95961 0.0
C397 C 0.24201 0.42872 0.05256 0.0
C398 C 0.20119 0.44078 0.01704 0.0
C399 C 0.19898 0.43038 0.916 0.0
N400 N 0.21752 0.40936 0.78888 0.0
N401 N 0.23149 0.45857 0.16991 0.0
C402 C 0.21709 0.41719 0.88674 0.0
C403 C 0.22484 0.44277 0.08136 0.0
N404 N 0.24602 0.39314 0.94138 0.0
N405 N 0.18064 0.44852 0.05286 0.0
H406 H 0.2469 0.45847 0.22224 0.0
H407 H 0.22296 0.47296 0.18917 0.0
H408 H 0.16317 0.44765 0.0095 0.0
H409 H 0.1791 0.45283 0.12837 0.0
H410 H 0.23944 0.37883 0.87881 0.0
H411 H 0.25798 0.38812 0.99486 0.0
H412 H 0.23298 0.40303 0.76158 0.0
H413 H 0.20433 0.41168 0.73316 0.0
C414 C 0.79299 0.22167 0.22708 0.0
C415 C 0.76548 0.19658 0.26432 0.0
C416 C 0.78323 0.21548 0.43657 0.0
C417 C 0.80902 0.24238 0.39916 0.0
N418 N 0.83329 0.27364 0.25325 0.0
N419 N 0.7343 0.17262 0.41291 0.0
C420 C 0.81269 0.24603 0.29291 0.0
C421 C 0.76072 0.19429 0.37035 0.0
N422 N 0.80103 0.22207 0.12895 0.0
N423 N 0.77862 0.20925 0.53657 0.0
H424 H 0.71524 0.15703 0.37236 0.0
H425 H 0.71524 0.15703 0.37236 0.0
H426 H 0.79386 0.22267 0.5927 0.0
H427 H 0.79386 0.22267 0.5927 0.0
H428 H 0.8225 0.23786 0.1008 0.0
H429 H 0.78761 0.20489 0.07797 0.0
H430 H 0.83406 0.27864 0.17712 0.0
H431 H 0.84702 0.29256 0.29713 0.0
C432 C 0.54446 0.7586 0.63751 0.0
C433 C 0.57139 0.76538 0.58231 0.0
C434 C 0.59961 0.81465 0.67389 0.0
C435 C 0.57199 0.809 0.72184 0.0
N436 N 0.52107 0.77207 0.77323 0.0
N437 N 0.62366 0.80186 0.5391 0.0
C438 C 0.54524 0.77995 0.70992 0.0
C439 C 0.59883 0.79372 0.59947 0.0
N440 N 0.51769 0.73201 0.6192 0.0
N441 N 0.62688 0.8395 0.70094 0.0
H442 H 0.62436 0.78768 0.4836 0.0
H443 H 0.6427 0.82377 0.53723 0.0
H444 H 0.62902 0.85529 0.75508 0.0
H445 H 0.64806 0.84287 0.67777 0.0
H446 H 0.49639 0.7277 0.64464 0.0
H447 H 0.51613 0.71454 0.57373 0.0
H448 H 0.50198 0.75027 0.77772 0.0
H449 H 0.52144 0.78659 0.82969 0.0
C450 C 0.83129 0.60706 1.00159 0.0
C451 C 0.82229 0.57924 0.94851 0.0
C452 C 0.77177 0.55628 0.03176 0.0
C453 C 0.7829 0.58214 0.09625 0.0
N454 N 0.82383 0.63155 0.14744 0.0
N455 N 0.78293 0.52796 0.90688 0.0
C456 C 0.81275 0.60741 0.08207 0.0
C457 C 0.79206 0.55412 0.96141 0.0
N458 N 0.85707 0.63344 0.97427 0.0
N459 N 0.74175 0.53377 0.03791 0.0
H460 H 0.79584 0.5267 0.84784 0.0
H461 H 0.76306 0.50731 0.92113 0.0
H462 H 0.72667 0.534 0.09099 0.0
H463 H 0.73108 0.51588 0.98667 0.0
H464 H 0.86309 0.65484 1.00407 0.0
H465 H 0.87074 0.63493 0.91382 0.0
H466 H 0.84672 0.6487 0.1501 0.0
H467 H 0.81055 0.63338 0.20409 0.0
C468 C 0.21731 0.76533 0.34556 0.0
C469 C 0.20532 0.77807 0.41503 0.0
C470 C 0.22384 0.82377 0.30847 0.0
C471 C 0.23837 0.81239 0.24368 0.0
N472 N 0.25348 0.77448 0.2119 0.0
N473 N 0.20137 0.82142 0.4716 0.0
C474 C 0.23615 0.78361 0.26476 0.0
C475 C 0.20994 0.80794 0.39925 0.0
N476 N 0.21076 0.73567 0.35681 0.0
N477 N 0.22201 0.84899 0.28087 0.0
H478 H 0.19031 0.81022 0.53751 0.0
H479 H 0.20742 0.84445 0.47008 0.0
H480 H 0.23071 0.86049 0.21325 0.0
H481 H 0.20916 0.85665 0.31974 0.0
H482 H 0.2154 0.72377 0.30206 0.0
H483 H 0.19863 0.72212 0.41791 0.0
H484 H 0.25559 0.75558 0.23141 0.0
H485 H 0.26805 0.78722 0.15372 0.0
C486 C 0.46702 0.24144 0.60711 0.0
C487 C 0.439 0.23738 0.56754 0.0
C488 C 0.41073 0.19053 0.66995 0.0
C489 C 0.43896 0.19506 0.71089 0.0
N490 N 0.49215 0.23068 0.74356 0.0
N491 N 0.38384 0.21128 0.57559 0.0
C492 C 0.46652 0.22234 0.68689 0.0
C493 C 0.4108 0.21306 0.60413 0.0
N494 N 0.49433 0.26326 0.56801 0.0
N495 N 0.3839 0.16415 0.68889 0.0
H496 H 0.38246 0.2255 0.5215 0.0
H497 H 0.36296 0.19692 0.61006 0.0
H498 H 0.38143 0.14806 0.7422 0.0
H499 H 0.36389 0.15739 0.64802 0.0
H500 H 0.51519 0.26482 0.58624 0.0
H501 H 0.49612 0.2782 0.51104 0.0
H502 H 0.51215 0.25176 0.73665 0.0
H503 H 0.49217 0.21806 0.80569 0.0
C504 C 0.4348 0.60538 0.32764 0.0
C505 C 0.45388 0.60336 0.40218 0.0
C506 C 0.41641 0.54892 0.42571 0.0
C507 C 0.40059 0.54981 0.33872 0.0
N508 N 0.39381 0.57849 0.20645 0.0
N509 N 0.46368 0.57307 0.52121 0.0
C510 C 0.40921 0.57806 0.29045 0.0
C511 C 0.44461 0.57522 0.45257 0.0
N512 N 0.44142 0.63353 0.29252 0.0
N513 N 0.40445 0.52281 0.48218 0.0
H514 H 0.48429 0.59182 0.54432 0.0
H515 H 0.46003 0.55238 0.5509 0.0
H516 H 0.38399 0.50307 0.4637 0.0
H517 H 0.41318 0.52157 0.55184 0.0
H518 H 0.42721 0.63706 0.24415 0.0
H519 H 0.45999 0.65378 0.31931 0.0
H520 H 0.40101 0.59763 0.16076 0.0
H521 H 0.37444 0.55903 0.17936 0.0
C522 C 0.8575 0.45773 0.5256 0.0
C523 C 0.84688 0.45968 0.62222 0.0
C524 C 0.83161 0.40589 0.65237 0.0
C525 C 0.84848 0.40638 0.56645 0.0
N526 N 0.87809 0.43309 0.42033 0.0
N527 N 0.8227 0.43558 0.77782 0.0
C528 C 0.86095 0.43209 0.50118 0.0
C529 C 0.83292 0.43349 0.68488 0.0
N530 N 0.86499 0.48092 0.45857 0.0
N531 N 0.81473 0.37903 0.70315 0.0
H532 H 0.82251 0.45517 0.80236 0.0
H533 H 0.81575 0.41854 0.83213 0.0
H534 H 0.81342 0.35857 0.68007 0.0
H535 H 0.79995 0.37637 0.7617 0.0
H536 H 0.8704 0.4799 0.38379 0.0
H537 H 0.86284 0.5 0.47591 0.0
H538 H 0.89084 0.45269 0.37735 0.0
H539 H 0.88126 0.41491 0.39954 0.0
C540 C 0.45036 0.84806 0.1084 0.0
C541 C 0.45407 0.84046 0.00891 0.0
C542 C 0.40202 0.82938 0.96758 0.0
C543 C 0.40088 0.84271 0.06011 0.0
N544 N 0.42308 0.86403 0.22116 0.0
N545 N 0.43347 0.82225 0.84416 0.0
C546 C 0.4245 0.85119 0.13236 0.0
C547 C 0.4296 0.82999 0.93911 0.0
N548 N 0.47197 0.85276 0.17909 0.0
N549 N 0.37674 0.81651 0.90701 0.0
H550 H 0.45294 0.82133 0.82289 0.0
H551 H 0.41812 0.81787 0.78561 0.0
H552 H 0.35638 0.81588 0.92687 0.0
H553 H 0.37496 0.80429 0.84196 0.0
H554 H 0.46964 0.85586 0.25512 0.0
H555 H 0.49119 0.85084 0.16259 0.0
H556 H 0.44115 0.87422 0.27199 0.0
H557 H 0.40408 0.8658 0.24228 0.0
C558 C 0.60848 0.45247 0.44519 0.0
C559 C 0.62051 0.45365 0.348 0.0
C560 C 0.58143 0.40002 0.31934 0.0
C561 C 0.5662 0.40089 0.40759 0.0
N562 N 0.56496 0.427 0.55741 0.0
N563 N 0.62017 0.42878 0.19349 0.0
C564 C 0.58003 0.42661 0.47267 0.0
C565 C 0.60781 0.42724 0.28602 0.0
N566 N 0.62414 0.47633 0.51022 0.0
N567 N 0.57028 0.37314 0.26737 0.0
H568 H 0.64021 0.44802 0.16919 0.0
H569 H 0.61011 0.41167 0.13939 0.0
H570 H 0.551 0.35301 0.29101 0.0
H571 H 0.58134 0.37001 0.20646 0.0
H572 H 0.61823 0.47589 0.58525 0.0
H573 H 0.64473 0.49579 0.49128 0.0
H574 H 0.57172 0.44637 0.6017 0.0
H575 H 0.54464 0.40806 0.58137 0.0
C576 C 0.18204 0.57406 0.6445 0.0
C577 C 0.16526 0.55899 0.73195 0.0
C578 C 0.15734 0.60236 0.76772 0.0
C579 C 0.16888 0.61434 0.67109 0.0
N580 N 0.19343 0.61308 0.51795 0.0
N581 N 0.13678 0.55826 0.87822 0.0
C582 C 0.18212 0.60091 0.61025 0.0
C583 C 0.15347 0.57333 0.79535 0.0
N584 N 0.1976 0.56237 0.59432 0.0
N585 N 0.14969 0.61861 0.83217 0.0
H586 H 0.13404 0.53731 0.90216 0.0
H587 H 0.12427 0.56561 0.92044 0.0
H588 H 0.15173 0.63966 0.81317 0.0
H589 H 0.14391 0.6127 0.90705 0.0
H590 H 0.21224 0.57331 0.53438 0.0
H591 H 0.19785 0.54277 0.61863 0.0
H592 H 0.20016 0.60252 0.46456 0.0
H593 H 0.19492 0.63344 0.49301 0.0
C594 C 0.60669 0.174 0.99353 0.0
C595 C 0.60467 0.15657 0.07987 0.0
C596 C 0.55331 0.14843 0.11364 0.0
C597 C 0.55313 0.16039 0.01745 0.0
N598 N 0.57945 0.18568 0.86596 0.0
N599 N 0.57612 0.12679 0.22317 0.0
C600 C 0.58002 0.17411 0.95818 0.0
C601 C 0.57826 0.14427 0.14172 0.0
N602 N 0.63414 0.19015 0.94538 0.0
N603 N 0.5292 0.14054 0.17697 0.0
H604 H 0.59398 0.12348 0.24707 0.0
H605 H 0.55605 0.11403 0.26386 0.0
H606 H 0.51048 0.14298 0.1571 0.0
H607 H 0.52897 0.13428 0.25157 0.0
H608 H 0.63799 0.20528 0.88666 0.0
H609 H 0.65392 0.1904 0.97041 0.0
H610 H 0.59699 0.19273 0.81359 0.0
H611 H 0.56058 0.18703 0.84003 0.0
C612 C 0.3312 0.33351 0.25273 0.0
C613 C 0.32842 0.35492 0.31486 0.0
C614 C 0.35628 0.34584 0.44963 0.0
C615 C 0.36068 0.3259 0.38599 0.0
N616 N 0.3426 0.29188 0.24425 0.0
N617 N 0.32534 0.36905 0.48413 0.0
C618 C 0.34486 0.31675 0.29297 0.0
C619 C 0.33716 0.35741 0.41707 0.0
N620 N 0.32217 0.33013 0.15474 0.0
N621 N 0.37047 0.35391 0.54097 0.0
H622 H 0.30755 0.37266 0.46265 0.0
H623 H 0.32929 0.37013 0.56117 0.0
H624 H 0.38262 0.34393 0.57052 0.0
H625 H 0.37112 0.37131 0.5852 0.0
H626 H 0.32707 0.31768 0.10282 0.0
H627 H 0.31099 0.34099 0.12435 0.0
H628 H 0.32939 0.28249 0.17995 0.0
H629 H 0.35195 0.27915 0.27393 0.0
C630 C 0.00949 0.34207 0.76293 0.0
C631 C 0.03449 0.3551 0.69559 0.0
C632 C 0.99889 0.33833 0.55245 0.0
C633 C 0.9739 0.32628 0.61983 0.0
N634 N 0.95522 0.30666 0.78443 0.0
N635 N 0.0528 0.35558 0.5293 0.0
C636 C 0.97917 0.32497 0.72383 0.0
C637 C 0.02908 0.35001 0.59106 0.0
N638 N 0.01459 0.34702 0.86368 0.0
N639 N 0.99392 0.33962 0.4522 0.0
H640 H 0.07438 0.36169 0.5579 0.0
H641 H 0.05001 0.35028 0.45315 0.0
H642 H 0.97199 0.32996 0.42132 0.0
H643 H 0.01148 0.35154 0.40077 0.0
H644 H 0.99714 0.34126 0.9157 0.0
H645 H 0.03657 0.35837 0.89454 0.0
H646 H 0.95788 0.30294 0.85968 0.0
H647 H 0.93344 0.29226 0.75523 0.0
C648 C 0.68516 0.02368 0.95 0.0
C649 C 0.68408 0.02967 0.05347 0.0
C650 C 0.66027 0.97461 0.08672 0.0
C651 C 0.65521 0.96849 0.98247 0.0
N652 N 0.66347 0.98716 0.81278 0.0
N653 N 0.67113 0.01084 0.22254 0.0
C654 C 0.66828 0.99304 0.91325 0.0
C655 C 0.67219 0.00513 0.12283 0.0
N656 N 0.70296 0.04732 0.88754 0.0
N657 N 0.65425 0.95117 0.15065 0.0
H658 H 0.6809 0.03301 0.25156 0.0
H659 H 0.65933 0.9937 0.27541 0.0
H660 H 0.64767 0.92928 0.12391 0.0
H661 H 0.65941 0.9543 0.2269 0.0
H662 H 0.7066 0.04424 0.81266 0.0
H663 H 0.71699 0.06944 0.91482 0.0
H664 H 0.66902 1.00415 0.759 0.0
H665 H 0.65256 0.96495 0.78376 0.0
C666 C 0.66048 0.66239 0.4526 0.0
C667 C 0.6561 0.68122 0.38372 0.0
C668 C 0.68409 0.66998 0.2542 0.0
C669 C 0.68719 0.64979 0.32186 0.0
N670 N 0.68612 0.63393 0.49255 0.0
N671 N 0.67077 0.70997 0.23052 0.0
C672 C 0.67767 0.64822 0.4233 0.0
C673 C 0.67029 0.68732 0.28816 0.0
N674 N 0.64772 0.65769 0.54596 0.0
N675 N 0.69257 0.67125 0.15623 0.0
H676 H 0.66131 0.72313 0.25514 0.0
H677 H 0.68315 0.71774 0.16415 0.0
H678 H 0.70354 0.65978 0.12933 0.0
H679 H 0.68733 0.68236 0.10029 0.0
H680 H 0.64587 0.64082 0.59531 0.0
H681 H 0.63812 0.67043 0.57323 0.0
H682 H 0.68179 0.6332 0.56909 0.0
H683 H 0.70069 0.62575 0.47382 0.0
C684 C 0.0372 0.67637 0.75832 0.0
C685 C 0.04518 0.6873 0.65813 0.0
C686 C 0.99145 0.67356 0.62893 0.0
C687 C 0.98311 0.65767 0.7216 0.0
N688 N 0.99768 0.64478 0.87786 0.0
N689 N 0.02931 0.69623 0.49641 0.0
C690 C 1.00597 0.65961 0.78763 0.0
C691 C 0.02226 0.68653 0.59346 0.0
N692 N 0.05979 0.68303 0.82663 0.0
N693 N 0.96981 0.67619 0.57507 0.0
H694 H 0.05149 0.70647 0.46811 0.0
H695 H 0.01292 0.69257 0.44214 0.0
H696 H 0.94725 0.66678 0.59984 0.0
H697 H 0.97488 0.69016 0.51218 0.0
H698 H 0.05611 0.67782 0.90271 0.0
H699 H 0.08252 0.6973 0.8083 0.0
H700 H 0.01245 0.64131 0.92371 0.0
H701 H 0.9754 0.63491 0.9054 0.0
C702 C 0.35341 0.02923 0.07735 0.0
C703 C 0.35432 0.03594 0.97376 0.0
C704 C 0.31949 0.98131 0.94223 0.0
C705 C 0.32549 0.97442 0.04004 0.0
N706 N 0.34721 0.99208 0.20428 0.0
N707 N 0.33745 0.01803 0.80537 0.0
C708 C 0.34193 0.99849 0.10915 0.0
C709 C 0.33665 0.01193 0.90546 0.0
N710 N 0.36254 0.05234 0.14528 0.0
N711 N 0.29699 0.95874 0.88577 0.0
H712 H 0.34922 0.04026 0.77678 0.0
H713 H 0.32781 1.00093 0.75089 0.0
H714 H 0.28359 0.93661 0.91358 0.0
H715 H 0.28991 0.96269 0.8166 0.0
H716 H 0.36087 0.04892 0.2226 0.0
H717 H 0.36758 0.07413 0.12243 0.0
H718 H 0.36222 0.0088 0.25412 0.0
H719 H 0.33752 0.96978 0.23168 0.0
C720 C 0.28999 0.38986 0.67444 0.0
C721 C 0.30152 0.41791 0.62085 0.0
C722 C 0.33675 0.44524 0.76007 0.0
C723 C 0.32398 0.41762 0.8153 0.0
N724 N 0.28537 0.36474 0.83406 0.0
N725 N 0.33232 0.47276 0.6169 0.0
C726 C 0.29973 0.39022 0.77487 0.0
C727 C 0.32401 0.44577 0.66502 0.0
N728 N 0.27092 0.36267 0.62799 0.0
N729 N 0.36135 0.47077 0.79873 0.0
H730 H 0.32264 0.47369 0.54859 0.0
H731 H 0.34681 0.49424 0.64765 0.0
H732 H 0.37071 0.47072 0.86867 0.0
H733 H 0.37377 0.49117 0.75933 0.0
H734 H 0.26477 0.34139 0.65894 0.0
H735 H 0.2633 0.36103 0.55446 0.0
H736 H 0.26519 0.34507 0.81374 0.0
H737 H 0.29213 0.36411 0.90759 0.0
C738 C 0.91502 0.3025 0.08885 0.0
C739 C 0.90604 0.32193 0.13648 0.0
C740 C 0.87696 0.32031 0.98625 0.0
C741 C 0.88466 0.2996 0.94081 0.0
N742 N 0.90586 0.26617 0.95538 0.0
N743 N 0.87261 0.34341 0.14032 0.0
C744 C 0.902 0.28909 0.99442 0.0
C745 C 0.88552 0.32943 0.08767 0.0
N746 N 0.93706 0.29802 0.13236 0.0
N747 N 0.86128 0.33113 0.93208 0.0
H748 H 0.87685 0.34875 0.21631 0.0
H749 H 0.85524 0.3468 0.11194 0.0
H750 H 0.85267 0.32307 0.86039 0.0
H751 H 0.85821 0.34912 0.95599 0.0
H752 H 0.94699 0.28664 0.09712 0.0
H753 H 0.94742 0.30817 0.20044 0.0
H754 H 0.91547 0.25525 0.99544 0.0
H755 H 0.89762 0.25662 0.88494 0.0
C756 C 0.56512 0.87164 0.35474 0.0
C757 C 0.59316 0.87966 0.30667 0.0
C758 C 0.6217 0.91042 0.45237 0.0
C759 C 0.59371 0.90164 0.50153 0.0
N760 N 0.53899 0.86958 0.50992 0.0
N761 N 0.64793 0.90157 0.31531 0.0
C762 C 0.56539 0.88107 0.45547 0.0
C763 C 0.62144 0.89744 0.35739 0.0
N764 N 0.53829 0.85495 0.30344 0.0
N765 N 0.64842 0.93194 0.4958 0.0
H766 H 0.64876 0.89334 0.24441 0.0
H767 H 0.66883 0.91153 0.35294 0.0
H768 H 0.64899 0.94171 0.56546 0.0
H769 H 0.66957 0.94186 0.45996 0.0
H770 H 0.51717 0.85102 0.32948 0.0
H771 H 0.5374 0.846 0.23207 0.0
H772 H 0.51787 0.85217 0.48468 0.0
H773 H 0.53853 0.87589 0.58414 0.0
C774 C 0.71603 0.61511 0.79423 0.0
C775 C 0.695 0.5862 0.83468 0.0
C776 C 0.69936 0.561 0.68325 0.0
C777 C 0.71768 0.59009 0.63792 0.0
N778 N 0.73874 0.64518 0.64561 0.0
N779 N 0.66412 0.53173 0.81726 0.0
C780 C 0.7249 0.6173 0.6922 0.0
C781 C 0.6859 0.55913 0.77881 0.0
N782 N 0.72827 0.64044 0.85456 0.0
N783 N 0.69598 0.53534 0.63648 0.0
H784 H 0.65438 0.52998 0.88779 0.0
H785 H 0.65414 0.51131 0.7768 0.0
H786 H 0.70662 0.53621 0.56848 0.0
H787 H 0.68506 0.51365 0.6689 0.0
H788 H 0.74647 0.66157 0.83292 0.0
H789 H 0.72216 0.6397 0.92965 0.0
H790 H 0.74123 0.66502 0.67895 0.0
H791 H 0.74475 0.64833 0.57023 0.0
C792 C 0.13142 0.68228 0.10908 0.0
C793 C 0.11437 0.69288 0.16328 0.0
C794 C 0.11529 0.7233 0.01857 0.0
C795 C 0.13449 0.71464 0.96619 0.0
N796 N 0.16508 0.69012 0.96809 0.0
N797 N 0.09618 0.72869 0.17948 0.0
C798 C 0.14368 0.69518 0.01336 0.0
C799 C 0.10812 0.71494 0.12083 0.0
N800 N 0.13547 0.65957 0.14917 0.0
N801 N 0.10241 0.73803 0.96989 0.0
H802 H 0.09075 0.72322 0.25491 0.0
H803 H 0.09442 0.74751 0.15611 0.0
H804 H 0.10554 0.74356 0.89406 0.0
H805 H 0.08565 0.7417 1.00195 0.0
H806 H 0.14514 0.64858 0.11007 0.0
H807 H 0.12693 0.65016 0.21965 0.0
H808 H 0.17477 0.67827 1.00183 0.0
H809 H 0.17519 0.70016 0.8998 0.0
C810 C 0.44469 0.12354 0.44583 0.0
C811 C 0.41638 0.10221 0.48986 0.0
C812 C 0.38873 0.10576 0.34398 0.0
C813 C 0.41714 0.12465 0.29544 0.0
N814 N 0.47207 0.15156 0.29673 0.0
N815 N 0.36188 0.07053 0.48064 0.0
C816 C 0.44514 0.1335 0.3456 0.0
C817 C 0.38849 0.09273 0.43885 0.0
N818 N 0.4709 0.13501 0.50172 0.0
N819 N 0.36206 0.10062 0.3 0.0
H820 H 0.36133 0.06083 0.55041 0.0
H821 H 0.34089 0.06006 0.44352 0.0
H822 H 0.36113 0.10877 0.22908 0.0
H823 H 0.34095 0.08983 0.33608 0.0
H824 H 0.49201 0.15284 0.4785 0.0
H825 H 0.47119 0.12791 0.57502 0.0
H826 H 0.49342 0.1566 0.32427 0.0
H827 H 0.47291 0.16074 0.22581 0.0
C828 C 0.62431 0.71777 0.98711 0.0
C829 C 0.59759 0.71221 0.03905 0.0
C830 C 0.56628 0.68633 0.89165 0.0
C831 C 0.59261 0.68915 0.84336 0.0
N832 N 0.64599 0.70442 0.84624 0.0
N833 N 0.5428 0.68852 0.04797 0.0
C834 C 0.62152 0.7041 0.89148 0.0
C835 C 0.56842 0.69571 0.99324 0.0
N836 N 0.65226 0.73665 0.02903 0.0
N837 N 0.53965 0.67596 0.8388 0.0
H838 H 0.54382 0.69592 0.12175 0.0
H839 H 0.52066 0.67365 0.02273 0.0
H840 H 0.53754 0.66939 0.76368 0.0
H841 H 0.52049 0.67628 0.86656 0.0
H842 H 0.67294 0.74385 0.9921 0.0
H843 H 0.65458 0.74707 0.0987 0.0
H844 H 0.66721 0.71251 0.88075 0.0
H845 H 0.64428 0.69433 0.77633 0.0
C846 C 0.88455 0.56888 0.21755 0.0
C847 C 0.90998 0.59372 0.1701 0.0
C848 C 0.91752 0.62644 0.31541 0.0
C849 C 0.89407 0.60085 0.36635 0.0
N850 N 0.85605 0.54754 0.37162 0.0
N851 N 0.95254 0.645 0.17398 0.0
C852 C 0.87776 0.57197 0.31882 0.0
C853 C 0.92693 0.62229 0.21904 0.0
N854 N 0.86639 0.54279 0.16428 0.0
N855 N 0.93035 0.65467 0.35919 0.0
H856 H 0.9598 0.64228 0.10335 0.0
H857 H 0.96776 0.66556 0.20889 0.0
H858 H 0.92354 0.65813 0.4295 0.0
H859 H 0.94583 0.67489 0.32333 0.0
H860 H 0.84571 0.52498 0.19052 0.0
H861 H 0.87098 0.53976 0.09028 0.0
H862 H 0.84532 0.52506 0.34558 0.0
H863 H 0.84977 0.54963 0.44453 0.0
C864 C 0.33167 0.92747 0.57799 0.0
C865 C 0.32261 0.90393 0.50597 0.0
C866 C 0.29167 0.86551 0.63263 0.0
C867 C 0.30267 0.88884 0.7066 0.0
N868 N 0.33701 0.94155 0.75325 0.0
N869 N 0.29829 0.8502 0.46597 0.0
C870 C 0.3239 0.9197 0.68039 0.0
C871 C 0.30362 0.87278 0.53345 0.0
N872 N 0.34664 0.95734 0.54733 0.0
N873 N 0.26995 0.83637 0.65786 0.0
H874 H 0.30787 0.85479 0.39437 0.0
H875 H 0.28669 0.82695 0.48324 0.0
H876 H 0.26225 0.83001 0.73129 0.0
H877 H 0.25833 0.81898 0.60553 0.0
H878 H 0.35105 0.97568 0.59405 0.0
H879 H 0.35227 0.9636 0.4724 0.0
H880 H 0.3551 0.96357 0.74003 0.0
H881 H 0.33144 0.93719 0.82872 0.0
C882 C 0.44142 0.30427 0.87916 0.0
C883 C 0.4271 0.32118 0.84923 0.0
C884 C 0.40923 0.31973 0.02054 0.0
C885 C 0.42135 0.30064 0.04891 0.0
N886 N 0.4465 0.2723 0.00571 0.0
N887 N 0.39365 0.34114 0.88463 0.0
C888 C 0.43658 0.29204 0.97793 0.0
C889 C 0.41002 0.32791 0.91823 0.0
N890 N 0.4607 0.30116 0.81423 0.0
N891 N 0.39748 0.33047 0.09171 0.0
H892 H 0.39379 0.3472 0.80966 0.0
H893 H 0.37808 0.34383 0.92865 0.0
H894 H 0.39599 0.32453 0.16698 0.0
H895 H 0.3913 0.34704 0.0778 0.0
H896 H 0.4739 0.29129 0.83349 0.0
H897 H 0.46548 0.31083 0.74271 0.0
H898 H 0.45488 0.26243 0.95542 0.0
H899 H 0.44464 0.26433 0.07909 0.0
C900 C 0.13359 0.44453 0.32844 0.0
C901 C 0.12435 0.41564 0.37294 0.0
C902 C 0.09332 0.38988 0.22422 0.0
C903 C 0.10386 0.41865 0.17746 0.0
N904 N 0.13893 0.47309 0.176 0.0
N905 N 0.10014 0.36075 0.35631 0.0
C906 C 0.12522 0.446 0.22733 0.0
C907 C 0.10577 0.38827 0.31845 0.0
N908 N 0.15063 0.47059 0.38317 0.0
N909 N 0.07029 0.36421 0.18008 0.0
H910 H 0.10755 0.35836 0.42696 0.0
H911 H 0.08972 0.34046 0.31514 0.0
H912 H 0.0603 0.36493 0.11218 0.0
H913 H 0.0592 0.34285 0.21475 0.0
H914 H 0.15493 0.49218 0.3605 0.0
H915 H 0.15934 0.47038 0.45409 0.0
H916 H 0.15685 0.49333 0.20485 0.0
H917 H 0.13468 0.47479 0.10042 0.0
C918 C 0.68197 0.1197 0.57897 0.0
C919 C 0.68824 0.09843 0.52955 0.0
C920 C 0.72015 0.10041 0.67239 0.0
C921 C 0.71112 0.11901 0.72567 0.0
N922 N 0.6845 0.14791 0.72616 0.0
N923 N 0.70993 0.0654 0.5332 0.0
C924 C 0.69227 0.12883 0.67851 0.0
C925 C 0.70667 0.08812 0.57717 0.0
N926 N 0.66675 0.13206 0.53046 0.0
N927 N 0.742 0.09496 0.71198 0.0
H928 H 0.69967 0.05552 0.46474 0.0
H929 H 0.7204 0.05449 0.56823 0.0
H930 H 0.75174 0.10296 0.78237 0.0
H931 H 0.75199 0.08435 0.67243 0.0
H932 H 0.66162 0.14759 0.565 0.0
H933 H 0.66064 0.12808 0.45495 0.0
H934 H 0.69181 0.15651 0.79842 0.0
H935 H 0.69181 0.15651 0.79842 0.0
loop_
_geom_bond_atom_site_label_1
_geom_bond_atom_site_label_2
_geom_bond_distance
_geom_bond_site_symmetry_2
_ccdc_geom_bond_type
Co0 N4 2.148 . S
Co0 N10 2.128 . S
Co0 N20 2.194 . S
Co0 O25 2.351 . S
Co0 O26 2.155 . S
Co0 O27 2.096 . S
C1 N4 1.301 . S
C1 N5 1.328 . S
C1 H6 0.930 . S
C2 C3 1.333 . S
C2 N4 1.317 . S
C2 H7 0.930 . S
C3 C2 1.333 . S
C3 N5 1.350 . S
C3 H29 0.931 . S
N4 Co0 2.148 . S
N4 C1 1.301 . S
N4 C2 1.317 . S
N5 C1 1.328 . S
N5 C3 1.350 . S
H6 C1 0.930 . S
H7 C2 0.930 . S
C8 O9 1.224 . S
C8 O27 1.247 . S
O9 C8 1.224 . S
N10 Co0 2.128 . S
N10 C11 1.355 . S
N10 C13 1.311 . S
C11 N10 1.355 . S
C11 C12 1.363 1_554 S
C11 H23 0.929 . S
C12 C11 1.363 1_556 S
C12 N14 1.375 . S
C12 H30 0.931 . S
C13 N10 1.311 . S
C13 N14 1.347 1_554 S
C13 H24 0.929 . S
N14 C12 1.375 . S
N14 C13 1.347 1_556 S
C15 C18 1.365 . S
C15 N20 1.328 . S
C15 H21 0.929 . S
C16 C17 1.362 . S
C16 C19 1.378 . S
C16 H31 0.929 . S
C17 C16 1.362 . S
C17 C18 1.366 . S
C18 C15 1.365 . S
C18 C17 1.366 . S
C18 H32 0.930 . S
C19 C16 1.378 . S
C19 N20 1.315 . S
C19 H22 0.930 . S
N20 Co0 2.194 . S
N20 C15 1.328 . S
N20 C19 1.315 . S
H21 C15 0.929 . S
H22 C19 0.930 . S
H23 C11 0.929 . S
H24 C13 0.929 . S
O25 Co0 2.351 . S
O25 C28 1.244 . S
O26 Co0 2.155 . S
O26 C28 1.240 . S
O27 Co0 2.096 . S
O27 C8 1.247 . S
C28 O25 1.244 . S
C28 O26 1.240 . S
H29 C3 0.931 . S
H30 C12 0.931 . S
H31 C16 0.929 . S
H32 C18 0.930 . S
Co33 N37 2.148 . S
Co33 N43 2.128 . S
Co33 N53 2.194 . S
Co33 O58 2.351 . S
Co33 O59 2.155 . S
Co33 O60 2.096 . S
C34 N37 1.301 . S
C34 N38 1.328 . S
C34 H39 0.930 . S
C35 C36 1.333 . S
C35 N37 1.317 . S
C35 H40 0.930 . S
C36 C35 1.333 . S
C36 N38 1.350 . S
C36 H62 0.931 . S
N37 Co33 2.148 . S
N37 C34 1.301 . S
N37 C35 1.317 . S
N38 C34 1.328 . S
N38 C36 1.350 . S
H39 C34 0.930 . S
H40 C35 0.930 . S
C41 O42 1.224 . S
C41 O60 1.247 . S
O42 C41 1.224 . S
N43 Co33 2.128 . S
N43 C44 1.355 . S
N43 C46 1.311 . S
C44 N43 1.355 . S
C44 C45 1.363 . S
C44 H56 0.929 . S
C45 C44 1.363 . S
C45 N47 1.375 . S
C45 H63 0.931 . S
C46 N43 1.311 . S
C46 N47 1.347 . S
C46 H57 0.929 . S
N47 C45 1.375 . S
N47 C46 1.347 . S
C48 C51 1.365 . S
C48 N53 1.328 . S
C48 H54 0.929 . S
C49 C50 1.362 . S
C49 C52 1.378 . S
C49 H64 0.929 . S
C50 C49 1.362 . S
C50 C51 1.366 . S
C51 C48 1.365 . S
C51 C50 1.366 . S
C51 H65 0.930 . S
C52 C49 1.378 . S
C52 N53 1.315 . S
C52 H55 0.930 . S
N53 Co33 2.194 . S
N53 C48 1.328 . S
N53 C52 1.315 . S
H54 C48 0.929 . S
H55 C52 0.930 . S
H56 C44 0.929 . S
H57 C46 0.929 . S
O58 Co33 2.351 . S
O58 C61 1.244 . S
O59 Co33 2.155 . S
O59 C61 1.240 . S
O60 Co33 2.096 . S
O60 C41 1.247 . S
C61 O58 1.244 . S
C61 O59 1.240 . S
H62 C36 0.931 . S
H63 C45 0.931 . S
H64 C49 0.929 . S
H65 C51 0.930 . S
Co66 N70 2.148 1_556 S
Co66 N76 2.128 . S
Co66 N86 2.194 . S
Co66 O91 2.351 . S
Co66 O92 2.155 . S
Co66 O93 2.096 . S
C67 N70 1.301 . S
C67 N71 1.328 . S
C67 H72 0.930 . S
C68 C69 1.333 . S
C68 N70 1.317 . S
C68 H73 0.930 . S
C69 C68 1.333 . S
C69 N71 1.350 . S
C69 H95 0.931 . S
N70 Co66 2.148 1_554 S
N70 C67 1.301 . S
N70 C68 1.317 . S
N71 C67 1.328 . S
N71 C69 1.350 . S
H72 C67 0.930 . S
H73 C68 0.930 . S
C74 O75 1.224 . S
C74 O93 1.247 . S
O75 C74 1.224 . S
N76 Co66 2.128 . S
N76 C77 1.355 . S
N76 C79 1.311 . S
C77 N76 1.355 . S
C77 C78 1.363 . S
C77 H89 0.929 . S
C78 C77 1.363 . S
C78 N80 1.375 . S
C78 H96 0.931 . S
C79 N76 1.311 . S
C79 N80 1.347 . S
C79 H90 0.929 . S
N80 C78 1.375 . S
N80 C79 1.347 . S
C81 C84 1.365 . S
C81 N86 1.328 . S
C81 H87 0.929 1_556 S
C82 C83 1.362 . S
C82 C85 1.378 . S
C82 H97 0.929 . S
C83 C82 1.362 . S
C83 C84 1.366 . S
C84 C81 1.365 . S
C84 C83 1.366 . S
C84 H98 0.930 1_556 S
C85 C82 1.378 . S
C85 N86 1.315 . S
C85 H88 0.930 . S
N86 Co66 2.194 . S
N86 C81 1.328 . S
N86 C85 1.315 . S
H87 C81 0.929 1_554 S
H88 C85 0.930 . S
H89 C77 0.929 . S
H90 C79 0.929 . S
O91 Co66 2.351 . S
O91 C94 1.244 . S
O92 Co66 2.155 . S
O92 C94 1.240 . S
O93 Co66 2.096 . S
O93 C74 1.247 . S
C94 O91 1.244 . S
C94 O92 1.240 . S
H95 C69 0.931 . S
H96 C78 0.931 . S
H97 C82 0.929 . S
H98 C84 0.930 1_554 S
Co99 N103 2.148 . S
Co99 N109 2.128 . S
Co99 N119 2.194 . S
Co99 O124 2.351 . S
Co99 O125 2.155 . S
Co99 O126 2.096 . S
C100 N103 1.301 . S
C100 N104 1.328 . S
C100 H105 0.930 . S
C101 C102 1.333 . S
C101 N103 1.317 . S
C101 H106 0.930 . S
C102 C101 1.333 . S
C102 N104 1.350 . S
C102 H128 0.931 . S
N103 Co99 2.148 . S
N103 C100 1.301 . S
N103 C101 1.317 . S
N104 C100 1.328 . S
N104 C102 1.350 . S
H105 C100 0.930 . S
H106 C101 0.930 . S
C107 O108 1.224 . S
C107 O126 1.247 . S
O108 C107 1.224 . S
N109 Co99 2.128 . S
N109 C110 1.355 . S
N109 C112 1.311 . S
C110 N109 1.355 . S
C110 C111 1.363 1_554 S
C110 H122 0.929 . S
C111 C110 1.363 1_556 S
C111 N113 1.375 . S
C111 H129 0.931 . S
C112 N109 1.311 . S
C112 N113 1.347 1_554 S
C112 H123 0.929 . S
N113 C111 1.375 . S
N113 C112 1.347 1_556 S
C114 C117 1.365 . S
C114 N119 1.328 . S
C114 H120 0.929 . S
C115 C116 1.362 . S
C115 C118 1.378 . S
C115 H130 0.929 . S
C116 C115 1.362 . S
C116 C117 1.366 . S
C117 C114 1.365 . S
C117 C116 1.366 . S
C117 H131 0.930 . S
C118 C115 1.378 . S
C118 N119 1.315 . S
C118 H121 0.930 . S
N119 Co99 2.194 . S
N119 C114 1.328 . S
N119 C118 1.315 . S
H120 C114 0.929 . S
H121 C118 0.930 . S
H122 C110 0.929 . S
H123 C112 0.929 . S
O124 Co99 2.351 . S
O124 C127 1.244 . S
O125 Co99 2.155 . S
O125 C127 1.240 . S
O126 Co99 2.096 . S
O126 C107 1.247 . S
C127 O124 1.244 . S
C127 O125 1.240 . S
H128 C102 0.931 . S
H129 C111 0.931 . S
H130 C115 0.929 . S
H131 C117 0.930 . S
Co132 N136 2.148 . S
Co132 N142 2.128 . S
Co132 N152 2.194 . S
Co132 O157 2.351 . S
Co132 O158 2.155 . S
Co132 O159 2.096 . S
C133 N136 1.301 . S
C133 N137 1.328 . S
C133 H138 0.930 . S
C134 C135 1.333 . S
C134 N136 1.317 . S
C134 H139 0.930 . S
C135 C134 1.333 . S
C135 N137 1.350 . S
C135 H161 0.931 . S
N136 Co132 2.148 . S
N136 C133 1.301 . S
N136 C134 1.317 . S
N137 C133 1.328 . S
N137 C135 1.350 . S
H138 C133 0.930 . S
H139 C134 0.930 . S
C140 O141 1.224 . S
C140 O159 1.247 . S
O141 C140 1.224 . S
N142 Co132 2.128 . S
N142 C143 1.355 . S
N142 C145 1.311 . S
C143 N142 1.355 . S
C143 C144 1.363 . S
C143 H155 0.929 . S
C144 C143 1.363 . S
C144 N146 1.375 . S
C144 H162 0.931 . S
C145 N142 1.311 . S
C145 N146 1.347 . S
C145 H156 0.929 . S
N146 C144 1.375 . S
N146 C145 1.347 . S
C147 C150 1.365 . S
C147 N152 1.328 . S
C147 H153 0.929 . S
C148 C149 1.362 . S
C148 C151 1.378 . S
C148 H163 0.929 . S
C149 C148 1.362 . S
C149 C150 1.366 . S
C150 C147 1.365 . S
C150 C149 1.366 . S
C150 H164 0.930 . S
C151 C148 1.378 . S
C151 N152 1.315 . S
C151 H154 0.930 . S
N152 Co132 2.194 . S
N152 C147 1.328 . S
N152 C151 1.315 . S
H153 C147 0.929 . S
H154 C151 0.930 . S
H155 C143 0.929 . S
H156 C145 0.929 . S
O157 Co132 2.351 . S
O157 C160 1.244 . S
O158 Co132 2.155 . S
O158 C160 1.240 . S
O159 Co132 2.096 . S
O159 C140 1.247 . S
C160 O157 1.244 . S
C160 O158 1.240 . S
H161 C135 0.931 . S
H162 C144 0.931 . S
H163 C148 0.929 . S
H164 C150 0.930 . S
Co165 N169 2.148 1_556 S
Co165 N175 2.128 . S
Co165 N185 2.194 . S
Co165 O190 2.351 . S
Co165 O191 2.155 . S
Co165 O192 2.096 . S
C166 N169 1.301 . S
C166 N170 1.328 . S
C166 H171 0.930 . S
C167 C168 1.333 . S
C167 N169 1.317 . S
C167 H172 0.930 . S
C168 C167 1.333 . S
C168 N170 1.350 . S
C168 H194 0.931 . S
N169 Co165 2.148 1_554 S
N169 C166 1.301 . S
N169 C167 1.317 . S
N170 C166 1.328 . S
N170 C168 1.350 . S
H171 C166 0.930 . S
H172 C167 0.930 . S
C173 O174 1.224 . S
C173 O192 1.247 . S
O174 C173 1.224 . S
N175 Co165 2.128 . S
N175 C176 1.355 . S
N175 C178 1.311 . S
C176 N175 1.355 . S
C176 C177 1.363 . S
C176 H188 0.929 . S
C177 C176 1.363 . S
C177 N179 1.375 . S
C177 H195 0.931 . S
C178 N175 1.311 . S
C178 N179 1.347 . S
C178 H189 0.929 . S
N179 C177 1.375 . S
N179 C178 1.347 . S
C180 C183 1.365 . S
C180 N185 1.328 . S
C180 H186 0.929 1_556 S
C181 C182 1.362 . S
C181 C184 1.378 . S
C181 H196 0.929 . S
C182 C181 1.362 . S
C182 C183 1.366 . S
C183 C180 1.365 . S
C183 C182 1.366 . S
C183 H197 0.930 1_556 S
C184 C181 1.378 . S
C184 N185 1.315 . S
C184 H187 0.930 . S
N185 Co165 2.194 . S
N185 C180 1.328 . S
N185 C184 1.315 . S
H186 C180 0.929 1_554 S
H187 C184 0.930 . S
H188 C176 0.929 . S
H189 C178 0.929 . S
O190 Co165 2.351 . S
O190 C193 1.244 . S
O191 Co165 2.155 . S
O191 C193 1.240 . S
O192 Co165 2.096 . S
O192 C173 1.247 . S
C193 O190 1.244 . S
C193 O191 1.240 . S
H194 C168 0.931 . S
H195 C177 0.931 . S
H196 C181 0.929 . S
H197 C183 0.930 1_554 S
Co198 N202 2.148 . S
Co198 N208 2.128 . S
Co198 N218 2.194 . S
Co198 O223 2.351 . S
Co198 O224 2.155 . S
Co198 O225 2.096 . S
C199 N202 1.301 . S
C199 N203 1.328 . S
C199 H204 0.930 . S
C200 C201 1.333 . S
C200 N202 1.317 . S
C200 H205 0.930 . S
C201 C200 1.333 . S
C201 N203 1.350 . S
C201 H227 0.931 . S
N202 Co198 2.148 . S
N202 C199 1.301 . S
N202 C200 1.317 . S
N203 C199 1.328 . S
N203 C201 1.350 . S
H204 C199 0.930 . S
H205 C200 0.930 . S
C206 O207 1.224 . S
C206 O225 1.247 . S
O207 C206 1.224 . S
N208 Co198 2.128 . S
N208 C209 1.355 . S
N208 C211 1.311 . S
C209 N208 1.355 . S
C209 C210 1.363 . S
C209 H221 0.929 . S
C210 C209 1.363 . S
C210 N212 1.375 . S
C210 H228 0.931 . S
C211 N208 1.311 . S
C211 N212 1.347 . S
C211 H222 0.929 . S
N212 C210 1.375 . S
N212 C211 1.347 . S
C213 C216 1.365 . S
C213 N218 1.328 . S
C213 H219 0.929 . S
C214 C215 1.362 . S
C214 C217 1.378 . S
C214 H229 0.929 . S
C215 C214 1.362 . S
C215 C216 1.366 . S
C216 C213 1.365 . S
C216 C215 1.366 . S
C216 H230 0.930 . S
C217 C214 1.378 . S
C217 N218 1.315 . S
C217 H220 0.930 . S
N218 Co198 2.194 . S
N218 C213 1.328 . S
N218 C217 1.315 . S
H219 C213 0.929 . S
H220 C217 0.930 . S
H221 C209 0.929 . S
H222 C211 0.929 . S
O223 Co198 2.351 . S
O223 C226 1.244 . S
O224 Co198 2.155 . S
O224 C226 1.240 . S
O225 Co198 2.096 . S
O225 C206 1.247 . S
C226 O223 1.244 . S
C226 O224 1.240 . S
H227 C201 0.931 . S
H228 C210 0.931 . S
H229 C214 0.929 . S
H230 C216 0.930 . S
Co231 N235 2.148 . S
Co231 N241 2.128 . S
Co231 N251 2.194 . S
Co231 O256 2.351 . S
Co231 O257 2.155 . S
Co231 O258 2.096 . S
C232 N235 1.301 . S
C232 N236 1.328 . S
C232 H237 0.930 . S
C233 C234 1.333 . S
C233 N235 1.317 . S
C233 H238 0.930 . S
C234 C233 1.333 . S
C234 N236 1.350 . S
C234 H260 0.931 . S
N235 Co231 2.148 . S
N235 C232 1.301 . S
N235 C233 1.317 . S
N236 C232 1.328 . S
N236 C234 1.350 . S
H237 C232 0.930 . S
H238 C233 0.930 . S
C239 O240 1.224 . S
C239 O258 1.247 . S
O240 C239 1.224 . S
N241 Co231 2.128 . S
N241 C242 1.355 . S
N241 C244 1.311 . S
C242 N241 1.355 . S
C242 C243 1.363 1_556 S
C242 H254 0.929 . S
C243 C242 1.363 1_554 S
C243 N245 1.375 . S
C243 H261 0.931 . S
C244 N241 1.311 . S
C244 N245 1.347 1_556 S
C244 H255 0.929 . S
N245 C243 1.375 . S
N245 C244 1.347 1_554 S
C246 C249 1.365 . S
C246 N251 1.328 . S
C246 H252 0.929 . S
C247 C248 1.362 . S
C247 C250 1.378 . S
C247 H262 0.929 . S
C248 C247 1.362 . S
C248 C249 1.366 . S
C249 C246 1.365 . S
C249 C248 1.366 . S
C249 H263 0.930 . S
C250 C247 1.378 . S
C250 N251 1.315 . S
C250 H253 0.930 . S
N251 Co231 2.194 . S
N251 C246 1.328 . S
N251 C250 1.315 . S
H252 C246 0.929 . S
H253 C250 0.930 . S
H254 C242 0.929 . S
H255 C244 0.929 . S
O256 Co231 2.351 . S
O256 C259 1.244 . S
O257 Co231 2.155 . S
O257 C259 1.240 . S
O258 Co231 2.096 . S
O258 C239 1.247 . S
C259 O256 1.244 . S
C259 O257 1.240 . S
H260 C234 0.931 . S
H261 C243 0.931 . S
H262 C247 0.929 . S
H263 C249 0.930 . S
Co264 N268 2.148 1_554 S
Co264 N274 2.128 . S
Co264 N284 2.194 . S
Co264 O289 2.351 . S
Co264 O290 2.155 . S
Co264 O291 2.096 . S
C265 N268 1.301 . S
C265 N269 1.328 . S
C265 H270 0.930 . S
C266 C267 1.333 . S
C266 N268 1.317 . S
C266 H271 0.930 . S
C267 C266 1.333 . S
C267 N269 1.350 . S
C267 H293 0.931 . S
N268 Co264 2.148 1_556 S
N268 C265 1.301 . S
N268 C266 1.317 . S
N269 C265 1.328 . S
N269 C267 1.350 . S
H270 C265 0.930 . S
H271 C266 0.930 . S
C272 O273 1.224 . S
C272 O291 1.247 . S
O273 C272 1.224 . S
N274 Co264 2.128 . S
N274 C275 1.355 . S
N274 C277 1.311 . S
C275 N274 1.355 . S
C275 C276 1.363 . S
C275 H287 0.929 . S
C276 C275 1.363 . S
C276 N278 1.375 . S
C276 H294 0.931 . S
C277 N274 1.311 . S
C277 N278 1.347 . S
C277 H288 0.929 . S
N278 C276 1.375 . S
N278 C277 1.347 . S
C279 C282 1.365 . S
C279 N284 1.328 . S
C279 H285 0.929 1_554 S
C280 C281 1.362 . S
C280 C283 1.378 . S
C280 H295 0.929 . S
C281 C280 1.362 . S
C281 C282 1.366 . S
C282 C279 1.365 . S
C282 C281 1.366 . S
C282 H296 0.930 1_554 S
C283 C280 1.378 . S
C283 N284 1.315 . S
C283 H286 0.930 . S
N284 Co264 2.194 . S
N284 C279 1.328 . S
N284 C283 1.315 . S
H285 C279 0.929 1_556 S
H286 C283 0.930 . S
H287 C275 0.929 . S
H288 C277 0.929 . S
O289 Co264 2.351 . S
O289 C292 1.244 . S
O290 Co264 2.155 . S
O290 C292 1.240 . S
O291 Co264 2.096 . S
O291 C272 1.247 . S
C292 O289 1.244 . S
C292 O290 1.240 . S
H293 C267 0.931 . S
H294 C276 0.931 . S
H295 C280 0.929 . S
H296 C282 0.930 1_556 S
Co297 N301 2.148 . S
Co297 N307 2.128 . S
Co297 N317 2.194 . S
Co297 O322 2.351 . S
Co297 O323 2.155 . S
Co297 O324 2.096 . S
C298 N301 1.301 . S
C298 N302 1.328 . S
C298 H303 0.930 . S
C299 C300 1.333 . S
C299 N301 1.317 . S
C299 H304 0.930 . S
C300 C299 1.333 . S
C300 N302 1.350 . S
C300 H326 0.931 . S
N301 Co297 2.148 . S
N301 C298 1.301 . S
N301 C299 1.317 . S
N302 C298 1.328 . S
N302 C300 1.350 . S
H303 C298 0.930 . S
H304 C299 0.930 . S
C305 O306 1.224 . S
C305 O324 1.247 . S
O306 C305 1.224 . S
N307 Co297 2.128 . S
N307 C308 1.355 . S
N307 C310 1.311 . S
C308 N307 1.355 . S
C308 C309 1.363 . S
C308 H320 0.929 . S
C309 C308 1.363 . S
C309 N311 1.375 . S
C309 H327 0.931 . S
C310 N307 1.311 . S
C310 N311 1.347 . S
C310 H321 0.929 . S
N311 C309 1.375 . S
N311 C310 1.347 . S
C312 C315 1.365 . S
C312 N317 1.328 . S
C312 H318 0.929 . S
C313 C314 1.362 . S
C313 C316 1.378 . S
C313 H328 0.929 . S
C314 C313 1.362 . S
C314 C315 1.366 . S
C315 C312 1.365 . S
C315 C314 1.366 . S
C315 H329 0.930 . S
C316 C313 1.378 . S
C316 N317 1.315 . S
C316 H319 0.930 . S
N317 Co297 2.194 . S
N317 C312 1.328 . S
N317 C316 1.315 . S
H318 C312 0.929 . S
H319 C316 0.930 . S
H320 C308 0.929 . S
H321 C310 0.929 . S
O322 Co297 2.351 . S
O322 C325 1.244 . S
O323 Co297 2.155 . S
O323 C325 1.240 . S
O324 Co297 2.096 . S
O324 C305 1.247 . S
C325 O322 1.244 . S
C325 O323 1.240 . S
H326 C300 0.931 . S
H327 C309 0.931 . S
H328 C313 0.929 . S
H329 C315 0.930 . S
Co330 N334 2.148 . S
Co330 N340 2.128 . S
Co330 N350 2.194 . S
Co330 O355 2.351 . S
Co330 O356 2.155 . S
Co330 O357 2.096 . S
C331 N334 1.301 . S
C331 N335 1.328 . S
C331 H336 0.930 . S
C332 C333 1.333 . S
C332 N334 1.317 . S
C332 H337 0.930 . S
C333 C332 1.333 . S
C333 N335 1.350 . S
C333 H359 0.931 . S
N334 Co330 2.148 . S
N334 C331 1.301 . S
N334 C332 1.317 . S
N335 C331 1.328 . S
N335 C333 1.350 . S
H336 C331 0.930 . S
H337 C332 0.930 . S
C338 O339 1.224 . S
C338 O357 1.247 . S
O339 C338 1.224 . S
N340 Co330 2.128 . S
N340 C341 1.355 . S
N340 C343 1.311 . S
C341 N340 1.355 . S
C341 C342 1.363 1_556 S
C341 H353 0.929 . S
C342 C341 1.363 1_554 S
C342 N344 1.375 . S
C342 H360 0.931 . S
C343 N340 1.311 . S
C343 N344 1.347 1_556 S
C343 H354 0.929 . S
N344 C342 1.375 . S
N344 C343 1.347 1_554 S
C345 C348 1.365 . S
C345 N350 1.328 . S
C345 H351 0.929 . S
C346 C347 1.362 . S
C346 C349 1.378 . S
C346 H361 0.929 . S
C347 C346 1.362 . S
C347 C348 1.366 . S
C348 C345 1.365 . S
C348 C347 1.366 . S
C348 H362 0.930 . S
C349 C346 1.378 . S
C349 N350 1.315 . S
C349 H352 0.930 . S
N350 Co330 2.194 . S
N350 C345 1.328 . S
N350 C349 1.315 . S
H351 C345 0.929 . S
H352 C349 0.930 . S
H353 C341 0.929 . S
H354 C343 0.929 . S
O355 Co330 2.351 . S
O355 C358 1.244 . S
O356 Co330 2.155 . S
O356 C358 1.240 . S
O357 Co330 2.096 . S
O357 C338 1.247 . S
C358 O355 1.244 . S
C358 O356 1.240 . S
H359 C333 0.931 . S
H360 C342 0.931 . S
H361 C346 0.929 . S
H362 C348 0.930 . S
Co363 N367 2.148 1_554 S
Co363 N373 2.128 . S
Co363 N383 2.194 . S
Co363 O388 2.351 . S
Co363 O389 2.155 . S
Co363 O390 2.096 . S
C364 N367 1.301 . S
C364 N368 1.328 . S
C364 H369 0.930 . S
C365 C366 1.333 . S
C365 N367 1.317 . S
C365 H370 0.930 . S
C366 C365 1.333 . S
C366 N368 1.350 . S
C366 H392 0.931 . S
N367 Co363 2.148 1_556 S
N367 C364 1.301 . S
N367 C365 1.317 . S
N368 C364 1.328 . S
N368 C366 1.350 . S
H369 C364 0.930 . S
H370 C365 0.930 . S
C371 O372 1.224 . S
C371 O390 1.247 . S
O372 C371 1.224 . S
N373 Co363 2.128 . S
N373 C374 1.355 . S
N373 C376 1.311 . S
C374 N373 1.355 . S
C374 C375 1.363 . S
C374 H386 0.929 . S
C375 C374 1.363 . S
C375 N377 1.375 . S
C375 H393 0.931 . S
C376 N373 1.311 . S
C376 N377 1.347 . S
C376 H387 0.929 . S
N377 C375 1.375 . S
N377 C376 1.347 . S
C378 C381 1.365 . S
C378 N383 1.328 . S
C378 H384 0.929 1_554 S
C379 C380 1.362 . S
C379 C382 1.378 . S
C379 H394 0.929 . S
C380 C379 1.362 . S
C380 C381 1.366 . S
C381 C378 1.365 . S
C381 C380 1.366 . S
C381 H395 0.930 1_554 S
C382 C379 1.378 . S
C382 N383 1.315 . S
C382 H385 0.930 . S
N383 Co363 2.194 . S
N383 C378 1.328 . S
N383 C382 1.315 . S
H384 C378 0.929 1_556 S
H385 C382 0.930 . S
H386 C374 0.929 . S
H387 C376 0.929 . S
O388 Co363 2.351 . S
O388 C391 1.244 . S
O389 Co363 2.155 . S
O389 C391 1.240 . S
O390 Co363 2.096 . S
O390 C371 1.247 . S
C391 O388 1.244 . S
C391 O389 1.240 . S
H392 C366 0.931 . S
H393 C375 0.931 . S
H394 C379 0.929 . S
H395 C381 0.930 1_556 S
C396 C397 1.363 . S
C396 C402 1.379 1_554 S
C396 N404 1.356 . S
C397 C396 1.363 . S
C397 C403 1.363 . S
C398 C399 1.363 . S
C398 C403 1.379 1_556 S
C398 N405 1.356 . S
C399 C398 1.363 . S
C399 C402 1.363 . S
N400 C402 1.356 . S
N400 H412 0.984 . S
N400 H413 0.985 . S
N401 C403 1.356 . S
N401 H406 0.984 . S
N401 H407 0.985 . S
C402 C396 1.379 1_556 S
C402 C399 1.363 . S
C402 N400 1.356 . S
C403 C397 1.363 . S
C403 C398 1.379 1_554 S
C403 N401 1.356 . S
N404 C396 1.356 . S
N404 H410 0.984 . S
N404 H411 0.984 . S
N405 C398 1.356 . S
N405 H408 0.984 . S
N405 H409 0.985 . S
H406 N401 0.984 . S
H407 N401 0.985 . S
H408 N405 0.984 . S
H409 N405 0.985 . S
H410 N404 0.984 . S
H411 N404 0.984 . S
H412 N400 0.984 . S
H413 N400 0.985 . S
C414 C415 1.363 . S
C414 C420 1.379 . S
C414 N422 1.356 . S
C415 C414 1.363 . S
C415 C421 1.363 . S
C416 C417 1.363 . S
C416 C421 1.379 . S
C416 N423 1.356 . S
C417 C416 1.363 . S
C417 C420 1.363 . S
N418 C420 1.356 . S
N418 H430 0.984 . S
N418 H431 0.985 . S
N419 C421 1.356 . S
N419 H424 0.984 . S
N419 H425 0.985 . S
C420 C414 1.379 . S
C420 C417 1.363 . S
C420 N418 1.356 . S
C421 C415 1.363 . S
C421 C416 1.379 . S
C421 N419 1.356 . S
N422 C414 1.356 . S
N422 H428 0.984 . S
N422 H429 0.984 . S
N423 C416 1.356 . S
N423 H426 0.984 . S
N423 H427 0.985 . S
H424 N419 0.984 . S
H425 N419 0.985 . S
H426 N423 0.984 . S
H427 N423 0.985 . S
H428 N422 0.984 . S
H429 N422 0.984 . S
H430 N418 0.984 . S
H431 N418 0.985 . S
C432 C433 1.363 . S
C432 C438 1.379 . S
C432 N440 1.356 . S
C433 C432 1.363 . S
C433 C439 1.363 . S
C434 C435 1.363 . S
C434 C439 1.379 . S
C434 N441 1.356 . S
C435 C434 1.363 . S
C435 C438 1.363 . S
N436 C438 1.356 . S
N436 H448 0.984 . S
N436 H449 0.985 . S
N437 C439 1.356 . S
N437 H442 0.984 . S
N437 H443 0.985 . S
C438 C432 1.379 . S
C438 C435 1.363 . S
C438 N436 1.356 . S
C439 C433 1.363 . S
C439 C434 1.379 . S
C439 N437 1.356 . S
N440 C432 1.356 . S
N440 H446 0.984 . S
N440 H447 0.984 . S
N441 C434 1.356 . S
N441 H444 0.984 . S
N441 H445 0.985 . S
H442 N437 0.984 . S
H443 N437 0.985 . S
H444 N441 0.984 . S
H445 N441 0.985 . S
H446 N440 0.984 . S
H447 N440 0.984 . S
H448 N436 0.984 . S
H449 N436 0.985 . S
C450 C451 1.363 . S
C450 C456 1.379 1_556 S
C450 N458 1.356 . S
C451 C450 1.363 . S
C451 C457 1.363 . S
C452 C453 1.363 . S
C452 C457 1.379 1_554 S
C452 N459 1.356 . S
C453 C452 1.363 . S
C453 C456 1.363 . S
N454 C456 1.356 . S
N454 H466 0.984 . S
N454 H467 0.985 . S
N455 C457 1.356 . S
N455 H460 0.984 . S
N455 H461 0.985 . S
C456 C450 1.379 1_554 S
C456 C453 1.363 . S
C456 N454 1.356 . S
C457 C451 1.363 . S
C457 C452 1.379 1_556 S
C457 N455 1.356 . S
N458 C450 1.356 . S
N458 H464 0.984 . S
N458 H465 0.984 . S
N459 C452 1.356 . S
N459 H462 0.984 . S
N459 H463 0.985 . S
H460 N455 0.984 . S
H461 N455 0.985 . S
H462 N459 0.984 . S
H463 N459 0.985 . S
H464 N458 0.984 . S
H465 N458 0.984 . S
H466 N454 0.984 . S
H467 N454 0.985 . S
C468 C469 1.363 . S
C468 C474 1.379 . S
C468 N476 1.356 . S
C469 C468 1.363 . S
C469 C475 1.363 . S
C470 C471 1.363 . S
C470 C475 1.379 . S
C470 N477 1.356 . S
C471 C470 1.363 . S
C471 C474 1.363 . S
N472 C474 1.356 . S
N472 H484 0.984 . S
N472 H485 0.985 . S
N473 C475 1.356 . S
N473 H478 0.984 . S
N473 H479 0.985 . S
C474 C468 1.379 . S
C474 C471 1.363 . S
C474 N472 1.356 . S
C475 C469 1.363 . S
C475 C470 1.379 . S
C475 N473 1.356 . S
N476 C468 1.356 . S
N476 H482 0.984 . S
N476 H483 0.984 . S
N477 C470 1.356 . S
N477 H480 0.984 . S
N477 H481 0.985 . S
H478 N473 0.984 . S
H479 N473 0.985 . S
H480 N477 0.984 . S
H481 N477 0.985 . S
H482 N476 0.984 . S
H483 N476 0.984 . S
H484 N472 0.984 . S
H485 N472 0.985 . S
C486 C487 1.363 . S
C486 C492 1.379 . S
C486 N494 1.356 . S
C487 C486 1.363 . S
C487 C493 1.363 . S
C488 C489 1.363 . S
C488 C493 1.379 . S
C488 N495 1.356 . S
C489 C488 1.363 . S
C489 C492 1.363 . S
N490 C492 1.356 . S
N490 H502 0.984 . S
N490 H503 0.985 . S
N491 C493 1.356 . S
N491 H496 0.984 . S
N491 H497 0.985 . S
C492 C486 1.379 . S
C492 C489 1.363 . S
C492 N490 1.356 . S
C493 C487 1.363 . S
C493 C488 1.379 . S
C493 N491 1.356 . S
N494 C486 1.356 . S
N494 H500 0.984 . S
N494 H501 0.984 . S
N495 C488 1.356 . S
N495 H498 0.984 . S
N495 H499 0.985 . S
H496 N491 0.984 . S
H497 N491 0.985 . S
H498 N495 0.984 . S
H499 N495 0.985 . S
H500 N494 0.984 . S
H501 N494 0.984 . S
H502 N490 0.984 . S
H503 N490 0.985 . S
C504 C505 1.363 . S
C504 C510 1.379 . S
C504 N512 1.356 . S
C505 C504 1.363 . S
C505 C511 1.363 . S
C506 C507 1.363 . S
C506 C511 1.379 . S
C506 N513 1.356 . S
C507 C506 1.363 . S
C507 C510 1.363 . S
N508 C510 1.356 . S
N508 H520 0.984 . S
N508 H521 0.985 . S
N509 C511 1.356 . S
N509 H514 0.984 . S
N509 H515 0.985 . S
C510 C504 1.379 . S
C510 C507 1.363 . S
C510 N508 1.356 . S
C511 C505 1.363 . S
C511 C506 1.379 . S
C511 N509 1.356 . S
N512 C504 1.356 . S
N512 H518 0.984 . S
N512 H519 0.984 . S
N513 C506 1.356 . S
N513 H516 0.984 . S
N513 H517 0.985 . S
H514 N509 0.984 . S
H515 N509 0.985 . S
H516 N513 0.984 . S
H517 N513 0.985 . S
H518 N512 0.984 . S
H519 N512 0.984 . S
H520 N508 0.984 . S
H521 N508 0.985 . S
C522 C523 1.363 . S
C522 C528 1.379 . S
C522 N530 1.356 . S
C523 C522 1.363 . S
C523 C529 1.363 . S
C524 C525 1.363 . S
C524 C529 1.379 . S
C524 N531 1.356 . S
C525 C524 1.363 . S
C525 C528 1.363 . S
N526 C528 1.356 . S
N526 H538 0.984 . S
N526 H539 0.985 . S
N527 C529 1.356 . S
N527 H532 0.984 . S
N527 H533 0.985 . S
C528 C522 1.379 . S
C528 C525 1.363 . S
C528 N526 1.356 . S
C529 C523 1.363 . S
C529 C524 1.379 . S
C529 N527 1.356 . S
N530 C522 1.356 . S
N530 H536 0.984 . S
N530 H537 0.984 . S
N531 C524 1.356 . S
N531 H534 0.984 . S
N531 H535 0.985 . S
H532 N527 0.984 . S
H533 N527 0.985 . S
H534 N531 0.984 . S
H535 N531 0.985 . S
H536 N530 0.984 . S
H537 N530 0.984 . S
H538 N526 0.984 . S
H539 N526 0.985 . S
C540 C541 1.363 1_554 S
C540 C546 1.379 . S
C540 N548 1.356 . S
C541 C540 1.363 1_556 S
C541 C547 1.363 . S
C542 C543 1.363 1_556 S
C542 C547 1.379 . S
C542 N549 1.356 . S
C543 C542 1.363 1_554 S
C543 C546 1.363 . S
N544 C546 1.356 . S
N544 H556 0.984 . S
N544 H557 0.985 . S
N545 C547 1.356 . S
N545 H550 0.984 . S
N545 H551 0.985 . S
C546 C540 1.379 . S
C546 C543 1.363 . S
C546 N544 1.356 . S
C547 C541 1.363 . S
C547 C542 1.379 . S
C547 N545 1.356 . S
N548 C540 1.356 . S
N548 H554 0.984 . S
N548 H555 0.984 . S
N549 C542 1.356 . S
N549 H552 0.984 . S
N549 H553 0.985 . S
H550 N545 0.984 . S
H551 N545 0.985 . S
H552 N549 0.984 . S
H553 N549 0.985 . S
H554 N548 0.984 . S
H555 N548 0.984 . S
H556 N544 0.984 . S
H557 N544 0.985 . S
C558 C559 1.363 . S
C558 C564 1.379 . S
C558 N566 1.356 . S
C559 C558 1.363 . S
C559 C565 1.363 . S
C560 C561 1.363 . S
C560 C565 1.379 . S
C560 N567 1.356 . S
C561 C560 1.363 . S
C561 C564 1.363 . S
N562 C564 1.356 . S
N562 H574 0.984 . S
N562 H575 0.985 . S
N563 C565 1.356 . S
N563 H568 0.984 . S
N563 H569 0.985 . S
C564 C558 1.379 . S
C564 C561 1.363 . S
C564 N562 1.356 . S
C565 C559 1.363 . S
C565 C560 1.379 . S
C565 N563 1.356 . S
N566 C558 1.356 . S
N566 H572 0.984 . S
N566 H573 0.984 . S
N567 C560 1.356 . S
N567 H570 0.984 . S
N567 H571 0.985 . S
H568 N563 0.984 . S
H569 N563 0.985 . S
H570 N567 0.984 . S
H571 N567 0.985 . S
H572 N566 0.984 . S
H573 N566 0.984 . S
H574 N562 0.984 . S
H575 N562 0.985 . S
C576 C577 1.363 . S
C576 C582 1.379 . S
C576 N584 1.356 . S
C577 C576 1.363 . S
C577 C583 1.363 . S
C578 C579 1.363 . S
C578 C583 1.379 . S
C578 N585 1.356 . S
C579 C578 1.363 . S
C579 C582 1.363 . S
N580 C582 1.356 . S
N580 H592 0.984 . S
N580 H593 0.985 . S
N581 C583 1.356 . S
N581 H586 0.984 . S
N581 H587 0.985 . S
C582 C576 1.379 . S
C582 C579 1.363 . S
C582 N580 1.356 . S
C583 C577 1.363 . S
C583 C578 1.379 . S
C583 N581 1.356 . S
N584 C576 1.356 . S
N584 H590 0.984 . S
N584 H591 0.984 . S
N585 C578 1.356 . S
N585 H588 0.984 . S
N585 H589 0.985 . S
H586 N581 0.984 . S
H587 N581 0.985 . S
H588 N585 0.984 . S
H589 N585 0.985 . S
H590 N584 0.984 . S
H591 N584 0.984 . S
H592 N580 0.984 . S
H593 N580 0.985 . S
C594 C595 1.363 1_556 S
C594 C600 1.379 . S
C594 N602 1.356 . S
C595 C594 1.363 1_554 S
C595 C601 1.363 . S
C596 C597 1.363 1_554 S
C596 C601 1.379 . S
C596 N603 1.356 . S
C597 C596 1.363 1_556 S
C597 C600 1.363 . S
N598 C600 1.356 . S
N598 H610 0.984 . S
N598 H611 0.985 . S
N599 C601 1.356 . S
N599 H604 0.984 . S
N599 H605 0.985 . S
C600 C594 1.379 . S
C600 C597 1.363 . S
C600 N598 1.356 . S
C601 C595 1.363 . S
C601 C596 1.379 . S
C601 N599 1.356 . S
N602 C594 1.356 . S
N602 H608 0.984 . S
N602 H609 0.984 . S
N603 C596 1.356 . S
N603 H606 0.984 . S
N603 H607 0.985 . S
H604 N599 0.984 . S
H605 N599 0.985 . S
H606 N603 0.984 . S
H607 N603 0.985 . S
H608 N602 0.984 . S
H609 N602 0.984 . S
H610 N598 0.984 . S
H611 N598 0.985 . S
C612 C613 1.363 . S
C612 C618 1.379 . S
C612 N620 1.356 . S
C613 C612 1.363 . S
C613 C619 1.363 . S
C614 C615 1.363 . S
C614 C619 1.379 . S
C614 N621 1.356 . S
C615 C614 1.363 . S
C615 C618 1.363 . S
N616 C618 1.356 . S
N616 H628 0.984 . S
N616 H629 0.985 . S
N617 C619 1.356 . S
N617 H622 0.984 . S
N617 H623 0.985 . S
C618 C612 1.379 . S
C618 C615 1.363 . S
C618 N616 1.356 . S
C619 C613 1.363 . S
C619 C614 1.379 . S
C619 N617 1.356 . S
N620 C612 1.356 . S
N620 H626 0.984 . S
N620 H627 0.984 . S
N621 C614 1.356 . S
N621 H624 0.984 . S
N621 H625 0.985 . S
H622 N617 0.984 . S
H623 N617 0.985 . S
H624 N621 0.984 . S
H625 N621 0.985 . S
H626 N620 0.984 . S
H627 N620 0.984 . S
H628 N616 0.984 . S
H629 N616 0.985 . S
C630 C631 1.363 . S
C630 C636 1.379 1_455 S
C630 N638 1.356 . S
C631 C630 1.363 . S
C631 C637 1.363 . S
C632 C633 1.363 . S
C632 C637 1.379 1_655 S
C632 N639 1.356 . S
C633 C632 1.363 . S
C633 C636 1.363 . S
N634 C636 1.356 . S
N634 H646 0.984 . S
N634 H647 0.985 . S
N635 C637 1.356 . S
N635 H640 0.984 . S
N635 H641 0.985 . S
C636 C630 1.379 1_655 S
C636 C633 1.363 . S
C636 N634 1.356 . S
C637 C631 1.363 . S
C637 C632 1.379 1_455 S
C637 N635 1.356 . S
N638 C630 1.356 . S
N638 H644 0.984 . S
N638 H645 0.984 . S
N639 C632 1.356 . S
N639 H642 0.984 . S
N639 H643 0.985 . S
H640 N635 0.984 . S
H641 N635 0.985 . S
H642 N639 0.984 . S
H643 N639 0.985 . S
H644 N638 0.984 . S
H645 N638 0.984 . S
H646 N634 0.984 . S
H647 N634 0.985 . S
C648 C649 1.363 1_556 S
C648 C654 1.379 1_545 S
C648 N656 1.356 . S
C649 C648 1.363 1_554 S
C649 C655 1.363 . S
C650 C651 1.363 1_554 S
C650 C655 1.379 1_565 S
C650 N657 1.356 . S
C651 C650 1.363 1_556 S
C651 C654 1.363 . S
N652 C654 1.356 . S
N652 H664 0.984 . S
N652 H665 0.985 . S
N653 C655 1.356 . S
N653 H658 0.984 . S
N653 H659 0.985 . S
C654 C648 1.379 1_565 S
C654 C651 1.363 . S
C654 N652 1.356 . S
C655 C649 1.363 . S
C655 C650 1.379 1_545 S
C655 N653 1.356 . S
N656 C648 1.356 . S
N656 H662 0.984 . S
N656 H663 0.984 . S
N657 C650 1.356 . S
N657 H660 0.984 . S
N657 H661 0.985 . S
H658 N653 0.984 . S
H659 N653 0.985 . S
H660 N657 0.984 . S
H661 N657 0.985 . S
H662 N656 0.984 . S
H663 N656 0.984 . S
H664 N652 0.984 . S
H665 N652 0.985 . S
C666 C667 1.363 . S
C666 C672 1.379 . S
C666 N674 1.356 . S
C667 C666 1.363 . S
C667 C673 1.363 . S
C668 C669 1.363 . S
C668 C673 1.379 . S
C668 N675 1.356 . S
C669 C668 1.363 . S
C669 C672 1.363 . S
N670 C672 1.356 . S
N670 H682 0.984 . S
N670 H683 0.985 . S
N671 C673 1.356 . S
N671 H676 0.984 . S
N671 H677 0.985 . S
C672 C666 1.379 . S
C672 C669 1.363 . S
C672 N670 1.356 . S
C673 C667 1.363 . S
C673 C668 1.379 . S
C673 N671 1.356 . S
N674 C666 1.356 . S
N674 H680 0.984 . S
N674 H681 0.984 . S
N675 C668 1.356 . S
N675 H678 0.984 . S
N675 H679 0.985 . S
H676 N671 0.984 . S
H677 N671 0.985 . S
H678 N675 0.984 . S
H679 N675 0.985 . S
H680 N674 0.984 . S
H681 N674 0.984 . S
H682 N670 0.984 . S
H683 N670 0.985 . S
C684 C685 1.363 . S
C684 C690 1.379 1_455 S
C684 N692 1.356 . S
C685 C684 1.363 . S
C685 C691 1.363 . S
C686 C687 1.363 . S
C686 C691 1.379 1_655 S
C686 N693 1.356 . S
C687 C686 1.363 . S
C687 C690 1.363 . S
N688 C690 1.356 . S
N688 H700 0.984 . S
N688 H701 0.985 . S
N689 C691 1.356 . S
N689 H694 0.984 . S
N689 H695 0.985 . S
C690 C684 1.379 1_655 S
C690 C687 1.363 . S
C690 N688 1.356 . S
C691 C685 1.363 . S
C691 C686 1.379 1_455 S
C691 N689 1.356 . S
N692 C684 1.356 . S
N692 H698 0.984 . S
N692 H699 0.984 . S
N693 C686 1.356 . S
N693 H696 0.984 . S
N693 H697 0.985 . S
H694 N689 0.984 . S
H695 N689 0.985 . S
H696 N693 0.984 . S
H697 N693 0.985 . S
H698 N692 0.984 . S
H699 N692 0.984 . S
H700 N688 0.984 . S
H701 N688 0.985 . S
C702 C703 1.363 1_554 S
C702 C708 1.379 1_545 S
C702 N710 1.356 . S
C703 C702 1.363 1_556 S
C703 C709 1.363 . S
C704 C705 1.363 1_556 S
C704 C709 1.379 1_565 S
C704 N711 1.356 . S
C705 C704 1.363 1_554 S
C705 C708 1.363 . S
N706 C708 1.356 . S
N706 H718 0.984 . S
N706 H719 0.985 . S
N707 C709 1.356 . S
N707 H712 0.984 . S
N707 H713 0.985 . S
C708 C702 1.379 1_565 S
C708 C705 1.363 . S
C708 N706 1.356 . S
C709 C703 1.363 . S
C709 C704 1.379 1_545 S
C709 N707 1.356 . S
N710 C702 1.356 . S
N710 H716 0.984 . S
N710 H717 0.984 . S
N711 C704 1.356 . S
N711 H714 0.984 . S
N711 H715 0.985 . S
H712 N707 0.984 . S
H713 N707 0.985 . S
H714 N711 0.984 . S
H715 N711 0.985 . S
H716 N710 0.984 . S
H717 N710 0.984 . S
H718 N706 0.984 . S
H719 N706 0.985 . S
C720 C721 1.363 . S
C720 C726 1.379 . S
C720 N728 1.356 . S
C721 C720 1.363 . S
C721 C727 1.363 . S
C722 C723 1.363 . S
C722 C727 1.379 . S
C722 N729 1.356 . S
C723 C722 1.363 . S
C723 C726 1.363 . S
N724 C726 1.356 . S
N724 H736 0.984 . S
N724 H737 0.985 . S
N725 C727 1.356 . S
N725 H730 0.984 . S
N725 H731 0.985 . S
C726 C720 1.379 . S
C726 C723 1.363 . S
C726 N724 1.356 . S
C727 C721 1.363 . S
C727 C722 1.379 . S
C727 N725 1.356 . S
N728 C720 1.356 . S
N728 H734 0.984 . S
N728 H735 0.984 . S
N729 C722 1.356 . S
N729 H732 0.984 . S
N729 H733 0.985 . S
H730 N725 0.984 . S
H731 N725 0.985 . S
H732 N729 0.984 . S
H733 N729 0.985 . S
H734 N728 0.984 . S
H735 N728 0.984 . S
H736 N724 0.984 . S
H737 N724 0.985 . S
C738 C739 1.363 . S
C738 C744 1.379 . S
C738 N746 1.356 . S
C739 C738 1.363 . S
C739 C745 1.363 . S
C740 C741 1.363 1_554 S
C740 C745 1.379 . S
C740 N747 1.356 1_554 S
C741 C740 1.363 1_556 S
C741 C744 1.363 1_556 S
N742 C744 1.356 1_556 S
N742 H754 0.984 1_556 S
N742 H755 0.985 . S
N743 C745 1.356 . S
N743 H748 0.984 . S
N743 H749 0.985 . S
C744 C738 1.379 . S
C744 C741 1.363 1_554 S
C744 N742 1.356 1_554 S
C745 C739 1.363 . S
C745 C740 1.379 . S
C745 N743 1.356 . S
N746 C738 1.356 . S
N746 H752 0.984 . S
N746 H753 0.984 . S
N747 C740 1.356 1_556 S
N747 H750 0.984 . S
N747 H751 0.985 . S
H748 N743 0.984 . S
H749 N743 0.985 . S
H750 N747 0.984 . S
H751 N747 0.985 . S
H752 N746 0.984 . S
H753 N746 0.984 . S
H754 N742 0.984 1_554 S
H755 N742 0.985 . S
C756 C757 1.363 . S
C756 C762 1.379 . S
C756 N764 1.356 . S
C757 C756 1.363 . S
C757 C763 1.363 . S
C758 C759 1.363 . S
C758 C763 1.379 . S
C758 N765 1.356 . S
C759 C758 1.363 . S
C759 C762 1.363 . S
N760 C762 1.356 . S
N760 H772 0.984 . S
N760 H773 0.985 . S
N761 C763 1.356 . S
N761 H766 0.984 . S
N761 H767 0.985 . S
C762 C756 1.379 . S
C762 C759 1.363 . S
C762 N760 1.356 . S
C763 C757 1.363 . S
C763 C758 1.379 . S
C763 N761 1.356 . S
N764 C756 1.356 . S
N764 H770 0.984 . S
N764 H771 0.984 . S
N765 C758 1.356 . S
N765 H768 0.984 . S
N765 H769 0.985 . S
H766 N761 0.984 . S
H767 N761 0.985 . S
H768 N765 0.984 . S
H769 N765 0.985 . S
H770 N764 0.984 . S
H771 N764 0.984 . S
H772 N760 0.984 . S
H773 N760 0.985 . S
C774 C775 1.363 . S
C774 C780 1.379 . S
C774 N782 1.356 . S
C775 C774 1.363 . S
C775 C781 1.363 . S
C776 C777 1.363 . S
C776 C781 1.379 . S
C776 N783 1.356 . S
C777 C776 1.363 . S
C777 C780 1.363 . S
N778 C780 1.356 . S
N778 H790 0.984 . S
N778 H791 0.985 . S
N779 C781 1.356 . S
N779 H784 0.984 . S
N779 H785 0.985 . S
C780 C774 1.379 . S
C780 C777 1.363 . S
C780 N778 1.356 . S
C781 C775 1.363 . S
C781 C776 1.379 . S
C781 N779 1.356 . S
N782 C774 1.356 . S
N782 H788 0.984 . S
N782 H789 0.984 . S
N783 C776 1.356 . S
N783 H786 0.984 . S
N783 H787 0.985 . S
H784 N779 0.984 . S
H785 N779 0.985 . S
H786 N783 0.984 . S
H787 N783 0.985 . S
H788 N782 0.984 . S
H789 N782 0.984 . S
H790 N778 0.984 . S
H791 N778 0.985 . S
C792 C793 1.363 . S
C792 C798 1.379 . S
C792 N800 1.356 . S
C793 C792 1.363 . S
C793 C799 1.363 . S
C794 C795 1.363 1_554 S
C794 C799 1.379 . S
C794 N801 1.356 1_554 S
C795 C794 1.363 1_556 S
C795 C798 1.363 1_556 S
N796 C798 1.356 1_556 S
N796 H808 0.984 . S
N796 H809 0.985 . S
N797 C799 1.356 . S
N797 H802 0.984 . S
N797 H803 0.985 . S
C798 C792 1.379 . S
C798 C795 1.363 1_554 S
C798 N796 1.356 1_554 S
C799 C793 1.363 . S
C799 C794 1.379 . S
C799 N797 1.356 . S
N800 C792 1.356 . S
N800 H806 0.984 . S
N800 H807 0.984 . S
N801 C794 1.356 1_556 S
N801 H804 0.984 . S
N801 H805 0.985 1_556 S
H802 N797 0.984 . S
H803 N797 0.985 . S
H804 N801 0.984 . S
H805 N801 0.985 1_554 S
H806 N800 0.984 . S
H807 N800 0.984 . S
H808 N796 0.984 . S
H809 N796 0.985 . S
C810 C811 1.363 . S
C810 C816 1.379 . S
C810 N818 1.356 . S
C811 C810 1.363 . S
C811 C817 1.363 . S
C812 C813 1.363 . S
C812 C817 1.379 . S
C812 N819 1.356 . S
C813 C812 1.363 . S
C813 C816 1.363 . S
N814 C816 1.356 . S
N814 H826 0.984 . S
N814 H827 0.985 . S
N815 C817 1.356 . S
N815 H820 0.984 . S
N815 H821 0.985 . S
C816 C810 1.379 . S
C816 C813 1.363 . S
C816 N814 1.356 . S
C817 C811 1.363 . S
C817 C812 1.379 . S
C817 N815 1.356 . S
N818 C810 1.356 . S
N818 H824 0.984 . S
N818 H825 0.984 . S
N819 C812 1.356 . S
N819 H822 0.984 . S
N819 H823 0.985 . S
H820 N815 0.984 . S
H821 N815 0.985 . S
H822 N819 0.984 . S
H823 N819 0.985 . S
H824 N818 0.984 . S
H825 N818 0.984 . S
H826 N814 0.984 . S
H827 N814 0.985 . S
C828 C829 1.363 1_556 S
C828 C834 1.379 . S
C828 N836 1.356 . S
C829 C828 1.363 1_554 S
C829 C835 1.363 1_554 S
C830 C831 1.363 . S
C830 C835 1.379 . S
C830 N837 1.356 . S
C831 C830 1.363 . S
C831 C834 1.363 . S
N832 C834 1.356 . S
N832 H844 0.984 . S
N832 H845 0.985 . S
N833 C835 1.356 1_554 S
N833 H838 0.984 . S
N833 H839 0.985 . S
C834 C828 1.379 . S
C834 C831 1.363 . S
C834 N832 1.356 . S
C835 C829 1.363 1_556 S
C835 C830 1.379 . S
C835 N833 1.356 1_556 S
N836 C828 1.356 . S
N836 H842 0.984 . S
N836 H843 0.984 1_556 S
N837 C830 1.356 . S
N837 H840 0.984 . S
N837 H841 0.985 . S
H838 N833 0.984 . S
H839 N833 0.985 . S
H840 N837 0.984 . S
H841 N837 0.985 . S
H842 N836 0.984 . S
H843 N836 0.984 1_554 S
H844 N832 0.984 . S
H845 N832 0.985 . S
C846 C847 1.363 . S
C846 C852 1.379 . S
C846 N854 1.356 . S
C847 C846 1.363 . S
C847 C853 1.363 . S
C848 C849 1.363 . S
C848 C853 1.379 . S
C848 N855 1.356 . S
C849 C848 1.363 . S
C849 C852 1.363 . S
N850 C852 1.356 . S
N850 H862 0.984 . S
N850 H863 0.985 . S
N851 C853 1.356 . S
N851 H856 0.984 . S
N851 H857 0.985 . S
C852 C846 1.379 . S
C852 C849 1.363 . S
C852 N850 1.356 . S
C853 C847 1.363 . S
C853 C848 1.379 . S
C853 N851 1.356 . S
N854 C846 1.356 . S
N854 H860 0.984 . S
N854 H861 0.984 . S
N855 C848 1.356 . S
N855 H858 0.984 . S
N855 H859 0.985 . S
H856 N851 0.984 . S
H857 N851 0.985 . S
H858 N855 0.984 . S
H859 N855 0.985 . S
H860 N854 0.984 . S
H861 N854 0.984 . S
H862 N850 0.984 . S
H863 N850 0.985 . S
C864 C865 1.363 . S
C864 C870 1.379 . S
C864 N872 1.356 . S
C865 C864 1.363 . S
C865 C871 1.363 . S
C866 C867 1.363 . S
C866 C871 1.379 . S
C866 N873 1.356 . S
C867 C866 1.363 . S
C867 C870 1.363 . S
N868 C870 1.356 . S
N868 H880 0.984 . S
N868 H881 0.985 . S
N869 C871 1.356 . S
N869 H874 0.984 . S
N869 H875 0.985 . S
C870 C864 1.379 . S
C870 C867 1.363 . S
C870 N868 1.356 . S
C871 C865 1.363 . S
C871 C866 1.379 . S
C871 N869 1.356 . S
N872 C864 1.356 . S
N872 H878 0.984 . S
N872 H879 0.984 . S
N873 C866 1.356 . S
N873 H876 0.984 . S
N873 H877 0.985 . S
H874 N869 0.984 . S
H875 N869 0.985 . S
H876 N873 0.984 . S
H877 N873 0.985 . S
H878 N872 0.984 . S
H879 N872 0.984 . S
H880 N868 0.984 . S
H881 N868 0.985 . S
C882 C883 1.363 . S
C882 C888 1.379 . S
C882 N890 1.356 . S
C883 C882 1.363 . S
C883 C889 1.363 . S
C884 C885 1.363 1_556 S
C884 C889 1.379 . S
C884 N891 1.356 1_556 S
C885 C884 1.363 1_554 S
C885 C888 1.363 1_554 S
N886 C888 1.356 1_554 S
N886 H898 0.984 1_554 S
N886 H899 0.985 . S
N887 C889 1.356 . S
N887 H892 0.984 . S
N887 H893 0.985 . S
C888 C882 1.379 . S
C888 C885 1.363 1_556 S
C888 N886 1.356 1_556 S
C889 C883 1.363 . S
C889 C884 1.379 . S
C889 N887 1.356 . S
N890 C882 1.356 . S
N890 H896 0.984 . S
N890 H897 0.984 . S
N891 C884 1.356 1_554 S
N891 H894 0.984 . S
N891 H895 0.985 . S
H892 N887 0.984 . S
H893 N887 0.985 . S
H894 N891 0.984 . S
H895 N891 0.985 . S
H896 N890 0.984 . S
H897 N890 0.984 . S
H898 N886 0.984 1_556 S
H899 N886 0.985 . S
C900 C901 1.363 . S
C900 C906 1.379 . S
C900 N908 1.356 . S
C901 C900 1.363 . S
C901 C907 1.363 . S
C902 C903 1.363 . S
C902 C907 1.379 . S
C902 N909 1.356 . S
C903 C902 1.363 . S
C903 C906 1.363 . S
N904 C906 1.356 . S
N904 H916 0.984 . S
N904 H917 0.985 . S
N905 C907 1.356 . S
N905 H910 0.984 . S
N905 H911 0.985 . S
C906 C900 1.379 . S
C906 C903 1.363 . S
C906 N904 1.356 . S
C907 C901 1.363 . S
C907 C902 1.379 . S
C907 N905 1.356 . S
N908 C900 1.356 . S
N908 H914 0.984 . S
N908 H915 0.984 . S
N909 C902 1.356 . S
N909 H912 0.984 . S
N909 H913 0.985 . S
H910 N905 0.984 . S
H911 N905 0.985 . S
H912 N909 0.984 . S
H913 N909 0.985 . S
H914 N908 0.984 . S
H915 N908 0.984 . S
H916 N904 0.984 . S
H917 N904 0.985 . S
C918 C919 1.363 . S
C918 C924 1.379 . S
C918 N926 1.356 . S
C919 C918 1.363 . S
C919 C925 1.363 . S
C920 C921 1.363 . S
C920 C925 1.379 . S
C920 N927 1.356 . S
C921 C920 1.363 . S
C921 C924 1.363 . S
N922 C924 1.356 . S
N922 H934 0.984 . S
N922 H935 0.985 . S
N923 C925 1.356 . S
N923 H928 0.984 . S
N923 H929 0.985 . S
C924 C918 1.379 . S
C924 C921 1.363 . S
C924 N922 1.356 . S
C925 C919 1.363 . S
C925 C920 1.379 . S
C925 N923 1.356 . S
N926 C918 1.356 . S
N926 H932 0.984 . S
N926 H933 0.984 . S
N927 C920 1.356 . S
N927 H930 0.984 . S
N927 H931 0.985 . S
H928 N923 0.984 . S
H929 N923 0.985 . S
H930 N927 0.984 . S
H931 N927 0.985 . S
H932 N926 0.984 . S
H933 N926 0.984 . S
H934 N922 0.984 . S
H935 N922 0.985 . S
C397 C8 1.524 . S
C399 C338 1.524 . S
C415 C371 1.524 . S
C417 C41 1.524 . S
C433 C206 1.524 . S
C435 C74 1.524 . S
C451 C239 1.524 . S
C453 C107 1.524 . S
C469 C140 1.524 . S
C471 C272 1.524 . S
C487 C305 1.524 . S
C489 C173 1.524 . S
C505 C215 1.617 . S
C507 C17 1.617 . S
C523 C248 1.617 . S
C525 C50 1.617 . S
C541 C83 1.617 . S
C543 C281 1.617 . S
C559 C116 1.617 . S
C561 C314 1.617 . S
C577 C347 1.617 . S
C579 C149 1.617 . S
C595 C380 1.617 . S
C597 C182 1.617 . S
C613 C28 1.517 . S
C615 C325 1.517 . S
C631 C358 1.517 . S
C633 C61 1.517 . S
C649 C391 1.517 . S
C651 C94 1.517 . S
C667 C226 1.517 . S
C669 C127 1.517 . S
C685 C160 1.517 . S
C687 C259 1.517 . S
C703 C193 1.517 . S
C705 C292 1.517 . S
C721 N5 1.242 . S
C723 N14 1.243 . S
C739 N47 1.243 . S
C741 N38 1.242 . S
C757 N71 1.242 . S
C759 N80 1.243 . S
C775 N113 1.243 . S
C777 N104 1.242 . S
C793 N146 1.243 . S
C795 N137 1.242 . S
C811 N179 1.243 . S
C813 N170 1.242 . S
C829 N203 1.242 . S
C831 N212 1.243 . S
C847 N245 1.243 . S
C849 N236 1.242 . S
C865 N278 1.243 . S
C867 N269 1.242 . S
C883 N311 1.243 . S
C885 N302 1.242 . S
C901 N335 1.242 . S
C903 N344 1.243 . S
C919 N377 1.243 . S
C921 N368 1.242 . S
