# Generated by pormake.
# Topology sqp, (5)-cn, num edge types: 1
# Building blocks:
#     Node 0, Type 0, BuildingBlock: XOMCOT_clean_sbu_1, # of connection points: 5
#     Node 1, Type 0, BuildingBlock: XOMCOT_clean_sbu_1, # of connection points: 5
#     Node 2, Type 0, BuildingBlock: XOMCOT_clean_sbu_1, # of connection points: 5
#     Node 3, Type 0, BuildingBlock: XOMCOT_clean_sbu_1, # of connection points: 5
#     Edge 4, Type (0, 0), BuildingBlock: FUNLAD_clean_linker_0, # of connection points: 2
#     Edge 5, Type (0, 0), BuildingBlock: FUNLAD_clean_linker_0, # of connection points: 2
#     Edge 6, Type (0, 0), BuildingBlock: FUNLAD_clean_linker_0, # of connection points: 2
#     Edge 7, Type (0, 0), BuildingBlock: FUNLAD_clean_linker_0, # of connection points: 2
#     Edge 8, Type (0, 0), BuildingBlock: FUNLAD_clean_linker_0, # of connection points: 2
#     Edge 9, Type (0, 0), BuildingBlock: FUNLAD_clean_linker_0, # of connection points: 2
#     Edge 10, Type (0, 0), BuildingBlock: FUNLAD_clean_linker_0, # of connection points: 2
#     Edge 11, Type (0, 0), BuildingBlock: FUNLAD_clean_linker_0, # of connection points: 2
#     Edge 12, Type (0, 0), BuildingBlock: FUNLAD_clean_linker_0, # of connection points: 2
#     Edge 13, Type (0, 0), BuildingBlock: FUNLAD_clean_linker_0, # of connection points: 2
# Relax obj value: 0.083
# Max RMSD: 0.168
# Mean RMSD: 0.168
data_MOF--net-sqp--node1-XOMCOT_clean_sbu_1--edge1-FUNLAD_clean_linker_0
_symmetry_space_group_name_H-M    P1
_symmetry_Int_Tables_number       1
_symmetry_cell_setting            triclinic
loop_
_symmetry_equiv_pos_as_xyz
'x, y, z'
_cell_length_a     27.793777
_cell_length_b     21.670987
_cell_length_c     54.429422
_cell_angle_alpha  89.475074
_cell_angle_beta   96.510635
_cell_angle_gamma 89.667152
loop_
_atom_site_label
_atom_site_type_symbol
_atom_site_fract_x
_atom_site_fract_y
_atom_site_fract_z
_atom_type_partial_charge
C0 C 0.01969 0.18123 0.31188 0.0
C1 C 0.98491 0.22597 0.30556 0.0
N2 N 0.95281 0.20396 0.28736 0.0
N3 N 0.00935 0.13094 0.2979 0.0
C4 C 0.96878 0.14649 0.28297 0.0
H5 H 0.05011 0.18461 0.32606 0.0
Co6 Co 0.04356 0.05565 0.29968 0.0
C7 C 0.9515 0.97856 0.29315 0.0
O8 O 0.95385 0.96488 0.31676 0.0
N9 N 0.078 0.9792 0.30086 0.0
C10 C 0.09823 0.88112 0.30921 0.0
C11 C 0.06324 0.92527 0.31004 0.0
C12 C 0.12284 0.96606 0.29457 0.0
N13 N 0.13608 0.90657 0.29966 0.0
O14 O 0.06251 0.07245 0.26752 0.0
H15 H 0.03026 0.91815 0.31808 0.0
H16 H 0.14592 0.99975 0.2871 0.0
O17 O 0.98413 1.01232 0.28499 0.0
C18 C 0.09767 0.10998 0.27179 0.0
O19 O 0.11256 0.1238 0.29486 0.0
N20 N 0.03088 1.04538 0.33291 0.0
C21 C 0.0274 1.04246 0.38401 0.0
C22 C 0.98647 0.06005 0.3679 0.0
C23 C 0.9893 0.06256 0.34239 0.0
C24 C 0.07166 1.03254 0.34859 0.0
C25 C 0.07047 1.02939 0.374 0.0
H26 H 0.95804 0.07823 0.33023 0.0
H27 H 0.1061 1.02637 0.3415 0.0
H28 H 0.95054 0.11562 0.26952 0.0
H29 H 0.98346 0.27116 0.31376 0.0
H30 H 0.09579 0.83368 0.31529 0.0
H31 H 0.95277 0.0722 0.37492 0.0
H32 H 0.10369 1.0191 0.38578 0.0
C33 C 0.03183 0.21207 0.69307 0.0
C34 C 0.07021 0.25142 0.69801 0.0
N35 N 0.11122 0.21749 0.70155 0.0
N36 N 0.04835 0.15343 0.69358 0.0
C37 C 0.09695 0.15816 0.6987 0.0
H38 H 0.99425 0.22552 0.68899 0.0
Co39 Co 0.00927 0.08501 0.68622 0.0
C40 C 0.06155 0.97592 0.71273 0.0
O41 O 0.03247 0.93577 0.70099 0.0
N42 N 0.96766 1.01737 0.67821 0.0
C43 C 0.91953 0.94858 0.65773 0.0
C44 C 0.95322 0.99405 0.65563 0.0
C45 C 0.94112 0.98618 0.69356 0.0
N46 N 0.91211 0.94353 0.68167 0.0
O47 O 0.97329 0.1053 0.71313 0.0
H48 H 0.96554 1.00948 0.6385 0.0
H49 H 0.94312 0.99469 0.71319 0.0
O50 O 0.05562 1.03378 0.70813 0.0
C51 C 0.93303 0.12987 0.70446 0.0
O52 O 0.92354 0.1364 0.68035 0.0
N53 N 0.04152 0.07033 0.65863 0.0
C54 C 0.06791 0.05496 0.61128 0.0
C55 C 0.08532 1.01422 0.6305 0.0
C56 C 0.07185 1.0229 0.65423 0.0
C57 C 0.02644 0.11199 0.64048 0.0
C58 C 0.03926 0.10533 0.61671 0.0
H59 H 0.08422 0.9899 0.66844 0.0
H60 H 1.00196 0.14882 0.64424 0.0
H61 H 0.12147 0.11911 0.69948 0.0
H62 H 0.06801 0.30119 0.69908 0.0
H63 H 0.90213 0.9212 0.64278 0.0
H64 H 0.1079 0.97505 0.62705 0.0
H65 H 0.02437 0.13737 0.6024 0.0
C66 C 0.52743 0.70646 0.7893 0.0
C67 C 0.48925 0.74688 0.78434 0.0
N68 N 0.44786 0.71437 0.78246 0.0
N69 N 0.5104 0.64854 0.79043 0.0
C70 C 0.4617 0.65476 0.78625 0.0
H71 H 0.56525 0.71875 0.79242 0.0
Co72 Co 0.54939 0.5799 0.7991 0.0
C73 C 0.49748 0.47033 0.77437 0.0
O74 O 0.52878 0.43036 0.78518 0.0
N75 N 0.5913 0.51199 0.80869 0.0
C76 C 0.6407 0.44757 0.83186 0.0
C77 C 0.60482 0.49129 0.83201 0.0
C78 C 0.62039 0.48025 0.7948 0.0
N79 N 0.65051 0.4407 0.80843 0.0
O80 O 0.58414 0.59626 0.7713 0.0
H81 H 0.59107 0.50799 0.84849 0.0
H82 H 0.6203 0.48702 0.77507 0.0
O83 O 0.50254 0.52805 0.77876 0.0
C84 C 0.62506 0.6206 0.77814 0.0
O85 O 0.63787 0.62829 0.80191 0.0
N86 N 0.51772 0.56891 0.82718 0.0
C87 C 0.49441 0.55432 0.87527 0.0
C88 C 0.47464 0.51505 0.85639 0.0
C89 C 0.48683 0.52305 0.83233 0.0
C90 C 0.5341 0.61029 0.84478 0.0
C91 C 0.52317 0.60373 0.86895 0.0
H92 H 0.47329 0.49049 0.81848 0.0
H93 H 0.55881 0.64605 0.84034 0.0
H94 H 0.43688 0.61671 0.78696 0.0
H95 H 0.49182 0.79643 0.78226 0.0
H96 H 0.65859 0.42327 0.84784 0.0
H97 H 0.45142 0.47709 0.86031 0.0
H98 H 0.5399 0.63482 0.8828 0.0
C99 C 0.52209 0.68622 0.17969 0.0
C100 C 0.55868 0.72835 0.18457 0.0
N101 N 0.59945 0.69764 0.19334 0.0
N102 N 0.53949 0.62913 0.1854 0.0
C103 C 0.58677 0.63745 0.19354 0.0
H104 H 0.4849 0.69653 0.17271 0.0
Co105 Co 0.50183 0.55844 0.182 0.0
C106 C 0.56664 0.45226 0.19987 0.0
O107 O 0.54013 0.41395 0.18565 0.0
N108 N 0.46121 0.48676 0.17803 0.0
C109 C 0.4173 0.40843 0.16138 0.0
C110 C 0.4502 0.45311 0.15728 0.0
C111 C 0.4341 0.46047 0.19452 0.0
N112 N 0.40683 0.41314 0.18477 0.0
O113 O 0.47716 0.57832 0.21235 0.0
H114 H 0.46468 0.45964 0.13991 0.0
H115 H 0.43398 0.47583 0.21335 0.0
O116 O 0.55517 0.50959 0.19982 0.0
C117 C 0.43564 0.60393 0.20791 0.0
O118 O 0.41481 0.60627 0.18501 0.0
N119 N 0.52304 0.5464 0.15131 0.0
C120 C 0.53458 0.53659 0.10157 0.0
C121 C 0.57018 0.51291 0.1196 0.0
C122 C 0.56381 0.5186 0.14468 0.0
C123 C 0.49052 0.57406 0.13402 0.0
C124 C 0.49511 0.56882 0.10903 0.0
H125 H 0.59135 0.50054 0.15845 0.0
H126 H 0.45948 0.59791 0.13981 0.0
H127 H 0.61153 0.60016 0.19935 0.0
H128 H 0.55504 0.77792 0.18249 0.0
H129 H 0.40108 0.37632 0.1478 0.0
H130 H 0.60178 0.48914 0.11435 0.0
H131 H 0.46768 0.5892 0.0956 0.0
C132 C 0.05256 0.99508 0.42561 0.0
C133 C 0.02705 1.04142 0.41123 0.0
C134 C 0.05785 0.99792 0.45137 0.0
C135 C 0.03714 0.04699 0.4634 0.0
C136 C 0.0101 0.09202 0.44898 0.0
C137 C 1.00502 0.08929 0.42318 0.0
C138 C 0.04491 0.05509 0.49066 0.0
C139 C 0.0637 1.01156 0.5069 0.0
C140 C 0.07066 1.02232 0.53393 0.0
C141 C 0.06585 0.97275 0.55021 0.0
C142 C 0.06769 0.98266 0.57563 0.0
C143 C 0.07491 1.04234 0.58521 0.0
H144 H 0.08736 0.11993 0.53175 0.0
C145 C 0.08325 0.09108 0.56906 0.0
C146 C 0.08126 0.0812 0.54368 0.0
H147 H 0.08999 0.13729 0.576 0.0
H148 H 0.06954 0.95721 0.41691 0.0
H149 H 0.07954 0.96253 0.46149 0.0
H150 H 0.99379 0.13042 0.45769 0.0
H151 H 0.9856 0.12608 0.41263 0.0
H152 H 0.03361 0.09901 0.49768 0.0
H153 H 0.07133 0.9655 0.50071 0.0
H154 H 0.05843 0.92677 0.54316 0.0
H155 H 0.06086 0.94422 0.58758 0.0
C156 C 0.49715 0.50319 0.06026 0.0
C157 C 0.53713 0.52787 0.07491 0.0
C158 C 0.49544 0.5033 0.03458 0.0
C159 C 0.53376 0.52836 0.02302 0.0
C160 C 0.57453 0.551 0.03777 0.0
C161 C 0.57644 0.55025 0.06357 0.0
C162 C 0.52993 0.53719 -0.00417 0.0
C163 C 0.502 0.50206 0.97976 0.0
C164 C 0.49596 0.51572 0.95292 0.0
C165 C 0.49417 0.46718 0.93603 0.0
C166 C 0.4916 0.47953 0.91066 0.0
C167 C 0.48966 0.54079 0.90172 0.0
H168 H 0.49103 0.61504 0.95665 0.0
C169 C 0.48812 0.58913 0.91869 0.0
C170 C 0.49158 0.57677 0.94403 0.0
H171 H 0.48526 0.63675 0.91246 0.0
H172 H 0.46636 0.48584 0.0687 0.0
H173 H 0.46293 0.48676 0.02391 0.0
H174 H 0.60436 0.57091 0.02928 0.0
H175 H 0.60739 0.57004 0.07455 0.0
H176 H 0.55091 0.57425 0.98879 0.0
H177 H 0.48475 0.46101 0.98616 0.0
H178 H 0.49681 0.41973 0.94251 0.0
H179 H 0.49336 0.44109 0.89822 0.0
C180 C 0.12628 0.20583 0.2539 0.0
C181 C 0.1209 0.14164 0.2523 0.0
C182 C 0.15898 0.23641 0.24053 0.0
C183 C 0.18793 0.20312 0.22563 0.0
C184 C 0.17966 0.13946 0.22247 0.0
C185 C 0.14644 0.10875 0.23583 0.0
C186 C 0.22797 0.23335 0.21406 0.0
C187 C 0.25273 0.28177 0.22457 0.0
C188 C 0.29368 0.31346 0.2143 0.0
C189 C 0.30768 0.37197 0.22344 0.0
C190 C 0.34551 0.40409 0.21428 0.0
C191 C 0.37051 0.37828 0.1958 0.0
H192 H 0.31143 0.24114 0.1893 0.0
C193 C 0.35751 0.31893 0.18718 0.0
C194 C 0.31965 0.28684 0.1963 0.0
H195 H 0.37668 0.29708 0.17333 0.0
H196 H 0.10679 0.23208 0.2665 0.0
H197 H 0.16248 0.28586 0.24255 0.0
H198 H 0.20091 0.11286 0.21079 0.0
H199 H 0.14336 0.05903 0.23463 0.0
H200 H 0.23814 0.2134 0.19718 0.0
H201 H 0.24259 0.29986 0.24181 0.0
H202 H 0.2887 0.39354 0.23746 0.0
H203 H 0.35416 0.44983 0.22119 0.0
C204 C 0.88515 0.27882 0.28851 0.0
C205 C 0.9093 0.234 0.27581 0.0
C206 C 0.84182 0.30592 0.27769 0.0
C207 C 0.82177 0.28916 0.25376 0.0
C208 C 0.84632 0.24489 0.24105 0.0
C209 C 0.88944 0.21774 0.25187 0.0
C210 C 0.77449 0.31386 0.24171 0.0
C211 C 0.75087 0.36355 0.24941 0.0
C212 C 0.70295 0.38536 0.23706 0.0
C213 C 0.68909 0.44743 0.23924 0.0
C214 C 0.64457 0.46934 0.22758 0.0
C215 C 0.61273 0.42946 0.21359 0.0
H216 H 0.6784 0.29649 0.22238 0.0
C217 C 0.62599 0.36698 0.21209 0.0
C218 C 0.6703 0.34514 0.22373 0.0
H219 H 0.60221 0.3346 0.20177 0.0
H220 H 0.89895 0.29177 0.30712 0.0
H221 H 0.82384 0.33862 0.2885 0.0
H222 H 0.83191 0.23082 0.22263 0.0
H223 H 0.90727 0.18405 0.2414 0.0
H224 H 0.75906 0.29026 0.22518 0.0
H225 H 0.7676 0.39088 0.2646 0.0
H226 H 0.71309 0.47933 0.24971 0.0
H227 H 0.63538 0.51756 0.2294 0.0
C228 C 0.65862 0.78316 0.1943 0.0
C229 C 0.64561 0.72426 0.20236 0.0
C230 C 0.70151 0.81113 0.20453 0.0
C231 C 0.73259 0.7806 0.22303 0.0
C232 C 0.72021 0.72109 0.23052 0.0
C233 C 0.67743 0.69318 0.22031 0.0
C234 C 0.77571 0.81058 0.23662 0.0
C235 C 0.79665 0.86292 0.22949 0.0
C236 C 0.83607 0.8938 0.24565 0.0
C237 C 0.8715 0.92845 0.23526 0.0
C238 C 0.90901 0.95702 0.25047 0.0
C239 C 0.91133 0.95183 0.27635 0.0
H240 H 0.80994 0.86692 0.28031 0.0
C241 C 0.87479 0.91898 0.2866 0.0
C242 C 0.83768 0.89067 0.27153 0.0
H243 H 0.87469 0.91484 0.30644 0.0
H244 H 0.63532 0.80816 0.1803 0.0
H245 H 0.70906 0.85731 0.19842 0.0
H246 H 0.74317 0.6965 0.24484 0.0
H247 H 0.66855 0.64818 0.22721 0.0
H248 H 0.79078 0.7881 0.25373 0.0
H249 H 0.78549 0.88339 0.21147 0.0
H250 H 0.87061 0.93255 0.21536 0.0
H251 H 0.93637 0.98238 0.24199 0.0
C252 C 0.20779 0.89215 0.27678 0.0
C253 C 0.18046 0.87479 0.29591 0.0
C254 C 0.2467 0.8552 0.27116 0.0
C255 C 0.25871 0.80028 0.28458 0.0
C256 C 0.23308 0.78502 0.30446 0.0
C257 C 0.19492 0.8221 0.31026 0.0
C258 C 0.29291 0.75388 0.27648 0.0
C259 C 0.33192 0.76789 0.26506 0.0
C260 C 0.36041 0.71948 0.25388 0.0
C261 C 0.41045 0.72673 0.2532 0.0
C262 C 0.43646 0.6851 0.24008 0.0
C263 C 0.41239 0.63676 0.22694 0.0
H264 H 0.2984 0.66269 0.24141 0.0
C265 C 0.36279 0.62838 0.22824 0.0
C266 C 0.3371 0.6689 0.24177 0.0
H267 H 0.34341 0.59206 0.21782 0.0
H268 H 0.19757 0.93229 0.26535 0.0
H269 H 0.26533 0.86773 0.25543 0.0
H270 H 0.2417 0.74316 0.31515 0.0
H271 H 0.17576 0.80823 0.32561 0.0
H272 H 0.28517 0.70565 0.27996 0.0
H273 H 0.34287 0.81569 0.26353 0.0
H274 H 0.42911 0.76561 0.26219 0.0
H275 H 0.47452 0.69326 0.23877 0.0
C276 C 0.38875 0.79908 0.7851 0.0
C277 C 0.39933 0.73902 0.77767 0.0
C278 C 0.34247 0.82459 0.77939 0.0
C279 C 0.30555 0.79078 0.76578 0.0
C280 C 0.31592 0.73003 0.75898 0.0
C281 C 0.36217 0.70437 0.76488 0.0
C282 C 0.2561 0.81659 0.758 0.0
C283 C 0.24334 0.8766 0.75977 0.0
C284 C 0.19482 0.90203 0.74995 0.0
C285 C 0.18999 0.96569 0.74487 0.0
C286 C 0.14606 0.99069 0.73387 0.0
C287 C 0.10598 0.95243 0.72765 0.0
H288 H 0.15479 0.81594 0.74983 0.0
C289 C 0.10999 0.88944 0.73405 0.0
C290 C 0.15367 0.86458 0.7452 0.0
H291 H 0.07951 0.8588 0.72999 0.0
H292 H 0.41631 0.82644 0.79549 0.0
H293 H 0.33631 0.87067 0.78579 0.0
H294 H 0.28832 0.70248 0.74866 0.0
H295 H 0.36919 0.65807 0.75883 0.0
H296 H 0.22991 0.78462 0.74911 0.0
H297 H 0.27004 0.90982 0.76713 0.0
H298 H 0.22074 0.996 0.7487 0.0
H299 H 0.14415 1.03948 0.72947 0.0
C300 C 0.17196 0.29967 0.69927 0.0
C301 C 0.15976 0.24054 0.7073 0.0
C302 C 0.21817 0.32369 0.70586 0.0
C303 C 0.25332 0.28933 0.72099 0.0
C304 C 0.24143 0.22946 0.7284 0.0
C305 C 0.19528 0.20529 0.72163 0.0
C306 C 0.30255 0.31362 0.72952 0.0
C307 C 0.31527 0.37364 0.72827 0.0
C308 C 0.3636 0.39791 0.73843 0.0
C309 C 0.36835 0.46142 0.74318 0.0
C310 C 0.41225 0.48568 0.75398 0.0
C311 C 0.45249 0.44687 0.76033 0.0
H312 H 0.40366 0.31109 0.73932 0.0
C313 C 0.44844 0.38387 0.75454 0.0
C314 C 0.40473 0.35971 0.74358 0.0
H315 H 0.47896 0.35276 0.75876 0.0
H316 H 0.14578 0.32741 0.68771 0.0
H317 H 0.22581 0.36898 0.69888 0.0
H318 H 0.26771 0.20152 0.73986 0.0
H319 H 0.187 0.15968 0.72818 0.0
H320 H 0.32839 0.28055 0.73848 0.0
H321 H 0.28855 0.40764 0.72096 0.0
H322 H 0.33761 0.49227 0.73908 0.0
H323 H 0.41414 0.53449 0.75796 0.0
C324 C 0.90989 0.17257 0.74434 0.0
C325 C 0.89665 0.15077 0.72033 0.0
C326 C 0.87506 0.20003 0.75758 0.0
C327 C 0.82645 0.20534 0.747 0.0
C328 C 0.81313 0.1799 0.72366 0.0
C329 C 0.84782 0.1535 0.71039 0.0
C330 C 0.78851 0.2387 0.75889 0.0
C331 C 0.79773 0.28451 0.77526 0.0
C332 C 0.75868 0.32338 0.78371 0.0
C333 C 0.76556 0.34964 0.80729 0.0
C334 C 0.72998 0.38775 0.81545 0.0
C335 C 0.68709 0.40133 0.8 0.0
H336 H 0.71 0.31978 0.74952 0.0
C337 C 0.68056 0.37599 0.77623 0.0
C338 C 0.71591 0.3374 0.76815 0.0
H339 H 0.6479 0.38561 0.76395 0.0
H340 H 0.94733 0.17069 0.75243 0.0
H341 H 0.88647 0.21745 0.77586 0.0
H342 H 0.77596 0.18261 0.71517 0.0
H343 H 0.83645 0.13628 0.69203 0.0
H344 H 0.7511 0.22811 0.75236 0.0
H345 H 0.83477 0.29521 0.78238 0.0
H346 H 0.79848 0.34043 0.81947 0.0
H347 H 0.73643 0.40744 0.83372 0.0
C348 C 0.70704 0.6484 0.76813 0.0
C349 C 0.65737 0.6431 0.76037 0.0
C350 C 0.7375 0.67823 0.75329 0.0
C351 C 0.71877 0.70477 0.73049 0.0
C352 C 0.66969 0.69562 0.72191 0.0
C353 C 0.63911 0.66496 0.73675 0.0
C354 C 0.74941 0.74368 0.71589 0.0
C355 C 0.7861 0.77773 0.72695 0.0
C356 C 0.81804 0.81903 0.7141 0.0
C357 C 0.85926 0.84292 0.72805 0.0
C358 C 0.89006 0.88327 0.71741 0.0
C359 C 0.88039 0.90119 0.69247 0.0
H360 H 0.77669 0.82037 0.67763 0.0
C361 C 0.83929 0.87717 0.67837 0.0
C362 C 0.80835 0.8366 0.68904 0.0
H363 H 0.83045 0.89063 0.65919 0.0
H364 H 0.72228 0.63068 0.78604 0.0
H365 H 0.77557 0.68133 0.76 0.0
H366 H 0.65452 0.71461 0.70421 0.0
H367 H 0.60092 0.66124 0.73032 0.0
H368 H 0.73992 0.74604 0.69603 0.0
H369 H 0.79327 0.77612 0.74699 0.0
H370 H 0.86783 0.83026 0.74736 0.0
H371 H 0.92176 0.89988 0.72873 0.0
loop_
_geom_bond_atom_site_label_1
_geom_bond_atom_site_label_2
_geom_bond_distance
_geom_bond_site_symmetry_2
_ccdc_geom_bond_type
C0 C1 1.351 . S
C0 N3 1.368 . S
C0 H5 0.931 1_655 S
C1 C0 1.351 . S
C1 N2 1.373 . S
C1 H29 0.930 . S
N2 C1 1.373 . S
N2 C4 1.340 . S
N3 C0 1.368 . S
N3 C4 1.321 . S
N3 Co6 2.135 1_655 S
C4 N2 1.340 . S
C4 N3 1.321 . S
C4 H28 0.930 . S
H5 C0 0.931 1_455 S
Co6 N3 2.135 1_455 S
Co6 N9 2.121 1_545 S
Co6 O14 2.055 . S
Co6 O17 2.039 1_445 S
Co6 N20 2.140 . S
C7 O8 1.227 . S
C7 O17 1.265 . S
O8 C7 1.227 . S
N9 Co6 2.121 1_565 S
N9 C11 1.375 . S
N9 C12 1.313 . S
C10 C11 1.338 . S
C10 N13 1.377 . S
C10 H30 0.930 . S
C11 N9 1.375 . S
C11 C10 1.338 . S
C11 H15 0.931 . S
C12 N9 1.313 . S
C12 N13 1.344 . S
C12 H16 0.930 . S
N13 C10 1.377 . S
N13 C12 1.344 . S
O14 Co6 2.055 . S
O14 C18 1.253 . S
H15 C11 0.931 . S
H16 C12 0.930 . S
O17 Co6 2.039 1_665 S
O17 C7 1.265 . S
C18 O14 1.253 . S
C18 O19 1.227 . S
O19 C18 1.227 . S
N20 Co6 2.140 . S
N20 C23 1.346 1_455 S
N20 C24 1.345 1_545 S
C21 C22 1.387 1_465 S
C21 C25 1.391 . S
C22 C21 1.387 1_645 S
C22 C23 1.369 . S
C22 H31 0.929 . S
C23 N20 1.346 1_655 S
C23 C22 1.369 . S
C23 H26 0.928 . S
C24 N20 1.345 1_565 S
C24 C25 1.371 . S
C24 H27 0.931 . S
C25 C21 1.391 . S
C25 C24 1.371 . S
C25 H32 0.930 . S
H26 C23 0.928 . S
H27 C24 0.931 . S
H28 C4 0.930 . S
H29 C1 0.930 . S
H30 C10 0.930 . S
H31 C22 0.929 . S
H32 C25 0.930 . S
C33 C34 1.351 . S
C33 N36 1.368 . S
C33 H38 0.931 . S
C34 C33 1.351 . S
C34 N35 1.373 . S
C34 H62 0.930 . S
N35 C34 1.373 . S
N35 C37 1.340 . S
N36 C33 1.368 . S
N36 C37 1.321 . S
N36 Co39 2.135 . S
C37 N35 1.340 . S
C37 N36 1.321 . S
C37 H61 0.930 . S
H38 C33 0.931 . S
Co39 N36 2.135 . S
Co39 N42 2.121 1_445 S
Co39 O47 2.055 1_455 S
Co39 O50 2.039 1_545 S
Co39 N53 2.140 . S
C40 O41 1.227 . S
C40 O50 1.265 . S
O41 C40 1.227 . S
N42 Co39 2.121 1_665 S
N42 C44 1.375 . S
N42 C45 1.313 . S
C43 C44 1.338 . S
C43 N46 1.377 . S
C43 H63 0.930 . S
C44 N42 1.375 . S
C44 C43 1.338 . S
C44 H48 0.931 1_655 S
C45 N42 1.313 . S
C45 N46 1.344 . S
C45 H49 0.930 . S
N46 C43 1.377 . S
N46 C45 1.344 . S
O47 Co39 2.055 1_655 S
O47 C51 1.253 . S
H48 C44 0.931 1_455 S
H49 C45 0.930 . S
O50 Co39 2.039 1_565 S
O50 C40 1.265 . S
C51 O47 1.253 . S
C51 O52 1.227 . S
O52 C51 1.227 . S
N53 Co39 2.140 . S
N53 C56 1.346 . S
N53 C57 1.345 1_445 S
C54 C55 1.387 1_565 S
C54 C58 1.391 1_455 S
C55 C54 1.387 1_545 S
C55 C56 1.369 . S
C55 H64 0.929 . S
C56 N53 1.346 . S
C56 C55 1.369 . S
C56 H59 0.928 . S
C57 N53 1.345 1_665 S
C57 C58 1.371 . S
C57 H60 0.931 . S
C58 C54 1.391 1_655 S
C58 C57 1.371 . S
C58 H65 0.930 . S
H59 C56 0.928 . S
H60 C57 0.931 . S
H61 C37 0.930 . S
H62 C34 0.930 . S
H63 C43 0.930 . S
H64 C55 0.929 . S
H65 C58 0.930 . S
C66 C67 1.351 . S
C66 N69 1.368 . S
C66 H71 0.931 . S
C67 C66 1.351 . S
C67 N68 1.373 . S
C67 H95 0.930 . S
N68 C67 1.373 . S
N68 C70 1.340 . S
N69 C66 1.368 . S
N69 C70 1.321 . S
N69 Co72 2.135 . S
C70 N68 1.340 . S
C70 N69 1.321 . S
C70 H94 0.930 . S
H71 C66 0.931 . S
Co72 N69 2.135 . S
Co72 N75 2.121 . S
Co72 O80 2.055 . S
Co72 O83 2.039 . S
Co72 N86 2.140 . S
C73 O74 1.227 . S
C73 O83 1.265 . S
O74 C73 1.227 . S
N75 Co72 2.121 . S
N75 C77 1.375 . S
N75 C78 1.313 . S
C76 C77 1.338 . S
C76 N79 1.377 . S
C76 H96 0.930 . S
C77 N75 1.375 . S
C77 C76 1.338 . S
C77 H81 0.931 . S
C78 N75 1.313 . S
C78 N79 1.344 . S
C78 H82 0.930 . S
N79 C76 1.377 . S
N79 C78 1.344 . S
O80 Co72 2.055 . S
O80 C84 1.253 . S
H81 C77 0.931 . S
H82 C78 0.930 . S
O83 Co72 2.039 . S
O83 C73 1.265 . S
C84 O80 1.253 . S
C84 O85 1.227 . S
O85 C84 1.227 . S
N86 Co72 2.140 . S
N86 C89 1.346 . S
N86 C90 1.345 . S
C87 C88 1.387 . S
C87 C91 1.391 . S
C88 C87 1.387 . S
C88 C89 1.369 . S
C88 H97 0.929 . S
C89 N86 1.346 . S
C89 C88 1.369 . S
C89 H92 0.928 . S
C90 N86 1.345 . S
C90 C91 1.371 . S
C90 H93 0.931 . S
C91 C87 1.391 . S
C91 C90 1.371 . S
C91 H98 0.930 . S
H92 C89 0.928 . S
H93 C90 0.931 . S
H94 C70 0.930 . S
H95 C67 0.930 . S
H96 C76 0.930 . S
H97 C88 0.929 . S
H98 C91 0.930 . S
C99 C100 1.351 . S
C99 N102 1.368 . S
C99 H104 0.931 . S
C100 C99 1.351 . S
C100 N101 1.373 . S
C100 H128 0.930 . S
N101 C100 1.373 . S
N101 C103 1.340 . S
N102 C99 1.368 . S
N102 C103 1.321 . S
N102 Co105 2.135 . S
C103 N101 1.340 . S
C103 N102 1.321 . S
C103 H127 0.930 . S
H104 C99 0.931 . S
Co105 N102 2.135 . S
Co105 N108 2.121 . S
Co105 O113 2.055 . S
Co105 O116 2.039 . S
Co105 N119 2.140 . S
C106 O107 1.227 . S
C106 O116 1.265 . S
O107 C106 1.227 . S
N108 Co105 2.121 . S
N108 C110 1.375 . S
N108 C111 1.313 . S
C109 C110 1.338 . S
C109 N112 1.377 . S
C109 H129 0.930 . S
C110 N108 1.375 . S
C110 C109 1.338 . S
C110 H114 0.931 . S
C111 N108 1.313 . S
C111 N112 1.344 . S
C111 H115 0.930 . S
N112 C109 1.377 . S
N112 C111 1.344 . S
O113 Co105 2.055 . S
O113 C117 1.253 . S
H114 C110 0.931 . S
H115 C111 0.930 . S
O116 Co105 2.039 . S
O116 C106 1.265 . S
C117 O113 1.253 . S
C117 O118 1.227 . S
O118 C117 1.227 . S
N119 Co105 2.140 . S
N119 C122 1.346 . S
N119 C123 1.345 . S
C120 C121 1.387 . S
C120 C124 1.391 . S
C121 C120 1.387 . S
C121 C122 1.369 . S
C121 H130 0.929 . S
C122 N119 1.346 . S
C122 C121 1.369 . S
C122 H125 0.928 . S
C123 N119 1.345 . S
C123 C124 1.371 . S
C123 H126 0.931 . S
C124 C120 1.391 . S
C124 C123 1.371 . S
C124 H131 0.930 . S
H125 C122 0.928 . S
H126 C123 0.931 . S
H127 C103 0.930 . S
H128 C100 0.930 . S
H129 C109 0.930 . S
H130 C121 0.929 . S
H131 C124 0.930 . S
C132 C133 1.386 1_565 S
C132 C134 1.383 . S
C132 H148 0.951 . S
C133 C132 1.386 1_545 S
C133 C137 1.383 1_455 S
C134 C132 1.383 . S
C134 C135 1.402 1_565 S
C134 H149 0.951 . S
C135 C134 1.402 1_545 S
C135 C136 1.375 1_455 S
C135 C138 1.481 . S
C136 C135 1.375 1_655 S
C136 C137 1.367 . S
C136 H150 0.951 . S
C137 C133 1.383 1_655 S
C137 C136 1.367 . S
C137 H151 0.950 . S
C138 C135 1.481 . S
C138 C139 1.297 . S
C138 H152 0.950 1_455 S
C139 C138 1.297 . S
C139 C140 1.479 . S
C139 H153 0.950 1_545 S
C140 C139 1.479 . S
C140 C141 1.375 1_545 S
C140 C146 1.404 . S
C141 C140 1.375 1_565 S
C141 C142 1.369 . S
C141 H154 0.950 . S
C142 C141 1.369 . S
C142 C143 1.392 1_565 S
C142 H155 0.951 . S
C143 C142 1.392 1_545 S
C143 C145 1.384 1_455 S
H144 C146 0.949 1_655 S
C145 C143 1.384 1_655 S
C145 C146 1.385 1_655 S
C145 H147 0.950 . S
C146 C140 1.404 . S
C146 H144 0.949 1_455 S
C146 C145 1.385 1_455 S
H147 C145 0.950 . S
H148 C132 0.951 . S
H149 C134 0.951 . S
H150 C136 0.951 . S
H151 C137 0.950 . S
H152 C138 0.950 1_655 S
H153 C139 0.950 1_565 S
H154 C141 0.950 . S
H155 C142 0.951 . S
C156 C157 1.386 . S
C156 C158 1.383 . S
C156 H172 0.951 . S
C157 C156 1.386 . S
C157 C161 1.383 . S
C158 C156 1.383 . S
C158 C159 1.402 . S
C158 H173 0.951 . S
C159 C158 1.402 . S
C159 C160 1.375 . S
C159 C162 1.481 . S
C160 C159 1.375 . S
C160 C161 1.367 . S
C160 H174 0.951 . S
C161 C157 1.383 . S
C161 C160 1.367 . S
C161 H175 0.950 . S
C162 C159 1.481 . S
C162 C163 1.297 1_554 S
C162 H176 0.950 . S
C163 C162 1.297 1_556 S
C163 C164 1.479 . S
C163 H177 0.950 . S
C164 C163 1.479 . S
C164 C165 1.375 . S
C164 C170 1.404 . S
C165 C164 1.375 . S
C165 C166 1.369 . S
C165 H178 0.950 . S
C166 C165 1.369 . S
C166 C167 1.392 . S
C166 H179 0.951 . S
C167 C166 1.392 . S
C167 C169 1.384 . S
H168 C170 0.949 . S
C169 C167 1.384 . S
C169 C170 1.385 . S
C169 H171 0.950 . S
C170 C164 1.404 . S
C170 H168 0.949 . S
C170 C169 1.385 . S
H171 C169 0.950 . S
H172 C156 0.951 . S
H173 C158 0.951 . S
H174 C160 0.951 . S
H175 C161 0.950 . S
H176 C162 0.950 . S
H177 C163 0.950 . S
H178 C165 0.950 . S
H179 C166 0.951 . S
C180 C181 1.386 . S
C180 C182 1.383 . S
C180 H196 0.951 . S
C181 C180 1.386 . S
C181 C185 1.383 . S
C182 C180 1.383 . S
C182 C183 1.402 . S
C182 H197 0.951 . S
C183 C182 1.402 . S
C183 C184 1.375 . S
C183 C186 1.481 . S
C184 C183 1.375 . S
C184 C185 1.367 . S
C184 H198 0.951 . S
C185 C181 1.383 . S
C185 C184 1.367 . S
C185 H199 0.950 . S
C186 C183 1.481 . S
C186 C187 1.297 . S
C186 H200 0.950 . S
C187 C186 1.297 . S
C187 C188 1.479 . S
C187 H201 0.950 . S
C188 C187 1.479 . S
C188 C189 1.375 . S
C188 C194 1.404 . S
C189 C188 1.375 . S
C189 C190 1.369 . S
C189 H202 0.950 . S
C190 C189 1.369 . S
C190 C191 1.392 . S
C190 H203 0.951 . S
C191 C190 1.392 . S
C191 C193 1.384 . S
H192 C194 0.949 . S
C193 C191 1.384 . S
C193 C194 1.385 . S
C193 H195 0.950 . S
C194 C188 1.404 . S
C194 H192 0.949 . S
C194 C193 1.385 . S
H195 C193 0.950 . S
H196 C180 0.951 . S
H197 C182 0.951 . S
H198 C184 0.951 . S
H199 C185 0.950 . S
H200 C186 0.950 . S
H201 C187 0.950 . S
H202 C189 0.950 . S
H203 C190 0.951 . S
C204 C205 1.386 . S
C204 C206 1.383 . S
C204 H220 0.951 . S
C205 C204 1.386 . S
C205 C209 1.383 . S
C206 C204 1.383 . S
C206 C207 1.402 . S
C206 H221 0.951 . S
C207 C206 1.402 . S
C207 C208 1.375 . S
C207 C210 1.481 . S
C208 C207 1.375 . S
C208 C209 1.367 . S
C208 H222 0.951 . S
C209 C205 1.383 . S
C209 C208 1.367 . S
C209 H223 0.950 . S
C210 C207 1.481 . S
C210 C211 1.297 . S
C210 H224 0.950 . S
C211 C210 1.297 . S
C211 C212 1.479 . S
C211 H225 0.950 . S
C212 C211 1.479 . S
C212 C213 1.375 . S
C212 C218 1.404 . S
C213 C212 1.375 . S
C213 C214 1.369 . S
C213 H226 0.950 . S
C214 C213 1.369 . S
C214 C215 1.392 . S
C214 H227 0.951 . S
C215 C214 1.392 . S
C215 C217 1.384 . S
H216 C218 0.949 . S
C217 C215 1.384 . S
C217 C218 1.385 . S
C217 H219 0.950 . S
C218 C212 1.404 . S
C218 H216 0.949 . S
C218 C217 1.385 . S
H219 C217 0.950 . S
H220 C204 0.951 . S
H221 C206 0.951 . S
H222 C208 0.951 . S
H223 C209 0.950 . S
H224 C210 0.950 . S
H225 C211 0.950 . S
H226 C213 0.950 . S
H227 C214 0.951 . S
C228 C229 1.386 . S
C228 C230 1.383 . S
C228 H244 0.951 . S
C229 C228 1.386 . S
C229 C233 1.383 . S
C230 C228 1.383 . S
C230 C231 1.402 . S
C230 H245 0.951 . S
C231 C230 1.402 . S
C231 C232 1.375 . S
C231 C234 1.481 . S
C232 C231 1.375 . S
C232 C233 1.367 . S
C232 H246 0.951 . S
C233 C229 1.383 . S
C233 C232 1.367 . S
C233 H247 0.950 . S
C234 C231 1.481 . S
C234 C235 1.297 . S
C234 H248 0.950 . S
C235 C234 1.297 . S
C235 C236 1.479 . S
C235 H249 0.950 . S
C236 C235 1.479 . S
C236 C237 1.375 . S
C236 C242 1.404 . S
C237 C236 1.375 . S
C237 C238 1.369 . S
C237 H250 0.950 . S
C238 C237 1.369 . S
C238 C239 1.392 . S
C238 H251 0.951 . S
C239 C238 1.392 . S
C239 C241 1.384 . S
H240 C242 0.949 . S
C241 C239 1.384 . S
C241 C242 1.385 . S
C241 H243 0.950 . S
C242 C236 1.404 . S
C242 H240 0.949 . S
C242 C241 1.385 . S
H243 C241 0.950 . S
H244 C228 0.951 . S
H245 C230 0.951 . S
H246 C232 0.951 . S
H247 C233 0.950 . S
H248 C234 0.950 . S
H249 C235 0.950 . S
H250 C237 0.950 . S
H251 C238 0.951 . S
C252 C253 1.386 . S
C252 C254 1.383 . S
C252 H268 0.951 . S
C253 C252 1.386 . S
C253 C257 1.383 . S
C254 C252 1.383 . S
C254 C255 1.402 . S
C254 H269 0.951 . S
C255 C254 1.402 . S
C255 C256 1.375 . S
C255 C258 1.481 . S
C256 C255 1.375 . S
C256 C257 1.367 . S
C256 H270 0.951 . S
C257 C253 1.383 . S
C257 C256 1.367 . S
C257 H271 0.950 . S
C258 C255 1.481 . S
C258 C259 1.297 . S
C258 H272 0.950 . S
C259 C258 1.297 . S
C259 C260 1.479 . S
C259 H273 0.950 . S
C260 C259 1.479 . S
C260 C261 1.375 . S
C260 C266 1.404 . S
C261 C260 1.375 . S
C261 C262 1.369 . S
C261 H274 0.950 . S
C262 C261 1.369 . S
C262 C263 1.392 . S
C262 H275 0.951 . S
C263 C262 1.392 . S
C263 C265 1.384 . S
H264 C266 0.949 . S
C265 C263 1.384 . S
C265 C266 1.385 . S
C265 H267 0.950 . S
C266 C260 1.404 . S
C266 H264 0.949 . S
C266 C265 1.385 . S
H267 C265 0.950 . S
H268 C252 0.951 . S
H269 C254 0.951 . S
H270 C256 0.951 . S
H271 C257 0.950 . S
H272 C258 0.950 . S
H273 C259 0.950 . S
H274 C261 0.950 . S
H275 C262 0.951 . S
C276 C277 1.386 . S
C276 C278 1.383 . S
C276 H292 0.951 . S
C277 C276 1.386 . S
C277 C281 1.383 . S
C278 C276 1.383 . S
C278 C279 1.402 . S
C278 H293 0.951 . S
C279 C278 1.402 . S
C279 C280 1.375 . S
C279 C282 1.481 . S
C280 C279 1.375 . S
C280 C281 1.367 . S
C280 H294 0.951 . S
C281 C277 1.383 . S
C281 C280 1.367 . S
C281 H295 0.950 . S
C282 C279 1.481 . S
C282 C283 1.297 . S
C282 H296 0.950 . S
C283 C282 1.297 . S
C283 C284 1.479 . S
C283 H297 0.950 . S
C284 C283 1.479 . S
C284 C285 1.375 . S
C284 C290 1.404 . S
C285 C284 1.375 . S
C285 C286 1.369 . S
C285 H298 0.950 . S
C286 C285 1.369 . S
C286 C287 1.392 . S
C286 H299 0.951 . S
C287 C286 1.392 . S
C287 C289 1.384 . S
H288 C290 0.949 . S
C289 C287 1.384 . S
C289 C290 1.385 . S
C289 H291 0.950 . S
C290 C284 1.404 . S
C290 H288 0.949 . S
C290 C289 1.385 . S
H291 C289 0.950 . S
H292 C276 0.951 . S
H293 C278 0.951 . S
H294 C280 0.951 . S
H295 C281 0.950 . S
H296 C282 0.950 . S
H297 C283 0.950 . S
H298 C285 0.950 . S
H299 C286 0.951 . S
C300 C301 1.386 . S
C300 C302 1.383 . S
C300 H316 0.951 . S
C301 C300 1.386 . S
C301 C305 1.383 . S
C302 C300 1.383 . S
C302 C303 1.402 . S
C302 H317 0.951 . S
C303 C302 1.402 . S
C303 C304 1.375 . S
C303 C306 1.481 . S
C304 C303 1.375 . S
C304 C305 1.367 . S
C304 H318 0.951 . S
C305 C301 1.383 . S
C305 C304 1.367 . S
C305 H319 0.950 . S
C306 C303 1.481 . S
C306 C307 1.297 . S
C306 H320 0.950 . S
C307 C306 1.297 . S
C307 C308 1.479 . S
C307 H321 0.950 . S
C308 C307 1.479 . S
C308 C309 1.375 . S
C308 C314 1.404 . S
C309 C308 1.375 . S
C309 C310 1.369 . S
C309 H322 0.950 . S
C310 C309 1.369 . S
C310 C311 1.392 . S
C310 H323 0.951 . S
C311 C310 1.392 . S
C311 C313 1.384 . S
H312 C314 0.949 . S
C313 C311 1.384 . S
C313 C314 1.385 . S
C313 H315 0.950 . S
C314 C308 1.404 . S
C314 H312 0.949 . S
C314 C313 1.385 . S
H315 C313 0.950 . S
H316 C300 0.951 . S
H317 C302 0.951 . S
H318 C304 0.951 . S
H319 C305 0.950 . S
H320 C306 0.950 . S
H321 C307 0.950 . S
H322 C309 0.950 . S
H323 C310 0.951 . S
C324 C325 1.386 . S
C324 C326 1.383 . S
C324 H340 0.951 . S
C325 C324 1.386 . S
C325 C329 1.383 . S
C326 C324 1.383 . S
C326 C327 1.402 . S
C326 H341 0.951 . S
C327 C326 1.402 . S
C327 C328 1.375 . S
C327 C330 1.481 . S
C328 C327 1.375 . S
C328 C329 1.367 . S
C328 H342 0.951 . S
C329 C325 1.383 . S
C329 C328 1.367 . S
C329 H343 0.950 . S
C330 C327 1.481 . S
C330 C331 1.297 . S
C330 H344 0.950 . S
C331 C330 1.297 . S
C331 C332 1.479 . S
C331 H345 0.950 . S
C332 C331 1.479 . S
C332 C333 1.375 . S
C332 C338 1.404 . S
C333 C332 1.375 . S
C333 C334 1.369 . S
C333 H346 0.950 . S
C334 C333 1.369 . S
C334 C335 1.392 . S
C334 H347 0.951 . S
C335 C334 1.392 . S
C335 C337 1.384 . S
H336 C338 0.949 . S
C337 C335 1.384 . S
C337 C338 1.385 . S
C337 H339 0.950 . S
C338 C332 1.404 . S
C338 H336 0.949 . S
C338 C337 1.385 . S
H339 C337 0.950 . S
H340 C324 0.951 . S
H341 C326 0.951 . S
H342 C328 0.951 . S
H343 C329 0.950 . S
H344 C330 0.950 . S
H345 C331 0.950 . S
H346 C333 0.950 . S
H347 C334 0.951 . S
C348 C349 1.386 . S
C348 C350 1.383 . S
C348 H364 0.951 . S
C349 C348 1.386 . S
C349 C353 1.383 . S
C350 C348 1.383 . S
C350 C351 1.402 . S
C350 H365 0.951 . S
C351 C350 1.402 . S
C351 C352 1.375 . S
C351 C354 1.481 . S
C352 C351 1.375 . S
C352 C353 1.367 . S
C352 H366 0.951 . S
C353 C349 1.383 . S
C353 C352 1.367 . S
C353 H367 0.950 . S
C354 C351 1.481 . S
C354 C355 1.297 . S
C354 H368 0.950 . S
C355 C354 1.297 . S
C355 C356 1.479 . S
C355 H369 0.950 . S
C356 C355 1.479 . S
C356 C357 1.375 . S
C356 C362 1.404 . S
C357 C356 1.375 . S
C357 C358 1.369 . S
C357 H370 0.950 . S
C358 C357 1.369 . S
C358 C359 1.392 . S
C358 H371 0.951 . S
C359 C358 1.392 . S
C359 C361 1.384 . S
H360 C362 0.949 . S
C361 C359 1.384 . S
C361 C362 1.385 . S
C361 H363 0.950 . S
C362 C356 1.404 . S
C362 H360 0.949 . S
C362 C361 1.385 . S
H363 C361 0.950 . S
H364 C348 0.951 . S
H365 C350 0.951 . S
H366 C352 0.951 . S
H367 C353 0.950 . S
H368 C354 0.950 . S
H369 C355 0.950 . S
H370 C357 0.950 . S
H371 C358 0.951 . S
C133 C21 1.487 1_545 S
C143 C54 1.479 1_545 S
C157 C120 1.487 . S
C167 C87 1.479 . S
C181 C18 1.516 . S
C191 N112 1.510 . S
C205 N2 1.335 . S
C215 C106 1.391 . S
C229 N101 1.337 . S
C239 C7 1.406 . S
C253 N13 1.505 . S
C263 C117 1.521 . S
C277 N68 1.355 . S
C287 C40 1.378 . S
C301 N35 1.335 . S
C311 C73 1.400 . S
C325 C51 1.517 . S
C335 N79 1.515 . S
C349 C84 1.532 . S
C359 N46 1.446 . S
