# Generated by pormake.
# Topology umb, (4)-cn, num edge types: 1
# Building blocks:
#     Node 0, Type 0, BuildingBlock: KUFVIS_clean_sbu_0, # of connection points: 4
#     Node 1, Type 0, BuildingBlock: KUFVIS_clean_sbu_0, # of connection points: 4
#     Node 2, Type 0, BuildingBlock: KUFVIS_clean_sbu_0, # of connection points: 4
#     Node 3, Type 0, BuildingBlock: KUFVIS_clean_sbu_0, # of connection points: 4
#     Node 4, Type 0, BuildingBlock: KUFVIS_clean_sbu_0, # of connection points: 4
#     Node 5, Type 0, BuildingBlock: KUFVIS_clean_sbu_0, # of connection points: 4
#     Node 6, Type 0, BuildingBlock: KUFVIS_clean_sbu_0, # of connection points: 4
#     Node 7, Type 0, BuildingBlock: KUFVIS_clean_sbu_0, # of connection points: 4
#     Node 8, Type 0, BuildingBlock: KUFVIS_clean_sbu_0, # of connection points: 4
#     Node 9, Type 0, BuildingBlock: KUFVIS_clean_sbu_0, # of connection points: 4
#     Node 10, Type 0, BuildingBlock: KUFVIS_clean_sbu_0, # of connection points: 4
#     Node 11, Type 0, BuildingBlock: KUFVIS_clean_sbu_0, # of connection points: 4
#     Edge 12, Type (0, 0), BuildingBlock: AJUNOK_clean_linker_0, # of connection points: 2
#     Edge 13, Type (0, 0), BuildingBlock: AJUNOK_clean_linker_0, # of connection points: 2
#     Edge 14, Type (0, 0), BuildingBlock: AJUNOK_clean_linker_0, # of connection points: 2
#     Edge 15, Type (0, 0), BuildingBlock: AJUNOK_clean_linker_0, # of connection points: 2
#     Edge 16, Type (0, 0), BuildingBlock: AJUNOK_clean_linker_0, # of connection points: 2
#     Edge 17, Type (0, 0), BuildingBlock: AJUNOK_clean_linker_0, # of connection points: 2
#     Edge 18, Type (0, 0), BuildingBlock: AJUNOK_clean_linker_0, # of connection points: 2
#     Edge 19, Type (0, 0), BuildingBlock: AJUNOK_clean_linker_0, # of connection points: 2
#     Edge 20, Type (0, 0), BuildingBlock: AJUNOK_clean_linker_0, # of connection points: 2
#     Edge 21, Type (0, 0), BuildingBlock: AJUNOK_clean_linker_0, # of connection points: 2
#     Edge 22, Type (0, 0), BuildingBlock: AJUNOK_clean_linker_0, # of connection points: 2
#     Edge 23, Type (0, 0), BuildingBlock: AJUNOK_clean_linker_0, # of connection points: 2
#     Edge 24, Type (0, 0), BuildingBlock: AJUNOK_clean_linker_0, # of connection points: 2
#     Edge 25, Type (0, 0), BuildingBlock: AJUNOK_clean_linker_0, # of connection points: 2
#     Edge 26, Type (0, 0), BuildingBlock: AJUNOK_clean_linker_0, # of connection points: 2
#     Edge 27, Type (0, 0), BuildingBlock: AJUNOK_clean_linker_0, # of connection points: 2
#     Edge 28, Type (0, 0), BuildingBlock: AJUNOK_clean_linker_0, # of connection points: 2
#     Edge 29, Type (0, 0), BuildingBlock: AJUNOK_clean_linker_0, # of connection points: 2
#     Edge 30, Type (0, 0), BuildingBlock: AJUNOK_clean_linker_0, # of connection points: 2
#     Edge 31, Type (0, 0), BuildingBlock: AJUNOK_clean_linker_0, # of connection points: 2
#     Edge 32, Type (0, 0), BuildingBlock: AJUNOK_clean_linker_0, # of connection points: 2
#     Edge 33, Type (0, 0), BuildingBlock: AJUNOK_clean_linker_0, # of connection points: 2
#     Edge 34, Type (0, 0), BuildingBlock: AJUNOK_clean_linker_0, # of connection points: 2
#     Edge 35, Type (0, 0), BuildingBlock: AJUNOK_clean_linker_0, # of connection points: 2
# Relax obj value: 0.248
# Max RMSD: 0.279
# Mean RMSD: 0.279
data_MOF--net-umb--node1-KUFVIS_clean_sbu_0--edge1-AJUNOK_clean_linker_0
_symmetry_space_group_name_H-M    P1
_symmetry_Int_Tables_number       1
_symmetry_cell_setting            triclinic
loop_
_symmetry_equiv_pos_as_xyz
'x, y, z'
_cell_length_a     33.740522
_cell_length_b     33.922503
_cell_length_c     28.567641
_cell_angle_alpha  89.978206
_cell_angle_beta   89.917043
_cell_angle_gamma 120.0028
loop_
_atom_site_label
_atom_site_type_symbol
_atom_site_fract_x
_atom_site_fract_y
_atom_site_fract_z
_atom_type_partial_charge
Mn0 Mn 0.51521 0.15854 0.33165 0.0
Mn1 Mn 0.58255 0.12143 0.37094 0.0
C2 C 0.58794 0.21241 0.35195 0.0
C3 C 0.48901 0.18232 0.26506 0.0
C4 C 0.50737 0.11281 0.42356 0.0
O5 O 0.48764 0.09251 0.31056 0.0
O6 O 0.54995 0.08379 0.31596 0.0
C7 C 0.64445 0.10617 0.31615 0.0
N8 N 0.64061 0.13241 0.34998 0.0
C9 C 0.70015 0.13026 0.39519 0.0
C10 C 0.70155 0.10021 0.36251 0.0
C11 C 0.6738 0.08843 0.32258 0.0
C12 C 0.66746 0.1437 0.3887 0.0
H13 H 0.6228 0.09625 0.28576 0.0
C14 C 0.51015 0.07249 0.29932 0.0
O15 O 0.46486 0.16894 0.30337 0.0
O16 O 0.52428 0.17718 0.26468 0.0
N17 N 0.61635 0.16147 0.42294 0.0
C18 C 0.60751 0.1877 0.45288 0.0
C19 C 0.6381 0.21124 0.4895 0.0
C20 C 0.67706 0.20717 0.49574 0.0
C21 C 0.68651 0.18201 0.46338 0.0
C22 C 0.6569 0.16298 0.42524 0.0
H23 H 0.57766 0.19118 0.44883 0.0
O24 O 0.55508 0.22161 0.34883 0.0
O25 O 0.57864 0.17149 0.34021 0.0
O26 O 0.49914 0.14256 0.40536 0.0
O27 O 0.52144 0.09458 0.3961 0.0
C28 C 0.72354 0.17418 0.4677 0.0
C29 C 0.72886 0.14615 0.43484 0.0
H30 H 0.7249 0.08729 0.36691 0.0
H31 H 0.67531 0.06604 0.29656 0.0
H32 H 0.63138 0.23186 0.5133 0.0
H33 H 0.69961 0.22381 0.5251 0.0
H34 H 0.74672 0.18772 0.49715 0.0
H35 H 0.75554 0.13768 0.43989 0.0
Mn36 Mn 0.33797 0.52423 0.66875 0.0
Mn37 Mn 0.43984 0.60278 0.70416 0.0
C38 C 0.34746 0.5962 0.67681 0.0
C39 C 0.29261 0.48721 0.60028 0.0
C40 C 0.37408 0.53432 0.76507 0.0
O41 O 0.38218 0.49871 0.66081 0.0
O42 O 0.44603 0.56688 0.65431 0.0
C43 C 0.50923 0.66221 0.6372 0.0
N44 N 0.48357 0.65832 0.67564 0.0
C45 C 0.54769 0.72326 0.71184 0.0
C46 C 0.57486 0.72697 0.67316 0.0
C47 C 0.55529 0.69694 0.63525 0.0
C48 C 0.50236 0.68776 0.71196 0.0
H49 H 0.49548 0.63712 0.60961 0.0
C50 C 0.42503 0.52364 0.65138 0.0
O51 O 0.28109 0.4682 0.64141 0.0
O52 O 0.33134 0.5243 0.59908 0.0
N53 N 0.43526 0.64062 0.75134 0.0
C54 C 0.39973 0.63827 0.77621 0.0
C55 C 0.40839 0.67187 0.80999 0.0
C56 C 0.45341 0.7078 0.81677 0.0
C57 C 0.48787 0.71232 0.786 0.0
C58 C 0.47562 0.67955 0.75109 0.0
H59 H 0.36517 0.61154 0.76969 0.0
O60 O 0.30765 0.55994 0.675 0.0
O61 O 0.38276 0.59039 0.67156 0.0
O62 O 0.3358 0.51944 0.74389 0.0
O63 O 0.40824 0.54652 0.73968 0.0
C64 C 0.53332 0.74855 0.78698 0.0
C65 C 0.564 0.75236 0.75114 0.0
H66 H 0.61059 0.75318 0.67185 0.0
H67 H 0.5761 0.69966 0.60522 0.0
H68 H 0.38064 0.66981 0.8309 0.0
H69 H 0.4605 0.73298 0.84364 0.0
H70 H 0.54496 0.77354 0.8148 0.0
H71 H 0.59942 0.77922 0.75298 0.0
Mn72 Mn 0.80474 0.34074 1.00366 0.0
Mn73 Mn 0.80461 0.42432 0.06183 0.0
C74 C 0.73776 0.33561 1.02528 0.0
C75 C 0.78605 0.29116 0.93586 0.0
C76 C 0.82524 0.36914 0.1067 0.0
O77 O 0.86331 0.39106 0.97775 0.0
O78 O 0.86521 0.4347 0.03746 0.0
C79 C 0.8452 0.49825 0.99235 0.0
N80 N 0.81379 0.4757 1.02667 0.0
C81 C 0.82001 0.54486 0.05504 0.0
C82 C 0.8539 0.56925 1.02134 0.0
C83 C 0.86515 0.54562 0.98857 0.0
C84 C 0.79825 0.49724 0.05432 0.0
H85 H 0.85621 0.48049 0.96924 0.0
C86 C 0.88414 0.42689 1.0024 0.0
O87 O 0.8096 0.28871 0.97065 0.0
O88 O 0.77686 0.3233 0.93926 0.0
N89 N 0.75469 0.42669 0.09137 0.0
C90 C 0.73114 0.40238 0.13008 0.0
C91 C 0.7113 0.41967 0.16092 0.0
C92 C 0.72201 0.46492 0.15675 0.0
C93 C 0.75239 0.49204 0.12174 0.0
C94 C 0.76562 0.471 0.08753 0.0
H95 H 0.73023 0.37132 0.13996 0.0
O96 O 0.74381 0.30093 1.02886 0.0
O97 O 0.77236 0.37594 1.01515 0.0
O98 O 0.83908 0.35472 0.07211 0.0
O99 O 0.79105 0.37192 0.09876 0.0
C100 C 0.77437 0.53982 0.12331 0.0
C101 C 0.8088 0.56619 0.09067 0.0
H102 H 0.87122 0.60608 1.02015 0.0
H103 H 0.89083 0.56406 0.96207 0.0
H104 H 0.69165 0.39968 0.19065 0.0
H105 H 0.71007 0.47951 0.18314 0.0
H106 H 0.7661 0.55676 0.15056 0.0
H107 H 0.82602 0.60297 0.09289 0.0
Mn108 Mn 0.43961 0.81754 0.35057 0.0
Mn109 Mn 0.3529 0.83597 0.38522 0.0
C110 C 0.3729 0.75917 0.38299 0.0
C111 C 0.46602 0.79139 0.28444 0.0
C112 C 0.44126 0.86578 0.43756 0.0
O113 O 0.45332 0.87595 0.31808 0.0
O114 O 0.38781 0.87686 0.33301 0.0
C115 C 0.28979 0.83772 0.31669 0.0
N116 N 0.29579 0.81899 0.35632 0.0
C117 C 0.2236 0.80563 0.38762 0.0
C118 C 0.21781 0.82643 0.3479 0.0
C119 C 0.25044 0.84148 0.3118 0.0
C120 C 0.26375 0.80335 0.39087 0.0
H121 H 0.31619 0.85227 0.29025 0.0
C122 C 0.42594 0.89124 0.3113 0.0
O123 O 0.49304 0.81395 0.31888 0.0
O124 O 0.42545 0.78536 0.288 0.0
N125 N 0.31755 0.79747 0.43618 0.0
C126 C 0.33053 0.78223 0.47412 0.0
C127 C 0.29884 0.75917 0.51014 0.0
C128 C 0.2549 0.7539 0.50773 0.0
C129 C 0.24264 0.77031 0.46852 0.0
C130 C 0.27451 0.78977 0.43216 0.0
H131 H 0.36479 0.78764 0.47666 0.0
O132 O 0.411 0.7584 0.38219 0.0
O133 O 0.37227 0.79312 0.36239 0.0
O134 O 0.46657 0.85236 0.41803 0.0
O135 O 0.40573 0.85375 0.41642 0.0
C136 C 0.20078 0.76967 0.46472 0.0
C137 C 0.19219 0.78918 0.4252 0.0
H138 H 0.18808 0.83049 0.34445 0.0
H139 H 0.24597 0.85733 0.28093 0.0
H140 H 0.30856 0.74662 0.54027 0.0
H141 H 0.23107 0.73769 0.53636 0.0
H142 H 0.17574 0.75586 0.49269 0.0
H143 H 0.16103 0.79092 0.42386 0.0
Mn144 Mn 0.62493 0.44393 0.66315 0.0
Mn145 Mn 0.51934 0.35649 0.69337 0.0
C146 C 0.61783 0.37622 0.68666 0.0
C147 C 0.68108 0.48047 0.60209 0.0
C148 C 0.57785 0.43268 0.75855 0.0
O149 O 0.58265 0.46522 0.63852 0.0
O150 O 0.51538 0.40466 0.65936 0.0
C151 C 0.46939 0.32177 0.60657 0.0
N152 N 0.48529 0.31294 0.64668 0.0
C153 C 0.41315 0.2445 0.66004 0.0
C154 C 0.39604 0.25319 0.61903 0.0
C155 C 0.42471 0.29128 0.59149 0.0
C156 C 0.45909 0.27419 0.67143 0.0
H157 H 0.48963 0.35355 0.58813 0.0
C158 C 0.53912 0.44379 0.64088 0.0
O159 O 0.68309 0.50142 0.64095 0.0
O160 O 0.646 0.44035 0.59809 0.0
N161 N 0.51499 0.30662 0.72842 0.0
C162 C 0.53196 0.30756 0.77178 0.0
C163 C 0.51146 0.26866 0.80025 0.0
C164 C 0.47003 0.23097 0.78624 0.0
C165 C 0.45068 0.23251 0.74337 0.0
C166 C 0.47635 0.26975 0.71366 0.0
H167 H 0.56073 0.33809 0.78445 0.0
O168 O 0.65636 0.41405 0.68809 0.0
O169 O 0.58239 0.37718 0.66889 0.0
O170 O 0.61331 0.45688 0.73283 0.0
O171 O 0.54418 0.3959 0.74534 0.0
C172 C 0.40512 0.2013 0.73144 0.0
C173 C 0.38582 0.20838 0.69084 0.0
H174 H 0.36088 0.23094 0.6085 0.0
H175 H 0.41154 0.29849 0.56011 0.0
H176 H 0.52582 0.26897 0.83421 0.0
H177 H 0.45211 0.20233 0.8098 0.0
H178 H 0.38397 0.17295 0.75434 0.0
H179 H 0.35013 0.18514 0.683 0.0
Mn180 Mn 0.15773 0.64675 1.0095 0.0
Mn181 Mn 0.13418 0.53261 0.03112 0.0
C182 C 0.21729 0.63498 1.02795 0.0
C183 C 0.1786 0.69194 0.93869 0.0
C184 C 0.13055 0.6058 0.09377 0.0
O185 O 0.09104 0.60093 0.9919 0.0
O186 O 0.09894 0.53907 0.97821 0.0
C187 C 0.07395 0.44095 0.99213 0.0
N188 N 0.10415 0.46765 1.02553 0.0
C189 C 0.09864 0.40197 0.06413 0.0
C190 C 0.06659 0.37384 1.03076 0.0
C191 C 0.05446 0.39348 0.99434 0.0
C192 C 0.11703 0.44917 0.05995 0.0
H193 H 0.06532 0.45587 0.9637 0.0
C194 C 0.07499 0.55917 0.97909 0.0
O195 O 0.16289 0.703 0.97502 0.0
O196 O 0.17662 0.65325 0.94221 0.0
N197 N 0.16543 0.5238 0.08402 0.0
C198 C 0.19828 0.55442 0.11309 0.0
C199 C 0.21862 0.54031 0.14705 0.0
C200 C 0.20243 0.49401 0.15392 0.0
C201 C 0.16687 0.46241 0.12583 0.0
C202 C 0.14994 0.47879 0.09038 0.0
H203 H 0.20961 0.58971 0.11006 0.0
O204 O 0.22376 0.67591 1.0249 0.0
O205 O 0.17506 0.6015 1.02576 0.0
O206 O 0.14015 0.64592 0.0821 0.0
O207 O 0.13496 0.58536 0.0587 0.0
C208 C 0.14795 0.41518 0.13147 0.0
C209 C 0.1135 0.38493 0.10091 0.0
H210 H 0.05164 0.33721 0.03234 0.0
H211 H 0.03029 0.37211 0.96793 0.0
H212 H 0.2461 0.56523 0.1686 0.0
H213 H 0.21739 0.48311 0.18091 0.0
H214 H 0.16002 0.40177 0.15892 0.0
H215 H 0.09965 0.34863 0.10514 0.0
Mn216 Mn 0.81037 0.45359 0.38201 0.0
Mn217 Mn 0.80461 0.35969 0.32684 0.0
C218 C 0.74721 0.37976 0.3885 0.0
C219 C 0.8008 0.48991 0.4508 0.0
C220 C 0.81953 0.43478 0.27888 0.0
O221 O 0.87651 0.47014 0.38838 0.0
O222 O 0.86739 0.40957 0.34427 0.0
C223 C 0.86829 0.32335 0.37952 0.0
N224 N 0.82585 0.31016 0.36279 0.0
C225 C 0.80495 0.23041 0.36637 0.0
C226 C 0.84802 0.2443 0.3862 0.0
C227 C 0.87903 0.29049 0.3939 0.0
C228 C 0.7897 0.26191 0.36412 0.0
H229 H 0.89408 0.35886 0.38086 0.0
C230 C 0.89173 0.44649 0.3677 0.0
O231 O 0.81151 0.51042 0.41038 0.0
O232 O 0.80141 0.45247 0.45172 0.0
N233 N 0.72888 0.30628 0.30953 0.0
C234 C 0.7147 0.30196 0.2586 0.0
C235 C 0.71194 0.26079 0.23004 0.0
C236 C 0.72009 0.22106 0.24861 0.0
C237 C 0.73353 0.21283 0.29975 0.0
C238 C 0.7414 0.24847 0.341 0.0
H239 H 0.71135 0.32857 0.2414 0.0
O240 O 0.7403 0.41367 0.3812 0.0
O241 O 0.78878 0.38902 0.38083 0.0
O242 O 0.82835 0.46716 0.30772 0.0
O243 O 0.78875 0.39692 0.29136 0.0
C244 C 0.753 0.18516 0.30338 0.0
C245 C 0.78478 0.19154 0.33815 0.0
H246 H 0.85982 0.22014 0.39093 0.0
H247 H 0.91292 0.30093 0.40708 0.0
H248 H 0.70393 0.25972 0.19325 0.0
H249 H 0.71793 0.19746 0.22188 0.0
H250 H 0.74681 0.16061 0.27607 0.0
H251 H 0.79901 0.16909 0.33776 0.0
Mn252 Mn 0.35308 0.83216 0.71995 0.0
Mn253 Mn 0.4539 0.84885 0.68189 0.0
C254 C 0.35656 0.76962 0.69261 0.0
C255 C 0.30288 0.80853 0.78772 0.0
C256 C 0.39668 0.87379 0.63267 0.0
O257 O 0.4027 0.89426 0.7473 0.0
O258 O 0.4654 0.88634 0.73846 0.0
C259 C 0.52496 0.84704 0.737 0.0
N260 N 0.4944 0.82784 0.70121 0.0
C261 C 0.54819 0.81389 0.65852 0.0
C262 C 0.58022 0.83483 0.69432 0.0
C263 C 0.56829 0.85084 0.73407 0.0
C264 C 0.50609 0.81256 0.66263 0.0
H265 H 0.51759 0.86233 0.76639 0.0
C266 C 0.44501 0.90661 0.75576 0.0
O267 O 0.29653 0.82941 0.75287 0.0
O268 O 0.33942 0.80601 0.78447 0.0
N269 N 0.4425 0.8095 0.62745 0.0
C270 C 0.40705 0.78949 0.59632 0.0
C271 C 0.40925 0.76357 0.55893 0.0
C272 C 0.44804 0.75906 0.55306 0.0
C273 C 0.48288 0.77785 0.58645 0.0
C274 C 0.47688 0.79988 0.62504 0.0
H275 H 0.37701 0.79272 0.60002 0.0
O276 O 0.31891 0.77093 0.69429 0.0
O277 O 0.39332 0.80505 0.7087 0.0
O278 O 0.35623 0.85641 0.64894 0.0
O279 O 0.4256 0.88238 0.66274 0.0
C280 C 0.52364 0.77619 0.58279 0.0
C281 C 0.55737 0.79655 0.61765 0.0
H282 H 0.6139 0.83837 0.69188 0.0
H283 H 0.59287 0.86706 0.76197 0.0
H284 H 0.38138 0.74744 0.5343 0.0
H285 H 0.45035 0.74052 0.52329 0.0
H286 H 0.53004 0.7608 0.55264 0.0
H287 H 0.58996 0.79806 0.613 0.0
Mn288 Mn 0.51993 0.3541 0.04539 0.0
Mn289 Mn 0.61051 0.45214 1.00763 0.0
C290 C 0.58364 0.35436 1.01826 0.0
C291 C 0.49465 0.30557 0.11506 0.0
C292 C 0.53356 0.391 0.94477 0.0
O293 O 0.5037 0.40006 0.07032 0.0
O294 O 0.56206 0.45948 0.0352 0.0
C295 C 0.6394 0.50278 0.09527 0.0
N296 N 0.65067 0.48708 0.05654 0.0
C297 C 0.72003 0.55845 0.04594 0.0
C298 C 0.70887 0.57568 0.08531 0.0
C299 C 0.66912 0.5472 0.11101 0.0
C300 C 0.69109 0.51266 0.0344 0.0
H301 H 0.60662 0.48249 0.11218 0.0
C302 C 0.52611 0.44213 0.05997 0.0
O303 O 0.46712 0.2973 0.08006 0.0
O304 O 0.53241 0.34252 0.11053 0.0
N305 N 0.66297 0.45468 0.9793 0.0
C306 C 0.66585 0.43574 0.93848 0.0
C307 C 0.70686 0.45615 0.91285 0.0
C308 C 0.74259 0.49904 0.92642 0.0
C309 C 0.73735 0.51977 0.96654 0.0
C310 C 0.69847 0.4944 0.99439 0.0
H311 H 0.63638 0.40691 0.92451 0.0
O312 O 0.5445 0.31764 1.02016 0.0
O313 O 0.58678 0.39137 0.03584 0.0
O314 O 0.50494 0.3623 0.97498 0.0
O315 O 0.57321 0.42291 0.95483 0.0
C316 C 0.76672 0.56594 0.97737 0.0
C317 C 0.75749 0.58553 1.01641 0.0
H318 H 0.73047 0.61075 0.09597 0.0
H319 H 0.66008 0.56029 0.14124 0.0
H320 H 0.70948 0.44069 0.88072 0.0
H321 H 0.77273 0.51671 0.90451 0.0
H322 H 0.79594 0.58699 0.95529 0.0
H323 H 0.77992 0.6213 1.02392 0.0
Mn324 Mn 0.16667 0.5139 0.3684 0.0
Mn325 Mn 0.12517 0.58166 0.34954 0.0
C326 C 0.21769 0.59043 0.37761 0.0
C327 C 0.18284 0.48052 0.43671 0.0
C328 C 0.14187 0.53276 0.27452 0.0
O329 O 0.09709 0.4742 0.3706 0.0
O330 O 0.0843 0.53121 0.38998 0.0
C331 C 0.10308 0.61748 0.43317 0.0
N332 N 0.12541 0.62521 0.39152 0.0
C333 C 0.11741 0.69093 0.37635 0.0
C334 C 0.09511 0.68414 0.41953 0.0
C335 C 0.08851 0.64766 0.44834 0.0
C336 C 0.13199 0.66048 0.36379 0.0
H337 H 0.09465 0.58741 0.45351 0.0
C338 C 0.07193 0.48906 0.3876 0.0
O339 O 0.18417 0.46666 0.39482 0.0
O340 O 0.16714 0.50754 0.43788 0.0
N341 N 0.16483 0.63308 0.31211 0.0
C342 C 0.20365 0.64459 0.28772 0.0
C343 C 0.2242 0.6852 0.26139 0.0
C344 C 0.20541 0.7141 0.26293 0.0
C345 C 0.17023 0.70459 0.29512 0.0
C346 C 0.15388 0.66513 0.32181 0.0
H347 H 0.2191 0.62346 0.2897 0.0
O348 O 0.23096 0.56149 0.36951 0.0
O349 O 0.17384 0.57437 0.37888 0.0
O350 O 0.16874 0.52115 0.29425 0.0
O351 O 0.11385 0.53762 0.29943 0.0
C352 C 0.15263 0.73359 0.30438 0.0
C353 C 0.12525 0.72616 0.34468 0.0
H354 H 0.08294 0.70669 0.4309 0.0
H355 H 0.07065 0.6418 0.48136 0.0
H356 H 0.2542 0.69414 0.24029 0.0
H357 H 0.22061 0.74508 0.24234 0.0
H358 H 0.16141 0.76258 0.28198 0.0
H359 H 0.1127 0.74925 0.3523 0.0
Mn360 Mn 0.63974 0.15354 0.69193 0.0
Mn361 Mn 0.54289 0.15838 0.69811 0.0
C362 C 0.64377 0.22377 0.6821 0.0
C363 C 0.68481 0.18351 0.77211 0.0
C364 C 0.56074 0.11492 0.61944 0.0
O365 O 0.59265 0.09573 0.72398 0.0
O366 O 0.54137 0.11612 0.74859 0.0
C367 C 0.44659 0.09155 0.71785 0.0
N368 N 0.47767 0.13191 0.69833 0.0
C369 C 0.41746 0.13647 0.65813 0.0
C370 C 0.38494 0.09755 0.68193 0.0
C371 C 0.39965 0.07464 0.71159 0.0
C372 C 0.46403 0.15379 0.66853 0.0
H373 H 0.45772 0.07104 0.73528 0.0
C374 C 0.55915 0.09005 0.75018 0.0
O375 O 0.6975 0.17075 0.73751 0.0
O376 O 0.64695 0.17866 0.76252 0.0
N377 N 0.54091 0.19542 0.64717 0.0
C378 C 0.57143 0.2154 0.61129 0.0
C379 C 0.56296 0.23864 0.57568 0.0
C380 C 0.52009 0.23498 0.57241 0.0
C381 C 0.48575 0.20623 0.60342 0.0
C382 C 0.49772 0.18798 0.64165 0.0
H383 H 0.60124 0.21193 0.60808 0.0
O384 O 0.67678 0.21869 0.66677 0.0
O385 O 0.61013 0.18798 0.69945 0.0
O386 O 0.60391 0.13159 0.62731 0.0
O387 O 0.53393 0.11205 0.65195 0.0
C388 C 0.43947 0.1906 0.5939 0.0
C389 C 0.40531 0.1556 0.62108 0.0
H390 H 0.34872 0.08321 0.67518 0.0
H391 H 0.37496 0.04274 0.7276 0.0
H392 H 0.58829 0.25704 0.54901 0.0
H393 H 0.51264 0.25048 0.54308 0.0
H394 H 0.42964 0.20343 0.564 0.0
H395 H 0.36972 0.14232 0.61191 0.0
Mn396 Mn 0.4347 0.63135 0.0573 0.0
Mn397 Mn 0.36055 0.52291 1.02606 0.0
C398 C 0.35953 0.60964 0.05443 0.0
C399 C 0.46688 0.68233 0.12439 0.0
C400 C 0.422 0.5941 0.95776 0.0
O401 O 0.46941 0.59723 0.0673 0.0
O402 O 0.40924 0.52524 0.06527 0.0
C403 C 0.31752 0.46879 0.11155 0.0
N404 N 0.31375 0.48253 0.06794 0.0
C405 C 0.237 0.41919 0.0595 0.0
C406 C 0.24043 0.4038 0.10403 0.0
C407 C 0.28059 0.42905 0.13042 0.0
C408 C 0.27503 0.4585 0.04242 0.0
H409 H 0.34873 0.48768 0.13123 0.0
C410 C 0.45056 0.55448 0.07584 0.0
O411 O 0.48502 0.69424 0.08288 0.0
O412 O 0.43435 0.6409 0.12688 0.0
N413 N 0.31108 0.516 0.9882 0.0
C414 C 0.30804 0.54541 0.95848 0.0
C415 C 0.26804 0.53092 0.93198 0.0
C416 C 0.23051 0.48696 0.93904 0.0
C417 C 0.23244 0.45973 0.975 0.0
C418 C 0.27358 0.47638 0.9996 0.0
H419 H 0.33393 0.58061 0.95982 0.0
O420 O 0.39134 0.6517 0.04941 0.0
O421 O 0.37212 0.57935 0.05831 0.0
O422 O 0.43802 0.63018 0.98316 0.0
O423 O 0.40493 0.55493 0.97591 0.0
C424 C 0.19437 0.41872 0.99007 0.0
C425 C 0.19716 0.39773 0.03168 0.0
H426 H 0.21211 0.37319 0.11869 0.0
H427 H 0.28329 0.41754 0.16497 0.0
H428 H 0.26541 0.55416 0.90793 0.0
H429 H 0.19923 0.47611 0.91953 0.0
H430 H 0.16236 0.40403 0.97104 0.0
H431 H 0.16775 0.36623 0.04304 0.0
C432 C 0.54902 0.09585 0.48715 0.0
C433 C 0.51457 0.10657 0.47473 0.0
C434 C 0.56468 0.09932 0.53338 0.0
C435 C 0.541 0.10486 0.57057 0.0
H436 H 0.56667 0.08783 0.46054 0.0
H437 H 0.59511 0.09707 0.53988 0.0
S438 S 0.42464 0.09076 0.55731 0.0
N439 N 0.44495 0.10066 0.5035 0.0
N440 N 0.46569 0.0937 0.59124 0.0
C441 C 0.49859 0.10225 0.5591 0.0
C442 C 0.48676 0.10547 0.51127 0.0
C443 C 0.36038 0.56255 0.84282 0.0
C444 C 0.38415 0.54601 0.81646 0.0
C445 C 0.38028 0.58959 0.88316 0.0
C446 C 0.41949 0.59325 0.90517 0.0
H447 H 0.32907 0.55962 0.82922 0.0
H448 H 0.3647 0.60823 0.89673 0.0
S449 S 0.49642 0.55825 0.85089 0.0
N450 N 0.45378 0.54089 0.81331 0.0
N451 N 0.48333 0.58089 0.89509 0.0
C452 C 0.44296 0.57592 0.87994 0.0
C453 C 0.42635 0.55363 0.83558 0.0
C454 C 0.84449 0.45728 0.19471 0.0
C455 C 0.84693 0.43587 0.23568 0.0
C456 C 0.85016 0.44257 0.15006 0.0
C457 C 0.85442 0.40298 0.14369 0.0
H458 H 0.83367 0.48241 0.19661 0.0
H459 H 0.84467 0.45873 0.12031 0.0
S460 S 0.88751 0.35075 0.23703 0.0
N461 N 0.87374 0.385 0.26453 0.0
N462 N 0.87883 0.35565 0.1812 0.0
C463 C 0.8657 0.3875 0.18342 0.0
C464 C 0.86224 0.40359 0.22906 0.0
C465 C 0.39926 0.88249 0.49986 0.0
C466 C 0.43913 0.88005 0.48725 0.0
C467 C 0.38518 0.88095 0.54632 0.0
C468 C 0.41319 0.88303 0.58289 0.0
H469 H 0.37589 0.88163 0.47343 0.0
H470 H 0.35201 0.87743 0.55341 0.0
S471 S 0.53217 0.90279 0.57005 0.0
N472 N 0.5116 0.89168 0.51621 0.0
N473 N 0.49137 0.90156 0.60307 0.0
C474 C 0.45805 0.89159 0.57084 0.0
C475 C 0.46975 0.88715 0.52341 0.0
C476 C 0.5627 0.38158 0.87156 0.0
C477 C 0.52853 0.3873 0.89354 0.0
C478 C 0.58921 0.40967 0.83448 0.0
C479 C 0.57551 0.4365 0.80961 0.0
H480 H 0.57264 0.35879 0.88694 0.0
H481 H 0.6165 0.40485 0.82078 0.0
S482 S 0.47667 0.45057 0.84188 0.0
N483 N 0.47929 0.41946 0.88492 0.0
N484 N 0.51898 0.46082 0.80559 0.0
C485 C 0.53768 0.43869 0.82792 0.0
C486 C 0.51525 0.41523 0.87033 0.0
C487 C 0.17669 0.58589 0.20606 0.0
C488 C 0.14172 0.54402 0.2235 0.0
C489 C 0.16925 0.6098 0.16978 0.0
C490 C 0.12937 0.58865 0.14241 0.0
H491 H 0.21088 0.60012 0.21963 0.0
H492 H 0.19771 0.64223 0.15869 0.0
S493 S 0.02888 0.47485 0.1661 0.0
N494 N 0.06442 0.48233 0.20942 0.0
N495 N 0.05527 0.52066 0.13266 0.0
C496 C 0.09521 0.54475 0.15634 0.0
C497 C 0.10052 0.52353 0.19777 0.0
C498 C 0.66636 0.32185 0.41157 0.0
C499 C 0.71015 0.33136 0.40029 0.0
C500 C 0.62861 0.27971 0.40097 0.0
C501 C 0.63122 0.24754 0.37115 0.0
H502 H 0.66084 0.34832 0.42584 0.0
H503 H 0.59563 0.27469 0.41199 0.0
S504 S 0.78441 0.29902 0.28666 0.0
N505 N 0.76567 0.3157 0.36841 0.0
N506 N 0.6837 0.24055 0.30757 0.0
C507 C 0.67406 0.25416 0.35762 0.0
C508 C 0.71729 0.29531 0.38692 0.0
C509 C 0.393 0.72187 0.68875 0.0
C510 C 0.35402 0.7259 0.68367 0.0
C511 C 0.39131 0.68067 0.68134 0.0
C512 C 0.34956 0.64052 0.67657 0.0
H513 H 0.42493 0.75037 0.69939 0.0
H514 H 0.42275 0.68026 0.68127 0.0
S515 S 0.23557 0.63161 0.66191 0.0
N516 N 0.27186 0.6864 0.66847 0.0
N517 N 0.26694 0.60694 0.66555 0.0
C518 C 0.30943 0.64352 0.67213 0.0
C519 C 0.31198 0.68651 0.67406 0.0
C520 C 0.6371 0.34108 0.06134 0.0
C521 C 0.62167 0.34691 1.01785 0.0
C522 C 0.66989 0.32796 0.06339 0.0
C523 C 0.69223 0.32791 1.02263 0.0
H524 H 0.62285 0.34536 0.09357 0.0
H525 H 0.67924 0.31994 0.0966 0.0
S526 S 0.64719 0.31482 0.90263 0.0
N527 N 0.61385 0.32655 0.93515 0.0
N528 N 0.68653 0.31669 0.93844 0.0
C529 C 0.67273 0.32658 0.97926 0.0
C530 C 0.6348 0.33325 0.97727 0.0
C531 C 0.28905 0.7136 0.3821 0.0
C532 C 0.33087 0.71871 0.39692 0.0
C533 C 0.24896 0.67258 0.38721 0.0
C534 C 0.25107 0.63382 0.39778 0.0
H535 H 0.28734 0.74027 0.36348 0.0
H536 H 0.21763 0.67066 0.37739 0.0
S537 S 0.34941 0.63002 0.45117 0.0
N538 N 0.36961 0.68392 0.43689 0.0
N539 N 0.29514 0.60337 0.43525 0.0
C540 C 0.29136 0.63869 0.4179 0.0
C541 C 0.33146 0.6819 0.41853 0.0
C542 C 0.61992 0.31267 0.72591 0.0
C543 C 0.62289 0.33632 0.68475 0.0
C544 C 0.62834 0.27662 0.72521 0.0
C545 C 0.64558 0.26724 0.68477 0.0
H546 H 0.61289 0.32275 0.75911 0.0
H547 H 0.62179 0.25622 0.75657 0.0
S548 S 0.68257 0.33534 0.57589 0.0
N549 N 0.65668 0.3571 0.60683 0.0
N550 N 0.68021 0.29372 0.60809 0.0
C551 C 0.65811 0.2968 0.64652 0.0
C552 C 0.64504 0.33053 0.64577 0.0
C553 C 0.24981 0.58578 1.02586 0.0
C554 C 0.25407 0.62739 0.03905 0.0
C555 C 0.27782 0.57185 0.04635 0.0
C556 C 0.31601 0.60253 0.07109 0.0
H557 H 0.22187 0.56207 1.00383 0.0
H558 H 0.26979 0.53753 0.04289 0.0
S559 S 0.33322 0.708 0.12766 0.0
N560 N 0.2902 0.69327 0.09104 0.0
N561 N 0.34791 0.6685 0.12241 0.0
C562 C 0.31666 0.64087 0.09024 0.0
C563 C 0.28648 0.65457 0.07272 0.0
C564 C 0.43775 0.00251 0.2812 0.0
C565 C 0.48546 0.02807 0.27605 0.0
C566 C 0.41613 0.95532 0.28477 0.0
C567 C 0.44205 0.93316 0.28377 0.0
H568 H 0.41798 0.01883 0.28935 0.0
H569 H 0.38036 0.93732 0.29483 0.0
S570 S 0.56244 0.98381 0.24432 0.0
N571 N 0.55357 0.02726 0.24946 0.0
N572 N 0.51336 0.93819 0.2581 0.0
C573 C 0.48713 0.95741 0.26692 0.0
C574 C 0.50886 0.00539 0.26247 0.0
C575 C 0.44128 0.46446 0.61907 0.0
C576 C 0.45465 0.50382 0.64571 0.0
C577 C 0.4709 0.44695 0.61375 0.0
C578 C 0.51467 0.46872 0.63443 0.0
H579 H 0.40785 0.44703 0.60279 0.0
H580 H 0.45894 0.41526 0.59494 0.0
S581 S 0.56293 0.56923 0.71255 0.0
N582 N 0.51265 0.56158 0.69652 0.0
N583 N 0.56831 0.52936 0.68518 0.0
C584 C 0.52824 0.50808 0.66099 0.0
C585 C 0.49808 0.52534 0.66715 0.0
C586 C 0.95306 0.50195 1.01877 0.0
C587 C 0.93208 0.46176 0.99178 0.0
C588 C -0.00143 0.53523 1.01155 0.0
C589 C 0.02505 0.52983 0.97704 0.0
H590 H 0.93471 0.50755 0.04673 0.0
H591 H 0.01377 0.56413 0.03511 0.0
S592 S -0.01476 0.43527 0.89186 0.0
N593 N 0.94044 0.42092 0.92591 0.0
N594 N 0.02603 0.48497 0.91134 0.0
C595 C 0.00399 0.49168 0.9476 0.0
C596 C 0.95753 0.45725 0.95525 0.0
C597 C 0.00133 0.44706 0.34662 0.0
C598 C 0.02298 0.46032 0.3901 0.0
C599 C 0.96052 0.44669 0.33891 0.0
C600 C 0.9386 0.45667 0.37512 0.0
H601 H 0.0188 0.44282 0.31679 0.0
H602 H 0.94669 0.43961 0.30394 0.0
S603 S 0.97873 0.48648 0.49725 0.0
N604 N 0.01871 0.48 0.47088 0.0
N605 N 0.93932 0.47568 0.4572 0.0
C606 C 0.95811 0.46633 0.41978 0.0
C607 C 0.00036 0.46776 0.42737 0.0
C608 C 0.55291 0.01671 0.77259 0.0
C609 C 0.53575 0.0467 0.77697 0.0
C610 C 0.52334 0.96986 0.77283 0.0
C611 C 0.47565 0.95166 0.77701 0.0
H612 H 0.58827 0.02908 0.7629 0.0
H613 H 0.53773 0.94857 0.7639 0.0
S614 S 0.42055 0.015 0.82212 0.0
N615 N 0.47423 0.0547 0.81198 0.0
N616 N 0.4164 0.96614 0.80653 0.0
C617 C 0.46018 0.98082 0.79294 0.0
C618 C 0.49112 0.02874 0.79482 0.0
C619 C 0.52036 0.54986 0.06758 0.0
C620 C 0.47842 0.5347 0.09004 0.0
C621 C 0.53697 0.52012 0.06089 0.0
C622 C 0.51193 0.47432 0.07627 0.0
H623 H 0.53772 0.58276 0.0504 0.0
H624 H 0.56798 0.53251 0.04036 0.0
S625 S 0.40855 0.42455 0.15124 0.0
N626 N 0.41895 0.47643 0.13899 0.0
N627 N 0.44932 0.41945 0.12485 0.0
C628 C 0.47371 0.46129 0.1049 0.0
C629 C 0.45736 0.49203 0.1125 0.0
C630 C 0.44637 0.20595 0.20581 0.0
C631 C 0.48662 0.21358 0.2291 0.0
C632 C 0.44798 0.2352 0.16885 0.0
C633 C 0.48974 0.27366 0.15475 0.0
H634 H 0.41383 0.17665 0.21514 0.0
H635 H 0.41654 0.2276 0.15129 0.0
S636 S 0.60434 0.30908 0.20664 0.0
N637 N 0.56868 0.26314 0.23607 0.0
N638 N 0.57203 0.31702 0.16911 0.0
C639 C 0.52963 0.28161 0.17913 0.0
C640 C 0.52797 0.25203 0.21557 0.0
C641 C 0.21691 0.44211 0.48911 0.0
C642 C 0.20774 0.47774 0.47956 0.0
C643 C 0.24197 0.44288 0.52976 0.0
C644 C 0.25913 0.47957 0.56184 0.0
H645 H 0.20505 0.41381 0.46504 0.0
H646 H 0.24929 0.41557 0.53516 0.0
S647 S 0.24775 0.58252 0.5517 0.0
N648 N 0.21983 0.55126 0.50622 0.0
N649 N 0.26639 0.55258 0.57983 0.0
C650 C 0.25011 0.51492 0.55234 0.0
C651 C 0.22467 0.51406 0.5121 0.0
C652 C 0.7848 0.25537 0.85682 0.0
C653 C 0.76233 0.25568 0.89843 0.0
C654 C 0.75997 0.23014 0.81682 0.0
C655 C 0.71153 0.20508 0.81631 0.0
H656 H 0.82164 0.27654 0.85433 0.0
H657 H 0.77879 0.23227 0.78529 0.0
S658 S 0.63647 0.19211 0.91718 0.0
N659 N 0.68873 0.22592 0.93708 0.0
N660 N 0.64269 0.18029 0.86252 0.0
C661 C 0.68901 0.20402 0.85822 0.0
C662 C 0.71415 0.22884 0.89891 0.0
C663 C 0.45479 0.69334 0.20943 0.0
C664 C 0.47625 0.71343 0.16638 0.0
C665 C 0.45459 0.71924 0.24798 0.0
C666 C 0.47653 0.76703 0.24645 0.0
H667 H 0.43591 0.65664 0.21302 0.0
H668 H 0.43533 0.70134 0.2789 0.0
S669 S 0.5396 0.83817 0.1439 0.0
N670 N 0.52156 0.78558 0.12574 0.0
N671 N 0.5216 0.83397 0.19852 0.0
C672 C 0.49979 0.78816 0.20458 0.0
C673 C 0.49972 0.7616 0.16472 0.0
C674 C 0.75028 0.4791 0.57273 0.0
C675 C 0.7199 0.49587 0.56781 0.0
C676 C 0.77954 0.48179 0.536 0.0
C677 C 0.77992 0.50112 0.492 0.0
H678 H 0.74939 0.461 0.60435 0.0
H679 H 0.80006 0.46577 0.54125 0.0
S680 S 0.70891 0.55312 0.46206 0.0
N681 N 0.69375 0.53506 0.51643 0.0
N682 N 0.74853 0.54024 0.44734 0.0
C683 C 0.75159 0.5206 0.48755 0.0
C684 C 0.72155 0.5177 0.52526 0.0
C685 C 0.24262 0.71748 0.88134 0.0
C686 C 0.20754 0.72394 0.89988 0.0
C687 C 0.2722 0.74525 0.84595 0.0
C688 C 0.26864 0.78128 0.82572 0.0
H689 H 0.24811 0.69073 0.89484 0.0
H690 H 0.29817 0.73768 0.83402 0.0
S691 S 0.18204 0.81314 0.85987 0.0
N692 N 0.17084 0.76989 0.89489 0.0
N693 N 0.22575 0.8214 0.8266 0.0
C694 C 0.2333 0.78821 0.84307 0.0
C695 C 0.20324 0.76002 0.88054 0.0
loop_
_geom_bond_atom_site_label_1
_geom_bond_atom_site_label_2
_geom_bond_distance
_geom_bond_site_symmetry_2
_ccdc_geom_bond_type
Mn0 O5 2.095 . S
Mn0 O15 2.162 . S
Mn0 O16 2.297 . S
Mn0 O24 2.385 . S
Mn0 O25 2.209 . S
Mn0 O26 2.094 . S
Mn1 O6 2.121 . S
Mn1 N8 2.257 . S
Mn1 N17 2.282 . S
Mn1 O25 2.215 . S
Mn1 O27 2.117 . S
C2 O24 1.234 . S
C2 O25 1.283 . S
C3 O15 1.281 . S
C3 O16 1.236 . S
C4 O26 1.240 . S
C4 O27 1.264 . S
O5 Mn0 2.095 . S
O5 C14 1.250 . S
O6 Mn1 2.121 . S
O6 C14 1.258 . S
C7 N8 1.326 . S
C7 C11 1.460 . S
C7 H13 0.929 . S
N8 Mn1 2.257 . S
N8 C7 1.326 . S
N8 C12 1.362 . S
C9 C10 1.258 . S
C9 C12 1.431 . S
C9 C29 1.449 . S
C10 C9 1.258 . S
C10 C11 1.477 . S
C10 H30 0.931 . S
C11 C7 1.460 . S
C11 C10 1.477 . S
C11 H31 0.930 . S
C12 N8 1.362 . S
C12 C9 1.431 . S
C12 C22 1.476 . S
H13 C7 0.929 . S
C14 O5 1.250 . S
C14 O6 1.258 . S
O15 Mn0 2.162 . S
O15 C3 1.281 . S
O16 Mn0 2.297 . S
O16 C3 1.236 . S
N17 Mn1 2.282 . S
N17 C18 1.328 . S
N17 C22 1.318 . S
C18 N17 1.328 . S
C18 C19 1.457 . S
C18 H23 0.929 . S
C19 C18 1.457 . S
C19 C20 1.291 . S
C19 H32 0.931 . S
C20 C19 1.291 . S
C20 C21 1.373 . S
C20 H33 0.929 . S
C21 C20 1.373 . S
C21 C22 1.396 . S
C21 C28 1.403 . S
C22 C12 1.476 . S
C22 N17 1.318 . S
C22 C21 1.396 . S
H23 C18 0.929 . S
O24 Mn0 2.385 . S
O24 C2 1.234 . S
O25 Mn0 2.209 . S
O25 Mn1 2.215 . S
O25 C2 1.283 . S
O26 Mn0 2.094 . S
O26 C4 1.240 . S
O27 Mn1 2.117 . S
O27 C4 1.264 . S
C28 C21 1.403 . S
C28 C29 1.399 . S
C28 H34 0.929 . S
C29 C9 1.449 . S
C29 C28 1.399 . S
C29 H35 0.930 . S
H30 C10 0.931 . S
H31 C11 0.930 . S
H32 C19 0.931 . S
H33 C20 0.929 . S
H34 C28 0.929 . S
H35 C29 0.930 . S
Mn36 O41 2.095 . S
Mn36 O51 2.162 . S
Mn36 O52 2.297 . S
Mn36 O60 2.385 . S
Mn36 O61 2.209 . S
Mn36 O62 2.094 . S
Mn37 O42 2.121 . S
Mn37 N44 2.257 . S
Mn37 N53 2.282 . S
Mn37 O61 2.215 . S
Mn37 O63 2.117 . S
C38 O60 1.234 . S
C38 O61 1.283 . S
C39 O51 1.281 . S
C39 O52 1.236 . S
C40 O62 1.240 . S
C40 O63 1.264 . S
O41 Mn36 2.095 . S
O41 C50 1.250 . S
O42 Mn37 2.121 . S
O42 C50 1.258 . S
C43 N44 1.326 . S
C43 C47 1.460 . S
C43 H49 0.929 . S
N44 Mn37 2.257 . S
N44 C43 1.326 . S
N44 C48 1.362 . S
C45 C46 1.258 . S
C45 C48 1.431 . S
C45 C65 1.449 . S
C46 C45 1.258 . S
C46 C47 1.477 . S
C46 H66 0.931 . S
C47 C43 1.460 . S
C47 C46 1.477 . S
C47 H67 0.930 . S
C48 N44 1.362 . S
C48 C45 1.431 . S
C48 C58 1.476 . S
H49 C43 0.929 . S
C50 O41 1.250 . S
C50 O42 1.258 . S
O51 Mn36 2.162 . S
O51 C39 1.281 . S
O52 Mn36 2.297 . S
O52 C39 1.236 . S
N53 Mn37 2.282 . S
N53 C54 1.328 . S
N53 C58 1.318 . S
C54 N53 1.328 . S
C54 C55 1.457 . S
C54 H59 0.929 . S
C55 C54 1.457 . S
C55 C56 1.291 . S
C55 H68 0.931 . S
C56 C55 1.291 . S
C56 C57 1.373 . S
C56 H69 0.929 . S
C57 C56 1.373 . S
C57 C58 1.396 . S
C57 C64 1.403 . S
C58 C48 1.476 . S
C58 N53 1.318 . S
C58 C57 1.396 . S
H59 C54 0.929 . S
O60 Mn36 2.385 . S
O60 C38 1.234 . S
O61 Mn36 2.209 . S
O61 Mn37 2.215 . S
O61 C38 1.283 . S
O62 Mn36 2.094 . S
O62 C40 1.240 . S
O63 Mn37 2.117 . S
O63 C40 1.264 . S
C64 C57 1.403 . S
C64 C65 1.399 . S
C64 H70 0.929 . S
C65 C45 1.449 . S
C65 C64 1.399 . S
C65 H71 0.930 . S
H66 C46 0.931 . S
H67 C47 0.930 . S
H68 C55 0.931 . S
H69 C56 0.929 . S
H70 C64 0.929 . S
H71 C65 0.930 . S
Mn72 O77 2.095 . S
Mn72 O87 2.162 . S
Mn72 O88 2.297 . S
Mn72 O96 2.385 . S
Mn72 O97 2.209 . S
Mn72 O98 2.094 1_556 S
Mn73 O78 2.121 1_554 S
Mn73 N80 2.257 . S
Mn73 N89 2.282 . S
Mn73 O97 2.215 1_554 S
Mn73 O99 2.117 . S
C74 O96 1.234 . S
C74 O97 1.283 . S
C75 O87 1.281 . S
C75 O88 1.236 . S
C76 O98 1.240 . S
C76 O99 1.264 . S
O77 Mn72 2.095 . S
O77 C86 1.250 . S
O78 Mn73 2.121 1_556 S
O78 C86 1.258 . S
C79 N80 1.326 1_556 S
C79 C83 1.460 . S
C79 H85 0.929 . S
N80 Mn73 2.257 . S
N80 C79 1.326 1_554 S
N80 C84 1.362 . S
C81 C82 1.258 1_554 S
C81 C84 1.431 . S
C81 C101 1.449 . S
C82 C81 1.258 1_556 S
C82 C83 1.477 . S
C82 H102 0.931 . S
C83 C79 1.460 . S
C83 C82 1.477 . S
C83 H103 0.930 . S
C84 N80 1.362 . S
C84 C81 1.431 . S
C84 C94 1.476 . S
H85 C79 0.929 . S
C86 O77 1.250 . S
C86 O78 1.258 . S
O87 Mn72 2.162 . S
O87 C75 1.281 . S
O88 Mn72 2.297 . S
O88 C75 1.236 . S
N89 Mn73 2.282 . S
N89 C90 1.328 . S
N89 C94 1.318 . S
C90 N89 1.328 . S
C90 C91 1.457 . S
C90 H95 0.929 . S
C91 C90 1.457 . S
C91 C92 1.291 . S
C91 H104 0.931 . S
C92 C91 1.291 . S
C92 C93 1.373 . S
C92 H105 0.929 . S
C93 C92 1.373 . S
C93 C94 1.396 . S
C93 C100 1.403 . S
C94 C84 1.476 . S
C94 N89 1.318 . S
C94 C93 1.396 . S
H95 C90 0.929 . S
O96 Mn72 2.385 . S
O96 C74 1.234 . S
O97 Mn72 2.209 . S
O97 Mn73 2.215 1_556 S
O97 C74 1.283 . S
O98 Mn72 2.094 1_554 S
O98 C76 1.240 . S
O99 Mn73 2.117 . S
O99 C76 1.264 . S
C100 C93 1.403 . S
C100 C101 1.399 . S
C100 H106 0.929 . S
C101 C81 1.449 . S
C101 C100 1.399 . S
C101 H107 0.930 . S
H102 C82 0.931 . S
H103 C83 0.930 . S
H104 C91 0.931 . S
H105 C92 0.929 . S
H106 C100 0.929 . S
H107 C101 0.930 . S
Mn108 O113 2.095 . S
Mn108 O123 2.162 . S
Mn108 O124 2.297 . S
Mn108 O132 2.385 . S
Mn108 O133 2.209 . S
Mn108 O134 2.094 . S
Mn109 O114 2.121 . S
Mn109 N116 2.257 . S
Mn109 N125 2.282 . S
Mn109 O133 2.215 . S
Mn109 O135 2.117 . S
C110 O132 1.234 . S
C110 O133 1.283 . S
C111 O123 1.281 . S
C111 O124 1.236 . S
C112 O134 1.240 . S
C112 O135 1.264 . S
O113 Mn108 2.095 . S
O113 C122 1.250 . S
O114 Mn109 2.121 . S
O114 C122 1.258 . S
C115 N116 1.326 . S
C115 C119 1.460 . S
C115 H121 0.929 . S
N116 Mn109 2.257 . S
N116 C115 1.326 . S
N116 C120 1.362 . S
C117 C118 1.258 . S
C117 C120 1.431 . S
C117 C137 1.449 . S
C118 C117 1.258 . S
C118 C119 1.477 . S
C118 H138 0.931 . S
C119 C115 1.460 . S
C119 C118 1.477 . S
C119 H139 0.930 . S
C120 N116 1.362 . S
C120 C117 1.431 . S
C120 C130 1.476 . S
H121 C115 0.929 . S
C122 O113 1.250 . S
C122 O114 1.258 . S
O123 Mn108 2.162 . S
O123 C111 1.281 . S
O124 Mn108 2.297 . S
O124 C111 1.236 . S
N125 Mn109 2.282 . S
N125 C126 1.328 . S
N125 C130 1.318 . S
C126 N125 1.328 . S
C126 C127 1.457 . S
C126 H131 0.929 . S
C127 C126 1.457 . S
C127 C128 1.291 . S
C127 H140 0.931 . S
C128 C127 1.291 . S
C128 C129 1.373 . S
C128 H141 0.929 . S
C129 C128 1.373 . S
C129 C130 1.396 . S
C129 C136 1.403 . S
C130 C120 1.476 . S
C130 N125 1.318 . S
C130 C129 1.396 . S
H131 C126 0.929 . S
O132 Mn108 2.385 . S
O132 C110 1.234 . S
O133 Mn108 2.209 . S
O133 Mn109 2.215 . S
O133 C110 1.283 . S
O134 Mn108 2.094 . S
O134 C112 1.240 . S
O135 Mn109 2.117 . S
O135 C112 1.264 . S
C136 C129 1.403 . S
C136 C137 1.399 . S
C136 H142 0.929 . S
C137 C117 1.449 . S
C137 C136 1.399 . S
C137 H143 0.930 . S
H138 C118 0.931 . S
H139 C119 0.930 . S
H140 C127 0.931 . S
H141 C128 0.929 . S
H142 C136 0.929 . S
H143 C137 0.930 . S
Mn144 O149 2.095 . S
Mn144 O159 2.162 . S
Mn144 O160 2.297 . S
Mn144 O168 2.385 . S
Mn144 O169 2.209 . S
Mn144 O170 2.094 . S
Mn145 O150 2.121 . S
Mn145 N152 2.257 . S
Mn145 N161 2.282 . S
Mn145 O169 2.215 . S
Mn145 O171 2.117 . S
C146 O168 1.234 . S
C146 O169 1.283 . S
C147 O159 1.281 . S
C147 O160 1.236 . S
C148 O170 1.240 . S
C148 O171 1.264 . S
O149 Mn144 2.095 . S
O149 C158 1.250 . S
O150 Mn145 2.121 . S
O150 C158 1.258 . S
C151 N152 1.326 . S
C151 C155 1.460 . S
C151 H157 0.929 . S
N152 Mn145 2.257 . S
N152 C151 1.326 . S
N152 C156 1.362 . S
C153 C154 1.258 . S
C153 C156 1.431 . S
C153 C173 1.449 . S
C154 C153 1.258 . S
C154 C155 1.477 . S
C154 H174 0.931 . S
C155 C151 1.460 . S
C155 C154 1.477 . S
C155 H175 0.930 . S
C156 N152 1.362 . S
C156 C153 1.431 . S
C156 C166 1.476 . S
H157 C151 0.929 . S
C158 O149 1.250 . S
C158 O150 1.258 . S
O159 Mn144 2.162 . S
O159 C147 1.281 . S
O160 Mn144 2.297 . S
O160 C147 1.236 . S
N161 Mn145 2.282 . S
N161 C162 1.328 . S
N161 C166 1.318 . S
C162 N161 1.328 . S
C162 C163 1.457 . S
C162 H167 0.929 . S
C163 C162 1.457 . S
C163 C164 1.291 . S
C163 H176 0.931 . S
C164 C163 1.291 . S
C164 C165 1.373 . S
C164 H177 0.929 . S
C165 C164 1.373 . S
C165 C166 1.396 . S
C165 C172 1.403 . S
C166 C156 1.476 . S
C166 N161 1.318 . S
C166 C165 1.396 . S
H167 C162 0.929 . S
O168 Mn144 2.385 . S
O168 C146 1.234 . S
O169 Mn144 2.209 . S
O169 Mn145 2.215 . S
O169 C146 1.283 . S
O170 Mn144 2.094 . S
O170 C148 1.240 . S
O171 Mn145 2.117 . S
O171 C148 1.264 . S
C172 C165 1.403 . S
C172 C173 1.399 . S
C172 H178 0.929 . S
C173 C153 1.449 . S
C173 C172 1.399 . S
C173 H179 0.930 . S
H174 C154 0.931 . S
H175 C155 0.930 . S
H176 C163 0.931 . S
H177 C164 0.929 . S
H178 C172 0.929 . S
H179 C173 0.930 . S
Mn180 O185 2.095 . S
Mn180 O195 2.162 . S
Mn180 O196 2.297 . S
Mn180 O204 2.385 . S
Mn180 O205 2.209 . S
Mn180 O206 2.094 1_556 S
Mn181 O186 2.121 1_554 S
Mn181 N188 2.257 . S
Mn181 N197 2.282 . S
Mn181 O205 2.215 1_554 S
Mn181 O207 2.117 . S
C182 O204 1.234 . S
C182 O205 1.283 . S
C183 O195 1.281 . S
C183 O196 1.236 . S
C184 O206 1.240 . S
C184 O207 1.264 . S
O185 Mn180 2.095 . S
O185 C194 1.250 . S
O186 Mn181 2.121 1_556 S
O186 C194 1.258 . S
C187 N188 1.326 1_556 S
C187 C191 1.460 . S
C187 H193 0.929 . S
N188 Mn181 2.257 . S
N188 C187 1.326 1_554 S
N188 C192 1.362 . S
C189 C190 1.258 1_554 S
C189 C192 1.431 . S
C189 C209 1.449 . S
C190 C189 1.258 1_556 S
C190 C191 1.477 . S
C190 H210 0.931 . S
C191 C187 1.460 . S
C191 C190 1.477 . S
C191 H211 0.930 . S
C192 N188 1.362 . S
C192 C189 1.431 . S
C192 C202 1.476 . S
H193 C187 0.929 . S
C194 O185 1.250 . S
C194 O186 1.258 . S
O195 Mn180 2.162 . S
O195 C183 1.281 . S
O196 Mn180 2.297 . S
O196 C183 1.236 . S
N197 Mn181 2.282 . S
N197 C198 1.328 . S
N197 C202 1.318 . S
C198 N197 1.328 . S
C198 C199 1.457 . S
C198 H203 0.929 . S
C199 C198 1.457 . S
C199 C200 1.291 . S
C199 H212 0.931 . S
C200 C199 1.291 . S
C200 C201 1.373 . S
C200 H213 0.929 . S
C201 C200 1.373 . S
C201 C202 1.396 . S
C201 C208 1.403 . S
C202 C192 1.476 . S
C202 N197 1.318 . S
C202 C201 1.396 . S
H203 C198 0.929 . S
O204 Mn180 2.385 . S
O204 C182 1.234 . S
O205 Mn180 2.209 . S
O205 Mn181 2.215 1_556 S
O205 C182 1.283 . S
O206 Mn180 2.094 1_554 S
O206 C184 1.240 . S
O207 Mn181 2.117 . S
O207 C184 1.264 . S
C208 C201 1.403 . S
C208 C209 1.399 . S
C208 H214 0.929 . S
C209 C189 1.449 . S
C209 C208 1.399 . S
C209 H215 0.930 . S
H210 C190 0.931 . S
H211 C191 0.930 . S
H212 C199 0.931 . S
H213 C200 0.929 . S
H214 C208 0.929 . S
H215 C209 0.930 . S
Mn216 O221 2.095 . S
Mn216 O231 2.162 . S
Mn216 O232 2.297 . S
Mn216 O240 2.385 . S
Mn216 O241 2.209 . S
Mn216 O242 2.094 . S
Mn217 O222 2.121 . S
Mn217 N224 2.257 . S
Mn217 N233 2.282 . S
Mn217 O241 2.215 . S
Mn217 O243 2.117 . S
C218 O240 1.234 . S
C218 O241 1.283 . S
C219 O231 1.281 . S
C219 O232 1.236 . S
C220 O242 1.240 . S
C220 O243 1.264 . S
O221 Mn216 2.095 . S
O221 C230 1.250 . S
O222 Mn217 2.121 . S
O222 C230 1.258 . S
C223 N224 1.326 . S
C223 C227 1.460 . S
C223 H229 0.929 . S
N224 Mn217 2.257 . S
N224 C223 1.326 . S
N224 C228 1.362 . S
C225 C226 1.258 . S
C225 C228 1.431 . S
C225 C245 1.449 . S
C226 C225 1.258 . S
C226 C227 1.477 . S
C226 H246 0.931 . S
C227 C223 1.460 . S
C227 C226 1.477 . S
C227 H247 0.930 . S
C228 N224 1.362 . S
C228 C225 1.431 . S
C228 C238 1.476 . S
H229 C223 0.929 . S
C230 O221 1.250 . S
C230 O222 1.258 . S
O231 Mn216 2.162 . S
O231 C219 1.281 . S
O232 Mn216 2.297 . S
O232 C219 1.236 . S
N233 Mn217 2.282 . S
N233 C234 1.328 . S
N233 C238 1.318 . S
C234 N233 1.328 . S
C234 C235 1.457 . S
C234 H239 0.929 . S
C235 C234 1.457 . S
C235 C236 1.291 . S
C235 H248 0.931 . S
C236 C235 1.291 . S
C236 C237 1.373 . S
C236 H249 0.929 . S
C237 C236 1.373 . S
C237 C238 1.396 . S
C237 C244 1.403 . S
C238 C228 1.476 . S
C238 N233 1.318 . S
C238 C237 1.396 . S
H239 C234 0.929 . S
O240 Mn216 2.385 . S
O240 C218 1.234 . S
O241 Mn216 2.209 . S
O241 Mn217 2.215 . S
O241 C218 1.283 . S
O242 Mn216 2.094 . S
O242 C220 1.240 . S
O243 Mn217 2.117 . S
O243 C220 1.264 . S
C244 C237 1.403 . S
C244 C245 1.399 . S
C244 H250 0.929 . S
C245 C225 1.449 . S
C245 C244 1.399 . S
C245 H251 0.930 . S
H246 C226 0.931 . S
H247 C227 0.930 . S
H248 C235 0.931 . S
H249 C236 0.929 . S
H250 C244 0.929 . S
H251 C245 0.930 . S
Mn252 O257 2.095 . S
Mn252 O267 2.162 . S
Mn252 O268 2.297 . S
Mn252 O276 2.385 . S
Mn252 O277 2.209 . S
Mn252 O278 2.094 . S
Mn253 O258 2.121 . S
Mn253 N260 2.257 . S
Mn253 N269 2.282 . S
Mn253 O277 2.215 . S
Mn253 O279 2.117 . S
C254 O276 1.234 . S
C254 O277 1.283 . S
C255 O267 1.281 . S
C255 O268 1.236 . S
C256 O278 1.240 . S
C256 O279 1.264 . S
O257 Mn252 2.095 . S
O257 C266 1.250 . S
O258 Mn253 2.121 . S
O258 C266 1.258 . S
C259 N260 1.326 . S
C259 C263 1.460 . S
C259 H265 0.929 . S
N260 Mn253 2.257 . S
N260 C259 1.326 . S
N260 C264 1.362 . S
C261 C262 1.258 . S
C261 C264 1.431 . S
C261 C281 1.449 . S
C262 C261 1.258 . S
C262 C263 1.477 . S
C262 H282 0.931 . S
C263 C259 1.460 . S
C263 C262 1.477 . S
C263 H283 0.930 . S
C264 N260 1.362 . S
C264 C261 1.431 . S
C264 C274 1.476 . S
H265 C259 0.929 . S
C266 O257 1.250 . S
C266 O258 1.258 . S
O267 Mn252 2.162 . S
O267 C255 1.281 . S
O268 Mn252 2.297 . S
O268 C255 1.236 . S
N269 Mn253 2.282 . S
N269 C270 1.328 . S
N269 C274 1.318 . S
C270 N269 1.328 . S
C270 C271 1.457 . S
C270 H275 0.929 . S
C271 C270 1.457 . S
C271 C272 1.291 . S
C271 H284 0.931 . S
C272 C271 1.291 . S
C272 C273 1.373 . S
C272 H285 0.929 . S
C273 C272 1.373 . S
C273 C274 1.396 . S
C273 C280 1.403 . S
C274 C264 1.476 . S
C274 N269 1.318 . S
C274 C273 1.396 . S
H275 C270 0.929 . S
O276 Mn252 2.385 . S
O276 C254 1.234 . S
O277 Mn252 2.209 . S
O277 Mn253 2.215 . S
O277 C254 1.283 . S
O278 Mn252 2.094 . S
O278 C256 1.240 . S
O279 Mn253 2.117 . S
O279 C256 1.264 . S
C280 C273 1.403 . S
C280 C281 1.399 . S
C280 H286 0.929 . S
C281 C261 1.449 . S
C281 C280 1.399 . S
C281 H287 0.930 . S
H282 C262 0.931 . S
H283 C263 0.930 . S
H284 C271 0.931 . S
H285 C272 0.929 . S
H286 C280 0.929 . S
H287 C281 0.930 . S
Mn288 O293 2.095 . S
Mn288 O303 2.162 . S
Mn288 O304 2.297 . S
Mn288 O312 2.385 . S
Mn288 O313 2.209 . S
Mn288 O314 2.094 1_554 S
Mn289 O294 2.121 1_556 S
Mn289 N296 2.257 . S
Mn289 N305 2.282 . S
Mn289 O313 2.215 1_556 S
Mn289 O315 2.117 . S
C290 O312 1.234 . S
C290 O313 1.283 . S
C291 O303 1.281 . S
C291 O304 1.236 . S
C292 O314 1.240 . S
C292 O315 1.264 . S
O293 Mn288 2.095 . S
O293 C302 1.250 . S
O294 Mn289 2.121 1_554 S
O294 C302 1.258 . S
C295 N296 1.326 1_554 S
C295 C299 1.460 . S
C295 H301 0.929 . S
N296 Mn289 2.257 . S
N296 C295 1.326 1_556 S
N296 C300 1.362 . S
C297 C298 1.258 1_556 S
C297 C300 1.431 . S
C297 C317 1.449 . S
C298 C297 1.258 1_554 S
C298 C299 1.477 . S
C298 H318 0.931 . S
C299 C295 1.460 . S
C299 C298 1.477 . S
C299 H319 0.930 . S
C300 N296 1.362 . S
C300 C297 1.431 . S
C300 C310 1.476 . S
H301 C295 0.929 . S
C302 O293 1.250 . S
C302 O294 1.258 . S
O303 Mn288 2.162 . S
O303 C291 1.281 . S
O304 Mn288 2.297 . S
O304 C291 1.236 . S
N305 Mn289 2.282 . S
N305 C306 1.328 . S
N305 C310 1.318 . S
C306 N305 1.328 . S
C306 C307 1.457 . S
C306 H311 0.929 . S
C307 C306 1.457 . S
C307 C308 1.291 . S
C307 H320 0.931 . S
C308 C307 1.291 . S
C308 C309 1.373 . S
C308 H321 0.929 . S
C309 C308 1.373 . S
C309 C310 1.396 . S
C309 C316 1.403 . S
C310 C300 1.476 . S
C310 N305 1.318 . S
C310 C309 1.396 . S
H311 C306 0.929 . S
O312 Mn288 2.385 . S
O312 C290 1.234 . S
O313 Mn288 2.209 . S
O313 Mn289 2.215 1_554 S
O313 C290 1.283 . S
O314 Mn288 2.094 1_556 S
O314 C292 1.240 . S
O315 Mn289 2.117 . S
O315 C292 1.264 . S
C316 C309 1.403 . S
C316 C317 1.399 . S
C316 H322 0.929 . S
C317 C297 1.449 . S
C317 C316 1.399 . S
C317 H323 0.930 . S
H318 C298 0.931 . S
H319 C299 0.930 . S
H320 C307 0.931 . S
H321 C308 0.929 . S
H322 C316 0.929 . S
H323 C317 0.930 . S
Mn324 O329 2.095 . S
Mn324 O339 2.162 . S
Mn324 O340 2.297 . S
Mn324 O348 2.385 . S
Mn324 O349 2.209 . S
Mn324 O350 2.094 . S
Mn325 O330 2.121 . S
Mn325 N332 2.257 . S
Mn325 N341 2.282 . S
Mn325 O349 2.215 . S
Mn325 O351 2.117 . S
C326 O348 1.234 . S
C326 O349 1.283 . S
C327 O339 1.281 . S
C327 O340 1.236 . S
C328 O350 1.240 . S
C328 O351 1.264 . S
O329 Mn324 2.095 . S
O329 C338 1.250 . S
O330 Mn325 2.121 . S
O330 C338 1.258 . S
C331 N332 1.326 . S
C331 C335 1.460 . S
C331 H337 0.929 . S
N332 Mn325 2.257 . S
N332 C331 1.326 . S
N332 C336 1.362 . S
C333 C334 1.258 . S
C333 C336 1.431 . S
C333 C353 1.449 . S
C334 C333 1.258 . S
C334 C335 1.477 . S
C334 H354 0.931 . S
C335 C331 1.460 . S
C335 C334 1.477 . S
C335 H355 0.930 . S
C336 N332 1.362 . S
C336 C333 1.431 . S
C336 C346 1.476 . S
H337 C331 0.929 . S
C338 O329 1.250 . S
C338 O330 1.258 . S
O339 Mn324 2.162 . S
O339 C327 1.281 . S
O340 Mn324 2.297 . S
O340 C327 1.236 . S
N341 Mn325 2.282 . S
N341 C342 1.328 . S
N341 C346 1.318 . S
C342 N341 1.328 . S
C342 C343 1.457 . S
C342 H347 0.929 . S
C343 C342 1.457 . S
C343 C344 1.291 . S
C343 H356 0.931 . S
C344 C343 1.291 . S
C344 C345 1.373 . S
C344 H357 0.929 . S
C345 C344 1.373 . S
C345 C346 1.396 . S
C345 C352 1.403 . S
C346 C336 1.476 . S
C346 N341 1.318 . S
C346 C345 1.396 . S
H347 C342 0.929 . S
O348 Mn324 2.385 . S
O348 C326 1.234 . S
O349 Mn324 2.209 . S
O349 Mn325 2.215 . S
O349 C326 1.283 . S
O350 Mn324 2.094 . S
O350 C328 1.240 . S
O351 Mn325 2.117 . S
O351 C328 1.264 . S
C352 C345 1.403 . S
C352 C353 1.399 . S
C352 H358 0.929 . S
C353 C333 1.449 . S
C353 C352 1.399 . S
C353 H359 0.930 . S
H354 C334 0.931 . S
H355 C335 0.930 . S
H356 C343 0.931 . S
H357 C344 0.929 . S
H358 C352 0.929 . S
H359 C353 0.930 . S
Mn360 O365 2.095 . S
Mn360 O375 2.162 . S
Mn360 O376 2.297 . S
Mn360 O384 2.385 . S
Mn360 O385 2.209 . S
Mn360 O386 2.094 . S
Mn361 O366 2.121 . S
Mn361 N368 2.257 . S
Mn361 N377 2.282 . S
Mn361 O385 2.215 . S
Mn361 O387 2.117 . S
C362 O384 1.234 . S
C362 O385 1.283 . S
C363 O375 1.281 . S
C363 O376 1.236 . S
C364 O386 1.240 . S
C364 O387 1.264 . S
O365 Mn360 2.095 . S
O365 C374 1.250 . S
O366 Mn361 2.121 . S
O366 C374 1.258 . S
C367 N368 1.326 . S
C367 C371 1.460 . S
C367 H373 0.929 . S
N368 Mn361 2.257 . S
N368 C367 1.326 . S
N368 C372 1.362 . S
C369 C370 1.258 . S
C369 C372 1.431 . S
C369 C389 1.449 . S
C370 C369 1.258 . S
C370 C371 1.477 . S
C370 H390 0.931 . S
C371 C367 1.460 . S
C371 C370 1.477 . S
C371 H391 0.930 . S
C372 N368 1.362 . S
C372 C369 1.431 . S
C372 C382 1.476 . S
H373 C367 0.929 . S
C374 O365 1.250 . S
C374 O366 1.258 . S
O375 Mn360 2.162 . S
O375 C363 1.281 . S
O376 Mn360 2.297 . S
O376 C363 1.236 . S
N377 Mn361 2.282 . S
N377 C378 1.328 . S
N377 C382 1.318 . S
C378 N377 1.328 . S
C378 C379 1.457 . S
C378 H383 0.929 . S
C379 C378 1.457 . S
C379 C380 1.291 . S
C379 H392 0.931 . S
C380 C379 1.291 . S
C380 C381 1.373 . S
C380 H393 0.929 . S
C381 C380 1.373 . S
C381 C382 1.396 . S
C381 C388 1.403 . S
C382 C372 1.476 . S
C382 N377 1.318 . S
C382 C381 1.396 . S
H383 C378 0.929 . S
O384 Mn360 2.385 . S
O384 C362 1.234 . S
O385 Mn360 2.209 . S
O385 Mn361 2.215 . S
O385 C362 1.283 . S
O386 Mn360 2.094 . S
O386 C364 1.240 . S
O387 Mn361 2.117 . S
O387 C364 1.264 . S
C388 C381 1.403 . S
C388 C389 1.399 . S
C388 H394 0.929 . S
C389 C369 1.449 . S
C389 C388 1.399 . S
C389 H395 0.930 . S
H390 C370 0.931 . S
H391 C371 0.930 . S
H392 C379 0.931 . S
H393 C380 0.929 . S
H394 C388 0.929 . S
H395 C389 0.930 . S
Mn396 O401 2.095 . S
Mn396 O411 2.162 . S
Mn396 O412 2.297 . S
Mn396 O420 2.385 . S
Mn396 O421 2.209 . S
Mn396 O422 2.094 1_554 S
Mn397 O402 2.121 1_556 S
Mn397 N404 2.257 . S
Mn397 N413 2.282 . S
Mn397 O421 2.215 1_556 S
Mn397 O423 2.117 . S
C398 O420 1.234 . S
C398 O421 1.283 . S
C399 O411 1.281 . S
C399 O412 1.236 . S
C400 O422 1.240 . S
C400 O423 1.264 . S
O401 Mn396 2.095 . S
O401 C410 1.250 . S
O402 Mn397 2.121 1_554 S
O402 C410 1.258 . S
C403 N404 1.326 1_554 S
C403 C407 1.460 . S
C403 H409 0.929 . S
N404 Mn397 2.257 . S
N404 C403 1.326 1_556 S
N404 C408 1.362 . S
C405 C406 1.258 1_556 S
C405 C408 1.431 . S
C405 C425 1.449 . S
C406 C405 1.258 1_554 S
C406 C407 1.477 . S
C406 H426 0.931 . S
C407 C403 1.460 . S
C407 C406 1.477 . S
C407 H427 0.930 . S
C408 N404 1.362 . S
C408 C405 1.431 . S
C408 C418 1.476 . S
H409 C403 0.929 . S
C410 O401 1.250 . S
C410 O402 1.258 . S
O411 Mn396 2.162 . S
O411 C399 1.281 . S
O412 Mn396 2.297 . S
O412 C399 1.236 . S
N413 Mn397 2.282 . S
N413 C414 1.328 . S
N413 C418 1.318 . S
C414 N413 1.328 . S
C414 C415 1.457 . S
C414 H419 0.929 . S
C415 C414 1.457 . S
C415 C416 1.291 . S
C415 H428 0.931 . S
C416 C415 1.291 . S
C416 C417 1.373 . S
C416 H429 0.929 . S
C417 C416 1.373 . S
C417 C418 1.396 . S
C417 C424 1.403 . S
C418 C408 1.476 . S
C418 N413 1.318 . S
C418 C417 1.396 . S
H419 C414 0.929 . S
O420 Mn396 2.385 . S
O420 C398 1.234 . S
O421 Mn396 2.209 . S
O421 Mn397 2.215 1_554 S
O421 C398 1.283 . S
O422 Mn396 2.094 1_556 S
O422 C400 1.240 . S
O423 Mn397 2.117 . S
O423 C400 1.264 . S
C424 C417 1.403 . S
C424 C425 1.399 . S
C424 H430 0.929 . S
C425 C405 1.449 . S
C425 C424 1.399 . S
C425 H431 0.930 . S
H426 C406 0.931 . S
H427 C407 0.930 . S
H428 C415 0.931 . S
H429 C416 0.929 . S
H430 C424 0.929 . S
H431 C425 0.930 . S
C432 C433 1.369 . S
C432 C434 1.419 . S
C432 H436 0.930 . S
C433 C432 1.369 . S
C433 C442 1.429 . S
C434 C432 1.419 . S
C434 C435 1.363 . S
C434 H437 0.929 . S
C435 C434 1.363 . S
C435 C441 1.428 . S
H436 C432 0.930 . S
H437 C434 0.929 . S
S438 N439 1.613 . S
S438 N440 1.610 . S
N439 S438 1.613 . S
N439 C442 1.350 . S
N440 S438 1.610 . S
N440 C441 1.351 . S
C441 C435 1.428 . S
C441 N440 1.351 . S
C441 C442 1.434 . S
C442 C433 1.429 . S
C442 N439 1.350 . S
C442 C441 1.434 . S
C443 C444 1.369 . S
C443 C445 1.419 . S
C443 H447 0.930 . S
C444 C443 1.369 . S
C444 C453 1.429 . S
C445 C443 1.419 . S
C445 C446 1.363 . S
C445 H448 0.929 . S
C446 C445 1.363 . S
C446 C452 1.428 . S
H447 C443 0.930 . S
H448 C445 0.929 . S
S449 N450 1.613 . S
S449 N451 1.610 . S
N450 S449 1.613 . S
N450 C453 1.350 . S
N451 S449 1.610 . S
N451 C452 1.351 . S
C452 C446 1.428 . S
C452 N451 1.351 . S
C452 C453 1.434 . S
C453 C444 1.429 . S
C453 N450 1.350 . S
C453 C452 1.434 . S
C454 C455 1.369 . S
C454 C456 1.419 . S
C454 H458 0.930 . S
C455 C454 1.369 . S
C455 C464 1.429 . S
C456 C454 1.419 . S
C456 C457 1.363 . S
C456 H459 0.929 . S
C457 C456 1.363 . S
C457 C463 1.428 . S
H458 C454 0.930 . S
H459 C456 0.929 . S
S460 N461 1.613 . S
S460 N462 1.610 . S
N461 S460 1.613 . S
N461 C464 1.350 . S
N462 S460 1.610 . S
N462 C463 1.351 . S
C463 C457 1.428 . S
C463 N462 1.351 . S
C463 C464 1.434 . S
C464 C455 1.429 . S
C464 N461 1.350 . S
C464 C463 1.434 . S
C465 C466 1.369 . S
C465 C467 1.419 . S
C465 H469 0.930 . S
C466 C465 1.369 . S
C466 C475 1.429 . S
C467 C465 1.419 . S
C467 C468 1.363 . S
C467 H470 0.929 . S
C468 C467 1.363 . S
C468 C474 1.428 . S
H469 C465 0.930 . S
H470 C467 0.929 . S
S471 N472 1.613 . S
S471 N473 1.610 . S
N472 S471 1.613 . S
N472 C475 1.350 . S
N473 S471 1.610 . S
N473 C474 1.351 . S
C474 C468 1.428 . S
C474 N473 1.351 . S
C474 C475 1.434 . S
C475 C466 1.429 . S
C475 N472 1.350 . S
C475 C474 1.434 . S
C476 C477 1.369 . S
C476 C478 1.419 . S
C476 H480 0.930 . S
C477 C476 1.369 . S
C477 C486 1.429 . S
C478 C476 1.419 . S
C478 C479 1.363 . S
C478 H481 0.929 . S
C479 C478 1.363 . S
C479 C485 1.428 . S
H480 C476 0.930 . S
H481 C478 0.929 . S
S482 N483 1.613 . S
S482 N484 1.610 . S
N483 S482 1.613 . S
N483 C486 1.350 . S
N484 S482 1.610 . S
N484 C485 1.351 . S
C485 C479 1.428 . S
C485 N484 1.351 . S
C485 C486 1.434 . S
C486 C477 1.429 . S
C486 N483 1.350 . S
C486 C485 1.434 . S
C487 C488 1.369 . S
C487 C489 1.419 . S
C487 H491 0.930 . S
C488 C487 1.369 . S
C488 C497 1.429 . S
C489 C487 1.419 . S
C489 C490 1.363 . S
C489 H492 0.929 . S
C490 C489 1.363 . S
C490 C496 1.428 . S
H491 C487 0.930 . S
H492 C489 0.929 . S
S493 N494 1.613 . S
S493 N495 1.610 . S
N494 S493 1.613 . S
N494 C497 1.350 . S
N495 S493 1.610 . S
N495 C496 1.351 . S
C496 C490 1.428 . S
C496 N495 1.351 . S
C496 C497 1.434 . S
C497 C488 1.429 . S
C497 N494 1.350 . S
C497 C496 1.434 . S
C498 C499 1.369 . S
C498 C500 1.419 . S
C498 H502 0.930 . S
C499 C498 1.369 . S
C499 C508 1.429 . S
C500 C498 1.419 . S
C500 C501 1.363 . S
C500 H503 0.929 . S
C501 C500 1.363 . S
C501 C507 1.428 . S
H502 C498 0.930 . S
H503 C500 0.929 . S
S504 N505 1.613 . S
S504 N506 1.610 . S
N505 S504 1.613 . S
N505 C508 1.350 . S
N506 S504 1.610 . S
N506 C507 1.351 . S
C507 C501 1.428 . S
C507 N506 1.351 . S
C507 C508 1.434 . S
C508 C499 1.429 . S
C508 N505 1.350 . S
C508 C507 1.434 . S
C509 C510 1.369 . S
C509 C511 1.419 . S
C509 H513 0.930 . S
C510 C509 1.369 . S
C510 C519 1.429 . S
C511 C509 1.419 . S
C511 C512 1.363 . S
C511 H514 0.929 . S
C512 C511 1.363 . S
C512 C518 1.428 . S
H513 C509 0.930 . S
H514 C511 0.929 . S
S515 N516 1.613 . S
S515 N517 1.610 . S
N516 S515 1.613 . S
N516 C519 1.350 . S
N517 S515 1.610 . S
N517 C518 1.351 . S
C518 C512 1.428 . S
C518 N517 1.351 . S
C518 C519 1.434 . S
C519 C510 1.429 . S
C519 N516 1.350 . S
C519 C518 1.434 . S
C520 C521 1.369 . S
C520 C522 1.419 . S
C520 H524 0.930 . S
C521 C520 1.369 . S
C521 C530 1.429 1_554 S
C522 C520 1.419 . S
C522 C523 1.363 1_554 S
C522 H525 0.929 . S
C523 C522 1.363 1_556 S
C523 C529 1.428 . S
H524 C520 0.930 . S
H525 C522 0.929 . S
S526 N527 1.613 . S
S526 N528 1.610 . S
N527 S526 1.613 . S
N527 C530 1.350 . S
N528 S526 1.610 . S
N528 C529 1.351 . S
C529 C523 1.428 . S
C529 N528 1.351 . S
C529 C530 1.434 . S
C530 C521 1.429 1_556 S
C530 N527 1.350 . S
C530 C529 1.434 . S
C531 C532 1.369 . S
C531 C533 1.419 . S
C531 H535 0.930 . S
C532 C531 1.369 . S
C532 C541 1.429 . S
C533 C531 1.419 . S
C533 C534 1.363 . S
C533 H536 0.929 . S
C534 C533 1.363 . S
C534 C540 1.428 . S
H535 C531 0.930 . S
H536 C533 0.929 . S
S537 N538 1.613 . S
S537 N539 1.610 . S
N538 S537 1.613 . S
N538 C541 1.350 . S
N539 S537 1.610 . S
N539 C540 1.351 . S
C540 C534 1.428 . S
C540 N539 1.351 . S
C540 C541 1.434 . S
C541 C532 1.429 . S
C541 N538 1.350 . S
C541 C540 1.434 . S
C542 C543 1.369 . S
C542 C544 1.419 . S
C542 H546 0.930 . S
C543 C542 1.369 . S
C543 C552 1.429 . S
C544 C542 1.419 . S
C544 C545 1.363 . S
C544 H547 0.929 . S
C545 C544 1.363 . S
C545 C551 1.428 . S
H546 C542 0.930 . S
H547 C544 0.929 . S
S548 N549 1.613 . S
S548 N550 1.610 . S
N549 S548 1.613 . S
N549 C552 1.350 . S
N550 S548 1.610 . S
N550 C551 1.351 . S
C551 C545 1.428 . S
C551 N550 1.351 . S
C551 C552 1.434 . S
C552 C543 1.429 . S
C552 N549 1.350 . S
C552 C551 1.434 . S
C553 C554 1.369 . S
C553 C555 1.419 . S
C553 H557 0.930 . S
C554 C553 1.369 . S
C554 C563 1.429 1_556 S
C555 C553 1.419 . S
C555 C556 1.363 1_556 S
C555 H558 0.929 . S
C556 C555 1.363 1_554 S
C556 C562 1.428 . S
H557 C553 0.930 . S
H558 C555 0.929 . S
S559 N560 1.613 . S
S559 N561 1.610 . S
N560 S559 1.613 . S
N560 C563 1.350 . S
N561 S559 1.610 . S
N561 C562 1.351 . S
C562 C556 1.428 . S
C562 N561 1.351 . S
C562 C563 1.434 . S
C563 C554 1.429 1_554 S
C563 N560 1.350 . S
C563 C562 1.434 . S
C564 C565 1.369 . S
C564 C566 1.419 1_545 S
C564 H568 0.930 . S
C565 C564 1.369 . S
C565 C574 1.429 . S
C566 C564 1.419 1_565 S
C566 C567 1.363 . S
C566 H569 0.929 . S
C567 C566 1.363 . S
C567 C573 1.428 . S
H568 C564 0.930 . S
H569 C566 0.929 . S
S570 N571 1.613 . S
S570 N572 1.610 1_545 S
N571 S570 1.613 . S
N571 C574 1.350 . S
N572 S570 1.610 1_565 S
N572 C573 1.351 . S
C573 C567 1.428 . S
C573 N572 1.351 . S
C573 C574 1.434 1_565 S
C574 C565 1.429 . S
C574 N571 1.350 . S
C574 C573 1.434 1_545 S
C575 C576 1.369 . S
C575 C577 1.419 . S
C575 H579 0.930 . S
C576 C575 1.369 . S
C576 C585 1.429 . S
C577 C575 1.419 . S
C577 C578 1.363 . S
C577 H580 0.929 . S
C578 C577 1.363 . S
C578 C584 1.428 . S
H579 C575 0.930 . S
H580 C577 0.929 . S
S581 N582 1.613 . S
S581 N583 1.610 . S
N582 S581 1.613 . S
N582 C585 1.350 . S
N583 S581 1.610 . S
N583 C584 1.351 . S
C584 C578 1.428 . S
C584 N583 1.351 . S
C584 C585 1.434 . S
C585 C576 1.429 . S
C585 N582 1.350 . S
C585 C584 1.434 . S
C586 C587 1.369 . S
C586 C588 1.419 1_655 S
C586 H590 0.930 . S
C587 C586 1.369 . S
C587 C596 1.429 . S
C588 C586 1.419 1_455 S
C588 C589 1.363 . S
C588 H591 0.929 . S
C589 C588 1.363 . S
C589 C595 1.428 . S
H590 C586 0.930 . S
H591 C588 0.929 . S
S592 N593 1.613 1_455 S
S592 N594 1.610 . S
N593 S592 1.613 1_655 S
N593 C596 1.350 . S
N594 S592 1.610 . S
N594 C595 1.351 . S
C595 C589 1.428 . S
C595 N594 1.351 . S
C595 C596 1.434 1_455 S
C596 C587 1.429 . S
C596 N593 1.350 . S
C596 C595 1.434 1_655 S
C597 C598 1.369 . S
C597 C599 1.419 1_455 S
C597 H601 0.930 . S
C598 C597 1.369 . S
C598 C607 1.429 . S
C599 C597 1.419 1_655 S
C599 C600 1.363 . S
C599 H602 0.929 . S
C600 C599 1.363 . S
C600 C606 1.428 . S
H601 C597 0.930 . S
H602 C599 0.929 . S
S603 N604 1.613 . S
S603 N605 1.610 1_455 S
N604 S603 1.613 . S
N604 C607 1.350 . S
N605 S603 1.610 1_655 S
N605 C606 1.351 . S
C606 C600 1.428 . S
C606 N605 1.351 . S
C606 C607 1.434 1_655 S
C607 C598 1.429 . S
C607 N604 1.350 . S
C607 C606 1.434 1_455 S
C608 C609 1.369 . S
C608 C610 1.419 1_545 S
C608 H612 0.930 . S
C609 C608 1.369 . S
C609 C618 1.429 . S
C610 C608 1.419 1_565 S
C610 C611 1.363 . S
C610 H613 0.929 . S
C611 C610 1.363 . S
C611 C617 1.428 . S
H612 C608 0.930 . S
H613 C610 0.929 . S
S614 N615 1.613 . S
S614 N616 1.610 1_545 S
N615 S614 1.613 . S
N615 C618 1.350 . S
N616 S614 1.610 1_565 S
N616 C617 1.351 . S
C617 C611 1.428 . S
C617 N616 1.351 . S
C617 C618 1.434 1_565 S
C618 C609 1.429 . S
C618 N615 1.350 . S
C618 C617 1.434 1_545 S
C619 C620 1.369 . S
C619 C621 1.419 . S
C619 H623 0.930 . S
C620 C619 1.369 . S
C620 C629 1.429 . S
C621 C619 1.419 . S
C621 C622 1.363 . S
C621 H624 0.929 . S
C622 C621 1.363 . S
C622 C628 1.428 . S
H623 C619 0.930 . S
H624 C621 0.929 . S
S625 N626 1.613 . S
S625 N627 1.610 . S
N626 S625 1.613 . S
N626 C629 1.350 . S
N627 S625 1.610 . S
N627 C628 1.351 . S
C628 C622 1.428 . S
C628 N627 1.351 . S
C628 C629 1.434 . S
C629 C620 1.429 . S
C629 N626 1.350 . S
C629 C628 1.434 . S
C630 C631 1.369 . S
C630 C632 1.419 . S
C630 H634 0.930 . S
C631 C630 1.369 . S
C631 C640 1.429 . S
C632 C630 1.419 . S
C632 C633 1.363 . S
C632 H635 0.929 . S
C633 C632 1.363 . S
C633 C639 1.428 . S
H634 C630 0.930 . S
H635 C632 0.929 . S
S636 N637 1.613 . S
S636 N638 1.610 . S
N637 S636 1.613 . S
N637 C640 1.350 . S
N638 S636 1.610 . S
N638 C639 1.351 . S
C639 C633 1.428 . S
C639 N638 1.351 . S
C639 C640 1.434 . S
C640 C631 1.429 . S
C640 N637 1.350 . S
C640 C639 1.434 . S
C641 C642 1.369 . S
C641 C643 1.419 . S
C641 H645 0.930 . S
C642 C641 1.369 . S
C642 C651 1.429 . S
C643 C641 1.419 . S
C643 C644 1.363 . S
C643 H646 0.929 . S
C644 C643 1.363 . S
C644 C650 1.428 . S
H645 C641 0.930 . S
H646 C643 0.929 . S
S647 N648 1.613 . S
S647 N649 1.610 . S
N648 S647 1.613 . S
N648 C651 1.350 . S
N649 S647 1.610 . S
N649 C650 1.351 . S
C650 C644 1.428 . S
C650 N649 1.351 . S
C650 C651 1.434 . S
C651 C642 1.429 . S
C651 N648 1.350 . S
C651 C650 1.434 . S
C652 C653 1.369 . S
C652 C654 1.419 . S
C652 H656 0.930 . S
C653 C652 1.369 . S
C653 C662 1.429 . S
C654 C652 1.419 . S
C654 C655 1.363 . S
C654 H657 0.929 . S
C655 C654 1.363 . S
C655 C661 1.428 . S
H656 C652 0.930 . S
H657 C654 0.929 . S
S658 N659 1.613 . S
S658 N660 1.610 . S
N659 S658 1.613 . S
N659 C662 1.350 . S
N660 S658 1.610 . S
N660 C661 1.351 . S
C661 C655 1.428 . S
C661 N660 1.351 . S
C661 C662 1.434 . S
C662 C653 1.429 . S
C662 N659 1.350 . S
C662 C661 1.434 . S
C663 C664 1.369 . S
C663 C665 1.419 . S
C663 H667 0.930 . S
C664 C663 1.369 . S
C664 C673 1.429 . S
C665 C663 1.419 . S
C665 C666 1.363 . S
C665 H668 0.929 . S
C666 C665 1.363 . S
C666 C672 1.428 . S
H667 C663 0.930 . S
H668 C665 0.929 . S
S669 N670 1.613 . S
S669 N671 1.610 . S
N670 S669 1.613 . S
N670 C673 1.350 . S
N671 S669 1.610 . S
N671 C672 1.351 . S
C672 C666 1.428 . S
C672 N671 1.351 . S
C672 C673 1.434 . S
C673 C664 1.429 . S
C673 N670 1.350 . S
C673 C672 1.434 . S
C674 C675 1.369 . S
C674 C676 1.419 . S
C674 H678 0.930 . S
C675 C674 1.369 . S
C675 C684 1.429 . S
C676 C674 1.419 . S
C676 C677 1.363 . S
C676 H679 0.929 . S
C677 C676 1.363 . S
C677 C683 1.428 . S
H678 C674 0.930 . S
H679 C676 0.929 . S
S680 N681 1.613 . S
S680 N682 1.610 . S
N681 S680 1.613 . S
N681 C684 1.350 . S
N682 S680 1.610 . S
N682 C683 1.351 . S
C683 C677 1.428 . S
C683 N682 1.351 . S
C683 C684 1.434 . S
C684 C675 1.429 . S
C684 N681 1.350 . S
C684 C683 1.434 . S
C685 C686 1.369 . S
C685 C687 1.419 . S
C685 H689 0.930 . S
C686 C685 1.369 . S
C686 C695 1.429 . S
C687 C685 1.419 . S
C687 C688 1.363 . S
C687 H690 0.929 . S
C688 C687 1.363 . S
C688 C694 1.428 . S
H689 C685 0.930 . S
H690 C687 0.929 . S
S691 N692 1.613 . S
S691 N693 1.610 . S
N692 S691 1.613 . S
N692 C695 1.350 . S
N693 S691 1.610 . S
N693 C694 1.351 . S
C694 C688 1.428 . S
C694 N693 1.351 . S
C694 C695 1.434 . S
C695 C686 1.429 . S
C695 N692 1.350 . S
C695 C694 1.434 . S
C433 C4 1.668 . S
C435 C364 1.655 . S
C444 C40 1.659 . S
C446 C400 1.664 . S
C455 C220 1.654 . S
C457 C76 1.666 . S
C466 C112 1.667 . S
C468 C256 1.655 . S
C477 C292 1.667 . S
C479 C148 1.657 . S
C488 C328 1.668 . S
C490 C184 1.656 . S
C499 C218 0.732 . S
C501 C2 0.744 . S
C510 C254 0.729 . S
C512 C38 0.733 . S
C521 C290 0.726 . S
C523 C74 0.739 . S
C532 C110 0.726 . S
C534 C326 0.737 . S
C543 C146 0.745 . S
C545 C362 0.730 . S
C554 C182 0.726 . S
C556 C398 0.737 . S
C565 C14 1.289 . S
C567 C122 1.292 . S
C576 C50 1.281 . S
C578 C158 1.284 . S
C587 C86 1.290 . S
C589 C194 1.285 . S
C598 C338 1.293 . S
C600 C230 1.292 . S
C609 C374 1.291 . S
C611 C266 1.292 . S
C620 C410 1.288 . S
C622 C302 1.291 . S
C631 C3 1.594 . S
C633 C291 1.594 . S
C642 C327 1.593 . S
C644 C39 1.594 . S
C653 C75 1.595 . S
C655 C363 1.595 . S
C664 C399 1.599 . S
C666 C111 1.598 . S
C675 C147 1.596 . S
C677 C219 1.597 . S
C686 C183 1.599 . S
C688 C255 1.599 . S
