# Generated by pormake.
# Topology qtz-f, (3)-cn, num edge types: 1
# Building blocks:
#     Node 0, Type 0, BuildingBlock: WUSLED_clean_sbu_0, # of connection points: 3
#     Node 1, Type 0, BuildingBlock: WUSLED_clean_sbu_0, # of connection points: 3
#     Node 2, Type 0, BuildingBlock: WUSLED_clean_sbu_0, # of connection points: 3
#     Node 3, Type 0, BuildingBlock: WUSLED_clean_sbu_0, # of connection points: 3
#     Node 4, Type 0, BuildingBlock: WUSLED_clean_sbu_0, # of connection points: 3
#     Node 5, Type 0, BuildingBlock: WUSLED_clean_sbu_0, # of connection points: 3
#     Node 6, Type 0, BuildingBlock: WUSLED_clean_sbu_0, # of connection points: 3
#     Node 7, Type 0, BuildingBlock: WUSLED_clean_sbu_0, # of connection points: 3
#     Node 8, Type 0, BuildingBlock: WUSLED_clean_sbu_0, # of connection points: 3
#     Node 9, Type 0, BuildingBlock: WUSLED_clean_sbu_0, # of connection points: 3
#     Node 10, Type 0, BuildingBlock: WUSLED_clean_sbu_0, # of connection points: 3
#     Node 11, Type 0, BuildingBlock: WUSLED_clean_sbu_0, # of connection points: 3
#     Edge 12, Type (0, 0), BuildingBlock: KIFKEQ_clean_linker_1, # of connection points: 2
#     Edge 13, Type (0, 0), BuildingBlock: KIFKEQ_clean_linker_1, # of connection points: 2
#     Edge 14, Type (0, 0), BuildingBlock: KIFKEQ_clean_linker_1, # of connection points: 2
#     Edge 15, Type (0, 0), BuildingBlock: KIFKEQ_clean_linker_1, # of connection points: 2
#     Edge 16, Type (0, 0), BuildingBlock: KIFKEQ_clean_linker_1, # of connection points: 2
#     Edge 17, Type (0, 0), BuildingBlock: KIFKEQ_clean_linker_1, # of connection points: 2
#     Edge 18, Type (0, 0), BuildingBlock: KIFKEQ_clean_linker_1, # of connection points: 2
#     Edge 19, Type (0, 0), BuildingBlock: KIFKEQ_clean_linker_1, # of connection points: 2
#     Edge 20, Type (0, 0), BuildingBlock: KIFKEQ_clean_linker_1, # of connection points: 2
#     Edge 21, Type (0, 0), BuildingBlock: KIFKEQ_clean_linker_1, # of connection points: 2
#     Edge 22, Type (0, 0), BuildingBlock: KIFKEQ_clean_linker_1, # of connection points: 2
#     Edge 23, Type (0, 0), BuildingBlock: KIFKEQ_clean_linker_1, # of connection points: 2
#     Edge 24, Type (0, 0), BuildingBlock: KIFKEQ_clean_linker_1, # of connection points: 2
#     Edge 25, Type (0, 0), BuildingBlock: KIFKEQ_clean_linker_1, # of connection points: 2
#     Edge 26, Type (0, 0), BuildingBlock: KIFKEQ_clean_linker_1, # of connection points: 2
#     Edge 27, Type (0, 0), BuildingBlock: KIFKEQ_clean_linker_1, # of connection points: 2
#     Edge 28, Type (0, 0), BuildingBlock: KIFKEQ_clean_linker_1, # of connection points: 2
#     Edge 29, Type (0, 0), BuildingBlock: KIFKEQ_clean_linker_1, # of connection points: 2
# Relax obj value: 0.121
# Max RMSD: 0.087
# Mean RMSD: 0.087
data_MOF--net-qtz-f--node1-WUSLED_clean_sbu_0--edge1-KIFKEQ_clean_linker_1
_symmetry_space_group_name_H-M    P1
_symmetry_Int_Tables_number       1
_symmetry_cell_setting            triclinic
loop_
_symmetry_equiv_pos_as_xyz
'x, y, z'
_cell_length_a     95.90998
_cell_length_b     95.866486
_cell_length_c     57.282544
_cell_angle_alpha  90.016989
_cell_angle_beta   90.200841
_cell_angle_gamma 119.98518
loop_
_atom_site_label
_atom_site_type_symbol
_atom_site_fract_x
_atom_site_fract_y
_atom_site_fract_z
_atom_type_partial_charge
C0 C 0.10707 0.41553 0.13476 0.0
C1 C 0.10227 0.41937 0.15579 0.0
C2 C 0.07494 0.39701 0.15031 0.0
C3 C 0.08642 0.41015 0.16355 0.0
C4 C 0.0799 0.39301 0.12947 0.0
C5 C 0.09582 0.4022 0.12178 0.0
U6 U 0.14244 0.45737 0.12932 0.0
O7 O 0.16864 0.46714 0.12941 0.0
O8 O 0.15689 0.47098 0.09908 0.0
C9 C 0.17034 0.47283 0.10808 0.0
C10 C 0.12328 0.42621 0.12532 0.0
C11 C 0.18032 0.46944 0.09229 0.0
C12 C 0.18567 0.45094 0.07027 0.0
C13 C 0.17601 0.45366 0.08583 0.0
C14 C 0.20396 0.47972 0.06772 0.0
C15 C 0.19968 0.46398 0.06088 0.0
C16 C 0.19436 0.4824 0.08325 0.0
C17 C 0.13803 0.49045 0.16065 0.0
C18 C 0.15033 0.51868 0.14987 0.0
C19 C 0.13611 0.50946 0.18654 0.0
C20 C 0.1329 0.49385 0.18166 0.0
C21 C 0.14444 0.52197 0.17038 0.0
C22 C 0.14716 0.50304 0.14505 0.0
C23 C 0.13254 0.47357 0.15455 0.0
O24 O 0.12394 0.43654 0.10968 0.0
O25 O 0.13502 0.43272 0.14078 0.0
O26 O 0.14085 0.4673 0.16335 0.0
O27 O 0.12844 0.46965 0.1326 0.0
H28 H 0.11069 0.42972 0.166 0.0
H29 H 0.08314 0.41344 0.17986 0.0
H30 H 0.07137 0.38312 0.11866 0.0
H31 H 0.09925 0.39917 0.10537 0.0
H32 H 0.18202 0.43869 0.06524 0.0
H33 H 0.16516 0.44351 0.09265 0.0
H34 H 0.2148 0.49 0.06115 0.0
H35 H 0.19788 0.49465 0.08815 0.0
H36 H 0.1567 0.52799 0.13699 0.0
H37 H 0.13169 0.51164 0.20271 0.0
H38 H 0.12591 0.4843 0.19397 0.0
H39 H 0.15131 0.50068 0.12875 0.0
C40 C 0.69889 0.1013 0.46587 0.0
C41 C 0.6853 0.094 0.48028 0.0
C42 C 0.6866 0.06928 0.48112 0.0
C43 C 0.67922 0.07816 0.48786 0.0
C44 C 0.70028 0.07668 0.4667 0.0
C45 C 0.70638 0.09258 0.45916 0.0
U46 U 0.69279 0.13694 0.46059 0.0
O47 O 0.7094 0.16306 0.46369 0.0
O48 O 0.69582 0.15292 0.43119 0.0
C49 C 0.70696 0.16581 0.442 0.0
C50 C 0.70486 0.11778 0.45734 0.0
C51 C 0.72147 0.17619 0.42838 0.0
C52 C 0.74382 0.18019 0.4039 0.0
C53 C 0.73037 0.17007 0.41744 0.0
C54 C 0.73968 0.20261 0.41244 0.0
C55 C 0.7486 0.19658 0.40119 0.0
C56 C 0.72626 0.1925 0.42589 0.0
C57 C 0.65428 0.13214 0.48827 0.0
C58 C 0.6455 0.15182 0.48436 0.0
C59 C 0.62922 0.12712 0.50579 0.0
C60 C 0.64052 0.12233 0.50136 0.0
C61 C 0.63149 0.14186 0.4972 0.0
C62 C 0.65683 0.147 0.47993 0.0
C63 C 0.66544 0.12633 0.48278 0.0
O64 O 0.696 0.11906 0.44085 0.0
O65 O 0.70915 0.12882 0.4737 0.0
O66 O 0.67953 0.13386 0.49325 0.0
O67 O 0.66636 0.12345 0.46058 0.0
H68 H 0.67927 0.10052 0.48547 0.0
H69 H 0.66853 0.07276 0.49862 0.0
H70 H 0.70633 0.07023 0.46136 0.0
H71 H 0.71687 0.09803 0.44799 0.0
H72 H 0.75052 0.17521 0.39564 0.0
H73 H 0.72685 0.15748 0.41926 0.0
H74 H 0.74284 0.21508 0.41045 0.0
H75 H 0.71948 0.19741 0.43415 0.0
H76 H 0.64768 0.16331 0.47767 0.0
H77 H 0.61846 0.119 0.51536 0.0
H78 H 0.63835 0.11079 0.50781 0.0
H79 H 0.66744 0.15472 0.46977 0.0
C80 C 0.61049 0.69558 0.80473 0.0
C81 C 0.60613 0.68627 0.82516 0.0
C82 C 0.6289 0.68186 0.82071 0.0
C83 C 0.61529 0.6796 0.83315 0.0
C84 C 0.63341 0.69147 0.80048 0.0
C85 C 0.62428 0.69826 0.79259 0.0
U86 U 0.56867 0.68854 0.79466 0.0
O87 O 0.55836 0.70456 0.79598 0.0
O88 O 0.55688 0.69151 0.76367 0.0
C89 C 0.55443 0.70243 0.77371 0.0
C90 C 0.60003 0.70135 0.795 0.0
C91 C 0.5586 0.71707 0.76002 0.0
C92 C 0.56962 0.73357 0.72525 0.0
C93 C 0.56746 0.72066 0.7392 0.0
C94 C 0.55471 0.73994 0.75316 0.0
C95 C 0.563 0.74318 0.73183 0.0
C96 C 0.55249 0.72699 0.76702 0.0
C97 C 0.53437 0.6484 0.81816 0.0
C98 C 0.50626 0.64079 0.82314 0.0
C99 C 0.51386 0.62022 0.82092 0.0
C100 C 0.52996 0.6321 0.81848 0.0
C101 C 0.50182 0.6244 0.82317 0.0
C102 C 0.52243 0.65272 0.8205 0.0
C103 C 0.55144 0.66046 0.8149 0.0
O104 O 0.59094 0.6928 0.77742 0.0
O105 O 0.59225 0.70512 0.81033 0.0
O106 O 0.55689 0.67424 0.826 0.0
O107 O 0.55666 0.66211 0.79335 0.0
H108 H 0.59544 0.68389 0.83475 0.0
H109 H 0.6116 0.67252 0.849 0.0
H110 H 0.64367 0.69331 0.79027 0.0
H111 H 0.62775 0.70526 0.77664 0.0
H112 H 0.57594 0.73562 0.70886 0.0
H113 H 0.57233 0.71323 0.73332 0.0
H114 H 0.54971 0.74726 0.75901 0.0
H115 H 0.54562 0.72448 0.78299 0.0
H116 H 0.49722 0.64434 0.82472 0.0
H117 H 0.51085 0.60772 0.82124 0.0
H118 H 0.53901 0.62855 0.81674 0.0
H119 H 0.52559 0.66526 0.82013 0.0
C120 C 0.92428 0.60465 0.13556 0.0
C121 C 0.9293 0.60077 0.15642 0.0
C122 C 0.95659 0.62309 0.1508 0.0
C123 C 0.94524 0.60995 0.16403 0.0
C124 C 0.95144 0.62707 0.13008 0.0
C125 C 0.93543 0.61794 0.12256 0.0
U126 U 0.88844 0.56303 0.12909 0.0
O127 O 0.86232 0.55363 0.13134 0.0
O128 O 0.87279 0.55036 0.09916 0.0
C129 C 0.85982 0.54871 0.10951 0.0
C130 C 0.90785 0.59421 0.12648 0.0
C131 C 0.84954 0.55299 0.09564 0.0
C132 C 0.84574 0.56856 0.06531 0.0
C133 C 0.85598 0.56546 0.07912 0.0
C134 C 0.82262 0.54709 0.0849 0.0
C135 C 0.82893 0.55932 0.06796 0.0
C136 C 0.83283 0.54396 0.09856 0.0
C137 C 0.89322 0.52911 0.15737 0.0
C138 C 0.88063 0.50088 0.1462 0.0
C139 C 0.89545 0.50998 0.18262 0.0
C140 C 0.89866 0.52562 0.17808 0.0
C141 C 0.8868 0.49751 0.16642 0.0
C142 C 0.88382 0.51657 0.14171 0.0
C143 C 0.89867 0.54604 0.15175 0.0
O144 O 0.90671 0.58419 0.10994 0.0
O145 O 0.89646 0.58745 0.14228 0.0
O146 O 0.89097 0.55249 0.16196 0.0
O147 O 0.9019 0.55007 0.12968 0.0
H148 H 0.92096 0.59047 0.16667 0.0
H149 H 0.94867 0.60667 0.18026 0.0
H150 H 0.95986 0.63695 0.11927 0.0
H151 H 0.93183 0.62101 0.10629 0.0
H152 H 0.85097 0.57816 0.05257 0.0
H153 H 0.86888 0.57266 0.07668 0.0
H154 H 0.80974 0.5396 0.08717 0.0
H155 H 0.82764 0.53426 0.11117 0.0
H156 H 0.874 0.49158 0.13333 0.0
H157 H 0.9001 0.50773 0.19856 0.0
H158 H 0.90585 0.53512 0.19044 0.0
H159 H 0.87944 0.519 0.12564 0.0
C160 C 0.33115 0.92004 0.46879 0.0
C161 C 0.34003 0.92483 0.48969 0.0
C162 C 0.34509 0.95222 0.48462 0.0
C163 C 0.34683 0.94071 0.49759 0.0
C164 C 0.33599 0.94729 0.46382 0.0
C165 C 0.32908 0.93135 0.456 0.0
U166 U 0.33582 0.88347 0.46307 0.0
O167 O 0.31845 0.85746 0.46459 0.0
O168 O 0.33305 0.86793 0.43315 0.0
C169 C 0.32134 0.85501 0.44301 0.0
C170 C 0.32498 0.90363 0.45952 0.0
C171 C 0.30711 0.8452 0.42835 0.0
C172 C 0.28639 0.84246 0.4011 0.0
C173 C 0.29955 0.85209 0.41562 0.0
C174 C 0.2881 0.81899 0.41233 0.0
C175 C 0.28056 0.82579 0.39922 0.0
C176 C 0.30124 0.82861 0.42672 0.0
C177 C 0.37292 0.88618 0.49336 0.0
C178 C 0.38549 0.87023 0.48419 0.0
C179 C 0.39389 0.88735 0.51851 0.0
C180 C 0.38265 0.89211 0.5133 0.0
C181 C 0.39564 0.87656 0.50382 0.0
C182 C 0.37417 0.87496 0.47904 0.0
C183 C 0.3623 0.89258 0.48723 0.0
O184 O 0.3341 0.90236 0.44358 0.0
O185 O 0.31969 0.89207 0.47517 0.0
O186 O 0.34792 0.88529 0.49667 0.0
O187 O 0.36219 0.89614 0.4651 0.0
H188 H 0.34192 0.91635 0.49977 0.0
H189 H 0.35352 0.94396 0.51386 0.0
H190 H 0.33458 0.95585 0.4532 0.0
H191 H 0.32242 0.92792 0.4397 0.0
H192 H 0.28076 0.84803 0.3914 0.0
H193 H 0.3039 0.8649 0.41676 0.0
H194 H 0.28411 0.80627 0.41103 0.0
H195 H 0.30697 0.82311 0.43639 0.0
H196 H 0.38644 0.86179 0.47267 0.0
H197 H 0.40165 0.89263 0.53357 0.0
H198 H 0.38187 0.9008 0.52451 0.0
H199 H 0.36667 0.87017 0.46362 0.0
C200 C 0.42155 0.32559 0.80226 0.0
C201 C 0.42574 0.33454 0.82309 0.0
C202 C 0.4034 0.33959 0.81807 0.0
C203 C 0.4167 0.34136 0.83098 0.0
C204 C 0.39909 0.33038 0.79739 0.0
C205 C 0.40809 0.32345 0.78958 0.0
U206 U 0.46308 0.33154 0.79503 0.0
O207 O 0.47278 0.31505 0.79737 0.0
O208 O 0.47548 0.32845 0.76499 0.0
C209 C 0.47758 0.31745 0.77553 0.0
C210 C 0.43186 0.31957 0.79289 0.0
C211 C 0.47359 0.30292 0.76185 0.0
C212 C 0.45656 0.28167 0.73455 0.0
C213 C 0.45955 0.29505 0.74818 0.0
C214 C 0.48141 0.28378 0.74856 0.0
C215 C 0.46751 0.27593 0.73453 0.0
C216 C 0.4844 0.29713 0.76205 0.0
C217 C 0.49715 0.37015 0.82251 0.0
C218 C 0.52557 0.37909 0.81781 0.0
C219 C 0.51734 0.39532 0.8399 0.0
C220 C 0.50123 0.38393 0.83577 0.0
C221 C 0.52974 0.39312 0.83083 0.0
C222 C 0.50938 0.36768 0.81369 0.0
C223 C 0.48013 0.35893 0.81733 0.0
O224 O 0.44164 0.3284 0.77617 0.0
O225 O 0.43886 0.31502 0.80853 0.0
O226 O 0.47377 0.34483 0.82766 0.0
O227 O 0.476 0.35798 0.79525 0.0
H228 H 0.43618 0.33651 0.83309 0.0
H229 H 0.42024 0.34812 0.84717 0.0
H230 H 0.38906 0.32893 0.78683 0.0
H231 H 0.40476 0.31673 0.77334 0.0
H232 H 0.44568 0.27581 0.72408 0.0
H233 H 0.45101 0.29933 0.74788 0.0
H234 H 0.49023 0.27987 0.74868 0.0
H235 H 0.49532 0.30309 0.77243 0.0
H236 H 0.53481 0.37697 0.81076 0.0
H237 H 0.52008 0.40609 0.84961 0.0
H238 H 0.49192 0.38605 0.84259 0.0
H239 H 0.5064 0.35706 0.80339 0.0
C240 C 0.61058 0.92097 0.54829 0.0
C241 C 0.60372 0.92813 0.53459 0.0
C242 C 0.6297 0.95277 0.53189 0.0
C243 C 0.61319 0.94386 0.52642 0.0
C244 C 0.63654 0.94547 0.54551 0.0
C245 C 0.62704 0.92969 0.55363 0.0
U246 U 0.56898 0.88614 0.5585 0.0
O247 O 0.55878 0.85982 0.5566 0.0
O248 O 0.5576 0.87117 0.58931 0.0
C249 C 0.55506 0.85787 0.5789 0.0
C250 C 0.60036 0.90472 0.55779 0.0
C251 C 0.55934 0.8473 0.59218 0.0
C252 C 0.57036 0.84148 0.62678 0.0
C253 C 0.56825 0.85239 0.61308 0.0
C254 C 0.55533 0.82045 0.59842 0.0
C255 C 0.56363 0.82528 0.61986 0.0
C256 C 0.55315 0.83132 0.58481 0.0
C257 C 0.53419 0.89172 0.53629 0.0
C258 C 0.5062 0.87101 0.53064 0.0
C259 C 0.51333 0.89897 0.53471 0.0
C260 C 0.52951 0.9034 0.53701 0.0
C261 C 0.50148 0.88273 0.53157 0.0
C262 C 0.52244 0.87546 0.53313 0.0
C263 C 0.55136 0.89693 0.53919 0.0
O264 O 0.59146 0.90404 0.57562 0.0
O265 O 0.59236 0.8934 0.54216 0.0
O266 O 0.5568 0.88879 0.52762 0.0
O267 O 0.55685 0.90042 0.56069 0.0
H268 H 0.59097 0.92162 0.53049 0.0
H269 H 0.60747 0.94918 0.51632 0.0
H270 H 0.64924 0.95195 0.54985 0.0
H271 H 0.63251 0.92435 0.56426 0.0
H272 H 0.5767 0.84561 0.64325 0.0
H273 H 0.57318 0.86465 0.61925 0.0
H274 H 0.55024 0.80816 0.59231 0.0
H275 H 0.54624 0.8271 0.56878 0.0
H276 H 0.49731 0.8584 0.52836 0.0
H277 H 0.5101 0.9083 0.53514 0.0
H278 H 0.5384 0.916 0.53939 0.0
H279 H 0.52581 0.86622 0.53268 0.0
C280 C 0.70048 0.60375 0.88469 0.0
C281 C 0.69278 0.60072 0.86287 0.0
C282 C 0.68725 0.62265 0.86903 0.0
C283 C 0.68634 0.61014 0.85505 0.0
C284 C 0.69528 0.62585 0.89069 0.0
C285 C 0.70184 0.61648 0.89842 0.0
U286 U 0.69395 0.56176 0.88948 0.0
O287 O 0.71047 0.55208 0.88947 0.0
O288 O 0.69475 0.54794 0.91958 0.0
C289 C 0.70646 0.54627 0.91073 0.0
C290 C 0.70585 0.59287 0.89404 0.0
C291 C 0.71982 0.54976 0.92672 0.0
C292 C 0.74409 0.56846 0.94791 0.0
C293 C 0.73167 0.5656 0.93224 0.0
C294 C 0.73287 0.53969 0.95255 0.0
C295 C 0.74474 0.55551 0.95837 0.0
C296 C 0.72055 0.53686 0.93689 0.0
C297 C 0.65699 0.52879 0.85748 0.0
C298 C 0.64783 0.50027 0.86165 0.0
C299 C 0.63215 0.50892 0.83893 0.0
C300 C 0.64353 0.52497 0.84358 0.0
C301 C 0.63404 0.49634 0.84813 0.0
C302 C 0.65921 0.51638 0.86631 0.0
C303 C 0.66798 0.54568 0.86374 0.0
O304 O 0.69605 0.58238 0.90936 0.0
O305 O 0.7112 0.58652 0.87859 0.0
O306 O 0.68263 0.5522 0.85525 0.0
O307 O 0.66765 0.54924 0.88579 0.0
H308 H 0.69143 0.59086 0.85203 0.0
H309 H 0.6805 0.60749 0.83813 0.0
H310 H 0.69603 0.63523 0.90206 0.0
H311 H 0.70757 0.61889 0.91543 0.0
H312 H 0.75299 0.58078 0.95216 0.0
H313 H 0.73124 0.57571 0.92456 0.0
H314 H 0.73317 0.52945 0.95997 0.0
H315 H 0.71152 0.52456 0.93275 0.0
H316 H 0.64973 0.49089 0.8688 0.0
H317 H 0.62158 0.50638 0.82882 0.0
H318 H 0.64159 0.53442 0.83678 0.0
H319 H 0.66957 0.51916 0.87714 0.0
C320 C 0.10639 0.69642 0.21507 0.0
C321 C 0.10161 0.68783 0.19393 0.0
C322 C 0.07416 0.68243 0.1994 0.0
C323 C 0.08571 0.68102 0.18611 0.0
C324 C 0.07908 0.69129 0.22039 0.0
C325 C 0.09505 0.69822 0.22812 0.0
U326 U 0.14217 0.6906 0.22221 0.0
O327 O 0.16832 0.70734 0.22078 0.0
O328 O 0.1574 0.69329 0.25255 0.0
C329 C 0.17053 0.70464 0.24261 0.0
C330 C 0.12275 0.70238 0.22444 0.0
C331 C 0.18051 0.71901 0.25693 0.0
C332 C 0.18358 0.74011 0.2836 0.0
C333 C 0.17382 0.72687 0.26929 0.0
C334 C 0.20681 0.73789 0.27284 0.0
C335 C 0.2002 0.74571 0.28563 0.0
C336 C 0.19706 0.72468 0.25865 0.0
C337 C 0.13779 0.65207 0.19403 0.0
C338 C 0.14959 0.63591 0.2062 0.0
C339 C 0.13654 0.63129 0.16844 0.0
C340 C 0.13327 0.6437 0.17278 0.0
C341 C 0.14431 0.62691 0.18537 0.0
C342 C 0.14638 0.6484 0.21049 0.0
C343 C 0.13223 0.66352 0.19932 0.0
O344 O 0.12373 0.69342 0.24099 0.0
O345 O 0.13429 0.70708 0.20887 0.0
O346 O 0.14008 0.67771 0.18929 0.0
O347 O 0.12863 0.66421 0.22124 0.0
H348 H 0.1101 0.68613 0.18363 0.0
H349 H 0.08246 0.67453 0.16969 0.0
H350 H 0.0705 0.69245 0.23126 0.0
H351 H 0.09845 0.70465 0.24461 0.0
H352 H 0.17815 0.74595 0.29304 0.0
H353 H 0.16105 0.72269 0.26806 0.0
H354 H 0.21949 0.74171 0.27426 0.0
H355 H 0.20242 0.71872 0.24927 0.0
H356 H 0.15553 0.63281 0.21966 0.0
H357 H 0.1326 0.62483 0.15203 0.0
H358 H 0.12673 0.64643 0.15982 0.0
H359 H 0.15006 0.65477 0.22699 0.0
C360 C 0.42136 0.10164 0.55068 0.0
C361 C 0.42502 0.09695 0.52941 0.0
C362 C 0.40309 0.06944 0.53494 0.0
C363 C 0.41592 0.08107 0.52155 0.0
C364 C 0.39928 0.07428 0.55606 0.0
C365 C 0.40834 0.09024 0.56384 0.0
U366 U 0.46293 0.13749 0.55588 0.0
O367 O 0.4723 0.16365 0.55514 0.0
O368 O 0.4766 0.15253 0.5858 0.0
C369 C 0.4782 0.16577 0.57643 0.0
C370 C 0.43188 0.11797 0.56007 0.0
C371 C 0.47488 0.17596 0.59192 0.0
C372 C 0.45702 0.18045 0.61686 0.0
C373 C 0.45953 0.17063 0.60129 0.0
C374 C 0.4851 0.20099 0.61347 0.0
C375 C 0.46986 0.19567 0.62335 0.0
C376 C 0.48757 0.19123 0.59793 0.0
C377 C 0.49612 0.13356 0.52477 0.0
C378 C 0.52463 0.15286 0.52929 0.0
C379 C 0.51597 0.12877 0.50602 0.0
C380 C 0.49993 0.12405 0.51062 0.0
C381 C 0.52855 0.14314 0.51551 0.0
C382 C 0.50853 0.1481 0.5339 0.0
C383 C 0.47923 0.1276 0.53089 0.0
O384 O 0.44239 0.11895 0.57572 0.0
O385 O 0.43813 0.12962 0.54454 0.0
O386 O 0.47256 0.1355 0.52196 0.0
O387 O 0.47575 0.12396 0.55301 0.0
H388 H 0.43512 0.1055 0.51903 0.0
H389 H 0.41905 0.07788 0.50503 0.0
H390 H 0.38963 0.06564 0.56699 0.0
H391 H 0.40545 0.09358 0.58044 0.0
H392 H 0.44516 0.17598 0.62427 0.0
H393 H 0.44959 0.15883 0.59681 0.0
H394 H 0.49517 0.21275 0.61777 0.0
H395 H 0.49948 0.19555 0.59077 0.0
H396 H 0.53401 0.16407 0.53668 0.0
H397 H 0.51851 0.12084 0.4957 0.0
H398 H 0.49049 0.11274 0.50357 0.0
H399 H 0.50575 0.15558 0.54491 0.0
C400 C 0.33118 0.41654 0.88452 0.0
C401 C 0.33955 0.42028 0.86328 0.0
C402 C 0.34515 0.39833 0.86879 0.0
C403 C 0.34635 0.41121 0.85543 0.0
C404 C 0.33655 0.3945 0.88993 0.0
C405 C 0.32963 0.40352 0.89769 0.0
U406 U 0.33608 0.45785 0.89049 0.0
O407 O 0.3189 0.4667 0.88811 0.0
O408 O 0.333 0.47054 0.92022 0.0
C409 C 0.32148 0.47188 0.90981 0.0
C410 C 0.32503 0.4268 0.89369 0.0
C411 C 0.30702 0.4676 0.92375 0.0
C412 C 0.28742 0.45154 0.9534 0.0
C413 C 0.30074 0.45472 0.93962 0.0
C414 C 0.28634 0.47377 0.93513 0.0
C415 C 0.28012 0.46109 0.95137 0.0
C416 C 0.29966 0.47698 0.9215 0.0
C417 C 0.37358 0.49211 0.86107 0.0
C418 C 0.38605 0.52069 0.86987 0.0
C419 C 0.39478 0.51171 0.83629 0.0
C420 C 0.3835 0.49575 0.84151 0.0
C421 C 0.39637 0.52437 0.85059 0.0
C422 C 0.3747 0.50467 0.87504 0.0
C423 C 0.36282 0.47512 0.86715 0.0
O424 O 0.33405 0.43709 0.90993 0.0
O425 O 0.31989 0.4332 0.87795 0.0
O426 O 0.34853 0.46808 0.85725 0.0
O427 O 0.36248 0.47149 0.88934 0.0
H428 H 0.34105 0.43037 0.85288 0.0
H429 H 0.35263 0.41437 0.8389 0.0
H430 H 0.33556 0.38482 0.90084 0.0
H431 H 0.32337 0.40055 0.91424 0.0
H432 H 0.28283 0.4416 0.9656 0.0
H433 H 0.30622 0.44727 0.94152 0.0
H434 H 0.28119 0.48152 0.93338 0.0
H435 H 0.30436 0.48699 0.90941 0.0
H436 H 0.38688 0.53017 0.88109 0.0
H437 H 0.40267 0.51407 0.82152 0.0
H438 H 0.38282 0.4862 0.83058 0.0
H439 H 0.36705 0.50208 0.89017 0.0
C440 C 0.92616 0.32494 0.21731 0.0
C441 C 0.93046 0.33317 0.19593 0.0
C442 C 0.95797 0.33845 0.2004 0.0
C443 C 0.94615 0.33975 0.18749 0.0
C444 C 0.95351 0.32993 0.22164 0.0
C445 C 0.93775 0.32324 0.22998 0.0
U446 U 0.89017 0.33047 0.22499 0.0
O447 O 0.86411 0.31348 0.22598 0.0
O448 O 0.87622 0.32897 0.25627 0.0
C449 C 0.86284 0.31689 0.24785 0.0
C450 C 0.91009 0.31926 0.22736 0.0
C451 C 0.85366 0.30315 0.26384 0.0
C452 C 0.83648 0.27442 0.27099 0.0
C453 C 0.84626 0.28709 0.256 0.0
C454 C 0.84158 0.29354 0.30203 0.0
C455 C 0.83391 0.27751 0.29411 0.0
C456 C 0.85128 0.3062 0.28704 0.0
C457 C 0.8928 0.3675 0.19411 0.0
C458 C 0.88155 0.38425 0.20564 0.0
C459 C 0.89286 0.38701 0.16704 0.0
C460 C 0.89632 0.3748 0.1721 0.0
C461 C 0.88589 0.39223 0.184 0.0
C462 C 0.88496 0.37198 0.21066 0.0
C463 C 0.89873 0.35642 0.19997 0.0
O464 O 0.90954 0.32885 0.24326 0.0
O465 O 0.89804 0.31382 0.2124 0.0
O466 O 0.89063 0.34179 0.19124 0.0
O467 O 0.90327 0.35677 0.22174 0.0
H468 H 0.92175 0.33477 0.18592 0.0
H469 H 0.94905 0.34599 0.17091 0.0
H470 H 0.96231 0.32888 0.23223 0.0
H471 H 0.93472 0.3171 0.24664 0.0
H472 H 0.83085 0.26219 0.26442 0.0
H473 H 0.84778 0.2843 0.2382 0.0
H474 H 0.83967 0.29637 0.31962 0.0
H475 H 0.85664 0.31845 0.29347 0.0
H476 H 0.87625 0.38803 0.21914 0.0
H477 H 0.89607 0.39267 0.15004 0.0
H478 H 0.90228 0.37145 0.15905 0.0
H479 H 0.88206 0.36643 0.22776 0.0
H480 H 0.25284 0.46168 0.93907 0.0
H481 H 0.27657 0.4545 0.99824 0.0
H482 H 0.23196 0.46029 0.96473 0.0
H483 H 0.25568 0.45315 0.02396 0.0
H484 H 0.20924 0.44132 0.06217 0.0
H485 H 0.22707 0.43818 0.03487 0.0
H486 H 0.23117 0.47801 0.99423 0.0
H487 H 0.21308 0.4808 0.02095 0.0
C488 C 0.25357 0.45975 0.95756 0.0
C489 C 0.26647 0.45839 0.96664 0.0
C490 C 0.24161 0.45896 0.97227 0.0
C491 C 0.24225 0.4568 0.99645 0.0
C492 C 0.25475 0.45469 1.0054 0.0
C493 C 0.26673 0.45547 0.99066 0.0
C494 C 0.21378 0.44924 0.0472 0.0
C495 C 0.20982 0.46138 0.04381 0.0
C496 C 0.22411 0.44753 0.03169 0.0
C497 C 0.23057 0.45785 0.01237 0.0
C498 C 0.22628 0.46973 1.00875 0.0
C499 C 0.21605 0.47146 0.02425 0.0
H500 H 0.75686 0.18988 0.35855 0.0
H501 H 0.77188 0.22775 0.40994 0.0
H502 H 0.77867 0.20823 0.33298 0.0
H503 H 0.7932 0.24623 0.38407 0.0
H504 H 0.83789 0.27312 0.3404 0.0
H505 H 0.81847 0.25256 0.36658 0.0
H506 H 0.78493 0.23146 0.30918 0.0
H507 H 0.80439 0.25191 0.28303 0.0
C508 C 0.7649 0.20207 0.3645 0.0
C509 C 0.76255 0.20737 0.38625 0.0
C510 C 0.7773 0.21264 0.34972 0.0
C511 C 0.78765 0.22875 0.35638 0.0
C512 C 0.78557 0.23388 0.37843 0.0
C513 C 0.7732 0.22333 0.39317 0.0
C514 C 0.82638 0.26405 0.33338 0.0
C515 C 0.82266 0.26421 0.30965 0.0
C516 C 0.81524 0.25228 0.34838 0.0
C517 C 0.80008 0.2404 0.34005 0.0
C518 C 0.79656 0.24028 0.31616 0.0
C519 C 0.80772 0.25202 0.30114 0.0
H520 H 0.53987 0.79436 0.62833 0.0
H521 H 0.58891 0.82899 0.64724 0.0
H522 H 0.54047 0.7749 0.65481 0.0
H523 H 0.58924 0.80966 0.67471 0.0
H524 H 0.58841 0.76446 0.70469 0.0
H525 H 0.58905 0.78419 0.67709 0.0
H526 H 0.54038 0.77076 0.69609 0.0
H527 H 0.53947 0.75062 0.72271 0.0
C528 C 0.55084 0.79781 0.638 0.0
C529 C 0.56436 0.81327 0.63556 0.0
C530 C 0.5511 0.7867 0.65349 0.0
C531 C 0.56484 0.79074 0.66709 0.0
C532 C 0.57848 0.80611 0.66441 0.0
C533 C 0.57823 0.81725 0.64884 0.0
C534 C 0.57782 0.76566 0.70285 0.0
C535 C 0.56389 0.75591 0.71594 0.0
C536 C 0.57825 0.77709 0.6872 0.0
C537 C 0.56474 0.77901 0.68425 0.0
C538 C 0.55092 0.76944 0.69762 0.0
C539 C 0.55048 0.75803 0.71319 0.0
H540 H 0.74151 0.53983 0.99948 0.0
H541 H 0.77707 0.57745 0.95586 0.0
H542 H 0.76261 0.54283 0.02618 0.0
H543 H 0.79826 0.58084 0.98312 0.0
H544 H 0.83115 0.56453 0.02076 0.0
H545 H 0.81143 0.56567 0.99498 0.0
H546 H 0.78191 0.56092 0.0546 0.0
H547 H 0.80159 0.5597 0.08032 0.0
C548 C 0.75385 0.54881 0.99566 0.0
C549 C 0.75762 0.5583 0.97543 0.0
C550 C 0.76594 0.55067 0.01113 0.0
C551 C 0.78215 0.56209 1.00682 0.0
C552 C 0.78591 0.57184 0.98684 0.0
C553 C 0.77377 0.57 0.97135 0.0
C554 C 0.8206 0.56404 0.0284 0.0
C555 C 0.81786 0.56186 0.05257 0.0
C556 C 0.80929 0.5647 0.01362 0.0
C557 C 0.795 0.56321 0.02269 0.0
C558 C 0.79263 0.56176 0.04698 0.0
C559 C 0.80391 0.56107 0.06173 0.0
H560 H 0.23071 0.77061 0.27771 0.0
H561 H 0.19328 0.75136 0.32982 0.0
H562 H 0.24883 0.79099 0.30536 0.0
H563 H 0.21123 0.77216 0.35724 0.0
H564 H 0.25532 0.79547 0.40716 0.0
H565 H 0.23493 0.77747 0.37944 0.0
H566 H 0.25449 0.81491 0.32722 0.0
H567 H 0.2753 0.83275 0.35475 0.0
C568 C 0.22629 0.77083 0.29501 0.0
C569 C 0.21059 0.75924 0.30162 0.0
C570 C 0.23663 0.78264 0.31079 0.0
C571 C 0.23152 0.78318 0.33359 0.0
C572 C 0.21562 0.77197 0.33992 0.0
C573 C 0.20526 0.76015 0.32411 0.0
C574 C 0.25526 0.79988 0.38978 0.0
C575 C 0.26705 0.8155 0.38311 0.0
C576 C 0.24344 0.78962 0.37395 0.0
C577 C 0.2431 0.79471 0.35104 0.0
C578 C 0.25453 0.81054 0.34463 0.0
C579 C 0.26636 0.82082 0.3605 0.0
H580 H 0.47236 0.25093 0.74567 0.0
H581 H 0.45687 0.26987 0.68914 0.0
H582 H 0.4711 0.23017 0.71976 0.0
H583 H 0.45559 0.24904 0.66317 0.0
H584 H 0.44498 0.20203 0.62661 0.0
H585 H 0.44219 0.21983 0.65458 0.0
H586 H 0.48723 0.23046 0.68685 0.0
H587 H 0.48977 0.21246 0.65951 0.0
C588 C 0.46864 0.25063 0.72772 0.0
C589 C 0.46491 0.26219 0.71941 0.0
C590 C 0.46791 0.23873 0.71287 0.0
C591 C 0.46343 0.23806 0.68932 0.0
C592 C 0.45897 0.24914 0.68126 0.0
C593 C 0.4597 0.26108 0.69614 0.0
C594 C 0.45416 0.20803 0.63989 0.0
C595 C 0.46764 0.20591 0.64076 0.0
C596 C 0.45263 0.21832 0.65576 0.0
C597 C 0.46448 0.22656 0.67296 0.0
C598 C 0.47778 0.22416 0.67404 0.0
C599 C 0.47934 0.21399 0.65816 0.0
H600 H 0.12168 0.59803 0.16729 0.0
H601 H 0.16973 0.62236 0.19649 0.0
H602 H 0.12286 0.57341 0.1637 0.0
H603 H 0.17067 0.59735 0.19361 0.0
H604 H 0.17021 0.55211 0.16144 0.0
H605 H 0.17109 0.57802 0.16459 0.0
H606 H 0.12246 0.5537 0.19095 0.0
H607 H 0.12136 0.52795 0.18707 0.0
C608 C 0.13259 0.59819 0.17273 0.0
C609 C 0.14563 0.61221 0.18213 0.0
C610 C 0.13317 0.58399 0.17097 0.0
C611 C 0.14678 0.58337 0.17863 0.0
C612 C 0.16002 0.59746 0.18751 0.0
C613 C 0.15943 0.61174 0.18934 0.0
C614 C 0.15972 0.55233 0.16788 0.0
C615 C 0.14572 0.53794 0.17398 0.0
C616 C 0.16028 0.56717 0.16987 0.0
C617 C 0.1468 0.56788 0.17781 0.0
C618 C 0.13297 0.55354 0.18443 0.0
C619 C 0.13243 0.53878 0.1825 0.0
H620 H 0.55315 0.15567 0.54756 0.0
H621 H 0.54249 0.1399 0.47576 0.0
H622 H 0.58006 0.15935 0.54327 0.0
H623 H 0.56902 0.14276 0.47184 0.0
H624 H 0.62041 0.15572 0.46585 0.0
H625 H 0.59756 0.16004 0.47028 0.0
H626 H 0.5905 0.14142 0.54058 0.0
H627 H 0.61377 0.1379 0.53655 0.0
C628 C 0.55661 0.15322 0.53075 0.0
C629 C 0.54558 0.14731 0.51208 0.0
C630 C 0.57199 0.15514 0.52838 0.0
C631 C 0.57667 0.15116 0.50731 0.0
C632 C 0.56592 0.14606 0.48828 0.0
C633 C 0.55059 0.1442 0.49063 0.0
C634 C 0.61423 0.15294 0.48245 0.0
C635 C 0.61882 0.14628 0.50076 0.0
C636 C 0.60101 0.15524 0.4849 0.0
C637 C 0.59204 0.15091 0.50569 0.0
C638 C 0.59715 0.14501 0.52437 0.0
C639 C 0.61039 0.14278 0.52196 0.0
H640 H 0.47931 0.62284 0.85408 0.0
H641 H 0.48581 0.5969 0.7975 0.0
H642 H 0.45192 0.60035 0.85991 0.0
H643 H 0.45876 0.57441 0.80358 0.0
H644 H 0.40616 0.53986 0.80859 0.0
H645 H 0.43016 0.56575 0.80084 0.0
H646 H 0.4404 0.57258 0.87478 0.0
H647 H 0.41643 0.54671 0.88252 0.0
C648 C 0.47481 0.61243 0.84272 0.0
C649 C 0.48474 0.61155 0.82547 0.0
C650 C 0.4592 0.59952 0.84616 0.0
C651 C 0.45317 0.58558 0.83225 0.0
C652 C 0.46293 0.58502 0.81443 0.0
C653 C 0.47851 0.59784 0.81111 0.0
C654 C 0.41347 0.54696 0.8232 0.0
C655 C 0.4095 0.54112 0.84615 0.0
C656 C 0.4272 0.56179 0.81876 0.0
C657 C 0.4373 0.57113 0.83717 0.0
C658 C 0.43282 0.56575 0.86022 0.0
C659 C 0.41906 0.5509 0.86466 0.0
H660 H 0.86112 0.39756 0.19591 0.0
H661 H 0.90787 0.42017 0.16313 0.0
H662 H 0.86041 0.42264 0.1918 0.0
H663 H 0.9069 0.44484 0.15843 0.0
H664 H 0.91011 0.49135 0.18159 0.0
H665 H 0.9087 0.46546 0.18558 0.0
H666 H 0.85931 0.44136 0.16177 0.0
H667 H 0.86056 0.46746 0.15837 0.0
C668 C 0.87117 0.40781 0.18768 0.0
C669 C 0.88456 0.40685 0.17987 0.0
C670 C 0.87069 0.42211 0.18517 0.0
C671 C 0.88367 0.43575 0.17499 0.0
C672 C 0.89682 0.43462 0.16666 0.0
C673 C 0.89727 0.42038 0.16908 0.0
C674 C 0.89884 0.48055 0.17755 0.0
C675 C 0.88543 0.48149 0.16973 0.0
C676 C 0.8981 0.4657 0.17955 0.0
C677 C 0.88395 0.45137 0.17376 0.0
C678 C 0.87038 0.4522 0.16641 0.0
C679 C 0.87114 0.46714 0.16429 0.0
H680 H 0.485 0.89324 0.55803 0.0
H681 H 0.47927 0.86226 0.49968 0.0
H682 H 0.45784 0.88842 0.5518 0.0
H683 H 0.45177 0.85708 0.49372 0.0
H684 H 0.41602 0.87508 0.47192 0.0
H685 H 0.44007 0.87329 0.47969 0.0
H686 H 0.42932 0.86838 0.5534 0.0
H687 H 0.40524 0.87019 0.54562 0.0
C688 C 0.47785 0.88526 0.544 0.0
C689 C 0.48432 0.87827 0.52919 0.0
C690 C 0.4622 0.88234 0.54058 0.0
C691 C 0.45263 0.87238 0.52223 0.0
C692 C 0.4589 0.86492 0.50789 0.0
C693 C 0.47457 0.86778 0.5114 0.0
C694 C 0.41856 0.87321 0.48972 0.0
C695 C 0.40882 0.87297 0.50819 0.0
C696 C 0.43236 0.87218 0.49418 0.0
C697 C 0.43672 0.87088 0.5172 0.0
C698 C 0.42646 0.86969 0.53552 0.0
C699 C 0.41267 0.87073 0.53107 0.0
H700 H 0.61632 0.48234 0.8086 0.0
H701 H 0.62239 0.47177 0.87999 0.0
H702 H 0.59261 0.45578 0.80481 0.0
H703 H 0.59915 0.44483 0.87581 0.0
H704 H 0.54399 0.41095 0.8701 0.0
H705 H 0.57077 0.43432 0.87378 0.0
H706 H 0.58137 0.42722 0.80294 0.0
H707 H 0.55421 0.40428 0.79889 0.0
C708 C 0.61273 0.47426 0.8234 0.0
C709 C 0.62113 0.4793 0.84471 0.0
C710 C 0.59924 0.45891 0.82113 0.0
C711 C 0.59385 0.44817 0.84008 0.0
C712 C 0.6028 0.45289 0.86098 0.0
C713 C 0.61626 0.46828 0.86329 0.0
C714 C 0.55204 0.41435 0.85531 0.0
C715 C 0.54685 0.40587 0.83409 0.0
C716 C 0.56751 0.42764 0.85752 0.0
C717 C 0.57824 0.43277 0.83859 0.0
C718 C 0.57334 0.42377 0.81775 0.0
C719 C 0.55782 0.41049 0.81552 0.0
H720 H 0.05727 0.40918 0.16998 0.0
H721 H 0.05357 0.36446 0.1473 0.0
H722 H 0.02933 0.39472 0.1822 0.0
H723 H 0.02525 0.35005 0.15838 0.0
H724 H 0.97953 0.3275 0.20334 0.0
H725 H 1.00771 0.34142 0.19164 0.0
H726 H 1.00291 0.38126 0.16623 0.0
H727 H 0.97511 0.36781 0.1791 0.0
C728 C 0.05053 0.39624 0.16766 0.0
C729 C 0.05776 0.38801 0.15774 0.0
C730 C 0.03438 0.38796 0.17436 0.0
C731 C 0.02495 0.37121 0.17116 0.0
C732 C 0.03217 0.36293 0.1613 0.0
C733 C 0.04838 0.37123 0.15468 0.0
C734 C 0.98452 0.3393 0.19545 0.0
C735 C 0.97499 0.34651 0.19223 0.0
C736 C 1.00065 0.3472 0.18846 0.0
C737 C 1.00765 0.36251 0.17803 0.0
C738 C 0.99804 0.3696 0.17452 0.0
C739 C 0.98197 0.36175 0.1816 0.0
H740 H 0.68275 0.04349 0.45529 0.0
H741 H 0.67495 0.05652 0.52422 0.0
H742 H 0.67049 0.01541 0.46741 0.0
H743 H 0.6622 0.0284 0.53608 0.0
H744 H 0.65257 0.97866 0.55659 0.0
H745 H 0.66772 1.00672 0.5442 0.0
H746 H 0.64377 0.99347 0.47715 0.0
H747 H 0.62906 0.96535 0.48923 0.0
C748 C 0.67854 0.04039 0.47308 0.0
C749 C 0.67979 0.05226 0.48876 0.0
C750 C 0.67135 0.02426 0.47995 0.0
C751 C 0.6653 0.01962 0.50269 0.0
C752 C 0.66686 0.03155 0.5185 0.0
C753 C 0.67401 0.04766 0.51162 0.0
C754 C 0.65073 0.98169 0.53907 0.0
C755 C 0.63956 0.96975 0.52393 0.0
C756 C 0.65929 0.99781 0.53206 0.0
C757 C 0.65691 1.00237 0.50972 0.0
C758 C 0.64601 0.99037 0.4944 0.0
C759 C 0.63743 0.97427 0.50142 0.0
H760 H 0.61656 0.65149 0.83861 0.0
H761 H 0.66157 0.69349 0.81976 0.0
H762 H 0.63095 0.63788 0.85077 0.0
H763 H 0.67595 0.67946 0.83072 0.0
H764 H 0.69781 0.65494 0.87465 0.0
H765 H 0.68393 0.66946 0.86366 0.0
H766 H 0.64496 0.6257 0.83433 0.0
H767 H 0.65832 0.61106 0.84645 0.0
C768 C 0.62955 0.65788 0.83714 0.0
C769 C 0.63788 0.67365 0.82826 0.0
C770 C 0.6378 0.64995 0.84379 0.0
C771 C 0.65463 0.6575 0.84158 0.0
C772 C 0.66301 0.67331 0.83285 0.0
C773 C 0.65474 0.6813 0.82629 0.0
C774 C 0.68621 0.64839 0.86605 0.0
C775 C 0.67921 0.6318 0.86147 0.0
C776 C 0.67833 0.65677 0.85949 0.0
C777 C 0.66328 0.64877 0.84815 0.0
C778 C 0.65641 0.63223 0.84334 0.0
C779 C 0.66422 0.62386 0.84999 0.0
H780 H 0.97785 0.65565 0.14777 0.0
H781 H 0.9745 0.61108 0.17044 0.0
H782 H 1.00625 0.67018 0.15875 0.0
H783 H 1.0025 0.62568 0.18264 0.0
H784 H 0.05672 0.65274 0.17891 0.0
H785 H 0.02874 0.63908 0.16658 0.0
H786 H 0.02414 0.67908 0.19176 0.0
H787 H 0.0525 0.69322 0.20288 0.0
C788 C 0.98313 0.64894 0.15513 0.0
C789 C 0.97382 0.63216 0.15819 0.0
C790 C 0.99938 0.65731 0.16172 0.0
C791 C 1.00673 0.64912 0.17157 0.0
C792 C 0.99736 0.63238 0.1748 0.0
C793 C 0.98118 0.62402 0.16811 0.0
C794 C 0.04986 0.65878 0.18149 0.0
C795 C 0.05696 0.67415 0.19183 0.0
C796 C 0.03369 0.65081 0.17472 0.0
C797 C 0.02409 0.6579 0.17829 0.0
C798 C 0.03118 0.6733 0.18853 0.0
C799 C 0.04742 0.68134 0.19519 0.0
H800 H 0.41536 0.05217 0.51419 0.0
H801 H 0.3707 0.04766 0.53856 0.0
H802 H 0.40109 0.02424 0.50161 0.0
H803 H 0.35651 0.01934 0.52712 0.0
H804 H 0.33375 0.97348 0.48215 0.0
H805 H 0.34755 1.00176 0.49373 0.0
H806 H 0.38829 0.99784 0.51732 0.0
H807 H 0.37494 0.96994 0.50457 0.0
C808 C 0.40247 0.04525 0.51681 0.0
C809 C 0.3942 0.05226 0.52732 0.0
C810 C 0.3943 0.02911 0.50989 0.0
C811 C 0.37763 0.01945 0.51345 0.0
C812 C 0.36932 0.02644 0.52389 0.0
C813 C 0.3775 0.04265 0.53072 0.0
C814 C 0.34572 0.97869 0.48958 0.0
C815 C 0.35321 0.96937 0.49238 0.0
C816 C 0.35356 0.99488 0.49651 0.0
C817 C 0.36907 1.00214 0.50644 0.0
C818 C 0.37647 0.99276 0.50943 0.0
C819 C 0.36868 0.97664 0.50242 0.0
H820 H 0.4158 0.36958 0.83756 0.0
H821 H 0.37082 0.3284 0.81585 0.0
H822 H 0.40149 0.38311 0.85034 0.0
H823 H 0.35656 0.34239 0.82743 0.0
H824 H 0.33439 0.36589 0.87247 0.0
H825 H 0.34827 0.35154 0.86082 0.0
H826 H 0.3879 0.39598 0.83483 0.0
H827 H 0.37452 0.41043 0.84767 0.0
C828 C 0.40284 0.36336 0.83557 0.0
C829 C 0.39449 0.34783 0.82575 0.0
C830 C 0.39463 0.37125 0.84259 0.0
C831 C 0.37785 0.36392 0.83981 0.0
C832 C 0.36946 0.34836 0.83005 0.0
C833 C 0.37768 0.34041 0.82313 0.0
C834 C 0.34614 0.37263 0.8645 0.0
C835 C 0.3533 0.38935 0.86105 0.0
C836 C 0.35402 0.36435 0.85753 0.0
C837 C 0.36924 0.37258 0.8469 0.0
C838 C 0.37631 0.38926 0.84327 0.0
C839 C 0.36849 0.39753 0.85033 0.0
loop_
_geom_bond_atom_site_label_1
_geom_bond_atom_site_label_2
_geom_bond_distance
_geom_bond_site_symmetry_2
_ccdc_geom_bond_type
C0 C1 1.264 . S
C0 C5 1.479 . S
C0 C10 1.465 . S
C1 C0 1.264 . S
C1 C3 1.339 . S
C1 H28 0.931 . S
C2 C3 1.395 . S
C2 C4 1.320 . S
C3 C1 1.339 . S
C3 C2 1.395 . S
C3 H29 0.929 . S
C4 C2 1.320 . S
C4 C5 1.405 . S
C4 H30 0.930 . S
C5 C0 1.479 . S
C5 C4 1.405 . S
C5 H31 0.931 . S
U6 O7 2.454 . S
U6 O8 2.458 . S
U6 C9 2.984 . S
U6 C10 2.847 . S
U6 C23 2.882 . S
U6 O24 2.441 . S
U6 O25 2.420 . S
U6 O26 2.455 . S
U6 O27 2.449 . S
O7 U6 2.454 . S
O7 C9 1.353 . S
O8 U6 2.458 . S
O8 C9 1.286 . S
C9 U6 2.984 . S
C9 O7 1.353 . S
C9 O8 1.286 . S
C9 C11 1.363 . S
C10 C0 1.465 . S
C10 U6 2.847 . S
C10 O24 1.249 . S
C10 O25 1.202 . S
C11 C9 1.363 . S
C11 C13 1.408 . S
C11 C16 1.342 . S
C12 C13 1.310 . S
C12 C15 1.461 . S
C12 H32 0.932 . S
C13 C11 1.408 . S
C13 C12 1.310 . S
C13 H33 0.930 . S
C14 C15 1.474 . S
C14 C16 1.285 . S
C14 H34 0.929 . S
C15 C12 1.461 . S
C15 C14 1.474 . S
C16 C11 1.342 . S
C16 C14 1.285 . S
C16 H35 0.930 . S
C17 C20 1.424 . S
C17 C22 1.245 . S
C17 C23 1.428 . S
C18 C21 1.260 . S
C18 C22 1.477 . S
C18 H36 0.932 . S
C19 C20 1.384 . S
C19 C21 1.479 . S
C19 H37 0.929 . S
C20 C17 1.424 . S
C20 C19 1.384 . S
C20 H38 0.928 . S
C21 C18 1.260 . S
C21 C19 1.479 . S
C22 C17 1.245 . S
C22 C18 1.477 . S
C22 H39 0.932 . S
C23 U6 2.882 . S
C23 C17 1.428 . S
C23 O26 1.301 . S
C23 O27 1.282 . S
O24 U6 2.441 . S
O24 C10 1.249 . S
O25 U6 2.420 . S
O25 C10 1.202 . S
O26 U6 2.455 . S
O26 C23 1.301 . S
O27 U6 2.449 . S
O27 C23 1.282 . S
H28 C1 0.931 . S
H29 C3 0.929 . S
H30 C4 0.930 . S
H31 C5 0.931 . S
H32 C12 0.932 . S
H33 C13 0.930 . S
H34 C14 0.929 . S
H35 C16 0.930 . S
H36 C18 0.932 . S
H37 C19 0.929 . S
H38 C20 0.928 . S
H39 C22 0.932 . S
C40 C41 1.264 . S
C40 C45 1.479 . S
C40 C50 1.465 . S
C41 C40 1.264 . S
C41 C43 1.339 . S
C41 H68 0.931 . S
C42 C43 1.395 . S
C42 C44 1.320 . S
C43 C41 1.339 . S
C43 C42 1.395 . S
C43 H69 0.929 . S
C44 C42 1.320 . S
C44 C45 1.405 . S
C44 H70 0.930 . S
C45 C40 1.479 . S
C45 C44 1.405 . S
C45 H71 0.931 . S
U46 O47 2.454 . S
U46 O48 2.458 . S
U46 C49 2.984 . S
U46 C50 2.847 . S
U46 C63 2.882 . S
U46 O64 2.441 . S
U46 O65 2.420 . S
U46 O66 2.455 . S
U46 O67 2.449 . S
O47 U46 2.454 . S
O47 C49 1.353 . S
O48 U46 2.458 . S
O48 C49 1.286 . S
C49 U46 2.984 . S
C49 O47 1.353 . S
C49 O48 1.286 . S
C49 C51 1.363 . S
C50 C40 1.465 . S
C50 U46 2.847 . S
C50 O64 1.249 . S
C50 O65 1.202 . S
C51 C49 1.363 . S
C51 C53 1.408 . S
C51 C56 1.342 . S
C52 C53 1.310 . S
C52 C55 1.461 . S
C52 H72 0.932 . S
C53 C51 1.408 . S
C53 C52 1.310 . S
C53 H73 0.930 . S
C54 C55 1.474 . S
C54 C56 1.285 . S
C54 H74 0.929 . S
C55 C52 1.461 . S
C55 C54 1.474 . S
C56 C51 1.342 . S
C56 C54 1.285 . S
C56 H75 0.930 . S
C57 C60 1.424 . S
C57 C62 1.245 . S
C57 C63 1.428 . S
C58 C61 1.260 . S
C58 C62 1.477 . S
C58 H76 0.932 . S
C59 C60 1.384 . S
C59 C61 1.479 . S
C59 H77 0.929 . S
C60 C57 1.424 . S
C60 C59 1.384 . S
C60 H78 0.928 . S
C61 C58 1.260 . S
C61 C59 1.479 . S
C62 C57 1.245 . S
C62 C58 1.477 . S
C62 H79 0.932 . S
C63 U46 2.882 . S
C63 C57 1.428 . S
C63 O66 1.301 . S
C63 O67 1.282 . S
O64 U46 2.441 . S
O64 C50 1.249 . S
O65 U46 2.420 . S
O65 C50 1.202 . S
O66 U46 2.455 . S
O66 C63 1.301 . S
O67 U46 2.449 . S
O67 C63 1.282 . S
H68 C41 0.931 . S
H69 C43 0.929 . S
H70 C44 0.930 . S
H71 C45 0.931 . S
H72 C52 0.932 . S
H73 C53 0.930 . S
H74 C54 0.929 . S
H75 C56 0.930 . S
H76 C58 0.932 . S
H77 C59 0.929 . S
H78 C60 0.928 . S
H79 C62 0.932 . S
C80 C81 1.264 . S
C80 C85 1.479 . S
C80 C90 1.465 . S
C81 C80 1.264 . S
C81 C83 1.339 . S
C81 H108 0.931 . S
C82 C83 1.395 . S
C82 C84 1.320 . S
C83 C81 1.339 . S
C83 C82 1.395 . S
C83 H109 0.929 . S
C84 C82 1.320 . S
C84 C85 1.405 . S
C84 H110 0.930 . S
C85 C80 1.479 . S
C85 C84 1.405 . S
C85 H111 0.931 . S
U86 O87 2.454 . S
U86 O88 2.458 . S
U86 C89 2.984 . S
U86 C90 2.847 . S
U86 C103 2.882 . S
U86 O104 2.441 . S
U86 O105 2.420 . S
U86 O106 2.455 . S
U86 O107 2.449 . S
O87 U86 2.454 . S
O87 C89 1.353 . S
O88 U86 2.458 . S
O88 C89 1.286 . S
C89 U86 2.984 . S
C89 O87 1.353 . S
C89 O88 1.286 . S
C89 C91 1.363 . S
C90 C80 1.465 . S
C90 U86 2.847 . S
C90 O104 1.249 . S
C90 O105 1.202 . S
C91 C89 1.363 . S
C91 C93 1.408 . S
C91 C96 1.342 . S
C92 C93 1.310 . S
C92 C95 1.461 . S
C92 H112 0.932 . S
C93 C91 1.408 . S
C93 C92 1.310 . S
C93 H113 0.930 . S
C94 C95 1.474 . S
C94 C96 1.285 . S
C94 H114 0.929 . S
C95 C92 1.461 . S
C95 C94 1.474 . S
C96 C91 1.342 . S
C96 C94 1.285 . S
C96 H115 0.930 . S
C97 C100 1.424 . S
C97 C102 1.245 . S
C97 C103 1.428 . S
C98 C101 1.260 . S
C98 C102 1.477 . S
C98 H116 0.932 . S
C99 C100 1.384 . S
C99 C101 1.479 . S
C99 H117 0.929 . S
C100 C97 1.424 . S
C100 C99 1.384 . S
C100 H118 0.928 . S
C101 C98 1.260 . S
C101 C99 1.479 . S
C102 C97 1.245 . S
C102 C98 1.477 . S
C102 H119 0.932 . S
C103 U86 2.882 . S
C103 C97 1.428 . S
C103 O106 1.301 . S
C103 O107 1.282 . S
O104 U86 2.441 . S
O104 C90 1.249 . S
O105 U86 2.420 . S
O105 C90 1.202 . S
O106 U86 2.455 . S
O106 C103 1.301 . S
O107 U86 2.449 . S
O107 C103 1.282 . S
H108 C81 0.931 . S
H109 C83 0.929 . S
H110 C84 0.930 . S
H111 C85 0.931 . S
H112 C92 0.932 . S
H113 C93 0.930 . S
H114 C94 0.929 . S
H115 C96 0.930 . S
H116 C98 0.932 . S
H117 C99 0.929 . S
H118 C100 0.928 . S
H119 C102 0.932 . S
C120 C121 1.264 . S
C120 C125 1.479 . S
C120 C130 1.465 . S
C121 C120 1.264 . S
C121 C123 1.339 . S
C121 H148 0.931 . S
C122 C123 1.395 . S
C122 C124 1.320 . S
C123 C121 1.339 . S
C123 C122 1.395 . S
C123 H149 0.929 . S
C124 C122 1.320 . S
C124 C125 1.405 . S
C124 H150 0.930 . S
C125 C120 1.479 . S
C125 C124 1.405 . S
C125 H151 0.931 . S
U126 O127 2.454 . S
U126 O128 2.458 . S
U126 C129 2.984 . S
U126 C130 2.847 . S
U126 C143 2.882 . S
U126 O144 2.441 . S
U126 O145 2.420 . S
U126 O146 2.455 . S
U126 O147 2.449 . S
O127 U126 2.454 . S
O127 C129 1.353 . S
O128 U126 2.458 . S
O128 C129 1.286 . S
C129 U126 2.984 . S
C129 O127 1.353 . S
C129 O128 1.286 . S
C129 C131 1.363 . S
C130 C120 1.465 . S
C130 U126 2.847 . S
C130 O144 1.249 . S
C130 O145 1.202 . S
C131 C129 1.363 . S
C131 C133 1.408 . S
C131 C136 1.342 . S
C132 C133 1.310 . S
C132 C135 1.461 . S
C132 H152 0.932 . S
C133 C131 1.408 . S
C133 C132 1.310 . S
C133 H153 0.930 . S
C134 C135 1.474 . S
C134 C136 1.285 . S
C134 H154 0.929 . S
C135 C132 1.461 . S
C135 C134 1.474 . S
C136 C131 1.342 . S
C136 C134 1.285 . S
C136 H155 0.930 . S
C137 C140 1.424 . S
C137 C142 1.245 . S
C137 C143 1.428 . S
C138 C141 1.260 . S
C138 C142 1.477 . S
C138 H156 0.932 . S
C139 C140 1.384 . S
C139 C141 1.479 . S
C139 H157 0.929 . S
C140 C137 1.424 . S
C140 C139 1.384 . S
C140 H158 0.928 . S
C141 C138 1.260 . S
C141 C139 1.479 . S
C142 C137 1.245 . S
C142 C138 1.477 . S
C142 H159 0.932 . S
C143 U126 2.882 . S
C143 C137 1.428 . S
C143 O146 1.301 . S
C143 O147 1.282 . S
O144 U126 2.441 . S
O144 C130 1.249 . S
O145 U126 2.420 . S
O145 C130 1.202 . S
O146 U126 2.455 . S
O146 C143 1.301 . S
O147 U126 2.449 . S
O147 C143 1.282 . S
H148 C121 0.931 . S
H149 C123 0.929 . S
H150 C124 0.930 . S
H151 C125 0.931 . S
H152 C132 0.932 . S
H153 C133 0.930 . S
H154 C134 0.929 . S
H155 C136 0.930 . S
H156 C138 0.932 . S
H157 C139 0.929 . S
H158 C140 0.928 . S
H159 C142 0.932 . S
C160 C161 1.264 . S
C160 C165 1.479 . S
C160 C170 1.465 . S
C161 C160 1.264 . S
C161 C163 1.339 . S
C161 H188 0.931 . S
C162 C163 1.395 . S
C162 C164 1.320 . S
C163 C161 1.339 . S
C163 C162 1.395 . S
C163 H189 0.929 . S
C164 C162 1.320 . S
C164 C165 1.405 . S
C164 H190 0.930 . S
C165 C160 1.479 . S
C165 C164 1.405 . S
C165 H191 0.931 . S
U166 O167 2.454 . S
U166 O168 2.458 . S
U166 C169 2.984 . S
U166 C170 2.847 . S
U166 C183 2.882 . S
U166 O184 2.441 . S
U166 O185 2.420 . S
U166 O186 2.455 . S
U166 O187 2.449 . S
O167 U166 2.454 . S
O167 C169 1.353 . S
O168 U166 2.458 . S
O168 C169 1.286 . S
C169 U166 2.984 . S
C169 O167 1.353 . S
C169 O168 1.286 . S
C169 C171 1.363 . S
C170 C160 1.465 . S
C170 U166 2.847 . S
C170 O184 1.249 . S
C170 O185 1.202 . S
C171 C169 1.363 . S
C171 C173 1.408 . S
C171 C176 1.342 . S
C172 C173 1.310 . S
C172 C175 1.461 . S
C172 H192 0.932 . S
C173 C171 1.408 . S
C173 C172 1.310 . S
C173 H193 0.930 . S
C174 C175 1.474 . S
C174 C176 1.285 . S
C174 H194 0.929 . S
C175 C172 1.461 . S
C175 C174 1.474 . S
C176 C171 1.342 . S
C176 C174 1.285 . S
C176 H195 0.930 . S
C177 C180 1.424 . S
C177 C182 1.245 . S
C177 C183 1.428 . S
C178 C181 1.260 . S
C178 C182 1.477 . S
C178 H196 0.932 . S
C179 C180 1.384 . S
C179 C181 1.479 . S
C179 H197 0.929 . S
C180 C177 1.424 . S
C180 C179 1.384 . S
C180 H198 0.928 . S
C181 C178 1.260 . S
C181 C179 1.479 . S
C182 C177 1.245 . S
C182 C178 1.477 . S
C182 H199 0.932 . S
C183 U166 2.882 . S
C183 C177 1.428 . S
C183 O186 1.301 . S
C183 O187 1.282 . S
O184 U166 2.441 . S
O184 C170 1.249 . S
O185 U166 2.420 . S
O185 C170 1.202 . S
O186 U166 2.455 . S
O186 C183 1.301 . S
O187 U166 2.449 . S
O187 C183 1.282 . S
H188 C161 0.931 . S
H189 C163 0.929 . S
H190 C164 0.930 . S
H191 C165 0.931 . S
H192 C172 0.932 . S
H193 C173 0.930 . S
H194 C174 0.929 . S
H195 C176 0.930 . S
H196 C178 0.932 . S
H197 C179 0.929 . S
H198 C180 0.928 . S
H199 C182 0.932 . S
C200 C201 1.264 . S
C200 C205 1.479 . S
C200 C210 1.465 . S
C201 C200 1.264 . S
C201 C203 1.339 . S
C201 H228 0.931 . S
C202 C203 1.395 . S
C202 C204 1.320 . S
C203 C201 1.339 . S
C203 C202 1.395 . S
C203 H229 0.929 . S
C204 C202 1.320 . S
C204 C205 1.405 . S
C204 H230 0.930 . S
C205 C200 1.479 . S
C205 C204 1.405 . S
C205 H231 0.931 . S
U206 O207 2.454 . S
U206 O208 2.458 . S
U206 C209 2.984 . S
U206 C210 2.847 . S
U206 C223 2.882 . S
U206 O224 2.441 . S
U206 O225 2.420 . S
U206 O226 2.455 . S
U206 O227 2.449 . S
O207 U206 2.454 . S
O207 C209 1.353 . S
O208 U206 2.458 . S
O208 C209 1.286 . S
C209 U206 2.984 . S
C209 O207 1.353 . S
C209 O208 1.286 . S
C209 C211 1.363 . S
C210 C200 1.465 . S
C210 U206 2.847 . S
C210 O224 1.249 . S
C210 O225 1.202 . S
C211 C209 1.363 . S
C211 C213 1.408 . S
C211 C216 1.342 . S
C212 C213 1.310 . S
C212 C215 1.461 . S
C212 H232 0.932 . S
C213 C211 1.408 . S
C213 C212 1.310 . S
C213 H233 0.930 . S
C214 C215 1.474 . S
C214 C216 1.285 . S
C214 H234 0.929 . S
C215 C212 1.461 . S
C215 C214 1.474 . S
C216 C211 1.342 . S
C216 C214 1.285 . S
C216 H235 0.930 . S
C217 C220 1.424 . S
C217 C222 1.245 . S
C217 C223 1.428 . S
C218 C221 1.260 . S
C218 C222 1.477 . S
C218 H236 0.932 . S
C219 C220 1.384 . S
C219 C221 1.479 . S
C219 H237 0.929 . S
C220 C217 1.424 . S
C220 C219 1.384 . S
C220 H238 0.928 . S
C221 C218 1.260 . S
C221 C219 1.479 . S
C222 C217 1.245 . S
C222 C218 1.477 . S
C222 H239 0.932 . S
C223 U206 2.882 . S
C223 C217 1.428 . S
C223 O226 1.301 . S
C223 O227 1.282 . S
O224 U206 2.441 . S
O224 C210 1.249 . S
O225 U206 2.420 . S
O225 C210 1.202 . S
O226 U206 2.455 . S
O226 C223 1.301 . S
O227 U206 2.449 . S
O227 C223 1.282 . S
H228 C201 0.931 . S
H229 C203 0.929 . S
H230 C204 0.930 . S
H231 C205 0.931 . S
H232 C212 0.932 . S
H233 C213 0.930 . S
H234 C214 0.929 . S
H235 C216 0.930 . S
H236 C218 0.932 . S
H237 C219 0.929 . S
H238 C220 0.928 . S
H239 C222 0.932 . S
C240 C241 1.264 . S
C240 C245 1.479 . S
C240 C250 1.465 . S
C241 C240 1.264 . S
C241 C243 1.339 . S
C241 H268 0.931 . S
C242 C243 1.395 . S
C242 C244 1.320 . S
C243 C241 1.339 . S
C243 C242 1.395 . S
C243 H269 0.929 . S
C244 C242 1.320 . S
C244 C245 1.405 . S
C244 H270 0.930 . S
C245 C240 1.479 . S
C245 C244 1.405 . S
C245 H271 0.931 . S
U246 O247 2.454 . S
U246 O248 2.458 . S
U246 C249 2.984 . S
U246 C250 2.847 . S
U246 C263 2.882 . S
U246 O264 2.441 . S
U246 O265 2.420 . S
U246 O266 2.455 . S
U246 O267 2.449 . S
O247 U246 2.454 . S
O247 C249 1.353 . S
O248 U246 2.458 . S
O248 C249 1.286 . S
C249 U246 2.984 . S
C249 O247 1.353 . S
C249 O248 1.286 . S
C249 C251 1.363 . S
C250 C240 1.465 . S
C250 U246 2.847 . S
C250 O264 1.249 . S
C250 O265 1.202 . S
C251 C249 1.363 . S
C251 C253 1.408 . S
C251 C256 1.342 . S
C252 C253 1.310 . S
C252 C255 1.461 . S
C252 H272 0.932 . S
C253 C251 1.408 . S
C253 C252 1.310 . S
C253 H273 0.930 . S
C254 C255 1.474 . S
C254 C256 1.285 . S
C254 H274 0.929 . S
C255 C252 1.461 . S
C255 C254 1.474 . S
C256 C251 1.342 . S
C256 C254 1.285 . S
C256 H275 0.930 . S
C257 C260 1.424 . S
C257 C262 1.245 . S
C257 C263 1.428 . S
C258 C261 1.260 . S
C258 C262 1.477 . S
C258 H276 0.932 . S
C259 C260 1.384 . S
C259 C261 1.479 . S
C259 H277 0.929 . S
C260 C257 1.424 . S
C260 C259 1.384 . S
C260 H278 0.928 . S
C261 C258 1.260 . S
C261 C259 1.479 . S
C262 C257 1.245 . S
C262 C258 1.477 . S
C262 H279 0.932 . S
C263 U246 2.882 . S
C263 C257 1.428 . S
C263 O266 1.301 . S
C263 O267 1.282 . S
O264 U246 2.441 . S
O264 C250 1.249 . S
O265 U246 2.420 . S
O265 C250 1.202 . S
O266 U246 2.455 . S
O266 C263 1.301 . S
O267 U246 2.449 . S
O267 C263 1.282 . S
H268 C241 0.931 . S
H269 C243 0.929 . S
H270 C244 0.930 . S
H271 C245 0.931 . S
H272 C252 0.932 . S
H273 C253 0.930 . S
H274 C254 0.929 . S
H275 C256 0.930 . S
H276 C258 0.932 . S
H277 C259 0.929 . S
H278 C260 0.928 . S
H279 C262 0.932 . S
C280 C281 1.264 . S
C280 C285 1.479 . S
C280 C290 1.465 . S
C281 C280 1.264 . S
C281 C283 1.339 . S
C281 H308 0.931 . S
C282 C283 1.395 . S
C282 C284 1.320 . S
C283 C281 1.339 . S
C283 C282 1.395 . S
C283 H309 0.929 . S
C284 C282 1.320 . S
C284 C285 1.405 . S
C284 H310 0.930 . S
C285 C280 1.479 . S
C285 C284 1.405 . S
C285 H311 0.931 . S
U286 O287 2.454 . S
U286 O288 2.458 . S
U286 C289 2.984 . S
U286 C290 2.847 . S
U286 C303 2.882 . S
U286 O304 2.441 . S
U286 O305 2.420 . S
U286 O306 2.455 . S
U286 O307 2.449 . S
O287 U286 2.454 . S
O287 C289 1.353 . S
O288 U286 2.458 . S
O288 C289 1.286 . S
C289 U286 2.984 . S
C289 O287 1.353 . S
C289 O288 1.286 . S
C289 C291 1.363 . S
C290 C280 1.465 . S
C290 U286 2.847 . S
C290 O304 1.249 . S
C290 O305 1.202 . S
C291 C289 1.363 . S
C291 C293 1.408 . S
C291 C296 1.342 . S
C292 C293 1.310 . S
C292 C295 1.461 . S
C292 H312 0.932 . S
C293 C291 1.408 . S
C293 C292 1.310 . S
C293 H313 0.930 . S
C294 C295 1.474 . S
C294 C296 1.285 . S
C294 H314 0.929 . S
C295 C292 1.461 . S
C295 C294 1.474 . S
C296 C291 1.342 . S
C296 C294 1.285 . S
C296 H315 0.930 . S
C297 C300 1.424 . S
C297 C302 1.245 . S
C297 C303 1.428 . S
C298 C301 1.260 . S
C298 C302 1.477 . S
C298 H316 0.932 . S
C299 C300 1.384 . S
C299 C301 1.479 . S
C299 H317 0.929 . S
C300 C297 1.424 . S
C300 C299 1.384 . S
C300 H318 0.928 . S
C301 C298 1.260 . S
C301 C299 1.479 . S
C302 C297 1.245 . S
C302 C298 1.477 . S
C302 H319 0.932 . S
C303 U286 2.882 . S
C303 C297 1.428 . S
C303 O306 1.301 . S
C303 O307 1.282 . S
O304 U286 2.441 . S
O304 C290 1.249 . S
O305 U286 2.420 . S
O305 C290 1.202 . S
O306 U286 2.455 . S
O306 C303 1.301 . S
O307 U286 2.449 . S
O307 C303 1.282 . S
H308 C281 0.931 . S
H309 C283 0.929 . S
H310 C284 0.930 . S
H311 C285 0.931 . S
H312 C292 0.932 . S
H313 C293 0.930 . S
H314 C294 0.929 . S
H315 C296 0.930 . S
H316 C298 0.932 . S
H317 C299 0.929 . S
H318 C300 0.928 . S
H319 C302 0.932 . S
C320 C321 1.264 . S
C320 C325 1.479 . S
C320 C330 1.465 . S
C321 C320 1.264 . S
C321 C323 1.339 . S
C321 H348 0.931 . S
C322 C323 1.395 . S
C322 C324 1.320 . S
C323 C321 1.339 . S
C323 C322 1.395 . S
C323 H349 0.929 . S
C324 C322 1.320 . S
C324 C325 1.405 . S
C324 H350 0.930 . S
C325 C320 1.479 . S
C325 C324 1.405 . S
C325 H351 0.931 . S
U326 O327 2.454 . S
U326 O328 2.458 . S
U326 C329 2.984 . S
U326 C330 2.847 . S
U326 C343 2.882 . S
U326 O344 2.441 . S
U326 O345 2.420 . S
U326 O346 2.455 . S
U326 O347 2.449 . S
O327 U326 2.454 . S
O327 C329 1.353 . S
O328 U326 2.458 . S
O328 C329 1.286 . S
C329 U326 2.984 . S
C329 O327 1.353 . S
C329 O328 1.286 . S
C329 C331 1.363 . S
C330 C320 1.465 . S
C330 U326 2.847 . S
C330 O344 1.249 . S
C330 O345 1.202 . S
C331 C329 1.363 . S
C331 C333 1.408 . S
C331 C336 1.342 . S
C332 C333 1.310 . S
C332 C335 1.461 . S
C332 H352 0.932 . S
C333 C331 1.408 . S
C333 C332 1.310 . S
C333 H353 0.930 . S
C334 C335 1.474 . S
C334 C336 1.285 . S
C334 H354 0.929 . S
C335 C332 1.461 . S
C335 C334 1.474 . S
C336 C331 1.342 . S
C336 C334 1.285 . S
C336 H355 0.930 . S
C337 C340 1.424 . S
C337 C342 1.245 . S
C337 C343 1.428 . S
C338 C341 1.260 . S
C338 C342 1.477 . S
C338 H356 0.932 . S
C339 C340 1.384 . S
C339 C341 1.479 . S
C339 H357 0.929 . S
C340 C337 1.424 . S
C340 C339 1.384 . S
C340 H358 0.928 . S
C341 C338 1.260 . S
C341 C339 1.479 . S
C342 C337 1.245 . S
C342 C338 1.477 . S
C342 H359 0.932 . S
C343 U326 2.882 . S
C343 C337 1.428 . S
C343 O346 1.301 . S
C343 O347 1.282 . S
O344 U326 2.441 . S
O344 C330 1.249 . S
O345 U326 2.420 . S
O345 C330 1.202 . S
O346 U326 2.455 . S
O346 C343 1.301 . S
O347 U326 2.449 . S
O347 C343 1.282 . S
H348 C321 0.931 . S
H349 C323 0.929 . S
H350 C324 0.930 . S
H351 C325 0.931 . S
H352 C332 0.932 . S
H353 C333 0.930 . S
H354 C334 0.929 . S
H355 C336 0.930 . S
H356 C338 0.932 . S
H357 C339 0.929 . S
H358 C340 0.928 . S
H359 C342 0.932 . S
C360 C361 1.264 . S
C360 C365 1.479 . S
C360 C370 1.465 . S
C361 C360 1.264 . S
C361 C363 1.339 . S
C361 H388 0.931 . S
C362 C363 1.395 . S
C362 C364 1.320 . S
C363 C361 1.339 . S
C363 C362 1.395 . S
C363 H389 0.929 . S
C364 C362 1.320 . S
C364 C365 1.405 . S
C364 H390 0.930 . S
C365 C360 1.479 . S
C365 C364 1.405 . S
C365 H391 0.931 . S
U366 O367 2.454 . S
U366 O368 2.458 . S
U366 C369 2.984 . S
U366 C370 2.847 . S
U366 C383 2.882 . S
U366 O384 2.441 . S
U366 O385 2.420 . S
U366 O386 2.455 . S
U366 O387 2.449 . S
O367 U366 2.454 . S
O367 C369 1.353 . S
O368 U366 2.458 . S
O368 C369 1.286 . S
C369 U366 2.984 . S
C369 O367 1.353 . S
C369 O368 1.286 . S
C369 C371 1.363 . S
C370 C360 1.465 . S
C370 U366 2.847 . S
C370 O384 1.249 . S
C370 O385 1.202 . S
C371 C369 1.363 . S
C371 C373 1.408 . S
C371 C376 1.342 . S
C372 C373 1.310 . S
C372 C375 1.461 . S
C372 H392 0.932 . S
C373 C371 1.408 . S
C373 C372 1.310 . S
C373 H393 0.930 . S
C374 C375 1.474 . S
C374 C376 1.285 . S
C374 H394 0.929 . S
C375 C372 1.461 . S
C375 C374 1.474 . S
C376 C371 1.342 . S
C376 C374 1.285 . S
C376 H395 0.930 . S
C377 C380 1.424 . S
C377 C382 1.245 . S
C377 C383 1.428 . S
C378 C381 1.260 . S
C378 C382 1.477 . S
C378 H396 0.932 . S
C379 C380 1.384 . S
C379 C381 1.479 . S
C379 H397 0.929 . S
C380 C377 1.424 . S
C380 C379 1.384 . S
C380 H398 0.928 . S
C381 C378 1.260 . S
C381 C379 1.479 . S
C382 C377 1.245 . S
C382 C378 1.477 . S
C382 H399 0.932 . S
C383 U366 2.882 . S
C383 C377 1.428 . S
C383 O386 1.301 . S
C383 O387 1.282 . S
O384 U366 2.441 . S
O384 C370 1.249 . S
O385 U366 2.420 . S
O385 C370 1.202 . S
O386 U366 2.455 . S
O386 C383 1.301 . S
O387 U366 2.449 . S
O387 C383 1.282 . S
H388 C361 0.931 . S
H389 C363 0.929 . S
H390 C364 0.930 . S
H391 C365 0.931 . S
H392 C372 0.932 . S
H393 C373 0.930 . S
H394 C374 0.929 . S
H395 C376 0.930 . S
H396 C378 0.932 . S
H397 C379 0.929 . S
H398 C380 0.928 . S
H399 C382 0.932 . S
C400 C401 1.264 . S
C400 C405 1.479 . S
C400 C410 1.465 . S
C401 C400 1.264 . S
C401 C403 1.339 . S
C401 H428 0.931 . S
C402 C403 1.395 . S
C402 C404 1.320 . S
C403 C401 1.339 . S
C403 C402 1.395 . S
C403 H429 0.929 . S
C404 C402 1.320 . S
C404 C405 1.405 . S
C404 H430 0.930 . S
C405 C400 1.479 . S
C405 C404 1.405 . S
C405 H431 0.931 . S
U406 O407 2.454 . S
U406 O408 2.458 . S
U406 C409 2.984 . S
U406 C410 2.847 . S
U406 C423 2.882 . S
U406 O424 2.441 . S
U406 O425 2.420 . S
U406 O426 2.455 . S
U406 O427 2.449 . S
O407 U406 2.454 . S
O407 C409 1.353 . S
O408 U406 2.458 . S
O408 C409 1.286 . S
C409 U406 2.984 . S
C409 O407 1.353 . S
C409 O408 1.286 . S
C409 C411 1.363 . S
C410 C400 1.465 . S
C410 U406 2.847 . S
C410 O424 1.249 . S
C410 O425 1.202 . S
C411 C409 1.363 . S
C411 C413 1.408 . S
C411 C416 1.342 . S
C412 C413 1.310 . S
C412 C415 1.461 . S
C412 H432 0.932 . S
C413 C411 1.408 . S
C413 C412 1.310 . S
C413 H433 0.930 . S
C414 C415 1.474 . S
C414 C416 1.285 . S
C414 H434 0.929 . S
C415 C412 1.461 . S
C415 C414 1.474 . S
C416 C411 1.342 . S
C416 C414 1.285 . S
C416 H435 0.930 . S
C417 C420 1.424 . S
C417 C422 1.245 . S
C417 C423 1.428 . S
C418 C421 1.260 . S
C418 C422 1.477 . S
C418 H436 0.932 . S
C419 C420 1.384 . S
C419 C421 1.479 . S
C419 H437 0.929 . S
C420 C417 1.424 . S
C420 C419 1.384 . S
C420 H438 0.928 . S
C421 C418 1.260 . S
C421 C419 1.479 . S
C422 C417 1.245 . S
C422 C418 1.477 . S
C422 H439 0.932 . S
C423 U406 2.882 . S
C423 C417 1.428 . S
C423 O426 1.301 . S
C423 O427 1.282 . S
O424 U406 2.441 . S
O424 C410 1.249 . S
O425 U406 2.420 . S
O425 C410 1.202 . S
O426 U406 2.455 . S
O426 C423 1.301 . S
O427 U406 2.449 . S
O427 C423 1.282 . S
H428 C401 0.931 . S
H429 C403 0.929 . S
H430 C404 0.930 . S
H431 C405 0.931 . S
H432 C412 0.932 . S
H433 C413 0.930 . S
H434 C414 0.929 . S
H435 C416 0.930 . S
H436 C418 0.932 . S
H437 C419 0.929 . S
H438 C420 0.928 . S
H439 C422 0.932 . S
C440 C441 1.264 . S
C440 C445 1.479 . S
C440 C450 1.465 . S
C441 C440 1.264 . S
C441 C443 1.339 . S
C441 H468 0.931 . S
C442 C443 1.395 . S
C442 C444 1.320 . S
C443 C441 1.339 . S
C443 C442 1.395 . S
C443 H469 0.929 . S
C444 C442 1.320 . S
C444 C445 1.405 . S
C444 H470 0.930 . S
C445 C440 1.479 . S
C445 C444 1.405 . S
C445 H471 0.931 . S
U446 O447 2.454 . S
U446 O448 2.458 . S
U446 C449 2.984 . S
U446 C450 2.847 . S
U446 C463 2.882 . S
U446 O464 2.441 . S
U446 O465 2.420 . S
U446 O466 2.455 . S
U446 O467 2.449 . S
O447 U446 2.454 . S
O447 C449 1.353 . S
O448 U446 2.458 . S
O448 C449 1.286 . S
C449 U446 2.984 . S
C449 O447 1.353 . S
C449 O448 1.286 . S
C449 C451 1.363 . S
C450 C440 1.465 . S
C450 U446 2.847 . S
C450 O464 1.249 . S
C450 O465 1.202 . S
C451 C449 1.363 . S
C451 C453 1.408 . S
C451 C456 1.342 . S
C452 C453 1.310 . S
C452 C455 1.461 . S
C452 H472 0.932 . S
C453 C451 1.408 . S
C453 C452 1.310 . S
C453 H473 0.930 . S
C454 C455 1.474 . S
C454 C456 1.285 . S
C454 H474 0.929 . S
C455 C452 1.461 . S
C455 C454 1.474 . S
C456 C451 1.342 . S
C456 C454 1.285 . S
C456 H475 0.930 . S
C457 C460 1.424 . S
C457 C462 1.245 . S
C457 C463 1.428 . S
C458 C461 1.260 . S
C458 C462 1.477 . S
C458 H476 0.932 . S
C459 C460 1.384 . S
C459 C461 1.479 . S
C459 H477 0.929 . S
C460 C457 1.424 . S
C460 C459 1.384 . S
C460 H478 0.928 . S
C461 C458 1.260 . S
C461 C459 1.479 . S
C462 C457 1.245 . S
C462 C458 1.477 . S
C462 H479 0.932 . S
C463 U446 2.882 . S
C463 C457 1.428 . S
C463 O466 1.301 . S
C463 O467 1.282 . S
O464 U446 2.441 . S
O464 C450 1.249 . S
O465 U446 2.420 . S
O465 C450 1.202 . S
O466 U446 2.455 . S
O466 C463 1.301 . S
O467 U446 2.449 . S
O467 C463 1.282 . S
H468 C441 0.931 . S
H469 C443 0.929 . S
H470 C444 0.930 . S
H471 C445 0.931 . S
H472 C452 0.932 . S
H473 C453 0.930 . S
H474 C454 0.929 . S
H475 C456 0.930 . S
H476 C458 0.932 . S
H477 C459 0.929 . S
H478 C460 0.928 . S
H479 C462 0.932 . S
H480 C488 0.950 . S
H481 C493 0.950 . S
H482 C490 0.950 . S
H483 C492 0.950 . S
H484 C494 0.950 . S
H485 C496 0.950 . S
H486 C498 0.950 . S
H487 C499 0.950 . S
C488 H480 0.950 . S
C488 C489 1.386 . S
C488 C490 1.391 . S
C489 C488 1.386 . S
C489 C493 1.393 . S
C490 H482 0.950 . S
C490 C488 1.391 . S
C490 C491 1.400 . S
C491 C490 1.400 . S
C491 C492 1.398 . S
C491 C497 1.491 1_556 S
C492 H483 0.950 . S
C492 C491 1.398 . S
C492 C493 1.391 . S
C493 H481 0.950 . S
C493 C489 1.393 . S
C493 C492 1.391 . S
C494 H484 0.950 . S
C494 C495 1.386 . S
C494 C496 1.391 . S
C495 C494 1.386 . S
C495 C499 1.393 . S
C496 H485 0.950 . S
C496 C494 1.391 . S
C496 C497 1.400 . S
C497 C491 1.491 1_554 S
C497 C496 1.400 . S
C497 C498 1.398 . S
C498 H486 0.950 . S
C498 C497 1.398 . S
C498 C499 1.391 . S
C499 H487 0.950 . S
C499 C495 1.393 . S
C499 C498 1.391 . S
H500 C508 0.950 . S
H501 C513 0.950 . S
H502 C510 0.950 . S
H503 C512 0.950 . S
H504 C514 0.950 . S
H505 C516 0.950 . S
H506 C518 0.950 . S
H507 C519 0.950 . S
C508 H500 0.950 . S
C508 C509 1.386 . S
C508 C510 1.391 . S
C509 C508 1.386 . S
C509 C513 1.393 . S
C510 H502 0.950 . S
C510 C508 1.391 . S
C510 C511 1.400 . S
C511 C510 1.400 . S
C511 C512 1.398 . S
C511 C517 1.491 . S
C512 H503 0.950 . S
C512 C511 1.398 . S
C512 C513 1.391 . S
C513 H501 0.950 . S
C513 C509 1.393 . S
C513 C512 1.391 . S
C514 H504 0.950 . S
C514 C515 1.386 . S
C514 C516 1.391 . S
C515 C514 1.386 . S
C515 C519 1.393 . S
C516 H505 0.950 . S
C516 C514 1.391 . S
C516 C517 1.400 . S
C517 C511 1.491 . S
C517 C516 1.400 . S
C517 C518 1.398 . S
C518 H506 0.950 . S
C518 C517 1.398 . S
C518 C519 1.391 . S
C519 H507 0.950 . S
C519 C515 1.393 . S
C519 C518 1.391 . S
H520 C528 0.950 . S
H521 C533 0.950 . S
H522 C530 0.950 . S
H523 C532 0.950 . S
H524 C534 0.950 . S
H525 C536 0.950 . S
H526 C538 0.950 . S
H527 C539 0.950 . S
C528 H520 0.950 . S
C528 C529 1.386 . S
C528 C530 1.391 . S
C529 C528 1.386 . S
C529 C533 1.393 . S
C530 H522 0.950 . S
C530 C528 1.391 . S
C530 C531 1.400 . S
C531 C530 1.400 . S
C531 C532 1.398 . S
C531 C537 1.491 . S
C532 H523 0.950 . S
C532 C531 1.398 . S
C532 C533 1.391 . S
C533 H521 0.950 . S
C533 C529 1.393 . S
C533 C532 1.391 . S
C534 H524 0.950 . S
C534 C535 1.386 . S
C534 C536 1.391 . S
C535 C534 1.386 . S
C535 C539 1.393 . S
C536 H525 0.950 . S
C536 C534 1.391 . S
C536 C537 1.400 . S
C537 C531 1.491 . S
C537 C536 1.400 . S
C537 C538 1.398 . S
C538 H526 0.950 . S
C538 C537 1.398 . S
C538 C539 1.391 . S
C539 H527 0.950 . S
C539 C535 1.393 . S
C539 C538 1.391 . S
H540 C548 0.950 . S
H541 C553 0.950 . S
H542 C550 0.950 . S
H543 C552 0.950 . S
H544 C554 0.950 . S
H545 C556 0.950 . S
H546 C558 0.950 . S
H547 C559 0.950 . S
C548 H540 0.950 . S
C548 C549 1.386 . S
C548 C550 1.391 . S
C549 C548 1.386 . S
C549 C553 1.393 . S
C550 H542 0.950 . S
C550 C548 1.391 . S
C550 C551 1.400 . S
C551 C550 1.400 . S
C551 C552 1.398 . S
C551 C557 1.491 1_556 S
C552 H543 0.950 . S
C552 C551 1.398 . S
C552 C553 1.391 . S
C553 H541 0.950 . S
C553 C549 1.393 . S
C553 C552 1.391 . S
C554 H544 0.950 . S
C554 C555 1.386 . S
C554 C556 1.391 . S
C555 C554 1.386 . S
C555 C559 1.393 . S
C556 H545 0.950 . S
C556 C554 1.391 . S
C556 C557 1.400 . S
C557 C551 1.491 1_554 S
C557 C556 1.400 . S
C557 C558 1.398 . S
C558 H546 0.950 . S
C558 C557 1.398 . S
C558 C559 1.391 . S
C559 H547 0.950 . S
C559 C555 1.393 . S
C559 C558 1.391 . S
H560 C568 0.950 . S
H561 C573 0.950 . S
H562 C570 0.950 . S
H563 C572 0.950 . S
H564 C574 0.950 . S
H565 C576 0.950 . S
H566 C578 0.950 . S
H567 C579 0.950 . S
C568 H560 0.950 . S
C568 C569 1.386 . S
C568 C570 1.391 . S
C569 C568 1.386 . S
C569 C573 1.393 . S
C570 H562 0.950 . S
C570 C568 1.391 . S
C570 C571 1.400 . S
C571 C570 1.400 . S
C571 C572 1.398 . S
C571 C577 1.491 . S
C572 H563 0.950 . S
C572 C571 1.398 . S
C572 C573 1.391 . S
C573 H561 0.950 . S
C573 C569 1.393 . S
C573 C572 1.391 . S
C574 H564 0.950 . S
C574 C575 1.386 . S
C574 C576 1.391 . S
C575 C574 1.386 . S
C575 C579 1.393 . S
C576 H565 0.950 . S
C576 C574 1.391 . S
C576 C577 1.400 . S
C577 C571 1.491 . S
C577 C576 1.400 . S
C577 C578 1.398 . S
C578 H566 0.950 . S
C578 C577 1.398 . S
C578 C579 1.391 . S
C579 H567 0.950 . S
C579 C575 1.393 . S
C579 C578 1.391 . S
H580 C588 0.950 . S
H581 C593 0.950 . S
H582 C590 0.950 . S
H583 C592 0.950 . S
H584 C594 0.950 . S
H585 C596 0.950 . S
H586 C598 0.950 . S
H587 C599 0.950 . S
C588 H580 0.950 . S
C588 C589 1.386 . S
C588 C590 1.391 . S
C589 C588 1.386 . S
C589 C593 1.393 . S
C590 H582 0.950 . S
C590 C588 1.391 . S
C590 C591 1.400 . S
C591 C590 1.400 . S
C591 C592 1.398 . S
C591 C597 1.491 . S
C592 H583 0.950 . S
C592 C591 1.398 . S
C592 C593 1.391 . S
C593 H581 0.950 . S
C593 C589 1.393 . S
C593 C592 1.391 . S
C594 H584 0.950 . S
C594 C595 1.386 . S
C594 C596 1.391 . S
C595 C594 1.386 . S
C595 C599 1.393 . S
C596 H585 0.950 . S
C596 C594 1.391 . S
C596 C597 1.400 . S
C597 C591 1.491 . S
C597 C596 1.400 . S
C597 C598 1.398 . S
C598 H586 0.950 . S
C598 C597 1.398 . S
C598 C599 1.391 . S
C599 H587 0.950 . S
C599 C595 1.393 . S
C599 C598 1.391 . S
H600 C608 0.950 . S
H601 C613 0.950 . S
H602 C610 0.950 . S
H603 C612 0.950 . S
H604 C614 0.950 . S
H605 C616 0.950 . S
H606 C618 0.950 . S
H607 C619 0.950 . S
C608 H600 0.950 . S
C608 C609 1.386 . S
C608 C610 1.391 . S
C609 C608 1.386 . S
C609 C613 1.393 . S
C610 H602 0.950 . S
C610 C608 1.391 . S
C610 C611 1.400 . S
C611 C610 1.400 . S
C611 C612 1.398 . S
C611 C617 1.491 . S
C612 H603 0.950 . S
C612 C611 1.398 . S
C612 C613 1.391 . S
C613 H601 0.950 . S
C613 C609 1.393 . S
C613 C612 1.391 . S
C614 H604 0.950 . S
C614 C615 1.386 . S
C614 C616 1.391 . S
C615 C614 1.386 . S
C615 C619 1.393 . S
C616 H605 0.950 . S
C616 C614 1.391 . S
C616 C617 1.400 . S
C617 C611 1.491 . S
C617 C616 1.400 . S
C617 C618 1.398 . S
C618 H606 0.950 . S
C618 C617 1.398 . S
C618 C619 1.391 . S
C619 H607 0.950 . S
C619 C615 1.393 . S
C619 C618 1.391 . S
H620 C628 0.950 . S
H621 C633 0.950 . S
H622 C630 0.950 . S
H623 C632 0.950 . S
H624 C634 0.950 . S
H625 C636 0.950 . S
H626 C638 0.950 . S
H627 C639 0.950 . S
C628 H620 0.950 . S
C628 C629 1.386 . S
C628 C630 1.391 . S
C629 C628 1.386 . S
C629 C633 1.393 . S
C630 H622 0.950 . S
C630 C628 1.391 . S
C630 C631 1.400 . S
C631 C630 1.400 . S
C631 C632 1.398 . S
C631 C637 1.491 . S
C632 H623 0.950 . S
C632 C631 1.398 . S
C632 C633 1.391 . S
C633 H621 0.950 . S
C633 C629 1.393 . S
C633 C632 1.391 . S
C634 H624 0.950 . S
C634 C635 1.386 . S
C634 C636 1.391 . S
C635 C634 1.386 . S
C635 C639 1.393 . S
C636 H625 0.950 . S
C636 C634 1.391 . S
C636 C637 1.400 . S
C637 C631 1.491 . S
C637 C636 1.400 . S
C637 C638 1.398 . S
C638 H626 0.950 . S
C638 C637 1.398 . S
C638 C639 1.391 . S
C639 H627 0.950 . S
C639 C635 1.393 . S
C639 C638 1.391 . S
H640 C648 0.950 . S
H641 C653 0.950 . S
H642 C650 0.950 . S
H643 C652 0.950 . S
H644 C654 0.950 . S
H645 C656 0.950 . S
H646 C658 0.950 . S
H647 C659 0.950 . S
C648 H640 0.950 . S
C648 C649 1.386 . S
C648 C650 1.391 . S
C649 C648 1.386 . S
C649 C653 1.393 . S
C650 H642 0.950 . S
C650 C648 1.391 . S
C650 C651 1.400 . S
C651 C650 1.400 . S
C651 C652 1.398 . S
C651 C657 1.491 . S
C652 H643 0.950 . S
C652 C651 1.398 . S
C652 C653 1.391 . S
C653 H641 0.950 . S
C653 C649 1.393 . S
C653 C652 1.391 . S
C654 H644 0.950 . S
C654 C655 1.386 . S
C654 C656 1.391 . S
C655 C654 1.386 . S
C655 C659 1.393 . S
C656 H645 0.950 . S
C656 C654 1.391 . S
C656 C657 1.400 . S
C657 C651 1.491 . S
C657 C656 1.400 . S
C657 C658 1.398 . S
C658 H646 0.950 . S
C658 C657 1.398 . S
C658 C659 1.391 . S
C659 H647 0.950 . S
C659 C655 1.393 . S
C659 C658 1.391 . S
H660 C668 0.950 . S
H661 C673 0.950 . S
H662 C670 0.950 . S
H663 C672 0.950 . S
H664 C674 0.950 . S
H665 C676 0.950 . S
H666 C678 0.950 . S
H667 C679 0.950 . S
C668 H660 0.950 . S
C668 C669 1.386 . S
C668 C670 1.391 . S
C669 C668 1.386 . S
C669 C673 1.393 . S
C670 H662 0.950 . S
C670 C668 1.391 . S
C670 C671 1.400 . S
C671 C670 1.400 . S
C671 C672 1.398 . S
C671 C677 1.491 . S
C672 H663 0.950 . S
C672 C671 1.398 . S
C672 C673 1.391 . S
C673 H661 0.950 . S
C673 C669 1.393 . S
C673 C672 1.391 . S
C674 H664 0.950 . S
C674 C675 1.386 . S
C674 C676 1.391 . S
C675 C674 1.386 . S
C675 C679 1.393 . S
C676 H665 0.950 . S
C676 C674 1.391 . S
C676 C677 1.400 . S
C677 C671 1.491 . S
C677 C676 1.400 . S
C677 C678 1.398 . S
C678 H666 0.950 . S
C678 C677 1.398 . S
C678 C679 1.391 . S
C679 H667 0.950 . S
C679 C675 1.393 . S
C679 C678 1.391 . S
H680 C688 0.950 . S
H681 C693 0.950 . S
H682 C690 0.950 . S
H683 C692 0.950 . S
H684 C694 0.950 . S
H685 C696 0.950 . S
H686 C698 0.950 . S
H687 C699 0.950 . S
C688 H680 0.950 . S
C688 C689 1.386 . S
C688 C690 1.391 . S
C689 C688 1.386 . S
C689 C693 1.393 . S
C690 H682 0.950 . S
C690 C688 1.391 . S
C690 C691 1.400 . S
C691 C690 1.400 . S
C691 C692 1.398 . S
C691 C697 1.491 . S
C692 H683 0.950 . S
C692 C691 1.398 . S
C692 C693 1.391 . S
C693 H681 0.950 . S
C693 C689 1.393 . S
C693 C692 1.391 . S
C694 H684 0.950 . S
C694 C695 1.386 . S
C694 C696 1.391 . S
C695 C694 1.386 . S
C695 C699 1.393 . S
C696 H685 0.950 . S
C696 C694 1.391 . S
C696 C697 1.400 . S
C697 C691 1.491 . S
C697 C696 1.400 . S
C697 C698 1.398 . S
C698 H686 0.950 . S
C698 C697 1.398 . S
C698 C699 1.391 . S
C699 H687 0.950 . S
C699 C695 1.393 . S
C699 C698 1.391 . S
H700 C708 0.950 . S
H701 C713 0.950 . S
H702 C710 0.950 . S
H703 C712 0.950 . S
H704 C714 0.950 . S
H705 C716 0.950 . S
H706 C718 0.950 . S
H707 C719 0.950 . S
C708 H700 0.950 . S
C708 C709 1.386 . S
C708 C710 1.391 . S
C709 C708 1.386 . S
C709 C713 1.393 . S
C710 H702 0.950 . S
C710 C708 1.391 . S
C710 C711 1.400 . S
C711 C710 1.400 . S
C711 C712 1.398 . S
C711 C717 1.491 . S
C712 H703 0.950 . S
C712 C711 1.398 . S
C712 C713 1.391 . S
C713 H701 0.950 . S
C713 C709 1.393 . S
C713 C712 1.391 . S
C714 H704 0.950 . S
C714 C715 1.386 . S
C714 C716 1.391 . S
C715 C714 1.386 . S
C715 C719 1.393 . S
C716 H705 0.950 . S
C716 C714 1.391 . S
C716 C717 1.400 . S
C717 C711 1.491 . S
C717 C716 1.400 . S
C717 C718 1.398 . S
C718 H706 0.950 . S
C718 C717 1.398 . S
C718 C719 1.391 . S
C719 H707 0.950 . S
C719 C715 1.393 . S
C719 C718 1.391 . S
H720 C728 0.950 . S
H721 C733 0.950 . S
H722 C730 0.950 . S
H723 C732 0.950 . S
H724 C734 0.950 . S
H725 C736 0.950 . S
H726 C738 0.950 . S
H727 C739 0.950 . S
C728 H720 0.950 . S
C728 C729 1.386 . S
C728 C730 1.391 . S
C729 C728 1.386 . S
C729 C733 1.393 . S
C730 H722 0.950 . S
C730 C728 1.391 . S
C730 C731 1.400 . S
C731 C730 1.400 . S
C731 C732 1.398 . S
C731 C737 1.491 1_455 S
C732 H723 0.950 . S
C732 C731 1.398 . S
C732 C733 1.391 . S
C733 H721 0.950 . S
C733 C729 1.393 . S
C733 C732 1.391 . S
C734 H724 0.950 . S
C734 C735 1.386 . S
C734 C736 1.391 . S
C735 C734 1.386 . S
C735 C739 1.393 . S
C736 H725 0.950 . S
C736 C734 1.391 . S
C736 C737 1.400 . S
C737 C731 1.491 1_655 S
C737 C736 1.400 . S
C737 C738 1.398 . S
C738 H726 0.950 . S
C738 C737 1.398 . S
C738 C739 1.391 . S
C739 H727 0.950 . S
C739 C735 1.393 . S
C739 C738 1.391 . S
H740 C748 0.950 . S
H741 C753 0.950 . S
H742 C750 0.950 . S
H743 C752 0.950 . S
H744 C754 0.950 . S
H745 C756 0.950 . S
H746 C758 0.950 . S
H747 C759 0.950 . S
C748 H740 0.950 . S
C748 C749 1.386 . S
C748 C750 1.391 . S
C749 C748 1.386 . S
C749 C753 1.393 . S
C750 H742 0.950 . S
C750 C748 1.391 . S
C750 C751 1.400 . S
C751 C750 1.400 . S
C751 C752 1.398 . S
C751 C757 1.491 1_545 S
C752 H743 0.950 . S
C752 C751 1.398 . S
C752 C753 1.391 . S
C753 H741 0.950 . S
C753 C749 1.393 . S
C753 C752 1.391 . S
C754 H744 0.950 . S
C754 C755 1.386 . S
C754 C756 1.391 . S
C755 C754 1.386 . S
C755 C759 1.393 . S
C756 H745 0.950 . S
C756 C754 1.391 . S
C756 C757 1.400 . S
C757 C751 1.491 1_565 S
C757 C756 1.400 . S
C757 C758 1.398 . S
C758 H746 0.950 . S
C758 C757 1.398 . S
C758 C759 1.391 . S
C759 H747 0.950 . S
C759 C755 1.393 . S
C759 C758 1.391 . S
H760 C768 0.950 . S
H761 C773 0.950 . S
H762 C770 0.950 . S
H763 C772 0.950 . S
H764 C774 0.950 . S
H765 C776 0.950 . S
H766 C778 0.950 . S
H767 C779 0.950 . S
C768 H760 0.950 . S
C768 C769 1.386 . S
C768 C770 1.391 . S
C769 C768 1.386 . S
C769 C773 1.393 . S
C770 H762 0.950 . S
C770 C768 1.391 . S
C770 C771 1.400 . S
C771 C770 1.400 . S
C771 C772 1.398 . S
C771 C777 1.491 . S
C772 H763 0.950 . S
C772 C771 1.398 . S
C772 C773 1.391 . S
C773 H761 0.950 . S
C773 C769 1.393 . S
C773 C772 1.391 . S
C774 H764 0.950 . S
C774 C775 1.386 . S
C774 C776 1.391 . S
C775 C774 1.386 . S
C775 C779 1.393 . S
C776 H765 0.950 . S
C776 C774 1.391 . S
C776 C777 1.400 . S
C777 C771 1.491 . S
C777 C776 1.400 . S
C777 C778 1.398 . S
C778 H766 0.950 . S
C778 C777 1.398 . S
C778 C779 1.391 . S
C779 H767 0.950 . S
C779 C775 1.393 . S
C779 C778 1.391 . S
H780 C788 0.950 . S
H781 C793 0.950 . S
H782 C790 0.950 . S
H783 C792 0.950 . S
H784 C794 0.950 . S
H785 C796 0.950 . S
H786 C798 0.950 . S
H787 C799 0.950 . S
C788 H780 0.950 . S
C788 C789 1.386 . S
C788 C790 1.391 . S
C789 C788 1.386 . S
C789 C793 1.393 . S
C790 H782 0.950 . S
C790 C788 1.391 . S
C790 C791 1.400 . S
C791 C790 1.400 . S
C791 C792 1.398 . S
C791 C797 1.491 1_655 S
C792 H783 0.950 . S
C792 C791 1.398 . S
C792 C793 1.391 . S
C793 H781 0.950 . S
C793 C789 1.393 . S
C793 C792 1.391 . S
C794 H784 0.950 . S
C794 C795 1.386 . S
C794 C796 1.391 . S
C795 C794 1.386 . S
C795 C799 1.393 . S
C796 H785 0.950 . S
C796 C794 1.391 . S
C796 C797 1.400 . S
C797 C791 1.491 1_455 S
C797 C796 1.400 . S
C797 C798 1.398 . S
C798 H786 0.950 . S
C798 C797 1.398 . S
C798 C799 1.391 . S
C799 H787 0.950 . S
C799 C795 1.393 . S
C799 C798 1.391 . S
H800 C808 0.950 . S
H801 C813 0.950 . S
H802 C810 0.950 . S
H803 C812 0.950 . S
H804 C814 0.950 . S
H805 C816 0.950 . S
H806 C818 0.950 . S
H807 C819 0.950 . S
C808 H800 0.950 . S
C808 C809 1.386 . S
C808 C810 1.391 . S
C809 C808 1.386 . S
C809 C813 1.393 . S
C810 H802 0.950 . S
C810 C808 1.391 . S
C810 C811 1.400 . S
C811 C810 1.400 . S
C811 C812 1.398 . S
C811 C817 1.491 1_545 S
C812 H803 0.950 . S
C812 C811 1.398 . S
C812 C813 1.391 . S
C813 H801 0.950 . S
C813 C809 1.393 . S
C813 C812 1.391 . S
C814 H804 0.950 . S
C814 C815 1.386 . S
C814 C816 1.391 . S
C815 C814 1.386 . S
C815 C819 1.393 . S
C816 H805 0.950 . S
C816 C814 1.391 . S
C816 C817 1.400 . S
C817 C811 1.491 1_565 S
C817 C816 1.400 . S
C817 C818 1.398 . S
C818 H806 0.950 . S
C818 C817 1.398 . S
C818 C819 1.391 . S
C819 H807 0.950 . S
C819 C815 1.393 . S
C819 C818 1.391 . S
H820 C828 0.950 . S
H821 C833 0.950 . S
H822 C830 0.950 . S
H823 C832 0.950 . S
H824 C834 0.950 . S
H825 C836 0.950 . S
H826 C838 0.950 . S
H827 C839 0.950 . S
C828 H820 0.950 . S
C828 C829 1.386 . S
C828 C830 1.391 . S
C829 C828 1.386 . S
C829 C833 1.393 . S
C830 H822 0.950 . S
C830 C828 1.391 . S
C830 C831 1.400 . S
C831 C830 1.400 . S
C831 C832 1.398 . S
C831 C837 1.491 . S
C832 H823 0.950 . S
C832 C831 1.398 . S
C832 C833 1.391 . S
C833 H821 0.950 . S
C833 C829 1.393 . S
C833 C832 1.391 . S
C834 H824 0.950 . S
C834 C835 1.386 . S
C834 C836 1.391 . S
C835 C834 1.386 . S
C835 C839 1.393 . S
C836 H825 0.950 . S
C836 C834 1.391 . S
C836 C837 1.400 . S
C837 C831 1.491 . S
C837 C836 1.400 . S
C837 C838 1.398 . S
C838 H826 0.950 . S
C838 C837 1.398 . S
C838 C839 1.391 . S
C839 H827 0.950 . S
C839 C835 1.393 . S
C839 C838 1.391 . S
C489 C415 2.369 . S
C495 C15 2.366 . S
C509 C55 2.354 . S
C515 C455 2.358 . S
C529 C255 2.370 . S
C535 C95 2.370 . S
C549 C295 2.366 . S
C555 C135 2.369 . S
C569 C335 2.358 . S
C575 C175 2.354 . S
C589 C215 2.370 . S
C595 C375 2.369 . S
C609 C341 2.397 . S
C615 C21 2.396 . S
C629 C381 2.387 . S
C635 C61 2.392 . S
C649 C101 2.388 . S
C655 C421 2.385 . S
C669 C461 2.386 . S
C675 C141 2.386 . S
C689 C261 2.393 . S
C695 C181 2.397 . S
C709 C301 2.393 . S
C715 C221 2.387 . S
C729 C2 2.209 . S
C735 C442 2.207 . S
C749 C42 2.215 . S
C755 C242 2.210 . S
C769 C82 2.209 . S
C775 C282 2.207 . S
C789 C122 2.218 . S
C795 C322 2.219 . S
C809 C362 2.208 . S
C815 C162 2.207 . S
C829 C202 2.209 . S
C835 C402 2.207 . S
