# Generated by pormake.
# Topology uot, (4)-cn, num edge types: 1
# Building blocks:
#     Node 0, Type 0, BuildingBlock: ESEHIV_clean_sbu_0, # of connection points: 4
#     Node 1, Type 0, BuildingBlock: ESEHIV_clean_sbu_0, # of connection points: 4
#     Node 2, Type 0, BuildingBlock: ESEHIV_clean_sbu_0, # of connection points: 4
#     Node 3, Type 0, BuildingBlock: ESEHIV_clean_sbu_0, # of connection points: 4
#     Node 4, Type 0, BuildingBlock: ESEHIV_clean_sbu_0, # of connection points: 4
#     Node 5, Type 0, BuildingBlock: ESEHIV_clean_sbu_0, # of connection points: 4
#     Node 6, Type 0, BuildingBlock: ESEHIV_clean_sbu_0, # of connection points: 4
#     Node 7, Type 0, BuildingBlock: ESEHIV_clean_sbu_0, # of connection points: 4
#     Node 8, Type 0, BuildingBlock: ESEHIV_clean_sbu_0, # of connection points: 4
#     Node 9, Type 0, BuildingBlock: ESEHIV_clean_sbu_0, # of connection points: 4
#     Node 10, Type 0, BuildingBlock: ESEHIV_clean_sbu_0, # of connection points: 4
#     Node 11, Type 0, BuildingBlock: ESEHIV_clean_sbu_0, # of connection points: 4
#     Node 12, Type 0, BuildingBlock: ESEHIV_clean_sbu_0, # of connection points: 4
#     Node 13, Type 0, BuildingBlock: ESEHIV_clean_sbu_0, # of connection points: 4
#     Node 14, Type 0, BuildingBlock: ESEHIV_clean_sbu_0, # of connection points: 4
#     Node 15, Type 0, BuildingBlock: ESEHIV_clean_sbu_0, # of connection points: 4
#     Edge 16, Type (0, 0), BuildingBlock: ZUJKAS_clean_linker_0, # of connection points: 2
#     Edge 17, Type (0, 0), BuildingBlock: ZUJKAS_clean_linker_0, # of connection points: 2
#     Edge 18, Type (0, 0), BuildingBlock: ZUJKAS_clean_linker_0, # of connection points: 2
#     Edge 19, Type (0, 0), BuildingBlock: ZUJKAS_clean_linker_0, # of connection points: 2
#     Edge 20, Type (0, 0), BuildingBlock: ZUJKAS_clean_linker_0, # of connection points: 2
#     Edge 21, Type (0, 0), BuildingBlock: ZUJKAS_clean_linker_0, # of connection points: 2
#     Edge 22, Type (0, 0), BuildingBlock: ZUJKAS_clean_linker_0, # of connection points: 2
#     Edge 23, Type (0, 0), BuildingBlock: ZUJKAS_clean_linker_0, # of connection points: 2
#     Edge 24, Type (0, 0), BuildingBlock: ZUJKAS_clean_linker_0, # of connection points: 2
#     Edge 25, Type (0, 0), BuildingBlock: ZUJKAS_clean_linker_0, # of connection points: 2
#     Edge 26, Type (0, 0), BuildingBlock: ZUJKAS_clean_linker_0, # of connection points: 2
#     Edge 27, Type (0, 0), BuildingBlock: ZUJKAS_clean_linker_0, # of connection points: 2
#     Edge 28, Type (0, 0), BuildingBlock: ZUJKAS_clean_linker_0, # of connection points: 2
#     Edge 29, Type (0, 0), BuildingBlock: ZUJKAS_clean_linker_0, # of connection points: 2
#     Edge 30, Type (0, 0), BuildingBlock: ZUJKAS_clean_linker_0, # of connection points: 2
#     Edge 31, Type (0, 0), BuildingBlock: ZUJKAS_clean_linker_0, # of connection points: 2
#     Edge 32, Type (0, 0), BuildingBlock: ZUJKAS_clean_linker_0, # of connection points: 2
#     Edge 33, Type (0, 0), BuildingBlock: ZUJKAS_clean_linker_0, # of connection points: 2
#     Edge 34, Type (0, 0), BuildingBlock: ZUJKAS_clean_linker_0, # of connection points: 2
#     Edge 35, Type (0, 0), BuildingBlock: ZUJKAS_clean_linker_0, # of connection points: 2
#     Edge 36, Type (0, 0), BuildingBlock: ZUJKAS_clean_linker_0, # of connection points: 2
#     Edge 37, Type (0, 0), BuildingBlock: ZUJKAS_clean_linker_0, # of connection points: 2
#     Edge 38, Type (0, 0), BuildingBlock: ZUJKAS_clean_linker_0, # of connection points: 2
#     Edge 39, Type (0, 0), BuildingBlock: ZUJKAS_clean_linker_0, # of connection points: 2
#     Edge 40, Type (0, 0), BuildingBlock: ZUJKAS_clean_linker_0, # of connection points: 2
#     Edge 41, Type (0, 0), BuildingBlock: ZUJKAS_clean_linker_0, # of connection points: 2
#     Edge 42, Type (0, 0), BuildingBlock: ZUJKAS_clean_linker_0, # of connection points: 2
#     Edge 43, Type (0, 0), BuildingBlock: ZUJKAS_clean_linker_0, # of connection points: 2
#     Edge 44, Type (0, 0), BuildingBlock: ZUJKAS_clean_linker_0, # of connection points: 2
#     Edge 45, Type (0, 0), BuildingBlock: ZUJKAS_clean_linker_0, # of connection points: 2
#     Edge 46, Type (0, 0), BuildingBlock: ZUJKAS_clean_linker_0, # of connection points: 2
#     Edge 47, Type (0, 0), BuildingBlock: ZUJKAS_clean_linker_0, # of connection points: 2
# Relax obj value: 0.101
# Max RMSD: 0.254
# Mean RMSD: 0.254
data_MOF--net-uot--node1-ESEHIV_clean_sbu_0--edge1-ZUJKAS_clean_linker_0
_symmetry_space_group_name_H-M    P1
_symmetry_Int_Tables_number       1
_symmetry_cell_setting            triclinic
loop_
_symmetry_equiv_pos_as_xyz
'x, y, z'
_cell_length_a     60.874213
_cell_length_b     60.859451
_cell_length_c     60.035093
_cell_angle_alpha  90.000096
_cell_angle_beta   90.0979
_cell_angle_gamma 89.937566
loop_
_atom_site_label
_atom_site_type_symbol
_atom_site_fract_x
_atom_site_fract_y
_atom_site_fract_z
_atom_type_partial_charge
Cu0 Cu 0.20716 0.46243 0.35989 0.0
N1 N 0.20464 0.4896 0.34571 0.0
N2 N 0.19404 0.51641 0.32258 0.0
C3 C 0.19254 0.4948 0.32765 0.0
C4 C 0.20765 0.525 0.3381 0.0
C5 C 0.21409 0.50846 0.35232 0.0
O6 O 0.18539 0.44272 0.34742 0.0
C7 C 0.21808 0.4727 0.40444 0.0
O8 O 0.23813 0.47341 0.39645 0.0
H9 H 0.18282 0.48298 0.31849 0.0
H10 H 0.22469 0.51008 0.3667 0.0
N11 N 0.23523 0.45106 0.35461 0.0
N12 N 0.26427 0.42855 0.35237 0.0
C13 C 0.24293 0.43059 0.3584 0.0
C14 C 0.25219 0.46231 0.34597 0.0
C15 C 0.27007 0.44855 0.34462 0.0
C16 C 0.16496 0.44679 0.34904 0.0
O17 O 0.15855 0.46411 0.36039 0.0
H18 H 0.23299 0.41749 0.36519 0.0
H19 H 0.25163 0.47941 0.34113 0.0
O20 O 0.2023 0.46741 0.39156 0.0
H21 H 0.21215 0.54213 0.33951 0.0
H22 H 0.2862 0.45314 0.3387 0.0
Cu23 Cu 0.45838 0.81612 0.67049 0.0
N24 N 0.4858 0.81733 0.68454 0.0
N25 N 0.51412 0.82751 0.70599 0.0
C26 C 0.49281 0.83111 0.70063 0.0
C27 C 0.52057 0.81069 0.69283 0.0
C28 C 0.50313 0.80452 0.67966 0.0
O29 O 0.43942 0.8393 0.68178 0.0
C30 C 0.4779 0.82994 0.63002 0.0
O31 O 0.49016 0.84199 0.64325 0.0
H32 H 0.48264 0.84381 0.70785 0.0
H33 H 0.50306 0.79166 0.66722 0.0
N34 N 0.44551 0.78906 0.6772 0.0
N35 N 0.4214 0.7615 0.68034 0.0
C36 C 0.42523 0.78177 0.67192 0.0
C37 C 0.4548 0.77289 0.68924 0.0
C38 C 0.44004 0.75591 0.69118 0.0
C39 C 0.44463 0.85954 0.68144 0.0
O40 O 0.46321 0.8655 0.67218 0.0
H41 H 0.41342 0.79133 0.66252 0.0
H42 H 0.47114 0.77345 0.69629 0.0
O43 O 0.46278 0.81808 0.6384 0.0
H44 H 0.53671 0.80326 0.69271 0.0
H45 H 0.44293 0.74056 0.69979 0.0
Cu46 Cu 0.82095 0.56479 0.3617 0.0
N47 N 0.81737 0.53747 0.34824 0.0
N48 N 0.82282 0.50802 0.32672 0.0
C49 C 0.83075 0.5277 0.33339 0.0
C50 C 0.80376 0.50541 0.3379 0.0
C51 C 0.80047 0.52359 0.35115 0.0
O52 O 0.84886 0.57678 0.35201 0.0
C53 C 0.83506 0.54835 0.40229 0.0
O54 O 0.85044 0.54031 0.38929 0.0
H55 H 0.84578 0.53507 0.32736 0.0
H56 H 0.78672 0.52655 0.36213 0.0
N57 N 0.79836 0.58302 0.35161 0.0
N58 N 0.77231 0.60877 0.34849 0.0
C59 C 0.78622 0.59817 0.36247 0.0
C60 C 0.79183 0.58398 0.33024 0.0
C61 C 0.77581 0.59977 0.32825 0.0
C62 C 0.8528 0.5973 0.35241 0.0
O63 O 0.83808 0.6107 0.36086 0.0
H64 H 0.78795 0.60171 0.38006 0.0
H65 H 0.79848 0.57396 0.31698 0.0
O66 O 0.8203 0.56056 0.39373 0.0
H67 H 0.79308 0.49125 0.33683 0.0
H68 H 0.76726 0.60416 0.31306 0.0
Cu69 Cu 0.56265 0.20489 0.66277 0.0
N70 N 0.53487 0.20482 0.67595 0.0
N71 N 0.5065 0.19743 0.69831 0.0
C72 C 0.52764 0.19274 0.69328 0.0
C73 C 0.50027 0.21295 0.68353 0.0
C74 C 0.51773 0.2174 0.66977 0.0
O75 O 0.58068 0.18248 0.67673 0.0
C76 C 0.55241 0.21499 0.6183 0.0
O77 O 0.5502 0.23483 0.62662 0.0
H78 H 0.53772 0.18097 0.70215 0.0
H79 H 0.51795 0.22908 0.65621 0.0
N80 N 0.57553 0.23239 0.6675 0.0
N81 N 0.59891 0.26073 0.66739 0.0
C82 C 0.59564 0.23953 0.66145 0.0
C83 C 0.5659 0.24954 0.67771 0.0
C84 C 0.58021 0.267 0.67764 0.0
C85 C 0.57619 0.16212 0.67524 0.0
O86 O 0.55932 0.15592 0.66311 0.0
H87 H 0.60746 0.22948 0.65264 0.0
H88 H 0.54959 0.24936 0.68479 0.0
O89 O 0.55866 0.19945 0.63105 0.0
H90 H 0.4841 0.2203 0.68249 0.0
H91 H 0.5772 0.28298 0.68495 0.0
Cu92 Cu 0.2051 0.55751 0.67272 0.0
N93 N 0.2039 0.53118 0.6886 0.0
N94 N 0.19338 0.5039 0.71117 0.0
C95 C 0.18955 0.52479 0.70441 0.0
C96 C 0.21085 0.49709 0.69914 0.0
C97 C 0.21717 0.51386 0.68522 0.0
O98 O 0.18175 0.57684 0.68267 0.0
C99 C 0.19777 0.56214 0.62543 0.0
O100 O 0.1932 0.58289 0.62937 0.0
H101 H 0.17628 0.53505 0.71035 0.0
H102 H 0.23046 0.51345 0.67329 0.0
N103 N 0.23217 0.57096 0.67825 0.0
N104 N 0.25912 0.5958 0.68087 0.0
C105 C 0.23873 0.59149 0.67298 0.0
C106 C 0.24897 0.56203 0.68969 0.0
C107 C 0.26557 0.57724 0.6913 0.0
C108 C 0.16147 0.57239 0.68028 0.0
O109 O 0.15578 0.55447 0.66952 0.0
H110 H 0.22854 0.60318 0.66412 0.0
H111 H 0.24906 0.54568 0.6967 0.0
O112 O 0.20286 0.54956 0.64153 0.0
H113 H 0.21865 0.48115 0.70028 0.0
H114 H 0.28122 0.57477 0.69953 0.0
Cu115 Cu 0.55792 0.81452 0.35866 0.0
N116 N 0.53031 0.81572 0.345 0.0
N117 N 0.50191 0.82629 0.3238 0.0
C118 C 0.52292 0.83041 0.32993 0.0
C119 C 0.49602 0.80828 0.33549 0.0
C120 C 0.51348 0.80188 0.34853 0.0
O121 O 0.57646 0.83719 0.34604 0.0
C122 C 0.54608 0.80311 0.40224 0.0
O123 O 0.54223 0.78405 0.39275 0.0
H124 H 0.5327 0.84396 0.32385 0.0
H125 H 0.51392 0.78794 0.35966 0.0
N126 N 0.57069 0.78713 0.35296 0.0
N127 N 0.59434 0.75895 0.35189 0.0
C128 C 0.59045 0.77949 0.35963 0.0
C129 C 0.5618 0.77094 0.34068 0.0
C130 C 0.57626 0.75358 0.34003 0.0
C131 C 0.57301 0.85755 0.3493 0.0
O132 O 0.55681 0.86359 0.36239 0.0
H133 H 0.60185 0.78898 0.36958 0.0
H134 H 0.54593 0.77172 0.33263 0.0
O135 O 0.55384 0.81869 0.39051 0.0
H136 H 0.48032 0.80002 0.33451 0.0
H137 H 0.5735 0.73813 0.33158 0.0
Cu138 Cu 0.82118 0.45884 0.67094 0.0
N139 N 0.81893 0.48635 0.68433 0.0
N140 N 0.82654 0.51565 0.70541 0.0
C141 C 0.83324 0.49554 0.69867 0.0
C142 C 0.80723 0.51913 0.69483 0.0
C143 C 0.80259 0.50102 0.68187 0.0
O144 O 0.84813 0.44551 0.6815 0.0
C145 C 0.83598 0.47494 0.63032 0.0
O146 O 0.85144 0.48289 0.64332 0.0
H147 H 0.84838 0.48768 0.7038 0.0
H148 H 0.78827 0.49862 0.67147 0.0
N149 N 0.79751 0.44185 0.68047 0.0
N150 N 0.77014 0.41745 0.68281 0.0
C151 C 0.78596 0.42619 0.66968 0.0
C152 C 0.78886 0.44295 0.701 0.0
C153 C 0.77204 0.428 0.70252 0.0
C154 C 0.85426 0.42619 0.67637 0.0
O155 O 0.8425 0.41471 0.66217 0.0
H156 H 0.78903 0.42146 0.65259 0.0
H157 H 0.79459 0.45379 0.71405 0.0
O158 O 0.8211 0.46296 0.63889 0.0
H159 H 0.79698 0.53356 0.69657 0.0
H160 H 0.76227 0.42486 0.71722 0.0
Cu161 Cu 0.45968 0.20236 0.35264 0.0
N162 N 0.48719 0.20309 0.33916 0.0
N163 N 0.51577 0.19371 0.31781 0.0
C164 C 0.49564 0.18793 0.32526 0.0
C165 C 0.52005 0.21329 0.32751 0.0
C166 C 0.50239 0.21902 0.34063 0.0
O167 O 0.44524 0.17603 0.34219 0.0
C168 C 0.47349 0.18659 0.39415 0.0
O169 O 0.47942 0.16959 0.38205 0.0
H170 H 0.48716 0.17293 0.32086 0.0
H171 H 0.50059 0.23388 0.35036 0.0
N172 N 0.44375 0.22679 0.34298 0.0
N173 N 0.4205 0.25519 0.34057 0.0
C174 C 0.42816 0.23863 0.35353 0.0
C175 C 0.44588 0.236 0.32276 0.0
C176 C 0.43163 0.25346 0.32121 0.0
C177 C 0.42688 0.16887 0.34911 0.0
O178 O 0.41675 0.1792 0.36534 0.0
H179 H 0.42277 0.23532 0.37036 0.0
H180 H 0.457 0.23027 0.30997 0.0
O181 O 0.46376 0.20259 0.38469 0.0
H182 H 0.53468 0.22306 0.32499 0.0
H183 H 0.42942 0.26386 0.30676 0.0
Cu184 Cu 0.70379 0.96177 0.85871 0.0
N185 N 0.70257 0.98904 0.84444 0.0
N186 N 0.69198 0.01701 0.82269 0.0
C187 C 0.68794 0.99609 0.82913 0.0
C188 C 0.70989 0.02321 0.83443 0.0
C189 C 0.7163 1.006 0.84781 0.0
O190 O 0.68134 0.94294 0.84608 0.0
C191 C 0.71493 0.97411 0.90236 0.0
O192 O 0.73439 0.97667 0.8933 0.0
H193 H 0.67445 0.98615 0.82312 0.0
H194 H 0.73013 1.0058 0.85913 0.0
N195 N 0.7313 0.94904 0.85343 0.0
N196 N 0.76028 0.92637 0.8539 0.0
C197 C 0.73974 0.93017 0.86163 0.0
C198 C 0.74689 0.95728 0.83997 0.0
C199 C 0.76474 0.94342 0.84026 0.0
C200 C 0.66093 0.94611 0.84922 0.0
O201 O 0.65461 0.96211 0.86243 0.0
H202 H 0.73109 0.91962 0.87317 0.0
H203 H 0.74532 0.97226 0.83043 0.0
O204 O 0.69925 0.96683 0.8904 0.0
H205 H 0.71804 0.03895 0.8333 0.0
H206 H 0.77969 0.94554 0.83077 0.0
Cu207 Cu 0.95842 0.31743 0.17665 0.0
N208 N 0.98605 0.31669 0.19002 0.0
N209 N 0.01529 0.3259 0.21056 0.0
C210 C 0.99495 0.33181 0.20368 0.0
C211 C 0.01918 0.30628 0.20079 0.0
C212 C 1.00113 0.30067 0.18815 0.0
O213 O 0.94337 0.34349 0.18725 0.0
C214 C 0.97318 0.33342 0.13561 0.0
O215 O 0.97983 0.34989 0.14806 0.0
H216 H 0.98672 0.34691 0.20824 0.0
H217 H 0.99903 0.28587 0.1784 0.0
N218 N 0.94313 0.29229 0.18536 0.0
N219 N 0.92041 0.26346 0.18624 0.0
C220 C 0.92716 0.28121 0.17454 0.0
C221 C 0.94649 0.28127 0.20447 0.0
C222 C 0.93257 0.2635 0.20506 0.0
C223 C 0.92265 0.34598 0.18622 0.0
O224 O 0.91066 0.33084 0.17646 0.0
H225 H 0.92085 0.2859 0.15836 0.0
H226 H 0.9583 0.28589 0.21711 0.0
O227 O 0.96261 0.31777 0.14466 0.0
H228 H 0.03385 0.29644 0.20288 0.0
H229 H 0.93128 0.25169 0.21848 0.0
Cu230 Cu 0.31934 0.06643 0.85535 0.0
N231 N 0.31836 0.03851 0.84277 0.0
N232 N 0.32694 1.00925 0.82198 0.0
C233 C 0.33124 0.03061 0.82642 0.0
C234 C 0.31064 1.00366 0.83617 0.0
C235 C 0.30542 0.02173 0.84894 0.0
O236 O 0.34599 0.08051 0.8449 0.0
C237 C 0.33514 0.0521 0.89619 0.0
O238 O 0.35119 0.04524 0.88333 0.0
H239 H 0.34355 0.04041 0.81809 0.0
H240 H 0.29335 0.02249 0.86212 0.0
N241 N 0.29494 0.08224 0.8454 0.0
N242 N 0.26761 0.10664 0.84217 0.0
C243 C 0.28339 0.09825 0.85564 0.0
C244 C 0.2861 0.08034 0.82497 0.0
C245 C 0.26928 0.0953 0.82291 0.0
C246 C 0.34857 0.10123 0.84479 0.0
O247 O 0.33318 0.11385 0.85325 0.0
H248 H 0.28691 0.10404 0.87231 0.0
H249 H 0.29174 0.06899 0.81234 0.0
O250 O 0.31939 0.06286 0.88744 0.0
H251 H 0.3034 0.98751 0.83774 0.0
H252 H 0.25901 0.09757 0.80836 0.0
Cu253 Cu 0.06245 0.70288 0.16693 0.0
N254 N 0.03541 0.7011 0.18138 0.0
N255 N 1.00856 0.69242 0.20511 0.0
C256 C 0.02984 0.6893 0.19951 0.0
C257 C 1.00056 0.70673 0.18995 0.0
C258 C 0.01713 0.712 0.17535 0.0
O259 O 0.08112 0.67888 0.17681 0.0
C260 C 0.06478 0.68992 0.12077 0.0
O261 O 0.07999 0.67585 0.12693 0.0
H262 H 0.04117 0.67882 0.20849 0.0
H263 H 0.01598 0.723 0.16124 0.0
N264 N 0.07539 0.72956 0.17485 0.0
N265 N 0.0988 0.75767 0.17845 0.0
C266 C 0.09505 0.73788 0.16885 0.0
C267 C 0.06642 0.74454 0.18855 0.0
C268 C 0.08073 0.76185 0.19077 0.0
C269 C 0.07457 0.65903 0.17707 0.0
O270 O 0.05508 0.65429 0.16897 0.0
H271 H 0.10643 0.72946 0.15796 0.0
H272 H 0.05052 0.74298 0.19639 0.0
O273 O 0.05626 0.70266 0.13517 0.0
H274 H 0.98379 0.71262 0.18918 0.0
H275 H 0.07783 0.77654 0.20049 0.0
Cu276 Cu 0.70752 0.0571 0.17127 0.0
N277 N 0.70606 0.03057 0.18679 0.0
N278 N 0.69542 1.00308 0.20904 0.0
C279 C 0.69126 0.0238 0.20199 0.0
C280 C 0.71362 0.99677 0.19786 0.0
C281 C 0.72006 0.01368 0.18418 0.0
O282 O 0.68409 0.0764 0.18111 0.0
C283 C 0.69582 0.06009 0.12468 0.0
O284 O 0.68483 0.07797 0.12982 0.0
H285 H 0.67753 0.03372 0.20743 0.0
H286 H 0.734 0.01373 0.17302 0.0
N287 N 0.7344 0.07036 0.1779 0.0
N288 N 0.76323 0.09315 0.17828 0.0
C289 C 0.74367 0.08832 0.16869 0.0
C290 C 0.74843 0.06374 0.19387 0.0
C291 C 0.76618 0.07767 0.19413 0.0
C292 C 0.6638 0.07169 0.17947 0.0
O293 O 0.65796 0.05342 0.16943 0.0
H294 H 0.73626 0.09754 0.15521 0.0
H295 H 0.74578 0.04987 0.20479 0.0
O296 O 0.70626 0.0498 0.1398 0.0
H297 H 0.72188 0.9811 0.19953 0.0
H298 H 0.77994 0.07675 0.20552 0.0
Cu299 Cu 0.05846 0.31758 0.86612 0.0
N300 N 0.03039 0.32007 0.85381 0.0
N301 N 1.00239 0.32935 0.83159 0.0
C302 C 0.02438 0.33004 0.8347 0.0
C303 C 0.99438 0.31842 0.84937 0.0
C304 C 0.01165 0.31274 0.86301 0.0
O305 O 0.07718 0.3397 0.85285 0.0
C306 C 0.04892 0.3061 0.91037 0.0
O307 O 0.04512 0.28686 0.90124 0.0
H308 H 0.03585 0.33808 0.82361 0.0
H309 H 1.01059 0.30401 0.87864 0.0
N310 N 0.06968 0.28971 0.85972 0.0
N311 N 0.0922 0.2608 0.85648 0.0
C312 C 0.09015 0.28194 0.8632 0.0
C313 C 0.05839 0.27301 0.85058 0.0
C314 C 0.07217 0.25519 0.84858 0.0
C315 C 0.07302 0.36009 0.85493 0.0
O316 O 0.05621 0.36623 0.86715 0.0
H317 H 0.10327 0.2917 0.87027 0.0
H318 H 0.04126 0.27372 0.84584 0.0
O319 O 0.0558 0.32174 0.89814 0.0
H320 H 0.97725 0.31467 0.8523 0.0
H321 H 0.06762 0.23924 0.84212 0.0
Cu322 Cu 0.31634 0.96127 0.16428 0.0
N323 N 0.31714 0.98897 0.17763 0.0
N324 N 0.32557 0.01721 0.19979 0.0
C325 C 0.3284 0.99553 0.19579 0.0
C326 C 0.31192 0.02443 0.18364 0.0
C327 C 0.30671 1.00699 0.17006 0.0
O328 O 0.33841 0.94237 0.17792 0.0
C329 C 0.3331 0.97995 0.12462 0.0
O330 O 0.34437 0.99213 0.13861 0.0
H331 H 0.33888 0.98479 0.2055 0.0
H332 H 0.29626 1.00739 0.15548 0.0
N333 N 0.28858 0.9493 0.16955 0.0
N334 N 0.26032 0.92605 0.17264 0.0
C335 C 0.28128 0.92872 0.16567 0.0
C336 C 0.2717 0.95996 0.17912 0.0
C337 C 0.25429 0.94573 0.18104 0.0
C338 C 0.35882 0.94692 0.178 0.0
O339 O 0.36568 0.96463 0.16767 0.0
H340 H 0.29128 0.9159 0.15837 0.0
H341 H 0.27206 0.9769 0.18452 0.0
O342 O 0.32052 0.96502 0.13225 0.0
H343 H 0.30606 0.04113 0.18179 0.0
H344 H 0.23835 0.94966 0.18793 0.0
Cu345 Cu 0.96147 0.70708 0.85703 0.0
N346 N 0.98807 0.7062 0.84151 0.0
N347 N 0.01552 0.69551 0.81923 0.0
C348 C 0.99474 0.69152 0.82612 0.0
C349 C 0.022 0.71345 0.83075 0.0
C350 C 1.00511 0.71992 0.84448 0.0
O351 O 0.94177 0.68511 0.84466 0.0
C352 C 0.98357 0.69074 0.89518 0.0
O353 O 0.99563 0.68056 0.88027 0.0
H354 H 0.98475 0.67788 0.82059 0.0
H355 H 1.00526 0.73358 0.856 0.0
N356 N 0.94879 0.73481 0.85286 0.0
N357 N 0.92597 0.76365 0.85431 0.0
C358 C 0.92982 0.74282 0.86123 0.0
C359 C 0.95702 0.751 0.84012 0.0
C360 C 0.94308 0.76876 0.84102 0.0
C361 C 0.94468 0.66453 0.847 0.0
O362 O 0.9611 0.65747 0.85928 0.0
H363 H 0.91919 0.73363 0.87224 0.0
H364 H 0.97201 0.74991 0.83057 0.0
O365 O 0.96747 0.70255 0.88869 0.0
H366 H 0.03778 0.72148 0.82938 0.0
H367 H 0.94516 0.7841 0.83215 0.0
H368 H 0.25944 0.39308 0.37977 0.0
H369 H 0.28423 0.36139 0.38292 0.0
H370 H 0.32553 0.38872 0.33174 0.0
H371 H 0.30085 0.41999 0.3281 0.0
H372 H 0.29916 0.3308 0.34772 0.0
H373 H 0.36716 0.3781 0.38615 0.0
H374 H 0.33908 0.38777 0.3859 0.0
H375 H 0.35591 0.39054 0.36149 0.0
C376 C 0.27367 0.39227 0.36903 0.0
C377 C 0.27822 0.40934 0.35386 0.0
C378 C 0.28787 0.37418 0.37094 0.0
C379 C 0.30691 0.37294 0.35785 0.0
C380 C 0.31117 0.3896 0.34234 0.0
H381 H 0.41698 0.29616 0.32343 0.0
H382 H 0.3882 0.32305 0.33057 0.0
C383 C 0.29703 0.40756 0.34035 0.0
C384 C 0.32253 0.35433 0.36008 0.0
H385 H 0.37648 0.34311 0.37077 0.0
C386 C 0.31597 0.33331 0.35313 0.0
C387 C 0.34441 0.3577 0.36724 0.0
C388 C 0.35207 0.3797 0.37583 0.0
C389 C 0.33114 0.31588 0.35184 0.0
C390 C 0.3533 0.31956 0.358 0.0
C391 C 0.35953 0.34033 0.36597 0.0
C392 C 0.37073 0.30285 0.3543 0.0
C393 C 0.32363 0.29402 0.34275 0.0
C394 C 0.3707 0.28259 0.3655 0.0
C395 C 0.38719 0.267 0.36132 0.0
C396 C 0.40398 0.27143 0.34585 0.0
C397 C 0.40412 0.29197 0.33509 0.0
C398 C 0.38774 0.30747 0.33929 0.0
H399 H 0.307 0.29502 0.33515 0.0
H400 H 0.33534 0.28787 0.33002 0.0
H401 H 0.32307 0.28184 0.35649 0.0
H402 H 0.35794 0.27882 0.37744 0.0
H403 H 0.38655 0.25135 0.36985 0.0
H404 H 0.40713 0.73076 0.70951 0.0
H405 H 0.37499 0.70721 0.70583 0.0
H406 H 0.35791 0.73928 0.64415 0.0
H407 H 0.3906 0.76267 0.64741 0.0
H408 H 0.3301 0.7187 0.70235 0.0
H409 H 0.35956 0.67349 0.6274 0.0
H410 H 0.37767 0.6901 0.64425 0.0
H411 H 0.35852 0.70297 0.6256 0.0
C412 C 0.39671 0.73273 0.69503 0.0
C413 C 0.40166 0.74845 0.6786 0.0
C414 C 0.37821 0.71935 0.69305 0.0
C415 C 0.3642 0.72128 0.67459 0.0
C416 C 0.36869 0.73729 0.65838 0.0
H417 H 0.25749 0.62625 0.64773 0.0
H418 H 0.28001 0.65964 0.64463 0.0
C419 C 0.38726 0.75078 0.66037 0.0
C420 C 0.34518 0.70615 0.67252 0.0
H421 H 0.32661 0.66149 0.64359 0.0
C422 C 0.32917 0.70637 0.68933 0.0
C423 C 0.34389 0.69017 0.65543 0.0
C424 C 0.36084 0.68894 0.63717 0.0
C425 C 0.31241 0.69056 0.68999 0.0
C426 C 0.31186 0.67384 0.67364 0.0
C427 C 0.32712 0.6743 0.65614 0.0
C428 C 0.29718 0.65448 0.67579 0.0
C429 C 0.2957 0.69163 0.70849 0.0
C430 C 0.29945 0.6405 0.69422 0.0
C431 C 0.28671 0.62153 0.69599 0.0
C432 C 0.27144 0.616 0.67931 0.0
C433 C 0.26896 0.63016 0.66094 0.0
C434 C 0.28187 0.64916 0.6591 0.0
H435 H 0.29396 0.70862 0.71502 0.0
H436 H 0.27937 0.68579 0.70274 0.0
H437 H 0.30118 0.68098 0.72243 0.0
H438 H 0.31141 0.64404 0.7071 0.0
H439 H 0.28887 0.61117 0.71047 0.0
H440 H 0.62416 0.76124 0.38575 0.0
H441 H 0.65645 0.73766 0.39118 0.0
H442 H 0.64064 0.70253 0.33092 0.0
H443 H 0.60876 0.72604 0.32517 0.0
H444 H 0.64956 0.6753 0.36887 0.0
H445 H 0.7144 0.73813 0.35415 0.0
H446 H 0.69346 0.74459 0.37425 0.0
H447 H 0.68629 0.74212 0.34536 0.0
C448 C 0.62769 0.74867 0.37352 0.0
C449 C 0.61372 0.74554 0.35506 0.0
C450 C 0.64613 0.73519 0.37668 0.0
C451 C 0.65096 0.7184 0.36141 0.0
C452 C 0.63715 0.71532 0.34297 0.0
H453 H 0.75868 0.64113 0.32086 0.0
H454 H 0.73016 0.66839 0.32794 0.0
C455 C 0.61882 0.72875 0.33978 0.0
C456 C 0.67017 0.70366 0.36447 0.0
H457 H 0.72612 0.70184 0.36055 0.0
C458 C 0.66634 0.6811 0.36739 0.0
C459 C 0.69199 0.71132 0.36239 0.0
C460 C 0.69695 0.73533 0.35873 0.0
C461 C 0.6837 0.66588 0.36753 0.0
C462 C 0.70551 0.67346 0.36492 0.0
C463 C 0.7094 0.69611 0.36272 0.0
C464 C 0.72411 0.65797 0.36182 0.0
C465 C 0.67847 0.6417 0.36927 0.0
C466 C 0.73057 0.64332 0.3787 0.0
C467 C 0.74688 0.62752 0.37462 0.0
C468 C 0.75692 0.62612 0.35358 0.0
C469 C 0.75097 0.64143 0.33708 0.0
C470 C 0.73479 0.65718 0.34117 0.0
H471 H 0.66061 0.6384 0.36747 0.0
H472 H 0.68743 0.63226 0.35632 0.0
H473 H 0.68383 0.63552 0.3858 0.0
H474 H 0.72273 0.64384 0.39487 0.0
H475 H 0.75109 0.61598 0.38766 0.0
H476 H 0.64135 0.24693 0.6651 0.0
H477 H 0.67418 0.27023 0.66271 0.0
H478 H 0.63309 0.32792 0.6603 0.0
H479 H 0.60038 0.30484 0.66222 0.0
H480 H 0.66941 0.32854 0.62984 0.0
H481 H 0.69407 0.30793 0.71678 0.0
H482 H 0.68994 0.28529 0.69798 0.0
H483 H 0.66699 0.30201 0.70607 0.0
C484 C 0.63933 0.26455 0.66372 0.0
C485 C 0.61825 0.27405 0.66415 0.0
C486 C 0.65809 0.27784 0.66251 0.0
C487 C 0.65606 0.30082 0.66163 0.0
C488 C 0.63504 0.31024 0.66108 0.0
H489 H 0.73043 0.41073 0.70192 0.0
H490 H 0.70493 0.38078 0.6947 0.0
C491 C 0.61635 0.29702 0.66238 0.0
C492 C 0.6756 0.31535 0.66252 0.0
H493 H 0.71517 0.33431 0.69803 0.0
C494 C 0.67966 0.32961 0.64459 0.0
C495 C 0.68879 0.31681 0.68189 0.0
C496 C 0.68476 0.30234 0.70189 0.0
C497 C 0.69619 0.3457 0.64578 0.0
C498 C 0.70899 0.34749 0.66537 0.0
C499 C 0.70537 0.3328 0.683 0.0
C500 C 0.72464 0.36583 0.66889 0.0
C501 C 0.69919 0.36137 0.62656 0.0
C502 C 0.74422 0.36745 0.65667 0.0
C503 C 0.75905 0.38459 0.66089 0.0
C504 C 0.75455 0.40034 0.67747 0.0
C505 C 0.73471 0.39874 0.68935 0.0
C506 C 0.72001 0.38165 0.68517 0.0
H507 H 0.68609 0.35958 0.61378 0.0
H508 H 0.69926 0.37861 0.63263 0.0
H509 H 0.71528 0.35818 0.61852 0.0
H510 H 0.74821 0.35525 0.64417 0.0
H511 H 0.77424 0.38517 0.65158 0.0
H512 H 0.80471 0.92635 0.8537 0.0
H513 H 0.82907 0.89493 0.85895 0.0
H514 H 0.77312 0.85317 0.87071 0.0
H515 H 0.74845 0.88464 0.86494 0.0
H516 H 0.8338 0.86619 0.89611 0.0
H517 H 0.80657 0.82212 0.81956 0.0
H518 H 0.80037 0.85076 0.82426 0.0
H519 H 0.78565 0.8299 0.83916 0.0
C520 C 0.79752 0.91049 0.85727 0.0
C521 C 0.77458 0.90798 0.85861 0.0
C522 C 0.8115 0.89255 0.86044 0.0
C523 C 0.80292 0.87165 0.86493 0.0
C524 C 0.78007 0.86911 0.86694 0.0
H525 H 0.88405 0.75115 0.86355 0.0
H526 H 0.85233 0.77543 0.86963 0.0
C527 C 0.76601 0.88714 0.86384 0.0
C528 C 0.81817 0.85267 0.86699 0.0
H529 H 0.83591 0.80673 0.83963 0.0
C530 C 0.83409 0.85303 0.88393 0.0
C531 C 0.81844 0.83542 0.85117 0.0
C532 C 0.80197 0.83445 0.83239 0.0
C533 C 0.85072 0.83704 0.88504 0.0
C534 C 0.85171 0.82049 0.86852 0.0
C535 C 0.83515 0.81946 0.85225 0.0
C536 C 0.87094 0.80555 0.8665 0.0
C537 C 0.86728 0.83824 0.90371 0.0
C538 C 0.89187 0.81438 0.86267 0.0
C539 C 0.9099 0.80062 0.85922 0.0
C540 C 0.90746 0.77764 0.85937 0.0
C541 C 0.88653 0.76876 0.86355 0.0
C542 C 0.86839 0.7826 0.86691 0.0
H543 H 0.86038 0.84676 0.91851 0.0
H544 H 0.87288 0.8216 0.90878 0.0
H545 H 0.88179 0.84772 0.89803 0.0
H546 H 0.8942 0.83201 0.86185 0.0
H547 H 0.92579 0.80802 0.85628 0.0
H548 H 0.75257 0.13302 0.16069 0.0
H549 H 0.77741 0.16418 0.15463 0.0
H550 H 0.83158 0.12563 0.17961 0.0
H551 H 0.8072 0.09442 0.18495 0.0
H552 H 0.80143 0.18617 0.18617 0.0
H553 H 0.85775 0.15109 0.12351 0.0
H554 H 0.8315 0.13882 0.12988 0.0
H555 H 0.85511 0.1333 0.14715 0.0
C556 C 0.76985 0.13105 0.16445 0.0
C557 C 0.77785 0.11119 0.17337 0.0
C558 C 0.784 0.14892 0.1611 0.0
C559 C 0.80644 0.14715 0.16634 0.0
C560 C 0.81446 0.12727 0.17496 0.0
H561 H 0.9193 0.22051 0.19755 0.0
H562 H 0.89011 0.19413 0.18956 0.0
C563 C 0.80038 0.10949 0.17832 0.0
C564 C 0.82138 0.16637 0.1644 0.0
H565 H 0.87203 0.18136 0.14529 0.0
C566 C 0.81664 0.18535 0.17683 0.0
C567 C 0.84119 0.16534 0.15212 0.0
C568 C 0.84657 0.14612 0.13722 0.0
C569 C 0.83184 0.20266 0.17847 0.0
C570 C 0.85219 0.20097 0.16729 0.0
C571 C 0.85646 0.18253 0.15396 0.0
C572 C 0.87007 0.2171 0.171 0.0
C573 C 0.82659 0.2221 0.19313 0.0
C574 C 0.86862 0.23869 0.1629 0.0
C575 C 0.88537 0.25386 0.16744 0.0
C576 C 0.90372 0.24768 0.18029 0.0
C577 C 0.90524 0.22589 0.18793 0.0
C578 C 0.88864 0.21075 0.18325 0.0
H579 H 0.81109 0.21979 0.20259 0.0
H580 H 0.84019 0.225 0.20513 0.0
H581 H 0.82491 0.23704 0.18268 0.0
H582 H 0.85447 0.24384 0.15325 0.0
H583 H 0.88368 0.27055 0.16142 0.0
H584 H 0.12744 0.26474 0.88426 0.0
H585 H 0.15961 0.24054 0.88607 0.0
H586 H 0.13287 0.20107 0.83297 0.0
H587 H 0.10098 0.22519 0.83078 0.0
H588 H 0.14776 0.17677 0.87095 0.0
H589 H 0.21024 0.23594 0.83973 0.0
H590 H 0.19333 0.24489 0.86256 0.0
H591 H 0.18112 0.24018 0.83577 0.0
C592 C 0.12851 0.25108 0.87278 0.0
C593 C 0.1115 0.24694 0.85741 0.0
C594 C 0.1469 0.23724 0.87388 0.0
C595 C 0.14866 0.21907 0.85958 0.0
C596 C 0.13179 0.21495 0.84422 0.0
H597 H 0.24962 0.13489 0.81247 0.0
H598 H 0.22185 0.16291 0.81971 0.0
C599 C 0.11348 0.22874 0.84308 0.0
C600 C 0.16782 0.204 0.86061 0.0
H601 H 0.22251 0.20026 0.84847 0.0
C602 C 0.16417 0.18193 0.86629 0.0
C603 C 0.18915 0.21079 0.85439 0.0
C604 C 0.19383 0.23419 0.8476 0.0
C605 C 0.18117 0.16633 0.86539 0.0
C606 C 0.20244 0.17304 0.85884 0.0
C607 C 0.20622 0.19522 0.85365 0.0
C608 C 0.22038 0.1569 0.85517 0.0
C609 C 0.17602 0.1426 0.87048 0.0
C610 C 0.2291 0.14444 0.8728 0.0
C611 C 0.24498 0.12825 0.86868 0.0
C612 C 0.25233 0.1242 0.84685 0.0
C613 C 0.24401 0.13723 0.8294 0.0
C614 C 0.22827 0.15341 0.83353 0.0
H615 H 0.15806 0.13956 0.87154 0.0
H616 H 0.18305 0.13165 0.85751 0.0
H617 H 0.18353 0.13806 0.88669 0.0
H618 H 0.22343 0.14706 0.88968 0.0
H619 H 0.25103 0.11849 0.88246 0.0
H620 H 0.22771 0.91479 0.20093 0.0
H621 H 0.20322 0.88326 0.19812 0.0
H622 H 0.2377 0.86114 0.13957 0.0
H623 H 0.26242 0.89291 0.14228 0.0
H624 H 0.17575 0.87428 0.16191 0.0
H625 H 0.23353 0.80508 0.17803 0.0
H626 H 0.24017 0.83318 0.18498 0.0
H627 H 0.24119 0.82417 0.15653 0.0
C628 C 0.23014 0.90327 0.18743 0.0
C629 C 0.24693 0.9065 0.17171 0.0
C630 C 0.21618 0.88516 0.18592 0.0
C631 C 0.21868 0.86978 0.16872 0.0
C632 C 0.23569 0.87262 0.1532 0.0
H633 H 0.12757 0.75934 0.14372 0.0
H634 H 0.15806 0.78535 0.13902 0.0
C635 C 0.24978 0.89079 0.15475 0.0
C636 C 0.20254 0.8516 0.16663 0.0
H637 H 0.19639 0.79595 0.17149 0.0
C638 C 0.18032 0.85715 0.16381 0.0
C639 C 0.20853 0.82924 0.16897 0.0
C640 C 0.23211 0.82243 0.17245 0.0
C641 C 0.16387 0.84104 0.16392 0.0
C642 C 0.16974 0.8188 0.16715 0.0
C643 C 0.192 0.81306 0.16905 0.0
C644 C 0.1527 0.80176 0.17049 0.0
C645 C 0.14022 0.84795 0.16105 0.0
C646 C 0.14003 0.80208 0.18995 0.0
C647 C 0.12279 0.78726 0.19274 0.0
C648 C 0.11774 0.77178 0.17609 0.0
C649 C 0.13102 0.77097 0.1569 0.0
C650 C 0.1484 0.78585 0.15415 0.0
H651 H 0.13882 0.86467 0.15374 0.0
H652 H 0.13127 0.83617 0.15022 0.0
H653 H 0.13206 0.8481 0.17757 0.0
H654 H 0.1433 0.81407 0.20288 0.0
H655 H 0.11333 0.78806 0.20795 0.0
H656 H 0.15568 0.50522 0.30223 0.0
H657 H 0.13596 0.52622 0.27377 0.0
H658 H 0.18645 0.57582 0.27537 0.0
H659 H 0.20662 0.55462 0.30317 0.0
H660 H 0.11932 0.56792 0.27813 0.0
H661 H 0.17935 0.56571 0.20896 0.0
H662 H 0.18115 0.54753 0.23266 0.0
H663 H 0.19112 0.57529 0.2346 0.0
C664 C 0.16284 0.52036 0.29623 0.0
C665 C 0.18279 0.52819 0.30505 0.0
C666 C 0.15146 0.53242 0.28004 0.0
C667 C 0.15987 0.55244 0.2722 0.0
C668 C 0.17985 0.5602 0.28081 0.0
H669 H 0.1154 0.6633 0.19578 0.0
H670 H 0.13565 0.63594 0.21752 0.0
C671 C 0.19123 0.54817 0.29696 0.0
C672 C 0.14714 0.56597 0.25612 0.0
H673 H 0.15069 0.59258 0.20613 0.0
C674 C 0.12605 0.57307 0.26225 0.0
C675 C 0.15597 0.57272 0.23543 0.0
C676 C 0.17805 0.56475 0.22739 0.0
C677 C 0.11388 0.58739 0.24863 0.0
C678 C 0.12292 0.59454 0.22819 0.0
C679 C 0.14383 0.58711 0.22184 0.0
C680 C 0.11124 0.61042 0.21363 0.0
C681 C 0.09177 0.59539 0.25662 0.0
C682 C 0.09107 0.60494 0.20376 0.0
C683 C 0.07944 0.62054 0.1913 0.0
C684 C 0.08781 0.64189 0.18845 0.0
C685 C 0.10842 0.64705 0.19771 0.0
C686 C 0.12004 0.63143 0.21012 0.0
H687 H 0.08925 0.59206 0.27463 0.0
H688 H 0.08995 0.61332 0.25368 0.0
H689 H 0.07863 0.58685 0.24718 0.0
H690 H 0.08416 0.58869 0.20596 0.0
H691 H 0.06367 0.61598 0.18433 0.0
H692 H 0.55864 0.83064 0.70648 0.0
H693 H 0.58131 0.8508 0.7329 0.0
H694 H 0.52318 0.87318 0.76701 0.0
H695 H 0.50026 0.85225 0.74113 0.0
H696 H 0.58182 0.89509 0.74083 0.0
H697 H 0.56046 0.84977 0.81818 0.0
H698 H 0.55381 0.83949 0.79078 0.0
H699 H 0.53742 0.8608 0.80316 0.0
C700 C 0.55057 0.83948 0.71979 0.0
C701 C 0.52752 0.83958 0.72168 0.0
C702 C 0.56361 0.85118 0.73481 0.0
C703 C 0.55398 0.86326 0.75213 0.0
C704 C 0.531 0.86362 0.75404 0.0
H705 H 0.61599 0.94827 0.85181 0.0
H706 H 0.58915 0.92852 0.82883 0.0
C707 C 0.5179 0.85183 0.73902 0.0
C708 C 0.56815 0.87598 0.76761 0.0
H709 H 0.58366 0.88073 0.82217 0.0
C710 C 0.5822 0.89194 0.75861 0.0
C711 C 0.56856 0.87193 0.79084 0.0
C712 C 0.55441 0.85445 0.80136 0.0
C713 C 0.59674 0.90386 0.77214 0.0
C714 C 0.59744 0.89954 0.79526 0.0
C715 C 0.58307 0.88395 0.8044 0.0
C716 C 0.61354 0.91059 0.81001 0.0
C717 C 0.61123 0.92106 0.76161 0.0
C718 C 0.63608 0.90662 0.80735 0.0
C719 C 0.65144 0.91777 0.82047 0.0
C720 C 0.64453 0.93313 0.83652 0.0
C721 C 0.62187 0.93661 0.83956 0.0
C722 C 0.6065 0.92535 0.82647 0.0
H723 H 0.60515 0.926 0.74488 0.0
H724 H 0.61229 0.93591 0.77231 0.0
H725 H 0.62806 0.91432 0.75965 0.0
H726 H 0.64182 0.89505 0.79494 0.0
H727 H 0.66873 0.91461 0.81772 0.0
H728 H 0.87868 0.35433 0.19078 0.0
H729 H 0.86137 0.3837 0.21238 0.0
H730 H 0.92522 0.40913 0.22977 0.0
H731 H 0.94269 0.37997 0.20811 0.0
H732 H 0.86769 0.39055 0.25832 0.0
H733 H 0.89155 0.46429 0.20962 0.0
H734 H 0.89282 0.43682 0.19829 0.0
H735 H 0.91397 0.4464 0.2168 0.0
C736 C 0.88906 0.36634 0.19893 0.0
C737 C 0.91208 0.36478 0.1977 0.0
C738 C 0.87913 0.38309 0.2113 0.0
C739 C 0.892 0.39873 0.22248 0.0
C740 C 0.91496 0.39749 0.22093 0.0
H741 H 0.86612 0.50366 0.31675 0.0
H742 H 0.88263 0.47724 0.29099 0.0
C743 C 0.92492 0.38072 0.20863 0.0
C744 C 0.88147 0.41539 0.237 0.0
H745 H 0.87576 0.47063 0.24525 0.0
C746 C 0.8693 0.40807 0.25538 0.0
C747 C 0.88377 0.43821 0.23321 0.0
C748 C 0.89607 0.44697 0.21331 0.0
C749 C 0.85968 0.42295 0.27034 0.0
C750 C 0.86192 0.44578 0.26653 0.0
C751 C 0.87407 0.45312 0.24812 0.0
C752 C 0.85178 0.46228 0.28154 0.0
C753 C 0.84771 0.41407 0.29041 0.0
C754 C 0.82892 0.46291 0.28445 0.0
C755 C 0.81944 0.47798 0.29914 0.0
C756 C 0.83261 0.49288 0.3111 0.0
C757 C 0.85548 0.49255 0.30772 0.0
C758 C 0.86496 0.47741 0.29305 0.0
H759 H 0.85241 0.39679 0.29403 0.0
H760 H 0.85108 0.42421 0.3054 0.0
H761 H 0.82976 0.41447 0.28716 0.0
H762 H 0.81839 0.45173 0.27533 0.0
H763 H 0.80177 0.47808 0.30097 0.0
H764 H 0.5091 0.15599 0.71487 0.0
H765 H 0.48418 0.13901 0.74195 0.0
H766 H 0.44877 0.20014 0.7478 0.0
H767 H 0.4734 0.21706 0.72073 0.0
H768 H 0.47311 0.14922 0.78582 0.0
H769 H 0.40062 0.15717 0.73038 0.0
H770 H 0.42833 0.16125 0.72062 0.0
H771 H 0.41425 0.18284 0.7353 0.0
C772 C 0.49612 0.16583 0.7221 0.0
C773 C 0.49301 0.18777 0.71542 0.0
C774 C 0.48187 0.15611 0.73751 0.0
C775 C 0.46431 0.16817 0.74649 0.0
C776 C 0.46182 0.19034 0.7406 0.0
H777 H 0.35618 0.14471 0.83626 0.0
H778 H 0.38572 0.16053 0.81386 0.0
C779 C 0.47592 0.2 0.72513 0.0
C780 C 0.44827 0.15759 0.76168 0.0
H781 H 0.39352 0.1471 0.76795 0.0
C782 C 0.45573 0.14861 0.78188 0.0
C783 C 0.42561 0.15669 0.75642 0.0
C784 C 0.41672 0.1648 0.7344 0.0
C785 C 0.441 0.13933 0.79725 0.0
C786 C 0.41832 0.13895 0.79217 0.0
C787 C 0.41092 0.14765 0.77187 0.0
C788 C 0.40183 0.12947 0.80754 0.0
C789 C 0.44966 0.13045 0.81901 0.0
C790 C 0.40122 0.10677 0.81151 0.0
C791 C 0.38429 0.09764 0.82422 0.0
C792 C 0.36765 0.11107 0.83317 0.0
C793 C 0.36872 0.13389 0.82967 0.0
C794 C 0.38558 0.14298 0.81686 0.0
H795 H 0.46683 0.13574 0.82224 0.0
H796 H 0.43915 0.1359 0.83308 0.0
H797 H 0.4493 0.11223 0.81854 0.0
H798 H 0.41344 0.09604 0.80419 0.0
H799 H 0.38395 0.07999 0.82656 0.0
H800 H 0.16675 0.51914 0.74425 0.0
H801 H 0.14628 0.49715 0.77136 0.0
H802 H 0.1717 0.43781 0.74187 0.0
H803 H 0.19171 0.4594 0.71453 0.0
H804 H 0.11422 0.46249 0.76211 0.0
H805 H 0.18663 0.43238 0.80944 0.0
H806 H 0.18769 0.45621 0.79153 0.0
H807 H 0.1886 0.42908 0.77976 0.0
C808 C 0.16791 0.50142 0.7434 0.0
C809 C 0.18113 0.49113 0.72722 0.0
C810 C 0.15627 0.4889 0.759 0.0
C811 C 0.1578 0.46589 0.75883 0.0
C812 C 0.17069 0.45557 0.74259 0.0
H813 H 0.10624 0.35262 0.82523 0.0
H814 H 0.12631 0.37973 0.80322 0.0
C815 C 0.1822 0.46801 0.72697 0.0
C816 C 0.14557 0.45243 0.7752 0.0
H817 H 0.15268 0.41422 0.81622 0.0
C818 C 0.12255 0.45212 0.77416 0.0
C819 C 0.15655 0.43892 0.79082 0.0
C820 C 0.18123 0.43923 0.79317 0.0
C821 C 0.11022 0.43792 0.78771 0.0
C822 C 0.12125 0.42403 0.80303 0.0
C823 C 0.14426 0.42482 0.80445 0.0
C824 C 0.10932 0.40785 0.81701 0.0
C825 C 0.0856 0.43723 0.78481 0.0
C826 C 0.09338 0.41467 0.83241 0.0
C827 C 0.08178 0.39919 0.84497 0.0
C828 C 0.08607 0.37659 0.84252 0.0
C829 C 0.10248 0.36988 0.82752 0.0
C830 C 0.11399 0.38536 0.81492 0.0
H831 H 0.08033 0.44485 0.76885 0.0
H832 H 0.07948 0.42005 0.7853 0.0
H833 H 0.07773 0.44645 0.7986 0.0
H834 H 0.08987 0.43197 0.83468 0.0
H835 H 0.06936 0.40493 0.85648 0.0
H836 H 0.34963 0.91282 0.20629 0.0
H837 H 0.37547 0.89235 0.22968 0.0
H838 H 0.4293 0.92956 0.20233 0.0
H839 H 0.40358 0.95043 0.17926 0.0
H840 H 0.41082 0.86634 0.21919 0.0
H841 H 0.43808 0.93843 0.26867 0.0
H842 H 0.41442 0.93934 0.25056 0.0
H843 H 0.44163 0.94162 0.23918 0.0
C844 C 0.36697 0.91663 0.2052 0.0
C845 C 0.37451 0.93341 0.19104 0.0
C846 C 0.38172 0.90491 0.21859 0.0
C847 C 0.40427 0.90973 0.2181 0.0
C848 C 0.41192 0.92594 0.20342 0.0
H849 H 0.51568 0.85396 0.29094 0.0
H850 H 0.49262 0.87416 0.26451 0.0
C851 C 0.39719 0.93776 0.19013 0.0
C852 C 0.41972 0.89777 0.23296 0.0
H853 H 0.457 0.90495 0.27498 0.0
C854 C 0.42089 0.87478 0.2314 0.0
C855 C 0.43288 0.90882 0.24889 0.0
C856 C 0.4316 0.93339 0.25213 0.0
C857 C 0.43492 0.86256 0.24527 0.0
C858 C 0.44796 0.8736 0.26124 0.0
C859 C 0.44703 0.89658 0.26263 0.0
C860 C 0.46197 0.86147 0.27728 0.0
C861 C 0.43583 0.83792 0.24266 0.0
C862 C 0.45233 0.84799 0.29345 0.0
C863 C 0.46539 0.83662 0.30873 0.0
C864 C 0.48846 0.83844 0.30818 0.0
C865 C 0.49803 0.85223 0.29205 0.0
C866 C 0.48489 0.86372 0.27682 0.0
H867 H 0.42889 0.83251 0.22643 0.0
H868 H 0.453 0.83187 0.24401 0.0
H869 H 0.42611 0.83015 0.25614 0.0
H870 H 0.43462 0.84641 0.29436 0.0
H871 H 0.45732 0.82661 0.32113 0.0
H872 H 0.85605 0.50468 0.7376 0.0
H873 H 0.87503 0.5296 0.76307 0.0
H874 H 0.84128 0.58475 0.73364 0.0
H875 H 0.82241 0.56003 0.70793 0.0
H876 H 0.90262 0.5651 0.75216 0.0
H877 H 0.83016 0.5929 0.80065 0.0
H878 H 0.82959 0.56883 0.78306 0.0
H879 H 0.82732 0.59577 0.77101 0.0
C880 C 0.85271 0.5221 0.73642 0.0
C881 C 0.83761 0.53029 0.72068 0.0
C882 C 0.8635 0.53631 0.7511 0.0
C883 C 0.85931 0.55898 0.75048 0.0
C884 C 0.84437 0.56725 0.73475 0.0
H885 H 0.91128 0.6736 0.81776 0.0
H886 H 0.89054 0.6475 0.79496 0.0
C887 C 0.83359 0.55307 0.72004 0.0
C888 C 0.87116 0.57404 0.76574 0.0
H889 H 0.86361 0.61204 0.80691 0.0
C890 C 0.89413 0.57526 0.76424 0.0
C891 C 0.86 0.58732 0.78142 0.0
C892 C 0.83543 0.58607 0.78434 0.0
C893 C 0.90623 0.58976 0.77767 0.0
C894 C 0.89508 0.60309 0.79334 0.0
C895 C 0.87211 0.6018 0.7949 0.0
C896 C 0.90697 0.6187 0.808 0.0
C897 C 0.93079 0.59113 0.77454 0.0
C898 C 0.92271 0.61112 0.82328 0.0
C899 C 0.93463 0.62598 0.83631 0.0
C900 C 0.93092 0.64872 0.83441 0.0
C901 C 0.9146 0.65621 0.8196 0.0
C902 C 0.90272 0.64132 0.80656 0.0
H903 H 0.93599 0.58412 0.75829 0.0
H904 H 0.93653 0.60842 0.77552 0.0
H905 H 0.93906 0.58166 0.78794 0.0
H906 H 0.92591 0.59369 0.82501 0.0
H907 H 0.94696 0.61963 0.84764 0.0
H908 H 0.61917 0.06584 0.18088 0.0
H909 H 0.59224 0.08761 0.20164 0.0
H910 H 0.64393 0.13037 0.22472 0.0
H911 H 0.67083 0.10904 0.20377 0.0
H912 H 0.59104 0.09402 0.24674 0.0
H913 H 0.59826 0.17428 0.20391 0.0
H914 H 0.60917 0.14919 0.19229 0.0
H915 H 0.62423 0.16387 0.21337 0.0
C916 C 0.62477 0.08007 0.19012 0.0
C917 C 0.64717 0.08571 0.1906 0.0
C918 C 0.60936 0.09246 0.20201 0.0
C919 C 0.61601 0.1108 0.21449 0.0
C920 C 0.63831 0.11661 0.21479 0.0
H921 H 0.56005 0.19715 0.31306 0.0
H922 H 0.58339 0.1768 0.2872 0.0
C923 C 0.65371 0.10428 0.20289 0.0
C924 C 0.59994 0.12305 0.22836 0.0
H925 H 0.58001 0.17446 0.23918 0.0
C926 C 0.58842 0.11156 0.24492 0.0
C927 C 0.59657 0.14595 0.22599 0.0
C928 C 0.60755 0.15902 0.20778 0.0
C929 C 0.57418 0.12246 0.25963 0.0
C930 C 0.5712 0.14541 0.25755 0.0
C931 C 0.58243 0.15686 0.24079 0.0
C932 C 0.55681 0.15791 0.27293 0.0
C933 C 0.56296 0.10946 0.27774 0.0
C934 C 0.53408 0.15422 0.27327 0.0
C935 C 0.52063 0.16594 0.28793 0.0
C936 C 0.52964 0.18165 0.30255 0.0
C937 C 0.55245 0.18541 0.30195 0.0
C938 C 0.56587 0.17371 0.28723 0.0
H939 H 0.57047 0.09296 0.27998 0.0
H940 H 0.56367 0.11839 0.29385 0.0
H941 H 0.54541 0.10718 0.27328 0.0
H942 H 0.52672 0.14236 0.26207 0.0
H943 H 0.50314 0.16286 0.28756 0.0
H944 H 0.69107 0.06157 0.81967 0.0
H945 H 0.67132 0.08375 0.79241 0.0
H946 H 0.645 0.02505 0.76244 0.0
H947 H 0.6651 1.00254 0.78944 0.0
H948 H 0.67498 0.08098 0.74419 0.0
H949 H 0.59036 0.06476 0.77511 0.0
H950 H 0.61447 0.05989 0.79199 0.0
H951 H 0.60748 0.04118 0.77 0.0
C952 C 0.68128 0.05324 0.80723 0.0
C953 C 0.67981 0.03015 0.80682 0.0
C954 C 0.66988 0.06602 0.7917 0.0
C955 C 0.65658 0.05606 0.77553 0.0
C956 C 0.65494 0.03307 0.77501 0.0
H957 H 0.57143 0.11734 0.67557 0.0
H958 H 0.59164 0.09062 0.69821 0.0
C959 C 0.66643 0.02022 0.79052 0.0
C960 C 0.64481 0.06989 0.75904 0.0
H961 H 0.59373 0.08745 0.74352 0.0
C962 C 0.65721 0.08236 0.74396 0.0
C963 C 0.62164 0.0715 0.75871 0.0
C964 C 0.60761 0.05877 0.77487 0.0
C965 C 0.64706 0.09653 0.72861 0.0
C966 C 0.6239 0.0987 0.72872 0.0
C967 C 0.61148 0.08582 0.74348 0.0
C968 C 0.6123 0.11481 0.71428 0.0
C969 C 0.66126 0.10888 0.71228 0.0
C970 C 0.6171 0.13732 0.71586 0.0
C971 C 0.60568 0.15261 0.70288 0.0
C972 C 0.58901 0.14575 0.68819 0.0
C973 C 0.58421 0.12319 0.68664 0.0
C974 C 0.59572 0.10789 0.6996 0.0
H975 H 0.67724 0.10045 0.70962 0.0
H976 H 0.6529 0.11076 0.69594 0.0
H977 H 0.66477 0.1255 0.719 0.0
H978 H 0.62944 0.14313 0.72747 0.0
H979 H 0.60969 0.16986 0.70465 0.0
H980 H 0.17296 0.41189 0.32143 0.0
H981 H 0.14635 0.39129 0.29917 0.0
H982 H 0.09368 0.43018 0.32657 0.0
H983 H 0.12019 0.45114 0.34863 0.0
H984 H 0.11025 0.3663 0.31172 0.0
H985 H 0.08453 0.43725 0.2596 0.0
H986 H 0.10863 0.43797 0.27714 0.0
H987 H 0.08179 0.44161 0.28905 0.0
C988 C 0.15571 0.41604 0.32279 0.0
C989 C 0.14873 0.43329 0.33671 0.0
C990 C 0.14052 0.40424 0.31005 0.0
C991 C 0.11808 0.40947 0.3109 0.0
C992 C 0.11097 0.4262 0.32527 0.0
H993 H 1.00392 0.35679 0.24126 0.0
H994 H 0.02854 0.37684 0.26621 0.0
C995 C 0.12615 0.43807 0.33799 0.0
C996 C 0.10219 0.3974 0.29667 0.0
H997 H 0.06483 0.40408 0.25465 0.0
C998 C 0.10034 0.37455 0.29922 0.0
C999 C 0.08927 0.40821 0.28037 0.0
C1000 C 0.09123 0.43258 0.27617 0.0
C1001 C 0.08578 0.36223 0.28604 0.0
C1002 C 0.07297 0.37301 0.26967 0.0
C1003 C 0.07465 0.39588 0.26725 0.0
C1004 C 0.05807 0.36079 0.25455 0.0
C1005 C 0.08401 0.3378 0.28992 0.0
C1006 C 0.06656 0.34538 0.23947 0.0
C1007 C 0.05256 0.334 0.22505 0.0
C1008 C 0.02975 0.33785 0.22534 0.0
C1009 C 0.02136 0.35352 0.24036 0.0
C1010 C 0.0354 0.36493 0.25475 0.0
H1011 H 0.09057 0.33301 0.30651 0.0
H1012 H 0.06668 0.33226 0.28866 0.0
H1013 H 0.09367 0.32901 0.27704 0.0
H1014 H 0.08407 0.3423 0.2387 0.0
H1015 H 0.05971 0.32242 0.21347 0.0
H1016 H 0.31206 0.97071 0.80462 0.0
H1017 H 0.33166 0.94597 0.7796 0.0
H1018 H 0.38613 0.99112 0.7774 0.0
H1019 H 0.3672 0.01546 0.80323 0.0
H1020 H 0.34696 0.95174 0.73729 0.0
H1021 H 0.41634 0.93444 0.79471 0.0
H1022 H 0.39157 0.94807 0.80372 0.0
H1023 H 0.41255 0.96317 0.78923 0.0
C1024 C 0.32831 0.97532 0.7991 0.0
C1025 C 0.33806 0.99508 0.80628 0.0
C1026 C 0.33943 0.9612 0.78461 0.0
C1027 C 0.36053 0.96648 0.77696 0.0
C1028 C 0.37006 0.98645 0.7835 0.0
H1029 H 0.45424 0.90268 0.68952 0.0
H1030 H 0.43295 0.92901 0.71144 0.0
C1031 C 0.35904 1.00053 0.7981 0.0
C1032 C 0.37254 0.9511 0.76213 0.0
H1033 H 0.41993 0.92133 0.75764 0.0
C1034 C 0.36287 0.94502 0.74177 0.0
C1035 C 0.39327 0.94227 0.76804 0.0
C1036 C 0.40397 0.94713 0.79021 0.0
C1037 C 0.37356 0.93064 0.72702 0.0
C1038 C 0.39436 0.92205 0.73287 0.0
C1039 C 0.40403 0.9281 0.75318 0.0
C1040 C 0.40634 0.90651 0.7183 0.0
C1041 C 0.36274 0.92498 0.70515 0.0
C1042 C 0.39837 0.88515 0.71488 0.0
C1043 C 0.41054 0.87 0.70245 0.0
C1044 C 0.43091 0.87597 0.69321 0.0
C1045 C 0.4386 0.89754 0.69632 0.0
C1046 C 0.42649 0.91262 0.70887 0.0
H1047 H 0.34895 0.93629 0.70117 0.0
H1048 H 0.37487 0.92554 0.69136 0.0
H1049 H 0.35614 0.90801 0.70604 0.0
H1050 H 0.38298 0.88004 0.72229 0.0
H1051 H 0.40417 0.85351 0.70041 0.0
H1052 H 0.88744 0.57429 0.33495 0.0
H1053 H 0.91859 0.5889 0.31395 0.0
H1054 H 0.89373 0.65469 0.32301 0.0
H1055 H 0.86294 0.64032 0.34447 0.0
H1056 H 0.91664 0.61057 0.27533 0.0
H1057 H 0.95751 0.66379 0.33743 0.0
H1058 H 0.93706 0.64372 0.34511 0.0
H1059 H 0.92889 0.67027 0.3347 0.0
C1060 C 0.88881 0.5919 0.33281 0.0
C1061 C 0.8727 0.60614 0.34143 0.0
C1062 C 0.90662 0.60022 0.32078 0.0
C1063 C 0.90872 0.62292 0.31716 0.0
C1064 C 0.89284 0.63718 0.32607 0.0
H1065 H 0.97413 0.70951 0.22767 0.0
H1066 H 0.95193 0.69121 0.25605 0.0
C1067 C 0.87512 0.6289 0.33822 0.0
C1068 C 0.92634 0.63158 0.3025 0.0
H1069 H 0.96626 0.67087 0.29895 0.0
C1070 C 0.92774 0.62349 0.28063 0.0
C1071 C 0.94086 0.64843 0.3094 0.0
C1072 C 0.94118 0.65689 0.33302 0.0
C1073 C 0.94256 0.63245 0.26522 0.0
C1074 C 0.95643 0.64985 0.27189 0.0
C1075 C 0.95552 0.65755 0.2939 0.0
C1076 C 0.97094 0.66117 0.2558 0.0
C1077 C 0.94268 0.62387 0.24163 0.0
C1078 C 0.98921 0.65046 0.24658 0.0
C1079 C 1.00194 0.66089 0.23032 0.0
C1080 C 0.9965 0.68216 0.22295 0.0
C1081 C 0.97852 0.69301 0.23272 0.0
C1082 C 0.96593 0.68265 0.24905 0.0
H1083 H 0.92875 0.61255 0.23831 0.0
H1084 H 0.94188 0.63771 0.22959 0.0
H1085 H 0.95822 0.61483 0.23859 0.0
H1086 H 0.99341 0.63392 0.25173 0.0
H1087 H 0.0156 0.65206 0.22304 0.0
H1088 H 0.66754 0.01781 0.24125 0.0
H1089 H 0.6467 0.99546 0.26775 0.0
H1090 H 0.67406 0.93659 0.23908 0.0
H1091 H 0.69454 0.95858 0.21237 0.0
H1092 H 0.61552 0.96104 0.25829 0.0
H1093 H 0.68715 0.93057 0.3065 0.0
H1094 H 0.68863 0.95426 0.28844 0.0
H1095 H 0.68963 0.92702 0.2769 0.0
C1096 C 0.66905 1.00012 0.24046 0.0
C1097 C 0.68295 0.99008 0.22471 0.0
C1098 C 0.65721 0.98738 0.25571 0.0
C1099 C 0.65917 0.96441 0.25562 0.0
C1100 C 0.67272 0.95433 0.23977 0.0
H1101 H 0.6061 0.85045 0.31939 0.0
H1102 H 0.62648 0.87782 0.29804 0.0
C1103 C 0.68448 0.96699 0.22451 0.0
C1104 C 0.64669 0.95075 0.27165 0.0
H1105 H 0.65315 0.91207 0.31235 0.0
C1106 C 0.62368 0.95052 0.27033 0.0
C1107 C 0.65743 0.93706 0.2873 0.0
C1108 C 0.68206 0.93732 0.29008 0.0
C1109 C 0.61113 0.93624 0.28359 0.0
C1110 C 0.62192 0.92214 0.29887 0.0
C1111 C 0.64491 0.92283 0.30059 0.0
C1112 C 0.60978 0.9058 0.31245 0.0
C1113 C 0.58654 0.93569 0.28045 0.0
C1114 C 0.59388 0.91245 0.32798 0.0
C1115 C 0.58213 0.89681 0.3402 0.0
C1116 C 0.58618 0.87422 0.33724 0.0
C1117 C 0.60251 0.86768 0.32207 0.0
C1118 C 0.6142 0.88331 0.30984 0.0
H1119 H 0.58141 0.94373 0.26466 0.0
H1120 H 0.58038 0.91853 0.28045 0.0
H1121 H 0.57858 0.94457 0.29442 0.0
H1122 H 0.59053 0.92973 0.33061 0.0
H1123 H 0.56976 0.90242 0.35184 0.0
H1124 H 0.87867 0.44385 0.71012 0.0
H1125 H 0.90753 0.42608 0.73178 0.0
H1126 H 0.9021 0.36812 0.6908 0.0
H1127 H 0.87266 0.38563 0.66931 0.0
H1128 H 0.9012 0.35773 0.73369 0.0
H1129 H 0.97119 0.41373 0.71993 0.0
H1130 H 0.94756 0.42846 0.72965 0.0
H1131 H 0.94662 0.41473 0.70307 0.0
C1132 C 0.8838 0.42743 0.70545 0.0
C1133 C 0.87331 0.41615 0.68797 0.0
C1134 C 0.90048 0.41735 0.71778 0.0
C1135 C 0.9073 0.39589 0.7127 0.0
C1136 C 0.89721 0.38475 0.69493 0.0
H1137 H 0.01575 0.33593 0.78894 0.0
H1138 H 0.99371 0.35075 0.75813 0.0
C1139 C 0.88039 0.39478 0.68265 0.0
C1140 C 0.92347 0.38449 0.72727 0.0
H1141 H 0.97338 0.39064 0.75263 0.0
C1142 C 0.91712 0.36477 0.73755 0.0
C1143 C 0.94442 0.39342 0.73208 0.0
C1144 C 0.95294 0.41362 0.7204 0.0
C1145 C 0.93064 0.35437 0.7533 0.0
C1146 C 0.95083 0.36422 0.75938 0.0
C1147 C 0.95773 0.38329 0.74826 0.0
C1148 C 0.96444 0.35553 0.77795 0.0
C1149 C 0.92305 0.33297 0.76338 0.0
C1150 C 0.95548 0.35379 0.79939 0.0
C1151 C 0.96797 0.34534 0.81693 0.0
C1152 C 0.98982 0.33865 0.8135 0.0
C1153 C 0.999 0.34099 0.79214 0.0
C1154 C 0.98641 0.34937 0.77451 0.0
H1155 H 0.91145 0.32424 0.75215 0.0
H1156 H 0.93714 0.32193 0.76703 0.0
H1157 H 0.91431 0.3364 0.77921 0.0
H1158 H 0.93878 0.35907 0.80261 0.0
H1159 H 0.96055 0.34427 0.83325 0.0
H1160 H 0.44173 0.14731 0.31225 0.0
H1161 H 0.42322 0.11861 0.29111 0.0
H1162 H 0.37013 0.11853 0.3386 0.0
H1163 H 0.38833 0.14787 0.35965 0.0
H1164 H 0.41016 0.07724 0.30084 0.0
H1165 H 0.33785 0.12948 0.28071 0.0
H1166 H 0.36242 0.14045 0.29327 0.0
H1167 H 0.34285 0.1257 0.30994 0.0
C1168 C 0.42615 0.14118 0.31832 0.0
C1169 C 0.41638 0.1501 0.33753 0.0
C1170 C 0.41561 0.12469 0.30621 0.0
C1171 C 0.3951 0.11668 0.31303 0.0
C1172 C 0.38571 0.12484 0.33273 0.0
H1173 H 0.33673 1.00406 0.24148 0.0
H1174 H 0.35294 0.02676 0.27099 0.0
C1175 C 0.39619 0.14151 0.34481 0.0
C1176 C 0.38345 0.10038 0.2989 0.0
H1177 H 0.33766 0.09338 0.26676 0.0
C1178 C 0.39423 0.08066 0.2935 0.0
C1179 C 0.36277 0.10501 0.28915 0.0
C1180 C 0.35083 0.12637 0.29335 0.0
C1181 C 0.38516 0.06571 0.27821 0.0
C1182 C 0.36449 0.07036 0.26847 0.0
C1183 C 0.35346 0.0898 0.27433 0.0
C1184 C 0.3547 0.05625 0.25089 0.0
C1185 C 0.39828 0.0456 0.2719 0.0
C1186 C 0.34985 0.06534 0.22996 0.0
C1187 C 0.34038 0.05251 0.21326 0.0
C1188 C 0.33559 0.03025 0.21706 0.0
C1189 C 0.34051 0.02108 0.23799 0.0
C1190 C 0.34981 0.03403 0.25483 0.0
H1191 H 0.41584 0.04719 0.27669 0.0
H1192 H 0.39147 0.03107 0.28065 0.0
H1193 H 0.39733 0.0425 0.2537 0.0
H1194 H 0.35353 0.08242 0.22649 0.0
H1195 H 0.33706 0.05998 0.19724 0.0
H1196 H 0.11669 0.56757 0.67923 0.0
H1197 H 0.08924 0.58923 0.69943 0.0
H1198 H 0.14072 0.62953 0.72709 0.0
H1199 H 0.16814 0.60836 0.7067 0.0
H1200 H 0.08515 0.59415 0.74429 0.0
H1201 H 0.09793 0.67563 0.70558 0.0
H1202 H 0.10881 0.65067 0.69366 0.0
H1203 H 0.12301 0.66415 0.71615 0.0
C1204 C 0.12214 0.58124 0.68938 0.0
C1205 C 0.14463 0.58627 0.69126 0.0
C1206 C 0.10643 0.59357 0.70094 0.0
C1207 C 0.11287 0.61123 0.71451 0.0
C1208 C 0.13528 0.61636 0.71629 0.0
H1209 H 0.06004 0.69448 0.81563 0.0
H1210 H 0.08181 0.67371 0.78891 0.0
C1211 C 0.15097 0.60411 0.7047 0.0
C1212 C 0.0964 0.62352 0.72787 0.0
H1213 H 0.07858 0.67532 0.74039 0.0
C1214 C 0.08347 0.61186 0.74321 0.0
C1215 C 0.09417 0.64663 0.72642 0.0
C1216 C 0.10656 0.65997 0.7094 0.0
C1217 C 0.06909 0.6228 0.75779 0.0
C1218 C 0.0675 0.64595 0.75686 0.0
C1219 C 0.07995 0.65756 0.74113 0.0
C1220 C 0.05387 0.65856 0.77284 0.0
C1221 C 0.05635 0.60962 0.77467 0.0
C1222 C 0.03087 0.65706 0.77255 0.0
C1223 C 0.01826 0.66913 0.78774 0.0
C1224 C 0.02842 0.68296 0.8035 0.0
C1225 C 0.05152 0.68435 0.80361 0.0
C1226 C 0.06406 0.67237 0.78839 0.0
H1227 H 0.06216 0.59234 0.7757 0.0
H1228 H 0.05769 0.61723 0.79144 0.0
H1229 H 0.03873 0.60948 0.76993 0.0
H1230 H 0.02268 0.6467 0.76045 0.0
H1231 H 1.00056 0.66784 0.78689 0.0
H1232 H 0.20774 0.52041 0.61211 0.0
H1233 H 0.20873 0.50586 0.57428 0.0
H1234 H 0.18793 0.56872 0.54861 0.0
H1235 H 0.18729 0.58364 0.58654 0.0
H1236 H 0.1766 0.50173 0.5426 0.0
H1237 H 0.24326 0.55649 0.5127 0.0
H1238 H 0.23636 0.5539 0.5418 0.0
H1239 H 0.21975 0.57063 0.52371 0.0
C1240 C 0.20338 0.53122 0.59846 0.0
C1241 C 0.1976 0.55328 0.60239 0.0
C1242 C 0.2039 0.52282 0.57682 0.0
C1243 C 0.1987 0.53625 0.55857 0.0
C1244 C 0.19243 0.55816 0.5624 0.0
H1245 H 0.17871 0.48411 0.42347 0.0
H1246 H 0.17273 0.49942 0.46071 0.0
C1247 C 0.19197 0.56663 0.58411 0.0
C1248 C 0.20013 0.52719 0.53561 0.0
H1249 H 0.22712 0.53288 0.48614 0.0
C1250 C 0.1876 0.50856 0.5302 0.0
C1251 C 0.2147 0.53595 0.51957 0.0
C1252 C 0.22945 0.55522 0.52472 0.0
C1253 C 0.18933 0.49837 0.50926 0.0
C1254 C 0.20366 0.50733 0.4931 0.0
C1255 C 0.21605 0.52607 0.49847 0.0
C1256 C 0.20683 0.49712 0.47081 0.0
C1257 C 0.17633 0.47769 0.50495 0.0
C1258 C 0.22799 0.49099 0.46392 0.0
C1259 C 0.23149 0.48254 0.44257 0.0
C1260 C 0.21388 0.47995 0.42763 0.0
C1261 C 0.19259 0.48568 0.43467 0.0
C1262 C 0.18914 0.49436 0.456 0.0
H1263 H 0.17096 0.46979 0.52071 0.0
H1264 H 0.1614 0.48188 0.4952 0.0
H1265 H 0.18609 0.46563 0.49524 0.0
H1266 H 0.2419 0.49294 0.47502 0.0
H1267 H 0.24808 0.47827 0.43771 0.0
H1268 H 0.52434 0.77478 0.42962 0.0
H1269 H 0.51228 0.78104 0.46781 0.0
H1270 H 0.54199 0.84534 0.46691 0.0
H1271 H 0.55365 0.83944 0.42832 0.0
H1272 H 0.53524 0.78857 0.50521 0.0
H1273 H 0.48079 0.85983 0.48816 0.0
H1274 H 0.492 0.84296 0.46623 0.0
H1275 H 0.5086 0.86381 0.47918 0.0
C1276 C 0.52834 0.79029 0.43749 0.0
C1277 C 0.53987 0.80667 0.42584 0.0
C1278 C 0.5214 0.79384 0.45936 0.0
C1279 C 0.52584 0.81381 0.47012 0.0
C1280 C 0.53785 0.83002 0.45876 0.0
H1281 H 0.50544 0.85658 0.60646 0.0
H1282 H 0.51634 0.85304 0.56741 0.0
C1283 C 0.54467 0.82655 0.43676 0.0
C1284 C 0.51818 0.81733 0.49336 0.0
H1285 H 0.48672 0.85075 0.5262 0.0
C1286 C 0.52456 0.80212 0.50975 0.0
C1287 C 0.50418 0.83499 0.49929 0.0
C1288 C 0.4958 0.85122 0.48227 0.0
C1289 C 0.51751 0.80421 0.5319 0.0
C1290 C 0.50365 0.82189 0.53781 0.0
C1291 C 0.49735 0.8372 0.52154 0.0
C1292 C 0.49579 0.82481 0.56094 0.0
C1293 C 0.52512 0.78766 0.54897 0.0
C1294 C 0.48025 0.81037 0.57004 0.0
C1295 C 0.47385 0.81241 0.59233 0.0
C1296 C 0.48301 0.82887 0.60591 0.0
C1297 C 0.49814 0.84366 0.59651 0.0
C1298 C 0.50438 0.84171 0.57419 0.0
H1299 H 0.5385 0.77699 0.54251 0.0
H1300 H 0.53102 0.79613 0.56423 0.0
H1301 H 0.5111 0.77703 0.55377 0.0
H1302 H 0.47334 0.79731 0.55997 0.0
H1303 H 0.46217 0.80076 0.59905 0.0
H1304 H 0.86474 0.52337 0.42514 0.0
H1305 H 0.86272 0.51094 0.46371 0.0
H1306 H 0.80154 0.54571 0.47207 0.0
H1307 H 0.80356 0.55855 0.43339 0.0
H1308 H 0.83028 0.55151 0.50755 0.0
H1309 H 0.82195 0.4631 0.48722 0.0
H1310 H 0.84549 0.47562 0.47452 0.0
H1311 H 0.81835 0.48448 0.46667 0.0
C1312 C 0.85084 0.52844 0.43514 0.0
C1313 C 0.83423 0.54186 0.4261 0.0
C1314 C 0.84964 0.52117 0.45717 0.0
C1315 C 0.83174 0.52698 0.47063 0.0
C1316 C 0.8154 0.54086 0.4619 0.0
H1317 H 0.8043 0.46486 0.59933 0.0
H1318 H 0.80201 0.47773 0.56069 0.0
C1319 C 0.8166 0.5482 0.4398 0.0
C1320 C 0.83036 0.5188 0.4939 0.0
H1321 H 0.83029 0.47183 0.52509 0.0
C1322 C 0.83011 0.53409 0.51139 0.0
C1323 C 0.82977 0.49607 0.4989 0.0
C1324 C 0.82868 0.47886 0.48084 0.0
C1325 C 0.83007 0.52727 0.53375 0.0
C1326 C 0.83066 0.50453 0.53874 0.0
C1327 C 0.83012 0.48924 0.52126 0.0
C1328 C 0.83226 0.49632 0.562 0.0
C1329 C 0.82928 0.54448 0.55182 0.0
C1330 C 0.85029 0.50204 0.57537 0.0
C1331 C 0.85165 0.49474 0.5974 0.0
C1332 C 0.83508 0.4814 0.6065 0.0
C1333 C 0.81733 0.47515 0.59287 0.0
C1334 C 0.81597 0.48251 0.5708 0.0
H1335 H 0.82254 0.56028 0.54551 0.0
H1336 H 0.81911 0.53892 0.56608 0.0
H1337 H 0.84618 0.54761 0.55798 0.0
H1338 H 0.86334 0.51222 0.56878 0.0
H1339 H 0.86563 0.49975 0.60735 0.0
H1340 H 0.49234 0.15445 0.41968 0.0
H1341 H 0.50476 0.15715 0.45835 0.0
H1342 H 0.48215 0.22428 0.46102 0.0
H1343 H 0.46924 0.22157 0.42255 0.0
H1344 H 0.53568 0.18427 0.4756 0.0
H1345 H 0.45618 0.1996 0.51754 0.0
H1346 H 0.4579 0.19009 0.48912 0.0
H1347 H 0.46147 0.21877 0.4955 0.0
C1348 C 0.48975 0.16972 0.42857 0.0
C1349 C 0.47971 0.18778 0.41802 0.0
C1350 C 0.49691 0.17123 0.45068 0.0
C1351 C 0.49414 0.19081 0.46272 0.0
C1352 C 0.484 0.20883 0.45228 0.0
H1353 H 0.53624 0.2444 0.58814 0.0
H1354 H 0.52294 0.23717 0.55048 0.0
C1355 C 0.47673 0.20729 0.43021 0.0
C1356 C 0.50284 0.19274 0.4858 0.0
H1357 H 0.48853 0.20664 0.53898 0.0
C1358 C 0.52533 0.18893 0.4895 0.0
C1359 C 0.48931 0.19876 0.50397 0.0
C1360 C 0.46484 0.20183 0.50142 0.0
C1361 C 0.53478 0.19171 0.5107 0.0
C1362 C 0.52135 0.19827 0.52869 0.0
C1363 C 0.49881 0.20171 0.5251 0.0
C1364 C 0.53043 0.20245 0.55125 0.0
C1365 C 0.55916 0.18826 0.51358 0.0
C1366 C 0.53916 0.18529 0.56417 0.0
C1367 C 0.5468 0.18935 0.58582 0.0
C1368 C 0.5458 0.21065 0.5949 0.0
C1369 C 0.53732 0.2278 0.58172 0.0
C1370 C 0.52964 0.22371 0.56017 0.0
H1371 H 0.56783 0.18728 0.49733 0.0
H1372 H 0.56646 0.2018 0.52354 0.0
H1373 H 0.56205 0.17266 0.52269 0.0
H1374 H 0.53967 0.16869 0.55768 0.0
H1375 H 0.55313 0.17576 0.59555 0.0
H1376 H 0.67395 0.07642 0.08817 0.0
H1377 H 0.67368 0.06149 0.05024 0.0
H1378 H 0.71756 1.00964 0.07085 0.0
H1379 H 0.71769 0.02417 0.10871 0.0
H1380 H 0.70797 0.05562 0.02119 0.0
H1381 H 0.66908 0.97549 0.03966 0.0
H1382 H 0.66893 0.99806 0.05919 0.0
H1383 H 0.69275 0.98069 0.05671 0.0
C1384 C 0.68347 0.06179 0.08465 0.0
C1385 C 0.69575 0.05145 0.10154 0.0
C1386 C 0.68328 0.05327 0.06296 0.0
C1387 C 0.69525 0.03419 0.05779 0.0
C1388 C 0.70774 0.02404 0.07455 0.0
H1389 H 0.74525 0.98961 0.93195 0.0
H1390 H 0.73888 1.00424 0.96922 0.0
C1391 C 0.70792 0.0325 0.09619 0.0
C1392 C 0.6955 0.02534 0.03471 0.0
H1393 H 0.68703 0.97861 1.0043 0.0
C1394 C 0.70318 0.03885 0.01747 0.0
C1395 C 0.68893 1.00356 0.02976 0.0
C1396 C 0.67924 0.98867 0.04726 0.0
C1397 C 0.70531 0.03092 0.9956 0.0
C1398 C 0.69996 1.00875 0.99093 0.0
C1399 C 0.69142 0.9955 1.00796 0.0
C1400 C 0.70375 0.99892 0.96861 0.0
C1401 C 0.71325 0.04637 0.97769 0.0
C1402 C 0.68623 0.99022 0.95618 0.0
C1403 C 0.68984 0.98164 0.93482 0.0
C1404 C 0.71108 0.98151 0.92559 0.0
C1405 C 0.72865 0.9896 0.93843 0.0
C1406 C 0.72503 0.99812 0.95972 0.0
H1407 H 0.71049 0.06382 0.98236 0.0
H1408 H 0.73117 0.04398 0.97527 0.0
H1409 H 0.70486 0.04311 0.96159 0.0
H1410 H 0.66969 0.99049 0.96282 0.0
H1411 H 0.67594 0.97551 0.92541 0.0
H1412 H 0.03124 0.27673 0.93958 0.0
H1413 H 0.01909 0.28339 0.97767 0.0
H1414 H 0.04152 0.35044 0.97327 0.0
H1415 H 0.05335 0.34404 0.9348 0.0
H1416 H 0.04176 0.2961 0.01479 0.0
H1417 H 0.97825 0.35829 0.99341 0.0
H1418 H 0.99137 0.34138 0.97262 0.0
H1419 H 1.00542 0.36484 0.98392 0.0
C1420 C 0.03366 0.29291 0.94667 0.0
C1421 C 0.04314 0.3099 0.93405 0.0
C1422 C 0.02669 0.29668 0.96849 0.0
C1423 C 0.02901 0.31752 0.9782 0.0
C1424 C 0.03908 0.33437 0.96593 0.0
H1425 H 0.9945 0.3646 0.11094 0.0
H1426 H 1.00805 0.36126 0.07271 0.0
C1427 C 0.046 0.33064 0.94401 0.0
C1428 C 0.02087 0.32135 1.0012 0.0
H1429 H 0.98415 0.35132 0.03175 0.0
C1430 C 0.02917 0.30818 0.01848 0.0
C1431 C 1.00441 0.33712 1.00601 0.0
C1432 C 0.99417 0.3511 0.98801 0.0
C1433 C 0.0215 0.31034 0.04042 0.0
C1434 C 1.00491 0.32593 0.04516 0.0
C1435 C 0.99684 0.33936 0.02801 0.0
C1436 C 0.99565 0.32832 0.06786 0.0
C1437 C 0.03134 0.29607 0.05841 0.0
C1438 C 0.9837 0.31111 0.07757 0.0
C1439 C 0.97584 0.31298 0.09937 0.0
C1440 C 0.9798 0.33212 0.11187 0.0
C1441 C 0.99122 0.34959 0.10182 0.0
C1442 C 0.99898 0.34774 0.07998 0.0
H1443 H 0.04716 0.28861 0.05312 0.0
H1444 H 0.03414 0.30569 0.07387 0.0
H1445 H 0.01975 0.28256 0.06238 0.0
H1446 H 0.98066 0.29612 0.06834 0.0
H1447 H 0.96705 0.29924 0.10656 0.0
H1448 H 0.30192 0.05829 0.92644 0.0
H1449 H 0.30061 0.04542 0.96507 0.0
H1450 H 0.36588 0.01862 0.95844 0.0
H1451 H 0.36719 0.03103 0.9198 0.0
H1452 H 0.3373 0.98946 0.97769 0.0
H1453 H 0.33188 0.0708 0.01919 0.0
H1454 H 0.31098 0.06604 0.99861 0.0
H1455 H 0.33927 0.06781 0.99025 0.0
C1456 C 0.31608 0.04985 0.93327 0.0
C1457 C 0.33469 0.04576 0.92003 0.0
C1458 C 0.31532 0.04255 0.95539 0.0
C1459 C 0.33324 0.03125 0.96473 0.0
C1460 C 0.35187 0.02731 0.95159 0.0
H1461 H 0.36127 1.00762 0.10336 0.0
H1462 H 0.36087 0.01862 0.06431 0.0
C1463 C 0.35261 0.0345 0.9295 0.0
C1464 C 0.33251 0.02301 0.98802 0.0
H1465 H 0.3278 0.03947 0.04217 0.0
C1466 C 0.33521 1.00038 0.99181 0.0
C1467 C 0.32999 0.0373 1.00642 0.0
C1468 C 0.32807 0.06186 1.00352 0.0
C1469 C 0.33551 0.99166 1.01348 0.0
C1470 C 0.33263 1.00591 0.03186 0.0
C1471 C 0.32986 0.02853 0.02806 0.0
C1472 C 0.33336 0.99797 0.05526 0.0
C1473 C 0.33955 0.96738 0.01652 0.0
C1474 C 0.31813 0.9825 0.06318 0.0
C1475 C 0.31842 0.97601 0.08558 0.0
C1476 C 0.33379 0.98508 0.10049 0.0
C1477 C 0.34918 1.00032 0.09238 0.0
C1478 C 0.34895 1.00668 0.07004 0.0
H1479 H 0.34686 0.95982 1.0014 0.0
H1480 H 0.35065 0.96428 0.03088 0.0
H1481 H 0.32368 0.95904 0.01985 0.0
H1482 H 0.30569 0.97585 0.05219 0.0
H1483 H 0.30623 0.96437 0.09133 0.0
H1484 H 0.01491 0.66464 0.91408 0.0
H1485 H 0.02723 0.66424 0.95276 0.0
H1486 H 0.9795 0.71411 0.96903 0.0
H1487 H 0.96675 0.71436 0.93028 0.0
H1488 H 0.04524 0.69856 0.97589 0.0
H1489 H 0.9698 0.66924 0.01831 0.0
H1490 H 0.97354 0.66715 0.98856 0.0
H1491 H 0.96571 0.6929 1.00091 0.0
C1492 C 1.00682 0.67537 0.92589 0.0
C1493 C 0.98981 0.68953 0.91905 0.0
C1494 C 0.01393 0.67513 0.94803 0.0
C1495 C 1.00418 0.68898 0.96387 0.0
C1496 C 0.98699 0.70295 0.9572 0.0
H1497 H 0.03278 0.71629 0.10304 0.0
H1498 H 0.01862 0.71633 0.06493 0.0
C1499 C 0.97978 0.70315 0.93502 0.0
C1500 C 0.01288 0.68949 0.98701 0.0
H1501 H 0.9989 0.68153 0.04152 0.0
C1502 C 0.03512 0.69475 0.99024 0.0
C1503 C 0.99966 0.68458 1.00572 0.0
C1504 C 0.9759 0.67795 1.00328 0.0
C1505 C 0.04445 0.69547 1.01164 0.0
C1506 C 0.03126 0.69048 0.03033 0.0
C1507 C 1.00898 0.68534 0.02715 0.0
C1508 C 0.04025 0.69055 0.05335 0.0
C1509 C 0.06824 0.70199 1.01409 0.0
C1510 C 0.05707 0.67595 0.05955 0.0
C1511 C 0.06527 0.6759 0.08136 0.0
C1512 C 0.05671 0.69038 0.09742 0.0
C1513 C 0.03983 0.70496 0.09111 0.0
C1514 C 0.03165 0.70498 0.06933 0.0
H1515 H 0.07442 0.7106 0.99903 0.0
H1516 H 0.07062 0.71285 0.02876 0.0
H1517 H 0.07836 0.68701 0.01657 0.0
H1518 H 0.06368 0.6644 0.04758 0.0
H1519 H 0.07815 0.66436 0.08566 0.0
loop_
_geom_bond_atom_site_label_1
_geom_bond_atom_site_label_2
_geom_bond_distance
_geom_bond_site_symmetry_2
_ccdc_geom_bond_type
Cu0 N1 1.999 . S
Cu0 O6 1.974 . S
Cu0 N11 1.985 . S
Cu0 O20 1.959 . S
N1 Cu0 1.999 . S
N1 C3 1.263 . S
N1 C5 1.389 . S
N2 C3 1.358 . S
N2 C4 1.400 . S
C3 N1 1.263 . S
C3 N2 1.358 . S
C3 H9 0.930 . S
C4 N2 1.400 . S
C4 C5 1.351 . S
C4 H21 0.930 . S
C5 N1 1.389 . S
C5 C4 1.351 . S
C5 H10 0.930 . S
O6 Cu0 1.974 . S
O6 C16 1.282 . S
C7 O8 1.261 . S
C7 O20 1.251 . S
O8 C7 1.261 . S
H9 C3 0.930 . S
H10 C5 0.930 . S
N11 Cu0 1.985 . S
N11 C13 1.335 . S
N11 C14 1.390 . S
N12 C13 1.345 . S
N12 C15 1.336 . S
C13 N11 1.335 . S
C13 N12 1.345 . S
C13 H18 0.930 . S
C14 N11 1.390 . S
C14 C15 1.346 . S
C14 H19 0.930 . S
C15 N12 1.336 . S
C15 C14 1.346 . S
C15 H22 0.929 . S
C16 O6 1.282 . S
C16 O17 1.216 . S
O17 C16 1.216 . S
H18 C13 0.930 . S
H19 C14 0.930 . S
O20 Cu0 1.959 . S
O20 C7 1.251 . S
H21 C4 0.930 . S
H22 C15 0.929 . S
Cu23 N24 1.999 . S
Cu23 O29 1.974 . S
Cu23 N34 1.985 . S
Cu23 O43 1.959 . S
N24 Cu23 1.999 . S
N24 C26 1.263 . S
N24 C28 1.389 . S
N25 C26 1.358 . S
N25 C27 1.400 . S
C26 N24 1.263 . S
C26 N25 1.358 . S
C26 H32 0.930 . S
C27 N25 1.400 . S
C27 C28 1.351 . S
C27 H44 0.930 . S
C28 N24 1.389 . S
C28 C27 1.351 . S
C28 H33 0.930 . S
O29 Cu23 1.974 . S
O29 C39 1.282 . S
C30 O31 1.261 . S
C30 O43 1.251 . S
O31 C30 1.261 . S
H32 C26 0.930 . S
H33 C28 0.930 . S
N34 Cu23 1.985 . S
N34 C36 1.335 . S
N34 C37 1.390 . S
N35 C36 1.345 . S
N35 C38 1.336 . S
C36 N34 1.335 . S
C36 N35 1.345 . S
C36 H41 0.930 . S
C37 N34 1.390 . S
C37 C38 1.346 . S
C37 H42 0.930 . S
C38 N35 1.336 . S
C38 C37 1.346 . S
C38 H45 0.929 . S
C39 O29 1.282 . S
C39 O40 1.216 . S
O40 C39 1.216 . S
H41 C36 0.930 . S
H42 C37 0.930 . S
O43 Cu23 1.959 . S
O43 C30 1.251 . S
H44 C27 0.930 . S
H45 C38 0.929 . S
Cu46 N47 1.999 . S
Cu46 O52 1.974 . S
Cu46 N57 1.985 . S
Cu46 O66 1.959 . S
N47 Cu46 1.999 . S
N47 C49 1.263 . S
N47 C51 1.389 . S
N48 C49 1.358 . S
N48 C50 1.400 . S
C49 N47 1.263 . S
C49 N48 1.358 . S
C49 H55 0.930 . S
C50 N48 1.400 . S
C50 C51 1.351 . S
C50 H67 0.930 . S
C51 N47 1.389 . S
C51 C50 1.351 . S
C51 H56 0.930 . S
O52 Cu46 1.974 . S
O52 C62 1.282 . S
C53 O54 1.261 . S
C53 O66 1.251 . S
O54 C53 1.261 . S
H55 C49 0.930 . S
H56 C51 0.930 . S
N57 Cu46 1.985 . S
N57 C59 1.335 . S
N57 C60 1.390 . S
N58 C59 1.345 . S
N58 C61 1.336 . S
C59 N57 1.335 . S
C59 N58 1.345 . S
C59 H64 0.930 . S
C60 N57 1.390 . S
C60 C61 1.346 . S
C60 H65 0.930 . S
C61 N58 1.336 . S
C61 C60 1.346 . S
C61 H68 0.929 . S
C62 O52 1.282 . S
C62 O63 1.216 . S
O63 C62 1.216 . S
H64 C59 0.930 . S
H65 C60 0.930 . S
O66 Cu46 1.959 . S
O66 C53 1.251 . S
H67 C50 0.930 . S
H68 C61 0.929 . S
Cu69 N70 1.999 . S
Cu69 O75 1.974 . S
Cu69 N80 1.985 . S
Cu69 O89 1.959 . S
N70 Cu69 1.999 . S
N70 C72 1.263 . S
N70 C74 1.389 . S
N71 C72 1.358 . S
N71 C73 1.400 . S
C72 N70 1.263 . S
C72 N71 1.358 . S
C72 H78 0.930 . S
C73 N71 1.400 . S
C73 C74 1.351 . S
C73 H90 0.930 . S
C74 N70 1.389 . S
C74 C73 1.351 . S
C74 H79 0.930 . S
O75 Cu69 1.974 . S
O75 C85 1.282 . S
C76 O77 1.261 . S
C76 O89 1.251 . S
O77 C76 1.261 . S
H78 C72 0.930 . S
H79 C74 0.930 . S
N80 Cu69 1.985 . S
N80 C82 1.335 . S
N80 C83 1.390 . S
N81 C82 1.345 . S
N81 C84 1.336 . S
C82 N80 1.335 . S
C82 N81 1.345 . S
C82 H87 0.930 . S
C83 N80 1.390 . S
C83 C84 1.346 . S
C83 H88 0.930 . S
C84 N81 1.336 . S
C84 C83 1.346 . S
C84 H91 0.929 . S
C85 O75 1.282 . S
C85 O86 1.216 . S
O86 C85 1.216 . S
H87 C82 0.930 . S
H88 C83 0.930 . S
O89 Cu69 1.959 . S
O89 C76 1.251 . S
H90 C73 0.930 . S
H91 C84 0.929 . S
Cu92 N93 1.999 . S
Cu92 O98 1.974 . S
Cu92 N103 1.985 . S
Cu92 O112 1.959 . S
N93 Cu92 1.999 . S
N93 C95 1.263 . S
N93 C97 1.389 . S
N94 C95 1.358 . S
N94 C96 1.400 . S
C95 N93 1.263 . S
C95 N94 1.358 . S
C95 H101 0.930 . S
C96 N94 1.400 . S
C96 C97 1.351 . S
C96 H113 0.930 . S
C97 N93 1.389 . S
C97 C96 1.351 . S
C97 H102 0.930 . S
O98 Cu92 1.974 . S
O98 C108 1.282 . S
C99 O100 1.261 . S
C99 O112 1.251 . S
O100 C99 1.261 . S
H101 C95 0.930 . S
H102 C97 0.930 . S
N103 Cu92 1.985 . S
N103 C105 1.335 . S
N103 C106 1.390 . S
N104 C105 1.345 . S
N104 C107 1.336 . S
C105 N103 1.335 . S
C105 N104 1.345 . S
C105 H110 0.930 . S
C106 N103 1.390 . S
C106 C107 1.346 . S
C106 H111 0.930 . S
C107 N104 1.336 . S
C107 C106 1.346 . S
C107 H114 0.929 . S
C108 O98 1.282 . S
C108 O109 1.216 . S
O109 C108 1.216 . S
H110 C105 0.930 . S
H111 C106 0.930 . S
O112 Cu92 1.959 . S
O112 C99 1.251 . S
H113 C96 0.930 . S
H114 C107 0.929 . S
Cu115 N116 1.999 . S
Cu115 O121 1.974 . S
Cu115 N126 1.985 . S
Cu115 O135 1.959 . S
N116 Cu115 1.999 . S
N116 C118 1.263 . S
N116 C120 1.389 . S
N117 C118 1.358 . S
N117 C119 1.400 . S
C118 N116 1.263 . S
C118 N117 1.358 . S
C118 H124 0.930 . S
C119 N117 1.400 . S
C119 C120 1.351 . S
C119 H136 0.930 . S
C120 N116 1.389 . S
C120 C119 1.351 . S
C120 H125 0.930 . S
O121 Cu115 1.974 . S
O121 C131 1.282 . S
C122 O123 1.261 . S
C122 O135 1.251 . S
O123 C122 1.261 . S
H124 C118 0.930 . S
H125 C120 0.930 . S
N126 Cu115 1.985 . S
N126 C128 1.335 . S
N126 C129 1.390 . S
N127 C128 1.345 . S
N127 C130 1.336 . S
C128 N126 1.335 . S
C128 N127 1.345 . S
C128 H133 0.930 . S
C129 N126 1.390 . S
C129 C130 1.346 . S
C129 H134 0.930 . S
C130 N127 1.336 . S
C130 C129 1.346 . S
C130 H137 0.929 . S
C131 O121 1.282 . S
C131 O132 1.216 . S
O132 C131 1.216 . S
H133 C128 0.930 . S
H134 C129 0.930 . S
O135 Cu115 1.959 . S
O135 C122 1.251 . S
H136 C119 0.930 . S
H137 C130 0.929 . S
Cu138 N139 1.999 . S
Cu138 O144 1.974 . S
Cu138 N149 1.985 . S
Cu138 O158 1.959 . S
N139 Cu138 1.999 . S
N139 C141 1.263 . S
N139 C143 1.389 . S
N140 C141 1.358 . S
N140 C142 1.400 . S
C141 N139 1.263 . S
C141 N140 1.358 . S
C141 H147 0.930 . S
C142 N140 1.400 . S
C142 C143 1.351 . S
C142 H159 0.930 . S
C143 N139 1.389 . S
C143 C142 1.351 . S
C143 H148 0.930 . S
O144 Cu138 1.974 . S
O144 C154 1.282 . S
C145 O146 1.261 . S
C145 O158 1.251 . S
O146 C145 1.261 . S
H147 C141 0.930 . S
H148 C143 0.930 . S
N149 Cu138 1.985 . S
N149 C151 1.335 . S
N149 C152 1.390 . S
N150 C151 1.345 . S
N150 C153 1.336 . S
C151 N149 1.335 . S
C151 N150 1.345 . S
C151 H156 0.930 . S
C152 N149 1.390 . S
C152 C153 1.346 . S
C152 H157 0.930 . S
C153 N150 1.336 . S
C153 C152 1.346 . S
C153 H160 0.929 . S
C154 O144 1.282 . S
C154 O155 1.216 . S
O155 C154 1.216 . S
H156 C151 0.930 . S
H157 C152 0.930 . S
O158 Cu138 1.959 . S
O158 C145 1.251 . S
H159 C142 0.930 . S
H160 C153 0.929 . S
Cu161 N162 1.999 . S
Cu161 O167 1.974 . S
Cu161 N172 1.985 . S
Cu161 O181 1.959 . S
N162 Cu161 1.999 . S
N162 C164 1.263 . S
N162 C166 1.389 . S
N163 C164 1.358 . S
N163 C165 1.400 . S
C164 N162 1.263 . S
C164 N163 1.358 . S
C164 H170 0.930 . S
C165 N163 1.400 . S
C165 C166 1.351 . S
C165 H182 0.930 . S
C166 N162 1.389 . S
C166 C165 1.351 . S
C166 H171 0.930 . S
O167 Cu161 1.974 . S
O167 C177 1.282 . S
C168 O169 1.261 . S
C168 O181 1.251 . S
O169 C168 1.261 . S
H170 C164 0.930 . S
H171 C166 0.930 . S
N172 Cu161 1.985 . S
N172 C174 1.335 . S
N172 C175 1.390 . S
N173 C174 1.345 . S
N173 C176 1.336 . S
C174 N172 1.335 . S
C174 N173 1.345 . S
C174 H179 0.930 . S
C175 N172 1.390 . S
C175 C176 1.346 . S
C175 H180 0.930 . S
C176 N173 1.336 . S
C176 C175 1.346 . S
C176 H183 0.929 . S
C177 O167 1.282 . S
C177 O178 1.216 . S
O178 C177 1.216 . S
H179 C174 0.930 . S
H180 C175 0.930 . S
O181 Cu161 1.959 . S
O181 C168 1.251 . S
H182 C165 0.930 . S
H183 C176 0.929 . S
Cu184 N185 1.999 . S
Cu184 O190 1.974 . S
Cu184 N195 1.985 . S
Cu184 O204 1.959 . S
N185 Cu184 1.999 . S
N185 C187 1.263 . S
N185 C189 1.389 1_565 S
N186 C187 1.358 1_545 S
N186 C188 1.400 . S
C187 N185 1.263 . S
C187 N186 1.358 1_565 S
C187 H193 0.930 . S
C188 N186 1.400 . S
C188 C189 1.351 . S
C188 H205 0.930 . S
C189 N185 1.389 1_545 S
C189 C188 1.351 . S
C189 H194 0.930 . S
O190 Cu184 1.974 . S
O190 C200 1.282 . S
C191 O192 1.261 . S
C191 O204 1.251 . S
O192 C191 1.261 . S
H193 C187 0.930 . S
H194 C189 0.930 . S
N195 Cu184 1.985 . S
N195 C197 1.335 . S
N195 C198 1.390 . S
N196 C197 1.345 . S
N196 C199 1.336 . S
C197 N195 1.335 . S
C197 N196 1.345 . S
C197 H202 0.930 . S
C198 N195 1.390 . S
C198 C199 1.346 . S
C198 H203 0.930 . S
C199 N196 1.336 . S
C199 C198 1.346 . S
C199 H206 0.929 . S
C200 O190 1.282 . S
C200 O201 1.216 . S
O201 C200 1.216 . S
H202 C197 0.930 . S
H203 C198 0.930 . S
O204 Cu184 1.959 . S
O204 C191 1.251 . S
H205 C188 0.930 . S
H206 C199 0.929 . S
Cu207 N208 1.999 . S
Cu207 O213 1.974 . S
Cu207 N218 1.985 . S
Cu207 O227 1.959 . S
N208 Cu207 1.999 . S
N208 C210 1.263 . S
N208 C212 1.389 1_655 S
N209 C210 1.358 1_455 S
N209 C211 1.400 . S
C210 N208 1.263 . S
C210 N209 1.358 1_655 S
C210 H216 0.930 . S
C211 N209 1.400 . S
C211 C212 1.351 . S
C211 H228 0.930 . S
C212 N208 1.389 1_455 S
C212 C211 1.351 . S
C212 H217 0.930 . S
O213 Cu207 1.974 . S
O213 C223 1.282 . S
C214 O215 1.261 . S
C214 O227 1.251 . S
O215 C214 1.261 . S
H216 C210 0.930 . S
H217 C212 0.930 . S
N218 Cu207 1.985 . S
N218 C220 1.335 . S
N218 C221 1.390 . S
N219 C220 1.345 . S
N219 C222 1.336 . S
C220 N218 1.335 . S
C220 N219 1.345 . S
C220 H225 0.930 . S
C221 N218 1.390 . S
C221 C222 1.346 . S
C221 H226 0.930 . S
C222 N219 1.336 . S
C222 C221 1.346 . S
C222 H229 0.929 . S
C223 O213 1.282 . S
C223 O224 1.216 . S
O224 C223 1.216 . S
H225 C220 0.930 . S
H226 C221 0.930 . S
O227 Cu207 1.959 . S
O227 C214 1.251 . S
H228 C211 0.930 . S
H229 C222 0.929 . S
Cu230 N231 1.999 . S
Cu230 O236 1.974 . S
Cu230 N241 1.985 . S
Cu230 O250 1.959 . S
N231 Cu230 1.999 . S
N231 C233 1.263 . S
N231 C235 1.389 1_545 S
N232 C233 1.358 1_565 S
N232 C234 1.400 . S
C233 N231 1.263 . S
C233 N232 1.358 1_545 S
C233 H239 0.930 . S
C234 N232 1.400 . S
C234 C235 1.351 . S
C234 H251 0.930 . S
C235 N231 1.389 1_565 S
C235 C234 1.351 . S
C235 H240 0.930 . S
O236 Cu230 1.974 . S
O236 C246 1.282 . S
C237 O238 1.261 . S
C237 O250 1.251 . S
O238 C237 1.261 . S
H239 C233 0.930 . S
H240 C235 0.930 . S
N241 Cu230 1.985 . S
N241 C243 1.335 . S
N241 C244 1.390 . S
N242 C243 1.345 . S
N242 C245 1.336 . S
C243 N241 1.335 . S
C243 N242 1.345 . S
C243 H248 0.930 . S
C244 N241 1.390 . S
C244 C245 1.346 . S
C244 H249 0.930 . S
C245 N242 1.336 . S
C245 C244 1.346 . S
C245 H252 0.929 . S
C246 O236 1.282 . S
C246 O247 1.216 . S
O247 C246 1.216 . S
H248 C243 0.930 . S
H249 C244 0.930 . S
O250 Cu230 1.959 . S
O250 C237 1.251 . S
H251 C234 0.930 . S
H252 C245 0.929 . S
Cu253 N254 1.999 . S
Cu253 O259 1.974 . S
Cu253 N264 1.985 . S
Cu253 O273 1.959 . S
N254 Cu253 1.999 . S
N254 C256 1.263 . S
N254 C258 1.389 1_455 S
N255 C256 1.358 1_655 S
N255 C257 1.400 . S
C256 N254 1.263 . S
C256 N255 1.358 1_455 S
C256 H262 0.930 . S
C257 N255 1.400 . S
C257 C258 1.351 . S
C257 H274 0.930 . S
C258 N254 1.389 1_655 S
C258 C257 1.351 . S
C258 H263 0.930 . S
O259 Cu253 1.974 . S
O259 C269 1.282 . S
C260 O261 1.261 . S
C260 O273 1.251 . S
O261 C260 1.261 . S
H262 C256 0.930 . S
H263 C258 0.930 . S
N264 Cu253 1.985 . S
N264 C266 1.335 . S
N264 C267 1.390 . S
N265 C266 1.345 . S
N265 C268 1.336 . S
C266 N264 1.335 . S
C266 N265 1.345 . S
C266 H271 0.930 . S
C267 N264 1.390 . S
C267 C268 1.346 . S
C267 H272 0.930 . S
C268 N265 1.336 . S
C268 C267 1.346 . S
C268 H275 0.929 . S
C269 O259 1.282 . S
C269 O270 1.216 . S
O270 C269 1.216 . S
H271 C266 0.930 . S
H272 C267 0.930 . S
O273 Cu253 1.959 . S
O273 C260 1.251 . S
H274 C257 0.930 . S
H275 C268 0.929 . S
Cu276 N277 1.999 . S
Cu276 O282 1.974 . S
Cu276 N287 1.985 . S
Cu276 O296 1.959 . S
N277 Cu276 1.999 . S
N277 C279 1.263 . S
N277 C281 1.389 1_545 S
N278 C279 1.358 1_565 S
N278 C280 1.400 . S
C279 N277 1.263 . S
C279 N278 1.358 1_545 S
C279 H285 0.930 . S
C280 N278 1.400 . S
C280 C281 1.351 . S
C280 H297 0.930 . S
C281 N277 1.389 1_565 S
C281 C280 1.351 . S
C281 H286 0.930 . S
O282 Cu276 1.974 . S
O282 C292 1.282 . S
C283 O284 1.261 . S
C283 O296 1.251 . S
O284 C283 1.261 . S
H285 C279 0.930 . S
H286 C281 0.930 . S
N287 Cu276 1.985 . S
N287 C289 1.335 . S
N287 C290 1.390 . S
N288 C289 1.345 . S
N288 C291 1.336 . S
C289 N287 1.335 . S
C289 N288 1.345 . S
C289 H294 0.930 . S
C290 N287 1.390 . S
C290 C291 1.346 . S
C290 H295 0.930 . S
C291 N288 1.336 . S
C291 C290 1.346 . S
C291 H298 0.929 . S
C292 O282 1.282 . S
C292 O293 1.216 . S
O293 C292 1.216 . S
H294 C289 0.930 . S
H295 C290 0.930 . S
O296 Cu276 1.959 . S
O296 C283 1.251 . S
H297 C280 0.930 . S
H298 C291 0.929 . S
Cu299 N300 1.999 . S
Cu299 O305 1.974 . S
Cu299 N310 1.985 . S
Cu299 O319 1.959 . S
N300 Cu299 1.999 . S
N300 C302 1.263 . S
N300 C304 1.389 1_455 S
N301 C302 1.358 1_655 S
N301 C303 1.400 . S
C302 N300 1.263 . S
C302 N301 1.358 1_455 S
C302 H308 0.930 . S
C303 N301 1.400 . S
C303 C304 1.351 . S
C303 H320 0.930 . S
C304 N300 1.389 1_655 S
C304 C303 1.351 . S
C304 H309 0.930 . S
O305 Cu299 1.974 . S
O305 C315 1.282 . S
C306 O307 1.261 . S
C306 O319 1.251 . S
O307 C306 1.261 . S
H308 C302 0.930 . S
H309 C304 0.930 . S
N310 Cu299 1.985 . S
N310 C312 1.335 . S
N310 C313 1.390 . S
N311 C312 1.345 . S
N311 C314 1.336 . S
C312 N310 1.335 . S
C312 N311 1.345 . S
C312 H317 0.930 . S
C313 N310 1.390 . S
C313 C314 1.346 . S
C313 H318 0.930 . S
C314 N311 1.336 . S
C314 C313 1.346 . S
C314 H321 0.929 . S
C315 O305 1.282 . S
C315 O316 1.216 . S
O316 C315 1.216 . S
H317 C312 0.930 . S
H318 C313 0.930 . S
O319 Cu299 1.959 . S
O319 C306 1.251 . S
H320 C303 0.930 . S
H321 C314 0.929 . S
Cu322 N323 1.999 . S
Cu322 O328 1.974 . S
Cu322 N333 1.985 . S
Cu322 O342 1.959 . S
N323 Cu322 1.999 . S
N323 C325 1.263 . S
N323 C327 1.389 1_565 S
N324 C325 1.358 1_545 S
N324 C326 1.400 . S
C325 N323 1.263 . S
C325 N324 1.358 1_565 S
C325 H331 0.930 . S
C326 N324 1.400 . S
C326 C327 1.351 . S
C326 H343 0.930 . S
C327 N323 1.389 1_545 S
C327 C326 1.351 . S
C327 H332 0.930 . S
O328 Cu322 1.974 . S
O328 C338 1.282 . S
C329 O330 1.261 . S
C329 O342 1.251 . S
O330 C329 1.261 . S
H331 C325 0.930 . S
H332 C327 0.930 . S
N333 Cu322 1.985 . S
N333 C335 1.335 . S
N333 C336 1.390 . S
N334 C335 1.345 . S
N334 C337 1.336 . S
C335 N333 1.335 . S
C335 N334 1.345 . S
C335 H340 0.930 . S
C336 N333 1.390 . S
C336 C337 1.346 . S
C336 H341 0.930 . S
C337 N334 1.336 . S
C337 C336 1.346 . S
C337 H344 0.929 . S
C338 O328 1.282 . S
C338 O339 1.216 . S
O339 C338 1.216 . S
H340 C335 0.930 . S
H341 C336 0.930 . S
O342 Cu322 1.959 . S
O342 C329 1.251 . S
H343 C326 0.930 . S
H344 C337 0.929 . S
Cu345 N346 1.999 . S
Cu345 O351 1.974 . S
Cu345 N356 1.985 . S
Cu345 O365 1.959 . S
N346 Cu345 1.999 . S
N346 C348 1.263 . S
N346 C350 1.389 1_655 S
N347 C348 1.358 1_455 S
N347 C349 1.400 . S
C348 N346 1.263 . S
C348 N347 1.358 1_655 S
C348 H354 0.930 . S
C349 N347 1.400 . S
C349 C350 1.351 . S
C349 H366 0.930 . S
C350 N346 1.389 1_455 S
C350 C349 1.351 . S
C350 H355 0.930 . S
O351 Cu345 1.974 . S
O351 C361 1.282 . S
C352 O353 1.261 . S
C352 O365 1.251 . S
O353 C352 1.261 . S
H354 C348 0.930 . S
H355 C350 0.930 . S
N356 Cu345 1.985 . S
N356 C358 1.335 . S
N356 C359 1.390 . S
N357 C358 1.345 . S
N357 C360 1.336 . S
C358 N356 1.335 . S
C358 N357 1.345 . S
C358 H363 0.930 . S
C359 N356 1.390 . S
C359 C360 1.346 . S
C359 H364 0.930 . S
C360 N357 1.336 . S
C360 C359 1.346 . S
C360 H367 0.929 . S
C361 O351 1.282 . S
C361 O362 1.216 . S
O362 C361 1.216 . S
H363 C358 0.930 . S
H364 C359 0.930 . S
O365 Cu345 1.959 . S
O365 C352 1.251 . S
H366 C349 0.930 . S
H367 C360 0.929 . S
H368 C376 0.929 . S
H369 C378 0.930 . S
H370 C380 0.930 . S
H371 C383 0.929 . S
H372 C386 0.930 . S
H373 C388 0.960 . S
H374 C388 0.960 . S
H375 C388 0.960 . S
C376 H368 0.929 . S
C376 C377 1.377 . S
C376 C378 1.384 . S
C377 C376 1.377 . S
C377 C383 1.390 . S
C378 H369 0.930 . S
C378 C376 1.384 . S
C378 C379 1.372 . S
C379 C378 1.372 . S
C379 C380 1.400 . S
C379 C384 1.490 . S
C380 H370 0.930 . S
C380 C379 1.400 . S
C380 C383 1.386 . S
H381 C397 0.930 . S
H382 C398 0.931 . S
C383 H371 0.929 . S
C383 C377 1.390 . S
C383 C380 1.386 . S
C384 C379 1.490 . S
C384 C386 1.395 . S
C384 C387 1.403 . S
H385 C391 0.930 . S
C386 H372 0.930 . S
C386 C384 1.395 . S
C386 C389 1.403 . S
C387 C384 1.403 . S
C387 C388 1.524 . S
C387 C391 1.400 . S
C388 H373 0.960 . S
C388 H374 0.960 . S
C388 H375 0.960 . S
C388 C387 1.524 . S
C389 C386 1.403 . S
C389 C390 1.392 . S
C389 C393 1.495 . S
C390 C389 1.392 . S
C390 C391 1.385 . S
C390 C392 1.478 . S
C391 H385 0.930 . S
C391 C387 1.400 . S
C391 C390 1.385 . S
C392 C390 1.478 . S
C392 C394 1.381 . S
C392 C398 1.383 . S
C393 C389 1.495 . S
C393 H399 0.959 . S
C393 H400 0.961 . S
C393 H401 0.960 . S
C394 C392 1.381 . S
C394 C395 1.394 . S
C394 H402 0.930 . S
C395 C394 1.394 . S
C395 C396 1.383 . S
C395 H403 0.929 . S
C396 C395 1.383 . S
C396 C397 1.377 . S
C397 H381 0.930 . S
C397 C396 1.377 . S
C397 C398 1.379 . S
C398 H382 0.931 . S
C398 C392 1.383 . S
C398 C397 1.379 . S
H399 C393 0.959 . S
H400 C393 0.961 . S
H401 C393 0.960 . S
H402 C394 0.930 . S
H403 C395 0.929 . S
H404 C412 0.929 . S
H405 C414 0.930 . S
H406 C416 0.930 . S
H407 C419 0.929 . S
H408 C422 0.930 . S
H409 C424 0.960 . S
H410 C424 0.960 . S
H411 C424 0.960 . S
C412 H404 0.929 . S
C412 C413 1.377 . S
C412 C414 1.384 . S
C413 C412 1.377 . S
C413 C419 1.390 . S
C414 H405 0.930 . S
C414 C412 1.384 . S
C414 C415 1.372 . S
C415 C414 1.372 . S
C415 C416 1.400 . S
C415 C420 1.490 . S
C416 H406 0.930 . S
C416 C415 1.400 . S
C416 C419 1.386 . S
H417 C433 0.930 . S
H418 C434 0.931 . S
C419 H407 0.929 . S
C419 C413 1.390 . S
C419 C416 1.386 . S
C420 C415 1.490 . S
C420 C422 1.395 . S
C420 C423 1.403 . S
H421 C427 0.930 . S
C422 H408 0.930 . S
C422 C420 1.395 . S
C422 C425 1.403 . S
C423 C420 1.403 . S
C423 C424 1.524 . S
C423 C427 1.400 . S
C424 H409 0.960 . S
C424 H410 0.960 . S
C424 H411 0.960 . S
C424 C423 1.524 . S
C425 C422 1.403 . S
C425 C426 1.392 . S
C425 C429 1.495 . S
C426 C425 1.392 . S
C426 C427 1.385 . S
C426 C428 1.478 . S
C427 H421 0.930 . S
C427 C423 1.400 . S
C427 C426 1.385 . S
C428 C426 1.478 . S
C428 C430 1.381 . S
C428 C434 1.383 . S
C429 C425 1.495 . S
C429 H435 0.959 . S
C429 H436 0.961 . S
C429 H437 0.960 . S
C430 C428 1.381 . S
C430 C431 1.394 . S
C430 H438 0.930 . S
C431 C430 1.394 . S
C431 C432 1.383 . S
C431 H439 0.929 . S
C432 C431 1.383 . S
C432 C433 1.377 . S
C433 H417 0.930 . S
C433 C432 1.377 . S
C433 C434 1.379 . S
C434 H418 0.931 . S
C434 C428 1.383 . S
C434 C433 1.379 . S
H435 C429 0.959 . S
H436 C429 0.961 . S
H437 C429 0.960 . S
H438 C430 0.930 . S
H439 C431 0.929 . S
H440 C448 0.929 . S
H441 C450 0.930 . S
H442 C452 0.930 . S
H443 C455 0.929 . S
H444 C458 0.930 . S
H445 C460 0.960 . S
H446 C460 0.960 . S
H447 C460 0.960 . S
C448 H440 0.929 . S
C448 C449 1.377 . S
C448 C450 1.384 . S
C449 C448 1.377 . S
C449 C455 1.390 . S
C450 H441 0.930 . S
C450 C448 1.384 . S
C450 C451 1.372 . S
C451 C450 1.372 . S
C451 C452 1.400 . S
C451 C456 1.490 . S
C452 H442 0.930 . S
C452 C451 1.400 . S
C452 C455 1.386 . S
H453 C469 0.930 . S
H454 C470 0.931 . S
C455 H443 0.929 . S
C455 C449 1.390 . S
C455 C452 1.386 . S
C456 C451 1.490 . S
C456 C458 1.395 . S
C456 C459 1.403 . S
H457 C463 0.930 . S
C458 H444 0.930 . S
C458 C456 1.395 . S
C458 C461 1.403 . S
C459 C456 1.403 . S
C459 C460 1.524 . S
C459 C463 1.400 . S
C460 H445 0.960 . S
C460 H446 0.960 . S
C460 H447 0.960 . S
C460 C459 1.524 . S
C461 C458 1.403 . S
C461 C462 1.392 . S
C461 C465 1.495 . S
C462 C461 1.392 . S
C462 C463 1.385 . S
C462 C464 1.478 . S
C463 H457 0.930 . S
C463 C459 1.400 . S
C463 C462 1.385 . S
C464 C462 1.478 . S
C464 C466 1.381 . S
C464 C470 1.383 . S
C465 C461 1.495 . S
C465 H471 0.959 . S
C465 H472 0.961 . S
C465 H473 0.960 . S
C466 C464 1.381 . S
C466 C467 1.394 . S
C466 H474 0.930 . S
C467 C466 1.394 . S
C467 C468 1.383 . S
C467 H475 0.929 . S
C468 C467 1.383 . S
C468 C469 1.377 . S
C469 H453 0.930 . S
C469 C468 1.377 . S
C469 C470 1.379 . S
C470 H454 0.931 . S
C470 C464 1.383 . S
C470 C469 1.379 . S
H471 C465 0.959 . S
H472 C465 0.961 . S
H473 C465 0.960 . S
H474 C466 0.930 . S
H475 C467 0.929 . S
H476 C484 0.929 . S
H477 C486 0.930 . S
H478 C488 0.930 . S
H479 C491 0.929 . S
H480 C494 0.930 . S
H481 C496 0.960 . S
H482 C496 0.960 . S
H483 C496 0.960 . S
C484 H476 0.929 . S
C484 C485 1.377 . S
C484 C486 1.384 . S
C485 C484 1.377 . S
C485 C491 1.390 . S
C486 H477 0.930 . S
C486 C484 1.384 . S
C486 C487 1.372 . S
C487 C486 1.372 . S
C487 C488 1.400 . S
C487 C492 1.490 . S
C488 H478 0.930 . S
C488 C487 1.400 . S
C488 C491 1.386 . S
H489 C505 0.930 . S
H490 C506 0.931 . S
C491 H479 0.929 . S
C491 C485 1.390 . S
C491 C488 1.386 . S
C492 C487 1.490 . S
C492 C494 1.395 . S
C492 C495 1.403 . S
H493 C499 0.930 . S
C494 H480 0.930 . S
C494 C492 1.395 . S
C494 C497 1.403 . S
C495 C492 1.403 . S
C495 C496 1.524 . S
C495 C499 1.400 . S
C496 H481 0.960 . S
C496 H482 0.960 . S
C496 H483 0.960 . S
C496 C495 1.524 . S
C497 C494 1.403 . S
C497 C498 1.392 . S
C497 C501 1.495 . S
C498 C497 1.392 . S
C498 C499 1.385 . S
C498 C500 1.478 . S
C499 H493 0.930 . S
C499 C495 1.400 . S
C499 C498 1.385 . S
C500 C498 1.478 . S
C500 C502 1.381 . S
C500 C506 1.383 . S
C501 C497 1.495 . S
C501 H507 0.959 . S
C501 H508 0.961 . S
C501 H509 0.960 . S
C502 C500 1.381 . S
C502 C503 1.394 . S
C502 H510 0.930 . S
C503 C502 1.394 . S
C503 C504 1.383 . S
C503 H511 0.929 . S
C504 C503 1.383 . S
C504 C505 1.377 . S
C505 H489 0.930 . S
C505 C504 1.377 . S
C505 C506 1.379 . S
C506 H490 0.931 . S
C506 C500 1.383 . S
C506 C505 1.379 . S
H507 C501 0.959 . S
H508 C501 0.961 . S
H509 C501 0.960 . S
H510 C502 0.930 . S
H511 C503 0.929 . S
H512 C520 0.929 . S
H513 C522 0.930 . S
H514 C524 0.930 . S
H515 C527 0.929 . S
H516 C530 0.930 . S
H517 C532 0.960 . S
H518 C532 0.960 . S
H519 C532 0.960 . S
C520 H512 0.929 . S
C520 C521 1.377 . S
C520 C522 1.384 . S
C521 C520 1.377 . S
C521 C527 1.390 . S
C522 H513 0.930 . S
C522 C520 1.384 . S
C522 C523 1.372 . S
C523 C522 1.372 . S
C523 C524 1.400 . S
C523 C528 1.490 . S
C524 H514 0.930 . S
C524 C523 1.400 . S
C524 C527 1.386 . S
H525 C541 0.930 . S
H526 C542 0.931 . S
C527 H515 0.929 . S
C527 C521 1.390 . S
C527 C524 1.386 . S
C528 C523 1.490 . S
C528 C530 1.395 . S
C528 C531 1.403 . S
H529 C535 0.930 . S
C530 H516 0.930 . S
C530 C528 1.395 . S
C530 C533 1.403 . S
C531 C528 1.403 . S
C531 C532 1.524 . S
C531 C535 1.400 . S
C532 H517 0.960 . S
C532 H518 0.960 . S
C532 H519 0.960 . S
C532 C531 1.524 . S
C533 C530 1.403 . S
C533 C534 1.392 . S
C533 C537 1.495 . S
C534 C533 1.392 . S
C534 C535 1.385 . S
C534 C536 1.478 . S
C535 H529 0.930 . S
C535 C531 1.400 . S
C535 C534 1.385 . S
C536 C534 1.478 . S
C536 C538 1.381 . S
C536 C542 1.383 . S
C537 C533 1.495 . S
C537 H543 0.959 . S
C537 H544 0.961 . S
C537 H545 0.960 . S
C538 C536 1.381 . S
C538 C539 1.394 . S
C538 H546 0.930 . S
C539 C538 1.394 . S
C539 C540 1.383 . S
C539 H547 0.929 . S
C540 C539 1.383 . S
C540 C541 1.377 . S
C541 H525 0.930 . S
C541 C540 1.377 . S
C541 C542 1.379 . S
C542 H526 0.931 . S
C542 C536 1.383 . S
C542 C541 1.379 . S
H543 C537 0.959 . S
H544 C537 0.961 . S
H545 C537 0.960 . S
H546 C538 0.930 . S
H547 C539 0.929 . S
H548 C556 0.929 . S
H549 C558 0.930 . S
H550 C560 0.930 . S
H551 C563 0.929 . S
H552 C566 0.930 . S
H553 C568 0.960 . S
H554 C568 0.960 . S
H555 C568 0.960 . S
C556 H548 0.929 . S
C556 C557 1.377 . S
C556 C558 1.384 . S
C557 C556 1.377 . S
C557 C563 1.390 . S
C558 H549 0.930 . S
C558 C556 1.384 . S
C558 C559 1.372 . S
C559 C558 1.372 . S
C559 C560 1.400 . S
C559 C564 1.490 . S
C560 H550 0.930 . S
C560 C559 1.400 . S
C560 C563 1.386 . S
H561 C577 0.930 . S
H562 C578 0.931 . S
C563 H551 0.929 . S
C563 C557 1.390 . S
C563 C560 1.386 . S
C564 C559 1.490 . S
C564 C566 1.395 . S
C564 C567 1.403 . S
H565 C571 0.930 . S
C566 H552 0.930 . S
C566 C564 1.395 . S
C566 C569 1.403 . S
C567 C564 1.403 . S
C567 C568 1.524 . S
C567 C571 1.400 . S
C568 H553 0.960 . S
C568 H554 0.960 . S
C568 H555 0.960 . S
C568 C567 1.524 . S
C569 C566 1.403 . S
C569 C570 1.392 . S
C569 C573 1.495 . S
C570 C569 1.392 . S
C570 C571 1.385 . S
C570 C572 1.478 . S
C571 H565 0.930 . S
C571 C567 1.400 . S
C571 C570 1.385 . S
C572 C570 1.478 . S
C572 C574 1.381 . S
C572 C578 1.383 . S
C573 C569 1.495 . S
C573 H579 0.959 . S
C573 H580 0.961 . S
C573 H581 0.960 . S
C574 C572 1.381 . S
C574 C575 1.394 . S
C574 H582 0.930 . S
C575 C574 1.394 . S
C575 C576 1.383 . S
C575 H583 0.929 . S
C576 C575 1.383 . S
C576 C577 1.377 . S
C577 H561 0.930 . S
C577 C576 1.377 . S
C577 C578 1.379 . S
C578 H562 0.931 . S
C578 C572 1.383 . S
C578 C577 1.379 . S
H579 C573 0.959 . S
H580 C573 0.961 . S
H581 C573 0.960 . S
H582 C574 0.930 . S
H583 C575 0.929 . S
H584 C592 0.929 . S
H585 C594 0.930 . S
H586 C596 0.930 . S
H587 C599 0.929 . S
H588 C602 0.930 . S
H589 C604 0.960 . S
H590 C604 0.960 . S
H591 C604 0.960 . S
C592 H584 0.929 . S
C592 C593 1.377 . S
C592 C594 1.384 . S
C593 C592 1.377 . S
C593 C599 1.390 . S
C594 H585 0.930 . S
C594 C592 1.384 . S
C594 C595 1.372 . S
C595 C594 1.372 . S
C595 C596 1.400 . S
C595 C600 1.490 . S
C596 H586 0.930 . S
C596 C595 1.400 . S
C596 C599 1.386 . S
H597 C613 0.930 . S
H598 C614 0.931 . S
C599 H587 0.929 . S
C599 C593 1.390 . S
C599 C596 1.386 . S
C600 C595 1.490 . S
C600 C602 1.395 . S
C600 C603 1.403 . S
H601 C607 0.930 . S
C602 H588 0.930 . S
C602 C600 1.395 . S
C602 C605 1.403 . S
C603 C600 1.403 . S
C603 C604 1.524 . S
C603 C607 1.400 . S
C604 H589 0.960 . S
C604 H590 0.960 . S
C604 H591 0.960 . S
C604 C603 1.524 . S
C605 C602 1.403 . S
C605 C606 1.392 . S
C605 C609 1.495 . S
C606 C605 1.392 . S
C606 C607 1.385 . S
C606 C608 1.478 . S
C607 H601 0.930 . S
C607 C603 1.400 . S
C607 C606 1.385 . S
C608 C606 1.478 . S
C608 C610 1.381 . S
C608 C614 1.383 . S
C609 C605 1.495 . S
C609 H615 0.959 . S
C609 H616 0.961 . S
C609 H617 0.960 . S
C610 C608 1.381 . S
C610 C611 1.394 . S
C610 H618 0.930 . S
C611 C610 1.394 . S
C611 C612 1.383 . S
C611 H619 0.929 . S
C612 C611 1.383 . S
C612 C613 1.377 . S
C613 H597 0.930 . S
C613 C612 1.377 . S
C613 C614 1.379 . S
C614 H598 0.931 . S
C614 C608 1.383 . S
C614 C613 1.379 . S
H615 C609 0.959 . S
H616 C609 0.961 . S
H617 C609 0.960 . S
H618 C610 0.930 . S
H619 C611 0.929 . S
H620 C628 0.929 . S
H621 C630 0.930 . S
H622 C632 0.930 . S
H623 C635 0.929 . S
H624 C638 0.930 . S
H625 C640 0.960 . S
H626 C640 0.960 . S
H627 C640 0.960 . S
C628 H620 0.929 . S
C628 C629 1.377 . S
C628 C630 1.384 . S
C629 C628 1.377 . S
C629 C635 1.390 . S
C630 H621 0.930 . S
C630 C628 1.384 . S
C630 C631 1.372 . S
C631 C630 1.372 . S
C631 C632 1.400 . S
C631 C636 1.490 . S
C632 H622 0.930 . S
C632 C631 1.400 . S
C632 C635 1.386 . S
H633 C649 0.930 . S
H634 C650 0.931 . S
C635 H623 0.929 . S
C635 C629 1.390 . S
C635 C632 1.386 . S
C636 C631 1.490 . S
C636 C638 1.395 . S
C636 C639 1.403 . S
H637 C643 0.930 . S
C638 H624 0.930 . S
C638 C636 1.395 . S
C638 C641 1.403 . S
C639 C636 1.403 . S
C639 C640 1.524 . S
C639 C643 1.400 . S
C640 H625 0.960 . S
C640 H626 0.960 . S
C640 H627 0.960 . S
C640 C639 1.524 . S
C641 C638 1.403 . S
C641 C642 1.392 . S
C641 C645 1.495 . S
C642 C641 1.392 . S
C642 C643 1.385 . S
C642 C644 1.478 . S
C643 H637 0.930 . S
C643 C639 1.400 . S
C643 C642 1.385 . S
C644 C642 1.478 . S
C644 C646 1.381 . S
C644 C650 1.383 . S
C645 C641 1.495 . S
C645 H651 0.959 . S
C645 H652 0.961 . S
C645 H653 0.960 . S
C646 C644 1.381 . S
C646 C647 1.394 . S
C646 H654 0.930 . S
C647 C646 1.394 . S
C647 C648 1.383 . S
C647 H655 0.929 . S
C648 C647 1.383 . S
C648 C649 1.377 . S
C649 H633 0.930 . S
C649 C648 1.377 . S
C649 C650 1.379 . S
C650 H634 0.931 . S
C650 C644 1.383 . S
C650 C649 1.379 . S
H651 C645 0.959 . S
H652 C645 0.961 . S
H653 C645 0.960 . S
H654 C646 0.930 . S
H655 C647 0.929 . S
H656 C664 0.929 . S
H657 C666 0.930 . S
H658 C668 0.930 . S
H659 C671 0.929 . S
H660 C674 0.930 . S
H661 C676 0.960 . S
H662 C676 0.960 . S
H663 C676 0.960 . S
C664 H656 0.929 . S
C664 C665 1.377 . S
C664 C666 1.384 . S
C665 C664 1.377 . S
C665 C671 1.390 . S
C666 H657 0.930 . S
C666 C664 1.384 . S
C666 C667 1.372 . S
C667 C666 1.372 . S
C667 C668 1.400 . S
C667 C672 1.490 . S
C668 H658 0.930 . S
C668 C667 1.400 . S
C668 C671 1.386 . S
H669 C685 0.930 . S
H670 C686 0.931 . S
C671 H659 0.929 . S
C671 C665 1.390 . S
C671 C668 1.386 . S
C672 C667 1.490 . S
C672 C674 1.395 . S
C672 C675 1.403 . S
H673 C679 0.930 . S
C674 H660 0.930 . S
C674 C672 1.395 . S
C674 C677 1.403 . S
C675 C672 1.403 . S
C675 C676 1.524 . S
C675 C679 1.400 . S
C676 H661 0.960 . S
C676 H662 0.960 . S
C676 H663 0.960 . S
C676 C675 1.524 . S
C677 C674 1.403 . S
C677 C678 1.392 . S
C677 C681 1.495 . S
C678 C677 1.392 . S
C678 C679 1.385 . S
C678 C680 1.478 . S
C679 H673 0.930 . S
C679 C675 1.400 . S
C679 C678 1.385 . S
C680 C678 1.478 . S
C680 C682 1.381 . S
C680 C686 1.383 . S
C681 C677 1.495 . S
C681 H687 0.959 . S
C681 H688 0.961 . S
C681 H689 0.960 . S
C682 C680 1.381 . S
C682 C683 1.394 . S
C682 H690 0.930 . S
C683 C682 1.394 . S
C683 C684 1.383 . S
C683 H691 0.929 . S
C684 C683 1.383 . S
C684 C685 1.377 . S
C685 H669 0.930 . S
C685 C684 1.377 . S
C685 C686 1.379 . S
C686 H670 0.931 . S
C686 C680 1.383 . S
C686 C685 1.379 . S
H687 C681 0.959 . S
H688 C681 0.961 . S
H689 C681 0.960 . S
H690 C682 0.930 . S
H691 C683 0.929 . S
H692 C700 0.929 . S
H693 C702 0.930 . S
H694 C704 0.930 . S
H695 C707 0.929 . S
H696 C710 0.930 . S
H697 C712 0.960 . S
H698 C712 0.960 . S
H699 C712 0.960 . S
C700 H692 0.929 . S
C700 C701 1.377 . S
C700 C702 1.384 . S
C701 C700 1.377 . S
C701 C707 1.390 . S
C702 H693 0.930 . S
C702 C700 1.384 . S
C702 C703 1.372 . S
C703 C702 1.372 . S
C703 C704 1.400 . S
C703 C708 1.490 . S
C704 H694 0.930 . S
C704 C703 1.400 . S
C704 C707 1.386 . S
H705 C721 0.930 . S
H706 C722 0.931 . S
C707 H695 0.929 . S
C707 C701 1.390 . S
C707 C704 1.386 . S
C708 C703 1.490 . S
C708 C710 1.395 . S
C708 C711 1.403 . S
H709 C715 0.930 . S
C710 H696 0.930 . S
C710 C708 1.395 . S
C710 C713 1.403 . S
C711 C708 1.403 . S
C711 C712 1.524 . S
C711 C715 1.400 . S
C712 H697 0.960 . S
C712 H698 0.960 . S
C712 H699 0.960 . S
C712 C711 1.524 . S
C713 C710 1.403 . S
C713 C714 1.392 . S
C713 C717 1.495 . S
C714 C713 1.392 . S
C714 C715 1.385 . S
C714 C716 1.478 . S
C715 H709 0.930 . S
C715 C711 1.400 . S
C715 C714 1.385 . S
C716 C714 1.478 . S
C716 C718 1.381 . S
C716 C722 1.383 . S
C717 C713 1.495 . S
C717 H723 0.959 . S
C717 H724 0.961 . S
C717 H725 0.960 . S
C718 C716 1.381 . S
C718 C719 1.394 . S
C718 H726 0.930 . S
C719 C718 1.394 . S
C719 C720 1.383 . S
C719 H727 0.929 . S
C720 C719 1.383 . S
C720 C721 1.377 . S
C721 H705 0.930 . S
C721 C720 1.377 . S
C721 C722 1.379 . S
C722 H706 0.931 . S
C722 C716 1.383 . S
C722 C721 1.379 . S
H723 C717 0.959 . S
H724 C717 0.961 . S
H725 C717 0.960 . S
H726 C718 0.930 . S
H727 C719 0.929 . S
H728 C736 0.929 . S
H729 C738 0.930 . S
H730 C740 0.930 . S
H731 C743 0.929 . S
H732 C746 0.930 . S
H733 C748 0.960 . S
H734 C748 0.960 . S
H735 C748 0.960 . S
C736 H728 0.929 . S
C736 C737 1.377 . S
C736 C738 1.384 . S
C737 C736 1.377 . S
C737 C743 1.390 . S
C738 H729 0.930 . S
C738 C736 1.384 . S
C738 C739 1.372 . S
C739 C738 1.372 . S
C739 C740 1.400 . S
C739 C744 1.490 . S
C740 H730 0.930 . S
C740 C739 1.400 . S
C740 C743 1.386 . S
H741 C757 0.930 . S
H742 C758 0.931 . S
C743 H731 0.929 . S
C743 C737 1.390 . S
C743 C740 1.386 . S
C744 C739 1.490 . S
C744 C746 1.395 . S
C744 C747 1.403 . S
H745 C751 0.930 . S
C746 H732 0.930 . S
C746 C744 1.395 . S
C746 C749 1.403 . S
C747 C744 1.403 . S
C747 C748 1.524 . S
C747 C751 1.400 . S
C748 H733 0.960 . S
C748 H734 0.960 . S
C748 H735 0.960 . S
C748 C747 1.524 . S
C749 C746 1.403 . S
C749 C750 1.392 . S
C749 C753 1.495 . S
C750 C749 1.392 . S
C750 C751 1.385 . S
C750 C752 1.478 . S
C751 H745 0.930 . S
C751 C747 1.400 . S
C751 C750 1.385 . S
C752 C750 1.478 . S
C752 C754 1.381 . S
C752 C758 1.383 . S
C753 C749 1.495 . S
C753 H759 0.959 . S
C753 H760 0.961 . S
C753 H761 0.960 . S
C754 C752 1.381 . S
C754 C755 1.394 . S
C754 H762 0.930 . S
C755 C754 1.394 . S
C755 C756 1.383 . S
C755 H763 0.929 . S
C756 C755 1.383 . S
C756 C757 1.377 . S
C757 H741 0.930 . S
C757 C756 1.377 . S
C757 C758 1.379 . S
C758 H742 0.931 . S
C758 C752 1.383 . S
C758 C757 1.379 . S
H759 C753 0.959 . S
H760 C753 0.961 . S
H761 C753 0.960 . S
H762 C754 0.930 . S
H763 C755 0.929 . S
H764 C772 0.929 . S
H765 C774 0.930 . S
H766 C776 0.930 . S
H767 C779 0.929 . S
H768 C782 0.930 . S
H769 C784 0.960 . S
H770 C784 0.960 . S
H771 C784 0.960 . S
C772 H764 0.929 . S
C772 C773 1.377 . S
C772 C774 1.384 . S
C773 C772 1.377 . S
C773 C779 1.390 . S
C774 H765 0.930 . S
C774 C772 1.384 . S
C774 C775 1.372 . S
C775 C774 1.372 . S
C775 C776 1.400 . S
C775 C780 1.490 . S
C776 H766 0.930 . S
C776 C775 1.400 . S
C776 C779 1.386 . S
H777 C793 0.930 . S
H778 C794 0.931 . S
C779 H767 0.929 . S
C779 C773 1.390 . S
C779 C776 1.386 . S
C780 C775 1.490 . S
C780 C782 1.395 . S
C780 C783 1.403 . S
H781 C787 0.930 . S
C782 H768 0.930 . S
C782 C780 1.395 . S
C782 C785 1.403 . S
C783 C780 1.403 . S
C783 C784 1.524 . S
C783 C787 1.400 . S
C784 H769 0.960 . S
C784 H770 0.960 . S
C784 H771 0.960 . S
C784 C783 1.524 . S
C785 C782 1.403 . S
C785 C786 1.392 . S
C785 C789 1.495 . S
C786 C785 1.392 . S
C786 C787 1.385 . S
C786 C788 1.478 . S
C787 H781 0.930 . S
C787 C783 1.400 . S
C787 C786 1.385 . S
C788 C786 1.478 . S
C788 C790 1.381 . S
C788 C794 1.383 . S
C789 C785 1.495 . S
C789 H795 0.959 . S
C789 H796 0.961 . S
C789 H797 0.960 . S
C790 C788 1.381 . S
C790 C791 1.394 . S
C790 H798 0.930 . S
C791 C790 1.394 . S
C791 C792 1.383 . S
C791 H799 0.929 . S
C792 C791 1.383 . S
C792 C793 1.377 . S
C793 H777 0.930 . S
C793 C792 1.377 . S
C793 C794 1.379 . S
C794 H778 0.931 . S
C794 C788 1.383 . S
C794 C793 1.379 . S
H795 C789 0.959 . S
H796 C789 0.961 . S
H797 C789 0.960 . S
H798 C790 0.930 . S
H799 C791 0.929 . S
H800 C808 0.929 . S
H801 C810 0.930 . S
H802 C812 0.930 . S
H803 C815 0.929 . S
H804 C818 0.930 . S
H805 C820 0.960 . S
H806 C820 0.960 . S
H807 C820 0.960 . S
C808 H800 0.929 . S
C808 C809 1.377 . S
C808 C810 1.384 . S
C809 C808 1.377 . S
C809 C815 1.390 . S
C810 H801 0.930 . S
C810 C808 1.384 . S
C810 C811 1.372 . S
C811 C810 1.372 . S
C811 C812 1.400 . S
C811 C816 1.490 . S
C812 H802 0.930 . S
C812 C811 1.400 . S
C812 C815 1.386 . S
H813 C829 0.930 . S
H814 C830 0.931 . S
C815 H803 0.929 . S
C815 C809 1.390 . S
C815 C812 1.386 . S
C816 C811 1.490 . S
C816 C818 1.395 . S
C816 C819 1.403 . S
H817 C823 0.930 . S
C818 H804 0.930 . S
C818 C816 1.395 . S
C818 C821 1.403 . S
C819 C816 1.403 . S
C819 C820 1.524 . S
C819 C823 1.400 . S
C820 H805 0.960 . S
C820 H806 0.960 . S
C820 H807 0.960 . S
C820 C819 1.524 . S
C821 C818 1.403 . S
C821 C822 1.392 . S
C821 C825 1.495 . S
C822 C821 1.392 . S
C822 C823 1.385 . S
C822 C824 1.478 . S
C823 H817 0.930 . S
C823 C819 1.400 . S
C823 C822 1.385 . S
C824 C822 1.478 . S
C824 C826 1.381 . S
C824 C830 1.383 . S
C825 C821 1.495 . S
C825 H831 0.959 . S
C825 H832 0.961 . S
C825 H833 0.960 . S
C826 C824 1.381 . S
C826 C827 1.394 . S
C826 H834 0.930 . S
C827 C826 1.394 . S
C827 C828 1.383 . S
C827 H835 0.929 . S
C828 C827 1.383 . S
C828 C829 1.377 . S
C829 H813 0.930 . S
C829 C828 1.377 . S
C829 C830 1.379 . S
C830 H814 0.931 . S
C830 C824 1.383 . S
C830 C829 1.379 . S
H831 C825 0.959 . S
H832 C825 0.961 . S
H833 C825 0.960 . S
H834 C826 0.930 . S
H835 C827 0.929 . S
H836 C844 0.929 . S
H837 C846 0.930 . S
H838 C848 0.930 . S
H839 C851 0.929 . S
H840 C854 0.930 . S
H841 C856 0.960 . S
H842 C856 0.960 . S
H843 C856 0.960 . S
C844 H836 0.929 . S
C844 C845 1.377 . S
C844 C846 1.384 . S
C845 C844 1.377 . S
C845 C851 1.390 . S
C846 H837 0.930 . S
C846 C844 1.384 . S
C846 C847 1.372 . S
C847 C846 1.372 . S
C847 C848 1.400 . S
C847 C852 1.490 . S
C848 H838 0.930 . S
C848 C847 1.400 . S
C848 C851 1.386 . S
H849 C865 0.930 . S
H850 C866 0.931 . S
C851 H839 0.929 . S
C851 C845 1.390 . S
C851 C848 1.386 . S
C852 C847 1.490 . S
C852 C854 1.395 . S
C852 C855 1.403 . S
H853 C859 0.930 . S
C854 H840 0.930 . S
C854 C852 1.395 . S
C854 C857 1.403 . S
C855 C852 1.403 . S
C855 C856 1.524 . S
C855 C859 1.400 . S
C856 H841 0.960 . S
C856 H842 0.960 . S
C856 H843 0.960 . S
C856 C855 1.524 . S
C857 C854 1.403 . S
C857 C858 1.392 . S
C857 C861 1.495 . S
C858 C857 1.392 . S
C858 C859 1.385 . S
C858 C860 1.478 . S
C859 H853 0.930 . S
C859 C855 1.400 . S
C859 C858 1.385 . S
C860 C858 1.478 . S
C860 C862 1.381 . S
C860 C866 1.383 . S
C861 C857 1.495 . S
C861 H867 0.959 . S
C861 H868 0.961 . S
C861 H869 0.960 . S
C862 C860 1.381 . S
C862 C863 1.394 . S
C862 H870 0.930 . S
C863 C862 1.394 . S
C863 C864 1.383 . S
C863 H871 0.929 . S
C864 C863 1.383 . S
C864 C865 1.377 . S
C865 H849 0.930 . S
C865 C864 1.377 . S
C865 C866 1.379 . S
C866 H850 0.931 . S
C866 C860 1.383 . S
C866 C865 1.379 . S
H867 C861 0.959 . S
H868 C861 0.961 . S
H869 C861 0.960 . S
H870 C862 0.930 . S
H871 C863 0.929 . S
H872 C880 0.929 . S
H873 C882 0.930 . S
H874 C884 0.930 . S
H875 C887 0.929 . S
H876 C890 0.930 . S
H877 C892 0.960 . S
H878 C892 0.960 . S
H879 C892 0.960 . S
C880 H872 0.929 . S
C880 C881 1.377 . S
C880 C882 1.384 . S
C881 C880 1.377 . S
C881 C887 1.390 . S
C882 H873 0.930 . S
C882 C880 1.384 . S
C882 C883 1.372 . S
C883 C882 1.372 . S
C883 C884 1.400 . S
C883 C888 1.490 . S
C884 H874 0.930 . S
C884 C883 1.400 . S
C884 C887 1.386 . S
H885 C901 0.930 . S
H886 C902 0.931 . S
C887 H875 0.929 . S
C887 C881 1.390 . S
C887 C884 1.386 . S
C888 C883 1.490 . S
C888 C890 1.395 . S
C888 C891 1.403 . S
H889 C895 0.930 . S
C890 H876 0.930 . S
C890 C888 1.395 . S
C890 C893 1.403 . S
C891 C888 1.403 . S
C891 C892 1.524 . S
C891 C895 1.400 . S
C892 H877 0.960 . S
C892 H878 0.960 . S
C892 H879 0.960 . S
C892 C891 1.524 . S
C893 C890 1.403 . S
C893 C894 1.392 . S
C893 C897 1.495 . S
C894 C893 1.392 . S
C894 C895 1.385 . S
C894 C896 1.478 . S
C895 H889 0.930 . S
C895 C891 1.400 . S
C895 C894 1.385 . S
C896 C894 1.478 . S
C896 C898 1.381 . S
C896 C902 1.383 . S
C897 C893 1.495 . S
C897 H903 0.959 . S
C897 H904 0.961 . S
C897 H905 0.960 . S
C898 C896 1.381 . S
C898 C899 1.394 . S
C898 H906 0.930 . S
C899 C898 1.394 . S
C899 C900 1.383 . S
C899 H907 0.929 . S
C900 C899 1.383 . S
C900 C901 1.377 . S
C901 H885 0.930 . S
C901 C900 1.377 . S
C901 C902 1.379 . S
C902 H886 0.931 . S
C902 C896 1.383 . S
C902 C901 1.379 . S
H903 C897 0.959 . S
H904 C897 0.961 . S
H905 C897 0.960 . S
H906 C898 0.930 . S
H907 C899 0.929 . S
H908 C916 0.929 . S
H909 C918 0.930 . S
H910 C920 0.930 . S
H911 C923 0.929 . S
H912 C926 0.930 . S
H913 C928 0.960 . S
H914 C928 0.960 . S
H915 C928 0.960 . S
C916 H908 0.929 . S
C916 C917 1.377 . S
C916 C918 1.384 . S
C917 C916 1.377 . S
C917 C923 1.390 . S
C918 H909 0.930 . S
C918 C916 1.384 . S
C918 C919 1.372 . S
C919 C918 1.372 . S
C919 C920 1.400 . S
C919 C924 1.490 . S
C920 H910 0.930 . S
C920 C919 1.400 . S
C920 C923 1.386 . S
H921 C937 0.930 . S
H922 C938 0.931 . S
C923 H911 0.929 . S
C923 C917 1.390 . S
C923 C920 1.386 . S
C924 C919 1.490 . S
C924 C926 1.395 . S
C924 C927 1.403 . S
H925 C931 0.930 . S
C926 H912 0.930 . S
C926 C924 1.395 . S
C926 C929 1.403 . S
C927 C924 1.403 . S
C927 C928 1.524 . S
C927 C931 1.400 . S
C928 H913 0.960 . S
C928 H914 0.960 . S
C928 H915 0.960 . S
C928 C927 1.524 . S
C929 C926 1.403 . S
C929 C930 1.392 . S
C929 C933 1.495 . S
C930 C929 1.392 . S
C930 C931 1.385 . S
C930 C932 1.478 . S
C931 H925 0.930 . S
C931 C927 1.400 . S
C931 C930 1.385 . S
C932 C930 1.478 . S
C932 C934 1.381 . S
C932 C938 1.383 . S
C933 C929 1.495 . S
C933 H939 0.959 . S
C933 H940 0.961 . S
C933 H941 0.960 . S
C934 C932 1.381 . S
C934 C935 1.394 . S
C934 H942 0.930 . S
C935 C934 1.394 . S
C935 C936 1.383 . S
C935 H943 0.929 . S
C936 C935 1.383 . S
C936 C937 1.377 . S
C937 H921 0.930 . S
C937 C936 1.377 . S
C937 C938 1.379 . S
C938 H922 0.931 . S
C938 C932 1.383 . S
C938 C937 1.379 . S
H939 C933 0.959 . S
H940 C933 0.961 . S
H941 C933 0.960 . S
H942 C934 0.930 . S
H943 C935 0.929 . S
H944 C952 0.929 . S
H945 C954 0.930 . S
H946 C956 0.930 . S
H947 C959 0.929 . S
H948 C962 0.930 . S
H949 C964 0.960 . S
H950 C964 0.960 . S
H951 C964 0.960 . S
C952 H944 0.929 . S
C952 C953 1.377 . S
C952 C954 1.384 . S
C953 C952 1.377 . S
C953 C959 1.390 . S
C954 H945 0.930 . S
C954 C952 1.384 . S
C954 C955 1.372 . S
C955 C954 1.372 . S
C955 C956 1.400 . S
C955 C960 1.490 . S
C956 H946 0.930 . S
C956 C955 1.400 . S
C956 C959 1.386 . S
H957 C973 0.930 . S
H958 C974 0.931 . S
C959 H947 0.929 . S
C959 C953 1.390 . S
C959 C956 1.386 . S
C960 C955 1.490 . S
C960 C962 1.395 . S
C960 C963 1.403 . S
H961 C967 0.930 . S
C962 H948 0.930 . S
C962 C960 1.395 . S
C962 C965 1.403 . S
C963 C960 1.403 . S
C963 C964 1.524 . S
C963 C967 1.400 . S
C964 H949 0.960 . S
C964 H950 0.960 . S
C964 H951 0.960 . S
C964 C963 1.524 . S
C965 C962 1.403 . S
C965 C966 1.392 . S
C965 C969 1.495 . S
C966 C965 1.392 . S
C966 C967 1.385 . S
C966 C968 1.478 . S
C967 H961 0.930 . S
C967 C963 1.400 . S
C967 C966 1.385 . S
C968 C966 1.478 . S
C968 C970 1.381 . S
C968 C974 1.383 . S
C969 C965 1.495 . S
C969 H975 0.959 . S
C969 H976 0.961 . S
C969 H977 0.960 . S
C970 C968 1.381 . S
C970 C971 1.394 . S
C970 H978 0.930 . S
C971 C970 1.394 . S
C971 C972 1.383 . S
C971 H979 0.929 . S
C972 C971 1.383 . S
C972 C973 1.377 . S
C973 H957 0.930 . S
C973 C972 1.377 . S
C973 C974 1.379 . S
C974 H958 0.931 . S
C974 C968 1.383 . S
C974 C973 1.379 . S
H975 C969 0.959 . S
H976 C969 0.961 . S
H977 C969 0.960 . S
H978 C970 0.930 . S
H979 C971 0.929 . S
H980 C988 0.929 . S
H981 C990 0.930 . S
H982 C992 0.930 . S
H983 C995 0.929 . S
H984 C998 0.930 . S
H985 C1000 0.960 . S
H986 C1000 0.960 . S
H987 C1000 0.960 . S
C988 H980 0.929 . S
C988 C989 1.377 . S
C988 C990 1.384 . S
C989 C988 1.377 . S
C989 C995 1.390 . S
C990 H981 0.930 . S
C990 C988 1.384 . S
C990 C991 1.372 . S
C991 C990 1.372 . S
C991 C992 1.400 . S
C991 C996 1.490 . S
C992 H982 0.930 . S
C992 C991 1.400 . S
C992 C995 1.386 . S
H993 C1009 0.930 . S
H994 C1010 0.931 . S
C995 H983 0.929 . S
C995 C989 1.390 . S
C995 C992 1.386 . S
C996 C991 1.490 . S
C996 C998 1.395 . S
C996 C999 1.403 . S
H997 C1003 0.930 . S
C998 H984 0.930 . S
C998 C996 1.395 . S
C998 C1001 1.403 . S
C999 C996 1.403 . S
C999 C1000 1.524 . S
C999 C1003 1.400 . S
C1000 H985 0.960 . S
C1000 H986 0.960 . S
C1000 H987 0.960 . S
C1000 C999 1.524 . S
C1001 C998 1.403 . S
C1001 C1002 1.392 . S
C1001 C1005 1.495 . S
C1002 C1001 1.392 . S
C1002 C1003 1.385 . S
C1002 C1004 1.478 . S
C1003 H997 0.930 . S
C1003 C999 1.400 . S
C1003 C1002 1.385 . S
C1004 C1002 1.478 . S
C1004 C1006 1.381 . S
C1004 C1010 1.383 . S
C1005 C1001 1.495 . S
C1005 H1011 0.959 . S
C1005 H1012 0.961 . S
C1005 H1013 0.960 . S
C1006 C1004 1.381 . S
C1006 C1007 1.394 . S
C1006 H1014 0.930 . S
C1007 C1006 1.394 . S
C1007 C1008 1.383 . S
C1007 H1015 0.929 . S
C1008 C1007 1.383 . S
C1008 C1009 1.377 . S
C1009 H993 0.930 . S
C1009 C1008 1.377 . S
C1009 C1010 1.379 . S
C1010 H994 0.931 . S
C1010 C1004 1.383 . S
C1010 C1009 1.379 . S
H1011 C1005 0.959 . S
H1012 C1005 0.961 . S
H1013 C1005 0.960 . S
H1014 C1006 0.930 . S
H1015 C1007 0.929 . S
H1016 C1024 0.929 . S
H1017 C1026 0.930 . S
H1018 C1028 0.930 . S
H1019 C1031 0.929 . S
H1020 C1034 0.930 . S
H1021 C1036 0.960 . S
H1022 C1036 0.960 . S
H1023 C1036 0.960 . S
C1024 H1016 0.929 . S
C1024 C1025 1.377 . S
C1024 C1026 1.384 . S
C1025 C1024 1.377 . S
C1025 C1031 1.390 . S
C1026 H1017 0.930 . S
C1026 C1024 1.384 . S
C1026 C1027 1.372 . S
C1027 C1026 1.372 . S
C1027 C1028 1.400 . S
C1027 C1032 1.490 . S
C1028 H1018 0.930 . S
C1028 C1027 1.400 . S
C1028 C1031 1.386 . S
H1029 C1045 0.930 . S
H1030 C1046 0.931 . S
C1031 H1019 0.929 . S
C1031 C1025 1.390 . S
C1031 C1028 1.386 . S
C1032 C1027 1.490 . S
C1032 C1034 1.395 . S
C1032 C1035 1.403 . S
H1033 C1039 0.930 . S
C1034 H1020 0.930 . S
C1034 C1032 1.395 . S
C1034 C1037 1.403 . S
C1035 C1032 1.403 . S
C1035 C1036 1.524 . S
C1035 C1039 1.400 . S
C1036 H1021 0.960 . S
C1036 H1022 0.960 . S
C1036 H1023 0.960 . S
C1036 C1035 1.524 . S
C1037 C1034 1.403 . S
C1037 C1038 1.392 . S
C1037 C1041 1.495 . S
C1038 C1037 1.392 . S
C1038 C1039 1.385 . S
C1038 C1040 1.478 . S
C1039 H1033 0.930 . S
C1039 C1035 1.400 . S
C1039 C1038 1.385 . S
C1040 C1038 1.478 . S
C1040 C1042 1.381 . S
C1040 C1046 1.383 . S
C1041 C1037 1.495 . S
C1041 H1047 0.959 . S
C1041 H1048 0.961 . S
C1041 H1049 0.960 . S
C1042 C1040 1.381 . S
C1042 C1043 1.394 . S
C1042 H1050 0.930 . S
C1043 C1042 1.394 . S
C1043 C1044 1.383 . S
C1043 H1051 0.929 . S
C1044 C1043 1.383 . S
C1044 C1045 1.377 . S
C1045 H1029 0.930 . S
C1045 C1044 1.377 . S
C1045 C1046 1.379 . S
C1046 H1030 0.931 . S
C1046 C1040 1.383 . S
C1046 C1045 1.379 . S
H1047 C1041 0.959 . S
H1048 C1041 0.961 . S
H1049 C1041 0.960 . S
H1050 C1042 0.930 . S
H1051 C1043 0.929 . S
H1052 C1060 0.929 . S
H1053 C1062 0.930 . S
H1054 C1064 0.930 . S
H1055 C1067 0.929 . S
H1056 C1070 0.930 . S
H1057 C1072 0.960 . S
H1058 C1072 0.960 . S
H1059 C1072 0.960 . S
C1060 H1052 0.929 . S
C1060 C1061 1.377 . S
C1060 C1062 1.384 . S
C1061 C1060 1.377 . S
C1061 C1067 1.390 . S
C1062 H1053 0.930 . S
C1062 C1060 1.384 . S
C1062 C1063 1.372 . S
C1063 C1062 1.372 . S
C1063 C1064 1.400 . S
C1063 C1068 1.490 . S
C1064 H1054 0.930 . S
C1064 C1063 1.400 . S
C1064 C1067 1.386 . S
H1065 C1081 0.930 . S
H1066 C1082 0.931 . S
C1067 H1055 0.929 . S
C1067 C1061 1.390 . S
C1067 C1064 1.386 . S
C1068 C1063 1.490 . S
C1068 C1070 1.395 . S
C1068 C1071 1.403 . S
H1069 C1075 0.930 . S
C1070 H1056 0.930 . S
C1070 C1068 1.395 . S
C1070 C1073 1.403 . S
C1071 C1068 1.403 . S
C1071 C1072 1.524 . S
C1071 C1075 1.400 . S
C1072 H1057 0.960 . S
C1072 H1058 0.960 . S
C1072 H1059 0.960 . S
C1072 C1071 1.524 . S
C1073 C1070 1.403 . S
C1073 C1074 1.392 . S
C1073 C1077 1.495 . S
C1074 C1073 1.392 . S
C1074 C1075 1.385 . S
C1074 C1076 1.478 . S
C1075 H1069 0.930 . S
C1075 C1071 1.400 . S
C1075 C1074 1.385 . S
C1076 C1074 1.478 . S
C1076 C1078 1.381 . S
C1076 C1082 1.383 . S
C1077 C1073 1.495 . S
C1077 H1083 0.959 . S
C1077 H1084 0.961 . S
C1077 H1085 0.960 . S
C1078 C1076 1.381 . S
C1078 C1079 1.394 . S
C1078 H1086 0.930 . S
C1079 C1078 1.394 . S
C1079 C1080 1.383 . S
C1079 H1087 0.929 . S
C1080 C1079 1.383 . S
C1080 C1081 1.377 . S
C1081 H1065 0.930 . S
C1081 C1080 1.377 . S
C1081 C1082 1.379 . S
C1082 H1066 0.931 . S
C1082 C1076 1.383 . S
C1082 C1081 1.379 . S
H1083 C1077 0.959 . S
H1084 C1077 0.961 . S
H1085 C1077 0.960 . S
H1086 C1078 0.930 . S
H1087 C1079 0.929 . S
H1088 C1096 0.929 . S
H1089 C1098 0.930 . S
H1090 C1100 0.930 . S
H1091 C1103 0.929 . S
H1092 C1106 0.930 . S
H1093 C1108 0.960 . S
H1094 C1108 0.960 . S
H1095 C1108 0.960 . S
C1096 H1088 0.929 . S
C1096 C1097 1.377 . S
C1096 C1098 1.384 . S
C1097 C1096 1.377 . S
C1097 C1103 1.390 . S
C1098 H1089 0.930 . S
C1098 C1096 1.384 . S
C1098 C1099 1.372 . S
C1099 C1098 1.372 . S
C1099 C1100 1.400 . S
C1099 C1104 1.490 . S
C1100 H1090 0.930 . S
C1100 C1099 1.400 . S
C1100 C1103 1.386 . S
H1101 C1117 0.930 . S
H1102 C1118 0.931 . S
C1103 H1091 0.929 . S
C1103 C1097 1.390 . S
C1103 C1100 1.386 . S
C1104 C1099 1.490 . S
C1104 C1106 1.395 . S
C1104 C1107 1.403 . S
H1105 C1111 0.930 . S
C1106 H1092 0.930 . S
C1106 C1104 1.395 . S
C1106 C1109 1.403 . S
C1107 C1104 1.403 . S
C1107 C1108 1.524 . S
C1107 C1111 1.400 . S
C1108 H1093 0.960 . S
C1108 H1094 0.960 . S
C1108 H1095 0.960 . S
C1108 C1107 1.524 . S
C1109 C1106 1.403 . S
C1109 C1110 1.392 . S
C1109 C1113 1.495 . S
C1110 C1109 1.392 . S
C1110 C1111 1.385 . S
C1110 C1112 1.478 . S
C1111 H1105 0.930 . S
C1111 C1107 1.400 . S
C1111 C1110 1.385 . S
C1112 C1110 1.478 . S
C1112 C1114 1.381 . S
C1112 C1118 1.383 . S
C1113 C1109 1.495 . S
C1113 H1119 0.959 . S
C1113 H1120 0.961 . S
C1113 H1121 0.960 . S
C1114 C1112 1.381 . S
C1114 C1115 1.394 . S
C1114 H1122 0.930 . S
C1115 C1114 1.394 . S
C1115 C1116 1.383 . S
C1115 H1123 0.929 . S
C1116 C1115 1.383 . S
C1116 C1117 1.377 . S
C1117 H1101 0.930 . S
C1117 C1116 1.377 . S
C1117 C1118 1.379 . S
C1118 H1102 0.931 . S
C1118 C1112 1.383 . S
C1118 C1117 1.379 . S
H1119 C1113 0.959 . S
H1120 C1113 0.961 . S
H1121 C1113 0.960 . S
H1122 C1114 0.930 . S
H1123 C1115 0.929 . S
H1124 C1132 0.929 . S
H1125 C1134 0.930 . S
H1126 C1136 0.930 . S
H1127 C1139 0.929 . S
H1128 C1142 0.930 . S
H1129 C1144 0.960 . S
H1130 C1144 0.960 . S
H1131 C1144 0.960 . S
C1132 H1124 0.929 . S
C1132 C1133 1.377 . S
C1132 C1134 1.384 . S
C1133 C1132 1.377 . S
C1133 C1139 1.390 . S
C1134 H1125 0.930 . S
C1134 C1132 1.384 . S
C1134 C1135 1.372 . S
C1135 C1134 1.372 . S
C1135 C1136 1.400 . S
C1135 C1140 1.490 . S
C1136 H1126 0.930 . S
C1136 C1135 1.400 . S
C1136 C1139 1.386 . S
H1137 C1153 0.930 . S
H1138 C1154 0.931 . S
C1139 H1127 0.929 . S
C1139 C1133 1.390 . S
C1139 C1136 1.386 . S
C1140 C1135 1.490 . S
C1140 C1142 1.395 . S
C1140 C1143 1.403 . S
H1141 C1147 0.930 . S
C1142 H1128 0.930 . S
C1142 C1140 1.395 . S
C1142 C1145 1.403 . S
C1143 C1140 1.403 . S
C1143 C1144 1.524 . S
C1143 C1147 1.400 . S
C1144 H1129 0.960 . S
C1144 H1130 0.960 . S
C1144 H1131 0.960 . S
C1144 C1143 1.524 . S
C1145 C1142 1.403 . S
C1145 C1146 1.392 . S
C1145 C1149 1.495 . S
C1146 C1145 1.392 . S
C1146 C1147 1.385 . S
C1146 C1148 1.478 . S
C1147 H1141 0.930 . S
C1147 C1143 1.400 . S
C1147 C1146 1.385 . S
C1148 C1146 1.478 . S
C1148 C1150 1.381 . S
C1148 C1154 1.383 . S
C1149 C1145 1.495 . S
C1149 H1155 0.959 . S
C1149 H1156 0.961 . S
C1149 H1157 0.960 . S
C1150 C1148 1.381 . S
C1150 C1151 1.394 . S
C1150 H1158 0.930 . S
C1151 C1150 1.394 . S
C1151 C1152 1.383 . S
C1151 H1159 0.929 . S
C1152 C1151 1.383 . S
C1152 C1153 1.377 . S
C1153 H1137 0.930 . S
C1153 C1152 1.377 . S
C1153 C1154 1.379 . S
C1154 H1138 0.931 . S
C1154 C1148 1.383 . S
C1154 C1153 1.379 . S
H1155 C1149 0.959 . S
H1156 C1149 0.961 . S
H1157 C1149 0.960 . S
H1158 C1150 0.930 . S
H1159 C1151 0.929 . S
H1160 C1168 0.929 . S
H1161 C1170 0.930 . S
H1162 C1172 0.930 . S
H1163 C1175 0.929 . S
H1164 C1178 0.930 . S
H1165 C1180 0.960 . S
H1166 C1180 0.960 . S
H1167 C1180 0.960 . S
C1168 H1160 0.929 . S
C1168 C1169 1.377 . S
C1168 C1170 1.384 . S
C1169 C1168 1.377 . S
C1169 C1175 1.390 . S
C1170 H1161 0.930 . S
C1170 C1168 1.384 . S
C1170 C1171 1.372 . S
C1171 C1170 1.372 . S
C1171 C1172 1.400 . S
C1171 C1176 1.490 . S
C1172 H1162 0.930 . S
C1172 C1171 1.400 . S
C1172 C1175 1.386 . S
H1173 C1189 0.930 . S
H1174 C1190 0.931 . S
C1175 H1163 0.929 . S
C1175 C1169 1.390 . S
C1175 C1172 1.386 . S
C1176 C1171 1.490 . S
C1176 C1178 1.395 . S
C1176 C1179 1.403 . S
H1177 C1183 0.930 . S
C1178 H1164 0.930 . S
C1178 C1176 1.395 . S
C1178 C1181 1.403 . S
C1179 C1176 1.403 . S
C1179 C1180 1.524 . S
C1179 C1183 1.400 . S
C1180 H1165 0.960 . S
C1180 H1166 0.960 . S
C1180 H1167 0.960 . S
C1180 C1179 1.524 . S
C1181 C1178 1.403 . S
C1181 C1182 1.392 . S
C1181 C1185 1.495 . S
C1182 C1181 1.392 . S
C1182 C1183 1.385 . S
C1182 C1184 1.478 . S
C1183 H1177 0.930 . S
C1183 C1179 1.400 . S
C1183 C1182 1.385 . S
C1184 C1182 1.478 . S
C1184 C1186 1.381 . S
C1184 C1190 1.383 . S
C1185 C1181 1.495 . S
C1185 H1191 0.959 . S
C1185 H1192 0.961 . S
C1185 H1193 0.960 . S
C1186 C1184 1.381 . S
C1186 C1187 1.394 . S
C1186 H1194 0.930 . S
C1187 C1186 1.394 . S
C1187 C1188 1.383 . S
C1187 H1195 0.929 . S
C1188 C1187 1.383 . S
C1188 C1189 1.377 . S
C1189 H1173 0.930 . S
C1189 C1188 1.377 . S
C1189 C1190 1.379 . S
C1190 H1174 0.931 . S
C1190 C1184 1.383 . S
C1190 C1189 1.379 . S
H1191 C1185 0.959 . S
H1192 C1185 0.961 . S
H1193 C1185 0.960 . S
H1194 C1186 0.930 . S
H1195 C1187 0.929 . S
H1196 C1204 0.929 . S
H1197 C1206 0.930 . S
H1198 C1208 0.930 . S
H1199 C1211 0.929 . S
H1200 C1214 0.930 . S
H1201 C1216 0.960 . S
H1202 C1216 0.960 . S
H1203 C1216 0.960 . S
C1204 H1196 0.929 . S
C1204 C1205 1.377 . S
C1204 C1206 1.384 . S
C1205 C1204 1.377 . S
C1205 C1211 1.390 . S
C1206 H1197 0.930 . S
C1206 C1204 1.384 . S
C1206 C1207 1.372 . S
C1207 C1206 1.372 . S
C1207 C1208 1.400 . S
C1207 C1212 1.490 . S
C1208 H1198 0.930 . S
C1208 C1207 1.400 . S
C1208 C1211 1.386 . S
H1209 C1225 0.930 . S
H1210 C1226 0.931 . S
C1211 H1199 0.929 . S
C1211 C1205 1.390 . S
C1211 C1208 1.386 . S
C1212 C1207 1.490 . S
C1212 C1214 1.395 . S
C1212 C1215 1.403 . S
H1213 C1219 0.930 . S
C1214 H1200 0.930 . S
C1214 C1212 1.395 . S
C1214 C1217 1.403 . S
C1215 C1212 1.403 . S
C1215 C1216 1.524 . S
C1215 C1219 1.400 . S
C1216 H1201 0.960 . S
C1216 H1202 0.960 . S
C1216 H1203 0.960 . S
C1216 C1215 1.524 . S
C1217 C1214 1.403 . S
C1217 C1218 1.392 . S
C1217 C1221 1.495 . S
C1218 C1217 1.392 . S
C1218 C1219 1.385 . S
C1218 C1220 1.478 . S
C1219 H1213 0.930 . S
C1219 C1215 1.400 . S
C1219 C1218 1.385 . S
C1220 C1218 1.478 . S
C1220 C1222 1.381 . S
C1220 C1226 1.383 . S
C1221 C1217 1.495 . S
C1221 H1227 0.959 . S
C1221 H1228 0.961 . S
C1221 H1229 0.960 . S
C1222 C1220 1.381 . S
C1222 C1223 1.394 . S
C1222 H1230 0.930 . S
C1223 C1222 1.394 . S
C1223 C1224 1.383 . S
C1223 H1231 0.929 . S
C1224 C1223 1.383 . S
C1224 C1225 1.377 . S
C1225 H1209 0.930 . S
C1225 C1224 1.377 . S
C1225 C1226 1.379 . S
C1226 H1210 0.931 . S
C1226 C1220 1.383 . S
C1226 C1225 1.379 . S
H1227 C1221 0.959 . S
H1228 C1221 0.961 . S
H1229 C1221 0.960 . S
H1230 C1222 0.930 . S
H1231 C1223 0.929 . S
H1232 C1240 0.929 . S
H1233 C1242 0.930 . S
H1234 C1244 0.930 . S
H1235 C1247 0.929 . S
H1236 C1250 0.930 . S
H1237 C1252 0.960 . S
H1238 C1252 0.960 . S
H1239 C1252 0.960 . S
C1240 H1232 0.929 . S
C1240 C1241 1.377 . S
C1240 C1242 1.384 . S
C1241 C1240 1.377 . S
C1241 C1247 1.390 . S
C1242 H1233 0.930 . S
C1242 C1240 1.384 . S
C1242 C1243 1.372 . S
C1243 C1242 1.372 . S
C1243 C1244 1.400 . S
C1243 C1248 1.490 . S
C1244 H1234 0.930 . S
C1244 C1243 1.400 . S
C1244 C1247 1.386 . S
H1245 C1261 0.930 . S
H1246 C1262 0.931 . S
C1247 H1235 0.929 . S
C1247 C1241 1.390 . S
C1247 C1244 1.386 . S
C1248 C1243 1.490 . S
C1248 C1250 1.395 . S
C1248 C1251 1.403 . S
H1249 C1255 0.930 . S
C1250 H1236 0.930 . S
C1250 C1248 1.395 . S
C1250 C1253 1.403 . S
C1251 C1248 1.403 . S
C1251 C1252 1.524 . S
C1251 C1255 1.400 . S
C1252 H1237 0.960 . S
C1252 H1238 0.960 . S
C1252 H1239 0.960 . S
C1252 C1251 1.524 . S
C1253 C1250 1.403 . S
C1253 C1254 1.392 . S
C1253 C1257 1.495 . S
C1254 C1253 1.392 . S
C1254 C1255 1.385 . S
C1254 C1256 1.478 . S
C1255 H1249 0.930 . S
C1255 C1251 1.400 . S
C1255 C1254 1.385 . S
C1256 C1254 1.478 . S
C1256 C1258 1.381 . S
C1256 C1262 1.383 . S
C1257 C1253 1.495 . S
C1257 H1263 0.959 . S
C1257 H1264 0.961 . S
C1257 H1265 0.960 . S
C1258 C1256 1.381 . S
C1258 C1259 1.394 . S
C1258 H1266 0.930 . S
C1259 C1258 1.394 . S
C1259 C1260 1.383 . S
C1259 H1267 0.929 . S
C1260 C1259 1.383 . S
C1260 C1261 1.377 . S
C1261 H1245 0.930 . S
C1261 C1260 1.377 . S
C1261 C1262 1.379 . S
C1262 H1246 0.931 . S
C1262 C1256 1.383 . S
C1262 C1261 1.379 . S
H1263 C1257 0.959 . S
H1264 C1257 0.961 . S
H1265 C1257 0.960 . S
H1266 C1258 0.930 . S
H1267 C1259 0.929 . S
H1268 C1276 0.929 . S
H1269 C1278 0.930 . S
H1270 C1280 0.930 . S
H1271 C1283 0.929 . S
H1272 C1286 0.930 . S
H1273 C1288 0.960 . S
H1274 C1288 0.960 . S
H1275 C1288 0.960 . S
C1276 H1268 0.929 . S
C1276 C1277 1.377 . S
C1276 C1278 1.384 . S
C1277 C1276 1.377 . S
C1277 C1283 1.390 . S
C1278 H1269 0.930 . S
C1278 C1276 1.384 . S
C1278 C1279 1.372 . S
C1279 C1278 1.372 . S
C1279 C1280 1.400 . S
C1279 C1284 1.490 . S
C1280 H1270 0.930 . S
C1280 C1279 1.400 . S
C1280 C1283 1.386 . S
H1281 C1297 0.930 . S
H1282 C1298 0.931 . S
C1283 H1271 0.929 . S
C1283 C1277 1.390 . S
C1283 C1280 1.386 . S
C1284 C1279 1.490 . S
C1284 C1286 1.395 . S
C1284 C1287 1.403 . S
H1285 C1291 0.930 . S
C1286 H1272 0.930 . S
C1286 C1284 1.395 . S
C1286 C1289 1.403 . S
C1287 C1284 1.403 . S
C1287 C1288 1.524 . S
C1287 C1291 1.400 . S
C1288 H1273 0.960 . S
C1288 H1274 0.960 . S
C1288 H1275 0.960 . S
C1288 C1287 1.524 . S
C1289 C1286 1.403 . S
C1289 C1290 1.392 . S
C1289 C1293 1.495 . S
C1290 C1289 1.392 . S
C1290 C1291 1.385 . S
C1290 C1292 1.478 . S
C1291 H1285 0.930 . S
C1291 C1287 1.400 . S
C1291 C1290 1.385 . S
C1292 C1290 1.478 . S
C1292 C1294 1.381 . S
C1292 C1298 1.383 . S
C1293 C1289 1.495 . S
C1293 H1299 0.959 . S
C1293 H1300 0.961 . S
C1293 H1301 0.960 . S
C1294 C1292 1.381 . S
C1294 C1295 1.394 . S
C1294 H1302 0.930 . S
C1295 C1294 1.394 . S
C1295 C1296 1.383 . S
C1295 H1303 0.929 . S
C1296 C1295 1.383 . S
C1296 C1297 1.377 . S
C1297 H1281 0.930 . S
C1297 C1296 1.377 . S
C1297 C1298 1.379 . S
C1298 H1282 0.931 . S
C1298 C1292 1.383 . S
C1298 C1297 1.379 . S
H1299 C1293 0.959 . S
H1300 C1293 0.961 . S
H1301 C1293 0.960 . S
H1302 C1294 0.930 . S
H1303 C1295 0.929 . S
H1304 C1312 0.929 . S
H1305 C1314 0.930 . S
H1306 C1316 0.930 . S
H1307 C1319 0.929 . S
H1308 C1322 0.930 . S
H1309 C1324 0.960 . S
H1310 C1324 0.960 . S
H1311 C1324 0.960 . S
C1312 H1304 0.929 . S
C1312 C1313 1.377 . S
C1312 C1314 1.384 . S
C1313 C1312 1.377 . S
C1313 C1319 1.390 . S
C1314 H1305 0.930 . S
C1314 C1312 1.384 . S
C1314 C1315 1.372 . S
C1315 C1314 1.372 . S
C1315 C1316 1.400 . S
C1315 C1320 1.490 . S
C1316 H1306 0.930 . S
C1316 C1315 1.400 . S
C1316 C1319 1.386 . S
H1317 C1333 0.930 . S
H1318 C1334 0.931 . S
C1319 H1307 0.929 . S
C1319 C1313 1.390 . S
C1319 C1316 1.386 . S
C1320 C1315 1.490 . S
C1320 C1322 1.395 . S
C1320 C1323 1.403 . S
H1321 C1327 0.930 . S
C1322 H1308 0.930 . S
C1322 C1320 1.395 . S
C1322 C1325 1.403 . S
C1323 C1320 1.403 . S
C1323 C1324 1.524 . S
C1323 C1327 1.400 . S
C1324 H1309 0.960 . S
C1324 H1310 0.960 . S
C1324 H1311 0.960 . S
C1324 C1323 1.524 . S
C1325 C1322 1.403 . S
C1325 C1326 1.392 . S
C1325 C1329 1.495 . S
C1326 C1325 1.392 . S
C1326 C1327 1.385 . S
C1326 C1328 1.478 . S
C1327 H1321 0.930 . S
C1327 C1323 1.400 . S
C1327 C1326 1.385 . S
C1328 C1326 1.478 . S
C1328 C1330 1.381 . S
C1328 C1334 1.383 . S
C1329 C1325 1.495 . S
C1329 H1335 0.959 . S
C1329 H1336 0.961 . S
C1329 H1337 0.960 . S
C1330 C1328 1.381 . S
C1330 C1331 1.394 . S
C1330 H1338 0.930 . S
C1331 C1330 1.394 . S
C1331 C1332 1.383 . S
C1331 H1339 0.929 . S
C1332 C1331 1.383 . S
C1332 C1333 1.377 . S
C1333 H1317 0.930 . S
C1333 C1332 1.377 . S
C1333 C1334 1.379 . S
C1334 H1318 0.931 . S
C1334 C1328 1.383 . S
C1334 C1333 1.379 . S
H1335 C1329 0.959 . S
H1336 C1329 0.961 . S
H1337 C1329 0.960 . S
H1338 C1330 0.930 . S
H1339 C1331 0.929 . S
H1340 C1348 0.929 . S
H1341 C1350 0.930 . S
H1342 C1352 0.930 . S
H1343 C1355 0.929 . S
H1344 C1358 0.930 . S
H1345 C1360 0.960 . S
H1346 C1360 0.960 . S
H1347 C1360 0.960 . S
C1348 H1340 0.929 . S
C1348 C1349 1.377 . S
C1348 C1350 1.384 . S
C1349 C1348 1.377 . S
C1349 C1355 1.390 . S
C1350 H1341 0.930 . S
C1350 C1348 1.384 . S
C1350 C1351 1.372 . S
C1351 C1350 1.372 . S
C1351 C1352 1.400 . S
C1351 C1356 1.490 . S
C1352 H1342 0.930 . S
C1352 C1351 1.400 . S
C1352 C1355 1.386 . S
H1353 C1369 0.930 . S
H1354 C1370 0.931 . S
C1355 H1343 0.929 . S
C1355 C1349 1.390 . S
C1355 C1352 1.386 . S
C1356 C1351 1.490 . S
C1356 C1358 1.395 . S
C1356 C1359 1.403 . S
H1357 C1363 0.930 . S
C1358 H1344 0.930 . S
C1358 C1356 1.395 . S
C1358 C1361 1.403 . S
C1359 C1356 1.403 . S
C1359 C1360 1.524 . S
C1359 C1363 1.400 . S
C1360 H1345 0.960 . S
C1360 H1346 0.960 . S
C1360 H1347 0.960 . S
C1360 C1359 1.524 . S
C1361 C1358 1.403 . S
C1361 C1362 1.392 . S
C1361 C1365 1.495 . S
C1362 C1361 1.392 . S
C1362 C1363 1.385 . S
C1362 C1364 1.478 . S
C1363 H1357 0.930 . S
C1363 C1359 1.400 . S
C1363 C1362 1.385 . S
C1364 C1362 1.478 . S
C1364 C1366 1.381 . S
C1364 C1370 1.383 . S
C1365 C1361 1.495 . S
C1365 H1371 0.959 . S
C1365 H1372 0.961 . S
C1365 H1373 0.960 . S
C1366 C1364 1.381 . S
C1366 C1367 1.394 . S
C1366 H1374 0.930 . S
C1367 C1366 1.394 . S
C1367 C1368 1.383 . S
C1367 H1375 0.929 . S
C1368 C1367 1.383 . S
C1368 C1369 1.377 . S
C1369 H1353 0.930 . S
C1369 C1368 1.377 . S
C1369 C1370 1.379 . S
C1370 H1354 0.931 . S
C1370 C1364 1.383 . S
C1370 C1369 1.379 . S
H1371 C1365 0.959 . S
H1372 C1365 0.961 . S
H1373 C1365 0.960 . S
H1374 C1366 0.930 . S
H1375 C1367 0.929 . S
H1376 C1384 0.929 . S
H1377 C1386 0.930 . S
H1378 C1388 0.930 . S
H1379 C1391 0.929 . S
H1380 C1394 0.930 . S
H1381 C1396 0.960 . S
H1382 C1396 0.960 1_545 S
H1383 C1396 0.960 . S
C1384 H1376 0.929 . S
C1384 C1385 1.377 . S
C1384 C1386 1.384 . S
C1385 C1384 1.377 . S
C1385 C1391 1.390 1_545 S
C1386 H1377 0.930 . S
C1386 C1384 1.384 . S
C1386 C1387 1.372 . S
C1387 C1386 1.372 . S
C1387 C1388 1.400 1_545 S
C1387 C1392 1.490 . S
C1388 H1378 0.930 . S
C1388 C1387 1.400 1_565 S
C1388 C1391 1.386 . S
H1389 C1405 0.930 . S
H1390 C1406 0.931 . S
C1391 H1379 0.929 . S
C1391 C1385 1.390 1_565 S
C1391 C1388 1.386 . S
C1392 C1387 1.490 . S
C1392 C1394 1.395 . S
C1392 C1395 1.403 1_545 S
H1393 C1399 0.930 . S
C1394 H1380 0.930 . S
C1394 C1392 1.395 . S
C1394 C1397 1.403 1_554 S
C1395 C1392 1.403 1_565 S
C1395 C1396 1.524 . S
C1395 C1399 1.400 1_554 S
C1396 H1381 0.960 . S
C1396 H1382 0.960 1_565 S
C1396 H1383 0.960 . S
C1396 C1395 1.524 . S
C1397 C1394 1.403 1_556 S
C1397 C1398 1.376 1_545 S
C1397 C1401 1.495 . S
C1398 C1397 1.376 1_565 S
C1398 C1399 1.397 . S
C1398 C1400 1.484 . S
C1399 H1393 0.930 . S
C1399 C1395 1.400 1_556 S
C1399 C1398 1.397 . S
C1400 C1398 1.484 . S
C1400 C1402 1.381 1_565 S
C1400 C1406 1.383 . S
C1401 C1397 1.495 . S
C1401 H1407 0.959 . S
C1401 H1408 0.961 . S
C1401 H1409 0.960 . S
C1402 C1400 1.381 1_545 S
C1402 C1403 1.394 . S
C1402 H1410 0.930 . S
C1403 C1402 1.394 . S
C1403 C1404 1.383 1_545 S
C1403 H1411 0.929 . S
C1404 C1403 1.383 1_565 S
C1404 C1405 1.377 . S
C1405 H1389 0.930 . S
C1405 C1404 1.377 . S
C1405 C1406 1.379 . S
C1406 H1390 0.931 . S
C1406 C1400 1.383 . S
C1406 C1405 1.379 . S
H1407 C1401 0.959 . S
H1408 C1401 0.961 . S
H1409 C1401 0.960 . S
H1410 C1402 0.930 . S
H1411 C1403 0.929 . S
H1412 C1420 0.929 . S
H1413 C1422 0.930 . S
H1414 C1424 0.930 . S
H1415 C1427 0.929 . S
H1416 C1430 0.930 . S
H1417 C1432 0.960 . S
H1418 C1432 0.960 . S
H1419 C1432 0.960 . S
C1420 H1412 0.929 . S
C1420 C1421 1.377 . S
C1420 C1422 1.384 . S
C1421 C1420 1.377 . S
C1421 C1427 1.390 1_455 S
C1422 H1413 0.930 . S
C1422 C1420 1.384 . S
C1422 C1423 1.372 . S
C1423 C1422 1.372 . S
C1423 C1424 1.400 1_455 S
C1423 C1428 1.490 . S
C1424 H1414 0.930 . S
C1424 C1423 1.400 1_655 S
C1424 C1427 1.386 . S
H1425 C1441 0.930 . S
H1426 C1442 0.931 . S
C1427 H1415 0.929 . S
C1427 C1421 1.390 1_655 S
C1427 C1424 1.386 . S
C1428 C1423 1.490 . S
C1428 C1430 1.395 . S
C1428 C1431 1.403 1_455 S
H1429 C1435 0.930 . S
C1430 H1416 0.930 . S
C1430 C1428 1.395 . S
C1430 C1433 1.403 1_556 S
C1431 C1428 1.403 1_655 S
C1431 C1432 1.524 . S
C1431 C1435 1.400 1_556 S
C1432 H1417 0.960 . S
C1432 H1418 0.960 . S
C1432 H1419 0.960 . S
C1432 C1431 1.524 . S
C1433 C1430 1.403 1_554 S
C1433 C1434 1.389 1_455 S
C1433 C1437 1.495 . S
C1434 C1433 1.389 1_655 S
C1434 C1435 1.388 . S
C1434 C1436 1.479 . S
C1435 H1429 0.930 . S
C1435 C1431 1.400 1_554 S
C1435 C1434 1.388 . S
C1436 C1434 1.479 . S
C1436 C1438 1.381 1_655 S
C1436 C1442 1.383 . S
C1437 C1433 1.495 . S
C1437 H1443 0.959 . S
C1437 H1444 0.961 . S
C1437 H1445 0.960 . S
C1438 C1436 1.381 1_455 S
C1438 C1439 1.394 . S
C1438 H1446 0.930 . S
C1439 C1438 1.394 . S
C1439 C1440 1.383 1_455 S
C1439 H1447 0.929 . S
C1440 C1439 1.383 1_655 S
C1440 C1441 1.377 . S
C1441 H1425 0.930 . S
C1441 C1440 1.377 . S
C1441 C1442 1.379 . S
C1442 H1426 0.931 . S
C1442 C1436 1.383 . S
C1442 C1441 1.379 . S
H1443 C1437 0.959 . S
H1444 C1437 0.961 . S
H1445 C1437 0.960 . S
H1446 C1438 0.930 . S
H1447 C1439 0.929 . S
H1448 C1456 0.924 1_565 S
H1449 C1458 0.930 . S
H1450 C1460 0.930 . S
H1451 C1463 0.929 . S
H1452 C1466 0.930 . S
H1453 C1468 0.960 . S
H1454 C1468 0.960 . S
H1455 C1468 0.960 . S
C1456 H1448 0.924 1_545 S
C1456 C1457 1.384 . S
C1456 C1458 1.382 1_545 S
C1457 C1456 1.384 . S
C1457 C1463 1.390 . S
C1458 H1449 0.930 . S
C1458 C1456 1.382 1_565 S
C1458 C1459 1.372 1_565 S
C1459 C1458 1.372 1_545 S
C1459 C1460 1.400 . S
C1459 C1464 1.490 . S
C1460 H1450 0.930 . S
C1460 C1459 1.400 . S
C1460 C1463 1.386 . S
H1461 C1477 0.930 1_545 S
H1462 C1478 0.931 1_545 S
C1463 H1451 0.929 . S
C1463 C1457 1.390 . S
C1463 C1460 1.386 . S
C1464 C1459 1.490 . S
C1464 C1466 1.395 1_545 S
C1464 C1467 1.403 . S
H1465 C1471 0.930 . S
C1466 H1452 0.930 . S
C1466 C1464 1.395 1_565 S
C1466 C1469 1.403 1_556 S
C1467 C1464 1.403 . S
C1467 C1468 1.524 . S
C1467 C1471 1.400 1_556 S
C1468 H1453 0.960 . S
C1468 H1454 0.960 . S
C1468 H1455 0.960 . S
C1468 C1467 1.524 . S
C1469 C1466 1.403 1_554 S
C1469 C1470 1.392 . S
C1469 C1473 1.495 . S
C1470 C1469 1.392 . S
C1470 C1471 1.385 1_565 S
C1470 C1472 1.478 . S
C1471 H1465 0.930 . S
C1471 C1467 1.400 1_554 S
C1471 C1470 1.385 1_545 S
C1472 C1470 1.478 . S
C1472 C1474 1.381 . S
C1472 C1478 1.383 . S
C1473 C1469 1.495 . S
C1473 H1479 0.959 . S
C1473 H1480 0.961 . S
C1473 H1481 0.960 . S
C1474 C1472 1.381 . S
C1474 C1475 1.394 . S
C1474 H1482 0.930 . S
C1475 C1474 1.394 . S
C1475 C1476 1.383 . S
C1475 H1483 0.929 . S
C1476 C1475 1.383 . S
C1476 C1477 1.377 . S
C1477 H1461 0.930 1_565 S
C1477 C1476 1.377 . S
C1477 C1478 1.379 . S
C1478 H1462 0.931 1_565 S
C1478 C1472 1.383 . S
C1478 C1477 1.379 . S
H1479 C1473 0.959 . S
H1480 C1473 0.961 . S
H1481 C1473 0.960 . S
H1482 C1474 0.930 . S
H1483 C1475 0.929 . S
H1484 C1492 0.929 . S
H1485 C1494 0.930 1_455 S
H1486 C1496 0.930 . S
H1487 C1499 0.929 . S
H1488 C1502 0.930 . S
H1489 C1504 0.960 . S
H1490 C1504 0.960 . S
H1491 C1504 0.960 . S
C1492 H1484 0.929 . S
C1492 C1493 1.377 . S
C1492 C1494 1.384 . S
C1493 C1492 1.377 . S
C1493 C1499 1.390 . S
C1494 H1485 0.930 1_655 S
C1494 C1492 1.384 . S
C1494 C1495 1.372 . S
C1495 C1494 1.372 . S
C1495 C1496 1.400 . S
C1495 C1500 1.490 . S
C1496 H1486 0.930 . S
C1496 C1495 1.400 . S
C1496 C1499 1.386 . S
H1497 C1513 0.930 . S
H1498 C1514 0.931 . S
C1499 H1487 0.929 . S
C1499 C1493 1.390 . S
C1499 C1496 1.386 . S
C1500 C1495 1.490 . S
C1500 C1502 1.395 1_655 S
C1500 C1503 1.403 . S
H1501 C1507 0.930 . S
C1502 H1488 0.930 . S
C1502 C1500 1.395 1_455 S
C1502 C1505 1.403 1_556 S
C1503 C1500 1.403 . S
C1503 C1504 1.524 . S
C1503 C1507 1.400 1_556 S
C1504 H1489 0.960 . S
C1504 H1490 0.960 . S
C1504 H1491 0.960 . S
C1504 C1503 1.524 . S
C1505 C1502 1.403 1_554 S
C1505 C1506 1.392 . S
C1505 C1509 1.495 . S
C1506 C1505 1.392 . S
C1506 C1507 1.385 1_455 S
C1506 C1508 1.478 . S
C1507 H1501 0.930 . S
C1507 C1503 1.400 1_554 S
C1507 C1506 1.385 1_655 S
C1508 C1506 1.478 . S
C1508 C1510 1.381 . S
C1508 C1514 1.383 . S
C1509 C1505 1.495 . S
C1509 H1515 0.959 . S
C1509 H1516 0.961 . S
C1509 H1517 0.960 . S
C1510 C1508 1.381 . S
C1510 C1511 1.394 . S
C1510 H1518 0.930 . S
C1511 C1510 1.394 . S
C1511 C1512 1.383 . S
C1511 H1519 0.929 . S
C1512 C1511 1.383 . S
C1512 C1513 1.377 . S
C1513 H1497 0.930 . S
C1513 C1512 1.377 . S
C1513 C1514 1.379 . S
C1514 H1498 0.931 . S
C1514 C1508 1.383 . S
C1514 C1513 1.379 . S
H1515 C1509 0.959 . S
H1516 C1509 0.961 . S
H1517 C1509 0.960 . S
H1518 C1510 0.930 . S
H1519 C1511 0.929 . S
C377 N12 1.744 . S
C396 N173 1.730 . S
C413 N35 1.735 . S
C432 N104 1.730 . S
C449 N127 1.742 . S
C468 N58 1.746 . S
C485 N81 1.735 . S
C504 N150 1.759 . S
C521 N196 1.738 . S
C540 N357 1.759 . S
C557 N288 1.744 . S
C576 N219 1.714 . S
C593 N311 1.741 . S
C612 N242 1.751 . S
C629 N334 1.736 . S
C648 N265 1.725 . S
C665 N2 1.832 . S
C684 C269 1.837 . S
C701 N25 1.829 . S
C720 C200 1.837 . S
C737 C223 1.823 . S
C756 N48 1.813 . S
C773 N71 1.832 . S
C792 C246 1.821 . S
C809 N94 1.829 . S
C828 C315 1.825 . S
C845 C338 1.833 . S
C864 N117 1.807 . S
C881 N140 1.832 . S
C900 C361 1.840 . S
C917 C292 1.824 . S
C936 N163 1.846 . S
C953 N186 1.834 . S
C972 C85 1.815 . S
C989 C16 1.832 . S
C1008 N209 1.806 . S
C1025 N232 1.830 . S
C1044 C39 1.801 . S
C1061 C62 1.826 . S
C1080 N255 1.832 . S
C1097 N278 1.831 . S
C1116 C131 1.837 . S
C1133 C154 1.830 . S
C1152 N301 1.814 . S
C1169 C177 1.831 . S
C1188 N324 1.851 . S
C1205 C108 1.823 . S
C1224 N347 1.850 . S
C1241 C99 2.000 . S
C1260 C7 1.973 . S
C1277 C122 2.000 . S
C1296 C30 1.989 . S
C1313 C53 1.993 . S
C1332 C145 2.002 . S
C1349 C168 1.999 . S
C1368 C76 1.981 . S
C1385 C283 1.992 . S
C1404 C191 2.012 . S
C1421 C306 1.998 . S
C1440 C214 1.979 . S
C1457 C237 1.999 . S
C1476 C329 1.981 . S
C1493 C352 1.992 . S
C1512 C260 1.983 . S
