# Generated by pormake.
# Topology soq, (7)-cn, num edge types: 1
# Building blocks:
#     Node 0, Type 0, BuildingBlock: HICVOG_clean_sbu_0, # of connection points: 7
#     Node 1, Type 0, BuildingBlock: HICVOG_clean_sbu_0, # of connection points: 7
#     Node 2, Type 0, BuildingBlock: HICVOG_clean_sbu_0, # of connection points: 7
#     Node 3, Type 0, BuildingBlock: HICVOG_clean_sbu_0, # of connection points: 7
#     Node 4, Type 0, BuildingBlock: HICVOG_clean_sbu_0, # of connection points: 7
#     Node 5, Type 0, BuildingBlock: HICVOG_clean_sbu_0, # of connection points: 7
#     Node 6, Type 0, BuildingBlock: HICVOG_clean_sbu_0, # of connection points: 7
#     Node 7, Type 0, BuildingBlock: HICVOG_clean_sbu_0, # of connection points: 7
#     Node 8, Type 0, BuildingBlock: HICVOG_clean_sbu_0, # of connection points: 7
#     Node 9, Type 0, BuildingBlock: HICVOG_clean_sbu_0, # of connection points: 7
#     Node 10, Type 0, BuildingBlock: HICVOG_clean_sbu_0, # of connection points: 7
#     Node 11, Type 0, BuildingBlock: HICVOG_clean_sbu_0, # of connection points: 7
#     Node 12, Type 0, BuildingBlock: HICVOG_clean_sbu_0, # of connection points: 7
#     Node 13, Type 0, BuildingBlock: HICVOG_clean_sbu_0, # of connection points: 7
#     Node 14, Type 0, BuildingBlock: HICVOG_clean_sbu_0, # of connection points: 7
#     Node 15, Type 0, BuildingBlock: HICVOG_clean_sbu_0, # of connection points: 7
#     Node 16, Type 0, BuildingBlock: HICVOG_clean_sbu_0, # of connection points: 7
#     Node 17, Type 0, BuildingBlock: HICVOG_clean_sbu_0, # of connection points: 7
#     Node 18, Type 0, BuildingBlock: HICVOG_clean_sbu_0, # of connection points: 7
#     Node 19, Type 0, BuildingBlock: HICVOG_clean_sbu_0, # of connection points: 7
#     Node 20, Type 0, BuildingBlock: HICVOG_clean_sbu_0, # of connection points: 7
#     Node 21, Type 0, BuildingBlock: HICVOG_clean_sbu_0, # of connection points: 7
#     Node 22, Type 0, BuildingBlock: HICVOG_clean_sbu_0, # of connection points: 7
#     Node 23, Type 0, BuildingBlock: HICVOG_clean_sbu_0, # of connection points: 7
#     Node 24, Type 0, BuildingBlock: HICVOG_clean_sbu_0, # of connection points: 7
#     Node 25, Type 0, BuildingBlock: HICVOG_clean_sbu_0, # of connection points: 7
#     Node 26, Type 0, BuildingBlock: HICVOG_clean_sbu_0, # of connection points: 7
#     Node 27, Type 0, BuildingBlock: HICVOG_clean_sbu_0, # of connection points: 7
#     Node 28, Type 0, BuildingBlock: HICVOG_clean_sbu_0, # of connection points: 7
#     Node 29, Type 0, BuildingBlock: HICVOG_clean_sbu_0, # of connection points: 7
#     Node 30, Type 0, BuildingBlock: HICVOG_clean_sbu_0, # of connection points: 7
#     Node 31, Type 0, BuildingBlock: HICVOG_clean_sbu_0, # of connection points: 7
#     Edge 32, Type (0, 0), BuildingBlock: AJUNOK_clean_linker_0, # of connection points: 2
#     Edge 33, Type (0, 0), BuildingBlock: AJUNOK_clean_linker_0, # of connection points: 2
#     Edge 34, Type (0, 0), BuildingBlock: AJUNOK_clean_linker_0, # of connection points: 2
#     Edge 35, Type (0, 0), BuildingBlock: AJUNOK_clean_linker_0, # of connection points: 2
#     Edge 36, Type (0, 0), BuildingBlock: AJUNOK_clean_linker_0, # of connection points: 2
#     Edge 37, Type (0, 0), BuildingBlock: AJUNOK_clean_linker_0, # of connection points: 2
#     Edge 38, Type (0, 0), BuildingBlock: AJUNOK_clean_linker_0, # of connection points: 2
#     Edge 39, Type (0, 0), BuildingBlock: AJUNOK_clean_linker_0, # of connection points: 2
#     Edge 40, Type (0, 0), BuildingBlock: AJUNOK_clean_linker_0, # of connection points: 2
#     Edge 41, Type (0, 0), BuildingBlock: AJUNOK_clean_linker_0, # of connection points: 2
#     Edge 42, Type (0, 0), BuildingBlock: AJUNOK_clean_linker_0, # of connection points: 2
#     Edge 43, Type (0, 0), BuildingBlock: AJUNOK_clean_linker_0, # of connection points: 2
#     Edge 44, Type (0, 0), BuildingBlock: AJUNOK_clean_linker_0, # of connection points: 2
#     Edge 45, Type (0, 0), BuildingBlock: AJUNOK_clean_linker_0, # of connection points: 2
#     Edge 46, Type (0, 0), BuildingBlock: AJUNOK_clean_linker_0, # of connection points: 2
#     Edge 47, Type (0, 0), BuildingBlock: AJUNOK_clean_linker_0, # of connection points: 2
#     Edge 48, Type (0, 0), BuildingBlock: AJUNOK_clean_linker_0, # of connection points: 2
#     Edge 49, Type (0, 0), BuildingBlock: AJUNOK_clean_linker_0, # of connection points: 2
#     Edge 50, Type (0, 0), BuildingBlock: AJUNOK_clean_linker_0, # of connection points: 2
#     Edge 51, Type (0, 0), BuildingBlock: AJUNOK_clean_linker_0, # of connection points: 2
#     Edge 52, Type (0, 0), BuildingBlock: AJUNOK_clean_linker_0, # of connection points: 2
#     Edge 53, Type (0, 0), BuildingBlock: AJUNOK_clean_linker_0, # of connection points: 2
#     Edge 54, Type (0, 0), BuildingBlock: AJUNOK_clean_linker_0, # of connection points: 2
#     Edge 55, Type (0, 0), BuildingBlock: AJUNOK_clean_linker_0, # of connection points: 2
#     Edge 56, Type (0, 0), BuildingBlock: AJUNOK_clean_linker_0, # of connection points: 2
#     Edge 57, Type (0, 0), BuildingBlock: AJUNOK_clean_linker_0, # of connection points: 2
#     Edge 58, Type (0, 0), BuildingBlock: AJUNOK_clean_linker_0, # of connection points: 2
#     Edge 59, Type (0, 0), BuildingBlock: AJUNOK_clean_linker_0, # of connection points: 2
#     Edge 60, Type (0, 0), BuildingBlock: AJUNOK_clean_linker_0, # of connection points: 2
#     Edge 61, Type (0, 0), BuildingBlock: AJUNOK_clean_linker_0, # of connection points: 2
#     Edge 62, Type (0, 0), BuildingBlock: AJUNOK_clean_linker_0, # of connection points: 2
#     Edge 63, Type (0, 0), BuildingBlock: AJUNOK_clean_linker_0, # of connection points: 2
#     Edge 64, Type (0, 0), BuildingBlock: AJUNOK_clean_linker_0, # of connection points: 2
#     Edge 65, Type (0, 0), BuildingBlock: AJUNOK_clean_linker_0, # of connection points: 2
#     Edge 66, Type (0, 0), BuildingBlock: AJUNOK_clean_linker_0, # of connection points: 2
#     Edge 67, Type (0, 0), BuildingBlock: AJUNOK_clean_linker_0, # of connection points: 2
#     Edge 68, Type (0, 0), BuildingBlock: AJUNOK_clean_linker_0, # of connection points: 2
#     Edge 69, Type (0, 0), BuildingBlock: AJUNOK_clean_linker_0, # of connection points: 2
#     Edge 70, Type (0, 0), BuildingBlock: AJUNOK_clean_linker_0, # of connection points: 2
#     Edge 71, Type (0, 0), BuildingBlock: AJUNOK_clean_linker_0, # of connection points: 2
#     Edge 72, Type (0, 0), BuildingBlock: AJUNOK_clean_linker_0, # of connection points: 2
#     Edge 73, Type (0, 0), BuildingBlock: AJUNOK_clean_linker_0, # of connection points: 2
#     Edge 74, Type (0, 0), BuildingBlock: AJUNOK_clean_linker_0, # of connection points: 2
#     Edge 75, Type (0, 0), BuildingBlock: AJUNOK_clean_linker_0, # of connection points: 2
#     Edge 76, Type (0, 0), BuildingBlock: AJUNOK_clean_linker_0, # of connection points: 2
#     Edge 77, Type (0, 0), BuildingBlock: AJUNOK_clean_linker_0, # of connection points: 2
#     Edge 78, Type (0, 0), BuildingBlock: AJUNOK_clean_linker_0, # of connection points: 2
#     Edge 79, Type (0, 0), BuildingBlock: AJUNOK_clean_linker_0, # of connection points: 2
#     Edge 80, Type (0, 0), BuildingBlock: AJUNOK_clean_linker_0, # of connection points: 2
#     Edge 81, Type (0, 0), BuildingBlock: AJUNOK_clean_linker_0, # of connection points: 2
#     Edge 82, Type (0, 0), BuildingBlock: AJUNOK_clean_linker_0, # of connection points: 2
#     Edge 83, Type (0, 0), BuildingBlock: AJUNOK_clean_linker_0, # of connection points: 2
#     Edge 84, Type (0, 0), BuildingBlock: AJUNOK_clean_linker_0, # of connection points: 2
#     Edge 85, Type (0, 0), BuildingBlock: AJUNOK_clean_linker_0, # of connection points: 2
#     Edge 86, Type (0, 0), BuildingBlock: AJUNOK_clean_linker_0, # of connection points: 2
#     Edge 87, Type (0, 0), BuildingBlock: AJUNOK_clean_linker_0, # of connection points: 2
#     Edge 88, Type (0, 0), BuildingBlock: AJUNOK_clean_linker_0, # of connection points: 2
#     Edge 89, Type (0, 0), BuildingBlock: AJUNOK_clean_linker_0, # of connection points: 2
#     Edge 90, Type (0, 0), BuildingBlock: AJUNOK_clean_linker_0, # of connection points: 2
#     Edge 91, Type (0, 0), BuildingBlock: AJUNOK_clean_linker_0, # of connection points: 2
#     Edge 92, Type (0, 0), BuildingBlock: AJUNOK_clean_linker_0, # of connection points: 2
#     Edge 93, Type (0, 0), BuildingBlock: AJUNOK_clean_linker_0, # of connection points: 2
#     Edge 94, Type (0, 0), BuildingBlock: AJUNOK_clean_linker_0, # of connection points: 2
#     Edge 95, Type (0, 0), BuildingBlock: AJUNOK_clean_linker_0, # of connection points: 2
#     Edge 96, Type (0, 0), BuildingBlock: AJUNOK_clean_linker_0, # of connection points: 2
#     Edge 97, Type (0, 0), BuildingBlock: AJUNOK_clean_linker_0, # of connection points: 2
#     Edge 98, Type (0, 0), BuildingBlock: AJUNOK_clean_linker_0, # of connection points: 2
#     Edge 99, Type (0, 0), BuildingBlock: AJUNOK_clean_linker_0, # of connection points: 2
#     Edge 100, Type (0, 0), BuildingBlock: AJUNOK_clean_linker_0, # of connection points: 2
#     Edge 101, Type (0, 0), BuildingBlock: AJUNOK_clean_linker_0, # of connection points: 2
#     Edge 102, Type (0, 0), BuildingBlock: AJUNOK_clean_linker_0, # of connection points: 2
#     Edge 103, Type (0, 0), BuildingBlock: AJUNOK_clean_linker_0, # of connection points: 2
#     Edge 104, Type (0, 0), BuildingBlock: AJUNOK_clean_linker_0, # of connection points: 2
#     Edge 105, Type (0, 0), BuildingBlock: AJUNOK_clean_linker_0, # of connection points: 2
#     Edge 106, Type (0, 0), BuildingBlock: AJUNOK_clean_linker_0, # of connection points: 2
#     Edge 107, Type (0, 0), BuildingBlock: AJUNOK_clean_linker_0, # of connection points: 2
#     Edge 108, Type (0, 0), BuildingBlock: AJUNOK_clean_linker_0, # of connection points: 2
#     Edge 109, Type (0, 0), BuildingBlock: AJUNOK_clean_linker_0, # of connection points: 2
#     Edge 110, Type (0, 0), BuildingBlock: AJUNOK_clean_linker_0, # of connection points: 2
#     Edge 111, Type (0, 0), BuildingBlock: AJUNOK_clean_linker_0, # of connection points: 2
#     Edge 112, Type (0, 0), BuildingBlock: AJUNOK_clean_linker_0, # of connection points: 2
#     Edge 113, Type (0, 0), BuildingBlock: AJUNOK_clean_linker_0, # of connection points: 2
#     Edge 114, Type (0, 0), BuildingBlock: AJUNOK_clean_linker_0, # of connection points: 2
#     Edge 115, Type (0, 0), BuildingBlock: AJUNOK_clean_linker_0, # of connection points: 2
#     Edge 116, Type (0, 0), BuildingBlock: AJUNOK_clean_linker_0, # of connection points: 2
#     Edge 117, Type (0, 0), BuildingBlock: AJUNOK_clean_linker_0, # of connection points: 2
#     Edge 118, Type (0, 0), BuildingBlock: AJUNOK_clean_linker_0, # of connection points: 2
#     Edge 119, Type (0, 0), BuildingBlock: AJUNOK_clean_linker_0, # of connection points: 2
#     Edge 120, Type (0, 0), BuildingBlock: AJUNOK_clean_linker_0, # of connection points: 2
#     Edge 121, Type (0, 0), BuildingBlock: AJUNOK_clean_linker_0, # of connection points: 2
#     Edge 122, Type (0, 0), BuildingBlock: AJUNOK_clean_linker_0, # of connection points: 2
#     Edge 123, Type (0, 0), BuildingBlock: AJUNOK_clean_linker_0, # of connection points: 2
#     Edge 124, Type (0, 0), BuildingBlock: AJUNOK_clean_linker_0, # of connection points: 2
#     Edge 125, Type (0, 0), BuildingBlock: AJUNOK_clean_linker_0, # of connection points: 2
#     Edge 126, Type (0, 0), BuildingBlock: AJUNOK_clean_linker_0, # of connection points: 2
#     Edge 127, Type (0, 0), BuildingBlock: AJUNOK_clean_linker_0, # of connection points: 2
#     Edge 128, Type (0, 0), BuildingBlock: AJUNOK_clean_linker_0, # of connection points: 2
#     Edge 129, Type (0, 0), BuildingBlock: AJUNOK_clean_linker_0, # of connection points: 2
#     Edge 130, Type (0, 0), BuildingBlock: AJUNOK_clean_linker_0, # of connection points: 2
#     Edge 131, Type (0, 0), BuildingBlock: AJUNOK_clean_linker_0, # of connection points: 2
#     Edge 132, Type (0, 0), BuildingBlock: AJUNOK_clean_linker_0, # of connection points: 2
#     Edge 133, Type (0, 0), BuildingBlock: AJUNOK_clean_linker_0, # of connection points: 2
#     Edge 134, Type (0, 0), BuildingBlock: AJUNOK_clean_linker_0, # of connection points: 2
#     Edge 135, Type (0, 0), BuildingBlock: AJUNOK_clean_linker_0, # of connection points: 2
#     Edge 136, Type (0, 0), BuildingBlock: AJUNOK_clean_linker_0, # of connection points: 2
#     Edge 137, Type (0, 0), BuildingBlock: AJUNOK_clean_linker_0, # of connection points: 2
#     Edge 138, Type (0, 0), BuildingBlock: AJUNOK_clean_linker_0, # of connection points: 2
#     Edge 139, Type (0, 0), BuildingBlock: AJUNOK_clean_linker_0, # of connection points: 2
#     Edge 140, Type (0, 0), BuildingBlock: AJUNOK_clean_linker_0, # of connection points: 2
#     Edge 141, Type (0, 0), BuildingBlock: AJUNOK_clean_linker_0, # of connection points: 2
#     Edge 142, Type (0, 0), BuildingBlock: AJUNOK_clean_linker_0, # of connection points: 2
#     Edge 143, Type (0, 0), BuildingBlock: AJUNOK_clean_linker_0, # of connection points: 2
# Relax obj value: 0.123
# Max RMSD: 0.171
# Mean RMSD: 0.171
data_MOF--net-soq--node1-HICVOG_clean_sbu_0--edge1-AJUNOK_clean_linker_0
_symmetry_space_group_name_H-M    P1
_symmetry_Int_Tables_number       1
_symmetry_cell_setting            triclinic
loop_
_symmetry_equiv_pos_as_xyz
'x, y, z'
_cell_length_a     60.977705
_cell_length_b     20.772875
_cell_length_c     46.731184
_cell_angle_alpha  89.974144
_cell_angle_beta   90.030083
_cell_angle_gamma 90.016202
loop_
_atom_site_label
_atom_site_type_symbol
_atom_site_fract_x
_atom_site_fract_y
_atom_site_fract_z
_atom_type_partial_charge
Zn0 Zn 0.09365 0.32506 0.05609 0.0
C1 C 0.03775 0.37917 0.02081 0.0
N2 N 0.03059 0.38229 0.04799 0.0
C3 C 0.0468 0.35734 0.06361 0.0
N4 N 0.06329 0.33636 0.0462 0.0
N5 N 0.05704 0.34565 0.01928 0.0
C6 C 0.0929 0.35292 0.93917 0.0
O7 O 0.11007 0.3247 0.95055 0.0
O8 O 0.0931 0.27321 0.09051 0.0
Zn9 Zn 0.06917 0.2922 0.98537 0.0
N10 N 0.10554 0.40902 0.06352 0.0
C11 C 0.11472 0.51463 0.04795 0.0
C12 C 0.10755 0.45229 0.0419 0.0
C13 C 0.11041 0.42519 0.09089 0.0
N14 N 0.11982 0.53078 0.07534 0.0
C15 C 0.11766 0.4878 0.09717 0.0
O16 O 0.09907 0.23621 0.99151 0.0
C17 C 0.11523 0.23503 0.00927 0.0
O18 O 0.11448 0.26962 0.03176 0.0
H19 H 0.10352 0.4384 0.02022 0.0
H20 H 0.10919 0.38876 0.10734 0.0
C21 C 0.04056 0.22415 0.94138 0.0
C22 C 1.02477 0.1769 0.93293 0.0
C23 C 1.0207 0.1483 0.98199 0.0
C24 C 0.03614 0.19446 0.99007 0.0
N25 N 0.04601 0.23154 0.9699 0.0
N26 N 1.01556 0.14041 0.95392 0.0
H27 H 0.04879 0.25312 0.92542 0.0
C28 C 0.08698 0.21663 0.08408 0.0
O29 O 0.08021 0.20437 0.05796 0.0
O30 O 0.07458 0.35038 0.95206 0.0
H31 H 0.04049 0.20026 0.01236 0.0
H32 H 0.11643 0.54972 0.03099 0.0
H33 H 1.01294 0.11835 0.99801 0.0
Zn34 Zn 0.23814 0.99742 0.98628 0.0
C35 C 0.25814 0.9262 0.06397 0.0
N36 N 0.27524 0.90435 0.04903 0.0
C37 C 0.2687 0.90617 0.02155 0.0
N38 N 0.24904 0.93783 0.01923 0.0
N39 N 0.24184 0.94546 0.04581 0.0
C40 C 0.2169 0.06566 0.07857 0.0
O41 O 0.22683 0.0706 0.05373 0.0
O42 O 0.22974 0.94703 0.95187 0.0
Zn43 Zn 0.21084 0.95597 0.05307 0.0
N44 N 0.26322 0.0498 0.97037 0.0
C45 C 0.29899 0.09239 0.97877 0.0
C46 C 0.27998 0.06231 0.9887 0.0
C47 C 0.26484 0.06779 0.94203 0.0
N48 N 0.30069 0.10937 0.95077 0.0
C49 C 0.2842 0.09873 0.93172 0.0
O50 O 0.1904 1.00868 0.02695 0.0
C51 C 0.19166 0.05196 0.00767 0.0
O52 O 0.20949 0.05813 0.99309 0.0
H53 H 0.27876 0.04775 0.01087 0.0
H54 H 0.25158 0.05644 0.92749 0.0
C55 C 0.19462 0.85099 0.08595 0.0
C56 C 0.18793 0.787 0.09046 0.0
C57 C 0.1907 0.7677 0.04054 0.0
C58 C 0.19726 0.83128 0.03627 0.0
N59 N 0.19919 0.87134 0.05907 0.0
N60 N 0.18599 0.74718 0.06745 0.0
H61 H 0.19565 0.88522 0.10331 0.0
C62 C 0.2256 0.88806 0.94787 0.0
O63 O 0.22608 0.84793 0.9695 0.0
O64 O 0.20898 1.01189 0.08647 0.0
H65 H 0.20106 0.84858 0.01505 0.0
H66 H 0.31246 0.10176 0.99326 0.0
H67 H 0.18917 0.73507 0.02262 0.0
Zn68 Zn 0.09963 0.9319 0.20677 0.0
C69 C 0.0406 0.89291 0.23989 0.0
N70 N 0.0333 0.89517 0.21275 0.0
C71 C 0.05092 0.91039 0.19715 0.0
N72 N 0.06841 0.92258 0.21471 0.0
N73 N 0.0613 0.91844 0.24151 0.0
C74 C 0.08159 0.8786 0.31396 0.0
O75 O 0.07558 0.83527 0.29509 0.0
O76 O 0.10035 0.96868 0.16817 0.0
Zn77 Zn 0.07236 0.98377 0.27249 0.0
N78 N 0.11438 0.85009 0.21039 0.0
C79 C 0.12001 0.75008 0.23433 0.0
C80 C 0.10946 0.8097 0.23234 0.0
C81 C 0.13002 0.83453 0.19104 0.0
N82 N 0.13526 0.7336 0.21441 0.0
C83 C 0.14059 0.77488 0.19295 0.0
O84 O 0.10128 0.0427 0.26488 0.0
C85 C 0.118 0.03971 0.24812 0.0
O86 O 0.11816 0.99858 0.22799 0.0
H87 H 0.09746 0.82375 0.24808 0.0
H88 H 0.13382 0.86785 0.17391 0.0
C89 C 0.04502 0.05868 0.31549 0.0
C90 C 1.02608 0.09439 0.32398 0.0
C91 C 1.01402 0.09208 0.2755 0.0
C92 C 0.03244 0.05661 0.26745 0.0
N93 N 0.04764 0.03983 0.28732 0.0
N94 N 1.01125 0.10957 0.30327 0.0
H95 H 0.05711 0.04475 0.33124 0.0
C96 C 0.09132 0.02333 0.17129 0.0
O97 O 0.08361 0.04016 0.19645 0.0
O98 O 0.08126 0.93755 0.30737 0.0
H99 H 0.03452 0.04182 0.24543 0.0
H100 H 0.11605 0.71715 0.25151 0.0
H101 H 1.00182 0.10521 0.25972 0.0
Zn102 Zn 0.23655 0.29671 0.27281 0.0
C103 C 0.25698 0.36695 0.1954 0.0
N104 N 0.27402 0.38846 0.21057 0.0
C105 C 0.26698 0.38868 0.2378 0.0
N106 N 0.24719 0.3575 0.23987 0.0
N107 N 0.24012 0.34994 0.21318 0.0
C108 C 0.21866 0.26438 0.16066 0.0
O109 O 0.23126 0.24211 0.18118 0.0
O110 O 0.22501 0.3499 0.30436 0.0
Zn111 Zn 0.20905 0.33314 0.20602 0.0
N112 N 0.26211 0.24897 0.29086 0.0
C113 C 0.29866 0.21118 0.28367 0.0
C114 C 0.27957 0.23996 0.27328 0.0
C115 C 0.26313 0.2285 0.31896 0.0
N116 N 0.29972 0.19153 0.31136 0.0
C117 C 0.28257 0.1984 0.32972 0.0
O118 O 0.19432 0.25644 0.22481 0.0
C119 C 0.19463 0.22099 0.24694 0.0
O120 O 0.20956 0.22979 0.26602 0.0
H121 H 0.27877 0.25574 0.25126 0.0
H122 H 0.24926 0.23682 0.33289 0.0
C123 C 0.17894 0.43325 0.19479 0.0
C124 C 0.16359 0.48093 0.20149 0.0
C125 C 0.17352 0.47307 0.25031 0.0
C126 C 0.18868 0.42487 0.24353 0.0
N127 N 0.19117 0.40638 0.21582 0.0
N128 N 0.16106 0.4995 0.2292 0.0
H129 H 0.18031 0.4151 0.17315 0.0
C130 C 0.23695 0.39107 0.31679 0.0
O131 O 0.25687 0.40218 0.30746 0.0
O132 O 0.20594 0.31117 0.16551 0.0
H133 H 0.19809 0.40162 0.2602 0.0
H134 H 0.31264 0.20456 0.26974 0.0
H135 H 0.17134 0.48826 0.27227 0.0
Zn136 Zn 0.96227 0.69731 0.95535 0.0
C137 C 1.01884 0.642 0.98996 0.0
N138 N 0.02662 0.64315 0.96305 0.0
C139 C 1.00997 0.66496 0.94721 0.0
N140 N 0.99269 0.68093 0.96434 0.0
N141 N 0.99904 0.67305 0.99126 0.0
C142 C 0.96205 0.67378 0.06728 0.0
O143 O 0.94484 0.69687 0.05386 0.0
O144 O 0.96267 0.73631 0.91741 0.0
Zn145 Zn 0.98849 0.73488 0.02351 0.0
N146 N 0.94508 0.62018 0.95883 0.0
C147 C 0.92506 0.54919 0.98916 0.0
C148 C 0.93959 0.60051 0.98563 0.0
C149 C 0.9365 0.59119 0.93541 0.0
N150 N 0.91611 0.52085 0.96571 0.0
C151 C 0.92166 0.54017 0.93885 0.0
O152 O 0.96017 0.79842 0.01757 0.0
C153 C 0.94477 0.80236 0.9988 0.0
O154 O 0.9454 0.76568 0.97712 0.0
H155 H 0.94625 0.62517 0.00405 0.0
H156 H 0.94001 0.6107 0.91442 0.0
C157 C 1.01624 0.8052 0.06722 0.0
C158 C 0.03588 0.83618 0.07656 0.0
C159 C 0.04916 0.83095 0.02875 0.0
C160 C 0.03 0.80015 0.01981 0.0
N161 N 1.01387 0.78695 0.03898 0.0
N162 N 0.05169 0.84762 0.05666 0.0
H163 H 1.0034 0.79414 0.08241 0.0
C164 C 0.97272 0.78923 0.92126 0.0
O165 O 0.9817 0.80173 0.94621 0.0
O166 O 0.98104 0.68091 0.05675 0.0
H167 H 0.02812 0.78579 0.9977 0.0
H168 H 0.9205 0.53313 0.01036 0.0
H169 H 0.0621 0.84101 0.01357 0.0
Zn170 Zn 0.82286 0.04335 0.02429 0.0
C171 C 0.80031 0.11406 0.94806 0.0
N172 N 0.78308 0.12991 0.96429 0.0
C173 C 0.79086 0.13144 0.99119 0.0
N174 N 0.81128 0.1044 0.99213 0.0
N175 N 0.81802 0.10024 0.96516 0.0
C176 C 0.84134 0.99767 0.92288 0.0
O177 O 0.83353 0.98172 0.9481 0.0
O178 O 0.83055 0.09663 0.05835 0.0
Zn179 Zn 0.84941 0.09146 0.95754 0.0
N180 N 0.79866 0.98513 0.03918 0.0
C181 C 0.77147 0.90863 0.02531 0.0
C182 C 0.78767 0.95334 0.01823 0.0
C183 C 0.79354 0.97392 0.06759 0.0
N184 N 0.76677 0.89661 0.05321 0.0
C185 C 0.77713 0.92763 0.075 0.0
O186 O 0.86809 0.02596 0.97905 0.0
C187 C 0.86813 0.98527 0.99934 0.0
O188 O 0.85165 0.9832 0.01648 0.0
H189 H 0.79172 0.96216 0.99604 0.0
H190 H 0.80246 0.99896 0.08422 0.0
C191 C 0.87868 0.19276 0.94141 0.0
C192 C 0.88826 0.25393 0.94333 0.0
C193 C 0.8687 0.27338 0.98609 0.0
C194 C 0.85902 0.21251 0.98399 0.0
N195 N 0.86379 0.17413 0.96127 0.0
N196 N 0.88293 0.29322 0.96549 0.0
H197 H 0.88247 0.16094 0.92374 0.0
C198 C 0.84489 0.07635 0.07597 0.0
O199 O 0.85603 0.02405 0.07 0.0
O200 O 0.85051 0.05208 0.91948 0.0
H201 H 0.84767 0.1961 1.00021 0.0
H202 H 0.7628 0.88298 0.00863 0.0
H203 H 0.86476 0.3048 0.00381 0.0
Zn204 Zn 0.95902 0.08395 0.80336 0.0
C205 C 1.01621 0.13603 0.77012 0.0
N206 N 1.0227 0.13905 0.79762 0.0
C207 C 1.00582 0.11608 0.81255 0.0
N208 N 0.98955 0.09632 0.79452 0.0
N209 N 0.99668 0.10361 0.76786 0.0
C210 C 0.96007 0.09915 0.68655 0.0
O211 O 0.94492 0.05908 0.69548 0.0
O212 O 0.95965 0.03841 0.83956 0.0
Zn213 Zn 0.98506 0.04816 0.73401 0.0
N214 N 0.9451 0.16636 0.80714 0.0
C215 C 0.92928 0.26037 0.78686 0.0
C216 C 0.93901 0.20006 0.78357 0.0
C217 C 0.94155 0.18956 0.83382 0.0
N218 N 0.92555 0.28352 0.81359 0.0
C219 C 0.93132 0.24975 0.83743 0.0
O220 O 0.95648 0.9864 0.74085 0.0
C221 C 0.94012 0.9853 0.75829 0.0
O222 O 0.94004 0.02255 0.7799 0.0
H223 H 0.94171 0.18014 0.76249 0.0
H224 H 0.94586 0.15949 0.85183 0.0
C225 C 1.01139 0.97615 0.68885 0.0
C226 C 0.03047 0.94291 0.67888 0.0
C227 C 0.04498 0.94875 0.7261 0.0
C228 C 1.02626 0.98078 0.73569 0.0
N229 N 1.00976 0.99474 0.71715 0.0
N230 N 0.04667 0.93105 0.69822 0.0
H231 H 0.99833 0.9885 0.67413 0.0
C232 C 0.96801 0.98357 0.83474 0.0
O233 O 0.97493 0.96941 0.80887 0.0
O234 O 0.97744 0.10639 0.70126 0.0
H235 H 1.02502 0.9954 0.75782 0.0
H236 H 0.92436 0.2881 0.76834 0.0
H237 H 0.05822 0.93823 0.74081 0.0
Zn238 Zn 0.84418 0.7039 0.80443 0.0
C239 C 0.78805 0.65081 0.76955 0.0
N240 N 0.781 0.64658 0.79679 0.0
C241 C 0.79744 0.67 0.81253 0.0
N242 N 0.81378 0.69189 0.79515 0.0
N243 N 0.80727 0.68473 0.76822 0.0
C244 C 0.83142 0.64333 0.69453 0.0
O245 O 0.83453 0.60142 0.71516 0.0
O246 O 0.84387 0.74982 0.84062 0.0
Zn247 Zn 0.8179 0.74637 0.736 0.0
N248 N 0.85765 0.6207 0.80712 0.0
C249 C 0.86976 0.52395 0.78493 0.0
C250 C 0.85986 0.5844 0.78315 0.0
C251 C 0.86486 0.59929 0.83281 0.0
N252 N 0.87751 0.50302 0.81056 0.0
C253 C 0.87524 0.53917 0.83466 0.0
O254 O 0.84754 0.80232 0.74222 0.0
C255 C 0.86398 0.8019 0.75946 0.0
O256 O 0.86374 0.76465 0.78109 0.0
H257 H 0.85409 0.60264 0.76289 0.0
H258 H 0.86325 0.63013 0.85136 0.0
C259 C 0.78846 0.81708 0.6947 0.0
C260 C 0.77292 0.8655 0.68718 0.0
C261 C 0.76891 0.88934 0.73672 0.0
C262 C 0.78436 0.8424 0.74388 0.0
N263 N 0.79409 0.80717 0.72298 0.0
N264 N 0.76375 0.90004 0.70883 0.0
H265 H 0.79643 0.78933 0.67815 0.0
C266 C 0.83629 0.80552 0.83532 0.0
O267 O 0.82856 0.8184 0.80971 0.0
O268 O 0.82445 0.69908 0.70036 0.0
H269 H 0.78888 0.83471 0.76601 0.0
H270 H 0.87165 0.49448 0.76601 0.0
H271 H 0.76124 0.91783 0.75331 0.0
Zn272 Zn 0.06811 0.78754 0.48453 0.0
C273 C 0.04458 0.86074 0.55883 0.0
N274 N 0.02815 0.8799 0.5419 0.0
C275 C 0.03669 0.88067 0.51538 0.0
N276 N 0.0568 0.85159 0.51533 0.0
N277 N 0.06248 0.8453 0.5426 0.0
C278 C 0.08336 0.74101 0.58642 0.0
O279 O 0.07638 0.72533 0.56075 0.0
O280 O 0.07815 0.83627 0.45023 0.0
Zn281 Zn 0.09307 0.83518 0.55268 0.0
N282 N 0.04292 0.73325 0.46893 0.0
C283 C 1.00891 0.68273 0.4807 0.0
C284 C 0.02772 0.71649 0.48883 0.0
C285 C 0.03978 0.71598 0.44064 0.0
N286 N 1.00578 0.66651 0.45284 0.0
C287 C 1.0206 0.6816 0.43214 0.0
O288 O 0.11276 0.77003 0.53178 0.0
C289 C 0.11278 0.72947 0.51138 0.0
O290 O 0.09634 0.72728 0.49414 0.0
H291 H 0.03009 0.73012 0.51095 0.0
H292 H 0.05156 0.73004 0.42459 0.0
C293 C 0.11636 0.94329 0.57523 0.0
C294 C 0.12735 1.00245 0.57371 0.0
C295 C 0.11916 1.009 0.52433 0.0
C296 C 0.10828 0.94987 0.52588 0.0
N297 N 0.10713 0.91825 0.55132 0.0
N298 N 0.12873 0.03369 0.54821 0.0
H299 H 0.11571 0.91637 0.59506 0.0
C300 C 0.08833 0.80181 0.43208 0.0
O301 O 0.09268 0.74158 0.43838 0.0
O302 O 0.09222 0.79563 0.59049 0.0
H303 H 0.10094 0.92897 0.50695 0.0
H304 H 0.99674 0.66979 0.49654 0.0
H305 H 0.12029 0.03454 0.50421 0.0
Zn306 Zn 0.23513 0.48923 0.48603 0.0
C307 C 0.25662 0.41891 0.56289 0.0
N308 N 0.27302 0.39454 0.54741 0.0
C309 C 0.26552 0.39443 0.52029 0.0
N310 N 0.24609 0.42757 0.51856 0.0
N311 N 0.23977 0.43699 0.54543 0.0
C312 C 0.21746 0.54291 0.5889 0.0
O313 O 0.22506 0.55883 0.56355 0.0
O314 O 0.22728 0.43964 0.45077 0.0
Zn315 Zn 0.20913 0.44831 0.55492 0.0
N316 N 0.2594 0.54893 0.47156 0.0
C317 C 0.28293 0.63645 0.4839 0.0
C318 C 0.26784 0.58899 0.49169 0.0
C319 C 0.26617 0.55458 0.44339 0.0
N320 N 0.28898 0.64319 0.45606 0.0
C321 C 0.28124 0.6039 0.43505 0.0
O322 O 0.1903 0.51332 0.53355 0.0
C323 C 0.19 0.55008 0.51186 0.0
O324 O 0.20594 0.54791 0.49384 0.0
H325 H 0.26249 0.58486 0.51369 0.0
H326 H 0.25944 0.52283 0.42746 0.0
C327 C 0.18748 0.33969 0.57865 0.0
C328 C 0.17454 0.28372 0.57796 0.0
C329 C 0.17623 0.28472 0.52722 0.0
C330 C 0.18855 0.34132 0.52809 0.0
N331 N 0.19402 0.36725 0.55381 0.0
N332 N 0.16927 0.25772 0.5521 0.0
H333 H 0.19127 0.36369 0.5986 0.0
C334 C 0.21894 0.47537 0.43145 0.0
O335 O 0.21387 0.53509 0.43779 0.0
O336 O 0.20933 0.4873 0.59277 0.0
H337 H 0.19372 0.36455 0.5085 0.0
H338 H 0.28951 0.66873 0.4999 0.0
H339 H 0.17183 0.26319 0.50695 0.0
Zn340 Zn 0.09371 0.44704 0.70414 0.0
C341 C 0.0362 0.39763 0.73755 0.0
N342 N 0.02876 0.40072 0.71051 0.0
C343 C 0.04578 0.42129 0.69513 0.0
N344 N 0.06309 0.43455 0.71273 0.0
N345 N 0.05647 0.42554 0.73949 0.0
C346 C 0.09277 0.43223 0.8201 0.0
O347 O 0.10847 0.46892 0.80997 0.0
O348 O 0.0934 0.4914 0.66729 0.0
Zn349 Zn 0.06757 0.48281 0.77278 0.0
N350 N 0.10813 0.36443 0.70468 0.0
C351 C 0.11956 0.27219 0.73111 0.0
C352 C 0.10882 0.33154 0.72982 0.0
C353 C 0.11765 0.34037 0.68076 0.0
N354 N 0.12939 0.24842 0.70724 0.0
C355 C 0.12844 0.28084 0.682 0.0
O356 O 0.09569 0.54591 0.76636 0.0
C357 C 0.11189 0.54839 0.74876 0.0
O358 O 0.11208 0.51129 0.72712 0.0
H359 H 0.10129 0.35172 0.74875 0.0
H360 H 0.1173 0.36817 0.66116 0.0
C361 C 0.04103 0.55424 0.81693 0.0
C362 C 1.02192 0.58697 0.82689 0.0
C363 C 1.00722 0.58024 0.77983 0.0
C364 C 1.02604 0.54877 0.77019 0.0
N365 N 0.0426 0.53543 0.78871 0.0
N366 N 1.00557 0.59816 0.8077 0.0
H367 H 0.05418 0.5425 0.83158 0.0
C368 C 0.08434 0.54526 0.67263 0.0
O369 O 0.07637 0.55635 0.69827 0.0
O370 O 0.07503 0.42635 0.80607 0.0
H371 H 0.02729 0.53412 0.74805 0.0
H372 H 0.12036 0.24571 0.75102 0.0
H373 H 0.9939 0.59021 0.76518 0.0
Zn374 Zn 0.23161 0.79781 0.77498 0.0
C375 C 0.25316 0.86974 0.69803 0.0
N376 N 0.27004 0.89113 0.71351 0.0
C377 C 0.26299 0.88946 0.74079 0.0
N378 N 0.24315 0.85838 0.74249 0.0
N379 N 0.2364 0.85143 0.7156 0.0
C380 C 0.21534 0.73872 0.675 0.0
O381 O 0.22291 0.72751 0.70085 0.0
O382 O 0.22386 0.84702 0.81068 0.0
Zn383 Zn 0.20587 0.83776 0.70581 0.0
N384 N 0.25527 0.737 0.78916 0.0
C385 C 0.27709 0.64534 0.7776 0.0
C386 C 0.26294 0.69487 0.76936 0.0
C387 C 0.26189 0.73164 0.81734 0.0
N388 N 0.28285 0.63868 0.80555 0.0
C389 C 0.2758 0.68021 0.82611 0.0
O390 O 0.18668 0.77399 0.72767 0.0
C391 C 0.18659 0.73681 0.74924 0.0
O392 O 0.20268 0.7388 0.76699 0.0
H393 H 0.25761 0.69876 0.74734 0.0
H394 H 0.25577 0.76501 0.83305 0.0
C395 C 0.18462 0.94494 0.67939 0.0
C396 C 0.17172 1.00108 0.67909 0.0
C397 C 0.1723 1.0024 0.72986 0.0
C398 C 0.18458 0.94576 0.72998 0.0
N399 N 0.19058 0.91855 0.70475 0.0
N400 N 0.16596 0.02833 0.7045 0.0
H401 H 0.18882 0.92001 0.65982 0.0
C402 C 0.21532 0.81053 0.82959 0.0
O403 O 0.21018 0.75123 0.8226 0.0
O404 O 0.207 0.79328 0.66917 0.0
H405 H 0.18928 0.9234 0.74998 0.0
H406 H 0.28305 0.61129 0.76192 0.0
H407 H 0.16749 0.02489 0.74976 0.0
Zn408 Zn 0.98671 0.23807 0.52182 0.0
C409 C 1.00885 0.16893 0.44466 0.0
N410 N 1.02528 0.14736 0.461 0.0
C411 C 1.01718 0.14592 0.48771 0.0
N412 N 0.99746 0.17743 0.48869 0.0
N413 N 0.99133 0.18571 0.46163 0.0
C414 C 0.9693 0.29582 0.42015 0.0
O415 O 0.97963 0.30705 0.44431 0.0
O416 O 0.97947 0.18312 0.55551 0.0
Zn417 Zn 0.96034 0.2032 0.4544 0.0
N418 N 1.0122 0.28959 0.53731 0.0
C419 C 0.04802 0.33102 0.52814 0.0
C420 C 0.02893 0.30048 0.51875 0.0
C421 C 1.01391 0.30983 0.56533 0.0
N422 N 0.04978 0.35038 0.55581 0.0
C423 C 0.03332 0.3416 0.57506 0.0
O424 O 0.94394 0.27259 0.47611 0.0
C425 C 0.94327 0.30888 0.49787 0.0
O426 O 0.95856 0.30369 0.51673 0.0
H427 H 0.02759 0.28456 0.49679 0.0
H428 H 1.00063 0.29988 0.58004 0.0
C429 C 0.93077 0.10221 0.43882 0.0
C430 C 0.91718 0.04908 0.44393 0.0
C431 C 0.92728 0.05088 0.49277 0.0
C432 C 0.94109 0.10329 0.48746 0.0
N433 N 0.94283 0.12712 0.46044 0.0
N434 N 0.91555 0.02488 0.47088 0.0
H435 H 0.93114 0.12508 0.41804 0.0
C436 C 0.96105 0.18302 0.56817 0.0
O437 O 0.94429 0.21286 0.55653 0.0
O438 O 0.95915 0.24289 0.41667 0.0
H439 H 0.95031 0.12505 0.50472 0.0
H440 H 0.06146 0.33907 0.51346 0.0
H441 H 0.92581 0.03131 0.51413 0.0
Zn442 Zn 0.82046 0.54839 0.52339 0.0
C443 C 0.79873 0.62222 0.44723 0.0
N444 N 0.78202 0.64487 0.46254 0.0
C445 C 0.78893 0.64243 0.48991 0.0
N446 N 0.80868 0.61058 0.4917 0.0
N447 N 0.81533 0.60338 0.46486 0.0
C448 C 0.83432 0.48834 0.42598 0.0
O449 O 0.82841 0.47756 0.45258 0.0
O450 O 0.82973 0.59954 0.55738 0.0
Zn451 Zn 0.84551 0.59107 0.45454 0.0
N452 N 0.79547 0.49395 0.53959 0.0
C453 C 0.76051 0.44794 0.52891 0.0
C454 C 0.77952 0.47996 0.52024 0.0
C455 C 0.79294 0.4752 0.56782 0.0
N456 N 0.75789 0.43071 0.55674 0.0
C457 C 0.77347 0.44281 0.57687 0.0
O458 O 0.86636 0.53314 0.47752 0.0
C459 C 0.86619 0.49176 0.49766 0.0
O460 O 0.84929 0.48797 0.51418 0.0
H461 H 0.78142 0.49469 0.49819 0.0
H462 H 0.80542 0.48674 0.58339 0.0
C463 C 0.86235 0.69392 0.42118 0.0
C464 C 0.8715 0.75509 0.41632 0.0
C465 C 0.87127 0.77424 0.46639 0.0
C466 C 0.86271 0.71283 0.47104 0.0
N467 N 0.85831 0.67428 0.44832 0.0
N468 N 0.87567 0.79369 0.43924 0.0
H469 H 0.85925 0.66078 0.4038 0.0
C470 C 0.84065 0.56839 0.57601 0.0
O471 O 0.84709 0.50958 0.57006 0.0
O472 O 0.84312 0.54175 0.4194 0.0
H473 H 0.85966 0.69571 0.49251 0.0
H474 H 0.74773 0.43734 0.51352 0.0
H475 H 0.87485 0.80571 0.48423 0.0
Zn476 Zn 0.95549 0.58461 0.30044 0.0
C477 C 1.01408 0.63199 0.26817 0.0
N478 N 1.02157 0.62985 0.29517 0.0
C479 C 1.00442 0.61125 0.31096 0.0
N480 N 0.98695 0.59708 0.29349 0.0
N481 N 0.99381 0.60365 0.26664 0.0
C482 C 0.96067 0.57622 0.18271 0.0
O483 O 0.95082 0.52116 0.1875 0.0
O484 O 0.954 0.54596 0.33848 0.0
Zn485 Zn 0.98267 0.54262 0.23408 0.0
N486 N 0.93961 0.66402 0.29464 0.0
C487 C 0.92821 0.74846 0.26338 0.0
C488 C 0.94029 0.69234 0.26841 0.0
C489 C 0.92665 0.688 0.3156 0.0
N490 N 0.91569 0.77357 0.28469 0.0
C491 C 0.91472 0.74456 0.31072 0.0
O492 O 0.9543 0.47974 0.24081 0.0
C493 C 0.93802 0.47808 0.25825 0.0
O494 O 0.93777 0.51667 0.27925 0.0
H495 H 0.95018 0.67148 0.25157 0.0
H496 H 0.9254 0.66272 0.33578 0.0
C497 C 1.01192 0.47397 0.19067 0.0
C498 C 0.02841 0.42806 0.18323 0.0
C499 C 0.03483 0.41099 0.2329 0.0
C500 C 1.01855 0.45536 0.24002 0.0
N501 N 1.00715 0.48597 0.21909 0.0
N502 N 0.03919 0.39815 0.20499 0.0
H503 H 1.00263 0.498 0.17408 0.0
C504 C 0.96345 0.49201 0.33496 0.0
O505 O 0.97216 0.47753 0.31007 0.0
O506 O 0.97457 0.59724 0.20071 0.0
H507 H 1.01472 0.46471 0.26224 0.0
H508 H 0.92878 0.77177 0.24269 0.0
H509 H 0.04382 0.38621 0.24955 0.0
Zn510 Zn 0.84142 0.20031 0.30626 0.0
C511 C 0.78541 0.14204 0.27187 0.0
N512 N 0.7784 0.14192 0.29922 0.0
C513 C 0.79482 0.16806 0.31403 0.0
N514 N 0.81131 0.18606 0.29615 0.0
N515 N 0.80479 0.17549 0.2695 0.0
C516 C 0.8418 0.16502 0.1931 0.0
O517 O 0.85917 0.18621 0.20679 0.0
O518 O 0.83943 0.24359 0.34283 0.0
Zn519 Zn 0.81651 0.23201 0.23604 0.0
N520 N 0.856 0.11894 0.30988 0.0
C521 C 0.87318 0.0276 0.28906 0.0
C522 C 0.86222 0.08619 0.28611 0.0
C523 C 0.86047 0.09629 0.33644 0.0
N524 N 0.87796 1.00523 0.31565 0.0
C525 C 0.8718 0.03785 0.33961 0.0
O526 O 0.84597 0.29077 0.24182 0.0
C527 C 0.86145 0.29561 0.26048 0.0
O528 O 0.86043 0.26244 0.28332 0.0
H529 H 0.85888 0.10588 0.26513 0.0
H530 H 0.8563 0.1257 0.35472 0.0
C531 C 0.79066 0.30672 0.19144 0.0
C532 C 0.77208 0.34283 0.18197 0.0
C533 C 0.75889 0.34271 0.22991 0.0
C534 C 0.77697 0.3069 0.23896 0.0
N535 N 0.79254 0.28879 0.21982 0.0
N536 N 0.75682 0.35924 0.20192 0.0
H537 H 0.80304 0.29165 0.17625 0.0
C538 C 0.82985 0.29688 0.33859 0.0
O539 O 0.82329 0.31218 0.31266 0.0
O540 O 0.82285 0.17464 0.20339 0.0
H541 H 0.77848 0.29281 0.26115 0.0
H542 H 0.87835 1.00091 0.27038 0.0
H543 H 0.74639 0.35682 0.2451 0.0
Zn544 Zn 0.59177 0.32924 0.54907 0.0
C545 C 0.53691 0.3834 0.51138 0.0
N546 N 0.52902 0.38617 0.53829 0.0
C547 C 0.54504 0.36226 0.55455 0.0
N548 N 0.56199 0.34205 0.53783 0.0
N549 N 0.55635 0.35023 0.51068 0.0
C550 C 0.58977 0.31835 0.4267 0.0
O551 O 0.59548 0.25802 0.43057 0.0
O552 O 0.58896 0.28366 0.58505 0.0
Zn553 Zn 0.56921 0.29157 0.47867 0.0
N554 N 0.60525 0.41117 0.55536 0.0
C555 C 0.62983 0.49548 0.54337 0.0
C556 C 0.61713 0.44265 0.53518 0.0
C557 C 0.60457 0.43198 0.58274 0.0
N558 N 0.63138 0.51077 0.57161 0.0
C559 C 0.61947 0.47901 0.59189 0.0
O560 O 0.59831 0.23357 0.48742 0.0
C561 C 0.61392 0.23216 0.50595 0.0
O562 O 0.61278 0.26852 0.52781 0.0
H563 H 0.61722 0.42573 0.51329 0.0
H564 H 0.59357 0.40821 0.59737 0.0
C565 C 0.54146 0.22141 0.43397 0.0
C566 C 0.52631 0.17246 0.42569 0.0
C567 C 0.52058 0.14898 0.47495 0.0
C568 C 0.53565 0.19627 0.4829 0.0
N569 N 0.54608 0.23156 0.46257 0.0
N570 N 0.51647 0.13788 0.44682 0.0
H571 H 0.54987 0.24921 0.41778 0.0
C572 C 0.58088 0.22851 0.58025 0.0
O573 O 0.57551 0.21218 0.554 0.0
O574 O 0.57823 0.34609 0.4457 0.0
H575 H 0.53936 0.20418 0.50527 0.0
H576 H 0.63948 0.52138 0.52773 0.0
H577 H 0.51239 0.12048 0.49112 0.0
Zn578 Zn 0.73679 0.98834 0.48686 0.0
C579 C 0.75604 0.92611 0.56654 0.0
N580 N 0.77336 0.90227 0.55281 0.0
C581 C 0.76765 0.90272 0.525 0.0
N582 N 0.748 0.93401 0.52131 0.0
N583 N 0.74019 0.94364 0.54747 0.0
C584 C 0.71412 0.05453 0.58441 0.0
O585 O 0.72287 0.06598 0.55924 0.0
O586 O 0.73238 0.92987 0.45364 0.0
Zn587 Zn 0.70913 0.95234 0.5539 0.0
N588 N 0.76071 0.0464 0.47208 0.0
C589 C 0.79332 0.10535 0.48267 0.0
C590 C 0.77577 0.06688 0.49148 0.0
C591 C 0.76272 0.06375 0.44373 0.0
N592 N 0.79542 0.12172 0.45464 0.0
C593 C 0.78074 0.10204 0.43456 0.0
O594 O 0.69011 1.01224 0.52957 0.0
C595 C 0.69031 0.04836 0.50762 0.0
O596 O 0.70702 0.04692 0.49075 0.0
H597 H 0.7742 0.05312 0.51371 0.0
H598 H 0.75049 0.04825 0.42849 0.0
C599 C 0.68825 0.84335 0.57869 0.0
C600 C 0.67825 0.78254 0.57846 0.0
C601 C 0.68623 0.7727 0.52905 0.0
C602 C 0.69585 0.83371 0.5293 0.0
N603 N 0.69651 0.86779 0.5541 0.0
N604 N 0.67734 0.74882 0.55352 0.0
H605 H 0.68869 0.8723 0.59795 0.0
C606 C 0.71433 0.92251 0.44053 0.0
O607 O 0.69618 0.94541 0.45167 0.0
O608 O 0.70703 0.99837 0.59017 0.0
H609 H 0.70254 0.85417 0.50989 0.0
H610 H 0.80536 0.12171 0.49805 0.0
H611 H 0.68545 0.74509 0.50946 0.0
Zn612 Zn 0.59502 0.94653 0.70201 0.0
C613 C 0.53825 0.90061 0.73848 0.0
N614 N 0.52983 0.90314 0.71189 0.0
C615 C 0.54651 0.92197 0.69533 0.0
N616 N 0.56437 0.93592 0.71192 0.0
N617 N 0.55841 0.92939 0.73906 0.0
C618 C 0.57955 0.88481 0.80951 0.0
O619 O 0.57576 0.8439 0.78873 0.0
O620 O 0.59375 0.98709 0.66444 0.0
Zn621 Zn 0.56968 0.99279 0.77041 0.0
N622 N 0.60883 0.8632 0.70254 0.0
C623 C 0.62009 0.77089 0.72902 0.0
C624 C 0.60954 0.83049 0.7277 0.0
C625 C 0.61821 0.83887 0.67861 0.0
N626 N 0.6299 0.747 0.70517 0.0
C627 C 0.62897 0.77932 0.67989 0.0
O628 O 0.59932 0.04878 0.76308 0.0
C629 C 0.61545 0.04844 0.74529 0.0
O630 O 0.61478 1.0108 0.72378 0.0
H631 H 0.60223 0.85116 0.7466 0.0
H632 H 0.61797 0.86678 0.65903 0.0
C633 C 0.54036 0.0606 0.81369 0.0
C634 C 0.52408 0.10672 0.82183 0.0
C635 C 0.51932 0.13181 0.77246 0.0
C636 C 0.53523 0.08677 0.76472 0.0
N637 N 0.5457 0.05199 0.78518 0.0
N638 N 0.51429 0.1409 0.8005 0.0
H639 H 0.54906 0.03349 0.82988 0.0
C640 C 0.58417 0.04025 0.66937 0.0
O641 O 0.5777 0.05365 0.69551 0.0
O642 O 0.5777 0.94455 0.80501 0.0
H643 H 0.53949 0.08009 0.74245 0.0
H644 H 0.62089 0.74453 0.74896 0.0
H645 H 0.5111 0.15995 0.75619 0.0
Zn646 Zn 0.73681 0.29525 0.77389 0.0
C647 C 0.75863 0.36507 0.6972 0.0
N648 N 0.77568 0.3849 0.71287 0.0
C649 C 0.76809 0.38726 0.73988 0.0
N650 N 0.74808 0.35725 0.74153 0.0
N651 N 0.74136 0.35004 0.71472 0.0
C652 C 0.71813 0.24995 0.67023 0.0
O653 O 0.72752 0.23264 0.69435 0.0
O654 O 0.72637 0.34868 0.80672 0.0
Zn655 Zn 0.71033 0.33755 0.70741 0.0
N656 N 0.76213 0.2436 0.79051 0.0
C657 C 0.79678 0.19626 0.77953 0.0
C658 C 0.77787 0.22886 0.77102 0.0
C659 C 0.76473 0.22525 0.81875 0.0
N660 N 0.79947 0.17914 0.80735 0.0
C661 C 0.78411 0.19212 0.82766 0.0
O662 O 0.69287 0.26659 0.72706 0.0
C663 C 0.69311 0.22751 0.7479 0.0
O664 O 0.7091 0.22997 0.76588 0.0
H665 H 0.7758 0.24297 0.74891 0.0
H666 H 0.7523 0.23743 0.83431 0.0
C667 C 0.68068 0.43439 0.69265 0.0
C668 C 0.66528 0.48319 0.69733 0.0
C669 C 0.6785 0.49549 0.74455 0.0
C670 C 0.69297 0.44402 0.74025 0.0
N671 N 0.69398 0.41537 0.71412 0.0
N672 N 0.6646 0.51322 0.72314 0.0
H673 H 0.68092 0.40796 0.67269 0.0
C674 C 0.7148 0.32 0.82544 0.0
O675 O 0.70964 0.25933 0.8214 0.0
O676 O 0.70894 0.30467 0.66828 0.0
H677 H 0.70316 0.42675 0.7576 0.0
H678 H 0.80938 0.18488 0.76404 0.0
H679 H 0.67772 0.51934 0.76509 0.0
Zn680 Zn 0.48618 0.74042 0.52011 0.0
C681 C 0.50579 0.67201 0.44213 0.0
N682 N 0.52303 0.64941 0.45657 0.0
C683 C 0.51642 0.64752 0.48405 0.0
N684 N 0.49667 0.67883 0.48703 0.0
N685 N 0.48934 0.68798 0.46059 0.0
C686 C 0.46641 0.79464 0.41918 0.0
O687 O 0.47525 0.80762 0.44416 0.0
O688 O 0.4771 0.68983 0.55402 0.0
Zn689 Zn 0.45842 0.70047 0.45314 0.0
N690 N 0.51164 0.79139 0.53652 0.0
C691 C 0.54764 0.83221 0.52806 0.0
C692 C 0.52854 0.80238 0.51825 0.0
C693 C 0.51323 0.81073 0.56473 0.0
N694 N 0.54928 0.85063 0.55587 0.0
C695 C 0.53269 0.84166 0.57493 0.0
O696 O 0.44079 0.76678 0.47555 0.0
C697 C 0.44123 0.80524 0.49665 0.0
O698 O 0.45775 0.80395 0.51389 0.0
H699 H 0.52734 0.787 0.4962 0.0
H700 H 0.49985 0.80057 0.57923 0.0
C701 C 0.43619 0.58976 0.43199 0.0
C702 C 0.42293 0.5348 0.43436 0.0
C703 C 0.42521 0.54167 0.48489 0.0
C704 C 0.43795 0.59724 0.48241 0.0
N705 N 0.44313 0.62003 0.456 0.0
N706 N 0.4176 0.51246 0.46084 0.0
H707 H 0.43979 0.61095 0.41134 0.0
C708 C 0.47513 0.62988 0.55798 0.0
O709 O 0.47869 0.59004 0.53674 0.0
O710 O 0.45745 0.7401 0.41516 0.0
H711 H 0.44344 0.62262 0.5013 0.0
H712 H 0.56121 0.84038 0.5136 0.0
H713 H 0.42087 0.52302 0.50575 0.0
Zn714 Zn 0.31813 0.03833 0.52397 0.0
C715 C 0.29436 0.11032 0.44935 0.0
N716 N 0.27745 0.12771 0.46585 0.0
C717 C 0.28564 0.12925 0.4926 0.0
N718 N 0.30594 0.10124 0.49314 0.0
N719 N 0.3121 0.09611 0.46604 0.0
C720 C 0.33557 0.99456 0.42221 0.0
O721 O 0.32816 0.97719 0.44746 0.0
O722 O 0.32756 0.08781 0.5581 0.0
Zn723 Zn 0.34278 0.09012 0.45684 0.0
N724 N 0.2942 0.9799 0.53976 0.0
C725 C 0.26903 0.8959 0.52818 0.0
C726 C 0.28458 0.94154 0.51987 0.0
C727 C 0.28826 0.97437 0.56822 0.0
N728 N 0.26359 0.88958 0.55623 0.0
C729 C 0.27252 0.92735 0.57699 0.0
O730 O 0.36314 0.02706 0.47766 0.0
C731 C 0.3636 0.9849 0.49739 0.0
O732 O 0.34712 0.9801 0.51444 0.0
H733 H 0.28928 0.94578 0.49763 0.0
H734 H 0.29609 1.00447 0.58402 0.0
C735 C 0.36858 0.19015 0.43567 0.0
C736 C 0.38218 0.24443 0.43709 0.0
C737 C 0.36726 0.2698 0.48238 0.0
C738 C 0.35508 0.21263 0.48182 0.0
N739 N 0.35596 0.17425 0.45828 0.0
N740 N 0.38099 0.28379 0.46027 0.0
H741 H 0.36933 0.15765 0.41758 0.0
C742 C 0.33712 0.05318 0.57678 0.0
O743 O 0.34122 0.99256 0.57089 0.0
O744 O 0.34326 0.05087 0.4188 0.0
H745 H 0.34544 0.19828 0.50016 0.0
H746 H 0.26149 0.86494 0.51237 0.0
H747 H 0.3666 0.30112 0.50084 0.0
Zn748 Zn 0.46192 0.08326 0.29651 0.0
C749 C 0.51894 0.13067 0.26333 0.0
N750 N 0.52616 0.12753 0.29058 0.0
C751 C 0.50911 0.10594 0.30552 0.0
N752 N 0.4922 0.09174 0.28761 0.0
N753 N 0.49884 0.10114 0.26095 0.0
C754 C 0.46175 0.11141 0.18617 0.0
O755 O 0.44495 0.10919 0.20371 0.0
O756 O 0.4621 0.03981 0.33343 0.0
Zn757 Zn 0.48733 0.03925 0.22899 0.0
N758 N 0.44864 0.16632 0.29995 0.0
C759 C 0.42404 0.24777 0.28464 0.0
C760 C 0.43748 0.19524 0.27836 0.0
C761 C 0.44793 0.18947 0.32694 0.0
N762 N 0.421 0.26501 0.31244 0.0
C763 C 0.43216 0.23576 0.33415 0.0
O764 O 0.45804 0.97963 0.23653 0.0
C765 C 0.44163 0.98195 0.25393 0.0
O766 O 0.44195 0.02234 0.27436 0.0
H767 H 0.4384 0.17628 0.25684 0.0
H768 H 0.45846 0.16765 0.34273 0.0
C769 C 0.51402 0.96386 0.18644 0.0
C770 C 0.53323 0.93109 0.17709 0.0
C771 C 0.54655 0.93481 0.22494 0.0
C772 C 0.52783 0.96803 0.23381 0.0
N773 N 0.51191 0.98286 0.21457 0.0
N774 N 0.5489 0.91795 0.19701 0.0
H775 H 0.50135 0.97586 0.1713 0.0
C776 C 0.46919 0.98306 0.32971 0.0
O777 O 0.47587 0.96501 0.30422 0.0
O778 O 0.48027 0.0897 0.19388 0.0
H779 H 0.52619 0.98305 0.25586 0.0
H780 H 0.41491 0.27161 0.26785 0.0
H781 H 0.55935 0.92342 0.24016 0.0
Zn782 Zn 0.3458 0.69965 0.30388 0.0
C783 C 0.28837 0.64861 0.27164 0.0
N784 N 0.28218 0.64375 0.29919 0.0
C785 C 0.29908 0.66684 0.31414 0.0
N786 N 0.31505 0.68835 0.29601 0.0
N787 N 0.30776 0.68165 0.26937 0.0
C788 C 0.34339 0.67819 0.1893 0.0
O789 O 0.36045 0.70712 0.20063 0.0
O790 O 0.34637 0.74512 0.3405 0.0
Zn791 Zn 0.31924 0.73747 0.23546 0.0
N792 N 0.35914 0.61598 0.30475 0.0
C793 C 0.37103 0.52176 0.28027 0.0
C794 C 0.3609 0.58205 0.28 0.0
C795 C 0.36678 0.59199 0.32978 0.0
N796 N 0.3793 0.4984 0.30522 0.0
C797 C 0.37728 0.5319 0.33009 0.0
O798 O 0.34869 0.7966 0.24084 0.0
C799 C 0.36509 0.79759 0.25821 0.0
O800 O 0.36488 0.76083 0.27999 0.0
H801 H 0.35463 0.60202 0.26023 0.0
H802 H 0.36544 0.62076 0.34901 0.0
C803 C 0.29087 0.80826 0.19197 0.0
C804 C 0.27436 0.8539 0.1842 0.0
C805 C 0.26742 0.87073 0.23379 0.0
C806 C 0.28372 0.82665 0.2412 0.0
N807 N 0.29535 0.7962 0.22047 0.0
N808 N 0.26328 0.88345 0.20579 0.0
H809 H 0.30035 0.78421 0.17559 0.0
C810 C 0.33854 0.80054 0.33506 0.0
O811 O 0.33061 0.81264 0.30948 0.0
O812 O 0.32504 0.6802 0.20213 0.0
H813 H 0.28729 0.8171 0.26349 0.0
H814 H 0.37266 0.49429 0.26073 0.0
H815 H 0.2582 0.89526 0.25027 0.0
Zn816 Zn 0.56965 0.7943 0.97981 0.0
C817 C 0.54831 0.86696 0.05543 0.0
N818 N 0.53125 0.88664 0.03979 0.0
C819 C 0.53887 0.88943 0.0128 0.0
N820 N 0.5591 0.86039 0.01115 0.0
N821 N 0.56575 0.85313 0.03805 0.0
C822 C 0.58348 0.74577 0.08136 0.0
O823 O 0.57587 0.73381 0.0556 0.0
O824 O 0.57996 0.84222 0.94523 0.0
Zn825 Zn 0.59639 0.83511 0.04743 0.0
N826 N 0.54385 0.74315 0.96367 0.0
C827 C 0.50811 0.70169 0.97359 0.0
C828 C 0.52737 0.73205 0.98259 0.0
C829 C 0.5416 0.72307 0.93558 0.0
N830 N 0.50583 0.68316 0.94586 0.0
C831 C 0.52196 0.69239 0.92618 0.0
O832 O 0.61366 0.7648 0.02735 0.0
C833 C 0.61326 0.72603 0.00642 0.0
O834 O 0.59716 0.72875 0.98865 0.0
H835 H 0.52905 0.74758 0.00456 0.0
H836 H 0.55447 0.73218 0.92031 0.0
C837 C 0.62673 0.93398 0.06462 0.0
C838 C 0.64089 0.98604 0.05981 0.0
C839 C 0.63038 0.98783 0.01114 0.0
C840 C 0.61614 0.93625 0.01605 0.0
N841 N 0.61433 0.91108 0.04282 0.0
N842 N 0.64255 1.01152 0.03311 0.0
H843 H 0.62607 0.91056 0.0853 0.0
C844 C 0.5901 0.80719 0.92721 0.0
O845 O 0.59548 0.74832 0.93443 0.0
O846 O 0.59459 0.79681 0.08572 0.0
H847 H 0.60676 0.91583 0.99862 0.0
H848 H 0.49492 0.69335 0.98861 0.0
H849 H 0.63191 1.00837 0.98996 0.0
Zn850 Zn 0.73574 0.48389 0.98359 0.0
C851 C 0.75754 0.41679 0.06081 0.0
N852 N 0.77468 0.39806 0.04505 0.0
C853 C 0.76703 0.3948 0.01811 0.0
N854 N 0.74683 0.42342 0.01648 0.0
N855 N 0.74005 0.43056 0.04331 0.0
C856 C 0.71677 0.53295 0.08618 0.0
O857 O 0.7254 0.54944 0.06147 0.0
O858 O 0.72949 0.43106 0.94917 0.0
Zn859 Zn 0.70868 0.44234 0.05036 0.0
N860 N 0.75967 0.54362 0.96951 0.0
C861 C 0.78542 0.62512 0.98234 0.0
C862 C 0.76989 0.57883 0.99004 0.0
C863 C 0.76488 0.55301 0.94107 0.0
N864 N 0.79023 0.63513 0.95429 0.0
C865 C 0.78064 0.60054 0.93295 0.0
O866 O 0.69105 0.50992 0.02893 0.0
C867 C 0.69049 0.54593 0.00702 0.0
O868 O 0.70626 0.54277 0.98879 0.0
H869 H 0.76569 0.57165 0.0123 0.0
H870 H 0.75645 0.52535 0.92494 0.0
C871 C 0.67938 0.34176 0.06586 0.0
C872 C 0.66738 0.285 0.06203 0.0
C873 C 0.68179 0.27478 0.01534 0.0
C874 C 0.69395 0.33123 0.01937 0.0
N875 N 0.69286 0.36272 0.04483 0.0
N876 N 0.66875 0.25267 0.03684 0.0
H877 H 0.67787 0.36953 0.08533 0.0
C878 C 0.71041 0.41774 0.94013 0.0
O879 O 0.69306 0.43211 0.95546 0.0
O880 O 0.70713 0.47908 0.08875 0.0
H881 H 0.7043 0.34962 1.0024 0.0
H882 H 0.79345 0.65363 0.99864 0.0
H883 H 0.6827 0.2489 0.99533 0.0
Zn884 Zn 0.59153 0.45808 0.20064 0.0
C885 C 0.53539 0.40062 0.23693 0.0
N886 N 0.52719 0.40429 0.21024 0.0
C887 C 0.54362 0.42687 0.19427 0.0
N888 N 0.56125 0.44125 0.21118 0.0
N889 N 0.55535 0.43122 0.23817 0.0
C890 C 0.59173 0.41883 0.31233 0.0
O891 O 0.60857 0.42461 0.29504 0.0
O892 O 0.58863 0.50311 0.16465 0.0
Zn893 Zn 0.56671 0.49146 0.27064 0.0
N894 N 0.60737 0.37819 0.19687 0.0
C895 C 0.62248 0.2838 0.21782 0.0
C896 C 0.61188 0.34297 0.22061 0.0
C897 C 0.61389 0.35822 0.17061 0.0
N898 N 0.62817 0.26246 0.19138 0.0
C899 C 0.62406 0.29786 0.16744 0.0
O900 O 0.59643 0.54906 0.26475 0.0
C901 C 0.61178 0.55438 0.24597 0.0
O902 O 0.61064 0.52133 0.22313 0.0
H903 H 0.6073 0.36095 0.24144 0.0
H904 H 0.61117 0.38975 0.15255 0.0
C905 C 0.53767 0.56094 0.31325 0.0
C906 C 0.52241 0.60974 0.32126 0.0
C907 C 0.5179 0.6348 0.27189 0.0
C908 C 0.53316 0.58772 0.26427 0.0
N909 N 0.54303 0.55174 0.28483 0.0
N910 N 0.51312 0.64505 0.29992 0.0
H911 H 0.54561 0.53233 0.32951 0.0
C912 C 0.5794 0.55662 0.1698 0.0
O913 O 0.5736 0.57125 0.19608 0.0
O914 O 0.57297 0.43908 0.30492 0.0
H915 H 0.53742 0.58054 0.24203 0.0
H916 H 0.62624 0.25507 0.2365 0.0
H917 H 0.51013 0.66387 0.25556 0.0
Zn918 Zn 0.73485 0.79262 0.27237 0.0
C919 C 0.75764 0.85837 0.19453 0.0
N920 N 0.77422 0.88183 0.20986 0.0
C921 C 0.76727 0.87972 0.23718 0.0
N922 N 0.74765 0.84754 0.23905 0.0
N923 N 0.74109 0.83904 0.21222 0.0
C924 C 0.71736 0.72473 0.17393 0.0
O925 O 0.72416 0.71222 0.20002 0.0
O926 O 0.72732 0.85023 0.30501 0.0
Zn927 Zn 0.71058 0.83036 0.20284 0.0
N928 N 0.75807 0.73353 0.28911 0.0
C929 C 0.78321 0.64936 0.27778 0.0
C930 C 0.76785 0.69535 0.26931 0.0
C931 C 0.76358 0.72748 0.3177 0.0
N932 N 0.78833 0.6426 0.30591 0.0
C933 C 0.77923 0.6802 0.32658 0.0
O934 O 0.68927 0.77435 0.2261 0.0
C935 C 0.68885 0.7362 0.24744 0.0
O936 O 0.70534 0.73474 0.26469 0.0
H937 H 0.76346 0.70009 0.24697 0.0
H938 H 0.75551 0.75738 0.33344 0.0
C939 C 0.6939 0.93248 0.16996 0.0
C940 C 0.68628 0.9949 0.16449 0.0
C941 C 0.68995 0.01974 0.21378 0.0
C942 C 0.69753 0.95741 0.21906 0.0
N943 N 0.69921 0.91516 0.197 0.0
N944 N 0.68422 0.03686 0.18671 0.0
H945 H 0.695 0.897 0.15308 0.0
C946 C 0.71416 0.82899 0.32389 0.0
O947 O 0.70397 0.77424 0.31951 0.0
O948 O 0.71086 0.78106 0.16771 0.0
H949 H 0.70199 0.94265 0.24048 0.0
H950 H 0.79088 0.61856 0.26204 0.0
H951 H 0.68837 0.05396 0.2311 0.0
Zn952 Zn 0.45832 0.20167 0.95161 0.0
C953 C 0.51546 0.15213 0.98479 0.0
N954 N 0.52222 0.14973 0.9574 0.0
C955 C 0.5054 0.17223 0.94213 0.0
N956 N 0.48898 0.1918 0.95997 0.0
N957 N 0.49576 0.18392 0.98675 0.0
C958 C 0.46204 0.21312 0.07133 0.0
O959 O 0.455 0.27221 0.06744 0.0
O960 O 0.45775 0.24653 0.91474 0.0
Zn961 Zn 0.48392 0.24288 0.01959 0.0
N962 N 0.44566 0.11726 0.95146 0.0
C963 C 0.43464 0.02362 0.97709 0.0
C964 C 0.44422 0.08468 0.97661 0.0
C965 C 0.4383 0.09118 0.92672 0.0
N966 N 0.42655 0.99824 0.95245 0.0
C967 C 0.4284 0.03027 0.92717 0.0
O968 O 0.45565 0.30545 0.01165 0.0
C969 C 0.43882 0.30316 0.99501 0.0
O970 O 0.43851 0.26253 0.97464 0.0
H971 H 0.45035 0.10623 0.99612 0.0
H972 H 0.43931 0.11894 0.90714 0.0
C973 C 0.51038 0.31607 0.06452 0.0
C974 C 0.52965 0.34845 0.07428 0.0
C975 C 0.54438 0.33896 0.02735 0.0
C976 C 0.52547 0.30751 0.01794 0.0
N977 N 0.50878 0.29566 0.03647 0.0
N978 N 0.54606 0.3581 0.05504 0.0
H979 H 0.49721 0.30586 0.07934 0.0
C980 C 0.46509 0.30256 0.92022 0.0
O981 O 0.47299 0.31511 0.94576 0.0
O982 O 0.47425 0.18763 0.05237 0.0
H983 H 0.52424 0.29169 0.99598 0.0
H984 H 0.43323 0.99724 0.99696 0.0
H985 H 0.55777 0.34775 0.01266 0.0
Zn986 Zn 0.31788 0.54922 0.02287 0.0
C987 C 0.29437 0.6207 0.94699 0.0
N988 N 0.27882 0.6469 0.96329 0.0
C989 C 0.28683 0.64365 0.99012 0.0
N990 N 0.30587 0.60858 0.99073 0.0
N991 N 0.31119 0.59902 0.96358 0.0
C992 C 0.3304 0.48248 0.92168 0.0
O993 O 0.32461 0.46712 0.94789 0.0
O994 O 0.32557 0.60388 0.05651 0.0
Zn995 Zn 0.3408 0.58421 0.95249 0.0
N996 N 0.2931 0.49511 0.03841 0.0
C997 C 0.25803 0.44988 0.02788 0.0
C998 C 0.27707 0.48156 0.01913 0.0
C999 C 0.29077 0.47638 0.06658 0.0
N1000 N 0.25555 0.43256 0.05572 0.0
C1001 C 0.2713 0.44428 0.07568 0.0
O1002 O 0.36086 0.52327 0.97461 0.0
C1003 C 0.36202 0.48635 0.99626 0.0
O1004 O 0.34649 0.48762 0.01495 0.0
H1005 H 0.27889 0.49645 0.99708 0.0
H1006 H 0.30349 0.48798 0.08189 0.0
C1007 C 0.3543 0.68793 0.91958 0.0
C1008 C 0.36983 0.73331 0.91053 0.0
C1009 C 0.38202 0.74295 0.95871 0.0
C1010 C 0.36857 0.69157 0.96657 0.0
N1011 N 0.35534 0.66455 0.94655 0.0
N1012 N 0.38295 0.76088 0.93075 0.0
H1013 H 0.34244 0.66724 0.90515 0.0
C1014 C 0.3432 0.59674 0.07068 0.0
O1015 O 0.35862 0.55875 0.06079 0.0
O1016 O 0.33821 0.53786 0.91659 0.0
H1017 H 0.36904 0.67235 0.98808 0.0
H1018 H 0.24515 0.43964 0.01262 0.0
H1019 H 0.39268 0.76551 0.97427 0.0
Zn1020 Zn 0.45982 0.58738 0.79673 0.0
C1021 C 0.51749 0.63331 0.76299 0.0
N1022 N 0.52536 0.62969 0.7899 0.0
C1023 C 0.50824 0.61137 0.80581 0.0
N1024 N 0.49077 0.59753 0.78846 0.0
N1025 N 0.49731 0.60415 0.76152 0.0
C1026 C 0.46691 0.5509 0.67619 0.0
O1027 O 0.46256 0.49126 0.68352 0.0
O1028 O 0.45877 0.55281 0.83588 0.0
Zn1029 Zn 0.48546 0.54052 0.72977 0.0
N1030 N 0.44406 0.66639 0.79009 0.0
C1031 C 0.43144 0.75202 0.76031 0.0
C1032 C 0.44484 0.6981 0.76463 0.0
C1033 C 0.42982 0.68437 0.81066 0.0
N1034 N 0.41688 0.7696 0.78095 0.0
C1035 C 0.41567 0.73635 0.80595 0.0
O1036 O 0.45728 0.47827 0.73917 0.0
C1037 C 0.44145 0.47793 0.75732 0.0
O1038 O 0.44167 0.51842 0.77754 0.0
H1039 H 0.45574 0.68168 0.74789 0.0
H1040 H 0.42874 0.65595 0.83005 0.0
C1041 C 0.51478 0.47619 0.68542 0.0
C1042 C 0.52862 0.4252 0.67593 0.0
C1043 C 0.53217 0.3917 0.72444 0.0
C1044 C 0.51806 0.44062 0.73344 0.0
N1045 N 0.50927 0.48182 0.71402 0.0
N1046 N 0.53678 0.3846 0.69617 0.0
H1047 H 0.50784 0.50887 0.66996 0.0
C1048 C 0.46782 0.49787 0.83362 0.0
O1049 O 0.47679 0.48098 0.80919 0.0
O1050 O 0.47581 0.5882 0.6945 0.0
H1051 H 0.51359 0.44464 0.75577 0.0
H1052 H 0.43216 0.77841 0.74038 0.0
H1053 H 0.539 0.35836 0.73985 0.0
Zn1054 Zn 0.34513 0.19288 0.80274 0.0
C1055 C 0.28709 0.15132 0.76779 0.0
N1056 N 0.27941 0.15476 0.79471 0.0
C1057 C 0.29673 0.17163 0.81052 0.0
N1058 N 0.31438 0.18301 0.79328 0.0
N1059 N 0.30772 0.17703 0.76636 0.0
C1060 C 0.32959 0.13339 0.69444 0.0
O1061 O 0.32686 0.09015 0.71459 0.0
O1062 O 0.34447 0.23534 0.84012 0.0
Zn1063 Zn 0.31906 0.23997 0.73491 0.0
N1064 N 0.35903 0.10968 0.80242 0.0
C1065 C 0.3705 0.01715 0.7763 0.0
C1066 C 0.35968 0.07636 0.77743 0.0
C1067 C 0.36876 0.0864 0.82633 0.0
N1068 N 0.38059 0.99422 0.80015 0.0
C1069 C 0.37981 0.02727 0.82524 0.0
O1070 O 0.34845 0.29669 0.74226 0.0
C1071 C 0.36481 0.2954 0.75965 0.0
O1072 O 0.36456 0.25642 0.78066 0.0
H1073 H 0.35213 0.09628 0.7585 0.0
H1074 H 0.36854 0.11486 0.84574 0.0
C1075 C 0.29035 0.30947 0.69191 0.0
C1076 C 0.27489 0.35766 0.68373 0.0
C1077 C 0.2698 0.38203 0.73305 0.0
C1078 C 0.28514 0.33533 0.74088 0.0
N1079 N 0.29537 0.29995 0.72045 0.0
N1080 N 0.26523 0.39236 0.70496 0.0
H1081 H 0.29873 0.28168 0.67571 0.0
C1082 C 0.33514 0.28877 0.83479 0.0
O1083 O 0.32822 0.3007 0.8087 0.0
O1084 O 0.32689 0.19231 0.70005 0.0
H1085 H 0.28919 0.32798 0.76319 0.0
H1086 H 0.37123 0.99028 0.7565 0.0
H1087 H 0.26175 0.41065 0.74928 0.0
C1088 C 0.0445 0.5556 0.00596 0.0
C1089 C 1.02263 0.57679 1.00267 0.0
C1090 C 0.04989 0.48961 0.0076 0.0
C1091 C 0.03375 0.44114 0.00574 0.0
H1092 H 0.05769 0.59054 0.00638 0.0
H1093 H 0.06673 0.47663 0.01191 0.0
S1094 S 0.97433 0.46885 0.99521 0.0
N1095 N 0.98491 0.54205 0.99602 0.0
N1096 N 0.9951 0.41901 0.99975 0.0
C1097 C 1.01198 0.46143 1.00183 0.0
C1098 C 1.00641 0.52853 1.00036 0.0
C1099 C 0.26261 0.72719 0.01099 0.0
C1100 C 0.28411 0.70682 0.00472 0.0
C1101 C 0.25717 0.79291 0.01312 0.0
C1102 C 0.27272 0.84209 0.00821 0.0
H1103 H 0.24964 0.69186 0.01318 0.0
H1104 H 0.24076 0.80527 0.01991 0.0
S1105 S 0.33139 0.81564 0.99131 0.0
N1106 N 0.32117 0.74218 0.99373 0.0
N1107 N 0.31084 0.86519 0.99793 0.0
C1108 C 0.2943 0.82246 1.00224 0.0
C1109 C 0.29999 0.75543 1.00052 0.0
C1110 C 0.03975 0.71068 0.24523 0.0
C1111 C 1.01867 0.69731 0.25596 0.0
C1112 C 0.04767 0.77438 0.24289 0.0
C1113 C 0.03527 0.82816 0.25208 0.0
H1114 H 0.05046 0.67134 0.23921 0.0
H1115 H 0.06332 0.78172 0.23254 0.0
S1116 S 0.97986 0.82027 0.28412 0.0
N1117 N 0.98616 0.74431 0.2777 0.0
N1118 N 1.0009 0.8631 0.2726 0.0
C1119 C 1.01433 0.81554 0.26309 0.0
C1120 C 1.00614 0.75079 0.26525 0.0
C1121 C 0.29353 0.47278 0.254 0.0
C1122 C 0.27148 0.45303 0.251 0.0
C1123 C 0.29939 0.5383 0.25661 0.0
C1124 C 0.28354 0.58777 0.256 0.0
H1125 H 0.30648 0.4371 0.25354 0.0
H1126 H 0.3164 0.54998 0.2607 0.0
S1127 S 0.22373 0.56376 0.24688 0.0
N1128 N 0.2339 0.49011 0.24599 0.0
N1129 N 0.24487 0.6122 0.25175 0.0
C1130 C 0.26155 0.56888 0.25253 0.0
C1131 C 0.25554 0.50224 0.24998 0.0
C1132 C 0.79153 0.31339 0.99492 0.0
C1133 C 0.77102 0.32831 0.00692 0.0
C1134 C 0.79898 0.24922 0.99284 0.0
C1135 C 0.78662 0.19661 0.00344 0.0
H1136 H 0.80214 0.35182 0.98756 0.0
H1137 H 0.81407 0.24049 0.98137 0.0
S1138 S 0.73297 0.20905 0.03986 0.0
N1139 N 0.73938 0.28425 0.03198 0.0
N1140 N 0.75314 0.1645 0.0271 0.0
C1141 C 0.76633 0.21083 0.01593 0.0
C1142 C 0.75865 0.27604 0.01794 0.0
C1143 C 0.04285 0.22203 0.75734 0.0
C1144 C 1.02126 0.19753 0.75491 0.0
C1145 C 0.0475 0.2884 0.75526 0.0
C1146 C 0.03077 0.33396 0.75065 0.0
H1147 H 0.05622 0.1896 0.76243 0.0
H1148 H 0.06444 0.30369 0.75625 0.0
S1149 S 0.9718 0.29624 0.74035 0.0
N1150 N 0.9832 0.22531 0.74607 0.0
N1151 N 0.99185 0.34932 0.74233 0.0
C1152 C 1.00919 0.31013 0.74787 0.0
C1153 C 1.00451 0.24252 0.74954 0.0
C1154 C 0.79925 0.5367 0.76272 0.0
C1155 C 0.78503 0.58768 0.75503 0.0
C1156 C 0.79282 0.47151 0.76069 0.0
C1157 C 0.77172 0.45384 0.75126 0.0
H1158 H 0.81508 0.54742 0.77203 0.0
H1159 H 0.80464 0.43448 0.76602 0.0
S1160 S 0.72949 0.56861 0.72452 0.0
N1161 N 0.74954 0.61558 0.73578 0.0
N1162 N 0.73782 0.49411 0.7304 0.0
C1163 C 0.75775 0.50459 0.7424 0.0
C1164 C 0.76429 0.57079 0.74462 0.0
C1165 C 0.0477 0.99589 0.51023 0.0
C1166 C 0.03322 0.9456 0.50253 0.0
C1167 C 0.04149 0.06128 0.5086 0.0
C1168 C 1.02032 0.07988 0.49978 0.0
H1169 H 0.06367 0.98455 0.51896 0.0
H1170 H 0.05361 0.09781 0.51352 0.0
S1171 S 0.97678 0.96722 0.47508 0.0
N1172 N 0.99704 0.91935 0.4849 0.0
N1173 N 0.98555 0.04132 0.48086 0.0
C1174 C 1.00584 0.02987 0.49162 0.0
C1175 C 1.01223 0.96343 0.49317 0.0
C1176 C 0.29551 0.24593 0.49502 0.0
C1177 C 0.282 0.19493 0.50467 0.0
C1178 C 0.28908 0.31104 0.4971 0.0
C1179 C 0.26842 0.32861 0.50794 0.0
H1180 H 0.31077 0.23531 0.48435 0.0
H1181 H 0.30062 0.34808 0.49077 0.0
S1182 S 0.22713 0.21404 0.5371 0.0
N1183 N 0.24713 0.16704 0.52576 0.0
N1184 N 0.23499 0.28849 0.53004 0.0
C1185 C 0.25474 0.2779 0.51756 0.0
C1186 C 0.26148 0.21175 0.51581 0.0
C1187 C 0.29635 0.03473 0.76142 0.0
C1188 C 0.28186 0.08637 0.75592 0.0
C1189 C 0.28939 0.96992 0.76023 0.0
C1190 C 0.26741 0.9532 0.75445 0.0
H1191 H 0.31311 0.04447 0.76773 0.0
H1192 H 0.30155 0.93232 0.7628 0.0
S1193 S 0.22284 0.0703 0.73906 0.0
N1194 N 0.24447 0.11606 0.74498 0.0
N1195 N 0.2313 0.99523 0.74282 0.0
C1196 C 0.25271 1.00463 0.74953 0.0
C1197 C 0.25993 0.07045 0.75015 0.0
C1198 C 0.75727 0.79524 0.50454 0.0
C1199 C 0.77374 0.84059 0.51083 0.0
C1200 C 0.76206 0.729 0.50182 0.0
C1201 C 0.78358 0.70417 0.50508 0.0
H1202 H 0.74036 0.81051 0.50287 0.0
H1203 H 0.74885 0.69695 0.49568 0.0
S1204 S 0.83236 0.80192 0.52414 0.0
N1205 N 0.81233 0.85508 0.52189 0.0
N1206 N 0.82124 0.73146 0.51656 0.0
C1207 C 0.80007 0.74887 0.51204 0.0
C1208 C 0.79524 0.81641 0.5146 0.0
C1209 C 0.75533 0.98578 0.25758 0.0
C1210 C 0.77232 0.94152 0.25224 0.0
C1211 C 0.75951 0.0524 0.26031 0.0
C1212 C 0.78088 0.07863 0.25769 0.0
H1213 H 0.73851 0.96934 0.25842 0.0
H1214 H 0.7459 0.08374 0.2656 0.0
S1215 S 0.83102 0.98362 0.24235 0.0
N1216 N 0.81135 0.9292 0.24384 0.0
N1217 N 0.81911 0.05353 0.24871 0.0
C1218 C 0.79794 0.03485 0.2521 0.0
C1219 C 0.79374 0.96696 0.24981 0.0
C1220 C 0.54185 0.56265 0.50285 0.0
C1221 C 0.52035 0.58091 0.49524 0.0
C1222 C 0.5483 0.49729 0.50399 0.0
C1223 C 0.53368 0.44674 0.49708 0.0
H1224 H 0.55397 0.59941 0.50739 0.0
H1225 H 0.56455 0.48607 0.51198 0.0
S1226 S 0.47658 0.46752 0.47195 0.0
N1227 N 0.4853 0.54177 0.47743 0.0
N1228 N 0.49718 0.42003 0.48083 0.0
C1229 C 0.51249 0.46435 0.48845 0.0
C1230 C 0.5059 0.53066 0.48728 0.0
C1231 C 0.54102 0.71846 0.74025 0.0
C1232 C 0.52084 0.70105 0.75266 0.0
C1233 C 0.54777 0.78344 0.7386 0.0
C1234 C 0.53498 0.83429 0.74998 0.0
H1235 H 0.5519 0.68138 0.73228 0.0
H1236 H 0.56278 0.79428 0.72721 0.0
S1237 S 0.48249 0.8153 0.78846 0.0
N1238 N 0.48945 0.74118 0.77951 0.0
N1239 N 0.50184 0.86221 0.77528 0.0
C1240 C 0.51518 0.81762 0.76306 0.0
C1241 C 0.50823 0.7517 0.76471 0.0
C1242 C 0.50644 0.24 0.24642 0.0
C1243 C 0.52372 0.19635 0.25134 0.0
C1244 C 0.5101 0.30716 0.2454 0.0
C1245 C 0.53119 0.33476 0.24933 0.0
H1246 H 0.48977 0.22252 0.24448 0.0
H1247 H 0.4963 0.33799 0.24032 0.0
S1248 S 0.5815 0.24211 0.26649 0.0
N1249 N 0.56254 0.18637 0.26208 0.0
N1250 N 0.56917 0.31166 0.26077 0.0
C1251 C 0.54842 0.29171 0.25518 0.0
C1252 C 0.5448 0.22328 0.25566 0.0
C1253 C 0.51212 0.97286 0.99604 0.0
C1254 C 0.53418 0.95532 1.00098 0.0
C1255 C 0.50535 0.03795 0.99493 0.0
C1256 C 0.52019 0.08935 0.99913 0.0
H1257 H 0.4998 0.93562 0.99376 0.0
H1258 H 0.48853 0.04811 0.9891 0.0
S1259 S 0.57934 0.07133 0.0153 0.0
N1260 N 0.57047 0.99651 0.01227 0.0
N1261 N 0.55787 0.11773 0.00923 0.0
C1262 C 0.54211 0.0726 0.00472 0.0
C1263 C 0.54906 1.00642 0.00576 0.0
C1264 C 1.01572 0.09843 0.89287 0.0
C1265 C 1.01818 0.16293 0.90221 0.0
C1266 C 1.00964 0.08276 0.8644 0.0
C1267 C 1.00475 0.13071 0.84407 0.0
H1268 H 1.01937 0.05932 0.90745 0.0
H1269 H 1.00985 0.03272 0.85794 0.0
S1270 S 1.00663 0.30695 0.85761 0.0
N1271 N 1.01391 0.27503 0.88859 0.0
N1272 N 1.00205 0.24581 0.83581 0.0
C1273 C 1.00623 0.19528 0.85347 0.0
C1274 C 1.01294 0.21132 0.88221 0.0
C1275 C 0.30784 0.10935 0.88693 0.0
C1276 C 0.28755 0.11991 0.90101 0.0
C1277 C 0.31158 0.12946 0.85829 0.0
C1278 C 0.29552 0.16316 0.84263 0.0
H1279 H 0.32075 0.08336 0.89788 0.0
H1280 H 0.32675 0.11594 0.848 0.0
S1281 S 0.24059 0.21009 0.87036 0.0
N1282 N 0.25185 0.17052 0.89726 0.0
N1283 N 0.25897 0.2097 0.84442 0.0
C1284 C 0.27558 0.17645 0.85699 0.0
C1285 C 0.2716 0.15475 0.88578 0.0
C1286 C 0.03221 0.16516 0.40017 0.0
C1287 C 1.01096 0.15965 0.41247 0.0
C1288 C 0.03723 0.1432 0.3722 0.0
C1289 C 1.02117 0.11521 0.35451 0.0
H1290 H 0.0455 0.18499 0.41279 0.0
H1291 H 0.05384 0.14864 0.36435 0.0
S1292 S 0.96333 0.08645 0.37545 0.0
N1293 N 0.97422 0.1196 0.40427 0.0
N1294 N 0.983 0.08348 0.35133 0.0
C1295 C 0.99979 0.11063 0.36609 0.0
C1296 C 0.99484 0.13138 0.39496 0.0
C1297 C 0.30946 0.15703 0.40255 0.0
C1298 C 0.29306 0.12317 0.4175 0.0
C1299 C 0.30587 0.18082 0.37442 0.0
C1300 C 0.28547 0.17386 0.36011 0.0
H1301 H 0.32484 0.16777 0.41301 0.0
H1302 H 0.3191 0.20666 0.36405 0.0
S1303 S 0.23755 0.08495 0.38898 0.0
N1304 N 0.25596 0.08077 0.41484 0.0
N1305 N 0.24922 0.12624 0.36291 0.0
C1306 C 0.26914 0.13894 0.37464 0.0
C1307 C 0.27293 0.11371 0.40296 0.0
C1308 C 0.03019 0.91604 0.15066 0.0
C1309 C 0.0499 0.89992 0.16512 0.0
C1310 C 1.02549 0.8946 0.12255 0.0
C1311 C 0.04034 0.8561 0.10716 0.0
H1312 H 1.01782 0.94413 0.16163 0.0
H1313 H 1.0101 0.90858 0.11278 0.0
S1314 S 0.09368 0.79647 0.13485 0.0
N1315 N 0.08365 0.83893 0.1617 0.0
N1316 N 0.07565 0.80236 0.10861 0.0
C1317 C 0.06026 0.84046 0.12101 0.0
C1318 C 0.06482 0.8612 0.14992 0.0
C1319 C 0.76511 0.95589 0.12599 0.0
C1320 C 0.77092 0.90936 0.10539 0.0
C1321 C 0.75835 0.93813 0.15397 0.0
C1322 C 0.75707 0.87304 0.16294 0.0
H1323 H 0.76583 1.0065 0.1205 0.0
H1324 H 0.75507 0.97609 0.16928 0.0
S1325 S 0.77189 0.73264 0.11795 0.0
N1326 N 0.77502 0.79486 0.0963 0.0
N1327 N 0.76367 0.76255 0.14889 0.0
C1328 C 0.76282 0.82628 0.14252 0.0
C1329 C 0.7693 0.84413 0.11389 0.0
C1330 C 0.05487 0.92539 0.63518 0.0
C1331 C 0.03397 0.92019 0.64834 0.0
C1332 C 0.05895 0.90298 0.60695 0.0
C1333 C 0.04257 0.87197 0.59076 0.0
H1334 H 0.06813 0.94871 0.64658 0.0
H1335 H 0.07473 0.9125 0.5974 0.0
S1336 S 0.98572 0.83927 0.61599 0.0
N1337 N 0.99717 0.87761 0.64309 0.0
N1338 N 1.00483 0.83409 0.59108 0.0
C1339 C 1.0219 0.86419 0.60419 0.0
C1340 C 1.01761 0.88831 0.63255 0.0
C1341 C 0.76093 0.8341 0.63663 0.0
C1342 C 0.76663 0.88201 0.65666 0.0
C1343 C 0.75486 0.84987 0.60818 0.0
C1344 C 0.75425 0.9142 0.59818 0.0
H1345 H 0.76138 0.7839 0.64286 0.0
H1346 H 0.75178 0.81086 0.59332 0.0
S1347 S 0.76905 0.05751 0.64136 0.0
N1348 N 0.77132 0.99697 0.66411 0.0
N1349 N 0.76122 0.02548 0.61066 0.0
C1350 C 0.7598 0.96238 0.61804 0.0
C1351 C 0.76557 0.9466 0.64715 0.0
C1352 C 0.03161 0.63144 0.38441 0.0
C1353 C 1.01572 0.66175 0.40155 0.0
C1354 C 0.02681 0.61076 0.35622 0.0
C1355 C 1.00602 0.62018 0.34316 0.0
H1356 H 0.04791 0.62321 0.39287 0.0
H1357 H 0.03995 0.58881 0.34406 0.0
S1358 S 0.95895 0.69986 0.3786 0.0
N1359 N 0.97808 0.69908 0.40356 0.0
N1360 N 0.96994 0.66631 0.34998 0.0
C1361 C 0.99008 0.65093 0.36008 0.0
C1362 C 0.99471 0.66999 0.38925 0.0
C1363 C 0.29179 0.68225 0.39526 0.0
C1364 C 0.28819 0.61781 0.40428 0.0
C1365 C 0.29743 0.69827 0.36664 0.0
C1366 C 0.30054 0.65064 0.3456 0.0
H1367 H 0.28926 0.72135 0.41022 0.0
H1368 H 0.29812 0.74857 0.36064 0.0
S1369 S 0.29537 0.47436 0.35771 0.0
N1370 N 0.28984 0.50587 0.38934 0.0
N1371 N 0.30051 0.53573 0.33626 0.0
C1372 C 0.29801 0.586 0.35458 0.0
C1373 C 0.29192 0.56964 0.38356 0.0
C1374 C 0.99458 0.62427 0.89966 0.0
C1375 C 1.01106 0.65645 0.91518 0.0
C1376 C 0.9982 0.60251 0.87125 0.0
C1377 C 1.01872 0.60988 0.85734 0.0
H1378 H 0.9792 0.61296 0.90995 0.0
H1379 H 0.98498 0.57769 0.86038 0.0
S1380 S 0.06681 0.69514 0.88779 0.0
N1381 N 0.04828 0.69812 0.91351 0.0
N1382 N 0.05512 0.65611 0.86106 0.0
C1383 C 0.03508 0.64336 0.87242 0.0
C1384 C 0.03125 0.66666 0.90097 0.0
C1385 C 0.28227 0.60241 0.86714 0.0
C1386 C 0.28202 0.66661 0.85696 0.0
C1387 C 0.28797 0.58683 0.89572 0.0
C1388 C 0.29432 0.63447 0.91543 0.0
H1389 H 0.27733 0.56362 0.85307 0.0
H1390 H 0.28655 0.53729 0.90271 0.0
S1391 S 0.29669 0.80997 0.90042 0.0
N1392 N 0.28897 0.77822 0.8696 0.0
N1393 N 0.29959 0.74904 0.92282 0.0
C1394 C 0.29435 0.69875 0.90554 0.0
C1395 C 0.28832 0.71477 0.87656 0.0
C1396 C 0.05733 0.35842 0.61915 0.0
C1397 C 0.03676 0.3657 0.60533 0.0
C1398 C 0.06113 0.38059 0.64748 0.0
C1399 C 0.04478 0.4132 0.66303 0.0
H1400 H 0.07045 0.33329 0.60829 0.0
H1401 H 0.07652 0.36918 0.65768 0.0
S1402 S 0.98906 0.45288 0.63567 0.0
N1403 N 1.00053 0.41298 0.60905 0.0
N1404 N 1.0077 0.45595 0.66127 0.0
C1405 C 1.02459 0.4238 0.64879 0.0
C1406 C 1.02057 0.39997 0.62036 0.0
C1407 C 0.78399 0.38328 0.62267 0.0
C1408 C 0.76901 0.42179 0.60741 0.0
C1409 C 0.77932 0.36075 0.65065 0.0
C1410 C 0.75953 0.3756 0.66514 0.0
H1411 H 0.79946 0.37022 0.6129 0.0
H1412 H 0.79183 0.33295 0.66156 0.0
S1413 S 0.71557 0.47968 0.63554 0.0
N1414 N 0.73358 0.47484 0.60924 0.0
N1415 N 0.72567 0.43623 0.66208 0.0
C1416 C 0.74451 0.41452 0.65012 0.0
C1417 C 0.74903 0.43641 0.62134 0.0
C1418 C 0.0393 0.45575 0.13183 0.0
C1419 C 0.03432 0.40932 0.15284 0.0
C1420 C 0.04571 0.43782 0.10377 0.0
C1421 C 0.04742 0.37263 0.09512 0.0
H1422 H 0.03819 0.50643 0.13706 0.0
H1423 H 0.0484 0.47564 0.08818 0.0
S1424 S 0.03497 0.23222 0.14135 0.0
N1425 N 0.03158 0.29474 0.16273 0.0
N1426 N 0.04228 0.26197 0.10998 0.0
C1427 C 0.04255 0.32591 0.11595 0.0
C1428 C 0.03643 0.34399 0.14468 0.0
C1429 C 0.78389 0.39488 0.13483 0.0
C1430 C 0.76794 0.36263 0.1512 0.0
C1431 C 0.77941 0.41656 0.10665 0.0
C1432 C 0.75888 0.40655 0.09295 0.0
H1433 H 0.79993 0.40398 0.14392 0.0
H1434 H 0.79256 0.43993 0.09502 0.0
S1435 S 0.71199 0.32141 0.12615 0.0
N1436 N 0.73065 0.32233 0.15169 0.0
N1437 N 0.72316 0.35736 0.09823 0.0
C1438 C 0.74296 0.37371 0.10909 0.0
C1439 C 0.74726 0.35342 0.13817 0.0
C1440 C 0.50675 0.18248 0.34716 0.0
C1441 C 0.50858 0.11839 0.33717 0.0
C1442 C 0.51279 0.2003 0.3754 0.0
C1443 C 0.52113 0.15487 0.39502 0.0
H1444 H 0.50144 0.21987 0.33254 0.0
H1445 H 0.51097 0.25006 0.38188 0.0
S1446 S 0.53077 0.98185 0.3793 0.0
N1447 N 0.5207 1.01063 0.34907 0.0
N1448 N 0.53124 0.04288 0.40196 0.0
C1449 C 0.52293 0.09067 0.38533 0.0
C1450 C 0.517 0.07286 0.35655 0.0
C1451 C 0.79632 0.0794 0.38534 0.0
C1452 C 0.78471 0.12063 0.40387 0.0
C1453 C 0.80152 0.09766 0.35693 0.0
C1454 C 0.79559 0.15842 0.34581 0.0
H1455 H 0.80125 0.03223 0.3928 0.0
H1456 H 0.80943 0.06278 0.34313 0.0
S1457 S 0.76546 0.28494 0.38565 0.0
N1458 N 0.76816 0.22605 0.40919 0.0
N1459 N 0.77723 0.2594 0.3559 0.0
C1460 C 0.78425 0.20031 0.3643 0.0
C1461 C 0.77911 0.18189 0.39326 0.0
C1462 C 0.50764 0.20286 0.88953 0.0
C1463 C 0.50435 0.15555 0.91071 0.0
C1464 C 0.51362 0.18632 0.86108 0.0
C1465 C 0.51748 0.12177 0.85252 0.0
H1466 H 0.50672 0.25327 0.89528 0.0
H1467 H 0.51612 0.22499 0.84587 0.0
S1468 S 0.50959 0.97905 0.89927 0.0
N1469 N 0.50415 0.04072 0.92041 0.0
N1470 N 0.51573 1.01014 0.86772 0.0
C1471 C 0.51359 0.07398 0.87331 0.0
C1472 C 0.50704 0.09075 0.90204 0.0
C1473 C 0.77781 0.11676 0.9028 0.0
C1474 C 0.79857 0.12582 0.91603 0.0
C1475 C 0.77298 0.13919 0.87485 0.0
C1476 C 0.78879 0.17122 0.85818 0.0
H1477 H 0.76475 0.09346 0.91461 0.0
H1478 H 0.75676 0.13078 0.86619 0.0
S1479 S 0.8454 0.20965 0.88185 0.0
N1480 N 0.83449 0.17346 0.90989 0.0
N1481 N 0.82629 0.21014 0.85687 0.0
C1482 C 0.80974 0.17939 0.87069 0.0
C1483 C 0.81441 0.15828 0.89956 0.0
C1484 C 0.55686 0.85708 0.61907 0.0
C1485 C 0.53619 0.86455 0.60548 0.0
C1486 C 0.56091 0.87903 0.6474 0.0
C1487 C 0.54474 0.91164 0.6633 0.0
H1488 H 0.56992 0.8322 0.60797 0.0
H1489 H 0.57644 0.86779 0.65726 0.0
S1490 S 0.48867 0.95071 0.63694 0.0
N1491 N 0.49993 0.91128 0.61002 0.0
N1492 N 0.50754 0.9536 0.66226 0.0
C1493 C 0.52435 0.92175 0.64946 0.0
C1494 C 0.52009 0.89825 0.62096 0.0
C1495 C 0.25598 0.83611 0.6459 0.0
C1496 C 0.25269 0.88473 0.66645 0.0
C1497 C 0.2619 0.85077 0.61727 0.0
C1498 C 0.26582 0.91469 0.60786 0.0
H1499 H 0.25514 0.78611 0.6523 0.0
H1500 H 0.26433 0.81106 0.6026 0.0
S1501 S 0.25923 0.06023 0.65324 0.0
N1502 N 0.25339 0.99996 0.675 0.0
N1503 N 0.26491 0.02723 0.62195 0.0
C1504 C 0.26232 0.96381 0.62817 0.0
C1505 C 0.25579 0.94889 0.65711 0.0
C1506 C 0.5273 0.85725 0.10166 0.0
C1507 C 0.5471 0.87411 0.08761 0.0
C1508 C 0.52264 0.87614 0.13016 0.0
C1509 C 0.53762 0.9128 0.14628 0.0
H1510 H 0.51484 0.8307 0.09007 0.0
H1511 H 0.50717 0.86189 0.13962 0.0
S1512 S 0.59069 0.97542 0.11956 0.0
N1513 N 0.58079 0.93488 0.09203 0.0
N1514 N 0.57278 0.96699 0.14572 0.0
C1515 C 0.5575 0.92955 0.13272 0.0
C1516 C 0.56204 0.9113 0.1035 0.0
C1517 C 0.26044 0.84418 0.10349 0.0
C1518 C 0.25686 0.90908 0.09532 0.0
C1519 C 0.26626 0.82638 0.1318 0.0
C1520 C 0.26871 0.87262 0.15364 0.0
H1521 H 0.25971 0.80673 0.08738 0.0
H1522 H 0.26893 0.77596 0.13655 0.0
S1523 S 0.26219 0.04934 0.14387 0.0
N1524 N 0.25741 0.01958 0.11169 0.0
N1525 N 0.26692 0.98681 0.16482 0.0
C1526 C 0.26464 0.93751 0.14595 0.0
C1527 C 0.25914 0.95556 0.11697 0.0
C1528 C 0.52895 0.61005 0.85256 0.0
C1529 C 0.50914 0.62362 0.83781 0.0
C1530 C 0.53324 0.6329 0.88061 0.0
C1531 C 0.51788 0.67053 0.89565 0.0
H1532 H 0.54169 0.58283 0.84189 0.0
H1533 H 0.54872 0.62075 0.8906 0.0
S1534 S 0.46447 0.72627 0.86656 0.0
N1535 N 0.47497 0.68287 0.84031 0.0
N1536 N 0.48228 0.72232 0.89312 0.0
C1537 C 0.49798 0.6843 0.88135 0.0
C1538 C 0.49381 0.66199 0.85255 0.0
C1539 C 0.79041 0.68144 0.89393 0.0
C1540 C 0.78674 0.6166 0.90221 0.0
C1541 C 0.79576 0.69891 0.86539 0.0
C1542 C 0.7985 0.65227 0.84382 0.0
H1543 H 0.78826 0.71961 0.90946 0.0
H1544 H 0.79664 0.7495 0.85993 0.0
S1545 S 0.79338 0.4754 0.85427 0.0
N1546 N 0.78804 0.50544 0.88624 0.0
N1547 N 0.79835 0.5378 0.83335 0.0
C1548 C 0.79592 0.58721 0.85213 0.0
C1549 C 0.79007 0.56948 0.88098 0.0
C1550 C 0.50399 0.5959 0.40027 0.0
C1551 C 0.50467 0.66013 0.4104 0.0
C1552 C 0.50987 0.57942 0.37181 0.0
C1553 C 0.51668 0.62647 0.35193 0.0
H1554 H 0.49987 0.55741 0.41498 0.0
H1555 H 0.50919 0.52936 0.3654 0.0
S1556 S 0.52289 0.80088 0.36771 0.0
N1557 N 0.51434 0.76992 0.3983 0.0
N1558 N 0.52392 0.74036 0.34484 0.0
C1559 C 0.51707 0.69092 0.36165 0.0
C1560 C 0.51156 0.70732 0.39076 0.0
C1561 C 0.79327 0.58742 0.39584 0.0
C1562 C 0.79928 0.63553 0.41557 0.0
C1563 C 0.78712 0.6026 0.36735 0.0
C1564 C 0.78568 0.66691 0.3574 0.0
H1565 H 0.7923 0.5378 0.40281 0.0
H1566 H 0.78265 0.56341 0.35323 0.0
S1567 S 0.80071 0.81086 0.40019 0.0
N1568 N 0.80429 0.75025 0.42259 0.0
N1569 N 0.7923 0.77878 0.36973 0.0
C1570 C 0.79206 0.71539 0.3768 0.0
C1571 C 0.79883 0.69971 0.40558 0.0
C1572 C 0.55755 0.38171 0.14696 0.0
C1573 C 0.54217 0.41867 0.16221 0.0
C1574 C 0.5534 0.35986 0.11872 0.0
C1575 C 0.53322 0.37152 0.10465 0.0
H1576 H 0.57229 0.36621 0.15753 0.0
H1577 H 0.56584 0.33131 0.10814 0.0
S1578 S 0.48743 0.46768 0.13459 0.0
N1579 N 0.50604 0.46781 0.16029 0.0
N1580 N 0.49806 0.42542 0.10808 0.0
C1581 C 0.51777 0.40907 0.1195 0.0
C1582 C 0.52225 0.4326 0.14792 0.0
C1583 C 0.2767 0.35898 0.14849 0.0
C1584 C 0.25743 0.3767 0.16346 0.0
C1585 C 0.28137 0.38165 0.12058 0.0
C1586 C 0.26695 0.42326 0.10609 0.0
H1587 H 0.28881 0.32893 0.15897 0.0
H1588 H 0.2964 0.36639 0.11029 0.0
S1589 S 0.21505 0.48839 0.13577 0.0
N1590 N 0.22467 0.44248 0.16179 0.0
N1591 N 0.23259 0.48181 0.10901 0.0
C1592 C 0.24746 0.44059 0.12051 0.0
C1593 C 0.24293 0.41841 0.14918 0.0
C1594 C 0.53305 0.34671 0.63469 0.0
C1595 C 0.5337 0.41095 0.64476 0.0
C1596 C 0.53828 0.33029 0.60605 0.0
C1597 C 0.54508 0.37696 0.58611 0.0
H1598 H 0.52794 0.30854 0.649 0.0
H1599 H 0.53632 0.28077 0.59927 0.0
S1600 S 0.54916 0.55244 0.60058 0.0
N1601 N 0.54149 0.52174 0.63163 0.0
N1602 N 0.55125 0.49104 0.57829 0.0
C1603 C 0.54573 0.44139 0.59579 0.0
C1604 C 0.54018 0.45829 0.62486 0.0
C1605 C 0.2623 0.32671 0.63331 0.0
C1606 C 0.26915 0.37407 0.65301 0.0
C1607 C 0.25608 0.34286 0.60492 0.0
C1608 C 0.25642 0.40704 0.59469 0.0
H1609 H 0.26178 0.2767 0.63984 0.0
H1610 H 0.25186 0.30417 0.59039 0.0
S1611 S 0.27479 0.54848 0.6368 0.0
N1612 N 0.27622 0.48814 0.65977 0.0
N1613 N 0.26594 0.51714 0.60643 0.0
C1614 C 0.26343 0.45453 0.61412 0.0
C1615 C 0.26932 0.43844 0.64316 0.0
C1616 C 0.07402 0.39531 0.86445 0.0
C1617 C 0.09369 0.40932 0.85002 0.0
C1618 C 0.07395 0.37928 0.89346 0.0
C1619 C 0.09359 0.37563 0.90921 0.0
H1620 H 0.05839 0.39791 0.85345 0.0
H1621 H 0.05833 0.36862 0.90344 0.0
S1622 S 0.14959 0.40714 0.88148 0.0
N1623 N 0.13338 0.41855 0.85362 0.0
N1624 N 0.13329 0.38716 0.90825 0.0
C1625 C 0.11343 0.38905 0.89507 0.0
C1626 C 0.11347 0.40617 0.86547 0.0
C1627 C 0.21431 0.89308 0.86819 0.0
C1628 C 0.21624 0.82841 0.86008 0.0
C1629 C 0.21673 0.9114 0.89682 0.0
C1630 C 0.22145 0.86579 0.91834 0.0
H1631 H 0.21106 0.92984 0.85229 0.0
H1632 H 0.21519 0.96203 0.902 0.0
S1633 S 0.22971 0.69056 0.90773 0.0
N1634 N 0.22385 0.71856 0.87556 0.0
N1635 N 0.22877 0.7534 0.92929 0.0
C1636 C 0.22342 0.80085 0.91048 0.0
C1637 C 0.22075 0.78206 0.88136 0.0
C1638 C 0.08952 0.77682 0.38016 0.0
C1639 C 0.09006 0.82303 0.40218 0.0
C1640 C 0.08752 0.79522 0.35152 0.0
C1641 C 0.08631 0.86048 0.34389 0.0
H1642 H 0.0895 0.72585 0.38509 0.0
H1643 H 0.08628 0.75793 0.33541 0.0
S1644 S 0.08988 1.00024 0.39357 0.0
N1645 N 0.0911 0.93643 0.41455 0.0
N1646 N 0.08794 0.9718 0.3607 0.0
C1647 C 0.08826 0.90731 0.36568 0.0
C1648 C 0.08997 0.88837 0.39485 0.0
C1649 C 0.21869 0.39133 0.39362 0.0
C1650 C 0.22081 0.45635 0.40125 0.0
C1651 C 0.22302 0.37109 0.36567 0.0
C1652 C 0.23026 0.415 0.34482 0.0
H1653 H 0.21403 0.35578 0.40947 0.0
H1654 H 0.22162 0.32032 0.36065 0.0
S1655 S 0.23783 0.59048 0.3534 0.0
N1656 N 0.2296 0.56521 0.38516 0.0
N1657 N 0.23876 0.52577 0.33294 0.0
C1658 C 0.23213 0.48008 0.35189 0.0
C1659 C 0.22708 0.5012 0.38008 0.0
C1660 C 0.97712 0.64157 0.144 0.0
C1661 C 0.95921 0.60587 0.15422 0.0
C1662 C 0.97775 0.66302 0.11578 0.0
C1663 C 0.96032 0.65065 0.09685 0.0
H1664 H 0.9912 0.65105 0.15753 0.0
H1665 H 0.99209 0.68947 0.10878 0.0
S1666 S 0.909 0.56305 0.11355 0.0
N1667 N 0.92319 0.56112 0.14366 0.0
N1668 N 0.92422 0.60332 0.09042 0.0
C1669 C 0.94191 0.61726 0.10698 0.0
C1670 C 0.94141 0.59431 0.13573 0.0
C1671 C 0.82659 0.13199 0.11629 0.0
C1672 C 0.84549 0.10265 0.10518 0.0
C1673 C 0.82556 0.15077 0.14488 0.0
C1674 C 0.84352 0.14196 0.1634 0.0
H1675 H 0.81217 0.13884 0.10308 0.0
H1676 H 0.81055 0.17292 0.1524 0.0
S1677 S 0.89719 0.06994 0.14449 0.0
N1678 N 0.8828 0.06677 0.11456 0.0
N1679 N 0.88099 0.10373 0.1685 0.0
C1680 C 0.86274 0.11412 0.15247 0.0
C1681 C 0.86368 0.09399 0.12331 0.0
C1682 C 0.97922 0.16097 0.61475 0.0
C1683 C 0.95997 0.16085 0.59814 0.0
C1684 C 0.97884 0.14362 0.64361 0.0
C1685 C 0.95924 0.12446 0.65699 0.0
H1686 H 0.99477 0.17535 0.60552 0.0
H1687 H 0.9942 0.14375 0.65526 0.0
S1688 S 0.90425 0.11655 0.62301 0.0
N1689 N 0.92068 0.14129 0.59717 0.0
N1690 N 0.91996 0.10727 0.65152 0.0
C1691 C 0.9398 0.1245 0.64071 0.0
C1692 C 0.94016 0.14306 0.61128 0.0
C1693 C 0.84108 0.56313 0.65679 0.0
C1694 C 0.83575 0.62666 0.66429 0.0
C1695 C 0.84382 0.54552 0.62814 0.0
C1696 C 0.84118 0.59071 0.60592 0.0
H1697 H 0.84259 0.52622 0.67306 0.0
H1698 H 0.84711 0.4954 0.62341 0.0
S1699 S 0.82968 0.76491 0.61411 0.0
N1700 N 0.82996 0.73646 0.64708 0.0
N1701 N 0.83469 0.70252 0.59329 0.0
C1702 C 0.83684 0.65494 0.6131 0.0
C1703 C 0.83421 0.67312 0.64227 0.0
C1704 C 0.60276 0.31293 0.37608 0.0
C1705 C 0.59352 0.34907 0.39863 0.0
C1706 C 0.60337 0.33712 0.3481 0.0
C1707 C 0.59471 0.39795 0.34196 0.0
H1708 H 0.6087 0.26448 0.37972 0.0
H1709 H 0.60955 0.30686 0.33103 0.0
S1710 S 0.57217 0.51609 0.39358 0.0
N1711 N 0.578 0.45213 0.41314 0.0
N1712 N 0.57934 0.49725 0.36058 0.0
C1713 C 0.58691 0.43633 0.36445 0.0
C1714 C 0.5863 0.412 0.39286 0.0
C1715 C 0.69588 0.86867 0.39924 0.0
C1716 C 0.71452 0.8987 0.41081 0.0
C1717 C 0.69565 0.84746 0.37077 0.0
C1718 C 0.71379 0.85756 0.35271 0.0
H1719 H 0.68152 0.86056 0.4124 0.0
H1720 H 0.68121 0.82282 0.36286 0.0
S1721 S 0.76613 0.93719 0.37214 0.0
N1722 N 0.7515 0.93824 0.40181 0.0
N1723 N 0.75059 0.9014 0.34808 0.0
C1724 C 0.73228 0.88918 0.36378 0.0
C1725 C 0.73279 0.90887 0.39292 0.0
C1726 C 0.58847 0.89083 0.88942 0.0
C1727 C 0.59049 0.82578 0.89685 0.0
C1728 C 0.58565 0.90923 0.86097 0.0
C1729 C 0.58447 0.86316 0.83885 0.0
H1730 H 0.58852 0.92779 0.90578 0.0
H1731 H 0.58374 0.9601 0.8565 0.0
S1732 S 0.58968 0.68625 0.84699 0.0
N1733 N 0.59201 0.71483 0.87979 0.0
N1734 N 0.58641 0.74976 0.8262 0.0
C1735 C 0.58715 0.79795 0.84586 0.0
C1736 C 0.59027 0.77917 0.87489 0.0
C1737 C 0.70004 0.33619 0.90376 0.0
C1738 C 0.70804 0.39753 0.91034 0.0
C1739 C 0.7012 0.31272 0.87571 0.0
C1740 C 0.71042 0.35003 0.8535 0.0
H1741 H 0.69387 0.3051 0.92057 0.0
H1742 H 0.69571 0.26393 0.87177 0.0
S1743 S 0.73023 0.51848 0.85975 0.0
N1744 N 0.72281 0.49835 0.89253 0.0
N1745 N 0.72525 0.45455 0.83979 0.0
C1746 C 0.71704 0.41336 0.8597 0.0
C1747 C 0.71582 0.437 0.88821 0.0
C1748 C 0.46388 0.63294 0.63762 0.0
C1749 C 0.46673 0.56855 0.64567 0.0
C1750 C 0.46575 0.65158 0.60898 0.0
C1751 C 0.47092 0.60665 0.58737 0.0
H1752 H 0.46046 0.66934 0.65361 0.0
H1753 H 0.46364 0.70211 0.60393 0.0
S1754 S 0.48075 0.43194 0.59766 0.0
N1755 N 0.47507 0.45936 0.62996 0.0
N1756 N 0.47903 0.49481 0.57618 0.0
C1757 C 0.47353 0.54178 0.59511 0.0
C1758 C 0.47135 0.52264 0.62427 0.0
C1759 C 0.3357 0.04895 0.6574 0.0
C1760 C 0.33412 0.11439 0.66459 0.0
C1761 C 0.33792 0.02973 0.6289 0.0
C1762 C 0.33843 0.07527 0.60659 0.0
H1763 H 0.33457 1.0121 0.67374 0.0
H1764 H 0.3382 0.97863 0.62431 0.0
S1765 S 0.33724 0.25276 0.61405 0.0
N1766 N 0.33521 0.22524 0.64707 0.0
N1767 N 0.33894 0.18837 0.59352 0.0
C1768 C 0.33789 0.14084 0.6135 0.0
C1769 C 0.33585 0.1606 0.64251 0.0
C1770 C 0.44921 0.21636 0.12217 0.0
C1771 C 0.45907 0.18191 0.09953 0.0
C1772 C 0.44912 0.19202 0.15017 0.0
C1773 C 0.45903 0.1328 0.1564 0.0
H1774 H 0.44227 0.26365 0.11856 0.0
H1775 H 0.44222 0.22102 0.16721 0.0
S1776 S 0.48368 0.01883 0.10447 0.0
N1777 N 0.47657 0.08175 0.08499 0.0
N1778 N 0.4763 0.0365 0.13752 0.0
C1779 C 0.4676 0.09608 0.13379 0.0
C1780 C 0.46762 0.12046 0.10534 0.0
C1781 C 0.32446 0.64981 0.14391 0.0
C1782 C 0.34415 0.65505 0.15945 0.0
C1783 C 0.32448 0.63309 0.11501 0.0
C1784 C 0.34417 0.61999 0.10048 0.0
H1785 H 0.30882 0.65974 0.15396 0.0
H1786 H 0.30882 0.62922 0.10417 0.0
S1787 S 0.40021 0.62662 0.13129 0.0
N1788 N 0.38393 0.64612 0.15815 0.0
N1789 N 0.38392 0.61343 0.10366 0.0
C1790 C 0.36401 0.62472 0.11569 0.0
C1791 C 0.36401 0.64256 0.14519 0.0
C1792 C 0.14286 0.15839 0.03175 0.0
C1793 C 0.13445 0.1876 0.00668 0.0
C1794 C 0.16099 0.11567 0.03138 0.0
C1795 C 0.17256 0.10012 0.00603 0.0
H1796 H 0.13514 0.1681 0.05218 0.0
H1797 H 0.16616 0.09499 0.05156 0.0
S1798 S 0.15804 0.16375 0.93406 0.0
N1799 N 0.13951 0.1969 0.95528 0.0
N1800 N 0.17392 0.11899 0.95475 0.0
C1801 C 0.1646 0.1295 0.98069 0.0
C1802 C 0.14558 0.17214 0.98096 0.0
C1803 C 0.1499 0.09896 0.22476 0.0
C1804 C 0.13754 0.08621 0.2498 0.0
C1805 C 0.16842 0.14019 0.22462 0.0
C1806 C 0.17636 0.17069 0.2496 0.0
H1807 H 0.14501 0.07754 0.20461 0.0
H1808 H 0.17663 0.14852 0.20442 0.0
S1809 S 0.15084 0.15356 0.32147 0.0
N1810 N 0.13518 0.10821 0.30076 0.0
N1811 N 0.17009 0.18416 0.30058 0.0
C1812 C 0.16452 0.15771 0.27504 0.0
C1813 C 0.14521 0.11632 0.2751 0.0
C1814 C 0.9156 0.87161 0.02588 0.0
C1815 C 0.92585 0.85131 1.00014 0.0
C1816 C 0.89669 0.91289 0.02595 0.0
C1817 C 0.88728 0.93714 1.00031 0.0
H1818 H 0.92192 0.85444 0.04615 0.0
H1819 H 0.88965 0.92671 0.0463 0.0
S1820 S 0.90765 0.89958 0.92705 0.0
N1821 N 0.92448 0.85985 0.94829 0.0
N1822 N 0.89019 0.93625 0.94848 0.0
C1823 C 0.89757 0.91736 0.97464 0.0
C1824 C 0.91638 0.8751 0.97454 0.0
C1825 C 0.91199 0.91263 0.78201 0.0
C1826 C 0.92133 0.93637 0.75637 0.0
C1827 C 0.89384 0.87011 0.78233 0.0
C1828 C 0.88324 0.84914 0.75705 0.0
H1829 H 0.9189 0.92687 0.80242 0.0
H1830 H 0.88783 0.85413 0.80296 0.0
S1831 S 0.90051 0.89658 0.68367 0.0
N1832 N 0.91824 0.93438 0.70454 0.0
N1833 N 0.88383 0.85646 0.70515 0.0
C1834 C 0.89219 0.87269 0.73109 0.0
C1835 C 0.9112 0.91529 0.73074 0.0
C1836 C 0.14295 0.66361 0.53514 0.0
C1837 C 0.13215 0.68247 0.50967 0.0
C1838 C 0.16144 0.62225 0.53519 0.0
C1839 C 0.17093 0.59794 0.50975 0.0
H1840 H 0.13688 0.68049 0.55558 0.0
H1841 H 0.16851 0.60943 0.5557 0.0
S1842 S 0.14981 0.63287 0.43673 0.0
N1843 N 0.13287 0.67286 0.45786 0.0
N1844 N 0.16778 0.59711 0.45795 0.0
C1845 C 0.1606 0.61699 0.48396 0.0
C1846 C 0.14129 0.6583 0.48394 0.0
C1847 C 0.15815 0.66475 0.72565 0.0
C1848 C 0.1679 0.68757 0.75119 0.0
C1849 C 0.14031 0.6211 0.72554 0.0
C1850 C 0.13047 0.59795 0.75096 0.0
H1851 H 0.16455 0.68038 0.70516 0.0
H1852 H 0.13401 0.60566 0.70497 0.0
S1853 S 0.14906 0.64229 0.82417 0.0
N1854 N 0.16599 0.68253 0.80308 0.0
N1855 N 0.13219 0.60238 0.80287 0.0
C1856 C 0.13979 0.62071 0.77683 0.0
C1857 C 0.15848 0.66453 0.77694 0.0
C1858 C 0.89462 0.41871 0.52459 0.0
C1859 C 0.8856 0.44413 0.4989 0.0
C1860 C 0.9136 0.37752 0.52475 0.0
C1861 C 0.9244 0.35838 0.49918 0.0
H1862 H 0.88717 0.43141 0.54484 0.0
H1863 H 0.91952 0.35938 0.54505 0.0
S1864 S 0.90735 0.4096 0.42599 0.0
N1865 N 0.88948 0.44524 0.44717 0.0
N1866 N 0.92388 0.36924 0.44742 0.0
C1867 C 0.91532 0.38335 0.47353 0.0
C1868 C 0.89643 0.42548 0.4734 0.0
C1869 C 0.89113 0.3655 0.28288 0.0
C1870 C 0.8808 0.34264 0.25771 0.0
C1871 C 0.90945 0.40741 0.28235 0.0
C1872 C 0.91927 0.42881 0.25661 0.0
H1873 H 0.88481 0.35143 0.30362 0.0
H1874 H 0.91609 0.42317 0.30269 0.0
S1875 S 0.89937 0.3835 0.18407 0.0
N1876 N 0.88227 0.34552 0.20575 0.0
N1877 N 0.91688 0.42264 0.20477 0.0
C1878 C 0.90942 0.40586 0.23108 0.0
C1879 C 0.89026 0.36371 0.23162 0.0
C1880 C 0.66195 0.12244 0.53019 0.0
C1881 C 0.67146 0.09717 0.50493 0.0
C1882 C 0.64381 0.16512 0.52986 0.0
C1883 C 0.63334 0.18489 0.50427 0.0
H1884 H 0.66873 0.10932 0.55082 0.0
H1885 H 0.63771 0.1822 0.55026 0.0
S1886 S 0.65123 0.13364 0.43161 0.0
N1887 N 0.66875 0.09668 0.45309 0.0
N1888 N 0.63443 0.1749 0.45246 0.0
C1889 C 0.64253 0.15994 0.47867 0.0
C1890 C 0.66152 0.11711 0.47899 0.0
C1891 C 0.66553 0.1533 0.72356 0.0
C1892 C 0.67436 0.17813 0.74932 0.0
C1893 C 0.64693 0.11218 0.72287 0.0
C1894 C 0.63528 0.09407 0.74783 0.0
H1895 H 0.67312 0.16594 0.70336 0.0
H1896 H 0.64139 0.09521 0.70217 0.0
S1897 S 0.6508 0.14592 0.82133 0.0
N1898 N 0.66953 0.18055 0.80089 0.0
N1899 N 0.63445 0.1054 0.79958 0.0
C1900 C 0.64376 0.11876 0.77388 0.0
C1901 C 0.66319 0.15979 0.77464 0.0
C1902 C 0.41078 0.86953 0.52371 0.0
C1903 C 0.42255 0.85487 0.49833 0.0
C1904 C 0.39164 0.90991 0.52361 0.0
C1905 C 0.38344 0.9389 0.49821 0.0
H1906 H 0.41599 0.84819 0.54373 0.0
H1907 H 0.38334 0.91892 0.54369 0.0
S1908 S 0.40818 0.91696 0.42593 0.0
N1909 N 0.42405 0.87377 0.44712 0.0
N1910 N 0.38933 0.94866 0.44693 0.0
C1911 C 0.39535 0.92497 0.47291 0.0
C1912 C 0.4144 0.88355 0.47298 0.0
C1913 C 0.41287 0.90704 0.22866 0.0
C1914 C 0.42248 0.93332 0.25378 0.0
C1915 C 0.39409 0.86512 0.22964 0.0
C1916 C 0.38419 0.84595 0.25583 0.0
H1917 H 0.41962 0.91979 0.208 0.0
H1918 H 0.38755 0.84668 0.20972 0.0
S1919 S 0.40284 0.89978 0.3279 0.0
N1920 N 0.41999 0.93548 0.30571 0.0
N1921 N 0.38599 0.85808 0.30746 0.0
C1922 C 0.39385 0.87169 0.2809 0.0
C1923 C 0.41249 0.91461 0.2799 0.0
C1924 C 0.64231 0.65587 0.03 0.0
C1925 C 0.63211 0.67707 0.00447 0.0
C1926 C 0.66091 0.61493 0.03013 0.0
C1927 C 0.67114 0.59305 0.00474 0.0
H1928 H 0.63579 0.67108 0.05048 0.0
H1929 H 0.6675 0.6007 0.05072 0.0
S1930 S 0.65161 0.63375 0.93152 0.0
N1931 N 0.6341 0.67178 0.95259 0.0
N1932 N 0.66913 0.59641 0.95284 0.0
C1933 C 0.6613 0.61395 0.97887 0.0
C1934 C 0.64189 0.65507 0.97874 0.0
C1935 C 0.65854 0.67064 0.22369 0.0
C1936 C 0.6694 0.68898 0.24922 0.0
C1937 C 0.64025 0.62843 0.22335 0.0
C1938 C 0.63098 0.60218 0.24856 0.0
H1939 H 0.66441 0.68858 0.20331 0.0
H1940 H 0.63316 0.61656 0.20275 0.0
S1941 S 0.65248 0.63393 0.32173 0.0
N1942 N 0.6691 0.67597 0.3009 0.0
N1943 N 0.63452 0.59868 0.30032 0.0
C1944 C 0.64141 0.62038 0.27445 0.0
C1945 C 0.66055 0.66272 0.27476 0.0
C1946 C 0.39167 0.41695 0.02263 0.0
C1947 C 0.38126 0.43823 0.99712 0.0
C1948 C 0.41053 0.37542 0.02228 0.0
C1949 C 0.41973 0.35166 0.99643 0.0
H1950 H 0.38547 0.43337 0.04306 0.0
H1951 H 0.41768 0.36088 0.04248 0.0
S1952 S 0.39885 0.39163 0.92359 0.0
N1953 N 0.38223 0.43096 0.94522 0.0
N1954 N 0.41642 0.35415 0.94464 0.0
C1955 C 0.40929 0.37247 0.97097 0.0
C1956 C 0.39054 0.41505 0.9713 0.0
C1957 C 0.39429 0.36205 0.73206 0.0
C1958 C 0.38399 0.34318 0.75799 0.0
C1959 C 0.41319 0.40328 0.73158 0.0
C1960 C 0.42252 0.42897 0.75697 0.0
H1961 H 0.38796 0.34396 0.71197 0.0
H1962 H 0.42024 0.41613 0.7111 0.0
S1963 S 0.40162 0.39625 0.83053 0.0
N1964 N 0.38493 0.35504 0.80965 0.0
N1965 N 0.4193 0.43133 0.80883 0.0
C1966 C 0.41214 0.41059 0.78285 0.0
C1967 C 0.39332 0.36835 0.78334 0.0
C1968 C 0.09187 0.13561 0.15536 0.0
C1969 C 0.09073 0.07012 0.14824 0.0
C1970 C 0.09069 0.18255 0.13431 0.0
C1971 C 0.08801 0.16551 0.10548 0.0
H1972 H 0.09382 0.15085 0.1774 0.0
H1973 H 0.09162 0.23256 0.1408 0.0
S1974 S 0.08413 0.9998 0.07601 0.0
N1975 N 0.08696 0.98967 0.11087 0.0
N1976 N 0.08445 0.07844 0.07072 0.0
C1977 C 0.08688 0.09992 0.09801 0.0
C1978 C 0.08837 0.05195 0.11958 0.0
C1979 C 0.23395 0.16303 0.09861 0.0
C1980 C 0.21577 0.12172 0.09698 0.0
C1981 C 0.2342 0.2136 0.11814 0.0
C1982 C 0.21591 0.22539 0.13541 0.0
H1983 H 0.24853 0.15386 0.08602 0.0
H1984 H 0.24906 0.24168 0.12071 0.0
S1985 S 0.16313 0.13732 0.13585 0.0
N1986 N 0.17836 0.09917 0.11204 0.0
N1987 N 0.17847 0.19698 0.14798 0.0
C1988 C 0.19698 0.18789 0.1323 0.0
C1989 C 0.19699 0.13505 0.11317 0.0
C1990 C 0.97208 0.82253 0.87065 0.0
C1991 C 0.97208 0.83934 0.89964 0.0
C1992 C 0.97101 0.87005 0.8497 0.0
C1993 C 0.96943 0.93538 0.85727 0.0
H1994 H 0.97309 0.77253 0.86416 0.0
H1995 H 0.97107 0.85534 0.82745 0.0
S1996 S 0.96807 1.00349 0.93056 0.0
N1997 N 0.97028 0.925 0.93519 0.0
N1998 N 0.96751 0.0145 0.8956 0.0
C1999 C 0.96915 0.9527 0.88625 0.0
C2000 C 0.97073 0.90447 0.90756 0.0
C2001 C 0.83877 0.8383 0.88586 0.0
C2002 C 0.83722 0.85587 0.85699 0.0
C2003 C 0.84018 0.88507 0.90701 0.0
C2004 C 0.84033 0.95073 0.89988 0.0
H2005 H 0.83876 0.78811 0.89222 0.0
H2006 H 0.84136 0.86955 0.92911 0.0
S2007 S 0.83676 0.02191 0.82741 0.0
N2008 N 0.83598 0.94332 0.82213 0.0
N2009 N 0.83877 0.03161 0.86237 0.0
C2010 C 0.83894 0.96921 0.87115 0.0
C2011 C 0.83727 0.92154 0.84952 0.0
C2012 C 0.08381 0.62738 0.60127 0.0
C2013 C 0.08293 0.69274 0.60892 0.0
C2014 C 0.08428 0.57964 0.62213 0.0
C2015 C 0.08357 0.59601 0.65117 0.0
H2016 H 0.08458 0.61291 0.57901 0.0
H2017 H 0.0851 0.52973 0.61547 0.0
S2018 S 0.08052 0.76058 0.68207 0.0
N2019 N 0.08093 0.77182 0.64711 0.0
N2020 N 0.0817 0.68186 0.68675 0.0
C2021 C 0.08236 0.66129 0.65913 0.0
C2022 C 0.08211 0.70988 0.63784 0.0
C2023 C 0.21654 0.70425 0.62458 0.0
C2024 C 0.2161 0.68788 0.65363 0.0
C2025 C 0.21725 0.65651 0.60378 0.0
C2026 C 0.21714 0.5911 0.61146 0.0
H2027 H 0.21654 0.7542 0.61786 0.0
H2028 H 0.21754 0.67108 0.58151 0.0
S2029 S 0.21594 0.52337 0.68477 0.0
N2030 N 0.21563 0.60217 0.68932 0.0
N2031 N 0.21658 0.512 0.64982 0.0
C2032 C 0.21654 0.57396 0.64043 0.0
C2033 C 0.21617 0.62262 0.66168 0.0
C2034 C 0.96442 0.3307 0.37022 0.0
C2035 C 0.9676 0.34683 0.399 0.0
C2036 C 0.9628 0.37871 0.34962 0.0
C2037 C 0.9639 0.44394 0.35738 0.0
H2038 H 0.96355 0.2808 0.36353 0.0
H2039 H 0.96065 0.36465 0.32746 0.0
S2040 S 0.97094 0.51118 0.43007 0.0
N2041 N 0.97118 0.43232 0.43455 0.0
N2042 N 0.96764 0.52281 0.39539 0.0
C2043 C 0.96649 0.4609 0.3861 0.0
C2044 C 0.96855 0.41207 0.40708 0.0
C2045 C 0.83069 0.45643 0.37543 0.0
C2046 C 0.83122 0.43872 0.40438 0.0
C2047 C 0.82918 0.40984 0.3542 0.0
C2048 C 0.8286 0.34428 0.36135 0.0
H2049 H 0.83172 0.50653 0.36908 0.0
H2050 H 0.8294 0.42529 0.33205 0.0
S2051 S 0.82786 0.27314 0.43404 0.0
N2052 N 0.82957 0.35157 0.43933 0.0
N2053 N 0.82724 0.26353 0.39899 0.0
C2054 C 0.82836 0.32585 0.39018 0.0
C2055 C 0.82953 0.37335 0.41188 0.0
C2056 C 0.58191 0.11559 0.59647 0.0
C2057 C 0.57973 0.18118 0.60312 0.0
C2058 C 0.58299 0.06967 0.61813 0.0
C2059 C 0.58151 0.08819 0.64692 0.0
H2060 H 0.58358 0.0998 0.57448 0.0
H2061 H 0.58523 0.0196 0.61231 0.0
S2062 S 0.57321 0.25348 0.67511 0.0
N2063 N 0.57492 0.26225 0.64009 0.0
N2064 N 0.57601 0.17567 0.68097 0.0
C2065 C 0.57825 0.15337 0.65375 0.0
C2066 C 0.57765 0.20011 0.63175 0.0
C2067 C 0.71228 0.08976 0.63471 0.0
C2068 C 0.7135 0.1058 0.60565 0.0
C2069 C 0.71367 0.13741 0.65548 0.0
C2070 C 0.71588 0.20242 0.64773 0.0
H2071 H 0.71104 0.04002 0.64152 0.0
H2072 H 0.71309 0.12315 0.67778 0.0
S2073 S 0.71798 0.26999 0.57457 0.0
N2074 N 0.71577 0.19142 0.56995 0.0
N2075 N 0.71812 0.28136 0.60953 0.0
C2076 C 0.7162 0.21959 0.61883 0.0
C2077 C 0.71508 0.171 0.59759 0.0
C2078 C 0.46512 0.87112 0.34639 0.0
C2079 C 0.46849 0.93638 0.35286 0.0
C2080 C 0.46405 0.82529 0.3681 0.0
C2081 C 0.46683 0.84345 0.39676 0.0
H2082 H 0.46301 0.85543 0.32445 0.0
H2083 H 0.46147 0.77533 0.36235 0.0
S2084 S 0.47663 1.00851 0.42454 0.0
N2085 N 0.47454 0.0173 0.38955 0.0
N2086 N 0.47325 0.93092 0.43058 0.0
C2087 C 0.47035 0.90868 0.40346 0.0
C2088 C 0.47096 0.95537 0.3814 0.0
C2089 C 0.33816 0.83398 0.38573 0.0
C2090 C 0.33834 0.85098 0.35674 0.0
C2091 C 0.33716 0.88125 0.40677 0.0
C2092 C 0.33661 0.94686 0.39941 0.0
H2093 H 0.33841 0.7839 0.39223 0.0
H2094 H 0.33698 0.86613 0.42897 0.0
S2095 S 0.33779 0.0163 0.32643 0.0
N2096 N 0.33857 0.93763 0.3215 0.0
N2097 N 0.33683 0.02681 0.36141 0.0
C2098 C 0.33722 0.96464 0.37052 0.0
C2099 C 0.33801 0.91648 0.34904 0.0
C2100 C 0.58288 0.7158 0.1326 0.0
C2101 C 0.58034 0.69799 0.10385 0.0
C2102 C 0.58147 0.66973 0.15419 0.0
C2103 C 0.5778 0.60477 0.14745 0.0
H2104 H 0.58631 0.7653 0.13841 0.0
H2105 H 0.58419 0.68461 0.17613 0.0
S2106 S 0.56804 0.53423 0.07589 0.0
N2107 N 0.5724 0.61151 0.06991 0.0
N2108 N 0.56998 0.52511 0.11087 0.0
C2109 C 0.57434 0.58666 0.11902 0.0
C2110 C 0.57553 0.63341 0.09704 0.0
C2111 C 0.71573 0.64517 0.10215 0.0
C2112 C 0.71668 0.57962 0.10922 0.0
C2113 C 0.71578 0.6918 0.12339 0.0
C2114 C 0.71719 0.67424 0.1523 0.0
H2115 H 0.71472 0.66066 0.08003 0.0
H2116 H 0.71503 0.74194 0.11702 0.0
S2117 S 0.72017 0.50821 0.18162 0.0
N2118 N 0.71896 0.49861 0.14659 0.0
N2119 N 0.71941 0.58674 0.18707 0.0
C2120 C 0.71819 0.6086 0.15969 0.0
C2121 C 0.71781 0.56101 0.13794 0.0
C2122 C 0.46662 0.38445 0.84881 0.0
C2123 C 0.46632 0.45002 0.85632 0.0
C2124 C 0.46568 0.33678 0.86968 0.0
C2125 C 0.46476 0.35332 0.89867 0.0
H2126 H 0.4675 0.36967 0.82661 0.0
H2127 H 0.46619 0.28679 0.86307 0.0
S2128 S 0.46252 0.51819 0.92929 0.0
N2129 N 0.46416 0.52937 0.89438 0.0
N2130 N 0.4626 0.4394 0.93405 0.0
C2131 C 0.46404 0.41874 0.90651 0.0
C2132 C 0.46473 0.46733 0.88517 0.0
C2133 C 0.33534 0.32193 0.88568 0.0
C2134 C 0.33288 0.3382 0.85672 0.0
C2135 C 0.33384 0.36906 0.90678 0.0
C2136 C 0.33022 0.43372 0.89939 0.0
H2137 H 0.3385 0.27265 0.89208 0.0
H2138 H 0.33616 0.35504 0.92891 0.0
S2139 S 0.32133 0.50041 0.82678 0.0
N2140 N 0.32547 0.42282 0.82178 0.0
N2141 N 0.32342 0.51158 0.86163 0.0
C2142 C 0.32746 0.45051 0.87062 0.0
C2143 C 0.32856 0.40254 0.84918 0.0
C2144 C 0.14612 0.53534 0.12884 0.0
C2145 C 0.12577 0.50405 0.12612 0.0
C2146 C 0.15748 0.53474 0.15488 0.0
C2147 C 0.14869 0.5035 0.17892 0.0
H2148 H 0.15426 0.55518 0.11021 0.0
H2149 H 0.17394 0.55421 0.15562 0.0
S2150 S 0.09363 0.42974 0.18489 0.0
N2151 N 0.09533 0.45316 0.15118 0.0
N2152 N 0.11706 0.45087 0.19999 0.0
C2153 C 0.12725 0.47952 0.17748 0.0
C2154 C 0.11565 0.48005 0.15102 0.0
C2155 C 0.16038 0.73022 0.1204 0.0
C2156 C 0.17999 0.7658 0.11882 0.0
C2157 C 0.1487 0.72598 0.1461 0.0
C2158 C 0.15637 0.75709 0.17077 0.0
H2159 H 0.15293 0.71075 0.10121 0.0
H2160 H 0.13266 0.70353 0.14599 0.0
S2161 S 0.20976 0.83918 0.17991 0.0
N2162 N 0.20909 0.81873 0.14576 0.0
N2163 N 0.18645 0.81325 0.19378 0.0
C2164 C 0.17721 0.78535 0.17041 0.0
C2165 C 0.18926 0.78898 0.14441 0.0
C2166 C 0.87488 0.52978 0.88778 0.0
C2167 C 0.88578 0.51952 0.86165 0.0
C2168 C 0.88637 0.52849 0.91365 0.0
C2169 C 0.90908 0.51767 0.91401 0.0
H2170 H 0.8577 0.54319 0.88803 0.0
H2171 H 0.87784 0.54219 0.93306 0.0
S2172 S 0.94404 0.47319 0.85238 0.0
N2173 N 0.9196 0.48643 0.83829 0.0
N2174 N 0.94128 0.48504 0.88715 0.0
C2175 C 0.9196 0.49983 0.88854 0.0
C2176 C 0.90787 0.50042 0.86221 0.0
C2177 C 0.92354 0.24841 0.91754 0.0
C2178 C 0.90266 0.27582 0.92018 0.0
C2179 C 0.93428 0.24759 0.89111 0.0
C2180 C 0.92392 0.27136 0.86623 0.0
H2181 H 0.93082 0.22299 0.93543 0.0
H2182 H 0.95001 0.2236 0.88991 0.0
S2183 S 0.87133 0.36167 0.86422 0.0
N2184 N 0.87406 0.3395 0.89797 0.0
N2185 N 0.89339 0.33477 0.84761 0.0
C2186 C 0.90429 0.30647 0.86964 0.0
C2187 C 0.89376 0.30899 0.89684 0.0
C2188 C 0.16208 0.01898 0.59984 0.0
C2189 C 0.13922 0.02584 0.59894 0.0
C2190 C 0.17316 0.01791 0.62608 0.0
C2191 C 0.16161 0.02356 0.65207 0.0
H2192 H 0.17115 1.0083 0.58048 0.0
H2193 H 0.19058 1.00766 0.6261 0.0
S2194 S 0.10224 0.05866 0.65992 0.0
N2195 N 0.10593 0.05014 0.62512 0.0
N2196 N 0.12665 0.04894 0.67464 0.0
C2197 C 0.13916 0.03915 0.65098 0.0
C2198 C 0.12793 0.03974 0.62427 0.0
C2199 C 0.1635 0.26379 0.65671 0.0
C2200 C 0.14059 0.25811 0.65689 0.0
C2201 C 0.17502 0.26479 0.63083 0.0
C2202 C 0.16389 0.26032 0.60447 0.0
H2203 H 0.17229 0.27355 0.6764 0.0
H2204 H 0.19249 0.27425 0.63139 0.0
S2205 S 0.10454 0.22759 0.59467 0.0
N2206 N 0.10765 0.23553 0.6296 0.0
N2207 N 0.12923 0.23669 0.58073 0.0
C2208 C 0.14136 0.24568 0.60481 0.0
C2209 C 0.12966 0.24516 0.63116 0.0
C2210 C 0.90302 1.0011 0.36929 0.0
C2211 C 0.88084 0.0191 0.36777 0.0
C2212 C 0.91435 1.00382 0.39525 0.0
C2213 C 0.90384 0.0237 0.42039 0.0
H2214 H 0.91226 0.99096 0.35002 0.0
H2215 H 0.93183 0.995 0.39533 0.0
S2216 S 0.84475 0.05781 0.4293 0.0
N2217 N 0.8477 0.04343 0.39474 0.0
N2218 N 0.86938 0.04942 0.44355 0.0
C2219 C 0.88113 0.03311 0.41996 0.0
C2220 C 0.8695 0.03056 0.39353 0.0
C2221 C 0.8687 0.74938 0.36288 0.0
C2222 C 0.87946 0.77305 0.38744 0.0
C2223 C 0.87943 0.74721 0.33644 0.0
C2224 C 0.90094 0.77011 0.33371 0.0
H2225 H 0.85258 0.72771 0.36453 0.0
H2226 H 0.87162 0.72239 0.31877 0.0
S2227 S 0.93418 0.85131 0.38915 0.0
N2228 N 0.91137 0.83043 0.40579 0.0
N2229 N 0.9311 0.82782 0.35564 0.0
C2230 C 0.91065 0.80194 0.35686 0.0
C2231 C 0.89992 0.80348 0.3839 0.0
C2232 C 0.64687 0.5455 0.65842 0.0
C2233 C 0.64771 0.49108 0.67614 0.0
C2234 C 0.63569 0.5431 0.63212 0.0
C2235 C 0.62555 0.48581 0.62261 0.0
H2236 H 0.65629 0.58806 0.66375 0.0
H2237 H 0.63641 0.58487 0.61825 0.0
S2238 S 0.6231 0.33132 0.66337 0.0
N2239 N 0.63584 0.38181 0.68478 0.0
N2240 N 0.61717 0.37349 0.63454 0.0
C2241 C 0.62526 0.43246 0.6415 0.0
C2242 C 0.6357 0.43632 0.66857 0.0
C2243 C 0.67689 0.76365 0.63096 0.0
C2244 C 0.66657 0.7599 0.60409 0.0
C2245 C 0.66457 0.76197 0.65619 0.0
C2246 C 0.64164 0.75744 0.65511 0.0
H2247 H 0.69435 0.77289 0.63239 0.0
H2248 H 0.67281 0.77052 0.67639 0.0
S2249 S 0.60734 0.73416 0.59058 0.0
N2250 N 0.63259 0.74124 0.57814 0.0
N2251 N 0.60936 0.73972 0.62575 0.0
C2252 C 0.6314 0.74688 0.62866 0.0
C2253 C 0.64395 0.74753 0.603 0.0
C2254 C 0.38843 0.51258 0.40854 0.0
C2255 C 0.41145 0.51048 0.40888 0.0
C2256 C 0.37698 0.51282 0.3826 0.0
C2257 C 0.38825 0.50991 0.3564 0.0
H2258 H 0.37936 0.52078 0.42814 0.0
H2259 H 0.3594 0.52056 0.38295 0.0
S2260 S 0.44807 0.48816 0.3465 0.0
N2261 N 0.44481 0.49393 0.3815 0.0
N2262 N 0.42322 0.49338 0.33255 0.0
C2263 C 0.41098 0.49918 0.3567 0.0
C2264 C 0.42265 0.49979 0.38309 0.0
C2265 C 0.40067 0.30397 0.39721 0.0
C2266 C 0.39977 0.25101 0.41578 0.0
C2267 C 0.41301 0.30072 0.37184 0.0
C2268 C 0.42443 0.24411 0.36418 0.0
H2269 H 0.3906 0.34599 0.40119 0.0
H2270 H 0.41237 0.34122 0.35724 0.0
S2271 S 0.42802 0.0946 0.40841 0.0
N2272 N 0.41334 0.14488 0.42765 0.0
N2273 N 0.43424 0.13455 0.37908 0.0
C2274 C 0.42467 0.19257 0.38405 0.0
C2275 C 0.41295 0.19736 0.41017 0.0
C2276 C 0.64531 0.03596 0.10751 0.0
C2277 C 0.65498 1.00855 0.08316 0.0
C2278 C 0.65648 0.03705 0.13364 0.0
C2279 C 0.67772 1.01135 0.13592 0.0
H2280 H 0.6285 0.05245 0.10677 0.0
H2281 H 0.64781 0.05338 0.15253 0.0
S2282 S 0.71202 0.94977 0.07643 0.0
N2283 N 0.68806 0.9658 0.06148 0.0
N2284 N 0.70957 0.97013 0.11045 0.0
C2285 C 0.68853 0.99171 0.11082 0.0
C2286 C 0.67703 0.98994 0.08434 0.0
C2287 C 0.63221 0.29335 0.08728 0.0
C2288 C 0.65278 0.26391 0.08505 0.0
C2289 C 0.62174 0.29829 0.11378 0.0
C2290 C 0.6319 0.27565 0.13899 0.0
H2291 H 0.62513 0.31788 0.06901 0.0
H2292 H 0.60636 0.3241 0.11465 0.0
S2293 S 0.68324 0.17976 0.14235 0.0
N2294 N 0.68073 0.19951 0.10826 0.0
N2295 N 0.66165 0.21072 0.15863 0.0
C2296 C 0.6511 0.23845 0.13616 0.0
C2297 C 0.66149 0.23241 0.10898 0.0
C2298 C 0.39411 1.0012 0.9023 0.0
C2299 C 0.41704 1.0069 0.90151 0.0
C2300 C 0.3819 1.00126 0.87696 0.0
C2301 C 0.39239 1.00568 0.85026 0.0
H2302 H 0.38546 1.00325 0.92253 0.0
H2303 H 0.36417 1.003 0.87829 0.0
S2304 S 0.45226 1.00801 0.837 0.0
N2305 N 0.44993 1.00735 0.87222 0.0
N2306 N 0.42694 1.00585 0.82437 0.0
C2307 C 0.41536 1.00345 0.84918 0.0
C2308 C 0.42776 1.00452 0.87498 0.0
C2309 C 0.38694 0.7978 0.87116 0.0
C2310 C 0.37534 0.74212 0.87971 0.0
C2311 C 0.39827 0.7999 0.84502 0.0
C2312 C 0.39786 0.7469 0.82649 0.0
H2313 H 0.3888 0.83795 0.88576 0.0
H2314 H 0.4089 0.8405 0.84055 0.0
S2315 S 0.36852 0.59304 0.83598 0.0
N2316 N 0.36357 0.63382 0.86549 0.0
N2317 N 0.38299 0.64189 0.81573 0.0
C2318 C 0.38427 0.69469 0.83291 0.0
C2319 C 0.3735 0.691 0.85978 0.0
loop_
_geom_bond_atom_site_label_1
_geom_bond_atom_site_label_2
_geom_bond_distance
_geom_bond_site_symmetry_2
_ccdc_geom_bond_type
Zn0 N4 2.020 . S
Zn0 O8 2.019 . S
Zn0 N10 2.119 . S
Zn0 O18 1.975 . S
C1 N2 1.334 . S
C1 N5 1.338 . S
N2 C1 1.334 . S
N2 C3 1.334 . S
C3 N2 1.334 . S
C3 N4 1.336 . S
N4 Zn0 2.020 . S
N4 C3 1.336 . S
N4 N5 1.394 . S
N5 C1 1.338 . S
N5 N4 1.394 . S
N5 Zn9 1.984 1_554 S
C6 O7 1.244 . S
C6 O30 1.257 . S
O7 C6 1.244 . S
O8 Zn0 2.019 . S
O8 C28 1.257 . S
Zn9 N5 1.984 1_556 S
Zn9 O16 1.975 . S
Zn9 N25 2.119 . S
Zn9 O30 2.019 . S
N10 Zn0 2.119 . S
N10 C12 1.334 . S
N10 C13 1.328 . S
C11 C12 1.391 . S
C11 N14 1.329 . S
C11 H32 0.930 . S
C12 N10 1.334 . S
C12 C11 1.391 . S
C12 H19 0.930 . S
C13 N10 1.328 . S
C13 C15 1.392 . S
C13 H20 0.930 . S
N14 C11 1.329 . S
N14 C15 1.331 . S
C15 C13 1.392 . S
C15 N14 1.331 . S
O16 Zn9 1.975 . S
O16 C17 1.252 . S
C17 O16 1.252 . S
C17 O18 1.252 1_556 S
O18 Zn0 1.975 . S
O18 C17 1.252 1_554 S
H19 C12 0.930 . S
H20 C13 0.930 . S
C21 C22 1.392 . S
C21 N25 1.328 . S
C21 H27 0.930 . S
C22 C21 1.392 . S
C22 N26 1.331 . S
C23 C24 1.391 . S
C23 N26 1.329 . S
C23 H33 0.930 . S
C24 C23 1.391 . S
C24 N25 1.334 . S
C24 H31 0.930 . S
N25 Zn9 2.119 . S
N25 C21 1.328 . S
N25 C24 1.334 . S
N26 C22 1.331 . S
N26 C23 1.329 . S
H27 C21 0.930 . S
C28 O8 1.257 . S
C28 O29 1.244 . S
O29 C28 1.244 . S
O30 C6 1.257 . S
O30 Zn9 2.019 . S
H31 C24 0.930 . S
H32 C11 0.930 . S
H33 C23 0.930 . S
Zn34 N38 1.984 1_556 S
Zn34 O42 2.019 . S
Zn34 N44 2.119 1_565 S
Zn34 O52 1.975 . S
C35 N36 1.334 . S
C35 N39 1.336 . S
N36 C35 1.334 . S
N36 C37 1.334 . S
C37 N36 1.334 . S
C37 N38 1.338 . S
N38 Zn34 1.984 1_554 S
N38 C37 1.338 . S
N38 N39 1.394 . S
N39 C35 1.336 . S
N39 N38 1.394 . S
N39 Zn43 2.020 . S
C40 O41 1.244 . S
C40 O64 1.257 . S
O41 C40 1.244 . S
O42 Zn34 2.019 . S
O42 C62 1.257 . S
Zn43 N39 2.020 . S
Zn43 O50 1.975 1_565 S
Zn43 N59 2.119 . S
Zn43 O64 2.019 1_565 S
N44 Zn34 2.119 1_545 S
N44 C46 1.334 . S
N44 C47 1.328 . S
C45 C46 1.391 . S
C45 N48 1.329 . S
C45 H66 0.930 . S
C46 N44 1.334 . S
C46 C45 1.391 . S
C46 H53 0.930 . S
C47 N44 1.328 . S
C47 C49 1.392 . S
C47 H54 0.930 1_545 S
N48 C45 1.329 . S
N48 C49 1.331 . S
C49 C47 1.392 . S
C49 N48 1.331 . S
O50 Zn43 1.975 1_545 S
O50 C51 1.252 1_554 S
C51 O50 1.252 1_556 S
C51 O52 1.252 1_545 S
O52 Zn34 1.975 . S
O52 C51 1.252 1_565 S
H53 C46 0.930 . S
H54 C47 0.930 1_565 S
C55 C56 1.392 . S
C55 N59 1.328 . S
C55 H61 0.930 . S
C56 C55 1.392 . S
C56 N60 1.331 . S
C57 C58 1.391 . S
C57 N60 1.329 . S
C57 H67 0.930 . S
C58 C57 1.391 . S
C58 N59 1.334 . S
C58 H65 0.930 . S
N59 Zn43 2.119 . S
N59 C55 1.328 . S
N59 C58 1.334 . S
N60 C56 1.331 . S
N60 C57 1.329 . S
H61 C55 0.930 . S
C62 O42 1.257 . S
C62 O63 1.244 . S
O63 C62 1.244 . S
O64 C40 1.257 . S
O64 Zn43 2.019 1_545 S
H65 C58 0.930 . S
H66 C45 0.930 . S
H67 C57 0.930 . S
Zn68 N72 2.020 . S
Zn68 O76 2.019 1_565 S
Zn68 N78 2.119 . S
Zn68 O86 1.975 1_565 S
C69 N70 1.334 . S
C69 N73 1.336 . S
N70 C69 1.334 . S
N70 C71 1.334 . S
C71 N70 1.334 . S
C71 N72 1.336 . S
N72 Zn68 2.020 . S
N72 C71 1.336 . S
N72 N73 1.354 . S
N73 C69 1.336 . S
N73 N72 1.354 . S
N73 Zn77 2.020 . S
C74 O75 1.244 . S
C74 O98 1.257 . S
O75 C74 1.244 . S
O76 Zn68 2.019 1_545 S
O76 C96 1.257 . S
Zn77 N73 2.020 . S
Zn77 O84 1.975 . S
Zn77 N93 2.119 1_565 S
Zn77 O98 2.019 . S
N78 Zn68 2.119 . S
N78 C80 1.334 . S
N78 C81 1.328 . S
C79 C80 1.391 . S
C79 N82 1.329 . S
C79 H100 0.930 . S
C80 N78 1.334 . S
C80 C79 1.391 . S
C80 H87 0.930 . S
C81 N78 1.328 . S
C81 C83 1.392 . S
C81 H88 0.930 . S
N82 C79 1.329 . S
N82 C83 1.331 . S
C83 C81 1.392 . S
C83 N82 1.331 . S
O84 Zn77 1.975 . S
O84 C85 1.252 1_565 S
C85 O84 1.252 1_545 S
C85 O86 1.252 . S
O86 Zn68 1.975 1_545 S
O86 C85 1.252 . S
H87 C80 0.930 . S
H88 C81 0.930 . S
C89 C90 1.392 . S
C89 N93 1.328 . S
C89 H95 0.930 1_545 S
C90 C89 1.392 . S
C90 N94 1.331 . S
C91 C92 1.391 . S
C91 N94 1.329 . S
C91 H101 0.930 . S
C92 C91 1.391 . S
C92 N93 1.334 . S
C92 H99 0.930 . S
N93 Zn77 2.119 1_545 S
N93 C89 1.328 . S
N93 C92 1.334 . S
N94 C90 1.331 . S
N94 C91 1.329 . S
H95 C89 0.930 1_565 S
C96 O76 1.257 . S
C96 O97 1.244 . S
O97 C96 1.244 . S
O98 C74 1.257 . S
O98 Zn77 2.019 . S
H99 C92 0.930 . S
H100 C79 0.930 . S
H101 C91 0.930 . S
Zn102 N106 2.020 . S
Zn102 O110 2.019 . S
Zn102 N112 2.119 . S
Zn102 O120 1.975 . S
C103 N104 1.334 . S
C103 N107 1.336 . S
N104 C103 1.334 . S
N104 C105 1.334 . S
C105 N104 1.334 . S
C105 N106 1.336 . S
N106 Zn102 2.020 . S
N106 C105 1.336 . S
N106 N107 1.354 . S
N107 C103 1.336 . S
N107 N106 1.354 . S
N107 Zn111 2.020 . S
C108 O109 1.244 . S
C108 O132 1.257 . S
O109 C108 1.244 . S
O110 Zn102 2.019 . S
O110 C130 1.257 . S
Zn111 N107 2.020 . S
Zn111 O118 1.975 . S
Zn111 N127 2.119 . S
Zn111 O132 2.019 . S
N112 Zn102 2.119 . S
N112 C114 1.334 . S
N112 C115 1.328 . S
C113 C114 1.391 . S
C113 N116 1.329 . S
C113 H134 0.930 . S
C114 N112 1.334 . S
C114 C113 1.391 . S
C114 H121 0.930 . S
C115 N112 1.328 . S
C115 C117 1.392 . S
C115 H122 0.930 . S
N116 C113 1.329 . S
N116 C117 1.331 . S
C117 C115 1.392 . S
C117 N116 1.331 . S
O118 Zn111 1.975 . S
O118 C119 1.252 . S
C119 O118 1.252 . S
C119 O120 1.252 . S
O120 Zn102 1.975 . S
O120 C119 1.252 . S
H121 C114 0.930 . S
H122 C115 0.930 . S
C123 C124 1.392 . S
C123 N127 1.328 . S
C123 H129 0.930 . S
C124 C123 1.392 . S
C124 N128 1.331 . S
C125 C126 1.391 . S
C125 N128 1.329 . S
C125 H135 0.930 . S
C126 C125 1.391 . S
C126 N127 1.334 . S
C126 H133 0.930 . S
N127 Zn111 2.119 . S
N127 C123 1.328 . S
N127 C126 1.334 . S
N128 C124 1.331 . S
N128 C125 1.329 . S
H129 C123 0.930 . S
C130 O110 1.257 . S
C130 O131 1.244 . S
O131 C130 1.244 . S
O132 C108 1.257 . S
O132 Zn111 2.019 . S
H133 C126 0.930 . S
H134 C113 0.930 . S
H135 C125 0.930 . S
Zn136 N140 2.020 . S
Zn136 O144 2.019 . S
Zn136 N146 2.119 . S
Zn136 O154 1.975 . S
C137 N138 1.334 . S
C137 N141 1.338 . S
N138 C137 1.334 . S
N138 C139 1.334 . S
C139 N138 1.334 . S
C139 N140 1.336 . S
N140 Zn136 2.020 . S
N140 C139 1.336 . S
N140 N141 1.394 . S
N141 C137 1.338 . S
N141 N140 1.394 . S
N141 Zn145 1.984 1_556 S
C142 O143 1.244 . S
C142 O166 1.257 . S
O143 C142 1.244 . S
O144 Zn136 2.019 . S
O144 C164 1.257 . S
Zn145 N141 1.984 1_554 S
Zn145 O152 1.975 . S
Zn145 N161 2.119 . S
Zn145 O166 2.019 . S
N146 Zn136 2.119 . S
N146 C148 1.334 . S
N146 C149 1.328 . S
C147 C148 1.391 . S
C147 N150 1.329 . S
C147 H168 0.930 . S
C148 N146 1.334 . S
C148 C147 1.391 . S
C148 H155 0.930 . S
C149 N146 1.328 . S
C149 C151 1.392 . S
C149 H156 0.930 . S
N150 C147 1.329 . S
N150 C151 1.331 . S
C151 C149 1.392 . S
C151 N150 1.331 . S
O152 Zn145 1.975 . S
O152 C153 1.252 . S
C153 O152 1.252 . S
C153 O154 1.252 1_554 S
O154 Zn136 1.975 . S
O154 C153 1.252 1_556 S
H155 C148 0.930 . S
H156 C149 0.930 . S
C157 C158 1.392 . S
C157 N161 1.328 . S
C157 H163 0.930 . S
C158 C157 1.392 . S
C158 N162 1.331 . S
C159 C160 1.391 . S
C159 N162 1.329 . S
C159 H169 0.930 . S
C160 C159 1.391 . S
C160 N161 1.334 . S
C160 H167 0.930 . S
N161 Zn145 2.119 . S
N161 C157 1.328 . S
N161 C160 1.334 . S
N162 C158 1.331 . S
N162 C159 1.329 . S
H163 C157 0.930 . S
C164 O144 1.257 . S
C164 O165 1.244 . S
O165 C164 1.244 . S
O166 C142 1.257 . S
O166 Zn145 2.019 . S
H167 C160 0.930 . S
H168 C147 0.930 . S
H169 C159 0.930 . S
Zn170 N174 1.984 1_554 S
Zn170 O178 2.019 . S
Zn170 N180 2.119 1_545 S
Zn170 O188 1.975 . S
C171 N172 1.334 . S
C171 N175 1.336 . S
N172 C171 1.334 . S
N172 C173 1.334 . S
C173 N172 1.334 . S
C173 N174 1.338 . S
N174 Zn170 1.984 1_556 S
N174 C173 1.338 . S
N174 N175 1.394 . S
N175 C171 1.336 . S
N175 N174 1.394 . S
N175 Zn179 2.020 . S
C176 O177 1.244 . S
C176 O200 1.257 . S
O177 C176 1.244 . S
O178 Zn170 2.019 . S
O178 C198 1.257 . S
Zn179 N175 2.020 . S
Zn179 O186 1.975 1_545 S
Zn179 N195 2.119 . S
Zn179 O200 2.019 1_545 S
N180 Zn170 2.119 1_565 S
N180 C182 1.334 . S
N180 C183 1.328 . S
C181 C182 1.391 . S
C181 N184 1.329 . S
C181 H202 0.930 . S
C182 N180 1.334 . S
C182 C181 1.391 . S
C182 H189 0.930 . S
C183 N180 1.328 . S
C183 C185 1.392 . S
C183 H190 0.930 1_565 S
N184 C181 1.329 . S
N184 C185 1.331 . S
C185 C183 1.392 . S
C185 N184 1.331 . S
O186 Zn179 1.975 1_565 S
O186 C187 1.252 1_556 S
C187 O186 1.252 1_554 S
C187 O188 1.252 1_565 S
O188 Zn170 1.975 . S
O188 C187 1.252 1_545 S
H189 C182 0.930 . S
H190 C183 0.930 1_545 S
C191 C192 1.392 . S
C191 N195 1.328 . S
C191 H197 0.930 . S
C192 C191 1.392 . S
C192 N196 1.331 . S
C193 C194 1.391 . S
C193 N196 1.329 . S
C193 H203 0.930 . S
C194 C193 1.391 . S
C194 N195 1.334 . S
C194 H201 0.930 . S
N195 Zn179 2.119 . S
N195 C191 1.328 . S
N195 C194 1.334 . S
N196 C192 1.331 . S
N196 C193 1.329 . S
H197 C191 0.930 . S
C198 O178 1.257 . S
C198 O199 1.244 . S
O199 C198 1.244 . S
O200 C176 1.257 . S
O200 Zn179 2.019 1_565 S
H201 C194 0.930 . S
H202 C181 0.930 . S
H203 C193 0.930 . S
Zn204 N208 2.020 . S
Zn204 O212 2.019 1_545 S
Zn204 N214 2.119 . S
Zn204 O222 1.975 1_545 S
C205 N206 1.334 . S
C205 N209 1.336 . S
N206 C205 1.334 . S
N206 C207 1.334 . S
C207 N206 1.334 . S
C207 N208 1.336 . S
N208 Zn204 2.020 . S
N208 C207 1.336 . S
N208 N209 1.354 . S
N209 C205 1.336 . S
N209 N208 1.354 . S
N209 Zn213 2.020 . S
C210 O211 1.244 . S
C210 O234 1.257 . S
O211 C210 1.244 . S
O212 Zn204 2.019 1_565 S
O212 C232 1.257 . S
Zn213 N209 2.020 . S
Zn213 O220 1.975 . S
Zn213 N229 2.119 1_545 S
Zn213 O234 2.019 . S
N214 Zn204 2.119 . S
N214 C216 1.334 . S
N214 C217 1.328 . S
C215 C216 1.391 . S
C215 N218 1.329 . S
C215 H236 0.930 . S
C216 N214 1.334 . S
C216 C215 1.391 . S
C216 H223 0.930 . S
C217 N214 1.328 . S
C217 C219 1.392 . S
C217 H224 0.930 . S
N218 C215 1.329 . S
N218 C219 1.331 . S
C219 C217 1.392 . S
C219 N218 1.331 . S
O220 Zn213 1.975 . S
O220 C221 1.252 1_545 S
C221 O220 1.252 1_565 S
C221 O222 1.252 . S
O222 Zn204 1.975 1_565 S
O222 C221 1.252 . S
H223 C216 0.930 . S
H224 C217 0.930 . S
C225 C226 1.392 . S
C225 N229 1.328 . S
C225 H231 0.930 1_565 S
C226 C225 1.392 . S
C226 N230 1.331 . S
C227 C228 1.391 . S
C227 N230 1.329 . S
C227 H237 0.930 . S
C228 C227 1.391 . S
C228 N229 1.334 . S
C228 H235 0.930 . S
N229 Zn213 2.119 1_565 S
N229 C225 1.328 . S
N229 C228 1.334 . S
N230 C226 1.331 . S
N230 C227 1.329 . S
H231 C225 0.930 1_545 S
C232 O212 1.257 . S
C232 O233 1.244 . S
O233 C232 1.244 . S
O234 C210 1.257 . S
O234 Zn213 2.019 . S
H235 C228 0.930 . S
H236 C215 0.930 . S
H237 C227 0.930 . S
Zn238 N242 2.020 . S
Zn238 O246 2.019 . S
Zn238 N248 2.119 . S
Zn238 O256 1.975 . S
C239 N240 1.334 . S
C239 N243 1.336 . S
N240 C239 1.334 . S
N240 C241 1.334 . S
C241 N240 1.334 . S
C241 N242 1.336 . S
N242 Zn238 2.020 . S
N242 C241 1.336 . S
N242 N243 1.354 . S
N243 C239 1.336 . S
N243 N242 1.354 . S
N243 Zn247 2.020 . S
C244 O245 1.244 . S
C244 O268 1.257 . S
O245 C244 1.244 . S
O246 Zn238 2.019 . S
O246 C266 1.257 . S
Zn247 N243 2.020 . S
Zn247 O254 1.975 . S
Zn247 N263 2.119 . S
Zn247 O268 2.019 . S
N248 Zn238 2.119 . S
N248 C250 1.334 . S
N248 C251 1.328 . S
C249 C250 1.391 . S
C249 N252 1.329 . S
C249 H270 0.930 . S
C250 N248 1.334 . S
C250 C249 1.391 . S
C250 H257 0.930 . S
C251 N248 1.328 . S
C251 C253 1.392 . S
C251 H258 0.930 . S
N252 C249 1.329 . S
N252 C253 1.331 . S
C253 C251 1.392 . S
C253 N252 1.331 . S
O254 Zn247 1.975 . S
O254 C255 1.252 . S
C255 O254 1.252 . S
C255 O256 1.252 . S
O256 Zn238 1.975 . S
O256 C255 1.252 . S
H257 C250 0.930 . S
H258 C251 0.930 . S
C259 C260 1.392 . S
C259 N263 1.328 . S
C259 H265 0.930 . S
C260 C259 1.392 . S
C260 N264 1.331 . S
C261 C262 1.391 . S
C261 N264 1.329 . S
C261 H271 0.930 . S
C262 C261 1.391 . S
C262 N263 1.334 . S
C262 H269 0.930 . S
N263 Zn247 2.119 . S
N263 C259 1.328 . S
N263 C262 1.334 . S
N264 C260 1.331 . S
N264 C261 1.329 . S
H265 C259 0.930 . S
C266 O246 1.257 . S
C266 O267 1.244 . S
O267 C266 1.244 . S
O268 C244 1.257 . S
O268 Zn247 2.019 . S
H269 C262 0.930 . S
H270 C249 0.930 . S
H271 C261 0.930 . S
Zn272 N276 2.020 . S
Zn272 O280 2.019 . S
Zn272 N282 2.119 . S
Zn272 O290 1.975 . S
C273 N274 1.334 . S
C273 N277 1.336 . S
N274 C273 1.334 . S
N274 C275 1.334 . S
C275 N274 1.334 . S
C275 N276 1.336 . S
N276 Zn272 2.020 . S
N276 C275 1.336 . S
N276 N277 1.354 . S
N277 C273 1.336 . S
N277 N276 1.354 . S
N277 Zn281 2.020 . S
C278 O279 1.244 . S
C278 O302 1.257 . S
O279 C278 1.244 . S
O280 Zn272 2.019 . S
O280 C300 1.257 . S
Zn281 N277 2.020 . S
Zn281 O288 1.975 . S
Zn281 N297 2.119 . S
Zn281 O302 2.019 . S
N282 Zn272 2.119 . S
N282 C284 1.334 . S
N282 C285 1.328 . S
C283 C284 1.391 . S
C283 N286 1.329 . S
C283 H304 0.930 . S
C284 N282 1.334 . S
C284 C283 1.391 . S
C284 H291 0.930 . S
C285 N282 1.328 . S
C285 C287 1.392 . S
C285 H292 0.930 . S
N286 C283 1.329 . S
N286 C287 1.331 . S
C287 C285 1.392 . S
C287 N286 1.331 . S
O288 Zn281 1.975 . S
O288 C289 1.252 . S
C289 O288 1.252 . S
C289 O290 1.252 . S
O290 Zn272 1.975 . S
O290 C289 1.252 . S
H291 C284 0.930 . S
H292 C285 0.930 . S
C293 C294 1.392 . S
C293 N297 1.328 . S
C293 H299 0.930 . S
C294 C293 1.392 . S
C294 N298 1.331 . S
C295 C296 1.391 . S
C295 N298 1.329 . S
C295 H305 0.930 . S
C296 C295 1.391 . S
C296 N297 1.334 . S
C296 H303 0.930 . S
N297 Zn281 2.119 . S
N297 C293 1.328 . S
N297 C296 1.334 . S
N298 C294 1.331 . S
N298 C295 1.329 . S
H299 C293 0.930 . S
C300 O280 1.257 . S
C300 O301 1.244 . S
O301 C300 1.244 . S
O302 C278 1.257 . S
O302 Zn281 2.019 . S
H303 C296 0.930 . S
H304 C283 0.930 . S
H305 C295 0.930 . S
Zn306 N310 2.020 . S
Zn306 O314 2.019 . S
Zn306 N316 2.119 . S
Zn306 O324 1.975 . S
C307 N308 1.334 . S
C307 N311 1.336 . S
N308 C307 1.334 . S
N308 C309 1.334 . S
C309 N308 1.334 . S
C309 N310 1.336 . S
N310 Zn306 2.020 . S
N310 C309 1.336 . S
N310 N311 1.354 . S
N311 C307 1.336 . S
N311 N310 1.354 . S
N311 Zn315 2.020 . S
C312 O313 1.244 . S
C312 O336 1.257 . S
O313 C312 1.244 . S
O314 Zn306 2.019 . S
O314 C334 1.257 . S
Zn315 N311 2.020 . S
Zn315 O322 1.975 . S
Zn315 N331 2.119 . S
Zn315 O336 2.019 . S
N316 Zn306 2.119 . S
N316 C318 1.334 . S
N316 C319 1.328 . S
C317 C318 1.391 . S
C317 N320 1.329 . S
C317 H338 0.930 . S
C318 N316 1.334 . S
C318 C317 1.391 . S
C318 H325 0.930 . S
C319 N316 1.328 . S
C319 C321 1.392 . S
C319 H326 0.930 . S
N320 C317 1.329 . S
N320 C321 1.331 . S
C321 C319 1.392 . S
C321 N320 1.331 . S
O322 Zn315 1.975 . S
O322 C323 1.252 . S
C323 O322 1.252 . S
C323 O324 1.252 . S
O324 Zn306 1.975 . S
O324 C323 1.252 . S
H325 C318 0.930 . S
H326 C319 0.930 . S
C327 C328 1.392 . S
C327 N331 1.328 . S
C327 H333 0.930 . S
C328 C327 1.392 . S
C328 N332 1.331 . S
C329 C330 1.391 . S
C329 N332 1.329 . S
C329 H339 0.930 . S
C330 C329 1.391 . S
C330 N331 1.334 . S
C330 H337 0.930 . S
N331 Zn315 2.119 . S
N331 C327 1.328 . S
N331 C330 1.334 . S
N332 C328 1.331 . S
N332 C329 1.329 . S
H333 C327 0.930 . S
C334 O314 1.257 . S
C334 O335 1.244 . S
O335 C334 1.244 . S
O336 C312 1.257 . S
O336 Zn315 2.019 . S
H337 C330 0.930 . S
H338 C317 0.930 . S
H339 C329 0.930 . S
Zn340 N344 2.020 . S
Zn340 O348 2.019 . S
Zn340 N350 2.119 . S
Zn340 O358 1.975 . S
C341 N342 1.334 . S
C341 N345 1.336 . S
N342 C341 1.334 . S
N342 C343 1.334 . S
C343 N342 1.334 . S
C343 N344 1.336 . S
N344 Zn340 2.020 . S
N344 C343 1.336 . S
N344 N345 1.354 . S
N345 C341 1.336 . S
N345 N344 1.354 . S
N345 Zn349 2.020 . S
C346 O347 1.244 . S
C346 O370 1.257 . S
O347 C346 1.244 . S
O348 Zn340 2.019 . S
O348 C368 1.257 . S
Zn349 N345 2.020 . S
Zn349 O356 1.975 . S
Zn349 N365 2.119 . S
Zn349 O370 2.019 . S
N350 Zn340 2.119 . S
N350 C352 1.334 . S
N350 C353 1.328 . S
C351 C352 1.391 . S
C351 N354 1.329 . S
C351 H372 0.930 . S
C352 N350 1.334 . S
C352 C351 1.391 . S
C352 H359 0.930 . S
C353 N350 1.328 . S
C353 C355 1.392 . S
C353 H360 0.930 . S
N354 C351 1.329 . S
N354 C355 1.331 . S
C355 C353 1.392 . S
C355 N354 1.331 . S
O356 Zn349 1.975 . S
O356 C357 1.252 . S
C357 O356 1.252 . S
C357 O358 1.252 . S
O358 Zn340 1.975 . S
O358 C357 1.252 . S
H359 C352 0.930 . S
H360 C353 0.930 . S
C361 C362 1.392 . S
C361 N365 1.328 . S
C361 H367 0.930 . S
C362 C361 1.392 . S
C362 N366 1.331 . S
C363 C364 1.391 . S
C363 N366 1.329 . S
C363 H373 0.930 . S
C364 C363 1.391 . S
C364 N365 1.334 . S
C364 H371 0.930 . S
N365 Zn349 2.119 . S
N365 C361 1.328 . S
N365 C364 1.334 . S
N366 C362 1.331 . S
N366 C363 1.329 . S
H367 C361 0.930 . S
C368 O348 1.257 . S
C368 O369 1.244 . S
O369 C368 1.244 . S
O370 C346 1.257 . S
O370 Zn349 2.019 . S
H371 C364 0.930 . S
H372 C351 0.930 . S
H373 C363 0.930 . S
Zn374 N378 2.020 . S
Zn374 O382 2.019 . S
Zn374 N384 2.119 . S
Zn374 O392 1.975 . S
C375 N376 1.334 . S
C375 N379 1.336 . S
N376 C375 1.334 . S
N376 C377 1.334 . S
C377 N376 1.334 . S
C377 N378 1.336 . S
N378 Zn374 2.020 . S
N378 C377 1.336 . S
N378 N379 1.354 . S
N379 C375 1.336 . S
N379 N378 1.354 . S
N379 Zn383 2.020 . S
C380 O381 1.244 . S
C380 O404 1.257 . S
O381 C380 1.244 . S
O382 Zn374 2.019 . S
O382 C402 1.257 . S
Zn383 N379 2.020 . S
Zn383 O390 1.975 . S
Zn383 N399 2.119 . S
Zn383 O404 2.019 . S
N384 Zn374 2.119 . S
N384 C386 1.334 . S
N384 C387 1.328 . S
C385 C386 1.391 . S
C385 N388 1.329 . S
C385 H406 0.930 . S
C386 N384 1.334 . S
C386 C385 1.391 . S
C386 H393 0.930 . S
C387 N384 1.328 . S
C387 C389 1.392 . S
C387 H394 0.930 . S
N388 C385 1.329 . S
N388 C389 1.331 . S
C389 C387 1.392 . S
C389 N388 1.331 . S
O390 Zn383 1.975 . S
O390 C391 1.252 . S
C391 O390 1.252 . S
C391 O392 1.252 . S
O392 Zn374 1.975 . S
O392 C391 1.252 . S
H393 C386 0.930 . S
H394 C387 0.930 . S
C395 C396 1.392 . S
C395 N399 1.328 . S
C395 H401 0.930 . S
C396 C395 1.392 . S
C396 N400 1.331 . S
C397 C398 1.391 . S
C397 N400 1.329 . S
C397 H407 0.930 . S
C398 C397 1.391 . S
C398 N399 1.334 . S
C398 H405 0.930 . S
N399 Zn383 2.119 . S
N399 C395 1.328 . S
N399 C398 1.334 . S
N400 C396 1.331 . S
N400 C397 1.329 . S
H401 C395 0.930 . S
C402 O382 1.257 . S
C402 O403 1.244 . S
O403 C402 1.244 . S
O404 C380 1.257 . S
O404 Zn383 2.019 . S
H405 C398 0.930 . S
H406 C385 0.930 . S
H407 C397 0.930 . S
Zn408 N412 2.020 . S
Zn408 O416 2.019 . S
Zn408 N418 2.119 . S
Zn408 O426 1.975 . S
C409 N410 1.334 . S
C409 N413 1.336 . S
N410 C409 1.334 . S
N410 C411 1.334 . S
C411 N410 1.334 . S
C411 N412 1.336 . S
N412 Zn408 2.020 . S
N412 C411 1.336 . S
N412 N413 1.354 . S
N413 C409 1.336 . S
N413 N412 1.354 . S
N413 Zn417 2.020 . S
C414 O415 1.244 . S
C414 O438 1.257 . S
O415 C414 1.244 . S
O416 Zn408 2.019 . S
O416 C436 1.257 . S
Zn417 N413 2.020 . S
Zn417 O424 1.975 . S
Zn417 N433 2.119 . S
Zn417 O438 2.019 . S
N418 Zn408 2.119 . S
N418 C420 1.334 . S
N418 C421 1.328 . S
C419 C420 1.391 . S
C419 N422 1.329 . S
C419 H440 0.930 . S
C420 N418 1.334 . S
C420 C419 1.391 . S
C420 H427 0.930 . S
C421 N418 1.328 . S
C421 C423 1.392 . S
C421 H428 0.930 . S
N422 C419 1.329 . S
N422 C423 1.331 . S
C423 C421 1.392 . S
C423 N422 1.331 . S
O424 Zn417 1.975 . S
O424 C425 1.252 . S
C425 O424 1.252 . S
C425 O426 1.252 . S
O426 Zn408 1.975 . S
O426 C425 1.252 . S
H427 C420 0.930 . S
H428 C421 0.930 . S
C429 C430 1.392 . S
C429 N433 1.328 . S
C429 H435 0.930 . S
C430 C429 1.392 . S
C430 N434 1.331 . S
C431 C432 1.391 . S
C431 N434 1.329 . S
C431 H441 0.930 . S
C432 C431 1.391 . S
C432 N433 1.334 . S
C432 H439 0.930 . S
N433 Zn417 2.119 . S
N433 C429 1.328 . S
N433 C432 1.334 . S
N434 C430 1.331 . S
N434 C431 1.329 . S
H435 C429 0.930 . S
C436 O416 1.257 . S
C436 O437 1.244 . S
O437 C436 1.244 . S
O438 C414 1.257 . S
O438 Zn417 2.019 . S
H439 C432 0.930 . S
H440 C419 0.930 . S
H441 C431 0.930 . S
Zn442 N446 2.020 . S
Zn442 O450 2.019 . S
Zn442 N452 2.119 . S
Zn442 O460 1.975 . S
C443 N444 1.334 . S
C443 N447 1.336 . S
N444 C443 1.334 . S
N444 C445 1.334 . S
C445 N444 1.334 . S
C445 N446 1.336 . S
N446 Zn442 2.020 . S
N446 C445 1.336 . S
N446 N447 1.354 . S
N447 C443 1.336 . S
N447 N446 1.354 . S
N447 Zn451 2.020 . S
C448 O449 1.244 . S
C448 O472 1.257 . S
O449 C448 1.244 . S
O450 Zn442 2.019 . S
O450 C470 1.257 . S
Zn451 N447 2.020 . S
Zn451 O458 1.975 . S
Zn451 N467 2.119 . S
Zn451 O472 2.019 . S
N452 Zn442 2.119 . S
N452 C454 1.334 . S
N452 C455 1.328 . S
C453 C454 1.391 . S
C453 N456 1.329 . S
C453 H474 0.930 . S
C454 N452 1.334 . S
C454 C453 1.391 . S
C454 H461 0.930 . S
C455 N452 1.328 . S
C455 C457 1.392 . S
C455 H462 0.930 . S
N456 C453 1.329 . S
N456 C457 1.331 . S
C457 C455 1.392 . S
C457 N456 1.331 . S
O458 Zn451 1.975 . S
O458 C459 1.252 . S
C459 O458 1.252 . S
C459 O460 1.252 . S
O460 Zn442 1.975 . S
O460 C459 1.252 . S
H461 C454 0.930 . S
H462 C455 0.930 . S
C463 C464 1.392 . S
C463 N467 1.328 . S
C463 H469 0.930 . S
C464 C463 1.392 . S
C464 N468 1.331 . S
C465 C466 1.391 . S
C465 N468 1.329 . S
C465 H475 0.930 . S
C466 C465 1.391 . S
C466 N467 1.334 . S
C466 H473 0.930 . S
N467 Zn451 2.119 . S
N467 C463 1.328 . S
N467 C466 1.334 . S
N468 C464 1.331 . S
N468 C465 1.329 . S
H469 C463 0.930 . S
C470 O450 1.257 . S
C470 O471 1.244 . S
O471 C470 1.244 . S
O472 C448 1.257 . S
O472 Zn451 2.019 . S
H473 C466 0.930 . S
H474 C453 0.930 . S
H475 C465 0.930 . S
Zn476 N480 2.020 . S
Zn476 O484 2.019 . S
Zn476 N486 2.119 . S
Zn476 O494 1.975 . S
C477 N478 1.334 . S
C477 N481 1.336 . S
N478 C477 1.334 . S
N478 C479 1.334 . S
C479 N478 1.334 . S
C479 N480 1.336 . S
N480 Zn476 2.020 . S
N480 C479 1.336 . S
N480 N481 1.354 . S
N481 C477 1.336 . S
N481 N480 1.354 . S
N481 Zn485 2.020 . S
C482 O483 1.244 . S
C482 O506 1.257 . S
O483 C482 1.244 . S
O484 Zn476 2.019 . S
O484 C504 1.257 . S
Zn485 N481 2.020 . S
Zn485 O492 1.975 . S
Zn485 N501 2.119 . S
Zn485 O506 2.019 . S
N486 Zn476 2.119 . S
N486 C488 1.334 . S
N486 C489 1.328 . S
C487 C488 1.391 . S
C487 N490 1.329 . S
C487 H508 0.930 . S
C488 N486 1.334 . S
C488 C487 1.391 . S
C488 H495 0.930 . S
C489 N486 1.328 . S
C489 C491 1.392 . S
C489 H496 0.930 . S
N490 C487 1.329 . S
N490 C491 1.331 . S
C491 C489 1.392 . S
C491 N490 1.331 . S
O492 Zn485 1.975 . S
O492 C493 1.252 . S
C493 O492 1.252 . S
C493 O494 1.252 . S
O494 Zn476 1.975 . S
O494 C493 1.252 . S
H495 C488 0.930 . S
H496 C489 0.930 . S
C497 C498 1.392 . S
C497 N501 1.328 . S
C497 H503 0.930 . S
C498 C497 1.392 . S
C498 N502 1.331 . S
C499 C500 1.391 . S
C499 N502 1.329 . S
C499 H509 0.930 . S
C500 C499 1.391 . S
C500 N501 1.334 . S
C500 H507 0.930 . S
N501 Zn485 2.119 . S
N501 C497 1.328 . S
N501 C500 1.334 . S
N502 C498 1.331 . S
N502 C499 1.329 . S
H503 C497 0.930 . S
C504 O484 1.257 . S
C504 O505 1.244 . S
O505 C504 1.244 . S
O506 C482 1.257 . S
O506 Zn485 2.019 . S
H507 C500 0.930 . S
H508 C487 0.930 . S
H509 C499 0.930 . S
Zn510 N514 2.020 . S
Zn510 O518 2.019 . S
Zn510 N520 2.119 . S
Zn510 O528 1.975 . S
C511 N512 1.334 . S
C511 N515 1.336 . S
N512 C511 1.334 . S
N512 C513 1.334 . S
C513 N512 1.334 . S
C513 N514 1.336 . S
N514 Zn510 2.020 . S
N514 C513 1.336 . S
N514 N515 1.354 . S
N515 C511 1.336 . S
N515 N514 1.354 . S
N515 Zn519 2.020 . S
C516 O517 1.244 . S
C516 O540 1.257 . S
O517 C516 1.244 . S
O518 Zn510 2.019 . S
O518 C538 1.257 . S
Zn519 N515 2.020 . S
Zn519 O526 1.975 . S
Zn519 N535 2.119 . S
Zn519 O540 2.019 . S
N520 Zn510 2.119 . S
N520 C522 1.334 . S
N520 C523 1.328 . S
C521 C522 1.391 . S
C521 N524 1.329 . S
C521 H542 0.930 . S
C522 N520 1.334 . S
C522 C521 1.391 . S
C522 H529 0.930 . S
C523 N520 1.328 . S
C523 C525 1.392 . S
C523 H530 0.930 . S
N524 C521 1.329 . S
N524 C525 1.331 . S
C525 C523 1.392 . S
C525 N524 1.331 . S
O526 Zn519 1.975 . S
O526 C527 1.252 . S
C527 O526 1.252 . S
C527 O528 1.252 . S
O528 Zn510 1.975 . S
O528 C527 1.252 . S
H529 C522 0.930 . S
H530 C523 0.930 . S
C531 C532 1.392 . S
C531 N535 1.328 . S
C531 H537 0.930 . S
C532 C531 1.392 . S
C532 N536 1.331 . S
C533 C534 1.391 . S
C533 N536 1.329 . S
C533 H543 0.930 . S
C534 C533 1.391 . S
C534 N535 1.334 . S
C534 H541 0.930 . S
N535 Zn519 2.119 . S
N535 C531 1.328 . S
N535 C534 1.334 . S
N536 C532 1.331 . S
N536 C533 1.329 . S
H537 C531 0.930 . S
C538 O518 1.257 . S
C538 O539 1.244 . S
O539 C538 1.244 . S
O540 C516 1.257 . S
O540 Zn519 2.019 . S
H541 C534 0.930 . S
H542 C521 0.930 . S
H543 C533 0.930 . S
Zn544 N548 2.020 . S
Zn544 O552 2.019 . S
Zn544 N554 2.119 . S
Zn544 O562 1.975 . S
C545 N546 1.334 . S
C545 N549 1.336 . S
N546 C545 1.334 . S
N546 C547 1.334 . S
C547 N546 1.334 . S
C547 N548 1.336 . S
N548 Zn544 2.020 . S
N548 C547 1.336 . S
N548 N549 1.354 . S
N549 C545 1.336 . S
N549 N548 1.354 . S
N549 Zn553 2.020 . S
C550 O551 1.244 . S
C550 O574 1.257 . S
O551 C550 1.244 . S
O552 Zn544 2.019 . S
O552 C572 1.257 . S
Zn553 N549 2.020 . S
Zn553 O560 1.975 . S
Zn553 N569 2.119 . S
Zn553 O574 2.019 . S
N554 Zn544 2.119 . S
N554 C556 1.334 . S
N554 C557 1.328 . S
C555 C556 1.391 . S
C555 N558 1.329 . S
C555 H576 0.930 . S
C556 N554 1.334 . S
C556 C555 1.391 . S
C556 H563 0.930 . S
C557 N554 1.328 . S
C557 C559 1.392 . S
C557 H564 0.930 . S
N558 C555 1.329 . S
N558 C559 1.331 . S
C559 C557 1.392 . S
C559 N558 1.331 . S
O560 Zn553 1.975 . S
O560 C561 1.252 . S
C561 O560 1.252 . S
C561 O562 1.252 . S
O562 Zn544 1.975 . S
O562 C561 1.252 . S
H563 C556 0.930 . S
H564 C557 0.930 . S
C565 C566 1.392 . S
C565 N569 1.328 . S
C565 H571 0.930 . S
C566 C565 1.392 . S
C566 N570 1.331 . S
C567 C568 1.391 . S
C567 N570 1.329 . S
C567 H577 0.930 . S
C568 C567 1.391 . S
C568 N569 1.334 . S
C568 H575 0.930 . S
N569 Zn553 2.119 . S
N569 C565 1.328 . S
N569 C568 1.334 . S
N570 C566 1.331 . S
N570 C567 1.329 . S
H571 C565 0.930 . S
C572 O552 1.257 . S
C572 O573 1.244 . S
O573 C572 1.244 . S
O574 C550 1.257 . S
O574 Zn553 2.019 . S
H575 C568 0.930 . S
H576 C555 0.930 . S
H577 C567 0.930 . S
Zn578 N582 2.020 . S
Zn578 O586 2.019 . S
Zn578 N588 2.119 1_565 S
Zn578 O596 1.975 . S
C579 N580 1.334 . S
C579 N583 1.336 . S
N580 C579 1.334 . S
N580 C581 1.334 . S
C581 N580 1.334 . S
C581 N582 1.336 . S
N582 Zn578 2.020 . S
N582 C581 1.336 . S
N582 N583 1.354 . S
N583 C579 1.336 . S
N583 N582 1.354 . S
N583 Zn587 2.020 . S
C584 O585 1.244 . S
C584 O608 1.257 . S
O585 C584 1.244 . S
O586 Zn578 2.019 . S
O586 C606 1.257 . S
Zn587 N583 2.020 . S
Zn587 O594 1.975 1_565 S
Zn587 N603 2.119 . S
Zn587 O608 2.019 1_565 S
N588 Zn578 2.119 1_545 S
N588 C590 1.334 . S
N588 C591 1.328 . S
C589 C590 1.391 . S
C589 N592 1.329 . S
C589 H610 0.930 . S
C590 N588 1.334 . S
C590 C589 1.391 . S
C590 H597 0.930 . S
C591 N588 1.328 . S
C591 C593 1.392 . S
C591 H598 0.930 1_545 S
N592 C589 1.329 . S
N592 C593 1.331 . S
C593 C591 1.392 . S
C593 N592 1.331 . S
O594 Zn587 1.975 1_545 S
O594 C595 1.252 . S
C595 O594 1.252 . S
C595 O596 1.252 1_545 S
O596 Zn578 1.975 . S
O596 C595 1.252 1_565 S
H597 C590 0.930 . S
H598 C591 0.930 1_565 S
C599 C600 1.392 . S
C599 N603 1.328 . S
C599 H605 0.930 . S
C600 C599 1.392 . S
C600 N604 1.331 . S
C601 C602 1.391 . S
C601 N604 1.329 . S
C601 H611 0.930 . S
C602 C601 1.391 . S
C602 N603 1.334 . S
C602 H609 0.930 . S
N603 Zn587 2.119 . S
N603 C599 1.328 . S
N603 C602 1.334 . S
N604 C600 1.331 . S
N604 C601 1.329 . S
H605 C599 0.930 . S
C606 O586 1.257 . S
C606 O607 1.244 . S
O607 C606 1.244 . S
O608 C584 1.257 . S
O608 Zn587 2.019 1_545 S
H609 C602 0.930 . S
H610 C589 0.930 . S
H611 C601 0.930 . S
Zn612 N616 2.020 . S
Zn612 O620 2.019 1_565 S
Zn612 N622 2.119 . S
Zn612 O630 1.975 1_565 S
C613 N614 1.334 . S
C613 N617 1.336 . S
N614 C613 1.334 . S
N614 C615 1.334 . S
C615 N614 1.334 . S
C615 N616 1.336 . S
N616 Zn612 2.020 . S
N616 C615 1.336 . S
N616 N617 1.354 . S
N617 C613 1.336 . S
N617 N616 1.354 . S
N617 Zn621 2.020 . S
C618 O619 1.244 . S
C618 O642 1.257 . S
O619 C618 1.244 . S
O620 Zn612 2.019 1_545 S
O620 C640 1.257 . S
Zn621 N617 2.020 . S
Zn621 O628 1.975 . S
Zn621 N637 2.119 1_565 S
Zn621 O642 2.019 . S
N622 Zn612 2.119 . S
N622 C624 1.334 . S
N622 C625 1.328 . S
C623 C624 1.391 . S
C623 N626 1.329 . S
C623 H644 0.930 . S
C624 N622 1.334 . S
C624 C623 1.391 . S
C624 H631 0.930 . S
C625 N622 1.328 . S
C625 C627 1.392 . S
C625 H632 0.930 . S
N626 C623 1.329 . S
N626 C627 1.331 . S
C627 C625 1.392 . S
C627 N626 1.331 . S
O628 Zn621 1.975 . S
O628 C629 1.252 1_565 S
C629 O628 1.252 1_545 S
C629 O630 1.252 . S
O630 Zn612 1.975 1_545 S
O630 C629 1.252 . S
H631 C624 0.930 . S
H632 C625 0.930 . S
C633 C634 1.392 . S
C633 N637 1.328 . S
C633 H639 0.930 1_545 S
C634 C633 1.392 . S
C634 N638 1.331 . S
C635 C636 1.391 . S
C635 N638 1.329 . S
C635 H645 0.930 . S
C636 C635 1.391 . S
C636 N637 1.334 . S
C636 H643 0.930 . S
N637 Zn621 2.119 1_545 S
N637 C633 1.328 . S
N637 C636 1.334 . S
N638 C634 1.331 . S
N638 C635 1.329 . S
H639 C633 0.930 1_565 S
C640 O620 1.257 . S
C640 O641 1.244 . S
O641 C640 1.244 . S
O642 C618 1.257 . S
O642 Zn621 2.019 . S
H643 C636 0.930 . S
H644 C623 0.930 . S
H645 C635 0.930 . S
Zn646 N650 2.020 . S
Zn646 O654 2.019 . S
Zn646 N656 2.119 . S
Zn646 O664 1.975 . S
C647 N648 1.334 . S
C647 N651 1.336 . S
N648 C647 1.334 . S
N648 C649 1.334 . S
C649 N648 1.334 . S
C649 N650 1.336 . S
N650 Zn646 2.020 . S
N650 C649 1.336 . S
N650 N651 1.354 . S
N651 C647 1.336 . S
N651 N650 1.354 . S
N651 Zn655 2.020 . S
C652 O653 1.244 . S
C652 O676 1.257 . S
O653 C652 1.244 . S
O654 Zn646 2.019 . S
O654 C674 1.257 . S
Zn655 N651 2.020 . S
Zn655 O662 1.975 . S
Zn655 N671 2.119 . S
Zn655 O676 2.019 . S
N656 Zn646 2.119 . S
N656 C658 1.334 . S
N656 C659 1.328 . S
C657 C658 1.391 . S
C657 N660 1.329 . S
C657 H678 0.930 . S
C658 N656 1.334 . S
C658 C657 1.391 . S
C658 H665 0.930 . S
C659 N656 1.328 . S
C659 C661 1.392 . S
C659 H666 0.930 . S
N660 C657 1.329 . S
N660 C661 1.331 . S
C661 C659 1.392 . S
C661 N660 1.331 . S
O662 Zn655 1.975 . S
O662 C663 1.252 . S
C663 O662 1.252 . S
C663 O664 1.252 . S
O664 Zn646 1.975 . S
O664 C663 1.252 . S
H665 C658 0.930 . S
H666 C659 0.930 . S
C667 C668 1.392 . S
C667 N671 1.328 . S
C667 H673 0.930 . S
C668 C667 1.392 . S
C668 N672 1.331 . S
C669 C670 1.391 . S
C669 N672 1.329 . S
C669 H679 0.930 . S
C670 C669 1.391 . S
C670 N671 1.334 . S
C670 H677 0.930 . S
N671 Zn655 2.119 . S
N671 C667 1.328 . S
N671 C670 1.334 . S
N672 C668 1.331 . S
N672 C669 1.329 . S
H673 C667 0.930 . S
C674 O654 1.257 . S
C674 O675 1.244 . S
O675 C674 1.244 . S
O676 C652 1.257 . S
O676 Zn655 2.019 . S
H677 C670 0.930 . S
H678 C657 0.930 . S
H679 C669 0.930 . S
Zn680 N684 2.020 . S
Zn680 O688 2.019 . S
Zn680 N690 2.119 . S
Zn680 O698 1.975 . S
C681 N682 1.334 . S
C681 N685 1.336 . S
N682 C681 1.334 . S
N682 C683 1.334 . S
C683 N682 1.334 . S
C683 N684 1.336 . S
N684 Zn680 2.020 . S
N684 C683 1.336 . S
N684 N685 1.354 . S
N685 C681 1.336 . S
N685 N684 1.354 . S
N685 Zn689 2.020 . S
C686 O687 1.244 . S
C686 O710 1.257 . S
O687 C686 1.244 . S
O688 Zn680 2.019 . S
O688 C708 1.257 . S
Zn689 N685 2.020 . S
Zn689 O696 1.975 . S
Zn689 N705 2.119 . S
Zn689 O710 2.019 . S
N690 Zn680 2.119 . S
N690 C692 1.334 . S
N690 C693 1.328 . S
C691 C692 1.391 . S
C691 N694 1.329 . S
C691 H712 0.930 . S
C692 N690 1.334 . S
C692 C691 1.391 . S
C692 H699 0.930 . S
C693 N690 1.328 . S
C693 C695 1.392 . S
C693 H700 0.930 . S
N694 C691 1.329 . S
N694 C695 1.331 . S
C695 C693 1.392 . S
C695 N694 1.331 . S
O696 Zn689 1.975 . S
O696 C697 1.252 . S
C697 O696 1.252 . S
C697 O698 1.252 . S
O698 Zn680 1.975 . S
O698 C697 1.252 . S
H699 C692 0.930 . S
H700 C693 0.930 . S
C701 C702 1.392 . S
C701 N705 1.328 . S
C701 H707 0.930 . S
C702 C701 1.392 . S
C702 N706 1.331 . S
C703 C704 1.391 . S
C703 N706 1.329 . S
C703 H713 0.930 . S
C704 C703 1.391 . S
C704 N705 1.334 . S
C704 H711 0.930 . S
N705 Zn689 2.119 . S
N705 C701 1.328 . S
N705 C704 1.334 . S
N706 C702 1.331 . S
N706 C703 1.329 . S
H707 C701 0.930 . S
C708 O688 1.257 . S
C708 O709 1.244 . S
O709 C708 1.244 . S
O710 C686 1.257 . S
O710 Zn689 2.019 . S
H711 C704 0.930 . S
H712 C691 0.930 . S
H713 C703 0.930 . S
Zn714 N718 2.020 . S
Zn714 O722 2.019 . S
Zn714 N724 2.119 1_545 S
Zn714 O732 1.975 . S
C715 N716 1.334 . S
C715 N719 1.336 . S
N716 C715 1.334 . S
N716 C717 1.334 . S
C717 N716 1.334 . S
C717 N718 1.336 . S
N718 Zn714 2.020 . S
N718 C717 1.336 . S
N718 N719 1.354 . S
N719 C715 1.336 . S
N719 N718 1.354 . S
N719 Zn723 2.020 . S
C720 O721 1.244 . S
C720 O744 1.257 . S
O721 C720 1.244 . S
O722 Zn714 2.019 . S
O722 C742 1.257 . S
Zn723 N719 2.020 . S
Zn723 O730 1.975 1_545 S
Zn723 N739 2.119 . S
Zn723 O744 2.019 1_545 S
N724 Zn714 2.119 1_565 S
N724 C726 1.334 . S
N724 C727 1.328 . S
C725 C726 1.391 . S
C725 N728 1.329 . S
C725 H746 0.930 . S
C726 N724 1.334 . S
C726 C725 1.391 . S
C726 H733 0.930 . S
C727 N724 1.328 . S
C727 C729 1.392 . S
C727 H734 0.930 1_565 S
N728 C725 1.329 . S
N728 C729 1.331 . S
C729 C727 1.392 . S
C729 N728 1.331 . S
O730 Zn723 1.975 1_565 S
O730 C731 1.252 . S
C731 O730 1.252 . S
C731 O732 1.252 1_565 S
O732 Zn714 1.975 . S
O732 C731 1.252 1_545 S
H733 C726 0.930 . S
H734 C727 0.930 1_545 S
C735 C736 1.392 . S
C735 N739 1.328 . S
C735 H741 0.930 . S
C736 C735 1.392 . S
C736 N740 1.331 . S
C737 C738 1.391 . S
C737 N740 1.329 . S
C737 H747 0.930 . S
C738 C737 1.391 . S
C738 N739 1.334 . S
C738 H745 0.930 . S
N739 Zn723 2.119 . S
N739 C735 1.328 . S
N739 C738 1.334 . S
N740 C736 1.331 . S
N740 C737 1.329 . S
H741 C735 0.930 . S
C742 O722 1.257 . S
C742 O743 1.244 . S
O743 C742 1.244 . S
O744 C720 1.257 . S
O744 Zn723 2.019 1_565 S
H745 C738 0.930 . S
H746 C725 0.930 . S
H747 C737 0.930 . S
Zn748 N752 2.020 . S
Zn748 O756 2.019 1_545 S
Zn748 N758 2.119 . S
Zn748 O766 1.975 1_545 S
C749 N750 1.334 . S
C749 N753 1.336 . S
N750 C749 1.334 . S
N750 C751 1.334 . S
C751 N750 1.334 . S
C751 N752 1.336 . S
N752 Zn748 2.020 . S
N752 C751 1.336 . S
N752 N753 1.354 . S
N753 C749 1.336 . S
N753 N752 1.354 . S
N753 Zn757 2.020 . S
C754 O755 1.244 . S
C754 O778 1.257 . S
O755 C754 1.244 . S
O756 Zn748 2.019 1_565 S
O756 C776 1.257 . S
Zn757 N753 2.020 . S
Zn757 O764 1.975 . S
Zn757 N773 2.119 1_545 S
Zn757 O778 2.019 . S
N758 Zn748 2.119 . S
N758 C760 1.334 . S
N758 C761 1.328 . S
C759 C760 1.391 . S
C759 N762 1.329 . S
C759 H780 0.930 . S
C760 N758 1.334 . S
C760 C759 1.391 . S
C760 H767 0.930 . S
C761 N758 1.328 . S
C761 C763 1.392 . S
C761 H768 0.930 . S
N762 C759 1.329 . S
N762 C763 1.331 . S
C763 C761 1.392 . S
C763 N762 1.331 . S
O764 Zn757 1.975 . S
O764 C765 1.252 1_545 S
C765 O764 1.252 1_565 S
C765 O766 1.252 . S
O766 Zn748 1.975 1_565 S
O766 C765 1.252 . S
H767 C760 0.930 . S
H768 C761 0.930 . S
C769 C770 1.392 . S
C769 N773 1.328 . S
C769 H775 0.930 1_565 S
C770 C769 1.392 . S
C770 N774 1.331 . S
C771 C772 1.391 . S
C771 N774 1.329 . S
C771 H781 0.930 . S
C772 C771 1.391 . S
C772 N773 1.334 . S
C772 H779 0.930 . S
N773 Zn757 2.119 1_565 S
N773 C769 1.328 . S
N773 C772 1.334 . S
N774 C770 1.331 . S
N774 C771 1.329 . S
H775 C769 0.930 1_545 S
C776 O756 1.257 . S
C776 O777 1.244 . S
O777 C776 1.244 . S
O778 C754 1.257 . S
O778 Zn757 2.019 . S
H779 C772 0.930 . S
H780 C759 0.930 . S
H781 C771 0.930 . S
Zn782 N786 2.020 . S
Zn782 O790 2.019 . S
Zn782 N792 2.119 . S
Zn782 O800 1.975 . S
C783 N784 1.334 . S
C783 N787 1.336 . S
N784 C783 1.334 . S
N784 C785 1.334 . S
C785 N784 1.334 . S
C785 N786 1.336 . S
N786 Zn782 2.020 . S
N786 C785 1.336 . S
N786 N787 1.354 . S
N787 C783 1.336 . S
N787 N786 1.354 . S
N787 Zn791 2.020 . S
C788 O789 1.244 . S
C788 O812 1.257 . S
O789 C788 1.244 . S
O790 Zn782 2.019 . S
O790 C810 1.257 . S
Zn791 N787 2.020 . S
Zn791 O798 1.975 . S
Zn791 N807 2.119 . S
Zn791 O812 2.019 . S
N792 Zn782 2.119 . S
N792 C794 1.334 . S
N792 C795 1.328 . S
C793 C794 1.391 . S
C793 N796 1.329 . S
C793 H814 0.930 . S
C794 N792 1.334 . S
C794 C793 1.391 . S
C794 H801 0.930 . S
C795 N792 1.328 . S
C795 C797 1.392 . S
C795 H802 0.930 . S
N796 C793 1.329 . S
N796 C797 1.331 . S
C797 C795 1.392 . S
C797 N796 1.331 . S
O798 Zn791 1.975 . S
O798 C799 1.252 . S
C799 O798 1.252 . S
C799 O800 1.252 . S
O800 Zn782 1.975 . S
O800 C799 1.252 . S
H801 C794 0.930 . S
H802 C795 0.930 . S
C803 C804 1.392 . S
C803 N807 1.328 . S
C803 H809 0.930 . S
C804 C803 1.392 . S
C804 N808 1.331 . S
C805 C806 1.391 . S
C805 N808 1.329 . S
C805 H815 0.930 . S
C806 C805 1.391 . S
C806 N807 1.334 . S
C806 H813 0.930 . S
N807 Zn791 2.119 . S
N807 C803 1.328 . S
N807 C806 1.334 . S
N808 C804 1.331 . S
N808 C805 1.329 . S
H809 C803 0.930 . S
C810 O790 1.257 . S
C810 O811 1.244 . S
O811 C810 1.244 . S
O812 C788 1.257 . S
O812 Zn791 2.019 . S
H813 C806 0.930 . S
H814 C793 0.930 . S
H815 C805 0.930 . S
Zn816 N820 1.984 1_556 S
Zn816 O824 2.019 . S
Zn816 N826 2.119 . S
Zn816 O834 1.975 . S
C817 N818 1.334 . S
C817 N821 1.336 . S
N818 C817 1.334 . S
N818 C819 1.334 . S
C819 N818 1.334 . S
C819 N820 1.338 . S
N820 Zn816 1.984 1_554 S
N820 C819 1.338 . S
N820 N821 1.394 . S
N821 C817 1.336 . S
N821 N820 1.394 . S
N821 Zn825 2.020 . S
C822 O823 1.244 . S
C822 O846 1.257 . S
O823 C822 1.244 . S
O824 Zn816 2.019 . S
O824 C844 1.257 . S
Zn825 N821 2.020 . S
Zn825 O832 1.975 . S
Zn825 N841 2.119 . S
Zn825 O846 2.019 . S
N826 Zn816 2.119 . S
N826 C828 1.334 . S
N826 C829 1.328 . S
C827 C828 1.391 . S
C827 N830 1.329 . S
C827 H848 0.930 . S
C828 N826 1.334 . S
C828 C827 1.391 . S
C828 H835 0.930 . S
C829 N826 1.328 . S
C829 C831 1.392 . S
C829 H836 0.930 . S
N830 C827 1.329 . S
N830 C831 1.331 . S
C831 C829 1.392 . S
C831 N830 1.331 . S
O832 Zn825 1.975 . S
O832 C833 1.252 1_554 S
C833 O832 1.252 1_556 S
C833 O834 1.252 . S
O834 Zn816 1.975 . S
O834 C833 1.252 . S
H835 C828 0.930 . S
H836 C829 0.930 . S
C837 C838 1.392 . S
C837 N841 1.328 . S
C837 H843 0.930 . S
C838 C837 1.392 . S
C838 N842 1.331 . S
C839 C840 1.391 . S
C839 N842 1.329 . S
C839 H849 0.930 . S
C840 C839 1.391 . S
C840 N841 1.334 . S
C840 H847 0.930 . S
N841 Zn825 2.119 . S
N841 C837 1.328 . S
N841 C840 1.334 . S
N842 C838 1.331 . S
N842 C839 1.329 . S
H843 C837 0.930 . S
C844 O824 1.257 . S
C844 O845 1.244 . S
O845 C844 1.244 . S
O846 C822 1.257 . S
O846 Zn825 2.019 . S
H847 C840 0.930 . S
H848 C827 0.930 . S
H849 C839 0.930 . S
Zn850 N854 1.984 1_556 S
Zn850 O858 2.019 . S
Zn850 N860 2.119 . S
Zn850 O868 1.975 . S
C851 N852 1.334 . S
C851 N855 1.336 . S
N852 C851 1.334 . S
N852 C853 1.334 . S
C853 N852 1.334 . S
C853 N854 1.338 . S
N854 Zn850 1.984 1_554 S
N854 C853 1.338 . S
N854 N855 1.394 . S
N855 C851 1.336 . S
N855 N854 1.394 . S
N855 Zn859 2.020 . S
C856 O857 1.244 . S
C856 O880 1.257 . S
O857 C856 1.244 . S
O858 Zn850 2.019 . S
O858 C878 1.257 . S
Zn859 N855 2.020 . S
Zn859 O866 1.975 . S
Zn859 N875 2.119 . S
Zn859 O880 2.019 . S
N860 Zn850 2.119 . S
N860 C862 1.334 . S
N860 C863 1.328 . S
C861 C862 1.391 . S
C861 N864 1.329 . S
C861 H882 0.930 . S
C862 N860 1.334 . S
C862 C861 1.391 . S
C862 H869 0.930 . S
C863 N860 1.328 . S
C863 C865 1.392 . S
C863 H870 0.930 . S
N864 C861 1.329 . S
N864 C865 1.331 . S
C865 C863 1.392 . S
C865 N864 1.331 . S
O866 Zn859 1.975 . S
O866 C867 1.252 1_554 S
C867 O866 1.252 1_556 S
C867 O868 1.252 . S
O868 Zn850 1.975 . S
O868 C867 1.252 . S
H869 C862 0.930 . S
H870 C863 0.930 . S
C871 C872 1.392 . S
C871 N875 1.328 . S
C871 H877 0.930 . S
C872 C871 1.392 . S
C872 N876 1.331 . S
C873 C874 1.391 . S
C873 N876 1.329 . S
C873 H883 0.930 . S
C874 C873 1.391 . S
C874 N875 1.334 . S
C874 H881 0.930 . S
N875 Zn859 2.119 . S
N875 C871 1.328 . S
N875 C874 1.334 . S
N876 C872 1.331 . S
N876 C873 1.329 . S
H877 C871 0.930 . S
C878 O858 1.257 . S
C878 O879 1.244 . S
O879 C878 1.244 . S
O880 C856 1.257 . S
O880 Zn859 2.019 . S
H881 C874 0.930 . S
H882 C861 0.930 . S
H883 C873 0.930 . S
Zn884 N888 2.020 . S
Zn884 O892 2.019 . S
Zn884 N894 2.119 . S
Zn884 O902 1.975 . S
C885 N886 1.334 . S
C885 N889 1.336 . S
N886 C885 1.334 . S
N886 C887 1.334 . S
C887 N886 1.334 . S
C887 N888 1.336 . S
N888 Zn884 2.020 . S
N888 C887 1.336 . S
N888 N889 1.354 . S
N889 C885 1.336 . S
N889 N888 1.354 . S
N889 Zn893 2.020 . S
C890 O891 1.244 . S
C890 O914 1.257 . S
O891 C890 1.244 . S
O892 Zn884 2.019 . S
O892 C912 1.257 . S
Zn893 N889 2.020 . S
Zn893 O900 1.975 . S
Zn893 N909 2.119 . S
Zn893 O914 2.019 . S
N894 Zn884 2.119 . S
N894 C896 1.334 . S
N894 C897 1.328 . S
C895 C896 1.391 . S
C895 N898 1.329 . S
C895 H916 0.930 . S
C896 N894 1.334 . S
C896 C895 1.391 . S
C896 H903 0.930 . S
C897 N894 1.328 . S
C897 C899 1.392 . S
C897 H904 0.930 . S
N898 C895 1.329 . S
N898 C899 1.331 . S
C899 C897 1.392 . S
C899 N898 1.331 . S
O900 Zn893 1.975 . S
O900 C901 1.252 . S
C901 O900 1.252 . S
C901 O902 1.252 . S
O902 Zn884 1.975 . S
O902 C901 1.252 . S
H903 C896 0.930 . S
H904 C897 0.930 . S
C905 C906 1.392 . S
C905 N909 1.328 . S
C905 H911 0.930 . S
C906 C905 1.392 . S
C906 N910 1.331 . S
C907 C908 1.391 . S
C907 N910 1.329 . S
C907 H917 0.930 . S
C908 C907 1.391 . S
C908 N909 1.334 . S
C908 H915 0.930 . S
N909 Zn893 2.119 . S
N909 C905 1.328 . S
N909 C908 1.334 . S
N910 C906 1.331 . S
N910 C907 1.329 . S
H911 C905 0.930 . S
C912 O892 1.257 . S
C912 O913 1.244 . S
O913 C912 1.244 . S
O914 C890 1.257 . S
O914 Zn893 2.019 . S
H915 C908 0.930 . S
H916 C895 0.930 . S
H917 C907 0.930 . S
Zn918 N922 2.020 . S
Zn918 O926 2.019 . S
Zn918 N928 2.119 . S
Zn918 O936 1.975 . S
C919 N920 1.334 . S
C919 N923 1.336 . S
N920 C919 1.334 . S
N920 C921 1.334 . S
C921 N920 1.334 . S
C921 N922 1.336 . S
N922 Zn918 2.020 . S
N922 C921 1.336 . S
N922 N923 1.354 . S
N923 C919 1.336 . S
N923 N922 1.354 . S
N923 Zn927 2.020 . S
C924 O925 1.244 . S
C924 O948 1.257 . S
O925 C924 1.244 . S
O926 Zn918 2.019 . S
O926 C946 1.257 . S
Zn927 N923 2.020 . S
Zn927 O934 1.975 . S
Zn927 N943 2.119 . S
Zn927 O948 2.019 . S
N928 Zn918 2.119 . S
N928 C930 1.334 . S
N928 C931 1.328 . S
C929 C930 1.391 . S
C929 N932 1.329 . S
C929 H950 0.930 . S
C930 N928 1.334 . S
C930 C929 1.391 . S
C930 H937 0.930 . S
C931 N928 1.328 . S
C931 C933 1.392 . S
C931 H938 0.930 . S
N932 C929 1.329 . S
N932 C933 1.331 . S
C933 C931 1.392 . S
C933 N932 1.331 . S
O934 Zn927 1.975 . S
O934 C935 1.252 . S
C935 O934 1.252 . S
C935 O936 1.252 . S
O936 Zn918 1.975 . S
O936 C935 1.252 . S
H937 C930 0.930 . S
H938 C931 0.930 . S
C939 C940 1.392 . S
C939 N943 1.328 . S
C939 H945 0.930 . S
C940 C939 1.392 . S
C940 N944 1.331 . S
C941 C942 1.391 . S
C941 N944 1.329 . S
C941 H951 0.930 . S
C942 C941 1.391 . S
C942 N943 1.334 . S
C942 H949 0.930 . S
N943 Zn927 2.119 . S
N943 C939 1.328 . S
N943 C942 1.334 . S
N944 C940 1.331 . S
N944 C941 1.329 . S
H945 C939 0.930 . S
C946 O926 1.257 . S
C946 O947 1.244 . S
O947 C946 1.244 . S
O948 C924 1.257 . S
O948 Zn927 2.019 . S
H949 C942 0.930 . S
H950 C929 0.930 . S
H951 C941 0.930 . S
Zn952 N956 2.020 . S
Zn952 O960 2.019 . S
Zn952 N962 2.119 . S
Zn952 O970 1.975 . S
C953 N954 1.334 . S
C953 N957 1.338 . S
N954 C953 1.334 . S
N954 C955 1.334 . S
C955 N954 1.334 . S
C955 N956 1.336 . S
N956 Zn952 2.020 . S
N956 C955 1.336 . S
N956 N957 1.394 . S
N957 C953 1.338 . S
N957 N956 1.394 . S
N957 Zn961 1.984 1_556 S
C958 O959 1.244 . S
C958 O982 1.257 . S
O959 C958 1.244 . S
O960 Zn952 2.019 . S
O960 C980 1.257 . S
Zn961 N957 1.984 1_554 S
Zn961 O968 1.975 . S
Zn961 N977 2.119 . S
Zn961 O982 2.019 . S
N962 Zn952 2.119 . S
N962 C964 1.334 . S
N962 C965 1.328 . S
C963 C964 1.391 . S
C963 N966 1.329 . S
C963 H984 0.930 . S
C964 N962 1.334 . S
C964 C963 1.391 . S
C964 H971 0.930 . S
C965 N962 1.328 . S
C965 C967 1.392 . S
C965 H972 0.930 . S
N966 C963 1.329 . S
N966 C967 1.331 . S
C967 C965 1.392 . S
C967 N966 1.331 . S
O968 Zn961 1.975 . S
O968 C969 1.252 . S
C969 O968 1.252 . S
C969 O970 1.252 1_554 S
O970 Zn952 1.975 . S
O970 C969 1.252 1_556 S
H971 C964 0.930 . S
H972 C965 0.930 . S
C973 C974 1.392 . S
C973 N977 1.328 . S
C973 H979 0.930 . S
C974 C973 1.392 . S
C974 N978 1.331 . S
C975 C976 1.391 . S
C975 N978 1.329 . S
C975 H985 0.930 . S
C976 C975 1.391 . S
C976 N977 1.334 . S
C976 H983 0.930 . S
N977 Zn961 2.119 . S
N977 C973 1.328 . S
N977 C976 1.334 . S
N978 C974 1.331 . S
N978 C975 1.329 . S
H979 C973 0.930 . S
C980 O960 1.257 . S
C980 O981 1.244 . S
O981 C980 1.244 . S
O982 C958 1.257 . S
O982 Zn961 2.019 . S
H983 C976 0.930 . S
H984 C963 0.930 . S
H985 C975 0.930 . S
Zn986 N990 1.984 1_554 S
Zn986 O994 2.019 . S
Zn986 N996 2.119 . S
Zn986 O1004 1.975 . S
C987 N988 1.334 . S
C987 N991 1.336 . S
N988 C987 1.334 . S
N988 C989 1.334 . S
C989 N988 1.334 . S
C989 N990 1.338 . S
N990 Zn986 1.984 1_556 S
N990 C989 1.338 . S
N990 N991 1.394 . S
N991 C987 1.336 . S
N991 N990 1.394 . S
N991 Zn995 2.020 . S
C992 O993 1.244 . S
C992 O1016 1.257 . S
O993 C992 1.244 . S
O994 Zn986 2.019 . S
O994 C1014 1.257 . S
Zn995 N991 2.020 . S
Zn995 O1002 1.975 . S
Zn995 N1011 2.119 . S
Zn995 O1016 2.019 . S
N996 Zn986 2.119 . S
N996 C998 1.334 . S
N996 C999 1.328 . S
C997 C998 1.391 . S
C997 N1000 1.329 . S
C997 H1018 0.930 . S
C998 N996 1.334 . S
C998 C997 1.391 . S
C998 H1005 0.930 . S
C999 N996 1.328 . S
C999 C1001 1.392 . S
C999 H1006 0.930 . S
N1000 C997 1.329 . S
N1000 C1001 1.331 . S
C1001 C999 1.392 . S
C1001 N1000 1.331 . S
O1002 Zn995 1.975 . S
O1002 C1003 1.252 1_556 S
C1003 O1002 1.252 1_554 S
C1003 O1004 1.252 . S
O1004 Zn986 1.975 . S
O1004 C1003 1.252 . S
H1005 C998 0.930 . S
H1006 C999 0.930 . S
C1007 C1008 1.392 . S
C1007 N1011 1.328 . S
C1007 H1013 0.930 . S
C1008 C1007 1.392 . S
C1008 N1012 1.331 . S
C1009 C1010 1.391 . S
C1009 N1012 1.329 . S
C1009 H1019 0.930 . S
C1010 C1009 1.391 . S
C1010 N1011 1.334 . S
C1010 H1017 0.930 . S
N1011 Zn995 2.119 . S
N1011 C1007 1.328 . S
N1011 C1010 1.334 . S
N1012 C1008 1.331 . S
N1012 C1009 1.329 . S
H1013 C1007 0.930 . S
C1014 O994 1.257 . S
C1014 O1015 1.244 . S
O1015 C1014 1.244 . S
O1016 C992 1.257 . S
O1016 Zn995 2.019 . S
H1017 C1010 0.930 . S
H1018 C997 0.930 . S
H1019 C1009 0.930 . S
Zn1020 N1024 2.020 . S
Zn1020 O1028 2.019 . S
Zn1020 N1030 2.119 . S
Zn1020 O1038 1.975 . S
C1021 N1022 1.334 . S
C1021 N1025 1.336 . S
N1022 C1021 1.334 . S
N1022 C1023 1.334 . S
C1023 N1022 1.334 . S
C1023 N1024 1.336 . S
N1024 Zn1020 2.020 . S
N1024 C1023 1.336 . S
N1024 N1025 1.354 . S
N1025 C1021 1.336 . S
N1025 N1024 1.354 . S
N1025 Zn1029 2.020 . S
C1026 O1027 1.244 . S
C1026 O1050 1.257 . S
O1027 C1026 1.244 . S
O1028 Zn1020 2.019 . S
O1028 C1048 1.257 . S
Zn1029 N1025 2.020 . S
Zn1029 O1036 1.975 . S
Zn1029 N1045 2.119 . S
Zn1029 O1050 2.019 . S
N1030 Zn1020 2.119 . S
N1030 C1032 1.334 . S
N1030 C1033 1.328 . S
C1031 C1032 1.391 . S
C1031 N1034 1.329 . S
C1031 H1052 0.930 . S
C1032 N1030 1.334 . S
C1032 C1031 1.391 . S
C1032 H1039 0.930 . S
C1033 N1030 1.328 . S
C1033 C1035 1.392 . S
C1033 H1040 0.930 . S
N1034 C1031 1.329 . S
N1034 C1035 1.331 . S
C1035 C1033 1.392 . S
C1035 N1034 1.331 . S
O1036 Zn1029 1.975 . S
O1036 C1037 1.252 . S
C1037 O1036 1.252 . S
C1037 O1038 1.252 . S
O1038 Zn1020 1.975 . S
O1038 C1037 1.252 . S
H1039 C1032 0.930 . S
H1040 C1033 0.930 . S
C1041 C1042 1.392 . S
C1041 N1045 1.328 . S
C1041 H1047 0.930 . S
C1042 C1041 1.392 . S
C1042 N1046 1.331 . S
C1043 C1044 1.391 . S
C1043 N1046 1.329 . S
C1043 H1053 0.930 . S
C1044 C1043 1.391 . S
C1044 N1045 1.334 . S
C1044 H1051 0.930 . S
N1045 Zn1029 2.119 . S
N1045 C1041 1.328 . S
N1045 C1044 1.334 . S
N1046 C1042 1.331 . S
N1046 C1043 1.329 . S
H1047 C1041 0.930 . S
C1048 O1028 1.257 . S
C1048 O1049 1.244 . S
O1049 C1048 1.244 . S
O1050 C1026 1.257 . S
O1050 Zn1029 2.019 . S
H1051 C1044 0.930 . S
H1052 C1031 0.930 . S
H1053 C1043 0.930 . S
Zn1054 N1058 2.020 . S
Zn1054 O1062 2.019 . S
Zn1054 N1064 2.119 . S
Zn1054 O1072 1.975 . S
C1055 N1056 1.334 . S
C1055 N1059 1.336 . S
N1056 C1055 1.334 . S
N1056 C1057 1.334 . S
C1057 N1056 1.334 . S
C1057 N1058 1.336 . S
N1058 Zn1054 2.020 . S
N1058 C1057 1.336 . S
N1058 N1059 1.354 . S
N1059 C1055 1.336 . S
N1059 N1058 1.354 . S
N1059 Zn1063 2.020 . S
C1060 O1061 1.244 . S
C1060 O1084 1.257 . S
O1061 C1060 1.244 . S
O1062 Zn1054 2.019 . S
O1062 C1082 1.257 . S
Zn1063 N1059 2.020 . S
Zn1063 O1070 1.975 . S
Zn1063 N1079 2.119 . S
Zn1063 O1084 2.019 . S
N1064 Zn1054 2.119 . S
N1064 C1066 1.334 . S
N1064 C1067 1.328 . S
C1065 C1066 1.391 . S
C1065 N1068 1.329 . S
C1065 H1086 0.930 . S
C1066 N1064 1.334 . S
C1066 C1065 1.391 . S
C1066 H1073 0.930 . S
C1067 N1064 1.328 . S
C1067 C1069 1.392 . S
C1067 H1074 0.930 . S
N1068 C1065 1.329 . S
N1068 C1069 1.331 . S
C1069 C1067 1.392 . S
C1069 N1068 1.331 . S
O1070 Zn1063 1.975 . S
O1070 C1071 1.252 . S
C1071 O1070 1.252 . S
C1071 O1072 1.252 . S
O1072 Zn1054 1.975 . S
O1072 C1071 1.252 . S
H1073 C1066 0.930 . S
H1074 C1067 0.930 . S
C1075 C1076 1.392 . S
C1075 N1079 1.328 . S
C1075 H1081 0.930 . S
C1076 C1075 1.392 . S
C1076 N1080 1.331 . S
C1077 C1078 1.391 . S
C1077 N1080 1.329 . S
C1077 H1087 0.930 . S
C1078 C1077 1.391 . S
C1078 N1079 1.334 . S
C1078 H1085 0.930 . S
N1079 Zn1063 2.119 . S
N1079 C1075 1.328 . S
N1079 C1078 1.334 . S
N1080 C1076 1.331 . S
N1080 C1077 1.329 . S
H1081 C1075 0.930 . S
C1082 O1062 1.257 . S
C1082 O1083 1.244 . S
O1083 C1082 1.244 . S
O1084 C1060 1.257 . S
O1084 Zn1063 2.019 . S
H1085 C1078 0.930 . S
H1086 C1065 0.930 . S
H1087 C1077 0.930 . S
C1088 C1089 1.366 1_455 S
C1088 C1090 1.421 . S
C1088 H1092 0.929 . S
C1089 C1088 1.366 1_655 S
C1089 C1098 1.429 1_554 S
C1090 C1088 1.421 . S
C1090 C1091 1.363 1_554 S
C1090 H1093 0.929 . S
C1091 C1090 1.363 1_556 S
C1091 C1097 1.401 1_455 S
H1092 C1088 0.929 . S
H1093 C1090 0.929 . S
S1094 N1095 1.613 . S
S1094 N1096 1.610 . S
N1095 S1094 1.613 . S
N1095 C1098 1.350 . S
N1096 S1094 1.610 . S
N1096 C1097 1.359 . S
C1097 C1091 1.401 1_655 S
C1097 N1096 1.359 . S
C1097 C1098 1.460 . S
C1098 C1089 1.429 1_556 S
C1098 N1095 1.350 . S
C1098 C1097 1.460 . S
C1099 C1100 1.369 1_556 S
C1099 C1101 1.419 . S
C1099 H1103 0.930 . S
C1100 C1099 1.369 1_554 S
C1100 C1109 1.429 . S
C1101 C1099 1.419 . S
C1101 C1102 1.363 . S
C1101 H1104 0.929 . S
C1102 C1101 1.363 . S
C1102 C1108 1.428 1_556 S
H1103 C1099 0.930 . S
H1104 C1101 0.929 . S
S1105 N1106 1.613 . S
S1105 N1107 1.610 . S
N1106 S1105 1.613 . S
N1106 C1109 1.350 . S
N1107 S1105 1.610 . S
N1107 C1108 1.351 . S
C1108 C1102 1.428 1_554 S
C1108 N1107 1.351 . S
C1108 C1109 1.434 . S
C1109 C1100 1.429 . S
C1109 N1106 1.350 . S
C1109 C1108 1.434 . S
C1110 C1111 1.369 . S
C1110 C1112 1.419 1_655 S
C1110 H1114 0.930 . S
C1111 C1110 1.369 . S
C1111 C1120 1.429 . S
C1112 C1110 1.419 1_455 S
C1112 C1113 1.363 . S
C1112 H1115 0.929 . S
C1113 C1112 1.363 . S
C1113 C1119 1.428 . S
H1114 C1110 0.930 . S
H1115 C1112 0.929 . S
S1116 N1117 1.613 . S
S1116 N1118 1.610 1_655 S
N1117 S1116 1.613 . S
N1117 C1120 1.350 . S
N1118 S1116 1.610 1_455 S
N1118 C1119 1.351 . S
C1119 C1113 1.428 . S
C1119 N1118 1.351 . S
C1119 C1120 1.434 1_455 S
C1120 C1111 1.429 . S
C1120 N1117 1.350 . S
C1120 C1119 1.434 1_655 S
C1121 C1122 1.369 . S
C1121 C1123 1.419 . S
C1121 H1125 0.930 . S
C1122 C1121 1.369 . S
C1122 C1131 1.429 . S
C1123 C1121 1.419 . S
C1123 C1124 1.363 . S
C1123 H1126 0.929 . S
C1124 C1123 1.363 . S
C1124 C1130 1.428 . S
H1125 C1121 0.930 . S
H1126 C1123 0.929 . S
S1127 N1128 1.613 . S
S1127 N1129 1.610 . S
N1128 S1127 1.613 . S
N1128 C1131 1.350 . S
N1129 S1127 1.610 . S
N1129 C1130 1.351 . S
C1130 C1124 1.428 . S
C1130 N1129 1.351 . S
C1130 C1131 1.434 . S
C1131 C1122 1.429 . S
C1131 N1128 1.350 . S
C1131 C1130 1.434 . S
C1132 C1133 1.369 . S
C1132 C1134 1.419 . S
C1132 H1136 0.930 . S
C1133 C1132 1.369 . S
C1133 C1142 1.429 1_556 S
C1134 C1132 1.419 . S
C1134 C1135 1.363 1_556 S
C1134 H1137 0.929 . S
C1135 C1134 1.363 1_554 S
C1135 C1141 1.428 . S
H1136 C1132 0.930 . S
H1137 C1134 0.929 . S
S1138 N1139 1.613 . S
S1138 N1140 1.610 . S
N1139 S1138 1.613 . S
N1139 C1142 1.350 . S
N1140 S1138 1.610 . S
N1140 C1141 1.351 . S
C1141 C1135 1.428 . S
C1141 N1140 1.351 . S
C1141 C1142 1.434 . S
C1142 C1133 1.429 1_554 S
C1142 N1139 1.350 . S
C1142 C1141 1.434 . S
C1143 C1144 1.390 . S
C1143 C1145 1.399 1_655 S
C1143 H1147 0.930 . S
C1144 C1143 1.390 . S
C1144 C1153 1.429 . S
C1145 C1143 1.399 1_455 S
C1145 C1146 1.363 . S
C1145 H1148 0.929 . S
C1146 C1145 1.363 . S
C1146 C1152 1.429 . S
H1147 C1143 0.930 . S
H1148 C1145 0.929 . S
S1149 N1150 1.613 . S
S1149 N1151 1.610 . S
N1150 S1149 1.613 . S
N1150 C1153 1.350 . S
N1151 S1149 1.610 . S
N1151 C1152 1.351 1_655 S
C1152 C1146 1.429 . S
C1152 N1151 1.351 1_455 S
C1152 C1153 1.434 1_455 S
C1153 C1144 1.429 . S
C1153 N1150 1.350 . S
C1153 C1152 1.434 1_655 S
C1154 C1155 1.369 . S
C1154 C1156 1.419 . S
C1154 H1158 0.930 . S
C1155 C1154 1.369 . S
C1155 C1164 1.429 . S
C1156 C1154 1.419 . S
C1156 C1157 1.363 . S
C1156 H1159 0.929 . S
C1157 C1156 1.363 . S
C1157 C1163 1.428 . S
H1158 C1154 0.930 . S
H1159 C1156 0.929 . S
S1160 N1161 1.613 . S
S1160 N1162 1.610 . S
N1161 S1160 1.613 . S
N1161 C1164 1.350 . S
N1162 S1160 1.610 . S
N1162 C1163 1.351 . S
C1163 C1157 1.428 . S
C1163 N1162 1.351 . S
C1163 C1164 1.434 . S
C1164 C1155 1.429 . S
C1164 N1161 1.350 . S
C1164 C1163 1.434 . S
C1165 C1166 1.369 . S
C1165 C1167 1.419 1_465 S
C1165 H1169 0.930 . S
C1166 C1165 1.369 . S
C1166 C1175 1.429 . S
C1167 C1165 1.419 1_645 S
C1167 C1168 1.363 . S
C1167 H1170 0.929 . S
C1168 C1167 1.363 . S
C1168 C1174 1.428 . S
H1169 C1165 0.930 . S
H1170 C1167 0.929 . S
S1171 N1172 1.613 1_645 S
S1171 N1173 1.610 . S
N1172 S1171 1.613 1_465 S
N1172 C1175 1.350 . S
N1173 S1171 1.610 . S
N1173 C1174 1.351 . S
C1174 C1168 1.428 . S
C1174 N1173 1.351 . S
C1174 C1175 1.434 1_645 S
C1175 C1166 1.429 . S
C1175 N1172 1.350 . S
C1175 C1174 1.434 1_465 S
C1176 C1177 1.369 . S
C1176 C1178 1.419 . S
C1176 H1180 0.930 . S
C1177 C1176 1.369 . S
C1177 C1186 1.429 . S
C1178 C1176 1.419 . S
C1178 C1179 1.363 . S
C1178 H1181 0.929 . S
C1179 C1178 1.363 . S
C1179 C1185 1.428 . S
H1180 C1176 0.930 . S
H1181 C1178 0.929 . S
S1182 N1183 1.613 . S
S1182 N1184 1.610 . S
N1183 S1182 1.613 . S
N1183 C1186 1.350 . S
N1184 S1182 1.610 . S
N1184 C1185 1.351 . S
C1185 C1179 1.428 . S
C1185 N1184 1.351 . S
C1185 C1186 1.434 . S
C1186 C1177 1.429 . S
C1186 N1183 1.350 . S
C1186 C1185 1.434 . S
C1187 C1188 1.369 . S
C1187 C1189 1.419 1_545 S
C1187 H1191 0.930 . S
C1188 C1187 1.369 . S
C1188 C1197 1.429 . S
C1189 C1187 1.419 1_565 S
C1189 C1190 1.363 . S
C1189 H1192 0.929 . S
C1190 C1189 1.363 . S
C1190 C1196 1.428 . S
H1191 C1187 0.930 . S
H1192 C1189 0.929 . S
S1193 N1194 1.613 . S
S1193 N1195 1.610 . S
N1194 S1193 1.613 . S
N1194 C1197 1.350 . S
N1195 S1193 1.610 . S
N1195 C1196 1.351 1_545 S
C1196 C1190 1.428 . S
C1196 N1195 1.351 1_565 S
C1196 C1197 1.434 1_565 S
C1197 C1188 1.429 . S
C1197 N1194 1.350 . S
C1197 C1196 1.434 1_545 S
C1198 C1199 1.369 . S
C1198 C1200 1.419 . S
C1198 H1202 0.930 . S
C1199 C1198 1.369 . S
C1199 C1208 1.429 . S
C1200 C1198 1.419 . S
C1200 C1201 1.363 . S
C1200 H1203 0.929 . S
C1201 C1200 1.363 . S
C1201 C1207 1.428 . S
H1202 C1198 0.930 . S
H1203 C1200 0.929 . S
S1204 N1205 1.613 . S
S1204 N1206 1.610 . S
N1205 S1204 1.613 . S
N1205 C1208 1.350 . S
N1206 S1204 1.610 . S
N1206 C1207 1.351 . S
C1207 C1201 1.428 . S
C1207 N1206 1.351 . S
C1207 C1208 1.434 . S
C1208 C1199 1.429 . S
C1208 N1205 1.350 . S
C1208 C1207 1.434 . S
C1209 C1210 1.378 . S
C1209 C1211 1.410 1_565 S
C1209 H1213 0.930 1_565 S
C1210 C1209 1.378 . S
C1210 C1219 1.429 . S
C1211 C1209 1.410 1_545 S
C1211 C1212 1.363 . S
C1211 H1214 0.929 . S
C1212 C1211 1.363 . S
C1212 C1218 1.428 1_545 S
H1213 C1209 0.930 1_545 S
H1214 C1211 0.929 . S
S1215 N1216 1.613 . S
S1215 N1217 1.610 . S
N1216 S1215 1.613 . S
N1216 C1219 1.350 . S
N1217 S1215 1.610 . S
N1217 C1218 1.351 . S
C1218 C1212 1.428 1_565 S
C1218 N1217 1.351 . S
C1218 C1219 1.434 . S
C1219 C1210 1.429 . S
C1219 N1216 1.350 . S
C1219 C1218 1.434 . S
C1220 C1221 1.369 . S
C1220 C1222 1.419 . S
C1220 H1224 0.930 . S
C1221 C1220 1.369 . S
C1221 C1230 1.429 . S
C1222 C1220 1.419 . S
C1222 C1223 1.363 . S
C1222 H1225 0.929 . S
C1223 C1222 1.363 . S
C1223 C1229 1.428 . S
H1224 C1220 0.930 . S
H1225 C1222 0.929 . S
S1226 N1227 1.613 . S
S1226 N1228 1.610 . S
N1227 S1226 1.613 . S
N1227 C1230 1.350 . S
N1228 S1226 1.610 . S
N1228 C1229 1.351 . S
C1229 C1223 1.428 . S
C1229 N1228 1.351 . S
C1229 C1230 1.434 . S
C1230 C1221 1.429 . S
C1230 N1227 1.350 . S
C1230 C1229 1.434 . S
C1231 C1232 1.369 . S
C1231 C1233 1.419 . S
C1231 H1235 0.930 . S
C1232 C1231 1.369 . S
C1232 C1241 1.429 . S
C1233 C1231 1.419 . S
C1233 C1234 1.363 . S
C1233 H1236 0.929 . S
C1234 C1233 1.363 . S
C1234 C1240 1.428 . S
H1235 C1231 0.930 . S
H1236 C1233 0.929 . S
S1237 N1238 1.613 . S
S1237 N1239 1.610 . S
N1238 S1237 1.613 . S
N1238 C1241 1.350 . S
N1239 S1237 1.610 . S
N1239 C1240 1.351 . S
C1240 C1234 1.428 . S
C1240 N1239 1.351 . S
C1240 C1241 1.434 . S
C1241 C1232 1.429 . S
C1241 N1238 1.350 . S
C1241 C1240 1.434 . S
C1242 C1243 1.369 . S
C1242 C1244 1.419 . S
C1242 H1246 0.930 . S
C1243 C1242 1.369 . S
C1243 C1252 1.429 . S
C1244 C1242 1.419 . S
C1244 C1245 1.363 . S
C1244 H1247 0.929 . S
C1245 C1244 1.363 . S
C1245 C1251 1.428 . S
H1246 C1242 0.930 . S
H1247 C1244 0.929 . S
S1248 N1249 1.613 . S
S1248 N1250 1.610 . S
N1249 S1248 1.613 . S
N1249 C1252 1.350 . S
N1250 S1248 1.610 . S
N1250 C1251 1.351 . S
C1251 C1245 1.428 . S
C1251 N1250 1.351 . S
C1251 C1252 1.434 . S
C1252 C1243 1.429 . S
C1252 N1249 1.350 . S
C1252 C1251 1.434 . S
C1253 C1254 1.369 1_554 S
C1253 C1255 1.419 1_565 S
C1253 H1257 0.930 . S
C1254 C1253 1.369 1_556 S
C1254 C1263 1.429 . S
C1255 C1253 1.419 1_545 S
C1255 C1256 1.363 . S
C1255 H1258 0.929 . S
C1256 C1255 1.363 . S
C1256 C1262 1.428 1_554 S
H1257 C1253 0.930 . S
H1258 C1255 0.929 . S
S1259 N1260 1.613 . S
S1259 N1261 1.610 . S
N1260 S1259 1.613 . S
N1260 C1263 1.350 1_545 S
N1261 S1259 1.610 . S
N1261 C1262 1.351 . S
C1262 C1256 1.428 1_556 S
C1262 N1261 1.351 . S
C1262 C1263 1.434 1_545 S
C1263 C1254 1.429 . S
C1263 N1260 1.350 1_565 S
C1263 C1262 1.434 1_565 S
C1264 C1265 1.369 1_455 S
C1264 C1266 1.419 1_455 S
C1264 H1268 0.930 . S
C1265 C1264 1.369 1_655 S
C1265 C1274 1.429 . S
C1266 C1264 1.419 1_655 S
C1266 C1267 1.363 . S
C1266 H1269 0.929 1_655 S
C1267 C1266 1.363 . S
C1267 C1273 1.428 . S
H1268 C1264 0.930 . S
H1269 C1266 0.929 1_455 S
S1270 N1271 1.613 . S
S1270 N1272 1.610 . S
N1271 S1270 1.613 . S
N1271 C1274 1.350 . S
N1272 S1270 1.610 . S
N1272 C1273 1.351 . S
C1273 C1267 1.428 . S
C1273 N1272 1.351 . S
C1273 C1274 1.434 . S
C1274 C1265 1.429 . S
C1274 N1271 1.350 . S
C1274 C1273 1.434 . S
C1275 C1276 1.369 . S
C1275 C1277 1.419 . S
C1275 H1279 0.930 . S
C1276 C1275 1.369 . S
C1276 C1285 1.429 . S
C1277 C1275 1.419 . S
C1277 C1278 1.363 . S
C1277 H1280 0.929 . S
C1278 C1277 1.363 . S
C1278 C1284 1.428 . S
H1279 C1275 0.930 . S
H1280 C1277 0.929 . S
S1281 N1282 1.613 1_565 S
S1281 N1283 1.610 1_565 S
N1282 S1281 1.613 1_545 S
N1282 C1285 1.350 . S
N1283 S1281 1.610 1_545 S
N1283 C1284 1.351 . S
C1284 C1278 1.428 . S
C1284 N1283 1.351 . S
C1284 C1285 1.434 . S
C1285 C1276 1.429 . S
C1285 N1282 1.350 . S
C1285 C1284 1.434 . S
C1286 C1287 1.414 . S
C1286 C1288 1.401 1_655 S
C1286 H1290 0.903 1_655 S
C1287 C1286 1.414 . S
C1287 C1296 1.429 . S
C1288 C1286 1.401 1_455 S
C1288 C1289 1.363 1_455 S
C1288 H1291 0.929 . S
C1289 C1288 1.363 1_655 S
C1289 C1295 1.428 . S
H1290 C1286 0.903 1_455 S
H1291 C1288 0.929 . S
S1292 N1293 1.613 . S
S1292 N1294 1.610 . S
N1293 S1292 1.613 . S
N1293 C1296 1.350 . S
N1294 S1292 1.610 . S
N1294 C1295 1.351 . S
C1295 C1289 1.428 . S
C1295 N1294 1.351 . S
C1295 C1296 1.434 . S
C1296 C1287 1.429 . S
C1296 N1293 1.350 . S
C1296 C1295 1.434 . S
C1297 C1298 1.369 . S
C1297 C1299 1.419 . S
C1297 H1301 0.930 . S
C1298 C1297 1.369 . S
C1298 C1307 1.429 . S
C1299 C1297 1.419 . S
C1299 C1300 1.363 . S
C1299 H1302 0.929 . S
C1300 C1299 1.363 . S
C1300 C1306 1.428 . S
H1301 C1297 0.930 . S
H1302 C1299 0.929 . S
S1303 N1304 1.613 . S
S1303 N1305 1.610 . S
N1304 S1303 1.613 . S
N1304 C1307 1.350 . S
N1305 S1303 1.610 . S
N1305 C1306 1.351 . S
C1306 C1300 1.428 . S
C1306 N1305 1.351 . S
C1306 C1307 1.434 . S
C1307 C1298 1.429 . S
C1307 N1304 1.350 . S
C1307 C1306 1.434 . S
C1308 C1309 1.416 . S
C1308 C1310 1.400 1_455 S
C1308 H1312 0.903 1_455 S
C1309 C1308 1.416 . S
C1309 C1318 1.429 . S
C1310 C1308 1.400 1_655 S
C1310 C1311 1.363 1_655 S
C1310 H1313 0.929 . S
C1311 C1310 1.363 1_455 S
C1311 C1317 1.428 . S
H1312 C1308 0.903 1_655 S
H1313 C1310 0.929 . S
S1314 N1315 1.613 . S
S1314 N1316 1.610 . S
N1315 S1314 1.613 . S
N1315 C1318 1.350 . S
N1316 S1314 1.610 . S
N1316 C1317 1.351 . S
C1317 C1311 1.428 . S
C1317 N1316 1.351 . S
C1317 C1318 1.434 . S
C1318 C1309 1.429 . S
C1318 N1315 1.350 . S
C1318 C1317 1.434 . S
C1319 C1320 1.369 . S
C1319 C1321 1.419 . S
C1319 H1323 0.930 . S
C1320 C1319 1.369 . S
C1320 C1329 1.429 . S
C1321 C1319 1.419 . S
C1321 C1322 1.363 . S
C1321 H1324 0.929 . S
C1322 C1321 1.363 . S
C1322 C1328 1.428 . S
H1323 C1319 0.930 . S
H1324 C1321 0.929 . S
S1325 N1326 1.613 . S
S1325 N1327 1.610 . S
N1326 S1325 1.613 . S
N1326 C1329 1.350 . S
N1327 S1325 1.610 . S
N1327 C1328 1.351 . S
C1328 C1322 1.428 . S
C1328 N1327 1.351 . S
C1328 C1329 1.434 . S
C1329 C1320 1.429 . S
C1329 N1326 1.350 . S
C1329 C1328 1.434 . S
C1330 C1331 1.369 . S
C1330 C1332 1.419 . S
C1330 H1334 0.930 . S
C1331 C1330 1.369 . S
C1331 C1340 1.429 1_455 S
C1332 C1330 1.419 . S
C1332 C1333 1.363 . S
C1332 H1335 0.929 . S
C1333 C1332 1.363 . S
C1333 C1339 1.428 . S
H1334 C1330 0.930 . S
H1335 C1332 0.929 . S
S1336 N1337 1.613 . S
S1336 N1338 1.610 . S
N1337 S1336 1.613 . S
N1337 C1340 1.350 . S
N1338 S1336 1.610 . S
N1338 C1339 1.351 1_655 S
C1339 C1333 1.428 . S
C1339 N1338 1.351 1_455 S
C1339 C1340 1.434 1_455 S
C1340 C1331 1.429 1_655 S
C1340 N1337 1.350 . S
C1340 C1339 1.434 1_655 S
C1341 C1342 1.369 . S
C1341 C1343 1.419 . S
C1341 H1345 0.930 . S
C1342 C1341 1.369 . S
C1342 C1351 1.429 . S
C1343 C1341 1.419 . S
C1343 C1344 1.363 . S
C1343 H1346 0.929 . S
C1344 C1343 1.363 . S
C1344 C1350 1.428 . S
H1345 C1341 0.930 . S
H1346 C1343 0.929 . S
S1347 N1348 1.613 1_545 S
S1347 N1349 1.610 1_545 S
N1348 S1347 1.613 1_565 S
N1348 C1351 1.350 . S
N1349 S1347 1.610 1_565 S
N1349 C1350 1.351 . S
C1350 C1344 1.428 . S
C1350 N1349 1.351 . S
C1350 C1351 1.434 . S
C1351 C1342 1.429 . S
C1351 N1348 1.350 . S
C1351 C1350 1.434 . S
C1352 C1353 1.369 . S
C1352 C1354 1.419 . S
C1352 H1356 0.917 1_655 S
C1353 C1352 1.369 . S
C1353 C1362 1.429 . S
C1354 C1352 1.419 . S
C1354 C1355 1.363 . S
C1354 H1357 0.929 . S
C1355 C1354 1.363 . S
C1355 C1361 1.428 . S
H1356 C1352 0.917 1_455 S
H1357 C1354 0.929 . S
S1358 N1359 1.613 . S
S1358 N1360 1.610 . S
N1359 S1358 1.613 . S
N1359 C1362 1.350 . S
N1360 S1358 1.610 . S
N1360 C1361 1.351 . S
C1361 C1355 1.428 . S
C1361 N1360 1.351 . S
C1361 C1362 1.434 . S
C1362 C1353 1.429 . S
C1362 N1359 1.350 . S
C1362 C1361 1.434 . S
C1363 C1364 1.369 . S
C1363 C1365 1.419 . S
C1363 H1367 0.930 . S
C1364 C1363 1.369 . S
C1364 C1373 1.429 . S
C1365 C1363 1.419 . S
C1365 C1366 1.363 . S
C1365 H1368 0.929 . S
C1366 C1365 1.363 . S
C1366 C1372 1.428 . S
H1367 C1363 0.930 . S
H1368 C1365 0.929 . S
S1369 N1370 1.613 . S
S1369 N1371 1.610 . S
N1370 S1369 1.613 . S
N1370 C1373 1.350 . S
N1371 S1369 1.610 . S
N1371 C1372 1.351 . S
C1372 C1366 1.428 . S
C1372 N1371 1.351 . S
C1372 C1373 1.434 . S
C1373 C1364 1.429 . S
C1373 N1370 1.350 . S
C1373 C1372 1.434 . S
C1374 C1375 1.369 . S
C1374 C1376 1.419 . S
C1374 H1378 0.930 . S
C1375 C1374 1.369 . S
C1375 C1384 1.429 . S
C1376 C1374 1.419 . S
C1376 C1377 1.363 . S
C1376 H1379 0.929 . S
C1377 C1376 1.363 . S
C1377 C1383 1.428 1_655 S
H1378 C1374 0.930 . S
H1379 C1376 0.929 . S
S1380 N1381 1.613 . S
S1380 N1382 1.610 . S
N1381 S1380 1.613 . S
N1381 C1384 1.350 1_455 S
N1382 S1380 1.610 . S
N1382 C1383 1.351 . S
C1383 C1377 1.428 1_455 S
C1383 N1382 1.351 . S
C1383 C1384 1.434 1_455 S
C1384 C1375 1.429 . S
C1384 N1381 1.350 1_655 S
C1384 C1383 1.434 1_655 S
C1385 C1386 1.369 . S
C1385 C1387 1.419 . S
C1385 H1389 0.930 . S
C1386 C1385 1.369 . S
C1386 C1395 1.429 . S
C1387 C1385 1.419 . S
C1387 C1388 1.363 . S
C1387 H1390 0.929 . S
C1388 C1387 1.363 . S
C1388 C1394 1.428 . S
H1389 C1385 0.930 . S
H1390 C1387 0.929 . S
S1391 N1392 1.613 . S
S1391 N1393 1.610 . S
N1392 S1391 1.613 . S
N1392 C1395 1.350 . S
N1393 S1391 1.610 . S
N1393 C1394 1.351 . S
C1394 C1388 1.428 . S
C1394 N1393 1.351 . S
C1394 C1395 1.434 . S
C1395 C1386 1.429 . S
C1395 N1392 1.350 . S
C1395 C1394 1.434 . S
C1396 C1397 1.369 . S
C1396 C1398 1.419 . S
C1396 H1400 0.930 . S
C1397 C1396 1.369 . S
C1397 C1406 1.429 1_455 S
C1398 C1396 1.419 . S
C1398 C1399 1.363 . S
C1398 H1401 0.929 . S
C1399 C1398 1.363 . S
C1399 C1405 1.428 . S
H1400 C1396 0.930 . S
H1401 C1398 0.929 . S
S1402 N1403 1.613 . S
S1402 N1404 1.610 . S
N1403 S1402 1.613 . S
N1403 C1406 1.350 . S
N1404 S1402 1.610 . S
N1404 C1405 1.351 1_655 S
C1405 C1399 1.428 . S
C1405 N1404 1.351 1_455 S
C1405 C1406 1.434 1_455 S
C1406 C1397 1.429 1_655 S
C1406 N1403 1.350 . S
C1406 C1405 1.434 1_655 S
C1407 C1408 1.369 . S
C1407 C1409 1.419 . S
C1407 H1411 0.930 . S
C1408 C1407 1.369 . S
C1408 C1417 1.429 . S
C1409 C1407 1.419 . S
C1409 C1410 1.363 . S
C1409 H1412 0.929 . S
C1410 C1409 1.363 . S
C1410 C1416 1.428 . S
H1411 C1407 0.930 . S
H1412 C1409 0.929 . S
S1413 N1414 1.613 . S
S1413 N1415 1.610 . S
N1414 S1413 1.613 . S
N1414 C1417 1.350 . S
N1415 S1413 1.610 . S
N1415 C1416 1.351 . S
C1416 C1410 1.428 . S
C1416 N1415 1.351 . S
C1416 C1417 1.434 . S
C1417 C1408 1.429 . S
C1417 N1414 1.350 . S
C1417 C1416 1.434 . S
C1418 C1419 1.369 . S
C1418 C1420 1.419 . S
C1418 H1422 0.930 1_455 S
C1419 C1418 1.369 . S
C1419 C1428 1.429 . S
C1420 C1418 1.419 . S
C1420 C1421 1.363 . S
C1420 H1423 0.929 . S
C1421 C1420 1.363 . S
C1421 C1427 1.428 . S
H1422 C1418 0.930 1_655 S
H1423 C1420 0.929 . S
S1424 N1425 1.613 . S
S1424 N1426 1.610 . S
N1425 S1424 1.613 . S
N1425 C1428 1.350 . S
N1426 S1424 1.610 . S
N1426 C1427 1.351 . S
C1427 C1421 1.428 . S
C1427 N1426 1.351 . S
C1427 C1428 1.434 . S
C1428 C1419 1.429 . S
C1428 N1425 1.350 . S
C1428 C1427 1.434 . S
C1429 C1430 1.369 . S
C1429 C1431 1.419 . S
C1429 H1433 0.930 . S
C1430 C1429 1.369 . S
C1430 C1439 1.429 . S
C1431 C1429 1.419 . S
C1431 C1432 1.363 . S
C1431 H1434 0.929 . S
C1432 C1431 1.363 . S
C1432 C1438 1.428 . S
H1433 C1429 0.930 . S
H1434 C1431 0.929 . S
S1435 N1436 1.613 . S
S1435 N1437 1.610 . S
N1436 S1435 1.613 . S
N1436 C1439 1.350 . S
N1437 S1435 1.610 . S
N1437 C1438 1.351 . S
C1438 C1432 1.428 . S
C1438 N1437 1.351 . S
C1438 C1439 1.434 . S
C1439 C1430 1.429 . S
C1439 N1436 1.350 . S
C1439 C1438 1.434 . S
C1440 C1441 1.369 . S
C1440 C1442 1.419 . S
C1440 H1444 0.930 . S
C1441 C1440 1.369 . S
C1441 C1450 1.429 . S
C1442 C1440 1.419 . S
C1442 C1443 1.363 . S
C1442 H1445 0.929 . S
C1443 C1442 1.363 . S
C1443 C1449 1.428 . S
H1444 C1440 0.930 . S
H1445 C1442 0.929 . S
S1446 N1447 1.613 1_565 S
S1446 N1448 1.610 1_565 S
N1447 S1446 1.613 1_545 S
N1447 C1450 1.350 . S
N1448 S1446 1.610 1_545 S
N1448 C1449 1.351 . S
C1449 C1443 1.428 . S
C1449 N1448 1.351 . S
C1449 C1450 1.434 . S
C1450 C1441 1.429 . S
C1450 N1447 1.350 . S
C1450 C1449 1.434 . S
C1451 C1452 1.369 . S
C1451 C1453 1.419 . S
C1451 H1455 0.930 . S
C1452 C1451 1.369 . S
C1452 C1461 1.429 . S
C1453 C1451 1.419 . S
C1453 C1454 1.363 . S
C1453 H1456 0.929 . S
C1454 C1453 1.363 . S
C1454 C1460 1.428 . S
H1455 C1451 0.930 . S
H1456 C1453 0.929 . S
S1457 N1458 1.613 . S
S1457 N1459 1.610 . S
N1458 S1457 1.613 . S
N1458 C1461 1.350 . S
N1459 S1457 1.610 . S
N1459 C1460 1.351 . S
C1460 C1454 1.428 . S
C1460 N1459 1.351 . S
C1460 C1461 1.434 . S
C1461 C1452 1.429 . S
C1461 N1458 1.350 . S
C1461 C1460 1.434 . S
C1462 C1463 1.369 . S
C1462 C1464 1.419 . S
C1462 H1466 0.930 . S
C1463 C1462 1.369 . S
C1463 C1472 1.429 . S
C1464 C1462 1.419 . S
C1464 C1465 1.363 . S
C1464 H1467 0.929 . S
C1465 C1464 1.363 . S
C1465 C1471 1.428 . S
H1466 C1462 0.930 . S
H1467 C1464 0.929 . S
S1468 N1469 1.613 1_565 S
S1468 N1470 1.610 1_565 S
N1469 S1468 1.613 1_545 S
N1469 C1472 1.350 . S
N1470 S1468 1.610 1_545 S
N1470 C1471 1.351 . S
C1471 C1465 1.428 . S
C1471 N1470 1.351 . S
C1471 C1472 1.434 . S
C1472 C1463 1.429 . S
C1472 N1469 1.350 . S
C1472 C1471 1.434 . S
C1473 C1474 1.369 . S
C1473 C1475 1.419 . S
C1473 H1477 0.930 . S
C1474 C1473 1.369 . S
C1474 C1483 1.429 . S
C1475 C1473 1.419 . S
C1475 C1476 1.363 . S
C1475 H1478 0.929 . S
C1476 C1475 1.363 . S
C1476 C1482 1.428 . S
H1477 C1473 0.930 . S
H1478 C1475 0.929 . S
S1479 N1480 1.613 . S
S1479 N1481 1.610 . S
N1480 S1479 1.613 . S
N1480 C1483 1.350 . S
N1481 S1479 1.610 . S
N1481 C1482 1.351 . S
C1482 C1476 1.428 . S
C1482 N1481 1.351 . S
C1482 C1483 1.434 . S
C1483 C1474 1.429 . S
C1483 N1480 1.350 . S
C1483 C1482 1.434 . S
C1484 C1485 1.369 . S
C1484 C1486 1.419 . S
C1484 H1488 0.930 . S
C1485 C1484 1.369 . S
C1485 C1494 1.429 . S
C1486 C1484 1.419 . S
C1486 C1487 1.363 . S
C1486 H1489 0.929 . S
C1487 C1486 1.363 . S
C1487 C1493 1.428 . S
H1488 C1484 0.930 . S
H1489 C1486 0.929 . S
S1490 N1491 1.613 . S
S1490 N1492 1.610 . S
N1491 S1490 1.613 . S
N1491 C1494 1.350 . S
N1492 S1490 1.610 . S
N1492 C1493 1.351 . S
C1493 C1487 1.428 . S
C1493 N1492 1.351 . S
C1493 C1494 1.434 . S
C1494 C1485 1.429 . S
C1494 N1491 1.350 . S
C1494 C1493 1.434 . S
C1495 C1496 1.369 . S
C1495 C1497 1.419 . S
C1495 H1499 0.930 . S
C1496 C1495 1.369 . S
C1496 C1505 1.429 . S
C1497 C1495 1.419 . S
C1497 C1498 1.363 . S
C1497 H1500 0.929 . S
C1498 C1497 1.363 . S
C1498 C1504 1.428 . S
H1499 C1495 0.930 . S
H1500 C1497 0.929 . S
S1501 N1502 1.613 1_545 S
S1501 N1503 1.610 . S
N1502 S1501 1.613 1_565 S
N1502 C1505 1.350 . S
N1503 S1501 1.610 . S
N1503 C1504 1.351 1_545 S
C1504 C1498 1.428 . S
C1504 N1503 1.351 1_565 S
C1504 C1505 1.434 . S
C1505 C1496 1.429 . S
C1505 N1502 1.350 . S
C1505 C1504 1.434 . S
C1506 C1507 1.369 . S
C1506 C1508 1.419 . S
C1506 H1510 0.930 . S
C1507 C1506 1.369 . S
C1507 C1516 1.429 . S
C1508 C1506 1.419 . S
C1508 C1509 1.363 . S
C1508 H1511 0.929 . S
C1509 C1508 1.363 . S
C1509 C1515 1.428 . S
H1510 C1506 0.930 . S
H1511 C1508 0.929 . S
S1512 N1513 1.613 . S
S1512 N1514 1.610 . S
N1513 S1512 1.613 . S
N1513 C1516 1.350 . S
N1514 S1512 1.610 . S
N1514 C1515 1.351 . S
C1515 C1509 1.428 . S
C1515 N1514 1.351 . S
C1515 C1516 1.434 . S
C1516 C1507 1.429 . S
C1516 N1513 1.350 . S
C1516 C1515 1.434 . S
C1517 C1518 1.369 . S
C1517 C1519 1.419 . S
C1517 H1521 0.930 . S
C1518 C1517 1.369 . S
C1518 C1527 1.429 . S
C1519 C1517 1.419 . S
C1519 C1520 1.363 . S
C1519 H1522 0.929 . S
C1520 C1519 1.363 . S
C1520 C1526 1.428 . S
H1521 C1517 0.930 . S
H1522 C1519 0.929 . S
S1523 N1524 1.613 . S
S1523 N1525 1.610 . S
N1524 S1523 1.613 . S
N1524 C1527 1.350 . S
N1525 S1523 1.610 . S
N1525 C1526 1.351 . S
C1526 C1520 1.428 . S
C1526 N1525 1.351 . S
C1526 C1527 1.434 . S
C1527 C1518 1.429 . S
C1527 N1524 1.350 . S
C1527 C1526 1.434 . S
C1528 C1529 1.369 . S
C1528 C1530 1.419 . S
C1528 H1532 0.930 . S
C1529 C1528 1.369 . S
C1529 C1538 1.429 . S
C1530 C1528 1.419 . S
C1530 C1531 1.363 . S
C1530 H1533 0.929 . S
C1531 C1530 1.363 . S
C1531 C1537 1.428 . S
H1532 C1528 0.930 . S
H1533 C1530 0.929 . S
S1534 N1535 1.613 . S
S1534 N1536 1.610 . S
N1535 S1534 1.613 . S
N1535 C1538 1.350 . S
N1536 S1534 1.610 . S
N1536 C1537 1.351 . S
C1537 C1531 1.428 . S
C1537 N1536 1.351 . S
C1537 C1538 1.434 . S
C1538 C1529 1.429 . S
C1538 N1535 1.350 . S
C1538 C1537 1.434 . S
C1539 C1540 1.369 . S
C1539 C1541 1.419 . S
C1539 H1543 0.930 . S
C1540 C1539 1.369 . S
C1540 C1549 1.429 . S
C1541 C1539 1.419 . S
C1541 C1542 1.363 . S
C1541 H1544 0.929 . S
C1542 C1541 1.363 . S
C1542 C1548 1.428 . S
H1543 C1539 0.930 . S
H1544 C1541 0.929 . S
S1545 N1546 1.613 . S
S1545 N1547 1.610 . S
N1546 S1545 1.613 . S
N1546 C1549 1.350 . S
N1547 S1545 1.610 . S
N1547 C1548 1.351 . S
C1548 C1542 1.428 . S
C1548 N1547 1.351 . S
C1548 C1549 1.434 . S
C1549 C1540 1.429 . S
C1549 N1546 1.350 . S
C1549 C1548 1.434 . S
C1550 C1551 1.369 . S
C1550 C1552 1.419 . S
C1550 H1554 0.930 . S
C1551 C1550 1.369 . S
C1551 C1560 1.429 . S
C1552 C1550 1.419 . S
C1552 C1553 1.363 . S
C1552 H1555 0.929 . S
C1553 C1552 1.363 . S
C1553 C1559 1.428 . S
H1554 C1550 0.930 . S
H1555 C1552 0.929 . S
S1556 N1557 1.613 . S
S1556 N1558 1.610 . S
N1557 S1556 1.613 . S
N1557 C1560 1.350 . S
N1558 S1556 1.610 . S
N1558 C1559 1.351 . S
C1559 C1553 1.428 . S
C1559 N1558 1.351 . S
C1559 C1560 1.434 . S
C1560 C1551 1.429 . S
C1560 N1557 1.350 . S
C1560 C1559 1.434 . S
C1561 C1562 1.369 . S
C1561 C1563 1.419 . S
C1561 H1565 0.930 . S
C1562 C1561 1.369 . S
C1562 C1571 1.429 . S
C1563 C1561 1.419 . S
C1563 C1564 1.363 . S
C1563 H1566 0.929 . S
C1564 C1563 1.363 . S
C1564 C1570 1.428 . S
H1565 C1561 0.930 . S
H1566 C1563 0.929 . S
S1567 N1568 1.613 . S
S1567 N1569 1.610 . S
N1568 S1567 1.613 . S
N1568 C1571 1.350 . S
N1569 S1567 1.610 . S
N1569 C1570 1.351 . S
C1570 C1564 1.428 . S
C1570 N1569 1.351 . S
C1570 C1571 1.434 . S
C1571 C1562 1.429 . S
C1571 N1568 1.350 . S
C1571 C1570 1.434 . S
C1572 C1573 1.369 . S
C1572 C1574 1.419 . S
C1572 H1576 0.930 . S
C1573 C1572 1.369 . S
C1573 C1582 1.429 . S
C1574 C1572 1.419 . S
C1574 C1575 1.363 . S
C1574 H1577 0.929 . S
C1575 C1574 1.363 . S
C1575 C1581 1.428 . S
H1576 C1572 0.930 . S
H1577 C1574 0.929 . S
S1578 N1579 1.613 . S
S1578 N1580 1.610 . S
N1579 S1578 1.613 . S
N1579 C1582 1.350 . S
N1580 S1578 1.610 . S
N1580 C1581 1.351 . S
C1581 C1575 1.428 . S
C1581 N1580 1.351 . S
C1581 C1582 1.434 . S
C1582 C1573 1.429 . S
C1582 N1579 1.350 . S
C1582 C1581 1.434 . S
C1583 C1584 1.369 . S
C1583 C1585 1.419 . S
C1583 H1587 0.930 . S
C1584 C1583 1.369 . S
C1584 C1593 1.429 . S
C1585 C1583 1.419 . S
C1585 C1586 1.363 . S
C1585 H1588 0.929 . S
C1586 C1585 1.363 . S
C1586 C1592 1.428 . S
H1587 C1583 0.930 . S
H1588 C1585 0.929 . S
S1589 N1590 1.613 . S
S1589 N1591 1.610 . S
N1590 S1589 1.613 . S
N1590 C1593 1.350 . S
N1591 S1589 1.610 . S
N1591 C1592 1.351 . S
C1592 C1586 1.428 . S
C1592 N1591 1.351 . S
C1592 C1593 1.434 . S
C1593 C1584 1.429 . S
C1593 N1590 1.350 . S
C1593 C1592 1.434 . S
C1594 C1595 1.369 . S
C1594 C1596 1.419 . S
C1594 H1598 0.930 . S
C1595 C1594 1.369 . S
C1595 C1604 1.429 . S
C1596 C1594 1.419 . S
C1596 C1597 1.363 . S
C1596 H1599 0.929 . S
C1597 C1596 1.363 . S
C1597 C1603 1.428 . S
H1598 C1594 0.930 . S
H1599 C1596 0.929 . S
S1600 N1601 1.613 . S
S1600 N1602 1.610 . S
N1601 S1600 1.613 . S
N1601 C1604 1.350 . S
N1602 S1600 1.610 . S
N1602 C1603 1.351 . S
C1603 C1597 1.428 . S
C1603 N1602 1.351 . S
C1603 C1604 1.434 . S
C1604 C1595 1.429 . S
C1604 N1601 1.350 . S
C1604 C1603 1.434 . S
C1605 C1606 1.369 . S
C1605 C1607 1.419 . S
C1605 H1609 0.930 . S
C1606 C1605 1.369 . S
C1606 C1615 1.429 . S
C1607 C1605 1.419 . S
C1607 C1608 1.363 . S
C1607 H1610 0.929 . S
C1608 C1607 1.363 . S
C1608 C1614 1.428 . S
H1609 C1605 0.930 . S
H1610 C1607 0.929 . S
S1611 N1612 1.613 . S
S1611 N1613 1.610 . S
N1612 S1611 1.613 . S
N1612 C1615 1.350 . S
N1613 S1611 1.610 . S
N1613 C1614 1.351 . S
C1614 C1608 1.428 . S
C1614 N1613 1.351 . S
C1614 C1615 1.434 . S
C1615 C1606 1.429 . S
C1615 N1612 1.350 . S
C1615 C1614 1.434 . S
C1616 C1617 1.369 . S
C1616 C1618 1.419 . S
C1616 H1620 0.930 . S
C1617 C1616 1.369 . S
C1617 C1626 1.429 . S
C1618 C1616 1.419 . S
C1618 C1619 1.363 . S
C1618 H1621 0.929 . S
C1619 C1618 1.363 . S
C1619 C1625 1.428 . S
H1620 C1616 0.930 . S
H1621 C1618 0.929 . S
S1622 N1623 1.613 . S
S1622 N1624 1.610 . S
N1623 S1622 1.613 . S
N1623 C1626 1.350 . S
N1624 S1622 1.610 . S
N1624 C1625 1.351 . S
C1625 C1619 1.428 . S
C1625 N1624 1.351 . S
C1625 C1626 1.434 . S
C1626 C1617 1.429 . S
C1626 N1623 1.350 . S
C1626 C1625 1.434 . S
C1627 C1628 1.369 . S
C1627 C1629 1.419 . S
C1627 H1631 0.930 . S
C1628 C1627 1.369 . S
C1628 C1637 1.429 . S
C1629 C1627 1.419 . S
C1629 C1630 1.363 . S
C1629 H1632 0.929 . S
C1630 C1629 1.363 . S
C1630 C1636 1.428 . S
H1631 C1627 0.930 . S
H1632 C1629 0.929 . S
S1633 N1634 1.613 . S
S1633 N1635 1.610 . S
N1634 S1633 1.613 . S
N1634 C1637 1.350 . S
N1635 S1633 1.610 . S
N1635 C1636 1.351 . S
C1636 C1630 1.428 . S
C1636 N1635 1.351 . S
C1636 C1637 1.434 . S
C1637 C1628 1.429 . S
C1637 N1634 1.350 . S
C1637 C1636 1.434 . S
C1638 C1639 1.369 . S
C1638 C1640 1.419 . S
C1638 H1642 0.930 . S
C1639 C1638 1.369 . S
C1639 C1648 1.429 . S
C1640 C1638 1.419 . S
C1640 C1641 1.363 . S
C1640 H1643 0.929 . S
C1641 C1640 1.363 . S
C1641 C1647 1.428 . S
H1642 C1638 0.930 . S
H1643 C1640 0.929 . S
S1644 N1645 1.613 1_545 S
S1644 N1646 1.610 1_545 S
N1645 S1644 1.613 1_565 S
N1645 C1648 1.350 . S
N1646 S1644 1.610 1_565 S
N1646 C1647 1.351 . S
C1647 C1641 1.428 . S
C1647 N1646 1.351 . S
C1647 C1648 1.434 . S
C1648 C1639 1.429 . S
C1648 N1645 1.350 . S
C1648 C1647 1.434 . S
C1649 C1650 1.369 . S
C1649 C1651 1.419 . S
C1649 H1653 0.930 . S
C1650 C1649 1.369 . S
C1650 C1659 1.429 . S
C1651 C1649 1.419 . S
C1651 C1652 1.363 . S
C1651 H1654 0.929 . S
C1652 C1651 1.363 . S
C1652 C1658 1.428 . S
H1653 C1649 0.930 . S
H1654 C1651 0.929 . S
S1655 N1656 1.613 . S
S1655 N1657 1.610 . S
N1656 S1655 1.613 . S
N1656 C1659 1.350 . S
N1657 S1655 1.610 . S
N1657 C1658 1.351 . S
C1658 C1652 1.428 . S
C1658 N1657 1.351 . S
C1658 C1659 1.434 . S
C1659 C1650 1.429 . S
C1659 N1656 1.350 . S
C1659 C1658 1.434 . S
C1660 C1661 1.369 . S
C1660 C1662 1.419 . S
C1660 H1664 0.930 . S
C1661 C1660 1.369 . S
C1661 C1670 1.429 . S
C1662 C1660 1.419 . S
C1662 C1663 1.363 . S
C1662 H1665 0.929 . S
C1663 C1662 1.363 . S
C1663 C1669 1.428 . S
H1664 C1660 0.930 . S
H1665 C1662 0.929 . S
S1666 N1667 1.613 . S
S1666 N1668 1.610 . S
N1667 S1666 1.613 . S
N1667 C1670 1.350 . S
N1668 S1666 1.610 . S
N1668 C1669 1.351 . S
C1669 C1663 1.428 . S
C1669 N1668 1.351 . S
C1669 C1670 1.434 . S
C1670 C1661 1.429 . S
C1670 N1667 1.350 . S
C1670 C1669 1.434 . S
C1671 C1672 1.369 . S
C1671 C1673 1.419 . S
C1671 H1675 0.930 . S
C1672 C1671 1.369 . S
C1672 C1681 1.429 . S
C1673 C1671 1.419 . S
C1673 C1674 1.363 . S
C1673 H1676 0.929 . S
C1674 C1673 1.363 . S
C1674 C1680 1.428 . S
H1675 C1671 0.930 . S
H1676 C1673 0.929 . S
S1677 N1678 1.613 1_565 S
S1677 N1679 1.610 1_565 S
N1678 S1677 1.613 1_545 S
N1678 C1681 1.350 . S
N1679 S1677 1.610 1_545 S
N1679 C1680 1.351 . S
C1680 C1674 1.428 . S
C1680 N1679 1.351 . S
C1680 C1681 1.434 . S
C1681 C1672 1.429 . S
C1681 N1678 1.350 . S
C1681 C1680 1.434 . S
C1682 C1683 1.369 . S
C1682 C1684 1.419 . S
C1682 H1686 0.930 . S
C1683 C1682 1.369 . S
C1683 C1692 1.429 . S
C1684 C1682 1.419 . S
C1684 C1685 1.363 . S
C1684 H1687 0.929 . S
C1685 C1684 1.363 . S
C1685 C1691 1.428 . S
H1686 C1682 0.930 . S
H1687 C1684 0.929 . S
S1688 N1689 1.613 . S
S1688 N1690 1.610 . S
N1689 S1688 1.613 . S
N1689 C1692 1.350 . S
N1690 S1688 1.610 . S
N1690 C1691 1.351 . S
C1691 C1685 1.428 . S
C1691 N1690 1.351 . S
C1691 C1692 1.434 . S
C1692 C1683 1.429 . S
C1692 N1689 1.350 . S
C1692 C1691 1.434 . S
C1693 C1694 1.369 . S
C1693 C1695 1.419 . S
C1693 H1697 0.930 . S
C1694 C1693 1.369 . S
C1694 C1703 1.429 . S
C1695 C1693 1.419 . S
C1695 C1696 1.363 . S
C1695 H1698 0.929 . S
C1696 C1695 1.363 . S
C1696 C1702 1.428 . S
H1697 C1693 0.930 . S
H1698 C1695 0.929 . S
S1699 N1700 1.613 . S
S1699 N1701 1.610 . S
N1700 S1699 1.613 . S
N1700 C1703 1.350 . S
N1701 S1699 1.610 . S
N1701 C1702 1.351 . S
C1702 C1696 1.428 . S
C1702 N1701 1.351 . S
C1702 C1703 1.434 . S
C1703 C1694 1.429 . S
C1703 N1700 1.350 . S
C1703 C1702 1.434 . S
C1704 C1705 1.369 . S
C1704 C1706 1.419 . S
C1704 H1708 0.930 . S
C1705 C1704 1.369 . S
C1705 C1714 1.429 . S
C1706 C1704 1.419 . S
C1706 C1707 1.363 . S
C1706 H1709 0.929 . S
C1707 C1706 1.363 . S
C1707 C1713 1.428 . S
H1708 C1704 0.930 . S
H1709 C1706 0.929 . S
S1710 N1711 1.613 . S
S1710 N1712 1.610 . S
N1711 S1710 1.613 . S
N1711 C1714 1.350 . S
N1712 S1710 1.610 . S
N1712 C1713 1.351 . S
C1713 C1707 1.428 . S
C1713 N1712 1.351 . S
C1713 C1714 1.434 . S
C1714 C1705 1.429 . S
C1714 N1711 1.350 . S
C1714 C1713 1.434 . S
C1715 C1716 1.369 . S
C1715 C1717 1.419 . S
C1715 H1719 0.930 . S
C1716 C1715 1.369 . S
C1716 C1725 1.429 . S
C1717 C1715 1.419 . S
C1717 C1718 1.363 . S
C1717 H1720 0.929 . S
C1718 C1717 1.363 . S
C1718 C1724 1.428 . S
H1719 C1715 0.930 . S
H1720 C1717 0.929 . S
S1721 N1722 1.613 . S
S1721 N1723 1.610 . S
N1722 S1721 1.613 . S
N1722 C1725 1.350 . S
N1723 S1721 1.610 . S
N1723 C1724 1.351 . S
C1724 C1718 1.428 . S
C1724 N1723 1.351 . S
C1724 C1725 1.434 . S
C1725 C1716 1.429 . S
C1725 N1722 1.350 . S
C1725 C1724 1.434 . S
C1726 C1727 1.369 . S
C1726 C1728 1.419 . S
C1726 H1730 0.930 . S
C1727 C1726 1.369 . S
C1727 C1736 1.429 . S
C1728 C1726 1.419 . S
C1728 C1729 1.363 . S
C1728 H1731 0.929 . S
C1729 C1728 1.363 . S
C1729 C1735 1.428 . S
H1730 C1726 0.930 . S
H1731 C1728 0.929 . S
S1732 N1733 1.613 . S
S1732 N1734 1.610 . S
N1733 S1732 1.613 . S
N1733 C1736 1.350 . S
N1734 S1732 1.610 . S
N1734 C1735 1.351 . S
C1735 C1729 1.428 . S
C1735 N1734 1.351 . S
C1735 C1736 1.434 . S
C1736 C1727 1.429 . S
C1736 N1733 1.350 . S
C1736 C1735 1.434 . S
C1737 C1738 1.369 . S
C1737 C1739 1.419 . S
C1737 H1741 0.930 . S
C1738 C1737 1.369 . S
C1738 C1747 1.429 . S
C1739 C1737 1.419 . S
C1739 C1740 1.363 . S
C1739 H1742 0.929 . S
C1740 C1739 1.363 . S
C1740 C1746 1.428 . S
H1741 C1737 0.930 . S
H1742 C1739 0.929 . S
S1743 N1744 1.613 . S
S1743 N1745 1.610 . S
N1744 S1743 1.613 . S
N1744 C1747 1.350 . S
N1745 S1743 1.610 . S
N1745 C1746 1.351 . S
C1746 C1740 1.428 . S
C1746 N1745 1.351 . S
C1746 C1747 1.434 . S
C1747 C1738 1.429 . S
C1747 N1744 1.350 . S
C1747 C1746 1.434 . S
C1748 C1749 1.369 . S
C1748 C1750 1.419 . S
C1748 H1752 0.930 . S
C1749 C1748 1.369 . S
C1749 C1758 1.429 . S
C1750 C1748 1.419 . S
C1750 C1751 1.363 . S
C1750 H1753 0.929 . S
C1751 C1750 1.363 . S
C1751 C1757 1.428 . S
H1752 C1748 0.930 . S
H1753 C1750 0.929 . S
S1754 N1755 1.613 . S
S1754 N1756 1.610 . S
N1755 S1754 1.613 . S
N1755 C1758 1.350 . S
N1756 S1754 1.610 . S
N1756 C1757 1.351 . S
C1757 C1751 1.428 . S
C1757 N1756 1.351 . S
C1757 C1758 1.434 . S
C1758 C1749 1.429 . S
C1758 N1755 1.350 . S
C1758 C1757 1.434 . S
C1759 C1760 1.369 . S
C1759 C1761 1.419 . S
C1759 H1763 0.930 . S
C1760 C1759 1.369 . S
C1760 C1769 1.429 . S
C1761 C1759 1.419 . S
C1761 C1762 1.363 . S
C1761 H1764 0.929 . S
C1762 C1761 1.363 . S
C1762 C1768 1.428 . S
H1763 C1759 0.930 . S
H1764 C1761 0.929 . S
S1765 N1766 1.613 . S
S1765 N1767 1.610 . S
N1766 S1765 1.613 . S
N1766 C1769 1.350 . S
N1767 S1765 1.610 . S
N1767 C1768 1.351 . S
C1768 C1762 1.428 . S
C1768 N1767 1.351 . S
C1768 C1769 1.434 . S
C1769 C1760 1.429 . S
C1769 N1766 1.350 . S
C1769 C1768 1.434 . S
C1770 C1771 1.369 . S
C1770 C1772 1.419 . S
C1770 H1774 0.930 . S
C1771 C1770 1.369 . S
C1771 C1780 1.429 . S
C1772 C1770 1.419 . S
C1772 C1773 1.363 . S
C1772 H1775 0.929 . S
C1773 C1772 1.363 . S
C1773 C1779 1.428 . S
H1774 C1770 0.930 . S
H1775 C1772 0.929 . S
S1776 N1777 1.613 . S
S1776 N1778 1.610 . S
N1777 S1776 1.613 . S
N1777 C1780 1.350 . S
N1778 S1776 1.610 . S
N1778 C1779 1.351 . S
C1779 C1773 1.428 . S
C1779 N1778 1.351 . S
C1779 C1780 1.434 . S
C1780 C1771 1.429 . S
C1780 N1777 1.350 . S
C1780 C1779 1.434 . S
C1781 C1782 1.369 . S
C1781 C1783 1.419 . S
C1781 H1785 0.930 . S
C1782 C1781 1.369 . S
C1782 C1791 1.429 . S
C1783 C1781 1.419 . S
C1783 C1784 1.363 . S
C1783 H1786 0.929 . S
C1784 C1783 1.363 . S
C1784 C1790 1.428 . S
H1785 C1781 0.930 . S
H1786 C1783 0.929 . S
S1787 N1788 1.613 . S
S1787 N1789 1.610 . S
N1788 S1787 1.613 . S
N1788 C1791 1.350 . S
N1789 S1787 1.610 . S
N1789 C1790 1.351 . S
C1790 C1784 1.428 . S
C1790 N1789 1.351 . S
C1790 C1791 1.434 . S
C1791 C1782 1.429 . S
C1791 N1788 1.350 . S
C1791 C1790 1.434 . S
C1792 C1793 1.369 . S
C1792 C1794 1.419 . S
C1792 H1796 0.933 . S
C1793 C1792 1.369 . S
C1793 C1802 1.429 . S
C1794 C1792 1.419 . S
C1794 C1795 1.363 . S
C1794 H1797 0.929 . S
C1795 C1794 1.363 . S
C1795 C1801 1.428 . S
H1796 C1792 0.933 . S
H1797 C1794 0.929 . S
S1798 N1799 1.613 . S
S1798 N1800 1.610 . S
N1799 S1798 1.613 . S
N1799 C1802 1.350 . S
N1800 S1798 1.610 . S
N1800 C1801 1.351 . S
C1801 C1795 1.428 . S
C1801 N1800 1.351 . S
C1801 C1802 1.434 . S
C1802 C1793 1.429 . S
C1802 N1799 1.350 . S
C1802 C1801 1.434 . S
C1803 C1804 1.369 . S
C1803 C1805 1.419 . S
C1803 H1807 0.930 . S
C1804 C1803 1.369 . S
C1804 C1813 1.429 . S
C1805 C1803 1.419 . S
C1805 C1806 1.363 . S
C1805 H1808 0.929 . S
C1806 C1805 1.363 . S
C1806 C1812 1.428 . S
H1807 C1803 0.930 . S
H1808 C1805 0.929 . S
S1809 N1810 1.613 . S
S1809 N1811 1.610 . S
N1810 S1809 1.613 . S
N1810 C1813 1.350 . S
N1811 S1809 1.610 . S
N1811 C1812 1.351 . S
C1812 C1806 1.428 . S
C1812 N1811 1.351 . S
C1812 C1813 1.434 . S
C1813 C1804 1.429 . S
C1813 N1810 1.350 . S
C1813 C1812 1.434 . S
C1814 C1815 1.369 . S
C1814 C1816 1.419 . S
C1814 H1818 0.930 . S
C1815 C1814 1.369 . S
C1815 C1824 1.429 1_554 S
C1816 C1814 1.419 . S
C1816 C1817 1.363 . S
C1816 H1819 0.929 . S
C1817 C1816 1.363 . S
C1817 C1823 1.428 1_554 S
H1818 C1814 0.930 . S
H1819 C1816 0.929 . S
S1820 N1821 1.613 . S
S1820 N1822 1.610 . S
N1821 S1820 1.613 . S
N1821 C1824 1.350 . S
N1822 S1820 1.610 . S
N1822 C1823 1.351 . S
C1823 C1817 1.428 1_556 S
C1823 N1822 1.351 . S
C1823 C1824 1.434 . S
C1824 C1815 1.429 1_556 S
C1824 N1821 1.350 . S
C1824 C1823 1.434 . S
C1825 C1826 1.369 . S
C1825 C1827 1.419 . S
C1825 H1829 0.930 . S
C1826 C1825 1.369 . S
C1826 C1835 1.429 . S
C1827 C1825 1.419 . S
C1827 C1828 1.363 . S
C1827 H1830 0.929 . S
C1828 C1827 1.363 . S
C1828 C1834 1.428 . S
H1829 C1825 0.930 . S
H1830 C1827 0.929 . S
S1831 N1832 1.613 . S
S1831 N1833 1.610 1_545 S
N1832 S1831 1.613 . S
N1832 C1835 1.350 1_545 S
N1833 S1831 1.610 1_565 S
N1833 C1834 1.351 . S
C1834 C1828 1.428 . S
C1834 N1833 1.351 . S
C1834 C1835 1.434 . S
C1835 C1826 1.429 . S
C1835 N1832 1.350 1_565 S
C1835 C1834 1.434 . S
C1836 C1837 1.369 . S
C1836 C1838 1.419 . S
C1836 H1840 0.930 . S
C1837 C1836 1.369 . S
C1837 C1846 1.429 . S
C1838 C1836 1.419 . S
C1838 C1839 1.363 . S
C1838 H1841 0.929 . S
C1839 C1838 1.363 . S
C1839 C1845 1.428 . S
H1840 C1836 0.930 . S
H1841 C1838 0.929 . S
S1842 N1843 1.613 . S
S1842 N1844 1.610 . S
N1843 S1842 1.613 . S
N1843 C1846 1.350 . S
N1844 S1842 1.610 . S
N1844 C1845 1.351 . S
C1845 C1839 1.428 . S
C1845 N1844 1.351 . S
C1845 C1846 1.434 . S
C1846 C1837 1.429 . S
C1846 N1843 1.350 . S
C1846 C1845 1.434 . S
C1847 C1848 1.369 . S
C1847 C1849 1.419 . S
C1847 H1851 0.930 . S
C1848 C1847 1.369 . S
C1848 C1857 1.429 . S
C1849 C1847 1.419 . S
C1849 C1850 1.363 . S
C1849 H1852 0.929 . S
C1850 C1849 1.363 . S
C1850 C1856 1.428 . S
H1851 C1847 0.930 . S
H1852 C1849 0.929 . S
S1853 N1854 1.613 . S
S1853 N1855 1.610 . S
N1854 S1853 1.613 . S
N1854 C1857 1.350 . S
N1855 S1853 1.610 . S
N1855 C1856 1.351 . S
C1856 C1850 1.428 . S
C1856 N1855 1.351 . S
C1856 C1857 1.434 . S
C1857 C1848 1.429 . S
C1857 N1854 1.350 . S
C1857 C1856 1.434 . S
C1858 C1859 1.369 . S
C1858 C1860 1.419 . S
C1858 H1862 0.930 . S
C1859 C1858 1.369 . S
C1859 C1868 1.429 . S
C1860 C1858 1.419 . S
C1860 C1861 1.363 . S
C1860 H1863 0.929 . S
C1861 C1860 1.363 . S
C1861 C1867 1.428 . S
H1862 C1858 0.930 . S
H1863 C1860 0.929 . S
S1864 N1865 1.613 . S
S1864 N1866 1.610 . S
N1865 S1864 1.613 . S
N1865 C1868 1.350 . S
N1866 S1864 1.610 . S
N1866 C1867 1.351 . S
C1867 C1861 1.428 . S
C1867 N1866 1.351 . S
C1867 C1868 1.434 . S
C1868 C1859 1.429 . S
C1868 N1865 1.350 . S
C1868 C1867 1.434 . S
C1869 C1870 1.369 . S
C1869 C1871 1.419 . S
C1869 H1873 0.930 . S
C1870 C1869 1.369 . S
C1870 C1879 1.429 . S
C1871 C1869 1.419 . S
C1871 C1872 1.363 . S
C1871 H1874 0.929 . S
C1872 C1871 1.363 . S
C1872 C1878 1.428 . S
H1873 C1869 0.930 . S
H1874 C1871 0.929 . S
S1875 N1876 1.613 . S
S1875 N1877 1.610 . S
N1876 S1875 1.613 . S
N1876 C1879 1.350 . S
N1877 S1875 1.610 . S
N1877 C1878 1.351 . S
C1878 C1872 1.428 . S
C1878 N1877 1.351 . S
C1878 C1879 1.434 . S
C1879 C1870 1.429 . S
C1879 N1876 1.350 . S
C1879 C1878 1.434 . S
C1880 C1881 1.369 . S
C1880 C1882 1.419 . S
C1880 H1884 0.930 . S
C1881 C1880 1.369 . S
C1881 C1890 1.429 . S
C1882 C1880 1.419 . S
C1882 C1883 1.363 . S
C1882 H1885 0.929 . S
C1883 C1882 1.363 . S
C1883 C1889 1.428 . S
H1884 C1880 0.930 . S
H1885 C1882 0.929 . S
S1886 N1887 1.613 . S
S1886 N1888 1.610 . S
N1887 S1886 1.613 . S
N1887 C1890 1.350 . S
N1888 S1886 1.610 . S
N1888 C1889 1.351 . S
C1889 C1883 1.428 . S
C1889 N1888 1.351 . S
C1889 C1890 1.434 . S
C1890 C1881 1.429 . S
C1890 N1887 1.350 . S
C1890 C1889 1.434 . S
C1891 C1892 1.369 . S
C1891 C1893 1.419 . S
C1891 H1895 0.930 . S
C1892 C1891 1.369 . S
C1892 C1901 1.429 . S
C1893 C1891 1.419 . S
C1893 C1894 1.363 . S
C1893 H1896 0.929 . S
C1894 C1893 1.363 . S
C1894 C1900 1.428 . S
H1895 C1891 0.930 . S
H1896 C1893 0.929 . S
S1897 N1898 1.613 . S
S1897 N1899 1.610 . S
N1898 S1897 1.613 . S
N1898 C1901 1.350 . S
N1899 S1897 1.610 . S
N1899 C1900 1.351 . S
C1900 C1894 1.428 . S
C1900 N1899 1.351 . S
C1900 C1901 1.434 . S
C1901 C1892 1.429 . S
C1901 N1898 1.350 . S
C1901 C1900 1.434 . S
C1902 C1903 1.369 . S
C1902 C1904 1.419 . S
C1902 H1906 0.930 . S
C1903 C1902 1.369 . S
C1903 C1912 1.429 . S
C1904 C1902 1.419 . S
C1904 C1905 1.363 . S
C1904 H1907 0.929 . S
C1905 C1904 1.363 . S
C1905 C1911 1.428 . S
H1906 C1902 0.930 . S
H1907 C1904 0.929 . S
S1908 N1909 1.613 . S
S1908 N1910 1.610 . S
N1909 S1908 1.613 . S
N1909 C1912 1.350 . S
N1910 S1908 1.610 . S
N1910 C1911 1.351 . S
C1911 C1905 1.428 . S
C1911 N1910 1.351 . S
C1911 C1912 1.434 . S
C1912 C1903 1.429 . S
C1912 N1909 1.350 . S
C1912 C1911 1.434 . S
C1913 C1914 1.369 . S
C1913 C1915 1.419 . S
C1913 H1917 0.930 . S
C1914 C1913 1.369 . S
C1914 C1923 1.429 . S
C1915 C1913 1.419 . S
C1915 C1916 1.363 . S
C1915 H1918 0.929 . S
C1916 C1915 1.363 . S
C1916 C1922 1.428 . S
H1917 C1913 0.930 . S
H1918 C1915 0.929 . S
S1919 N1920 1.613 . S
S1919 N1921 1.610 . S
N1920 S1919 1.613 . S
N1920 C1923 1.350 . S
N1921 S1919 1.610 . S
N1921 C1922 1.351 . S
C1922 C1916 1.428 . S
C1922 N1921 1.351 . S
C1922 C1923 1.434 . S
C1923 C1914 1.429 . S
C1923 N1920 1.350 . S
C1923 C1922 1.434 . S
C1924 C1925 1.369 . S
C1924 C1926 1.419 . S
C1924 H1928 0.930 1_556 S
C1925 C1924 1.369 . S
C1925 C1934 1.429 . S
C1926 C1924 1.419 . S
C1926 C1927 1.363 . S
C1926 H1929 0.929 1_556 S
C1927 C1926 1.363 . S
C1927 C1933 1.428 . S
H1928 C1924 0.930 1_554 S
H1929 C1926 0.929 1_554 S
S1930 N1931 1.613 . S
S1930 N1932 1.610 . S
N1931 S1930 1.613 . S
N1931 C1934 1.350 . S
N1932 S1930 1.610 . S
N1932 C1933 1.351 . S
C1933 C1927 1.428 . S
C1933 N1932 1.351 . S
C1933 C1934 1.434 . S
C1934 C1925 1.429 . S
C1934 N1931 1.350 . S
C1934 C1933 1.434 . S
C1935 C1936 1.369 . S
C1935 C1937 1.419 . S
C1935 H1939 0.930 . S
C1936 C1935 1.369 . S
C1936 C1945 1.429 . S
C1937 C1935 1.419 . S
C1937 C1938 1.363 . S
C1937 H1940 0.929 . S
C1938 C1937 1.363 . S
C1938 C1944 1.428 . S
H1939 C1935 0.930 . S
H1940 C1937 0.929 . S
S1941 N1942 1.613 . S
S1941 N1943 1.610 . S
N1942 S1941 1.613 . S
N1942 C1945 1.350 . S
N1943 S1941 1.610 . S
N1943 C1944 1.351 . S
C1944 C1938 1.428 . S
C1944 N1943 1.351 . S
C1944 C1945 1.434 . S
C1945 C1936 1.429 . S
C1945 N1942 1.350 . S
C1945 C1944 1.434 . S
C1946 C1947 1.369 . S
C1946 C1948 1.419 . S
C1946 H1950 0.930 . S
C1947 C1946 1.369 . S
C1947 C1956 1.429 1_554 S
C1948 C1946 1.419 . S
C1948 C1949 1.363 . S
C1948 H1951 0.929 . S
C1949 C1948 1.363 . S
C1949 C1955 1.428 1_554 S
H1950 C1946 0.930 . S
H1951 C1948 0.929 . S
S1952 N1953 1.613 . S
S1952 N1954 1.610 . S
N1953 S1952 1.613 . S
N1953 C1956 1.350 . S
N1954 S1952 1.610 . S
N1954 C1955 1.351 . S
C1955 C1949 1.428 1_556 S
C1955 N1954 1.351 . S
C1955 C1956 1.434 . S
C1956 C1947 1.429 1_556 S
C1956 N1953 1.350 . S
C1956 C1955 1.434 . S
C1957 C1958 1.369 . S
C1957 C1959 1.419 . S
C1957 H1961 0.930 . S
C1958 C1957 1.369 . S
C1958 C1967 1.429 . S
C1959 C1957 1.419 . S
C1959 C1960 1.363 . S
C1959 H1962 0.929 . S
C1960 C1959 1.363 . S
C1960 C1966 1.428 . S
H1961 C1957 0.930 . S
H1962 C1959 0.929 . S
S1963 N1964 1.613 . S
S1963 N1965 1.610 . S
N1964 S1963 1.613 . S
N1964 C1967 1.350 . S
N1965 S1963 1.610 . S
N1965 C1966 1.351 . S
C1966 C1960 1.428 . S
C1966 N1965 1.351 . S
C1966 C1967 1.434 . S
C1967 C1958 1.429 . S
C1967 N1964 1.350 . S
C1967 C1966 1.434 . S
C1968 C1969 1.369 . S
C1968 C1970 1.419 . S
C1968 H1972 0.930 . S
C1969 C1968 1.369 . S
C1969 C1978 1.429 . S
C1970 C1968 1.419 . S
C1970 C1971 1.363 . S
C1970 H1973 0.929 . S
C1971 C1970 1.363 . S
C1971 C1977 1.428 . S
H1972 C1968 0.930 . S
H1973 C1970 0.929 . S
S1974 N1975 1.583 1_655 S
S1974 N1976 1.580 1_655 S
N1975 S1974 1.583 1_455 S
N1975 C1978 1.350 . S
N1976 S1974 1.580 1_455 S
N1976 C1977 1.351 . S
C1977 C1971 1.428 . S
C1977 N1976 1.351 . S
C1977 C1978 1.434 . S
C1978 C1969 1.429 . S
C1978 N1975 1.350 . S
C1978 C1977 1.434 . S
C1979 C1980 1.369 . S
C1979 C1981 1.419 . S
C1979 H1983 0.930 . S
C1980 C1979 1.369 . S
C1980 C1989 1.429 . S
C1981 C1979 1.419 . S
C1981 C1982 1.363 . S
C1981 H1984 0.929 . S
C1982 C1981 1.363 . S
C1982 C1988 1.428 . S
H1983 C1979 0.930 . S
H1984 C1981 0.929 . S
S1985 N1986 1.616 . S
S1985 N1987 1.610 1_565 S
N1986 S1985 1.616 . S
N1986 C1989 1.341 1_565 S
N1987 S1985 1.610 1_545 S
N1987 C1988 1.351 . S
C1988 C1982 1.428 . S
C1988 N1987 1.351 . S
C1988 C1989 1.434 . S
C1989 C1980 1.429 . S
C1989 N1986 1.341 1_545 S
C1989 C1988 1.434 . S
C1990 C1991 1.369 . S
C1990 C1992 1.419 . S
C1990 H1994 0.930 . S
C1991 C1990 1.369 . S
C1991 C2000 1.429 . S
C1992 C1990 1.419 . S
C1992 C1993 1.363 . S
C1992 H1995 0.929 . S
C1993 C1992 1.363 . S
C1993 C1999 1.428 . S
H1994 C1990 0.930 . S
H1995 C1992 0.929 . S
S1996 N1997 1.613 . S
S1996 N1998 1.610 . S
N1997 S1996 1.613 . S
N1997 C2000 1.350 . S
N1998 S1996 1.610 . S
N1998 C1999 1.351 . S
C1999 C1993 1.428 . S
C1999 N1998 1.351 . S
C1999 C2000 1.434 . S
C2000 C1991 1.429 . S
C2000 N1997 1.350 . S
C2000 C1999 1.434 . S
C2001 C2002 1.369 . S
C2001 C2003 1.419 . S
C2001 H2005 0.930 . S
C2002 C2001 1.369 . S
C2002 C2011 1.429 . S
C2003 C2001 1.419 . S
C2003 C2004 1.363 . S
C2003 H2006 0.929 . S
C2004 C2003 1.363 . S
C2004 C2010 1.428 . S
H2005 C2001 0.930 . S
H2006 C2003 0.929 . S
S2007 N2008 1.613 1_545 S
S2007 N2009 1.610 1_545 S
N2008 S2007 1.613 1_565 S
N2008 C2011 1.350 . S
N2009 S2007 1.610 1_565 S
N2009 C2010 1.351 . S
C2010 C2004 1.428 . S
C2010 N2009 1.351 . S
C2010 C2011 1.434 . S
C2011 C2002 1.429 . S
C2011 N2008 1.350 . S
C2011 C2010 1.434 . S
C2012 C2013 1.369 . S
C2012 C2014 1.419 . S
C2012 H2016 0.930 . S
C2013 C2012 1.369 . S
C2013 C2022 1.429 . S
C2014 C2012 1.419 . S
C2014 C2015 1.363 . S
C2014 H2017 0.929 . S
C2015 C2014 1.363 . S
C2015 C2021 1.428 . S
H2016 C2012 0.930 . S
H2017 C2014 0.929 . S
S2018 N2019 1.613 . S
S2018 N2020 1.610 . S
N2019 S2018 1.613 . S
N2019 C2022 1.350 . S
N2020 S2018 1.610 . S
N2020 C2021 1.351 . S
C2021 C2015 1.428 . S
C2021 N2020 1.351 . S
C2021 C2022 1.434 . S
C2022 C2013 1.429 . S
C2022 N2019 1.350 . S
C2022 C2021 1.434 . S
C2023 C2024 1.369 . S
C2023 C2025 1.419 . S
C2023 H2027 0.930 . S
C2024 C2023 1.369 . S
C2024 C2033 1.429 . S
C2025 C2023 1.419 . S
C2025 C2026 1.363 . S
C2025 H2028 0.929 . S
C2026 C2025 1.363 . S
C2026 C2032 1.428 . S
H2027 C2023 0.930 . S
H2028 C2025 0.929 . S
S2029 N2030 1.613 . S
S2029 N2031 1.610 . S
N2030 S2029 1.613 . S
N2030 C2033 1.350 . S
N2031 S2029 1.610 . S
N2031 C2032 1.351 . S
C2032 C2026 1.428 . S
C2032 N2031 1.351 . S
C2032 C2033 1.434 . S
C2033 C2024 1.429 . S
C2033 N2030 1.350 . S
C2033 C2032 1.434 . S
C2034 C2035 1.369 . S
C2034 C2036 1.419 . S
C2034 H2038 0.930 . S
C2035 C2034 1.369 . S
C2035 C2044 1.429 . S
C2036 C2034 1.419 . S
C2036 C2037 1.363 . S
C2036 H2039 0.929 . S
C2037 C2036 1.363 . S
C2037 C2043 1.428 . S
H2038 C2034 0.930 . S
H2039 C2036 0.929 . S
S2040 N2041 1.613 . S
S2040 N2042 1.610 . S
N2041 S2040 1.613 . S
N2041 C2044 1.350 . S
N2042 S2040 1.610 . S
N2042 C2043 1.351 . S
C2043 C2037 1.428 . S
C2043 N2042 1.351 . S
C2043 C2044 1.434 . S
C2044 C2035 1.429 . S
C2044 N2041 1.350 . S
C2044 C2043 1.434 . S
C2045 C2046 1.369 . S
C2045 C2047 1.419 . S
C2045 H2049 0.930 . S
C2046 C2045 1.369 . S
C2046 C2055 1.429 . S
C2047 C2045 1.419 . S
C2047 C2048 1.363 . S
C2047 H2050 0.929 . S
C2048 C2047 1.363 . S
C2048 C2054 1.428 . S
H2049 C2045 0.930 . S
H2050 C2047 0.929 . S
S2051 N2052 1.613 . S
S2051 N2053 1.610 . S
N2052 S2051 1.613 . S
N2052 C2055 1.350 . S
N2053 S2051 1.610 . S
N2053 C2054 1.351 . S
C2054 C2048 1.428 . S
C2054 N2053 1.351 . S
C2054 C2055 1.434 . S
C2055 C2046 1.429 . S
C2055 N2052 1.350 . S
C2055 C2054 1.434 . S
C2056 C2057 1.369 . S
C2056 C2058 1.419 . S
C2056 H2060 0.930 . S
C2057 C2056 1.369 . S
C2057 C2066 1.429 . S
C2058 C2056 1.419 . S
C2058 C2059 1.363 . S
C2058 H2061 0.929 . S
C2059 C2058 1.363 . S
C2059 C2065 1.428 . S
H2060 C2056 0.930 . S
H2061 C2058 0.929 . S
S2062 N2063 1.613 . S
S2062 N2064 1.610 . S
N2063 S2062 1.613 . S
N2063 C2066 1.350 . S
N2064 S2062 1.610 . S
N2064 C2065 1.351 . S
C2065 C2059 1.428 . S
C2065 N2064 1.351 . S
C2065 C2066 1.434 . S
C2066 C2057 1.429 . S
C2066 N2063 1.350 . S
C2066 C2065 1.434 . S
C2067 C2068 1.369 . S
C2067 C2069 1.419 . S
C2067 H2071 0.930 . S
C2068 C2067 1.369 . S
C2068 C2077 1.429 . S
C2069 C2067 1.419 . S
C2069 C2070 1.363 . S
C2069 H2072 0.929 . S
C2070 C2069 1.363 . S
C2070 C2076 1.428 . S
H2071 C2067 0.930 . S
H2072 C2069 0.929 . S
S2073 N2074 1.613 . S
S2073 N2075 1.610 . S
N2074 S2073 1.613 . S
N2074 C2077 1.350 . S
N2075 S2073 1.610 . S
N2075 C2076 1.351 . S
C2076 C2070 1.428 . S
C2076 N2075 1.351 . S
C2076 C2077 1.434 . S
C2077 C2068 1.429 . S
C2077 N2074 1.350 . S
C2077 C2076 1.434 . S
C2078 C2079 1.369 . S
C2078 C2080 1.419 . S
C2078 H2082 0.930 . S
C2079 C2078 1.369 . S
C2079 C2088 1.429 . S
C2080 C2078 1.419 . S
C2080 C2081 1.363 . S
C2080 H2083 0.929 . S
C2081 C2080 1.363 . S
C2081 C2087 1.428 . S
H2082 C2078 0.930 . S
H2083 C2080 0.929 . S
S2084 N2085 1.613 . S
S2084 N2086 1.610 . S
N2085 S2084 1.613 . S
N2085 C2088 1.350 . S
N2086 S2084 1.610 . S
N2086 C2087 1.351 . S
C2087 C2081 1.428 . S
C2087 N2086 1.351 . S
C2087 C2088 1.434 . S
C2088 C2079 1.429 . S
C2088 N2085 1.350 . S
C2088 C2087 1.434 . S
C2089 C2090 1.369 . S
C2089 C2091 1.419 . S
C2089 H2093 0.930 . S
C2090 C2089 1.369 . S
C2090 C2099 1.429 . S
C2091 C2089 1.419 . S
C2091 C2092 1.363 . S
C2091 H2094 0.929 . S
C2092 C2091 1.363 . S
C2092 C2098 1.428 . S
H2093 C2089 0.930 . S
H2094 C2091 0.929 . S
S2095 N2096 1.613 . S
S2095 N2097 1.610 . S
N2096 S2095 1.613 . S
N2096 C2099 1.350 . S
N2097 S2095 1.610 . S
N2097 C2098 1.351 . S
C2098 C2092 1.428 . S
C2098 N2097 1.351 . S
C2098 C2099 1.434 . S
C2099 C2090 1.429 . S
C2099 N2096 1.350 . S
C2099 C2098 1.434 . S
C2100 C2101 1.369 . S
C2100 C2102 1.419 . S
C2100 H2104 0.930 . S
C2101 C2100 1.369 . S
C2101 C2110 1.429 . S
C2102 C2100 1.419 . S
C2102 C2103 1.363 . S
C2102 H2105 0.929 . S
C2103 C2102 1.363 . S
C2103 C2109 1.428 . S
H2104 C2100 0.930 . S
H2105 C2102 0.929 . S
S2106 N2107 1.613 . S
S2106 N2108 1.610 . S
N2107 S2106 1.613 . S
N2107 C2110 1.350 . S
N2108 S2106 1.610 . S
N2108 C2109 1.351 . S
C2109 C2103 1.428 . S
C2109 N2108 1.351 . S
C2109 C2110 1.434 . S
C2110 C2101 1.429 . S
C2110 N2107 1.350 . S
C2110 C2109 1.434 . S
C2111 C2112 1.369 . S
C2111 C2113 1.419 . S
C2111 H2115 0.930 . S
C2112 C2111 1.369 . S
C2112 C2121 1.429 . S
C2113 C2111 1.419 . S
C2113 C2114 1.363 . S
C2113 H2116 0.929 . S
C2114 C2113 1.363 . S
C2114 C2120 1.428 . S
H2115 C2111 0.930 . S
H2116 C2113 0.929 . S
S2117 N2118 1.613 . S
S2117 N2119 1.610 . S
N2118 S2117 1.613 . S
N2118 C2121 1.350 . S
N2119 S2117 1.610 . S
N2119 C2120 1.351 . S
C2120 C2114 1.428 . S
C2120 N2119 1.351 . S
C2120 C2121 1.434 . S
C2121 C2112 1.429 . S
C2121 N2118 1.350 . S
C2121 C2120 1.434 . S
C2122 C2123 1.369 . S
C2122 C2124 1.419 . S
C2122 H2126 0.930 . S
C2123 C2122 1.369 . S
C2123 C2132 1.429 . S
C2124 C2122 1.419 . S
C2124 C2125 1.363 . S
C2124 H2127 0.929 . S
C2125 C2124 1.363 . S
C2125 C2131 1.428 . S
H2126 C2122 0.930 . S
H2127 C2124 0.929 . S
S2128 N2129 1.613 . S
S2128 N2130 1.610 . S
N2129 S2128 1.613 . S
N2129 C2132 1.350 . S
N2130 S2128 1.610 . S
N2130 C2131 1.351 . S
C2131 C2125 1.428 . S
C2131 N2130 1.351 . S
C2131 C2132 1.434 . S
C2132 C2123 1.429 . S
C2132 N2129 1.350 . S
C2132 C2131 1.434 . S
C2133 C2134 1.369 . S
C2133 C2135 1.419 . S
C2133 H2137 0.930 . S
C2134 C2133 1.369 . S
C2134 C2143 1.429 . S
C2135 C2133 1.419 . S
C2135 C2136 1.363 . S
C2135 H2138 0.929 . S
C2136 C2135 1.363 . S
C2136 C2142 1.428 . S
H2137 C2133 0.930 . S
H2138 C2135 0.929 . S
S2139 N2140 1.613 . S
S2139 N2141 1.610 . S
N2140 S2139 1.613 . S
N2140 C2143 1.350 . S
N2141 S2139 1.610 . S
N2141 C2142 1.351 . S
C2142 C2136 1.428 . S
C2142 N2141 1.351 . S
C2142 C2143 1.434 . S
C2143 C2134 1.429 . S
C2143 N2140 1.350 . S
C2143 C2142 1.434 . S
C2144 C2145 1.369 . S
C2144 C2146 1.419 . S
C2144 H2148 0.930 . S
C2145 C2144 1.369 . S
C2145 C2154 1.429 . S
C2146 C2144 1.419 . S
C2146 C2147 1.363 . S
C2146 H2149 0.929 . S
C2147 C2146 1.363 . S
C2147 C2153 1.428 . S
H2148 C2144 0.930 . S
H2149 C2146 0.929 . S
S2150 N2151 1.613 . S
S2150 N2152 1.610 . S
N2151 S2150 1.613 . S
N2151 C2154 1.350 . S
N2152 S2150 1.610 . S
N2152 C2153 1.351 . S
C2153 C2147 1.428 . S
C2153 N2152 1.351 . S
C2153 C2154 1.434 . S
C2154 C2145 1.429 . S
C2154 N2151 1.350 . S
C2154 C2153 1.434 . S
C2155 C2156 1.369 . S
C2155 C2157 1.419 . S
C2155 H2159 0.930 . S
C2156 C2155 1.369 . S
C2156 C2165 1.429 . S
C2157 C2155 1.419 . S
C2157 C2158 1.363 . S
C2157 H2160 0.929 . S
C2158 C2157 1.363 . S
C2158 C2164 1.428 . S
H2159 C2155 0.930 . S
H2160 C2157 0.929 . S
S2161 N2162 1.613 . S
S2161 N2163 1.610 . S
N2162 S2161 1.613 . S
N2162 C2165 1.350 . S
N2163 S2161 1.610 . S
N2163 C2164 1.351 . S
C2164 C2158 1.428 . S
C2164 N2163 1.351 . S
C2164 C2165 1.434 . S
C2165 C2156 1.429 . S
C2165 N2162 1.350 . S
C2165 C2164 1.434 . S
C2166 C2167 1.369 . S
C2166 C2168 1.419 . S
C2166 H2170 0.930 . S
C2167 C2166 1.369 . S
C2167 C2176 1.429 . S
C2168 C2166 1.419 . S
C2168 C2169 1.363 . S
C2168 H2171 0.929 . S
C2169 C2168 1.363 . S
C2169 C2175 1.428 . S
H2170 C2166 0.930 . S
H2171 C2168 0.929 . S
S2172 N2173 1.613 . S
S2172 N2174 1.610 . S
N2173 S2172 1.613 . S
N2173 C2176 1.350 . S
N2174 S2172 1.610 . S
N2174 C2175 1.351 . S
C2175 C2169 1.428 . S
C2175 N2174 1.351 . S
C2175 C2176 1.434 . S
C2176 C2167 1.429 . S
C2176 N2173 1.350 . S
C2176 C2175 1.434 . S
C2177 C2178 1.369 . S
C2177 C2179 1.419 . S
C2177 H2181 0.930 . S
C2178 C2177 1.369 . S
C2178 C2187 1.429 . S
C2179 C2177 1.419 . S
C2179 C2180 1.363 . S
C2179 H2182 0.929 . S
C2180 C2179 1.363 . S
C2180 C2186 1.428 . S
H2181 C2177 0.930 . S
H2182 C2179 0.929 . S
S2183 N2184 1.613 . S
S2183 N2185 1.610 . S
N2184 S2183 1.613 . S
N2184 C2187 1.350 . S
N2185 S2183 1.610 . S
N2185 C2186 1.351 . S
C2186 C2180 1.428 . S
C2186 N2185 1.351 . S
C2186 C2187 1.434 . S
C2187 C2178 1.429 . S
C2187 N2184 1.350 . S
C2187 C2186 1.434 . S
C2188 C2189 1.369 . S
C2188 C2190 1.419 . S
C2188 H2192 0.930 . S
C2189 C2188 1.369 . S
C2189 C2198 1.429 . S
C2190 C2188 1.419 . S
C2190 C2191 1.363 . S
C2190 H2193 0.929 . S
C2191 C2190 1.363 . S
C2191 C2197 1.428 . S
H2192 C2188 0.930 . S
H2193 C2190 0.929 . S
S2194 N2195 1.613 . S
S2194 N2196 1.610 . S
N2195 S2194 1.613 . S
N2195 C2198 1.350 . S
N2196 S2194 1.610 . S
N2196 C2197 1.351 . S
C2197 C2191 1.428 . S
C2197 N2196 1.351 . S
C2197 C2198 1.434 . S
C2198 C2189 1.429 . S
C2198 N2195 1.350 . S
C2198 C2197 1.434 . S
C2199 C2200 1.369 . S
C2199 C2201 1.419 . S
C2199 H2203 0.930 . S
C2200 C2199 1.369 . S
C2200 C2209 1.429 . S
C2201 C2199 1.419 . S
C2201 C2202 1.363 . S
C2201 H2204 0.929 . S
C2202 C2201 1.363 . S
C2202 C2208 1.428 . S
H2203 C2199 0.930 . S
H2204 C2201 0.929 . S
S2205 N2206 1.613 . S
S2205 N2207 1.610 . S
N2206 S2205 1.613 . S
N2206 C2209 1.350 . S
N2207 S2205 1.610 . S
N2207 C2208 1.351 . S
C2208 C2202 1.428 . S
C2208 N2207 1.351 . S
C2208 C2209 1.434 . S
C2209 C2200 1.429 . S
C2209 N2206 1.350 . S
C2209 C2208 1.434 . S
C2210 C2211 1.369 . S
C2210 C2212 1.419 . S
C2210 H2214 0.930 . S
C2211 C2210 1.369 . S
C2211 C2220 1.429 . S
C2212 C2210 1.419 . S
C2212 C2213 1.363 . S
C2212 H2215 0.929 . S
C2213 C2212 1.363 . S
C2213 C2219 1.428 . S
H2214 C2210 0.930 . S
H2215 C2212 0.929 . S
S2216 N2217 1.613 . S
S2216 N2218 1.610 . S
N2217 S2216 1.613 . S
N2217 C2220 1.350 . S
N2218 S2216 1.610 . S
N2218 C2219 1.351 . S
C2219 C2213 1.428 . S
C2219 N2218 1.351 . S
C2219 C2220 1.434 . S
C2220 C2211 1.429 . S
C2220 N2217 1.350 . S
C2220 C2219 1.434 . S
C2221 C2222 1.369 . S
C2221 C2223 1.419 . S
C2221 H2225 0.930 . S
C2222 C2221 1.369 . S
C2222 C2231 1.429 . S
C2223 C2221 1.419 . S
C2223 C2224 1.363 . S
C2223 H2226 0.929 . S
C2224 C2223 1.363 . S
C2224 C2230 1.428 . S
H2225 C2221 0.930 . S
H2226 C2223 0.929 . S
S2227 N2228 1.613 . S
S2227 N2229 1.610 . S
N2228 S2227 1.613 . S
N2228 C2231 1.350 . S
N2229 S2227 1.610 . S
N2229 C2230 1.351 . S
C2230 C2224 1.428 . S
C2230 N2229 1.351 . S
C2230 C2231 1.434 . S
C2231 C2222 1.429 . S
C2231 N2228 1.350 . S
C2231 C2230 1.434 . S
C2232 C2233 1.369 . S
C2232 C2234 1.419 . S
C2232 H2236 0.930 . S
C2233 C2232 1.369 . S
C2233 C2242 1.429 . S
C2234 C2232 1.419 . S
C2234 C2235 1.363 . S
C2234 H2237 0.929 . S
C2235 C2234 1.363 . S
C2235 C2241 1.428 . S
H2236 C2232 0.930 . S
H2237 C2234 0.929 . S
S2238 N2239 1.613 . S
S2238 N2240 1.610 . S
N2239 S2238 1.613 . S
N2239 C2242 1.350 . S
N2240 S2238 1.610 . S
N2240 C2241 1.351 . S
C2241 C2235 1.428 . S
C2241 N2240 1.351 . S
C2241 C2242 1.434 . S
C2242 C2233 1.429 . S
C2242 N2239 1.350 . S
C2242 C2241 1.434 . S
C2243 C2244 1.369 . S
C2243 C2245 1.419 . S
C2243 H2247 0.930 . S
C2244 C2243 1.369 . S
C2244 C2253 1.429 . S
C2245 C2243 1.419 . S
C2245 C2246 1.363 . S
C2245 H2248 0.929 . S
C2246 C2245 1.363 . S
C2246 C2252 1.428 . S
H2247 C2243 0.930 . S
H2248 C2245 0.929 . S
S2249 N2250 1.613 . S
S2249 N2251 1.610 . S
N2250 S2249 1.613 . S
N2250 C2253 1.350 . S
N2251 S2249 1.610 . S
N2251 C2252 1.351 . S
C2252 C2246 1.428 . S
C2252 N2251 1.351 . S
C2252 C2253 1.434 . S
C2253 C2244 1.429 . S
C2253 N2250 1.350 . S
C2253 C2252 1.434 . S
C2254 C2255 1.369 . S
C2254 C2256 1.419 . S
C2254 H2258 0.930 . S
C2255 C2254 1.369 . S
C2255 C2264 1.429 . S
C2256 C2254 1.419 . S
C2256 C2257 1.363 . S
C2256 H2259 0.929 . S
C2257 C2256 1.363 . S
C2257 C2263 1.428 . S
H2258 C2254 0.930 . S
H2259 C2256 0.929 . S
S2260 N2261 1.613 . S
S2260 N2262 1.610 . S
N2261 S2260 1.613 . S
N2261 C2264 1.350 . S
N2262 S2260 1.610 . S
N2262 C2263 1.351 . S
C2263 C2257 1.428 . S
C2263 N2262 1.351 . S
C2263 C2264 1.434 . S
C2264 C2255 1.429 . S
C2264 N2261 1.350 . S
C2264 C2263 1.434 . S
C2265 C2266 1.369 . S
C2265 C2267 1.419 . S
C2265 H2269 0.930 . S
C2266 C2265 1.369 . S
C2266 C2275 1.429 . S
C2267 C2265 1.419 . S
C2267 C2268 1.363 . S
C2267 H2270 0.929 . S
C2268 C2267 1.363 . S
C2268 C2274 1.428 . S
H2269 C2265 0.930 . S
H2270 C2267 0.929 . S
S2271 N2272 1.613 . S
S2271 N2273 1.610 . S
N2272 S2271 1.613 . S
N2272 C2275 1.350 1_565 S
N2273 S2271 1.610 . S
N2273 C2274 1.351 1_565 S
C2274 C2268 1.428 . S
C2274 N2273 1.351 1_545 S
C2274 C2275 1.434 . S
C2275 C2266 1.429 . S
C2275 N2272 1.350 1_545 S
C2275 C2274 1.434 . S
C2276 C2277 1.369 . S
C2276 C2278 1.419 . S
C2276 H2280 0.930 . S
C2277 C2276 1.369 . S
C2277 C2286 1.429 . S
C2278 C2276 1.419 . S
C2278 C2279 1.363 . S
C2278 H2281 0.929 . S
C2279 C2278 1.363 . S
C2279 C2285 1.428 . S
H2280 C2276 0.930 . S
H2281 C2278 0.929 . S
S2282 N2283 1.613 . S
S2282 N2284 1.610 . S
N2283 S2282 1.613 . S
N2283 C2286 1.350 . S
N2284 S2282 1.610 . S
N2284 C2285 1.351 . S
C2285 C2279 1.428 . S
C2285 N2284 1.351 . S
C2285 C2286 1.434 . S
C2286 C2277 1.429 . S
C2286 N2283 1.350 . S
C2286 C2285 1.434 . S
C2287 C2288 1.369 . S
C2287 C2289 1.419 . S
C2287 H2291 0.930 . S
C2288 C2287 1.369 . S
C2288 C2297 1.429 . S
C2289 C2287 1.419 . S
C2289 C2290 1.363 . S
C2289 H2292 0.929 . S
C2290 C2289 1.363 . S
C2290 C2296 1.428 . S
H2291 C2287 0.930 . S
H2292 C2289 0.929 . S
S2293 N2294 1.613 . S
S2293 N2295 1.610 . S
N2294 S2293 1.613 . S
N2294 C2297 1.350 . S
N2295 S2293 1.610 . S
N2295 C2296 1.351 . S
C2296 C2290 1.428 . S
C2296 N2295 1.351 . S
C2296 C2297 1.434 . S
C2297 C2288 1.429 . S
C2297 N2294 1.350 . S
C2297 C2296 1.434 . S
C2298 C2299 1.369 . S
C2298 C2300 1.419 . S
C2298 H2302 0.930 . S
C2299 C2298 1.369 . S
C2299 C2308 1.429 . S
C2300 C2298 1.419 . S
C2300 C2301 1.363 . S
C2300 H2303 0.929 . S
C2301 C2300 1.363 . S
C2301 C2307 1.428 . S
H2302 C2298 0.930 . S
H2303 C2300 0.929 . S
S2304 N2305 1.613 . S
S2304 N2306 1.610 . S
N2305 S2304 1.613 . S
N2305 C2308 1.350 . S
N2306 S2304 1.610 . S
N2306 C2307 1.351 . S
C2307 C2301 1.428 . S
C2307 N2306 1.351 . S
C2307 C2308 1.434 . S
C2308 C2299 1.429 . S
C2308 N2305 1.350 . S
C2308 C2307 1.434 . S
C2309 C2310 1.369 . S
C2309 C2311 1.419 . S
C2309 H2313 0.930 . S
C2310 C2309 1.369 . S
C2310 C2319 1.429 . S
C2311 C2309 1.419 . S
C2311 C2312 1.363 . S
C2311 H2314 0.929 . S
C2312 C2311 1.363 . S
C2312 C2318 1.428 . S
H2313 C2309 0.930 . S
H2314 C2311 0.929 . S
S2315 N2316 1.613 . S
S2315 N2317 1.610 . S
N2316 S2315 1.613 . S
N2316 C2319 1.350 . S
N2317 S2315 1.610 . S
N2317 C2318 1.351 . S
C2318 C2312 1.428 . S
C2318 N2317 1.351 . S
C2318 C2319 1.434 . S
C2319 C2310 1.429 . S
C2319 N2316 1.350 . S
C2319 C2318 1.434 . S
C1089 C137 1.552 1_554 S
C1091 C1 1.563 1_556 S
C1100 C989 1.564 1_554 S
C1102 C37 1.554 1_556 S
C1111 C477 1.550 . S
C1113 C69 1.563 . S
C1122 C105 1.558 . S
C1124 C783 1.557 . S
C1133 C853 1.551 1_556 S
C1135 C173 1.564 1_554 S
C1144 C205 1.551 . S
C1146 C341 1.563 . S
C1155 C239 1.553 . S
C1157 C649 1.561 . S
C1166 C275 1.565 . S
C1168 C411 1.553 . S
C1177 C717 1.550 . S
C1179 C309 1.564 . S
C1188 C1055 1.550 . S
C1190 C377 1.563 . S
C1199 C581 1.562 . S
C1201 C445 1.556 . S
C1210 C921 1.560 . S
C1212 C511 1.556 . S
C1221 C683 1.560 . S
C1223 C545 1.558 . S
C1232 C1021 1.565 . S
C1234 C613 1.552 . S
C1243 C749 1.565 . S
C1245 C885 1.552 . S
C1254 C819 1.561 1_556 S
C1256 C953 1.556 1_554 S
C1265 C22 1.867 1_655 S
C1267 C207 1.826 . S
C1276 C49 1.870 . S
C1278 C1057 1.822 . S
C1287 C409 1.827 . S
C1289 C90 1.868 1_655 S
C1298 C715 1.825 . S
C1300 C117 1.866 . S
C1309 C71 1.828 . S
C1311 C158 1.866 1_455 S
C1320 C185 1.865 . S
C1322 C919 1.827 . S
C1331 C226 1.866 1_455 S
C1333 C273 1.825 . S
C1342 C260 1.865 . S
C1344 C579 1.827 . S
C1353 C287 1.865 1_655 S
C1355 C479 1.826 . S
C1364 C321 1.867 . S
C1366 C785 1.826 . S
C1375 C139 1.822 . S
C1377 C362 1.868 1_655 S
C1386 C389 1.869 . S
C1388 C987 1.823 . S
C1397 C423 1.865 1_455 S
C1399 C343 1.825 . S
C1408 C457 1.869 . S
C1410 C647 1.825 . S
C1419 C498 1.866 1_455 S
C1421 C3 1.828 . S
C1430 C532 1.866 . S
C1432 C851 1.828 . S
C1441 C751 1.828 . S
C1443 C566 1.866 . S
C1452 C593 1.868 . S
C1454 C513 1.822 . S
C1463 C955 1.823 . S
C1465 C634 1.869 . S
C1474 C171 1.824 . S
C1476 C661 1.869 . S
C1485 C695 1.867 . S
C1487 C615 1.822 . S
C1496 C375 1.821 . S
C1498 C729 1.869 . S
C1507 C817 1.827 . S
C1509 C770 1.866 . S
C1518 C35 1.828 . S
C1520 C804 1.866 . S
C1529 C1023 1.825 . S
C1531 C831 1.868 . S
C1540 C865 1.870 . S
C1542 C241 1.822 . S
C1551 C681 1.826 . S
C1553 C906 1.866 . S
C1562 C443 1.823 . S
C1564 C933 1.869 . S
C1573 C887 1.821 . S
C1575 C974 1.868 . S
C1584 C103 1.828 . S
C1586 C1001 1.866 . S
C1595 C1042 1.870 . S
C1597 C547 1.824 . S
C1606 C1076 1.865 . S
C1608 C307 1.826 . S
C1617 C346 1.027 . S
C1619 C6 1.016 . S
C1628 C402 1.011 . S
C1630 C62 1.025 . S
C1639 C300 1.027 . S
C1641 C74 1.014 . S
C1650 C334 1.011 . S
C1652 C130 1.025 . S
C1661 C482 1.011 . S
C1663 C142 1.025 . S
C1672 C198 1.012 . S
C1674 C516 1.025 . S
C1683 C436 1.015 . S
C1685 C210 1.025 . S
C1694 C244 1.010 . S
C1696 C470 1.024 . S
C1705 C550 1.027 . S
C1707 C890 1.013 . S
C1716 C606 1.010 . S
C1718 C946 1.023 . S
C1727 C844 1.011 . S
C1729 C618 1.024 . S
C1738 C878 1.012 . S
C1740 C674 1.025 . S
C1749 C1026 1.011 . S
C1751 C708 1.020 . S
C1760 C1060 1.010 . S
C1762 C742 1.025 . S
C1771 C958 1.024 . S
C1773 C754 1.012 . S
C1782 C788 1.014 . S
C1784 C1014 1.025 . S
C1793 C17 2.027 . S
C1795 C51 2.029 . S
C1804 C85 2.028 . S
C1806 C119 2.026 . S
C1815 C153 2.026 . S
C1817 C187 2.025 . S
C1826 C221 2.024 . S
C1828 C255 2.027 . S
C1837 C289 2.028 . S
C1839 C323 2.026 . S
C1848 C391 2.028 . S
C1850 C357 2.028 . S
C1859 C459 2.026 . S
C1861 C425 2.026 . S
C1870 C527 2.026 . S
C1872 C493 2.029 . S
C1881 C595 2.029 . S
C1883 C561 2.026 . S
C1892 C663 2.029 . S
C1894 C629 2.027 . S
C1903 C697 2.026 . S
C1905 C731 2.026 . S
C1914 C765 2.024 . S
C1916 C799 2.026 . S
C1925 C833 2.028 . S
C1927 C867 2.029 . S
C1936 C935 2.029 . S
C1938 C901 2.028 . S
C1947 C1003 2.028 . S
C1949 C969 2.026 . S
C1958 C1071 2.024 . S
C1960 C1037 2.027 . S
C1969 C96 0.908 . S
C1971 C28 0.913 . S
C1980 C40 0.905 . S
C1982 C108 0.912 . S
C1991 C164 0.915 . S
C1993 C232 0.908 . S
C2002 C266 0.915 . S
C2004 C176 0.907 . S
C2013 C278 0.906 . S
C2015 C368 0.911 . S
C2024 C380 0.915 . S
C2026 C312 0.907 . S
C2035 C414 0.915 . S
C2037 C504 0.908 . S
C2046 C448 0.915 . S
C2048 C538 0.907 . S
C2057 C572 0.905 . S
C2059 C640 0.914 . S
C2068 C584 0.915 . S
C2070 C652 0.908 . S
C2079 C776 0.905 . S
C2081 C686 0.913 . S
C2090 C810 0.915 . S
C2092 C720 0.908 . S
C2101 C822 0.914 . S
C2103 C912 0.906 . S
C2112 C856 0.910 . S
C2114 C924 0.913 . S
C2123 C1048 0.905 . S
C2125 C980 0.914 . S
C2134 C1082 0.909 . S
C2136 C992 0.908 . S
C2145 C15 0.598 . S
C2147 C124 0.602 . S
C2156 C56 0.596 . S
C2158 C83 0.603 . S
C2167 C253 0.604 . S
C2169 C151 0.598 . S
C2178 C192 0.597 . S
C2180 C219 0.601 . S
C2189 C294 0.598 . S
C2191 C396 0.600 . S
C2200 C355 0.600 . S
C2202 C328 0.599 . S
C2211 C525 0.597 . S
C2213 C430 0.603 . S
C2222 C464 0.599 . S
C2224 C491 0.599 . S
C2233 C668 0.601 . S
C2235 C559 0.600 . S
C2244 C600 0.603 . S
C2246 C627 0.598 . S
C2255 C702 0.596 . S
C2257 C797 0.602 . S
C2266 C736 0.603 . S
C2268 C763 0.599 . S
C2277 C838 0.600 . S
C2279 C940 0.601 . S
C2288 C872 0.600 . S
C2290 C899 0.599 . S
C2299 C967 0.599 . S
C2301 C1069 0.602 . S
C2310 C1008 0.600 . S
C2312 C1035 0.601 . S
