# Generated by pormake.
# Topology wkb, (5)-cn, num edge types: 1
# Building blocks:
#     Node 0, Type 0, BuildingBlock: XOMCOT_clean_sbu_1, # of connection points: 5
#     Node 1, Type 0, BuildingBlock: XOMCOT_clean_sbu_1, # of connection points: 5
#     Node 2, Type 0, BuildingBlock: XOMCOT_clean_sbu_1, # of connection points: 5
#     Node 3, Type 0, BuildingBlock: XOMCOT_clean_sbu_1, # of connection points: 5
#     Node 4, Type 0, BuildingBlock: XOMCOT_clean_sbu_1, # of connection points: 5
#     Node 5, Type 0, BuildingBlock: XOMCOT_clean_sbu_1, # of connection points: 5
#     Node 6, Type 0, BuildingBlock: XOMCOT_clean_sbu_1, # of connection points: 5
#     Node 7, Type 0, BuildingBlock: XOMCOT_clean_sbu_1, # of connection points: 5
#     Node 8, Type 0, BuildingBlock: XOMCOT_clean_sbu_1, # of connection points: 5
#     Node 9, Type 0, BuildingBlock: XOMCOT_clean_sbu_1, # of connection points: 5
#     Node 10, Type 0, BuildingBlock: XOMCOT_clean_sbu_1, # of connection points: 5
#     Node 11, Type 0, BuildingBlock: XOMCOT_clean_sbu_1, # of connection points: 5
#     Edge 12, Type (0, 0), BuildingBlock: ZUJKAS_clean_linker_0, # of connection points: 2
#     Edge 13, Type (0, 0), BuildingBlock: ZUJKAS_clean_linker_0, # of connection points: 2
#     Edge 14, Type (0, 0), BuildingBlock: ZUJKAS_clean_linker_0, # of connection points: 2
#     Edge 15, Type (0, 0), BuildingBlock: ZUJKAS_clean_linker_0, # of connection points: 2
#     Edge 16, Type (0, 0), BuildingBlock: ZUJKAS_clean_linker_0, # of connection points: 2
#     Edge 17, Type (0, 0), BuildingBlock: ZUJKAS_clean_linker_0, # of connection points: 2
#     Edge 18, Type (0, 0), BuildingBlock: ZUJKAS_clean_linker_0, # of connection points: 2
#     Edge 19, Type (0, 0), BuildingBlock: ZUJKAS_clean_linker_0, # of connection points: 2
#     Edge 20, Type (0, 0), BuildingBlock: ZUJKAS_clean_linker_0, # of connection points: 2
#     Edge 21, Type (0, 0), BuildingBlock: ZUJKAS_clean_linker_0, # of connection points: 2
#     Edge 22, Type (0, 0), BuildingBlock: ZUJKAS_clean_linker_0, # of connection points: 2
#     Edge 23, Type (0, 0), BuildingBlock: ZUJKAS_clean_linker_0, # of connection points: 2
#     Edge 24, Type (0, 0), BuildingBlock: ZUJKAS_clean_linker_0, # of connection points: 2
#     Edge 25, Type (0, 0), BuildingBlock: ZUJKAS_clean_linker_0, # of connection points: 2
#     Edge 26, Type (0, 0), BuildingBlock: ZUJKAS_clean_linker_0, # of connection points: 2
#     Edge 27, Type (0, 0), BuildingBlock: ZUJKAS_clean_linker_0, # of connection points: 2
#     Edge 28, Type (0, 0), BuildingBlock: ZUJKAS_clean_linker_0, # of connection points: 2
#     Edge 29, Type (0, 0), BuildingBlock: ZUJKAS_clean_linker_0, # of connection points: 2
#     Edge 30, Type (0, 0), BuildingBlock: ZUJKAS_clean_linker_0, # of connection points: 2
#     Edge 31, Type (0, 0), BuildingBlock: ZUJKAS_clean_linker_0, # of connection points: 2
#     Edge 32, Type (0, 0), BuildingBlock: ZUJKAS_clean_linker_0, # of connection points: 2
#     Edge 33, Type (0, 0), BuildingBlock: ZUJKAS_clean_linker_0, # of connection points: 2
#     Edge 34, Type (0, 0), BuildingBlock: ZUJKAS_clean_linker_0, # of connection points: 2
#     Edge 35, Type (0, 0), BuildingBlock: ZUJKAS_clean_linker_0, # of connection points: 2
#     Edge 36, Type (0, 0), BuildingBlock: ZUJKAS_clean_linker_0, # of connection points: 2
#     Edge 37, Type (0, 0), BuildingBlock: ZUJKAS_clean_linker_0, # of connection points: 2
#     Edge 38, Type (0, 0), BuildingBlock: ZUJKAS_clean_linker_0, # of connection points: 2
#     Edge 39, Type (0, 0), BuildingBlock: ZUJKAS_clean_linker_0, # of connection points: 2
#     Edge 40, Type (0, 0), BuildingBlock: ZUJKAS_clean_linker_0, # of connection points: 2
#     Edge 41, Type (0, 0), BuildingBlock: ZUJKAS_clean_linker_0, # of connection points: 2
# Relax obj value: 0.058
# Max RMSD: 0.101
# Mean RMSD: 0.101
data_MOF--net-wkb--node1-XOMCOT_clean_sbu_1--edge1-ZUJKAS_clean_linker_0
_symmetry_space_group_name_H-M    P1
_symmetry_Int_Tables_number       1
_symmetry_cell_setting            triclinic
loop_
_symmetry_equiv_pos_as_xyz
'x, y, z'
_cell_length_a     59.020621
_cell_length_b     59.104287
_cell_length_c     46.40748
_cell_angle_alpha  89.933534
_cell_angle_beta   90.051713
_cell_angle_gamma 120.04514
loop_
_atom_site_label
_atom_site_type_symbol
_atom_site_fract_x
_atom_site_fract_y
_atom_site_fract_z
_atom_type_partial_charge
C0 C 0.09068 0.37307 0.01199 0.0
C1 C 0.08537 0.37078 0.98304 0.0
N2 N 0.06624 0.34609 0.97766 0.0
N3 N 0.07485 0.35003 0.02492 0.0
C4 C 0.0603 0.33381 0.00348 0.0
H5 H 0.10534 0.39035 0.02303 0.0
Co6 Co 0.0773 0.34478 0.06379 0.0
C7 C 1.01867 0.30785 0.0738 0.0
O8 O 1.01451 0.32656 0.08244 0.0
N9 N 0.08076 0.3396 0.10314 0.0
C10 C 0.07466 0.33372 0.15049 0.0
C11 C 0.0639 0.33544 0.12491 0.0
C12 C 0.10163 0.34038 0.11615 0.0
N13 N 0.0984 0.33681 0.1449 0.0
O14 O 0.09151 0.32253 0.0534 0.0
H15 H 0.04532 0.33458 0.12274 0.0
H16 H 0.11926 0.34429 0.10497 0.0
O17 O 0.04154 0.31322 0.06528 0.0
C18 C 0.11584 0.33582 0.04717 0.0
O19 O 0.12795 0.36126 0.051 0.0
N20 N 0.06612 0.36942 0.07251 0.0
C21 C 0.06038 0.41367 0.07861 0.0
C22 C 0.04455 0.39353 0.05943 0.0
C23 C 0.04809 0.37192 0.05627 0.0
C24 C 0.08183 0.38904 0.09105 0.0
C25 C 0.07901 0.41099 0.09475 0.0
H26 H 0.03677 0.35749 0.04006 0.0
H27 H 0.09761 0.38846 0.10219 0.0
H28 H 0.0457 0.3135 0.00676 0.0
H29 H 0.0953 0.38601 0.96711 0.0
H30 H 0.06571 0.33051 0.17156 0.0
H31 H 0.03041 0.39502 0.04588 0.0
H32 H 0.09187 0.42609 0.10965 0.0
C33 C 0.74016 0.08469 0.17872 0.0
C34 C 0.74024 0.08222 0.14936 0.0
N35 N 0.7463 0.06361 0.14332 0.0
N36 N 0.74608 0.06767 0.19113 0.0
C37 C 0.74969 0.05496 0.16903 0.0
H38 H 0.73683 0.09858 0.19042 0.0
Co39 Co 0.75258 0.06859 0.23016 0.0
C40 C 0.73029 1.00974 0.23798 0.0
O41 O 0.70713 1.00549 0.24571 0.0
N42 N 0.76012 0.07061 0.26974 0.0
C43 C 0.75898 0.06299 0.31683 0.0
C44 C 0.74708 0.05302 0.29079 0.0
C45 C 0.77976 0.09113 0.28365 0.0
N46 N 0.77959 0.08704 0.31231 0.0
O47 O 0.78933 0.08294 0.2208 0.0
H48 H 0.72943 0.0345 0.28784 0.0
H49 H 0.79393 0.10884 0.27299 0.0
O50 O 0.74816 0.03278 0.23044 0.0
C51 C 0.80084 0.10745 0.21552 0.0
O52 O 0.7878 0.1198 0.21979 0.0
N53 N 0.71651 0.05731 0.23792 0.0
C54 C 0.66626 0.05126 0.24347 0.0
C55 C 0.67115 0.03648 0.22338 0.0
C56 C 0.69643 0.04018 0.22054 0.0
C57 C 0.71205 0.07208 0.25726 0.0
C58 C 0.68714 0.06906 0.26071 0.0
H59 H 0.69999 0.02964 0.20379 0.0
H60 H 0.7281 0.08727 0.26936 0.0
H61 H 0.7559 0.04068 0.17164 0.0
H62 H 0.73642 0.09343 0.13361 0.0
H63 H 0.75239 0.05353 0.33755 0.0
H64 H 0.65588 0.02303 0.20901 0.0
H65 H 0.68447 0.08109 0.27637 0.0
C66 C 0.67382 0.72864 0.34445 0.0
C67 C 0.6762 0.72675 0.31532 0.0
N68 N 0.70099 0.73274 0.30955 0.0
N69 N 0.69691 0.73563 0.35716 0.0
C70 C 0.71323 0.73823 0.33541 0.0
H71 H 0.6565 0.7256 0.35576 0.0
Co72 Co 0.7021 0.74269 0.39614 0.0
C73 C 0.73929 0.72129 0.40529 0.0
O74 O 0.72051 0.69818 0.41333 0.0
N75 N 0.70721 0.75074 0.43563 0.0
C76 C 0.71349 0.75026 0.48285 0.0
C77 C 0.71184 0.73812 0.45708 0.0
C78 C 0.70601 0.7704 0.44901 0.0
N79 N 0.70982 0.77063 0.47775 0.0
O80 O 0.7241 0.77937 0.38628 0.0
H81 H 0.71297 0.72059 0.4546 0.0
H82 H 0.70236 0.7843 0.43792 0.0
O83 O 0.73392 0.73888 0.39724 0.0
C84 C 0.71061 0.79025 0.38033 0.0
O85 O 0.68514 0.77666 0.38425 0.0
N86 N 0.67766 0.70657 0.40435 0.0
C87 C 0.63396 0.65601 0.41001 0.0
C88 C 0.65378 0.66122 0.38997 0.0
C89 C 0.67518 0.68658 0.3872 0.0
C90 C 0.65823 0.70182 0.42359 0.0
C91 C 0.63661 0.67674 0.42715 0.0
H92 H 0.68956 0.69025 0.37071 0.0
H93 H 0.65864 0.71776 0.43541 0.0
H94 H 0.73365 0.74424 0.33852 0.0
H95 H 0.66096 0.7221 0.29957 0.0
H96 H 0.71635 0.744 0.50378 0.0
H97 H 0.65258 0.64594 0.37611 0.0
H98 H 0.62141 0.67394 0.44221 0.0
C99 C 0.95977 0.66253 0.51393 0.0
C100 C 0.96393 0.66379 0.4848 0.0
N101 N 0.98389 0.68781 0.47829 0.0
N102 N 0.97704 0.68555 0.5259 0.0
C103 C 0.9914 0.70074 0.50369 0.0
H104 H 0.94489 0.64597 0.52577 0.0
Co105 Co 0.97609 0.69169 0.56475 0.0
C106 C 0.03512 0.7283 0.57239 0.0
O107 O 0.03936 0.70949 0.5805 0.0
N108 N 0.97407 0.6977 0.60417 0.0
C109 C 0.9818 0.70447 0.65119 0.0
C110 C 0.99171 0.70237 0.62521 0.0
C111 C 0.95358 0.69695 0.61801 0.0
N112 N 0.95775 0.70104 0.64665 0.0
O113 O 0.96195 0.7141 0.55467 0.0
H114 H 1.01017 0.7031 0.62233 0.0
H115 H 0.93583 0.69329 0.60733 0.0
O116 O 1.01205 0.72304 0.56479 0.0
C117 C 0.93738 0.70123 0.54947 0.0
O118 O 0.92477 0.67589 0.55418 0.0
N119 N 0.98719 0.6669 0.57324 0.0
C120 C 0.99281 0.62256 0.57952 0.0
C121 C 1.00788 0.64215 0.55943 0.0
C122 C 1.00439 0.66379 0.55621 0.0
C123 C 0.97218 0.64779 0.59266 0.0
C124 C 0.97496 0.62581 0.59645 0.0
H125 H 1.01514 0.67777 0.5394 0.0
H126 H 0.95696 0.64879 0.60451 0.0
H127 H 1.007 0.72076 0.50617 0.0
H128 H 0.95265 0.64833 0.46955 0.0
H129 H 0.99128 0.70737 0.67191 0.0
H130 H 1.02138 0.64019 0.54527 0.0
H131 H 0.96268 0.61113 0.61207 0.0
C132 C 0.31906 0.95499 0.67955 0.0
C133 C 0.32113 0.95892 0.65036 0.0
N134 N 0.3134 0.97626 0.64381 0.0
N135 N 0.31037 0.96998 0.69152 0.0
C136 C 0.30679 0.98257 0.66923 0.0
H137 H 0.32312 0.94164 0.6914 0.0
Co138 Co 0.30247 0.96798 0.73029 0.0
C139 C 0.32358 0.02651 0.73938 0.0
O140 O 0.34654 0.03097 0.74824 0.0
N141 N 0.29363 0.96493 0.76954 0.0
C142 C 0.29356 0.97149 0.81674 0.0
C143 C 0.30616 0.98202 0.79116 0.0
C144 C 0.27353 0.94415 0.78262 0.0
N145 N 0.27301 0.94766 0.81129 0.0
O146 O 0.26594 0.95324 0.71955 0.0
H147 H 0.32385 1.00061 0.78891 0.0
H148 H 0.25992 0.92639 0.77158 0.0
O149 O 0.30625 1.00355 0.73099 0.0
C150 C 0.25524 0.92891 0.71354 0.0
O151 O 0.26893 0.91722 0.71777 0.0
N152 N 0.33841 0.97965 0.73946 0.0
C153 C 0.38861 0.98579 0.74609 0.0
C154 C 0.38418 1.00129 0.72654 0.0
C155 C 0.35893 0.99757 0.72313 0.0
C156 C 0.34246 0.96431 0.75843 0.0
C157 C 0.36733 0.96733 0.76239 0.0
H158 H 0.35572 1.00856 0.70659 0.0
H159 H 0.32612 0.94861 0.76968 0.0
H160 H 0.29915 0.99572 0.67158 0.0
H161 H 0.32699 0.94903 0.63503 0.0
H162 H 0.29915 0.98064 0.83772 0.0
H163 H 0.39979 1.01529 0.71286 0.0
H164 H 0.36966 0.95472 0.77759 0.0
C165 C 0.37912 0.30497 0.84533 0.0
C166 C 0.37706 0.30691 0.81613 0.0
N167 N 0.3524 0.30116 0.81002 0.0
N168 N 0.35597 0.29823 0.8577 0.0
C169 C 0.33991 0.29577 0.8357 0.0
H170 H 0.39629 0.30789 0.85692 0.0
Co171 Co 0.35039 0.29155 0.8967 0.0
C172 C 0.3137 0.31377 0.90434 0.0
O173 O 0.33259 0.33695 0.91199 0.0
N174 N 0.34488 0.28392 0.93624 0.0
C175 C 0.33865 0.28533 0.98334 0.0
C176 C 0.34016 0.2969 0.95719 0.0
C177 C 0.34617 0.26458 0.95029 0.0
N178 N 0.34242 0.26497 0.97892 0.0
O179 O 0.32799 0.25489 0.88724 0.0
H180 H 0.33886 0.31427 0.95409 0.0
H181 H 0.35067 0.25093 0.93996 0.0
O182 O 0.31892 0.29593 0.897 0.0
C183 C 0.34102 0.24341 0.88198 0.0
O184 O 0.36646 0.25648 0.88622 0.0
N185 N 0.3752 0.32757 0.90459 0.0
C186 C 0.41954 0.3777 0.91004 0.0
C187 C 0.39975 0.37288 0.8901 0.0
C188 C 0.3781 0.34767 0.8873 0.0
C189 C 0.39452 0.33198 0.92387 0.0
C190 C 0.4165 0.35683 0.92725 0.0
H191 H 0.36394 0.34417 0.87058 0.0
H192 H 0.39369 0.31593 0.93592 0.0
H193 H 0.31952 0.29004 0.83847 0.0
H194 H 0.39241 0.31151 0.80055 0.0
H195 H 0.33518 0.29152 0.004 0.0
H196 H 0.40154 0.38815 0.87574 0.0
H197 H 0.43134 0.35946 0.94277 0.0
C198 C 0.67407 0.95115 0.82295 0.0
C199 C 0.67752 0.95503 0.85213 0.0
N200 N 0.7024 0.97396 0.85698 0.0
N201 N 0.69662 0.96763 0.80946 0.0
C202 C 0.71362 0.98135 0.83072 0.0
H203 H 0.65642 0.93683 0.81214 0.0
Co204 Co 0.70118 0.96577 0.77036 0.0
C205 C 0.73795 0.0245 0.76122 0.0
O206 O 0.71905 0.02884 0.75372 0.0
N207 N 0.70576 0.96294 0.73072 0.0
C208 C 0.71104 0.96979 0.68341 0.0
C209 C 0.70978 0.98018 0.70942 0.0
C210 C 0.70461 0.94224 0.71702 0.0
N211 N 0.70783 0.94592 0.68828 0.0
O212 O 0.72366 0.95151 0.77949 0.0
H213 H 0.71087 0.99878 0.71223 0.0
H214 H 0.70072 0.92441 0.7277 0.0
O215 O 0.73271 1.00151 0.76895 0.0
C216 C 0.71061 0.92709 0.78525 0.0
O217 O 0.6851 0.91478 0.7816 0.0
N218 N 0.67632 0.97699 0.76289 0.0
C219 C 0.63217 0.98316 0.75771 0.0
C220 C 0.65233 0.99836 0.7772 0.0
C221 C 0.67388 0.99459 0.77989 0.0
C222 C 0.65659 0.96177 0.74419 0.0
C223 C 0.63472 0.96484 0.74091 0.0
H224 H 0.68838 1.00549 0.79622 0.0
H225 H 0.65706 0.94623 0.73247 0.0
H226 H 0.734 0.99567 0.82711 0.0
H227 H 0.66287 0.9447 0.86854 0.0
H228 H 0.71405 0.97908 0.66255 0.0
H229 H 0.65093 1.01223 0.79124 0.0
H230 H 0.61962 0.95246 0.72573 0.0
C231 C 0.73492 0.66177 0.98824 0.0
C232 C 0.73319 0.66384 0.01745 0.0
N233 N 0.74045 0.68884 0.02374 0.0
N234 N 0.74299 0.68524 0.976 0.0
C235 C 0.74646 0.7015 0.99812 0.0
H236 H 0.73114 0.64438 0.97657 0.0
Co237 Co 0.75065 0.69098 0.93716 0.0
C238 C 0.72921 0.72813 0.92792 0.0
O239 O 0.70626 0.70952 0.91918 0.0
N240 N 0.75926 0.69661 0.89785 0.0
C241 C 0.7592 0.70306 0.85059 0.0
C242 C 0.74669 0.70113 0.8762 0.0
C243 C 0.77929 0.69584 0.88475 0.0
N244 N 0.77974 0.69976 0.85606 0.0
O245 O 0.78719 0.713 0.94763 0.0
H246 H 0.72903 0.70208 0.87845 0.0
H247 H 0.7929 0.69167 0.89582 0.0
O248 O 0.74666 0.72263 0.9363 0.0
C249 C 0.79809 0.69957 0.95373 0.0
O250 O 0.78456 0.67415 0.94972 0.0
N251 N 0.71472 0.66656 0.92829 0.0
C252 C 0.66451 0.6225 0.92189 0.0
C253 C 0.669 0.64244 0.94142 0.0
C254 C 0.69425 0.66395 0.94472 0.0
C255 C 0.71062 0.64714 0.90939 0.0
C256 C 0.68575 0.62529 0.90554 0.0
H257 H 0.69751 0.67819 0.9612 0.0
H258 H 0.72692 0.64779 0.89807 0.0
H259 H 0.75362 0.72218 0.99547 0.0
H260 H 0.7279 0.64828 0.03292 0.0
H261 H 0.75355 0.70656 0.82959 0.0
H262 H 0.65342 0.64084 0.95511 0.0
H263 H 0.68336 0.61035 0.89036 0.0
C264 C 0.0955 0.73413 0.15474 0.0
C265 C 0.09324 0.73442 0.18412 0.0
N266 N 0.07388 0.73941 0.19021 0.0
N267 N 0.07764 0.73889 0.14239 0.0
C268 C 0.0646 0.74197 0.16454 0.0
H269 H 0.10977 0.7314 0.14299 0.0
Co270 Co 0.07796 0.7447 0.10328 0.0
C271 C 1.01886 0.72185 0.09632 0.0
O272 O 1.01465 0.69864 0.08904 0.0
N273 N 0.07936 0.75155 0.06356 0.0
C274 C 0.07112 0.74948 0.01655 0.0
C275 C 0.06154 0.73801 0.04288 0.0
C276 C 0.09961 0.77105 0.04916 0.0
N277 N 0.09514 0.77031 0.02053 0.0
O278 O 0.09205 0.78147 0.11196 0.0
H279 H 0.04315 0.72031 0.04628 0.0
H280 H 0.11739 0.78554 0.05945 0.0
O281 O 0.04197 0.73992 0.10337 0.0
C282 C 0.11667 0.79337 0.11684 0.0
O283 O 0.12936 0.78068 0.11245 0.0
N284 N 0.06691 0.70865 0.0962 0.0
C285 C 0.06103 0.65852 0.09128 0.0
C286 C 0.04643 0.66357 0.11145 0.0
C287 C 0.05006 0.68881 0.114 0.0
C288 C 0.08157 0.70406 0.07681 0.0
C289 C 0.07864 0.6792 0.07368 0.0
H290 H 0.03964 0.69251 0.13079 0.0
H291 H 0.09659 0.71997 0.06439 0.0
H292 H 0.04951 0.74713 0.16197 0.0
H293 H 0.10503 0.73139 0.19985 0.0
H294 H 0.06142 0.74245 0.99601 0.0
H295 H 0.03314 0.64846 0.12609 0.0
H296 H 0.09056 0.67639 0.05797 0.0
C297 C 0.38051 0.08042 0.32349 0.0
C298 C 0.37757 0.07491 0.3524 0.0
N299 N 0.35237 0.05683 0.35738 0.0
N300 N 0.35737 0.06567 0.3102 0.0
C301 C 0.34044 0.05166 0.3314 0.0
H302 H 0.39831 0.0945 0.31273 0.0
Co303 Co 0.35267 0.06867 0.27131 0.0
C304 C 0.3156 1.01033 0.26029 0.0
O305 O 0.33436 1.00623 0.25161 0.0
N306 N 0.34798 0.07258 0.23191 0.0
C307 C 0.34259 0.06679 0.18451 0.0
C308 C 0.34451 0.0561 0.21002 0.0
C309 C 0.34823 0.09322 0.21901 0.0
N310 N 0.3449 0.09018 0.19018 0.0
O311 O 0.33046 0.08296 0.28161 0.0
H312 H 0.3444 0.03789 0.21205 0.0
H313 H 0.35083 0.11021 0.23051 0.0
O314 O 0.32097 0.03306 0.2692 0.0
C315 C 0.34383 0.1072 0.28813 0.0
O316 O 0.36935 0.11919 0.28461 0.0
N317 N 0.37731 0.05743 0.26274 0.0
C318 C 0.42152 0.05148 0.25691 0.0
C319 C 0.40104 0.03541 0.27564 0.0
C320 C 0.37945 0.03906 0.27869 0.0
C321 C 0.39729 0.07339 0.24468 0.0
C322 C 0.41922 0.07048 0.2411 0.0
H323 H 0.36475 0.02756 0.29461 0.0
H324 H 0.39697 0.08941 0.23382 0.0
H325 H 0.31984 0.0381 0.32786 0.0
H326 H 0.3927 0.08404 0.36861 0.0
H327 H 0.34047 0.05827 0.16336 0.0
H328 H 0.40224 0.02098 0.28895 0.0
H329 H 0.43459 0.08353 0.22655 0.0
C330 C 0.31568 0.37193 0.48816 0.0
C331 C 0.31737 0.36976 0.51738 0.0
N332 N 0.31104 0.34497 0.5235 0.0
N333 N 0.30853 0.34872 0.47579 0.0
C334 C 0.30556 0.33251 0.49781 0.0
H335 H 0.31904 0.38922 0.47654 0.0
Co336 Co 0.30192 0.34325 0.43675 0.0
C337 C 0.32338 0.30595 0.42914 0.0
O338 O 0.34668 0.32459 0.4214 0.0
N339 N 0.29433 0.33786 0.3972 0.0
C340 C 0.29548 0.33135 0.35016 0.0
C341 C 0.30724 0.33307 0.37624 0.0
C342 C 0.27489 0.33906 0.38321 0.0
N343 N 0.27507 0.33513 0.35455 0.0
O344 O 0.26509 0.32131 0.44617 0.0
H345 H 0.32473 0.33191 0.37928 0.0
H346 H 0.26087 0.34285 0.39382 0.0
O347 O 0.30572 0.31147 0.43651 0.0
C348 C 0.25399 0.33466 0.45166 0.0
O349 O 0.26745 0.36006 0.4475 0.0
N350 N 0.33819 0.36757 0.42895 0.0
C351 C 0.38894 0.41109 0.42368 0.0
C352 C 0.38342 0.39139 0.444 0.0
C353 C 0.35797 0.3701 0.44657 0.0
C354 C 0.34323 0.38687 0.4094 0.0
C355 C 0.36843 0.4084 0.40603 0.0
H356 H 0.35407 0.35584 0.46328 0.0
H357 H 0.32744 0.38642 0.39714 0.0
H358 H 0.29939 0.31205 0.49505 0.0
H359 H 0.32219 0.38513 0.53295 0.0
H360 H 0.30206 0.3284 0.32949 0.0
H361 H 0.39854 0.39262 0.45824 0.0
H362 H 0.37146 0.4235 0.39071 0.0
C363 C 0.95961 0.3031 0.65601 0.0
C364 C 0.96197 0.30217 0.68532 0.0
N365 N 0.98065 0.29605 0.6908 0.0
N366 N 0.97673 0.29758 0.64311 0.0
C367 C 0.98944 0.29344 0.66487 0.0
H368 H 0.94559 0.30653 0.64467 0.0
Co369 Co 0.97543 0.29149 0.60398 0.0
C370 C 0.03426 0.31401 0.59515 0.0
O371 O 0.03825 0.33707 0.58751 0.0
N372 N 0.97306 0.28435 0.56428 0.0
C373 C 0.98018 0.28613 0.51701 0.0
C374 C 0.99023 0.29797 0.54306 0.0
C375 C 0.95274 0.26438 0.55047 0.0
N376 N 0.9566 0.26495 0.52177 0.0
O377 O 0.96125 0.25471 0.61289 0.0
H378 H 1.00854 0.31586 0.54594 0.0
H379 H 0.93504 0.25001 0.56105 0.0
O380 O 1.01136 0.29607 0.60305 0.0
C381 C 0.93674 0.24318 0.61838 0.0
O382 O 0.92436 0.25626 0.61449 0.0
N383 N 0.98649 0.32753 0.59678 0.0
C384 C 0.99229 0.37766 0.5921 0.0
C385 C 1.00751 0.37274 0.6116 0.0
C386 C 1.00391 0.3475 0.61406 0.0
C387 C 0.97128 0.33201 0.57804 0.0
C388 C 0.97415 0.35687 0.57503 0.0
H389 H 1.01477 0.34387 0.63041 0.0
H390 H 0.95587 0.31601 0.5661 0.0
H391 H 1.00367 0.2872 0.66184 0.0
H392 H 0.95052 0.30525 0.70143 0.0
H393 H 0.9895 0.29263 0.4962 0.0
H394 H 1.02125 0.38796 0.62583 0.0
H395 H 0.96176 0.35958 0.55986 0.0
H396 H 0.26485 0.31283 0.30146 0.0
H397 H 0.23608 0.31441 0.26475 0.0
H398 H 0.21562 0.35862 0.32227 0.0
H399 H 0.24527 0.35829 0.35859 0.0
H400 H 0.18361 0.29539 0.26667 0.0
H401 H 0.23544 0.40271 0.24995 0.0
H402 H 0.24987 0.38662 0.26946 0.0
H403 H 0.22666 0.39337 0.28685 0.0
C404 C 0.25461 0.32328 0.30622 0.0
C405 C 0.25763 0.33559 0.33303 0.0
C406 C 0.238 0.32398 0.28524 0.0
C407 C 0.22407 0.33702 0.29059 0.0
C408 C 0.22665 0.34895 0.31744 0.0
H409 H 0.10427 0.3522 0.20063 0.0
H410 H 0.13509 0.35179 0.23567 0.0
C411 C 0.24338 0.34841 0.33838 0.0
C412 C 0.20625 0.33743 0.26838 0.0
H413 H 0.19313 0.37824 0.22871 0.0
C414 C 0.1858 0.3135 0.25821 0.0
C415 C 0.20922 0.36111 0.25734 0.0
C416 C 0.23163 0.3874 0.26623 0.0
C417 C 0.16788 0.3126 0.23773 0.0
C418 C 0.17063 0.33625 0.2271 0.0
C419 C 0.19111 0.36018 0.23708 0.0
C420 C 0.15218 0.33651 0.20578 0.0
C421 C 0.1458 0.28644 0.228 0.0
C422 C 0.15187 0.32828 0.17739 0.0
C423 C 0.13432 0.3285 0.15733 0.0
C424 C 0.11674 0.33688 0.16542 0.0
C425 C 0.11728 0.34528 0.19388 0.0
C426 C 0.13496 0.34522 0.21385 0.0
H427 H 0.14378 0.2702 0.24189 0.0
H428 H 0.12698 0.28642 0.22805 0.0
H429 H 0.14959 0.28264 0.20561 0.0
H430 H 0.16523 0.32171 0.17076 0.0
H431 H 0.13422 0.32175 0.13564 0.0
H432 H 0.79018 0.07482 0.36518 0.0
H433 H 0.81994 0.10511 0.40139 0.0
H434 H 0.83963 0.16989 0.34424 0.0
H435 H 0.80946 0.13996 0.30814 0.0
H436 H 0.88364 0.16686 0.37119 0.0
H437 H 0.80836 0.15925 0.4489 0.0
H438 H 0.80477 0.12898 0.43581 0.0
H439 H 0.80111 0.15048 0.41136 0.0
C440 C 0.80053 0.09551 0.36037 0.0
C441 C 0.7973 0.10487 0.33366 0.0
C442 C 0.81759 0.11277 0.38109 0.0
C443 C 0.83173 0.13967 0.37549 0.0
C444 C 0.82881 0.14914 0.34889 0.0
H445 H 0.95116 0.27557 0.46629 0.0
H446 H 0.92103 0.24496 0.43048 0.0
C447 C 0.81166 0.13193 0.3282 0.0
C448 C 0.85002 0.15794 0.3972 0.0
H449 H 0.85254 0.18401 0.46347 0.0
C450 C 0.87692 0.17071 0.39136 0.0
C451 C 0.84105 0.16269 0.42346 0.0
C452 C 0.81224 0.14982 0.43034 0.0
C453 C 0.89525 0.18796 0.41136 0.0
C454 C 0.8863 0.19299 0.43755 0.0
C455 C 0.85934 0.18012 0.44337 0.0
C456 C 0.90455 0.21159 0.45918 0.0
C457 C 0.92402 0.20013 0.40455 0.0
C458 C 0.90474 0.20316 0.48741 0.0
C459 C 0.92178 0.22067 0.50797 0.0
C460 C 0.93894 0.24694 0.50064 0.0
C461 C 0.93853 0.25536 0.47241 0.0
C462 C 0.92136 0.23789 0.45193 0.0
H463 H 0.92765 0.18871 0.38804 0.0
H464 H 0.93134 0.2201 0.39587 0.0
H465 H 0.93549 0.20165 0.42416 0.0
H466 H 0.89184 0.18295 0.49348 0.0
H467 H 0.9218 0.21356 0.52947 0.0
H468 H 0.6864 0.80008 0.47252 0.0
H469 H 0.68599 0.83029 0.50807 0.0
H470 H 0.73106 0.81157 0.56645 0.0
H471 H 0.73225 0.7818 0.53083 0.0
H472 H 0.68302 0.80963 0.58961 0.0
H473 H 0.7512 0.90222 0.53294 0.0
H474 H 0.72494 0.87729 0.51192 0.0
H475 H 0.7502 0.87173 0.52553 0.0
C476 C 0.69657 0.80259 0.4927 0.0
C477 C 0.70945 0.78849 0.49867 0.0
C478 C 0.69621 0.81981 0.51303 0.0
C479 C 0.70866 0.82323 0.5397 0.0
C480 C 0.72135 0.80913 0.54592 0.0
H481 H 0.72304 0.91007 0.69579 0.0
H482 H 0.72255 0.87966 0.65977 0.0
C483 C 0.72187 0.79202 0.52556 0.0
C484 C 0.70811 0.84122 0.56135 0.0
H485 H 0.73134 0.90577 0.57549 0.0
C486 C 0.69359 0.83066 0.58664 0.0
C487 C 0.72182 0.86857 0.55716 0.0
C488 C 0.7381 0.88078 0.53054 0.0
C489 C 0.69216 0.8468 0.60784 0.0
C490 C 0.7062 0.87423 0.60389 0.0
C491 C 0.72063 0.88474 0.57848 0.0
C492 C 0.70629 0.89243 0.62585 0.0
C493 C 0.67514 0.83427 0.63393 0.0
C494 C 0.69801 0.91018 0.61853 0.0
C495 C 0.69851 0.92773 0.63899 0.0
C496 C 0.70731 0.92784 0.66718 0.0
C497 C 0.71573 0.91012 0.67441 0.0
C498 C 0.7154 0.8927 0.65387 0.0
H499 H 0.66008 0.81358 0.62974 0.0
H500 H 0.68754 0.83449 0.65204 0.0
H501 H 0.66515 0.84506 0.64074 0.0
H502 H 0.69099 0.91034 0.59699 0.0
H503 H 0.69168 0.94097 0.63286 0.0
H504 H 0.97002 0.72358 0.6996 0.0
H505 H 0.93974 0.7222 0.73625 0.0
H506 H 0.87486 0.67801 0.67873 0.0
H507 H 0.90476 0.67815 0.6425 0.0
H508 H 0.90635 0.74126 0.73426 0.0
H509 H 0.85059 0.63397 0.75112 0.0
H510 H 0.88114 0.65005 0.73163 0.0
H511 H 0.85114 0.64326 0.7142 0.0
C512 C 0.9493 0.7132 0.69483 0.0
C513 C 0.93991 0.70081 0.66806 0.0
C514 C 0.93203 0.7126 0.71577 0.0
C515 C 0.90502 0.69961 0.7104 0.0
C516 C 0.89558 0.68764 0.68358 0.0
H517 H 0.77021 0.68488 0.80017 0.0
H518 H 0.8014 0.68532 0.76511 0.0
C519 C 0.91281 0.68808 0.66268 0.0
C520 C 0.88683 0.69922 0.7326 0.0
H521 H 0.83282 0.65845 0.77226 0.0
C522 C 0.89039 0.72317 0.74273 0.0
C523 C 0.86607 0.67556 0.74366 0.0
C524 C 0.86211 0.64926 0.73482 0.0
C525 C 0.87338 0.72408 0.76318 0.0
C526 C 0.85242 0.70045 0.77381 0.0
C527 C 0.84891 0.67651 0.76388 0.0
C528 C 0.83375 0.7002 0.79511 0.0
C529 C 0.87757 0.75025 0.77291 0.0
C530 C 0.84168 0.70821 0.82357 0.0
C531 C 0.82393 0.70796 0.84363 0.0
C532 C 0.79799 0.69978 0.8355 0.0
C533 C 0.79013 0.69163 0.80696 0.0
C534 C 0.80785 0.69172 0.78698 0.0
H535 H 0.89193 0.7665 0.75913 0.0
H536 H 0.85878 0.75031 0.77268 0.0
H537 H 0.88502 0.75396 0.79537 0.0
H538 H 0.86159 0.71462 0.83023 0.0
H539 H 0.83059 0.71453 0.86538 0.0
H540 H 0.22212 0.91173 0.80196 0.0
H541 H 0.19087 0.88132 0.83728 0.0
H542 H 0.25127 0.91169 0.90225 0.0
H543 H 0.28246 0.94223 0.86717 0.0
H544 H 0.19184 0.8426 0.86864 0.0
H545 H 0.19321 0.91739 0.94178 0.0
H546 H 0.20702 0.92516 0.90601 0.0
H547 H 0.22515 0.92183 0.9353 0.0
C548 C 0.22873 0.91185 0.82375 0.0
C549 C 0.25468 0.92951 0.83187 0.0
C550 C 0.21086 0.89456 0.84391 0.0
C551 C 0.21863 0.89462 0.87251 0.0
C552 C 0.24467 0.91183 0.88051 0.0
H553 H 0.1481 0.80084 0.02394 0.0
H554 H 0.17744 0.8307 0.98725 0.0
C555 C 0.26248 0.92924 0.86044 0.0
C556 C 0.19968 0.87633 0.89387 0.0
H557 H 0.17241 0.87368 0.95955 0.0
C558 C 0.18742 0.84938 0.8884 0.0
C559 C 0.19391 0.88527 0.9196 0.0
C560 C 0.20531 0.914 0.92594 0.0
C561 C 0.17001 0.83109 0.90836 0.0
C562 C 0.16468 0.84007 0.93427 0.0
C563 C 0.17672 0.86696 0.93966 0.0
C564 C 0.14676 0.8218 0.95622 0.0
C565 C 0.15783 0.80231 0.90197 0.0
C566 C 0.1198 0.80717 0.95091 0.0
C567 C 0.10287 0.79029 0.97198 0.0
C568 C 0.11263 0.78773 0.99875 0.0
C569 C 0.13976 0.80252 0.00386 0.0
C570 C 0.15663 0.81949 0.98284 0.0
H571 H 0.16732 0.79854 0.88337 0.0
H572 H 0.15917 0.79172 0.9211 0.0
H573 H 0.13678 0.79414 0.89686 0.0
H574 H 0.11184 0.80903 0.93058 0.0
H575 H 0.08211 0.77958 0.96741 0.0
H576 H 0.35778 0.2767 0.03452 0.0
H577 H 0.35916 0.24746 0.07092 0.0
H578 H 0.32983 0.18499 0.00859 0.0
H579 H 0.32864 0.21422 0.97204 0.0
H580 H 0.31956 0.20185 0.09246 0.0
H581 H 0.39358 0.18422 0.03966 0.0
H582 H 0.38743 0.20986 0.02826 0.0
H583 H 0.36606 0.17667 0.01695 0.0
C584 C 0.35156 0.25672 0.0286 0.0
C585 C 0.34321 0.24777 1.00038 0.0
C586 C 0.35246 0.24008 0.04937 0.0
C587 C 0.34503 0.21421 0.04232 0.0
C588 C 0.33633 0.2051 0.01429 0.0
H589 H 0.32295 0.07903 0.13691 0.0
H590 H 0.32332 0.10988 0.10164 0.0
C591 C 0.3356 0.22178 0.99344 0.0
C592 C 0.34569 0.19655 0.06454 0.0
H593 H 0.37078 0.15686 0.0796 0.0
C594 C 0.33091 0.19216 0.08976 0.0
C595 C 0.3606 0.18402 0.06098 0.0
C596 C 0.37802 0.1891 0.03514 0.0
C597 C 0.33015 0.17506 0.11122 0.0
C598 C 0.34466 0.16221 0.10737 0.0
C599 C 0.35959 0.16672 0.08232 0.0
C600 C 0.34437 0.14373 0.12899 0.0
C601 C 0.31343 0.17039 0.1376 0.0
C602 C 0.35627 0.15268 0.15593 0.0
C603 C 0.35637 0.13515 0.17608 0.0
C604 C 0.34454 0.10833 0.16962 0.0
C605 C 0.33257 0.09953 0.14253 0.0
C606 C 0.33261 0.11709 0.12237 0.0
H607 H 0.2999 0.1782 0.13496 0.0
H608 H 0.30176 0.14916 0.14247 0.0
H609 H 0.32627 0.18019 0.1564 0.0
H610 H 0.36577 0.17328 0.16121 0.0
H611 H 0.36615 0.14275 0.19646 0.0
H612 H 1.01636 0.4185 0.07919 0.0
H613 H 1.01419 0.45891 0.0806 0.0
H614 H 0.09841 0.50432 0.08351 0.0
H615 H 0.1008 0.46425 0.08164 0.0
H616 H 0.03575 0.50032 0.12351 0.0
H617 H 0.07807 0.53559 0.01484 0.0
H618 H 0.06492 0.50204 0.02606 0.0
H619 H 0.09694 0.52668 0.03772 0.0
C620 C 0.03442 0.4371 0.07998 0.0
C621 C 0.05875 0.43806 0.08032 0.0
C622 C 0.03314 0.46017 0.08092 0.0
C623 C 0.05614 0.48466 0.08182 0.0
C624 C 0.08041 0.48567 0.08245 0.0
H625 H 0.10094 0.64785 0.08526 0.0
H626 H 0.0981 0.60522 0.08313 0.0
C627 C 0.08172 0.46268 0.08169 0.0
C628 C 0.05495 0.50924 0.08228 0.0
H629 H 0.07365 0.56568 0.04476 0.0
C630 C 0.04382 0.51454 0.10621 0.0
C631 C 0.06552 0.52778 0.05971 0.0
C632 C 0.07685 0.52274 0.03298 0.0
C633 C 0.04379 0.53829 0.10863 0.0
C634 C 0.05466 0.55702 0.08617 0.0
C635 C 0.06537 0.55143 0.06202 0.0
C636 C 0.05597 0.58287 0.08761 0.0
C637 C 0.03302 0.54348 0.13572 0.0
C638 C 0.03321 0.58467 0.09053 0.0
C639 C 0.03478 0.60913 0.09178 0.0
C640 C 0.05912 0.63236 0.08973 0.0
C641 C 0.08182 0.63044 0.08649 0.0
C642 C 0.08024 0.60603 0.08541 0.0
H643 H 0.03194 0.53056 0.15371 0.0
H644 H 0.04521 0.56413 0.14268 0.0
H645 H 1.01291 0.53969 0.13147 0.0
H646 H 1.01417 0.56715 0.09155 0.0
H647 H 1.01689 0.60986 0.09391 0.0
H648 H 0.42603 1.00733 0.25561 0.0
H649 H 0.46634 1.00487 0.25424 0.0
H650 H 0.51229 0.08898 0.25295 0.0
H651 H 0.47233 0.09165 0.25482 0.0
H652 H 0.50795 0.02648 0.21195 0.0
H653 H 0.54308 0.06768 0.32098 0.0
H654 H 0.5096 0.05505 0.3096 0.0
H655 H 0.53462 0.08704 0.29837 0.0
C656 C 0.44473 0.0253 0.2552 0.0
C657 C 0.44587 0.04969 0.25531 0.0
C658 C 0.46774 0.02386 0.25428 0.0
C659 C 0.49236 0.04674 0.25384 0.0
C660 C 0.49355 0.07106 0.25366 0.0
H661 H 0.65559 0.09112 0.24959 0.0
H662 H 0.61292 0.08828 0.25204 0.0
C663 C 0.47062 0.07253 0.25442 0.0
C664 C 0.51688 0.04538 0.25333 0.0
H665 H 0.57333 0.06361 0.2908 0.0
C666 C 0.52217 0.03436 0.22928 0.0
C667 C 0.53542 0.0557 0.27595 0.0
C668 C 0.53039 0.06684 0.30283 0.0
C669 C 0.5459 0.03425 0.22678 0.0
C670 C 0.56464 0.04492 0.24925 0.0
C671 C 0.55906 0.05549 0.27353 0.0
C672 C 0.59052 0.04621 0.24768 0.0
C673 C 0.55108 0.0236 0.19959 0.0
C674 C 0.59229 0.02347 0.24472 0.0
C675 C 0.61678 0.02503 0.24333 0.0
C676 C 0.64006 0.04935 0.24523 0.0
C677 C 0.63815 0.07202 0.2485 0.0
C678 C 0.61371 0.07045 0.24975 0.0
H679 H 0.53807 0.02251 0.18168 0.0
H680 H 0.57174 0.03586 0.19258 0.0
H681 H 0.54738 1.00354 0.20375 0.0
H682 H 0.57473 1.00447 0.24378 0.0
H683 H 0.61749 1.00715 0.24119 0.0
H684 H 0.60586 0.62317 0.36562 0.0
H685 H 0.56522 0.58109 0.36846 0.0
H686 H 0.56678 0.58689 0.46112 0.0
H687 H 0.60735 0.6291 0.45845 0.0
H688 H 0.55305 0.5348 0.39393 0.0
H689 H 0.49419 0.57388 0.4434 0.0
H690 H 0.52624 0.59482 0.42835 0.0
H691 H 0.52287 0.5811 0.46378 0.0
C692 C 0.59772 0.61541 0.38665 0.0
C693 C 0.60989 0.62966 0.41182 0.0
C694 C 0.57437 0.59136 0.38822 0.0
C695 C 0.56257 0.58097 0.41496 0.0
C696 C 0.57505 0.59477 0.44017 0.0
H697 H 0.42117 0.4393 0.4684 0.0
H698 H 0.46368 0.47954 0.46593 0.0
C699 C 0.59832 0.61891 0.43862 0.0
C700 C 0.53728 0.55571 0.4164 0.0
H701 H 0.47417 0.5277 0.44062 0.0
C702 C 0.53578 0.53329 0.40404 0.0
C703 C 0.51465 0.55366 0.42952 0.0
C704 C 0.5144 0.57718 0.44177 0.0
C705 C 0.51251 0.5089 0.40489 0.0
C706 C 0.48999 0.50687 0.41819 0.0
C707 C 0.49147 0.52924 0.43055 0.0
C708 C 0.46463 0.48176 0.4194 0.0
C709 C 0.51234 0.48539 0.39204 0.0
C710 C 0.45091 0.46959 0.39405 0.0
C711 C 0.42657 0.44651 0.39538 0.0
C712 C 0.4154 0.43506 0.4221 0.0
C713 C 0.42932 0.44727 0.44743 0.0
C714 C 0.45357 0.47041 0.44608 0.0
H715 H 0.53247 0.4888 0.38888 0.0
H716 H 0.5013 0.46793 0.40597 0.0
H717 H 0.50255 0.48106 0.3707 0.0
H718 H 0.45884 0.47818 0.37322 0.0
H719 H 0.41649 0.43762 0.37544 0.0
H720 H 0.03669 0.6175 0.5781 0.0
H721 H 0.03875 0.57704 0.57965 0.0
H722 H 0.95474 0.53201 0.58702 0.0
H723 H 0.95244 0.57213 0.58503 0.0
H724 H 1.01891 0.53649 0.62376 0.0
H725 H 0.97198 0.49921 0.51734 0.0
H726 H 0.98575 0.533 0.52783 0.0
H727 H 0.95424 0.50873 0.54117 0.0
C728 C 1.01864 0.59897 0.57991 0.0
C729 C 0.9944 0.59814 0.58144 0.0
C730 C 1.01987 0.57588 0.58093 0.0
C731 C 0.99688 0.55147 0.58311 0.0
C732 C 0.97272 0.55058 0.58497 0.0
H733 H 0.95221 0.38826 0.58807 0.0
H734 H 0.95495 0.43085 0.5861 0.0
C735 C 0.97147 0.57361 0.58413 0.0
C736 C 0.99801 0.52684 0.58354 0.0
H737 H 0.97775 0.46973 0.54692 0.0
C738 C 1.01012 0.52195 0.60687 0.0
C739 C 0.98649 0.50789 0.5615 0.0
C740 C 0.97406 0.51246 0.53538 0.0
C741 C 1.01023 0.49824 0.60926 0.0
C742 C 0.99844 0.47911 0.58734 0.0
C743 C 0.98674 0.48428 0.56377 0.0
C744 C 0.9972 0.45327 0.58878 0.0
C745 C 1.02211 0.49354 0.63578 0.0
C746 C 1.02005 0.45151 0.59067 0.0
C747 C 1.01854 0.42706 0.59185 0.0
C748 C 0.99415 0.40381 0.59074 0.0
C749 C 0.97135 0.40569 0.58856 0.0
C750 C 0.97287 0.43008 0.58756 0.0
H751 H 1.02385 0.50674 0.65374 0.0
H752 H 1.01027 0.473 0.64327 0.0
H753 H 0.04206 0.49734 0.63057 0.0
H754 H 0.03911 0.46905 0.59091 0.0
H755 H 0.0365 0.42636 0.59316 0.0
H756 H 0.39893 0.94556 0.74999 0.0
H757 H 0.4415 0.94805 0.75209 0.0
H758 H 0.48018 0.03209 0.74743 0.0
H759 H 0.43752 0.02982 0.74585 0.0
H760 H 0.48239 0.97127 0.71008 0.0
H761 H 0.51504 0.01798 0.81763 0.0
H762 H 0.48123 1.00214 0.80632 0.0
H763 H 0.50426 0.03396 0.7927 0.0
C764 C 0.41644 0.96463 0.74989 0.0
C765 C 0.41472 0.98751 0.74801 0.0
C766 C 0.4408 0.966 0.75087 0.0
C767 C 0.46406 0.99025 0.75025 0.0
C768 C 0.4625 1.01317 0.74837 0.0
H769 H 0.62796 0.0275 0.75897 0.0
H770 H 0.58797 0.03039 0.75615 0.0
C771 C 0.43809 1.01182 0.74722 0.0
C772 C 0.48981 0.99131 0.75068 0.0
H773 H 0.54488 1.01055 0.79127 0.0
C774 C 0.49607 0.97989 0.72782 0.0
C775 C 0.50776 1.00274 0.77371 0.0
C776 C 0.50179 1.01476 0.79914 0.0
C777 C 0.51972 0.97954 0.72734 0.0
C778 C 0.5374 0.99032 0.75075 0.0
C779 C 0.53136 1.00221 0.77337 0.0
C780 C 0.56177 0.98866 0.75257 0.0
C781 C 0.52568 0.96792 0.7015 0.0
C782 C 0.56043 0.96426 0.75203 0.0
C783 C 0.5832 0.96256 0.75359 0.0
C784 C 0.60797 0.98522 0.75602 0.0
C785 C 0.60925 1.00965 0.75718 0.0
C786 C 0.5864 1.01134 0.75549 0.0
H787 H 0.5147 0.96816 0.68214 0.0
H788 H 0.54692 0.97864 0.69641 0.0
H789 H 0.5197 0.94725 0.70615 0.0
H790 H 0.54166 0.94642 0.75068 0.0
H791 H 0.58134 0.94337 0.75338 0.0
H792 H 0.42447 0.4265 0.90802 0.0
H793 H 0.46494 0.46913 0.90902 0.0
H794 H 0.51024 0.43056 0.91663 0.0
H795 H 0.47011 0.38803 0.91517 0.0
H796 H 0.50555 0.49025 0.9528 0.0
H797 H 0.5429 0.48023 0.84667 0.0
H798 H 0.50911 0.46006 0.8573 0.0
H799 H 0.53357 0.45316 0.87076 0.0
C800 C 0.44306 0.4271 0.90975 0.0
C801 C 0.44397 0.40377 0.91153 0.0
C802 C 0.46616 0.45148 0.91045 0.0
C803 C 0.49064 0.45304 0.91255 0.0
C804 C 0.4916 0.42985 0.91462 0.0
H805 H 0.65396 0.57189 0.91792 0.0
H806 H 0.61132 0.53198 0.9156 0.0
C807 C 0.46857 0.40551 0.9141 0.0
C808 C 0.51526 0.47885 0.91277 0.0
H809 H 0.57246 0.51565 0.87606 0.0
C810 C 0.52012 0.49595 0.93592 0.0
C811 C 0.53425 0.48622 0.89075 0.0
C812 C 0.5297 0.4691 0.8648 0.0
C813 C 0.54384 0.51983 0.93817 0.0
C814 C 0.563 0.5271 0.91628 0.0
C815 C 0.55787 0.51013 0.89288 0.0
C816 C 0.58886 0.55174 0.91764 0.0
C817 C 0.54852 0.53655 0.96452 0.0
C818 C 0.5906 0.57632 0.91919 0.0
C819 C 0.61507 0.59928 0.92054 0.0
C820 C 0.63836 0.5982 0.91995 0.0
C821 C 0.6365 0.57356 0.91799 0.0
C822 C 0.61208 0.55065 0.91682 0.0
H823 H 0.53525 0.52519 0.9825 0.0
H824 H 0.56907 0.54528 0.97208 0.0
H825 H 0.5448 0.55269 0.95906 0.0
H826 H 0.57304 0.57779 0.91912 0.0
H827 H 0.61576 0.61792 0.92166 0.0
H828 H 0.0297 0.31597 0.7113 0.0
H829 H 0.04189 0.31537 0.76176 0.0
H830 H 0.96038 0.26564 0.78354 0.0
H831 H 0.94833 0.26736 0.73345 0.0
H832 H 0.98082 0.30597 0.81658 0.0
H833 H 0.04798 0.26635 0.81614 0.0
H834 H 0.05877 0.29308 0.79138 0.0
H835 H 0.02798 0.26357 0.78538 0.0
C836 C 1.01459 0.30443 0.72686 0.0
C837 C 0.98815 0.29188 0.71881 0.0
C838 C 1.02151 0.30391 0.75561 0.0
C839 C 1.00207 0.29023 0.7765 0.0
C840 C 0.97573 0.27633 0.76789 0.0
H841 H 0.04439 0.29556 0.95999 0.0
H842 H 1.02616 0.27829 0.91211 0.0
C843 C 0.96884 0.27732 0.73937 0.0
C844 C 1.0087 0.29341 0.80765 0.0
H845 H 0.05104 0.29283 0.85749 0.0
C846 C 0.99585 0.3026 0.82555 0.0
C847 C 0.02807 0.28875 0.8196 0.0
C848 C 0.04126 0.27712 0.80215 0.0
C849 C 1.00266 0.30842 0.85459 0.0
C850 C 1.02339 0.3057 0.86594 0.0
C851 C 0.03538 0.29524 0.84859 0.0
C852 C 0.03416 0.31563 0.89496 0.0
C853 C 0.98783 0.31785 0.87277 0.0
C854 C 0.04482 0.34229 0.90098 0.0
C855 C 0.05497 0.35209 0.92817 0.0
C856 C 0.05496 0.3355 0.94991 0.0
C857 C 0.04437 0.30876 0.94382 0.0
C858 C 0.03416 0.29892 0.91646 0.0
H859 H 0.96788 0.31093 0.86406 0.0
H860 H 0.98609 0.3111 0.89542 0.0
H861 H 0.99844 0.33954 0.87267 0.0
H862 H 0.04538 0.35559 0.88455 0.0
H863 H 0.06268 0.37269 0.93217 0.0
H864 H 0.73879 0.02367 0.8704 0.0
H865 H 0.75482 0.04098 0.91891 0.0
H866 H 0.70827 0.9636 0.95445 0.0
H867 H 0.69236 0.94629 0.90622 0.0
H868 H 0.71766 0.03432 0.96397 0.0
H869 H 0.78091 0.99349 0.99511 0.0
H870 H 0.77399 0.99717 0.95798 0.0
H871 H 0.74994 0.9706 0.97928 0.0
C872 C 0.7325 1.01034 0.88852 0.0
C873 C 0.71419 0.98371 0.88467 0.0
C874 C 0.7416 0.02021 0.91614 0.0
C875 C 0.73291 1.00348 0.94014 0.0
C876 C 0.71551 0.97673 0.93615 0.0
H877 H 0.73049 1.01448 0.12518 0.0
H878 H 0.73015 1.00074 0.0751 0.0
C879 C 0.70622 0.96694 0.90866 0.0
C880 C 0.73929 1.01424 0.96966 0.0
H881 H 0.76745 1.01149 0.03288 0.0
C882 C 0.72887 0.02968 0.97896 0.0
C883 C 0.75354 1.00771 0.98915 0.0
C884 C 0.76545 0.99149 0.97991 0.0
C885 C 0.73158 0.03816 0.00759 0.0
C886 C 0.74586 0.03168 0.02721 0.0
C887 C 0.75662 1.01651 0.01778 0.0
C888 C 0.74912 0.04004 0.05775 0.0
C889 C 0.71815 0.05303 0.01677 0.0
C890 C 0.76083 0.06665 0.06466 0.0
C891 C 0.76066 0.07438 0.09298 0.0
C892 C 0.7493 0.05569 0.11501 0.0
C893 C 0.73931 0.02918 0.10849 0.0
C894 C 0.73911 0.02138 0.07997 0.0
H895 H 0.70236 0.05006 0.00153 0.0
H896 H 0.70952 0.04699 0.03862 0.0
H897 H 0.73267 0.07424 0.01727 0.0
H898 H 0.76935 0.0814 0.04797 0.0
H899 H 0.76897 0.09498 0.09766 0.0
H900 H 0.77184 0.73921 0.04128 0.0
H901 H 0.77587 0.75613 0.09049 0.0
H902 H 0.71784 0.6794 0.11972 0.0
H903 H 0.71315 0.66258 0.07096 0.0
H904 H 0.7329 0.75233 0.1271 0.0
H905 H 0.78254 0.70245 0.1743 0.0
H906 H 0.78281 0.70866 0.1361 0.0
H907 H 0.75474 0.68145 0.15239 0.0
C908 C 0.75978 0.72602 0.05814 0.0
C909 C 0.74236 0.69944 0.05219 0.0
C910 C 0.76228 0.73567 0.08624 0.0
C911 C 0.74759 0.71883 0.10874 0.0
C912 C 0.72985 0.69253 0.10274 0.0
H913 H 0.67428 0.70684 0.2618 0.0
H914 H 0.69165 0.70995 0.21359 0.0
C915 C 0.72722 0.68295 0.07481 0.0
C916 C 0.74955 0.72841 0.13854 0.0
H917 H 0.75887 0.71453 0.20746 0.0
C918 C 0.73926 0.74471 0.14467 0.0
C919 C 0.7581 0.71862 0.16135 0.0
C920 C 0.77042 0.70202 0.15575 0.0
C921 C 0.73521 0.74961 0.17323 0.0
C922 C 0.74156 0.73784 0.19598 0.0
C923 C 0.75391 0.7234 0.1899 0.0
C924 C 0.73178 0.73687 0.22547 0.0
C925 C 0.72279 0.7661 0.17895 0.0
C926 C 0.74877 0.75063 0.24823 0.0
C927 C 0.73881 0.74916 0.27601 0.0
C928 C 0.71176 0.73369 0.28138 0.0
C929 C 0.69507 0.71946 0.25846 0.0
C930 C 0.70497 0.72112 0.23084 0.0
H931 H 0.72502 0.77882 0.16026 0.0
H932 H 0.70156 0.7531 0.18304 0.0
H933 H 0.73154 0.7785 0.19832 0.0
H934 H 0.7696 0.7627 0.24442 0.0
H935 H 0.75222 0.76048 0.29307 0.0
H936 H 1.01038 0.73832 0.45959 0.0
H937 H 0.02775 0.75351 0.41104 0.0
H938 H 0.99798 0.67373 0.3841 0.0
H939 H 0.98179 0.65857 0.43246 0.0
H940 H 0.04799 0.70527 0.36754 0.0
H941 H 0.98707 0.74926 0.33795 0.0
H942 H 1.00589 0.76159 0.37047 0.0
H943 H 0.97998 0.72814 0.36882 0.0
C944 C 1.00772 0.72405 0.44338 0.0
C945 C 0.99448 0.69718 0.44995 0.0
C946 C 1.01734 0.73275 0.41555 0.0
C947 C 1.01373 0.7147 0.39384 0.0
C948 C 1.00079 0.68798 0.40046 0.0
H949 H 1.02422 0.71971 0.20895 0.0
H950 H 1.01041 0.71741 0.25937 0.0
C951 C 0.99134 0.67933 0.42815 0.0
C952 C 1.02415 0.72326 0.36435 0.0
H953 H 1.0181 0.75247 0.30354 0.0
C954 C 0.04159 0.71574 0.35359 0.0
C955 C 1.01548 0.73664 0.34616 0.0
C956 C 0.99591 0.74423 0.35625 0.0
C957 C 0.05022 0.7207 0.32498 0.0
C958 C 0.04184 0.73436 0.3068 0.0
C959 C 1.02466 0.74223 0.31762 0.0
C960 C 0.04988 0.7394 0.27617 0.0
C961 C 0.06738 0.71027 0.31421 0.0
C962 C 0.0765 0.75349 0.26886 0.0
C963 C 0.0843 0.7544 0.24034 0.0
C964 C 0.06561 0.74179 0.21855 0.0
C965 C 0.03891 0.72955 0.22547 0.0
C966 C 0.03107 0.72824 0.25417 0.0
H967 H 0.06632 0.69463 0.32844 0.0
H968 H 0.06173 0.70229 0.29207 0.0
H969 H 0.08805 0.72637 0.31376 0.0
H970 H 0.09129 0.76283 0.28541 0.0
H971 H 0.105 0.76436 0.23533 0.0
H972 H 0.27968 0.99185 0.62481 0.0
H973 H 0.27522 1.00344 0.57501 0.0
H974 H 0.33832 0.99124 0.54866 0.0
H975 H 0.34321 0.98024 0.59796 0.0
H976 H 0.31579 0.04385 0.53765 0.0
H977 H 0.27603 0.9438 0.49424 0.0
H978 H 0.275 0.95029 0.53214 0.0
H979 H 0.30449 0.95395 0.51635 0.0
C980 C 0.29275 0.99193 0.60843 0.0
C981 C 0.31159 0.9848 0.61525 0.0
C982 C 0.29005 0.99835 0.58002 0.0
C983 C 0.30603 0.99753 0.55815 0.0
C984 C 0.32535 0.99129 0.56513 0.0
H985 H 0.37657 0.0493 0.40254 0.0
H986 H 0.35864 0.03389 0.45056 0.0
C987 C 0.3281 0.98499 0.59333 0.0
C988 C 0.30341 1.00371 0.52789 0.0
H989 H 0.29768 0.97924 0.46002 0.0
C990 C 0.31104 0.0296 0.52064 0.0
C991 C 0.29702 0.98499 0.5058 0.0
C992 C 0.28741 0.95662 0.5125 0.0
C993 C 0.31466 0.03771 0.49173 0.0
C994 C 0.31051 0.01945 0.46984 0.0
C995 C 0.30088 0.99316 0.47696 0.0
C996 C 0.32036 0.02813 0.44038 0.0
C997 C 0.3247 0.06607 0.48471 0.0
C998 C 0.30451 0.02957 0.41877 0.0
C999 C 0.31478 0.03849 0.39118 0.0
C1000 C 0.341 0.04611 0.38503 0.0
C1001 C 0.35648 0.04404 0.40673 0.0
C1002 C 0.34625 0.03513 0.43412 0.0
H1003 H 0.32395 0.07716 0.50365 0.0
H1004 H 0.34529 0.07515 0.47723 0.0
H1005 H 0.31303 0.06776 0.46692 0.0
H1006 H 0.28443 0.02415 0.42337 0.0
H1007 H 0.30247 0.04008 0.37493 0.0
H1008 H 0.33882 0.37157 0.57028 0.0
H1009 H 0.33588 0.35464 0.61879 0.0
H1010 H 0.27852 0.27748 0.59007 0.0
H1011 H 0.28092 0.29447 0.54112 0.0
H1012 H 0.28671 0.32553 0.65366 0.0
H1013 H 0.33992 0.27159 0.63147 0.0
H1014 H 0.34353 0.29776 0.60829 0.0
H1015 H 0.31358 0.26701 0.60803 0.0
C1016 C 0.32535 0.35105 0.57419 0.0
C1017 C 0.30997 0.33443 0.5518 0.0
C1018 C 0.32377 0.3414 0.60194 0.0
C1019 C 0.30695 0.31489 0.60794 0.0
C1020 C 0.2917 0.29802 0.58573 0.0
H1021 H 0.30174 0.27214 0.79232 0.0
H1022 H 0.28497 0.2704 0.74338 0.0
C1023 C 0.29321 0.30772 0.5578 0.0
C1024 C 0.30604 0.30542 0.63761 0.0
H1025 H 0.3326 0.27743 0.6799 0.0
C1026 C 0.2961 0.31441 0.65947 0.0
C1027 C 0.31844 0.29104 0.64491 0.0
C1028 C 0.3296 0.28125 0.62208 0.0
C1029 C 0.29962 0.31069 0.68865 0.0
C1030 C 0.31338 0.29766 0.69594 0.0
C1031 C 0.32195 0.28732 0.67408 0.0
C1032 C 0.3227 0.29824 0.72562 0.0
C1033 C 0.2903 0.32229 0.71148 0.0
C1034 C 0.34932 0.31455 0.73168 0.0
C1035 C 0.35886 0.31576 0.75942 0.0
C1036 C 0.34199 0.30052 0.78174 0.0
C1037 C 0.31518 0.28431 0.77569 0.0
C1038 C 0.3056 0.28316 0.74776 0.0
H1039 H 0.28103 0.33299 0.7021 0.0
H1040 H 0.27583 0.30649 0.72559 0.0
H1041 H 0.30701 0.33595 0.72521 0.0
H1042 H 0.36275 0.32651 0.71488 0.0
H1043 H 0.37948 0.32883 0.76338 0.0
H1044 H 0.29482 0.34724 0.90469 0.0
H1045 H 0.25387 0.3401 0.92574 0.0
H1046 H 0.23009 0.25928 0.94116 0.0
H1047 H 0.27141 0.2664 0.92011 0.0
H1048 H 0.19968 0.3052 0.91542 0.0
H1049 H 0.2321 0.28917 0.02246 0.0
H1050 H 0.25416 0.30239 0.99224 0.0
H1051 H 0.23039 0.26818 0.9935 0.0
C1052 C 0.28064 0.32776 0.91195 0.0
C1053 C 0.28646 0.30742 0.9108 0.0
C1054 C 0.25719 0.32371 0.92402 0.0
C1055 C 0.23903 0.29928 0.93553 0.0
C1056 C 0.24395 0.27841 0.93279 0.0
H1057 H 0.09713 0.29046 0.01518 0.0
H1058 H 0.12343 0.27584 0.98808 0.0
C1059 C 0.26745 0.28242 0.92044 0.0
C1060 C 0.21629 0.29676 0.95231 0.0
H1061 H 0.1942 0.2925 0.02137 0.0
C1062 C 0.19812 0.30187 0.9385 0.0
C1063 C 0.21444 0.29274 0.98253 0.0
C1064 C 0.23384 0.28797 0.99875 0.0
C1065 C 0.17881 0.304 0.95416 0.0
C1066 C 0.17751 0.3008 0.98447 0.0
C1067 C 0.19504 0.2947 0.99813 0.0
C1068 C 0.16081 0.30744 0.00269 0.0
C1069 C 0.16094 0.3112 0.9384 0.0
C1070 C 0.17295 0.32943 0.02064 0.0
C1071 C 0.15808 0.33773 0.03599 0.0
C1072 C 0.1306 0.3241 0.03409 0.0
C1073 C 0.11825 0.30127 0.01723 0.0
C1074 C 0.13327 0.29306 0.00154 0.0
H1075 H 0.1666 0.31617 0.91545 0.0
H1076 H 0.14059 0.2945 0.93917 0.0
H1077 H 0.16112 0.32814 0.94898 0.0
H1078 H 0.1941 0.34081 0.022 0.0
H1079 H 0.16823 0.35532 0.04886 0.0
H1080 H 1.02418 0.26571 0.08859 0.0
H1081 H 0.9901 0.22383 0.10872 0.0
H1082 H 0.93251 0.24723 0.09474 0.0
H1083 H 0.96622 0.28876 0.07478 0.0
H1084 H 0.96119 0.22007 0.15813 0.0
H1085 H 0.89398 0.17154 0.06677 0.0
H1086 H 0.92725 0.19781 0.06181 0.0
H1087 H 0.90179 0.20486 0.07097 0.0
C1088 C 1.00409 0.26151 0.08893 0.0
C1089 C 0.99788 0.28051 0.07992 0.0
C1090 C 0.98466 0.23766 0.10066 0.0
C1091 C 0.95861 0.23218 0.10304 0.0
C1092 C 0.95227 0.25065 0.09268 0.0
H1093 H 0.83559 0.15903 0.22158 0.0
H1094 H 0.87608 0.18551 0.19495 0.0
C1095 C 0.97164 0.2745 0.08133 0.0
C1096 C 0.9385 0.20872 0.11901 0.0
H1097 H 0.87531 0.1583 0.1144 0.0
C1098 C 0.94263 0.20623 0.14839 0.0
C1099 C 0.91429 0.19041 0.10639 0.0
C1100 C 0.90912 0.19109 0.07467 0.0
C1101 C 0.92268 0.18711 0.16579 0.0
C1102 C 0.89782 0.1701 0.15363 0.0
C1103 C 0.89426 0.17142 0.12386 0.0
C1104 C 0.87459 0.15302 0.17186 0.0
C1105 C 0.92816 0.18578 0.19731 0.0
C1106 C 0.86012 0.12575 0.16796 0.0
C1107 C 0.83686 0.11037 0.18352 0.0
C1108 C 0.82745 0.12216 0.20276 0.0
C1109 C 0.84235 0.14933 0.20704 0.0
C1110 C 0.86561 0.16453 0.19187 0.0
H1111 H 0.9494 0.19384 0.2013 0.0
H1112 H 0.92182 0.1976 0.20986 0.0
H1113 H 0.9173 0.16535 0.2054 0.0
H1114 H 0.86653 0.11644 0.15245 0.0
H1115 H 0.8256 0.08956 0.17943 0.0
H1116 H 0.69089 0.82285 0.38293 0.0
H1117 H 0.70477 0.86316 0.3561 0.0
H1118 H 0.76952 0.85808 0.32052 0.0
H1119 H 0.75554 0.81723 0.34758 0.0
H1120 H 0.75286 0.91181 0.35465 0.0
H1121 H 0.72788 0.86041 0.2489 0.0
H1122 H 0.71656 0.84299 0.28258 0.0
H1123 H 0.75011 0.85639 0.27203 0.0
C1124 C 0.70832 0.83042 0.36971 0.0
C1125 C 0.72206 0.81675 0.36734 0.0
C1126 C 0.71625 0.85355 0.35437 0.0
C1127 C 0.73798 0.86355 0.33595 0.0
C1128 C 0.75249 0.85058 0.33434 0.0
H1129 H 0.77782 1.01486 0.25322 0.0
H1130 H 0.78507 0.98074 0.2742 0.0
C1131 C 0.74465 0.8274 0.35002 0.0
C1132 C 0.74418 0.88681 0.31776 0.0
H1133 H 0.73878 0.90442 0.24891 0.0
C1134 C 0.75035 0.9104 0.33144 0.0
C1135 C 0.74057 0.88486 0.2875 0.0
C1136 C 0.73327 0.85982 0.27172 0.0
C1137 C 0.75202 0.93169 0.31593 0.0
C1138 C 0.74762 0.92949 0.28579 0.0
C1139 C 0.7424 0.90622 0.27194 0.0
C1140 C 0.74492 0.94966 0.26914 0.0
C1141 C 0.75692 0.95583 0.3322 0.0
C1142 C 0.72034 0.94336 0.258 0.0
C1143 C 0.7162 0.96271 0.24598 0.0
C1144 C 0.73661 0.98886 0.2445 0.0
C1145 C 0.76173 0.99489 0.25381 0.0
C1146 C 0.76583 0.97545 0.26611 0.0
H1147 H 0.756 0.95291 0.35592 0.0
H1148 H 0.77666 0.97223 0.3267 0.0
H1149 H 0.74236 0.96163 0.32598 0.0
H1150 H 0.70391 0.92365 0.25995 0.0
H1151 H 0.69663 0.95738 0.239 0.0
H1152 H 0.78109 0.76859 0.42188 0.0
H1153 H 0.82266 0.776 0.44261 0.0
H1154 H 0.79982 0.69562 0.42581 0.0
H1155 H 0.75862 0.68821 0.40523 0.0
H1156 H 0.82566 0.74973 0.49114 0.0
H1157 H 0.87608 0.73364 0.39998 0.0
H1158 H 0.84976 0.74051 0.39486 0.0
H1159 H 0.84271 0.70785 0.40317 0.0
C1160 C 0.78537 0.75279 0.42172 0.0
C1161 C 0.76661 0.72784 0.41171 0.0
C1162 C 0.80905 0.75697 0.4338 0.0
C1163 C 0.81459 0.73644 0.43557 0.0
C1164 C 0.79637 0.71194 0.42424 0.0
H1165 H 0.88559 0.68418 0.55438 0.0
H1166 H 0.85958 0.69859 0.52751 0.0
C1167 C 0.77272 0.70769 0.41252 0.0
C1168 C 0.83776 0.7394 0.4519 0.0
H1169 H 0.88832 0.72686 0.44762 0.0
C1170 C 0.83969 0.74528 0.48145 0.0
C1171 C 0.85634 0.73388 0.43939 0.0
C1172 C 0.85632 0.72888 0.40753 0.0
C1173 C 0.85849 0.74405 0.49906 0.0
C1174 C 0.87575 0.73654 0.48694 0.0
C1175 C 0.875 0.7324 0.45706 0.0
C1176 C 0.89252 0.73 0.50525 0.0
C1177 C 0.85925 0.75012 0.53072 0.0
C1178 C 0.91989 0.74287 0.50187 0.0
C1179 C 0.935 0.73472 0.51755 0.0
C1180 C 0.92286 0.71322 0.5364 0.0
C1181 C 0.89558 0.70086 0.54014 0.0
C1182 C 0.88064 0.70916 0.52484 0.0
H1183 H 0.85119 0.76325 0.53486 0.0
H1184 H 0.84708 0.73167 0.54275 0.0
H1185 H 0.87953 0.75944 0.53928 0.0
H1186 H 0.92949 0.75886 0.4867 0.0
H1187 H 0.95591 0.74439 0.51389 0.0
H1188 H 0.22299 0.8765 0.71573 0.0
H1189 H 0.18262 0.84991 0.68897 0.0
H1190 H 0.18708 0.91959 0.65388 0.0
H1191 H 0.22798 0.94662 0.68088 0.0
H1192 H 0.13376 0.84902 0.68813 0.0
H1193 H 0.18451 0.87593 0.58194 0.0
H1194 H 0.2022 0.88202 0.61544 0.0
H1195 H 0.18861 0.90204 0.60525 0.0
C1196 C 0.21528 0.88628 0.70261 0.0
C1197 C 0.22878 0.91371 0.70039 0.0
C1198 C 0.19212 0.871 0.68732 0.0
C1199 C 0.18191 0.88265 0.66908 0.0
C1200 C 0.19474 0.91013 0.66756 0.0
H1201 H 0.03003 0.77067 0.58742 0.0
H1202 H 0.06429 0.81216 0.60807 0.0
C1203 C 0.21796 0.92556 0.6832 0.0
C1204 C 0.15853 0.86552 0.65105 0.0
H1205 H 0.14052 0.84254 0.58228 0.0
C1206 C 0.13502 0.84796 0.6649 0.0
C1207 C 0.16029 0.86391 0.62076 0.0
C1208 C 0.18524 0.88181 0.6048 0.0
C1209 C 0.11364 0.82828 0.64953 0.0
C1210 C 0.11568 0.82615 0.61935 0.0
C1211 C 0.13885 0.84431 0.60534 0.0
C1212 C 0.09542 0.80322 0.60283 0.0
C1213 C 0.08961 0.80892 0.66596 0.0
C1214 C 0.10169 0.78497 0.59171 0.0
C1215 C 0.08225 0.76141 0.5799 0.0
C1216 C 0.05605 0.75557 0.57859 0.0
C1217 C 0.05004 0.77464 0.58786 0.0
C1218 C 0.06957 0.79824 0.59997 0.0
H1219 H 0.09266 0.81094 0.68966 0.0
H1220 H 0.07307 0.81207 0.66058 0.0
H1221 H 0.08389 0.7886 0.65975 0.0
H1222 H 0.12145 0.78833 0.59355 0.0
H1223 H 0.08757 0.74718 0.57295 0.0
H1224 H 0.29794 0.21848 0.84631 0.0
H1225 H 0.2838 0.17764 0.81927 0.0
H1226 H 0.34415 0.16856 0.86074 0.0
H1227 H 0.35825 0.20894 0.88746 0.0
H1228 H 0.31633 0.16897 0.78058 0.0
H1229 H 0.27964 0.09519 0.86771 0.0
H1230 H 0.28319 0.12719 0.87205 0.0
H1231 H 0.31111 0.12282 0.87583 0.0
C1232 C 0.30768 0.20735 0.85017 0.0
C1233 C 0.32912 0.21686 0.86914 0.0
C1234 C 0.29972 0.18413 0.83457 0.0
C1235 C 0.31273 0.16981 0.83816 0.0
C1236 C 0.33348 0.1789 0.85791 0.0
H1237 H 0.35639 0.07899 0.7393 0.0
H1238 H 0.34842 0.11246 0.75949 0.0
C1239 C 0.3416 0.20211 0.87312 0.0
C1240 C 0.30646 0.14662 0.81988 0.0
H1241 H 0.29367 0.08352 0.82418 0.0
C1242 C 0.31082 0.15012 0.79003 0.0
C1243 C 0.29901 0.12186 0.83202 0.0
C1244 C 0.2927 0.11641 0.86363 0.0
C1245 C 0.30965 0.13014 0.77242 0.0
C1246 C 0.30418 0.10607 0.78498 0.0
C1247 C 0.29807 0.10198 0.81447 0.0
C1248 C 0.30749 0.08607 0.76877 0.0
C1249 C 0.3149 0.13525 0.74061 0.0
C1250 C 0.28708 0.05993 0.76683 0.0
C1251 C 0.29158 0.04063 0.75497 0.0
C1252 C 0.31672 0.04707 0.74536 0.0
C1253 C 0.33675 0.0734 0.74629 0.0
C1254 C 0.33219 0.09263 0.75778 0.0
H1255 H 0.31008 0.15016 0.73293 0.0
H1256 H 0.33602 0.14284 0.73647 0.0
H1257 H 0.30345 0.11708 0.72787 0.0
H1258 H 0.2679 0.05431 0.77538 0.0
H1259 H 0.27586 0.02047 0.75503 0.0
H1260 H 0.77683 0.76993 0.91219 0.0
H1261 H 0.7846 0.81166 0.89174 0.0
H1262 H 0.70401 0.78897 0.90761 0.0
H1263 H 0.69621 0.74758 0.92788 0.0
H1264 H 0.75854 0.81485 0.84286 0.0
H1265 H 0.74228 0.86507 0.93408 0.0
H1266 H 0.74911 0.83875 0.93916 0.0
H1267 H 0.71646 0.83176 0.93069 0.0
C1268 C 0.76105 0.77427 0.91222 0.0
C1269 C 0.73594 0.7555 0.92185 0.0
C1270 C 0.76544 0.79804 0.9003 0.0
C1271 C 0.74496 0.80366 0.89833 0.0
C1272 C 0.72028 0.78544 0.90934 0.0
H1273 H 0.69326 0.87536 0.78008 0.0
H1274 H 0.70759 0.84917 0.8067 0.0
C1275 C 0.71582 0.76168 0.92088 0.0
C1276 C 0.74816 0.82691 0.88208 0.0
H1277 H 0.73593 0.87761 0.88643 0.0
C1278 C 0.75415 0.82891 0.85255 0.0
C1279 C 0.7427 0.84551 0.89462 0.0
C1280 C 0.73754 0.84537 0.92645 0.0
C1281 C 0.7531 0.8478 0.83498 0.0
C1282 C 0.74567 0.86509 0.84712 0.0
C1283 C 0.74142 0.86427 0.87699 0.0
C1284 C 0.73927 0.88195 0.82883 0.0
C1285 C 0.75923 0.8486 0.80333 0.0
C1286 C 0.75236 0.90929 0.83219 0.0
C1287 C 0.74428 0.92449 0.81662 0.0
C1288 C 0.72264 0.91248 0.79794 0.0
C1289 C 0.71008 0.88524 0.79419 0.0
C1290 C 0.71832 0.8702 0.80935 0.0
H1291 H 0.77221 0.84037 0.79916 0.0
H1292 H 0.74075 0.83665 0.79125 0.0
H1293 H 0.76876 0.86889 0.79485 0.0
H1294 H 0.76844 0.91878 0.84729 0.0
H1295 H 0.75409 0.94538 0.8203 0.0
H1296 H 0.83059 0.67967 0.95211 0.0
H1297 H 0.87103 0.69394 0.97893 0.0
H1298 H 0.86614 0.75924 0.01282 0.0
H1299 H 0.82515 0.74486 0.98577 0.0
H1300 H 0.91969 0.74202 0.97928 0.0
H1301 H 0.86904 0.71906 0.0855 0.0
H1302 H 0.85133 0.70708 0.05207 0.0
H1303 H 0.8648 0.74077 0.06177 0.0
C1304 C 0.83821 0.69728 0.96497 0.0
C1305 C 0.82457 0.71108 0.96686 0.0
C1306 C 0.86141 0.70544 0.9803 0.0
C1307 C 0.87152 0.72746 0.99822 0.0
C1308 C 0.85855 0.74199 0.99939 0.0
H1309 H 1.02366 0.769 0.08029 0.0
H1310 H 0.98924 0.77577 0.05922 0.0
C1311 C 0.83529 0.73392 0.98372 0.0
C1312 C 0.89494 0.73402 0.01632 0.0
H1313 H 0.91311 0.72992 0.08532 0.0
C1314 C 0.91847 0.73994 0.00254 0.0
C1315 C 0.89322 0.73098 0.04665 0.0
C1316 C 0.86827 0.72398 0.06254 0.0
C1317 C 0.93991 0.74191 0.01805 0.0
C1318 C 0.93792 0.73807 0.04829 0.0
C1319 C 0.91473 0.7331 0.06222 0.0
C1320 C 0.95827 0.73571 0.06502 0.0
C1321 C 0.96396 0.74651 0.00173 0.0
C1322 C 0.95213 0.71135 0.07659 0.0
C1323 C 0.97165 0.70748 0.08866 0.0
C1324 C 0.99782 0.72795 0.08975 0.0
C1325 C 1.00369 0.75287 0.08001 0.0
C1326 C 0.98407 0.75669 0.06766 0.0
H1327 H 0.96086 0.74519 0.97803 0.0
H1328 H 0.98043 0.7663 0.00683 0.0
H1329 H 0.96979 0.73207 0.00828 0.0
H1330 H 0.9324 0.69487 0.07494 0.0
H1331 H 0.96644 0.68806 0.09598 0.0
H1332 H 0.09821 0.81758 0.15296 0.0
H1333 H 0.1247 0.85842 0.1801 0.0
H1334 H 0.1943 0.86899 0.13765 0.0
H1335 H 0.1682 0.8286 0.11083 0.0
H1336 H 0.16623 0.86744 0.21824 0.0
H1337 H 0.20227 0.9419 0.13185 0.0
H1338 H 0.17402 0.90973 0.12731 0.0
H1339 H 0.20652 0.91467 0.12323 0.0
C1340 C 0.11905 0.82905 0.14889 0.0
C1341 C 0.1311 0.81995 0.12962 0.0
C1342 C 0.1342 0.85227 0.16455 0.0
C1343 C 0.16151 0.86699 0.16072 0.0
C1344 C 0.17327 0.85833 0.14066 0.0
H1345 H 0.29641 0.95797 0.25914 0.0
H1346 H 0.25496 0.92445 0.2388 0.0
C1347 C 0.1583 0.83512 0.12539 0.0
C1348 C 0.17837 0.89013 0.17914 0.0
H1349 H 0.22833 0.95349 0.17521 0.0
C1350 C 0.17942 0.88642 0.20892 0.0
C1351 C 0.19545 0.91504 0.16718 0.0
C1352 C 0.19437 0.9207 0.13567 0.0
C1353 C 0.19823 0.90637 0.22661 0.0
C1354 C 0.21666 0.93061 0.21419 0.0
C1355 C 0.21441 0.93489 0.1848 0.0
C1356 C 0.24002 0.9506 0.2304 0.0
C1357 C 0.19862 0.90105 0.25833 0.0
C1358 C 0.24552 0.97661 0.23285 0.0
C1359 C 0.26933 0.99593 0.2448 0.0
C1360 C 0.28825 0.98965 0.25397 0.0
C1361 C 0.2822 0.96344 0.25248 0.0
C1362 C 0.25841 0.94418 0.24091 0.0
H1363 H 0.17897 0.8859 0.26602 0.0
H1364 H 0.21235 0.89367 0.26217 0.0
H1365 H 0.20525 0.91908 0.27127 0.0
H1366 H 0.23176 0.98211 0.22468 0.0
H1367 H 0.27356 1.01601 0.2452 0.0
H1368 H 0.2762 0.26449 0.41168 0.0
H1369 H 0.26887 0.22291 0.39135 0.0
H1370 H 0.3488 0.24501 0.4106 0.0
H1371 H 0.35616 0.28625 0.43077 0.0
H1372 H 0.29637 0.2201 0.34372 0.0
H1373 H 0.3094 0.16861 0.43611 0.0
H1374 H 0.30261 0.195 0.44062 0.0
H1375 H 0.33544 0.2019 0.43348 0.0
C1376 C 0.2919 0.26004 0.41247 0.0
C1377 C 0.31673 0.27861 0.42302 0.0
C1378 C 0.28776 0.23636 0.40062 0.0
C1379 C 0.3082 0.23062 0.39964 0.0
C1380 C 0.33255 0.24862 0.41155 0.0
H1381 H 0.36254 0.15928 0.28435 0.0
H1382 H 0.34809 0.18553 0.31052 0.0
C1383 C 0.33676 0.2723 0.42303 0.0
C1384 C 0.30539 0.20749 0.3835 0.0
H1385 H 0.31698 0.15641 0.38889 0.0
C1386 C 0.30031 0.20585 0.35375 0.0
C1387 C 0.31029 0.18864 0.39646 0.0
C1388 C 0.31448 0.18843 0.42849 0.0
C1389 C 0.30173 0.18704 0.33643 0.0
C1390 C 0.30858 0.16947 0.34907 0.0
C1391 C 0.31192 0.16996 0.37909 0.0
C1392 C 0.3153 0.15265 0.33122 0.0
C1393 C 0.29663 0.18664 0.30454 0.0
C1394 C 0.30165 0.12524 0.33396 0.0
C1395 C 0.3098 0.11 0.31864 0.0
C1396 C 0.33207 0.12203 0.30084 0.0
C1397 C 0.34526 0.14938 0.29778 0.0
C1398 C 0.33695 0.16445 0.31269 0.0
H1399 H 0.28408 0.19525 0.29967 0.0
H1400 H 0.31553 0.19843 0.29314 0.0
H1401 H 0.28706 0.16641 0.29591 0.0
H1402 H 0.28501 0.11569 0.34833 0.0
H1403 H 0.29947 0.08902 0.32176 0.0
H1404 H 0.08659 0.34802 0.59336 0.0
H1405 H 0.12042 0.34103 0.57213 0.0
H1406 H 0.06371 0.25971 0.55883 0.0
H1407 H 0.02948 0.26666 0.58008 0.0
H1408 H 0.14027 0.30681 0.58339 0.0
H1409 H 0.09076 0.28812 0.47674 0.0
H1410 H 0.08202 0.30179 0.50657 0.0
H1411 H 0.07179 0.26763 0.50624 0.0
C1412 C 0.08136 0.32848 0.5865 0.0
C1413 C 0.05528 0.30793 0.58835 0.0
C1414 C 0.10077 0.32452 0.57433 0.0
C1415 C 0.0946 0.29996 0.5634 0.0
C1416 C 0.0689 0.27893 0.56675 0.0
H1417 H 0.22743 0.29008 0.48495 0.0
H1418 H 0.18663 0.27606 0.51215 0.0
C1419 C 0.0494 0.28286 0.5792 0.0
C1420 C 0.11482 0.29738 0.5467 0.0
H1421 H 0.13213 0.29173 0.47784 0.0
C1422 C 0.13831 0.30298 0.56041 0.0
C1423 C 0.11241 0.29271 0.51661 0.0
C1424 C 0.08801 0.28738 0.50047 0.0
C1425 C 0.15968 0.30491 0.54476 0.0
C1426 C 0.15752 0.301 0.51455 0.0
C1427 C 0.13371 0.29448 0.50101 0.0
C1428 C 0.18072 0.30719 0.49624 0.0
C1429 C 0.18495 0.31262 0.56039 0.0
C1430 C 0.19046 0.32868 0.4775 0.0
C1431 C 0.21357 0.33663 0.46208 0.0
C1432 C 0.22747 0.32313 0.46469 0.0
C1433 C 0.21708 0.30076 0.48232 0.0
C1434 C 0.19392 0.29291 0.49808 0.0
H1435 H 0.1845 0.31826 0.58312 0.0
H1436 H 0.18857 0.29592 0.56034 0.0
H1437 H 0.20163 0.32925 0.54924 0.0
H1438 H 0.18066 0.33997 0.4756 0.0
H1439 H 0.22095 0.35388 0.44863 0.0
H1440 H 0.95498 0.2179 0.65332 0.0
H1441 H 0.92829 0.17681 0.68005 0.0
H1442 H 0.85863 0.16819 0.63954 0.0
H1443 H 0.88492 0.2088 0.61312 0.0
H1444 H 0.88731 0.16773 0.71924 0.0
H1445 H 0.8494 0.09492 0.63126 0.0
H1446 H 0.87791 0.12697 0.62703 0.0
H1447 H 0.84558 0.12263 0.62382 0.0
C1448 C 0.93406 0.20682 0.6496 0.0
C1449 C 0.92208 0.21651 0.63097 0.0
C1450 C 0.9188 0.18346 0.66502 0.0
C1451 C 0.89142 0.16919 0.66161 0.0
C1452 C 0.8797 0.17848 0.64222 0.0
H1453 H 0.75725 0.07694 0.76124 0.0
H1454 H 0.79846 0.11075 0.74067 0.0
C1455 C 0.89479 0.20182 0.62717 0.0
C1456 C 0.87451 0.14581 0.67971 0.0
H1457 H 0.82397 0.08278 0.67504 0.0
C1458 C 0.87384 0.14898 0.70965 0.0
C1459 C 0.85703 0.1212 0.66738 0.0
C1460 C 0.85765 0.11609 0.63563 0.0
C1461 C 0.85509 0.12882 0.72718 0.0
C1462 C 0.83633 0.10489 0.71448 0.0
C1463 C 0.83814 0.10113 0.68486 0.0
C1464 C 0.81314 0.08467 0.73073 0.0
C1465 C 0.85513 0.13356 0.75911 0.0
C1466 C 0.80758 0.05859 0.73239 0.0
C1467 C 0.78393 0.0391 0.74447 0.0
C1468 C 0.7652 0.04528 0.75457 0.0
C1469 C 0.77131 0.07154 0.75385 0.0
C1470 C 0.79497 0.09096 0.74214 0.0
H1471 H 0.8749 0.14852 0.76671 0.0
H1472 H 0.8415 0.14091 0.76369 0.0
H1473 H 0.84861 0.11528 0.77157 0.0
H1474 H 0.82118 0.05318 0.72352 0.0
H1475 H 0.77965 0.01902 0.74427 0.0
loop_
_geom_bond_atom_site_label_1
_geom_bond_atom_site_label_2
_geom_bond_distance
_geom_bond_site_symmetry_2
_ccdc_geom_bond_type
C0 C1 1.351 . S
C0 N3 1.368 1_556 S
C0 H5 0.931 . S
C1 C0 1.351 . S
C1 N2 1.373 . S
C1 H29 0.930 . S
N2 C1 1.373 . S
N2 C4 1.340 . S
N3 C0 1.368 1_554 S
N3 C4 1.321 1_554 S
N3 Co6 2.135 . S
C4 N2 1.340 . S
C4 N3 1.321 1_556 S
C4 H28 0.930 1_556 S
H5 C0 0.931 . S
Co6 N3 2.135 . S
Co6 N9 2.121 . S
Co6 O14 2.055 . S
Co6 O17 2.039 . S
Co6 N20 2.140 . S
C7 O8 1.227 . S
C7 O17 1.265 . S
O8 C7 1.227 . S
N9 Co6 2.121 . S
N9 C11 1.375 . S
N9 C12 1.313 . S
C10 C11 1.338 . S
C10 N13 1.377 . S
C10 H30 0.930 . S
C11 N9 1.375 . S
C11 C10 1.338 . S
C11 H15 0.931 . S
C12 N9 1.313 . S
C12 N13 1.344 . S
C12 H16 0.930 . S
N13 C10 1.377 . S
N13 C12 1.344 . S
O14 Co6 2.055 . S
O14 C18 1.253 . S
H15 C11 0.931 . S
H16 C12 0.930 . S
O17 Co6 2.039 . S
O17 C7 1.265 . S
C18 O14 1.253 . S
C18 O19 1.227 . S
O19 C18 1.227 . S
N20 Co6 2.140 . S
N20 C23 1.346 . S
N20 C24 1.345 . S
C21 C22 1.387 . S
C21 C25 1.391 . S
C22 C21 1.387 . S
C22 C23 1.369 . S
C22 H31 0.929 . S
C23 N20 1.346 . S
C23 C22 1.369 . S
C23 H26 0.928 . S
C24 N20 1.345 . S
C24 C25 1.371 . S
C24 H27 0.931 . S
C25 C21 1.391 . S
C25 C24 1.371 . S
C25 H32 0.930 . S
H26 C23 0.928 . S
H27 C24 0.931 . S
H28 C4 0.930 1_554 S
H29 C1 0.930 . S
H30 C10 0.930 . S
H31 C22 0.929 . S
H32 C25 0.930 . S
C33 C34 1.351 . S
C33 N36 1.368 . S
C33 H38 0.931 . S
C34 C33 1.351 . S
C34 N35 1.373 . S
C34 H62 0.930 . S
N35 C34 1.373 . S
N35 C37 1.340 . S
N36 C33 1.368 . S
N36 C37 1.321 . S
N36 Co39 2.135 . S
C37 N35 1.340 . S
C37 N36 1.321 . S
C37 H61 0.930 . S
H38 C33 0.931 . S
Co39 N36 2.135 . S
Co39 N42 2.121 . S
Co39 O47 2.055 . S
Co39 O50 2.039 . S
Co39 N53 2.140 . S
C40 O41 1.227 . S
C40 O50 1.265 . S
O41 C40 1.227 . S
N42 Co39 2.121 . S
N42 C44 1.375 . S
N42 C45 1.313 . S
C43 C44 1.338 . S
C43 N46 1.377 . S
C43 H63 0.930 . S
C44 N42 1.375 . S
C44 C43 1.338 . S
C44 H48 0.931 . S
C45 N42 1.313 . S
C45 N46 1.344 . S
C45 H49 0.930 . S
N46 C43 1.377 . S
N46 C45 1.344 . S
O47 Co39 2.055 . S
O47 C51 1.253 . S
H48 C44 0.931 . S
H49 C45 0.930 . S
O50 Co39 2.039 . S
O50 C40 1.265 . S
C51 O47 1.253 . S
C51 O52 1.227 . S
O52 C51 1.227 . S
N53 Co39 2.140 . S
N53 C56 1.346 . S
N53 C57 1.345 . S
C54 C55 1.387 . S
C54 C58 1.391 . S
C55 C54 1.387 . S
C55 C56 1.369 . S
C55 H64 0.929 . S
C56 N53 1.346 . S
C56 C55 1.369 . S
C56 H59 0.928 . S
C57 N53 1.345 . S
C57 C58 1.371 . S
C57 H60 0.931 . S
C58 C54 1.391 . S
C58 C57 1.371 . S
C58 H65 0.930 . S
H59 C56 0.928 . S
H60 C57 0.931 . S
H61 C37 0.930 . S
H62 C34 0.930 . S
H63 C43 0.930 . S
H64 C55 0.929 . S
H65 C58 0.930 . S
C66 C67 1.351 . S
C66 N69 1.368 . S
C66 H71 0.931 . S
C67 C66 1.351 . S
C67 N68 1.373 . S
C67 H95 0.930 . S
N68 C67 1.373 . S
N68 C70 1.340 . S
N69 C66 1.368 . S
N69 C70 1.321 . S
N69 Co72 2.135 . S
C70 N68 1.340 . S
C70 N69 1.321 . S
C70 H94 0.930 . S
H71 C66 0.931 . S
Co72 N69 2.135 . S
Co72 N75 2.121 . S
Co72 O80 2.055 . S
Co72 O83 2.039 . S
Co72 N86 2.140 . S
C73 O74 1.227 . S
C73 O83 1.265 . S
O74 C73 1.227 . S
N75 Co72 2.121 . S
N75 C77 1.375 . S
N75 C78 1.313 . S
C76 C77 1.338 . S
C76 N79 1.377 . S
C76 H96 0.930 . S
C77 N75 1.375 . S
C77 C76 1.338 . S
C77 H81 0.931 . S
C78 N75 1.313 . S
C78 N79 1.344 . S
C78 H82 0.930 . S
N79 C76 1.377 . S
N79 C78 1.344 . S
O80 Co72 2.055 . S
O80 C84 1.253 . S
H81 C77 0.931 . S
H82 C78 0.930 . S
O83 Co72 2.039 . S
O83 C73 1.265 . S
C84 O80 1.253 . S
C84 O85 1.227 . S
O85 C84 1.227 . S
N86 Co72 2.140 . S
N86 C89 1.346 . S
N86 C90 1.345 . S
C87 C88 1.387 . S
C87 C91 1.391 . S
C88 C87 1.387 . S
C88 C89 1.369 . S
C88 H97 0.929 . S
C89 N86 1.346 . S
C89 C88 1.369 . S
C89 H92 0.928 . S
C90 N86 1.345 . S
C90 C91 1.371 . S
C90 H93 0.931 . S
C91 C87 1.391 . S
C91 C90 1.371 . S
C91 H98 0.930 . S
H92 C89 0.928 . S
H93 C90 0.931 . S
H94 C70 0.930 . S
H95 C67 0.930 . S
H96 C76 0.930 . S
H97 C88 0.929 . S
H98 C91 0.930 . S
C99 C100 1.351 . S
C99 N102 1.368 . S
C99 H104 0.931 . S
C100 C99 1.351 . S
C100 N101 1.373 . S
C100 H128 0.930 . S
N101 C100 1.373 . S
N101 C103 1.340 . S
N102 C99 1.368 . S
N102 C103 1.321 . S
N102 Co105 2.135 . S
C103 N101 1.340 . S
C103 N102 1.321 . S
C103 H127 0.930 . S
H104 C99 0.931 . S
Co105 N102 2.135 . S
Co105 N108 2.121 . S
Co105 O113 2.055 . S
Co105 O116 2.039 . S
Co105 N119 2.140 . S
C106 O107 1.227 . S
C106 O116 1.265 . S
O107 C106 1.227 . S
N108 Co105 2.121 . S
N108 C110 1.375 . S
N108 C111 1.313 . S
C109 C110 1.338 . S
C109 N112 1.377 . S
C109 H129 0.930 . S
C110 N108 1.375 . S
C110 C109 1.338 . S
C110 H114 0.931 . S
C111 N108 1.313 . S
C111 N112 1.344 . S
C111 H115 0.930 . S
N112 C109 1.377 . S
N112 C111 1.344 . S
O113 Co105 2.055 . S
O113 C117 1.253 . S
H114 C110 0.931 . S
H115 C111 0.930 . S
O116 Co105 2.039 . S
O116 C106 1.265 . S
C117 O113 1.253 . S
C117 O118 1.227 . S
O118 C117 1.227 . S
N119 Co105 2.140 . S
N119 C122 1.346 . S
N119 C123 1.345 . S
C120 C121 1.387 . S
C120 C124 1.391 . S
C121 C120 1.387 . S
C121 C122 1.369 . S
C121 H130 0.929 . S
C122 N119 1.346 . S
C122 C121 1.369 . S
C122 H125 0.928 . S
C123 N119 1.345 . S
C123 C124 1.371 . S
C123 H126 0.931 . S
C124 C120 1.391 . S
C124 C123 1.371 . S
C124 H131 0.930 . S
H125 C122 0.928 . S
H126 C123 0.931 . S
H127 C103 0.930 . S
H128 C100 0.930 . S
H129 C109 0.930 . S
H130 C121 0.929 . S
H131 C124 0.930 . S
C132 C133 1.351 . S
C132 N135 1.368 . S
C132 H137 0.931 . S
C133 C132 1.351 . S
C133 N134 1.373 . S
C133 H161 0.930 . S
N134 C133 1.373 . S
N134 C136 1.340 . S
N135 C132 1.368 . S
N135 C136 1.321 . S
N135 Co138 2.135 . S
C136 N134 1.340 . S
C136 N135 1.321 . S
C136 H160 0.930 . S
H137 C132 0.931 . S
Co138 N135 2.135 . S
Co138 N141 2.121 . S
Co138 O146 2.055 . S
Co138 O149 2.039 . S
Co138 N152 2.140 . S
C139 O140 1.227 . S
C139 O149 1.265 . S
O140 C139 1.227 . S
N141 Co138 2.121 . S
N141 C143 1.375 . S
N141 C144 1.313 . S
C142 C143 1.338 . S
C142 N145 1.377 . S
C142 H162 0.930 . S
C143 N141 1.375 . S
C143 C142 1.338 . S
C143 H147 0.931 . S
C144 N141 1.313 . S
C144 N145 1.344 . S
C144 H148 0.930 . S
N145 C142 1.377 . S
N145 C144 1.344 . S
O146 Co138 2.055 . S
O146 C150 1.253 . S
H147 C143 0.931 . S
H148 C144 0.930 . S
O149 Co138 2.039 . S
O149 C139 1.265 . S
C150 O146 1.253 . S
C150 O151 1.227 . S
O151 C150 1.227 . S
N152 Co138 2.140 . S
N152 C155 1.346 . S
N152 C156 1.345 . S
C153 C154 1.387 . S
C153 C157 1.391 . S
C154 C153 1.387 . S
C154 C155 1.369 . S
C154 H163 0.929 . S
C155 N152 1.346 . S
C155 C154 1.369 . S
C155 H158 0.928 . S
C156 N152 1.345 . S
C156 C157 1.371 . S
C156 H159 0.931 . S
C157 C153 1.391 . S
C157 C156 1.371 . S
C157 H164 0.930 . S
H158 C155 0.928 . S
H159 C156 0.931 . S
H160 C136 0.930 . S
H161 C133 0.930 . S
H162 C142 0.930 . S
H163 C154 0.929 . S
H164 C157 0.930 . S
C165 C166 1.351 . S
C165 N168 1.368 . S
C165 H170 0.931 . S
C166 C165 1.351 . S
C166 N167 1.373 . S
C166 H194 0.930 . S
N167 C166 1.373 . S
N167 C169 1.340 . S
N168 C165 1.368 . S
N168 C169 1.321 . S
N168 Co171 2.135 . S
C169 N167 1.340 . S
C169 N168 1.321 . S
C169 H193 0.930 . S
H170 C165 0.931 . S
Co171 N168 2.135 . S
Co171 N174 2.121 . S
Co171 O179 2.055 . S
Co171 O182 2.039 . S
Co171 N185 2.140 . S
C172 O173 1.227 . S
C172 O182 1.265 . S
O173 C172 1.227 . S
N174 Co171 2.121 . S
N174 C176 1.375 . S
N174 C177 1.313 . S
C175 C176 1.338 . S
C175 N178 1.377 . S
C175 H195 0.930 . S
C176 N174 1.375 . S
C176 C175 1.338 . S
C176 H180 0.931 . S
C177 N174 1.313 . S
C177 N178 1.344 . S
C177 H181 0.930 . S
N178 C175 1.377 . S
N178 C177 1.344 . S
O179 Co171 2.055 . S
O179 C183 1.253 . S
H180 C176 0.931 . S
H181 C177 0.930 . S
O182 Co171 2.039 . S
O182 C172 1.265 . S
C183 O179 1.253 . S
C183 O184 1.227 . S
O184 C183 1.227 . S
N185 Co171 2.140 . S
N185 C188 1.346 . S
N185 C189 1.345 . S
C186 C187 1.387 . S
C186 C190 1.391 . S
C187 C186 1.387 . S
C187 C188 1.369 . S
C187 H196 0.929 . S
C188 N185 1.346 . S
C188 C187 1.369 . S
C188 H191 0.928 . S
C189 N185 1.345 . S
C189 C190 1.371 . S
C189 H192 0.931 . S
C190 C186 1.391 . S
C190 C189 1.371 . S
C190 H197 0.930 . S
H191 C188 0.928 . S
H192 C189 0.931 . S
H193 C169 0.930 . S
H194 C166 0.930 . S
H195 C175 0.930 . S
H196 C187 0.929 . S
H197 C190 0.930 . S
C198 C199 1.351 . S
C198 N201 1.368 . S
C198 H203 0.931 . S
C199 C198 1.351 . S
C199 N200 1.373 . S
C199 H227 0.930 . S
N200 C199 1.373 . S
N200 C202 1.340 . S
N201 C198 1.368 . S
N201 C202 1.321 . S
N201 Co204 2.135 . S
C202 N200 1.340 . S
C202 N201 1.321 . S
C202 H226 0.930 . S
H203 C198 0.931 . S
Co204 N201 2.135 . S
Co204 N207 2.121 . S
Co204 O212 2.055 . S
Co204 O215 2.039 . S
Co204 N218 2.140 . S
C205 O206 1.227 . S
C205 O215 1.265 . S
O206 C205 1.227 . S
N207 Co204 2.121 . S
N207 C209 1.375 . S
N207 C210 1.313 . S
C208 C209 1.338 . S
C208 N211 1.377 . S
C208 H228 0.930 . S
C209 N207 1.375 . S
C209 C208 1.338 . S
C209 H213 0.931 . S
C210 N207 1.313 . S
C210 N211 1.344 . S
C210 H214 0.930 . S
N211 C208 1.377 . S
N211 C210 1.344 . S
O212 Co204 2.055 . S
O212 C216 1.253 . S
H213 C209 0.931 . S
H214 C210 0.930 . S
O215 Co204 2.039 . S
O215 C205 1.265 . S
C216 O212 1.253 . S
C216 O217 1.227 . S
O217 C216 1.227 . S
N218 Co204 2.140 . S
N218 C221 1.346 . S
N218 C222 1.345 . S
C219 C220 1.387 . S
C219 C223 1.391 . S
C220 C219 1.387 . S
C220 C221 1.369 . S
C220 H229 0.929 . S
C221 N218 1.346 . S
C221 C220 1.369 . S
C221 H224 0.928 . S
C222 N218 1.345 . S
C222 C223 1.371 . S
C222 H225 0.931 . S
C223 C219 1.391 . S
C223 C222 1.371 . S
C223 H230 0.930 . S
H224 C221 0.928 . S
H225 C222 0.931 . S
H226 C202 0.930 . S
H227 C199 0.930 . S
H228 C208 0.930 . S
H229 C220 0.929 . S
H230 C223 0.930 . S
C231 C232 1.351 . S
C231 N234 1.368 1_554 S
C231 H236 0.931 . S
C232 C231 1.351 . S
C232 N233 1.373 . S
C232 H260 0.930 . S
N233 C232 1.373 . S
N233 C235 1.340 . S
N234 C231 1.368 1_556 S
N234 C235 1.321 1_556 S
N234 Co237 2.135 . S
C235 N233 1.340 . S
C235 N234 1.321 1_554 S
C235 H259 0.930 1_554 S
H236 C231 0.931 . S
Co237 N234 2.135 . S
Co237 N240 2.121 . S
Co237 O245 2.055 . S
Co237 O248 2.039 . S
Co237 N251 2.140 . S
C238 O239 1.227 . S
C238 O248 1.265 . S
O239 C238 1.227 . S
N240 Co237 2.121 . S
N240 C242 1.375 . S
N240 C243 1.313 . S
C241 C242 1.338 . S
C241 N244 1.377 . S
C241 H261 0.930 . S
C242 N240 1.375 . S
C242 C241 1.338 . S
C242 H246 0.931 . S
C243 N240 1.313 . S
C243 N244 1.344 . S
C243 H247 0.930 . S
N244 C241 1.377 . S
N244 C243 1.344 . S
O245 Co237 2.055 . S
O245 C249 1.253 . S
H246 C242 0.931 . S
H247 C243 0.930 . S
O248 Co237 2.039 . S
O248 C238 1.265 . S
C249 O245 1.253 . S
C249 O250 1.227 . S
O250 C249 1.227 . S
N251 Co237 2.140 . S
N251 C254 1.346 . S
N251 C255 1.345 . S
C252 C253 1.387 . S
C252 C256 1.391 . S
C253 C252 1.387 . S
C253 C254 1.369 . S
C253 H262 0.929 . S
C254 N251 1.346 . S
C254 C253 1.369 . S
C254 H257 0.928 . S
C255 N251 1.345 . S
C255 C256 1.371 . S
C255 H258 0.931 . S
C256 C252 1.391 . S
C256 C255 1.371 . S
C256 H263 0.930 . S
H257 C254 0.928 . S
H258 C255 0.931 . S
H259 C235 0.930 1_556 S
H260 C232 0.930 . S
H261 C241 0.930 . S
H262 C253 0.929 . S
H263 C256 0.930 . S
C264 C265 1.351 . S
C264 N267 1.368 . S
C264 H269 0.931 . S
C265 C264 1.351 . S
C265 N266 1.373 . S
C265 H293 0.930 . S
N266 C265 1.373 . S
N266 C268 1.340 . S
N267 C264 1.368 . S
N267 C268 1.321 . S
N267 Co270 2.135 . S
C268 N266 1.340 . S
C268 N267 1.321 . S
C268 H292 0.930 . S
H269 C264 0.931 . S
Co270 N267 2.135 . S
Co270 N273 2.121 . S
Co270 O278 2.055 . S
Co270 O281 2.039 . S
Co270 N284 2.140 . S
C271 O272 1.227 . S
C271 O281 1.265 . S
O272 C271 1.227 . S
N273 Co270 2.121 . S
N273 C275 1.375 . S
N273 C276 1.313 . S
C274 C275 1.338 . S
C274 N277 1.377 . S
C274 H294 0.930 . S
C275 N273 1.375 . S
C275 C274 1.338 . S
C275 H279 0.931 . S
C276 N273 1.313 . S
C276 N277 1.344 . S
C276 H280 0.930 . S
N277 C274 1.377 . S
N277 C276 1.344 . S
O278 Co270 2.055 . S
O278 C282 1.253 . S
H279 C275 0.931 . S
H280 C276 0.930 . S
O281 Co270 2.039 . S
O281 C271 1.265 . S
C282 O278 1.253 . S
C282 O283 1.227 . S
O283 C282 1.227 . S
N284 Co270 2.140 . S
N284 C287 1.346 . S
N284 C288 1.345 . S
C285 C286 1.387 . S
C285 C289 1.391 . S
C286 C285 1.387 . S
C286 C287 1.369 . S
C286 H295 0.929 . S
C287 N284 1.346 . S
C287 C286 1.369 . S
C287 H290 0.928 . S
C288 N284 1.345 . S
C288 C289 1.371 . S
C288 H291 0.931 . S
C289 C285 1.391 . S
C289 C288 1.371 . S
C289 H296 0.930 . S
H290 C287 0.928 . S
H291 C288 0.931 . S
H292 C268 0.930 . S
H293 C265 0.930 . S
H294 C274 0.930 . S
H295 C286 0.929 . S
H296 C289 0.930 . S
C297 C298 1.351 . S
C297 N300 1.368 . S
C297 H302 0.931 . S
C298 C297 1.351 . S
C298 N299 1.373 . S
C298 H326 0.930 . S
N299 C298 1.373 . S
N299 C301 1.340 . S
N300 C297 1.368 . S
N300 C301 1.321 . S
N300 Co303 2.135 . S
C301 N299 1.340 . S
C301 N300 1.321 . S
C301 H325 0.930 . S
H302 C297 0.931 . S
Co303 N300 2.135 . S
Co303 N306 2.121 . S
Co303 O311 2.055 . S
Co303 O314 2.039 . S
Co303 N317 2.140 . S
C304 O305 1.227 . S
C304 O314 1.265 . S
O305 C304 1.227 . S
N306 Co303 2.121 . S
N306 C308 1.375 . S
N306 C309 1.313 . S
C307 C308 1.338 . S
C307 N310 1.377 . S
C307 H327 0.930 . S
C308 N306 1.375 . S
C308 C307 1.338 . S
C308 H312 0.931 . S
C309 N306 1.313 . S
C309 N310 1.344 . S
C309 H313 0.930 . S
N310 C307 1.377 . S
N310 C309 1.344 . S
O311 Co303 2.055 . S
O311 C315 1.253 . S
H312 C308 0.931 . S
H313 C309 0.930 . S
O314 Co303 2.039 . S
O314 C304 1.265 . S
C315 O311 1.253 . S
C315 O316 1.227 . S
O316 C315 1.227 . S
N317 Co303 2.140 . S
N317 C320 1.346 . S
N317 C321 1.345 . S
C318 C319 1.387 . S
C318 C322 1.391 . S
C319 C318 1.387 . S
C319 C320 1.369 . S
C319 H328 0.929 . S
C320 N317 1.346 . S
C320 C319 1.369 . S
C320 H323 0.928 . S
C321 N317 1.345 . S
C321 C322 1.371 . S
C321 H324 0.931 . S
C322 C318 1.391 . S
C322 C321 1.371 . S
C322 H329 0.930 . S
H323 C320 0.928 . S
H324 C321 0.931 . S
H325 C301 0.930 . S
H326 C298 0.930 . S
H327 C307 0.930 . S
H328 C319 0.929 . S
H329 C322 0.930 . S
C330 C331 1.351 . S
C330 N333 1.368 . S
C330 H335 0.931 . S
C331 C330 1.351 . S
C331 N332 1.373 . S
C331 H359 0.930 . S
N332 C331 1.373 . S
N332 C334 1.340 . S
N333 C330 1.368 . S
N333 C334 1.321 . S
N333 Co336 2.135 . S
C334 N332 1.340 . S
C334 N333 1.321 . S
C334 H358 0.930 . S
H335 C330 0.931 . S
Co336 N333 2.135 . S
Co336 N339 2.121 . S
Co336 O344 2.055 . S
Co336 O347 2.039 . S
Co336 N350 2.140 . S
C337 O338 1.227 . S
C337 O347 1.265 . S
O338 C337 1.227 . S
N339 Co336 2.121 . S
N339 C341 1.375 . S
N339 C342 1.313 . S
C340 C341 1.338 . S
C340 N343 1.377 . S
C340 H360 0.930 . S
C341 N339 1.375 . S
C341 C340 1.338 . S
C341 H345 0.931 . S
C342 N339 1.313 . S
C342 N343 1.344 . S
C342 H346 0.930 . S
N343 C340 1.377 . S
N343 C342 1.344 . S
O344 Co336 2.055 . S
O344 C348 1.253 . S
H345 C341 0.931 . S
H346 C342 0.930 . S
O347 Co336 2.039 . S
O347 C337 1.265 . S
C348 O344 1.253 . S
C348 O349 1.227 . S
O349 C348 1.227 . S
N350 Co336 2.140 . S
N350 C353 1.346 . S
N350 C354 1.345 . S
C351 C352 1.387 . S
C351 C355 1.391 . S
C352 C351 1.387 . S
C352 C353 1.369 . S
C352 H361 0.929 . S
C353 N350 1.346 . S
C353 C352 1.369 . S
C353 H356 0.928 . S
C354 N350 1.345 . S
C354 C355 1.371 . S
C354 H357 0.931 . S
C355 C351 1.391 . S
C355 C354 1.371 . S
C355 H362 0.930 . S
H356 C353 0.928 . S
H357 C354 0.931 . S
H358 C334 0.930 . S
H359 C331 0.930 . S
H360 C340 0.930 . S
H361 C352 0.929 . S
H362 C355 0.930 . S
C363 C364 1.351 . S
C363 N366 1.368 . S
C363 H368 0.931 . S
C364 C363 1.351 . S
C364 N365 1.373 . S
C364 H392 0.930 . S
N365 C364 1.373 . S
N365 C367 1.340 . S
N366 C363 1.368 . S
N366 C367 1.321 . S
N366 Co369 2.135 . S
C367 N365 1.340 . S
C367 N366 1.321 . S
C367 H391 0.930 . S
H368 C363 0.931 . S
Co369 N366 2.135 . S
Co369 N372 2.121 . S
Co369 O377 2.055 . S
Co369 O380 2.039 . S
Co369 N383 2.140 . S
C370 O371 1.227 . S
C370 O380 1.265 . S
O371 C370 1.227 . S
N372 Co369 2.121 . S
N372 C374 1.375 . S
N372 C375 1.313 . S
C373 C374 1.338 . S
C373 N376 1.377 . S
C373 H393 0.930 . S
C374 N372 1.375 . S
C374 C373 1.338 . S
C374 H378 0.931 . S
C375 N372 1.313 . S
C375 N376 1.344 . S
C375 H379 0.930 . S
N376 C373 1.377 . S
N376 C375 1.344 . S
O377 Co369 2.055 . S
O377 C381 1.253 . S
H378 C374 0.931 . S
H379 C375 0.930 . S
O380 Co369 2.039 . S
O380 C370 1.265 . S
C381 O377 1.253 . S
C381 O382 1.227 . S
O382 C381 1.227 . S
N383 Co369 2.140 . S
N383 C386 1.346 . S
N383 C387 1.345 . S
C384 C385 1.387 . S
C384 C388 1.391 . S
C385 C384 1.387 . S
C385 C386 1.369 . S
C385 H394 0.929 . S
C386 N383 1.346 . S
C386 C385 1.369 . S
C386 H389 0.928 . S
C387 N383 1.345 . S
C387 C388 1.371 . S
C387 H390 0.931 . S
C388 C384 1.391 . S
C388 C387 1.371 . S
C388 H395 0.930 . S
H389 C386 0.928 . S
H390 C387 0.931 . S
H391 C367 0.930 . S
H392 C364 0.930 . S
H393 C373 0.930 . S
H394 C385 0.929 . S
H395 C388 0.930 . S
H396 C404 0.929 . S
H397 C406 0.930 . S
H398 C408 0.930 . S
H399 C411 0.929 . S
H400 C414 0.930 . S
H401 C416 0.960 . S
H402 C416 0.960 . S
H403 C416 0.960 . S
C404 H396 0.929 . S
C404 C405 1.377 . S
C404 C406 1.384 . S
C405 C404 1.377 . S
C405 C411 1.390 . S
C406 H397 0.930 . S
C406 C404 1.384 . S
C406 C407 1.372 . S
C407 C406 1.372 . S
C407 C408 1.400 . S
C407 C412 1.490 . S
C408 H398 0.930 . S
C408 C407 1.400 . S
C408 C411 1.386 . S
H409 C425 0.930 . S
H410 C426 0.931 . S
C411 H399 0.929 . S
C411 C405 1.390 . S
C411 C408 1.386 . S
C412 C407 1.490 . S
C412 C414 1.395 . S
C412 C415 1.403 . S
H413 C419 0.930 . S
C414 H400 0.930 . S
C414 C412 1.395 . S
C414 C417 1.403 . S
C415 C412 1.403 . S
C415 C416 1.524 . S
C415 C419 1.400 . S
C416 H401 0.960 . S
C416 H402 0.960 . S
C416 H403 0.960 . S
C416 C415 1.524 . S
C417 C414 1.403 . S
C417 C418 1.392 . S
C417 C421 1.495 . S
C418 C417 1.392 . S
C418 C419 1.385 . S
C418 C420 1.478 . S
C419 H413 0.930 . S
C419 C415 1.400 . S
C419 C418 1.385 . S
C420 C418 1.478 . S
C420 C422 1.381 . S
C420 C426 1.383 . S
C421 C417 1.495 . S
C421 H427 0.959 . S
C421 H428 0.961 . S
C421 H429 0.960 . S
C422 C420 1.381 . S
C422 C423 1.394 . S
C422 H430 0.930 . S
C423 C422 1.394 . S
C423 C424 1.383 . S
C423 H431 0.929 . S
C424 C423 1.383 . S
C424 C425 1.377 . S
C425 H409 0.930 . S
C425 C424 1.377 . S
C425 C426 1.379 . S
C426 H410 0.931 . S
C426 C420 1.383 . S
C426 C425 1.379 . S
H427 C421 0.959 . S
H428 C421 0.961 . S
H429 C421 0.960 . S
H430 C422 0.930 . S
H431 C423 0.929 . S
H432 C440 0.929 . S
H433 C442 0.930 . S
H434 C444 0.930 . S
H435 C447 0.929 . S
H436 C450 0.930 . S
H437 C452 0.960 . S
H438 C452 0.960 . S
H439 C452 0.960 . S
C440 H432 0.929 . S
C440 C441 1.377 . S
C440 C442 1.384 . S
C441 C440 1.377 . S
C441 C447 1.390 . S
C442 H433 0.930 . S
C442 C440 1.384 . S
C442 C443 1.372 . S
C443 C442 1.372 . S
C443 C444 1.400 . S
C443 C448 1.490 . S
C444 H434 0.930 . S
C444 C443 1.400 . S
C444 C447 1.386 . S
H445 C461 0.930 . S
H446 C462 0.931 . S
C447 H435 0.929 . S
C447 C441 1.390 . S
C447 C444 1.386 . S
C448 C443 1.490 . S
C448 C450 1.395 . S
C448 C451 1.403 . S
H449 C455 0.930 . S
C450 H436 0.930 . S
C450 C448 1.395 . S
C450 C453 1.403 . S
C451 C448 1.403 . S
C451 C452 1.524 . S
C451 C455 1.400 . S
C452 H437 0.960 . S
C452 H438 0.960 . S
C452 H439 0.960 . S
C452 C451 1.524 . S
C453 C450 1.403 . S
C453 C454 1.392 . S
C453 C457 1.495 . S
C454 C453 1.392 . S
C454 C455 1.385 . S
C454 C456 1.478 . S
C455 H449 0.930 . S
C455 C451 1.400 . S
C455 C454 1.385 . S
C456 C454 1.478 . S
C456 C458 1.381 . S
C456 C462 1.383 . S
C457 C453 1.495 . S
C457 H463 0.959 . S
C457 H464 0.961 . S
C457 H465 0.960 . S
C458 C456 1.381 . S
C458 C459 1.394 . S
C458 H466 0.930 . S
C459 C458 1.394 . S
C459 C460 1.383 . S
C459 H467 0.929 . S
C460 C459 1.383 . S
C460 C461 1.377 . S
C461 H445 0.930 . S
C461 C460 1.377 . S
C461 C462 1.379 . S
C462 H446 0.931 . S
C462 C456 1.383 . S
C462 C461 1.379 . S
H463 C457 0.959 . S
H464 C457 0.961 . S
H465 C457 0.960 . S
H466 C458 0.930 . S
H467 C459 0.929 . S
H468 C476 0.929 . S
H469 C478 0.930 . S
H470 C480 0.930 . S
H471 C483 0.929 . S
H472 C486 0.930 . S
H473 C488 0.960 . S
H474 C488 0.960 . S
H475 C488 0.960 . S
C476 H468 0.929 . S
C476 C477 1.377 . S
C476 C478 1.384 . S
C477 C476 1.377 . S
C477 C483 1.390 . S
C478 H469 0.930 . S
C478 C476 1.384 . S
C478 C479 1.372 . S
C479 C478 1.372 . S
C479 C480 1.400 . S
C479 C484 1.490 . S
C480 H470 0.930 . S
C480 C479 1.400 . S
C480 C483 1.386 . S
H481 C497 0.930 . S
H482 C498 0.931 . S
C483 H471 0.929 . S
C483 C477 1.390 . S
C483 C480 1.386 . S
C484 C479 1.490 . S
C484 C486 1.395 . S
C484 C487 1.403 . S
H485 C491 0.930 . S
C486 H472 0.930 . S
C486 C484 1.395 . S
C486 C489 1.403 . S
C487 C484 1.403 . S
C487 C488 1.524 . S
C487 C491 1.400 . S
C488 H473 0.960 . S
C488 H474 0.960 . S
C488 H475 0.960 . S
C488 C487 1.524 . S
C489 C486 1.403 . S
C489 C490 1.392 . S
C489 C493 1.495 . S
C490 C489 1.392 . S
C490 C491 1.385 . S
C490 C492 1.478 . S
C491 H485 0.930 . S
C491 C487 1.400 . S
C491 C490 1.385 . S
C492 C490 1.478 . S
C492 C494 1.381 . S
C492 C498 1.383 . S
C493 C489 1.495 . S
C493 H499 0.959 . S
C493 H500 0.961 . S
C493 H501 0.960 . S
C494 C492 1.381 . S
C494 C495 1.394 . S
C494 H502 0.930 . S
C495 C494 1.394 . S
C495 C496 1.383 . S
C495 H503 0.929 . S
C496 C495 1.383 . S
C496 C497 1.377 . S
C497 H481 0.930 . S
C497 C496 1.377 . S
C497 C498 1.379 . S
C498 H482 0.931 . S
C498 C492 1.383 . S
C498 C497 1.379 . S
H499 C493 0.959 . S
H500 C493 0.961 . S
H501 C493 0.960 . S
H502 C494 0.930 . S
H503 C495 0.929 . S
H504 C512 0.929 . S
H505 C514 0.930 . S
H506 C516 0.930 . S
H507 C519 0.929 . S
H508 C522 0.930 . S
H509 C524 0.960 . S
H510 C524 0.960 . S
H511 C524 0.960 . S
C512 H504 0.929 . S
C512 C513 1.377 . S
C512 C514 1.384 . S
C513 C512 1.377 . S
C513 C519 1.390 . S
C514 H505 0.930 . S
C514 C512 1.384 . S
C514 C515 1.372 . S
C515 C514 1.372 . S
C515 C516 1.400 . S
C515 C520 1.490 . S
C516 H506 0.930 . S
C516 C515 1.400 . S
C516 C519 1.386 . S
H517 C533 0.930 . S
H518 C534 0.931 . S
C519 H507 0.929 . S
C519 C513 1.390 . S
C519 C516 1.386 . S
C520 C515 1.490 . S
C520 C522 1.395 . S
C520 C523 1.403 . S
H521 C527 0.930 . S
C522 H508 0.930 . S
C522 C520 1.395 . S
C522 C525 1.403 . S
C523 C520 1.403 . S
C523 C524 1.524 . S
C523 C527 1.400 . S
C524 H509 0.960 . S
C524 H510 0.960 . S
C524 H511 0.960 . S
C524 C523 1.524 . S
C525 C522 1.403 . S
C525 C526 1.392 . S
C525 C529 1.495 . S
C526 C525 1.392 . S
C526 C527 1.385 . S
C526 C528 1.478 . S
C527 H521 0.930 . S
C527 C523 1.400 . S
C527 C526 1.385 . S
C528 C526 1.478 . S
C528 C530 1.381 . S
C528 C534 1.383 . S
C529 C525 1.495 . S
C529 H535 0.959 . S
C529 H536 0.961 . S
C529 H537 0.960 . S
C530 C528 1.381 . S
C530 C531 1.394 . S
C530 H538 0.930 . S
C531 C530 1.394 . S
C531 C532 1.383 . S
C531 H539 0.929 . S
C532 C531 1.383 . S
C532 C533 1.377 . S
C533 H517 0.930 . S
C533 C532 1.377 . S
C533 C534 1.379 . S
C534 H518 0.931 . S
C534 C528 1.383 . S
C534 C533 1.379 . S
H535 C529 0.959 . S
H536 C529 0.961 . S
H537 C529 0.960 . S
H538 C530 0.930 . S
H539 C531 0.929 . S
H540 C548 0.929 . S
H541 C550 0.930 . S
H542 C552 0.930 . S
H543 C555 0.929 . S
H544 C558 0.930 . S
H545 C560 0.960 . S
H546 C560 0.960 . S
H547 C560 0.960 . S
C548 H540 0.929 . S
C548 C549 1.377 . S
C548 C550 1.384 . S
C549 C548 1.377 . S
C549 C555 1.390 . S
C550 H541 0.930 . S
C550 C548 1.384 . S
C550 C551 1.372 . S
C551 C550 1.372 . S
C551 C552 1.400 . S
C551 C556 1.490 . S
C552 H542 0.930 . S
C552 C551 1.400 . S
C552 C555 1.386 . S
H553 C569 0.930 . S
H554 C570 0.931 . S
C555 H543 0.929 . S
C555 C549 1.390 . S
C555 C552 1.386 . S
C556 C551 1.490 . S
C556 C558 1.395 . S
C556 C559 1.403 . S
H557 C563 0.930 . S
C558 H544 0.930 . S
C558 C556 1.395 . S
C558 C561 1.403 . S
C559 C556 1.403 . S
C559 C560 1.524 . S
C559 C563 1.400 . S
C560 H545 0.960 . S
C560 H546 0.960 . S
C560 H547 0.960 . S
C560 C559 1.524 . S
C561 C558 1.403 . S
C561 C562 1.392 . S
C561 C565 1.495 . S
C562 C561 1.392 . S
C562 C563 1.385 . S
C562 C564 1.478 . S
C563 H557 0.930 . S
C563 C559 1.400 . S
C563 C562 1.385 . S
C564 C562 1.478 . S
C564 C566 1.381 . S
C564 C570 1.383 . S
C565 C561 1.495 . S
C565 H571 0.959 . S
C565 H572 0.961 . S
C565 H573 0.960 . S
C566 C564 1.381 . S
C566 C567 1.394 . S
C566 H574 0.930 . S
C567 C566 1.394 . S
C567 C568 1.383 1_556 S
C567 H575 0.929 . S
C568 C567 1.383 1_554 S
C568 C569 1.377 . S
C569 H553 0.930 . S
C569 C568 1.377 . S
C569 C570 1.379 1_554 S
C570 H554 0.931 . S
C570 C564 1.383 . S
C570 C569 1.379 1_556 S
H571 C565 0.959 . S
H572 C565 0.961 . S
H573 C565 0.960 . S
H574 C566 0.930 . S
H575 C567 0.929 . S
H576 C584 0.929 . S
H577 C586 0.930 . S
H578 C588 0.930 . S
H579 C591 0.929 . S
H580 C594 0.930 . S
H581 C596 0.960 . S
H582 C596 0.960 . S
H583 C596 0.960 . S
C584 H576 0.929 . S
C584 C585 1.377 1_554 S
C584 C586 1.384 . S
C585 C584 1.377 1_556 S
C585 C591 1.390 . S
C586 H577 0.930 . S
C586 C584 1.384 . S
C586 C587 1.372 . S
C587 C586 1.372 . S
C587 C588 1.400 . S
C587 C592 1.490 . S
C588 H578 0.930 . S
C588 C587 1.400 . S
C588 C591 1.386 1_554 S
H589 C605 0.930 . S
H590 C606 0.931 . S
C591 H579 0.929 . S
C591 C585 1.390 . S
C591 C588 1.386 1_556 S
C592 C587 1.490 . S
C592 C594 1.395 . S
C592 C595 1.403 . S
H593 C599 0.930 . S
C594 H580 0.930 . S
C594 C592 1.395 . S
C594 C597 1.403 . S
C595 C592 1.403 . S
C595 C596 1.524 . S
C595 C599 1.400 . S
C596 H581 0.960 . S
C596 H582 0.960 . S
C596 H583 0.960 . S
C596 C595 1.524 . S
C597 C594 1.403 . S
C597 C598 1.392 . S
C597 C601 1.495 . S
C598 C597 1.392 . S
C598 C599 1.385 . S
C598 C600 1.478 . S
C599 H593 0.930 . S
C599 C595 1.400 . S
C599 C598 1.385 . S
C600 C598 1.478 . S
C600 C602 1.381 . S
C600 C606 1.383 . S
C601 C597 1.495 . S
C601 H607 0.959 . S
C601 H608 0.961 . S
C601 H609 0.960 . S
C602 C600 1.381 . S
C602 C603 1.394 . S
C602 H610 0.930 . S
C603 C602 1.394 . S
C603 C604 1.383 . S
C603 H611 0.929 . S
C604 C603 1.383 . S
C604 C605 1.377 . S
C605 H589 0.930 . S
C605 C604 1.377 . S
C605 C606 1.379 . S
C606 H590 0.931 . S
C606 C600 1.383 . S
C606 C605 1.379 . S
H607 C601 0.959 . S
H608 C601 0.961 . S
H609 C601 0.960 . S
H610 C602 0.930 . S
H611 C603 0.929 . S
H612 C620 0.929 . S
H613 C622 0.930 . S
H614 C624 0.930 . S
H615 C627 0.929 . S
H616 C630 0.930 . S
H617 C632 0.960 . S
H618 C632 0.960 . S
H619 C632 0.960 . S
C620 H612 0.929 . S
C620 C621 1.377 . S
C620 C622 1.384 . S
C621 C620 1.377 . S
C621 C627 1.390 . S
C622 H613 0.930 . S
C622 C620 1.384 . S
C622 C623 1.372 . S
C623 C622 1.372 . S
C623 C624 1.400 . S
C623 C628 1.490 . S
C624 H614 0.930 . S
C624 C623 1.400 . S
C624 C627 1.386 . S
H625 C641 0.930 . S
H626 C642 0.931 . S
C627 H615 0.929 . S
C627 C621 1.390 . S
C627 C624 1.386 . S
C628 C623 1.490 . S
C628 C630 1.395 . S
C628 C631 1.403 . S
H629 C635 0.930 . S
C630 H616 0.930 . S
C630 C628 1.395 . S
C630 C633 1.403 . S
C631 C628 1.403 . S
C631 C632 1.524 . S
C631 C635 1.400 . S
C632 H617 0.960 . S
C632 H618 0.960 . S
C632 H619 0.960 . S
C632 C631 1.524 . S
C633 C630 1.403 . S
C633 C634 1.392 . S
C633 C637 1.495 . S
C634 C633 1.392 . S
C634 C635 1.385 . S
C634 C636 1.478 . S
C635 H629 0.930 . S
C635 C631 1.400 . S
C635 C634 1.385 . S
C636 C634 1.478 . S
C636 C638 1.381 . S
C636 C642 1.383 . S
C637 C633 1.495 . S
C637 H643 0.959 . S
C637 H644 0.961 . S
C637 H645 0.960 . S
C638 C636 1.381 . S
C638 C639 1.394 . S
C638 H646 0.930 . S
C639 C638 1.394 . S
C639 C640 1.383 . S
C639 H647 0.929 . S
C640 C639 1.383 . S
C640 C641 1.377 . S
C641 H625 0.930 . S
C641 C640 1.377 . S
C641 C642 1.379 . S
C642 H626 0.931 . S
C642 C636 1.383 . S
C642 C641 1.379 . S
H643 C637 0.959 . S
H644 C637 0.961 . S
H645 C637 0.960 . S
H646 C638 0.930 . S
H647 C639 0.929 . S
H648 C656 0.929 . S
H649 C658 0.930 . S
H650 C660 0.930 . S
H651 C663 0.929 . S
H652 C666 0.930 . S
H653 C668 0.960 . S
H654 C668 0.960 . S
H655 C668 0.960 . S
C656 H648 0.929 . S
C656 C657 1.377 . S
C656 C658 1.384 . S
C657 C656 1.377 . S
C657 C663 1.390 . S
C658 H649 0.930 . S
C658 C656 1.384 . S
C658 C659 1.372 . S
C659 C658 1.372 . S
C659 C660 1.400 . S
C659 C664 1.490 . S
C660 H650 0.930 . S
C660 C659 1.400 . S
C660 C663 1.386 . S
H661 C677 0.930 . S
H662 C678 0.931 . S
C663 H651 0.929 . S
C663 C657 1.390 . S
C663 C660 1.386 . S
C664 C659 1.490 . S
C664 C666 1.395 . S
C664 C667 1.403 . S
H665 C671 0.930 . S
C666 H652 0.930 . S
C666 C664 1.395 . S
C666 C669 1.403 . S
C667 C664 1.403 . S
C667 C668 1.524 . S
C667 C671 1.400 . S
C668 H653 0.960 . S
C668 H654 0.960 . S
C668 H655 0.960 . S
C668 C667 1.524 . S
C669 C666 1.403 . S
C669 C670 1.392 . S
C669 C673 1.495 . S
C670 C669 1.392 . S
C670 C671 1.385 . S
C670 C672 1.478 . S
C671 H665 0.930 . S
C671 C667 1.400 . S
C671 C670 1.385 . S
C672 C670 1.478 . S
C672 C674 1.381 . S
C672 C678 1.383 . S
C673 C669 1.495 . S
C673 H679 0.959 . S
C673 H680 0.961 . S
C673 H681 0.960 . S
C674 C672 1.381 . S
C674 C675 1.394 . S
C674 H682 0.930 . S
C675 C674 1.394 . S
C675 C676 1.383 . S
C675 H683 0.929 . S
C676 C675 1.383 . S
C676 C677 1.377 . S
C677 H661 0.930 . S
C677 C676 1.377 . S
C677 C678 1.379 . S
C678 H662 0.931 . S
C678 C672 1.383 . S
C678 C677 1.379 . S
H679 C673 0.959 . S
H680 C673 0.961 . S
H681 C673 0.960 . S
H682 C674 0.930 . S
H683 C675 0.929 . S
H684 C692 0.929 . S
H685 C694 0.930 . S
H686 C696 0.930 . S
H687 C699 0.929 . S
H688 C702 0.930 . S
H689 C704 0.960 . S
H690 C704 0.960 . S
H691 C704 0.960 . S
C692 H684 0.929 . S
C692 C693 1.377 . S
C692 C694 1.384 . S
C693 C692 1.377 . S
C693 C699 1.390 . S
C694 H685 0.930 . S
C694 C692 1.384 . S
C694 C695 1.372 . S
C695 C694 1.372 . S
C695 C696 1.400 . S
C695 C700 1.490 . S
C696 H686 0.930 . S
C696 C695 1.400 . S
C696 C699 1.386 . S
H697 C713 0.930 . S
H698 C714 0.931 . S
C699 H687 0.929 . S
C699 C693 1.390 . S
C699 C696 1.386 . S
C700 C695 1.490 . S
C700 C702 1.395 . S
C700 C703 1.403 . S
H701 C707 0.930 . S
C702 H688 0.930 . S
C702 C700 1.395 . S
C702 C705 1.403 . S
C703 C700 1.403 . S
C703 C704 1.524 . S
C703 C707 1.400 . S
C704 H689 0.960 . S
C704 H690 0.960 . S
C704 H691 0.960 . S
C704 C703 1.524 . S
C705 C702 1.403 . S
C705 C706 1.392 . S
C705 C709 1.495 . S
C706 C705 1.392 . S
C706 C707 1.385 . S
C706 C708 1.478 . S
C707 H701 0.930 . S
C707 C703 1.400 . S
C707 C706 1.385 . S
C708 C706 1.478 . S
C708 C710 1.381 . S
C708 C714 1.383 . S
C709 C705 1.495 . S
C709 H715 0.959 . S
C709 H716 0.961 . S
C709 H717 0.960 . S
C710 C708 1.381 . S
C710 C711 1.394 . S
C710 H718 0.930 . S
C711 C710 1.394 . S
C711 C712 1.383 . S
C711 H719 0.929 . S
C712 C711 1.383 . S
C712 C713 1.377 . S
C713 H697 0.930 . S
C713 C712 1.377 . S
C713 C714 1.379 . S
C714 H698 0.931 . S
C714 C708 1.383 . S
C714 C713 1.379 . S
H715 C709 0.959 . S
H716 C709 0.961 . S
H717 C709 0.960 . S
H718 C710 0.930 . S
H719 C711 0.929 . S
H720 C728 0.929 . S
H721 C730 0.930 . S
H722 C732 0.930 . S
H723 C735 0.929 . S
H724 C738 0.930 . S
H725 C740 0.960 . S
H726 C740 0.960 . S
H727 C740 0.960 . S
C728 H720 0.929 . S
C728 C729 1.377 . S
C728 C730 1.384 . S
C729 C728 1.377 . S
C729 C735 1.390 . S
C730 H721 0.930 . S
C730 C728 1.384 . S
C730 C731 1.372 . S
C731 C730 1.372 . S
C731 C732 1.400 . S
C731 C736 1.490 . S
C732 H722 0.930 . S
C732 C731 1.400 . S
C732 C735 1.386 . S
H733 C749 0.930 . S
H734 C750 0.931 . S
C735 H723 0.929 . S
C735 C729 1.390 . S
C735 C732 1.386 . S
C736 C731 1.490 . S
C736 C738 1.395 . S
C736 C739 1.403 . S
H737 C743 0.930 . S
C738 H724 0.930 . S
C738 C736 1.395 . S
C738 C741 1.403 . S
C739 C736 1.403 . S
C739 C740 1.524 . S
C739 C743 1.400 . S
C740 H725 0.960 . S
C740 H726 0.960 . S
C740 H727 0.960 . S
C740 C739 1.524 . S
C741 C738 1.403 . S
C741 C742 1.392 . S
C741 C745 1.495 . S
C742 C741 1.392 . S
C742 C743 1.385 . S
C742 C744 1.478 . S
C743 H737 0.930 . S
C743 C739 1.400 . S
C743 C742 1.385 . S
C744 C742 1.478 . S
C744 C746 1.381 . S
C744 C750 1.383 . S
C745 C741 1.495 . S
C745 H751 0.959 . S
C745 H752 0.961 . S
C745 H753 0.960 . S
C746 C744 1.381 . S
C746 C747 1.394 . S
C746 H754 0.930 . S
C747 C746 1.394 . S
C747 C748 1.383 . S
C747 H755 0.929 . S
C748 C747 1.383 . S
C748 C749 1.377 . S
C749 H733 0.930 . S
C749 C748 1.377 . S
C749 C750 1.379 . S
C750 H734 0.931 . S
C750 C744 1.383 . S
C750 C749 1.379 . S
H751 C745 0.959 . S
H752 C745 0.961 . S
H753 C745 0.960 . S
H754 C746 0.930 . S
H755 C747 0.929 . S
H756 C764 0.929 . S
H757 C766 0.930 . S
H758 C768 0.930 . S
H759 C771 0.929 . S
H760 C774 0.930 . S
H761 C776 0.960 . S
H762 C776 0.960 . S
H763 C776 0.960 . S
C764 H756 0.929 . S
C764 C765 1.377 . S
C764 C766 1.384 . S
C765 C764 1.377 . S
C765 C771 1.390 . S
C766 H757 0.930 . S
C766 C764 1.384 . S
C766 C767 1.372 . S
C767 C766 1.372 . S
C767 C768 1.400 . S
C767 C772 1.490 . S
C768 H758 0.930 . S
C768 C767 1.400 . S
C768 C771 1.386 . S
H769 C785 0.930 . S
H770 C786 0.931 . S
C771 H759 0.929 . S
C771 C765 1.390 . S
C771 C768 1.386 . S
C772 C767 1.490 . S
C772 C774 1.395 . S
C772 C775 1.403 . S
H773 C779 0.930 . S
C774 H760 0.930 . S
C774 C772 1.395 . S
C774 C777 1.403 . S
C775 C772 1.403 . S
C775 C776 1.524 . S
C775 C779 1.400 . S
C776 H761 0.960 . S
C776 H762 0.960 . S
C776 H763 0.960 . S
C776 C775 1.524 . S
C777 C774 1.403 . S
C777 C778 1.392 . S
C777 C781 1.495 . S
C778 C777 1.392 . S
C778 C779 1.385 . S
C778 C780 1.478 . S
C779 H773 0.930 . S
C779 C775 1.400 . S
C779 C778 1.385 . S
C780 C778 1.478 . S
C780 C782 1.381 . S
C780 C786 1.383 . S
C781 C777 1.495 . S
C781 H787 0.959 . S
C781 H788 0.961 . S
C781 H789 0.960 . S
C782 C780 1.381 . S
C782 C783 1.394 . S
C782 H790 0.930 . S
C783 C782 1.394 . S
C783 C784 1.383 . S
C783 H791 0.929 . S
C784 C783 1.383 . S
C784 C785 1.377 . S
C785 H769 0.930 . S
C785 C784 1.377 . S
C785 C786 1.379 . S
C786 H770 0.931 . S
C786 C780 1.383 . S
C786 C785 1.379 . S
H787 C781 0.959 . S
H788 C781 0.961 . S
H789 C781 0.960 . S
H790 C782 0.930 . S
H791 C783 0.929 . S
H792 C800 0.929 . S
H793 C802 0.930 . S
H794 C804 0.930 . S
H795 C807 0.929 . S
H796 C810 0.930 . S
H797 C812 0.960 . S
H798 C812 0.960 . S
H799 C812 0.960 . S
C800 H792 0.929 . S
C800 C801 1.377 . S
C800 C802 1.384 . S
C801 C800 1.377 . S
C801 C807 1.390 . S
C802 H793 0.930 . S
C802 C800 1.384 . S
C802 C803 1.372 . S
C803 C802 1.372 . S
C803 C804 1.400 . S
C803 C808 1.490 . S
C804 H794 0.930 . S
C804 C803 1.400 . S
C804 C807 1.386 . S
H805 C821 0.930 . S
H806 C822 0.931 . S
C807 H795 0.929 . S
C807 C801 1.390 . S
C807 C804 1.386 . S
C808 C803 1.490 . S
C808 C810 1.395 . S
C808 C811 1.403 . S
H809 C815 0.930 . S
C810 H796 0.930 . S
C810 C808 1.395 . S
C810 C813 1.403 . S
C811 C808 1.403 . S
C811 C812 1.524 . S
C811 C815 1.400 . S
C812 H797 0.960 . S
C812 H798 0.960 . S
C812 H799 0.960 . S
C812 C811 1.524 . S
C813 C810 1.403 . S
C813 C814 1.392 . S
C813 C817 1.495 . S
C814 C813 1.392 . S
C814 C815 1.385 . S
C814 C816 1.478 . S
C815 H809 0.930 . S
C815 C811 1.400 . S
C815 C814 1.385 . S
C816 C814 1.478 . S
C816 C818 1.381 . S
C816 C822 1.383 . S
C817 C813 1.495 . S
C817 H823 0.959 . S
C817 H824 0.961 . S
C817 H825 0.960 . S
C818 C816 1.381 . S
C818 C819 1.394 . S
C818 H826 0.930 . S
C819 C818 1.394 . S
C819 C820 1.383 . S
C819 H827 0.929 . S
C820 C819 1.383 . S
C820 C821 1.377 . S
C821 H805 0.930 . S
C821 C820 1.377 . S
C821 C822 1.379 . S
C822 H806 0.931 . S
C822 C816 1.383 . S
C822 C821 1.379 . S
H823 C817 0.959 . S
H824 C817 0.961 . S
H825 C817 0.960 . S
H826 C818 0.930 . S
H827 C819 0.929 . S
H828 C836 0.929 1_455 S
H829 C838 0.957 . S
H830 C840 0.930 . S
H831 C843 0.929 . S
H832 C846 0.934 . S
H833 C848 0.960 . S
H834 C848 0.960 1_455 S
H835 C848 0.960 . S
C836 H828 0.929 1_655 S
C836 C837 1.377 . S
C836 C838 1.373 1_655 S
C837 C836 1.377 . S
C837 C843 1.390 . S
C838 H829 0.957 . S
C838 C836 1.373 1_455 S
C838 C839 1.358 1_455 S
C839 C838 1.358 1_655 S
C839 C840 1.400 . S
C839 C844 1.490 . S
C840 H830 0.930 . S
C840 C839 1.400 . S
C840 C843 1.386 . S
H841 C857 0.930 1_655 S
H842 C858 0.947 . S
C843 H831 0.929 . S
C843 C837 1.390 . S
C843 C840 1.386 . S
C844 C839 1.490 . S
C844 C846 1.393 . S
C844 C847 1.403 . S
H845 C851 0.930 . S
C846 H832 0.934 . S
C846 C844 1.393 . S
C846 C849 1.402 1_655 S
C847 C844 1.403 . S
C847 C848 1.524 . S
C847 C851 1.400 1_655 S
C848 H833 0.960 . S
C848 H834 0.960 1_655 S
C848 H835 0.960 . S
C848 C847 1.524 . S
C849 C846 1.402 1_455 S
C849 C850 1.392 . S
C849 C853 1.495 . S
C850 C849 1.392 . S
C850 C851 1.385 . S
C850 C852 1.478 . S
C851 H845 0.930 . S
C851 C847 1.400 1_455 S
C851 C850 1.385 . S
C852 C850 1.478 . S
C852 C854 1.381 . S
C852 C858 1.373 1_455 S
C853 C849 1.495 . S
C853 H859 0.959 . S
C853 H860 0.961 . S
C853 H861 0.960 . S
C854 C852 1.381 . S
C854 C855 1.394 . S
C854 H862 0.930 . S
C855 C854 1.394 . S
C855 C856 1.383 . S
C855 H863 0.929 . S
C856 C855 1.383 . S
C856 C857 1.377 . S
C857 H841 0.930 1_455 S
C857 C856 1.377 . S
C857 C858 1.374 1_455 S
C858 H842 0.947 . S
C858 C852 1.373 1_655 S
C858 C857 1.374 1_655 S
H859 C853 0.959 . S
H860 C853 0.961 . S
H861 C853 0.960 . S
H862 C854 0.930 . S
H863 C855 0.929 . S
H864 C872 0.929 1_545 S
H865 C874 0.930 . S
H866 C876 0.930 . S
H867 C879 0.929 . S
H868 C882 0.930 . S
H869 C884 0.960 . S
H870 C884 0.960 . S
H871 C884 0.960 . S
C872 H864 0.929 1_565 S
C872 C873 1.377 . S
C872 C874 1.384 1_565 S
C873 C872 1.377 . S
C873 C879 1.390 . S
C874 H865 0.930 . S
C874 C872 1.384 1_545 S
C874 C875 1.372 1_545 S
C875 C874 1.372 1_565 S
C875 C876 1.400 . S
C875 C880 1.490 . S
C876 H866 0.930 . S
C876 C875 1.400 . S
C876 C879 1.386 . S
H877 C893 0.930 1_565 S
H878 C894 0.926 1_565 S
C879 H867 0.929 . S
C879 C873 1.390 . S
C879 C876 1.386 . S
C880 C875 1.490 . S
C880 C882 1.395 1_565 S
C880 C883 1.403 . S
H881 C887 0.930 . S
C882 H868 0.930 . S
C882 C880 1.395 1_545 S
C882 C885 1.403 1_556 S
C883 C880 1.403 . S
C883 C884 1.524 . S
C883 C887 1.400 1_556 S
C884 H869 0.960 . S
C884 H870 0.960 . S
C884 H871 0.960 . S
C884 C883 1.524 . S
C885 C882 1.403 1_554 S
C885 C886 1.392 . S
C885 C889 1.495 . S
C886 C885 1.392 . S
C886 C887 1.385 1_545 S
C886 C888 1.478 . S
C887 H881 0.930 . S
C887 C883 1.400 1_554 S
C887 C886 1.385 1_565 S
C888 C886 1.478 . S
C888 C890 1.381 . S
C888 C894 1.386 . S
C889 C885 1.495 . S
C889 H895 0.984 . S
C889 H896 0.961 . S
C889 H897 0.960 . S
C890 C888 1.381 . S
C890 C891 1.394 . S
C890 H898 0.930 . S
C891 C890 1.394 . S
C891 C892 1.383 . S
C891 H899 0.929 . S
C892 C891 1.383 . S
C892 C893 1.377 . S
C893 H877 0.930 1_545 S
C893 C892 1.377 . S
C893 C894 1.381 . S
C894 H878 0.926 1_545 S
C894 C888 1.386 . S
C894 C893 1.381 . S
H895 C889 0.984 . S
H896 C889 0.961 . S
H897 C889 0.960 . S
H898 C890 0.930 . S
H899 C891 0.929 . S
H900 C908 0.929 . S
H901 C910 0.930 . S
H902 C912 0.930 . S
H903 C915 0.929 . S
H904 C918 0.930 . S
H905 C920 0.960 . S
H906 C920 0.960 . S
H907 C920 0.960 . S
C908 H900 0.929 . S
C908 C909 1.377 . S
C908 C910 1.384 . S
C909 C908 1.377 . S
C909 C915 1.390 . S
C910 H901 0.930 . S
C910 C908 1.384 . S
C910 C911 1.372 . S
C911 C910 1.372 . S
C911 C912 1.400 . S
C911 C916 1.490 . S
C912 H902 0.930 . S
C912 C911 1.400 . S
C912 C915 1.386 . S
H913 C929 0.930 . S
H914 C930 0.931 . S
C915 H903 0.929 . S
C915 C909 1.390 . S
C915 C912 1.386 . S
C916 C911 1.490 . S
C916 C918 1.395 . S
C916 C919 1.403 . S
H917 C923 0.930 . S
C918 H904 0.930 . S
C918 C916 1.395 . S
C918 C921 1.403 . S
C919 C916 1.403 . S
C919 C920 1.524 . S
C919 C923 1.400 . S
C920 H905 0.960 . S
C920 H906 0.960 . S
C920 H907 0.960 . S
C920 C919 1.524 . S
C921 C918 1.403 . S
C921 C922 1.392 . S
C921 C925 1.495 . S
C922 C921 1.392 . S
C922 C923 1.385 . S
C922 C924 1.478 . S
C923 H917 0.930 . S
C923 C919 1.400 . S
C923 C922 1.385 . S
C924 C922 1.478 . S
C924 C926 1.381 . S
C924 C930 1.383 . S
C925 C921 1.495 . S
C925 H931 0.959 . S
C925 H932 0.961 . S
C925 H933 0.960 . S
C926 C924 1.381 . S
C926 C927 1.394 . S
C926 H934 0.930 . S
C927 C926 1.394 . S
C927 C928 1.383 . S
C927 H935 0.929 . S
C928 C927 1.383 . S
C928 C929 1.377 . S
C929 H913 0.930 . S
C929 C928 1.377 . S
C929 C930 1.379 . S
C930 H914 0.931 . S
C930 C924 1.383 . S
C930 C929 1.379 . S
H931 C925 0.959 . S
H932 C925 0.961 . S
H933 C925 0.960 . S
H934 C926 0.930 . S
H935 C927 0.929 . S
H936 C944 0.923 1_455 S
H937 C946 0.906 1_455 S
H938 C948 0.930 . S
H939 C951 0.929 . S
H940 C954 0.930 . S
H941 C956 0.960 . S
H942 C956 0.960 . S
H943 C956 0.960 . S
C944 H936 0.923 1_655 S
C944 C945 1.377 . S
C944 C946 1.397 . S
C945 C944 1.377 . S
C945 C951 1.390 . S
C946 H937 0.906 1_655 S
C946 C944 1.397 . S
C946 C947 1.384 . S
C947 C946 1.384 . S
C947 C948 1.400 . S
C947 C952 1.490 . S
C948 H938 0.930 . S
C948 C947 1.400 . S
C948 C951 1.386 . S
H949 C965 0.930 . S
H950 C966 0.931 1_655 S
C951 H939 0.929 . S
C951 C945 1.390 . S
C951 C948 1.386 . S
C952 C947 1.490 . S
C952 C954 1.395 1_655 S
C952 C955 1.403 . S
H953 C959 0.930 . S
C954 H940 0.930 . S
C954 C952 1.395 1_455 S
C954 C957 1.403 . S
C955 C952 1.403 . S
C955 C956 1.524 . S
C955 C959 1.400 . S
C956 H941 0.960 . S
C956 H942 0.960 . S
C956 H943 0.960 . S
C956 C955 1.524 . S
C957 C954 1.403 . S
C957 C958 1.392 . S
C957 C961 1.495 . S
C958 C957 1.392 . S
C958 C959 1.385 1_455 S
C958 C960 1.478 . S
C959 H953 0.930 . S
C959 C955 1.400 . S
C959 C958 1.385 1_655 S
C960 C958 1.478 . S
C960 C962 1.381 . S
C960 C966 1.383 . S
C961 C957 1.495 . S
C961 H967 0.959 . S
C961 H968 0.961 . S
C961 H969 0.960 . S
C962 C960 1.381 . S
C962 C963 1.394 . S
C962 H970 0.930 . S
C963 C962 1.394 . S
C963 C964 1.383 . S
C963 H971 0.929 . S
C964 C963 1.383 . S
C964 C965 1.377 . S
C965 H949 0.930 . S
C965 C964 1.377 . S
C965 C966 1.379 . S
C966 H950 0.931 1_455 S
C966 C960 1.383 . S
C966 C965 1.379 . S
H967 C961 0.959 . S
H968 C961 0.961 . S
H969 C961 0.960 . S
H970 C962 0.930 . S
H971 C963 0.929 . S
H972 C980 0.929 . S
H973 C982 0.930 . S
H974 C984 0.930 . S
H975 C987 0.929 . S
H976 C990 0.930 . S
H977 C992 0.960 . S
H978 C992 0.960 . S
H979 C992 0.960 . S
C980 H972 0.929 . S
C980 C981 1.377 . S
C980 C982 1.384 . S
C981 C980 1.377 . S
C981 C987 1.390 . S
C982 H973 0.930 . S
C982 C980 1.384 . S
C982 C983 1.372 . S
C983 C982 1.372 . S
C983 C984 1.400 . S
C983 C988 1.490 . S
C984 H974 0.930 . S
C984 C983 1.400 . S
C984 C987 1.386 . S
H985 C1001 0.930 . S
H986 C1002 0.931 . S
C987 H975 0.929 . S
C987 C981 1.390 . S
C987 C984 1.386 . S
C988 C983 1.490 . S
C988 C990 1.395 1_565 S
C988 C991 1.403 . S
H989 C995 0.930 . S
C990 H976 0.930 . S
C990 C988 1.395 1_545 S
C990 C993 1.403 . S
C991 C988 1.403 . S
C991 C992 1.524 . S
C991 C995 1.400 . S
C992 H977 0.960 . S
C992 H978 0.960 . S
C992 H979 0.960 . S
C992 C991 1.524 . S
C993 C990 1.403 . S
C993 C994 1.392 . S
C993 C997 1.495 . S
C994 C993 1.392 . S
C994 C995 1.385 1_545 S
C994 C996 1.478 . S
C995 H989 0.930 . S
C995 C991 1.400 . S
C995 C994 1.385 1_565 S
C996 C994 1.478 . S
C996 C998 1.381 . S
C996 C1002 1.383 . S
C997 C993 1.495 . S
C997 H1003 0.959 . S
C997 H1004 0.961 . S
C997 H1005 0.960 . S
C998 C996 1.381 . S
C998 C999 1.394 . S
C998 H1006 0.930 . S
C999 C998 1.394 . S
C999 C1000 1.383 . S
C999 H1007 0.929 . S
C1000 C999 1.383 . S
C1000 C1001 1.377 . S
C1001 H985 0.930 . S
C1001 C1000 1.377 . S
C1001 C1002 1.379 . S
C1002 H986 0.931 . S
C1002 C996 1.383 . S
C1002 C1001 1.379 . S
H1003 C997 0.959 . S
H1004 C997 0.961 . S
H1005 C997 0.960 . S
H1006 C998 0.930 . S
H1007 C999 0.929 . S
H1008 C1016 0.929 . S
H1009 C1018 0.930 . S
H1010 C1020 0.930 . S
H1011 C1023 0.929 . S
H1012 C1026 0.930 . S
H1013 C1028 0.960 . S
H1014 C1028 0.960 . S
H1015 C1028 0.960 . S
C1016 H1008 0.929 . S
C1016 C1017 1.377 . S
C1016 C1018 1.384 . S
C1017 C1016 1.377 . S
C1017 C1023 1.390 . S
C1018 H1009 0.930 . S
C1018 C1016 1.384 . S
C1018 C1019 1.372 . S
C1019 C1018 1.372 . S
C1019 C1020 1.400 . S
C1019 C1024 1.490 . S
C1020 H1010 0.930 . S
C1020 C1019 1.400 . S
C1020 C1023 1.386 . S
H1021 C1037 0.930 . S
H1022 C1038 0.931 . S
C1023 H1011 0.929 . S
C1023 C1017 1.390 . S
C1023 C1020 1.386 . S
C1024 C1019 1.490 . S
C1024 C1026 1.395 . S
C1024 C1027 1.403 . S
H1025 C1031 0.930 . S
C1026 H1012 0.930 . S
C1026 C1024 1.395 . S
C1026 C1029 1.403 . S
C1027 C1024 1.403 . S
C1027 C1028 1.524 . S
C1027 C1031 1.400 . S
C1028 H1013 0.960 . S
C1028 H1014 0.960 . S
C1028 H1015 0.960 . S
C1028 C1027 1.524 . S
C1029 C1026 1.403 . S
C1029 C1030 1.392 . S
C1029 C1033 1.495 . S
C1030 C1029 1.392 . S
C1030 C1031 1.385 . S
C1030 C1032 1.478 . S
C1031 H1025 0.930 . S
C1031 C1027 1.400 . S
C1031 C1030 1.385 . S
C1032 C1030 1.478 . S
C1032 C1034 1.381 . S
C1032 C1038 1.383 . S
C1033 C1029 1.495 . S
C1033 H1039 0.959 . S
C1033 H1040 0.961 . S
C1033 H1041 0.960 . S
C1034 C1032 1.381 . S
C1034 C1035 1.394 . S
C1034 H1042 0.930 . S
C1035 C1034 1.394 . S
C1035 C1036 1.383 . S
C1035 H1043 0.929 . S
C1036 C1035 1.383 . S
C1036 C1037 1.377 . S
C1037 H1021 0.930 . S
C1037 C1036 1.377 . S
C1037 C1038 1.379 . S
C1038 H1022 0.931 . S
C1038 C1032 1.383 . S
C1038 C1037 1.379 . S
H1039 C1033 0.959 . S
H1040 C1033 0.961 . S
H1041 C1033 0.960 . S
H1042 C1034 0.930 . S
H1043 C1035 0.929 . S
H1044 C1052 0.929 . S
H1045 C1054 0.930 . S
H1046 C1056 0.930 . S
H1047 C1059 0.929 . S
H1048 C1062 0.930 . S
H1049 C1064 0.960 . S
H1050 C1064 0.960 . S
H1051 C1064 0.960 1_556 S
C1052 H1044 0.929 . S
C1052 C1053 1.377 . S
C1052 C1054 1.384 . S
C1053 C1052 1.377 . S
C1053 C1059 1.390 . S
C1054 H1045 0.930 . S
C1054 C1052 1.384 . S
C1054 C1055 1.372 . S
C1055 C1054 1.372 . S
C1055 C1056 1.400 . S
C1055 C1060 1.490 . S
C1056 H1046 0.930 . S
C1056 C1055 1.400 . S
C1056 C1059 1.386 . S
H1057 C1073 0.930 . S
H1058 C1074 0.931 . S
C1059 H1047 0.929 . S
C1059 C1053 1.390 . S
C1059 C1056 1.386 . S
C1060 C1055 1.490 . S
C1060 C1062 1.395 . S
C1060 C1063 1.403 . S
H1061 C1067 0.930 1_554 S
C1062 H1048 0.930 . S
C1062 C1060 1.395 . S
C1062 C1065 1.403 . S
C1063 C1060 1.403 . S
C1063 C1064 1.524 1_556 S
C1063 C1067 1.400 . S
C1064 H1049 0.960 . S
C1064 H1050 0.960 . S
C1064 H1051 0.960 1_554 S
C1064 C1063 1.524 1_554 S
C1065 C1062 1.403 . S
C1065 C1066 1.392 . S
C1065 C1069 1.495 . S
C1066 C1065 1.392 . S
C1066 C1067 1.385 . S
C1066 C1068 1.478 . S
C1067 H1061 0.930 1_556 S
C1067 C1063 1.400 . S
C1067 C1066 1.385 . S
C1068 C1066 1.478 . S
C1068 C1070 1.381 . S
C1068 C1074 1.383 . S
C1069 C1065 1.495 . S
C1069 H1075 0.959 . S
C1069 H1076 0.961 . S
C1069 H1077 0.960 . S
C1070 C1068 1.381 . S
C1070 C1071 1.394 1_556 S
C1070 H1078 0.930 . S
C1071 C1070 1.394 1_554 S
C1071 C1072 1.383 . S
C1071 H1079 0.929 . S
C1072 C1071 1.383 . S
C1072 C1073 1.377 . S
C1073 H1057 0.930 . S
C1073 C1072 1.377 . S
C1073 C1074 1.379 1_554 S
C1074 H1058 0.931 . S
C1074 C1068 1.383 . S
C1074 C1073 1.379 1_556 S
H1075 C1069 0.959 . S
H1076 C1069 0.961 . S
H1077 C1069 0.960 . S
H1078 C1070 0.930 . S
H1079 C1071 0.929 . S
H1080 C1088 0.929 . S
H1081 C1090 0.930 . S
H1082 C1092 0.930 . S
H1083 C1095 0.929 . S
H1084 C1098 0.930 . S
H1085 C1100 0.960 . S
H1086 C1100 0.960 . S
H1087 C1100 0.960 . S
C1088 H1080 0.929 . S
C1088 C1089 1.377 . S
C1088 C1090 1.384 . S
C1089 C1088 1.377 . S
C1089 C1095 1.390 . S
C1090 H1081 0.930 . S
C1090 C1088 1.384 . S
C1090 C1091 1.372 . S
C1091 C1090 1.372 . S
C1091 C1092 1.400 . S
C1091 C1096 1.490 . S
C1092 H1082 0.930 . S
C1092 C1091 1.400 . S
C1092 C1095 1.386 . S
H1093 C1109 0.930 . S
H1094 C1110 0.931 . S
C1095 H1083 0.929 . S
C1095 C1089 1.390 . S
C1095 C1092 1.386 . S
C1096 C1091 1.490 . S
C1096 C1098 1.395 . S
C1096 C1099 1.403 . S
H1097 C1103 0.930 . S
C1098 H1084 0.930 . S
C1098 C1096 1.395 . S
C1098 C1101 1.403 . S
C1099 C1096 1.403 . S
C1099 C1100 1.524 . S
C1099 C1103 1.400 . S
C1100 H1085 0.960 . S
C1100 H1086 0.960 . S
C1100 H1087 0.960 . S
C1100 C1099 1.524 . S
C1101 C1098 1.403 . S
C1101 C1102 1.392 . S
C1101 C1105 1.495 . S
C1102 C1101 1.392 . S
C1102 C1103 1.385 . S
C1102 C1104 1.478 . S
C1103 H1097 0.930 . S
C1103 C1099 1.400 . S
C1103 C1102 1.385 . S
C1104 C1102 1.478 . S
C1104 C1106 1.381 . S
C1104 C1110 1.383 . S
C1105 C1101 1.495 . S
C1105 H1111 0.959 . S
C1105 H1112 0.961 . S
C1105 H1113 0.960 . S
C1106 C1104 1.381 . S
C1106 C1107 1.394 . S
C1106 H1114 0.930 . S
C1107 C1106 1.394 . S
C1107 C1108 1.383 . S
C1107 H1115 0.929 . S
C1108 C1107 1.383 . S
C1108 C1109 1.377 . S
C1109 H1093 0.930 . S
C1109 C1108 1.377 . S
C1109 C1110 1.379 . S
C1110 H1094 0.931 . S
C1110 C1104 1.383 . S
C1110 C1109 1.379 . S
H1111 C1105 0.959 . S
H1112 C1105 0.961 . S
H1113 C1105 0.960 . S
H1114 C1106 0.930 . S
H1115 C1107 0.929 . S
H1116 C1124 0.929 . S
H1117 C1126 0.930 . S
H1118 C1128 0.930 . S
H1119 C1131 0.929 . S
H1120 C1134 0.930 . S
H1121 C1136 0.960 . S
H1122 C1136 0.960 . S
H1123 C1136 0.960 . S
C1124 H1116 0.929 . S
C1124 C1125 1.377 . S
C1124 C1126 1.384 . S
C1125 C1124 1.377 . S
C1125 C1131 1.390 . S
C1126 H1117 0.930 . S
C1126 C1124 1.384 . S
C1126 C1127 1.372 . S
C1127 C1126 1.372 . S
C1127 C1128 1.400 . S
C1127 C1132 1.490 . S
C1128 H1118 0.930 . S
C1128 C1127 1.400 . S
C1128 C1131 1.386 . S
H1129 C1145 0.930 . S
H1130 C1146 0.931 . S
C1131 H1119 0.929 . S
C1131 C1125 1.390 . S
C1131 C1128 1.386 . S
C1132 C1127 1.490 . S
C1132 C1134 1.395 . S
C1132 C1135 1.403 . S
H1133 C1139 0.930 . S
C1134 H1120 0.930 . S
C1134 C1132 1.395 . S
C1134 C1137 1.403 . S
C1135 C1132 1.403 . S
C1135 C1136 1.524 . S
C1135 C1139 1.400 . S
C1136 H1121 0.960 . S
C1136 H1122 0.960 . S
C1136 H1123 0.960 . S
C1136 C1135 1.524 . S
C1137 C1134 1.403 . S
C1137 C1138 1.392 . S
C1137 C1141 1.495 . S
C1138 C1137 1.392 . S
C1138 C1139 1.385 . S
C1138 C1140 1.478 . S
C1139 H1133 0.930 . S
C1139 C1135 1.400 . S
C1139 C1138 1.385 . S
C1140 C1138 1.478 . S
C1140 C1142 1.381 . S
C1140 C1146 1.383 . S
C1141 C1137 1.495 . S
C1141 H1147 0.959 . S
C1141 H1148 0.961 . S
C1141 H1149 0.960 . S
C1142 C1140 1.381 . S
C1142 C1143 1.394 . S
C1142 H1150 0.930 . S
C1143 C1142 1.394 . S
C1143 C1144 1.383 . S
C1143 H1151 0.929 . S
C1144 C1143 1.383 . S
C1144 C1145 1.377 . S
C1145 H1129 0.930 . S
C1145 C1144 1.377 . S
C1145 C1146 1.379 . S
C1146 H1130 0.931 . S
C1146 C1140 1.383 . S
C1146 C1145 1.379 . S
H1147 C1141 0.959 . S
H1148 C1141 0.961 . S
H1149 C1141 0.960 . S
H1150 C1142 0.930 . S
H1151 C1143 0.929 . S
H1152 C1160 0.929 . S
H1153 C1162 0.930 . S
H1154 C1164 0.930 . S
H1155 C1167 0.929 . S
H1156 C1170 0.930 . S
H1157 C1172 0.960 . S
H1158 C1172 0.960 . S
H1159 C1172 0.960 . S
C1160 H1152 0.929 . S
C1160 C1161 1.377 . S
C1160 C1162 1.384 . S
C1161 C1160 1.377 . S
C1161 C1167 1.390 . S
C1162 H1153 0.930 . S
C1162 C1160 1.384 . S
C1162 C1163 1.372 . S
C1163 C1162 1.372 . S
C1163 C1164 1.400 . S
C1163 C1168 1.490 . S
C1164 H1154 0.930 . S
C1164 C1163 1.400 . S
C1164 C1167 1.386 . S
H1165 C1181 0.930 . S
H1166 C1182 0.931 . S
C1167 H1155 0.929 . S
C1167 C1161 1.390 . S
C1167 C1164 1.386 . S
C1168 C1163 1.490 . S
C1168 C1170 1.395 . S
C1168 C1171 1.403 . S
H1169 C1175 0.930 . S
C1170 H1156 0.930 . S
C1170 C1168 1.395 . S
C1170 C1173 1.403 . S
C1171 C1168 1.403 . S
C1171 C1172 1.524 . S
C1171 C1175 1.400 . S
C1172 H1157 0.960 . S
C1172 H1158 0.960 . S
C1172 H1159 0.960 . S
C1172 C1171 1.524 . S
C1173 C1170 1.403 . S
C1173 C1174 1.392 . S
C1173 C1177 1.495 . S
C1174 C1173 1.392 . S
C1174 C1175 1.385 . S
C1174 C1176 1.478 . S
C1175 H1169 0.930 . S
C1175 C1171 1.400 . S
C1175 C1174 1.385 . S
C1176 C1174 1.478 . S
C1176 C1178 1.381 . S
C1176 C1182 1.383 . S
C1177 C1173 1.495 . S
C1177 H1183 0.959 . S
C1177 H1184 0.961 . S
C1177 H1185 0.960 . S
C1178 C1176 1.381 . S
C1178 C1179 1.394 . S
C1178 H1186 0.930 . S
C1179 C1178 1.394 . S
C1179 C1180 1.383 . S
C1179 H1187 0.929 . S
C1180 C1179 1.383 . S
C1180 C1181 1.377 . S
C1181 H1165 0.930 . S
C1181 C1180 1.377 . S
C1181 C1182 1.379 . S
C1182 H1166 0.931 . S
C1182 C1176 1.383 . S
C1182 C1181 1.379 . S
H1183 C1177 0.959 . S
H1184 C1177 0.961 . S
H1185 C1177 0.960 . S
H1186 C1178 0.930 . S
H1187 C1179 0.929 . S
H1188 C1196 0.929 . S
H1189 C1198 0.930 . S
H1190 C1200 0.930 . S
H1191 C1203 0.929 . S
H1192 C1206 0.930 . S
H1193 C1208 0.960 . S
H1194 C1208 0.960 . S
H1195 C1208 0.960 . S
C1196 H1188 0.929 . S
C1196 C1197 1.377 . S
C1196 C1198 1.384 . S
C1197 C1196 1.377 . S
C1197 C1203 1.390 . S
C1198 H1189 0.930 . S
C1198 C1196 1.384 . S
C1198 C1199 1.372 . S
C1199 C1198 1.372 . S
C1199 C1200 1.400 . S
C1199 C1204 1.490 . S
C1200 H1190 0.930 . S
C1200 C1199 1.400 . S
C1200 C1203 1.386 . S
H1201 C1217 0.930 1_655 S
H1202 C1218 0.931 . S
C1203 H1191 0.929 . S
C1203 C1197 1.390 . S
C1203 C1200 1.386 . S
C1204 C1199 1.490 . S
C1204 C1206 1.395 . S
C1204 C1207 1.403 . S
H1205 C1211 0.930 . S
C1206 H1192 0.930 . S
C1206 C1204 1.395 . S
C1206 C1209 1.403 . S
C1207 C1204 1.403 . S
C1207 C1208 1.524 . S
C1207 C1211 1.400 . S
C1208 H1193 0.960 . S
C1208 H1194 0.960 . S
C1208 H1195 0.960 . S
C1208 C1207 1.524 . S
C1209 C1206 1.403 . S
C1209 C1210 1.392 . S
C1209 C1213 1.495 . S
C1210 C1209 1.392 . S
C1210 C1211 1.385 . S
C1210 C1212 1.478 . S
C1211 H1205 0.930 . S
C1211 C1207 1.400 . S
C1211 C1210 1.385 . S
C1212 C1210 1.478 . S
C1212 C1214 1.381 . S
C1212 C1218 1.383 . S
C1213 C1209 1.495 . S
C1213 H1219 0.959 . S
C1213 H1220 0.961 . S
C1213 H1221 0.960 . S
C1214 C1212 1.381 . S
C1214 C1215 1.394 . S
C1214 H1222 0.930 . S
C1215 C1214 1.394 . S
C1215 C1216 1.383 . S
C1215 H1223 0.929 . S
C1216 C1215 1.383 . S
C1216 C1217 1.377 . S
C1217 H1201 0.930 1_455 S
C1217 C1216 1.377 . S
C1217 C1218 1.379 . S
C1218 H1202 0.931 . S
C1218 C1212 1.383 . S
C1218 C1217 1.379 . S
H1219 C1213 0.959 . S
H1220 C1213 0.961 . S
H1221 C1213 0.960 . S
H1222 C1214 0.930 . S
H1223 C1215 0.929 . S
H1224 C1232 0.929 . S
H1225 C1234 0.930 . S
H1226 C1236 0.930 . S
H1227 C1239 0.929 . S
H1228 C1242 0.930 . S
H1229 C1244 0.960 . S
H1230 C1244 0.960 . S
H1231 C1244 0.960 . S
C1232 H1224 0.929 . S
C1232 C1233 1.377 . S
C1232 C1234 1.384 . S
C1233 C1232 1.377 . S
C1233 C1239 1.390 . S
C1234 H1225 0.930 . S
C1234 C1232 1.384 . S
C1234 C1235 1.372 . S
C1235 C1234 1.372 . S
C1235 C1236 1.400 . S
C1235 C1240 1.490 . S
C1236 H1226 0.930 . S
C1236 C1235 1.400 . S
C1236 C1239 1.386 . S
H1237 C1253 0.918 1_565 S
H1238 C1254 0.931 . S
C1239 H1227 0.929 . S
C1239 C1233 1.390 . S
C1239 C1236 1.386 . S
C1240 C1235 1.490 . S
C1240 C1242 1.395 . S
C1240 C1243 1.403 . S
H1241 C1247 0.930 . S
C1242 H1228 0.930 . S
C1242 C1240 1.395 . S
C1242 C1245 1.403 . S
C1243 C1240 1.403 . S
C1243 C1244 1.524 . S
C1243 C1247 1.400 . S
C1244 H1229 0.960 . S
C1244 H1230 0.960 . S
C1244 H1231 0.960 . S
C1244 C1243 1.524 . S
C1245 C1242 1.403 . S
C1245 C1246 1.392 . S
C1245 C1249 1.495 . S
C1246 C1245 1.392 . S
C1246 C1247 1.385 . S
C1246 C1248 1.478 . S
C1247 H1241 0.930 . S
C1247 C1243 1.400 . S
C1247 C1246 1.385 . S
C1248 C1246 1.478 . S
C1248 C1250 1.381 . S
C1248 C1254 1.383 . S
C1249 C1245 1.495 . S
C1249 H1255 0.959 . S
C1249 H1256 0.961 . S
C1249 H1257 0.960 . S
C1250 C1248 1.381 . S
C1250 C1251 1.394 . S
C1250 H1258 0.930 . S
C1251 C1250 1.394 . S
C1251 C1252 1.383 . S
C1251 H1259 0.929 . S
C1252 C1251 1.383 . S
C1252 C1253 1.377 . S
C1253 H1237 0.918 1_545 S
C1253 C1252 1.377 . S
C1253 C1254 1.379 . S
C1254 H1238 0.931 . S
C1254 C1248 1.383 . S
C1254 C1253 1.379 . S
H1255 C1249 0.959 . S
H1256 C1249 0.961 . S
H1257 C1249 0.960 . S
H1258 C1250 0.930 . S
H1259 C1251 0.929 . S
H1260 C1268 0.929 . S
H1261 C1270 0.930 . S
H1262 C1272 0.930 . S
H1263 C1275 0.929 . S
H1264 C1278 0.930 . S
H1265 C1280 0.960 . S
H1266 C1280 0.960 . S
H1267 C1280 0.960 . S
C1268 H1260 0.929 . S
C1268 C1269 1.377 . S
C1268 C1270 1.384 . S
C1269 C1268 1.377 . S
C1269 C1275 1.390 . S
C1270 H1261 0.930 . S
C1270 C1268 1.384 . S
C1270 C1271 1.372 . S
C1271 C1270 1.372 . S
C1271 C1272 1.400 . S
C1271 C1276 1.490 . S
C1272 H1262 0.930 . S
C1272 C1271 1.400 . S
C1272 C1275 1.386 . S
H1273 C1289 0.930 . S
H1274 C1290 0.931 . S
C1275 H1263 0.929 . S
C1275 C1269 1.390 . S
C1275 C1272 1.386 . S
C1276 C1271 1.490 . S
C1276 C1278 1.395 . S
C1276 C1279 1.403 . S
H1277 C1283 0.930 . S
C1278 H1264 0.930 . S
C1278 C1276 1.395 . S
C1278 C1281 1.403 . S
C1279 C1276 1.403 . S
C1279 C1280 1.524 . S
C1279 C1283 1.400 . S
C1280 H1265 0.960 . S
C1280 H1266 0.960 . S
C1280 H1267 0.960 . S
C1280 C1279 1.524 . S
C1281 C1278 1.403 . S
C1281 C1282 1.392 . S
C1281 C1285 1.495 . S
C1282 C1281 1.392 . S
C1282 C1283 1.385 . S
C1282 C1284 1.478 . S
C1283 H1277 0.930 . S
C1283 C1279 1.400 . S
C1283 C1282 1.385 . S
C1284 C1282 1.478 . S
C1284 C1286 1.381 . S
C1284 C1290 1.383 . S
C1285 C1281 1.495 . S
C1285 H1291 0.959 . S
C1285 H1292 0.961 . S
C1285 H1293 0.960 . S
C1286 C1284 1.381 . S
C1286 C1287 1.394 . S
C1286 H1294 0.930 . S
C1287 C1286 1.394 . S
C1287 C1288 1.383 . S
C1287 H1295 0.929 . S
C1288 C1287 1.383 . S
C1288 C1289 1.377 . S
C1289 H1273 0.930 . S
C1289 C1288 1.377 . S
C1289 C1290 1.379 . S
C1290 H1274 0.931 . S
C1290 C1284 1.383 . S
C1290 C1289 1.379 . S
H1291 C1285 0.959 . S
H1292 C1285 0.961 . S
H1293 C1285 0.960 . S
H1294 C1286 0.930 . S
H1295 C1287 0.929 . S
H1296 C1304 0.929 . S
H1297 C1306 0.930 . S
H1298 C1308 0.930 . S
H1299 C1311 0.929 . S
H1300 C1314 0.930 . S
H1301 C1316 0.960 . S
H1302 C1316 0.960 . S
H1303 C1316 0.960 . S
C1304 H1296 0.929 . S
C1304 C1305 1.377 1_554 S
C1304 C1306 1.384 . S
C1305 C1304 1.377 1_556 S
C1305 C1311 1.390 . S
C1306 H1297 0.930 . S
C1306 C1304 1.384 . S
C1306 C1307 1.372 . S
C1307 C1306 1.372 . S
C1307 C1308 1.400 1_554 S
C1307 C1312 1.490 . S
C1308 H1298 0.930 . S
C1308 C1307 1.400 1_556 S
C1308 C1311 1.386 . S
H1309 C1325 0.930 1_455 S
H1310 C1326 0.931 . S
C1311 H1299 0.929 . S
C1311 C1305 1.390 . S
C1311 C1308 1.386 . S
C1312 C1307 1.490 . S
C1312 C1314 1.395 . S
C1312 C1315 1.403 . S
H1313 C1319 0.930 . S
C1314 H1300 0.930 . S
C1314 C1312 1.395 . S
C1314 C1317 1.403 . S
C1315 C1312 1.403 . S
C1315 C1316 1.524 . S
C1315 C1319 1.400 . S
C1316 H1301 0.960 . S
C1316 H1302 0.960 . S
C1316 H1303 0.960 . S
C1316 C1315 1.524 . S
C1317 C1314 1.403 . S
C1317 C1318 1.392 . S
C1317 C1321 1.495 . S
C1318 C1317 1.392 . S
C1318 C1319 1.385 . S
C1318 C1320 1.478 . S
C1319 H1313 0.930 . S
C1319 C1315 1.400 . S
C1319 C1318 1.385 . S
C1320 C1318 1.478 . S
C1320 C1322 1.381 . S
C1320 C1326 1.383 . S
C1321 C1317 1.495 . S
C1321 H1327 0.959 . S
C1321 H1328 0.961 . S
C1321 H1329 0.960 . S
C1322 C1320 1.381 . S
C1322 C1323 1.394 . S
C1322 H1330 0.930 . S
C1323 C1322 1.394 . S
C1323 C1324 1.383 . S
C1323 H1331 0.929 . S
C1324 C1323 1.383 . S
C1324 C1325 1.377 . S
C1325 H1309 0.930 1_655 S
C1325 C1324 1.377 . S
C1325 C1326 1.379 . S
C1326 H1310 0.931 . S
C1326 C1320 1.383 . S
C1326 C1325 1.379 . S
H1327 C1321 0.959 . S
H1328 C1321 0.961 . S
H1329 C1321 0.960 . S
H1330 C1322 0.930 . S
H1331 C1323 0.929 . S
H1332 C1340 0.929 . S
H1333 C1342 0.930 . S
H1334 C1344 0.930 . S
H1335 C1347 0.929 . S
H1336 C1350 0.930 . S
H1337 C1352 0.960 . S
H1338 C1352 0.960 . S
H1339 C1352 0.960 . S
C1340 H1332 0.929 . S
C1340 C1341 1.377 . S
C1340 C1342 1.384 . S
C1341 C1340 1.377 . S
C1341 C1347 1.390 . S
C1342 H1333 0.930 . S
C1342 C1340 1.384 . S
C1342 C1343 1.372 . S
C1343 C1342 1.372 . S
C1343 C1344 1.400 . S
C1343 C1348 1.490 . S
C1344 H1334 0.930 . S
C1344 C1343 1.400 . S
C1344 C1347 1.386 . S
H1345 C1361 0.930 . S
H1346 C1362 0.931 . S
C1347 H1335 0.929 . S
C1347 C1341 1.390 . S
C1347 C1344 1.386 . S
C1348 C1343 1.490 . S
C1348 C1350 1.395 . S
C1348 C1351 1.403 . S
H1349 C1355 0.930 . S
C1350 H1336 0.930 . S
C1350 C1348 1.395 . S
C1350 C1353 1.403 . S
C1351 C1348 1.403 . S
C1351 C1352 1.524 . S
C1351 C1355 1.400 . S
C1352 H1337 0.960 . S
C1352 H1338 0.960 . S
C1352 H1339 0.960 . S
C1352 C1351 1.524 . S
C1353 C1350 1.403 . S
C1353 C1354 1.392 . S
C1353 C1357 1.495 . S
C1354 C1353 1.392 . S
C1354 C1355 1.385 . S
C1354 C1356 1.478 . S
C1355 H1349 0.930 . S
C1355 C1351 1.400 . S
C1355 C1354 1.385 . S
C1356 C1354 1.478 . S
C1356 C1358 1.381 . S
C1356 C1362 1.383 . S
C1357 C1353 1.495 . S
C1357 H1363 0.959 . S
C1357 H1364 0.961 . S
C1357 H1365 0.960 . S
C1358 C1356 1.381 . S
C1358 C1359 1.394 . S
C1358 H1366 0.930 . S
C1359 C1358 1.394 . S
C1359 C1360 1.383 . S
C1359 H1367 0.929 1_565 S
C1360 C1359 1.383 . S
C1360 C1361 1.377 . S
C1361 H1345 0.930 . S
C1361 C1360 1.377 . S
C1361 C1362 1.379 . S
C1362 H1346 0.931 . S
C1362 C1356 1.383 . S
C1362 C1361 1.379 . S
H1363 C1357 0.959 . S
H1364 C1357 0.961 . S
H1365 C1357 0.960 . S
H1366 C1358 0.930 . S
H1367 C1359 0.929 1_545 S
H1368 C1376 0.929 . S
H1369 C1378 0.930 . S
H1370 C1380 0.930 . S
H1371 C1383 0.929 . S
H1372 C1386 0.930 . S
H1373 C1388 0.960 . S
H1374 C1388 0.960 . S
H1375 C1388 0.960 . S
C1376 H1368 0.929 . S
C1376 C1377 1.377 . S
C1376 C1378 1.384 . S
C1377 C1376 1.377 . S
C1377 C1383 1.390 . S
C1378 H1369 0.930 . S
C1378 C1376 1.384 . S
C1378 C1379 1.372 . S
C1379 C1378 1.372 . S
C1379 C1380 1.400 . S
C1379 C1384 1.490 . S
C1380 H1370 0.930 . S
C1380 C1379 1.400 . S
C1380 C1383 1.386 . S
H1381 C1397 0.930 . S
H1382 C1398 0.931 . S
C1383 H1371 0.929 . S
C1383 C1377 1.390 . S
C1383 C1380 1.386 . S
C1384 C1379 1.490 . S
C1384 C1386 1.395 . S
C1384 C1387 1.403 . S
H1385 C1391 0.930 . S
C1386 H1372 0.930 . S
C1386 C1384 1.395 . S
C1386 C1389 1.403 . S
C1387 C1384 1.403 . S
C1387 C1388 1.524 . S
C1387 C1391 1.400 . S
C1388 H1373 0.960 . S
C1388 H1374 0.960 . S
C1388 H1375 0.960 . S
C1388 C1387 1.524 . S
C1389 C1386 1.403 . S
C1389 C1390 1.392 . S
C1389 C1393 1.495 . S
C1390 C1389 1.392 . S
C1390 C1391 1.385 . S
C1390 C1392 1.478 . S
C1391 H1385 0.930 . S
C1391 C1387 1.400 . S
C1391 C1390 1.385 . S
C1392 C1390 1.478 . S
C1392 C1394 1.381 . S
C1392 C1398 1.383 . S
C1393 C1389 1.495 . S
C1393 H1399 0.959 . S
C1393 H1400 0.961 . S
C1393 H1401 0.960 . S
C1394 C1392 1.381 . S
C1394 C1395 1.394 . S
C1394 H1402 0.930 . S
C1395 C1394 1.394 . S
C1395 C1396 1.383 . S
C1395 H1403 0.929 . S
C1396 C1395 1.383 . S
C1396 C1397 1.377 . S
C1397 H1381 0.930 . S
C1397 C1396 1.377 . S
C1397 C1398 1.379 . S
C1398 H1382 0.931 . S
C1398 C1392 1.383 . S
C1398 C1397 1.379 . S
H1399 C1393 0.959 . S
H1400 C1393 0.961 . S
H1401 C1393 0.960 . S
H1402 C1394 0.930 . S
H1403 C1395 0.929 . S
H1404 C1412 0.929 . S
H1405 C1414 0.930 . S
H1406 C1416 0.930 . S
H1407 C1419 0.929 . S
H1408 C1422 0.930 . S
H1409 C1424 0.960 . S
H1410 C1424 0.960 . S
H1411 C1424 0.960 . S
C1412 H1404 0.929 . S
C1412 C1413 1.377 . S
C1412 C1414 1.384 . S
C1413 C1412 1.377 . S
C1413 C1419 1.390 . S
C1414 H1405 0.930 . S
C1414 C1412 1.384 . S
C1414 C1415 1.372 . S
C1415 C1414 1.372 . S
C1415 C1416 1.400 . S
C1415 C1420 1.490 . S
C1416 H1406 0.930 . S
C1416 C1415 1.400 . S
C1416 C1419 1.386 . S
H1417 C1433 0.930 . S
H1418 C1434 0.931 . S
C1419 H1407 0.929 . S
C1419 C1413 1.390 . S
C1419 C1416 1.386 . S
C1420 C1415 1.490 . S
C1420 C1422 1.395 . S
C1420 C1423 1.403 . S
H1421 C1427 0.930 . S
C1422 H1408 0.930 . S
C1422 C1420 1.395 . S
C1422 C1425 1.403 . S
C1423 C1420 1.403 . S
C1423 C1424 1.524 . S
C1423 C1427 1.400 . S
C1424 H1409 0.960 . S
C1424 H1410 0.960 . S
C1424 H1411 0.960 . S
C1424 C1423 1.524 . S
C1425 C1422 1.403 . S
C1425 C1426 1.392 . S
C1425 C1429 1.495 . S
C1426 C1425 1.392 . S
C1426 C1427 1.385 . S
C1426 C1428 1.478 . S
C1427 H1421 0.930 . S
C1427 C1423 1.400 . S
C1427 C1426 1.385 . S
C1428 C1426 1.478 . S
C1428 C1430 1.381 . S
C1428 C1434 1.383 . S
C1429 C1425 1.495 . S
C1429 H1435 0.959 . S
C1429 H1436 0.961 . S
C1429 H1437 0.960 . S
C1430 C1428 1.381 . S
C1430 C1431 1.394 . S
C1430 H1438 0.930 . S
C1431 C1430 1.394 . S
C1431 C1432 1.383 . S
C1431 H1439 0.929 . S
C1432 C1431 1.383 . S
C1432 C1433 1.377 . S
C1433 H1417 0.930 . S
C1433 C1432 1.377 . S
C1433 C1434 1.379 . S
C1434 H1418 0.931 . S
C1434 C1428 1.383 . S
C1434 C1433 1.379 . S
H1435 C1429 0.959 . S
H1436 C1429 0.961 . S
H1437 C1429 0.960 . S
H1438 C1430 0.930 . S
H1439 C1431 0.929 . S
H1440 C1448 0.929 . S
H1441 C1450 0.930 . S
H1442 C1452 0.930 . S
H1443 C1455 0.929 . S
H1444 C1458 0.930 . S
H1445 C1460 0.960 . S
H1446 C1460 0.960 . S
H1447 C1460 0.960 . S
C1448 H1440 0.929 . S
C1448 C1449 1.377 . S
C1448 C1450 1.384 . S
C1449 C1448 1.377 . S
C1449 C1455 1.390 . S
C1450 H1441 0.930 . S
C1450 C1448 1.384 . S
C1450 C1451 1.372 . S
C1451 C1450 1.372 . S
C1451 C1452 1.400 . S
C1451 C1456 1.490 . S
C1452 H1442 0.930 . S
C1452 C1451 1.400 . S
C1452 C1455 1.386 . S
H1453 C1469 0.930 . S
H1454 C1470 0.931 . S
C1455 H1443 0.929 . S
C1455 C1449 1.390 . S
C1455 C1452 1.386 . S
C1456 C1451 1.490 . S
C1456 C1458 1.395 . S
C1456 C1459 1.403 . S
H1457 C1463 0.930 . S
C1458 H1444 0.930 . S
C1458 C1456 1.395 . S
C1458 C1461 1.403 . S
C1459 C1456 1.403 . S
C1459 C1460 1.524 . S
C1459 C1463 1.400 . S
C1460 H1445 0.960 . S
C1460 H1446 0.960 . S
C1460 H1447 0.960 . S
C1460 C1459 1.524 . S
C1461 C1458 1.403 . S
C1461 C1462 1.392 . S
C1461 C1465 1.495 . S
C1462 C1461 1.392 . S
C1462 C1463 1.385 . S
C1462 C1464 1.478 . S
C1463 H1457 0.930 . S
C1463 C1459 1.400 . S
C1463 C1462 1.385 . S
C1464 C1462 1.478 . S
C1464 C1466 1.381 . S
C1464 C1470 1.383 . S
C1465 C1461 1.495 . S
C1465 H1471 0.959 . S
C1465 H1472 0.961 . S
C1465 H1473 0.960 . S
C1466 C1464 1.381 . S
C1466 C1467 1.394 . S
C1466 H1474 0.930 . S
C1467 C1466 1.394 . S
C1467 C1468 1.383 . S
C1467 H1475 0.929 1_545 S
C1468 C1467 1.383 . S
C1468 C1469 1.377 . S
C1469 H1453 0.930 . S
C1469 C1468 1.377 . S
C1469 C1470 1.379 . S
C1470 H1454 0.931 . S
C1470 C1464 1.383 . S
C1470 C1469 1.379 . S
H1471 C1465 0.959 . S
H1472 C1465 0.961 . S
H1473 C1465 0.960 . S
H1474 C1466 0.930 . S
H1475 C1467 0.929 1_565 S
C405 N343 1.001 . S
C424 N13 0.990 . S
C441 N46 0.998 . S
C460 N376 0.973 . S
C477 N79 1.010 . S
C496 N211 1.031 . S
C513 N112 1.002 . S
C532 N244 0.994 . S
C549 N145 1.004 . S
C568 N277 1.002 . S
C585 N178 1.004 . S
C604 N310 1.004 . S
C621 C21 1.423 . S
C640 C285 1.419 . S
C657 C318 1.421 . S
C676 C54 1.425 . S
C693 C87 1.424 . S
C712 C351 1.412 . S
C729 C120 1.422 . S
C748 C384 1.423 . S
C765 C153 1.422 . S
C784 C219 1.416 . S
C801 C186 1.422 . S
C820 C252 1.419 . S
C837 N365 1.166 . S
C856 N2 1.174 . S
C873 N200 1.163 . S
C892 N35 1.158 . S
C909 N233 1.152 . S
C928 N68 1.121 . S
C945 N101 1.158 . S
C964 N266 1.136 . S
C981 N134 1.152 . S
C1000 N299 1.117 . S
C1017 N332 1.168 . S
C1036 N167 1.198 . S
C1053 C172 1.993 . S
C1072 C18 1.999 . S
C1089 C7 1.994 1_655 S
C1108 C51 1.998 . S
C1125 C84 2.004 . S
C1144 C40 1.992 1_565 S
C1161 C73 1.996 . S
C1180 C117 2.001 . S
C1197 C150 2.003 . S
C1216 C106 1.982 1_455 S
C1233 C183 2.003 . S
C1252 C139 1.984 1_545 S
C1269 C238 1.993 . S
C1288 C216 1.996 . S
C1305 C249 2.003 . S
C1324 C271 1.983 1_655 S
C1341 C282 2.004 . S
C1360 C304 1.996 1_565 S
C1377 C337 1.996 . S
C1396 C315 2.002 . S
C1413 C370 1.994 1_455 S
C1432 C348 2.001 . S
C1449 C381 2.004 . S
C1468 C205 1.998 1_545 S
