# Generated by pormake.
# Topology rho, (4)-cn, num edge types: 1
# Building blocks:
#     Node 0, Type 0, BuildingBlock: KUFVIS_clean_sbu_0, # of connection points: 4
#     Node 1, Type 0, BuildingBlock: KUFVIS_clean_sbu_0, # of connection points: 4
#     Node 2, Type 0, BuildingBlock: KUFVIS_clean_sbu_0, # of connection points: 4
#     Node 3, Type 0, BuildingBlock: KUFVIS_clean_sbu_0, # of connection points: 4
#     Node 4, Type 0, BuildingBlock: KUFVIS_clean_sbu_0, # of connection points: 4
#     Node 5, Type 0, BuildingBlock: KUFVIS_clean_sbu_0, # of connection points: 4
#     Node 6, Type 0, BuildingBlock: KUFVIS_clean_sbu_0, # of connection points: 4
#     Node 7, Type 0, BuildingBlock: KUFVIS_clean_sbu_0, # of connection points: 4
#     Node 8, Type 0, BuildingBlock: KUFVIS_clean_sbu_0, # of connection points: 4
#     Node 9, Type 0, BuildingBlock: KUFVIS_clean_sbu_0, # of connection points: 4
#     Node 10, Type 0, BuildingBlock: KUFVIS_clean_sbu_0, # of connection points: 4
#     Node 11, Type 0, BuildingBlock: KUFVIS_clean_sbu_0, # of connection points: 4
#     Node 12, Type 0, BuildingBlock: KUFVIS_clean_sbu_0, # of connection points: 4
#     Node 13, Type 0, BuildingBlock: KUFVIS_clean_sbu_0, # of connection points: 4
#     Node 14, Type 0, BuildingBlock: KUFVIS_clean_sbu_0, # of connection points: 4
#     Node 15, Type 0, BuildingBlock: KUFVIS_clean_sbu_0, # of connection points: 4
#     Node 16, Type 0, BuildingBlock: KUFVIS_clean_sbu_0, # of connection points: 4
#     Node 17, Type 0, BuildingBlock: KUFVIS_clean_sbu_0, # of connection points: 4
#     Node 18, Type 0, BuildingBlock: KUFVIS_clean_sbu_0, # of connection points: 4
#     Node 19, Type 0, BuildingBlock: KUFVIS_clean_sbu_0, # of connection points: 4
#     Node 20, Type 0, BuildingBlock: KUFVIS_clean_sbu_0, # of connection points: 4
#     Node 21, Type 0, BuildingBlock: KUFVIS_clean_sbu_0, # of connection points: 4
#     Node 22, Type 0, BuildingBlock: KUFVIS_clean_sbu_0, # of connection points: 4
#     Node 23, Type 0, BuildingBlock: KUFVIS_clean_sbu_0, # of connection points: 4
#     Node 24, Type 0, BuildingBlock: KUFVIS_clean_sbu_0, # of connection points: 4
#     Node 25, Type 0, BuildingBlock: KUFVIS_clean_sbu_0, # of connection points: 4
#     Node 26, Type 0, BuildingBlock: KUFVIS_clean_sbu_0, # of connection points: 4
#     Node 27, Type 0, BuildingBlock: KUFVIS_clean_sbu_0, # of connection points: 4
#     Node 28, Type 0, BuildingBlock: KUFVIS_clean_sbu_0, # of connection points: 4
#     Node 29, Type 0, BuildingBlock: KUFVIS_clean_sbu_0, # of connection points: 4
#     Node 30, Type 0, BuildingBlock: KUFVIS_clean_sbu_0, # of connection points: 4
#     Node 31, Type 0, BuildingBlock: KUFVIS_clean_sbu_0, # of connection points: 4
#     Node 32, Type 0, BuildingBlock: KUFVIS_clean_sbu_0, # of connection points: 4
#     Node 33, Type 0, BuildingBlock: KUFVIS_clean_sbu_0, # of connection points: 4
#     Node 34, Type 0, BuildingBlock: KUFVIS_clean_sbu_0, # of connection points: 4
#     Node 35, Type 0, BuildingBlock: KUFVIS_clean_sbu_0, # of connection points: 4
#     Node 36, Type 0, BuildingBlock: KUFVIS_clean_sbu_0, # of connection points: 4
#     Node 37, Type 0, BuildingBlock: KUFVIS_clean_sbu_0, # of connection points: 4
#     Node 38, Type 0, BuildingBlock: KUFVIS_clean_sbu_0, # of connection points: 4
#     Node 39, Type 0, BuildingBlock: KUFVIS_clean_sbu_0, # of connection points: 4
#     Node 40, Type 0, BuildingBlock: KUFVIS_clean_sbu_0, # of connection points: 4
#     Node 41, Type 0, BuildingBlock: KUFVIS_clean_sbu_0, # of connection points: 4
#     Node 42, Type 0, BuildingBlock: KUFVIS_clean_sbu_0, # of connection points: 4
#     Node 43, Type 0, BuildingBlock: KUFVIS_clean_sbu_0, # of connection points: 4
#     Node 44, Type 0, BuildingBlock: KUFVIS_clean_sbu_0, # of connection points: 4
#     Node 45, Type 0, BuildingBlock: KUFVIS_clean_sbu_0, # of connection points: 4
#     Node 46, Type 0, BuildingBlock: KUFVIS_clean_sbu_0, # of connection points: 4
#     Node 47, Type 0, BuildingBlock: KUFVIS_clean_sbu_0, # of connection points: 4
#     Edge 48, Type (0, 0), BuildingBlock: KIFKEQ_clean_linker_1, # of connection points: 2
#     Edge 49, Type (0, 0), BuildingBlock: KIFKEQ_clean_linker_1, # of connection points: 2
#     Edge 50, Type (0, 0), BuildingBlock: KIFKEQ_clean_linker_1, # of connection points: 2
#     Edge 51, Type (0, 0), BuildingBlock: KIFKEQ_clean_linker_1, # of connection points: 2
#     Edge 52, Type (0, 0), BuildingBlock: KIFKEQ_clean_linker_1, # of connection points: 2
#     Edge 53, Type (0, 0), BuildingBlock: KIFKEQ_clean_linker_1, # of connection points: 2
#     Edge 54, Type (0, 0), BuildingBlock: KIFKEQ_clean_linker_1, # of connection points: 2
#     Edge 55, Type (0, 0), BuildingBlock: KIFKEQ_clean_linker_1, # of connection points: 2
#     Edge 56, Type (0, 0), BuildingBlock: KIFKEQ_clean_linker_1, # of connection points: 2
#     Edge 57, Type (0, 0), BuildingBlock: KIFKEQ_clean_linker_1, # of connection points: 2
#     Edge 58, Type (0, 0), BuildingBlock: KIFKEQ_clean_linker_1, # of connection points: 2
#     Edge 59, Type (0, 0), BuildingBlock: KIFKEQ_clean_linker_1, # of connection points: 2
#     Edge 60, Type (0, 0), BuildingBlock: KIFKEQ_clean_linker_1, # of connection points: 2
#     Edge 61, Type (0, 0), BuildingBlock: KIFKEQ_clean_linker_1, # of connection points: 2
#     Edge 62, Type (0, 0), BuildingBlock: KIFKEQ_clean_linker_1, # of connection points: 2
#     Edge 63, Type (0, 0), BuildingBlock: KIFKEQ_clean_linker_1, # of connection points: 2
#     Edge 64, Type (0, 0), BuildingBlock: KIFKEQ_clean_linker_1, # of connection points: 2
#     Edge 65, Type (0, 0), BuildingBlock: KIFKEQ_clean_linker_1, # of connection points: 2
#     Edge 66, Type (0, 0), BuildingBlock: KIFKEQ_clean_linker_1, # of connection points: 2
#     Edge 67, Type (0, 0), BuildingBlock: KIFKEQ_clean_linker_1, # of connection points: 2
#     Edge 68, Type (0, 0), BuildingBlock: KIFKEQ_clean_linker_1, # of connection points: 2
#     Edge 69, Type (0, 0), BuildingBlock: KIFKEQ_clean_linker_1, # of connection points: 2
#     Edge 70, Type (0, 0), BuildingBlock: KIFKEQ_clean_linker_1, # of connection points: 2
#     Edge 71, Type (0, 0), BuildingBlock: KIFKEQ_clean_linker_1, # of connection points: 2
#     Edge 72, Type (0, 0), BuildingBlock: KIFKEQ_clean_linker_1, # of connection points: 2
#     Edge 73, Type (0, 0), BuildingBlock: KIFKEQ_clean_linker_1, # of connection points: 2
#     Edge 74, Type (0, 0), BuildingBlock: KIFKEQ_clean_linker_1, # of connection points: 2
#     Edge 75, Type (0, 0), BuildingBlock: KIFKEQ_clean_linker_1, # of connection points: 2
#     Edge 76, Type (0, 0), BuildingBlock: KIFKEQ_clean_linker_1, # of connection points: 2
#     Edge 77, Type (0, 0), BuildingBlock: KIFKEQ_clean_linker_1, # of connection points: 2
#     Edge 78, Type (0, 0), BuildingBlock: KIFKEQ_clean_linker_1, # of connection points: 2
#     Edge 79, Type (0, 0), BuildingBlock: KIFKEQ_clean_linker_1, # of connection points: 2
#     Edge 80, Type (0, 0), BuildingBlock: KIFKEQ_clean_linker_1, # of connection points: 2
#     Edge 81, Type (0, 0), BuildingBlock: KIFKEQ_clean_linker_1, # of connection points: 2
#     Edge 82, Type (0, 0), BuildingBlock: KIFKEQ_clean_linker_1, # of connection points: 2
#     Edge 83, Type (0, 0), BuildingBlock: KIFKEQ_clean_linker_1, # of connection points: 2
#     Edge 84, Type (0, 0), BuildingBlock: KIFKEQ_clean_linker_1, # of connection points: 2
#     Edge 85, Type (0, 0), BuildingBlock: KIFKEQ_clean_linker_1, # of connection points: 2
#     Edge 86, Type (0, 0), BuildingBlock: KIFKEQ_clean_linker_1, # of connection points: 2
#     Edge 87, Type (0, 0), BuildingBlock: KIFKEQ_clean_linker_1, # of connection points: 2
#     Edge 88, Type (0, 0), BuildingBlock: KIFKEQ_clean_linker_1, # of connection points: 2
#     Edge 89, Type (0, 0), BuildingBlock: KIFKEQ_clean_linker_1, # of connection points: 2
#     Edge 90, Type (0, 0), BuildingBlock: KIFKEQ_clean_linker_1, # of connection points: 2
#     Edge 91, Type (0, 0), BuildingBlock: KIFKEQ_clean_linker_1, # of connection points: 2
#     Edge 92, Type (0, 0), BuildingBlock: KIFKEQ_clean_linker_1, # of connection points: 2
#     Edge 93, Type (0, 0), BuildingBlock: KIFKEQ_clean_linker_1, # of connection points: 2
#     Edge 94, Type (0, 0), BuildingBlock: KIFKEQ_clean_linker_1, # of connection points: 2
#     Edge 95, Type (0, 0), BuildingBlock: KIFKEQ_clean_linker_1, # of connection points: 2
#     Edge 96, Type (0, 0), BuildingBlock: KIFKEQ_clean_linker_1, # of connection points: 2
#     Edge 97, Type (0, 0), BuildingBlock: KIFKEQ_clean_linker_1, # of connection points: 2
#     Edge 98, Type (0, 0), BuildingBlock: KIFKEQ_clean_linker_1, # of connection points: 2
#     Edge 99, Type (0, 0), BuildingBlock: KIFKEQ_clean_linker_1, # of connection points: 2
#     Edge 100, Type (0, 0), BuildingBlock: KIFKEQ_clean_linker_1, # of connection points: 2
#     Edge 101, Type (0, 0), BuildingBlock: KIFKEQ_clean_linker_1, # of connection points: 2
#     Edge 102, Type (0, 0), BuildingBlock: KIFKEQ_clean_linker_1, # of connection points: 2
#     Edge 103, Type (0, 0), BuildingBlock: KIFKEQ_clean_linker_1, # of connection points: 2
#     Edge 104, Type (0, 0), BuildingBlock: KIFKEQ_clean_linker_1, # of connection points: 2
#     Edge 105, Type (0, 0), BuildingBlock: KIFKEQ_clean_linker_1, # of connection points: 2
#     Edge 106, Type (0, 0), BuildingBlock: KIFKEQ_clean_linker_1, # of connection points: 2
#     Edge 107, Type (0, 0), BuildingBlock: KIFKEQ_clean_linker_1, # of connection points: 2
#     Edge 108, Type (0, 0), BuildingBlock: KIFKEQ_clean_linker_1, # of connection points: 2
#     Edge 109, Type (0, 0), BuildingBlock: KIFKEQ_clean_linker_1, # of connection points: 2
#     Edge 110, Type (0, 0), BuildingBlock: KIFKEQ_clean_linker_1, # of connection points: 2
#     Edge 111, Type (0, 0), BuildingBlock: KIFKEQ_clean_linker_1, # of connection points: 2
#     Edge 112, Type (0, 0), BuildingBlock: KIFKEQ_clean_linker_1, # of connection points: 2
#     Edge 113, Type (0, 0), BuildingBlock: KIFKEQ_clean_linker_1, # of connection points: 2
#     Edge 114, Type (0, 0), BuildingBlock: KIFKEQ_clean_linker_1, # of connection points: 2
#     Edge 115, Type (0, 0), BuildingBlock: KIFKEQ_clean_linker_1, # of connection points: 2
#     Edge 116, Type (0, 0), BuildingBlock: KIFKEQ_clean_linker_1, # of connection points: 2
#     Edge 117, Type (0, 0), BuildingBlock: KIFKEQ_clean_linker_1, # of connection points: 2
#     Edge 118, Type (0, 0), BuildingBlock: KIFKEQ_clean_linker_1, # of connection points: 2
#     Edge 119, Type (0, 0), BuildingBlock: KIFKEQ_clean_linker_1, # of connection points: 2
#     Edge 120, Type (0, 0), BuildingBlock: KIFKEQ_clean_linker_1, # of connection points: 2
#     Edge 121, Type (0, 0), BuildingBlock: KIFKEQ_clean_linker_1, # of connection points: 2
#     Edge 122, Type (0, 0), BuildingBlock: KIFKEQ_clean_linker_1, # of connection points: 2
#     Edge 123, Type (0, 0), BuildingBlock: KIFKEQ_clean_linker_1, # of connection points: 2
#     Edge 124, Type (0, 0), BuildingBlock: KIFKEQ_clean_linker_1, # of connection points: 2
#     Edge 125, Type (0, 0), BuildingBlock: KIFKEQ_clean_linker_1, # of connection points: 2
#     Edge 126, Type (0, 0), BuildingBlock: KIFKEQ_clean_linker_1, # of connection points: 2
#     Edge 127, Type (0, 0), BuildingBlock: KIFKEQ_clean_linker_1, # of connection points: 2
#     Edge 128, Type (0, 0), BuildingBlock: KIFKEQ_clean_linker_1, # of connection points: 2
#     Edge 129, Type (0, 0), BuildingBlock: KIFKEQ_clean_linker_1, # of connection points: 2
#     Edge 130, Type (0, 0), BuildingBlock: KIFKEQ_clean_linker_1, # of connection points: 2
#     Edge 131, Type (0, 0), BuildingBlock: KIFKEQ_clean_linker_1, # of connection points: 2
#     Edge 132, Type (0, 0), BuildingBlock: KIFKEQ_clean_linker_1, # of connection points: 2
#     Edge 133, Type (0, 0), BuildingBlock: KIFKEQ_clean_linker_1, # of connection points: 2
#     Edge 134, Type (0, 0), BuildingBlock: KIFKEQ_clean_linker_1, # of connection points: 2
#     Edge 135, Type (0, 0), BuildingBlock: KIFKEQ_clean_linker_1, # of connection points: 2
#     Edge 136, Type (0, 0), BuildingBlock: KIFKEQ_clean_linker_1, # of connection points: 2
#     Edge 137, Type (0, 0), BuildingBlock: KIFKEQ_clean_linker_1, # of connection points: 2
#     Edge 138, Type (0, 0), BuildingBlock: KIFKEQ_clean_linker_1, # of connection points: 2
#     Edge 139, Type (0, 0), BuildingBlock: KIFKEQ_clean_linker_1, # of connection points: 2
#     Edge 140, Type (0, 0), BuildingBlock: KIFKEQ_clean_linker_1, # of connection points: 2
#     Edge 141, Type (0, 0), BuildingBlock: KIFKEQ_clean_linker_1, # of connection points: 2
#     Edge 142, Type (0, 0), BuildingBlock: KIFKEQ_clean_linker_1, # of connection points: 2
#     Edge 143, Type (0, 0), BuildingBlock: KIFKEQ_clean_linker_1, # of connection points: 2
# Relax obj value: 0.095
# Max RMSD: 0.121
# Mean RMSD: 0.116
data_MOF--net-rho--node1-KUFVIS_clean_sbu_0--edge1-KIFKEQ_clean_linker_1
_symmetry_space_group_name_H-M    P1
_symmetry_Int_Tables_number       1
_symmetry_cell_setting            triclinic
loop_
_symmetry_equiv_pos_as_xyz
'x, y, z'
_cell_length_a     72.800133
_cell_length_b     72.404664
_cell_length_c     72.669637
_cell_angle_alpha  90.130288
_cell_angle_beta   90.155908
_cell_angle_gamma 90.651864
loop_
_atom_site_label
_atom_site_type_symbol
_atom_site_fract_x
_atom_site_fract_y
_atom_site_fract_z
_atom_type_partial_charge
Mn0 Mn 0.10411 0.24742 0.39498 0.0
Mn1 Mn 0.09197 0.2896 0.40999 0.0
C2 C 0.09936 0.25214 0.42624 0.0
C3 C 0.12784 0.22752 0.3869 0.0
C4 C 0.06543 0.26246 0.39157 0.0
O5 O 0.10918 0.26394 0.37281 0.0
O6 O 0.10462 0.29171 0.38595 0.0
C7 C 0.12859 0.3068 0.41599 0.0
N8 N 0.11161 0.30214 0.42238 0.0
C9 C 0.11611 0.3203 0.44978 0.0
C10 C 0.13366 0.32538 0.4435 0.0
C11 C 0.14 0.31843 0.42663 0.0
C12 C 0.10561 0.30826 0.43884 0.0
H13 H 0.13328 0.3018 0.40283 0.0
C14 C 0.10968 0.28153 0.37254 0.0
O15 O 0.11126 0.22492 0.38062 0.0
O16 O 0.13055 0.24178 0.39737 0.0
N17 N 0.07963 0.29012 0.43314 0.0
C18 C 0.0629 0.28288 0.43771 0.0
C19 C 0.05486 0.2878 0.45453 0.0
C20 C 0.06385 0.3005 0.46621 0.0
C21 C 0.08107 0.30774 0.46121 0.0
C22 C 0.0886 0.30197 0.4445 0.0
H23 H 0.05566 0.27361 0.42849 0.0
O24 O 0.09931 0.23565 0.41924 0.0
O25 O 0.10297 0.26553 0.41483 0.0
O26 O 0.07628 0.24879 0.39006 0.0
O27 O 0.07051 0.27818 0.39786 0.0
C28 C 0.09099 0.32063 0.47201 0.0
C29 C 0.10855 0.32681 0.46636 0.0
H30 H 0.14237 0.33459 0.45153 0.0
H31 H 0.15353 0.32226 0.42169 0.0
H32 H 0.04158 0.28214 0.4583 0.0
H33 H 0.0574 0.30456 0.47898 0.0
H34 H 0.0854 0.32563 0.48487 0.0
H35 H 0.11621 0.3364 0.47499 0.0
Mn36 Mn 0.74836 0.09541 0.39429 0.0
Mn37 Mn 0.7883 0.07397 0.40381 0.0
C38 C 0.74919 0.06342 0.39535 0.0
C39 C 0.72826 0.10829 0.37286 0.0
C40 C 0.76453 0.0917 0.43314 0.0
O41 O 0.76736 0.11604 0.3908 0.0
O42 O 0.79303 0.09976 0.39575 0.0
C43 C 0.80325 0.07317 0.36598 0.0
N44 N 0.79825 0.0641 0.38162 0.0
C45 C 0.80801 0.03502 0.36916 0.0
C46 C 0.81337 0.04406 0.35296 0.0
C47 C 0.81092 0.06321 0.35135 0.0
C48 C 0.80041 0.04567 0.38326 0.0
H49 H 0.8014 0.08789 0.36471 0.0
C50 C 0.78482 0.11474 0.39157 0.0
O51 O 0.72757 0.11271 0.39018 0.0
O52 O 0.74098 0.09692 0.36794 0.0
N53 N 0.78625 0.04885 0.41175 0.0
C54 C 0.77995 0.04216 0.4281 0.0
C55 C 0.78111 0.02317 0.43178 0.0
C56 C 0.78903 0.01132 0.41876 0.0
C57 C 0.7958 0.01859 0.40221 0.0
C58 C 0.79428 0.03763 0.39932 0.0
H59 H 0.77397 0.05121 0.43821 0.0
O60 O 0.7338 0.07208 0.39692 0.0
O61 O 0.76375 0.07368 0.39266 0.0
O62 O 0.75166 0.09708 0.42246 0.0
O63 O 0.77877 0.08329 0.4274 0.0
C64 C 0.80376 0.00766 0.38836 0.0
C65 C 0.80977 0.01585 0.37181 0.0
H66 H 0.81929 0.03643 0.34164 0.0
H67 H 0.81496 0.07028 0.33886 0.0
H68 H 0.77592 0.01768 0.44461 0.0
H69 H 0.78978 0.99667 0.42159 0.0
H70 H 0.80517 0.9929 0.39022 0.0
H71 H 0.81566 0.00726 0.36117 0.0
Mn72 Mn 0.89519 0.74623 0.40029 0.0
Mn73 Mn 0.9102 0.70607 0.41813 0.0
C74 C 0.90024 0.74372 0.43184 0.0
C75 C 0.87104 0.76523 0.3911 0.0
C76 C 0.93506 0.73359 0.39856 0.0
O77 O 0.89037 0.72787 0.37926 0.0
O78 O 0.89888 0.70195 0.39376 0.0
C79 C 0.87461 0.68659 0.42314 0.0
N80 N 0.89092 0.69279 0.43013 0.0
C81 C 0.88654 0.67552 0.45801 0.0
C82 C 0.86965 0.66894 0.45116 0.0
C83 C 0.86357 0.67466 0.43372 0.0
C84 C 0.89662 0.68784 0.44709 0.0
H85 H 0.87019 0.69056 0.40952 0.0
C86 C 0.8922 0.71037 0.37987 0.0
O87 O 0.88752 0.7675 0.3846 0.0
O88 O 0.86853 0.75156 0.40235 0.0
N89 N 0.92158 0.70744 0.4418 0.0
C90 C 0.93775 0.71579 0.44667 0.0
C91 C 0.94558 0.71191 0.46388 0.0
C92 C 0.937 0.6991 0.47563 0.0
C93 C 0.92034 0.69071 0.47032 0.0
C94 C 0.91297 0.69547 0.45321 0.0
H95 H 0.94474 0.72509 0.43737 0.0
O96 O 0.89975 0.75971 0.42386 0.0
O97 O 0.89725 0.72948 0.42125 0.0
O98 O 0.92304 0.74586 0.39528 0.0
O99 O 0.93132 0.71833 0.4065 0.0
C100 C 0.91089 0.67759 0.48115 0.0
C101 C 0.89391 0.67015 0.47509 0.0
H102 H 0.86128 0.65946 0.45914 0.0
H103 H 0.85058 0.66962 0.42832 0.0
H104 H 0.95843 0.71844 0.4679 0.0
H105 H 0.94337 0.69578 0.48869 0.0
H106 H 0.91641 0.67331 0.4943 0.0
H107 H 0.88659 0.66038 0.48373 0.0
Mn108 Mn 0.25535 0.90492 0.39334 0.0
Mn109 Mn 0.21702 0.92687 0.40692 0.0
C110 C 0.25598 0.93663 0.39765 0.0
C111 C 0.27341 0.89399 0.36909 0.0
C112 C 0.24079 0.90418 0.43266 0.0
O113 O 0.23501 0.88567 0.38879 0.0
O114 O 0.21031 0.90298 0.39526 0.0
C115 C 0.20069 0.93447 0.37043 0.0
N116 N 0.20704 0.94069 0.38698 0.0
C117 C 0.19915 0.97199 0.37957 0.0
C118 C 0.19243 0.96591 0.36247 0.0
C119 C 0.19326 0.94708 0.35786 0.0
C120 C 0.20641 0.95879 0.39152 0.0
H121 H 0.20129 0.92 0.36686 0.0
C122 C 0.21765 0.88797 0.3897 0.0
O123 O 0.27502 0.88729 0.3856 0.0
O124 O 0.26087 0.90628 0.36667 0.0
N125 N 0.22145 0.95029 0.41845 0.0
C126 C 0.22927 0.95399 0.43513 0.0
C127 C 0.23 0.97228 0.4416 0.0
C128 C 0.22247 0.98652 0.43097 0.0
C129 C 0.21424 0.98233 0.41398 0.0
C130 C 0.21391 0.96385 0.40825 0.0
H131 H 0.23498 0.94309 0.4434 0.0
O132 O 0.27111 0.92736 0.39756 0.0
O133 O 0.24098 0.92712 0.3949 0.0
O134 O 0.25364 0.90044 0.42133 0.0
O135 O 0.22649 0.91332 0.42838 0.0
C136 C 0.20657 0.99578 0.40239 0.0
C137 C 0.19912 0.99064 0.38515 0.0
H138 H 0.18671 0.9756 0.35273 0.0
H139 H 0.18816 0.9423 0.34466 0.0
H140 H 0.23635 0.97539 0.45474 0.0
H141 H 0.22315 1.00062 0.43596 0.0
H142 H 0.20654 0.01017 0.4065 0.0
H143 H 0.19353 0.00116 0.37624 0.0
Mn144 Mn 0.09738 0.74988 0.60957 0.0
Mn145 Mn 0.07504 0.78891 0.59855 0.0
C146 C 0.06568 0.74919 0.60606 0.0
C147 C 0.10878 0.73092 0.63305 0.0
C148 C 0.09636 0.76602 0.5707 0.0
O149 O 0.11676 0.77007 0.61419 0.0
O150 O 0.09942 0.79522 0.60947 0.0
C151 C 0.06923 0.80334 0.6362 0.0
N152 N 0.06228 0.79798 0.61959 0.0
C153 C 0.03154 0.80532 0.62896 0.0
C154 C 0.03839 0.8111 0.64611 0.0
C155 C 0.05731 0.81004 0.64976 0.0
C156 C 0.04408 0.79877 0.61599 0.0
H157 H 0.08375 0.80246 0.63907 0.0
C158 C 0.11451 0.78754 0.61411 0.0
O159 O 0.11507 0.72975 0.61635 0.0
O160 O 0.09668 0.7435 0.63605 0.0
N161 N 0.05121 0.78517 0.58789 0.0
C162 C 0.04673 0.77834 0.57095 0.0
C163 C 0.02825 0.77796 0.56533 0.0
C164 C 0.01462 0.78484 0.57707 0.0
C165 C 0.0196 0.7921 0.59429 0.0
C166 C 0.03824 0.79216 0.59913 0.0
H167 H 0.05715 0.77312 0.56183 0.0
O168 O 0.07503 0.73409 0.60536 0.0
O169 O 0.07511 0.76422 0.60926 0.0
O170 O 0.10098 0.75286 0.58148 0.0
O171 O 0.08736 0.78012 0.57608 0.0
C172 C 0.00679 0.79905 0.60696 0.0
C173 C 0.01273 0.80556 0.62432 0.0
H174 H 0.02923 0.81624 0.65663 0.0
H175 H 0.06269 0.81436 0.66301 0.0
H176 H 0.02452 0.77237 0.552 0.0
H177 H 1.00037 0.78439 0.57274 0.0
H178 H 0.99229 0.79924 0.60358 0.0
H179 H 0.00271 0.8106 0.63405 0.0
Mn180 Mn 0.25143 0.11194 0.6013 0.0
Mn181 Mn 0.29496 0.1038 0.58792 0.0
C182 C 0.25832 0.11033 0.57017 0.0
C183 C 0.22954 0.13332 0.6107 0.0
C184 C 0.26863 0.07355 0.60088 0.0
O185 O 0.26603 0.11561 0.62506 0.0
O186 O 0.29456 0.1126 0.61374 0.0
C187 C 0.30781 0.14271 0.58909 0.0
N188 N 0.30578 0.12647 0.57978 0.0
C189 C 0.32292 0.13824 0.55407 0.0
C190 C 0.32542 0.15503 0.56345 0.0
C191 C 0.31764 0.15735 0.58096 0.0
C192 C 0.31245 0.12439 0.56262 0.0
H193 H 0.30199 0.14445 0.60261 0.0
C194 C 0.28344 0.11613 0.6268 0.0
O195 O 0.22773 0.11589 0.61464 0.0
O196 O 0.24405 0.13823 0.60157 0.0
N197 N 0.29841 0.09533 0.56324 0.0
C198 C 0.29513 0.07813 0.55624 0.0
C199 C 0.30207 0.07349 0.53885 0.0
C200 C 0.31298 0.08629 0.52919 0.0
C201 C 0.31655 0.10376 0.53684 0.0
C202 C 0.30884 0.10778 0.55398 0.0
H203 H 0.28739 0.06796 0.56393 0.0
O204 O 0.24151 0.10896 0.57583 0.0
O205 O 0.27062 0.11367 0.5828 0.0
O206 O 0.25469 0.08388 0.60336 0.0
O207 O 0.28435 0.07971 0.59569 0.0
C208 C 0.3279 0.11717 0.52838 0.0
C209 C 0.33072 0.13454 0.53677 0.0
H210 H 0.33331 0.16621 0.55736 0.0
H211 H 0.31941 0.17029 0.58826 0.0
H212 H 0.29939 0.05992 0.53309 0.0
H213 H 0.31871 0.08248 0.51599 0.0
H214 H 0.33446 0.1143 0.51534 0.0
H215 H 0.33918 0.14484 0.52995 0.0
Mn216 Mn 0.90206 0.25284 0.60684 0.0
Mn217 Mn 0.92356 0.21295 0.59703 0.0
C218 C 0.93373 0.25277 0.60359 0.0
C219 C 0.89057 0.27294 0.62922 0.0
C220 C 0.9031 0.2356 0.56838 0.0
O221 O 0.88224 0.23327 0.61175 0.0
O222 O 0.89898 0.20758 0.60786 0.0
C223 C 0.92881 0.19973 0.63518 0.0
N224 N 0.93598 0.20429 0.61849 0.0
C225 C 0.96648 0.19661 0.6285 0.0
C226 C 0.95939 0.19161 0.64573 0.0
C227 C 0.94048 0.19326 0.64911 0.0
C228 C 0.95417 0.20296 0.61516 0.0
H229 H 0.91431 0.2011 0.63786 0.0
C230 C 0.88408 0.21577 0.61218 0.0
O231 O 0.88466 0.27341 0.61232 0.0
O232 O 0.90245 0.26036 0.63313 0.0
N233 N 0.94754 0.2157 0.58656 0.0
C234 C 0.95227 0.22165 0.56942 0.0
C235 C 0.97077 0.22131 0.564 0.0
C236 C 0.98417 0.21461 0.57614 0.0
C237 C 0.97892 0.20819 0.59356 0.0
C238 C 0.96027 0.2088 0.59817 0.0
H239 H 0.94205 0.22674 0.55998 0.0
O240 O 0.92469 0.26803 0.60248 0.0
O241 O 0.92405 0.238 0.60716 0.0
O242 O 0.89871 0.24906 0.57888 0.0
O243 O 0.91163 0.22134 0.57411 0.0
C244 C 0.9915 0.20147 0.60663 0.0
C245 C 0.9853 0.19577 0.62412 0.0
H246 H 0.96836 0.18666 0.65652 0.0
H247 H 0.93493 0.18957 0.66242 0.0
H248 H 0.9747 0.22624 0.55051 0.0
H249 H 0.99844 0.21452 0.57198 0.0
H250 H 0.006 0.20083 0.60345 0.0
H251 H 0.99514 0.19087 0.63414 0.0
Mn252 Mn 0.74995 0.89254 0.60184 0.0
Mn253 Mn 0.70676 0.90009 0.58702 0.0
C254 C 0.74398 0.89409 0.57047 0.0
C255 C 0.77172 0.87148 0.61199 0.0
C256 C 0.73222 0.93054 0.60147 0.0
O257 O 0.73462 0.88863 0.625 0.0
O258 O 0.70639 0.8906 0.61256 0.0
C259 C 0.69417 0.86108 0.58647 0.0
N260 N 0.69642 0.87758 0.57776 0.0
C261 C 0.67988 0.8666 0.55119 0.0
C262 C 0.6772 0.84952 0.55991 0.0
C263 C 0.68458 0.84668 0.57755 0.0
C264 C 0.69012 0.88018 0.5605 0.0
H265 H 0.69963 0.85897 0.60011 0.0
C266 C 0.71719 0.88739 0.62602 0.0
O267 O 0.77323 0.88892 0.61604 0.0
O268 O 0.7576 0.86636 0.60226 0.0
N269 N 0.70417 0.90917 0.56248 0.0
C270 C 0.70792 0.92646 0.55602 0.0
C271 C 0.7015 0.93158 0.53855 0.0
C272 C 0.69066 0.91916 0.52823 0.0
C273 C 0.68668 0.90156 0.5353 0.0
C274 C 0.69392 0.89704 0.55254 0.0
H275 H 0.71562 0.93633 0.5642 0.0
O276 O 0.76059 0.8957 0.57674 0.0
O277 O 0.73136 0.89057 0.58265 0.0
O278 O 0.74634 0.92051 0.60397 0.0
O279 O 0.7167 0.92411 0.59591 0.0
C280 C 0.67553 0.88843 0.52606 0.0
C281 C 0.67249 0.87081 0.53379 0.0
H282 H 0.66948 0.83852 0.55322 0.0
H283 H 0.68264 0.83353 0.58436 0.0
H284 H 0.70455 0.94522 0.53322 0.0
H285 H 0.6854 0.9233 0.51492 0.0
H286 H 0.66942 0.89165 0.51286 0.0
H287 H 0.66424 0.86072 0.52636 0.0
Mn288 Mn 0.39468 0.10093 0.25534 0.0
Mn289 Mn 0.40613 0.0822 0.21437 0.0
C290 C 0.39476 0.06903 0.25192 0.0
C291 C 0.37284 0.11303 0.27528 0.0
C292 C 0.43435 0.09552 0.24197 0.0
O293 O 0.39297 0.12312 0.23827 0.0
O294 O 0.40182 0.10909 0.21229 0.0
C295 C 0.36968 0.08817 0.19731 0.0
N296 N 0.38367 0.07664 0.20174 0.0
C297 C 0.36764 0.05066 0.18839 0.0
C298 C 0.35319 0.0623 0.18345 0.0
C299 C 0.35421 0.08114 0.18796 0.0
C300 C 0.38279 0.05849 0.19755 0.0
H301 H 0.37023 0.10261 0.20097 0.0
C302 C 0.39676 0.12339 0.22118 0.0
O303 O 0.39021 0.11684 0.27727 0.0
O304 O 0.36815 0.10268 0.26143 0.0
N305 N 0.41056 0.05628 0.21336 0.0
C306 C 0.42552 0.04686 0.21935 0.0
C307 C 0.42648 0.02776 0.21622 0.0
C308 C 0.4122 0.01866 0.20671 0.0
C309 C 0.39731 0.02876 0.20001 0.0
C310 C 0.3972 0.04777 0.20338 0.0
H311 H 0.43648 0.05382 0.22669 0.0
O312 O 0.39579 0.07662 0.26805 0.0
O313 O 0.39316 0.08031 0.23802 0.0
O314 O 0.42294 0.10203 0.25358 0.0
O315 O 0.4297 0.08726 0.22706 0.0
C316 C 0.38216 0.02059 0.19089 0.0
C317 C 0.36738 0.03152 0.18501 0.0
H318 H 0.34116 0.05687 0.17638 0.0
H319 H 0.34304 0.0902 0.18436 0.0
H320 H 0.43803 0.02003 0.22137 0.0
H321 H 0.41258 0.00388 0.20508 0.0
H322 H 0.38142 0.00586 0.18877 0.0
H323 H 0.35576 0.02501 0.17816 0.0
Mn324 Mn 0.90183 0.39005 0.24942 0.0
Mn325 Mn 0.92296 0.40019 0.20927 0.0
C326 C 0.93341 0.39365 0.24889 0.0
C327 C 0.89008 0.36735 0.26923 0.0
C328 C 0.90339 0.42879 0.23265 0.0
O329 O 0.88179 0.38543 0.23029 0.0
O330 O 0.898 0.38972 0.20427 0.0
C331 C 0.92697 0.36191 0.19562 0.0
N332 N 0.93468 0.37852 0.20022 0.0
C333 C 0.96483 0.36798 0.19213 0.0
C334 C 0.9572 0.35081 0.18714 0.0
C335 C 0.93819 0.34775 0.18896 0.0
C336 C 0.95296 0.38156 0.1987 0.0
H337 H 0.91239 0.35949 0.19708 0.0
C338 C 0.8832 0.38542 0.2128 0.0
O339 O 0.88441 0.3843 0.27009 0.0
O340 O 0.90191 0.36363 0.25651 0.0
N341 N 0.94723 0.41044 0.21144 0.0
C342 C 0.95244 0.42773 0.21696 0.0
C343 C 0.97106 0.43296 0.21619 0.0
C344 C 0.98408 0.42049 0.20945 0.0
C345 C 0.97833 0.40296 0.20337 0.0
C346 C 0.95957 0.39856 0.20439 0.0
H347 H 0.9425 0.43742 0.22206 0.0
O348 O 0.92448 0.39434 0.26427 0.0
O349 O 0.92366 0.39001 0.23422 0.0
O350 O 0.8989 0.4181 0.24597 0.0
O351 O 0.91172 0.42324 0.21819 0.0
C352 C 0.99049 0.3896 0.19656 0.0
C353 C 0.98376 0.3721 0.19102 0.0
H354 H 0.96581 0.33985 0.18202 0.0
H355 H 0.93221 0.33451 0.18523 0.0
H356 H 0.97537 0.44655 0.22081 0.0
H357 H 0.99845 0.42451 0.20904 0.0
H358 H 0.00508 0.39258 0.19569 0.0
H359 H 0.99327 0.36188 0.18598 0.0
Mn360 Mn 0.60072 0.89388 0.25196 0.0
Mn361 Mn 0.57879 0.90425 0.29147 0.0
C362 C 0.56905 0.89617 0.25211 0.0
C363 C 0.61287 0.8716 0.23228 0.0
C364 C 0.59854 0.93298 0.26806 0.0
O365 O 0.62039 0.88951 0.27138 0.0
O366 O 0.6039 0.89509 0.29689 0.0
C367 C 0.57558 0.86638 0.30648 0.0
N368 N 0.56752 0.88239 0.30113 0.0
C369 C 0.53757 0.87082 0.30946 0.0
C370 C 0.54557 0.85425 0.31519 0.0
C371 C 0.56465 0.85202 0.31364 0.0
C372 C 0.54917 0.88465 0.30247 0.0
H373 H 0.59023 0.8646 0.30529 0.0
C374 C 0.61876 0.89031 0.28883 0.0
O375 O 0.61843 0.88871 0.23164 0.0
O376 O 0.60084 0.86742 0.24473 0.0
N377 N 0.55431 0.91318 0.28859 0.0
C378 C 0.54869 0.92974 0.28187 0.0
C379 C 0.52991 0.93399 0.28202 0.0
C380 C 0.51716 0.92129 0.28931 0.0
C381 C 0.52331 0.90449 0.29648 0.0
C382 C 0.54219 0.90104 0.29601 0.0
H383 H 0.55843 0.93958 0.2763 0.0
O384 O 0.57816 0.89749 0.23686 0.0
O385 O 0.57869 0.89312 0.26688 0.0
O386 O 0.60372 0.92208 0.25525 0.0
O387 O 0.58956 0.92753 0.28218 0.0
C388 C 0.51142 0.8909 0.30379 0.0
C389 C 0.51854 0.87405 0.31021 0.0
H390 H 0.53717 0.84312 0.32067 0.0
H391 H 0.57091 0.83924 0.31795 0.0
H392 H 0.52528 0.94701 0.2765 0.0
H393 H 0.50267 0.92455 0.28926 0.0
H394 H 0.49675 0.89319 0.30435 0.0
H395 H 0.50923 0.86362 0.31558 0.0
Mn396 Mn 0.10717 0.60824 0.24641 0.0
Mn397 Mn 0.09603 0.59609 0.28964 0.0
C398 C 0.10337 0.57717 0.25371 0.0
C399 C 0.13028 0.61615 0.2254 0.0
C400 C 0.06883 0.61205 0.26218 0.0
O401 O 0.11163 0.63192 0.26144 0.0
O402 O 0.10906 0.62022 0.29006 0.0
C403 C 0.13312 0.5909 0.3054 0.0
N404 N 0.116 0.58416 0.30157 0.0
C405 C 0.12168 0.55646 0.31871 0.0
C406 C 0.13936 0.56312 0.32295 0.0
C407 C 0.14518 0.58034 0.31607 0.0
C408 C 0.11052 0.56733 0.30751 0.0
H409 H 0.13748 0.60429 0.30043 0.0
C410 C 0.11321 0.63323 0.27891 0.0
O411 O 0.11337 0.62113 0.2228 0.0
O412 O 0.13373 0.60697 0.24027 0.0
N413 N 0.08338 0.57288 0.29154 0.0
C414 C 0.06593 0.56842 0.28617 0.0
C415 C 0.05816 0.55145 0.29157 0.0
C416 C 0.06815 0.53955 0.30296 0.0
C417 C 0.08594 0.54461 0.3086 0.0
C418 C 0.09318 0.56143 0.30234 0.0
H419 H 0.05793 0.57775 0.27792 0.0
O420 O 0.10321 0.58255 0.2367 0.0
O421 O 0.10661 0.59 0.26582 0.0
O422 O 0.07925 0.61179 0.24807 0.0
O423 O 0.07433 0.60787 0.27837 0.0
C424 C 0.09658 0.53389 0.32065 0.0
C425 C 0.11453 0.53968 0.32551 0.0
H426 H 0.14855 0.55516 0.33149 0.0
H427 H 0.15881 0.58557 0.31925 0.0
H428 H 0.04437 0.54772 0.28726 0.0
H429 H 0.06194 0.52666 0.30743 0.0
H430 H 0.09105 0.52119 0.32632 0.0
H431 H 0.12265 0.5312 0.33463 0.0
Mn432 Mn 0.39744 0.88542 0.75222 0.0
Mn433 Mn 0.41749 0.90033 0.71282 0.0
C434 C 0.42902 0.88945 0.75102 0.0
C435 C 0.38668 0.86141 0.77103 0.0
C436 C 0.3994 0.92599 0.74004 0.0
O437 O 0.37691 0.88173 0.73337 0.0
O438 O 0.39177 0.89189 0.70823 0.0
C439 C 0.41829 0.86389 0.69427 0.0
N440 N 0.42725 0.87937 0.70032 0.0
C441 C 0.45601 0.86858 0.68839 0.0
C442 C 0.44707 0.85258 0.68192 0.0
C443 C 0.42813 0.8502 0.68493 0.0
C444 C 0.44549 0.88171 0.69765 0.0
H445 H 0.40374 0.86199 0.69656 0.0
C446 C 0.37749 0.88524 0.71618 0.0
O447 O 0.38077 0.87817 0.77294 0.0
O448 O 0.39806 0.85853 0.75766 0.0
N449 N 0.44242 0.90894 0.71439 0.0
C450 C 0.44899 0.9252 0.72139 0.0
C451 C 0.46772 0.92967 0.7196 0.0
C452 C 0.47943 0.9176 0.71024 0.0
C453 C 0.47226 0.90122 0.70262 0.0
C454 C 0.45347 0.89752 0.70482 0.0
H455 H 0.44002 0.93468 0.72832 0.0
O456 O 0.42048 0.88894 0.76663 0.0
O457 O 0.41896 0.88696 0.73632 0.0
O458 O 0.39392 0.91362 0.75136 0.0
O459 O 0.40834 0.92261 0.72532 0.0
C460 C 0.48308 0.8883 0.69316 0.0
C461 C 0.47497 0.87196 0.68611 0.0
H462 H 0.45461 0.84199 0.6747 0.0
H463 H 0.42114 0.83785 0.68005 0.0
H464 H 0.47311 0.94241 0.7254 0.0
H465 H 0.4939 0.92102 0.70901 0.0
H466 H 0.49767 0.89073 0.69136 0.0
H467 H 0.48346 0.86205 0.679 0.0
Mn468 Mn 0.10996 0.40016 0.75143 0.0
Mn469 Mn 0.1008 0.42169 0.7114 0.0
C470 C 0.1082 0.43207 0.75083 0.0
C471 C 0.13184 0.38746 0.77111 0.0
C472 C 0.07166 0.40194 0.73442 0.0
O473 O 0.11375 0.38001 0.73226 0.0
O474 O 0.11118 0.39686 0.70634 0.0
C475 C 0.13889 0.42657 0.69796 0.0
N476 N 0.12237 0.43394 0.70245 0.0
C477 C 0.13274 0.46444 0.69408 0.0
C478 C 0.14979 0.45714 0.68911 0.0
C479 C 0.1529 0.43814 0.69114 0.0
C480 C 0.11929 0.45223 0.70075 0.0
H481 H 0.14137 0.41201 0.69965 0.0
C482 C 0.1147 0.38181 0.71484 0.0
O483 O 0.11468 0.38236 0.77187 0.0
O484 O 0.13625 0.39948 0.75866 0.0
N485 N 0.09083 0.44591 0.71397 0.0
C486 C 0.07399 0.45091 0.7203 0.0
C487 C 0.06894 0.46956 0.71983 0.0
C488 C 0.08114 0.48285 0.71265 0.0
C489 C 0.09827 0.47735 0.70593 0.0
C490 C 0.10252 0.45855 0.70669 0.0
H491 H 0.06452 0.44077 0.72579 0.0
O492 O 0.10684 0.42318 0.76624 0.0
O493 O 0.11112 0.42207 0.73627 0.0
O494 O 0.08196 0.39775 0.74803 0.0
O495 O 0.07767 0.40997 0.71992 0.0
C496 C 0.11142 0.48982 0.6988 0.0
C497 C 0.12867 0.48338 0.69296 0.0
H498 H 0.16066 0.46603 0.68391 0.0
H499 H 0.16608 0.43243 0.6875 0.0
H500 H 0.05569 0.4737 0.72503 0.0
H501 H 0.07726 0.49725 0.71245 0.0
H502 H 0.10849 0.50443 0.69797 0.0
H503 H 0.13878 0.49315 0.68779 0.0
Mn504 Mn 0.60703 0.10631 0.74995 0.0
Mn505 Mn 0.59425 0.09198 0.79215 0.0
C506 C 0.60164 0.07505 0.75537 0.0
C507 C 0.63084 0.11393 0.72954 0.0
C508 C 0.56823 0.11021 0.7651 0.0
O509 O 0.61267 0.12881 0.76634 0.0
O510 O 0.60704 0.11611 0.794 0.0
C511 C 0.63089 0.08636 0.80878 0.0
N512 N 0.61395 0.07966 0.80413 0.0
C513 C 0.61895 0.05164 0.82095 0.0
C514 C 0.63647 0.0582 0.82596 0.0
C515 C 0.64255 0.07555 0.81966 0.0
C516 C 0.60825 0.06272 0.8095 0.0
H517 H 0.63537 0.09991 0.80436 0.0
C518 C 0.61274 0.12942 0.78392 0.0
O519 O 0.61437 0.12028 0.72723 0.0
O520 O 0.63347 0.10368 0.74387 0.0
N521 N 0.58167 0.0687 0.79278 0.0
C522 C 0.56441 0.06442 0.78672 0.0
C523 C 0.55638 0.0474 0.79155 0.0
C524 C 0.5659 0.03528 0.80311 0.0
C525 C 0.58354 0.04012 0.80942 0.0
C526 C 0.59108 0.05698 0.80364 0.0
H527 H 0.55674 0.07398 0.77839 0.0
O528 O 0.60178 0.08149 0.73873 0.0
O529 O 0.60536 0.08693 0.76828 0.0
O530 O 0.57923 0.11131 0.75146 0.0
O531 O 0.5729 0.10415 0.78091 0.0
C532 C 0.59371 0.02914 0.82164 0.0
C533 C 0.61149 0.03479 0.82724 0.0
H534 H 0.64533 0.05008 0.83471 0.0
H535 H 0.65603 0.08073 0.82349 0.0
H536 H 0.54272 0.04382 0.78672 0.0
H537 H 0.55946 0.02237 0.8072 0.0
H538 H 0.58803 0.01626 0.82677 0.0
H539 H 0.61927 0.02611 0.83647 0.0
Mn540 Mn 0.90277 0.60856 0.74846 0.0
Mn541 Mn 0.92216 0.59882 0.78952 0.0
C542 C 0.93447 0.60738 0.75104 0.0
C543 C 0.89079 0.63015 0.72808 0.0
C544 C 0.90739 0.56928 0.76385 0.0
O545 O 0.88128 0.61184 0.76598 0.0
O546 O 0.89566 0.60415 0.79212 0.0
C547 C 0.91792 0.63665 0.80448 0.0
N548 N 0.92888 0.62214 0.80016 0.0
C549 C 0.95594 0.63908 0.80958 0.0
C550 C 0.94494 0.65413 0.81426 0.0
C551 C 0.92584 0.6529 0.8117 0.0
C552 C 0.94726 0.62322 0.8025 0.0
H553 H 0.90326 0.63591 0.80237 0.0
C554 C 0.88135 0.60912 0.78327 0.0
O555 O 0.88644 0.61274 0.72678 0.0
O556 O 0.90173 0.63499 0.74138 0.0
N557 N 0.9478 0.5936 0.78998 0.0
C558 C 0.95625 0.57733 0.78628 0.0
C559 C 0.97536 0.5761 0.78844 0.0
C560 C 0.98543 0.59152 0.79472 0.0
C561 C 0.97629 0.60768 0.79969 0.0
C562 C 0.95723 0.608 0.79741 0.0
H563 H 0.94851 0.56548 0.78147 0.0
O564 O 0.92652 0.60602 0.73513 0.0
O565 O 0.92369 0.61014 0.76507 0.0
O566 O 0.90099 0.58029 0.7517 0.0
O567 O 0.91597 0.57453 0.7784 0.0
C568 C 0.98536 0.62356 0.80653 0.0
C569 C 0.97519 0.63925 0.8115 0.0
H570 H 0.951 0.66672 0.81976 0.0
H571 H 0.91724 0.66449 0.81519 0.0
H572 H 0.98234 0.56347 0.78493 0.0
H573 H 1.00017 0.59091 0.79541 0.0
H574 H 1.00014 0.62393 0.80795 0.0
H575 H 0.98232 0.65137 0.81678 0.0
Mn576 Mn 0.25395 0.38987 0.10384 0.0
Mn577 Mn 0.21166 0.39406 0.08515 0.0
C578 C 0.25071 0.38934 0.07212 0.0
C579 C 0.27597 0.37087 0.11692 0.0
C580 C 0.23424 0.42669 0.09948 0.0
O581 O 0.23694 0.38647 0.12585 0.0
O582 O 0.20966 0.3865 0.11127 0.0
C583 C 0.20161 0.35435 0.08666 0.0
N584 N 0.20379 0.3702 0.0768 0.0
C585 C 0.1952 0.3547 0.04872 0.0
C586 C 0.19258 0.33828 0.05861 0.0
C587 C 0.19585 0.3381 0.07766 0.0
C588 C 0.20089 0.37048 0.05845 0.0
H589 H 0.2044 0.35408 0.10125 0.0
C590 C 0.21952 0.38466 0.1257 0.0
O591 O 0.27613 0.38855 0.12006 0.0
O592 O 0.26295 0.36431 0.10652 0.0
N593 N 0.21082 0.40113 0.05989 0.0
C594 C 0.21368 0.41818 0.05244 0.0
C595 C 0.21122 0.42067 0.03346 0.0
C596 C 0.20559 0.40568 0.02246 0.0
C597 C 0.20177 0.38854 0.03056 0.0
C598 C 0.20433 0.38693 0.04955 0.0
H599 H 0.21811 0.42971 0.06085 0.0
O600 O 0.26664 0.3922 0.07963 0.0
O601 O 0.2372 0.38591 0.0834 0.0
O602 O 0.24854 0.41756 0.10385 0.0
O603 O 0.21952 0.4192 0.09302 0.0
C604 C 0.19596 0.37287 0.02049 0.0
C605 C 0.19269 0.35596 0.02955 0.0
H606 H 0.18822 0.3257 0.05169 0.0
H607 H 0.19405 0.32544 0.08538 0.0
H608 H 0.214 0.43398 0.02727 0.0
H609 H 0.20461 0.40737 0.00779 0.0
H610 H 0.19421 0.37356 0.00575 0.0
H611 H 0.18838 0.34398 0.02161 0.0
Mn612 Mn 0.25499 0.59419 0.8898 0.0
Mn613 Mn 0.2937 0.57158 0.9012 0.0
C614 C 0.25434 0.56229 0.89224 0.0
C615 C 0.23631 0.60707 0.86711 0.0
C616 C 0.27013 0.59198 0.92904 0.0
O617 O 0.27499 0.61377 0.88625 0.0
O618 O 0.30002 0.59649 0.89139 0.0
C619 C 0.30897 0.56717 0.86376 0.0
N620 N 0.30336 0.55957 0.87995 0.0
C621 C 0.31135 0.5291 0.86967 0.0
C622 C 0.31741 0.53662 0.85296 0.0
C623 C 0.31614 0.55573 0.84997 0.0
C624 C 0.30435 0.54119 0.88291 0.0
H625 H 0.30793 0.58183 0.86139 0.0
C626 C 0.29235 0.61166 0.88684 0.0
O627 O 0.23539 0.61244 0.88416 0.0
O628 O 0.2485 0.59477 0.86322 0.0
N629 N 0.29002 0.54724 0.91083 0.0
C630 C 0.28293 0.5421 0.92741 0.0
C631 C 0.28272 0.52336 0.93234 0.0
C632 C 0.29004 0.51014 0.92032 0.0
C633 C 0.2976 0.51581 0.90351 0.0
C634 C 0.29748 0.53468 0.89935 0.0
H635 H 0.27737 0.5522 0.93675 0.0
O636 O 0.23929 0.57166 0.89289 0.0
O637 O 0.26938 0.57181 0.88962 0.0
O638 O 0.25748 0.59689 0.9179 0.0
O639 O 0.28436 0.58311 0.92397 0.0
C640 C 0.30498 0.50343 0.89056 0.0
C641 C 0.31177 0.51006 0.87362 0.0
H642 H 0.3229 0.52784 0.84226 0.0
H643 H 0.32066 0.56162 0.83705 0.0
H644 H 0.27691 0.5191 0.94537 0.0
H645 H 0.28971 0.49568 0.92411 0.0
H646 H 0.3053 0.48876 0.89341 0.0
H647 H 0.31716 0.50038 0.86368 0.0
Mn648 Mn 0.39004 0.2443 0.90536 0.0
Mn649 Mn 0.40631 0.20458 0.92309 0.0
C650 C 0.3967 0.24245 0.93668 0.0
C651 C 0.36524 0.26285 0.89697 0.0
C652 C 0.42988 0.23194 0.90179 0.0
O653 O 0.38462 0.22553 0.88483 0.0
O654 O 0.3938 0.19987 0.89938 0.0
C655 C 0.37115 0.18506 0.93038 0.0
N656 N 0.38778 0.19147 0.93636 0.0
C657 C 0.38482 0.17508 0.96494 0.0
C658 C 0.36763 0.16829 0.95914 0.0
C659 C 0.36068 0.17346 0.94185 0.0
C660 C 0.39434 0.18702 0.95315 0.0
H661 H 0.36605 0.18863 0.91689 0.0
C662 C 0.38662 0.20805 0.88561 0.0
O663 O 0.38136 0.26516 0.88967 0.0
O664 O 0.36341 0.24936 0.90857 0.0
N665 N 0.41893 0.20652 0.94608 0.0
C666 C 0.43532 0.21498 0.94988 0.0
C667 C 0.44406 0.21156 0.96675 0.0
C668 C 0.43612 0.19909 0.97927 0.0
C669 C 0.41919 0.19059 0.97507 0.0
C670 C 0.41096 0.19484 0.95823 0.0
H671 H 0.4418 0.22403 0.93999 0.0
O672 O 0.39552 0.25827 0.92846 0.0
O673 O 0.39336 0.22797 0.92649 0.0
O674 O 0.41763 0.24413 0.89907 0.0
O675 O 0.42668 0.21675 0.91008 0.0
C676 C 0.4103 0.17785 0.98678 0.0
C677 C 0.39301 0.17028 0.98182 0.0
H678 H 0.35967 0.15908 0.96782 0.0
H679 H 0.34745 0.16826 0.93726 0.0
H680 H 0.4571 0.21816 0.9699 0.0
H681 H 0.4432 0.19609 0.99203 0.0
H682 H 0.41648 0.17397 0.99975 0.0
H683 H 0.38614 0.16081 0.99113 0.0
Mn684 Mn 0.75474 0.40125 0.89013 0.0
Mn685 Mn 0.71597 0.42354 0.90153 0.0
C686 C 0.75524 0.43308 0.89329 0.0
C687 C 0.77336 0.38944 0.86672 0.0
C688 C 0.73884 0.40161 0.92882 0.0
O689 O 0.7345 0.38183 0.88589 0.0
O690 O 0.70954 0.39967 0.88962 0.0
C691 C 0.70137 0.43116 0.8643 0.0
N692 N 0.70693 0.43737 0.88114 0.0
C693 C 0.6994 0.46867 0.87336 0.0
C694 C 0.69342 0.46259 0.85599 0.0
C695 C 0.69449 0.44377 0.85141 0.0
C696 C 0.70614 0.45547 0.88562 0.0
H697 H 0.70223 0.41672 0.86073 0.0
C698 C 0.71717 0.38442 0.88525 0.0
O699 O 0.77464 0.38337 0.88351 0.0
O700 O 0.76084 0.40159 0.86358 0.0
N701 N 0.72016 0.447 0.9131 0.0
C702 C 0.72748 0.45074 0.93 0.0
C703 C 0.72808 0.46905 0.93641 0.0
C704 C 0.72093 0.48327 0.9255 0.0
C705 C 0.71325 0.47905 0.90827 0.0
C706 C 0.71304 0.46055 0.9026 0.0
H707 H 0.73288 0.43987 0.93851 0.0
O708 O 0.77039 0.42387 0.89387 0.0
O709 O 0.74035 0.42344 0.89049 0.0
O710 O 0.7523 0.39797 0.91818 0.0
O711 O 0.72444 0.41008 0.92355 0.0
C712 C 0.70601 0.49249 0.89638 0.0
C713 C 0.69919 0.48733 0.8789 0.0
H714 H 0.68813 0.47228 0.846 0.0
H715 H 0.69002 0.43899 0.83799 0.0
H716 H 0.73401 0.4722 0.94974 0.0
H717 H 0.7215 0.49739 0.93045 0.0
H718 H 0.70588 0.50689 0.90045 0.0
H719 H 0.69399 0.49785 0.86975 0.0
Mn720 Mn 0.61021 0.74998 0.8982 0.0
Mn721 Mn 0.6035 0.79227 0.91646 0.0
C722 C 0.60826 0.7533 0.92988 0.0
C723 C 0.63103 0.72846 0.88704 0.0
C724 C 0.57271 0.76868 0.9001 0.0
O725 O 0.61495 0.76702 0.87638 0.0
O726 O 0.61215 0.79433 0.89076 0.0
C727 C 0.64273 0.80349 0.91675 0.0
N728 N 0.62658 0.80092 0.92587 0.0
C729 C 0.64046 0.81006 0.95458 0.0
C730 C 0.65716 0.8131 0.94546 0.0
C731 C 0.65831 0.80974 0.92646 0.0
C732 C 0.62538 0.80388 0.94416 0.0
H733 H 0.64377 0.80063 0.90221 0.0
C734 C 0.61565 0.78459 0.87654 0.0
O735 O 0.61383 0.72775 0.88216 0.0
O736 O 0.63597 0.74175 0.89799 0.0
N737 N 0.59525 0.79308 0.94136 0.0
C738 C 0.57803 0.78984 0.948 0.0
C739 C 0.57458 0.79244 0.96681 0.0
C740 C 0.58879 0.79857 0.97847 0.0
C741 C 0.60615 0.80268 0.97118 0.0
C742 C 0.60871 0.80002 0.9523 0.0
H743 H 0.56708 0.78505 0.93907 0.0
O744 O 0.60625 0.73722 0.92226 0.0
O745 O 0.61215 0.7669 0.91881 0.0
O746 O 0.58255 0.75473 0.89589 0.0
O747 O 0.57922 0.7835 0.90744 0.0
C748 C 0.62112 0.80893 0.98193 0.0
C749 C 0.63826 0.8126 0.97366 0.0
H750 H 0.66922 0.81783 0.95293 0.0
H751 H 0.67119 0.81187 0.91933 0.0
H752 H 0.56109 0.78943 0.97236 0.0
H753 H 0.58632 0.79981 0.99303 0.0
H754 H 0.61972 0.81069 0.9966 0.0
H755 H 0.64968 0.81726 0.98212 0.0
Mn756 Mn 0.75156 0.61518 0.09519 0.0
Mn757 Mn 0.79189 0.59962 0.07863 0.0
C758 C 0.75475 0.60943 0.06386 0.0
C759 C 0.73231 0.63947 0.1036 0.0
C760 C 0.76345 0.5746 0.09612 0.0
O761 O 0.76893 0.62028 0.11676 0.0
O762 O 0.79447 0.60897 0.10409 0.0
C763 C 0.81073 0.63609 0.0779 0.0
N764 N 0.80568 0.62009 0.06928 0.0
C765 C 0.8246 0.62729 0.04317 0.0
C766 C 0.83006 0.64384 0.05175 0.0
C767 C 0.82292 0.64836 0.06911 0.0
C768 C 0.81188 0.61598 0.0523 0.0
H769 H 0.80561 0.63937 0.09144 0.0
C770 C 0.78597 0.61656 0.11739 0.0
O771 O 0.72998 0.62297 0.11024 0.0
O772 O 0.74613 0.64193 0.09262 0.0
N773 N 0.79272 0.59007 0.05413 0.0
C774 C 0.78592 0.57368 0.04768 0.0
C775 C 0.79202 0.5669 0.03067 0.0
C776 C 0.80547 0.57674 0.02078 0.0
C777 C 0.81217 0.59364 0.0276 0.0
C778 C 0.80534 0.59986 0.04445 0.0
H779 H 0.77629 0.56563 0.05568 0.0
O780 O 0.73872 0.61016 0.07152 0.0
O781 O 0.76878 0.61283 0.07459 0.0
O782 O 0.75211 0.58719 0.10055 0.0
O783 O 0.7785 0.57764 0.08763 0.0
C784 C 0.82569 0.60433 0.01856 0.0
C785 C 0.83157 0.62137 0.02611 0.0
H786 H 0.83978 0.65313 0.04518 0.0
H787 H 0.82707 0.66109 0.07584 0.0
H788 H 0.78681 0.55383 0.02548 0.0
H789 H 0.81075 0.57109 0.00807 0.0
H790 H 0.83139 0.59975 0.0056 0.0
H791 H 0.84165 0.62966 0.01882 0.0
Mn792 Mn 0.40157 0.74719 0.11056 0.0
Mn793 Mn 0.42297 0.70802 0.09832 0.0
C794 C 0.43321 0.74737 0.10756 0.0
C795 C 0.38951 0.76558 0.13398 0.0
C796 C 0.40193 0.73218 0.0714 0.0
O797 O 0.38186 0.72722 0.11398 0.0
O798 O 0.39885 0.70173 0.10968 0.0
C799 C 0.42975 0.69245 0.1353 0.0
N800 N 0.43627 0.69827 0.11873 0.0
C801 C 0.46724 0.69063 0.12719 0.0
C802 C 0.46083 0.68437 0.14428 0.0
C803 C 0.44201 0.68534 0.14837 0.0
C804 C 0.45436 0.6975 0.11469 0.0
H805 H 0.41531 0.69328 0.13852 0.0
C806 C 0.38385 0.70973 0.11405 0.0
O807 O 0.38385 0.76706 0.11707 0.0
O808 O 0.40159 0.753 0.1373 0.0
N809 N 0.44652 0.71193 0.08723 0.0
C810 C 0.45058 0.71939 0.07051 0.0
C811 C 0.46892 0.72002 0.06456 0.0
C812 C 0.48284 0.71279 0.07576 0.0
C813 C 0.47829 0.70493 0.09278 0.0
C814 C 0.45977 0.7046 0.09794 0.0
H815 H 0.43995 0.72493 0.06181 0.0
O816 O 0.42419 0.7627 0.10746 0.0
O817 O 0.42349 0.73239 0.11001 0.0
O818 O 0.39849 0.74543 0.08246 0.0
O819 O 0.41002 0.71736 0.07628 0.0
C820 C 0.49144 0.6977 0.10498 0.0
C821 C 0.48593 0.69061 0.1222 0.0
H822 H 0.47026 0.67896 0.15444 0.0
H823 H 0.43698 0.68066 0.16158 0.0
H824 H 0.47232 0.72609 0.05139 0.0
H825 H 0.49699 0.71345 0.0712 0.0
H826 H 0.50586 0.69775 0.10135 0.0
H827 H 0.49621 0.68535 0.13157 0.0
Mn828 Mn 0.60567 0.24832 0.1075 0.0
Mn829 Mn 0.58302 0.28694 0.09549 0.0
C830 C 0.57385 0.24767 0.10535 0.0
C831 C 0.61832 0.23005 0.13075 0.0
C832 C 0.60384 0.26306 0.06827 0.0
O833 O 0.62517 0.26882 0.11063 0.0
O834 O 0.60739 0.29365 0.1059 0.0
C835 C 0.5774 0.30302 0.13249 0.0
N836 N 0.57035 0.29681 0.11621 0.0
C837 C 0.53964 0.30452 0.12539 0.0
C838 C 0.54658 0.3111 0.14222 0.0
C839 C 0.56553 0.3103 0.1458 0.0
C840 C 0.55213 0.29743 0.11266 0.0
H841 H 0.59196 0.30242 0.13527 0.0
C842 C 0.62274 0.2863 0.11023 0.0
O843 O 0.62353 0.22837 0.11374 0.0
O844 O 0.60646 0.24278 0.13426 0.0
N845 N 0.55915 0.28259 0.08517 0.0
C846 C 0.55461 0.27505 0.06855 0.0
C847 C 0.53612 0.27452 0.06296 0.0
C848 C 0.52254 0.28194 0.07441 0.0
C849 C 0.52757 0.28983 0.09135 0.0
C850 C 0.54622 0.29008 0.09613 0.0
H851 H 0.56499 0.26944 0.05963 0.0
O852 O 0.58308 0.23248 0.10492 0.0
O853 O 0.58347 0.26277 0.10744 0.0
O854 O 0.60802 0.24998 0.07926 0.0
O855 O 0.59532 0.27757 0.07324 0.0
C856 C 0.51478 0.29719 0.10382 0.0
C857 C 0.5208 0.30447 0.12085 0.0
H858 H 0.53747 0.31669 0.15255 0.0
H859 H 0.57098 0.31528 0.15879 0.0
H860 H 0.53235 0.26842 0.04986 0.0
H861 H 0.50829 0.28143 0.0701 0.0
H862 H 0.50025 0.29707 0.10055 0.0
H863 H 0.51081 0.30987 0.13043 0.0
Mn864 Mn 0.88963 0.75294 0.60197 0.0
Mn865 Mn 0.89793 0.71079 0.58417 0.0
C866 C 0.89273 0.74963 0.57044 0.0
C867 C 0.86761 0.77396 0.61191 0.0
C868 C 0.92768 0.73526 0.60136 0.0
O869 O 0.88465 0.73576 0.62365 0.0
O870 O 0.88833 0.70839 0.60956 0.0
C871 C 0.85901 0.69862 0.58239 0.0
N872 N 0.87542 0.70162 0.57388 0.0
C873 C 0.86272 0.69268 0.54458 0.0
C874 C 0.84577 0.68916 0.55307 0.0
C875 C 0.8439 0.69219 0.57206 0.0
C876 C 0.87732 0.69894 0.55561 0.0
H877 H 0.85739 0.70129 0.5969 0.0
C878 C 0.88423 0.71817 0.62357 0.0
O879 O 0.88454 0.77527 0.6176 0.0
O880 O 0.86361 0.76027 0.60111 0.0
N881 N 0.90712 0.71032 0.5596 0.0
C882 C 0.92446 0.71412 0.55359 0.0
C883 C 0.92858 0.71199 0.53486 0.0
C884 C 0.91488 0.70579 0.52262 0.0
C885 C 0.8974 0.7011 0.52928 0.0
C886 C 0.89418 0.70327 0.5481 0.0
H887 H 0.93499 0.71902 0.56295 0.0
O888 O 0.89404 0.76577 0.57807 0.0
O889 O 0.88883 0.73594 0.58142 0.0
O890 O 0.91743 0.74903 0.60518 0.0
O891 O 0.92164 0.7202 0.59408 0.0
C892 C 0.8829 0.69484 0.51792 0.0
C893 C 0.86558 0.6906 0.52554 0.0
H894 H 0.83405 0.68434 0.54511 0.0
H895 H 0.83081 0.68972 0.5787 0.0
H896 H 0.94215 0.71545 0.5298 0.0
H897 H 0.91783 0.70501 0.50813 0.0
H898 H 0.88476 0.69358 0.50326 0.0
H899 H 0.85452 0.68595 0.51661 0.0
Mn900 Mn 0.24979 0.90319 0.60924 0.0
Mn901 Mn 0.21208 0.92738 0.59757 0.0
C902 C 0.25169 0.93505 0.60638 0.0
C903 C 0.26864 0.89027 0.63187 0.0
C904 C 0.23498 0.90645 0.56975 0.0
O905 O 0.22903 0.88436 0.61344 0.0
O906 O 0.20506 0.90228 0.60623 0.0
C907 C 0.1963 0.93065 0.63491 0.0
N908 N 0.20243 0.93877 0.61915 0.0
C909 C 0.19494 0.96899 0.6305 0.0
C910 C 0.18844 0.96096 0.64681 0.0
C911 C 0.18919 0.94171 0.64904 0.0
C912 C 0.20193 0.95728 0.61693 0.0
H913 H 0.19684 0.91586 0.63666 0.0
C914 C 0.2118 0.88691 0.61155 0.0
O915 O 0.26902 0.88449 0.61493 0.0
O916 O 0.25669 0.90282 0.63575 0.0
N917 N 0.21634 0.95198 0.58889 0.0
C918 C 0.22342 0.95758 0.57245 0.0
C919 C 0.22392 0.97648 0.56816 0.0
C920 C 0.21682 0.98939 0.58064 0.0
C921 C 0.20918 0.98327 0.59726 0.0
C922 C 0.20907 0.96426 0.60079 0.0
H923 H 0.22876 0.9477 0.56274 0.0
O924 O 0.2663 0.92504 0.60557 0.0
O925 O 0.2363 0.92621 0.60933 0.0
O926 O 0.24688 0.90024 0.58109 0.0
O927 O 0.22149 0.91649 0.57463 0.0
C928 C 0.20187 0.99529 0.61057 0.0
C929 C 0.19486 0.98817 0.62722 0.0
H930 H 0.18294 0.96944 0.65774 0.0
H931 H 0.18427 0.93541 0.66162 0.0
H932 H 0.22975 0.98109 0.55526 0.0
H933 H 0.21733 0.00397 0.57733 0.0
H934 H 0.2017 0.01005 0.6082 0.0
H935 H 0.18947 0.99757 0.63743 0.0
Mn936 Mn 0.11029 0.25039 0.59673 0.0
Mn937 Mn 0.10027 0.2908 0.57609 0.0
C938 C 0.10676 0.25146 0.56501 0.0
C939 C 0.13285 0.23033 0.60758 0.0
C940 C 0.07144 0.2666 0.59453 0.0
O941 O 0.11546 0.26915 0.61729 0.0
O942 O 0.10876 0.29483 0.60159 0.0
C943 C 0.13865 0.30475 0.57538 0.0
N944 N 0.12278 0.30032 0.56631 0.0
C945 C 0.13631 0.308 0.53713 0.0
C946 C 0.15273 0.31279 0.54615 0.0
C947 C 0.1539 0.31115 0.56537 0.0
C948 C 0.12154 0.30176 0.54784 0.0
H949 H 0.1397 0.30333 0.59012 0.0
C950 C 0.11407 0.28665 0.61617 0.0
O951 O 0.11604 0.22918 0.61357 0.0
O952 O 0.13645 0.2434 0.596 0.0
N953 N 0.09195 0.2897 0.55118 0.0
C954 C 0.0748 0.28551 0.54474 0.0
C955 C 0.07118 0.28684 0.52581 0.0
C956 C 0.08517 0.29265 0.5138 0.0
C957 C 0.10242 0.29776 0.52088 0.0
C958 C 0.1051 0.29647 0.53988 0.0
H959 H 0.06404 0.28099 0.55395 0.0
O960 O 0.10575 0.23589 0.57367 0.0
O961 O 0.11046 0.26595 0.57505 0.0
O962 O 0.08235 0.25393 0.6 0.0
O963 O 0.07675 0.28093 0.58557 0.0
C964 C 0.11717 0.30378 0.50983 0.0
C965 C 0.13408 0.30891 0.51792 0.0
H966 H 0.16455 0.31765 0.53846 0.0
H967 H 0.16656 0.31472 0.57244 0.0
H968 H 0.05776 0.2831 0.52044 0.0
H969 H 0.08257 0.29294 0.49919 0.0
H970 H 0.11579 0.30421 0.49507 0.0
H971 H 0.14531 0.31347 0.50922 0.0
Mn972 Mn 0.74801 0.10108 0.61025 0.0
Mn973 Mn 0.78608 0.07746 0.59869 0.0
C974 C 0.7466 0.06916 0.60759 0.0
C975 C 0.72953 0.11386 0.63323 0.0
C976 C 0.763 0.09853 0.57105 0.0
O977 O 0.76865 0.12028 0.61398 0.0
O978 O 0.79295 0.10217 0.60845 0.0
C979 C 0.80163 0.07275 0.63602 0.0
N980 N 0.79557 0.06524 0.61989 0.0
C981 C 0.80312 0.03462 0.62995 0.0
C982 C 0.80954 0.04202 0.64665 0.0
C983 C 0.80873 0.06116 0.64972 0.0
C984 C 0.79614 0.04684 0.61685 0.0
H985 H 0.80105 0.08746 0.6384 0.0
C986 C 0.78598 0.11765 0.6131 0.0
O987 O 0.72839 0.11937 0.61626 0.0
O988 O 0.7419 0.10168 0.63689 0.0
N989 N 0.78177 0.05321 0.58897 0.0
C990 C 0.77458 0.04824 0.57232 0.0
C991 C 0.77405 0.02951 0.56724 0.0
C992 C 0.78121 0.01614 0.57917 0.0
C993 C 0.7889 0.02163 0.59605 0.0
C994 C 0.78903 0.04048 0.60038 0.0
H995 H 0.7692 0.05847 0.56303 0.0
O996 O 0.73178 0.07887 0.60704 0.0
O997 O 0.76186 0.07834 0.61026 0.0
O998 O 0.75031 0.10363 0.58205 0.0
O999 O 0.77699 0.08927 0.57608 0.0
C1000 C 0.79627 0.00912 0.60885 0.0
C1001 C 0.80326 0.01559 0.62584 0.0
H1002 H 0.81504 0.03313 0.65725 0.0
H1003 H 0.81359 0.06697 0.6626 0.0
H1004 H 0.76816 0.02539 0.55415 0.0
H1005 H 0.78069 0.0017 0.57525 0.0
H1006 H 0.79646 0.99446 0.60584 0.0
H1007 H 0.80865 0.0058 0.63566 0.0
Mn1008 Mn 0.89626 0.25374 0.39162 0.0
Mn1009 Mn 0.91639 0.2134 0.40207 0.0
C1010 C 0.92804 0.25223 0.39296 0.0
C1011 C 0.88409 0.27293 0.3689 0.0
C1012 C 0.89735 0.23785 0.43024 0.0
O1013 O 0.87547 0.23463 0.3888 0.0
O1014 O 0.89189 0.20843 0.39095 0.0
C1015 C 0.9218 0.19825 0.36464 0.0
N1016 N 0.92886 0.20343 0.38126 0.0
C1017 C 0.95919 0.1941 0.37239 0.0
C1018 C 0.95221 0.18845 0.35525 0.0
C1019 C 0.93345 0.19061 0.35134 0.0
C1020 C 0.94691 0.20156 0.38512 0.0
H1021 H 0.90742 0.2 0.36156 0.0
C1022 C 0.87698 0.21709 0.38765 0.0
O1023 O 0.87952 0.27486 0.38607 0.0
O1024 O 0.89512 0.25959 0.36498 0.0
N1025 N 0.94031 0.21623 0.41281 0.0
C1026 C 0.94508 0.22354 0.42948 0.0
C1027 C 0.96351 0.22321 0.43518 0.0
C1028 C 0.97682 0.21519 0.42381 0.0
C1029 C 0.97155 0.20756 0.40682 0.0
C1030 C 0.95296 0.20825 0.40188 0.0
H1031 H 0.93492 0.22965 0.43832 0.0
O1032 O 0.91987 0.26802 0.3938 0.0
O1033 O 0.9174 0.23786 0.39087 0.0
O1034 O 0.89454 0.25175 0.41982 0.0
O1035 O 0.90429 0.22273 0.42455 0.0
C1036 C 0.98406 0.19959 0.39446 0.0
C1037 C 0.97791 0.19294 0.37722 0.0
H1038 H 0.96117 0.18262 0.34493 0.0
H1039 H 0.92799 0.18642 0.33809 0.0
H1040 H 0.96747 0.22913 0.44831 0.0
H1041 H 0.99104 0.21508 0.4282 0.0
H1042 H 0.9985 0.19874 0.39796 0.0
H1043 H 0.98772 0.18716 0.36769 0.0
Mn1044 Mn 0.7555 0.88603 0.40044 0.0
Mn1045 Mn 0.715 0.89701 0.41967 0.0
C1046 C 0.75342 0.88834 0.43228 0.0
C1047 C 0.77468 0.86295 0.38913 0.0
C1048 C 0.73995 0.92481 0.40029 0.0
O1049 O 0.73692 0.88254 0.37941 0.0
O1050 O 0.71056 0.88519 0.39543 0.0
C1051 C 0.6996 0.85955 0.42585 0.0
N1052 N 0.70461 0.87646 0.43252 0.0
C1053 C 0.69526 0.86811 0.46312 0.0
C1054 C 0.68977 0.85067 0.45656 0.0
C1055 C 0.69197 0.84637 0.43784 0.0
C1056 C 0.70251 0.88078 0.45048 0.0
H1057 H 0.70151 0.85613 0.41152 0.0
C1058 C 0.71943 0.88149 0.38071 0.0
O1059 O 0.77675 0.88005 0.38404 0.0
O1060 O 0.76121 0.85929 0.40019 0.0
N1061 N 0.71722 0.90854 0.44325 0.0
C1062 C 0.72442 0.92546 0.44762 0.0
C1063 C 0.72392 0.93163 0.46593 0.0
C1064 C 0.71604 0.92035 0.47954 0.0
C1065 C 0.70855 0.9031 0.47463 0.0
C1066 C 0.70906 0.89785 0.45612 0.0
H1067 H 0.73061 0.93416 0.43726 0.0
O1068 O 0.76927 0.88899 0.42422 0.0
O1069 O 0.73931 0.8859 0.42149 0.0
O1070 O 0.75369 0.91426 0.39775 0.0
O1071 O 0.72476 0.91918 0.40718 0.0
C1072 C 0.7015 0.8905 0.48755 0.0
C1073 C 0.69463 0.87311 0.48184 0.0
H1074 H 0.68415 0.84037 0.46582 0.0
H1075 H 0.68793 0.83288 0.43269 0.0
H1076 H 0.72978 0.94494 0.46959 0.0
H1077 H 0.71607 0.92495 0.49373 0.0
H1078 H 0.70233 0.89369 0.50198 0.0
H1079 H 0.68955 0.86345 0.49204 0.0
Mn1080 Mn 0.10321 0.7522 0.39376 0.0
Mn1081 Mn 0.08243 0.79145 0.40655 0.0
C1082 C 0.07159 0.7525 0.3965 0.0
C1083 C 0.11506 0.73443 0.3698 0.0
C1084 C 0.10333 0.76665 0.43301 0.0
O1085 O 0.12322 0.77197 0.39092 0.0
O1086 O 0.10629 0.79762 0.39463 0.0
C1087 C 0.07487 0.80751 0.36993 0.0
N1088 N 0.06871 0.80154 0.38658 0.0
C1089 C 0.03758 0.80936 0.3789 0.0
C1090 C 0.04363 0.81582 0.36175 0.0
C1091 C 0.06234 0.81482 0.35723 0.0
C1092 C 0.05072 0.80232 0.39104 0.0
H1093 H 0.08921 0.80662 0.36635 0.0
C1094 C 0.12124 0.78945 0.39043 0.0
O1095 O 0.12046 0.73208 0.38669 0.0
O1096 O 0.10331 0.74739 0.36686 0.0
N1097 N 0.05911 0.78744 0.41809 0.0
C1098 C 0.05535 0.77959 0.43471 0.0
C1099 C 0.03714 0.77883 0.441 0.0
C1100 C 0.023 0.78627 0.43022 0.0
C1101 C 0.02722 0.79448 0.41328 0.0
C1102 C 0.04565 0.79495 0.40777 0.0
H1103 H 0.06613 0.77387 0.44308 0.0
O1104 O 0.0803 0.73699 0.39628 0.0
O1105 O 0.08161 0.76732 0.39452 0.0
O1106 O 0.10609 0.75323 0.42193 0.0
O1107 O 0.09583 0.7818 0.4282 0.0
C1108 C 0.01383 0.8019 0.40147 0.0
C1109 C 0.019 0.80929 0.38427 0.0
H1110 H 0.034 0.82136 0.35187 0.0
H1111 H 0.06709 0.81963 0.34395 0.0
H1112 H 0.03399 0.77247 0.45409 0.0
H1113 H 0.00894 0.7855 0.43504 0.0
H1114 H 0.99948 0.80174 0.40537 0.0
H1115 H 0.00853 0.81466 0.37519 0.0
Mn1116 Mn 0.24898 0.11345 0.39988 0.0
Mn1117 Mn 0.29034 0.10488 0.41876 0.0
C1118 C 0.25174 0.11257 0.43168 0.0
C1119 C 0.22856 0.13481 0.38769 0.0
C1120 C 0.26602 0.07539 0.40096 0.0
O1121 O 0.26697 0.11672 0.37855 0.0
O1122 O 0.29388 0.11588 0.394 0.0
C1123 C 0.30456 0.14305 0.42341 0.0
N1124 N 0.30023 0.12628 0.43074 0.0
C1125 C 0.30994 0.13614 0.46088 0.0
C1126 C 0.3147 0.15348 0.45364 0.0
C1127 C 0.31198 0.15694 0.43482 0.0
C1128 C 0.30286 0.12275 0.44879 0.0
H1129 H 0.30228 0.14582 0.40899 0.0
C1130 C 0.28443 0.11854 0.37937 0.0
O1131 O 0.22731 0.11739 0.38346 0.0
O1132 O 0.24194 0.13981 0.39847 0.0
N1133 N 0.28901 0.09423 0.44275 0.0
C1134 C 0.28243 0.07729 0.44782 0.0
C1135 C 0.28343 0.07191 0.46634 0.0
C1136 C 0.29121 0.08398 0.47941 0.0
C1137 C 0.29812 0.10121 0.47379 0.0
C1138 C 0.29706 0.1057 0.45512 0.0
H1139 H 0.27629 0.068 0.43789 0.0
O1140 O 0.23577 0.11099 0.42386 0.0
O1141 O 0.2656 0.11518 0.42065 0.0
O1142 O 0.25189 0.08535 0.39835 0.0
O1143 O 0.28122 0.08181 0.40723 0.0
C1144 C 0.30509 0.11451 0.48615 0.0
C1145 C 0.31121 0.13188 0.47974 0.0
H1146 H 0.32018 0.16431 0.46244 0.0
H1147 H 0.31547 0.17034 0.42915 0.0
H1148 H 0.27802 0.0586 0.47055 0.0
H1149 H 0.2915 0.07998 0.49376 0.0
H1150 H 0.30484 0.1118 0.50068 0.0
H1151 H 0.31626 0.14207 0.48952 0.0
Mn1152 Mn 0.60634 0.9038 0.74827 0.0
Mn1153 Mn 0.59254 0.92292 0.7882 0.0
C1154 C 0.60477 0.93565 0.75087 0.0
C1155 C 0.62935 0.89225 0.7294 0.0
C1156 C 0.56593 0.90792 0.76002 0.0
O1157 O 0.60871 0.88223 0.76594 0.0
O1158 O 0.59731 0.89617 0.7909 0.0
C1159 C 0.62823 0.91799 0.80713 0.0
N1160 N 0.61433 0.92919 0.80167 0.0
C1161 C 0.62944 0.9558 0.81484 0.0
C1162 C 0.64384 0.94454 0.82074 0.0
C1163 C 0.64322 0.92555 0.81686 0.0
C1164 C 0.61476 0.94746 0.80535 0.0
H1165 H 0.62797 0.90341 0.80405 0.0
C1166 C 0.60365 0.88199 0.78268 0.0
O1167 O 0.61224 0.88755 0.72697 0.0
O1168 O 0.63309 0.90326 0.74302 0.0
N1169 N 0.58753 0.94875 0.78853 0.0
C1170 C 0.57261 0.95773 0.78178 0.0
C1171 C 0.57116 0.97686 0.78442 0.0
C1172 C 0.58494 0.98648 0.79417 0.0
C1173 C 0.59982 0.97684 0.80156 0.0
C1174 C 0.60039 0.95775 0.79871 0.0
H1175 H 0.56206 0.95038 0.77422 0.0
O1176 O 0.60443 0.92768 0.7349 0.0
O1177 O 0.60643 0.92479 0.76509 0.0
O1178 O 0.57806 0.90127 0.74924 0.0
O1179 O 0.56968 0.9171 0.77464 0.0
C1180 C 0.61457 0.98552 0.81088 0.0
C1181 C 0.6293 0.97503 0.81761 0.0
H1182 H 0.6555 0.95037 0.8281 0.0
H1183 H 0.65433 0.91677 0.82126 0.0
H1184 H 0.55962 0.98423 0.77872 0.0
H1185 H 0.58415 0.00129 0.7955 0.0
H1186 H 0.61506 1.00029 0.81245 0.0
H1187 H 0.64059 0.98193 0.82464 0.0
Mn1188 Mn 0.10482 0.60976 0.75072 0.0
Mn1189 Mn 0.08851 0.59687 0.79229 0.0
C1190 C 0.07331 0.60567 0.75471 0.0
C1191 C 0.1143 0.6332 0.73059 0.0
C1192 C 0.1058 0.57018 0.76522 0.0
O1193 O 0.12687 0.61414 0.76777 0.0
O1194 O 0.11335 0.60796 0.79486 0.0
C1195 C 0.08511 0.63366 0.80969 0.0
N1196 N 0.07754 0.61707 0.80485 0.0
C1197 C 0.05023 0.62315 0.82227 0.0
C1198 C 0.05769 0.64034 0.82745 0.0
C1199 C 0.07514 0.64569 0.821 0.0
C1200 C 0.06059 0.612 0.81059 0.0
H1201 H 0.09871 0.63758 0.8051 0.0
C1202 C 0.12711 0.61339 0.78532 0.0
O1203 O 0.11967 0.61629 0.72845 0.0
O1204 O 0.10393 0.63654 0.74466 0.0
N1205 N 0.06461 0.58575 0.79258 0.0
C1206 C 0.05912 0.5691 0.7856 0.0
C1207 C 0.04196 0.5617 0.79063 0.0
C1208 C 0.03086 0.57128 0.80312 0.0
C1209 C 0.03674 0.58849 0.81 0.0
C1210 C 0.05385 0.59527 0.80429 0.0
H1211 H 0.0679 0.56137 0.77652 0.0
O1212 O 0.08064 0.60572 0.73847 0.0
O1213 O 0.08456 0.60884 0.76839 0.0
O1214 O 0.10853 0.58158 0.75208 0.0
O1215 O 0.09911 0.5749 0.78071 0.0
C1216 C 0.02641 0.59911 0.82244 0.0
C1217 C 0.03303 0.61654 0.82837 0.0
H1218 H 0.05017 0.64953 0.8364 0.0
H1219 H 0.08101 0.65891 0.82497 0.0
H1220 H 0.03748 0.54846 0.78522 0.0
H1221 H 0.01782 0.5653 0.80729 0.0
H1222 H 0.01323 0.59412 0.82736 0.0
H1223 H 0.02478 0.62472 0.83763 0.0
Mn1224 Mn 0.39301 0.09577 0.75003 0.0
Mn1225 Mn 0.40396 0.07469 0.78975 0.0
C1226 C 0.39584 0.06395 0.75055 0.0
C1227 C 0.37016 0.1078 0.73118 0.0
C1228 C 0.43157 0.0961 0.76625 0.0
O1229 O 0.38907 0.11572 0.76945 0.0
O1230 O 0.39205 0.0987 0.79523 0.0
C1231 C 0.36653 0.06711 0.80385 0.0
N1232 N 0.38339 0.06091 0.79887 0.0
C1233 C 0.37501 0.02962 0.80653 0.0
C1234 C 0.35762 0.03571 0.81196 0.0
C1235 C 0.35335 0.05453 0.81054 0.0
C1236 C 0.38759 0.04282 0.80001 0.0
H1237 H 0.36314 0.08153 0.80262 0.0
C1238 C 0.38804 0.1137 0.78685 0.0
O1239 O 0.38715 0.11332 0.72977 0.0
O1240 O 0.36647 0.09565 0.74373 0.0
N1241 N 0.41544 0.05123 0.7866 0.0
C1242 C 0.43254 0.04749 0.78007 0.0
C1243 C 0.43881 0.02922 0.78016 0.0
C1244 C 0.42753 0.01502 0.78711 0.0
C1245 C 0.41008 0.01922 0.79396 0.0
C1246 C 0.40464 0.03771 0.79368 0.0
H1247 H 0.44132 0.05833 0.77478 0.0
O1248 O 0.39643 0.07282 0.73508 0.0
O1249 O 0.3931 0.07393 0.76515 0.0
O1250 O 0.42094 0.0992 0.75261 0.0
O1251 O 0.42617 0.08809 0.781 0.0
C1252 C 0.39777 0.00576 0.80079 0.0
C1253 C 0.38023 0.01094 0.80702 0.0
H1254 H 0.34739 0.02604 0.81705 0.0
H1255 H 0.3399 0.05931 0.81455 0.0
H1256 H 0.4523 0.02608 0.77486 0.0
H1257 H 0.43237 0.00093 0.78706 0.0
H1258 H 0.40156 0.99133 0.80107 0.0
H1259 H 0.37078 1.00043 0.81199 0.0
Mn1260 Mn 0.89506 0.39877 0.75272 0.0
Mn1261 Mn 0.90702 0.42041 0.71335 0.0
C1262 C 0.89856 0.4306 0.75266 0.0
C1263 C 0.87182 0.38665 0.77146 0.0
C1264 C 0.93394 0.39921 0.73719 0.0
O1265 O 0.89082 0.37905 0.73291 0.0
O1266 O 0.89558 0.39603 0.7074 0.0
C1267 C 0.87001 0.42685 0.69792 0.0
N1268 N 0.88663 0.43357 0.70358 0.0
C1269 C 0.87841 0.46457 0.69533 0.0
C1270 C 0.86123 0.45796 0.68929 0.0
C1271 C 0.857 0.43903 0.69064 0.0
C1272 C 0.89083 0.45176 0.7024 0.0
H1273 H 0.86671 0.4123 0.69897 0.0
C1274 C 0.89089 0.38096 0.71543 0.0
O1275 O 0.88867 0.3811 0.77299 0.0
O1276 O 0.86846 0.39869 0.75877 0.0
N1277 N 0.91829 0.44418 0.71684 0.0
C1278 C 0.93509 0.44843 0.72412 0.0
C1279 C 0.94122 0.46689 0.72431 0.0
C1280 C 0.93013 0.48075 0.71683 0.0
C1281 C 0.91303 0.476 0.70914 0.0
C1282 C 0.90768 0.45736 0.70926 0.0
H1283 H 0.9437 0.43784 0.72985 0.0
O1284 O 0.89881 0.42146 0.76797 0.0
O1285 O 0.89568 0.42088 0.7378 0.0
O1286 O 0.92309 0.39561 0.75055 0.0
O1287 O 0.92899 0.40758 0.72255 0.0
C1288 C 0.90089 0.48909 0.70176 0.0
C1289 C 0.88358 0.48338 0.6949 0.0
H1290 H 0.85114 0.46732 0.68373 0.0
H1291 H 0.84375 0.43385 0.68608 0.0
H1292 H 0.95444 0.47044 0.73027 0.0
H1293 H 0.93482 0.49499 0.71718 0.0
H1294 H 0.90461 0.50361 0.70157 0.0
H1295 H 0.87426 0.4936 0.6895 0.0
Mn1296 Mn 0.60366 0.11002 0.24836 0.0
Mn1297 Mn 0.58419 0.09845 0.28889 0.0
C1298 C 0.5721 0.10619 0.24993 0.0
C1299 C 0.61447 0.13359 0.22898 0.0
C1300 C 0.60444 0.07123 0.2644 0.0
O1301 O 0.62419 0.1143 0.26717 0.0
O1302 O 0.60841 0.11061 0.2936 0.0
C1303 C 0.57764 0.13582 0.30387 0.0
N1304 N 0.57109 0.11885 0.29886 0.0
C1305 C 0.54051 0.12657 0.30842 0.0
C1306 C 0.54694 0.14409 0.31382 0.0
C1307 C 0.56558 0.14875 0.31148 0.0
C1308 C 0.55318 0.11424 0.30097 0.0
H1309 H 0.59195 0.13945 0.30203 0.0
C1310 C 0.62303 0.11483 0.28469 0.0
O1311 O 0.62034 0.11676 0.22736 0.0
O1312 O 0.60302 0.13669 0.2422 0.0
N1313 N 0.56067 0.08656 0.28666 0.0
C1314 C 0.55648 0.06945 0.27987 0.0
C1315 C 0.53828 0.06289 0.28064 0.0
C1316 C 0.52461 0.07386 0.28858 0.0
C1317 C 0.52929 0.09129 0.29574 0.0
C1318 C 0.54769 0.09707 0.29467 0.0
H1319 H 0.56693 0.06092 0.27381 0.0
O1320 O 0.58043 0.10598 0.23419 0.0
O1321 O 0.58243 0.1093 0.26429 0.0
O1322 O 0.60709 0.0819 0.25062 0.0
O1323 O 0.59699 0.07646 0.27943 0.0
C1324 C 0.51636 0.10333 0.30353 0.0
C1325 C 0.52196 0.12097 0.30983 0.0
H1326 H 0.53767 0.15413 0.31963 0.0
H1327 H 0.57063 0.16229 0.31552 0.0
H1328 H 0.53477 0.04942 0.27509 0.0
H1329 H 0.51055 0.06883 0.28897 0.0
H1330 H 0.50203 0.09927 0.30447 0.0
H1331 H 0.51184 0.13021 0.31553 0.0
Mn1332 Mn 0.89332 0.5991 0.24368 0.0
Mn1333 Mn 0.90329 0.57748 0.28344 0.0
C1334 C 0.89638 0.56731 0.24385 0.0
C1335 C 0.87081 0.6112 0.22434 0.0
C1336 C 0.93161 0.59887 0.26083 0.0
O1337 O 0.88879 0.6188 0.26311 0.0
O1338 O 0.89187 0.60175 0.28883 0.0
C1339 C 0.86541 0.57077 0.29675 0.0
N1340 N 0.88222 0.56418 0.2921 0.0
C1341 C 0.87308 0.53313 0.29986 0.0
C1342 C 0.85574 0.53962 0.30494 0.0
C1343 C 0.85187 0.55851 0.3033 0.0
C1344 C 0.88603 0.54601 0.29344 0.0
H1345 H 0.86236 0.58526 0.2954 0.0
C1346 C 0.88786 0.61677 0.2805 0.0
O1347 O 0.88777 0.61697 0.22353 0.0
O1348 O 0.86698 0.5988 0.2366 0.0
N1349 N 0.91429 0.55377 0.28052 0.0
C1350 C 0.93141 0.54963 0.27429 0.0
C1351 C 0.93725 0.53121 0.2745 0.0
C1352 C 0.92556 0.51729 0.28134 0.0
C1353 C 0.90815 0.52192 0.28799 0.0
C1354 C 0.90309 0.54052 0.28748 0.0
H1355 H 0.9405 0.56027 0.2691 0.0
O1356 O 0.89734 0.57644 0.22855 0.0
O1357 O 0.89308 0.577 0.25853 0.0
O1358 O 0.92121 0.60264 0.24715 0.0
O1359 O 0.92591 0.59038 0.27519 0.0
C1360 C 0.89551 0.50879 0.29484 0.0
C1361 C 0.87795 0.51437 0.30068 0.0
H1362 H 0.84524 0.53019 0.30996 0.0
H1363 H 0.83847 0.5636 0.30706 0.0
H1364 H 0.95073 0.52776 0.26939 0.0
H1365 H 0.93007 0.50308 0.28136 0.0
H1366 H 0.89906 0.49432 0.29547 0.0
H1367 H 0.86825 0.50409 0.30565 0.0
Mn1368 Mn 0.39286 0.89813 0.25025 0.0
Mn1369 Mn 0.40506 0.91332 0.20816 0.0
C1370 C 0.39694 0.92963 0.24509 0.0
C1371 C 0.3697 0.88916 0.27074 0.0
C1372 C 0.43192 0.89637 0.23523 0.0
O1373 O 0.38822 0.87549 0.2338 0.0
O1374 O 0.39354 0.88854 0.20624 0.0
C1375 C 0.36806 0.91711 0.19175 0.0
N1376 N 0.3847 0.92463 0.19628 0.0
C1377 C 0.37795 0.9526 0.17999 0.0
C1378 C 0.36072 0.94518 0.17512 0.0
C1379 C 0.35568 0.92743 0.1812 0.0
C1380 C 0.38941 0.94194 0.1911 0.0
H1381 H 0.36435 0.90328 0.19603 0.0
C1382 C 0.38835 0.87494 0.21622 0.0
O1383 O 0.38654 0.88384 0.27296 0.0
O1384 O 0.3663 0.89926 0.25645 0.0
N1385 N 0.41647 0.9372 0.20746 0.0
C1386 C 0.43371 0.94218 0.21308 0.0
C1387 C 0.44094 0.95948 0.20804 0.0
C1388 C 0.43066 0.97119 0.19673 0.0
C1389 C 0.41303 0.96568 0.19093 0.0
C1390 C 0.40635 0.9485 0.1968 0.0
H1391 H 0.44197 0.93297 0.2212 0.0
O1392 O 0.39702 0.92303 0.26166 0.0
O1393 O 0.39367 0.91775 0.23204 0.0
O1394 O 0.42078 0.89435 0.24865 0.0
O1395 O 0.42704 0.90238 0.21947 0.0
C1396 C 0.40207 0.9763 0.17908 0.0
C1397 C 0.38442 0.96991 0.17386 0.0
H1398 H 0.35132 0.95295 0.16663 0.0
H1399 H 0.34243 0.92159 0.17748 0.0
H1400 H 0.45459 0.96359 0.21249 0.0
H1401 H 0.43652 0.98429 0.19243 0.0
H1402 H 0.40707 0.98944 0.17392 0.0
H1403 H 0.37603 0.97834 0.16494 0.0
Mn1404 Mn 0.10983 0.40615 0.25007 0.0
Mn1405 Mn 0.09885 0.42395 0.29155 0.0
C1406 C 0.10842 0.43794 0.25365 0.0
C1407 C 0.13185 0.39478 0.22996 0.0
C1408 C 0.07041 0.40868 0.26483 0.0
O1409 O 0.11273 0.38399 0.26704 0.0
O1410 O 0.10599 0.39777 0.29381 0.0
C1411 C 0.13624 0.42215 0.30747 0.0
N1412 N 0.121 0.43207 0.3033 0.0
C1413 C 0.13445 0.45971 0.31609 0.0
C1414 C 0.1502 0.44976 0.32074 0.0
C1415 C 0.15111 0.4309 0.31637 0.0
C1416 C 0.11999 0.45021 0.30737 0.0
H1417 H 0.13709 0.40769 0.30398 0.0
C1418 C 0.11085 0.3837 0.28445 0.0
O1419 O 0.11458 0.39041 0.22812 0.0
O1420 O 0.13632 0.40542 0.24366 0.0
N1421 N 0.09177 0.44925 0.29218 0.0
C1422 C 0.07591 0.45699 0.2861 0.0
C1423 C 0.07303 0.47592 0.28898 0.0
C1424 C 0.08636 0.48658 0.2983 0.0
C1425 C 0.10234 0.47818 0.30489 0.0
C1426 C 0.10437 0.45925 0.30176 0.0
H1427 H 0.06565 0.44884 0.27891 0.0
O1428 O 0.10757 0.43042 0.23748 0.0
O1429 O 0.11076 0.42666 0.26744 0.0
O1430 O 0.08167 0.40404 0.25219 0.0
O1431 O 0.07543 0.41617 0.28003 0.0
C1432 C 0.11671 0.48795 0.31372 0.0
C1433 C 0.13271 0.47876 0.31936 0.0
H1434 H 0.16176 0.45652 0.32748 0.0
H1435 H 0.16327 0.42314 0.31977 0.0
H1436 H 0.06066 0.48232 0.28388 0.0
H1437 H 0.08429 0.50123 0.30001 0.0
H1438 H 0.1159 0.50263 0.31578 0.0
H1439 H 0.14372 0.48654 0.32592 0.0
Mn1440 Mn 0.74454 0.60904 0.89304 0.0
Mn1441 Mn 0.78605 0.60218 0.91207 0.0
C1442 C 0.74714 0.60793 0.9249 0.0
C1443 C 0.72398 0.63003 0.88067 0.0
C1444 C 0.76303 0.57178 0.89402 0.0
O1445 O 0.76246 0.61286 0.87169 0.0
O1446 O 0.78913 0.61358 0.8875 0.0
C1447 C 0.79791 0.6411 0.91713 0.0
N1448 N 0.79447 0.62405 0.92431 0.0
C1449 C 0.80257 0.63446 0.95475 0.0
C1450 C 0.80641 0.65208 0.94766 0.0
C1451 C 0.80404 0.65542 0.92877 0.0
C1452 C 0.79665 0.6207 0.94245 0.0
H1453 H 0.79589 0.64376 0.90266 0.0
C1454 C 0.77977 0.61567 0.87274 0.0
O1455 O 0.72286 0.61259 0.87648 0.0
O1456 O 0.73708 0.63518 0.8917 0.0
N1457 N 0.78522 0.59125 0.93592 0.0
C1458 C 0.78045 0.57362 0.94063 0.0
C1459 C 0.7816 0.56814 0.95908 0.0
C1460 C 0.78775 0.5808 0.97245 0.0
C1461 C 0.79317 0.59866 0.96718 0.0
C1462 C 0.79194 0.60326 0.94856 0.0
H1463 H 0.77556 0.56386 0.93046 0.0
O1464 O 0.73123 0.6061 0.91702 0.0
O1465 O 0.76089 0.61108 0.91391 0.0
O1466 O 0.74846 0.58113 0.8915 0.0
O1467 O 0.77804 0.57879 0.90024 0.0
C1468 C 0.7991 0.61227 0.97974 0.0
C1469 C 0.80388 0.63013 0.97358 0.0
H1470 H 0.81098 0.6632 0.95663 0.0
H1471 H 0.80682 0.66901 0.92322 0.0
H1472 H 0.77745 0.55432 0.96305 0.0
H1473 H 0.78781 0.57675 0.98673 0.0
H1474 H 0.7994 0.6093 0.99424 0.0
H1475 H 0.80819 0.64052 0.98349 0.0
Mn1476 Mn 0.75581 0.40459 0.10479 0.0
Mn1477 Mn 0.71519 0.42521 0.09686 0.0
C1478 C 0.75456 0.43657 0.10329 0.0
C1479 C 0.77666 0.39213 0.12572 0.0
C1480 C 0.73768 0.40656 0.06691 0.0
O1481 O 0.73707 0.38377 0.10896 0.0
O1482 O 0.71093 0.40007 0.10711 0.0
C1483 C 0.70295 0.429 0.13548 0.0
N1484 N 0.70674 0.4368 0.11887 0.0
C1485 C 0.69826 0.46688 0.12988 0.0
C1486 C 0.69404 0.45913 0.14705 0.0
C1487 C 0.69647 0.44012 0.14988 0.0
C1488 C 0.70467 0.4551 0.11606 0.0
H1489 H 0.70494 0.41443 0.13774 0.0
C1490 C 0.71965 0.38513 0.11031 0.0
O1491 O 0.7769 0.38754 0.10843 0.0
O1492 O 0.76398 0.40343 0.13092 0.0
N1493 N 0.71687 0.44968 0.08701 0.0
C1494 C 0.72209 0.45509 0.06983 0.0
C1495 C 0.72076 0.47376 0.06485 0.0
C1496 C 0.71387 0.48663 0.07749 0.0
C1497 C 0.7083 0.48069 0.09497 0.0
C1498 C 0.7098 0.46189 0.09911 0.0
H1499 H 0.72731 0.44527 0.06001 0.0
O1500 O 0.77005 0.42813 0.10146 0.0
O1501 O 0.7403 0.42611 0.10655 0.0
O1502 O 0.75159 0.40261 0.07687 0.0
O1503 O 0.72323 0.41414 0.07331 0.0
C1504 C 0.70157 0.49275 0.10856 0.0
C1505 C 0.69663 0.48586 0.12603 0.0
H1506 H 0.68909 0.46767 0.1582 0.0
H1507 H 0.69339 0.43406 0.16313 0.0
H1508 H 0.72506 0.47823 0.05132 0.0
H1509 H 0.71297 0.50104 0.07365 0.0
H1510 H 0.70036 0.50738 0.1058 0.0
H1511 H 0.6917 0.4953 0.13645 0.0
Mn1512 Mn 0.60978 0.7553 0.09991 0.0
Mn1513 Mn 0.59491 0.7963 0.08402 0.0
C1514 C 0.60464 0.75912 0.06858 0.0
C1515 C 0.63404 0.7361 0.1083 0.0
C1516 C 0.5699 0.76792 0.10229 0.0
O1517 O 0.61437 0.77263 0.12174 0.0
O1518 O 0.60639 0.79944 0.10858 0.0
C1519 C 0.63067 0.81561 0.07956 0.0
N1520 N 0.61428 0.80982 0.07241 0.0
C1521 C 0.61925 0.8272 0.04469 0.0
C1522 C 0.63621 0.83337 0.05171 0.0
C1523 C 0.64202 0.82741 0.06916 0.0
C1524 C 0.60879 0.81507 0.05547 0.0
H1525 H 0.63494 0.81138 0.09315 0.0
C1526 C 0.6128 0.79017 0.12206 0.0
O1527 O 0.61752 0.73328 0.11448 0.0
O1528 O 0.63654 0.75036 0.09782 0.0
N1529 N 0.58342 0.7959 0.06037 0.0
C1530 C 0.5671 0.78799 0.05532 0.0
C1531 C 0.55943 0.79226 0.03812 0.0
C1532 C 0.56838 0.80498 0.02655 0.0
C1533 C 0.58521 0.8129 0.03203 0.0
C1534 C 0.59232 0.80786 0.04917 0.0
H1535 H 0.55986 0.77869 0.06443 0.0
O1536 O 0.60537 0.74282 0.07586 0.0
O1537 O 0.60766 0.77295 0.07974 0.0
O1538 O 0.58187 0.75539 0.10479 0.0
O1539 O 0.57375 0.78364 0.0953 0.0
C1540 C 0.59509 0.82579 0.02131 0.0
C1541 C 0.61221 0.83275 0.02752 0.0
H1542 H 0.64486 0.8427 0.04385 0.0
H1543 H 0.65507 0.83212 0.07469 0.0
H1544 H 0.54646 0.78608 0.03397 0.0
H1545 H 0.56215 0.80859 0.01351 0.0
H1546 H 0.58978 0.83027 0.00814 0.0
H1547 H 0.61984 0.84236 0.01898 0.0
Mn1548 Mn 0.24677 0.59739 0.10512 0.0
Mn1549 Mn 0.28453 0.57378 0.0928 0.0
C1550 C 0.24494 0.5657 0.10079 0.0
C1551 C 0.22838 0.60902 0.12882 0.0
C1552 C 0.26248 0.59717 0.06619 0.0
O1553 O 0.26775 0.61585 0.11028 0.0
O1554 O 0.29186 0.59755 0.10438 0.0
C1555 C 0.29939 0.56596 0.12987 0.0
N1556 N 0.29331 0.5598 0.11319 0.0
C1557 C 0.29968 0.52829 0.1212 0.0
C1558 C 0.30611 0.53429 0.13844 0.0
C1559 C 0.3059 0.55321 0.14281 0.0
C1560 C 0.29331 0.54163 0.1089 0.0
H1561 H 0.29928 0.5805 0.13325 0.0
C1562 C 0.28503 0.61287 0.10973 0.0
O1563 O 0.22753 0.61579 0.11228 0.0
O1564 O 0.2404 0.59629 0.1316 0.0
N1565 N 0.27955 0.55041 0.08138 0.0
C1566 C 0.27225 0.54684 0.06444 0.0
C1567 C 0.27107 0.52852 0.05811 0.0
C1568 C 0.27764 0.51411 0.06915 0.0
C1569 C 0.28537 0.51816 0.0864 0.0
C1570 C 0.28618 0.53667 0.09198 0.0
H1571 H 0.2673 0.55787 0.05584 0.0
O1572 O 0.23023 0.57561 0.10041 0.0
O1573 O 0.26022 0.57458 0.10403 0.0
O1574 O 0.24954 0.60166 0.07716 0.0
O1575 O 0.27623 0.58743 0.07093 0.0
C1576 C 0.29215 0.50454 0.09836 0.0
C1577 C 0.29919 0.50958 0.1158 0.0
H1578 H 0.31114 0.5245 0.14845 0.0
H1579 H 0.31078 0.55794 0.15611 0.0
H1580 H 0.26512 0.52551 0.04476 0.0
H1581 H 0.27663 0.49998 0.06426 0.0
H1582 H 0.2918 0.49011 0.09438 0.0
H1583 H 0.30408 0.49895 0.12499 0.0
Mn1584 Mn 0.39747 0.25775 0.10682 0.0
Mn1585 Mn 0.40586 0.21499 0.09044 0.0
C1586 C 0.399 0.25295 0.07529 0.0
C1587 C 0.37546 0.27859 0.11705 0.0
C1588 C 0.43579 0.24094 0.10468 0.0
O1589 O 0.39396 0.24168 0.12956 0.0
O1590 O 0.39821 0.21382 0.11663 0.0
C1591 C 0.36713 0.20221 0.09214 0.0
N1592 N 0.38284 0.2049 0.08233 0.0
C1593 C 0.36804 0.19448 0.05449 0.0
C1594 C 0.35184 0.19119 0.0644 0.0
C1595 C 0.35138 0.19514 0.08331 0.0
C1596 C 0.38336 0.2014 0.06409 0.0
H1597 H 0.36655 0.20569 0.10653 0.0
C1598 C 0.39442 0.22415 0.13036 0.0
O1599 O 0.39265 0.28064 0.12168 0.0
O1600 O 0.37129 0.2644 0.10696 0.0
N1601 N 0.41319 0.21329 0.06528 0.0
C1602 C 0.43004 0.2167 0.05784 0.0
C1603 C 0.43278 0.21366 0.03897 0.0
C1604 C 0.41823 0.20689 0.02808 0.0
C1605 C 0.40134 0.20249 0.03623 0.0
C1606 C 0.39951 0.20558 0.05513 0.0
H1607 H 0.44124 0.22185 0.06619 0.0
O1608 O 0.40035 0.26945 0.08208 0.0
O1609 O 0.396 0.23976 0.08711 0.0
O1610 O 0.42546 0.25453 0.10882 0.0
O1611 O 0.42999 0.22553 0.098 0.0
C1612 C 0.3861 0.19558 0.02629 0.0
C1613 C 0.36947 0.19155 0.0354 0.0
H1614 H 0.33963 0.18588 0.05758 0.0
H1615 H 0.33885 0.19291 0.09102 0.0
H1616 H 0.44594 0.21682 0.03279 0.0
H1617 H 0.42012 0.20533 0.01347 0.0
H1618 H 0.38686 0.19362 0.0116 0.0
H1619 H 0.35783 0.18637 0.02755 0.0
Mn1620 Mn 0.24872 0.38481 0.90191 0.0
Mn1621 Mn 0.20783 0.39916 0.91808 0.0
C1622 C 0.2451 0.39 0.93327 0.0
C1623 C 0.26804 0.36062 0.89341 0.0
C1624 C 0.23548 0.42469 0.89946 0.0
O1625 O 0.23138 0.37997 0.88018 0.0
O1626 O 0.20472 0.38755 0.89358 0.0
C1627 C 0.18935 0.36286 0.92275 0.0
N1628 N 0.19481 0.37948 0.92981 0.0
C1629 C 0.17766 0.3743 0.95757 0.0
C1630 C 0.17183 0.3571 0.95065 0.0
C1631 C 0.17785 0.35128 0.93323 0.0
C1632 C 0.18953 0.38498 0.94673 0.0
H1633 H 0.19361 0.35859 0.90918 0.0
C1634 C 0.21392 0.38131 0.88 0.0
O1635 O 0.2706 0.37725 0.88718 0.0
O1636 O 0.25398 0.35798 0.90403 0.0
N1637 N 0.20815 0.41078 0.94168 0.0
C1638 C 0.21568 0.42739 0.9466 0.0
C1639 C 0.21122 0.43516 0.96371 0.0
C1640 C 0.19871 0.42603 0.97531 0.0
C1641 C 0.1912 0.40889 0.96998 0.0
C1642 C 0.19641 0.40169 0.95293 0.0
H1643 H 0.22479 0.43478 0.93744 0.0
O1644 O 0.26126 0.38946 0.92586 0.0
O1645 O 0.2313 0.38675 0.92222 0.0
O1646 O 0.24814 0.41286 0.89693 0.0
O1647 O 0.22 0.42059 0.90664 0.0
C1648 C 0.17856 0.39878 0.98076 0.0
C1649 C 0.17199 0.38138 0.97468 0.0
H1650 H 0.16272 0.34827 0.95856 0.0
H1651 H 0.1734 0.33805 0.92777 0.0
H1652 H 0.21709 0.44836 0.96775 0.0
H1653 H 0.19495 0.43233 0.98828 0.0
H1654 H 0.17395 0.40414 0.99386 0.0
H1655 H 0.16258 0.37359 0.98327 0.0
Mn1656 Mn 0.59743 0.25457 0.89132 0.0
Mn1657 Mn 0.57471 0.29292 0.904 0.0
C1658 C 0.56585 0.25348 0.89428 0.0
C1659 C 0.6099 0.23661 0.8678 0.0
C1660 C 0.59545 0.2688 0.93105 0.0
O1661 O 0.61651 0.27491 0.88762 0.0
O1662 O 0.59953 0.2997 0.89458 0.0
C1663 C 0.57045 0.30956 0.8671 0.0
N1664 N 0.56281 0.3032 0.88298 0.0
C1665 C 0.53249 0.31112 0.87266 0.0
C1666 C 0.54004 0.31787 0.85623 0.0
C1667 C 0.5591 0.31703 0.85342 0.0
C1668 C 0.54449 0.30384 0.88579 0.0
H1669 H 0.5851 0.30891 0.86488 0.0
C1670 C 0.61451 0.2923 0.88924 0.0
O1671 O 0.61568 0.2352 0.88469 0.0
O1672 O 0.59739 0.24877 0.86462 0.0
N1673 N 0.55047 0.28876 0.91337 0.0
C1674 C 0.54531 0.28111 0.92971 0.0
C1675 C 0.52663 0.28049 0.93445 0.0
C1676 C 0.51348 0.28797 0.92251 0.0
C1677 C 0.51915 0.29611 0.90595 0.0
C1678 C 0.53797 0.29638 0.90198 0.0
H1679 H 0.55536 0.2754 0.93898 0.0
O1680 O 0.57534 0.23845 0.89457 0.0
O1681 O 0.57507 0.26878 0.8918 0.0
O1682 O 0.60071 0.25655 0.91953 0.0
O1683 O 0.58611 0.28291 0.92643 0.0
C1684 C 0.50686 0.3037 0.8931 0.0
C1685 C 0.51351 0.31113 0.87643 0.0
H1686 H 0.53132 0.32361 0.84563 0.0
H1687 H 0.56502 0.32214 0.84074 0.0
H1688 H 0.52237 0.27422 0.94728 0.0
H1689 H 0.49907 0.28732 0.92614 0.0
H1690 H 0.49223 0.30372 0.8958 0.0
H1691 H 0.50389 0.31671 0.86655 0.0
Mn1692 Mn 0.40337 0.75046 0.89449 0.0
Mn1693 Mn 0.42898 0.71329 0.90489 0.0
C1694 C 0.43506 0.75336 0.89638 0.0
C1695 C 0.38924 0.7682 0.87169 0.0
C1696 C 0.40794 0.73521 0.93358 0.0
O1697 O 0.38522 0.72902 0.89083 0.0
O1698 O 0.40428 0.70539 0.89615 0.0
C1699 C 0.4326 0.6982 0.86722 0.0
N1700 N 0.44053 0.7044 0.88309 0.0
C1701 C 0.47078 0.6979 0.87171 0.0
C1702 C 0.46294 0.69134 0.85526 0.0
C1703 C 0.44377 0.69157 0.85298 0.0
C1704 C 0.45896 0.70445 0.88535 0.0
H1705 H 0.41786 0.6983 0.86545 0.0
C1706 C 0.38854 0.71177 0.89173 0.0
O1707 O 0.38409 0.76931 0.88877 0.0
O1708 O 0.40203 0.75654 0.86793 0.0
N1709 N 0.45333 0.71846 0.9136 0.0
C1710 C 0.45873 0.72562 0.93014 0.0
C1711 C 0.47752 0.72665 0.93448 0.0
C1712 C 0.49054 0.71999 0.92195 0.0
C1713 C 0.48463 0.71229 0.9052 0.0
C1714 C 0.46573 0.71168 0.9016 0.0
H1715 H 0.44877 0.73058 0.93991 0.0
O1716 O 0.42474 0.76778 0.89744 0.0
O1717 O 0.4266 0.73766 0.89372 0.0
O1718 O 0.40142 0.74753 0.9228 0.0
O1719 O 0.41795 0.72193 0.92799 0.0
C1720 C 0.49676 0.70531 0.89187 0.0
C1721 C 0.48985 0.69827 0.87508 0.0
H1722 H 0.4715 0.68617 0.84427 0.0
H1723 H 0.43762 0.68659 0.84031 0.0
H1724 H 0.48197 0.73253 0.94748 0.0
H1725 H 0.50503 0.72088 0.92531 0.0
H1726 H 0.51144 0.70545 0.89433 0.0
H1727 H 0.49933 0.69319 0.86483 0.0
H1728 H 0.11781 0.38081 0.32096 0.0
H1729 H 0.11231 0.3478 0.27156 0.0
H1730 H 0.12168 0.35321 0.33901 0.0
H1731 H 0.11648 0.31969 0.28996 0.0
H1732 H 0.09418 0.27978 0.33845 0.0
H1733 H 0.09819 0.30278 0.31403 0.0
H1734 H 0.14253 0.3282 0.34499 0.0
H1735 H 0.13794 0.30574 0.36952 0.0
C1736 C 0.1176 0.36762 0.31388 0.0
C1737 C 0.11459 0.36654 0.2948 0.0
C1738 C 0.12006 0.35174 0.32425 0.0
C1739 C 0.11958 0.33422 0.31592 0.0
C1740 C 0.11692 0.33302 0.29676 0.0
C1741 C 0.1146 0.34908 0.28624 0.0
C1742 C 0.10519 0.28991 0.33962 0.0
C1743 C 0.11566 0.2912 0.35582 0.0
C1744 C 0.10751 0.30307 0.32567 0.0
C1745 C 0.12041 0.31756 0.32779 0.0
C1746 C 0.13218 0.31748 0.34317 0.0
C1747 C 0.12966 0.30458 0.35716 0.0
H1748 H 0.69265 0.11673 0.37991 0.0
H1749 H 0.73192 0.11283 0.33581 0.0
H1750 H 0.66818 0.12135 0.35773 0.0
H1751 H 0.70779 0.11899 0.31346 0.0
H1752 H 0.65783 0.10344 0.27796 0.0
H1753 H 0.68397 0.10494 0.29876 0.0
H1754 H 0.6522 0.13776 0.33677 0.0
H1755 H 0.62569 0.13479 0.31646 0.0
C1756 C 0.69611 0.11746 0.36544 0.0
C1757 C 0.71414 0.11429 0.35957 0.0
C1758 C 0.68205 0.12023 0.35261 0.0
C1759 C 0.68574 0.12041 0.33355 0.0
C1760 C 0.70412 0.11839 0.32786 0.0
C1761 C 0.71807 0.11508 0.3407 0.0
C1762 C 0.6566 0.11122 0.29064 0.0
C1763 C 0.63974 0.11891 0.29565 0.0
C1764 C 0.67166 0.11219 0.30264 0.0
C1765 C 0.67037 0.12131 0.31977 0.0
C1766 C 0.65373 0.13008 0.32409 0.0
C1767 C 0.63853 0.12862 0.31233 0.0
H1768 H 0.88669 0.67333 0.38003 0.0
H1769 H 0.88552 0.72053 0.34373 0.0
H1770 H 0.88172 0.65294 0.35438 0.0
H1771 H 0.87969 0.69971 0.31755 0.0
H1772 H 0.89931 0.65258 0.27684 0.0
H1773 H 0.89624 0.67727 0.29962 0.0
H1774 H 0.86126 0.64165 0.33234 0.0
H1775 H 0.86543 0.61678 0.31022 0.0
C1776 C 0.88508 0.67944 0.36654 0.0
C1777 C 0.88676 0.69862 0.36396 0.0
C1778 C 0.88194 0.66765 0.35173 0.0
C1779 C 0.88016 0.67459 0.33379 0.0
C1780 C 0.88113 0.69387 0.33118 0.0
C1781 C 0.88434 0.70581 0.34617 0.0
C1782 C 0.8907 0.65024 0.28876 0.0
C1783 C 0.88288 0.63273 0.292 0.0
C1784 C 0.88884 0.66441 0.30178 0.0
C1785 C 0.87885 0.66135 0.31808 0.0
C1786 C 0.86958 0.64432 0.32028 0.0
C1787 C 0.87184 0.63008 0.30756 0.0
H1788 H 0.33275 0.88887 0.26523 0.0
H1789 H 0.37386 0.88066 0.30719 0.0
H1790 H 0.30866 0.88605 0.28822 0.0
H1791 H 0.34984 0.87887 0.33053 0.0
H1792 H 0.2743 0.90894 0.3349 0.0
H1793 H 0.297 0.90476 0.31113 0.0
H1794 H 0.32437 0.86413 0.34467 0.0
H1795 H 0.30179 0.86905 0.36907 0.0
C1796 C 0.33662 0.88639 0.27941 0.0
C1797 C 0.35518 0.88516 0.28444 0.0
C1798 C 0.32281 0.88492 0.29267 0.0
C1799 C 0.32721 0.88262 0.31141 0.0
C1800 C 0.34582 0.8805 0.31628 0.0
C1801 C 0.35964 0.88161 0.30291 0.0
C1802 C 0.28502 0.89894 0.3372 0.0
C1803 C 0.28623 0.88937 0.35395 0.0
C1804 C 0.29805 0.89641 0.32342 0.0
C1805 C 0.31262 0.88403 0.32581 0.0
C1806 C 0.31351 0.87396 0.34238 0.0
C1807 C 0.30048 0.87665 0.35632 0.0
H1808 H 0.12236 0.62909 0.69404 0.0
H1809 H 0.11525 0.67033 0.73627 0.0
H1810 H 0.12405 0.65332 0.67075 0.0
H1811 H 0.11806 0.69462 0.71335 0.0
H1812 H 0.09485 0.72978 0.66758 0.0
H1813 H 0.09926 0.7067 0.69098 0.0
H1814 H 0.13833 0.67885 0.65617 0.0
H1815 H 0.13311 0.70187 0.63206 0.0
C1816 C 0.12166 0.64338 0.69839 0.0
C1817 C 0.11842 0.64782 0.71693 0.0
C1818 C 0.12271 0.65733 0.68504 0.0
C1819 C 0.12086 0.67605 0.69 0.0
C1820 C 0.11894 0.6804 0.70881 0.0
C1821 C 0.11749 0.66648 0.72204 0.0
C1822 C 0.10456 0.71888 0.66489 0.0
C1823 C 0.1136 0.7177 0.64787 0.0
C1824 C 0.10724 0.70562 0.67849 0.0
C1825 C 0.11927 0.69081 0.67568 0.0
C1826 C 0.12879 0.6899 0.65881 0.0
C1827 C 0.12593 0.70318 0.64503 0.0
H1828 H 0.27812 0.09728 0.65862 0.0
H1829 H 0.30819 0.14306 0.63515 0.0
H1830 H 0.29778 0.09854 0.68583 0.0
H1831 H 0.32715 0.1453 0.66272 0.0
H1832 H 0.37489 0.12334 0.69738 0.0
H1833 H 0.35152 0.12871 0.67417 0.0
H1834 H 0.30936 0.11182 0.71269 0.0
H1835 H 0.33302 0.10547 0.73554 0.0
C1836 C 0.28847 0.1081 0.65968 0.0
C1837 C 0.29173 0.12003 0.64487 0.0
C1838 C 0.29979 0.10889 0.67528 0.0
C1839 C 0.31439 0.12184 0.67644 0.0
C1840 C 0.31649 0.13477 0.66215 0.0
C1841 C 0.30547 0.13368 0.64642 0.0
C1842 C 0.36061 0.12105 0.70096 0.0
C1843 C 0.35579 0.11382 0.71819 0.0
C1844 C 0.34711 0.12424 0.68767 0.0
C1845 C 0.32841 0.12062 0.69141 0.0
C1846 C 0.32359 0.11439 0.7091 0.0
C1847 C 0.33714 0.11087 0.72227 0.0
H1848 H 0.86913 0.30358 0.62461 0.0
H1849 H 0.90144 0.27471 0.66507 0.0
H1850 H 0.86513 0.32907 0.64632 0.0
H1851 H 0.89793 0.30023 0.68646 0.0
H1852 H 0.88296 0.34518 0.72587 0.0
H1853 H 0.87864 0.31828 0.70594 0.0
H1854 H 0.88472 0.35312 0.65811 0.0
H1855 H 0.88849 0.37992 0.67785 0.0
C1856 C 0.87516 0.30255 0.63821 0.0
C1857 C 0.88572 0.28718 0.64304 0.0
C1858 C 0.873 0.31722 0.65062 0.0
C1859 C 0.88137 0.31685 0.66812 0.0
C1860 C 0.89111 0.30099 0.67323 0.0
C1861 C 0.89323 0.28636 0.66087 0.0
C1862 C 0.8831 0.34715 0.7111 0.0
C1863 C 0.88629 0.36476 0.70354 0.0
C1864 C 0.88072 0.33168 0.69965 0.0
C1865 C 0.88146 0.33345 0.68037 0.0
C1866 C 0.88384 0.35118 0.67285 0.0
C1867 C 0.88619 0.3666 0.68425 0.0
H1868 H 0.6916 0.86083 0.63253 0.0
H1869 H 0.72251 0.9046 0.65893 0.0
H1870 H 0.67239 0.85759 0.65969 0.0
H1871 H 0.70255 0.90241 0.68577 0.0
H1872 H 0.66651 0.89365 0.73453 0.0
H1873 H 0.69032 0.88806 0.71171 0.0
H1874 H 0.64832 0.87416 0.6716 0.0
H1875 H 0.62481 0.87874 0.69468 0.0
C1876 C 0.69441 0.86957 0.64433 0.0
C1877 C 0.70846 0.88296 0.64371 0.0
C1878 C 0.68326 0.8679 0.65984 0.0
C1879 C 0.68552 0.88003 0.67485 0.0
C1880 C 0.70041 0.89269 0.67462 0.0
C1881 C 0.71188 0.89401 0.65923 0.0
C1882 C 0.66246 0.88905 0.7209 0.0
C1883 C 0.64381 0.88671 0.71634 0.0
C1884 C 0.6761 0.88598 0.70776 0.0
C1885 C 0.67137 0.88081 0.68966 0.0
C1886 C 0.65266 0.8778 0.68541 0.0
C1887 C 0.63908 0.88055 0.69864 0.0
H1888 H 0.37896 0.12264 0.311 0.0
H1889 H 0.33574 0.11576 0.27074 0.0
H1890 H 0.35625 0.12714 0.3349 0.0
H1891 H 0.31282 0.12152 0.29439 0.0
H1892 H 0.27826 0.10483 0.34496 0.0
H1893 H 0.29889 0.10672 0.31871 0.0
H1894 H 0.3343 0.14426 0.34926 0.0
H1895 H 0.31425 0.14114 0.37584 0.0
C1896 C 0.36456 0.12263 0.30719 0.0
C1897 C 0.35912 0.11871 0.28906 0.0
C1898 C 0.35144 0.12534 0.3209 0.0
C1899 C 0.33251 0.12461 0.31675 0.0
C1900 C 0.32717 0.12173 0.29831 0.0
C1901 C 0.34032 0.1186 0.28467 0.0
C1902 C 0.2903 0.11373 0.34587 0.0
C1903 C 0.29478 0.1227 0.36243 0.0
C1904 C 0.30217 0.11491 0.33078 0.0
C1905 C 0.31857 0.12544 0.33181 0.0
C1906 C 0.32219 0.13552 0.34804 0.0
C1907 C 0.31059 0.13393 0.36325 0.0
H1908 H 0.87724 0.30985 0.3727 0.0
H1909 H 0.87943 0.26604 0.33249 0.0
H1910 H 0.8752 0.33259 0.34797 0.0
H1911 H 0.87629 0.28844 0.30782 0.0
H1912 H 0.90194 0.33202 0.27079 0.0
H1913 H 0.8966 0.30938 0.29456 0.0
H1914 H 0.86052 0.34715 0.3226 0.0
H1915 H 0.8666 0.37038 0.29882 0.0
C1916 C 0.87666 0.30505 0.35858 0.0
C1917 C 0.87872 0.28622 0.35448 0.0
C1918 C 0.87545 0.31808 0.34436 0.0
C1919 C 0.876 0.31246 0.32578 0.0
C1920 C 0.87646 0.29341 0.32188 0.0
C1921 C 0.87807 0.2805 0.33603 0.0
C1922 C 0.89269 0.33551 0.28188 0.0
C1923 C 0.88475 0.35307 0.28289 0.0
C1924 C 0.88947 0.32238 0.29554 0.0
C1925 C 0.878 0.32627 0.31059 0.0
C1926 C 0.86958 0.34369 0.31135 0.0
C1927 C 0.87294 0.35697 0.29765 0.0
H1928 H 0.72354 0.89452 0.34563 0.0
H1929 H 0.68948 0.8591 0.37924 0.0
H1930 H 0.70005 0.89377 0.32139 0.0
H1931 H 0.66645 0.85769 0.35495 0.0
H1932 H 0.61942 0.88692 0.32617 0.0
H1933 H 0.64548 0.88124 0.34594 0.0
H1934 H 0.6808 0.87734 0.29844 0.0
H1935 H 0.65447 0.88349 0.27837 0.0
C1936 C 0.71136 0.886 0.34751 0.0
C1937 C 0.70819 0.87704 0.36434 0.0
C1938 C 0.69789 0.88558 0.33366 0.0
C1939 C 0.68116 0.87603 0.33643 0.0
C1940 C 0.67892 0.86562 0.35259 0.0
C1941 C 0.69219 0.86628 0.36645 0.0
C1942 C 0.63267 0.88478 0.31981 0.0
C1943 C 0.63479 0.88575 0.30062 0.0
C1944 C 0.64766 0.88131 0.3312 0.0
C1945 C 0.66525 0.87864 0.32379 0.0
C1946 C 0.66744 0.8794 0.30458 0.0
C1947 C 0.65233 0.88284 0.29309 0.0
H1948 H 0.09745 0.66685 0.27522 0.0
H1949 H 0.14148 0.6386 0.30263 0.0
H1950 H 0.10165 0.6932 0.29583 0.0
H1951 H 0.14664 0.66526 0.32258 0.0
H1952 H 0.12862 0.69957 0.37264 0.0
H1953 H 0.13191 0.67704 0.34808 0.0
H1954 H 0.11729 0.71856 0.30806 0.0
H1955 H 0.11303 0.74075 0.33289 0.0
C1956 C 0.10857 0.66668 0.28516 0.0
C1957 C 0.11913 0.65079 0.2874 0.0
C1958 C 0.11103 0.68177 0.29704 0.0
C1959 C 0.12431 0.68134 0.31122 0.0
C1960 C 0.13591 0.66595 0.31227 0.0
C1961 C 0.13316 0.65075 0.30067 0.0
C1962 C 0.12644 0.70395 0.35856 0.0
C1963 C 0.1204 0.72185 0.35471 0.0
C1964 C 0.12842 0.69104 0.34437 0.0
C1965 C 0.12471 0.69582 0.32593 0.0
C1966 C 0.11983 0.71417 0.32206 0.0
C1967 C 0.11754 0.72697 0.33629 0.0
H1968 H 0.37523 0.88535 0.67868 0.0
H1969 H 0.34198 0.87789 0.72734 0.0
H1970 H 0.34798 0.88295 0.65953 0.0
H1971 H 0.31453 0.87515 0.70796 0.0
H1972 H 0.27088 0.90061 0.66796 0.0
H1973 H 0.29644 0.89605 0.68907 0.0
H1974 H 0.32369 0.86281 0.6482 0.0
H1975 H 0.2982 0.86769 0.62689 0.0
C1976 C 0.36212 0.88299 0.68533 0.0
C1977 C 0.36084 0.88201 0.70463 0.0
C1978 C 0.34645 0.88142 0.67428 0.0
C1979 C 0.32901 0.87885 0.68216 0.0
C1980 C 0.32774 0.8773 0.70144 0.0
C1981 C 0.34349 0.87878 0.71254 0.0
C1982 C 0.28217 0.89204 0.66357 0.0
C1983 C 0.28258 0.88467 0.64565 0.0
C1984 C 0.29681 0.88935 0.67574 0.0
C1985 C 0.31225 0.87923 0.67029 0.0
C1986 C 0.31215 0.87095 0.65274 0.0
C1987 C 0.29748 0.87362 0.64056 0.0
H1988 H 0.10225 0.34625 0.71832 0.0
H1989 H 0.13785 0.38109 0.68575 0.0
H1990 H 0.10568 0.32123 0.6959 0.0
H1991 H 0.14236 0.35594 0.66407 0.0
H1992 H 0.11926 0.32374 0.61582 0.0
H1993 H 0.12271 0.34452 0.64139 0.0
H1994 H 0.12284 0.29832 0.67898 0.0
H1995 H 0.11854 0.27709 0.65285 0.0
C1996 C 0.11126 0.34832 0.70666 0.0
C1997 C 0.11952 0.36565 0.70353 0.0
C1998 C 0.11333 0.33397 0.69385 0.0
C1999 C 0.12396 0.33667 0.6779 0.0
C2000 C 0.13355 0.35354 0.67583 0.0
C2001 C 0.13109 0.36795 0.68831 0.0
C2002 C 0.12011 0.31783 0.62947 0.0
C2003 C 0.1184 0.29867 0.63222 0.0
C2004 C 0.12236 0.32985 0.64424 0.0
C2005 C 0.12322 0.32319 0.66236 0.0
C2006 C 0.12212 0.30395 0.66521 0.0
C2007 C 0.11978 0.29177 0.65025 0.0
H2008 H 0.73471 0.11471 0.67026 0.0
H2009 H 0.6939 0.12458 0.62841 0.0
H2010 H 0.71155 0.11826 0.69403 0.0
H2011 H 0.67032 0.12705 0.6521 0.0
H2012 H 0.63155 0.13767 0.69995 0.0
H2013 H 0.65608 0.14156 0.67725 0.0
H2014 H 0.68792 0.10029 0.7056 0.0
H2015 H 0.66401 0.09717 0.72845 0.0
C2016 C 0.72076 0.11781 0.66617 0.0
C2017 C 0.7161 0.11927 0.64749 0.0
C2018 C 0.70738 0.11964 0.67979 0.0
C2019 C 0.68883 0.12247 0.67509 0.0
C2020 C 0.68439 0.12497 0.65637 0.0
C2021 C 0.69792 0.12353 0.64273 0.0
C2022 C 0.64392 0.12963 0.70138 0.0
C2023 C 0.64583 0.11716 0.71605 0.0
C2024 C 0.65796 0.13175 0.6883 0.0
C2025 C 0.67417 0.12132 0.6895 0.0
C2026 C 0.67598 0.10897 0.70433 0.0
C2027 C 0.66211 0.10703 0.71744 0.0
H2028 H 0.8618 0.68825 0.62745 0.0
H2029 H 0.8977 0.72497 0.65792 0.0
H2030 H 0.85886 0.66832 0.65417 0.0
H2031 H 0.89607 0.70439 0.68435 0.0
H2032 H 0.88789 0.66738 0.73245 0.0
H2033 H 0.88176 0.6903 0.70879 0.0
H2034 H 0.87603 0.64644 0.66852 0.0
H2035 H 0.88088 0.62371 0.69249 0.0
C2036 C 0.86892 0.69212 0.64 0.0
C2037 C 0.87998 0.70811 0.64067 0.0
C2038 C 0.86746 0.68057 0.65529 0.0
C2039 C 0.87755 0.68437 0.67145 0.0
C2040 C 0.88789 0.70096 0.67234 0.0
C2041 C 0.88891 0.71281 0.65716 0.0
C2042 C 0.88495 0.66271 0.71857 0.0
C2043 C 0.88491 0.64379 0.71426 0.0
C2044 C 0.88161 0.67585 0.70493 0.0
C2045 C 0.87859 0.6704 0.68654 0.0
C2046 C 0.87793 0.65134 0.68248 0.0
C2047 C 0.88084 0.6382 0.69622 0.0
H2048 H 0.27217 0.33545 0.1281 0.0
H2049 H 0.31261 0.37869 0.12032 0.0
H2050 H 0.29648 0.31333 0.13358 0.0
H2051 H 0.33719 0.35632 0.12455 0.0
H2052 H 0.37895 0.31145 0.13625 0.0
H2053 H 0.35489 0.33434 0.14151 0.0
H2054 H 0.31594 0.29897 0.11286 0.0
H2055 H 0.33939 0.27626 0.10839 0.0
C2056 C 0.28633 0.34022 0.12777 0.0
C2057 C 0.29058 0.35866 0.1236 0.0
C2058 C 0.3003 0.32754 0.13075 0.0
C2059 C 0.31887 0.33287 0.12896 0.0
C2060 C 0.32309 0.35168 0.12608 0.0
C2061 C 0.30902 0.36451 0.12359 0.0
C2062 C 0.36514 0.30854 0.1314 0.0
C2063 C 0.3611 0.29205 0.12188 0.0
C2064 C 0.35138 0.32167 0.13431 0.0
C2065 C 0.33337 0.31853 0.12772 0.0
C2066 C 0.32943 0.30181 0.11859 0.0
C2067 C 0.34303 0.28876 0.11582 0.0
H2068 H 0.35276 0.71788 0.88053 0.0
H2069 H 0.39033 0.67441 0.89506 0.0
H2070 H 0.32837 0.69471 0.87583 0.0
H2071 H 0.36619 0.65174 0.89107 0.0
H2072 H 0.28627 0.64825 0.89405 0.0
H2073 H 0.30882 0.67353 0.8927 0.0
H2074 H 0.3483 0.6363 0.86893 0.0
H2075 H 0.32617 0.61105 0.87123 0.0
C2076 C 0.35585 0.70345 0.88268 0.0
C2077 C 0.37357 0.69808 0.88814 0.0
C2078 C 0.34185 0.69018 0.88008 0.0
C2079 C 0.3453 0.67128 0.88289 0.0
C2080 C 0.36305 0.66604 0.88827 0.0
C2081 C 0.37695 0.67918 0.89075 0.0
C2082 C 0.29969 0.64561 0.88828 0.0
C2083 C 0.30458 0.62763 0.88302 0.0
C2084 C 0.31261 0.66011 0.88744 0.0
C2085 C 0.33056 0.6569 0.88108 0.0
C2086 C 0.33484 0.63918 0.87448 0.0
C2087 C 0.3221 0.6247 0.87566 0.0
H2088 H 0.2622 0.32358 0.89706 0.0
H2089 H 0.30384 0.36373 0.88232 0.0
H2090 H 0.28466 0.29904 0.89489 0.0
H2091 H 0.32666 0.33937 0.88109 0.0
H2092 H 0.36333 0.29035 0.87108 0.0
H2093 H 0.33902 0.31301 0.86715 0.0
H2094 H 0.30901 0.28788 0.91205 0.0
H2095 H 0.33276 0.26492 0.91529 0.0
C2096 C 0.27619 0.32714 0.89329 0.0
C2097 C 0.28127 0.3456 0.88996 0.0
C2098 C 0.28915 0.31308 0.8922 0.0
C2099 C 0.30767 0.31713 0.88813 0.0
C2100 C 0.31256 0.33558 0.88409 0.0
C2101 C 0.29948 0.34962 0.88486 0.0
C2102 C 0.35139 0.28956 0.87991 0.0
C2103 C 0.34998 0.27581 0.89348 0.0
C2104 C 0.33749 0.30266 0.87777 0.0
C2105 C 0.32194 0.30243 0.88929 0.0
C2106 C 0.32049 0.2884 0.90262 0.0
C2107 C 0.33423 0.27523 0.90459 0.0
H2108 H 0.64971 0.28291 0.87927 0.0
H2109 H 0.61536 0.32996 0.89041 0.0
H2110 H 0.67593 0.30374 0.87433 0.0
H2111 H 0.6414 0.35046 0.88601 0.0
H2112 H 0.72048 0.34784 0.89403 0.0
H2113 H 0.69621 0.3242 0.89208 0.0
H2114 H 0.66154 0.3627 0.86328 0.0
H2115 H 0.68538 0.38634 0.86594 0.0
C2116 C 0.6477 0.29765 0.88058 0.0
C2117 C 0.63038 0.30472 0.88528 0.0
C2118 C 0.66276 0.30957 0.87784 0.0
C2119 C 0.66078 0.32879 0.87966 0.0
C2120 C 0.6434 0.33578 0.88409 0.0
C2121 C 0.62843 0.32395 0.8868 0.0
C2122 C 0.70782 0.35103 0.8869 0.0
C2123 C 0.70468 0.36896 0.88037 0.0
C2124 C 0.69391 0.33751 0.88576 0.0
C2125 C 0.67675 0.34169 0.87789 0.0
C2126 C 0.67436 0.35917 0.86992 0.0
C2127 C 0.68808 0.37269 0.87131 0.0
H2128 H 0.68698 0.62481 0.87657 0.0
H2129 H 0.7302 0.6657 0.87157 0.0
H2130 H 0.66398 0.64905 0.87394 0.0
H2131 H 0.70744 0.68976 0.86777 0.0
H2132 H 0.66705 0.72756 0.8962 0.0
H2133 H 0.68895 0.70366 0.88994 0.0
H2134 H 0.64799 0.67348 0.85843 0.0
H2135 H 0.62554 0.69751 0.8654 0.0
C2136 C 0.69151 0.63891 0.87422 0.0
C2137 C 0.71029 0.64351 0.87455 0.0
C2138 C 0.67836 0.65281 0.87266 0.0
C2139 C 0.68384 0.67147 0.87111 0.0
C2140 C 0.7027 0.67565 0.86958 0.0
C2141 C 0.71577 0.66187 0.87159 0.0
C2142 C 0.66266 0.71596 0.88777 0.0
C2143 C 0.6445 0.71442 0.88137 0.0
C2144 C 0.67536 0.70225 0.88398 0.0
C2145 C 0.67037 0.68663 0.8735 0.0
C2146 C 0.65228 0.68526 0.86664 0.0
C2147 C 0.63945 0.69906 0.87054 0.0
H2148 H 0.67085 0.7424 0.10506 0.0
H2149 H 0.63119 0.69989 0.11868 0.0
H2150 H 0.69545 0.71999 0.10697 0.0
H2151 H 0.6556 0.67713 0.11959 0.0
H2152 H 0.70453 0.6404 0.12907 0.0
H2153 H 0.68173 0.66454 0.13334 0.0
H2154 H 0.70696 0.69605 0.08948 0.0
H2155 H 0.73006 0.67248 0.08596 0.0
C2156 C 0.66741 0.72824 0.10853 0.0
C2157 C 0.64908 0.72289 0.11163 0.0
C2158 C 0.6815 0.7153 0.10946 0.0
C2159 C 0.6776 0.69656 0.11311 0.0
C2160 C 0.65928 0.6914 0.11692 0.0
C2161 C 0.64521 0.70445 0.11633 0.0
C2162 C 0.70529 0.65263 0.12054 0.0
C2163 C 0.71912 0.65452 0.1072 0.0
C2164 C 0.69213 0.66643 0.12287 0.0
C2165 C 0.69235 0.68236 0.11175 0.0
C2166 C 0.70643 0.68427 0.09861 0.0
C2167 C 0.71968 0.67063 0.09648 0.0
H2168 H 0.38407 0.67716 0.13248 0.0
H2169 H 0.34772 0.71508 0.10528 0.0
H2170 H 0.35892 0.65506 0.13584 0.0
H2171 H 0.32262 0.69248 0.10756 0.0
H2172 H 0.27816 0.64928 0.119 0.0
H2173 H 0.30084 0.67404 0.12414 0.0
H2174 H 0.34453 0.63508 0.1153 0.0
H2175 H 0.3223 0.61063 0.11107 0.0
C2176 C 0.37062 0.68079 0.12731 0.0
C2177 C 0.36789 0.69773 0.11844 0.0
C2178 C 0.35619 0.66807 0.12909 0.0
C2179 C 0.33877 0.67171 0.12154 0.0
C2180 C 0.33578 0.68917 0.11363 0.0
C2181 C 0.35018 0.70212 0.11224 0.0
C2182 C 0.29262 0.64601 0.11848 0.0
C2183 C 0.29832 0.62792 0.11453 0.0
C2184 C 0.30564 0.66023 0.12129 0.0
C2185 C 0.32461 0.65665 0.12021 0.0
C2186 C 0.33015 0.63845 0.1167 0.0
C2187 C 0.31726 0.62434 0.11404 0.0
H2188 H 0.72404 0.34945 0.09856 0.0
H2189 H 0.68978 0.38375 0.13245 0.0
H2190 H 0.70182 0.32397 0.10159 0.0
H2191 H 0.66823 0.35822 0.13645 0.0
H2192 H 0.62126 0.32365 0.11386 0.0
H2193 H 0.64621 0.34551 0.11677 0.0
H2194 H 0.68503 0.30084 0.11882 0.0
H2195 H 0.65964 0.27854 0.1151 0.0
C2196 C 0.71205 0.35133 0.10713 0.0
C2197 C 0.70847 0.36864 0.11505 0.0
C2198 C 0.69932 0.33672 0.10892 0.0
C2199 C 0.68295 0.33911 0.11892 0.0
C2200 C 0.68032 0.35601 0.12812 0.0
C2201 C 0.69276 0.37064 0.12598 0.0
C2202 C 0.63505 0.3183 0.11505 0.0
C2203 C 0.63835 0.29922 0.11411 0.0
C2204 C 0.64947 0.33096 0.11694 0.0
C2205 C 0.66776 0.32505 0.1182 0.0
C2206 C 0.67114 0.30592 0.11776 0.0
C2207 C 0.65658 0.29312 0.11577 0.0
H2208 H 0.61746 0.84807 0.77213 0.0
H2209 H 0.59572 0.87767 0.81893 0.0
H2210 H 0.62375 0.82151 0.79224 0.0
H2211 H 0.60209 0.8516 0.83851 0.0
H2212 H 0.63514 0.81636 0.87329 0.0
H2213 H 0.6344 0.8378 0.84761 0.0
H2214 H 0.60307 0.79823 0.81559 0.0
H2215 H 0.60405 0.77638 0.84146 0.0
C2216 C 0.61391 0.8489 0.78657 0.0
C2217 C 0.60624 0.86511 0.7939 0.0
C2218 C 0.61751 0.83373 0.79801 0.0
C2219 C 0.6137 0.83473 0.81692 0.0
C2220 C 0.60549 0.85064 0.82403 0.0
C2221 C 0.60177 0.86557 0.81271 0.0
C2222 C 0.62861 0.81195 0.86059 0.0
C2223 C 0.61943 0.79484 0.85943 0.0
C2224 C 0.62818 0.82423 0.8459 0.0
C2225 C 0.6184 0.81974 0.82982 0.0
C2226 C 0.61073 0.80194 0.82788 0.0
C2227 C 0.61129 0.78949 0.84264 0.0
H2228 H 0.23242 0.5944 0.83193 0.0
H2229 H 0.2097 0.63329 0.87058 0.0
H2230 H 0.20733 0.60029 0.81069 0.0
H2231 H 0.18485 0.63975 0.849 0.0
H2232 H 0.13057 0.62004 0.82204 0.0
H2233 H 0.15846 0.62256 0.84001 0.0
H2234 H 0.19072 0.62006 0.79024 0.0
H2235 H 0.16248 0.61689 0.77208 0.0
C2236 C 0.2223 0.60457 0.83571 0.0
C2237 C 0.22289 0.61316 0.85307 0.0
C2238 C 0.20794 0.60806 0.82344 0.0
C2239 C 0.19388 0.62034 0.82818 0.0
C2240 C 0.19522 0.6299 0.84504 0.0
C2241 C 0.20952 0.62629 0.85739 0.0
C2242 C 0.14357 0.62021 0.81481 0.0
C2243 C 0.14425 0.61794 0.79559 0.0
C2244 C 0.15965 0.62188 0.82517 0.0
C2245 C 0.17693 0.62142 0.81665 0.0
C2246 C 0.17764 0.6202 0.7973 0.0
C2247 C 0.16146 0.61852 0.78686 0.0
H2248 H 0.36454 0.11327 0.8157 0.0
H2249 H 0.39923 0.1497 0.78386 0.0
H2250 H 0.35876 0.13806 0.83748 0.0
H2251 H 0.39457 0.17435 0.8064 0.0
H2252 H 0.3812 0.2177 0.84917 0.0
H2253 H 0.3769 0.19649 0.82306 0.0
H2254 H 0.37694 0.15029 0.86069 0.0
H2255 H 0.38033 0.17114 0.88627 0.0
C2256 C 0.37084 0.12668 0.81334 0.0
C2257 C 0.38251 0.12954 0.79828 0.0
C2258 C 0.36765 0.14089 0.82588 0.0
C2259 C 0.3766 0.15813 0.82406 0.0
C2260 C 0.38737 0.16133 0.80827 0.0
C2261 C 0.39015 0.14719 0.7954 0.0
C2262 C 0.37982 0.20303 0.85178 0.0
C2263 C 0.3813 0.19613 0.86979 0.0
C2264 C 0.37754 0.19085 0.83683 0.0
C2265 C 0.37661 0.17159 0.83966 0.0
C2266 C 0.37723 0.16495 0.85781 0.0
C2267 C 0.37942 0.177 0.87259 0.0
H2268 H 0.87549 0.37745 0.80776 0.0
H2269 H 0.83524 0.38369 0.76465 0.0
H2270 H 0.8509 0.37457 0.83043 0.0
H2271 H 0.81063 0.3796 0.7869 0.0
H2272 H 0.8023 0.36515 0.86828 0.0
H2273 H 0.82551 0.35984 0.84454 0.0
H2274 H 0.79775 0.39834 0.80886 0.0
H2275 H 0.77448 0.40281 0.83193 0.0
C2276 C 0.86135 0.3776 0.80308 0.0
C2277 C 0.85724 0.38104 0.78451 0.0
C2278 C 0.8472 0.37589 0.81606 0.0
C2279 C 0.82865 0.37725 0.81066 0.0
C2280 C 0.82469 0.37913 0.79177 0.0
C2281 C 0.83879 0.38129 0.77893 0.0
C2282 C 0.80104 0.37215 0.85519 0.0
C2283 C 0.78653 0.3844 0.85202 0.0
C2284 C 0.81443 0.36925 0.84162 0.0
C2285 C 0.81364 0.37863 0.82464 0.0
C2286 C 0.79877 0.39047 0.82146 0.0
C2287 C 0.7854 0.3932 0.83486 0.0
H2288 H 0.62064 0.23655 0.16751 0.0
H2289 H 0.62764 0.19375 0.12685 0.0
H2290 H 0.62402 0.21396 0.19197 0.0
H2291 H 0.62989 0.17077 0.15127 0.0
H2292 H 0.63869 0.13251 0.19985 0.0
H2293 H 0.64407 0.15652 0.17672 0.0
H2294 H 0.60511 0.19153 0.20446 0.0
H2295 H 0.60053 0.16815 0.22768 0.0
C2296 C 0.62309 0.22228 0.16383 0.0
C2297 C 0.62375 0.21689 0.14529 0.0
C2298 C 0.62483 0.20924 0.17785 0.0
C2299 C 0.62674 0.19033 0.17372 0.0
C2300 C 0.62853 0.18514 0.1551 0.0
C2301 C 0.6272 0.19832 0.14104 0.0
C2302 C 0.63155 0.14549 0.2011 0.0
C2303 C 0.6192 0.1484 0.21563 0.0
C2304 C 0.63451 0.15923 0.18776 0.0
C2305 C 0.62508 0.17612 0.1886 0.0
C2306 C 0.61302 0.17901 0.20342 0.0
C2307 C 0.61024 0.16544 0.21676 0.0
H2308 H 0.83512 0.59959 0.22216 0.0
H2309 H 0.87451 0.63618 0.19627 0.0
H2310 H 0.81329 0.60536 0.19753 0.0
H2311 H 0.85238 0.64243 0.17181 0.0
H2312 H 0.82301 0.62046 0.11956 0.0
H2313 H 0.84192 0.62347 0.14678 0.0
H2314 H 0.79325 0.62596 0.18056 0.0
H2315 H 0.77403 0.62248 0.15294 0.0
C2316 C 0.83898 0.6092 0.21141 0.0
C2317 C 0.85668 0.61719 0.21099 0.0
C2318 C 0.82636 0.61264 0.19734 0.0
C2319 C 0.83112 0.6242 0.18255 0.0
C2320 C 0.84839 0.63318 0.18283 0.0
C2321 C 0.86106 0.62967 0.19687 0.0
C2322 C 0.81623 0.62182 0.13274 0.0
C2323 C 0.79697 0.62092 0.13408 0.0
C2324 C 0.82715 0.62379 0.1484 0.0
C2325 C 0.81916 0.62493 0.16592 0.0
C2326 C 0.79984 0.62492 0.16726 0.0
C2327 C 0.78883 0.62303 0.15146 0.0
H2328 H 0.40372 0.76898 0.16859 0.0
H2329 H 0.36328 0.79235 0.13211 0.0
H2330 H 0.39904 0.79402 0.19032 0.0
H2331 H 0.35799 0.8171 0.15425 0.0
H2332 H 0.37939 0.87141 0.18006 0.0
H2333 H 0.37558 0.84341 0.16233 0.0
H2334 H 0.38099 0.81098 0.21188 0.0
H2335 H 0.3855 0.8394 0.22978 0.0
C2336 C 0.39346 0.77922 0.16541 0.0
C2337 C 0.38409 0.77885 0.14846 0.0
C2338 C 0.39066 0.79355 0.17799 0.0
C2339 C 0.37832 0.8078 0.17398 0.0
C2340 C 0.36793 0.80662 0.15762 0.0
C2341 C 0.37087 0.79237 0.14494 0.0
C2342 C 0.3796 0.85836 0.18731 0.0
C2343 C 0.38308 0.85769 0.20635 0.0
C2344 C 0.37717 0.84221 0.17709 0.0
C2345 C 0.37804 0.82483 0.18559 0.0
C2346 C 0.38049 0.82412 0.20483 0.0
C2347 C 0.38294 0.84041 0.21513 0.0
H2348 H 0.19065 0.3614 0.13141 0.0
H2349 H 0.22581 0.40112 0.1589 0.0
H2350 H 0.17099 0.35977 0.15835 0.0
H2351 H 0.20548 0.40068 0.18549 0.0
H2352 H 0.16906 0.39371 0.2344 0.0
H2353 H 0.19207 0.38714 0.21105 0.0
H2354 H 0.14868 0.37784 0.17113 0.0
H2355 H 0.1259 0.38326 0.19477 0.0
C2356 C 0.19424 0.36966 0.14336 0.0
C2357 C 0.20968 0.38142 0.14311 0.0
C2358 C 0.18284 0.36893 0.15875 0.0
C2359 C 0.18628 0.38042 0.17406 0.0
C2360 C 0.20237 0.39147 0.17412 0.0
C2361 C 0.21406 0.3918 0.15886 0.0
C2362 C 0.16451 0.38995 0.22068 0.0
C2363 C 0.14571 0.38904 0.21637 0.0
C2364 C 0.17771 0.38632 0.20722 0.0
C2365 C 0.17238 0.38208 0.18904 0.0
C2366 C 0.15346 0.38068 0.18498 0.0
C2367 C 0.14031 0.38392 0.19852 0.0
H2368 H 0.77597 0.60081 0.83826 0.0
H2369 H 0.80778 0.64029 0.86992 0.0
H2370 H 0.79916 0.60199 0.81381 0.0
H2371 H 0.8305 0.64194 0.84546 0.0
H2372 H 0.87878 0.61143 0.82046 0.0
H2373 H 0.85188 0.61664 0.83897 0.0
H2374 H 0.81842 0.61993 0.78996 0.0
H2375 H 0.84578 0.6145 0.77099 0.0
C2376 C 0.78752 0.61029 0.83963 0.0
C2377 C 0.79029 0.62026 0.85603 0.0
C2378 C 0.80078 0.61096 0.82566 0.0
C2379 C 0.81685 0.62172 0.82795 0.0
C2380 C 0.81848 0.63318 0.84352 0.0
C2381 C 0.80544 0.63232 0.85748 0.0
C2382 C 0.86577 0.61327 0.81346 0.0
C2383 C 0.8645 0.6125 0.79417 0.0
C2384 C 0.85032 0.61648 0.82414 0.0
C2385 C 0.83306 0.619 0.81593 0.0
C2386 C 0.83159 0.61811 0.79664 0.0
C2387 C 0.84723 0.61504 0.78582 0.0
H2388 H 0.4008 0.82685 0.77223 0.0
H2389 H 0.36327 0.86268 0.80069 0.0
H2390 H 0.39746 0.80402 0.79624 0.0
H2391 H 0.35918 0.83928 0.82463 0.0
H2392 H 0.37911 0.80436 0.87496 0.0
H2393 H 0.37498 0.82635 0.84985 0.0
H2394 H 0.37952 0.78177 0.81046 0.0
H2395 H 0.38476 0.76023 0.83552 0.0
C2396 C 0.39146 0.82969 0.78344 0.0
C2397 C 0.38236 0.84664 0.78453 0.0
C2398 C 0.3894 0.81646 0.79725 0.0
C2399 C 0.37798 0.81965 0.81252 0.0
C2400 C 0.36829 0.83638 0.81326 0.0
C2401 C 0.37051 0.84975 0.79945 0.0
C2402 C 0.37881 0.79928 0.86092 0.0
C2403 C 0.38244 0.78065 0.85715 0.0
C2404 C 0.37642 0.81188 0.84648 0.0
C2405 C 0.37732 0.806 0.82798 0.0
C2406 C 0.37937 0.78701 0.82443 0.0
C2407 C 0.38217 0.77457 0.8388 0.0
H2408 H 0.22667 0.37626 0.84465 0.0
H2409 H 0.17704 0.3755 0.87716 0.0
H2410 H 0.20816 0.3728 0.81665 0.0
H2411 H 0.15875 0.37271 0.84949 0.0
H2412 H 0.12731 0.36205 0.7987 0.0
H2413 H 0.14875 0.35533 0.82363 0.0
H2414 H 0.18851 0.39292 0.79968 0.0
H2415 H 0.16742 0.39905 0.77454 0.0
C2416 C 0.21188 0.37509 0.84586 0.0
C2417 C 0.20336 0.37645 0.86314 0.0
C2418 C 0.20125 0.37323 0.82981 0.0
C2419 C 0.18191 0.37265 0.83074 0.0
C2420 C 0.17356 0.3729 0.84814 0.0
C2421 C 0.18411 0.37473 0.86408 0.0
C2422 C 0.14077 0.36858 0.79859 0.0
C2423 C 0.14556 0.38127 0.78479 0.0
C2424 C 0.15305 0.36481 0.81293 0.0
C2425 C 0.17031 0.37378 0.81385 0.0
C2426 C 0.17546 0.38561 0.79939 0.0
C2427 C 0.16326 0.38926 0.78501 0.0
H2428 H 0.61524 0.16508 0.77071 0.0
H2429 H 0.62345 0.13234 0.81962 0.0
H2430 H 0.6198 0.19326 0.78898 0.0
H2431 H 0.62723 0.16006 0.83776 0.0
H2432 H 0.63715 0.21079 0.8692 0.0
H2433 H 0.64349 0.18683 0.84647 0.0
H2434 H 0.60154 0.20908 0.8109 0.0
H2435 H 0.59586 0.23335 0.83317 0.0
C2436 C 0.61834 0.16388 0.78525 0.0
C2437 C 0.61866 0.14647 0.79374 0.0
C2438 C 0.62079 0.18001 0.79576 0.0
C2439 C 0.62367 0.17902 0.81494 0.0
C2440 C 0.62525 0.16152 0.82306 0.0
C2441 C 0.62284 0.14552 0.81262 0.0
C2442 C 0.62958 0.21076 0.85635 0.0
C2443 C 0.61583 0.22379 0.85311 0.0
C2444 C 0.63313 0.19697 0.84333 0.0
C2445 C 0.62282 0.19577 0.82691 0.0
C2446 C 0.6099 0.20958 0.82323 0.0
C2447 C 0.60652 0.22346 0.83614 0.0
H2448 H 0.84833 0.39636 0.21989 0.0
H2449 H 0.88075 0.36692 0.18013 0.0
H2450 H 0.8221 0.39516 0.19923 0.0
H2451 H 0.85414 0.36419 0.15991 0.0
H2452 H 0.81236 0.38483 0.11791 0.0
H2453 H 0.83735 0.38049 0.13959 0.0
H2454 H 0.79843 0.38103 0.18456 0.0
H2455 H 0.77378 0.38698 0.16274 0.0
C2456 C 0.84962 0.38909 0.20691 0.0
C2457 C 0.86657 0.38182 0.20157 0.0
C2458 C 0.8345 0.38827 0.195 0.0
C2459 C 0.83579 0.3797 0.17759 0.0
C2460 C 0.85258 0.37143 0.17284 0.0
C2461 C 0.86785 0.37276 0.18453 0.0
C2462 C 0.80918 0.38377 0.13243 0.0
C2463 C 0.79118 0.38635 0.13866 0.0
C2464 C 0.82354 0.38116 0.14497 0.0
C2465 C 0.82018 0.38054 0.16409 0.0
C2466 C 0.80184 0.38199 0.17011 0.0
C2467 C 0.7876 0.38518 0.15758 0.0
H2468 H 0.60122 0.8358 0.2294 0.0
H2469 H 0.63656 0.87623 0.20334 0.0
H2470 H 0.60551 0.81487 0.20364 0.0
H2471 H 0.64137 0.85497 0.17771 0.0
H2472 H 0.61749 0.82739 0.12529 0.0
H2473 H 0.62179 0.84542 0.15303 0.0
H2474 H 0.62456 0.79529 0.18502 0.0
H2475 H 0.61968 0.77702 0.157 0.0
C2476 C 0.61028 0.84006 0.21836 0.0
C2477 C 0.61832 0.85782 0.21828 0.0
C2478 C 0.61286 0.82796 0.20361 0.0
C2479 C 0.62361 0.83328 0.18844 0.0
C2480 C 0.6327 0.85056 0.18899 0.0
C2481 C 0.63004 0.86272 0.20373 0.0
C2482 C 0.61917 0.82011 0.13818 0.0
C2483 C 0.61793 0.80071 0.13891 0.0
C2484 C 0.62187 0.83051 0.15413 0.0
C2485 C 0.62348 0.82187 0.17134 0.0
C2486 C 0.62315 0.80241 0.17202 0.0
C2487 C 0.62045 0.79193 0.15595 0.0
H2488 H 0.16714 0.61704 0.23135 0.0
H2489 H 0.12654 0.62307 0.18849 0.0
H2490 H 0.19153 0.61925 0.20864 0.0
H2491 H 0.15093 0.6243 0.16545 0.0
H2492 H 0.19983 0.63377 0.12757 0.0
H2493 H 0.17664 0.63911 0.15133 0.0
H2494 H 0.20364 0.59969 0.18656 0.0
H2495 H 0.22689 0.59506 0.16341 0.0
C2496 C 0.16344 0.61889 0.21703 0.0
C2497 C 0.14492 0.6197 0.21169 0.0
C2498 C 0.17743 0.62003 0.20394 0.0
C2499 C 0.1733 0.62156 0.18506 0.0
C2500 C 0.15473 0.62325 0.17982 0.0
C2501 C 0.1407 0.62245 0.19302 0.0
C2502 C 0.20093 0.62654 0.14055 0.0
C2503 C 0.21524 0.61401 0.14357 0.0
C2504 C 0.18755 0.62946 0.15413 0.0
C2505 C 0.18816 0.61985 0.17098 0.0
C2506 C 0.20279 0.60769 0.17402 0.0
C2507 C 0.21614 0.6049 0.1606 0.0
H2508 H 0.36613 0.20089 0.13773 0.0
H2509 H 0.41467 0.22557 0.16196 0.0
H2510 H 0.36433 0.17882 0.1629 0.0
H2511 H 0.413 0.20319 0.18735 0.0
H2512 H 0.39627 0.15956 0.23357 0.0
H2513 H 0.393 0.18758 0.21467 0.0
H2514 H 0.38859 0.15362 0.16593 0.0
H2515 H 0.39199 0.12611 0.18434 0.0
C2516 C 0.37612 0.20189 0.14873 0.0
C2517 C 0.39062 0.21476 0.14788 0.0
C2518 C 0.3751 0.18928 0.16314 0.0
C2519 C 0.38869 0.18913 0.17689 0.0
C2520 C 0.4023 0.20307 0.17696 0.0
C2521 C 0.40326 0.21585 0.16248 0.0
C2522 C 0.39451 0.15817 0.21882 0.0
C2523 C 0.39442 0.1406 0.21047 0.0
C2524 C 0.39269 0.17416 0.20806 0.0
C2525 C 0.39032 0.17271 0.18889 0.0
C2526 C 0.39008 0.15515 0.1807 0.0
C2527 C 0.39219 0.13936 0.19129 0.0
H2528 H 0.871 0.80587 0.63265 0.0
H2529 H 0.83226 0.77375 0.60035 0.0
H2530 H 0.84767 0.8297 0.63697 0.0
H2531 H 0.80959 0.79745 0.60391 0.0
H2532 H 0.76619 0.8352 0.61924 0.0
H2533 H 0.78926 0.81163 0.62385 0.0
H2534 H 0.83211 0.85331 0.62011 0.0
H2535 H 0.80871 0.87709 0.61664 0.0
C2536 C 0.85751 0.80383 0.62662 0.0
C2537 C 0.8535 0.78791 0.61618 0.0
C2538 C 0.84418 0.81753 0.62896 0.0
C2539 C 0.82663 0.81554 0.62088 0.0
C2540 C 0.8227 0.79939 0.61076 0.0
C2541 C 0.83585 0.78577 0.60856 0.0
C2542 C 0.78054 0.83935 0.61974 0.0
C2543 C 0.78571 0.85789 0.61736 0.0
C2544 C 0.79381 0.82583 0.62225 0.0
C2545 C 0.81264 0.83043 0.62186 0.0
C2546 C 0.81777 0.84921 0.62055 0.0
C2547 C 0.80439 0.86285 0.61848 0.0
H2548 H 0.84201 0.2201 0.401 0.0
H2549 H 0.87559 0.18779 0.36455 0.0
H2550 H 0.81766 0.19647 0.39909 0.0
H2551 H 0.85119 0.16473 0.3619 0.0
H2552 H 0.822 0.11584 0.38807 0.0
H2553 H 0.84185 0.14237 0.38394 0.0
H2554 H 0.79464 0.17796 0.38194 0.0
H2555 H 0.77443 0.15104 0.38663 0.0
C2556 C 0.84389 0.20827 0.39207 0.0
C2557 C 0.86073 0.20559 0.38312 0.0
C2558 C 0.82997 0.19474 0.39095 0.0
C2559 C 0.83265 0.17847 0.38069 0.0
C2560 C 0.84887 0.1768 0.37038 0.0
C2561 C 0.86282 0.19007 0.37177 0.0
C2562 C 0.8157 0.12924 0.38668 0.0
C2563 C 0.79654 0.13123 0.38778 0.0
C2564 C 0.82715 0.14453 0.38409 0.0
C2565 C 0.81988 0.16234 0.3824 0.0
C2566 C 0.80069 0.16443 0.38325 0.0
C2567 C 0.78912 0.149 0.38585 0.0
H2568 H 0.7684 0.82593 0.388 0.0
H2569 H 0.81086 0.86708 0.37962 0.0
H2570 H 0.7909 0.80156 0.38475 0.0
H2571 H 0.83372 0.84275 0.37735 0.0
H2572 H 0.87109 0.79421 0.36672 0.0
H2573 H 0.84711 0.8172 0.36236 0.0
H2574 H 0.81384 0.78946 0.40328 0.0
H2575 H 0.83728 0.7663 0.40695 0.0
C2576 C 0.78258 0.82974 0.38531 0.0
C2577 C 0.7879 0.84839 0.38419 0.0
C2578 C 0.79555 0.81577 0.38363 0.0
C2579 C 0.81429 0.82009 0.38121 0.0
C2580 C 0.81945 0.83879 0.37909 0.0
C2581 C 0.80635 0.85279 0.38043 0.0
C2582 C 0.85851 0.79292 0.37455 0.0
C2583 C 0.85609 0.77841 0.38716 0.0
C2584 C 0.8448 0.80619 0.37216 0.0
C2585 C 0.82843 0.80529 0.38244 0.0
C2586 C 0.82599 0.7905 0.39478 0.0
C2587 C 0.83956 0.77721 0.39701 0.0
H2588 H 0.15722 0.78558 0.40043 0.0
H2589 H 0.1208 0.82005 0.36904 0.0
H2590 H 0.18198 0.80835 0.39655 0.0
H2591 H 0.14563 0.84218 0.36408 0.0
H2592 H 0.18048 0.88938 0.38653 0.0
H2593 H 0.15893 0.86416 0.38335 0.0
H2594 H 0.20374 0.82575 0.37873 0.0
H2595 H 0.2257 0.85135 0.38281 0.0
C2596 C 0.15471 0.79777 0.39223 0.0
C2597 C 0.13706 0.80126 0.38531 0.0
C2598 C 0.1689 0.8108 0.38991 0.0
C2599 C 0.16575 0.82736 0.38032 0.0
C2600 C 0.14844 0.82993 0.37207 0.0
C2601 C 0.13421 0.81719 0.37479 0.0
C2602 C 0.18589 0.87562 0.3847 0.0
C2603 C 0.20491 0.87245 0.38514 0.0
C2604 C 0.17342 0.86106 0.38263 0.0
C2605 C 0.17949 0.8428 0.38069 0.0
C2606 C 0.19855 0.83961 0.38039 0.0
C2607 C 0.21115 0.8543 0.38258 0.0
H2608 H 0.23289 0.17189 0.38389 0.0
H2609 H 0.19249 0.12806 0.37922 0.0
H2610 H 0.209 0.19471 0.37958 0.0
H2611 H 0.16826 0.15089 0.37597 0.0
H2612 H 0.12794 0.197 0.36414 0.0
H2613 H 0.15286 0.17489 0.36007 0.0
H2614 H 0.18622 0.20624 0.39861 0.0
H2615 H 0.16193 0.2284 0.40196 0.0
C2616 C 0.21887 0.16715 0.38179 0.0
C2617 C 0.21451 0.14824 0.38207 0.0
C2618 C 0.20511 0.18023 0.37949 0.0
C2619 C 0.18655 0.17473 0.3779 0.0
C2620 C 0.18235 0.1557 0.37707 0.0
C2621 C 0.19623 0.14258 0.37899 0.0
C2622 C 0.14073 0.19921 0.37151 0.0
C2623 C 0.14296 0.21446 0.38334 0.0
C2624 C 0.15498 0.1865 0.36928 0.0
C2625 C 0.17169 0.18875 0.37893 0.0
C2626 C 0.17384 0.20418 0.39056 0.0
C2627 C 0.15975 0.21689 0.39263 0.0
H2628 H 0.19251 0.12778 0.61522 0.0
H2629 H 0.23485 0.16993 0.61666 0.0
H2630 H 0.16902 0.15156 0.61785 0.0
H2631 H 0.21168 0.19355 0.62034 0.0
H2632 H 0.16816 0.2305 0.596 0.0
H2633 H 0.19105 0.20706 0.60012 0.0
H2634 H 0.15349 0.17562 0.63416 0.0
H2635 H 0.12997 0.19915 0.62931 0.0
C2636 C 0.19679 0.1421 0.6166 0.0
C2637 C 0.21545 0.14707 0.61543 0.0
C2638 C 0.18334 0.15575 0.61819 0.0
C2639 C 0.18837 0.17459 0.61893 0.0
C2640 C 0.20719 0.17929 0.61919 0.0
C2641 C 0.22053 0.16574 0.61721 0.0
C2642 C 0.16474 0.21872 0.60455 0.0
C2643 C 0.14718 0.21671 0.61229 0.0
C2644 C 0.17802 0.20525 0.60707 0.0
C2645 C 0.17428 0.18939 0.6176 0.0
C2646 C 0.15683 0.18756 0.62582 0.0
C2647 C 0.14339 0.2011 0.62318 0.0
H2648 H 0.8233 0.11609 0.61365 0.0
H2649 H 0.77875 0.15449 0.62041 0.0
H2650 H 0.84525 0.14099 0.6163 0.0
H2651 H 0.80121 0.17979 0.6239 0.0
H2652 H 0.84783 0.22057 0.60325 0.0
H2653 H 0.82287 0.19786 0.60642 0.0
H2654 H 0.85949 0.16187 0.63609 0.0
H2655 H 0.88445 0.18399 0.63188 0.0
C2656 C 0.81811 0.12985 0.61601 0.0
C2657 C 0.79912 0.13318 0.61671 0.0
C2658 C 0.83085 0.14424 0.61775 0.0
C2659 C 0.82514 0.16252 0.6205 0.0
C2660 C 0.80614 0.16592 0.62165 0.0
C2661 C 0.79326 0.15139 0.61978 0.0
C2662 C 0.85038 0.20791 0.6107 0.0
C2663 C 0.86814 0.20391 0.61707 0.0
C2664 C 0.83606 0.19489 0.61258 0.0
C2665 C 0.83919 0.17776 0.62115 0.0
C2666 C 0.85665 0.17458 0.62884 0.0
C2667 C 0.87097 0.18734 0.62658 0.0
H2668 H 0.17451 0.88775 0.60862 0.0
H2669 H 0.21887 0.85088 0.622 0.0
H2670 H 0.15264 0.8628 0.61205 0.0
H2671 H 0.19651 0.82564 0.62612 0.0
H2672 H 0.15112 0.78238 0.60696 0.0
H2673 H 0.17574 0.80565 0.60889 0.0
H2674 H 0.13787 0.84389 0.63366 0.0
H2675 H 0.1133 0.82105 0.63086 0.0
C2676 C 0.17965 0.87434 0.61255 0.0
C2677 C 0.19858 0.87143 0.61499 0.0
C2678 C 0.16697 0.85996 0.61471 0.0
C2679 C 0.17268 0.84213 0.61958 0.0
C2680 C 0.1916 0.83915 0.62226 0.0
C2681 C 0.20441 0.85365 0.62 0.0
C2682 C 0.14821 0.79566 0.61312 0.0
C2683 C 0.13023 0.79999 0.61851 0.0
C2684 C 0.16233 0.80901 0.61426 0.0
C2685 C 0.15875 0.82686 0.62105 0.0
C2686 C 0.14105 0.83055 0.62779 0.0
C2687 C 0.12696 0.81739 0.62634 0.0
H2688 H 0.07796 0.23268 0.44961 0.0
H2689 H 0.12051 0.27442 0.44828 0.0
H2690 H 0.08039 0.23114 0.48281 0.0
H2691 H 0.12191 0.27445 0.48167 0.0
H2692 H 0.1336 0.26062 0.54071 0.0
H2693 H 0.1318 0.26012 0.5072 0.0
H2694 H 0.07487 0.24231 0.51079 0.0
H2695 H 0.0776 0.24124 0.54409 0.0
C2696 C 0.08736 0.24208 0.45658 0.0
C2697 C 0.09854 0.2542 0.44643 0.0
C2698 C 0.08873 0.24131 0.47574 0.0
C2699 C 0.10124 0.2528 0.48536 0.0
C2700 C 0.11216 0.26524 0.47505 0.0
C2701 C 0.11103 0.26568 0.45582 0.0
C2702 C 0.12078 0.25657 0.53415 0.0
C2703 C 0.1055 0.25165 0.54481 0.0
C2704 C 0.11963 0.25637 0.51491 0.0
C2705 C 0.10302 0.2516 0.50591 0.0
C2706 C 0.08801 0.2459 0.51686 0.0
C2707 C 0.08941 0.24553 0.53605 0.0
H2708 H 0.73216 0.09831 0.54911 0.0
H2709 H 0.79081 0.10752 0.5481 0.0
H2710 H 0.73147 0.09882 0.51532 0.0
H2711 H 0.79011 0.1087 0.51469 0.0
H2712 H 0.7879 0.0798 0.45982 0.0
H2713 H 0.78614 0.0844 0.49265 0.0
H2714 H 0.73636 0.11558 0.48583 0.0
H2715 H 0.73788 0.1106 0.45245 0.0
C2716 C 0.74478 0.10099 0.54168 0.0
C2717 C 0.76157 0.10264 0.55117 0.0
C2718 C 0.74441 0.10128 0.52234 0.0
C2719 C 0.76081 0.10337 0.51227 0.0
C2720 C 0.7773 0.1065 0.52196 0.0
C2721 C 0.7777 0.10596 0.54112 0.0
C2722 C 0.77656 0.08774 0.46514 0.0
C2723 C 0.7631 0.09493 0.45333 0.0
C2724 C 0.77563 0.0905 0.48409 0.0
C2725 C 0.76128 0.10064 0.49193 0.0
C2726 C 0.74761 0.1077 0.48023 0.0
C2727 C 0.74852 0.1049 0.46111 0.0
H2728 H 0.87986 0.7216 0.45443 0.0
H2729 H 0.92042 0.76536 0.45478 0.0
H2730 H 0.87855 0.72251 0.48785 0.0
H2731 H 0.91816 0.76757 0.48805 0.0
H2732 H 0.9221 0.75827 0.54942 0.0
H2733 H 0.9248 0.75599 0.51612 0.0
H2734 H 0.86788 0.73819 0.5128 0.0
H2735 H 0.86597 0.73914 0.54632 0.0
C2736 C 0.88888 0.73106 0.46177 0.0
C2737 C 0.90083 0.74283 0.45212 0.0
C2738 C 0.88783 0.73196 0.48097 0.0
C2739 C 0.8983 0.74509 0.49098 0.0
C2740 C 0.91019 0.75693 0.48113 0.0
C2741 C 0.91145 0.75577 0.46197 0.0
C2742 C 0.9103 0.75367 0.54145 0.0
C2743 C 0.89413 0.74806 0.55032 0.0
C2744 C 0.91169 0.75261 0.5223 0.0
C2745 C 0.89663 0.74667 0.51148 0.0
C2746 C 0.88003 0.74218 0.5205 0.0
C2747 C 0.87884 0.74277 0.53973 0.0
H2748 H 0.21382 0.88956 0.45364 0.0
H2749 H 0.27078 0.90654 0.45557 0.0
H2750 H 0.2136 0.8862 0.48694 0.0
H2751 H 0.27045 0.90387 0.48926 0.0
H2752 H 0.26375 0.89 0.55128 0.0
H2753 H 0.26668 0.88531 0.51794 0.0
H2754 H 0.21353 0.90999 0.50987 0.0
H2755 H 0.21044 0.91429 0.54263 0.0
C2756 C 0.22641 0.89227 0.46124 0.0
C2757 C 0.24227 0.89845 0.45209 0.0
C2758 C 0.22626 0.89049 0.48033 0.0
C2759 C 0.24187 0.89522 0.49084 0.0
C2760 C 0.2582 0.90009 0.48158 0.0
C2761 C 0.25841 0.90162 0.46231 0.0
C2762 C 0.25262 0.89421 0.54236 0.0
C2763 C 0.23684 0.90249 0.54974 0.0
C2764 C 0.25436 0.89161 0.52326 0.0
C2765 C 0.24026 0.89709 0.51121 0.0
C2766 C 0.22449 0.90519 0.51869 0.0
C2767 C 0.22279 0.90782 0.5376 0.0
H2768 H 0.11254 0.73766 0.55097 0.0
H2769 H 0.08996 0.79229 0.54481 0.0
H2770 H 0.11808 0.73649 0.51766 0.0
H2771 H 0.09495 0.79089 0.51212 0.0
H2772 H 0.11617 0.79317 0.45623 0.0
H2773 H 0.11826 0.79184 0.4896 0.0
H2774 H 0.10134 0.73445 0.48825 0.0
H2775 H 0.10006 0.73567 0.45454 0.0
C2776 C 0.10887 0.74943 0.54262 0.0
C2777 C 0.10085 0.76508 0.55071 0.0
C2778 C 0.11194 0.74872 0.52351 0.0
C2779 C 0.10715 0.76368 0.51215 0.0
C2780 C 0.09928 0.77927 0.52037 0.0
C2781 C 0.09625 0.77999 0.53926 0.0
C2782 C 0.11327 0.78016 0.46303 0.0
C2783 C 0.10779 0.76458 0.4528 0.0
C2784 C 0.11433 0.77941 0.4822 0.0
C2785 C 0.1095 0.76317 0.49172 0.0
C2786 C 0.10519 0.74719 0.48141 0.0
C2787 C 0.10443 0.74787 0.4621 0.0
H2788 H 0.26738 0.13931 0.45318 0.0
H2789 H 0.23702 0.08809 0.45564 0.0
H2790 H 0.27093 0.13926 0.4864 0.0
H2791 H 0.23896 0.08841 0.4889 0.0
H2792 H 0.25532 0.08147 0.54673 0.0
H2793 H 0.25514 0.08242 0.51343 0.0
H2794 H 0.26492 0.14161 0.51571 0.0
H2795 H 0.2676 0.13968 0.54895 0.0
C2796 C 0.26157 0.12795 0.46099 0.0
C2797 C 0.25306 0.11306 0.45191 0.0
C2798 C 0.26325 0.12801 0.4802 0.0
C2799 C 0.25607 0.1133 0.49085 0.0
C2800 C 0.2459 0.09938 0.48154 0.0
C2801 C 0.24449 0.09925 0.46235 0.0
C2802 C 0.25812 0.0945 0.53992 0.0
C2803 C 0.26192 0.11039 0.55027 0.0
C2804 C 0.25747 0.09526 0.52072 0.0
C2805 C 0.25921 0.11226 0.51134 0.0
C2806 C 0.26355 0.12813 0.52194 0.0
C2807 C 0.26513 0.12713 0.54114 0.0
H2808 H 0.88669 0.2637 0.54872 0.0
H2809 H 0.91083 0.2098 0.54222 0.0
H2810 H 0.88193 0.26529 0.51535 0.0
H2811 H 0.90662 0.21164 0.50936 0.0
H2812 H 0.88592 0.21022 0.4527 0.0
H2813 H 0.88398 0.21053 0.48608 0.0
H2814 H 0.89902 0.26845 0.4866 0.0
H2815 H 0.9002 0.26823 0.45288 0.0
C2816 C 0.89088 0.25216 0.54026 0.0
C2817 C 0.89908 0.23659 0.54829 0.0
C2818 C 0.88827 0.25314 0.52111 0.0
C2819 C 0.89374 0.23853 0.50959 0.0
C2820 C 0.9018 0.22298 0.51772 0.0
C2821 C 0.90436 0.22199 0.5367 0.0
C2822 C 0.88851 0.22311 0.45992 0.0
C2823 C 0.89339 0.23915 0.45019 0.0
C2824 C 0.88753 0.22327 0.47909 0.0
C2825 C 0.89178 0.23941 0.48914 0.0
C2826 C 0.89561 0.25578 0.47935 0.0
C2827 C 0.89632 0.25567 0.46003 0.0
H2828 H 0.76887 0.91285 0.4561 0.0
H2829 H 0.73752 0.86218 0.45397 0.0
H2830 H 0.76663 0.9132 0.4894 0.0
H2831 H 0.73389 0.86282 0.48713 0.0
H2832 H 0.73541 0.86413 0.54967 0.0
H2833 H 0.73944 0.86114 0.51665 0.0
H2834 H 0.74953 0.92019 0.51317 0.0
H2835 H 0.74783 0.92225 0.54641 0.0
C2836 C 0.7612 0.90192 0.46289 0.0
C2837 C 0.75238 0.88812 0.45253 0.0
C2838 C 0.75964 0.90217 0.48207 0.0
C2839 C 0.7491 0.88863 0.49141 0.0
C2840 C 0.74182 0.87382 0.48089 0.0
C2841 C 0.74358 0.87353 0.4617 0.0
C2842 C 0.7382 0.87643 0.54164 0.0
C2843 C 0.74105 0.89345 0.55044 0.0
C2844 C 0.74058 0.8748 0.52257 0.0
C2845 C 0.7454 0.89031 0.51175 0.0
C2846 C 0.74682 0.90761 0.52072 0.0
C2847 C 0.74529 0.90901 0.53983 0.0
H2848 H 0.45429 0.12733 0.24532 0.0
H2849 H 0.45873 0.06807 0.24713 0.0
H2850 H 0.4877 0.1304 0.24789 0.0
H2851 H 0.49191 0.0709 0.25088 0.0
H2852 H 0.55096 0.07966 0.23424 0.0
H2853 H 0.51757 0.07766 0.23331 0.0
H2854 H 0.5145 0.12807 0.26524 0.0
H2855 H 0.54806 0.13041 0.26506 0.0
C2856 C 0.46248 0.115 0.24666 0.0
C2857 C 0.45411 0.09748 0.24583 0.0
C2858 C 0.48161 0.1167 0.24822 0.0
C2859 C 0.49268 0.10089 0.24931 0.0
C2860 C 0.484 0.08339 0.24944 0.0
C2861 C 0.46497 0.08172 0.24745 0.0
C2862 C 0.54306 0.09021 0.24113 0.0
C2863 C 0.55194 0.10473 0.25044 0.0
C2864 C 0.52391 0.08903 0.24076 0.0
C2865 C 0.51316 0.10246 0.24958 0.0
C2866 C 0.5222 0.11744 0.25829 0.0
C2867 C 0.54142 0.11865 0.2585 0.0
H2868 H 0.87032 0.54313 0.25622 0.0
H2869 H 0.9229 0.54612 0.22925 0.0
H2870 H 0.87047 0.50932 0.25365 0.0
H2871 H 0.92333 0.51248 0.22682 0.0
H2872 H 0.90988 0.45531 0.20675 0.0
H2873 H 0.90718 0.48848 0.20987 0.0
H2874 H 0.88664 0.48163 0.26514 0.0
H2875 H 0.88924 0.44812 0.26206 0.0
C2876 C 0.88204 0.53645 0.25005 0.0
C2877 C 0.89689 0.54702 0.24346 0.0
C2878 C 0.88211 0.51716 0.24851 0.0
C2879 C 0.89691 0.50819 0.24003 0.0
C2880 C 0.91162 0.51894 0.23324 0.0
C2881 C 0.91149 0.53816 0.23474 0.0
C2882 C 0.90468 0.46075 0.21959 0.0
C2883 C 0.89994 0.44893 0.23422 0.0
C2884 C 0.90325 0.47986 0.2214 0.0
C2885 C 0.89704 0.48775 0.23788 0.0
C2886 C 0.89155 0.47599 0.25229 0.0
C2887 C 0.89305 0.45677 0.25051 0.0
H2888 H 0.54603 0.86951 0.26554 0.0
H2889 H 0.54698 0.92094 0.23579 0.0
H2890 H 0.51242 0.86783 0.26225 0.0
H2891 H 0.51359 0.91929 0.2323 0.0
H2892 H 0.45928 0.89902 0.20976 0.0
H2893 H 0.49216 0.89805 0.21484 0.0
H2894 H 0.48329 0.88587 0.27224 0.0
H2895 H 0.44999 0.88692 0.26729 0.0
C2896 C 0.53895 0.88061 0.25864 0.0
C2897 C 0.54886 0.89569 0.25147 0.0
C2898 C 0.51981 0.87961 0.25666 0.0
C2899 C 0.51041 0.89344 0.24704 0.0
C2900 C 0.52047 0.90838 0.2397 0.0
C2901 C 0.53952 0.9094 0.24176 0.0
C2902 C 0.46419 0.89596 0.22349 0.0
C2903 C 0.45186 0.89323 0.23816 0.0
C2904 C 0.4831 0.89551 0.22638 0.0
C2905 C 0.49028 0.89219 0.24398 0.0
C2906 C 0.4781 0.88851 0.25853 0.0
C2907 C 0.45904 0.8891 0.25567 0.0
H2908 H 0.13164 0.55678 0.26637 0.0
H2909 H 0.07511 0.55292 0.24927 0.0
H2910 H 0.1337 0.52337 0.26648 0.0
H2911 H 0.07596 0.51958 0.25179 0.0
H2912 H 0.08422 0.46057 0.23729 0.0
H2913 H 0.08333 0.4939 0.23823 0.0
H2914 H 0.13086 0.49444 0.27437 0.0
H2915 H 0.1325 0.46105 0.27154 0.0
C2916 C 0.11943 0.54862 0.26333 0.0
C2917 C 0.10319 0.5573 0.25793 0.0
C2918 C 0.1205 0.52931 0.26343 0.0
C2919 C 0.10513 0.51816 0.25864 0.0
C2920 C 0.08849 0.52721 0.25462 0.0
C2921 C 0.08775 0.54647 0.25361 0.0
C2922 C 0.09439 0.46794 0.24548 0.0
C2923 C 0.1078 0.45825 0.25521 0.0
C2924 C 0.09378 0.48721 0.24631 0.0
C2925 C 0.10651 0.49743 0.25709 0.0
C2926 C 0.12061 0.48754 0.26597 0.0
C2927 C 0.12141 0.46822 0.26474 0.0
H2928 H 0.4488 0.91543 0.76903 0.0
H2929 H 0.45432 0.86745 0.73442 0.0
H2930 H 0.48204 0.91905 0.77029 0.0
H2931 H 0.48776 0.8715 0.73465 0.0
H2932 H 0.5483 0.87506 0.75406 0.0
H2933 H 0.51513 0.86978 0.75144 0.0
H2934 H 0.50672 0.92884 0.75272 0.0
H2935 H 0.53961 0.93378 0.75651 0.0
C2936 C 0.45724 0.90583 0.76144 0.0
C2937 C 0.44912 0.89169 0.75094 0.0
C2938 C 0.4763 0.90796 0.762 0.0
C2939 C 0.48774 0.89589 0.75214 0.0
C2940 C 0.47951 0.88112 0.74238 0.0
C2941 C 0.46036 0.87894 0.74195 0.0
C2942 C 0.53925 0.88683 0.7536 0.0
C2943 C 0.54637 0.90479 0.7557 0.0
C2944 C 0.52025 0.88386 0.75205 0.0
C2945 C 0.50807 0.89886 0.75224 0.0
C2946 C 0.5155 0.91688 0.75323 0.0
C2947 C 0.53439 0.91978 0.75522 0.0
H2948 H 0.13475 0.45531 0.73758 0.0
H2949 H 0.08274 0.45424 0.76579 0.0
H2950 H 0.13574 0.4892 0.73996 0.0
H2951 H 0.08369 0.4879 0.76833 0.0
H2952 H 0.1161 0.55185 0.73346 0.0
H2953 H 0.11769 0.51828 0.72892 0.0
H2954 H 0.10413 0.50982 0.78605 0.0
H2955 H 0.10268 0.54285 0.79074 0.0
C2956 C 0.12339 0.46242 0.74395 0.0
C2957 C 0.10836 0.45238 0.75097 0.0
C2958 C 0.12399 0.48172 0.74538 0.0
C2959 C 0.10978 0.49117 0.7543 0.0
C2960 C 0.09488 0.48099 0.76146 0.0
C2961 C 0.09427 0.46178 0.75996 0.0
C2962 C 0.11371 0.54281 0.74509 0.0
C2963 C 0.10907 0.55014 0.76241 0.0
C2964 C 0.1146 0.52362 0.74247 0.0
C2965 C 0.11068 0.51147 0.75706 0.0
C2966 C 0.10683 0.51883 0.77446 0.0
C2967 C 0.1061 0.53784 0.77713 0.0
H2968 H 0.45026 0.11142 0.73685 0.0
H2969 H 0.45794 0.09261 0.79274 0.0
H2970 H 0.48312 0.11883 0.73493 0.0
H2971 H 0.49042 0.09961 0.79067 0.0
H2972 H 0.54663 0.1037 0.73473 0.0
H2973 H 0.51297 0.10306 0.73389 0.0
H2974 H 0.51175 0.12498 0.78921 0.0
H2975 H 0.54515 0.12502 0.79019 0.0
C2976 C 0.45887 0.10895 0.74874 0.0
C2977 C 0.45134 0.10144 0.76497 0.0
C2978 C 0.47772 0.11312 0.7476 0.0
C2979 C 0.48943 0.10999 0.76269 0.0
C2980 C 0.48182 0.10262 0.77889 0.0
C2981 C 0.46311 0.09845 0.78003 0.0
C2982 C 0.53912 0.10888 0.74647 0.0
C2983 C 0.54849 0.11425 0.76259 0.0
C2984 C 0.51983 0.10848 0.74603 0.0
C2985 C 0.50963 0.11357 0.76165 0.0
C2986 C 0.51913 0.12046 0.77713 0.0
C2987 C 0.53829 0.12065 0.77764 0.0
H2988 H 0.87584 0.54885 0.76073 0.0
H2989 H 0.93483 0.54485 0.75949 0.0
H2990 H 0.87308 0.51522 0.75789 0.0
H2991 H 0.93232 0.51151 0.75559 0.0
H2992 H 0.92421 0.45159 0.76987 0.0
H2993 H 0.92558 0.48512 0.77233 0.0
H2994 H 0.87594 0.48879 0.73971 0.0
H2995 H 0.87423 0.45504 0.73831 0.0
C2996 C 0.88819 0.54071 0.75959 0.0
C2997 C 0.90553 0.54927 0.76063 0.0
C2998 C 0.88666 0.52146 0.75786 0.0
C2999 C 0.90249 0.51046 0.75678 0.0
C3000 C 0.91982 0.51933 0.75702 0.0
C3001 C 0.92131 0.53847 0.75914 0.0
C3002 C 0.91369 0.45966 0.76317 0.0
C3003 C 0.8996 0.4509 0.75317 0.0
C3004 C 0.9145 0.4789 0.76443 0.0
C3005 C 0.90112 0.48987 0.75585 0.0
C3006 C 0.88652 0.48093 0.74651 0.0
C3007 C 0.88568 0.46161 0.74538 0.0
H3008 H 0.25675 0.54256 0.12741 0.0
H3009 H 0.22835 0.5437 0.07534 0.0
H3010 H 0.25317 0.50897 0.12851 0.0
H3011 H 0.22524 0.51005 0.0759 0.0
H3012 H 0.20797 0.45162 0.08945 0.0
H3013 H 0.20993 0.48513 0.09073 0.0
H3014 H 0.26422 0.48166 0.11457 0.0
H3015 H 0.26223 0.44819 0.11348 0.0
C3016 C 0.24999 0.53548 0.11607 0.0
C3017 C 0.24335 0.54547 0.101 0.0
C3018 C 0.24791 0.51628 0.11667 0.0
C3019 C 0.23903 0.50671 0.10223 0.0
C3020 C 0.23197 0.51692 0.08737 0.0
C3021 C 0.23389 0.53614 0.08691 0.0
C3022 C 0.22032 0.45797 0.09503 0.0
C3023 C 0.23499 0.44712 0.10124 0.0
C3024 C 0.2215 0.47725 0.09563 0.0
C3025 C 0.23737 0.48619 0.10247 0.0
C3026 C 0.25181 0.47532 0.10917 0.0
C3027 C 0.25067 0.45606 0.10851 0.0
H3028 H 0.23738 0.54115 0.91764 0.0
H3029 H 0.26774 0.53805 0.86691 0.0
H3030 H 0.23361 0.50759 0.91766 0.0
H3031 H 0.26412 0.50422 0.86689 0.0
H3032 H 0.21061 0.45247 0.90027 0.0
H3033 H 0.2162 0.48536 0.89746 0.0
H3034 H 0.27345 0.47549 0.8864 0.0
H3035 H 0.26796 0.44209 0.88933 0.0
C3036 C 0.24339 0.53319 0.90659 0.0
C3037 C 0.25337 0.54199 0.89262 0.0
C3038 C 0.24119 0.51402 0.90653 0.0
C3039 C 0.24861 0.50328 0.89228 0.0
C3040 C 0.25846 0.51213 0.87815 0.0
C3041 C 0.26061 0.5314 0.8782 0.0
C3042 C 0.22443 0.45714 0.89711 0.0
C3043 C 0.23889 0.44452 0.89525 0.0
C3044 C 0.22761 0.47607 0.89558 0.0
C3045 C 0.24531 0.48301 0.89205 0.0
C3046 C 0.25967 0.47049 0.8892 0.0
C3047 C 0.25651 0.45139 0.89086 0.0
H3048 H 0.4576 0.20718 0.8999 0.0
H3049 H 0.44627 0.26519 0.89233 0.0
H3050 H 0.49021 0.21345 0.89674 0.0
H3051 H 0.47934 0.27137 0.88902 0.0
H3052 H 0.54494 0.23531 0.91898 0.0
H3053 H 0.51163 0.23082 0.91847 0.0
H3054 H 0.50819 0.26307 0.86868 0.0
H3055 H 0.54178 0.26736 0.86918 0.0
C3056 C 0.46202 0.22128 0.89734 0.0
C3057 C 0.44927 0.23573 0.89664 0.0
C3058 C 0.48075 0.22485 0.8956 0.0
C3059 C 0.4873 0.24293 0.89301 0.0
C3060 C 0.47461 0.25731 0.89109 0.0
C3061 C 0.45571 0.25375 0.89294 0.0
C3062 C 0.53701 0.24155 0.90805 0.0
C3063 C 0.5457 0.25219 0.89449 0.0
C3064 C 0.51801 0.23893 0.90768 0.0
C3065 C 0.50735 0.24663 0.89354 0.0
C3066 C 0.51607 0.25718 0.87984 0.0
C3067 C 0.53519 0.25972 0.88018 0.0
H3068 H 0.79048 0.54709 0.9001 0.0
H3069 H 0.73419 0.55038 0.88129 0.0
H3070 H 0.78866 0.51366 0.89869 0.0
H3071 H 0.7325 0.51674 0.87979 0.0
H3072 H 0.74189 0.45513 0.86641 0.0
H3073 H 0.74409 0.48888 0.86463 0.0
H3074 H 0.77329 0.48988 0.91652 0.0
H3075 H 0.77123 0.45619 0.918 0.0
C3076 C 0.77773 0.54073 0.89553 0.0
C3077 C 0.76239 0.55151 0.89104 0.0
C3078 C 0.77667 0.52151 0.89486 0.0
C3079 C 0.7603 0.51252 0.88957 0.0
C3080 C 0.74524 0.52324 0.88413 0.0
C3081 C 0.74623 0.54254 0.88497 0.0
C3082 C 0.74856 0.46271 0.87749 0.0
C3083 C 0.75589 0.45332 0.89264 0.0
C3084 C 0.74988 0.48196 0.87646 0.0
C3085 C 0.75884 0.49207 0.89044 0.0
C3086 C 0.76648 0.4825 0.90541 0.0
C3087 C 0.76521 0.46327 0.90637 0.0
H3088 H 0.45633 0.77102 0.9215 0.0
H3089 H 0.45849 0.74221 0.86962 0.0
H3090 H 0.48961 0.77545 0.92091 0.0
H3091 H 0.49183 0.74703 0.86855 0.0
H3092 H 0.55266 0.73976 0.88551 0.0
H3093 H 0.51942 0.73684 0.88325 0.0
H3094 H 0.51371 0.79173 0.90576 0.0
H3095 H 0.54688 0.79465 0.90821 0.0
C3096 C 0.46404 0.76568 0.90995 0.0
C3097 C 0.45512 0.7557 0.89595 0.0
C3098 C 0.48305 0.76836 0.90947 0.0
C3099 C 0.49347 0.76154 0.8947 0.0
C3100 C 0.48432 0.75216 0.8803 0.0
C3101 C 0.46528 0.74935 0.8809 0.0
C3102 C 0.54435 0.75126 0.88989 0.0
C3103 C 0.55253 0.76737 0.89723 0.0
C3104 C 0.52523 0.74959 0.88856 0.0
C3105 C 0.51382 0.7639 0.89463 0.0
C3106 C 0.52204 0.78024 0.90135 0.0
C3107 C 0.54112 0.78196 0.90264 0.0
H3108 H 0.76772 0.55427 0.1274 0.0
H3109 H 0.74874 0.55119 0.07124 0.0
H3110 H 0.76444 0.52056 0.13014 0.0
H3111 H 0.74532 0.5177 0.07384 0.0
H3112 H 0.76721 0.45901 0.07646 0.0
H3113 H 0.76762 0.49274 0.07601 0.0
H3114 H 0.74285 0.4936 0.12998 0.0
H3115 H 0.74269 0.45966 0.13035 0.0
C3116 C 0.7624 0.54637 0.11584 0.0
C3117 C 0.75838 0.55515 0.09915 0.0
C3118 C 0.76055 0.52713 0.11736 0.0
C3119 C 0.75484 0.51643 0.10213 0.0
C3120 C 0.75005 0.52548 0.08573 0.0
C3121 C 0.75185 0.54464 0.08425 0.0
C3122 C 0.76176 0.46647 0.08813 0.0
C3123 C 0.75424 0.45689 0.1031 0.0
C3124 C 0.7619 0.48575 0.08788 0.0
C3125 C 0.75492 0.49588 0.10281 0.0
C3126 C 0.74823 0.48622 0.11823 0.0
C3127 C 0.74793 0.46685 0.11837 0.0
H3128 H 0.54172 0.79231 0.10121 0.0
H3129 H 0.55314 0.73479 0.11179 0.0
H3130 H 0.50909 0.78589 0.10319 0.0
H3131 H 0.51999 0.72846 0.1139 0.0
H3132 H 0.4572 0.73342 0.13272 0.0
H3133 H 0.49083 0.73714 0.133 0.0
H3134 H 0.48776 0.76802 0.08233 0.0
H3135 H 0.45437 0.76415 0.08209 0.0
C3136 C 0.53733 0.77828 0.10413 0.0
C3137 C 0.55017 0.76402 0.10612 0.0
C3138 C 0.51855 0.77462 0.10516 0.0
C3139 C 0.51198 0.75663 0.10834 0.0
C3140 C 0.5247 0.74245 0.11135 0.0
C3141 C 0.54366 0.7461 0.11017 0.0
C3142 C 0.46387 0.7406 0.12147 0.0
C3143 C 0.45341 0.74799 0.10705 0.0
C3144 C 0.48303 0.74281 0.12167 0.0
C3145 C 0.4919 0.75287 0.1077 0.0
C3146 C 0.4813 0.7603 0.09335 0.0
C3147 C 0.46225 0.75802 0.09313 0.0
H3148 H 0.551 0.23077 0.08103 0.0
H3149 H 0.5516 0.26155 0.13185 0.0
H3150 H 0.51745 0.2293 0.08189 0.0
H3151 H 0.51795 0.26055 0.13266 0.0
H3152 H 0.45751 0.23909 0.13526 0.0
H3153 H 0.49124 0.24047 0.13628 0.0
H3154 H 0.4923 0.25013 0.0776 0.0
H3155 H 0.45882 0.24853 0.07674 0.0
C3156 C 0.54385 0.23733 0.09231 0.0
C3157 C 0.55367 0.24694 0.10595 0.0
C3158 C 0.52467 0.23659 0.09279 0.0
C3159 C 0.51496 0.24514 0.10715 0.0
C3160 C 0.52496 0.25386 0.12138 0.0
C3161 C 0.54417 0.25467 0.12081 0.0
C3162 C 0.46509 0.24169 0.1227 0.0
C3163 C 0.45578 0.24359 0.10591 0.0
C3164 C 0.48433 0.24251 0.12324 0.0
C3165 C 0.49451 0.24519 0.10697 0.0
C3166 C 0.48497 0.24765 0.09031 0.0
C3167 C 0.46581 0.24682 0.0898 0.0
H3168 H 0.62458 0.78145 0.04564 0.0
H3169 H 0.58299 0.7387 0.0461 0.0
H3170 H 0.62478 0.78088 0.01212 0.0
H3171 H 0.5842 0.7367 0.01281 0.0
H3172 H 0.57921 0.74543 0.95163 0.0
H3173 H 0.57722 0.74825 0.98493 0.0
H3174 H 0.63454 0.76489 0.9869 0.0
H3175 H 0.63575 0.76342 0.95335 0.0
C3176 C 0.6151 0.7723 0.03848 0.0
C3177 C 0.60322 0.76069 0.04839 0.0
C3178 C 0.61552 0.77157 0.01922 0.0
C3179 C 0.6045 0.75872 0.00943 0.0
C3180 C 0.59259 0.74714 0.01955 0.0
C3181 C 0.59194 0.74817 0.03873 0.0
C3182 C 0.59127 0.74986 0.95929 0.0
C3183 C 0.60737 0.75497 0.95004 0.0
C3184 C 0.59028 0.75125 0.97846 0.0
C3185 C 0.60567 0.75702 0.98891 0.0
C3186 C 0.62217 0.76103 0.97949 0.0
C3187 C 0.62296 0.76012 0.96025 0.0
H3188 H 0.24164 0.60923 0.9471 0.0
H3189 H 0.29422 0.58367 0.95651 0.0
H3190 H 0.23859 0.61454 0.98027 0.0
H3191 H 0.29097 0.58854 0.98921 0.0
H3192 H 0.29047 0.60988 0.04531 0.0
H3193 H 0.29142 0.61226 0.01194 0.0
H3194 H 0.23385 0.59727 0.00911 0.0
H3195 H 0.23284 0.59564 0.04282 0.0
C3196 C 0.25257 0.60483 0.95616 0.0
C3197 C 0.26822 0.59608 0.94903 0.0
C3198 C 0.25077 0.60779 0.97518 0.0
C3199 C 0.26461 0.60215 0.98744 0.0
C3200 C 0.28022 0.5935 0.98022 0.0
C3201 C 0.28202 0.59056 0.96136 0.0
C3202 C 0.27791 0.60757 0.03757 0.0
C3203 C 0.26162 0.60248 0.0466 0.0
C3204 C 0.27847 0.60875 0.01843 0.0
C3205 C 0.26284 0.60448 0.00777 0.0
C3206 C 0.24615 0.60067 0.01687 0.0
C3207 C 0.24553 0.59976 0.03617 0.0
H3208 H 0.42694 0.26063 0.05202 0.0
H3209 H 0.37088 0.24114 0.05345 0.0
H3210 H 0.42743 0.25692 0.01871 0.0
H3211 H 0.37056 0.23872 0.01994 0.0
H3212 H 0.37819 0.22075 0.96128 0.0
H3213 H 0.37957 0.22232 0.99472 0.0
H3214 H 0.41871 0.2676 0.99085 0.0
H3215 H 0.41843 0.26461 0.95757 0.0
C3216 C 0.41467 0.25563 0.04505 0.0
C3217 C 0.39914 0.25041 0.0552 0.0
C3218 C 0.4148 0.25373 0.02589 0.0
C3219 C 0.39907 0.2473 0.01634 0.0
C3220 C 0.38316 0.2431 0.02664 0.0
C3221 C 0.38325 0.24454 0.04587 0.0
C3222 C 0.3877 0.2304 0.9677 0.0
C3223 C 0.3988 0.24198 0.95689 0.0
C3224 C 0.38817 0.23169 0.98693 0.0
C3225 C 0.39928 0.24511 0.99581 0.0
C3226 C 0.41031 0.25676 0.9848 0.0
C3227 C 0.41009 0.25516 0.96563 0.0
H3228 H 0.71221 0.41594 0.04104 0.0
H3229 H 0.76472 0.38926 0.04686 0.0
H3230 H 0.71353 0.41176 0.00808 0.0
H3231 H 0.76576 0.38452 0.01352 0.0
H3232 H 0.76924 0.40241 0.95123 0.0
H3233 H 0.76952 0.40125 0.98492 0.0
H3234 H 0.71121 0.38932 0.98464 0.0
H3235 H 0.7109 0.39128 0.95125 0.0
C3236 C 0.72397 0.40893 0.03534 0.0
C3237 C 0.73835 0.40293 0.04674 0.0
C3238 C 0.72466 0.40639 0.01633 0.0
C3239 C 0.73967 0.3976 0.00804 0.0
C3240 C 0.75404 0.39144 0.01939 0.0
C3241 C 0.75339 0.39408 0.03853 0.0
C3242 C 0.7566 0.39916 0.95842 0.0
C3243 C 0.74002 0.39713 0.94865 0.0
C3244 C 0.75674 0.39849 0.97773 0.0
C3245 C 0.74031 0.39558 0.98758 0.0
C3246 C 0.72403 0.39216 0.9776 0.0
C3247 C 0.72386 0.39311 0.95843 0.0
H3248 H 0.61237 0.23977 0.94896 0.0
H3249 H 0.58803 0.29312 0.95857 0.0
H3250 H 0.61819 0.23681 0.98214 0.0
H3251 H 0.59344 0.28999 0.99114 0.0
H3252 H 0.61667 0.29026 0.0463 0.0
H3253 H 0.61819 0.29033 0.01288 0.0
H3254 H 0.60117 0.23297 0.01178 0.0
H3255 H 0.60038 0.2328 0.04558 0.0
C3256 C 0.60835 0.25087 0.95805 0.0
C3257 C 0.5998 0.26672 0.95098 0.0
C3258 C 0.61161 0.24913 0.97706 0.0
C3259 C 0.6065 0.26326 0.98931 0.0
C3260 C 0.59799 0.27901 0.98214 0.0
C3261 C 0.59474 0.28074 0.96334 0.0
C3262 C 0.61367 0.27754 0.03893 0.0
C3263 C 0.60825 0.26158 0.04848 0.0
C3264 C 0.61441 0.2776 0.01977 0.0
C3265 C 0.60934 0.26179 0.00959 0.0
C3266 C 0.60517 0.24538 0.01918 0.0
C3267 C 0.60471 0.24526 0.03852 0.0
H3268 H 0.73374 0.58721 0.04248 0.0
H3269 H 0.77652 0.62867 0.03978 0.0
H3270 H 0.7308 0.58756 0.00928 0.0
H3271 H 0.77458 0.62844 0.00634 0.0
H3272 H 0.75761 0.63648 0.94709 0.0
H3273 H 0.75906 0.63689 0.98065 0.0
H3274 H 0.7411 0.57963 0.98144 0.0
H3275 H 0.73829 0.5801 0.94811 0.0
C3276 C 0.74297 0.59598 0.03463 0.0
C3277 C 0.75577 0.60747 0.04365 0.0
C3278 C 0.74138 0.59616 0.01547 0.0
C3279 C 0.75261 0.60782 0.00469 0.0
C3280 C 0.76562 0.6192 0.01388 0.0
C3281 C 0.76707 0.61911 0.03312 0.0
C3282 C 0.75398 0.62407 0.9546 0.0
C3283 C 0.74849 0.60804 0.94513 0.0
C3284 C 0.75489 0.6242 0.97388 0.0
C3285 C 0.75056 0.60818 0.98411 0.0
C3286 C 0.74436 0.59238 0.97438 0.0
C3287 C 0.74298 0.59248 0.95518 0.0
H3288 H 0.41956 0.71099 0.95956 0.0
H3289 H 0.38834 0.76111 0.95361 0.0
H3290 H 0.4148 0.71164 0.99228 0.0
H3291 H 0.38322 0.7615 0.98706 0.0
H3292 H 0.40174 0.76379 0.05051 0.0
H3293 H 0.40042 0.7656 0.01681 0.0
H3294 H 0.39063 0.7067 0.0141 0.0
H3295 H 0.3926 0.70486 0.04744 0.0
C3296 C 0.41149 0.72214 0.96516 0.0
C3297 C 0.40426 0.73598 0.95374 0.0
C3298 C 0.40862 0.7224 0.98407 0.0
C3299 C 0.39835 0.73643 0.99235 0.0
C3300 C 0.39118 0.75046 0.98109 0.0
C3301 C 0.39405 0.7502 0.96194 0.0
C3302 C 0.39892 0.75133 0.04267 0.0
C3303 C 0.39756 0.73413 0.05158 0.0
C3304 C 0.39814 0.75237 0.02338 0.0
C3305 C 0.39582 0.73624 0.01272 0.0
C3306 C 0.39296 0.71933 0.02183 0.0
C3307 C 0.39399 0.71827 0.04097 0.0
H3308 H 0.2413 0.36081 0.04932 0.0
H3309 H 0.25801 0.41804 0.04965 0.0
H3310 H 0.24009 0.36114 0.01569 0.0
H3311 H 0.2555 0.41909 0.0163 0.0
H3312 H 0.26529 0.41224 0.9554 0.0
H3313 H 0.26738 0.41155 0.9887 0.0
H3314 H 0.22401 0.37018 0.99013 0.0
H3315 H 0.22333 0.36988 0.95659 0.0
C3316 C 0.24437 0.37355 0.0421 0.0
C3317 C 0.24905 0.3896 0.05193 0.0
C3318 C 0.24362 0.37382 0.02282 0.0
C3319 C 0.24737 0.39024 0.013 0.0
C3320 C 0.25271 0.40609 0.02309 0.0
C3321 C 0.25391 0.40563 0.04228 0.0
C3322 C 0.25603 0.40322 0.96292 0.0
C3323 C 0.24367 0.3916 0.95347 0.0
C3324 C 0.25711 0.40286 0.98211 0.0
C3325 C 0.24575 0.39092 0.99244 0.0
C3326 C 0.23313 0.37949 0.98285 0.0
C3327 C 0.23233 0.37962 0.96358 0.0
H3328 H 0.05062 0.5842 0.73435 0.0
H3329 H 0.05046 0.62577 0.77678 0.0
H3330 H 0.01746 0.58535 0.73235 0.0
H3331 H 0.01698 0.62547 0.77665 0.0
H3332 H 0.95771 0.63518 0.76151 0.0
H3333 H 0.99124 0.63485 0.76192 0.0
H3334 H 0.98976 0.57796 0.74326 0.0
H3335 H 0.95647 0.57921 0.74142 0.0
C3336 C 0.04335 0.59311 0.74378 0.0
C3337 C 0.05309 0.60436 0.75624 0.0
C3338 C 0.0242 0.59371 0.74277 0.0
C3339 C 0.01413 0.60541 0.75441 0.0
C3340 C 0.02401 0.61643 0.7672 0.0
C3341 C 0.04326 0.61622 0.76777 0.0
C3342 C 0.96473 0.62269 0.75751 0.0
C3343 C 0.95465 0.60698 0.7521 0.0
C3344 C 0.98398 0.62239 0.75781 0.0
C3345 C 0.99357 0.60625 0.75298 0.0
C3346 C 0.98321 0.59079 0.74688 0.0
C3347 C 0.96403 0.59133 0.74607 0.0
H3348 H 0.4252 0.94874 0.75432 0.0
H3349 H 0.3688 0.9471 0.73612 0.0
H3350 H 0.42367 0.98224 0.75788 0.0
H3351 H 0.3671 0.98083 0.73974 0.0
H3352 H 0.36905 0.04089 0.76326 0.0
H3353 H 0.36867 0.00698 0.76248 0.0
H3354 H 0.42149 0.00783 0.7355 0.0
H3355 H 0.42177 0.04161 0.73644 0.0
C3356 C 0.41241 0.95562 0.75129 0.0
C3357 C 0.39714 0.94553 0.74489 0.0
C3358 C 0.41154 0.97477 0.75325 0.0
C3359 C 0.39535 0.9842 0.74886 0.0
C3360 C 0.37975 0.97393 0.74329 0.0
C3361 C 0.38067 0.95469 0.74124 0.0
C3362 C 0.38062 0.0337 0.75738 0.0
C3363 C 0.39578 0.04365 0.75054 0.0
C3364 C 0.38033 0.01437 0.75674 0.0
C3365 C 0.39518 0.00472 0.74919 0.0
C3366 C 0.41004 0.01484 0.7418 0.0
C3367 C 0.41021 0.03412 0.74226 0.0
H3368 H 0.04564 0.41015 0.70873 0.0
H3369 H 0.05178 0.38582 0.76265 0.0
H3370 H 0.01275 0.4064 0.71075 0.0
H3371 H 0.01839 0.38153 0.76442 0.0
H3372 H 0.9557 0.38688 0.70978 0.0
H3373 H 0.98894 0.38405 0.70999 0.0
H3374 H 0.99019 0.39914 0.76756 0.0
H3375 H 0.95658 0.40117 0.76744 0.0
C3376 C 0.04003 0.40372 0.72096 0.0
C3377 C 0.05152 0.39826 0.73552 0.0
C3378 C 0.02103 0.40144 0.72206 0.0
C3379 C 0.01281 0.39346 0.73767 0.0
C3380 C 0.02423 0.3878 0.75223 0.0
C3381 C 0.04339 0.39016 0.75116 0.0
C3382 C 0.96306 0.38924 0.72258 0.0
C3383 C 0.9536 0.3944 0.73855 0.0
C3384 C 0.98214 0.38776 0.72268 0.0
C3385 C 0.99236 0.39183 0.73867 0.0
C3386 C 0.98279 0.39587 0.755 0.0
C3387 C 0.96354 0.39705 0.75496 0.0
H3388 H 0.62909 0.95799 0.76921 0.0
H3389 H 0.58234 0.95908 0.73293 0.0
H3390 H 0.62849 0.99137 0.77194 0.0
H3391 H 0.58238 0.99249 0.73404 0.0
H3392 H 0.57361 0.05111 0.74824 0.0
H3393 H 0.57455 0.01766 0.7484 0.0
H3394 H 0.63165 0.02057 0.76558 0.0
H3395 H 0.62943 0.05388 0.76769 0.0
C3396 C 0.6186 0.96553 0.76187 0.0
C3397 C 0.60501 0.95601 0.75187 0.0
C3398 C 0.6184 0.98485 0.76308 0.0
C3399 C 0.60482 0.99519 0.75389 0.0
C3400 C 0.59235 0.98542 0.74241 0.0
C3401 C 0.59242 0.96613 0.7415 0.0
C3402 C 0.58612 0.04439 0.75258 0.0
C3403 C 0.60132 0.05493 0.75824 0.0
C3404 C 0.58693 0.02511 0.75223 0.0
C3405 C 0.60344 0.01584 0.7563 0.0
C3406 C 0.61855 0.02667 0.76241 0.0
C3407 C 0.61738 0.04593 0.76363 0.0
H3408 H 0.95252 0.42249 0.26276 0.0
H3409 H 0.95918 0.36923 0.2372 0.0
H3410 H 0.98579 0.42581 0.26583 0.0
H3411 H 0.99267 0.37228 0.24048 0.0
H3412 H 0.05277 0.39442 0.23421 0.0
H3413 H 0.01966 0.39057 0.2294 0.0
H3414 H 0.00978 0.41187 0.284 0.0
H3415 H 0.04253 0.41603 0.28872 0.0
C3416 C 0.96122 0.41157 0.25767 0.0
C3417 C 0.95348 0.39592 0.24918 0.0
C3418 C 0.98023 0.41336 0.25954 0.0
C3419 C 0.99191 0.3993 0.25339 0.0
C3420 C 0.98408 0.38347 0.2451 0.0
C3421 C 0.96498 0.38173 0.24317 0.0
C3422 C 0.04353 0.39825 0.24519 0.0
C3423 C 0.05039 0.40562 0.26183 0.0
C3424 C 0.02456 0.39596 0.24245 0.0
C3425 C 0.01208 0.40105 0.25626 0.0
C3426 C 0.01899 0.40813 0.27294 0.0
C3427 C 0.03784 0.41041 0.27568 0.0
H3428 H 0.6019 0.0485 0.23415 0.0
H3429 H 0.61671 0.04912 0.29169 0.0
H3430 H 0.60319 0.01465 0.23408 0.0
H3431 H 0.61865 0.01563 0.29152 0.0
H3432 H 0.59019 0.95976 0.29298 0.0
H3433 H 0.59487 0.9927 0.29063 0.0
H3434 H 0.62057 0.98567 0.2376 0.0
H3435 H 0.61547 0.95219 0.23976 0.0
C3436 C 0.60598 0.04143 0.24661 0.0
C3437 C 0.60897 0.0514 0.26298 0.0
C3438 C 0.60673 0.02205 0.24658 0.0
C3439 C 0.61063 0.01237 0.2629 0.0
C3440 C 0.61508 0.02256 0.27884 0.0
C3441 C 0.61409 0.04179 0.27892 0.0
C3442 C 0.59697 0.96506 0.28081 0.0
C3443 C 0.60248 0.95316 0.26658 0.0
C3444 C 0.5998 0.98407 0.27953 0.0
C3445 C 0.60832 0.9919 0.26402 0.0
C3446 C 0.61393 0.98009 0.24973 0.0
C3447 C 0.61109 0.9609 0.25101 0.0
H3448 H 0.04519 0.62534 0.28778 0.0
H3449 H 0.04731 0.60596 0.2316 0.0
H3450 H 0.01182 0.62539 0.28637 0.0
H3451 H 0.01371 0.60547 0.23033 0.0
H3452 H 0.95115 0.61485 0.23231 0.0
H3453 H 0.98418 0.62171 0.23131 0.0
H3454 H 0.98995 0.60051 0.28652 0.0
H3455 H 0.95734 0.59408 0.2877 0.0
C3456 C 0.03851 0.62132 0.27502 0.0
C3457 C 0.04891 0.61547 0.25987 0.0
C3458 C 0.01935 0.62122 0.27425 0.0
C3459 C 0.01003 0.61503 0.25838 0.0
C3460 C 0.02042 0.61037 0.24276 0.0
C3461 C 0.03969 0.61065 0.24348 0.0
C3462 C 0.95947 0.61184 0.24429 0.0
C3463 C 0.95148 0.60394 0.26009 0.0
C3464 C 0.97842 0.61568 0.24367 0.0
C3465 C 0.98975 0.61182 0.25888 0.0
C3466 C 0.98166 0.60408 0.27467 0.0
C3467 C 0.96287 0.60024 0.27529 0.0
H3468 H 0.41752 0.04513 0.26866 0.0
H3469 H 0.36971 0.04717 0.23387 0.0
H3470 H 0.4172 0.01178 0.26702 0.0
H3471 H 0.37001 0.01381 0.23053 0.0
H3472 H 0.36901 0.95112 0.23345 0.0
H3473 H 0.36702 0.98444 0.23607 0.0
H3474 H 0.42441 0.98675 0.25233 0.0
H3475 H 0.42513 0.95333 0.25206 0.0
C3476 C 0.40715 0.0383 0.26027 0.0
C3477 C 0.39432 0.04869 0.25047 0.0
C3478 C 0.40705 0.01903 0.25903 0.0
C3479 C 0.3942 0.00952 0.24777 0.0
C3480 C 0.38041 0.02012 0.23918 0.0
C3481 C 0.38037 0.03943 0.24073 0.0
C3482 C 0.38117 0.95895 0.23743 0.0
C3483 C 0.39726 0.94978 0.24242 0.0
C3484 C 0.38013 0.97822 0.23894 0.0
C3485 C 0.3954 0.98889 0.24497 0.0
C3486 C 0.41191 0.97945 0.24863 0.0
C3487 C 0.4126 0.96017 0.248 0.0
H3488 H 0.72945 0.04811 0.58196 0.0
H3489 H 0.7592 0.04495 0.63317 0.0
H3490 H 0.72577 0.01454 0.58159 0.0
H3491 H 0.75535 0.01125 0.63313 0.0
H3492 H 0.76217 0.95035 0.61411 0.0
H3493 H 0.76551 0.9838 0.61653 0.0
H3494 H 0.70968 0.99019 0.59761 0.0
H3495 H 0.7063 0.95687 0.59505 0.0
C3496 C 0.73523 0.04012 0.59311 0.0
C3497 C 0.74517 0.04889 0.60723 0.0
C3498 C 0.73301 0.02094 0.59302 0.0
C3499 C 0.74031 0.01016 0.60732 0.0
C3500 C 0.74983 0.01909 0.62175 0.0
C3501 C 0.75211 0.03832 0.62177 0.0
C3502 C 0.75056 0.95886 0.61055 0.0
C3503 C 0.734 0.95083 0.60425 0.0
C3504 C 0.75248 0.97807 0.61198 0.0
C3505 C 0.73796 0.98971 0.60702 0.0
C3506 C 0.72127 0.98166 0.6012 0.0
C3507 C 0.7193 0.96249 0.59986 0.0
H3508 H 0.76321 0.04062 0.36904 0.0
H3509 H 0.73359 0.04077 0.42032 0.0
H3510 H 0.76155 0.00666 0.36829 0.0
H3511 H 0.73178 0.00707 0.41962 0.0
H3512 H 0.71292 0.95046 0.40219 0.0
H3513 H 0.71577 0.98371 0.39963 0.0
H3514 H 0.7734 0.97865 0.38718 0.0
H3515 H 0.77069 0.94494 0.38981 0.0
C3516 C 0.75662 0.03331 0.38027 0.0
C3517 C 0.7491 0.04311 0.39508 0.0
C3518 C 0.75559 0.01397 0.3798 0.0
C3519 C 0.74659 0.00423 0.39393 0.0
C3520 C 0.73872 0.01419 0.4085 0.0
C3521 C 0.73982 0.03343 0.40897 0.0
C3522 C 0.72625 0.95628 0.39876 0.0
C3523 C 0.74165 0.94492 0.39642 0.0
C3524 C 0.72785 0.97541 0.39738 0.0
C3525 C 0.74486 0.98379 0.39351 0.0
C3526 C 0.76013 0.97252 0.39021 0.0
C3527 C 0.75856 0.95324 0.39173 0.0
H3528 H 0.96283 0.70882 0.39861 0.0
H3529 H 0.95206 0.76678 0.38989 0.0
H3530 H 0.99555 0.71502 0.39736 0.0
H3531 H 0.98529 0.77289 0.38846 0.0
H3532 H 0.04866 0.76735 0.37098 0.0
H3533 H 0.01501 0.76417 0.36963 0.0
H3534 H 0.01606 0.73245 0.41987 0.0
H3535 H 0.04948 0.73581 0.42121 0.0
C3536 C 0.9674 0.72289 0.39622 0.0
C3537 C 0.95474 0.73735 0.39462 0.0
C3538 C 0.98621 0.72642 0.39559 0.0
C3539 C 0.99294 0.74448 0.39323 0.0
C3540 C 0.98042 0.75886 0.39043 0.0
C3541 C 0.96142 0.75533 0.39119 0.0
C3542 C 0.04154 0.76012 0.38192 0.0
C3543 C 0.05142 0.75231 0.39652 0.0
C3544 C 0.02238 0.75823 0.3811 0.0
C3545 C 0.01297 0.74805 0.39463 0.0
C3546 C 0.02298 0.74027 0.4092 0.0
C3547 C 0.04203 0.74224 0.41004 0.0
H3548 H 0.2929 0.04992 0.4061 0.0
H3549 H 0.23616 0.05478 0.38915 0.0
H3550 H 0.2903 0.01658 0.40424 0.0
H3551 H 0.23364 0.02116 0.3873 0.0
H3552 H 0.24182 0.9596 0.37194 0.0
H3553 H 0.24423 0.99339 0.37109 0.0
H3554 H 0.27521 0.99263 0.42192 0.0
H3555 H 0.27294 0.95893 0.42246 0.0
C3556 C 0.27986 0.04392 0.40187 0.0
C3557 C 0.26467 0.05513 0.39795 0.0
C3558 C 0.27835 0.02474 0.40094 0.0
C3559 C 0.26165 0.01618 0.39602 0.0
C3560 C 0.24666 0.02732 0.39128 0.0
C3561 C 0.24812 0.04661 0.39233 0.0
C3562 C 0.24892 0.9668 0.383 0.0
C3563 C 0.2567 0.9569 0.39759 0.0
C3564 C 0.25034 0.98607 0.3825 0.0
C3565 C 0.25987 0.99571 0.39645 0.0
C3566 C 0.26794 0.98563 0.41085 0.0
C3567 C 0.26656 0.96639 0.41128 0.0
H3568 H 0.04594 0.23036 0.38362 0.0
H3569 H 0.03948 0.28922 0.39119 0.0
H3570 H 0.01237 0.22669 0.38254 0.0
H3571 H 0.00642 0.28536 0.3905 0.0
H3572 H 0.94901 0.23677 0.36618 0.0
H3573 H 0.98271 0.23786 0.3637 0.0
H3574 H 0.98559 0.2692 0.41427 0.0
H3575 H 0.95211 0.26778 0.41681 0.0
C3576 C 0.03746 0.2425 0.38477 0.0
C3577 C 0.04548 0.26004 0.38776 0.0
C3578 C 0.01827 0.24037 0.38422 0.0
C3579 C 0.00687 0.25569 0.3869 0.0
C3580 C 0.0149 0.27327 0.38881 0.0
C3581 C 0.03391 0.27544 0.38912 0.0
C3582 C 0.95699 0.24347 0.37693 0.0
C3583 C 0.94818 0.25165 0.39202 0.0
C3584 C 0.97617 0.24418 0.37547 0.0
C3585 C 0.9867 0.25358 0.38881 0.0
C3586 C 0.97778 0.26191 0.40377 0.0
C3587 C 0.95869 0.26107 0.40528 0.0
H3588 H 0.29412 0.04673 0.59467 0.0
H3589 H 0.23807 0.0542 0.61253 0.0
H3590 H 0.29013 0.01345 0.59697 0.0
H3591 H 0.23411 0.02078 0.61465 0.0
H3592 H 0.23951 0.95967 0.63186 0.0
H3593 H 0.24392 0.99331 0.63179 0.0
H3594 H 0.27369 0.98921 0.58058 0.0
H3595 H 0.26941 0.95569 0.58093 0.0
C3596 C 0.28094 0.04133 0.59915 0.0
C3597 C 0.26639 0.05326 0.60333 0.0
C3598 C 0.27863 0.02218 0.60035 0.0
C3599 C 0.26173 0.01441 0.60581 0.0
C3600 C 0.24731 0.0263 0.61045 0.0
C3601 C 0.24959 0.04549 0.60917 0.0
C3602 C 0.24677 0.9661 0.62052 0.0
C3603 C 0.25355 0.95531 0.60605 0.0
C3604 C 0.24937 0.9853 0.62049 0.0
C3605 C 0.25908 0.99399 0.60612 0.0
C3606 C 0.26628 0.98299 0.59193 0.0
C3607 C 0.26371 0.96384 0.59202 0.0
H3608 H 0.95818 0.24095 0.62935 0.0
H3609 H 0.9544 0.26727 0.57638 0.0
H3610 H 0.99179 0.24406 0.62845 0.0
H3611 H 0.98781 0.27019 0.57519 0.0
H3612 H 0.04463 0.29167 0.58739 0.0
H3613 H 0.01169 0.28781 0.59048 0.0
H3614 H 0.0193 0.23286 0.61195 0.0
H3615 H 0.0526 0.23675 0.60908 0.0
C3616 C 0.96464 0.24708 0.61738 0.0
C3617 C 0.9539 0.25333 0.60264 0.0
C3618 C 0.98382 0.24892 0.61687 0.0
C3619 C 0.99251 0.25736 0.60174 0.0
C3620 C 0.98159 0.26381 0.58714 0.0
C3621 C 0.96249 0.26202 0.58771 0.0
C3622 C 0.0394 0.27874 0.59286 0.0
C3623 C 0.05138 0.26446 0.59786 0.0
C3624 C 0.02043 0.2765 0.59452 0.0
C3625 C 0.01282 0.25992 0.60118 0.0
C3626 C 0.02473 0.24581 0.60677 0.0
C3627 C 0.04382 0.24805 0.6051 0.0
H3628 H 0.0421 0.76166 0.63216 0.0
H3629 H 0.04413 0.73307 0.58015 0.0
H3630 H 0.00854 0.75819 0.63252 0.0
H3631 H 0.0107 0.72974 0.58022 0.0
H3632 H 0.95394 0.7094 0.59457 0.0
H3633 H 0.98705 0.71298 0.59665 0.0
H3634 H 0.98069 0.76873 0.61665 0.0
H3635 H 0.94735 0.76518 0.6147 0.0
C3636 C 0.03526 0.75494 0.62066 0.0
C3637 C 0.04549 0.74819 0.60581 0.0
C3638 C 0.0161 0.75288 0.62088 0.0
C3639 C 0.0069 0.74371 0.60638 0.0
C3640 C 0.01732 0.7367 0.59171 0.0
C3641 C 0.03643 0.73872 0.59155 0.0
C3642 C 0.9595 0.72243 0.59953 0.0
C3643 C 0.94785 0.73705 0.60433 0.0
C3644 C 0.97856 0.72451 0.60059 0.0
C3645 C 0.98656 0.74125 0.60651 0.0
C3646 C 0.97498 0.75567 0.61199 0.0
C3647 C 0.95584 0.75362 0.61086 0.0
loop_
_geom_bond_atom_site_label_1
_geom_bond_atom_site_label_2
_geom_bond_distance
_geom_bond_site_symmetry_2
_ccdc_geom_bond_type
Mn0 O5 2.095 . S
Mn0 O15 2.162 . S
Mn0 O16 2.297 . S
Mn0 O24 2.385 . S
Mn0 O25 2.209 . S
Mn0 O26 2.094 . S
Mn1 O6 2.121 . S
Mn1 N8 2.257 . S
Mn1 N17 2.282 . S
Mn1 O25 2.215 . S
Mn1 O27 2.117 . S
C2 O24 1.234 . S
C2 O25 1.283 . S
C3 O15 1.281 . S
C3 O16 1.236 . S
C4 O26 1.240 . S
C4 O27 1.264 . S
O5 Mn0 2.095 . S
O5 C14 1.250 . S
O6 Mn1 2.121 . S
O6 C14 1.258 . S
C7 N8 1.326 . S
C7 C11 1.460 . S
C7 H13 0.929 . S
N8 Mn1 2.257 . S
N8 C7 1.326 . S
N8 C12 1.362 . S
C9 C10 1.258 . S
C9 C12 1.431 . S
C9 C29 1.449 . S
C10 C9 1.258 . S
C10 C11 1.477 . S
C10 H30 0.931 . S
C11 C7 1.460 . S
C11 C10 1.477 . S
C11 H31 0.930 . S
C12 N8 1.362 . S
C12 C9 1.431 . S
C12 C22 1.476 . S
H13 C7 0.929 . S
C14 O5 1.250 . S
C14 O6 1.258 . S
O15 Mn0 2.162 . S
O15 C3 1.281 . S
O16 Mn0 2.297 . S
O16 C3 1.236 . S
N17 Mn1 2.282 . S
N17 C18 1.328 . S
N17 C22 1.318 . S
C18 N17 1.328 . S
C18 C19 1.457 . S
C18 H23 0.929 . S
C19 C18 1.457 . S
C19 C20 1.291 . S
C19 H32 0.931 . S
C20 C19 1.291 . S
C20 C21 1.373 . S
C20 H33 0.929 . S
C21 C20 1.373 . S
C21 C22 1.396 . S
C21 C28 1.403 . S
C22 C12 1.476 . S
C22 N17 1.318 . S
C22 C21 1.396 . S
H23 C18 0.929 . S
O24 Mn0 2.385 . S
O24 C2 1.234 . S
O25 Mn0 2.209 . S
O25 Mn1 2.215 . S
O25 C2 1.283 . S
O26 Mn0 2.094 . S
O26 C4 1.240 . S
O27 Mn1 2.117 . S
O27 C4 1.264 . S
C28 C21 1.403 . S
C28 C29 1.399 . S
C28 H34 0.929 . S
C29 C9 1.449 . S
C29 C28 1.399 . S
C29 H35 0.930 . S
H30 C10 0.931 . S
H31 C11 0.930 . S
H32 C19 0.931 . S
H33 C20 0.929 . S
H34 C28 0.929 . S
H35 C29 0.930 . S
Mn36 O41 2.095 . S
Mn36 O51 2.162 . S
Mn36 O52 2.297 . S
Mn36 O60 2.385 . S
Mn36 O61 2.209 . S
Mn36 O62 2.094 . S
Mn37 O42 2.121 . S
Mn37 N44 2.257 . S
Mn37 N53 2.282 . S
Mn37 O61 2.215 . S
Mn37 O63 2.117 . S
C38 O60 1.234 . S
C38 O61 1.283 . S
C39 O51 1.281 . S
C39 O52 1.236 . S
C40 O62 1.240 . S
C40 O63 1.264 . S
O41 Mn36 2.095 . S
O41 C50 1.250 . S
O42 Mn37 2.121 . S
O42 C50 1.258 . S
C43 N44 1.326 . S
C43 C47 1.460 . S
C43 H49 0.929 . S
N44 Mn37 2.257 . S
N44 C43 1.326 . S
N44 C48 1.362 . S
C45 C46 1.258 . S
C45 C48 1.431 . S
C45 C65 1.449 . S
C46 C45 1.258 . S
C46 C47 1.477 . S
C46 H66 0.931 . S
C47 C43 1.460 . S
C47 C46 1.477 . S
C47 H67 0.930 . S
C48 N44 1.362 . S
C48 C45 1.431 . S
C48 C58 1.476 . S
H49 C43 0.929 . S
C50 O41 1.250 . S
C50 O42 1.258 . S
O51 Mn36 2.162 . S
O51 C39 1.281 . S
O52 Mn36 2.297 . S
O52 C39 1.236 . S
N53 Mn37 2.282 . S
N53 C54 1.328 . S
N53 C58 1.318 . S
C54 N53 1.328 . S
C54 C55 1.457 . S
C54 H59 0.929 . S
C55 C54 1.457 . S
C55 C56 1.291 . S
C55 H68 0.931 . S
C56 C55 1.291 . S
C56 C57 1.373 . S
C56 H69 0.929 . S
C57 C56 1.373 . S
C57 C58 1.396 . S
C57 C64 1.403 . S
C58 C48 1.476 . S
C58 N53 1.318 . S
C58 C57 1.396 . S
H59 C54 0.929 . S
O60 Mn36 2.385 . S
O60 C38 1.234 . S
O61 Mn36 2.209 . S
O61 Mn37 2.215 . S
O61 C38 1.283 . S
O62 Mn36 2.094 . S
O62 C40 1.240 . S
O63 Mn37 2.117 . S
O63 C40 1.264 . S
C64 C57 1.403 . S
C64 C65 1.399 . S
C64 H70 0.929 . S
C65 C45 1.449 . S
C65 C64 1.399 . S
C65 H71 0.930 . S
H66 C46 0.931 . S
H67 C47 0.930 . S
H68 C55 0.931 . S
H69 C56 0.929 . S
H70 C64 0.929 . S
H71 C65 0.930 . S
Mn72 O77 2.095 . S
Mn72 O87 2.162 . S
Mn72 O88 2.297 . S
Mn72 O96 2.385 . S
Mn72 O97 2.209 . S
Mn72 O98 2.094 . S
Mn73 O78 2.121 . S
Mn73 N80 2.257 . S
Mn73 N89 2.282 . S
Mn73 O97 2.215 . S
Mn73 O99 2.117 . S
C74 O96 1.234 . S
C74 O97 1.283 . S
C75 O87 1.281 . S
C75 O88 1.236 . S
C76 O98 1.240 . S
C76 O99 1.264 . S
O77 Mn72 2.095 . S
O77 C86 1.250 . S
O78 Mn73 2.121 . S
O78 C86 1.258 . S
C79 N80 1.326 . S
C79 C83 1.460 . S
C79 H85 0.929 . S
N80 Mn73 2.257 . S
N80 C79 1.326 . S
N80 C84 1.362 . S
C81 C82 1.258 . S
C81 C84 1.431 . S
C81 C101 1.449 . S
C82 C81 1.258 . S
C82 C83 1.477 . S
C82 H102 0.931 . S
C83 C79 1.460 . S
C83 C82 1.477 . S
C83 H103 0.930 . S
C84 N80 1.362 . S
C84 C81 1.431 . S
C84 C94 1.476 . S
H85 C79 0.929 . S
C86 O77 1.250 . S
C86 O78 1.258 . S
O87 Mn72 2.162 . S
O87 C75 1.281 . S
O88 Mn72 2.297 . S
O88 C75 1.236 . S
N89 Mn73 2.282 . S
N89 C90 1.328 . S
N89 C94 1.318 . S
C90 N89 1.328 . S
C90 C91 1.457 . S
C90 H95 0.929 . S
C91 C90 1.457 . S
C91 C92 1.291 . S
C91 H104 0.931 . S
C92 C91 1.291 . S
C92 C93 1.373 . S
C92 H105 0.929 . S
C93 C92 1.373 . S
C93 C94 1.396 . S
C93 C100 1.403 . S
C94 C84 1.476 . S
C94 N89 1.318 . S
C94 C93 1.396 . S
H95 C90 0.929 . S
O96 Mn72 2.385 . S
O96 C74 1.234 . S
O97 Mn72 2.209 . S
O97 Mn73 2.215 . S
O97 C74 1.283 . S
O98 Mn72 2.094 . S
O98 C76 1.240 . S
O99 Mn73 2.117 . S
O99 C76 1.264 . S
C100 C93 1.403 . S
C100 C101 1.399 . S
C100 H106 0.929 . S
C101 C81 1.449 . S
C101 C100 1.399 . S
C101 H107 0.930 . S
H102 C82 0.931 . S
H103 C83 0.930 . S
H104 C91 0.931 . S
H105 C92 0.929 . S
H106 C100 0.929 . S
H107 C101 0.930 . S
Mn108 O113 2.095 . S
Mn108 O123 2.162 . S
Mn108 O124 2.297 . S
Mn108 O132 2.385 . S
Mn108 O133 2.209 . S
Mn108 O134 2.094 . S
Mn109 O114 2.121 . S
Mn109 N116 2.257 . S
Mn109 N125 2.282 . S
Mn109 O133 2.215 . S
Mn109 O135 2.117 . S
C110 O132 1.234 . S
C110 O133 1.283 . S
C111 O123 1.281 . S
C111 O124 1.236 . S
C112 O134 1.240 . S
C112 O135 1.264 . S
O113 Mn108 2.095 . S
O113 C122 1.250 . S
O114 Mn109 2.121 . S
O114 C122 1.258 . S
C115 N116 1.326 . S
C115 C119 1.460 . S
C115 H121 0.929 . S
N116 Mn109 2.257 . S
N116 C115 1.326 . S
N116 C120 1.362 . S
C117 C118 1.258 . S
C117 C120 1.431 . S
C117 C137 1.449 . S
C118 C117 1.258 . S
C118 C119 1.477 . S
C118 H138 0.931 . S
C119 C115 1.460 . S
C119 C118 1.477 . S
C119 H139 0.930 . S
C120 N116 1.362 . S
C120 C117 1.431 . S
C120 C130 1.476 . S
H121 C115 0.929 . S
C122 O113 1.250 . S
C122 O114 1.258 . S
O123 Mn108 2.162 . S
O123 C111 1.281 . S
O124 Mn108 2.297 . S
O124 C111 1.236 . S
N125 Mn109 2.282 . S
N125 C126 1.328 . S
N125 C130 1.318 . S
C126 N125 1.328 . S
C126 C127 1.457 . S
C126 H131 0.929 . S
C127 C126 1.457 . S
C127 C128 1.291 . S
C127 H140 0.931 . S
C128 C127 1.291 . S
C128 C129 1.373 . S
C128 H141 0.929 . S
C129 C128 1.373 . S
C129 C130 1.396 . S
C129 C136 1.403 . S
C130 C120 1.476 . S
C130 N125 1.318 . S
C130 C129 1.396 . S
H131 C126 0.929 . S
O132 Mn108 2.385 . S
O132 C110 1.234 . S
O133 Mn108 2.209 . S
O133 Mn109 2.215 . S
O133 C110 1.283 . S
O134 Mn108 2.094 . S
O134 C112 1.240 . S
O135 Mn109 2.117 . S
O135 C112 1.264 . S
C136 C129 1.403 . S
C136 C137 1.399 . S
C136 H142 0.929 . S
C137 C117 1.449 . S
C137 C136 1.399 . S
C137 H143 0.930 . S
H138 C118 0.931 . S
H139 C119 0.930 . S
H140 C127 0.931 . S
H141 C128 0.929 . S
H142 C136 0.929 . S
H143 C137 0.930 . S
Mn144 O149 2.095 . S
Mn144 O159 2.162 . S
Mn144 O160 2.297 . S
Mn144 O168 2.385 . S
Mn144 O169 2.209 . S
Mn144 O170 2.094 . S
Mn145 O150 2.121 . S
Mn145 N152 2.257 . S
Mn145 N161 2.282 . S
Mn145 O169 2.215 . S
Mn145 O171 2.117 . S
C146 O168 1.234 . S
C146 O169 1.283 . S
C147 O159 1.281 . S
C147 O160 1.236 . S
C148 O170 1.240 . S
C148 O171 1.264 . S
O149 Mn144 2.095 . S
O149 C158 1.250 . S
O150 Mn145 2.121 . S
O150 C158 1.258 . S
C151 N152 1.326 . S
C151 C155 1.460 . S
C151 H157 0.929 . S
N152 Mn145 2.257 . S
N152 C151 1.326 . S
N152 C156 1.362 . S
C153 C154 1.258 . S
C153 C156 1.431 . S
C153 C173 1.449 . S
C154 C153 1.258 . S
C154 C155 1.477 . S
C154 H174 0.931 . S
C155 C151 1.460 . S
C155 C154 1.477 . S
C155 H175 0.930 . S
C156 N152 1.362 . S
C156 C153 1.431 . S
C156 C166 1.476 . S
H157 C151 0.929 . S
C158 O149 1.250 . S
C158 O150 1.258 . S
O159 Mn144 2.162 . S
O159 C147 1.281 . S
O160 Mn144 2.297 . S
O160 C147 1.236 . S
N161 Mn145 2.282 . S
N161 C162 1.328 . S
N161 C166 1.318 . S
C162 N161 1.328 . S
C162 C163 1.457 . S
C162 H167 0.929 . S
C163 C162 1.457 . S
C163 C164 1.291 . S
C163 H176 0.931 . S
C164 C163 1.291 . S
C164 C165 1.373 . S
C164 H177 0.929 . S
C165 C164 1.373 . S
C165 C166 1.396 . S
C165 C172 1.403 . S
C166 C156 1.476 . S
C166 N161 1.318 . S
C166 C165 1.396 . S
H167 C162 0.929 . S
O168 Mn144 2.385 . S
O168 C146 1.234 . S
O169 Mn144 2.209 . S
O169 Mn145 2.215 . S
O169 C146 1.283 . S
O170 Mn144 2.094 . S
O170 C148 1.240 . S
O171 Mn145 2.117 . S
O171 C148 1.264 . S
C172 C165 1.403 . S
C172 C173 1.399 . S
C172 H178 0.929 . S
C173 C153 1.449 . S
C173 C172 1.399 . S
C173 H179 0.930 . S
H174 C154 0.931 . S
H175 C155 0.930 . S
H176 C163 0.931 . S
H177 C164 0.929 . S
H178 C172 0.929 . S
H179 C173 0.930 . S
Mn180 O185 2.095 . S
Mn180 O195 2.162 . S
Mn180 O196 2.297 . S
Mn180 O204 2.385 . S
Mn180 O205 2.209 . S
Mn180 O206 2.094 . S
Mn181 O186 2.121 . S
Mn181 N188 2.257 . S
Mn181 N197 2.282 . S
Mn181 O205 2.215 . S
Mn181 O207 2.117 . S
C182 O204 1.234 . S
C182 O205 1.283 . S
C183 O195 1.281 . S
C183 O196 1.236 . S
C184 O206 1.240 . S
C184 O207 1.264 . S
O185 Mn180 2.095 . S
O185 C194 1.250 . S
O186 Mn181 2.121 . S
O186 C194 1.258 . S
C187 N188 1.326 . S
C187 C191 1.460 . S
C187 H193 0.929 . S
N188 Mn181 2.257 . S
N188 C187 1.326 . S
N188 C192 1.362 . S
C189 C190 1.258 . S
C189 C192 1.431 . S
C189 C209 1.449 . S
C190 C189 1.258 . S
C190 C191 1.477 . S
C190 H210 0.931 . S
C191 C187 1.460 . S
C191 C190 1.477 . S
C191 H211 0.930 . S
C192 N188 1.362 . S
C192 C189 1.431 . S
C192 C202 1.476 . S
H193 C187 0.929 . S
C194 O185 1.250 . S
C194 O186 1.258 . S
O195 Mn180 2.162 . S
O195 C183 1.281 . S
O196 Mn180 2.297 . S
O196 C183 1.236 . S
N197 Mn181 2.282 . S
N197 C198 1.328 . S
N197 C202 1.318 . S
C198 N197 1.328 . S
C198 C199 1.457 . S
C198 H203 0.929 . S
C199 C198 1.457 . S
C199 C200 1.291 . S
C199 H212 0.931 . S
C200 C199 1.291 . S
C200 C201 1.373 . S
C200 H213 0.929 . S
C201 C200 1.373 . S
C201 C202 1.396 . S
C201 C208 1.403 . S
C202 C192 1.476 . S
C202 N197 1.318 . S
C202 C201 1.396 . S
H203 C198 0.929 . S
O204 Mn180 2.385 . S
O204 C182 1.234 . S
O205 Mn180 2.209 . S
O205 Mn181 2.215 . S
O205 C182 1.283 . S
O206 Mn180 2.094 . S
O206 C184 1.240 . S
O207 Mn181 2.117 . S
O207 C184 1.264 . S
C208 C201 1.403 . S
C208 C209 1.399 . S
C208 H214 0.929 . S
C209 C189 1.449 . S
C209 C208 1.399 . S
C209 H215 0.930 . S
H210 C190 0.931 . S
H211 C191 0.930 . S
H212 C199 0.931 . S
H213 C200 0.929 . S
H214 C208 0.929 . S
H215 C209 0.930 . S
Mn216 O221 2.095 . S
Mn216 O231 2.162 . S
Mn216 O232 2.297 . S
Mn216 O240 2.385 . S
Mn216 O241 2.209 . S
Mn216 O242 2.094 . S
Mn217 O222 2.121 . S
Mn217 N224 2.257 . S
Mn217 N233 2.282 . S
Mn217 O241 2.215 . S
Mn217 O243 2.117 . S
C218 O240 1.234 . S
C218 O241 1.283 . S
C219 O231 1.281 . S
C219 O232 1.236 . S
C220 O242 1.240 . S
C220 O243 1.264 . S
O221 Mn216 2.095 . S
O221 C230 1.250 . S
O222 Mn217 2.121 . S
O222 C230 1.258 . S
C223 N224 1.326 . S
C223 C227 1.460 . S
C223 H229 0.929 . S
N224 Mn217 2.257 . S
N224 C223 1.326 . S
N224 C228 1.362 . S
C225 C226 1.258 . S
C225 C228 1.431 . S
C225 C245 1.449 . S
C226 C225 1.258 . S
C226 C227 1.477 . S
C226 H246 0.931 . S
C227 C223 1.460 . S
C227 C226 1.477 . S
C227 H247 0.930 . S
C228 N224 1.362 . S
C228 C225 1.431 . S
C228 C238 1.476 . S
H229 C223 0.929 . S
C230 O221 1.250 . S
C230 O222 1.258 . S
O231 Mn216 2.162 . S
O231 C219 1.281 . S
O232 Mn216 2.297 . S
O232 C219 1.236 . S
N233 Mn217 2.282 . S
N233 C234 1.328 . S
N233 C238 1.318 . S
C234 N233 1.328 . S
C234 C235 1.457 . S
C234 H239 0.929 . S
C235 C234 1.457 . S
C235 C236 1.291 . S
C235 H248 0.931 . S
C236 C235 1.291 . S
C236 C237 1.373 . S
C236 H249 0.929 . S
C237 C236 1.373 . S
C237 C238 1.396 . S
C237 C244 1.403 . S
C238 C228 1.476 . S
C238 N233 1.318 . S
C238 C237 1.396 . S
H239 C234 0.929 . S
O240 Mn216 2.385 . S
O240 C218 1.234 . S
O241 Mn216 2.209 . S
O241 Mn217 2.215 . S
O241 C218 1.283 . S
O242 Mn216 2.094 . S
O242 C220 1.240 . S
O243 Mn217 2.117 . S
O243 C220 1.264 . S
C244 C237 1.403 . S
C244 C245 1.399 . S
C244 H250 0.929 . S
C245 C225 1.449 . S
C245 C244 1.399 . S
C245 H251 0.930 . S
H246 C226 0.931 . S
H247 C227 0.930 . S
H248 C235 0.931 . S
H249 C236 0.929 . S
H250 C244 0.929 . S
H251 C245 0.930 . S
Mn252 O257 2.095 . S
Mn252 O267 2.162 . S
Mn252 O268 2.297 . S
Mn252 O276 2.385 . S
Mn252 O277 2.209 . S
Mn252 O278 2.094 . S
Mn253 O258 2.121 . S
Mn253 N260 2.257 . S
Mn253 N269 2.282 . S
Mn253 O277 2.215 . S
Mn253 O279 2.117 . S
C254 O276 1.234 . S
C254 O277 1.283 . S
C255 O267 1.281 . S
C255 O268 1.236 . S
C256 O278 1.240 . S
C256 O279 1.264 . S
O257 Mn252 2.095 . S
O257 C266 1.250 . S
O258 Mn253 2.121 . S
O258 C266 1.258 . S
C259 N260 1.326 . S
C259 C263 1.460 . S
C259 H265 0.929 . S
N260 Mn253 2.257 . S
N260 C259 1.326 . S
N260 C264 1.362 . S
C261 C262 1.258 . S
C261 C264 1.431 . S
C261 C281 1.449 . S
C262 C261 1.258 . S
C262 C263 1.477 . S
C262 H282 0.931 . S
C263 C259 1.460 . S
C263 C262 1.477 . S
C263 H283 0.930 . S
C264 N260 1.362 . S
C264 C261 1.431 . S
C264 C274 1.476 . S
H265 C259 0.929 . S
C266 O257 1.250 . S
C266 O258 1.258 . S
O267 Mn252 2.162 . S
O267 C255 1.281 . S
O268 Mn252 2.297 . S
O268 C255 1.236 . S
N269 Mn253 2.282 . S
N269 C270 1.328 . S
N269 C274 1.318 . S
C270 N269 1.328 . S
C270 C271 1.457 . S
C270 H275 0.929 . S
C271 C270 1.457 . S
C271 C272 1.291 . S
C271 H284 0.931 . S
C272 C271 1.291 . S
C272 C273 1.373 . S
C272 H285 0.929 . S
C273 C272 1.373 . S
C273 C274 1.396 . S
C273 C280 1.403 . S
C274 C264 1.476 . S
C274 N269 1.318 . S
C274 C273 1.396 . S
H275 C270 0.929 . S
O276 Mn252 2.385 . S
O276 C254 1.234 . S
O277 Mn252 2.209 . S
O277 Mn253 2.215 . S
O277 C254 1.283 . S
O278 Mn252 2.094 . S
O278 C256 1.240 . S
O279 Mn253 2.117 . S
O279 C256 1.264 . S
C280 C273 1.403 . S
C280 C281 1.399 . S
C280 H286 0.929 . S
C281 C261 1.449 . S
C281 C280 1.399 . S
C281 H287 0.930 . S
H282 C262 0.931 . S
H283 C263 0.930 . S
H284 C271 0.931 . S
H285 C272 0.929 . S
H286 C280 0.929 . S
H287 C281 0.930 . S
Mn288 O293 2.095 . S
Mn288 O303 2.162 . S
Mn288 O304 2.297 . S
Mn288 O312 2.385 . S
Mn288 O313 2.209 . S
Mn288 O314 2.094 . S
Mn289 O294 2.121 . S
Mn289 N296 2.257 . S
Mn289 N305 2.282 . S
Mn289 O313 2.215 . S
Mn289 O315 2.117 . S
C290 O312 1.234 . S
C290 O313 1.283 . S
C291 O303 1.281 . S
C291 O304 1.236 . S
C292 O314 1.240 . S
C292 O315 1.264 . S
O293 Mn288 2.095 . S
O293 C302 1.250 . S
O294 Mn289 2.121 . S
O294 C302 1.258 . S
C295 N296 1.326 . S
C295 C299 1.460 . S
C295 H301 0.929 . S
N296 Mn289 2.257 . S
N296 C295 1.326 . S
N296 C300 1.362 . S
C297 C298 1.258 . S
C297 C300 1.431 . S
C297 C317 1.449 . S
C298 C297 1.258 . S
C298 C299 1.477 . S
C298 H318 0.931 . S
C299 C295 1.460 . S
C299 C298 1.477 . S
C299 H319 0.930 . S
C300 N296 1.362 . S
C300 C297 1.431 . S
C300 C310 1.476 . S
H301 C295 0.929 . S
C302 O293 1.250 . S
C302 O294 1.258 . S
O303 Mn288 2.162 . S
O303 C291 1.281 . S
O304 Mn288 2.297 . S
O304 C291 1.236 . S
N305 Mn289 2.282 . S
N305 C306 1.328 . S
N305 C310 1.318 . S
C306 N305 1.328 . S
C306 C307 1.457 . S
C306 H311 0.929 . S
C307 C306 1.457 . S
C307 C308 1.291 . S
C307 H320 0.931 . S
C308 C307 1.291 . S
C308 C309 1.373 . S
C308 H321 0.929 . S
C309 C308 1.373 . S
C309 C310 1.396 . S
C309 C316 1.403 . S
C310 C300 1.476 . S
C310 N305 1.318 . S
C310 C309 1.396 . S
H311 C306 0.929 . S
O312 Mn288 2.385 . S
O312 C290 1.234 . S
O313 Mn288 2.209 . S
O313 Mn289 2.215 . S
O313 C290 1.283 . S
O314 Mn288 2.094 . S
O314 C292 1.240 . S
O315 Mn289 2.117 . S
O315 C292 1.264 . S
C316 C309 1.403 . S
C316 C317 1.399 . S
C316 H322 0.929 . S
C317 C297 1.449 . S
C317 C316 1.399 . S
C317 H323 0.930 . S
H318 C298 0.931 . S
H319 C299 0.930 . S
H320 C307 0.931 . S
H321 C308 0.929 . S
H322 C316 0.929 . S
H323 C317 0.930 . S
Mn324 O329 2.095 . S
Mn324 O339 2.162 . S
Mn324 O340 2.297 . S
Mn324 O348 2.385 . S
Mn324 O349 2.209 . S
Mn324 O350 2.094 . S
Mn325 O330 2.121 . S
Mn325 N332 2.257 . S
Mn325 N341 2.282 . S
Mn325 O349 2.215 . S
Mn325 O351 2.117 . S
C326 O348 1.234 . S
C326 O349 1.283 . S
C327 O339 1.281 . S
C327 O340 1.236 . S
C328 O350 1.240 . S
C328 O351 1.264 . S
O329 Mn324 2.095 . S
O329 C338 1.250 . S
O330 Mn325 2.121 . S
O330 C338 1.258 . S
C331 N332 1.326 . S
C331 C335 1.460 . S
C331 H337 0.929 . S
N332 Mn325 2.257 . S
N332 C331 1.326 . S
N332 C336 1.362 . S
C333 C334 1.258 . S
C333 C336 1.431 . S
C333 C353 1.449 . S
C334 C333 1.258 . S
C334 C335 1.477 . S
C334 H354 0.931 . S
C335 C331 1.460 . S
C335 C334 1.477 . S
C335 H355 0.930 . S
C336 N332 1.362 . S
C336 C333 1.431 . S
C336 C346 1.476 . S
H337 C331 0.929 . S
C338 O329 1.250 . S
C338 O330 1.258 . S
O339 Mn324 2.162 . S
O339 C327 1.281 . S
O340 Mn324 2.297 . S
O340 C327 1.236 . S
N341 Mn325 2.282 . S
N341 C342 1.328 . S
N341 C346 1.318 . S
C342 N341 1.328 . S
C342 C343 1.457 . S
C342 H347 0.929 . S
C343 C342 1.457 . S
C343 C344 1.291 . S
C343 H356 0.931 . S
C344 C343 1.291 . S
C344 C345 1.373 . S
C344 H357 0.929 . S
C345 C344 1.373 . S
C345 C346 1.396 . S
C345 C352 1.403 . S
C346 C336 1.476 . S
C346 N341 1.318 . S
C346 C345 1.396 . S
H347 C342 0.929 . S
O348 Mn324 2.385 . S
O348 C326 1.234 . S
O349 Mn324 2.209 . S
O349 Mn325 2.215 . S
O349 C326 1.283 . S
O350 Mn324 2.094 . S
O350 C328 1.240 . S
O351 Mn325 2.117 . S
O351 C328 1.264 . S
C352 C345 1.403 . S
C352 C353 1.399 . S
C352 H358 0.929 . S
C353 C333 1.449 . S
C353 C352 1.399 . S
C353 H359 0.930 . S
H354 C334 0.931 . S
H355 C335 0.930 . S
H356 C343 0.931 . S
H357 C344 0.929 . S
H358 C352 0.929 . S
H359 C353 0.930 . S
Mn360 O365 2.095 . S
Mn360 O375 2.162 . S
Mn360 O376 2.297 . S
Mn360 O384 2.385 . S
Mn360 O385 2.209 . S
Mn360 O386 2.094 . S
Mn361 O366 2.121 . S
Mn361 N368 2.257 . S
Mn361 N377 2.282 . S
Mn361 O385 2.215 . S
Mn361 O387 2.117 . S
C362 O384 1.234 . S
C362 O385 1.283 . S
C363 O375 1.281 . S
C363 O376 1.236 . S
C364 O386 1.240 . S
C364 O387 1.264 . S
O365 Mn360 2.095 . S
O365 C374 1.250 . S
O366 Mn361 2.121 . S
O366 C374 1.258 . S
C367 N368 1.326 . S
C367 C371 1.460 . S
C367 H373 0.929 . S
N368 Mn361 2.257 . S
N368 C367 1.326 . S
N368 C372 1.362 . S
C369 C370 1.258 . S
C369 C372 1.431 . S
C369 C389 1.449 . S
C370 C369 1.258 . S
C370 C371 1.477 . S
C370 H390 0.931 . S
C371 C367 1.460 . S
C371 C370 1.477 . S
C371 H391 0.930 . S
C372 N368 1.362 . S
C372 C369 1.431 . S
C372 C382 1.476 . S
H373 C367 0.929 . S
C374 O365 1.250 . S
C374 O366 1.258 . S
O375 Mn360 2.162 . S
O375 C363 1.281 . S
O376 Mn360 2.297 . S
O376 C363 1.236 . S
N377 Mn361 2.282 . S
N377 C378 1.328 . S
N377 C382 1.318 . S
C378 N377 1.328 . S
C378 C379 1.457 . S
C378 H383 0.929 . S
C379 C378 1.457 . S
C379 C380 1.291 . S
C379 H392 0.931 . S
C380 C379 1.291 . S
C380 C381 1.373 . S
C380 H393 0.929 . S
C381 C380 1.373 . S
C381 C382 1.396 . S
C381 C388 1.403 . S
C382 C372 1.476 . S
C382 N377 1.318 . S
C382 C381 1.396 . S
H383 C378 0.929 . S
O384 Mn360 2.385 . S
O384 C362 1.234 . S
O385 Mn360 2.209 . S
O385 Mn361 2.215 . S
O385 C362 1.283 . S
O386 Mn360 2.094 . S
O386 C364 1.240 . S
O387 Mn361 2.117 . S
O387 C364 1.264 . S
C388 C381 1.403 . S
C388 C389 1.399 . S
C388 H394 0.929 . S
C389 C369 1.449 . S
C389 C388 1.399 . S
C389 H395 0.930 . S
H390 C370 0.931 . S
H391 C371 0.930 . S
H392 C379 0.931 . S
H393 C380 0.929 . S
H394 C388 0.929 . S
H395 C389 0.930 . S
Mn396 O401 2.095 . S
Mn396 O411 2.162 . S
Mn396 O412 2.297 . S
Mn396 O420 2.385 . S
Mn396 O421 2.209 . S
Mn396 O422 2.094 . S
Mn397 O402 2.121 . S
Mn397 N404 2.257 . S
Mn397 N413 2.282 . S
Mn397 O421 2.215 . S
Mn397 O423 2.117 . S
C398 O420 1.234 . S
C398 O421 1.283 . S
C399 O411 1.281 . S
C399 O412 1.236 . S
C400 O422 1.240 . S
C400 O423 1.264 . S
O401 Mn396 2.095 . S
O401 C410 1.250 . S
O402 Mn397 2.121 . S
O402 C410 1.258 . S
C403 N404 1.326 . S
C403 C407 1.460 . S
C403 H409 0.929 . S
N404 Mn397 2.257 . S
N404 C403 1.326 . S
N404 C408 1.362 . S
C405 C406 1.258 . S
C405 C408 1.431 . S
C405 C425 1.449 . S
C406 C405 1.258 . S
C406 C407 1.477 . S
C406 H426 0.931 . S
C407 C403 1.460 . S
C407 C406 1.477 . S
C407 H427 0.930 . S
C408 N404 1.362 . S
C408 C405 1.431 . S
C408 C418 1.476 . S
H409 C403 0.929 . S
C410 O401 1.250 . S
C410 O402 1.258 . S
O411 Mn396 2.162 . S
O411 C399 1.281 . S
O412 Mn396 2.297 . S
O412 C399 1.236 . S
N413 Mn397 2.282 . S
N413 C414 1.328 . S
N413 C418 1.318 . S
C414 N413 1.328 . S
C414 C415 1.457 . S
C414 H419 0.929 . S
C415 C414 1.457 . S
C415 C416 1.291 . S
C415 H428 0.931 . S
C416 C415 1.291 . S
C416 C417 1.373 . S
C416 H429 0.929 . S
C417 C416 1.373 . S
C417 C418 1.396 . S
C417 C424 1.403 . S
C418 C408 1.476 . S
C418 N413 1.318 . S
C418 C417 1.396 . S
H419 C414 0.929 . S
O420 Mn396 2.385 . S
O420 C398 1.234 . S
O421 Mn396 2.209 . S
O421 Mn397 2.215 . S
O421 C398 1.283 . S
O422 Mn396 2.094 . S
O422 C400 1.240 . S
O423 Mn397 2.117 . S
O423 C400 1.264 . S
C424 C417 1.403 . S
C424 C425 1.399 . S
C424 H430 0.929 . S
C425 C405 1.449 . S
C425 C424 1.399 . S
C425 H431 0.930 . S
H426 C406 0.931 . S
H427 C407 0.930 . S
H428 C415 0.931 . S
H429 C416 0.929 . S
H430 C424 0.929 . S
H431 C425 0.930 . S
Mn432 O437 2.095 . S
Mn432 O447 2.162 . S
Mn432 O448 2.297 . S
Mn432 O456 2.385 . S
Mn432 O457 2.209 . S
Mn432 O458 2.094 . S
Mn433 O438 2.121 . S
Mn433 N440 2.257 . S
Mn433 N449 2.282 . S
Mn433 O457 2.215 . S
Mn433 O459 2.117 . S
C434 O456 1.234 . S
C434 O457 1.283 . S
C435 O447 1.281 . S
C435 O448 1.236 . S
C436 O458 1.240 . S
C436 O459 1.264 . S
O437 Mn432 2.095 . S
O437 C446 1.250 . S
O438 Mn433 2.121 . S
O438 C446 1.258 . S
C439 N440 1.326 . S
C439 C443 1.460 . S
C439 H445 0.929 . S
N440 Mn433 2.257 . S
N440 C439 1.326 . S
N440 C444 1.362 . S
C441 C442 1.258 . S
C441 C444 1.431 . S
C441 C461 1.449 . S
C442 C441 1.258 . S
C442 C443 1.477 . S
C442 H462 0.931 . S
C443 C439 1.460 . S
C443 C442 1.477 . S
C443 H463 0.930 . S
C444 N440 1.362 . S
C444 C441 1.431 . S
C444 C454 1.476 . S
H445 C439 0.929 . S
C446 O437 1.250 . S
C446 O438 1.258 . S
O447 Mn432 2.162 . S
O447 C435 1.281 . S
O448 Mn432 2.297 . S
O448 C435 1.236 . S
N449 Mn433 2.282 . S
N449 C450 1.328 . S
N449 C454 1.318 . S
C450 N449 1.328 . S
C450 C451 1.457 . S
C450 H455 0.929 . S
C451 C450 1.457 . S
C451 C452 1.291 . S
C451 H464 0.931 . S
C452 C451 1.291 . S
C452 C453 1.373 . S
C452 H465 0.929 . S
C453 C452 1.373 . S
C453 C454 1.396 . S
C453 C460 1.403 . S
C454 C444 1.476 . S
C454 N449 1.318 . S
C454 C453 1.396 . S
H455 C450 0.929 . S
O456 Mn432 2.385 . S
O456 C434 1.234 . S
O457 Mn432 2.209 . S
O457 Mn433 2.215 . S
O457 C434 1.283 . S
O458 Mn432 2.094 . S
O458 C436 1.240 . S
O459 Mn433 2.117 . S
O459 C436 1.264 . S
C460 C453 1.403 . S
C460 C461 1.399 . S
C460 H466 0.929 . S
C461 C441 1.449 . S
C461 C460 1.399 . S
C461 H467 0.930 . S
H462 C442 0.931 . S
H463 C443 0.930 . S
H464 C451 0.931 . S
H465 C452 0.929 . S
H466 C460 0.929 . S
H467 C461 0.930 . S
Mn468 O473 2.095 . S
Mn468 O483 2.162 . S
Mn468 O484 2.297 . S
Mn468 O492 2.385 . S
Mn468 O493 2.209 . S
Mn468 O494 2.094 . S
Mn469 O474 2.121 . S
Mn469 N476 2.257 . S
Mn469 N485 2.282 . S
Mn469 O493 2.215 . S
Mn469 O495 2.117 . S
C470 O492 1.234 . S
C470 O493 1.283 . S
C471 O483 1.281 . S
C471 O484 1.236 . S
C472 O494 1.240 . S
C472 O495 1.264 . S
O473 Mn468 2.095 . S
O473 C482 1.250 . S
O474 Mn469 2.121 . S
O474 C482 1.258 . S
C475 N476 1.326 . S
C475 C479 1.460 . S
C475 H481 0.929 . S
N476 Mn469 2.257 . S
N476 C475 1.326 . S
N476 C480 1.362 . S
C477 C478 1.258 . S
C477 C480 1.431 . S
C477 C497 1.449 . S
C478 C477 1.258 . S
C478 C479 1.477 . S
C478 H498 0.931 . S
C479 C475 1.460 . S
C479 C478 1.477 . S
C479 H499 0.930 . S
C480 N476 1.362 . S
C480 C477 1.431 . S
C480 C490 1.476 . S
H481 C475 0.929 . S
C482 O473 1.250 . S
C482 O474 1.258 . S
O483 Mn468 2.162 . S
O483 C471 1.281 . S
O484 Mn468 2.297 . S
O484 C471 1.236 . S
N485 Mn469 2.282 . S
N485 C486 1.328 . S
N485 C490 1.318 . S
C486 N485 1.328 . S
C486 C487 1.457 . S
C486 H491 0.929 . S
C487 C486 1.457 . S
C487 C488 1.291 . S
C487 H500 0.931 . S
C488 C487 1.291 . S
C488 C489 1.373 . S
C488 H501 0.929 . S
C489 C488 1.373 . S
C489 C490 1.396 . S
C489 C496 1.403 . S
C490 C480 1.476 . S
C490 N485 1.318 . S
C490 C489 1.396 . S
H491 C486 0.929 . S
O492 Mn468 2.385 . S
O492 C470 1.234 . S
O493 Mn468 2.209 . S
O493 Mn469 2.215 . S
O493 C470 1.283 . S
O494 Mn468 2.094 . S
O494 C472 1.240 . S
O495 Mn469 2.117 . S
O495 C472 1.264 . S
C496 C489 1.403 . S
C496 C497 1.399 . S
C496 H502 0.929 . S
C497 C477 1.449 . S
C497 C496 1.399 . S
C497 H503 0.930 . S
H498 C478 0.931 . S
H499 C479 0.930 . S
H500 C487 0.931 . S
H501 C488 0.929 . S
H502 C496 0.929 . S
H503 C497 0.930 . S
Mn504 O509 2.095 . S
Mn504 O519 2.162 . S
Mn504 O520 2.297 . S
Mn504 O528 2.385 . S
Mn504 O529 2.209 . S
Mn504 O530 2.094 . S
Mn505 O510 2.121 . S
Mn505 N512 2.257 . S
Mn505 N521 2.282 . S
Mn505 O529 2.215 . S
Mn505 O531 2.117 . S
C506 O528 1.234 . S
C506 O529 1.283 . S
C507 O519 1.281 . S
C507 O520 1.236 . S
C508 O530 1.240 . S
C508 O531 1.264 . S
O509 Mn504 2.095 . S
O509 C518 1.250 . S
O510 Mn505 2.121 . S
O510 C518 1.258 . S
C511 N512 1.326 . S
C511 C515 1.460 . S
C511 H517 0.929 . S
N512 Mn505 2.257 . S
N512 C511 1.326 . S
N512 C516 1.362 . S
C513 C514 1.258 . S
C513 C516 1.431 . S
C513 C533 1.449 . S
C514 C513 1.258 . S
C514 C515 1.477 . S
C514 H534 0.931 . S
C515 C511 1.460 . S
C515 C514 1.477 . S
C515 H535 0.930 . S
C516 N512 1.362 . S
C516 C513 1.431 . S
C516 C526 1.476 . S
H517 C511 0.929 . S
C518 O509 1.250 . S
C518 O510 1.258 . S
O519 Mn504 2.162 . S
O519 C507 1.281 . S
O520 Mn504 2.297 . S
O520 C507 1.236 . S
N521 Mn505 2.282 . S
N521 C522 1.328 . S
N521 C526 1.318 . S
C522 N521 1.328 . S
C522 C523 1.457 . S
C522 H527 0.929 . S
C523 C522 1.457 . S
C523 C524 1.291 . S
C523 H536 0.931 . S
C524 C523 1.291 . S
C524 C525 1.373 . S
C524 H537 0.929 . S
C525 C524 1.373 . S
C525 C526 1.396 . S
C525 C532 1.403 . S
C526 C516 1.476 . S
C526 N521 1.318 . S
C526 C525 1.396 . S
H527 C522 0.929 . S
O528 Mn504 2.385 . S
O528 C506 1.234 . S
O529 Mn504 2.209 . S
O529 Mn505 2.215 . S
O529 C506 1.283 . S
O530 Mn504 2.094 . S
O530 C508 1.240 . S
O531 Mn505 2.117 . S
O531 C508 1.264 . S
C532 C525 1.403 . S
C532 C533 1.399 . S
C532 H538 0.929 . S
C533 C513 1.449 . S
C533 C532 1.399 . S
C533 H539 0.930 . S
H534 C514 0.931 . S
H535 C515 0.930 . S
H536 C523 0.931 . S
H537 C524 0.929 . S
H538 C532 0.929 . S
H539 C533 0.930 . S
Mn540 O545 2.095 . S
Mn540 O555 2.162 . S
Mn540 O556 2.297 . S
Mn540 O564 2.385 . S
Mn540 O565 2.209 . S
Mn540 O566 2.094 . S
Mn541 O546 2.121 . S
Mn541 N548 2.257 . S
Mn541 N557 2.282 . S
Mn541 O565 2.215 . S
Mn541 O567 2.117 . S
C542 O564 1.234 . S
C542 O565 1.283 . S
C543 O555 1.281 . S
C543 O556 1.236 . S
C544 O566 1.240 . S
C544 O567 1.264 . S
O545 Mn540 2.095 . S
O545 C554 1.250 . S
O546 Mn541 2.121 . S
O546 C554 1.258 . S
C547 N548 1.326 . S
C547 C551 1.460 . S
C547 H553 0.929 . S
N548 Mn541 2.257 . S
N548 C547 1.326 . S
N548 C552 1.362 . S
C549 C550 1.258 . S
C549 C552 1.431 . S
C549 C569 1.449 . S
C550 C549 1.258 . S
C550 C551 1.477 . S
C550 H570 0.931 . S
C551 C547 1.460 . S
C551 C550 1.477 . S
C551 H571 0.930 . S
C552 N548 1.362 . S
C552 C549 1.431 . S
C552 C562 1.476 . S
H553 C547 0.929 . S
C554 O545 1.250 . S
C554 O546 1.258 . S
O555 Mn540 2.162 . S
O555 C543 1.281 . S
O556 Mn540 2.297 . S
O556 C543 1.236 . S
N557 Mn541 2.282 . S
N557 C558 1.328 . S
N557 C562 1.318 . S
C558 N557 1.328 . S
C558 C559 1.457 . S
C558 H563 0.929 . S
C559 C558 1.457 . S
C559 C560 1.291 . S
C559 H572 0.931 . S
C560 C559 1.291 . S
C560 C561 1.373 . S
C560 H573 0.929 . S
C561 C560 1.373 . S
C561 C562 1.396 . S
C561 C568 1.403 . S
C562 C552 1.476 . S
C562 N557 1.318 . S
C562 C561 1.396 . S
H563 C558 0.929 . S
O564 Mn540 2.385 . S
O564 C542 1.234 . S
O565 Mn540 2.209 . S
O565 Mn541 2.215 . S
O565 C542 1.283 . S
O566 Mn540 2.094 . S
O566 C544 1.240 . S
O567 Mn541 2.117 . S
O567 C544 1.264 . S
C568 C561 1.403 . S
C568 C569 1.399 . S
C568 H574 0.929 . S
C569 C549 1.449 . S
C569 C568 1.399 . S
C569 H575 0.930 . S
H570 C550 0.931 . S
H571 C551 0.930 . S
H572 C559 0.931 . S
H573 C560 0.929 . S
H574 C568 0.929 . S
H575 C569 0.930 . S
Mn576 O581 2.095 . S
Mn576 O591 2.162 . S
Mn576 O592 2.297 . S
Mn576 O600 2.385 . S
Mn576 O601 2.209 . S
Mn576 O602 2.094 . S
Mn577 O582 2.121 . S
Mn577 N584 2.257 . S
Mn577 N593 2.282 . S
Mn577 O601 2.215 . S
Mn577 O603 2.117 . S
C578 O600 1.234 . S
C578 O601 1.283 . S
C579 O591 1.281 . S
C579 O592 1.236 . S
C580 O602 1.240 . S
C580 O603 1.264 . S
O581 Mn576 2.095 . S
O581 C590 1.250 . S
O582 Mn577 2.121 . S
O582 C590 1.258 . S
C583 N584 1.326 . S
C583 C587 1.460 . S
C583 H589 0.929 . S
N584 Mn577 2.257 . S
N584 C583 1.326 . S
N584 C588 1.362 . S
C585 C586 1.258 . S
C585 C588 1.431 . S
C585 C605 1.449 . S
C586 C585 1.258 . S
C586 C587 1.477 . S
C586 H606 0.931 . S
C587 C583 1.460 . S
C587 C586 1.477 . S
C587 H607 0.930 . S
C588 N584 1.362 . S
C588 C585 1.431 . S
C588 C598 1.476 . S
H589 C583 0.929 . S
C590 O581 1.250 . S
C590 O582 1.258 . S
O591 Mn576 2.162 . S
O591 C579 1.281 . S
O592 Mn576 2.297 . S
O592 C579 1.236 . S
N593 Mn577 2.282 . S
N593 C594 1.328 . S
N593 C598 1.318 . S
C594 N593 1.328 . S
C594 C595 1.457 . S
C594 H599 0.929 . S
C595 C594 1.457 . S
C595 C596 1.291 . S
C595 H608 0.931 . S
C596 C595 1.291 . S
C596 C597 1.373 . S
C596 H609 0.929 . S
C597 C596 1.373 . S
C597 C598 1.396 . S
C597 C604 1.403 . S
C598 C588 1.476 . S
C598 N593 1.318 . S
C598 C597 1.396 . S
H599 C594 0.929 . S
O600 Mn576 2.385 . S
O600 C578 1.234 . S
O601 Mn576 2.209 . S
O601 Mn577 2.215 . S
O601 C578 1.283 . S
O602 Mn576 2.094 . S
O602 C580 1.240 . S
O603 Mn577 2.117 . S
O603 C580 1.264 . S
C604 C597 1.403 . S
C604 C605 1.399 . S
C604 H610 0.929 . S
C605 C585 1.449 . S
C605 C604 1.399 . S
C605 H611 0.930 . S
H606 C586 0.931 . S
H607 C587 0.930 . S
H608 C595 0.931 . S
H609 C596 0.929 . S
H610 C604 0.929 . S
H611 C605 0.930 . S
Mn612 O617 2.095 . S
Mn612 O627 2.162 . S
Mn612 O628 2.297 . S
Mn612 O636 2.385 . S
Mn612 O637 2.209 . S
Mn612 O638 2.094 . S
Mn613 O618 2.121 . S
Mn613 N620 2.257 . S
Mn613 N629 2.282 . S
Mn613 O637 2.215 . S
Mn613 O639 2.117 . S
C614 O636 1.234 . S
C614 O637 1.283 . S
C615 O627 1.281 . S
C615 O628 1.236 . S
C616 O638 1.240 . S
C616 O639 1.264 . S
O617 Mn612 2.095 . S
O617 C626 1.250 . S
O618 Mn613 2.121 . S
O618 C626 1.258 . S
C619 N620 1.326 . S
C619 C623 1.460 . S
C619 H625 0.929 . S
N620 Mn613 2.257 . S
N620 C619 1.326 . S
N620 C624 1.362 . S
C621 C622 1.258 . S
C621 C624 1.431 . S
C621 C641 1.449 . S
C622 C621 1.258 . S
C622 C623 1.477 . S
C622 H642 0.931 . S
C623 C619 1.460 . S
C623 C622 1.477 . S
C623 H643 0.930 . S
C624 N620 1.362 . S
C624 C621 1.431 . S
C624 C634 1.476 . S
H625 C619 0.929 . S
C626 O617 1.250 . S
C626 O618 1.258 . S
O627 Mn612 2.162 . S
O627 C615 1.281 . S
O628 Mn612 2.297 . S
O628 C615 1.236 . S
N629 Mn613 2.282 . S
N629 C630 1.328 . S
N629 C634 1.318 . S
C630 N629 1.328 . S
C630 C631 1.457 . S
C630 H635 0.929 . S
C631 C630 1.457 . S
C631 C632 1.291 . S
C631 H644 0.931 . S
C632 C631 1.291 . S
C632 C633 1.373 . S
C632 H645 0.929 . S
C633 C632 1.373 . S
C633 C634 1.396 . S
C633 C640 1.403 . S
C634 C624 1.476 . S
C634 N629 1.318 . S
C634 C633 1.396 . S
H635 C630 0.929 . S
O636 Mn612 2.385 . S
O636 C614 1.234 . S
O637 Mn612 2.209 . S
O637 Mn613 2.215 . S
O637 C614 1.283 . S
O638 Mn612 2.094 . S
O638 C616 1.240 . S
O639 Mn613 2.117 . S
O639 C616 1.264 . S
C640 C633 1.403 . S
C640 C641 1.399 . S
C640 H646 0.929 . S
C641 C621 1.449 . S
C641 C640 1.399 . S
C641 H647 0.930 . S
H642 C622 0.931 . S
H643 C623 0.930 . S
H644 C631 0.931 . S
H645 C632 0.929 . S
H646 C640 0.929 . S
H647 C641 0.930 . S
Mn648 O653 2.095 . S
Mn648 O663 2.162 . S
Mn648 O664 2.297 . S
Mn648 O672 2.385 . S
Mn648 O673 2.209 . S
Mn648 O674 2.094 . S
Mn649 O654 2.121 . S
Mn649 N656 2.257 . S
Mn649 N665 2.282 . S
Mn649 O673 2.215 . S
Mn649 O675 2.117 . S
C650 O672 1.234 . S
C650 O673 1.283 . S
C651 O663 1.281 . S
C651 O664 1.236 . S
C652 O674 1.240 . S
C652 O675 1.264 . S
O653 Mn648 2.095 . S
O653 C662 1.250 . S
O654 Mn649 2.121 . S
O654 C662 1.258 . S
C655 N656 1.326 . S
C655 C659 1.460 . S
C655 H661 0.929 . S
N656 Mn649 2.257 . S
N656 C655 1.326 . S
N656 C660 1.362 . S
C657 C658 1.258 . S
C657 C660 1.431 . S
C657 C677 1.449 . S
C658 C657 1.258 . S
C658 C659 1.477 . S
C658 H678 0.931 . S
C659 C655 1.460 . S
C659 C658 1.477 . S
C659 H679 0.930 . S
C660 N656 1.362 . S
C660 C657 1.431 . S
C660 C670 1.476 . S
H661 C655 0.929 . S
C662 O653 1.250 . S
C662 O654 1.258 . S
O663 Mn648 2.162 . S
O663 C651 1.281 . S
O664 Mn648 2.297 . S
O664 C651 1.236 . S
N665 Mn649 2.282 . S
N665 C666 1.328 . S
N665 C670 1.318 . S
C666 N665 1.328 . S
C666 C667 1.457 . S
C666 H671 0.929 . S
C667 C666 1.457 . S
C667 C668 1.291 . S
C667 H680 0.931 . S
C668 C667 1.291 . S
C668 C669 1.373 . S
C668 H681 0.929 . S
C669 C668 1.373 . S
C669 C670 1.396 . S
C669 C676 1.403 . S
C670 C660 1.476 . S
C670 N665 1.318 . S
C670 C669 1.396 . S
H671 C666 0.929 . S
O672 Mn648 2.385 . S
O672 C650 1.234 . S
O673 Mn648 2.209 . S
O673 Mn649 2.215 . S
O673 C650 1.283 . S
O674 Mn648 2.094 . S
O674 C652 1.240 . S
O675 Mn649 2.117 . S
O675 C652 1.264 . S
C676 C669 1.403 . S
C676 C677 1.399 . S
C676 H682 0.929 . S
C677 C657 1.449 . S
C677 C676 1.399 . S
C677 H683 0.930 . S
H678 C658 0.931 . S
H679 C659 0.930 . S
H680 C667 0.931 . S
H681 C668 0.929 . S
H682 C676 0.929 . S
H683 C677 0.930 . S
Mn684 O689 2.095 . S
Mn684 O699 2.162 . S
Mn684 O700 2.297 . S
Mn684 O708 2.385 . S
Mn684 O709 2.209 . S
Mn684 O710 2.094 . S
Mn685 O690 2.121 . S
Mn685 N692 2.257 . S
Mn685 N701 2.282 . S
Mn685 O709 2.215 . S
Mn685 O711 2.117 . S
C686 O708 1.234 . S
C686 O709 1.283 . S
C687 O699 1.281 . S
C687 O700 1.236 . S
C688 O710 1.240 . S
C688 O711 1.264 . S
O689 Mn684 2.095 . S
O689 C698 1.250 . S
O690 Mn685 2.121 . S
O690 C698 1.258 . S
C691 N692 1.326 . S
C691 C695 1.460 . S
C691 H697 0.929 . S
N692 Mn685 2.257 . S
N692 C691 1.326 . S
N692 C696 1.362 . S
C693 C694 1.258 . S
C693 C696 1.431 . S
C693 C713 1.449 . S
C694 C693 1.258 . S
C694 C695 1.477 . S
C694 H714 0.931 . S
C695 C691 1.460 . S
C695 C694 1.477 . S
C695 H715 0.930 . S
C696 N692 1.362 . S
C696 C693 1.431 . S
C696 C706 1.476 . S
H697 C691 0.929 . S
C698 O689 1.250 . S
C698 O690 1.258 . S
O699 Mn684 2.162 . S
O699 C687 1.281 . S
O700 Mn684 2.297 . S
O700 C687 1.236 . S
N701 Mn685 2.282 . S
N701 C702 1.328 . S
N701 C706 1.318 . S
C702 N701 1.328 . S
C702 C703 1.457 . S
C702 H707 0.929 . S
C703 C702 1.457 . S
C703 C704 1.291 . S
C703 H716 0.931 . S
C704 C703 1.291 . S
C704 C705 1.373 . S
C704 H717 0.929 . S
C705 C704 1.373 . S
C705 C706 1.396 . S
C705 C712 1.403 . S
C706 C696 1.476 . S
C706 N701 1.318 . S
C706 C705 1.396 . S
H707 C702 0.929 . S
O708 Mn684 2.385 . S
O708 C686 1.234 . S
O709 Mn684 2.209 . S
O709 Mn685 2.215 . S
O709 C686 1.283 . S
O710 Mn684 2.094 . S
O710 C688 1.240 . S
O711 Mn685 2.117 . S
O711 C688 1.264 . S
C712 C705 1.403 . S
C712 C713 1.399 . S
C712 H718 0.929 . S
C713 C693 1.449 . S
C713 C712 1.399 . S
C713 H719 0.930 . S
H714 C694 0.931 . S
H715 C695 0.930 . S
H716 C703 0.931 . S
H717 C704 0.929 . S
H718 C712 0.929 . S
H719 C713 0.930 . S
Mn720 O725 2.095 . S
Mn720 O735 2.162 . S
Mn720 O736 2.297 . S
Mn720 O744 2.385 . S
Mn720 O745 2.209 . S
Mn720 O746 2.094 . S
Mn721 O726 2.121 . S
Mn721 N728 2.257 . S
Mn721 N737 2.282 . S
Mn721 O745 2.215 . S
Mn721 O747 2.117 . S
C722 O744 1.234 . S
C722 O745 1.283 . S
C723 O735 1.281 . S
C723 O736 1.236 . S
C724 O746 1.240 . S
C724 O747 1.264 . S
O725 Mn720 2.095 . S
O725 C734 1.250 . S
O726 Mn721 2.121 . S
O726 C734 1.258 . S
C727 N728 1.326 . S
C727 C731 1.460 . S
C727 H733 0.929 . S
N728 Mn721 2.257 . S
N728 C727 1.326 . S
N728 C732 1.362 . S
C729 C730 1.258 . S
C729 C732 1.431 . S
C729 C749 1.449 . S
C730 C729 1.258 . S
C730 C731 1.477 . S
C730 H750 0.931 . S
C731 C727 1.460 . S
C731 C730 1.477 . S
C731 H751 0.930 . S
C732 N728 1.362 . S
C732 C729 1.431 . S
C732 C742 1.476 . S
H733 C727 0.929 . S
C734 O725 1.250 . S
C734 O726 1.258 . S
O735 Mn720 2.162 . S
O735 C723 1.281 . S
O736 Mn720 2.297 . S
O736 C723 1.236 . S
N737 Mn721 2.282 . S
N737 C738 1.328 . S
N737 C742 1.318 . S
C738 N737 1.328 . S
C738 C739 1.457 . S
C738 H743 0.929 . S
C739 C738 1.457 . S
C739 C740 1.291 . S
C739 H752 0.931 . S
C740 C739 1.291 . S
C740 C741 1.373 . S
C740 H753 0.929 . S
C741 C740 1.373 . S
C741 C742 1.396 . S
C741 C748 1.403 . S
C742 C732 1.476 . S
C742 N737 1.318 . S
C742 C741 1.396 . S
H743 C738 0.929 . S
O744 Mn720 2.385 . S
O744 C722 1.234 . S
O745 Mn720 2.209 . S
O745 Mn721 2.215 . S
O745 C722 1.283 . S
O746 Mn720 2.094 . S
O746 C724 1.240 . S
O747 Mn721 2.117 . S
O747 C724 1.264 . S
C748 C741 1.403 . S
C748 C749 1.399 . S
C748 H754 0.929 . S
C749 C729 1.449 . S
C749 C748 1.399 . S
C749 H755 0.930 . S
H750 C730 0.931 . S
H751 C731 0.930 . S
H752 C739 0.931 . S
H753 C740 0.929 . S
H754 C748 0.929 . S
H755 C749 0.930 . S
Mn756 O761 2.095 . S
Mn756 O771 2.162 . S
Mn756 O772 2.297 . S
Mn756 O780 2.385 . S
Mn756 O781 2.209 . S
Mn756 O782 2.094 . S
Mn757 O762 2.121 . S
Mn757 N764 2.257 . S
Mn757 N773 2.282 . S
Mn757 O781 2.215 . S
Mn757 O783 2.117 . S
C758 O780 1.234 . S
C758 O781 1.283 . S
C759 O771 1.281 . S
C759 O772 1.236 . S
C760 O782 1.240 . S
C760 O783 1.264 . S
O761 Mn756 2.095 . S
O761 C770 1.250 . S
O762 Mn757 2.121 . S
O762 C770 1.258 . S
C763 N764 1.326 . S
C763 C767 1.460 . S
C763 H769 0.929 . S
N764 Mn757 2.257 . S
N764 C763 1.326 . S
N764 C768 1.362 . S
C765 C766 1.258 . S
C765 C768 1.431 . S
C765 C785 1.449 . S
C766 C765 1.258 . S
C766 C767 1.477 . S
C766 H786 0.931 . S
C767 C763 1.460 . S
C767 C766 1.477 . S
C767 H787 0.930 . S
C768 N764 1.362 . S
C768 C765 1.431 . S
C768 C778 1.476 . S
H769 C763 0.929 . S
C770 O761 1.250 . S
C770 O762 1.258 . S
O771 Mn756 2.162 . S
O771 C759 1.281 . S
O772 Mn756 2.297 . S
O772 C759 1.236 . S
N773 Mn757 2.282 . S
N773 C774 1.328 . S
N773 C778 1.318 . S
C774 N773 1.328 . S
C774 C775 1.457 . S
C774 H779 0.929 . S
C775 C774 1.457 . S
C775 C776 1.291 . S
C775 H788 0.931 . S
C776 C775 1.291 . S
C776 C777 1.373 . S
C776 H789 0.929 . S
C777 C776 1.373 . S
C777 C778 1.396 . S
C777 C784 1.403 . S
C778 C768 1.476 . S
C778 N773 1.318 . S
C778 C777 1.396 . S
H779 C774 0.929 . S
O780 Mn756 2.385 . S
O780 C758 1.234 . S
O781 Mn756 2.209 . S
O781 Mn757 2.215 . S
O781 C758 1.283 . S
O782 Mn756 2.094 . S
O782 C760 1.240 . S
O783 Mn757 2.117 . S
O783 C760 1.264 . S
C784 C777 1.403 . S
C784 C785 1.399 . S
C784 H790 0.929 . S
C785 C765 1.449 . S
C785 C784 1.399 . S
C785 H791 0.930 . S
H786 C766 0.931 . S
H787 C767 0.930 . S
H788 C775 0.931 . S
H789 C776 0.929 . S
H790 C784 0.929 . S
H791 C785 0.930 . S
Mn792 O797 2.095 . S
Mn792 O807 2.162 . S
Mn792 O808 2.297 . S
Mn792 O816 2.385 . S
Mn792 O817 2.209 . S
Mn792 O818 2.094 . S
Mn793 O798 2.121 . S
Mn793 N800 2.257 . S
Mn793 N809 2.282 . S
Mn793 O817 2.215 . S
Mn793 O819 2.117 . S
C794 O816 1.234 . S
C794 O817 1.283 . S
C795 O807 1.281 . S
C795 O808 1.236 . S
C796 O818 1.240 . S
C796 O819 1.264 . S
O797 Mn792 2.095 . S
O797 C806 1.250 . S
O798 Mn793 2.121 . S
O798 C806 1.258 . S
C799 N800 1.326 . S
C799 C803 1.460 . S
C799 H805 0.929 . S
N800 Mn793 2.257 . S
N800 C799 1.326 . S
N800 C804 1.362 . S
C801 C802 1.258 . S
C801 C804 1.431 . S
C801 C821 1.449 . S
C802 C801 1.258 . S
C802 C803 1.477 . S
C802 H822 0.931 . S
C803 C799 1.460 . S
C803 C802 1.477 . S
C803 H823 0.930 . S
C804 N800 1.362 . S
C804 C801 1.431 . S
C804 C814 1.476 . S
H805 C799 0.929 . S
C806 O797 1.250 . S
C806 O798 1.258 . S
O807 Mn792 2.162 . S
O807 C795 1.281 . S
O808 Mn792 2.297 . S
O808 C795 1.236 . S
N809 Mn793 2.282 . S
N809 C810 1.328 . S
N809 C814 1.318 . S
C810 N809 1.328 . S
C810 C811 1.457 . S
C810 H815 0.929 . S
C811 C810 1.457 . S
C811 C812 1.291 . S
C811 H824 0.931 . S
C812 C811 1.291 . S
C812 C813 1.373 . S
C812 H825 0.929 . S
C813 C812 1.373 . S
C813 C814 1.396 . S
C813 C820 1.403 . S
C814 C804 1.476 . S
C814 N809 1.318 . S
C814 C813 1.396 . S
H815 C810 0.929 . S
O816 Mn792 2.385 . S
O816 C794 1.234 . S
O817 Mn792 2.209 . S
O817 Mn793 2.215 . S
O817 C794 1.283 . S
O818 Mn792 2.094 . S
O818 C796 1.240 . S
O819 Mn793 2.117 . S
O819 C796 1.264 . S
C820 C813 1.403 . S
C820 C821 1.399 . S
C820 H826 0.929 . S
C821 C801 1.449 . S
C821 C820 1.399 . S
C821 H827 0.930 . S
H822 C802 0.931 . S
H823 C803 0.930 . S
H824 C811 0.931 . S
H825 C812 0.929 . S
H826 C820 0.929 . S
H827 C821 0.930 . S
Mn828 O833 2.095 . S
Mn828 O843 2.162 . S
Mn828 O844 2.297 . S
Mn828 O852 2.385 . S
Mn828 O853 2.209 . S
Mn828 O854 2.094 . S
Mn829 O834 2.121 . S
Mn829 N836 2.257 . S
Mn829 N845 2.282 . S
Mn829 O853 2.215 . S
Mn829 O855 2.117 . S
C830 O852 1.234 . S
C830 O853 1.283 . S
C831 O843 1.281 . S
C831 O844 1.236 . S
C832 O854 1.240 . S
C832 O855 1.264 . S
O833 Mn828 2.095 . S
O833 C842 1.250 . S
O834 Mn829 2.121 . S
O834 C842 1.258 . S
C835 N836 1.326 . S
C835 C839 1.460 . S
C835 H841 0.929 . S
N836 Mn829 2.257 . S
N836 C835 1.326 . S
N836 C840 1.362 . S
C837 C838 1.258 . S
C837 C840 1.431 . S
C837 C857 1.449 . S
C838 C837 1.258 . S
C838 C839 1.477 . S
C838 H858 0.931 . S
C839 C835 1.460 . S
C839 C838 1.477 . S
C839 H859 0.930 . S
C840 N836 1.362 . S
C840 C837 1.431 . S
C840 C850 1.476 . S
H841 C835 0.929 . S
C842 O833 1.250 . S
C842 O834 1.258 . S
O843 Mn828 2.162 . S
O843 C831 1.281 . S
O844 Mn828 2.297 . S
O844 C831 1.236 . S
N845 Mn829 2.282 . S
N845 C846 1.328 . S
N845 C850 1.318 . S
C846 N845 1.328 . S
C846 C847 1.457 . S
C846 H851 0.929 . S
C847 C846 1.457 . S
C847 C848 1.291 . S
C847 H860 0.931 . S
C848 C847 1.291 . S
C848 C849 1.373 . S
C848 H861 0.929 . S
C849 C848 1.373 . S
C849 C850 1.396 . S
C849 C856 1.403 . S
C850 C840 1.476 . S
C850 N845 1.318 . S
C850 C849 1.396 . S
H851 C846 0.929 . S
O852 Mn828 2.385 . S
O852 C830 1.234 . S
O853 Mn828 2.209 . S
O853 Mn829 2.215 . S
O853 C830 1.283 . S
O854 Mn828 2.094 . S
O854 C832 1.240 . S
O855 Mn829 2.117 . S
O855 C832 1.264 . S
C856 C849 1.403 . S
C856 C857 1.399 . S
C856 H862 0.929 . S
C857 C837 1.449 . S
C857 C856 1.399 . S
C857 H863 0.930 . S
H858 C838 0.931 . S
H859 C839 0.930 . S
H860 C847 0.931 . S
H861 C848 0.929 . S
H862 C856 0.929 . S
H863 C857 0.930 . S
Mn864 O869 2.095 . S
Mn864 O879 2.162 . S
Mn864 O880 2.297 . S
Mn864 O888 2.385 . S
Mn864 O889 2.209 . S
Mn864 O890 2.094 . S
Mn865 O870 2.121 . S
Mn865 N872 2.257 . S
Mn865 N881 2.282 . S
Mn865 O889 2.215 . S
Mn865 O891 2.117 . S
C866 O888 1.234 . S
C866 O889 1.283 . S
C867 O879 1.281 . S
C867 O880 1.236 . S
C868 O890 1.240 . S
C868 O891 1.264 . S
O869 Mn864 2.095 . S
O869 C878 1.250 . S
O870 Mn865 2.121 . S
O870 C878 1.258 . S
C871 N872 1.326 . S
C871 C875 1.460 . S
C871 H877 0.929 . S
N872 Mn865 2.257 . S
N872 C871 1.326 . S
N872 C876 1.362 . S
C873 C874 1.258 . S
C873 C876 1.431 . S
C873 C893 1.449 . S
C874 C873 1.258 . S
C874 C875 1.477 . S
C874 H894 0.931 . S
C875 C871 1.460 . S
C875 C874 1.477 . S
C875 H895 0.930 . S
C876 N872 1.362 . S
C876 C873 1.431 . S
C876 C886 1.476 . S
H877 C871 0.929 . S
C878 O869 1.250 . S
C878 O870 1.258 . S
O879 Mn864 2.162 . S
O879 C867 1.281 . S
O880 Mn864 2.297 . S
O880 C867 1.236 . S
N881 Mn865 2.282 . S
N881 C882 1.328 . S
N881 C886 1.318 . S
C882 N881 1.328 . S
C882 C883 1.457 . S
C882 H887 0.929 . S
C883 C882 1.457 . S
C883 C884 1.291 . S
C883 H896 0.931 . S
C884 C883 1.291 . S
C884 C885 1.373 . S
C884 H897 0.929 . S
C885 C884 1.373 . S
C885 C886 1.396 . S
C885 C892 1.403 . S
C886 C876 1.476 . S
C886 N881 1.318 . S
C886 C885 1.396 . S
H887 C882 0.929 . S
O888 Mn864 2.385 . S
O888 C866 1.234 . S
O889 Mn864 2.209 . S
O889 Mn865 2.215 . S
O889 C866 1.283 . S
O890 Mn864 2.094 . S
O890 C868 1.240 . S
O891 Mn865 2.117 . S
O891 C868 1.264 . S
C892 C885 1.403 . S
C892 C893 1.399 . S
C892 H898 0.929 . S
C893 C873 1.449 . S
C893 C892 1.399 . S
C893 H899 0.930 . S
H894 C874 0.931 . S
H895 C875 0.930 . S
H896 C883 0.931 . S
H897 C884 0.929 . S
H898 C892 0.929 . S
H899 C893 0.930 . S
Mn900 O905 2.095 . S
Mn900 O915 2.162 . S
Mn900 O916 2.297 . S
Mn900 O924 2.385 . S
Mn900 O925 2.209 . S
Mn900 O926 2.094 . S
Mn901 O906 2.121 . S
Mn901 N908 2.257 . S
Mn901 N917 2.282 . S
Mn901 O925 2.215 . S
Mn901 O927 2.117 . S
C902 O924 1.234 . S
C902 O925 1.283 . S
C903 O915 1.281 . S
C903 O916 1.236 . S
C904 O926 1.240 . S
C904 O927 1.264 . S
O905 Mn900 2.095 . S
O905 C914 1.250 . S
O906 Mn901 2.121 . S
O906 C914 1.258 . S
C907 N908 1.326 . S
C907 C911 1.460 . S
C907 H913 0.929 . S
N908 Mn901 2.257 . S
N908 C907 1.326 . S
N908 C912 1.362 . S
C909 C910 1.258 . S
C909 C912 1.431 . S
C909 C929 1.449 . S
C910 C909 1.258 . S
C910 C911 1.477 . S
C910 H930 0.931 . S
C911 C907 1.460 . S
C911 C910 1.477 . S
C911 H931 0.930 . S
C912 N908 1.362 . S
C912 C909 1.431 . S
C912 C922 1.476 . S
H913 C907 0.929 . S
C914 O905 1.250 . S
C914 O906 1.258 . S
O915 Mn900 2.162 . S
O915 C903 1.281 . S
O916 Mn900 2.297 . S
O916 C903 1.236 . S
N917 Mn901 2.282 . S
N917 C918 1.328 . S
N917 C922 1.318 . S
C918 N917 1.328 . S
C918 C919 1.457 . S
C918 H923 0.929 . S
C919 C918 1.457 . S
C919 C920 1.291 . S
C919 H932 0.931 . S
C920 C919 1.291 . S
C920 C921 1.373 . S
C920 H933 0.929 . S
C921 C920 1.373 . S
C921 C922 1.396 . S
C921 C928 1.403 . S
C922 C912 1.476 . S
C922 N917 1.318 . S
C922 C921 1.396 . S
H923 C918 0.929 . S
O924 Mn900 2.385 . S
O924 C902 1.234 . S
O925 Mn900 2.209 . S
O925 Mn901 2.215 . S
O925 C902 1.283 . S
O926 Mn900 2.094 . S
O926 C904 1.240 . S
O927 Mn901 2.117 . S
O927 C904 1.264 . S
C928 C921 1.403 . S
C928 C929 1.399 . S
C928 H934 0.929 . S
C929 C909 1.449 . S
C929 C928 1.399 . S
C929 H935 0.930 . S
H930 C910 0.931 . S
H931 C911 0.930 . S
H932 C919 0.931 . S
H933 C920 0.929 . S
H934 C928 0.929 . S
H935 C929 0.930 . S
Mn936 O941 2.095 . S
Mn936 O951 2.162 . S
Mn936 O952 2.297 . S
Mn936 O960 2.385 . S
Mn936 O961 2.209 . S
Mn936 O962 2.094 . S
Mn937 O942 2.121 . S
Mn937 N944 2.257 . S
Mn937 N953 2.282 . S
Mn937 O961 2.215 . S
Mn937 O963 2.117 . S
C938 O960 1.234 . S
C938 O961 1.283 . S
C939 O951 1.281 . S
C939 O952 1.236 . S
C940 O962 1.240 . S
C940 O963 1.264 . S
O941 Mn936 2.095 . S
O941 C950 1.250 . S
O942 Mn937 2.121 . S
O942 C950 1.258 . S
C943 N944 1.326 . S
C943 C947 1.460 . S
C943 H949 0.929 . S
N944 Mn937 2.257 . S
N944 C943 1.326 . S
N944 C948 1.362 . S
C945 C946 1.258 . S
C945 C948 1.431 . S
C945 C965 1.449 . S
C946 C945 1.258 . S
C946 C947 1.477 . S
C946 H966 0.931 . S
C947 C943 1.460 . S
C947 C946 1.477 . S
C947 H967 0.930 . S
C948 N944 1.362 . S
C948 C945 1.431 . S
C948 C958 1.476 . S
H949 C943 0.929 . S
C950 O941 1.250 . S
C950 O942 1.258 . S
O951 Mn936 2.162 . S
O951 C939 1.281 . S
O952 Mn936 2.297 . S
O952 C939 1.236 . S
N953 Mn937 2.282 . S
N953 C954 1.328 . S
N953 C958 1.318 . S
C954 N953 1.328 . S
C954 C955 1.457 . S
C954 H959 0.929 . S
C955 C954 1.457 . S
C955 C956 1.291 . S
C955 H968 0.931 . S
C956 C955 1.291 . S
C956 C957 1.373 . S
C956 H969 0.929 . S
C957 C956 1.373 . S
C957 C958 1.396 . S
C957 C964 1.403 . S
C958 C948 1.476 . S
C958 N953 1.318 . S
C958 C957 1.396 . S
H959 C954 0.929 . S
O960 Mn936 2.385 . S
O960 C938 1.234 . S
O961 Mn936 2.209 . S
O961 Mn937 2.215 . S
O961 C938 1.283 . S
O962 Mn936 2.094 . S
O962 C940 1.240 . S
O963 Mn937 2.117 . S
O963 C940 1.264 . S
C964 C957 1.403 . S
C964 C965 1.399 . S
C964 H970 0.929 . S
C965 C945 1.449 . S
C965 C964 1.399 . S
C965 H971 0.930 . S
H966 C946 0.931 . S
H967 C947 0.930 . S
H968 C955 0.931 . S
H969 C956 0.929 . S
H970 C964 0.929 . S
H971 C965 0.930 . S
Mn972 O977 2.095 . S
Mn972 O987 2.162 . S
Mn972 O988 2.297 . S
Mn972 O996 2.385 . S
Mn972 O997 2.209 . S
Mn972 O998 2.094 . S
Mn973 O978 2.121 . S
Mn973 N980 2.257 . S
Mn973 N989 2.282 . S
Mn973 O997 2.215 . S
Mn973 O999 2.117 . S
C974 O996 1.234 . S
C974 O997 1.283 . S
C975 O987 1.281 . S
C975 O988 1.236 . S
C976 O998 1.240 . S
C976 O999 1.264 . S
O977 Mn972 2.095 . S
O977 C986 1.250 . S
O978 Mn973 2.121 . S
O978 C986 1.258 . S
C979 N980 1.326 . S
C979 C983 1.460 . S
C979 H985 0.929 . S
N980 Mn973 2.257 . S
N980 C979 1.326 . S
N980 C984 1.362 . S
C981 C982 1.258 . S
C981 C984 1.431 . S
C981 C1001 1.449 . S
C982 C981 1.258 . S
C982 C983 1.477 . S
C982 H1002 0.931 . S
C983 C979 1.460 . S
C983 C982 1.477 . S
C983 H1003 0.930 . S
C984 N980 1.362 . S
C984 C981 1.431 . S
C984 C994 1.476 . S
H985 C979 0.929 . S
C986 O977 1.250 . S
C986 O978 1.258 . S
O987 Mn972 2.162 . S
O987 C975 1.281 . S
O988 Mn972 2.297 . S
O988 C975 1.236 . S
N989 Mn973 2.282 . S
N989 C990 1.328 . S
N989 C994 1.318 . S
C990 N989 1.328 . S
C990 C991 1.457 . S
C990 H995 0.929 . S
C991 C990 1.457 . S
C991 C992 1.291 . S
C991 H1004 0.931 . S
C992 C991 1.291 . S
C992 C993 1.373 . S
C992 H1005 0.929 . S
C993 C992 1.373 . S
C993 C994 1.396 . S
C993 C1000 1.403 . S
C994 C984 1.476 . S
C994 N989 1.318 . S
C994 C993 1.396 . S
H995 C990 0.929 . S
O996 Mn972 2.385 . S
O996 C974 1.234 . S
O997 Mn972 2.209 . S
O997 Mn973 2.215 . S
O997 C974 1.283 . S
O998 Mn972 2.094 . S
O998 C976 1.240 . S
O999 Mn973 2.117 . S
O999 C976 1.264 . S
C1000 C993 1.403 . S
C1000 C1001 1.399 . S
C1000 H1006 0.929 . S
C1001 C981 1.449 . S
C1001 C1000 1.399 . S
C1001 H1007 0.930 . S
H1002 C982 0.931 . S
H1003 C983 0.930 . S
H1004 C991 0.931 . S
H1005 C992 0.929 . S
H1006 C1000 0.929 . S
H1007 C1001 0.930 . S
Mn1008 O1013 2.095 . S
Mn1008 O1023 2.162 . S
Mn1008 O1024 2.297 . S
Mn1008 O1032 2.385 . S
Mn1008 O1033 2.209 . S
Mn1008 O1034 2.094 . S
Mn1009 O1014 2.121 . S
Mn1009 N1016 2.257 . S
Mn1009 N1025 2.282 . S
Mn1009 O1033 2.215 . S
Mn1009 O1035 2.117 . S
C1010 O1032 1.234 . S
C1010 O1033 1.283 . S
C1011 O1023 1.281 . S
C1011 O1024 1.236 . S
C1012 O1034 1.240 . S
C1012 O1035 1.264 . S
O1013 Mn1008 2.095 . S
O1013 C1022 1.250 . S
O1014 Mn1009 2.121 . S
O1014 C1022 1.258 . S
C1015 N1016 1.326 . S
C1015 C1019 1.460 . S
C1015 H1021 0.929 . S
N1016 Mn1009 2.257 . S
N1016 C1015 1.326 . S
N1016 C1020 1.362 . S
C1017 C1018 1.258 . S
C1017 C1020 1.431 . S
C1017 C1037 1.449 . S
C1018 C1017 1.258 . S
C1018 C1019 1.477 . S
C1018 H1038 0.931 . S
C1019 C1015 1.460 . S
C1019 C1018 1.477 . S
C1019 H1039 0.930 . S
C1020 N1016 1.362 . S
C1020 C1017 1.431 . S
C1020 C1030 1.476 . S
H1021 C1015 0.929 . S
C1022 O1013 1.250 . S
C1022 O1014 1.258 . S
O1023 Mn1008 2.162 . S
O1023 C1011 1.281 . S
O1024 Mn1008 2.297 . S
O1024 C1011 1.236 . S
N1025 Mn1009 2.282 . S
N1025 C1026 1.328 . S
N1025 C1030 1.318 . S
C1026 N1025 1.328 . S
C1026 C1027 1.457 . S
C1026 H1031 0.929 . S
C1027 C1026 1.457 . S
C1027 C1028 1.291 . S
C1027 H1040 0.931 . S
C1028 C1027 1.291 . S
C1028 C1029 1.373 . S
C1028 H1041 0.929 . S
C1029 C1028 1.373 . S
C1029 C1030 1.396 . S
C1029 C1036 1.403 . S
C1030 C1020 1.476 . S
C1030 N1025 1.318 . S
C1030 C1029 1.396 . S
H1031 C1026 0.929 . S
O1032 Mn1008 2.385 . S
O1032 C1010 1.234 . S
O1033 Mn1008 2.209 . S
O1033 Mn1009 2.215 . S
O1033 C1010 1.283 . S
O1034 Mn1008 2.094 . S
O1034 C1012 1.240 . S
O1035 Mn1009 2.117 . S
O1035 C1012 1.264 . S
C1036 C1029 1.403 . S
C1036 C1037 1.399 . S
C1036 H1042 0.929 . S
C1037 C1017 1.449 . S
C1037 C1036 1.399 . S
C1037 H1043 0.930 . S
H1038 C1018 0.931 . S
H1039 C1019 0.930 . S
H1040 C1027 0.931 . S
H1041 C1028 0.929 . S
H1042 C1036 0.929 . S
H1043 C1037 0.930 . S
Mn1044 O1049 2.095 . S
Mn1044 O1059 2.162 . S
Mn1044 O1060 2.297 . S
Mn1044 O1068 2.385 . S
Mn1044 O1069 2.209 . S
Mn1044 O1070 2.094 . S
Mn1045 O1050 2.121 . S
Mn1045 N1052 2.257 . S
Mn1045 N1061 2.282 . S
Mn1045 O1069 2.215 . S
Mn1045 O1071 2.117 . S
C1046 O1068 1.234 . S
C1046 O1069 1.283 . S
C1047 O1059 1.281 . S
C1047 O1060 1.236 . S
C1048 O1070 1.240 . S
C1048 O1071 1.264 . S
O1049 Mn1044 2.095 . S
O1049 C1058 1.250 . S
O1050 Mn1045 2.121 . S
O1050 C1058 1.258 . S
C1051 N1052 1.326 . S
C1051 C1055 1.460 . S
C1051 H1057 0.929 . S
N1052 Mn1045 2.257 . S
N1052 C1051 1.326 . S
N1052 C1056 1.362 . S
C1053 C1054 1.258 . S
C1053 C1056 1.431 . S
C1053 C1073 1.449 . S
C1054 C1053 1.258 . S
C1054 C1055 1.477 . S
C1054 H1074 0.931 . S
C1055 C1051 1.460 . S
C1055 C1054 1.477 . S
C1055 H1075 0.930 . S
C1056 N1052 1.362 . S
C1056 C1053 1.431 . S
C1056 C1066 1.476 . S
H1057 C1051 0.929 . S
C1058 O1049 1.250 . S
C1058 O1050 1.258 . S
O1059 Mn1044 2.162 . S
O1059 C1047 1.281 . S
O1060 Mn1044 2.297 . S
O1060 C1047 1.236 . S
N1061 Mn1045 2.282 . S
N1061 C1062 1.328 . S
N1061 C1066 1.318 . S
C1062 N1061 1.328 . S
C1062 C1063 1.457 . S
C1062 H1067 0.929 . S
C1063 C1062 1.457 . S
C1063 C1064 1.291 . S
C1063 H1076 0.931 . S
C1064 C1063 1.291 . S
C1064 C1065 1.373 . S
C1064 H1077 0.929 . S
C1065 C1064 1.373 . S
C1065 C1066 1.396 . S
C1065 C1072 1.403 . S
C1066 C1056 1.476 . S
C1066 N1061 1.318 . S
C1066 C1065 1.396 . S
H1067 C1062 0.929 . S
O1068 Mn1044 2.385 . S
O1068 C1046 1.234 . S
O1069 Mn1044 2.209 . S
O1069 Mn1045 2.215 . S
O1069 C1046 1.283 . S
O1070 Mn1044 2.094 . S
O1070 C1048 1.240 . S
O1071 Mn1045 2.117 . S
O1071 C1048 1.264 . S
C1072 C1065 1.403 . S
C1072 C1073 1.399 . S
C1072 H1078 0.929 . S
C1073 C1053 1.449 . S
C1073 C1072 1.399 . S
C1073 H1079 0.930 . S
H1074 C1054 0.931 . S
H1075 C1055 0.930 . S
H1076 C1063 0.931 . S
H1077 C1064 0.929 . S
H1078 C1072 0.929 . S
H1079 C1073 0.930 . S
Mn1080 O1085 2.095 . S
Mn1080 O1095 2.162 . S
Mn1080 O1096 2.297 . S
Mn1080 O1104 2.385 . S
Mn1080 O1105 2.209 . S
Mn1080 O1106 2.094 . S
Mn1081 O1086 2.121 . S
Mn1081 N1088 2.257 . S
Mn1081 N1097 2.282 . S
Mn1081 O1105 2.215 . S
Mn1081 O1107 2.117 . S
C1082 O1104 1.234 . S
C1082 O1105 1.283 . S
C1083 O1095 1.281 . S
C1083 O1096 1.236 . S
C1084 O1106 1.240 . S
C1084 O1107 1.264 . S
O1085 Mn1080 2.095 . S
O1085 C1094 1.250 . S
O1086 Mn1081 2.121 . S
O1086 C1094 1.258 . S
C1087 N1088 1.326 . S
C1087 C1091 1.460 . S
C1087 H1093 0.929 . S
N1088 Mn1081 2.257 . S
N1088 C1087 1.326 . S
N1088 C1092 1.362 . S
C1089 C1090 1.258 . S
C1089 C1092 1.431 . S
C1089 C1109 1.449 . S
C1090 C1089 1.258 . S
C1090 C1091 1.477 . S
C1090 H1110 0.931 . S
C1091 C1087 1.460 . S
C1091 C1090 1.477 . S
C1091 H1111 0.930 . S
C1092 N1088 1.362 . S
C1092 C1089 1.431 . S
C1092 C1102 1.476 . S
H1093 C1087 0.929 . S
C1094 O1085 1.250 . S
C1094 O1086 1.258 . S
O1095 Mn1080 2.162 . S
O1095 C1083 1.281 . S
O1096 Mn1080 2.297 . S
O1096 C1083 1.236 . S
N1097 Mn1081 2.282 . S
N1097 C1098 1.328 . S
N1097 C1102 1.318 . S
C1098 N1097 1.328 . S
C1098 C1099 1.457 . S
C1098 H1103 0.929 . S
C1099 C1098 1.457 . S
C1099 C1100 1.291 . S
C1099 H1112 0.931 . S
C1100 C1099 1.291 . S
C1100 C1101 1.373 . S
C1100 H1113 0.929 . S
C1101 C1100 1.373 . S
C1101 C1102 1.396 . S
C1101 C1108 1.403 . S
C1102 C1092 1.476 . S
C1102 N1097 1.318 . S
C1102 C1101 1.396 . S
H1103 C1098 0.929 . S
O1104 Mn1080 2.385 . S
O1104 C1082 1.234 . S
O1105 Mn1080 2.209 . S
O1105 Mn1081 2.215 . S
O1105 C1082 1.283 . S
O1106 Mn1080 2.094 . S
O1106 C1084 1.240 . S
O1107 Mn1081 2.117 . S
O1107 C1084 1.264 . S
C1108 C1101 1.403 . S
C1108 C1109 1.399 . S
C1108 H1114 0.929 . S
C1109 C1089 1.449 . S
C1109 C1108 1.399 . S
C1109 H1115 0.930 . S
H1110 C1090 0.931 . S
H1111 C1091 0.930 . S
H1112 C1099 0.931 . S
H1113 C1100 0.929 . S
H1114 C1108 0.929 . S
H1115 C1109 0.930 . S
Mn1116 O1121 2.095 . S
Mn1116 O1131 2.162 . S
Mn1116 O1132 2.297 . S
Mn1116 O1140 2.385 . S
Mn1116 O1141 2.209 . S
Mn1116 O1142 2.094 . S
Mn1117 O1122 2.121 . S
Mn1117 N1124 2.257 . S
Mn1117 N1133 2.282 . S
Mn1117 O1141 2.215 . S
Mn1117 O1143 2.117 . S
C1118 O1140 1.234 . S
C1118 O1141 1.283 . S
C1119 O1131 1.281 . S
C1119 O1132 1.236 . S
C1120 O1142 1.240 . S
C1120 O1143 1.264 . S
O1121 Mn1116 2.095 . S
O1121 C1130 1.250 . S
O1122 Mn1117 2.121 . S
O1122 C1130 1.258 . S
C1123 N1124 1.326 . S
C1123 C1127 1.460 . S
C1123 H1129 0.929 . S
N1124 Mn1117 2.257 . S
N1124 C1123 1.326 . S
N1124 C1128 1.362 . S
C1125 C1126 1.258 . S
C1125 C1128 1.431 . S
C1125 C1145 1.449 . S
C1126 C1125 1.258 . S
C1126 C1127 1.477 . S
C1126 H1146 0.931 . S
C1127 C1123 1.460 . S
C1127 C1126 1.477 . S
C1127 H1147 0.930 . S
C1128 N1124 1.362 . S
C1128 C1125 1.431 . S
C1128 C1138 1.476 . S
H1129 C1123 0.929 . S
C1130 O1121 1.250 . S
C1130 O1122 1.258 . S
O1131 Mn1116 2.162 . S
O1131 C1119 1.281 . S
O1132 Mn1116 2.297 . S
O1132 C1119 1.236 . S
N1133 Mn1117 2.282 . S
N1133 C1134 1.328 . S
N1133 C1138 1.318 . S
C1134 N1133 1.328 . S
C1134 C1135 1.457 . S
C1134 H1139 0.929 . S
C1135 C1134 1.457 . S
C1135 C1136 1.291 . S
C1135 H1148 0.931 . S
C1136 C1135 1.291 . S
C1136 C1137 1.373 . S
C1136 H1149 0.929 . S
C1137 C1136 1.373 . S
C1137 C1138 1.396 . S
C1137 C1144 1.403 . S
C1138 C1128 1.476 . S
C1138 N1133 1.318 . S
C1138 C1137 1.396 . S
H1139 C1134 0.929 . S
O1140 Mn1116 2.385 . S
O1140 C1118 1.234 . S
O1141 Mn1116 2.209 . S
O1141 Mn1117 2.215 . S
O1141 C1118 1.283 . S
O1142 Mn1116 2.094 . S
O1142 C1120 1.240 . S
O1143 Mn1117 2.117 . S
O1143 C1120 1.264 . S
C1144 C1137 1.403 . S
C1144 C1145 1.399 . S
C1144 H1150 0.929 . S
C1145 C1125 1.449 . S
C1145 C1144 1.399 . S
C1145 H1151 0.930 . S
H1146 C1126 0.931 . S
H1147 C1127 0.930 . S
H1148 C1135 0.931 . S
H1149 C1136 0.929 . S
H1150 C1144 0.929 . S
H1151 C1145 0.930 . S
Mn1152 O1157 2.095 . S
Mn1152 O1167 2.162 . S
Mn1152 O1168 2.297 . S
Mn1152 O1176 2.385 . S
Mn1152 O1177 2.209 . S
Mn1152 O1178 2.094 . S
Mn1153 O1158 2.121 . S
Mn1153 N1160 2.257 . S
Mn1153 N1169 2.282 . S
Mn1153 O1177 2.215 . S
Mn1153 O1179 2.117 . S
C1154 O1176 1.234 . S
C1154 O1177 1.283 . S
C1155 O1167 1.281 . S
C1155 O1168 1.236 . S
C1156 O1178 1.240 . S
C1156 O1179 1.264 . S
O1157 Mn1152 2.095 . S
O1157 C1166 1.250 . S
O1158 Mn1153 2.121 . S
O1158 C1166 1.258 . S
C1159 N1160 1.326 . S
C1159 C1163 1.460 . S
C1159 H1165 0.929 . S
N1160 Mn1153 2.257 . S
N1160 C1159 1.326 . S
N1160 C1164 1.362 . S
C1161 C1162 1.258 . S
C1161 C1164 1.431 . S
C1161 C1181 1.449 . S
C1162 C1161 1.258 . S
C1162 C1163 1.477 . S
C1162 H1182 0.931 . S
C1163 C1159 1.460 . S
C1163 C1162 1.477 . S
C1163 H1183 0.930 . S
C1164 N1160 1.362 . S
C1164 C1161 1.431 . S
C1164 C1174 1.476 . S
H1165 C1159 0.929 . S
C1166 O1157 1.250 . S
C1166 O1158 1.258 . S
O1167 Mn1152 2.162 . S
O1167 C1155 1.281 . S
O1168 Mn1152 2.297 . S
O1168 C1155 1.236 . S
N1169 Mn1153 2.282 . S
N1169 C1170 1.328 . S
N1169 C1174 1.318 . S
C1170 N1169 1.328 . S
C1170 C1171 1.457 . S
C1170 H1175 0.929 . S
C1171 C1170 1.457 . S
C1171 C1172 1.291 . S
C1171 H1184 0.931 . S
C1172 C1171 1.291 . S
C1172 C1173 1.373 . S
C1172 H1185 0.929 . S
C1173 C1172 1.373 . S
C1173 C1174 1.396 . S
C1173 C1180 1.403 . S
C1174 C1164 1.476 . S
C1174 N1169 1.318 . S
C1174 C1173 1.396 . S
H1175 C1170 0.929 . S
O1176 Mn1152 2.385 . S
O1176 C1154 1.234 . S
O1177 Mn1152 2.209 . S
O1177 Mn1153 2.215 . S
O1177 C1154 1.283 . S
O1178 Mn1152 2.094 . S
O1178 C1156 1.240 . S
O1179 Mn1153 2.117 . S
O1179 C1156 1.264 . S
C1180 C1173 1.403 . S
C1180 C1181 1.399 . S
C1180 H1186 0.929 . S
C1181 C1161 1.449 . S
C1181 C1180 1.399 . S
C1181 H1187 0.930 . S
H1182 C1162 0.931 . S
H1183 C1163 0.930 . S
H1184 C1171 0.931 . S
H1185 C1172 0.929 . S
H1186 C1180 0.929 . S
H1187 C1181 0.930 . S
Mn1188 O1193 2.095 . S
Mn1188 O1203 2.162 . S
Mn1188 O1204 2.297 . S
Mn1188 O1212 2.385 . S
Mn1188 O1213 2.209 . S
Mn1188 O1214 2.094 . S
Mn1189 O1194 2.121 . S
Mn1189 N1196 2.257 . S
Mn1189 N1205 2.282 . S
Mn1189 O1213 2.215 . S
Mn1189 O1215 2.117 . S
C1190 O1212 1.234 . S
C1190 O1213 1.283 . S
C1191 O1203 1.281 . S
C1191 O1204 1.236 . S
C1192 O1214 1.240 . S
C1192 O1215 1.264 . S
O1193 Mn1188 2.095 . S
O1193 C1202 1.250 . S
O1194 Mn1189 2.121 . S
O1194 C1202 1.258 . S
C1195 N1196 1.326 . S
C1195 C1199 1.460 . S
C1195 H1201 0.929 . S
N1196 Mn1189 2.257 . S
N1196 C1195 1.326 . S
N1196 C1200 1.362 . S
C1197 C1198 1.258 . S
C1197 C1200 1.431 . S
C1197 C1217 1.449 . S
C1198 C1197 1.258 . S
C1198 C1199 1.477 . S
C1198 H1218 0.931 . S
C1199 C1195 1.460 . S
C1199 C1198 1.477 . S
C1199 H1219 0.930 . S
C1200 N1196 1.362 . S
C1200 C1197 1.431 . S
C1200 C1210 1.476 . S
H1201 C1195 0.929 . S
C1202 O1193 1.250 . S
C1202 O1194 1.258 . S
O1203 Mn1188 2.162 . S
O1203 C1191 1.281 . S
O1204 Mn1188 2.297 . S
O1204 C1191 1.236 . S
N1205 Mn1189 2.282 . S
N1205 C1206 1.328 . S
N1205 C1210 1.318 . S
C1206 N1205 1.328 . S
C1206 C1207 1.457 . S
C1206 H1211 0.929 . S
C1207 C1206 1.457 . S
C1207 C1208 1.291 . S
C1207 H1220 0.931 . S
C1208 C1207 1.291 . S
C1208 C1209 1.373 . S
C1208 H1221 0.929 . S
C1209 C1208 1.373 . S
C1209 C1210 1.396 . S
C1209 C1216 1.403 . S
C1210 C1200 1.476 . S
C1210 N1205 1.318 . S
C1210 C1209 1.396 . S
H1211 C1206 0.929 . S
O1212 Mn1188 2.385 . S
O1212 C1190 1.234 . S
O1213 Mn1188 2.209 . S
O1213 Mn1189 2.215 . S
O1213 C1190 1.283 . S
O1214 Mn1188 2.094 . S
O1214 C1192 1.240 . S
O1215 Mn1189 2.117 . S
O1215 C1192 1.264 . S
C1216 C1209 1.403 . S
C1216 C1217 1.399 . S
C1216 H1222 0.929 . S
C1217 C1197 1.449 . S
C1217 C1216 1.399 . S
C1217 H1223 0.930 . S
H1218 C1198 0.931 . S
H1219 C1199 0.930 . S
H1220 C1207 0.931 . S
H1221 C1208 0.929 . S
H1222 C1216 0.929 . S
H1223 C1217 0.930 . S
Mn1224 O1229 2.095 . S
Mn1224 O1239 2.162 . S
Mn1224 O1240 2.297 . S
Mn1224 O1248 2.385 . S
Mn1224 O1249 2.209 . S
Mn1224 O1250 2.094 . S
Mn1225 O1230 2.121 . S
Mn1225 N1232 2.257 . S
Mn1225 N1241 2.282 . S
Mn1225 O1249 2.215 . S
Mn1225 O1251 2.117 . S
C1226 O1248 1.234 . S
C1226 O1249 1.283 . S
C1227 O1239 1.281 . S
C1227 O1240 1.236 . S
C1228 O1250 1.240 . S
C1228 O1251 1.264 . S
O1229 Mn1224 2.095 . S
O1229 C1238 1.250 . S
O1230 Mn1225 2.121 . S
O1230 C1238 1.258 . S
C1231 N1232 1.326 . S
C1231 C1235 1.460 . S
C1231 H1237 0.929 . S
N1232 Mn1225 2.257 . S
N1232 C1231 1.326 . S
N1232 C1236 1.362 . S
C1233 C1234 1.258 . S
C1233 C1236 1.431 . S
C1233 C1253 1.449 . S
C1234 C1233 1.258 . S
C1234 C1235 1.477 . S
C1234 H1254 0.931 . S
C1235 C1231 1.460 . S
C1235 C1234 1.477 . S
C1235 H1255 0.930 . S
C1236 N1232 1.362 . S
C1236 C1233 1.431 . S
C1236 C1246 1.476 . S
H1237 C1231 0.929 . S
C1238 O1229 1.250 . S
C1238 O1230 1.258 . S
O1239 Mn1224 2.162 . S
O1239 C1227 1.281 . S
O1240 Mn1224 2.297 . S
O1240 C1227 1.236 . S
N1241 Mn1225 2.282 . S
N1241 C1242 1.328 . S
N1241 C1246 1.318 . S
C1242 N1241 1.328 . S
C1242 C1243 1.457 . S
C1242 H1247 0.929 . S
C1243 C1242 1.457 . S
C1243 C1244 1.291 . S
C1243 H1256 0.931 . S
C1244 C1243 1.291 . S
C1244 C1245 1.373 . S
C1244 H1257 0.929 . S
C1245 C1244 1.373 . S
C1245 C1246 1.396 . S
C1245 C1252 1.403 . S
C1246 C1236 1.476 . S
C1246 N1241 1.318 . S
C1246 C1245 1.396 . S
H1247 C1242 0.929 . S
O1248 Mn1224 2.385 . S
O1248 C1226 1.234 . S
O1249 Mn1224 2.209 . S
O1249 Mn1225 2.215 . S
O1249 C1226 1.283 . S
O1250 Mn1224 2.094 . S
O1250 C1228 1.240 . S
O1251 Mn1225 2.117 . S
O1251 C1228 1.264 . S
C1252 C1245 1.403 . S
C1252 C1253 1.399 . S
C1252 H1258 0.929 . S
C1253 C1233 1.449 . S
C1253 C1252 1.399 . S
C1253 H1259 0.930 . S
H1254 C1234 0.931 . S
H1255 C1235 0.930 . S
H1256 C1243 0.931 . S
H1257 C1244 0.929 . S
H1258 C1252 0.929 . S
H1259 C1253 0.930 . S
Mn1260 O1265 2.095 . S
Mn1260 O1275 2.162 . S
Mn1260 O1276 2.297 . S
Mn1260 O1284 2.385 . S
Mn1260 O1285 2.209 . S
Mn1260 O1286 2.094 . S
Mn1261 O1266 2.121 . S
Mn1261 N1268 2.257 . S
Mn1261 N1277 2.282 . S
Mn1261 O1285 2.215 . S
Mn1261 O1287 2.117 . S
C1262 O1284 1.234 . S
C1262 O1285 1.283 . S
C1263 O1275 1.281 . S
C1263 O1276 1.236 . S
C1264 O1286 1.240 . S
C1264 O1287 1.264 . S
O1265 Mn1260 2.095 . S
O1265 C1274 1.250 . S
O1266 Mn1261 2.121 . S
O1266 C1274 1.258 . S
C1267 N1268 1.326 . S
C1267 C1271 1.460 . S
C1267 H1273 0.929 . S
N1268 Mn1261 2.257 . S
N1268 C1267 1.326 . S
N1268 C1272 1.362 . S
C1269 C1270 1.258 . S
C1269 C1272 1.431 . S
C1269 C1289 1.449 . S
C1270 C1269 1.258 . S
C1270 C1271 1.477 . S
C1270 H1290 0.931 . S
C1271 C1267 1.460 . S
C1271 C1270 1.477 . S
C1271 H1291 0.930 . S
C1272 N1268 1.362 . S
C1272 C1269 1.431 . S
C1272 C1282 1.476 . S
H1273 C1267 0.929 . S
C1274 O1265 1.250 . S
C1274 O1266 1.258 . S
O1275 Mn1260 2.162 . S
O1275 C1263 1.281 . S
O1276 Mn1260 2.297 . S
O1276 C1263 1.236 . S
N1277 Mn1261 2.282 . S
N1277 C1278 1.328 . S
N1277 C1282 1.318 . S
C1278 N1277 1.328 . S
C1278 C1279 1.457 . S
C1278 H1283 0.929 . S
C1279 C1278 1.457 . S
C1279 C1280 1.291 . S
C1279 H1292 0.931 . S
C1280 C1279 1.291 . S
C1280 C1281 1.373 . S
C1280 H1293 0.929 . S
C1281 C1280 1.373 . S
C1281 C1282 1.396 . S
C1281 C1288 1.403 . S
C1282 C1272 1.476 . S
C1282 N1277 1.318 . S
C1282 C1281 1.396 . S
H1283 C1278 0.929 . S
O1284 Mn1260 2.385 . S
O1284 C1262 1.234 . S
O1285 Mn1260 2.209 . S
O1285 Mn1261 2.215 . S
O1285 C1262 1.283 . S
O1286 Mn1260 2.094 . S
O1286 C1264 1.240 . S
O1287 Mn1261 2.117 . S
O1287 C1264 1.264 . S
C1288 C1281 1.403 . S
C1288 C1289 1.399 . S
C1288 H1294 0.929 . S
C1289 C1269 1.449 . S
C1289 C1288 1.399 . S
C1289 H1295 0.930 . S
H1290 C1270 0.931 . S
H1291 C1271 0.930 . S
H1292 C1279 0.931 . S
H1293 C1280 0.929 . S
H1294 C1288 0.929 . S
H1295 C1289 0.930 . S
Mn1296 O1301 2.095 . S
Mn1296 O1311 2.162 . S
Mn1296 O1312 2.297 . S
Mn1296 O1320 2.385 . S
Mn1296 O1321 2.209 . S
Mn1296 O1322 2.094 . S
Mn1297 O1302 2.121 . S
Mn1297 N1304 2.257 . S
Mn1297 N1313 2.282 . S
Mn1297 O1321 2.215 . S
Mn1297 O1323 2.117 . S
C1298 O1320 1.234 . S
C1298 O1321 1.283 . S
C1299 O1311 1.281 . S
C1299 O1312 1.236 . S
C1300 O1322 1.240 . S
C1300 O1323 1.264 . S
O1301 Mn1296 2.095 . S
O1301 C1310 1.250 . S
O1302 Mn1297 2.121 . S
O1302 C1310 1.258 . S
C1303 N1304 1.326 . S
C1303 C1307 1.460 . S
C1303 H1309 0.929 . S
N1304 Mn1297 2.257 . S
N1304 C1303 1.326 . S
N1304 C1308 1.362 . S
C1305 C1306 1.258 . S
C1305 C1308 1.431 . S
C1305 C1325 1.449 . S
C1306 C1305 1.258 . S
C1306 C1307 1.477 . S
C1306 H1326 0.931 . S
C1307 C1303 1.460 . S
C1307 C1306 1.477 . S
C1307 H1327 0.930 . S
C1308 N1304 1.362 . S
C1308 C1305 1.431 . S
C1308 C1318 1.476 . S
H1309 C1303 0.929 . S
C1310 O1301 1.250 . S
C1310 O1302 1.258 . S
O1311 Mn1296 2.162 . S
O1311 C1299 1.281 . S
O1312 Mn1296 2.297 . S
O1312 C1299 1.236 . S
N1313 Mn1297 2.282 . S
N1313 C1314 1.328 . S
N1313 C1318 1.318 . S
C1314 N1313 1.328 . S
C1314 C1315 1.457 . S
C1314 H1319 0.929 . S
C1315 C1314 1.457 . S
C1315 C1316 1.291 . S
C1315 H1328 0.931 . S
C1316 C1315 1.291 . S
C1316 C1317 1.373 . S
C1316 H1329 0.929 . S
C1317 C1316 1.373 . S
C1317 C1318 1.396 . S
C1317 C1324 1.403 . S
C1318 C1308 1.476 . S
C1318 N1313 1.318 . S
C1318 C1317 1.396 . S
H1319 C1314 0.929 . S
O1320 Mn1296 2.385 . S
O1320 C1298 1.234 . S
O1321 Mn1296 2.209 . S
O1321 Mn1297 2.215 . S
O1321 C1298 1.283 . S
O1322 Mn1296 2.094 . S
O1322 C1300 1.240 . S
O1323 Mn1297 2.117 . S
O1323 C1300 1.264 . S
C1324 C1317 1.403 . S
C1324 C1325 1.399 . S
C1324 H1330 0.929 . S
C1325 C1305 1.449 . S
C1325 C1324 1.399 . S
C1325 H1331 0.930 . S
H1326 C1306 0.931 . S
H1327 C1307 0.930 . S
H1328 C1315 0.931 . S
H1329 C1316 0.929 . S
H1330 C1324 0.929 . S
H1331 C1325 0.930 . S
Mn1332 O1337 2.095 . S
Mn1332 O1347 2.162 . S
Mn1332 O1348 2.297 . S
Mn1332 O1356 2.385 . S
Mn1332 O1357 2.209 . S
Mn1332 O1358 2.094 . S
Mn1333 O1338 2.121 . S
Mn1333 N1340 2.257 . S
Mn1333 N1349 2.282 . S
Mn1333 O1357 2.215 . S
Mn1333 O1359 2.117 . S
C1334 O1356 1.234 . S
C1334 O1357 1.283 . S
C1335 O1347 1.281 . S
C1335 O1348 1.236 . S
C1336 O1358 1.240 . S
C1336 O1359 1.264 . S
O1337 Mn1332 2.095 . S
O1337 C1346 1.250 . S
O1338 Mn1333 2.121 . S
O1338 C1346 1.258 . S
C1339 N1340 1.326 . S
C1339 C1343 1.460 . S
C1339 H1345 0.929 . S
N1340 Mn1333 2.257 . S
N1340 C1339 1.326 . S
N1340 C1344 1.362 . S
C1341 C1342 1.258 . S
C1341 C1344 1.431 . S
C1341 C1361 1.449 . S
C1342 C1341 1.258 . S
C1342 C1343 1.477 . S
C1342 H1362 0.931 . S
C1343 C1339 1.460 . S
C1343 C1342 1.477 . S
C1343 H1363 0.930 . S
C1344 N1340 1.362 . S
C1344 C1341 1.431 . S
C1344 C1354 1.476 . S
H1345 C1339 0.929 . S
C1346 O1337 1.250 . S
C1346 O1338 1.258 . S
O1347 Mn1332 2.162 . S
O1347 C1335 1.281 . S
O1348 Mn1332 2.297 . S
O1348 C1335 1.236 . S
N1349 Mn1333 2.282 . S
N1349 C1350 1.328 . S
N1349 C1354 1.318 . S
C1350 N1349 1.328 . S
C1350 C1351 1.457 . S
C1350 H1355 0.929 . S
C1351 C1350 1.457 . S
C1351 C1352 1.291 . S
C1351 H1364 0.931 . S
C1352 C1351 1.291 . S
C1352 C1353 1.373 . S
C1352 H1365 0.929 . S
C1353 C1352 1.373 . S
C1353 C1354 1.396 . S
C1353 C1360 1.403 . S
C1354 C1344 1.476 . S
C1354 N1349 1.318 . S
C1354 C1353 1.396 . S
H1355 C1350 0.929 . S
O1356 Mn1332 2.385 . S
O1356 C1334 1.234 . S
O1357 Mn1332 2.209 . S
O1357 Mn1333 2.215 . S
O1357 C1334 1.283 . S
O1358 Mn1332 2.094 . S
O1358 C1336 1.240 . S
O1359 Mn1333 2.117 . S
O1359 C1336 1.264 . S
C1360 C1353 1.403 . S
C1360 C1361 1.399 . S
C1360 H1366 0.929 . S
C1361 C1341 1.449 . S
C1361 C1360 1.399 . S
C1361 H1367 0.930 . S
H1362 C1342 0.931 . S
H1363 C1343 0.930 . S
H1364 C1351 0.931 . S
H1365 C1352 0.929 . S
H1366 C1360 0.929 . S
H1367 C1361 0.930 . S
Mn1368 O1373 2.095 . S
Mn1368 O1383 2.162 . S
Mn1368 O1384 2.297 . S
Mn1368 O1392 2.385 . S
Mn1368 O1393 2.209 . S
Mn1368 O1394 2.094 . S
Mn1369 O1374 2.121 . S
Mn1369 N1376 2.257 . S
Mn1369 N1385 2.282 . S
Mn1369 O1393 2.215 . S
Mn1369 O1395 2.117 . S
C1370 O1392 1.234 . S
C1370 O1393 1.283 . S
C1371 O1383 1.281 . S
C1371 O1384 1.236 . S
C1372 O1394 1.240 . S
C1372 O1395 1.264 . S
O1373 Mn1368 2.095 . S
O1373 C1382 1.250 . S
O1374 Mn1369 2.121 . S
O1374 C1382 1.258 . S
C1375 N1376 1.326 . S
C1375 C1379 1.460 . S
C1375 H1381 0.929 . S
N1376 Mn1369 2.257 . S
N1376 C1375 1.326 . S
N1376 C1380 1.362 . S
C1377 C1378 1.258 . S
C1377 C1380 1.431 . S
C1377 C1397 1.449 . S
C1378 C1377 1.258 . S
C1378 C1379 1.477 . S
C1378 H1398 0.931 . S
C1379 C1375 1.460 . S
C1379 C1378 1.477 . S
C1379 H1399 0.930 . S
C1380 N1376 1.362 . S
C1380 C1377 1.431 . S
C1380 C1390 1.476 . S
H1381 C1375 0.929 . S
C1382 O1373 1.250 . S
C1382 O1374 1.258 . S
O1383 Mn1368 2.162 . S
O1383 C1371 1.281 . S
O1384 Mn1368 2.297 . S
O1384 C1371 1.236 . S
N1385 Mn1369 2.282 . S
N1385 C1386 1.328 . S
N1385 C1390 1.318 . S
C1386 N1385 1.328 . S
C1386 C1387 1.457 . S
C1386 H1391 0.929 . S
C1387 C1386 1.457 . S
C1387 C1388 1.291 . S
C1387 H1400 0.931 . S
C1388 C1387 1.291 . S
C1388 C1389 1.373 . S
C1388 H1401 0.929 . S
C1389 C1388 1.373 . S
C1389 C1390 1.396 . S
C1389 C1396 1.403 . S
C1390 C1380 1.476 . S
C1390 N1385 1.318 . S
C1390 C1389 1.396 . S
H1391 C1386 0.929 . S
O1392 Mn1368 2.385 . S
O1392 C1370 1.234 . S
O1393 Mn1368 2.209 . S
O1393 Mn1369 2.215 . S
O1393 C1370 1.283 . S
O1394 Mn1368 2.094 . S
O1394 C1372 1.240 . S
O1395 Mn1369 2.117 . S
O1395 C1372 1.264 . S
C1396 C1389 1.403 . S
C1396 C1397 1.399 . S
C1396 H1402 0.929 . S
C1397 C1377 1.449 . S
C1397 C1396 1.399 . S
C1397 H1403 0.930 . S
H1398 C1378 0.931 . S
H1399 C1379 0.930 . S
H1400 C1387 0.931 . S
H1401 C1388 0.929 . S
H1402 C1396 0.929 . S
H1403 C1397 0.930 . S
Mn1404 O1409 2.095 . S
Mn1404 O1419 2.162 . S
Mn1404 O1420 2.297 . S
Mn1404 O1428 2.385 . S
Mn1404 O1429 2.209 . S
Mn1404 O1430 2.094 . S
Mn1405 O1410 2.121 . S
Mn1405 N1412 2.257 . S
Mn1405 N1421 2.282 . S
Mn1405 O1429 2.215 . S
Mn1405 O1431 2.117 . S
C1406 O1428 1.234 . S
C1406 O1429 1.283 . S
C1407 O1419 1.281 . S
C1407 O1420 1.236 . S
C1408 O1430 1.240 . S
C1408 O1431 1.264 . S
O1409 Mn1404 2.095 . S
O1409 C1418 1.250 . S
O1410 Mn1405 2.121 . S
O1410 C1418 1.258 . S
C1411 N1412 1.326 . S
C1411 C1415 1.460 . S
C1411 H1417 0.929 . S
N1412 Mn1405 2.257 . S
N1412 C1411 1.326 . S
N1412 C1416 1.362 . S
C1413 C1414 1.258 . S
C1413 C1416 1.431 . S
C1413 C1433 1.449 . S
C1414 C1413 1.258 . S
C1414 C1415 1.477 . S
C1414 H1434 0.931 . S
C1415 C1411 1.460 . S
C1415 C1414 1.477 . S
C1415 H1435 0.930 . S
C1416 N1412 1.362 . S
C1416 C1413 1.431 . S
C1416 C1426 1.476 . S
H1417 C1411 0.929 . S
C1418 O1409 1.250 . S
C1418 O1410 1.258 . S
O1419 Mn1404 2.162 . S
O1419 C1407 1.281 . S
O1420 Mn1404 2.297 . S
O1420 C1407 1.236 . S
N1421 Mn1405 2.282 . S
N1421 C1422 1.328 . S
N1421 C1426 1.318 . S
C1422 N1421 1.328 . S
C1422 C1423 1.457 . S
C1422 H1427 0.929 . S
C1423 C1422 1.457 . S
C1423 C1424 1.291 . S
C1423 H1436 0.931 . S
C1424 C1423 1.291 . S
C1424 C1425 1.373 . S
C1424 H1437 0.929 . S
C1425 C1424 1.373 . S
C1425 C1426 1.396 . S
C1425 C1432 1.403 . S
C1426 C1416 1.476 . S
C1426 N1421 1.318 . S
C1426 C1425 1.396 . S
H1427 C1422 0.929 . S
O1428 Mn1404 2.385 . S
O1428 C1406 1.234 . S
O1429 Mn1404 2.209 . S
O1429 Mn1405 2.215 . S
O1429 C1406 1.283 . S
O1430 Mn1404 2.094 . S
O1430 C1408 1.240 . S
O1431 Mn1405 2.117 . S
O1431 C1408 1.264 . S
C1432 C1425 1.403 . S
C1432 C1433 1.399 . S
C1432 H1438 0.929 . S
C1433 C1413 1.449 . S
C1433 C1432 1.399 . S
C1433 H1439 0.930 . S
H1434 C1414 0.931 . S
H1435 C1415 0.930 . S
H1436 C1423 0.931 . S
H1437 C1424 0.929 . S
H1438 C1432 0.929 . S
H1439 C1433 0.930 . S
Mn1440 O1445 2.095 . S
Mn1440 O1455 2.162 . S
Mn1440 O1456 2.297 . S
Mn1440 O1464 2.385 . S
Mn1440 O1465 2.209 . S
Mn1440 O1466 2.094 . S
Mn1441 O1446 2.121 . S
Mn1441 N1448 2.257 . S
Mn1441 N1457 2.282 . S
Mn1441 O1465 2.215 . S
Mn1441 O1467 2.117 . S
C1442 O1464 1.234 . S
C1442 O1465 1.283 . S
C1443 O1455 1.281 . S
C1443 O1456 1.236 . S
C1444 O1466 1.240 . S
C1444 O1467 1.264 . S
O1445 Mn1440 2.095 . S
O1445 C1454 1.250 . S
O1446 Mn1441 2.121 . S
O1446 C1454 1.258 . S
C1447 N1448 1.326 . S
C1447 C1451 1.460 . S
C1447 H1453 0.929 . S
N1448 Mn1441 2.257 . S
N1448 C1447 1.326 . S
N1448 C1452 1.362 . S
C1449 C1450 1.258 . S
C1449 C1452 1.431 . S
C1449 C1469 1.449 . S
C1450 C1449 1.258 . S
C1450 C1451 1.477 . S
C1450 H1470 0.931 . S
C1451 C1447 1.460 . S
C1451 C1450 1.477 . S
C1451 H1471 0.930 . S
C1452 N1448 1.362 . S
C1452 C1449 1.431 . S
C1452 C1462 1.476 . S
H1453 C1447 0.929 . S
C1454 O1445 1.250 . S
C1454 O1446 1.258 . S
O1455 Mn1440 2.162 . S
O1455 C1443 1.281 . S
O1456 Mn1440 2.297 . S
O1456 C1443 1.236 . S
N1457 Mn1441 2.282 . S
N1457 C1458 1.328 . S
N1457 C1462 1.318 . S
C1458 N1457 1.328 . S
C1458 C1459 1.457 . S
C1458 H1463 0.929 . S
C1459 C1458 1.457 . S
C1459 C1460 1.291 . S
C1459 H1472 0.931 . S
C1460 C1459 1.291 . S
C1460 C1461 1.373 . S
C1460 H1473 0.929 . S
C1461 C1460 1.373 . S
C1461 C1462 1.396 . S
C1461 C1468 1.403 . S
C1462 C1452 1.476 . S
C1462 N1457 1.318 . S
C1462 C1461 1.396 . S
H1463 C1458 0.929 . S
O1464 Mn1440 2.385 . S
O1464 C1442 1.234 . S
O1465 Mn1440 2.209 . S
O1465 Mn1441 2.215 . S
O1465 C1442 1.283 . S
O1466 Mn1440 2.094 . S
O1466 C1444 1.240 . S
O1467 Mn1441 2.117 . S
O1467 C1444 1.264 . S
C1468 C1461 1.403 . S
C1468 C1469 1.399 . S
C1468 H1474 0.929 . S
C1469 C1449 1.449 . S
C1469 C1468 1.399 . S
C1469 H1475 0.930 . S
H1470 C1450 0.931 . S
H1471 C1451 0.930 . S
H1472 C1459 0.931 . S
H1473 C1460 0.929 . S
H1474 C1468 0.929 . S
H1475 C1469 0.930 . S
Mn1476 O1481 2.095 . S
Mn1476 O1491 2.162 . S
Mn1476 O1492 2.297 . S
Mn1476 O1500 2.385 . S
Mn1476 O1501 2.209 . S
Mn1476 O1502 2.094 . S
Mn1477 O1482 2.121 . S
Mn1477 N1484 2.257 . S
Mn1477 N1493 2.282 . S
Mn1477 O1501 2.215 . S
Mn1477 O1503 2.117 . S
C1478 O1500 1.234 . S
C1478 O1501 1.283 . S
C1479 O1491 1.281 . S
C1479 O1492 1.236 . S
C1480 O1502 1.240 . S
C1480 O1503 1.264 . S
O1481 Mn1476 2.095 . S
O1481 C1490 1.250 . S
O1482 Mn1477 2.121 . S
O1482 C1490 1.258 . S
C1483 N1484 1.326 . S
C1483 C1487 1.460 . S
C1483 H1489 0.929 . S
N1484 Mn1477 2.257 . S
N1484 C1483 1.326 . S
N1484 C1488 1.362 . S
C1485 C1486 1.258 . S
C1485 C1488 1.431 . S
C1485 C1505 1.449 . S
C1486 C1485 1.258 . S
C1486 C1487 1.477 . S
C1486 H1506 0.931 . S
C1487 C1483 1.460 . S
C1487 C1486 1.477 . S
C1487 H1507 0.930 . S
C1488 N1484 1.362 . S
C1488 C1485 1.431 . S
C1488 C1498 1.476 . S
H1489 C1483 0.929 . S
C1490 O1481 1.250 . S
C1490 O1482 1.258 . S
O1491 Mn1476 2.162 . S
O1491 C1479 1.281 . S
O1492 Mn1476 2.297 . S
O1492 C1479 1.236 . S
N1493 Mn1477 2.282 . S
N1493 C1494 1.328 . S
N1493 C1498 1.318 . S
C1494 N1493 1.328 . S
C1494 C1495 1.457 . S
C1494 H1499 0.929 . S
C1495 C1494 1.457 . S
C1495 C1496 1.291 . S
C1495 H1508 0.931 . S
C1496 C1495 1.291 . S
C1496 C1497 1.373 . S
C1496 H1509 0.929 . S
C1497 C1496 1.373 . S
C1497 C1498 1.396 . S
C1497 C1504 1.403 . S
C1498 C1488 1.476 . S
C1498 N1493 1.318 . S
C1498 C1497 1.396 . S
H1499 C1494 0.929 . S
O1500 Mn1476 2.385 . S
O1500 C1478 1.234 . S
O1501 Mn1476 2.209 . S
O1501 Mn1477 2.215 . S
O1501 C1478 1.283 . S
O1502 Mn1476 2.094 . S
O1502 C1480 1.240 . S
O1503 Mn1477 2.117 . S
O1503 C1480 1.264 . S
C1504 C1497 1.403 . S
C1504 C1505 1.399 . S
C1504 H1510 0.929 . S
C1505 C1485 1.449 . S
C1505 C1504 1.399 . S
C1505 H1511 0.930 . S
H1506 C1486 0.931 . S
H1507 C1487 0.930 . S
H1508 C1495 0.931 . S
H1509 C1496 0.929 . S
H1510 C1504 0.929 . S
H1511 C1505 0.930 . S
Mn1512 O1517 2.095 . S
Mn1512 O1527 2.162 . S
Mn1512 O1528 2.297 . S
Mn1512 O1536 2.385 . S
Mn1512 O1537 2.209 . S
Mn1512 O1538 2.094 . S
Mn1513 O1518 2.121 . S
Mn1513 N1520 2.257 . S
Mn1513 N1529 2.282 . S
Mn1513 O1537 2.215 . S
Mn1513 O1539 2.117 . S
C1514 O1536 1.234 . S
C1514 O1537 1.283 . S
C1515 O1527 1.281 . S
C1515 O1528 1.236 . S
C1516 O1538 1.240 . S
C1516 O1539 1.264 . S
O1517 Mn1512 2.095 . S
O1517 C1526 1.250 . S
O1518 Mn1513 2.121 . S
O1518 C1526 1.258 . S
C1519 N1520 1.326 . S
C1519 C1523 1.460 . S
C1519 H1525 0.929 . S
N1520 Mn1513 2.257 . S
N1520 C1519 1.326 . S
N1520 C1524 1.362 . S
C1521 C1522 1.258 . S
C1521 C1524 1.431 . S
C1521 C1541 1.449 . S
C1522 C1521 1.258 . S
C1522 C1523 1.477 . S
C1522 H1542 0.931 . S
C1523 C1519 1.460 . S
C1523 C1522 1.477 . S
C1523 H1543 0.930 . S
C1524 N1520 1.362 . S
C1524 C1521 1.431 . S
C1524 C1534 1.476 . S
H1525 C1519 0.929 . S
C1526 O1517 1.250 . S
C1526 O1518 1.258 . S
O1527 Mn1512 2.162 . S
O1527 C1515 1.281 . S
O1528 Mn1512 2.297 . S
O1528 C1515 1.236 . S
N1529 Mn1513 2.282 . S
N1529 C1530 1.328 . S
N1529 C1534 1.318 . S
C1530 N1529 1.328 . S
C1530 C1531 1.457 . S
C1530 H1535 0.929 . S
C1531 C1530 1.457 . S
C1531 C1532 1.291 . S
C1531 H1544 0.931 . S
C1532 C1531 1.291 . S
C1532 C1533 1.373 . S
C1532 H1545 0.929 . S
C1533 C1532 1.373 . S
C1533 C1534 1.396 . S
C1533 C1540 1.403 . S
C1534 C1524 1.476 . S
C1534 N1529 1.318 . S
C1534 C1533 1.396 . S
H1535 C1530 0.929 . S
O1536 Mn1512 2.385 . S
O1536 C1514 1.234 . S
O1537 Mn1512 2.209 . S
O1537 Mn1513 2.215 . S
O1537 C1514 1.283 . S
O1538 Mn1512 2.094 . S
O1538 C1516 1.240 . S
O1539 Mn1513 2.117 . S
O1539 C1516 1.264 . S
C1540 C1533 1.403 . S
C1540 C1541 1.399 . S
C1540 H1546 0.929 . S
C1541 C1521 1.449 . S
C1541 C1540 1.399 . S
C1541 H1547 0.930 . S
H1542 C1522 0.931 . S
H1543 C1523 0.930 . S
H1544 C1531 0.931 . S
H1545 C1532 0.929 . S
H1546 C1540 0.929 . S
H1547 C1541 0.930 . S
Mn1548 O1553 2.095 . S
Mn1548 O1563 2.162 . S
Mn1548 O1564 2.297 . S
Mn1548 O1572 2.385 . S
Mn1548 O1573 2.209 . S
Mn1548 O1574 2.094 . S
Mn1549 O1554 2.121 . S
Mn1549 N1556 2.257 . S
Mn1549 N1565 2.282 . S
Mn1549 O1573 2.215 . S
Mn1549 O1575 2.117 . S
C1550 O1572 1.234 . S
C1550 O1573 1.283 . S
C1551 O1563 1.281 . S
C1551 O1564 1.236 . S
C1552 O1574 1.240 . S
C1552 O1575 1.264 . S
O1553 Mn1548 2.095 . S
O1553 C1562 1.250 . S
O1554 Mn1549 2.121 . S
O1554 C1562 1.258 . S
C1555 N1556 1.326 . S
C1555 C1559 1.460 . S
C1555 H1561 0.929 . S
N1556 Mn1549 2.257 . S
N1556 C1555 1.326 . S
N1556 C1560 1.362 . S
C1557 C1558 1.258 . S
C1557 C1560 1.431 . S
C1557 C1577 1.449 . S
C1558 C1557 1.258 . S
C1558 C1559 1.477 . S
C1558 H1578 0.931 . S
C1559 C1555 1.460 . S
C1559 C1558 1.477 . S
C1559 H1579 0.930 . S
C1560 N1556 1.362 . S
C1560 C1557 1.431 . S
C1560 C1570 1.476 . S
H1561 C1555 0.929 . S
C1562 O1553 1.250 . S
C1562 O1554 1.258 . S
O1563 Mn1548 2.162 . S
O1563 C1551 1.281 . S
O1564 Mn1548 2.297 . S
O1564 C1551 1.236 . S
N1565 Mn1549 2.282 . S
N1565 C1566 1.328 . S
N1565 C1570 1.318 . S
C1566 N1565 1.328 . S
C1566 C1567 1.457 . S
C1566 H1571 0.929 . S
C1567 C1566 1.457 . S
C1567 C1568 1.291 . S
C1567 H1580 0.931 . S
C1568 C1567 1.291 . S
C1568 C1569 1.373 . S
C1568 H1581 0.929 . S
C1569 C1568 1.373 . S
C1569 C1570 1.396 . S
C1569 C1576 1.403 . S
C1570 C1560 1.476 . S
C1570 N1565 1.318 . S
C1570 C1569 1.396 . S
H1571 C1566 0.929 . S
O1572 Mn1548 2.385 . S
O1572 C1550 1.234 . S
O1573 Mn1548 2.209 . S
O1573 Mn1549 2.215 . S
O1573 C1550 1.283 . S
O1574 Mn1548 2.094 . S
O1574 C1552 1.240 . S
O1575 Mn1549 2.117 . S
O1575 C1552 1.264 . S
C1576 C1569 1.403 . S
C1576 C1577 1.399 . S
C1576 H1582 0.929 . S
C1577 C1557 1.449 . S
C1577 C1576 1.399 . S
C1577 H1583 0.930 . S
H1578 C1558 0.931 . S
H1579 C1559 0.930 . S
H1580 C1567 0.931 . S
H1581 C1568 0.929 . S
H1582 C1576 0.929 . S
H1583 C1577 0.930 . S
Mn1584 O1589 2.095 . S
Mn1584 O1599 2.162 . S
Mn1584 O1600 2.297 . S
Mn1584 O1608 2.385 . S
Mn1584 O1609 2.209 . S
Mn1584 O1610 2.094 . S
Mn1585 O1590 2.121 . S
Mn1585 N1592 2.257 . S
Mn1585 N1601 2.282 . S
Mn1585 O1609 2.215 . S
Mn1585 O1611 2.117 . S
C1586 O1608 1.234 . S
C1586 O1609 1.283 . S
C1587 O1599 1.281 . S
C1587 O1600 1.236 . S
C1588 O1610 1.240 . S
C1588 O1611 1.264 . S
O1589 Mn1584 2.095 . S
O1589 C1598 1.250 . S
O1590 Mn1585 2.121 . S
O1590 C1598 1.258 . S
C1591 N1592 1.326 . S
C1591 C1595 1.460 . S
C1591 H1597 0.929 . S
N1592 Mn1585 2.257 . S
N1592 C1591 1.326 . S
N1592 C1596 1.362 . S
C1593 C1594 1.258 . S
C1593 C1596 1.431 . S
C1593 C1613 1.449 . S
C1594 C1593 1.258 . S
C1594 C1595 1.477 . S
C1594 H1614 0.931 . S
C1595 C1591 1.460 . S
C1595 C1594 1.477 . S
C1595 H1615 0.930 . S
C1596 N1592 1.362 . S
C1596 C1593 1.431 . S
C1596 C1606 1.476 . S
H1597 C1591 0.929 . S
C1598 O1589 1.250 . S
C1598 O1590 1.258 . S
O1599 Mn1584 2.162 . S
O1599 C1587 1.281 . S
O1600 Mn1584 2.297 . S
O1600 C1587 1.236 . S
N1601 Mn1585 2.282 . S
N1601 C1602 1.328 . S
N1601 C1606 1.318 . S
C1602 N1601 1.328 . S
C1602 C1603 1.457 . S
C1602 H1607 0.929 . S
C1603 C1602 1.457 . S
C1603 C1604 1.291 . S
C1603 H1616 0.931 . S
C1604 C1603 1.291 . S
C1604 C1605 1.373 . S
C1604 H1617 0.929 . S
C1605 C1604 1.373 . S
C1605 C1606 1.396 . S
C1605 C1612 1.403 . S
C1606 C1596 1.476 . S
C1606 N1601 1.318 . S
C1606 C1605 1.396 . S
H1607 C1602 0.929 . S
O1608 Mn1584 2.385 . S
O1608 C1586 1.234 . S
O1609 Mn1584 2.209 . S
O1609 Mn1585 2.215 . S
O1609 C1586 1.283 . S
O1610 Mn1584 2.094 . S
O1610 C1588 1.240 . S
O1611 Mn1585 2.117 . S
O1611 C1588 1.264 . S
C1612 C1605 1.403 . S
C1612 C1613 1.399 . S
C1612 H1618 0.929 . S
C1613 C1593 1.449 . S
C1613 C1612 1.399 . S
C1613 H1619 0.930 . S
H1614 C1594 0.931 . S
H1615 C1595 0.930 . S
H1616 C1603 0.931 . S
H1617 C1604 0.929 . S
H1618 C1612 0.929 . S
H1619 C1613 0.930 . S
Mn1620 O1625 2.095 . S
Mn1620 O1635 2.162 . S
Mn1620 O1636 2.297 . S
Mn1620 O1644 2.385 . S
Mn1620 O1645 2.209 . S
Mn1620 O1646 2.094 . S
Mn1621 O1626 2.121 . S
Mn1621 N1628 2.257 . S
Mn1621 N1637 2.282 . S
Mn1621 O1645 2.215 . S
Mn1621 O1647 2.117 . S
C1622 O1644 1.234 . S
C1622 O1645 1.283 . S
C1623 O1635 1.281 . S
C1623 O1636 1.236 . S
C1624 O1646 1.240 . S
C1624 O1647 1.264 . S
O1625 Mn1620 2.095 . S
O1625 C1634 1.250 . S
O1626 Mn1621 2.121 . S
O1626 C1634 1.258 . S
C1627 N1628 1.326 . S
C1627 C1631 1.460 . S
C1627 H1633 0.929 . S
N1628 Mn1621 2.257 . S
N1628 C1627 1.326 . S
N1628 C1632 1.362 . S
C1629 C1630 1.258 . S
C1629 C1632 1.431 . S
C1629 C1649 1.449 . S
C1630 C1629 1.258 . S
C1630 C1631 1.477 . S
C1630 H1650 0.931 . S
C1631 C1627 1.460 . S
C1631 C1630 1.477 . S
C1631 H1651 0.930 . S
C1632 N1628 1.362 . S
C1632 C1629 1.431 . S
C1632 C1642 1.476 . S
H1633 C1627 0.929 . S
C1634 O1625 1.250 . S
C1634 O1626 1.258 . S
O1635 Mn1620 2.162 . S
O1635 C1623 1.281 . S
O1636 Mn1620 2.297 . S
O1636 C1623 1.236 . S
N1637 Mn1621 2.282 . S
N1637 C1638 1.328 . S
N1637 C1642 1.318 . S
C1638 N1637 1.328 . S
C1638 C1639 1.457 . S
C1638 H1643 0.929 . S
C1639 C1638 1.457 . S
C1639 C1640 1.291 . S
C1639 H1652 0.931 . S
C1640 C1639 1.291 . S
C1640 C1641 1.373 . S
C1640 H1653 0.929 . S
C1641 C1640 1.373 . S
C1641 C1642 1.396 . S
C1641 C1648 1.403 . S
C1642 C1632 1.476 . S
C1642 N1637 1.318 . S
C1642 C1641 1.396 . S
H1643 C1638 0.929 . S
O1644 Mn1620 2.385 . S
O1644 C1622 1.234 . S
O1645 Mn1620 2.209 . S
O1645 Mn1621 2.215 . S
O1645 C1622 1.283 . S
O1646 Mn1620 2.094 . S
O1646 C1624 1.240 . S
O1647 Mn1621 2.117 . S
O1647 C1624 1.264 . S
C1648 C1641 1.403 . S
C1648 C1649 1.399 . S
C1648 H1654 0.929 . S
C1649 C1629 1.449 . S
C1649 C1648 1.399 . S
C1649 H1655 0.930 . S
H1650 C1630 0.931 . S
H1651 C1631 0.930 . S
H1652 C1639 0.931 . S
H1653 C1640 0.929 . S
H1654 C1648 0.929 . S
H1655 C1649 0.930 . S
Mn1656 O1661 2.095 . S
Mn1656 O1671 2.162 . S
Mn1656 O1672 2.297 . S
Mn1656 O1680 2.385 . S
Mn1656 O1681 2.209 . S
Mn1656 O1682 2.094 . S
Mn1657 O1662 2.121 . S
Mn1657 N1664 2.257 . S
Mn1657 N1673 2.282 . S
Mn1657 O1681 2.215 . S
Mn1657 O1683 2.117 . S
C1658 O1680 1.234 . S
C1658 O1681 1.283 . S
C1659 O1671 1.281 . S
C1659 O1672 1.236 . S
C1660 O1682 1.240 . S
C1660 O1683 1.264 . S
O1661 Mn1656 2.095 . S
O1661 C1670 1.250 . S
O1662 Mn1657 2.121 . S
O1662 C1670 1.258 . S
C1663 N1664 1.326 . S
C1663 C1667 1.460 . S
C1663 H1669 0.929 . S
N1664 Mn1657 2.257 . S
N1664 C1663 1.326 . S
N1664 C1668 1.362 . S
C1665 C1666 1.258 . S
C1665 C1668 1.431 . S
C1665 C1685 1.449 . S
C1666 C1665 1.258 . S
C1666 C1667 1.477 . S
C1666 H1686 0.931 . S
C1667 C1663 1.460 . S
C1667 C1666 1.477 . S
C1667 H1687 0.930 . S
C1668 N1664 1.362 . S
C1668 C1665 1.431 . S
C1668 C1678 1.476 . S
H1669 C1663 0.929 . S
C1670 O1661 1.250 . S
C1670 O1662 1.258 . S
O1671 Mn1656 2.162 . S
O1671 C1659 1.281 . S
O1672 Mn1656 2.297 . S
O1672 C1659 1.236 . S
N1673 Mn1657 2.282 . S
N1673 C1674 1.328 . S
N1673 C1678 1.318 . S
C1674 N1673 1.328 . S
C1674 C1675 1.457 . S
C1674 H1679 0.929 . S
C1675 C1674 1.457 . S
C1675 C1676 1.291 . S
C1675 H1688 0.931 . S
C1676 C1675 1.291 . S
C1676 C1677 1.373 . S
C1676 H1689 0.929 . S
C1677 C1676 1.373 . S
C1677 C1678 1.396 . S
C1677 C1684 1.403 . S
C1678 C1668 1.476 . S
C1678 N1673 1.318 . S
C1678 C1677 1.396 . S
H1679 C1674 0.929 . S
O1680 Mn1656 2.385 . S
O1680 C1658 1.234 . S
O1681 Mn1656 2.209 . S
O1681 Mn1657 2.215 . S
O1681 C1658 1.283 . S
O1682 Mn1656 2.094 . S
O1682 C1660 1.240 . S
O1683 Mn1657 2.117 . S
O1683 C1660 1.264 . S
C1684 C1677 1.403 . S
C1684 C1685 1.399 . S
C1684 H1690 0.929 . S
C1685 C1665 1.449 . S
C1685 C1684 1.399 . S
C1685 H1691 0.930 . S
H1686 C1666 0.931 . S
H1687 C1667 0.930 . S
H1688 C1675 0.931 . S
H1689 C1676 0.929 . S
H1690 C1684 0.929 . S
H1691 C1685 0.930 . S
Mn1692 O1697 2.095 . S
Mn1692 O1707 2.162 . S
Mn1692 O1708 2.297 . S
Mn1692 O1716 2.385 . S
Mn1692 O1717 2.209 . S
Mn1692 O1718 2.094 . S
Mn1693 O1698 2.121 . S
Mn1693 N1700 2.257 . S
Mn1693 N1709 2.282 . S
Mn1693 O1717 2.215 . S
Mn1693 O1719 2.117 . S
C1694 O1716 1.234 . S
C1694 O1717 1.283 . S
C1695 O1707 1.281 . S
C1695 O1708 1.236 . S
C1696 O1718 1.240 . S
C1696 O1719 1.264 . S
O1697 Mn1692 2.095 . S
O1697 C1706 1.250 . S
O1698 Mn1693 2.121 . S
O1698 C1706 1.258 . S
C1699 N1700 1.326 . S
C1699 C1703 1.460 . S
C1699 H1705 0.929 . S
N1700 Mn1693 2.257 . S
N1700 C1699 1.326 . S
N1700 C1704 1.362 . S
C1701 C1702 1.258 . S
C1701 C1704 1.431 . S
C1701 C1721 1.449 . S
C1702 C1701 1.258 . S
C1702 C1703 1.477 . S
C1702 H1722 0.931 . S
C1703 C1699 1.460 . S
C1703 C1702 1.477 . S
C1703 H1723 0.930 . S
C1704 N1700 1.362 . S
C1704 C1701 1.431 . S
C1704 C1714 1.476 . S
H1705 C1699 0.929 . S
C1706 O1697 1.250 . S
C1706 O1698 1.258 . S
O1707 Mn1692 2.162 . S
O1707 C1695 1.281 . S
O1708 Mn1692 2.297 . S
O1708 C1695 1.236 . S
N1709 Mn1693 2.282 . S
N1709 C1710 1.328 . S
N1709 C1714 1.318 . S
C1710 N1709 1.328 . S
C1710 C1711 1.457 . S
C1710 H1715 0.929 . S
C1711 C1710 1.457 . S
C1711 C1712 1.291 . S
C1711 H1724 0.931 . S
C1712 C1711 1.291 . S
C1712 C1713 1.373 . S
C1712 H1725 0.929 . S
C1713 C1712 1.373 . S
C1713 C1714 1.396 . S
C1713 C1720 1.403 . S
C1714 C1704 1.476 . S
C1714 N1709 1.318 . S
C1714 C1713 1.396 . S
H1715 C1710 0.929 . S
O1716 Mn1692 2.385 . S
O1716 C1694 1.234 . S
O1717 Mn1692 2.209 . S
O1717 Mn1693 2.215 . S
O1717 C1694 1.283 . S
O1718 Mn1692 2.094 . S
O1718 C1696 1.240 . S
O1719 Mn1693 2.117 . S
O1719 C1696 1.264 . S
C1720 C1713 1.403 . S
C1720 C1721 1.399 . S
C1720 H1726 0.929 . S
C1721 C1701 1.449 . S
C1721 C1720 1.399 . S
C1721 H1727 0.930 . S
H1722 C1702 0.931 . S
H1723 C1703 0.930 . S
H1724 C1711 0.931 . S
H1725 C1712 0.929 . S
H1726 C1720 0.929 . S
H1727 C1721 0.930 . S
H1728 C1736 0.950 . S
H1729 C1741 0.950 . S
H1730 C1738 0.950 . S
H1731 C1740 0.950 . S
H1732 C1742 0.950 . S
H1733 C1744 0.950 . S
H1734 C1746 0.950 . S
H1735 C1747 0.950 . S
C1736 H1728 0.950 . S
C1736 C1737 1.386 . S
C1736 C1738 1.391 . S
C1737 C1736 1.386 . S
C1737 C1741 1.393 . S
C1738 H1730 0.950 . S
C1738 C1736 1.391 . S
C1738 C1739 1.400 . S
C1739 C1738 1.400 . S
C1739 C1740 1.398 . S
C1739 C1745 1.491 . S
C1740 H1731 0.950 . S
C1740 C1739 1.398 . S
C1740 C1741 1.391 . S
C1741 H1729 0.950 . S
C1741 C1737 1.393 . S
C1741 C1740 1.391 . S
C1742 H1732 0.950 . S
C1742 C1743 1.386 . S
C1742 C1744 1.391 . S
C1743 C1742 1.386 . S
C1743 C1747 1.393 . S
C1744 H1733 0.950 . S
C1744 C1742 1.391 . S
C1744 C1745 1.400 . S
C1745 C1739 1.491 . S
C1745 C1744 1.400 . S
C1745 C1746 1.398 . S
C1746 H1734 0.950 . S
C1746 C1745 1.398 . S
C1746 C1747 1.391 . S
C1747 H1735 0.950 . S
C1747 C1743 1.393 . S
C1747 C1746 1.391 . S
H1748 C1756 0.950 . S
H1749 C1761 0.950 . S
H1750 C1758 0.950 . S
H1751 C1760 0.950 . S
H1752 C1762 0.950 . S
H1753 C1764 0.950 . S
H1754 C1766 0.950 . S
H1755 C1767 0.950 . S
C1756 H1748 0.950 . S
C1756 C1757 1.386 . S
C1756 C1758 1.391 . S
C1757 C1756 1.386 . S
C1757 C1761 1.393 . S
C1758 H1750 0.950 . S
C1758 C1756 1.391 . S
C1758 C1759 1.400 . S
C1759 C1758 1.400 . S
C1759 C1760 1.398 . S
C1759 C1765 1.491 . S
C1760 H1751 0.950 . S
C1760 C1759 1.398 . S
C1760 C1761 1.391 . S
C1761 H1749 0.950 . S
C1761 C1757 1.393 . S
C1761 C1760 1.391 . S
C1762 H1752 0.950 . S
C1762 C1763 1.386 . S
C1762 C1764 1.391 . S
C1763 C1762 1.386 . S
C1763 C1767 1.393 . S
C1764 H1753 0.950 . S
C1764 C1762 1.391 . S
C1764 C1765 1.400 . S
C1765 C1759 1.491 . S
C1765 C1764 1.400 . S
C1765 C1766 1.398 . S
C1766 H1754 0.950 . S
C1766 C1765 1.398 . S
C1766 C1767 1.391 . S
C1767 H1755 0.950 . S
C1767 C1763 1.393 . S
C1767 C1766 1.391 . S
H1768 C1776 0.950 . S
H1769 C1781 0.950 . S
H1770 C1778 0.950 . S
H1771 C1780 0.950 . S
H1772 C1782 0.950 . S
H1773 C1784 0.950 . S
H1774 C1786 0.950 . S
H1775 C1787 0.950 . S
C1776 H1768 0.950 . S
C1776 C1777 1.386 . S
C1776 C1778 1.391 . S
C1777 C1776 1.386 . S
C1777 C1781 1.393 . S
C1778 H1770 0.950 . S
C1778 C1776 1.391 . S
C1778 C1779 1.400 . S
C1779 C1778 1.400 . S
C1779 C1780 1.398 . S
C1779 C1785 1.491 . S
C1780 H1771 0.950 . S
C1780 C1779 1.398 . S
C1780 C1781 1.391 . S
C1781 H1769 0.950 . S
C1781 C1777 1.393 . S
C1781 C1780 1.391 . S
C1782 H1772 0.950 . S
C1782 C1783 1.386 . S
C1782 C1784 1.391 . S
C1783 C1782 1.386 . S
C1783 C1787 1.393 . S
C1784 H1773 0.950 . S
C1784 C1782 1.391 . S
C1784 C1785 1.400 . S
C1785 C1779 1.491 . S
C1785 C1784 1.400 . S
C1785 C1786 1.398 . S
C1786 H1774 0.950 . S
C1786 C1785 1.398 . S
C1786 C1787 1.391 . S
C1787 H1775 0.950 . S
C1787 C1783 1.393 . S
C1787 C1786 1.391 . S
H1788 C1796 0.950 . S
H1789 C1801 0.950 . S
H1790 C1798 0.950 . S
H1791 C1800 0.950 . S
H1792 C1802 0.950 . S
H1793 C1804 0.950 . S
H1794 C1806 0.950 . S
H1795 C1807 0.950 . S
C1796 H1788 0.950 . S
C1796 C1797 1.386 . S
C1796 C1798 1.391 . S
C1797 C1796 1.386 . S
C1797 C1801 1.393 . S
C1798 H1790 0.950 . S
C1798 C1796 1.391 . S
C1798 C1799 1.400 . S
C1799 C1798 1.400 . S
C1799 C1800 1.398 . S
C1799 C1805 1.491 . S
C1800 H1791 0.950 . S
C1800 C1799 1.398 . S
C1800 C1801 1.391 . S
C1801 H1789 0.950 . S
C1801 C1797 1.393 . S
C1801 C1800 1.391 . S
C1802 H1792 0.950 . S
C1802 C1803 1.386 . S
C1802 C1804 1.391 . S
C1803 C1802 1.386 . S
C1803 C1807 1.393 . S
C1804 H1793 0.950 . S
C1804 C1802 1.391 . S
C1804 C1805 1.400 . S
C1805 C1799 1.491 . S
C1805 C1804 1.400 . S
C1805 C1806 1.398 . S
C1806 H1794 0.950 . S
C1806 C1805 1.398 . S
C1806 C1807 1.391 . S
C1807 H1795 0.950 . S
C1807 C1803 1.393 . S
C1807 C1806 1.391 . S
H1808 C1816 0.950 . S
H1809 C1821 0.950 . S
H1810 C1818 0.950 . S
H1811 C1820 0.950 . S
H1812 C1822 0.950 . S
H1813 C1824 0.950 . S
H1814 C1826 0.950 . S
H1815 C1827 0.950 . S
C1816 H1808 0.950 . S
C1816 C1817 1.386 . S
C1816 C1818 1.391 . S
C1817 C1816 1.386 . S
C1817 C1821 1.393 . S
C1818 H1810 0.950 . S
C1818 C1816 1.391 . S
C1818 C1819 1.400 . S
C1819 C1818 1.400 . S
C1819 C1820 1.398 . S
C1819 C1825 1.491 . S
C1820 H1811 0.950 . S
C1820 C1819 1.398 . S
C1820 C1821 1.391 . S
C1821 H1809 0.950 . S
C1821 C1817 1.393 . S
C1821 C1820 1.391 . S
C1822 H1812 0.950 . S
C1822 C1823 1.386 . S
C1822 C1824 1.391 . S
C1823 C1822 1.386 . S
C1823 C1827 1.393 . S
C1824 H1813 0.950 . S
C1824 C1822 1.391 . S
C1824 C1825 1.400 . S
C1825 C1819 1.491 . S
C1825 C1824 1.400 . S
C1825 C1826 1.398 . S
C1826 H1814 0.950 . S
C1826 C1825 1.398 . S
C1826 C1827 1.391 . S
C1827 H1815 0.950 . S
C1827 C1823 1.393 . S
C1827 C1826 1.391 . S
H1828 C1836 0.950 . S
H1829 C1841 0.950 . S
H1830 C1838 0.950 . S
H1831 C1840 0.950 . S
H1832 C1842 0.950 . S
H1833 C1844 0.950 . S
H1834 C1846 0.950 . S
H1835 C1847 0.950 . S
C1836 H1828 0.950 . S
C1836 C1837 1.386 . S
C1836 C1838 1.391 . S
C1837 C1836 1.386 . S
C1837 C1841 1.393 . S
C1838 H1830 0.950 . S
C1838 C1836 1.391 . S
C1838 C1839 1.400 . S
C1839 C1838 1.400 . S
C1839 C1840 1.398 . S
C1839 C1845 1.491 . S
C1840 H1831 0.950 . S
C1840 C1839 1.398 . S
C1840 C1841 1.391 . S
C1841 H1829 0.950 . S
C1841 C1837 1.393 . S
C1841 C1840 1.391 . S
C1842 H1832 0.950 . S
C1842 C1843 1.386 . S
C1842 C1844 1.391 . S
C1843 C1842 1.386 . S
C1843 C1847 1.393 . S
C1844 H1833 0.950 . S
C1844 C1842 1.391 . S
C1844 C1845 1.400 . S
C1845 C1839 1.491 . S
C1845 C1844 1.400 . S
C1845 C1846 1.398 . S
C1846 H1834 0.950 . S
C1846 C1845 1.398 . S
C1846 C1847 1.391 . S
C1847 H1835 0.950 . S
C1847 C1843 1.393 . S
C1847 C1846 1.391 . S
H1848 C1856 0.950 . S
H1849 C1861 0.950 . S
H1850 C1858 0.950 . S
H1851 C1860 0.950 . S
H1852 C1862 0.950 . S
H1853 C1864 0.950 . S
H1854 C1866 0.950 . S
H1855 C1867 0.950 . S
C1856 H1848 0.950 . S
C1856 C1857 1.386 . S
C1856 C1858 1.391 . S
C1857 C1856 1.386 . S
C1857 C1861 1.393 . S
C1858 H1850 0.950 . S
C1858 C1856 1.391 . S
C1858 C1859 1.400 . S
C1859 C1858 1.400 . S
C1859 C1860 1.398 . S
C1859 C1865 1.491 . S
C1860 H1851 0.950 . S
C1860 C1859 1.398 . S
C1860 C1861 1.391 . S
C1861 H1849 0.950 . S
C1861 C1857 1.393 . S
C1861 C1860 1.391 . S
C1862 H1852 0.950 . S
C1862 C1863 1.386 . S
C1862 C1864 1.391 . S
C1863 C1862 1.386 . S
C1863 C1867 1.393 . S
C1864 H1853 0.950 . S
C1864 C1862 1.391 . S
C1864 C1865 1.400 . S
C1865 C1859 1.491 . S
C1865 C1864 1.400 . S
C1865 C1866 1.398 . S
C1866 H1854 0.950 . S
C1866 C1865 1.398 . S
C1866 C1867 1.391 . S
C1867 H1855 0.950 . S
C1867 C1863 1.393 . S
C1867 C1866 1.391 . S
H1868 C1876 0.950 . S
H1869 C1881 0.950 . S
H1870 C1878 0.950 . S
H1871 C1880 0.950 . S
H1872 C1882 0.950 . S
H1873 C1884 0.950 . S
H1874 C1886 0.950 . S
H1875 C1887 0.950 . S
C1876 H1868 0.950 . S
C1876 C1877 1.386 . S
C1876 C1878 1.391 . S
C1877 C1876 1.386 . S
C1877 C1881 1.393 . S
C1878 H1870 0.950 . S
C1878 C1876 1.391 . S
C1878 C1879 1.400 . S
C1879 C1878 1.400 . S
C1879 C1880 1.398 . S
C1879 C1885 1.491 . S
C1880 H1871 0.950 . S
C1880 C1879 1.398 . S
C1880 C1881 1.391 . S
C1881 H1869 0.950 . S
C1881 C1877 1.393 . S
C1881 C1880 1.391 . S
C1882 H1872 0.950 . S
C1882 C1883 1.386 . S
C1882 C1884 1.391 . S
C1883 C1882 1.386 . S
C1883 C1887 1.393 . S
C1884 H1873 0.950 . S
C1884 C1882 1.391 . S
C1884 C1885 1.400 . S
C1885 C1879 1.491 . S
C1885 C1884 1.400 . S
C1885 C1886 1.398 . S
C1886 H1874 0.950 . S
C1886 C1885 1.398 . S
C1886 C1887 1.391 . S
C1887 H1875 0.950 . S
C1887 C1883 1.393 . S
C1887 C1886 1.391 . S
H1888 C1896 0.950 . S
H1889 C1901 0.950 . S
H1890 C1898 0.950 . S
H1891 C1900 0.950 . S
H1892 C1902 0.950 . S
H1893 C1904 0.950 . S
H1894 C1906 0.950 . S
H1895 C1907 0.950 . S
C1896 H1888 0.950 . S
C1896 C1897 1.386 . S
C1896 C1898 1.391 . S
C1897 C1896 1.386 . S
C1897 C1901 1.393 . S
C1898 H1890 0.950 . S
C1898 C1896 1.391 . S
C1898 C1899 1.400 . S
C1899 C1898 1.400 . S
C1899 C1900 1.398 . S
C1899 C1905 1.491 . S
C1900 H1891 0.950 . S
C1900 C1899 1.398 . S
C1900 C1901 1.391 . S
C1901 H1889 0.950 . S
C1901 C1897 1.393 . S
C1901 C1900 1.391 . S
C1902 H1892 0.950 . S
C1902 C1903 1.386 . S
C1902 C1904 1.391 . S
C1903 C1902 1.386 . S
C1903 C1907 1.393 . S
C1904 H1893 0.950 . S
C1904 C1902 1.391 . S
C1904 C1905 1.400 . S
C1905 C1899 1.491 . S
C1905 C1904 1.400 . S
C1905 C1906 1.398 . S
C1906 H1894 0.950 . S
C1906 C1905 1.398 . S
C1906 C1907 1.391 . S
C1907 H1895 0.950 . S
C1907 C1903 1.393 . S
C1907 C1906 1.391 . S
H1908 C1916 0.950 . S
H1909 C1921 0.950 . S
H1910 C1918 0.950 . S
H1911 C1920 0.950 . S
H1912 C1922 0.950 . S
H1913 C1924 0.950 . S
H1914 C1926 0.950 . S
H1915 C1927 0.950 . S
C1916 H1908 0.950 . S
C1916 C1917 1.386 . S
C1916 C1918 1.391 . S
C1917 C1916 1.386 . S
C1917 C1921 1.393 . S
C1918 H1910 0.950 . S
C1918 C1916 1.391 . S
C1918 C1919 1.400 . S
C1919 C1918 1.400 . S
C1919 C1920 1.398 . S
C1919 C1925 1.491 . S
C1920 H1911 0.950 . S
C1920 C1919 1.398 . S
C1920 C1921 1.391 . S
C1921 H1909 0.950 . S
C1921 C1917 1.393 . S
C1921 C1920 1.391 . S
C1922 H1912 0.950 . S
C1922 C1923 1.386 . S
C1922 C1924 1.391 . S
C1923 C1922 1.386 . S
C1923 C1927 1.393 . S
C1924 H1913 0.950 . S
C1924 C1922 1.391 . S
C1924 C1925 1.400 . S
C1925 C1919 1.491 . S
C1925 C1924 1.400 . S
C1925 C1926 1.398 . S
C1926 H1914 0.950 . S
C1926 C1925 1.398 . S
C1926 C1927 1.391 . S
C1927 H1915 0.950 . S
C1927 C1923 1.393 . S
C1927 C1926 1.391 . S
H1928 C1936 0.950 . S
H1929 C1941 0.950 . S
H1930 C1938 0.950 . S
H1931 C1940 0.950 . S
H1932 C1942 0.950 . S
H1933 C1944 0.950 . S
H1934 C1946 0.950 . S
H1935 C1947 0.950 . S
C1936 H1928 0.950 . S
C1936 C1937 1.386 . S
C1936 C1938 1.391 . S
C1937 C1936 1.386 . S
C1937 C1941 1.393 . S
C1938 H1930 0.950 . S
C1938 C1936 1.391 . S
C1938 C1939 1.400 . S
C1939 C1938 1.400 . S
C1939 C1940 1.398 . S
C1939 C1945 1.491 . S
C1940 H1931 0.950 . S
C1940 C1939 1.398 . S
C1940 C1941 1.391 . S
C1941 H1929 0.950 . S
C1941 C1937 1.393 . S
C1941 C1940 1.391 . S
C1942 H1932 0.950 . S
C1942 C1943 1.386 . S
C1942 C1944 1.391 . S
C1943 C1942 1.386 . S
C1943 C1947 1.393 . S
C1944 H1933 0.950 . S
C1944 C1942 1.391 . S
C1944 C1945 1.400 . S
C1945 C1939 1.491 . S
C1945 C1944 1.400 . S
C1945 C1946 1.398 . S
C1946 H1934 0.950 . S
C1946 C1945 1.398 . S
C1946 C1947 1.391 . S
C1947 H1935 0.950 . S
C1947 C1943 1.393 . S
C1947 C1946 1.391 . S
H1948 C1956 0.950 . S
H1949 C1961 0.950 . S
H1950 C1958 0.950 . S
H1951 C1960 0.950 . S
H1952 C1962 0.950 . S
H1953 C1964 0.950 . S
H1954 C1966 0.950 . S
H1955 C1967 0.950 . S
C1956 H1948 0.950 . S
C1956 C1957 1.386 . S
C1956 C1958 1.391 . S
C1957 C1956 1.386 . S
C1957 C1961 1.393 . S
C1958 H1950 0.950 . S
C1958 C1956 1.391 . S
C1958 C1959 1.400 . S
C1959 C1958 1.400 . S
C1959 C1960 1.398 . S
C1959 C1965 1.491 . S
C1960 H1951 0.950 . S
C1960 C1959 1.398 . S
C1960 C1961 1.391 . S
C1961 H1949 0.950 . S
C1961 C1957 1.393 . S
C1961 C1960 1.391 . S
C1962 H1952 0.950 . S
C1962 C1963 1.386 . S
C1962 C1964 1.391 . S
C1963 C1962 1.386 . S
C1963 C1967 1.393 . S
C1964 H1953 0.950 . S
C1964 C1962 1.391 . S
C1964 C1965 1.400 . S
C1965 C1959 1.491 . S
C1965 C1964 1.400 . S
C1965 C1966 1.398 . S
C1966 H1954 0.950 . S
C1966 C1965 1.398 . S
C1966 C1967 1.391 . S
C1967 H1955 0.950 . S
C1967 C1963 1.393 . S
C1967 C1966 1.391 . S
H1968 C1976 0.950 . S
H1969 C1981 0.950 . S
H1970 C1978 0.950 . S
H1971 C1980 0.950 . S
H1972 C1982 0.950 . S
H1973 C1984 0.950 . S
H1974 C1986 0.950 . S
H1975 C1987 0.950 . S
C1976 H1968 0.950 . S
C1976 C1977 1.386 . S
C1976 C1978 1.391 . S
C1977 C1976 1.386 . S
C1977 C1981 1.393 . S
C1978 H1970 0.950 . S
C1978 C1976 1.391 . S
C1978 C1979 1.400 . S
C1979 C1978 1.400 . S
C1979 C1980 1.398 . S
C1979 C1985 1.491 . S
C1980 H1971 0.950 . S
C1980 C1979 1.398 . S
C1980 C1981 1.391 . S
C1981 H1969 0.950 . S
C1981 C1977 1.393 . S
C1981 C1980 1.391 . S
C1982 H1972 0.950 . S
C1982 C1983 1.386 . S
C1982 C1984 1.391 . S
C1983 C1982 1.386 . S
C1983 C1987 1.393 . S
C1984 H1973 0.950 . S
C1984 C1982 1.391 . S
C1984 C1985 1.400 . S
C1985 C1979 1.491 . S
C1985 C1984 1.400 . S
C1985 C1986 1.398 . S
C1986 H1974 0.950 . S
C1986 C1985 1.398 . S
C1986 C1987 1.391 . S
C1987 H1975 0.950 . S
C1987 C1983 1.393 . S
C1987 C1986 1.391 . S
H1988 C1996 0.950 . S
H1989 C2001 0.950 . S
H1990 C1998 0.950 . S
H1991 C2000 0.950 . S
H1992 C2002 0.950 . S
H1993 C2004 0.950 . S
H1994 C2006 0.950 . S
H1995 C2007 0.950 . S
C1996 H1988 0.950 . S
C1996 C1997 1.386 . S
C1996 C1998 1.391 . S
C1997 C1996 1.386 . S
C1997 C2001 1.393 . S
C1998 H1990 0.950 . S
C1998 C1996 1.391 . S
C1998 C1999 1.400 . S
C1999 C1998 1.400 . S
C1999 C2000 1.398 . S
C1999 C2005 1.491 . S
C2000 H1991 0.950 . S
C2000 C1999 1.398 . S
C2000 C2001 1.391 . S
C2001 H1989 0.950 . S
C2001 C1997 1.393 . S
C2001 C2000 1.391 . S
C2002 H1992 0.950 . S
C2002 C2003 1.386 . S
C2002 C2004 1.391 . S
C2003 C2002 1.386 . S
C2003 C2007 1.393 . S
C2004 H1993 0.950 . S
C2004 C2002 1.391 . S
C2004 C2005 1.400 . S
C2005 C1999 1.491 . S
C2005 C2004 1.400 . S
C2005 C2006 1.398 . S
C2006 H1994 0.950 . S
C2006 C2005 1.398 . S
C2006 C2007 1.391 . S
C2007 H1995 0.950 . S
C2007 C2003 1.393 . S
C2007 C2006 1.391 . S
H2008 C2016 0.950 . S
H2009 C2021 0.950 . S
H2010 C2018 0.950 . S
H2011 C2020 0.950 . S
H2012 C2022 0.950 . S
H2013 C2024 0.950 . S
H2014 C2026 0.950 . S
H2015 C2027 0.950 . S
C2016 H2008 0.950 . S
C2016 C2017 1.386 . S
C2016 C2018 1.391 . S
C2017 C2016 1.386 . S
C2017 C2021 1.393 . S
C2018 H2010 0.950 . S
C2018 C2016 1.391 . S
C2018 C2019 1.400 . S
C2019 C2018 1.400 . S
C2019 C2020 1.398 . S
C2019 C2025 1.491 . S
C2020 H2011 0.950 . S
C2020 C2019 1.398 . S
C2020 C2021 1.391 . S
C2021 H2009 0.950 . S
C2021 C2017 1.393 . S
C2021 C2020 1.391 . S
C2022 H2012 0.950 . S
C2022 C2023 1.386 . S
C2022 C2024 1.391 . S
C2023 C2022 1.386 . S
C2023 C2027 1.393 . S
C2024 H2013 0.950 . S
C2024 C2022 1.391 . S
C2024 C2025 1.400 . S
C2025 C2019 1.491 . S
C2025 C2024 1.400 . S
C2025 C2026 1.398 . S
C2026 H2014 0.950 . S
C2026 C2025 1.398 . S
C2026 C2027 1.391 . S
C2027 H2015 0.950 . S
C2027 C2023 1.393 . S
C2027 C2026 1.391 . S
H2028 C2036 0.950 . S
H2029 C2041 0.950 . S
H2030 C2038 0.950 . S
H2031 C2040 0.950 . S
H2032 C2042 0.950 . S
H2033 C2044 0.950 . S
H2034 C2046 0.950 . S
H2035 C2047 0.950 . S
C2036 H2028 0.950 . S
C2036 C2037 1.386 . S
C2036 C2038 1.391 . S
C2037 C2036 1.386 . S
C2037 C2041 1.393 . S
C2038 H2030 0.950 . S
C2038 C2036 1.391 . S
C2038 C2039 1.400 . S
C2039 C2038 1.400 . S
C2039 C2040 1.398 . S
C2039 C2045 1.491 . S
C2040 H2031 0.950 . S
C2040 C2039 1.398 . S
C2040 C2041 1.391 . S
C2041 H2029 0.950 . S
C2041 C2037 1.393 . S
C2041 C2040 1.391 . S
C2042 H2032 0.950 . S
C2042 C2043 1.386 . S
C2042 C2044 1.391 . S
C2043 C2042 1.386 . S
C2043 C2047 1.393 . S
C2044 H2033 0.950 . S
C2044 C2042 1.391 . S
C2044 C2045 1.400 . S
C2045 C2039 1.491 . S
C2045 C2044 1.400 . S
C2045 C2046 1.398 . S
C2046 H2034 0.950 . S
C2046 C2045 1.398 . S
C2046 C2047 1.391 . S
C2047 H2035 0.950 . S
C2047 C2043 1.393 . S
C2047 C2046 1.391 . S
H2048 C2056 0.950 . S
H2049 C2061 0.950 . S
H2050 C2058 0.950 . S
H2051 C2060 0.950 . S
H2052 C2062 0.950 . S
H2053 C2064 0.950 . S
H2054 C2066 0.950 . S
H2055 C2067 0.950 . S
C2056 H2048 0.950 . S
C2056 C2057 1.386 . S
C2056 C2058 1.391 . S
C2057 C2056 1.386 . S
C2057 C2061 1.393 . S
C2058 H2050 0.950 . S
C2058 C2056 1.391 . S
C2058 C2059 1.400 . S
C2059 C2058 1.400 . S
C2059 C2060 1.398 . S
C2059 C2065 1.491 . S
C2060 H2051 0.950 . S
C2060 C2059 1.398 . S
C2060 C2061 1.391 . S
C2061 H2049 0.950 . S
C2061 C2057 1.393 . S
C2061 C2060 1.391 . S
C2062 H2052 0.950 . S
C2062 C2063 1.386 . S
C2062 C2064 1.391 . S
C2063 C2062 1.386 . S
C2063 C2067 1.393 . S
C2064 H2053 0.950 . S
C2064 C2062 1.391 . S
C2064 C2065 1.400 . S
C2065 C2059 1.491 . S
C2065 C2064 1.400 . S
C2065 C2066 1.398 . S
C2066 H2054 0.950 . S
C2066 C2065 1.398 . S
C2066 C2067 1.391 . S
C2067 H2055 0.950 . S
C2067 C2063 1.393 . S
C2067 C2066 1.391 . S
H2068 C2076 0.950 . S
H2069 C2081 0.950 . S
H2070 C2078 0.950 . S
H2071 C2080 0.950 . S
H2072 C2082 0.950 . S
H2073 C2084 0.950 . S
H2074 C2086 0.950 . S
H2075 C2087 0.950 . S
C2076 H2068 0.950 . S
C2076 C2077 1.386 . S
C2076 C2078 1.391 . S
C2077 C2076 1.386 . S
C2077 C2081 1.393 . S
C2078 H2070 0.950 . S
C2078 C2076 1.391 . S
C2078 C2079 1.400 . S
C2079 C2078 1.400 . S
C2079 C2080 1.398 . S
C2079 C2085 1.491 . S
C2080 H2071 0.950 . S
C2080 C2079 1.398 . S
C2080 C2081 1.391 . S
C2081 H2069 0.950 . S
C2081 C2077 1.393 . S
C2081 C2080 1.391 . S
C2082 H2072 0.950 . S
C2082 C2083 1.386 . S
C2082 C2084 1.391 . S
C2083 C2082 1.386 . S
C2083 C2087 1.393 . S
C2084 H2073 0.950 . S
C2084 C2082 1.391 . S
C2084 C2085 1.400 . S
C2085 C2079 1.491 . S
C2085 C2084 1.400 . S
C2085 C2086 1.398 . S
C2086 H2074 0.950 . S
C2086 C2085 1.398 . S
C2086 C2087 1.391 . S
C2087 H2075 0.950 . S
C2087 C2083 1.393 . S
C2087 C2086 1.391 . S
H2088 C2096 0.950 . S
H2089 C2101 0.950 . S
H2090 C2098 0.950 . S
H2091 C2100 0.950 . S
H2092 C2102 0.950 . S
H2093 C2104 0.950 . S
H2094 C2106 0.950 . S
H2095 C2107 0.950 . S
C2096 H2088 0.950 . S
C2096 C2097 1.386 . S
C2096 C2098 1.391 . S
C2097 C2096 1.386 . S
C2097 C2101 1.393 . S
C2098 H2090 0.950 . S
C2098 C2096 1.391 . S
C2098 C2099 1.400 . S
C2099 C2098 1.400 . S
C2099 C2100 1.398 . S
C2099 C2105 1.491 . S
C2100 H2091 0.950 . S
C2100 C2099 1.398 . S
C2100 C2101 1.391 . S
C2101 H2089 0.950 . S
C2101 C2097 1.393 . S
C2101 C2100 1.391 . S
C2102 H2092 0.950 . S
C2102 C2103 1.386 . S
C2102 C2104 1.391 . S
C2103 C2102 1.386 . S
C2103 C2107 1.393 . S
C2104 H2093 0.950 . S
C2104 C2102 1.391 . S
C2104 C2105 1.400 . S
C2105 C2099 1.491 . S
C2105 C2104 1.400 . S
C2105 C2106 1.398 . S
C2106 H2094 0.950 . S
C2106 C2105 1.398 . S
C2106 C2107 1.391 . S
C2107 H2095 0.950 . S
C2107 C2103 1.393 . S
C2107 C2106 1.391 . S
H2108 C2116 0.950 . S
H2109 C2121 0.950 . S
H2110 C2118 0.950 . S
H2111 C2120 0.950 . S
H2112 C2122 0.950 . S
H2113 C2124 0.950 . S
H2114 C2126 0.950 . S
H2115 C2127 0.950 . S
C2116 H2108 0.950 . S
C2116 C2117 1.386 . S
C2116 C2118 1.391 . S
C2117 C2116 1.386 . S
C2117 C2121 1.393 . S
C2118 H2110 0.950 . S
C2118 C2116 1.391 . S
C2118 C2119 1.400 . S
C2119 C2118 1.400 . S
C2119 C2120 1.398 . S
C2119 C2125 1.491 . S
C2120 H2111 0.950 . S
C2120 C2119 1.398 . S
C2120 C2121 1.391 . S
C2121 H2109 0.950 . S
C2121 C2117 1.393 . S
C2121 C2120 1.391 . S
C2122 H2112 0.950 . S
C2122 C2123 1.386 . S
C2122 C2124 1.391 . S
C2123 C2122 1.386 . S
C2123 C2127 1.393 . S
C2124 H2113 0.950 . S
C2124 C2122 1.391 . S
C2124 C2125 1.400 . S
C2125 C2119 1.491 . S
C2125 C2124 1.400 . S
C2125 C2126 1.398 . S
C2126 H2114 0.950 . S
C2126 C2125 1.398 . S
C2126 C2127 1.391 . S
C2127 H2115 0.950 . S
C2127 C2123 1.393 . S
C2127 C2126 1.391 . S
H2128 C2136 0.950 . S
H2129 C2141 0.950 . S
H2130 C2138 0.950 . S
H2131 C2140 0.950 . S
H2132 C2142 0.950 . S
H2133 C2144 0.950 . S
H2134 C2146 0.950 . S
H2135 C2147 0.950 . S
C2136 H2128 0.950 . S
C2136 C2137 1.386 . S
C2136 C2138 1.391 . S
C2137 C2136 1.386 . S
C2137 C2141 1.393 . S
C2138 H2130 0.950 . S
C2138 C2136 1.391 . S
C2138 C2139 1.400 . S
C2139 C2138 1.400 . S
C2139 C2140 1.398 . S
C2139 C2145 1.491 . S
C2140 H2131 0.950 . S
C2140 C2139 1.398 . S
C2140 C2141 1.391 . S
C2141 H2129 0.950 . S
C2141 C2137 1.393 . S
C2141 C2140 1.391 . S
C2142 H2132 0.950 . S
C2142 C2143 1.386 . S
C2142 C2144 1.391 . S
C2143 C2142 1.386 . S
C2143 C2147 1.393 . S
C2144 H2133 0.950 . S
C2144 C2142 1.391 . S
C2144 C2145 1.400 . S
C2145 C2139 1.491 . S
C2145 C2144 1.400 . S
C2145 C2146 1.398 . S
C2146 H2134 0.950 . S
C2146 C2145 1.398 . S
C2146 C2147 1.391 . S
C2147 H2135 0.950 . S
C2147 C2143 1.393 . S
C2147 C2146 1.391 . S
H2148 C2156 0.950 . S
H2149 C2161 0.950 . S
H2150 C2158 0.950 . S
H2151 C2160 0.950 . S
H2152 C2162 0.950 . S
H2153 C2164 0.950 . S
H2154 C2166 0.950 . S
H2155 C2167 0.950 . S
C2156 H2148 0.950 . S
C2156 C2157 1.386 . S
C2156 C2158 1.391 . S
C2157 C2156 1.386 . S
C2157 C2161 1.393 . S
C2158 H2150 0.950 . S
C2158 C2156 1.391 . S
C2158 C2159 1.400 . S
C2159 C2158 1.400 . S
C2159 C2160 1.398 . S
C2159 C2165 1.491 . S
C2160 H2151 0.950 . S
C2160 C2159 1.398 . S
C2160 C2161 1.391 . S
C2161 H2149 0.950 . S
C2161 C2157 1.393 . S
C2161 C2160 1.391 . S
C2162 H2152 0.950 . S
C2162 C2163 1.386 . S
C2162 C2164 1.391 . S
C2163 C2162 1.386 . S
C2163 C2167 1.393 . S
C2164 H2153 0.950 . S
C2164 C2162 1.391 . S
C2164 C2165 1.400 . S
C2165 C2159 1.491 . S
C2165 C2164 1.400 . S
C2165 C2166 1.398 . S
C2166 H2154 0.950 . S
C2166 C2165 1.398 . S
C2166 C2167 1.391 . S
C2167 H2155 0.950 . S
C2167 C2163 1.393 . S
C2167 C2166 1.391 . S
H2168 C2176 0.950 . S
H2169 C2181 0.950 . S
H2170 C2178 0.950 . S
H2171 C2180 0.950 . S
H2172 C2182 0.950 . S
H2173 C2184 0.950 . S
H2174 C2186 0.950 . S
H2175 C2187 0.950 . S
C2176 H2168 0.950 . S
C2176 C2177 1.386 . S
C2176 C2178 1.391 . S
C2177 C2176 1.386 . S
C2177 C2181 1.393 . S
C2178 H2170 0.950 . S
C2178 C2176 1.391 . S
C2178 C2179 1.400 . S
C2179 C2178 1.400 . S
C2179 C2180 1.398 . S
C2179 C2185 1.491 . S
C2180 H2171 0.950 . S
C2180 C2179 1.398 . S
C2180 C2181 1.391 . S
C2181 H2169 0.950 . S
C2181 C2177 1.393 . S
C2181 C2180 1.391 . S
C2182 H2172 0.950 . S
C2182 C2183 1.386 . S
C2182 C2184 1.391 . S
C2183 C2182 1.386 . S
C2183 C2187 1.393 . S
C2184 H2173 0.950 . S
C2184 C2182 1.391 . S
C2184 C2185 1.400 . S
C2185 C2179 1.491 . S
C2185 C2184 1.400 . S
C2185 C2186 1.398 . S
C2186 H2174 0.950 . S
C2186 C2185 1.398 . S
C2186 C2187 1.391 . S
C2187 H2175 0.950 . S
C2187 C2183 1.393 . S
C2187 C2186 1.391 . S
H2188 C2196 0.950 . S
H2189 C2201 0.950 . S
H2190 C2198 0.950 . S
H2191 C2200 0.950 . S
H2192 C2202 0.950 . S
H2193 C2204 0.950 . S
H2194 C2206 0.950 . S
H2195 C2207 0.950 . S
C2196 H2188 0.950 . S
C2196 C2197 1.386 . S
C2196 C2198 1.391 . S
C2197 C2196 1.386 . S
C2197 C2201 1.393 . S
C2198 H2190 0.950 . S
C2198 C2196 1.391 . S
C2198 C2199 1.400 . S
C2199 C2198 1.400 . S
C2199 C2200 1.398 . S
C2199 C2205 1.491 . S
C2200 H2191 0.950 . S
C2200 C2199 1.398 . S
C2200 C2201 1.391 . S
C2201 H2189 0.950 . S
C2201 C2197 1.393 . S
C2201 C2200 1.391 . S
C2202 H2192 0.950 . S
C2202 C2203 1.386 . S
C2202 C2204 1.391 . S
C2203 C2202 1.386 . S
C2203 C2207 1.393 . S
C2204 H2193 0.950 . S
C2204 C2202 1.391 . S
C2204 C2205 1.400 . S
C2205 C2199 1.491 . S
C2205 C2204 1.400 . S
C2205 C2206 1.398 . S
C2206 H2194 0.950 . S
C2206 C2205 1.398 . S
C2206 C2207 1.391 . S
C2207 H2195 0.950 . S
C2207 C2203 1.393 . S
C2207 C2206 1.391 . S
H2208 C2216 0.950 . S
H2209 C2221 0.950 . S
H2210 C2218 0.950 . S
H2211 C2220 0.950 . S
H2212 C2222 0.950 . S
H2213 C2224 0.950 . S
H2214 C2226 0.950 . S
H2215 C2227 0.950 . S
C2216 H2208 0.950 . S
C2216 C2217 1.386 . S
C2216 C2218 1.391 . S
C2217 C2216 1.386 . S
C2217 C2221 1.393 . S
C2218 H2210 0.950 . S
C2218 C2216 1.391 . S
C2218 C2219 1.400 . S
C2219 C2218 1.400 . S
C2219 C2220 1.398 . S
C2219 C2225 1.491 . S
C2220 H2211 0.950 . S
C2220 C2219 1.398 . S
C2220 C2221 1.391 . S
C2221 H2209 0.950 . S
C2221 C2217 1.393 . S
C2221 C2220 1.391 . S
C2222 H2212 0.950 . S
C2222 C2223 1.386 . S
C2222 C2224 1.391 . S
C2223 C2222 1.386 . S
C2223 C2227 1.393 . S
C2224 H2213 0.950 . S
C2224 C2222 1.391 . S
C2224 C2225 1.400 . S
C2225 C2219 1.491 . S
C2225 C2224 1.400 . S
C2225 C2226 1.398 . S
C2226 H2214 0.950 . S
C2226 C2225 1.398 . S
C2226 C2227 1.391 . S
C2227 H2215 0.950 . S
C2227 C2223 1.393 . S
C2227 C2226 1.391 . S
H2228 C2236 0.950 . S
H2229 C2241 0.950 . S
H2230 C2238 0.950 . S
H2231 C2240 0.950 . S
H2232 C2242 0.950 . S
H2233 C2244 0.950 . S
H2234 C2246 0.950 . S
H2235 C2247 0.950 . S
C2236 H2228 0.950 . S
C2236 C2237 1.386 . S
C2236 C2238 1.391 . S
C2237 C2236 1.386 . S
C2237 C2241 1.393 . S
C2238 H2230 0.950 . S
C2238 C2236 1.391 . S
C2238 C2239 1.400 . S
C2239 C2238 1.400 . S
C2239 C2240 1.398 . S
C2239 C2245 1.491 . S
C2240 H2231 0.950 . S
C2240 C2239 1.398 . S
C2240 C2241 1.391 . S
C2241 H2229 0.950 . S
C2241 C2237 1.393 . S
C2241 C2240 1.391 . S
C2242 H2232 0.950 . S
C2242 C2243 1.386 . S
C2242 C2244 1.391 . S
C2243 C2242 1.386 . S
C2243 C2247 1.393 . S
C2244 H2233 0.950 . S
C2244 C2242 1.391 . S
C2244 C2245 1.400 . S
C2245 C2239 1.491 . S
C2245 C2244 1.400 . S
C2245 C2246 1.398 . S
C2246 H2234 0.950 . S
C2246 C2245 1.398 . S
C2246 C2247 1.391 . S
C2247 H2235 0.950 . S
C2247 C2243 1.393 . S
C2247 C2246 1.391 . S
H2248 C2256 0.950 . S
H2249 C2261 0.950 . S
H2250 C2258 0.950 . S
H2251 C2260 0.950 . S
H2252 C2262 0.950 . S
H2253 C2264 0.950 . S
H2254 C2266 0.950 . S
H2255 C2267 0.950 . S
C2256 H2248 0.950 . S
C2256 C2257 1.386 . S
C2256 C2258 1.391 . S
C2257 C2256 1.386 . S
C2257 C2261 1.393 . S
C2258 H2250 0.950 . S
C2258 C2256 1.391 . S
C2258 C2259 1.400 . S
C2259 C2258 1.400 . S
C2259 C2260 1.398 . S
C2259 C2265 1.491 . S
C2260 H2251 0.950 . S
C2260 C2259 1.398 . S
C2260 C2261 1.391 . S
C2261 H2249 0.950 . S
C2261 C2257 1.393 . S
C2261 C2260 1.391 . S
C2262 H2252 0.950 . S
C2262 C2263 1.386 . S
C2262 C2264 1.391 . S
C2263 C2262 1.386 . S
C2263 C2267 1.393 . S
C2264 H2253 0.950 . S
C2264 C2262 1.391 . S
C2264 C2265 1.400 . S
C2265 C2259 1.491 . S
C2265 C2264 1.400 . S
C2265 C2266 1.398 . S
C2266 H2254 0.950 . S
C2266 C2265 1.398 . S
C2266 C2267 1.391 . S
C2267 H2255 0.950 . S
C2267 C2263 1.393 . S
C2267 C2266 1.391 . S
H2268 C2276 0.950 . S
H2269 C2281 0.950 . S
H2270 C2278 0.950 . S
H2271 C2280 0.950 . S
H2272 C2282 0.950 . S
H2273 C2284 0.950 . S
H2274 C2286 0.950 . S
H2275 C2287 0.950 . S
C2276 H2268 0.950 . S
C2276 C2277 1.386 . S
C2276 C2278 1.391 . S
C2277 C2276 1.386 . S
C2277 C2281 1.393 . S
C2278 H2270 0.950 . S
C2278 C2276 1.391 . S
C2278 C2279 1.400 . S
C2279 C2278 1.400 . S
C2279 C2280 1.398 . S
C2279 C2285 1.491 . S
C2280 H2271 0.950 . S
C2280 C2279 1.398 . S
C2280 C2281 1.391 . S
C2281 H2269 0.950 . S
C2281 C2277 1.393 . S
C2281 C2280 1.391 . S
C2282 H2272 0.950 . S
C2282 C2283 1.386 . S
C2282 C2284 1.391 . S
C2283 C2282 1.386 . S
C2283 C2287 1.393 . S
C2284 H2273 0.950 . S
C2284 C2282 1.391 . S
C2284 C2285 1.400 . S
C2285 C2279 1.491 . S
C2285 C2284 1.400 . S
C2285 C2286 1.398 . S
C2286 H2274 0.950 . S
C2286 C2285 1.398 . S
C2286 C2287 1.391 . S
C2287 H2275 0.950 . S
C2287 C2283 1.393 . S
C2287 C2286 1.391 . S
H2288 C2296 0.950 . S
H2289 C2301 0.950 . S
H2290 C2298 0.950 . S
H2291 C2300 0.950 . S
H2292 C2302 0.950 . S
H2293 C2304 0.950 . S
H2294 C2306 0.950 . S
H2295 C2307 0.950 . S
C2296 H2288 0.950 . S
C2296 C2297 1.386 . S
C2296 C2298 1.391 . S
C2297 C2296 1.386 . S
C2297 C2301 1.393 . S
C2298 H2290 0.950 . S
C2298 C2296 1.391 . S
C2298 C2299 1.400 . S
C2299 C2298 1.400 . S
C2299 C2300 1.398 . S
C2299 C2305 1.491 . S
C2300 H2291 0.950 . S
C2300 C2299 1.398 . S
C2300 C2301 1.391 . S
C2301 H2289 0.950 . S
C2301 C2297 1.393 . S
C2301 C2300 1.391 . S
C2302 H2292 0.950 . S
C2302 C2303 1.386 . S
C2302 C2304 1.391 . S
C2303 C2302 1.386 . S
C2303 C2307 1.393 . S
C2304 H2293 0.950 . S
C2304 C2302 1.391 . S
C2304 C2305 1.400 . S
C2305 C2299 1.491 . S
C2305 C2304 1.400 . S
C2305 C2306 1.398 . S
C2306 H2294 0.950 . S
C2306 C2305 1.398 . S
C2306 C2307 1.391 . S
C2307 H2295 0.950 . S
C2307 C2303 1.393 . S
C2307 C2306 1.391 . S
H2308 C2316 0.950 . S
H2309 C2321 0.950 . S
H2310 C2318 0.950 . S
H2311 C2320 0.950 . S
H2312 C2322 0.950 . S
H2313 C2324 0.950 . S
H2314 C2326 0.950 . S
H2315 C2327 0.950 . S
C2316 H2308 0.950 . S
C2316 C2317 1.386 . S
C2316 C2318 1.391 . S
C2317 C2316 1.386 . S
C2317 C2321 1.393 . S
C2318 H2310 0.950 . S
C2318 C2316 1.391 . S
C2318 C2319 1.400 . S
C2319 C2318 1.400 . S
C2319 C2320 1.398 . S
C2319 C2325 1.491 . S
C2320 H2311 0.950 . S
C2320 C2319 1.398 . S
C2320 C2321 1.391 . S
C2321 H2309 0.950 . S
C2321 C2317 1.393 . S
C2321 C2320 1.391 . S
C2322 H2312 0.950 . S
C2322 C2323 1.386 . S
C2322 C2324 1.391 . S
C2323 C2322 1.386 . S
C2323 C2327 1.393 . S
C2324 H2313 0.950 . S
C2324 C2322 1.391 . S
C2324 C2325 1.400 . S
C2325 C2319 1.491 . S
C2325 C2324 1.400 . S
C2325 C2326 1.398 . S
C2326 H2314 0.950 . S
C2326 C2325 1.398 . S
C2326 C2327 1.391 . S
C2327 H2315 0.950 . S
C2327 C2323 1.393 . S
C2327 C2326 1.391 . S
H2328 C2336 0.950 . S
H2329 C2341 0.950 . S
H2330 C2338 0.950 . S
H2331 C2340 0.950 . S
H2332 C2342 0.950 . S
H2333 C2344 0.950 . S
H2334 C2346 0.950 . S
H2335 C2347 0.950 . S
C2336 H2328 0.950 . S
C2336 C2337 1.386 . S
C2336 C2338 1.391 . S
C2337 C2336 1.386 . S
C2337 C2341 1.393 . S
C2338 H2330 0.950 . S
C2338 C2336 1.391 . S
C2338 C2339 1.400 . S
C2339 C2338 1.400 . S
C2339 C2340 1.398 . S
C2339 C2345 1.491 . S
C2340 H2331 0.950 . S
C2340 C2339 1.398 . S
C2340 C2341 1.391 . S
C2341 H2329 0.950 . S
C2341 C2337 1.393 . S
C2341 C2340 1.391 . S
C2342 H2332 0.950 . S
C2342 C2343 1.386 . S
C2342 C2344 1.391 . S
C2343 C2342 1.386 . S
C2343 C2347 1.393 . S
C2344 H2333 0.950 . S
C2344 C2342 1.391 . S
C2344 C2345 1.400 . S
C2345 C2339 1.491 . S
C2345 C2344 1.400 . S
C2345 C2346 1.398 . S
C2346 H2334 0.950 . S
C2346 C2345 1.398 . S
C2346 C2347 1.391 . S
C2347 H2335 0.950 . S
C2347 C2343 1.393 . S
C2347 C2346 1.391 . S
H2348 C2356 0.950 . S
H2349 C2361 0.950 . S
H2350 C2358 0.950 . S
H2351 C2360 0.950 . S
H2352 C2362 0.950 . S
H2353 C2364 0.950 . S
H2354 C2366 0.950 . S
H2355 C2367 0.950 . S
C2356 H2348 0.950 . S
C2356 C2357 1.386 . S
C2356 C2358 1.391 . S
C2357 C2356 1.386 . S
C2357 C2361 1.393 . S
C2358 H2350 0.950 . S
C2358 C2356 1.391 . S
C2358 C2359 1.400 . S
C2359 C2358 1.400 . S
C2359 C2360 1.398 . S
C2359 C2365 1.491 . S
C2360 H2351 0.950 . S
C2360 C2359 1.398 . S
C2360 C2361 1.391 . S
C2361 H2349 0.950 . S
C2361 C2357 1.393 . S
C2361 C2360 1.391 . S
C2362 H2352 0.950 . S
C2362 C2363 1.386 . S
C2362 C2364 1.391 . S
C2363 C2362 1.386 . S
C2363 C2367 1.393 . S
C2364 H2353 0.950 . S
C2364 C2362 1.391 . S
C2364 C2365 1.400 . S
C2365 C2359 1.491 . S
C2365 C2364 1.400 . S
C2365 C2366 1.398 . S
C2366 H2354 0.950 . S
C2366 C2365 1.398 . S
C2366 C2367 1.391 . S
C2367 H2355 0.950 . S
C2367 C2363 1.393 . S
C2367 C2366 1.391 . S
H2368 C2376 0.950 . S
H2369 C2381 0.950 . S
H2370 C2378 0.950 . S
H2371 C2380 0.950 . S
H2372 C2382 0.950 . S
H2373 C2384 0.950 . S
H2374 C2386 0.950 . S
H2375 C2387 0.950 . S
C2376 H2368 0.950 . S
C2376 C2377 1.386 . S
C2376 C2378 1.391 . S
C2377 C2376 1.386 . S
C2377 C2381 1.393 . S
C2378 H2370 0.950 . S
C2378 C2376 1.391 . S
C2378 C2379 1.400 . S
C2379 C2378 1.400 . S
C2379 C2380 1.398 . S
C2379 C2385 1.491 . S
C2380 H2371 0.950 . S
C2380 C2379 1.398 . S
C2380 C2381 1.391 . S
C2381 H2369 0.950 . S
C2381 C2377 1.393 . S
C2381 C2380 1.391 . S
C2382 H2372 0.950 . S
C2382 C2383 1.386 . S
C2382 C2384 1.391 . S
C2383 C2382 1.386 . S
C2383 C2387 1.393 . S
C2384 H2373 0.950 . S
C2384 C2382 1.391 . S
C2384 C2385 1.400 . S
C2385 C2379 1.491 . S
C2385 C2384 1.400 . S
C2385 C2386 1.398 . S
C2386 H2374 0.950 . S
C2386 C2385 1.398 . S
C2386 C2387 1.391 . S
C2387 H2375 0.950 . S
C2387 C2383 1.393 . S
C2387 C2386 1.391 . S
H2388 C2396 0.950 . S
H2389 C2401 0.950 . S
H2390 C2398 0.950 . S
H2391 C2400 0.950 . S
H2392 C2402 0.950 . S
H2393 C2404 0.950 . S
H2394 C2406 0.950 . S
H2395 C2407 0.950 . S
C2396 H2388 0.950 . S
C2396 C2397 1.386 . S
C2396 C2398 1.391 . S
C2397 C2396 1.386 . S
C2397 C2401 1.393 . S
C2398 H2390 0.950 . S
C2398 C2396 1.391 . S
C2398 C2399 1.400 . S
C2399 C2398 1.400 . S
C2399 C2400 1.398 . S
C2399 C2405 1.491 . S
C2400 H2391 0.950 . S
C2400 C2399 1.398 . S
C2400 C2401 1.391 . S
C2401 H2389 0.950 . S
C2401 C2397 1.393 . S
C2401 C2400 1.391 . S
C2402 H2392 0.950 . S
C2402 C2403 1.386 . S
C2402 C2404 1.391 . S
C2403 C2402 1.386 . S
C2403 C2407 1.393 . S
C2404 H2393 0.950 . S
C2404 C2402 1.391 . S
C2404 C2405 1.400 . S
C2405 C2399 1.491 . S
C2405 C2404 1.400 . S
C2405 C2406 1.398 . S
C2406 H2394 0.950 . S
C2406 C2405 1.398 . S
C2406 C2407 1.391 . S
C2407 H2395 0.950 . S
C2407 C2403 1.393 . S
C2407 C2406 1.391 . S
H2408 C2416 0.950 . S
H2409 C2421 0.950 . S
H2410 C2418 0.950 . S
H2411 C2420 0.950 . S
H2412 C2422 0.950 . S
H2413 C2424 0.950 . S
H2414 C2426 0.950 . S
H2415 C2427 0.950 . S
C2416 H2408 0.950 . S
C2416 C2417 1.386 . S
C2416 C2418 1.391 . S
C2417 C2416 1.386 . S
C2417 C2421 1.393 . S
C2418 H2410 0.950 . S
C2418 C2416 1.391 . S
C2418 C2419 1.400 . S
C2419 C2418 1.400 . S
C2419 C2420 1.398 . S
C2419 C2425 1.491 . S
C2420 H2411 0.950 . S
C2420 C2419 1.398 . S
C2420 C2421 1.391 . S
C2421 H2409 0.950 . S
C2421 C2417 1.393 . S
C2421 C2420 1.391 . S
C2422 H2412 0.950 . S
C2422 C2423 1.386 . S
C2422 C2424 1.391 . S
C2423 C2422 1.386 . S
C2423 C2427 1.393 . S
C2424 H2413 0.950 . S
C2424 C2422 1.391 . S
C2424 C2425 1.400 . S
C2425 C2419 1.491 . S
C2425 C2424 1.400 . S
C2425 C2426 1.398 . S
C2426 H2414 0.950 . S
C2426 C2425 1.398 . S
C2426 C2427 1.391 . S
C2427 H2415 0.950 . S
C2427 C2423 1.393 . S
C2427 C2426 1.391 . S
H2428 C2436 0.950 . S
H2429 C2441 0.950 . S
H2430 C2438 0.950 . S
H2431 C2440 0.950 . S
H2432 C2442 0.950 . S
H2433 C2444 0.950 . S
H2434 C2446 0.950 . S
H2435 C2447 0.950 . S
C2436 H2428 0.950 . S
C2436 C2437 1.386 . S
C2436 C2438 1.391 . S
C2437 C2436 1.386 . S
C2437 C2441 1.393 . S
C2438 H2430 0.950 . S
C2438 C2436 1.391 . S
C2438 C2439 1.400 . S
C2439 C2438 1.400 . S
C2439 C2440 1.398 . S
C2439 C2445 1.491 . S
C2440 H2431 0.950 . S
C2440 C2439 1.398 . S
C2440 C2441 1.391 . S
C2441 H2429 0.950 . S
C2441 C2437 1.393 . S
C2441 C2440 1.391 . S
C2442 H2432 0.950 . S
C2442 C2443 1.386 . S
C2442 C2444 1.391 . S
C2443 C2442 1.386 . S
C2443 C2447 1.393 . S
C2444 H2433 0.950 . S
C2444 C2442 1.391 . S
C2444 C2445 1.400 . S
C2445 C2439 1.491 . S
C2445 C2444 1.400 . S
C2445 C2446 1.398 . S
C2446 H2434 0.950 . S
C2446 C2445 1.398 . S
C2446 C2447 1.391 . S
C2447 H2435 0.950 . S
C2447 C2443 1.393 . S
C2447 C2446 1.391 . S
H2448 C2456 0.950 . S
H2449 C2461 0.950 . S
H2450 C2458 0.950 . S
H2451 C2460 0.950 . S
H2452 C2462 0.950 . S
H2453 C2464 0.950 . S
H2454 C2466 0.950 . S
H2455 C2467 0.950 . S
C2456 H2448 0.950 . S
C2456 C2457 1.386 . S
C2456 C2458 1.391 . S
C2457 C2456 1.386 . S
C2457 C2461 1.393 . S
C2458 H2450 0.950 . S
C2458 C2456 1.391 . S
C2458 C2459 1.400 . S
C2459 C2458 1.400 . S
C2459 C2460 1.398 . S
C2459 C2465 1.491 . S
C2460 H2451 0.950 . S
C2460 C2459 1.398 . S
C2460 C2461 1.391 . S
C2461 H2449 0.950 . S
C2461 C2457 1.393 . S
C2461 C2460 1.391 . S
C2462 H2452 0.950 . S
C2462 C2463 1.386 . S
C2462 C2464 1.391 . S
C2463 C2462 1.386 . S
C2463 C2467 1.393 . S
C2464 H2453 0.950 . S
C2464 C2462 1.391 . S
C2464 C2465 1.400 . S
C2465 C2459 1.491 . S
C2465 C2464 1.400 . S
C2465 C2466 1.398 . S
C2466 H2454 0.950 . S
C2466 C2465 1.398 . S
C2466 C2467 1.391 . S
C2467 H2455 0.950 . S
C2467 C2463 1.393 . S
C2467 C2466 1.391 . S
H2468 C2476 0.950 . S
H2469 C2481 0.950 . S
H2470 C2478 0.950 . S
H2471 C2480 0.950 . S
H2472 C2482 0.950 . S
H2473 C2484 0.950 . S
H2474 C2486 0.950 . S
H2475 C2487 0.950 . S
C2476 H2468 0.950 . S
C2476 C2477 1.386 . S
C2476 C2478 1.391 . S
C2477 C2476 1.386 . S
C2477 C2481 1.393 . S
C2478 H2470 0.950 . S
C2478 C2476 1.391 . S
C2478 C2479 1.400 . S
C2479 C2478 1.400 . S
C2479 C2480 1.398 . S
C2479 C2485 1.491 . S
C2480 H2471 0.950 . S
C2480 C2479 1.398 . S
C2480 C2481 1.391 . S
C2481 H2469 0.950 . S
C2481 C2477 1.393 . S
C2481 C2480 1.391 . S
C2482 H2472 0.950 . S
C2482 C2483 1.386 . S
C2482 C2484 1.391 . S
C2483 C2482 1.386 . S
C2483 C2487 1.393 . S
C2484 H2473 0.950 . S
C2484 C2482 1.391 . S
C2484 C2485 1.400 . S
C2485 C2479 1.491 . S
C2485 C2484 1.400 . S
C2485 C2486 1.398 . S
C2486 H2474 0.950 . S
C2486 C2485 1.398 . S
C2486 C2487 1.391 . S
C2487 H2475 0.950 . S
C2487 C2483 1.393 . S
C2487 C2486 1.391 . S
H2488 C2496 0.950 . S
H2489 C2501 0.950 . S
H2490 C2498 0.950 . S
H2491 C2500 0.950 . S
H2492 C2502 0.950 . S
H2493 C2504 0.950 . S
H2494 C2506 0.950 . S
H2495 C2507 0.950 . S
C2496 H2488 0.950 . S
C2496 C2497 1.386 . S
C2496 C2498 1.391 . S
C2497 C2496 1.386 . S
C2497 C2501 1.393 . S
C2498 H2490 0.950 . S
C2498 C2496 1.391 . S
C2498 C2499 1.400 . S
C2499 C2498 1.400 . S
C2499 C2500 1.398 . S
C2499 C2505 1.491 . S
C2500 H2491 0.950 . S
C2500 C2499 1.398 . S
C2500 C2501 1.391 . S
C2501 H2489 0.950 . S
C2501 C2497 1.393 . S
C2501 C2500 1.391 . S
C2502 H2492 0.950 . S
C2502 C2503 1.386 . S
C2502 C2504 1.391 . S
C2503 C2502 1.386 . S
C2503 C2507 1.393 . S
C2504 H2493 0.950 . S
C2504 C2502 1.391 . S
C2504 C2505 1.400 . S
C2505 C2499 1.491 . S
C2505 C2504 1.400 . S
C2505 C2506 1.398 . S
C2506 H2494 0.950 . S
C2506 C2505 1.398 . S
C2506 C2507 1.391 . S
C2507 H2495 0.950 . S
C2507 C2503 1.393 . S
C2507 C2506 1.391 . S
H2508 C2516 0.950 . S
H2509 C2521 0.950 . S
H2510 C2518 0.950 . S
H2511 C2520 0.950 . S
H2512 C2522 0.950 . S
H2513 C2524 0.950 . S
H2514 C2526 0.950 . S
H2515 C2527 0.950 . S
C2516 H2508 0.950 . S
C2516 C2517 1.386 . S
C2516 C2518 1.391 . S
C2517 C2516 1.386 . S
C2517 C2521 1.393 . S
C2518 H2510 0.950 . S
C2518 C2516 1.391 . S
C2518 C2519 1.400 . S
C2519 C2518 1.400 . S
C2519 C2520 1.398 . S
C2519 C2525 1.491 . S
C2520 H2511 0.950 . S
C2520 C2519 1.398 . S
C2520 C2521 1.391 . S
C2521 H2509 0.950 . S
C2521 C2517 1.393 . S
C2521 C2520 1.391 . S
C2522 H2512 0.950 . S
C2522 C2523 1.386 . S
C2522 C2524 1.391 . S
C2523 C2522 1.386 . S
C2523 C2527 1.393 . S
C2524 H2513 0.950 . S
C2524 C2522 1.391 . S
C2524 C2525 1.400 . S
C2525 C2519 1.491 . S
C2525 C2524 1.400 . S
C2525 C2526 1.398 . S
C2526 H2514 0.950 . S
C2526 C2525 1.398 . S
C2526 C2527 1.391 . S
C2527 H2515 0.950 . S
C2527 C2523 1.393 . S
C2527 C2526 1.391 . S
H2528 C2536 0.950 . S
H2529 C2541 0.950 . S
H2530 C2538 0.950 . S
H2531 C2540 0.950 . S
H2532 C2542 0.950 . S
H2533 C2544 0.950 . S
H2534 C2546 0.950 . S
H2535 C2547 0.950 . S
C2536 H2528 0.950 . S
C2536 C2537 1.386 . S
C2536 C2538 1.391 . S
C2537 C2536 1.386 . S
C2537 C2541 1.393 . S
C2538 H2530 0.950 . S
C2538 C2536 1.391 . S
C2538 C2539 1.400 . S
C2539 C2538 1.400 . S
C2539 C2540 1.398 . S
C2539 C2545 1.491 . S
C2540 H2531 0.950 . S
C2540 C2539 1.398 . S
C2540 C2541 1.391 . S
C2541 H2529 0.950 . S
C2541 C2537 1.393 . S
C2541 C2540 1.391 . S
C2542 H2532 0.950 . S
C2542 C2543 1.386 . S
C2542 C2544 1.391 . S
C2543 C2542 1.386 . S
C2543 C2547 1.393 . S
C2544 H2533 0.950 . S
C2544 C2542 1.391 . S
C2544 C2545 1.400 . S
C2545 C2539 1.491 . S
C2545 C2544 1.400 . S
C2545 C2546 1.398 . S
C2546 H2534 0.950 . S
C2546 C2545 1.398 . S
C2546 C2547 1.391 . S
C2547 H2535 0.950 . S
C2547 C2543 1.393 . S
C2547 C2546 1.391 . S
H2548 C2556 0.950 . S
H2549 C2561 0.950 . S
H2550 C2558 0.950 . S
H2551 C2560 0.950 . S
H2552 C2562 0.950 . S
H2553 C2564 0.950 . S
H2554 C2566 0.950 . S
H2555 C2567 0.950 . S
C2556 H2548 0.950 . S
C2556 C2557 1.386 . S
C2556 C2558 1.391 . S
C2557 C2556 1.386 . S
C2557 C2561 1.393 . S
C2558 H2550 0.950 . S
C2558 C2556 1.391 . S
C2558 C2559 1.400 . S
C2559 C2558 1.400 . S
C2559 C2560 1.398 . S
C2559 C2565 1.491 . S
C2560 H2551 0.950 . S
C2560 C2559 1.398 . S
C2560 C2561 1.391 . S
C2561 H2549 0.950 . S
C2561 C2557 1.393 . S
C2561 C2560 1.391 . S
C2562 H2552 0.950 . S
C2562 C2563 1.386 . S
C2562 C2564 1.391 . S
C2563 C2562 1.386 . S
C2563 C2567 1.393 . S
C2564 H2553 0.950 . S
C2564 C2562 1.391 . S
C2564 C2565 1.400 . S
C2565 C2559 1.491 . S
C2565 C2564 1.400 . S
C2565 C2566 1.398 . S
C2566 H2554 0.950 . S
C2566 C2565 1.398 . S
C2566 C2567 1.391 . S
C2567 H2555 0.950 . S
C2567 C2563 1.393 . S
C2567 C2566 1.391 . S
H2568 C2576 0.950 . S
H2569 C2581 0.950 . S
H2570 C2578 0.950 . S
H2571 C2580 0.950 . S
H2572 C2582 0.950 . S
H2573 C2584 0.950 . S
H2574 C2586 0.950 . S
H2575 C2587 0.950 . S
C2576 H2568 0.950 . S
C2576 C2577 1.386 . S
C2576 C2578 1.391 . S
C2577 C2576 1.386 . S
C2577 C2581 1.393 . S
C2578 H2570 0.950 . S
C2578 C2576 1.391 . S
C2578 C2579 1.400 . S
C2579 C2578 1.400 . S
C2579 C2580 1.398 . S
C2579 C2585 1.491 . S
C2580 H2571 0.950 . S
C2580 C2579 1.398 . S
C2580 C2581 1.391 . S
C2581 H2569 0.950 . S
C2581 C2577 1.393 . S
C2581 C2580 1.391 . S
C2582 H2572 0.950 . S
C2582 C2583 1.386 . S
C2582 C2584 1.391 . S
C2583 C2582 1.386 . S
C2583 C2587 1.393 . S
C2584 H2573 0.950 . S
C2584 C2582 1.391 . S
C2584 C2585 1.400 . S
C2585 C2579 1.491 . S
C2585 C2584 1.400 . S
C2585 C2586 1.398 . S
C2586 H2574 0.950 . S
C2586 C2585 1.398 . S
C2586 C2587 1.391 . S
C2587 H2575 0.950 . S
C2587 C2583 1.393 . S
C2587 C2586 1.391 . S
H2588 C2596 0.950 . S
H2589 C2601 0.950 . S
H2590 C2598 0.950 . S
H2591 C2600 0.950 . S
H2592 C2602 0.950 . S
H2593 C2604 0.950 . S
H2594 C2606 0.950 . S
H2595 C2607 0.950 . S
C2596 H2588 0.950 . S
C2596 C2597 1.386 . S
C2596 C2598 1.391 . S
C2597 C2596 1.386 . S
C2597 C2601 1.393 . S
C2598 H2590 0.950 . S
C2598 C2596 1.391 . S
C2598 C2599 1.400 . S
C2599 C2598 1.400 . S
C2599 C2600 1.398 . S
C2599 C2605 1.491 . S
C2600 H2591 0.950 . S
C2600 C2599 1.398 . S
C2600 C2601 1.391 . S
C2601 H2589 0.950 . S
C2601 C2597 1.393 . S
C2601 C2600 1.391 . S
C2602 H2592 0.950 . S
C2602 C2603 1.386 . S
C2602 C2604 1.391 . S
C2603 C2602 1.386 . S
C2603 C2607 1.393 . S
C2604 H2593 0.950 . S
C2604 C2602 1.391 . S
C2604 C2605 1.400 . S
C2605 C2599 1.491 . S
C2605 C2604 1.400 . S
C2605 C2606 1.398 . S
C2606 H2594 0.950 . S
C2606 C2605 1.398 . S
C2606 C2607 1.391 . S
C2607 H2595 0.950 . S
C2607 C2603 1.393 . S
C2607 C2606 1.391 . S
H2608 C2616 0.950 . S
H2609 C2621 0.950 . S
H2610 C2618 0.950 . S
H2611 C2620 0.950 . S
H2612 C2622 0.950 . S
H2613 C2624 0.950 . S
H2614 C2626 0.950 . S
H2615 C2627 0.950 . S
C2616 H2608 0.950 . S
C2616 C2617 1.386 . S
C2616 C2618 1.391 . S
C2617 C2616 1.386 . S
C2617 C2621 1.393 . S
C2618 H2610 0.950 . S
C2618 C2616 1.391 . S
C2618 C2619 1.400 . S
C2619 C2618 1.400 . S
C2619 C2620 1.398 . S
C2619 C2625 1.491 . S
C2620 H2611 0.950 . S
C2620 C2619 1.398 . S
C2620 C2621 1.391 . S
C2621 H2609 0.950 . S
C2621 C2617 1.393 . S
C2621 C2620 1.391 . S
C2622 H2612 0.950 . S
C2622 C2623 1.386 . S
C2622 C2624 1.391 . S
C2623 C2622 1.386 . S
C2623 C2627 1.393 . S
C2624 H2613 0.950 . S
C2624 C2622 1.391 . S
C2624 C2625 1.400 . S
C2625 C2619 1.491 . S
C2625 C2624 1.400 . S
C2625 C2626 1.398 . S
C2626 H2614 0.950 . S
C2626 C2625 1.398 . S
C2626 C2627 1.391 . S
C2627 H2615 0.950 . S
C2627 C2623 1.393 . S
C2627 C2626 1.391 . S
H2628 C2636 0.950 . S
H2629 C2641 0.950 . S
H2630 C2638 0.950 . S
H2631 C2640 0.950 . S
H2632 C2642 0.950 . S
H2633 C2644 0.950 . S
H2634 C2646 0.950 . S
H2635 C2647 0.950 . S
C2636 H2628 0.950 . S
C2636 C2637 1.386 . S
C2636 C2638 1.391 . S
C2637 C2636 1.386 . S
C2637 C2641 1.393 . S
C2638 H2630 0.950 . S
C2638 C2636 1.391 . S
C2638 C2639 1.400 . S
C2639 C2638 1.400 . S
C2639 C2640 1.398 . S
C2639 C2645 1.491 . S
C2640 H2631 0.950 . S
C2640 C2639 1.398 . S
C2640 C2641 1.391 . S
C2641 H2629 0.950 . S
C2641 C2637 1.393 . S
C2641 C2640 1.391 . S
C2642 H2632 0.950 . S
C2642 C2643 1.386 . S
C2642 C2644 1.391 . S
C2643 C2642 1.386 . S
C2643 C2647 1.393 . S
C2644 H2633 0.950 . S
C2644 C2642 1.391 . S
C2644 C2645 1.400 . S
C2645 C2639 1.491 . S
C2645 C2644 1.400 . S
C2645 C2646 1.398 . S
C2646 H2634 0.950 . S
C2646 C2645 1.398 . S
C2646 C2647 1.391 . S
C2647 H2635 0.950 . S
C2647 C2643 1.393 . S
C2647 C2646 1.391 . S
H2648 C2656 0.950 . S
H2649 C2661 0.950 . S
H2650 C2658 0.950 . S
H2651 C2660 0.950 . S
H2652 C2662 0.950 . S
H2653 C2664 0.950 . S
H2654 C2666 0.950 . S
H2655 C2667 0.950 . S
C2656 H2648 0.950 . S
C2656 C2657 1.386 . S
C2656 C2658 1.391 . S
C2657 C2656 1.386 . S
C2657 C2661 1.393 . S
C2658 H2650 0.950 . S
C2658 C2656 1.391 . S
C2658 C2659 1.400 . S
C2659 C2658 1.400 . S
C2659 C2660 1.398 . S
C2659 C2665 1.491 . S
C2660 H2651 0.950 . S
C2660 C2659 1.398 . S
C2660 C2661 1.391 . S
C2661 H2649 0.950 . S
C2661 C2657 1.393 . S
C2661 C2660 1.391 . S
C2662 H2652 0.950 . S
C2662 C2663 1.386 . S
C2662 C2664 1.391 . S
C2663 C2662 1.386 . S
C2663 C2667 1.393 . S
C2664 H2653 0.950 . S
C2664 C2662 1.391 . S
C2664 C2665 1.400 . S
C2665 C2659 1.491 . S
C2665 C2664 1.400 . S
C2665 C2666 1.398 . S
C2666 H2654 0.950 . S
C2666 C2665 1.398 . S
C2666 C2667 1.391 . S
C2667 H2655 0.950 . S
C2667 C2663 1.393 . S
C2667 C2666 1.391 . S
H2668 C2676 0.950 . S
H2669 C2681 0.950 . S
H2670 C2678 0.950 . S
H2671 C2680 0.950 . S
H2672 C2682 0.950 . S
H2673 C2684 0.950 . S
H2674 C2686 0.950 . S
H2675 C2687 0.950 . S
C2676 H2668 0.950 . S
C2676 C2677 1.386 . S
C2676 C2678 1.391 . S
C2677 C2676 1.386 . S
C2677 C2681 1.393 . S
C2678 H2670 0.950 . S
C2678 C2676 1.391 . S
C2678 C2679 1.400 . S
C2679 C2678 1.400 . S
C2679 C2680 1.398 . S
C2679 C2685 1.491 . S
C2680 H2671 0.950 . S
C2680 C2679 1.398 . S
C2680 C2681 1.391 . S
C2681 H2669 0.950 . S
C2681 C2677 1.393 . S
C2681 C2680 1.391 . S
C2682 H2672 0.950 . S
C2682 C2683 1.386 . S
C2682 C2684 1.391 . S
C2683 C2682 1.386 . S
C2683 C2687 1.393 . S
C2684 H2673 0.950 . S
C2684 C2682 1.391 . S
C2684 C2685 1.400 . S
C2685 C2679 1.491 . S
C2685 C2684 1.400 . S
C2685 C2686 1.398 . S
C2686 H2674 0.950 . S
C2686 C2685 1.398 . S
C2686 C2687 1.391 . S
C2687 H2675 0.950 . S
C2687 C2683 1.393 . S
C2687 C2686 1.391 . S
H2688 C2696 0.950 . S
H2689 C2701 0.950 . S
H2690 C2698 0.950 . S
H2691 C2700 0.950 . S
H2692 C2702 0.950 . S
H2693 C2704 0.950 . S
H2694 C2706 0.950 . S
H2695 C2707 0.950 . S
C2696 H2688 0.950 . S
C2696 C2697 1.386 . S
C2696 C2698 1.391 . S
C2697 C2696 1.386 . S
C2697 C2701 1.393 . S
C2698 H2690 0.950 . S
C2698 C2696 1.391 . S
C2698 C2699 1.400 . S
C2699 C2698 1.400 . S
C2699 C2700 1.398 . S
C2699 C2705 1.491 . S
C2700 H2691 0.950 . S
C2700 C2699 1.398 . S
C2700 C2701 1.391 . S
C2701 H2689 0.950 . S
C2701 C2697 1.393 . S
C2701 C2700 1.391 . S
C2702 H2692 0.950 . S
C2702 C2703 1.386 . S
C2702 C2704 1.391 . S
C2703 C2702 1.386 . S
C2703 C2707 1.393 . S
C2704 H2693 0.950 . S
C2704 C2702 1.391 . S
C2704 C2705 1.400 . S
C2705 C2699 1.491 . S
C2705 C2704 1.400 . S
C2705 C2706 1.398 . S
C2706 H2694 0.950 . S
C2706 C2705 1.398 . S
C2706 C2707 1.391 . S
C2707 H2695 0.950 . S
C2707 C2703 1.393 . S
C2707 C2706 1.391 . S
H2708 C2716 0.950 . S
H2709 C2721 0.950 . S
H2710 C2718 0.950 . S
H2711 C2720 0.950 . S
H2712 C2722 0.950 . S
H2713 C2724 0.950 . S
H2714 C2726 0.950 . S
H2715 C2727 0.950 . S
C2716 H2708 0.950 . S
C2716 C2717 1.386 . S
C2716 C2718 1.391 . S
C2717 C2716 1.386 . S
C2717 C2721 1.393 . S
C2718 H2710 0.950 . S
C2718 C2716 1.391 . S
C2718 C2719 1.400 . S
C2719 C2718 1.400 . S
C2719 C2720 1.398 . S
C2719 C2725 1.491 . S
C2720 H2711 0.950 . S
C2720 C2719 1.398 . S
C2720 C2721 1.391 . S
C2721 H2709 0.950 . S
C2721 C2717 1.393 . S
C2721 C2720 1.391 . S
C2722 H2712 0.950 . S
C2722 C2723 1.386 . S
C2722 C2724 1.391 . S
C2723 C2722 1.386 . S
C2723 C2727 1.393 . S
C2724 H2713 0.950 . S
C2724 C2722 1.391 . S
C2724 C2725 1.400 . S
C2725 C2719 1.491 . S
C2725 C2724 1.400 . S
C2725 C2726 1.398 . S
C2726 H2714 0.950 . S
C2726 C2725 1.398 . S
C2726 C2727 1.391 . S
C2727 H2715 0.950 . S
C2727 C2723 1.393 . S
C2727 C2726 1.391 . S
H2728 C2736 0.950 . S
H2729 C2741 0.950 . S
H2730 C2738 0.950 . S
H2731 C2740 0.950 . S
H2732 C2742 0.950 . S
H2733 C2744 0.950 . S
H2734 C2746 0.950 . S
H2735 C2747 0.950 . S
C2736 H2728 0.950 . S
C2736 C2737 1.386 . S
C2736 C2738 1.391 . S
C2737 C2736 1.386 . S
C2737 C2741 1.393 . S
C2738 H2730 0.950 . S
C2738 C2736 1.391 . S
C2738 C2739 1.400 . S
C2739 C2738 1.400 . S
C2739 C2740 1.398 . S
C2739 C2745 1.491 . S
C2740 H2731 0.950 . S
C2740 C2739 1.398 . S
C2740 C2741 1.391 . S
C2741 H2729 0.950 . S
C2741 C2737 1.393 . S
C2741 C2740 1.391 . S
C2742 H2732 0.950 . S
C2742 C2743 1.386 . S
C2742 C2744 1.391 . S
C2743 C2742 1.386 . S
C2743 C2747 1.393 . S
C2744 H2733 0.950 . S
C2744 C2742 1.391 . S
C2744 C2745 1.400 . S
C2745 C2739 1.491 . S
C2745 C2744 1.400 . S
C2745 C2746 1.398 . S
C2746 H2734 0.950 . S
C2746 C2745 1.398 . S
C2746 C2747 1.391 . S
C2747 H2735 0.950 . S
C2747 C2743 1.393 . S
C2747 C2746 1.391 . S
H2748 C2756 0.950 . S
H2749 C2761 0.950 . S
H2750 C2758 0.950 . S
H2751 C2760 0.950 . S
H2752 C2762 0.950 . S
H2753 C2764 0.950 . S
H2754 C2766 0.950 . S
H2755 C2767 0.950 . S
C2756 H2748 0.950 . S
C2756 C2757 1.386 . S
C2756 C2758 1.391 . S
C2757 C2756 1.386 . S
C2757 C2761 1.393 . S
C2758 H2750 0.950 . S
C2758 C2756 1.391 . S
C2758 C2759 1.400 . S
C2759 C2758 1.400 . S
C2759 C2760 1.398 . S
C2759 C2765 1.491 . S
C2760 H2751 0.950 . S
C2760 C2759 1.398 . S
C2760 C2761 1.391 . S
C2761 H2749 0.950 . S
C2761 C2757 1.393 . S
C2761 C2760 1.391 . S
C2762 H2752 0.950 . S
C2762 C2763 1.386 . S
C2762 C2764 1.391 . S
C2763 C2762 1.386 . S
C2763 C2767 1.393 . S
C2764 H2753 0.950 . S
C2764 C2762 1.391 . S
C2764 C2765 1.400 . S
C2765 C2759 1.491 . S
C2765 C2764 1.400 . S
C2765 C2766 1.398 . S
C2766 H2754 0.950 . S
C2766 C2765 1.398 . S
C2766 C2767 1.391 . S
C2767 H2755 0.950 . S
C2767 C2763 1.393 . S
C2767 C2766 1.391 . S
H2768 C2776 0.950 . S
H2769 C2781 0.950 . S
H2770 C2778 0.950 . S
H2771 C2780 0.950 . S
H2772 C2782 0.950 . S
H2773 C2784 0.950 . S
H2774 C2786 0.950 . S
H2775 C2787 0.950 . S
C2776 H2768 0.950 . S
C2776 C2777 1.386 . S
C2776 C2778 1.391 . S
C2777 C2776 1.386 . S
C2777 C2781 1.393 . S
C2778 H2770 0.950 . S
C2778 C2776 1.391 . S
C2778 C2779 1.400 . S
C2779 C2778 1.400 . S
C2779 C2780 1.398 . S
C2779 C2785 1.491 . S
C2780 H2771 0.950 . S
C2780 C2779 1.398 . S
C2780 C2781 1.391 . S
C2781 H2769 0.950 . S
C2781 C2777 1.393 . S
C2781 C2780 1.391 . S
C2782 H2772 0.950 . S
C2782 C2783 1.386 . S
C2782 C2784 1.391 . S
C2783 C2782 1.386 . S
C2783 C2787 1.393 . S
C2784 H2773 0.950 . S
C2784 C2782 1.391 . S
C2784 C2785 1.400 . S
C2785 C2779 1.491 . S
C2785 C2784 1.400 . S
C2785 C2786 1.398 . S
C2786 H2774 0.950 . S
C2786 C2785 1.398 . S
C2786 C2787 1.391 . S
C2787 H2775 0.950 . S
C2787 C2783 1.393 . S
C2787 C2786 1.391 . S
H2788 C2796 0.950 . S
H2789 C2801 0.950 . S
H2790 C2798 0.950 . S
H2791 C2800 0.950 . S
H2792 C2802 0.950 . S
H2793 C2804 0.950 . S
H2794 C2806 0.950 . S
H2795 C2807 0.950 . S
C2796 H2788 0.950 . S
C2796 C2797 1.386 . S
C2796 C2798 1.391 . S
C2797 C2796 1.386 . S
C2797 C2801 1.393 . S
C2798 H2790 0.950 . S
C2798 C2796 1.391 . S
C2798 C2799 1.400 . S
C2799 C2798 1.400 . S
C2799 C2800 1.398 . S
C2799 C2805 1.491 . S
C2800 H2791 0.950 . S
C2800 C2799 1.398 . S
C2800 C2801 1.391 . S
C2801 H2789 0.950 . S
C2801 C2797 1.393 . S
C2801 C2800 1.391 . S
C2802 H2792 0.950 . S
C2802 C2803 1.386 . S
C2802 C2804 1.391 . S
C2803 C2802 1.386 . S
C2803 C2807 1.393 . S
C2804 H2793 0.950 . S
C2804 C2802 1.391 . S
C2804 C2805 1.400 . S
C2805 C2799 1.491 . S
C2805 C2804 1.400 . S
C2805 C2806 1.398 . S
C2806 H2794 0.950 . S
C2806 C2805 1.398 . S
C2806 C2807 1.391 . S
C2807 H2795 0.950 . S
C2807 C2803 1.393 . S
C2807 C2806 1.391 . S
H2808 C2816 0.950 . S
H2809 C2821 0.950 . S
H2810 C2818 0.950 . S
H2811 C2820 0.950 . S
H2812 C2822 0.950 . S
H2813 C2824 0.950 . S
H2814 C2826 0.950 . S
H2815 C2827 0.950 . S
C2816 H2808 0.950 . S
C2816 C2817 1.386 . S
C2816 C2818 1.391 . S
C2817 C2816 1.386 . S
C2817 C2821 1.393 . S
C2818 H2810 0.950 . S
C2818 C2816 1.391 . S
C2818 C2819 1.400 . S
C2819 C2818 1.400 . S
C2819 C2820 1.398 . S
C2819 C2825 1.491 . S
C2820 H2811 0.950 . S
C2820 C2819 1.398 . S
C2820 C2821 1.391 . S
C2821 H2809 0.950 . S
C2821 C2817 1.393 . S
C2821 C2820 1.391 . S
C2822 H2812 0.950 . S
C2822 C2823 1.386 . S
C2822 C2824 1.391 . S
C2823 C2822 1.386 . S
C2823 C2827 1.393 . S
C2824 H2813 0.950 . S
C2824 C2822 1.391 . S
C2824 C2825 1.400 . S
C2825 C2819 1.491 . S
C2825 C2824 1.400 . S
C2825 C2826 1.398 . S
C2826 H2814 0.950 . S
C2826 C2825 1.398 . S
C2826 C2827 1.391 . S
C2827 H2815 0.950 . S
C2827 C2823 1.393 . S
C2827 C2826 1.391 . S
H2828 C2836 0.950 . S
H2829 C2841 0.950 . S
H2830 C2838 0.950 . S
H2831 C2840 0.950 . S
H2832 C2842 0.950 . S
H2833 C2844 0.950 . S
H2834 C2846 0.950 . S
H2835 C2847 0.950 . S
C2836 H2828 0.950 . S
C2836 C2837 1.386 . S
C2836 C2838 1.391 . S
C2837 C2836 1.386 . S
C2837 C2841 1.393 . S
C2838 H2830 0.950 . S
C2838 C2836 1.391 . S
C2838 C2839 1.400 . S
C2839 C2838 1.400 . S
C2839 C2840 1.398 . S
C2839 C2845 1.491 . S
C2840 H2831 0.950 . S
C2840 C2839 1.398 . S
C2840 C2841 1.391 . S
C2841 H2829 0.950 . S
C2841 C2837 1.393 . S
C2841 C2840 1.391 . S
C2842 H2832 0.950 . S
C2842 C2843 1.386 . S
C2842 C2844 1.391 . S
C2843 C2842 1.386 . S
C2843 C2847 1.393 . S
C2844 H2833 0.950 . S
C2844 C2842 1.391 . S
C2844 C2845 1.400 . S
C2845 C2839 1.491 . S
C2845 C2844 1.400 . S
C2845 C2846 1.398 . S
C2846 H2834 0.950 . S
C2846 C2845 1.398 . S
C2846 C2847 1.391 . S
C2847 H2835 0.950 . S
C2847 C2843 1.393 . S
C2847 C2846 1.391 . S
H2848 C2856 0.950 . S
H2849 C2861 0.950 . S
H2850 C2858 0.950 . S
H2851 C2860 0.950 . S
H2852 C2862 0.950 . S
H2853 C2864 0.950 . S
H2854 C2866 0.950 . S
H2855 C2867 0.950 . S
C2856 H2848 0.950 . S
C2856 C2857 1.386 . S
C2856 C2858 1.391 . S
C2857 C2856 1.386 . S
C2857 C2861 1.393 . S
C2858 H2850 0.950 . S
C2858 C2856 1.391 . S
C2858 C2859 1.400 . S
C2859 C2858 1.400 . S
C2859 C2860 1.398 . S
C2859 C2865 1.491 . S
C2860 H2851 0.950 . S
C2860 C2859 1.398 . S
C2860 C2861 1.391 . S
C2861 H2849 0.950 . S
C2861 C2857 1.393 . S
C2861 C2860 1.391 . S
C2862 H2852 0.950 . S
C2862 C2863 1.386 . S
C2862 C2864 1.391 . S
C2863 C2862 1.386 . S
C2863 C2867 1.393 . S
C2864 H2853 0.950 . S
C2864 C2862 1.391 . S
C2864 C2865 1.400 . S
C2865 C2859 1.491 . S
C2865 C2864 1.400 . S
C2865 C2866 1.398 . S
C2866 H2854 0.950 . S
C2866 C2865 1.398 . S
C2866 C2867 1.391 . S
C2867 H2855 0.950 . S
C2867 C2863 1.393 . S
C2867 C2866 1.391 . S
H2868 C2876 0.950 . S
H2869 C2881 0.950 . S
H2870 C2878 0.950 . S
H2871 C2880 0.950 . S
H2872 C2882 0.950 . S
H2873 C2884 0.950 . S
H2874 C2886 0.950 . S
H2875 C2887 0.950 . S
C2876 H2868 0.950 . S
C2876 C2877 1.386 . S
C2876 C2878 1.391 . S
C2877 C2876 1.386 . S
C2877 C2881 1.393 . S
C2878 H2870 0.950 . S
C2878 C2876 1.391 . S
C2878 C2879 1.400 . S
C2879 C2878 1.400 . S
C2879 C2880 1.398 . S
C2879 C2885 1.491 . S
C2880 H2871 0.950 . S
C2880 C2879 1.398 . S
C2880 C2881 1.391 . S
C2881 H2869 0.950 . S
C2881 C2877 1.393 . S
C2881 C2880 1.391 . S
C2882 H2872 0.950 . S
C2882 C2883 1.386 . S
C2882 C2884 1.391 . S
C2883 C2882 1.386 . S
C2883 C2887 1.393 . S
C2884 H2873 0.950 . S
C2884 C2882 1.391 . S
C2884 C2885 1.400 . S
C2885 C2879 1.491 . S
C2885 C2884 1.400 . S
C2885 C2886 1.398 . S
C2886 H2874 0.950 . S
C2886 C2885 1.398 . S
C2886 C2887 1.391 . S
C2887 H2875 0.950 . S
C2887 C2883 1.393 . S
C2887 C2886 1.391 . S
H2888 C2896 0.950 . S
H2889 C2901 0.950 . S
H2890 C2898 0.950 . S
H2891 C2900 0.950 . S
H2892 C2902 0.950 . S
H2893 C2904 0.950 . S
H2894 C2906 0.950 . S
H2895 C2907 0.950 . S
C2896 H2888 0.950 . S
C2896 C2897 1.386 . S
C2896 C2898 1.391 . S
C2897 C2896 1.386 . S
C2897 C2901 1.393 . S
C2898 H2890 0.950 . S
C2898 C2896 1.391 . S
C2898 C2899 1.400 . S
C2899 C2898 1.400 . S
C2899 C2900 1.398 . S
C2899 C2905 1.491 . S
C2900 H2891 0.950 . S
C2900 C2899 1.398 . S
C2900 C2901 1.391 . S
C2901 H2889 0.950 . S
C2901 C2897 1.393 . S
C2901 C2900 1.391 . S
C2902 H2892 0.950 . S
C2902 C2903 1.386 . S
C2902 C2904 1.391 . S
C2903 C2902 1.386 . S
C2903 C2907 1.393 . S
C2904 H2893 0.950 . S
C2904 C2902 1.391 . S
C2904 C2905 1.400 . S
C2905 C2899 1.491 . S
C2905 C2904 1.400 . S
C2905 C2906 1.398 . S
C2906 H2894 0.950 . S
C2906 C2905 1.398 . S
C2906 C2907 1.391 . S
C2907 H2895 0.950 . S
C2907 C2903 1.393 . S
C2907 C2906 1.391 . S
H2908 C2916 0.950 . S
H2909 C2921 0.950 . S
H2910 C2918 0.950 . S
H2911 C2920 0.950 . S
H2912 C2922 0.950 . S
H2913 C2924 0.950 . S
H2914 C2926 0.950 . S
H2915 C2927 0.950 . S
C2916 H2908 0.950 . S
C2916 C2917 1.386 . S
C2916 C2918 1.391 . S
C2917 C2916 1.386 . S
C2917 C2921 1.393 . S
C2918 H2910 0.950 . S
C2918 C2916 1.391 . S
C2918 C2919 1.400 . S
C2919 C2918 1.400 . S
C2919 C2920 1.398 . S
C2919 C2925 1.491 . S
C2920 H2911 0.950 . S
C2920 C2919 1.398 . S
C2920 C2921 1.391 . S
C2921 H2909 0.950 . S
C2921 C2917 1.393 . S
C2921 C2920 1.391 . S
C2922 H2912 0.950 . S
C2922 C2923 1.386 . S
C2922 C2924 1.391 . S
C2923 C2922 1.386 . S
C2923 C2927 1.393 . S
C2924 H2913 0.950 . S
C2924 C2922 1.391 . S
C2924 C2925 1.400 . S
C2925 C2919 1.491 . S
C2925 C2924 1.400 . S
C2925 C2926 1.398 . S
C2926 H2914 0.950 . S
C2926 C2925 1.398 . S
C2926 C2927 1.391 . S
C2927 H2915 0.950 . S
C2927 C2923 1.393 . S
C2927 C2926 1.391 . S
H2928 C2936 0.950 . S
H2929 C2941 0.950 . S
H2930 C2938 0.950 . S
H2931 C2940 0.950 . S
H2932 C2942 0.950 . S
H2933 C2944 0.950 . S
H2934 C2946 0.950 . S
H2935 C2947 0.950 . S
C2936 H2928 0.950 . S
C2936 C2937 1.386 . S
C2936 C2938 1.391 . S
C2937 C2936 1.386 . S
C2937 C2941 1.393 . S
C2938 H2930 0.950 . S
C2938 C2936 1.391 . S
C2938 C2939 1.400 . S
C2939 C2938 1.400 . S
C2939 C2940 1.398 . S
C2939 C2945 1.491 . S
C2940 H2931 0.950 . S
C2940 C2939 1.398 . S
C2940 C2941 1.391 . S
C2941 H2929 0.950 . S
C2941 C2937 1.393 . S
C2941 C2940 1.391 . S
C2942 H2932 0.950 . S
C2942 C2943 1.386 . S
C2942 C2944 1.391 . S
C2943 C2942 1.386 . S
C2943 C2947 1.393 . S
C2944 H2933 0.950 . S
C2944 C2942 1.391 . S
C2944 C2945 1.400 . S
C2945 C2939 1.491 . S
C2945 C2944 1.400 . S
C2945 C2946 1.398 . S
C2946 H2934 0.950 . S
C2946 C2945 1.398 . S
C2946 C2947 1.391 . S
C2947 H2935 0.950 . S
C2947 C2943 1.393 . S
C2947 C2946 1.391 . S
H2948 C2956 0.950 . S
H2949 C2961 0.950 . S
H2950 C2958 0.950 . S
H2951 C2960 0.950 . S
H2952 C2962 0.950 . S
H2953 C2964 0.950 . S
H2954 C2966 0.950 . S
H2955 C2967 0.950 . S
C2956 H2948 0.950 . S
C2956 C2957 1.386 . S
C2956 C2958 1.391 . S
C2957 C2956 1.386 . S
C2957 C2961 1.393 . S
C2958 H2950 0.950 . S
C2958 C2956 1.391 . S
C2958 C2959 1.400 . S
C2959 C2958 1.400 . S
C2959 C2960 1.398 . S
C2959 C2965 1.491 . S
C2960 H2951 0.950 . S
C2960 C2959 1.398 . S
C2960 C2961 1.391 . S
C2961 H2949 0.950 . S
C2961 C2957 1.393 . S
C2961 C2960 1.391 . S
C2962 H2952 0.950 . S
C2962 C2963 1.386 . S
C2962 C2964 1.391 . S
C2963 C2962 1.386 . S
C2963 C2967 1.393 . S
C2964 H2953 0.950 . S
C2964 C2962 1.391 . S
C2964 C2965 1.400 . S
C2965 C2959 1.491 . S
C2965 C2964 1.400 . S
C2965 C2966 1.398 . S
C2966 H2954 0.950 . S
C2966 C2965 1.398 . S
C2966 C2967 1.391 . S
C2967 H2955 0.950 . S
C2967 C2963 1.393 . S
C2967 C2966 1.391 . S
H2968 C2976 0.950 . S
H2969 C2981 0.950 . S
H2970 C2978 0.950 . S
H2971 C2980 0.950 . S
H2972 C2982 0.950 . S
H2973 C2984 0.950 . S
H2974 C2986 0.950 . S
H2975 C2987 0.950 . S
C2976 H2968 0.950 . S
C2976 C2977 1.386 . S
C2976 C2978 1.391 . S
C2977 C2976 1.386 . S
C2977 C2981 1.393 . S
C2978 H2970 0.950 . S
C2978 C2976 1.391 . S
C2978 C2979 1.400 . S
C2979 C2978 1.400 . S
C2979 C2980 1.398 . S
C2979 C2985 1.491 . S
C2980 H2971 0.950 . S
C2980 C2979 1.398 . S
C2980 C2981 1.391 . S
C2981 H2969 0.950 . S
C2981 C2977 1.393 . S
C2981 C2980 1.391 . S
C2982 H2972 0.950 . S
C2982 C2983 1.386 . S
C2982 C2984 1.391 . S
C2983 C2982 1.386 . S
C2983 C2987 1.393 . S
C2984 H2973 0.950 . S
C2984 C2982 1.391 . S
C2984 C2985 1.400 . S
C2985 C2979 1.491 . S
C2985 C2984 1.400 . S
C2985 C2986 1.398 . S
C2986 H2974 0.950 . S
C2986 C2985 1.398 . S
C2986 C2987 1.391 . S
C2987 H2975 0.950 . S
C2987 C2983 1.393 . S
C2987 C2986 1.391 . S
H2988 C2996 0.950 . S
H2989 C3001 0.950 . S
H2990 C2998 0.950 . S
H2991 C3000 0.950 . S
H2992 C3002 0.950 . S
H2993 C3004 0.950 . S
H2994 C3006 0.950 . S
H2995 C3007 0.950 . S
C2996 H2988 0.950 . S
C2996 C2997 1.386 . S
C2996 C2998 1.391 . S
C2997 C2996 1.386 . S
C2997 C3001 1.393 . S
C2998 H2990 0.950 . S
C2998 C2996 1.391 . S
C2998 C2999 1.400 . S
C2999 C2998 1.400 . S
C2999 C3000 1.398 . S
C2999 C3005 1.491 . S
C3000 H2991 0.950 . S
C3000 C2999 1.398 . S
C3000 C3001 1.391 . S
C3001 H2989 0.950 . S
C3001 C2997 1.393 . S
C3001 C3000 1.391 . S
C3002 H2992 0.950 . S
C3002 C3003 1.386 . S
C3002 C3004 1.391 . S
C3003 C3002 1.386 . S
C3003 C3007 1.393 . S
C3004 H2993 0.950 . S
C3004 C3002 1.391 . S
C3004 C3005 1.400 . S
C3005 C2999 1.491 . S
C3005 C3004 1.400 . S
C3005 C3006 1.398 . S
C3006 H2994 0.950 . S
C3006 C3005 1.398 . S
C3006 C3007 1.391 . S
C3007 H2995 0.950 . S
C3007 C3003 1.393 . S
C3007 C3006 1.391 . S
H3008 C3016 0.950 . S
H3009 C3021 0.950 . S
H3010 C3018 0.950 . S
H3011 C3020 0.950 . S
H3012 C3022 0.950 . S
H3013 C3024 0.950 . S
H3014 C3026 0.950 . S
H3015 C3027 0.950 . S
C3016 H3008 0.950 . S
C3016 C3017 1.386 . S
C3016 C3018 1.391 . S
C3017 C3016 1.386 . S
C3017 C3021 1.393 . S
C3018 H3010 0.950 . S
C3018 C3016 1.391 . S
C3018 C3019 1.400 . S
C3019 C3018 1.400 . S
C3019 C3020 1.398 . S
C3019 C3025 1.491 . S
C3020 H3011 0.950 . S
C3020 C3019 1.398 . S
C3020 C3021 1.391 . S
C3021 H3009 0.950 . S
C3021 C3017 1.393 . S
C3021 C3020 1.391 . S
C3022 H3012 0.950 . S
C3022 C3023 1.386 . S
C3022 C3024 1.391 . S
C3023 C3022 1.386 . S
C3023 C3027 1.393 . S
C3024 H3013 0.950 . S
C3024 C3022 1.391 . S
C3024 C3025 1.400 . S
C3025 C3019 1.491 . S
C3025 C3024 1.400 . S
C3025 C3026 1.398 . S
C3026 H3014 0.950 . S
C3026 C3025 1.398 . S
C3026 C3027 1.391 . S
C3027 H3015 0.950 . S
C3027 C3023 1.393 . S
C3027 C3026 1.391 . S
H3028 C3036 0.950 . S
H3029 C3041 0.950 . S
H3030 C3038 0.950 . S
H3031 C3040 0.950 . S
H3032 C3042 0.950 . S
H3033 C3044 0.950 . S
H3034 C3046 0.950 . S
H3035 C3047 0.950 . S
C3036 H3028 0.950 . S
C3036 C3037 1.386 . S
C3036 C3038 1.391 . S
C3037 C3036 1.386 . S
C3037 C3041 1.393 . S
C3038 H3030 0.950 . S
C3038 C3036 1.391 . S
C3038 C3039 1.400 . S
C3039 C3038 1.400 . S
C3039 C3040 1.398 . S
C3039 C3045 1.491 . S
C3040 H3031 0.950 . S
C3040 C3039 1.398 . S
C3040 C3041 1.391 . S
C3041 H3029 0.950 . S
C3041 C3037 1.393 . S
C3041 C3040 1.391 . S
C3042 H3032 0.950 . S
C3042 C3043 1.386 . S
C3042 C3044 1.391 . S
C3043 C3042 1.386 . S
C3043 C3047 1.393 . S
C3044 H3033 0.950 . S
C3044 C3042 1.391 . S
C3044 C3045 1.400 . S
C3045 C3039 1.491 . S
C3045 C3044 1.400 . S
C3045 C3046 1.398 . S
C3046 H3034 0.950 . S
C3046 C3045 1.398 . S
C3046 C3047 1.391 . S
C3047 H3035 0.950 . S
C3047 C3043 1.393 . S
C3047 C3046 1.391 . S
H3048 C3056 0.950 . S
H3049 C3061 0.950 . S
H3050 C3058 0.950 . S
H3051 C3060 0.950 . S
H3052 C3062 0.950 . S
H3053 C3064 0.950 . S
H3054 C3066 0.950 . S
H3055 C3067 0.950 . S
C3056 H3048 0.950 . S
C3056 C3057 1.386 . S
C3056 C3058 1.391 . S
C3057 C3056 1.386 . S
C3057 C3061 1.393 . S
C3058 H3050 0.950 . S
C3058 C3056 1.391 . S
C3058 C3059 1.400 . S
C3059 C3058 1.400 . S
C3059 C3060 1.398 . S
C3059 C3065 1.491 . S
C3060 H3051 0.950 . S
C3060 C3059 1.398 . S
C3060 C3061 1.391 . S
C3061 H3049 0.950 . S
C3061 C3057 1.393 . S
C3061 C3060 1.391 . S
C3062 H3052 0.950 . S
C3062 C3063 1.386 . S
C3062 C3064 1.391 . S
C3063 C3062 1.386 . S
C3063 C3067 1.393 . S
C3064 H3053 0.950 . S
C3064 C3062 1.391 . S
C3064 C3065 1.400 . S
C3065 C3059 1.491 . S
C3065 C3064 1.400 . S
C3065 C3066 1.398 . S
C3066 H3054 0.950 . S
C3066 C3065 1.398 . S
C3066 C3067 1.391 . S
C3067 H3055 0.950 . S
C3067 C3063 1.393 . S
C3067 C3066 1.391 . S
H3068 C3076 0.950 . S
H3069 C3081 0.950 . S
H3070 C3078 0.950 . S
H3071 C3080 0.950 . S
H3072 C3082 0.950 . S
H3073 C3084 0.950 . S
H3074 C3086 0.950 . S
H3075 C3087 0.950 . S
C3076 H3068 0.950 . S
C3076 C3077 1.386 . S
C3076 C3078 1.391 . S
C3077 C3076 1.386 . S
C3077 C3081 1.393 . S
C3078 H3070 0.950 . S
C3078 C3076 1.391 . S
C3078 C3079 1.400 . S
C3079 C3078 1.400 . S
C3079 C3080 1.398 . S
C3079 C3085 1.491 . S
C3080 H3071 0.950 . S
C3080 C3079 1.398 . S
C3080 C3081 1.391 . S
C3081 H3069 0.950 . S
C3081 C3077 1.393 . S
C3081 C3080 1.391 . S
C3082 H3072 0.950 . S
C3082 C3083 1.386 . S
C3082 C3084 1.391 . S
C3083 C3082 1.386 . S
C3083 C3087 1.393 . S
C3084 H3073 0.950 . S
C3084 C3082 1.391 . S
C3084 C3085 1.400 . S
C3085 C3079 1.491 . S
C3085 C3084 1.400 . S
C3085 C3086 1.398 . S
C3086 H3074 0.950 . S
C3086 C3085 1.398 . S
C3086 C3087 1.391 . S
C3087 H3075 0.950 . S
C3087 C3083 1.393 . S
C3087 C3086 1.391 . S
H3088 C3096 0.950 . S
H3089 C3101 0.950 . S
H3090 C3098 0.950 . S
H3091 C3100 0.950 . S
H3092 C3102 0.950 . S
H3093 C3104 0.950 . S
H3094 C3106 0.950 . S
H3095 C3107 0.950 . S
C3096 H3088 0.950 . S
C3096 C3097 1.386 . S
C3096 C3098 1.391 . S
C3097 C3096 1.386 . S
C3097 C3101 1.393 . S
C3098 H3090 0.950 . S
C3098 C3096 1.391 . S
C3098 C3099 1.400 . S
C3099 C3098 1.400 . S
C3099 C3100 1.398 . S
C3099 C3105 1.491 . S
C3100 H3091 0.950 . S
C3100 C3099 1.398 . S
C3100 C3101 1.391 . S
C3101 H3089 0.950 . S
C3101 C3097 1.393 . S
C3101 C3100 1.391 . S
C3102 H3092 0.950 . S
C3102 C3103 1.386 . S
C3102 C3104 1.391 . S
C3103 C3102 1.386 . S
C3103 C3107 1.393 . S
C3104 H3093 0.950 . S
C3104 C3102 1.391 . S
C3104 C3105 1.400 . S
C3105 C3099 1.491 . S
C3105 C3104 1.400 . S
C3105 C3106 1.398 . S
C3106 H3094 0.950 . S
C3106 C3105 1.398 . S
C3106 C3107 1.391 . S
C3107 H3095 0.950 . S
C3107 C3103 1.393 . S
C3107 C3106 1.391 . S
H3108 C3116 0.950 . S
H3109 C3121 0.950 . S
H3110 C3118 0.950 . S
H3111 C3120 0.950 . S
H3112 C3122 0.950 . S
H3113 C3124 0.950 . S
H3114 C3126 0.950 . S
H3115 C3127 0.950 . S
C3116 H3108 0.950 . S
C3116 C3117 1.386 . S
C3116 C3118 1.391 . S
C3117 C3116 1.386 . S
C3117 C3121 1.393 . S
C3118 H3110 0.950 . S
C3118 C3116 1.391 . S
C3118 C3119 1.400 . S
C3119 C3118 1.400 . S
C3119 C3120 1.398 . S
C3119 C3125 1.491 . S
C3120 H3111 0.950 . S
C3120 C3119 1.398 . S
C3120 C3121 1.391 . S
C3121 H3109 0.950 . S
C3121 C3117 1.393 . S
C3121 C3120 1.391 . S
C3122 H3112 0.950 . S
C3122 C3123 1.386 . S
C3122 C3124 1.391 . S
C3123 C3122 1.386 . S
C3123 C3127 1.393 . S
C3124 H3113 0.950 . S
C3124 C3122 1.391 . S
C3124 C3125 1.400 . S
C3125 C3119 1.491 . S
C3125 C3124 1.400 . S
C3125 C3126 1.398 . S
C3126 H3114 0.950 . S
C3126 C3125 1.398 . S
C3126 C3127 1.391 . S
C3127 H3115 0.950 . S
C3127 C3123 1.393 . S
C3127 C3126 1.391 . S
H3128 C3136 0.950 . S
H3129 C3141 0.950 . S
H3130 C3138 0.950 . S
H3131 C3140 0.950 . S
H3132 C3142 0.950 . S
H3133 C3144 0.950 . S
H3134 C3146 0.950 . S
H3135 C3147 0.950 . S
C3136 H3128 0.950 . S
C3136 C3137 1.386 . S
C3136 C3138 1.391 . S
C3137 C3136 1.386 . S
C3137 C3141 1.393 . S
C3138 H3130 0.950 . S
C3138 C3136 1.391 . S
C3138 C3139 1.400 . S
C3139 C3138 1.400 . S
C3139 C3140 1.398 . S
C3139 C3145 1.491 . S
C3140 H3131 0.950 . S
C3140 C3139 1.398 . S
C3140 C3141 1.391 . S
C3141 H3129 0.950 . S
C3141 C3137 1.393 . S
C3141 C3140 1.391 . S
C3142 H3132 0.950 . S
C3142 C3143 1.386 . S
C3142 C3144 1.391 . S
C3143 C3142 1.386 . S
C3143 C3147 1.393 . S
C3144 H3133 0.950 . S
C3144 C3142 1.391 . S
C3144 C3145 1.400 . S
C3145 C3139 1.491 . S
C3145 C3144 1.400 . S
C3145 C3146 1.398 . S
C3146 H3134 0.950 . S
C3146 C3145 1.398 . S
C3146 C3147 1.391 . S
C3147 H3135 0.950 . S
C3147 C3143 1.393 . S
C3147 C3146 1.391 . S
H3148 C3156 0.950 . S
H3149 C3161 0.950 . S
H3150 C3158 0.950 . S
H3151 C3160 0.950 . S
H3152 C3162 0.950 . S
H3153 C3164 0.950 . S
H3154 C3166 0.950 . S
H3155 C3167 0.950 . S
C3156 H3148 0.950 . S
C3156 C3157 1.386 . S
C3156 C3158 1.391 . S
C3157 C3156 1.386 . S
C3157 C3161 1.393 . S
C3158 H3150 0.950 . S
C3158 C3156 1.391 . S
C3158 C3159 1.400 . S
C3159 C3158 1.400 . S
C3159 C3160 1.398 . S
C3159 C3165 1.491 . S
C3160 H3151 0.950 . S
C3160 C3159 1.398 . S
C3160 C3161 1.391 . S
C3161 H3149 0.950 . S
C3161 C3157 1.393 . S
C3161 C3160 1.391 . S
C3162 H3152 0.950 . S
C3162 C3163 1.386 . S
C3162 C3164 1.391 . S
C3163 C3162 1.386 . S
C3163 C3167 1.393 . S
C3164 H3153 0.950 . S
C3164 C3162 1.391 . S
C3164 C3165 1.400 . S
C3165 C3159 1.491 . S
C3165 C3164 1.400 . S
C3165 C3166 1.398 . S
C3166 H3154 0.950 . S
C3166 C3165 1.398 . S
C3166 C3167 1.391 . S
C3167 H3155 0.950 . S
C3167 C3163 1.393 . S
C3167 C3166 1.391 . S
H3168 C3176 0.950 . S
H3169 C3181 0.950 . S
H3170 C3178 0.950 . S
H3171 C3180 0.950 . S
H3172 C3182 0.950 . S
H3173 C3184 0.950 . S
H3174 C3186 0.950 . S
H3175 C3187 0.950 . S
C3176 H3168 0.950 . S
C3176 C3177 1.386 . S
C3176 C3178 1.391 . S
C3177 C3176 1.386 . S
C3177 C3181 1.393 . S
C3178 H3170 0.950 . S
C3178 C3176 1.391 . S
C3178 C3179 1.400 . S
C3179 C3178 1.400 . S
C3179 C3180 1.398 . S
C3179 C3185 1.491 1_554 S
C3180 H3171 0.950 . S
C3180 C3179 1.398 . S
C3180 C3181 1.391 . S
C3181 H3169 0.950 . S
C3181 C3177 1.393 . S
C3181 C3180 1.391 . S
C3182 H3172 0.950 . S
C3182 C3183 1.386 . S
C3182 C3184 1.391 . S
C3183 C3182 1.386 . S
C3183 C3187 1.393 . S
C3184 H3173 0.950 . S
C3184 C3182 1.391 . S
C3184 C3185 1.400 . S
C3185 C3179 1.491 1_556 S
C3185 C3184 1.400 . S
C3185 C3186 1.398 . S
C3186 H3174 0.950 . S
C3186 C3185 1.398 . S
C3186 C3187 1.391 . S
C3187 H3175 0.950 . S
C3187 C3183 1.393 . S
C3187 C3186 1.391 . S
H3188 C3196 0.950 . S
H3189 C3201 0.950 . S
H3190 C3198 0.950 . S
H3191 C3200 0.950 . S
H3192 C3202 0.950 . S
H3193 C3204 0.950 . S
H3194 C3206 0.950 . S
H3195 C3207 0.950 . S
C3196 H3188 0.950 . S
C3196 C3197 1.386 . S
C3196 C3198 1.391 . S
C3197 C3196 1.386 . S
C3197 C3201 1.393 . S
C3198 H3190 0.950 . S
C3198 C3196 1.391 . S
C3198 C3199 1.400 . S
C3199 C3198 1.400 . S
C3199 C3200 1.398 . S
C3199 C3205 1.491 1_556 S
C3200 H3191 0.950 . S
C3200 C3199 1.398 . S
C3200 C3201 1.391 . S
C3201 H3189 0.950 . S
C3201 C3197 1.393 . S
C3201 C3200 1.391 . S
C3202 H3192 0.950 . S
C3202 C3203 1.386 . S
C3202 C3204 1.391 . S
C3203 C3202 1.386 . S
C3203 C3207 1.393 . S
C3204 H3193 0.950 . S
C3204 C3202 1.391 . S
C3204 C3205 1.400 . S
C3205 C3199 1.491 1_554 S
C3205 C3204 1.400 . S
C3205 C3206 1.398 . S
C3206 H3194 0.950 . S
C3206 C3205 1.398 . S
C3206 C3207 1.391 . S
C3207 H3195 0.950 . S
C3207 C3203 1.393 . S
C3207 C3206 1.391 . S
H3208 C3216 0.950 . S
H3209 C3221 0.950 . S
H3210 C3218 0.950 . S
H3211 C3220 0.950 . S
H3212 C3222 0.950 . S
H3213 C3224 0.950 . S
H3214 C3226 0.950 . S
H3215 C3227 0.950 . S
C3216 H3208 0.950 . S
C3216 C3217 1.386 . S
C3216 C3218 1.391 . S
C3217 C3216 1.386 . S
C3217 C3221 1.393 . S
C3218 H3210 0.950 . S
C3218 C3216 1.391 . S
C3218 C3219 1.400 . S
C3219 C3218 1.400 . S
C3219 C3220 1.398 . S
C3219 C3225 1.491 1_554 S
C3220 H3211 0.950 . S
C3220 C3219 1.398 . S
C3220 C3221 1.391 . S
C3221 H3209 0.950 . S
C3221 C3217 1.393 . S
C3221 C3220 1.391 . S
C3222 H3212 0.950 . S
C3222 C3223 1.386 . S
C3222 C3224 1.391 . S
C3223 C3222 1.386 . S
C3223 C3227 1.393 . S
C3224 H3213 0.950 . S
C3224 C3222 1.391 . S
C3224 C3225 1.400 . S
C3225 C3219 1.491 1_556 S
C3225 C3224 1.400 . S
C3225 C3226 1.398 . S
C3226 H3214 0.950 . S
C3226 C3225 1.398 . S
C3226 C3227 1.391 . S
C3227 H3215 0.950 . S
C3227 C3223 1.393 . S
C3227 C3226 1.391 . S
H3228 C3236 0.950 . S
H3229 C3241 0.950 . S
H3230 C3238 0.950 . S
H3231 C3240 0.950 . S
H3232 C3242 0.950 . S
H3233 C3244 0.950 . S
H3234 C3246 0.950 . S
H3235 C3247 0.950 . S
C3236 H3228 0.950 . S
C3236 C3237 1.386 . S
C3236 C3238 1.391 . S
C3237 C3236 1.386 . S
C3237 C3241 1.393 . S
C3238 H3230 0.950 . S
C3238 C3236 1.391 . S
C3238 C3239 1.400 . S
C3239 C3238 1.400 . S
C3239 C3240 1.398 . S
C3239 C3245 1.491 1_554 S
C3240 H3231 0.950 . S
C3240 C3239 1.398 . S
C3240 C3241 1.391 . S
C3241 H3229 0.950 . S
C3241 C3237 1.393 . S
C3241 C3240 1.391 . S
C3242 H3232 0.950 . S
C3242 C3243 1.386 . S
C3242 C3244 1.391 . S
C3243 C3242 1.386 . S
C3243 C3247 1.393 . S
C3244 H3233 0.950 . S
C3244 C3242 1.391 . S
C3244 C3245 1.400 . S
C3245 C3239 1.491 1_556 S
C3245 C3244 1.400 . S
C3245 C3246 1.398 . S
C3246 H3234 0.950 . S
C3246 C3245 1.398 . S
C3246 C3247 1.391 . S
C3247 H3235 0.950 . S
C3247 C3243 1.393 . S
C3247 C3246 1.391 . S
H3248 C3256 0.950 . S
H3249 C3261 0.950 . S
H3250 C3258 0.950 . S
H3251 C3260 0.950 . S
H3252 C3262 0.950 . S
H3253 C3264 0.950 . S
H3254 C3266 0.950 . S
H3255 C3267 0.950 . S
C3256 H3248 0.950 . S
C3256 C3257 1.386 . S
C3256 C3258 1.391 . S
C3257 C3256 1.386 . S
C3257 C3261 1.393 . S
C3258 H3250 0.950 . S
C3258 C3256 1.391 . S
C3258 C3259 1.400 . S
C3259 C3258 1.400 . S
C3259 C3260 1.398 . S
C3259 C3265 1.491 1_556 S
C3260 H3251 0.950 . S
C3260 C3259 1.398 . S
C3260 C3261 1.391 . S
C3261 H3249 0.950 . S
C3261 C3257 1.393 . S
C3261 C3260 1.391 . S
C3262 H3252 0.950 . S
C3262 C3263 1.386 . S
C3262 C3264 1.391 . S
C3263 C3262 1.386 . S
C3263 C3267 1.393 . S
C3264 H3253 0.950 . S
C3264 C3262 1.391 . S
C3264 C3265 1.400 . S
C3265 C3259 1.491 1_554 S
C3265 C3264 1.400 . S
C3265 C3266 1.398 . S
C3266 H3254 0.950 . S
C3266 C3265 1.398 . S
C3266 C3267 1.391 . S
C3267 H3255 0.950 . S
C3267 C3263 1.393 . S
C3267 C3266 1.391 . S
H3268 C3276 0.950 . S
H3269 C3281 0.950 . S
H3270 C3278 0.950 . S
H3271 C3280 0.950 . S
H3272 C3282 0.950 . S
H3273 C3284 0.950 . S
H3274 C3286 0.950 . S
H3275 C3287 0.950 . S
C3276 H3268 0.950 . S
C3276 C3277 1.386 . S
C3276 C3278 1.391 . S
C3277 C3276 1.386 . S
C3277 C3281 1.393 . S
C3278 H3270 0.950 . S
C3278 C3276 1.391 . S
C3278 C3279 1.400 . S
C3279 C3278 1.400 . S
C3279 C3280 1.398 . S
C3279 C3285 1.491 1_554 S
C3280 H3271 0.950 . S
C3280 C3279 1.398 . S
C3280 C3281 1.391 . S
C3281 H3269 0.950 . S
C3281 C3277 1.393 . S
C3281 C3280 1.391 . S
C3282 H3272 0.950 . S
C3282 C3283 1.386 . S
C3282 C3284 1.391 . S
C3283 C3282 1.386 . S
C3283 C3287 1.393 . S
C3284 H3273 0.950 . S
C3284 C3282 1.391 . S
C3284 C3285 1.400 . S
C3285 C3279 1.491 1_556 S
C3285 C3284 1.400 . S
C3285 C3286 1.398 . S
C3286 H3274 0.950 . S
C3286 C3285 1.398 . S
C3286 C3287 1.391 . S
C3287 H3275 0.950 . S
C3287 C3283 1.393 . S
C3287 C3286 1.391 . S
H3288 C3296 0.950 . S
H3289 C3301 0.950 . S
H3290 C3298 0.950 . S
H3291 C3300 0.950 . S
H3292 C3302 0.950 . S
H3293 C3304 0.950 . S
H3294 C3306 0.950 . S
H3295 C3307 0.950 . S
C3296 H3288 0.950 . S
C3296 C3297 1.386 . S
C3296 C3298 1.391 . S
C3297 C3296 1.386 . S
C3297 C3301 1.393 . S
C3298 H3290 0.950 . S
C3298 C3296 1.391 . S
C3298 C3299 1.400 . S
C3299 C3298 1.400 . S
C3299 C3300 1.398 . S
C3299 C3305 1.491 1_556 S
C3300 H3291 0.950 . S
C3300 C3299 1.398 . S
C3300 C3301 1.391 . S
C3301 H3289 0.950 . S
C3301 C3297 1.393 . S
C3301 C3300 1.391 . S
C3302 H3292 0.950 . S
C3302 C3303 1.386 . S
C3302 C3304 1.391 . S
C3303 C3302 1.386 . S
C3303 C3307 1.393 . S
C3304 H3293 0.950 . S
C3304 C3302 1.391 . S
C3304 C3305 1.400 . S
C3305 C3299 1.491 1_554 S
C3305 C3304 1.400 . S
C3305 C3306 1.398 . S
C3306 H3294 0.950 . S
C3306 C3305 1.398 . S
C3306 C3307 1.391 . S
C3307 H3295 0.950 . S
C3307 C3303 1.393 . S
C3307 C3306 1.391 . S
H3308 C3316 0.950 . S
H3309 C3321 0.950 . S
H3310 C3318 0.950 . S
H3311 C3320 0.950 . S
H3312 C3322 0.950 . S
H3313 C3324 0.950 . S
H3314 C3326 0.950 . S
H3315 C3327 0.950 . S
C3316 H3308 0.950 . S
C3316 C3317 1.386 . S
C3316 C3318 1.391 . S
C3317 C3316 1.386 . S
C3317 C3321 1.393 . S
C3318 H3310 0.950 . S
C3318 C3316 1.391 . S
C3318 C3319 1.400 . S
C3319 C3318 1.400 . S
C3319 C3320 1.398 . S
C3319 C3325 1.491 1_554 S
C3320 H3311 0.950 . S
C3320 C3319 1.398 . S
C3320 C3321 1.391 . S
C3321 H3309 0.950 . S
C3321 C3317 1.393 . S
C3321 C3320 1.391 . S
C3322 H3312 0.950 . S
C3322 C3323 1.386 . S
C3322 C3324 1.391 . S
C3323 C3322 1.386 . S
C3323 C3327 1.393 . S
C3324 H3313 0.950 . S
C3324 C3322 1.391 . S
C3324 C3325 1.400 . S
C3325 C3319 1.491 1_556 S
C3325 C3324 1.400 . S
C3325 C3326 1.398 . S
C3326 H3314 0.950 . S
C3326 C3325 1.398 . S
C3326 C3327 1.391 . S
C3327 H3315 0.950 . S
C3327 C3323 1.393 . S
C3327 C3326 1.391 . S
H3328 C3336 0.950 . S
H3329 C3341 0.950 . S
H3330 C3338 0.950 . S
H3331 C3340 0.950 . S
H3332 C3342 0.950 . S
H3333 C3344 0.950 . S
H3334 C3346 0.950 . S
H3335 C3347 0.950 . S
C3336 H3328 0.950 . S
C3336 C3337 1.386 . S
C3336 C3338 1.391 . S
C3337 C3336 1.386 . S
C3337 C3341 1.393 . S
C3338 H3330 0.950 . S
C3338 C3336 1.391 . S
C3338 C3339 1.400 . S
C3339 C3338 1.400 . S
C3339 C3340 1.398 . S
C3339 C3345 1.491 1_455 S
C3340 H3331 0.950 . S
C3340 C3339 1.398 . S
C3340 C3341 1.391 . S
C3341 H3329 0.950 . S
C3341 C3337 1.393 . S
C3341 C3340 1.391 . S
C3342 H3332 0.950 . S
C3342 C3343 1.386 . S
C3342 C3344 1.391 . S
C3343 C3342 1.386 . S
C3343 C3347 1.393 . S
C3344 H3333 0.950 . S
C3344 C3342 1.391 . S
C3344 C3345 1.400 . S
C3345 C3339 1.491 1_655 S
C3345 C3344 1.400 . S
C3345 C3346 1.398 . S
C3346 H3334 0.950 . S
C3346 C3345 1.398 . S
C3346 C3347 1.391 . S
C3347 H3335 0.950 . S
C3347 C3343 1.393 . S
C3347 C3346 1.391 . S
H3348 C3356 0.950 . S
H3349 C3361 0.950 . S
H3350 C3358 0.950 . S
H3351 C3360 0.950 . S
H3352 C3362 0.950 . S
H3353 C3364 0.950 . S
H3354 C3366 0.950 . S
H3355 C3367 0.950 . S
C3356 H3348 0.950 . S
C3356 C3357 1.386 . S
C3356 C3358 1.391 . S
C3357 C3356 1.386 . S
C3357 C3361 1.393 . S
C3358 H3350 0.950 . S
C3358 C3356 1.391 . S
C3358 C3359 1.400 . S
C3359 C3358 1.400 . S
C3359 C3360 1.398 . S
C3359 C3365 1.491 1_565 S
C3360 H3351 0.950 . S
C3360 C3359 1.398 . S
C3360 C3361 1.391 . S
C3361 H3349 0.950 . S
C3361 C3357 1.393 . S
C3361 C3360 1.391 . S
C3362 H3352 0.950 . S
C3362 C3363 1.386 . S
C3362 C3364 1.391 . S
C3363 C3362 1.386 . S
C3363 C3367 1.393 . S
C3364 H3353 0.950 . S
C3364 C3362 1.391 . S
C3364 C3365 1.400 . S
C3365 C3359 1.491 1_545 S
C3365 C3364 1.400 . S
C3365 C3366 1.398 . S
C3366 H3354 0.950 . S
C3366 C3365 1.398 . S
C3366 C3367 1.391 . S
C3367 H3355 0.950 . S
C3367 C3363 1.393 . S
C3367 C3366 1.391 . S
H3368 C3376 0.950 . S
H3369 C3381 0.950 . S
H3370 C3378 0.950 . S
H3371 C3380 0.950 . S
H3372 C3382 0.950 . S
H3373 C3384 0.950 . S
H3374 C3386 0.950 . S
H3375 C3387 0.950 . S
C3376 H3368 0.950 . S
C3376 C3377 1.386 . S
C3376 C3378 1.391 . S
C3377 C3376 1.386 . S
C3377 C3381 1.393 . S
C3378 H3370 0.950 . S
C3378 C3376 1.391 . S
C3378 C3379 1.400 . S
C3379 C3378 1.400 . S
C3379 C3380 1.398 . S
C3379 C3385 1.491 1_455 S
C3380 H3371 0.950 . S
C3380 C3379 1.398 . S
C3380 C3381 1.391 . S
C3381 H3369 0.950 . S
C3381 C3377 1.393 . S
C3381 C3380 1.391 . S
C3382 H3372 0.950 . S
C3382 C3383 1.386 . S
C3382 C3384 1.391 . S
C3383 C3382 1.386 . S
C3383 C3387 1.393 . S
C3384 H3373 0.950 . S
C3384 C3382 1.391 . S
C3384 C3385 1.400 . S
C3385 C3379 1.491 1_655 S
C3385 C3384 1.400 . S
C3385 C3386 1.398 . S
C3386 H3374 0.950 . S
C3386 C3385 1.398 . S
C3386 C3387 1.391 . S
C3387 H3375 0.950 . S
C3387 C3383 1.393 . S
C3387 C3386 1.391 . S
H3388 C3396 0.950 . S
H3389 C3401 0.950 . S
H3390 C3398 0.950 . S
H3391 C3400 0.950 . S
H3392 C3402 0.950 . S
H3393 C3404 0.950 . S
H3394 C3406 0.950 . S
H3395 C3407 0.950 . S
C3396 H3388 0.950 . S
C3396 C3397 1.386 . S
C3396 C3398 1.391 . S
C3397 C3396 1.386 . S
C3397 C3401 1.393 . S
C3398 H3390 0.950 . S
C3398 C3396 1.391 . S
C3398 C3399 1.400 . S
C3399 C3398 1.400 . S
C3399 C3400 1.398 . S
C3399 C3405 1.491 1_565 S
C3400 H3391 0.950 . S
C3400 C3399 1.398 . S
C3400 C3401 1.391 . S
C3401 H3389 0.950 . S
C3401 C3397 1.393 . S
C3401 C3400 1.391 . S
C3402 H3392 0.950 . S
C3402 C3403 1.386 . S
C3402 C3404 1.391 . S
C3403 C3402 1.386 . S
C3403 C3407 1.393 . S
C3404 H3393 0.950 . S
C3404 C3402 1.391 . S
C3404 C3405 1.400 . S
C3405 C3399 1.491 1_545 S
C3405 C3404 1.400 . S
C3405 C3406 1.398 . S
C3406 H3394 0.950 . S
C3406 C3405 1.398 . S
C3406 C3407 1.391 . S
C3407 H3395 0.950 . S
C3407 C3403 1.393 . S
C3407 C3406 1.391 . S
H3408 C3416 0.950 . S
H3409 C3421 0.950 . S
H3410 C3418 0.950 . S
H3411 C3420 0.950 . S
H3412 C3422 0.950 . S
H3413 C3424 0.950 . S
H3414 C3426 0.950 . S
H3415 C3427 0.950 . S
C3416 H3408 0.950 . S
C3416 C3417 1.386 . S
C3416 C3418 1.391 . S
C3417 C3416 1.386 . S
C3417 C3421 1.393 . S
C3418 H3410 0.950 . S
C3418 C3416 1.391 . S
C3418 C3419 1.400 . S
C3419 C3418 1.400 . S
C3419 C3420 1.398 . S
C3419 C3425 1.491 1_655 S
C3420 H3411 0.950 . S
C3420 C3419 1.398 . S
C3420 C3421 1.391 . S
C3421 H3409 0.950 . S
C3421 C3417 1.393 . S
C3421 C3420 1.391 . S
C3422 H3412 0.950 . S
C3422 C3423 1.386 . S
C3422 C3424 1.391 . S
C3423 C3422 1.386 . S
C3423 C3427 1.393 . S
C3424 H3413 0.950 . S
C3424 C3422 1.391 . S
C3424 C3425 1.400 . S
C3425 C3419 1.491 1_455 S
C3425 C3424 1.400 . S
C3425 C3426 1.398 . S
C3426 H3414 0.950 . S
C3426 C3425 1.398 . S
C3426 C3427 1.391 . S
C3427 H3415 0.950 . S
C3427 C3423 1.393 . S
C3427 C3426 1.391 . S
H3428 C3436 0.950 . S
H3429 C3441 0.950 . S
H3430 C3438 0.950 . S
H3431 C3440 0.950 . S
H3432 C3442 0.950 . S
H3433 C3444 0.950 . S
H3434 C3446 0.950 . S
H3435 C3447 0.950 . S
C3436 H3428 0.950 . S
C3436 C3437 1.386 . S
C3436 C3438 1.391 . S
C3437 C3436 1.386 . S
C3437 C3441 1.393 . S
C3438 H3430 0.950 . S
C3438 C3436 1.391 . S
C3438 C3439 1.400 . S
C3439 C3438 1.400 . S
C3439 C3440 1.398 . S
C3439 C3445 1.491 1_545 S
C3440 H3431 0.950 . S
C3440 C3439 1.398 . S
C3440 C3441 1.391 . S
C3441 H3429 0.950 . S
C3441 C3437 1.393 . S
C3441 C3440 1.391 . S
C3442 H3432 0.950 . S
C3442 C3443 1.386 . S
C3442 C3444 1.391 . S
C3443 C3442 1.386 . S
C3443 C3447 1.393 . S
C3444 H3433 0.950 . S
C3444 C3442 1.391 . S
C3444 C3445 1.400 . S
C3445 C3439 1.491 1_565 S
C3445 C3444 1.400 . S
C3445 C3446 1.398 . S
C3446 H3434 0.950 . S
C3446 C3445 1.398 . S
C3446 C3447 1.391 . S
C3447 H3435 0.950 . S
C3447 C3443 1.393 . S
C3447 C3446 1.391 . S
H3448 C3456 0.950 . S
H3449 C3461 0.950 . S
H3450 C3458 0.950 . S
H3451 C3460 0.950 . S
H3452 C3462 0.950 . S
H3453 C3464 0.950 . S
H3454 C3466 0.950 . S
H3455 C3467 0.950 . S
C3456 H3448 0.950 . S
C3456 C3457 1.386 . S
C3456 C3458 1.391 . S
C3457 C3456 1.386 . S
C3457 C3461 1.393 . S
C3458 H3450 0.950 . S
C3458 C3456 1.391 . S
C3458 C3459 1.400 . S
C3459 C3458 1.400 . S
C3459 C3460 1.398 . S
C3459 C3465 1.491 1_455 S
C3460 H3451 0.950 . S
C3460 C3459 1.398 . S
C3460 C3461 1.391 . S
C3461 H3449 0.950 . S
C3461 C3457 1.393 . S
C3461 C3460 1.391 . S
C3462 H3452 0.950 . S
C3462 C3463 1.386 . S
C3462 C3464 1.391 . S
C3463 C3462 1.386 . S
C3463 C3467 1.393 . S
C3464 H3453 0.950 . S
C3464 C3462 1.391 . S
C3464 C3465 1.400 . S
C3465 C3459 1.491 1_655 S
C3465 C3464 1.400 . S
C3465 C3466 1.398 . S
C3466 H3454 0.950 . S
C3466 C3465 1.398 . S
C3466 C3467 1.391 . S
C3467 H3455 0.950 . S
C3467 C3463 1.393 . S
C3467 C3466 1.391 . S
H3468 C3476 0.950 . S
H3469 C3481 0.950 . S
H3470 C3478 0.950 . S
H3471 C3480 0.950 . S
H3472 C3482 0.950 . S
H3473 C3484 0.950 . S
H3474 C3486 0.950 . S
H3475 C3487 0.950 . S
C3476 H3468 0.950 . S
C3476 C3477 1.386 . S
C3476 C3478 1.391 . S
C3477 C3476 1.386 . S
C3477 C3481 1.393 . S
C3478 H3470 0.950 . S
C3478 C3476 1.391 . S
C3478 C3479 1.400 . S
C3479 C3478 1.400 . S
C3479 C3480 1.398 . S
C3479 C3485 1.491 1_545 S
C3480 H3471 0.950 . S
C3480 C3479 1.398 . S
C3480 C3481 1.391 . S
C3481 H3469 0.950 . S
C3481 C3477 1.393 . S
C3481 C3480 1.391 . S
C3482 H3472 0.950 . S
C3482 C3483 1.386 . S
C3482 C3484 1.391 . S
C3483 C3482 1.386 . S
C3483 C3487 1.393 . S
C3484 H3473 0.950 . S
C3484 C3482 1.391 . S
C3484 C3485 1.400 . S
C3485 C3479 1.491 1_565 S
C3485 C3484 1.400 . S
C3485 C3486 1.398 . S
C3486 H3474 0.950 . S
C3486 C3485 1.398 . S
C3486 C3487 1.391 . S
C3487 H3475 0.950 . S
C3487 C3483 1.393 . S
C3487 C3486 1.391 . S
H3488 C3496 0.950 . S
H3489 C3501 0.950 . S
H3490 C3498 0.950 . S
H3491 C3500 0.950 . S
H3492 C3502 0.950 . S
H3493 C3504 0.950 . S
H3494 C3506 0.950 . S
H3495 C3507 0.950 . S
C3496 H3488 0.950 . S
C3496 C3497 1.386 . S
C3496 C3498 1.391 . S
C3497 C3496 1.386 . S
C3497 C3501 1.393 . S
C3498 H3490 0.950 . S
C3498 C3496 1.391 . S
C3498 C3499 1.400 . S
C3499 C3498 1.400 . S
C3499 C3500 1.398 . S
C3499 C3505 1.491 1_545 S
C3500 H3491 0.950 . S
C3500 C3499 1.398 . S
C3500 C3501 1.391 . S
C3501 H3489 0.950 . S
C3501 C3497 1.393 . S
C3501 C3500 1.391 . S
C3502 H3492 0.950 . S
C3502 C3503 1.386 . S
C3502 C3504 1.391 . S
C3503 C3502 1.386 . S
C3503 C3507 1.393 . S
C3504 H3493 0.950 . S
C3504 C3502 1.391 . S
C3504 C3505 1.400 . S
C3505 C3499 1.491 1_565 S
C3505 C3504 1.400 . S
C3505 C3506 1.398 . S
C3506 H3494 0.950 . S
C3506 C3505 1.398 . S
C3506 C3507 1.391 . S
C3507 H3495 0.950 . S
C3507 C3503 1.393 . S
C3507 C3506 1.391 . S
H3508 C3516 0.950 . S
H3509 C3521 0.950 . S
H3510 C3518 0.950 . S
H3511 C3520 0.950 . S
H3512 C3522 0.950 . S
H3513 C3524 0.950 . S
H3514 C3526 0.950 . S
H3515 C3527 0.950 . S
C3516 H3508 0.950 . S
C3516 C3517 1.386 . S
C3516 C3518 1.391 . S
C3517 C3516 1.386 . S
C3517 C3521 1.393 . S
C3518 H3510 0.950 . S
C3518 C3516 1.391 . S
C3518 C3519 1.400 . S
C3519 C3518 1.400 . S
C3519 C3520 1.398 . S
C3519 C3525 1.491 1_545 S
C3520 H3511 0.950 . S
C3520 C3519 1.398 . S
C3520 C3521 1.391 . S
C3521 H3509 0.950 . S
C3521 C3517 1.393 . S
C3521 C3520 1.391 . S
C3522 H3512 0.950 . S
C3522 C3523 1.386 . S
C3522 C3524 1.391 . S
C3523 C3522 1.386 . S
C3523 C3527 1.393 . S
C3524 H3513 0.950 . S
C3524 C3522 1.391 . S
C3524 C3525 1.400 . S
C3525 C3519 1.491 1_565 S
C3525 C3524 1.400 . S
C3525 C3526 1.398 . S
C3526 H3514 0.950 . S
C3526 C3525 1.398 . S
C3526 C3527 1.391 . S
C3527 H3515 0.950 . S
C3527 C3523 1.393 . S
C3527 C3526 1.391 . S
H3528 C3536 0.950 . S
H3529 C3541 0.950 . S
H3530 C3538 0.950 . S
H3531 C3540 0.950 . S
H3532 C3542 0.950 . S
H3533 C3544 0.950 . S
H3534 C3546 0.950 . S
H3535 C3547 0.950 . S
C3536 H3528 0.950 . S
C3536 C3537 1.386 . S
C3536 C3538 1.391 . S
C3537 C3536 1.386 . S
C3537 C3541 1.393 . S
C3538 H3530 0.950 . S
C3538 C3536 1.391 . S
C3538 C3539 1.400 . S
C3539 C3538 1.400 . S
C3539 C3540 1.398 . S
C3539 C3545 1.491 1_655 S
C3540 H3531 0.950 . S
C3540 C3539 1.398 . S
C3540 C3541 1.391 . S
C3541 H3529 0.950 . S
C3541 C3537 1.393 . S
C3541 C3540 1.391 . S
C3542 H3532 0.950 . S
C3542 C3543 1.386 . S
C3542 C3544 1.391 . S
C3543 C3542 1.386 . S
C3543 C3547 1.393 . S
C3544 H3533 0.950 . S
C3544 C3542 1.391 . S
C3544 C3545 1.400 . S
C3545 C3539 1.491 1_455 S
C3545 C3544 1.400 . S
C3545 C3546 1.398 . S
C3546 H3534 0.950 . S
C3546 C3545 1.398 . S
C3546 C3547 1.391 . S
C3547 H3535 0.950 . S
C3547 C3543 1.393 . S
C3547 C3546 1.391 . S
H3548 C3556 0.950 . S
H3549 C3561 0.950 . S
H3550 C3558 0.950 . S
H3551 C3560 0.950 . S
H3552 C3562 0.950 . S
H3553 C3564 0.950 . S
H3554 C3566 0.950 . S
H3555 C3567 0.950 . S
C3556 H3548 0.950 . S
C3556 C3557 1.386 . S
C3556 C3558 1.391 . S
C3557 C3556 1.386 . S
C3557 C3561 1.393 . S
C3558 H3550 0.950 . S
C3558 C3556 1.391 . S
C3558 C3559 1.400 . S
C3559 C3558 1.400 . S
C3559 C3560 1.398 . S
C3559 C3565 1.491 1_545 S
C3560 H3551 0.950 . S
C3560 C3559 1.398 . S
C3560 C3561 1.391 . S
C3561 H3549 0.950 . S
C3561 C3557 1.393 . S
C3561 C3560 1.391 . S
C3562 H3552 0.950 . S
C3562 C3563 1.386 . S
C3562 C3564 1.391 . S
C3563 C3562 1.386 . S
C3563 C3567 1.393 . S
C3564 H3553 0.950 . S
C3564 C3562 1.391 . S
C3564 C3565 1.400 . S
C3565 C3559 1.491 1_565 S
C3565 C3564 1.400 . S
C3565 C3566 1.398 . S
C3566 H3554 0.950 . S
C3566 C3565 1.398 . S
C3566 C3567 1.391 . S
C3567 H3555 0.950 . S
C3567 C3563 1.393 . S
C3567 C3566 1.391 . S
H3568 C3576 0.950 . S
H3569 C3581 0.950 . S
H3570 C3578 0.950 . S
H3571 C3580 0.950 . S
H3572 C3582 0.950 . S
H3573 C3584 0.950 . S
H3574 C3586 0.950 . S
H3575 C3587 0.950 . S
C3576 H3568 0.950 . S
C3576 C3577 1.386 . S
C3576 C3578 1.391 . S
C3577 C3576 1.386 . S
C3577 C3581 1.393 . S
C3578 H3570 0.950 . S
C3578 C3576 1.391 . S
C3578 C3579 1.400 . S
C3579 C3578 1.400 . S
C3579 C3580 1.398 . S
C3579 C3585 1.491 1_455 S
C3580 H3571 0.950 . S
C3580 C3579 1.398 . S
C3580 C3581 1.391 . S
C3581 H3569 0.950 . S
C3581 C3577 1.393 . S
C3581 C3580 1.391 . S
C3582 H3572 0.950 . S
C3582 C3583 1.386 . S
C3582 C3584 1.391 . S
C3583 C3582 1.386 . S
C3583 C3587 1.393 . S
C3584 H3573 0.950 . S
C3584 C3582 1.391 . S
C3584 C3585 1.400 . S
C3585 C3579 1.491 1_655 S
C3585 C3584 1.400 . S
C3585 C3586 1.398 . S
C3586 H3574 0.950 . S
C3586 C3585 1.398 . S
C3586 C3587 1.391 . S
C3587 H3575 0.950 . S
C3587 C3583 1.393 . S
C3587 C3586 1.391 . S
H3588 C3596 0.950 . S
H3589 C3601 0.950 . S
H3590 C3598 0.950 . S
H3591 C3600 0.950 . S
H3592 C3602 0.950 . S
H3593 C3604 0.950 . S
H3594 C3606 0.950 . S
H3595 C3607 0.950 . S
C3596 H3588 0.950 . S
C3596 C3597 1.386 . S
C3596 C3598 1.391 . S
C3597 C3596 1.386 . S
C3597 C3601 1.393 . S
C3598 H3590 0.950 . S
C3598 C3596 1.391 . S
C3598 C3599 1.400 . S
C3599 C3598 1.400 . S
C3599 C3600 1.398 . S
C3599 C3605 1.491 1_545 S
C3600 H3591 0.950 . S
C3600 C3599 1.398 . S
C3600 C3601 1.391 . S
C3601 H3589 0.950 . S
C3601 C3597 1.393 . S
C3601 C3600 1.391 . S
C3602 H3592 0.950 . S
C3602 C3603 1.386 . S
C3602 C3604 1.391 . S
C3603 C3602 1.386 . S
C3603 C3607 1.393 . S
C3604 H3593 0.950 . S
C3604 C3602 1.391 . S
C3604 C3605 1.400 . S
C3605 C3599 1.491 1_565 S
C3605 C3604 1.400 . S
C3605 C3606 1.398 . S
C3606 H3594 0.950 . S
C3606 C3605 1.398 . S
C3606 C3607 1.391 . S
C3607 H3595 0.950 . S
C3607 C3603 1.393 . S
C3607 C3606 1.391 . S
H3608 C3616 0.950 . S
H3609 C3621 0.950 . S
H3610 C3618 0.950 . S
H3611 C3620 0.950 . S
H3612 C3622 0.950 . S
H3613 C3624 0.950 . S
H3614 C3626 0.950 . S
H3615 C3627 0.950 . S
C3616 H3608 0.950 . S
C3616 C3617 1.386 . S
C3616 C3618 1.391 . S
C3617 C3616 1.386 . S
C3617 C3621 1.393 . S
C3618 H3610 0.950 . S
C3618 C3616 1.391 . S
C3618 C3619 1.400 . S
C3619 C3618 1.400 . S
C3619 C3620 1.398 . S
C3619 C3625 1.491 1_655 S
C3620 H3611 0.950 . S
C3620 C3619 1.398 . S
C3620 C3621 1.391 . S
C3621 H3609 0.950 . S
C3621 C3617 1.393 . S
C3621 C3620 1.391 . S
C3622 H3612 0.950 . S
C3622 C3623 1.386 . S
C3622 C3624 1.391 . S
C3623 C3622 1.386 . S
C3623 C3627 1.393 . S
C3624 H3613 0.950 . S
C3624 C3622 1.391 . S
C3624 C3625 1.400 . S
C3625 C3619 1.491 1_455 S
C3625 C3624 1.400 . S
C3625 C3626 1.398 . S
C3626 H3614 0.950 . S
C3626 C3625 1.398 . S
C3626 C3627 1.391 . S
C3627 H3615 0.950 . S
C3627 C3623 1.393 . S
C3627 C3626 1.391 . S
H3628 C3636 0.950 . S
H3629 C3641 0.950 . S
H3630 C3638 0.950 . S
H3631 C3640 0.950 . S
H3632 C3642 0.950 . S
H3633 C3644 0.950 . S
H3634 C3646 0.950 . S
H3635 C3647 0.950 . S
C3636 H3628 0.950 . S
C3636 C3637 1.386 . S
C3636 C3638 1.391 . S
C3637 C3636 1.386 . S
C3637 C3641 1.393 . S
C3638 H3630 0.950 . S
C3638 C3636 1.391 . S
C3638 C3639 1.400 . S
C3639 C3638 1.400 . S
C3639 C3640 1.398 . S
C3639 C3645 1.491 1_455 S
C3640 H3631 0.950 . S
C3640 C3639 1.398 . S
C3640 C3641 1.391 . S
C3641 H3629 0.950 . S
C3641 C3637 1.393 . S
C3641 C3640 1.391 . S
C3642 H3632 0.950 . S
C3642 C3643 1.386 . S
C3642 C3644 1.391 . S
C3643 C3642 1.386 . S
C3643 C3647 1.393 . S
C3644 H3633 0.950 . S
C3644 C3642 1.391 . S
C3644 C3645 1.400 . S
C3645 C3639 1.491 1_655 S
C3645 C3644 1.400 . S
C3645 C3646 1.398 . S
C3646 H3634 0.950 . S
C3646 C3645 1.398 . S
C3646 C3647 1.391 . S
C3647 H3635 0.950 . S
C3647 C3643 1.393 . S
C3647 C3646 1.391 . S
C1737 C1418 1.263 . S
C1743 C14 1.287 . S
C1757 C39 1.123 . S
C1763 C1310 1.050 . S
C1777 C86 1.214 . S
C1783 C1346 1.173 . S
C1797 C1371 1.219 . S
C1803 C111 1.217 . S
C1817 C1191 1.206 . S
C1823 C147 1.208 . S
C1837 C194 1.197 . S
C1843 C1227 1.272 . S
C1857 C219 1.109 . S
C1863 C1274 1.047 . S
C1877 C266 1.293 . S
C1883 C1155 1.339 . S
C1897 C291 1.342 . S
C1903 C1130 1.256 . S
C1917 C1011 1.158 . S
C1923 C327 1.159 . S
C1937 C1058 1.224 . S
C1943 C374 1.180 . S
C1957 C410 1.078 . S
C1963 C1083 1.150 . S
C1977 C446 1.141 . S
C1983 C903 1.165 . S
C1997 C482 1.180 . S
C2003 C950 1.223 . S
C2017 C975 1.185 . S
C2023 C507 1.182 . S
C2037 C878 1.256 . S
C2043 C543 1.337 . S
C2057 C579 1.319 . S
C2063 C1587 1.324 . S
C2077 C1706 1.108 . S
C2083 C626 1.117 . S
C2097 C1623 1.284 . S
C2103 C651 1.283 . S
C2117 C1670 1.087 . S
C2123 C698 1.092 . S
C2137 C1443 1.353 . S
C2143 C723 1.357 . S
C2157 C1515 1.249 . S
C2163 C759 1.243 . S
C2177 C806 1.118 . S
C2183 C1562 1.082 . S
C2197 C1490 1.078 . S
C2203 C842 1.067 . S
C2217 C1166 1.281 . S
C2223 C734 1.267 . S
C2237 C615 1.218 . S
C2243 C1202 1.191 . S
C2257 C1238 1.167 . S
C2263 C662 1.222 . S
C2277 C1263 1.118 . S
C2283 C687 1.116 . S
C2297 C831 1.105 . S
C2303 C1299 1.112 . S
C2317 C1335 1.265 . S
C2323 C770 1.204 . S
C2337 C795 1.205 . S
C2343 C1382 1.178 . S
C2357 C590 1.291 . S
C2363 C1407 1.342 . S
C2377 C1454 1.295 . S
C2383 C554 1.271 . S
C2397 C435 1.143 . S
C2403 C1695 1.147 . S
C2417 C1634 1.214 . S
C2423 C471 1.256 . S
C2437 C518 1.091 . S
C2443 C1659 1.164 . S
C2457 C338 1.117 . S
C2463 C1479 1.188 . S
C2477 C363 1.251 . S
C2483 C1526 1.221 . S
C2497 C399 1.166 . S
C2503 C1551 1.170 . S
C2517 C1598 1.267 . S
C2523 C302 1.292 . S
C2537 C867 1.290 . S
C2543 C255 1.293 . S
C2557 C1022 1.106 . S
C2563 C50 1.072 . S
C2577 C1047 1.315 . S
C2583 C75 1.312 . S
C2597 C1094 1.134 . S
C2603 C122 1.095 . S
C2617 C1119 1.332 . S
C2623 C3 1.326 . S
C2637 C183 1.283 . S
C2643 C939 1.276 . S
C2657 C986 1.062 . S
C2663 C230 1.090 . S
C2677 C914 1.088 . S
C2683 C158 1.109 . S
C2697 C2 1.518 . S
C2703 C938 1.516 . S
C2717 C976 1.320 . S
C2723 C40 1.305 . S
C2737 C74 1.513 . S
C2743 C866 1.535 . S
C2757 C112 1.331 . S
C2763 C904 1.318 . S
C2777 C148 1.297 . S
C2783 C1084 1.311 . S
C2797 C1118 1.543 . S
C2803 C182 1.532 . S
C2817 C220 1.276 . S
C2823 C1012 1.296 . S
C2837 C1046 1.535 . S
C2843 C254 1.521 . S
C2857 C292 1.408 . S
C2863 C1298 1.398 . S
C2877 C1334 1.366 . S
C2883 C328 1.364 . S
C2897 C362 1.387 . S
C2903 C1372 1.419 . S
C2917 C398 1.505 . S
C2923 C1406 1.493 . S
C2937 C434 1.459 . S
C2943 C1156 1.466 . S
C2957 C470 1.429 . S
C2963 C1192 1.430 . S
C2977 C1228 1.324 . S
C2983 C508 1.343 . S
C2997 C544 1.431 . S
C3003 C1262 1.422 . S
C3017 C1550 1.367 . S
C3023 C580 1.372 . S
C3037 C614 1.381 . S
C3043 C1624 1.406 . S
C3057 C652 1.483 . S
C3063 C1658 1.449 . S
C3077 C1444 1.429 . S
C3083 C686 1.408 . S
C3097 C1694 1.448 . S
C3103 C724 1.458 . S
C3117 C760 1.388 . S
C3123 C1478 1.376 . S
C3137 C1516 1.426 . S
C3143 C794 1.404 . S
C3157 C830 1.428 . S
C3163 C1588 1.452 . S
C3177 C1514 1.517 . S
C3183 C722 1.531 . S
C3197 C616 1.320 . S
C3203 C1552 1.335 . S
C3217 C1586 1.513 . S
C3223 C650 1.521 . S
C3237 C1480 1.310 . S
C3243 C688 1.315 . S
C3257 C1660 1.296 . S
C3263 C832 1.284 . S
C3277 C758 1.536 . S
C3283 C1442 1.518 . S
C3297 C1696 1.301 . S
C3303 C796 1.308 . S
C3317 C578 1.533 . S
C3323 C1622 1.541 . S
C3337 C1190 1.531 . S
C3343 C542 1.542 . S
C3357 C436 1.365 . S
C3363 C1226 1.369 . S
C3377 C472 1.271 . S
C3383 C1264 1.276 . S
C3397 C1154 1.494 . S
C3403 C506 1.502 . S
C3417 C326 1.463 . S
C3423 C1408 1.462 . S
C3437 C1300 1.297 . S
C3443 C364 1.295 . S
C3457 C400 1.345 . S
C3463 C1336 1.320 . S
C3477 C290 1.558 . S
C3483 C1370 1.561 . S
C3497 C974 1.358 . S
C3503 C256 1.371 . S
C3517 C38 1.429 . S
C3523 C1048 1.453 . S
C3537 C76 1.485 . S
C3543 C1082 1.463 . S
C3557 C1120 1.377 . S
C3563 C110 1.373 . S
C3577 C4 1.451 . S
C3583 C1010 1.445 . S
C3597 C184 1.405 . S
C3603 C902 1.372 . S
C3617 C218 1.444 . S
C3623 C940 1.481 . S
C3637 C146 1.382 . S
C3643 C868 1.408 . S
