# Generated by pormake.
# Topology yft, (5)-cn, num edge types: 1
# Building blocks:
#     Node 0, Type 0, BuildingBlock: XOMCOT_clean_sbu_1, # of connection points: 5
#     Node 1, Type 0, BuildingBlock: XOMCOT_clean_sbu_1, # of connection points: 5
#     Node 2, Type 0, BuildingBlock: XOMCOT_clean_sbu_1, # of connection points: 5
#     Node 3, Type 0, BuildingBlock: XOMCOT_clean_sbu_1, # of connection points: 5
#     Node 4, Type 0, BuildingBlock: XOMCOT_clean_sbu_1, # of connection points: 5
#     Node 5, Type 0, BuildingBlock: XOMCOT_clean_sbu_1, # of connection points: 5
#     Node 6, Type 0, BuildingBlock: XOMCOT_clean_sbu_1, # of connection points: 5
#     Node 7, Type 0, BuildingBlock: XOMCOT_clean_sbu_1, # of connection points: 5
#     Node 8, Type 0, BuildingBlock: XOMCOT_clean_sbu_1, # of connection points: 5
#     Node 9, Type 0, BuildingBlock: XOMCOT_clean_sbu_1, # of connection points: 5
#     Node 10, Type 0, BuildingBlock: XOMCOT_clean_sbu_1, # of connection points: 5
#     Node 11, Type 0, BuildingBlock: XOMCOT_clean_sbu_1, # of connection points: 5
#     Node 12, Type 0, BuildingBlock: XOMCOT_clean_sbu_1, # of connection points: 5
#     Node 13, Type 0, BuildingBlock: XOMCOT_clean_sbu_1, # of connection points: 5
#     Node 14, Type 0, BuildingBlock: XOMCOT_clean_sbu_1, # of connection points: 5
#     Node 15, Type 0, BuildingBlock: XOMCOT_clean_sbu_1, # of connection points: 5
#     Node 16, Type 0, BuildingBlock: XOMCOT_clean_sbu_1, # of connection points: 5
#     Node 17, Type 0, BuildingBlock: XOMCOT_clean_sbu_1, # of connection points: 5
#     Node 18, Type 0, BuildingBlock: XOMCOT_clean_sbu_1, # of connection points: 5
#     Node 19, Type 0, BuildingBlock: XOMCOT_clean_sbu_1, # of connection points: 5
#     Node 20, Type 0, BuildingBlock: XOMCOT_clean_sbu_1, # of connection points: 5
#     Node 21, Type 0, BuildingBlock: XOMCOT_clean_sbu_1, # of connection points: 5
#     Node 22, Type 0, BuildingBlock: XOMCOT_clean_sbu_1, # of connection points: 5
#     Node 23, Type 0, BuildingBlock: XOMCOT_clean_sbu_1, # of connection points: 5
#     Node 24, Type 0, BuildingBlock: XOMCOT_clean_sbu_1, # of connection points: 5
#     Node 25, Type 0, BuildingBlock: XOMCOT_clean_sbu_1, # of connection points: 5
#     Node 26, Type 0, BuildingBlock: XOMCOT_clean_sbu_1, # of connection points: 5
#     Node 27, Type 0, BuildingBlock: XOMCOT_clean_sbu_1, # of connection points: 5
#     Node 28, Type 0, BuildingBlock: XOMCOT_clean_sbu_1, # of connection points: 5
#     Node 29, Type 0, BuildingBlock: XOMCOT_clean_sbu_1, # of connection points: 5
#     Node 30, Type 0, BuildingBlock: XOMCOT_clean_sbu_1, # of connection points: 5
#     Node 31, Type 0, BuildingBlock: XOMCOT_clean_sbu_1, # of connection points: 5
#     Edge 32, Type (0, 0), BuildingBlock: UVAHIK_clean_linker_0, # of connection points: 2
#     Edge 33, Type (0, 0), BuildingBlock: UVAHIK_clean_linker_0, # of connection points: 2
#     Edge 34, Type (0, 0), BuildingBlock: UVAHIK_clean_linker_0, # of connection points: 2
#     Edge 35, Type (0, 0), BuildingBlock: UVAHIK_clean_linker_0, # of connection points: 2
#     Edge 36, Type (0, 0), BuildingBlock: UVAHIK_clean_linker_0, # of connection points: 2
#     Edge 37, Type (0, 0), BuildingBlock: UVAHIK_clean_linker_0, # of connection points: 2
#     Edge 38, Type (0, 0), BuildingBlock: UVAHIK_clean_linker_0, # of connection points: 2
#     Edge 39, Type (0, 0), BuildingBlock: UVAHIK_clean_linker_0, # of connection points: 2
#     Edge 40, Type (0, 0), BuildingBlock: UVAHIK_clean_linker_0, # of connection points: 2
#     Edge 41, Type (0, 0), BuildingBlock: UVAHIK_clean_linker_0, # of connection points: 2
#     Edge 42, Type (0, 0), BuildingBlock: UVAHIK_clean_linker_0, # of connection points: 2
#     Edge 43, Type (0, 0), BuildingBlock: UVAHIK_clean_linker_0, # of connection points: 2
#     Edge 44, Type (0, 0), BuildingBlock: UVAHIK_clean_linker_0, # of connection points: 2
#     Edge 45, Type (0, 0), BuildingBlock: UVAHIK_clean_linker_0, # of connection points: 2
#     Edge 46, Type (0, 0), BuildingBlock: UVAHIK_clean_linker_0, # of connection points: 2
#     Edge 47, Type (0, 0), BuildingBlock: UVAHIK_clean_linker_0, # of connection points: 2
#     Edge 48, Type (0, 0), BuildingBlock: UVAHIK_clean_linker_0, # of connection points: 2
#     Edge 49, Type (0, 0), BuildingBlock: UVAHIK_clean_linker_0, # of connection points: 2
#     Edge 50, Type (0, 0), BuildingBlock: UVAHIK_clean_linker_0, # of connection points: 2
#     Edge 51, Type (0, 0), BuildingBlock: UVAHIK_clean_linker_0, # of connection points: 2
#     Edge 52, Type (0, 0), BuildingBlock: UVAHIK_clean_linker_0, # of connection points: 2
#     Edge 53, Type (0, 0), BuildingBlock: UVAHIK_clean_linker_0, # of connection points: 2
#     Edge 54, Type (0, 0), BuildingBlock: UVAHIK_clean_linker_0, # of connection points: 2
#     Edge 55, Type (0, 0), BuildingBlock: UVAHIK_clean_linker_0, # of connection points: 2
#     Edge 56, Type (0, 0), BuildingBlock: UVAHIK_clean_linker_0, # of connection points: 2
#     Edge 57, Type (0, 0), BuildingBlock: UVAHIK_clean_linker_0, # of connection points: 2
#     Edge 58, Type (0, 0), BuildingBlock: UVAHIK_clean_linker_0, # of connection points: 2
#     Edge 59, Type (0, 0), BuildingBlock: UVAHIK_clean_linker_0, # of connection points: 2
#     Edge 60, Type (0, 0), BuildingBlock: UVAHIK_clean_linker_0, # of connection points: 2
#     Edge 61, Type (0, 0), BuildingBlock: UVAHIK_clean_linker_0, # of connection points: 2
#     Edge 62, Type (0, 0), BuildingBlock: UVAHIK_clean_linker_0, # of connection points: 2
#     Edge 63, Type (0, 0), BuildingBlock: UVAHIK_clean_linker_0, # of connection points: 2
#     Edge 64, Type (0, 0), BuildingBlock: UVAHIK_clean_linker_0, # of connection points: 2
#     Edge 65, Type (0, 0), BuildingBlock: UVAHIK_clean_linker_0, # of connection points: 2
#     Edge 66, Type (0, 0), BuildingBlock: UVAHIK_clean_linker_0, # of connection points: 2
#     Edge 67, Type (0, 0), BuildingBlock: UVAHIK_clean_linker_0, # of connection points: 2
#     Edge 68, Type (0, 0), BuildingBlock: UVAHIK_clean_linker_0, # of connection points: 2
#     Edge 69, Type (0, 0), BuildingBlock: UVAHIK_clean_linker_0, # of connection points: 2
#     Edge 70, Type (0, 0), BuildingBlock: UVAHIK_clean_linker_0, # of connection points: 2
#     Edge 71, Type (0, 0), BuildingBlock: UVAHIK_clean_linker_0, # of connection points: 2
#     Edge 72, Type (0, 0), BuildingBlock: UVAHIK_clean_linker_0, # of connection points: 2
#     Edge 73, Type (0, 0), BuildingBlock: UVAHIK_clean_linker_0, # of connection points: 2
#     Edge 74, Type (0, 0), BuildingBlock: UVAHIK_clean_linker_0, # of connection points: 2
#     Edge 75, Type (0, 0), BuildingBlock: UVAHIK_clean_linker_0, # of connection points: 2
#     Edge 76, Type (0, 0), BuildingBlock: UVAHIK_clean_linker_0, # of connection points: 2
#     Edge 77, Type (0, 0), BuildingBlock: UVAHIK_clean_linker_0, # of connection points: 2
#     Edge 78, Type (0, 0), BuildingBlock: UVAHIK_clean_linker_0, # of connection points: 2
#     Edge 79, Type (0, 0), BuildingBlock: UVAHIK_clean_linker_0, # of connection points: 2
#     Edge 80, Type (0, 0), BuildingBlock: UVAHIK_clean_linker_0, # of connection points: 2
#     Edge 81, Type (0, 0), BuildingBlock: UVAHIK_clean_linker_0, # of connection points: 2
#     Edge 82, Type (0, 0), BuildingBlock: UVAHIK_clean_linker_0, # of connection points: 2
#     Edge 83, Type (0, 0), BuildingBlock: UVAHIK_clean_linker_0, # of connection points: 2
#     Edge 84, Type (0, 0), BuildingBlock: UVAHIK_clean_linker_0, # of connection points: 2
#     Edge 85, Type (0, 0), BuildingBlock: UVAHIK_clean_linker_0, # of connection points: 2
#     Edge 86, Type (0, 0), BuildingBlock: UVAHIK_clean_linker_0, # of connection points: 2
#     Edge 87, Type (0, 0), BuildingBlock: UVAHIK_clean_linker_0, # of connection points: 2
#     Edge 88, Type (0, 0), BuildingBlock: UVAHIK_clean_linker_0, # of connection points: 2
#     Edge 89, Type (0, 0), BuildingBlock: UVAHIK_clean_linker_0, # of connection points: 2
#     Edge 90, Type (0, 0), BuildingBlock: UVAHIK_clean_linker_0, # of connection points: 2
#     Edge 91, Type (0, 0), BuildingBlock: UVAHIK_clean_linker_0, # of connection points: 2
#     Edge 92, Type (0, 0), BuildingBlock: UVAHIK_clean_linker_0, # of connection points: 2
#     Edge 93, Type (0, 0), BuildingBlock: UVAHIK_clean_linker_0, # of connection points: 2
#     Edge 94, Type (0, 0), BuildingBlock: UVAHIK_clean_linker_0, # of connection points: 2
#     Edge 95, Type (0, 0), BuildingBlock: UVAHIK_clean_linker_0, # of connection points: 2
#     Edge 96, Type (0, 0), BuildingBlock: UVAHIK_clean_linker_0, # of connection points: 2
#     Edge 97, Type (0, 0), BuildingBlock: UVAHIK_clean_linker_0, # of connection points: 2
#     Edge 98, Type (0, 0), BuildingBlock: UVAHIK_clean_linker_0, # of connection points: 2
#     Edge 99, Type (0, 0), BuildingBlock: UVAHIK_clean_linker_0, # of connection points: 2
#     Edge 100, Type (0, 0), BuildingBlock: UVAHIK_clean_linker_0, # of connection points: 2
#     Edge 101, Type (0, 0), BuildingBlock: UVAHIK_clean_linker_0, # of connection points: 2
#     Edge 102, Type (0, 0), BuildingBlock: UVAHIK_clean_linker_0, # of connection points: 2
#     Edge 103, Type (0, 0), BuildingBlock: UVAHIK_clean_linker_0, # of connection points: 2
#     Edge 104, Type (0, 0), BuildingBlock: UVAHIK_clean_linker_0, # of connection points: 2
#     Edge 105, Type (0, 0), BuildingBlock: UVAHIK_clean_linker_0, # of connection points: 2
#     Edge 106, Type (0, 0), BuildingBlock: UVAHIK_clean_linker_0, # of connection points: 2
#     Edge 107, Type (0, 0), BuildingBlock: UVAHIK_clean_linker_0, # of connection points: 2
#     Edge 108, Type (0, 0), BuildingBlock: UVAHIK_clean_linker_0, # of connection points: 2
#     Edge 109, Type (0, 0), BuildingBlock: UVAHIK_clean_linker_0, # of connection points: 2
#     Edge 110, Type (0, 0), BuildingBlock: UVAHIK_clean_linker_0, # of connection points: 2
#     Edge 111, Type (0, 0), BuildingBlock: UVAHIK_clean_linker_0, # of connection points: 2
# Relax obj value: 0.659
# Max RMSD: 0.296
# Mean RMSD: 0.296
data_MOF--net-yft--node1-XOMCOT_clean_sbu_1--edge1-UVAHIK_clean_linker_0
_symmetry_space_group_name_H-M    P1
_symmetry_Int_Tables_number       1
_symmetry_cell_setting            triclinic
loop_
_symmetry_equiv_pos_as_xyz
'x, y, z'
_cell_length_a     50.163463
_cell_length_b     50.169885
_cell_length_c     116.85741
_cell_angle_alpha  89.990894
_cell_angle_beta   89.992564
_cell_angle_gamma 89.972144
loop_
_atom_site_label
_atom_site_type_symbol
_atom_site_fract_x
_atom_site_fract_y
_atom_site_fract_z
_atom_type_partial_charge
C0 C 0.22789 0.23242 0.16843 0.0
C1 C 0.20708 0.21723 0.16442 0.0
N2 N 0.21692 0.19878 0.15717 0.0
N3 N 0.25082 0.22361 0.16378 0.0
C4 C 0.24356 0.20289 0.15705 0.0
H5 H 0.22623 0.24961 0.17395 0.0
Co6 Co 0.28325 0.24132 0.16509 0.0
C7 C 0.3247 0.20255 0.15834 0.0
O8 O 0.33704 0.22121 0.15248 0.0
N9 N 0.31609 0.26008 0.16671 0.0
C10 C 0.34905 0.28955 0.16506 0.0
C11 C 0.32296 0.28405 0.16236 0.0
C12 C 0.33812 0.25217 0.17254 0.0
N13 N 0.3588 0.26929 0.17135 0.0
O14 O 0.28275 0.23569 0.1812 0.0
H15 H 0.31026 0.29684 0.15734 0.0
H16 H 0.33924 0.23358 0.17721 0.0
O17 O 0.30245 0.20759 0.16322 0.0
C18 C 0.276 0.25626 0.18689 0.0
O19 O 0.27116 0.2785 0.18132 0.0
N20 N 0.28183 0.24862 0.14933 0.0
C21 C 0.27865 0.26924 0.12722 0.0
C22 C 0.28675 0.24278 0.12906 0.0
C23 C 0.28776 0.23265 0.1402 0.0
C24 C 0.27066 0.27298 0.14755 0.0
C25 C 0.2694 0.28395 0.13663 0.0
H26 H 0.29347 0.21213 0.14135 0.0
H27 H 0.26406 0.28462 0.15482 0.0
H28 H 0.25728 0.19208 0.15163 0.0
H29 H 0.18622 0.22015 0.16642 0.0
H30 H 0.36026 0.30665 0.16212 0.0
H31 H 0.29289 0.23023 0.12199 0.0
H32 H 0.26276 0.30438 0.13574 0.0
C33 C 0.01918 0.97849 0.42127 0.0
C34 C 0.03498 0.95777 0.41757 0.0
N35 N 0.05202 0.9672 0.40962 0.0
N36 N 0.02624 1.00091 0.41571 0.0
C37 C 0.04637 0.99345 0.4087 0.0
H38 H 0.00296 0.97709 0.42734 0.0
Co39 Co 0.00836 0.03332 0.41649 0.0
C40 C 0.04688 0.0728 0.40715 0.0
O41 O 0.02798 0.08538 0.40153 0.0
N42 N 0.98983 0.06625 0.41744 0.0
C43 C 0.95945 0.09834 0.41565 0.0
C44 C 0.96509 0.07194 0.4136 0.0
C45 C 0.99831 0.0894 0.42221 0.0
N46 N 0.9805 0.10946 0.42097 0.0
O47 O 0.01655 0.03578 0.43235 0.0
H48 H 0.95188 0.05806 0.40942 0.0
H49 H 0.01758 0.09163 0.42626 0.0
O50 O 0.04151 0.05192 0.41296 0.0
C51 C 0.9965 0.02964 0.43849 0.0
O52 O 0.97392 0.02385 0.43336 0.0
N53 N 0.99815 0.02878 0.40117 0.0
C54 C 0.97086 0.02246 0.38061 0.0
C55 C 0.99685 0.03297 0.38075 0.0
C56 C 0.01055 0.0352 0.39114 0.0
C57 C 0.97466 0.01523 0.40097 0.0
C58 C 0.96069 0.01177 0.3908 0.0
H59 H 0.0307 0.0425 0.39099 0.0
H60 H 0.966 0.00839 0.40893 0.0
H61 H 0.05577 0.00671 0.40262 0.0
H62 H 0.03365 0.93725 0.42037 0.0
H63 H 0.94157 0.10872 0.41301 0.0
H64 H 0.00609 0.04071 0.37307 0.0
H65 H 0.9414 0.0021 0.39107 0.0
C66 C 0.27542 0.77001 0.67098 0.0
C67 C 0.29664 0.78487 0.6671 0.0
N68 N 0.28775 0.80178 0.65898 0.0
N69 N 0.25321 0.77753 0.66536 0.0
C70 C 0.26131 0.797 0.65815 0.0
H71 H 0.27632 0.75407 0.6772 0.0
Co72 Co 0.22016 0.76086 0.66625 0.0
C73 C 0.1821 0.80117 0.65712 0.0
O74 O 0.16851 0.783 0.6515 0.0
N75 N 0.18659 0.74356 0.66729 0.0
C76 C 0.15384 0.71385 0.66574 0.0
C77 C 0.18038 0.71877 0.66367 0.0
C78 C 0.16359 0.75284 0.67194 0.0
N79 N 0.14316 0.73542 0.67084 0.0
O80 O 0.21827 0.769 0.68213 0.0
H81 H 0.19403 0.70503 0.65966 0.0
H82 H 0.16173 0.77232 0.67583 0.0
O83 O 0.20282 0.79472 0.66283 0.0
C84 C 0.22396 0.74865 0.68818 0.0
O85 O 0.22898 0.72602 0.68293 0.0
N86 N 0.22405 0.75055 0.65091 0.0
C87 C 0.22954 0.7229 0.63038 0.0
C88 C 0.21939 0.74905 0.63051 0.0
C89 C 0.21759 0.76291 0.64088 0.0
C90 C 0.23715 0.7268 0.65071 0.0
C91 C 0.24025 0.71268 0.64056 0.0
H92 H 0.21066 0.78319 0.64069 0.0
H93 H 0.24401 0.71812 0.65866 0.0
H94 H 0.24834 0.80649 0.65198 0.0
H95 H 0.31712 0.78298 0.6699 0.0
H96 H 0.14305 0.69607 0.66328 0.0
H97 H 0.21166 0.75834 0.62284 0.0
H98 H 0.24969 0.69328 0.64085 0.0
C99 C 0.48966 0.02878 0.91885 0.0
C100 C 0.4749 0.05037 0.91529 0.0
N101 N 0.45496 0.04155 0.90854 0.0
N102 N 0.47912 0.00639 0.9144 0.0
C103 C 0.45783 0.01476 0.90827 0.0
H104 H 0.50761 0.02947 0.92396 0.0
Co105 Co 0.49494 0.97289 0.91526 0.0
C106 C 0.45425 0.93612 0.906 0.0
O107 O 0.47242 0.92413 0.89973 0.0
N108 N 0.51155 0.93878 0.91638 0.0
C109 C 0.54064 0.90526 0.91548 0.0
C110 C 0.53663 0.93191 0.91337 0.0
C111 C 0.50122 0.91597 0.9208 0.0
N112 N 0.51824 0.89508 0.92007 0.0
O113 O 0.48763 0.9717 0.93123 0.0
H114 H 0.55145 0.94514 0.90988 0.0
H115 H 0.4814 0.91466 0.9244 0.0
O116 O 0.46055 0.95598 0.91228 0.0
C117 C 0.50797 0.9774 0.93727 0.0
O118 O 0.53072 0.98194 0.93204 0.0
N119 N 0.50408 0.97605 0.89968 0.0
C120 C 0.52656 0.98075 0.87795 0.0
C121 C 0.49915 0.97597 0.87925 0.0
C122 C 0.48816 0.97423 0.89021 0.0
C123 C 0.52973 0.98445 0.89852 0.0
C124 C 0.54162 0.98628 0.88778 0.0
H125 H 0.46698 0.9712 0.89095 0.0
H126 H 0.54139 0.98875 0.90608 0.0
H127 H 0.44554 1.00165 0.90317 0.0
H128 H 0.47901 0.07102 0.91729 0.0
H129 H 0.55853 0.89416 0.91345 0.0
H130 H 0.48643 0.97297 0.87187 0.0
H131 H 0.56273 0.99056 0.8873 0.0
C132 C 0.22936 0.77109 0.32693 0.0
C133 C 0.20856 0.78655 0.33075 0.0
N134 N 0.21835 0.80518 0.33792 0.0
N135 N 0.25224 0.77988 0.33162 0.0
C136 C 0.24496 0.80089 0.33819 0.0
H137 H 0.22772 0.75367 0.32154 0.0
Co138 Co 0.28442 0.76159 0.33066 0.0
C139 C 0.32618 0.79983 0.33759 0.0
O140 O 0.33796 0.78114 0.34365 0.0
N141 N 0.31698 0.74218 0.32941 0.0
C142 C 0.34887 0.7116 0.33129 0.0
C143 C 0.32285 0.71794 0.33376 0.0
C144 C 0.33957 0.74943 0.32381 0.0
N145 N 0.35959 0.73159 0.32514 0.0
O146 O 0.28478 0.76691 0.31454 0.0
H147 H 0.30945 0.70548 0.33858 0.0
H148 H 0.34153 0.76797 0.31916 0.0
O149 O 0.30408 0.795 0.33255 0.0
C150 C 0.27797 0.74645 0.3088 0.0
O151 O 0.27252 0.7243 0.31433 0.0
N152 N 0.28213 0.75469 0.34645 0.0
C153 C 0.27756 0.73473 0.36862 0.0
C154 C 0.28627 0.76096 0.36673 0.0
C155 C 0.28796 0.77078 0.35555 0.0
C156 C 0.27039 0.73062 0.34825 0.0
C157 C 0.26841 0.71997 0.35921 0.0
H158 H 0.29408 0.79115 0.35435 0.0
H159 H 0.26384 0.71895 0.34099 0.0
H160 H 0.25858 0.81172 0.34364 0.0
H161 H 0.1877 0.78367 0.32873 0.0
H162 H 0.35934 0.69405 0.33426 0.0
H163 H 0.29238 0.77354 0.37379 0.0
H164 H 0.26129 0.69973 0.36015 0.0
C165 C 0.48866 0.97619 0.57669 0.0
C166 C 0.47389 0.95468 0.58032 0.0
N167 N 0.45358 0.96372 0.58681 0.0
N168 N 0.47776 0.99873 0.58084 0.0
C169 C 0.45623 0.99053 0.58686 0.0
H170 H 0.50694 0.97536 0.5718 0.0
Co171 Co 0.4938 0.0321 0.58003 0.0
C172 C 0.45335 0.06936 0.58907 0.0
O173 O 0.47155 0.0811 0.5954 0.0
N174 N 0.51067 0.06606 0.57895 0.0
C175 C 0.5397 0.09956 0.58003 0.0
C176 C 0.53557 0.07296 0.58219 0.0
C177 C 0.50061 0.08878 0.57433 0.0
N178 N 0.51757 0.10967 0.57517 0.0
O179 O 0.48686 0.0333 0.56405 0.0
H180 H 0.55017 0.0598 0.5859 0.0
H181 H 0.48098 0.09003 0.57053 0.0
O182 O 0.45949 0.04936 0.58284 0.0
C183 C 0.5072 0.02741 0.55804 0.0
O184 O 0.52983 0.0225 0.56331 0.0
N185 N 0.50252 0.02894 0.59565 0.0
C186 C 0.52438 0.02449 0.6175 0.0
C187 C 0.49701 0.02932 0.61605 0.0
C188 C 0.48633 0.03091 0.60503 0.0
C189 C 0.5281 0.0204 0.59696 0.0
C190 C 0.53968 0.0187 0.60776 0.0
H191 H 0.46518 0.03401 0.60417 0.0
H192 H 0.53997 0.01599 0.58946 0.0
H193 H 0.4437 0.00377 0.5918 0.0
H194 H 0.47833 0.93394 0.57863 0.0
H195 H 0.55745 0.11069 0.58221 0.0
H196 H 0.48411 0.03253 0.62335 0.0
H197 H 0.56077 0.01436 0.60836 0.0
C198 C 0.27832 0.23992 0.82596 0.0
C199 C 0.29979 0.22518 0.82967 0.0
N200 N 0.29072 0.20528 0.83638 0.0
N201 N 0.25577 0.22942 0.83028 0.0
C202 C 0.26392 0.20814 0.83647 0.0
H203 H 0.27921 0.25793 0.82089 0.0
Co204 Co 0.22242 0.24559 0.8294 0.0
C205 C 0.18513 0.20513 0.83847 0.0
O206 O 0.1732 0.22338 0.84471 0.0
N207 N 0.18852 0.26262 0.82826 0.0
C208 C 0.15568 0.2925 0.82899 0.0
C209 C 0.1822 0.28792 0.83115 0.0
C210 C 0.16549 0.25272 0.82386 0.0
N211 N 0.14502 0.27024 0.82449 0.0
O212 O 0.22136 0.23869 0.81339 0.0
H213 H 0.19578 0.30253 0.83456 0.0
H214 H 0.16373 0.23287 0.82032 0.0
O215 O 0.20513 0.2113 0.83224 0.0
C216 C 0.22738 0.25919 0.80751 0.0
O217 O 0.23221 0.28164 0.81291 0.0
N218 N 0.22546 0.25436 0.84504 0.0
C219 C 0.23018 0.27622 0.86689 0.0
C220 C 0.22513 0.2489 0.86545 0.0
C221 C 0.22336 0.23823 0.85443 0.0
C222 C 0.23411 0.27989 0.84634 0.0
C223 C 0.23594 0.29147 0.85714 0.0
H224 H 0.22011 0.21711 0.8536 0.0
H225 H 0.23869 0.29169 0.83885 0.0
H226 H 0.25066 0.19594 0.84154 0.0
H227 H 0.32052 0.22937 0.82786 0.0
H228 H 0.14497 0.3107 0.8309 0.0
H229 H 0.22196 0.236 0.87276 0.0
H230 H 0.24045 0.31252 0.85773 0.0
C231 C 0.01449 0.02352 0.0763 0.0
C232 C 0.02975 0.04498 0.07958 0.0
N233 N 0.05006 0.03604 0.0861 0.0
N234 N 0.02509 1.00108 0.08069 0.0
C235 C 0.04689 0.0093 0.08652 0.0
H236 H 0.99621 0.02432 0.07141 0.0
Co237 Co 0.00894 0.96774 0.08014 0.0
C238 C 0.04996 0.93078 0.08901 0.0
O239 O 0.03216 0.91892 0.09551 0.0
N240 N 0.99198 0.93379 0.07934 0.0
C241 C 0.96241 0.90078 0.08053 0.0
C242 C 0.96694 0.92736 0.08257 0.0
C243 C 1.00176 0.91078 0.07487 0.0
N244 N 0.98443 0.89021 0.07576 0.0
O245 O 0.01525 0.96617 0.06412 0.0
H246 H 0.95249 0.94089 0.08615 0.0
H247 H 0.02137 0.90909 0.07109 0.0
O248 O 0.04334 0.9506 0.08277 0.0
C249 C 0.99471 0.97191 0.05822 0.0
O250 O 0.97222 0.9768 0.0636 0.0
N251 N 1.00082 0.97127 0.09581 0.0
C252 C 0.97975 0.97692 0.11775 0.0
C253 C 0.00696 0.97152 0.11618 0.0
C254 C 0.01727 0.96936 0.1051 0.0
C255 C 0.97538 0.98013 0.09721 0.0
C256 C 0.9642 0.98248 0.10807 0.0
H257 H 0.03835 0.96597 0.10415 0.0
H258 H 0.96334 0.98445 0.08976 0.0
H259 H 0.05937 0.99613 0.09151 0.0
H260 H 0.02575 0.06565 0.07755 0.0
H261 H 0.94443 0.88997 0.08267 0.0
H262 H 0.02005 0.9684 0.12343 0.0
H263 H 0.9432 0.98718 0.10877 0.0
C264 C 0.77301 0.76725 0.82625 0.0
C265 C 0.79431 0.78234 0.82982 0.0
N266 N 0.78522 0.80163 0.83684 0.0
N267 N 0.75049 0.77696 0.83094 0.0
C268 C 0.7585 0.7981 0.83726 0.0
H269 H 0.77403 0.74957 0.82098 0.0
Co270 Co 0.71763 0.7599 0.8301 0.0
C271 C 0.67748 0.80006 0.83687 0.0
O272 O 0.66487 0.78205 0.84299 0.0
N273 N 0.68433 0.74174 0.82897 0.0
C274 C 0.65134 0.71243 0.83104 0.0
C275 C 0.6776 0.71782 0.83342 0.0
C276 C 0.66195 0.74973 0.8234 0.0
N277 N 0.64128 0.7327 0.82484 0.0
O278 O 0.71742 0.76476 0.81396 0.0
H279 H 0.69058 0.70492 0.83825 0.0
H280 H 0.66064 0.76824 0.81868 0.0
O281 O 0.69931 0.79414 0.83183 0.0
C282 C 0.72361 0.74391 0.80834 0.0
O283 O 0.72818 0.72173 0.814 0.0
N284 N 0.71972 0.75342 0.84592 0.0
C285 C 0.72387 0.7346 0.8683 0.0
C286 C 0.7165 0.76114 0.86614 0.0
C287 C 0.71492 0.77031 0.85486 0.0
C288 C 0.73027 0.72888 0.84795 0.0
C289 C 0.73194 0.71878 0.85903 0.0
H290 H 0.70978 0.79089 0.85347 0.0
H291 H 0.73615 0.71649 0.8408 0.0
H292 H 0.74526 0.80973 0.84258 0.0
H293 H 0.81499 0.77884 0.82766 0.0
H294 H 0.64027 0.69536 0.83411 0.0
H295 H 0.71137 0.77453 0.87307 0.0
H296 H 0.73805 0.69826 0.86017 0.0
C297 C 0.98944 0.02551 0.57709 0.0
C298 C 0.97377 0.04659 0.58049 0.0
N299 N 0.95403 0.03716 0.58719 0.0
N300 N 0.97967 0.00283 0.5816 0.0
C301 C 0.95793 0.01051 0.58762 0.0
H302 H 0.00747 0.02676 0.57205 0.0
Co303 Co 0.99693 0.97004 0.58092 0.0
C304 C 0.95858 0.93136 0.59034 0.0
O305 O 0.97786 0.92031 0.59631 0.0
N306 N 0.01499 0.93664 0.57994 0.0
C307 C 0.04477 0.90383 0.58132 0.0
C308 C 0.03984 0.9303 0.58349 0.0
C309 C 0.00581 0.91373 0.57517 0.0
N310 N 0.02323 0.89325 0.57618 0.0
O311 O 0.9897 0.96814 0.56497 0.0
H312 H 0.05379 0.94374 0.58746 0.0
H313 H 0.98638 0.91201 0.57122 0.0
O314 O 0.96337 0.95171 0.58409 0.0
C315 C 0.01004 0.97432 0.55901 0.0
O316 O 0.03248 0.97966 0.56435 0.0
N317 N 0.00592 0.97406 0.59645 0.0
C318 C 0.02827 0.98117 0.61807 0.0
C319 C 1.00122 0.97453 0.61689 0.0
C320 C 0.99023 0.97165 0.60597 0.0
C321 C 0.03102 0.98401 0.59746 0.0
C322 C 0.04285 0.98713 0.60815 0.0
H323 H 0.96927 0.96731 0.6053 0.0
H324 H 0.04239 0.98846 0.58983 0.0
H325 H 0.94607 0.99708 0.59276 0.0
H326 H 0.9771 0.06734 0.57841 0.0
H327 H 0.06262 0.89307 0.58372 0.0
H328 H 0.98884 0.97099 0.62433 0.0
H329 H 0.06368 0.99267 0.60852 0.0
C330 C 0.72849 0.23712 0.32701 0.0
C331 C 0.70783 0.22131 0.3307 0.0
N332 N 0.71787 0.20197 0.33746 0.0
N333 N 0.75154 0.22785 0.33137 0.0
C334 C 0.74449 0.2062 0.33759 0.0
H335 H 0.72668 0.25503 0.32192 0.0
Co336 Co 0.78378 0.24604 0.33042 0.0
C337 C 0.82513 0.20788 0.33782 0.0
O338 O 0.83623 0.22665 0.34407 0.0
N339 N 0.8165 0.26521 0.32918 0.0
C340 C 0.84919 0.29491 0.33113 0.0
C341 C 0.82291 0.28939 0.33346 0.0
C342 C 0.83905 0.25722 0.32374 0.0
N343 N 0.85955 0.27445 0.32514 0.0
O344 O 0.7843 0.24046 0.31434 0.0
H345 H 0.80974 0.30232 0.33818 0.0
H346 H 0.84065 0.23851 0.31919 0.0
O347 O 0.80343 0.21265 0.33246 0.0
C348 C 0.77733 0.26079 0.30856 0.0
O349 O 0.77175 0.28299 0.31403 0.0
N350 N 0.78128 0.25317 0.34619 0.0
C351 C 0.77618 0.27249 0.36846 0.0
C352 C 0.78364 0.24591 0.36646 0.0
C353 C 0.7857 0.23648 0.35524 0.0
C354 C 0.77058 0.27772 0.34803 0.0
C355 C 0.76846 0.28808 0.35905 0.0
H356 H 0.79097 0.21589 0.35397 0.0
H357 H 0.76483 0.28988 0.34079 0.0
H358 H 0.75834 0.19475 0.3427 0.0
H359 H 0.68691 0.22442 0.32887 0.0
H360 H 0.86009 0.31217 0.33411 0.0
H361 H 0.78849 0.23267 0.37348 0.0
H362 H 0.76225 0.30861 0.36006 0.0
C363 C 0.51554 0.98019 0.07625 0.0
C364 C 0.53063 0.95875 0.07974 0.0
N365 N 0.55077 0.96781 0.08632 0.0
N366 N 0.52607 0.00271 0.08058 0.0
C367 C 0.54769 0.99457 0.08657 0.0
H368 H 0.49733 0.9793 0.07132 0.0
Co369 Co 0.5098 0.03604 0.07999 0.0
C370 C 0.55075 0.07319 0.08871 0.0
O371 O 0.53294 0.08509 0.0952 0.0
N372 N 0.49276 0.06998 0.07916 0.0
C373 C 0.46351 0.10323 0.08068 0.0
C374 C 0.46796 0.0766 0.08266 0.0
C375 C 0.50242 0.09292 0.07458 0.0
N376 N 0.48532 0.11366 0.07568 0.0
O377 O 0.51599 0.03747 0.06394 0.0
H378 H 0.45367 0.06321 0.08644 0.0
H379 H 0.52187 0.09443 0.07063 0.0
O380 O 0.54418 0.05325 0.08254 0.0
C381 C 0.49539 0.03168 0.05809 0.0
O382 O 0.47297 0.02684 0.06352 0.0
N383 N 0.50179 0.03262 0.09567 0.0
C384 C 0.4807 0.02707 0.11762 0.0
C385 C 0.50787 0.03269 0.11605 0.0
C386 C 0.51819 0.03482 0.10497 0.0
C387 C 0.47643 0.02355 0.09708 0.0
C388 C 0.46524 0.02125 0.10794 0.0
H389 H 0.53923 0.0384 0.10402 0.0
H390 H 0.46442 0.01912 0.08963 0.0
H391 H 0.56 0.00779 0.0916 0.0
H392 H 0.52654 0.93803 0.07786 0.0
H393 H 0.44576 0.11414 0.08308 0.0
H394 H 0.5209 0.03601 0.1233 0.0
H395 H 0.44428 0.01639 0.10864 0.0
C396 C 0.77526 0.22911 0.67102 0.0
C397 C 0.79559 0.21345 0.66688 0.0
N398 N 0.78566 0.19749 0.65864 0.0
N399 N 0.75254 0.22307 0.66546 0.0
C400 C 0.75944 0.20357 0.65802 0.0
H401 H 0.77721 0.24478 0.67732 0.0
Co402 Co 0.72087 0.24223 0.6666 0.0
C403 C 0.67802 0.20512 0.65916 0.0
O404 O 0.66524 0.22444 0.6539 0.0
N405 N 0.68883 0.26228 0.66794 0.0
C406 C 0.65696 0.2926 0.66541 0.0
C407 C 0.68304 0.28605 0.66312 0.0
C408 C 0.66618 0.25554 0.67359 0.0
N409 N 0.64613 0.27317 0.67187 0.0
O410 O 0.71966 0.23515 0.6826 0.0
H411 H 0.69646 0.29769 0.65792 0.0
H412 H 0.66409 0.2372 0.67838 0.0
O413 O 0.70062 0.20951 0.66384 0.0
C414 C 0.72688 0.25518 0.68852 0.0
O415 O 0.73303 0.27738 0.68317 0.0
N416 N 0.72415 0.25116 0.65109 0.0
C417 C 0.72966 0.27643 0.63002 0.0
C418 C 0.71703 0.25149 0.63082 0.0
C419 C 0.71505 0.2388 0.64145 0.0
C420 C 0.73935 0.27353 0.65022 0.0
C421 C 0.74241 0.28651 0.63978 0.0
H422 H 0.70585 0.21947 0.6418 0.0
H423 H 0.74788 0.28219 0.65786 0.0
H424 H 0.7459 0.19521 0.65177 0.0
H425 H 0.81627 0.21433 0.6695 0.0
H426 H 0.64645 0.30966 0.66198 0.0
H427 H 0.70747 0.24245 0.62348 0.0
H428 H 0.75344 0.30505 0.63951 0.0
C429 C 0.51934 0.02465 0.41906 0.0
C430 C 0.53506 0.04554 0.41555 0.0
N431 N 0.55399 0.036 0.40845 0.0
N432 N 0.52828 0.00194 0.41427 0.0
C433 C 0.5496 0.00942 0.40794 0.0
H434 H 0.5018 0.02611 0.4244 0.0
Co435 Co 0.51025 0.96961 0.41516 0.0
C436 C 0.54906 0.92837 0.40814 0.0
O437 O 0.53056 0.9164 0.40205 0.0
N438 N 0.49109 0.93687 0.41636 0.0
C439 C 0.46037 0.90508 0.41462 0.0
C440 C 0.46661 0.93115 0.41223 0.0
C441 C 0.49861 0.91411 0.42177 0.0
N442 N 0.48067 0.89416 0.42051 0.0
O443 O 0.5155 0.96914 0.43129 0.0
H444 H 0.45382 0.94473 0.40766 0.0
H445 H 0.51734 0.912 0.42627 0.0
O446 O 0.54387 0.95027 0.41326 0.0
C447 C 0.49499 0.97569 0.43706 0.0
O448 O 0.47275 0.98098 0.43156 0.0
N449 N 0.50345 0.97195 0.39936 0.0
C450 C 0.48412 0.97568 0.37705 0.0
C451 C 0.51066 0.96815 0.37913 0.0
C452 C 0.52009 0.96677 0.39037 0.0
C453 C 0.47905 0.98287 0.39739 0.0
C454 C 0.46868 0.98432 0.38635 0.0
H455 H 0.54062 0.96136 0.3917 0.0
H456 H 0.46694 0.98917 0.40456 0.0
H457 H 0.56079 0.99592 0.40256 0.0
H458 H 0.53227 0.06626 0.41782 0.0
H459 H 0.44262 0.89475 0.4118 0.0
H460 H 0.52381 0.96266 0.37217 0.0
H461 H 0.4482 0.99065 0.38528 0.0
C462 C 0.72892 0.76906 0.16797 0.0
C463 C 0.70782 0.7843 0.16429 0.0
N464 N 0.71718 0.80329 0.15718 0.0
N465 N 0.75159 0.77837 0.16327 0.0
C466 C 0.74386 0.79943 0.15683 0.0
H467 H 0.72766 0.75156 0.17334 0.0
Co468 Co 0.78423 0.76087 0.16431 0.0
C469 C 0.82504 0.80024 0.15751 0.0
O470 O 0.83733 0.78192 0.15143 0.0
N471 N 0.81727 0.74226 0.16567 0.0
C472 C 0.84972 0.71216 0.16407 0.0
C473 C 0.82362 0.71795 0.16152 0.0
C474 C 0.83969 0.75013 0.17125 0.0
N475 N 0.86002 0.73258 0.17009 0.0
O476 O 0.78417 0.76609 0.18044 0.0
H477 H 0.81047 0.705 0.15681 0.0
H478 H 0.84127 0.76884 0.1758 0.0
O479 O 0.80307 0.79479 0.16253 0.0
C480 C 0.77779 0.74548 0.18617 0.0
O481 O 0.77297 0.72318 0.18065 0.0
N482 N 0.78243 0.75407 0.14851 0.0
C483 C 0.77926 0.73467 0.1262 0.0
C484 C 0.78649 0.76128 0.12829 0.0
C485 C 0.78757 0.77074 0.13953 0.0
C486 C 0.77186 0.72953 0.14652 0.0
C487 C 0.77069 0.71914 0.13548 0.0
H488 H 0.79271 0.79134 0.14087 0.0
H489 H 0.76562 0.71736 0.15367 0.0
H490 H 0.75728 0.81079 0.15148 0.0
H491 H 0.68709 0.78112 0.16645 0.0
H492 H 0.86052 0.69465 0.16129 0.0
H493 H 0.79197 0.77446 0.12134 0.0
H494 H 0.76461 0.6986 0.13439 0.0
C495 C 0.98705 0.97496 0.91887 0.0
C496 C 0.97169 0.95397 0.91514 0.0
N497 N 0.95244 0.96361 0.90823 0.0
N498 N 0.97757 0.99777 0.91437 0.0
C499 C 0.95632 0.99027 0.90801 0.0
H500 H 0.00471 0.97354 0.92414 0.0
Co501 Co 0.99451 0.03065 0.9154 0.0
C502 C 0.95478 0.06912 0.90656 0.0
O503 O 0.97308 0.08099 0.90033 0.0
N504 N 0.01226 0.06409 0.91669 0.0
C505 C 0.04263 0.09643 0.91598 0.0
C506 C 0.03759 0.07005 0.9137 0.0
C507 C 0.00283 0.08713 0.92125 0.0
N508 N 0.02065 0.10733 0.92064 0.0
O509 O 0.98736 0.0316 0.93138 0.0
H510 H 0.05186 0.05633 0.91013 0.0
H511 H 0.98308 0.08911 0.92488 0.0
O512 O 0.9607 0.04876 0.91261 0.0
C513 C 0.00755 0.02526 0.93739 0.0
O514 O 0.03013 0.02004 0.93213 0.0
N515 N 0.00348 0.02774 0.8998 0.0
C516 C 0.02665 0.02364 0.87819 0.0
C517 C 0.99948 0.02982 0.87935 0.0
C518 C 0.98807 0.03117 0.89026 0.0
C519 C 0.02868 0.01805 0.89871 0.0
C520 C 0.04091 0.01642 0.88804 0.0
H521 H 0.96705 0.03526 0.8909 0.0
H522 H 0.03984 0.01273 0.90629 0.0
H523 H 0.94484 0.00386 0.90279 0.0
H524 H 0.97495 0.93314 0.91711 0.0
H525 H 0.06093 0.10691 0.91402 0.0
H526 H 0.98732 0.03423 0.87193 0.0
H527 H 0.06181 0.01109 0.88767 0.0
C528 C 0.73309 0.72013 0.67176 0.0
C529 C 0.71296 0.70383 0.66793 0.0
N530 N 0.7223 0.68922 0.65912 0.0
N531 N 0.75512 0.71582 0.66543 0.0
C532 C 0.74801 0.69673 0.65784 0.0
H533 H 0.73136 0.73502 0.6784 0.0
Co534 Co 0.78625 0.73609 0.66597 0.0
C535 C 0.83062 0.69764 0.66045 0.0
O536 O 0.84634 0.71622 0.6563 0.0
N537 N 0.81756 0.75715 0.6667 0.0
C538 C 0.84903 0.787 0.66277 0.0
C539 C 0.82322 0.77921 0.66056 0.0
C540 C 0.83976 0.7529 0.67306 0.0
N541 N 0.85968 0.7701 0.67049 0.0
O542 O 0.78813 0.7307 0.68209 0.0
H543 H 0.80995 0.78843 0.65444 0.0
H544 H 0.84188 0.73618 0.67884 0.0
O545 O 0.80697 0.7033 0.66374 0.0
C546 C 0.78091 0.75106 0.68781 0.0
O547 O 0.77421 0.77281 0.68223 0.0
N548 N 0.78236 0.74335 0.65029 0.0
C549 C 0.77575 0.76876 0.62915 0.0
C550 C 0.79523 0.74878 0.63069 0.0
C551 C 0.79777 0.73586 0.64123 0.0
C552 C 0.76174 0.7606 0.64868 0.0
C553 C 0.75755 0.77285 0.63814 0.0
H554 H 0.81293 0.72099 0.64208 0.0
H555 H 0.74914 0.76589 0.65585 0.0
H556 H 0.76094 0.68971 0.65106 0.0
H557 H 0.69277 0.70331 0.67119 0.0
H558 H 0.85964 0.80278 0.6584 0.0
H559 H 0.80973 0.74406 0.62416 0.0
H560 H 0.741 0.78653 0.6374 0.0
C561 C 0.51956 0.48226 0.91833 0.0
C562 C 0.53553 0.46143 0.91495 0.0
N563 N 0.55433 0.47094 0.90778 0.0
N564 N 0.52823 0.50489 0.91339 0.0
C565 C 0.54961 0.49744 0.90709 0.0
H566 H 0.50205 0.48079 0.92369 0.0
Co567 Co 0.50994 0.53711 0.91405 0.0
C568 C 0.54877 0.57862 0.90744 0.0
O569 O 0.53052 0.5905 0.90117 0.0
N570 N 0.49056 0.56976 0.91499 0.0
C571 C 0.46025 0.60174 0.91263 0.0
C572 C 0.46666 0.57566 0.91032 0.0
C573 C 0.49752 0.59241 0.92061 0.0
N574 N 0.47986 0.61248 0.919 0.0
O575 O 0.51434 0.53771 0.93023 0.0
H576 H 0.45449 0.56223 0.90537 0.0
H577 H 0.51576 0.59437 0.92548 0.0
O578 O 0.54351 0.5566 0.91245 0.0
C579 C 0.49352 0.53119 0.93579 0.0
O580 O 0.47154 0.52604 0.93008 0.0
N581 N 0.50392 0.53456 0.89822 0.0
C582 C 0.48485 0.52974 0.87592 0.0
C583 C 0.51097 0.53858 0.87798 0.0
C584 C 0.52035 0.54039 0.88923 0.0
C585 C 0.47998 0.52268 0.89627 0.0
C586 C 0.46978 0.52056 0.88524 0.0
H587 H 0.54064 0.54662 0.89057 0.0
H588 H 0.46802 0.5162 0.90346 0.0
H589 H 0.5606 0.51087 0.9016 0.0
H590 H 0.53301 0.44076 0.91736 0.0
H591 H 0.44295 0.61223 0.90942 0.0
H592 H 0.52378 0.54474 0.87101 0.0
H593 H 0.4496 0.51336 0.88417 0.0
C594 C 0.7715 0.27087 0.16937 0.0
C595 C 0.79218 0.28649 0.16555 0.0
N596 N 0.78216 0.30547 0.15861 0.0
N597 N 0.74848 0.27991 0.16489 0.0
C598 C 0.75555 0.30122 0.15847 0.0
H599 H 0.7733 0.25321 0.17461 0.0
Co600 Co 0.71632 0.26164 0.16596 0.0
C601 C 0.67472 0.29949 0.15851 0.0
O602 O 0.66343 0.28051 0.15245 0.0
N603 N 0.68377 0.24232 0.16735 0.0
C604 C 0.65177 0.21173 0.16589 0.0
C605 C 0.67785 0.21775 0.16337 0.0
C606 C 0.66115 0.25015 0.17277 0.0
N607 N 0.64109 0.23231 0.17169 0.0
O608 O 0.71589 0.26762 0.18202 0.0
H609 H 0.69127 0.20481 0.15878 0.0
H610 H 0.65918 0.26905 0.17715 0.0
O611 O 0.69657 0.2949 0.16379 0.0
C612 C 0.72294 0.24738 0.18786 0.0
O613 O 0.72857 0.22512 0.18244 0.0
N614 N 0.71873 0.25409 0.15023 0.0
C615 C 0.72396 0.23374 0.12815 0.0
C616 C 0.71568 0.26016 0.1299 0.0
C617 C 0.71368 0.27017 0.14104 0.0
C618 C 0.73 0.22972 0.14859 0.0
C619 C 0.73227 0.21888 0.13767 0.0
H620 H 0.70798 0.29071 0.14213 0.0
H621 H 0.73612 0.21807 0.15593 0.0
H622 H 0.74176 0.31235 0.1532 0.0
H623 H 0.8131 0.28349 0.16743 0.0
H624 H 0.64121 0.19399 0.16321 0.0
H625 H 0.71021 0.27279 0.12276 0.0
H626 H 0.73906 0.19849 0.13684 0.0
C627 C 0.98174 0.52336 0.41805 0.0
C628 C 0.96667 0.54435 0.41413 0.0
N629 N 0.94821 0.53481 0.40681 0.0
N630 N 0.97285 0.5006 0.41329 0.0
C631 C 0.9522 0.50816 0.40658 0.0
H632 H 0.99892 0.52478 0.4236 0.0
Co633 Co 0.99037 0.46801 0.41442 0.0
C634 C 0.95102 0.42706 0.40775 0.0
O635 O 0.96935 0.41455 0.40175 0.0
N636 N 0.00893 0.435 0.41583 0.0
C637 C 0.03824 0.40195 0.41388 0.0
C638 C 0.03277 0.42813 0.41133 0.0
C639 C 1.00107 0.41284 0.42158 0.0
N640 N 0.01808 0.39211 0.42022 0.0
O641 O 0.98504 0.46821 0.43054 0.0
H642 H 0.04546 0.44092 0.40632 0.0
H643 H 0.98259 0.41167 0.42633 0.0
O644 O 0.95648 0.44918 0.41263 0.0
C645 C 0.00563 0.47471 0.43625 0.0
O646 O 0.02793 0.47947 0.4307 0.0
N647 N 0.99735 0.46972 0.39863 0.0
C648 C 0.01747 0.47387 0.37647 0.0
C649 C 0.99116 0.46538 0.37835 0.0
C650 C 0.98127 0.4639 0.38953 0.0
C651 C 0.02161 0.48107 0.39683 0.0
C652 C 0.03231 0.48287 0.38588 0.0
H653 H 0.96082 0.45802 0.39071 0.0
H654 H 0.03335 0.48749 0.4041 0.0
H655 H 0.94138 0.49464 0.40107 0.0
H656 H 0.96969 0.56515 0.41622 0.0
H657 H 0.05523 0.39074 0.41081 0.0
H658 H 0.97855 0.45934 0.37129 0.0
H659 H 0.05264 0.48976 0.38494 0.0
C660 C 0.73177 0.26985 0.82752 0.0
C661 C 0.71112 0.28566 0.83125 0.0
N662 N 0.72111 0.30448 0.83827 0.0
N663 N 0.75475 0.27863 0.83213 0.0
C664 C 0.74768 0.29995 0.83855 0.0
H665 H 0.72996 0.25229 0.82222 0.0
Co666 Co 0.78696 0.26038 0.83115 0.0
C667 C 0.8287 0.29894 0.83773 0.0
O668 O 0.84063 0.28049 0.84387 0.0
N669 N 0.81961 0.2411 0.8299 0.0
C670 C 0.8523 0.21151 0.83214 0.0
C671 C 0.82617 0.2174 0.8346 0.0
C672 C 0.8419 0.24841 0.8241 0.0
N673 N 0.86243 0.23124 0.82564 0.0
O674 O 0.78701 0.26523 0.81501 0.0
H675 H 0.81322 0.20511 0.83973 0.0
H676 H 0.84331 0.26667 0.81921 0.0
O677 O 0.80653 0.29389 0.8328 0.0
C678 C 0.78004 0.24459 0.80943 0.0
O679 O 0.77467 0.22263 0.81512 0.0
N680 N 0.78495 0.25389 0.84696 0.0
C681 C 0.7808 0.23426 0.8692 0.0
C682 C 0.78945 0.26048 0.86721 0.0
C683 C 0.79092 0.27013 0.856 0.0
C684 C 0.77329 0.22983 0.84886 0.0
C685 C 0.7715 0.21935 0.85986 0.0
H686 H 0.79701 0.29049 0.85471 0.0
H687 H 0.76672 0.218 0.84165 0.0
H688 H 0.76145 0.31091 0.84388 0.0
H689 H 0.69025 0.28292 0.82923 0.0
H690 H 0.86327 0.19455 0.83539 0.0
H691 H 0.79569 0.27316 0.87421 0.0
H692 H 0.76445 0.1991 0.86088 0.0
C693 C 0.97965 0.47835 0.07473 0.0
C694 C 0.96341 0.45817 0.07857 0.0
N695 N 0.94718 0.46808 0.08673 0.0
N696 N 0.97369 0.50096 0.08039 0.0
C697 C 0.95372 0.49414 0.08761 0.0
H698 H 0.99549 0.4764 0.06852 0.0
Co699 Co 0.99303 0.53247 0.0794 0.0
C700 C 0.9565 0.57537 0.08722 0.0
O701 O 0.97603 0.58742 0.09265 0.0
N702 N 0.01319 0.56444 0.07818 0.0
C703 C 0.04306 0.5966 0.08089 0.0
C704 C 0.03678 0.57042 0.08311 0.0
C705 C 0.00629 0.58707 0.07255 0.0
N706 N 0.02363 0.6073 0.07439 0.0
O707 O 0.98573 0.53421 0.06343 0.0
H708 H 0.04843 0.5571 0.08835 0.0
H709 H 0.98799 0.58902 0.06773 0.0
O710 O 0.96052 0.55295 0.08232 0.0
C711 C 0.00564 0.5272 0.05738 0.0
O712 O 0.02796 0.52083 0.0626 0.0
N713 N 0.00214 0.52864 0.09485 0.0
C714 C 0.02791 0.52264 0.11579 0.0
C715 C 0.00282 0.5351 0.11516 0.0
C716 C 0.98987 0.53728 0.1046 0.0
C717 C 0.02461 0.51351 0.09555 0.0
C718 C 0.03781 0.51017 0.10592 0.0
H719 H 0.97044 0.54634 0.10437 0.0
H720 H 0.03317 0.50529 0.08782 0.0
H721 H 0.94515 0.50767 0.09381 0.0
H722 H 0.96393 0.43764 0.07574 0.0
H723 H 0.0599 0.60728 0.08442 0.0
H724 H 0.99388 0.54439 0.12259 0.0
H725 H 0.0564 0.49921 0.10605 0.0
C726 C 0.77555 0.73874 0.32547 0.0
C727 C 0.79688 0.72338 0.32885 0.0
N728 N 0.78768 0.70312 0.33533 0.0
N729 N 0.75296 0.72825 0.32976 0.0
C730 C 0.76094 0.70642 0.33563 0.0
H731 H 0.77655 0.757 0.32057 0.0
Co732 Co 0.71971 0.74459 0.32901 0.0
C733 C 0.68231 0.70416 0.338 0.0
O734 O 0.67054 0.72229 0.34436 0.0
N735 N 0.68586 0.7617 0.32799 0.0
C736 C 0.65258 0.79102 0.32913 0.0
C737 C 0.67918 0.78668 0.33124 0.0
C738 C 0.66301 0.75183 0.32343 0.0
N739 N 0.64225 0.76897 0.3243 0.0
O740 O 0.7184 0.73778 0.31302 0.0
H741 H 0.6925 0.80117 0.33491 0.0
H742 H 0.66157 0.7322 0.31965 0.0
O743 O 0.7023 0.71037 0.33178 0.0
C744 C 0.7244 0.75812 0.30704 0.0
O745 O 0.72937 0.7807 0.31233 0.0
N746 N 0.723 0.75312 0.34464 0.0
C747 C 0.72776 0.77466 0.36653 0.0
C748 C 0.72271 0.74736 0.36503 0.0
C749 C 0.72096 0.73683 0.35398 0.0
C750 C 0.73169 0.77862 0.346 0.0
C751 C 0.73356 0.79004 0.35683 0.0
H752 H 0.71772 0.71572 0.35308 0.0
H753 H 0.73614 0.79055 0.33853 0.0
H754 H 0.7476 0.694 0.34056 0.0
H755 H 0.81761 0.72727 0.32691 0.0
H756 H 0.6416 0.80887 0.33132 0.0
H757 H 0.71948 0.73438 0.37231 0.0
H758 H 0.73806 0.81109 0.35747 0.0
C759 C 0.5201 0.5222 0.5754 0.0
C760 C 0.53635 0.54251 0.57911 0.0
N761 N 0.55553 0.532 0.58581 0.0
N762 N 0.52894 0.49894 0.57973 0.0
C763 C 0.55076 0.50548 0.58593 0.0
H764 H 0.50214 0.52443 0.57039 0.0
Co765 Co 0.50982 0.46724 0.57895 0.0
C766 C 0.54677 0.42495 0.58646 0.0
O767 O 0.52768 0.41457 0.59276 0.0
N768 N 0.48968 0.4351 0.57788 0.0
C769 C 0.45889 0.4035 0.58001 0.0
C770 C 0.46534 0.42963 0.58222 0.0
C771 C 0.49687 0.41217 0.57253 0.0
N772 N 0.47895 0.39233 0.57404 0.0
O773 O 0.51515 0.46627 0.56283 0.0
H774 H 0.45292 0.44334 0.58691 0.0
H775 H 0.51549 0.4098 0.56797 0.0
O776 O 0.54266 0.44666 0.581 0.0
C777 C 0.4948 0.47363 0.55714 0.0
O778 O 0.47289 0.47976 0.56273 0.0
N779 N 0.50294 0.4703 0.59472 0.0
C780 C 0.48367 0.47697 0.61692 0.0
C781 C 0.50985 0.46808 0.61502 0.0
C782 C 0.51932 0.46536 0.60383 0.0
C783 C 0.47888 0.48215 0.59645 0.0
C784 C 0.46857 0.48514 0.60744 0.0
H785 H 0.53969 0.4592 0.60262 0.0
H786 H 0.46703 0.48818 0.58916 0.0
H787 H 0.56187 0.49141 0.59107 0.0
H788 H 0.53361 0.56353 0.57737 0.0
H789 H 0.44129 0.39326 0.58306 0.0
H790 H 0.52268 0.46269 0.62211 0.0
H791 H 0.44835 0.49238 0.60837 0.0
C792 C 0.27504 0.26711 0.32575 0.0
C793 C 0.29645 0.2821 0.32933 0.0
N794 N 0.28742 0.30152 0.3363 0.0
N795 N 0.25258 0.277 0.33042 0.0
C796 C 0.26071 0.29813 0.3367 0.0
H797 H 0.27595 0.24936 0.32051 0.0
Co798 Co 0.21944 0.26046 0.32981 0.0
C799 C 0.18183 0.30092 0.33868 0.0
O800 O 0.17001 0.28294 0.3451 0.0
N801 N 0.18575 0.24309 0.32896 0.0
C802 C 0.15305 0.21321 0.33026 0.0
C803 C 0.17957 0.21806 0.3323 0.0
C804 C 0.16266 0.25253 0.32444 0.0
N805 N 0.14226 0.23502 0.32539 0.0
O806 O 0.21777 0.26703 0.3138 0.0
H807 H 0.19324 0.20386 0.33597 0.0
H808 H 0.1608 0.27207 0.3206 0.0
O809 O 0.20189 0.29459 0.33253 0.0
C810 C 0.22359 0.24658 0.30786 0.0
O811 O 0.22879 0.22411 0.31319 0.0
N812 N 0.22304 0.25207 0.34544 0.0
C813 C 0.22836 0.22972 0.36716 0.0
C814 C 0.22216 0.25685 0.36588 0.0
C815 C 0.22017 0.26784 0.35491 0.0
C816 C 0.23271 0.22688 0.34661 0.0
C817 C 0.23494 0.21506 0.35734 0.0
H818 H 0.21608 0.28883 0.35417 0.0
H819 H 0.23751 0.21541 0.33904 0.0
H820 H 0.24755 0.3098 0.34204 0.0
H821 H 0.31714 0.27841 0.32723 0.0
H822 H 0.14242 0.19519 0.3325 0.0
H823 H 0.2182 0.2693 0.37326 0.0
H824 H 0.24022 0.19417 0.3578 0.0
C825 C 0.48101 0.52761 0.07381 0.0
C826 C 0.46522 0.54811 0.07774 0.0
N827 N 0.44858 0.53834 0.08578 0.0
N828 N 0.47437 0.50498 0.07932 0.0
C829 C 0.45444 0.5121 0.0865 0.0
H830 H 0.49708 0.52933 0.06769 0.0
Co831 Co 0.49289 0.4729 0.07851 0.0
C832 C 0.45526 0.43276 0.08796 0.0
O833 O 0.47439 0.42079 0.09369 0.0
N834 N 0.51207 0.44029 0.07754 0.0
C835 C 0.54295 0.40873 0.07948 0.0
C836 C 0.53694 0.43511 0.08136 0.0
C837 C 0.50391 0.41685 0.07293 0.0
N838 N 0.52202 0.39708 0.07427 0.0
O839 O 0.48462 0.47024 0.06266 0.0
H840 H 0.54998 0.44931 0.08543 0.0
H841 H 0.48463 0.4142 0.06894 0.0
O842 O 0.46017 0.45364 0.08207 0.0
C843 C 0.50446 0.47683 0.05647 0.0
O844 O 0.52692 0.48322 0.06158 0.0
N845 N 0.50315 0.47767 0.09381 0.0
C846 C 0.53035 0.48452 0.11437 0.0
C847 C 0.50446 0.47379 0.11425 0.0
C848 C 0.4908 0.47127 0.10386 0.0
C849 C 0.5265 0.49146 0.09399 0.0
C850 C 0.54046 0.49514 0.10415 0.0
H851 H 0.47072 0.4638 0.10403 0.0
H852 H 0.53508 0.49831 0.08602 0.0
H853 H 0.4455 0.49867 0.09264 0.0
H854 H 0.46642 0.56876 0.07511 0.0
H855 H 0.561 0.39874 0.08219 0.0
H856 H 0.49528 0.46609 0.12195 0.0
H857 H 0.55968 0.50493 0.10386 0.0
C858 C 0.22644 0.73588 0.82701 0.0
C859 C 0.20542 0.72039 0.83061 0.0
N860 N 0.21493 0.70123 0.83761 0.0
N861 N 0.24915 0.72657 0.83168 0.0
C862 C 0.24155 0.7053 0.838 0.0
H863 H 0.2251 0.75351 0.82171 0.0
Co864 Co 0.28202 0.74361 0.83087 0.0
C865 C 0.32049 0.70344 0.83935 0.0
O866 O 0.33247 0.72144 0.8457 0.0
N867 N 0.31546 0.76143 0.82982 0.0
C868 C 0.34783 0.7917 0.83095 0.0
C869 C 0.32145 0.78648 0.83318 0.0
C870 C 0.33847 0.75235 0.8251 0.0
N871 N 0.35868 0.77011 0.82594 0.0
O872 O 0.28315 0.73732 0.81483 0.0
H873 H 0.30776 0.80044 0.837 0.0
H874 H 0.34043 0.73289 0.8212 0.0
O875 O 0.30009 0.70967 0.83339 0.0
C876 C 0.27698 0.75795 0.80906 0.0
O877 O 0.27185 0.78019 0.81459 0.0
N878 N 0.27891 0.75182 0.84653 0.0
C879 C 0.27435 0.77447 0.86821 0.0
C880 C 0.28109 0.74745 0.86696 0.0
C881 C 0.28266 0.73629 0.856 0.0
C882 C 0.26875 0.77681 0.84771 0.0
C883 C 0.26685 0.78878 0.85841 0.0
H884 H 0.28717 0.71537 0.85528 0.0
H885 H 0.26338 0.78807 0.84015 0.0
H886 H 0.25502 0.69395 0.84333 0.0
H887 H 0.18465 0.72349 0.82849 0.0
H888 H 0.35832 0.80983 0.83316 0.0
H889 H 0.2858 0.73526 0.87434 0.0
H890 H 0.26115 0.80956 0.85885 0.0
C891 C 0.01543 0.47906 0.57521 0.0
C892 C 0.03105 0.45813 0.5788 0.0
N893 N 0.0503 0.46772 0.58572 0.0
N894 N 0.02474 0.50184 0.5798 0.0
C895 C 0.04619 0.49435 0.58606 0.0
H896 H 0.9977 0.47762 0.57 0.0
Co897 Co 0.00698 0.53437 0.57895 0.0
C898 C 0.0449 0.57464 0.58743 0.0
O899 O 0.0258 0.58528 0.59364 0.0
N900 N 0.98835 0.56748 0.57781 0.0
C901 C 0.95914 0.60066 0.57972 0.0
C902 C 0.964 0.57414 0.58184 0.0
C903 C 0.99717 0.59018 0.57274 0.0
N904 N 0.98022 0.61093 0.57412 0.0
O905 O 0.01372 0.53572 0.56295 0.0
H906 H 0.9505 0.561 0.58626 0.0
H907 H 0.01624 0.59166 0.56846 0.0
O908 O 0.04038 0.55346 0.58167 0.0
C909 C 0.99352 0.52924 0.55698 0.0
O910 O 0.97109 0.52367 0.56228 0.0
N911 N 0.99857 0.53097 0.59456 0.0
C912 C 0.97746 0.52365 0.61642 0.0
C913 C 0.0043 0.53092 0.61494 0.0
C914 C 0.01461 0.53412 0.60391 0.0
C915 C 0.9737 0.5206 0.59584 0.0
C916 C 0.96246 0.51745 0.60664 0.0
H917 H 0.03538 0.53914 0.60302 0.0
H918 H 0.96204 0.51582 0.58833 0.0
H919 H 0.05765 0.50792 0.59129 0.0
H920 H 0.02796 0.43735 0.5767 0.0
H921 H 0.94187 0.61173 0.58259 0.0
H922 H 0.01711 0.53461 0.62223 0.0
H923 H 0.94177 0.51149 0.60722 0.0
C924 C 0.2737 0.73487 0.16955 0.0
C925 C 0.2947 0.71957 0.1658 0.0
N926 N 0.28515 0.70054 0.15877 0.0
N927 N 0.25092 0.72557 0.16495 0.0
C928 C 0.25847 0.70443 0.15852 0.0
H929 H 0.27512 0.75246 0.17486 0.0
Co930 Co 0.2185 0.74345 0.16599 0.0
C931 C 0.17744 0.70562 0.15817 0.0
O932 O 0.16659 0.72473 0.15203 0.0
N933 N 0.18561 0.76234 0.16734 0.0
C934 C 0.15269 0.7919 0.1656 0.0
C935 C 0.17902 0.78664 0.16322 0.0
C936 C 0.16311 0.75398 0.17271 0.0
N937 N 0.1425 0.77113 0.17144 0.0
O938 O 0.21791 0.73724 0.18205 0.0
H939 H 0.19208 0.79982 0.15859 0.0
H940 H 0.16164 0.73507 0.17711 0.0
O941 O 0.19907 0.71002 0.16365 0.0
C942 C 0.22461 0.75755 0.18791 0.0
O943 O 0.22996 0.77989 0.18249 0.0
N944 N 0.2211 0.75129 0.15028 0.0
C945 C 0.2263 0.77208 0.12827 0.0
C946 C 0.21871 0.74542 0.12992 0.0
C947 C 0.21675 0.73521 0.14103 0.0
C948 C 0.23181 0.77594 0.14875 0.0
C949 C 0.23405 0.78699 0.13787 0.0
H950 H 0.21153 0.71452 0.14205 0.0
H951 H 0.23745 0.78763 0.15615 0.0
H952 H 0.24495 0.69312 0.1532 0.0
H953 H 0.31551 0.72278 0.16783 0.0
H954 H 0.14164 0.8092 0.16275 0.0
H955 H 0.21372 0.73277 0.12273 0.0
H956 H 0.24032 0.80756 0.13712 0.0
C957 C 0.0172 0.52143 0.91886 0.0
C958 C 0.03234 0.54272 0.91532 0.0
N959 N 0.05175 0.53363 0.90835 0.0
N960 N 0.02699 0.49891 0.9142 0.0
C961 C 0.04823 0.50692 0.90794 0.0
H962 H 0.99944 0.52245 0.92408 0.0
Co963 Co 0.0099 0.46607 0.915 0.0
C964 C 0.05015 0.42582 0.90846 0.0
O965 O 0.03225 0.41313 0.90231 0.0
N966 N 0.99169 0.4328 0.91608 0.0
C967 C 0.96253 0.39974 0.91388 0.0
C968 C 0.96798 0.42597 0.91146 0.0
C969 C 0.99948 0.41053 0.92178 0.0
N970 N 0.98254 0.38981 0.92027 0.0
O971 O 0.01446 0.4659 0.93115 0.0
H972 H 0.95529 0.43885 0.90649 0.0
H973 H 0.0178 0.40932 0.92664 0.0
O974 O 0.04416 0.44773 0.91341 0.0
C975 C 0.99362 0.47201 0.93678 0.0
O976 O 0.97139 0.47655 0.93114 0.0
N977 N 0.00376 0.46812 0.89916 0.0
C978 C 0.98551 0.47247 0.8767 0.0
C979 C 0.01194 0.46489 0.87898 0.0
C980 C 0.02083 0.4632 0.89029 0.0
C981 C 0.97931 0.4788 0.89703 0.0
C982 C 0.96951 0.48059 0.88591 0.0
H983 H 0.04134 0.45793 0.89177 0.0
H984 H 0.96678 0.48471 0.90413 0.0
H985 H 0.05994 0.49367 0.90265 0.0
H986 H 0.0288 0.56341 0.91746 0.0
H987 H 0.94561 0.3886 0.91071 0.0
H988 H 0.02546 0.45968 0.8721 0.0
H989 H 0.94906 0.48685 0.88468 0.0
C990 C 0.22995 0.27226 0.66829 0.0
C991 C 0.20861 0.28706 0.66449 0.0
N992 N 0.21778 0.30622 0.65741 0.0
N993 N 0.25253 0.28199 0.66367 0.0
C994 C 0.24452 0.30285 0.65718 0.0
H995 H 0.22891 0.25473 0.67365 0.0
Co996 Co 0.28572 0.26548 0.66461 0.0
C997 C 0.32369 0.30624 0.65631 0.0
O998 O 0.33618 0.28839 0.65005 0.0
N999 N 0.31941 0.24811 0.66578 0.0
C1000 C 0.3519 0.2179 0.66479 0.0
C1001 C 0.32552 0.22301 0.66252 0.0
C1002 C 0.34238 0.25736 0.67048 0.0
N1003 N 0.36266 0.23963 0.66972 0.0
O1004 O 0.28642 0.27175 0.68068 0.0
H1005 H 0.31188 0.20893 0.65876 0.0
H1006 H 0.34427 0.2769 0.67431 0.0
O1007 O 0.30324 0.29971 0.66217 0.0
C1008 C 0.28035 0.2511 0.68646 0.0
O1009 O 0.27556 0.22878 0.68094 0.0
N1010 N 0.28306 0.25728 0.64892 0.0
C1011 C 0.27857 0.23495 0.62717 0.0
C1012 C 0.28536 0.26191 0.62849 0.0
C1013 C 0.28686 0.27292 0.63948 0.0
C1014 C 0.27308 0.23224 0.64767 0.0
C1015 C 0.27117 0.22045 0.63692 0.0
H1016 H 0.29122 0.29385 0.64024 0.0
H1017 H 0.26768 0.22087 0.65519 0.0
H1018 H 0.25782 0.31434 0.65183 0.0
H1019 H 0.18788 0.28344 0.66651 0.0
H1020 H 0.36247 0.19976 0.66267 0.0
H1021 H 0.29005 0.2742 0.62114 0.0
H1022 H 0.26546 0.19969 0.6364 0.0
C1023 C 0.48646 0.47838 0.41839 0.0
C1024 C 0.47159 0.45687 0.41484 0.0
N1025 N 0.45201 0.46575 0.40792 0.0
N1026 N 0.47632 0.50077 0.41376 0.0
C1027 C 0.45518 0.49249 0.40751 0.0
H1028 H 0.50423 0.47762 0.42361 0.0
Co1029 Co 0.49246 0.53409 0.4145 0.0
C1030 C 0.4515 0.57155 0.40596 0.0
O1031 O 0.46931 0.5838 0.3996 0.0
N1032 N 0.50944 0.56795 0.41549 0.0
C1033 C 0.53866 0.60122 0.41414 0.0
C1034 C 0.53416 0.5747 0.41194 0.0
C1035 C 0.49985 0.59067 0.42028 0.0
N1036 N 0.51694 0.61143 0.4193 0.0
O1037 O 0.48604 0.5352 0.43053 0.0
H1038 H 0.54836 0.56146 0.408 0.0
H1039 H 0.48046 0.59201 0.42429 0.0
O1040 O 0.45807 0.55131 0.41195 0.0
C1041 C 0.50652 0.52935 0.43645 0.0
O1042 O 0.5291 0.52469 0.43109 0.0
N1043 N 0.50068 0.53101 0.39883 0.0
C1044 C 0.52264 0.52595 0.37703 0.0
C1045 C 0.49556 0.53224 0.37841 0.0
C1046 C 0.48475 0.53405 0.38942 0.0
C1047 C 0.52589 0.52146 0.39756 0.0
C1048 C 0.5375 0.51931 0.38679 0.0
H1049 H 0.46375 0.53805 0.39023 0.0
H1050 H 0.53752 0.51662 0.40508 0.0
H1051 H 0.44328 0.5056 0.40224 0.0
H1052 H 0.4754 0.43623 0.41697 0.0
H1053 H 0.55635 0.61225 0.41177 0.0
H1054 H 0.48301 0.53632 0.37107 0.0
H1055 H 0.55838 0.514 0.38623 0.0
C1056 C 0.60166 0.26141 0.17467 0.0
C1057 C 0.61322 0.23585 0.17449 0.0
C1058 C 0.57409 0.26455 0.17609 0.0
C1059 C 0.51105 0.22767 0.17188 0.0
H1060 H 0.47986 0.2859 0.18909 0.0
C1061 C 0.39679 0.23918 0.17577 0.0
C1062 C 0.38649 0.26508 0.17439 0.0
C1063 C 0.4242 0.23503 0.17727 0.0
C1064 C 0.48823 0.26963 0.18417 0.0
H1065 H 0.60487 0.19367 0.17626 0.0
H1066 H 0.55694 0.19911 0.17877 0.0
H1067 H 0.52818 0.28 0.18894 0.0
H1068 H 0.39707 0.30699 0.17423 0.0
H1069 H 0.44467 0.29978 0.17661 0.0
H1070 H 0.47129 0.21757 0.1669 0.0
C1071 C 0.56909 0.21673 0.17759 0.0
C1072 C 0.51597 0.26625 0.18409 0.0
C1073 C 0.59662 0.21361 0.17618 0.0
C1074 C 0.40424 0.28674 0.17508 0.0
C1075 C 0.43161 0.28261 0.17658 0.0
C1076 C 0.48336 0.23109 0.17193 0.0
C1077 C 0.55737 0.2422 0.17735 0.0
C1078 C 0.52777 0.24531 0.17789 0.0
C1079 C 0.44207 0.25666 0.17747 0.0
C1080 C 0.47153 0.25222 0.17801 0.0
H1081 H 0.61372 0.27897 0.17323 0.0
H1082 H 0.56576 0.28445 0.17574 0.0
H1083 H 0.51941 0.2116 0.16684 0.0
H1084 H 0.38388 0.22196 0.17527 0.0
H1085 H 0.43141 0.21478 0.17812 0.0
C1086 C 0.00977 0.14897 0.42348 0.0
C1087 C 0.98416 0.13751 0.42342 0.0
C1088 C 0.01302 0.17657 0.42474 0.0
C1089 C 0.97631 0.23983 0.42049 0.0
H1090 H 0.03485 0.2708 0.43756 0.0
C1091 C 0.988 0.35409 0.42457 0.0
C1092 C 0.01389 0.36437 0.42315 0.0
C1093 C 0.98384 0.32666 0.426 0.0
C1094 C 0.0185 0.2625 0.43268 0.0
H1095 H 0.94203 0.14616 0.42524 0.0
H1096 H 0.94767 0.19411 0.42745 0.0
H1097 H 0.02885 0.22251 0.43742 0.0
H1098 H 0.05579 0.3537 0.42283 0.0
H1099 H 0.04857 0.30608 0.42509 0.0
H1100 H 0.9662 0.27965 0.41557 0.0
C1101 C 0.96524 0.18184 0.42629 0.0
C1102 C 0.01506 0.23477 0.4326 0.0
C1103 C 0.962 0.15429 0.42504 0.0
C1104 C 0.03555 0.34656 0.42372 0.0
C1105 C 0.03141 0.31917 0.42515 0.0
C1106 C 0.97978 0.26752 0.42055 0.0
C1107 C 0.99076 0.19344 0.42597 0.0
C1108 C 0.994 0.22304 0.42645 0.0
C1109 C 0.00547 0.30874 0.42608 0.0
C1110 C 1.00101 0.27927 0.42658 0.0
H1111 H 0.02728 0.13678 0.42211 0.0
H1112 H 0.03296 0.18479 0.42433 0.0
H1113 H 0.96014 0.23154 0.4155 0.0
H1114 H 0.97079 0.36704 0.42417 0.0
H1115 H 0.9636 0.31946 0.42689 0.0
C1116 C 0.09824 0.7181 0.6755 0.0
C1117 C 0.11519 0.73978 0.67323 0.0
C1118 C 0.07072 0.7218 0.67667 0.0
C1119 C 0.01794 0.7732 0.68116 0.0
H1120 H 0.97291 0.72039 0.66659 0.0
C1121 C 0.90494 0.78961 0.67239 0.0
C1122 C 0.88773 0.76755 0.67325 0.0
C1123 C 0.93256 0.78655 0.67364 0.0
C1124 C 0.9851 0.73515 0.67086 0.0
H1125 H 0.11636 0.78255 0.67066 0.0
H1126 H 0.06834 0.78905 0.67266 0.0
H1127 H 0.02101 0.71463 0.66644 0.0
H1128 H 0.88642 0.72497 0.6765 0.0
H1129 H 0.93429 0.71976 0.67889 0.0
H1130 H 0.98185 0.79389 0.68542 0.0
C1131 C 0.07637 0.76915 0.67368 0.0
C1132 C 0.0128 0.73184 0.67078 0.0
C1133 C 0.10397 0.76544 0.67254 0.0
C1134 C 0.89886 0.7425 0.67585 0.0
C1135 C 0.92647 0.73943 0.67707 0.0
C1136 C 0.99016 0.77653 0.68123 0.0
C1137 C 0.05929 0.7473 0.67556 0.0
C1138 C 0.02966 0.7508 0.67591 0.0
C1139 C 0.94377 0.76131 0.67577 0.0
C1140 C 0.97335 0.75755 0.67607 0.0
H1141 H 0.10624 0.69815 0.67627 0.0
H1142 H 0.05836 0.70457 0.67839 0.0
H1143 H 0.03021 0.78807 0.68532 0.0
H1144 H 0.8971 0.80923 0.67051 0.0
H1145 H 0.9452 0.80384 0.67252 0.0
C1146 C 0.50826 0.65182 0.92332 0.0
C1147 C 0.48284 0.64041 0.92186 0.0
C1148 C 0.51119 0.67943 0.92471 0.0
C1149 C 0.47637 0.74252 0.9181 0.0
H1150 H 0.52887 0.77408 0.93829 0.0
C1151 C 0.48693 0.85699 0.92211 0.0
C1152 C 0.51303 0.86724 0.92247 0.0
C1153 C 0.48228 0.82957 0.92332 0.0
C1154 C 0.51426 0.76562 0.93252 0.0
H1155 H 0.44052 0.64922 0.92149 0.0
H1156 H 0.44563 0.69714 0.9239 0.0
H1157 H 0.52293 0.72578 0.93807 0.0
H1158 H 0.55452 0.85654 0.92497 0.0
H1159 H 0.54654 0.80897 0.92678 0.0
H1160 H 0.46805 0.78213 0.91234 0.0
C1161 C 0.46336 0.68482 0.9237 0.0
C1162 C 0.51085 0.73788 0.93241 0.0
C1163 C 0.46042 0.65726 0.92234 0.0
C1164 C 0.5342 0.84942 0.92447 0.0
C1165 C 0.52957 0.82205 0.92566 0.0
C1166 C 0.47986 0.7702 0.91817 0.0
C1167 C 0.4888 0.69635 0.92468 0.0
C1168 C 0.49193 0.72595 0.92516 0.0
C1169 C 0.50358 0.81164 0.92492 0.0
C1170 C 0.49896 0.78218 0.92533 0.0
H1171 H 0.52601 0.63961 0.92292 0.0
H1172 H 0.53111 0.68761 0.92535 0.0
H1173 H 0.46194 0.73403 0.91225 0.0
H1174 H 0.47012 0.86999 0.9205 0.0
H1175 H 0.46195 0.82241 0.92288 0.0
C1176 C 0.39897 0.76015 0.32111 0.0
C1177 C 0.3875 0.73468 0.32225 0.0
C1178 C 0.42658 0.7631 0.31971 0.0
C1179 C 0.48955 0.72765 0.32582 0.0
H1180 H 0.52125 0.78137 0.30625 0.0
C1181 C 0.60401 0.738 0.32189 0.0
C1182 C 0.61439 0.76406 0.32184 0.0
C1183 C 0.57658 0.73356 0.32062 0.0
C1184 C 0.51275 0.76641 0.31184 0.0
H1185 H 0.39615 0.69233 0.32205 0.0
H1186 H 0.44408 0.69746 0.31963 0.0
H1187 H 0.47292 0.77558 0.30643 0.0
H1188 H 0.60388 0.80575 0.31985 0.0
H1189 H 0.55627 0.79811 0.31795 0.0
H1190 H 0.52914 0.71883 0.33145 0.0
C1191 C 0.43181 0.7152 0.32007 0.0
C1192 C 0.485 0.76308 0.31193 0.0
C1193 C 0.40426 0.71226 0.32145 0.0
C1194 C 0.59667 0.78544 0.3201 0.0
C1195 C 0.56927 0.78102 0.31886 0.0
C1196 C 0.51724 0.73105 0.32578 0.0
C1197 C 0.44342 0.74065 0.31941 0.0
C1198 C 0.47302 0.74373 0.31895 0.0
C1199 C 0.55875 0.75505 0.31928 0.0
C1200 C 0.52927 0.75058 0.31884 0.0
H1201 H 0.38683 0.7779 0.32176 0.0
H1202 H 0.43483 0.78302 0.31931 0.0
H1203 H 0.48102 0.71286 0.33149 0.0
H1204 H 0.61692 0.72103 0.32329 0.0
H1205 H 0.56932 0.71324 0.32081 0.0
C1206 C 0.45973 0.3475 0.57067 0.0
C1207 C 0.48214 0.36424 0.57154 0.0
C1208 C 0.46272 0.31988 0.56955 0.0
C1209 C 0.51095 0.26652 0.56207 0.0
H1210 H 0.46619 0.22276 0.58153 0.0
C1211 C 0.53375 0.15529 0.57087 0.0
C1212 C 0.51248 0.13746 0.5726 0.0
C1213 C 0.52914 0.18261 0.5695 0.0
C1214 C 0.47857 0.23455 0.57587 0.0
H1215 H 0.52539 0.36479 0.57164 0.0
H1216 H 0.53057 0.31671 0.56956 0.0
H1217 H 0.46 0.27087 0.58127 0.0
H1218 H 0.46943 0.13467 0.57391 0.0
H1219 H 0.46133 0.18214 0.57119 0.0
H1220 H 0.52958 0.23021 0.55669 0.0
C1221 C 0.51064 0.32501 0.56966 0.0
C1222 C 0.47503 0.26223 0.57574 0.0
C1223 C 0.50766 0.35267 0.57082 0.0
C1224 C 0.48634 0.14766 0.57252 0.0
C1225 C 0.48171 0.17503 0.57112 0.0
C1226 C 0.51439 0.2388 0.56214 0.0
C1227 C 0.4882 0.30822 0.56922 0.0
C1228 C 0.49131 0.27862 0.56892 0.0
C1229 C 0.50308 0.19297 0.56977 0.0
C1230 C 0.49841 0.22241 0.56913 0.0
H1231 H 0.4398 0.3557 0.57099 0.0
H1232 H 0.445 0.30761 0.56901 0.0
H1233 H 0.5236 0.2785 0.55659 0.0
H1234 H 0.55413 0.14822 0.57071 0.0
H1235 H 0.54617 0.1957 0.5686 0.0
C1236 C 0.10597 0.24002 0.82281 0.0
C1237 C 0.1171 0.26571 0.82204 0.0
C1238 C 0.0784 0.2362 0.82161 0.0
C1239 C 0.01485 0.27283 0.82478 0.0
H1240 H 0.98416 0.21192 0.80922 0.0
C1241 C 0.90069 0.2607 0.82086 0.0
C1242 C 0.89026 0.23502 0.82273 0.0
C1243 C 0.92815 0.26458 0.81942 0.0
C1244 C 0.99237 0.22894 0.81369 0.0
H1245 H 0.10792 0.30725 0.81875 0.0
H1246 H 0.0601 0.30062 0.8167 0.0
H1247 H 0.03246 0.21803 0.8093 0.0
H1248 H 0.90078 0.19315 0.82385 0.0
H1249 H 0.94845 0.19995 0.82163 0.0
H1250 H 0.97501 0.28351 0.8294 0.0
C1251 C 0.07257 0.28348 0.81846 0.0
C1252 C 0.02011 0.23244 0.81373 0.0
C1253 C 0.10006 0.28728 0.81963 0.0
C1254 C 0.908 0.21326 0.82262 0.0
C1255 C 0.93544 0.21715 0.82121 0.0
C1256 C 0.98718 0.26928 0.82479 0.0
C1257 C 0.06128 0.25798 0.81964 0.0
C1258 C 0.03172 0.2544 0.8193 0.0
C1259 C 0.946 0.24292 0.8198 0.0
C1260 C 0.9755 0.24723 0.81929 0.0
H1261 H 0.11838 0.22298 0.82478 0.0
H1262 H 0.0704 0.21631 0.82267 0.0
H1263 H 0.02307 0.28972 0.82933 0.0
H1264 H 0.88783 0.278 0.8209 0.0
H1265 H 0.93542 0.28469 0.81814 0.0
C1266 C 0.96737 0.84521 0.07102 0.0
C1267 C 0.98897 0.86232 0.07325 0.0
C1268 C 0.97127 0.81777 0.06971 0.0
C1269 C 0.0225 0.76571 0.06429 0.0
H1270 H 0.97199 0.71985 0.07987 0.0
C1271 C 0.04177 0.653 0.072 0.0
C1272 C 0.01995 0.63537 0.0719 0.0
C1273 C 0.03797 0.68055 0.07095 0.0
C1274 C 0.98607 0.73225 0.0753 0.0
H1275 H 0.03183 0.86379 0.07556 0.0
H1276 H 0.03868 0.81588 0.07324 0.0
H1277 H 0.96567 0.76789 0.08025 0.0
H1278 H 0.97691 0.63329 0.07016 0.0
H1279 H 0.97038 0.68106 0.06805 0.0
H1280 H 0.04299 0.72998 0.0594 0.0
C1281 C 0.01868 0.82378 0.07241 0.0
C1282 C 0.98246 0.75991 0.07553 0.0
C1283 C 0.01476 0.85131 0.07373 0.0
C1284 C 0.99428 0.64605 0.07024 0.0
C1285 C 0.99048 0.67361 0.06918 0.0
C1286 C 0.02609 0.73798 0.06403 0.0
C1287 C 0.99691 0.80658 0.0706 0.0
C1288 C 1.00065 0.77705 0.07006 0.0
C1289 C 0.01222 0.69132 0.06974 0.0
C1290 C 0.00797 0.72085 0.06957 0.0
H1291 H 0.94731 0.853 0.07037 0.0
H1292 H 0.95411 0.80526 0.06807 0.0
H1293 H 0.03674 0.77825 0.05987 0.0
H1294 H 0.06186 0.64557 0.0731 0.0
H1295 H 0.05522 0.69346 0.07149 0.0
C1296 C 0.60303 0.7627 0.82068 0.0
C1297 C 0.61345 0.73684 0.82203 0.0
C1298 C 0.57554 0.76677 0.81938 0.0
C1299 C 0.51126 0.73175 0.81316 0.0
H1300 H 0.48069 0.79042 0.8303 0.0
C1301 C 0.39805 0.74063 0.82334 0.0
C1302 C 0.38658 0.76624 0.82323 0.0
C1303 C 0.4256 0.73729 0.82186 0.0
C1304 C 0.48888 0.77415 0.82533 0.0
H1305 H 0.60295 0.69491 0.82236 0.0
H1306 H 0.55526 0.70197 0.82037 0.0
H1307 H 0.52881 0.7845 0.82993 0.0
H1308 H 0.39512 0.80824 0.82081 0.0
H1309 H 0.44294 0.80243 0.81826 0.0
H1310 H 0.47111 0.72113 0.80879 0.0
C1311 C 0.56827 0.71919 0.82025 0.0
C1312 C 0.51657 0.77077 0.82509 0.0
C1313 C 0.59571 0.71513 0.82153 0.0
C1314 C 0.40326 0.78828 0.82118 0.0
C1315 C 0.43074 0.78495 0.81972 0.0
C1316 C 0.48351 0.73508 0.81344 0.0
C1317 C 0.5577 0.74509 0.81938 0.0
C1318 C 0.52819 0.74944 0.81906 0.0
C1319 C 0.44237 0.75947 0.82024 0.0
C1320 C 0.47194 0.75626 0.81957 0.0
H1321 H 0.61593 0.77994 0.82104 0.0
H1322 H 0.56825 0.78699 0.81853 0.0
H1323 H 0.51943 0.71532 0.80829 0.0
H1324 H 0.38593 0.72322 0.82502 0.0
H1325 H 0.43387 0.71739 0.8224 0.0
C1326 C 0.96373 0.65696 0.57093 0.0
C1327 C 0.98509 0.63888 0.57182 0.0
C1328 C 0.96833 0.6844 0.56996 0.0
C1329 C 0.02016 0.73528 0.57608 0.0
H1330 H 0.97331 0.78164 0.55873 0.0
C1331 C 0.04073 0.84807 0.57196 0.0
C1332 C 0.01894 0.86534 0.57359 0.0
C1333 C 0.03688 0.82063 0.5706 0.0
C1334 C 0.98647 0.76899 0.56368 0.0
H1335 H 0.02824 0.63581 0.57206 0.0
H1336 H 0.03626 0.68342 0.57001 0.0
H1337 H 0.96657 0.73347 0.55817 0.0
H1338 H 0.97581 0.867 0.57479 0.0
H1339 H 0.96909 0.81917 0.57232 0.0
H1340 H 0.04003 0.77078 0.58159 0.0
C1341 C 0.01585 0.67643 0.57029 0.0
C1342 C 0.9826 0.74132 0.56337 0.0
C1343 C 0.01124 0.64897 0.57129 0.0
C1344 C 0.99307 0.85446 0.57342 0.0
C1345 C 0.98921 0.82696 0.57202 0.0
C1346 C 0.02411 0.76289 0.57633 0.0
C1347 C 0.99446 0.6946 0.56981 0.0
C1348 C 0.99929 0.72405 0.56964 0.0
C1349 C 0.01111 0.80963 0.5708 0.0
C1350 C 0.00724 0.78014 0.57019 0.0
H1351 H 0.94334 0.64998 0.57117 0.0
H1352 H 0.9513 0.69765 0.56972 0.0
H1353 H 0.03311 0.7228 0.58121 0.0
H1354 H 0.06089 0.85572 0.57182 0.0
H1355 H 0.05417 0.80797 0.56946 0.0
C1356 C 0.89798 0.2443 0.32161 0.0
C1357 C 0.88747 0.27023 0.32255 0.0
C1358 C 0.92546 0.24023 0.32037 0.0
C1359 C 0.98963 0.27494 0.31361 0.0
H1360 H 0.02035 0.21675 0.33101 0.0
C1361 C 0.1032 0.26504 0.32307 0.0
C1362 C 0.11431 0.23927 0.3229 0.0
C1363 C 0.07564 0.26876 0.32181 0.0
C1364 C 0.01211 0.2329 0.32597 0.0
H1365 H 0.89781 0.31218 0.32236 0.0
H1366 H 0.94557 0.30512 0.32052 0.0
H1367 H 0.97228 0.22303 0.33091 0.0
H1368 H 0.10507 0.19738 0.32061 0.0
H1369 H 0.05723 0.20384 0.31847 0.0
H1370 H 0.02972 0.28508 0.30892 0.0
C1371 C 0.93261 0.28787 0.32062 0.0
C1372 C 0.98444 0.23648 0.32589 0.0
C1373 C 0.90514 0.29194 0.32181 0.0
C1374 C 0.09723 0.21746 0.32102 0.0
C1375 C 0.06974 0.22115 0.3198 0.0
C1376 C 0.01737 0.27143 0.31375 0.0
C1377 C 0.94325 0.26194 0.32008 0.0
C1378 C 0.97276 0.25759 0.31973 0.0
C1379 C 0.0585 0.24679 0.32038 0.0
C1380 C 0.02896 0.25038 0.31995 0.0
H1381 H 0.88514 0.22704 0.32224 0.0
H1382 H 0.93279 0.21997 0.31979 0.0
H1383 H 0.98142 0.29119 0.30864 0.0
H1384 H 0.11562 0.2823 0.32463 0.0
H1385 H 0.06765 0.28877 0.32238 0.0
C1386 C 0.46847 0.15926 0.07177 0.0
C1387 C 0.49 0.14158 0.07321 0.0
C1388 C 0.47273 0.18667 0.07049 0.0
C1389 C 0.5232 0.23901 0.07647 0.0
H1390 H 0.47655 0.28286 0.05787 0.0
C1391 C 0.5411 0.35209 0.07097 0.0
C1392 C 0.51872 0.36884 0.07208 0.0
C1393 C 0.53813 0.32444 0.07 0.0
C1394 C 0.48965 0.27092 0.06316 0.0
H1395 H 0.53313 0.13916 0.07407 0.0
H1396 H 0.54061 0.18679 0.0715 0.0
H1397 H 0.47096 0.23454 0.05792 0.0
H1398 H 0.47549 0.36928 0.07274 0.0
H1399 H 0.47033 0.32113 0.0709 0.0
H1400 H 0.54187 0.2754 0.0817 0.0
C1401 C 0.5203 0.17949 0.0716 0.0
C1402 C 0.48644 0.24316 0.06321 0.0
C1403 C 0.51603 0.15203 0.07292 0.0
C1404 C 0.4932 0.35718 0.07176 0.0
C1405 C 0.49023 0.32948 0.07073 0.0
C1406 C 0.52651 0.26672 0.07636 0.0
C1407 C 0.49869 0.19728 0.07054 0.0
C1408 C 0.50302 0.22679 0.06995 0.0
C1409 C 0.51268 0.31271 0.07003 0.0
C1410 C 0.50966 0.28309 0.06977 0.0
H1411 H 0.44816 0.15202 0.07179 0.0
H1412 H 0.45552 0.19961 0.06982 0.0
H1413 H 0.53606 0.22724 0.08194 0.0
H1414 H 0.56104 0.36031 0.07096 0.0
H1415 H 0.55584 0.31221 0.06926 0.0
C1416 C 0.60694 0.24434 0.6759 0.0
C1417 C 0.61804 0.26987 0.67441 0.0
C1418 C 0.57931 0.241 0.67697 0.0
C1419 C 0.51549 0.27769 0.6823 0.0
H1420 H 0.48457 0.21837 0.66572 0.0
C1421 C 0.4021 0.2691 0.67211 0.0
C1422 C 0.39055 0.24355 0.67244 0.0
C1423 C 0.42968 0.27239 0.67357 0.0
C1424 C 0.49283 0.23485 0.67054 0.0
H1425 H 0.60854 0.31199 0.67354 0.0
H1426 H 0.56056 0.30616 0.67513 0.0
H1427 H 0.53273 0.22365 0.66623 0.0
H1428 H 0.39893 0.20165 0.67525 0.0
H1429 H 0.44674 0.20736 0.67779 0.0
H1430 H 0.47538 0.2891 0.68639 0.0
C1431 C 0.57317 0.28866 0.67555 0.0
C1432 C 0.52056 0.23787 0.67085 0.0
C1433 C 0.60078 0.29201 0.6745 0.0
C1434 C 0.40714 0.22155 0.67471 0.0
C1435 C 0.43463 0.22483 0.67615 0.0
C1436 C 0.48769 0.27472 0.68194 0.0
C1437 C 0.56196 0.26307 0.67658 0.0
C1438 C 0.53234 0.25937 0.6767 0.0
C1439 C 0.44638 0.25021 0.67539 0.0
C1440 C 0.47599 0.25327 0.67604 0.0
H1441 H 0.61942 0.22676 0.67583 0.0
H1442 H 0.57152 0.221 0.67795 0.0
H1443 H 0.52377 0.2943 0.68702 0.0
H1444 H 0.39003 0.28646 0.67026 0.0
H1445 H 0.43803 0.29222 0.67284 0.0
C1446 C 0.53381 0.65679 0.42361 0.0
C1447 C 0.51227 0.63921 0.422 0.0
C1448 C 0.52955 0.68415 0.42508 0.0
C1449 C 0.47935 0.73661 0.41909 0.0
H1450 H 0.52531 0.78006 0.43816 0.0
C1451 C 0.46138 0.84952 0.42426 0.0
C1452 C 0.48383 0.86618 0.42326 0.0
C1453 C 0.46428 0.82193 0.42546 0.0
C1454 C 0.51241 0.76823 0.43274 0.0
H1455 H 0.46915 0.63688 0.42105 0.0
H1456 H 0.46167 0.68442 0.42393 0.0
H1457 H 0.53088 0.73171 0.43798 0.0
H1458 H 0.52706 0.86663 0.42325 0.0
H1459 H 0.53212 0.81853 0.42541 0.0
H1460 H 0.46097 0.7731 0.41381 0.0
C1461 C 0.48197 0.67708 0.42383 0.0
C1462 C 0.51561 0.74047 0.43262 0.0
C1463 C 0.48624 0.64968 0.42233 0.0
C1464 C 0.50931 0.85455 0.42406 0.0
C1465 C 0.51221 0.82689 0.42529 0.0
C1466 C 0.47608 0.76432 0.41925 0.0
C1467 C 0.50359 0.69478 0.42503 0.0
C1468 C 0.49926 0.72426 0.42572 0.0
C1469 C 0.48971 0.81016 0.42576 0.0
C1470 C 0.49267 0.78054 0.42602 0.0
H1471 H 0.5541 0.64949 0.42357 0.0
H1472 H 0.54674 0.69705 0.42587 0.0
H1473 H 0.46671 0.72496 0.41349 0.0
H1474 H 0.44146 0.85775 0.42393 0.0
H1475 H 0.44651 0.80974 0.42606 0.0
C1476 C 0.0969 0.78821 0.17514 0.0
C1477 C 0.11462 0.76662 0.17401 0.0
C1478 C 0.06946 0.78397 0.17634 0.0
C1479 C 0.01768 0.73328 0.17017 0.0
H1480 H 0.9726 0.77951 0.18842 0.0
C1481 C 0.9048 0.71402 0.17422 0.0
C1482 C 0.88782 0.73619 0.17306 0.0
C1483 C 0.93228 0.71736 0.17567 0.0
C1484 C 0.98489 0.76653 0.18322 0.0
H1485 H 0.1171 0.72345 0.17357 0.0
H1486 H 0.06946 0.71605 0.17597 0.0
H1487 H 0.0209 0.78563 0.1887 0.0
H1488 H 0.88664 0.7794 0.173 0.0
H1489 H 0.93455 0.78524 0.17552 0.0
H1490 H 0.98175 0.71432 0.16462 0.0
C1491 C 0.07674 0.73635 0.17574 0.0
C1492 C 0.01262 0.77004 0.18337 0.0
C1493 C 0.10421 0.7406 0.17452 0.0
C1494 C 0.89898 0.76185 0.17392 0.0
C1495 C 0.92654 0.7652 0.17537 0.0
C1496 C 0.99001 0.72973 0.17005 0.0
C1497 C 0.05891 0.75799 0.17646 0.0
C1498 C 0.02942 0.75355 0.17679 0.0
C1499 C 0.94362 0.74297 0.17602 0.0
C1500 C 0.9732 0.74637 0.17653 0.0
H1501 H 0.10419 0.8085 0.1749 0.0
H1502 H 0.05643 0.80116 0.17678 0.0
H1503 H 0.02981 0.72053 0.1648 0.0
H1504 H 0.89691 0.69397 0.17384 0.0
H1505 H 0.94471 0.69978 0.1764 0.0
C1506 C 0.01241 0.3517 0.92483 0.0
C1507 C 0.98659 0.36204 0.9232 0.0
C1508 C 0.01645 0.32426 0.92628 0.0
C1509 C 0.98119 0.26003 0.93241 0.0
H1510 H 0.04097 0.22923 0.91607 0.0
C1511 C 0.99093 0.14667 0.92274 0.0
C1512 C 0.01654 0.13525 0.92322 0.0
C1513 C 0.98744 0.17424 0.92409 0.0
C1514 C 0.02437 0.23749 0.92082 0.0
H1515 H 0.94471 0.35144 0.92253 0.0
H1516 H 0.95175 0.30383 0.92476 0.0
H1517 H 0.03492 0.27733 0.91616 0.0
H1518 H 0.05833 0.14392 0.92617 0.0
H1519 H 0.05227 0.19177 0.92847 0.0
H1520 H 0.97037 0.21996 0.93682 0.0
C1521 C 0.96894 0.31686 0.92499 0.0
C1522 C 0.02092 0.26517 0.9209 0.0
C1523 C 0.9649 0.34427 0.92357 0.0
C1524 C 0.0384 0.15201 0.92551 0.0
C1525 C 0.03492 0.17951 0.92682 0.0
C1526 C 0.98458 0.23229 0.93228 0.0
C1527 C 0.99481 0.30637 0.92615 0.0
C1528 C 0.9992 0.27688 0.92664 0.0
C1529 C 0.00947 0.19107 0.92593 0.0
C1530 C 0.00616 0.22064 0.92644 0.0
H1531 H 0.02964 0.36462 0.92458 0.0
H1532 H 0.03664 0.31703 0.92735 0.0
H1533 H 0.96445 0.26827 0.93707 0.0
H1534 H 0.97366 0.13451 0.92087 0.0
H1535 H 0.96757 0.18247 0.92325 0.0
C1536 C 0.44539 0.01534 0.13211 0.0
C1537 C 0.46764 0.03074 0.12893 0.0
C1538 C 0.42875 0.02362 0.14103 0.0
C1539 C 0.41979 0.07739 0.16301 0.0
H1540 H 0.35066 0.08496 0.14851 0.0
C1541 C 0.36563 0.17488 0.15904 0.0
C1542 C 0.33778 0.17652 0.1599 0.0
C1543 C 0.37852 0.15048 0.16017 0.0
C1544 C 0.36949 0.08249 0.15292 0.0
H1545 H 0.49146 0.06523 0.13353 0.0
H1546 H 0.46282 0.0795 0.14893 0.0
H1547 H 0.38104 0.05051 0.14197 0.0
H1548 H 0.30152 0.15411 0.16289 0.0
H1549 H 0.32424 0.11075 0.16434 0.0
H1550 H 0.40901 0.11127 0.17316 0.0
C1551 C 0.45806 0.06097 0.14464 0.0
C1552 C 0.38699 0.06265 0.14919 0.0
C1553 C 0.4746 0.05276 0.13573 0.0
C1554 C 0.32304 0.1533 0.16217 0.0
C1555 C 0.33598 0.12861 0.16304 0.0
C1556 C 0.40237 0.09737 0.16666 0.0
C1557 C 0.43413 0.04739 0.14696 0.0
C1558 C 0.41301 0.06109 0.15367 0.0
C1559 C 0.36385 0.12703 0.16198 0.0
C1560 C 0.37778 0.10111 0.16113 0.0
H1561 H 0.43989 0.99782 0.12724 0.0
H1562 H 0.41075 0.01242 0.14277 0.0
H1563 H 0.43944 0.07626 0.16682 0.0
H1564 H 0.37753 0.19248 0.15739 0.0
H1565 H 0.39997 0.14981 0.15908 0.0
C1566 C 0.23971 0.19321 0.38111 0.0
C1567 C 0.22428 0.21567 0.37823 0.0
C1568 C 0.23063 0.17507 0.38931 0.0
C1569 C 0.18935 0.13268 0.39395 0.0
H1570 H 0.14133 0.14671 0.41925 0.0
C1571 C 0.08312 0.09599 0.39669 0.0
C1572 C 0.07437 0.08283 0.40658 0.0
C1573 C 0.10858 0.10697 0.39625 0.0
C1574 C 0.15515 0.14222 0.41239 0.0
H1575 H 0.18918 0.23856 0.38291 0.0
H1576 H 0.17367 0.20732 0.39719 0.0
H1577 H 0.17651 0.17886 0.41465 0.0
H1578 H 0.08519 0.07057 0.42375 0.0
H1579 H 0.12979 0.09104 0.42312 0.0
H1580 H 0.16639 0.09736 0.39102 0.0
C1581 C 0.19268 0.2035 0.39311 0.0
C1582 C 0.17517 0.16061 0.40973 0.0
C1583 C 0.20162 0.22151 0.38486 0.0
C1584 C 0.09164 0.08052 0.41601 0.0
C1585 C 0.117 0.09218 0.41567 0.0
C1586 C 0.16919 0.11453 0.39652 0.0
C1587 C 0.20613 0.17926 0.39485 0.0
C1588 C 0.19153 0.15667 0.4001 0.0
C1589 C 0.12556 0.10549 0.40577 0.0
C1590 C 0.15116 0.11985 0.40539 0.0
H1591 H 0.25773 0.18856 0.37641 0.0
H1592 H 0.24165 0.15675 0.39064 0.0
H1593 H 0.20142 0.12911 0.38641 0.0
H1594 H 0.07019 0.09795 0.38931 0.0
H1595 H 0.11471 0.11745 0.38858 0.0
C1596 C 0.16046 0.83877 0.64694 0.0
C1597 C 0.17328 0.82909 0.65675 0.0
C1598 C 0.15045 0.86465 0.64671 0.0
C1599 C 0.11681 0.9113 0.66347 0.0
H1600 H 0.12916 0.95742 0.63739 0.0
C1601 C 0.06459 0.99416 0.63183 0.0
C1602 C 0.04235 0.97821 0.6292 0.0
C1603 C 0.0829 0.98595 0.64013 0.0
C1604 C 0.12583 0.94544 0.64496 0.0
H1605 H 0.18603 0.83867 0.67399 0.0
H1606 H 0.16722 0.88403 0.67374 0.0
H1607 H 0.16088 0.92223 0.64177 0.0
H1608 H 0.01994 0.94324 0.63441 0.0
H1609 H 0.05146 0.92921 0.64883 0.0
H1610 H 0.08036 0.93287 0.66599 0.0
C1611 C 0.16562 0.87165 0.66618 0.0
C1612 C 0.14398 0.92518 0.64741 0.0
C1613 C 0.17632 0.84585 0.6663 0.0
C1614 C 0.03683 0.95604 0.63616 0.0
C1615 C 0.055 0.94796 0.6445 0.0
C1616 C 0.09844 0.93145 0.66095 0.0
C1617 C 0.15257 0.88113 0.65638 0.0
C1618 C 0.13881 0.90709 0.65627 0.0
C1619 C 0.07911 0.9618 0.64599 0.0
C1620 C 0.10201 0.94767 0.65125 0.0
H1621 H 0.15796 0.82623 0.63947 0.0
H1622 H 0.14012 0.87147 0.63911 0.0
H1623 H 0.11244 0.89747 0.67034 0.0
H1624 H 0.06897 0.01186 0.62687 0.0
H1625 H 0.10108 0.99728 0.64127 0.0
C1626 C 0.30213 0.78386 0.88549 0.0
C1627 C 0.27883 0.78888 0.87916 0.0
C1628 C 0.31115 0.80231 0.89354 0.0
C1629 C 0.31221 0.87337 0.89432 0.0
H1630 H 0.36238 0.86089 0.91899 0.0
C1631 C 0.41667 0.915 0.89564 0.0
C1632 C 0.42665 0.92632 0.90573 0.0
C1633 C 0.39135 0.90366 0.89547 0.0
C1634 C 0.34796 0.86496 0.91231 0.0
H1635 H 0.24452 0.81501 0.87767 0.0
H1636 H 0.26067 0.84756 0.89156 0.0
H1637 H 0.32812 0.82754 0.91477 0.0
H1638 H 0.41813 0.93512 0.92351 0.0
H1639 H 0.37382 0.91402 0.92331 0.0
H1640 H 0.33354 0.9096 0.8912 0.0
C1641 C 0.27213 0.82955 0.89015 0.0
C1642 C 0.32847 0.84585 0.90986 0.0
C1643 C 0.26299 0.81098 0.88215 0.0
C1644 C 0.41069 0.92662 0.91561 0.0
C1645 C 0.38549 0.91459 0.91552 0.0
C1646 C 0.33182 0.89226 0.89668 0.0
C1647 C 0.29712 0.82619 0.89538 0.0
C1648 C 0.31134 0.84925 0.90045 0.0
C1649 C 0.37575 0.9029 0.90544 0.0
C1650 C 0.35067 0.88754 0.90531 0.0
H1651 H 0.3149 0.76712 0.88344 0.0
H1652 H 0.33054 0.79912 0.89738 0.0
H1653 H 0.2995 0.87656 0.88695 0.0
H1654 H 0.42859 0.91461 0.88791 0.0
H1655 H 0.38439 0.89443 0.88763 0.0
C1656 C 0.45 0.98695 0.36194 0.0
C1657 C 0.47141 0.97104 0.36572 0.0
C1658 C 0.43348 0.97821 0.35305 0.0
C1659 C 0.42382 0.92267 0.33203 0.0
H1660 H 0.35401 0.91795 0.34615 0.0
C1661 C 0.36759 0.82675 0.33708 0.0
C1662 C 0.33979 0.82555 0.33595 0.0
C1663 C 0.38098 0.85083 0.33577 0.0
C1664 C 0.37305 0.91961 0.34184 0.0
H1665 H 0.49389 0.93495 0.36217 0.0
H1666 H 0.46562 0.92008 0.34679 0.0
H1667 H 0.38493 0.95232 0.35233 0.0
H1668 H 0.3041 0.84841 0.33231 0.0
H1669 H 0.32767 0.89123 0.33053 0.0
H1670 H 0.41268 0.88817 0.32237 0.0
C1671 C 0.46141 0.9393 0.35062 0.0
C1672 C 0.39084 0.93939 0.34536 0.0
C1673 C 0.47774 0.94788 0.35952 0.0
C1674 C 0.32558 0.84888 0.33325 0.0
C1675 C 0.339 0.87326 0.33219 0.0
C1676 C 0.4061 0.90279 0.32858 0.0
C1677 C 0.43824 0.95356 0.34772 0.0
C1678 C 0.41704 0.93994 0.34105 0.0
C1679 C 0.36684 0.8744 0.33348 0.0
C1680 C 0.38125 0.90008 0.334 0.0
H1681 H 0.44501 0.00533 0.36629 0.0
H1682 H 0.41603 0.98987 0.35087 0.0
H1683 H 0.44365 0.92299 0.32837 0.0
H1684 H 0.3791 0.80906 0.33906 0.0
H1685 H 0.40237 0.85118 0.33705 0.0
C1686 C 0.41064 0.08058 0.57912 0.0
C1687 C 0.42597 0.07974 0.58918 0.0
C1688 C 0.38581 0.09338 0.57909 0.0
C1689 C 0.33179 0.11634 0.59765 0.0
H1690 H 0.33143 0.18234 0.58037 0.0
C1691 C 0.30607 0.2254 0.60983 0.0
C1692 C 0.28266 0.22082 0.61613 0.0
C1693 C 0.31452 0.20705 0.60163 0.0
C1694 C 0.33085 0.16372 0.58505 0.0
H1695 H 0.42715 0.09018 0.60715 0.0
H1696 H 0.38355 0.11167 0.6072 0.0
H1697 H 0.36458 0.14798 0.57601 0.0
H1698 H 0.24761 0.1957 0.61748 0.0
H1699 H 0.26261 0.16339 0.60323 0.0
H1700 H 0.29972 0.13266 0.60734 0.0
C1701 C 0.39071 0.10275 0.59933 0.0
C1702 C 0.3497 0.14403 0.58252 0.0
C1703 C 0.41568 0.09065 0.59929 0.0
C1704 C 0.26616 0.19936 0.61299 0.0
C1705 C 0.27466 0.18092 0.60481 0.0
C1706 C 0.31284 0.13585 0.60011 0.0
C1707 C 0.37578 0.10469 0.5892 0.0
C1708 C 0.35123 0.12091 0.58925 0.0
C1709 C 0.29974 0.18372 0.59958 0.0
C1710 C 0.31322 0.16042 0.5943 0.0
H1711 H 0.41836 0.07243 0.5712 0.0
H1712 H 0.37467 0.09487 0.57117 0.0
H1713 H 0.33259 0.09858 0.60291 0.0
H1714 H 0.31931 0.24167 0.61202 0.0
H1715 H 0.334 0.20981 0.59781 0.0
C1716 C 0.03557 0.05126 0.8608 0.0
C1717 C 0.04111 0.02826 0.86725 0.0
C1718 C 0.05372 0.06038 0.85265 0.0
C1719 C 0.1248 0.06272 0.85145 0.0
H1720 H 0.11059 0.11163 0.82648 0.0
C1721 C 0.16442 0.16777 0.84911 0.0
C1722 C 0.17548 0.1775 0.83892 0.0
C1723 C 0.15344 0.14231 0.84951 0.0
C1724 C 0.11514 0.09756 0.83324 0.0
H1725 H 0.06799 0.99458 0.86891 0.0
H1726 H 0.10003 0.01091 0.85483 0.0
H1727 H 0.07799 0.07698 0.83118 0.0
H1728 H 0.18417 0.16839 0.82118 0.0
H1729 H 0.16366 0.12379 0.82178 0.0
H1730 H 0.16076 0.08479 0.85415 0.0
C1731 C 0.08182 0.02207 0.85623 0.0
C1732 C 0.09646 0.07785 0.83597 0.0
C1733 C 0.06354 0.01282 0.86434 0.0
C1734 C 0.17585 0.16115 0.82916 0.0
C1735 C 0.16416 0.1358 0.82948 0.0
C1736 C 0.14326 0.08254 0.8488 0.0
C1737 C 0.07784 0.04676 0.85082 0.0
C1738 C 0.10048 0.06118 0.84549 0.0
C1739 C 0.15279 0.12629 0.83967 0.0
C1740 C 0.13791 0.10094 0.84007 0.0
H1741 H 0.01857 0.06374 0.8628 0.0
H1742 H 0.05007 0.07955 0.84868 0.0
H1743 H 0.12847 0.05037 0.85889 0.0
H1744 H 0.16401 0.17998 0.85676 0.0
H1745 H 0.14444 0.13554 0.85743 0.0
C1746 C 0.19947 0.78055 0.11063 0.0
C1747 C 0.22262 0.78557 0.11705 0.0
C1748 C 0.19138 0.79833 0.10214 0.0
C1749 C 0.17544 0.84058 0.08505 0.0
H1750 H 0.17176 0.906 0.10266 0.0
C1751 C 0.093 0.92105 0.07901 0.0
C1752 C 0.07759 0.92108 0.08906 0.0
C1753 C 0.11831 0.90923 0.07896 0.0
C1754 C 0.17313 0.88818 0.09745 0.0
H1755 H 0.25765 0.81077 0.1183 0.0
H1756 H 0.24312 0.84218 0.10361 0.0
H1757 H 0.20544 0.87288 0.1073 0.0
H1758 H 0.07674 0.91021 0.10699 0.0
H1759 H 0.12112 0.8904 0.107 0.0
H1760 H 0.14141 0.85524 0.07589 0.0
C1761 C 0.23105 0.82472 0.10529 0.0
C1762 C 0.19253 0.86922 0.10004 0.0
C1763 C 0.23926 0.80681 0.11376 0.0
C1764 C 0.08823 0.91032 0.09914 0.0
C1765 C 0.11365 0.89921 0.09916 0.0
C1766 C 0.15613 0.85973 0.08239 0.0
C1767 C 0.2062 0.82154 0.09993 0.0
C1768 C 0.19277 0.84449 0.09436 0.0
C1769 C 0.12871 0.89812 0.08904 0.0
C1770 C 0.15387 0.88289 0.08906 0.0
H1771 H 0.18611 0.76446 0.11291 0.0
H1772 H 0.17205 0.79529 0.09822 0.0
H1773 H 0.17535 0.82182 0.08046 0.0
H1774 H 0.08504 0.92913 0.07112 0.0
H1775 H 0.12954 0.90836 0.07105 0.0
C1776 C 0.56314 0.99106 0.86383 0.0
C1777 C 0.54013 0.97654 0.86678 0.0
C1778 C 0.57983 0.98222 0.85501 0.0
C1779 C 0.58725 0.92886 0.83277 0.0
H1780 H 0.65567 0.91797 0.84748 0.0
C1781 C 0.63759 0.8292 0.83625 0.0
C1782 C 0.66535 0.82655 0.83538 0.0
C1783 C 0.62563 0.85412 0.83528 0.0
C1784 C 0.63705 0.92137 0.84302 0.0
H1785 H 0.51521 0.94304 0.8619 0.0
H1786 H 0.54388 0.92789 0.84668 0.0
H1787 H 0.62649 0.95333 0.85417 0.0
H1788 H 0.70244 0.84767 0.83252 0.0
H1789 H 0.68137 0.89191 0.83135 0.0
H1790 H 0.59692 0.895 0.8224 0.0
C1791 C 0.5492 0.94614 0.85107 0.0
C1792 C 0.62026 0.94172 0.84683 0.0
C1793 C 0.53264 0.95486 0.85988 0.0
C1794 C 0.68096 0.84927 0.83324 0.0
C1795 C 0.66897 0.87446 0.83253 0.0
C1796 C 0.60395 0.90837 0.82903 0.0
C1797 C 0.57371 0.95882 0.84895 0.0
C1798 C 0.59444 0.94451 0.84226 0.0
C1799 C 0.64118 0.87705 0.83362 0.0
C1800 C 0.62824 0.90344 0.83462 0.0
H1801 H 0.56911 0.00831 0.86877 0.0
H1802 H 0.59832 0.99273 0.85344 0.0
H1803 H 0.56775 0.93094 0.82888 0.0
H1804 H 0.62505 0.812 0.83781 0.0
H1805 H 0.60422 0.85557 0.83637 0.0
C1806 C 0.9123 0.92488 0.58264 0.0
C1807 C 0.93136 0.92065 0.59129 0.0
C1808 C 0.88687 0.91351 0.58353 0.0
C1809 C 0.8396 0.88915 0.60466 0.0
H1810 H 0.81824 0.83425 0.58319 0.0
C1811 C 0.79259 0.78206 0.60947 0.0
C1812 C 0.77727 0.78792 0.61928 0.0
C1813 C 0.80155 0.8025 0.6023 0.0
C1814 C 0.82371 0.84972 0.58921 0.0
H1815 H 0.93871 0.90181 0.60769 0.0
H1816 H 0.89441 0.88261 0.60934 0.0
H1817 H 0.85549 0.86389 0.57848 0.0
H1818 H 0.75494 0.82007 0.62753 0.0
H1819 H 0.76848 0.85438 0.61458 0.0
H1820 H 0.80999 0.8741 0.61587 0.0
C1821 C 0.89909 0.8945 0.60186 0.0
C1822 C 0.84484 0.86682 0.58645 0.0
C1823 C 0.92448 0.90536 0.60088 0.0
C1824 C 0.76721 0.81409 0.62039 0.0
C1825 C 0.77534 0.83425 0.61296 0.0
C1826 C 0.81866 0.87219 0.60743 0.0
C1827 C 0.8801 0.89839 0.5932 0.0
C1828 C 0.85373 0.88571 0.59444 0.0
C1829 C 0.79457 0.82916 0.60452 0.0
C1830 C 0.81127 0.85134 0.6 0.0
H1831 H 0.91723 0.93649 0.57511 0.0
H1832 H 0.87249 0.91663 0.57674 0.0
H1833 H 0.84605 0.90374 0.61091 0.0
H1834 H 0.79944 0.76204 0.60772 0.0
H1835 H 0.81588 0.79754 0.59571 0.0
C1836 C 0.82625 0.16008 0.33135 0.0
C1837 C 0.83884 0.18202 0.33653 0.0
C1838 C 0.83954 0.13559 0.33046 0.0
C1839 C 0.90677 0.10441 0.33391 0.0
H1840 H 0.86746 0.04603 0.34752 0.0
C1841 C 0.92615 0.03267 0.37225 0.0
C1842 C 0.95313 0.02617 0.3705 0.0
C1843 C 0.91042 0.04177 0.36327 0.0
C1844 C 0.87872 0.06195 0.34354 0.0
H1845 H 0.87555 0.19586 0.34435 0.0
H1846 H 0.89829 0.15351 0.34302 0.0
H1847 H 0.84348 0.08479 0.3404 0.0
H1848 H 0.98375 0.02141 0.35753 0.0
H1849 H 0.95623 0.03797 0.34179 0.0
H1850 H 0.94215 0.0831 0.33822 0.0
C1851 C 0.87839 0.15503 0.33948 0.0
C1852 C 0.86492 0.08411 0.33935 0.0
C1853 C 0.86515 0.17929 0.34043 0.0
C1854 C 0.96327 0.02686 0.35927 0.0
C1855 C 0.94745 0.03619 0.35023 0.0
C1856 C 0.92057 0.08245 0.33823 0.0
C1857 C 0.86571 0.13277 0.33462 0.0
C1858 C 0.87899 0.10636 0.33526 0.0
C1859 C 0.92119 0.04488 0.35225 0.0
C1860 C 0.90677 0.06192 0.34387 0.0
H1861 H 0.80601 0.16168 0.32819 0.0
H1862 H 0.82924 0.1188 0.32667 0.0
H1863 H 0.91809 0.12093 0.33045 0.0
H1864 H 0.91754 0.03293 0.38074 0.0
H1865 H 0.8905 0.04866 0.36527 0.0
C1866 C 0.73768 0.19963 0.11348 0.0
C1867 C 0.7205 0.22037 0.11689 0.0
C1868 C 0.7299 0.18173 0.10495 0.0
C1869 C 0.69255 0.13639 0.09951 0.0
H1870 H 0.64079 0.14981 0.07554 0.0
C1871 C 0.58909 0.09355 0.0988 0.0
C1872 C 0.57833 0.08299 0.08871 0.0
C1873 C 0.61439 0.10492 0.09876 0.0
C1874 C 0.65571 0.14549 0.08199 0.0
H1875 H 0.68341 0.24062 0.11288 0.0
H1876 H 0.67009 0.2098 0.09807 0.0
H1877 H 0.67399 0.18387 0.08019 0.0
H1878 H 0.58543 0.07551 0.0707 0.0
H1879 H 0.6297 0.09674 0.07054 0.0
H1880 H 0.67268 0.09909 0.10202 0.0
C1881 C 0.68951 0.20716 0.10195 0.0
C1882 C 0.6746 0.165 0.08469 0.0
C1883 C 0.69718 0.22493 0.11052 0.0
C1884 C 0.5935 0.08343 0.0786 0.0
C1885 C 0.61868 0.09551 0.07849 0.0
C1886 C 0.67357 0.11705 0.09687 0.0
C1887 C 0.70494 0.1844 0.09962 0.0
C1888 C 0.69211 0.16127 0.09395 0.0
C1889 C 0.62919 0.10646 0.08858 0.0
C1890 C 0.65406 0.12213 0.08856 0.0
H1891 H 0.75621 0.19605 0.11799 0.0
H1892 H 0.74243 0.16463 0.10317 0.0
H1893 H 0.70562 0.13285 0.10672 0.0
H1894 H 0.57776 0.09335 0.1067 0.0
H1895 H 0.62192 0.1136 0.10661 0.0
C1896 C 0.63737 0.17695 0.65941 0.0
C1897 C 0.66521 0.17881 0.6602 0.0
C1898 C 0.62479 0.1523 0.66015 0.0
C1899 C 0.63477 0.08456 0.65214 0.0
H1900 H 0.56522 0.07637 0.66622 0.0
C1901 C 0.56057 0.01451 0.63183 0.0
C1902 C 0.53769 0.02903 0.62869 0.0
C1903 C 0.57719 0.02367 0.64059 0.0
C1904 C 0.58477 0.07808 0.66234 0.0
H1905 H 0.70179 0.15651 0.66266 0.0
H1906 H 0.67962 0.11284 0.66347 0.0
H1907 H 0.59481 0.11206 0.67256 0.0
H1908 H 0.51285 0.06288 0.63321 0.0
H1909 H 0.54143 0.07863 0.64835 0.0
H1910 H 0.62394 0.05235 0.64118 0.0
C1911 C 0.66764 0.13067 0.6625 0.0
C1912 C 0.6017 0.09846 0.666 0.0
C1913 C 0.68027 0.15555 0.66199 0.0
C1914 C 0.5302 0.05107 0.63538 0.0
C1915 C 0.5467 0.06014 0.64414 0.0
C1916 C 0.61777 0.0643 0.64843 0.0
C1917 C 0.63977 0.12886 0.66152 0.0
C1918 C 0.62614 0.10284 0.66044 0.0
C1919 C 0.57114 0.04743 0.64642 0.0
C1920 C 0.5919 0.06196 0.65299 0.0
H1921 H 0.62523 0.19457 0.65815 0.0
H1922 H 0.60333 0.15149 0.65914 0.0
H1923 H 0.6535 0.08751 0.6477 0.0
H1924 H 0.56652 0.997 0.62705 0.0
H1925 H 0.59561 0.01314 0.64231 0.0
C1926 C 0.7015 0.78044 0.38451 0.0
C1927 C 0.72349 0.78783 0.37778 0.0
C1928 C 0.69276 0.79683 0.39338 0.0
C1929 C 0.68954 0.86784 0.39808 0.0
H1930 H 0.64148 0.84455 0.42205 0.0
C1931 C 0.59833 0.9303 0.41183 0.0
C1932 C 0.57521 0.91543 0.40951 0.0
C1933 C 0.62317 0.91759 0.41248 0.0
C1934 C 0.65521 0.85154 0.41555 0.0
H1935 H 0.75578 0.81635 0.37614 0.0
H1936 H 0.74025 0.84522 0.3916 0.0
H1937 H 0.67696 0.81484 0.41556 0.0
H1938 H 0.55959 0.87569 0.40669 0.0
H1939 H 0.60256 0.8536 0.40802 0.0
H1940 H 0.66665 0.90382 0.39758 0.0
C1941 C 0.72948 0.82697 0.38984 0.0
C1942 C 0.67545 0.83453 0.41181 0.0
C1943 C 0.7383 0.81048 0.38096 0.0
C1944 C 0.57711 0.88767 0.40839 0.0
C1945 C 0.60168 0.87497 0.4093 0.0
C1946 C 0.66945 0.88493 0.40191 0.0
C1947 C 0.70578 0.82104 0.39573 0.0
C1948 C 0.6916 0.84178 0.40248 0.0
C1949 C 0.62501 0.8898 0.41115 0.0
C1950 C 0.65106 0.87619 0.41014 0.0
H1951 H 0.68946 0.76328 0.38231 0.0
H1952 H 0.67429 0.79165 0.39763 0.0
H1953 H 0.70154 0.87412 0.39087 0.0
H1954 H 0.59732 0.95177 0.41274 0.0
H1955 H 0.64094 0.92944 0.41382 0.0
C1956 C 0.8657 0.82827 0.15815 0.0
C1957 C 0.83792 0.82632 0.15917 0.0
C1958 C 0.87838 0.85274 0.15943 0.0
C1959 C 0.86882 0.92082 0.15281 0.0
H1960 H 0.9386 0.92708 0.16683 0.0
C1961 C 0.94439 0.98851 0.13224 0.0
C1962 C 0.96675 0.97323 0.12907 0.0
C1963 C 0.92778 0.98012 0.14115 0.0
C1964 C 0.91899 0.92594 0.16299 0.0
H1965 H 0.80152 0.84823 0.16258 0.0
H1966 H 0.82385 0.89174 0.16428 0.0
H1967 H 0.90841 0.89165 0.17292 0.0
H1968 H 0.99081 0.93891 0.13369 0.0
H1969 H 0.96222 0.92443 0.14906 0.0
H1970 H 0.88021 0.95317 0.14203 0.0
C1971 C 0.83572 0.87405 0.16276 0.0
C1972 C 0.90171 0.90573 0.16651 0.0
C1973 C 0.823 0.84929 0.16173 0.0
C1974 C 0.97385 0.95127 0.13588 0.0
C1975 C 0.95733 0.94294 0.14477 0.0
C1976 C 0.8862 0.94087 0.1492 0.0
C1977 C 0.86353 0.87594 0.16156 0.0
C1978 C 0.8772 0.902 0.16092 0.0
C1979 C 0.93329 0.95635 0.14707 0.0
C1980 C 0.91218 0.94245 0.15371 0.0
H1981 H 0.87773 0.81088 0.15626 0.0
H1982 H 0.89979 0.85368 0.15823 0.0
H1983 H 0.85003 0.91835 0.14836 0.0
H1984 H 0.93877 0.00598 0.12736 0.0
H1985 H 0.90969 0.99121 0.14288 0.0
C1986 C 0.91232 0.08002 0.91676 0.0
C1987 C 0.92754 0.07985 0.90665 0.0
C1988 C 0.88757 0.09296 0.91702 0.0
C1989 C 0.83311 0.11686 0.89914 0.0
H1990 H 0.83438 0.18308 0.91625 0.0
C1991 C 0.80906 0.22518 0.88638 0.0
C1992 C 0.78507 0.22097 0.88043 0.0
C1993 C 0.8174 0.20719 0.89474 0.0
C1994 C 0.83332 0.16437 0.91165 0.0
H1995 H 0.92861 0.09167 0.88884 0.0
H1996 H 0.88509 0.11339 0.88919 0.0
H1997 H 0.86739 0.14838 0.92037 0.0
H1998 H 0.749 0.19712 0.87996 0.0
H1999 H 0.76399 0.16525 0.89439 0.0
H2000 H 0.80066 0.13341 0.88974 0.0
C2001 C 0.89232 0.10385 0.89691 0.0
C2002 C 0.8521 0.14452 0.91403 0.0
C2003 C 0.91723 0.09162 0.89672 0.0
C2004 C 0.76801 0.20042 0.88412 0.0
C2005 C 0.77647 0.18227 0.89244 0.0
C2006 C 0.8142 0.13651 0.89684 0.0
C2007 C 0.87751 0.10506 0.9071 0.0
C2008 C 0.85304 0.12134 0.90732 0.0
C2009 C 0.802 0.18455 0.89728 0.0
C2010 C 0.81517 0.16114 0.90258 0.0
H2011 H 0.92006 0.0712 0.92454 0.0
H2012 H 0.87652 0.09391 0.92498 0.0
H2013 H 0.83352 0.09908 0.89388 0.0
H2014 H 0.82277 0.24073 0.88379 0.0
H2015 H 0.83723 0.20952 0.89827 0.0
C2016 C 0.94205 0.50965 0.63054 0.0
C2017 C 0.96417 0.52573 0.62778 0.0
C2018 C 0.92519 0.51655 0.6396 0.0
C2019 C 0.91568 0.56564 0.66328 0.0
H2020 H 0.84895 0.58032 0.64775 0.0
C2021 C 0.86889 0.66672 0.66249 0.0
C2022 C 0.84123 0.67043 0.66179 0.0
C2023 C 0.87962 0.64122 0.66318 0.0
C2024 C 0.86699 0.57579 0.65246 0.0
H2025 H 0.98753 0.55979 0.63336 0.0
H2026 H 0.95876 0.57129 0.64913 0.0
H2027 H 0.87821 0.5457 0.64048 0.0
H2028 H 0.80291 0.65048 0.66173 0.0
H2029 H 0.82192 0.60533 0.66254 0.0
H2030 H 0.90538 0.59745 0.67465 0.0
C2031 C 0.95422 0.55344 0.6443 0.0
C2032 C 0.88383 0.55586 0.6483 0.0
C2033 C 0.97083 0.5468 0.63518 0.0
C2034 C 0.82435 0.6481 0.66221 0.0
C2035 C 0.83518 0.62236 0.66271 0.0
C2036 C 0.89882 0.58554 0.66745 0.0
C2037 C 0.93042 0.53935 0.64619 0.0
C2038 C 0.90919 0.55198 0.65316 0.0
C2039 C 0.86298 0.61871 0.66306 0.0
C2040 C 0.87527 0.59207 0.66156 0.0
H2041 H 0.93678 0.49272 0.62526 0.0
H2042 H 0.90717 0.50509 0.64098 0.0
H2043 H 0.93488 0.56269 0.66733 0.0
H2044 H 0.8824 0.68357 0.66233 0.0
H2045 H 0.90112 0.63914 0.66321 0.0
C2046 C 0.57597 0.61981 0.90824 0.0
C2047 C 0.57451 0.59201 0.90932 0.0
C2048 C 0.60011 0.63298 0.90975 0.0
C2049 C 0.66887 0.62449 0.90399 0.0
H2050 H 0.6724 0.69511 0.9174 0.0
C2051 C 0.73574 0.70102 0.88354 0.0
C2052 C 0.71967 0.72229 0.87975 0.0
C2053 C 0.72731 0.68472 0.89255 0.0
C2054 C 0.67205 0.67526 0.91376 0.0
H2055 H 0.59692 0.55611 0.91306 0.0
H2056 H 0.63986 0.5793 0.91519 0.0
H2057 H 0.63742 0.66428 0.92339 0.0
H2058 H 0.68373 0.74488 0.88341 0.0
H2059 H 0.66934 0.71697 0.899 0.0
H2060 H 0.70165 0.63621 0.89351 0.0
C2061 C 0.62204 0.5908 0.91343 0.0
C2062 C 0.65208 0.65762 0.91721 0.0
C2063 C 0.5976 0.57759 0.91217 0.0
C2064 C 0.69674 0.7288 0.88606 0.0
C2065 C 0.68845 0.71268 0.89509 0.0
C2066 C 0.68873 0.64219 0.90047 0.0
C2067 C 0.62347 0.61863 0.91218 0.0
C2068 C 0.64929 0.6328 0.91178 0.0
C2069 C 0.7028 0.68957 0.898 0.0
C2070 C 0.6893 0.66842 0.90474 0.0
H2071 H 0.55845 0.63147 0.90614 0.0
H2072 H 0.60069 0.65438 0.9085 0.0
H2073 H 0.66716 0.60545 0.89967 0.0
H2074 H 0.75396 0.69591 0.87908 0.0
H2075 H 0.73905 0.66733 0.89474 0.0
C2076 C 0.67402 0.34759 0.16457 0.0
C2077 C 0.66122 0.32551 0.1596 0.0
C2078 C 0.66095 0.37223 0.16525 0.0
C2079 C 0.63598 0.42352 0.15593 0.0
H2080 H 0.55877 0.42523 0.15713 0.0
C2081 C 0.57504 0.47448 0.12276 0.0
C2082 C 0.54808 0.4811 0.12449 0.0
C2083 C 0.59074 0.46556 0.13179 0.0
C2084 C 0.58035 0.42569 0.15709 0.0
H2085 H 0.62438 0.31162 0.15191 0.0
H2086 H 0.60202 0.35423 0.15286 0.0
H2087 H 0.58253 0.38753 0.16517 0.0
H2088 H 0.51746 0.48628 0.13742 0.0
H2089 H 0.54496 0.47013 0.15325 0.0
H2090 H 0.63373 0.46128 0.14749 0.0
C2091 C 0.62191 0.3527 0.15641 0.0
C2092 C 0.59398 0.40381 0.16157 0.0
C2093 C 0.63493 0.32828 0.15568 0.0
C2094 C 0.53794 0.48074 0.13572 0.0
C2095 C 0.55374 0.47163 0.1448 0.0
C2096 C 0.62235 0.44562 0.15159 0.0
C2097 C 0.6348 0.37508 0.16107 0.0
C2098 C 0.62174 0.40157 0.16021 0.0
C2099 C 0.57997 0.46278 0.14282 0.0
C2100 C 0.5943 0.44589 0.15129 0.0
H2101 H 0.69426 0.34597 0.16773 0.0
H2102 H 0.67141 0.38911 0.16888 0.0
H2103 H 0.65741 0.42261 0.15488 0.0
H2104 H 0.58364 0.47401 0.11427 0.0
H2105 H 0.61064 0.45856 0.12982 0.0
C2106 C 0.76375 0.30648 0.38344 0.0
C2107 C 0.77988 0.28505 0.37988 0.0
C2108 C 0.77182 0.32293 0.39246 0.0
C2109 C 0.82615 0.33259 0.41409 0.0
H2110 H 0.83241 0.40184 0.39959 0.0
C2111 C 0.92309 0.38636 0.40865 0.0
C2112 C 0.925 0.41417 0.40956 0.0
C2113 C 0.89871 0.37364 0.41015 0.0
C2114 C 0.8303 0.38298 0.40402 0.0
H2115 H 0.81553 0.26237 0.38396 0.0
H2116 H 0.82928 0.29052 0.39956 0.0
H2117 H 0.79778 0.37129 0.39339 0.0
H2118 H 0.90311 0.45056 0.413 0.0
H2119 H 0.85973 0.42815 0.41509 0.0
H2120 H 0.86056 0.34348 0.42387 0.0
C2121 C 0.81039 0.29482 0.39547 0.0
C2122 C 0.81036 0.3654 0.40048 0.0
C2123 C 0.80247 0.27856 0.38643 0.0
C2124 C 0.90208 0.42906 0.41223 0.0
C2125 C 0.8774 0.4163 0.41348 0.0
C2126 C 0.8462 0.35011 0.41756 0.0
C2127 C 0.79603 0.31808 0.39815 0.0
C2128 C 0.80935 0.33931 0.4049 0.0
C2129 C 0.87554 0.38846 0.41239 0.0
C2130 C 0.84951 0.3747 0.41198 0.0
H2131 H 0.74576 0.31158 0.37881 0.0
H2132 H 0.76007 0.34043 0.39448 0.0
H2133 H 0.82545 0.31287 0.41784 0.0
H2134 H 0.94045 0.37434 0.40669 0.0
H2135 H 0.8978 0.35222 0.40902 0.0
C2136 C 0.87014 0.32575 0.83677 0.0
C2137 C 0.8423 0.32454 0.83579 0.0
C2138 C 0.88352 0.34973 0.83518 0.0
C2139 C 0.87557 0.41868 0.84081 0.0
H2140 H 0.94633 0.42134 0.82749 0.0
C2141 C 0.95247 0.48478 0.86132 0.0
C2142 C 0.97346 0.46847 0.8652 0.0
C2143 C 0.93627 0.47654 0.85225 0.0
C2144 C 0.92644 0.42124 0.8311 0.0
H2145 H 0.80655 0.34725 0.8321 0.0
H2146 H 0.83012 0.38994 0.82982 0.0
H2147 H 0.9152 0.38661 0.82154 0.0
H2148 H 0.99574 0.43229 0.86162 0.0
H2149 H 0.96799 0.41822 0.84593 0.0
H2150 H 0.88752 0.45147 0.85123 0.0
C2151 C 0.84148 0.37203 0.83158 0.0
C2152 C 0.90864 0.4014 0.82768 0.0
C2153 C 0.82805 0.34774 0.83293 0.0
C2154 C 0.97987 0.44548 0.8589 0.0
C2155 C 0.96384 0.43737 0.84982 0.0
C2156 C 0.89343 0.4384 0.8443 0.0
C2157 C 0.86934 0.37321 0.83276 0.0
C2158 C 0.88375 0.39891 0.83309 0.0
C2159 C 0.94093 0.45197 0.84683 0.0
C2160 C 0.91971 0.43866 0.84007 0.0
H2161 H 0.88167 0.30814 0.83886 0.0
H2162 H 0.90493 0.35011 0.83637 0.0
H2163 H 0.85649 0.41721 0.84512 0.0
H2164 H 0.94747 0.50305 0.86577 0.0
H2165 H 0.91905 0.48848 0.85 0.0
C2166 C 0.92979 0.61701 0.08698 0.0
C2167 C 0.93075 0.58917 0.08591 0.0
C2168 C 0.90578 0.63058 0.08575 0.0
C2169 C 0.83668 0.62331 0.09175 0.0
H2170 H 0.83384 0.69361 0.07798 0.0
C2171 C 0.76848 0.70051 0.11106 0.0
C2172 C 0.78421 0.72199 0.11489 0.0
C2173 C 0.77757 0.68389 0.10228 0.0
C2174 C 0.83403 0.67386 0.08173 0.0
H2175 H 0.90748 0.55364 0.08251 0.0
H2176 H 0.86484 0.57756 0.08083 0.0
H2177 H 0.86885 0.66245 0.07232 0.0
H2178 H 0.8203 0.74455 0.1115 0.0
H2179 H 0.8358 0.71609 0.09629 0.0
H2180 H 0.80357 0.63544 0.10196 0.0
C2181 C 0.88293 0.58876 0.0824 0.0
C2182 C 0.85402 0.65605 0.07848 0.0
C2183 C 0.90722 0.57513 0.08341 0.0
C2184 C 0.80752 0.72833 0.1088 0.0
C2185 C 0.81647 0.71188 0.1 0.0
C2186 C 0.81678 0.64119 0.09506 0.0
C2187 C 0.88206 0.61662 0.08359 0.0
C2188 C 0.85649 0.63129 0.084 0.0
C2189 C 0.80241 0.68861 0.0971 0.0
C2190 C 0.81638 0.66729 0.09064 0.0
H2191 H 0.94764 0.6284 0.0888 0.0
H2192 H 0.90563 0.652 0.08694 0.0
H2193 H 0.83813 0.60434 0.09614 0.0
H2194 H 0.74999 0.69552 0.11534 0.0
H2195 H 0.76605 0.66638 0.10007 0.0
C2196 C 0.53105 0.55285 0.35942 0.0
C2197 C 0.53645 0.5299 0.36591 0.0
C2198 C 0.54902 0.56145 0.35109 0.0
C2199 C 0.59174 0.57849 0.33437 0.0
H2200 H 0.65659 0.58327 0.35232 0.0
C2201 C 0.67241 0.66088 0.32824 0.0
C2202 C 0.67229 0.67665 0.33818 0.0
C2203 C 0.66036 0.63569 0.32829 0.0
C2204 C 0.63893 0.58161 0.34703 0.0
H2205 H 0.56264 0.49567 0.36746 0.0
H2206 H 0.5943 0.51097 0.35302 0.0
H2207 H 0.62378 0.54927 0.35689 0.0
H2208 H 0.66085 0.67829 0.35604 0.0
H2209 H 0.64067 0.63409 0.35623 0.0
H2210 H 0.60626 0.61251 0.32516 0.0
C2211 C 0.57641 0.52256 0.35453 0.0
C2212 C 0.62015 0.56202 0.34957 0.0
C2213 C 0.55835 0.51388 0.36284 0.0
C2214 C 0.6611 0.66651 0.34826 0.0
C2215 C 0.64975 0.6412 0.34839 0.0
C2216 C 0.61071 0.59799 0.33175 0.0
C2217 C 0.57279 0.5473 0.34912 0.0
C2218 C 0.59563 0.5613 0.34374 0.0
C2219 C 0.64888 0.62577 0.33838 0.0
C2220 C 0.63368 0.6006 0.33852 0.0
H2221 H 0.51442 0.56572 0.36153 0.0
H2222 H 0.54562 0.58067 0.34712 0.0
H2223 H 0.57314 0.57823 0.32966 0.0
H2224 H 0.68081 0.66846 0.32034 0.0
H2225 H 0.65968 0.62415 0.32046 0.0
C2226 C 0.7211 0.32091 0.62117 0.0
C2227 C 0.72612 0.29354 0.61973 0.0
C2228 C 0.71203 0.33637 0.61209 0.0
C2229 C 0.6694 0.32598 0.58755 0.0
H2230 H 0.66953 0.40319 0.58887 0.0
C2231 C 0.59448 0.42215 0.57992 0.0
C2232 C 0.57224 0.41048 0.58527 0.0
C2233 C 0.61858 0.40814 0.57913 0.0
C2234 C 0.66951 0.38169 0.58807 0.0
H2235 H 0.72836 0.26171 0.6072 0.0
H2236 H 0.71217 0.28883 0.59126 0.0
H2237 H 0.70779 0.37845 0.596 0.0
H2238 H 0.55749 0.37464 0.59352 0.0
H2239 H 0.59916 0.35068 0.59237 0.0
H2240 H 0.63081 0.3292 0.57993 0.0
C2241 C 0.71493 0.29815 0.59953 0.0
C2242 C 0.69137 0.36746 0.59227 0.0
C2243 C 0.72409 0.28258 0.60868 0.0
C2244 C 0.57429 0.38435 0.58945 0.0
C2245 C 0.59816 0.37039 0.58861 0.0
C2246 C 0.64777 0.3402 0.58319 0.0
C2247 C 0.70758 0.32493 0.60128 0.0
C2248 C 0.69056 0.33945 0.59291 0.0
C2249 C 0.62071 0.38214 0.58356 0.0
C2250 C 0.64672 0.36809 0.58425 0.0
H2251 H 0.72199 0.33012 0.62954 0.0
H2252 H 0.70624 0.35673 0.6139 0.0
H2253 H 0.66806 0.30445 0.58777 0.0
H2254 H 0.59341 0.44224 0.57655 0.0
H2255 H 0.63561 0.41773 0.57519 0.0
C2256 C 0.05131 0.48711 0.36162 0.0
C2257 C 0.03082 0.46989 0.36524 0.0
C2258 C 0.0694 0.47898 0.35322 0.0
C2259 C 0.11531 0.44178 0.34842 0.0
H2260 H 0.10316 0.38864 0.32491 0.0
C2261 C 0.16037 0.33902 0.34854 0.0
C2262 C 0.17145 0.32829 0.33854 0.0
C2263 C 0.14836 0.36403 0.34833 0.0
C2264 C 0.10711 0.40393 0.33123 0.0
H2265 H 0.01113 0.43226 0.36169 0.0
H2266 H 0.04228 0.41833 0.34709 0.0
H2267 H 0.06844 0.42149 0.32916 0.0
H2268 H 0.17915 0.33513 0.32053 0.0
H2269 H 0.15681 0.37885 0.32008 0.0
H2270 H 0.1529 0.42264 0.35122 0.0
C2271 C 0.04458 0.43805 0.35073 0.0
C2272 C 0.08723 0.42262 0.33371 0.0
C2273 C 0.02664 0.44608 0.35917 0.0
C2274 C 0.17087 0.3432 0.32836 0.0
C2275 C 0.15813 0.36805 0.32809 0.0
C2276 C 0.135 0.42298 0.34603 0.0
C2277 C 0.06715 0.45361 0.34823 0.0
C2278 C 0.09055 0.4407 0.34279 0.0
C2279 C 0.14667 0.37852 0.33808 0.0
C2280 C 0.13041 0.40302 0.33787 0.0
H2281 H 0.05459 0.50599 0.36589 0.0
H2282 H 0.08635 0.4916 0.35131 0.0
H2283 H 0.11851 0.45529 0.35552 0.0
H2284 H 0.16065 0.32788 0.35648 0.0
H2285 H 0.13929 0.37155 0.35611 0.0
C2286 C 0.41926 0.40881 0.09824 0.0
C2287 C 0.42815 0.42174 0.08832 0.0
C2288 C 0.39433 0.39664 0.09846 0.0
C2289 C 0.35137 0.3578 0.0821 0.0
H2290 H 0.30193 0.36999 0.10707 0.0
C2291 C 0.26685 0.30396 0.11251 0.0
C2292 C 0.28335 0.28283 0.11609 0.0
C2293 C 0.27574 0.32204 0.10425 0.0
C2294 C 0.31492 0.36662 0.0998 0.0
H2295 H 0.41815 0.43239 0.07086 0.0
H2296 H 0.37457 0.4098 0.07111 0.0
H2297 H 0.33546 0.40346 0.1026 0.0
H2298 H 0.32048 0.2621 0.11258 0.0
H2299 H 0.33562 0.29314 0.09816 0.0
H2300 H 0.3325 0.31975 0.08004 0.0
C2301 C 0.38677 0.40979 0.07876 0.0
C2302 C 0.3342 0.38576 0.09731 0.0
C2303 C 0.41154 0.42266 0.07864 0.0
C2304 C 0.30718 0.27808 0.11009 0.0
C2305 C 0.31592 0.29597 0.10176 0.0
C2306 C 0.33226 0.33842 0.0847 0.0
C2307 C 0.3781 0.39666 0.08868 0.0
C2308 C 0.35334 0.38088 0.08883 0.0
C2309 C 0.30111 0.31906 0.09932 0.0
C2310 C 0.31478 0.34209 0.09398 0.0
H2311 H 0.43171 0.4079 0.10581 0.0
H2312 H 0.38811 0.38631 0.10616 0.0
H2313 H 0.3661 0.35363 0.07556 0.0
H2314 H 0.24796 0.30771 0.1167 0.0
H2315 H 0.26373 0.33945 0.10238 0.0
C2316 C 0.34288 0.66544 0.84891 0.0
C2317 C 0.33107 0.67614 0.83907 0.0
C2318 C 0.35494 0.64046 0.84855 0.0
C2319 C 0.39518 0.60058 0.83112 0.0
H2320 H 0.38427 0.5487 0.85525 0.0
C2321 C 0.45134 0.51655 0.86093 0.0
C2322 C 0.47176 0.53374 0.86463 0.0
C2323 C 0.43321 0.52485 0.85257 0.0
C2324 C 0.38731 0.56235 0.84819 0.0
H2325 H 0.32215 0.66928 0.82116 0.0
H2326 H 0.34457 0.62563 0.82042 0.0
H2327 H 0.34992 0.58163 0.85129 0.0
H2328 H 0.49141 0.57147 0.86121 0.0
H2329 H 0.46026 0.58566 0.84667 0.0
H2330 H 0.43372 0.5829 0.82877 0.0
C2331 C 0.34379 0.63643 0.82844 0.0
C2332 C 0.36765 0.58131 0.84599 0.0
C2333 C 0.33101 0.66124 0.82888 0.0
C2334 C 0.47595 0.55767 0.85863 0.0
C2335 C 0.45799 0.56585 0.85023 0.0
C2336 C 0.41505 0.58174 0.8334 0.0
C2337 C 0.35594 0.62597 0.83828 0.0
C2338 C 0.37208 0.60142 0.83789 0.0
C2339 C 0.43541 0.55036 0.8477 0.0
C2340 C 0.41191 0.56345 0.84243 0.0
H2341 H 0.3431 0.67656 0.85686 0.0
H2342 H 0.36453 0.63293 0.85621 0.0
H2343 H 0.39901 0.616 0.82484 0.0
H2344 H 0.44807 0.49758 0.86513 0.0
H2345 H 0.41626 0.51228 0.85063 0.0
C2346 C 0.22465 0.71523 0.60905 0.0
C2347 C 0.22557 0.70514 0.62029 0.0
C2348 C 0.21523 0.69935 0.60006 0.0
C2349 C 0.1688 0.67203 0.58831 0.0
H2350 H 0.16794 0.59487 0.59023 0.0
C2351 C 0.07306 0.6147 0.59064 0.0
C2352 C 0.07067 0.58863 0.58642 0.0
C2353 C 0.0971 0.62836 0.58979 0.0
C2354 C 0.16821 0.61634 0.58926 0.0
H2355 H 0.21903 0.66957 0.63058 0.0
H2356 H 0.20326 0.64241 0.61516 0.0
H2357 H 0.20642 0.61942 0.59728 0.0
H2358 H 0.09143 0.55663 0.57767 0.0
H2359 H 0.13395 0.58057 0.57634 0.0
H2360 H 0.13014 0.66901 0.58073 0.0
C2361 C 0.21002 0.66236 0.61314 0.0
C2362 C 0.19021 0.63045 0.59339 0.0
C2363 C 0.21914 0.67816 0.62209 0.0
C2364 C 0.09276 0.57667 0.58108 0.0
C2365 C 0.11704 0.59036 0.58029 0.0
C2366 C 0.14698 0.65792 0.58406 0.0
C2367 C 0.20674 0.67306 0.60212 0.0
C2368 C 0.18975 0.65848 0.5938 0.0
C2369 C 0.11947 0.61633 0.5847 0.0
C2370 C 0.14561 0.63009 0.58532 0.0
H2371 H 0.23003 0.73571 0.60728 0.0
H2372 H 0.21326 0.70808 0.59162 0.0
H2373 H 0.16779 0.69359 0.58838 0.0
H2374 H 0.05637 0.62463 0.5947 0.0
H2375 H 0.09836 0.64807 0.59353 0.0
C2376 C 0.17513 0.6579 0.16475 0.0
C2377 C 0.16326 0.68 0.15937 0.0
C2378 C 0.16122 0.63377 0.16568 0.0
C2379 C 0.13452 0.5826 0.15707 0.0
H2380 H 0.05729 0.58422 0.15784 0.0
C2381 C 0.07266 0.53109 0.1244 0.0
C2382 C 0.04532 0.52612 0.12599 0.0
C2383 C 0.0884 0.54009 0.13339 0.0
C2384 C 0.07882 0.58283 0.15793 0.0
H2385 H 0.12721 0.69445 0.15117 0.0
H2386 H 0.10344 0.65274 0.15257 0.0
H2387 H 0.08234 0.62155 0.1654 0.0
H2388 H 0.01387 0.52392 0.1387 0.0
H2389 H 0.04149 0.54007 0.15449 0.0
H2390 H 0.13097 0.54421 0.14926 0.0
C2391 C 0.12323 0.65388 0.15624 0.0
C2392 C 0.09321 0.6045 0.16213 0.0
C2393 C 0.13708 0.67776 0.15526 0.0
C2394 C 0.0347 0.52816 0.13711 0.0
C2395 C 0.05056 0.53728 0.14616 0.0
C2396 C 0.12012 0.5607 0.15302 0.0
C2397 C 0.13514 0.63149 0.16136 0.0
C2398 C 0.12107 0.60549 0.16089 0.0
C2399 C 0.0773 0.54456 0.14427 0.0
C2400 C 0.09209 0.56157 0.15254 0.0
H2401 H 0.19525 0.65912 0.16807 0.0
H2402 H 0.17094 0.61685 0.16965 0.0
H2403 H 0.156 0.58253 0.15613 0.0
H2404 H 0.08164 0.53022 0.11598 0.0
H2405 H 0.10872 0.54584 0.13147 0.0
C2406 C 0.07932 0.38597 0.90927 0.0
C2407 C 0.07663 0.41373 0.91006 0.0
C2408 C 0.10425 0.37405 0.91028 0.0
C2409 C 0.1715 0.38579 0.90249 0.0
H2410 H 0.18108 0.31615 0.91631 0.0
C2411 C 0.24079 0.31229 0.88121 0.0
C2412 C 0.22609 0.28949 0.87814 0.0
C2413 C 0.23213 0.32873 0.89014 0.0
C2414 C 0.17901 0.33575 0.91252 0.0
H2415 H 0.09768 0.45088 0.91285 0.0
H2416 H 0.14195 0.4299 0.9141 0.0
H2417 H 0.14522 0.3452 0.92297 0.0
H2418 H 0.19245 0.26463 0.88291 0.0
H2419 H 0.17762 0.29286 0.89834 0.0
H2420 H 0.2034 0.37547 0.89126 0.0
C2421 C 0.12452 0.41745 0.91295 0.0
C2422 C 0.15855 0.35238 0.91635 0.0
C2423 C 0.09931 0.4294 0.91219 0.0
C2424 C 0.20441 0.28191 0.88502 0.0
C2425 C 0.19587 0.29821 0.89395 0.0
C2426 C 0.19183 0.36908 0.89858 0.0
C2427 C 0.12717 0.38966 0.91191 0.0
C2428 C 0.15359 0.37678 0.91086 0.0
C2429 C 0.20874 0.32256 0.8962 0.0
C2430 C 0.1946 0.34315 0.90304 0.0
H2431 H 0.06213 0.37339 0.90773 0.0
H2432 H 0.10573 0.35265 0.90922 0.0
H2433 H 0.16809 0.4045 0.89809 0.0
H2434 H 0.25805 0.31831 0.87628 0.0
H2435 H 0.24277 0.3471 0.89181 0.0
C2436 C 0.4751 0.45112 0.63482 0.0
C2437 C 0.47071 0.47426 0.6283 0.0
C2438 C 0.45744 0.44404 0.64352 0.0
C2439 C 0.4152 0.42999 0.66086 0.0
H2440 H 0.34944 0.42842 0.64343 0.0
C2441 C 0.3332 0.34903 0.6665 0.0
C2442 C 0.33342 0.33383 0.65639 0.0
C2443 C 0.3452 0.37424 0.66672 0.0
C2444 C 0.36734 0.42925 0.64861 0.0
H2445 H 0.44697 0.51032 0.6271 0.0
H2446 H 0.41571 0.49757 0.64215 0.0
H2447 H 0.38339 0.46119 0.63878 0.0
H2448 H 0.34487 0.33323 0.63853 0.0
H2449 H 0.36495 0.37747 0.63881 0.0
H2450 H 0.39978 0.39623 0.66996 0.0
C2451 C 0.43258 0.48472 0.64038 0.0
C2452 C 0.3868 0.44813 0.64601 0.0
C2453 C 0.45038 0.49191 0.63171 0.0
C2454 C 0.34455 0.34459 0.64642 0.0
C2455 C 0.35582 0.36992 0.64656 0.0
C2456 C 0.39557 0.41121 0.66353 0.0
C2457 C 0.43496 0.45988 0.64584 0.0
C2458 C 0.41166 0.44749 0.65157 0.0
C2459 C 0.35671 0.38475 0.65675 0.0
C2460 C 0.37228 0.40967 0.65691 0.0
H2461 H 0.49049 0.437 0.63247 0.0
H2462 H 0.45987 0.4247 0.64751 0.0
H2463 H 0.43405 0.42925 0.66537 0.0
H2464 H 0.32484 0.34096 0.67431 0.0
H2465 H 0.34593 0.38529 0.67468 0.0
C2466 C 0.30535 0.72551 0.38593 0.0
C2467 C 0.28154 0.72131 0.37985 0.0
C2468 C 0.31342 0.70753 0.39434 0.0
C2469 C 0.32898 0.66483 0.41131 0.0
H2470 H 0.32932 0.59937 0.39366 0.0
C2471 C 0.40915 0.58184 0.41636 0.0
C2472 C 0.424 0.58158 0.40616 0.0
C2473 C 0.38416 0.59429 0.41671 0.0
C2474 C 0.32888 0.6172 0.39889 0.0
H2475 H 0.24549 0.69747 0.37918 0.0
H2476 H 0.25998 0.66564 0.39371 0.0
H2477 H 0.29644 0.63361 0.38944 0.0
H2478 H 0.42416 0.59265 0.38825 0.0
H2479 H 0.38026 0.61352 0.38874 0.0
H2480 H 0.36309 0.64903 0.42005 0.0
C2481 C 0.27255 0.68263 0.39182 0.0
C2482 C 0.30995 0.6368 0.39655 0.0
C2483 C 0.26437 0.70077 0.38344 0.0
C2484 C 0.41307 0.59268 0.39621 0.0
C2485 C 0.38793 0.60441 0.39648 0.0
C2486 C 0.3478 0.64504 0.41373 0.0
C2487 C 0.29792 0.68491 0.39681 0.0
C2488 C 0.31091 0.66152 0.40222 0.0
C2489 C 0.37349 0.6058 0.40676 0.0
C2490 C 0.34884 0.62183 0.40705 0.0
H2491 H 0.31915 0.74104 0.38342 0.0
H2492 H 0.33314 0.70986 0.39798 0.0
H2493 H 0.33001 0.68358 0.41589 0.0
H2494 H 0.41737 0.57352 0.42416 0.0
H2495 H 0.37341 0.59538 0.42473 0.0
C2496 C 0.09388 0.04129 0.09571 0.0
C2497 C 0.06906 0.05189 0.09244 0.0
C2498 C 0.11185 0.05647 0.10218 0.0
C2499 C 0.12655 0.12644 0.11078 0.0
H2500 H 0.16561 0.09344 0.13568 0.0
C2501 C 0.17594 0.18823 0.14632 0.0
C2502 C 0.20177 0.18114 0.14988 0.0
C2503 C 0.16148 0.17179 0.13895 0.0
C2504 C 0.15509 0.10287 0.12867 0.0
H2505 H 0.0436 0.08674 0.09363 0.0
H2506 H 0.07458 0.11298 0.1049 0.0
H2507 H 0.13728 0.06607 0.12337 0.0
H2508 H 0.23246 0.1509 0.14857 0.0
H2509 H 0.20703 0.12196 0.13566 0.0
H2510 H 0.14388 0.16329 0.11622 0.0
C2511 C 0.08056 0.09317 0.10226 0.0
C2512 C 0.13887 0.08719 0.12159 0.0
C2513 C 0.0627 0.07806 0.09577 0.0
C2514 C 0.21269 0.15699 0.14594 0.0
C2515 C 0.19806 0.14035 0.13862 0.0
C2516 C 0.1426 0.14208 0.11788 0.0
C2517 C 0.10538 0.08262 0.10556 0.0
C2518 C 0.12408 0.09885 0.11265 0.0
C2519 C 0.17237 0.1477 0.13497 0.0
C2520 C 0.15677 0.13058 0.127 0.0
H2521 H 0.09953 0.02131 0.0932 0.0
H2522 H 0.1309 0.0478 0.10445 0.0
H2523 H 0.116 0.13604 0.10383 0.0
H2524 H 0.16702 0.20682 0.14904 0.0
H2525 H 0.14163 0.1779 0.13641 0.0
C2526 C 0.17767 0.81549 0.34899 0.0
C2527 C 0.20313 0.82296 0.34511 0.0
C2528 C 0.16315 0.8321 0.35628 0.0
C2529 C 0.15461 0.90131 0.36548 0.0
H2530 H 0.12014 0.86922 0.39179 0.0
C2531 C 0.09382 0.96367 0.39837 0.0
C2532 C 0.07053 0.95193 0.40278 0.0
C2533 C 0.11161 0.94876 0.39168 0.0
C2534 C 0.12932 0.87851 0.38442 0.0
H2535 H 0.23313 0.85395 0.34573 0.0
H2536 H 0.20746 0.88332 0.35844 0.0
H2537 H 0.14798 0.84197 0.37938 0.0
H2538 H 0.04736 0.91551 0.40332 0.0
H2539 H 0.07787 0.88975 0.39158 0.0
H2540 H 0.13533 0.93773 0.37032 0.0
C2541 C 0.19888 0.86448 0.35582 0.0
C2542 C 0.14539 0.86287 0.37733 0.0
C2543 C 0.21362 0.84764 0.34862 0.0
C2544 C 0.06536 0.92504 0.40028 0.0
C2545 C 0.08296 0.91022 0.39354 0.0
C2546 C 0.13827 0.91697 0.37253 0.0
C2547 C 0.17358 0.85673 0.35981 0.0
C2548 C 0.15796 0.87398 0.3677 0.0
C2549 C 0.10643 0.92179 0.38918 0.0
C2550 C 0.12511 0.90569 0.38201 0.0
H2551 H 0.16914 0.79649 0.34659 0.0
H2552 H 0.14362 0.82568 0.35911 0.0
H2553 H 0.1639 0.91039 0.35808 0.0
H2554 H 0.09848 0.98428 0.40023 0.0
H2555 H 0.12959 0.95829 0.38861 0.0
C2556 C 0.33038 0.81329 0.64955 0.0
C2557 C 0.30358 0.81935 0.65193 0.0
C2558 C 0.34569 0.82995 0.64258 0.0
C2559 C 0.34042 0.88356 0.62071 0.0
H2560 H 0.41533 0.893 0.62781 0.0
C2561 C 0.41012 0.95784 0.59662 0.0
C2562 C 0.43545 0.948 0.59364 0.0
C2563 C 0.39309 0.94297 0.60368 0.0
C2564 C 0.39448 0.89042 0.62567 0.0
H2565 H 0.27198 0.84792 0.64889 0.0
H2566 H 0.29882 0.87733 0.63684 0.0
H2567 H 0.38751 0.86618 0.6404 0.0
H2568 H 0.46269 0.91479 0.59581 0.0
H2569 H 0.43308 0.88894 0.60801 0.0
H2570 H 0.34758 0.90817 0.606 0.0
C2571 C 0.30788 0.85937 0.64021 0.0
C2572 C 0.3785 0.87496 0.63287 0.0
C2573 C 0.29248 0.84255 0.64714 0.0
C2574 C 0.44324 0.92287 0.5978 0.0
C2575 C 0.42637 0.90817 0.60492 0.0
C2576 C 0.35642 0.89924 0.61354 0.0
C2577 C 0.33472 0.85329 0.63784 0.0
C2578 C 0.35132 0.87099 0.63042 0.0
C2579 C 0.40117 0.91809 0.60801 0.0
C2580 C 0.38372 0.90255 0.61586 0.0
H2581 H 0.33944 0.79532 0.65288 0.0
H2582 H 0.36606 0.82421 0.64075 0.0
H2583 H 0.31968 0.88074 0.61846 0.0
H2584 H 0.40348 0.97704 0.5935 0.0
H2585 H 0.37383 0.9512 0.60594 0.0
C2586 C 0.33202 0.19486 0.84709 0.0
C2587 C 0.30643 0.18739 0.84336 0.0
C2588 C 0.34673 0.17831 0.85435 0.0
C2589 C 0.35382 0.10896 0.86436 0.0
H2590 H 0.3913 0.14198 0.88967 0.0
C2591 C 0.41202 0.04714 0.89823 0.0
C2592 C 0.43665 0.05753 0.90187 0.0
C2593 C 0.39476 0.06243 0.89145 0.0
C2594 C 0.38121 0.13242 0.88258 0.0
H2595 H 0.2766 0.15621 0.84416 0.0
H2596 H 0.30236 0.12723 0.85688 0.0
H2597 H 0.36414 0.16929 0.877 0.0
H2598 H 0.46249 0.09213 0.901 0.0
H2599 H 0.43269 0.11856 0.88922 0.0
H2600 H 0.37126 0.07211 0.86984 0.0
C2601 C 0.31098 0.14597 0.85415 0.0
C2602 C 0.3656 0.14811 0.87532 0.0
C2603 C 0.29614 0.16266 0.84693 0.0
C2604 C 0.44351 0.08361 0.89858 0.0
C2605 C 0.42634 0.09882 0.8918 0.0
C2606 C 0.36958 0.09323 0.87161 0.0
C2607 C 0.33635 0.15376 0.85804 0.0
C2608 C 0.35194 0.13665 0.86604 0.0
C2609 C 0.40173 0.08848 0.88813 0.0
C2610 C 0.38374 0.10482 0.88074 0.0
H2611 H 0.3405 0.21384 0.84465 0.0
H2612 H 0.36634 0.18477 0.85706 0.0
H2613 H 0.34372 0.09954 0.85723 0.0
H2614 H 0.40597 0.02724 0.9007 0.0
H2615 H 0.37583 0.05391 0.88891 0.0
C2616 C 0.90961 0.95942 0.89774 0.0
C2617 C 0.93405 0.94841 0.9013 0.0
C2618 C 0.89236 0.94495 0.89064 0.0
C2619 C 0.89268 0.89029 0.86958 0.0
H2620 H 0.81682 0.88552 0.87558 0.0
C2621 C 0.82721 0.81285 0.84682 0.0
C2622 C 0.80109 0.81976 0.84362 0.0
C2623 C 0.84255 0.82995 0.85356 0.0
C2624 C 0.83789 0.88697 0.87367 0.0
H2625 H 0.95945 0.91351 0.9001 0.0
H2626 H 0.92945 0.88836 0.88783 0.0
H2627 H 0.84503 0.91285 0.88797 0.0
H2628 H 0.77068 0.85027 0.84502 0.0
H2629 H 0.79764 0.88042 0.85671 0.0
H2630 H 0.88576 0.86467 0.85528 0.0
C2631 C 0.92362 0.90821 0.8905 0.0
C2632 C 0.85406 0.90259 0.88079 0.0
C2633 C 0.9407 0.92253 0.89766 0.0
C2634 C 0.79066 0.84427 0.84738 0.0
C2635 C 0.80611 0.86152 0.85411 0.0
C2636 C 0.87656 0.87487 0.86243 0.0
C2637 C 0.89934 0.91928 0.88683 0.0
C2638 C 0.88171 0.90407 0.87893 0.0
C2639 C 0.83231 0.85458 0.85727 0.0
C2640 C 0.84901 0.87261 0.86448 0.0
H2641 H 0.90382 0.97921 0.90046 0.0
H2642 H 0.87383 0.95406 0.88793 0.0
H2643 H 0.91383 0.89146 0.86776 0.0
H2644 H 0.83572 0.7939 0.84433 0.0
H2645 H 0.86235 0.82357 0.85604 0.0
C2646 C 0.94116 0.07866 0.59718 0.0
C2647 C 0.93492 0.05263 0.59364 0.0
C2648 C 0.9231 0.09353 0.60367 0.0
C2649 C 0.86345 0.0871 0.62236 0.0
H2650 H 0.86016 0.16361 0.61785 0.0
C2651 C 0.78909 0.15724 0.64639 0.0
C2652 C 0.80065 0.18029 0.65111 0.0
C2653 C 0.80378 0.14081 0.63899 0.0
C2654 C 0.86092 0.14228 0.61924 0.0
H2655 H 0.90458 0.02195 0.59406 0.0
H2656 H 0.87272 0.0481 0.60524 0.0
H2657 H 0.88835 0.13664 0.60546 0.0
H2658 H 0.83651 0.20438 0.65156 0.0
H2659 H 0.86195 0.17593 0.63869 0.0
H2660 H 0.83571 0.09299 0.63613 0.0
C2661 C 0.89184 0.05685 0.60317 0.0
C2662 C 0.87718 0.12678 0.61217 0.0
C2663 C 0.91007 0.04186 0.59673 0.0
C2664 C 0.82711 0.18662 0.6482 0.0
C2665 C 0.8416 0.17046 0.64072 0.0
C2666 C 0.84694 0.10264 0.62938 0.0
C2667 C 0.89813 0.08292 0.60674 0.0
C2668 C 0.87911 0.09903 0.61376 0.0
C2669 C 0.83014 0.14738 0.63601 0.0
C2670 C 0.84589 0.13046 0.62803 0.0
H2671 H 0.96032 0.08739 0.59519 0.0
H2672 H 0.92902 0.11322 0.60648 0.0
H2673 H 0.86457 0.06586 0.62393 0.0
H2674 H 0.7688 0.15181 0.64851 0.0
H2675 H 0.79439 0.1232 0.63546 0.0
C2676 C 0.59674 0.04033 0.39786 0.0
C2677 C 0.57263 0.05146 0.40174 0.0
C2678 C 0.61452 0.05546 0.39124 0.0
C2679 C 0.63037 0.1258 0.38359 0.0
H2680 H 0.66667 0.09456 0.35754 0.0
C2681 C 0.67733 0.19027 0.34839 0.0
C2682 C 0.70296 0.18352 0.34447 0.0
C2683 C 0.66323 0.17313 0.3556 0.0
C2684 C 0.6569 0.10348 0.36486 0.0
H2685 H 0.54805 0.08704 0.40134 0.0
H2686 H 0.57863 0.11311 0.38985 0.0
H2687 H 0.63883 0.0665 0.36981 0.0
H2688 H 0.73361 0.1531 0.3449 0.0
H2689 H 0.70877 0.1229 0.35751 0.0
H2690 H 0.64787 0.16284 0.3785 0.0
C2691 C 0.5843 0.09298 0.39215 0.0
C2692 C 0.64098 0.0874 0.37192 0.0
C2693 C 0.56667 0.07796 0.39877 0.0
C2694 C 0.71398 0.15893 0.34782 0.0
C2695 C 0.6997 0.14159 0.35498 0.0
C2696 C 0.64607 0.14183 0.37651 0.0
C2697 C 0.60854 0.08205 0.38833 0.0
C2698 C 0.62714 0.09847 0.38127 0.0
C2699 C 0.67427 0.14867 0.35905 0.0
C2700 C 0.65918 0.13098 0.36696 0.0
H2701 H 0.60202 0.02005 0.40005 0.0
H2702 H 0.6331 0.04644 0.38854 0.0
H2703 H 0.62061 0.13493 0.39087 0.0
H2704 H 0.66833 0.20915 0.34612 0.0
H2705 H 0.64357 0.17905 0.35847 0.0
C2706 C 0.67524 0.81495 0.14723 0.0
C2707 C 0.70152 0.82148 0.15032 0.0
C2708 C 0.66005 0.83216 0.14046 0.0
C2709 C 0.6651 0.88872 0.12014 0.0
H2710 H 0.58946 0.89483 0.12647 0.0
C2711 C 0.5941 0.96243 0.09632 0.0
C2712 C 0.56918 0.95208 0.09303 0.0
C2713 C 0.61132 0.94758 0.10331 0.0
C2714 C 0.61051 0.8932 0.12453 0.0
H2715 H 0.73237 0.85146 0.1487 0.0
H2716 H 0.70569 0.88179 0.13695 0.0
H2717 H 0.6174 0.86766 0.13886 0.0
H2718 H 0.54295 0.91791 0.09456 0.0
H2719 H 0.5729 0.89208 0.1066 0.0
H2720 H 0.658 0.91452 0.1058 0.0
C2721 C 0.69697 0.86309 0.13966 0.0
C2722 C 0.62657 0.87757 0.13163 0.0
C2723 C 0.71227 0.84573 0.14642 0.0
C2724 C 0.56205 0.92643 0.0968 0.0
C2725 C 0.57912 0.91172 0.10383 0.0
C2726 C 0.649 0.90455 0.11305 0.0
C2727 C 0.6706 0.85653 0.13662 0.0
C2728 C 0.65401 0.87473 0.12944 0.0
C2729 C 0.60386 0.92217 0.10725 0.0
C2730 C 0.62144 0.90662 0.11507 0.0
H2731 H 0.66647 0.7962 0.14982 0.0
H2732 H 0.6401 0.82606 0.13808 0.0
H2733 H 0.68609 0.88684 0.11812 0.0
H2734 H 0.60028 0.98203 0.0935 0.0
H2735 H 0.6302 0.95623 0.10582 0.0
C2736 C 0.56719 0.57155 0.59735 0.0
C2737 C 0.57414 0.54648 0.59288 0.0
C2738 C 0.58453 0.58519 0.60464 0.0
C2739 C 0.65432 0.59289 0.61292 0.0
H2740 H 0.62452 0.62246 0.64078 0.0
C2741 C 0.71896 0.64978 0.64639 0.0
C2742 C 0.70702 0.67176 0.65182 0.0
C2743 C 0.70384 0.63283 0.63939 0.0
C2744 C 0.63317 0.61468 0.63298 0.0
H2745 H 0.60499 0.51629 0.5924 0.0
H2746 H 0.63569 0.54048 0.60507 0.0
H2747 H 0.59638 0.59634 0.62807 0.0
H2748 H 0.67013 0.69377 0.65375 0.0
H2749 H 0.64404 0.66488 0.64145 0.0
H2750 H 0.69094 0.61195 0.61763 0.0
C2751 C 0.61667 0.54941 0.60293 0.0
C2752 C 0.61702 0.59957 0.62572 0.0
C2753 C 0.59908 0.53553 0.59575 0.0
C2754 C 0.6798 0.67667 0.64993 0.0
C2755 C 0.6648 0.65998 0.64287 0.0
C2756 C 0.67048 0.60833 0.62013 0.0
C2757 C 0.6094 0.57426 0.60755 0.0
C2758 C 0.62729 0.58879 0.61555 0.0
C2759 C 0.67648 0.63765 0.63757 0.0
C2760 C 0.66 0.61976 0.63019 0.0
H2761 H 0.54802 0.5804 0.59545 0.0
H2762 H 0.57847 0.60439 0.60799 0.0
H2763 H 0.66273 0.58491 0.6051 0.0
H2764 H 0.73987 0.64543 0.64773 0.0
H2765 H 0.71351 0.61572 0.63555 0.0
C2766 C 0.68031 0.31618 0.84901 0.0
C2767 C 0.7061 0.32285 0.84528 0.0
C2768 C 0.66598 0.33334 0.85613 0.0
C2769 C 0.65923 0.403 0.86519 0.0
H2770 H 0.62194 0.37193 0.89101 0.0
C2771 C 0.59737 0.46663 0.89742 0.0
C2772 C 0.57323 0.45545 0.90122 0.0
C2773 C 0.61547 0.45144 0.89099 0.0
C2774 C 0.63196 0.38096 0.88377 0.0
H2775 H 0.73686 0.3531 0.84597 0.0
H2776 H 0.71158 0.38338 0.85841 0.0
H2777 H 0.6498 0.34386 0.87895 0.0
H2778 H 0.54889 0.41975 0.90086 0.0
H2779 H 0.57999 0.39356 0.88966 0.0
H2780 H 0.64079 0.44002 0.86984 0.0
C2781 C 0.70258 0.36473 0.8558 0.0
C2782 C 0.64802 0.36484 0.87688 0.0
C2783 C 0.7171 0.34734 0.84875 0.0
C2784 C 0.56753 0.42886 0.89834 0.0
C2785 C 0.58546 0.41377 0.89189 0.0
C2786 C 0.64294 0.41916 0.87205 0.0
C2787 C 0.67694 0.35776 0.85965 0.0
C2788 C 0.66151 0.37555 0.8674 0.0
C2789 C 0.60977 0.42474 0.88818 0.0
C2790 C 0.62873 0.40823 0.88133 0.0
H2791 H 0.67134 0.29736 0.84664 0.0
H2792 H 0.64617 0.32751 0.85884 0.0
H2793 H 0.66928 0.41181 0.8579 0.0
H2794 H 0.60243 0.48701 0.89955 0.0
H2795 H 0.63408 0.4605 0.88837 0.0
C2796 C 0.93363 0.42617 0.09618 0.0
C2797 C 0.92882 0.4532 0.09379 0.0
C2798 C 0.91604 0.41156 0.10299 0.0
C2799 C 0.86157 0.41842 0.12436 0.0
H2800 H 0.85051 0.34391 0.11693 0.0
C2801 C 0.78661 0.34847 0.14828 0.0
C2802 C 0.79716 0.32358 0.15149 0.0
C2803 C 0.80112 0.36562 0.14112 0.0
C2804 C 0.85346 0.36467 0.11915 0.0
H2805 H 0.90169 0.48608 0.09672 0.0
H2806 H 0.87054 0.46041 0.10849 0.0
H2807 H 0.87812 0.37136 0.10453 0.0
H2808 H 0.83102 0.29708 0.14953 0.0
H2809 H 0.85611 0.32678 0.13708 0.0
H2810 H 0.83651 0.41147 0.13897 0.0
C2811 C 0.88821 0.45061 0.10523 0.0
C2812 C 0.86941 0.38043 0.11206 0.0
C2813 C 0.90601 0.46533 0.09846 0.0
C2814 C 0.82245 0.31622 0.14737 0.0
C2815 C 0.83672 0.33313 0.14012 0.0
C2816 C 0.84534 0.40264 0.13141 0.0
C2817 C 0.89294 0.42345 0.10754 0.0
C2818 C 0.87417 0.40739 0.11468 0.0
C2819 C 0.82622 0.35797 0.13688 0.0
C2820 C 0.84155 0.37546 0.12899 0.0
H2821 H 0.9513 0.41634 0.09296 0.0
H2822 H 0.92083 0.39095 0.10482 0.0
H2823 H 0.8649 0.43902 0.12672 0.0
H2824 H 0.76724 0.3547 0.15136 0.0
H2825 H 0.7925 0.38462 0.13873 0.0
C2826 C 0.79255 0.65926 0.34495 0.0
C2827 C 0.80331 0.68405 0.34174 0.0
C2828 C 0.80751 0.64121 0.35148 0.0
C2829 C 0.87722 0.62621 0.3604 0.0
H2830 H 0.84346 0.58707 0.38508 0.0
C2831 C 0.938 0.57609 0.3961 0.0
C2832 C 0.93074 0.55022 0.39954 0.0
C2833 C 0.92176 0.59076 0.38872 0.0
C2834 C 0.85311 0.59762 0.37813 0.0
H2835 H 0.83819 0.70937 0.34312 0.0
H2836 H 0.86405 0.67824 0.35449 0.0
H2837 H 0.81649 0.61562 0.37269 0.0
H2838 H 0.90039 0.51972 0.39802 0.0
H2839 H 0.87181 0.54552 0.38509 0.0
H2840 H 0.91388 0.6087 0.36599 0.0
C2841 C 0.84429 0.67236 0.35175 0.0
C2842 C 0.83765 0.61396 0.37101 0.0
C2843 C 0.82941 0.69029 0.34521 0.0
C2844 C 0.90661 0.53951 0.39548 0.0
C2845 C 0.89018 0.55435 0.38815 0.0
C2846 C 0.89264 0.61005 0.36755 0.0
C2847 C 0.83359 0.64756 0.35499 0.0
C2848 C 0.84958 0.62877 0.36214 0.0
C2849 C 0.89772 0.58006 0.3846 0.0
C2850 C 0.88085 0.59585 0.3766 0.0
H2851 H 0.77262 0.65369 0.34233 0.0
H2852 H 0.79872 0.62218 0.35369 0.0
H2853 H 0.88704 0.63678 0.35351 0.0
H2854 H 0.95657 0.58486 0.39891 0.0
H2855 H 0.92801 0.61062 0.38626 0.0
C2856 C 0.32904 0.31225 0.34669 0.0
C2857 C 0.3032 0.31948 0.34319 0.0
C2858 C 0.34385 0.32887 0.35387 0.0
C2859 C 0.35068 0.3981 0.36392 0.0
H2860 H 0.38877 0.36523 0.38912 0.0
C2861 C 0.40916 0.4602 0.39757 0.0
C2862 C 0.43377 0.44979 0.40123 0.0
C2863 C 0.3919 0.44486 0.39082 0.0
C2864 C 0.37853 0.37475 0.38206 0.0
H2865 H 0.27298 0.35024 0.34431 0.0
H2866 H 0.29895 0.37939 0.35688 0.0
H2867 H 0.36157 0.3378 0.37653 0.0
H2868 H 0.45967 0.41522 0.40041 0.0
H2869 H 0.42992 0.38873 0.38864 0.0
H2870 H 0.36805 0.43501 0.36933 0.0
C2871 C 0.30767 0.36079 0.35404 0.0
C2872 C 0.36288 0.35899 0.37485 0.0
C2873 C 0.29273 0.34401 0.34691 0.0
C2874 C 0.44067 0.42371 0.39797 0.0
C2875 C 0.42353 0.40847 0.3912 0.0
C2876 C 0.36651 0.41389 0.37111 0.0
C2877 C 0.3333 0.35325 0.3577 0.0
C2878 C 0.34899 0.3704 0.36562 0.0
C2879 C 0.39889 0.41878 0.38753 0.0
C2880 C 0.38088 0.40236 0.3802 0.0
H2881 H 0.33765 0.29341 0.34412 0.0
H2882 H 0.36364 0.32262 0.35642 0.0
H2883 H 0.34037 0.40746 0.35684 0.0
H2884 H 0.40313 0.48011 0.40001 0.0
H2885 H 0.37296 0.45336 0.38828 0.0
C2886 C 0.43668 0.57986 0.09598 0.0
C2887 C 0.43077 0.55333 0.09305 0.0
C2888 C 0.42009 0.59415 0.10337 0.0
C2889 C 0.35196 0.59826 0.11468 0.0
H2890 H 0.38526 0.639 0.13897 0.0
C2891 C 0.29026 0.65772 0.14835 0.0
C2892 C 0.30064 0.68246 0.15181 0.0
C2893 C 0.30546 0.6404 0.14153 0.0
C2894 C 0.37558 0.62804 0.13216 0.0
H2895 H 0.40245 0.52122 0.09543 0.0
H2896 H 0.37318 0.5464 0.10832 0.0
H2897 H 0.41273 0.61213 0.12626 0.0
H2898 H 0.33478 0.70875 0.15044 0.0
H2899 H 0.3609 0.67909 0.13851 0.0
H2900 H 0.31484 0.61474 0.12038 0.0
C2901 C 0.39078 0.55602 0.10489 0.0
C2902 C 0.39138 0.61254 0.1249 0.0
C2903 C 0.40761 0.54156 0.09758 0.0
C2904 C 0.32639 0.6896 0.14819 0.0
C2905 C 0.34143 0.67248 0.14132 0.0
C2906 C 0.33612 0.61403 0.12189 0.0
C2907 C 0.397 0.5824 0.10795 0.0
C2908 C 0.37982 0.59771 0.11599 0.0
C2909 C 0.33131 0.64755 0.13794 0.0
C2910 C 0.34777 0.62942 0.13065 0.0
H2911 H 0.45449 0.58944 0.09276 0.0
H2912 H 0.4253 0.61452 0.10548 0.0
H2913 H 0.3425 0.58715 0.10785 0.0
H2914 H 0.27055 0.65159 0.15104 0.0
H2915 H 0.29706 0.62128 0.1392 0.0
C2916 C 0.21066 0.65842 0.8481 0.0
C2917 C 0.19959 0.68275 0.84443 0.0
C2918 C 0.19605 0.6411 0.85513 0.0
C2919 C 0.14072 0.64121 0.87585 0.0
H2920 H 0.13658 0.56528 0.86995 0.0
C2921 C 0.06301 0.57555 0.89834 0.0
C2922 C 0.06995 0.5495 0.90161 0.0
C2923 C 0.0802 0.5909 0.89164 0.0
C2924 C 0.13784 0.58637 0.87183 0.0
H2925 H 0.16445 0.70787 0.84536 0.0
H2926 H 0.13908 0.67776 0.8575 0.0
H2927 H 0.16412 0.59356 0.85766 0.0
H2928 H 0.10062 0.51921 0.9004 0.0
H2929 H 0.13096 0.54619 0.88879 0.0
H2930 H 0.11471 0.63426 0.89002 0.0
C2931 C 0.15907 0.67207 0.85497 0.0
C2932 C 0.15359 0.60258 0.86477 0.0
C2933 C 0.17352 0.68922 0.84789 0.0
C2934 C 0.0946 0.53914 0.89797 0.0
C2935 C 0.11195 0.5546 0.89129 0.0
C2936 C 0.12518 0.62506 0.88294 0.0
C2937 C 0.17019 0.64791 0.85875 0.0
C2938 C 0.15484 0.63025 0.86659 0.0
C2939 C 0.10498 0.58074 0.88806 0.0
C2940 C 0.12313 0.59748 0.88093 0.0
H2941 H 0.2306 0.65277 0.84552 0.0
H2942 H 0.20521 0.62267 0.85793 0.0
H2943 H 0.14171 0.66238 0.87764 0.0
H2944 H 0.04396 0.58399 0.90073 0.0
H2945 H 0.07379 0.61065 0.8891 0.0
C2946 C 0.21244 0.34851 0.64661 0.0
C2947 C 0.20209 0.32394 0.65035 0.0
C2948 C 0.19744 0.36516 0.63943 0.0
C2949 C 0.14236 0.36297 0.61855 0.0
H2950 H 0.13576 0.43882 0.62423 0.0
C2951 C 0.06283 0.42608 0.59573 0.0
C2952 C 0.06897 0.45235 0.59246 0.0
C2953 C 0.08044 0.41127 0.60246 0.0
C2954 C 0.1377 0.41775 0.6224 0.0
H2955 H 0.16786 0.29764 0.64936 0.0
H2956 H 0.14182 0.32659 0.63696 0.0
H2957 H 0.16409 0.4116 0.63663 0.0
H2958 H 0.0987 0.48352 0.59371 0.0
H2959 H 0.12973 0.45751 0.60538 0.0
H2960 H 0.11624 0.36891 0.60433 0.0
C2961 C 0.16153 0.333 0.63954 0.0
C2962 C 0.15391 0.40215 0.62953 0.0
C2963 C 0.17637 0.31652 0.64678 0.0
C2964 C 0.09327 0.46343 0.59613 0.0
C2965 C 0.11102 0.44851 0.60285 0.0
C2966 C 0.12636 0.37854 0.61139 0.0
C2967 C 0.17191 0.35744 0.63572 0.0
C2968 C 0.15607 0.3745 0.62779 0.0
C2969 C 0.10484 0.42219 0.6061 0.0
C2970 C 0.12342 0.40608 0.61332 0.0
H2971 H 0.2321 0.35488 0.64926 0.0
H2972 H 0.20604 0.38383 0.6366 0.0
H2973 H 0.14403 0.34182 0.61682 0.0
H2974 H 0.04408 0.41706 0.59331 0.0
H2975 H 0.07463 0.39134 0.605 0.0
C2976 C 0.27368 0.231 0.20542 0.0
C2977 C 0.27204 0.25521 0.19941 0.0
C2978 C 0.26835 0.23016 0.21717 0.0
C2979 C 0.26393 0.27276 0.24295 0.0
H2980 H 0.21966 0.21565 0.2547 0.0
C2981 C 0.22447 0.27244 0.28944 0.0
C2982 C 0.22638 0.24803 0.29528 0.0
C2983 C 0.22898 0.27362 0.27763 0.0
C2984 C 0.23222 0.23161 0.25157 0.0
H2985 H 0.26405 0.29757 0.20106 0.0
H2986 H 0.25469 0.29604 0.22145 0.0
H2987 H 0.23113 0.21664 0.23442 0.0
H2988 H 0.23388 0.20566 0.29327 0.0
H2989 H 0.24188 0.2078 0.2728 0.0
H2990 H 0.26512 0.28768 0.2601 0.0
C2991 C 0.26027 0.27775 0.21714 0.0
C2992 C 0.23886 0.23212 0.23996 0.0
C2993 C 0.2655 0.27858 0.20543 0.0
C2994 C 0.23225 0.22481 0.28904 0.0
C2995 C 0.23669 0.22598 0.27727 0.0
C2996 C 0.25732 0.27223 0.25456 0.0
C2997 C 0.26141 0.25352 0.22314 0.0
C2998 C 0.25482 0.25268 0.23552 0.0
C2999 C 0.23537 0.25042 0.27144 0.0
C3000 C 0.24145 0.25161 0.25901 0.0
H3001 H 0.2787 0.21267 0.20103 0.0
H3002 H 0.26971 0.21124 0.22159 0.0
H3003 H 0.27652 0.2887 0.23981 0.0
H3004 H 0.21995 0.29066 0.29401 0.0
H3005 H 0.2275 0.29271 0.27334 0.0
C3006 C 0.98392 0.97703 0.54071 0.0
C3007 C 0.00849 0.97761 0.54647 0.0
C3008 C 0.98268 0.98242 0.52897 0.0
C3009 C 0.02403 0.98585 0.50276 0.0
H3010 H 0.96864 0.03361 0.49202 0.0
C3011 C 0.02326 0.02771 0.45665 0.0
C3012 C 0.99851 0.02689 0.45105 0.0
C3013 C 0.02487 0.02279 0.46843 0.0
C3014 C 0.98412 0.02009 0.49487 0.0
H3015 H 0.0511 0.98347 0.54437 0.0
H3016 H 0.04889 0.99293 0.52402 0.0
H3017 H 0.97003 0.02091 0.51215 0.0
H3018 H 0.95597 0.02112 0.45344 0.0
H3019 H 0.95883 0.01245 0.47383 0.0
H3020 H 0.03809 0.98498 0.48546 0.0
C3021 C 0.0306 0.98819 0.52851 0.0
C3022 C 0.98484 0.01273 0.50639 0.0
C3023 C 0.03182 0.9829 0.54021 0.0
C3024 C 0.97538 0.02186 0.45749 0.0
C3025 C 0.97698 0.01705 0.46921 0.0
C3026 C 0.02331 0.9932 0.49123 0.0
C3027 C 0.00601 0.98834 0.52277 0.0
C3028 C 0.00478 0.9955 0.51046 0.0
C3029 C 1.00174 0.01712 0.4748 0.0
C3030 C 0.0033 0.01035 0.48715 0.0
H3031 H 0.96561 0.97299 0.54531 0.0
H3032 H 0.96347 0.98207 0.52475 0.0
H3033 H 0.03949 0.9723 0.50561 0.0
H3034 H 0.04142 0.03155 0.45192 0.0
H3035 H 0.04422 0.02329 0.47254 0.0
C3036 C 0.26839 0.78059 0.79044 0.0
C3037 C 0.27369 0.75699 0.79651 0.0
C3038 C 0.26339 0.77992 0.77871 0.0
C3039 C 0.27138 0.73859 0.75283 0.0
H3040 H 0.21365 0.78243 0.7412 0.0
C3041 C 0.23203 0.72693 0.70702 0.0
C3042 C 0.22709 0.75029 0.70073 0.0
C3043 C 0.23717 0.72813 0.71873 0.0
C3044 C 0.23001 0.77032 0.7443 0.0
H3045 H 0.27847 0.71419 0.79498 0.0
H3046 H 0.26947 0.71296 0.77442 0.0
H3047 H 0.22443 0.78341 0.76155 0.0
H3048 H 0.22293 0.79322 0.70184 0.0
H3049 H 0.23206 0.79536 0.72241 0.0
H3050 H 0.27689 0.72544 0.73559 0.0
C3051 C 0.26943 0.73204 0.77875 0.0
C3052 C 0.2362 0.77086 0.75595 0.0
C3053 C 0.27451 0.73271 0.79053 0.0
C3054 C 0.22663 0.77489 0.70647 0.0
C3055 C 0.2318 0.77609 0.71824 0.0
C3056 C 0.26517 0.73804 0.74119 0.0
C3057 C 0.26348 0.75563 0.77275 0.0
C3058 C 0.25695 0.75499 0.76035 0.0
C3059 C 0.23753 0.75272 0.72444 0.0
C3060 C 0.24435 0.75382 0.7368 0.0
H3061 H 0.26783 0.79968 0.79476 0.0
H3062 H 0.25941 0.7985 0.7743 0.0
H3063 H 0.28773 0.72646 0.75592 0.0
H3064 H 0.23229 0.70761 0.70288 0.0
H3065 H 0.24094 0.70973 0.7233 0.0
C3066 C 0.48145 0.98022 0.95549 0.0
C3067 C 0.50612 0.98096 0.9498 0.0
C3068 C 0.47996 0.9856 0.96723 0.0
C3069 C 0.51706 0.01973 0.99028 0.0
H3070 H 0.47165 0.97864 0.01049 0.0
C3071 C 0.52105 0.02937 0.03965 0.0
C3072 C 0.49665 0.02836 0.04553 0.0
C3073 C 0.52206 0.02426 0.02788 0.0
C3074 C 0.48421 0.99051 0.00494 0.0
H3075 H 0.54866 0.98704 0.95205 0.0
H3076 H 0.54605 0.99603 0.97244 0.0
H3077 H 0.47331 0.96771 0.99017 0.0
H3078 H 0.45406 0.02206 0.04361 0.0
H3079 H 0.45581 0.01355 0.02315 0.0
H3080 H 0.52798 0.04252 0.00504 0.0
C3081 C 0.5278 0.99185 0.96783 0.0
C3082 C 0.48514 0.98423 0.99329 0.0
C3083 C 0.52928 0.9865 0.95614 0.0
C3084 C 0.47324 0.02281 0.03936 0.0
C3085 C 0.47424 0.01774 0.02764 0.0
C3086 C 0.51612 0.02601 0.00192 0.0
C3087 C 0.50311 0.99183 0.97349 0.0
C3088 C 0.50166 0.99871 0.98584 0.0
C3089 C 0.49868 0.01805 0.02177 0.0
C3090 C 0.4997 0.01146 0.00939 0.0
H3091 H 0.46325 0.97607 0.95083 0.0
H3092 H 0.46061 0.98557 0.97134 0.0
H3093 H 0.52966 0.03156 0.98473 0.0
H3094 H 0.53944 0.03353 0.04417 0.0
H3095 H 0.54124 0.02446 0.02362 0.0
C3096 C 0.2675 0.72445 0.29019 0.0
C3097 C 0.27442 0.74762 0.29625 0.0
C3098 C 0.26252 0.72547 0.27845 0.0
C3099 C 0.24242 0.77184 0.25568 0.0
H3100 H 0.267 0.71557 0.2355 0.0
C3101 C 0.23494 0.77915 0.20661 0.0
C3102 C 0.22809 0.75608 0.20045 0.0
C3103 C 0.23983 0.77791 0.21834 0.0
C3104 C 0.25968 0.73124 0.24105 0.0
H3105 H 0.28211 0.79 0.29471 0.0
H3106 H 0.27358 0.79177 0.27412 0.0
H3107 H 0.27852 0.71422 0.25577 0.0
H3108 H 0.22049 0.71366 0.20183 0.0
H3109 H 0.22885 0.71151 0.22244 0.0
H3110 H 0.22357 0.78886 0.24097 0.0
C3111 C 0.27171 0.77285 0.27851 0.0
C3112 C 0.26636 0.73052 0.25266 0.0
C3113 C 0.27677 0.77181 0.29028 0.0
C3114 C 0.22576 0.73177 0.20634 0.0
C3115 C 0.23073 0.73052 0.21811 0.0
C3116 C 0.23573 0.77255 0.24408 0.0
C3117 C 0.26431 0.74971 0.27249 0.0
C3118 C 0.25781 0.75082 0.2601 0.0
C3119 C 0.238 0.75356 0.22422 0.0
C3120 C 0.24433 0.75229 0.23663 0.0
H3121 H 0.26551 0.70547 0.29453 0.0
H3122 H 0.25658 0.70735 0.27411 0.0
H3123 H 0.23512 0.78752 0.26123 0.0
H3124 H 0.23693 0.79821 0.20235 0.0
H3125 H 0.2457 0.79596 0.22276 0.0
C3126 C 0.52857 0.01824 0.53918 0.0
C3127 C 0.50549 0.02432 0.54549 0.0
C3128 C 0.52715 0.01363 0.52743 0.0
C3129 C 0.4804 0.99312 0.50488 0.0
H3130 H 0.5357 0.01917 0.48455 0.0
C3131 C 0.47299 0.9856 0.45573 0.0
C3132 C 0.49623 0.97916 0.44961 0.0
C3133 C 0.47406 0.99054 0.46747 0.0
C3134 C 0.52029 0.01147 0.49014 0.0
H3135 H 0.46285 0.03089 0.54435 0.0
H3136 H 0.46038 0.02304 0.52371 0.0
H3137 H 0.53716 0.03051 0.50482 0.0
H3138 H 0.53878 0.97227 0.45105 0.0
H3139 H 0.54063 0.98074 0.47164 0.0
H3140 H 0.46352 0.97408 0.49018 0.0
C3141 C 0.47955 0.02154 0.52794 0.0
C3142 C 0.52108 0.01803 0.50175 0.0
C3143 C 0.48098 0.02621 0.53973 0.0
C3144 C 0.52053 0.97723 0.45553 0.0
C3145 C 0.52162 0.98226 0.46729 0.0
C3146 C 0.4796 0.98657 0.49326 0.0
C3147 C 0.50262 0.01499 0.52168 0.0
C3148 C 0.50118 0.00888 0.50926 0.0
C3149 C 0.49841 0.98919 0.47337 0.0
C3150 C 0.49956 0.99564 0.48576 0.0
H3151 H 0.54779 0.0166 0.54334 0.0
H3152 H 0.54524 0.00831 0.52291 0.0
H3153 H 0.46502 0.98538 0.51047 0.0
H3154 H 0.45393 0.98725 0.45144 0.0
H3155 H 0.45588 0.9961 0.47187 0.0
C3156 C 0.27804 0.2763 0.70502 0.0
C3157 C 0.27685 0.25208 0.69901 0.0
C3158 C 0.27294 0.27699 0.7168 0.0
C3159 C 0.23912 0.23861 0.7396 0.0
H3160 H 0.28096 0.28277 0.76002 0.0
C3161 C 0.22974 0.23352 0.78904 0.0
C3162 C 0.23083 0.25789 0.79495 0.0
C3163 C 0.2349 0.23257 0.77727 0.0
C3164 C 0.26889 0.27054 0.75441 0.0
H3165 H 0.2702 0.2095 0.70071 0.0
H3166 H 0.26171 0.2107 0.72117 0.0
H3167 H 0.29148 0.28195 0.73966 0.0
H3168 H 0.23733 0.30045 0.79306 0.0
H3169 H 0.24594 0.29878 0.77263 0.0
H3170 H 0.21653 0.22721 0.75436 0.0
C3171 C 0.26603 0.22924 0.71679 0.0
C3172 C 0.27493 0.27009 0.74274 0.0
C3173 C 0.27109 0.22855 0.70506 0.0
C3174 C 0.23653 0.2813 0.78881 0.0
C3175 C 0.24166 0.28034 0.77709 0.0
C3176 C 0.23308 0.23905 0.75127 0.0
C3177 C 0.26657 0.25348 0.72278 0.0
C3178 C 0.26012 0.25412 0.73519 0.0
C3179 C 0.24126 0.25596 0.7712 0.0
C3180 C 0.24785 0.25507 0.75881 0.0
H3181 H 0.28237 0.29477 0.7006 0.0
H3182 H 0.27333 0.29603 0.72117 0.0
H3183 H 0.22704 0.2264 0.73398 0.0
H3184 H 0.22545 0.21514 0.79355 0.0
H3185 H 0.23459 0.21343 0.77299 0.0
C3186 C 0.9728 0.98086 0.03944 0.0
C3187 C 0.99611 0.97516 0.04566 0.0
C3188 C 0.97396 0.98588 0.02772 0.0
C3189 C 0.02004 0.00846 0.00528 0.0
H3190 H 0.96569 0.98151 0.9847 0.0
C3191 C 0.02883 0.01619 0.95627 0.0
C3192 C 0.00573 0.02201 0.94994 0.0
C3193 C 0.02735 0.01138 0.96801 0.0
C3194 C 0.9808 0.98949 0.99036 0.0
H3195 H 0.03887 0.96961 0.04439 0.0
H3196 H 0.04088 0.97816 0.0238 0.0
H3197 H 0.96422 0.96968 0.00494 0.0
H3198 H 0.96298 0.0279 0.951 0.0
H3199 H 0.96039 0.01964 0.97161 0.0
H3200 H 0.03664 0.02824 0.9907 0.0
C3201 C 0.02174 0.97907 0.02807 0.0
C3202 C 0.98002 0.98264 0.00195 0.0
C3203 C 0.02057 0.97398 0.03983 0.0
C3204 C 0.98112 0.02344 0.95565 0.0
C3205 C 0.97963 0.01853 0.96742 0.0
C3206 C 0.02083 0.0153 0.99369 0.0
C3207 C 0.99845 0.98533 0.02191 0.0
C3208 C 0.99966 0.99202 0.00954 0.0
C3209 C 0.00272 0.01224 0.97371 0.0
C3210 C 1.00125 0.00585 0.9861 0.0
H3211 H 0.95361 0.98193 0.04367 0.0
H3212 H 0.9557 0.99092 0.02326 0.0
H3213 H 0.03517 0.01643 0.01093 0.0
H3214 H 0.04812 0.01493 0.95215 0.0
H3215 H 0.04546 0.00628 0.97255 0.0
C3216 C 0.78011 0.72593 0.7064 0.0
C3217 C 0.77789 0.75008 0.70038 0.0
C3218 C 0.77508 0.72506 0.71817 0.0
C3219 C 0.76971 0.76765 0.74395 0.0
H3220 H 0.7252 0.71046 0.75546 0.0
C3221 C 0.7263 0.76882 0.78974 0.0
C3222 C 0.72771 0.74471 0.79582 0.0
C3223 C 0.73203 0.76949 0.77802 0.0
C3224 C 0.73785 0.72643 0.7524 0.0
H3225 H 0.76946 0.79235 0.70204 0.0
H3226 H 0.76063 0.79077 0.72247 0.0
H3227 H 0.7378 0.71111 0.73531 0.0
H3228 H 0.73564 0.70231 0.79434 0.0
H3229 H 0.74576 0.70353 0.77402 0.0
H3230 H 0.76974 0.78299 0.76104 0.0
C3231 C 0.76639 0.77254 0.71815 0.0
C3232 C 0.74514 0.72675 0.74087 0.0
C3233 C 0.77131 0.7734 0.70642 0.0
C3234 C 0.73436 0.72123 0.78991 0.0
C3235 C 0.74002 0.72189 0.77823 0.0
C3236 C 0.76243 0.76733 0.75549 0.0
C3237 C 0.7679 0.74833 0.72415 0.0
C3238 C 0.7611 0.7474 0.73651 0.0
C3239 C 0.73918 0.74604 0.77217 0.0
C3240 C 0.7464 0.74673 0.75985 0.0
H3241 H 0.78517 0.70764 0.70198 0.0
H3242 H 0.77671 0.70615 0.72259 0.0
H3243 H 0.78229 0.78367 0.74088 0.0
H3244 H 0.72119 0.78724 0.79405 0.0
H3245 H 0.73087 0.78836 0.77355 0.0
C3246 C 0.7338 0.22602 0.20656 0.0
C3247 C 0.72651 0.24894 0.20039 0.0
C3248 C 0.7388 0.22742 0.21828 0.0
C3249 C 0.75827 0.27458 0.24082 0.0
H3250 H 0.73468 0.21833 0.26122 0.0
C3251 C 0.76642 0.28235 0.2899 0.0
C3252 C 0.77373 0.25937 0.29602 0.0
C3253 C 0.76134 0.28105 0.27818 0.0
C3254 C 0.74171 0.23401 0.25561 0.0
H3255 H 0.71819 0.29124 0.20173 0.0
H3256 H 0.72675 0.29366 0.22231 0.0
H3257 H 0.72294 0.21651 0.24099 0.0
H3258 H 0.78202 0.21708 0.29461 0.0
H3259 H 0.77334 0.21483 0.27404 0.0
H3260 H 0.77703 0.29208 0.25545 0.0
C3261 C 0.7289 0.27466 0.21801 0.0
C3262 C 0.73491 0.23302 0.24403 0.0
C3263 C 0.72382 0.27325 0.20625 0.0
C3264 C 0.77638 0.23511 0.29013 0.0
C3265 C 0.77123 0.2338 0.27838 0.0
C3266 C 0.76506 0.27558 0.25241 0.0
C3267 C 0.73665 0.25178 0.22413 0.0
C3268 C 0.74314 0.25328 0.2365 0.0
C3269 C 0.76344 0.25673 0.2723 0.0
C3270 C 0.75685 0.2553 0.25993 0.0
H3271 H 0.73607 0.20697 0.20231 0.0
H3272 H 0.74503 0.2095 0.22271 0.0
H3273 H 0.7653 0.29026 0.23521 0.0
H3274 H 0.76418 0.30137 0.29418 0.0
H3275 H 0.7551 0.299 0.27378 0.0
C3276 C 0.72779 0.22912 0.7069 0.0
C3277 C 0.73029 0.25348 0.70106 0.0
C3278 C 0.73296 0.22766 0.71866 0.0
C3279 C 0.76946 0.26311 0.74149 0.0
H3280 H 0.72492 0.22186 0.762 0.0
C3281 C 0.77888 0.26928 0.79075 0.0
C3282 C 0.7763 0.24535 0.79689 0.0
C3283 C 0.77377 0.26994 0.77898 0.0
C3284 C 0.73774 0.23323 0.75636 0.0
H3285 H 0.73927 0.29556 0.70305 0.0
H3286 H 0.7479 0.29305 0.72346 0.0
H3287 H 0.71438 0.22327 0.74162 0.0
H3288 H 0.76702 0.20321 0.79545 0.0
H3289 H 0.75848 0.20434 0.77498 0.0
H3290 H 0.7928 0.2731 0.7562 0.0
C3291 C 0.74251 0.27497 0.71896 0.0
C3292 C 0.73169 0.23402 0.74469 0.0
C3293 C 0.73737 0.27641 0.70726 0.0
C3294 C 0.76903 0.22203 0.79099 0.0
C3295 C 0.76395 0.22269 0.77926 0.0
C3296 C 0.77551 0.26231 0.75314 0.0
C3297 C 0.74073 0.25054 0.72477 0.0
C3298 C 0.7474 0.24908 0.73713 0.0
C3299 C 0.76599 0.24668 0.77313 0.0
C3300 C 0.75968 0.24742 0.76072 0.0
H3301 H 0.72241 0.2111 0.70235 0.0
H3302 H 0.73155 0.20852 0.72289 0.0
H3303 H 0.78224 0.27453 0.73585 0.0
H3304 H 0.78437 0.28758 0.79505 0.0
H3305 H 0.7753 0.2888 0.77451 0.0
C3306 C 0.77584 0.77091 0.20465 0.0
C3307 C 0.77407 0.74665 0.19871 0.0
C3308 C 0.77069 0.77192 0.21641 0.0
C3309 C 0.73583 0.73495 0.23931 0.0
H3310 H 0.77873 0.77863 0.25952 0.0
C3311 C 0.7262 0.73182 0.28876 0.0
C3312 C 0.7278 0.75637 0.2945 0.0
C3313 C 0.73136 0.73033 0.277 0.0
C3314 C 0.76638 0.76655 0.25397 0.0
H3315 H 0.76625 0.70429 0.20049 0.0
H3316 H 0.75766 0.70602 0.22095 0.0
H3317 H 0.7894 0.77681 0.23919 0.0
H3318 H 0.73519 0.79872 0.29235 0.0
H3319 H 0.74382 0.79613 0.27192 0.0
H3320 H 0.71282 0.7247 0.2541 0.0
C3321 C 0.7625 0.72436 0.21652 0.0
C3322 C 0.7725 0.76552 0.24232 0.0
C3323 C 0.76761 0.72336 0.20479 0.0
C3324 C 0.73398 0.77944 0.28821 0.0
C3325 C 0.73912 0.77795 0.2765 0.0
C3326 C 0.72972 0.73597 0.25097 0.0
C3327 C 0.76369 0.74867 0.22245 0.0
C3328 C 0.75728 0.74974 0.23485 0.0
C3329 C 0.73822 0.75336 0.27078 0.0
C3330 C 0.74487 0.75185 0.25842 0.0
H3331 H 0.78071 0.78921 0.2002 0.0
H3332 H 0.77156 0.79101 0.22072 0.0
H3333 H 0.72346 0.72291 0.23375 0.0
H3334 H 0.72153 0.7137 0.29337 0.0
H3335 H 0.73066 0.71106 0.27284 0.0
C3336 C 0.47768 0.47734 0.03828 0.0
C3337 C 0.50237 0.47922 0.0439 0.0
C3338 C 0.47597 0.48174 0.02647 0.0
C3339 C 0.51698 0.48476 8e-05 0.0
H3340 H 0.46033 0.53033 0.98881 0.0
C3341 C 0.5183 0.52838 0.95441 0.0
C3342 C 0.49419 0.52724 0.94832 0.0
C3343 C 0.51889 0.5226 0.96612 0.0
C3344 C 0.47613 0.51738 0.99181 0.0
H3345 H 0.54468 0.48641 0.0415 0.0
H3346 H 0.54165 0.4942 0.02106 0.0
H3347 H 0.46151 0.51815 0.00902 0.0
H3348 H 0.45168 0.51986 0.9498 0.0
H3349 H 0.45277 0.50975 0.97014 0.0
H3350 H 0.53171 0.48414 0.9829 0.0
C3351 C 0.52364 0.48914 0.02569 0.0
C3352 C 0.47674 0.51031 0.00338 0.0
C3353 C 0.52533 0.48484 0.03745 0.0
C3354 C 0.47062 0.5209 0.95423 0.0
C3355 C 0.47119 0.51523 0.96592 0.0
C3356 C 0.51639 0.49185 0.98853 0.0
C3357 C 0.49893 0.48793 0.02007 0.0
C3358 C 0.49728 0.49407 0.00766 0.0
C3359 C 0.49536 0.5157 0.97197 0.0
C3360 C 0.49604 0.50836 0.98428 0.0
H3361 H 0.45965 0.47303 0.04303 0.0
H3362 H 0.45668 0.48039 0.02235 0.0
H3363 H 0.53285 0.47189 0.00308 0.0
H3364 H 0.53679 0.53323 0.9501 0.0
H3365 H 0.53778 0.52349 0.97059 0.0
C3366 C 0.0197 0.52835 0.53866 0.0
C3367 C 0.99523 0.52618 0.54442 0.0
C3368 C 0.02118 0.52361 0.52687 0.0
C3369 C 0.97971 0.51933 0.50069 0.0
H3370 H 0.03751 0.4754 0.48929 0.0
C3371 C 0.98019 0.47706 0.45473 0.0
C3372 C 0.00445 0.47875 0.44877 0.0
C3373 C 0.97917 0.48257 0.46645 0.0
C3374 C 0.02138 0.4879 0.49232 0.0
H3375 H 0.95302 0.51797 0.54231 0.0
H3376 H 0.95565 0.50959 0.52188 0.0
H3377 H 0.03602 0.48721 0.50952 0.0
H3378 H 0.04675 0.487 0.45048 0.0
H3379 H 0.0449 0.49671 0.47084 0.0
H3380 H 0.96502 0.51995 0.4835 0.0
C3381 C 0.97367 0.51515 0.52639 0.0
C3382 C 0.02058 0.49473 0.50391 0.0
C3383 C 0.97221 0.51981 0.53814 0.0
C3384 C 0.02772 0.48551 0.45481 0.0
C3385 C 0.0267 0.49094 0.46651 0.0
C3386 C 0.98051 0.51248 0.48911 0.0
C3387 C 0.99818 0.51674 0.52063 0.0
C3388 C 0.99969 0.51045 0.50823 0.0
C3389 C 0.0024 0.48978 0.47245 0.0
C3390 C 1.00131 0.49664 0.4848 0.0
H3391 H 0.03778 0.53325 0.54327 0.0
H3392 H 0.04031 0.52529 0.52264 0.0
H3393 H 0.96354 0.53177 0.50373 0.0
H3394 H 0.96193 0.47187 0.45031 0.0
H3395 H 0.96019 0.48117 0.47083 0.0
C3396 C 0.0187 0.47471 0.95532 0.0
C3397 C 0.99451 0.47609 0.9493 0.0
C3398 C 0.01952 0.48044 0.96703 0.0
C3399 C 0.97706 0.48608 0.9928 0.0
H3400 H 0.03459 0.53053 0.00405 0.0
C3401 C 0.97911 0.52668 0.03914 0.0
C3402 C 0.00369 0.5244 0.04482 0.0
C3403 C 0.97744 0.52206 0.02735 0.0
C3404 C 0.0185 0.51795 0.00105 0.0
H3405 H 0.9521 0.48394 0.95088 0.0
H3406 H 0.95359 0.49404 0.97122 0.0
H3407 H 0.03313 0.5184 0.98386 0.0
H3408 H 0.04586 0.51619 0.04256 0.0
H3409 H 0.04289 0.50805 0.02213 0.0
H3410 H 0.9625 0.48554 0.01003 0.0
C3411 C 0.97189 0.48836 0.96695 0.0
C3412 C 0.01772 0.51092 0.9895 0.0
C3413 C 0.97109 0.48269 0.95527 0.0
C3414 C 0.0266 0.5181 0.03845 0.0
C3415 C 0.02495 0.51358 0.0267 0.0
C3416 C 0.97785 0.49311 0.00437 0.0
C3417 C 0.99614 0.48758 0.97294 0.0
C3418 C 0.99706 0.49482 0.98525 0.0
C3419 C 1.00034 0.51524 0.02103 0.0
C3420 C 0.99866 0.509 0.00863 0.0
H3421 H 0.03708 0.46963 0.95096 0.0
H3422 H 0.03846 0.47931 0.97145 0.0
H3423 H 0.96103 0.47341 0.98982 0.0
H3424 H 0.96112 0.53153 0.04383 0.0
H3425 H 0.95823 0.52377 0.02318 0.0
C3426 C 0.52806 0.51909 0.45517 0.0
C3427 C 0.50494 0.52559 0.44898 0.0
C3428 C 0.52671 0.5136 0.46685 0.0
C3429 C 0.48517 0.52263 0.49254 0.0
H3430 H 0.52558 0.46222 0.50393 0.0
C3431 C 0.47263 0.48404 0.53856 0.0
C3432 C 0.49588 0.47716 0.54459 0.0
C3433 C 0.47358 0.48923 0.52685 0.0
C3434 C 0.51442 0.47931 0.50091 0.0
H3435 H 0.4623 0.53205 0.45025 0.0
H3436 H 0.4599 0.52234 0.47074 0.0
H3437 H 0.52729 0.47344 0.48364 0.0
H3438 H 0.5383 0.46978 0.543 0.0
H3439 H 0.54004 0.47911 0.52249 0.0
H3440 H 0.47238 0.52858 0.50981 0.0
C3441 C 0.47912 0.52165 0.46652 0.0
C3442 C 0.51538 0.48575 0.48929 0.0
C3443 C 0.48047 0.52714 0.45479 0.0
C3444 C 0.52004 0.47497 0.53859 0.0
C3445 C 0.521 0.48024 0.52683 0.0
C3446 C 0.48424 0.51622 0.50417 0.0
C3447 C 0.50219 0.51447 0.47264 0.0
C3448 C 0.50081 0.50751 0.48498 0.0
C3449 C 0.49781 0.48775 0.52086 0.0
C3450 C 0.49885 0.49449 0.50849 0.0
H3451 H 0.54728 0.51789 0.45098 0.0
H3452 H 0.54491 0.50864 0.47136 0.0
H3453 H 0.47401 0.53972 0.48951 0.0
H3454 H 0.45363 0.4857 0.54291 0.0
H3455 H 0.45526 0.49444 0.52247 0.0
loop_
_geom_bond_atom_site_label_1
_geom_bond_atom_site_label_2
_geom_bond_distance
_geom_bond_site_symmetry_2
_ccdc_geom_bond_type
C0 C1 1.351 . S
C0 N3 1.368 . S
C0 H5 0.931 . S
C1 C0 1.351 . S
C1 N2 1.373 . S
C1 H29 0.930 . S
N2 C1 1.373 . S
N2 C4 1.340 . S
N3 C0 1.368 . S
N3 C4 1.321 . S
N3 Co6 2.135 . S
C4 N2 1.340 . S
C4 N3 1.321 . S
C4 H28 0.930 . S
H5 C0 0.931 . S
Co6 N3 2.135 . S
Co6 N9 2.121 . S
Co6 O14 2.055 . S
Co6 O17 2.039 . S
Co6 N20 2.140 . S
C7 O8 1.227 . S
C7 O17 1.265 . S
O8 C7 1.227 . S
N9 Co6 2.121 . S
N9 C11 1.375 . S
N9 C12 1.313 . S
C10 C11 1.338 . S
C10 N13 1.377 . S
C10 H30 0.930 . S
C11 N9 1.375 . S
C11 C10 1.338 . S
C11 H15 0.931 . S
C12 N9 1.313 . S
C12 N13 1.344 . S
C12 H16 0.930 . S
N13 C10 1.377 . S
N13 C12 1.344 . S
O14 Co6 2.055 . S
O14 C18 1.253 . S
H15 C11 0.931 . S
H16 C12 0.930 . S
O17 Co6 2.039 . S
O17 C7 1.265 . S
C18 O14 1.253 . S
C18 O19 1.227 . S
O19 C18 1.227 . S
N20 Co6 2.140 . S
N20 C23 1.346 . S
N20 C24 1.345 . S
C21 C22 1.387 . S
C21 C25 1.391 . S
C22 C21 1.387 . S
C22 C23 1.369 . S
C22 H31 0.929 . S
C23 N20 1.346 . S
C23 C22 1.369 . S
C23 H26 0.928 . S
C24 N20 1.345 . S
C24 C25 1.371 . S
C24 H27 0.931 . S
C25 C21 1.391 . S
C25 C24 1.371 . S
C25 H32 0.930 . S
H26 C23 0.928 . S
H27 C24 0.931 . S
H28 C4 0.930 . S
H29 C1 0.930 . S
H30 C10 0.930 . S
H31 C22 0.929 . S
H32 C25 0.930 . S
C33 C34 1.351 . S
C33 N36 1.368 1_565 S
C33 H38 0.931 . S
C34 C33 1.351 . S
C34 N35 1.373 . S
C34 H62 0.930 . S
N35 C34 1.373 . S
N35 C37 1.340 . S
N36 C33 1.368 1_545 S
N36 C37 1.321 1_545 S
N36 Co39 2.135 . S
C37 N35 1.340 . S
C37 N36 1.321 1_565 S
C37 H61 0.930 1_565 S
H38 C33 0.931 . S
Co39 N36 2.135 . S
Co39 N42 2.121 . S
Co39 O47 2.055 . S
Co39 O50 2.039 . S
Co39 N53 2.140 1_455 S
C40 O41 1.227 . S
C40 O50 1.265 . S
O41 C40 1.227 . S
N42 Co39 2.121 . S
N42 C44 1.375 . S
N42 C45 1.313 . S
C43 C44 1.338 . S
C43 N46 1.377 . S
C43 H63 0.930 . S
C44 N42 1.375 . S
C44 C43 1.338 . S
C44 H48 0.931 . S
C45 N42 1.313 . S
C45 N46 1.344 . S
C45 H49 0.930 . S
N46 C43 1.377 . S
N46 C45 1.344 . S
O47 Co39 2.055 . S
O47 C51 1.253 . S
H48 C44 0.931 . S
H49 C45 0.930 . S
O50 Co39 2.039 . S
O50 C40 1.265 . S
C51 O47 1.253 . S
C51 O52 1.203 1_455 S
O52 C51 1.203 1_655 S
N53 Co39 2.140 1_655 S
N53 C56 1.346 . S
N53 C57 1.345 . S
C54 C55 1.387 . S
C54 C58 1.391 . S
C55 C54 1.387 . S
C55 C56 1.369 . S
C55 H64 0.929 . S
C56 N53 1.346 . S
C56 C55 1.369 . S
C56 H59 0.928 1_655 S
C57 N53 1.345 . S
C57 C58 1.371 . S
C57 H60 0.931 . S
C58 C54 1.391 . S
C58 C57 1.371 . S
C58 H65 0.930 . S
H59 C56 0.928 1_455 S
H60 C57 0.931 . S
H61 C37 0.930 1_545 S
H62 C34 0.930 . S
H63 C43 0.930 . S
H64 C55 0.929 . S
H65 C58 0.930 . S
C66 C67 1.351 . S
C66 N69 1.368 . S
C66 H71 0.931 . S
C67 C66 1.351 . S
C67 N68 1.373 . S
C67 H95 0.930 . S
N68 C67 1.373 . S
N68 C70 1.340 . S
N69 C66 1.368 . S
N69 C70 1.321 . S
N69 Co72 2.135 . S
C70 N68 1.340 . S
C70 N69 1.321 . S
C70 H94 0.930 . S
H71 C66 0.931 . S
Co72 N69 2.135 . S
Co72 N75 2.121 . S
Co72 O80 2.055 . S
Co72 O83 2.039 . S
Co72 N86 2.140 . S
C73 O74 1.227 . S
C73 O83 1.265 . S
O74 C73 1.227 . S
N75 Co72 2.121 . S
N75 C77 1.375 . S
N75 C78 1.313 . S
C76 C77 1.338 . S
C76 N79 1.377 . S
C76 H96 0.930 . S
C77 N75 1.375 . S
C77 C76 1.338 . S
C77 H81 0.931 . S
C78 N75 1.313 . S
C78 N79 1.344 . S
C78 H82 0.930 . S
N79 C76 1.377 . S
N79 C78 1.344 . S
O80 Co72 2.055 . S
O80 C84 1.253 . S
H81 C77 0.931 . S
H82 C78 0.930 . S
O83 Co72 2.039 . S
O83 C73 1.265 . S
C84 O80 1.253 . S
C84 O85 1.227 . S
O85 C84 1.227 . S
N86 Co72 2.140 . S
N86 C89 1.346 . S
N86 C90 1.345 . S
C87 C88 1.387 . S
C87 C91 1.391 . S
C88 C87 1.387 . S
C88 C89 1.369 . S
C88 H97 0.929 . S
C89 N86 1.346 . S
C89 C88 1.369 . S
C89 H92 0.928 . S
C90 N86 1.345 . S
C90 C91 1.371 . S
C90 H93 0.931 . S
C91 C87 1.391 . S
C91 C90 1.371 . S
C91 H98 0.930 . S
H92 C89 0.928 . S
H93 C90 0.931 . S
H94 C70 0.930 . S
H95 C67 0.930 . S
H96 C76 0.930 . S
H97 C88 0.929 . S
H98 C91 0.930 . S
C99 C100 1.351 . S
C99 N102 1.368 1_545 S
C99 H104 0.931 . S
C100 C99 1.351 . S
C100 N101 1.373 . S
C100 H128 0.930 . S
N101 C100 1.373 . S
N101 C103 1.340 . S
N102 C99 1.368 1_565 S
N102 C103 1.321 1_565 S
N102 Co105 2.135 . S
C103 N101 1.340 . S
C103 N102 1.321 1_545 S
C103 H127 0.930 1_545 S
H104 C99 0.931 . S
Co105 N102 2.135 . S
Co105 N108 2.121 . S
Co105 O113 2.055 . S
Co105 O116 2.039 . S
Co105 N119 2.140 . S
C106 O107 1.227 . S
C106 O116 1.265 . S
O107 C106 1.227 . S
N108 Co105 2.121 . S
N108 C110 1.375 . S
N108 C111 1.313 . S
C109 C110 1.338 . S
C109 N112 1.377 . S
C109 H129 0.930 . S
C110 N108 1.375 . S
C110 C109 1.338 . S
C110 H114 0.931 . S
C111 N108 1.313 . S
C111 N112 1.344 . S
C111 H115 0.930 . S
N112 C109 1.377 . S
N112 C111 1.344 . S
O113 Co105 2.055 . S
O113 C117 1.253 . S
H114 C110 0.931 . S
H115 C111 0.930 . S
O116 Co105 2.039 . S
O116 C106 1.265 . S
C117 O113 1.253 . S
C117 O118 1.227 . S
O118 C117 1.227 . S
N119 Co105 2.140 . S
N119 C122 1.346 . S
N119 C123 1.345 . S
C120 C121 1.387 . S
C120 C124 1.391 . S
C121 C120 1.387 . S
C121 C122 1.369 . S
C121 H130 0.929 . S
C122 N119 1.346 . S
C122 C121 1.369 . S
C122 H125 0.928 . S
C123 N119 1.345 . S
C123 C124 1.371 . S
C123 H126 0.931 . S
C124 C120 1.391 . S
C124 C123 1.371 . S
C124 H131 0.930 . S
H125 C122 0.928 . S
H126 C123 0.931 . S
H127 C103 0.930 1_565 S
H128 C100 0.930 . S
H129 C109 0.930 . S
H130 C121 0.929 . S
H131 C124 0.930 . S
C132 C133 1.351 . S
C132 N135 1.368 . S
C132 H137 0.931 . S
C133 C132 1.351 . S
C133 N134 1.373 . S
C133 H161 0.930 . S
N134 C133 1.373 . S
N134 C136 1.340 . S
N135 C132 1.368 . S
N135 C136 1.321 . S
N135 Co138 2.135 . S
C136 N134 1.340 . S
C136 N135 1.321 . S
C136 H160 0.930 . S
H137 C132 0.931 . S
Co138 N135 2.135 . S
Co138 N141 2.121 . S
Co138 O146 2.055 . S
Co138 O149 2.039 . S
Co138 N152 2.140 . S
C139 O140 1.227 . S
C139 O149 1.265 . S
O140 C139 1.227 . S
N141 Co138 2.121 . S
N141 C143 1.375 . S
N141 C144 1.313 . S
C142 C143 1.338 . S
C142 N145 1.377 . S
C142 H162 0.930 . S
C143 N141 1.375 . S
C143 C142 1.338 . S
C143 H147 0.931 . S
C144 N141 1.313 . S
C144 N145 1.344 . S
C144 H148 0.930 . S
N145 C142 1.377 . S
N145 C144 1.344 . S
O146 Co138 2.055 . S
O146 C150 1.253 . S
H147 C143 0.931 . S
H148 C144 0.930 . S
O149 Co138 2.039 . S
O149 C139 1.265 . S
C150 O146 1.253 . S
C150 O151 1.227 . S
O151 C150 1.227 . S
N152 Co138 2.140 . S
N152 C155 1.346 . S
N152 C156 1.345 . S
C153 C154 1.387 . S
C153 C157 1.391 . S
C154 C153 1.387 . S
C154 C155 1.369 . S
C154 H163 0.929 . S
C155 N152 1.346 . S
C155 C154 1.369 . S
C155 H158 0.928 . S
C156 N152 1.345 . S
C156 C157 1.371 . S
C156 H159 0.931 . S
C157 C153 1.391 . S
C157 C156 1.371 . S
C157 H164 0.930 . S
H158 C155 0.928 . S
H159 C156 0.931 . S
H160 C136 0.930 . S
H161 C133 0.930 . S
H162 C142 0.930 . S
H163 C154 0.929 . S
H164 C157 0.930 . S
C165 C166 1.351 . S
C165 N168 1.368 1_565 S
C165 H170 0.931 . S
C166 C165 1.351 . S
C166 N167 1.373 . S
C166 H194 0.930 . S
N167 C166 1.373 . S
N167 C169 1.340 . S
N168 C165 1.368 1_545 S
N168 C169 1.321 1_545 S
N168 Co171 2.135 . S
C169 N167 1.340 . S
C169 N168 1.321 1_565 S
C169 H193 0.930 1_565 S
H170 C165 0.931 . S
Co171 N168 2.135 . S
Co171 N174 2.121 . S
Co171 O179 2.055 . S
Co171 O182 2.039 . S
Co171 N185 2.140 . S
C172 O173 1.227 . S
C172 O182 1.265 . S
O173 C172 1.227 . S
N174 Co171 2.121 . S
N174 C176 1.375 . S
N174 C177 1.313 . S
C175 C176 1.338 . S
C175 N178 1.377 . S
C175 H195 0.930 . S
C176 N174 1.375 . S
C176 C175 1.338 . S
C176 H180 0.931 . S
C177 N174 1.313 . S
C177 N178 1.344 . S
C177 H181 0.930 . S
N178 C175 1.377 . S
N178 C177 1.344 . S
O179 Co171 2.055 . S
O179 C183 1.253 . S
H180 C176 0.931 . S
H181 C177 0.930 . S
O182 Co171 2.039 . S
O182 C172 1.265 . S
C183 O179 1.253 . S
C183 O184 1.227 . S
O184 C183 1.227 . S
N185 Co171 2.140 . S
N185 C188 1.346 . S
N185 C189 1.345 . S
C186 C187 1.387 . S
C186 C190 1.391 . S
C187 C186 1.387 . S
C187 C188 1.369 . S
C187 H196 0.929 . S
C188 N185 1.346 . S
C188 C187 1.369 . S
C188 H191 0.928 . S
C189 N185 1.345 . S
C189 C190 1.371 . S
C189 H192 0.931 . S
C190 C186 1.391 . S
C190 C189 1.371 . S
C190 H197 0.930 . S
H191 C188 0.928 . S
H192 C189 0.931 . S
H193 C169 0.930 1_545 S
H194 C166 0.930 . S
H195 C175 0.930 . S
H196 C187 0.929 . S
H197 C190 0.930 . S
C198 C199 1.351 . S
C198 N201 1.368 . S
C198 H203 0.931 . S
C199 C198 1.351 . S
C199 N200 1.373 . S
C199 H227 0.930 . S
N200 C199 1.373 . S
N200 C202 1.340 . S
N201 C198 1.368 . S
N201 C202 1.321 . S
N201 Co204 2.135 . S
C202 N200 1.340 . S
C202 N201 1.321 . S
C202 H226 0.930 . S
H203 C198 0.931 . S
Co204 N201 2.135 . S
Co204 N207 2.121 . S
Co204 O212 2.055 . S
Co204 O215 2.039 . S
Co204 N218 2.140 . S
C205 O206 1.227 . S
C205 O215 1.265 . S
O206 C205 1.227 . S
N207 Co204 2.121 . S
N207 C209 1.375 . S
N207 C210 1.313 . S
C208 C209 1.338 . S
C208 N211 1.377 . S
C208 H228 0.930 . S
C209 N207 1.375 . S
C209 C208 1.338 . S
C209 H213 0.931 . S
C210 N207 1.313 . S
C210 N211 1.344 . S
C210 H214 0.930 . S
N211 C208 1.377 . S
N211 C210 1.344 . S
O212 Co204 2.055 . S
O212 C216 1.253 . S
H213 C209 0.931 . S
H214 C210 0.930 . S
O215 Co204 2.039 . S
O215 C205 1.265 . S
C216 O212 1.253 . S
C216 O217 1.227 . S
O217 C216 1.227 . S
N218 Co204 2.140 . S
N218 C221 1.346 . S
N218 C222 1.345 . S
C219 C220 1.387 . S
C219 C223 1.391 . S
C220 C219 1.387 . S
C220 C221 1.369 . S
C220 H229 0.929 . S
C221 N218 1.346 . S
C221 C220 1.369 . S
C221 H224 0.928 . S
C222 N218 1.345 . S
C222 C223 1.371 . S
C222 H225 0.931 . S
C223 C219 1.391 . S
C223 C222 1.371 . S
C223 H230 0.930 . S
H224 C221 0.928 . S
H225 C222 0.931 . S
H226 C202 0.930 . S
H227 C199 0.930 . S
H228 C208 0.930 . S
H229 C220 0.929 . S
H230 C223 0.930 . S
C231 C232 1.351 . S
C231 N234 1.368 1_545 S
C231 H236 0.931 . S
C232 C231 1.351 . S
C232 N233 1.373 . S
C232 H260 0.930 . S
N233 C232 1.373 . S
N233 C235 1.340 . S
N234 C231 1.368 1_565 S
N234 C235 1.321 1_565 S
N234 Co237 2.135 . S
C235 N233 1.340 . S
C235 N234 1.321 1_545 S
C235 H259 0.930 1_545 S
H236 C231 0.931 . S
Co237 N234 2.135 . S
Co237 N240 2.121 . S
Co237 O245 2.055 . S
Co237 O248 2.039 . S
Co237 N251 2.140 1_455 S
C238 O239 1.227 . S
C238 O248 1.265 . S
O239 C238 1.227 . S
N240 Co237 2.121 . S
N240 C242 1.375 . S
N240 C243 1.313 . S
C241 C242 1.338 . S
C241 N244 1.377 . S
C241 H261 0.930 . S
C242 N240 1.375 . S
C242 C241 1.338 . S
C242 H246 0.931 . S
C243 N240 1.313 . S
C243 N244 1.344 . S
C243 H247 0.930 . S
N244 C241 1.377 . S
N244 C243 1.344 . S
O245 Co237 2.055 . S
O245 C249 1.253 . S
H246 C242 0.931 . S
H247 C243 0.930 . S
O248 Co237 2.039 . S
O248 C238 1.265 . S
C249 O245 1.253 . S
C249 O250 1.203 1_455 S
O250 C249 1.203 1_655 S
N251 Co237 2.140 1_655 S
N251 C254 1.346 . S
N251 C255 1.345 . S
C252 C253 1.387 . S
C252 C256 1.391 . S
C253 C252 1.387 . S
C253 C254 1.369 . S
C253 H262 0.929 . S
C254 N251 1.346 . S
C254 C253 1.369 . S
C254 H257 0.928 1_655 S
C255 N251 1.345 . S
C255 C256 1.371 . S
C255 H258 0.931 . S
C256 C252 1.391 . S
C256 C255 1.371 . S
C256 H263 0.930 . S
H257 C254 0.928 1_455 S
H258 C255 0.931 . S
H259 C235 0.930 1_565 S
H260 C232 0.930 . S
H261 C241 0.930 . S
H262 C253 0.929 . S
H263 C256 0.930 . S
C264 C265 1.351 . S
C264 N267 1.368 . S
C264 H269 0.931 . S
C265 C264 1.351 . S
C265 N266 1.373 . S
C265 H293 0.930 . S
N266 C265 1.373 . S
N266 C268 1.340 . S
N267 C264 1.368 . S
N267 C268 1.321 . S
N267 Co270 2.135 . S
C268 N266 1.340 . S
C268 N267 1.321 . S
C268 H292 0.930 . S
H269 C264 0.931 . S
Co270 N267 2.135 . S
Co270 N273 2.121 . S
Co270 O278 2.055 . S
Co270 O281 2.039 . S
Co270 N284 2.140 . S
C271 O272 1.227 . S
C271 O281 1.265 . S
O272 C271 1.227 . S
N273 Co270 2.121 . S
N273 C275 1.375 . S
N273 C276 1.313 . S
C274 C275 1.338 . S
C274 N277 1.377 . S
C274 H294 0.930 . S
C275 N273 1.375 . S
C275 C274 1.338 . S
C275 H279 0.931 . S
C276 N273 1.313 . S
C276 N277 1.344 . S
C276 H280 0.930 . S
N277 C274 1.377 . S
N277 C276 1.344 . S
O278 Co270 2.055 . S
O278 C282 1.253 . S
H279 C275 0.931 . S
H280 C276 0.930 . S
O281 Co270 2.039 . S
O281 C271 1.265 . S
C282 O278 1.253 . S
C282 O283 1.227 . S
O283 C282 1.227 . S
N284 Co270 2.140 . S
N284 C287 1.346 . S
N284 C288 1.345 . S
C285 C286 1.387 . S
C285 C289 1.391 . S
C286 C285 1.387 . S
C286 C287 1.369 . S
C286 H295 0.929 . S
C287 N284 1.346 . S
C287 C286 1.369 . S
C287 H290 0.928 . S
C288 N284 1.345 . S
C288 C289 1.371 . S
C288 H291 0.931 . S
C289 C285 1.391 . S
C289 C288 1.371 . S
C289 H296 0.930 . S
H290 C287 0.928 . S
H291 C288 0.931 . S
H292 C268 0.930 . S
H293 C265 0.930 . S
H294 C274 0.930 . S
H295 C286 0.929 . S
H296 C289 0.930 . S
C297 C298 1.351 . S
C297 N300 1.368 1_545 S
C297 H302 0.931 . S
C298 C297 1.351 . S
C298 N299 1.373 . S
C298 H326 0.930 . S
N299 C298 1.373 . S
N299 C301 1.340 . S
N300 C297 1.368 1_565 S
N300 C301 1.321 1_565 S
N300 Co303 2.135 . S
C301 N299 1.340 . S
C301 N300 1.321 1_545 S
C301 H325 0.930 1_545 S
H302 C297 0.931 . S
Co303 N300 2.135 . S
Co303 N306 2.121 . S
Co303 O311 2.055 . S
Co303 O314 2.039 . S
Co303 N317 2.140 1_655 S
C304 O305 1.227 . S
C304 O314 1.265 . S
O305 C304 1.227 . S
N306 Co303 2.121 . S
N306 C308 1.375 . S
N306 C309 1.313 . S
C307 C308 1.338 . S
C307 N310 1.377 . S
C307 H327 0.930 . S
C308 N306 1.375 . S
C308 C307 1.338 . S
C308 H312 0.931 . S
C309 N306 1.313 . S
C309 N310 1.344 . S
C309 H313 0.930 . S
N310 C307 1.377 . S
N310 C309 1.344 . S
O311 Co303 2.055 . S
O311 C315 1.253 . S
H312 C308 0.931 . S
H313 C309 0.930 . S
O314 Co303 2.039 . S
O314 C304 1.265 . S
C315 O311 1.253 . S
C315 O316 1.203 1_655 S
O316 C315 1.203 1_455 S
N317 Co303 2.140 1_455 S
N317 C320 1.346 . S
N317 C321 1.345 . S
C318 C319 1.387 . S
C318 C322 1.391 . S
C319 C318 1.387 . S
C319 C320 1.369 . S
C319 H328 0.929 . S
C320 N317 1.346 . S
C320 C319 1.369 . S
C320 H323 0.928 1_455 S
C321 N317 1.345 . S
C321 C322 1.371 . S
C321 H324 0.931 . S
C322 C318 1.391 . S
C322 C321 1.371 . S
C322 H329 0.930 . S
H323 C320 0.928 1_655 S
H324 C321 0.931 . S
H325 C301 0.930 1_565 S
H326 C298 0.930 . S
H327 C307 0.930 . S
H328 C319 0.929 . S
H329 C322 0.930 . S
C330 C331 1.351 . S
C330 N333 1.368 . S
C330 H335 0.931 . S
C331 C330 1.351 . S
C331 N332 1.373 . S
C331 H359 0.930 . S
N332 C331 1.373 . S
N332 C334 1.340 . S
N333 C330 1.368 . S
N333 C334 1.321 . S
N333 Co336 2.135 . S
C334 N332 1.340 . S
C334 N333 1.321 . S
C334 H358 0.930 . S
H335 C330 0.931 . S
Co336 N333 2.135 . S
Co336 N339 2.121 . S
Co336 O344 2.055 . S
Co336 O347 2.039 . S
Co336 N350 2.140 . S
C337 O338 1.227 . S
C337 O347 1.265 . S
O338 C337 1.227 . S
N339 Co336 2.121 . S
N339 C341 1.375 . S
N339 C342 1.313 . S
C340 C341 1.338 . S
C340 N343 1.377 . S
C340 H360 0.930 . S
C341 N339 1.375 . S
C341 C340 1.338 . S
C341 H345 0.931 . S
C342 N339 1.313 . S
C342 N343 1.344 . S
C342 H346 0.930 . S
N343 C340 1.377 . S
N343 C342 1.344 . S
O344 Co336 2.055 . S
O344 C348 1.253 . S
H345 C341 0.931 . S
H346 C342 0.930 . S
O347 Co336 2.039 . S
O347 C337 1.265 . S
C348 O344 1.253 . S
C348 O349 1.227 . S
O349 C348 1.227 . S
N350 Co336 2.140 . S
N350 C353 1.346 . S
N350 C354 1.345 . S
C351 C352 1.387 . S
C351 C355 1.391 . S
C352 C351 1.387 . S
C352 C353 1.369 . S
C352 H361 0.929 . S
C353 N350 1.346 . S
C353 C352 1.369 . S
C353 H356 0.928 . S
C354 N350 1.345 . S
C354 C355 1.371 . S
C354 H357 0.931 . S
C355 C351 1.391 . S
C355 C354 1.371 . S
C355 H362 0.930 . S
H356 C353 0.928 . S
H357 C354 0.931 . S
H358 C334 0.930 . S
H359 C331 0.930 . S
H360 C340 0.930 . S
H361 C352 0.929 . S
H362 C355 0.930 . S
C363 C364 1.351 . S
C363 N366 1.368 1_565 S
C363 H368 0.931 . S
C364 C363 1.351 . S
C364 N365 1.373 . S
C364 H392 0.930 . S
N365 C364 1.373 . S
N365 C367 1.340 . S
N366 C363 1.368 1_545 S
N366 C367 1.321 1_545 S
N366 Co369 2.135 . S
C367 N365 1.340 . S
C367 N366 1.321 1_565 S
C367 H391 0.930 1_565 S
H368 C363 0.931 . S
Co369 N366 2.135 . S
Co369 N372 2.121 . S
Co369 O377 2.055 . S
Co369 O380 2.039 . S
Co369 N383 2.140 . S
C370 O371 1.227 . S
C370 O380 1.265 . S
O371 C370 1.227 . S
N372 Co369 2.121 . S
N372 C374 1.375 . S
N372 C375 1.313 . S
C373 C374 1.338 . S
C373 N376 1.377 . S
C373 H393 0.930 . S
C374 N372 1.375 . S
C374 C373 1.338 . S
C374 H378 0.931 . S
C375 N372 1.313 . S
C375 N376 1.344 . S
C375 H379 0.930 . S
N376 C373 1.377 . S
N376 C375 1.344 . S
O377 Co369 2.055 . S
O377 C381 1.253 . S
H378 C374 0.931 . S
H379 C375 0.930 . S
O380 Co369 2.039 . S
O380 C370 1.265 . S
C381 O377 1.253 . S
C381 O382 1.227 . S
O382 C381 1.227 . S
N383 Co369 2.140 . S
N383 C386 1.346 . S
N383 C387 1.345 . S
C384 C385 1.387 . S
C384 C388 1.391 . S
C385 C384 1.387 . S
C385 C386 1.369 . S
C385 H394 0.929 . S
C386 N383 1.346 . S
C386 C385 1.369 . S
C386 H389 0.928 . S
C387 N383 1.345 . S
C387 C388 1.371 . S
C387 H390 0.931 . S
C388 C384 1.391 . S
C388 C387 1.371 . S
C388 H395 0.930 . S
H389 C386 0.928 . S
H390 C387 0.931 . S
H391 C367 0.930 1_545 S
H392 C364 0.930 . S
H393 C373 0.930 . S
H394 C385 0.929 . S
H395 C388 0.930 . S
C396 C397 1.351 . S
C396 N399 1.368 . S
C396 H401 0.931 . S
C397 C396 1.351 . S
C397 N398 1.373 . S
C397 H425 0.930 . S
N398 C397 1.373 . S
N398 C400 1.340 . S
N399 C396 1.368 . S
N399 C400 1.321 . S
N399 Co402 2.135 . S
C400 N398 1.340 . S
C400 N399 1.321 . S
C400 H424 0.930 . S
H401 C396 0.931 . S
Co402 N399 2.135 . S
Co402 N405 2.121 . S
Co402 O410 2.055 . S
Co402 O413 2.039 . S
Co402 N416 2.140 . S
C403 O404 1.227 . S
C403 O413 1.265 . S
O404 C403 1.227 . S
N405 Co402 2.121 . S
N405 C407 1.375 . S
N405 C408 1.313 . S
C406 C407 1.338 . S
C406 N409 1.377 . S
C406 H426 0.930 . S
C407 N405 1.375 . S
C407 C406 1.338 . S
C407 H411 0.931 . S
C408 N405 1.313 . S
C408 N409 1.344 . S
C408 H412 0.930 . S
N409 C406 1.377 . S
N409 C408 1.344 . S
O410 Co402 2.055 . S
O410 C414 1.253 . S
H411 C407 0.931 . S
H412 C408 0.930 . S
O413 Co402 2.039 . S
O413 C403 1.265 . S
C414 O410 1.253 . S
C414 O415 1.227 . S
O415 C414 1.227 . S
N416 Co402 2.140 . S
N416 C419 1.346 . S
N416 C420 1.345 . S
C417 C418 1.387 . S
C417 C421 1.391 . S
C418 C417 1.387 . S
C418 C419 1.369 . S
C418 H427 0.929 . S
C419 N416 1.346 . S
C419 C418 1.369 . S
C419 H422 0.928 . S
C420 N416 1.345 . S
C420 C421 1.371 . S
C420 H423 0.931 . S
C421 C417 1.391 . S
C421 C420 1.371 . S
C421 H428 0.930 . S
H422 C419 0.928 . S
H423 C420 0.931 . S
H424 C400 0.930 . S
H425 C397 0.930 . S
H426 C406 0.930 . S
H427 C418 0.929 . S
H428 C421 0.930 . S
C429 C430 1.351 . S
C429 N432 1.368 1_545 S
C429 H434 0.931 . S
C430 C429 1.351 . S
C430 N431 1.373 . S
C430 H458 0.930 . S
N431 C430 1.373 . S
N431 C433 1.340 . S
N432 C429 1.368 1_565 S
N432 C433 1.321 1_565 S
N432 Co435 2.135 . S
C433 N431 1.340 . S
C433 N432 1.321 1_545 S
C433 H457 0.930 1_545 S
H434 C429 0.931 . S
Co435 N432 2.135 . S
Co435 N438 2.121 . S
Co435 O443 2.055 . S
Co435 O446 2.039 . S
Co435 N449 2.140 . S
C436 O437 1.227 . S
C436 O446 1.265 . S
O437 C436 1.227 . S
N438 Co435 2.121 . S
N438 C440 1.375 . S
N438 C441 1.313 . S
C439 C440 1.338 . S
C439 N442 1.377 . S
C439 H459 0.930 . S
C440 N438 1.375 . S
C440 C439 1.338 . S
C440 H444 0.931 . S
C441 N438 1.313 . S
C441 N442 1.344 . S
C441 H445 0.930 . S
N442 C439 1.377 . S
N442 C441 1.344 . S
O443 Co435 2.055 . S
O443 C447 1.253 . S
H444 C440 0.931 . S
H445 C441 0.930 . S
O446 Co435 2.039 . S
O446 C436 1.265 . S
C447 O443 1.253 . S
C447 O448 1.227 . S
O448 C447 1.227 . S
N449 Co435 2.140 . S
N449 C452 1.346 . S
N449 C453 1.345 . S
C450 C451 1.387 . S
C450 C454 1.391 . S
C451 C450 1.387 . S
C451 C452 1.369 . S
C451 H460 0.929 . S
C452 N449 1.346 . S
C452 C451 1.369 . S
C452 H455 0.928 . S
C453 N449 1.345 . S
C453 C454 1.371 . S
C453 H456 0.931 . S
C454 C450 1.391 . S
C454 C453 1.371 . S
C454 H461 0.930 . S
H455 C452 0.928 . S
H456 C453 0.931 . S
H457 C433 0.930 1_565 S
H458 C430 0.930 . S
H459 C439 0.930 . S
H460 C451 0.929 . S
H461 C454 0.930 . S
C462 C463 1.351 . S
C462 N465 1.368 . S
C462 H467 0.931 . S
C463 C462 1.351 . S
C463 N464 1.373 . S
C463 H491 0.930 . S
N464 C463 1.373 . S
N464 C466 1.340 . S
N465 C462 1.368 . S
N465 C466 1.321 . S
N465 Co468 2.135 . S
C466 N464 1.340 . S
C466 N465 1.321 . S
C466 H490 0.930 . S
H467 C462 0.931 . S
Co468 N465 2.135 . S
Co468 N471 2.121 . S
Co468 O476 2.055 . S
Co468 O479 2.039 . S
Co468 N482 2.140 . S
C469 O470 1.227 . S
C469 O479 1.265 . S
O470 C469 1.227 . S
N471 Co468 2.121 . S
N471 C473 1.375 . S
N471 C474 1.313 . S
C472 C473 1.338 . S
C472 N475 1.377 . S
C472 H492 0.930 . S
C473 N471 1.375 . S
C473 C472 1.338 . S
C473 H477 0.931 . S
C474 N471 1.313 . S
C474 N475 1.344 . S
C474 H478 0.930 . S
N475 C472 1.377 . S
N475 C474 1.344 . S
O476 Co468 2.055 . S
O476 C480 1.253 . S
H477 C473 0.931 . S
H478 C474 0.930 . S
O479 Co468 2.039 . S
O479 C469 1.265 . S
C480 O476 1.253 . S
C480 O481 1.227 . S
O481 C480 1.227 . S
N482 Co468 2.140 . S
N482 C485 1.346 . S
N482 C486 1.345 . S
C483 C484 1.387 . S
C483 C487 1.391 . S
C484 C483 1.387 . S
C484 C485 1.369 . S
C484 H493 0.929 . S
C485 N482 1.346 . S
C485 C484 1.369 . S
C485 H488 0.928 . S
C486 N482 1.345 . S
C486 C487 1.371 . S
C486 H489 0.931 . S
C487 C483 1.391 . S
C487 C486 1.371 . S
C487 H494 0.930 . S
H488 C485 0.928 . S
H489 C486 0.931 . S
H490 C466 0.930 . S
H491 C463 0.930 . S
H492 C472 0.930 . S
H493 C484 0.929 . S
H494 C487 0.930 . S
C495 C496 1.351 . S
C495 N498 1.368 1_565 S
C495 H500 0.931 . S
C496 C495 1.351 . S
C496 N497 1.373 . S
C496 H524 0.930 . S
N497 C496 1.373 . S
N497 C499 1.340 . S
N498 C495 1.368 1_545 S
N498 C499 1.321 1_545 S
N498 Co501 2.135 . S
C499 N497 1.340 . S
C499 N498 1.321 1_565 S
C499 H523 0.930 1_565 S
H500 C495 0.931 . S
Co501 N498 2.135 . S
Co501 N504 2.121 . S
Co501 O509 2.055 . S
Co501 O512 2.039 . S
Co501 N515 2.140 1_655 S
C502 O503 1.227 . S
C502 O512 1.265 . S
O503 C502 1.227 . S
N504 Co501 2.121 . S
N504 C506 1.375 . S
N504 C507 1.313 . S
C505 C506 1.338 . S
C505 N508 1.377 . S
C505 H525 0.930 . S
C506 N504 1.375 . S
C506 C505 1.338 . S
C506 H510 0.931 . S
C507 N504 1.313 . S
C507 N508 1.344 . S
C507 H511 0.930 . S
N508 C505 1.377 . S
N508 C507 1.344 . S
O509 Co501 2.055 . S
O509 C513 1.253 . S
H510 C506 0.931 . S
H511 C507 0.930 . S
O512 Co501 2.039 . S
O512 C502 1.265 . S
C513 O509 1.253 . S
C513 O514 1.203 1_655 S
O514 C513 1.203 1_455 S
N515 Co501 2.140 1_455 S
N515 C518 1.346 . S
N515 C519 1.345 . S
C516 C517 1.387 . S
C516 C520 1.391 . S
C517 C516 1.387 . S
C517 C518 1.369 . S
C517 H526 0.929 . S
C518 N515 1.346 . S
C518 C517 1.369 . S
C518 H521 0.928 1_455 S
C519 N515 1.345 . S
C519 C520 1.371 . S
C519 H522 0.931 . S
C520 C516 1.391 . S
C520 C519 1.371 . S
C520 H527 0.930 . S
H521 C518 0.928 1_655 S
H522 C519 0.931 . S
H523 C499 0.930 1_545 S
H524 C496 0.930 . S
H525 C505 0.930 . S
H526 C517 0.929 . S
H527 C520 0.930 . S
C528 C529 1.351 . S
C528 N531 1.368 . S
C528 H533 0.931 . S
C529 C528 1.351 . S
C529 N530 1.373 . S
C529 H557 0.930 . S
N530 C529 1.373 . S
N530 C532 1.340 . S
N531 C528 1.368 . S
N531 C532 1.321 . S
N531 Co534 2.135 . S
C532 N530 1.340 . S
C532 N531 1.321 . S
C532 H556 0.930 . S
H533 C528 0.931 . S
Co534 N531 2.135 . S
Co534 N537 2.121 . S
Co534 O542 2.055 . S
Co534 O545 2.039 . S
Co534 N548 2.140 . S
C535 O536 1.227 . S
C535 O545 1.265 . S
O536 C535 1.227 . S
N537 Co534 2.121 . S
N537 C539 1.375 . S
N537 C540 1.313 . S
C538 C539 1.338 . S
C538 N541 1.377 . S
C538 H558 0.930 . S
C539 N537 1.375 . S
C539 C538 1.338 . S
C539 H543 0.931 . S
C540 N537 1.313 . S
C540 N541 1.344 . S
C540 H544 0.930 . S
N541 C538 1.377 . S
N541 C540 1.344 . S
O542 Co534 2.055 . S
O542 C546 1.253 . S
H543 C539 0.931 . S
H544 C540 0.930 . S
O545 Co534 2.039 . S
O545 C535 1.265 . S
C546 O542 1.253 . S
C546 O547 1.227 . S
O547 C546 1.227 . S
N548 Co534 2.140 . S
N548 C551 1.346 . S
N548 C552 1.345 . S
C549 C550 1.387 . S
C549 C553 1.391 . S
C550 C549 1.387 . S
C550 C551 1.369 . S
C550 H559 0.929 . S
C551 N548 1.346 . S
C551 C550 1.369 . S
C551 H554 0.928 . S
C552 N548 1.345 . S
C552 C553 1.371 . S
C552 H555 0.931 . S
C553 C549 1.391 . S
C553 C552 1.371 . S
C553 H560 0.930 . S
H554 C551 0.928 . S
H555 C552 0.931 . S
H556 C532 0.930 . S
H557 C529 0.930 . S
H558 C538 0.930 . S
H559 C550 0.929 . S
H560 C553 0.930 . S
C561 C562 1.351 . S
C561 N564 1.368 . S
C561 H566 0.931 . S
C562 C561 1.351 . S
C562 N563 1.373 . S
C562 H590 0.930 . S
N563 C562 1.373 . S
N563 C565 1.340 . S
N564 C561 1.368 . S
N564 C565 1.321 . S
N564 Co567 2.135 . S
C565 N563 1.340 . S
C565 N564 1.321 . S
C565 H589 0.930 . S
H566 C561 0.931 . S
Co567 N564 2.135 . S
Co567 N570 2.121 . S
Co567 O575 2.055 . S
Co567 O578 2.039 . S
Co567 N581 2.140 . S
C568 O569 1.227 . S
C568 O578 1.265 . S
O569 C568 1.227 . S
N570 Co567 2.121 . S
N570 C572 1.375 . S
N570 C573 1.313 . S
C571 C572 1.338 . S
C571 N574 1.377 . S
C571 H591 0.930 . S
C572 N570 1.375 . S
C572 C571 1.338 . S
C572 H576 0.931 . S
C573 N570 1.313 . S
C573 N574 1.344 . S
C573 H577 0.930 . S
N574 C571 1.377 . S
N574 C573 1.344 . S
O575 Co567 2.055 . S
O575 C579 1.253 . S
H576 C572 0.931 . S
H577 C573 0.930 . S
O578 Co567 2.039 . S
O578 C568 1.265 . S
C579 O575 1.253 . S
C579 O580 1.227 . S
O580 C579 1.227 . S
N581 Co567 2.140 . S
N581 C584 1.346 . S
N581 C585 1.345 . S
C582 C583 1.387 . S
C582 C586 1.391 . S
C583 C582 1.387 . S
C583 C584 1.369 . S
C583 H592 0.929 . S
C584 N581 1.346 . S
C584 C583 1.369 . S
C584 H587 0.928 . S
C585 N581 1.345 . S
C585 C586 1.371 . S
C585 H588 0.931 . S
C586 C582 1.391 . S
C586 C585 1.371 . S
C586 H593 0.930 . S
H587 C584 0.928 . S
H588 C585 0.931 . S
H589 C565 0.930 . S
H590 C562 0.930 . S
H591 C571 0.930 . S
H592 C583 0.929 . S
H593 C586 0.930 . S
C594 C595 1.351 . S
C594 N597 1.368 . S
C594 H599 0.931 . S
C595 C594 1.351 . S
C595 N596 1.373 . S
C595 H623 0.930 . S
N596 C595 1.373 . S
N596 C598 1.340 . S
N597 C594 1.368 . S
N597 C598 1.321 . S
N597 Co600 2.135 . S
C598 N596 1.340 . S
C598 N597 1.321 . S
C598 H622 0.930 . S
H599 C594 0.931 . S
Co600 N597 2.135 . S
Co600 N603 2.121 . S
Co600 O608 2.055 . S
Co600 O611 2.039 . S
Co600 N614 2.140 . S
C601 O602 1.227 . S
C601 O611 1.265 . S
O602 C601 1.227 . S
N603 Co600 2.121 . S
N603 C605 1.375 . S
N603 C606 1.313 . S
C604 C605 1.338 . S
C604 N607 1.377 . S
C604 H624 0.930 . S
C605 N603 1.375 . S
C605 C604 1.338 . S
C605 H609 0.931 . S
C606 N603 1.313 . S
C606 N607 1.344 . S
C606 H610 0.930 . S
N607 C604 1.377 . S
N607 C606 1.344 . S
O608 Co600 2.055 . S
O608 C612 1.253 . S
H609 C605 0.931 . S
H610 C606 0.930 . S
O611 Co600 2.039 . S
O611 C601 1.265 . S
C612 O608 1.253 . S
C612 O613 1.227 . S
O613 C612 1.227 . S
N614 Co600 2.140 . S
N614 C617 1.346 . S
N614 C618 1.345 . S
C615 C616 1.387 . S
C615 C619 1.391 . S
C616 C615 1.387 . S
C616 C617 1.369 . S
C616 H625 0.929 . S
C617 N614 1.346 . S
C617 C616 1.369 . S
C617 H620 0.928 . S
C618 N614 1.345 . S
C618 C619 1.371 . S
C618 H621 0.931 . S
C619 C615 1.391 . S
C619 C618 1.371 . S
C619 H626 0.930 . S
H620 C617 0.928 . S
H621 C618 0.931 . S
H622 C598 0.930 . S
H623 C595 0.930 . S
H624 C604 0.930 . S
H625 C616 0.929 . S
H626 C619 0.930 . S
C627 C628 1.351 . S
C627 N630 1.368 . S
C627 H632 0.931 . S
C628 C627 1.351 . S
C628 N629 1.373 . S
C628 H656 0.930 . S
N629 C628 1.373 . S
N629 C631 1.340 . S
N630 C627 1.368 . S
N630 C631 1.321 . S
N630 Co633 2.135 . S
C631 N629 1.340 . S
C631 N630 1.321 . S
C631 H655 0.930 . S
H632 C627 0.931 . S
Co633 N630 2.135 . S
Co633 N636 2.121 . S
Co633 O641 2.055 . S
Co633 O644 2.039 . S
Co633 N647 2.140 1_655 S
C634 O635 1.227 . S
C634 O644 1.265 . S
O635 C634 1.227 . S
N636 Co633 2.121 . S
N636 C638 1.375 . S
N636 C639 1.313 . S
C637 C638 1.338 . S
C637 N640 1.377 . S
C637 H657 0.930 . S
C638 N636 1.375 . S
C638 C637 1.338 . S
C638 H642 0.931 . S
C639 N636 1.313 . S
C639 N640 1.344 . S
C639 H643 0.930 . S
N640 C637 1.377 . S
N640 C639 1.344 . S
O641 Co633 2.055 . S
O641 C645 1.253 . S
H642 C638 0.931 . S
H643 C639 0.930 . S
O644 Co633 2.039 . S
O644 C634 1.265 . S
C645 O641 1.253 . S
C645 O646 1.203 1_655 S
O646 C645 1.203 1_455 S
N647 Co633 2.140 1_455 S
N647 C650 1.346 . S
N647 C651 1.345 . S
C648 C649 1.387 . S
C648 C652 1.391 . S
C649 C648 1.387 . S
C649 C650 1.369 . S
C649 H658 0.929 . S
C650 N647 1.346 . S
C650 C649 1.369 . S
C650 H653 0.928 1_455 S
C651 N647 1.345 . S
C651 C652 1.371 . S
C651 H654 0.931 . S
C652 C648 1.391 . S
C652 C651 1.371 . S
C652 H659 0.930 . S
H653 C650 0.928 1_655 S
H654 C651 0.931 . S
H655 C631 0.930 . S
H656 C628 0.930 . S
H657 C637 0.930 . S
H658 C649 0.929 . S
H659 C652 0.930 . S
C660 C661 1.351 . S
C660 N663 1.368 . S
C660 H665 0.931 . S
C661 C660 1.351 . S
C661 N662 1.373 . S
C661 H689 0.930 . S
N662 C661 1.373 . S
N662 C664 1.340 . S
N663 C660 1.368 . S
N663 C664 1.321 . S
N663 Co666 2.135 . S
C664 N662 1.340 . S
C664 N663 1.321 . S
C664 H688 0.930 . S
H665 C660 0.931 . S
Co666 N663 2.135 . S
Co666 N669 2.121 . S
Co666 O674 2.055 . S
Co666 O677 2.039 . S
Co666 N680 2.140 . S
C667 O668 1.227 . S
C667 O677 1.265 . S
O668 C667 1.227 . S
N669 Co666 2.121 . S
N669 C671 1.375 . S
N669 C672 1.313 . S
C670 C671 1.338 . S
C670 N673 1.377 . S
C670 H690 0.930 . S
C671 N669 1.375 . S
C671 C670 1.338 . S
C671 H675 0.931 . S
C672 N669 1.313 . S
C672 N673 1.344 . S
C672 H676 0.930 . S
N673 C670 1.377 . S
N673 C672 1.344 . S
O674 Co666 2.055 . S
O674 C678 1.253 . S
H675 C671 0.931 . S
H676 C672 0.930 . S
O677 Co666 2.039 . S
O677 C667 1.265 . S
C678 O674 1.253 . S
C678 O679 1.227 . S
O679 C678 1.227 . S
N680 Co666 2.140 . S
N680 C683 1.346 . S
N680 C684 1.345 . S
C681 C682 1.387 . S
C681 C685 1.391 . S
C682 C681 1.387 . S
C682 C683 1.369 . S
C682 H691 0.929 . S
C683 N680 1.346 . S
C683 C682 1.369 . S
C683 H686 0.928 . S
C684 N680 1.345 . S
C684 C685 1.371 . S
C684 H687 0.931 . S
C685 C681 1.391 . S
C685 C684 1.371 . S
C685 H692 0.930 . S
H686 C683 0.928 . S
H687 C684 0.931 . S
H688 C664 0.930 . S
H689 C661 0.930 . S
H690 C670 0.930 . S
H691 C682 0.929 . S
H692 C685 0.930 . S
C693 C694 1.351 . S
C693 N696 1.368 . S
C693 H698 0.931 . S
C694 C693 1.351 . S
C694 N695 1.373 . S
C694 H722 0.930 . S
N695 C694 1.373 . S
N695 C697 1.340 . S
N696 C693 1.368 . S
N696 C697 1.321 . S
N696 Co699 2.135 . S
C697 N695 1.340 . S
C697 N696 1.321 . S
C697 H721 0.930 . S
H698 C693 0.931 . S
Co699 N696 2.135 . S
Co699 N702 2.121 . S
Co699 O707 2.055 . S
Co699 O710 2.039 . S
Co699 N713 2.140 1_655 S
C700 O701 1.227 . S
C700 O710 1.265 . S
O701 C700 1.227 . S
N702 Co699 2.121 . S
N702 C704 1.375 . S
N702 C705 1.313 . S
C703 C704 1.338 . S
C703 N706 1.377 . S
C703 H723 0.930 . S
C704 N702 1.375 . S
C704 C703 1.338 . S
C704 H708 0.931 . S
C705 N702 1.313 . S
C705 N706 1.344 . S
C705 H709 0.930 . S
N706 C703 1.377 . S
N706 C705 1.344 . S
O707 Co699 2.055 . S
O707 C711 1.253 . S
H708 C704 0.931 . S
H709 C705 0.930 . S
O710 Co699 2.039 . S
O710 C700 1.265 . S
C711 O707 1.253 . S
C711 O712 1.203 1_655 S
O712 C711 1.203 1_455 S
N713 Co699 2.140 1_455 S
N713 C716 1.346 . S
N713 C717 1.345 . S
C714 C715 1.387 . S
C714 C718 1.391 . S
C715 C714 1.387 . S
C715 C716 1.369 . S
C715 H724 0.929 . S
C716 N713 1.346 . S
C716 C715 1.369 . S
C716 H719 0.928 1_455 S
C717 N713 1.345 . S
C717 C718 1.371 . S
C717 H720 0.931 . S
C718 C714 1.391 . S
C718 C717 1.371 . S
C718 H725 0.930 . S
H719 C716 0.928 1_655 S
H720 C717 0.931 . S
H721 C697 0.930 . S
H722 C694 0.930 . S
H723 C703 0.930 . S
H724 C715 0.929 . S
H725 C718 0.930 . S
C726 C727 1.351 . S
C726 N729 1.368 . S
C726 H731 0.931 . S
C727 C726 1.351 . S
C727 N728 1.373 . S
C727 H755 0.930 . S
N728 C727 1.373 . S
N728 C730 1.340 . S
N729 C726 1.368 . S
N729 C730 1.321 . S
N729 Co732 2.135 . S
C730 N728 1.340 . S
C730 N729 1.321 . S
C730 H754 0.930 . S
H731 C726 0.931 . S
Co732 N729 2.135 . S
Co732 N735 2.121 . S
Co732 O740 2.055 . S
Co732 O743 2.039 . S
Co732 N746 2.140 . S
C733 O734 1.227 . S
C733 O743 1.265 . S
O734 C733 1.227 . S
N735 Co732 2.121 . S
N735 C737 1.375 . S
N735 C738 1.313 . S
C736 C737 1.338 . S
C736 N739 1.377 . S
C736 H756 0.930 . S
C737 N735 1.375 . S
C737 C736 1.338 . S
C737 H741 0.931 . S
C738 N735 1.313 . S
C738 N739 1.344 . S
C738 H742 0.930 . S
N739 C736 1.377 . S
N739 C738 1.344 . S
O740 Co732 2.055 . S
O740 C744 1.253 . S
H741 C737 0.931 . S
H742 C738 0.930 . S
O743 Co732 2.039 . S
O743 C733 1.265 . S
C744 O740 1.253 . S
C744 O745 1.227 . S
O745 C744 1.227 . S
N746 Co732 2.140 . S
N746 C749 1.346 . S
N746 C750 1.345 . S
C747 C748 1.387 . S
C747 C751 1.391 . S
C748 C747 1.387 . S
C748 C749 1.369 . S
C748 H757 0.929 . S
C749 N746 1.346 . S
C749 C748 1.369 . S
C749 H752 0.928 . S
C750 N746 1.345 . S
C750 C751 1.371 . S
C750 H753 0.931 . S
C751 C747 1.391 . S
C751 C750 1.371 . S
C751 H758 0.930 . S
H752 C749 0.928 . S
H753 C750 0.931 . S
H754 C730 0.930 . S
H755 C727 0.930 . S
H756 C736 0.930 . S
H757 C748 0.929 . S
H758 C751 0.930 . S
C759 C760 1.351 . S
C759 N762 1.368 . S
C759 H764 0.931 . S
C760 C759 1.351 . S
C760 N761 1.373 . S
C760 H788 0.930 . S
N761 C760 1.373 . S
N761 C763 1.340 . S
N762 C759 1.368 . S
N762 C763 1.321 . S
N762 Co765 2.135 . S
C763 N761 1.340 . S
C763 N762 1.321 . S
C763 H787 0.930 . S
H764 C759 0.931 . S
Co765 N762 2.135 . S
Co765 N768 2.121 . S
Co765 O773 2.055 . S
Co765 O776 2.039 . S
Co765 N779 2.140 . S
C766 O767 1.227 . S
C766 O776 1.265 . S
O767 C766 1.227 . S
N768 Co765 2.121 . S
N768 C770 1.375 . S
N768 C771 1.313 . S
C769 C770 1.338 . S
C769 N772 1.377 . S
C769 H789 0.930 . S
C770 N768 1.375 . S
C770 C769 1.338 . S
C770 H774 0.931 . S
C771 N768 1.313 . S
C771 N772 1.344 . S
C771 H775 0.930 . S
N772 C769 1.377 . S
N772 C771 1.344 . S
O773 Co765 2.055 . S
O773 C777 1.253 . S
H774 C770 0.931 . S
H775 C771 0.930 . S
O776 Co765 2.039 . S
O776 C766 1.265 . S
C777 O773 1.253 . S
C777 O778 1.227 . S
O778 C777 1.227 . S
N779 Co765 2.140 . S
N779 C782 1.346 . S
N779 C783 1.345 . S
C780 C781 1.387 . S
C780 C784 1.391 . S
C781 C780 1.387 . S
C781 C782 1.369 . S
C781 H790 0.929 . S
C782 N779 1.346 . S
C782 C781 1.369 . S
C782 H785 0.928 . S
C783 N779 1.345 . S
C783 C784 1.371 . S
C783 H786 0.931 . S
C784 C780 1.391 . S
C784 C783 1.371 . S
C784 H791 0.930 . S
H785 C782 0.928 . S
H786 C783 0.931 . S
H787 C763 0.930 . S
H788 C760 0.930 . S
H789 C769 0.930 . S
H790 C781 0.929 . S
H791 C784 0.930 . S
C792 C793 1.351 . S
C792 N795 1.368 . S
C792 H797 0.931 . S
C793 C792 1.351 . S
C793 N794 1.373 . S
C793 H821 0.930 . S
N794 C793 1.373 . S
N794 C796 1.340 . S
N795 C792 1.368 . S
N795 C796 1.321 . S
N795 Co798 2.135 . S
C796 N794 1.340 . S
C796 N795 1.321 . S
C796 H820 0.930 . S
H797 C792 0.931 . S
Co798 N795 2.135 . S
Co798 N801 2.121 . S
Co798 O806 2.055 . S
Co798 O809 2.039 . S
Co798 N812 2.140 . S
C799 O800 1.227 . S
C799 O809 1.265 . S
O800 C799 1.227 . S
N801 Co798 2.121 . S
N801 C803 1.375 . S
N801 C804 1.313 . S
C802 C803 1.338 . S
C802 N805 1.377 . S
C802 H822 0.930 . S
C803 N801 1.375 . S
C803 C802 1.338 . S
C803 H807 0.931 . S
C804 N801 1.313 . S
C804 N805 1.344 . S
C804 H808 0.930 . S
N805 C802 1.377 . S
N805 C804 1.344 . S
O806 Co798 2.055 . S
O806 C810 1.253 . S
H807 C803 0.931 . S
H808 C804 0.930 . S
O809 Co798 2.039 . S
O809 C799 1.265 . S
C810 O806 1.253 . S
C810 O811 1.227 . S
O811 C810 1.227 . S
N812 Co798 2.140 . S
N812 C815 1.346 . S
N812 C816 1.345 . S
C813 C814 1.387 . S
C813 C817 1.391 . S
C814 C813 1.387 . S
C814 C815 1.369 . S
C814 H823 0.929 . S
C815 N812 1.346 . S
C815 C814 1.369 . S
C815 H818 0.928 . S
C816 N812 1.345 . S
C816 C817 1.371 . S
C816 H819 0.931 . S
C817 C813 1.391 . S
C817 C816 1.371 . S
C817 H824 0.930 . S
H818 C815 0.928 . S
H819 C816 0.931 . S
H820 C796 0.930 . S
H821 C793 0.930 . S
H822 C802 0.930 . S
H823 C814 0.929 . S
H824 C817 0.930 . S
C825 C826 1.351 . S
C825 N828 1.368 . S
C825 H830 0.931 . S
C826 C825 1.351 . S
C826 N827 1.373 . S
C826 H854 0.930 . S
N827 C826 1.373 . S
N827 C829 1.340 . S
N828 C825 1.368 . S
N828 C829 1.321 . S
N828 Co831 2.135 . S
C829 N827 1.340 . S
C829 N828 1.321 . S
C829 H853 0.930 . S
H830 C825 0.931 . S
Co831 N828 2.135 . S
Co831 N834 2.121 . S
Co831 O839 2.055 . S
Co831 O842 2.039 . S
Co831 N845 2.140 . S
C832 O833 1.227 . S
C832 O842 1.265 . S
O833 C832 1.227 . S
N834 Co831 2.121 . S
N834 C836 1.375 . S
N834 C837 1.313 . S
C835 C836 1.338 . S
C835 N838 1.377 . S
C835 H855 0.930 . S
C836 N834 1.375 . S
C836 C835 1.338 . S
C836 H840 0.931 . S
C837 N834 1.313 . S
C837 N838 1.344 . S
C837 H841 0.930 . S
N838 C835 1.377 . S
N838 C837 1.344 . S
O839 Co831 2.055 . S
O839 C843 1.253 . S
H840 C836 0.931 . S
H841 C837 0.930 . S
O842 Co831 2.039 . S
O842 C832 1.265 . S
C843 O839 1.253 . S
C843 O844 1.227 . S
O844 C843 1.227 . S
N845 Co831 2.140 . S
N845 C848 1.346 . S
N845 C849 1.345 . S
C846 C847 1.387 . S
C846 C850 1.391 . S
C847 C846 1.387 . S
C847 C848 1.369 . S
C847 H856 0.929 . S
C848 N845 1.346 . S
C848 C847 1.369 . S
C848 H851 0.928 . S
C849 N845 1.345 . S
C849 C850 1.371 . S
C849 H852 0.931 . S
C850 C846 1.391 . S
C850 C849 1.371 . S
C850 H857 0.930 . S
H851 C848 0.928 . S
H852 C849 0.931 . S
H853 C829 0.930 . S
H854 C826 0.930 . S
H855 C835 0.930 . S
H856 C847 0.929 . S
H857 C850 0.930 . S
C858 C859 1.351 . S
C858 N861 1.368 . S
C858 H863 0.931 . S
C859 C858 1.351 . S
C859 N860 1.373 . S
C859 H887 0.930 . S
N860 C859 1.373 . S
N860 C862 1.340 . S
N861 C858 1.368 . S
N861 C862 1.321 . S
N861 Co864 2.135 . S
C862 N860 1.340 . S
C862 N861 1.321 . S
C862 H886 0.930 . S
H863 C858 0.931 . S
Co864 N861 2.135 . S
Co864 N867 2.121 . S
Co864 O872 2.055 . S
Co864 O875 2.039 . S
Co864 N878 2.140 . S
C865 O866 1.227 . S
C865 O875 1.265 . S
O866 C865 1.227 . S
N867 Co864 2.121 . S
N867 C869 1.375 . S
N867 C870 1.313 . S
C868 C869 1.338 . S
C868 N871 1.377 . S
C868 H888 0.930 . S
C869 N867 1.375 . S
C869 C868 1.338 . S
C869 H873 0.931 . S
C870 N867 1.313 . S
C870 N871 1.344 . S
C870 H874 0.930 . S
N871 C868 1.377 . S
N871 C870 1.344 . S
O872 Co864 2.055 . S
O872 C876 1.253 . S
H873 C869 0.931 . S
H874 C870 0.930 . S
O875 Co864 2.039 . S
O875 C865 1.265 . S
C876 O872 1.253 . S
C876 O877 1.227 . S
O877 C876 1.227 . S
N878 Co864 2.140 . S
N878 C881 1.346 . S
N878 C882 1.345 . S
C879 C880 1.387 . S
C879 C883 1.391 . S
C880 C879 1.387 . S
C880 C881 1.369 . S
C880 H889 0.929 . S
C881 N878 1.346 . S
C881 C880 1.369 . S
C881 H884 0.928 . S
C882 N878 1.345 . S
C882 C883 1.371 . S
C882 H885 0.931 . S
C883 C879 1.391 . S
C883 C882 1.371 . S
C883 H890 0.930 . S
H884 C881 0.928 . S
H885 C882 0.931 . S
H886 C862 0.930 . S
H887 C859 0.930 . S
H888 C868 0.930 . S
H889 C880 0.929 . S
H890 C883 0.930 . S
C891 C892 1.351 . S
C891 N894 1.368 . S
C891 H896 0.931 . S
C892 C891 1.351 . S
C892 N893 1.373 . S
C892 H920 0.930 . S
N893 C892 1.373 . S
N893 C895 1.340 . S
N894 C891 1.368 . S
N894 C895 1.321 . S
N894 Co897 2.135 . S
C895 N893 1.340 . S
C895 N894 1.321 . S
C895 H919 0.930 . S
H896 C891 0.931 . S
Co897 N894 2.135 . S
Co897 N900 2.121 . S
Co897 O905 2.055 . S
Co897 O908 2.039 . S
Co897 N911 2.140 1_455 S
C898 O899 1.227 . S
C898 O908 1.265 . S
O899 C898 1.227 . S
N900 Co897 2.121 . S
N900 C902 1.375 . S
N900 C903 1.313 . S
C901 C902 1.338 . S
C901 N904 1.377 . S
C901 H921 0.930 . S
C902 N900 1.375 . S
C902 C901 1.338 . S
C902 H906 0.931 . S
C903 N900 1.313 . S
C903 N904 1.344 . S
C903 H907 0.930 . S
N904 C901 1.377 . S
N904 C903 1.344 . S
O905 Co897 2.055 . S
O905 C909 1.253 . S
H906 C902 0.931 . S
H907 C903 0.930 . S
O908 Co897 2.039 . S
O908 C898 1.265 . S
C909 O905 1.253 . S
C909 O910 1.203 1_455 S
O910 C909 1.203 1_655 S
N911 Co897 2.140 1_655 S
N911 C914 1.346 . S
N911 C915 1.345 . S
C912 C913 1.387 . S
C912 C916 1.391 . S
C913 C912 1.387 . S
C913 C914 1.369 . S
C913 H922 0.929 . S
C914 N911 1.346 . S
C914 C913 1.369 . S
C914 H917 0.928 1_655 S
C915 N911 1.345 . S
C915 C916 1.371 . S
C915 H918 0.931 . S
C916 C912 1.391 . S
C916 C915 1.371 . S
C916 H923 0.930 . S
H917 C914 0.928 1_455 S
H918 C915 0.931 . S
H919 C895 0.930 . S
H920 C892 0.930 . S
H921 C901 0.930 . S
H922 C913 0.929 . S
H923 C916 0.930 . S
C924 C925 1.351 . S
C924 N927 1.368 . S
C924 H929 0.931 . S
C925 C924 1.351 . S
C925 N926 1.373 . S
C925 H953 0.930 . S
N926 C925 1.373 . S
N926 C928 1.340 . S
N927 C924 1.368 . S
N927 C928 1.321 . S
N927 Co930 2.135 . S
C928 N926 1.340 . S
C928 N927 1.321 . S
C928 H952 0.930 . S
H929 C924 0.931 . S
Co930 N927 2.135 . S
Co930 N933 2.121 . S
Co930 O938 2.055 . S
Co930 O941 2.039 . S
Co930 N944 2.140 . S
C931 O932 1.227 . S
C931 O941 1.265 . S
O932 C931 1.227 . S
N933 Co930 2.121 . S
N933 C935 1.375 . S
N933 C936 1.313 . S
C934 C935 1.338 . S
C934 N937 1.377 . S
C934 H954 0.930 . S
C935 N933 1.375 . S
C935 C934 1.338 . S
C935 H939 0.931 . S
C936 N933 1.313 . S
C936 N937 1.344 . S
C936 H940 0.930 . S
N937 C934 1.377 . S
N937 C936 1.344 . S
O938 Co930 2.055 . S
O938 C942 1.253 . S
H939 C935 0.931 . S
H940 C936 0.930 . S
O941 Co930 2.039 . S
O941 C931 1.265 . S
C942 O938 1.253 . S
C942 O943 1.227 . S
O943 C942 1.227 . S
N944 Co930 2.140 . S
N944 C947 1.346 . S
N944 C948 1.345 . S
C945 C946 1.387 . S
C945 C949 1.391 . S
C946 C945 1.387 . S
C946 C947 1.369 . S
C946 H955 0.929 . S
C947 N944 1.346 . S
C947 C946 1.369 . S
C947 H950 0.928 . S
C948 N944 1.345 . S
C948 C949 1.371 . S
C948 H951 0.931 . S
C949 C945 1.391 . S
C949 C948 1.371 . S
C949 H956 0.930 . S
H950 C947 0.928 . S
H951 C948 0.931 . S
H952 C928 0.930 . S
H953 C925 0.930 . S
H954 C934 0.930 . S
H955 C946 0.929 . S
H956 C949 0.930 . S
C957 C958 1.351 . S
C957 N960 1.368 . S
C957 H962 0.931 . S
C958 C957 1.351 . S
C958 N959 1.373 . S
C958 H986 0.930 . S
N959 C958 1.373 . S
N959 C961 1.340 . S
N960 C957 1.368 . S
N960 C961 1.321 . S
N960 Co963 2.135 . S
C961 N959 1.340 . S
C961 N960 1.321 . S
C961 H985 0.930 . S
H962 C957 0.931 . S
Co963 N960 2.135 . S
Co963 N966 2.121 . S
Co963 O971 2.055 . S
Co963 O974 2.039 . S
Co963 N977 2.140 1_455 S
C964 O965 1.227 . S
C964 O974 1.265 . S
O965 C964 1.227 . S
N966 Co963 2.121 . S
N966 C968 1.375 . S
N966 C969 1.313 . S
C967 C968 1.338 . S
C967 N970 1.377 . S
C967 H987 0.930 . S
C968 N966 1.375 . S
C968 C967 1.338 . S
C968 H972 0.931 . S
C969 N966 1.313 . S
C969 N970 1.344 . S
C969 H973 0.930 . S
N970 C967 1.377 . S
N970 C969 1.344 . S
O971 Co963 2.055 . S
O971 C975 1.253 . S
H972 C968 0.931 . S
H973 C969 0.930 . S
O974 Co963 2.039 . S
O974 C964 1.265 . S
C975 O971 1.253 . S
C975 O976 1.203 1_455 S
O976 C975 1.203 1_655 S
N977 Co963 2.140 1_655 S
N977 C980 1.346 . S
N977 C981 1.345 . S
C978 C979 1.387 . S
C978 C982 1.391 . S
C979 C978 1.387 . S
C979 C980 1.369 . S
C979 H988 0.929 . S
C980 N977 1.346 . S
C980 C979 1.369 . S
C980 H983 0.928 1_655 S
C981 N977 1.345 . S
C981 C982 1.371 . S
C981 H984 0.931 . S
C982 C978 1.391 . S
C982 C981 1.371 . S
C982 H989 0.930 . S
H983 C980 0.928 1_455 S
H984 C981 0.931 . S
H985 C961 0.930 . S
H986 C958 0.930 . S
H987 C967 0.930 . S
H988 C979 0.929 . S
H989 C982 0.930 . S
C990 C991 1.351 . S
C990 N993 1.368 . S
C990 H995 0.931 . S
C991 C990 1.351 . S
C991 N992 1.373 . S
C991 H1019 0.930 . S
N992 C991 1.373 . S
N992 C994 1.340 . S
N993 C990 1.368 . S
N993 C994 1.321 . S
N993 Co996 2.135 . S
C994 N992 1.340 . S
C994 N993 1.321 . S
C994 H1018 0.930 . S
H995 C990 0.931 . S
Co996 N993 2.135 . S
Co996 N999 2.121 . S
Co996 O1004 2.055 . S
Co996 O1007 2.039 . S
Co996 N1010 2.140 . S
C997 O998 1.227 . S
C997 O1007 1.265 . S
O998 C997 1.227 . S
N999 Co996 2.121 . S
N999 C1001 1.375 . S
N999 C1002 1.313 . S
C1000 C1001 1.338 . S
C1000 N1003 1.377 . S
C1000 H1020 0.930 . S
C1001 N999 1.375 . S
C1001 C1000 1.338 . S
C1001 H1005 0.931 . S
C1002 N999 1.313 . S
C1002 N1003 1.344 . S
C1002 H1006 0.930 . S
N1003 C1000 1.377 . S
N1003 C1002 1.344 . S
O1004 Co996 2.055 . S
O1004 C1008 1.253 . S
H1005 C1001 0.931 . S
H1006 C1002 0.930 . S
O1007 Co996 2.039 . S
O1007 C997 1.265 . S
C1008 O1004 1.253 . S
C1008 O1009 1.227 . S
O1009 C1008 1.227 . S
N1010 Co996 2.140 . S
N1010 C1013 1.346 . S
N1010 C1014 1.345 . S
C1011 C1012 1.387 . S
C1011 C1015 1.391 . S
C1012 C1011 1.387 . S
C1012 C1013 1.369 . S
C1012 H1021 0.929 . S
C1013 N1010 1.346 . S
C1013 C1012 1.369 . S
C1013 H1016 0.928 . S
C1014 N1010 1.345 . S
C1014 C1015 1.371 . S
C1014 H1017 0.931 . S
C1015 C1011 1.391 . S
C1015 C1014 1.371 . S
C1015 H1022 0.930 . S
H1016 C1013 0.928 . S
H1017 C1014 0.931 . S
H1018 C994 0.930 . S
H1019 C991 0.930 . S
H1020 C1000 0.930 . S
H1021 C1012 0.929 . S
H1022 C1015 0.930 . S
C1023 C1024 1.351 . S
C1023 N1026 1.368 . S
C1023 H1028 0.931 . S
C1024 C1023 1.351 . S
C1024 N1025 1.373 . S
C1024 H1052 0.930 . S
N1025 C1024 1.373 . S
N1025 C1027 1.340 . S
N1026 C1023 1.368 . S
N1026 C1027 1.321 . S
N1026 Co1029 2.135 . S
C1027 N1025 1.340 . S
C1027 N1026 1.321 . S
C1027 H1051 0.930 . S
H1028 C1023 0.931 . S
Co1029 N1026 2.135 . S
Co1029 N1032 2.121 . S
Co1029 O1037 2.055 . S
Co1029 O1040 2.039 . S
Co1029 N1043 2.140 . S
C1030 O1031 1.227 . S
C1030 O1040 1.265 . S
O1031 C1030 1.227 . S
N1032 Co1029 2.121 . S
N1032 C1034 1.375 . S
N1032 C1035 1.313 . S
C1033 C1034 1.338 . S
C1033 N1036 1.377 . S
C1033 H1053 0.930 . S
C1034 N1032 1.375 . S
C1034 C1033 1.338 . S
C1034 H1038 0.931 . S
C1035 N1032 1.313 . S
C1035 N1036 1.344 . S
C1035 H1039 0.930 . S
N1036 C1033 1.377 . S
N1036 C1035 1.344 . S
O1037 Co1029 2.055 . S
O1037 C1041 1.253 . S
H1038 C1034 0.931 . S
H1039 C1035 0.930 . S
O1040 Co1029 2.039 . S
O1040 C1030 1.265 . S
C1041 O1037 1.253 . S
C1041 O1042 1.227 . S
O1042 C1041 1.227 . S
N1043 Co1029 2.140 . S
N1043 C1046 1.346 . S
N1043 C1047 1.345 . S
C1044 C1045 1.387 . S
C1044 C1048 1.391 . S
C1045 C1044 1.387 . S
C1045 C1046 1.369 . S
C1045 H1054 0.929 . S
C1046 N1043 1.346 . S
C1046 C1045 1.369 . S
C1046 H1049 0.928 . S
C1047 N1043 1.345 . S
C1047 C1048 1.371 . S
C1047 H1050 0.931 . S
C1048 C1044 1.391 . S
C1048 C1047 1.371 . S
C1048 H1055 0.930 . S
H1049 C1046 0.928 . S
H1050 C1047 0.931 . S
H1051 C1027 0.930 . S
H1052 C1024 0.930 . S
H1053 C1033 0.930 . S
H1054 C1045 0.929 . S
H1055 C1048 0.930 . S
C1056 C1057 1.349 . S
C1056 C1058 1.327 . S
C1056 H1081 0.950 . S
C1057 C1056 1.349 . S
C1057 C1073 1.349 . S
C1058 C1056 1.327 . S
C1058 C1077 1.429 . S
C1058 H1082 0.950 . S
C1059 C1076 1.574 . S
C1059 C1078 1.368 . S
C1059 H1083 0.949 . S
H1060 C1064 0.949 . S
C1061 C1062 1.349 . S
C1061 C1063 1.327 . S
C1061 H1084 0.950 . S
C1062 C1061 1.349 . S
C1062 C1074 1.349 . S
C1063 C1061 1.327 . S
C1063 C1079 1.429 . S
C1063 H1085 0.950 . S
C1064 H1060 0.949 . S
C1064 C1072 1.574 . S
C1064 C1080 1.368 . S
H1065 C1073 0.950 . S
H1066 C1071 0.950 . S
H1067 C1072 0.949 . S
H1068 C1074 0.950 . S
H1069 C1075 0.950 . S
H1070 C1076 0.949 . S
C1071 H1066 0.950 . S
C1071 C1073 1.327 . S
C1071 C1077 1.429 . S
C1072 C1064 1.574 . S
C1072 H1067 0.949 . S
C1072 C1078 1.368 . S
C1073 C1057 1.349 . S
C1073 H1065 0.950 . S
C1073 C1071 1.327 . S
C1074 C1062 1.349 . S
C1074 H1068 0.950 . S
C1074 C1075 1.327 . S
C1075 H1069 0.950 . S
C1075 C1074 1.327 . S
C1075 C1079 1.429 . S
C1076 C1059 1.574 . S
C1076 H1070 0.949 . S
C1076 C1080 1.368 . S
C1077 C1058 1.429 . S
C1077 C1071 1.429 . S
C1077 C1078 1.523 . S
C1078 C1059 1.368 . S
C1078 C1072 1.368 . S
C1078 C1077 1.523 . S
C1079 C1063 1.429 . S
C1079 C1075 1.429 . S
C1079 C1080 1.523 . S
C1080 C1064 1.368 . S
C1080 C1076 1.368 . S
C1080 C1079 1.523 . S
H1081 C1056 0.950 . S
H1082 C1058 0.950 . S
H1083 C1059 0.949 . S
H1084 C1061 0.950 . S
H1085 C1063 0.950 . S
C1086 C1087 1.360 . S
C1086 C1088 1.327 . S
C1086 H1111 0.950 . S
C1087 C1086 1.360 . S
C1087 C1103 1.338 1_455 S
C1088 C1086 1.327 . S
C1088 C1107 1.433 . S
C1088 H1112 0.950 . S
C1089 C1106 1.574 . S
C1089 C1108 1.368 1_655 S
C1089 H1113 0.949 . S
H1090 C1094 0.949 . S
C1091 C1092 1.360 . S
C1091 C1093 1.327 . S
C1091 H1114 0.950 . S
C1092 C1091 1.360 . S
C1092 C1104 1.338 1_655 S
C1093 C1091 1.327 . S
C1093 C1109 1.433 . S
C1093 H1115 0.950 . S
C1094 H1090 0.949 . S
C1094 C1102 1.574 . S
C1094 C1110 1.368 1_455 S
H1095 C1103 0.950 . S
H1096 C1101 0.950 . S
H1097 C1102 0.949 . S
H1098 C1104 0.950 . S
H1099 C1105 0.950 . S
H1100 C1106 0.949 . S
C1101 H1096 0.950 . S
C1101 C1103 1.327 . S
C1101 C1107 1.424 1_655 S
C1102 C1094 1.574 . S
C1102 H1097 0.949 . S
C1102 C1108 1.369 . S
C1103 C1087 1.338 1_655 S
C1103 H1095 0.950 . S
C1103 C1101 1.327 . S
C1104 C1092 1.338 1_455 S
C1104 H1098 0.950 . S
C1104 C1105 1.327 . S
C1105 H1099 0.950 . S
C1105 C1104 1.327 . S
C1105 C1109 1.424 1_455 S
C1106 C1089 1.574 . S
C1106 H1100 0.949 . S
C1106 C1110 1.369 . S
C1107 C1088 1.433 . S
C1107 C1101 1.424 1_455 S
C1107 C1108 1.523 . S
C1108 C1089 1.368 1_455 S
C1108 C1102 1.369 . S
C1108 C1107 1.523 . S
C1109 C1093 1.433 . S
C1109 C1105 1.424 1_655 S
C1109 C1110 1.523 . S
C1110 C1094 1.368 1_655 S
C1110 C1106 1.369 . S
C1110 C1109 1.523 . S
H1111 C1086 0.950 . S
H1112 C1088 0.950 . S
H1113 C1089 0.949 . S
H1114 C1091 0.950 . S
H1115 C1093 0.950 . S
C1116 C1117 1.349 . S
C1116 C1118 1.327 . S
C1116 H1141 0.950 . S
C1117 C1116 1.349 . S
C1117 C1133 1.349 . S
C1118 C1116 1.327 . S
C1118 C1137 1.429 . S
C1118 H1142 0.950 . S
C1119 C1136 1.574 1_455 S
C1119 C1138 1.368 . S
C1119 H1143 0.949 . S
H1120 C1124 0.949 . S
C1121 C1122 1.349 . S
C1121 C1123 1.327 . S
C1121 H1144 0.950 . S
C1122 C1121 1.349 . S
C1122 C1134 1.349 . S
C1123 C1121 1.327 . S
C1123 C1139 1.429 . S
C1123 H1145 0.950 . S
C1124 H1120 0.949 . S
C1124 C1132 1.574 1_655 S
C1124 C1140 1.368 . S
H1125 C1133 0.950 . S
H1126 C1131 0.950 . S
H1127 C1132 0.949 . S
H1128 C1134 0.950 . S
H1129 C1135 0.950 . S
H1130 C1136 0.949 . S
C1131 H1126 0.950 . S
C1131 C1133 1.327 . S
C1131 C1137 1.429 . S
C1132 C1124 1.574 1_455 S
C1132 H1127 0.949 . S
C1132 C1138 1.368 . S
C1133 C1117 1.349 . S
C1133 H1125 0.950 . S
C1133 C1131 1.327 . S
C1134 C1122 1.349 . S
C1134 H1128 0.950 . S
C1134 C1135 1.327 . S
C1135 H1129 0.950 . S
C1135 C1134 1.327 . S
C1135 C1139 1.429 . S
C1136 C1119 1.574 1_655 S
C1136 H1130 0.949 . S
C1136 C1140 1.368 . S
C1137 C1118 1.429 . S
C1137 C1131 1.429 . S
C1137 C1138 1.523 . S
C1138 C1119 1.368 . S
C1138 C1132 1.368 . S
C1138 C1137 1.523 . S
C1139 C1123 1.429 . S
C1139 C1135 1.429 . S
C1139 C1140 1.523 . S
C1140 C1124 1.368 . S
C1140 C1136 1.368 . S
C1140 C1139 1.523 . S
H1141 C1116 0.950 . S
H1142 C1118 0.950 . S
H1143 C1119 0.949 . S
H1144 C1121 0.950 . S
H1145 C1123 0.950 . S
C1146 C1147 1.349 . S
C1146 C1148 1.327 . S
C1146 H1171 0.950 . S
C1147 C1146 1.349 . S
C1147 C1163 1.349 . S
C1148 C1146 1.327 . S
C1148 C1167 1.429 . S
C1148 H1172 0.950 . S
C1149 C1166 1.574 . S
C1149 C1168 1.368 . S
C1149 H1173 0.949 . S
H1150 C1154 0.949 . S
C1151 C1152 1.349 . S
C1151 C1153 1.327 . S
C1151 H1174 0.950 . S
C1152 C1151 1.349 . S
C1152 C1164 1.349 . S
C1153 C1151 1.327 . S
C1153 C1169 1.429 . S
C1153 H1175 0.950 . S
C1154 H1150 0.949 . S
C1154 C1162 1.574 . S
C1154 C1170 1.368 . S
H1155 C1163 0.950 . S
H1156 C1161 0.950 . S
H1157 C1162 0.949 . S
H1158 C1164 0.950 . S
H1159 C1165 0.950 . S
H1160 C1166 0.949 . S
C1161 H1156 0.950 . S
C1161 C1163 1.327 . S
C1161 C1167 1.429 . S
C1162 C1154 1.574 . S
C1162 H1157 0.949 . S
C1162 C1168 1.368 . S
C1163 C1147 1.349 . S
C1163 H1155 0.950 . S
C1163 C1161 1.327 . S
C1164 C1152 1.349 . S
C1164 H1158 0.950 . S
C1164 C1165 1.327 . S
C1165 H1159 0.950 . S
C1165 C1164 1.327 . S
C1165 C1169 1.429 . S
C1166 C1149 1.574 . S
C1166 H1160 0.949 . S
C1166 C1170 1.368 . S
C1167 C1148 1.429 . S
C1167 C1161 1.429 . S
C1167 C1168 1.523 . S
C1168 C1149 1.368 . S
C1168 C1162 1.368 . S
C1168 C1167 1.523 . S
C1169 C1153 1.429 . S
C1169 C1165 1.429 . S
C1169 C1170 1.523 . S
C1170 C1154 1.368 . S
C1170 C1166 1.368 . S
C1170 C1169 1.523 . S
H1171 C1146 0.950 . S
H1172 C1148 0.950 . S
H1173 C1149 0.949 . S
H1174 C1151 0.950 . S
H1175 C1153 0.950 . S
C1176 C1177 1.349 . S
C1176 C1178 1.327 . S
C1176 H1201 0.950 . S
C1177 C1176 1.349 . S
C1177 C1193 1.349 . S
C1178 C1176 1.327 . S
C1178 C1197 1.429 . S
C1178 H1202 0.950 . S
C1179 C1196 1.574 . S
C1179 C1198 1.368 . S
C1179 H1203 0.949 . S
H1180 C1184 0.949 . S
C1181 C1182 1.349 . S
C1181 C1183 1.327 . S
C1181 H1204 0.950 . S
C1182 C1181 1.349 . S
C1182 C1194 1.349 . S
C1183 C1181 1.327 . S
C1183 C1199 1.429 . S
C1183 H1205 0.950 . S
C1184 H1180 0.949 . S
C1184 C1192 1.574 . S
C1184 C1200 1.368 . S
H1185 C1193 0.950 . S
H1186 C1191 0.950 . S
H1187 C1192 0.949 . S
H1188 C1194 0.950 . S
H1189 C1195 0.950 . S
H1190 C1196 0.949 . S
C1191 H1186 0.950 . S
C1191 C1193 1.327 . S
C1191 C1197 1.429 . S
C1192 C1184 1.574 . S
C1192 H1187 0.949 . S
C1192 C1198 1.368 . S
C1193 C1177 1.349 . S
C1193 H1185 0.950 . S
C1193 C1191 1.327 . S
C1194 C1182 1.349 . S
C1194 H1188 0.950 . S
C1194 C1195 1.327 . S
C1195 H1189 0.950 . S
C1195 C1194 1.327 . S
C1195 C1199 1.429 . S
C1196 C1179 1.574 . S
C1196 H1190 0.949 . S
C1196 C1200 1.368 . S
C1197 C1178 1.429 . S
C1197 C1191 1.429 . S
C1197 C1198 1.523 . S
C1198 C1179 1.368 . S
C1198 C1192 1.368 . S
C1198 C1197 1.523 . S
C1199 C1183 1.429 . S
C1199 C1195 1.429 . S
C1199 C1200 1.523 . S
C1200 C1184 1.368 . S
C1200 C1196 1.368 . S
C1200 C1199 1.523 . S
H1201 C1176 0.950 . S
H1202 C1178 0.950 . S
H1203 C1179 0.949 . S
H1204 C1181 0.950 . S
H1205 C1183 0.950 . S
C1206 C1207 1.349 . S
C1206 C1208 1.327 . S
C1206 H1231 0.950 . S
C1207 C1206 1.349 . S
C1207 C1223 1.349 . S
C1208 C1206 1.327 . S
C1208 C1227 1.429 . S
C1208 H1232 0.950 . S
C1209 C1226 1.574 . S
C1209 C1228 1.368 . S
C1209 H1233 0.949 . S
H1210 C1214 0.949 . S
C1211 C1212 1.349 . S
C1211 C1213 1.327 . S
C1211 H1234 0.950 . S
C1212 C1211 1.349 . S
C1212 C1224 1.349 . S
C1213 C1211 1.327 . S
C1213 C1229 1.429 . S
C1213 H1235 0.950 . S
C1214 H1210 0.949 . S
C1214 C1222 1.574 . S
C1214 C1230 1.368 . S
H1215 C1223 0.950 . S
H1216 C1221 0.950 . S
H1217 C1222 0.949 . S
H1218 C1224 0.950 . S
H1219 C1225 0.950 . S
H1220 C1226 0.949 . S
C1221 H1216 0.950 . S
C1221 C1223 1.327 . S
C1221 C1227 1.429 . S
C1222 C1214 1.574 . S
C1222 H1217 0.949 . S
C1222 C1228 1.368 . S
C1223 C1207 1.349 . S
C1223 H1215 0.950 . S
C1223 C1221 1.327 . S
C1224 C1212 1.349 . S
C1224 H1218 0.950 . S
C1224 C1225 1.327 . S
C1225 H1219 0.950 . S
C1225 C1224 1.327 . S
C1225 C1229 1.429 . S
C1226 C1209 1.574 . S
C1226 H1220 0.949 . S
C1226 C1230 1.368 . S
C1227 C1208 1.429 . S
C1227 C1221 1.429 . S
C1227 C1228 1.523 . S
C1228 C1209 1.368 . S
C1228 C1222 1.368 . S
C1228 C1227 1.523 . S
C1229 C1213 1.429 . S
C1229 C1225 1.429 . S
C1229 C1230 1.523 . S
C1230 C1214 1.368 . S
C1230 C1226 1.368 . S
C1230 C1229 1.523 . S
H1231 C1206 0.950 . S
H1232 C1208 0.950 . S
H1233 C1209 0.949 . S
H1234 C1211 0.950 . S
H1235 C1213 0.950 . S
C1236 C1237 1.349 . S
C1236 C1238 1.327 . S
C1236 H1261 0.950 . S
C1237 C1236 1.349 . S
C1237 C1253 1.349 . S
C1238 C1236 1.327 . S
C1238 C1257 1.429 . S
C1238 H1262 0.950 . S
C1239 C1256 1.574 1_455 S
C1239 C1258 1.368 . S
C1239 H1263 0.949 . S
H1240 C1244 0.949 . S
C1241 C1242 1.349 . S
C1241 C1243 1.327 . S
C1241 H1264 0.950 . S
C1242 C1241 1.349 . S
C1242 C1254 1.349 . S
C1243 C1241 1.327 . S
C1243 C1259 1.429 . S
C1243 H1265 0.950 . S
C1244 H1240 0.949 . S
C1244 C1252 1.574 1_655 S
C1244 C1260 1.368 . S
H1245 C1253 0.950 . S
H1246 C1251 0.950 . S
H1247 C1252 0.949 . S
H1248 C1254 0.950 . S
H1249 C1255 0.950 . S
H1250 C1256 0.949 . S
C1251 H1246 0.950 . S
C1251 C1253 1.327 . S
C1251 C1257 1.429 . S
C1252 C1244 1.574 1_455 S
C1252 H1247 0.949 . S
C1252 C1258 1.368 . S
C1253 C1237 1.349 . S
C1253 H1245 0.950 . S
C1253 C1251 1.327 . S
C1254 C1242 1.349 . S
C1254 H1248 0.950 . S
C1254 C1255 1.327 . S
C1255 H1249 0.950 . S
C1255 C1254 1.327 . S
C1255 C1259 1.429 . S
C1256 C1239 1.574 1_655 S
C1256 H1250 0.949 . S
C1256 C1260 1.368 . S
C1257 C1238 1.429 . S
C1257 C1251 1.429 . S
C1257 C1258 1.523 . S
C1258 C1239 1.368 . S
C1258 C1252 1.368 . S
C1258 C1257 1.523 . S
C1259 C1243 1.429 . S
C1259 C1255 1.429 . S
C1259 C1260 1.523 . S
C1260 C1244 1.368 . S
C1260 C1256 1.368 . S
C1260 C1259 1.523 . S
H1261 C1236 0.950 . S
H1262 C1238 0.950 . S
H1263 C1239 0.949 . S
H1264 C1241 0.950 . S
H1265 C1243 0.950 . S
C1266 C1267 1.338 1_655 S
C1266 C1268 1.327 . S
C1266 H1291 0.950 . S
C1267 C1266 1.338 1_455 S
C1267 C1283 1.360 . S
C1268 C1266 1.327 . S
C1268 C1287 1.425 1_655 S
C1268 H1292 0.950 . S
C1269 C1286 1.574 . S
C1269 C1288 1.369 . S
C1269 H1293 0.949 . S
H1270 C1274 0.949 . S
C1271 C1272 1.338 1_455 S
C1271 C1273 1.327 . S
C1271 H1294 0.950 . S
C1272 C1271 1.338 1_655 S
C1272 C1284 1.360 . S
C1273 C1271 1.327 . S
C1273 C1289 1.425 1_455 S
C1273 H1295 0.950 . S
C1274 H1270 0.949 . S
C1274 C1282 1.574 . S
C1274 C1290 1.369 . S
H1275 C1283 0.950 . S
H1276 C1281 0.950 . S
H1277 C1282 0.949 . S
H1278 C1284 0.950 . S
H1279 C1285 0.950 . S
H1280 C1286 0.949 . S
C1281 H1276 0.950 . S
C1281 C1283 1.327 . S
C1281 C1287 1.433 . S
C1282 C1274 1.574 . S
C1282 H1277 0.949 . S
C1282 C1288 1.368 1_655 S
C1283 C1267 1.360 . S
C1283 H1275 0.950 . S
C1283 C1281 1.327 . S
C1284 C1272 1.360 . S
C1284 H1278 0.950 . S
C1284 C1285 1.327 . S
C1285 H1279 0.950 . S
C1285 C1284 1.327 . S
C1285 C1289 1.433 . S
C1286 C1269 1.574 . S
C1286 H1280 0.949 . S
C1286 C1290 1.368 1_455 S
C1287 C1268 1.425 1_455 S
C1287 C1281 1.433 . S
C1287 C1288 1.523 . S
C1288 C1269 1.369 . S
C1288 C1282 1.368 1_455 S
C1288 C1287 1.523 . S
C1289 C1273 1.425 1_655 S
C1289 C1285 1.433 . S
C1289 C1290 1.523 . S
C1290 C1274 1.369 . S
C1290 C1286 1.368 1_655 S
C1290 C1289 1.523 . S
H1291 C1266 0.950 . S
H1292 C1268 0.950 . S
H1293 C1269 0.949 . S
H1294 C1271 0.950 . S
H1295 C1273 0.950 . S
C1296 C1297 1.349 . S
C1296 C1298 1.327 . S
C1296 H1321 0.950 . S
C1297 C1296 1.349 . S
C1297 C1313 1.349 . S
C1298 C1296 1.327 . S
C1298 C1317 1.429 . S
C1298 H1322 0.950 . S
C1299 C1316 1.574 . S
C1299 C1318 1.368 . S
C1299 H1323 0.949 . S
H1300 C1304 0.949 . S
C1301 C1302 1.349 . S
C1301 C1303 1.327 . S
C1301 H1324 0.950 . S
C1302 C1301 1.349 . S
C1302 C1314 1.349 . S
C1303 C1301 1.327 . S
C1303 C1319 1.429 . S
C1303 H1325 0.950 . S
C1304 H1300 0.949 . S
C1304 C1312 1.574 . S
C1304 C1320 1.368 . S
H1305 C1313 0.950 . S
H1306 C1311 0.950 . S
H1307 C1312 0.949 . S
H1308 C1314 0.950 . S
H1309 C1315 0.950 . S
H1310 C1316 0.949 . S
C1311 H1306 0.950 . S
C1311 C1313 1.327 . S
C1311 C1317 1.429 . S
C1312 C1304 1.574 . S
C1312 H1307 0.949 . S
C1312 C1318 1.368 . S
C1313 C1297 1.349 . S
C1313 H1305 0.950 . S
C1313 C1311 1.327 . S
C1314 C1302 1.349 . S
C1314 H1308 0.950 . S
C1314 C1315 1.327 . S
C1315 H1309 0.950 . S
C1315 C1314 1.327 . S
C1315 C1319 1.429 . S
C1316 C1299 1.574 . S
C1316 H1310 0.949 . S
C1316 C1320 1.368 . S
C1317 C1298 1.429 . S
C1317 C1311 1.429 . S
C1317 C1318 1.523 . S
C1318 C1299 1.368 . S
C1318 C1312 1.368 . S
C1318 C1317 1.523 . S
C1319 C1303 1.429 . S
C1319 C1315 1.429 . S
C1319 C1320 1.523 . S
C1320 C1304 1.368 . S
C1320 C1316 1.368 . S
C1320 C1319 1.523 . S
H1321 C1296 0.950 . S
H1322 C1298 0.950 . S
H1323 C1299 0.949 . S
H1324 C1301 0.950 . S
H1325 C1303 0.950 . S
C1326 C1327 1.338 1_655 S
C1326 C1328 1.327 . S
C1326 H1351 0.950 . S
C1327 C1326 1.338 1_455 S
C1327 C1343 1.360 . S
C1328 C1326 1.327 . S
C1328 C1347 1.424 1_655 S
C1328 H1352 0.950 . S
C1329 C1346 1.574 . S
C1329 C1348 1.369 . S
C1329 H1353 0.949 . S
H1330 C1334 0.949 . S
C1331 C1332 1.338 1_455 S
C1331 C1333 1.327 . S
C1331 H1354 0.950 . S
C1332 C1331 1.338 1_655 S
C1332 C1344 1.360 . S
C1333 C1331 1.327 . S
C1333 C1349 1.424 1_455 S
C1333 H1355 0.950 . S
C1334 H1330 0.949 . S
C1334 C1342 1.574 . S
C1334 C1350 1.369 . S
H1335 C1343 0.950 . S
H1336 C1341 0.950 . S
H1337 C1342 0.949 . S
H1338 C1344 0.950 . S
H1339 C1345 0.950 . S
H1340 C1346 0.949 . S
C1341 H1336 0.950 . S
C1341 C1343 1.327 . S
C1341 C1347 1.433 . S
C1342 C1334 1.574 . S
C1342 H1337 0.949 . S
C1342 C1348 1.368 1_655 S
C1343 C1327 1.360 . S
C1343 H1335 0.950 . S
C1343 C1341 1.327 . S
C1344 C1332 1.360 . S
C1344 H1338 0.950 . S
C1344 C1345 1.327 . S
C1345 H1339 0.950 . S
C1345 C1344 1.327 . S
C1345 C1349 1.433 . S
C1346 C1329 1.574 . S
C1346 H1340 0.949 . S
C1346 C1350 1.368 1_455 S
C1347 C1328 1.424 1_455 S
C1347 C1341 1.433 . S
C1347 C1348 1.523 . S
C1348 C1329 1.369 . S
C1348 C1342 1.368 1_455 S
C1348 C1347 1.523 . S
C1349 C1333 1.424 1_655 S
C1349 C1345 1.433 . S
C1349 C1350 1.523 . S
C1350 C1334 1.369 . S
C1350 C1346 1.368 1_655 S
C1350 C1349 1.523 . S
H1351 C1326 0.950 . S
H1352 C1328 0.950 . S
H1353 C1329 0.949 . S
H1354 C1331 0.950 . S
H1355 C1333 0.950 . S
C1356 C1357 1.349 . S
C1356 C1358 1.327 . S
C1356 H1381 0.950 . S
C1357 C1356 1.349 . S
C1357 C1373 1.349 . S
C1358 C1356 1.327 . S
C1358 C1377 1.429 . S
C1358 H1382 0.950 . S
C1359 C1376 1.574 1_655 S
C1359 C1378 1.368 . S
C1359 H1383 0.949 . S
H1360 C1364 0.949 . S
C1361 C1362 1.349 . S
C1361 C1363 1.327 . S
C1361 H1384 0.950 . S
C1362 C1361 1.349 . S
C1362 C1374 1.349 . S
C1363 C1361 1.327 . S
C1363 C1379 1.429 . S
C1363 H1385 0.950 . S
C1364 H1360 0.949 . S
C1364 C1372 1.574 1_455 S
C1364 C1380 1.368 . S
H1365 C1373 0.950 . S
H1366 C1371 0.950 . S
H1367 C1372 0.949 . S
H1368 C1374 0.950 . S
H1369 C1375 0.950 . S
H1370 C1376 0.949 . S
C1371 H1366 0.950 . S
C1371 C1373 1.327 . S
C1371 C1377 1.429 . S
C1372 C1364 1.574 1_655 S
C1372 H1367 0.949 . S
C1372 C1378 1.368 . S
C1373 C1357 1.349 . S
C1373 H1365 0.950 . S
C1373 C1371 1.327 . S
C1374 C1362 1.349 . S
C1374 H1368 0.950 . S
C1374 C1375 1.327 . S
C1375 H1369 0.950 . S
C1375 C1374 1.327 . S
C1375 C1379 1.429 . S
C1376 C1359 1.574 1_455 S
C1376 H1370 0.949 . S
C1376 C1380 1.368 . S
C1377 C1358 1.429 . S
C1377 C1371 1.429 . S
C1377 C1378 1.523 . S
C1378 C1359 1.368 . S
C1378 C1372 1.368 . S
C1378 C1377 1.523 . S
C1379 C1363 1.429 . S
C1379 C1375 1.429 . S
C1379 C1380 1.523 . S
C1380 C1364 1.368 . S
C1380 C1376 1.368 . S
C1380 C1379 1.523 . S
H1381 C1356 0.950 . S
H1382 C1358 0.950 . S
H1383 C1359 0.949 . S
H1384 C1361 0.950 . S
H1385 C1363 0.950 . S
C1386 C1387 1.349 . S
C1386 C1388 1.327 . S
C1386 H1411 0.950 . S
C1387 C1386 1.349 . S
C1387 C1403 1.349 . S
C1388 C1386 1.327 . S
C1388 C1407 1.429 . S
C1388 H1412 0.950 . S
C1389 C1406 1.574 . S
C1389 C1408 1.368 . S
C1389 H1413 0.949 . S
H1390 C1394 0.949 . S
C1391 C1392 1.349 . S
C1391 C1393 1.327 . S
C1391 H1414 0.950 . S
C1392 C1391 1.349 . S
C1392 C1404 1.349 . S
C1393 C1391 1.327 . S
C1393 C1409 1.429 . S
C1393 H1415 0.950 . S
C1394 H1390 0.949 . S
C1394 C1402 1.574 . S
C1394 C1410 1.368 . S
H1395 C1403 0.950 . S
H1396 C1401 0.950 . S
H1397 C1402 0.949 . S
H1398 C1404 0.950 . S
H1399 C1405 0.950 . S
H1400 C1406 0.949 . S
C1401 H1396 0.950 . S
C1401 C1403 1.327 . S
C1401 C1407 1.429 . S
C1402 C1394 1.574 . S
C1402 H1397 0.949 . S
C1402 C1408 1.368 . S
C1403 C1387 1.349 . S
C1403 H1395 0.950 . S
C1403 C1401 1.327 . S
C1404 C1392 1.349 . S
C1404 H1398 0.950 . S
C1404 C1405 1.327 . S
C1405 H1399 0.950 . S
C1405 C1404 1.327 . S
C1405 C1409 1.429 . S
C1406 C1389 1.574 . S
C1406 H1400 0.949 . S
C1406 C1410 1.368 . S
C1407 C1388 1.429 . S
C1407 C1401 1.429 . S
C1407 C1408 1.523 . S
C1408 C1389 1.368 . S
C1408 C1402 1.368 . S
C1408 C1407 1.523 . S
C1409 C1393 1.429 . S
C1409 C1405 1.429 . S
C1409 C1410 1.523 . S
C1410 C1394 1.368 . S
C1410 C1406 1.368 . S
C1410 C1409 1.523 . S
H1411 C1386 0.950 . S
H1412 C1388 0.950 . S
H1413 C1389 0.949 . S
H1414 C1391 0.950 . S
H1415 C1393 0.950 . S
C1416 C1417 1.349 . S
C1416 C1418 1.327 . S
C1416 H1441 0.950 . S
C1417 C1416 1.349 . S
C1417 C1433 1.349 . S
C1418 C1416 1.327 . S
C1418 C1437 1.429 . S
C1418 H1442 0.950 . S
C1419 C1436 1.574 . S
C1419 C1438 1.368 . S
C1419 H1443 0.949 . S
H1420 C1424 0.949 . S
C1421 C1422 1.349 . S
C1421 C1423 1.327 . S
C1421 H1444 0.950 . S
C1422 C1421 1.349 . S
C1422 C1434 1.349 . S
C1423 C1421 1.327 . S
C1423 C1439 1.429 . S
C1423 H1445 0.950 . S
C1424 H1420 0.949 . S
C1424 C1432 1.574 . S
C1424 C1440 1.368 . S
H1425 C1433 0.950 . S
H1426 C1431 0.950 . S
H1427 C1432 0.949 . S
H1428 C1434 0.950 . S
H1429 C1435 0.950 . S
H1430 C1436 0.949 . S
C1431 H1426 0.950 . S
C1431 C1433 1.327 . S
C1431 C1437 1.429 . S
C1432 C1424 1.574 . S
C1432 H1427 0.949 . S
C1432 C1438 1.368 . S
C1433 C1417 1.349 . S
C1433 H1425 0.950 . S
C1433 C1431 1.327 . S
C1434 C1422 1.349 . S
C1434 H1428 0.950 . S
C1434 C1435 1.327 . S
C1435 H1429 0.950 . S
C1435 C1434 1.327 . S
C1435 C1439 1.429 . S
C1436 C1419 1.574 . S
C1436 H1430 0.949 . S
C1436 C1440 1.368 . S
C1437 C1418 1.429 . S
C1437 C1431 1.429 . S
C1437 C1438 1.523 . S
C1438 C1419 1.368 . S
C1438 C1432 1.368 . S
C1438 C1437 1.523 . S
C1439 C1423 1.429 . S
C1439 C1435 1.429 . S
C1439 C1440 1.523 . S
C1440 C1424 1.368 . S
C1440 C1436 1.368 . S
C1440 C1439 1.523 . S
H1441 C1416 0.950 . S
H1442 C1418 0.950 . S
H1443 C1419 0.949 . S
H1444 C1421 0.950 . S
H1445 C1423 0.950 . S
C1446 C1447 1.349 . S
C1446 C1448 1.327 . S
C1446 H1471 0.950 . S
C1447 C1446 1.349 . S
C1447 C1463 1.349 . S
C1448 C1446 1.327 . S
C1448 C1467 1.429 . S
C1448 H1472 0.950 . S
C1449 C1466 1.574 . S
C1449 C1468 1.368 . S
C1449 H1473 0.949 . S
H1450 C1454 0.949 . S
C1451 C1452 1.349 . S
C1451 C1453 1.327 . S
C1451 H1474 0.950 . S
C1452 C1451 1.349 . S
C1452 C1464 1.349 . S
C1453 C1451 1.327 . S
C1453 C1469 1.429 . S
C1453 H1475 0.950 . S
C1454 H1450 0.949 . S
C1454 C1462 1.574 . S
C1454 C1470 1.368 . S
H1455 C1463 0.950 . S
H1456 C1461 0.950 . S
H1457 C1462 0.949 . S
H1458 C1464 0.950 . S
H1459 C1465 0.950 . S
H1460 C1466 0.949 . S
C1461 H1456 0.950 . S
C1461 C1463 1.327 . S
C1461 C1467 1.429 . S
C1462 C1454 1.574 . S
C1462 H1457 0.949 . S
C1462 C1468 1.368 . S
C1463 C1447 1.349 . S
C1463 H1455 0.950 . S
C1463 C1461 1.327 . S
C1464 C1452 1.349 . S
C1464 H1458 0.950 . S
C1464 C1465 1.327 . S
C1465 H1459 0.950 . S
C1465 C1464 1.327 . S
C1465 C1469 1.429 . S
C1466 C1449 1.574 . S
C1466 H1460 0.949 . S
C1466 C1470 1.368 . S
C1467 C1448 1.429 . S
C1467 C1461 1.429 . S
C1467 C1468 1.523 . S
C1468 C1449 1.368 . S
C1468 C1462 1.368 . S
C1468 C1467 1.523 . S
C1469 C1453 1.429 . S
C1469 C1465 1.429 . S
C1469 C1470 1.523 . S
C1470 C1454 1.368 . S
C1470 C1466 1.368 . S
C1470 C1469 1.523 . S
H1471 C1446 0.950 . S
H1472 C1448 0.950 . S
H1473 C1449 0.949 . S
H1474 C1451 0.950 . S
H1475 C1453 0.950 . S
C1476 C1477 1.349 . S
C1476 C1478 1.327 . S
C1476 H1501 0.950 . S
C1477 C1476 1.349 . S
C1477 C1493 1.349 . S
C1478 C1476 1.327 . S
C1478 C1497 1.429 . S
C1478 H1502 0.950 . S
C1479 C1496 1.574 1_455 S
C1479 C1498 1.368 . S
C1479 H1503 0.949 . S
H1480 C1484 0.949 . S
C1481 C1482 1.349 . S
C1481 C1483 1.327 . S
C1481 H1504 0.950 . S
C1482 C1481 1.349 . S
C1482 C1494 1.349 . S
C1483 C1481 1.327 . S
C1483 C1499 1.429 . S
C1483 H1505 0.950 . S
C1484 H1480 0.949 . S
C1484 C1492 1.574 1_655 S
C1484 C1500 1.368 . S
H1485 C1493 0.950 . S
H1486 C1491 0.950 . S
H1487 C1492 0.949 . S
H1488 C1494 0.950 . S
H1489 C1495 0.950 . S
H1490 C1496 0.949 . S
C1491 H1486 0.950 . S
C1491 C1493 1.327 . S
C1491 C1497 1.429 . S
C1492 C1484 1.574 1_455 S
C1492 H1487 0.949 . S
C1492 C1498 1.368 . S
C1493 C1477 1.349 . S
C1493 H1485 0.950 . S
C1493 C1491 1.327 . S
C1494 C1482 1.349 . S
C1494 H1488 0.950 . S
C1494 C1495 1.327 . S
C1495 H1489 0.950 . S
C1495 C1494 1.327 . S
C1495 C1499 1.429 . S
C1496 C1479 1.574 1_655 S
C1496 H1490 0.949 . S
C1496 C1500 1.368 . S
C1497 C1478 1.429 . S
C1497 C1491 1.429 . S
C1497 C1498 1.523 . S
C1498 C1479 1.368 . S
C1498 C1492 1.368 . S
C1498 C1497 1.523 . S
C1499 C1483 1.429 . S
C1499 C1495 1.429 . S
C1499 C1500 1.523 . S
C1500 C1484 1.368 . S
C1500 C1496 1.368 . S
C1500 C1499 1.523 . S
H1501 C1476 0.950 . S
H1502 C1478 0.950 . S
H1503 C1479 0.949 . S
H1504 C1481 0.950 . S
H1505 C1483 0.950 . S
C1506 C1507 1.360 . S
C1506 C1508 1.327 . S
C1506 H1531 0.950 . S
C1507 C1506 1.360 . S
C1507 C1523 1.338 1_455 S
C1508 C1506 1.327 . S
C1508 C1527 1.433 . S
C1508 H1532 0.950 . S
C1509 C1526 1.574 . S
C1509 C1528 1.368 1_655 S
C1509 H1533 0.949 . S
H1510 C1514 0.949 . S
C1511 C1512 1.360 . S
C1511 C1513 1.327 . S
C1511 H1534 0.950 . S
C1512 C1511 1.360 . S
C1512 C1524 1.338 1_655 S
C1513 C1511 1.327 . S
C1513 C1529 1.433 . S
C1513 H1535 0.950 . S
C1514 H1510 0.949 . S
C1514 C1522 1.574 . S
C1514 C1530 1.368 1_455 S
H1515 C1523 0.950 . S
H1516 C1521 0.950 . S
H1517 C1522 0.949 . S
H1518 C1524 0.950 . S
H1519 C1525 0.950 . S
H1520 C1526 0.949 . S
C1521 H1516 0.950 . S
C1521 C1523 1.327 . S
C1521 C1527 1.425 1_655 S
C1522 C1514 1.574 . S
C1522 H1517 0.949 . S
C1522 C1528 1.369 . S
C1523 C1507 1.338 1_655 S
C1523 H1515 0.950 . S
C1523 C1521 1.327 . S
C1524 C1512 1.338 1_455 S
C1524 H1518 0.950 . S
C1524 C1525 1.327 . S
C1525 H1519 0.950 . S
C1525 C1524 1.327 . S
C1525 C1529 1.425 1_455 S
C1526 C1509 1.574 . S
C1526 H1520 0.949 . S
C1526 C1530 1.369 . S
C1527 C1508 1.433 . S
C1527 C1521 1.425 1_455 S
C1527 C1528 1.523 . S
C1528 C1509 1.368 1_455 S
C1528 C1522 1.369 . S
C1528 C1527 1.523 . S
C1529 C1513 1.433 . S
C1529 C1525 1.425 1_655 S
C1529 C1530 1.523 . S
C1530 C1514 1.368 1_655 S
C1530 C1526 1.369 . S
C1530 C1529 1.523 . S
H1531 C1506 0.950 . S
H1532 C1508 0.950 . S
H1533 C1509 0.949 . S
H1534 C1511 0.950 . S
H1535 C1513 0.950 . S
C1536 C1537 1.349 . S
C1536 C1538 1.327 . S
C1536 H1561 0.950 . S
C1537 C1536 1.349 . S
C1537 C1553 1.349 . S
C1538 C1536 1.327 . S
C1538 C1557 1.429 . S
C1538 H1562 0.950 . S
C1539 C1556 1.574 . S
C1539 C1558 1.368 . S
C1539 H1563 0.949 . S
H1540 C1544 0.949 . S
C1541 C1542 1.349 . S
C1541 C1543 1.327 . S
C1541 H1564 0.950 . S
C1542 C1541 1.349 . S
C1542 C1554 1.349 . S
C1543 C1541 1.327 . S
C1543 C1559 1.429 . S
C1543 H1565 0.950 . S
C1544 H1540 0.949 . S
C1544 C1552 1.574 . S
C1544 C1560 1.368 . S
H1545 C1553 0.950 . S
H1546 C1551 0.950 . S
H1547 C1552 0.949 . S
H1548 C1554 0.950 . S
H1549 C1555 0.950 . S
H1550 C1556 0.949 . S
C1551 H1546 0.950 . S
C1551 C1553 1.327 . S
C1551 C1557 1.429 . S
C1552 C1544 1.574 . S
C1552 H1547 0.949 . S
C1552 C1558 1.368 . S
C1553 C1537 1.349 . S
C1553 H1545 0.950 . S
C1553 C1551 1.327 . S
C1554 C1542 1.349 . S
C1554 H1548 0.950 . S
C1554 C1555 1.327 . S
C1555 H1549 0.950 . S
C1555 C1554 1.327 . S
C1555 C1559 1.429 . S
C1556 C1539 1.574 . S
C1556 H1550 0.949 . S
C1556 C1560 1.368 . S
C1557 C1538 1.429 . S
C1557 C1551 1.429 . S
C1557 C1558 1.523 . S
C1558 C1539 1.368 . S
C1558 C1552 1.368 . S
C1558 C1557 1.523 . S
C1559 C1543 1.429 . S
C1559 C1555 1.429 . S
C1559 C1560 1.523 . S
C1560 C1544 1.368 . S
C1560 C1556 1.368 . S
C1560 C1559 1.523 . S
H1561 C1536 0.950 . S
H1562 C1538 0.950 . S
H1563 C1539 0.949 . S
H1564 C1541 0.950 . S
H1565 C1543 0.950 . S
C1566 C1567 1.349 . S
C1566 C1568 1.327 . S
C1566 H1591 0.950 . S
C1567 C1566 1.349 . S
C1567 C1583 1.349 . S
C1568 C1566 1.327 . S
C1568 C1587 1.429 . S
C1568 H1592 0.950 . S
C1569 C1586 1.574 . S
C1569 C1588 1.368 . S
C1569 H1593 0.949 . S
H1570 C1574 0.949 . S
C1571 C1572 1.349 . S
C1571 C1573 1.327 . S
C1571 H1594 0.950 . S
C1572 C1571 1.349 . S
C1572 C1584 1.349 . S
C1573 C1571 1.327 . S
C1573 C1589 1.429 . S
C1573 H1595 0.950 . S
C1574 H1570 0.949 . S
C1574 C1582 1.574 . S
C1574 C1590 1.368 . S
H1575 C1583 0.950 . S
H1576 C1581 0.950 . S
H1577 C1582 0.949 . S
H1578 C1584 0.950 . S
H1579 C1585 0.950 . S
H1580 C1586 0.949 . S
C1581 H1576 0.950 . S
C1581 C1583 1.327 . S
C1581 C1587 1.429 . S
C1582 C1574 1.574 . S
C1582 H1577 0.949 . S
C1582 C1588 1.368 . S
C1583 C1567 1.349 . S
C1583 H1575 0.950 . S
C1583 C1581 1.327 . S
C1584 C1572 1.349 . S
C1584 H1578 0.950 . S
C1584 C1585 1.327 . S
C1585 H1579 0.950 . S
C1585 C1584 1.327 . S
C1585 C1589 1.429 . S
C1586 C1569 1.574 . S
C1586 H1580 0.949 . S
C1586 C1590 1.368 . S
C1587 C1568 1.429 . S
C1587 C1581 1.429 . S
C1587 C1588 1.523 . S
C1588 C1569 1.368 . S
C1588 C1582 1.368 . S
C1588 C1587 1.523 . S
C1589 C1573 1.429 . S
C1589 C1585 1.429 . S
C1589 C1590 1.523 . S
C1590 C1574 1.368 . S
C1590 C1586 1.368 . S
C1590 C1589 1.523 . S
H1591 C1566 0.950 . S
H1592 C1568 0.950 . S
H1593 C1569 0.949 . S
H1594 C1571 0.950 . S
H1595 C1573 0.950 . S
C1596 C1597 1.349 . S
C1596 C1598 1.327 . S
C1596 H1621 0.950 . S
C1597 C1596 1.349 . S
C1597 C1613 1.349 . S
C1598 C1596 1.327 . S
C1598 C1617 1.429 . S
C1598 H1622 0.950 . S
C1599 C1616 1.574 . S
C1599 C1618 1.368 . S
C1599 H1623 0.949 . S
H1600 C1604 0.949 . S
C1601 C1602 1.349 . S
C1601 C1603 1.327 . S
C1601 H1624 0.950 . S
C1602 C1601 1.349 . S
C1602 C1614 1.349 . S
C1603 C1601 1.327 . S
C1603 C1619 1.429 . S
C1603 H1625 0.950 . S
C1604 H1600 0.949 . S
C1604 C1612 1.574 . S
C1604 C1620 1.368 . S
H1605 C1613 0.950 . S
H1606 C1611 0.950 . S
H1607 C1612 0.949 . S
H1608 C1614 0.950 . S
H1609 C1615 0.950 . S
H1610 C1616 0.949 . S
C1611 H1606 0.950 . S
C1611 C1613 1.327 . S
C1611 C1617 1.429 . S
C1612 C1604 1.574 . S
C1612 H1607 0.949 . S
C1612 C1618 1.368 . S
C1613 C1597 1.349 . S
C1613 H1605 0.950 . S
C1613 C1611 1.327 . S
C1614 C1602 1.349 . S
C1614 H1608 0.950 . S
C1614 C1615 1.327 . S
C1615 H1609 0.950 . S
C1615 C1614 1.327 . S
C1615 C1619 1.429 . S
C1616 C1599 1.574 . S
C1616 H1610 0.949 . S
C1616 C1620 1.368 . S
C1617 C1598 1.429 . S
C1617 C1611 1.429 . S
C1617 C1618 1.523 . S
C1618 C1599 1.368 . S
C1618 C1612 1.368 . S
C1618 C1617 1.523 . S
C1619 C1603 1.429 . S
C1619 C1615 1.429 . S
C1619 C1620 1.523 . S
C1620 C1604 1.368 . S
C1620 C1616 1.368 . S
C1620 C1619 1.523 . S
H1621 C1596 0.950 . S
H1622 C1598 0.950 . S
H1623 C1599 0.949 . S
H1624 C1601 0.950 . S
H1625 C1603 0.950 . S
C1626 C1627 1.349 . S
C1626 C1628 1.327 . S
C1626 H1651 0.950 . S
C1627 C1626 1.349 . S
C1627 C1643 1.349 . S
C1628 C1626 1.327 . S
C1628 C1647 1.429 . S
C1628 H1652 0.950 . S
C1629 C1646 1.574 . S
C1629 C1648 1.368 . S
C1629 H1653 0.949 . S
H1630 C1634 0.949 . S
C1631 C1632 1.349 . S
C1631 C1633 1.327 . S
C1631 H1654 0.950 . S
C1632 C1631 1.349 . S
C1632 C1644 1.349 . S
C1633 C1631 1.327 . S
C1633 C1649 1.429 . S
C1633 H1655 0.950 . S
C1634 H1630 0.949 . S
C1634 C1642 1.574 . S
C1634 C1650 1.368 . S
H1635 C1643 0.950 . S
H1636 C1641 0.950 . S
H1637 C1642 0.949 . S
H1638 C1644 0.950 . S
H1639 C1645 0.950 . S
H1640 C1646 0.949 . S
C1641 H1636 0.950 . S
C1641 C1643 1.327 . S
C1641 C1647 1.429 . S
C1642 C1634 1.574 . S
C1642 H1637 0.949 . S
C1642 C1648 1.368 . S
C1643 C1627 1.349 . S
C1643 H1635 0.950 . S
C1643 C1641 1.327 . S
C1644 C1632 1.349 . S
C1644 H1638 0.950 . S
C1644 C1645 1.327 . S
C1645 H1639 0.950 . S
C1645 C1644 1.327 . S
C1645 C1649 1.429 . S
C1646 C1629 1.574 . S
C1646 H1640 0.949 . S
C1646 C1650 1.368 . S
C1647 C1628 1.429 . S
C1647 C1641 1.429 . S
C1647 C1648 1.523 . S
C1648 C1629 1.368 . S
C1648 C1642 1.368 . S
C1648 C1647 1.523 . S
C1649 C1633 1.429 . S
C1649 C1645 1.429 . S
C1649 C1650 1.523 . S
C1650 C1634 1.368 . S
C1650 C1646 1.368 . S
C1650 C1649 1.523 . S
H1651 C1626 0.950 . S
H1652 C1628 0.950 . S
H1653 C1629 0.949 . S
H1654 C1631 0.950 . S
H1655 C1633 0.950 . S
C1656 C1657 1.349 . S
C1656 C1658 1.327 . S
C1656 H1681 0.950 . S
C1657 C1656 1.349 . S
C1657 C1673 1.349 . S
C1658 C1656 1.327 . S
C1658 C1677 1.429 . S
C1658 H1682 0.950 . S
C1659 C1676 1.574 . S
C1659 C1678 1.368 . S
C1659 H1683 0.949 . S
H1660 C1664 0.949 . S
C1661 C1662 1.349 . S
C1661 C1663 1.327 . S
C1661 H1684 0.950 . S
C1662 C1661 1.349 . S
C1662 C1674 1.349 . S
C1663 C1661 1.327 . S
C1663 C1679 1.429 . S
C1663 H1685 0.950 . S
C1664 H1660 0.949 . S
C1664 C1672 1.574 . S
C1664 C1680 1.368 . S
H1665 C1673 0.950 . S
H1666 C1671 0.950 . S
H1667 C1672 0.949 . S
H1668 C1674 0.950 . S
H1669 C1675 0.950 . S
H1670 C1676 0.949 . S
C1671 H1666 0.950 . S
C1671 C1673 1.327 . S
C1671 C1677 1.429 . S
C1672 C1664 1.574 . S
C1672 H1667 0.949 . S
C1672 C1678 1.368 . S
C1673 C1657 1.349 . S
C1673 H1665 0.950 . S
C1673 C1671 1.327 . S
C1674 C1662 1.349 . S
C1674 H1668 0.950 . S
C1674 C1675 1.327 . S
C1675 H1669 0.950 . S
C1675 C1674 1.327 . S
C1675 C1679 1.429 . S
C1676 C1659 1.574 . S
C1676 H1670 0.949 . S
C1676 C1680 1.368 . S
C1677 C1658 1.429 . S
C1677 C1671 1.429 . S
C1677 C1678 1.523 . S
C1678 C1659 1.368 . S
C1678 C1672 1.368 . S
C1678 C1677 1.523 . S
C1679 C1663 1.429 . S
C1679 C1675 1.429 . S
C1679 C1680 1.523 . S
C1680 C1664 1.368 . S
C1680 C1676 1.368 . S
C1680 C1679 1.523 . S
H1681 C1656 0.950 . S
H1682 C1658 0.950 . S
H1683 C1659 0.949 . S
H1684 C1661 0.950 . S
H1685 C1663 0.950 . S
C1686 C1687 1.349 . S
C1686 C1688 1.327 . S
C1686 H1711 0.950 . S
C1687 C1686 1.349 . S
C1687 C1703 1.349 . S
C1688 C1686 1.327 . S
C1688 C1707 1.429 . S
C1688 H1712 0.950 . S
C1689 C1706 1.574 . S
C1689 C1708 1.368 . S
C1689 H1713 0.949 . S
H1690 C1694 0.949 . S
C1691 C1692 1.349 . S
C1691 C1693 1.327 . S
C1691 H1714 0.950 . S
C1692 C1691 1.349 . S
C1692 C1704 1.349 . S
C1693 C1691 1.327 . S
C1693 C1709 1.429 . S
C1693 H1715 0.950 . S
C1694 H1690 0.949 . S
C1694 C1702 1.574 . S
C1694 C1710 1.368 . S
H1695 C1703 0.950 . S
H1696 C1701 0.950 . S
H1697 C1702 0.949 . S
H1698 C1704 0.950 . S
H1699 C1705 0.950 . S
H1700 C1706 0.949 . S
C1701 H1696 0.950 . S
C1701 C1703 1.327 . S
C1701 C1707 1.429 . S
C1702 C1694 1.574 . S
C1702 H1697 0.949 . S
C1702 C1708 1.368 . S
C1703 C1687 1.349 . S
C1703 H1695 0.950 . S
C1703 C1701 1.327 . S
C1704 C1692 1.349 . S
C1704 H1698 0.950 . S
C1704 C1705 1.327 . S
C1705 H1699 0.950 . S
C1705 C1704 1.327 . S
C1705 C1709 1.429 . S
C1706 C1689 1.574 . S
C1706 H1700 0.949 . S
C1706 C1710 1.368 . S
C1707 C1688 1.429 . S
C1707 C1701 1.429 . S
C1707 C1708 1.523 . S
C1708 C1689 1.368 . S
C1708 C1702 1.368 . S
C1708 C1707 1.523 . S
C1709 C1693 1.429 . S
C1709 C1705 1.429 . S
C1709 C1710 1.523 . S
C1710 C1694 1.368 . S
C1710 C1706 1.368 . S
C1710 C1709 1.523 . S
H1711 C1686 0.950 . S
H1712 C1688 0.950 . S
H1713 C1689 0.949 . S
H1714 C1691 0.950 . S
H1715 C1693 0.950 . S
C1716 C1717 1.349 . S
C1716 C1718 1.327 . S
C1716 H1741 0.950 . S
C1717 C1716 1.349 . S
C1717 C1733 1.349 . S
C1718 C1716 1.327 . S
C1718 C1737 1.429 . S
C1718 H1742 0.950 . S
C1719 C1736 1.574 . S
C1719 C1738 1.368 . S
C1719 H1743 0.949 . S
H1720 C1724 0.949 . S
C1721 C1722 1.349 . S
C1721 C1723 1.327 . S
C1721 H1744 0.950 . S
C1722 C1721 1.349 . S
C1722 C1734 1.349 . S
C1723 C1721 1.327 . S
C1723 C1739 1.429 . S
C1723 H1745 0.950 . S
C1724 H1720 0.949 . S
C1724 C1732 1.574 . S
C1724 C1740 1.368 . S
H1725 C1733 0.950 . S
H1726 C1731 0.950 . S
H1727 C1732 0.949 . S
H1728 C1734 0.950 . S
H1729 C1735 0.950 . S
H1730 C1736 0.949 . S
C1731 H1726 0.950 . S
C1731 C1733 1.327 . S
C1731 C1737 1.429 . S
C1732 C1724 1.574 . S
C1732 H1727 0.949 . S
C1732 C1738 1.368 . S
C1733 C1717 1.349 . S
C1733 H1725 0.950 . S
C1733 C1731 1.327 . S
C1734 C1722 1.349 . S
C1734 H1728 0.950 . S
C1734 C1735 1.327 . S
C1735 H1729 0.950 . S
C1735 C1734 1.327 . S
C1735 C1739 1.429 . S
C1736 C1719 1.574 . S
C1736 H1730 0.949 . S
C1736 C1740 1.368 . S
C1737 C1718 1.429 . S
C1737 C1731 1.429 . S
C1737 C1738 1.523 . S
C1738 C1719 1.368 . S
C1738 C1732 1.368 . S
C1738 C1737 1.523 . S
C1739 C1723 1.429 . S
C1739 C1735 1.429 . S
C1739 C1740 1.523 . S
C1740 C1724 1.368 . S
C1740 C1736 1.368 . S
C1740 C1739 1.523 . S
H1741 C1716 0.950 . S
H1742 C1718 0.950 . S
H1743 C1719 0.949 . S
H1744 C1721 0.950 . S
H1745 C1723 0.950 . S
C1746 C1747 1.349 . S
C1746 C1748 1.327 . S
C1746 H1771 0.950 . S
C1747 C1746 1.349 . S
C1747 C1763 1.349 . S
C1748 C1746 1.327 . S
C1748 C1767 1.429 . S
C1748 H1772 0.950 . S
C1749 C1766 1.574 . S
C1749 C1768 1.368 . S
C1749 H1773 0.949 . S
H1750 C1754 0.949 . S
C1751 C1752 1.349 . S
C1751 C1753 1.327 . S
C1751 H1774 0.950 . S
C1752 C1751 1.349 . S
C1752 C1764 1.349 . S
C1753 C1751 1.327 . S
C1753 C1769 1.429 . S
C1753 H1775 0.950 . S
C1754 H1750 0.949 . S
C1754 C1762 1.574 . S
C1754 C1770 1.368 . S
H1755 C1763 0.950 . S
H1756 C1761 0.950 . S
H1757 C1762 0.949 . S
H1758 C1764 0.950 . S
H1759 C1765 0.950 . S
H1760 C1766 0.949 . S
C1761 H1756 0.950 . S
C1761 C1763 1.327 . S
C1761 C1767 1.429 . S
C1762 C1754 1.574 . S
C1762 H1757 0.949 . S
C1762 C1768 1.368 . S
C1763 C1747 1.349 . S
C1763 H1755 0.950 . S
C1763 C1761 1.327 . S
C1764 C1752 1.349 . S
C1764 H1758 0.950 . S
C1764 C1765 1.327 . S
C1765 H1759 0.950 . S
C1765 C1764 1.327 . S
C1765 C1769 1.429 . S
C1766 C1749 1.574 . S
C1766 H1760 0.949 . S
C1766 C1770 1.368 . S
C1767 C1748 1.429 . S
C1767 C1761 1.429 . S
C1767 C1768 1.523 . S
C1768 C1749 1.368 . S
C1768 C1762 1.368 . S
C1768 C1767 1.523 . S
C1769 C1753 1.429 . S
C1769 C1765 1.429 . S
C1769 C1770 1.523 . S
C1770 C1754 1.368 . S
C1770 C1766 1.368 . S
C1770 C1769 1.523 . S
H1771 C1746 0.950 . S
H1772 C1748 0.950 . S
H1773 C1749 0.949 . S
H1774 C1751 0.950 . S
H1775 C1753 0.950 . S
C1776 C1777 1.349 . S
C1776 C1778 1.327 . S
C1776 H1801 0.950 . S
C1777 C1776 1.349 . S
C1777 C1793 1.349 . S
C1778 C1776 1.327 . S
C1778 C1797 1.429 . S
C1778 H1802 0.950 . S
C1779 C1796 1.574 . S
C1779 C1798 1.368 . S
C1779 H1803 0.949 . S
H1780 C1784 0.949 . S
C1781 C1782 1.349 . S
C1781 C1783 1.327 . S
C1781 H1804 0.950 . S
C1782 C1781 1.349 . S
C1782 C1794 1.349 . S
C1783 C1781 1.327 . S
C1783 C1799 1.429 . S
C1783 H1805 0.950 . S
C1784 H1780 0.949 . S
C1784 C1792 1.574 . S
C1784 C1800 1.368 . S
H1785 C1793 0.950 . S
H1786 C1791 0.950 . S
H1787 C1792 0.949 . S
H1788 C1794 0.950 . S
H1789 C1795 0.950 . S
H1790 C1796 0.949 . S
C1791 H1786 0.950 . S
C1791 C1793 1.327 . S
C1791 C1797 1.429 . S
C1792 C1784 1.574 . S
C1792 H1787 0.949 . S
C1792 C1798 1.368 . S
C1793 C1777 1.349 . S
C1793 H1785 0.950 . S
C1793 C1791 1.327 . S
C1794 C1782 1.349 . S
C1794 H1788 0.950 . S
C1794 C1795 1.327 . S
C1795 H1789 0.950 . S
C1795 C1794 1.327 . S
C1795 C1799 1.429 . S
C1796 C1779 1.574 . S
C1796 H1790 0.949 . S
C1796 C1800 1.368 . S
C1797 C1778 1.429 . S
C1797 C1791 1.429 . S
C1797 C1798 1.523 . S
C1798 C1779 1.368 . S
C1798 C1792 1.368 . S
C1798 C1797 1.523 . S
C1799 C1783 1.429 . S
C1799 C1795 1.429 . S
C1799 C1800 1.523 . S
C1800 C1784 1.368 . S
C1800 C1796 1.368 . S
C1800 C1799 1.523 . S
H1801 C1776 0.950 . S
H1802 C1778 0.950 . S
H1803 C1779 0.949 . S
H1804 C1781 0.950 . S
H1805 C1783 0.950 . S
C1806 C1807 1.349 . S
C1806 C1808 1.327 . S
C1806 H1831 0.950 . S
C1807 C1806 1.349 . S
C1807 C1823 1.349 . S
C1808 C1806 1.327 . S
C1808 C1827 1.429 . S
C1808 H1832 0.950 . S
C1809 C1826 1.574 . S
C1809 C1828 1.368 . S
C1809 H1833 0.949 . S
H1810 C1814 0.949 . S
C1811 C1812 1.349 . S
C1811 C1813 1.327 . S
C1811 H1834 0.950 . S
C1812 C1811 1.349 . S
C1812 C1824 1.349 . S
C1813 C1811 1.327 . S
C1813 C1829 1.429 . S
C1813 H1835 0.950 . S
C1814 H1810 0.949 . S
C1814 C1822 1.574 . S
C1814 C1830 1.368 . S
H1815 C1823 0.950 . S
H1816 C1821 0.950 . S
H1817 C1822 0.949 . S
H1818 C1824 0.950 . S
H1819 C1825 0.950 . S
H1820 C1826 0.949 . S
C1821 H1816 0.950 . S
C1821 C1823 1.327 . S
C1821 C1827 1.429 . S
C1822 C1814 1.574 . S
C1822 H1817 0.949 . S
C1822 C1828 1.368 . S
C1823 C1807 1.349 . S
C1823 H1815 0.950 . S
C1823 C1821 1.327 . S
C1824 C1812 1.349 . S
C1824 H1818 0.950 . S
C1824 C1825 1.327 . S
C1825 H1819 0.950 . S
C1825 C1824 1.327 . S
C1825 C1829 1.429 . S
C1826 C1809 1.574 . S
C1826 H1820 0.949 . S
C1826 C1830 1.368 . S
C1827 C1808 1.429 . S
C1827 C1821 1.429 . S
C1827 C1828 1.523 . S
C1828 C1809 1.368 . S
C1828 C1822 1.368 . S
C1828 C1827 1.523 . S
C1829 C1813 1.429 . S
C1829 C1825 1.429 . S
C1829 C1830 1.523 . S
C1830 C1814 1.368 . S
C1830 C1826 1.368 . S
C1830 C1829 1.523 . S
H1831 C1806 0.950 . S
H1832 C1808 0.950 . S
H1833 C1809 0.949 . S
H1834 C1811 0.950 . S
H1835 C1813 0.950 . S
C1836 C1837 1.349 . S
C1836 C1838 1.327 . S
C1836 H1861 0.950 . S
C1837 C1836 1.349 . S
C1837 C1853 1.349 . S
C1838 C1836 1.327 . S
C1838 C1857 1.429 . S
C1838 H1862 0.950 . S
C1839 C1856 1.574 . S
C1839 C1858 1.368 . S
C1839 H1863 0.949 . S
H1840 C1844 0.949 . S
C1841 C1842 1.349 . S
C1841 C1843 1.327 . S
C1841 H1864 0.950 . S
C1842 C1841 1.349 . S
C1842 C1854 1.349 . S
C1843 C1841 1.327 . S
C1843 C1859 1.429 . S
C1843 H1865 0.950 . S
C1844 H1840 0.949 . S
C1844 C1852 1.574 . S
C1844 C1860 1.368 . S
H1845 C1853 0.950 . S
H1846 C1851 0.950 . S
H1847 C1852 0.949 . S
H1848 C1854 0.950 . S
H1849 C1855 0.950 . S
H1850 C1856 0.949 . S
C1851 H1846 0.950 . S
C1851 C1853 1.327 . S
C1851 C1857 1.429 . S
C1852 C1844 1.574 . S
C1852 H1847 0.949 . S
C1852 C1858 1.368 . S
C1853 C1837 1.349 . S
C1853 H1845 0.950 . S
C1853 C1851 1.327 . S
C1854 C1842 1.349 . S
C1854 H1848 0.950 . S
C1854 C1855 1.327 . S
C1855 H1849 0.950 . S
C1855 C1854 1.327 . S
C1855 C1859 1.429 . S
C1856 C1839 1.574 . S
C1856 H1850 0.949 . S
C1856 C1860 1.368 . S
C1857 C1838 1.429 . S
C1857 C1851 1.429 . S
C1857 C1858 1.523 . S
C1858 C1839 1.368 . S
C1858 C1852 1.368 . S
C1858 C1857 1.523 . S
C1859 C1843 1.429 . S
C1859 C1855 1.429 . S
C1859 C1860 1.523 . S
C1860 C1844 1.368 . S
C1860 C1856 1.368 . S
C1860 C1859 1.523 . S
H1861 C1836 0.950 . S
H1862 C1838 0.950 . S
H1863 C1839 0.949 . S
H1864 C1841 0.950 . S
H1865 C1843 0.950 . S
C1866 C1867 1.349 . S
C1866 C1868 1.327 . S
C1866 H1891 0.950 . S
C1867 C1866 1.349 . S
C1867 C1883 1.349 . S
C1868 C1866 1.327 . S
C1868 C1887 1.429 . S
C1868 H1892 0.950 . S
C1869 C1886 1.574 . S
C1869 C1888 1.368 . S
C1869 H1893 0.949 . S
H1870 C1874 0.949 . S
C1871 C1872 1.349 . S
C1871 C1873 1.327 . S
C1871 H1894 0.950 . S
C1872 C1871 1.349 . S
C1872 C1884 1.349 . S
C1873 C1871 1.327 . S
C1873 C1889 1.429 . S
C1873 H1895 0.950 . S
C1874 H1870 0.949 . S
C1874 C1882 1.574 . S
C1874 C1890 1.368 . S
H1875 C1883 0.950 . S
H1876 C1881 0.950 . S
H1877 C1882 0.949 . S
H1878 C1884 0.950 . S
H1879 C1885 0.950 . S
H1880 C1886 0.949 . S
C1881 H1876 0.950 . S
C1881 C1883 1.327 . S
C1881 C1887 1.429 . S
C1882 C1874 1.574 . S
C1882 H1877 0.949 . S
C1882 C1888 1.368 . S
C1883 C1867 1.349 . S
C1883 H1875 0.950 . S
C1883 C1881 1.327 . S
C1884 C1872 1.349 . S
C1884 H1878 0.950 . S
C1884 C1885 1.327 . S
C1885 H1879 0.950 . S
C1885 C1884 1.327 . S
C1885 C1889 1.429 . S
C1886 C1869 1.574 . S
C1886 H1880 0.949 . S
C1886 C1890 1.368 . S
C1887 C1868 1.429 . S
C1887 C1881 1.429 . S
C1887 C1888 1.523 . S
C1888 C1869 1.368 . S
C1888 C1882 1.368 . S
C1888 C1887 1.523 . S
C1889 C1873 1.429 . S
C1889 C1885 1.429 . S
C1889 C1890 1.523 . S
C1890 C1874 1.368 . S
C1890 C1886 1.368 . S
C1890 C1889 1.523 . S
H1891 C1866 0.950 . S
H1892 C1868 0.950 . S
H1893 C1869 0.949 . S
H1894 C1871 0.950 . S
H1895 C1873 0.950 . S
C1896 C1897 1.349 . S
C1896 C1898 1.327 . S
C1896 H1921 0.950 . S
C1897 C1896 1.349 . S
C1897 C1913 1.349 . S
C1898 C1896 1.327 . S
C1898 C1917 1.429 . S
C1898 H1922 0.950 . S
C1899 C1916 1.574 . S
C1899 C1918 1.368 . S
C1899 H1923 0.949 . S
H1900 C1904 0.949 . S
C1901 C1902 1.349 . S
C1901 C1903 1.327 . S
C1901 H1924 0.950 . S
C1902 C1901 1.349 . S
C1902 C1914 1.349 . S
C1903 C1901 1.327 . S
C1903 C1919 1.429 . S
C1903 H1925 0.950 . S
C1904 H1900 0.949 . S
C1904 C1912 1.574 . S
C1904 C1920 1.368 . S
H1905 C1913 0.950 . S
H1906 C1911 0.950 . S
H1907 C1912 0.949 . S
H1908 C1914 0.950 . S
H1909 C1915 0.950 . S
H1910 C1916 0.949 . S
C1911 H1906 0.950 . S
C1911 C1913 1.327 . S
C1911 C1917 1.429 . S
C1912 C1904 1.574 . S
C1912 H1907 0.949 . S
C1912 C1918 1.368 . S
C1913 C1897 1.349 . S
C1913 H1905 0.950 . S
C1913 C1911 1.327 . S
C1914 C1902 1.349 . S
C1914 H1908 0.950 . S
C1914 C1915 1.327 . S
C1915 H1909 0.950 . S
C1915 C1914 1.327 . S
C1915 C1919 1.429 . S
C1916 C1899 1.574 . S
C1916 H1910 0.949 . S
C1916 C1920 1.368 . S
C1917 C1898 1.429 . S
C1917 C1911 1.429 . S
C1917 C1918 1.523 . S
C1918 C1899 1.368 . S
C1918 C1912 1.368 . S
C1918 C1917 1.523 . S
C1919 C1903 1.429 . S
C1919 C1915 1.429 . S
C1919 C1920 1.523 . S
C1920 C1904 1.368 . S
C1920 C1916 1.368 . S
C1920 C1919 1.523 . S
H1921 C1896 0.950 . S
H1922 C1898 0.950 . S
H1923 C1899 0.949 . S
H1924 C1901 0.950 . S
H1925 C1903 0.950 . S
C1926 C1927 1.349 . S
C1926 C1928 1.327 . S
C1926 H1951 0.950 . S
C1927 C1926 1.349 . S
C1927 C1943 1.349 . S
C1928 C1926 1.327 . S
C1928 C1947 1.429 . S
C1928 H1952 0.950 . S
C1929 C1946 1.574 . S
C1929 C1948 1.368 . S
C1929 H1953 0.949 . S
H1930 C1934 0.949 . S
C1931 C1932 1.349 . S
C1931 C1933 1.327 . S
C1931 H1954 0.950 . S
C1932 C1931 1.349 . S
C1932 C1944 1.349 . S
C1933 C1931 1.327 . S
C1933 C1949 1.429 . S
C1933 H1955 0.950 . S
C1934 H1930 0.949 . S
C1934 C1942 1.574 . S
C1934 C1950 1.368 . S
H1935 C1943 0.950 . S
H1936 C1941 0.950 . S
H1937 C1942 0.949 . S
H1938 C1944 0.950 . S
H1939 C1945 0.950 . S
H1940 C1946 0.949 . S
C1941 H1936 0.950 . S
C1941 C1943 1.327 . S
C1941 C1947 1.429 . S
C1942 C1934 1.574 . S
C1942 H1937 0.949 . S
C1942 C1948 1.368 . S
C1943 C1927 1.349 . S
C1943 H1935 0.950 . S
C1943 C1941 1.327 . S
C1944 C1932 1.349 . S
C1944 H1938 0.950 . S
C1944 C1945 1.327 . S
C1945 H1939 0.950 . S
C1945 C1944 1.327 . S
C1945 C1949 1.429 . S
C1946 C1929 1.574 . S
C1946 H1940 0.949 . S
C1946 C1950 1.368 . S
C1947 C1928 1.429 . S
C1947 C1941 1.429 . S
C1947 C1948 1.523 . S
C1948 C1929 1.368 . S
C1948 C1942 1.368 . S
C1948 C1947 1.523 . S
C1949 C1933 1.429 . S
C1949 C1945 1.429 . S
C1949 C1950 1.523 . S
C1950 C1934 1.368 . S
C1950 C1946 1.368 . S
C1950 C1949 1.523 . S
H1951 C1926 0.950 . S
H1952 C1928 0.950 . S
H1953 C1929 0.949 . S
H1954 C1931 0.950 . S
H1955 C1933 0.950 . S
C1956 C1957 1.349 . S
C1956 C1958 1.327 . S
C1956 H1981 0.950 . S
C1957 C1956 1.349 . S
C1957 C1973 1.349 . S
C1958 C1956 1.327 . S
C1958 C1977 1.429 . S
C1958 H1982 0.950 . S
C1959 C1976 1.574 . S
C1959 C1978 1.368 . S
C1959 H1983 0.949 . S
H1960 C1964 0.949 . S
C1961 C1962 1.349 . S
C1961 C1963 1.327 . S
C1961 H1984 0.950 . S
C1962 C1961 1.349 . S
C1962 C1974 1.349 . S
C1963 C1961 1.327 . S
C1963 C1979 1.429 . S
C1963 H1985 0.950 . S
C1964 H1960 0.949 . S
C1964 C1972 1.574 . S
C1964 C1980 1.368 . S
H1965 C1973 0.950 . S
H1966 C1971 0.950 . S
H1967 C1972 0.949 . S
H1968 C1974 0.950 . S
H1969 C1975 0.950 . S
H1970 C1976 0.949 . S
C1971 H1966 0.950 . S
C1971 C1973 1.327 . S
C1971 C1977 1.429 . S
C1972 C1964 1.574 . S
C1972 H1967 0.949 . S
C1972 C1978 1.368 . S
C1973 C1957 1.349 . S
C1973 H1965 0.950 . S
C1973 C1971 1.327 . S
C1974 C1962 1.349 . S
C1974 H1968 0.950 . S
C1974 C1975 1.327 . S
C1975 H1969 0.950 . S
C1975 C1974 1.327 . S
C1975 C1979 1.429 . S
C1976 C1959 1.574 . S
C1976 H1970 0.949 . S
C1976 C1980 1.368 . S
C1977 C1958 1.429 . S
C1977 C1971 1.429 . S
C1977 C1978 1.523 . S
C1978 C1959 1.368 . S
C1978 C1972 1.368 . S
C1978 C1977 1.523 . S
C1979 C1963 1.429 . S
C1979 C1975 1.429 . S
C1979 C1980 1.523 . S
C1980 C1964 1.368 . S
C1980 C1976 1.368 . S
C1980 C1979 1.523 . S
H1981 C1956 0.950 . S
H1982 C1958 0.950 . S
H1983 C1959 0.949 . S
H1984 C1961 0.950 . S
H1985 C1963 0.950 . S
C1986 C1987 1.349 . S
C1986 C1988 1.327 . S
C1986 H2011 0.950 . S
C1987 C1986 1.349 . S
C1987 C2003 1.349 . S
C1988 C1986 1.327 . S
C1988 C2007 1.429 . S
C1988 H2012 0.950 . S
C1989 C2006 1.574 . S
C1989 C2008 1.368 . S
C1989 H2013 0.949 . S
H1990 C1994 0.949 . S
C1991 C1992 1.349 . S
C1991 C1993 1.327 . S
C1991 H2014 0.950 . S
C1992 C1991 1.349 . S
C1992 C2004 1.349 . S
C1993 C1991 1.327 . S
C1993 C2009 1.429 . S
C1993 H2015 0.950 . S
C1994 H1990 0.949 . S
C1994 C2002 1.574 . S
C1994 C2010 1.368 . S
H1995 C2003 0.950 . S
H1996 C2001 0.950 . S
H1997 C2002 0.949 . S
H1998 C2004 0.950 . S
H1999 C2005 0.950 . S
H2000 C2006 0.949 . S
C2001 H1996 0.950 . S
C2001 C2003 1.327 . S
C2001 C2007 1.429 . S
C2002 C1994 1.574 . S
C2002 H1997 0.949 . S
C2002 C2008 1.368 . S
C2003 C1987 1.349 . S
C2003 H1995 0.950 . S
C2003 C2001 1.327 . S
C2004 C1992 1.349 . S
C2004 H1998 0.950 . S
C2004 C2005 1.327 . S
C2005 H1999 0.950 . S
C2005 C2004 1.327 . S
C2005 C2009 1.429 . S
C2006 C1989 1.574 . S
C2006 H2000 0.949 . S
C2006 C2010 1.368 . S
C2007 C1988 1.429 . S
C2007 C2001 1.429 . S
C2007 C2008 1.523 . S
C2008 C1989 1.368 . S
C2008 C2002 1.368 . S
C2008 C2007 1.523 . S
C2009 C1993 1.429 . S
C2009 C2005 1.429 . S
C2009 C2010 1.523 . S
C2010 C1994 1.368 . S
C2010 C2006 1.368 . S
C2010 C2009 1.523 . S
H2011 C1986 0.950 . S
H2012 C1988 0.950 . S
H2013 C1989 0.949 . S
H2014 C1991 0.950 . S
H2015 C1993 0.950 . S
C2016 C2017 1.349 . S
C2016 C2018 1.327 . S
C2016 H2041 0.950 . S
C2017 C2016 1.349 . S
C2017 C2033 1.349 . S
C2018 C2016 1.327 . S
C2018 C2037 1.429 . S
C2018 H2042 0.950 . S
C2019 C2036 1.574 . S
C2019 C2038 1.368 . S
C2019 H2043 0.949 . S
H2020 C2024 0.949 . S
C2021 C2022 1.349 . S
C2021 C2023 1.327 . S
C2021 H2044 0.950 . S
C2022 C2021 1.349 . S
C2022 C2034 1.349 . S
C2023 C2021 1.327 . S
C2023 C2039 1.429 . S
C2023 H2045 0.950 . S
C2024 H2020 0.949 . S
C2024 C2032 1.574 . S
C2024 C2040 1.368 . S
H2025 C2033 0.950 . S
H2026 C2031 0.950 . S
H2027 C2032 0.949 . S
H2028 C2034 0.950 . S
H2029 C2035 0.950 . S
H2030 C2036 0.949 . S
C2031 H2026 0.950 . S
C2031 C2033 1.327 . S
C2031 C2037 1.429 . S
C2032 C2024 1.574 . S
C2032 H2027 0.949 . S
C2032 C2038 1.368 . S
C2033 C2017 1.349 . S
C2033 H2025 0.950 . S
C2033 C2031 1.327 . S
C2034 C2022 1.349 . S
C2034 H2028 0.950 . S
C2034 C2035 1.327 . S
C2035 H2029 0.950 . S
C2035 C2034 1.327 . S
C2035 C2039 1.429 . S
C2036 C2019 1.574 . S
C2036 H2030 0.949 . S
C2036 C2040 1.368 . S
C2037 C2018 1.429 . S
C2037 C2031 1.429 . S
C2037 C2038 1.523 . S
C2038 C2019 1.368 . S
C2038 C2032 1.368 . S
C2038 C2037 1.523 . S
C2039 C2023 1.429 . S
C2039 C2035 1.429 . S
C2039 C2040 1.523 . S
C2040 C2024 1.368 . S
C2040 C2036 1.368 . S
C2040 C2039 1.523 . S
H2041 C2016 0.950 . S
H2042 C2018 0.950 . S
H2043 C2019 0.949 . S
H2044 C2021 0.950 . S
H2045 C2023 0.950 . S
C2046 C2047 1.349 . S
C2046 C2048 1.327 . S
C2046 H2071 0.950 . S
C2047 C2046 1.349 . S
C2047 C2063 1.349 . S
C2048 C2046 1.327 . S
C2048 C2067 1.429 . S
C2048 H2072 0.950 . S
C2049 C2066 1.574 . S
C2049 C2068 1.368 . S
C2049 H2073 0.949 . S
H2050 C2054 0.949 . S
C2051 C2052 1.349 . S
C2051 C2053 1.327 . S
C2051 H2074 0.950 . S
C2052 C2051 1.349 . S
C2052 C2064 1.349 . S
C2053 C2051 1.327 . S
C2053 C2069 1.429 . S
C2053 H2075 0.950 . S
C2054 H2050 0.949 . S
C2054 C2062 1.574 . S
C2054 C2070 1.368 . S
H2055 C2063 0.950 . S
H2056 C2061 0.950 . S
H2057 C2062 0.949 . S
H2058 C2064 0.950 . S
H2059 C2065 0.950 . S
H2060 C2066 0.949 . S
C2061 H2056 0.950 . S
C2061 C2063 1.327 . S
C2061 C2067 1.429 . S
C2062 C2054 1.574 . S
C2062 H2057 0.949 . S
C2062 C2068 1.368 . S
C2063 C2047 1.349 . S
C2063 H2055 0.950 . S
C2063 C2061 1.327 . S
C2064 C2052 1.349 . S
C2064 H2058 0.950 . S
C2064 C2065 1.327 . S
C2065 H2059 0.950 . S
C2065 C2064 1.327 . S
C2065 C2069 1.429 . S
C2066 C2049 1.574 . S
C2066 H2060 0.949 . S
C2066 C2070 1.368 . S
C2067 C2048 1.429 . S
C2067 C2061 1.429 . S
C2067 C2068 1.523 . S
C2068 C2049 1.368 . S
C2068 C2062 1.368 . S
C2068 C2067 1.523 . S
C2069 C2053 1.429 . S
C2069 C2065 1.429 . S
C2069 C2070 1.523 . S
C2070 C2054 1.368 . S
C2070 C2066 1.368 . S
C2070 C2069 1.523 . S
H2071 C2046 0.950 . S
H2072 C2048 0.950 . S
H2073 C2049 0.949 . S
H2074 C2051 0.950 . S
H2075 C2053 0.950 . S
C2076 C2077 1.349 . S
C2076 C2078 1.327 . S
C2076 H2101 0.950 . S
C2077 C2076 1.349 . S
C2077 C2093 1.349 . S
C2078 C2076 1.327 . S
C2078 C2097 1.429 . S
C2078 H2102 0.950 . S
C2079 C2096 1.574 . S
C2079 C2098 1.368 . S
C2079 H2103 0.949 . S
H2080 C2084 0.949 . S
C2081 C2082 1.349 . S
C2081 C2083 1.327 . S
C2081 H2104 0.950 . S
C2082 C2081 1.349 . S
C2082 C2094 1.349 . S
C2083 C2081 1.327 . S
C2083 C2099 1.429 . S
C2083 H2105 0.950 . S
C2084 H2080 0.949 . S
C2084 C2092 1.574 . S
C2084 C2100 1.368 . S
H2085 C2093 0.950 . S
H2086 C2091 0.950 . S
H2087 C2092 0.949 . S
H2088 C2094 0.950 . S
H2089 C2095 0.950 . S
H2090 C2096 0.949 . S
C2091 H2086 0.950 . S
C2091 C2093 1.327 . S
C2091 C2097 1.429 . S
C2092 C2084 1.574 . S
C2092 H2087 0.949 . S
C2092 C2098 1.368 . S
C2093 C2077 1.349 . S
C2093 H2085 0.950 . S
C2093 C2091 1.327 . S
C2094 C2082 1.349 . S
C2094 H2088 0.950 . S
C2094 C2095 1.327 . S
C2095 H2089 0.950 . S
C2095 C2094 1.327 . S
C2095 C2099 1.429 . S
C2096 C2079 1.574 . S
C2096 H2090 0.949 . S
C2096 C2100 1.368 . S
C2097 C2078 1.429 . S
C2097 C2091 1.429 . S
C2097 C2098 1.523 . S
C2098 C2079 1.368 . S
C2098 C2092 1.368 . S
C2098 C2097 1.523 . S
C2099 C2083 1.429 . S
C2099 C2095 1.429 . S
C2099 C2100 1.523 . S
C2100 C2084 1.368 . S
C2100 C2096 1.368 . S
C2100 C2099 1.523 . S
H2101 C2076 0.950 . S
H2102 C2078 0.950 . S
H2103 C2079 0.949 . S
H2104 C2081 0.950 . S
H2105 C2083 0.950 . S
C2106 C2107 1.349 . S
C2106 C2108 1.327 . S
C2106 H2131 0.950 . S
C2107 C2106 1.349 . S
C2107 C2123 1.349 . S
C2108 C2106 1.327 . S
C2108 C2127 1.429 . S
C2108 H2132 0.950 . S
C2109 C2126 1.574 . S
C2109 C2128 1.368 . S
C2109 H2133 0.949 . S
H2110 C2114 0.949 . S
C2111 C2112 1.349 . S
C2111 C2113 1.327 . S
C2111 H2134 0.950 . S
C2112 C2111 1.349 . S
C2112 C2124 1.349 . S
C2113 C2111 1.327 . S
C2113 C2129 1.429 . S
C2113 H2135 0.950 . S
C2114 H2110 0.949 . S
C2114 C2122 1.574 . S
C2114 C2130 1.368 . S
H2115 C2123 0.950 . S
H2116 C2121 0.950 . S
H2117 C2122 0.949 . S
H2118 C2124 0.950 . S
H2119 C2125 0.950 . S
H2120 C2126 0.949 . S
C2121 H2116 0.950 . S
C2121 C2123 1.327 . S
C2121 C2127 1.429 . S
C2122 C2114 1.574 . S
C2122 H2117 0.949 . S
C2122 C2128 1.368 . S
C2123 C2107 1.349 . S
C2123 H2115 0.950 . S
C2123 C2121 1.327 . S
C2124 C2112 1.349 . S
C2124 H2118 0.950 . S
C2124 C2125 1.327 . S
C2125 H2119 0.950 . S
C2125 C2124 1.327 . S
C2125 C2129 1.429 . S
C2126 C2109 1.574 . S
C2126 H2120 0.949 . S
C2126 C2130 1.368 . S
C2127 C2108 1.429 . S
C2127 C2121 1.429 . S
C2127 C2128 1.523 . S
C2128 C2109 1.368 . S
C2128 C2122 1.368 . S
C2128 C2127 1.523 . S
C2129 C2113 1.429 . S
C2129 C2125 1.429 . S
C2129 C2130 1.523 . S
C2130 C2114 1.368 . S
C2130 C2126 1.368 . S
C2130 C2129 1.523 . S
H2131 C2106 0.950 . S
H2132 C2108 0.950 . S
H2133 C2109 0.949 . S
H2134 C2111 0.950 . S
H2135 C2113 0.950 . S
C2136 C2137 1.349 . S
C2136 C2138 1.327 . S
C2136 H2161 0.950 . S
C2137 C2136 1.349 . S
C2137 C2153 1.349 . S
C2138 C2136 1.327 . S
C2138 C2157 1.429 . S
C2138 H2162 0.950 . S
C2139 C2156 1.574 . S
C2139 C2158 1.368 . S
C2139 H2163 0.949 . S
H2140 C2144 0.949 . S
C2141 C2142 1.349 . S
C2141 C2143 1.327 . S
C2141 H2164 0.950 . S
C2142 C2141 1.349 . S
C2142 C2154 1.349 . S
C2143 C2141 1.327 . S
C2143 C2159 1.429 . S
C2143 H2165 0.950 . S
C2144 H2140 0.949 . S
C2144 C2152 1.574 . S
C2144 C2160 1.368 . S
H2145 C2153 0.950 . S
H2146 C2151 0.950 . S
H2147 C2152 0.949 . S
H2148 C2154 0.950 . S
H2149 C2155 0.950 . S
H2150 C2156 0.949 . S
C2151 H2146 0.950 . S
C2151 C2153 1.327 . S
C2151 C2157 1.429 . S
C2152 C2144 1.574 . S
C2152 H2147 0.949 . S
C2152 C2158 1.368 . S
C2153 C2137 1.349 . S
C2153 H2145 0.950 . S
C2153 C2151 1.327 . S
C2154 C2142 1.349 . S
C2154 H2148 0.950 . S
C2154 C2155 1.327 . S
C2155 H2149 0.950 . S
C2155 C2154 1.327 . S
C2155 C2159 1.429 . S
C2156 C2139 1.574 . S
C2156 H2150 0.949 . S
C2156 C2160 1.368 . S
C2157 C2138 1.429 . S
C2157 C2151 1.429 . S
C2157 C2158 1.523 . S
C2158 C2139 1.368 . S
C2158 C2152 1.368 . S
C2158 C2157 1.523 . S
C2159 C2143 1.429 . S
C2159 C2155 1.429 . S
C2159 C2160 1.523 . S
C2160 C2144 1.368 . S
C2160 C2156 1.368 . S
C2160 C2159 1.523 . S
H2161 C2136 0.950 . S
H2162 C2138 0.950 . S
H2163 C2139 0.949 . S
H2164 C2141 0.950 . S
H2165 C2143 0.950 . S
C2166 C2167 1.349 . S
C2166 C2168 1.327 . S
C2166 H2191 0.950 . S
C2167 C2166 1.349 . S
C2167 C2183 1.349 . S
C2168 C2166 1.327 . S
C2168 C2187 1.429 . S
C2168 H2192 0.950 . S
C2169 C2186 1.574 . S
C2169 C2188 1.368 . S
C2169 H2193 0.949 . S
H2170 C2174 0.949 . S
C2171 C2172 1.349 . S
C2171 C2173 1.327 . S
C2171 H2194 0.950 . S
C2172 C2171 1.349 . S
C2172 C2184 1.349 . S
C2173 C2171 1.327 . S
C2173 C2189 1.429 . S
C2173 H2195 0.950 . S
C2174 H2170 0.949 . S
C2174 C2182 1.574 . S
C2174 C2190 1.368 . S
H2175 C2183 0.950 . S
H2176 C2181 0.950 . S
H2177 C2182 0.949 . S
H2178 C2184 0.950 . S
H2179 C2185 0.950 . S
H2180 C2186 0.949 . S
C2181 H2176 0.950 . S
C2181 C2183 1.327 . S
C2181 C2187 1.429 . S
C2182 C2174 1.574 . S
C2182 H2177 0.949 . S
C2182 C2188 1.368 . S
C2183 C2167 1.349 . S
C2183 H2175 0.950 . S
C2183 C2181 1.327 . S
C2184 C2172 1.349 . S
C2184 H2178 0.950 . S
C2184 C2185 1.327 . S
C2185 H2179 0.950 . S
C2185 C2184 1.327 . S
C2185 C2189 1.429 . S
C2186 C2169 1.574 . S
C2186 H2180 0.949 . S
C2186 C2190 1.368 . S
C2187 C2168 1.429 . S
C2187 C2181 1.429 . S
C2187 C2188 1.523 . S
C2188 C2169 1.368 . S
C2188 C2182 1.368 . S
C2188 C2187 1.523 . S
C2189 C2173 1.429 . S
C2189 C2185 1.429 . S
C2189 C2190 1.523 . S
C2190 C2174 1.368 . S
C2190 C2186 1.368 . S
C2190 C2189 1.523 . S
H2191 C2166 0.950 . S
H2192 C2168 0.950 . S
H2193 C2169 0.949 . S
H2194 C2171 0.950 . S
H2195 C2173 0.950 . S
C2196 C2197 1.349 . S
C2196 C2198 1.327 . S
C2196 H2221 0.950 . S
C2197 C2196 1.349 . S
C2197 C2213 1.349 . S
C2198 C2196 1.327 . S
C2198 C2217 1.429 . S
C2198 H2222 0.950 . S
C2199 C2216 1.574 . S
C2199 C2218 1.368 . S
C2199 H2223 0.949 . S
H2200 C2204 0.949 . S
C2201 C2202 1.349 . S
C2201 C2203 1.327 . S
C2201 H2224 0.950 . S
C2202 C2201 1.349 . S
C2202 C2214 1.349 . S
C2203 C2201 1.327 . S
C2203 C2219 1.429 . S
C2203 H2225 0.950 . S
C2204 H2200 0.949 . S
C2204 C2212 1.574 . S
C2204 C2220 1.368 . S
H2205 C2213 0.950 . S
H2206 C2211 0.950 . S
H2207 C2212 0.949 . S
H2208 C2214 0.950 . S
H2209 C2215 0.950 . S
H2210 C2216 0.949 . S
C2211 H2206 0.950 . S
C2211 C2213 1.327 . S
C2211 C2217 1.429 . S
C2212 C2204 1.574 . S
C2212 H2207 0.949 . S
C2212 C2218 1.368 . S
C2213 C2197 1.349 . S
C2213 H2205 0.950 . S
C2213 C2211 1.327 . S
C2214 C2202 1.349 . S
C2214 H2208 0.950 . S
C2214 C2215 1.327 . S
C2215 H2209 0.950 . S
C2215 C2214 1.327 . S
C2215 C2219 1.429 . S
C2216 C2199 1.574 . S
C2216 H2210 0.949 . S
C2216 C2220 1.368 . S
C2217 C2198 1.429 . S
C2217 C2211 1.429 . S
C2217 C2218 1.523 . S
C2218 C2199 1.368 . S
C2218 C2212 1.368 . S
C2218 C2217 1.523 . S
C2219 C2203 1.429 . S
C2219 C2215 1.429 . S
C2219 C2220 1.523 . S
C2220 C2204 1.368 . S
C2220 C2216 1.368 . S
C2220 C2219 1.523 . S
H2221 C2196 0.950 . S
H2222 C2198 0.950 . S
H2223 C2199 0.949 . S
H2224 C2201 0.950 . S
H2225 C2203 0.950 . S
C2226 C2227 1.349 . S
C2226 C2228 1.327 . S
C2226 H2251 0.950 . S
C2227 C2226 1.349 . S
C2227 C2243 1.349 . S
C2228 C2226 1.327 . S
C2228 C2247 1.429 . S
C2228 H2252 0.950 . S
C2229 C2246 1.574 . S
C2229 C2248 1.368 . S
C2229 H2253 0.949 . S
H2230 C2234 0.949 . S
C2231 C2232 1.349 . S
C2231 C2233 1.327 . S
C2231 H2254 0.950 . S
C2232 C2231 1.349 . S
C2232 C2244 1.349 . S
C2233 C2231 1.327 . S
C2233 C2249 1.429 . S
C2233 H2255 0.950 . S
C2234 H2230 0.949 . S
C2234 C2242 1.574 . S
C2234 C2250 1.368 . S
H2235 C2243 0.950 . S
H2236 C2241 0.950 . S
H2237 C2242 0.949 . S
H2238 C2244 0.950 . S
H2239 C2245 0.950 . S
H2240 C2246 0.949 . S
C2241 H2236 0.950 . S
C2241 C2243 1.327 . S
C2241 C2247 1.429 . S
C2242 C2234 1.574 . S
C2242 H2237 0.949 . S
C2242 C2248 1.368 . S
C2243 C2227 1.349 . S
C2243 H2235 0.950 . S
C2243 C2241 1.327 . S
C2244 C2232 1.349 . S
C2244 H2238 0.950 . S
C2244 C2245 1.327 . S
C2245 H2239 0.950 . S
C2245 C2244 1.327 . S
C2245 C2249 1.429 . S
C2246 C2229 1.574 . S
C2246 H2240 0.949 . S
C2246 C2250 1.368 . S
C2247 C2228 1.429 . S
C2247 C2241 1.429 . S
C2247 C2248 1.523 . S
C2248 C2229 1.368 . S
C2248 C2242 1.368 . S
C2248 C2247 1.523 . S
C2249 C2233 1.429 . S
C2249 C2245 1.429 . S
C2249 C2250 1.523 . S
C2250 C2234 1.368 . S
C2250 C2246 1.368 . S
C2250 C2249 1.523 . S
H2251 C2226 0.950 . S
H2252 C2228 0.950 . S
H2253 C2229 0.949 . S
H2254 C2231 0.950 . S
H2255 C2233 0.950 . S
C2256 C2257 1.349 . S
C2256 C2258 1.327 . S
C2256 H2281 0.950 . S
C2257 C2256 1.349 . S
C2257 C2273 1.349 . S
C2258 C2256 1.327 . S
C2258 C2277 1.429 . S
C2258 H2282 0.950 . S
C2259 C2276 1.574 . S
C2259 C2278 1.368 . S
C2259 H2283 0.949 . S
H2260 C2264 0.949 . S
C2261 C2262 1.349 . S
C2261 C2263 1.327 . S
C2261 H2284 0.950 . S
C2262 C2261 1.349 . S
C2262 C2274 1.349 . S
C2263 C2261 1.327 . S
C2263 C2279 1.429 . S
C2263 H2285 0.950 . S
C2264 H2260 0.949 . S
C2264 C2272 1.574 . S
C2264 C2280 1.368 . S
H2265 C2273 0.950 . S
H2266 C2271 0.950 . S
H2267 C2272 0.949 . S
H2268 C2274 0.950 . S
H2269 C2275 0.950 . S
H2270 C2276 0.949 . S
C2271 H2266 0.950 . S
C2271 C2273 1.327 . S
C2271 C2277 1.429 . S
C2272 C2264 1.574 . S
C2272 H2267 0.949 . S
C2272 C2278 1.368 . S
C2273 C2257 1.349 . S
C2273 H2265 0.950 . S
C2273 C2271 1.327 . S
C2274 C2262 1.349 . S
C2274 H2268 0.950 . S
C2274 C2275 1.327 . S
C2275 H2269 0.950 . S
C2275 C2274 1.327 . S
C2275 C2279 1.429 . S
C2276 C2259 1.574 . S
C2276 H2270 0.949 . S
C2276 C2280 1.368 . S
C2277 C2258 1.429 . S
C2277 C2271 1.429 . S
C2277 C2278 1.523 . S
C2278 C2259 1.368 . S
C2278 C2272 1.368 . S
C2278 C2277 1.523 . S
C2279 C2263 1.429 . S
C2279 C2275 1.429 . S
C2279 C2280 1.523 . S
C2280 C2264 1.368 . S
C2280 C2276 1.368 . S
C2280 C2279 1.523 . S
H2281 C2256 0.950 . S
H2282 C2258 0.950 . S
H2283 C2259 0.949 . S
H2284 C2261 0.950 . S
H2285 C2263 0.950 . S
C2286 C2287 1.349 . S
C2286 C2288 1.327 . S
C2286 H2311 0.950 . S
C2287 C2286 1.349 . S
C2287 C2303 1.349 . S
C2288 C2286 1.327 . S
C2288 C2307 1.429 . S
C2288 H2312 0.950 . S
C2289 C2306 1.574 . S
C2289 C2308 1.368 . S
C2289 H2313 0.949 . S
H2290 C2294 0.949 . S
C2291 C2292 1.349 . S
C2291 C2293 1.327 . S
C2291 H2314 0.950 . S
C2292 C2291 1.349 . S
C2292 C2304 1.349 . S
C2293 C2291 1.327 . S
C2293 C2309 1.429 . S
C2293 H2315 0.950 . S
C2294 H2290 0.949 . S
C2294 C2302 1.574 . S
C2294 C2310 1.368 . S
H2295 C2303 0.950 . S
H2296 C2301 0.950 . S
H2297 C2302 0.949 . S
H2298 C2304 0.950 . S
H2299 C2305 0.950 . S
H2300 C2306 0.949 . S
C2301 H2296 0.950 . S
C2301 C2303 1.327 . S
C2301 C2307 1.429 . S
C2302 C2294 1.574 . S
C2302 H2297 0.949 . S
C2302 C2308 1.368 . S
C2303 C2287 1.349 . S
C2303 H2295 0.950 . S
C2303 C2301 1.327 . S
C2304 C2292 1.349 . S
C2304 H2298 0.950 . S
C2304 C2305 1.327 . S
C2305 H2299 0.950 . S
C2305 C2304 1.327 . S
C2305 C2309 1.429 . S
C2306 C2289 1.574 . S
C2306 H2300 0.949 . S
C2306 C2310 1.368 . S
C2307 C2288 1.429 . S
C2307 C2301 1.429 . S
C2307 C2308 1.523 . S
C2308 C2289 1.368 . S
C2308 C2302 1.368 . S
C2308 C2307 1.523 . S
C2309 C2293 1.429 . S
C2309 C2305 1.429 . S
C2309 C2310 1.523 . S
C2310 C2294 1.368 . S
C2310 C2306 1.368 . S
C2310 C2309 1.523 . S
H2311 C2286 0.950 . S
H2312 C2288 0.950 . S
H2313 C2289 0.949 . S
H2314 C2291 0.950 . S
H2315 C2293 0.950 . S
C2316 C2317 1.349 . S
C2316 C2318 1.327 . S
C2316 H2341 0.950 . S
C2317 C2316 1.349 . S
C2317 C2333 1.349 . S
C2318 C2316 1.327 . S
C2318 C2337 1.429 . S
C2318 H2342 0.950 . S
C2319 C2336 1.574 . S
C2319 C2338 1.368 . S
C2319 H2343 0.949 . S
H2320 C2324 0.949 . S
C2321 C2322 1.349 . S
C2321 C2323 1.327 . S
C2321 H2344 0.950 . S
C2322 C2321 1.349 . S
C2322 C2334 1.349 . S
C2323 C2321 1.327 . S
C2323 C2339 1.429 . S
C2323 H2345 0.950 . S
C2324 H2320 0.949 . S
C2324 C2332 1.574 . S
C2324 C2340 1.368 . S
H2325 C2333 0.950 . S
H2326 C2331 0.950 . S
H2327 C2332 0.949 . S
H2328 C2334 0.950 . S
H2329 C2335 0.950 . S
H2330 C2336 0.949 . S
C2331 H2326 0.950 . S
C2331 C2333 1.327 . S
C2331 C2337 1.429 . S
C2332 C2324 1.574 . S
C2332 H2327 0.949 . S
C2332 C2338 1.368 . S
C2333 C2317 1.349 . S
C2333 H2325 0.950 . S
C2333 C2331 1.327 . S
C2334 C2322 1.349 . S
C2334 H2328 0.950 . S
C2334 C2335 1.327 . S
C2335 H2329 0.950 . S
C2335 C2334 1.327 . S
C2335 C2339 1.429 . S
C2336 C2319 1.574 . S
C2336 H2330 0.949 . S
C2336 C2340 1.368 . S
C2337 C2318 1.429 . S
C2337 C2331 1.429 . S
C2337 C2338 1.523 . S
C2338 C2319 1.368 . S
C2338 C2332 1.368 . S
C2338 C2337 1.523 . S
C2339 C2323 1.429 . S
C2339 C2335 1.429 . S
C2339 C2340 1.523 . S
C2340 C2324 1.368 . S
C2340 C2336 1.368 . S
C2340 C2339 1.523 . S
H2341 C2316 0.950 . S
H2342 C2318 0.950 . S
H2343 C2319 0.949 . S
H2344 C2321 0.950 . S
H2345 C2323 0.950 . S
C2346 C2347 1.349 . S
C2346 C2348 1.327 . S
C2346 H2371 0.950 . S
C2347 C2346 1.349 . S
C2347 C2363 1.349 . S
C2348 C2346 1.327 . S
C2348 C2367 1.429 . S
C2348 H2372 0.950 . S
C2349 C2366 1.574 . S
C2349 C2368 1.368 . S
C2349 H2373 0.949 . S
H2350 C2354 0.949 . S
C2351 C2352 1.349 . S
C2351 C2353 1.327 . S
C2351 H2374 0.950 . S
C2352 C2351 1.349 . S
C2352 C2364 1.349 . S
C2353 C2351 1.327 . S
C2353 C2369 1.429 . S
C2353 H2375 0.950 . S
C2354 H2350 0.949 . S
C2354 C2362 1.574 . S
C2354 C2370 1.368 . S
H2355 C2363 0.950 . S
H2356 C2361 0.950 . S
H2357 C2362 0.949 . S
H2358 C2364 0.950 . S
H2359 C2365 0.950 . S
H2360 C2366 0.949 . S
C2361 H2356 0.950 . S
C2361 C2363 1.327 . S
C2361 C2367 1.429 . S
C2362 C2354 1.574 . S
C2362 H2357 0.949 . S
C2362 C2368 1.368 . S
C2363 C2347 1.349 . S
C2363 H2355 0.950 . S
C2363 C2361 1.327 . S
C2364 C2352 1.349 . S
C2364 H2358 0.950 . S
C2364 C2365 1.327 . S
C2365 H2359 0.950 . S
C2365 C2364 1.327 . S
C2365 C2369 1.429 . S
C2366 C2349 1.574 . S
C2366 H2360 0.949 . S
C2366 C2370 1.368 . S
C2367 C2348 1.429 . S
C2367 C2361 1.429 . S
C2367 C2368 1.523 . S
C2368 C2349 1.368 . S
C2368 C2362 1.368 . S
C2368 C2367 1.523 . S
C2369 C2353 1.429 . S
C2369 C2365 1.429 . S
C2369 C2370 1.523 . S
C2370 C2354 1.368 . S
C2370 C2366 1.368 . S
C2370 C2369 1.523 . S
H2371 C2346 0.950 . S
H2372 C2348 0.950 . S
H2373 C2349 0.949 . S
H2374 C2351 0.950 . S
H2375 C2353 0.950 . S
C2376 C2377 1.349 . S
C2376 C2378 1.327 . S
C2376 H2401 0.950 . S
C2377 C2376 1.349 . S
C2377 C2393 1.349 . S
C2378 C2376 1.327 . S
C2378 C2397 1.429 . S
C2378 H2402 0.950 . S
C2379 C2396 1.574 . S
C2379 C2398 1.368 . S
C2379 H2403 0.949 . S
H2380 C2384 0.949 . S
C2381 C2382 1.349 . S
C2381 C2383 1.327 . S
C2381 H2404 0.950 . S
C2382 C2381 1.349 . S
C2382 C2394 1.349 . S
C2383 C2381 1.327 . S
C2383 C2399 1.429 . S
C2383 H2405 0.950 . S
C2384 H2380 0.949 . S
C2384 C2392 1.574 . S
C2384 C2400 1.368 . S
H2385 C2393 0.950 . S
H2386 C2391 0.950 . S
H2387 C2392 0.949 . S
H2388 C2394 0.950 . S
H2389 C2395 0.950 . S
H2390 C2396 0.949 . S
C2391 H2386 0.950 . S
C2391 C2393 1.327 . S
C2391 C2397 1.429 . S
C2392 C2384 1.574 . S
C2392 H2387 0.949 . S
C2392 C2398 1.368 . S
C2393 C2377 1.349 . S
C2393 H2385 0.950 . S
C2393 C2391 1.327 . S
C2394 C2382 1.349 . S
C2394 H2388 0.950 . S
C2394 C2395 1.327 . S
C2395 H2389 0.950 . S
C2395 C2394 1.327 . S
C2395 C2399 1.429 . S
C2396 C2379 1.574 . S
C2396 H2390 0.949 . S
C2396 C2400 1.368 . S
C2397 C2378 1.429 . S
C2397 C2391 1.429 . S
C2397 C2398 1.523 . S
C2398 C2379 1.368 . S
C2398 C2392 1.368 . S
C2398 C2397 1.523 . S
C2399 C2383 1.429 . S
C2399 C2395 1.429 . S
C2399 C2400 1.523 . S
C2400 C2384 1.368 . S
C2400 C2396 1.368 . S
C2400 C2399 1.523 . S
H2401 C2376 0.950 . S
H2402 C2378 0.950 . S
H2403 C2379 0.949 . S
H2404 C2381 0.950 . S
H2405 C2383 0.950 . S
C2406 C2407 1.349 . S
C2406 C2408 1.327 . S
C2406 H2431 0.950 . S
C2407 C2406 1.349 . S
C2407 C2423 1.349 . S
C2408 C2406 1.327 . S
C2408 C2427 1.429 . S
C2408 H2432 0.950 . S
C2409 C2426 1.574 . S
C2409 C2428 1.368 . S
C2409 H2433 0.949 . S
H2410 C2414 0.949 . S
C2411 C2412 1.349 . S
C2411 C2413 1.327 . S
C2411 H2434 0.950 . S
C2412 C2411 1.349 . S
C2412 C2424 1.349 . S
C2413 C2411 1.327 . S
C2413 C2429 1.429 . S
C2413 H2435 0.950 . S
C2414 H2410 0.949 . S
C2414 C2422 1.574 . S
C2414 C2430 1.368 . S
H2415 C2423 0.950 . S
H2416 C2421 0.950 . S
H2417 C2422 0.949 . S
H2418 C2424 0.950 . S
H2419 C2425 0.950 . S
H2420 C2426 0.949 . S
C2421 H2416 0.950 . S
C2421 C2423 1.327 . S
C2421 C2427 1.429 . S
C2422 C2414 1.574 . S
C2422 H2417 0.949 . S
C2422 C2428 1.368 . S
C2423 C2407 1.349 . S
C2423 H2415 0.950 . S
C2423 C2421 1.327 . S
C2424 C2412 1.349 . S
C2424 H2418 0.950 . S
C2424 C2425 1.327 . S
C2425 H2419 0.950 . S
C2425 C2424 1.327 . S
C2425 C2429 1.429 . S
C2426 C2409 1.574 . S
C2426 H2420 0.949 . S
C2426 C2430 1.368 . S
C2427 C2408 1.429 . S
C2427 C2421 1.429 . S
C2427 C2428 1.523 . S
C2428 C2409 1.368 . S
C2428 C2422 1.368 . S
C2428 C2427 1.523 . S
C2429 C2413 1.429 . S
C2429 C2425 1.429 . S
C2429 C2430 1.523 . S
C2430 C2414 1.368 . S
C2430 C2426 1.368 . S
C2430 C2429 1.523 . S
H2431 C2406 0.950 . S
H2432 C2408 0.950 . S
H2433 C2409 0.949 . S
H2434 C2411 0.950 . S
H2435 C2413 0.950 . S
C2436 C2437 1.349 . S
C2436 C2438 1.327 . S
C2436 H2461 0.950 . S
C2437 C2436 1.349 . S
C2437 C2453 1.349 . S
C2438 C2436 1.327 . S
C2438 C2457 1.429 . S
C2438 H2462 0.950 . S
C2439 C2456 1.574 . S
C2439 C2458 1.368 . S
C2439 H2463 0.949 . S
H2440 C2444 0.949 . S
C2441 C2442 1.349 . S
C2441 C2443 1.327 . S
C2441 H2464 0.950 . S
C2442 C2441 1.349 . S
C2442 C2454 1.349 . S
C2443 C2441 1.327 . S
C2443 C2459 1.429 . S
C2443 H2465 0.950 . S
C2444 H2440 0.949 . S
C2444 C2452 1.574 . S
C2444 C2460 1.368 . S
H2445 C2453 0.950 . S
H2446 C2451 0.950 . S
H2447 C2452 0.949 . S
H2448 C2454 0.950 . S
H2449 C2455 0.950 . S
H2450 C2456 0.949 . S
C2451 H2446 0.950 . S
C2451 C2453 1.327 . S
C2451 C2457 1.429 . S
C2452 C2444 1.574 . S
C2452 H2447 0.949 . S
C2452 C2458 1.368 . S
C2453 C2437 1.349 . S
C2453 H2445 0.950 . S
C2453 C2451 1.327 . S
C2454 C2442 1.349 . S
C2454 H2448 0.950 . S
C2454 C2455 1.327 . S
C2455 H2449 0.950 . S
C2455 C2454 1.327 . S
C2455 C2459 1.429 . S
C2456 C2439 1.574 . S
C2456 H2450 0.949 . S
C2456 C2460 1.368 . S
C2457 C2438 1.429 . S
C2457 C2451 1.429 . S
C2457 C2458 1.523 . S
C2458 C2439 1.368 . S
C2458 C2452 1.368 . S
C2458 C2457 1.523 . S
C2459 C2443 1.429 . S
C2459 C2455 1.429 . S
C2459 C2460 1.523 . S
C2460 C2444 1.368 . S
C2460 C2456 1.368 . S
C2460 C2459 1.523 . S
H2461 C2436 0.950 . S
H2462 C2438 0.950 . S
H2463 C2439 0.949 . S
H2464 C2441 0.950 . S
H2465 C2443 0.950 . S
C2466 C2467 1.349 . S
C2466 C2468 1.327 . S
C2466 H2491 0.950 . S
C2467 C2466 1.349 . S
C2467 C2483 1.349 . S
C2468 C2466 1.327 . S
C2468 C2487 1.429 . S
C2468 H2492 0.950 . S
C2469 C2486 1.574 . S
C2469 C2488 1.368 . S
C2469 H2493 0.949 . S
H2470 C2474 0.949 . S
C2471 C2472 1.349 . S
C2471 C2473 1.327 . S
C2471 H2494 0.950 . S
C2472 C2471 1.349 . S
C2472 C2484 1.349 . S
C2473 C2471 1.327 . S
C2473 C2489 1.429 . S
C2473 H2495 0.950 . S
C2474 H2470 0.949 . S
C2474 C2482 1.574 . S
C2474 C2490 1.368 . S
H2475 C2483 0.950 . S
H2476 C2481 0.950 . S
H2477 C2482 0.949 . S
H2478 C2484 0.950 . S
H2479 C2485 0.950 . S
H2480 C2486 0.949 . S
C2481 H2476 0.950 . S
C2481 C2483 1.327 . S
C2481 C2487 1.429 . S
C2482 C2474 1.574 . S
C2482 H2477 0.949 . S
C2482 C2488 1.368 . S
C2483 C2467 1.349 . S
C2483 H2475 0.950 . S
C2483 C2481 1.327 . S
C2484 C2472 1.349 . S
C2484 H2478 0.950 . S
C2484 C2485 1.327 . S
C2485 H2479 0.950 . S
C2485 C2484 1.327 . S
C2485 C2489 1.429 . S
C2486 C2469 1.574 . S
C2486 H2480 0.949 . S
C2486 C2490 1.368 . S
C2487 C2468 1.429 . S
C2487 C2481 1.429 . S
C2487 C2488 1.523 . S
C2488 C2469 1.368 . S
C2488 C2482 1.368 . S
C2488 C2487 1.523 . S
C2489 C2473 1.429 . S
C2489 C2485 1.429 . S
C2489 C2490 1.523 . S
C2490 C2474 1.368 . S
C2490 C2486 1.368 . S
C2490 C2489 1.523 . S
H2491 C2466 0.950 . S
H2492 C2468 0.950 . S
H2493 C2469 0.949 . S
H2494 C2471 0.950 . S
H2495 C2473 0.950 . S
C2496 C2497 1.349 . S
C2496 C2498 1.327 . S
C2496 H2521 0.950 . S
C2497 C2496 1.349 . S
C2497 C2513 1.349 . S
C2498 C2496 1.327 . S
C2498 C2517 1.429 . S
C2498 H2522 0.950 . S
C2499 C2516 1.574 . S
C2499 C2518 1.368 . S
C2499 H2523 0.949 . S
H2500 C2504 0.949 . S
C2501 C2502 1.349 . S
C2501 C2503 1.327 . S
C2501 H2524 0.950 . S
C2502 C2501 1.349 . S
C2502 C2514 1.349 . S
C2503 C2501 1.327 . S
C2503 C2519 1.429 . S
C2503 H2525 0.950 . S
C2504 H2500 0.949 . S
C2504 C2512 1.574 . S
C2504 C2520 1.368 . S
H2505 C2513 0.950 . S
H2506 C2511 0.950 . S
H2507 C2512 0.949 . S
H2508 C2514 0.950 . S
H2509 C2515 0.950 . S
H2510 C2516 0.949 . S
C2511 H2506 0.950 . S
C2511 C2513 1.327 . S
C2511 C2517 1.429 . S
C2512 C2504 1.574 . S
C2512 H2507 0.949 . S
C2512 C2518 1.368 . S
C2513 C2497 1.349 . S
C2513 H2505 0.950 . S
C2513 C2511 1.327 . S
C2514 C2502 1.349 . S
C2514 H2508 0.950 . S
C2514 C2515 1.327 . S
C2515 H2509 0.950 . S
C2515 C2514 1.327 . S
C2515 C2519 1.429 . S
C2516 C2499 1.574 . S
C2516 H2510 0.949 . S
C2516 C2520 1.368 . S
C2517 C2498 1.429 . S
C2517 C2511 1.429 . S
C2517 C2518 1.523 . S
C2518 C2499 1.368 . S
C2518 C2512 1.368 . S
C2518 C2517 1.523 . S
C2519 C2503 1.429 . S
C2519 C2515 1.429 . S
C2519 C2520 1.523 . S
C2520 C2504 1.368 . S
C2520 C2516 1.368 . S
C2520 C2519 1.523 . S
H2521 C2496 0.950 . S
H2522 C2498 0.950 . S
H2523 C2499 0.949 . S
H2524 C2501 0.950 . S
H2525 C2503 0.950 . S
C2526 C2527 1.349 . S
C2526 C2528 1.327 . S
C2526 H2551 0.950 . S
C2527 C2526 1.349 . S
C2527 C2543 1.349 . S
C2528 C2526 1.327 . S
C2528 C2547 1.429 . S
C2528 H2552 0.950 . S
C2529 C2546 1.574 . S
C2529 C2548 1.368 . S
C2529 H2553 0.949 . S
H2530 C2534 0.949 . S
C2531 C2532 1.349 . S
C2531 C2533 1.327 . S
C2531 H2554 0.950 . S
C2532 C2531 1.349 . S
C2532 C2544 1.349 . S
C2533 C2531 1.327 . S
C2533 C2549 1.429 . S
C2533 H2555 0.950 . S
C2534 H2530 0.949 . S
C2534 C2542 1.574 . S
C2534 C2550 1.368 . S
H2535 C2543 0.950 . S
H2536 C2541 0.950 . S
H2537 C2542 0.949 . S
H2538 C2544 0.950 . S
H2539 C2545 0.950 . S
H2540 C2546 0.949 . S
C2541 H2536 0.950 . S
C2541 C2543 1.327 . S
C2541 C2547 1.429 . S
C2542 C2534 1.574 . S
C2542 H2537 0.949 . S
C2542 C2548 1.368 . S
C2543 C2527 1.349 . S
C2543 H2535 0.950 . S
C2543 C2541 1.327 . S
C2544 C2532 1.349 . S
C2544 H2538 0.950 . S
C2544 C2545 1.327 . S
C2545 H2539 0.950 . S
C2545 C2544 1.327 . S
C2545 C2549 1.429 . S
C2546 C2529 1.574 . S
C2546 H2540 0.949 . S
C2546 C2550 1.368 . S
C2547 C2528 1.429 . S
C2547 C2541 1.429 . S
C2547 C2548 1.523 . S
C2548 C2529 1.368 . S
C2548 C2542 1.368 . S
C2548 C2547 1.523 . S
C2549 C2533 1.429 . S
C2549 C2545 1.429 . S
C2549 C2550 1.523 . S
C2550 C2534 1.368 . S
C2550 C2546 1.368 . S
C2550 C2549 1.523 . S
H2551 C2526 0.950 . S
H2552 C2528 0.950 . S
H2553 C2529 0.949 . S
H2554 C2531 0.950 . S
H2555 C2533 0.950 . S
C2556 C2557 1.349 . S
C2556 C2558 1.327 . S
C2556 H2581 0.950 . S
C2557 C2556 1.349 . S
C2557 C2573 1.349 . S
C2558 C2556 1.327 . S
C2558 C2577 1.429 . S
C2558 H2582 0.950 . S
C2559 C2576 1.574 . S
C2559 C2578 1.368 . S
C2559 H2583 0.949 . S
H2560 C2564 0.949 . S
C2561 C2562 1.349 . S
C2561 C2563 1.327 . S
C2561 H2584 0.950 . S
C2562 C2561 1.349 . S
C2562 C2574 1.349 . S
C2563 C2561 1.327 . S
C2563 C2579 1.429 . S
C2563 H2585 0.950 . S
C2564 H2560 0.949 . S
C2564 C2572 1.574 . S
C2564 C2580 1.368 . S
H2565 C2573 0.950 . S
H2566 C2571 0.950 . S
H2567 C2572 0.949 . S
H2568 C2574 0.950 . S
H2569 C2575 0.950 . S
H2570 C2576 0.949 . S
C2571 H2566 0.950 . S
C2571 C2573 1.327 . S
C2571 C2577 1.429 . S
C2572 C2564 1.574 . S
C2572 H2567 0.949 . S
C2572 C2578 1.368 . S
C2573 C2557 1.349 . S
C2573 H2565 0.950 . S
C2573 C2571 1.327 . S
C2574 C2562 1.349 . S
C2574 H2568 0.950 . S
C2574 C2575 1.327 . S
C2575 H2569 0.950 . S
C2575 C2574 1.327 . S
C2575 C2579 1.429 . S
C2576 C2559 1.574 . S
C2576 H2570 0.949 . S
C2576 C2580 1.368 . S
C2577 C2558 1.429 . S
C2577 C2571 1.429 . S
C2577 C2578 1.523 . S
C2578 C2559 1.368 . S
C2578 C2572 1.368 . S
C2578 C2577 1.523 . S
C2579 C2563 1.429 . S
C2579 C2575 1.429 . S
C2579 C2580 1.523 . S
C2580 C2564 1.368 . S
C2580 C2576 1.368 . S
C2580 C2579 1.523 . S
H2581 C2556 0.950 . S
H2582 C2558 0.950 . S
H2583 C2559 0.949 . S
H2584 C2561 0.950 . S
H2585 C2563 0.950 . S
C2586 C2587 1.349 . S
C2586 C2588 1.327 . S
C2586 H2611 0.950 . S
C2587 C2586 1.349 . S
C2587 C2603 1.349 . S
C2588 C2586 1.327 . S
C2588 C2607 1.429 . S
C2588 H2612 0.950 . S
C2589 C2606 1.574 . S
C2589 C2608 1.368 . S
C2589 H2613 0.949 . S
H2590 C2594 0.949 . S
C2591 C2592 1.349 . S
C2591 C2593 1.327 . S
C2591 H2614 0.950 . S
C2592 C2591 1.349 . S
C2592 C2604 1.349 . S
C2593 C2591 1.327 . S
C2593 C2609 1.429 . S
C2593 H2615 0.950 . S
C2594 H2590 0.949 . S
C2594 C2602 1.574 . S
C2594 C2610 1.368 . S
H2595 C2603 0.950 . S
H2596 C2601 0.950 . S
H2597 C2602 0.949 . S
H2598 C2604 0.950 . S
H2599 C2605 0.950 . S
H2600 C2606 0.949 . S
C2601 H2596 0.950 . S
C2601 C2603 1.327 . S
C2601 C2607 1.429 . S
C2602 C2594 1.574 . S
C2602 H2597 0.949 . S
C2602 C2608 1.368 . S
C2603 C2587 1.349 . S
C2603 H2595 0.950 . S
C2603 C2601 1.327 . S
C2604 C2592 1.349 . S
C2604 H2598 0.950 . S
C2604 C2605 1.327 . S
C2605 H2599 0.950 . S
C2605 C2604 1.327 . S
C2605 C2609 1.429 . S
C2606 C2589 1.574 . S
C2606 H2600 0.949 . S
C2606 C2610 1.368 . S
C2607 C2588 1.429 . S
C2607 C2601 1.429 . S
C2607 C2608 1.523 . S
C2608 C2589 1.368 . S
C2608 C2602 1.368 . S
C2608 C2607 1.523 . S
C2609 C2593 1.429 . S
C2609 C2605 1.429 . S
C2609 C2610 1.523 . S
C2610 C2594 1.368 . S
C2610 C2606 1.368 . S
C2610 C2609 1.523 . S
H2611 C2586 0.950 . S
H2612 C2588 0.950 . S
H2613 C2589 0.949 . S
H2614 C2591 0.950 . S
H2615 C2593 0.950 . S
C2616 C2617 1.349 . S
C2616 C2618 1.327 . S
C2616 H2641 0.950 . S
C2617 C2616 1.349 . S
C2617 C2633 1.349 . S
C2618 C2616 1.327 . S
C2618 C2637 1.429 . S
C2618 H2642 0.950 . S
C2619 C2636 1.574 . S
C2619 C2638 1.368 . S
C2619 H2643 0.949 . S
H2620 C2624 0.949 . S
C2621 C2622 1.349 . S
C2621 C2623 1.327 . S
C2621 H2644 0.950 . S
C2622 C2621 1.349 . S
C2622 C2634 1.349 . S
C2623 C2621 1.327 . S
C2623 C2639 1.429 . S
C2623 H2645 0.950 . S
C2624 H2620 0.949 . S
C2624 C2632 1.574 . S
C2624 C2640 1.368 . S
H2625 C2633 0.950 . S
H2626 C2631 0.950 . S
H2627 C2632 0.949 . S
H2628 C2634 0.950 . S
H2629 C2635 0.950 . S
H2630 C2636 0.949 . S
C2631 H2626 0.950 . S
C2631 C2633 1.327 . S
C2631 C2637 1.429 . S
C2632 C2624 1.574 . S
C2632 H2627 0.949 . S
C2632 C2638 1.368 . S
C2633 C2617 1.349 . S
C2633 H2625 0.950 . S
C2633 C2631 1.327 . S
C2634 C2622 1.349 . S
C2634 H2628 0.950 . S
C2634 C2635 1.327 . S
C2635 H2629 0.950 . S
C2635 C2634 1.327 . S
C2635 C2639 1.429 . S
C2636 C2619 1.574 . S
C2636 H2630 0.949 . S
C2636 C2640 1.368 . S
C2637 C2618 1.429 . S
C2637 C2631 1.429 . S
C2637 C2638 1.523 . S
C2638 C2619 1.368 . S
C2638 C2632 1.368 . S
C2638 C2637 1.523 . S
C2639 C2623 1.429 . S
C2639 C2635 1.429 . S
C2639 C2640 1.523 . S
C2640 C2624 1.368 . S
C2640 C2636 1.368 . S
C2640 C2639 1.523 . S
H2641 C2616 0.950 . S
H2642 C2618 0.950 . S
H2643 C2619 0.949 . S
H2644 C2621 0.950 . S
H2645 C2623 0.950 . S
C2646 C2647 1.349 . S
C2646 C2648 1.327 . S
C2646 H2671 0.950 . S
C2647 C2646 1.349 . S
C2647 C2663 1.349 . S
C2648 C2646 1.327 . S
C2648 C2667 1.429 . S
C2648 H2672 0.950 . S
C2649 C2666 1.574 . S
C2649 C2668 1.368 . S
C2649 H2673 0.949 . S
H2650 C2654 0.949 . S
C2651 C2652 1.349 . S
C2651 C2653 1.327 . S
C2651 H2674 0.950 . S
C2652 C2651 1.349 . S
C2652 C2664 1.349 . S
C2653 C2651 1.327 . S
C2653 C2669 1.429 . S
C2653 H2675 0.950 . S
C2654 H2650 0.949 . S
C2654 C2662 1.574 . S
C2654 C2670 1.368 . S
H2655 C2663 0.950 . S
H2656 C2661 0.950 . S
H2657 C2662 0.949 . S
H2658 C2664 0.950 . S
H2659 C2665 0.950 . S
H2660 C2666 0.949 . S
C2661 H2656 0.950 . S
C2661 C2663 1.327 . S
C2661 C2667 1.429 . S
C2662 C2654 1.574 . S
C2662 H2657 0.949 . S
C2662 C2668 1.368 . S
C2663 C2647 1.349 . S
C2663 H2655 0.950 . S
C2663 C2661 1.327 . S
C2664 C2652 1.349 . S
C2664 H2658 0.950 . S
C2664 C2665 1.327 . S
C2665 H2659 0.950 . S
C2665 C2664 1.327 . S
C2665 C2669 1.429 . S
C2666 C2649 1.574 . S
C2666 H2660 0.949 . S
C2666 C2670 1.368 . S
C2667 C2648 1.429 . S
C2667 C2661 1.429 . S
C2667 C2668 1.523 . S
C2668 C2649 1.368 . S
C2668 C2662 1.368 . S
C2668 C2667 1.523 . S
C2669 C2653 1.429 . S
C2669 C2665 1.429 . S
C2669 C2670 1.523 . S
C2670 C2654 1.368 . S
C2670 C2666 1.368 . S
C2670 C2669 1.523 . S
H2671 C2646 0.950 . S
H2672 C2648 0.950 . S
H2673 C2649 0.949 . S
H2674 C2651 0.950 . S
H2675 C2653 0.950 . S
C2676 C2677 1.349 . S
C2676 C2678 1.327 . S
C2676 H2701 0.950 . S
C2677 C2676 1.349 . S
C2677 C2693 1.349 . S
C2678 C2676 1.327 . S
C2678 C2697 1.429 . S
C2678 H2702 0.950 . S
C2679 C2696 1.574 . S
C2679 C2698 1.368 . S
C2679 H2703 0.949 . S
H2680 C2684 0.949 . S
C2681 C2682 1.349 . S
C2681 C2683 1.327 . S
C2681 H2704 0.950 . S
C2682 C2681 1.349 . S
C2682 C2694 1.349 . S
C2683 C2681 1.327 . S
C2683 C2699 1.429 . S
C2683 H2705 0.950 . S
C2684 H2680 0.949 . S
C2684 C2692 1.574 . S
C2684 C2700 1.368 . S
H2685 C2693 0.950 . S
H2686 C2691 0.950 . S
H2687 C2692 0.949 . S
H2688 C2694 0.950 . S
H2689 C2695 0.950 . S
H2690 C2696 0.949 . S
C2691 H2686 0.950 . S
C2691 C2693 1.327 . S
C2691 C2697 1.429 . S
C2692 C2684 1.574 . S
C2692 H2687 0.949 . S
C2692 C2698 1.368 . S
C2693 C2677 1.349 . S
C2693 H2685 0.950 . S
C2693 C2691 1.327 . S
C2694 C2682 1.349 . S
C2694 H2688 0.950 . S
C2694 C2695 1.327 . S
C2695 H2689 0.950 . S
C2695 C2694 1.327 . S
C2695 C2699 1.429 . S
C2696 C2679 1.574 . S
C2696 H2690 0.949 . S
C2696 C2700 1.368 . S
C2697 C2678 1.429 . S
C2697 C2691 1.429 . S
C2697 C2698 1.523 . S
C2698 C2679 1.368 . S
C2698 C2692 1.368 . S
C2698 C2697 1.523 . S
C2699 C2683 1.429 . S
C2699 C2695 1.429 . S
C2699 C2700 1.523 . S
C2700 C2684 1.368 . S
C2700 C2696 1.368 . S
C2700 C2699 1.523 . S
H2701 C2676 0.950 . S
H2702 C2678 0.950 . S
H2703 C2679 0.949 . S
H2704 C2681 0.950 . S
H2705 C2683 0.950 . S
C2706 C2707 1.349 . S
C2706 C2708 1.327 . S
C2706 H2731 0.950 . S
C2707 C2706 1.349 . S
C2707 C2723 1.349 . S
C2708 C2706 1.327 . S
C2708 C2727 1.429 . S
C2708 H2732 0.950 . S
C2709 C2726 1.574 . S
C2709 C2728 1.368 . S
C2709 H2733 0.949 . S
H2710 C2714 0.949 . S
C2711 C2712 1.349 . S
C2711 C2713 1.327 . S
C2711 H2734 0.950 . S
C2712 C2711 1.349 . S
C2712 C2724 1.349 . S
C2713 C2711 1.327 . S
C2713 C2729 1.429 . S
C2713 H2735 0.950 . S
C2714 H2710 0.949 . S
C2714 C2722 1.574 . S
C2714 C2730 1.368 . S
H2715 C2723 0.950 . S
H2716 C2721 0.950 . S
H2717 C2722 0.949 . S
H2718 C2724 0.950 . S
H2719 C2725 0.950 . S
H2720 C2726 0.949 . S
C2721 H2716 0.950 . S
C2721 C2723 1.327 . S
C2721 C2727 1.429 . S
C2722 C2714 1.574 . S
C2722 H2717 0.949 . S
C2722 C2728 1.368 . S
C2723 C2707 1.349 . S
C2723 H2715 0.950 . S
C2723 C2721 1.327 . S
C2724 C2712 1.349 . S
C2724 H2718 0.950 . S
C2724 C2725 1.327 . S
C2725 H2719 0.950 . S
C2725 C2724 1.327 . S
C2725 C2729 1.429 . S
C2726 C2709 1.574 . S
C2726 H2720 0.949 . S
C2726 C2730 1.368 . S
C2727 C2708 1.429 . S
C2727 C2721 1.429 . S
C2727 C2728 1.523 . S
C2728 C2709 1.368 . S
C2728 C2722 1.368 . S
C2728 C2727 1.523 . S
C2729 C2713 1.429 . S
C2729 C2725 1.429 . S
C2729 C2730 1.523 . S
C2730 C2714 1.368 . S
C2730 C2726 1.368 . S
C2730 C2729 1.523 . S
H2731 C2706 0.950 . S
H2732 C2708 0.950 . S
H2733 C2709 0.949 . S
H2734 C2711 0.950 . S
H2735 C2713 0.950 . S
C2736 C2737 1.349 . S
C2736 C2738 1.327 . S
C2736 H2761 0.950 . S
C2737 C2736 1.349 . S
C2737 C2753 1.349 . S
C2738 C2736 1.327 . S
C2738 C2757 1.429 . S
C2738 H2762 0.950 . S
C2739 C2756 1.574 . S
C2739 C2758 1.368 . S
C2739 H2763 0.949 . S
H2740 C2744 0.949 . S
C2741 C2742 1.349 . S
C2741 C2743 1.327 . S
C2741 H2764 0.950 . S
C2742 C2741 1.349 . S
C2742 C2754 1.349 . S
C2743 C2741 1.327 . S
C2743 C2759 1.429 . S
C2743 H2765 0.950 . S
C2744 H2740 0.949 . S
C2744 C2752 1.574 . S
C2744 C2760 1.368 . S
H2745 C2753 0.950 . S
H2746 C2751 0.950 . S
H2747 C2752 0.949 . S
H2748 C2754 0.950 . S
H2749 C2755 0.950 . S
H2750 C2756 0.949 . S
C2751 H2746 0.950 . S
C2751 C2753 1.327 . S
C2751 C2757 1.429 . S
C2752 C2744 1.574 . S
C2752 H2747 0.949 . S
C2752 C2758 1.368 . S
C2753 C2737 1.349 . S
C2753 H2745 0.950 . S
C2753 C2751 1.327 . S
C2754 C2742 1.349 . S
C2754 H2748 0.950 . S
C2754 C2755 1.327 . S
C2755 H2749 0.950 . S
C2755 C2754 1.327 . S
C2755 C2759 1.429 . S
C2756 C2739 1.574 . S
C2756 H2750 0.949 . S
C2756 C2760 1.368 . S
C2757 C2738 1.429 . S
C2757 C2751 1.429 . S
C2757 C2758 1.523 . S
C2758 C2739 1.368 . S
C2758 C2752 1.368 . S
C2758 C2757 1.523 . S
C2759 C2743 1.429 . S
C2759 C2755 1.429 . S
C2759 C2760 1.523 . S
C2760 C2744 1.368 . S
C2760 C2756 1.368 . S
C2760 C2759 1.523 . S
H2761 C2736 0.950 . S
H2762 C2738 0.950 . S
H2763 C2739 0.949 . S
H2764 C2741 0.950 . S
H2765 C2743 0.950 . S
C2766 C2767 1.349 . S
C2766 C2768 1.327 . S
C2766 H2791 0.950 . S
C2767 C2766 1.349 . S
C2767 C2783 1.349 . S
C2768 C2766 1.327 . S
C2768 C2787 1.429 . S
C2768 H2792 0.950 . S
C2769 C2786 1.574 . S
C2769 C2788 1.368 . S
C2769 H2793 0.949 . S
H2770 C2774 0.949 . S
C2771 C2772 1.349 . S
C2771 C2773 1.327 . S
C2771 H2794 0.950 . S
C2772 C2771 1.349 . S
C2772 C2784 1.349 . S
C2773 C2771 1.327 . S
C2773 C2789 1.429 . S
C2773 H2795 0.950 . S
C2774 H2770 0.949 . S
C2774 C2782 1.574 . S
C2774 C2790 1.368 . S
H2775 C2783 0.950 . S
H2776 C2781 0.950 . S
H2777 C2782 0.949 . S
H2778 C2784 0.950 . S
H2779 C2785 0.950 . S
H2780 C2786 0.949 . S
C2781 H2776 0.950 . S
C2781 C2783 1.327 . S
C2781 C2787 1.429 . S
C2782 C2774 1.574 . S
C2782 H2777 0.949 . S
C2782 C2788 1.368 . S
C2783 C2767 1.349 . S
C2783 H2775 0.950 . S
C2783 C2781 1.327 . S
C2784 C2772 1.349 . S
C2784 H2778 0.950 . S
C2784 C2785 1.327 . S
C2785 H2779 0.950 . S
C2785 C2784 1.327 . S
C2785 C2789 1.429 . S
C2786 C2769 1.574 . S
C2786 H2780 0.949 . S
C2786 C2790 1.368 . S
C2787 C2768 1.429 . S
C2787 C2781 1.429 . S
C2787 C2788 1.523 . S
C2788 C2769 1.368 . S
C2788 C2782 1.368 . S
C2788 C2787 1.523 . S
C2789 C2773 1.429 . S
C2789 C2785 1.429 . S
C2789 C2790 1.523 . S
C2790 C2774 1.368 . S
C2790 C2786 1.368 . S
C2790 C2789 1.523 . S
H2791 C2766 0.950 . S
H2792 C2768 0.950 . S
H2793 C2769 0.949 . S
H2794 C2771 0.950 . S
H2795 C2773 0.950 . S
C2796 C2797 1.349 . S
C2796 C2798 1.327 . S
C2796 H2821 0.950 . S
C2797 C2796 1.349 . S
C2797 C2813 1.349 . S
C2798 C2796 1.327 . S
C2798 C2817 1.429 . S
C2798 H2822 0.950 . S
C2799 C2816 1.574 . S
C2799 C2818 1.368 . S
C2799 H2823 0.949 . S
H2800 C2804 0.949 . S
C2801 C2802 1.349 . S
C2801 C2803 1.327 . S
C2801 H2824 0.950 . S
C2802 C2801 1.349 . S
C2802 C2814 1.349 . S
C2803 C2801 1.327 . S
C2803 C2819 1.429 . S
C2803 H2825 0.950 . S
C2804 H2800 0.949 . S
C2804 C2812 1.574 . S
C2804 C2820 1.368 . S
H2805 C2813 0.950 . S
H2806 C2811 0.950 . S
H2807 C2812 0.949 . S
H2808 C2814 0.950 . S
H2809 C2815 0.950 . S
H2810 C2816 0.949 . S
C2811 H2806 0.950 . S
C2811 C2813 1.327 . S
C2811 C2817 1.429 . S
C2812 C2804 1.574 . S
C2812 H2807 0.949 . S
C2812 C2818 1.368 . S
C2813 C2797 1.349 . S
C2813 H2805 0.950 . S
C2813 C2811 1.327 . S
C2814 C2802 1.349 . S
C2814 H2808 0.950 . S
C2814 C2815 1.327 . S
C2815 H2809 0.950 . S
C2815 C2814 1.327 . S
C2815 C2819 1.429 . S
C2816 C2799 1.574 . S
C2816 H2810 0.949 . S
C2816 C2820 1.368 . S
C2817 C2798 1.429 . S
C2817 C2811 1.429 . S
C2817 C2818 1.523 . S
C2818 C2799 1.368 . S
C2818 C2812 1.368 . S
C2818 C2817 1.523 . S
C2819 C2803 1.429 . S
C2819 C2815 1.429 . S
C2819 C2820 1.523 . S
C2820 C2804 1.368 . S
C2820 C2816 1.368 . S
C2820 C2819 1.523 . S
H2821 C2796 0.950 . S
H2822 C2798 0.950 . S
H2823 C2799 0.949 . S
H2824 C2801 0.950 . S
H2825 C2803 0.950 . S
C2826 C2827 1.349 . S
C2826 C2828 1.327 . S
C2826 H2851 0.950 . S
C2827 C2826 1.349 . S
C2827 C2843 1.349 . S
C2828 C2826 1.327 . S
C2828 C2847 1.429 . S
C2828 H2852 0.950 . S
C2829 C2846 1.574 . S
C2829 C2848 1.368 . S
C2829 H2853 0.949 . S
H2830 C2834 0.949 . S
C2831 C2832 1.349 . S
C2831 C2833 1.327 . S
C2831 H2854 0.950 . S
C2832 C2831 1.349 . S
C2832 C2844 1.349 . S
C2833 C2831 1.327 . S
C2833 C2849 1.429 . S
C2833 H2855 0.950 . S
C2834 H2830 0.949 . S
C2834 C2842 1.574 . S
C2834 C2850 1.368 . S
H2835 C2843 0.950 . S
H2836 C2841 0.950 . S
H2837 C2842 0.949 . S
H2838 C2844 0.950 . S
H2839 C2845 0.950 . S
H2840 C2846 0.949 . S
C2841 H2836 0.950 . S
C2841 C2843 1.327 . S
C2841 C2847 1.429 . S
C2842 C2834 1.574 . S
C2842 H2837 0.949 . S
C2842 C2848 1.368 . S
C2843 C2827 1.349 . S
C2843 H2835 0.950 . S
C2843 C2841 1.327 . S
C2844 C2832 1.349 . S
C2844 H2838 0.950 . S
C2844 C2845 1.327 . S
C2845 H2839 0.950 . S
C2845 C2844 1.327 . S
C2845 C2849 1.429 . S
C2846 C2829 1.574 . S
C2846 H2840 0.949 . S
C2846 C2850 1.368 . S
C2847 C2828 1.429 . S
C2847 C2841 1.429 . S
C2847 C2848 1.523 . S
C2848 C2829 1.368 . S
C2848 C2842 1.368 . S
C2848 C2847 1.523 . S
C2849 C2833 1.429 . S
C2849 C2845 1.429 . S
C2849 C2850 1.523 . S
C2850 C2834 1.368 . S
C2850 C2846 1.368 . S
C2850 C2849 1.523 . S
H2851 C2826 0.950 . S
H2852 C2828 0.950 . S
H2853 C2829 0.949 . S
H2854 C2831 0.950 . S
H2855 C2833 0.950 . S
C2856 C2857 1.349 . S
C2856 C2858 1.327 . S
C2856 H2881 0.950 . S
C2857 C2856 1.349 . S
C2857 C2873 1.349 . S
C2858 C2856 1.327 . S
C2858 C2877 1.429 . S
C2858 H2882 0.950 . S
C2859 C2876 1.574 . S
C2859 C2878 1.368 . S
C2859 H2883 0.949 . S
H2860 C2864 0.949 . S
C2861 C2862 1.349 . S
C2861 C2863 1.327 . S
C2861 H2884 0.950 . S
C2862 C2861 1.349 . S
C2862 C2874 1.349 . S
C2863 C2861 1.327 . S
C2863 C2879 1.429 . S
C2863 H2885 0.950 . S
C2864 H2860 0.949 . S
C2864 C2872 1.574 . S
C2864 C2880 1.368 . S
H2865 C2873 0.950 . S
H2866 C2871 0.950 . S
H2867 C2872 0.949 . S
H2868 C2874 0.950 . S
H2869 C2875 0.950 . S
H2870 C2876 0.949 . S
C2871 H2866 0.950 . S
C2871 C2873 1.327 . S
C2871 C2877 1.429 . S
C2872 C2864 1.574 . S
C2872 H2867 0.949 . S
C2872 C2878 1.368 . S
C2873 C2857 1.349 . S
C2873 H2865 0.950 . S
C2873 C2871 1.327 . S
C2874 C2862 1.349 . S
C2874 H2868 0.950 . S
C2874 C2875 1.327 . S
C2875 H2869 0.950 . S
C2875 C2874 1.327 . S
C2875 C2879 1.429 . S
C2876 C2859 1.574 . S
C2876 H2870 0.949 . S
C2876 C2880 1.368 . S
C2877 C2858 1.429 . S
C2877 C2871 1.429 . S
C2877 C2878 1.523 . S
C2878 C2859 1.368 . S
C2878 C2872 1.368 . S
C2878 C2877 1.523 . S
C2879 C2863 1.429 . S
C2879 C2875 1.429 . S
C2879 C2880 1.523 . S
C2880 C2864 1.368 . S
C2880 C2876 1.368 . S
C2880 C2879 1.523 . S
H2881 C2856 0.950 . S
H2882 C2858 0.950 . S
H2883 C2859 0.949 . S
H2884 C2861 0.950 . S
H2885 C2863 0.950 . S
C2886 C2887 1.349 . S
C2886 C2888 1.327 . S
C2886 H2911 0.950 . S
C2887 C2886 1.349 . S
C2887 C2903 1.349 . S
C2888 C2886 1.327 . S
C2888 C2907 1.429 . S
C2888 H2912 0.950 . S
C2889 C2906 1.574 . S
C2889 C2908 1.368 . S
C2889 H2913 0.949 . S
H2890 C2894 0.949 . S
C2891 C2892 1.349 . S
C2891 C2893 1.327 . S
C2891 H2914 0.950 . S
C2892 C2891 1.349 . S
C2892 C2904 1.349 . S
C2893 C2891 1.327 . S
C2893 C2909 1.429 . S
C2893 H2915 0.950 . S
C2894 H2890 0.949 . S
C2894 C2902 1.574 . S
C2894 C2910 1.368 . S
H2895 C2903 0.950 . S
H2896 C2901 0.950 . S
H2897 C2902 0.949 . S
H2898 C2904 0.950 . S
H2899 C2905 0.950 . S
H2900 C2906 0.949 . S
C2901 H2896 0.950 . S
C2901 C2903 1.327 . S
C2901 C2907 1.429 . S
C2902 C2894 1.574 . S
C2902 H2897 0.949 . S
C2902 C2908 1.368 . S
C2903 C2887 1.349 . S
C2903 H2895 0.950 . S
C2903 C2901 1.327 . S
C2904 C2892 1.349 . S
C2904 H2898 0.950 . S
C2904 C2905 1.327 . S
C2905 H2899 0.950 . S
C2905 C2904 1.327 . S
C2905 C2909 1.429 . S
C2906 C2889 1.574 . S
C2906 H2900 0.949 . S
C2906 C2910 1.368 . S
C2907 C2888 1.429 . S
C2907 C2901 1.429 . S
C2907 C2908 1.523 . S
C2908 C2889 1.368 . S
C2908 C2902 1.368 . S
C2908 C2907 1.523 . S
C2909 C2893 1.429 . S
C2909 C2905 1.429 . S
C2909 C2910 1.523 . S
C2910 C2894 1.368 . S
C2910 C2906 1.368 . S
C2910 C2909 1.523 . S
H2911 C2886 0.950 . S
H2912 C2888 0.950 . S
H2913 C2889 0.949 . S
H2914 C2891 0.950 . S
H2915 C2893 0.950 . S
C2916 C2917 1.349 . S
C2916 C2918 1.327 . S
C2916 H2941 0.950 . S
C2917 C2916 1.349 . S
C2917 C2933 1.349 . S
C2918 C2916 1.327 . S
C2918 C2937 1.429 . S
C2918 H2942 0.950 . S
C2919 C2936 1.574 . S
C2919 C2938 1.368 . S
C2919 H2943 0.949 . S
H2920 C2924 0.949 . S
C2921 C2922 1.349 . S
C2921 C2923 1.327 . S
C2921 H2944 0.950 . S
C2922 C2921 1.349 . S
C2922 C2934 1.349 . S
C2923 C2921 1.327 . S
C2923 C2939 1.429 . S
C2923 H2945 0.950 . S
C2924 H2920 0.949 . S
C2924 C2932 1.574 . S
C2924 C2940 1.368 . S
H2925 C2933 0.950 . S
H2926 C2931 0.950 . S
H2927 C2932 0.949 . S
H2928 C2934 0.950 . S
H2929 C2935 0.950 . S
H2930 C2936 0.949 . S
C2931 H2926 0.950 . S
C2931 C2933 1.327 . S
C2931 C2937 1.429 . S
C2932 C2924 1.574 . S
C2932 H2927 0.949 . S
C2932 C2938 1.368 . S
C2933 C2917 1.349 . S
C2933 H2925 0.950 . S
C2933 C2931 1.327 . S
C2934 C2922 1.349 . S
C2934 H2928 0.950 . S
C2934 C2935 1.327 . S
C2935 H2929 0.950 . S
C2935 C2934 1.327 . S
C2935 C2939 1.429 . S
C2936 C2919 1.574 . S
C2936 H2930 0.949 . S
C2936 C2940 1.368 . S
C2937 C2918 1.429 . S
C2937 C2931 1.429 . S
C2937 C2938 1.523 . S
C2938 C2919 1.368 . S
C2938 C2932 1.368 . S
C2938 C2937 1.523 . S
C2939 C2923 1.429 . S
C2939 C2935 1.429 . S
C2939 C2940 1.523 . S
C2940 C2924 1.368 . S
C2940 C2936 1.368 . S
C2940 C2939 1.523 . S
H2941 C2916 0.950 . S
H2942 C2918 0.950 . S
H2943 C2919 0.949 . S
H2944 C2921 0.950 . S
H2945 C2923 0.950 . S
C2946 C2947 1.349 . S
C2946 C2948 1.327 . S
C2946 H2971 0.950 . S
C2947 C2946 1.349 . S
C2947 C2963 1.349 . S
C2948 C2946 1.327 . S
C2948 C2967 1.429 . S
C2948 H2972 0.950 . S
C2949 C2966 1.574 . S
C2949 C2968 1.368 . S
C2949 H2973 0.949 . S
H2950 C2954 0.949 . S
C2951 C2952 1.349 . S
C2951 C2953 1.327 . S
C2951 H2974 0.950 . S
C2952 C2951 1.349 . S
C2952 C2964 1.349 . S
C2953 C2951 1.327 . S
C2953 C2969 1.429 . S
C2953 H2975 0.950 . S
C2954 H2950 0.949 . S
C2954 C2962 1.574 . S
C2954 C2970 1.368 . S
H2955 C2963 0.950 . S
H2956 C2961 0.950 . S
H2957 C2962 0.949 . S
H2958 C2964 0.950 . S
H2959 C2965 0.950 . S
H2960 C2966 0.949 . S
C2961 H2956 0.950 . S
C2961 C2963 1.327 . S
C2961 C2967 1.429 . S
C2962 C2954 1.574 . S
C2962 H2957 0.949 . S
C2962 C2968 1.368 . S
C2963 C2947 1.349 . S
C2963 H2955 0.950 . S
C2963 C2961 1.327 . S
C2964 C2952 1.349 . S
C2964 H2958 0.950 . S
C2964 C2965 1.327 . S
C2965 H2959 0.950 . S
C2965 C2964 1.327 . S
C2965 C2969 1.429 . S
C2966 C2949 1.574 . S
C2966 H2960 0.949 . S
C2966 C2970 1.368 . S
C2967 C2948 1.429 . S
C2967 C2961 1.429 . S
C2967 C2968 1.523 . S
C2968 C2949 1.368 . S
C2968 C2962 1.368 . S
C2968 C2967 1.523 . S
C2969 C2953 1.429 . S
C2969 C2965 1.429 . S
C2969 C2970 1.523 . S
C2970 C2954 1.368 . S
C2970 C2966 1.368 . S
C2970 C2969 1.523 . S
H2971 C2946 0.950 . S
H2972 C2948 0.950 . S
H2973 C2949 0.949 . S
H2974 C2951 0.950 . S
H2975 C2953 0.950 . S
C2976 C2977 1.349 . S
C2976 C2978 1.327 . S
C2976 H3001 0.950 . S
C2977 C2976 1.349 . S
C2977 C2993 1.349 . S
C2978 C2976 1.327 . S
C2978 C2997 1.429 . S
C2978 H3002 0.950 . S
C2979 C2996 1.574 . S
C2979 C2998 1.368 . S
C2979 H3003 0.949 . S
H2980 C2984 0.949 . S
C2981 C2982 1.349 . S
C2981 C2983 1.327 . S
C2981 H3004 0.950 . S
C2982 C2981 1.349 . S
C2982 C2994 1.349 . S
C2983 C2981 1.327 . S
C2983 C2999 1.429 . S
C2983 H3005 0.950 . S
C2984 H2980 0.949 . S
C2984 C2992 1.574 . S
C2984 C3000 1.368 . S
H2985 C2993 0.950 . S
H2986 C2991 0.950 . S
H2987 C2992 0.949 . S
H2988 C2994 0.950 . S
H2989 C2995 0.950 . S
H2990 C2996 0.949 . S
C2991 H2986 0.950 . S
C2991 C2993 1.327 . S
C2991 C2997 1.429 . S
C2992 C2984 1.574 . S
C2992 H2987 0.949 . S
C2992 C2998 1.368 . S
C2993 C2977 1.349 . S
C2993 H2985 0.950 . S
C2993 C2991 1.327 . S
C2994 C2982 1.349 . S
C2994 H2988 0.950 . S
C2994 C2995 1.327 . S
C2995 H2989 0.950 . S
C2995 C2994 1.327 . S
C2995 C2999 1.429 . S
C2996 C2979 1.574 . S
C2996 H2990 0.949 . S
C2996 C3000 1.368 . S
C2997 C2978 1.429 . S
C2997 C2991 1.429 . S
C2997 C2998 1.523 . S
C2998 C2979 1.368 . S
C2998 C2992 1.368 . S
C2998 C2997 1.523 . S
C2999 C2983 1.429 . S
C2999 C2995 1.429 . S
C2999 C3000 1.523 . S
C3000 C2984 1.368 . S
C3000 C2996 1.368 . S
C3000 C2999 1.523 . S
H3001 C2976 0.950 . S
H3002 C2978 0.950 . S
H3003 C2979 0.949 . S
H3004 C2981 0.950 . S
H3005 C2983 0.950 . S
C3006 C3007 1.349 . S
C3006 C3008 1.323 1_665 S
C3006 H3031 0.950 1_665 S
C3007 C3006 1.349 . S
C3007 C3023 1.349 . S
C3008 C3006 1.323 1_445 S
C3008 C3027 1.421 1_445 S
C3008 H3032 0.961 . S
C3009 C3026 1.574 . S
C3009 C3028 1.368 . S
C3009 H3033 0.949 . S
H3010 C3014 0.949 . S
C3011 C3012 1.349 . S
C3011 C3013 1.323 1_445 S
C3011 H3034 0.950 1_445 S
C3012 C3011 1.349 . S
C3012 C3024 1.349 . S
C3013 C3011 1.323 1_665 S
C3013 C3029 1.421 1_665 S
C3013 H3035 0.961 . S
C3014 H3010 0.949 . S
C3014 C3022 1.574 . S
C3014 C3030 1.368 . S
H3015 C3023 0.950 . S
H3016 C3021 0.950 . S
H3017 C3022 0.949 . S
H3018 C3024 0.950 . S
H3019 C3025 0.950 . S
H3020 C3026 0.949 . S
C3021 H3016 0.950 . S
C3021 C3023 1.327 . S
C3021 C3027 1.429 . S
C3022 C3014 1.574 . S
C3022 H3017 0.949 . S
C3022 C3028 1.368 1_445 S
C3023 C3007 1.349 . S
C3023 H3015 0.950 . S
C3023 C3021 1.327 . S
C3024 C3012 1.349 . S
C3024 H3018 0.950 . S
C3024 C3025 1.327 . S
C3025 H3019 0.950 . S
C3025 C3024 1.327 . S
C3025 C3029 1.429 . S
C3026 C3009 1.574 . S
C3026 H3020 0.949 . S
C3026 C3030 1.368 1_665 S
C3027 C3008 1.421 1_665 S
C3027 C3021 1.429 . S
C3027 C3028 1.523 . S
C3028 C3009 1.368 . S
C3028 C3022 1.368 1_665 S
C3028 C3027 1.523 . S
C3029 C3013 1.421 1_445 S
C3029 C3025 1.429 . S
C3029 C3030 1.523 . S
C3030 C3014 1.368 . S
C3030 C3026 1.368 1_445 S
C3030 C3029 1.523 . S
H3031 C3006 0.950 1_445 S
H3032 C3008 0.961 . S
H3033 C3009 0.949 . S
H3034 C3011 0.950 1_665 S
H3035 C3013 0.961 . S
C3036 C3037 1.349 . S
C3036 C3038 1.327 . S
C3036 H3061 0.950 . S
C3037 C3036 1.349 . S
C3037 C3053 1.349 . S
C3038 C3036 1.327 . S
C3038 C3057 1.429 . S
C3038 H3062 0.950 . S
C3039 C3056 1.574 . S
C3039 C3058 1.368 . S
C3039 H3063 0.949 . S
H3040 C3044 0.949 . S
C3041 C3042 1.349 . S
C3041 C3043 1.327 . S
C3041 H3064 0.950 . S
C3042 C3041 1.349 . S
C3042 C3054 1.349 . S
C3043 C3041 1.327 . S
C3043 C3059 1.429 . S
C3043 H3065 0.950 . S
C3044 H3040 0.949 . S
C3044 C3052 1.574 . S
C3044 C3060 1.368 . S
H3045 C3053 0.950 . S
H3046 C3051 0.950 . S
H3047 C3052 0.949 . S
H3048 C3054 0.950 . S
H3049 C3055 0.950 . S
H3050 C3056 0.949 . S
C3051 H3046 0.950 . S
C3051 C3053 1.327 . S
C3051 C3057 1.429 . S
C3052 C3044 1.574 . S
C3052 H3047 0.949 . S
C3052 C3058 1.368 . S
C3053 C3037 1.349 . S
C3053 H3045 0.950 . S
C3053 C3051 1.327 . S
C3054 C3042 1.349 . S
C3054 H3048 0.950 . S
C3054 C3055 1.327 . S
C3055 H3049 0.950 . S
C3055 C3054 1.327 . S
C3055 C3059 1.429 . S
C3056 C3039 1.574 . S
C3056 H3050 0.949 . S
C3056 C3060 1.368 . S
C3057 C3038 1.429 . S
C3057 C3051 1.429 . S
C3057 C3058 1.523 . S
C3058 C3039 1.368 . S
C3058 C3052 1.368 . S
C3058 C3057 1.523 . S
C3059 C3043 1.429 . S
C3059 C3055 1.429 . S
C3059 C3060 1.523 . S
C3060 C3044 1.368 . S
C3060 C3056 1.368 . S
C3060 C3059 1.523 . S
H3061 C3036 0.950 . S
H3062 C3038 0.950 . S
H3063 C3039 0.949 . S
H3064 C3041 0.950 . S
H3065 C3043 0.950 . S
C3066 C3067 1.349 . S
C3066 C3068 1.327 . S
C3066 H3091 0.967 . S
C3067 C3066 1.349 . S
C3067 C3083 1.349 . S
C3068 C3066 1.327 . S
C3068 C3087 1.429 . S
C3068 H3092 0.950 1_565 S
C3069 C3086 1.574 1_556 S
C3069 C3088 1.368 . S
C3069 H3093 0.949 . S
H3070 C3074 0.949 . S
C3071 C3072 1.349 . S
C3071 C3073 1.327 . S
C3071 H3094 0.967 . S
C3072 C3071 1.349 . S
C3072 C3084 1.349 . S
C3073 C3071 1.327 . S
C3073 C3089 1.429 . S
C3073 H3095 0.950 1_545 S
C3074 H3070 0.949 . S
C3074 C3082 1.574 1_554 S
C3074 C3090 1.368 . S
H3075 C3083 0.950 . S
H3076 C3081 0.950 . S
H3077 C3082 0.949 . S
H3078 C3084 0.950 . S
H3079 C3085 0.950 . S
H3080 C3086 0.949 . S
C3081 H3076 0.950 . S
C3081 C3083 1.327 . S
C3081 C3087 1.429 . S
C3082 C3074 1.574 1_556 S
C3082 H3077 0.949 . S
C3082 C3088 1.368 1_545 S
C3083 C3067 1.349 . S
C3083 H3075 0.950 . S
C3083 C3081 1.327 . S
C3084 C3072 1.349 . S
C3084 H3078 0.950 . S
C3084 C3085 1.327 . S
C3085 H3079 0.950 . S
C3085 C3084 1.327 . S
C3085 C3089 1.429 . S
C3086 C3069 1.574 1_554 S
C3086 H3080 0.949 . S
C3086 C3090 1.368 1_565 S
C3087 C3068 1.429 . S
C3087 C3081 1.429 . S
C3087 C3088 1.523 . S
C3088 C3069 1.368 . S
C3088 C3082 1.368 1_565 S
C3088 C3087 1.523 . S
C3089 C3073 1.429 . S
C3089 C3085 1.429 . S
C3089 C3090 1.523 . S
C3090 C3074 1.368 . S
C3090 C3086 1.368 1_545 S
C3090 C3089 1.523 . S
H3091 C3066 0.967 . S
H3092 C3068 0.950 1_545 S
H3093 C3069 0.949 . S
H3094 C3071 0.967 . S
H3095 C3073 0.950 1_565 S
C3096 C3097 1.349 . S
C3096 C3098 1.327 . S
C3096 H3121 0.950 . S
C3097 C3096 1.349 . S
C3097 C3113 1.349 . S
C3098 C3096 1.327 . S
C3098 C3117 1.429 . S
C3098 H3122 0.950 . S
C3099 C3116 1.574 . S
C3099 C3118 1.368 . S
C3099 H3123 0.949 . S
H3100 C3104 0.949 . S
C3101 C3102 1.349 . S
C3101 C3103 1.327 . S
C3101 H3124 0.950 . S
C3102 C3101 1.349 . S
C3102 C3114 1.349 . S
C3103 C3101 1.327 . S
C3103 C3119 1.429 . S
C3103 H3125 0.950 . S
C3104 H3100 0.949 . S
C3104 C3112 1.574 . S
C3104 C3120 1.368 . S
H3105 C3113 0.950 . S
H3106 C3111 0.950 . S
H3107 C3112 0.949 . S
H3108 C3114 0.950 . S
H3109 C3115 0.950 . S
H3110 C3116 0.949 . S
C3111 H3106 0.950 . S
C3111 C3113 1.327 . S
C3111 C3117 1.429 . S
C3112 C3104 1.574 . S
C3112 H3107 0.949 . S
C3112 C3118 1.368 . S
C3113 C3097 1.349 . S
C3113 H3105 0.950 . S
C3113 C3111 1.327 . S
C3114 C3102 1.349 . S
C3114 H3108 0.950 . S
C3114 C3115 1.327 . S
C3115 H3109 0.950 . S
C3115 C3114 1.327 . S
C3115 C3119 1.429 . S
C3116 C3099 1.574 . S
C3116 H3110 0.949 . S
C3116 C3120 1.368 . S
C3117 C3098 1.429 . S
C3117 C3111 1.429 . S
C3117 C3118 1.523 . S
C3118 C3099 1.368 . S
C3118 C3112 1.368 . S
C3118 C3117 1.523 . S
C3119 C3103 1.429 . S
C3119 C3115 1.429 . S
C3119 C3120 1.523 . S
C3120 C3104 1.368 . S
C3120 C3116 1.368 . S
C3120 C3119 1.523 . S
H3121 C3096 0.950 . S
H3122 C3098 0.950 . S
H3123 C3099 0.949 . S
H3124 C3101 0.950 . S
H3125 C3103 0.950 . S
C3126 C3127 1.349 . S
C3126 C3128 1.327 . S
C3126 H3151 0.950 . S
C3127 C3126 1.349 . S
C3127 C3143 1.349 . S
C3128 C3126 1.327 . S
C3128 C3147 1.429 . S
C3128 H3152 0.950 . S
C3129 C3146 1.574 . S
C3129 C3148 1.368 1_565 S
C3129 H3153 0.949 . S
H3130 C3134 0.949 . S
C3131 C3132 1.349 . S
C3131 C3133 1.327 . S
C3131 H3154 0.950 . S
C3132 C3131 1.349 . S
C3132 C3144 1.349 . S
C3133 C3131 1.327 . S
C3133 C3149 1.429 . S
C3133 H3155 0.950 . S
C3134 H3130 0.949 . S
C3134 C3142 1.574 . S
C3134 C3150 1.368 1_545 S
H3135 C3143 0.950 1_565 S
H3136 C3141 0.950 . S
H3137 C3142 0.949 . S
H3138 C3144 0.950 1_545 S
H3139 C3145 0.950 . S
H3140 C3146 0.949 . S
C3141 H3136 0.950 . S
C3141 C3143 1.327 1_565 S
C3141 C3147 1.429 1_565 S
C3142 C3134 1.574 . S
C3142 H3137 0.949 . S
C3142 C3148 1.368 . S
C3143 C3127 1.349 . S
C3143 H3135 0.950 1_545 S
C3143 C3141 1.327 1_545 S
C3144 C3132 1.349 . S
C3144 H3138 0.950 1_565 S
C3144 C3145 1.327 1_565 S
C3145 H3139 0.950 . S
C3145 C3144 1.327 1_545 S
C3145 C3149 1.429 1_545 S
C3146 C3129 1.574 . S
C3146 H3140 0.949 . S
C3146 C3150 1.368 . S
C3147 C3128 1.429 . S
C3147 C3141 1.429 1_545 S
C3147 C3148 1.523 . S
C3148 C3129 1.368 1_545 S
C3148 C3142 1.368 . S
C3148 C3147 1.523 . S
C3149 C3133 1.429 . S
C3149 C3145 1.429 1_565 S
C3149 C3150 1.523 . S
C3150 C3134 1.368 1_565 S
C3150 C3146 1.368 . S
C3150 C3149 1.523 . S
H3151 C3126 0.950 . S
H3152 C3128 0.950 . S
H3153 C3129 0.949 . S
H3154 C3131 0.950 . S
H3155 C3133 0.950 . S
C3156 C3157 1.349 . S
C3156 C3158 1.327 . S
C3156 H3181 0.950 . S
C3157 C3156 1.349 . S
C3157 C3173 1.349 . S
C3158 C3156 1.327 . S
C3158 C3177 1.429 . S
C3158 H3182 0.950 . S
C3159 C3176 1.574 . S
C3159 C3178 1.368 . S
C3159 H3183 0.949 . S
H3160 C3164 0.949 . S
C3161 C3162 1.349 . S
C3161 C3163 1.327 . S
C3161 H3184 0.950 . S
C3162 C3161 1.349 . S
C3162 C3174 1.349 . S
C3163 C3161 1.327 . S
C3163 C3179 1.429 . S
C3163 H3185 0.950 . S
C3164 H3160 0.949 . S
C3164 C3172 1.574 . S
C3164 C3180 1.368 . S
H3165 C3173 0.950 . S
H3166 C3171 0.950 . S
H3167 C3172 0.949 . S
H3168 C3174 0.950 . S
H3169 C3175 0.950 . S
H3170 C3176 0.949 . S
C3171 H3166 0.950 . S
C3171 C3173 1.327 . S
C3171 C3177 1.429 . S
C3172 C3164 1.574 . S
C3172 H3167 0.949 . S
C3172 C3178 1.368 . S
C3173 C3157 1.349 . S
C3173 H3165 0.950 . S
C3173 C3171 1.327 . S
C3174 C3162 1.349 . S
C3174 H3168 0.950 . S
C3174 C3175 1.327 . S
C3175 H3169 0.950 . S
C3175 C3174 1.327 . S
C3175 C3179 1.429 . S
C3176 C3159 1.574 . S
C3176 H3170 0.949 . S
C3176 C3180 1.368 . S
C3177 C3158 1.429 . S
C3177 C3171 1.429 . S
C3177 C3178 1.523 . S
C3178 C3159 1.368 . S
C3178 C3172 1.368 . S
C3178 C3177 1.523 . S
C3179 C3163 1.429 . S
C3179 C3175 1.429 . S
C3179 C3180 1.523 . S
C3180 C3164 1.368 . S
C3180 C3176 1.368 . S
C3180 C3179 1.523 . S
H3181 C3156 0.950 . S
H3182 C3158 0.950 . S
H3183 C3159 0.949 . S
H3184 C3161 0.950 . S
H3185 C3163 0.950 . S
C3186 C3187 1.349 . S
C3186 C3188 1.326 1_455 S
C3186 H3211 0.950 1_455 S
C3187 C3186 1.349 . S
C3187 C3203 1.349 . S
C3188 C3186 1.326 1_655 S
C3188 C3207 1.427 1_655 S
C3188 H3212 0.952 . S
C3189 C3206 1.574 1_554 S
C3189 C3208 1.368 1_545 S
C3189 H3213 0.949 . S
H3190 C3194 0.949 . S
C3191 C3192 1.349 . S
C3191 C3193 1.326 1_655 S
C3191 H3214 0.950 1_655 S
C3192 C3191 1.349 . S
C3192 C3204 1.349 . S
C3193 C3191 1.326 1_455 S
C3193 C3209 1.427 1_455 S
C3193 H3215 0.952 . S
C3194 H3190 0.949 . S
C3194 C3202 1.574 1_556 S
C3194 C3210 1.368 1_565 S
H3195 C3203 0.950 1_545 S
H3196 C3201 0.950 . S
H3197 C3202 0.949 . S
H3198 C3204 0.950 1_565 S
H3199 C3205 0.950 . S
H3200 C3206 0.949 . S
C3201 H3196 0.950 . S
C3201 C3203 1.327 1_545 S
C3201 C3207 1.429 1_545 S
C3202 C3194 1.574 1_554 S
C3202 H3197 0.949 . S
C3202 C3208 1.368 1_655 S
C3203 C3187 1.349 . S
C3203 H3195 0.950 1_565 S
C3203 C3201 1.327 1_565 S
C3204 C3192 1.349 . S
C3204 H3198 0.950 1_545 S
C3204 C3205 1.327 1_545 S
C3205 H3199 0.950 . S
C3205 C3204 1.327 1_565 S
C3205 C3209 1.429 1_565 S
C3206 C3189 1.574 1_556 S
C3206 H3200 0.949 . S
C3206 C3210 1.368 1_455 S
C3207 C3188 1.427 1_455 S
C3207 C3201 1.429 1_565 S
C3207 C3208 1.523 . S
C3208 C3189 1.368 1_565 S
C3208 C3202 1.368 1_455 S
C3208 C3207 1.523 . S
C3209 C3193 1.427 1_655 S
C3209 C3205 1.429 1_545 S
C3209 C3210 1.523 . S
C3210 C3194 1.368 1_545 S
C3210 C3206 1.368 1_655 S
C3210 C3209 1.523 . S
H3211 C3186 0.950 1_655 S
H3212 C3188 0.952 . S
H3213 C3189 0.949 . S
H3214 C3191 0.950 1_455 S
H3215 C3193 0.952 . S
C3216 C3217 1.349 . S
C3216 C3218 1.327 . S
C3216 H3241 0.950 . S
C3217 C3216 1.349 . S
C3217 C3233 1.349 . S
C3218 C3216 1.327 . S
C3218 C3237 1.429 . S
C3218 H3242 0.950 . S
C3219 C3236 1.574 . S
C3219 C3238 1.368 . S
C3219 H3243 0.949 . S
H3220 C3224 0.949 . S
C3221 C3222 1.349 . S
C3221 C3223 1.327 . S
C3221 H3244 0.950 . S
C3222 C3221 1.349 . S
C3222 C3234 1.349 . S
C3223 C3221 1.327 . S
C3223 C3239 1.429 . S
C3223 H3245 0.950 . S
C3224 H3220 0.949 . S
C3224 C3232 1.574 . S
C3224 C3240 1.368 . S
H3225 C3233 0.950 . S
H3226 C3231 0.950 . S
H3227 C3232 0.949 . S
H3228 C3234 0.950 . S
H3229 C3235 0.950 . S
H3230 C3236 0.949 . S
C3231 H3226 0.950 . S
C3231 C3233 1.327 . S
C3231 C3237 1.429 . S
C3232 C3224 1.574 . S
C3232 H3227 0.949 . S
C3232 C3238 1.368 . S
C3233 C3217 1.349 . S
C3233 H3225 0.950 . S
C3233 C3231 1.327 . S
C3234 C3222 1.349 . S
C3234 H3228 0.950 . S
C3234 C3235 1.327 . S
C3235 H3229 0.950 . S
C3235 C3234 1.327 . S
C3235 C3239 1.429 . S
C3236 C3219 1.574 . S
C3236 H3230 0.949 . S
C3236 C3240 1.368 . S
C3237 C3218 1.429 . S
C3237 C3231 1.429 . S
C3237 C3238 1.523 . S
C3238 C3219 1.368 . S
C3238 C3232 1.368 . S
C3238 C3237 1.523 . S
C3239 C3223 1.429 . S
C3239 C3235 1.429 . S
C3239 C3240 1.523 . S
C3240 C3224 1.368 . S
C3240 C3236 1.368 . S
C3240 C3239 1.523 . S
H3241 C3216 0.950 . S
H3242 C3218 0.950 . S
H3243 C3219 0.949 . S
H3244 C3221 0.950 . S
H3245 C3223 0.950 . S
C3246 C3247 1.349 . S
C3246 C3248 1.327 . S
C3246 H3271 0.950 . S
C3247 C3246 1.349 . S
C3247 C3263 1.349 . S
C3248 C3246 1.327 . S
C3248 C3267 1.429 . S
C3248 H3272 0.950 . S
C3249 C3266 1.574 . S
C3249 C3268 1.368 . S
C3249 H3273 0.949 . S
H3250 C3254 0.949 . S
C3251 C3252 1.349 . S
C3251 C3253 1.327 . S
C3251 H3274 0.950 . S
C3252 C3251 1.349 . S
C3252 C3264 1.349 . S
C3253 C3251 1.327 . S
C3253 C3269 1.429 . S
C3253 H3275 0.950 . S
C3254 H3250 0.949 . S
C3254 C3262 1.574 . S
C3254 C3270 1.368 . S
H3255 C3263 0.950 . S
H3256 C3261 0.950 . S
H3257 C3262 0.949 . S
H3258 C3264 0.950 . S
H3259 C3265 0.950 . S
H3260 C3266 0.949 . S
C3261 H3256 0.950 . S
C3261 C3263 1.327 . S
C3261 C3267 1.429 . S
C3262 C3254 1.574 . S
C3262 H3257 0.949 . S
C3262 C3268 1.368 . S
C3263 C3247 1.349 . S
C3263 H3255 0.950 . S
C3263 C3261 1.327 . S
C3264 C3252 1.349 . S
C3264 H3258 0.950 . S
C3264 C3265 1.327 . S
C3265 H3259 0.950 . S
C3265 C3264 1.327 . S
C3265 C3269 1.429 . S
C3266 C3249 1.574 . S
C3266 H3260 0.949 . S
C3266 C3270 1.368 . S
C3267 C3248 1.429 . S
C3267 C3261 1.429 . S
C3267 C3268 1.523 . S
C3268 C3249 1.368 . S
C3268 C3262 1.368 . S
C3268 C3267 1.523 . S
C3269 C3253 1.429 . S
C3269 C3265 1.429 . S
C3269 C3270 1.523 . S
C3270 C3254 1.368 . S
C3270 C3266 1.368 . S
C3270 C3269 1.523 . S
H3271 C3246 0.950 . S
H3272 C3248 0.950 . S
H3273 C3249 0.949 . S
H3274 C3251 0.950 . S
H3275 C3253 0.950 . S
C3276 C3277 1.349 . S
C3276 C3278 1.327 . S
C3276 H3301 0.950 . S
C3277 C3276 1.349 . S
C3277 C3293 1.349 . S
C3278 C3276 1.327 . S
C3278 C3297 1.429 . S
C3278 H3302 0.950 . S
C3279 C3296 1.574 . S
C3279 C3298 1.368 . S
C3279 H3303 0.949 . S
H3280 C3284 0.949 . S
C3281 C3282 1.349 . S
C3281 C3283 1.327 . S
C3281 H3304 0.950 . S
C3282 C3281 1.349 . S
C3282 C3294 1.349 . S
C3283 C3281 1.327 . S
C3283 C3299 1.429 . S
C3283 H3305 0.950 . S
C3284 H3280 0.949 . S
C3284 C3292 1.574 . S
C3284 C3300 1.368 . S
H3285 C3293 0.950 . S
H3286 C3291 0.950 . S
H3287 C3292 0.949 . S
H3288 C3294 0.950 . S
H3289 C3295 0.950 . S
H3290 C3296 0.949 . S
C3291 H3286 0.950 . S
C3291 C3293 1.327 . S
C3291 C3297 1.429 . S
C3292 C3284 1.574 . S
C3292 H3287 0.949 . S
C3292 C3298 1.368 . S
C3293 C3277 1.349 . S
C3293 H3285 0.950 . S
C3293 C3291 1.327 . S
C3294 C3282 1.349 . S
C3294 H3288 0.950 . S
C3294 C3295 1.327 . S
C3295 H3289 0.950 . S
C3295 C3294 1.327 . S
C3295 C3299 1.429 . S
C3296 C3279 1.574 . S
C3296 H3290 0.949 . S
C3296 C3300 1.368 . S
C3297 C3278 1.429 . S
C3297 C3291 1.429 . S
C3297 C3298 1.523 . S
C3298 C3279 1.368 . S
C3298 C3292 1.368 . S
C3298 C3297 1.523 . S
C3299 C3283 1.429 . S
C3299 C3295 1.429 . S
C3299 C3300 1.523 . S
C3300 C3284 1.368 . S
C3300 C3296 1.368 . S
C3300 C3299 1.523 . S
H3301 C3276 0.950 . S
H3302 C3278 0.950 . S
H3303 C3279 0.949 . S
H3304 C3281 0.950 . S
H3305 C3283 0.950 . S
C3306 C3307 1.349 . S
C3306 C3308 1.327 . S
C3306 H3331 0.950 . S
C3307 C3306 1.349 . S
C3307 C3323 1.349 . S
C3308 C3306 1.327 . S
C3308 C3327 1.429 . S
C3308 H3332 0.950 . S
C3309 C3326 1.574 . S
C3309 C3328 1.368 . S
C3309 H3333 0.949 . S
H3310 C3314 0.949 . S
C3311 C3312 1.349 . S
C3311 C3313 1.327 . S
C3311 H3334 0.950 . S
C3312 C3311 1.349 . S
C3312 C3324 1.349 . S
C3313 C3311 1.327 . S
C3313 C3329 1.429 . S
C3313 H3335 0.950 . S
C3314 H3310 0.949 . S
C3314 C3322 1.574 . S
C3314 C3330 1.368 . S
H3315 C3323 0.950 . S
H3316 C3321 0.950 . S
H3317 C3322 0.949 . S
H3318 C3324 0.950 . S
H3319 C3325 0.950 . S
H3320 C3326 0.949 . S
C3321 H3316 0.950 . S
C3321 C3323 1.327 . S
C3321 C3327 1.429 . S
C3322 C3314 1.574 . S
C3322 H3317 0.949 . S
C3322 C3328 1.368 . S
C3323 C3307 1.349 . S
C3323 H3315 0.950 . S
C3323 C3321 1.327 . S
C3324 C3312 1.349 . S
C3324 H3318 0.950 . S
C3324 C3325 1.327 . S
C3325 H3319 0.950 . S
C3325 C3324 1.327 . S
C3325 C3329 1.429 . S
C3326 C3309 1.574 . S
C3326 H3320 0.949 . S
C3326 C3330 1.368 . S
C3327 C3308 1.429 . S
C3327 C3321 1.429 . S
C3327 C3328 1.523 . S
C3328 C3309 1.368 . S
C3328 C3322 1.368 . S
C3328 C3327 1.523 . S
C3329 C3313 1.429 . S
C3329 C3325 1.429 . S
C3329 C3330 1.523 . S
C3330 C3314 1.368 . S
C3330 C3326 1.368 . S
C3330 C3329 1.523 . S
H3331 C3306 0.950 . S
H3332 C3308 0.950 . S
H3333 C3309 0.949 . S
H3334 C3311 0.950 . S
H3335 C3313 0.950 . S
C3336 C3337 1.349 . S
C3336 C3338 1.327 . S
C3336 H3361 0.950 . S
C3337 C3336 1.349 . S
C3337 C3353 1.349 . S
C3338 C3336 1.327 . S
C3338 C3357 1.429 . S
C3338 H3362 0.950 . S
C3339 C3356 1.574 1_554 S
C3339 C3358 1.368 . S
C3339 H3363 0.949 . S
H3340 C3344 0.949 . S
C3341 C3342 1.349 . S
C3341 C3343 1.327 . S
C3341 H3364 0.950 . S
C3342 C3341 1.349 . S
C3342 C3354 1.349 . S
C3343 C3341 1.327 . S
C3343 C3359 1.429 . S
C3343 H3365 0.950 . S
C3344 H3340 0.949 . S
C3344 C3352 1.574 1_556 S
C3344 C3360 1.368 . S
H3345 C3353 0.950 . S
H3346 C3351 0.950 . S
H3347 C3352 0.949 . S
H3348 C3354 0.950 . S
H3349 C3355 0.950 . S
H3350 C3356 0.949 . S
C3351 H3346 0.950 . S
C3351 C3353 1.327 . S
C3351 C3357 1.429 . S
C3352 C3344 1.574 1_554 S
C3352 H3347 0.949 . S
C3352 C3358 1.368 . S
C3353 C3337 1.349 . S
C3353 H3345 0.950 . S
C3353 C3351 1.327 . S
C3354 C3342 1.349 . S
C3354 H3348 0.950 . S
C3354 C3355 1.327 . S
C3355 H3349 0.950 . S
C3355 C3354 1.327 . S
C3355 C3359 1.429 . S
C3356 C3339 1.574 1_556 S
C3356 H3350 0.949 . S
C3356 C3360 1.368 . S
C3357 C3338 1.429 . S
C3357 C3351 1.429 . S
C3357 C3358 1.523 . S
C3358 C3339 1.368 . S
C3358 C3352 1.368 . S
C3358 C3357 1.523 . S
C3359 C3343 1.429 . S
C3359 C3355 1.429 . S
C3359 C3360 1.523 . S
C3360 C3344 1.368 . S
C3360 C3356 1.368 . S
C3360 C3359 1.523 . S
H3361 C3336 0.950 . S
H3362 C3338 0.950 . S
H3363 C3339 0.949 . S
H3364 C3341 0.950 . S
H3365 C3343 0.950 . S
C3366 C3367 1.358 . S
C3366 C3368 1.325 1_455 S
C3366 H3391 0.943 1_455 S
C3367 C3366 1.358 . S
C3367 C3383 1.349 . S
C3368 C3366 1.325 1_655 S
C3368 C3387 1.429 1_655 S
C3368 H3392 0.950 . S
C3369 C3386 1.574 . S
C3369 C3388 1.368 . S
C3369 H3393 0.949 . S
H3370 C3374 0.949 . S
C3371 C3372 1.358 . S
C3371 C3373 1.325 1_655 S
C3371 H3394 0.943 1_655 S
C3372 C3371 1.358 . S
C3372 C3384 1.349 . S
C3373 C3371 1.325 1_455 S
C3373 C3389 1.429 1_455 S
C3373 H3395 0.950 . S
C3374 H3370 0.949 . S
C3374 C3382 1.574 . S
C3374 C3390 1.368 . S
H3375 C3383 0.950 . S
H3376 C3381 0.950 . S
H3377 C3382 0.949 . S
H3378 C3384 0.950 . S
H3379 C3385 0.950 . S
H3380 C3386 0.949 . S
C3381 H3376 0.950 . S
C3381 C3383 1.327 . S
C3381 C3387 1.429 . S
C3382 C3374 1.574 . S
C3382 H3377 0.949 . S
C3382 C3388 1.368 1_655 S
C3383 C3367 1.349 . S
C3383 H3375 0.950 . S
C3383 C3381 1.327 . S
C3384 C3372 1.349 . S
C3384 H3378 0.950 . S
C3384 C3385 1.327 . S
C3385 H3379 0.950 . S
C3385 C3384 1.327 . S
C3385 C3389 1.429 . S
C3386 C3369 1.574 . S
C3386 H3380 0.949 . S
C3386 C3390 1.368 1_455 S
C3387 C3368 1.429 1_455 S
C3387 C3381 1.429 . S
C3387 C3388 1.523 . S
C3388 C3369 1.368 . S
C3388 C3382 1.368 1_455 S
C3388 C3387 1.523 . S
C3389 C3373 1.429 1_655 S
C3389 C3385 1.429 . S
C3389 C3390 1.523 . S
C3390 C3374 1.368 . S
C3390 C3386 1.368 1_655 S
C3390 C3389 1.523 . S
H3391 C3366 0.943 1_655 S
H3392 C3368 0.950 . S
H3393 C3369 0.949 . S
H3394 C3371 0.943 1_455 S
H3395 C3373 0.950 . S
C3396 C3397 1.349 . S
C3396 C3398 1.327 1_455 S
C3396 H3421 0.950 1_455 S
C3397 C3396 1.349 . S
C3397 C3413 1.349 . S
C3398 C3396 1.327 1_655 S
C3398 C3417 1.429 1_655 S
C3398 H3422 0.950 . S
C3399 C3416 1.574 1_556 S
C3399 C3418 1.368 . S
C3399 H3423 0.949 . S
H3400 C3404 0.949 . S
C3401 C3402 1.349 . S
C3401 C3403 1.327 1_655 S
C3401 H3424 0.950 1_655 S
C3402 C3401 1.349 . S
C3402 C3414 1.349 . S
C3403 C3401 1.327 1_455 S
C3403 C3419 1.429 1_455 S
C3403 H3425 0.950 . S
C3404 H3400 0.949 . S
C3404 C3412 1.574 1_554 S
C3404 C3420 1.368 . S
H3405 C3413 0.950 . S
H3406 C3411 0.950 . S
H3407 C3412 0.949 . S
H3408 C3414 0.950 . S
H3409 C3415 0.950 . S
H3410 C3416 0.949 . S
C3411 H3406 0.950 . S
C3411 C3413 1.327 . S
C3411 C3417 1.429 . S
C3412 C3404 1.574 1_556 S
C3412 H3407 0.949 . S
C3412 C3418 1.368 1_655 S
C3413 C3397 1.349 . S
C3413 H3405 0.950 . S
C3413 C3411 1.327 . S
C3414 C3402 1.349 . S
C3414 H3408 0.950 . S
C3414 C3415 1.327 . S
C3415 H3409 0.950 . S
C3415 C3414 1.327 . S
C3415 C3419 1.429 . S
C3416 C3399 1.574 1_554 S
C3416 H3410 0.949 . S
C3416 C3420 1.368 1_455 S
C3417 C3398 1.429 1_455 S
C3417 C3411 1.429 . S
C3417 C3418 1.523 . S
C3418 C3399 1.368 . S
C3418 C3412 1.368 1_455 S
C3418 C3417 1.523 . S
C3419 C3403 1.429 1_655 S
C3419 C3415 1.429 . S
C3419 C3420 1.523 . S
C3420 C3404 1.368 . S
C3420 C3416 1.368 1_655 S
C3420 C3419 1.523 . S
H3421 C3396 0.950 1_655 S
H3422 C3398 0.950 . S
H3423 C3399 0.949 . S
H3424 C3401 0.950 1_455 S
H3425 C3403 0.950 . S
C3426 C3427 1.349 . S
C3426 C3428 1.327 . S
C3426 H3451 0.950 . S
C3427 C3426 1.349 . S
C3427 C3443 1.349 . S
C3428 C3426 1.327 . S
C3428 C3447 1.429 . S
C3428 H3452 0.950 . S
C3429 C3446 1.574 . S
C3429 C3448 1.368 . S
C3429 H3453 0.949 . S
H3430 C3434 0.949 . S
C3431 C3432 1.349 . S
C3431 C3433 1.327 . S
C3431 H3454 0.950 . S
C3432 C3431 1.349 . S
C3432 C3444 1.349 . S
C3433 C3431 1.327 . S
C3433 C3449 1.429 . S
C3433 H3455 0.950 . S
C3434 H3430 0.949 . S
C3434 C3442 1.574 . S
C3434 C3450 1.368 . S
H3435 C3443 0.950 . S
H3436 C3441 0.950 . S
H3437 C3442 0.949 . S
H3438 C3444 0.950 . S
H3439 C3445 0.950 . S
H3440 C3446 0.949 . S
C3441 H3436 0.950 . S
C3441 C3443 1.327 . S
C3441 C3447 1.429 . S
C3442 C3434 1.574 . S
C3442 H3437 0.949 . S
C3442 C3448 1.368 . S
C3443 C3427 1.349 . S
C3443 H3435 0.950 . S
C3443 C3441 1.327 . S
C3444 C3432 1.349 . S
C3444 H3438 0.950 . S
C3444 C3445 1.327 . S
C3445 H3439 0.950 . S
C3445 C3444 1.327 . S
C3445 C3449 1.429 . S
C3446 C3429 1.574 . S
C3446 H3440 0.949 . S
C3446 C3450 1.368 . S
C3447 C3428 1.429 . S
C3447 C3441 1.429 . S
C3447 C3448 1.523 . S
C3448 C3429 1.368 . S
C3448 C3442 1.368 . S
C3448 C3447 1.523 . S
C3449 C3433 1.429 . S
C3449 C3445 1.429 . S
C3449 C3450 1.523 . S
C3450 C3434 1.368 . S
C3450 C3446 1.368 . S
C3450 C3449 1.523 . S
H3451 C3426 0.950 . S
H3452 C3428 0.950 . S
H3453 C3429 0.949 . S
H3454 C3431 0.950 . S
H3455 C3433 0.950 . S
C1057 N607 0.951 . S
C1062 N13 0.951 . S
C1087 N46 0.959 . S
C1092 N640 0.959 . S
C1117 N79 0.952 . S
C1122 N541 0.952 . S
C1147 N574 0.952 . S
C1152 N112 0.952 . S
C1177 N145 0.952 . S
C1182 N739 0.952 . S
C1207 N772 0.951 . S
C1212 N178 0.951 . S
C1237 N211 0.951 . S
C1242 N673 0.951 . S
C1267 N244 0.959 . S
C1272 N706 0.959 . S
C1297 N277 0.951 . S
C1302 N871 0.951 . S
C1327 N904 0.959 . S
C1332 N310 0.959 . S
C1357 N343 0.952 . S
C1362 N805 0.952 . S
C1387 N376 0.952 . S
C1392 N838 0.952 . S
C1417 N409 0.952 . S
C1422 N1003 0.952 . S
C1447 N1036 0.951 . S
C1452 N442 0.951 . S
C1477 N937 0.951 . S
C1482 N475 0.951 . S
C1507 N970 0.959 . S
C1512 N508 0.959 . S
C1537 C384 0.528 . S
C1542 C7 0.397 . S
C1567 C813 0.528 . S
C1572 C40 0.397 . S
C1597 C73 0.397 . S
C1602 C318 0.528 . S
C1627 C879 0.528 . S
C1632 C106 0.397 . S
C1657 C450 0.528 . S
C1662 C139 0.397 . S
C1687 C172 0.397 . S
C1692 C1011 0.528 . S
C1717 C516 0.528 . S
C1722 C205 0.397 . S
C1747 C945 0.528 . S
C1752 C238 0.397 . S
C1777 C120 0.528 . S
C1782 C271 0.397 . S
C1807 C304 0.397 . S
C1812 C549 0.528 . S
C1837 C337 0.397 . S
C1842 C54 0.528 . S
C1867 C615 0.528 . S
C1872 C370 0.397 . S
C1897 C403 0.397 . S
C1902 C186 0.528 . S
C1927 C747 0.528 . S
C1932 C436 0.397 . S
C1957 C469 0.397 . S
C1962 C252 0.528 . S
C1987 C502 0.397 . S
C1992 C681 0.528 . S
C2017 C912 0.528 . S
C2022 C535 0.397 . S
C2047 C568 0.397 . S
C2052 C285 0.528 . S
C2077 C601 0.397 . S
C2082 C846 0.528 . S
C2107 C351 0.528 . S
C2112 C634 0.397 . S
C2137 C667 0.397 . S
C2142 C978 0.528 . S
C2167 C700 0.397 . S
C2172 C483 0.528 . S
C2197 C1044 0.528 . S
C2202 C733 0.397 . S
C2227 C417 0.528 . S
C2232 C766 0.397 . S
C2257 C648 0.528 . S
C2262 C799 0.397 . S
C2287 C832 0.397 . S
C2292 C21 0.528 . S
C2317 C865 0.397 . S
C2322 C582 0.528 . S
C2347 C87 0.528 . S
C2352 C898 0.397 . S
C2377 C931 0.397 . S
C2382 C714 0.528 . S
C2407 C964 0.397 . S
C2412 C219 0.528 . S
C2437 C780 0.528 . S
C2442 C997 0.397 . S
C2467 C153 0.528 . S
C2472 C1030 0.397 . S
C2497 N233 1.643 . S
C2502 N2 1.643 . S
C2527 N134 1.643 . S
C2532 N35 1.643 . S
C2557 N68 1.643 . S
C2562 N167 1.643 . S
C2587 N200 1.643 . S
C2592 N101 1.643 . S
C2617 N497 1.643 . S
C2622 N266 1.643 . S
C2647 N299 1.643 . S
C2652 N398 1.643 . S
C2677 N431 1.643 . S
C2682 N332 1.643 . S
C2707 N464 1.643 . S
C2712 N365 1.643 . S
C2737 N761 1.643 . S
C2742 N530 1.643 . S
C2767 N662 1.643 . S
C2772 N563 1.643 . S
C2797 N695 1.643 . S
C2802 N596 1.643 . S
C2827 N728 1.643 . S
C2832 N629 1.643 . S
C2857 N794 1.643 . S
C2862 N1025 1.643 . S
C2887 N827 1.643 . S
C2892 N926 1.643 . S
C2917 N860 1.643 . S
C2922 N959 1.643 . S
C2947 N992 1.643 . S
C2952 N893 1.643 . S
C2977 C18 1.055 . S
C2982 C810 1.055 . S
C3007 C315 1.054 . S
C3012 C51 1.054 . S
C3037 C876 1.054 . S
C3042 C84 1.054 . S
C3067 C117 1.054 . S
C3072 C381 1.054 . S
C3097 C150 1.054 . S
C3102 C942 1.054 . S
C3127 C183 1.055 . S
C3132 C447 1.055 . S
C3157 C1008 1.054 . S
C3162 C216 1.054 . S
C3187 C249 1.054 . S
C3192 C513 1.054 . S
C3217 C546 1.055 . S
C3222 C282 1.055 . S
C3247 C612 1.054 . S
C3252 C348 1.054 . S
C3277 C414 1.054 . S
C3282 C678 1.054 . S
C3307 C480 1.054 . S
C3312 C744 1.054 . S
C3337 C843 1.055 . S
C3342 C579 1.055 . S
C3367 C909 1.055 . S
C3372 C645 1.055 . S
C3397 C975 1.054 . S
C3402 C711 1.054 . S
C3427 C1041 1.055 . S
C3432 C777 1.055 . S
