# Generated by pormake.
# Topology wiu, (6)-cn, num edge types: 1
# Building blocks:
#     Node 0, Type 0, BuildingBlock: CUKXOW_clean_sbu_0, # of connection points: 6
#     Node 1, Type 0, BuildingBlock: CUKXOW_clean_sbu_0, # of connection points: 6
#     Node 2, Type 0, BuildingBlock: CUKXOW_clean_sbu_0, # of connection points: 6
#     Node 3, Type 0, BuildingBlock: CUKXOW_clean_sbu_0, # of connection points: 6
#     Node 4, Type 0, BuildingBlock: CUKXOW_clean_sbu_0, # of connection points: 6
#     Node 5, Type 0, BuildingBlock: CUKXOW_clean_sbu_0, # of connection points: 6
#     Node 6, Type 0, BuildingBlock: CUKXOW_clean_sbu_0, # of connection points: 6
#     Node 7, Type 0, BuildingBlock: CUKXOW_clean_sbu_0, # of connection points: 6
#     Node 8, Type 0, BuildingBlock: CUKXOW_clean_sbu_0, # of connection points: 6
#     Node 9, Type 0, BuildingBlock: CUKXOW_clean_sbu_0, # of connection points: 6
#     Node 10, Type 0, BuildingBlock: CUKXOW_clean_sbu_0, # of connection points: 6
#     Node 11, Type 0, BuildingBlock: CUKXOW_clean_sbu_0, # of connection points: 6
#     Node 12, Type 0, BuildingBlock: CUKXOW_clean_sbu_0, # of connection points: 6
#     Node 13, Type 0, BuildingBlock: CUKXOW_clean_sbu_0, # of connection points: 6
#     Node 14, Type 0, BuildingBlock: CUKXOW_clean_sbu_0, # of connection points: 6
#     Node 15, Type 0, BuildingBlock: CUKXOW_clean_sbu_0, # of connection points: 6
#     Edge 16, Type (0, 0), BuildingBlock: CIFDUS_clean_linker_0, # of connection points: 2
#     Edge 17, Type (0, 0), BuildingBlock: CIFDUS_clean_linker_0, # of connection points: 2
#     Edge 18, Type (0, 0), BuildingBlock: CIFDUS_clean_linker_0, # of connection points: 2
#     Edge 19, Type (0, 0), BuildingBlock: CIFDUS_clean_linker_0, # of connection points: 2
#     Edge 20, Type (0, 0), BuildingBlock: CIFDUS_clean_linker_0, # of connection points: 2
#     Edge 21, Type (0, 0), BuildingBlock: CIFDUS_clean_linker_0, # of connection points: 2
#     Edge 22, Type (0, 0), BuildingBlock: CIFDUS_clean_linker_0, # of connection points: 2
#     Edge 23, Type (0, 0), BuildingBlock: CIFDUS_clean_linker_0, # of connection points: 2
#     Edge 24, Type (0, 0), BuildingBlock: CIFDUS_clean_linker_0, # of connection points: 2
#     Edge 25, Type (0, 0), BuildingBlock: CIFDUS_clean_linker_0, # of connection points: 2
#     Edge 26, Type (0, 0), BuildingBlock: CIFDUS_clean_linker_0, # of connection points: 2
#     Edge 27, Type (0, 0), BuildingBlock: CIFDUS_clean_linker_0, # of connection points: 2
#     Edge 28, Type (0, 0), BuildingBlock: CIFDUS_clean_linker_0, # of connection points: 2
#     Edge 29, Type (0, 0), BuildingBlock: CIFDUS_clean_linker_0, # of connection points: 2
#     Edge 30, Type (0, 0), BuildingBlock: CIFDUS_clean_linker_0, # of connection points: 2
#     Edge 31, Type (0, 0), BuildingBlock: CIFDUS_clean_linker_0, # of connection points: 2
#     Edge 32, Type (0, 0), BuildingBlock: CIFDUS_clean_linker_0, # of connection points: 2
#     Edge 33, Type (0, 0), BuildingBlock: CIFDUS_clean_linker_0, # of connection points: 2
#     Edge 34, Type (0, 0), BuildingBlock: CIFDUS_clean_linker_0, # of connection points: 2
#     Edge 35, Type (0, 0), BuildingBlock: CIFDUS_clean_linker_0, # of connection points: 2
#     Edge 36, Type (0, 0), BuildingBlock: CIFDUS_clean_linker_0, # of connection points: 2
#     Edge 37, Type (0, 0), BuildingBlock: CIFDUS_clean_linker_0, # of connection points: 2
#     Edge 38, Type (0, 0), BuildingBlock: CIFDUS_clean_linker_0, # of connection points: 2
#     Edge 39, Type (0, 0), BuildingBlock: CIFDUS_clean_linker_0, # of connection points: 2
#     Edge 40, Type (0, 0), BuildingBlock: CIFDUS_clean_linker_0, # of connection points: 2
#     Edge 41, Type (0, 0), BuildingBlock: CIFDUS_clean_linker_0, # of connection points: 2
#     Edge 42, Type (0, 0), BuildingBlock: CIFDUS_clean_linker_0, # of connection points: 2
#     Edge 43, Type (0, 0), BuildingBlock: CIFDUS_clean_linker_0, # of connection points: 2
#     Edge 44, Type (0, 0), BuildingBlock: CIFDUS_clean_linker_0, # of connection points: 2
#     Edge 45, Type (0, 0), BuildingBlock: CIFDUS_clean_linker_0, # of connection points: 2
#     Edge 46, Type (0, 0), BuildingBlock: CIFDUS_clean_linker_0, # of connection points: 2
#     Edge 47, Type (0, 0), BuildingBlock: CIFDUS_clean_linker_0, # of connection points: 2
#     Edge 48, Type (0, 0), BuildingBlock: CIFDUS_clean_linker_0, # of connection points: 2
#     Edge 49, Type (0, 0), BuildingBlock: CIFDUS_clean_linker_0, # of connection points: 2
#     Edge 50, Type (0, 0), BuildingBlock: CIFDUS_clean_linker_0, # of connection points: 2
#     Edge 51, Type (0, 0), BuildingBlock: CIFDUS_clean_linker_0, # of connection points: 2
#     Edge 52, Type (0, 0), BuildingBlock: CIFDUS_clean_linker_0, # of connection points: 2
#     Edge 53, Type (0, 0), BuildingBlock: CIFDUS_clean_linker_0, # of connection points: 2
#     Edge 54, Type (0, 0), BuildingBlock: CIFDUS_clean_linker_0, # of connection points: 2
#     Edge 55, Type (0, 0), BuildingBlock: CIFDUS_clean_linker_0, # of connection points: 2
#     Edge 56, Type (0, 0), BuildingBlock: CIFDUS_clean_linker_0, # of connection points: 2
#     Edge 57, Type (0, 0), BuildingBlock: CIFDUS_clean_linker_0, # of connection points: 2
#     Edge 58, Type (0, 0), BuildingBlock: CIFDUS_clean_linker_0, # of connection points: 2
#     Edge 59, Type (0, 0), BuildingBlock: CIFDUS_clean_linker_0, # of connection points: 2
#     Edge 60, Type (0, 0), BuildingBlock: CIFDUS_clean_linker_0, # of connection points: 2
#     Edge 61, Type (0, 0), BuildingBlock: CIFDUS_clean_linker_0, # of connection points: 2
#     Edge 62, Type (0, 0), BuildingBlock: CIFDUS_clean_linker_0, # of connection points: 2
#     Edge 63, Type (0, 0), BuildingBlock: CIFDUS_clean_linker_0, # of connection points: 2
# Relax obj value: 0.179
# Max RMSD: 0.244
# Mean RMSD: 0.244
data_MOF--net-wiu--node1-CUKXOW_clean_sbu_0--edge1-CIFDUS_clean_linker_0
_symmetry_space_group_name_H-M    P1
_symmetry_Int_Tables_number       1
_symmetry_cell_setting            triclinic
loop_
_symmetry_equiv_pos_as_xyz
'x, y, z'
_cell_length_a     23.11507
_cell_length_b     23.042774
_cell_length_c     60.12715
_cell_angle_alpha  89.935038
_cell_angle_beta   89.966071
_cell_angle_gamma 90.404707
loop_
_atom_site_label
_atom_site_type_symbol
_atom_site_fract_x
_atom_site_fract_y
_atom_site_fract_z
_atom_type_partial_charge
Tb0 Tb 0.34168 0.08368 0.10683 0.0
C1 C 0.36636 0.17923 0.07209 0.0
Tb2 Tb 0.26312 0.09818 0.06909 0.0
O3 O 0.41868 0.06571 0.08724 0.0
O4 O 0.33779 0.04156 0.0745 0.0
O5 O 0.36918 0.16703 0.0936 0.0
C6 C 0.21529 0.07991 0.02914 0.0
O7 O 0.33556 0.14866 0.05797 0.0
C8 C 0.25344 0.18128 0.09979 0.0
C9 C 0.21434 0.02523 0.10936 0.0
O10 O 0.2091 0.12628 0.0411 0.0
O11 O 0.24577 0.04297 0.0403 0.0
O12 O 0.24426 0.18924 0.07863 0.0
O13 O 0.26296 0.12776 0.10268 0.0
O14 O 0.20134 0.04883 0.08981 0.0
O15 O 0.26805 0.0282 0.11732 0.0
C16 C 0.38431 0.07296 0.14773 0.0
O17 O 0.37862 0.03127 0.13335 0.0
O18 O 0.36828 0.12146 0.13865 0.0
C19 C 0.39242 0.04621 0.06974 0.0
Tb20 Tb 0.68852 0.5884 0.35664 0.0
C21 C 0.60536 0.6321 0.32007 0.0
Tb22 Tb 0.6595 0.51339 0.31916 0.0
O23 O 0.72598 0.66203 0.33924 0.0
O24 O 0.72661 0.58045 0.32369 0.0
O25 O 0.61448 0.63104 0.34182 0.0
C26 C 0.65823 0.45406 0.28092 0.0
O27 O 0.62788 0.59385 0.30656 0.0
C28 C 0.57772 0.5174 0.35026 0.0
C29 C 0.72877 0.45625 0.3593 0.0
O30 O 0.61365 0.47469 0.2911 0.0
O31 O 0.70413 0.46528 0.29264 0.0
O32 O 0.5674 0.51038 0.32923 0.0
O33 O 0.63187 0.51702 0.35291 0.0
O34 O 0.69954 0.44578 0.34058 0.0
O35 O 0.73626 0.51034 0.3664 0.0
C36 C 0.69081 0.62792 0.3981 0.0
O37 O 0.73561 0.61102 0.38682 0.0
O38 O 0.64507 0.62456 0.38568 0.0
C39 C 0.73404 0.63589 0.32042 0.0
Tb40 Tb 0.18199 0.93497 0.60686 0.0
C41 C 0.13526 0.84621 0.57287 0.0
Tb42 Tb 0.25089 0.91016 0.56727 0.0
O43 O 0.10487 0.96548 0.5895 0.0
O44 O 0.18509 0.97491 0.57412 0.0
O45 O 0.13769 0.85834 0.59443 0.0
C46 C 0.29521 0.92389 0.52655 0.0
O47 O 0.1709 0.86908 0.55818 0.0
C48 C 0.25285 0.82446 0.59672 0.0
C49 C 0.31683 0.97405 0.60633 0.0
O50 O 0.29954 0.87739 0.53859 0.0
O51 O 0.26824 0.96302 0.53788 0.0
O52 O 0.25722 0.81763 0.57529 0.0
O53 O 0.25229 0.8785 0.60084 0.0
O54 O 0.32167 0.95183 0.58602 0.0
O55 O 0.26559 0.97599 0.61643 0.0
C56 C 0.14717 0.95385 0.64829 0.0
O57 O 0.15936 0.99372 0.63369 0.0
O58 O 0.15233 0.90291 0.63922 0.0
C59 C 0.12969 0.97819 0.57081 0.0
Tb60 Tb 0.82334 0.43966 0.85474 0.0
C61 C 0.92095 0.39929 0.82425 0.0
Tb62 Tb 0.8543 0.50849 0.81579 0.0
O63 O 0.79937 0.36051 0.83679 0.0
O64 O 0.78894 0.4401 0.82072 0.0
O65 O 0.90599 0.40389 0.84539 0.0
C66 C 0.85716 0.55948 0.77576 0.0
O67 O 0.89488 0.42779 0.8083 0.0
C68 C 0.93185 0.51876 0.84852 0.0
C69 C 0.78265 0.5733 0.85295 0.0
O70 O 0.90046 0.53595 0.78582 0.0
O71 O 0.8117 0.55505 0.78835 0.0
O72 O 0.94385 0.52467 0.82754 0.0
O73 O 0.8775 0.51322 0.85013 0.0
O74 O 0.80911 0.57876 0.83341 0.0
O75 O 0.77859 0.52174 0.86287 0.0
C76 C 0.80387 0.4056 0.8965 0.0
O77 O 0.76425 0.41721 0.88183 0.0
O78 O 0.85447 0.41042 0.88724 0.0
C79 C 0.78797 0.3842 0.81777 0.0
Tb80 Tb 0.75847 0.91893 0.97255 0.0
C81 C 0.80478 0.98761 0.931 0.0
Tb82 Tb 0.67995 0.9236 0.93486 0.0
O83 O 0.78517 0.82945 0.96559 0.0
O84 O 0.76103 0.88361 0.93955 0.0
O85 O 0.81805 0.96913 0.95129 0.0
C86 C 0.63503 0.93278 0.89429 0.0
O87 O 0.75177 0.97956 0.92284 0.0
C88 C 0.62712 0.96187 0.97154 0.0
C89 C 0.66213 0.82818 0.9699 0.0
O90 O 0.63964 0.97448 0.90869 0.0
O91 O 0.65351 0.88494 0.90317 0.0
O92 O 0.60221 0.93718 0.95474 0.0
O93 O 0.68092 0.97024 0.96629 0.0
O94 O 0.65838 0.83921 0.94834 0.0
O95 O 0.6899 0.86238 0.98382 0.0
C96 C 0.80325 0.94347 1.01253 0.0
O97 O 0.81504 0.89812 1.00068 0.0
O98 O 0.76871 0.97627 1.00124 0.0
C99 C 0.77507 0.83185 0.94431 0.0
Tb100 Tb 0.35484 0.48821 0.72078 0.0
C101 C 0.28192 0.56682 0.68728 0.0
Tb102 Tb 0.30525 0.43224 0.68135 0.0
O103 O 0.4439 0.48106 0.70861 0.0
O104 O 0.37597 0.49153 0.68613 0.0
O105 O 0.3108 0.56514 0.70648 0.0
C106 C 0.281 0.40662 0.6393 0.0
O107 O 0.27068 0.5188 0.67603 0.0
C108 C 0.26425 0.38326 0.71872 0.0
C109 C 0.38999 0.36262 0.70874 0.0
O110 O 0.2431 0.42112 0.65427 0.0
O111 O 0.33188 0.40435 0.64832 0.0
O112 O 0.26582 0.35898 0.69927 0.0
O113 O 0.27687 0.4376 0.71571 0.0
O114 O 0.37412 0.37355 0.68815 0.0
O115 O 0.38311 0.39997 0.72509 0.0
C116 C 0.37041 0.52488 0.76249 0.0
O117 O 0.38643 0.55335 0.74487 0.0
O118 O 0.34501 0.47733 0.75652 0.0
C119 C 0.4302 0.48268 0.68764 0.0
Tb120 Tb 0.76311 0.09527 0.47261 0.0
C121 C 0.71034 0.02311 0.43231 0.0
Tb122 Tb 0.83892 0.07351 0.43406 0.0
O123 O 0.75185 0.1872 0.46251 0.0
O124 O 0.76356 0.12296 0.43883 0.0
O125 O 0.6985 0.0508 0.45122 0.0
C126 C 0.87796 0.07441 0.39238 0.0
O127 O 0.76467 0.01804 0.42529 0.0
C128 C 0.8899 0.03377 0.4708 0.0
C129 C 0.87537 0.16306 0.47006 0.0
O130 O 0.87811 0.02952 0.40553 0.0
O131 O 0.85739 0.11882 0.40291 0.0
O132 O 0.91569 0.04665 0.45226 0.0
O133 O 0.83448 0.03465 0.46698 0.0
O134 O 0.87519 0.15206 0.4484 0.0
O135 O 0.83928 0.1385 0.48405 0.0
C136 C 0.7115 0.07959 0.51212 0.0
O137 O 0.71173 0.12746 0.50072 0.0
O138 O 0.73778 0.04009 0.50065 0.0
C139 C 0.75878 0.17719 0.44135 0.0
Tb140 Tb 0.17302 0.51603 0.2175 0.0
C141 C 0.24704 0.46997 0.17698 0.0
Tb142 Tb 0.1855 0.59535 0.1792 0.0
O143 O 0.08303 0.49309 0.20792 0.0
O144 O 0.14421 0.51471 0.18403 0.0
O145 O 0.22875 0.45838 0.19755 0.0
C146 C 0.18469 0.63897 0.13826 0.0
O147 O 0.24041 0.52267 0.16816 0.0
C148 C 0.22186 0.64633 0.21678 0.0
C149 C 0.08596 0.61498 0.21259 0.0
O150 O 0.22947 0.63865 0.15138 0.0
O151 O 0.1406 0.61627 0.14845 0.0
O152 O 0.20161 0.67246 0.1994 0.0
O153 O 0.22816 0.59208 0.21156 0.0
O154 O 0.10102 0.61952 0.19144 0.0
O155 O 0.11472 0.58388 0.22711 0.0
C156 C 0.18373 0.4711 0.25825 0.0
O157 O 0.16132 0.44424 0.24132 0.0
O158 O 0.20216 0.52153 0.25183 0.0
C159 C 0.09142 0.50201 0.18677 0.0
Tb160 Tb 0.83447 0.59828 0.60481 0.0
C161 C 0.85282 0.6916 0.56865 0.0
Tb162 Tb 0.75581 0.60164 0.56701 0.0
O163 O 0.91234 0.58339 0.58491 0.0
O164 O 0.8334 0.55092 0.5735 0.0
O165 O 0.85654 0.68151 0.59028 0.0
C166 C 0.70908 0.57483 0.52769 0.0
O167 O 0.82437 0.6572 0.55501 0.0
C168 C 0.73997 0.69018 0.59464 0.0
C169 C 0.71047 0.53248 0.60864 0.0
O170 O 0.6977 0.62077 0.53925 0.0
O171 O 0.74462 0.54289 0.53886 0.0
O172 O 0.72982 0.69154 0.57335 0.0
O173 O 0.75343 0.6384 0.59976 0.0
O174 O 0.69697 0.55155 0.58848 0.0
O175 O 0.76354 0.54065 0.61686 0.0
C176 C 0.88034 0.59888 0.64545 0.0
O177 O 0.8796 0.5547 0.63205 0.0
O178 O 0.85665 0.64297 0.63572 0.0
C179 C 0.8872 0.55872 0.56812 0.0
Tb180 Tb 0.1893 0.09275 0.85728 0.0
C181 C 0.09835 0.12824 0.82189 0.0
Tb182 Tb 0.16512 0.0156 0.81905 0.0
O183 O 0.21943 0.16879 0.83903 0.0
O184 O 0.22672 0.08709 0.82424 0.0
O185 O 0.11107 0.12913 0.84339 0.0
C186 C 0.17313 0.96316 0.77961 0.0
O187 O 0.1202 0.09074 0.8079 0.0
C188 C 0.08409 0.01355 0.85042 0.0
C189 C 0.24177 0.96432 0.85802 0.0
O190 O 0.13715 0.94864 0.79525 0.0
O191 O 0.20533 1.00551 0.78658 0.0
O192 O 0.07349 1.00682 0.82931 0.0
O193 O 0.13837 0.01738 0.8529 0.0
O194 O 0.21623 0.95308 0.83865 0.0
O195 O 0.2416 0.01741 0.86661 0.0
C196 C 0.19148 0.13165 0.89899 0.0
O197 O 0.23659 0.11774 0.88726 0.0
O198 O 0.14536 0.12536 0.88691 0.0
C199 C 0.22905 0.14262 0.82031 0.0
Tb200 Tb 0.67919 0.43629 0.10811 0.0
C201 C 0.64441 0.34284 0.07319 0.0
Tb202 Tb 0.75505 0.415 0.06907 0.0
O203 O 0.60242 0.46182 0.08982 0.0
O204 O 0.6837 0.47511 0.07517 0.0
O205 O 0.64267 0.35686 0.09456 0.0
C206 C 0.80221 0.42557 0.02858 0.0
O207 O 0.68091 0.36602 0.05898 0.0
C208 C 0.76005 0.33418 0.10057 0.0
C209 C 0.80676 0.49071 0.10855 0.0
O210 O 0.81994 0.39035 0.04397 0.0
O211 O 0.76016 0.45606 0.03646 0.0
O212 O 0.76616 0.32328 0.07944 0.0
O213 O 0.75506 0.38839 0.10283 0.0
O214 O 0.81787 0.46568 0.08904 0.0
O215 O 0.75329 0.49193 0.11675 0.0
C216 C 0.64061 0.43573 0.14976 0.0
O217 O 0.63975 0.48042 0.13651 0.0
O218 O 0.66184 0.39141 0.13938 0.0
C219 C 0.62828 0.47502 0.07134 0.0
Tb220 Tb 0.33371 0.92645 0.35609 0.0
C221 C 0.43434 0.90426 0.32358 0.0
Tb222 Tb 0.35176 1.00699 0.31873 0.0
O223 O 0.31366 0.85086 0.33574 0.0
O224 O 0.29308 0.93278 0.32339 0.0
O225 O 0.41822 0.89999 0.34462 0.0
C226 C 0.3439 0.05377 0.2782 0.0
O227 O 0.40776 0.93721 0.30904 0.0
C228 C 0.43228 0.01599 0.35029 0.0
C229 C 0.27827 0.05535 0.35891 0.0
O230 O 0.36609 0.0796 0.29542 0.0
O231 O 0.32464 1.00328 0.28415 0.0
O232 O 0.44211 0.02594 0.32928 0.0
O233 O 0.37889 1.0054 0.35244 0.0
O234 O 0.2965 0.06626 0.33828 0.0
O235 O 0.28478 1.00278 0.36784 0.0
C236 C 0.32539 0.87965 0.39645 0.0
O237 O 0.28207 0.89599 0.38422 0.0
O238 O 0.37323 0.8886 0.38566 0.0
C239 C 0.29699 0.87827 0.31813 0.0
Tb240 Tb 0.24409 0.42632 0.46704 0.0
C241 C 0.29425 0.50241 0.42819 0.0
Tb242 Tb 0.16696 0.44354 0.42925 0.0
O243 O 0.26241 0.33556 0.45734 0.0
O244 O 0.24525 0.39778 0.43322 0.0
O245 O 0.30515 0.48091 0.44824 0.0
C246 C 0.12676 0.45673 0.38807 0.0
O247 O 0.24196 0.49726 0.41913 0.0
C248 C 0.1169 0.47978 0.46689 0.0
C249 C 0.14112 0.34409 0.46187 0.0
O250 O 0.13285 0.4979 0.40266 0.0
O251 O 0.14037 0.40758 0.39719 0.0
O252 O 0.09024 0.46065 0.4494 0.0
O253 O 0.17123 0.48472 0.46175 0.0
O254 O 0.13826 0.35913 0.44067 0.0
O255 O 0.17282 0.37186 0.47653 0.0
C256 C 0.28639 0.43823 0.50804 0.0
O257 O 0.30986 0.4074 0.49242 0.0
O258 O 0.2413 0.46386 0.50014 0.0
C259 C 0.25462 0.34407 0.43613 0.0
Tb260 Tb 0.8561 0.99948 0.22232 0.0
C261 C 0.78438 0.05717 0.18306 0.0
Tb262 Tb 0.82613 0.92577 0.18439 0.0
O263 O 0.94772 1.00423 0.21159 0.0
O264 O 0.88232 0.99749 0.18831 0.0
O265 O 0.81474 0.06739 0.20152 0.0
C266 C 0.82315 0.88914 0.14244 0.0
O267 O 0.77663 1.00333 0.17579 0.0
C268 C 0.78158 0.87713 0.22062 0.0
C269 C 0.90989 0.88102 0.22056 0.0
O270 O 0.77857 0.90527 0.15402 0.0
O271 O 0.86901 0.8914 0.15484 0.0
O272 O 0.78937 0.85141 0.20168 0.0
O273 O 0.78886 0.93262 0.21748 0.0
O274 O 0.90079 0.88333 0.19882 0.0
O275 O 0.88761 0.91861 0.23437 0.0
C276 C 0.85822 0.05688 0.26104 0.0
O277 O 0.90246 0.03588 0.25074 0.0
O278 O 0.81224 0.04726 0.24915 0.0
C279 C 0.9366 0.99788 0.19059 0.0
Tb280 Tb 0.26943 0.60509 0.96967 0.0
C281 C 0.20971 0.53372 0.93102 0.0
Tb282 Tb 0.34334 0.57003 0.93371 0.0
O283 O 0.267 0.69587 0.9582 0.0
O284 O 0.27353 0.62901 0.93527 0.0
O285 O 0.20022 0.56544 0.9491 0.0
C286 C 0.38598 0.54814 0.89347 0.0
O287 O 0.26355 0.52296 0.92455 0.0
C288 C 0.39021 0.53234 0.97137 0.0
C289 C 0.38744 0.66165 0.96704 0.0
O290 O 0.37237 0.50939 0.90831 0.0
O291 O 0.37717 0.59957 0.90158 0.0
O292 O 0.41712 0.54136 0.95281 0.0
O293 O 0.33482 0.53625 0.96757 0.0
O294 O 0.38731 0.64749 0.94568 0.0
O295 O 0.34923 0.641 0.98112 0.0
C296 C 0.20993 0.61022 1.00779 0.0
O297 O 0.23236 0.65378 0.99725 0.0
O298 O 0.21956 0.56322 0.99654 0.0
C299 C 0.27419 0.68367 0.93733 0.0
Tb300 Tb 0.66791 0.01092 0.7242 0.0
C301 C 0.73165 0.95497 0.6836 0.0
Tb302 Tb 0.67735 0.08399 0.68456 0.0
O303 O 0.57516 0.99314 0.71853 0.0
O304 O 0.62925 1.00768 0.69165 0.0
O305 O 0.72202 0.95057 0.7053 0.0
C306 C 0.67986 0.12225 0.64267 0.0
O307 O 0.71948 1.00369 0.67275 0.0
C308 C 0.72433 0.13843 0.71966 0.0
C309 C 0.58933 0.11548 0.72123 0.0
O310 O 0.72453 0.10638 0.65423 0.0
O311 O 0.63381 0.1183 0.655 0.0
O312 O 0.70459 0.1628 0.70184 0.0
O313 O 0.72601 0.08293 0.71577 0.0
O314 O 0.59819 0.11527 0.69944 0.0
O315 O 0.61965 0.08434 0.73515 0.0
C316 C 0.67995 0.96391 0.76455 0.0
O317 O 0.66109 0.9366 0.74713 0.0
O318 O 0.69359 0.01644 0.75895 0.0
C319 C 0.57677 0.99967 0.69707 0.0
H320 H 0.45835 0.16442 0.04681 0.0
H321 H 0.35422 0.29332 0.07925 0.0
H322 H 0.43335 0.36357 0.07711 0.0
H323 H 0.53696 0.37525 0.07662 0.0
H324 H 0.64631 0.24325 0.04893 0.0
H325 H 0.56057 0.1851 0.03884 0.0
C326 C 0.45291 0.20872 0.05253 0.0
C327 C 0.40243 0.22461 0.06356 0.0
C328 C 0.49986 0.24656 0.05287 0.0
C329 C 0.39386 0.28125 0.07099 0.0
C330 C 0.439 0.32083 0.06992 0.0
C331 C 0.54164 0.3344 0.0679 0.0
C332 C 0.59622 0.31147 0.06419 0.0
C333 C 0.49317 0.30202 0.06267 0.0
C334 C 0.60348 0.25978 0.0524 0.0
C335 C 0.55489 0.22717 0.04658 0.0
H336 H 0.63542 0.73941 0.32917 0.0
H337 H 0.51864 0.63628 0.28957 0.0
H338 H 0.46128 0.72285 0.28099 0.0
H339 H 0.43248 0.81997 0.29357 0.0
H340 H 0.54315 0.91486 0.33838 0.0
H341 H 0.61733 0.841 0.33534 0.0
C342 C 0.59813 0.73654 0.31824 0.0
C343 C 0.57892 0.68276 0.31067 0.0
C344 C 0.56511 0.7852 0.31426 0.0
C345 C 0.53236 0.67816 0.29591 0.0
C346 C 0.49993 0.7273 0.29107 0.0
C347 C 0.47395 0.82496 0.30186 0.0
C348 C 0.48328 0.87135 0.31633 0.0
C349 C 0.51389 0.78009 0.30143 0.0
C350 C 0.53609 0.87878 0.32727 0.0
C351 C 0.578 0.83648 0.32565 0.0
H352 H 0.02809 0.87892 0.57954 0.0
H353 H 0.13214 0.75142 0.54623 0.0
H354 H 0.04444 0.69902 0.53439 0.0
H355 H 0.94141 0.68053 0.54122 0.0
H356 H 0.84108 0.80499 0.57779 0.0
H357 H 0.9234 0.87166 0.57894 0.0
C358 C 0.03114 0.84016 0.56939 0.0
C359 C 0.08496 0.81682 0.56441 0.0
C360 C 0.98136 0.81148 0.56268 0.0
C361 C 0.09 0.76813 0.5507 0.0
C362 C 0.04027 0.7389 0.54379 0.0
C363 C 0.93727 0.72356 0.54838 0.0
C364 C 0.88693 0.73844 0.55976 0.0
C365 C 0.98593 0.75885 0.55064 0.0
C366 C 0.88042 0.79354 0.56911 0.0
C367 C 0.92754 0.8309 0.5701 0.0
H368 H 0.12507 0.2362 0.83011 0.0
H369 H 0.00736 0.12761 0.79309 0.0
H370 H 0.9465 0.21209 0.78485 0.0
H371 H 0.91711 0.30981 0.79656 0.0
H372 H 0.02881 0.40945 0.83952 0.0
H373 H 0.10416 0.33666 0.83646 0.0
C374 C 0.08657 0.23158 0.8199 0.0
C375 C 0.06824 0.17703 0.81294 0.0
C376 C 0.05163 0.2788 0.8163 0.0
C377 C 0.02027 0.17016 0.79901 0.0
C378 C 0.98592 0.21805 0.79436 0.0
C379 C 0.95878 0.31567 0.80462 0.0
C380 C 0.96848 0.36316 0.81849 0.0
C381 C 0.99945 0.27165 0.80418 0.0
C382 C 0.02158 0.37215 0.82901 0.0
C383 C 0.06415 0.33071 0.8273 0.0
H384 H 0.57478 0.83377 0.99816 0.0
H385 H 0.67784 0.71612 0.95948 0.0
H386 H 0.59968 0.6447 0.9595 0.0
H387 H 0.49561 0.63187 0.96023 0.0
H388 H 0.38796 0.75353 0.99507 0.0
H389 H 0.47385 0.80918 1.00656 0.0
C390 C 0.58057 0.7912 0.99077 0.0
C391 C 0.63025 0.7795 0.97848 0.0
C392 C 0.53391 0.75307 0.98924 0.0
C393 C 0.63893 0.72512 0.96881 0.0
C394 C 0.59415 0.68494 0.96856 0.0
C395 C 0.49144 0.67004 0.97066 0.0
C396 C 0.43699 0.69105 0.97608 0.0
C397 C 0.5402 0.70101 0.97694 0.0
C398 C 0.43055 0.7387 0.99025 0.0
C399 C 0.47927 0.76986 0.99691 0.0
H400 H 0.48385 0.11684 0.70495 0.0
H401 H 0.59151 0.1867 0.75698 0.0
H402 H 0.52452 0.26744 0.76214 0.0
H403 H 0.45536 0.3304 0.74328 0.0
H404 H 0.35853 0.26492 0.68715 0.0
H405 H 0.40008 0.16921 0.69226 0.0
C406 C 0.49107 0.14883 0.71792 0.0
C407 C 0.54235 0.1487 0.72994 0.0
C408 C 0.45507 0.19615 0.7196 0.0
C409 C 0.55199 0.18799 0.74729 0.0
C410 C 0.5142 0.23404 0.75007 0.0
C411 C 0.44279 0.29469 0.73251 0.0
C412 C 0.40734 0.30441 0.71413 0.0
C413 C 0.46874 0.24096 0.73491 0.0
C414 C 0.3888 0.25826 0.70065 0.0
C415 C 0.41176 0.20364 0.70373 0.0
H416 H 0.05758 0.34708 0.49187 0.0
H417 H 0.15242 0.23433 0.44818 0.0
H418 H 0.08196 0.1568 0.45397 0.0
H419 H 0.98243 0.13515 0.46176 0.0
H420 H 0.87713 0.25437 0.4988 0.0
H421 H 0.96223 0.31635 0.50577 0.0
C422 C 0.06311 0.30468 0.48431 0.0
C423 C 0.1083 0.29528 0.46942 0.0
C424 C 0.01995 0.26281 0.48618 0.0
C425 C 0.11689 0.24132 0.45951 0.0
C426 C 0.07671 0.19749 0.46276 0.0
C427 C 0.97872 0.17397 0.47184 0.0
C428 C 0.92482 0.19257 0.47902 0.0
C429 C 0.02616 0.20973 0.47455 0.0
C430 C 0.91915 0.24121 0.4927 0.0
C431 C 0.9674 0.27623 0.49661 0.0
H432 H 0.08281 0.69263 0.24513 0.0
H433 H 0.97906 0.60583 0.19571 0.0
H434 H 0.90206 0.67567 0.20054 0.0
H435 H 0.8808 0.77487 0.20943 0.0
H436 H 0.99321 0.87352 0.25241 0.0
H437 H 0.0508 0.78645 0.25993 0.0
C438 C 0.04221 0.68835 0.23618 0.0
C439 C 0.03561 0.64537 0.22004 0.0
C440 C 1.00102 0.73192 0.23747 0.0
C441 C 0.98397 0.63898 0.20822 0.0
C442 C 0.94043 0.67915 0.21085 0.0
C443 C 0.91722 0.77661 0.22083 0.0
C444 C 0.93542 0.82947 0.22959 0.0
C445 C 0.95091 0.72807 0.22395 0.0
C446 C 0.98049 0.83245 0.24507 0.0
C447 C 0.01306 0.78303 0.2493 0.0
H448 H 0.50894 0.06091 0.06132 0.0
H449 H 0.356 0.98729 0.03121 0.0
H450 H 0.41456 0.95575 0.99925 0.0
H451 H 0.51 0.94795 0.97962 0.0
H452 H 0.66238 0.02335 1.00952 0.0
H453 H 0.60382 0.05471 0.04143 0.0
C454 C 0.48794 0.03784 0.04783 0.0
C455 C 0.42697 0.02657 0.0492 0.0
C456 C 0.52237 0.01996 0.02925 0.0
C457 C 0.40191 0.99691 0.03111 0.0
C458 C 0.43585 0.97874 1.01269 0.0
C459 C 0.53083 0.97146 0.99304 0.0
C460 C 0.59179 0.98294 0.99168 0.0
C461 C 0.49622 0.98983 1.01152 0.0
C462 C 0.61657 0.0134 1.00963 0.0
C463 C 0.58262 0.03148 0.02803 0.0
H464 H 0.74475 0.75448 0.31637 0.0
H465 H 0.74673 0.60005 0.27595 0.0
H466 H 0.76045 0.6609 0.24258 0.0
H467 H 0.77131 0.75836 0.22459 0.0
H468 H 0.76899 0.91269 0.26506 0.0
H469 H 0.75543 0.85181 0.29841 0.0
C470 C 0.74837 0.73355 0.30031 0.0
C471 C 0.74499 0.67147 0.29914 0.0
C472 C 0.75576 0.76935 0.28102 0.0
C473 C 0.74952 0.64671 0.27784 0.0
C474 C 0.75718 0.68196 0.25863 0.0
C475 C 0.76762 0.77922 0.24066 0.0
C476 C 0.77088 0.84131 0.24185 0.0
C477 C 0.76021 0.74339 0.25995 0.0
C478 C 0.76631 0.86602 0.26316 0.0
C479 C 0.75874 0.83076 0.28236 0.0
H480 H 0.01037 0.97998 0.56608 0.0
H481 H 0.16524 1.00574 0.52724 0.0
H482 H 0.10546 0.0236 0.49414 0.0
H483 H 0.00874 0.03193 0.47572 0.0
H484 H 0.85352 1.00608 0.51438 0.0
H485 H 0.91333 0.98779 0.54755 0.0
C486 C 0.0316 0.9894 0.55041 0.0
C487 C 0.09372 0.99115 0.5497 0.0
C488 C 0.99624 0.99947 0.53115 0.0
C489 C 0.11869 1.00376 0.52886 0.0
C490 C 0.08397 0.01403 0.50975 0.0
C491 C 0.98739 0.0222 0.49135 0.0
C492 C 0.92531 0.0204 0.49199 0.0
C493 C 0.02264 0.01195 0.5106 0.0
C494 C 0.90016 1.00774 0.5128 0.0
C495 C 0.93485 0.99737 0.53195 0.0
H496 H 0.797 0.26475 0.81243 0.0
H497 H 0.74836 0.41707 0.77541 0.0
H498 H 0.72562 0.35543 0.74309 0.0
H499 H 0.71807 0.25764 0.72496 0.0
H500 H 0.7692 0.1054 0.7615 0.0
H501 H 0.79193 0.16689 0.79386 0.0
C502 C 0.7813 0.28497 0.79734 0.0
C503 C 0.77424 0.3469 0.79696 0.0
C504 C 0.76856 0.2486 0.77847 0.0
C505 C 0.75431 0.37064 0.77678 0.0
C506 C 0.74122 0.33487 0.75813 0.0
C507 C 0.73442 0.23732 0.73993 0.0
C508 C 0.74136 0.17538 0.74023 0.0
C509 C 0.74795 0.2737 0.75869 0.0
C510 C 0.7627 0.15173 0.76022 0.0
C511 C 0.77588 0.18746 0.7789 0.0
H512 H 0.2662 0.26347 0.72361 0.0
H513 H 0.2469 0.41853 0.76287 0.0
H514 H 0.23614 0.35851 0.79648 0.0
H515 H 0.23058 0.26164 0.81514 0.0
H516 H 0.25006 0.10617 0.77615 0.0
H517 H 0.26202 0.16602 0.7425 0.0
C518 C 0.2597 0.28462 0.73949 0.0
C519 C 0.25791 0.34686 0.7402 0.0
C520 C 0.25335 0.24913 0.75904 0.0
C521 C 0.24942 0.37185 0.76131 0.0
C522 C 0.24291 0.33702 0.78068 0.0
C523 C 0.23764 0.24023 0.79935 0.0
C524 C 0.23911 0.178 0.79875 0.0
C525 C 0.24468 0.27557 0.77984 0.0
C526 C 0.24831 0.15284 0.77771 0.0
C527 C 0.25526 0.18761 0.75828 0.0
H528 H 0.31285 0.76208 0.30881 0.0
H529 H 0.24067 0.91568 0.27907 0.0
H530 H 0.21225 0.85812 0.24629 0.0
H531 H 0.20663 0.76325 0.22576 0.0
H532 H 0.27986 0.61011 0.25547 0.0
H533 H 0.30819 0.66772 0.28818 0.0
C534 C 0.29077 0.7835 0.29523 0.0
C535 C 0.27919 0.84446 0.29698 0.0
C536 C 0.27435 0.74953 0.27619 0.0
C537 C 0.25076 0.86989 0.27872 0.0
C538 C 0.23426 0.83646 0.25983 0.0
C539 C 0.22893 0.74199 0.23932 0.0
C540 C 0.24055 0.68099 0.23763 0.0
C541 C 0.24563 0.77612 0.2583 0.0
C542 C 0.26952 0.65582 0.25581 0.0
C543 C 0.286 0.68929 0.27467 0.0
H544 H 1.00123 0.46161 0.4769 0.0
H545 H 0.15408 0.54101 0.50484 0.0
H546 H 0.09748 0.57086 0.53751 0.0
H547 H 1.00358 0.57586 0.5585 0.0
H548 H 0.85086 0.49635 0.53049 0.0
H549 H 0.90761 0.46608 0.49795 0.0
C550 C 0.02265 0.48553 0.49008 0.0
C551 C 0.08318 0.49854 0.48788 0.0
C552 C 0.98918 0.50292 0.50906 0.0
C553 C 0.10866 0.52952 0.50559 0.0
C554 C 0.07576 0.54691 0.52442 0.0
C555 C 0.98229 0.55167 0.54536 0.0
C556 C 0.92171 0.53871 0.54751 0.0
C557 C 0.01588 0.53404 0.52643 0.0
C558 C 0.89638 0.50749 0.52984 0.0
C559 C 0.92932 0.48999 0.51105 0.0
H560 H 0.50933 0.47668 0.06652 0.0
H561 H 0.66437 0.50666 0.02817 0.0
H562 H 0.60483 0.52492 0.99509 0.0
H563 H 0.50851 0.53174 0.97657 0.0
H564 H 0.35286 0.50467 1.01487 0.0
H565 H 0.41249 0.48556 0.04806 0.0
C566 C 0.53068 0.48715 0.05097 0.0
C567 C 0.59277 0.48939 0.05033 0.0
C568 C 0.49546 0.49801 0.03178 0.0
C569 C 0.61788 0.50368 0.02968 0.0
C570 C 0.5833 0.51433 1.0106 0.0
C571 C 0.48698 0.52174 0.99213 0.0
C572 C 0.42495 0.5196 0.99269 0.0
C573 C 0.52203 0.51142 1.01136 0.0
C574 C 0.39952 0.50659 1.0134 0.0
C575 C 0.43408 0.49572 0.03253 0.0
H576 H 0.26093 0.29927 0.09414 0.0
H577 H 0.25038 0.16882 0.14531 0.0
H578 H 0.25152 0.24472 0.17396 0.0
H579 H 0.251 0.35001 0.18455 0.0
H580 H 0.27195 0.47821 0.13264 0.0
H581 H 0.27325 0.40212 0.10476 0.0
C582 C 0.25983 0.28724 0.11156 0.0
C583 C 0.25552 0.22795 0.11738 0.0
C584 C 0.26276 0.33124 0.12805 0.0
C585 C 0.25358 0.21381 0.14018 0.0
C586 C 0.25435 0.25743 0.15664 0.0
C587 C 0.25726 0.36142 0.16722 0.0
C588 C 0.26115 0.42089 0.16109 0.0
C589 C 0.25859 0.31662 0.15084 0.0
C590 C 0.26885 0.43366 0.13829 0.0
C591 C 0.26914 0.38984 0.1221 0.0
H592 H 0.46322 0.54404 0.34648 0.0
H593 H 0.59146 0.49525 0.39482 0.0
H594 H 0.51687 0.49148 0.42388 0.0
H595 H 0.41294 0.49505 0.43502 0.0
H596 H 0.28658 0.54884 0.38645 0.0
H597 H 0.36216 0.55852 0.35851 0.0
C598 C 0.47491 0.53283 0.3634 0.0
C599 C 0.5329 0.51898 0.3683 0.0
C600 C 0.4318 0.53181 0.38017 0.0
C601 C 0.54724 0.50561 0.39046 0.0
C602 C 0.50444 0.50348 0.40713 0.0
C603 C 0.40198 0.51027 0.4185 0.0
C604 C 0.34328 0.52087 0.41311 0.0
C605 C 0.44623 0.51569 0.40216 0.0
C606 C 0.33075 0.54016 0.39138 0.0
C607 C 0.37415 0.54539 0.37519 0.0
H608 H 0.27943 0.81958 0.64227 0.0
H609 H 0.21649 0.71624 0.58746 0.0
H610 H 0.21376 0.63051 0.61107 0.0
H611 H 0.23487 0.5823 0.6461 0.0
H612 H 0.30414 0.68021 0.70119 0.0
H613 H 0.29784 0.76969 0.67901 0.0
C614 C 0.26464 0.77837 0.63561 0.0
C615 C 0.24843 0.77474 0.61289 0.0
C616 C 0.2643 0.72783 0.6494 0.0
C617 C 0.22969 0.72066 0.60467 0.0
C618 C 0.22799 0.67133 0.61823 0.0
C619 C 0.24795 0.62311 0.65359 0.0
C620 C 0.26977 0.62366 0.67559 0.0
C621 C 0.24601 0.67404 0.64048 0.0
C622 C 0.28671 0.67775 0.6845 0.0
C623 C 0.28351 0.72914 0.67167 0.0
H624 H 0.04902 0.50866 0.84573 0.0
H625 H 0.91286 0.5336 0.89357 0.0
H626 H 0.98493 0.5391 0.92362 0.0
H627 H 0.08892 0.53955 0.93625 0.0
H628 H 0.22137 0.50207 0.8877 0.0
H629 H 0.14909 0.49708 0.8586 0.0
C630 C 0.03483 0.51444 0.86276 0.0
C631 C 0.97524 0.52069 0.86721 0.0
C632 C 0.07636 0.51496 0.88009 0.0
C633 C 0.95823 0.52866 0.8895 0.0
C634 C 0.99963 0.53172 0.90675 0.0
C635 C 0.10192 0.52928 0.9194 0.0
C636 C 0.16152 0.52136 0.91456 0.0
C637 C 0.05918 0.52513 0.9023 0.0
C638 C 0.17657 0.50816 0.89238 0.0
C639 C 0.13501 0.50569 0.87547 0.0
H640 H 0.78414 0.58397 0.89808 0.0
H641 H 0.75849 0.68494 0.8386 0.0
H642 H 0.75202 0.77376 0.86107 0.0
H643 H 0.75852 0.82412 0.89815 0.0
H644 H 0.79255 0.72062 0.95647 0.0
H645 H 0.79135 0.63276 0.93413 0.0
C646 C 0.77597 0.62514 0.88995 0.0
C647 C 0.77064 0.62696 0.86653 0.0
C648 C 0.77474 0.67639 0.90292 0.0
C649 C 0.76196 0.68156 0.85651 0.0
C650 C 0.7587 0.73264 0.86942 0.0
C651 C 0.76552 0.78233 0.90594 0.0
C652 C 0.77521 0.77958 0.92922 0.0
C653 C 0.76587 0.73091 0.89271 0.0
C654 C 0.78491 0.7247 0.93877 0.0
C655 C 0.78405 0.67402 0.92595 0.0
H656 H 0.54669 0.4643 0.69 0.0
H657 H 0.41366 0.5138 0.6437 0.0
H658 H 0.4872 0.52907 0.6147 0.0
H659 H 0.59096 0.53419 0.60303 0.0
H660 H 0.72276 0.48391 0.64995 0.0
H661 H 0.64864 0.46282 0.67772 0.0
C662 C 0.53358 0.47814 0.67352 0.0
C663 C 0.4743 0.48832 0.66924 0.0
C664 C 0.57632 0.48676 0.65687 0.0
C665 C 0.45862 0.50579 0.64764 0.0
C666 C 0.50091 0.5146 0.63101 0.0
C667 C 0.60359 0.51756 0.61917 0.0
C668 C 0.66328 0.5107 0.62409 0.0
C669 C 0.56016 0.50593 0.63545 0.0
C670 C 0.67786 0.48968 0.64538 0.0
C671 C 0.63522 0.47779 0.66144 0.0
H672 H 0.77953 0.29449 0.4432 0.0
H673 H 0.72882 0.15942 0.39765 0.0
H674 H 0.71716 0.23144 0.36789 0.0
H675 H 0.71695 0.33518 0.355 0.0
H676 H 0.77585 0.46754 0.40066 0.0
H677 H 0.78871 0.39526 0.4295 0.0
C678 C 0.76599 0.28075 0.42675 0.0
C679 C 0.75432 0.22137 0.42291 0.0
C680 C 0.76076 0.32246 0.40946 0.0
C681 C 0.73782 0.20464 0.40127 0.0
C682 C 0.7311 0.24604 0.38417 0.0
C683 C 0.73352 0.3482 0.37111 0.0
C684 C 0.74491 0.40785 0.37526 0.0
C685 C 0.74194 0.30545 0.38803 0.0
C686 C 0.76634 0.42278 0.39653 0.0
C687 C 0.77363 0.38115 0.4133 0.0
H688 H 0.92644 0.49394 0.10133 0.0
H689 H 0.79759 0.51496 0.15277 0.0
H690 H 0.87245 0.51596 0.18092 0.0
H691 H 0.97417 0.50434 0.19194 0.0
H692 H 0.10587 0.49694 0.14141 0.0
H693 H 0.03115 0.49572 0.11237 0.0
C694 C 0.91472 0.50003 0.11862 0.0
C695 C 0.85548 0.5041 0.12455 0.0
C696 C 0.95881 0.50174 0.13518 0.0
C697 C 0.84208 0.51183 0.14727 0.0
C698 C 0.88512 0.51189 0.16363 0.0
C699 C 0.98666 0.50331 0.17456 0.0
C700 C 0.0458 0.50112 0.16898 0.0
C701 C 0.9435 0.50569 0.15789 0.0
C702 C 0.06081 0.499 0.14629 0.0
C703 C 0.01793 0.49843 0.12962 0.0
H704 H 0.75792 0.70166 0.6407 0.0
H705 H 0.72195 0.80041 0.58135 0.0
H706 H 0.7219 0.8898 0.60276 0.0
H707 H 0.7283 0.94123 0.6383 0.0
H708 H 0.76125 0.84524 0.69851 0.0
H709 H 0.7675 0.75514 0.67698 0.0
C710 C 0.75056 0.74275 0.63245 0.0
C711 C 0.74018 0.74356 0.6092 0.0
C712 C 0.75039 0.79522 0.64508 0.0
C713 C 0.72994 0.79768 0.59907 0.0
C714 C 0.73011 0.8493 0.61135 0.0
C715 C 0.73792 0.90095 0.64682 0.0
C716 C 0.74482 0.90103 0.67021 0.0
C717 C 0.73999 0.8488 0.63436 0.0
C718 C 0.75623 0.84741 0.68063 0.0
C719 C 0.75938 0.79544 0.66826 0.0
H720 H 0.92437 0.98836 0.93674 0.0
H721 H 0.79212 0.02604 0.88824 0.0
H722 H 0.86556 0.0375 0.85954 0.0
H723 H 0.96718 0.03012 0.84701 0.0
H724 H 0.10078 0.997 0.89519 0.0
H725 H 0.02784 0.99073 0.92478 0.0
C726 C 0.91154 1.00033 0.92002 0.0
C727 C 0.8519 1.00608 0.91497 0.0
C728 C 0.95459 1.00685 0.90323 0.0
C729 C 0.83704 0.02121 0.89296 0.0
C730 C 0.87926 0.02748 0.87633 0.0
C731 C 0.9804 0.02173 0.864 0.0
C732 C 0.03961 0.01321 0.8687 0.0
C733 C 0.93808 0.01912 0.88109 0.0
C734 C 0.05571 1.00332 0.89095 0.0
C735 C 0.01382 0.99974 0.90795 0.0
H736 H 0.7998 0.17753 0.18709 0.0
H737 H 0.73274 0.04647 0.1425 0.0
H738 H 0.72072 0.11854 0.11354 0.0
H739 H 0.73378 0.21827 0.09934 0.0
H740 H 0.79247 0.35239 0.1439 0.0
H741 H 0.80258 0.28081 0.17391 0.0
C742 C 0.78152 0.16484 0.17121 0.0
C743 C 0.76776 0.10564 0.16732 0.0
C744 C 0.77368 0.2074 0.15425 0.0
C745 C 0.74415 0.09097 0.14638 0.0
C746 C 0.73736 0.13242 0.12954 0.0
C747 C 0.74869 0.23186 0.11564 0.0
C748 C 0.76321 0.29067 0.11916 0.0
C749 C 0.75295 0.19056 0.13306 0.0
C750 C 0.78136 0.30747 0.14058 0.0
C751 C 0.78717 0.26638 0.15781 0.0
H752 H 0.58999 0.01953 0.43785 0.0
H753 H 0.72352 1.00381 0.38794 0.0
H754 H 0.65119 1.0038 0.3588 0.0
H755 H 0.55018 0.01431 0.34656 0.0
H756 H 0.41412 0.01678 0.39547 0.0
H757 H 0.48631 0.01719 0.42543 0.0
C758 C 0.60326 0.0149 0.42065 0.0
C759 C 0.66303 0.01169 0.41548 0.0
C760 C 0.56065 0.01371 0.40351 0.0
C761 C 0.67852 1.00593 0.39287 0.0
C762 C 0.63692 1.00646 0.37595 0.0
C763 C 0.53618 0.01404 0.36377 0.0
C764 C 0.47653 0.01546 0.36861 0.0
C765 C 0.57796 0.01133 0.38097 0.0
C766 C 0.4596 0.01573 0.39112 0.0
C767 C 0.50103 0.01579 0.40833 0.0
H768 H 0.25319 0.22601 0.44153 0.0
H769 H 0.26008 0.35701 0.39049 0.0
H770 H 0.26508 0.28118 0.36183 0.0
H771 H 0.27124 0.17569 0.35122 0.0
H772 H 0.25256 0.04705 0.40309 0.0
H773 H 0.24677 0.12292 0.43086 0.0
C774 C 0.25497 0.23818 0.42412 0.0
C775 C 0.25627 0.29766 0.41837 0.0
C776 C 0.2554 0.19414 0.40762 0.0
C777 C 0.25905 0.31192 0.39559 0.0
C778 C 0.2618 0.2683 0.37912 0.0
C779 C 0.26467 0.16411 0.36851 0.0
C780 C 0.26282 0.1045 0.37466 0.0
C781 C 0.26028 0.20891 0.38487 0.0
C782 C 0.25443 0.09161 0.39741 0.0
C783 C 0.25141 0.13536 0.41356 0.0
H784 H 0.05275 0.97643 0.19305 0.0
H785 H 0.91922 0.02181 0.14636 0.0
H786 H 0.99152 0.02998 0.11659 0.0
H787 H 0.09469 0.03035 0.10421 0.0
H788 H 0.22652 0.97964 0.15109 0.0
H789 H 0.15353 0.96679 0.17985 0.0
C790 C 0.0394 0.9879 0.17633 0.0
C791 C 0.98048 0.99935 0.17213 0.0
C792 C 0.08128 0.99146 0.15912 0.0
C793 C 0.96413 0.01318 0.15022 0.0
C794 C 1.00564 0.01785 0.13313 0.0
C795 C 0.10746 0.01528 0.12055 0.0
C796 C 0.16691 1.00631 0.12517 0.0
C797 C 0.06466 1.0078 0.13738 0.0
C798 C 0.18174 0.98708 0.14671 0.0
C799 C 0.13979 0.97998 0.16338 0.0
H800 H 0.23181 0.84444 0.85235 0.0
H801 H 0.29521 0.97406 0.89831 0.0
H802 H 0.31074 0.89982 0.92629 0.0
H803 H 0.30019 0.79889 0.9393 0.0
H804 H 0.24258 0.66683 0.89363 0.0
H805 H 0.23141 0.74032 0.86432 0.0
C806 C 0.25024 0.85639 0.86829 0.0
C807 C 0.26187 0.91567 0.87293 0.0
C808 C 0.2595 0.81276 0.88468 0.0
C809 C 0.28548 0.92947 0.89393 0.0
C810 C 0.29423 0.8868 0.91017 0.0
C811 C 0.28548 0.78609 0.92289 0.0
C812 C 0.2715 0.72736 0.91884 0.0
C813 C 0.28021 0.82853 0.90597 0.0
C814 C 0.2534 0.71162 0.89732 0.0
C815 C 0.24694 0.75381 0.88052 0.0
H816 H 0.56862 1.00211 0.65051 0.0
H817 H 0.46485 0.99507 0.71011 0.0
H818 H 0.37686 0.99189 0.68788 0.0
H819 H 0.32781 0.98676 0.65162 0.0
H820 H 0.42934 0.98887 0.59147 0.0
H821 H 0.51815 0.99877 0.6135 0.0
C822 C 0.52675 1.00002 0.65861 0.0
C823 C 0.52406 0.99866 0.68219 0.0
C824 C 0.47521 0.99742 0.64552 0.0
C825 C 0.46895 0.99583 0.69216 0.0
C826 C 0.41819 0.99416 0.67939 0.0
C827 C 0.36916 0.99031 0.64319 0.0
C828 C 0.37094 0.9876 0.61966 0.0
C829 C 0.42055 0.99446 0.65606 0.0
C830 C 0.42578 0.99121 0.60941 0.0
C831 C 0.47697 0.99658 0.62209 0.0
H832 H 0.15876 0.15711 1.00271 0.0
H833 H 0.25581 0.99786 1.0011 0.0
H834 H 0.2597 1.0021 0.9606 0.0
H835 H 0.2402 0.05357 0.92576 0.0
H836 H 0.13661 0.20809 0.92633 0.0
H837 H 0.13113 0.20404 0.96717 0.0
C838 C 0.17977 0.12288 0.99342 0.0
C839 C 0.20707 0.07734 1.00484 0.0
C840 C 0.1818 0.12554 0.97005 0.0
C841 C 0.23422 0.0332 0.99267 0.0
C842 C 0.23698 0.03587 0.96953 0.0
C843 C 0.21703 0.08666 0.93493 0.0
C844 C 0.19039 0.13212 0.92339 0.0
C845 C 0.21206 0.08245 0.9581 0.0
C846 C 0.15846 0.17354 0.93512 0.0
C847 C 0.15503 0.17091 0.95837 0.0
H848 H 0.70112 0.38024 0.18145 0.0
H849 H 0.55942 0.49814 0.17169 0.0
H850 H 0.54808 0.50799 0.21205 0.0
H851 H 0.58323 0.48869 0.24975 0.0
H852 H 0.73392 0.38258 0.25948 0.0
H853 H 0.7372 0.36179 0.21943 0.0
C854 C 0.66725 0.40735 0.18827 0.0
C855 C 0.63055 0.43796 0.17385 0.0
C856 C 0.66304 0.41496 0.21137 0.0
C857 C 0.58776 0.47408 0.18263 0.0
C858 C 0.58143 0.47972 0.20563 0.0
C859 C 0.61621 0.46024 0.24312 0.0
C860 C 0.65787 0.43644 0.25741 0.0
C861 C 0.61943 0.45113 0.22011 0.0
C862 C 0.70127 0.4009 0.24868 0.0
C863 C 0.70318 0.38925 0.22584 0.0
H864 H 0.34887 0.84509 0.50003 0.0
H865 H 0.25711 1.00756 0.4988 0.0
H866 H 0.25449 1.00515 0.4583 0.0
H867 H 0.27495 0.95542 0.42335 0.0
H868 H 0.37478 0.79847 0.42343 0.0
H869 H 0.37685 0.79914 0.46435 0.0
C870 C 0.32916 0.88027 0.49081 0.0
C871 C 0.3031 0.92632 0.5023 0.0
C872 C 0.32814 0.87882 0.46744 0.0
C873 C 0.27769 0.97179 0.49028 0.0
C874 C 0.27567 0.97021 0.46715 0.0
C875 C 0.29644 0.92102 0.43242 0.0
C876 C 0.32309 0.87598 0.42073 0.0
C877 C 0.29982 0.92349 0.45562 0.0
C878 C 0.35287 0.83273 0.43235 0.0
C879 C 0.35443 0.83346 0.45563 0.0
H880 H 0.81999 0.65075 0.67804 0.0
H881 H 0.96236 0.53499 0.66629 0.0
H882 H 0.97156 0.51775 0.70637 0.0
H883 H 0.93349 0.52911 0.7442 0.0
H884 H 0.78274 0.63416 0.75544 0.0
H885 H 0.78207 0.66249 0.71607 0.0
C886 C 0.85373 0.62272 0.68438 0.0
C887 C 0.8911 0.59471 0.66947 0.0
C888 C 0.85657 0.6107 0.70725 0.0
C889 C 0.93362 0.55724 0.67762 0.0
C890 C 0.93861 0.54724 0.70046 0.0
C891 C 0.90094 0.55877 0.73805 0.0
C892 C 0.85837 0.57989 0.75256 0.0
C893 C 0.89951 0.57273 0.71535 0.0
C894 C 0.81584 0.61749 0.74445 0.0
C895 C 0.81551 0.6336 0.72201 0.0
H896 H 0.76892 0.96354 0.11558 0.0
H897 H 0.88565 0.81871 0.11524 0.0
H898 H 0.89388 0.82534 0.07456 0.0
H899 H 0.86518 0.87146 0.0391 0.0
H900 H 0.75402 0.0211 0.04043 0.0
H901 H 0.74763 0.01482 0.08086 0.0
C902 C 0.79552 0.93301 0.1065 0.0
C903 C 0.82521 0.88951 0.11806 0.0
C904 C 0.80193 0.93886 0.08344 0.0
C905 C 0.86146 0.85161 0.10643 0.0
C906 C 0.86649 0.85576 0.08328 0.0
C907 C 0.84053 0.90328 0.04833 0.0
C908 C 0.81 0.94656 0.03685 0.0
C909 C 0.83685 0.89926 0.07161 0.0
C910 C 0.77813 0.98757 0.04892 0.0
C911 C 0.77393 0.98364 0.07201 0.0
H912 H 0.40017 0.62489 0.85937 0.0
H913 H 0.39106 0.44193 0.87456 0.0
H914 H 0.38776 0.41897 0.83503 0.0
H915 H 0.37809 0.45093 0.79654 0.0
H916 H 0.38989 0.6328 0.7803 0.0
H917 H 0.40154 0.65652 0.81993 0.0
C918 C 0.39866 0.58002 0.85395 0.0
C919 C 0.3954 0.53512 0.86979 0.0
C920 C 0.39637 0.56711 0.83111 0.0
C921 C 0.39348 0.47717 0.86265 0.0
C922 C 0.39124 0.46402 0.84006 0.0
C923 C 0.3836 0.49577 0.80169 0.0
C924 C 0.38225 0.54026 0.78577 0.0
C925 C 0.39101 0.50866 0.82423 0.0
C926 C 0.39048 0.59803 0.79243 0.0
C927 C 0.39706 0.61147 0.81502 0.0
H928 H 0.7225 0.04166 0.61545 0.0
H929 H 0.63188 0.20424 0.61557 0.0
H930 H 0.63013 0.2042 0.57464 0.0
H931 H 0.65852 0.15885 0.53884 0.0
H932 H 0.74224 0.99206 0.53964 0.0
H933 H 0.74143 0.99191 0.58019 0.0
C934 C 0.70269 0.07719 0.60643 0.0
C935 C 0.67878 0.12371 0.61823 0.0
C936 C 0.69997 0.07556 0.58314 0.0
C937 C 0.65142 0.1686 0.60663 0.0
C938 C 0.65023 0.16835 0.58331 0.0
C939 C 0.67558 0.12209 0.54795 0.0
C940 C 0.70058 0.07563 0.53628 0.0
C941 C 0.67473 0.12216 0.57137 0.0
C942 C 0.72252 0.0282 0.54822 0.0
C943 C 0.72255 0.02829 0.57143 0.0
H944 H 0.13435 0.37643 0.35505 0.0
H945 H 0.1186 0.56029 0.3671 0.0
H946 H 0.13747 0.58038 0.32794 0.0
H947 H 0.16475 0.54657 0.29102 0.0
H948 H 0.17495 0.36334 0.27748 0.0
H949 H 0.15288 0.34178 0.31669 0.0
C950 C 0.13379 0.42075 0.34895 0.0
C951 C 0.12524 0.46689 0.3639 0.0
C952 C 0.14506 0.43204 0.32637 0.0
C953 C 0.12486 0.52411 0.35588 0.0
C954 C 0.13621 0.53567 0.33355 0.0
C955 C 0.16253 0.50187 0.2967 0.0
C956 C 0.17277 0.45649 0.28169 0.0
C957 C 0.14778 0.49011 0.31882 0.0
C958 C 0.16807 0.39881 0.28896 0.0
C959 C 0.15512 0.38662 0.31127 0.0
H960 H 0.74322 0.5529 0.425 0.0
H961 H 0.62874 0.69953 0.42499 0.0
H962 H 0.61944 0.69289 0.46566 0.0
H963 H 0.64712 0.64649 0.50114 0.0
H964 H 0.75628 0.49532 0.50009 0.0
H965 H 0.76287 0.5011 0.45966 0.0
C966 C 0.71688 0.58381 0.43401 0.0
C967 C 0.68822 0.62785 0.42241 0.0
C968 C 0.70981 0.57793 0.457 0.0
C969 C 0.65222 0.66626 0.43389 0.0
C970 C 0.64654 0.66206 0.457 0.0
C971 C 0.67129 0.61418 0.49197 0.0
C972 C 0.70138 0.57073 0.50349 0.0
C973 C 0.67527 0.61806 0.46872 0.0
C974 C 0.73258 0.52903 0.49153 0.0
C975 C 0.73694 0.53269 0.46846 0.0
H976 H 0.12915 0.87532 0.68161 0.0
H977 H 0.16157 0.05705 0.66876 0.0
H978 H 0.17529 0.07459 0.70832 0.0
H979 H 0.18299 0.03804 0.74614 0.0
H980 H 0.14302 0.85905 0.76059 0.0
H981 H 0.12791 0.84011 0.7207 0.0
C982 C 0.13818 0.91883 0.68759 0.0
C983 C 0.14459 0.96481 0.67236 0.0
C984 C 0.14573 0.92876 0.71048 0.0
C985 C 0.15629 0.02103 0.6802 0.0
C986 C 0.16461 0.03105 0.70279 0.0
C987 C 0.17138 0.99474 0.74052 0.0
C988 C 0.16546 0.94953 0.75597 0.0
C989 C 0.16058 0.9851 0.71796 0.0
C990 C 0.14861 0.89411 0.74875 0.0
C991 C 0.13973 0.8835 0.72605 0.0
H992 H 0.88219 0.38358 0.9293 0.0
H993 H 0.70314 0.42628 0.91792 0.0
H994 H 0.6884 0.43953 0.95775 0.0
H995 H 0.72678 0.44257 0.99555 0.0
H996 H 0.90292 0.39237 1.0082 0.0
H997 H 0.91895 0.37907 0.96808 0.0
C998 C 0.83979 0.39485 0.93564 0.0
C999 C 0.79377 0.40394 0.92073 0.0
C1000 C 0.83148 0.40203 0.95867 0.0
C1001 C 0.73909 0.41867 0.92908 0.0
C1002 C 0.73074 0.42674 0.95183 0.0
C1003 C 0.76886 0.42917 0.98949 0.0
C1004 C 0.81409 0.41964 1.00461 0.0
C1005 C 0.77678 0.41943 0.9667 0.0
C1006 C 0.86784 0.40067 0.99672 0.0
C1007 C 0.8768 0.39281 0.97385 0.0
H1008 H 0.36658 0.98075 0.24515 0.0
H1009 H 0.34642 0.16262 0.25946 0.0
H1010 H 0.36251 0.1861 0.21995 0.0
H1011 H 0.37678 0.15288 0.18102 0.0
H1012 H 0.40239 0.9705 0.1683 0.0
H1013 H 0.39124 0.94915 0.20775 0.0
C1014 C 0.3656 0.02557 0.2396 0.0
C1015 C 0.35405 0.06993 0.25488 0.0
C1016 C 0.37664 0.03849 0.21727 0.0
C1017 C 0.35451 0.1279 0.24776 0.0
C1018 C 0.3639 0.14118 0.22527 0.0
C1019 C 0.3812 0.10872 0.18702 0.0
C1020 C 0.39006 0.06321 0.17182 0.0
C1021 C 0.37449 0.09666 0.20983 0.0
C1022 C 0.39558 1.00618 0.1797 0.0
C1023 C 0.38875 0.99386 0.20222 0.0
H1024 H 0.35852 0.38326 0.60684 0.0
H1025 H 0.18207 0.43599 0.61793 0.0
H1026 H 0.17007 0.45416 0.57817 0.0
H1027 H 0.2105 0.4581 0.54071 0.0
H1028 H 0.38479 0.40046 0.52866 0.0
H1029 H 0.39762 0.38218 0.56862 0.0
C1030 C 0.31722 0.39787 0.60045 0.0
C1031 C 0.27114 0.4082 0.61517 0.0
C1032 C 0.31078 0.40844 0.57761 0.0
C1033 C 0.21792 0.42733 0.60683 0.0
C1034 C 0.21124 0.43824 0.58417 0.0
C1035 C 0.25155 0.44209 0.54686 0.0
C1036 C 0.29712 0.43153 0.53197 0.0
C1037 C 0.25763 0.42979 0.56951 0.0
C1038 C 0.34953 0.40952 0.53998 0.0
C1039 C 0.35661 0.39873 0.56272 0.0
H1040 H 0.81702 0.13015 0.3608 0.0
H1041 H 0.95845 0.01173 0.37016 0.0
H1042 H 0.96892 1.00177 0.32977 0.0
H1043 H 0.93327 0.02131 0.29213 0.0
H1044 H 0.78301 0.12828 0.28281 0.0
H1045 H 0.78034 0.14875 0.32289 0.0
C1046 C 0.85065 0.10292 0.3539 0.0
C1047 C 0.88756 0.07224 0.36823 0.0
C1048 C 0.85438 0.09525 0.33076 0.0
C1049 C 0.92999 0.0359 0.3593 0.0
C1050 C 0.93582 0.03018 0.33628 0.0
C1051 C 0.90049 0.04985 0.29885 0.0
C1052 C 0.8588 0.07399 0.28464 0.0
C1053 C 0.89767 0.05891 0.32189 0.0
C1054 C 0.81568 0.10966 0.29352 0.0
C1055 C 0.81413 0.12116 0.31638 0.0
H1056 H 0.13294 0.57346 0.10717 0.0
H1057 H 0.24412 0.7227 0.11567 0.0
H1058 H 0.25498 0.73121 0.07519 0.0
H1059 H 0.23929 0.69106 0.0379 0.0
H1060 H 0.1402 0.53328 0.02987 0.0
H1061 H 0.11757 0.53293 0.06977 0.0
C1062 C 0.15874 0.60836 0.10006 0.0
C1063 C 0.18721 0.64797 0.11412 0.0
C1064 C 0.1671 0.61093 0.07698 0.0
C1065 C 0.22172 0.69212 0.10498 0.0
C1066 C 0.22796 0.6968 0.08193 0.0
C1067 C 0.21192 0.65716 0.04485 0.0
C1068 C 0.19074 0.61258 0.03109 0.0
C1069 C 0.20174 0.65579 0.06782 0.0
C1070 C 0.15649 0.56815 0.04025 0.0
C1071 C 0.1438 0.56791 0.063 0.0
H1072 H 0.65277 0.85605 0.86053 0.0
H1073 H 0.60533 0.03325 0.8744 0.0
H1074 H 0.61622 0.05809 0.83524 0.0
H1075 H 0.64708 0.03194 0.79788 0.0
H1076 H 0.68955 0.85477 0.78246 0.0
H1077 H 0.67359 0.82717 0.82158 0.0
C1078 C 0.64348 0.89968 0.85483 0.0
C1079 C 0.62859 0.94292 0.87027 0.0
C1080 C 0.65033 0.91385 0.83222 0.0
C1081 C 0.61687 0.99932 0.86279 0.0
C1082 C 0.62357 0.0137 0.84044 0.0
C1083 C 0.65299 0.98728 0.80313 0.0
C1084 C 0.67077 0.94556 0.78767 0.0
C1085 C 0.64191 0.97178 0.8252 0.0
C1086 C 0.67666 0.88757 0.79433 0.0
C1087 C 0.66728 0.87188 0.81659 0.0
loop_
_geom_bond_atom_site_label_1
_geom_bond_atom_site_label_2
_geom_bond_distance
_geom_bond_site_symmetry_2
_ccdc_geom_bond_type
Tb0 O3 2.453 . S
Tb0 O4 2.596 . S
Tb0 O5 2.374 . S
Tb0 O13 2.343 . S
Tb0 O15 2.353 . S
Tb0 O17 2.427 . S
Tb0 O18 2.513 . S
C1 O5 1.251 . S
C1 O7 1.263 . S
Tb2 O4 2.343 . S
Tb2 O7 2.353 . S
Tb2 O10 2.427 . S
Tb2 O11 2.513 . S
Tb2 O12 2.453 . S
Tb2 O13 2.596 . S
Tb2 O14 2.374 . S
O3 Tb0 2.453 . S
O3 C19 1.245 . S
O4 Tb0 2.596 . S
O4 Tb2 2.343 . S
O4 C19 1.259 . S
O5 Tb0 2.374 . S
O5 C1 1.251 . S
C6 O10 1.275 . S
C6 O11 1.246 . S
O7 C1 1.263 . S
O7 Tb2 2.353 . S
C8 O12 1.245 . S
C8 O13 1.259 . S
C9 O14 1.250 . S
C9 O15 1.263 . S
O10 Tb2 2.427 . S
O10 C6 1.275 . S
O11 Tb2 2.513 . S
O11 C6 1.246 . S
O12 Tb2 2.453 . S
O12 C8 1.245 . S
O13 Tb0 2.343 . S
O13 Tb2 2.596 . S
O13 C8 1.259 . S
O14 Tb2 2.374 . S
O14 C9 1.250 . S
O15 Tb0 2.353 . S
O15 C9 1.263 . S
C16 O17 1.275 . S
C16 O18 1.246 . S
O17 Tb0 2.427 . S
O17 C16 1.275 . S
O18 Tb0 2.513 . S
O18 C16 1.246 . S
C19 O3 1.245 . S
C19 O4 1.259 . S
Tb20 O23 2.453 . S
Tb20 O24 2.596 . S
Tb20 O25 2.374 . S
Tb20 O33 2.343 . S
Tb20 O35 2.353 . S
Tb20 O37 2.427 . S
Tb20 O38 2.513 . S
C21 O25 1.251 . S
C21 O27 1.263 . S
Tb22 O24 2.343 . S
Tb22 O27 2.353 . S
Tb22 O30 2.427 . S
Tb22 O31 2.513 . S
Tb22 O32 2.453 . S
Tb22 O33 2.596 . S
Tb22 O34 2.374 . S
O23 Tb20 2.453 . S
O23 C39 1.245 . S
O24 Tb20 2.596 . S
O24 Tb22 2.343 . S
O24 C39 1.259 . S
O25 Tb20 2.374 . S
O25 C21 1.251 . S
C26 O30 1.275 . S
C26 O31 1.246 . S
O27 C21 1.263 . S
O27 Tb22 2.353 . S
C28 O32 1.245 . S
C28 O33 1.259 . S
C29 O34 1.250 . S
C29 O35 1.263 . S
O30 Tb22 2.427 . S
O30 C26 1.275 . S
O31 Tb22 2.513 . S
O31 C26 1.246 . S
O32 Tb22 2.453 . S
O32 C28 1.245 . S
O33 Tb20 2.343 . S
O33 Tb22 2.596 . S
O33 C28 1.259 . S
O34 Tb22 2.374 . S
O34 C29 1.250 . S
O35 Tb20 2.353 . S
O35 C29 1.263 . S
C36 O37 1.275 . S
C36 O38 1.246 . S
O37 Tb20 2.427 . S
O37 C36 1.275 . S
O38 Tb20 2.513 . S
O38 C36 1.246 . S
C39 O23 1.245 . S
C39 O24 1.259 . S
Tb40 O43 2.453 . S
Tb40 O44 2.596 . S
Tb40 O45 2.374 . S
Tb40 O53 2.343 . S
Tb40 O55 2.353 . S
Tb40 O57 2.427 . S
Tb40 O58 2.513 . S
C41 O45 1.251 . S
C41 O47 1.263 . S
Tb42 O44 2.343 . S
Tb42 O47 2.353 . S
Tb42 O50 2.427 . S
Tb42 O51 2.513 . S
Tb42 O52 2.453 . S
Tb42 O53 2.596 . S
Tb42 O54 2.374 . S
O43 Tb40 2.453 . S
O43 C59 1.245 . S
O44 Tb40 2.596 . S
O44 Tb42 2.343 . S
O44 C59 1.259 . S
O45 Tb40 2.374 . S
O45 C41 1.251 . S
C46 O50 1.275 . S
C46 O51 1.246 . S
O47 C41 1.263 . S
O47 Tb42 2.353 . S
C48 O52 1.245 . S
C48 O53 1.259 . S
C49 O54 1.250 . S
C49 O55 1.263 . S
O50 Tb42 2.427 . S
O50 C46 1.275 . S
O51 Tb42 2.513 . S
O51 C46 1.246 . S
O52 Tb42 2.453 . S
O52 C48 1.245 . S
O53 Tb40 2.343 . S
O53 Tb42 2.596 . S
O53 C48 1.259 . S
O54 Tb42 2.374 . S
O54 C49 1.250 . S
O55 Tb40 2.353 . S
O55 C49 1.263 . S
C56 O57 1.275 . S
C56 O58 1.246 . S
O57 Tb40 2.427 . S
O57 C56 1.275 . S
O58 Tb40 2.513 . S
O58 C56 1.246 . S
C59 O43 1.245 . S
C59 O44 1.259 . S
Tb60 O63 2.453 . S
Tb60 O64 2.596 . S
Tb60 O65 2.374 . S
Tb60 O73 2.343 . S
Tb60 O75 2.353 . S
Tb60 O77 2.427 . S
Tb60 O78 2.513 . S
C61 O65 1.251 . S
C61 O67 1.263 . S
Tb62 O64 2.343 . S
Tb62 O67 2.353 . S
Tb62 O70 2.427 . S
Tb62 O71 2.513 . S
Tb62 O72 2.453 . S
Tb62 O73 2.596 . S
Tb62 O74 2.374 . S
O63 Tb60 2.453 . S
O63 C79 1.245 . S
O64 Tb60 2.596 . S
O64 Tb62 2.343 . S
O64 C79 1.259 . S
O65 Tb60 2.374 . S
O65 C61 1.251 . S
C66 O70 1.275 . S
C66 O71 1.246 . S
O67 C61 1.263 . S
O67 Tb62 2.353 . S
C68 O72 1.245 . S
C68 O73 1.259 . S
C69 O74 1.250 . S
C69 O75 1.263 . S
O70 Tb62 2.427 . S
O70 C66 1.275 . S
O71 Tb62 2.513 . S
O71 C66 1.246 . S
O72 Tb62 2.453 . S
O72 C68 1.245 . S
O73 Tb60 2.343 . S
O73 Tb62 2.596 . S
O73 C68 1.259 . S
O74 Tb62 2.374 . S
O74 C69 1.250 . S
O75 Tb60 2.353 . S
O75 C69 1.263 . S
C76 O77 1.275 . S
C76 O78 1.246 . S
O77 Tb60 2.427 . S
O77 C76 1.275 . S
O78 Tb60 2.513 . S
O78 C76 1.246 . S
C79 O63 1.245 . S
C79 O64 1.259 . S
Tb80 O83 2.453 . S
Tb80 O84 2.596 . S
Tb80 O85 2.374 . S
Tb80 O93 2.343 . S
Tb80 O95 2.353 . S
Tb80 O97 2.427 . S
Tb80 O98 2.513 . S
C81 O85 1.251 . S
C81 O87 1.263 . S
Tb82 O84 2.343 . S
Tb82 O87 2.353 . S
Tb82 O90 2.427 . S
Tb82 O91 2.513 . S
Tb82 O92 2.453 . S
Tb82 O93 2.596 . S
Tb82 O94 2.374 . S
O83 Tb80 2.453 . S
O83 C99 1.245 . S
O84 Tb80 2.596 . S
O84 Tb82 2.343 . S
O84 C99 1.259 . S
O85 Tb80 2.374 . S
O85 C81 1.251 . S
C86 O90 1.275 . S
C86 O91 1.246 . S
O87 C81 1.263 . S
O87 Tb82 2.353 . S
C88 O92 1.245 . S
C88 O93 1.259 . S
C89 O94 1.250 . S
C89 O95 1.263 . S
O90 Tb82 2.427 . S
O90 C86 1.275 . S
O91 Tb82 2.513 . S
O91 C86 1.246 . S
O92 Tb82 2.453 . S
O92 C88 1.245 . S
O93 Tb80 2.343 . S
O93 Tb82 2.596 . S
O93 C88 1.259 . S
O94 Tb82 2.374 . S
O94 C89 1.250 . S
O95 Tb80 2.353 . S
O95 C89 1.263 . S
C96 O97 1.275 . S
C96 O98 1.246 . S
O97 Tb80 2.427 . S
O97 C96 1.275 . S
O98 Tb80 2.513 . S
O98 C96 1.246 . S
C99 O83 1.245 . S
C99 O84 1.259 . S
Tb100 O103 2.453 . S
Tb100 O104 2.596 . S
Tb100 O105 2.374 . S
Tb100 O113 2.343 . S
Tb100 O115 2.353 . S
Tb100 O117 2.427 . S
Tb100 O118 2.513 . S
C101 O105 1.251 . S
C101 O107 1.263 . S
Tb102 O104 2.343 . S
Tb102 O107 2.353 . S
Tb102 O110 2.427 . S
Tb102 O111 2.513 . S
Tb102 O112 2.453 . S
Tb102 O113 2.596 . S
Tb102 O114 2.374 . S
O103 Tb100 2.453 . S
O103 C119 1.245 . S
O104 Tb100 2.596 . S
O104 Tb102 2.343 . S
O104 C119 1.259 . S
O105 Tb100 2.374 . S
O105 C101 1.251 . S
C106 O110 1.275 . S
C106 O111 1.246 . S
O107 C101 1.263 . S
O107 Tb102 2.353 . S
C108 O112 1.245 . S
C108 O113 1.259 . S
C109 O114 1.250 . S
C109 O115 1.263 . S
O110 Tb102 2.427 . S
O110 C106 1.275 . S
O111 Tb102 2.513 . S
O111 C106 1.246 . S
O112 Tb102 2.453 . S
O112 C108 1.245 . S
O113 Tb100 2.343 . S
O113 Tb102 2.596 . S
O113 C108 1.259 . S
O114 Tb102 2.374 . S
O114 C109 1.250 . S
O115 Tb100 2.353 . S
O115 C109 1.263 . S
C116 O117 1.275 . S
C116 O118 1.246 . S
O117 Tb100 2.427 . S
O117 C116 1.275 . S
O118 Tb100 2.513 . S
O118 C116 1.246 . S
C119 O103 1.245 . S
C119 O104 1.259 . S
Tb120 O123 2.453 . S
Tb120 O124 2.596 . S
Tb120 O125 2.374 . S
Tb120 O133 2.343 . S
Tb120 O135 2.353 . S
Tb120 O137 2.427 . S
Tb120 O138 2.513 . S
C121 O125 1.251 . S
C121 O127 1.263 . S
Tb122 O124 2.343 . S
Tb122 O127 2.353 . S
Tb122 O130 2.427 . S
Tb122 O131 2.513 . S
Tb122 O132 2.453 . S
Tb122 O133 2.596 . S
Tb122 O134 2.374 . S
O123 Tb120 2.453 . S
O123 C139 1.245 . S
O124 Tb120 2.596 . S
O124 Tb122 2.343 . S
O124 C139 1.259 . S
O125 Tb120 2.374 . S
O125 C121 1.251 . S
C126 O130 1.275 . S
C126 O131 1.246 . S
O127 C121 1.263 . S
O127 Tb122 2.353 . S
C128 O132 1.245 . S
C128 O133 1.259 . S
C129 O134 1.250 . S
C129 O135 1.263 . S
O130 Tb122 2.427 . S
O130 C126 1.275 . S
O131 Tb122 2.513 . S
O131 C126 1.246 . S
O132 Tb122 2.453 . S
O132 C128 1.245 . S
O133 Tb120 2.343 . S
O133 Tb122 2.596 . S
O133 C128 1.259 . S
O134 Tb122 2.374 . S
O134 C129 1.250 . S
O135 Tb120 2.353 . S
O135 C129 1.263 . S
C136 O137 1.275 . S
C136 O138 1.246 . S
O137 Tb120 2.427 . S
O137 C136 1.275 . S
O138 Tb120 2.513 . S
O138 C136 1.246 . S
C139 O123 1.245 . S
C139 O124 1.259 . S
Tb140 O143 2.453 . S
Tb140 O144 2.596 . S
Tb140 O145 2.374 . S
Tb140 O153 2.343 . S
Tb140 O155 2.353 . S
Tb140 O157 2.427 . S
Tb140 O158 2.513 . S
C141 O145 1.251 . S
C141 O147 1.263 . S
Tb142 O144 2.343 . S
Tb142 O147 2.353 . S
Tb142 O150 2.427 . S
Tb142 O151 2.513 . S
Tb142 O152 2.453 . S
Tb142 O153 2.596 . S
Tb142 O154 2.374 . S
O143 Tb140 2.453 . S
O143 C159 1.245 . S
O144 Tb140 2.596 . S
O144 Tb142 2.343 . S
O144 C159 1.259 . S
O145 Tb140 2.374 . S
O145 C141 1.251 . S
C146 O150 1.275 . S
C146 O151 1.246 . S
O147 C141 1.263 . S
O147 Tb142 2.353 . S
C148 O152 1.245 . S
C148 O153 1.259 . S
C149 O154 1.250 . S
C149 O155 1.263 . S
O150 Tb142 2.427 . S
O150 C146 1.275 . S
O151 Tb142 2.513 . S
O151 C146 1.246 . S
O152 Tb142 2.453 . S
O152 C148 1.245 . S
O153 Tb140 2.343 . S
O153 Tb142 2.596 . S
O153 C148 1.259 . S
O154 Tb142 2.374 . S
O154 C149 1.250 . S
O155 Tb140 2.353 . S
O155 C149 1.263 . S
C156 O157 1.275 . S
C156 O158 1.246 . S
O157 Tb140 2.427 . S
O157 C156 1.275 . S
O158 Tb140 2.513 . S
O158 C156 1.246 . S
C159 O143 1.245 . S
C159 O144 1.259 . S
Tb160 O163 2.453 . S
Tb160 O164 2.596 . S
Tb160 O165 2.374 . S
Tb160 O173 2.343 . S
Tb160 O175 2.353 . S
Tb160 O177 2.427 . S
Tb160 O178 2.513 . S
C161 O165 1.251 . S
C161 O167 1.263 . S
Tb162 O164 2.343 . S
Tb162 O167 2.353 . S
Tb162 O170 2.427 . S
Tb162 O171 2.513 . S
Tb162 O172 2.453 . S
Tb162 O173 2.596 . S
Tb162 O174 2.374 . S
O163 Tb160 2.453 . S
O163 C179 1.245 . S
O164 Tb160 2.596 . S
O164 Tb162 2.343 . S
O164 C179 1.259 . S
O165 Tb160 2.374 . S
O165 C161 1.251 . S
C166 O170 1.275 . S
C166 O171 1.246 . S
O167 C161 1.263 . S
O167 Tb162 2.353 . S
C168 O172 1.245 . S
C168 O173 1.259 . S
C169 O174 1.250 . S
C169 O175 1.263 . S
O170 Tb162 2.427 . S
O170 C166 1.275 . S
O171 Tb162 2.513 . S
O171 C166 1.246 . S
O172 Tb162 2.453 . S
O172 C168 1.245 . S
O173 Tb160 2.343 . S
O173 Tb162 2.596 . S
O173 C168 1.259 . S
O174 Tb162 2.374 . S
O174 C169 1.250 . S
O175 Tb160 2.353 . S
O175 C169 1.263 . S
C176 O177 1.275 . S
C176 O178 1.246 . S
O177 Tb160 2.427 . S
O177 C176 1.275 . S
O178 Tb160 2.513 . S
O178 C176 1.246 . S
C179 O163 1.245 . S
C179 O164 1.259 . S
Tb180 O183 2.453 . S
Tb180 O184 2.596 . S
Tb180 O185 2.374 . S
Tb180 O193 2.343 . S
Tb180 O195 2.353 1_545 S
Tb180 O197 2.427 . S
Tb180 O198 2.513 . S
C181 O185 1.251 . S
C181 O187 1.263 . S
Tb182 O184 2.343 . S
Tb182 O187 2.353 . S
Tb182 O190 2.427 . S
Tb182 O191 2.513 1_545 S
Tb182 O192 2.453 1_545 S
Tb182 O193 2.596 . S
Tb182 O194 2.374 1_545 S
O183 Tb180 2.453 . S
O183 C199 1.245 . S
O184 Tb180 2.596 . S
O184 Tb182 2.343 . S
O184 C199 1.259 . S
O185 Tb180 2.374 . S
O185 C181 1.251 . S
C186 O190 1.275 . S
C186 O191 1.246 1_545 S
O187 C181 1.263 . S
O187 Tb182 2.353 . S
C188 O192 1.245 . S
C188 O193 1.259 1_565 S
C189 O194 1.250 . S
C189 O195 1.263 . S
O190 Tb182 2.427 . S
O190 C186 1.275 . S
O191 Tb182 2.513 1_565 S
O191 C186 1.246 1_565 S
O192 Tb182 2.453 1_565 S
O192 C188 1.245 . S
O193 Tb180 2.343 . S
O193 Tb182 2.596 . S
O193 C188 1.259 1_545 S
O194 Tb182 2.374 1_565 S
O194 C189 1.250 . S
O195 Tb180 2.353 1_565 S
O195 C189 1.263 . S
C196 O197 1.275 . S
C196 O198 1.246 . S
O197 Tb180 2.427 . S
O197 C196 1.275 . S
O198 Tb180 2.513 . S
O198 C196 1.246 . S
C199 O183 1.245 . S
C199 O184 1.259 . S
Tb200 O203 2.453 . S
Tb200 O204 2.596 . S
Tb200 O205 2.374 . S
Tb200 O213 2.343 . S
Tb200 O215 2.353 . S
Tb200 O217 2.427 . S
Tb200 O218 2.513 . S
C201 O205 1.251 . S
C201 O207 1.263 . S
Tb202 O204 2.343 . S
Tb202 O207 2.353 . S
Tb202 O210 2.427 . S
Tb202 O211 2.513 . S
Tb202 O212 2.453 . S
Tb202 O213 2.596 . S
Tb202 O214 2.374 . S
O203 Tb200 2.453 . S
O203 C219 1.245 . S
O204 Tb200 2.596 . S
O204 Tb202 2.343 . S
O204 C219 1.259 . S
O205 Tb200 2.374 . S
O205 C201 1.251 . S
C206 O210 1.275 . S
C206 O211 1.246 . S
O207 C201 1.263 . S
O207 Tb202 2.353 . S
C208 O212 1.245 . S
C208 O213 1.259 . S
C209 O214 1.250 . S
C209 O215 1.263 . S
O210 Tb202 2.427 . S
O210 C206 1.275 . S
O211 Tb202 2.513 . S
O211 C206 1.246 . S
O212 Tb202 2.453 . S
O212 C208 1.245 . S
O213 Tb200 2.343 . S
O213 Tb202 2.596 . S
O213 C208 1.259 . S
O214 Tb202 2.374 . S
O214 C209 1.250 . S
O215 Tb200 2.353 . S
O215 C209 1.263 . S
C216 O217 1.275 . S
C216 O218 1.246 . S
O217 Tb200 2.427 . S
O217 C216 1.275 . S
O218 Tb200 2.513 . S
O218 C216 1.246 . S
C219 O203 1.245 . S
C219 O204 1.259 . S
Tb220 O223 2.453 . S
Tb220 O224 2.596 . S
Tb220 O225 2.374 . S
Tb220 O233 2.343 . S
Tb220 O235 2.353 1_565 S
Tb220 O237 2.427 . S
Tb220 O238 2.513 . S
C221 O225 1.251 . S
C221 O227 1.263 . S
Tb222 O224 2.343 . S
Tb222 O227 2.353 . S
Tb222 O230 2.427 . S
Tb222 O231 2.513 1_565 S
Tb222 O232 2.453 1_565 S
Tb222 O233 2.596 . S
Tb222 O234 2.374 1_565 S
O223 Tb220 2.453 . S
O223 C239 1.245 . S
O224 Tb220 2.596 . S
O224 Tb222 2.343 . S
O224 C239 1.259 . S
O225 Tb220 2.374 . S
O225 C221 1.251 . S
C226 O230 1.275 . S
C226 O231 1.246 1_565 S
O227 C221 1.263 . S
O227 Tb222 2.353 . S
C228 O232 1.245 . S
C228 O233 1.259 1_545 S
C229 O234 1.250 . S
C229 O235 1.263 . S
O230 Tb222 2.427 . S
O230 C226 1.275 . S
O231 Tb222 2.513 1_545 S
O231 C226 1.246 1_545 S
O232 Tb222 2.453 1_545 S
O232 C228 1.245 . S
O233 Tb220 2.343 . S
O233 Tb222 2.596 . S
O233 C228 1.259 1_565 S
O234 Tb222 2.374 1_545 S
O234 C229 1.250 . S
O235 Tb220 2.353 1_545 S
O235 C229 1.263 . S
C236 O237 1.275 . S
C236 O238 1.246 . S
O237 Tb220 2.427 . S
O237 C236 1.275 . S
O238 Tb220 2.513 . S
O238 C236 1.246 . S
C239 O223 1.245 . S
C239 O224 1.259 . S
Tb240 O243 2.453 . S
Tb240 O244 2.596 . S
Tb240 O245 2.374 . S
Tb240 O253 2.343 . S
Tb240 O255 2.353 . S
Tb240 O257 2.427 . S
Tb240 O258 2.513 . S
C241 O245 1.251 . S
C241 O247 1.263 . S
Tb242 O244 2.343 . S
Tb242 O247 2.353 . S
Tb242 O250 2.427 . S
Tb242 O251 2.513 . S
Tb242 O252 2.453 . S
Tb242 O253 2.596 . S
Tb242 O254 2.374 . S
O243 Tb240 2.453 . S
O243 C259 1.245 . S
O244 Tb240 2.596 . S
O244 Tb242 2.343 . S
O244 C259 1.259 . S
O245 Tb240 2.374 . S
O245 C241 1.251 . S
C246 O250 1.275 . S
C246 O251 1.246 . S
O247 C241 1.263 . S
O247 Tb242 2.353 . S
C248 O252 1.245 . S
C248 O253 1.259 . S
C249 O254 1.250 . S
C249 O255 1.263 . S
O250 Tb242 2.427 . S
O250 C246 1.275 . S
O251 Tb242 2.513 . S
O251 C246 1.246 . S
O252 Tb242 2.453 . S
O252 C248 1.245 . S
O253 Tb240 2.343 . S
O253 Tb242 2.596 . S
O253 C248 1.259 . S
O254 Tb242 2.374 . S
O254 C249 1.250 . S
O255 Tb240 2.353 . S
O255 C249 1.263 . S
C256 O257 1.275 . S
C256 O258 1.246 . S
O257 Tb240 2.427 . S
O257 C256 1.275 . S
O258 Tb240 2.513 . S
O258 C256 1.246 . S
C259 O243 1.245 . S
C259 O244 1.259 . S
Tb260 O263 2.453 1_565 S
Tb260 O264 2.596 . S
Tb260 O265 2.374 1_565 S
Tb260 O273 2.343 . S
Tb260 O275 2.353 . S
Tb260 O277 2.427 . S
Tb260 O278 2.513 1_565 S
C261 O265 1.251 . S
C261 O267 1.263 . S
Tb262 O264 2.343 . S
Tb262 O267 2.353 1_565 S
Tb262 O270 2.427 . S
Tb262 O271 2.513 . S
Tb262 O272 2.453 . S
Tb262 O273 2.596 . S
Tb262 O274 2.374 . S
O263 Tb260 2.453 1_545 S
O263 C279 1.245 . S
O264 Tb260 2.596 . S
O264 Tb262 2.343 . S
O264 C279 1.259 1_565 S
O265 Tb260 2.374 1_545 S
O265 C261 1.251 . S
C266 O270 1.275 . S
C266 O271 1.246 . S
O267 C261 1.263 . S
O267 Tb262 2.353 1_545 S
C268 O272 1.245 . S
C268 O273 1.259 . S
C269 O274 1.250 . S
C269 O275 1.263 . S
O270 Tb262 2.427 . S
O270 C266 1.275 . S
O271 Tb262 2.513 . S
O271 C266 1.246 . S
O272 Tb262 2.453 . S
O272 C268 1.245 . S
O273 Tb260 2.343 . S
O273 Tb262 2.596 . S
O273 C268 1.259 . S
O274 Tb262 2.374 . S
O274 C269 1.250 . S
O275 Tb260 2.353 . S
O275 C269 1.263 . S
C276 O277 1.275 . S
C276 O278 1.246 1_565 S
O277 Tb260 2.427 . S
O277 C276 1.275 . S
O278 Tb260 2.513 1_545 S
O278 C276 1.246 1_545 S
C279 O263 1.245 . S
C279 O264 1.259 1_545 S
Tb280 O283 2.453 . S
Tb280 O284 2.596 . S
Tb280 O285 2.374 . S
Tb280 O293 2.343 . S
Tb280 O295 2.353 . S
Tb280 O297 2.427 . S
Tb280 O298 2.513 . S
C281 O285 1.251 . S
C281 O287 1.263 . S
Tb282 O284 2.343 . S
Tb282 O287 2.353 . S
Tb282 O290 2.427 . S
Tb282 O291 2.513 . S
Tb282 O292 2.453 . S
Tb282 O293 2.596 . S
Tb282 O294 2.374 . S
O283 Tb280 2.453 . S
O283 C299 1.245 . S
O284 Tb280 2.596 . S
O284 Tb282 2.343 . S
O284 C299 1.259 . S
O285 Tb280 2.374 . S
O285 C281 1.251 . S
C286 O290 1.275 . S
C286 O291 1.246 . S
O287 C281 1.263 . S
O287 Tb282 2.353 . S
C288 O292 1.245 . S
C288 O293 1.259 . S
C289 O294 1.250 . S
C289 O295 1.263 . S
O290 Tb282 2.427 . S
O290 C286 1.275 . S
O291 Tb282 2.513 . S
O291 C286 1.246 . S
O292 Tb282 2.453 . S
O292 C288 1.245 . S
O293 Tb280 2.343 . S
O293 Tb282 2.596 . S
O293 C288 1.259 . S
O294 Tb282 2.374 . S
O294 C289 1.250 . S
O295 Tb280 2.353 . S
O295 C289 1.263 . S
C296 O297 1.275 . S
C296 O298 1.246 . S
O297 Tb280 2.427 . S
O297 C296 1.275 . S
O298 Tb280 2.513 . S
O298 C296 1.246 . S
C299 O283 1.245 . S
C299 O284 1.259 . S
Tb300 O303 2.453 1_545 S
Tb300 O304 2.596 . S
Tb300 O305 2.374 1_545 S
Tb300 O313 2.343 . S
Tb300 O315 2.353 . S
Tb300 O317 2.427 . S
Tb300 O318 2.513 1_545 S
C301 O305 1.251 . S
C301 O307 1.263 . S
Tb302 O304 2.343 . S
Tb302 O307 2.353 1_545 S
Tb302 O310 2.427 . S
Tb302 O311 2.513 . S
Tb302 O312 2.453 . S
Tb302 O313 2.596 . S
Tb302 O314 2.374 . S
O303 Tb300 2.453 1_565 S
O303 C319 1.245 . S
O304 Tb300 2.596 . S
O304 Tb302 2.343 . S
O304 C319 1.259 1_545 S
O305 Tb300 2.374 1_565 S
O305 C301 1.251 . S
C306 O310 1.275 . S
C306 O311 1.246 . S
O307 C301 1.263 . S
O307 Tb302 2.353 1_565 S
C308 O312 1.245 . S
C308 O313 1.259 . S
C309 O314 1.250 . S
C309 O315 1.263 . S
O310 Tb302 2.427 . S
O310 C306 1.275 . S
O311 Tb302 2.513 . S
O311 C306 1.246 . S
O312 Tb302 2.453 . S
O312 C308 1.245 . S
O313 Tb300 2.343 . S
O313 Tb302 2.596 . S
O313 C308 1.259 . S
O314 Tb302 2.374 . S
O314 C309 1.250 . S
O315 Tb300 2.353 . S
O315 C309 1.263 . S
C316 O317 1.275 . S
C316 O318 1.246 1_545 S
O317 Tb300 2.427 . S
O317 C316 1.275 . S
O318 Tb300 2.513 1_565 S
O318 C316 1.246 1_565 S
C319 O303 1.245 . S
C319 O304 1.259 1_565 S
H320 C326 0.930 . S
H321 C329 0.930 . S
H322 C330 0.930 . S
H323 C331 0.930 . S
H324 C334 0.930 . S
H325 C335 0.930 . S
C326 H320 0.930 . S
C326 C327 1.355 . S
C326 C328 1.415 . S
C327 C326 1.355 . S
C327 C329 1.419 . S
C328 C326 1.415 . S
C328 C333 1.425 . S
C328 C335 1.409 . S
C329 H321 0.930 . S
C329 C327 1.419 . S
C329 C330 1.362 . S
C330 H322 0.930 . S
C330 C329 1.362 . S
C330 C333 1.409 . S
C331 H323 0.930 . S
C331 C332 1.355 . S
C331 C333 1.415 . S
C332 C331 1.355 . S
C332 C334 1.419 . S
C333 C328 1.425 . S
C333 C330 1.409 . S
C333 C331 1.415 . S
C334 H324 0.930 . S
C334 C332 1.419 . S
C334 C335 1.362 . S
C335 H325 0.930 . S
C335 C328 1.409 . S
C335 C334 1.362 . S
H336 C342 0.930 . S
H337 C345 0.930 . S
H338 C346 0.930 . S
H339 C347 0.930 . S
H340 C350 0.930 . S
H341 C351 0.930 . S
C342 H336 0.930 . S
C342 C343 1.355 . S
C342 C344 1.415 . S
C343 C342 1.355 . S
C343 C345 1.419 . S
C344 C342 1.415 . S
C344 C349 1.425 . S
C344 C351 1.409 . S
C345 H337 0.930 . S
C345 C343 1.419 . S
C345 C346 1.362 . S
C346 H338 0.930 . S
C346 C345 1.362 . S
C346 C349 1.409 . S
C347 H339 0.930 . S
C347 C348 1.355 . S
C347 C349 1.415 . S
C348 C347 1.355 . S
C348 C350 1.419 . S
C349 C344 1.425 . S
C349 C346 1.409 . S
C349 C347 1.415 . S
C350 H340 0.930 . S
C350 C348 1.419 . S
C350 C351 1.362 . S
C351 H341 0.930 . S
C351 C344 1.409 . S
C351 C350 1.362 . S
H352 C358 0.930 . S
H353 C361 0.930 . S
H354 C362 0.930 . S
H355 C363 0.930 . S
H356 C366 0.930 . S
H357 C367 0.930 . S
C358 H352 0.930 . S
C358 C359 1.355 . S
C358 C360 1.415 1_455 S
C359 C358 1.355 . S
C359 C361 1.419 . S
C360 C358 1.415 1_655 S
C360 C365 1.425 1_655 S
C360 C367 1.409 . S
C361 H353 0.930 . S
C361 C359 1.419 . S
C361 C362 1.362 . S
C362 H354 0.930 . S
C362 C361 1.362 . S
C362 C365 1.409 . S
C363 H355 0.930 . S
C363 C364 1.355 . S
C363 C365 1.415 1_655 S
C364 C363 1.355 . S
C364 C366 1.419 . S
C365 C360 1.425 1_455 S
C365 C362 1.409 . S
C365 C363 1.415 1_455 S
C366 H356 0.930 . S
C366 C364 1.419 . S
C366 C367 1.362 . S
C367 H357 0.930 . S
C367 C360 1.409 . S
C367 C366 1.362 . S
H368 C374 0.930 . S
H369 C377 0.929 1_655 S
H370 C378 0.930 . S
H371 C379 0.930 . S
H372 C382 0.929 1_455 S
H373 C383 0.930 . S
C374 H368 0.930 . S
C374 C375 1.355 . S
C374 C376 1.415 . S
C375 C374 1.355 . S
C375 C377 1.419 . S
C376 C374 1.415 . S
C376 C381 1.425 1_455 S
C376 C383 1.409 . S
C377 H369 0.929 1_455 S
C377 C375 1.419 . S
C377 C378 1.362 1_455 S
C378 H370 0.930 . S
C378 C377 1.362 1_655 S
C378 C381 1.409 . S
C379 H371 0.930 . S
C379 C380 1.355 . S
C379 C381 1.415 . S
C380 C379 1.355 . S
C380 C382 1.419 . S
C381 C376 1.425 1_655 S
C381 C378 1.409 . S
C381 C379 1.415 . S
C382 H372 0.929 1_655 S
C382 C380 1.419 . S
C382 C383 1.362 1_655 S
C383 H373 0.930 . S
C383 C376 1.409 . S
C383 C382 1.362 1_455 S
H384 C390 0.930 . S
H385 C393 0.930 . S
H386 C394 0.930 . S
H387 C395 0.930 . S
H388 C398 0.930 . S
H389 C399 0.930 . S
C390 H384 0.930 . S
C390 C391 1.355 . S
C390 C392 1.415 . S
C391 C390 1.355 . S
C391 C393 1.419 . S
C392 C390 1.415 . S
C392 C397 1.425 . S
C392 C399 1.409 . S
C393 H385 0.930 . S
C393 C391 1.419 . S
C393 C394 1.362 . S
C394 H386 0.930 . S
C394 C393 1.362 . S
C394 C397 1.409 . S
C395 H387 0.930 . S
C395 C396 1.355 . S
C395 C397 1.415 . S
C396 C395 1.355 . S
C396 C398 1.419 . S
C397 C392 1.425 . S
C397 C394 1.409 . S
C397 C395 1.415 . S
C398 H388 0.930 . S
C398 C396 1.419 . S
C398 C399 1.362 . S
C399 H389 0.930 . S
C399 C392 1.409 . S
C399 C398 1.362 . S
H400 C406 0.930 . S
H401 C409 0.930 . S
H402 C410 0.930 . S
H403 C411 0.930 . S
H404 C414 0.930 . S
H405 C415 0.930 . S
C406 H400 0.930 . S
C406 C407 1.355 . S
C406 C408 1.415 . S
C407 C406 1.355 . S
C407 C409 1.419 . S
C408 C406 1.415 . S
C408 C413 1.425 . S
C408 C415 1.409 . S
C409 H401 0.930 . S
C409 C407 1.419 . S
C409 C410 1.362 . S
C410 H402 0.930 . S
C410 C409 1.362 . S
C410 C413 1.409 . S
C411 H403 0.930 . S
C411 C412 1.355 . S
C411 C413 1.415 . S
C412 C411 1.355 . S
C412 C414 1.419 . S
C413 C408 1.425 . S
C413 C410 1.409 . S
C413 C411 1.415 . S
C414 H404 0.930 . S
C414 C412 1.419 . S
C414 C415 1.362 . S
C415 H405 0.930 . S
C415 C408 1.409 . S
C415 C414 1.362 . S
H416 C422 0.930 . S
H417 C425 0.930 . S
H418 C426 0.930 . S
H419 C427 0.930 . S
H420 C430 0.930 . S
H421 C431 0.930 . S
C422 H416 0.930 . S
C422 C423 1.355 . S
C422 C424 1.415 1_455 S
C423 C422 1.355 . S
C423 C425 1.419 . S
C424 C422 1.415 1_655 S
C424 C429 1.425 1_655 S
C424 C431 1.409 . S
C425 H417 0.930 . S
C425 C423 1.419 . S
C425 C426 1.362 . S
C426 H418 0.930 . S
C426 C425 1.362 . S
C426 C429 1.409 . S
C427 H419 0.930 . S
C427 C428 1.355 . S
C427 C429 1.415 1_655 S
C428 C427 1.355 . S
C428 C430 1.419 . S
C429 C424 1.425 1_455 S
C429 C426 1.409 . S
C429 C427 1.415 1_455 S
C430 H420 0.930 . S
C430 C428 1.419 . S
C430 C431 1.362 . S
C431 H421 0.930 . S
C431 C424 1.409 . S
C431 C430 1.362 . S
H432 C438 0.930 . S
H433 C441 0.930 . S
H434 C442 0.930 . S
H435 C443 0.930 . S
H436 C446 0.930 . S
H437 C447 0.930 . S
C438 H432 0.930 . S
C438 C439 1.355 . S
C438 C440 1.415 . S
C439 C438 1.355 . S
C439 C441 1.419 . S
C440 C438 1.415 . S
C440 C445 1.425 1_455 S
C440 C447 1.409 . S
C441 H433 0.930 . S
C441 C439 1.419 . S
C441 C442 1.362 1_455 S
C442 H434 0.930 . S
C442 C441 1.362 1_655 S
C442 C445 1.409 . S
C443 H435 0.930 . S
C443 C444 1.355 . S
C443 C445 1.415 . S
C444 C443 1.355 . S
C444 C446 1.419 . S
C445 C440 1.425 1_655 S
C445 C442 1.409 . S
C445 C443 1.415 . S
C446 H436 0.930 . S
C446 C444 1.419 . S
C446 C447 1.362 1_655 S
C447 H437 0.930 . S
C447 C440 1.409 . S
C447 C446 1.362 1_455 S
H448 C454 0.930 . S
H449 C457 0.928 1_556 S
H450 C458 0.930 . S
H451 C459 0.930 . S
H452 C462 0.928 1_554 S
H453 C463 0.930 . S
C454 H448 0.930 . S
C454 C455 1.355 . S
C454 C456 1.415 . S
C455 C454 1.355 . S
C455 C457 1.426 . S
C456 C454 1.415 . S
C456 C461 1.425 1_544 S
C456 C463 1.409 1_545 S
C457 H449 0.928 1_554 S
C457 C455 1.426 . S
C457 C458 1.357 1_554 S
C458 H450 0.930 . S
C458 C457 1.357 1_556 S
C458 C461 1.409 1_545 S
C459 H451 0.930 . S
C459 C460 1.355 . S
C459 C461 1.415 . S
C460 C459 1.355 . S
C460 C462 1.426 . S
C461 C456 1.425 1_566 S
C461 C458 1.409 1_565 S
C461 C459 1.415 . S
C462 H452 0.928 1_556 S
C462 C460 1.426 . S
C462 C463 1.357 1_556 S
C463 H453 0.930 . S
C463 C456 1.409 1_565 S
C463 C462 1.357 1_554 S
H464 C470 0.930 . S
H465 C473 0.930 . S
H466 C474 0.930 . S
H467 C475 0.930 . S
H468 C478 0.930 . S
H469 C479 0.930 . S
C470 H464 0.930 . S
C470 C471 1.355 . S
C470 C472 1.415 . S
C471 C470 1.355 . S
C471 C473 1.419 . S
C472 C470 1.415 . S
C472 C477 1.425 . S
C472 C479 1.409 . S
C473 H465 0.930 . S
C473 C471 1.419 . S
C473 C474 1.362 . S
C474 H466 0.930 . S
C474 C473 1.362 . S
C474 C477 1.409 . S
C475 H467 0.930 . S
C475 C476 1.355 . S
C475 C477 1.415 . S
C476 C475 1.355 . S
C476 C478 1.419 . S
C477 C472 1.425 . S
C477 C474 1.409 . S
C477 C475 1.415 . S
C478 H468 0.930 . S
C478 C476 1.419 . S
C478 C479 1.362 . S
C479 H469 0.930 . S
C479 C472 1.409 . S
C479 C478 1.362 . S
H480 C486 0.930 . S
H481 C489 0.930 . S
H482 C490 0.930 . S
H483 C491 0.930 . S
H484 C494 0.930 . S
H485 C495 0.930 . S
C486 H480 0.930 . S
C486 C487 1.355 . S
C486 C488 1.415 1_455 S
C487 C486 1.355 . S
C487 C489 1.419 1_565 S
C488 C486 1.415 1_655 S
C488 C493 1.425 1_665 S
C488 C495 1.409 . S
C489 H481 0.930 . S
C489 C487 1.419 1_545 S
C489 C490 1.362 . S
C490 H482 0.930 . S
C490 C489 1.362 . S
C490 C493 1.409 . S
C491 H483 0.930 . S
C491 C492 1.355 . S
C491 C493 1.415 1_655 S
C492 C491 1.355 . S
C492 C494 1.419 1_545 S
C493 C488 1.425 1_445 S
C493 C490 1.409 . S
C493 C491 1.415 1_455 S
C494 H484 0.930 . S
C494 C492 1.419 1_565 S
C494 C495 1.362 . S
C495 H485 0.930 . S
C495 C488 1.409 . S
C495 C494 1.362 . S
H496 C502 0.930 . S
H497 C505 0.930 . S
H498 C506 0.930 . S
H499 C507 0.930 . S
H500 C510 0.930 . S
H501 C511 0.930 . S
C502 H496 0.930 . S
C502 C503 1.355 . S
C502 C504 1.415 . S
C503 C502 1.355 . S
C503 C505 1.419 . S
C504 C502 1.415 . S
C504 C509 1.425 . S
C504 C511 1.409 . S
C505 H497 0.930 . S
C505 C503 1.419 . S
C505 C506 1.362 . S
C506 H498 0.930 . S
C506 C505 1.362 . S
C506 C509 1.409 . S
C507 H499 0.930 . S
C507 C508 1.355 . S
C507 C509 1.415 . S
C508 C507 1.355 . S
C508 C510 1.419 . S
C509 C504 1.425 . S
C509 C506 1.409 . S
C509 C507 1.415 . S
C510 H500 0.930 . S
C510 C508 1.419 . S
C510 C511 1.362 . S
C511 H501 0.930 . S
C511 C504 1.409 . S
C511 C510 1.362 . S
H512 C518 0.930 . S
H513 C521 0.930 . S
H514 C522 0.930 . S
H515 C523 0.930 . S
H516 C526 0.930 . S
H517 C527 0.930 . S
C518 H512 0.930 . S
C518 C519 1.355 . S
C518 C520 1.415 . S
C519 C518 1.355 . S
C519 C521 1.419 . S
C520 C518 1.415 . S
C520 C525 1.425 . S
C520 C527 1.409 . S
C521 H513 0.930 . S
C521 C519 1.419 . S
C521 C522 1.362 . S
C522 H514 0.930 . S
C522 C521 1.362 . S
C522 C525 1.409 . S
C523 H515 0.930 . S
C523 C524 1.355 . S
C523 C525 1.415 . S
C524 C523 1.355 . S
C524 C526 1.419 . S
C525 C520 1.425 . S
C525 C522 1.409 . S
C525 C523 1.415 . S
C526 H516 0.930 . S
C526 C524 1.419 . S
C526 C527 1.362 . S
C527 H517 0.930 . S
C527 C520 1.409 . S
C527 C526 1.362 . S
H528 C534 0.930 . S
H529 C537 0.930 . S
H530 C538 0.930 . S
H531 C539 0.930 . S
H532 C542 0.930 . S
H533 C543 0.930 . S
C534 H528 0.930 . S
C534 C535 1.355 . S
C534 C536 1.415 . S
C535 C534 1.355 . S
C535 C537 1.419 . S
C536 C534 1.415 . S
C536 C541 1.425 . S
C536 C543 1.409 . S
C537 H529 0.930 . S
C537 C535 1.419 . S
C537 C538 1.362 . S
C538 H530 0.930 . S
C538 C537 1.362 . S
C538 C541 1.409 . S
C539 H531 0.930 . S
C539 C540 1.355 . S
C539 C541 1.415 . S
C540 C539 1.355 . S
C540 C542 1.419 . S
C541 C536 1.425 . S
C541 C538 1.409 . S
C541 C539 1.415 . S
C542 H532 0.930 . S
C542 C540 1.419 . S
C542 C543 1.362 . S
C543 H533 0.930 . S
C543 C536 1.409 . S
C543 C542 1.362 . S
H544 C550 0.930 . S
H545 C553 0.930 . S
H546 C554 0.930 . S
H547 C555 0.930 . S
H548 C558 0.930 . S
H549 C559 0.930 . S
C550 H544 0.930 . S
C550 C551 1.355 . S
C550 C552 1.415 1_455 S
C551 C550 1.355 . S
C551 C553 1.419 . S
C552 C550 1.415 1_655 S
C552 C557 1.425 1_655 S
C552 C559 1.409 . S
C553 H545 0.930 . S
C553 C551 1.419 . S
C553 C554 1.362 . S
C554 H546 0.930 . S
C554 C553 1.362 . S
C554 C557 1.409 . S
C555 H547 0.930 . S
C555 C556 1.355 . S
C555 C557 1.415 1_655 S
C556 C555 1.355 . S
C556 C558 1.419 . S
C557 C552 1.425 1_455 S
C557 C554 1.409 . S
C557 C555 1.415 1_455 S
C558 H548 0.930 . S
C558 C556 1.419 . S
C558 C559 1.362 . S
C559 H549 0.930 . S
C559 C552 1.409 . S
C559 C558 1.362 . S
H560 C566 0.930 . S
H561 C569 0.929 . S
H562 C570 0.930 . S
H563 C571 0.930 . S
H564 C574 0.930 . S
H565 C575 0.930 . S
C566 H560 0.930 . S
C566 C567 1.355 . S
C566 C568 1.415 . S
C567 C566 1.355 . S
C567 C569 1.421 1_554 S
C568 C566 1.415 . S
C568 C573 1.425 1_554 S
C568 C575 1.409 . S
C569 H561 0.929 . S
C569 C567 1.421 1_556 S
C569 C570 1.361 . S
C570 H562 0.930 . S
C570 C569 1.361 . S
C570 C573 1.409 . S
C571 H563 0.930 . S
C571 C572 1.355 . S
C571 C573 1.415 . S
C572 C571 1.355 . S
C572 C574 1.421 1_556 S
C573 C568 1.425 1_556 S
C573 C570 1.409 . S
C573 C571 1.415 . S
C574 H564 0.930 . S
C574 C572 1.421 1_554 S
C574 C575 1.361 . S
C575 H565 0.930 . S
C575 C568 1.409 . S
C575 C574 1.361 . S
H576 C582 0.930 . S
H577 C585 0.930 . S
H578 C586 0.930 . S
H579 C587 0.930 . S
H580 C590 0.930 . S
H581 C591 0.930 . S
C582 H576 0.930 . S
C582 C583 1.355 . S
C582 C584 1.415 . S
C583 C582 1.355 . S
C583 C585 1.419 . S
C584 C582 1.415 . S
C584 C589 1.425 . S
C584 C591 1.409 . S
C585 H577 0.930 . S
C585 C583 1.419 . S
C585 C586 1.362 . S
C586 H578 0.930 . S
C586 C585 1.362 . S
C586 C589 1.409 . S
C587 H579 0.930 . S
C587 C588 1.355 . S
C587 C589 1.415 . S
C588 C587 1.355 . S
C588 C590 1.419 . S
C589 C584 1.425 . S
C589 C586 1.409 . S
C589 C587 1.415 . S
C590 H580 0.930 . S
C590 C588 1.419 . S
C590 C591 1.362 . S
C591 H581 0.930 . S
C591 C584 1.409 . S
C591 C590 1.362 . S
H592 C598 0.930 . S
H593 C601 0.930 . S
H594 C602 0.930 . S
H595 C603 0.930 . S
H596 C606 0.930 . S
H597 C607 0.930 . S
C598 H592 0.930 . S
C598 C599 1.355 . S
C598 C600 1.415 . S
C599 C598 1.355 . S
C599 C601 1.419 . S
C600 C598 1.415 . S
C600 C605 1.425 . S
C600 C607 1.409 . S
C601 H593 0.930 . S
C601 C599 1.419 . S
C601 C602 1.362 . S
C602 H594 0.930 . S
C602 C601 1.362 . S
C602 C605 1.409 . S
C603 H595 0.930 . S
C603 C604 1.355 . S
C603 C605 1.415 . S
C604 C603 1.355 . S
C604 C606 1.419 . S
C605 C600 1.425 . S
C605 C602 1.409 . S
C605 C603 1.415 . S
C606 H596 0.930 . S
C606 C604 1.419 . S
C606 C607 1.362 . S
C607 H597 0.930 . S
C607 C600 1.409 . S
C607 C606 1.362 . S
H608 C614 0.930 . S
H609 C617 0.930 . S
H610 C618 0.930 . S
H611 C619 0.930 . S
H612 C622 0.930 . S
H613 C623 0.930 . S
C614 H608 0.930 . S
C614 C615 1.355 . S
C614 C616 1.415 . S
C615 C614 1.355 . S
C615 C617 1.419 . S
C616 C614 1.415 . S
C616 C621 1.425 . S
C616 C623 1.409 . S
C617 H609 0.930 . S
C617 C615 1.419 . S
C617 C618 1.362 . S
C618 H610 0.930 . S
C618 C617 1.362 . S
C618 C621 1.409 . S
C619 H611 0.930 . S
C619 C620 1.355 . S
C619 C621 1.415 . S
C620 C619 1.355 . S
C620 C622 1.419 . S
C621 C616 1.425 . S
C621 C618 1.409 . S
C621 C619 1.415 . S
C622 H612 0.930 . S
C622 C620 1.419 . S
C622 C623 1.362 . S
C623 H613 0.930 . S
C623 C616 1.409 . S
C623 C622 1.362 . S
H624 C630 0.930 . S
H625 C633 0.930 . S
H626 C634 0.930 . S
H627 C635 0.930 . S
H628 C638 0.930 . S
H629 C639 0.930 . S
C630 H624 0.930 . S
C630 C631 1.355 1_455 S
C630 C632 1.415 . S
C631 C630 1.355 1_655 S
C631 C633 1.419 . S
C632 C630 1.415 . S
C632 C637 1.425 . S
C632 C639 1.409 . S
C633 H625 0.930 . S
C633 C631 1.419 . S
C633 C634 1.362 . S
C634 H626 0.930 . S
C634 C633 1.362 . S
C634 C637 1.409 1_655 S
C635 H627 0.930 . S
C635 C636 1.355 . S
C635 C637 1.415 . S
C636 C635 1.355 . S
C636 C638 1.419 . S
C637 C632 1.425 . S
C637 C634 1.409 1_455 S
C637 C635 1.415 . S
C638 H628 0.930 . S
C638 C636 1.419 . S
C638 C639 1.362 . S
C639 H629 0.930 . S
C639 C632 1.409 . S
C639 C638 1.362 . S
H640 C646 0.930 . S
H641 C649 0.930 . S
H642 C650 0.930 . S
H643 C651 0.930 . S
H644 C654 0.930 . S
H645 C655 0.930 . S
C646 H640 0.930 . S
C646 C647 1.355 . S
C646 C648 1.415 . S
C647 C646 1.355 . S
C647 C649 1.419 . S
C648 C646 1.415 . S
C648 C653 1.425 . S
C648 C655 1.409 . S
C649 H641 0.930 . S
C649 C647 1.419 . S
C649 C650 1.362 . S
C650 H642 0.930 . S
C650 C649 1.362 . S
C650 C653 1.409 . S
C651 H643 0.930 . S
C651 C652 1.355 . S
C651 C653 1.415 . S
C652 C651 1.355 . S
C652 C654 1.419 . S
C653 C648 1.425 . S
C653 C650 1.409 . S
C653 C651 1.415 . S
C654 H644 0.930 . S
C654 C652 1.419 . S
C654 C655 1.362 . S
C655 H645 0.930 . S
C655 C648 1.409 . S
C655 C654 1.362 . S
H656 C662 0.930 . S
H657 C665 0.930 . S
H658 C666 0.930 . S
H659 C667 0.930 . S
H660 C670 0.930 . S
H661 C671 0.930 . S
C662 H656 0.930 . S
C662 C663 1.355 . S
C662 C664 1.415 . S
C663 C662 1.355 . S
C663 C665 1.419 . S
C664 C662 1.415 . S
C664 C669 1.425 . S
C664 C671 1.409 . S
C665 H657 0.930 . S
C665 C663 1.419 . S
C665 C666 1.362 . S
C666 H658 0.930 . S
C666 C665 1.362 . S
C666 C669 1.409 . S
C667 H659 0.930 . S
C667 C668 1.355 . S
C667 C669 1.415 . S
C668 C667 1.355 . S
C668 C670 1.419 . S
C669 C664 1.425 . S
C669 C666 1.409 . S
C669 C667 1.415 . S
C670 H660 0.930 . S
C670 C668 1.419 . S
C670 C671 1.362 . S
C671 H661 0.930 . S
C671 C664 1.409 . S
C671 C670 1.362 . S
H672 C678 0.930 . S
H673 C681 0.930 . S
H674 C682 0.930 . S
H675 C683 0.930 . S
H676 C686 0.930 . S
H677 C687 0.930 . S
C678 H672 0.930 . S
C678 C679 1.355 . S
C678 C680 1.415 . S
C679 C678 1.355 . S
C679 C681 1.419 . S
C680 C678 1.415 . S
C680 C685 1.425 . S
C680 C687 1.409 . S
C681 H673 0.930 . S
C681 C679 1.419 . S
C681 C682 1.362 . S
C682 H674 0.930 . S
C682 C681 1.362 . S
C682 C685 1.409 . S
C683 H675 0.930 . S
C683 C684 1.355 . S
C683 C685 1.415 . S
C684 C683 1.355 . S
C684 C686 1.419 . S
C685 C680 1.425 . S
C685 C682 1.409 . S
C685 C683 1.415 . S
C686 H676 0.930 . S
C686 C684 1.419 . S
C686 C687 1.362 . S
C687 H677 0.930 . S
C687 C680 1.409 . S
C687 C686 1.362 . S
H688 C694 0.930 . S
H689 C697 0.930 . S
H690 C698 0.930 . S
H691 C699 0.930 . S
H692 C702 0.930 . S
H693 C703 0.930 . S
C694 H688 0.930 . S
C694 C695 1.355 . S
C694 C696 1.415 . S
C695 C694 1.355 . S
C695 C697 1.419 . S
C696 C694 1.415 . S
C696 C701 1.425 . S
C696 C703 1.409 1_655 S
C697 H689 0.930 . S
C697 C695 1.419 . S
C697 C698 1.362 . S
C698 H690 0.930 . S
C698 C697 1.362 . S
C698 C701 1.409 . S
C699 H691 0.930 . S
C699 C700 1.355 1_655 S
C699 C701 1.415 . S
C700 C699 1.355 1_455 S
C700 C702 1.419 . S
C701 C696 1.425 . S
C701 C698 1.409 . S
C701 C699 1.415 . S
C702 H692 0.930 . S
C702 C700 1.419 . S
C702 C703 1.362 . S
C703 H693 0.930 . S
C703 C696 1.409 1_455 S
C703 C702 1.362 . S
H704 C710 0.930 . S
H705 C713 0.930 . S
H706 C714 0.930 . S
H707 C715 0.930 . S
H708 C718 0.930 . S
H709 C719 0.930 . S
C710 H704 0.930 . S
C710 C711 1.355 . S
C710 C712 1.415 . S
C711 C710 1.355 . S
C711 C713 1.419 . S
C712 C710 1.415 . S
C712 C717 1.425 . S
C712 C719 1.409 . S
C713 H705 0.930 . S
C713 C711 1.419 . S
C713 C714 1.362 . S
C714 H706 0.930 . S
C714 C713 1.362 . S
C714 C717 1.409 . S
C715 H707 0.930 . S
C715 C716 1.355 . S
C715 C717 1.415 . S
C716 C715 1.355 . S
C716 C718 1.419 . S
C717 C712 1.425 . S
C717 C714 1.409 . S
C717 C715 1.415 . S
C718 H708 0.930 . S
C718 C716 1.419 . S
C718 C719 1.362 . S
C719 H709 0.930 . S
C719 C712 1.409 . S
C719 C718 1.362 . S
H720 C726 0.930 . S
H721 C729 0.930 1_545 S
H722 C730 0.930 . S
H723 C731 0.930 . S
H724 C734 0.930 . S
H725 C735 0.930 1_455 S
C726 H720 0.930 . S
C726 C727 1.355 . S
C726 C728 1.415 . S
C727 C726 1.355 . S
C727 C729 1.419 . S
C728 C726 1.415 . S
C728 C733 1.425 . S
C728 C735 1.409 . S
C729 H721 0.930 1_565 S
C729 C727 1.419 . S
C729 C730 1.362 1_565 S
C730 H722 0.930 . S
C730 C729 1.362 1_545 S
C730 C733 1.409 1_545 S
C731 H723 0.930 . S
C731 C732 1.355 1_645 S
C731 C733 1.415 1_545 S
C732 C731 1.355 1_465 S
C732 C734 1.419 . S
C733 C728 1.425 . S
C733 C730 1.409 1_565 S
C733 C731 1.415 1_565 S
C734 H724 0.930 . S
C734 C732 1.419 . S
C734 C735 1.362 1_455 S
C735 H725 0.930 1_655 S
C735 C728 1.409 . S
C735 C734 1.362 1_655 S
H736 C742 0.930 . S
H737 C745 0.930 . S
H738 C746 0.930 . S
H739 C747 0.930 . S
H740 C750 0.930 . S
H741 C751 0.930 . S
C742 H736 0.930 . S
C742 C743 1.355 . S
C742 C744 1.415 . S
C743 C742 1.355 . S
C743 C745 1.419 . S
C744 C742 1.415 . S
C744 C749 1.425 . S
C744 C751 1.409 . S
C745 H737 0.930 . S
C745 C743 1.419 . S
C745 C746 1.362 . S
C746 H738 0.930 . S
C746 C745 1.362 . S
C746 C749 1.409 . S
C747 H739 0.930 . S
C747 C748 1.355 . S
C747 C749 1.415 . S
C748 C747 1.355 . S
C748 C750 1.419 . S
C749 C744 1.425 . S
C749 C746 1.409 . S
C749 C747 1.415 . S
C750 H740 0.930 . S
C750 C748 1.419 . S
C750 C751 1.362 . S
C751 H741 0.930 . S
C751 C744 1.409 . S
C751 C750 1.362 . S
H752 C758 0.930 . S
H753 C761 0.930 . S
H754 C762 0.930 . S
H755 C763 0.930 . S
H756 C766 0.930 . S
H757 C767 0.930 . S
C758 H752 0.930 . S
C758 C759 1.355 . S
C758 C760 1.415 . S
C759 C758 1.355 . S
C759 C761 1.419 1_545 S
C760 C758 1.415 . S
C760 C765 1.425 . S
C760 C767 1.409 . S
C761 H753 0.930 . S
C761 C759 1.419 1_565 S
C761 C762 1.362 . S
C762 H754 0.930 . S
C762 C761 1.362 . S
C762 C765 1.409 1_565 S
C763 H755 0.930 . S
C763 C764 1.355 1_565 S
C763 C765 1.415 1_565 S
C764 C763 1.355 1_545 S
C764 C766 1.419 . S
C765 C760 1.425 . S
C765 C762 1.409 1_545 S
C765 C763 1.415 1_545 S
C766 H756 0.930 . S
C766 C764 1.419 . S
C766 C767 1.362 . S
C767 H757 0.930 . S
C767 C760 1.409 . S
C767 C766 1.362 . S
H768 C774 0.930 . S
H769 C777 0.930 . S
H770 C778 0.930 . S
H771 C779 0.930 . S
H772 C782 0.930 . S
H773 C783 0.930 . S
C774 H768 0.930 . S
C774 C775 1.355 . S
C774 C776 1.415 . S
C775 C774 1.355 . S
C775 C777 1.419 . S
C776 C774 1.415 . S
C776 C781 1.425 . S
C776 C783 1.409 . S
C777 H769 0.930 . S
C777 C775 1.419 . S
C777 C778 1.362 . S
C778 H770 0.930 . S
C778 C777 1.362 . S
C778 C781 1.409 . S
C779 H771 0.930 . S
C779 C780 1.355 . S
C779 C781 1.415 . S
C780 C779 1.355 . S
C780 C782 1.419 . S
C781 C776 1.425 . S
C781 C778 1.409 . S
C781 C779 1.415 . S
C782 H772 0.930 . S
C782 C780 1.419 . S
C782 C783 1.362 . S
C783 H773 0.930 . S
C783 C776 1.409 . S
C783 C782 1.362 . S
H784 C790 0.930 1_565 S
H785 C793 0.930 . S
H786 C794 0.930 . S
H787 C795 0.930 . S
H788 C798 0.931 . S
H789 C799 0.930 . S
C790 H784 0.930 1_545 S
C790 C791 1.355 1_455 S
C790 C792 1.415 . S
C791 C790 1.355 1_655 S
C791 C793 1.419 . S
C792 C790 1.415 . S
C792 C797 1.425 . S
C792 C799 1.409 1_545 S
C793 H785 0.930 . S
C793 C791 1.419 . S
C793 C794 1.362 . S
C794 H786 0.930 . S
C794 C793 1.362 . S
C794 C797 1.409 1_655 S
C795 H787 0.930 . S
C795 C796 1.355 . S
C795 C797 1.415 . S
C796 C795 1.355 . S
C796 C798 1.419 . S
C797 C792 1.425 . S
C797 C794 1.409 1_455 S
C797 C795 1.415 . S
C798 H788 0.931 . S
C798 C796 1.419 . S
C798 C799 1.362 1_545 S
C799 H789 0.930 . S
C799 C792 1.409 1_565 S
C799 C798 1.362 1_565 S
H800 C806 0.930 . S
H801 C809 0.930 . S
H802 C810 0.930 . S
H803 C811 0.930 . S
H804 C814 0.930 . S
H805 C815 0.930 . S
C806 H800 0.930 . S
C806 C807 1.355 . S
C806 C808 1.415 . S
C807 C806 1.355 . S
C807 C809 1.419 . S
C808 C806 1.415 . S
C808 C813 1.425 . S
C808 C815 1.409 . S
C809 H801 0.930 . S
C809 C807 1.419 . S
C809 C810 1.362 . S
C810 H802 0.930 . S
C810 C809 1.362 . S
C810 C813 1.409 . S
C811 H803 0.930 . S
C811 C812 1.355 . S
C811 C813 1.415 . S
C812 C811 1.355 . S
C812 C814 1.419 . S
C813 C808 1.425 . S
C813 C810 1.409 . S
C813 C811 1.415 . S
C814 H804 0.930 . S
C814 C812 1.419 . S
C814 C815 1.362 . S
C815 H805 0.930 . S
C815 C808 1.409 . S
C815 C814 1.362 . S
H816 C822 0.930 . S
H817 C825 0.930 . S
H818 C826 0.930 . S
H819 C827 0.930 1_545 S
H820 C830 0.930 . S
H821 C831 0.930 . S
C822 H816 0.930 . S
C822 C823 1.355 . S
C822 C824 1.415 . S
C823 C822 1.355 . S
C823 C825 1.419 1_565 S
C824 C822 1.415 . S
C824 C829 1.425 . S
C824 C831 1.409 . S
C825 H817 0.930 . S
C825 C823 1.419 1_545 S
C825 C826 1.362 . S
C826 H818 0.930 . S
C826 C825 1.362 . S
C826 C829 1.409 1_545 S
C827 H819 0.930 1_565 S
C827 C828 1.355 . S
C827 C829 1.415 . S
C828 C827 1.355 . S
C828 C830 1.419 . S
C829 C824 1.425 . S
C829 C826 1.409 1_565 S
C829 C827 1.415 . S
C830 H820 0.930 . S
C830 C828 1.419 . S
C830 C831 1.362 . S
C831 H821 0.930 . S
C831 C824 1.409 . S
C831 C830 1.362 . S
H832 C838 0.930 . S
H833 C841 0.930 . S
H834 C842 0.930 . S
H835 C843 0.930 . S
H836 C846 0.930 . S
H837 C847 0.930 . S
C838 H832 0.930 . S
C838 C839 1.355 . S
C838 C840 1.415 . S
C839 C838 1.355 . S
C839 C841 1.419 . S
C840 C838 1.415 . S
C840 C845 1.425 . S
C840 C847 1.409 . S
C841 H833 0.930 . S
C841 C839 1.419 . S
C841 C842 1.362 . S
C842 H834 0.930 . S
C842 C841 1.362 . S
C842 C845 1.409 . S
C843 H835 0.930 . S
C843 C844 1.355 . S
C843 C845 1.415 . S
C844 C843 1.355 . S
C844 C846 1.419 . S
C845 C840 1.425 . S
C845 C842 1.409 . S
C845 C843 1.415 . S
C846 H836 0.930 . S
C846 C844 1.419 . S
C846 C847 1.362 . S
C847 H837 0.930 . S
C847 C840 1.409 . S
C847 C846 1.362 . S
H848 C854 0.930 . S
H849 C857 0.930 . S
H850 C858 0.930 . S
H851 C859 0.930 . S
H852 C862 0.930 . S
H853 C863 0.930 . S
C854 H848 0.930 . S
C854 C855 1.355 . S
C854 C856 1.415 . S
C855 C854 1.355 . S
C855 C857 1.419 . S
C856 C854 1.415 . S
C856 C861 1.425 . S
C856 C863 1.409 . S
C857 H849 0.930 . S
C857 C855 1.419 . S
C857 C858 1.362 . S
C858 H850 0.930 . S
C858 C857 1.362 . S
C858 C861 1.409 . S
C859 H851 0.930 . S
C859 C860 1.355 . S
C859 C861 1.415 . S
C860 C859 1.355 . S
C860 C862 1.419 . S
C861 C856 1.425 . S
C861 C858 1.409 . S
C861 C859 1.415 . S
C862 H852 0.930 . S
C862 C860 1.419 . S
C862 C863 1.362 . S
C863 H853 0.930 . S
C863 C856 1.409 . S
C863 C862 1.362 . S
H864 C870 0.930 . S
H865 C873 0.930 . S
H866 C874 0.930 . S
H867 C875 0.930 . S
H868 C878 0.930 . S
H869 C879 0.930 . S
C870 H864 0.930 . S
C870 C871 1.355 . S
C870 C872 1.415 . S
C871 C870 1.355 . S
C871 C873 1.419 . S
C872 C870 1.415 . S
C872 C877 1.425 . S
C872 C879 1.409 . S
C873 H865 0.930 . S
C873 C871 1.419 . S
C873 C874 1.362 . S
C874 H866 0.930 . S
C874 C873 1.362 . S
C874 C877 1.409 . S
C875 H867 0.930 . S
C875 C876 1.355 . S
C875 C877 1.415 . S
C876 C875 1.355 . S
C876 C878 1.419 . S
C877 C872 1.425 . S
C877 C874 1.409 . S
C877 C875 1.415 . S
C878 H868 0.930 . S
C878 C876 1.419 . S
C878 C879 1.362 . S
C879 H869 0.930 . S
C879 C872 1.409 . S
C879 C878 1.362 . S
H880 C886 0.930 . S
H881 C889 0.930 . S
H882 C890 0.930 . S
H883 C891 0.930 . S
H884 C894 0.930 . S
H885 C895 0.930 . S
C886 H880 0.930 . S
C886 C887 1.355 . S
C886 C888 1.415 . S
C887 C886 1.355 . S
C887 C889 1.419 . S
C888 C886 1.415 . S
C888 C893 1.425 . S
C888 C895 1.409 . S
C889 H881 0.930 . S
C889 C887 1.419 . S
C889 C890 1.362 . S
C890 H882 0.930 . S
C890 C889 1.362 . S
C890 C893 1.409 . S
C891 H883 0.930 . S
C891 C892 1.355 . S
C891 C893 1.415 . S
C892 C891 1.355 . S
C892 C894 1.419 . S
C893 C888 1.425 . S
C893 C890 1.409 . S
C893 C891 1.415 . S
C894 H884 0.930 . S
C894 C892 1.419 . S
C894 C895 1.362 . S
C895 H885 0.930 . S
C895 C888 1.409 . S
C895 C894 1.362 . S
H896 C902 0.930 . S
H897 C905 0.930 . S
H898 C906 0.930 . S
H899 C907 0.930 . S
H900 C910 0.930 . S
H901 C911 0.930 1_545 S
C902 H896 0.930 . S
C902 C903 1.355 . S
C902 C904 1.415 . S
C903 C902 1.355 . S
C903 C905 1.419 . S
C904 C902 1.415 . S
C904 C909 1.425 . S
C904 C911 1.409 . S
C905 H897 0.930 . S
C905 C903 1.419 . S
C905 C906 1.362 . S
C906 H898 0.930 . S
C906 C905 1.362 . S
C906 C909 1.409 . S
C907 H899 0.930 . S
C907 C908 1.355 . S
C907 C909 1.415 . S
C908 C907 1.355 . S
C908 C910 1.419 . S
C909 C904 1.425 . S
C909 C906 1.409 . S
C909 C907 1.415 . S
C910 H900 0.930 . S
C910 C908 1.419 . S
C910 C911 1.362 . S
C911 H901 0.930 1_565 S
C911 C904 1.409 . S
C911 C910 1.362 . S
H912 C918 0.930 . S
H913 C921 0.930 . S
H914 C922 0.930 . S
H915 C923 0.930 . S
H916 C926 0.930 . S
H917 C927 0.930 . S
C918 H912 0.930 . S
C918 C919 1.355 . S
C918 C920 1.415 . S
C919 C918 1.355 . S
C919 C921 1.419 . S
C920 C918 1.415 . S
C920 C925 1.425 . S
C920 C927 1.409 . S
C921 H913 0.930 . S
C921 C919 1.419 . S
C921 C922 1.362 . S
C922 H914 0.930 . S
C922 C921 1.362 . S
C922 C925 1.409 . S
C923 H915 0.930 . S
C923 C924 1.355 . S
C923 C925 1.415 . S
C924 C923 1.355 . S
C924 C926 1.419 . S
C925 C920 1.425 . S
C925 C922 1.409 . S
C925 C923 1.415 . S
C926 H916 0.930 . S
C926 C924 1.419 . S
C926 C927 1.362 . S
C927 H917 0.930 . S
C927 C920 1.409 . S
C927 C926 1.362 . S
H928 C934 0.930 . S
H929 C937 0.930 . S
H930 C938 0.930 . S
H931 C939 0.930 . S
H932 C942 0.930 . S
H933 C943 0.930 . S
C934 H928 0.930 . S
C934 C935 1.355 . S
C934 C936 1.415 . S
C935 C934 1.355 . S
C935 C937 1.419 . S
C936 C934 1.415 . S
C936 C941 1.425 . S
C936 C943 1.409 . S
C937 H929 0.930 . S
C937 C935 1.419 . S
C937 C938 1.362 . S
C938 H930 0.930 . S
C938 C937 1.362 . S
C938 C941 1.409 . S
C939 H931 0.930 . S
C939 C940 1.355 . S
C939 C941 1.415 . S
C940 C939 1.355 . S
C940 C942 1.419 . S
C941 C936 1.425 . S
C941 C938 1.409 . S
C941 C939 1.415 . S
C942 H932 0.930 . S
C942 C940 1.419 . S
C942 C943 1.362 . S
C943 H933 0.930 . S
C943 C936 1.409 . S
C943 C942 1.362 . S
H944 C950 0.930 . S
H945 C953 0.930 . S
H946 C954 0.930 . S
H947 C955 0.930 . S
H948 C958 0.930 . S
H949 C959 0.930 . S
C950 H944 0.930 . S
C950 C951 1.355 . S
C950 C952 1.415 . S
C951 C950 1.355 . S
C951 C953 1.419 . S
C952 C950 1.415 . S
C952 C957 1.425 . S
C952 C959 1.409 . S
C953 H945 0.930 . S
C953 C951 1.419 . S
C953 C954 1.362 . S
C954 H946 0.930 . S
C954 C953 1.362 . S
C954 C957 1.409 . S
C955 H947 0.930 . S
C955 C956 1.355 . S
C955 C957 1.415 . S
C956 C955 1.355 . S
C956 C958 1.419 . S
C957 C952 1.425 . S
C957 C954 1.409 . S
C957 C955 1.415 . S
C958 H948 0.930 . S
C958 C956 1.419 . S
C958 C959 1.362 . S
C959 H949 0.930 . S
C959 C952 1.409 . S
C959 C958 1.362 . S
H960 C966 0.930 . S
H961 C969 0.930 . S
H962 C970 0.930 . S
H963 C971 0.930 . S
H964 C974 0.930 . S
H965 C975 0.930 . S
C966 H960 0.930 . S
C966 C967 1.355 . S
C966 C968 1.415 . S
C967 C966 1.355 . S
C967 C969 1.419 . S
C968 C966 1.415 . S
C968 C973 1.425 . S
C968 C975 1.409 . S
C969 H961 0.930 . S
C969 C967 1.419 . S
C969 C970 1.362 . S
C970 H962 0.930 . S
C970 C969 1.362 . S
C970 C973 1.409 . S
C971 H963 0.930 . S
C971 C972 1.355 . S
C971 C973 1.415 . S
C972 C971 1.355 . S
C972 C974 1.419 . S
C973 C968 1.425 . S
C973 C970 1.409 . S
C973 C971 1.415 . S
C974 H964 0.930 . S
C974 C972 1.419 . S
C974 C975 1.362 . S
C975 H965 0.930 . S
C975 C968 1.409 . S
C975 C974 1.362 . S
H976 C982 0.930 . S
H977 C985 0.930 . S
H978 C986 0.930 . S
H979 C987 0.930 . S
H980 C990 0.930 . S
H981 C991 0.930 . S
C982 H976 0.930 . S
C982 C983 1.355 . S
C982 C984 1.415 . S
C983 C982 1.355 . S
C983 C985 1.419 . S
C984 C982 1.415 . S
C984 C989 1.425 . S
C984 C991 1.409 . S
C985 H977 0.930 . S
C985 C983 1.419 . S
C985 C986 1.362 . S
C986 H978 0.930 . S
C986 C985 1.362 . S
C986 C989 1.409 . S
C987 H979 0.930 . S
C987 C988 1.355 . S
C987 C989 1.415 . S
C988 C987 1.355 . S
C988 C990 1.419 . S
C989 C984 1.425 . S
C989 C986 1.409 . S
C989 C987 1.415 . S
C990 H980 0.930 . S
C990 C988 1.419 . S
C990 C991 1.362 . S
C991 H981 0.930 . S
C991 C984 1.409 . S
C991 C990 1.362 . S
H992 C998 0.930 . S
H993 C1001 0.930 . S
H994 C1002 0.930 . S
H995 C1003 0.930 . S
H996 C1006 0.930 . S
H997 C1007 0.930 . S
C998 H992 0.930 . S
C998 C999 1.355 . S
C998 C1000 1.415 . S
C999 C998 1.355 . S
C999 C1001 1.419 . S
C1000 C998 1.415 . S
C1000 C1005 1.425 . S
C1000 C1007 1.409 . S
C1001 H993 0.930 . S
C1001 C999 1.419 . S
C1001 C1002 1.362 . S
C1002 H994 0.930 . S
C1002 C1001 1.362 . S
C1002 C1005 1.409 . S
C1003 H995 0.930 . S
C1003 C1004 1.355 . S
C1003 C1005 1.415 . S
C1004 C1003 1.355 . S
C1004 C1006 1.419 . S
C1005 C1000 1.425 . S
C1005 C1002 1.409 . S
C1005 C1003 1.415 . S
C1006 H996 0.930 . S
C1006 C1004 1.419 . S
C1006 C1007 1.362 . S
C1007 H997 0.930 . S
C1007 C1000 1.409 . S
C1007 C1006 1.362 . S
H1008 C1014 0.930 1_565 S
H1009 C1017 0.930 . S
H1010 C1018 0.930 . S
H1011 C1019 0.930 . S
H1012 C1022 0.930 . S
H1013 C1023 0.930 . S
C1014 H1008 0.930 1_545 S
C1014 C1015 1.355 . S
C1014 C1016 1.415 . S
C1015 C1014 1.355 . S
C1015 C1017 1.419 . S
C1016 C1014 1.415 . S
C1016 C1021 1.425 . S
C1016 C1023 1.409 . S
C1017 H1009 0.930 . S
C1017 C1015 1.419 . S
C1017 C1018 1.362 . S
C1018 H1010 0.930 . S
C1018 C1017 1.362 . S
C1018 C1021 1.409 . S
C1019 H1011 0.930 . S
C1019 C1020 1.355 . S
C1019 C1021 1.415 . S
C1020 C1019 1.355 . S
C1020 C1022 1.419 . S
C1021 C1016 1.425 . S
C1021 C1018 1.409 . S
C1021 C1019 1.415 . S
C1022 H1012 0.930 . S
C1022 C1020 1.419 . S
C1022 C1023 1.362 . S
C1023 H1013 0.930 . S
C1023 C1016 1.409 . S
C1023 C1022 1.362 . S
H1024 C1030 0.930 . S
H1025 C1033 0.930 . S
H1026 C1034 0.930 . S
H1027 C1035 0.930 . S
H1028 C1038 0.930 . S
H1029 C1039 0.930 . S
C1030 H1024 0.930 . S
C1030 C1031 1.355 . S
C1030 C1032 1.415 . S
C1031 C1030 1.355 . S
C1031 C1033 1.419 . S
C1032 C1030 1.415 . S
C1032 C1037 1.425 . S
C1032 C1039 1.409 . S
C1033 H1025 0.930 . S
C1033 C1031 1.419 . S
C1033 C1034 1.362 . S
C1034 H1026 0.930 . S
C1034 C1033 1.362 . S
C1034 C1037 1.409 . S
C1035 H1027 0.930 . S
C1035 C1036 1.355 . S
C1035 C1037 1.415 . S
C1036 C1035 1.355 . S
C1036 C1038 1.419 . S
C1037 C1032 1.425 . S
C1037 C1034 1.409 . S
C1037 C1035 1.415 . S
C1038 H1028 0.930 . S
C1038 C1036 1.419 . S
C1038 C1039 1.362 . S
C1039 H1029 0.930 . S
C1039 C1032 1.409 . S
C1039 C1038 1.362 . S
H1040 C1046 0.930 . S
H1041 C1049 0.930 . S
H1042 C1050 0.930 . S
H1043 C1051 0.930 1_565 S
H1044 C1054 0.930 . S
H1045 C1055 0.930 . S
C1046 H1040 0.930 . S
C1046 C1047 1.355 . S
C1046 C1048 1.415 . S
C1047 C1046 1.355 . S
C1047 C1049 1.419 . S
C1048 C1046 1.415 . S
C1048 C1053 1.425 . S
C1048 C1055 1.409 . S
C1049 H1041 0.930 . S
C1049 C1047 1.419 . S
C1049 C1050 1.362 . S
C1050 H1042 0.930 . S
C1050 C1049 1.362 . S
C1050 C1053 1.409 . S
C1051 H1043 0.930 1_545 S
C1051 C1052 1.355 . S
C1051 C1053 1.415 . S
C1052 C1051 1.355 . S
C1052 C1054 1.419 . S
C1053 C1048 1.425 . S
C1053 C1050 1.409 . S
C1053 C1051 1.415 . S
C1054 H1044 0.930 . S
C1054 C1052 1.419 . S
C1054 C1055 1.362 . S
C1055 H1045 0.930 . S
C1055 C1048 1.409 . S
C1055 C1054 1.362 . S
H1056 C1062 0.930 . S
H1057 C1065 0.930 . S
H1058 C1066 0.930 . S
H1059 C1067 0.930 . S
H1060 C1070 0.930 . S
H1061 C1071 0.930 . S
C1062 H1056 0.930 . S
C1062 C1063 1.355 . S
C1062 C1064 1.415 . S
C1063 C1062 1.355 . S
C1063 C1065 1.419 . S
C1064 C1062 1.415 . S
C1064 C1069 1.425 . S
C1064 C1071 1.409 . S
C1065 H1057 0.930 . S
C1065 C1063 1.419 . S
C1065 C1066 1.362 . S
C1066 H1058 0.930 . S
C1066 C1065 1.362 . S
C1066 C1069 1.409 . S
C1067 H1059 0.930 . S
C1067 C1068 1.355 . S
C1067 C1069 1.415 . S
C1068 C1067 1.355 . S
C1068 C1070 1.419 . S
C1069 C1064 1.425 . S
C1069 C1066 1.409 . S
C1069 C1067 1.415 . S
C1070 H1060 0.930 . S
C1070 C1068 1.419 . S
C1070 C1071 1.362 . S
C1071 H1061 0.930 . S
C1071 C1064 1.409 . S
C1071 C1070 1.362 . S
H1072 C1078 0.930 . S
H1073 C1081 0.930 . S
H1074 C1082 0.930 . S
H1075 C1083 0.930 1_545 S
H1076 C1086 0.930 . S
H1077 C1087 0.930 . S
C1078 H1072 0.930 . S
C1078 C1079 1.355 . S
C1078 C1080 1.415 . S
C1079 C1078 1.355 . S
C1079 C1081 1.419 . S
C1080 C1078 1.415 . S
C1080 C1085 1.425 . S
C1080 C1087 1.409 . S
C1081 H1073 0.930 . S
C1081 C1079 1.419 . S
C1081 C1082 1.362 . S
C1082 H1074 0.930 . S
C1082 C1081 1.362 . S
C1082 C1085 1.409 . S
C1083 H1075 0.930 1_565 S
C1083 C1084 1.355 . S
C1083 C1085 1.415 . S
C1084 C1083 1.355 . S
C1084 C1086 1.419 . S
C1085 C1080 1.425 . S
C1085 C1082 1.409 . S
C1085 C1083 1.415 . S
C1086 H1076 0.930 . S
C1086 C1084 1.419 . S
C1086 C1087 1.362 . S
C1087 H1077 0.930 . S
C1087 C1080 1.409 . S
C1087 C1086 1.362 . S
C327 C1 0.477 . S
C332 C201 0.551 . S
C343 C21 0.511 . S
C348 C221 0.504 . S
C359 C41 0.564 . S
C364 C161 0.471 . S
C375 C181 0.493 . S
C380 C61 0.525 . S
C391 C89 0.470 . S
C396 C289 0.608 . S
C407 C309 0.546 . S
C412 C109 0.658 . S
C423 C249 0.473 . S
C428 C129 0.558 . S
C439 C149 0.498 . S
C444 C269 0.518 . S
C455 C19 2.339 . S
C460 C88 2.339 . S
C471 C39 2.329 . S
C476 C268 2.329 . S
C487 C59 2.339 . S
C492 C128 2.339 . S
C503 C79 2.307 . S
C508 C308 2.307 . S
C519 C108 2.295 . S
C524 C199 2.295 . S
C535 C239 2.291 . S
C540 C148 2.291 . S
C551 C248 2.333 . S
C556 C179 2.333 . S
C567 C219 2.338 . S
C572 C288 2.338 . S
C583 C8 1.330 . S
C588 C141 1.428 . S
C599 C28 1.347 . S
C604 C241 1.425 . S
C615 C48 1.289 . S
C620 C101 1.446 . S
C631 C68 1.382 . S
C636 C281 1.423 . S
C647 C69 1.447 . S
C652 C99 1.361 . S
C663 C119 1.394 . S
C668 C169 1.430 . S
C679 C139 1.348 . S
C684 C29 1.450 . S
C695 C209 1.427 . S
C700 C159 1.393 . S
C711 C168 1.312 . S
C716 C301 1.454 . S
C727 C81 1.441 . S
C732 C188 1.379 . S
C743 C261 1.430 . S
C748 C208 1.394 . S
C759 C121 1.443 . S
C764 C228 1.373 . S
C775 C259 1.394 . S
C780 C229 1.429 . S
C791 C279 1.386 . S
C796 C9 1.438 . S
C807 C189 1.427 . S
C812 C299 1.336 . S
C823 C319 1.340 . S
C828 C49 1.426 . S
C839 C6 1.627 1_556 S
C844 C196 1.561 . S
C855 C216 1.525 . S
C860 C26 1.601 . S
C871 C46 1.635 . S
C876 C236 1.595 . S
C887 C176 1.513 . S
C892 C66 1.589 . S
C903 C266 1.534 . S
C908 C96 1.609 1_554 S
C919 C286 1.557 . S
C924 C116 1.591 . S
C935 C306 1.595 . S
C940 C136 1.635 . S
C951 C246 1.592 . S
C956 C156 1.625 . S
C967 C36 1.595 . S
C972 C166 1.633 . S
C983 C56 1.542 . S
C988 C186 1.581 1_565 S
C999 C76 1.546 . S
C1004 C206 1.583 1_556 S
C1015 C226 1.601 1_545 S
C1020 C16 1.569 . S
C1031 C106 1.518 . S
C1036 C256 1.569 . S
C1047 C126 1.508 . S
C1052 C276 1.583 1_545 S
C1063 C146 1.565 . S
C1068 C296 1.629 1_554 S
C1079 C86 1.563 . S
C1084 C316 1.596 1_565 S
