# Generated by pormake.
# Topology uki, (4)-cn, num edge types: 1
# Building blocks:
#     Node 0, Type 0, BuildingBlock: MUDLON_clean_sbu_0, # of connection points: 4
#     Node 1, Type 0, BuildingBlock: MUDLON_clean_sbu_0, # of connection points: 4
#     Node 2, Type 0, BuildingBlock: MUDLON_clean_sbu_0, # of connection points: 4
#     Node 3, Type 0, BuildingBlock: MUDLON_clean_sbu_0, # of connection points: 4
#     Node 4, Type 0, BuildingBlock: MUDLON_clean_sbu_0, # of connection points: 4
#     Node 5, Type 0, BuildingBlock: MUDLON_clean_sbu_0, # of connection points: 4
#     Node 6, Type 0, BuildingBlock: MUDLON_clean_sbu_0, # of connection points: 4
#     Node 7, Type 0, BuildingBlock: MUDLON_clean_sbu_0, # of connection points: 4
#     Node 8, Type 0, BuildingBlock: MUDLON_clean_sbu_0, # of connection points: 4
#     Node 9, Type 0, BuildingBlock: MUDLON_clean_sbu_0, # of connection points: 4
#     Node 10, Type 0, BuildingBlock: MUDLON_clean_sbu_0, # of connection points: 4
#     Node 11, Type 0, BuildingBlock: MUDLON_clean_sbu_0, # of connection points: 4
#     Node 12, Type 0, BuildingBlock: MUDLON_clean_sbu_0, # of connection points: 4
#     Node 13, Type 0, BuildingBlock: MUDLON_clean_sbu_0, # of connection points: 4
#     Node 14, Type 0, BuildingBlock: MUDLON_clean_sbu_0, # of connection points: 4
#     Node 15, Type 0, BuildingBlock: MUDLON_clean_sbu_0, # of connection points: 4
#     Edge 16, Type (0, 0), BuildingBlock: ZUJKAS_clean_linker_0, # of connection points: 2
#     Edge 17, Type (0, 0), BuildingBlock: ZUJKAS_clean_linker_0, # of connection points: 2
#     Edge 18, Type (0, 0), BuildingBlock: ZUJKAS_clean_linker_0, # of connection points: 2
#     Edge 19, Type (0, 0), BuildingBlock: ZUJKAS_clean_linker_0, # of connection points: 2
#     Edge 20, Type (0, 0), BuildingBlock: ZUJKAS_clean_linker_0, # of connection points: 2
#     Edge 21, Type (0, 0), BuildingBlock: ZUJKAS_clean_linker_0, # of connection points: 2
#     Edge 22, Type (0, 0), BuildingBlock: ZUJKAS_clean_linker_0, # of connection points: 2
#     Edge 23, Type (0, 0), BuildingBlock: ZUJKAS_clean_linker_0, # of connection points: 2
#     Edge 24, Type (0, 0), BuildingBlock: ZUJKAS_clean_linker_0, # of connection points: 2
#     Edge 25, Type (0, 0), BuildingBlock: ZUJKAS_clean_linker_0, # of connection points: 2
#     Edge 26, Type (0, 0), BuildingBlock: ZUJKAS_clean_linker_0, # of connection points: 2
#     Edge 27, Type (0, 0), BuildingBlock: ZUJKAS_clean_linker_0, # of connection points: 2
#     Edge 28, Type (0, 0), BuildingBlock: ZUJKAS_clean_linker_0, # of connection points: 2
#     Edge 29, Type (0, 0), BuildingBlock: ZUJKAS_clean_linker_0, # of connection points: 2
#     Edge 30, Type (0, 0), BuildingBlock: ZUJKAS_clean_linker_0, # of connection points: 2
#     Edge 31, Type (0, 0), BuildingBlock: ZUJKAS_clean_linker_0, # of connection points: 2
#     Edge 32, Type (0, 0), BuildingBlock: ZUJKAS_clean_linker_0, # of connection points: 2
#     Edge 33, Type (0, 0), BuildingBlock: ZUJKAS_clean_linker_0, # of connection points: 2
#     Edge 34, Type (0, 0), BuildingBlock: ZUJKAS_clean_linker_0, # of connection points: 2
#     Edge 35, Type (0, 0), BuildingBlock: ZUJKAS_clean_linker_0, # of connection points: 2
#     Edge 36, Type (0, 0), BuildingBlock: ZUJKAS_clean_linker_0, # of connection points: 2
#     Edge 37, Type (0, 0), BuildingBlock: ZUJKAS_clean_linker_0, # of connection points: 2
#     Edge 38, Type (0, 0), BuildingBlock: ZUJKAS_clean_linker_0, # of connection points: 2
#     Edge 39, Type (0, 0), BuildingBlock: ZUJKAS_clean_linker_0, # of connection points: 2
#     Edge 40, Type (0, 0), BuildingBlock: ZUJKAS_clean_linker_0, # of connection points: 2
#     Edge 41, Type (0, 0), BuildingBlock: ZUJKAS_clean_linker_0, # of connection points: 2
#     Edge 42, Type (0, 0), BuildingBlock: ZUJKAS_clean_linker_0, # of connection points: 2
#     Edge 43, Type (0, 0), BuildingBlock: ZUJKAS_clean_linker_0, # of connection points: 2
#     Edge 44, Type (0, 0), BuildingBlock: ZUJKAS_clean_linker_0, # of connection points: 2
#     Edge 45, Type (0, 0), BuildingBlock: ZUJKAS_clean_linker_0, # of connection points: 2
#     Edge 46, Type (0, 0), BuildingBlock: ZUJKAS_clean_linker_0, # of connection points: 2
#     Edge 47, Type (0, 0), BuildingBlock: ZUJKAS_clean_linker_0, # of connection points: 2
# Relax obj value: 0.065
# Max RMSD: 0.231
# Mean RMSD: 0.231
data_MOF--net-uki--node1-MUDLON_clean_sbu_0--edge1-ZUJKAS_clean_linker_0
_symmetry_space_group_name_H-M    P1
_symmetry_Int_Tables_number       1
_symmetry_cell_setting            triclinic
loop_
_symmetry_equiv_pos_as_xyz
'x, y, z'
_cell_length_a     42.07144
_cell_length_b     42.253025
_cell_length_c     93.62743
_cell_angle_alpha  89.914137
_cell_angle_beta   90.0258
_cell_angle_gamma 89.975175
loop_
_atom_site_label
_atom_site_type_symbol
_atom_site_fract_x
_atom_site_fract_y
_atom_site_fract_z
_atom_type_partial_charge
Mg0 Mg 0.10188 0.23259 0.30573 0.0
C1 C 0.04991 0.28253 0.3036 0.0
O2 O 0.07452 0.30046 0.30063 0.0
C3 C 0.15885 0.22753 0.32452 0.0
O4 O 0.17004 0.21891 0.31201 0.0
C5 C 0.14291 0.2831 0.29331 0.0
O6 O 0.14354 0.28967 0.30702 0.0
O7 O 0.12762 0.25876 0.28919 0.0
O8 O 0.05457 0.2538 0.30711 0.0
O9 O 0.09398 0.18279 0.30071 0.0
C10 C 0.06959 0.17482 0.29352 0.0
O11 O 0.05126 0.19713 0.28823 0.0
O12 O 0.12957 0.23492 0.32548 0.0
Mg13 Mg 0.23281 0.91887 0.71318 0.0
C14 C 0.24617 0.98947 0.70865 0.0
O15 O 0.21691 0.9896 0.70373 0.0
C16 C 0.2326 0.86055 0.69528 0.0
O17 O 0.22878 0.84915 0.70823 0.0
C18 C 0.26969 0.90697 0.74036 0.0
O19 O 0.26586 0.93775 0.74133 0.0
O20 O 0.25657 0.8923 0.73007 0.0
O21 O 0.25891 0.96326 0.71212 0.0
O22 O 0.18338 0.93049 0.71788 0.0
C23 C 0.17644 0.95015 0.72768 0.0
O24 O 0.19939 0.96178 0.73561 0.0
O25 O 0.23524 0.89038 0.69372 0.0
Mg26 Mg 0.93248 0.78942 0.30262 0.0
C27 C 1.00324 0.77362 0.30675 0.0
O28 O 1.00423 0.802 0.31244 0.0
C29 C 0.88041 0.80322 0.32333 0.0
O30 O 0.87333 0.82205 0.31261 0.0
C31 C 0.8929 0.73969 0.28984 0.0
O32 O 0.89908 0.72907 0.30275 0.0
O33 O 0.90363 0.76671 0.28627 0.0
O34 O 0.97667 0.76248 0.30266 0.0
O35 O 0.94403 0.83861 0.29767 0.0
C36 C 0.95055 0.85726 0.30792 0.0
O37 O 0.94874 0.84652 0.32107 0.0
O38 O 0.90543 0.78636 0.3225 0.0
Mg39 Mg 0.80039 0.10559 0.71663 0.0
C40 C 0.76818 0.05019 0.72927 0.0
O41 O 0.77126 0.06986 0.74003 0.0
C42 C 0.80028 0.16076 0.69694 0.0
O43 O 0.8065 0.17362 0.7094 0.0
C44 C 0.74625 0.13983 0.72859 0.0
O45 O 0.73693 0.13081 0.71583 0.0
O46 O 0.77455 0.13345 0.73244 0.0
O47 O 0.77798 0.05889 0.71701 0.0
O48 O 0.85084 0.09803 0.72095 0.0
C49 C 0.8606 0.08189 0.73157 0.0
O50 O 0.83988 0.07174 0.741 0.0
O51 O 0.79622 0.13092 0.69633 0.0
Mg52 Mg 0.10423 0.29541 0.96416 0.0
C53 C 0.05247 0.24412 0.96454 0.0
O54 O 0.07693 0.22479 0.96444 0.0
C55 C 0.1525 0.31102 0.94168 0.0
O56 O 0.1563 0.33468 0.95061 0.0
C57 C 0.14738 0.24757 0.97718 0.0
O58 O 0.14799 0.23983 0.9636 0.0
O59 O 0.13111 0.27154 0.98096 0.0
O60 O 0.05727 0.27377 0.96373 0.0
O61 O 0.09527 0.34531 0.96852 0.0
C62 C 0.07361 0.35792 0.9609 0.0
O63 O 0.05973 0.34059 0.95107 0.0
O64 O 0.13094 0.29068 0.94427 0.0
Mg65 Mg 0.29768 0.92661 0.0535 0.0
C66 C 0.2861 0.99799 0.0568 0.0
O67 O 0.31587 0.99807 0.06105 0.0
C68 C 0.31204 0.87667 0.07547 0.0
O69 O 0.33583 0.8728 0.06655 0.0
C70 C 0.26339 0.87427 0.03724 0.0
O71 O 0.26846 0.8588 0.04921 0.0
O72 O 0.27479 0.90197 0.03582 0.0
O73 O 0.27269 0.97173 0.05405 0.0
O74 O 0.34791 0.93628 0.04979 0.0
C75 C 0.35684 0.95346 0.03936 0.0
O76 O 0.33541 0.964 0.03032 0.0
O77 O 0.29196 0.89855 0.07298 0.0
Mg78 Mg 0.9262 0.73549 0.9615 0.0
C79 C 0.97809 0.78446 0.96639 0.0
O80 O 0.95358 0.80142 0.97049 0.0
C81 C 0.87631 0.72248 0.93955 0.0
O82 O 0.87133 0.6997 0.94885 0.0
C83 C 0.88246 0.7818 0.97523 0.0
O84 O 0.88152 0.79051 0.96176 0.0
O85 O 0.89919 0.75786 0.97865 0.0
O86 O 0.97331 0.75702 0.96125 0.0
O87 O 0.93454 0.68521 0.96516 0.0
C88 C 0.95742 0.67674 0.9732 0.0
O89 O 0.97391 0.69863 0.97985 0.0
O90 O 0.89924 0.74153 0.94171 0.0
Mg91 Mg 0.73641 0.09882 0.05421 0.0
C92 C 0.74764 0.02743 0.05785 0.0
O93 O 0.71764 0.02741 0.06173 0.0
C94 C 0.74014 0.15696 0.07241 0.0
O95 O 0.7379 0.16921 0.05954 0.0
C96 C 0.77582 0.10936 0.02776 0.0
O97 O 0.77461 0.0783 0.02792 0.0
O98 O 0.76016 0.12472 0.03709 0.0
O99 O 0.76134 0.05368 0.05533 0.0
O100 O 0.68642 0.08925 0.04988 0.0
C101 C 0.67793 0.07134 0.03965 0.0
O102 O 0.69976 0.05993 0.03105 0.0
O103 O 0.74036 0.12696 0.07372 0.0
Mg104 Mg 0.60199 0.72914 0.80322 0.0
C105 C 0.55279 0.78085 0.80162 0.0
O106 O 0.57824 0.79691 0.79794 0.0
C107 C 0.64577 0.75587 0.82653 0.0
O108 O 0.64203 0.78218 0.81922 0.0
C109 C 0.65525 0.75911 0.78533 0.0
O110 O 0.67361 0.74674 0.79522 0.0
O111 O 0.62553 0.75379 0.78572 0.0
O112 O 0.55594 0.75213 0.80545 0.0
O113 O 0.59194 0.67981 0.79832 0.0
C114 C 0.56816 0.67283 0.79054 0.0
O115 O 0.55138 0.69583 0.78482 0.0
O116 O 0.63117 0.73103 0.82253 0.0
Mg117 Mg 0.73443 0.42215 0.21322 0.0
C118 C 0.74646 0.49331 0.21096 0.0
O119 O 0.71636 0.4936 0.20722 0.0
C120 C 0.73605 0.36523 0.19436 0.0
O121 O 0.73052 0.35267 0.20697 0.0
C122 C 0.76954 0.40823 0.24072 0.0
O123 O 0.76657 0.43907 0.24191 0.0
O124 O 0.75659 0.39438 0.23015 0.0
O125 O 0.76018 0.46687 0.21306 0.0
O126 O 0.68431 0.43255 0.21685 0.0
C127 C 0.67481 0.44805 0.22768 0.0
O128 O 0.69554 0.45635 0.23748 0.0
O129 O 0.73912 0.39515 0.19344 0.0
Mg130 Mg 0.41724 0.29414 0.80123 0.0
C131 C 0.46818 0.24324 0.79877 0.0
O132 O 0.44436 0.22761 0.7931 0.0
C133 C 0.38758 0.27739 0.83063 0.0
O134 O 0.40819 0.25402 0.83058 0.0
C135 C 0.37405 0.24569 0.78849 0.0
O136 O 0.37187 0.23932 0.80219 0.0
O137 O 0.39122 0.26891 0.78456 0.0
O138 O 0.46301 0.27047 0.80406 0.0
O139 O 0.42941 0.34237 0.795 0.0
C140 C 0.4528 0.35447 0.80166 0.0
O141 O 0.467 0.33753 0.81157 0.0
O142 O 0.38724 0.29682 0.82023 0.0
Mg143 Mg 0.29897 0.60451 0.21254 0.0
C144 C 0.24789 0.5551 0.2175 0.0
O145 O 0.2321 0.58041 0.22149 0.0
C146 C 0.27622 0.65081 0.18998 0.0
O147 O 0.25427 0.65533 0.19974 0.0
C148 C 0.27145 0.62673 0.24135 0.0
O149 O 0.28584 0.60144 0.24636 0.0
O150 O 0.27446 0.63379 0.22821 0.0
O151 O 0.27563 0.55842 0.21231 0.0
O152 O 0.34864 0.59525 0.21779 0.0
C153 C 0.35578 0.5725 0.22612 0.0
O154 O 0.33279 0.55639 0.23222 0.0
O155 O 0.29736 0.62976 0.19214 0.0
Mg156 Mg 0.61126 0.79037 0.46311 0.0
C157 C 0.54615 0.7801 0.47333 0.0
O158 O 0.55674 0.80393 0.48097 0.0
C159 C 0.66031 0.80419 0.44113 0.0
O160 O 0.66565 0.82595 0.45085 0.0
C161 C 0.649 0.7393 0.47606 0.0
O162 O 0.64292 0.72904 0.4631 0.0
O163 O 0.63891 0.76657 0.47961 0.0
O164 O 0.56433 0.76834 0.46385 0.0
O165 O 0.60333 0.8407 0.46691 0.0
C166 C 0.59 0.85564 0.45673 0.0
O167 O 0.58396 0.84037 0.44481 0.0
O168 O 0.63735 0.78502 0.44305 0.0
Mg169 Mg 0.79945 0.41641 0.5523 0.0
C170 C 0.78757 0.48767 0.55494 0.0
O171 O 0.81683 0.48755 0.55985 0.0
C172 C 0.79601 0.36072 0.57193 0.0
O173 O 0.79854 0.3472 0.55935 0.0
C174 C 0.76752 0.39867 0.52411 0.0
O175 O 0.77607 0.42755 0.5206 0.0
O176 O 0.77571 0.38765 0.53622 0.0
O177 O 0.77429 0.46147 0.55193 0.0
O178 O 0.84956 0.42583 0.54795 0.0
C179 C 0.85814 0.44471 0.53807 0.0
O180 O 0.83637 0.45712 0.5297 0.0
O181 O 0.79554 0.39083 0.57256 0.0
Mg182 Mg 0.42871 0.23072 0.46429 0.0
C183 C 0.49832 0.25031 0.45912 0.0
O184 O 0.49978 0.22375 0.45188 0.0
C185 C 0.37127 0.22981 0.44549 0.0
O186 O 0.35894 0.22439 0.45815 0.0
C187 C 0.39128 0.27998 0.47835 0.0
O188 O 0.39933 0.29228 0.46597 0.0
O189 O 0.40006 0.25182 0.48116 0.0
O190 O 0.47188 0.25905 0.46439 0.0
O191 O 0.44297 0.1819 0.46838 0.0
C192 C 0.44827 0.16436 0.4576 0.0
O193 O 0.44309 0.17591 0.44477 0.0
O194 O 0.40121 0.23363 0.44449 0.0
Mg195 Mg 0.23569 0.59533 0.5544 0.0
C196 C 0.24574 0.52395 0.55781 0.0
O197 O 0.21558 0.5246 0.56143 0.0
C198 C 0.21871 0.64423 0.57633 0.0
O199 O 0.19597 0.64825 0.56687 0.0
C200 C 0.2698 0.64892 0.53889 0.0
O201 O 0.26178 0.66433 0.55051 0.0
O202 O 0.26034 0.62055 0.53731 0.0
O203 O 0.26007 0.54991 0.55537 0.0
O204 O 0.18576 0.58577 0.54988 0.0
C205 C 0.17728 0.56862 0.53939 0.0
O206 O 0.19907 0.55822 0.53051 0.0
O207 O 0.23931 0.62268 0.57415 0.0
H208 H 0.17333 0.33832 0.2993 0.0
H209 H 0.19211 0.37837 0.28264 0.0
H210 H 0.16353 0.3199 0.24717 0.0
H211 H 0.14372 0.2797 0.26391 0.0
H212 H 0.23686 0.37733 0.26199 0.0
H213 H 0.1182 0.40248 0.23834 0.0
H214 H 0.12307 0.37868 0.2542 0.0
H215 H 0.13152 0.36221 0.23693 0.0
C216 C 0.17106 0.33378 0.28796 0.0
C217 C 0.15675 0.30585 0.28295 0.0
C218 C 0.18191 0.35677 0.27843 0.0
C219 C 0.1788 0.35244 0.26364 0.0
C220 C 0.16555 0.32408 0.25854 0.0
H221 H 0.27346 0.49733 0.21051 0.0
H222 H 0.25663 0.44525 0.21921 0.0
C223 C 0.15447 0.30102 0.26812 0.0
C224 C 0.18905 0.37818 0.25383 0.0
H225 H 0.16112 0.43304 0.23007 0.0
C226 C 0.22041 0.38932 0.25488 0.0
C227 C 0.16745 0.39397 0.24466 0.0
C228 C 0.13311 0.38399 0.24349 0.0
C229 C 0.23048 0.41644 0.24746 0.0
C230 C 0.2088 0.43243 0.23839 0.0
C231 C 0.17775 0.42064 0.23694 0.0
C232 C 0.21693 0.46312 0.2315 0.0
C233 C 0.2637 0.42866 0.25007 0.0
C234 C 0.19919 0.49027 0.23484 0.0
C235 C 0.20841 0.51994 0.2297 0.0
C236 C 0.23568 0.52315 0.22114 0.0
C237 C 0.2525 0.49573 0.21719 0.0
C238 C 0.24306 0.46595 0.22224 0.0
H239 H 0.27463 0.41789 0.25973 0.0
H240 H 0.27892 0.42271 0.24078 0.0
H241 H 0.26368 0.45477 0.25137 0.0
H242 H 0.17886 0.48869 0.2419 0.0
H243 H 0.19483 0.5405 0.23292 0.0
H244 H 0.5382 0.8403 0.7922 0.0
H245 H 0.48625 0.86025 0.78478 0.0
H246 H 0.44289 0.7721 0.79738 0.0
H247 H 0.49483 0.7519 0.80493 0.0
H248 H 0.45022 0.83059 0.76322 0.0
H249 H 0.38219 0.8402 0.81392 0.0
H250 H 0.42509 0.83835 0.81344 0.0
H251 H 0.40202 0.80306 0.81096 0.0
C252 C 0.51757 0.8253 0.79366 0.0
C253 C 0.52074 0.79443 0.79911 0.0
C254 C 0.48789 0.83676 0.78939 0.0
C255 C 0.4607 0.81773 0.79059 0.0
C256 C 0.46349 0.78737 0.79656 0.0
H257 H 0.29041 0.84551 0.73877 0.0
H258 H 0.33461 0.82154 0.75194 0.0
C259 C 0.49323 0.77583 0.80082 0.0
C260 C 0.43018 0.82868 0.78435 0.0
H261 H 0.35353 0.84871 0.79241 0.0
C262 C 0.42907 0.83451 0.7696 0.0
C263 C 0.40269 0.83386 0.79271 0.0
C264 C 0.40292 0.82882 0.80866 0.0
C265 C 0.40124 0.84544 0.76297 0.0
C266 C 0.37361 0.85031 0.77128 0.0
C267 C 0.37467 0.84459 0.78606 0.0
C268 C 0.34405 0.86296 0.76481 0.0
C269 C 0.40183 0.85242 0.74715 0.0
C270 C 0.3339 0.8937 0.76811 0.0
C271 C 0.30865 0.90747 0.76063 0.0
C272 C 0.29299 0.89068 0.74973 0.0
C273 C 0.30202 0.85917 0.74704 0.0
C274 C 0.32735 0.84546 0.75452 0.0
H275 H 0.42646 0.85338 0.74289 0.0
H276 H 0.38883 0.83352 0.74138 0.0
H277 H 0.38988 0.8753 0.74482 0.0
H278 H 0.34643 0.90755 0.77605 0.0
H279 H 0.30221 0.93171 0.76303 0.0
H280 H 0.72355 0.55382 0.20876 0.0
H281 H 0.74767 0.60221 0.21813 0.0
H282 H 0.82948 0.54876 0.23194 0.0
H283 H 0.8059 0.50049 0.22239 0.0
H284 H 0.76089 0.61269 0.24574 0.0
H285 H 0.8716 0.62543 0.21452 0.0
H286 H 0.83967 0.59958 0.20905 0.0
H287 H 0.86818 0.58666 0.22218 0.0
C288 C 0.74699 0.55246 0.21351 0.0
C289 C 0.76277 0.52323 0.21483 0.0
C290 C 0.76072 0.58016 0.21888 0.0
C291 C 0.79056 0.57925 0.2256 0.0
C292 C 0.8068 0.55027 0.2265 0.0
H293 H 0.86488 0.68289 0.29525 0.0
H294 H 0.83812 0.64787 0.27849 0.0
C295 C 0.79315 0.52259 0.2211 0.0
C296 C 0.80324 0.6077 0.23299 0.0
H297 H 0.87022 0.65241 0.23726 0.0
C298 C 0.7846 0.6217 0.2437 0.0
C299 C 0.83399 0.61984 0.23023 0.0
C300 C 0.85437 0.6073 0.21826 0.0
C301 C 0.79651 0.64626 0.25224 0.0
C302 C 0.8281 0.65677 0.25018 0.0
C303 C 0.84613 0.64407 0.23895 0.0
C304 C 0.84358 0.679 0.26028 0.0
C305 C 0.77529 0.6604 0.26354 0.0
C306 C 0.85612 0.70801 0.25558 0.0
C307 C 0.87164 0.72822 0.2652 0.0
C308 C 0.87516 0.71952 0.27963 0.0
C309 C 0.86251 0.69045 0.28424 0.0
C310 C 0.847 0.67042 0.27468 0.0
H311 H 0.74977 0.65731 0.26082 0.0
H312 H 0.77969 0.64821 0.27386 0.0
H313 H 0.78017 0.68603 0.26498 0.0
H314 H 0.85394 0.71496 0.24448 0.0
H315 H 0.88126 0.75036 0.26129 0.0
H316 H 0.52399 0.27282 0.80615 0.0
H317 H 0.57787 0.25779 0.79891 0.0
H318 H 0.54094 0.17376 0.7788 0.0
H319 H 0.48727 0.18816 0.7862 0.0
H320 H 0.59883 0.1634 0.79255 0.0
H321 H 0.60362 0.26921 0.75712 0.0
H322 H 0.5971 0.27693 0.77575 0.0
H323 H 0.56736 0.25638 0.76559 0.0
C324 C 0.5274 0.25083 0.80042 0.0
C325 C 0.50122 0.2319 0.79659 0.0
C326 C 0.55821 0.2424 0.79621 0.0
C327 C 0.56334 0.21501 0.78804 0.0
C328 C 0.53753 0.19509 0.78502 0.0
H329 H 0.68663 0.16012 0.72219 0.0
H330 H 0.64632 0.18046 0.7384 0.0
C331 C 0.5068 0.20341 0.78925 0.0
C332 C 0.59487 0.20807 0.78163 0.0
H333 H 0.64652 0.23395 0.756 0.0
C334 C 0.60958 0.179 0.78471 0.0
C335 C 0.60866 0.22839 0.77131 0.0
C336 C 0.59336 0.25937 0.76711 0.0
C337 C 0.63706 0.1692 0.7774 0.0
C338 C 0.65037 0.18921 0.76685 0.0
C339 C 0.63637 0.21879 0.76417 0.0
C340 C 0.67615 0.17832 0.7572 0.0
C341 C 0.6506 0.13681 0.78043 0.0
C342 C 0.70666 0.17089 0.76233 0.0
C343 C 0.72997 0.15914 0.75302 0.0
C344 C 0.72307 0.15469 0.73845 0.0
C345 C 0.69277 0.16307 0.73335 0.0
C346 C 0.66965 0.17479 0.74261 0.0
H347 H 0.63461 0.12237 0.78727 0.0
H348 H 0.65493 0.12383 0.77031 0.0
H349 H 0.67371 0.13935 0.78603 0.0
H350 H 0.71234 0.1739 0.77353 0.0
H351 H 0.7531 0.15295 0.75727 0.0
H352 H 0.30759 0.05855 0.06097 0.0
H353 H 0.28397 0.10761 0.05194 0.0
H354 H 0.20554 0.05452 0.03449 0.0
H355 H 0.22841 1.00569 0.04379 0.0
H356 H 0.27533 0.12216 0.02486 0.0
H357 H 0.15845 0.12762 0.05142 0.0
H358 H 0.18959 0.10134 0.05741 0.0
H359 H 0.16382 0.09007 0.04289 0.0
C360 C 0.28494 0.0574 0.05549 0.0
C361 C 0.26992 0.02814 0.0531 0.0
C362 C 0.27149 0.08549 0.05032 0.0
C363 C 0.24273 0.08491 0.04268 0.0
C364 C 0.22726 0.05581 0.04067 0.0
H365 H 0.18189 0.19426 0.97204 0.0
H366 H 0.20652 0.15884 0.98932 0.0
C367 C 0.24055 0.02779 0.04592 0.0
C368 C 0.23062 0.11394 0.03548 0.0
H369 H 0.16291 0.15632 0.02904 0.0
C370 C 0.25089 0.12995 0.02599 0.0
C371 C 0.19891 0.12462 0.03708 0.0
C372 C 0.17659 0.11019 0.04788 0.0
C373 C 0.23984 0.15503 0.01748 0.0
C374 C 0.20743 0.16387 0.0182 0.0
C375 C 0.18764 0.14922 0.0283 0.0
C376 C 0.19317 0.18644 1.00782 0.0
C377 C 0.26298 0.1715 1.00766 0.0
C378 C 0.17671 0.21348 0.01246 0.0
C379 C 0.16223 0.23381 1.00255 0.0
C380 C 0.16381 0.22728 0.98783 0.0
C381 C 0.18037 0.20021 0.98327 0.0
C382 C 0.1947 0.17996 0.99315 0.0
H383 H 0.28767 0.1699 0.01182 0.0
H384 H 0.2625 0.15983 0.99705 0.0
H385 H 0.25675 0.19685 1.00622 0.0
H386 H 0.17499 0.21879 0.02375 0.0
H387 H 0.14953 0.25438 1.00642 0.0
H388 H 0.23478 0.81621 0.03708 0.0
H389 H 0.19107 0.79867 0.02185 0.0
H390 H 0.19514 0.88672 0.99858 0.0
H391 H 0.23923 0.90428 0.01361 0.0
H392 H 0.13405 0.82891 0.02099 0.0
H393 H 0.18476 0.82265 0.96642 0.0
H394 H 0.20925 0.82396 0.98226 0.0
H395 H 0.19197 0.85967 0.97524 0.0
C396 C 0.22688 0.83161 0.02853 0.0
C397 C 0.24043 0.86174 0.02663 0.0
C398 C 0.20185 0.82153 0.01983 0.0
C399 C 0.18992 0.84127 1.00901 0.0
C400 C 0.2043 0.87081 1.00667 0.0
H401 H 0.99628 0.84079 0.97814 0.0
H402 H 0.04881 0.85497 0.98726 0.0
C403 C 0.22944 0.88089 0.01534 0.0
C404 C 0.16034 0.83244 1.00132 0.0
H405 H 0.12803 0.82129 0.96818 0.0
C406 C 0.13283 0.82704 0.00945 0.0
C407 C 0.15878 0.82985 0.98626 0.0
C408 C 0.18783 0.83404 0.97702 0.0
C409 C 0.10373 0.81968 1.00295 0.0
C410 C 0.10188 0.81819 0.98789 0.0
C411 C 0.12947 0.82287 0.97972 0.0
C412 C 0.07135 0.81143 0.98058 0.0
C413 C 0.0752 0.8133 0.0123 0.0
C414 C 0.06699 0.78284 0.97324 0.0
C415 C 0.03695 0.77466 0.96796 0.0
C416 C 1.0108 0.795 0.96991 0.0
C417 C 0.01579 0.82444 0.97654 0.0
C418 C 0.04579 0.83257 0.9818 0.0
H419 H 0.08217 0.80815 0.02351 0.0
H420 H 0.05959 0.83448 0.01234 0.0
H421 H 0.0612 0.79302 1.00815 0.0
H422 H 0.08648 0.76626 0.97214 0.0
H423 H 0.03399 0.75184 0.96287 0.0
H424 H 0.88156 0.77328 1.00439 0.0
H425 H 0.85681 0.80781 0.0223 0.0
H426 H 0.82347 0.86951 0.98875 0.0
H427 H 0.84735 0.83511 0.97092 0.0
H428 H 0.86909 0.86977 0.02811 0.0
H429 H 0.74354 0.85749 0.0119 0.0
H430 H 0.77411 0.83085 1.00571 0.0
H431 H 0.76794 0.86841 0.997 0.0
C432 C 0.86858 0.79399 1.00084 0.0
C433 C 0.8663 0.80132 0.98621 0.0
C434 C 0.85452 0.81372 0.01108 0.0
C435 C 0.83777 0.84096 1.00686 0.0
C436 C 0.8355 0.84821 0.99227 0.0
H437 H 0.80511 0.01991 0.04466 0.0
H438 H 0.82742 0.97136 0.03491 0.0
C439 C 0.84941 0.82856 0.98207 0.0
C440 C 0.82406 0.86298 0.01759 0.0
H441 H 0.75668 0.90462 0.02521 0.0
C442 C 0.84437 0.877 0.02766 0.0
C443 C 0.79167 0.87198 0.01724 0.0
C444 C 0.76801 0.85611 1.00748 0.0
C445 C 0.83361 0.90117 0.03676 0.0
C446 C 0.80189 0.9121 0.03552 0.0
C447 C 0.78112 0.89666 0.02607 0.0
C448 C 0.79025 0.94085 0.04306 0.0
C449 C 0.85646 0.91491 0.04751 0.0
C450 C 0.76171 0.94012 0.05084 0.0
C451 C 0.74856 0.96807 0.05627 0.0
C452 C 0.76369 0.99734 0.05401 0.0
C453 C 0.79292 0.9978 0.04671 0.0
C454 C 0.80588 0.96992 0.0412 0.0
H455 H 0.87457 0.89715 0.05077 0.0
H456 H 0.86923 0.93514 0.04258 0.0
H457 H 0.84392 0.92344 0.0572 0.0
H458 H 0.74911 0.91802 0.05236 0.0
H459 H 0.72602 0.96685 0.06183 0.0
H460 H 0.82003 0.08246 0.01024 0.0
H461 H 0.86236 0.10894 0.99704 0.0
H462 H 0.8257 0.19972 0.01012 0.0
H463 H 0.78374 0.1733 0.0238 0.0
H464 H 0.865 0.15122 0.97541 0.0
H465 H 0.91573 0.20433 0.02464 0.0
H466 H 0.88483 0.1748 0.02516 0.0
H467 H 0.87525 0.21541 0.02124 0.0
C468 C 0.82074 0.10809 0.01024 0.0
C469 C 0.79871 0.12575 0.01824 0.0
C470 C 0.84499 0.1232 1.00266 0.0
C471 C 0.84769 0.15629 1.00285 0.0
C472 C 0.82463 0.17411 0.01014 0.0
H473 H 0.9986 0.2783 0.9701 0.0
H474 H 0.94689 0.25813 0.97781 0.0
C475 C 0.80051 0.15899 0.01786 0.0
C476 C 0.87546 0.17176 0.99593 0.0
H477 H 0.9406 0.21754 1.00288 0.0
C478 C 0.88146 0.16581 0.98141 0.0
C479 C 0.8971 0.19066 1.00378 0.0
C480 C 0.89316 0.19648 0.01959 0.0
C481 C 0.90849 0.17818 0.97456 0.0
C482 C 0.93008 0.19686 0.98245 0.0
C483 C 0.92383 0.20333 0.99686 0.0
C484 C 0.96014 0.20882 0.9762 0.0
C485 C 0.91382 0.1712 0.95896 0.0
C486 C 0.98464 0.18773 0.97261 0.0
C487 C 1.01434 0.19916 0.96829 0.0
C488 C 0.02006 0.23191 0.96747 0.0
C489 C 0.99504 0.25294 0.97058 0.0
C490 C 0.96545 0.24148 0.97501 0.0
H491 H 0.89184 0.16252 0.95367 0.0
H492 H 0.92232 0.19266 0.95326 0.0
H493 H 0.93236 0.15266 0.95792 0.0
H494 H 0.98115 0.16244 0.97366 0.0
H495 H 0.03306 0.18232 0.96599 0.0
H496 H 0.71351 0.78774 0.78601 0.0
H497 H 0.73093 0.83339 0.77203 0.0
H498 H 0.64372 0.8305 0.74784 0.0
H499 H 0.62563 0.7854 0.7621 0.0
H500 H 0.74092 0.847 0.7438 0.0
H501 H 0.6403 0.91808 0.76505 0.0
H502 H 0.65001 0.87941 0.77191 0.0
H503 H 0.62875 0.88336 0.75534 0.0
C504 C 0.69818 0.7965 0.77759 0.0
C505 C 0.66796 0.78321 0.77532 0.0
C506 C 0.70821 0.82261 0.76958 0.0
C507 C 0.68832 0.83584 0.7591 0.0
C508 C 0.65911 0.82122 0.75612 0.0
H509 H 0.75772 1.00203 0.70992 0.0
H510 H 0.73677 0.94887 0.71502 0.0
C511 C 0.64889 0.79531 0.76423 0.0
C512 C 0.69734 0.86618 0.75215 0.0
H513 H 0.67555 0.94385 0.74951 0.0
C514 C 0.72651 0.86815 0.7449 0.0
C515 C 0.67861 0.89383 0.75373 0.0
C516 C 0.64782 0.89379 0.76203 0.0
C517 C 0.73789 0.89715 0.73957 0.0
C518 C 0.71929 0.92479 0.7413 0.0
C519 C 0.68965 0.92258 0.7481 0.0
C520 C 0.73153 0.95682 0.73774 0.0
C521 C 0.77039 0.89826 0.73277 0.0
C522 C 0.73481 0.97912 0.74871 0.0
C523 C 0.74634 1.00936 0.74583 0.0
C524 C 0.75497 0.01815 0.73187 0.0
C525 C 0.7514 0.99595 0.72079 0.0
C526 C 0.73964 0.96552 0.72371 0.0
H527 H 0.78404 0.87613 0.73466 0.0
H528 H 0.76775 0.90151 0.72107 0.0
H529 H 0.78433 0.91852 0.73698 0.0
H530 H 0.72869 0.97299 0.75962 0.0
H531 H 0.74873 0.02576 0.75464 0.0
H532 H 0.9934 0.25029 0.30594 0.0
H533 H 0.94084 0.268 0.29782 0.0
H534 H 0.98018 0.35864 0.28627 0.0
H535 H 0.0326 0.34138 0.29435 0.0
H536 H 0.9026 0.3283 0.30508 0.0
H537 H 0.94171 0.316 0.24863 0.0
H538 H 0.96153 0.29612 0.26322 0.0
H539 H 0.96807 0.33757 0.2602 0.0
C540 C 0.99077 0.27418 0.3019 0.0
C541 C 0.01731 0.29432 0.30069 0.0
C542 C 0.96073 0.28423 0.29727 0.0
C543 C 0.9568 0.31447 0.29132 0.0
C544 C 0.98285 0.33511 0.29074 0.0
H545 H 0.80182 0.43114 0.26385 0.0
H546 H 0.84403 0.4049 0.27731 0.0
C547 C 1.01279 0.32518 0.29539 0.0
C548 C 0.92616 0.32391 0.28478 0.0
H549 H 0.89223 0.34114 0.25259 0.0
C550 C 0.90015 0.33089 0.29361 0.0
C551 C 0.923 0.32682 0.26981 0.0
C552 C 0.94992 0.31853 0.25985 0.0
C553 C 0.87129 0.34185 0.28782 0.0
C554 C 0.8686 0.34609 0.27287 0.0
C555 C 0.89432 0.33798 0.26405 0.0
C556 C 0.84007 0.36036 0.26607 0.0
C557 C 0.84396 0.34885 0.29774 0.0
C558 C 0.82366 0.34403 0.2553 0.0
C559 C 0.79955 0.35903 0.24752 0.0
C560 C 0.79162 0.39079 0.25027 0.0
C561 C 0.80727 0.40666 0.26145 0.0
C562 C 0.8313 0.39161 0.26924 0.0
H563 H 0.84644 0.33595 0.30804 0.0
H564 H 0.84353 0.37457 0.30011 0.0
H565 H 0.82089 0.34236 0.29278 0.0
H566 H 0.83017 0.31994 0.25263 0.0
H567 H 0.78803 0.34611 0.23898 0.0
H568 H 0.30103 0.99718 0.72391 0.0
H569 H 0.32215 0.04624 0.73378 0.0
H570 H 0.24872 0.09927 0.71225 0.0
H571 H 0.22676 0.05003 0.70264 0.0
H572 H 0.34486 0.10162 0.7231 0.0
H573 H 0.23344 0.12281 0.75352 0.0
H574 H 0.24111 0.08617 0.74431 0.0
H575 H 0.22846 0.12058 0.73451 0.0
C576 C 0.28955 0.01928 0.7211 0.0
C577 C 0.26191 0.01961 0.71263 0.0
C578 C 0.3017 0.04736 0.72676 0.0
C579 C 0.28661 0.07639 0.72403 0.0
C580 C 0.26027 0.07706 0.71481 0.0
H581 H 0.3739 0.25048 0.75915 0.0
H582 H 0.35155 0.21264 0.74201 0.0
C583 C 0.24788 0.0489 0.70924 0.0
C584 C 0.29749 0.10534 0.7316 0.0
H585 H 0.27444 0.15994 0.7564 0.0
C586 C 0.32942 0.1146 0.73029 0.0
C587 C 0.27737 0.12202 0.7411 0.0
C588 C 0.24327 0.11231 0.74359 0.0
C589 C 0.342 0.13949 0.73848 0.0
C590 C 0.32189 0.15604 0.74803 0.0
C591 C 0.28976 0.14738 0.74901 0.0
C592 C 0.33426 0.18017 0.75814 0.0
C593 C 0.37703 0.14676 0.73737 0.0
C594 C 0.331 0.17511 0.77288 0.0
C595 C 0.3433 0.19679 0.78265 0.0
C596 C 0.35925 0.2241 0.77792 0.0
C597 C 0.3619 0.22959 0.76314 0.0
C598 C 0.34935 0.20787 0.75333 0.0
H599 H 0.39033 0.12753 0.73192 0.0
H600 H 0.38031 0.16882 0.7311 0.0
H601 H 0.38757 0.15044 0.74811 0.0
H602 H 0.31939 0.15397 0.77686 0.0
H603 H 0.34076 0.19177 0.79394 0.0
H604 H 1.01052 0.72093 0.29016 0.0
H605 H 0.06004 0.69634 0.28248 0.0
H606 H 0.11332 0.76246 0.30811 0.0
H607 H 0.06373 0.78797 0.31549 0.0
H608 H 0.13771 0.75919 0.28236 0.0
H609 H 0.12027 0.63689 0.30155 0.0
H610 H 0.0876 0.64906 0.29056 0.0
H611 H 0.09508 0.6691 0.30721 0.0
C612 C 0.03272 0.72997 0.29436 0.0
C613 C 0.03312 0.75644 0.30346 0.0
C614 C 0.06109 0.7157 0.29002 0.0
C615 C 0.0905 0.72713 0.29489 0.0
C616 C 0.09094 0.75309 0.30425 0.0
H617 H 0.26172 0.62123 0.27022 0.0
H618 H 0.22113 0.64778 0.28463 0.0
C619 C 0.06255 0.76761 0.30849 0.0
C620 C 0.12069 0.71357 0.28928 0.0
H621 H 0.15877 0.64371 0.28268 0.0
C622 C 0.14252 0.73397 0.28263 0.0
C623 C 0.12744 0.68076 0.28984 0.0
C624 C 0.1065 0.65778 0.29782 0.0
C625 C 0.17003 0.72234 0.27595 0.0
C626 C 0.17545 0.68928 0.27553 0.0
C627 C 0.15445 0.66902 0.28278 0.0
C628 C 0.20178 0.67507 0.26707 0.0
C629 C 0.19298 0.74571 0.26944 0.0
C630 C 0.20455 0.68157 0.25241 0.0
C631 C 0.22794 0.66675 0.2442 0.0
C632 C 0.24875 0.64459 0.2504 0.0
C633 C 0.24614 0.63824 0.26511 0.0
C634 C 0.22289 0.65335 0.27336 0.0
H635 H 0.19174 0.76897 0.27494 0.0
H636 H 0.21783 0.73693 0.26996 0.0
H637 H 0.18657 0.74963 0.25808 0.0
H638 H 0.18801 0.69747 0.24719 0.0
H639 H 0.22899 0.67196 0.23288 0.0
H640 H 0.81074 0.54787 0.55809 0.0
H641 H 0.78787 0.59695 0.54872 0.0
H642 H 0.70712 0.54495 0.53282 0.0
H643 H 0.72946 0.49597 0.54233 0.0
H644 H 0.77699 0.60899 0.52085 0.0
H645 H 0.66406 0.62097 0.5505 0.0
H646 H 0.69547 0.5947 0.55624 0.0
H647 H 0.66798 0.58257 0.54256 0.0
C648 C 0.78779 0.54695 0.55286 0.0
C649 C 0.77196 0.51793 0.55096 0.0
C650 C 0.77477 0.57506 0.54749 0.0
C651 C 0.74559 0.57475 0.54021 0.0
C652 C 0.72929 0.54596 0.53869 0.0
H653 H 0.67663 0.68237 0.47057 0.0
H654 H 0.70203 0.64633 0.48739 0.0
C655 C 0.74223 0.51788 0.54407 0.0
C656 C 0.73371 0.60372 0.53292 0.0
H657 H 0.66742 0.64927 0.52811 0.0
C658 C 0.75322 0.61811 0.52262 0.0
C659 C 0.70286 0.61599 0.53534 0.0
C660 C 0.68152 0.60295 0.54687 0.0
C661 C 0.74211 0.64322 0.51415 0.0
C662 C 0.71047 0.65392 0.51585 0.0
C663 C 0.69155 0.6408 0.5267 0.0
C664 C 0.69589 0.67679 0.50574 0.0
C665 C 0.7642 0.65772 0.50327 0.0
C666 C 0.68345 0.70577 0.5105 0.0
C667 C 0.66874 0.72658 0.50085 0.0
C668 C 0.66592 0.71851 0.48633 0.0
C669 C 0.67847 0.68945 0.48166 0.0
C670 C 0.6932 0.66884 0.49125 0.0
H671 H 0.78951 0.65415 0.50628 0.0
H672 H 0.7603 0.64619 0.49278 0.0
H673 H 0.75971 0.68348 0.50204 0.0
H674 H 0.68508 0.71225 0.52167 0.0
H675 H 0.65917 0.7487 0.5048 0.0
H676 H 0.7521 0.41002 0.49615 0.0
H677 H 0.71064 0.38418 0.482 0.0
H678 H 0.68921 0.3227 0.51754 0.0
H679 H 0.73143 0.34743 0.53149 0.0
H680 H 0.68593 0.29083 0.4934 0.0
H681 H 0.6182 0.40269 0.48705 0.0
H682 H 0.65748 0.40438 0.47965 0.0
H683 H 0.6523 0.39955 0.49862 0.0
C684 C 0.73876 0.39076 0.50089 0.0
C685 C 0.74488 0.38098 0.51499 0.0
C686 C 0.71487 0.37619 0.49283 0.0
C687 C 0.69613 0.35207 0.49882 0.0
C688 C 0.70316 0.34139 0.51269 0.0
H689 H 0.50547 0.29673 0.47911 0.0
H690 H 0.55472 0.32111 0.48724 0.0
C691 C 0.72735 0.35557 0.52066 0.0
C692 C 0.6686 0.33847 0.49095 0.0
H693 H 0.59769 0.35771 0.47537 0.0
C694 C 0.66667 0.30546 0.48941 0.0
C695 C 0.64324 0.35753 0.48589 0.0
C696 C 0.64266 0.39295 0.48799 0.0
C697 C 0.63994 0.29094 0.48324 0.0
C698 C 0.61481 0.31004 0.47799 0.0
C699 C 0.61705 0.34308 0.47926 0.0
C700 C 0.58487 0.29626 0.47224 0.0
C701 C 0.63833 0.25525 0.48305 0.0
C702 C 0.58514 0.27471 0.46081 0.0
C703 C 0.55691 0.2603 0.45626 0.0
C704 C 0.5278 0.26769 0.46284 0.0
C705 C 0.52743 0.29046 0.47379 0.0
C706 C 0.55564 0.30445 0.47846 0.0
H707 H 0.65526 0.24447 0.49076 0.0
H708 H 0.61403 0.24679 0.48564 0.0
H709 H 0.64466 0.24663 0.47223 0.0
H710 H 0.60721 0.2687 0.45553 0.0
H711 H 0.55796 0.2431 0.44771 0.0
H712 H 0.22058 0.46425 0.55951 0.0
H713 H 0.2438 0.41513 0.55044 0.0
H714 H 0.32877 0.46571 0.5385 0.0
H715 H 0.30608 0.51465 0.54775 0.0
H716 H 0.25894 0.40521 0.523 0.0
H717 H 0.36641 0.38671 0.55587 0.0
H718 H 0.33507 0.41355 0.56107 0.0
H719 H 0.36522 0.42598 0.54861 0.0
C720 C 0.24451 0.4648 0.55526 0.0
C721 C 0.26142 0.49345 0.55433 0.0
C722 C 0.25773 0.43667 0.55006 0.0
C723 C 0.28818 0.43659 0.54392 0.0
C724 C 0.30556 0.46494 0.54348 0.0
H725 H 0.36556 0.33825 0.47402 0.0
H726 H 0.3382 0.3718 0.49118 0.0
C727 C 0.29242 0.49303 0.5487 0.0
C728 C 0.30037 0.40799 0.53649 0.0
H729 H 0.36638 0.36165 0.5326 0.0
C730 C 0.28219 0.39531 0.52529 0.0
C731 C 0.3305 0.39468 0.53957 0.0
C732 C 0.35026 0.40573 0.55204 0.0
C733 C 0.2941 0.37109 0.51656 0.0
C734 C 0.32523 0.35958 0.51893 0.0
C735 C 0.34265 0.37078 0.53067 0.0
C736 C 0.34107 0.33819 0.50859 0.0
C737 C 0.27349 0.35853 0.50466 0.0
C738 C 0.35232 0.30825 0.51273 0.0
C739 C 0.36816 0.28884 0.50288 0.0
C740 C 0.3733 0.29932 0.48879 0.0
C741 C 0.36196 0.32934 0.48475 0.0
C742 C 0.3461 0.34854 0.49454 0.0
H743 H 0.24784 0.36208 0.50701 0.0
H744 H 0.27906 0.37149 0.49465 0.0
H745 H 0.27785 0.33293 0.50284 0.0
H746 H 0.34888 0.29993 0.52357 0.0
H747 H 0.37675 0.26592 0.50634 0.0
H748 H 0.52002 0.72421 0.46366 0.0
H749 H 0.47017 0.69961 0.47171 0.0
H750 H 0.45167 0.78009 0.49872 0.0
H751 H 0.50107 0.80457 0.49089 0.0
H752 H 0.45049 0.72048 0.51281 0.0
H753 H 0.37487 0.72148 0.46398 0.0
H754 H 0.41457 0.70605 0.46225 0.0
H755 H 0.40882 0.74726 0.46602 0.0
C756 C 0.50504 0.73685 0.47113 0.0
C757 C 0.51464 0.76625 0.4767 0.0
C758 C 0.47653 0.72282 0.47568 0.0
C759 C 0.45716 0.73812 0.48577 0.0
C760 C 0.46624 0.76789 0.49093 0.0
H761 H 0.29475 0.70857 0.53936 0.0
H762 H 0.33908 0.72892 0.52524 0.0
C763 C 0.49457 0.78183 0.48644 0.0
C764 C 0.42883 0.7224 0.49199 0.0
H765 H 0.35283 0.6986 0.48479 0.0
C766 C 0.42919 0.71559 0.50666 0.0
C767 C 0.40119 0.7158 0.48393 0.0
C768 C 0.39952 0.72313 0.46818 0.0
C769 C 0.40252 0.70287 0.51356 0.0
C770 C 0.37445 0.69733 0.50563 0.0
C771 C 0.37432 0.70314 0.49085 0.0
C772 C 0.34495 0.68631 0.51274 0.0
C773 C 0.40462 0.69545 0.52931 0.0
C774 C 0.3326 0.65612 0.50993 0.0
C775 C 0.30708 0.64439 0.51796 0.0
C776 C 0.29348 0.66275 0.52892 0.0
C777 C 0.3048 0.69368 0.53111 0.0
C778 C 0.33022 0.70534 0.52308 0.0
H779 H 0.42968 0.69331 0.53294 0.0
H780 H 0.39331 0.71487 0.53545 0.0
H781 H 0.39196 0.6731 0.53187 0.0
H782 H 0.34355 0.64113 0.50194 0.0
H783 H 0.29888 0.62051 0.51596 0.0
H784 H 0.30645 0.23041 0.44498 0.0
H785 H 0.27145 0.23142 0.42416 0.0
H786 H 0.35299 0.23334 0.39632 0.0
H787 H 0.38842 0.23239 0.41717 0.0
H788 H 0.26982 0.27843 0.401 0.0
H789 H 0.2976 0.15631 0.38266 0.0
H790 H 0.30579 0.16956 0.40062 0.0
H791 H 0.33095 0.18179 0.38616 0.0
C792 C 0.31705 0.23104 0.43444 0.0
C793 C 0.3503 0.23117 0.43275 0.0
C794 C 0.29695 0.23169 0.42255 0.0
C795 C 0.3096 0.23215 0.40871 0.0
C796 C 0.34276 0.23263 0.40693 0.0
H797 H 0.22331 0.22075 0.32471 0.0
H798 H 0.25931 0.22336 0.3451 0.0
C799 C 0.36295 0.23221 0.41885 0.0
C800 C 0.28793 0.23203 0.39619 0.0
H801 H 0.26281 0.18641 0.36832 0.0
C802 C 0.26825 0.25835 0.39383 0.0
C803 C 0.28598 0.2058 0.38688 0.0
C804 C 0.30599 0.1766 0.38919 0.0
C805 C 0.24695 0.25936 0.38225 0.0
C806 C 0.24467 0.23293 0.37302 0.0
C807 C 0.26447 0.20664 0.3754 0.0
C808 C 0.22236 0.23215 0.36066 0.0
C809 C 0.22771 0.28904 0.37985 0.0
C810 C 0.18943 0.23599 0.36258 0.0
C811 C 0.16869 0.23476 0.35087 0.0
C812 C 0.18045 0.2292 0.33704 0.0
C813 C 0.21338 0.22504 0.3352 0.0
C814 C 0.23406 0.22652 0.34687 0.0
H815 H 0.23867 0.30984 0.38516 0.0
H816 H 0.22518 0.29429 0.36828 0.0
H817 H 0.20361 0.28574 0.38442 0.0
H818 H 0.1797 0.23957 0.37316 0.0
H819 H 0.14345 0.23782 0.35268 0.0
H820 H 0.26398 0.64483 0.59753 0.0
H821 H 0.26752 0.68117 0.61788 0.0
H822 H 0.18266 0.72887 0.60357 0.0
H823 H 0.17868 0.6926 0.58339 0.0
H824 H 0.27277 0.74749 0.61808 0.0
H825 H 0.16245 0.70841 0.64528 0.0
H826 H 0.18094 0.68574 0.63122 0.0
H827 H 0.15663 0.71947 0.62694 0.0
C828 C 0.24596 0.66292 0.59877 0.0
C829 C 0.22092 0.66563 0.58887 0.0
C830 C 0.24808 0.68374 0.61038 0.0
C831 C 0.22511 0.70747 0.61236 0.0
C832 C 0.2003 0.71037 0.60243 0.0
H833 H 0.23648 0.87535 0.66668 0.0
H834 H 0.23587 0.83858 0.64643 0.0
C835 C 0.19815 0.68963 0.59085 0.0
C836 C 0.2272 0.72954 0.62468 0.0
H837 H 0.18645 0.7555 0.65397 0.0
C838 C 0.25398 0.74917 0.62597 0.0
C839 C 0.20281 0.7315 0.63505 0.0
C840 C 0.17421 0.70996 0.63468 0.0
C841 C 0.25677 0.77108 0.6372 0.0
C842 C 0.23189 0.77373 0.64731 0.0
C843 C 0.20537 0.75372 0.64614 0.0
C844 C 0.23321 0.79631 0.65948 0.0
C845 C 0.28656 0.79078 0.6383 0.0
C846 C 0.23136 0.78489 0.67353 0.0
C847 C 0.23144 0.8058 0.68508 0.0
C848 C 0.23327 0.8387 0.68286 0.0
C849 C 0.23522 0.85016 0.66877 0.0
C850 C 0.23506 0.82915 0.65718 0.0
H851 H 0.30641 0.7804 0.63203 0.0
H852 H 0.28173 0.81481 0.63402 0.0
H853 H 0.29425 0.79321 0.64959 0.0
H854 H 0.22981 0.75969 0.67557 0.0
H855 H 0.22993 0.79607 0.69577 0.0
H856 H 0.66333 0.75663 0.42111 0.0
H857 H 0.70131 0.75165 0.40133 0.0
H858 H 0.74327 0.84108 0.41296 0.0
H859 H 0.70612 0.84587 0.43281 0.0
H860 H 0.71232 0.78833 0.37808 0.0
H861 H 0.8208 0.785 0.41141 0.0
H862 H 0.78149 0.78065 0.41886 0.0
H863 H 0.79716 0.8194 0.415 0.0
C864 C 0.68066 0.77521 0.41944 0.0
C865 C 0.68185 0.80151 0.42863 0.0
C866 C 0.70239 0.77232 0.40815 0.0
C867 C 0.72569 0.79562 0.40585 0.0
C868 C 0.72621 0.82231 0.41476 0.0
H869 H 0.82932 0.8407 0.32929 0.0
H870 H 0.79219 0.83624 0.34918 0.0
C871 C 0.70472 0.82512 0.42606 0.0
C872 C 0.74905 0.79265 0.39398 0.0
H873 H 0.82851 0.79601 0.3865 0.0
C874 C 0.73773 0.78968 0.37994 0.0
C875 C 0.78229 0.79374 0.39638 0.0
C876 C 0.79617 0.79452 0.41124 0.0
C877 C 0.75863 0.78915 0.36823 0.0
C878 C 0.79175 0.79242 0.37058 0.0
C879 C 0.80313 0.794 0.38465 0.0
C880 C 0.81484 0.7952 0.35858 0.0
C881 C 0.74496 0.78492 0.35345 0.0
C882 C 0.84085 0.77443 0.35752 0.0
C883 C 0.86253 0.77722 0.34621 0.0
C884 C 0.85861 0.80088 0.33576 0.0
C885 C 0.83291 0.822 0.33705 0.0
C886 C 0.81144 0.81932 0.34837 0.0
H887 H 0.72162 0.77264 0.35381 0.0
H888 H 0.74112 0.80851 0.34852 0.0
H889 H 0.76127 0.77117 0.3465 0.0
H890 H 0.84416 0.75581 0.36534 0.0
H891 H 0.88206 0.76059 0.34555 0.0
H892 H 0.79235 0.14252 0.66894 0.0
H893 H 0.79086 0.17675 0.64774 0.0
H894 H 0.80167 0.25895 0.67453 0.0
H895 H 0.80374 0.22514 0.69563 0.0
H896 H 0.7496 0.22561 0.64049 0.0
H897 H 0.87261 0.27126 0.64566 0.0
H898 H 0.85855 0.23742 0.6556 0.0
H899 H 0.84908 0.27686 0.66143 0.0
C900 C 0.79449 0.16788 0.6703 0.0
C901 C 0.79846 0.18103 0.68398 0.0
C902 C 0.79361 0.18741 0.65818 0.0
C903 C 0.79679 0.22039 0.65951 0.0
C904 C 0.8 0.23355 0.67318 0.0
H905 H 0.79657 0.37981 0.60002 0.0
H906 H 0.79523 0.34607 0.62138 0.0
C907 C 0.80099 0.21412 0.68526 0.0
C908 C 0.79632 0.2412 0.64668 0.0
H909 H 0.83942 0.29709 0.62871 0.0
C910 C 0.76931 0.2411 0.63786 0.0
C911 C 0.82202 0.26151 0.64328 0.0
C912 C 0.85233 0.26163 0.6519 0.0
C913 C 0.76708 0.26112 0.62589 0.0
C914 C 0.79272 0.28151 0.62254 0.0
C915 C 0.8197 0.28163 0.63135 0.0
C916 C 0.7925 0.30207 0.60965 0.0
C917 C 0.73709 0.26071 0.61706 0.0
C918 C 0.79169 0.28853 0.59599 0.0
C919 C 0.79255 0.30767 0.58381 0.0
C920 C 0.79433 0.34083 0.585 0.0
C921 C 0.79508 0.35439 0.59872 0.0
C922 C 0.79436 0.33515 0.61093 0.0
H923 H 0.71686 0.25014 0.62301 0.0
H924 H 0.73041 0.285 0.61364 0.0
H925 H 0.74113 0.24629 0.60733 0.0
H926 H 0.79085 0.26306 0.59474 0.0
H927 H 0.79203 0.29636 0.57344 0.0
H928 H 0.15805 0.26035 0.92347 0.0
H929 H 0.1977 0.25275 0.90458 0.0
H930 H 0.23651 0.34513 0.91335 0.0
H931 H 0.19748 0.35271 0.93232 0.0
H932 H 0.2108 0.28665 0.87998 0.0
H933 H 0.3146 0.28868 0.91643 0.0
H934 H 0.2743 0.28494 0.92282 0.0
H935 H 0.28987 0.32312 0.91797 0.0
C936 C 0.17495 0.2791 0.92133 0.0
C937 C 0.17474 0.30703 0.9295 0.0
C938 C 0.19762 0.2747 0.91055 0.0
C939 C 0.22053 0.29809 0.90775 0.0
C940 C 0.21963 0.32641 0.91555 0.0
H941 H 0.34031 0.32156 0.83327 0.0
H942 H 0.29977 0.32511 0.85187 0.0
C943 C 0.19712 0.33078 0.92635 0.0
C944 C 0.24537 0.29302 0.89668 0.0
H945 H 0.3258 0.29187 0.89152 0.0
C946 C 0.23594 0.28761 0.88251 0.0
C947 C 0.27821 0.29377 0.90002 0.0
C948 C 0.28991 0.29762 0.91516 0.0
C949 C 0.25843 0.28385 0.87153 0.0
C950 C 0.29123 0.28605 0.87478 0.0
C951 C 0.30066 0.29055 0.88901 0.0
C952 C 0.31613 0.28399 0.86355 0.0
C953 C 0.24685 0.27723 0.85658 0.0
C954 C 0.33948 0.26025 0.86414 0.0
C955 C 0.3629 0.25825 0.85355 0.0
C956 C 0.36357 0.28011 0.8422 0.0
C957 C 0.34047 0.30422 0.8418 0.0
C958 C 0.31708 0.30616 0.85238 0.0
H959 H 0.22226 0.26764 0.85657 0.0
H960 H 0.24675 0.29961 0.85037 0.0
H961 H 0.26269 0.26014 0.85106 0.0
H962 H 0.33936 0.24303 0.87272 0.0
H963 H 0.38033 0.23944 0.85421 0.0
H964 H 0.23494 0.69804 0.18253 0.0
H965 H 0.23944 0.73537 0.16267 0.0
H966 H 0.32603 0.68981 0.14912 0.0
H967 H 0.3215 0.65204 0.16886 0.0
H968 H 0.28809 0.77774 0.15773 0.0
H969 H 0.27595 0.69545 0.11195 0.0
H970 H 0.26544 0.68435 0.12997 0.0
H971 H 0.30637 0.6843 0.12444 0.0
C972 C 0.25477 0.69566 0.17524 0.0
C973 C 0.27783 0.67194 0.17729 0.0
C974 C 0.25733 0.71711 0.1639 0.0
C975 C 0.28287 0.71523 0.1543 0.0
C976 C 0.30576 0.69137 0.15621 0.0
H977 H 0.35077 0.82768 0.08325 0.0
H978 H 0.34308 0.78966 0.10261 0.0
C979 C 0.3032 0.66985 0.16755 0.0
C980 C 0.28632 0.73919 0.14274 0.0
H981 H 0.29255 0.74792 0.10656 0.0
C982 C 0.28885 0.77125 0.14654 0.0
C983 C 0.28734 0.73071 0.12813 0.0
C984 C 0.28334 0.69687 0.12333 0.0
C985 C 0.29311 0.79496 0.13616 0.0
C986 C 0.29436 0.78645 0.12156 0.0
C987 C 0.29164 0.75442 0.11776 0.0
C988 C 0.29908 0.81031 0.11006 0.0
C989 C 0.29712 0.82881 0.14095 0.0
C990 C 0.27683 0.83461 0.10776 0.0
C991 C 0.28119 0.85653 0.09668 0.0
C992 C 0.30781 0.85445 0.08763 0.0
C993 C 0.33003 0.83009 0.09001 0.0
C994 C 0.32565 0.80824 0.10106 0.0
H995 H 0.30343 0.83036 0.15245 0.0
H996 H 0.31583 0.84093 0.13462 0.0
H997 H 0.27443 0.84171 0.13932 0.0
H998 H 0.25583 0.83634 0.11439 0.0
H999 H 0.2635 0.87483 0.0951 0.0
H1000 H 0.87316 0.7721 0.92055 0.0
H1001 H 0.83393 0.78019 0.90149 0.0
H1002 H 0.7906 0.69055 0.91178 0.0
H1003 H 0.82912 0.68258 0.93093 0.0
H1004 H 0.81955 0.74531 0.87751 0.0
H1005 H 0.71501 0.74982 0.9134 0.0
H1006 H 0.75527 0.75219 0.91997 0.0
H1007 H 0.73803 0.71442 0.91565 0.0
C1008 C 0.85531 0.75409 0.91873 0.0
C1009 C 0.85413 0.72682 0.92736 0.0
C1010 C 0.83288 0.75876 0.90784 0.0
C1011 C 0.80884 0.73632 0.90541 0.0
C1012 C 0.80833 0.70863 0.9137 0.0
H1013 H 0.65689 0.7064 0.84483 0.0
H1014 H 0.69664 0.70329 0.86389 0.0
C1015 C 0.83057 0.70401 0.9246 0.0
C1016 C 0.78442 0.74154 0.89414 0.0
H1017 H 0.70417 0.74456 0.88849 0.0
C1018 C 0.79434 0.74546 0.87993 0.0
C1019 C 0.75149 0.74184 0.8973 0.0
C1020 C 0.73928 0.73967 0.91242 0.0
C1021 C 0.7722 0.74861 0.86875 0.0
C1022 C 0.73931 0.74815 0.87189 0.0
C1023 C 0.7294 0.74472 0.88611 0.0
C1024 C 0.71479 0.75059 0.86052 0.0
C1025 C 0.78412 0.75149 0.8536 0.0
C1026 C 0.71139 0.77845 0.85249 0.0
C1027 C 0.68856 0.7804 0.84163 0.0
C1028 C 0.6687 0.75446 0.83859 0.0
C1029 C 0.67182 0.72678 0.84685 0.0
C1030 C 0.69453 0.72495 0.85775 0.0
H1031 H 0.80966 0.74514 0.85269 0.0
H1032 H 0.77016 0.73606 0.84634 0.0
H1033 H 0.78118 0.77631 0.84993 0.0
H1034 H 0.72645 0.7987 0.8546 0.0
H1035 H 0.68681 0.80209 0.83551 0.0
H1036 H 0.74342 0.22148 0.07263 0.0
H1037 H 0.74495 0.25666 0.09327 0.0
H1038 H 0.74105 0.17601 0.12149 0.0
H1039 H 0.74009 0.14046 0.10083 0.0
H1040 H 0.70073 0.26413 0.11431 0.0
H1041 H 0.81543 0.22545 0.13782 0.0
H1042 H 0.80343 0.21478 0.11995 0.0
H1043 H 0.78764 0.1938 0.13509 0.0
C1044 C 0.7431 0.21111 0.08322 0.0
C1045 C 0.74174 0.17808 0.08506 0.0
C1046 C 0.74395 0.23133 0.09502 0.0
C1047 C 0.74355 0.21903 0.10894 0.0
C1048 C 0.74209 0.18606 0.11085 0.0
H1049 H 0.73317 0.30074 0.19348 0.0
H1050 H 0.73529 0.26642 0.17255 0.0
C1051 C 0.74135 0.16575 0.09903 0.0
C1052 C 0.74351 0.24089 0.12139 0.0
H1053 H 0.78386 0.26018 0.15185 0.0
C1054 C 0.71902 0.26339 0.12247 0.0
C1055 C 0.76739 0.23996 0.13204 0.0
C1056 C 0.79514 0.21742 0.13114 0.0
C1057 C 0.71739 0.2845 0.13404 0.0
C1058 C 0.74114 0.2834 0.14473 0.0
C1059 C 0.76569 0.261 0.14364 0.0
C1060 C 0.74041 0.30467 0.15735 0.0
C1061 C 0.68981 0.30725 0.13492 0.0
C1062 C 0.74301 0.33766 0.1558 0.0
C1063 C 0.74183 0.35746 0.16779 0.0
C1064 C 0.73808 0.3446 0.18156 0.0
C1065 C 0.73594 0.31151 0.18305 0.0
C1066 C 0.73721 0.29179 0.17109 0.0
H1067 H 0.67005 0.30032 0.1277 0.0
H1068 H 0.68056 0.30864 0.14601 0.0
H1069 H 0.69796 0.33122 0.13175 0.0
H1070 H 0.74604 0.34808 0.14531 0.0
H1071 H 0.74369 0.3828 0.16626 0.0
H1072 H 0.96124 0.88632 0.28207 0.0
H1073 H 0.98186 0.93981 0.2779 0.0
H1074 H 0.98658 0.95544 0.32335 0.0
H1075 H 0.96572 0.90236 0.32762 0.0
H1076 H 0.95943 1.00563 0.3085 0.0
H1077 H 0.07402 0.96927 0.28402 0.0
H1078 H 0.03912 0.95308 0.27571 0.0
H1079 H 0.04896 0.94202 0.29371 0.0
C1080 C 0.96661 0.90117 0.29118 0.0
C1081 C 0.96191 0.88998 0.30518 0.0
C1082 C 0.97861 0.93165 0.28877 0.0
C1083 C 0.98624 0.95144 0.30032 0.0
C1084 C 0.98102 0.94052 0.31428 0.0
H1085 H 0.09828 0.12292 0.30563 0.0
H1086 H 0.07817 0.06854 0.3063 0.0
C1087 C 0.96908 0.91012 0.31669 0.0
C1088 C 0.99921 0.98375 0.29797 0.0
H1089 H 0.06297 0.02421 0.28457 0.0
C1090 C 0.98201 1.00971 0.30323 0.0
C1091 C 0.02888 0.98898 0.29125 0.0
C1092 C 0.04904 0.9619 0.28594 0.0
C1093 C 0.9936 0.04074 0.30193 0.0
C1094 C 0.02301 0.04605 0.29498 0.0
C1095 C 0.0403 0.0201 0.28977 0.0
C1096 C 0.03654 0.07836 0.29347 0.0
C1097 C 0.97465 0.06752 0.30834 0.0
C1098 C 0.02033 0.10171 0.28567 0.0
C1099 C 0.03172 0.13279 0.28527 0.0
C1100 C 0.05967 0.14115 0.29262 0.0
C1101 C 0.07664 0.11735 0.29989 0.0
C1102 C 0.06519 0.08624 0.30028 0.0
H1103 H 0.95677 0.05884 0.31615 0.0
H1104 H 0.99049 0.08471 0.31379 0.0
H1105 H 0.96181 0.08023 0.29971 0.0
H1106 H 0.99851 0.09601 0.2801 0.0
H1107 H 0.01815 0.15042 0.27948 0.0
H1108 H 0.9079 0.09113 0.71186 0.0
H1109 H 0.96161 0.06896 0.71215 0.0
H1110 H 0.94345 0.02705 0.75336 0.0
H1111 H 0.88949 0.04855 0.75305 0.0
H1112 H 1.01203 0.07577 0.73033 0.0
H1113 H 0.97116 0.95097 0.73 0.0
H1114 H 0.94471 0.98375 0.72663 0.0
H1115 H 0.95575 0.97369 0.74463 0.0
C1116 C 0.91536 0.07737 0.72104 0.0
C1117 C 0.89424 0.07138 0.73238 0.0
C1118 C 0.9461 0.06468 0.72118 0.0
C1119 C 0.95634 0.04575 0.73263 0.0
C1120 C 0.9358 0.04088 0.74424 0.0
H1121 H 0.15351 0.99068 0.74798 0.0
H1122 H 0.1002 0.01345 0.74956 0.0
C1123 C 0.90501 0.05342 0.74409 0.0
C1124 C 0.98835 0.03083 0.7323 0.0
H1125 H 0.02646 0.95938 0.73319 0.0
C1126 C 1.0152 0.05032 0.73096 0.0
C1127 C 0.99244 0.99757 0.73288 0.0
C1128 C 0.9645 0.97522 0.73347 0.0
C1129 C 0.04601 0.03753 0.73033 0.0
C1130 C 0.05016 1.00434 0.73137 0.0
C1131 C 0.02329 0.98483 0.73256 0.0
C1132 C 0.08212 0.98934 0.73087 0.0
C1133 C 0.07376 0.05967 0.7282 0.0
C1134 C 0.08937 0.96717 0.7202 0.0
C1135 C 0.11975 0.95377 0.71936 0.0
C1136 C 0.1435 0.96227 0.72922 0.0
C1137 C 0.13588 0.98378 0.74015 0.0
C1138 C 0.10545 0.99703 0.74101 0.0
H1139 H 0.06606 0.08283 0.72375 0.0
H1140 H 0.08531 0.06417 0.73865 0.0
H1141 H 0.09172 0.0492 0.72091 0.0
H1142 H 0.07168 0.9607 0.71231 0.0
H1143 H 0.12477 0.93728 0.71081 0.0
H1144 H 0.02618 0.38941 0.94703 0.0
H1145 H 1.00749 0.44331 0.95106 0.0
H1146 H 0.07755 0.45546 0.98422 0.0
H1147 H 0.0967 0.40131 0.98019 0.0
H1148 H 0.98326 0.46929 0.97689 0.0
H1149 H 0.09091 0.53292 0.95775 0.0
H1150 H 0.08362 0.49178 0.95371 0.0
H1151 H 0.0974 0.50303 0.97113 0.0
C1152 C 0.03781 0.4035 0.95515 0.0
C1153 C 0.06305 0.39102 0.96326 0.0
C1154 C 0.027 0.43433 0.95745 0.0
C1155 C 0.04127 0.45348 0.96785 0.0
C1156 C 0.06649 0.44121 0.976 0.0
H1157 H 1.00513 0.65127 0.9894 0.0
H1158 H 0.02438 0.59666 0.98937 0.0
C1159 C 0.07732 0.41024 0.97372 0.0
C1160 C 0.02921 0.48609 0.97019 0.0
H1161 H 0.04899 0.56409 0.96671 0.0
C1162 C 0.99764 0.49005 0.97471 0.0
C1163 C 0.04805 0.51309 0.96739 0.0
C1164 C 0.08182 0.5102 0.96212 0.0
C1165 C 0.98436 0.52031 0.97648 0.0
C1166 C 1.00296 0.54734 0.97335 0.0
C1167 C 0.03473 0.54336 0.96909 0.0
C1168 C 0.98977 0.57995 0.97404 0.0
C1169 C 0.95065 0.52302 0.98183 0.0
C1170 C 0.96381 0.58876 0.96546 0.0
C1171 C 0.95263 0.61996 0.9655 0.0
C1172 C 0.9674 0.64309 0.97401 0.0
C1173 C 0.99315 0.63409 0.98273 0.0
C1174 C 1.00425 0.60287 0.98271 0.0
H1175 H 0.9432 0.50139 0.9877 0.0
H1176 H 0.94781 0.54377 0.98899 0.0
H1177 H 0.93441 0.52605 0.97259 0.0
H1178 H 0.95269 0.57168 0.95845 0.0
H1179 H 0.93292 0.62611 0.95858 0.0
H1180 H 0.38386 0.98906 0.01816 0.0
H1181 H 0.43863 1.00819 0.01673 0.0
H1182 H 0.46047 0.96121 0.05647 0.0
H1183 H 0.40595 0.94146 0.05784 0.0
H1184 H 0.46985 0.04694 0.0351 0.0
H1185 H 0.53322 0.93229 0.03136 0.0
H1186 H 0.49082 0.93571 0.02885 0.0
H1187 H 0.50738 0.9346 0.04657 0.0
C1188 C 0.40039 0.98247 0.02652 0.0
C1189 C 0.39051 0.96359 0.03808 0.0
C1190 C 0.43169 0.9935 0.0257 0.0
C1191 C 0.45382 0.98582 0.03639 0.0
C1192 C 0.44406 0.96687 0.04792 0.0
H1193 H 0.62794 0.08529 0.05731 0.0
H1194 H 0.57348 0.06548 0.05582 0.0
C1195 C 0.41279 0.95572 0.04872 0.0
C1196 C 0.48665 0.9988 0.0358 0.0
H1197 H 0.56504 0.9777 0.03631 0.0
C1198 C 0.49067 0.03179 0.03527 0.0
C1199 C 0.51384 0.97905 0.03582 0.0
C1200 C 0.51118 0.94344 0.03554 0.0
C1201 C 0.52107 0.04556 0.0351 0.0
C1202 C 0.54823 0.02584 0.03576 0.0
C1203 C 0.54423 0.99284 0.03595 0.0
C1204 C 0.58104 0.03889 0.03637 0.0
C1205 C 0.52375 0.0811 0.03402 0.0
C1206 C 0.60364 0.03016 0.02608 0.0
C1207 C 0.63492 0.04124 0.02697 0.0
C1208 C 0.64429 0.06123 0.03821 0.0
C1209 C 0.62151 0.07017 0.04844 0.0
C1210 C 0.59027 0.05897 0.04757 0.0
H1211 H 0.50191 0.09179 0.0294 0.0
H1212 H 0.52708 0.09109 0.04487 0.0
H1213 H 0.54441 0.08813 0.02735 0.0
H1214 H 0.59711 0.01459 0.01737 0.0
H1215 H 0.65184 0.03381 0.01892 0.0
H1216 H 0.42688 0.39854 0.78338 0.0
H1217 H 0.44631 0.45235 0.77861 0.0
H1218 H 0.52371 0.43741 0.80805 0.0
H1219 H 0.50474 0.38394 0.81282 0.0
H1220 H 0.45536 0.50178 0.79894 0.0
H1221 H 0.56829 0.47066 0.7719 0.0
H1222 H 0.53612 0.44276 0.77409 0.0
H1223 H 0.56268 0.45085 0.78869 0.0
C1224 C 0.44814 0.40668 0.78876 0.0
C1225 C 0.46429 0.38689 0.79845 0.0
C1226 C 0.4592 0.43739 0.78603 0.0
C1227 C 0.48675 0.44866 0.7928 0.0
C1228 C 0.5028 0.42898 0.80248 0.0
H1229 H 0.59352 0.62008 0.80325 0.0
H1230 H 0.57292 0.56598 0.80252 0.0
C1231 C 0.49174 0.39844 0.80526 0.0
C1232 C 0.49815 0.48145 0.79035 0.0
H1233 H 0.56318 0.52403 0.77996 0.0
C1234 C 0.47874 0.50674 0.79461 0.0
C1235 C 0.52872 0.48777 0.78475 0.0
C1236 C 0.55008 0.46161 0.77946 0.0
C1237 C 0.4896 0.53815 0.79397 0.0
C1238 C 0.52048 0.54445 0.78865 0.0
C1239 C 0.53957 0.51917 0.78407 0.0
C1240 C 0.53385 0.57696 0.78831 0.0
C1241 C 0.46844 0.56418 0.79957 0.0
C1242 C 0.51924 0.60095 0.78026 0.0
C1243 C 0.53089 0.63194 0.78069 0.0
C1244 C 0.55757 0.6395 0.7891 0.0
C1245 C 0.57289 0.61513 0.7967 0.0
C1246 C 0.56115 0.58418 0.7963 0.0
H1247 H 0.44894 0.55475 0.80635 0.0
H1248 H 0.48232 0.58152 0.80592 0.0
H1249 H 0.45751 0.57692 0.79043 0.0
H1250 H 0.49858 0.59577 0.77377 0.0
H1251 H 0.51865 0.65005 0.77461 0.0
H1252 H 0.62837 0.4434 0.20729 0.0
H1253 H 0.57468 0.46546 0.20803 0.0
H1254 H 0.59161 0.49969 0.25073 0.0
H1255 H 0.64566 0.4784 0.24995 0.0
H1256 H 0.52465 0.45403 0.22516 0.0
H1257 H 0.56159 0.57931 0.23095 0.0
H1258 H 0.58926 0.54822 0.2265 0.0
H1259 H 0.577 0.554 0.24472 0.0
C1260 C 0.62069 0.45555 0.21687 0.0
C1261 C 0.64144 0.45932 0.22853 0.0
C1262 C 0.58996 0.46818 0.21726 0.0
C1263 C 0.57928 0.48483 0.22932 0.0
C1264 C 0.59957 0.48771 0.24116 0.0
H1265 H 0.37935 0.5285 0.24476 0.0
H1266 H 0.43361 0.50805 0.24616 0.0
C1267 C 0.63041 0.47528 0.24074 0.0
C1268 C 0.54686 0.49891 0.22946 0.0
H1269 H 0.50645 0.56856 0.23342 0.0
C1270 C 0.52068 0.47908 0.22696 0.0
C1271 C 0.54169 0.5317 0.23158 0.0
C1272 C 0.56887 0.55463 0.23345 0.0
C1273 C 0.48951 0.49103 0.22663 0.0
C1274 C 0.48425 0.52363 0.22924 0.0
C1275 C 0.51045 0.54352 0.23161 0.0
C1276 C 0.45181 0.53765 0.22914 0.0
C1277 C 0.46264 0.4687 0.22311 0.0
C1278 C 0.44427 0.56223 0.2196 0.0
C1279 C 0.41332 0.57434 0.21892 0.0
C1280 C 0.38928 0.56207 0.22778 0.0
C1281 C 0.3972 0.53827 0.23769 0.0
C1282 C 0.42818 0.52637 0.23843 0.0
H1283 H 0.4713 0.44716 0.21754 0.0
H1284 H 0.45094 0.46104 0.23316 0.0
H1285 H 0.44455 0.48041 0.21627 0.0
H1286 H 0.46216 0.57149 0.2124 0.0
H1287 H 0.40807 0.59269 0.21118 0.0
H1288 H 0.46831 0.13501 0.48227 0.0
H1289 H 0.49548 0.08378 0.48439 0.0
H1290 H 0.48751 0.07042 0.43889 0.0
H1291 H 0.46081 0.12142 0.43663 0.0
H1292 H 0.47613 0.02234 0.47651 0.0
H1293 H 0.5828 0.05927 0.44612 0.0
H1294 H 0.55424 0.08729 0.45299 0.0
H1295 H 0.54643 0.06639 0.43662 0.0
C1296 C 0.47225 0.12109 0.47272 0.0
C1297 C 0.46261 0.13246 0.45926 0.0
C1298 C 0.4878 0.09186 0.47396 0.0
C1299 C 0.49413 0.07362 0.46176 0.0
C1300 C 0.48359 0.08445 0.4484 0.0
H1301 H 0.56606 0.89454 0.43614 0.0
H1302 H 0.54481 0.9479 0.43895 0.0
C1303 C 0.46812 0.11358 0.44715 0.0
C1304 C 0.51159 0.04314 0.46286 0.0
H1305 H 0.57592 1.00357 0.44958 0.0
C1306 C 0.4982 0.01831 0.47081 0.0
C1307 C 0.54049 0.03802 0.45547 0.0
C1308 C 0.55703 0.06425 0.44744 0.0
C1309 C 0.51208 0.98801 0.47095 0.0
C1310 C 0.54027 0.98261 0.46308 0.0
C1311 C 0.55424 1.00774 0.45556 0.0
C1312 C 0.55434 0.95056 0.46162 0.0
C1313 C 0.49577 0.96164 0.47898 0.0
C1314 C 0.56735 0.93452 0.4734 0.0
C1315 C 0.5797 0.9039 0.47182 0.0
C1316 C 0.57918 0.88884 0.45843 0.0
C1317 C 0.56675 0.90534 0.44662 0.0
C1318 C 0.55459 0.93589 0.4482 0.0
H1319 H 0.4715 0.96842 0.48252 0.0
H1320 H 0.49405 0.94013 0.47222 0.0
H1321 H 0.50996 0.95551 0.48858 0.0
H1322 H 0.56781 0.94563 0.48382 0.0
H1323 H 0.58912 0.89185 0.48113 0.0
H1324 H 0.90765 0.43078 0.55607 0.0
H1325 H 0.96168 0.4521 0.55534 0.0
H1326 H 0.93889 0.50344 0.51684 0.0
H1327 H 0.88465 0.4828 0.51764 0.0
H1328 H 1.00917 0.44823 0.53558 0.0
H1329 H 0.97215 0.57328 0.54247 0.0
H1330 H 0.94523 0.54058 0.54513 0.0
H1331 H 0.9541 0.55429 0.52737 0.0
C1332 C 0.91414 0.44649 0.5474 0.0
C1333 C 0.89169 0.45528 0.53698 0.0
C1334 C 0.94506 0.45868 0.54701 0.0
C1335 C 0.95418 0.47991 0.53621 0.0
C1336 C 0.93219 0.48776 0.52548 0.0
H1337 H 0.15087 0.53313 0.51801 0.0
H1338 H 0.09677 0.51214 0.51676 0.0
C1339 C 0.90122 0.47573 0.52591 0.0
C1340 C 0.9866 0.49393 0.53624 0.0
H1341 H 0.0266 0.56428 0.53727 0.0
C1342 C 1.013 0.4736 0.53596 0.0
C1343 C 0.99159 0.52704 0.53695 0.0
C1344 C 0.9643 0.55009 0.53814 0.0
C1345 C 0.04421 0.48545 0.53623 0.0
C1346 C 0.04919 0.5186 0.53648 0.0
C1347 C 0.02279 0.53891 0.53691 0.0
C1348 C 0.0816 0.53265 0.5368 0.0
C1349 C 0.07152 0.46229 0.53662 0.0
C1350 C 0.09072 0.5523 0.54816 0.0
C1351 C 0.12152 0.5647 0.54882 0.0
C1352 C 0.14387 0.55771 0.5381 0.0
C1353 C 0.13436 0.5388 0.5265 0.0
C1354 C 0.10349 0.52655 0.52582 0.0
H1355 H 0.06376 0.43848 0.54025 0.0
H1356 H 0.08152 0.4598 0.52571 0.0
H1357 H 0.09072 0.4707 0.54381 0.0
H1358 H 0.07418 0.55752 0.55671 0.0
H1359 H 0.12799 0.57919 0.5579 0.0
loop_
_geom_bond_atom_site_label_1
_geom_bond_atom_site_label_2
_geom_bond_distance
_geom_bond_site_symmetry_2
_ccdc_geom_bond_type
Mg0 O7 2.141 . S
Mg0 O8 2.048 . S
Mg0 O9 2.048 . S
Mg0 O12 2.141 . S
C1 O2 1.313 . S
C1 O8 1.195 . S
O2 C1 1.313 . S
C3 O4 1.245 . S
C3 O12 1.289 . S
O4 C3 1.245 . S
C5 O6 1.245 . S
C5 O7 1.289 . S
O6 C5 1.245 . S
O7 Mg0 2.141 . S
O7 C5 1.289 . S
O8 Mg0 2.048 . S
O8 C1 1.195 . S
O9 Mg0 2.048 . S
O9 C10 1.195 . S
C10 O9 1.195 . S
C10 O11 1.313 . S
O11 C10 1.313 . S
O12 Mg0 2.141 . S
O12 C3 1.289 . S
Mg13 O20 2.141 . S
Mg13 O21 2.048 . S
Mg13 O22 2.048 . S
Mg13 O25 2.141 . S
C14 O15 1.313 . S
C14 O21 1.195 . S
O15 C14 1.313 . S
C16 O17 1.245 . S
C16 O25 1.289 . S
O17 C16 1.245 . S
C18 O19 1.245 . S
C18 O20 1.289 . S
O19 C18 1.245 . S
O20 Mg13 2.141 . S
O20 C18 1.289 . S
O21 Mg13 2.048 . S
O21 C14 1.195 . S
O22 Mg13 2.048 . S
O22 C23 1.195 . S
C23 O22 1.195 . S
C23 O24 1.313 . S
O24 C23 1.313 . S
O25 Mg13 2.141 . S
O25 C16 1.289 . S
Mg26 O33 2.141 . S
Mg26 O34 2.048 . S
Mg26 O35 2.048 . S
Mg26 O38 2.141 . S
C27 O28 1.313 . S
C27 O34 1.195 . S
O28 C27 1.313 . S
C29 O30 1.245 . S
C29 O38 1.289 . S
O30 C29 1.245 . S
C31 O32 1.245 . S
C31 O33 1.289 . S
O32 C31 1.245 . S
O33 Mg26 2.141 . S
O33 C31 1.289 . S
O34 Mg26 2.048 . S
O34 C27 1.195 . S
O35 Mg26 2.048 . S
O35 C36 1.195 . S
C36 O35 1.195 . S
C36 O37 1.313 . S
O37 C36 1.313 . S
O38 Mg26 2.141 . S
O38 C29 1.289 . S
Mg39 O46 2.141 . S
Mg39 O47 2.048 . S
Mg39 O48 2.048 . S
Mg39 O51 2.141 . S
C40 O41 1.313 . S
C40 O47 1.195 . S
O41 C40 1.313 . S
C42 O43 1.245 . S
C42 O51 1.289 . S
O43 C42 1.245 . S
C44 O45 1.245 . S
C44 O46 1.289 . S
O45 C44 1.245 . S
O46 Mg39 2.141 . S
O46 C44 1.289 . S
O47 Mg39 2.048 . S
O47 C40 1.195 . S
O48 Mg39 2.048 . S
O48 C49 1.195 . S
C49 O48 1.195 . S
C49 O50 1.313 . S
O50 C49 1.313 . S
O51 Mg39 2.141 . S
O51 C42 1.289 . S
Mg52 O59 2.141 . S
Mg52 O60 2.048 . S
Mg52 O61 2.048 . S
Mg52 O64 2.141 . S
C53 O54 1.313 . S
C53 O60 1.195 . S
O54 C53 1.313 . S
C55 O56 1.245 . S
C55 O64 1.289 . S
O56 C55 1.245 . S
C57 O58 1.245 . S
C57 O59 1.289 . S
O58 C57 1.245 . S
O59 Mg52 2.141 . S
O59 C57 1.289 . S
O60 Mg52 2.048 . S
O60 C53 1.195 . S
O61 Mg52 2.048 . S
O61 C62 1.195 . S
C62 O61 1.195 . S
C62 O63 1.313 . S
O63 C62 1.313 . S
O64 Mg52 2.141 . S
O64 C55 1.289 . S
Mg65 O72 2.141 . S
Mg65 O73 2.048 . S
Mg65 O74 2.048 . S
Mg65 O77 2.141 . S
C66 O67 1.313 . S
C66 O73 1.195 . S
O67 C66 1.313 . S
C68 O69 1.245 . S
C68 O77 1.289 . S
O69 C68 1.245 . S
C70 O71 1.245 . S
C70 O72 1.289 . S
O71 C70 1.245 . S
O72 Mg65 2.141 . S
O72 C70 1.289 . S
O73 Mg65 2.048 . S
O73 C66 1.195 . S
O74 Mg65 2.048 . S
O74 C75 1.195 . S
C75 O74 1.195 . S
C75 O76 1.313 . S
O76 C75 1.313 . S
O77 Mg65 2.141 . S
O77 C68 1.289 . S
Mg78 O85 2.141 . S
Mg78 O86 2.048 . S
Mg78 O87 2.048 . S
Mg78 O90 2.141 . S
C79 O80 1.313 . S
C79 O86 1.195 . S
O80 C79 1.313 . S
C81 O82 1.245 . S
C81 O90 1.289 . S
O82 C81 1.245 . S
C83 O84 1.245 . S
C83 O85 1.289 . S
O84 C83 1.245 . S
O85 Mg78 2.141 . S
O85 C83 1.289 . S
O86 Mg78 2.048 . S
O86 C79 1.195 . S
O87 Mg78 2.048 . S
O87 C88 1.195 . S
C88 O87 1.195 . S
C88 O89 1.313 . S
O89 C88 1.313 . S
O90 Mg78 2.141 . S
O90 C81 1.289 . S
Mg91 O98 2.141 . S
Mg91 O99 2.048 . S
Mg91 O100 2.048 . S
Mg91 O103 2.141 . S
C92 O93 1.313 . S
C92 O99 1.195 . S
O93 C92 1.313 . S
C94 O95 1.245 . S
C94 O103 1.289 . S
O95 C94 1.245 . S
C96 O97 1.245 . S
C96 O98 1.289 . S
O97 C96 1.245 . S
O98 Mg91 2.141 . S
O98 C96 1.289 . S
O99 Mg91 2.048 . S
O99 C92 1.195 . S
O100 Mg91 2.048 . S
O100 C101 1.195 . S
C101 O100 1.195 . S
C101 O102 1.313 . S
O102 C101 1.313 . S
O103 Mg91 2.141 . S
O103 C94 1.289 . S
Mg104 O111 2.141 . S
Mg104 O112 2.048 . S
Mg104 O113 2.048 . S
Mg104 O116 2.141 . S
C105 O106 1.313 . S
C105 O112 1.195 . S
O106 C105 1.313 . S
C107 O108 1.245 . S
C107 O116 1.289 . S
O108 C107 1.245 . S
C109 O110 1.245 . S
C109 O111 1.289 . S
O110 C109 1.245 . S
O111 Mg104 2.141 . S
O111 C109 1.289 . S
O112 Mg104 2.048 . S
O112 C105 1.195 . S
O113 Mg104 2.048 . S
O113 C114 1.195 . S
C114 O113 1.195 . S
C114 O115 1.313 . S
O115 C114 1.313 . S
O116 Mg104 2.141 . S
O116 C107 1.289 . S
Mg117 O124 2.141 . S
Mg117 O125 2.048 . S
Mg117 O126 2.048 . S
Mg117 O129 2.141 . S
C118 O119 1.313 . S
C118 O125 1.195 . S
O119 C118 1.313 . S
C120 O121 1.245 . S
C120 O129 1.289 . S
O121 C120 1.245 . S
C122 O123 1.245 . S
C122 O124 1.289 . S
O123 C122 1.245 . S
O124 Mg117 2.141 . S
O124 C122 1.289 . S
O125 Mg117 2.048 . S
O125 C118 1.195 . S
O126 Mg117 2.048 . S
O126 C127 1.195 . S
C127 O126 1.195 . S
C127 O128 1.313 . S
O128 C127 1.313 . S
O129 Mg117 2.141 . S
O129 C120 1.289 . S
Mg130 O137 2.141 . S
Mg130 O138 2.048 . S
Mg130 O139 2.048 . S
Mg130 O142 2.141 . S
C131 O132 1.313 . S
C131 O138 1.195 . S
O132 C131 1.313 . S
C133 O134 1.245 . S
C133 O142 1.289 . S
O134 C133 1.245 . S
C135 O136 1.245 . S
C135 O137 1.289 . S
O136 C135 1.245 . S
O137 Mg130 2.141 . S
O137 C135 1.289 . S
O138 Mg130 2.048 . S
O138 C131 1.195 . S
O139 Mg130 2.048 . S
O139 C140 1.195 . S
C140 O139 1.195 . S
C140 O141 1.313 . S
O141 C140 1.313 . S
O142 Mg130 2.141 . S
O142 C133 1.289 . S
Mg143 O150 2.141 . S
Mg143 O151 2.048 . S
Mg143 O152 2.048 . S
Mg143 O155 2.141 . S
C144 O145 1.313 . S
C144 O151 1.195 . S
O145 C144 1.313 . S
C146 O147 1.245 . S
C146 O155 1.289 . S
O147 C146 1.245 . S
C148 O149 1.245 . S
C148 O150 1.289 . S
O149 C148 1.245 . S
O150 Mg143 2.141 . S
O150 C148 1.289 . S
O151 Mg143 2.048 . S
O151 C144 1.195 . S
O152 Mg143 2.048 . S
O152 C153 1.195 . S
C153 O152 1.195 . S
C153 O154 1.313 . S
O154 C153 1.313 . S
O155 Mg143 2.141 . S
O155 C146 1.289 . S
Mg156 O163 2.141 . S
Mg156 O164 2.048 . S
Mg156 O165 2.048 . S
Mg156 O168 2.141 . S
C157 O158 1.313 . S
C157 O164 1.195 . S
O158 C157 1.313 . S
C159 O160 1.245 . S
C159 O168 1.289 . S
O160 C159 1.245 . S
C161 O162 1.245 . S
C161 O163 1.289 . S
O162 C161 1.245 . S
O163 Mg156 2.141 . S
O163 C161 1.289 . S
O164 Mg156 2.048 . S
O164 C157 1.195 . S
O165 Mg156 2.048 . S
O165 C166 1.195 . S
C166 O165 1.195 . S
C166 O167 1.313 . S
O167 C166 1.313 . S
O168 Mg156 2.141 . S
O168 C159 1.289 . S
Mg169 O176 2.141 . S
Mg169 O177 2.048 . S
Mg169 O178 2.048 . S
Mg169 O181 2.141 . S
C170 O171 1.313 . S
C170 O177 1.195 . S
O171 C170 1.313 . S
C172 O173 1.245 . S
C172 O181 1.289 . S
O173 C172 1.245 . S
C174 O175 1.245 . S
C174 O176 1.289 . S
O175 C174 1.245 . S
O176 Mg169 2.141 . S
O176 C174 1.289 . S
O177 Mg169 2.048 . S
O177 C170 1.195 . S
O178 Mg169 2.048 . S
O178 C179 1.195 . S
C179 O178 1.195 . S
C179 O180 1.313 . S
O180 C179 1.313 . S
O181 Mg169 2.141 . S
O181 C172 1.289 . S
Mg182 O189 2.141 . S
Mg182 O190 2.048 . S
Mg182 O191 2.048 . S
Mg182 O194 2.141 . S
C183 O184 1.313 . S
C183 O190 1.195 . S
O184 C183 1.313 . S
C185 O186 1.245 . S
C185 O194 1.289 . S
O186 C185 1.245 . S
C187 O188 1.245 . S
C187 O189 1.289 . S
O188 C187 1.245 . S
O189 Mg182 2.141 . S
O189 C187 1.289 . S
O190 Mg182 2.048 . S
O190 C183 1.195 . S
O191 Mg182 2.048 . S
O191 C192 1.195 . S
C192 O191 1.195 . S
C192 O193 1.313 . S
O193 C192 1.313 . S
O194 Mg182 2.141 . S
O194 C185 1.289 . S
Mg195 O202 2.141 . S
Mg195 O203 2.048 . S
Mg195 O204 2.048 . S
Mg195 O207 2.141 . S
C196 O197 1.313 . S
C196 O203 1.195 . S
O197 C196 1.313 . S
C198 O199 1.245 . S
C198 O207 1.289 . S
O199 C198 1.245 . S
C200 O201 1.245 . S
C200 O202 1.289 . S
O201 C200 1.245 . S
O202 Mg195 2.141 . S
O202 C200 1.289 . S
O203 Mg195 2.048 . S
O203 C196 1.195 . S
O204 Mg195 2.048 . S
O204 C205 1.195 . S
C205 O204 1.195 . S
C205 O206 1.313 . S
O206 C205 1.313 . S
O207 Mg195 2.141 . S
O207 C198 1.289 . S
H208 C216 0.929 . S
H209 C218 0.930 . S
H210 C220 0.930 . S
H211 C223 0.929 . S
H212 C226 0.930 . S
H213 C228 0.960 . S
H214 C228 0.960 . S
H215 C228 0.960 . S
C216 H208 0.929 . S
C216 C217 1.377 . S
C216 C218 1.384 . S
C217 C216 1.377 . S
C217 C223 1.390 . S
C218 H209 0.930 . S
C218 C216 1.384 . S
C218 C219 1.372 . S
C219 C218 1.372 . S
C219 C220 1.400 . S
C219 C224 1.490 . S
C220 H210 0.930 . S
C220 C219 1.400 . S
C220 C223 1.386 . S
H221 C237 0.930 . S
H222 C238 0.931 . S
C223 H211 0.929 . S
C223 C217 1.390 . S
C223 C220 1.386 . S
C224 C219 1.490 . S
C224 C226 1.395 . S
C224 C227 1.403 . S
H225 C231 0.930 . S
C226 H212 0.930 . S
C226 C224 1.395 . S
C226 C229 1.403 . S
C227 C224 1.403 . S
C227 C228 1.524 . S
C227 C231 1.400 . S
C228 H213 0.960 . S
C228 H214 0.960 . S
C228 H215 0.960 . S
C228 C227 1.524 . S
C229 C226 1.403 . S
C229 C230 1.392 . S
C229 C233 1.495 . S
C230 C229 1.392 . S
C230 C231 1.385 . S
C230 C232 1.478 . S
C231 H225 0.930 . S
C231 C227 1.400 . S
C231 C230 1.385 . S
C232 C230 1.478 . S
C232 C234 1.381 . S
C232 C238 1.383 . S
C233 C229 1.495 . S
C233 H239 0.959 . S
C233 H240 0.961 . S
C233 H241 0.960 . S
C234 C232 1.381 . S
C234 C235 1.394 . S
C234 H242 0.930 . S
C235 C234 1.394 . S
C235 C236 1.383 . S
C235 H243 0.929 . S
C236 C235 1.383 . S
C236 C237 1.377 . S
C237 H221 0.930 . S
C237 C236 1.377 . S
C237 C238 1.379 . S
C238 H222 0.931 . S
C238 C232 1.383 . S
C238 C237 1.379 . S
H239 C233 0.959 . S
H240 C233 0.961 . S
H241 C233 0.960 . S
H242 C234 0.930 . S
H243 C235 0.929 . S
H244 C252 0.929 . S
H245 C254 0.930 . S
H246 C256 0.930 . S
H247 C259 0.929 . S
H248 C262 0.930 . S
H249 C264 0.960 . S
H250 C264 0.960 . S
H251 C264 0.960 . S
C252 H244 0.929 . S
C252 C253 1.377 . S
C252 C254 1.384 . S
C253 C252 1.377 . S
C253 C259 1.390 . S
C254 H245 0.930 . S
C254 C252 1.384 . S
C254 C255 1.372 . S
C255 C254 1.372 . S
C255 C256 1.400 . S
C255 C260 1.490 . S
C256 H246 0.930 . S
C256 C255 1.400 . S
C256 C259 1.386 . S
H257 C273 0.930 . S
H258 C274 0.931 . S
C259 H247 0.929 . S
C259 C253 1.390 . S
C259 C256 1.386 . S
C260 C255 1.490 . S
C260 C262 1.395 . S
C260 C263 1.403 . S
H261 C267 0.930 . S
C262 H248 0.930 . S
C262 C260 1.395 . S
C262 C265 1.403 . S
C263 C260 1.403 . S
C263 C264 1.524 . S
C263 C267 1.400 . S
C264 H249 0.960 . S
C264 H250 0.960 . S
C264 H251 0.960 . S
C264 C263 1.524 . S
C265 C262 1.403 . S
C265 C266 1.392 . S
C265 C269 1.495 . S
C266 C265 1.392 . S
C266 C267 1.385 . S
C266 C268 1.478 . S
C267 H261 0.930 . S
C267 C263 1.400 . S
C267 C266 1.385 . S
C268 C266 1.478 . S
C268 C270 1.381 . S
C268 C274 1.383 . S
C269 C265 1.495 . S
C269 H275 0.959 . S
C269 H276 0.961 . S
C269 H277 0.960 . S
C270 C268 1.381 . S
C270 C271 1.394 . S
C270 H278 0.930 . S
C271 C270 1.394 . S
C271 C272 1.383 . S
C271 H279 0.929 . S
C272 C271 1.383 . S
C272 C273 1.377 . S
C273 H257 0.930 . S
C273 C272 1.377 . S
C273 C274 1.379 . S
C274 H258 0.931 . S
C274 C268 1.383 . S
C274 C273 1.379 . S
H275 C269 0.959 . S
H276 C269 0.961 . S
H277 C269 0.960 . S
H278 C270 0.930 . S
H279 C271 0.929 . S
H280 C288 0.929 . S
H281 C290 0.930 . S
H282 C292 0.930 . S
H283 C295 0.929 . S
H284 C298 0.930 . S
H285 C300 0.960 . S
H286 C300 0.960 . S
H287 C300 0.960 . S
C288 H280 0.929 . S
C288 C289 1.377 . S
C288 C290 1.384 . S
C289 C288 1.377 . S
C289 C295 1.390 . S
C290 H281 0.930 . S
C290 C288 1.384 . S
C290 C291 1.372 . S
C291 C290 1.372 . S
C291 C292 1.400 . S
C291 C296 1.490 . S
C292 H282 0.930 . S
C292 C291 1.400 . S
C292 C295 1.386 . S
H293 C309 0.930 . S
H294 C310 0.931 . S
C295 H283 0.929 . S
C295 C289 1.390 . S
C295 C292 1.386 . S
C296 C291 1.490 . S
C296 C298 1.395 . S
C296 C299 1.403 . S
H297 C303 0.930 . S
C298 H284 0.930 . S
C298 C296 1.395 . S
C298 C301 1.403 . S
C299 C296 1.403 . S
C299 C300 1.524 . S
C299 C303 1.400 . S
C300 H285 0.960 . S
C300 H286 0.960 . S
C300 H287 0.960 . S
C300 C299 1.524 . S
C301 C298 1.403 . S
C301 C302 1.392 . S
C301 C305 1.495 . S
C302 C301 1.392 . S
C302 C303 1.385 . S
C302 C304 1.478 . S
C303 H297 0.930 . S
C303 C299 1.400 . S
C303 C302 1.385 . S
C304 C302 1.478 . S
C304 C306 1.381 . S
C304 C310 1.383 . S
C305 C301 1.495 . S
C305 H311 0.959 . S
C305 H312 0.961 . S
C305 H313 0.960 . S
C306 C304 1.381 . S
C306 C307 1.394 . S
C306 H314 0.930 . S
C307 C306 1.394 . S
C307 C308 1.383 . S
C307 H315 0.929 . S
C308 C307 1.383 . S
C308 C309 1.377 . S
C309 H293 0.930 . S
C309 C308 1.377 . S
C309 C310 1.379 . S
C310 H294 0.931 . S
C310 C304 1.383 . S
C310 C309 1.379 . S
H311 C305 0.959 . S
H312 C305 0.961 . S
H313 C305 0.960 . S
H314 C306 0.930 . S
H315 C307 0.929 . S
H316 C324 0.929 . S
H317 C326 0.930 . S
H318 C328 0.930 . S
H319 C331 0.929 . S
H320 C334 0.930 . S
H321 C336 0.960 . S
H322 C336 0.960 . S
H323 C336 0.960 . S
C324 H316 0.929 . S
C324 C325 1.377 . S
C324 C326 1.384 . S
C325 C324 1.377 . S
C325 C331 1.390 . S
C326 H317 0.930 . S
C326 C324 1.384 . S
C326 C327 1.372 . S
C327 C326 1.372 . S
C327 C328 1.400 . S
C327 C332 1.490 . S
C328 H318 0.930 . S
C328 C327 1.400 . S
C328 C331 1.386 . S
H329 C345 0.930 . S
H330 C346 0.931 . S
C331 H319 0.929 . S
C331 C325 1.390 . S
C331 C328 1.386 . S
C332 C327 1.490 . S
C332 C334 1.395 . S
C332 C335 1.403 . S
H333 C339 0.930 . S
C334 H320 0.930 . S
C334 C332 1.395 . S
C334 C337 1.403 . S
C335 C332 1.403 . S
C335 C336 1.524 . S
C335 C339 1.400 . S
C336 H321 0.960 . S
C336 H322 0.960 . S
C336 H323 0.960 . S
C336 C335 1.524 . S
C337 C334 1.403 . S
C337 C338 1.392 . S
C337 C341 1.495 . S
C338 C337 1.392 . S
C338 C339 1.385 . S
C338 C340 1.478 . S
C339 H333 0.930 . S
C339 C335 1.400 . S
C339 C338 1.385 . S
C340 C338 1.478 . S
C340 C342 1.381 . S
C340 C346 1.383 . S
C341 C337 1.495 . S
C341 H347 0.959 . S
C341 H348 0.961 . S
C341 H349 0.960 . S
C342 C340 1.381 . S
C342 C343 1.394 . S
C342 H350 0.930 . S
C343 C342 1.394 . S
C343 C344 1.383 . S
C343 H351 0.929 . S
C344 C343 1.383 . S
C344 C345 1.377 . S
C345 H329 0.930 . S
C345 C344 1.377 . S
C345 C346 1.379 . S
C346 H330 0.931 . S
C346 C340 1.383 . S
C346 C345 1.379 . S
H347 C341 0.959 . S
H348 C341 0.961 . S
H349 C341 0.960 . S
H350 C342 0.930 . S
H351 C343 0.929 . S
H352 C360 0.929 . S
H353 C362 0.930 1_556 S
H354 C364 0.930 . S
H355 C367 0.929 . S
H356 C370 0.930 . S
H357 C372 0.960 . S
H358 C372 0.960 . S
H359 C372 0.960 . S
C360 H352 0.929 . S
C360 C361 1.377 1_545 S
C360 C362 1.384 . S
C361 C360 1.377 1_565 S
C361 C367 1.390 . S
C362 H353 0.930 1_554 S
C362 C360 1.384 . S
C362 C363 1.372 . S
C363 C362 1.372 . S
C363 C364 1.400 . S
C363 C368 1.490 1_554 S
C364 H354 0.930 . S
C364 C363 1.400 . S
C364 C367 1.386 1_545 S
H365 C381 0.930 . S
H366 C382 0.931 . S
C367 H355 0.929 . S
C367 C361 1.390 . S
C367 C364 1.386 1_565 S
C368 C363 1.490 1_556 S
C368 C370 1.395 . S
C368 C371 1.403 1_556 S
H369 C375 0.914 1_554 S
C370 H356 0.930 . S
C370 C368 1.395 . S
C370 C373 1.403 . S
C371 C368 1.403 1_554 S
C371 C372 1.524 . S
C371 C375 1.386 1_554 S
C372 H357 0.960 . S
C372 H358 0.960 . S
C372 H359 0.960 . S
C372 C371 1.524 . S
C373 C370 1.403 . S
C373 C374 1.392 . S
C373 C377 1.495 . S
C374 C373 1.392 . S
C374 C375 1.415 . S
C374 C376 1.478 . S
C375 H369 0.914 1_556 S
C375 C371 1.386 1_556 S
C375 C374 1.415 . S
C376 C374 1.478 . S
C376 C378 1.381 . S
C376 C382 1.383 . S
C377 C373 1.495 . S
C377 H383 0.959 . S
C377 H384 0.961 . S
C377 H385 0.960 . S
C378 C376 1.381 . S
C378 C379 1.394 . S
C378 H386 0.930 . S
C379 C378 1.394 . S
C379 C380 1.383 . S
C379 H387 0.929 . S
C380 C379 1.383 . S
C380 C381 1.377 . S
C381 H365 0.930 . S
C381 C380 1.377 . S
C381 C382 1.379 . S
C382 H366 0.931 . S
C382 C376 1.383 . S
C382 C381 1.379 . S
H383 C377 0.959 . S
H384 C377 0.961 . S
H385 C377 0.960 . S
H386 C378 0.930 . S
H387 C379 0.929 . S
H388 C396 0.929 . S
H389 C398 0.930 . S
H390 C400 0.930 . S
H391 C403 0.929 . S
H392 C406 0.930 . S
H393 C408 0.960 1_556 S
H394 C408 0.960 1_556 S
H395 C408 0.960 . S
C396 H388 0.929 . S
C396 C397 1.377 . S
C396 C398 1.384 . S
C397 C396 1.377 . S
C397 C403 1.390 . S
C398 H389 0.930 . S
C398 C396 1.384 . S
C398 C399 1.372 . S
C399 C398 1.372 . S
C399 C400 1.400 . S
C399 C404 1.490 . S
C400 H390 0.930 . S
C400 C399 1.400 . S
C400 C403 1.386 . S
H401 C417 0.898 1_554 S
H402 C418 0.931 . S
C403 H391 0.929 . S
C403 C397 1.390 . S
C403 C400 1.386 . S
C404 C399 1.490 . S
C404 C406 1.395 . S
C404 C407 1.403 . S
H405 C411 0.921 1_556 S
C406 H392 0.930 . S
C406 C404 1.395 . S
C406 C409 1.403 . S
C407 C404 1.403 . S
C407 C408 1.524 . S
C407 C411 1.407 . S
C408 H393 0.960 1_554 S
C408 H394 0.960 1_554 S
C408 H395 0.960 . S
C408 C407 1.524 . S
C409 C406 1.403 . S
C409 C410 1.392 . S
C409 C413 1.495 . S
C410 C409 1.392 . S
C410 C411 1.388 . S
C410 C412 1.478 1_554 S
C411 H405 0.921 1_554 S
C411 C407 1.407 . S
C411 C410 1.388 . S
C412 C410 1.478 1_556 S
C412 C414 1.381 . S
C412 C418 1.383 1_556 S
C413 C409 1.495 . S
C413 H419 0.959 . S
C413 H420 0.961 . S
C413 H421 0.960 . S
C414 C412 1.381 . S
C414 C415 1.394 . S
C414 H422 0.930 . S
C415 C414 1.394 . S
C415 C416 1.383 1_455 S
C415 H423 0.929 . S
C416 C415 1.383 1_655 S
C416 C417 1.377 . S
C417 H401 0.898 1_556 S
C417 C416 1.377 . S
C417 C418 1.379 1_656 S
C418 H402 0.931 . S
C418 C412 1.383 1_554 S
C418 C417 1.379 1_454 S
H419 C413 0.959 . S
H420 C413 0.961 . S
H421 C413 0.960 . S
H422 C414 0.930 . S
H423 C415 0.929 . S
H424 C432 0.929 . S
H425 C434 0.930 . S
H426 C436 0.930 . S
H427 C439 0.929 . S
H428 C442 0.930 1_554 S
H429 C444 0.960 . S
H430 C444 0.960 . S
H431 C444 0.960 . S
C432 H424 0.929 . S
C432 C433 1.377 . S
C432 C434 1.384 . S
C433 C432 1.377 . S
C433 C439 1.390 . S
C434 H425 0.930 . S
C434 C432 1.384 . S
C434 C435 1.372 . S
C435 C434 1.372 . S
C435 C436 1.400 . S
C435 C440 1.490 . S
C436 H426 0.930 . S
C436 C435 1.400 . S
C436 C439 1.386 . S
H437 C453 0.930 . S
H438 C454 0.931 . S
C439 H427 0.929 . S
C439 C433 1.390 . S
C439 C436 1.386 . S
C440 C435 1.490 . S
C440 C442 1.395 . S
C440 C443 1.403 . S
H441 C447 0.930 . S
C442 H428 0.930 1_556 S
C442 C440 1.395 . S
C442 C445 1.403 1_556 S
C443 C440 1.403 . S
C443 C444 1.524 . S
C443 C447 1.400 . S
C444 H429 0.960 . S
C444 H430 0.960 . S
C444 H431 0.960 . S
C444 C443 1.524 . S
C445 C442 1.403 1_554 S
C445 C446 1.406 . S
C445 C449 1.495 . S
C446 C445 1.406 . S
C446 C447 1.359 1_554 S
C446 C448 1.490 . S
C447 H441 0.930 . S
C447 C443 1.400 . S
C447 C446 1.359 1_556 S
C448 C446 1.490 . S
C448 C450 1.381 . S
C448 C454 1.383 . S
C449 C445 1.495 . S
C449 H455 0.959 . S
C449 H456 0.961 . S
C449 H457 0.960 . S
C450 C448 1.381 . S
C450 C451 1.394 . S
C450 H458 0.930 . S
C451 C450 1.394 . S
C451 C452 1.383 1_565 S
C451 H459 0.929 . S
C452 C451 1.383 1_545 S
C452 C453 1.377 . S
C453 H437 0.930 . S
C453 C452 1.377 . S
C453 C454 1.379 1_545 S
C454 H438 0.931 . S
C454 C448 1.383 . S
C454 C453 1.379 1_565 S
H455 C449 0.959 . S
H456 C449 0.961 . S
H457 C449 0.960 . S
H458 C450 0.930 . S
H459 C451 0.929 . S
H460 C468 0.929 . S
H461 C470 0.930 . S
H462 C472 0.930 . S
H463 C475 0.929 . S
H464 C478 0.930 . S
H465 C480 0.960 . S
H466 C480 0.960 . S
H467 C480 0.960 . S
C468 H460 0.929 . S
C468 C469 1.377 . S
C468 C470 1.384 . S
C469 C468 1.377 . S
C469 C475 1.390 . S
C470 H461 0.930 . S
C470 C468 1.384 . S
C470 C471 1.372 . S
C471 C470 1.372 . S
C471 C472 1.400 . S
C471 C476 1.490 . S
C472 H462 0.930 . S
C472 C471 1.400 . S
C472 C475 1.386 . S
H473 C489 0.887 1_454 S
H474 C490 0.962 . S
C475 H463 0.929 . S
C475 C469 1.390 . S
C475 C472 1.386 . S
C476 C471 1.490 . S
C476 C478 1.395 1_554 S
C476 C479 1.403 . S
H477 C483 0.930 . S
C478 H464 0.930 . S
C478 C476 1.395 1_556 S
C478 C481 1.403 . S
C479 C476 1.403 . S
C479 C480 1.524 . S
C479 C483 1.400 . S
C480 H465 0.960 . S
C480 H466 0.960 . S
C480 H467 0.960 . S
C480 C479 1.524 . S
C481 C478 1.403 . S
C481 C482 1.392 . S
C481 C485 1.495 . S
C482 C481 1.392 . S
C482 C483 1.385 1_556 S
C482 C484 1.478 . S
C483 H477 0.930 . S
C483 C479 1.400 . S
C483 C482 1.385 1_554 S
C484 C482 1.478 . S
C484 C486 1.381 . S
C484 C490 1.365 1_556 S
C485 C481 1.495 . S
C485 H491 0.959 . S
C485 H492 0.961 . S
C485 H493 0.960 . S
C486 C484 1.381 . S
C486 C487 1.394 1_655 S
C486 H494 0.930 . S
C487 C486 1.394 1_455 S
C487 C488 1.383 . S
C487 H495 0.929 . S
C488 C487 1.383 . S
C488 C489 1.373 1_455 S
C489 H473 0.887 1_656 S
C489 C488 1.373 1_655 S
C489 C490 1.375 1_556 S
C490 H474 0.962 . S
C490 C484 1.365 1_554 S
C490 C489 1.375 1_554 S
H491 C485 0.959 . S
H492 C485 0.961 . S
H493 C485 0.960 . S
H494 C486 0.930 . S
H495 C487 0.929 . S
H496 C504 0.929 . S
H497 C506 0.930 . S
H498 C508 0.930 . S
H499 C511 0.929 . S
H500 C514 0.930 . S
H501 C516 0.960 . S
H502 C516 0.960 . S
H503 C516 0.960 . S
C504 H496 0.929 . S
C504 C505 1.377 . S
C504 C506 1.384 . S
C505 C504 1.377 . S
C505 C511 1.390 . S
C506 H497 0.930 . S
C506 C504 1.384 . S
C506 C507 1.372 . S
C507 C506 1.372 . S
C507 C508 1.400 . S
C507 C512 1.490 . S
C508 H498 0.930 . S
C508 C507 1.400 . S
C508 C511 1.386 . S
H509 C525 0.930 . S
H510 C526 0.931 . S
C511 H499 0.929 . S
C511 C505 1.390 . S
C511 C508 1.386 . S
C512 C507 1.490 . S
C512 C514 1.395 . S
C512 C515 1.403 . S
H513 C519 0.930 . S
C514 H500 0.930 . S
C514 C512 1.395 . S
C514 C517 1.403 . S
C515 C512 1.403 . S
C515 C516 1.524 . S
C515 C519 1.400 . S
C516 H501 0.960 . S
C516 H502 0.960 . S
C516 H503 0.960 . S
C516 C515 1.524 . S
C517 C514 1.403 . S
C517 C518 1.392 . S
C517 C521 1.495 . S
C518 C517 1.392 . S
C518 C519 1.385 . S
C518 C520 1.478 . S
C519 H513 0.930 . S
C519 C515 1.400 . S
C519 C518 1.385 . S
C520 C518 1.478 . S
C520 C522 1.381 . S
C520 C526 1.383 . S
C521 C517 1.495 . S
C521 H527 0.959 . S
C521 H528 0.961 . S
C521 H529 0.960 . S
C522 C520 1.381 . S
C522 C523 1.369 1_565 S
C522 H530 0.930 . S
C523 C522 1.369 1_545 S
C523 C524 1.397 . S
C523 H531 0.942 . S
C524 C523 1.397 . S
C524 C525 1.377 . S
C525 H509 0.930 . S
C525 C524 1.377 . S
C525 C526 1.379 1_545 S
C526 H510 0.931 . S
C526 C520 1.383 . S
C526 C525 1.379 1_565 S
H527 C521 0.959 . S
H528 C521 0.961 . S
H529 C521 0.960 . S
H530 C522 0.930 . S
H531 C523 0.942 . S
H532 C540 0.922 1_455 S
H533 C542 0.930 . S
H534 C544 0.930 . S
H535 C547 0.929 . S
H536 C550 0.930 . S
H537 C552 0.960 . S
H538 C552 0.960 . S
H539 C552 0.960 . S
C540 H532 0.922 1_655 S
C540 C541 1.364 1_655 S
C540 C542 1.406 . S
C541 C540 1.364 1_455 S
C541 C547 1.390 . S
C542 H533 0.930 . S
C542 C540 1.406 . S
C542 C543 1.372 . S
C543 C542 1.372 . S
C543 C544 1.400 . S
C543 C548 1.490 . S
C544 H534 0.930 . S
C544 C543 1.400 . S
C544 C547 1.386 1_655 S
H545 C561 0.930 . S
H546 C562 0.931 . S
C547 H535 0.929 . S
C547 C541 1.390 . S
C547 C544 1.386 1_455 S
C548 C543 1.490 . S
C548 C550 1.395 . S
C548 C551 1.403 . S
H549 C555 0.930 . S
C550 H536 0.930 . S
C550 C548 1.395 . S
C550 C553 1.403 . S
C551 C548 1.403 . S
C551 C552 1.524 . S
C551 C555 1.400 . S
C552 H537 0.960 . S
C552 H538 0.960 . S
C552 H539 0.960 . S
C552 C551 1.524 . S
C553 C550 1.403 . S
C553 C554 1.392 . S
C553 C557 1.495 . S
C554 C553 1.392 . S
C554 C555 1.385 . S
C554 C556 1.478 . S
C555 H549 0.930 . S
C555 C551 1.400 . S
C555 C554 1.385 . S
C556 C554 1.478 . S
C556 C558 1.381 . S
C556 C562 1.383 . S
C557 C553 1.495 . S
C557 H563 0.959 . S
C557 H564 0.961 . S
C557 H565 0.960 . S
C558 C556 1.381 . S
C558 C559 1.394 . S
C558 H566 0.930 . S
C559 C558 1.394 . S
C559 C560 1.383 . S
C559 H567 0.929 . S
C560 C559 1.383 . S
C560 C561 1.377 . S
C561 H545 0.930 . S
C561 C560 1.377 . S
C561 C562 1.379 . S
C562 H546 0.931 . S
C562 C556 1.383 . S
C562 C561 1.379 . S
H563 C557 0.959 . S
H564 C557 0.961 . S
H565 C557 0.960 . S
H566 C558 0.930 . S
H567 C559 0.929 . S
H568 C576 0.929 . S
H569 C578 0.930 . S
H570 C580 0.930 . S
H571 C583 0.929 . S
H572 C586 0.930 . S
H573 C588 0.960 . S
H574 C588 0.960 . S
H575 C588 0.960 . S
C576 H568 0.929 . S
C576 C577 1.377 . S
C576 C578 1.384 1_565 S
C577 C576 1.377 . S
C577 C583 1.390 1_565 S
C578 H569 0.930 . S
C578 C576 1.384 1_545 S
C578 C579 1.372 . S
C579 C578 1.372 . S
C579 C580 1.400 . S
C579 C584 1.490 . S
C580 H570 0.930 . S
C580 C579 1.400 . S
C580 C583 1.386 . S
H581 C597 0.930 . S
H582 C598 0.931 . S
C583 H571 0.929 . S
C583 C577 1.390 1_545 S
C583 C580 1.386 . S
C584 C579 1.490 . S
C584 C586 1.395 . S
C584 C587 1.403 . S
H585 C591 0.930 . S
C586 H572 0.930 . S
C586 C584 1.395 . S
C586 C589 1.403 . S
C587 C584 1.403 . S
C587 C588 1.524 . S
C587 C591 1.400 . S
C588 H573 0.960 . S
C588 H574 0.960 . S
C588 H575 0.960 . S
C588 C587 1.524 . S
C589 C586 1.403 . S
C589 C590 1.392 . S
C589 C593 1.495 . S
C590 C589 1.392 . S
C590 C591 1.385 . S
C590 C592 1.478 . S
C591 H585 0.930 . S
C591 C587 1.400 . S
C591 C590 1.385 . S
C592 C590 1.478 . S
C592 C594 1.381 . S
C592 C598 1.383 . S
C593 C589 1.495 . S
C593 H599 0.959 . S
C593 H600 0.961 . S
C593 H601 0.960 . S
C594 C592 1.381 . S
C594 C595 1.394 . S
C594 H602 0.930 . S
C595 C594 1.394 . S
C595 C596 1.383 . S
C595 H603 0.929 . S
C596 C595 1.383 . S
C596 C597 1.377 . S
C597 H581 0.930 . S
C597 C596 1.377 . S
C597 C598 1.379 . S
C598 H582 0.931 . S
C598 C592 1.383 . S
C598 C597 1.379 . S
H599 C593 0.959 . S
H600 C593 0.961 . S
H601 C593 0.960 . S
H602 C594 0.930 . S
H603 C595 0.929 . S
H604 C612 0.929 . S
H605 C614 0.930 . S
H606 C616 0.930 . S
H607 C619 0.929 . S
H608 C622 0.930 . S
H609 C624 0.960 . S
H610 C624 0.960 . S
H611 C624 0.960 . S
C612 H604 0.929 . S
C612 C613 1.377 . S
C612 C614 1.384 1_655 S
C613 C612 1.377 . S
C613 C619 1.390 1_655 S
C614 H605 0.930 . S
C614 C612 1.384 1_455 S
C614 C615 1.372 . S
C615 C614 1.372 . S
C615 C616 1.400 . S
C615 C620 1.490 . S
C616 H606 0.930 . S
C616 C615 1.400 . S
C616 C619 1.386 . S
H617 C633 0.930 . S
H618 C634 0.931 . S
C619 H607 0.929 . S
C619 C613 1.390 1_455 S
C619 C616 1.386 . S
C620 C615 1.490 . S
C620 C622 1.395 . S
C620 C623 1.403 . S
H621 C627 0.930 . S
C622 H608 0.930 . S
C622 C620 1.395 . S
C622 C625 1.403 . S
C623 C620 1.403 . S
C623 C624 1.524 . S
C623 C627 1.400 . S
C624 H609 0.960 . S
C624 H610 0.960 . S
C624 H611 0.960 . S
C624 C623 1.524 . S
C625 C622 1.403 . S
C625 C626 1.392 . S
C625 C629 1.495 . S
C626 C625 1.392 . S
C626 C627 1.385 . S
C626 C628 1.478 . S
C627 H621 0.930 . S
C627 C623 1.400 . S
C627 C626 1.385 . S
C628 C626 1.478 . S
C628 C630 1.381 . S
C628 C634 1.383 . S
C629 C625 1.495 . S
C629 H635 0.959 . S
C629 H636 0.961 . S
C629 H637 0.960 . S
C630 C628 1.381 . S
C630 C631 1.394 . S
C630 H638 0.930 . S
C631 C630 1.394 . S
C631 C632 1.383 . S
C631 H639 0.929 . S
C632 C631 1.383 . S
C632 C633 1.377 . S
C633 H617 0.930 . S
C633 C632 1.377 . S
C633 C634 1.379 . S
C634 H618 0.931 . S
C634 C628 1.383 . S
C634 C633 1.379 . S
H635 C629 0.959 . S
H636 C629 0.961 . S
H637 C629 0.960 . S
H638 C630 0.930 . S
H639 C631 0.929 . S
H640 C648 0.929 . S
H641 C650 0.930 . S
H642 C652 0.930 . S
H643 C655 0.929 . S
H644 C658 0.930 . S
H645 C660 0.960 . S
H646 C660 0.960 . S
H647 C660 0.960 . S
C648 H640 0.929 . S
C648 C649 1.377 . S
C648 C650 1.384 . S
C649 C648 1.377 . S
C649 C655 1.390 . S
C650 H641 0.930 . S
C650 C648 1.384 . S
C650 C651 1.372 . S
C651 C650 1.372 . S
C651 C652 1.400 . S
C651 C656 1.490 . S
C652 H642 0.930 . S
C652 C651 1.400 . S
C652 C655 1.386 . S
H653 C669 0.930 . S
H654 C670 0.931 . S
C655 H643 0.929 . S
C655 C649 1.390 . S
C655 C652 1.386 . S
C656 C651 1.490 . S
C656 C658 1.395 . S
C656 C659 1.403 . S
H657 C663 0.930 . S
C658 H644 0.930 . S
C658 C656 1.395 . S
C658 C661 1.403 . S
C659 C656 1.403 . S
C659 C660 1.524 . S
C659 C663 1.400 . S
C660 H645 0.960 . S
C660 H646 0.960 . S
C660 H647 0.960 . S
C660 C659 1.524 . S
C661 C658 1.403 . S
C661 C662 1.392 . S
C661 C665 1.495 . S
C662 C661 1.392 . S
C662 C663 1.385 . S
C662 C664 1.478 . S
C663 H657 0.930 . S
C663 C659 1.400 . S
C663 C662 1.385 . S
C664 C662 1.478 . S
C664 C666 1.381 . S
C664 C670 1.383 . S
C665 C661 1.495 . S
C665 H671 0.959 . S
C665 H672 0.961 . S
C665 H673 0.960 . S
C666 C664 1.381 . S
C666 C667 1.394 . S
C666 H674 0.930 . S
C667 C666 1.394 . S
C667 C668 1.383 . S
C667 H675 0.929 . S
C668 C667 1.383 . S
C668 C669 1.377 . S
C669 H653 0.930 . S
C669 C668 1.377 . S
C669 C670 1.379 . S
C670 H654 0.931 . S
C670 C664 1.383 . S
C670 C669 1.379 . S
H671 C665 0.959 . S
H672 C665 0.961 . S
H673 C665 0.960 . S
H674 C666 0.930 . S
H675 C667 0.929 . S
H676 C684 0.929 . S
H677 C686 0.930 . S
H678 C688 0.930 . S
H679 C691 0.929 . S
H680 C694 0.930 . S
H681 C696 0.960 . S
H682 C696 0.960 . S
H683 C696 0.960 . S
C684 H676 0.929 . S
C684 C685 1.377 . S
C684 C686 1.384 . S
C685 C684 1.377 . S
C685 C691 1.390 . S
C686 H677 0.930 . S
C686 C684 1.384 . S
C686 C687 1.372 . S
C687 C686 1.372 . S
C687 C688 1.400 . S
C687 C692 1.490 . S
C688 H678 0.930 . S
C688 C687 1.400 . S
C688 C691 1.386 . S
H689 C705 0.930 . S
H690 C706 0.931 . S
C691 H679 0.929 . S
C691 C685 1.390 . S
C691 C688 1.386 . S
C692 C687 1.490 . S
C692 C694 1.395 . S
C692 C695 1.403 . S
H693 C699 0.930 . S
C694 H680 0.930 . S
C694 C692 1.395 . S
C694 C697 1.403 . S
C695 C692 1.403 . S
C695 C696 1.524 . S
C695 C699 1.400 . S
C696 H681 0.960 . S
C696 H682 0.960 . S
C696 H683 0.960 . S
C696 C695 1.524 . S
C697 C694 1.403 . S
C697 C698 1.392 . S
C697 C701 1.495 . S
C698 C697 1.392 . S
C698 C699 1.385 . S
C698 C700 1.478 . S
C699 H693 0.930 . S
C699 C695 1.400 . S
C699 C698 1.385 . S
C700 C698 1.478 . S
C700 C702 1.381 . S
C700 C706 1.383 . S
C701 C697 1.495 . S
C701 H707 0.959 . S
C701 H708 0.961 . S
C701 H709 0.960 . S
C702 C700 1.381 . S
C702 C703 1.394 . S
C702 H710 0.930 . S
C703 C702 1.394 . S
C703 C704 1.383 . S
C703 H711 0.929 . S
C704 C703 1.383 . S
C704 C705 1.377 . S
C705 H689 0.930 . S
C705 C704 1.377 . S
C705 C706 1.379 . S
C706 H690 0.931 . S
C706 C700 1.383 . S
C706 C705 1.379 . S
H707 C701 0.959 . S
H708 C701 0.961 . S
H709 C701 0.960 . S
H710 C702 0.930 . S
H711 C703 0.929 . S
H712 C720 0.929 . S
H713 C722 0.930 . S
H714 C724 0.930 . S
H715 C727 0.929 . S
H716 C730 0.930 . S
H717 C732 0.960 . S
H718 C732 0.960 . S
H719 C732 0.960 . S
C720 H712 0.929 . S
C720 C721 1.377 . S
C720 C722 1.384 . S
C721 C720 1.377 . S
C721 C727 1.390 . S
C722 H713 0.930 . S
C722 C720 1.384 . S
C722 C723 1.372 . S
C723 C722 1.372 . S
C723 C724 1.400 . S
C723 C728 1.490 . S
C724 H714 0.930 . S
C724 C723 1.400 . S
C724 C727 1.386 . S
H725 C741 0.930 . S
H726 C742 0.931 . S
C727 H715 0.929 . S
C727 C721 1.390 . S
C727 C724 1.386 . S
C728 C723 1.490 . S
C728 C730 1.395 . S
C728 C731 1.403 . S
H729 C735 0.930 . S
C730 H716 0.930 . S
C730 C728 1.395 . S
C730 C733 1.403 . S
C731 C728 1.403 . S
C731 C732 1.524 . S
C731 C735 1.400 . S
C732 H717 0.960 . S
C732 H718 0.960 . S
C732 H719 0.960 . S
C732 C731 1.524 . S
C733 C730 1.403 . S
C733 C734 1.392 . S
C733 C737 1.495 . S
C734 C733 1.392 . S
C734 C735 1.385 . S
C734 C736 1.478 . S
C735 H729 0.930 . S
C735 C731 1.400 . S
C735 C734 1.385 . S
C736 C734 1.478 . S
C736 C738 1.381 . S
C736 C742 1.383 . S
C737 C733 1.495 . S
C737 H743 0.959 . S
C737 H744 0.961 . S
C737 H745 0.960 . S
C738 C736 1.381 . S
C738 C739 1.394 . S
C738 H746 0.930 . S
C739 C738 1.394 . S
C739 C740 1.383 . S
C739 H747 0.929 . S
C740 C739 1.383 . S
C740 C741 1.377 . S
C741 H725 0.930 . S
C741 C740 1.377 . S
C741 C742 1.379 . S
C742 H726 0.931 . S
C742 C736 1.383 . S
C742 C741 1.379 . S
H743 C737 0.959 . S
H744 C737 0.961 . S
H745 C737 0.960 . S
H746 C738 0.930 . S
H747 C739 0.929 . S
H748 C756 0.929 . S
H749 C758 0.930 . S
H750 C760 0.930 . S
H751 C763 0.929 . S
H752 C766 0.930 . S
H753 C768 0.960 . S
H754 C768 0.960 . S
H755 C768 0.960 . S
C756 H748 0.929 . S
C756 C757 1.377 . S
C756 C758 1.384 . S
C757 C756 1.377 . S
C757 C763 1.390 . S
C758 H749 0.930 . S
C758 C756 1.384 . S
C758 C759 1.372 . S
C759 C758 1.372 . S
C759 C760 1.400 . S
C759 C764 1.490 . S
C760 H750 0.930 . S
C760 C759 1.400 . S
C760 C763 1.386 . S
H761 C777 0.930 . S
H762 C778 0.931 . S
C763 H751 0.929 . S
C763 C757 1.390 . S
C763 C760 1.386 . S
C764 C759 1.490 . S
C764 C766 1.395 . S
C764 C767 1.403 . S
H765 C771 0.930 . S
C766 H752 0.930 . S
C766 C764 1.395 . S
C766 C769 1.403 . S
C767 C764 1.403 . S
C767 C768 1.524 . S
C767 C771 1.400 . S
C768 H753 0.960 . S
C768 H754 0.960 . S
C768 H755 0.960 . S
C768 C767 1.524 . S
C769 C766 1.403 . S
C769 C770 1.392 . S
C769 C773 1.495 . S
C770 C769 1.392 . S
C770 C771 1.385 . S
C770 C772 1.478 . S
C771 H765 0.930 . S
C771 C767 1.400 . S
C771 C770 1.385 . S
C772 C770 1.478 . S
C772 C774 1.381 . S
C772 C778 1.383 . S
C773 C769 1.495 . S
C773 H779 0.959 . S
C773 H780 0.961 . S
C773 H781 0.960 . S
C774 C772 1.381 . S
C774 C775 1.394 . S
C774 H782 0.930 . S
C775 C774 1.394 . S
C775 C776 1.383 . S
C775 H783 0.929 . S
C776 C775 1.383 . S
C776 C777 1.377 . S
C777 H761 0.930 . S
C777 C776 1.377 . S
C777 C778 1.379 . S
C778 H762 0.931 . S
C778 C772 1.383 . S
C778 C777 1.379 . S
H779 C773 0.959 . S
H780 C773 0.961 . S
H781 C773 0.960 . S
H782 C774 0.930 . S
H783 C775 0.929 . S
H784 C792 0.929 . S
H785 C794 0.930 . S
H786 C796 0.930 . S
H787 C799 0.929 . S
H788 C802 0.930 . S
H789 C804 0.960 . S
H790 C804 0.960 . S
H791 C804 0.960 . S
C792 H784 0.929 . S
C792 C793 1.377 . S
C792 C794 1.384 . S
C793 C792 1.377 . S
C793 C799 1.390 . S
C794 H785 0.930 . S
C794 C792 1.384 . S
C794 C795 1.372 . S
C795 C794 1.372 . S
C795 C796 1.400 . S
C795 C800 1.490 . S
C796 H786 0.930 . S
C796 C795 1.400 . S
C796 C799 1.386 . S
H797 C813 0.930 . S
H798 C814 0.931 . S
C799 H787 0.929 . S
C799 C793 1.390 . S
C799 C796 1.386 . S
C800 C795 1.490 . S
C800 C802 1.395 . S
C800 C803 1.403 . S
H801 C807 0.930 . S
C802 H788 0.930 . S
C802 C800 1.395 . S
C802 C805 1.403 . S
C803 C800 1.403 . S
C803 C804 1.524 . S
C803 C807 1.400 . S
C804 H789 0.960 . S
C804 H790 0.960 . S
C804 H791 0.960 . S
C804 C803 1.524 . S
C805 C802 1.403 . S
C805 C806 1.392 . S
C805 C809 1.495 . S
C806 C805 1.392 . S
C806 C807 1.385 . S
C806 C808 1.478 . S
C807 H801 0.930 . S
C807 C803 1.400 . S
C807 C806 1.385 . S
C808 C806 1.478 . S
C808 C810 1.381 . S
C808 C814 1.383 . S
C809 C805 1.495 . S
C809 H815 0.959 . S
C809 H816 0.961 . S
C809 H817 0.960 . S
C810 C808 1.381 . S
C810 C811 1.394 . S
C810 H818 0.930 . S
C811 C810 1.394 . S
C811 C812 1.383 . S
C811 H819 0.929 . S
C812 C811 1.383 . S
C812 C813 1.377 . S
C813 H797 0.930 . S
C813 C812 1.377 . S
C813 C814 1.379 . S
C814 H798 0.931 . S
C814 C808 1.383 . S
C814 C813 1.379 . S
H815 C809 0.959 . S
H816 C809 0.961 . S
H817 C809 0.960 . S
H818 C810 0.930 . S
H819 C811 0.929 . S
H820 C828 0.929 . S
H821 C830 0.930 . S
H822 C832 0.930 . S
H823 C835 0.929 . S
H824 C838 0.930 . S
H825 C840 0.960 . S
H826 C840 0.960 . S
H827 C840 0.960 . S
C828 H820 0.929 . S
C828 C829 1.377 . S
C828 C830 1.384 . S
C829 C828 1.377 . S
C829 C835 1.390 . S
C830 H821 0.930 . S
C830 C828 1.384 . S
C830 C831 1.372 . S
C831 C830 1.372 . S
C831 C832 1.400 . S
C831 C836 1.490 . S
C832 H822 0.930 . S
C832 C831 1.400 . S
C832 C835 1.386 . S
H833 C849 0.930 . S
H834 C850 0.931 . S
C835 H823 0.929 . S
C835 C829 1.390 . S
C835 C832 1.386 . S
C836 C831 1.490 . S
C836 C838 1.395 . S
C836 C839 1.403 . S
H837 C843 0.930 . S
C838 H824 0.930 . S
C838 C836 1.395 . S
C838 C841 1.403 . S
C839 C836 1.403 . S
C839 C840 1.524 . S
C839 C843 1.400 . S
C840 H825 0.960 . S
C840 H826 0.960 . S
C840 H827 0.960 . S
C840 C839 1.524 . S
C841 C838 1.403 . S
C841 C842 1.392 . S
C841 C845 1.495 . S
C842 C841 1.392 . S
C842 C843 1.385 . S
C842 C844 1.478 . S
C843 H837 0.930 . S
C843 C839 1.400 . S
C843 C842 1.385 . S
C844 C842 1.478 . S
C844 C846 1.381 . S
C844 C850 1.383 . S
C845 C841 1.495 . S
C845 H851 0.959 . S
C845 H852 0.961 . S
C845 H853 0.960 . S
C846 C844 1.381 . S
C846 C847 1.394 . S
C846 H854 0.930 . S
C847 C846 1.394 . S
C847 C848 1.383 . S
C847 H855 0.929 . S
C848 C847 1.383 . S
C848 C849 1.377 . S
C849 H833 0.930 . S
C849 C848 1.377 . S
C849 C850 1.379 . S
C850 H834 0.931 . S
C850 C844 1.383 . S
C850 C849 1.379 . S
H851 C845 0.959 . S
H852 C845 0.961 . S
H853 C845 0.960 . S
H854 C846 0.930 . S
H855 C847 0.929 . S
H856 C864 0.929 . S
H857 C866 0.930 . S
H858 C868 0.930 . S
H859 C871 0.929 . S
H860 C874 0.930 . S
H861 C876 0.960 . S
H862 C876 0.960 . S
H863 C876 0.960 . S
C864 H856 0.929 . S
C864 C865 1.377 . S
C864 C866 1.384 . S
C865 C864 1.377 . S
C865 C871 1.390 . S
C866 H857 0.930 . S
C866 C864 1.384 . S
C866 C867 1.372 . S
C867 C866 1.372 . S
C867 C868 1.400 . S
C867 C872 1.490 . S
C868 H858 0.930 . S
C868 C867 1.400 . S
C868 C871 1.386 . S
H869 C885 0.930 . S
H870 C886 0.931 . S
C871 H859 0.929 . S
C871 C865 1.390 . S
C871 C868 1.386 . S
C872 C867 1.490 . S
C872 C874 1.395 . S
C872 C875 1.403 . S
H873 C879 0.930 . S
C874 H860 0.930 . S
C874 C872 1.395 . S
C874 C877 1.403 . S
C875 C872 1.403 . S
C875 C876 1.524 . S
C875 C879 1.400 . S
C876 H861 0.960 . S
C876 H862 0.960 . S
C876 H863 0.960 . S
C876 C875 1.524 . S
C877 C874 1.403 . S
C877 C878 1.392 . S
C877 C881 1.495 . S
C878 C877 1.392 . S
C878 C879 1.385 . S
C878 C880 1.478 . S
C879 H873 0.930 . S
C879 C875 1.400 . S
C879 C878 1.385 . S
C880 C878 1.478 . S
C880 C882 1.381 . S
C880 C886 1.383 . S
C881 C877 1.495 . S
C881 H887 0.959 . S
C881 H888 0.961 . S
C881 H889 0.960 . S
C882 C880 1.381 . S
C882 C883 1.394 . S
C882 H890 0.930 . S
C883 C882 1.394 . S
C883 C884 1.383 . S
C883 H891 0.929 . S
C884 C883 1.383 . S
C884 C885 1.377 . S
C885 H869 0.930 . S
C885 C884 1.377 . S
C885 C886 1.379 . S
C886 H870 0.931 . S
C886 C880 1.383 . S
C886 C885 1.379 . S
H887 C881 0.959 . S
H888 C881 0.961 . S
H889 C881 0.960 . S
H890 C882 0.930 . S
H891 C883 0.929 . S
H892 C900 0.929 . S
H893 C902 0.930 . S
H894 C904 0.930 . S
H895 C907 0.929 . S
H896 C910 0.930 . S
H897 C912 0.960 . S
H898 C912 0.960 . S
H899 C912 0.960 . S
C900 H892 0.929 . S
C900 C901 1.377 . S
C900 C902 1.384 . S
C901 C900 1.377 . S
C901 C907 1.390 . S
C902 H893 0.930 . S
C902 C900 1.384 . S
C902 C903 1.372 . S
C903 C902 1.372 . S
C903 C904 1.400 . S
C903 C908 1.490 . S
C904 H894 0.930 . S
C904 C903 1.400 . S
C904 C907 1.386 . S
H905 C921 0.930 . S
H906 C922 0.931 . S
C907 H895 0.929 . S
C907 C901 1.390 . S
C907 C904 1.386 . S
C908 C903 1.490 . S
C908 C910 1.395 . S
C908 C911 1.403 . S
H909 C915 0.930 . S
C910 H896 0.930 . S
C910 C908 1.395 . S
C910 C913 1.403 . S
C911 C908 1.403 . S
C911 C912 1.524 . S
C911 C915 1.400 . S
C912 H897 0.960 . S
C912 H898 0.960 . S
C912 H899 0.960 . S
C912 C911 1.524 . S
C913 C910 1.403 . S
C913 C914 1.392 . S
C913 C917 1.495 . S
C914 C913 1.392 . S
C914 C915 1.385 . S
C914 C916 1.478 . S
C915 H909 0.930 . S
C915 C911 1.400 . S
C915 C914 1.385 . S
C916 C914 1.478 . S
C916 C918 1.381 . S
C916 C922 1.383 . S
C917 C913 1.495 . S
C917 H923 0.959 . S
C917 H924 0.961 . S
C917 H925 0.960 . S
C918 C916 1.381 . S
C918 C919 1.394 . S
C918 H926 0.930 . S
C919 C918 1.394 . S
C919 C920 1.383 . S
C919 H927 0.929 . S
C920 C919 1.383 . S
C920 C921 1.377 . S
C921 H905 0.930 . S
C921 C920 1.377 . S
C921 C922 1.379 . S
C922 H906 0.931 . S
C922 C916 1.383 . S
C922 C921 1.379 . S
H923 C917 0.959 . S
H924 C917 0.961 . S
H925 C917 0.960 . S
H926 C918 0.930 . S
H927 C919 0.929 . S
H928 C936 0.929 . S
H929 C938 0.930 . S
H930 C940 0.930 . S
H931 C943 0.929 . S
H932 C946 0.930 . S
H933 C948 0.960 . S
H934 C948 0.960 . S
H935 C948 0.960 . S
C936 H928 0.929 . S
C936 C937 1.377 . S
C936 C938 1.384 . S
C937 C936 1.377 . S
C937 C943 1.390 . S
C938 H929 0.930 . S
C938 C936 1.384 . S
C938 C939 1.372 . S
C939 C938 1.372 . S
C939 C940 1.400 . S
C939 C944 1.490 . S
C940 H930 0.930 . S
C940 C939 1.400 . S
C940 C943 1.386 . S
H941 C957 0.930 . S
H942 C958 0.931 . S
C943 H931 0.929 . S
C943 C937 1.390 . S
C943 C940 1.386 . S
C944 C939 1.490 . S
C944 C946 1.395 . S
C944 C947 1.403 . S
H945 C951 0.930 . S
C946 H932 0.930 . S
C946 C944 1.395 . S
C946 C949 1.403 . S
C947 C944 1.403 . S
C947 C948 1.524 . S
C947 C951 1.400 . S
C948 H933 0.960 . S
C948 H934 0.960 . S
C948 H935 0.960 . S
C948 C947 1.524 . S
C949 C946 1.403 . S
C949 C950 1.392 . S
C949 C953 1.495 . S
C950 C949 1.392 . S
C950 C951 1.385 . S
C950 C952 1.478 . S
C951 H945 0.930 . S
C951 C947 1.400 . S
C951 C950 1.385 . S
C952 C950 1.478 . S
C952 C954 1.381 . S
C952 C958 1.383 . S
C953 C949 1.495 . S
C953 H959 0.959 . S
C953 H960 0.961 . S
C953 H961 0.960 . S
C954 C952 1.381 . S
C954 C955 1.394 . S
C954 H962 0.930 . S
C955 C954 1.394 . S
C955 C956 1.383 . S
C955 H963 0.929 . S
C956 C955 1.383 . S
C956 C957 1.377 . S
C957 H941 0.930 . S
C957 C956 1.377 . S
C957 C958 1.379 . S
C958 H942 0.931 . S
C958 C952 1.383 . S
C958 C957 1.379 . S
H959 C953 0.959 . S
H960 C953 0.961 . S
H961 C953 0.960 . S
H962 C954 0.930 . S
H963 C955 0.929 . S
H964 C972 0.929 . S
H965 C974 0.930 . S
H966 C976 0.930 . S
H967 C979 0.929 . S
H968 C982 0.930 . S
H969 C984 0.960 . S
H970 C984 0.960 . S
H971 C984 0.960 . S
C972 H964 0.929 . S
C972 C973 1.377 . S
C972 C974 1.384 . S
C973 C972 1.377 . S
C973 C979 1.390 . S
C974 H965 0.930 . S
C974 C972 1.384 . S
C974 C975 1.372 . S
C975 C974 1.372 . S
C975 C976 1.400 . S
C975 C980 1.490 . S
C976 H966 0.930 . S
C976 C975 1.400 . S
C976 C979 1.386 . S
H977 C993 0.930 . S
H978 C994 0.931 . S
C979 H967 0.929 . S
C979 C973 1.390 . S
C979 C976 1.386 . S
C980 C975 1.490 . S
C980 C982 1.395 . S
C980 C983 1.403 . S
H981 C987 0.930 . S
C982 H968 0.930 . S
C982 C980 1.395 . S
C982 C985 1.403 . S
C983 C980 1.403 . S
C983 C984 1.524 . S
C983 C987 1.400 . S
C984 H969 0.960 . S
C984 H970 0.960 . S
C984 H971 0.960 . S
C984 C983 1.524 . S
C985 C982 1.403 . S
C985 C986 1.392 . S
C985 C989 1.495 . S
C986 C985 1.392 . S
C986 C987 1.385 . S
C986 C988 1.478 . S
C987 H981 0.930 . S
C987 C983 1.400 . S
C987 C986 1.385 . S
C988 C986 1.478 . S
C988 C990 1.381 . S
C988 C994 1.383 . S
C989 C985 1.495 . S
C989 H995 0.959 . S
C989 H996 0.961 . S
C989 H997 0.960 . S
C990 C988 1.381 . S
C990 C991 1.394 . S
C990 H998 0.930 . S
C991 C990 1.394 . S
C991 C992 1.383 . S
C991 H999 0.929 . S
C992 C991 1.383 . S
C992 C993 1.377 . S
C993 H977 0.930 . S
C993 C992 1.377 . S
C993 C994 1.379 . S
C994 H978 0.931 . S
C994 C988 1.383 . S
C994 C993 1.379 . S
H995 C989 0.959 . S
H996 C989 0.961 . S
H997 C989 0.960 . S
H998 C990 0.930 . S
H999 C991 0.929 . S
H1000 C1008 0.929 . S
H1001 C1010 0.930 . S
H1002 C1012 0.930 . S
H1003 C1015 0.929 . S
H1004 C1018 0.930 . S
H1005 C1020 0.960 . S
H1006 C1020 0.960 . S
H1007 C1020 0.960 . S
C1008 H1000 0.929 . S
C1008 C1009 1.377 . S
C1008 C1010 1.384 . S
C1009 C1008 1.377 . S
C1009 C1015 1.390 . S
C1010 H1001 0.930 . S
C1010 C1008 1.384 . S
C1010 C1011 1.372 . S
C1011 C1010 1.372 . S
C1011 C1012 1.400 . S
C1011 C1016 1.490 . S
C1012 H1002 0.930 . S
C1012 C1011 1.400 . S
C1012 C1015 1.386 . S
H1013 C1029 0.930 . S
H1014 C1030 0.931 . S
C1015 H1003 0.929 . S
C1015 C1009 1.390 . S
C1015 C1012 1.386 . S
C1016 C1011 1.490 . S
C1016 C1018 1.395 . S
C1016 C1019 1.403 . S
H1017 C1023 0.930 . S
C1018 H1004 0.930 . S
C1018 C1016 1.395 . S
C1018 C1021 1.403 . S
C1019 C1016 1.403 . S
C1019 C1020 1.524 . S
C1019 C1023 1.400 . S
C1020 H1005 0.960 . S
C1020 H1006 0.960 . S
C1020 H1007 0.960 . S
C1020 C1019 1.524 . S
C1021 C1018 1.403 . S
C1021 C1022 1.392 . S
C1021 C1025 1.495 . S
C1022 C1021 1.392 . S
C1022 C1023 1.385 . S
C1022 C1024 1.478 . S
C1023 H1017 0.930 . S
C1023 C1019 1.400 . S
C1023 C1022 1.385 . S
C1024 C1022 1.478 . S
C1024 C1026 1.381 . S
C1024 C1030 1.383 . S
C1025 C1021 1.495 . S
C1025 H1031 0.959 . S
C1025 H1032 0.961 . S
C1025 H1033 0.960 . S
C1026 C1024 1.381 . S
C1026 C1027 1.394 . S
C1026 H1034 0.930 . S
C1027 C1026 1.394 . S
C1027 C1028 1.383 . S
C1027 H1035 0.929 . S
C1028 C1027 1.383 . S
C1028 C1029 1.377 . S
C1029 H1013 0.930 . S
C1029 C1028 1.377 . S
C1029 C1030 1.379 . S
C1030 H1014 0.931 . S
C1030 C1024 1.383 . S
C1030 C1029 1.379 . S
H1031 C1025 0.959 . S
H1032 C1025 0.961 . S
H1033 C1025 0.960 . S
H1034 C1026 0.930 . S
H1035 C1027 0.929 . S
H1036 C1044 0.929 . S
H1037 C1046 0.930 . S
H1038 C1048 0.930 . S
H1039 C1051 0.929 . S
H1040 C1054 0.930 . S
H1041 C1056 0.960 . S
H1042 C1056 0.960 . S
H1043 C1056 0.960 . S
C1044 H1036 0.929 . S
C1044 C1045 1.377 . S
C1044 C1046 1.384 . S
C1045 C1044 1.377 . S
C1045 C1051 1.390 . S
C1046 H1037 0.930 . S
C1046 C1044 1.384 . S
C1046 C1047 1.372 . S
C1047 C1046 1.372 . S
C1047 C1048 1.400 . S
C1047 C1052 1.490 . S
C1048 H1038 0.930 . S
C1048 C1047 1.400 . S
C1048 C1051 1.386 . S
H1049 C1065 0.930 . S
H1050 C1066 0.931 . S
C1051 H1039 0.929 . S
C1051 C1045 1.390 . S
C1051 C1048 1.386 . S
C1052 C1047 1.490 . S
C1052 C1054 1.395 . S
C1052 C1055 1.403 . S
H1053 C1059 0.930 . S
C1054 H1040 0.930 . S
C1054 C1052 1.395 . S
C1054 C1057 1.403 . S
C1055 C1052 1.403 . S
C1055 C1056 1.524 . S
C1055 C1059 1.400 . S
C1056 H1041 0.960 . S
C1056 H1042 0.960 . S
C1056 H1043 0.960 . S
C1056 C1055 1.524 . S
C1057 C1054 1.403 . S
C1057 C1058 1.392 . S
C1057 C1061 1.495 . S
C1058 C1057 1.392 . S
C1058 C1059 1.385 . S
C1058 C1060 1.478 . S
C1059 H1053 0.930 . S
C1059 C1055 1.400 . S
C1059 C1058 1.385 . S
C1060 C1058 1.478 . S
C1060 C1062 1.381 . S
C1060 C1066 1.383 . S
C1061 C1057 1.495 . S
C1061 H1067 0.959 . S
C1061 H1068 0.961 . S
C1061 H1069 0.960 . S
C1062 C1060 1.381 . S
C1062 C1063 1.394 . S
C1062 H1070 0.930 . S
C1063 C1062 1.394 . S
C1063 C1064 1.383 . S
C1063 H1071 0.929 . S
C1064 C1063 1.383 . S
C1064 C1065 1.377 . S
C1065 H1049 0.930 . S
C1065 C1064 1.377 . S
C1065 C1066 1.379 . S
C1066 H1050 0.931 . S
C1066 C1060 1.383 . S
C1066 C1065 1.379 . S
H1067 C1061 0.959 . S
H1068 C1061 0.961 . S
H1069 C1061 0.960 . S
H1070 C1062 0.930 . S
H1071 C1063 0.929 . S
H1072 C1080 0.929 . S
H1073 C1082 0.930 . S
H1074 C1084 0.930 1_455 S
H1075 C1087 0.929 . S
H1076 C1090 0.930 . S
H1077 C1092 0.960 . S
H1078 C1092 0.960 . S
H1079 C1092 0.960 . S
C1080 H1072 0.929 . S
C1080 C1081 1.377 . S
C1080 C1082 1.384 . S
C1081 C1080 1.377 . S
C1081 C1087 1.390 . S
C1082 H1073 0.930 . S
C1082 C1080 1.384 . S
C1082 C1083 1.372 . S
C1083 C1082 1.372 . S
C1083 C1084 1.400 . S
C1083 C1088 1.490 . S
C1084 H1074 0.930 1_655 S
C1084 C1083 1.400 . S
C1084 C1087 1.386 . S
H1085 C1101 0.930 . S
H1086 C1102 0.931 . S
C1087 H1075 0.929 . S
C1087 C1081 1.390 . S
C1087 C1084 1.386 . S
C1088 C1083 1.490 . S
C1088 C1090 1.395 . S
C1088 C1091 1.403 1_655 S
H1089 C1095 0.930 . S
C1090 H1076 0.930 . S
C1090 C1088 1.395 . S
C1090 C1093 1.403 1_565 S
C1091 C1088 1.403 1_455 S
C1091 C1092 1.524 . S
C1091 C1095 1.400 1_565 S
C1092 H1077 0.960 . S
C1092 H1078 0.960 . S
C1092 H1079 0.960 . S
C1092 C1091 1.524 . S
C1093 C1090 1.403 1_545 S
C1093 C1094 1.392 1_655 S
C1093 C1097 1.495 . S
C1094 C1093 1.392 1_455 S
C1094 C1095 1.385 . S
C1094 C1096 1.478 . S
C1095 H1089 0.930 . S
C1095 C1091 1.400 1_545 S
C1095 C1094 1.385 . S
C1096 C1094 1.478 . S
C1096 C1098 1.381 . S
C1096 C1102 1.383 . S
C1097 C1093 1.495 . S
C1097 H1103 0.959 . S
C1097 H1104 0.961 . S
C1097 H1105 0.960 . S
C1098 C1096 1.381 . S
C1098 C1099 1.394 . S
C1098 H1106 0.930 1_455 S
C1099 C1098 1.394 . S
C1099 C1100 1.383 . S
C1099 H1107 0.929 . S
C1100 C1099 1.383 . S
C1100 C1101 1.377 . S
C1101 H1085 0.930 . S
C1101 C1100 1.377 . S
C1101 C1102 1.379 . S
C1102 H1086 0.931 . S
C1102 C1096 1.383 . S
C1102 C1101 1.379 . S
H1103 C1097 0.959 . S
H1104 C1097 0.961 . S
H1105 C1097 0.960 . S
H1106 C1098 0.930 1_655 S
H1107 C1099 0.929 . S
H1108 C1116 0.929 . S
H1109 C1118 0.930 . S
H1110 C1120 0.930 . S
H1111 C1123 0.929 . S
H1112 C1126 0.930 . S
H1113 C1128 0.960 . S
H1114 C1128 0.960 . S
H1115 C1128 0.960 . S
C1116 H1108 0.929 . S
C1116 C1117 1.377 . S
C1116 C1118 1.384 . S
C1117 C1116 1.377 . S
C1117 C1123 1.390 . S
C1118 H1109 0.930 . S
C1118 C1116 1.384 . S
C1118 C1119 1.372 . S
C1119 C1118 1.372 . S
C1119 C1120 1.400 . S
C1119 C1124 1.490 . S
C1120 H1110 0.930 . S
C1120 C1119 1.400 . S
C1120 C1123 1.386 . S
H1121 C1137 0.930 . S
H1122 C1138 0.931 . S
C1123 H1111 0.929 . S
C1123 C1117 1.390 . S
C1123 C1120 1.386 . S
C1124 C1119 1.490 . S
C1124 C1126 1.395 . S
C1124 C1127 1.403 1_545 S
H1125 C1131 0.930 . S
C1126 H1112 0.930 . S
C1126 C1124 1.395 . S
C1126 C1129 1.403 1_655 S
C1127 C1124 1.403 1_565 S
C1127 C1128 1.524 . S
C1127 C1131 1.400 1_655 S
C1128 H1113 0.960 . S
C1128 H1114 0.960 . S
C1128 H1115 0.960 . S
C1128 C1127 1.524 . S
C1129 C1126 1.403 1_455 S
C1129 C1130 1.392 1_545 S
C1129 C1133 1.495 . S
C1130 C1129 1.392 1_565 S
C1130 C1131 1.385 . S
C1130 C1132 1.478 . S
C1131 H1125 0.930 . S
C1131 C1127 1.400 1_455 S
C1131 C1130 1.385 . S
C1132 C1130 1.478 . S
C1132 C1134 1.381 . S
C1132 C1138 1.383 . S
C1133 C1129 1.495 . S
C1133 H1139 0.959 . S
C1133 H1140 0.961 . S
C1133 H1141 0.960 . S
C1134 C1132 1.381 . S
C1134 C1135 1.394 . S
C1134 H1142 0.930 . S
C1135 C1134 1.394 . S
C1135 C1136 1.383 . S
C1135 H1143 0.929 . S
C1136 C1135 1.383 . S
C1136 C1137 1.377 . S
C1137 H1121 0.930 . S
C1137 C1136 1.377 . S
C1137 C1138 1.379 . S
C1138 H1122 0.931 . S
C1138 C1132 1.383 . S
C1138 C1137 1.379 . S
H1139 C1133 0.959 . S
H1140 C1133 0.961 . S
H1141 C1133 0.960 . S
H1142 C1134 0.930 . S
H1143 C1135 0.929 . S
H1144 C1152 0.929 . S
H1145 C1154 0.930 1_655 S
H1146 C1156 0.930 . S
H1147 C1159 0.929 . S
H1148 C1162 0.930 . S
H1149 C1164 0.960 . S
H1150 C1164 0.960 . S
H1151 C1164 0.960 . S
C1152 H1144 0.929 . S
C1152 C1153 1.377 . S
C1152 C1154 1.384 . S
C1153 C1152 1.377 . S
C1153 C1159 1.390 . S
C1154 H1145 0.930 1_455 S
C1154 C1152 1.384 . S
C1154 C1155 1.372 . S
C1155 C1154 1.372 . S
C1155 C1156 1.400 . S
C1155 C1160 1.490 . S
C1156 H1146 0.930 . S
C1156 C1155 1.400 . S
C1156 C1159 1.386 . S
H1157 C1173 0.930 . S
H1158 C1174 0.931 1_455 S
C1159 H1147 0.929 . S
C1159 C1153 1.390 . S
C1159 C1156 1.386 . S
C1160 C1155 1.490 . S
C1160 C1162 1.395 1_455 S
C1160 C1163 1.403 . S
H1161 C1167 0.932 . S
C1162 H1148 0.930 . S
C1162 C1160 1.395 1_655 S
C1162 C1165 1.403 . S
C1163 C1160 1.403 . S
C1163 C1164 1.524 . S
C1163 C1167 1.407 . S
C1164 H1149 0.960 . S
C1164 H1150 0.960 . S
C1164 H1151 0.960 . S
C1164 C1163 1.524 . S
C1165 C1162 1.403 . S
C1165 C1166 1.392 . S
C1165 C1169 1.495 . S
C1166 C1165 1.392 . S
C1166 C1167 1.377 1_655 S
C1166 C1168 1.478 . S
C1167 H1161 0.932 . S
C1167 C1163 1.407 . S
C1167 C1166 1.377 1_455 S
C1168 C1166 1.478 . S
C1168 C1170 1.381 . S
C1168 C1174 1.383 . S
C1169 C1165 1.495 . S
C1169 H1175 0.959 . S
C1169 H1176 0.961 . S
C1169 H1177 0.960 . S
C1170 C1168 1.381 . S
C1170 C1171 1.394 . S
C1170 H1178 0.930 . S
C1171 C1170 1.394 . S
C1171 C1172 1.383 . S
C1171 H1179 0.929 . S
C1172 C1171 1.383 . S
C1172 C1173 1.377 . S
C1173 H1157 0.930 . S
C1173 C1172 1.377 . S
C1173 C1174 1.379 . S
C1174 H1158 0.931 1_655 S
C1174 C1168 1.383 . S
C1174 C1173 1.379 . S
H1175 C1169 0.959 . S
H1176 C1169 0.961 . S
H1177 C1169 0.960 . S
H1178 C1170 0.930 . S
H1179 C1171 0.929 . S
H1180 C1188 0.929 . S
H1181 C1190 0.930 . S
H1182 C1192 0.930 . S
H1183 C1195 0.929 . S
H1184 C1198 0.930 . S
H1185 C1200 0.960 . S
H1186 C1200 0.960 . S
H1187 C1200 0.960 . S
C1188 H1180 0.929 . S
C1188 C1189 1.377 . S
C1188 C1190 1.384 . S
C1189 C1188 1.377 . S
C1189 C1195 1.390 . S
C1190 H1181 0.930 . S
C1190 C1188 1.384 . S
C1190 C1191 1.372 . S
C1191 C1190 1.372 . S
C1191 C1192 1.400 . S
C1191 C1196 1.490 . S
C1192 H1182 0.930 . S
C1192 C1191 1.400 . S
C1192 C1195 1.386 . S
H1193 C1209 0.930 . S
H1194 C1210 0.931 . S
C1195 H1183 0.929 . S
C1195 C1189 1.390 . S
C1195 C1192 1.386 . S
C1196 C1191 1.490 . S
C1196 C1198 1.395 1_565 S
C1196 C1199 1.403 . S
H1197 C1203 0.930 . S
C1198 H1184 0.930 . S
C1198 C1196 1.395 1_545 S
C1198 C1201 1.403 . S
C1199 C1196 1.403 . S
C1199 C1200 1.524 . S
C1199 C1203 1.400 . S
C1200 H1185 0.960 . S
C1200 H1186 0.960 . S
C1200 H1187 0.960 . S
C1200 C1199 1.524 . S
C1201 C1198 1.403 . S
C1201 C1202 1.392 . S
C1201 C1205 1.495 . S
C1202 C1201 1.392 . S
C1202 C1203 1.385 1_545 S
C1202 C1204 1.478 . S
C1203 H1197 0.930 . S
C1203 C1199 1.400 . S
C1203 C1202 1.385 1_565 S
C1204 C1202 1.478 . S
C1204 C1206 1.381 . S
C1204 C1210 1.383 . S
C1205 C1201 1.495 . S
C1205 H1211 0.959 . S
C1205 H1212 0.961 . S
C1205 H1213 0.960 . S
C1206 C1204 1.381 . S
C1206 C1207 1.394 . S
C1206 H1214 0.930 . S
C1207 C1206 1.394 . S
C1207 C1208 1.383 . S
C1207 H1215 0.929 . S
C1208 C1207 1.383 . S
C1208 C1209 1.377 . S
C1209 H1193 0.930 . S
C1209 C1208 1.377 . S
C1209 C1210 1.379 . S
C1210 H1194 0.931 . S
C1210 C1204 1.383 . S
C1210 C1209 1.379 . S
H1211 C1205 0.959 . S
H1212 C1205 0.961 . S
H1213 C1205 0.960 . S
H1214 C1206 0.930 . S
H1215 C1207 0.929 . S
H1216 C1224 0.929 . S
H1217 C1226 0.930 . S
H1218 C1228 0.930 . S
H1219 C1231 0.929 . S
H1220 C1234 0.930 . S
H1221 C1236 0.960 . S
H1222 C1236 0.960 . S
H1223 C1236 0.960 . S
C1224 H1216 0.929 . S
C1224 C1225 1.377 . S
C1224 C1226 1.384 . S
C1225 C1224 1.377 . S
C1225 C1231 1.390 . S
C1226 H1217 0.930 . S
C1226 C1224 1.384 . S
C1226 C1227 1.372 . S
C1227 C1226 1.372 . S
C1227 C1228 1.400 . S
C1227 C1232 1.490 . S
C1228 H1218 0.930 . S
C1228 C1227 1.400 . S
C1228 C1231 1.386 . S
H1229 C1245 0.930 . S
H1230 C1246 0.931 . S
C1231 H1219 0.929 . S
C1231 C1225 1.390 . S
C1231 C1228 1.386 . S
C1232 C1227 1.490 . S
C1232 C1234 1.395 . S
C1232 C1235 1.403 . S
H1233 C1239 0.930 . S
C1234 H1220 0.930 . S
C1234 C1232 1.395 . S
C1234 C1237 1.403 . S
C1235 C1232 1.403 . S
C1235 C1236 1.524 . S
C1235 C1239 1.400 . S
C1236 H1221 0.960 . S
C1236 H1222 0.960 . S
C1236 H1223 0.960 . S
C1236 C1235 1.524 . S
C1237 C1234 1.403 . S
C1237 C1238 1.392 . S
C1237 C1241 1.495 . S
C1238 C1237 1.392 . S
C1238 C1239 1.385 . S
C1238 C1240 1.478 . S
C1239 H1233 0.930 . S
C1239 C1235 1.400 . S
C1239 C1238 1.385 . S
C1240 C1238 1.478 . S
C1240 C1242 1.381 . S
C1240 C1246 1.383 . S
C1241 C1237 1.495 . S
C1241 H1247 0.959 . S
C1241 H1248 0.961 . S
C1241 H1249 0.960 . S
C1242 C1240 1.381 . S
C1242 C1243 1.394 . S
C1242 H1250 0.930 . S
C1243 C1242 1.394 . S
C1243 C1244 1.383 . S
C1243 H1251 0.929 . S
C1244 C1243 1.383 . S
C1244 C1245 1.377 . S
C1245 H1229 0.930 . S
C1245 C1244 1.377 . S
C1245 C1246 1.379 . S
C1246 H1230 0.931 . S
C1246 C1240 1.383 . S
C1246 C1245 1.379 . S
H1247 C1241 0.959 . S
H1248 C1241 0.961 . S
H1249 C1241 0.960 . S
H1250 C1242 0.930 . S
H1251 C1243 0.929 . S
H1252 C1260 0.929 . S
H1253 C1262 0.930 . S
H1254 C1264 0.930 . S
H1255 C1267 0.929 . S
H1256 C1270 0.930 . S
H1257 C1272 0.960 . S
H1258 C1272 0.960 . S
H1259 C1272 0.960 . S
C1260 H1252 0.929 . S
C1260 C1261 1.377 . S
C1260 C1262 1.384 . S
C1261 C1260 1.377 . S
C1261 C1267 1.390 . S
C1262 H1253 0.930 . S
C1262 C1260 1.384 . S
C1262 C1263 1.372 . S
C1263 C1262 1.372 . S
C1263 C1264 1.400 . S
C1263 C1268 1.490 . S
C1264 H1254 0.930 . S
C1264 C1263 1.400 . S
C1264 C1267 1.386 . S
H1265 C1281 0.930 . S
H1266 C1282 0.931 . S
C1267 H1255 0.929 . S
C1267 C1261 1.390 . S
C1267 C1264 1.386 . S
C1268 C1263 1.490 . S
C1268 C1270 1.395 . S
C1268 C1271 1.403 . S
H1269 C1275 0.930 . S
C1270 H1256 0.930 . S
C1270 C1268 1.395 . S
C1270 C1273 1.403 . S
C1271 C1268 1.403 . S
C1271 C1272 1.524 . S
C1271 C1275 1.400 . S
C1272 H1257 0.960 . S
C1272 H1258 0.960 . S
C1272 H1259 0.960 . S
C1272 C1271 1.524 . S
C1273 C1270 1.403 . S
C1273 C1274 1.392 . S
C1273 C1277 1.495 . S
C1274 C1273 1.392 . S
C1274 C1275 1.385 . S
C1274 C1276 1.478 . S
C1275 H1269 0.930 . S
C1275 C1271 1.400 . S
C1275 C1274 1.385 . S
C1276 C1274 1.478 . S
C1276 C1278 1.381 . S
C1276 C1282 1.383 . S
C1277 C1273 1.495 . S
C1277 H1283 0.959 . S
C1277 H1284 0.961 . S
C1277 H1285 0.960 . S
C1278 C1276 1.381 . S
C1278 C1279 1.394 . S
C1278 H1286 0.930 . S
C1279 C1278 1.394 . S
C1279 C1280 1.383 . S
C1279 H1287 0.929 . S
C1280 C1279 1.383 . S
C1280 C1281 1.377 . S
C1281 H1265 0.930 . S
C1281 C1280 1.377 . S
C1281 C1282 1.379 . S
C1282 H1266 0.931 . S
C1282 C1276 1.383 . S
C1282 C1281 1.379 . S
H1283 C1277 0.959 . S
H1284 C1277 0.961 . S
H1285 C1277 0.960 . S
H1286 C1278 0.930 . S
H1287 C1279 0.929 . S
H1288 C1296 0.929 . S
H1289 C1298 0.930 . S
H1290 C1300 0.930 . S
H1291 C1303 0.929 . S
H1292 C1306 0.930 . S
H1293 C1308 0.960 . S
H1294 C1308 0.960 . S
H1295 C1308 0.960 . S
C1296 H1288 0.929 . S
C1296 C1297 1.377 . S
C1296 C1298 1.384 . S
C1297 C1296 1.377 . S
C1297 C1303 1.390 . S
C1298 H1289 0.930 . S
C1298 C1296 1.384 . S
C1298 C1299 1.372 . S
C1299 C1298 1.372 . S
C1299 C1300 1.400 . S
C1299 C1304 1.490 . S
C1300 H1290 0.930 . S
C1300 C1299 1.400 . S
C1300 C1303 1.386 . S
H1301 C1317 0.930 . S
H1302 C1318 0.931 . S
C1303 H1291 0.929 . S
C1303 C1297 1.390 . S
C1303 C1300 1.386 . S
C1304 C1299 1.490 . S
C1304 C1306 1.395 . S
C1304 C1307 1.403 . S
H1305 C1311 0.930 . S
C1306 H1292 0.930 . S
C1306 C1304 1.395 . S
C1306 C1309 1.403 1_545 S
C1307 C1304 1.403 . S
C1307 C1308 1.524 . S
C1307 C1311 1.400 1_545 S
C1308 H1293 0.960 . S
C1308 H1294 0.960 . S
C1308 H1295 0.960 . S
C1308 C1307 1.524 . S
C1309 C1306 1.403 1_565 S
C1309 C1310 1.392 . S
C1309 C1313 1.495 . S
C1310 C1309 1.392 . S
C1310 C1311 1.385 . S
C1310 C1312 1.478 . S
C1311 H1305 0.930 . S
C1311 C1307 1.400 1_565 S
C1311 C1310 1.385 . S
C1312 C1310 1.478 . S
C1312 C1314 1.381 . S
C1312 C1318 1.383 . S
C1313 C1309 1.495 . S
C1313 H1319 0.959 . S
C1313 H1320 0.961 . S
C1313 H1321 0.960 . S
C1314 C1312 1.381 . S
C1314 C1315 1.394 . S
C1314 H1322 0.930 . S
C1315 C1314 1.394 . S
C1315 C1316 1.383 . S
C1315 H1323 0.929 . S
C1316 C1315 1.383 . S
C1316 C1317 1.377 . S
C1317 H1301 0.930 . S
C1317 C1316 1.377 . S
C1317 C1318 1.379 . S
C1318 H1302 0.931 . S
C1318 C1312 1.383 . S
C1318 C1317 1.379 . S
H1319 C1313 0.959 . S
H1320 C1313 0.961 . S
H1321 C1313 0.960 . S
H1322 C1314 0.930 . S
H1323 C1315 0.929 . S
H1324 C1332 0.929 . S
H1325 C1334 0.930 . S
H1326 C1336 0.930 . S
H1327 C1339 0.929 . S
H1328 C1342 0.930 . S
H1329 C1344 0.960 . S
H1330 C1344 0.960 . S
H1331 C1344 0.960 . S
C1332 H1324 0.929 . S
C1332 C1333 1.377 . S
C1332 C1334 1.384 . S
C1333 C1332 1.377 . S
C1333 C1339 1.390 . S
C1334 H1325 0.930 . S
C1334 C1332 1.384 . S
C1334 C1335 1.372 . S
C1335 C1334 1.372 . S
C1335 C1336 1.400 . S
C1335 C1340 1.490 . S
C1336 H1326 0.930 . S
C1336 C1335 1.400 . S
C1336 C1339 1.386 . S
H1337 C1353 0.930 . S
H1338 C1354 0.931 . S
C1339 H1327 0.929 . S
C1339 C1333 1.390 . S
C1339 C1336 1.386 . S
C1340 C1335 1.490 . S
C1340 C1342 1.395 . S
C1340 C1343 1.403 . S
H1341 C1347 0.930 . S
C1342 H1328 0.930 . S
C1342 C1340 1.395 . S
C1342 C1345 1.403 1_655 S
C1343 C1340 1.403 . S
C1343 C1344 1.524 . S
C1343 C1347 1.400 1_655 S
C1344 H1329 0.960 . S
C1344 H1330 0.960 . S
C1344 H1331 0.960 . S
C1344 C1343 1.524 . S
C1345 C1342 1.403 1_455 S
C1345 C1346 1.392 . S
C1345 C1349 1.495 . S
C1346 C1345 1.392 . S
C1346 C1347 1.385 . S
C1346 C1348 1.478 . S
C1347 H1341 0.930 . S
C1347 C1343 1.400 1_455 S
C1347 C1346 1.385 . S
C1348 C1346 1.478 . S
C1348 C1350 1.381 . S
C1348 C1354 1.383 . S
C1349 C1345 1.495 . S
C1349 H1355 0.959 . S
C1349 H1356 0.961 . S
C1349 H1357 0.960 . S
C1350 C1348 1.381 . S
C1350 C1351 1.394 . S
C1350 H1358 0.930 . S
C1351 C1350 1.394 . S
C1351 C1352 1.383 . S
C1351 H1359 0.929 . S
C1352 C1351 1.383 . S
C1352 C1353 1.377 . S
C1353 H1337 0.930 . S
C1353 C1352 1.377 . S
C1353 C1354 1.379 . S
C1354 H1338 0.931 . S
C1354 C1348 1.383 . S
C1354 C1353 1.379 . S
H1355 C1349 0.959 . S
H1356 C1349 0.961 . S
H1357 C1349 0.960 . S
H1358 C1350 0.930 . S
H1359 C1351 0.929 . S
C217 C5 1.706 . S
C236 C144 1.704 . S
C253 C105 1.655 . S
C272 C18 1.684 . S
C289 C118 1.704 . S
C308 C31 1.701 . S
C325 C131 1.662 . S
C344 C44 1.656 . S
C361 C66 1.704 . S
C380 C57 1.701 . S
C397 C70 1.672 . S
C416 C79 1.669 . S
C433 C83 1.707 . S
C452 C92 1.698 . S
C469 C96 1.677 . S
C488 C53 1.642 . S
C505 C109 1.706 . S
C524 C40 1.702 . S
C541 C1 1.663 . S
C560 C122 1.656 . S
C577 C14 1.704 . S
C596 C135 1.704 . S
C613 C27 1.659 . S
C632 C148 1.672 . S
C649 C170 1.704 . S
C668 C161 1.700 . S
C685 C174 1.675 . S
C704 C183 1.653 . S
C721 C196 1.704 . S
C740 C187 1.701 . S
C757 C157 1.656 . S
C776 C200 1.683 . S
C793 C185 1.842 . S
C812 C3 1.857 . S
C829 C198 1.925 . S
C848 C16 1.915 . S
C865 C159 1.844 . S
C884 C29 1.852 . S
C901 C42 1.927 . S
C920 C172 1.918 . S
C937 C55 1.848 . S
C956 C133 1.821 . S
C973 C146 1.925 . S
C992 C68 1.921 . S
C1009 C81 1.847 . S
C1028 C107 1.837 . S
C1045 C94 1.925 . S
C1064 C120 1.922 . S
C1081 C36 1.601 . S
C1100 C10 1.599 . S
C1117 C49 1.579 . S
C1136 C23 1.575 . S
C1153 C62 1.601 . S
C1172 C88 1.595 . S
C1189 C75 1.572 . S
C1208 C101 1.562 . S
C1225 C140 1.601 . S
C1244 C114 1.596 . S
C1261 C127 1.579 . S
C1280 C153 1.578 . S
C1297 C192 1.600 . S
C1316 C166 1.592 . S
C1333 C179 1.579 . S
C1352 C205 1.568 . S
