# Generated by pormake.
# Topology snk, (6)-cn, num edge types: 1
# Building blocks:
#     Node 0, Type 0, BuildingBlock: PAMTUU_clean_sbu_0, # of connection points: 6
#     Node 1, Type 0, BuildingBlock: PAMTUU_clean_sbu_0, # of connection points: 6
#     Node 2, Type 0, BuildingBlock: PAMTUU_clean_sbu_0, # of connection points: 6
#     Node 3, Type 0, BuildingBlock: PAMTUU_clean_sbu_0, # of connection points: 6
#     Node 4, Type 0, BuildingBlock: PAMTUU_clean_sbu_0, # of connection points: 6
#     Node 5, Type 0, BuildingBlock: PAMTUU_clean_sbu_0, # of connection points: 6
#     Node 6, Type 0, BuildingBlock: PAMTUU_clean_sbu_0, # of connection points: 6
#     Node 7, Type 0, BuildingBlock: PAMTUU_clean_sbu_0, # of connection points: 6
#     Edge 8, Type (0, 0), BuildingBlock: XUDNAN_clean_linker_2, # of connection points: 2
#     Edge 9, Type (0, 0), BuildingBlock: XUDNAN_clean_linker_2, # of connection points: 2
#     Edge 10, Type (0, 0), BuildingBlock: XUDNAN_clean_linker_2, # of connection points: 2
#     Edge 11, Type (0, 0), BuildingBlock: XUDNAN_clean_linker_2, # of connection points: 2
#     Edge 12, Type (0, 0), BuildingBlock: XUDNAN_clean_linker_2, # of connection points: 2
#     Edge 13, Type (0, 0), BuildingBlock: XUDNAN_clean_linker_2, # of connection points: 2
#     Edge 14, Type (0, 0), BuildingBlock: XUDNAN_clean_linker_2, # of connection points: 2
#     Edge 15, Type (0, 0), BuildingBlock: XUDNAN_clean_linker_2, # of connection points: 2
#     Edge 16, Type (0, 0), BuildingBlock: XUDNAN_clean_linker_2, # of connection points: 2
#     Edge 17, Type (0, 0), BuildingBlock: XUDNAN_clean_linker_2, # of connection points: 2
#     Edge 18, Type (0, 0), BuildingBlock: XUDNAN_clean_linker_2, # of connection points: 2
#     Edge 19, Type (0, 0), BuildingBlock: XUDNAN_clean_linker_2, # of connection points: 2
#     Edge 20, Type (0, 0), BuildingBlock: XUDNAN_clean_linker_2, # of connection points: 2
#     Edge 21, Type (0, 0), BuildingBlock: XUDNAN_clean_linker_2, # of connection points: 2
#     Edge 22, Type (0, 0), BuildingBlock: XUDNAN_clean_linker_2, # of connection points: 2
#     Edge 23, Type (0, 0), BuildingBlock: XUDNAN_clean_linker_2, # of connection points: 2
#     Edge 24, Type (0, 0), BuildingBlock: XUDNAN_clean_linker_2, # of connection points: 2
#     Edge 25, Type (0, 0), BuildingBlock: XUDNAN_clean_linker_2, # of connection points: 2
#     Edge 26, Type (0, 0), BuildingBlock: XUDNAN_clean_linker_2, # of connection points: 2
#     Edge 27, Type (0, 0), BuildingBlock: XUDNAN_clean_linker_2, # of connection points: 2
#     Edge 28, Type (0, 0), BuildingBlock: XUDNAN_clean_linker_2, # of connection points: 2
#     Edge 29, Type (0, 0), BuildingBlock: XUDNAN_clean_linker_2, # of connection points: 2
#     Edge 30, Type (0, 0), BuildingBlock: XUDNAN_clean_linker_2, # of connection points: 2
#     Edge 31, Type (0, 0), BuildingBlock: XUDNAN_clean_linker_2, # of connection points: 2
# Relax obj value: 0.080
# Max RMSD: 0.125
# Mean RMSD: 0.125
data_MOF--net-snk--node1-PAMTUU_clean_sbu_0--edge1-XUDNAN_clean_linker_2
_symmetry_space_group_name_H-M    P1
_symmetry_Int_Tables_number       1
_symmetry_cell_setting            triclinic
loop_
_symmetry_equiv_pos_as_xyz
'x, y, z'
_cell_length_a     38.602545
_cell_length_b     38.482714
_cell_length_c     25.282617
_cell_angle_alpha  90.11657
_cell_angle_beta   89.861392
_cell_angle_gamma 89.899639
loop_
_atom_site_label
_atom_site_type_symbol
_atom_site_fract_x
_atom_site_fract_y
_atom_site_fract_z
_atom_type_partial_charge
Tb0 Tb 0.9877 0.0187 0.59471 0.0
Tb1 Tb 0.98491 0.97527 0.4808 0.0
C2 C 0.95251 0.04853 0.49314 0.0
C3 C 0.99407 0.04418 0.7388 0.0
C4 C 0.00333 0.03269 0.84837 0.0
C5 C 0.00381 0.06655 0.82744 0.0
C6 C -0.00075 0.07218 0.77332 0.0
C7 C 0.9931 0.01027 0.75924 0.0
C8 C -0.00244 0.00458 0.81368 0.0
C9 C 0.99044 0.05126 0.68178 0.0
O10 O 0.95428 0.97435 0.60826 0.0
O11 O 0.93641 0.96612 0.52262 0.0
O12 O 0.00114 0.93775 0.53915 0.0
O13 O 0.02416 0.97543 0.60069 0.0
O14 O 0.95579 0.96137 0.41404 0.0
O15 O 0.00872 0.94439 0.42221 0.0
O16 O 0.03566 -0.00092 0.48749 0.0
O17 O 0.02118 0.04602 0.53907 0.0
O18 O 0.94899 0.04378 0.54437 0.0
O19 O 0.97268 0.02875 0.46428 0.0
C20 C 0.93252 0.96129 0.57377 0.0
O21 O 0.01735 0.04443 0.65229 0.0
O22 O 0.96169 0.04143 0.65931 0.0
C23 C 0.02122 0.94413 0.57991 0.0
C24 C 0.98903 0.95756 0.33609 0.0
C25 C 0.00079 0.97886 0.23045 0.0
C26 C 0.99299 0.94398 0.24221 0.0
C27 C 0.98717 0.93347 0.29452 0.0
C28 C -0.00318 0.99236 0.32475 0.0
C29 C 0.0026 0.00291 0.27249 0.0
C30 C 0.98203 0.94635 0.39083 0.0
C31 C 0.04162 0.03074 0.50449 0.0
H32 H 0.0076 0.08884 0.853 0.0
H33 H -5e-05 0.09853 0.75833 0.0
H34 H 0.98922 0.98828 0.7331 0.0
H35 H -0.00274 0.97818 0.82844 0.0
H36 H 0.99181 0.92466 0.21107 0.0
H37 H 0.98119 0.90649 0.30252 0.0
H38 H -0.0018 0.01141 0.3563 0.0
H39 H 0.00803 0.03006 0.26501 0.0
Tb40 Tb 0.22457 0.75304 0.83477 0.0
Tb41 Tb 0.26309 0.7463 0.71752 0.0
C42 C 0.19788 0.70184 0.74627 0.0
C43 C 0.20751 0.75044 0.97954 0.0
C44 C 0.2266 0.73493 0.08445 0.0
C45 C 0.19401 0.74959 0.0733 0.0
C46 C 0.18457 0.75724 1.02127 0.0
C47 C 0.24026 0.73627 0.99031 0.0
C48 C 0.24973 0.72855 0.04235 0.0
C49 C 0.19639 0.75672 0.92492 0.0
O50 O 0.2608 0.70972 0.8402 0.0
O51 O 0.29896 0.72697 0.77584 0.0
O52 O 0.27906 0.79488 0.75373 0.0
O53 O 0.27312 0.781 0.84136 0.0
O54 O 0.29167 0.71618 0.66328 0.0
O55 O 0.2799 0.77015 0.64761 0.0
O56 O 0.2125 0.76779 0.70219 0.0
O57 O 0.2015 0.79262 0.78358 0.0
O58 O 0.18998 0.72356 0.7846 0.0
O59 O 0.2284 0.70197 0.72312 0.0
C60 C 0.29145 0.70832 0.81761 0.0
O61 O 0.21043 0.78319 0.90092 0.0
O62 O 0.19546 0.72931 0.89462 0.0
C63 C 0.28719 0.79959 0.80363 0.0
C64 C 0.28488 0.73255 0.57397 0.0
C65 C 0.27173 0.71862 0.46637 0.0
C66 C 0.30452 0.71189 0.48823 0.0
C67 C 0.31101 0.71886 0.5415 0.0
C68 C 0.2518 0.73852 0.55284 0.0
C69 C 0.24532 0.73175 0.49934 0.0
C70 C 0.29324 0.74143 0.62905 0.0
C71 C 0.19498 0.78914 0.7327 0.0
H72 H 0.17543 0.75441 0.10464 0.0
H73 H 0.15911 0.76797 1.01353 0.0
H74 H 0.25829 0.73084 0.95842 0.0
H75 H 0.27517 0.71769 0.04963 0.0
H76 H 0.3255 0.70218 0.46378 0.0
H77 H 0.33669 0.71412 0.55717 0.0
H78 H 0.23118 0.74885 0.57746 0.0
H79 H 0.21971 0.73683 0.48373 0.0
Tb80 Tb 0.5018 0.98595 0.04797 0.0
Tb81 Tb 0.49842 0.03136 0.93545 0.0
C82 C 0.55039 0.96871 0.95143 0.0
C83 C 0.50627 0.96842 0.19251 0.0
C84 C 0.5123 0.99163 0.29862 0.0
C85 C 0.51016 0.95592 0.28677 0.0
C86 C 0.50723 0.94447 0.23424 0.0
C87 C 0.50787 0.00407 0.20404 0.0
C88 C 0.51083 0.01555 0.25648 0.0
C89 C 0.5037 0.9561 0.13723 0.0
O90 O 0.54261 0.02502 0.04945 0.0
O91 O 0.51821 0.06621 0.99543 0.0
O92 O 0.45138 0.04234 0.98045 0.0
O93 O 0.47166 0.03244 0.06422 0.0
O94 O 0.52249 0.06349 0.87894 0.0
O95 O 0.46906 0.04799 0.87042 0.0
O96 O 0.48098 0.97977 0.91708 0.0
O97 O 0.46137 0.96228 0.99871 0.0
O98 O 0.53217 0.95614 0.99112 0.0
O99 O 0.54569 0.00043 0.93326 0.0
C100 C 0.53967 0.05728 0.03317 0.0
O101 O 0.4752 0.96407 0.11247 0.0
O102 O 0.53083 0.96128 0.10745 0.0
C103 C 0.44924 0.04672 0.03199 0.0
C104 C 0.50098 0.05718 0.79157 0.0
C105 C 0.51093 0.04656 0.68157 0.0
C106 C 0.50812 0.08031 0.70279 0.0
C107 C 0.50322 0.08551 0.75706 0.0
C108 C 0.50354 0.02333 0.77089 0.0
C109 C 0.50836 0.01806 0.71631 0.0
C110 C 0.49523 0.06384 0.84852 0.0
C111 C 0.46165 0.95972 0.94667 0.0
H112 H 0.51155 0.93675 0.31799 0.0
H113 H 0.50601 0.91684 0.22617 0.0
H114 H 0.50695 0.02303 0.17243 0.0
H115 H 0.51183 0.04324 0.26399 0.0
H116 H 0.50935 0.10287 0.67732 0.0
H117 H 0.50104 0.11182 0.77211 0.0
H118 H 0.50184 0.00105 0.79691 0.0
H119 H 0.51065 0.99174 0.70145 0.0
Tb120 Tb 0.26447 0.23711 0.33146 0.0
Tb121 Tb 0.21641 0.23376 0.22131 0.0
C122 C 0.28474 0.27798 0.22761 0.0
C123 C 0.2835 0.23395 0.47631 0.0
C124 C 0.26379 0.22373 0.58364 0.0
C125 C 0.29322 0.24358 0.57065 0.0
C126 C 0.30298 0.24853 0.51761 0.0
C127 C 0.25361 0.2149 0.48897 0.0
C128 C 0.24394 0.20977 0.54193 0.0
C129 C 0.29468 0.23859 0.42051 0.0
O130 O 0.21603 0.26472 0.34701 0.0
O131 O 0.20334 0.28153 0.26232 0.0
O132 O 0.18498 0.21087 0.28402 0.0
O133 O 0.23098 0.19197 0.33387 0.0
O134 O 0.19451 0.25941 0.15609 0.0
O135 O 0.18905 0.20406 0.16489 0.0
O136 O 0.25041 0.189 0.22444 0.0
O137 O 0.29632 0.20982 0.27244 0.0
O138 O 0.28413 0.2783 0.27981 0.0
O139 O 0.26551 0.25666 0.19966 0.0
C140 C 0.20093 0.286 0.31367 0.0
O141 O 0.29317 0.21122 0.39007 0.0
O142 O 0.283 0.2661 0.39636 0.0
C143 C 0.19829 0.1902 0.32005 0.0
C144 C 0.19382 0.2257 0.07696 0.0
C145 C 0.20906 0.21674 0.96757 0.0
C146 C 0.17935 0.20169 0.99049 0.0
C147 C 0.17186 0.20615 0.04437 0.0
C148 C 0.2236 0.24078 0.05444 0.0
C149 C 0.23105 0.23648 1.00032 0.0
C150 C 0.18461 0.2306 0.13365 0.0
C151 C 0.28363 0.1894 0.23529 0.0
H152 H 0.30928 0.25453 0.60151 0.0
H153 H 0.32605 0.26347 0.50885 0.0
H154 H 0.23786 0.20371 0.45789 0.0
H155 H 0.2208 0.19484 0.55019 0.0
H156 H 0.16151 0.18673 0.96659 0.0
H157 H 0.14867 0.19441 0.06058 0.0
H158 H 0.24109 0.25594 0.07863 0.0
H159 H 0.25432 0.24816 0.98433 0.0
Tb160 Tb 0.72098 0.24325 0.3406 0.0
Tb161 Tb 0.76086 0.25113 0.22435 0.0
C162 C 0.69427 0.20661 0.23883 0.0
C163 C 0.70164 0.23028 0.48396 0.0
C164 C 0.7216 0.21965 0.59004 0.0
C165 C 0.68766 0.23021 0.57764 0.0
C166 C 0.67782 0.23547 0.52509 0.0
C167 C 0.73548 0.21948 0.49583 0.0
C168 C 0.74536 0.21412 0.54845 0.0
C169 C 0.69111 0.23755 0.42925 0.0
O170 O 0.75734 0.19994 0.33487 0.0
O171 O 0.79589 0.22339 0.2755 0.0
O172 O 0.78234 0.2914 0.27611 0.0
O173 O 0.77052 0.26655 0.35714 0.0
O174 O 0.79174 0.22766 0.16591 0.0
O175 O 0.77439 0.28076 0.1576 0.0
O176 O 0.71224 0.27891 0.21779 0.0
O177 O 0.70563 0.29246 0.30564 0.0
O178 O 0.68557 0.22512 0.28033 0.0
O179 O 0.72586 0.2069 0.21953 0.0
C180 C 0.78813 0.20088 0.31251 0.0
O181 O 0.70209 0.26686 0.40977 0.0
O182 O 0.69431 0.2121 0.39538 0.0
C183 C 0.78767 0.28856 0.32741 0.0
C184 C 0.78344 0.24776 0.07908 0.0
C185 C 0.77181 0.23167 0.97156 0.0
C186 C 0.8052 0.22921 0.99334 0.0
C187 C 0.81091 0.2372 0.04648 0.0
C188 C 0.74999 0.25045 0.05772 0.0
C189 C 0.74425 0.24264 1.00422 0.0
C190 C 0.7906 0.25479 0.13527 0.0
C191 C 0.69868 0.29802 0.25553 0.0
H192 H 0.6686 0.23423 0.60856 0.0
H193 H 0.65161 0.24385 0.51658 0.0
H194 H 0.75431 0.21559 0.46449 0.0
H195 H 0.77179 0.20635 0.55661 0.0
H196 H 0.82706 0.22135 0.96915 0.0
H197 H 0.8369 0.23496 0.06227 0.0
H198 H 0.72835 0.25831 0.08239 0.0
H199 H 0.7182 0.24455 0.98867 0.0
Tb200 Tb 0.76959 0.74854 0.85088 0.0
Tb201 Tb 0.73028 0.72488 0.73797 0.0
C202 C 0.78507 0.78608 0.74192 0.0
C203 C 0.78972 0.76329 0.99511 0.0
C204 C 0.77394 0.76595 0.10471 0.0
C205 C 0.801 0.78605 0.08322 0.0
C206 C 0.80869 0.78477 0.02914 0.0
C207 C 0.76298 0.74278 1.01617 0.0
C208 C 0.75516 0.74407 0.07046 0.0
C209 C 0.79846 0.76286 0.9381 0.0
O210 O 0.71795 0.7707 0.85224 0.0
O211 O 0.70925 0.77515 0.76254 0.0
O212 O 0.69773 0.70295 0.79953 0.0
O213 O 0.73671 0.70433 0.8691 0.0
O214 O 0.69113 0.72837 0.67996 0.0
O215 O 0.7335 0.69254 0.67119 0.0
O216 O 0.76689 0.68546 0.7641 0.0
O217 O 0.8064 0.72219 0.79947 0.0
O218 O 0.78377 0.78855 0.79388 0.0
O219 O 0.77167 0.7599 0.71546 0.0
C220 C 0.70244 0.7849 0.81148 0.0
O221 O 0.80019 0.73252 0.91502 0.0
O222 O 0.78274 0.78572 0.90858 0.0
C223 C 0.70699 0.69488 0.84805 0.0
C224 C 0.71241 0.71799 0.59307 0.0
C225 C 0.72472 0.73761 0.48664 0.0
C226 C 0.69756 0.71473 0.4995 0.0
C227 C 0.69139 0.70515 0.55226 0.0
C228 C 0.73976 0.74045 0.5803 0.0
C229 C 0.74572 0.75035 0.5278 0.0
C230 C 0.7068 0.70662 0.64831 0.0
C231 C 0.79917 0.69355 0.77372 0.0
H232 H 0.81653 0.80268 0.1083 0.0
H233 H 0.82959 0.80063 1.01384 0.0
H234 H 0.74813 0.72588 0.99064 0.0
H235 H 0.73401 0.72841 0.08536 0.0
H236 H 0.68079 0.70461 0.46886 0.0
H237 H 0.67032 0.68753 0.56115 0.0
H238 H 0.75683 0.74993 0.61092 0.0
H239 H 0.76719 0.76757 0.51932 0.0
Tb240 Tb 0.47867 0.52418 0.1105 0.0
Tb241 Tb 0.49458 0.4807 0.99776 0.0
C242 C 0.44754 0.54732 1.00115 0.0
C243 C 0.4703 0.53877 0.25482 0.0
C244 C 0.47688 0.51421 0.36 0.0
C245 C 0.46125 0.5466 0.3495 0.0
C246 C 0.45804 0.55873 0.29742 0.0
C247 C 0.48597 0.50656 0.26496 0.0
C248 C 0.48939 0.4945 0.31689 0.0
C249 C 0.46704 0.55161 0.20001 0.0
O250 O 0.45752 0.47215 0.11865 0.0
O251 O 0.44581 0.46359 0.03133 0.0
O252 O 0.51845 0.45031 0.06042 0.0
O253 O 0.52557 0.49428 0.1213 0.0
O254 O 0.47276 0.4548 0.93299 0.0
O255 O 0.52825 0.45834 0.94103 0.0
O256 O 0.53482 0.51974 1.00391 0.0
O257 O 0.51112 0.55882 0.06388 0.0
O258 O 0.4416 0.54348 0.05215 0.0
O259 O 0.47127 0.52942 0.97569 0.0
C260 C 0.44075 0.45585 0.08116 0.0
O261 O 0.49601 0.55485 0.17394 0.0
O262 O 0.44327 0.53685 0.17111 0.0
C263 C 0.53284 0.46309 0.10337 0.0
C264 C 0.50524 0.45646 0.8536 0.0
C265 C 0.50305 0.46432 0.74222 0.0
C266 C 0.52141 0.43666 0.76552 0.0
C267 C 0.5224 0.43277 0.82051 0.0
C268 C 0.48835 0.48518 0.83086 0.0
C269 C 0.48731 0.48911 0.77565 0.0
C270 C 0.50266 0.44877 0.91079 0.0
C271 C 0.53404 0.55031 1.02733 0.0
H272 H 0.45091 0.56233 0.38141 0.0
H273 H 0.44582 0.58366 0.2904 0.0
H274 H 0.49562 0.49073 0.23263 0.0
H275 H 0.50212 0.46976 0.32318 0.0
H276 H 0.53446 0.41749 0.74115 0.0
H277 H 0.53569 0.41052 0.83715 0.0
H278 H 0.47494 0.50389 0.85565 0.0
H279 H 0.47288 0.51065 0.75916 0.0
Tb280 Tb 0.0006 0.47617 0.57731 0.0
Tb281 Tb -0.005 0.51977 0.46298 0.0
C282 C 0.04839 0.4594 0.47859 0.0
C283 C -0.0032 0.45048 0.72104 0.0
C284 C 0.98423 0.46083 0.83027 0.0
C285 C 0.98792 0.42712 0.80924 0.0
C286 C -0.00587 0.42205 0.75529 0.0
C287 C 0.99333 0.48427 0.74155 0.0
C288 C 0.98722 0.48941 0.79581 0.0
C289 C 0.0033 0.44396 0.66437 0.0
O290 O 0.02097 0.52698 0.59295 0.0
O291 O 0.03658 0.54444 0.50891 0.0
O292 O 0.96865 0.55156 0.52103 0.0
O293 O 0.95443 0.50955 0.58218 0.0
O294 O 0.02001 0.54063 0.39635 0.0
O295 O 0.96454 0.54433 0.40516 0.0
O296 O 0.9541 0.48054 0.46341 0.0
O297 O 0.97927 0.44119 0.5195 0.0
O298 O 0.04641 0.46157 0.53056 0.0
O299 O 0.02546 0.47391 0.4475 0.0
C300 C 0.03804 0.54741 0.56085 0.0
O301 O 0.97628 0.44414 0.63348 0.0
O302 O 0.02956 0.46007 0.6431 0.0
C303 C 0.95113 0.54116 0.56266 0.0
C304 C 0.9866 0.53703 0.31864 0.0
C305 C 0.97866 0.5144 0.21272 0.0
C306 C 0.98196 0.54999 0.22474 0.0
C307 C 0.98587 0.56115 0.27718 0.0
C308 C 0.98349 0.5015 0.30704 0.0
C309 C 0.97957 0.4903 0.25464 0.0
C310 C 0.99091 0.54911 0.37364 0.0
C311 C 0.95666 0.44897 0.48286 0.0
H312 H 0.98635 0.40455 0.83464 0.0
H313 H -0.00311 0.3958 0.74027 0.0
H314 H -0.00477 0.50659 0.71564 0.0
H315 H 0.98426 0.51568 0.81061 0.0
H316 H 0.98095 0.56932 0.19371 0.0
H317 H 0.98822 0.58869 0.28539 0.0
H318 H 0.98417 0.48244 0.33852 0.0
H319 H 0.97762 0.46268 0.24696 0.0
H320 H 0.04258 0.09974 0.47766 0.0
H321 H 0.10378 0.00513 0.47294 0.0
H322 H 0.14979 0.0359 0.42387 0.0
H323 H 0.06349 0.12665 0.34599 0.0
H324 H 0.06493 0.17239 0.36137 0.0
H325 H 0.03758 0.14386 0.3994 0.0
H326 H 0.0676 0.1639 0.48579 0.0
H327 H 0.09477 0.19274 0.44808 0.0
H328 H 0.11407 0.16088 0.49112 0.0
H329 H 0.18897 0.07621 0.3769 0.0
H330 H 0.21953 0.12409 0.33215 0.0
H331 H 0.13183 0.19231 0.36044 0.0
C332 C 0.06601 0.08581 0.46712 0.0
C333 C 0.07006 0.05026 0.47965 0.0
C334 C 0.10046 0.03245 0.46394 0.0
C335 C 0.12664 0.04967 0.43606 0.0
C336 C 0.12169 0.08454 0.42348 0.0
C337 C 0.09217 0.10248 0.43823 0.0
C338 C 0.09292 0.13949 0.41751 0.0
C339 C 0.06295 0.14596 0.37877 0.0
C340 C 0.09231 0.1658 0.46336 0.0
C341 C 0.12763 0.13954 0.3892 0.0
C342 C 0.14375 0.10755 0.39359 0.0
C343 C 0.17656 0.10129 0.3728 0.0
C344 C 0.19366 0.12859 0.34748 0.0
C345 C 0.17778 0.16158 0.34244 0.0
C346 C 0.14414 0.16706 0.36291 0.0
H347 H 0.06723 0.94573 0.66322 0.0
H348 H 0.02183 0.87675 0.54604 0.0
H349 H 0.05851 0.829 0.57778 0.0
H350 H 0.15237 0.91485 0.65205 0.0
H351 H 0.1625 0.91783 0.72147 0.0
H352 H 0.13044 0.94626 0.69327 0.0
H353 H 0.08527 0.92518 0.76196 0.0
H354 H 0.11727 0.89675 0.79061 0.0
H355 H 0.07654 0.87936 0.76813 0.0
H356 H 0.10328 0.79065 0.61463 0.0
H357 H 0.15281 0.76239 0.65813 0.0
H358 H 0.16894 0.85442 0.75447 0.0
C359 C 0.06465 0.92046 0.64474 0.0
C360 C 0.04166 0.91509 0.602 0.0
C361 C 0.03922 0.88164 0.57876 0.0
C362 C 0.0599 0.85424 0.59659 0.0
C363 C 0.08267 0.86055 0.63803 0.0
C364 C 0.08504 0.89265 0.66226 0.0
C365 C 0.11289 0.89261 0.70452 0.0
C366 C 0.14122 0.91948 0.69205 0.0
C367 C 0.09704 0.89884 0.75957 0.0
C368 C 0.12643 0.85577 0.69899 0.0
C369 C 0.1084 0.83781 0.66047 0.0
C370 C 0.11732 0.8042 0.64538 0.0
C371 C 0.14562 0.7885 0.67003 0.0
C372 C 0.16454 0.80631 0.70956 0.0
C373 C 0.15453 0.84017 0.72484 0.0
H374 H 0.30507 0.82582 0.90157 0.0
H375 H 0.33271 0.82909 0.73487 0.0
H376 H 0.38139 0.86781 0.7554 0.0
H377 H 0.32447 0.9161 0.92823 0.0
H378 H 0.34152 0.90802 0.99338 0.0
H379 H 0.30895 0.8797 0.96625 0.0
H380 H 0.34926 0.82679 0.98134 0.0
H381 H 0.38208 0.85498 1.00814 0.0
H382 H 0.39221 0.8268 0.95317 0.0
H383 H 0.42698 0.90451 0.7922 0.0
H384 H 0.46532 0.94262 0.84259 0.0
H385 H 0.40854 0.91866 0.98679 0.0
C386 C 0.32136 0.83476 0.86945 0.0
C387 C 0.31508 0.82439 0.81657 0.0
C388 C 0.33683 0.83678 0.7756 0.0
C389 C 0.36472 0.85863 0.78686 0.0
C390 C 0.37039 0.86809 0.83924 0.0
C391 C 0.34924 0.85701 0.87992 0.0
C392 C 0.36077 0.87229 0.93246 0.0
C393 C 0.33223 0.8954 0.95648 0.0
C394 C 0.37173 0.84349 0.97105 0.0
C395 C 0.39167 0.89368 0.91467 0.0
C396 C 0.39673 0.89042 0.86075 0.0
C397 C 0.42326 0.90748 0.8344 0.0
C398 C 0.44491 0.92915 0.86363 0.0
C399 C 0.43987 0.93394 0.9188 0.0
C400 C 0.41313 0.91549 0.94479 0.0
H401 H 0.44222 0.07064 0.13447 0.0
H402 H 0.39379 0.07411 0.97955 0.0
H403 H 0.34786 0.11192 1.01541 0.0
H404 H 0.36356 0.06837 0.21069 0.0
H405 H 0.37963 0.0959 0.26288 0.0
H406 H 0.40924 0.06926 0.22533 0.0
H407 H 0.44512 0.12376 0.20128 0.0
H408 H 0.41561 0.15064 0.23867 0.0
H409 H 0.42407 0.16018 0.17007 0.0
H410 H 0.30672 0.14738 0.06687 0.0
H411 H 0.27194 0.17997 0.13141 0.0
H412 H 0.34665 0.15618 0.25442 0.0
C413 C 0.42193 0.07932 0.10808 0.0
C414 C 0.42161 0.06929 0.05407 0.0
C415 C 0.39468 0.0814 1.02092 0.0
C416 C 0.36845 0.10291 0.04093 0.0
C417 C 0.36957 0.11231 0.09412 0.0
C418 C 0.39557 0.10109 0.12735 0.0
C419 C 0.39035 0.11518 0.18307 0.0
C420 C 0.38539 0.0854 0.22283 0.0
C421 C 0.42059 0.13885 0.19921 0.0
C422 C 0.35713 0.13585 0.17592 0.0
C423 C 0.34576 0.13361 0.12415 0.0
C424 C 0.31533 0.14939 0.10746 0.0
C425 C 0.29568 0.1677 0.14463 0.0
C426 C 0.30646 0.1704 0.19808 0.0
C427 C 0.33791 0.15465 0.21382 0.0
H428 H 0.9241 0.93291 0.67269 0.0
H429 H 0.8775 0.93728 0.51659 0.0
H430 H 0.83297 0.89547 0.54508 0.0
H431 H 0.9133 0.84299 0.69124 0.0
H432 H 0.90358 0.84572 0.7609 0.0
H433 H 0.93015 0.8784 0.7302 0.0
H434 H 0.88837 0.92647 0.76356 0.0
H435 H 0.86172 0.89394 0.79466 0.0
H436 H 0.84291 0.92378 0.74792 0.0
H437 H 0.79609 0.85083 0.58766 0.0
H438 H 0.76814 0.80617 0.64252 0.0
H439 H 0.83839 0.82964 0.77141 0.0
C440 C 0.90416 0.92557 0.64477 0.0
C441 C 0.90423 0.9385 0.59241 0.0
C442 C 0.87801 0.92778 0.55687 0.0
C443 C 0.85254 0.90409 0.57271 0.0
C444 C 0.85359 0.8914 0.62422 0.0
C445 C 0.87858 0.90181 0.65987 0.0
C446 C 0.87479 0.88276 0.71205 0.0
C447 C 0.90739 0.86119 0.72429 0.0
C448 C 0.86645 0.90826 0.75722 0.0
C449 C 0.84409 0.85963 0.69979 0.0
C450 C 0.83225 0.86524 0.64893 0.0
C451 C 0.80503 0.84626 0.62758 0.0
C452 C 0.78957 0.82068 0.65888 0.0
C453 C 0.8014 0.81412 0.71091 0.0
C454 C 0.82873 0.83423 0.73186 0.0
H455 H 0.88766 0.07528 0.51445 0.0
H456 H 0.97624 0.08464 0.4093 0.0
H457 H 0.94383 0.12572 0.35381 0.0
H458 H 0.82461 0.07458 0.41557 0.0
H459 H 0.79273 0.10009 0.45061 0.0
H460 H 0.82375 0.0746 0.48688 0.0
H461 H 0.84375 0.12947 0.53783 0.0
H462 H 0.81234 0.15503 0.50231 0.0
H463 H 0.85737 0.1673 0.50139 0.0
H464 H 0.90148 0.16037 0.30525 0.0
H465 H 0.85181 0.19185 0.26848 0.0
H466 H 0.78909 0.16117 0.4036 0.0
C467 C 0.9004 0.08684 0.48058 0.0
C468 C 0.93437 0.07695 0.46603 0.0
C469 C 0.95013 0.09185 0.42087 0.0
C470 C 0.932 0.11522 0.38917 0.0
C471 C 0.89813 0.12345 0.40321 0.0
C472 C 0.88246 0.11021 0.44806 0.0
C473 C 0.845 0.12211 0.45193 0.0
C474 C 0.82006 0.09098 0.45119 0.0
C475 C 0.83929 0.14483 0.5013 0.0
C476 C 0.84209 0.14336 0.40164 0.0
C477 C 0.87317 0.14378 0.3745 0.0
C478 C 0.87706 0.16068 0.32636 0.0
C479 C 0.84857 0.17837 0.30572 0.0
C480 C 0.81651 0.17907 0.33316 0.0
C481 C 0.81319 0.161 0.38159 0.0
H482 H 0.69644 0.14194 0.19352 0.0
H483 H 0.63053 0.23204 0.21725 0.0
H484 H 0.58438 0.20417 0.16461 0.0
H485 H 0.67015 0.121 0.06103 0.0
H486 H 0.6704 0.07467 0.07137 0.0
H487 H 0.69886 0.10211 0.10925 0.0
H488 H 0.67341 0.07733 0.19633 0.0
H489 H 0.64501 0.04969 0.1587 0.0
H490 H 0.62728 0.07905 0.20739 0.0
H491 H 0.54672 0.16791 0.1066 0.0
H492 H 0.51677 0.12246 0.05496 0.0
H493 H 0.60477 0.05356 0.07548 0.0
C494 C 0.67225 0.15566 0.18744 0.0
C495 C 0.66682 0.18903 0.20904 0.0
C496 C 0.63488 0.20628 0.20111 0.0
C497 C 0.60868 0.19079 0.1711 0.0
C498 C 0.61472 0.15781 0.15027 0.0
C499 C 0.64543 0.14014 0.15876 0.0
C500 C 0.64448 0.10424 0.13414 0.0
C501 C 0.67264 0.10029 0.09141 0.0
C502 C 0.64773 0.07591 0.17668 0.0
C503 C 0.6086 0.10468 0.11007 0.0
C504 C 0.59211 0.13604 0.11921 0.0
C505 C 0.55922 0.14314 0.09947 0.0
C506 C 0.54253 0.11731 0.07 0.0
C507 C 0.55855 0.08468 0.06149 0.0
C508 C 0.59195 0.07828 0.08184 0.0
H509 H 0.66829 0.80047 0.90365 0.0
H510 H 0.68243 0.83556 0.74197 0.0
H511 H 0.64577 0.88689 0.76083 0.0
H512 H 0.57819 0.82726 0.91512 0.0
H513 H 0.58241 0.83984 0.98352 0.0
H514 H 0.60939 0.80579 0.95683 0.0
H515 H 0.66406 0.83921 0.98728 0.0
H516 H 0.63728 0.87353 1.01361 0.0
H517 H 0.67051 0.88337 0.96575 0.0
H518 H 0.61044 0.93595 0.79882 0.0
H519 H 0.57391 0.97641 0.85022 0.0
H520 H 0.58058 0.90806 0.98629 0.0
C521 C 0.66353 0.81886 0.8721 0.0
C522 C 0.6783 0.81411 0.82134 0.0
C523 C 0.67124 0.8386 0.78104 0.0
C524 C 0.65061 0.86791 0.79147 0.0
C525 C 0.63692 0.87208 0.84218 0.0
C526 C 0.64265 0.84797 0.88161 0.0
C527 C 0.62444 0.85827 0.93249 0.0
C528 C 0.59697 0.83118 0.94787 0.0
C529 C 0.65064 0.86393 0.97742 0.0
C530 C 0.60786 0.89219 0.91571 0.0
C531 C 0.61564 0.89981 0.8636 0.0
C532 C 0.604 0.93015 0.83954 0.0
C533 C 0.58345 0.9531 0.86925 0.0
C534 C 0.57442 0.94545 0.92236 0.0
C535 C 0.58695 0.91458 0.94578 0.0
H536 H 0.56241 0.55661 0.92897 0.0
H537 H 0.5623 0.60313 0.08545 0.0
H538 H 0.60655 0.64546 0.05596 0.0
H539 H 0.65238 0.56455 0.90166 0.0
H540 H 0.64668 0.5755 0.83293 0.0
H541 H 0.61495 0.54912 0.86622 0.0
H542 H 0.56667 0.59263 0.84015 0.0
H543 H 0.59821 0.61911 0.80653 0.0
H544 H 0.57119 0.63788 0.85737 0.0
H545 H 0.65302 0.68002 1.01098 0.0
H546 H 0.695 0.7084 0.95145 0.0
H547 H 0.66238 0.64176 0.82246 0.0
C548 C 0.57175 0.5757 0.95705 0.0
C549 C 0.55932 0.5765 1.00966 0.0
C550 C 0.57159 0.60218 0.04501 0.0
C551 C 0.59673 0.62619 0.02865 0.0
C552 C 0.60871 0.62446 0.97661 0.0
C553 C 0.59627 0.60022 0.9411 0.0
C554 C 0.61285 0.6044 0.88709 0.0
C555 C 0.63291 0.57143 0.87106 0.0
C556 C 0.5856 0.61409 0.84532 0.0
C557 C 0.63713 0.6344 0.89799 0.0
C558 C 0.63447 0.64537 0.95 0.0
C559 C 0.65518 0.67179 0.97015 0.0
C560 C 0.67916 0.68751 0.93621 0.0
C561 C 0.68204 0.677 0.88269 0.0
C562 C 0.66053 0.65031 0.86321 0.0
H563 H 0.66296 0.30615 0.16279 0.0
H564 H 0.67957 0.35314 0.31701 0.0
H565 H 0.63888 0.40021 0.29422 0.0
H566 H 0.65631 0.38544 0.08866 0.0
H567 H 0.62247 0.36964 0.04594 0.0
H568 H 0.65322 0.33968 0.074 0.0
H569 H 0.60291 0.3038 0.11421 0.0
H570 H 0.57199 0.33365 0.08626 0.0
H571 H 0.57159 0.32504 0.15631 0.0
H572 H 0.5979 0.44234 0.25489 0.0
H573 H 0.55694 0.47675 0.20244 0.0
H574 H 0.56482 0.40177 0.0741 0.0
C575 C 0.65816 0.32646 0.19163 0.0
C576 C 0.6745 0.32616 0.24158 0.0
C577 C 0.66726 0.35288 0.27856 0.0
C578 C 0.64426 0.37973 0.26597 0.0
C579 C 0.62856 0.37925 0.21647 0.0
C580 C 0.63497 0.35328 0.17995 0.0
C581 C 0.61407 0.35867 0.12996 0.0
C582 C 0.63795 0.36366 0.0818 0.0
C583 C 0.58863 0.3285 0.12119 0.0
C584 C 0.59516 0.39196 0.144 0.0
C585 C 0.60406 0.40333 0.19405 0.0
C586 C 0.59058 0.43369 0.21572 0.0
C587 C 0.56733 0.45307 0.18545 0.0
C588 C 0.55755 0.44193 0.1341 0.0
C589 C 0.57163 0.41086 0.11327 0.0
H590 H 0.91079 0.44968 0.39842 0.0
H591 H 0.95182 0.38383 0.52322 0.0
H592 H 0.91534 0.33589 0.49297 0.0
H593 H 0.82369 0.41841 0.40538 0.0
H594 H 0.8163 0.41941 0.33502 0.0
H595 H 0.84679 0.449 0.36453 0.0
H596 H 0.89476 0.42671 0.3011 0.0
H597 H 0.86439 0.39701 0.2714 0.0
H598 H 0.90444 0.3809 0.29852 0.0
H599 H 0.87355 0.29614 0.45441 0.0
H600 H 0.82737 0.2652 0.4073 0.0
H601 H 0.81256 0.35429 0.30451 0.0
C602 C 0.91211 0.42514 0.41921 0.0
C603 C 0.93425 0.42065 0.46324 0.0
C604 C 0.93525 0.38808 0.48933 0.0
C605 C 0.91462 0.36053 0.47246 0.0
C606 C 0.89316 0.36574 0.42921 0.0
C607 C 0.89165 0.39703 0.40266 0.0
C608 C 0.86548 0.39536 0.35792 0.0
C609 C 0.83634 0.42214 0.36624 0.0
C610 C 0.88334 0.40029 0.30404 0.0
C611 C 0.85226 0.35845 0.36443 0.0
C612 C 0.86884 0.34203 0.40584 0.0
C613 C 0.86047 0.30852 0.42165 0.0
C614 C 0.83408 0.29126 0.39481 0.0
C615 C 0.81643 0.30743 0.35243 0.0
C616 C 0.82595 0.34129 0.33645 0.0
H617 H 0.80174 0.62405 0.74645 0.0
H618 H 0.85936 0.72062 0.73706 0.0
H619 H 0.90382 0.69165 0.68247 0.0
H620 H 0.87937 0.56805 0.75653 0.0
H621 H 0.86046 0.53342 0.71821 0.0
H622 H 0.83314 0.56147 0.75746 0.0
H623 H 0.7971 0.57622 0.67415 0.0
H624 H 0.82451 0.54851 0.63455 0.0
H625 H 0.81862 0.59343 0.61653 0.0
H626 H 0.93843 0.65478 0.62207 0.0
H627 H 0.96709 0.60935 0.56933 0.0
H628 H 0.89172 0.53376 0.6239 0.0
C629 C 0.82398 0.63887 0.73336 0.0
C630 C 0.82718 0.67457 0.746 0.0
C631 C 0.85659 0.69319 0.72832 0.0
C632 C 0.88186 0.67702 0.697 0.0
C633 C 0.87778 0.642 0.68461 0.0
C634 C 0.8501 0.62282 0.70312 0.0
C635 C 0.8527 0.58526 0.68469 0.0
C636 C 0.85666 0.56059 0.73205 0.0
C637 C 0.82137 0.57528 0.65044 0.0
C638 C 0.88574 0.58665 0.65198 0.0
C639 C 0.89936 0.61985 0.6521 0.0
C640 C 0.92841 0.62854 0.62238 0.0
C641 C 0.94436 0.60253 0.59225 0.0
C642 C 0.93183 0.56794 0.59285 0.0
C643 C 0.9021 0.55988 0.62326 0.0
H644 H 0.32686 0.33063 0.26637 0.0
H645 H 0.29601 0.27836 0.1213 0.0
H646 H 0.33233 0.31797 0.06981 0.0
H647 H 0.32842 0.41689 0.213 0.0
H648 H 0.36627 0.4305 0.2491 0.0
H649 H 0.33829 0.39754 0.27609 0.0
H650 H 0.39046 0.35544 0.28378 0.0
H651 H 0.41861 0.38835 0.25702 0.0
H652 H 0.41641 0.34618 0.22605 0.0
H653 H 0.36971 0.36346 0.03283 0.0
H654 H 0.40896 0.41178 1.01228 0.0
H655 H 0.41784 0.43527 0.17997 0.0
C656 C 0.32795 0.32741 0.22384 0.0
C657 C 0.3083 0.30138 0.19807 0.0
C658 C 0.31047 0.29813 0.14224 0.0
C659 C 0.33114 0.32051 0.11242 0.0
C660 C 0.34976 0.34604 0.13879 0.0
C661 C 0.34869 0.34961 0.19317 0.0
C662 C 0.37142 0.37958 0.21103 0.0
C663 C 0.3498 0.4078 0.23895 0.0
C664 C 0.40098 0.3666 0.24657 0.0
C665 C 0.38507 0.39225 0.15809 0.0
C666 C 0.37208 0.37245 0.11712 0.0
C667 C 0.38024 0.37914 0.06451 0.0
C668 C 0.40251 0.40676 0.05327 0.0
C669 C 0.41654 0.42738 0.09445 0.0
C670 C 0.40762 0.41995 0.14761 0.0
H671 H 0.38251 0.57567 1.01944 0.0
H672 H 0.47151 0.57999 0.91404 0.0
H673 H 0.44161 0.62283 0.85888 0.0
H674 H 0.31883 0.58049 0.9181 0.0
H675 H 0.28899 0.60753 0.95465 0.0
H676 H 0.31797 0.57885 0.98936 0.0
H677 H 0.34173 0.63091 0.04323 0.0
H678 H 0.31267 0.65971 1.00881 0.0
H679 H 0.35856 0.66827 1.00884 0.0
H680 H 0.40281 0.66233 0.81285 0.0
H681 H 0.35588 0.69797 0.77687 0.0
H682 H 0.28998 0.66916 0.9095 0.0
C683 C 0.39574 0.58607 0.98515 0.0
C684 C 0.42927 0.57443 0.97093 0.0
C685 C 0.4457 0.58825 0.92544 0.0
C686 C 0.42903 0.61276 0.89392 0.0
C687 C 0.39586 0.62323 0.90825 0.0
C688 C 0.37923 0.61056 0.95266 0.0
C689 C 0.34282 0.62537 0.957 0.0
C690 C 0.31555 0.59632 0.95462 0.0
C691 C 0.33872 0.64738 1.00747 0.0
C692 C 0.34173 0.64788 0.90777 0.0
C693 C 0.3728 0.64628 0.88071 0.0
C694 C 0.37835 0.66406 0.83371 0.0
C695 C 0.3514 0.68422 0.81358 0.0
C696 C 0.31915 0.68643 0.84029 0.0
C697 C 0.3143 0.66799 0.88813 0.0
H698 H 0.19989 0.65918 0.65806 0.0
H699 H 0.13182 0.69648 0.78329 0.0
H700 H 0.08309 0.66554 0.74285 0.0
H701 H 0.13691 0.66402 0.55189 0.0
H702 H 0.15129 0.62454 0.52015 0.0
H703 H 0.18146 0.65045 0.55755 0.0
H704 H 0.19675 0.59716 0.61552 0.0
H705 H 0.16702 0.57102 0.57786 0.0
H706 H 0.16254 0.57391 0.64872 0.0
H707 H 0.04243 0.63023 0.69266 0.0
H708 H 0.01193 0.58731 0.63812 0.0
H709 H 0.10429 0.57216 0.54263 0.0
C710 C 0.17478 0.66067 0.67712 0.0
C711 C 0.16976 0.68035 0.72393 0.0
C712 C 0.13645 0.68165 0.74751 0.0
C713 C 0.10847 0.66434 0.72465 0.0
C714 C 0.11412 0.64579 0.67819 0.0
C715 C 0.14638 0.64341 0.6548 0.0
C716 C 0.14525 0.62034 0.606 0.0
C717 C 0.15426 0.64109 0.55593 0.0
C718 C 0.16931 0.58873 0.61243 0.0
C719 C 0.10739 0.6097 0.60639 0.0
C720 C 0.09005 0.62517 0.64823 0.0
C721 C 0.05552 0.61823 0.6594 0.0
C722 C 0.0384 0.59393 0.62807 0.0
C723 C 0.05565 0.57698 0.5858 0.0
C724 C 0.09037 0.5855 0.5739 0.0
H725 H 0.17089 0.29616 0.41231 0.0
H726 H 0.18711 0.34516 0.25961 0.0
H727 H 0.15464 0.39647 0.28978 0.0
H728 H 0.08389 0.32533 0.42846 0.0
H729 H 0.08684 0.33246 0.49879 0.0
H730 H 0.11401 0.30037 0.46743 0.0
H731 H 0.16841 0.33047 0.50579 0.0
H732 H 0.14138 0.36279 0.5371 0.0
H733 H 0.17561 0.37595 0.49289 0.0
H734 H 0.1187 0.44071 0.33258 0.0
H735 H 0.07748 0.47529 0.38488 0.0
H736 H 0.08216 0.39928 0.51136 0.0
C737 C 0.16789 0.3179 0.38557 0.0
C738 C 0.18161 0.31665 0.33356 0.0
C739 C 0.17672 0.34538 0.29946 0.0
C740 C 0.15851 0.3748 0.31634 0.0
C741 C 0.14514 0.3752 0.36747 0.0
C742 C 0.14929 0.34756 0.40167 0.0
C743 C 0.13004 0.35418 0.45333 0.0
C744 C 0.10203 0.32644 0.46252 0.0
C745 C 0.15538 0.35596 0.50005 0.0
C746 C 0.11405 0.38957 0.44223 0.0
C747 C 0.12361 0.40115 0.39257 0.0
C748 C 0.1112 0.43212 0.37169 0.0
C749 C 0.08772 0.45153 0.40172 0.0
C750 C 0.07671 0.44004 0.45222 0.0
C751 C 0.09061 0.40895 0.47328 0.0
H752 H 0.96891 0.98853 0.9168 0.0
H753 H 0.05184 0.06444 0.9105 0.0
H754 H 0.06075 0.05809 1.00653 0.0
H755 H 0.93366 0.01564 0.04064 0.0
H756 H 0.92358 0.9724 0.06315 0.0
H757 H 0.92444 0.98175 0.9934 0.0
H758 H 0.96918 0.9324 0.97869 0.0
H759 H 0.96839 0.92282 0.04842 0.0
H760 H 0.0089 0.93242 1.01604 0.0
H761 H 0.05991 0.04481 0.10353 0.0
H762 H 0.04963 0.02509 0.19495 0.0
H763 H 0.96683 0.95812 0.13947 0.0
C764 C 0.98924 0.00346 0.93551 0.0
C765 C 0.00956 0.02714 0.90597 0.0
C766 C 0.03561 0.04651 0.93225 0.0
C767 C 0.04102 0.04294 0.9868 0.0
C768 C 0.02026 0.0198 1.01482 0.0
C769 C -0.00504 0.00029 0.99016 0.0
C770 C 0.97574 0.97789 0.02991 0.0
C771 C 0.93706 0.98751 0.03188 0.0
C772 C 0.98087 0.93908 1.01752 0.0
C773 C 0.99402 0.98809 0.0807 0.0
C774 C 0.01969 0.01222 0.071 0.0
C775 C 0.03986 0.02592 0.11162 0.0
C776 C 0.03362 0.01473 0.16356 0.0
C777 C 0.00732 0.99012 0.17477 0.0
C778 C 0.98741 0.97663 0.13241 0.0
H779 H 0.23844 0.76215 0.39731 0.0
H780 H 0.2922 0.66319 0.40553 0.0
H781 H 0.28595 0.65616 0.30883 0.0
H782 H 0.17679 0.73738 0.29497 0.0
H783 H 0.17807 0.77938 0.26359 0.0
H784 H 0.18555 0.77576 0.33368 0.0
H785 H 0.24439 0.80729 0.32266 0.0
H786 H 0.23721 0.81082 0.25254 0.0
H787 H 0.27601 0.79025 0.27682 0.0
H788 H 0.27557 0.66095 0.21079 0.0
H789 H 0.26048 0.67648 0.11893 0.0
H790 H 0.21406 0.77261 0.175 0.0
C791 C 0.24834 0.7387 0.37891 0.0
C792 C 0.26576 0.71317 0.40895 0.0
C793 C 0.279 0.6832 0.3832 0.0
C794 C 0.27547 0.67892 0.32837 0.0
C795 C 0.25862 0.70484 0.29984 0.0
C796 C 0.24515 0.73408 0.32423 0.0
C797 C 0.22907 0.75854 0.28435 0.0
C798 C 0.19005 0.76301 0.29478 0.0
C799 C 0.2478 0.7938 0.28409 0.0
C800 C 0.23572 0.73857 0.23368 0.0
C801 C 0.25277 0.70766 0.24343 0.0
C802 C 0.26216 0.68507 0.20268 0.0
C803 C 0.25371 0.69425 0.15059 0.0
C804 C 0.23608 0.72577 0.13967 0.0
C805 C 0.22711 0.74813 0.18201 0.0
H806 H 0.48144 -0.00183 0.61377 0.0
H807 H 0.55445 0.08381 0.61774 0.0
H808 H 0.56286 0.07854 0.52144 0.0
H809 H 0.52717 0.94736 0.51298 0.0
H810 H 0.48794 0.93259 0.4817 0.0
H811 H 0.48811 0.94238 0.55143 0.0
H812 H 0.43738 0.98557 0.5381 0.0
H813 H 0.43713 0.97601 0.46834 0.0
H814 H 0.44181 0.02025 0.49073 0.0
H815 H 0.56253 0.06533 0.42453 0.0
H816 H 0.55434 0.04421 0.33335 0.0
H817 H 0.48157 0.96687 0.39046 0.0
C818 C 0.49953 0.01552 0.59449 0.0
C819 C 0.51709 0.04161 0.62359 0.0
C820 C 0.54023 0.06401 0.59648 0.0
C821 C 0.54536 0.06109 0.54171 0.0
C822 C 0.52731 0.03553 0.51419 0.0
C823 C 0.50497 0.013 0.53955 0.0
C824 C 0.48842 0.9882 0.50016 0.0
C825 C 0.49852 0.95039 0.5123 0.0
C826 C 0.44884 0.9928 0.4993 0.0
C827 C 0.5048 0.00052 0.4488 0.0
C828 C 0.52718 0.02783 0.45795 0.0
C829 C 0.54506 0.04396 0.41687 0.0
C830 C 0.54 0.03191 0.36504 0.0
C831 C 0.51716 0.00396 0.3543 0.0
C832 C 0.49946 0.98806 0.39713 0.0
H833 H 0.23412 0.26414 0.89396 0.0
H834 H 0.20227 0.15657 0.91042 0.0
H835 H 0.21293 0.14704 0.81534 0.0
H836 H 0.19625 0.27809 0.76604 0.0
H837 H 0.23098 0.30504 0.74192 0.0
H838 H 0.22152 0.30359 0.81169 0.0
H839 H 0.28496 0.28585 0.83097 0.0
H840 H 0.29465 0.28733 0.76125 0.0
H841 H 0.30317 0.2483 0.79835 0.0
H842 H 0.22593 0.14903 0.71809 0.0
H843 H 0.24143 0.16212 0.62563 0.0
H844 H 0.26542 0.26836 0.67032 0.0
C845 C 0.22973 0.23848 0.87771 0.0
C846 C 0.21706 0.21116 0.91004 0.0
C847 C 0.21136 0.17811 0.8867 0.0
C848 C 0.21755 0.17236 0.83263 0.0
C849 C 0.22957 0.19985 0.80189 0.0
C850 C 0.23573 0.23226 0.82349 0.0
C851 C 0.24825 0.2574 0.78119 0.0
C852 C 0.22272 0.28783 0.77484 0.0
C853 C 0.28494 0.27048 0.7937 0.0
C854 C 0.24819 0.23403 0.73257 0.0
C855 C 0.23724 0.20096 0.74554 0.0
C856 C 0.23451 0.17486 0.70749 0.0
C857 C 0.24316 0.18265 0.65485 0.0
C858 C 0.25452 0.21633 0.64019 0.0
C859 C 0.25713 0.24227 0.68001 0.0
H860 H 0.73303 0.26711 0.89795 0.0
H861 H 0.79805 0.17593 0.91721 0.0
H862 H 0.79162 0.1624 0.82225 0.0
H863 H 0.67361 0.22914 0.80209 0.0
H864 H 0.66954 0.26879 0.76476 0.0
H865 H 0.67827 0.27058 0.83468 0.0
H866 H 0.73286 0.30785 0.81653 0.0
H867 H 0.72438 0.30606 0.74658 0.0
H868 H 0.76563 0.29176 0.7718 0.0
H869 H 0.77967 0.15976 0.72454 0.0
H870 H 0.76201 0.16765 0.63145 0.0
H871 H 0.70512 0.26073 0.67569 0.0
C872 C 0.74548 0.24402 0.88233 0.0
C873 C 0.76611 0.22262 0.91501 0.0
C874 C 0.78244 0.19293 0.89283 0.0
C875 C 0.77882 0.18493 0.83898 0.0
C876 C 0.75873 0.20683 0.80773 0.0
C877 C 0.74223 0.2357 0.82857 0.0
C878 C 0.72288 0.25545 0.78605 0.0
C879 C 0.68375 0.25601 0.79759 0.0
C880 C 0.73731 0.29247 0.77989 0.0
C881 C 0.73118 0.23324 0.73808 0.0
C882 C 0.75187 0.20531 0.75143 0.0
C883 C 0.7634 0.1815 0.71363 0.0
C884 C 0.75343 0.18633 0.66079 0.0
C885 C 0.73213 0.21475 0.64615 0.0
C886 C 0.72097 0.23843 0.6856 0.0
H887 H 0.7256 0.69698 0.39618 0.0
H888 H 0.7384 0.80316 0.45074 0.0
H889 H 0.75054 0.82183 0.35923 0.0
H890 H 0.79392 0.69886 0.30011 0.0
H891 H 0.77149 0.6724 0.25232 0.0
H892 H 0.76241 0.6674 0.32179 0.0
H893 H 0.69727 0.67864 0.30429 0.0
H894 H 0.70617 0.68369 0.23472 0.0
H895 H 0.68422 0.71777 0.27062 0.0
H896 H 0.76185 0.82915 0.26229 0.0
H897 H 0.77323 0.82451 0.16667 0.0
H898 H 0.75479 0.71332 0.17381 0.0
C899 C 0.73057 0.72422 0.38874 0.0
C900 C 0.73104 0.74862 0.43082 0.0
C901 C 0.73821 0.78393 0.4194 0.0
C902 C 0.74495 0.79483 0.36745 0.0
C903 C 0.74455 0.77014 0.32705 0.0
C904 C 0.73763 0.73555 0.33698 0.0
C905 C 0.73994 0.71422 0.28641 0.0
C906 C 0.76865 0.68659 0.29041 0.0
C907 C 0.7048 0.6976 0.27324 0.0
C908 C 0.74933 0.74222 0.24662 0.0
C909 C 0.75166 0.77429 0.271 0.0
C910 C 0.76023 0.80414 0.24283 0.0
C911 C 0.76692 0.80116 0.18844 0.0
C912 C 0.76529 0.76851 0.16237 0.0
C913 C 0.75602 0.73873 0.19215 0.0
H914 H 0.50524 0.52164 0.67558 0.0
H915 H 0.48966 0.40992 0.6758 0.0
H916 H 0.48158 0.41083 0.57928 0.0
H917 H 0.44144 0.54106 0.5752 0.0
H918 H 0.46672 0.57495 0.54479 0.0
H919 H 0.47167 0.56583 0.61424 0.0
H920 H 0.53754 0.55655 0.60053 0.0
H921 H 0.5328 0.56569 0.53107 0.0
H922 H 0.55239 0.52547 0.55203 0.0
H923 H 0.47409 0.42343 0.48319 0.0
H924 H 0.46884 0.44681 0.39305 0.0
H925 H 0.49028 0.55048 0.45289 0.0
C926 C 0.5 0.4974 0.65534 0.0
C927 C 0.49843 0.46563 0.68354 0.0
C928 C 0.4917 0.4345 0.65526 0.0
C929 C 0.48679 0.43476 0.60035 0.0
C930 C 0.48864 0.46637 0.57382 0.0
C931 C 0.49514 0.49715 0.60019 0.0
C932 C 0.49595 0.52746 0.56175 0.0
C933 C 0.46723 0.55388 0.57478 0.0
C934 C 0.53181 0.54481 0.56133 0.0
C935 C 0.48882 0.50885 0.50983 0.0
C936 C 0.48462 0.47363 0.51789 0.0
C937 C 0.47758 0.45095 0.47631 0.0
C938 C 0.47491 0.46452 0.42503 0.0
C939 C 0.47946 0.50052 0.41528 0.0
C940 C 0.48638 0.5229 0.45868 0.0
H941 H 0.01264 0.5089 0.89906 0.0
H942 H 0.93941 0.42356 0.89197 0.0
H943 H 0.92938 0.42878 0.98802 0.0
H944 H 0.05037 0.4863 1.02257 0.0
H945 H 0.05505 0.53043 0.04546 0.0
H946 H 0.05555 0.52113 0.97564 0.0
H947 H 0.00521 0.56466 0.9613 0.0
H948 H 0.00462 0.5742 0.03111 0.0
H949 H 0.96568 0.55976 0.99865 0.0
H950 H 0.92839 0.44189 0.08517 0.0
H951 H 0.93598 0.46255 0.17679 0.0
H952 H 0.0102 0.53921 0.12193 0.0
C953 C -0.00587 0.49165 0.91759 0.0
C954 C 0.97694 0.46568 0.88783 0.0
C955 C 0.95327 0.44333 0.91389 0.0
C956 C 0.94723 0.44621 0.96845 0.0
C957 C 0.96495 0.47167 0.99669 0.0
C958 C 0.98782 0.49412 0.97222 0.0
C959 C 0.00406 0.51865 1.01216 0.0
C960 C 0.0436 0.51382 1.01406 0.0
C961 C -0.0057 0.55656 1.00008 0.0
C962 C 0.987 0.50623 0.06287 0.0
C963 C 0.96444 0.47919 0.05294 0.0
C964 C 0.94599 0.46307 0.09344 0.0
C965 C 0.9507 0.47484 0.1455 0.0
C966 C 0.9738 0.50245 0.15694 0.0
C967 C 0.99204 0.51833 0.1147 0.0
loop_
_geom_bond_atom_site_label_1
_geom_bond_atom_site_label_2
_geom_bond_distance
_geom_bond_site_symmetry_2
_ccdc_geom_bond_type
Tb0 C9 2.764 1_455 S
Tb0 O10 2.325 1_445 S
Tb0 O13 2.303 1_545 S
Tb0 O17 2.322 . S
Tb0 O18 2.349 1_455 S
Tb0 O21 2.415 . S
Tb0 O22 2.399 1_455 S
Tb1 O11 2.322 . S
Tb1 O12 2.349 1_655 S
Tb1 O14 2.415 . S
Tb1 O15 2.399 1_655 S
Tb1 O16 2.325 1_665 S
Tb1 O19 2.303 1_565 S
Tb1 C30 2.764 1_655 S
C2 O18 1.261 . S
C2 O19 1.257 . S
C3 C6 1.358 . S
C3 C7 1.332 1_545 S
C3 C9 1.504 . S
C4 C5 1.373 . S
C4 C8 1.308 1_545 S
C5 C4 1.373 . S
C5 C6 1.429 . S
C5 H32 0.932 . S
C6 C3 1.358 . S
C6 C5 1.429 . S
C6 H33 0.930 . S
C7 C3 1.332 1_565 S
C7 C8 1.394 . S
C7 H34 0.932 1_655 S
C8 C4 1.308 1_565 S
C8 C7 1.394 . S
C8 H35 0.929 . S
C9 Tb0 2.764 1_655 S
C9 C3 1.504 . S
C9 O21 1.239 1_655 S
C9 O22 1.263 . S
O10 Tb0 2.325 1_665 S
O10 C20 1.236 . S
O11 Tb1 2.322 . S
O11 C20 1.257 . S
O12 Tb1 2.349 1_455 S
O12 C23 1.261 . S
O13 Tb0 2.303 1_565 S
O13 C23 1.257 . S
O14 Tb1 2.415 . S
O14 C30 1.239 1_655 S
O15 Tb1 2.399 1_455 S
O15 C30 1.263 . S
O16 Tb1 2.325 1_445 S
O16 C31 1.236 . S
O17 Tb0 2.322 . S
O17 C31 1.257 . S
O18 Tb0 2.349 1_655 S
O18 C2 1.261 . S
O19 Tb1 2.303 1_545 S
O19 C2 1.257 . S
C20 O10 1.236 . S
C20 O11 1.257 . S
O21 Tb0 2.415 . S
O21 C9 1.239 1_455 S
O22 Tb0 2.399 1_655 S
O22 C9 1.263 . S
C23 O12 1.261 . S
C23 O13 1.257 . S
C24 C27 1.358 . S
C24 C28 1.332 1_565 S
C24 C30 1.504 . S
C25 C26 1.373 . S
C25 C29 1.308 1_565 S
C26 C25 1.373 . S
C26 C27 1.429 . S
C26 H36 0.932 . S
C27 C24 1.358 . S
C27 C26 1.429 . S
C27 H37 0.930 . S
C28 C24 1.332 1_545 S
C28 C29 1.394 . S
C28 H38 0.932 1_455 S
C29 C25 1.308 1_545 S
C29 C28 1.394 . S
C29 H39 0.929 . S
C30 Tb1 2.764 1_455 S
C30 O14 1.239 1_455 S
C30 O15 1.263 . S
C30 C24 1.504 . S
C31 O16 1.236 . S
C31 O17 1.257 . S
H32 C5 0.932 . S
H33 C6 0.930 . S
H34 C7 0.932 1_455 S
H35 C8 0.929 . S
H36 C26 0.932 . S
H37 C27 0.930 . S
H38 C28 0.932 1_655 S
H39 C29 0.929 . S
Tb40 C49 2.764 . S
Tb40 O50 2.325 . S
Tb40 O53 2.303 . S
Tb40 O57 2.322 . S
Tb40 O58 2.349 . S
Tb40 O61 2.415 . S
Tb40 O62 2.399 . S
Tb41 O51 2.322 . S
Tb41 O52 2.349 . S
Tb41 O54 2.415 . S
Tb41 O55 2.399 . S
Tb41 O56 2.325 . S
Tb41 O59 2.303 . S
Tb41 C70 2.764 . S
C42 O58 1.261 . S
C42 O59 1.257 . S
C43 C46 1.358 . S
C43 C47 1.332 . S
C43 C49 1.504 . S
C44 C45 1.373 . S
C44 C48 1.308 . S
C45 C44 1.373 . S
C45 C46 1.429 1_554 S
C45 H72 0.932 . S
C46 C43 1.358 . S
C46 C45 1.429 1_556 S
C46 H73 0.930 . S
C47 C43 1.332 . S
C47 C48 1.394 1_556 S
C47 H74 0.932 . S
C48 C44 1.308 . S
C48 C47 1.394 1_554 S
C48 H75 0.929 . S
C49 Tb40 2.764 . S
C49 C43 1.504 . S
C49 O61 1.239 . S
C49 O62 1.263 . S
O50 Tb40 2.325 . S
O50 C60 1.236 . S
O51 Tb41 2.322 . S
O51 C60 1.257 . S
O52 Tb41 2.349 . S
O52 C63 1.261 . S
O53 Tb40 2.303 . S
O53 C63 1.257 . S
O54 Tb41 2.415 . S
O54 C70 1.239 . S
O55 Tb41 2.399 . S
O55 C70 1.263 . S
O56 Tb41 2.325 . S
O56 C71 1.236 . S
O57 Tb40 2.322 . S
O57 C71 1.257 . S
O58 Tb40 2.349 . S
O58 C42 1.261 . S
O59 Tb41 2.303 . S
O59 C42 1.257 . S
C60 O50 1.236 . S
C60 O51 1.257 . S
O61 Tb40 2.415 . S
O61 C49 1.239 . S
O62 Tb40 2.399 . S
O62 C49 1.263 . S
C63 O52 1.261 . S
C63 O53 1.257 . S
C64 C67 1.358 . S
C64 C68 1.332 . S
C64 C70 1.504 . S
C65 C66 1.373 . S
C65 C69 1.308 . S
C66 C65 1.373 . S
C66 C67 1.429 . S
C66 H76 0.932 . S
C67 C64 1.358 . S
C67 C66 1.429 . S
C67 H77 0.930 . S
C68 C64 1.332 . S
C68 C69 1.394 . S
C68 H78 0.932 . S
C69 C65 1.308 . S
C69 C68 1.394 . S
C69 H79 0.929 . S
C70 Tb41 2.764 . S
C70 O54 1.239 . S
C70 O55 1.263 . S
C70 C64 1.504 . S
C71 O56 1.236 . S
C71 O57 1.257 . S
H72 C45 0.932 . S
H73 C46 0.930 . S
H74 C47 0.932 . S
H75 C48 0.929 . S
H76 C66 0.932 . S
H77 C67 0.930 . S
H78 C68 0.932 . S
H79 C69 0.929 . S
Tb80 C89 2.764 . S
Tb80 O90 2.325 1_565 S
Tb80 O93 2.303 1_565 S
Tb80 O97 2.322 1_554 S
Tb80 O98 2.349 . S
Tb80 O101 2.415 . S
Tb80 O102 2.399 . S
Tb81 O91 2.322 1_556 S
Tb81 O92 2.349 . S
Tb81 O94 2.415 . S
Tb81 O95 2.399 . S
Tb81 O96 2.325 1_545 S
Tb81 O99 2.303 1_545 S
Tb81 C110 2.764 . S
C82 O98 1.261 1_556 S
C82 O99 1.257 . S
C83 C86 1.358 . S
C83 C87 1.332 1_565 S
C83 C89 1.504 . S
C84 C85 1.373 . S
C84 C88 1.308 1_565 S
C85 C84 1.373 . S
C85 C86 1.429 . S
C85 H112 0.932 . S
C86 C83 1.358 . S
C86 C85 1.429 . S
C86 H113 0.930 . S
C87 C83 1.332 1_545 S
C87 C88 1.394 . S
C87 H114 0.932 . S
C88 C84 1.308 1_545 S
C88 C87 1.394 . S
C88 H115 0.929 . S
C89 Tb80 2.764 . S
C89 C83 1.504 . S
C89 O101 1.239 . S
C89 O102 1.263 . S
O90 Tb80 2.325 1_545 S
O90 C100 1.236 . S
O91 Tb81 2.322 1_554 S
O91 C100 1.257 . S
O92 Tb81 2.349 . S
O92 C103 1.261 1_556 S
O93 Tb80 2.303 1_545 S
O93 C103 1.257 . S
O94 Tb81 2.415 . S
O94 C110 1.239 . S
O95 Tb81 2.399 . S
O95 C110 1.263 . S
O96 Tb81 2.325 1_565 S
O96 C111 1.236 . S
O97 Tb80 2.322 1_556 S
O97 C111 1.257 . S
O98 Tb80 2.349 . S
O98 C82 1.261 1_554 S
O99 Tb81 2.303 1_565 S
O99 C82 1.257 . S
C100 O90 1.236 . S
C100 O91 1.257 . S
O101 Tb80 2.415 . S
O101 C89 1.239 . S
O102 Tb80 2.399 . S
O102 C89 1.263 . S
C103 O92 1.261 1_554 S
C103 O93 1.257 . S
C104 C107 1.358 . S
C104 C108 1.332 1_545 S
C104 C110 1.504 . S
C105 C106 1.373 . S
C105 C109 1.308 1_545 S
C106 C105 1.373 . S
C106 C107 1.429 . S
C106 H116 0.932 . S
C107 C104 1.358 . S
C107 C106 1.429 . S
C107 H117 0.930 . S
C108 C104 1.332 1_565 S
C108 C109 1.394 . S
C108 H118 0.932 . S
C109 C105 1.308 1_565 S
C109 C108 1.394 . S
C109 H119 0.929 . S
C110 Tb81 2.764 . S
C110 O94 1.239 . S
C110 O95 1.263 . S
C110 C104 1.504 . S
C111 O96 1.236 . S
C111 O97 1.257 . S
H112 C85 0.932 . S
H113 C86 0.930 . S
H114 C87 0.932 . S
H115 C88 0.929 . S
H116 C106 0.932 . S
H117 C107 0.930 . S
H118 C108 0.932 . S
H119 C109 0.929 . S
Tb120 C129 2.764 . S
Tb120 O130 2.325 . S
Tb120 O133 2.303 . S
Tb120 O137 2.322 . S
Tb120 O138 2.349 . S
Tb120 O141 2.415 . S
Tb120 O142 2.399 . S
Tb121 O131 2.322 . S
Tb121 O132 2.349 . S
Tb121 O134 2.415 . S
Tb121 O135 2.399 . S
Tb121 O136 2.325 . S
Tb121 O139 2.303 . S
Tb121 C150 2.764 . S
C122 O138 1.261 . S
C122 O139 1.257 . S
C123 C126 1.358 . S
C123 C127 1.332 . S
C123 C129 1.504 . S
C124 C125 1.373 . S
C124 C128 1.308 . S
C125 C124 1.373 . S
C125 C126 1.429 . S
C125 H152 0.932 . S
C126 C123 1.358 . S
C126 C125 1.429 . S
C126 H153 0.930 . S
C127 C123 1.332 . S
C127 C128 1.394 . S
C127 H154 0.932 . S
C128 C124 1.308 . S
C128 C127 1.394 . S
C128 H155 0.929 . S
C129 Tb120 2.764 . S
C129 C123 1.504 . S
C129 O141 1.239 . S
C129 O142 1.263 . S
O130 Tb120 2.325 . S
O130 C140 1.236 . S
O131 Tb121 2.322 . S
O131 C140 1.257 . S
O132 Tb121 2.349 . S
O132 C143 1.261 . S
O133 Tb120 2.303 . S
O133 C143 1.257 . S
O134 Tb121 2.415 . S
O134 C150 1.239 . S
O135 Tb121 2.399 . S
O135 C150 1.263 . S
O136 Tb121 2.325 . S
O136 C151 1.236 . S
O137 Tb120 2.322 . S
O137 C151 1.257 . S
O138 Tb120 2.349 . S
O138 C122 1.261 . S
O139 Tb121 2.303 . S
O139 C122 1.257 . S
C140 O130 1.236 . S
C140 O131 1.257 . S
O141 Tb120 2.415 . S
O141 C129 1.239 . S
O142 Tb120 2.399 . S
O142 C129 1.263 . S
C143 O132 1.261 . S
C143 O133 1.257 . S
C144 C147 1.358 . S
C144 C148 1.332 . S
C144 C150 1.504 . S
C145 C146 1.373 . S
C145 C149 1.308 . S
C146 C145 1.373 . S
C146 C147 1.429 1_556 S
C146 H156 0.932 . S
C147 C144 1.358 . S
C147 C146 1.429 1_554 S
C147 H157 0.930 . S
C148 C144 1.332 . S
C148 C149 1.394 1_554 S
C148 H158 0.932 . S
C149 C145 1.308 . S
C149 C148 1.394 1_556 S
C149 H159 0.929 . S
C150 Tb121 2.764 . S
C150 O134 1.239 . S
C150 O135 1.263 . S
C150 C144 1.504 . S
C151 O136 1.236 . S
C151 O137 1.257 . S
H152 C125 0.932 . S
H153 C126 0.930 . S
H154 C127 0.932 . S
H155 C128 0.929 . S
H156 C146 0.932 . S
H157 C147 0.930 . S
H158 C148 0.932 . S
H159 C149 0.929 . S
Tb160 C169 2.764 . S
Tb160 O170 2.325 . S
Tb160 O173 2.303 . S
Tb160 O177 2.322 . S
Tb160 O178 2.349 . S
Tb160 O181 2.415 . S
Tb160 O182 2.399 . S
Tb161 O171 2.322 . S
Tb161 O172 2.349 . S
Tb161 O174 2.415 . S
Tb161 O175 2.399 . S
Tb161 O176 2.325 . S
Tb161 O179 2.303 . S
Tb161 C190 2.764 . S
C162 O178 1.261 . S
C162 O179 1.257 . S
C163 C166 1.358 . S
C163 C167 1.332 . S
C163 C169 1.504 . S
C164 C165 1.373 . S
C164 C168 1.308 . S
C165 C164 1.373 . S
C165 C166 1.429 . S
C165 H192 0.932 . S
C166 C163 1.358 . S
C166 C165 1.429 . S
C166 H193 0.930 . S
C167 C163 1.332 . S
C167 C168 1.394 . S
C167 H194 0.932 . S
C168 C164 1.308 . S
C168 C167 1.394 . S
C168 H195 0.929 . S
C169 Tb160 2.764 . S
C169 C163 1.504 . S
C169 O181 1.239 . S
C169 O182 1.263 . S
O170 Tb160 2.325 . S
O170 C180 1.236 . S
O171 Tb161 2.322 . S
O171 C180 1.257 . S
O172 Tb161 2.349 . S
O172 C183 1.261 . S
O173 Tb160 2.303 . S
O173 C183 1.257 . S
O174 Tb161 2.415 . S
O174 C190 1.239 . S
O175 Tb161 2.399 . S
O175 C190 1.263 . S
O176 Tb161 2.325 . S
O176 C191 1.236 . S
O177 Tb160 2.322 . S
O177 C191 1.257 . S
O178 Tb160 2.349 . S
O178 C162 1.261 . S
O179 Tb161 2.303 . S
O179 C162 1.257 . S
C180 O170 1.236 . S
C180 O171 1.257 . S
O181 Tb160 2.415 . S
O181 C169 1.239 . S
O182 Tb160 2.399 . S
O182 C169 1.263 . S
C183 O172 1.261 . S
C183 O173 1.257 . S
C184 C187 1.358 . S
C184 C188 1.332 . S
C184 C190 1.504 . S
C185 C186 1.373 . S
C185 C189 1.308 . S
C186 C185 1.373 . S
C186 C187 1.429 1_556 S
C186 H196 0.932 . S
C187 C184 1.358 . S
C187 C186 1.429 1_554 S
C187 H197 0.930 . S
C188 C184 1.332 . S
C188 C189 1.394 1_554 S
C188 H198 0.932 . S
C189 C185 1.308 . S
C189 C188 1.394 1_556 S
C189 H199 0.929 . S
C190 Tb161 2.764 . S
C190 O174 1.239 . S
C190 O175 1.263 . S
C190 C184 1.504 . S
C191 O176 1.236 . S
C191 O177 1.257 . S
H192 C165 0.932 . S
H193 C166 0.930 . S
H194 C167 0.932 . S
H195 C168 0.929 . S
H196 C186 0.932 . S
H197 C187 0.930 . S
H198 C188 0.932 . S
H199 C189 0.929 . S
Tb200 C209 2.764 . S
Tb200 O210 2.325 . S
Tb200 O213 2.303 . S
Tb200 O217 2.322 . S
Tb200 O218 2.349 . S
Tb200 O221 2.415 . S
Tb200 O222 2.399 . S
Tb201 O211 2.322 . S
Tb201 O212 2.349 . S
Tb201 O214 2.415 . S
Tb201 O215 2.399 . S
Tb201 O216 2.325 . S
Tb201 O219 2.303 . S
Tb201 C230 2.764 . S
C202 O218 1.261 . S
C202 O219 1.257 . S
C203 C206 1.358 . S
C203 C207 1.332 . S
C203 C209 1.504 . S
C204 C205 1.373 . S
C204 C208 1.308 . S
C205 C204 1.373 . S
C205 C206 1.429 1_554 S
C205 H232 0.932 . S
C206 C203 1.358 . S
C206 C205 1.429 1_556 S
C206 H233 0.930 . S
C207 C203 1.332 . S
C207 C208 1.394 1_556 S
C207 H234 0.932 . S
C208 C204 1.308 . S
C208 C207 1.394 1_554 S
C208 H235 0.929 . S
C209 Tb200 2.764 . S
C209 C203 1.504 . S
C209 O221 1.239 . S
C209 O222 1.263 . S
O210 Tb200 2.325 . S
O210 C220 1.236 . S
O211 Tb201 2.322 . S
O211 C220 1.257 . S
O212 Tb201 2.349 . S
O212 C223 1.261 . S
O213 Tb200 2.303 . S
O213 C223 1.257 . S
O214 Tb201 2.415 . S
O214 C230 1.239 . S
O215 Tb201 2.399 . S
O215 C230 1.263 . S
O216 Tb201 2.325 . S
O216 C231 1.236 . S
O217 Tb200 2.322 . S
O217 C231 1.257 . S
O218 Tb200 2.349 . S
O218 C202 1.261 . S
O219 Tb201 2.303 . S
O219 C202 1.257 . S
C220 O210 1.236 . S
C220 O211 1.257 . S
O221 Tb200 2.415 . S
O221 C209 1.239 . S
O222 Tb200 2.399 . S
O222 C209 1.263 . S
C223 O212 1.261 . S
C223 O213 1.257 . S
C224 C227 1.358 . S
C224 C228 1.332 . S
C224 C230 1.504 . S
C225 C226 1.373 . S
C225 C229 1.308 . S
C226 C225 1.373 . S
C226 C227 1.429 . S
C226 H236 0.932 . S
C227 C224 1.358 . S
C227 C226 1.429 . S
C227 H237 0.930 . S
C228 C224 1.332 . S
C228 C229 1.394 . S
C228 H238 0.932 . S
C229 C225 1.308 . S
C229 C228 1.394 . S
C229 H239 0.929 . S
C230 Tb201 2.764 . S
C230 O214 1.239 . S
C230 O215 1.263 . S
C230 C224 1.504 . S
C231 O216 1.236 . S
C231 O217 1.257 . S
H232 C205 0.932 . S
H233 C206 0.930 . S
H234 C207 0.932 . S
H235 C208 0.929 . S
H236 C226 0.932 . S
H237 C227 0.930 . S
H238 C228 0.932 . S
H239 C229 0.929 . S
Tb240 C249 2.764 . S
Tb240 O250 2.325 . S
Tb240 O253 2.303 . S
Tb240 O257 2.322 1_554 S
Tb240 O258 2.349 . S
Tb240 O261 2.415 . S
Tb240 O262 2.399 . S
Tb241 O251 2.322 1_556 S
Tb241 O252 2.349 . S
Tb241 O254 2.415 . S
Tb241 O255 2.399 . S
Tb241 O256 2.325 . S
Tb241 O259 2.303 . S
Tb241 C270 2.764 . S
C242 O258 1.261 1_556 S
C242 O259 1.257 . S
C243 C246 1.358 . S
C243 C247 1.332 . S
C243 C249 1.504 . S
C244 C245 1.373 . S
C244 C248 1.308 . S
C245 C244 1.373 . S
C245 C246 1.429 . S
C245 H272 0.932 . S
C246 C243 1.358 . S
C246 C245 1.429 . S
C246 H273 0.930 . S
C247 C243 1.332 . S
C247 C248 1.394 . S
C247 H274 0.932 . S
C248 C244 1.308 . S
C248 C247 1.394 . S
C248 H275 0.929 . S
C249 Tb240 2.764 . S
C249 C243 1.504 . S
C249 O261 1.239 . S
C249 O262 1.263 . S
O250 Tb240 2.325 . S
O250 C260 1.236 . S
O251 Tb241 2.322 1_554 S
O251 C260 1.257 . S
O252 Tb241 2.349 . S
O252 C263 1.261 1_556 S
O253 Tb240 2.303 . S
O253 C263 1.257 . S
O254 Tb241 2.415 . S
O254 C270 1.239 . S
O255 Tb241 2.399 . S
O255 C270 1.263 . S
O256 Tb241 2.325 . S
O256 C271 1.236 . S
O257 Tb240 2.322 1_556 S
O257 C271 1.257 . S
O258 Tb240 2.349 . S
O258 C242 1.261 1_554 S
O259 Tb241 2.303 . S
O259 C242 1.257 . S
C260 O250 1.236 . S
C260 O251 1.257 . S
O261 Tb240 2.415 . S
O261 C249 1.239 . S
O262 Tb240 2.399 . S
O262 C249 1.263 . S
C263 O252 1.261 1_554 S
C263 O253 1.257 . S
C264 C267 1.358 . S
C264 C268 1.332 . S
C264 C270 1.504 . S
C265 C266 1.373 . S
C265 C269 1.308 . S
C266 C265 1.373 . S
C266 C267 1.429 . S
C266 H276 0.932 . S
C267 C264 1.358 . S
C267 C266 1.429 . S
C267 H277 0.930 . S
C268 C264 1.332 . S
C268 C269 1.394 . S
C268 H278 0.932 . S
C269 C265 1.308 . S
C269 C268 1.394 . S
C269 H279 0.929 . S
C270 Tb241 2.764 . S
C270 O254 1.239 . S
C270 O255 1.263 . S
C270 C264 1.504 . S
C271 O256 1.236 . S
C271 O257 1.257 . S
H272 C245 0.932 . S
H273 C246 0.930 . S
H274 C247 0.932 . S
H275 C248 0.929 . S
H276 C266 0.932 . S
H277 C267 0.930 . S
H278 C268 0.932 . S
H279 C269 0.929 . S
Tb280 C289 2.764 1_655 S
Tb280 O290 2.325 1_655 S
Tb280 O293 2.303 . S
Tb280 O297 2.322 . S
Tb280 O298 2.349 1_655 S
Tb280 O301 2.415 . S
Tb280 O302 2.399 1_655 S
Tb281 O291 2.322 . S
Tb281 O292 2.349 1_455 S
Tb281 O294 2.415 . S
Tb281 O295 2.399 1_455 S
Tb281 O296 2.325 1_455 S
Tb281 O299 2.303 . S
Tb281 C310 2.764 1_455 S
C282 O298 1.261 . S
C282 O299 1.257 . S
C283 C286 1.358 . S
C283 C287 1.332 . S
C283 C289 1.504 . S
C284 C285 1.373 . S
C284 C288 1.308 . S
C285 C284 1.373 . S
C285 C286 1.429 . S
C285 H312 0.932 . S
C286 C283 1.358 . S
C286 C285 1.429 . S
C286 H313 0.930 . S
C287 C283 1.332 . S
C287 C288 1.394 . S
C287 H314 0.932 1_455 S
C288 C284 1.308 . S
C288 C287 1.394 . S
C288 H315 0.929 . S
C289 Tb280 2.764 1_455 S
C289 C283 1.504 . S
C289 O301 1.239 1_455 S
C289 O302 1.263 . S
O290 Tb280 2.325 1_455 S
O290 C300 1.236 . S
O291 Tb281 2.322 . S
O291 C300 1.257 . S
O292 Tb281 2.349 1_655 S
O292 C303 1.261 . S
O293 Tb280 2.303 . S
O293 C303 1.257 . S
O294 Tb281 2.415 . S
O294 C310 1.239 1_455 S
O295 Tb281 2.399 1_655 S
O295 C310 1.263 . S
O296 Tb281 2.325 1_655 S
O296 C311 1.236 . S
O297 Tb280 2.322 . S
O297 C311 1.257 . S
O298 Tb280 2.349 1_455 S
O298 C282 1.261 . S
O299 Tb281 2.303 . S
O299 C282 1.257 . S
C300 O290 1.236 . S
C300 O291 1.257 . S
O301 Tb280 2.415 . S
O301 C289 1.239 1_655 S
O302 Tb280 2.399 1_455 S
O302 C289 1.263 . S
C303 O292 1.261 . S
C303 O293 1.257 . S
C304 C307 1.358 . S
C304 C308 1.332 . S
C304 C310 1.504 . S
C305 C306 1.373 . S
C305 C309 1.308 . S
C306 C305 1.373 . S
C306 C307 1.429 . S
C306 H316 0.932 . S
C307 C304 1.358 . S
C307 C306 1.429 . S
C307 H317 0.930 . S
C308 C304 1.332 . S
C308 C309 1.394 . S
C308 H318 0.932 1_655 S
C309 C305 1.308 . S
C309 C308 1.394 . S
C309 H319 0.929 . S
C310 Tb281 2.764 1_655 S
C310 O294 1.239 1_655 S
C310 O295 1.263 . S
C310 C304 1.504 . S
C311 O296 1.236 . S
C311 O297 1.257 . S
H312 C285 0.932 . S
H313 C286 0.930 . S
H314 C287 0.932 1_655 S
H315 C288 0.929 . S
H316 C306 0.932 . S
H317 C307 0.930 . S
H318 C308 0.932 1_455 S
H319 C309 0.929 . S
H320 C332 0.930 . S
H321 C334 0.930 . S
H322 C335 0.930 . S
H323 C339 0.959 . S
H324 C339 0.959 . S
H325 C339 0.961 . S
H326 C340 0.960 . S
H327 C340 0.961 . S
H328 C340 0.959 . S
H329 C343 0.929 . S
H330 C344 0.931 . S
H331 C346 0.930 . S
C332 H320 0.930 . S
C332 C333 1.399 . S
C332 C337 1.399 . S
C333 C332 1.399 . S
C333 C334 1.376 . S
C334 H321 0.930 . S
C334 C333 1.376 . S
C334 C335 1.388 . S
C335 H322 0.930 . S
C335 C334 1.388 . S
C335 C336 1.390 . S
C336 C335 1.390 . S
C336 C337 1.394 . S
C336 C342 1.465 . S
C337 C332 1.399 . S
C337 C336 1.394 . S
C337 C338 1.516 . S
C338 C337 1.516 . S
C338 C339 1.502 . S
C338 C340 1.561 . S
C338 C341 1.526 . S
C339 H323 0.959 . S
C339 H324 0.959 . S
C339 H325 0.961 . S
C339 C338 1.502 . S
C340 H326 0.960 . S
C340 H327 0.961 . S
C340 H328 0.959 . S
C340 C338 1.561 . S
C341 C338 1.526 . S
C341 C342 1.396 . S
C341 C346 1.390 . S
C342 C336 1.465 . S
C342 C341 1.396 . S
C342 C343 1.399 . S
C343 H329 0.929 . S
C343 C342 1.399 . S
C343 C344 1.385 . S
C344 H330 0.931 . S
C344 C343 1.385 . S
C344 C345 1.389 . S
C345 C344 1.389 . S
C345 C346 1.387 . S
C346 H331 0.930 . S
C346 C341 1.390 . S
C346 C345 1.387 . S
H347 C359 0.930 . S
H348 C361 0.930 . S
H349 C362 0.930 . S
H350 C366 0.959 . S
H351 C366 0.959 . S
H352 C366 0.961 . S
H353 C367 0.960 . S
H354 C367 0.961 . S
H355 C367 0.959 . S
H356 C370 0.929 . S
H357 C371 0.931 . S
H358 C373 0.930 . S
C359 H347 0.930 . S
C359 C360 1.399 . S
C359 C364 1.399 . S
C360 C359 1.399 . S
C360 C361 1.376 . S
C361 H348 0.930 . S
C361 C360 1.376 . S
C361 C362 1.388 . S
C362 H349 0.930 . S
C362 C361 1.388 . S
C362 C363 1.390 . S
C363 C362 1.390 . S
C363 C364 1.394 . S
C363 C369 1.465 . S
C364 C359 1.399 . S
C364 C363 1.394 . S
C364 C365 1.516 . S
C365 C364 1.516 . S
C365 C366 1.502 . S
C365 C367 1.561 . S
C365 C368 1.526 . S
C366 H350 0.959 . S
C366 H351 0.959 . S
C366 H352 0.961 . S
C366 C365 1.502 . S
C367 H353 0.960 . S
C367 H354 0.961 . S
C367 H355 0.959 . S
C367 C365 1.561 . S
C368 C365 1.526 . S
C368 C369 1.396 . S
C368 C373 1.390 . S
C369 C363 1.465 . S
C369 C368 1.396 . S
C369 C370 1.399 . S
C370 H356 0.929 . S
C370 C369 1.399 . S
C370 C371 1.385 . S
C371 H357 0.931 . S
C371 C370 1.385 . S
C371 C372 1.389 . S
C372 C371 1.389 . S
C372 C373 1.387 . S
C373 H358 0.930 . S
C373 C368 1.390 . S
C373 C372 1.387 . S
H374 C386 0.930 . S
H375 C388 0.930 . S
H376 C389 0.930 . S
H377 C393 0.959 . S
H378 C393 0.959 . S
H379 C393 0.961 . S
H380 C394 0.960 . S
H381 C394 0.961 . S
H382 C394 0.959 . S
H383 C397 0.929 . S
H384 C398 0.931 . S
H385 C400 0.930 . S
C386 H374 0.930 . S
C386 C387 1.399 . S
C386 C391 1.399 . S
C387 C386 1.399 . S
C387 C388 1.376 . S
C388 H375 0.930 . S
C388 C387 1.376 . S
C388 C389 1.388 . S
C389 H376 0.930 . S
C389 C388 1.388 . S
C389 C390 1.390 . S
C390 C389 1.390 . S
C390 C391 1.394 . S
C390 C396 1.465 . S
C391 C386 1.399 . S
C391 C390 1.394 . S
C391 C392 1.516 . S
C392 C391 1.516 . S
C392 C393 1.502 . S
C392 C394 1.561 . S
C392 C395 1.526 . S
C393 H377 0.959 . S
C393 H378 0.959 . S
C393 H379 0.961 . S
C393 C392 1.502 . S
C394 H380 0.960 . S
C394 H381 0.961 . S
C394 H382 0.959 . S
C394 C392 1.561 . S
C395 C392 1.526 . S
C395 C396 1.396 . S
C395 C400 1.390 . S
C396 C390 1.465 . S
C396 C395 1.396 . S
C396 C397 1.399 . S
C397 H383 0.929 . S
C397 C396 1.399 . S
C397 C398 1.385 . S
C398 H384 0.931 . S
C398 C397 1.385 . S
C398 C399 1.389 . S
C399 C398 1.389 . S
C399 C400 1.387 . S
C400 H385 0.930 . S
C400 C395 1.390 . S
C400 C399 1.387 . S
H401 C413 0.930 . S
H402 C415 0.930 . S
H403 C416 0.930 . S
H404 C420 0.959 . S
H405 C420 0.959 . S
H406 C420 0.961 . S
H407 C421 0.960 . S
H408 C421 0.961 . S
H409 C421 0.959 . S
H410 C424 0.929 . S
H411 C425 0.931 . S
H412 C427 0.930 . S
C413 H401 0.930 . S
C413 C414 1.399 . S
C413 C418 1.399 . S
C414 C413 1.399 . S
C414 C415 1.376 . S
C415 H402 0.930 . S
C415 C414 1.376 . S
C415 C416 1.388 . S
C416 H403 0.930 . S
C416 C415 1.388 . S
C416 C417 1.390 . S
C417 C416 1.390 . S
C417 C418 1.394 . S
C417 C423 1.465 . S
C418 C413 1.399 . S
C418 C417 1.394 . S
C418 C419 1.516 . S
C419 C418 1.516 . S
C419 C420 1.502 . S
C419 C421 1.561 . S
C419 C422 1.526 . S
C420 H404 0.959 . S
C420 H405 0.959 . S
C420 H406 0.961 . S
C420 C419 1.502 . S
C421 H407 0.960 . S
C421 H408 0.961 . S
C421 H409 0.959 . S
C421 C419 1.561 . S
C422 C419 1.526 . S
C422 C423 1.396 . S
C422 C427 1.390 . S
C423 C417 1.465 . S
C423 C422 1.396 . S
C423 C424 1.399 . S
C424 H410 0.929 . S
C424 C423 1.399 . S
C424 C425 1.385 . S
C425 H411 0.931 . S
C425 C424 1.385 . S
C425 C426 1.389 . S
C426 C425 1.389 . S
C426 C427 1.387 . S
C427 H412 0.930 . S
C427 C422 1.390 . S
C427 C426 1.387 . S
H428 C440 0.930 . S
H429 C442 0.930 . S
H430 C443 0.930 . S
H431 C447 0.959 . S
H432 C447 0.959 . S
H433 C447 0.961 . S
H434 C448 0.960 . S
H435 C448 0.961 . S
H436 C448 0.959 . S
H437 C451 0.929 . S
H438 C452 0.931 . S
H439 C454 0.930 . S
C440 H428 0.930 . S
C440 C441 1.399 . S
C440 C445 1.399 . S
C441 C440 1.399 . S
C441 C442 1.376 . S
C442 H429 0.930 . S
C442 C441 1.376 . S
C442 C443 1.388 . S
C443 H430 0.930 . S
C443 C442 1.388 . S
C443 C444 1.390 . S
C444 C443 1.390 . S
C444 C445 1.394 . S
C444 C450 1.465 . S
C445 C440 1.399 . S
C445 C444 1.394 . S
C445 C446 1.516 . S
C446 C445 1.516 . S
C446 C447 1.502 . S
C446 C448 1.561 . S
C446 C449 1.526 . S
C447 H431 0.959 . S
C447 H432 0.959 . S
C447 H433 0.961 . S
C447 C446 1.502 . S
C448 H434 0.960 . S
C448 H435 0.961 . S
C448 H436 0.959 . S
C448 C446 1.561 . S
C449 C446 1.526 . S
C449 C450 1.396 . S
C449 C454 1.390 . S
C450 C444 1.465 . S
C450 C449 1.396 . S
C450 C451 1.399 . S
C451 H437 0.929 . S
C451 C450 1.399 . S
C451 C452 1.385 . S
C452 H438 0.931 . S
C452 C451 1.385 . S
C452 C453 1.389 . S
C453 C452 1.389 . S
C453 C454 1.387 . S
C454 H439 0.930 . S
C454 C449 1.390 . S
C454 C453 1.387 . S
H455 C467 0.930 . S
H456 C469 0.930 . S
H457 C470 0.930 . S
H458 C474 0.959 . S
H459 C474 0.959 . S
H460 C474 0.961 . S
H461 C475 0.960 . S
H462 C475 0.961 . S
H463 C475 0.959 . S
H464 C478 0.929 . S
H465 C479 0.931 . S
H466 C481 0.930 . S
C467 H455 0.930 . S
C467 C468 1.399 . S
C467 C472 1.399 . S
C468 C467 1.399 . S
C468 C469 1.376 . S
C469 H456 0.930 . S
C469 C468 1.376 . S
C469 C470 1.388 . S
C470 H457 0.930 . S
C470 C469 1.388 . S
C470 C471 1.390 . S
C471 C470 1.390 . S
C471 C472 1.394 . S
C471 C477 1.465 . S
C472 C467 1.399 . S
C472 C471 1.394 . S
C472 C473 1.516 . S
C473 C472 1.516 . S
C473 C474 1.502 . S
C473 C475 1.561 . S
C473 C476 1.526 . S
C474 H458 0.959 . S
C474 H459 0.959 . S
C474 H460 0.961 . S
C474 C473 1.502 . S
C475 H461 0.960 . S
C475 H462 0.961 . S
C475 H463 0.959 . S
C475 C473 1.561 . S
C476 C473 1.526 . S
C476 C477 1.396 . S
C476 C481 1.390 . S
C477 C471 1.465 . S
C477 C476 1.396 . S
C477 C478 1.399 . S
C478 H464 0.929 . S
C478 C477 1.399 . S
C478 C479 1.385 . S
C479 H465 0.931 . S
C479 C478 1.385 . S
C479 C480 1.389 . S
C480 C479 1.389 . S
C480 C481 1.387 . S
C481 H466 0.930 . S
C481 C476 1.390 . S
C481 C480 1.387 . S
H482 C494 0.930 . S
H483 C496 0.930 . S
H484 C497 0.930 . S
H485 C501 0.959 . S
H486 C501 0.959 . S
H487 C501 0.961 . S
H488 C502 0.960 . S
H489 C502 0.961 . S
H490 C502 0.959 . S
H491 C505 0.929 . S
H492 C506 0.931 . S
H493 C508 0.930 . S
C494 H482 0.930 . S
C494 C495 1.399 . S
C494 C499 1.399 . S
C495 C494 1.399 . S
C495 C496 1.376 . S
C496 H483 0.930 . S
C496 C495 1.376 . S
C496 C497 1.388 . S
C497 H484 0.930 . S
C497 C496 1.388 . S
C497 C498 1.390 . S
C498 C497 1.390 . S
C498 C499 1.394 . S
C498 C504 1.465 . S
C499 C494 1.399 . S
C499 C498 1.394 . S
C499 C500 1.516 . S
C500 C499 1.516 . S
C500 C501 1.502 . S
C500 C502 1.561 . S
C500 C503 1.526 . S
C501 H485 0.959 . S
C501 H486 0.959 . S
C501 H487 0.961 . S
C501 C500 1.502 . S
C502 H488 0.960 . S
C502 H489 0.961 . S
C502 H490 0.959 . S
C502 C500 1.561 . S
C503 C500 1.526 . S
C503 C504 1.396 . S
C503 C508 1.390 . S
C504 C498 1.465 . S
C504 C503 1.396 . S
C504 C505 1.399 . S
C505 H491 0.929 . S
C505 C504 1.399 . S
C505 C506 1.385 . S
C506 H492 0.931 . S
C506 C505 1.385 . S
C506 C507 1.389 . S
C507 C506 1.389 . S
C507 C508 1.387 . S
C508 H493 0.930 . S
C508 C503 1.390 . S
C508 C507 1.387 . S
H509 C521 0.930 . S
H510 C523 0.930 . S
H511 C524 0.930 . S
H512 C528 0.959 . S
H513 C528 0.959 1_554 S
H514 C528 0.961 . S
H515 C529 0.960 . S
H516 C529 0.961 . S
H517 C529 0.959 . S
H518 C532 0.929 . S
H519 C533 0.931 . S
H520 C535 0.930 . S
C521 H509 0.930 . S
C521 C522 1.399 . S
C521 C526 1.399 . S
C522 C521 1.399 . S
C522 C523 1.376 . S
C523 H510 0.930 . S
C523 C522 1.376 . S
C523 C524 1.388 . S
C524 H511 0.930 . S
C524 C523 1.388 . S
C524 C525 1.390 . S
C525 C524 1.390 . S
C525 C526 1.394 . S
C525 C531 1.465 . S
C526 C521 1.399 . S
C526 C525 1.394 . S
C526 C527 1.516 . S
C527 C526 1.516 . S
C527 C528 1.502 . S
C527 C529 1.561 . S
C527 C530 1.526 . S
C528 H512 0.959 . S
C528 H513 0.959 1_556 S
C528 H514 0.961 . S
C528 C527 1.502 . S
C529 H515 0.960 . S
C529 H516 0.961 . S
C529 H517 0.959 . S
C529 C527 1.561 . S
C530 C527 1.526 . S
C530 C531 1.396 . S
C530 C535 1.390 . S
C531 C525 1.465 . S
C531 C530 1.396 . S
C531 C532 1.399 . S
C532 H518 0.929 . S
C532 C531 1.399 . S
C532 C533 1.385 . S
C533 H519 0.931 . S
C533 C532 1.385 . S
C533 C534 1.389 . S
C534 C533 1.389 . S
C534 C535 1.387 . S
C535 H520 0.930 . S
C535 C530 1.390 . S
C535 C534 1.387 . S
H536 C548 0.930 . S
H537 C550 0.930 . S
H538 C551 0.930 . S
H539 C555 0.959 . S
H540 C555 0.959 . S
H541 C555 0.961 . S
H542 C556 0.960 . S
H543 C556 0.961 . S
H544 C556 0.959 . S
H545 C559 0.929 . S
H546 C560 0.931 . S
H547 C562 0.930 . S
C548 H536 0.930 . S
C548 C549 1.399 . S
C548 C553 1.399 . S
C549 C548 1.399 . S
C549 C550 1.376 . S
C550 H537 0.930 . S
C550 C549 1.376 . S
C550 C551 1.388 . S
C551 H538 0.930 . S
C551 C550 1.388 . S
C551 C552 1.390 . S
C552 C551 1.390 . S
C552 C553 1.394 . S
C552 C558 1.465 . S
C553 C548 1.399 . S
C553 C552 1.394 . S
C553 C554 1.516 . S
C554 C553 1.516 . S
C554 C555 1.502 . S
C554 C556 1.561 . S
C554 C557 1.526 . S
C555 H539 0.959 . S
C555 H540 0.959 . S
C555 H541 0.961 . S
C555 C554 1.502 . S
C556 H542 0.960 . S
C556 H543 0.961 . S
C556 H544 0.959 . S
C556 C554 1.561 . S
C557 C554 1.526 . S
C557 C558 1.396 . S
C557 C562 1.390 . S
C558 C552 1.465 . S
C558 C557 1.396 . S
C558 C559 1.399 . S
C559 H545 0.929 . S
C559 C558 1.399 . S
C559 C560 1.385 . S
C560 H546 0.931 . S
C560 C559 1.385 . S
C560 C561 1.389 . S
C561 C560 1.389 . S
C561 C562 1.387 . S
C562 H547 0.930 . S
C562 C557 1.390 . S
C562 C561 1.387 . S
H563 C575 0.930 . S
H564 C577 0.930 . S
H565 C578 0.930 . S
H566 C582 0.959 . S
H567 C582 0.959 . S
H568 C582 0.961 . S
H569 C583 0.960 . S
H570 C583 0.961 . S
H571 C583 0.959 . S
H572 C586 0.929 . S
H573 C587 0.931 . S
H574 C589 0.930 . S
C575 H563 0.930 . S
C575 C576 1.399 . S
C575 C580 1.399 . S
C576 C575 1.399 . S
C576 C577 1.376 . S
C577 H564 0.930 . S
C577 C576 1.376 . S
C577 C578 1.388 . S
C578 H565 0.930 . S
C578 C577 1.388 . S
C578 C579 1.390 . S
C579 C578 1.390 . S
C579 C580 1.394 . S
C579 C585 1.465 . S
C580 C575 1.399 . S
C580 C579 1.394 . S
C580 C581 1.516 . S
C581 C580 1.516 . S
C581 C582 1.502 . S
C581 C583 1.561 . S
C581 C584 1.526 . S
C582 H566 0.959 . S
C582 H567 0.959 . S
C582 H568 0.961 . S
C582 C581 1.502 . S
C583 H569 0.960 . S
C583 H570 0.961 . S
C583 H571 0.959 . S
C583 C581 1.561 . S
C584 C581 1.526 . S
C584 C585 1.396 . S
C584 C589 1.390 . S
C585 C579 1.465 . S
C585 C584 1.396 . S
C585 C586 1.399 . S
C586 H572 0.929 . S
C586 C585 1.399 . S
C586 C587 1.385 . S
C587 H573 0.931 . S
C587 C586 1.385 . S
C587 C588 1.389 . S
C588 C587 1.389 . S
C588 C589 1.387 . S
C589 H574 0.930 . S
C589 C584 1.390 . S
C589 C588 1.387 . S
H590 C602 0.930 . S
H591 C604 0.930 . S
H592 C605 0.930 . S
H593 C609 0.959 . S
H594 C609 0.959 . S
H595 C609 0.961 . S
H596 C610 0.960 . S
H597 C610 0.961 . S
H598 C610 0.959 . S
H599 C613 0.929 . S
H600 C614 0.931 . S
H601 C616 0.930 . S
C602 H590 0.930 . S
C602 C603 1.399 . S
C602 C607 1.399 . S
C603 C602 1.399 . S
C603 C604 1.376 . S
C604 H591 0.930 . S
C604 C603 1.376 . S
C604 C605 1.388 . S
C605 H592 0.930 . S
C605 C604 1.388 . S
C605 C606 1.390 . S
C606 C605 1.390 . S
C606 C607 1.394 . S
C606 C612 1.465 . S
C607 C602 1.399 . S
C607 C606 1.394 . S
C607 C608 1.516 . S
C608 C607 1.516 . S
C608 C609 1.502 . S
C608 C610 1.561 . S
C608 C611 1.526 . S
C609 H593 0.959 . S
C609 H594 0.959 . S
C609 H595 0.961 . S
C609 C608 1.502 . S
C610 H596 0.960 . S
C610 H597 0.961 . S
C610 H598 0.959 . S
C610 C608 1.561 . S
C611 C608 1.526 . S
C611 C612 1.396 . S
C611 C616 1.390 . S
C612 C606 1.465 . S
C612 C611 1.396 . S
C612 C613 1.399 . S
C613 H599 0.929 . S
C613 C612 1.399 . S
C613 C614 1.385 . S
C614 H600 0.931 . S
C614 C613 1.385 . S
C614 C615 1.389 . S
C615 C614 1.389 . S
C615 C616 1.387 . S
C616 H601 0.930 . S
C616 C611 1.390 . S
C616 C615 1.387 . S
H617 C629 0.930 . S
H618 C631 0.930 . S
H619 C632 0.930 . S
H620 C636 0.959 . S
H621 C636 0.959 . S
H622 C636 0.961 . S
H623 C637 0.960 . S
H624 C637 0.961 . S
H625 C637 0.959 . S
H626 C640 0.929 . S
H627 C641 0.931 . S
H628 C643 0.930 . S
C629 H617 0.930 . S
C629 C630 1.399 . S
C629 C634 1.399 . S
C630 C629 1.399 . S
C630 C631 1.376 . S
C631 H618 0.930 . S
C631 C630 1.376 . S
C631 C632 1.388 . S
C632 H619 0.930 . S
C632 C631 1.388 . S
C632 C633 1.390 . S
C633 C632 1.390 . S
C633 C634 1.394 . S
C633 C639 1.465 . S
C634 C629 1.399 . S
C634 C633 1.394 . S
C634 C635 1.516 . S
C635 C634 1.516 . S
C635 C636 1.502 . S
C635 C637 1.561 . S
C635 C638 1.526 . S
C636 H620 0.959 . S
C636 H621 0.959 . S
C636 H622 0.961 . S
C636 C635 1.502 . S
C637 H623 0.960 . S
C637 H624 0.961 . S
C637 H625 0.959 . S
C637 C635 1.561 . S
C638 C635 1.526 . S
C638 C639 1.396 . S
C638 C643 1.390 . S
C639 C633 1.465 . S
C639 C638 1.396 . S
C639 C640 1.399 . S
C640 H626 0.929 . S
C640 C639 1.399 . S
C640 C641 1.385 . S
C641 H627 0.931 . S
C641 C640 1.385 . S
C641 C642 1.389 . S
C642 C641 1.389 . S
C642 C643 1.387 . S
C643 H628 0.930 . S
C643 C638 1.390 . S
C643 C642 1.387 . S
H644 C656 0.930 . S
H645 C658 0.930 . S
H646 C659 0.930 . S
H647 C663 0.959 . S
H648 C663 0.959 . S
H649 C663 0.961 . S
H650 C664 0.960 . S
H651 C664 0.961 . S
H652 C664 0.959 . S
H653 C667 0.929 . S
H654 C668 0.944 . S
H655 C670 0.930 . S
C656 H644 0.930 . S
C656 C657 1.399 . S
C656 C661 1.399 . S
C657 C656 1.399 . S
C657 C658 1.376 . S
C658 H645 0.930 . S
C658 C657 1.376 . S
C658 C659 1.388 . S
C659 H646 0.930 . S
C659 C658 1.388 . S
C659 C660 1.390 . S
C660 C659 1.390 . S
C660 C661 1.394 . S
C660 C666 1.465 . S
C661 C656 1.399 . S
C661 C660 1.394 . S
C661 C662 1.516 . S
C662 C661 1.516 . S
C662 C663 1.502 . S
C662 C664 1.561 . S
C662 C665 1.526 . S
C663 H647 0.959 . S
C663 H648 0.959 . S
C663 H649 0.961 . S
C663 C662 1.502 . S
C664 H650 0.960 . S
C664 H651 0.961 . S
C664 H652 0.959 . S
C664 C662 1.561 . S
C665 C662 1.526 . S
C665 C666 1.396 . S
C665 C670 1.390 . S
C666 C660 1.465 . S
C666 C665 1.396 . S
C666 C667 1.399 . S
C667 H653 0.929 . S
C667 C666 1.399 . S
C667 C668 1.385 . S
C668 H654 0.944 . S
C668 C667 1.385 . S
C668 C669 1.389 . S
C669 C668 1.389 . S
C669 C670 1.387 . S
C670 H655 0.930 . S
C670 C665 1.390 . S
C670 C669 1.387 . S
H671 C683 0.930 . S
H672 C685 0.930 . S
H673 C686 0.930 . S
H674 C690 0.959 . S
H675 C690 0.959 . S
H676 C690 0.961 . S
H677 C691 0.960 1_554 S
H678 C691 0.961 . S
H679 C691 0.959 . S
H680 C694 0.929 . S
H681 C695 0.931 . S
H682 C697 0.930 . S
C683 H671 0.930 . S
C683 C684 1.399 . S
C683 C688 1.399 . S
C684 C683 1.399 . S
C684 C685 1.376 . S
C685 H672 0.930 . S
C685 C684 1.376 . S
C685 C686 1.388 . S
C686 H673 0.930 . S
C686 C685 1.388 . S
C686 C687 1.390 . S
C687 C686 1.390 . S
C687 C688 1.394 . S
C687 C693 1.465 . S
C688 C683 1.399 . S
C688 C687 1.394 . S
C688 C689 1.516 . S
C689 C688 1.516 . S
C689 C690 1.502 . S
C689 C691 1.561 . S
C689 C692 1.526 . S
C690 H674 0.959 . S
C690 H675 0.959 . S
C690 H676 0.961 . S
C690 C689 1.502 . S
C691 H677 0.960 1_556 S
C691 H678 0.961 . S
C691 H679 0.959 . S
C691 C689 1.561 . S
C692 C689 1.526 . S
C692 C693 1.396 . S
C692 C697 1.390 . S
C693 C687 1.465 . S
C693 C692 1.396 . S
C693 C694 1.399 . S
C694 H680 0.929 . S
C694 C693 1.399 . S
C694 C695 1.385 . S
C695 H681 0.931 . S
C695 C694 1.385 . S
C695 C696 1.389 . S
C696 C695 1.389 . S
C696 C697 1.387 . S
C697 H682 0.930 . S
C697 C692 1.390 . S
C697 C696 1.387 . S
H698 C710 0.930 . S
H699 C712 0.930 . S
H700 C713 0.930 . S
H701 C717 0.959 . S
H702 C717 0.959 . S
H703 C717 0.961 . S
H704 C718 0.960 . S
H705 C718 0.961 . S
H706 C718 0.959 . S
H707 C721 0.929 . S
H708 C722 0.931 . S
H709 C724 0.930 . S
C710 H698 0.930 . S
C710 C711 1.399 . S
C710 C715 1.399 . S
C711 C710 1.399 . S
C711 C712 1.376 . S
C712 H699 0.930 . S
C712 C711 1.376 . S
C712 C713 1.388 . S
C713 H700 0.930 . S
C713 C712 1.388 . S
C713 C714 1.390 . S
C714 C713 1.390 . S
C714 C715 1.394 . S
C714 C720 1.465 . S
C715 C710 1.399 . S
C715 C714 1.394 . S
C715 C716 1.516 . S
C716 C715 1.516 . S
C716 C717 1.502 . S
C716 C718 1.561 . S
C716 C719 1.526 . S
C717 H701 0.959 . S
C717 H702 0.959 . S
C717 H703 0.961 . S
C717 C716 1.502 . S
C718 H704 0.960 . S
C718 H705 0.961 . S
C718 H706 0.959 . S
C718 C716 1.561 . S
C719 C716 1.526 . S
C719 C720 1.396 . S
C719 C724 1.390 . S
C720 C714 1.465 . S
C720 C719 1.396 . S
C720 C721 1.399 . S
C721 H707 0.929 . S
C721 C720 1.399 . S
C721 C722 1.385 . S
C722 H708 0.931 . S
C722 C721 1.385 . S
C722 C723 1.389 . S
C723 C722 1.389 . S
C723 C724 1.387 . S
C724 H709 0.930 . S
C724 C719 1.390 . S
C724 C723 1.387 . S
H725 C737 0.930 . S
H726 C739 0.930 . S
H727 C740 0.930 . S
H728 C744 0.959 . S
H729 C744 0.959 . S
H730 C744 0.961 . S
H731 C745 0.960 . S
H732 C745 0.961 . S
H733 C745 0.959 . S
H734 C748 0.929 . S
H735 C749 0.931 . S
H736 C751 0.930 . S
C737 H725 0.930 . S
C737 C738 1.399 . S
C737 C742 1.399 . S
C738 C737 1.399 . S
C738 C739 1.376 . S
C739 H726 0.930 . S
C739 C738 1.376 . S
C739 C740 1.388 . S
C740 H727 0.930 . S
C740 C739 1.388 . S
C740 C741 1.390 . S
C741 C740 1.390 . S
C741 C742 1.394 . S
C741 C747 1.465 . S
C742 C737 1.399 . S
C742 C741 1.394 . S
C742 C743 1.516 . S
C743 C742 1.516 . S
C743 C744 1.502 . S
C743 C745 1.561 . S
C743 C746 1.526 . S
C744 H728 0.959 . S
C744 H729 0.959 . S
C744 H730 0.961 . S
C744 C743 1.502 . S
C745 H731 0.960 . S
C745 H732 0.961 . S
C745 H733 0.959 . S
C745 C743 1.561 . S
C746 C743 1.526 . S
C746 C747 1.396 . S
C746 C751 1.390 . S
C747 C741 1.465 . S
C747 C746 1.396 . S
C747 C748 1.399 . S
C748 H734 0.929 . S
C748 C747 1.399 . S
C748 C749 1.385 . S
C749 H735 0.931 . S
C749 C748 1.385 . S
C749 C750 1.389 . S
C750 C749 1.389 . S
C750 C751 1.387 . S
C751 H736 0.930 . S
C751 C746 1.390 . S
C751 C750 1.387 . S
H752 C764 0.930 . S
H753 C766 0.930 . S
H754 C767 0.930 . S
H755 C771 0.959 . S
H756 C771 0.959 . S
H757 C771 0.961 1_556 S
H758 C772 0.960 . S
H759 C772 0.961 1_554 S
H760 C772 0.959 1_455 S
H761 C775 0.929 . S
H762 C776 0.931 . S
H763 C778 0.930 1_655 S
C764 H752 0.930 . S
C764 C765 1.399 1_565 S
C764 C769 1.399 . S
C765 C764 1.399 1_545 S
C765 C766 1.376 1_655 S
C766 H753 0.930 . S
C766 C765 1.376 1_455 S
C766 C767 1.388 . S
C767 H754 0.930 . S
C767 C766 1.388 . S
C767 C768 1.390 . S
C768 C767 1.390 . S
C768 C769 1.394 1_445 S
C768 C774 1.465 1_556 S
C769 C764 1.399 . S
C769 C768 1.394 1_665 S
C769 C770 1.531 . S
C770 C769 1.531 . S
C770 C771 1.496 1_556 S
C770 C772 1.567 . S
C770 C773 1.511 1_656 S
C771 H755 0.959 . S
C771 H756 0.959 . S
C771 H757 0.961 1_554 S
C771 C770 1.496 1_554 S
C772 H758 0.960 . S
C772 H759 0.961 1_556 S
C772 H760 0.959 1_655 S
C772 C770 1.567 . S
C773 C770 1.511 1_454 S
C773 C774 1.396 1_565 S
C773 C778 1.390 . S
C774 C768 1.465 1_554 S
C774 C773 1.396 1_545 S
C774 C775 1.399 . S
C775 H761 0.929 . S
C775 C774 1.399 . S
C775 C776 1.385 . S
C776 H762 0.931 . S
C776 C775 1.385 . S
C776 C777 1.389 1_545 S
C777 C776 1.389 1_565 S
C777 C778 1.387 . S
C778 H763 0.930 1_455 S
C778 C773 1.390 . S
C778 C777 1.387 . S
H779 C791 0.930 . S
H780 C793 0.930 . S
H781 C794 0.930 . S
H782 C798 0.959 . S
H783 C798 0.959 . S
H784 C798 0.961 . S
H785 C799 0.960 . S
H786 C799 0.961 . S
H787 C799 0.959 . S
H788 C802 0.929 . S
H789 C803 0.931 . S
H790 C805 0.930 . S
C791 H779 0.930 . S
C791 C792 1.399 . S
C791 C796 1.399 . S
C792 C791 1.399 . S
C792 C793 1.376 . S
C793 H780 0.930 . S
C793 C792 1.376 . S
C793 C794 1.388 . S
C794 H781 0.930 . S
C794 C793 1.388 . S
C794 C795 1.390 . S
C795 C794 1.390 . S
C795 C796 1.394 . S
C795 C801 1.465 . S
C796 C791 1.399 . S
C796 C795 1.394 . S
C796 C797 1.516 . S
C797 C796 1.516 . S
C797 C798 1.502 . S
C797 C799 1.561 . S
C797 C800 1.526 . S
C798 H782 0.959 . S
C798 H783 0.959 . S
C798 H784 0.961 . S
C798 C797 1.502 . S
C799 H785 0.960 . S
C799 H786 0.961 . S
C799 H787 0.959 . S
C799 C797 1.561 . S
C800 C797 1.526 . S
C800 C801 1.396 . S
C800 C805 1.390 . S
C801 C795 1.465 . S
C801 C800 1.396 . S
C801 C802 1.399 . S
C802 H788 0.929 . S
C802 C801 1.399 . S
C802 C803 1.385 . S
C803 H789 0.931 . S
C803 C802 1.385 . S
C803 C804 1.389 . S
C804 C803 1.389 . S
C804 C805 1.387 . S
C805 H790 0.930 . S
C805 C800 1.390 . S
C805 C804 1.387 . S
H806 C818 0.930 . S
H807 C820 0.930 . S
H808 C821 0.930 . S
H809 C825 0.959 . S
H810 C825 0.959 . S
H811 C825 0.961 . S
H812 C826 0.960 . S
H813 C826 0.961 . S
H814 C826 0.959 . S
H815 C829 0.929 . S
H816 C830 0.931 . S
H817 C832 0.930 . S
C818 H806 0.930 . S
C818 C819 1.399 1_565 S
C818 C823 1.399 . S
C819 C818 1.399 1_545 S
C819 C820 1.376 . S
C820 H807 0.930 . S
C820 C819 1.376 . S
C820 C821 1.388 . S
C821 H808 0.930 . S
C821 C820 1.388 . S
C821 C822 1.390 . S
C822 C821 1.390 . S
C822 C823 1.394 1_545 S
C822 C828 1.465 . S
C823 C818 1.399 . S
C823 C822 1.394 1_565 S
C823 C824 1.516 . S
C824 C823 1.516 . S
C824 C825 1.502 . S
C824 C826 1.561 . S
C824 C827 1.526 . S
C825 H809 0.959 . S
C825 H810 0.959 . S
C825 H811 0.961 . S
C825 C824 1.502 . S
C826 H812 0.960 . S
C826 H813 0.961 . S
C826 H814 0.959 . S
C826 C824 1.561 . S
C827 C824 1.526 . S
C827 C828 1.396 1_565 S
C827 C832 1.390 . S
C828 C822 1.465 . S
C828 C827 1.396 1_545 S
C828 C829 1.399 . S
C829 H815 0.929 . S
C829 C828 1.399 . S
C829 C830 1.385 . S
C830 H816 0.931 . S
C830 C829 1.385 . S
C830 C831 1.389 1_545 S
C831 C830 1.389 1_565 S
C831 C832 1.387 . S
C832 H817 0.930 . S
C832 C827 1.390 . S
C832 C831 1.387 . S
H833 C845 0.930 . S
H834 C847 0.930 . S
H835 C848 0.930 . S
H836 C852 0.959 . S
H837 C852 0.959 . S
H838 C852 0.961 . S
H839 C853 0.960 . S
H840 C853 0.961 . S
H841 C853 0.959 . S
H842 C856 0.929 . S
H843 C857 0.931 . S
H844 C859 0.930 . S
C845 H833 0.930 . S
C845 C846 1.399 . S
C845 C850 1.399 . S
C846 C845 1.399 . S
C846 C847 1.376 . S
C847 H834 0.930 . S
C847 C846 1.376 . S
C847 C848 1.388 . S
C848 H835 0.930 . S
C848 C847 1.388 . S
C848 C849 1.390 . S
C849 C848 1.390 . S
C849 C850 1.394 . S
C849 C855 1.465 . S
C850 C845 1.399 . S
C850 C849 1.394 . S
C850 C851 1.516 . S
C851 C850 1.516 . S
C851 C852 1.502 . S
C851 C853 1.561 . S
C851 C854 1.526 . S
C852 H836 0.959 . S
C852 H837 0.959 . S
C852 H838 0.961 . S
C852 C851 1.502 . S
C853 H839 0.960 . S
C853 H840 0.961 . S
C853 H841 0.959 . S
C853 C851 1.561 . S
C854 C851 1.526 . S
C854 C855 1.396 . S
C854 C859 1.390 . S
C855 C849 1.465 . S
C855 C854 1.396 . S
C855 C856 1.399 . S
C856 H842 0.929 . S
C856 C855 1.399 . S
C856 C857 1.385 . S
C857 H843 0.931 . S
C857 C856 1.385 . S
C857 C858 1.389 . S
C858 C857 1.389 . S
C858 C859 1.387 . S
C859 H844 0.930 . S
C859 C854 1.390 . S
C859 C858 1.387 . S
H860 C872 0.930 . S
H861 C874 0.930 . S
H862 C875 0.930 . S
H863 C879 0.959 . S
H864 C879 0.959 . S
H865 C879 0.961 . S
H866 C880 0.960 . S
H867 C880 0.961 . S
H868 C880 0.959 . S
H869 C883 0.929 . S
H870 C884 0.931 . S
H871 C886 0.930 . S
C872 H860 0.930 . S
C872 C873 1.399 . S
C872 C877 1.399 . S
C873 C872 1.399 . S
C873 C874 1.376 . S
C874 H861 0.930 . S
C874 C873 1.376 . S
C874 C875 1.388 . S
C875 H862 0.930 . S
C875 C874 1.388 . S
C875 C876 1.390 . S
C876 C875 1.390 . S
C876 C877 1.394 . S
C876 C882 1.465 . S
C877 C872 1.399 . S
C877 C876 1.394 . S
C877 C878 1.516 . S
C878 C877 1.516 . S
C878 C879 1.502 . S
C878 C880 1.561 . S
C878 C881 1.526 . S
C879 H863 0.959 . S
C879 H864 0.959 . S
C879 H865 0.961 . S
C879 C878 1.502 . S
C880 H866 0.960 . S
C880 H867 0.961 . S
C880 H868 0.959 . S
C880 C878 1.561 . S
C881 C878 1.526 . S
C881 C882 1.396 . S
C881 C886 1.390 . S
C882 C876 1.465 . S
C882 C881 1.396 . S
C882 C883 1.399 . S
C883 H869 0.929 . S
C883 C882 1.399 . S
C883 C884 1.385 . S
C884 H870 0.931 . S
C884 C883 1.385 . S
C884 C885 1.389 . S
C885 C884 1.389 . S
C885 C886 1.387 . S
C886 H871 0.930 . S
C886 C881 1.390 . S
C886 C885 1.387 . S
H887 C899 0.930 . S
H888 C901 0.930 . S
H889 C902 0.930 . S
H890 C906 0.959 . S
H891 C906 0.959 . S
H892 C906 0.961 . S
H893 C907 0.960 . S
H894 C907 0.961 . S
H895 C907 0.959 . S
H896 C910 0.929 . S
H897 C911 0.931 . S
H898 C913 0.930 . S
C899 H887 0.930 . S
C899 C900 1.399 . S
C899 C904 1.399 . S
C900 C899 1.399 . S
C900 C901 1.376 . S
C901 H888 0.930 . S
C901 C900 1.376 . S
C901 C902 1.388 . S
C902 H889 0.930 . S
C902 C901 1.388 . S
C902 C903 1.390 . S
C903 C902 1.390 . S
C903 C904 1.394 . S
C903 C909 1.465 . S
C904 C899 1.399 . S
C904 C903 1.394 . S
C904 C905 1.516 . S
C905 C904 1.516 . S
C905 C906 1.502 . S
C905 C907 1.561 . S
C905 C908 1.526 . S
C906 H890 0.959 . S
C906 H891 0.959 . S
C906 H892 0.961 . S
C906 C905 1.502 . S
C907 H893 0.960 . S
C907 H894 0.961 . S
C907 H895 0.959 . S
C907 C905 1.561 . S
C908 C905 1.526 . S
C908 C909 1.396 . S
C908 C913 1.390 . S
C909 C903 1.465 . S
C909 C908 1.396 . S
C909 C910 1.399 . S
C910 H896 0.929 . S
C910 C909 1.399 . S
C910 C911 1.385 . S
C911 H897 0.931 . S
C911 C910 1.385 . S
C911 C912 1.389 . S
C912 C911 1.389 . S
C912 C913 1.387 . S
C913 H898 0.930 . S
C913 C908 1.390 . S
C913 C912 1.387 . S
H914 C926 0.930 . S
H915 C928 0.930 . S
H916 C929 0.930 . S
H917 C933 0.959 . S
H918 C933 0.959 . S
H919 C933 0.961 . S
H920 C934 0.960 . S
H921 C934 0.961 . S
H922 C934 0.959 . S
H923 C937 0.929 . S
H924 C938 0.931 . S
H925 C940 0.930 . S
C926 H914 0.930 . S
C926 C927 1.399 . S
C926 C931 1.399 . S
C927 C926 1.399 . S
C927 C928 1.376 . S
C928 H915 0.930 . S
C928 C927 1.376 . S
C928 C929 1.388 . S
C929 H916 0.930 . S
C929 C928 1.388 . S
C929 C930 1.390 . S
C930 C929 1.390 . S
C930 C931 1.394 . S
C930 C936 1.465 . S
C931 C926 1.399 . S
C931 C930 1.394 . S
C931 C932 1.516 . S
C932 C931 1.516 . S
C932 C933 1.502 . S
C932 C934 1.561 . S
C932 C935 1.526 . S
C933 H917 0.959 . S
C933 H918 0.959 . S
C933 H919 0.961 . S
C933 C932 1.502 . S
C934 H920 0.960 . S
C934 H921 0.961 . S
C934 H922 0.959 . S
C934 C932 1.561 . S
C935 C932 1.526 . S
C935 C936 1.396 . S
C935 C940 1.390 . S
C936 C930 1.465 . S
C936 C935 1.396 . S
C936 C937 1.399 . S
C937 H923 0.929 . S
C937 C936 1.399 . S
C937 C938 1.385 . S
C938 H924 0.931 . S
C938 C937 1.385 . S
C938 C939 1.389 . S
C939 C938 1.389 . S
C939 C940 1.387 . S
C940 H925 0.930 . S
C940 C935 1.390 . S
C940 C939 1.387 . S
H941 C953 0.930 . S
H942 C955 0.930 . S
H943 C956 0.930 . S
H944 C960 0.959 . S
H945 C960 0.959 . S
H946 C960 0.961 1_556 S
H947 C961 0.960 . S
H948 C961 0.976 . S
H949 C961 0.959 . S
H950 C964 0.929 . S
H951 C965 0.931 . S
H952 C967 0.930 . S
C953 H941 0.930 . S
C953 C954 1.399 . S
C953 C958 1.399 . S
C954 C953 1.399 . S
C954 C955 1.376 . S
C955 H942 0.930 . S
C955 C954 1.376 . S
C955 C956 1.388 1_455 S
C956 H943 0.930 . S
C956 C955 1.388 1_655 S
C956 C957 1.390 . S
C957 C956 1.390 . S
C957 C958 1.394 1_655 S
C957 C963 1.465 1_556 S
C958 C953 1.399 . S
C958 C957 1.394 1_455 S
C958 C959 1.516 . S
C959 C958 1.516 . S
C959 C960 1.502 1_556 S
C959 C961 1.561 1_455 S
C959 C962 1.526 1_456 S
C960 H944 0.959 . S
C960 H945 0.959 . S
C960 H946 0.961 1_554 S
C960 C959 1.502 1_554 S
C961 H947 0.960 . S
C961 H948 0.976 . S
C961 H949 0.959 . S
C961 C959 1.561 1_655 S
C962 C959 1.526 1_654 S
C962 C963 1.396 . S
C962 C967 1.390 . S
C963 C957 1.465 1_554 S
C963 C962 1.396 . S
C963 C964 1.399 . S
C964 H950 0.929 . S
C964 C963 1.399 . S
C964 C965 1.385 . S
C965 H951 0.931 . S
C965 C964 1.385 . S
C965 C966 1.389 . S
C966 C965 1.389 . S
C966 C967 1.387 . S
C967 H952 0.930 . S
C967 C962 1.390 . S
C967 C966 1.387 . S
C333 C31 1.508 . S
C345 C143 1.502 . S
C360 C23 1.493 . S
C372 C71 1.521 . S
C387 C63 1.489 . S
C399 C111 1.524 . S
C414 C103 1.494 . S
C426 C151 1.519 . S
C441 C20 1.508 . S
C453 C202 1.520 . S
C468 C2 1.509 . S
C480 C180 1.518 . S
C495 C162 1.493 . S
C507 C100 1.518 . S
C522 C220 1.510 . S
C534 C82 1.525 . S
C549 C271 1.520 . S
C561 C223 1.514 . S
C576 C191 1.508 . S
C588 C263 1.517 . S
C603 C311 1.521 . S
C615 C183 1.510 . S
C630 C231 1.518 . S
C642 C303 1.491 . S
C657 C122 1.516 . S
C669 C260 1.513 . S
C684 C242 1.507 . S
C696 C60 1.519 . S
C711 C42 1.490 . S
C723 C300 1.520 . S
C738 C140 1.508 . S
C750 C282 1.521 . S
C765 C4 1.492 . S
C777 C25 1.510 . S
C792 C65 1.512 . S
C804 C44 1.512 . S
C819 C105 1.533 . S
C831 C84 1.489 . S
C846 C145 1.512 . S
C858 C124 1.491 . S
C873 C185 1.517 . S
C885 C164 1.507 . S
C900 C225 1.501 . S
C912 C204 1.523 . S
C927 C265 1.540 . S
C939 C244 1.478 . S
C954 C284 1.502 . S
C966 C305 1.500 . S
