# Generated by pormake.
# Topology ukg, (4)-cn, num edge types: 1
# Building blocks:
#     Node 0, Type 0, BuildingBlock: KUFVIS_clean_sbu_0, # of connection points: 4
#     Node 1, Type 0, BuildingBlock: KUFVIS_clean_sbu_0, # of connection points: 4
#     Node 2, Type 0, BuildingBlock: KUFVIS_clean_sbu_0, # of connection points: 4
#     Node 3, Type 0, BuildingBlock: KUFVIS_clean_sbu_0, # of connection points: 4
#     Node 4, Type 0, BuildingBlock: KUFVIS_clean_sbu_0, # of connection points: 4
#     Node 5, Type 0, BuildingBlock: KUFVIS_clean_sbu_0, # of connection points: 4
#     Node 6, Type 0, BuildingBlock: KUFVIS_clean_sbu_0, # of connection points: 4
#     Node 7, Type 0, BuildingBlock: KUFVIS_clean_sbu_0, # of connection points: 4
#     Edge 8, Type (0, 0), BuildingBlock: KIFKEQ_clean_linker_1, # of connection points: 2
#     Edge 9, Type (0, 0), BuildingBlock: KIFKEQ_clean_linker_1, # of connection points: 2
#     Edge 10, Type (0, 0), BuildingBlock: KIFKEQ_clean_linker_1, # of connection points: 2
#     Edge 11, Type (0, 0), BuildingBlock: KIFKEQ_clean_linker_1, # of connection points: 2
#     Edge 12, Type (0, 0), BuildingBlock: KIFKEQ_clean_linker_1, # of connection points: 2
#     Edge 13, Type (0, 0), BuildingBlock: KIFKEQ_clean_linker_1, # of connection points: 2
#     Edge 14, Type (0, 0), BuildingBlock: KIFKEQ_clean_linker_1, # of connection points: 2
#     Edge 15, Type (0, 0), BuildingBlock: KIFKEQ_clean_linker_1, # of connection points: 2
#     Edge 16, Type (0, 0), BuildingBlock: KIFKEQ_clean_linker_1, # of connection points: 2
#     Edge 17, Type (0, 0), BuildingBlock: KIFKEQ_clean_linker_1, # of connection points: 2
#     Edge 18, Type (0, 0), BuildingBlock: KIFKEQ_clean_linker_1, # of connection points: 2
#     Edge 19, Type (0, 0), BuildingBlock: KIFKEQ_clean_linker_1, # of connection points: 2
#     Edge 20, Type (0, 0), BuildingBlock: KIFKEQ_clean_linker_1, # of connection points: 2
#     Edge 21, Type (0, 0), BuildingBlock: KIFKEQ_clean_linker_1, # of connection points: 2
#     Edge 22, Type (0, 0), BuildingBlock: KIFKEQ_clean_linker_1, # of connection points: 2
#     Edge 23, Type (0, 0), BuildingBlock: KIFKEQ_clean_linker_1, # of connection points: 2
# Relax obj value: 0.155
# Max RMSD: 0.245
# Mean RMSD: 0.245
data_MOF--net-ukg--node1-KUFVIS_clean_sbu_0--edge1-KIFKEQ_clean_linker_1
_symmetry_space_group_name_H-M    P1
_symmetry_Int_Tables_number       1
_symmetry_cell_setting            triclinic
loop_
_symmetry_equiv_pos_as_xyz
'x, y, z'
_cell_length_a     31.050676
_cell_length_b     31.03356
_cell_length_c     36.393107
_cell_angle_alpha  89.966169
_cell_angle_beta   89.994091
_cell_angle_gamma 89.972303
loop_
_atom_site_label
_atom_site_type_symbol
_atom_site_fract_x
_atom_site_fract_y
_atom_site_fract_z
_atom_type_partial_charge
Mn0 Mn 0.00867 0.67247 0.15854 0.0
Mn1 Mn 0.01368 0.73372 0.08203 0.0
C2 C 0.00141 0.7458 0.16341 0.0
C3 C 0.96736 0.63099 0.19855 0.0
C4 C 0.09264 0.7009 0.12186 0.0
O5 O 0.00353 0.62856 0.11754 0.0
O6 O 0.00517 0.67197 0.06809 0.0
C7 C 0.92317 0.72221 0.05853 0.0
N8 N 0.95613 0.74869 0.06845 0.0
C9 C 0.91116 0.81146 0.06229 0.0
C10 C 0.87682 0.78488 0.05172 0.0
C11 C 0.88285 0.74007 0.04988 0.0
C12 C 0.95066 0.79185 0.07039 0.0
H13 H 0.92757 0.68772 0.05736 0.0
C14 C 0.00247 0.63457 0.08293 0.0
O15 O 0.00886 0.62572 0.19661 0.0
O16 O 0.95026 0.6587 0.1763 0.0
N17 N 0.02167 0.79401 0.09072 0.0
C18 C 0.05789 0.81506 0.1019 0.0
C19 C 0.05705 0.86008 0.10574 0.0
C20 C 0.0192 0.883 0.09765 0.0
C21 C 0.98264 0.86073 0.08539 0.0
C22 C 0.98548 0.81588 0.08185 0.0
H23 H 0.08704 0.79761 0.10827 0.0
O24 O 0.01065 0.72256 0.19192 0.0
O25 O 0.99431 0.72504 0.1328 0.0
O26 O 0.07306 0.68082 0.14764 0.0
O27 O 0.07369 0.72059 0.09555 0.0
C28 C 0.94332 0.88119 0.07708 0.0
C29 C 0.90759 0.85657 0.06557 0.0
H30 H 0.84561 0.79851 0.04521 0.0
H31 H 0.85644 0.71932 0.04194 0.0
H32 H 0.08544 0.87704 0.11509 0.0
H33 H 0.01856 0.91768 0.10097 0.0
H34 H 0.9401 0.9158 0.07972 0.0
H35 H 0.87743 0.87263 0.05954 0.0
Mn36 Mn 0.32257 0.51293 0.65817 0.0
Mn37 Mn 0.26355 0.51402 0.58045 0.0
C38 C 0.24947 0.50142 0.66115 0.0
C39 C 0.36402 0.47379 0.69988 0.0
C40 C 0.29239 0.59499 0.61986 0.0
O41 O 0.36803 0.50964 0.61803 0.0
O42 O 0.32571 0.50649 0.56785 0.0
C43 C 0.27777 0.42348 0.55795 0.0
N44 N 0.2503 0.45593 0.56723 0.0
C45 C 0.18884 0.40937 0.56058 0.0
C46 C 0.21645 0.37556 0.55066 0.0
C47 C 0.26111 0.38265 0.54937 0.0
C48 C 0.20727 0.44947 0.56852 0.0
H49 H 0.31214 0.42867 0.55725 0.0
C50 C 0.36281 0.50637 0.58336 0.0
O51 O 0.36763 0.51548 0.6977 0.0
O52 O 0.33837 0.45532 0.67673 0.0
N53 N 0.20297 0.52057 0.58849 0.0
C54 C 0.18092 0.55606 0.60003 0.0
C55 C 0.13595 0.55399 0.60373 0.0
C56 C 0.11413 0.5156 0.59534 0.0
C57 C 0.13745 0.4797 0.58306 0.0
C58 C 0.18219 0.48377 0.57958 0.0
H59 H 0.19752 0.58558 0.60673 0.0
O60 O 0.27089 0.51266 0.69015 0.0
O61 O 0.27193 0.4955 0.63132 0.0
O62 O 0.3117 0.5766 0.64662 0.0
O63 O 0.27477 0.57484 0.59317 0.0
C64 C 0.11816 0.43979 0.57477 0.0
C65 C 0.14384 0.40465 0.56355 0.0
H66 H 0.20375 0.34393 0.54428 0.0
H67 H 0.28265 0.35664 0.54196 0.0
H68 H 0.11818 0.58184 0.61324 0.0
H69 H 0.07949 0.51401 0.59859 0.0
H70 H 0.08366 0.43563 0.5773 0.0
H71 H 0.12868 0.374 0.55762 0.0
Mn72 Mn 0.48594 0.82208 0.15493 0.0
Mn73 Mn 0.47883 0.76473 0.0766 0.0
C74 C 0.49451 0.74857 0.15663 0.0
C75 C 0.52872 0.8611 0.19561 0.0
C76 C 0.40099 0.79488 0.1195 0.0
O77 O 0.4895 0.86824 0.11545 0.0
O78 O 0.48626 0.82718 0.0646 0.0
C79 C 0.56813 0.77827 0.05061 0.0
N80 N 0.53593 0.75101 0.06086 0.0
C81 C 0.58143 0.68911 0.05188 0.0
C82 C 0.61498 0.71651 0.04094 0.0
C83 C 0.60829 0.76128 0.04033 0.0
C84 C 0.54202 0.70788 0.06154 0.0
H85 H 0.56326 0.81272 0.0504 0.0
C86 C 0.48936 0.86387 0.08062 0.0
O87 O 0.48716 0.86646 0.19506 0.0
O88 O 0.54493 0.83502 0.17159 0.0
N89 N 0.47191 0.70404 0.08389 0.0
C90 C 0.43666 0.68216 0.09615 0.0
C91 C 0.43835 0.63708 0.09913 0.0
C92 C 0.47609 0.61496 0.08925 0.0
C93 C 0.5117 0.63812 0.07618 0.0
C94 C 0.50802 0.68299 0.0735 0.0
H95 H 0.40764 0.699 0.10398 0.0
O96 O 0.48543 0.76992 0.18622 0.0
O97 O 0.50015 0.77132 0.12687 0.0
O98 O 0.42126 0.81393 0.14541 0.0
O99 O 0.41921 0.77655 0.09216 0.0
C100 C 0.55094 0.6185 0.06624 0.0
C101 C 0.58578 0.64398 0.05411 0.0
H102 H 0.64609 0.70355 0.03323 0.0
H103 H 0.63409 0.78265 0.03213 0.0
H104 H 0.41071 0.61944 0.10921 0.0
H105 H 0.4774 0.58022 0.09192 0.0
H106 H 0.55479 0.58388 0.06812 0.0
H107 H 0.61591 0.62856 0.04686 0.0
Mn108 Mn 0.17361 0.98816 0.65918 0.0
Mn109 Mn 0.23264 0.98743 0.58148 0.0
C110 C 0.24674 -0.00054 0.66222 0.0
C111 C 0.13219 0.02728 0.70086 0.0
C112 C 0.20332 0.90628 0.62053 0.0
O113 O 0.12821 0.99181 0.61904 0.0
O114 O 0.17056 0.99571 0.56889 0.0
C115 C 0.21933 0.07832 0.55951 0.0
N116 N 0.24647 0.04551 0.56859 0.0
C117 C 0.30839 0.09153 0.56226 0.0
C118 C 0.28112 0.1257 0.55252 0.0
C119 C 0.2364 0.11906 0.55117 0.0
C120 C 0.28956 0.05153 0.56995 0.0
H121 H 0.1849 0.07348 0.55878 0.0
C122 C 0.13346 0.9957 0.58442 0.0
O123 O 0.12845 0.98561 0.69865 0.0
O124 O 0.158 0.04573 0.67781 0.0
N125 N 0.29313 0.98024 0.58959 0.0
C126 C 0.31482 0.94449 0.60107 0.0
C127 C 0.35978 0.94611 0.60489 0.0
C128 C 0.382 0.98434 0.59668 0.0
C129 C 0.35905 0.02055 0.58448 0.0
C130 C 0.31429 0.01691 0.58088 0.0
H131 H 0.29792 0.91508 0.60764 0.0
O132 O 0.22528 0.98811 0.69119 0.0
O133 O 0.22429 0.00557 0.63242 0.0
O134 O 0.18429 0.92455 0.64747 0.0
O135 O 0.22084 0.92658 0.59384 0.0
C136 C 0.37873 0.06034 0.57643 0.0
C137 C 0.35342 0.0958 0.56534 0.0
H138 H 0.29413 0.15727 0.54635 0.0
H139 H 0.21512 0.14535 0.54391 0.0
H140 H 0.37726 0.91803 0.61434 0.0
H141 H 0.41664 0.98559 0.60003 0.0
H142 H 0.41327 0.06415 0.57906 0.0
H143 H 0.36889 0.12636 0.55961 0.0
Mn144 Mn 0.98391 0.32649 0.84749 0.0
Mn145 Mn 0.98417 0.26886 0.92592 0.0
C146 C 0.99627 0.25345 0.8453 0.0
C147 C 0.02239 0.36767 0.8053 0.0
C148 C 0.90258 0.29607 0.88658 0.0
O149 O 0.98684 0.37269 0.88694 0.0
O150 O 0.99075 0.33143 0.93772 0.0
C151 C 0.07458 0.28483 0.94778 0.0
N152 N 0.04255 0.2567 0.93896 0.0
C153 C 0.09023 0.19607 0.94578 0.0
C154 C 0.12364 0.22437 0.95523 0.0
C155 C 0.11576 0.26894 0.9562 0.0
C156 C 0.04976 0.21375 0.93797 0.0
H157 H 0.06878 0.31913 0.94823 0.0
C158 C 0.99023 0.36825 0.92165 0.0
O159 O 0.98069 0.37095 0.80746 0.0
O160 O 0.04118 0.34249 0.82867 0.0
N161 N 0.97855 0.20804 0.91865 0.0
C162 C 0.94333 0.18525 0.90763 0.0
C163 C 0.94614 0.14026 0.90433 0.0
C164 C 0.98499 0.11916 0.91259 0.0
C165 C 0.02061 0.14324 0.92434 0.0
C166 C 0.0158 0.18796 0.92742 0.0
H167 H 0.91347 0.2013 0.90101 0.0
O168 O 0.98455 0.27432 0.81613 0.0
O169 O 0.00214 0.27648 0.87484 0.0
O170 O 0.92052 0.31516 0.85949 0.0
O171 O 0.92313 0.27902 0.91335 0.0
C172 C 0.06093 0.1247 0.93248 0.0
C173 C 0.09571 0.1511 0.94318 0.0
H174 H 0.15553 0.21226 0.96148 0.0
H175 H 0.14145 0.291 0.96325 0.0
H176 H 0.9185 0.1219 0.89524 0.0
H177 H 0.98715 0.08449 0.90966 0.0
H178 H 0.06566 0.09022 0.93023 0.0
H179 H 0.12667 0.13651 0.94901 0.0
Mn180 Mn 0.66467 0.48138 0.34334 0.0
Mn181 Mn 0.72515 0.47898 0.42019 0.0
C182 C 0.73786 0.49179 0.33947 0.0
C183 C 0.62345 0.52075 0.30175 0.0
C184 C 0.69456 0.39868 0.38108 0.0
O185 O 0.61999 0.48625 0.38396 0.0
O186 O 0.66316 0.48594 0.43368 0.0
C187 C 0.71105 0.56918 0.4437 0.0
N188 N 0.73845 0.53697 0.43372 0.0
C189 C 0.79983 0.58377 0.43959 0.0
C190 C 0.7723 0.61736 0.45022 0.0
C191 C 0.72772 0.61002 0.45226 0.0
C192 C 0.78141 0.54365 0.43172 0.0
H193 H 0.67673 0.5638 0.44499 0.0
C194 C 0.62582 0.48778 0.41864 0.0
O195 O 0.61901 0.47919 0.30438 0.0
O196 O 0.64978 0.53905 0.32446 0.0
N197 N 0.78558 0.47275 0.41126 0.0
C198 C 0.80751 0.43747 0.39911 0.0
C199 C 0.85237 0.43978 0.39465 0.0
C200 C 0.87421 0.47821 0.4029 0.0
C201 C 0.85101 0.5139 0.4158 0.0
C202 C 0.80639 0.50958 0.42003 0.0
H203 H 0.79087 0.40794 0.39248 0.0
O204 O 0.71588 0.48034 0.31083 0.0
O205 O 0.71596 0.49812 0.36955 0.0
O206 O 0.67431 0.41751 0.35507 0.0
O207 O 0.71383 0.41839 0.40714 0.0
C208 C 0.8703 0.55384 0.42399 0.0
C209 C 0.84473 0.58875 0.43587 0.0
H210 H 0.78499 0.649 0.45657 0.0
H211 H 0.70624 0.63585 0.46023 0.0
H212 H 0.87004 0.4121 0.38466 0.0
H213 H 0.90876 0.48 0.39905 0.0
H214 H 0.90472 0.55819 0.42088 0.0
H215 H 0.85988 0.61942 0.44172 0.0
Mn216 Mn 0.51049 0.17559 0.84914 0.0
Mn217 Mn 0.50995 0.23321 0.92752 0.0
C218 C 0.49804 0.24859 0.84681 0.0
C219 C 0.47233 0.13424 0.80696 0.0
C220 C 0.59168 0.20638 0.88821 0.0
O221 O 0.50753 0.12943 0.88862 0.0
O222 O 0.50362 0.17057 0.93942 0.0
C223 C 0.41959 0.21682 0.94931 0.0
N224 N 0.45148 0.24509 0.94045 0.0
C225 C 0.40344 0.30547 0.94698 0.0
C226 C 0.37017 0.27702 0.95646 0.0
C227 C 0.37829 0.2325 0.9576 0.0
C228 C 0.44403 0.28799 0.9393 0.0
H229 H 0.42557 0.18254 0.94991 0.0
C230 C 0.50416 0.13378 0.92334 0.0
O231 O 0.51404 0.13111 0.80923 0.0
O232 O 0.45335 0.15941 0.83021 0.0
N233 N 0.5153 0.29406 0.92018 0.0
C234 C 0.55046 0.31704 0.90928 0.0
C235 C 0.54743 0.36201 0.9059 0.0
C236 C 0.50842 0.3829 0.91395 0.0
C237 C 0.47285 0.35864 0.9256 0.0
C238 C 0.47789 0.31395 0.92877 0.0
H239 H 0.58045 0.30114 0.90283 0.0
O240 O 0.50985 0.22769 0.8177 0.0
O241 O 0.49208 0.22559 0.87639 0.0
O242 O 0.57379 0.1871 0.86122 0.0
O243 O 0.57108 0.22337 0.91498 0.0
C244 C 0.4324 0.37697 0.93358 0.0
C245 C 0.39772 0.35041 0.94425 0.0
H246 H 0.33818 0.28896 0.96262 0.0
H247 H 0.35271 0.21032 0.96469 0.0
H248 H 0.57502 0.38051 0.8969 0.0
H249 H 0.50609 0.41755 0.91096 0.0
H250 H 0.42751 0.41143 0.93126 0.0
H251 H 0.36667 0.36484 0.94998 0.0
Mn252 Mn 0.83437 0.013 0.34232 0.0
Mn253 Mn 0.77205 0.00628 0.41807 0.0
C254 C 0.76361 0.99266 0.33652 0.0
C255 C 0.88416 0.98067 0.30357 0.0
C256 C 0.79263 0.09041 0.37972 0.0
O257 O 0.87763 0.01534 0.38412 0.0
O258 O 0.83403 0.00569 0.43284 0.0
C259 C 0.79544 0.91752 0.4402 0.0
N260 N 0.76488 0.94684 0.43038 0.0
C261 C 0.70884 0.89354 0.43464 0.0
C262 C 0.73966 0.86285 0.4451 0.0
C263 C 0.78315 0.8749 0.44785 0.0
C264 C 0.72296 0.93558 0.42759 0.0
H265 H 0.82895 0.92655 0.44205 0.0
C266 C 0.87147 0.0104 0.4185 0.0
O267 O 0.88056 0.02236 0.30483 0.0
O268 O 0.85969 0.9582 0.32509 0.0
N269 N 0.71149 0.00615 0.40824 0.0
C270 C 0.68593 0.03936 0.39701 0.0
C271 C 0.64159 0.03244 0.39225 0.0
C272 C 0.62394 0.99163 0.3994 0.0
C273 C 0.65074 0.95819 0.41163 0.0
C274 C 0.69463 0.96708 0.41618 0.0
H275 H 0.69931 0.07077 0.39133 0.0
O276 O 0.78521 0.00593 0.30824 0.0
O277 O 0.78488 0.9894 0.36732 0.0
O278 O 0.81448 0.0746 0.35321 0.0
O279 O 0.77696 0.06817 0.40611 0.0
C280 C 0.63574 0.91621 0.41894 0.0
C281 C 0.66478 0.8839 0.4304 0.0
H282 H 0.73035 0.82989 0.45081 0.0
H283 H 0.80717 0.85134 0.4557 0.0
H284 H 0.6211 0.05845 0.3829 0.0
H285 H 0.5898 0.98631 0.39534 0.0
H286 H 0.602 0.90833 0.41553 0.0
H287 H 0.65292 0.85165 0.43561 0.0
H288 H 0.97038 0.45125 0.90218 0.0
H289 H 0.01583 0.37471 0.9935 0.0
H290 H 0.97177 0.51534 0.94065 0.0
H291 H 0.01888 0.43904 0.03159 0.0
H292 H 0.97889 0.5525 0.10195 0.0
H293 H 0.97539 0.48912 0.06281 0.0
H294 H 0.01675 0.5657 0.97004 0.0
H295 H 0.01854 0.62945 0.00896 0.0
C296 C 0.98115 0.44814 0.93037 0.0
C297 C 0.99285 0.40769 0.94473 0.0
C298 C 0.98214 0.48504 0.95246 0.0
C299 C 0.99532 0.48263 0.98942 0.0
C300 C 0.00766 0.4422 0.00355 0.0
C301 C 0.00621 0.40523 0.98158 0.0
C302 C 0.98709 0.55589 0.07316 0.0
C303 C -0.00097 0.59618 0.05867 0.0
C304 C 0.9854 0.51937 0.05069 0.0
C305 C 0.99609 0.52195 0.01316 0.0
C306 C 0.00769 0.56239 0.99863 0.0
C307 C 0.00892 0.59904 0.02103 0.0
H308 H 0.44641 0.52576 0.60092 0.0
H309 H 0.36713 0.47916 0.51188 0.0
H310 H 0.50947 0.52258 0.5613 0.0
H311 H 0.4304 0.47423 0.47267 0.0
H312 H 0.54336 0.51047 0.39973 0.0
H313 H 0.48057 0.51553 0.43954 0.0
H314 H 0.55825 0.47598 0.53221 0.0
H315 H 0.62129 0.47271 0.49268 0.0
C316 C 0.44249 0.51436 0.573 0.0
C317 C 0.4016 0.50284 0.55962 0.0
C318 C 0.47878 0.51232 0.55024 0.0
C319 C 0.47529 0.49818 0.51359 0.0
C320 C 0.4344 0.48612 0.50042 0.0
C321 C 0.39804 0.48866 0.52304 0.0
C322 C 0.54707 0.50294 0.42862 0.0
C323 C 0.58748 0.49122 0.44294 0.0
C324 C 0.51091 0.50555 0.45149 0.0
C325 C 0.51404 0.49602 0.48925 0.0
C326 C 0.55454 0.48429 0.50349 0.0
C327 C 0.59078 0.48218 0.48071 0.0
H328 H 0.5127 0.94546 0.10162 0.0
H329 H 0.47231 0.87176 0.00704 0.0
H330 H 0.51671 0.01003 0.06378 0.0
H331 H 0.47461 0.93658 0.96951 0.0
H332 H 0.52331 0.05087 0.90341 0.0
H333 H 0.52091 0.98634 0.94124 0.0
H334 H 0.4748 0.06198 0.03288 0.0
H335 H 0.47888 0.12685 0.99535 0.0
C336 C 0.50439 0.94304 0.07279 0.0
C337 C 0.49224 0.90327 0.05744 0.0
C338 C 0.50639 0.98024 0.05107 0.0
C339 C 0.49587 0.97884 0.01345 0.0
C340 C 0.48369 0.93899 0.99816 0.0
C341 C 0.48214 0.90171 0.01979 0.0
C342 C 0.51257 0.05379 0.93162 0.0
C343 C 0.50136 0.09419 0.94629 0.0
C344 C 0.51096 0.01661 0.95335 0.0
C345 C 0.49762 0.01864 0.99028 0.0
C346 C 0.48601 0.05908 0.00482 0.0
C347 C 0.48808 0.09636 0.98319 0.0
H348 H 0.95546 0.99545 0.39969 0.0
H349 H 0.87401 0.02301 0.49298 0.0
H350 H 0.01787 0.99226 0.43991 0.0
H351 H 0.93673 0.02187 0.53312 0.0
H352 H 0.05037 0.97323 0.60084 0.0
H353 H 0.98748 0.97688 0.56106 0.0
H354 H 0.06561 0.033 0.4751 0.0
H355 H 0.12877 0.02737 0.51435 0.0
C356 C 0.95093 0.00135 0.42877 0.0
C357 C 0.90966 0.00947 0.44307 0.0
C358 C 0.98687 -0.0002 0.45191 0.0
C359 C 0.98268 0.00694 0.48996 0.0
C360 C 0.94133 0.01543 0.50416 0.0
C361 C 0.90528 0.01636 0.48107 0.0
C362 C 0.05408 0.98645 0.57347 0.0
C363 C 0.0947 -0.00019 0.56076 0.0
C364 C 0.01788 0.9888 0.55064 0.0
C365 C 0.02118 0.00516 0.51463 0.0
C366 C 0.06177 0.01931 0.50227 0.0
C367 C 0.09807 0.01637 0.52491 0.0
H368 H 0.15184 0.69339 0.06747 0.0
H369 H 0.13752 0.72568 0.18202 0.0
H370 H 0.22651 0.71713 0.06912 0.0
H371 H 0.21117 0.75267 0.18342 0.0
H372 H 0.35792 0.76808 0.18008 0.0
H373 H 0.28438 0.74088 0.1825 0.0
H374 H 0.26563 0.77974 0.06933 0.0
H375 H 0.34018 0.8037 0.06656 0.0
C376 C 0.16506 0.70519 0.09312 0.0
C377 C 0.13937 0.7073 0.1247 0.0
C378 C 0.20759 0.71963 0.094 0.0
C379 C 0.22492 0.73796 0.12619 0.0
C380 C 0.19939 0.73849 0.1582 0.0
C381 C 0.15716 0.72288 0.15752 0.0
C382 C 0.33758 0.77153 0.15606 0.0
C383 C 0.35438 0.78811 0.12319 0.0
C384 C 0.2954 0.75581 0.15733 0.0
C385 C 0.26894 0.75723 0.12591 0.0
C386 C 0.28529 0.77653 0.09374 0.0
C387 C 0.32776 0.79109 0.09223 0.0
H388 H 0.26615 0.64047 0.67912 0.0
H389 H 0.29911 0.65356 0.56459 0.0
H390 H 0.24062 0.71449 0.68023 0.0
H391 H 0.27719 0.72889 0.566 0.0
H392 H 0.22929 0.86027 0.67962 0.0
H393 H 0.25473 0.78622 0.68042 0.0
H394 H 0.21848 0.77277 0.56605 0.0
H395 H 0.19664 0.84814 0.56496 0.0
C396 C 0.26926 0.65987 0.6545 0.0
C397 C 0.2848 0.64166 0.62184 0.0
C398 C 0.25463 0.70243 0.65503 0.0
C399 C 0.25629 0.72809 0.6231 0.0
C400 C 0.27396 0.71007 0.59088 0.0
C401 C 0.2873 0.6671 0.59011 0.0
C402 C 0.22622 0.84107 0.65489 0.0
C403 C 0.21081 0.85957 0.6223 0.0
C404 C 0.24081 0.7985 0.65525 0.0
C405 C 0.23922 0.7731 0.62319 0.0
C406 C 0.22165 0.79139 0.59103 0.0
C407 C 0.20835 0.83438 0.59044 0.0
H408 H 0.64988 0.20134 0.9439 0.0
H409 H 0.63726 0.23219 0.82887 0.0
H410 H 0.72513 0.22337 0.94238 0.0
H411 H 0.71115 0.25782 0.82761 0.0
H412 H 0.85671 0.26855 0.82803 0.0
H413 H 0.7827 0.24317 0.82768 0.0
H414 H 0.76925 0.2819 0.94146 0.0
H415 H 0.8446 0.30366 0.94216 0.0
C416 C 0.66348 0.21277 0.91826 0.0
C417 C 0.63821 0.21459 0.88641 0.0
C418 C 0.70641 0.22614 0.91741 0.0
C419 C 0.72454 0.24315 0.88497 0.0
C420 C 0.699 0.24428 0.85298 0.0
C421 C 0.65652 0.22961 0.85361 0.0
C422 C 0.83752 0.27213 0.85272 0.0
C423 C 0.85599 0.28824 0.88505 0.0
C424 C 0.79497 0.25761 0.85262 0.0
C425 C 0.76957 0.25999 0.88465 0.0
C426 C 0.78787 0.27815 0.91653 0.0
C427 C 0.83084 0.29138 0.91689 0.0
H428 H 0.68699 0.33994 0.43605 0.0
H429 H 0.7196 0.35324 0.32147 0.0
H430 H 0.70879 0.26456 0.43447 0.0
H431 H 0.74504 0.27918 0.32018 0.0
H432 H 0.76214 0.13439 0.32101 0.0
H433 H 0.73264 0.20704 0.3203 0.0
H434 H 0.76865 0.22234 0.43457 0.0
H435 H 0.79457 0.14832 0.43555 0.0
C436 C 0.69861 0.32639 0.41046 0.0
C437 C 0.70124 0.35193 0.3788 0.0
C438 C 0.71187 0.28341 0.40959 0.0
C439 C 0.72963 0.26553 0.37736 0.0
C440 C 0.73103 0.29117 0.34541 0.0
C441 C 0.71646 0.33374 0.34604 0.0
C442 C 0.76404 0.1537 0.34576 0.0
C443 C 0.7808 0.13618 0.37825 0.0
C444 C 0.74717 0.19543 0.34545 0.0
C445 C 0.7478 0.22097 0.37745 0.0
C446 C 0.76621 0.20355 0.40962 0.0
C447 C 0.78179 0.16136 0.41016 0.0
H448 H 0.80342 0.44979 0.30607 0.0
H449 H 0.76895 0.57078 0.35623 0.0
H450 H 0.8677 0.48307 0.2795 0.0
H451 H 0.83369 0.60393 0.33063 0.0
H452 H 0.98678 0.5599 0.24103 0.0
H453 H 0.93933 0.52429 0.28596 0.0
H454 H 0.84023 0.61827 0.2632 0.0
H455 H 0.88669 0.65314 0.21884 0.0
C456 C 0.81077 0.48301 0.31272 0.0
C457 C 0.78187 0.50763 0.33365 0.0
C458 C 0.84757 0.50201 0.29766 0.0
C459 C 0.85542 0.54617 0.3027 0.0
C460 C 0.82822 0.56987 0.32611 0.0
C461 C 0.79148 0.55085 0.34113 0.0
C462 C 0.95492 0.57291 0.24592 0.0
C463 C 0.9403 0.60905 0.22622 0.0
C464 C 0.92791 0.55266 0.27161 0.0
C465 C 0.88635 0.5689 0.27845 0.0
C466 C 0.87237 0.60552 0.25919 0.0
C467 C 0.89888 0.62517 0.23334 0.0
H468 H 0.43198 0.49588 0.74511 0.0
H469 H 0.34243 0.39323 0.72088 0.0
H470 H 0.46563 0.45035 0.7926 0.0
H471 H 0.37524 0.34874 0.76776 0.0
H472 H 0.41849 0.27929 0.8625 0.0
H473 H 0.38584 0.34382 0.83589 0.0
H474 H 0.50856 0.37934 0.78901 0.0
H475 H 0.54122 0.31526 0.81647 0.0
C476 C 0.41935 0.46388 0.75008 0.0
C477 C 0.38489 0.44796 0.72903 0.0
C478 C 0.43843 0.43798 0.77726 0.0
C479 C 0.42261 0.39626 0.78427 0.0
C480 C 0.38759 0.38104 0.76366 0.0
C481 C 0.36916 0.40641 0.73634 0.0
C482 C 0.43886 0.30216 0.84823 0.0
C483 C 0.48242 0.29289 0.84197 0.0
C484 C 0.42015 0.33881 0.83262 0.0
C485 C 0.44456 0.36624 0.80992 0.0
C486 C 0.48902 0.359 0.80654 0.0
C487 C 0.50769 0.32232 0.82215 0.0
H488 H 0.51154 0.92926 0.24211 0.0
H489 H 0.6098 0.83688 0.21265 0.0
H490 H 0.56116 0.96156 0.2871 0.0
H491 H 0.65843 0.8685 0.25702 0.0
H492 H 0.73466 0.91173 0.34976 0.0
H493 H 0.66937 0.87926 0.32424 0.0
H494 H 0.6319 0.00283 0.27985 0.0
H495 H 0.69679 0.03516 0.30604 0.0
C496 C 0.54345 0.91572 0.24542 0.0
C497 C 0.55694 0.88088 0.22361 0.0
C498 C 0.57172 0.93406 0.27115 0.0
C499 C 0.61346 0.91719 0.27588 0.0
C500 C 0.62624 0.8817 0.25464 0.0
C501 C 0.59847 0.86395 0.22877 0.0
C502 C 0.71139 0.93216 0.33601 0.0
C503 C 0.72 0.97598 0.33045 0.0
C504 C 0.67431 0.91362 0.32109 0.0
C505 C 0.64574 0.93849 0.29979 0.0
C506 C 0.653 0.98297 0.29645 0.0
C507 C 0.69015 0.00143 0.31127 0.0
H508 H 0.95362 0.18667 0.81462 0.0
H509 H 0.07569 0.22295 0.86168 0.0
H510 H 0.98666 0.12238 0.78793 0.0
H511 H 0.10866 0.15813 0.83599 0.0
H512 H 0.15408 0.1076 0.72209 0.0
H513 H 0.12065 0.15244 0.76834 0.0
H514 H 0.02919 0.05144 0.7923 0.0
H515 H 0.06346 0.00557 0.74541 0.0
C516 C 0.98706 0.17965 0.82068 0.0
C517 C 0.01205 0.2092 0.84061 0.0
C518 C 0.00594 0.14283 0.80554 0.0
C519 C 0.05034 0.13555 0.8095 0.0
C520 C 0.07442 0.16317 0.83226 0.0
C521 C 0.05551 0.19997 0.84736 0.0
C522 C 0.12699 0.09463 0.73725 0.0
C523 C 0.11112 0.05317 0.72983 0.0
C524 C 0.1082 0.12019 0.76421 0.0
C525 C 0.07267 0.10526 0.78436 0.0
C526 C 0.05676 0.0636 0.7773 0.0
C527 C 0.07621 0.03749 0.75048 0.0
H528 H 0.00102 0.43701 0.76123 0.0
H529 H 0.1018 0.34442 0.78305 0.0
H530 H 0.04702 0.47114 0.7143 0.0
H531 H 0.14672 0.37768 0.73682 0.0
H532 H 0.18375 0.5447 0.69295 0.0
H533 H 0.11883 0.51242 0.71921 0.0
H534 H 0.15214 0.39065 0.6693 0.0
H535 H 0.21762 0.42278 0.64417 0.0
C536 C 0.03266 0.42378 0.75578 0.0
C537 C 0.04803 0.38841 0.77606 0.0
C538 C 0.05883 0.44315 0.72896 0.0
C539 C 0.10019 0.42667 0.72155 0.0
C540 C 0.11471 0.3906 0.74124 0.0
C541 C 0.08911 0.3719 0.7682 0.0
C542 C 0.17609 0.5115 0.68645 0.0
C543 C 0.20509 0.48629 0.66614 0.0
C544 C 0.13889 0.49308 0.7013 0.0
C545 C 0.13072 0.44893 0.69663 0.0
C546 C 0.15786 0.42472 0.67353 0.0
C547 C 0.19506 0.44314 0.65879 0.0
H548 H 0.64782 0.59955 0.27845 0.0
H549 H 0.5533 0.50012 0.25858 0.0
H550 H 0.61526 0.64408 0.23146 0.0
H551 H 0.51988 0.54573 0.21101 0.0
H552 H 0.44945 0.68434 0.18866 0.0
H553 H 0.48022 0.61886 0.21523 0.0
H554 H 0.60195 0.64766 0.16339 0.0
H555 H 0.57127 0.71362 0.13766 0.0
C556 C 0.62004 0.5871 0.26391 0.0
C557 C 0.60282 0.5465 0.27248 0.0
C558 C 0.60176 0.61243 0.23652 0.0
C559 C 0.5654 0.59814 0.21714 0.0
C560 C 0.54813 0.55733 0.22537 0.0
C561 C 0.56708 0.5314 0.25259 0.0
C562 C 0.48222 0.6755 0.18169 0.0
C563 C 0.50792 0.70349 0.1608 0.0
C564 C 0.49978 0.638 0.19677 0.0
C565 C 0.54361 0.62852 0.19177 0.0
C566 C 0.56813 0.65443 0.16789 0.0
C567 C 0.55052 0.6919 0.15281 0.0
H568 H 0.39274 0.15678 0.78464 0.0
H569 H 0.49441 0.06514 0.76296 0.0
H570 H 0.3483 0.12326 0.73825 0.0
H571 H 0.44889 0.03074 0.71588 0.0
H572 H 0.31257 0.95634 0.69408 0.0
H573 H 0.37724 0.98889 0.72054 0.0
H574 H 0.34353 0.11059 0.67061 0.0
H575 H 0.27829 0.07822 0.64532 0.0
C576 C 0.40572 0.12946 0.76978 0.0
C577 C 0.44692 0.11329 0.77771 0.0
C578 C 0.3804 0.11061 0.74274 0.0
C579 C 0.39533 0.07475 0.72303 0.0
C580 C 0.43677 0.05858 0.73054 0.0
C581 C 0.46267 0.0781 0.75745 0.0
C582 C 0.3201 0.98958 0.68762 0.0
C583 C 0.29105 0.01472 0.66727 0.0
C584 C 0.35715 0.00815 0.70257 0.0
C585 C 0.36511 0.05236 0.69796 0.0
C586 C 0.33797 0.07648 0.67479 0.0
C587 C 0.30091 0.05792 0.65996 0.0
H588 H 0.92808 0.79076 0.14895 0.0
H589 H 0.05558 0.80239 0.19475 0.0
H590 H 0.90831 0.86023 0.17617 0.0
H591 H 0.03563 0.87119 0.22272 0.0
H592 H 0.93861 0.91571 0.31912 0.0
H593 H 0.97564 0.86901 0.27542 0.0
H594 H 0.92812 0.94639 0.18552 0.0
H595 H 0.89212 0.99446 0.22983 0.0
C596 C 0.95243 0.80927 0.16325 0.0
C597 C 0.99358 0.79193 0.16917 0.0
C598 C 0.94114 0.84887 0.17892 0.0
C599 C 0.97051 0.87087 0.20155 0.0
C600 C 0.01256 0.85489 0.20525 0.0
C601 C 0.02392 0.81566 0.18929 0.0
C602 C 0.93732 0.92353 0.29011 0.0
C603 C 0.91296 0.95862 0.27769 0.0
C604 C 0.95852 0.89696 0.26512 0.0
C605 C 0.95476 0.90429 0.22717 0.0
C606 C 0.93165 0.94037 0.21469 0.0
C607 C 0.91136 0.96784 0.23992 0.0
loop_
_geom_bond_atom_site_label_1
_geom_bond_atom_site_label_2
_geom_bond_distance
_geom_bond_site_symmetry_2
_ccdc_geom_bond_type
Mn0 O5 2.095 . S
Mn0 O15 2.162 . S
Mn0 O16 2.297 1_455 S
Mn0 O24 2.385 . S
Mn0 O25 2.209 1_455 S
Mn0 O26 2.094 . S
Mn1 O6 2.121 . S
Mn1 N8 2.262 . S
Mn1 N17 2.282 . S
Mn1 O25 2.215 1_455 S
Mn1 O27 2.117 . S
C2 O24 1.234 1_655 S
C2 O25 1.283 . S
C3 O15 1.281 1_655 S
C3 O16 1.236 . S
C4 O26 1.240 . S
C4 O27 1.264 . S
O5 Mn0 2.095 . S
O5 C14 1.250 . S
O6 Mn1 2.121 . S
O6 C14 1.258 . S
C7 N8 1.321 1_655 S
C7 C11 1.460 . S
C7 H13 0.929 . S
N8 Mn1 2.262 . S
N8 C7 1.321 1_455 S
N8 C12 1.363 . S
C9 C10 1.258 . S
C9 C12 1.431 1_655 S
C9 C29 1.449 . S
C10 C9 1.258 . S
C10 C11 1.477 . S
C10 H30 0.931 . S
C11 C7 1.460 . S
C11 C10 1.477 . S
C11 H31 0.930 . S
C12 N8 1.363 . S
C12 C9 1.431 1_455 S
C12 C22 1.476 . S
H13 C7 0.929 . S
C14 O5 1.250 . S
C14 O6 1.258 . S
O15 Mn0 2.162 . S
O15 C3 1.281 1_455 S
O16 Mn0 2.297 1_655 S
O16 C3 1.236 . S
N17 Mn1 2.282 . S
N17 C18 1.328 . S
N17 C22 1.318 . S
C18 N17 1.328 . S
C18 C19 1.457 . S
C18 H23 0.929 . S
C19 C18 1.457 . S
C19 C20 1.291 . S
C19 H32 0.931 . S
C20 C19 1.291 . S
C20 C21 1.373 . S
C20 H33 0.929 . S
C21 C20 1.373 . S
C21 C22 1.396 . S
C21 C28 1.403 . S
C22 C12 1.476 . S
C22 N17 1.318 . S
C22 C21 1.396 . S
H23 C18 0.929 . S
O24 Mn0 2.385 . S
O24 C2 1.234 1_455 S
O25 Mn0 2.209 1_655 S
O25 Mn1 2.215 1_655 S
O25 C2 1.283 . S
O26 Mn0 2.094 . S
O26 C4 1.240 . S
O27 Mn1 2.117 . S
O27 C4 1.264 . S
C28 C21 1.403 . S
C28 C29 1.399 1_455 S
C28 H34 0.929 . S
C29 C9 1.449 . S
C29 C28 1.399 1_655 S
C29 H35 0.930 . S
H30 C10 0.931 . S
H31 C11 0.930 . S
H32 C19 0.931 . S
H33 C20 0.929 . S
H34 C28 0.929 . S
H35 C29 0.930 . S
Mn36 O41 2.095 . S
Mn36 O51 2.162 . S
Mn36 O52 2.297 . S
Mn36 O60 2.385 . S
Mn36 O61 2.209 . S
Mn36 O62 2.094 . S
Mn37 O42 2.121 . S
Mn37 N44 2.257 . S
Mn37 N53 2.282 . S
Mn37 O61 2.215 . S
Mn37 O63 2.117 . S
C38 O60 1.234 . S
C38 O61 1.283 . S
C39 O51 1.281 . S
C39 O52 1.236 . S
C40 O62 1.240 . S
C40 O63 1.264 . S
O41 Mn36 2.095 . S
O41 C50 1.250 . S
O42 Mn37 2.121 . S
O42 C50 1.258 . S
C43 N44 1.326 . S
C43 C47 1.460 . S
C43 H49 0.929 . S
N44 Mn37 2.257 . S
N44 C43 1.326 . S
N44 C48 1.362 . S
C45 C46 1.258 . S
C45 C48 1.431 . S
C45 C65 1.449 . S
C46 C45 1.258 . S
C46 C47 1.477 . S
C46 H66 0.931 . S
C47 C43 1.460 . S
C47 C46 1.477 . S
C47 H67 0.930 . S
C48 N44 1.362 . S
C48 C45 1.431 . S
C48 C58 1.476 . S
H49 C43 0.929 . S
C50 O41 1.250 . S
C50 O42 1.258 . S
O51 Mn36 2.162 . S
O51 C39 1.281 . S
O52 Mn36 2.297 . S
O52 C39 1.236 . S
N53 Mn37 2.282 . S
N53 C54 1.328 . S
N53 C58 1.318 . S
C54 N53 1.328 . S
C54 C55 1.457 . S
C54 H59 0.929 . S
C55 C54 1.457 . S
C55 C56 1.291 . S
C55 H68 0.931 . S
C56 C55 1.291 . S
C56 C57 1.373 . S
C56 H69 0.929 . S
C57 C56 1.373 . S
C57 C58 1.396 . S
C57 C64 1.403 . S
C58 C48 1.476 . S
C58 N53 1.318 . S
C58 C57 1.396 . S
H59 C54 0.929 . S
O60 Mn36 2.385 . S
O60 C38 1.234 . S
O61 Mn36 2.209 . S
O61 Mn37 2.215 . S
O61 C38 1.283 . S
O62 Mn36 2.094 . S
O62 C40 1.240 . S
O63 Mn37 2.117 . S
O63 C40 1.264 . S
C64 C57 1.403 . S
C64 C65 1.399 . S
C64 H70 0.929 . S
C65 C45 1.449 . S
C65 C64 1.399 . S
C65 H71 0.930 . S
H66 C46 0.931 . S
H67 C47 0.930 . S
H68 C55 0.931 . S
H69 C56 0.929 . S
H70 C64 0.929 . S
H71 C65 0.930 . S
Mn72 O77 2.095 . S
Mn72 O87 2.162 . S
Mn72 O88 2.297 . S
Mn72 O96 2.385 . S
Mn72 O97 2.209 . S
Mn72 O98 2.094 . S
Mn73 O78 2.121 . S
Mn73 N80 2.257 . S
Mn73 N89 2.282 . S
Mn73 O97 2.215 . S
Mn73 O99 2.117 . S
C74 O96 1.234 . S
C74 O97 1.283 . S
C75 O87 1.281 . S
C75 O88 1.236 . S
C76 O98 1.240 . S
C76 O99 1.264 . S
O77 Mn72 2.095 . S
O77 C86 1.250 . S
O78 Mn73 2.121 . S
O78 C86 1.258 . S
C79 N80 1.326 . S
C79 C83 1.460 . S
C79 H85 0.929 . S
N80 Mn73 2.257 . S
N80 C79 1.326 . S
N80 C84 1.362 . S
C81 C82 1.258 . S
C81 C84 1.431 . S
C81 C101 1.449 . S
C82 C81 1.258 . S
C82 C83 1.477 . S
C82 H102 0.931 . S
C83 C79 1.460 . S
C83 C82 1.477 . S
C83 H103 0.930 . S
C84 N80 1.362 . S
C84 C81 1.431 . S
C84 C94 1.476 . S
H85 C79 0.929 . S
C86 O77 1.250 . S
C86 O78 1.258 . S
O87 Mn72 2.162 . S
O87 C75 1.281 . S
O88 Mn72 2.297 . S
O88 C75 1.236 . S
N89 Mn73 2.282 . S
N89 C90 1.328 . S
N89 C94 1.318 . S
C90 N89 1.328 . S
C90 C91 1.457 . S
C90 H95 0.929 . S
C91 C90 1.457 . S
C91 C92 1.291 . S
C91 H104 0.931 . S
C92 C91 1.291 . S
C92 C93 1.373 . S
C92 H105 0.929 . S
C93 C92 1.373 . S
C93 C94 1.396 . S
C93 C100 1.403 . S
C94 C84 1.476 . S
C94 N89 1.318 . S
C94 C93 1.396 . S
H95 C90 0.929 . S
O96 Mn72 2.385 . S
O96 C74 1.234 . S
O97 Mn72 2.209 . S
O97 Mn73 2.215 . S
O97 C74 1.283 . S
O98 Mn72 2.094 . S
O98 C76 1.240 . S
O99 Mn73 2.117 . S
O99 C76 1.264 . S
C100 C93 1.403 . S
C100 C101 1.399 . S
C100 H106 0.929 . S
C101 C81 1.449 . S
C101 C100 1.399 . S
C101 H107 0.930 . S
H102 C82 0.931 . S
H103 C83 0.930 . S
H104 C91 0.931 . S
H105 C92 0.929 . S
H106 C100 0.929 . S
H107 C101 0.930 . S
Mn108 O113 2.095 . S
Mn108 O123 2.162 . S
Mn108 O124 2.297 1_565 S
Mn108 O132 2.385 . S
Mn108 O133 2.209 1_565 S
Mn108 O134 2.094 . S
Mn109 O114 2.121 . S
Mn109 N116 2.262 . S
Mn109 N125 2.282 . S
Mn109 O133 2.215 1_565 S
Mn109 O135 2.117 . S
C110 O132 1.234 1_545 S
C110 O133 1.283 . S
C111 O123 1.281 1_545 S
C111 O124 1.236 . S
C112 O134 1.240 . S
C112 O135 1.264 . S
O113 Mn108 2.095 . S
O113 C122 1.250 . S
O114 Mn109 2.121 . S
O114 C122 1.258 . S
C115 N116 1.321 1_545 S
C115 C119 1.460 . S
C115 H121 0.929 . S
N116 Mn109 2.262 . S
N116 C115 1.321 1_565 S
N116 C120 1.363 . S
C117 C118 1.258 . S
C117 C120 1.431 1_545 S
C117 C137 1.449 . S
C118 C117 1.258 . S
C118 C119 1.477 . S
C118 H138 0.931 . S
C119 C115 1.460 . S
C119 C118 1.477 . S
C119 H139 0.930 . S
C120 N116 1.363 . S
C120 C117 1.431 1_565 S
C120 C130 1.476 . S
H121 C115 0.929 . S
C122 O113 1.250 . S
C122 O114 1.258 . S
O123 Mn108 2.162 . S
O123 C111 1.281 1_565 S
O124 Mn108 2.297 1_545 S
O124 C111 1.236 . S
N125 Mn109 2.282 . S
N125 C126 1.328 . S
N125 C130 1.318 . S
C126 N125 1.328 . S
C126 C127 1.457 . S
C126 H131 0.929 . S
C127 C126 1.457 . S
C127 C128 1.291 . S
C127 H140 0.931 . S
C128 C127 1.291 . S
C128 C129 1.373 . S
C128 H141 0.929 . S
C129 C128 1.373 . S
C129 C130 1.396 . S
C129 C136 1.403 . S
C130 C120 1.476 . S
C130 N125 1.318 . S
C130 C129 1.396 . S
H131 C126 0.929 . S
O132 Mn108 2.385 . S
O132 C110 1.234 1_565 S
O133 Mn108 2.209 1_545 S
O133 Mn109 2.215 1_545 S
O133 C110 1.283 . S
O134 Mn108 2.094 . S
O134 C112 1.240 . S
O135 Mn109 2.117 . S
O135 C112 1.264 . S
C136 C129 1.403 . S
C136 C137 1.399 1_565 S
C136 H142 0.929 . S
C137 C117 1.449 . S
C137 C136 1.399 1_545 S
C137 H143 0.930 . S
H138 C118 0.931 . S
H139 C119 0.930 . S
H140 C127 0.931 . S
H141 C128 0.929 . S
H142 C136 0.929 . S
H143 C137 0.930 . S
Mn144 O149 2.095 . S
Mn144 O159 2.162 . S
Mn144 O160 2.297 1_655 S
Mn144 O168 2.385 . S
Mn144 O169 2.209 1_655 S
Mn144 O170 2.094 . S
Mn145 O150 2.121 . S
Mn145 N152 2.262 . S
Mn145 N161 2.282 . S
Mn145 O169 2.215 1_655 S
Mn145 O171 2.117 . S
C146 O168 1.234 1_455 S
C146 O169 1.283 . S
C147 O159 1.281 1_455 S
C147 O160 1.236 . S
C148 O170 1.240 . S
C148 O171 1.264 . S
O149 Mn144 2.095 . S
O149 C158 1.250 . S
O150 Mn145 2.121 . S
O150 C158 1.258 . S
C151 N152 1.321 1_455 S
C151 C155 1.460 . S
C151 H157 0.929 . S
N152 Mn145 2.262 . S
N152 C151 1.321 1_655 S
N152 C156 1.363 . S
C153 C154 1.258 . S
C153 C156 1.431 1_455 S
C153 C173 1.449 . S
C154 C153 1.258 . S
C154 C155 1.477 . S
C154 H174 0.931 . S
C155 C151 1.460 . S
C155 C154 1.477 . S
C155 H175 0.930 . S
C156 N152 1.363 . S
C156 C153 1.431 1_655 S
C156 C166 1.476 . S
H157 C151 0.929 . S
C158 O149 1.250 . S
C158 O150 1.258 . S
O159 Mn144 2.162 . S
O159 C147 1.281 1_655 S
O160 Mn144 2.297 1_455 S
O160 C147 1.236 . S
N161 Mn145 2.282 . S
N161 C162 1.328 . S
N161 C166 1.318 . S
C162 N161 1.328 . S
C162 C163 1.457 . S
C162 H167 0.929 . S
C163 C162 1.457 . S
C163 C164 1.291 . S
C163 H176 0.931 . S
C164 C163 1.291 . S
C164 C165 1.373 . S
C164 H177 0.929 . S
C165 C164 1.373 . S
C165 C166 1.396 . S
C165 C172 1.403 . S
C166 C156 1.476 . S
C166 N161 1.318 . S
C166 C165 1.396 . S
H167 C162 0.929 . S
O168 Mn144 2.385 . S
O168 C146 1.234 1_655 S
O169 Mn144 2.209 1_455 S
O169 Mn145 2.215 1_455 S
O169 C146 1.283 . S
O170 Mn144 2.094 . S
O170 C148 1.240 . S
O171 Mn145 2.117 . S
O171 C148 1.264 . S
C172 C165 1.403 . S
C172 C173 1.399 1_655 S
C172 H178 0.929 . S
C173 C153 1.449 . S
C173 C172 1.399 1_455 S
C173 H179 0.930 . S
H174 C154 0.931 . S
H175 C155 0.930 . S
H176 C163 0.931 . S
H177 C164 0.929 . S
H178 C172 0.929 . S
H179 C173 0.930 . S
Mn180 O185 2.095 . S
Mn180 O195 2.162 . S
Mn180 O196 2.297 . S
Mn180 O204 2.385 . S
Mn180 O205 2.209 . S
Mn180 O206 2.094 . S
Mn181 O186 2.121 . S
Mn181 N188 2.257 . S
Mn181 N197 2.282 . S
Mn181 O205 2.215 . S
Mn181 O207 2.117 . S
C182 O204 1.234 . S
C182 O205 1.283 . S
C183 O195 1.281 . S
C183 O196 1.236 . S
C184 O206 1.240 . S
C184 O207 1.264 . S
O185 Mn180 2.095 . S
O185 C194 1.250 . S
O186 Mn181 2.121 . S
O186 C194 1.258 . S
C187 N188 1.326 . S
C187 C191 1.460 . S
C187 H193 0.929 . S
N188 Mn181 2.257 . S
N188 C187 1.326 . S
N188 C192 1.362 . S
C189 C190 1.258 . S
C189 C192 1.431 . S
C189 C209 1.449 . S
C190 C189 1.258 . S
C190 C191 1.477 . S
C190 H210 0.931 . S
C191 C187 1.460 . S
C191 C190 1.477 . S
C191 H211 0.930 . S
C192 N188 1.362 . S
C192 C189 1.431 . S
C192 C202 1.476 . S
H193 C187 0.929 . S
C194 O185 1.250 . S
C194 O186 1.258 . S
O195 Mn180 2.162 . S
O195 C183 1.281 . S
O196 Mn180 2.297 . S
O196 C183 1.236 . S
N197 Mn181 2.282 . S
N197 C198 1.328 . S
N197 C202 1.318 . S
C198 N197 1.328 . S
C198 C199 1.457 . S
C198 H203 0.929 . S
C199 C198 1.457 . S
C199 C200 1.291 . S
C199 H212 0.931 . S
C200 C199 1.291 . S
C200 C201 1.373 . S
C200 H213 0.929 . S
C201 C200 1.373 . S
C201 C202 1.396 . S
C201 C208 1.403 . S
C202 C192 1.476 . S
C202 N197 1.318 . S
C202 C201 1.396 . S
H203 C198 0.929 . S
O204 Mn180 2.385 . S
O204 C182 1.234 . S
O205 Mn180 2.209 . S
O205 Mn181 2.215 . S
O205 C182 1.283 . S
O206 Mn180 2.094 . S
O206 C184 1.240 . S
O207 Mn181 2.117 . S
O207 C184 1.264 . S
C208 C201 1.403 . S
C208 C209 1.399 . S
C208 H214 0.929 . S
C209 C189 1.449 . S
C209 C208 1.399 . S
C209 H215 0.930 . S
H210 C190 0.931 . S
H211 C191 0.930 . S
H212 C199 0.931 . S
H213 C200 0.929 . S
H214 C208 0.929 . S
H215 C209 0.930 . S
Mn216 O221 2.095 . S
Mn216 O231 2.162 . S
Mn216 O232 2.297 . S
Mn216 O240 2.385 . S
Mn216 O241 2.209 . S
Mn216 O242 2.094 . S
Mn217 O222 2.121 . S
Mn217 N224 2.257 . S
Mn217 N233 2.282 . S
Mn217 O241 2.215 . S
Mn217 O243 2.117 . S
C218 O240 1.234 . S
C218 O241 1.283 . S
C219 O231 1.281 . S
C219 O232 1.236 . S
C220 O242 1.240 . S
C220 O243 1.264 . S
O221 Mn216 2.095 . S
O221 C230 1.250 . S
O222 Mn217 2.121 . S
O222 C230 1.258 . S
C223 N224 1.326 . S
C223 C227 1.460 . S
C223 H229 0.929 . S
N224 Mn217 2.257 . S
N224 C223 1.326 . S
N224 C228 1.362 . S
C225 C226 1.258 . S
C225 C228 1.431 . S
C225 C245 1.449 . S
C226 C225 1.258 . S
C226 C227 1.477 . S
C226 H246 0.931 . S
C227 C223 1.460 . S
C227 C226 1.477 . S
C227 H247 0.930 . S
C228 N224 1.362 . S
C228 C225 1.431 . S
C228 C238 1.476 . S
H229 C223 0.929 . S
C230 O221 1.250 . S
C230 O222 1.258 . S
O231 Mn216 2.162 . S
O231 C219 1.281 . S
O232 Mn216 2.297 . S
O232 C219 1.236 . S
N233 Mn217 2.282 . S
N233 C234 1.328 . S
N233 C238 1.318 . S
C234 N233 1.328 . S
C234 C235 1.457 . S
C234 H239 0.929 . S
C235 C234 1.457 . S
C235 C236 1.291 . S
C235 H248 0.931 . S
C236 C235 1.291 . S
C236 C237 1.373 . S
C236 H249 0.929 . S
C237 C236 1.373 . S
C237 C238 1.396 . S
C237 C244 1.403 . S
C238 C228 1.476 . S
C238 N233 1.318 . S
C238 C237 1.396 . S
H239 C234 0.929 . S
O240 Mn216 2.385 . S
O240 C218 1.234 . S
O241 Mn216 2.209 . S
O241 Mn217 2.215 . S
O241 C218 1.283 . S
O242 Mn216 2.094 . S
O242 C220 1.240 . S
O243 Mn217 2.117 . S
O243 C220 1.264 . S
C244 C237 1.403 . S
C244 C245 1.399 . S
C244 H250 0.929 . S
C245 C225 1.449 . S
C245 C244 1.399 . S
C245 H251 0.930 . S
H246 C226 0.931 . S
H247 C227 0.930 . S
H248 C235 0.931 . S
H249 C236 0.929 . S
H250 C244 0.929 . S
H251 C245 0.930 . S
Mn252 O257 2.095 . S
Mn252 O267 2.162 . S
Mn252 O268 2.297 1_545 S
Mn252 O276 2.385 . S
Mn252 O277 2.209 1_545 S
Mn252 O278 2.094 . S
Mn253 O258 2.121 . S
Mn253 N260 2.262 . S
Mn253 N269 2.282 . S
Mn253 O277 2.215 1_545 S
Mn253 O279 2.117 . S
C254 O276 1.234 1_565 S
C254 O277 1.283 . S
C255 O267 1.281 1_565 S
C255 O268 1.236 . S
C256 O278 1.240 . S
C256 O279 1.264 . S
O257 Mn252 2.095 . S
O257 C266 1.250 . S
O258 Mn253 2.121 . S
O258 C266 1.258 . S
C259 N260 1.321 1_565 S
C259 C263 1.460 . S
C259 H265 0.929 . S
N260 Mn253 2.262 . S
N260 C259 1.321 1_545 S
N260 C264 1.363 . S
C261 C262 1.258 . S
C261 C264 1.431 1_565 S
C261 C281 1.449 . S
C262 C261 1.258 . S
C262 C263 1.477 . S
C262 H282 0.931 . S
C263 C259 1.460 . S
C263 C262 1.477 . S
C263 H283 0.930 . S
C264 N260 1.363 . S
C264 C261 1.431 1_545 S
C264 C274 1.476 . S
H265 C259 0.929 . S
C266 O257 1.250 . S
C266 O258 1.258 . S
O267 Mn252 2.162 . S
O267 C255 1.281 1_545 S
O268 Mn252 2.297 1_565 S
O268 C255 1.236 . S
N269 Mn253 2.282 . S
N269 C270 1.328 . S
N269 C274 1.318 . S
C270 N269 1.328 . S
C270 C271 1.457 . S
C270 H275 0.929 . S
C271 C270 1.457 . S
C271 C272 1.291 . S
C271 H284 0.931 . S
C272 C271 1.291 . S
C272 C273 1.373 . S
C272 H285 0.929 . S
C273 C272 1.373 . S
C273 C274 1.396 . S
C273 C280 1.403 . S
C274 C264 1.476 . S
C274 N269 1.318 . S
C274 C273 1.396 . S
H275 C270 0.929 . S
O276 Mn252 2.385 . S
O276 C254 1.234 1_545 S
O277 Mn252 2.209 1_565 S
O277 Mn253 2.215 1_565 S
O277 C254 1.283 . S
O278 Mn252 2.094 . S
O278 C256 1.240 . S
O279 Mn253 2.117 . S
O279 C256 1.264 . S
C280 C273 1.403 . S
C280 C281 1.399 1_545 S
C280 H286 0.929 . S
C281 C261 1.449 . S
C281 C280 1.399 1_565 S
C281 H287 0.930 . S
H282 C262 0.931 . S
H283 C263 0.930 . S
H284 C271 0.931 . S
H285 C272 0.929 . S
H286 C280 0.929 . S
H287 C281 0.930 . S
H288 C296 0.950 . S
H289 C301 0.950 . S
H290 C298 0.950 . S
H291 C300 0.950 . S
H292 C302 0.950 . S
H293 C304 0.950 . S
H294 C306 0.950 . S
H295 C307 0.950 . S
C296 H288 0.950 . S
C296 C297 1.386 1_455 S
C296 C298 1.391 . S
C297 C296 1.386 1_655 S
C297 C301 1.393 . S
C298 H290 0.950 . S
C298 C296 1.391 . S
C298 C299 1.400 1_455 S
C299 C298 1.400 1_655 S
C299 C300 1.398 . S
C299 C305 1.491 1_656 S
C300 H291 0.950 . S
C300 C299 1.398 . S
C300 C301 1.391 . S
C301 H289 0.950 . S
C301 C297 1.393 . S
C301 C300 1.391 . S
C302 H292 0.950 . S
C302 C303 1.386 1_655 S
C302 C304 1.391 . S
C303 C302 1.386 1_455 S
C303 C307 1.393 . S
C304 H293 0.950 . S
C304 C302 1.391 . S
C304 C305 1.400 1_655 S
C305 C299 1.491 1_454 S
C305 C304 1.400 1_455 S
C305 C306 1.398 . S
C306 H294 0.950 . S
C306 C305 1.398 . S
C306 C307 1.391 . S
C307 H295 0.950 . S
C307 C303 1.393 . S
C307 C306 1.391 . S
H308 C316 0.950 . S
H309 C321 0.950 . S
H310 C318 0.950 . S
H311 C320 0.950 . S
H312 C322 0.950 . S
H313 C324 0.950 . S
H314 C326 0.950 . S
H315 C327 0.950 . S
C316 H308 0.950 . S
C316 C317 1.386 . S
C316 C318 1.391 . S
C317 C316 1.386 . S
C317 C321 1.393 . S
C318 H310 0.950 . S
C318 C316 1.391 . S
C318 C319 1.400 . S
C319 C318 1.400 . S
C319 C320 1.398 . S
C319 C325 1.491 . S
C320 H311 0.950 . S
C320 C319 1.398 . S
C320 C321 1.391 . S
C321 H309 0.950 . S
C321 C317 1.393 . S
C321 C320 1.391 . S
C322 H312 0.950 . S
C322 C323 1.386 . S
C322 C324 1.391 . S
C323 C322 1.386 . S
C323 C327 1.393 . S
C324 H313 0.950 . S
C324 C322 1.391 . S
C324 C325 1.400 . S
C325 C319 1.491 . S
C325 C324 1.400 . S
C325 C326 1.398 . S
C326 H314 0.950 . S
C326 C325 1.398 . S
C326 C327 1.391 . S
C327 H315 0.950 . S
C327 C323 1.393 . S
C327 C326 1.391 . S
H328 C336 0.950 . S
H329 C341 0.950 . S
H330 C338 0.950 1_545 S
H331 C340 0.950 1_556 S
H332 C342 0.950 . S
H333 C344 0.950 1_565 S
H334 C346 0.950 1_554 S
H335 C347 0.950 . S
C336 H328 0.950 . S
C336 C337 1.386 . S
C336 C338 1.391 . S
C337 C336 1.386 . S
C337 C341 1.393 . S
C338 H330 0.950 1_565 S
C338 C336 1.391 . S
C338 C339 1.400 . S
C339 C338 1.400 . S
C339 C340 1.398 . S
C339 C345 1.491 1_564 S
C340 H331 0.950 1_554 S
C340 C339 1.398 . S
C340 C341 1.391 . S
C341 H329 0.950 . S
C341 C337 1.393 . S
C341 C340 1.391 . S
C342 H332 0.950 . S
C342 C343 1.386 . S
C342 C344 1.391 . S
C343 C342 1.386 . S
C343 C347 1.393 . S
C344 H333 0.950 1_545 S
C344 C342 1.391 . S
C344 C345 1.400 . S
C345 C339 1.491 1_546 S
C345 C344 1.400 . S
C345 C346 1.398 . S
C346 H334 0.950 1_556 S
C346 C345 1.398 . S
C346 C347 1.391 . S
C347 H335 0.950 . S
C347 C343 1.393 . S
C347 C346 1.391 . S
H348 C356 0.950 . S
H349 C361 0.949 1_565 S
H350 C358 0.950 1_455 S
H351 C360 0.953 . S
H352 C362 0.950 . S
H353 C364 0.950 1_655 S
H354 C366 0.953 . S
H355 C367 0.949 1_545 S
C356 H348 0.950 . S
C356 C357 1.386 . S
C356 C358 1.391 . S
C357 C356 1.386 . S
C357 C361 1.393 . S
C358 H350 0.950 1_655 S
C358 C356 1.391 . S
C358 C359 1.400 . S
C359 C358 1.400 . S
C359 C360 1.397 1_545 S
C359 C365 1.491 1_645 S
C360 H351 0.953 . S
C360 C359 1.397 1_565 S
C360 C361 1.390 1_565 S
C361 H349 0.949 1_545 S
C361 C357 1.393 . S
C361 C360 1.390 1_545 S
C362 H352 0.950 . S
C362 C363 1.386 . S
C362 C364 1.391 . S
C363 C362 1.386 . S
C363 C367 1.393 . S
C364 H353 0.950 1_455 S
C364 C362 1.391 . S
C364 C365 1.400 . S
C365 C359 1.491 1_465 S
C365 C364 1.400 . S
C365 C366 1.397 1_565 S
C366 H354 0.953 . S
C366 C365 1.397 1_545 S
C366 C367 1.390 1_545 S
C367 H355 0.949 1_565 S
C367 C363 1.393 . S
C367 C366 1.390 1_565 S
H368 C376 0.950 . S
H369 C381 0.950 . S
H370 C378 0.950 . S
H371 C380 0.950 . S
H372 C382 0.950 . S
H373 C384 0.950 . S
H374 C386 0.950 . S
H375 C387 0.950 . S
C376 H368 0.950 . S
C376 C377 1.386 . S
C376 C378 1.391 . S
C377 C376 1.386 . S
C377 C381 1.393 . S
C378 H370 0.950 . S
C378 C376 1.391 . S
C378 C379 1.400 . S
C379 C378 1.400 . S
C379 C380 1.398 . S
C379 C385 1.491 . S
C380 H371 0.950 . S
C380 C379 1.398 . S
C380 C381 1.391 . S
C381 H369 0.950 . S
C381 C377 1.393 . S
C381 C380 1.391 . S
C382 H372 0.950 . S
C382 C383 1.386 . S
C382 C384 1.391 . S
C383 C382 1.386 . S
C383 C387 1.393 . S
C384 H373 0.950 . S
C384 C382 1.391 . S
C384 C385 1.400 . S
C385 C379 1.491 . S
C385 C384 1.400 . S
C385 C386 1.398 . S
C386 H374 0.950 . S
C386 C385 1.398 . S
C386 C387 1.391 . S
C387 H375 0.950 . S
C387 C383 1.393 . S
C387 C386 1.391 . S
H388 C396 0.950 . S
H389 C401 0.950 . S
H390 C398 0.950 . S
H391 C400 0.950 . S
H392 C402 0.950 . S
H393 C404 0.950 . S
H394 C406 0.950 . S
H395 C407 0.950 . S
C396 H388 0.950 . S
C396 C397 1.386 . S
C396 C398 1.391 . S
C397 C396 1.386 . S
C397 C401 1.393 . S
C398 H390 0.950 . S
C398 C396 1.391 . S
C398 C399 1.400 . S
C399 C398 1.400 . S
C399 C400 1.398 . S
C399 C405 1.491 . S
C400 H391 0.950 . S
C400 C399 1.398 . S
C400 C401 1.391 . S
C401 H389 0.950 . S
C401 C397 1.393 . S
C401 C400 1.391 . S
C402 H392 0.950 . S
C402 C403 1.386 . S
C402 C404 1.391 . S
C403 C402 1.386 . S
C403 C407 1.393 . S
C404 H393 0.950 . S
C404 C402 1.391 . S
C404 C405 1.400 . S
C405 C399 1.491 . S
C405 C404 1.400 . S
C405 C406 1.398 . S
C406 H394 0.950 . S
C406 C405 1.398 . S
C406 C407 1.391 . S
C407 H395 0.950 . S
C407 C403 1.393 . S
C407 C406 1.391 . S
H408 C416 0.950 . S
H409 C421 0.950 . S
H410 C418 0.950 . S
H411 C420 0.950 . S
H412 C422 0.950 . S
H413 C424 0.950 . S
H414 C426 0.950 . S
H415 C427 0.950 . S
C416 H408 0.950 . S
C416 C417 1.386 . S
C416 C418 1.391 . S
C417 C416 1.386 . S
C417 C421 1.393 . S
C418 H410 0.950 . S
C418 C416 1.391 . S
C418 C419 1.400 . S
C419 C418 1.400 . S
C419 C420 1.398 . S
C419 C425 1.491 . S
C420 H411 0.950 . S
C420 C419 1.398 . S
C420 C421 1.391 . S
C421 H409 0.950 . S
C421 C417 1.393 . S
C421 C420 1.391 . S
C422 H412 0.950 . S
C422 C423 1.386 . S
C422 C424 1.391 . S
C423 C422 1.386 . S
C423 C427 1.393 . S
C424 H413 0.950 . S
C424 C422 1.391 . S
C424 C425 1.400 . S
C425 C419 1.491 . S
C425 C424 1.400 . S
C425 C426 1.398 . S
C426 H414 0.950 . S
C426 C425 1.398 . S
C426 C427 1.391 . S
C427 H415 0.950 . S
C427 C423 1.393 . S
C427 C426 1.391 . S
H428 C436 0.950 . S
H429 C441 0.950 . S
H430 C438 0.950 . S
H431 C440 0.950 . S
H432 C442 0.950 . S
H433 C444 0.950 . S
H434 C446 0.950 . S
H435 C447 0.950 . S
C436 H428 0.950 . S
C436 C437 1.386 . S
C436 C438 1.391 . S
C437 C436 1.386 . S
C437 C441 1.393 . S
C438 H430 0.950 . S
C438 C436 1.391 . S
C438 C439 1.400 . S
C439 C438 1.400 . S
C439 C440 1.398 . S
C439 C445 1.491 . S
C440 H431 0.950 . S
C440 C439 1.398 . S
C440 C441 1.391 . S
C441 H429 0.950 . S
C441 C437 1.393 . S
C441 C440 1.391 . S
C442 H432 0.950 . S
C442 C443 1.386 . S
C442 C444 1.391 . S
C443 C442 1.386 . S
C443 C447 1.393 . S
C444 H433 0.950 . S
C444 C442 1.391 . S
C444 C445 1.400 . S
C445 C439 1.491 . S
C445 C444 1.400 . S
C445 C446 1.398 . S
C446 H434 0.950 . S
C446 C445 1.398 . S
C446 C447 1.391 . S
C447 H435 0.950 . S
C447 C443 1.393 . S
C447 C446 1.391 . S
H448 C456 0.950 . S
H449 C461 0.950 . S
H450 C458 0.950 . S
H451 C460 0.950 . S
H452 C462 0.950 . S
H453 C464 0.950 . S
H454 C466 0.950 . S
H455 C467 0.950 . S
C456 H448 0.950 . S
C456 C457 1.386 . S
C456 C458 1.391 . S
C457 C456 1.386 . S
C457 C461 1.393 . S
C458 H450 0.950 . S
C458 C456 1.391 . S
C458 C459 1.400 . S
C459 C458 1.400 . S
C459 C460 1.398 . S
C459 C465 1.491 . S
C460 H451 0.950 . S
C460 C459 1.398 . S
C460 C461 1.391 . S
C461 H449 0.950 . S
C461 C457 1.393 . S
C461 C460 1.391 . S
C462 H452 0.950 . S
C462 C463 1.386 . S
C462 C464 1.391 . S
C463 C462 1.386 . S
C463 C467 1.393 . S
C464 H453 0.950 . S
C464 C462 1.391 . S
C464 C465 1.400 . S
C465 C459 1.491 . S
C465 C464 1.400 . S
C465 C466 1.398 . S
C466 H454 0.950 . S
C466 C465 1.398 . S
C466 C467 1.391 . S
C467 H455 0.950 . S
C467 C463 1.393 . S
C467 C466 1.391 . S
H468 C476 0.950 . S
H469 C481 0.950 . S
H470 C478 0.950 . S
H471 C480 0.950 . S
H472 C482 0.950 . S
H473 C484 0.950 . S
H474 C486 0.950 . S
H475 C487 0.950 . S
C476 H468 0.950 . S
C476 C477 1.386 . S
C476 C478 1.391 . S
C477 C476 1.386 . S
C477 C481 1.393 . S
C478 H470 0.950 . S
C478 C476 1.391 . S
C478 C479 1.400 . S
C479 C478 1.400 . S
C479 C480 1.398 . S
C479 C485 1.491 . S
C480 H471 0.950 . S
C480 C479 1.398 . S
C480 C481 1.391 . S
C481 H469 0.950 . S
C481 C477 1.393 . S
C481 C480 1.391 . S
C482 H472 0.950 . S
C482 C483 1.386 . S
C482 C484 1.391 . S
C483 C482 1.386 . S
C483 C487 1.393 . S
C484 H473 0.950 . S
C484 C482 1.391 . S
C484 C485 1.400 . S
C485 C479 1.491 . S
C485 C484 1.400 . S
C485 C486 1.398 . S
C486 H474 0.950 . S
C486 C485 1.398 . S
C486 C487 1.391 . S
C487 H475 0.950 . S
C487 C483 1.393 . S
C487 C486 1.391 . S
H488 C496 0.950 . S
H489 C501 0.950 . S
H490 C498 0.950 . S
H491 C500 0.950 . S
H492 C502 0.950 . S
H493 C504 0.950 . S
H494 C506 0.950 1_545 S
H495 C507 0.950 . S
C496 H488 0.950 . S
C496 C497 1.386 . S
C496 C498 1.391 . S
C497 C496 1.386 . S
C497 C501 1.393 . S
C498 H490 0.950 . S
C498 C496 1.391 . S
C498 C499 1.400 . S
C499 C498 1.400 . S
C499 C500 1.398 . S
C499 C505 1.491 . S
C500 H491 0.950 . S
C500 C499 1.398 . S
C500 C501 1.391 . S
C501 H489 0.950 . S
C501 C497 1.393 . S
C501 C500 1.391 . S
C502 H492 0.950 . S
C502 C503 1.386 . S
C502 C504 1.391 . S
C503 C502 1.386 . S
C503 C507 1.393 1_565 S
C504 H493 0.950 . S
C504 C502 1.391 . S
C504 C505 1.400 . S
C505 C499 1.491 . S
C505 C504 1.400 . S
C505 C506 1.398 . S
C506 H494 0.950 1_565 S
C506 C505 1.398 . S
C506 C507 1.391 1_565 S
C507 H495 0.950 . S
C507 C503 1.393 1_545 S
C507 C506 1.391 1_545 S
H508 C516 0.950 . S
H509 C521 0.950 . S
H510 C518 0.950 1_655 S
H511 C520 0.950 . S
H512 C522 0.950 . S
H513 C524 0.950 . S
H514 C526 0.950 . S
H515 C527 0.950 . S
C516 H508 0.950 . S
C516 C517 1.386 1_655 S
C516 C518 1.391 1_655 S
C517 C516 1.386 1_455 S
C517 C521 1.393 . S
C518 H510 0.950 1_455 S
C518 C516 1.391 1_455 S
C518 C519 1.400 . S
C519 C518 1.400 . S
C519 C520 1.398 . S
C519 C525 1.491 . S
C520 H511 0.950 . S
C520 C519 1.398 . S
C520 C521 1.391 . S
C521 H509 0.950 . S
C521 C517 1.393 . S
C521 C520 1.391 . S
C522 H512 0.950 . S
C522 C523 1.386 . S
C522 C524 1.391 . S
C523 C522 1.386 . S
C523 C527 1.393 . S
C524 H513 0.950 . S
C524 C522 1.391 . S
C524 C525 1.400 . S
C525 C519 1.491 . S
C525 C524 1.400 . S
C525 C526 1.398 . S
C526 H514 0.950 . S
C526 C525 1.398 . S
C526 C527 1.391 . S
C527 H515 0.950 . S
C527 C523 1.393 . S
C527 C526 1.391 . S
H528 C536 0.950 . S
H529 C541 0.950 . S
H530 C538 0.950 . S
H531 C540 0.950 . S
H532 C542 0.950 . S
H533 C544 0.950 . S
H534 C546 0.950 . S
H535 C547 0.950 . S
C536 H528 0.950 . S
C536 C537 1.386 . S
C536 C538 1.391 . S
C537 C536 1.386 . S
C537 C541 1.393 . S
C538 H530 0.950 . S
C538 C536 1.391 . S
C538 C539 1.400 . S
C539 C538 1.400 . S
C539 C540 1.398 . S
C539 C545 1.491 . S
C540 H531 0.950 . S
C540 C539 1.398 . S
C540 C541 1.391 . S
C541 H529 0.950 . S
C541 C537 1.393 . S
C541 C540 1.391 . S
C542 H532 0.950 . S
C542 C543 1.386 . S
C542 C544 1.391 . S
C543 C542 1.386 . S
C543 C547 1.393 . S
C544 H533 0.950 . S
C544 C542 1.391 . S
C544 C545 1.400 . S
C545 C539 1.491 . S
C545 C544 1.400 . S
C545 C546 1.398 . S
C546 H534 0.950 . S
C546 C545 1.398 . S
C546 C547 1.391 . S
C547 H535 0.950 . S
C547 C543 1.393 . S
C547 C546 1.391 . S
H548 C556 0.950 . S
H549 C561 0.950 . S
H550 C558 0.950 . S
H551 C560 0.950 . S
H552 C562 0.950 . S
H553 C564 0.950 . S
H554 C566 0.950 . S
H555 C567 0.950 . S
C556 H548 0.950 . S
C556 C557 1.386 . S
C556 C558 1.391 . S
C557 C556 1.386 . S
C557 C561 1.393 . S
C558 H550 0.950 . S
C558 C556 1.391 . S
C558 C559 1.400 . S
C559 C558 1.400 . S
C559 C560 1.398 . S
C559 C565 1.491 . S
C560 H551 0.950 . S
C560 C559 1.398 . S
C560 C561 1.391 . S
C561 H549 0.950 . S
C561 C557 1.393 . S
C561 C560 1.391 . S
C562 H552 0.950 . S
C562 C563 1.386 . S
C562 C564 1.391 . S
C563 C562 1.386 . S
C563 C567 1.393 . S
C564 H553 0.950 . S
C564 C562 1.391 . S
C564 C565 1.400 . S
C565 C559 1.491 . S
C565 C564 1.400 . S
C565 C566 1.398 . S
C566 H554 0.950 . S
C566 C565 1.398 . S
C566 C567 1.391 . S
C567 H555 0.950 . S
C567 C563 1.393 . S
C567 C566 1.391 . S
H568 C576 0.950 . S
H569 C581 0.950 . S
H570 C578 0.950 . S
H571 C580 0.950 . S
H572 C582 0.950 . S
H573 C584 0.950 . S
H574 C586 0.950 . S
H575 C587 0.950 . S
C576 H568 0.950 . S
C576 C577 1.386 . S
C576 C578 1.391 . S
C577 C576 1.386 . S
C577 C581 1.393 . S
C578 H570 0.950 . S
C578 C576 1.391 . S
C578 C579 1.400 . S
C579 C578 1.400 . S
C579 C580 1.398 . S
C579 C585 1.491 . S
C580 H571 0.950 . S
C580 C579 1.398 . S
C580 C581 1.391 . S
C581 H569 0.950 . S
C581 C577 1.393 . S
C581 C580 1.391 . S
C582 H572 0.950 . S
C582 C583 1.386 . S
C582 C584 1.391 . S
C583 C582 1.386 . S
C583 C587 1.393 . S
C584 H573 0.950 . S
C584 C582 1.391 . S
C584 C585 1.400 . S
C585 C579 1.491 . S
C585 C584 1.400 . S
C585 C586 1.398 . S
C586 H574 0.950 . S
C586 C585 1.398 . S
C586 C587 1.391 . S
C587 H575 0.950 . S
C587 C583 1.393 . S
C587 C586 1.391 . S
H588 C596 0.950 . S
H589 C601 0.950 . S
H590 C598 0.950 . S
H591 C600 0.950 . S
H592 C602 0.950 . S
H593 C604 0.950 . S
H594 C606 0.950 . S
H595 C607 0.950 . S
C596 H588 0.950 . S
C596 C597 1.386 . S
C596 C598 1.391 . S
C597 C596 1.386 . S
C597 C601 1.393 . S
C598 H590 0.950 . S
C598 C596 1.391 . S
C598 C599 1.400 . S
C599 C598 1.400 . S
C599 C600 1.398 . S
C599 C605 1.491 . S
C600 H591 0.950 . S
C600 C599 1.398 . S
C600 C601 1.391 . S
C601 H589 0.950 . S
C601 C597 1.393 . S
C601 C600 1.391 . S
C602 H592 0.950 . S
C602 C603 1.386 . S
C602 C604 1.391 . S
C603 C602 1.386 . S
C603 C607 1.393 . S
C604 H593 0.950 . S
C604 C602 1.391 . S
C604 C605 1.400 . S
C605 C599 1.491 . S
C605 C604 1.400 . S
C605 C606 1.398 . S
C606 H594 0.950 . S
C606 C605 1.398 . S
C606 C607 1.391 . S
C607 H595 0.950 . S
C607 C603 1.393 . S
C607 C606 1.391 . S
C297 C158 1.610 . S
C303 C14 1.610 . S
C317 C50 1.617 . S
C323 C194 1.617 . S
C337 C86 1.615 . S
C343 C230 1.615 . S
C357 C266 1.606 . S
C363 C122 1.606 . S
C377 C4 1.387 . S
C383 C76 1.383 . S
C397 C40 1.404 . S
C403 C112 1.395 . S
C417 C220 1.404 . S
C423 C148 1.411 . S
C437 C184 1.410 . S
C443 C256 1.403 . S
C457 C182 0.959 . S
C463 C3 0.958 . S
C477 C39 0.965 . S
C483 C218 0.922 . S
C497 C75 0.965 . S
C503 C254 0.923 . S
C517 C146 0.919 . S
C523 C111 0.958 . S
C537 C147 0.959 . S
C543 C38 0.959 . S
C557 C183 0.967 . S
C563 C74 0.926 . S
C577 C219 0.963 . S
C583 C110 0.956 . S
C597 C2 0.950 . S
C603 C255 0.966 . S
