# Generated by pormake.
# Topology wjh, (4)-cn, num edge types: 1
# Building blocks:
#     Node 0, Type 0, BuildingBlock: QUQFOY_clean_sbu_1, # of connection points: 4
#     Node 1, Type 0, BuildingBlock: QUQFOY_clean_sbu_1, # of connection points: 4
#     Node 2, Type 0, BuildingBlock: QUQFOY_clean_sbu_1, # of connection points: 4
#     Node 3, Type 0, BuildingBlock: QUQFOY_clean_sbu_1, # of connection points: 4
#     Node 4, Type 0, BuildingBlock: QUQFOY_clean_sbu_1, # of connection points: 4
#     Node 5, Type 0, BuildingBlock: QUQFOY_clean_sbu_1, # of connection points: 4
#     Node 6, Type 0, BuildingBlock: QUQFOY_clean_sbu_1, # of connection points: 4
#     Node 7, Type 0, BuildingBlock: QUQFOY_clean_sbu_1, # of connection points: 4
#     Node 8, Type 0, BuildingBlock: QUQFOY_clean_sbu_1, # of connection points: 4
#     Node 9, Type 0, BuildingBlock: QUQFOY_clean_sbu_1, # of connection points: 4
#     Node 10, Type 0, BuildingBlock: QUQFOY_clean_sbu_1, # of connection points: 4
#     Node 11, Type 0, BuildingBlock: QUQFOY_clean_sbu_1, # of connection points: 4
#     Edge 12, Type (0, 0), BuildingBlock: XUDNAN_clean_linker_2, # of connection points: 2
#     Edge 13, Type (0, 0), BuildingBlock: XUDNAN_clean_linker_2, # of connection points: 2
#     Edge 14, Type (0, 0), BuildingBlock: XUDNAN_clean_linker_2, # of connection points: 2
#     Edge 15, Type (0, 0), BuildingBlock: XUDNAN_clean_linker_2, # of connection points: 2
#     Edge 16, Type (0, 0), BuildingBlock: XUDNAN_clean_linker_2, # of connection points: 2
#     Edge 17, Type (0, 0), BuildingBlock: XUDNAN_clean_linker_2, # of connection points: 2
#     Edge 18, Type (0, 0), BuildingBlock: XUDNAN_clean_linker_2, # of connection points: 2
#     Edge 19, Type (0, 0), BuildingBlock: XUDNAN_clean_linker_2, # of connection points: 2
#     Edge 20, Type (0, 0), BuildingBlock: XUDNAN_clean_linker_2, # of connection points: 2
#     Edge 21, Type (0, 0), BuildingBlock: XUDNAN_clean_linker_2, # of connection points: 2
#     Edge 22, Type (0, 0), BuildingBlock: XUDNAN_clean_linker_2, # of connection points: 2
#     Edge 23, Type (0, 0), BuildingBlock: XUDNAN_clean_linker_2, # of connection points: 2
#     Edge 24, Type (0, 0), BuildingBlock: XUDNAN_clean_linker_2, # of connection points: 2
#     Edge 25, Type (0, 0), BuildingBlock: XUDNAN_clean_linker_2, # of connection points: 2
#     Edge 26, Type (0, 0), BuildingBlock: XUDNAN_clean_linker_2, # of connection points: 2
#     Edge 27, Type (0, 0), BuildingBlock: XUDNAN_clean_linker_2, # of connection points: 2
#     Edge 28, Type (0, 0), BuildingBlock: XUDNAN_clean_linker_2, # of connection points: 2
#     Edge 29, Type (0, 0), BuildingBlock: XUDNAN_clean_linker_2, # of connection points: 2
#     Edge 30, Type (0, 0), BuildingBlock: XUDNAN_clean_linker_2, # of connection points: 2
#     Edge 31, Type (0, 0), BuildingBlock: XUDNAN_clean_linker_2, # of connection points: 2
#     Edge 32, Type (0, 0), BuildingBlock: XUDNAN_clean_linker_2, # of connection points: 2
#     Edge 33, Type (0, 0), BuildingBlock: XUDNAN_clean_linker_2, # of connection points: 2
#     Edge 34, Type (0, 0), BuildingBlock: XUDNAN_clean_linker_2, # of connection points: 2
#     Edge 35, Type (0, 0), BuildingBlock: XUDNAN_clean_linker_2, # of connection points: 2
# Relax obj value: 0.024
# Max RMSD: 0.076
# Mean RMSD: 0.076
data_MOF--net-wjh--node1-QUQFOY_clean_sbu_1--edge1-XUDNAN_clean_linker_2
_symmetry_space_group_name_H-M    P1
_symmetry_Int_Tables_number       1
_symmetry_cell_setting            triclinic
loop_
_symmetry_equiv_pos_as_xyz
'x, y, z'
_cell_length_a     63.068906
_cell_length_b     63.086938
_cell_length_c     28.112296
_cell_angle_alpha  89.968437
_cell_angle_beta   90.092453
_cell_angle_gamma 120.0322
loop_
_atom_site_label
_atom_site_type_symbol
_atom_site_fract_x
_atom_site_fract_y
_atom_site_fract_z
_atom_type_partial_charge
O0 O 0.49939 0.09755 0.05319 0.0
Cd1 Cd 0.5297 0.13242 0.05067 0.0
Cd2 Cd 0.49573 0.13853 0.11037 0.0
O3 O 0.47121 0.10405 0.08551 0.0
O4 O 0.54931 0.12888 0.99837 0.0
O5 O 0.53574 0.15505 0.9946 0.0
C6 C 0.54713 0.14517 0.97468 0.0
C7 C 0.48261 0.16608 0.13117 0.0
C8 C 0.47739 0.08974 0.0662 0.0
C9 C 0.54334 0.14477 0.15256 0.0
O10 O 0.52185 0.14131 0.15778 0.0
O11 O 0.55141 0.14421 0.11136 0.0
O12 O 0.47591 0.14625 0.15474 0.0
O13 O 0.49547 0.16957 0.09321 0.0
O14 O 0.41261 0.50735 0.25258 0.0
Cd15 Cd 0.40342 0.53447 0.25191 0.0
Cd16 Cd 0.36039 0.49719 0.28064 0.0
O17 O 0.37458 0.47659 0.25286 0.0
O18 O 0.42338 0.55894 0.20161 0.0
O19 O 0.38331 0.53385 0.19609 0.0
C20 C 0.40351 0.55033 0.17672 0.0
C21 C 0.31908 0.48539 0.27574 0.0
C22 C 0.39745 0.48453 0.24932 0.0
C23 C 0.39084 0.53663 0.35174 0.0
O24 O 0.37446 0.51455 0.34425 0.0
O25 O 0.40391 0.54997 0.31748 0.0
O26 O 0.32623 0.47244 0.29868 0.0
O27 O 0.33519 0.50415 0.2522 0.0
O28 O 0.90533 0.40959 0.3815 0.0
Cd29 Cd 0.86929 0.40186 0.37742 0.0
Cd30 Cd 0.86322 0.36186 0.43282 0.0
O31 O 0.89951 0.37546 0.41561 0.0
O32 O 0.86909 0.42547 0.33009 0.0
O33 O 0.84965 0.38552 0.31774 0.0
C34 C 0.85562 0.40717 0.30287 0.0
C35 C 0.83582 0.31986 0.43413 0.0
C36 C 0.91369 0.3962 0.39687 0.0
C37 C 0.85221 0.39864 0.4784 0.0
O38 O 0.85573 0.38065 0.48333 0.0
O39 O 0.85494 0.40874 0.43797 0.0
O40 O 0.85208 0.33033 0.46691 0.0
O41 O 0.83578 0.33301 0.39894 0.0
O42 O 0.49487 0.90423 0.57704 0.0
Cd43 Cd 0.46511 0.86898 0.57575 0.0
Cd44 Cd 0.50176 0.85919 0.60757 0.0
O45 O 0.52426 0.89542 0.5893 0.0
O46 O 0.43944 0.86938 0.53417 0.0
O47 O 0.45936 0.85015 0.51421 0.0
C48 C 0.44353 0.8567 0.5034 0.0
C49 C 0.51544 0.83112 0.60096 0.0
C50 C 0.51751 0.91098 0.58093 0.0
C51 C 0.45971 0.84967 0.67446 0.0
O52 O 0.48055 0.85185 0.66727 0.0
O53 O 0.44879 0.85411 0.64112 0.0
O54 O 0.52423 0.84818 0.63248 0.0
O55 O 0.49995 0.83086 0.57057 0.0
O56 O 0.59735 0.49897 0.75843 0.0
Cd57 Cd 0.60463 0.47051 0.75773 0.0
Cd58 Cd 0.64786 0.50674 0.78746 0.0
O59 O 0.63571 0.52918 0.75979 0.0
O60 O 0.58352 0.44618 0.70763 0.0
O61 O 0.62371 0.46981 0.70155 0.0
C62 C 0.60318 0.45384 0.68253 0.0
C63 C 0.68514 0.50853 0.77633 0.0
C64 C 0.61292 0.52173 0.75588 0.0
C65 C 0.61684 0.46818 0.85826 0.0
O66 O 0.63325 0.49032 0.8513 0.0
O67 O 0.60403 0.45495 0.82355 0.0
O68 O 0.68397 0.5255 0.79979 0.0
O69 O 0.66565 0.49227 0.75467 0.0
O70 O 0.10637 0.59139 0.89351 0.0
Cd71 Cd 0.1438 0.60685 0.88461 0.0
Cd72 Cd 0.1389 0.64186 0.93694 0.0
O73 O 0.10306 0.6235 0.91341 0.0
O74 O 0.14692 0.58316 0.84176 0.0
O75 O 0.15847 0.62098 0.81983 0.0
C76 C 0.15576 0.59983 0.80946 0.0
C77 C 0.16214 0.68407 0.94927 0.0
C78 C 0.09321 0.601 0.90222 0.0
C79 C 0.15864 0.61267 0.98561 0.0
O80 O 0.14711 0.62429 0.9891 0.0
O81 O 0.16271 0.60668 0.94489 0.0
O82 O 0.1429 0.67048 0.97416 0.0
O83 O 0.16686 0.67407 0.9138 0.0
O84 O 0.90114 0.48672 0.90279 0.0
Cd85 Cd 0.86406 0.46324 0.89705 0.0
Cd86 Cd 0.86909 0.50547 0.86219 0.0
O87 O 0.9033 0.52255 0.89435 0.0
O88 O 0.85658 0.43602 0.94362 0.0
O89 O 0.84433 0.46298 0.95315 0.0
C90 C 0.84625 0.44499 0.97006 0.0
C91 C 0.83438 0.50831 0.87315 0.0
C92 C 0.91347 0.50999 0.90418 0.0
C93 C 0.85563 0.46493 0.79327 0.0
O94 O 0.86614 0.48795 0.79938 0.0
O95 O 0.85046 0.45055 0.82877 0.0
O96 O 0.85312 0.52568 0.8515 0.0
O97 O 0.83688 0.4914 0.89387 0.0
O98 O 0.40453 0.90302 0.08195 0.0
Cd99 Cd 0.39793 0.86753 0.08989 0.0
Cd100 Cd 0.35681 0.8589 0.03672 0.0
O101 O 0.36855 0.8949 0.05329 0.0
O102 O 0.41861 0.86799 0.14489 0.0
O103 O 0.37816 0.84834 0.14679 0.0
C104 C 0.39866 0.85507 0.16852 0.0
C105 C 0.31498 0.83033 0.03458 0.0
C106 C 0.38979 0.91015 0.06869 0.0
C107 C 0.39499 0.84946 0.99086 0.0
O108 O 0.37672 0.85261 0.98651 0.0
O109 O 0.40532 0.85223 0.03116 0.0
O110 O 0.32524 0.84653 1.00173 0.0
O111 O 0.32823 0.83085 0.07013 0.0
O112 O 0.50974 0.40968 0.26765 0.0
Cd113 Cd 0.53905 0.40358 0.2735 0.0
Cd114 Cd 0.5061 0.36241 0.21898 0.0
O115 O 0.48223 0.37464 0.23503 0.0
O116 O 0.56217 0.42867 0.31982 0.0
O117 O 0.54312 0.38901 0.335 0.0
C118 C 0.558 0.41115 0.34866 0.0
C119 C 0.4929 0.32068 0.21872 0.0
C120 C 0.48808 0.39545 0.25256 0.0
C121 C 0.55327 0.40018 0.17287 0.0
O122 O 0.532 0.38173 0.16817 0.0
O123 O 0.56053 0.4105 0.21318 0.0
O124 O 0.48656 0.3305 0.18561 0.0
O125 O 0.50593 0.33434 0.25359 0.0
O126 O 0.10086 0.5129 0.39638 0.0
Cd127 Cd 0.13697 0.54066 0.39895 0.0
Cd128 Cd 0.1446 0.50416 0.36551 0.0
O129 O 0.10892 0.48283 0.38892 0.0
O130 O 0.14057 0.56406 0.45076 0.0
O131 O 0.15678 0.54001 0.45424 0.0
C132 C 0.15258 0.55595 0.47458 0.0
C133 C 0.17207 0.48961 0.36779 0.0
C134 C 0.09364 0.49013 0.39528 0.0
C135 C 0.15531 0.54683 0.30045 0.0
O136 O 0.15096 0.52501 0.30539 0.0
O137 O 0.15269 0.55816 0.33533 0.0
O138 O 0.15257 0.47913 0.34215 0.0
O139 O 0.17526 0.50741 0.39512 0.0
O140 O 0.59721 0.09837 0.57071 0.0
Cd141 Cd 0.60205 0.13321 0.56893 0.0
Cd142 Cd 0.648 0.14059 0.52954 0.0
O143 O 0.63427 0.1051 0.55352 0.0
O144 O 0.5772 0.13115 0.61577 0.0
O145 O 0.61708 0.15583 0.62537 0.0
C146 C 0.59509 0.14678 0.64173 0.0
C147 C 0.6902 0.16609 0.51741 0.0
C148 C 0.61218 0.0906 0.5656 0.0
C149 C 0.61145 0.14844 0.46829 0.0
O150 O 0.63024 0.14627 0.47403 0.0
O151 O 0.59722 0.14524 0.50304 0.0
O152 O 0.67752 0.14642 0.49314 0.0
O153 O 0.6794 0.17035 0.55197 0.0
O154 O 0.5001 0.59613 0.76547 0.0
Cd155 Cd 0.46998 0.60109 0.76927 0.0
Cd156 Cd 0.50445 0.64256 0.70876 0.0
O157 O 0.5279 0.63105 0.73276 0.0
O158 O 0.44693 0.57548 0.81493 0.0
O159 O 0.4645 0.61502 0.83032 0.0
C160 C 0.4501 0.59271 0.84363 0.0
C161 C 0.51943 0.68348 0.68688 0.0
C162 C 0.52198 0.61053 0.75179 0.0
C163 C 0.45623 0.60232 0.66723 0.0
O164 O 0.47774 0.62022 0.66159 0.0
O165 O 0.44864 0.59329 0.70835 0.0
O166 O 0.52495 0.66942 0.66344 0.0
O167 O 0.50682 0.67493 0.72537 0.0
H168 H 0.52824 0.13773 0.24534 0.0
H169 H 0.59279 0.16138 0.15739 0.0
H170 H 0.61772 0.16828 0.22991 0.0
H171 H 0.55804 0.17987 0.34395 0.0
H172 H 0.53976 0.15755 0.38836 0.0
H173 H 0.52732 0.15607 0.3299 0.0
H174 H 0.518 0.11135 0.32062 0.0
H175 H 0.53027 0.11264 0.37907 0.0
H176 H 0.54235 0.10455 0.32858 0.0
H177 H 0.63511 0.17113 0.31118 0.0
H178 H 0.64373 0.16723 0.39501 0.0
H179 H 0.56757 0.14091 0.43069 0.0
C180 C 0.54768 0.14463 0.2412 0.0
C181 C 0.55862 0.14918 0.19558 0.0
C182 C 0.58403 0.1578 0.19188 0.0
C183 C 0.59833 0.16188 0.23288 0.0
C184 C 0.58691 0.15719 0.27721 0.0
C185 C 0.56214 0.14861 0.28162 0.0
C186 C 0.55408 0.14362 0.33321 0.0
C187 C 0.54422 0.16028 0.34982 0.0
C188 C 0.53506 0.11643 0.3408 0.0
C189 C 0.57817 0.15042 0.35724 0.0
C190 C 0.59689 0.15846 0.32423 0.0
C191 C 0.62063 0.16496 0.33732 0.0
C192 C 0.6253 0.16263 0.38514 0.0
C193 C 0.60631 0.15373 0.41956 0.0
C194 C 0.58252 0.14804 0.40543 0.0
H195 H 0.43125 0.57712 0.38937 0.0
H196 H 0.35943 0.51672 0.42631 0.0
H197 H 0.36695 0.52905 0.51047 0.0
H198 H 0.46192 0.57157 0.48773 0.0
H199 H 0.48218 0.60394 0.49632 0.0
H200 H 0.47017 0.59231 0.43806 0.0
H201 H 0.45255 0.62157 0.43267 0.0
H202 H 0.46463 0.6334 0.49094 0.0
H203 H 0.43249 0.62104 0.47885 0.0
H204 H 0.3836 0.54527 0.5916 0.0
H205 H 0.40829 0.56491 0.66358 0.0
H206 H 0.46906 0.61478 0.57409 0.0
C207 C 0.41691 0.56685 0.41502 0.0
C208 C 0.39475 0.54599 0.40117 0.0
C209 C 0.3766 0.53275 0.43602 0.0
C210 C 0.38063 0.53965 0.48397 0.0
C211 C 0.40289 0.5599 0.49669 0.0
C212 C 0.42068 0.57343 0.46325 0.0
C213 C 0.44362 0.59339 0.48685 0.0
C214 C 0.46577 0.59009 0.47664 0.0
C215 C 0.44861 0.61886 0.47141 0.0
C216 C 0.43612 0.58852 0.53868 0.0
C217 C 0.41249 0.56928 0.54362 0.0
C218 C 0.40204 0.5606 0.58822 0.0
C219 C 0.41621 0.57182 0.62891 0.0
C220 C 0.44057 0.59145 0.62465 0.0
C221 C 0.45042 0.59998 0.57877 0.0
H222 H 0.85198 0.42273 0.75639 0.0
H223 H 0.84613 0.48634 0.71892 0.0
H224 H 0.83983 0.47353 0.63492 0.0
H225 H 0.88694 0.42579 0.65816 0.0
H226 H 0.87304 0.39321 0.64956 0.0
H227 H 0.87347 0.40521 0.70778 0.0
H228 H 0.82625 0.37814 0.71283 0.0
H229 H 0.82569 0.36599 0.65452 0.0
H230 H 0.80745 0.38006 0.66657 0.0
H231 H 0.83845 0.45654 0.55435 0.0
H232 H 0.8429 0.43672 0.48236 0.0
H233 H 0.85011 0.38432 0.57124 0.0
C234 C 0.84873 0.43355 0.73061 0.0
C235 C 0.84942 0.45543 0.74414 0.0
C236 C 0.84571 0.46951 0.70928 0.0
C237 C 0.84198 0.46233 0.66149 0.0
C238 C 0.84201 0.44102 0.64899 0.0
C239 C 0.84524 0.42677 0.68246 0.0
C240 C 0.84675 0.40599 0.65881 0.0
C241 C 0.87153 0.40767 0.66919 0.0
C242 C 0.82525 0.38107 0.67409 0.0
C243 C 0.84455 0.41123 0.60694 0.0
C244 C 0.84149 0.43131 0.60211 0.0
C245 C 0.8405 0.44057 0.55762 0.0
C246 C 0.84309 0.42921 0.51691 0.0
C247 C 0.84676 0.4089 0.521 0.0
C248 C 0.84705 0.39963 0.56674 0.0
H249 H 0.42149 0.85371 0.71276 0.0
H250 H 0.47517 0.83212 0.74722 0.0
H251 H 0.46226 0.82658 0.83096 0.0
H252 H 0.43019 0.88854 0.8147 0.0
H253 H 0.39847 0.87972 0.82269 0.0
H254 H 0.40981 0.87933 0.76422 0.0
H255 H 0.37658 0.83369 0.75446 0.0
H256 H 0.36502 0.83399 0.81291 0.0
H257 H 0.37401 0.81176 0.79854 0.0
H258 H 0.44703 0.8279 0.91262 0.0
H259 H 0.42879 0.83409 0.98547 0.0
H260 H 0.38433 0.85365 0.89815 0.0
C261 C 0.43009 0.84724 0.73768 0.0
C262 C 0.44935 0.84336 0.72322 0.0
C263 C 0.46041 0.83529 0.75727 0.0
C264 C 0.45318 0.83201 0.80504 0.0
C265 C 0.43468 0.83666 0.81843 0.0
C266 C 0.42307 0.84383 0.78572 0.0
C267 C 0.40468 0.84897 0.81006 0.0
C268 C 0.41119 0.87573 0.80246 0.0
C269 C 0.37852 0.83103 0.79297 0.0
C270 C 0.40829 0.8442 0.86149 0.0
C271 C 0.42559 0.83701 0.86559 0.0
C272 C 0.43313 0.83312 0.90985 0.0
C273 C 0.42275 0.83675 0.95104 0.0
C274 C 0.40497 0.84412 0.94764 0.0
C275 C 0.39756 0.84761 0.9021 0.0
H276 H 0.53996 0.38762 0.07977 0.0
H277 H 0.60128 0.43709 0.16886 0.0
H278 H 0.62547 0.45718 0.09687 0.0
H279 H 0.57622 0.38251 0.98159 0.0
H280 H 0.55557 0.38219 0.93681 0.0
H281 H 0.54417 0.36976 0.99504 0.0
H282 H 0.52624 0.39861 1.00366 0.0
H283 H 0.53766 0.41121 0.9457 0.0
H284 H 0.54612 0.43116 0.99666 0.0
H285 H 0.64141 0.4743 0.01641 0.0
H286 H 0.64835 0.48763 0.93285 0.0
H287 H 0.57654 0.42726 0.89525 0.0
C288 C 0.55867 0.40232 0.08426 0.0
C289 C 0.56878 0.41068 0.13008 0.0
C290 C 0.59317 0.43029 0.13422 0.0
C291 C 0.60707 0.44177 0.09352 0.0
C292 C 0.59633 0.4334 0.04898 0.0
C293 C 0.57273 0.41406 0.04406 0.0
C294 C 0.56485 0.40982 0.99228 0.0
C295 C 0.55992 0.38457 0.97544 0.0
C296 C 0.5424 0.41289 0.98412 0.0
C297 C 0.58752 0.43024 0.96888 0.0
C298 C 0.60552 0.44342 1.00227 0.0
C299 C 0.62758 0.46396 0.98989 0.0
C300 C 0.63128 0.47143 0.94228 0.0
C301 C 0.61298 0.45847 0.90741 0.0
C302 C 0.59097 0.43735 0.92091 0.0
H303 H 0.14934 0.58373 0.26237 0.0
H304 H 0.17763 0.53518 0.23086 0.0
H305 H 0.18623 0.55055 0.14849 0.0
H306 H 0.11787 0.57421 0.15629 0.0
H307 H 0.12388 0.60515 0.14945 0.0
H308 H 0.12349 0.59332 0.20784 0.0
H309 H 0.16734 0.62936 0.22364 0.0
H310 H 0.16783 0.64138 0.1652 0.0
H311 H 0.19162 0.63506 0.18274 0.0
H312 H 0.18754 0.56758 0.06752 0.0
H313 H 0.18071 0.58467 0.99374 0.0
H314 H 0.15123 0.62181 0.07745 0.0
C315 C 0.15798 0.57688 0.23846 0.0
C316 C 0.16294 0.55838 0.25306 0.0
C317 C 0.17367 0.54937 0.22041 0.0
C318 C 0.17875 0.55807 0.17359 0.0
C319 C 0.17303 0.57581 0.15985 0.0
C320 C 0.16296 0.5852 0.19132 0.0
C321 C 0.15639 0.6024 0.16627 0.0
C322 C 0.12877 0.59321 0.17019 0.0
C323 C 0.17171 0.62861 0.18562 0.0
C324 C 0.16362 0.60058 0.11571 0.0
C325 C 0.17353 0.58545 0.11283 0.0
C326 C 0.18014 0.57977 0.06937 0.0
C327 C 0.17617 0.58954 0.02762 0.0
C328 C 0.1655 0.60464 0.02968 0.0
C329 C 0.15962 0.61051 0.07454 0.0
H330 H 0.49193 0.29679 0.13779 0.0
H331 H 0.48158 0.28729 0.29032 0.0
H332 H 0.47315 0.24459 0.28251 0.0
H333 H 0.44722 0.23426 0.10078 0.0
H334 H 0.46678 0.23378 0.05463 0.0
H335 H 0.46875 0.26229 0.0714 0.0
H336 H 0.51518 0.28118 0.08792 0.0
H337 H 0.51338 0.25281 0.07108 0.0
H338 H 0.5254 0.26602 0.1286 0.0
H339 H 0.4669 0.20357 0.25802 0.0
H340 H 0.46876 0.16908 0.22139 0.0
H341 H 0.48709 0.2068 0.08549 0.0
C342 C 0.48737 0.2855 0.16938 0.0
C343 C 0.48688 0.29499 0.21458 0.0
C344 C 0.48176 0.28013 0.2554 0.0
C345 C 0.47685 0.2559 0.25121 0.0
C346 C 0.4776 0.2471 0.20605 0.0
C347 C 0.48311 0.26157 0.16595 0.0
C348 C 0.48545 0.24872 0.12243 0.0
C349 C 0.46588 0.24451 0.08511 0.0
C350 C 0.51139 0.26303 0.10129 0.0
C351 C 0.48065 0.22479 0.14435 0.0
C352 C 0.47559 0.22403 0.19239 0.0
C353 C 0.47081 0.20395 0.22046 0.0
C354 C 0.47182 0.1844 0.19921 0.0
C355 C 0.47807 0.18525 0.15053 0.0
C356 C 0.48219 0.2056 0.12269 0.0
H357 H 0.3052 0.51927 0.29024 0.0
H358 H 0.27706 0.44111 0.28068 0.0
H359 H 0.23604 0.43335 0.30513 0.0
H360 H 0.2737 0.51621 0.39611 0.0
H361 H 0.2681 0.54071 0.38056 0.0
H362 H 0.29441 0.54031 0.35685 0.0
H363 H 0.28055 0.54222 0.27087 0.0
H364 H 0.2545 0.54318 0.29435 0.0
H365 H 0.25006 0.51991 0.25189 0.0
H366 H 0.19815 0.43441 0.33051 0.0
H367 H 0.16645 0.44419 0.35623 0.0
H368 H 0.22083 0.52141 0.35838 0.0
C369 C 0.29018 0.50056 0.29192 0.0
C370 C 0.29397 0.48075 0.28242 0.0
C371 C 0.27426 0.45648 0.28698 0.0
C372 C 0.25101 0.45193 0.30106 0.0
C373 C 0.24801 0.47188 0.31152 0.0
C374 C 0.26709 0.49572 0.30729 0.0
C375 C 0.25955 0.51384 0.32379 0.0
C376 C 0.27485 0.52863 0.36689 0.0
C377 C 0.26126 0.53078 0.28278 0.0
C378 C 0.23321 0.49651 0.33769 0.0
C379 C 0.22682 0.47239 0.32987 0.0
C380 C 0.20303 0.45319 0.33739 0.0
C381 C 0.18521 0.45887 0.35223 0.0
C382 C 0.19145 0.48344 0.36046 0.0
C383 C 0.21583 0.50241 0.35391 0.0
H384 H 0.72456 0.20769 0.5642 0.0
H385 H 0.71146 0.16677 0.43285 0.0
H386 H 0.7491 0.20066 0.39874 0.0
H387 H 0.74587 0.26479 0.51433 0.0
H388 H 0.76956 0.28176 0.55755 0.0
H389 H 0.74303 0.25329 0.5741 0.0
H390 H 0.77079 0.23613 0.60132 0.0
H391 H 0.79748 0.26472 0.58538 0.0
H392 H 0.79298 0.2364 0.56061 0.0
H393 H 0.78382 0.24155 0.37395 0.0
H394 H 0.81725 0.28462 0.36503 0.0
H395 H 0.81056 0.29756 0.51416 0.0
C396 C 0.72999 0.20561 0.52878 0.0
C397 C 0.71504 0.18456 0.50127 0.0
C398 C 0.72266 0.18262 0.45483 0.0
C399 C 0.74401 0.20183 0.43497 0.0
C400 C 0.7579 0.22267 0.46235 0.0
C401 C 0.75159 0.22445 0.5087 0.0
C402 C 0.76939 0.2492 0.52985 0.0
C403 C 0.75616 0.26306 0.54481 0.0
C404 C 0.7835 0.24644 0.57177 0.0
C405 C 0.78604 0.2613 0.4876 0.0
C406 C 0.77901 0.24575 0.44888 0.0
C407 C 0.79 0.25368 0.40438 0.0
C408 C 0.80882 0.27812 0.39951 0.0
C409 C 0.81668 0.29403 0.43912 0.0
C410 C 0.80528 0.28544 0.4837 0.0
H411 H 0.51918 0.80951 0.68108 0.0
H412 H 0.52216 0.80651 0.5274 0.0
H413 H 0.52859 0.77087 0.53392 0.0
H414 H 0.56256 0.78866 0.71094 0.0
H415 H 0.54428 0.77031 0.76014 0.0
H416 H 0.5437 0.79761 0.74356 0.0
H417 H 0.49649 0.7723 0.73462 0.0
H418 H 0.49692 0.74497 0.75121 0.0
H419 H 0.48307 0.74603 0.69577 0.0
H420 H 0.53337 0.73496 0.55766 0.0
H421 H 0.53032 0.69814 0.59478 0.0
H422 H 0.51981 0.72223 0.73284 0.0
C423 C 0.52182 0.8017 0.64887 0.0
C424 C 0.52081 0.81097 0.60373 0.0
C425 C 0.52326 0.79976 0.56223 0.0
C426 C 0.52701 0.77965 0.56569 0.0
C427 C 0.52773 0.77079 0.61087 0.0
C428 C 0.52482 0.78124 0.65169 0.0
C429 C 0.52327 0.76654 0.69552 0.0
C430 C 0.54474 0.78169 0.72954 0.0
C431 C 0.49846 0.75689 0.72074 0.0
C432 C 0.52549 0.74596 0.67302 0.0
C433 C 0.52868 0.74911 0.62432 0.0
C434 C 0.53092 0.73234 0.59572 0.0
C435 C 0.52926 0.71152 0.61724 0.0
C436 C 0.52484 0.70733 0.66674 0.0
C437 C 0.52327 0.72499 0.69499 0.0
H438 H 0.73336 0.54329 0.7942 0.0
H439 H 0.68438 0.46528 0.77478 0.0
H440 H 0.71683 0.45726 0.80198 0.0
H441 H 0.7886 0.5421 0.75151 0.0
H442 H 0.80859 0.56557 0.79266 0.0
H443 H 0.78162 0.56524 0.77035 0.0
H444 H 0.7675 0.56483 0.85698 0.0
H445 H 0.79409 0.56452 0.87955 0.0
H446 H 0.76389 0.54085 0.89685 0.0
H447 H 0.75198 0.45712 0.8412 0.0
H448 H 0.79205 0.46499 0.87036 0.0
H449 H 0.82095 0.54324 0.85575 0.0
C450 C 0.72973 0.5246 0.79464 0.0
C451 C 0.70636 0.50489 0.78239 0.0
C452 C 0.70221 0.48067 0.78349 0.0
C453 C 0.72043 0.47589 0.79943 0.0
C454 C 0.74293 0.49559 0.81297 0.0
C455 C 0.74805 0.51952 0.80906 0.0
C456 C 0.77425 0.53726 0.82414 0.0
C457 C 0.78915 0.5535 0.78216 0.0
C458 C 0.77496 0.55278 0.86692 0.0
C459 C 0.78277 0.51946 0.83805 0.0
C460 C 0.76413 0.49554 0.83231 0.0
C461 C 0.76689 0.47575 0.84505 0.0
C462 C 0.78967 0.48045 0.86217 0.0
C463 C 0.80962 0.50473 0.86533 0.0
C464 C 0.80601 0.52451 0.85371 0.0
H465 H 0.20301 0.71949 0.90259 0.0
H466 H 0.16244 0.70459 0.03471 0.0
H467 H 0.19613 0.74219 0.06964 0.0
H468 H 0.26017 0.74075 0.95141 0.0
H469 H 0.2769 0.76491 0.90902 0.0
H470 H 0.24848 0.73844 0.89191 0.0
H471 H 0.23091 0.76616 0.86704 0.0
H472 H 0.25946 0.79281 0.88344 0.0
H473 H 0.23115 0.78787 0.90904 0.0
H474 H 0.23704 0.777 0.09489 0.0
H475 H 0.28002 0.81065 0.10404 0.0
H476 H 0.29254 0.80547 0.95406 0.0
C477 C 0.2009 0.72454 0.93834 0.0
C478 C 0.18005 0.70906 0.96583 0.0
C479 C 0.17812 0.71619 1.01273 0.0
C480 C 0.19723 0.73751 0.03305 0.0
C481 C 0.21795 0.75186 1.0057 0.0
C482 C 0.21964 0.74607 0.95892 0.0
C483 C 0.24428 0.76419 0.93789 0.0
C484 C 0.25827 0.75129 0.92162 0.0
C485 C 0.24126 0.77862 0.89693 0.0
C486 C 0.25644 0.78046 0.98064 0.0
C487 C 0.24102 0.77295 0.01954 0.0
C488 C 0.24907 0.78354 0.06435 0.0
C489 C 0.27346 0.80248 0.06935 0.0
C490 C 0.28924 0.81084 0.02957 0.0
C491 C 0.28054 0.7998 0.98471 0.0
H492 H 0.56678 0.11412 0.70914 0.0
H493 H 0.61364 0.19182 0.68428 0.0
H494 H 0.60538 0.20045 0.76639 0.0
H495 H 0.52191 0.1164 0.78447 0.0
H496 H 0.51922 0.09249 0.8235 0.0
H497 H 0.52752 0.09287 0.76211 0.0
H498 H 0.56673 0.09244 0.7882 0.0
H499 H 0.55854 0.09203 0.84965 0.0
H500 H 0.58792 0.11566 0.82847 0.0
H501 H 0.58971 0.20003 0.85117 0.0
H502 H 0.57322 0.19057 0.93352 0.0
H503 H 0.54131 0.11308 0.90458 0.0
C504 C 0.57509 0.13297 0.72092 0.0
C505 C 0.59046 0.15239 0.69037 0.0
C506 C 0.60163 0.17676 0.70723 0.0
C507 C 0.59697 0.18178 0.75367 0.0
C508 C 0.58164 0.16215 0.78305 0.0
C509 C 0.5713 0.1382 0.7675 0.0
C510 C 0.55703 0.12026 0.80679 0.0
C511 C 0.52981 0.10459 0.79341 0.0
C512 C 0.56823 0.10416 0.81899 0.0
C513 C 0.56069 0.13778 0.8469 0.0
C514 C 0.57451 0.16189 0.83242 0.0
C515 C 0.57917 0.18122 0.86297 0.0
C516 C 0.5697 0.17572 0.90954 0.0
C517 C 0.55635 0.15116 0.92534 0.0
C518 C 0.55184 0.13205 0.89354 0.0
H519 H 0.46941 0.6124 0.93116 0.0
H520 H 0.40289 0.55832 0.86109 0.0
H521 H 0.38224 0.54515 0.93905 0.0
H522 H 0.46526 0.57366 0.02481 0.0
H523 H 0.47771 0.59714 0.06986 0.0
H524 H 0.48611 0.60503 1.00856 0.0
H525 H 0.47147 0.63673 1.01249 0.0
H526 H 0.46299 0.62889 0.07392 0.0
H527 H 0.44067 0.62708 0.03153 0.0
H528 H 0.36949 0.53615 0.0244 0.0
H529 H 0.36669 0.52897 0.111 0.0
H530 H 0.44238 0.5867 0.12689 0.0
C531 C 0.4503 0.59826 0.93235 0.0
C532 C 0.43751 0.58667 0.89019 0.0
C533 C 0.41285 0.56758 0.89304 0.0
C534 C 0.40097 0.56006 0.93712 0.0
C535 C 0.41412 0.57154 0.9782 0.0
C536 C 0.43833 0.59007 0.97633 0.0
C537 C 0.44905 0.59737 0.02603 0.0
C538 C 0.47081 0.59303 0.03269 0.0
C539 C 0.45648 0.62411 0.03661 0.0
C540 C 0.42725 0.57978 0.05598 0.0
C541 C 0.40715 0.56543 0.02768 0.0
C542 C 0.38507 0.54738 0.04695 0.0
C543 C 0.38364 0.54347 0.09629 0.0
C544 C 0.40427 0.55727 0.12592 0.0
C545 C 0.42622 0.57595 0.10535 0.0
H546 H 0.85193 0.41041 0.01985 0.0
H547 H 0.82659 0.46262 0.03464 0.0
H548 H 0.82223 0.45518 0.12103 0.0
H549 H 0.81206 0.36764 0.11609 0.0
H550 H 0.83567 0.36135 0.13508 0.0
H551 H 0.83371 0.36825 0.07354 0.0
H552 H 0.87882 0.40344 0.07654 0.0
H553 H 0.88087 0.39683 0.13807 0.0
H554 H 0.88793 0.42718 0.12068 0.0
H555 H 0.82725 0.44763 0.2062 0.0
H556 H 0.83749 0.43721 0.28448 0.0
H557 H 0.85688 0.38771 0.21616 0.0
C558 C 0.84475 0.41972 0.04105 0.0
C559 C 0.83952 0.43706 0.02026 0.0
C560 C 0.83059 0.44916 0.0495 0.0
C561 C 0.82807 0.44507 0.09874 0.0
C562 C 0.83417 0.42854 0.11832 0.0
C563 C 0.8419 0.41568 0.09038 0.0
C564 C 0.84869 0.40006 0.12089 0.0
C565 C 0.8315 0.3727 0.1108 0.0
C566 C 0.87568 0.40732 0.1136 0.0
C567 C 0.84445 0.40687 0.17034 0.0
C568 C 0.83605 0.42333 0.16792 0.0
C569 C 0.83317 0.43426 0.2086 0.0
C570 C 0.8391 0.42831 0.25285 0.0
C571 C 0.84744 0.41132 0.25626 0.0
C572 C 0.8498 0.40019 0.21453 0.0
H573 H 0.46329 0.85786 0.41587 0.0
H574 H 0.39625 0.84409 0.48515 0.0
H575 H 0.37621 0.83807 0.40663 0.0
H576 H 0.45977 0.89407 0.32428 0.0
H577 H 0.47262 0.88379 0.27873 0.0
H578 H 0.48059 0.88345 0.3401 0.0
H579 H 0.46617 0.83723 0.33367 0.0
H580 H 0.45818 0.83743 0.27214 0.0
H581 H 0.43556 0.81624 0.3132 0.0
H582 H 0.36399 0.8353 0.32042 0.0
H583 H 0.36162 0.83985 0.23358 0.0
H584 H 0.43764 0.85882 0.21991 0.0
C585 C 0.4442 0.85294 0.41439 0.0
C586 C 0.4311 0.85091 0.45652 0.0
C587 C 0.40646 0.84541 0.45326 0.0
C588 C 0.39494 0.84191 0.40884 0.0
C589 C 0.40843 0.84439 0.36785 0.0
C590 C 0.43261 0.85002 0.37018 0.0
C591 C 0.44372 0.8542 0.32079 0.0
C592 C 0.46546 0.88043 0.31569 0.0
C593 C 0.45135 0.83513 0.30928 0.0
C594 C 0.42214 0.85032 0.29043 0.0
C595 C 0.40182 0.84419 0.31822 0.0
C596 C 0.37978 0.84003 0.29831 0.0
C597 C 0.37858 0.84259 0.24888 0.0
C598 C 0.39941 0.8497 0.21983 0.0
C599 C 0.42137 0.85333 0.24106 0.0
H600 H 0.56319 0.41904 0.6321 0.0
H601 H 0.64049 0.47252 0.61796 0.0
H602 H 0.6379 0.46464 0.53173 0.0
H603 H 0.56222 0.37617 0.53941 0.0
H604 H 0.53212 0.36855 0.51892 0.0
H605 H 0.54048 0.37659 0.58038 0.0
H606 H 0.52916 0.41068 0.57345 0.0
H607 H 0.52092 0.40286 0.51202 0.0
H608 H 0.54342 0.43378 0.52804 0.0
H609 H 0.62583 0.45564 0.44627 0.0
H610 H 0.60576 0.44304 0.36757 0.0
H611 H 0.537 0.39298 0.43581 0.0
C612 C 0.57969 0.42869 0.61103 0.0
C613 C 0.60207 0.4464 0.63199 0.0
C614 C 0.62317 0.45878 0.60297 0.0
C615 C 0.62188 0.45445 0.55383 0.0
C616 C 0.59946 0.43737 0.53412 0.0
C617 C 0.57881 0.42433 0.56183 0.0
C618 C 0.55677 0.40769 0.53126 0.0
C619 C 0.54734 0.38064 0.54321 0.0
C620 C 0.53637 0.41415 0.53652 0.0
C621 C 0.56809 0.41403 0.48198 0.0
C622 C 0.59275 0.43124 0.48456 0.0
C623 C 0.6067 0.44172 0.44381 0.0
C624 C 0.59517 0.43452 0.39931 0.0
C625 C 0.57005 0.41671 0.39576 0.0
C626 C 0.55642 0.40609 0.43762 0.0
H627 H 0.14788 0.59043 0.52644 0.0
H628 H 0.17229 0.53733 0.53739 0.0
H629 H 0.17923 0.54564 0.62345 0.0
H630 H 0.19106 0.63387 0.61638 0.0
H631 H 0.16873 0.64121 0.63874 0.0
H632 H 0.16792 0.63286 0.57717 0.0
H633 H 0.12282 0.59836 0.58702 0.0
H634 H 0.12351 0.60651 0.64855 0.0
H635 H 0.11515 0.57561 0.63273 0.0
H636 H 0.17839 0.55563 0.70945 0.0
H637 H 0.17246 0.56867 0.78879 0.0
H638 H 0.1509 0.61712 0.72265 0.0
C639 C 0.15518 0.58092 0.54673 0.0
C640 C 0.1596 0.56324 0.52499 0.0
C641 C 0.1689 0.55104 0.55302 0.0
C642 C 0.17289 0.55563 0.60203 0.0
C643 C 0.16783 0.57274 0.62251 0.0
C644 C 0.1595 0.58546 0.59568 0.0
C645 C 0.15444 0.60208 0.62688 0.0
C646 C 0.17156 0.62911 0.61402 0.0
C647 C 0.12738 0.59522 0.62359 0.0
C648 C 0.16052 0.59617 0.6756 0.0
C649 C 0.16823 0.5792 0.67219 0.0
C650 C 0.1729 0.5693 0.71249 0.0
C651 C 0.16942 0.57677 0.7574 0.0
C652 C 0.16165 0.5942 0.7618 0.0
C653 C 0.15751 0.60428 0.72029 0.0
H654 H 0.48742 0.05254 0.05975 0.0
H655 H 0.42711 0.06704 0.06714 0.0
H656 H 0.39772 0.02241 0.06728 0.0
H657 H 0.45806 0.99857 0.98492 0.0
H658 H 0.47158 0.98339 0.01653 0.0
H659 H 0.48742 0.01632 1.01351 0.0
H660 H 0.48984 0.01853 0.10559 0.0
H661 H 0.47381 0.98562 0.10892 0.0
H662 H 0.46207 0.00258 0.13992 0.0
H663 H 0.37507 0.97586 0.06693 0.0
H664 H 0.36117 0.93157 0.06917 0.0
H665 H 0.43684 0.94842 0.0674 0.0
C666 C 0.46802 0.04638 0.06058 0.0
C667 C 0.45951 0.06325 0.06282 0.0
C668 C 0.434 0.05441 0.06509 0.0
C669 C 0.4172 0.02912 0.06519 0.0
C670 C 0.42627 0.013 0.06362 0.0
C671 C 0.45111 0.02133 0.06157 0.0
C672 C 0.45631 1.00039 0.06266 0.0
C673 C 0.46909 0.99962 0.01667 0.0
C674 C 0.4714 0.00188 0.10691 0.0
C675 C 0.43051 0.97889 0.06563 0.0
C676 C 0.41339 0.98647 0.06566 0.0
C677 C 0.38833 0.96975 0.06714 0.0
C678 C 0.38061 0.94466 0.06841 0.0
C679 C 0.39792 0.93658 0.06891 0.0
C680 C 0.42317 0.95402 0.06774 0.0
H681 H 0.49673 0.44204 0.2673 0.0
H682 H 0.43861 0.36805 0.23624 0.0
H683 H 0.40901 0.38278 0.23086 0.0
H684 H 0.46083 0.46012 0.33856 0.0
H685 H 0.47591 0.49091 0.3155 0.0
H686 H 0.49213 0.47422 0.31854 0.0
H687 H 0.50154 0.48147 0.22835 0.0
H688 H 0.48514 0.49798 0.22494 0.0
H689 H 0.47664 0.47201 0.18669 0.0
H690 H 0.3858 0.40582 0.22851 0.0
H691 H 0.3708 0.43528 0.23017 0.0
H692 H 0.44462 0.49417 0.26001 0.0
C693 C 0.47774 0.42885 0.2599 0.0
C694 C 0.46997 0.40385 0.25246 0.0
C695 C 0.44498 0.38728 0.24219 0.0
C696 C 0.42804 0.39547 0.239 0.0
C697 C 0.43641 0.4203 0.24586 0.0
C698 C 0.46066 0.43673 0.25613 0.0
C699 C 0.46511 0.46253 0.26097 0.0
C700 C 0.47401 0.47252 0.31139 0.0
C701 C 0.48317 0.47949 0.22297 0.0
C702 C 0.43954 0.45806 0.25195 0.0
C703 C 0.42321 0.43359 0.24342 0.0
C704 C 0.39844 0.42504 0.23503 0.0
C705 C 0.3901 0.44191 0.23598 0.0
C706 C 0.40654 0.46706 0.24496 0.0
C707 C 0.4316 0.47514 0.25256 0.0
H708 H 0.05507 0.49848 0.38727 0.0
H709 H 0.07231 0.44069 0.41023 0.0
H710 H 0.02812 0.4102 0.41214 0.0
H711 H 1.00154 0.47383 0.46231 0.0
H712 H 0.98512 0.48319 0.42301 0.0
H713 H 0.01808 0.50041 0.42502 0.0
H714 H 0.01962 0.4948 0.33399 0.0
H715 H 0.98667 0.47738 0.33177 0.0
H716 H 0.00438 0.46436 0.30914 0.0
H717 H 0.98194 0.38603 0.41191 0.0
H718 H 0.93729 0.37003 0.40915 0.0
H719 H 0.95053 0.44352 0.38314 0.0
C720 C 0.04959 0.47945 0.39316 0.0
C721 C 0.06718 0.47199 0.39887 0.0
C722 C 0.05919 0.44684 0.40585 0.0
C723 C 0.03413 0.42938 0.40696 0.0
C724 C 0.0173 0.43734 0.40067 0.0
C725 C 0.0247 0.46176 0.39385 0.0
C726 C 0.00295 0.46548 0.38702 0.0
C727 C 1.00186 0.48168 0.42671 0.0
C728 C 0.00344 0.47613 0.33754 0.0
C729 C 0.98215 0.43932 0.39118 0.0
C730 C 0.99079 0.42337 0.39924 0.0
C731 C 0.97497 0.39834 0.40542 0.0
C732 C 0.94964 0.38943 0.40377 0.0
C733 C 0.94039 0.40548 0.39561 0.0
C734 C 0.95698 0.43071 0.38884 0.0
H735 H 0.50958 0.94989 0.57976 0.0
H736 H 0.56751 0.93177 0.57551 0.0
H737 H 0.5984 0.97586 0.57284 0.0
H738 H 0.53746 1.00136 0.50058 0.0
H739 H 0.52677 0.01872 0.53341 0.0
H740 H 0.50946 0.98578 0.53431 0.0
H741 H 0.51149 0.98644 0.62647 0.0
H742 H 0.52896 0.01939 0.62582 0.0
H743 H 0.54088 0.00225 0.65568 0.0
H744 H 0.62298 0.02231 0.56963 0.0
H745 H 0.63897 0.067 0.56619 0.0
H746 H 0.56464 0.05394 0.5752 0.0
C747 C 0.52874 0.95512 0.57798 0.0
C748 C 0.5361 0.93734 0.57765 0.0
C749 C 0.56141 0.94505 0.57576 0.0
C750 C 0.5791 0.97005 0.57427 0.0
C751 C 0.57119 0.98709 0.57502 0.0
C752 C 0.5466 0.97992 0.57689 0.0
C753 C 0.54281 0.00177 0.57779 0.0
C754 C 0.52827 0.00191 0.53391 0.0
C755 C 0.5303 0.0025 0.62421 0.0
C756 C 0.56911 0.0224 0.57587 0.0
C757 C 0.58526 0.01363 0.57421 0.0
C758 C 0.6105 0.02938 0.57114 0.0
C759 C 0.61941 0.05472 0.56925 0.0
C760 C 0.60311 0.06403 0.5707 0.0
C761 C 0.57767 0.04752 0.5745 0.0
H762 H 0.56582 0.51233 0.76418 0.0
H763 H 0.64015 0.57139 0.73982 0.0
H764 H 0.62525 0.60098 0.73788 0.0
H765 H 0.53538 0.53509 0.68923 0.0
H766 H 0.50966 0.52506 0.72882 0.0
H767 H 0.52632 0.50879 0.72686 0.0
H768 H 0.5338 0.51491 0.81779 0.0
H769 H 0.51737 0.53142 0.81996 0.0
H770 H 0.5483 0.54542 0.84222 0.0
H771 H 0.60176 0.624 0.73824 0.0
H772 H 0.57182 0.63841 0.74031 0.0
H773 H 0.51348 0.56408 0.76759 0.0
C774 C 0.57902 0.53145 0.758 0.0
C775 C 0.60417 0.53952 0.75188 0.0
C776 C 0.62079 0.56476 0.74445 0.0
C777 C 0.6125 0.5817 0.74339 0.0
C778 C 0.58759 0.5731 0.75015 0.0
C779 C 0.57112 0.54855 0.75731 0.0
C780 C 0.54538 0.54394 0.76437 0.0
C781 C 0.52818 0.52724 0.72496 0.0
C782 C 0.53565 0.5333 0.81404 0.0
C783 C 0.54985 0.56974 0.75991 0.0
C784 C 0.57428 0.58633 0.75159 0.0
C785 C 0.58262 0.61117 0.74496 0.0
C786 C 0.56547 0.61919 0.74626 0.0
C787 C 0.54031 0.60242 0.75445 0.0
C788 C 0.53259 0.57744 0.76188 0.0
H789 H 0.05611 0.61159 0.88533 0.0
H790 H 0.07001 0.55367 0.92952 0.0
H791 H 0.02595 0.52607 0.94164 0.0
H792 H 0.00464 0.59639 0.96457 0.0
H793 H 0.9873 0.60231 0.92087 0.0
H794 H 0.02028 0.61867 0.91835 0.0
H795 H 0.01865 0.60403 0.83166 0.0
H796 H 0.98569 0.58785 0.83378 0.0
H797 H 1.0016 0.57173 0.8185 0.0
H798 H 0.98146 0.50468 0.94933 0.0
H799 H 0.93719 0.48811 0.94222 0.0
H800 H 0.94995 0.55816 0.88846 0.0
C801 C 0.04977 0.59311 0.89767 0.0
C802 C 0.06646 0.58476 0.90655 0.0
C803 C 0.05756 0.5604 0.92213 0.0
C804 C 0.03257 0.54463 0.92957 0.0
C805 C 0.0166 0.55334 0.92072 0.0
C806 C 0.02463 0.5768 0.90433 0.0
C807 C 0.00305 0.58059 0.8943 0.0
C808 C 0.00388 0.60068 0.92645 0.0
C809 C 1.0022 0.58639 0.84142 0.0
C810 C 0.98179 0.55553 0.90743 0.0
C811 C 0.99025 0.54038 0.92333 0.0
C812 C 0.97452 0.51629 0.93682 0.0
C813 C 0.94936 0.50706 0.93258 0.0
C814 C 0.94002 0.52176 0.91449 0.0
C815 C 0.9565 0.54653 0.90272 0.0
loop_
_geom_bond_atom_site_label_1
_geom_bond_atom_site_label_2
_geom_bond_distance
_geom_bond_site_symmetry_2
_ccdc_geom_bond_type
O0 Cd1 2.223 . S
O0 C8 1.315 . S
Cd1 O0 2.223 . S
Cd1 O4 2.297 1_554 S
Cd1 O5 2.439 1_554 S
Cd1 O11 2.240 . S
Cd2 O3 2.240 . S
Cd2 O10 2.223 . S
Cd2 O12 2.297 . S
Cd2 O13 2.439 . S
O3 Cd2 2.240 . S
O3 C8 1.279 . S
O4 Cd1 2.297 1_556 S
O4 C6 1.247 . S
O5 Cd1 2.439 1_556 S
O5 C6 1.208 . S
C6 O4 1.247 . S
C6 O5 1.208 . S
C7 O12 1.247 . S
C7 O13 1.208 . S
C8 O0 1.315 . S
C8 O3 1.279 . S
C9 O10 1.315 . S
C9 O11 1.279 . S
O10 Cd2 2.223 . S
O10 C9 1.315 . S
O11 Cd1 2.240 . S
O11 C9 1.279 . S
O12 Cd2 2.297 . S
O12 C7 1.247 . S
O13 Cd2 2.439 . S
O13 C7 1.208 . S
O14 Cd15 2.223 . S
O14 C22 1.315 . S
Cd15 O14 2.223 . S
Cd15 O18 2.297 . S
Cd15 O19 2.439 . S
Cd15 O25 2.240 . S
Cd16 O17 2.240 . S
Cd16 O24 2.223 . S
Cd16 O26 2.297 . S
Cd16 O27 2.439 . S
O17 Cd16 2.240 . S
O17 C22 1.279 . S
O18 Cd15 2.297 . S
O18 C20 1.247 . S
O19 Cd15 2.439 . S
O19 C20 1.208 . S
C20 O18 1.247 . S
C20 O19 1.208 . S
C21 O26 1.247 . S
C21 O27 1.208 . S
C22 O14 1.315 . S
C22 O17 1.279 . S
C23 O24 1.315 . S
C23 O25 1.279 . S
O24 Cd16 2.223 . S
O24 C23 1.315 . S
O25 Cd15 2.240 . S
O25 C23 1.279 . S
O26 Cd16 2.297 . S
O26 C21 1.247 . S
O27 Cd16 2.439 . S
O27 C21 1.208 . S
O28 Cd29 2.223 . S
O28 C36 1.315 . S
Cd29 O28 2.223 . S
Cd29 O32 2.297 . S
Cd29 O33 2.439 . S
Cd29 O39 2.240 . S
Cd30 O31 2.240 . S
Cd30 O38 2.223 . S
Cd30 O40 2.297 . S
Cd30 O41 2.439 . S
O31 Cd30 2.240 . S
O31 C36 1.279 . S
O32 Cd29 2.297 . S
O32 C34 1.247 . S
O33 Cd29 2.439 . S
O33 C34 1.208 . S
C34 O32 1.247 . S
C34 O33 1.208 . S
C35 O40 1.247 . S
C35 O41 1.208 . S
C36 O28 1.315 . S
C36 O31 1.279 . S
C37 O38 1.315 . S
C37 O39 1.279 . S
O38 Cd30 2.223 . S
O38 C37 1.315 . S
O39 Cd29 2.240 . S
O39 C37 1.279 . S
O40 Cd30 2.297 . S
O40 C35 1.247 . S
O41 Cd30 2.439 . S
O41 C35 1.208 . S
O42 Cd43 2.223 . S
O42 C50 1.315 . S
Cd43 O42 2.223 . S
Cd43 O46 2.297 . S
Cd43 O47 2.439 . S
Cd43 O53 2.240 . S
Cd44 O45 2.240 . S
Cd44 O52 2.223 . S
Cd44 O54 2.297 . S
Cd44 O55 2.439 . S
O45 Cd44 2.240 . S
O45 C50 1.279 . S
O46 Cd43 2.297 . S
O46 C48 1.247 . S
O47 Cd43 2.439 . S
O47 C48 1.208 . S
C48 O46 1.247 . S
C48 O47 1.208 . S
C49 O54 1.247 . S
C49 O55 1.208 . S
C50 O42 1.315 . S
C50 O45 1.279 . S
C51 O52 1.315 . S
C51 O53 1.279 . S
O52 Cd44 2.223 . S
O52 C51 1.315 . S
O53 Cd43 2.240 . S
O53 C51 1.279 . S
O54 Cd44 2.297 . S
O54 C49 1.247 . S
O55 Cd44 2.439 . S
O55 C49 1.208 . S
O56 Cd57 2.223 . S
O56 C64 1.315 . S
Cd57 O56 2.223 . S
Cd57 O60 2.297 . S
Cd57 O61 2.439 . S
Cd57 O67 2.240 . S
Cd58 O59 2.240 . S
Cd58 O66 2.223 . S
Cd58 O68 2.297 . S
Cd58 O69 2.439 . S
O59 Cd58 2.240 . S
O59 C64 1.279 . S
O60 Cd57 2.297 . S
O60 C62 1.247 . S
O61 Cd57 2.439 . S
O61 C62 1.208 . S
C62 O60 1.247 . S
C62 O61 1.208 . S
C63 O68 1.247 . S
C63 O69 1.208 . S
C64 O56 1.315 . S
C64 O59 1.279 . S
C65 O66 1.315 . S
C65 O67 1.279 . S
O66 Cd58 2.223 . S
O66 C65 1.315 . S
O67 Cd57 2.240 . S
O67 C65 1.279 . S
O68 Cd58 2.297 . S
O68 C63 1.247 . S
O69 Cd58 2.439 . S
O69 C63 1.208 . S
O70 Cd71 2.223 . S
O70 C78 1.315 . S
Cd71 O70 2.223 . S
Cd71 O74 2.297 . S
Cd71 O75 2.439 . S
Cd71 O81 2.240 . S
Cd72 O73 2.240 . S
Cd72 O80 2.223 . S
Cd72 O82 2.297 . S
Cd72 O83 2.439 . S
O73 Cd72 2.240 . S
O73 C78 1.279 . S
O74 Cd71 2.297 . S
O74 C76 1.247 . S
O75 Cd71 2.439 . S
O75 C76 1.208 . S
C76 O74 1.247 . S
C76 O75 1.208 . S
C77 O82 1.247 . S
C77 O83 1.208 . S
C78 O70 1.315 . S
C78 O73 1.279 . S
C79 O80 1.315 . S
C79 O81 1.279 . S
O80 Cd72 2.223 . S
O80 C79 1.315 . S
O81 Cd71 2.240 . S
O81 C79 1.279 . S
O82 Cd72 2.297 . S
O82 C77 1.247 . S
O83 Cd72 2.439 . S
O83 C77 1.208 . S
O84 Cd85 2.223 . S
O84 C92 1.315 . S
Cd85 O84 2.223 . S
Cd85 O88 2.297 . S
Cd85 O89 2.439 . S
Cd85 O95 2.240 . S
Cd86 O87 2.240 . S
Cd86 O94 2.223 . S
Cd86 O96 2.297 . S
Cd86 O97 2.439 . S
O87 Cd86 2.240 . S
O87 C92 1.279 . S
O88 Cd85 2.297 . S
O88 C90 1.247 . S
O89 Cd85 2.439 . S
O89 C90 1.208 . S
C90 O88 1.247 . S
C90 O89 1.208 . S
C91 O96 1.247 . S
C91 O97 1.208 . S
C92 O84 1.315 . S
C92 O87 1.279 . S
C93 O94 1.315 . S
C93 O95 1.279 . S
O94 Cd86 2.223 . S
O94 C93 1.315 . S
O95 Cd85 2.240 . S
O95 C93 1.279 . S
O96 Cd86 2.297 . S
O96 C91 1.247 . S
O97 Cd86 2.439 . S
O97 C91 1.208 . S
O98 Cd99 2.223 . S
O98 C106 1.315 . S
Cd99 O98 2.223 . S
Cd99 O102 2.297 . S
Cd99 O103 2.439 . S
Cd99 O109 2.235 1_554 S
Cd100 O101 2.240 . S
Cd100 O108 2.223 1_554 S
Cd100 O110 2.297 1_554 S
Cd100 O111 2.439 . S
O101 Cd100 2.240 . S
O101 C106 1.279 . S
O102 Cd99 2.297 . S
O102 C104 1.247 . S
O103 Cd99 2.439 . S
O103 C104 1.208 . S
C104 O102 1.247 . S
C104 O103 1.208 . S
C105 O110 1.247 1_554 S
C105 O111 1.208 . S
C106 O98 1.315 . S
C106 O101 1.279 . S
C107 O108 1.315 . S
C107 O109 1.284 . S
O108 Cd100 2.223 1_556 S
O108 C107 1.315 . S
O109 Cd99 2.235 1_556 S
O109 C107 1.284 . S
O110 Cd100 2.297 1_556 S
O110 C105 1.247 1_556 S
O111 Cd100 2.439 . S
O111 C105 1.208 . S
O112 Cd113 2.223 . S
O112 C120 1.315 . S
Cd113 O112 2.223 . S
Cd113 O116 2.297 . S
Cd113 O117 2.439 . S
Cd113 O123 2.240 . S
Cd114 O115 2.240 . S
Cd114 O122 2.223 . S
Cd114 O124 2.297 . S
Cd114 O125 2.439 . S
O115 Cd114 2.240 . S
O115 C120 1.279 . S
O116 Cd113 2.297 . S
O116 C118 1.247 . S
O117 Cd113 2.439 . S
O117 C118 1.208 . S
C118 O116 1.247 . S
C118 O117 1.208 . S
C119 O124 1.247 . S
C119 O125 1.208 . S
C120 O112 1.315 . S
C120 O115 1.279 . S
C121 O122 1.315 . S
C121 O123 1.279 . S
O122 Cd114 2.223 . S
O122 C121 1.315 . S
O123 Cd113 2.240 . S
O123 C121 1.279 . S
O124 Cd114 2.297 . S
O124 C119 1.247 . S
O125 Cd114 2.439 . S
O125 C119 1.208 . S
O126 Cd127 2.223 . S
O126 C134 1.315 . S
Cd127 O126 2.223 . S
Cd127 O130 2.297 . S
Cd127 O131 2.439 . S
Cd127 O137 2.240 . S
Cd128 O129 2.240 . S
Cd128 O136 2.223 . S
Cd128 O138 2.297 . S
Cd128 O139 2.439 . S
O129 Cd128 2.240 . S
O129 C134 1.279 . S
O130 Cd127 2.297 . S
O130 C132 1.247 . S
O131 Cd127 2.439 . S
O131 C132 1.208 . S
C132 O130 1.247 . S
C132 O131 1.208 . S
C133 O138 1.247 . S
C133 O139 1.208 . S
C134 O126 1.315 . S
C134 O129 1.279 . S
C135 O136 1.315 . S
C135 O137 1.279 . S
O136 Cd128 2.223 . S
O136 C135 1.315 . S
O137 Cd127 2.240 . S
O137 C135 1.279 . S
O138 Cd128 2.297 . S
O138 C133 1.247 . S
O139 Cd128 2.439 . S
O139 C133 1.208 . S
O140 Cd141 2.223 . S
O140 C148 1.315 . S
Cd141 O140 2.223 . S
Cd141 O144 2.297 . S
Cd141 O145 2.439 . S
Cd141 O151 2.240 . S
Cd142 O143 2.240 . S
Cd142 O150 2.223 . S
Cd142 O152 2.297 . S
Cd142 O153 2.439 . S
O143 Cd142 2.240 . S
O143 C148 1.279 . S
O144 Cd141 2.297 . S
O144 C146 1.247 . S
O145 Cd141 2.439 . S
O145 C146 1.208 . S
C146 O144 1.247 . S
C146 O145 1.208 . S
C147 O152 1.247 . S
C147 O153 1.208 . S
C148 O140 1.315 . S
C148 O143 1.279 . S
C149 O150 1.315 . S
C149 O151 1.279 . S
O150 Cd142 2.223 . S
O150 C149 1.315 . S
O151 Cd141 2.240 . S
O151 C149 1.279 . S
O152 Cd142 2.297 . S
O152 C147 1.247 . S
O153 Cd142 2.439 . S
O153 C147 1.208 . S
O154 Cd155 2.223 . S
O154 C162 1.315 . S
Cd155 O154 2.223 . S
Cd155 O158 2.297 . S
Cd155 O159 2.439 . S
Cd155 O165 2.240 . S
Cd156 O157 2.240 . S
Cd156 O164 2.223 . S
Cd156 O166 2.297 . S
Cd156 O167 2.439 . S
O157 Cd156 2.240 . S
O157 C162 1.279 . S
O158 Cd155 2.297 . S
O158 C160 1.247 . S
O159 Cd155 2.439 . S
O159 C160 1.208 . S
C160 O158 1.247 . S
C160 O159 1.208 . S
C161 O166 1.247 . S
C161 O167 1.208 . S
C162 O154 1.315 . S
C162 O157 1.279 . S
C163 O164 1.315 . S
C163 O165 1.279 . S
O164 Cd156 2.223 . S
O164 C163 1.315 . S
O165 Cd155 2.240 . S
O165 C163 1.279 . S
O166 Cd156 2.297 . S
O166 C161 1.247 . S
O167 Cd156 2.439 . S
O167 C161 1.208 . S
H168 C180 0.930 . S
H169 C182 0.930 . S
H170 C183 0.930 . S
H171 C187 0.959 . S
H172 C187 0.959 . S
H173 C187 0.961 . S
H174 C188 0.960 . S
H175 C188 0.961 . S
H176 C188 0.959 . S
H177 C191 0.929 . S
H178 C192 0.931 . S
H179 C194 0.930 . S
C180 H168 0.930 . S
C180 C181 1.399 . S
C180 C185 1.399 . S
C181 C180 1.399 . S
C181 C182 1.376 . S
C182 H169 0.930 . S
C182 C181 1.376 . S
C182 C183 1.388 . S
C183 H170 0.930 . S
C183 C182 1.388 . S
C183 C184 1.390 . S
C184 C183 1.390 . S
C184 C185 1.394 . S
C184 C190 1.465 . S
C185 C180 1.399 . S
C185 C184 1.394 . S
C185 C186 1.516 . S
C186 C185 1.516 . S
C186 C187 1.502 . S
C186 C188 1.561 . S
C186 C189 1.526 . S
C187 H171 0.959 . S
C187 H172 0.959 . S
C187 H173 0.961 . S
C187 C186 1.502 . S
C188 H174 0.960 . S
C188 H175 0.961 . S
C188 H176 0.959 . S
C188 C186 1.561 . S
C189 C186 1.526 . S
C189 C190 1.396 . S
C189 C194 1.390 . S
C190 C184 1.465 . S
C190 C189 1.396 . S
C190 C191 1.399 . S
C191 H177 0.929 . S
C191 C190 1.399 . S
C191 C192 1.385 . S
C192 H178 0.931 . S
C192 C191 1.385 . S
C192 C193 1.389 . S
C193 C192 1.389 . S
C193 C194 1.387 . S
C194 H179 0.930 . S
C194 C189 1.390 . S
C194 C193 1.387 . S
H195 C207 0.930 . S
H196 C209 0.930 . S
H197 C210 0.930 . S
H198 C214 0.959 . S
H199 C214 0.959 . S
H200 C214 0.961 . S
H201 C215 0.960 . S
H202 C215 0.961 . S
H203 C215 0.959 . S
H204 C218 0.929 . S
H205 C219 0.931 . S
H206 C221 0.930 . S
C207 H195 0.930 . S
C207 C208 1.399 . S
C207 C212 1.399 . S
C208 C207 1.399 . S
C208 C209 1.376 . S
C209 H196 0.930 . S
C209 C208 1.376 . S
C209 C210 1.388 . S
C210 H197 0.930 . S
C210 C209 1.388 . S
C210 C211 1.390 . S
C211 C210 1.390 . S
C211 C212 1.394 . S
C211 C217 1.465 . S
C212 C207 1.399 . S
C212 C211 1.394 . S
C212 C213 1.516 . S
C213 C212 1.516 . S
C213 C214 1.502 . S
C213 C215 1.561 . S
C213 C216 1.526 . S
C214 H198 0.959 . S
C214 H199 0.959 . S
C214 H200 0.961 . S
C214 C213 1.502 . S
C215 H201 0.960 . S
C215 H202 0.961 . S
C215 H203 0.959 . S
C215 C213 1.561 . S
C216 C213 1.526 . S
C216 C217 1.396 . S
C216 C221 1.390 . S
C217 C211 1.465 . S
C217 C216 1.396 . S
C217 C218 1.399 . S
C218 H204 0.929 . S
C218 C217 1.399 . S
C218 C219 1.385 . S
C219 H205 0.931 . S
C219 C218 1.385 . S
C219 C220 1.389 . S
C220 C219 1.389 . S
C220 C221 1.387 . S
C221 H206 0.930 . S
C221 C216 1.390 . S
C221 C220 1.387 . S
H222 C234 0.930 . S
H223 C236 0.930 . S
H224 C237 0.930 . S
H225 C241 0.959 . S
H226 C241 0.959 . S
H227 C241 0.961 . S
H228 C242 0.960 . S
H229 C242 0.961 . S
H230 C242 0.959 . S
H231 C245 0.929 . S
H232 C246 0.931 . S
H233 C248 0.930 . S
C234 H222 0.930 . S
C234 C235 1.399 . S
C234 C239 1.399 . S
C235 C234 1.399 . S
C235 C236 1.376 . S
C236 H223 0.930 . S
C236 C235 1.376 . S
C236 C237 1.388 . S
C237 H224 0.930 . S
C237 C236 1.388 . S
C237 C238 1.390 . S
C238 C237 1.390 . S
C238 C239 1.394 . S
C238 C244 1.465 . S
C239 C234 1.399 . S
C239 C238 1.394 . S
C239 C240 1.516 . S
C240 C239 1.516 . S
C240 C241 1.502 . S
C240 C242 1.561 . S
C240 C243 1.526 . S
C241 H225 0.959 . S
C241 H226 0.959 . S
C241 H227 0.961 . S
C241 C240 1.502 . S
C242 H228 0.960 . S
C242 H229 0.961 . S
C242 H230 0.959 . S
C242 C240 1.561 . S
C243 C240 1.526 . S
C243 C244 1.396 . S
C243 C248 1.390 . S
C244 C238 1.465 . S
C244 C243 1.396 . S
C244 C245 1.399 . S
C245 H231 0.929 . S
C245 C244 1.399 . S
C245 C246 1.385 . S
C246 H232 0.931 . S
C246 C245 1.385 . S
C246 C247 1.389 . S
C247 C246 1.389 . S
C247 C248 1.387 . S
C248 H233 0.930 . S
C248 C243 1.390 . S
C248 C247 1.387 . S
H249 C261 0.930 . S
H250 C263 0.930 . S
H251 C264 0.930 . S
H252 C268 0.959 . S
H253 C268 0.959 . S
H254 C268 0.961 . S
H255 C269 0.960 . S
H256 C269 0.961 . S
H257 C269 0.959 . S
H258 C272 0.929 . S
H259 C273 0.931 . S
H260 C275 0.930 . S
C261 H249 0.930 . S
C261 C262 1.399 . S
C261 C266 1.399 . S
C262 C261 1.399 . S
C262 C263 1.376 . S
C263 H250 0.930 . S
C263 C262 1.376 . S
C263 C264 1.388 . S
C264 H251 0.930 . S
C264 C263 1.388 . S
C264 C265 1.390 . S
C265 C264 1.390 . S
C265 C266 1.394 . S
C265 C271 1.465 . S
C266 C261 1.399 . S
C266 C265 1.394 . S
C266 C267 1.516 . S
C267 C266 1.516 . S
C267 C268 1.502 . S
C267 C269 1.561 . S
C267 C270 1.526 . S
C268 H252 0.959 . S
C268 H253 0.959 . S
C268 H254 0.961 . S
C268 C267 1.502 . S
C269 H255 0.960 . S
C269 H256 0.961 . S
C269 H257 0.959 . S
C269 C267 1.561 . S
C270 C267 1.526 . S
C270 C271 1.396 . S
C270 C275 1.390 . S
C271 C265 1.465 . S
C271 C270 1.396 . S
C271 C272 1.399 . S
C272 H258 0.929 . S
C272 C271 1.399 . S
C272 C273 1.385 . S
C273 H259 0.931 . S
C273 C272 1.385 . S
C273 C274 1.389 . S
C274 C273 1.389 . S
C274 C275 1.387 . S
C275 H260 0.930 . S
C275 C270 1.390 . S
C275 C274 1.387 . S
H276 C288 0.930 . S
H277 C290 0.930 . S
H278 C291 0.930 . S
H279 C295 0.959 . S
H280 C295 0.959 . S
H281 C295 0.961 . S
H282 C296 0.960 1_554 S
H283 C296 0.961 . S
H284 C296 0.959 1_554 S
H285 C299 0.929 . S
H286 C300 0.931 . S
H287 C302 0.930 . S
C288 H276 0.930 . S
C288 C289 1.399 . S
C288 C293 1.399 . S
C289 C288 1.399 . S
C289 C290 1.376 . S
C290 H277 0.930 . S
C290 C289 1.376 . S
C290 C291 1.388 . S
C291 H278 0.930 . S
C291 C290 1.388 . S
C291 C292 1.390 . S
C292 C291 1.390 . S
C292 C293 1.394 . S
C292 C298 1.465 1_554 S
C293 C288 1.399 . S
C293 C292 1.394 . S
C293 C294 1.516 1_554 S
C294 C293 1.516 1_556 S
C294 C295 1.502 . S
C294 C296 1.561 . S
C294 C297 1.526 . S
C295 H279 0.959 . S
C295 H280 0.959 . S
C295 H281 0.961 . S
C295 C294 1.502 . S
C296 H282 0.960 1_556 S
C296 H283 0.961 . S
C296 H284 0.959 1_556 S
C296 C294 1.561 . S
C297 C294 1.526 . S
C297 C298 1.396 . S
C297 C302 1.390 . S
C298 C292 1.465 1_556 S
C298 C297 1.396 . S
C298 C299 1.399 . S
C299 H285 0.929 . S
C299 C298 1.399 . S
C299 C300 1.385 . S
C300 H286 0.931 . S
C300 C299 1.385 . S
C300 C301 1.389 . S
C301 C300 1.389 . S
C301 C302 1.387 . S
C302 H287 0.930 . S
C302 C297 1.390 . S
C302 C301 1.387 . S
H303 C315 0.930 . S
H304 C317 0.930 . S
H305 C318 0.930 . S
H306 C322 0.959 . S
H307 C322 0.959 . S
H308 C322 0.961 . S
H309 C323 0.960 . S
H310 C323 0.961 . S
H311 C323 0.959 . S
H312 C326 0.929 . S
H313 C327 0.931 . S
H314 C329 0.930 . S
C315 H303 0.930 . S
C315 C316 1.399 . S
C315 C320 1.399 . S
C316 C315 1.399 . S
C316 C317 1.376 . S
C317 H304 0.930 . S
C317 C316 1.376 . S
C317 C318 1.388 . S
C318 H305 0.930 . S
C318 C317 1.388 . S
C318 C319 1.390 . S
C319 C318 1.390 . S
C319 C320 1.394 . S
C319 C325 1.465 . S
C320 C315 1.399 . S
C320 C319 1.394 . S
C320 C321 1.516 . S
C321 C320 1.516 . S
C321 C322 1.502 . S
C321 C323 1.561 . S
C321 C324 1.526 . S
C322 H306 0.959 . S
C322 H307 0.959 . S
C322 H308 0.961 . S
C322 C321 1.502 . S
C323 H309 0.960 . S
C323 H310 0.961 . S
C323 H311 0.959 . S
C323 C321 1.561 . S
C324 C321 1.526 . S
C324 C325 1.396 . S
C324 C329 1.390 . S
C325 C319 1.465 . S
C325 C324 1.396 . S
C325 C326 1.399 . S
C326 H312 0.929 . S
C326 C325 1.399 . S
C326 C327 1.385 . S
C327 H313 0.931 . S
C327 C326 1.385 . S
C327 C328 1.389 . S
C328 C327 1.389 . S
C328 C329 1.387 . S
C329 H314 0.930 . S
C329 C324 1.390 . S
C329 C328 1.387 . S
H330 C342 0.930 . S
H331 C344 0.930 . S
H332 C345 0.930 . S
H333 C349 0.959 . S
H334 C349 0.959 . S
H335 C349 0.961 . S
H336 C350 0.960 . S
H337 C350 0.961 . S
H338 C350 0.959 . S
H339 C353 0.929 . S
H340 C354 0.931 . S
H341 C356 0.930 . S
C342 H330 0.930 . S
C342 C343 1.399 . S
C342 C347 1.399 . S
C343 C342 1.399 . S
C343 C344 1.376 . S
C344 H331 0.930 . S
C344 C343 1.376 . S
C344 C345 1.388 . S
C345 H332 0.930 . S
C345 C344 1.388 . S
C345 C346 1.390 . S
C346 C345 1.390 . S
C346 C347 1.394 . S
C346 C352 1.465 . S
C347 C342 1.399 . S
C347 C346 1.394 . S
C347 C348 1.516 . S
C348 C347 1.516 . S
C348 C349 1.502 . S
C348 C350 1.561 . S
C348 C351 1.526 . S
C349 H333 0.959 . S
C349 H334 0.959 . S
C349 H335 0.961 . S
C349 C348 1.502 . S
C350 H336 0.960 . S
C350 H337 0.961 . S
C350 H338 0.959 . S
C350 C348 1.561 . S
C351 C348 1.526 . S
C351 C352 1.396 . S
C351 C356 1.390 . S
C352 C346 1.465 . S
C352 C351 1.396 . S
C352 C353 1.399 . S
C353 H339 0.929 . S
C353 C352 1.399 . S
C353 C354 1.385 . S
C354 H340 0.931 . S
C354 C353 1.385 . S
C354 C355 1.389 . S
C355 C354 1.389 . S
C355 C356 1.387 . S
C356 H341 0.930 . S
C356 C351 1.390 . S
C356 C355 1.387 . S
H357 C369 0.930 . S
H358 C371 0.930 . S
H359 C372 0.930 . S
H360 C376 0.959 . S
H361 C376 0.959 . S
H362 C376 0.961 . S
H363 C377 0.960 . S
H364 C377 0.961 . S
H365 C377 0.959 . S
H366 C380 0.929 . S
H367 C381 0.931 . S
H368 C383 0.930 . S
C369 H357 0.930 . S
C369 C370 1.399 . S
C369 C374 1.399 . S
C370 C369 1.399 . S
C370 C371 1.376 . S
C371 H358 0.930 . S
C371 C370 1.376 . S
C371 C372 1.388 . S
C372 H359 0.930 . S
C372 C371 1.388 . S
C372 C373 1.390 . S
C373 C372 1.390 . S
C373 C374 1.394 . S
C373 C379 1.465 . S
C374 C369 1.399 . S
C374 C373 1.394 . S
C374 C375 1.516 . S
C375 C374 1.516 . S
C375 C376 1.502 . S
C375 C377 1.561 . S
C375 C378 1.526 . S
C376 H360 0.959 . S
C376 H361 0.959 . S
C376 H362 0.961 . S
C376 C375 1.502 . S
C377 H363 0.960 . S
C377 H364 0.961 . S
C377 H365 0.959 . S
C377 C375 1.561 . S
C378 C375 1.526 . S
C378 C379 1.396 . S
C378 C383 1.390 . S
C379 C373 1.465 . S
C379 C378 1.396 . S
C379 C380 1.399 . S
C380 H366 0.929 . S
C380 C379 1.399 . S
C380 C381 1.385 . S
C381 H367 0.931 . S
C381 C380 1.385 . S
C381 C382 1.389 . S
C382 C381 1.389 . S
C382 C383 1.387 . S
C383 H368 0.930 . S
C383 C378 1.390 . S
C383 C382 1.387 . S
H384 C396 0.930 . S
H385 C398 0.930 . S
H386 C399 0.930 . S
H387 C403 0.959 . S
H388 C403 0.959 . S
H389 C403 0.961 . S
H390 C404 0.960 . S
H391 C404 0.961 . S
H392 C404 0.959 . S
H393 C407 0.929 . S
H394 C408 0.931 . S
H395 C410 0.930 . S
C396 H384 0.930 . S
C396 C397 1.399 . S
C396 C401 1.399 . S
C397 C396 1.399 . S
C397 C398 1.376 . S
C398 H385 0.930 . S
C398 C397 1.376 . S
C398 C399 1.388 . S
C399 H386 0.930 . S
C399 C398 1.388 . S
C399 C400 1.390 . S
C400 C399 1.390 . S
C400 C401 1.394 . S
C400 C406 1.465 . S
C401 C396 1.399 . S
C401 C400 1.394 . S
C401 C402 1.516 . S
C402 C401 1.516 . S
C402 C403 1.502 . S
C402 C404 1.561 . S
C402 C405 1.526 . S
C403 H387 0.959 . S
C403 H388 0.959 . S
C403 H389 0.961 . S
C403 C402 1.502 . S
C404 H390 0.960 . S
C404 H391 0.961 . S
C404 H392 0.959 . S
C404 C402 1.561 . S
C405 C402 1.526 . S
C405 C406 1.396 . S
C405 C410 1.390 . S
C406 C400 1.465 . S
C406 C405 1.396 . S
C406 C407 1.399 . S
C407 H393 0.929 . S
C407 C406 1.399 . S
C407 C408 1.385 . S
C408 H394 0.931 . S
C408 C407 1.385 . S
C408 C409 1.389 . S
C409 C408 1.389 . S
C409 C410 1.387 . S
C410 H395 0.930 . S
C410 C405 1.390 . S
C410 C409 1.387 . S
H411 C423 0.930 . S
H412 C425 0.930 . S
H413 C426 0.930 . S
H414 C430 0.959 . S
H415 C430 0.959 . S
H416 C430 0.961 . S
H417 C431 0.960 . S
H418 C431 0.961 . S
H419 C431 0.959 . S
H420 C434 0.929 . S
H421 C435 0.931 . S
H422 C437 0.930 . S
C423 H411 0.930 . S
C423 C424 1.399 . S
C423 C428 1.399 . S
C424 C423 1.399 . S
C424 C425 1.376 . S
C425 H412 0.930 . S
C425 C424 1.376 . S
C425 C426 1.388 . S
C426 H413 0.930 . S
C426 C425 1.388 . S
C426 C427 1.390 . S
C427 C426 1.390 . S
C427 C428 1.394 . S
C427 C433 1.465 . S
C428 C423 1.399 . S
C428 C427 1.394 . S
C428 C429 1.516 . S
C429 C428 1.516 . S
C429 C430 1.502 . S
C429 C431 1.561 . S
C429 C432 1.526 . S
C430 H414 0.959 . S
C430 H415 0.959 . S
C430 H416 0.961 . S
C430 C429 1.502 . S
C431 H417 0.960 . S
C431 H418 0.961 . S
C431 H419 0.959 . S
C431 C429 1.561 . S
C432 C429 1.526 . S
C432 C433 1.396 . S
C432 C437 1.390 . S
C433 C427 1.465 . S
C433 C432 1.396 . S
C433 C434 1.399 . S
C434 H420 0.929 . S
C434 C433 1.399 . S
C434 C435 1.385 . S
C435 H421 0.931 . S
C435 C434 1.385 . S
C435 C436 1.389 . S
C436 C435 1.389 . S
C436 C437 1.387 . S
C437 H422 0.930 . S
C437 C432 1.390 . S
C437 C436 1.387 . S
H438 C450 0.930 . S
H439 C452 0.930 . S
H440 C453 0.930 . S
H441 C457 0.959 . S
H442 C457 0.959 . S
H443 C457 0.961 . S
H444 C458 0.960 . S
H445 C458 0.961 . S
H446 C458 0.959 . S
H447 C461 0.929 . S
H448 C462 0.931 . S
H449 C464 0.930 . S
C450 H438 0.930 . S
C450 C451 1.399 . S
C450 C455 1.399 . S
C451 C450 1.399 . S
C451 C452 1.376 . S
C452 H439 0.930 . S
C452 C451 1.376 . S
C452 C453 1.388 . S
C453 H440 0.930 . S
C453 C452 1.388 . S
C453 C454 1.390 . S
C454 C453 1.390 . S
C454 C455 1.394 . S
C454 C460 1.465 . S
C455 C450 1.399 . S
C455 C454 1.394 . S
C455 C456 1.516 . S
C456 C455 1.516 . S
C456 C457 1.502 . S
C456 C458 1.561 . S
C456 C459 1.526 . S
C457 H441 0.959 . S
C457 H442 0.959 . S
C457 H443 0.961 . S
C457 C456 1.502 . S
C458 H444 0.960 . S
C458 H445 0.961 . S
C458 H446 0.959 . S
C458 C456 1.561 . S
C459 C456 1.526 . S
C459 C460 1.396 . S
C459 C464 1.390 . S
C460 C454 1.465 . S
C460 C459 1.396 . S
C460 C461 1.399 . S
C461 H447 0.929 . S
C461 C460 1.399 . S
C461 C462 1.385 . S
C462 H448 0.931 . S
C462 C461 1.385 . S
C462 C463 1.389 . S
C463 C462 1.389 . S
C463 C464 1.387 . S
C464 H449 0.930 . S
C464 C459 1.390 . S
C464 C463 1.387 . S
H465 C477 0.930 . S
H466 C479 0.930 1_554 S
H467 C480 0.930 . S
H468 C484 0.959 . S
H469 C484 0.959 . S
H470 C484 0.961 . S
H471 C485 0.960 . S
H472 C485 0.961 . S
H473 C485 0.959 . S
H474 C488 0.929 . S
H475 C489 0.931 . S
H476 C491 0.930 . S
C477 H465 0.930 . S
C477 C478 1.399 . S
C477 C482 1.399 . S
C478 C477 1.399 . S
C478 C479 1.376 . S
C479 H466 0.930 1_556 S
C479 C478 1.376 . S
C479 C480 1.388 1_556 S
C480 H467 0.930 . S
C480 C479 1.388 1_554 S
C480 C481 1.390 1_554 S
C481 C480 1.390 1_556 S
C481 C482 1.394 . S
C481 C487 1.465 1_556 S
C482 C477 1.399 . S
C482 C481 1.394 . S
C482 C483 1.516 . S
C483 C482 1.516 . S
C483 C484 1.502 . S
C483 C485 1.561 . S
C483 C486 1.526 . S
C484 H468 0.959 . S
C484 H469 0.959 . S
C484 H470 0.961 . S
C484 C483 1.502 . S
C485 H471 0.960 . S
C485 H472 0.961 . S
C485 H473 0.959 . S
C485 C483 1.561 . S
C486 C483 1.526 . S
C486 C487 1.396 1_556 S
C486 C491 1.390 . S
C487 C481 1.465 1_554 S
C487 C486 1.396 1_554 S
C487 C488 1.399 . S
C488 H474 0.929 . S
C488 C487 1.399 . S
C488 C489 1.385 . S
C489 H475 0.931 . S
C489 C488 1.385 . S
C489 C490 1.389 . S
C490 C489 1.389 . S
C490 C491 1.387 1_554 S
C491 H476 0.930 . S
C491 C486 1.390 . S
C491 C490 1.387 1_556 S
H492 C504 0.930 . S
H493 C506 0.930 . S
H494 C507 0.930 . S
H495 C511 0.959 . S
H496 C511 0.959 . S
H497 C511 0.961 . S
H498 C512 0.960 . S
H499 C512 0.961 . S
H500 C512 0.959 . S
H501 C515 0.929 . S
H502 C516 0.931 . S
H503 C518 0.930 . S
C504 H492 0.930 . S
C504 C505 1.399 . S
C504 C509 1.399 . S
C505 C504 1.399 . S
C505 C506 1.376 . S
C506 H493 0.930 . S
C506 C505 1.376 . S
C506 C507 1.388 . S
C507 H494 0.930 . S
C507 C506 1.388 . S
C507 C508 1.390 . S
C508 C507 1.390 . S
C508 C509 1.394 . S
C508 C514 1.465 . S
C509 C504 1.399 . S
C509 C508 1.394 . S
C509 C510 1.516 . S
C510 C509 1.516 . S
C510 C511 1.502 . S
C510 C512 1.561 . S
C510 C513 1.526 . S
C511 H495 0.959 . S
C511 H496 0.959 . S
C511 H497 0.961 . S
C511 C510 1.502 . S
C512 H498 0.960 . S
C512 H499 0.961 . S
C512 H500 0.959 . S
C512 C510 1.561 . S
C513 C510 1.526 . S
C513 C514 1.396 . S
C513 C518 1.390 . S
C514 C508 1.465 . S
C514 C513 1.396 . S
C514 C515 1.399 . S
C515 H501 0.929 . S
C515 C514 1.399 . S
C515 C516 1.385 . S
C516 H502 0.931 . S
C516 C515 1.385 . S
C516 C517 1.389 . S
C517 C516 1.389 . S
C517 C518 1.387 . S
C518 H503 0.930 . S
C518 C513 1.390 . S
C518 C517 1.387 . S
H519 C531 0.930 . S
H520 C533 0.930 . S
H521 C534 0.930 . S
H522 C538 0.959 . S
H523 C538 0.959 . S
H524 C538 0.961 1_556 S
H525 C539 0.960 . S
H526 C539 0.961 1_554 S
H527 C539 0.959 . S
H528 C542 0.929 1_556 S
H529 C543 0.931 . S
H530 C545 0.930 . S
C531 H519 0.930 . S
C531 C532 1.399 . S
C531 C536 1.399 . S
C532 C531 1.399 . S
C532 C533 1.376 . S
C533 H520 0.930 . S
C533 C532 1.376 . S
C533 C534 1.388 . S
C534 H521 0.930 . S
C534 C533 1.388 . S
C534 C535 1.390 . S
C535 C534 1.390 . S
C535 C536 1.394 . S
C535 C541 1.465 . S
C536 C531 1.399 . S
C536 C535 1.394 . S
C536 C537 1.516 . S
C537 C536 1.516 . S
C537 C538 1.502 1_556 S
C537 C539 1.561 . S
C537 C540 1.526 1_556 S
C538 H522 0.959 . S
C538 H523 0.959 . S
C538 H524 0.961 1_554 S
C538 C537 1.502 1_554 S
C539 H525 0.960 . S
C539 H526 0.961 1_556 S
C539 H527 0.959 . S
C539 C537 1.561 . S
C540 C537 1.526 1_554 S
C540 C541 1.396 1_554 S
C540 C545 1.390 . S
C541 C535 1.465 . S
C541 C540 1.396 1_556 S
C541 C542 1.399 1_556 S
C542 H528 0.929 1_554 S
C542 C541 1.399 1_554 S
C542 C543 1.385 . S
C543 H529 0.931 . S
C543 C542 1.385 . S
C543 C544 1.389 . S
C544 C543 1.389 . S
C544 C545 1.387 . S
C545 H530 0.930 . S
C545 C540 1.390 . S
C545 C544 1.387 . S
H546 C558 0.930 . S
H547 C560 0.930 . S
H548 C561 0.930 . S
H549 C565 0.959 . S
H550 C565 0.959 . S
H551 C565 0.961 . S
H552 C566 0.960 . S
H553 C566 0.961 . S
H554 C566 0.959 . S
H555 C569 0.929 . S
H556 C570 0.931 . S
H557 C572 0.930 . S
C558 H546 0.930 . S
C558 C559 1.399 . S
C558 C563 1.399 . S
C559 C558 1.399 . S
C559 C560 1.376 . S
C560 H547 0.930 . S
C560 C559 1.376 . S
C560 C561 1.388 . S
C561 H548 0.930 . S
C561 C560 1.388 . S
C561 C562 1.390 . S
C562 C561 1.390 . S
C562 C563 1.394 . S
C562 C568 1.465 . S
C563 C558 1.399 . S
C563 C562 1.394 . S
C563 C564 1.516 . S
C564 C563 1.516 . S
C564 C565 1.502 . S
C564 C566 1.561 . S
C564 C567 1.526 . S
C565 H549 0.959 . S
C565 H550 0.959 . S
C565 H551 0.961 . S
C565 C564 1.502 . S
C566 H552 0.960 . S
C566 H553 0.961 . S
C566 H554 0.959 . S
C566 C564 1.561 . S
C567 C564 1.526 . S
C567 C568 1.396 . S
C567 C572 1.390 . S
C568 C562 1.465 . S
C568 C567 1.396 . S
C568 C569 1.399 . S
C569 H555 0.929 . S
C569 C568 1.399 . S
C569 C570 1.385 . S
C570 H556 0.931 . S
C570 C569 1.385 . S
C570 C571 1.389 . S
C571 C570 1.389 . S
C571 C572 1.387 . S
C572 H557 0.930 . S
C572 C567 1.390 . S
C572 C571 1.387 . S
H573 C585 0.930 . S
H574 C587 0.930 . S
H575 C588 0.930 . S
H576 C592 0.959 . S
H577 C592 0.959 . S
H578 C592 0.961 . S
H579 C593 0.960 . S
H580 C593 0.961 . S
H581 C593 0.959 . S
H582 C596 0.929 . S
H583 C597 0.931 . S
H584 C599 0.930 . S
C585 H573 0.930 . S
C585 C586 1.399 . S
C585 C590 1.399 . S
C586 C585 1.399 . S
C586 C587 1.376 . S
C587 H574 0.930 . S
C587 C586 1.376 . S
C587 C588 1.388 . S
C588 H575 0.930 . S
C588 C587 1.388 . S
C588 C589 1.390 . S
C589 C588 1.390 . S
C589 C590 1.394 . S
C589 C595 1.465 . S
C590 C585 1.399 . S
C590 C589 1.394 . S
C590 C591 1.516 . S
C591 C590 1.516 . S
C591 C592 1.502 . S
C591 C593 1.561 . S
C591 C594 1.526 . S
C592 H576 0.959 . S
C592 H577 0.959 . S
C592 H578 0.961 . S
C592 C591 1.502 . S
C593 H579 0.960 . S
C593 H580 0.961 . S
C593 H581 0.959 . S
C593 C591 1.561 . S
C594 C591 1.526 . S
C594 C595 1.396 . S
C594 C599 1.390 . S
C595 C589 1.465 . S
C595 C594 1.396 . S
C595 C596 1.399 . S
C596 H582 0.929 . S
C596 C595 1.399 . S
C596 C597 1.385 . S
C597 H583 0.931 . S
C597 C596 1.385 . S
C597 C598 1.389 . S
C598 C597 1.389 . S
C598 C599 1.387 . S
C599 H584 0.930 . S
C599 C594 1.390 . S
C599 C598 1.387 . S
H600 C612 0.930 . S
H601 C614 0.930 . S
H602 C615 0.930 . S
H603 C619 0.959 . S
H604 C619 0.959 . S
H605 C619 0.961 . S
H606 C620 0.960 . S
H607 C620 0.961 . S
H608 C620 0.959 . S
H609 C623 0.929 . S
H610 C624 0.931 . S
H611 C626 0.930 . S
C612 H600 0.930 . S
C612 C613 1.399 . S
C612 C617 1.399 . S
C613 C612 1.399 . S
C613 C614 1.376 . S
C614 H601 0.930 . S
C614 C613 1.376 . S
C614 C615 1.388 . S
C615 H602 0.930 . S
C615 C614 1.388 . S
C615 C616 1.390 . S
C616 C615 1.390 . S
C616 C617 1.394 . S
C616 C622 1.465 . S
C617 C612 1.399 . S
C617 C616 1.394 . S
C617 C618 1.516 . S
C618 C617 1.516 . S
C618 C619 1.502 . S
C618 C620 1.561 . S
C618 C621 1.526 . S
C619 H603 0.959 . S
C619 H604 0.959 . S
C619 H605 0.961 . S
C619 C618 1.502 . S
C620 H606 0.960 . S
C620 H607 0.961 . S
C620 H608 0.959 . S
C620 C618 1.561 . S
C621 C618 1.526 . S
C621 C622 1.396 . S
C621 C626 1.390 . S
C622 C616 1.465 . S
C622 C621 1.396 . S
C622 C623 1.399 . S
C623 H609 0.929 . S
C623 C622 1.399 . S
C623 C624 1.385 . S
C624 H610 0.931 . S
C624 C623 1.385 . S
C624 C625 1.389 . S
C625 C624 1.389 . S
C625 C626 1.387 . S
C626 H611 0.930 . S
C626 C621 1.390 . S
C626 C625 1.387 . S
H627 C639 0.930 . S
H628 C641 0.930 . S
H629 C642 0.930 . S
H630 C646 0.959 . S
H631 C646 0.959 . S
H632 C646 0.961 . S
H633 C647 0.960 . S
H634 C647 0.961 . S
H635 C647 0.959 . S
H636 C650 0.929 . S
H637 C651 0.931 . S
H638 C653 0.930 . S
C639 H627 0.930 . S
C639 C640 1.399 . S
C639 C644 1.399 . S
C640 C639 1.399 . S
C640 C641 1.376 . S
C641 H628 0.930 . S
C641 C640 1.376 . S
C641 C642 1.388 . S
C642 H629 0.930 . S
C642 C641 1.388 . S
C642 C643 1.390 . S
C643 C642 1.390 . S
C643 C644 1.394 . S
C643 C649 1.465 . S
C644 C639 1.399 . S
C644 C643 1.394 . S
C644 C645 1.516 . S
C645 C644 1.516 . S
C645 C646 1.502 . S
C645 C647 1.561 . S
C645 C648 1.526 . S
C646 H630 0.959 . S
C646 H631 0.959 . S
C646 H632 0.961 . S
C646 C645 1.502 . S
C647 H633 0.960 . S
C647 H634 0.961 . S
C647 H635 0.959 . S
C647 C645 1.561 . S
C648 C645 1.526 . S
C648 C649 1.396 . S
C648 C653 1.390 . S
C649 C643 1.465 . S
C649 C648 1.396 . S
C649 C650 1.399 . S
C650 H636 0.929 . S
C650 C649 1.399 . S
C650 C651 1.385 . S
C651 H637 0.931 . S
C651 C650 1.385 . S
C651 C652 1.389 . S
C652 C651 1.389 . S
C652 C653 1.387 . S
C653 H638 0.930 . S
C653 C648 1.390 . S
C653 C652 1.387 . S
H654 C666 0.930 . S
H655 C668 0.930 . S
H656 C669 0.930 . S
H657 C673 0.957 1_554 S
H658 C673 0.959 1_565 S
H659 C673 0.961 . S
H660 C674 0.960 . S
H661 C674 0.961 1_565 S
H662 C674 0.959 . S
H663 C677 0.929 . S
H664 C678 0.931 . S
H665 C680 0.930 1_556 S
C666 H654 0.930 . S
C666 C667 1.399 . S
C666 C671 1.399 . S
C667 C666 1.399 . S
C667 C668 1.376 . S
C668 H655 0.930 . S
C668 C667 1.376 . S
C668 C669 1.388 . S
C669 H656 0.930 . S
C669 C668 1.388 . S
C669 C670 1.390 . S
C670 C669 1.390 . S
C670 C671 1.394 . S
C670 C676 1.465 1_545 S
C671 C666 1.399 . S
C671 C670 1.394 . S
C671 C672 1.516 . S
C672 C671 1.516 . S
C672 C673 1.502 1_554 S
C672 C674 1.561 1_554 S
C672 C675 1.526 1_545 S
C673 H657 0.957 1_556 S
C673 H658 0.959 1_545 S
C673 H659 0.961 . S
C673 C672 1.502 1_556 S
C674 H660 0.960 . S
C674 H661 0.961 1_545 S
C674 H662 0.959 . S
C674 C672 1.561 1_556 S
C675 C672 1.526 1_565 S
C675 C676 1.396 . S
C675 C680 1.390 . S
C676 C670 1.465 1_565 S
C676 C675 1.396 . S
C676 C677 1.399 . S
C677 H663 0.929 . S
C677 C676 1.399 . S
C677 C678 1.385 . S
C678 H664 0.931 . S
C678 C677 1.385 . S
C678 C679 1.389 . S
C679 C678 1.389 . S
C679 C680 1.387 . S
C680 H665 0.930 1_554 S
C680 C675 1.390 . S
C680 C679 1.387 . S
H681 C693 0.930 . S
H682 C695 0.930 . S
H683 C696 0.930 . S
H684 C700 0.959 . S
H685 C700 0.959 . S
H686 C700 0.961 . S
H687 C701 0.960 . S
H688 C701 0.961 . S
H689 C701 0.959 . S
H690 C704 0.929 . S
H691 C705 0.931 . S
H692 C707 0.930 . S
C693 H681 0.930 . S
C693 C694 1.399 . S
C693 C698 1.399 . S
C694 C693 1.399 . S
C694 C695 1.376 . S
C695 H682 0.930 . S
C695 C694 1.376 . S
C695 C696 1.388 . S
C696 H683 0.930 . S
C696 C695 1.388 . S
C696 C697 1.390 . S
C697 C696 1.390 . S
C697 C698 1.394 . S
C697 C703 1.465 . S
C698 C693 1.399 . S
C698 C697 1.394 . S
C698 C699 1.516 . S
C699 C698 1.516 . S
C699 C700 1.502 . S
C699 C701 1.561 . S
C699 C702 1.526 . S
C700 H684 0.959 . S
C700 H685 0.959 . S
C700 H686 0.961 . S
C700 C699 1.502 . S
C701 H687 0.960 . S
C701 H688 0.961 . S
C701 H689 0.959 . S
C701 C699 1.561 . S
C702 C699 1.526 . S
C702 C703 1.396 . S
C702 C707 1.390 . S
C703 C697 1.465 . S
C703 C702 1.396 . S
C703 C704 1.399 . S
C704 H690 0.929 . S
C704 C703 1.399 . S
C704 C705 1.385 . S
C705 H691 0.931 . S
C705 C704 1.385 . S
C705 C706 1.389 . S
C706 C705 1.389 . S
C706 C707 1.387 . S
C707 H692 0.930 . S
C707 C702 1.390 . S
C707 C706 1.387 . S
H708 C720 0.930 . S
H709 C722 0.930 . S
H710 C723 0.930 . S
H711 C727 0.959 . S
H712 C727 0.959 1_655 S
H713 C727 0.961 . S
H714 C728 0.960 . S
H715 C728 0.961 1_655 S
H716 C728 0.959 . S
H717 C731 0.929 . S
H718 C732 0.931 . S
H719 C734 0.930 . S
C720 H708 0.930 . S
C720 C721 1.399 . S
C720 C725 1.399 . S
C721 C720 1.399 . S
C721 C722 1.376 . S
C722 H709 0.930 . S
C722 C721 1.376 . S
C722 C723 1.388 . S
C723 H710 0.930 . S
C723 C722 1.388 . S
C723 C724 1.390 . S
C724 C723 1.390 . S
C724 C725 1.394 . S
C724 C730 1.465 1_455 S
C725 C720 1.399 . S
C725 C724 1.394 . S
C725 C726 1.516 . S
C726 C725 1.516 . S
C726 C727 1.502 . S
C726 C728 1.561 . S
C726 C729 1.526 1_455 S
C727 H711 0.959 . S
C727 H712 0.959 1_455 S
C727 H713 0.961 . S
C727 C726 1.502 . S
C728 H714 0.960 . S
C728 H715 0.961 1_455 S
C728 H716 0.959 . S
C728 C726 1.561 . S
C729 C726 1.526 1_655 S
C729 C730 1.396 . S
C729 C734 1.390 . S
C730 C724 1.465 1_655 S
C730 C729 1.396 . S
C730 C731 1.399 . S
C731 H717 0.929 . S
C731 C730 1.399 . S
C731 C732 1.385 . S
C732 H718 0.931 . S
C732 C731 1.385 . S
C732 C733 1.389 . S
C733 C732 1.389 . S
C733 C734 1.387 . S
C734 H719 0.930 . S
C734 C729 1.390 . S
C734 C733 1.387 . S
H735 C747 0.930 . S
H736 C749 0.930 . S
H737 C750 0.930 . S
H738 C754 0.959 . S
H739 C754 0.959 1_545 S
H740 C754 0.961 . S
H741 C755 0.960 . S
H742 C755 0.961 1_545 S
H743 C755 0.959 . S
H744 C758 0.929 . S
H745 C759 0.931 . S
H746 C761 0.930 . S
C747 H735 0.930 . S
C747 C748 1.399 . S
C747 C752 1.399 . S
C748 C747 1.399 . S
C748 C749 1.376 . S
C749 H736 0.930 . S
C749 C748 1.376 . S
C749 C750 1.388 . S
C750 H737 0.930 . S
C750 C749 1.388 . S
C750 C751 1.390 . S
C751 C750 1.390 . S
C751 C752 1.394 . S
C751 C757 1.465 1_565 S
C752 C747 1.399 . S
C752 C751 1.394 . S
C752 C753 1.516 . S
C753 C752 1.516 . S
C753 C754 1.502 . S
C753 C755 1.561 . S
C753 C756 1.526 1_565 S
C754 H738 0.959 . S
C754 H739 0.959 1_565 S
C754 H740 0.961 . S
C754 C753 1.502 . S
C755 H741 0.960 . S
C755 H742 0.961 1_565 S
C755 H743 0.959 . S
C755 C753 1.561 . S
C756 C753 1.526 1_545 S
C756 C757 1.396 . S
C756 C761 1.390 . S
C757 C751 1.465 1_545 S
C757 C756 1.396 . S
C757 C758 1.399 . S
C758 H744 0.929 . S
C758 C757 1.399 . S
C758 C759 1.385 . S
C759 H745 0.931 . S
C759 C758 1.385 . S
C759 C760 1.389 . S
C760 C759 1.389 . S
C760 C761 1.387 . S
C761 H746 0.930 . S
C761 C756 1.390 . S
C761 C760 1.387 . S
H762 C774 0.930 . S
H763 C776 0.930 . S
H764 C777 0.930 . S
H765 C781 0.959 . S
H766 C781 0.959 . S
H767 C781 0.961 . S
H768 C782 0.960 . S
H769 C782 0.961 . S
H770 C782 0.959 . S
H771 C785 0.929 . S
H772 C786 0.931 . S
H773 C788 0.930 . S
C774 H762 0.930 . S
C774 C775 1.399 . S
C774 C779 1.399 . S
C775 C774 1.399 . S
C775 C776 1.376 . S
C776 H763 0.930 . S
C776 C775 1.376 . S
C776 C777 1.388 . S
C777 H764 0.930 . S
C777 C776 1.388 . S
C777 C778 1.390 . S
C778 C777 1.390 . S
C778 C779 1.394 . S
C778 C784 1.465 . S
C779 C774 1.399 . S
C779 C778 1.394 . S
C779 C780 1.516 . S
C780 C779 1.516 . S
C780 C781 1.502 . S
C780 C782 1.561 . S
C780 C783 1.526 . S
C781 H765 0.959 . S
C781 H766 0.959 . S
C781 H767 0.961 . S
C781 C780 1.502 . S
C782 H768 0.960 . S
C782 H769 0.961 . S
C782 H770 0.959 . S
C782 C780 1.561 . S
C783 C780 1.526 . S
C783 C784 1.396 . S
C783 C788 1.390 . S
C784 C778 1.465 . S
C784 C783 1.396 . S
C784 C785 1.399 . S
C785 H771 0.929 . S
C785 C784 1.399 . S
C785 C786 1.385 . S
C786 H772 0.931 . S
C786 C785 1.385 . S
C786 C787 1.389 . S
C787 C786 1.389 . S
C787 C788 1.387 . S
C788 H773 0.930 . S
C788 C783 1.390 . S
C788 C787 1.387 . S
H789 C801 0.930 . S
H790 C803 0.930 . S
H791 C804 0.930 . S
H792 C808 0.945 1_655 S
H793 C808 0.959 1_655 S
H794 C808 0.961 . S
H795 C809 0.960 . S
H796 C809 0.961 1_655 S
H797 C809 0.959 . S
H798 C812 0.929 . S
H799 C813 0.931 . S
H800 C815 0.930 . S
C801 H789 0.930 . S
C801 C802 1.399 . S
C801 C806 1.399 . S
C802 C801 1.399 . S
C802 C803 1.376 . S
C803 H790 0.930 . S
C803 C802 1.376 . S
C803 C804 1.388 . S
C804 H791 0.930 . S
C804 C803 1.388 . S
C804 C805 1.390 . S
C805 C804 1.390 . S
C805 C806 1.394 . S
C805 C811 1.465 1_455 S
C806 C801 1.399 . S
C806 C805 1.394 . S
C806 C807 1.516 . S
C807 C806 1.516 . S
C807 C808 1.502 . S
C807 C809 1.561 . S
C807 C810 1.526 1_455 S
C808 H792 0.945 1_455 S
C808 H793 0.959 1_455 S
C808 H794 0.961 . S
C808 C807 1.502 . S
C809 H795 0.960 . S
C809 H796 0.961 1_455 S
C809 H797 0.959 . S
C809 C807 1.561 . S
C810 C807 1.526 1_655 S
C810 C811 1.396 . S
C810 C815 1.390 . S
C811 C805 1.465 1_655 S
C811 C810 1.396 . S
C811 C812 1.399 . S
C812 H798 0.929 . S
C812 C811 1.399 . S
C812 C813 1.385 . S
C813 H799 0.931 . S
C813 C812 1.385 . S
C813 C814 1.389 . S
C814 C813 1.389 . S
C814 C815 1.387 . S
C815 H800 0.930 . S
C815 C810 1.390 . S
C815 C814 1.387 . S
C181 C9 1.638 . S
C193 C149 1.616 . S
C208 C23 1.609 . S
C220 C163 1.652 . S
C235 C93 1.608 . S
C247 C37 1.651 . S
C262 C51 1.620 . S
C274 C107 1.647 . S
C289 C121 1.636 . S
C301 C65 1.616 . S
C316 C135 1.627 . S
C328 C79 1.624 1_554 S
C343 C119 1.417 . S
C355 C7 1.371 . S
C370 C21 1.391 . S
C382 C133 1.370 . S
C397 C147 1.372 . S
C409 C35 1.417 . S
C424 C49 1.419 . S
C436 C161 1.387 . S
C451 C63 1.381 . S
C463 C91 1.419 . S
C478 C77 1.366 . S
C490 C105 1.409 . S
C505 C146 1.390 . S
C517 C6 1.351 . S
C532 C160 1.323 . S
C544 C20 1.384 . S
C559 C90 1.347 1_554 S
C571 C34 1.329 . S
C586 C48 1.322 . S
C598 C104 1.362 . S
C613 C62 1.338 . S
C625 C118 1.338 . S
C640 C132 1.355 . S
C652 C76 1.325 . S
C667 C8 1.285 . S
C679 C106 1.259 . S
C694 C120 1.304 . S
C706 C22 1.270 . S
C721 C134 1.292 . S
C733 C36 1.263 . S
C748 C50 1.290 . S
C760 C148 1.261 . S
C775 C64 1.329 . S
C787 C162 1.297 . S
C802 C78 1.275 . S
C814 C92 1.256 . S
