# Generated by pormake.
# Topology uod, (4)-cn, num edge types: 1
# Building blocks:
#     Node 0, Type 0, BuildingBlock: TATPOV_clean_sbu_0, # of connection points: 4
#     Node 1, Type 0, BuildingBlock: TATPOV_clean_sbu_0, # of connection points: 4
#     Node 2, Type 0, BuildingBlock: TATPOV_clean_sbu_0, # of connection points: 4
#     Node 3, Type 0, BuildingBlock: TATPOV_clean_sbu_0, # of connection points: 4
#     Node 4, Type 0, BuildingBlock: TATPOV_clean_sbu_0, # of connection points: 4
#     Node 5, Type 0, BuildingBlock: TATPOV_clean_sbu_0, # of connection points: 4
#     Node 6, Type 0, BuildingBlock: TATPOV_clean_sbu_0, # of connection points: 4
#     Node 7, Type 0, BuildingBlock: TATPOV_clean_sbu_0, # of connection points: 4
#     Node 8, Type 0, BuildingBlock: TATPOV_clean_sbu_0, # of connection points: 4
#     Node 9, Type 0, BuildingBlock: TATPOV_clean_sbu_0, # of connection points: 4
#     Node 10, Type 0, BuildingBlock: TATPOV_clean_sbu_0, # of connection points: 4
#     Node 11, Type 0, BuildingBlock: TATPOV_clean_sbu_0, # of connection points: 4
#     Node 12, Type 0, BuildingBlock: TATPOV_clean_sbu_0, # of connection points: 4
#     Node 13, Type 0, BuildingBlock: TATPOV_clean_sbu_0, # of connection points: 4
#     Node 14, Type 0, BuildingBlock: TATPOV_clean_sbu_0, # of connection points: 4
#     Node 15, Type 0, BuildingBlock: TATPOV_clean_sbu_0, # of connection points: 4
#     Node 16, Type 0, BuildingBlock: TATPOV_clean_sbu_0, # of connection points: 4
#     Node 17, Type 0, BuildingBlock: TATPOV_clean_sbu_0, # of connection points: 4
#     Node 18, Type 0, BuildingBlock: TATPOV_clean_sbu_0, # of connection points: 4
#     Node 19, Type 0, BuildingBlock: TATPOV_clean_sbu_0, # of connection points: 4
#     Node 20, Type 0, BuildingBlock: TATPOV_clean_sbu_0, # of connection points: 4
#     Node 21, Type 0, BuildingBlock: TATPOV_clean_sbu_0, # of connection points: 4
#     Node 22, Type 0, BuildingBlock: TATPOV_clean_sbu_0, # of connection points: 4
#     Node 23, Type 0, BuildingBlock: TATPOV_clean_sbu_0, # of connection points: 4
#     Node 24, Type 0, BuildingBlock: TATPOV_clean_sbu_0, # of connection points: 4
#     Node 25, Type 0, BuildingBlock: TATPOV_clean_sbu_0, # of connection points: 4
#     Node 26, Type 0, BuildingBlock: TATPOV_clean_sbu_0, # of connection points: 4
#     Node 27, Type 0, BuildingBlock: TATPOV_clean_sbu_0, # of connection points: 4
#     Node 28, Type 0, BuildingBlock: TATPOV_clean_sbu_0, # of connection points: 4
#     Node 29, Type 0, BuildingBlock: TATPOV_clean_sbu_0, # of connection points: 4
#     Node 30, Type 0, BuildingBlock: TATPOV_clean_sbu_0, # of connection points: 4
#     Node 31, Type 0, BuildingBlock: TATPOV_clean_sbu_0, # of connection points: 4
#     Edge 32, Type (0, 0), BuildingBlock: OJICUG_clean_linker_0, # of connection points: 2
#     Edge 33, Type (0, 0), BuildingBlock: OJICUG_clean_linker_0, # of connection points: 2
#     Edge 34, Type (0, 0), BuildingBlock: OJICUG_clean_linker_0, # of connection points: 2
#     Edge 35, Type (0, 0), BuildingBlock: OJICUG_clean_linker_0, # of connection points: 2
#     Edge 36, Type (0, 0), BuildingBlock: OJICUG_clean_linker_0, # of connection points: 2
#     Edge 37, Type (0, 0), BuildingBlock: OJICUG_clean_linker_0, # of connection points: 2
#     Edge 38, Type (0, 0), BuildingBlock: OJICUG_clean_linker_0, # of connection points: 2
#     Edge 39, Type (0, 0), BuildingBlock: OJICUG_clean_linker_0, # of connection points: 2
#     Edge 40, Type (0, 0), BuildingBlock: OJICUG_clean_linker_0, # of connection points: 2
#     Edge 41, Type (0, 0), BuildingBlock: OJICUG_clean_linker_0, # of connection points: 2
#     Edge 42, Type (0, 0), BuildingBlock: OJICUG_clean_linker_0, # of connection points: 2
#     Edge 43, Type (0, 0), BuildingBlock: OJICUG_clean_linker_0, # of connection points: 2
#     Edge 44, Type (0, 0), BuildingBlock: OJICUG_clean_linker_0, # of connection points: 2
#     Edge 45, Type (0, 0), BuildingBlock: OJICUG_clean_linker_0, # of connection points: 2
#     Edge 46, Type (0, 0), BuildingBlock: OJICUG_clean_linker_0, # of connection points: 2
#     Edge 47, Type (0, 0), BuildingBlock: OJICUG_clean_linker_0, # of connection points: 2
#     Edge 48, Type (0, 0), BuildingBlock: OJICUG_clean_linker_0, # of connection points: 2
#     Edge 49, Type (0, 0), BuildingBlock: OJICUG_clean_linker_0, # of connection points: 2
#     Edge 50, Type (0, 0), BuildingBlock: OJICUG_clean_linker_0, # of connection points: 2
#     Edge 51, Type (0, 0), BuildingBlock: OJICUG_clean_linker_0, # of connection points: 2
#     Edge 52, Type (0, 0), BuildingBlock: OJICUG_clean_linker_0, # of connection points: 2
#     Edge 53, Type (0, 0), BuildingBlock: OJICUG_clean_linker_0, # of connection points: 2
#     Edge 54, Type (0, 0), BuildingBlock: OJICUG_clean_linker_0, # of connection points: 2
#     Edge 55, Type (0, 0), BuildingBlock: OJICUG_clean_linker_0, # of connection points: 2
#     Edge 56, Type (0, 0), BuildingBlock: OJICUG_clean_linker_0, # of connection points: 2
#     Edge 57, Type (0, 0), BuildingBlock: OJICUG_clean_linker_0, # of connection points: 2
#     Edge 58, Type (0, 0), BuildingBlock: OJICUG_clean_linker_0, # of connection points: 2
#     Edge 59, Type (0, 0), BuildingBlock: OJICUG_clean_linker_0, # of connection points: 2
#     Edge 60, Type (0, 0), BuildingBlock: OJICUG_clean_linker_0, # of connection points: 2
#     Edge 61, Type (0, 0), BuildingBlock: OJICUG_clean_linker_0, # of connection points: 2
#     Edge 62, Type (0, 0), BuildingBlock: OJICUG_clean_linker_0, # of connection points: 2
#     Edge 63, Type (0, 0), BuildingBlock: OJICUG_clean_linker_0, # of connection points: 2
#     Edge 64, Type (0, 0), BuildingBlock: OJICUG_clean_linker_0, # of connection points: 2
#     Edge 65, Type (0, 0), BuildingBlock: OJICUG_clean_linker_0, # of connection points: 2
#     Edge 66, Type (0, 0), BuildingBlock: OJICUG_clean_linker_0, # of connection points: 2
#     Edge 67, Type (0, 0), BuildingBlock: OJICUG_clean_linker_0, # of connection points: 2
#     Edge 68, Type (0, 0), BuildingBlock: OJICUG_clean_linker_0, # of connection points: 2
#     Edge 69, Type (0, 0), BuildingBlock: OJICUG_clean_linker_0, # of connection points: 2
#     Edge 70, Type (0, 0), BuildingBlock: OJICUG_clean_linker_0, # of connection points: 2
#     Edge 71, Type (0, 0), BuildingBlock: OJICUG_clean_linker_0, # of connection points: 2
#     Edge 72, Type (0, 0), BuildingBlock: OJICUG_clean_linker_0, # of connection points: 2
#     Edge 73, Type (0, 0), BuildingBlock: OJICUG_clean_linker_0, # of connection points: 2
#     Edge 74, Type (0, 0), BuildingBlock: OJICUG_clean_linker_0, # of connection points: 2
#     Edge 75, Type (0, 0), BuildingBlock: OJICUG_clean_linker_0, # of connection points: 2
#     Edge 76, Type (0, 0), BuildingBlock: OJICUG_clean_linker_0, # of connection points: 2
#     Edge 77, Type (0, 0), BuildingBlock: OJICUG_clean_linker_0, # of connection points: 2
#     Edge 78, Type (0, 0), BuildingBlock: OJICUG_clean_linker_0, # of connection points: 2
#     Edge 79, Type (0, 0), BuildingBlock: OJICUG_clean_linker_0, # of connection points: 2
#     Edge 80, Type (0, 0), BuildingBlock: OJICUG_clean_linker_0, # of connection points: 2
#     Edge 81, Type (0, 0), BuildingBlock: OJICUG_clean_linker_0, # of connection points: 2
#     Edge 82, Type (0, 0), BuildingBlock: OJICUG_clean_linker_0, # of connection points: 2
#     Edge 83, Type (0, 0), BuildingBlock: OJICUG_clean_linker_0, # of connection points: 2
#     Edge 84, Type (0, 0), BuildingBlock: OJICUG_clean_linker_0, # of connection points: 2
#     Edge 85, Type (0, 0), BuildingBlock: OJICUG_clean_linker_0, # of connection points: 2
#     Edge 86, Type (0, 0), BuildingBlock: OJICUG_clean_linker_0, # of connection points: 2
#     Edge 87, Type (0, 0), BuildingBlock: OJICUG_clean_linker_0, # of connection points: 2
#     Edge 88, Type (0, 0), BuildingBlock: OJICUG_clean_linker_0, # of connection points: 2
#     Edge 89, Type (0, 0), BuildingBlock: OJICUG_clean_linker_0, # of connection points: 2
#     Edge 90, Type (0, 0), BuildingBlock: OJICUG_clean_linker_0, # of connection points: 2
#     Edge 91, Type (0, 0), BuildingBlock: OJICUG_clean_linker_0, # of connection points: 2
#     Edge 92, Type (0, 0), BuildingBlock: OJICUG_clean_linker_0, # of connection points: 2
#     Edge 93, Type (0, 0), BuildingBlock: OJICUG_clean_linker_0, # of connection points: 2
#     Edge 94, Type (0, 0), BuildingBlock: OJICUG_clean_linker_0, # of connection points: 2
#     Edge 95, Type (0, 0), BuildingBlock: OJICUG_clean_linker_0, # of connection points: 2
# Relax obj value: 0.230
# Max RMSD: 0.169
# Mean RMSD: 0.169
data_MOF--net-uod--node1-TATPOV_clean_sbu_0--edge1-OJICUG_clean_linker_0
_symmetry_space_group_name_H-M    P1
_symmetry_Int_Tables_number       1
_symmetry_cell_setting            triclinic
loop_
_symmetry_equiv_pos_as_xyz
'x, y, z'
_cell_length_a     45.337295
_cell_length_b     20.428866
_cell_length_c     54.277084
_cell_angle_alpha  90.001541
_cell_angle_beta   90.024448
_cell_angle_gamma 90.005709
loop_
_atom_site_label
_atom_site_type_symbol
_atom_site_fract_x
_atom_site_fract_y
_atom_site_fract_z
_atom_type_partial_charge
Zn0 Zn -0.00669 0.3402 0.18519 0.0
Zn1 Zn -0.00601 0.34146 0.13463 0.0
O2 O 0.97876 0.24827 0.14246 0.0
O3 O 0.97724 0.24843 0.18311 0.0
O4 O -0.00807 0.35645 0.09746 0.0
O5 O 0.96624 0.41848 0.18675 0.0
O6 O 0.96872 0.41776 0.14637 0.0
C7 C 0.97351 0.21894 0.16281 0.0
C8 C 0.05176 0.35566 0.16357 0.0
O9 O 0.03785 0.35143 0.1432 0.0
O10 O 0.03783 0.35328 0.18381 0.0
C11 C -0.00175 0.41414 0.09012 0.0
O12 O 0.00706 0.45741 0.10646 0.0
C13 C 0.95936 0.44351 0.16621 0.0
Zn14 Zn 0.2381 0.8175 0.18511 0.0
Zn15 Zn 0.23734 0.81636 0.13455 0.0
O16 O 0.25257 0.90955 0.14243 0.0
O17 O 0.25414 0.90929 0.18308 0.0
O18 O 0.23938 0.80145 0.09738 0.0
O19 O 0.26519 0.73924 0.18664 0.0
O20 O 0.26263 0.74003 0.14627 0.0
C21 C 0.25784 0.93883 0.16279 0.0
C22 C 0.17962 0.80206 0.1635 0.0
O23 O 0.19349 0.80636 0.14313 0.0
O24 O 0.19358 0.80438 0.18374 0.0
C25 C 0.23307 0.74376 0.09002 0.0
O26 O 0.22427 0.70046 0.10634 0.0
C27 C 0.27203 0.71425 0.16609 0.0
Zn28 Zn -0.0066 0.81712 0.14289 0.0
Zn29 Zn -0.00581 0.81613 0.19346 0.0
O30 O 0.9789 0.90921 0.18554 0.0
O31 O 0.97732 0.90889 0.14489 0.0
O32 O -0.00775 0.80154 0.23065 0.0
O33 O 0.96632 0.7388 0.14147 0.0
O34 O 0.9689 0.7397 0.18184 0.0
C35 C 0.97361 0.93845 0.16518 0.0
C36 C 0.0519 0.80186 0.16446 0.0
O37 O 0.03803 0.80617 0.18484 0.0
O38 O 0.03792 0.80411 0.14423 0.0
C39 C -0.00143 0.74395 0.2381 0.0
O40 O 0.00731 0.70043 0.22184 0.0
C41 C 0.95949 0.71387 0.16203 0.0
Zn42 Zn 0.23794 0.34064 0.14285 0.0
Zn43 Zn 0.23724 0.34178 0.19342 0.0
O44 O 0.2525 0.24863 0.18556 0.0
O45 O 0.25401 0.24888 0.14491 0.0
O46 O 0.23924 0.35674 0.23059 0.0
O47 O 0.26502 0.41894 0.14134 0.0
O48 O 0.26253 0.41811 0.18172 0.0
C49 C 0.25775 0.21935 0.1652 0.0
C50 C 0.17948 0.35594 0.16445 0.0
O51 O 0.19339 0.35168 0.18481 0.0
O52 O 0.19341 0.35366 0.1442 0.0
C53 C 0.23288 0.41442 0.23792 0.0
O54 O 0.22409 0.45767 0.22157 0.0
C55 C 0.2719 0.4439 0.16189 0.0
Zn56 Zn 0.98774 0.5682 0.89309 0.0
Zn57 Zn 0.98698 0.567 0.94365 0.0
O58 O 0.00223 0.66017 0.93582 0.0
O59 O 0.00381 0.65997 0.89517 0.0
O60 O 0.98899 0.55205 0.98082 0.0
O61 O 0.01482 0.48991 0.89158 0.0
O62 O 0.01227 0.49068 0.93195 0.0
C63 C 0.00751 0.68948 0.91547 0.0
C64 C 0.92926 0.55279 0.91465 0.0
O65 O 0.94314 0.55704 0.93503 0.0
O66 O 0.94322 0.55513 0.89442 0.0
C67 C 0.98266 0.49436 0.98816 0.0
O68 O 0.97385 0.45109 0.97182 0.0
C69 C 0.02166 0.46491 0.91213 0.0
Zn70 Zn 0.743 0.09103 0.89293 0.0
Zn71 Zn 0.74369 0.09221 0.94349 0.0
O72 O 0.72845 -0.00095 0.93561 0.0
O73 O 0.72693 -0.00073 0.89496 0.0
O74 O 0.74166 0.10708 0.98067 0.0
O75 O 0.71592 0.16931 0.89139 0.0
O76 O 0.71842 0.16856 0.93176 0.0
C77 C 0.7232 -0.03025 0.91525 0.0
C78 C 0.80145 0.10644 0.91457 0.0
O79 O 0.78755 0.10218 0.93494 0.0
O80 O 0.78752 0.1041 0.89432 0.0
C81 C 0.74798 0.16475 0.98805 0.0
O82 O 0.75676 0.2081 0.97173 0.0
C83 C 0.70905 0.19432 0.91193 0.0
Zn84 Zn 0.98764 0.09129 0.93539 0.0
Zn85 Zn 0.98693 0.09236 0.88482 0.0
O86 O 0.00219 -0.00076 0.89273 0.0
O87 O 0.00371 -0.00047 0.93338 0.0
O88 O 0.98895 0.10711 0.84764 0.0
O89 O 0.01471 0.16961 0.93688 0.0
O90 O 0.0122 0.16874 0.89651 0.0
C91 C 0.00745 -0.03002 0.91309 0.0
C92 C 0.92917 0.10659 0.91375 0.0
O93 O 0.94307 0.10229 0.89339 0.0
O94 O 0.94311 0.10432 0.934 0.0
C95 C 0.98264 0.16475 0.84023 0.0
O96 O 0.97386 0.20816 0.85652 0.0
C97 C 0.02158 0.19456 0.91634 0.0
Zn98 Zn 0.74305 0.56796 0.93518 0.0
Zn99 Zn 0.74382 0.56688 0.88462 0.0
O100 O 0.72854 0.66 0.8925 0.0
O101 O 0.72698 0.65971 0.93315 0.0
O102 O 0.74186 0.55214 0.84743 0.0
O103 O 0.71598 0.48965 0.93663 0.0
O104 O 0.71853 0.49048 0.89626 0.0
C105 C 0.72326 0.68925 0.91286 0.0
C106 C 0.80154 0.55266 0.91363 0.0
O107 O 0.78766 0.55695 0.89325 0.0
O108 O 0.78758 0.55494 0.93386 0.0
C109 C 0.74821 0.49452 0.84003 0.0
O110 O 0.75698 0.45112 0.85634 0.0
C111 C 0.70913 0.46468 0.91608 0.0
Zn112 Zn -0.0067 0.84056 0.68528 0.0
Zn113 Zn -0.00601 0.8418 0.63471 0.0
O114 O 0.97872 0.74863 0.64254 0.0
O115 O 0.9772 0.74882 0.68319 0.0
O116 O -0.00803 0.85685 0.59754 0.0
O117 O 0.96623 0.91887 0.68682 0.0
O118 O 0.96871 0.9181 0.64644 0.0
C119 C 0.97346 0.71933 0.66289 0.0
C120 C 0.05176 0.85587 0.66368 0.0
O121 O 0.03784 0.85166 0.64331 0.0
O122 O 0.03782 0.85356 0.68392 0.0
C123 C -0.00168 0.91455 0.59023 0.0
O124 O 0.00713 -0.04223 0.60659 0.0
C125 C 0.95934 0.94386 0.66628 0.0
Zn126 Zn 0.23784 0.31703 0.68522 0.0
Zn127 Zn 0.23703 0.31596 0.63466 0.0
O128 O 0.25233 0.40906 0.64255 0.0
O129 O 0.25393 0.40878 0.6832 0.0
O130 O 0.23895 0.30132 0.59746 0.0
O131 O 0.2649 0.23871 0.68666 0.0
O132 O 0.26233 0.23956 0.64628 0.0
C133 C 0.25763 0.43832 0.6629 0.0
C134 C 0.17933 0.30176 0.66366 0.0
O135 O 0.19319 0.30604 0.64328 0.0
O136 O 0.1933 0.30404 0.6839 0.0
C137 C 0.23261 0.24372 0.59003 0.0
O138 O 0.22388 0.20023 0.60631 0.0
C139 C 0.27173 0.21375 0.6661 0.0
Zn140 Zn -0.00687 0.31745 0.64302 0.0
Zn141 Zn -0.00611 0.31642 0.69358 0.0
O142 O 0.97865 0.40957 0.68566 0.0
O143 O 0.97709 0.40924 0.64502 0.0
O144 O -0.00813 0.30171 0.73077 0.0
O145 O 0.96603 0.23918 0.64154 0.0
O146 O 0.96861 0.24003 0.68191 0.0
C147 C 0.97339 0.43882 0.6653 0.0
C148 C 0.05161 0.30205 0.66463 0.0
O149 O 0.03774 0.3064 0.685 0.0
O150 O 0.03765 0.30434 0.64439 0.0
C151 C -0.00182 0.24407 0.73817 0.0
O152 O 0.00696 0.20065 0.72189 0.0
C153 C 0.9592 0.21421 0.66209 0.0
Zn154 Zn 0.23792 0.84006 0.64293 0.0
Zn155 Zn 0.23725 0.84126 0.69349 0.0
O156 O 0.25248 0.74811 0.68561 0.0
O157 O 0.25399 0.74831 0.64497 0.0
O158 O 0.23932 0.85609 0.73066 0.0
O159 O 0.26499 0.91836 0.64139 0.0
O160 O 0.26251 0.91762 0.68177 0.0
C161 C 0.25773 0.7188 0.66526 0.0
C162 C 0.17947 0.85549 0.66456 0.0
O163 O 0.19339 0.85124 0.68492 0.0
O164 O 0.1934 0.85314 0.64431 0.0
C165 C 0.23303 0.91374 0.73805 0.0
O166 O 0.22423 -0.04287 0.72176 0.0
C167 C 0.27187 0.94339 0.66193 0.0
Zn168 Zn 0.98821 0.06914 0.39323 0.0
Zn169 Zn 0.98736 0.06784 0.44379 0.0
O170 O 0.00264 0.16103 0.436 0.0
O171 O 0.00429 0.16088 0.39536 0.0
O172 O 0.9893 0.05277 0.48096 0.0
O173 O 0.01528 -0.00915 0.39172 0.0
O174 O 0.01266 -0.00846 0.43208 0.0
C175 C 0.00796 0.19036 0.41567 0.0
C176 C 0.92968 0.05378 0.4147 0.0
O177 O 0.94352 0.05797 0.43511 0.0
O178 O 0.94368 0.05613 0.39449 0.0
C179 C 0.98295 -0.00493 0.48827 0.0
O180 O 0.97418 0.95184 0.4719 0.0
C181 C 0.02209 -0.03419 0.41227 0.0
Zn182 Zn 0.74355 0.59253 0.39265 0.0
Zn183 Zn 0.74416 0.59357 0.44322 0.0
O184 O 0.72892 0.50045 0.43528 0.0
O185 O 0.72747 0.50075 0.39463 0.0
O186 O 0.74208 0.60829 0.4804 0.0
O187 O 0.71647 0.67084 0.39113 0.0
O188 O 0.7189 0.66996 0.43151 0.0
C189 C 0.7237 0.4712 0.41491 0.0
C190 C 0.80197 0.60784 0.41437 0.0
O191 O 0.78802 0.60354 0.43471 0.0
O192 O 0.78807 0.60558 0.3941 0.0
C193 C 0.74839 0.66593 0.48782 0.0
O194 O 0.75718 0.70935 0.47154 0.0
C195 C 0.70957 0.69578 0.41167 0.0
Zn196 Zn 0.98809 0.59224 0.43547 0.0
Zn197 Zn 0.9875 0.59319 0.38491 0.0
O198 O 0.00273 0.50009 0.39288 0.0
O199 O 0.00414 0.50045 0.43353 0.0
O200 O 0.98956 0.60776 0.34772 0.0
O201 O 0.01519 0.67051 0.43697 0.0
O202 O 0.01276 0.66962 0.39659 0.0
C203 C 0.00793 0.47086 0.41326 0.0
C204 C 0.92968 0.6076 0.41374 0.0
O205 O 0.94363 0.60323 0.39341 0.0
O206 O 0.94358 0.60535 0.43402 0.0
C207 C 0.98325 0.66535 0.34026 0.0
O208 O 0.97447 0.70886 0.35651 0.0
C209 C 0.02209 0.69545 0.41642 0.0
Zn210 Zn 0.74343 0.06943 0.43496 0.0
Zn211 Zn 0.7443 0.06819 0.3844 0.0
O212 O 0.72904 0.16137 0.3922 0.0
O213 O 0.72738 0.16119 0.43285 0.0
O214 O 0.74236 0.05317 0.34723 0.0
O215 O 0.71635 -0.00886 0.43644 0.0
O216 O 0.71898 -0.00811 0.39608 0.0
C217 C 0.72372 0.19069 0.41254 0.0
C218 C 0.80196 0.054 0.41349 0.0
O219 O 0.78813 0.05824 0.39309 0.0
O220 O 0.78796 0.05636 0.4337 0.0
C221 C 0.7487 -0.00453 0.33991 0.0
O222 O 0.75748 0.95224 0.35627 0.0
C223 C 0.70954 -0.03387 0.41589 0.0
Zn224 Zn 0.49333 0.34104 0.68543 0.0
Zn225 Zn 0.49392 0.34217 0.63487 0.0
O226 O 0.47872 0.24898 0.64276 0.0
O227 O 0.47729 0.24924 0.68341 0.0
O228 O 0.49179 0.35709 0.59769 0.0
O229 O 0.46624 0.4193 0.68699 0.0
O230 O 0.46866 0.41849 0.64661 0.0
C231 C 0.47353 0.2197 0.66313 0.0
C232 C 0.55174 0.35652 0.66373 0.0
O233 O 0.53779 0.3522 0.64338 0.0
O234 O 0.53785 0.35419 0.68399 0.0
C235 C 0.49809 0.41479 0.59034 0.0
O236 O 0.50693 0.45806 0.60667 0.0
C237 C 0.45932 0.44427 0.66645 0.0
Zn238 Zn 0.73811 0.81861 0.68505 0.0
Zn239 Zn 0.73726 0.81749 0.63449 0.0
O240 O 0.75252 0.91064 0.64237 0.0
O241 O 0.75416 0.9104 0.68301 0.0
O242 O 0.73922 0.80276 0.5973 0.0
O243 O 0.76521 0.74035 0.68651 0.0
O244 O 0.76257 0.74112 0.64614 0.0
C245 C 0.75783 0.93993 0.66272 0.0
C246 C 0.67959 0.80314 0.66351 0.0
O247 O 0.69343 0.80745 0.64312 0.0
O248 O 0.69359 0.80548 0.68374 0.0
C249 C 0.73291 0.74512 0.5899 0.0
O250 O 0.72416 0.70168 0.60618 0.0
C251 C 0.772 0.71534 0.66596 0.0
Zn252 Zn 0.49334 0.81789 0.64314 0.0
Zn253 Zn 0.49422 0.81675 0.69371 0.0
O254 O 0.47893 0.9099 0.68588 0.0
O255 O 0.47726 0.90965 0.64523 0.0
O256 O 0.49231 0.80178 0.73089 0.0
O257 O 0.46626 0.73958 0.64167 0.0
O258 O 0.4689 0.74041 0.68204 0.0
C259 C 0.4736 0.93918 0.66553 0.0
C260 C 0.55188 0.80263 0.66464 0.0
O261 O 0.53804 0.80687 0.68504 0.0
O262 O 0.53787 0.8049 0.64442 0.0
C263 C 0.49867 0.7441 0.73822 0.0
O264 O 0.50743 0.70084 0.72186 0.0
C265 C 0.45945 0.71462 0.66223 0.0
Zn266 Zn 0.73788 0.34168 0.64278 0.0
Zn267 Zn 0.73727 0.34282 0.69335 0.0
O268 O 0.75253 0.2497 0.68546 0.0
O269 O 0.75398 0.24994 0.64481 0.0
O270 O 0.7393 0.3576 0.73053 0.0
O271 O 0.76494 0.42 0.64126 0.0
O272 O 0.76253 0.4192 0.68164 0.0
C273 C 0.75776 0.22042 0.6651 0.0
C274 C 0.67946 0.35694 0.66444 0.0
O275 O 0.6934 0.3527 0.68479 0.0
O276 O 0.69335 0.35465 0.64418 0.0
C277 C 0.73297 0.41523 0.73793 0.0
O278 O 0.72418 0.45863 0.72163 0.0
C279 C 0.77186 0.44498 0.6618 0.0
Zn280 Zn 0.48762 0.5688 0.39331 0.0
Zn281 Zn 0.48676 0.5676 0.44386 0.0
O282 O 0.50203 0.66077 0.43605 0.0
O283 O 0.50369 0.66056 0.3954 0.0
O284 O 0.48872 0.55265 0.48104 0.0
O285 O 0.5147 0.49052 0.39182 0.0
O286 O 0.51206 0.49128 0.43219 0.0
C287 C 0.50735 0.69007 0.41571 0.0
C288 C 0.42909 0.5534 0.41478 0.0
O289 O 0.44292 0.55765 0.43519 0.0
O290 O 0.4431 0.55574 0.39457 0.0
C291 C 0.4824 0.49496 0.48838 0.0
O292 O 0.47362 0.45166 0.47204 0.0
C293 C 0.52151 0.46552 0.41238 0.0
Zn294 Zn 0.24296 0.09173 0.39269 0.0
Zn295 Zn 0.24356 0.09274 0.44325 0.0
O296 O 0.22832 -0.00037 0.4353 0.0
O297 O 0.2269 -5e-05 0.39464 0.0
O298 O 0.24151 0.10735 0.48044 0.0
O299 O 0.21588 0.17002 0.39119 0.0
O300 O 0.2183 0.16915 0.43157 0.0
C301 C 0.22311 -0.02962 0.41492 0.0
C302 C 0.30137 0.10709 0.41441 0.0
O303 O 0.28742 0.10275 0.43475 0.0
O304 O 0.28748 0.10482 0.39414 0.0
C305 C 0.24783 0.16495 0.48788 0.0
O306 O 0.25662 0.20843 0.47161 0.0
C307 C 0.20897 0.19497 0.41173 0.0
Zn308 Zn 0.4875 0.0919 0.43557 0.0
Zn309 Zn 0.48692 0.09295 0.385 0.0
O310 O 0.50215 -0.00017 0.39294 0.0
O311 O 0.50357 0.00013 0.43359 0.0
O312 O 0.48902 0.10769 0.34782 0.0
O313 O 0.51457 0.1702 0.43711 0.0
O314 O 0.51217 0.16934 0.39673 0.0
C315 C 0.50735 -0.02942 0.41331 0.0
C316 C 0.42909 0.10722 0.41382 0.0
O317 O 0.44305 0.10291 0.39348 0.0
O318 O 0.44298 0.10495 0.4341 0.0
C319 C 0.48272 0.16533 0.34041 0.0
O320 O 0.4739 0.20873 0.35669 0.0
C321 C 0.52149 0.19516 0.41657 0.0
Zn322 Zn 0.24283 0.56867 0.43498 0.0
Zn323 Zn 0.24372 0.56739 0.38442 0.0
O324 O 0.22843 0.66056 0.39221 0.0
O325 O 0.22675 0.6604 0.43285 0.0
O326 O 0.24182 0.55238 0.34724 0.0
O327 O 0.21576 0.49035 0.43646 0.0
O328 O 0.2184 0.49107 0.39609 0.0
C329 C 0.2231 0.68988 0.41254 0.0
C330 C 0.30137 0.55331 0.41354 0.0
O331 O 0.28755 0.5575 0.39313 0.0
O332 O 0.28736 0.55566 0.43374 0.0
C333 C 0.24817 0.49469 0.33992 0.0
O334 O 0.25692 0.45143 0.35628 0.0
C335 C 0.20896 0.46532 0.4159 0.0
Zn336 Zn 0.49339 0.84126 0.18547 0.0
Zn337 Zn 0.49403 0.84234 0.1349 0.0
O338 O 0.47875 0.74923 0.14281 0.0
O339 O 0.47729 0.74951 0.18346 0.0
O340 O 0.49202 0.85701 0.09772 0.0
O341 O 0.46632 0.91957 0.18695 0.0
O342 O 0.46876 0.91873 0.14657 0.0
C343 C 0.47352 0.71998 0.16317 0.0
C344 C 0.55182 0.85655 0.16383 0.0
O345 O 0.53789 0.85227 0.14348 0.0
O346 O 0.53791 0.85428 0.18409 0.0
C347 C 0.49837 0.91461 0.09029 0.0
O348 O 0.50714 -0.04194 0.10658 0.0
C349 C 0.45942 0.94453 0.16641 0.0
Zn350 Zn 0.73791 0.31792 0.18522 0.0
Zn351 Zn 0.73706 0.31685 0.13465 0.0
O352 O 0.75235 0.40998 0.14252 0.0
O353 O 0.75398 0.40969 0.18317 0.0
O354 O 0.73897 0.30205 0.09747 0.0
O355 O 0.76499 0.23962 0.18666 0.0
O356 O 0.76237 0.24049 0.14629 0.0
C357 C 0.75766 0.43924 0.16288 0.0
C358 C 0.67938 0.30262 0.1637 0.0
O359 O 0.69323 0.30691 0.14331 0.0
O360 O 0.69338 0.30489 0.18392 0.0
C361 C 0.73262 0.2444 0.09009 0.0
O362 O 0.72387 0.20103 0.10641 0.0
C363 C 0.7718 0.21468 0.1661 0.0
Zn364 Zn 0.49315 0.31822 0.14321 0.0
Zn365 Zn 0.49397 0.31705 0.19377 0.0
O366 O 0.47871 0.4102 0.1859 0.0
O367 O 0.47709 0.40998 0.14525 0.0
O368 O 0.49198 0.30228 0.23095 0.0
O369 O 0.46608 0.23993 0.14171 0.0
O370 O 0.46869 0.24067 0.18208 0.0
C371 C 0.47341 0.43949 0.16555 0.0
C372 C 0.55166 0.30283 0.16477 0.0
O373 O 0.53781 0.30709 0.18516 0.0
O374 O 0.53768 0.30517 0.14455 0.0
C375 C 0.49829 0.24464 0.23835 0.0
O376 O 0.50705 0.20121 0.22206 0.0
C377 C 0.45927 0.2149 0.16226 0.0
Zn378 Zn 0.73796 0.84103 0.14292 0.0
Zn379 Zn 0.73734 0.84225 0.19348 0.0
O380 O 0.75256 0.74906 0.18563 0.0
O381 O 0.75402 0.74926 0.14498 0.0
O382 O 0.73944 0.85727 0.23065 0.0
O383 O 0.76503 0.91932 0.14135 0.0
O384 O 0.7626 0.91856 0.18172 0.0
C385 C 0.75777 0.71975 0.16527 0.0
C386 C 0.67954 0.85644 0.16459 0.0
O387 O 0.69347 0.85219 0.18495 0.0
O388 O 0.69344 0.8541 0.14434 0.0
C389 C 0.73311 0.91497 0.23797 0.0
O390 O 0.72428 -0.04181 0.22163 0.0
C391 C 0.77194 0.94433 0.16188 0.0
Zn392 Zn 0.48834 0.06669 0.89296 0.0
Zn393 Zn 0.48762 0.06569 0.94352 0.0
O394 O 0.50288 0.1588 0.9356 0.0
O395 O 0.50441 0.15847 0.89495 0.0
O396 O 0.48958 0.05107 0.98071 0.0
O397 O 0.51543 -0.0116 0.89152 0.0
O398 O 0.5129 -0.01072 0.9319 0.0
C399 C 0.50814 0.18804 0.91524 0.0
C400 C 0.42988 0.05136 0.91453 0.0
O401 O 0.44377 0.0557 0.9349 0.0
O402 O 0.44382 0.05362 0.89429 0.0
C403 C 0.48322 -0.00652 0.98814 0.0
O404 O 0.47446 0.95001 0.97185 0.0
C405 C 0.52229 -0.03654 0.91208 0.0
Zn406 Zn 0.24373 0.5898 0.89297 0.0
Zn407 Zn 0.24447 0.591 0.94354 0.0
O408 O 0.22922 0.49783 0.93568 0.0
O409 O 0.22765 0.49804 0.89503 0.0
O410 O 0.24244 0.60595 0.98071 0.0
O411 O 0.21665 0.66809 0.89144 0.0
O412 O 0.21919 0.66732 0.93181 0.0
C413 C 0.22394 0.46853 0.91533 0.0
C414 C 0.30221 0.60518 0.91458 0.0
O415 O 0.28833 0.60093 0.93496 0.0
O416 O 0.28825 0.60285 0.89434 0.0
C417 C 0.24875 0.66365 0.98806 0.0
O418 O 0.25755 0.70695 0.97174 0.0
C419 C 0.2098 0.69308 0.91198 0.0
Zn420 Zn 0.48842 0.58977 0.93525 0.0
Zn421 Zn 0.48766 0.59105 0.88469 0.0
O422 O 0.50291 0.49787 0.89251 0.0
O423 O 0.50449 0.49803 0.93316 0.0
O424 O 0.48965 0.60608 0.84751 0.0
O425 O 0.51549 0.66807 0.9368 0.0
O426 O 0.51295 0.66736 0.89643 0.0
C427 C 0.50819 0.46854 0.91286 0.0
C428 C 0.42993 0.60516 0.91366 0.0
O429 O 0.44381 0.60096 0.89328 0.0
O430 O 0.44389 0.6028 0.9339 0.0
C431 C 0.48332 0.66378 0.84019 0.0
O432 O 0.47454 0.70703 0.85654 0.0
C433 C 0.52234 0.6931 0.91626 0.0
Zn434 Zn 0.2437 0.0667 0.93524 0.0
Zn435 Zn 0.2444 0.06563 0.88468 0.0
O436 O 0.22916 0.15876 0.89257 0.0
O437 O 0.22764 0.15847 0.93322 0.0
O438 O 0.24235 0.05087 0.84749 0.0
O439 O 0.21662 -0.0116 0.93673 0.0
O440 O 0.21913 -0.01076 0.89635 0.0
C441 C 0.22391 0.18802 0.91294 0.0
C442 C 0.30216 0.05134 0.91362 0.0
O443 O 0.28825 0.05565 0.89325 0.0
O444 O 0.28822 0.05363 0.93386 0.0
C445 C 0.24866 -0.00678 0.8401 0.0
O446 O 0.25746 0.94984 0.85639 0.0
C447 C 0.20975 -0.03656 0.91617 0.0
C448 C 0.94413 0.61037 0.14131 0.0
C449 C 0.94688 0.64725 0.16303 0.0
H450 H 0.94516 0.51496 0.12531 0.0
C451 C 0.94425 0.61528 0.18588 0.0
H452 H 0.94533 0.63363 0.1234 0.0
C453 C 0.94423 0.54705 0.18699 0.0
C454 C 0.9468 0.51016 0.16526 0.0
H455 H 0.94549 0.64247 0.20299 0.0
H456 H 0.94552 0.5238 0.20489 0.0
C457 C 0.94406 0.54215 0.14242 0.0
C458 C 0.28724 0.6107 0.18683 0.0
C459 C 0.28459 0.6476 0.16511 0.0
H460 H 0.28605 0.51529 0.20283 0.0
C461 C 0.28725 0.61562 0.14227 0.0
H462 H 0.28601 0.63396 0.20474 0.0
C463 C 0.28719 0.5474 0.14115 0.0
C464 C 0.28452 0.51051 0.16287 0.0
H465 H 0.28609 0.64282 0.12516 0.0
H466 H 0.28592 0.52415 0.12324 0.0
C467 C 0.28723 0.54248 0.18572 0.0
C468 C 0.03686 0.29808 0.93708 0.0
C469 C 0.03418 0.26118 0.91535 0.0
H470 H 0.03576 0.39349 0.95307 0.0
C471 C 0.03687 0.29314 0.89251 0.0
H472 H 0.03561 0.27483 0.95498 0.0
C473 C 0.03687 0.36137 0.89139 0.0
C474 C 0.03423 0.39827 0.91311 0.0
H475 H 0.03568 0.26594 0.8754 0.0
H476 H 0.03562 0.38461 0.87348 0.0
C477 C 0.03692 0.3663 0.93596 0.0
C478 C 0.69383 0.36119 0.93682 0.0
C479 C 0.69653 0.39806 0.91509 0.0
H480 H 0.69491 0.2658 0.95283 0.0
C481 C 0.69387 0.36606 0.89225 0.0
H482 H 0.69505 0.38447 0.95472 0.0
C483 C 0.69387 0.29784 0.89114 0.0
C484 C 0.69648 0.26097 0.91288 0.0
H485 H 0.69507 0.39324 0.87514 0.0
H486 H 0.69513 0.27457 0.87324 0.0
C487 C 0.69377 0.29297 0.93571 0.0
C488 C 0.94398 0.04243 0.64248 0.0
C489 C 0.94673 0.01047 0.66532 0.0
H490 H 0.94517 0.1339 0.62345 0.0
C491 C 0.94409 0.04735 0.68704 0.0
H492 H 0.94513 0.01523 0.62537 0.0
C493 C 0.94402 0.11557 0.68593 0.0
C494 C 0.94664 0.14755 0.66308 0.0
H495 H 0.94539 0.0241 0.70495 0.0
H496 H 0.94521 0.14277 0.70304 0.0
C497 C 0.94396 0.11065 0.64136 0.0
C498 C 0.28701 0.04694 0.64116 0.0
C499 C 0.28443 0.01005 0.66289 0.0
H500 H 0.28576 0.14233 0.62515 0.0
C501 C 0.28714 0.04205 0.68573 0.0
H502 H 0.28573 0.02366 0.62326 0.0
C503 C 0.28708 0.11028 0.68683 0.0
C504 C 0.28434 0.14714 0.66511 0.0
H505 H 0.28604 0.01486 0.70284 0.0
H506 H 0.28586 0.13354 0.70474 0.0
C507 C 0.28699 0.11516 0.64227 0.0
C508 C 0.03735 0.86719 0.43608 0.0
C509 C 0.03468 0.89918 0.41324 0.0
H510 H 0.03608 0.77571 0.4551 0.0
C511 C 0.03734 0.8623 0.39151 0.0
H512 H 0.03618 0.89438 0.45319 0.0
C513 C 0.03737 0.79408 0.39262 0.0
C514 C 0.03468 0.76209 0.41546 0.0
H515 H 0.0361 0.88557 0.37361 0.0
H516 H 0.0362 0.7669 0.37551 0.0
C517 C 0.03734 0.79897 0.43719 0.0
C518 C 0.69434 0.79931 0.39092 0.0
C519 C 0.69698 0.76241 0.41264 0.0
H520 H 0.69549 0.89472 0.37493 0.0
C521 C 0.69426 0.79437 0.43549 0.0
H522 H 0.69561 0.77606 0.37301 0.0
C523 C 0.69427 0.8626 0.43661 0.0
C524 C 0.69696 0.8995 0.41489 0.0
H525 H 0.69541 0.76717 0.4526 0.0
H526 H 0.6955 0.88584 0.45452 0.0
C527 C 0.6943 0.86753 0.39204 0.0
C528 C 0.44409 0.61111 0.64153 0.0
C529 C 0.44684 0.64801 0.66324 0.0
H530 H 0.44513 0.51569 0.62553 0.0
C531 C 0.4442 0.61606 0.68609 0.0
H532 H 0.4453 0.63436 0.62362 0.0
C533 C 0.44418 0.54783 0.68721 0.0
C534 C 0.44676 0.51092 0.66549 0.0
H535 H 0.44544 0.64326 0.7032 0.0
H536 H 0.44548 0.52459 0.70512 0.0
C537 C 0.44402 0.54289 0.64265 0.0
C538 C 0.78717 0.61668 0.64213 0.0
C539 C 0.78456 0.64869 0.66498 0.0
H540 H 0.78579 0.5252 0.62312 0.0
C541 C 0.78725 0.61181 0.6867 0.0
H542 H 0.78598 0.64388 0.62502 0.0
C543 C 0.78723 0.54358 0.68559 0.0
C544 C 0.78447 0.5116 0.66275 0.0
H545 H 0.78606 0.63508 0.7046 0.0
H546 H 0.78608 0.51641 0.70271 0.0
C547 C 0.7871 0.54846 0.64102 0.0
C548 C 0.53678 0.36199 0.39166 0.0
C549 C 0.53409 0.39888 0.41338 0.0
H550 H 0.53567 0.26659 0.37566 0.0
C551 C 0.53673 0.36691 0.43623 0.0
H552 H 0.53557 0.38526 0.37375 0.0
C553 C 0.5367 0.29868 0.43734 0.0
C554 C 0.53408 0.2618 0.41562 0.0
H555 H 0.53553 0.39411 0.45334 0.0
H556 H 0.53541 0.27543 0.45525 0.0
C557 C 0.53681 0.29377 0.39278 0.0
C558 C 0.19372 0.3667 0.39207 0.0
C559 C 0.19638 0.39869 0.41492 0.0
H560 H 0.19502 0.27523 0.37305 0.0
C561 C 0.1937 0.3618 0.43664 0.0
H562 H 0.19491 0.3939 0.37496 0.0
C563 C 0.19367 0.29358 0.43553 0.0
C564 C 0.19638 0.2616 0.41269 0.0
H565 H 0.19492 0.38507 0.45455 0.0
H566 H 0.19483 0.26639 0.45264 0.0
C567 C 0.19374 0.29848 0.39096 0.0
C568 C 0.44406 0.11136 0.1415 0.0
C569 C 0.44672 0.14823 0.16323 0.0
H570 H 0.44526 0.01597 0.12549 0.0
C571 C 0.44407 0.11622 0.18607 0.0
H572 H 0.44528 0.13464 0.1236 0.0
C573 C 0.44414 0.048 0.18717 0.0
C574 C 0.44681 0.01114 0.16544 0.0
H575 H 0.44524 0.1434 0.20319 0.0
H576 H 0.44542 0.02473 0.20508 0.0
C577 C 0.44408 0.04313 0.1426 0.0
C578 C 0.78724 0.04296 0.18568 0.0
C579 C 0.7845 0.01099 0.16284 0.0
H580 H 0.78597 0.13441 0.20472 0.0
C581 C 0.78706 0.04791 0.14111 0.0
H582 H 0.78615 0.01574 0.20279 0.0
C583 C 0.78704 0.11613 0.14224 0.0
C584 C 0.78442 0.14808 0.16509 0.0
H585 H 0.78576 0.02466 0.12321 0.0
H586 H 0.78579 0.14333 0.12513 0.0
C587 C 0.78718 0.11118 0.1868 0.0
C588 C 0.53763 0.79173 0.89247 0.0
C589 C 0.53492 0.75975 0.91531 0.0
H590 H 0.53637 0.8832 0.87345 0.0
C591 C 0.53753 0.79664 0.93704 0.0
H592 H 0.5365 0.76453 0.87536 0.0
C593 C 0.53754 0.86487 0.93592 0.0
C594 C 0.53488 0.89684 0.91308 0.0
H595 H 0.53626 0.77338 0.95494 0.0
H596 H 0.53633 0.89205 0.95304 0.0
C597 C 0.53759 0.85995 0.89136 0.0
C598 C 0.19451 0.79167 0.93579 0.0
C599 C 0.1972 0.7597 0.91295 0.0
H600 H 0.19576 0.88314 0.95482 0.0
C601 C 0.19455 0.7966 0.89122 0.0
H602 H 0.19567 0.76447 0.9529 0.0
C603 C 0.19451 0.86482 0.89234 0.0
C604 C 0.19718 0.89679 0.91519 0.0
H605 H 0.19581 0.77334 0.87332 0.0
H606 H 0.19568 0.89201 0.87523 0.0
C607 C 0.19451 0.85989 0.93691 0.0
C608 C -0.00344 0.51883 1.03215 0.0
C609 C 0.98636 0.47438 1.01434 0.0
H610 H 0.0084 0.53469 0.06986 0.0
C611 C 0.9803 0.40955 1.02165 0.0
H612 H 0.00151 0.569 1.0272 0.0
C613 C 0.98433 0.38968 0.04613 0.0
C614 C -0.00547 0.43413 0.06394 0.0
H615 H 0.97249 0.37383 1.00843 0.0
H616 H 0.97938 0.33952 0.05109 0.0
C617 C 0.00059 0.49896 0.05663 0.0
C618 C 0.25105 0.74844 1.02157 0.0
C619 C 0.24502 0.6836 1.01424 0.0
H620 H 0.25194 0.81845 0.05101 0.0
C621 C 0.23483 0.63913 1.03204 0.0
H622 H 0.25886 0.78419 1.00836 0.0
C623 C 0.23077 0.65897 0.05652 0.0
C624 C 0.2368 0.72381 0.06384 0.0
H625 H 0.22989 0.58896 1.02707 0.0
H626 H 0.22296 0.62322 0.06972 0.0
C627 C 0.247 0.76828 0.04605 0.0
C628 C 0.98481 0.76912 0.28206 0.0
C629 C -0.00506 0.72438 0.26433 0.0
H630 H 0.97309 0.78559 0.31974 0.0
C631 C 0.00101 0.65967 0.27178 0.0
H632 H 0.97986 0.81922 0.277 0.0
C633 C -0.00295 0.64019 0.29631 0.0
C634 C 0.98691 0.68493 0.31403 0.0
H635 H 0.00877 0.62373 0.25863 0.0
H636 H 0.002 0.5901 0.30137 0.0
C637 C 0.98086 0.74965 0.30659 0.0
C638 C 0.23044 0.49924 0.27141 0.0
C639 C 0.23652 0.43442 0.26411 0.0
H640 H 0.22941 0.56929 0.30084 0.0
C641 C 0.24669 0.39 0.28194 0.0
H642 H 0.22265 0.53496 0.25817 0.0
C643 C 0.25064 0.40988 0.30643 0.0
C644 C 0.24455 0.4747 0.31373 0.0
H645 H 0.25166 0.33983 0.277 0.0
H646 H 0.25842 0.37416 0.31967 0.0
C647 C 0.23439 0.51913 0.2959 0.0
C648 C 0.75037 0.24938 1.0216 0.0
C649 C 0.74431 0.18459 1.01425 0.0
H650 H 0.75137 0.31926 0.05109 0.0
C651 C 0.73416 0.14004 1.03203 0.0
H652 H 0.75815 0.28519 1.0084 0.0
C653 C 0.73019 0.15978 0.05653 0.0
C654 C 0.73626 0.22457 0.06389 0.0
H655 H 0.7292 0.0899 1.02704 0.0
H656 H 0.72241 0.12397 0.06973 0.0
C657 C 0.74641 0.26912 0.0461 0.0
C658 C 0.9803 0.24928 0.80664 0.0
C659 C 0.98634 0.1845 0.81403 0.0
H660 H 0.97938 0.31906 0.77712 0.0
C661 C -0.00349 0.13989 0.79627 0.0
H662 H 0.97251 0.28513 0.81982 0.0
C663 C 0.00052 0.15954 0.77177 0.0
C664 C -0.00551 0.22432 0.76438 0.0
H665 H 0.00145 0.08976 0.80129 0.0
H666 H 0.00831 0.12369 0.75859 0.0
C667 C 0.98432 0.26893 0.78214 0.0
C668 C 0.74675 0.39039 0.78192 0.0
C669 C 0.7366 0.43499 0.76414 0.0
H670 H 0.75847 0.37419 0.81962 0.0
C671 C 0.73052 0.49974 0.77152 0.0
H672 H 0.75173 0.34027 0.7769 0.0
C673 C 0.73445 0.51938 0.79604 0.0
C674 C 0.7446 0.47478 0.81382 0.0
H675 H 0.72274 0.53558 0.75833 0.0
H676 H 0.72948 0.5695 0.80105 0.0
C677 C 0.75069 0.41003 0.80643 0.0
C678 C 0.98051 0.91017 0.52173 0.0
C679 C 0.98659 -0.02499 0.51445 0.0
H680 H 0.97951 0.84005 0.55114 0.0
C681 C -0.00323 0.0194 0.53229 0.0
H682 H 0.97271 0.87449 0.50848 0.0
C683 C 0.00074 -0.00054 0.55677 0.0
C684 C -0.00534 0.93461 0.56405 0.0
H685 H 0.00174 0.06957 0.52736 0.0
H686 H 0.00854 0.03514 0.57002 0.0
C687 C 0.98448 0.89023 0.54621 0.0
C688 C 0.23407 0.13987 0.53184 0.0
C689 C 0.2442 0.18458 0.5141 0.0
H690 H 0.22237 0.12347 0.56954 0.0
C691 C 0.25027 0.2493 0.52153 0.0
H692 H 0.2291 0.08977 0.5268 0.0
C693 C 0.24634 0.26882 0.54606 0.0
C694 C 0.23622 0.22411 0.5638 0.0
H695 H 0.25804 0.28522 0.50837 0.0
H696 H 0.25131 0.31891 0.55111 0.0
C697 C 0.23013 0.15939 0.55637 0.0
C698 C 0.23072 -0.00167 0.77163 0.0
C699 C 0.23675 0.93354 0.76426 0.0
H700 H 0.22982 0.06815 0.80114 0.0
C701 C 0.24694 0.88896 0.78202 0.0
H702 H 0.22292 0.03416 0.75845 0.0
C703 C 0.25098 0.90865 0.80652 0.0
C704 C 0.24494 -0.02657 0.8139 0.0
H705 H 0.25187 0.83882 0.77701 0.0
H706 H 0.25878 0.87281 0.8197 0.0
C707 C 0.23476 0.01802 0.79613 0.0
C708 C 0.75073 0.75043 0.52142 0.0
C709 C 0.74469 0.68566 0.51402 0.0
H710 H 0.75167 0.82018 0.55095 0.0
C711 C 0.73453 0.64102 0.53177 0.0
H712 H 0.75851 0.7863 0.50825 0.0
C713 C 0.73054 0.66064 0.55628 0.0
C714 C 0.73658 0.72541 0.56368 0.0
H715 H 0.7296 0.59089 0.52675 0.0
H716 H 0.72276 0.62477 0.56946 0.0
C717 C 0.74673 0.77005 0.54593 0.0
C718 C 0.73078 -0.00012 0.27143 0.0
C719 C 0.73684 0.93503 0.26415 0.0
H720 H 0.72985 0.06999 0.30084 0.0
C721 C 0.74705 0.89065 0.28197 0.0
H722 H 0.72297 0.03557 0.2582 0.0
C723 C 0.75108 0.91059 0.30645 0.0
C724 C 0.74501 -0.02457 0.31373 0.0
H725 H 0.752 0.84047 0.27703 0.0
H726 H 0.75889 0.8749 0.31968 0.0
C727 C 0.73481 0.01982 0.29591 0.0
C728 C 0.48007 0.41017 0.52188 0.0
C729 C 0.48611 0.475 0.51457 0.0
H730 H 0.47919 0.34013 0.55132 0.0
C731 C 0.49632 0.51946 0.53237 0.0
H732 H 0.47226 0.37443 0.50867 0.0
C733 C 0.50037 0.4996 0.55685 0.0
C734 C 0.49434 0.43476 0.56416 0.0
H735 H 0.50126 0.56963 0.52741 0.0
H736 H 0.50819 0.53534 0.57007 0.0
C737 C 0.48413 0.39031 0.54636 0.0
C738 C 0.48488 0.76852 0.78223 0.0
C739 C 0.49503 0.7241 0.7644 0.0
H740 H 0.47313 0.78434 0.81994 0.0
C741 C 0.50111 0.65927 0.7717 0.0
H742 H 0.47991 0.81869 0.77728 0.0
C743 C 0.49714 0.63937 0.79618 0.0
C744 C 0.48698 0.68379 0.81401 0.0
H745 H 0.50889 0.62355 0.75846 0.0
H746 H 0.5021 0.5892 0.80112 0.0
C747 C 0.48091 0.74863 0.80671 0.0
C748 C 0.49662 0.14047 0.29646 0.0
C749 C 0.48644 0.18509 0.31421 0.0
H750 H 0.50843 0.12427 0.25878 0.0
C751 C 0.4804 0.24986 0.30682 0.0
H752 H 0.50155 0.09034 0.30148 0.0
C753 C 0.48442 0.26951 0.28231 0.0
C754 C 0.4946 0.22489 0.26456 0.0
H755 H 0.47261 0.28571 0.31999 0.0
H756 H 0.47948 0.31964 0.27729 0.0
C757 C 0.50063 0.16012 0.27195 0.0
C758 C 0.48072 0.90912 1.02178 0.0
C759 C 0.48682 -0.02616 1.01437 0.0
H760 H 0.47964 0.83948 0.05135 0.0
C761 C 0.49695 0.01852 1.03212 0.0
H762 H 0.47295 0.87322 1.0086 0.0
C763 C 0.50086 -0.00102 0.05665 0.0
C764 C 0.49476 0.93426 0.06407 0.0
H765 H 0.50194 0.06861 1.02709 0.0
H766 H 0.50863 0.03488 0.06983 0.0
C767 C 0.48463 0.88958 0.04631 0.0
C768 C 0.13083 0.36143 0.18643 0.0
C769 C 0.14683 0.36057 0.16426 0.0
H770 H 0.0884 0.36088 0.20362 0.0
C771 C 0.13124 0.36152 0.14183 0.0
H772 H 0.1421 0.36097 0.20403 0.0
C773 C 0.1004 0.36141 0.14158 0.0
C774 C 0.08441 0.36042 0.16375 0.0
H775 H 0.14284 0.36112 0.12439 0.0
H776 H 0.08913 0.36095 0.12398 0.0
C777 C 0.09999 0.36139 0.18618 0.0
C778 C 0.10059 0.7963 0.18641 0.0
C779 C 0.08455 0.7972 0.16425 0.0
H780 H 0.14305 0.79679 0.20358 0.0
C781 C 0.10009 0.79626 0.14182 0.0
H782 H 0.08935 0.79674 0.20402 0.0
C783 C 0.13093 0.79635 0.14155 0.0
C784 C 0.14697 0.79731 0.16371 0.0
H785 H 0.08846 0.7967 0.12438 0.0
H786 H 0.14217 0.79683 0.12394 0.0
C787 C 0.13142 0.79631 0.18614 0.0
C788 C 0.84974 0.54702 0.9363 0.0
C789 C 0.83419 0.548 0.91385 0.0
H790 H 0.89182 0.54753 0.95419 0.0
C791 C 0.85022 0.54712 0.8917 0.0
H792 H 0.83812 0.54744 0.95373 0.0
C793 C 0.88106 0.54712 0.89198 0.0
C794 C 0.89661 0.54806 0.91443 0.0
H795 H 0.83898 0.5476 0.87409 0.0
H796 H 0.89268 0.54761 0.87455 0.0
C797 C 0.88058 0.54709 0.93658 0.0
C798 C 0.88052 0.11213 0.89174 0.0
C799 C 0.89652 0.11125 0.91392 0.0
H800 H 0.83808 0.11164 0.87454 0.0
C801 C 0.88095 0.11221 0.93634 0.0
H802 H 0.89178 0.11167 0.87415 0.0
C803 C 0.85011 0.11213 0.93658 0.0
C804 C 0.8341 0.11117 0.9144 0.0
H805 H 0.89255 0.11178 0.95379 0.0
H806 H 0.83884 0.11168 0.95417 0.0
C807 C 0.84968 0.11213 0.89198 0.0
C808 C 0.13124 0.86128 0.64195 0.0
C809 C 0.14683 0.86027 0.66437 0.0
H810 H 0.08913 0.86093 0.6241 0.0
C811 C 0.13083 0.86123 0.68654 0.0
H812 H 0.14284 0.8608 0.62451 0.0
C813 C 0.09999 0.86137 0.68629 0.0
C814 C 0.08441 0.86047 0.66387 0.0
H815 H 0.1421 0.86073 0.70414 0.0
H816 H 0.0884 0.86095 0.70374 0.0
C817 C 0.1004 0.86135 0.6417 0.0
C818 C 0.0998 0.29623 0.64199 0.0
C819 C 0.08426 0.29728 0.66443 0.0
H820 H 0.14187 0.29659 0.62411 0.0
C821 C 0.1003 0.29637 0.68658 0.0
H822 H 0.08817 0.29668 0.62455 0.0
C823 C 0.13114 0.29625 0.68631 0.0
C824 C 0.14668 0.29713 0.66388 0.0
H825 H 0.08906 0.29689 0.70419 0.0
H826 H 0.14277 0.29672 0.70375 0.0
C827 C 0.13064 0.2962 0.64172 0.0
C828 C 0.85011 0.04828 0.43623 0.0
C829 C 0.83461 0.04926 0.41376 0.0
H830 H 0.89216 0.0487 0.45419 0.0
C831 C 0.85069 0.04831 0.39164 0.0
H832 H 0.83845 0.04876 0.45364 0.0
C833 C 0.88153 0.04821 0.39197 0.0
C834 C 0.89703 0.04914 0.41443 0.0
H835 H 0.83949 0.04878 0.37401 0.0
H836 H 0.89319 0.04864 0.37455 0.0
C837 C 0.88095 0.04825 0.43656 0.0
C838 C 0.88141 0.6134 0.43626 0.0
C839 C 0.89704 0.61237 0.41386 0.0
H840 H 0.83927 0.61302 0.45403 0.0
C841 C 0.88108 0.6133 0.39166 0.0
H842 H 0.89298 0.61295 0.45372 0.0
C843 C 0.85024 0.61341 0.39185 0.0
C844 C 0.83462 0.6125 0.41425 0.0
H845 H 0.89238 0.61279 0.37408 0.0
H846 H 0.83868 0.61295 0.37439 0.0
C847 C 0.85057 0.61343 0.43645 0.0
C848 C 0.60001 0.36236 0.68627 0.0
C849 C 0.58438 0.36132 0.66387 0.0
H850 H 0.64215 0.36203 0.70407 0.0
C851 C 0.60034 0.36228 0.64168 0.0
H852 H 0.58845 0.36189 0.70373 0.0
C853 C 0.63118 0.36243 0.64189 0.0
C854 C 0.6468 0.36154 0.6643 0.0
H855 H 0.58904 0.36177 0.62409 0.0
H856 H 0.64274 0.36199 0.62443 0.0
C857 C 0.63085 0.36243 0.68649 0.0
C858 C 0.60003 0.79717 0.64193 0.0
C859 C 0.58453 0.79805 0.66439 0.0
H860 H 0.64207 0.79786 0.624 0.0
C861 C 0.60061 0.79718 0.68653 0.0
H862 H 0.58837 0.79759 0.62451 0.0
C863 C 0.63145 0.79728 0.68622 0.0
C864 C 0.64695 0.79832 0.66376 0.0
H865 H 0.58941 0.79758 0.70415 0.0
H866 H 0.64311 0.79777 0.70364 0.0
C867 C 0.63087 0.79734 0.64162 0.0
C868 C 0.38036 0.5478 0.43663 0.0
C869 C 0.39644 0.5487 0.41451 0.0
H870 H 0.33785 0.54821 0.4537 0.0
C871 C 0.38095 0.54769 0.39203 0.0
H872 H 0.39155 0.5483 0.45426 0.0
C873 C 0.35011 0.5477 0.3917 0.0
C874 C 0.33402 0.54865 0.41382 0.0
H875 H 0.39262 0.54812 0.37463 0.0
H876 H 0.33891 0.54812 0.37406 0.0
C877 C 0.34952 0.54774 0.43629 0.0
C878 C 0.38081 0.11285 0.43632 0.0
C879 C 0.39644 0.11189 0.41393 0.0
H880 H 0.33866 0.1123 0.45408 0.0
C881 C 0.3805 0.1128 0.39173 0.0
H882 H 0.39236 0.1124 0.45379 0.0
C883 C 0.34965 0.11281 0.39191 0.0
C884 C 0.33402 0.11183 0.4143 0.0
H885 H 0.3918 0.11235 0.37415 0.0
H886 H 0.3381 0.11234 0.37444 0.0
C887 C 0.34997 0.11277 0.4365 0.0
C888 C 0.63092 0.86212 0.18662 0.0
C889 C 0.64689 0.86116 0.16444 0.0
H890 H 0.58851 0.86175 0.20385 0.0
C891 C 0.63127 0.86212 0.14203 0.0
H892 H 0.64222 0.86166 0.20421 0.0
C893 C 0.60043 0.86212 0.14181 0.0
C894 C 0.58447 0.86122 0.16399 0.0
H895 H 0.64285 0.86165 0.12457 0.0
H896 H 0.58914 0.86166 0.12422 0.0
C897 C 0.60008 0.86219 0.1864 0.0
C898 C 0.63122 0.29704 0.18639 0.0
C899 C 0.64673 0.29797 0.16394 0.0
H900 H 0.58916 0.29761 0.2043 0.0
C901 C 0.63066 0.29708 0.14179 0.0
H902 H 0.64287 0.29747 0.20381 0.0
C903 C 0.59983 0.2971 0.14209 0.0
C904 C 0.58431 0.29809 0.16454 0.0
H905 H 0.64188 0.29752 0.12418 0.0
H906 H 0.58818 0.29758 0.12467 0.0
C907 C 0.60038 0.29713 0.18669 0.0
C908 C 0.38165 0.04568 0.8919 0.0
C909 C 0.39723 0.04664 0.91433 0.0
H910 H 0.33955 0.04618 0.87404 0.0
C911 C 0.38122 0.04571 0.9365 0.0
H912 H 0.39325 0.04614 0.87446 0.0
C913 C 0.35038 0.04567 0.93624 0.0
C914 C 0.33481 0.04664 0.91381 0.0
H915 H 0.39249 0.04616 0.9541 0.0
H916 H 0.33878 0.04612 0.95368 0.0
C917 C 0.35081 0.04572 0.89165 0.0
C918 C 0.38173 0.61078 0.93629 0.0
C919 C 0.39728 0.60985 0.91386 0.0
H920 H 0.33965 0.61027 0.95416 0.0
C921 C 0.38125 0.61081 0.89169 0.0
H922 H 0.39335 0.6103 0.95373 0.0
C923 C 0.35041 0.61085 0.89196 0.0
C924 C 0.33486 0.60986 0.91439 0.0
H925 H 0.39249 0.61037 0.87409 0.0
H926 H 0.33879 0.61042 0.87452 0.0
C927 C 0.35089 0.61075 0.93655 0.0
C928 C 0.96579 0.04314 0.14204 0.0
C929 C 0.9671 0.00955 0.1647 0.0
H930 H 0.96661 0.13577 0.12359 0.0
C931 C 0.96581 0.04583 0.18662 0.0
H932 H 0.96644 0.01676 0.12474 0.0
C933 C 0.96567 0.11421 0.18591 0.0
C934 C 0.96704 0.14781 0.16326 0.0
H935 H 0.9665 0.0216 0.20437 0.0
H936 H 0.96622 0.14059 0.20322 0.0
C937 C 0.96587 0.11153 0.14133 0.0
C938 C 0.2655 0.04627 0.14134 0.0
C939 C 0.2643 0.00997 0.16327 0.0
H940 H 0.26497 0.14105 0.12477 0.0
C941 C 0.26564 0.04355 0.18593 0.0
H942 H 0.26478 0.02206 0.1236 0.0
C943 C 0.26551 0.11194 0.18665 0.0
C944 C 0.26425 0.14824 0.16473 0.0
H945 H 0.26506 0.01715 0.20322 0.0
H946 H 0.26479 0.13615 0.20439 0.0
C947 C 0.26559 0.11466 0.14207 0.0
C948 C 0.01516 0.79689 0.93694 0.0
C949 C 0.01398 0.76061 0.91501 0.0
H950 H 0.0146 0.89166 0.95353 0.0
C951 C 0.01536 0.79421 0.89236 0.0
H952 H 0.01441 0.77266 0.95468 0.0
C953 C 0.01524 0.86259 0.89165 0.0
C954 C 0.01395 0.89887 0.91358 0.0
H955 H 0.01481 0.76782 0.87506 0.0
H956 H 0.01456 0.88682 0.87391 0.0
C957 C 0.01525 0.86528 0.93623 0.0
C958 C 0.7155 0.86233 0.93671 0.0
C959 C 0.71671 0.89862 0.91478 0.0
H960 H 0.71603 0.76756 0.95329 0.0
C961 C 0.71537 0.86504 0.89212 0.0
H962 H 0.71622 0.88656 0.95445 0.0
C963 C 0.7155 0.79665 0.89141 0.0
C964 C 0.71675 0.76036 0.91333 0.0
H965 H 0.71596 0.89143 0.87482 0.0
H966 H 0.71621 0.77243 0.87366 0.0
C967 C 0.71541 0.79394 0.93599 0.0
C968 C 0.96575 0.61191 0.64143 0.0
C969 C 0.96695 0.64821 0.66335 0.0
H970 H 0.96625 0.51712 0.62485 0.0
C971 C 0.96558 0.61463 0.68601 0.0
H972 H 0.9665 0.63613 0.62369 0.0
C973 C 0.96567 0.54625 0.68673 0.0
C974 C 0.96692 0.50995 0.66481 0.0
H975 H 0.96615 0.64103 0.70331 0.0
H976 H 0.96635 0.52203 0.70448 0.0
C977 C 0.96563 0.54352 0.64215 0.0
C978 C 0.2655 0.54302 0.68603 0.0
C979 C 0.26415 0.50942 0.66337 0.0
H980 H 0.26471 0.63565 0.70447 0.0
C981 C 0.26541 0.54569 0.64144 0.0
H982 H 0.26489 0.51665 0.70333 0.0
C983 C 0.26554 0.61408 0.64215 0.0
C984 C 0.26421 0.64768 0.6648 0.0
H985 H 0.26469 0.52145 0.6237 0.0
H986 H 0.26495 0.64045 0.62485 0.0
C987 C 0.26542 0.61141 0.68673 0.0
C988 C 0.0158 0.36345 0.39186 0.0
C989 C 0.01442 0.39975 0.41377 0.0
H990 H 0.01545 0.26867 0.37527 0.0
C991 C 0.01562 0.36617 0.43644 0.0
H992 H 0.0152 0.38767 0.37411 0.0
C993 C 0.01553 0.29778 0.43716 0.0
C994 C 0.01445 0.26149 0.41523 0.0
H995 H 0.0149 0.39257 0.45373 0.0
H996 H 0.0147 0.27356 0.4549 0.0
C997 C 0.01592 0.29506 0.39258 0.0
C998 C 0.71578 0.2954 0.43563 0.0
C999 C 0.71723 0.26181 0.41298 0.0
H1000 H 0.71651 0.38802 0.45408 0.0
C1001 C 0.7161 0.29809 0.39104 0.0
H1002 H 0.71629 0.26902 0.45293 0.0
C1003 C 0.71599 0.36648 0.39176 0.0
C1004 C 0.71722 0.40007 0.41442 0.0
H1005 H 0.71691 0.27385 0.37331 0.0
H1006 H 0.71668 0.39286 0.37446 0.0
C1007 C 0.71588 0.36379 0.43634 0.0
C1008 C 0.46594 0.04659 0.68699 0.0
C1009 C 0.4671 0.01029 0.66507 0.0
H1010 H 0.46646 0.14137 0.70357 0.0
C1011 C 0.46569 0.04387 0.64241 0.0
H1012 H 0.46671 0.02237 0.70474 0.0
C1013 C 0.46577 0.11226 0.64169 0.0
C1014 C 0.46706 0.14856 0.66361 0.0
H1015 H 0.46623 0.01748 0.62511 0.0
H1016 H 0.46643 0.13648 0.62395 0.0
C1017 C 0.46581 0.11498 0.68627 0.0
C1018 C 0.76556 0.11304 0.68654 0.0
C1019 C 0.76427 0.14931 0.66462 0.0
H1020 H 0.76513 0.01827 0.70314 0.0
C1021 C 0.76556 0.11572 0.64196 0.0
H1022 H 0.76488 0.13727 0.70429 0.0
C1023 C 0.76548 0.04734 0.64125 0.0
C1024 C 0.7643 0.01106 0.66318 0.0
H1025 H 0.76492 0.1421 0.62466 0.0
H1026 H 0.76473 0.0231 0.62351 0.0
C1027 C 0.76569 0.04465 0.68583 0.0
C1028 C 0.51497 0.79749 0.43719 0.0
C1029 C 0.51384 0.7612 0.41526 0.0
H1030 H 0.51439 0.89226 0.45377 0.0
C1031 C 0.51528 0.79478 0.39261 0.0
H1032 H 0.51417 0.77326 0.45493 0.0
C1033 C 0.51517 0.86317 0.39189 0.0
C1034 C 0.51384 0.89946 0.41381 0.0
H1035 H 0.51477 0.76839 0.3753 0.0
H1036 H 0.51454 0.88739 0.37415 0.0
C1037 C 0.51507 0.86588 0.43647 0.0
C1038 C 0.21513 0.7946 0.43562 0.0
C1039 C 0.2166 0.761 0.41298 0.0
H1040 H 0.21586 0.88721 0.45408 0.0
C1041 C 0.21551 0.79728 0.39104 0.0
H1042 H 0.21562 0.76822 0.45293 0.0
C1043 C 0.21541 0.86567 0.39176 0.0
C1044 C 0.21662 0.89926 0.41442 0.0
H1045 H 0.21634 0.77305 0.37331 0.0
H1046 H 0.21612 0.89206 0.37446 0.0
C1047 C 0.21525 0.86299 0.43634 0.0
C1048 C 0.46578 0.5469 0.18702 0.0
C1049 C 0.46693 0.51062 0.16509 0.0
H1050 H 0.46637 0.64167 0.20361 0.0
C1051 C 0.46554 0.54421 0.14244 0.0
H1052 H 0.46654 0.52267 0.20476 0.0
C1053 C 0.46568 0.6126 0.14173 0.0
C1054 C 0.46699 0.64887 0.16366 0.0
H1055 H 0.46607 0.51783 0.12514 0.0
H1056 H 0.46635 0.63682 0.12399 0.0
C1057 C 0.4657 0.61529 0.18631 0.0
C1058 C 0.7654 0.54664 0.14143 0.0
C1059 C 0.76417 0.51035 0.16335 0.0
H1060 H 0.76494 0.64141 0.12484 0.0
C1061 C 0.76554 0.54394 0.18601 0.0
H1062 H 0.76466 0.52241 0.12368 0.0
C1063 C 0.76546 0.61233 0.18672 0.0
C1064 C 0.76424 0.64862 0.1648 0.0
H1065 H 0.76494 0.51755 0.20331 0.0
H1066 H 0.76477 0.63655 0.20447 0.0
C1067 C 0.76554 0.61502 0.14214 0.0
C1068 C 0.51591 0.29274 0.89209 0.0
C1069 C 0.51464 0.25916 0.91475 0.0
H1070 H 0.51504 0.38536 0.87364 0.0
C1071 C 0.51596 0.29544 0.93668 0.0
H1072 H 0.51524 0.26635 0.87479 0.0
C1073 C 0.51608 0.36383 0.93596 0.0
C1074 C 0.51468 0.39742 0.91331 0.0
H1075 H 0.5153 0.27122 0.95442 0.0
H1076 H 0.51556 0.39021 0.95326 0.0
C1077 C 0.51582 0.36113 0.89138 0.0
C1078 C 0.21616 0.29544 0.89149 0.0
C1079 C 0.21743 0.25915 0.91342 0.0
H1080 H 0.21663 0.39021 0.87491 0.0
C1081 C 0.21614 0.29273 0.93608 0.0
H1082 H 0.21684 0.27121 0.87375 0.0
C1083 C 0.21626 0.36112 0.93679 0.0
C1084 C 0.21745 0.39741 0.91487 0.0
H1085 H 0.21677 0.26635 0.95338 0.0
H1086 H 0.21701 0.38535 0.95453 0.0
C1087 C 0.21606 0.36382 0.89221 0.0
loop_
_geom_bond_atom_site_label_1
_geom_bond_atom_site_label_2
_geom_bond_distance
_geom_bond_site_symmetry_2
_ccdc_geom_bond_type
Zn0 O3 2.031 . S
Zn0 O5 2.049 . S
Zn0 O10 2.067 . S
Zn1 O2 1.962 1_455 S
Zn1 O4 1.986 1_455 S
Zn1 O6 1.996 1_455 S
Zn1 O9 1.943 . S
O2 Zn1 1.962 1_655 S
O2 C7 1.254 . S
O3 Zn0 2.031 . S
O3 C7 1.269 1_455 S
O4 Zn1 1.986 1_655 S
O4 C11 1.262 1_655 S
O5 Zn0 2.049 . S
O5 C13 1.260 1_455 S
O6 Zn1 1.996 1_655 S
O6 C13 1.257 . S
C7 O2 1.254 . S
C7 O3 1.269 1_655 S
C8 O9 1.249 . S
C8 O10 1.270 . S
O9 Zn1 1.943 . S
O9 C8 1.249 . S
O10 Zn0 2.067 . S
O10 C8 1.270 . S
C11 O4 1.262 1_455 S
C11 O12 1.232 . S
O12 C11 1.232 . S
C13 O5 1.260 1_655 S
C13 O6 1.257 . S
Zn14 O17 2.031 . S
Zn14 O19 2.049 . S
Zn14 O24 2.067 . S
Zn15 O16 1.962 . S
Zn15 O18 1.986 . S
Zn15 O20 1.996 . S
Zn15 O23 1.943 . S
O16 Zn15 1.962 . S
O16 C21 1.254 . S
O17 Zn14 2.031 . S
O17 C21 1.269 . S
O18 Zn15 1.986 . S
O18 C25 1.262 . S
O19 Zn14 2.049 . S
O19 C27 1.260 . S
O20 Zn15 1.996 . S
O20 C27 1.257 . S
C21 O16 1.254 . S
C21 O17 1.269 . S
C22 O23 1.249 . S
C22 O24 1.270 . S
O23 Zn15 1.943 . S
O23 C22 1.249 . S
O24 Zn14 2.067 . S
O24 C22 1.270 . S
C25 O18 1.262 . S
C25 O26 1.232 . S
O26 C25 1.232 . S
C27 O19 1.260 . S
C27 O20 1.257 . S
Zn28 O31 2.031 . S
Zn28 O33 2.049 . S
Zn28 O38 2.067 . S
Zn29 O30 1.962 1_455 S
Zn29 O32 1.986 1_455 S
Zn29 O34 1.996 1_455 S
Zn29 O37 1.943 . S
O30 Zn29 1.962 1_655 S
O30 C35 1.254 . S
O31 Zn28 2.031 . S
O31 C35 1.269 1_455 S
O32 Zn29 1.986 1_655 S
O32 C39 1.262 1_655 S
O33 Zn28 2.049 . S
O33 C41 1.260 1_455 S
O34 Zn29 1.996 1_655 S
O34 C41 1.257 . S
C35 O30 1.254 . S
C35 O31 1.269 1_655 S
C36 O37 1.249 . S
C36 O38 1.270 . S
O37 Zn29 1.943 . S
O37 C36 1.249 . S
O38 Zn28 2.067 . S
O38 C36 1.270 . S
C39 O32 1.262 1_455 S
C39 O40 1.232 . S
O40 C39 1.232 . S
C41 O33 1.260 1_655 S
C41 O34 1.257 . S
Zn42 O45 2.031 . S
Zn42 O47 2.049 . S
Zn42 O52 2.067 . S
Zn43 O44 1.962 . S
Zn43 O46 1.986 . S
Zn43 O48 1.996 . S
Zn43 O51 1.943 . S
O44 Zn43 1.962 . S
O44 C49 1.254 . S
O45 Zn42 2.031 . S
O45 C49 1.269 . S
O46 Zn43 1.986 . S
O46 C53 1.262 . S
O47 Zn42 2.049 . S
O47 C55 1.260 . S
O48 Zn43 1.996 . S
O48 C55 1.257 . S
C49 O44 1.254 . S
C49 O45 1.269 . S
C50 O51 1.249 . S
C50 O52 1.270 . S
O51 Zn43 1.943 . S
O51 C50 1.249 . S
O52 Zn42 2.067 . S
O52 C50 1.270 . S
C53 O46 1.262 . S
C53 O54 1.232 . S
O54 C53 1.232 . S
C55 O47 1.260 . S
C55 O48 1.257 . S
Zn56 O59 2.031 . S
Zn56 O61 2.049 . S
Zn56 O66 2.067 . S
Zn57 O58 1.962 1_655 S
Zn57 O60 1.986 1_655 S
Zn57 O62 1.996 1_655 S
Zn57 O65 1.943 . S
O58 Zn57 1.962 1_455 S
O58 C63 1.254 . S
O59 Zn56 2.031 . S
O59 C63 1.269 1_655 S
O60 Zn57 1.986 1_455 S
O60 C67 1.262 1_455 S
O61 Zn56 2.049 . S
O61 C69 1.260 1_655 S
O62 Zn57 1.996 1_455 S
O62 C69 1.257 . S
C63 O58 1.254 . S
C63 O59 1.269 1_455 S
C64 O65 1.249 . S
C64 O66 1.270 . S
O65 Zn57 1.943 . S
O65 C64 1.249 . S
O66 Zn56 2.067 . S
O66 C64 1.270 . S
C67 O60 1.262 1_655 S
C67 O68 1.232 . S
O68 C67 1.232 . S
C69 O61 1.260 1_455 S
C69 O62 1.257 . S
Zn70 O73 2.031 . S
Zn70 O75 2.049 . S
Zn70 O80 2.067 . S
Zn71 O72 1.962 . S
Zn71 O74 1.986 . S
Zn71 O76 1.996 . S
Zn71 O79 1.943 . S
O72 Zn71 1.962 . S
O72 C77 1.254 . S
O73 Zn70 2.031 . S
O73 C77 1.269 . S
O74 Zn71 1.986 . S
O74 C81 1.262 . S
O75 Zn70 2.049 . S
O75 C83 1.260 . S
O76 Zn71 1.996 . S
O76 C83 1.257 . S
C77 O72 1.254 . S
C77 O73 1.269 . S
C78 O79 1.249 . S
C78 O80 1.270 . S
O79 Zn71 1.943 . S
O79 C78 1.249 . S
O80 Zn70 2.067 . S
O80 C78 1.270 . S
C81 O74 1.262 . S
C81 O82 1.232 . S
O82 C81 1.232 . S
C83 O75 1.260 . S
C83 O76 1.257 . S
Zn84 O87 2.031 . S
Zn84 O89 2.049 . S
Zn84 O94 2.067 . S
Zn85 O86 1.962 1_655 S
Zn85 O88 1.986 1_655 S
Zn85 O90 1.996 1_655 S
Zn85 O93 1.943 . S
O86 Zn85 1.962 1_455 S
O86 C91 1.254 . S
O87 Zn84 2.031 . S
O87 C91 1.269 1_655 S
O88 Zn85 1.986 1_455 S
O88 C95 1.262 1_455 S
O89 Zn84 2.049 . S
O89 C97 1.260 1_655 S
O90 Zn85 1.996 1_455 S
O90 C97 1.257 . S
C91 O86 1.254 . S
C91 O87 1.269 1_455 S
C92 O93 1.249 . S
C92 O94 1.270 . S
O93 Zn85 1.943 . S
O93 C92 1.249 . S
O94 Zn84 2.067 . S
O94 C92 1.270 . S
C95 O88 1.262 1_655 S
C95 O96 1.232 . S
O96 C95 1.232 . S
C97 O89 1.260 1_455 S
C97 O90 1.257 . S
Zn98 O101 2.031 . S
Zn98 O103 2.049 . S
Zn98 O108 2.067 . S
Zn99 O100 1.962 . S
Zn99 O102 1.986 . S
Zn99 O104 1.996 . S
Zn99 O107 1.943 . S
O100 Zn99 1.962 . S
O100 C105 1.254 . S
O101 Zn98 2.031 . S
O101 C105 1.269 . S
O102 Zn99 1.986 . S
O102 C109 1.262 . S
O103 Zn98 2.049 . S
O103 C111 1.260 . S
O104 Zn99 1.996 . S
O104 C111 1.257 . S
C105 O100 1.254 . S
C105 O101 1.269 . S
C106 O107 1.249 . S
C106 O108 1.270 . S
O107 Zn99 1.943 . S
O107 C106 1.249 . S
O108 Zn98 2.067 . S
O108 C106 1.270 . S
C109 O102 1.262 . S
C109 O110 1.232 . S
O110 C109 1.232 . S
C111 O103 1.260 . S
C111 O104 1.257 . S
Zn112 O115 2.031 . S
Zn112 O117 2.049 . S
Zn112 O122 2.067 . S
Zn113 O114 1.962 1_455 S
Zn113 O116 1.986 1_455 S
Zn113 O118 1.996 1_455 S
Zn113 O121 1.943 . S
O114 Zn113 1.962 1_655 S
O114 C119 1.254 . S
O115 Zn112 2.031 . S
O115 C119 1.269 1_455 S
O116 Zn113 1.986 1_655 S
O116 C123 1.262 1_655 S
O117 Zn112 2.049 . S
O117 C125 1.260 1_465 S
O118 Zn113 1.996 1_655 S
O118 C125 1.257 1_565 S
C119 O114 1.254 . S
C119 O115 1.269 1_655 S
C120 O121 1.249 . S
C120 O122 1.270 . S
O121 Zn113 1.943 . S
O121 C120 1.249 . S
O122 Zn112 2.067 . S
O122 C120 1.270 . S
C123 O116 1.262 1_455 S
C123 O124 1.232 . S
O124 C123 1.232 . S
C125 O117 1.260 1_645 S
C125 O118 1.257 1_545 S
Zn126 O129 2.031 . S
Zn126 O131 2.049 . S
Zn126 O136 2.067 . S
Zn127 O128 1.962 . S
Zn127 O130 1.986 . S
Zn127 O132 1.996 . S
Zn127 O135 1.943 . S
O128 Zn127 1.962 . S
O128 C133 1.254 . S
O129 Zn126 2.031 . S
O129 C133 1.269 . S
O130 Zn127 1.986 . S
O130 C137 1.262 . S
O131 Zn126 2.049 . S
O131 C139 1.260 . S
O132 Zn127 1.996 . S
O132 C139 1.257 . S
C133 O128 1.254 . S
C133 O129 1.269 . S
C134 O135 1.249 . S
C134 O136 1.270 . S
O135 Zn127 1.943 . S
O135 C134 1.249 . S
O136 Zn126 2.067 . S
O136 C134 1.270 . S
C137 O130 1.262 . S
C137 O138 1.232 . S
O138 C137 1.232 . S
C139 O131 1.260 . S
C139 O132 1.257 . S
Zn140 O143 2.031 . S
Zn140 O145 2.049 . S
Zn140 O150 2.067 . S
Zn141 O142 1.962 1_455 S
Zn141 O144 1.986 1_455 S
Zn141 O146 1.996 1_455 S
Zn141 O149 1.943 . S
O142 Zn141 1.962 1_655 S
O142 C147 1.254 . S
O143 Zn140 2.031 . S
O143 C147 1.269 1_455 S
O144 Zn141 1.986 1_655 S
O144 C151 1.262 1_655 S
O145 Zn140 2.049 . S
O145 C153 1.260 1_455 S
O146 Zn141 1.996 1_655 S
O146 C153 1.257 . S
C147 O142 1.254 . S
C147 O143 1.269 1_655 S
C148 O149 1.249 . S
C148 O150 1.270 . S
O149 Zn141 1.943 . S
O149 C148 1.249 . S
O150 Zn140 2.067 . S
O150 C148 1.270 . S
C151 O144 1.262 1_455 S
C151 O152 1.232 . S
O152 C151 1.232 . S
C153 O145 1.260 1_655 S
C153 O146 1.257 . S
Zn154 O157 2.031 . S
Zn154 O159 2.049 . S
Zn154 O164 2.067 . S
Zn155 O156 1.962 . S
Zn155 O158 1.986 . S
Zn155 O160 1.996 . S
Zn155 O163 1.943 . S
O156 Zn155 1.962 . S
O156 C161 1.254 . S
O157 Zn154 2.031 . S
O157 C161 1.269 . S
O158 Zn155 1.986 . S
O158 C165 1.262 . S
O159 Zn154 2.049 . S
O159 C167 1.260 1_565 S
O160 Zn155 1.996 . S
O160 C167 1.257 1_565 S
C161 O156 1.254 . S
C161 O157 1.269 . S
C162 O163 1.249 . S
C162 O164 1.270 . S
O163 Zn155 1.943 . S
O163 C162 1.249 . S
O164 Zn154 2.067 . S
O164 C162 1.270 . S
C165 O158 1.262 . S
C165 O166 1.232 . S
O166 C165 1.232 . S
C167 O159 1.260 1_545 S
C167 O160 1.257 1_545 S
Zn168 O171 2.031 . S
Zn168 O173 2.049 . S
Zn168 O178 2.067 . S
Zn169 O170 1.962 1_655 S
Zn169 O172 1.986 1_655 S
Zn169 O174 1.996 1_655 S
Zn169 O177 1.943 . S
O170 Zn169 1.962 1_455 S
O170 C175 1.254 . S
O171 Zn168 2.031 . S
O171 C175 1.269 1_655 S
O172 Zn169 1.986 1_455 S
O172 C179 1.262 1_455 S
O173 Zn168 2.049 . S
O173 C181 1.260 1_645 S
O174 Zn169 1.996 1_455 S
O174 C181 1.257 1_545 S
C175 O170 1.254 . S
C175 O171 1.269 1_455 S
C176 O177 1.249 . S
C176 O178 1.270 . S
O177 Zn169 1.943 . S
O177 C176 1.249 . S
O178 Zn168 2.067 . S
O178 C176 1.270 . S
C179 O172 1.262 1_655 S
C179 O180 1.232 . S
O180 C179 1.232 . S
C181 O173 1.260 1_465 S
C181 O174 1.257 1_565 S
Zn182 O185 2.031 . S
Zn182 O187 2.049 . S
Zn182 O192 2.067 . S
Zn183 O184 1.962 . S
Zn183 O186 1.986 . S
Zn183 O188 1.996 . S
Zn183 O191 1.943 . S
O184 Zn183 1.962 . S
O184 C189 1.254 . S
O185 Zn182 2.031 . S
O185 C189 1.269 . S
O186 Zn183 1.986 . S
O186 C193 1.262 . S
O187 Zn182 2.049 . S
O187 C195 1.260 . S
O188 Zn183 1.996 . S
O188 C195 1.257 . S
C189 O184 1.254 . S
C189 O185 1.269 . S
C190 O191 1.249 . S
C190 O192 1.270 . S
O191 Zn183 1.943 . S
O191 C190 1.249 . S
O192 Zn182 2.067 . S
O192 C190 1.270 . S
C193 O186 1.262 . S
C193 O194 1.232 . S
O194 C193 1.232 . S
C195 O187 1.260 . S
C195 O188 1.257 . S
Zn196 O199 2.031 . S
Zn196 O201 2.049 . S
Zn196 O206 2.067 . S
Zn197 O198 1.962 1_655 S
Zn197 O200 1.986 1_655 S
Zn197 O202 1.996 1_655 S
Zn197 O205 1.943 . S
O198 Zn197 1.962 1_455 S
O198 C203 1.254 . S
O199 Zn196 2.031 . S
O199 C203 1.269 1_655 S
O200 Zn197 1.986 1_455 S
O200 C207 1.262 1_455 S
O201 Zn196 2.049 . S
O201 C209 1.260 1_655 S
O202 Zn197 1.996 1_455 S
O202 C209 1.257 . S
C203 O198 1.254 . S
C203 O199 1.269 1_455 S
C204 O205 1.249 . S
C204 O206 1.270 . S
O205 Zn197 1.943 . S
O205 C204 1.249 . S
O206 Zn196 2.067 . S
O206 C204 1.270 . S
C207 O200 1.262 1_655 S
C207 O208 1.232 . S
O208 C207 1.232 . S
C209 O201 1.260 1_455 S
C209 O202 1.257 . S
Zn210 O213 2.031 . S
Zn210 O215 2.049 . S
Zn210 O220 2.067 . S
Zn211 O212 1.962 . S
Zn211 O214 1.986 . S
Zn211 O216 1.996 . S
Zn211 O219 1.943 . S
O212 Zn211 1.962 . S
O212 C217 1.254 . S
O213 Zn210 2.031 . S
O213 C217 1.269 . S
O214 Zn211 1.986 . S
O214 C221 1.262 . S
O215 Zn210 2.049 . S
O215 C223 1.260 1_545 S
O216 Zn211 1.996 . S
O216 C223 1.257 1_545 S
C217 O212 1.254 . S
C217 O213 1.269 . S
C218 O219 1.249 . S
C218 O220 1.270 . S
O219 Zn211 1.943 . S
O219 C218 1.249 . S
O220 Zn210 2.067 . S
O220 C218 1.270 . S
C221 O214 1.262 . S
C221 O222 1.232 . S
O222 C221 1.232 . S
C223 O215 1.260 1_565 S
C223 O216 1.257 1_565 S
Zn224 O227 2.031 . S
Zn224 O229 2.049 . S
Zn224 O234 2.067 . S
Zn225 O226 1.962 . S
Zn225 O228 1.986 . S
Zn225 O230 1.996 . S
Zn225 O233 1.943 . S
O226 Zn225 1.962 . S
O226 C231 1.254 . S
O227 Zn224 2.031 . S
O227 C231 1.269 . S
O228 Zn225 1.986 . S
O228 C235 1.262 . S
O229 Zn224 2.049 . S
O229 C237 1.260 . S
O230 Zn225 1.996 . S
O230 C237 1.257 . S
C231 O226 1.254 . S
C231 O227 1.269 . S
C232 O233 1.249 . S
C232 O234 1.270 . S
O233 Zn225 1.943 . S
O233 C232 1.249 . S
O234 Zn224 2.067 . S
O234 C232 1.270 . S
C235 O228 1.262 . S
C235 O236 1.232 . S
O236 C235 1.232 . S
C237 O229 1.260 . S
C237 O230 1.257 . S
Zn238 O241 2.031 . S
Zn238 O243 2.049 . S
Zn238 O248 2.067 . S
Zn239 O240 1.962 . S
Zn239 O242 1.986 . S
Zn239 O244 1.996 . S
Zn239 O247 1.943 . S
O240 Zn239 1.962 . S
O240 C245 1.254 . S
O241 Zn238 2.031 . S
O241 C245 1.269 . S
O242 Zn239 1.986 . S
O242 C249 1.262 . S
O243 Zn238 2.049 . S
O243 C251 1.260 . S
O244 Zn239 1.996 . S
O244 C251 1.257 . S
C245 O240 1.254 . S
C245 O241 1.269 . S
C246 O247 1.249 . S
C246 O248 1.270 . S
O247 Zn239 1.943 . S
O247 C246 1.249 . S
O248 Zn238 2.067 . S
O248 C246 1.270 . S
C249 O242 1.262 . S
C249 O250 1.232 . S
O250 C249 1.232 . S
C251 O243 1.260 . S
C251 O244 1.257 . S
Zn252 O255 2.031 . S
Zn252 O257 2.049 . S
Zn252 O262 2.067 . S
Zn253 O254 1.962 . S
Zn253 O256 1.986 . S
Zn253 O258 1.996 . S
Zn253 O261 1.943 . S
O254 Zn253 1.962 . S
O254 C259 1.254 . S
O255 Zn252 2.031 . S
O255 C259 1.269 . S
O256 Zn253 1.986 . S
O256 C263 1.262 . S
O257 Zn252 2.049 . S
O257 C265 1.260 . S
O258 Zn253 1.996 . S
O258 C265 1.257 . S
C259 O254 1.254 . S
C259 O255 1.269 . S
C260 O261 1.249 . S
C260 O262 1.270 . S
O261 Zn253 1.943 . S
O261 C260 1.249 . S
O262 Zn252 2.067 . S
O262 C260 1.270 . S
C263 O256 1.262 . S
C263 O264 1.232 . S
O264 C263 1.232 . S
C265 O257 1.260 . S
C265 O258 1.257 . S
Zn266 O269 2.031 . S
Zn266 O271 2.049 . S
Zn266 O276 2.067 . S
Zn267 O268 1.962 . S
Zn267 O270 1.986 . S
Zn267 O272 1.996 . S
Zn267 O275 1.943 . S
O268 Zn267 1.962 . S
O268 C273 1.254 . S
O269 Zn266 2.031 . S
O269 C273 1.269 . S
O270 Zn267 1.986 . S
O270 C277 1.262 . S
O271 Zn266 2.049 . S
O271 C279 1.260 . S
O272 Zn267 1.996 . S
O272 C279 1.257 . S
C273 O268 1.254 . S
C273 O269 1.269 . S
C274 O275 1.249 . S
C274 O276 1.270 . S
O275 Zn267 1.943 . S
O275 C274 1.249 . S
O276 Zn266 2.067 . S
O276 C274 1.270 . S
C277 O270 1.262 . S
C277 O278 1.232 . S
O278 C277 1.232 . S
C279 O271 1.260 . S
C279 O272 1.257 . S
Zn280 O283 2.031 . S
Zn280 O285 2.049 . S
Zn280 O290 2.067 . S
Zn281 O282 1.962 . S
Zn281 O284 1.986 . S
Zn281 O286 1.996 . S
Zn281 O289 1.943 . S
O282 Zn281 1.962 . S
O282 C287 1.254 . S
O283 Zn280 2.031 . S
O283 C287 1.269 . S
O284 Zn281 1.986 . S
O284 C291 1.262 . S
O285 Zn280 2.049 . S
O285 C293 1.260 . S
O286 Zn281 1.996 . S
O286 C293 1.257 . S
C287 O282 1.254 . S
C287 O283 1.269 . S
C288 O289 1.249 . S
C288 O290 1.270 . S
O289 Zn281 1.943 . S
O289 C288 1.249 . S
O290 Zn280 2.067 . S
O290 C288 1.270 . S
C291 O284 1.262 . S
C291 O292 1.232 . S
O292 C291 1.232 . S
C293 O285 1.260 . S
C293 O286 1.257 . S
Zn294 O297 2.031 . S
Zn294 O299 2.049 . S
Zn294 O304 2.067 . S
Zn295 O296 1.962 . S
Zn295 O298 1.986 . S
Zn295 O300 1.996 . S
Zn295 O303 1.943 . S
O296 Zn295 1.962 . S
O296 C301 1.254 . S
O297 Zn294 2.031 . S
O297 C301 1.269 . S
O298 Zn295 1.986 . S
O298 C305 1.262 . S
O299 Zn294 2.049 . S
O299 C307 1.260 . S
O300 Zn295 1.996 . S
O300 C307 1.257 . S
C301 O296 1.254 . S
C301 O297 1.269 . S
C302 O303 1.249 . S
C302 O304 1.270 . S
O303 Zn295 1.943 . S
O303 C302 1.249 . S
O304 Zn294 2.067 . S
O304 C302 1.270 . S
C305 O298 1.262 . S
C305 O306 1.232 . S
O306 C305 1.232 . S
C307 O299 1.260 . S
C307 O300 1.257 . S
Zn308 O311 2.031 . S
Zn308 O313 2.049 . S
Zn308 O318 2.067 . S
Zn309 O310 1.962 . S
Zn309 O312 1.986 . S
Zn309 O314 1.996 . S
Zn309 O317 1.943 . S
O310 Zn309 1.962 . S
O310 C315 1.254 . S
O311 Zn308 2.031 . S
O311 C315 1.269 . S
O312 Zn309 1.986 . S
O312 C319 1.262 . S
O313 Zn308 2.049 . S
O313 C321 1.260 . S
O314 Zn309 1.996 . S
O314 C321 1.257 . S
C315 O310 1.254 . S
C315 O311 1.269 . S
C316 O317 1.249 . S
C316 O318 1.270 . S
O317 Zn309 1.943 . S
O317 C316 1.249 . S
O318 Zn308 2.067 . S
O318 C316 1.270 . S
C319 O312 1.262 . S
C319 O320 1.232 . S
O320 C319 1.232 . S
C321 O313 1.260 . S
C321 O314 1.257 . S
Zn322 O325 2.031 . S
Zn322 O327 2.049 . S
Zn322 O332 2.067 . S
Zn323 O324 1.962 . S
Zn323 O326 1.986 . S
Zn323 O328 1.996 . S
Zn323 O331 1.943 . S
O324 Zn323 1.962 . S
O324 C329 1.254 . S
O325 Zn322 2.031 . S
O325 C329 1.269 . S
O326 Zn323 1.986 . S
O326 C333 1.262 . S
O327 Zn322 2.049 . S
O327 C335 1.260 . S
O328 Zn323 1.996 . S
O328 C335 1.257 . S
C329 O324 1.254 . S
C329 O325 1.269 . S
C330 O331 1.249 . S
C330 O332 1.270 . S
O331 Zn323 1.943 . S
O331 C330 1.249 . S
O332 Zn322 2.067 . S
O332 C330 1.270 . S
C333 O326 1.262 . S
C333 O334 1.232 . S
O334 C333 1.232 . S
C335 O327 1.260 . S
C335 O328 1.257 . S
Zn336 O339 2.031 . S
Zn336 O341 2.049 . S
Zn336 O346 2.067 . S
Zn337 O338 1.962 . S
Zn337 O340 1.986 . S
Zn337 O342 1.996 . S
Zn337 O345 1.943 . S
O338 Zn337 1.962 . S
O338 C343 1.254 . S
O339 Zn336 2.031 . S
O339 C343 1.269 . S
O340 Zn337 1.986 . S
O340 C347 1.262 . S
O341 Zn336 2.049 . S
O341 C349 1.260 1_565 S
O342 Zn337 1.996 . S
O342 C349 1.257 1_565 S
C343 O338 1.254 . S
C343 O339 1.269 . S
C344 O345 1.249 . S
C344 O346 1.270 . S
O345 Zn337 1.943 . S
O345 C344 1.249 . S
O346 Zn336 2.067 . S
O346 C344 1.270 . S
C347 O340 1.262 . S
C347 O348 1.232 . S
O348 C347 1.232 . S
C349 O341 1.260 1_545 S
C349 O342 1.257 1_545 S
Zn350 O353 2.031 . S
Zn350 O355 2.049 . S
Zn350 O360 2.067 . S
Zn351 O352 1.962 . S
Zn351 O354 1.986 . S
Zn351 O356 1.996 . S
Zn351 O359 1.943 . S
O352 Zn351 1.962 . S
O352 C357 1.254 . S
O353 Zn350 2.031 . S
O353 C357 1.269 . S
O354 Zn351 1.986 . S
O354 C361 1.262 . S
O355 Zn350 2.049 . S
O355 C363 1.260 . S
O356 Zn351 1.996 . S
O356 C363 1.257 . S
C357 O352 1.254 . S
C357 O353 1.269 . S
C358 O359 1.249 . S
C358 O360 1.270 . S
O359 Zn351 1.943 . S
O359 C358 1.249 . S
O360 Zn350 2.067 . S
O360 C358 1.270 . S
C361 O354 1.262 . S
C361 O362 1.232 . S
O362 C361 1.232 . S
C363 O355 1.260 . S
C363 O356 1.257 . S
Zn364 O367 2.031 . S
Zn364 O369 2.049 . S
Zn364 O374 2.067 . S
Zn365 O366 1.962 . S
Zn365 O368 1.986 . S
Zn365 O370 1.996 . S
Zn365 O373 1.943 . S
O366 Zn365 1.962 . S
O366 C371 1.254 . S
O367 Zn364 2.031 . S
O367 C371 1.269 . S
O368 Zn365 1.986 . S
O368 C375 1.262 . S
O369 Zn364 2.049 . S
O369 C377 1.260 . S
O370 Zn365 1.996 . S
O370 C377 1.257 . S
C371 O366 1.254 . S
C371 O367 1.269 . S
C372 O373 1.249 . S
C372 O374 1.270 . S
O373 Zn365 1.943 . S
O373 C372 1.249 . S
O374 Zn364 2.067 . S
O374 C372 1.270 . S
C375 O368 1.262 . S
C375 O376 1.232 . S
O376 C375 1.232 . S
C377 O369 1.260 . S
C377 O370 1.257 . S
Zn378 O381 2.031 . S
Zn378 O383 2.049 . S
Zn378 O388 2.067 . S
Zn379 O380 1.962 . S
Zn379 O382 1.986 . S
Zn379 O384 1.996 . S
Zn379 O387 1.943 . S
O380 Zn379 1.962 . S
O380 C385 1.254 . S
O381 Zn378 2.031 . S
O381 C385 1.269 . S
O382 Zn379 1.986 . S
O382 C389 1.262 . S
O383 Zn378 2.049 . S
O383 C391 1.260 1_565 S
O384 Zn379 1.996 . S
O384 C391 1.257 1_565 S
C385 O380 1.254 . S
C385 O381 1.269 . S
C386 O387 1.249 . S
C386 O388 1.270 . S
O387 Zn379 1.943 . S
O387 C386 1.249 . S
O388 Zn378 2.067 . S
O388 C386 1.270 . S
C389 O382 1.262 . S
C389 O390 1.232 . S
O390 C389 1.232 . S
C391 O383 1.260 1_545 S
C391 O384 1.257 1_545 S
Zn392 O395 2.031 . S
Zn392 O397 2.049 . S
Zn392 O402 2.067 . S
Zn393 O394 1.962 . S
Zn393 O396 1.986 . S
Zn393 O398 1.996 . S
Zn393 O401 1.943 . S
O394 Zn393 1.962 . S
O394 C399 1.254 . S
O395 Zn392 2.031 . S
O395 C399 1.269 . S
O396 Zn393 1.986 . S
O396 C403 1.262 . S
O397 Zn392 2.049 . S
O397 C405 1.260 1_545 S
O398 Zn393 1.996 . S
O398 C405 1.257 1_545 S
C399 O394 1.254 . S
C399 O395 1.269 . S
C400 O401 1.249 . S
C400 O402 1.270 . S
O401 Zn393 1.943 . S
O401 C400 1.249 . S
O402 Zn392 2.067 . S
O402 C400 1.270 . S
C403 O396 1.262 . S
C403 O404 1.232 . S
O404 C403 1.232 . S
C405 O397 1.260 1_565 S
C405 O398 1.257 1_565 S
Zn406 O409 2.031 . S
Zn406 O411 2.049 . S
Zn406 O416 2.067 . S
Zn407 O408 1.962 . S
Zn407 O410 1.986 . S
Zn407 O412 1.996 . S
Zn407 O415 1.943 . S
O408 Zn407 1.962 . S
O408 C413 1.254 . S
O409 Zn406 2.031 . S
O409 C413 1.269 . S
O410 Zn407 1.986 . S
O410 C417 1.262 . S
O411 Zn406 2.049 . S
O411 C419 1.260 . S
O412 Zn407 1.996 . S
O412 C419 1.257 . S
C413 O408 1.254 . S
C413 O409 1.269 . S
C414 O415 1.249 . S
C414 O416 1.270 . S
O415 Zn407 1.943 . S
O415 C414 1.249 . S
O416 Zn406 2.067 . S
O416 C414 1.270 . S
C417 O410 1.262 . S
C417 O418 1.232 . S
O418 C417 1.232 . S
C419 O411 1.260 . S
C419 O412 1.257 . S
Zn420 O423 2.031 . S
Zn420 O425 2.049 . S
Zn420 O430 2.067 . S
Zn421 O422 1.962 . S
Zn421 O424 1.986 . S
Zn421 O426 1.996 . S
Zn421 O429 1.943 . S
O422 Zn421 1.962 . S
O422 C427 1.254 . S
O423 Zn420 2.031 . S
O423 C427 1.269 . S
O424 Zn421 1.986 . S
O424 C431 1.262 . S
O425 Zn420 2.049 . S
O425 C433 1.260 . S
O426 Zn421 1.996 . S
O426 C433 1.257 . S
C427 O422 1.254 . S
C427 O423 1.269 . S
C428 O429 1.249 . S
C428 O430 1.270 . S
O429 Zn421 1.943 . S
O429 C428 1.249 . S
O430 Zn420 2.067 . S
O430 C428 1.270 . S
C431 O424 1.262 . S
C431 O432 1.232 . S
O432 C431 1.232 . S
C433 O425 1.260 . S
C433 O426 1.257 . S
Zn434 O437 2.031 . S
Zn434 O439 2.049 . S
Zn434 O444 2.067 . S
Zn435 O436 1.962 . S
Zn435 O438 1.986 . S
Zn435 O440 1.996 . S
Zn435 O443 1.943 . S
O436 Zn435 1.962 . S
O436 C441 1.254 . S
O437 Zn434 2.031 . S
O437 C441 1.269 . S
O438 Zn435 1.986 . S
O438 C445 1.262 . S
O439 Zn434 2.049 . S
O439 C447 1.260 1_545 S
O440 Zn435 1.996 . S
O440 C447 1.257 1_545 S
C441 O436 1.254 . S
C441 O437 1.269 . S
C442 O443 1.249 . S
C442 O444 1.270 . S
O443 Zn435 1.943 . S
O443 C442 1.249 . S
O444 Zn434 2.067 . S
O444 C442 1.270 . S
C445 O438 1.262 . S
C445 O446 1.232 . S
O446 C445 1.232 . S
C447 O439 1.260 1_565 S
C447 O440 1.257 1_565 S
C448 C449 1.387 . S
C448 H452 0.950 . S
C448 C457 1.390 . S
C449 C448 1.387 . S
C449 C451 1.387 1_655 S
H450 C457 0.950 . S
C451 C449 1.387 1_455 S
C451 C453 1.390 . S
C451 H455 0.950 . S
H452 C448 0.950 . S
C453 C451 1.390 . S
C453 C454 1.387 1_455 S
C453 H456 0.950 . S
C454 C453 1.387 1_655 S
C454 C457 1.387 . S
H455 C451 0.950 . S
H456 C453 0.950 . S
C457 C448 1.390 . S
C457 H450 0.950 . S
C457 C454 1.387 . S
C458 C459 1.387 . S
C458 H462 0.950 . S
C458 C467 1.390 . S
C459 C458 1.387 . S
C459 C461 1.387 . S
H460 C467 0.950 . S
C461 C459 1.387 . S
C461 C463 1.390 . S
C461 H465 0.950 . S
H462 C458 0.950 . S
C463 C461 1.390 . S
C463 C464 1.387 . S
C463 H466 0.950 . S
C464 C463 1.387 . S
C464 C467 1.387 . S
H465 C461 0.950 . S
H466 C463 0.950 . S
C467 C458 1.390 . S
C467 H460 0.950 . S
C467 C464 1.387 . S
C468 C469 1.387 . S
C468 H472 0.950 . S
C468 C477 1.390 . S
C469 C468 1.387 . S
C469 C471 1.387 1_455 S
H470 C477 0.950 . S
C471 C469 1.387 1_655 S
C471 C473 1.390 . S
C471 H475 0.950 . S
H472 C468 0.950 . S
C473 C471 1.390 . S
C473 C474 1.387 1_655 S
C473 H476 0.950 . S
C474 C473 1.387 1_455 S
C474 C477 1.387 . S
H475 C471 0.950 . S
H476 C473 0.950 . S
C477 C468 1.390 . S
C477 H470 0.950 . S
C477 C474 1.387 . S
C478 C479 1.387 . S
C478 H482 0.950 . S
C478 C487 1.390 . S
C479 C478 1.387 . S
C479 C481 1.387 . S
H480 C487 0.950 . S
C481 C479 1.387 . S
C481 C483 1.390 . S
C481 H485 0.950 . S
H482 C478 0.950 . S
C483 C481 1.390 . S
C483 C484 1.387 . S
C483 H486 0.950 . S
C484 C483 1.387 . S
C484 C487 1.387 . S
H485 C481 0.950 . S
H486 C483 0.950 . S
C487 C478 1.390 . S
C487 H480 0.950 . S
C487 C484 1.387 . S
C488 C489 1.387 . S
C488 H492 0.950 . S
C488 C497 1.390 . S
C489 C488 1.387 . S
C489 C491 1.387 1_655 S
H490 C497 0.950 . S
C491 C489 1.387 1_455 S
C491 C493 1.390 . S
C491 H495 0.950 . S
H492 C488 0.950 . S
C493 C491 1.390 . S
C493 C494 1.387 1_455 S
C493 H496 0.950 . S
C494 C493 1.387 1_655 S
C494 C497 1.387 . S
H495 C491 0.950 . S
H496 C493 0.950 . S
C497 C488 1.390 . S
C497 H490 0.950 . S
C497 C494 1.387 . S
C498 C499 1.387 . S
C498 H502 0.950 . S
C498 C507 1.390 . S
C499 C498 1.387 . S
C499 C501 1.387 . S
H500 C507 0.950 . S
C501 C499 1.387 . S
C501 C503 1.390 . S
C501 H505 0.950 . S
H502 C498 0.950 . S
C503 C501 1.390 . S
C503 C504 1.387 . S
C503 H506 0.950 . S
C504 C503 1.387 . S
C504 C507 1.387 . S
H505 C501 0.950 . S
H506 C503 0.950 . S
C507 C498 1.390 . S
C507 H500 0.950 . S
C507 C504 1.387 . S
C508 C509 1.387 . S
C508 H512 0.950 . S
C508 C517 1.390 . S
C509 C508 1.387 . S
C509 C511 1.387 1_455 S
H510 C517 0.950 . S
C511 C509 1.387 1_655 S
C511 C513 1.390 . S
C511 H515 0.950 . S
H512 C508 0.950 . S
C513 C511 1.390 . S
C513 C514 1.387 1_655 S
C513 H516 0.950 . S
C514 C513 1.387 1_455 S
C514 C517 1.387 . S
H515 C511 0.950 . S
H516 C513 0.950 . S
C517 C508 1.390 . S
C517 H510 0.950 . S
C517 C514 1.387 . S
C518 C519 1.387 . S
C518 H522 0.950 . S
C518 C527 1.390 . S
C519 C518 1.387 . S
C519 C521 1.387 . S
H520 C527 0.950 . S
C521 C519 1.387 . S
C521 C523 1.390 . S
C521 H525 0.950 . S
H522 C518 0.950 . S
C523 C521 1.390 . S
C523 C524 1.387 . S
C523 H526 0.950 . S
C524 C523 1.387 . S
C524 C527 1.387 . S
H525 C521 0.950 . S
H526 C523 0.950 . S
C527 C518 1.390 . S
C527 H520 0.950 . S
C527 C524 1.387 . S
C528 C529 1.387 . S
C528 H532 0.950 . S
C528 C537 1.390 . S
C529 C528 1.387 . S
C529 C531 1.387 . S
H530 C537 0.950 . S
C531 C529 1.387 . S
C531 C533 1.390 . S
C531 H535 0.950 . S
H532 C528 0.950 . S
C533 C531 1.390 . S
C533 C534 1.387 . S
C533 H536 0.950 . S
C534 C533 1.387 . S
C534 C537 1.387 . S
H535 C531 0.950 . S
H536 C533 0.950 . S
C537 C528 1.390 . S
C537 H530 0.950 . S
C537 C534 1.387 . S
C538 C539 1.387 . S
C538 H542 0.950 . S
C538 C547 1.390 . S
C539 C538 1.387 . S
C539 C541 1.387 . S
H540 C547 0.950 . S
C541 C539 1.387 . S
C541 C543 1.390 . S
C541 H545 0.950 . S
H542 C538 0.950 . S
C543 C541 1.390 . S
C543 C544 1.387 . S
C543 H546 0.950 . S
C544 C543 1.387 . S
C544 C547 1.387 . S
H545 C541 0.950 . S
H546 C543 0.950 . S
C547 C538 1.390 . S
C547 H540 0.950 . S
C547 C544 1.387 . S
C548 C549 1.387 . S
C548 H552 0.950 . S
C548 C557 1.390 . S
C549 C548 1.387 . S
C549 C551 1.387 . S
H550 C557 0.950 . S
C551 C549 1.387 . S
C551 C553 1.390 . S
C551 H555 0.950 . S
H552 C548 0.950 . S
C553 C551 1.390 . S
C553 C554 1.387 . S
C553 H556 0.950 . S
C554 C553 1.387 . S
C554 C557 1.387 . S
H555 C551 0.950 . S
H556 C553 0.950 . S
C557 C548 1.390 . S
C557 H550 0.950 . S
C557 C554 1.387 . S
C558 C559 1.387 . S
C558 H562 0.950 . S
C558 C567 1.390 . S
C559 C558 1.387 . S
C559 C561 1.387 . S
H560 C567 0.950 . S
C561 C559 1.387 . S
C561 C563 1.390 . S
C561 H565 0.950 . S
H562 C558 0.950 . S
C563 C561 1.390 . S
C563 C564 1.387 . S
C563 H566 0.950 . S
C564 C563 1.387 . S
C564 C567 1.387 . S
H565 C561 0.950 . S
H566 C563 0.950 . S
C567 C558 1.390 . S
C567 H560 0.950 . S
C567 C564 1.387 . S
C568 C569 1.387 . S
C568 H572 0.950 . S
C568 C577 1.390 . S
C569 C568 1.387 . S
C569 C571 1.387 . S
H570 C577 0.950 . S
C571 C569 1.387 . S
C571 C573 1.390 . S
C571 H575 0.950 . S
H572 C568 0.950 . S
C573 C571 1.390 . S
C573 C574 1.387 . S
C573 H576 0.950 . S
C574 C573 1.387 . S
C574 C577 1.387 . S
H575 C571 0.950 . S
H576 C573 0.950 . S
C577 C568 1.390 . S
C577 H570 0.950 . S
C577 C574 1.387 . S
C578 C579 1.387 . S
C578 H582 0.950 . S
C578 C587 1.390 . S
C579 C578 1.387 . S
C579 C581 1.387 . S
H580 C587 0.950 . S
C581 C579 1.387 . S
C581 C583 1.390 . S
C581 H585 0.950 . S
H582 C578 0.950 . S
C583 C581 1.390 . S
C583 C584 1.387 . S
C583 H586 0.950 . S
C584 C583 1.387 . S
C584 C587 1.387 . S
H585 C581 0.950 . S
H586 C583 0.950 . S
C587 C578 1.390 . S
C587 H580 0.950 . S
C587 C584 1.387 . S
C588 C589 1.387 . S
C588 H592 0.950 . S
C588 C597 1.390 . S
C589 C588 1.387 . S
C589 C591 1.387 . S
H590 C597 0.950 . S
C591 C589 1.387 . S
C591 C593 1.390 . S
C591 H595 0.950 . S
H592 C588 0.950 . S
C593 C591 1.390 . S
C593 C594 1.387 . S
C593 H596 0.950 . S
C594 C593 1.387 . S
C594 C597 1.387 . S
H595 C591 0.950 . S
H596 C593 0.950 . S
C597 C588 1.390 . S
C597 H590 0.950 . S
C597 C594 1.387 . S
C598 C599 1.387 . S
C598 H602 0.950 . S
C598 C607 1.390 . S
C599 C598 1.387 . S
C599 C601 1.387 . S
H600 C607 0.950 . S
C601 C599 1.387 . S
C601 C603 1.390 . S
C601 H605 0.950 . S
H602 C598 0.950 . S
C603 C601 1.390 . S
C603 C604 1.387 . S
C603 H606 0.950 . S
C604 C603 1.387 . S
C604 C607 1.387 . S
H605 C601 0.950 . S
H606 C603 0.950 . S
C607 C598 1.390 . S
C607 H600 0.950 . S
C607 C604 1.387 . S
C608 C609 1.388 1_455 S
C608 H612 0.950 . S
C608 C617 1.390 1_556 S
C609 C608 1.388 1_655 S
C609 C611 1.387 . S
H610 C617 0.950 . S
C611 C609 1.387 . S
C611 C613 1.390 1_556 S
C611 H615 0.950 . S
H612 C608 0.950 . S
C613 C611 1.390 1_554 S
C613 C614 1.388 1_655 S
C613 H616 0.950 . S
C614 C613 1.388 1_455 S
C614 C617 1.387 . S
H615 C611 0.950 . S
H616 C613 0.950 . S
C617 C608 1.390 1_554 S
C617 H610 0.950 . S
C617 C614 1.387 . S
C618 C619 1.387 . S
C618 H622 0.950 . S
C618 C627 1.390 1_556 S
C619 C618 1.387 . S
C619 C621 1.387 . S
H620 C627 0.950 . S
C621 C619 1.387 . S
C621 C623 1.390 1_556 S
C621 H625 0.950 . S
H622 C618 0.950 . S
C623 C621 1.390 1_554 S
C623 C624 1.387 . S
C623 H626 0.950 . S
C624 C623 1.387 . S
C624 C627 1.387 . S
H625 C621 0.950 . S
H626 C623 0.950 . S
C627 C618 1.390 1_554 S
C627 H620 0.950 . S
C627 C624 1.387 . S
C628 C629 1.388 1_655 S
C628 H632 0.950 . S
C628 C637 1.390 . S
C629 C628 1.388 1_455 S
C629 C631 1.387 . S
H630 C637 0.950 . S
C631 C629 1.387 . S
C631 C633 1.390 . S
C631 H635 0.950 . S
H632 C628 0.950 . S
C633 C631 1.390 . S
C633 C634 1.388 1_455 S
C633 H636 0.950 . S
C634 C633 1.388 1_655 S
C634 C637 1.387 . S
H635 C631 0.950 . S
H636 C633 0.950 . S
C637 C628 1.390 . S
C637 H630 0.950 . S
C637 C634 1.387 . S
C638 C639 1.387 . S
C638 H642 0.950 . S
C638 C647 1.390 . S
C639 C638 1.387 . S
C639 C641 1.387 . S
H640 C647 0.950 . S
C641 C639 1.387 . S
C641 C643 1.390 . S
C641 H645 0.950 . S
H642 C638 0.950 . S
C643 C641 1.390 . S
C643 C644 1.387 . S
C643 H646 0.950 . S
C644 C643 1.387 . S
C644 C647 1.387 . S
H645 C641 0.950 . S
H646 C643 0.950 . S
C647 C638 1.390 . S
C647 H640 0.950 . S
C647 C644 1.387 . S
C648 C649 1.387 . S
C648 H652 0.950 . S
C648 C657 1.390 1_556 S
C649 C648 1.387 . S
C649 C651 1.387 . S
H650 C657 0.950 . S
C651 C649 1.387 . S
C651 C653 1.390 1_556 S
C651 H655 0.950 . S
H652 C648 0.950 . S
C653 C651 1.390 1_554 S
C653 C654 1.387 . S
C653 H656 0.950 . S
C654 C653 1.387 . S
C654 C657 1.387 . S
H655 C651 0.950 . S
H656 C653 0.950 . S
C657 C648 1.390 1_554 S
C657 H650 0.950 . S
C657 C654 1.387 . S
C658 C659 1.388 . S
C658 H662 0.950 . S
C658 C667 1.390 . S
C659 C658 1.388 . S
C659 C661 1.387 1_655 S
H660 C667 0.950 . S
C661 C659 1.387 1_455 S
C661 C663 1.390 . S
C661 H665 0.950 . S
H662 C658 0.950 . S
C663 C661 1.390 . S
C663 C664 1.388 . S
C663 H666 0.950 . S
C664 C663 1.388 . S
C664 C667 1.387 1_455 S
H665 C661 0.950 . S
H666 C663 0.950 . S
C667 C658 1.390 . S
C667 H660 0.950 . S
C667 C664 1.387 1_655 S
C668 C669 1.387 . S
C668 H672 0.950 . S
C668 C677 1.390 . S
C669 C668 1.387 . S
C669 C671 1.387 . S
H670 C677 0.950 . S
C671 C669 1.387 . S
C671 C673 1.390 . S
C671 H675 0.950 . S
H672 C668 0.950 . S
C673 C671 1.390 . S
C673 C674 1.387 . S
C673 H676 0.950 . S
C674 C673 1.387 . S
C674 C677 1.387 . S
H675 C671 0.950 . S
H676 C673 0.950 . S
C677 C668 1.390 . S
C677 H670 0.950 . S
C677 C674 1.387 . S
C678 C679 1.387 . S
C678 H682 0.950 . S
C678 C687 1.390 1_545 S
C679 C678 1.387 . S
C679 C681 1.388 1_655 S
H680 C687 0.950 . S
C681 C679 1.388 1_455 S
C681 C683 1.390 1_545 S
C681 H685 0.950 . S
H682 C678 0.950 . S
C683 C681 1.390 1_565 S
C683 C684 1.387 . S
C683 H686 0.950 . S
C684 C683 1.387 . S
C684 C687 1.388 1_455 S
H685 C681 0.950 . S
H686 C683 0.950 . S
C687 C678 1.390 1_565 S
C687 H680 0.950 . S
C687 C684 1.388 1_655 S
C688 C689 1.387 . S
C688 H692 0.950 . S
C688 C697 1.390 . S
C689 C688 1.387 . S
C689 C691 1.387 . S
H690 C697 0.950 . S
C691 C689 1.387 . S
C691 C693 1.390 . S
C691 H695 0.950 . S
H692 C688 0.950 . S
C693 C691 1.390 . S
C693 C694 1.387 . S
C693 H696 0.950 . S
C694 C693 1.387 . S
C694 C697 1.387 . S
H695 C691 0.950 . S
H696 C693 0.950 . S
C697 C688 1.390 . S
C697 H690 0.950 . S
C697 C694 1.387 . S
C698 C699 1.387 . S
C698 H702 0.950 . S
C698 C707 1.390 1_565 S
C699 C698 1.387 . S
C699 C701 1.387 . S
H700 C707 0.950 . S
C701 C699 1.387 . S
C701 C703 1.390 1_565 S
C701 H705 0.950 . S
H702 C698 0.950 . S
C703 C701 1.390 1_545 S
C703 C704 1.387 . S
C703 H706 0.950 . S
C704 C703 1.387 . S
C704 C707 1.387 . S
H705 C701 0.950 . S
H706 C703 0.950 . S
C707 C698 1.390 1_545 S
C707 H700 0.950 . S
C707 C704 1.387 . S
C708 C709 1.387 . S
C708 H712 0.950 . S
C708 C717 1.390 . S
C709 C708 1.387 . S
C709 C711 1.387 . S
H710 C717 0.950 . S
C711 C709 1.387 . S
C711 C713 1.390 . S
C711 H715 0.950 . S
H712 C708 0.950 . S
C713 C711 1.390 . S
C713 C714 1.387 . S
C713 H716 0.950 . S
C714 C713 1.387 . S
C714 C717 1.387 . S
H715 C711 0.950 . S
H716 C713 0.950 . S
C717 C708 1.390 . S
C717 H710 0.950 . S
C717 C714 1.387 . S
C718 C719 1.387 . S
C718 H722 0.950 . S
C718 C727 1.390 1_565 S
C719 C718 1.387 . S
C719 C721 1.387 . S
H720 C727 0.950 . S
C721 C719 1.387 . S
C721 C723 1.390 1_565 S
C721 H725 0.950 . S
H722 C718 0.950 . S
C723 C721 1.390 1_545 S
C723 C724 1.387 . S
C723 H726 0.950 . S
C724 C723 1.387 . S
C724 C727 1.387 . S
H725 C721 0.950 . S
H726 C723 0.950 . S
C727 C718 1.390 1_545 S
C727 H720 0.950 . S
C727 C724 1.387 . S
C728 C729 1.387 . S
C728 H732 0.950 . S
C728 C737 1.390 . S
C729 C728 1.387 . S
C729 C731 1.387 . S
H730 C737 0.950 . S
C731 C729 1.387 . S
C731 C733 1.390 . S
C731 H735 0.950 . S
H732 C728 0.950 . S
C733 C731 1.390 . S
C733 C734 1.387 . S
C733 H736 0.950 . S
C734 C733 1.387 . S
C734 C737 1.387 . S
H735 C731 0.950 . S
H736 C733 0.950 . S
C737 C728 1.390 . S
C737 H730 0.950 . S
C737 C734 1.387 . S
C738 C739 1.387 . S
C738 H742 0.950 . S
C738 C747 1.390 . S
C739 C738 1.387 . S
C739 C741 1.387 . S
H740 C747 0.950 . S
C741 C739 1.387 . S
C741 C743 1.390 . S
C741 H745 0.950 . S
H742 C738 0.950 . S
C743 C741 1.390 . S
C743 C744 1.387 . S
C743 H746 0.950 . S
C744 C743 1.387 . S
C744 C747 1.387 . S
H745 C741 0.950 . S
H746 C743 0.950 . S
C747 C738 1.390 . S
C747 H740 0.950 . S
C747 C744 1.387 . S
C748 C749 1.387 . S
C748 H752 0.950 . S
C748 C757 1.390 . S
C749 C748 1.387 . S
C749 C751 1.387 . S
H750 C757 0.950 . S
C751 C749 1.387 . S
C751 C753 1.390 . S
C751 H755 0.950 . S
H752 C748 0.950 . S
C753 C751 1.390 . S
C753 C754 1.387 . S
C753 H756 0.950 . S
C754 C753 1.387 . S
C754 C757 1.387 . S
H755 C751 0.950 . S
H756 C753 0.950 . S
C757 C748 1.390 . S
C757 H750 0.950 . S
C757 C754 1.387 . S
C758 C759 1.387 . S
C758 H762 0.950 . S
C758 C767 1.390 1_546 S
C759 C758 1.387 . S
C759 C761 1.387 . S
H760 C767 0.950 . S
C761 C759 1.387 . S
C761 C763 1.390 1_546 S
C761 H765 0.950 . S
H762 C758 0.950 . S
C763 C761 1.390 1_564 S
C763 C764 1.387 . S
C763 H766 0.950 . S
C764 C763 1.387 . S
C764 C767 1.387 . S
H765 C761 0.950 . S
H766 C763 0.950 . S
C767 C758 1.390 1_564 S
C767 H760 0.950 . S
C767 C764 1.387 . S
C768 C769 1.387 . S
C768 H772 0.950 . S
C768 C777 1.390 . S
C769 C768 1.387 . S
C769 C771 1.387 . S
H770 C777 0.950 . S
C771 C769 1.387 . S
C771 C773 1.390 . S
C771 H775 0.950 . S
H772 C768 0.950 . S
C773 C771 1.390 . S
C773 C774 1.387 . S
C773 H776 0.950 . S
C774 C773 1.387 . S
C774 C777 1.387 . S
H775 C771 0.950 . S
H776 C773 0.950 . S
C777 C768 1.390 . S
C777 H770 0.950 . S
C777 C774 1.387 . S
C778 C779 1.387 . S
C778 H782 0.950 . S
C778 C787 1.390 . S
C779 C778 1.387 . S
C779 C781 1.387 . S
H780 C787 0.950 . S
C781 C779 1.387 . S
C781 C783 1.390 . S
C781 H785 0.950 . S
H782 C778 0.950 . S
C783 C781 1.390 . S
C783 C784 1.387 . S
C783 H786 0.950 . S
C784 C783 1.387 . S
C784 C787 1.387 . S
H785 C781 0.950 . S
H786 C783 0.950 . S
C787 C778 1.390 . S
C787 H780 0.950 . S
C787 C784 1.387 . S
C788 C789 1.387 . S
C788 H792 0.950 . S
C788 C797 1.390 . S
C789 C788 1.387 . S
C789 C791 1.387 . S
H790 C797 0.950 . S
C791 C789 1.387 . S
C791 C793 1.390 . S
C791 H795 0.950 . S
H792 C788 0.950 . S
C793 C791 1.390 . S
C793 C794 1.387 . S
C793 H796 0.950 . S
C794 C793 1.387 . S
C794 C797 1.387 . S
H795 C791 0.950 . S
H796 C793 0.950 . S
C797 C788 1.390 . S
C797 H790 0.950 . S
C797 C794 1.387 . S
C798 C799 1.387 . S
C798 H802 0.950 . S
C798 C807 1.390 . S
C799 C798 1.387 . S
C799 C801 1.387 . S
H800 C807 0.950 . S
C801 C799 1.387 . S
C801 C803 1.390 . S
C801 H805 0.950 . S
H802 C798 0.950 . S
C803 C801 1.390 . S
C803 C804 1.387 . S
C803 H806 0.950 . S
C804 C803 1.387 . S
C804 C807 1.387 . S
H805 C801 0.950 . S
H806 C803 0.950 . S
C807 C798 1.390 . S
C807 H800 0.950 . S
C807 C804 1.387 . S
C808 C809 1.387 . S
C808 H812 0.950 . S
C808 C817 1.390 . S
C809 C808 1.387 . S
C809 C811 1.387 . S
H810 C817 0.950 . S
C811 C809 1.387 . S
C811 C813 1.390 . S
C811 H815 0.950 . S
H812 C808 0.950 . S
C813 C811 1.390 . S
C813 C814 1.387 . S
C813 H816 0.950 . S
C814 C813 1.387 . S
C814 C817 1.387 . S
H815 C811 0.950 . S
H816 C813 0.950 . S
C817 C808 1.390 . S
C817 H810 0.950 . S
C817 C814 1.387 . S
C818 C819 1.387 . S
C818 H822 0.950 . S
C818 C827 1.390 . S
C819 C818 1.387 . S
C819 C821 1.387 . S
H820 C827 0.950 . S
C821 C819 1.387 . S
C821 C823 1.390 . S
C821 H825 0.950 . S
H822 C818 0.950 . S
C823 C821 1.390 . S
C823 C824 1.387 . S
C823 H826 0.950 . S
C824 C823 1.387 . S
C824 C827 1.387 . S
H825 C821 0.950 . S
H826 C823 0.950 . S
C827 C818 1.390 . S
C827 H820 0.950 . S
C827 C824 1.387 . S
C828 C829 1.387 . S
C828 H832 0.950 . S
C828 C837 1.390 . S
C829 C828 1.387 . S
C829 C831 1.387 . S
H830 C837 0.950 . S
C831 C829 1.387 . S
C831 C833 1.390 . S
C831 H835 0.950 . S
H832 C828 0.950 . S
C833 C831 1.390 . S
C833 C834 1.387 . S
C833 H836 0.950 . S
C834 C833 1.387 . S
C834 C837 1.387 . S
H835 C831 0.950 . S
H836 C833 0.950 . S
C837 C828 1.390 . S
C837 H830 0.950 . S
C837 C834 1.387 . S
C838 C839 1.387 . S
C838 H842 0.950 . S
C838 C847 1.390 . S
C839 C838 1.387 . S
C839 C841 1.387 . S
H840 C847 0.950 . S
C841 C839 1.387 . S
C841 C843 1.390 . S
C841 H845 0.950 . S
H842 C838 0.950 . S
C843 C841 1.390 . S
C843 C844 1.387 . S
C843 H846 0.950 . S
C844 C843 1.387 . S
C844 C847 1.387 . S
H845 C841 0.950 . S
H846 C843 0.950 . S
C847 C838 1.390 . S
C847 H840 0.950 . S
C847 C844 1.387 . S
C848 C849 1.387 . S
C848 H852 0.950 . S
C848 C857 1.390 . S
C849 C848 1.387 . S
C849 C851 1.387 . S
H850 C857 0.950 . S
C851 C849 1.387 . S
C851 C853 1.390 . S
C851 H855 0.950 . S
H852 C848 0.950 . S
C853 C851 1.390 . S
C853 C854 1.387 . S
C853 H856 0.950 . S
C854 C853 1.387 . S
C854 C857 1.387 . S
H855 C851 0.950 . S
H856 C853 0.950 . S
C857 C848 1.390 . S
C857 H850 0.950 . S
C857 C854 1.387 . S
C858 C859 1.387 . S
C858 H862 0.950 . S
C858 C867 1.390 . S
C859 C858 1.387 . S
C859 C861 1.387 . S
H860 C867 0.950 . S
C861 C859 1.387 . S
C861 C863 1.390 . S
C861 H865 0.950 . S
H862 C858 0.950 . S
C863 C861 1.390 . S
C863 C864 1.387 . S
C863 H866 0.950 . S
C864 C863 1.387 . S
C864 C867 1.387 . S
H865 C861 0.950 . S
H866 C863 0.950 . S
C867 C858 1.390 . S
C867 H860 0.950 . S
C867 C864 1.387 . S
C868 C869 1.387 . S
C868 H872 0.950 . S
C868 C877 1.390 . S
C869 C868 1.387 . S
C869 C871 1.387 . S
H870 C877 0.950 . S
C871 C869 1.387 . S
C871 C873 1.390 . S
C871 H875 0.950 . S
H872 C868 0.950 . S
C873 C871 1.390 . S
C873 C874 1.387 . S
C873 H876 0.950 . S
C874 C873 1.387 . S
C874 C877 1.387 . S
H875 C871 0.950 . S
H876 C873 0.950 . S
C877 C868 1.390 . S
C877 H870 0.950 . S
C877 C874 1.387 . S
C878 C879 1.387 . S
C878 H882 0.950 . S
C878 C887 1.390 . S
C879 C878 1.387 . S
C879 C881 1.387 . S
H880 C887 0.950 . S
C881 C879 1.387 . S
C881 C883 1.390 . S
C881 H885 0.950 . S
H882 C878 0.950 . S
C883 C881 1.390 . S
C883 C884 1.387 . S
C883 H886 0.950 . S
C884 C883 1.387 . S
C884 C887 1.387 . S
H885 C881 0.950 . S
H886 C883 0.950 . S
C887 C878 1.390 . S
C887 H880 0.950 . S
C887 C884 1.387 . S
C888 C889 1.387 . S
C888 H892 0.950 . S
C888 C897 1.390 . S
C889 C888 1.387 . S
C889 C891 1.387 . S
H890 C897 0.950 . S
C891 C889 1.387 . S
C891 C893 1.390 . S
C891 H895 0.950 . S
H892 C888 0.950 . S
C893 C891 1.390 . S
C893 C894 1.387 . S
C893 H896 0.950 . S
C894 C893 1.387 . S
C894 C897 1.387 . S
H895 C891 0.950 . S
H896 C893 0.950 . S
C897 C888 1.390 . S
C897 H890 0.950 . S
C897 C894 1.387 . S
C898 C899 1.387 . S
C898 H902 0.950 . S
C898 C907 1.390 . S
C899 C898 1.387 . S
C899 C901 1.387 . S
H900 C907 0.950 . S
C901 C899 1.387 . S
C901 C903 1.390 . S
C901 H905 0.950 . S
H902 C898 0.950 . S
C903 C901 1.390 . S
C903 C904 1.387 . S
C903 H906 0.950 . S
C904 C903 1.387 . S
C904 C907 1.387 . S
H905 C901 0.950 . S
H906 C903 0.950 . S
C907 C898 1.390 . S
C907 H900 0.950 . S
C907 C904 1.387 . S
C908 C909 1.387 . S
C908 H912 0.950 . S
C908 C917 1.390 . S
C909 C908 1.387 . S
C909 C911 1.387 . S
H910 C917 0.950 . S
C911 C909 1.387 . S
C911 C913 1.390 . S
C911 H915 0.950 . S
H912 C908 0.950 . S
C913 C911 1.390 . S
C913 C914 1.387 . S
C913 H916 0.950 . S
C914 C913 1.387 . S
C914 C917 1.387 . S
H915 C911 0.950 . S
H916 C913 0.950 . S
C917 C908 1.390 . S
C917 H910 0.950 . S
C917 C914 1.387 . S
C918 C919 1.387 . S
C918 H922 0.950 . S
C918 C927 1.390 . S
C919 C918 1.387 . S
C919 C921 1.387 . S
H920 C927 0.950 . S
C921 C919 1.387 . S
C921 C923 1.390 . S
C921 H925 0.950 . S
H922 C918 0.950 . S
C923 C921 1.390 . S
C923 C924 1.387 . S
C923 H926 0.950 . S
C924 C923 1.387 . S
C924 C927 1.387 . S
H925 C921 0.950 . S
H926 C923 0.950 . S
C927 C918 1.390 . S
C927 H920 0.950 . S
C927 C924 1.387 . S
C928 C929 1.387 1_455 S
C928 H932 0.950 . S
C928 C937 1.390 . S
C929 C928 1.387 1_655 S
C929 C931 1.387 . S
H930 C937 0.950 . S
C931 C929 1.387 . S
C931 C933 1.390 . S
C931 H935 0.950 . S
H932 C928 0.950 . S
C933 C931 1.390 . S
C933 C934 1.387 . S
C933 H936 0.950 . S
C934 C933 1.387 . S
C934 C937 1.387 1_655 S
H935 C931 0.950 . S
H936 C933 0.950 . S
C937 C928 1.390 . S
C937 H930 0.950 . S
C937 C934 1.387 1_455 S
C938 C939 1.387 . S
C938 H942 0.950 . S
C938 C947 1.390 . S
C939 C938 1.387 . S
C939 C941 1.387 . S
H940 C947 0.950 . S
C941 C939 1.387 . S
C941 C943 1.390 . S
C941 H945 0.950 . S
H942 C938 0.950 . S
C943 C941 1.390 . S
C943 C944 1.387 . S
C943 H946 0.950 . S
C944 C943 1.387 . S
C944 C947 1.387 . S
H945 C941 0.950 . S
H946 C943 0.950 . S
C947 C938 1.390 . S
C947 H940 0.950 . S
C947 C944 1.387 . S
C948 C949 1.387 1_655 S
C948 H952 0.950 . S
C948 C957 1.390 . S
C949 C948 1.387 1_455 S
C949 C951 1.387 . S
H950 C957 0.950 . S
C951 C949 1.387 . S
C951 C953 1.390 . S
C951 H955 0.950 . S
H952 C948 0.950 . S
C953 C951 1.390 . S
C953 C954 1.387 . S
C953 H956 0.950 . S
C954 C953 1.387 . S
C954 C957 1.387 1_455 S
H955 C951 0.950 . S
H956 C953 0.950 . S
C957 C948 1.390 . S
C957 H950 0.950 . S
C957 C954 1.387 1_655 S
C958 C959 1.387 . S
C958 H962 0.950 . S
C958 C967 1.390 . S
C959 C958 1.387 . S
C959 C961 1.387 . S
H960 C967 0.950 . S
C961 C959 1.387 . S
C961 C963 1.390 . S
C961 H965 0.950 . S
H962 C958 0.950 . S
C963 C961 1.390 . S
C963 C964 1.387 . S
C963 H966 0.950 . S
C964 C963 1.387 . S
C964 C967 1.387 . S
H965 C961 0.950 . S
H966 C963 0.950 . S
C967 C958 1.390 . S
C967 H960 0.950 . S
C967 C964 1.387 . S
C968 C969 1.387 . S
C968 H972 0.950 . S
C968 C977 1.390 . S
C969 C968 1.387 . S
C969 C971 1.387 1_655 S
H970 C977 0.950 . S
C971 C969 1.387 1_455 S
C971 C973 1.390 . S
C971 H975 0.950 . S
H972 C968 0.950 . S
C973 C971 1.390 . S
C973 C974 1.387 1_455 S
C973 H976 0.950 . S
C974 C973 1.387 1_655 S
C974 C977 1.387 . S
H975 C971 0.950 . S
H976 C973 0.950 . S
C977 C968 1.390 . S
C977 H970 0.950 . S
C977 C974 1.387 . S
C978 C979 1.387 . S
C978 H982 0.950 . S
C978 C987 1.390 . S
C979 C978 1.387 . S
C979 C981 1.387 . S
H980 C987 0.950 . S
C981 C979 1.387 . S
C981 C983 1.390 . S
C981 H985 0.950 . S
H982 C978 0.950 . S
C983 C981 1.390 . S
C983 C984 1.387 . S
C983 H986 0.950 . S
C984 C983 1.387 . S
C984 C987 1.387 . S
H985 C981 0.950 . S
H986 C983 0.950 . S
C987 C978 1.390 . S
C987 H980 0.950 . S
C987 C984 1.387 . S
C988 C989 1.387 . S
C988 H992 0.950 . S
C988 C997 1.390 . S
C989 C988 1.387 . S
C989 C991 1.387 1_455 S
H990 C997 0.950 . S
C991 C989 1.387 1_655 S
C991 C993 1.390 . S
C991 H995 0.950 . S
H992 C988 0.950 . S
C993 C991 1.390 . S
C993 C994 1.387 1_655 S
C993 H996 0.950 . S
C994 C993 1.387 1_455 S
C994 C997 1.387 . S
H995 C991 0.950 . S
H996 C993 0.950 . S
C997 C988 1.390 . S
C997 H990 0.950 . S
C997 C994 1.387 . S
C998 C999 1.387 . S
C998 H1002 0.950 . S
C998 C1007 1.390 . S
C999 C998 1.387 . S
C999 C1001 1.387 . S
H1000 C1007 0.950 . S
C1001 C999 1.387 . S
C1001 C1003 1.390 . S
C1001 H1005 0.950 . S
H1002 C998 0.950 . S
C1003 C1001 1.390 . S
C1003 C1004 1.387 . S
C1003 H1006 0.950 . S
C1004 C1003 1.387 . S
C1004 C1007 1.387 . S
H1005 C1001 0.950 . S
H1006 C1003 0.950 . S
C1007 C998 1.390 . S
C1007 H1000 0.950 . S
C1007 C1004 1.387 . S
C1008 C1009 1.387 . S
C1008 H1012 0.950 . S
C1008 C1017 1.390 . S
C1009 C1008 1.387 . S
C1009 C1011 1.387 . S
H1010 C1017 0.950 . S
C1011 C1009 1.387 . S
C1011 C1013 1.390 . S
C1011 H1015 0.950 . S
H1012 C1008 0.950 . S
C1013 C1011 1.390 . S
C1013 C1014 1.387 . S
C1013 H1016 0.950 . S
C1014 C1013 1.387 . S
C1014 C1017 1.387 . S
H1015 C1011 0.950 . S
H1016 C1013 0.950 . S
C1017 C1008 1.390 . S
C1017 H1010 0.950 . S
C1017 C1014 1.387 . S
C1018 C1019 1.387 . S
C1018 H1022 0.950 . S
C1018 C1027 1.390 . S
C1019 C1018 1.387 . S
C1019 C1021 1.387 . S
H1020 C1027 0.950 . S
C1021 C1019 1.387 . S
C1021 C1023 1.390 . S
C1021 H1025 0.950 . S
H1022 C1018 0.950 . S
C1023 C1021 1.390 . S
C1023 C1024 1.387 . S
C1023 H1026 0.950 . S
C1024 C1023 1.387 . S
C1024 C1027 1.387 . S
H1025 C1021 0.950 . S
H1026 C1023 0.950 . S
C1027 C1018 1.390 . S
C1027 H1020 0.950 . S
C1027 C1024 1.387 . S
C1028 C1029 1.387 . S
C1028 H1032 0.950 . S
C1028 C1037 1.390 . S
C1029 C1028 1.387 . S
C1029 C1031 1.387 . S
H1030 C1037 0.950 . S
C1031 C1029 1.387 . S
C1031 C1033 1.390 . S
C1031 H1035 0.950 . S
H1032 C1028 0.950 . S
C1033 C1031 1.390 . S
C1033 C1034 1.387 . S
C1033 H1036 0.950 . S
C1034 C1033 1.387 . S
C1034 C1037 1.387 . S
H1035 C1031 0.950 . S
H1036 C1033 0.950 . S
C1037 C1028 1.390 . S
C1037 H1030 0.950 . S
C1037 C1034 1.387 . S
C1038 C1039 1.387 . S
C1038 H1042 0.950 . S
C1038 C1047 1.390 . S
C1039 C1038 1.387 . S
C1039 C1041 1.387 . S
H1040 C1047 0.950 . S
C1041 C1039 1.387 . S
C1041 C1043 1.390 . S
C1041 H1045 0.950 . S
H1042 C1038 0.950 . S
C1043 C1041 1.390 . S
C1043 C1044 1.387 . S
C1043 H1046 0.950 . S
C1044 C1043 1.387 . S
C1044 C1047 1.387 . S
H1045 C1041 0.950 . S
H1046 C1043 0.950 . S
C1047 C1038 1.390 . S
C1047 H1040 0.950 . S
C1047 C1044 1.387 . S
C1048 C1049 1.387 . S
C1048 H1052 0.950 . S
C1048 C1057 1.390 . S
C1049 C1048 1.387 . S
C1049 C1051 1.387 . S
H1050 C1057 0.950 . S
C1051 C1049 1.387 . S
C1051 C1053 1.390 . S
C1051 H1055 0.950 . S
H1052 C1048 0.950 . S
C1053 C1051 1.390 . S
C1053 C1054 1.387 . S
C1053 H1056 0.950 . S
C1054 C1053 1.387 . S
C1054 C1057 1.387 . S
H1055 C1051 0.950 . S
H1056 C1053 0.950 . S
C1057 C1048 1.390 . S
C1057 H1050 0.950 . S
C1057 C1054 1.387 . S
C1058 C1059 1.387 . S
C1058 H1062 0.950 . S
C1058 C1067 1.390 . S
C1059 C1058 1.387 . S
C1059 C1061 1.387 . S
H1060 C1067 0.950 . S
C1061 C1059 1.387 . S
C1061 C1063 1.390 . S
C1061 H1065 0.950 . S
H1062 C1058 0.950 . S
C1063 C1061 1.390 . S
C1063 C1064 1.387 . S
C1063 H1066 0.950 . S
C1064 C1063 1.387 . S
C1064 C1067 1.387 . S
H1065 C1061 0.950 . S
H1066 C1063 0.950 . S
C1067 C1058 1.390 . S
C1067 H1060 0.950 . S
C1067 C1064 1.387 . S
C1068 C1069 1.387 . S
C1068 H1072 0.950 . S
C1068 C1077 1.390 . S
C1069 C1068 1.387 . S
C1069 C1071 1.387 . S
H1070 C1077 0.950 . S
C1071 C1069 1.387 . S
C1071 C1073 1.390 . S
C1071 H1075 0.950 . S
H1072 C1068 0.950 . S
C1073 C1071 1.390 . S
C1073 C1074 1.387 . S
C1073 H1076 0.950 . S
C1074 C1073 1.387 . S
C1074 C1077 1.387 . S
H1075 C1071 0.950 . S
H1076 C1073 0.950 . S
C1077 C1068 1.390 . S
C1077 H1070 0.950 . S
C1077 C1074 1.387 . S
C1078 C1079 1.387 . S
C1078 H1082 0.950 . S
C1078 C1087 1.390 . S
C1079 C1078 1.387 . S
C1079 C1081 1.387 . S
H1080 C1087 0.950 . S
C1081 C1079 1.387 . S
C1081 C1083 1.390 . S
C1081 H1085 0.950 . S
H1082 C1078 0.950 . S
C1083 C1081 1.390 . S
C1083 C1084 1.387 . S
C1083 H1086 0.950 . S
C1084 C1083 1.387 . S
C1084 C1087 1.387 . S
H1085 C1081 0.950 . S
H1086 C1083 0.950 . S
C1087 C1078 1.390 . S
C1087 H1080 0.950 . S
C1087 C1084 1.387 . S
C449 C41 0.802 . S
C454 C13 0.802 . S
C459 C27 0.800 . S
C464 C55 0.799 . S
C469 C97 0.799 . S
C474 C69 0.800 . S
C479 C111 0.799 . S
C484 C83 0.800 . S
C489 C125 0.802 . S
C494 C153 0.802 . S
C499 C167 0.800 . S
C504 C139 0.799 . S
C509 C181 0.800 . S
C514 C209 0.799 . S
C519 C195 0.799 . S
C524 C223 0.800 . S
C529 C265 0.802 . S
C534 C237 0.802 . S
C539 C251 0.799 . S
C544 C279 0.800 . S
C549 C293 0.802 . S
C554 C321 0.802 . S
C559 C335 0.800 . S
C564 C307 0.799 . S
C569 C377 0.799 . S
C574 C349 0.799 . S
C579 C391 0.802 . S
C584 C363 0.802 . S
C589 C433 0.800 . S
C594 C405 0.799 . S
C599 C419 0.800 . S
C604 C447 0.799 . S
C609 C67 1.669 . S
C614 C11 1.669 . S
C619 C417 1.670 . S
C624 C25 1.670 . S
C629 C39 1.670 . S
C634 C207 1.670 . S
C639 C53 1.669 . S
C644 C333 1.669 . S
C649 C81 1.670 . S
C654 C361 1.670 . S
C659 C95 1.670 . S
C664 C151 1.670 . S
C669 C277 1.670 . S
C674 C109 1.670 . S
C679 C179 1.670 . S
C684 C123 1.670 . S
C689 C305 1.669 . S
C694 C137 1.669 . S
C699 C165 1.669 . S
C704 C445 1.669 . S
C709 C193 1.670 . S
C714 C249 1.670 . S
C719 C389 1.669 . S
C724 C221 1.669 . S
C729 C291 1.670 . S
C734 C235 1.670 . S
C739 C263 1.670 . S
C744 C431 1.670 . S
C749 C319 1.669 . S
C754 C375 1.669 . S
C759 C403 1.670 . S
C764 C347 1.670 . S
C769 C50 1.454 . S
C774 C8 1.454 . S
C779 C36 1.454 . S
C784 C22 1.454 . S
C789 C106 1.454 . S
C794 C64 1.454 . S
C799 C92 1.457 . S
C804 C78 1.457 . S
C809 C162 1.454 . S
C814 C120 1.454 . S
C819 C148 1.454 . S
C824 C134 1.454 . S
C829 C218 1.454 . S
C834 C176 1.454 . S
C839 C204 1.454 . S
C844 C190 1.454 . S
C849 C232 1.454 . S
C854 C274 1.454 . S
C859 C260 1.457 . S
C864 C246 1.457 . S
C869 C288 1.457 . S
C874 C330 1.457 . S
C879 C316 1.457 . S
C884 C302 1.457 . S
C889 C386 1.457 . S
C894 C344 1.457 . S
C899 C358 1.457 . S
C904 C372 1.457 . S
C909 C400 1.454 . S
C914 C442 1.454 . S
C919 C428 1.457 . S
C924 C414 1.457 . S
C929 C35 1.509 1_545 S
C934 C7 1.509 . S
C939 C21 1.509 1_545 S
C944 C49 1.509 . S
C949 C63 1.507 . S
C954 C91 1.507 1_565 S
C959 C77 1.507 1_565 S
C964 C105 1.507 . S
C969 C119 1.507 . S
C974 C147 1.507 . S
C979 C133 1.509 . S
C984 C161 1.509 . S
C989 C203 1.509 . S
C994 C175 1.509 . S
C999 C217 1.509 . S
C1004 C189 1.509 . S
C1009 C259 1.507 1_545 S
C1014 C231 1.507 . S
C1019 C273 1.507 . S
C1024 C245 1.507 1_545 S
C1029 C287 1.507 . S
C1034 C315 1.507 1_565 S
C1039 C329 1.509 . S
C1044 C301 1.509 1_565 S
C1049 C371 1.509 . S
C1054 C343 1.509 . S
C1059 C357 1.507 . S
C1064 C385 1.507 . S
C1069 C399 1.507 . S
C1074 C427 1.507 . S
C1079 C441 1.509 . S
C1084 C413 1.509 . S
