# Generated by pormake.
# Topology can, (4)-cn, num edge types: 1
# Building blocks:
#     Node 0, Type 0, BuildingBlock: NAHDIM_clean_sbu_0, # of connection points: 4
#     Node 1, Type 0, BuildingBlock: NAHDIM_clean_sbu_0, # of connection points: 4
#     Node 2, Type 0, BuildingBlock: NAHDIM_clean_sbu_0, # of connection points: 4
#     Node 3, Type 0, BuildingBlock: NAHDIM_clean_sbu_0, # of connection points: 4
#     Node 4, Type 0, BuildingBlock: NAHDIM_clean_sbu_0, # of connection points: 4
#     Node 5, Type 0, BuildingBlock: NAHDIM_clean_sbu_0, # of connection points: 4
#     Node 6, Type 0, BuildingBlock: NAHDIM_clean_sbu_0, # of connection points: 4
#     Node 7, Type 0, BuildingBlock: NAHDIM_clean_sbu_0, # of connection points: 4
#     Node 8, Type 0, BuildingBlock: NAHDIM_clean_sbu_0, # of connection points: 4
#     Node 9, Type 0, BuildingBlock: NAHDIM_clean_sbu_0, # of connection points: 4
#     Node 10, Type 0, BuildingBlock: NAHDIM_clean_sbu_0, # of connection points: 4
#     Node 11, Type 0, BuildingBlock: NAHDIM_clean_sbu_0, # of connection points: 4
#     Edge 12, Type (0, 0), BuildingBlock: MIFKUJ_clean_linker_0, # of connection points: 2
#     Edge 13, Type (0, 0), BuildingBlock: MIFKUJ_clean_linker_0, # of connection points: 2
#     Edge 14, Type (0, 0), BuildingBlock: MIFKUJ_clean_linker_0, # of connection points: 2
#     Edge 15, Type (0, 0), BuildingBlock: MIFKUJ_clean_linker_0, # of connection points: 2
#     Edge 16, Type (0, 0), BuildingBlock: MIFKUJ_clean_linker_0, # of connection points: 2
#     Edge 17, Type (0, 0), BuildingBlock: MIFKUJ_clean_linker_0, # of connection points: 2
#     Edge 18, Type (0, 0), BuildingBlock: MIFKUJ_clean_linker_0, # of connection points: 2
#     Edge 19, Type (0, 0), BuildingBlock: MIFKUJ_clean_linker_0, # of connection points: 2
#     Edge 20, Type (0, 0), BuildingBlock: MIFKUJ_clean_linker_0, # of connection points: 2
#     Edge 21, Type (0, 0), BuildingBlock: MIFKUJ_clean_linker_0, # of connection points: 2
#     Edge 22, Type (0, 0), BuildingBlock: MIFKUJ_clean_linker_0, # of connection points: 2
#     Edge 23, Type (0, 0), BuildingBlock: MIFKUJ_clean_linker_0, # of connection points: 2
#     Edge 24, Type (0, 0), BuildingBlock: MIFKUJ_clean_linker_0, # of connection points: 2
#     Edge 25, Type (0, 0), BuildingBlock: MIFKUJ_clean_linker_0, # of connection points: 2
#     Edge 26, Type (0, 0), BuildingBlock: MIFKUJ_clean_linker_0, # of connection points: 2
#     Edge 27, Type (0, 0), BuildingBlock: MIFKUJ_clean_linker_0, # of connection points: 2
#     Edge 28, Type (0, 0), BuildingBlock: MIFKUJ_clean_linker_0, # of connection points: 2
#     Edge 29, Type (0, 0), BuildingBlock: MIFKUJ_clean_linker_0, # of connection points: 2
#     Edge 30, Type (0, 0), BuildingBlock: MIFKUJ_clean_linker_0, # of connection points: 2
#     Edge 31, Type (0, 0), BuildingBlock: MIFKUJ_clean_linker_0, # of connection points: 2
#     Edge 32, Type (0, 0), BuildingBlock: MIFKUJ_clean_linker_0, # of connection points: 2
#     Edge 33, Type (0, 0), BuildingBlock: MIFKUJ_clean_linker_0, # of connection points: 2
#     Edge 34, Type (0, 0), BuildingBlock: MIFKUJ_clean_linker_0, # of connection points: 2
#     Edge 35, Type (0, 0), BuildingBlock: MIFKUJ_clean_linker_0, # of connection points: 2
# Relax obj value: 0.094
# Max RMSD: 0.084
# Mean RMSD: 0.084
data_MOF--net-can--node1-NAHDIM_clean_sbu_0--edge1-MIFKUJ_clean_linker_0
_symmetry_space_group_name_H-M    P1
_symmetry_Int_Tables_number       1
_symmetry_cell_setting            triclinic
loop_
_symmetry_equiv_pos_as_xyz
'x, y, z'
_cell_length_a     76.548668
_cell_length_b     76.539447
_cell_length_c     32.735369
_cell_angle_alpha  90.030819
_cell_angle_beta   89.963551
_cell_angle_gamma 120.01836
loop_
_atom_site_label
_atom_site_type_symbol
_atom_site_fract_x
_atom_site_fract_y
_atom_site_fract_z
_atom_type_partial_charge
C0 C 0.10735 0.40658 0.21622 0.0
O1 O 0.0967 0.40372 0.1829 0.0
O2 O 0.05778 0.39554 0.20351 0.0
Zn3 Zn 0.07421 0.40811 0.25409 0.0
O4 O 0.05893 0.39212 0.30328 0.0
C5 C 0.08945 0.45042 0.23587 0.0
O6 O 0.09748 0.44679 0.20382 0.0
O7 O 0.10068 0.40881 0.2502 0.0
C8 C 0.04409 0.39396 0.31482 0.0
O9 O 0.0394 0.40564 0.29378 0.0
C10 C 0.04575 0.40088 0.18913 0.0
O11 O 0.04374 0.41494 0.20792 0.0
O12 O 0.07924 0.43628 0.26098 0.0
C13 C 0.69724 0.09866 0.76397 0.0
O14 O 0.69585 0.08173 0.77666 0.0
O15 O 0.65745 0.05826 0.69115 0.0
Zn16 Zn 0.65623 0.07186 0.74272 0.0
O17 O 0.65312 0.05513 0.79232 0.0
C18 C 0.62463 0.07765 0.77383 0.0
O19 O 0.63204 0.07577 0.80866 0.0
O20 O 0.68191 0.09825 0.74804 0.0
C21 C 0.64142 0.03619 0.79495 0.0
O22 O 0.63079 0.02606 0.76301 0.0
C23 C 0.66504 0.04682 0.68954 0.0
O24 O 0.67225 0.04324 0.7229 0.0
O25 O 0.63273 0.07674 0.74058 0.0
C26 C 0.58952 0.69764 0.19463 0.0
O27 O 0.60291 0.69542 0.17365 0.0
O28 O 0.59571 0.65473 0.1863 0.0
Zn29 Zn 0.58068 0.65955 0.23099 0.0
O30 O 0.59525 0.66365 0.28396 0.0
C31 C 0.55276 0.61884 0.24836 0.0
O32 O 0.56982 0.61915 0.25532 0.0
O33 O 0.57817 0.68402 0.21981 0.0
C34 C 0.58648 0.66381 0.31679 0.0
O35 O 0.56841 0.66176 0.31479 0.0
C36 C 0.61485 0.6634 0.18541 0.0
O37 O 0.62541 0.67623 0.21445 0.0
O38 O 0.55332 0.63493 0.23665 0.0
C39 C 0.88316 0.58815 0.73042 0.0
O40 O 0.8893 0.58549 0.69468 0.0
O41 O 0.9325 0.60075 0.70385 0.0
Zn42 Zn 0.91861 0.58808 0.75681 0.0
O43 O 0.93685 0.60182 0.80444 0.0
C44 C 0.91017 0.54902 0.726 0.0
O45 O 0.9134 0.55781 0.69014 0.0
O46 O 0.89346 0.58975 0.76206 0.0
C47 C 0.95283 0.60076 0.8077 0.0
O48 O 0.95704 0.59129 0.77928 0.0
C49 C 0.94793 0.61823 0.70082 0.0
O50 O 0.95572 0.62917 0.73383 0.0
O51 O 0.91133 0.55897 0.75798 0.0
C52 C 0.29407 0.89464 0.23929 0.0
O53 O 0.29577 0.91198 0.24994 0.0
O54 O 0.33362 0.93576 0.1729 0.0
Zn55 Zn 0.33507 0.92087 0.2219 0.0
O56 O 0.33832 0.93628 0.27364 0.0
C57 C 0.37628 0.933 0.21989 0.0
O58 O 0.37712 0.95051 0.22369 0.0
O59 O 0.30947 0.89437 0.22568 0.0
C60 C 0.34364 0.93063 0.30542 0.0
O61 O 0.3465 0.9151 0.30301 0.0
C62 C 0.33501 0.95299 0.17454 0.0
O63 O 0.33762 0.96198 0.21004 0.0
O64 O 0.35912 0.91712 0.21699 0.0
C65 C 0.39764 0.29443 0.75704 0.0
O66 O 0.38223 0.2965 0.76772 0.0
O67 O 0.40025 0.33708 0.69535 0.0
Zn68 Zn 0.41525 0.33663 0.74535 0.0
O69 O 0.4032 0.34022 0.79682 0.0
C70 C 0.4529 0.36764 0.70989 0.0
O71 O 0.44321 0.36119 0.67508 0.0
O72 O 0.41409 0.30996 0.74678 0.0
C73 C 0.3972 0.35292 0.79988 0.0
O74 O 0.39823 0.36379 0.76796 0.0
C75 C 0.3814 0.33063 0.69399 0.0
O76 O 0.3705 0.32369 0.72732 0.0
O77 O 0.44403 0.35914 0.74296 0.0
C78 C 0.60075 0.88926 0.23312 0.0
O79 O 0.61665 0.90596 0.22063 0.0
O80 O 0.60615 0.93161 0.30479 0.0
Zn81 Zn 0.58873 0.91738 0.25598 0.0
O82 O 0.6 0.93229 0.20311 0.0
C83 C 0.55839 0.92673 0.2824 0.0
O84 O 0.57392 0.94222 0.29958 0.0
O85 O 0.58641 0.89029 0.25032 0.0
C86 C 0.59945 0.94804 0.19307 0.0
O87 O 0.59216 0.95593 0.21882 0.0
C88 C 0.62057 0.94976 0.30494 0.0
O89 O 0.62525 0.96042 0.27118 0.0
O90 O 0.56105 0.91379 0.26328 0.0
C91 C 0.6991 0.59408 0.76109 0.0
O92 O 0.68917 0.58981 0.79579 0.0
O93 O 0.66263 0.60745 0.78833 0.0
Zn94 Zn 0.66562 0.59773 0.73339 0.0
O95 O 0.66402 0.61516 0.68983 0.0
C96 C 0.63554 0.55697 0.7541 0.0
O97 O 0.64299 0.56277 0.79098 0.0
O98 O 0.69192 0.59812 0.72986 0.0
C99 C 0.64883 0.61768 0.68953 0.0
O100 O 0.63518 0.60932 0.71844 0.0
C101 C 0.67625 0.62381 0.80402 0.0
O102 O 0.69293 0.63512 0.78345 0.0
O103 O 0.64295 0.56939 0.72468 0.0
C104 C 0.10523 0.70947 0.26828 0.0
O105 O 0.08878 0.70857 0.28276 0.0
O106 O 0.06376 0.66642 0.30995 0.0
Zn107 Zn 0.0789 0.66691 0.25944 0.0
O108 O 0.06287 0.66345 0.20861 0.0
C109 C 0.07836 0.63038 0.28685 0.0
O110 O 0.06636 0.63023 0.3157 0.0
O111 O 0.1046 0.69337 0.25637 0.0
C112 C 0.07013 0.66082 0.17578 0.0
O113 O 0.08736 0.66097 0.17726 0.0
C114 C 0.04465 0.65766 0.31182 0.0
O115 O 0.03392 0.6484 0.27933 0.0
O116 O 0.08551 0.64457 0.26076 0.0
C117 C 0.38578 0.1021 0.72892 0.0
O118 O 0.36944 0.0849 0.73736 0.0
O119 O 0.38737 0.06323 0.7826 0.0
Zn120 Zn 0.40329 0.07703 0.73214 0.0
O121 O 0.39191 0.05933 0.68274 0.0
C122 C 0.43902 0.08103 0.77218 0.0
O123 O 0.42718 0.07418 0.8043 0.0
O124 O 0.40243 0.10244 0.72437 0.0
C125 C 0.39717 0.04631 0.67531 0.0
O126 O 0.4095 0.04452 0.70064 0.0
C127 C 0.3745 0.04454 0.78512 0.0
O128 O 0.37073 0.03293 0.75297 0.0
O129 O 0.43214 0.08377 0.73897 0.0
C130 C 0.2906 0.39885 0.22367 0.0
O131 O 0.29519 0.3902 0.19421 0.0
O132 O 0.32316 0.38469 0.30639 0.0
Zn133 Zn 0.32706 0.40357 0.25994 0.0
O134 O 0.33244 0.39415 0.20642 0.0
C135 C 0.3655 0.43352 0.29326 0.0
O136 O 0.36504 0.41768 0.30989 0.0
O137 O 0.30205 0.40569 0.25471 0.0
C138 C 0.34956 0.39661 0.19643 0.0
O139 O 0.36458 0.40482 0.22252 0.0
C140 C 0.32929 0.37202 0.30628 0.0
O141 O 0.33828 0.37024 0.27369 0.0
O142 O 0.35067 0.43114 0.27165 0.0
C143 C 0.88434 0.28641 0.76977 0.0
O144 O 0.90109 0.28785 0.78371 0.0
O145 O 0.92585 0.33357 0.80422 0.0
Zn146 Zn 0.91077 0.32814 0.75132 0.0
O147 O 0.92766 0.32775 0.70505 0.0
C148 C 0.89948 0.3576 0.77093 0.0
O149 O 0.89678 0.34927 0.8072 0.0
O150 O 0.88482 0.30185 0.75427 0.0
C151 C 0.94401 0.34397 0.69759 0.0
O152 O 0.94918 0.35979 0.72094 0.0
C153 C 0.93984 0.32955 0.81059 0.0
O154 O 0.9449 0.32108 0.78153 0.0
O155 O 0.90508 0.3507 0.74155 0.0
H156 H 0.05033 0.37548 0.13718 0.0
H157 H 0.03202 0.36077 0.07362 0.0
H158 H 0.99738 0.39052 0.09181 0.0
H159 H 0.01559 0.40531 0.1554 0.0
H160 H 0.97395 0.35011 0.06848 0.0
H161 H 0.03528 0.41007 0.02685 0.0
H162 H 0.07217 0.43239 0.02309 0.0
H163 H 0.07807 0.38522 0.96531 0.0
H164 H 0.04121 0.36251 0.96925 0.0
H165 H 0.93425 0.34897 0.87474 0.0
H166 H 0.95202 0.35807 0.93984 0.0
H167 H 0.9869 0.33073 0.90208 0.0
H168 H 0.96938 0.32184 0.83623 0.0
H169 H 0.01048 0.36676 0.93614 0.0
H170 H 0.94933 0.30752 0.97222 0.0
H171 H 0.91254 0.28465 0.97602 0.0
H172 H 0.9062 0.32902 0.04454 0.0
H173 H 0.94294 0.35229 0.04064 0.0
C174 C 0.03876 0.37884 0.12774 0.0
C175 C 0.03443 0.39161 0.15123 0.0
C176 C 0.02837 0.37047 0.0914 0.0
C177 C 0.01347 0.37468 0.07802 0.0
C178 C 0.00885 0.3871 0.10173 0.0
C179 C 0.01932 0.3956 0.13793 0.0
C180 C 0.00288 0.36645 0.0389 0.0
C181 C 0.98187 0.35386 0.03946 0.0
C182 C 0.01338 0.37086 0.00133 0.0
C183 C 0.03552 0.38452 -0.00123 0.0
C184 C 0.04446 0.4044 0.01366 0.0
C185 C 0.06536 0.41713 0.01144 0.0
C186 C 0.07747 0.4102 0.99409 0.0
C187 C 0.06868 0.39055 0.97881 0.0
C188 C 0.04779 0.37775 0.98101 0.0
C189 C 0.94563 0.34479 0.88026 0.0
C190 C 0.95037 0.33463 0.85034 0.0
C191 C 0.95571 0.34992 0.91761 0.0
C192 C 0.97057 0.34481 0.92602 0.0
C193 C 0.97542 0.33474 0.89621 0.0
C194 C 0.96537 0.32965 0.85867 0.0
C195 C 0.98143 0.35065 0.96553 0.0
C196 C 0.00252 0.36279 0.96512 0.0
C197 C 0.971 0.3457 0.00328 0.0
C198 C 0.94889 0.33172 0.00585 0.0
C199 C 0.94008 0.31247 0.98784 0.0
C200 C 0.91923 0.29942 0.99005 0.0
C201 C 0.90704 0.30539 0.01044 0.0
C202 C 0.91567 0.32441 0.02873 0.0
C203 C 0.93651 0.33753 0.02657 0.0
H204 H 0.8909 0.29526 0.01212 0.0
H205 H 0.09364 0.42008 0.99239 0.0
H206 H 0.64176 0.98995 0.32262 0.0
H207 H 0.65448 0.00548 0.38912 0.0
H208 H 0.63505 0.9468 0.4415 0.0
H209 H 0.62144 0.93111 0.37528 0.0
H210 H 0.62292 0.96506 0.48738 0.0
H211 H 0.6867 0.98425 0.42951 0.0
H212 H 0.71408 0.99806 0.37852 0.0
H213 H 0.71949 0.05646 0.39014 0.0
H214 H 0.69194 0.04294 0.44078 0.0
H215 H 0.66705 0.0125 0.67852 0.0
H216 H 0.66456 0.99525 0.61375 0.0
H217 H 0.6611 0.04227 0.54821 0.0
H218 H 0.6631 0.05935 0.61273 0.0
H219 H 0.68798 0.02774 0.5131 0.0
H220 H 0.61981 0.00484 0.56457 0.0
H221 H 0.59342 0.99005 0.61759 0.0
H222 H 0.59854 0.93669 0.61974 0.0
H223 H 0.62519 0.95132 0.56711 0.0
C224 C 0.64048 0.98038 0.34816 0.0
C225 C 0.63051 0.95931 0.34383 0.0
C226 C 0.6479 0.9893 0.38619 0.0
C227 C 0.64595 0.97735 0.42039 0.0
C228 C 0.63671 0.95634 0.41564 0.0
C229 C 0.62896 0.94739 0.37779 0.0
C230 C 0.65179 0.98661 0.46164 0.0
C231 C 0.63738 0.97849 0.49306 0.0
C232 C 0.67054 0.00428 0.46928 0.0
C233 C 0.68713 0.01252 0.43877 0.0
C234 C 0.69361 0.0 0.42097 0.0
C235 C 0.70919 0.00779 0.39216 0.0
C236 C 0.71849 0.02812 0.38104 0.0
C237 C 0.71227 0.04071 0.39877 0.0
C238 C 0.69669 0.033 0.42758 0.0
C239 C 0.66597 0.01925 0.65025 0.0
C240 C 0.6651 0.03716 0.65059 0.0
C241 C 0.66459 0.00941 0.61339 0.0
C242 C 0.66269 0.01756 0.57641 0.0
C243 C 0.66267 0.03586 0.57652 0.0
C244 C 0.66365 0.04549 0.61336 0.0
C245 C 0.65903 0.00626 0.53783 0.0
C246 C 0.67377 0.01406 0.50717 0.0
C247 C 0.64077 0.9881 0.531 0.0
C248 C 0.62465 0.97926 0.56233 0.0
C249 C 0.61544 0.99003 0.57664 0.0
C250 C 0.60041 0.98167 0.60655 0.0
C251 C 0.59435 0.96247 0.62213 0.0
C252 C 0.60327 0.95157 0.60771 0.0
C253 C 0.61833 0.95989 0.57784 0.0
H254 H 0.58272 0.95602 0.64528 0.0
H255 H 0.73055 0.03411 0.35874 0.0
H256 H 0.65462 0.68555 0.16324 0.0
H257 H 0.67064 0.68064 0.1028 0.0
H258 H 0.61405 0.62858 0.06896 0.0
H259 H 0.59794 0.63337 0.12889 0.0
H260 H 0.64724 0.62266 0.06124 0.0
H261 H 0.62757 0.67226 0.0254 0.0
H262 H 0.62813 0.70454 0.03412 0.0
H263 H 0.69239 0.73696 0.0174 0.0
H264 H 0.69223 0.70481 0.00915 0.0
H265 H 0.64329 0.60386 0.85302 0.0
H266 H 0.63871 0.61266 0.92207 0.0
H267 H 0.69829 0.66514 0.91907 0.0
H268 H 0.70294 0.65657 0.84923 0.0
H269 H 0.67106 0.67393 0.95082 0.0
H270 H 0.69024 0.62485 0.97499 0.0
H271 H 0.69009 0.5928 0.96601 0.0
H272 H 0.62838 0.5598 0.00563 0.0
H273 H 0.62804 0.59163 0.01425 0.0
C274 C 0.64565 0.67296 0.14309 0.0
C275 C 0.625 0.65991 0.15063 0.0
C276 C 0.65481 0.67022 0.10861 0.0
C277 C 0.64347 0.65431 0.08144 0.0
C278 C 0.62304 0.64092 0.08965 0.0
C279 C 0.61385 0.64375 0.12378 0.0
C280 C 0.65243 0.65193 0.04334 0.0
C281 C 0.65244 0.63382 0.03702 0.0
C282 C 0.65986 0.66685 0.01246 0.0
C283 C 0.65992 0.68614 0.0172 0.0
C284 C 0.64184 0.68626 0.02394 0.0
C285 C 0.64208 0.70453 0.02873 0.0
C286 C 0.66029 0.72279 0.02646 0.0
C287 C 0.6783 0.72281 0.01925 0.0
C288 C 0.67814 0.70457 0.01451 0.0
C289 C 0.65547 0.61728 0.86694 0.0
C290 C 0.67352 0.62949 0.84568 0.0
C291 C 0.65286 0.62222 0.90656 0.0
C292 C 0.66831 0.63934 0.92596 0.0
C293 C 0.68625 0.65178 0.90469 0.0
C294 C 0.68887 0.64686 0.86485 0.0
C295 C 0.66522 0.64431 0.96809 0.0
C296 C 0.66632 0.66291 0.97526 0.0
C297 C 0.65895 0.62989 -0.0001 0.0
C298 C 0.65909 0.61066 0.99506 0.0
C299 C 0.67659 0.61075 0.98154 0.0
C300 C 0.6766 0.59262 0.97654 0.0
C301 C 0.65923 0.57427 0.98519 0.0
C302 C 0.64183 0.57402 -0.00106 0.0
C303 C 0.64172 0.59211 0.00395 0.0
H304 H 0.65927 0.56025 0.9813 0.0
H305 H 0.66045 0.73692 0.03016 0.0
H306 H 0.00422 0.63758 0.32892 0.0
H307 H 0.98816 0.63482 0.39502 0.0
H308 H 0.04645 0.67363 0.44916 0.0
H309 H 0.06264 0.6762 0.38344 0.0
H310 H 0.02557 0.64107 0.49418 0.0
H311 H 0.01298 0.6902 0.43318 0.0
H312 H 0.00143 0.70509 0.38042 0.0
H313 H 0.94085 0.65562 0.39276 0.0
H314 H 0.95209 0.64026 0.44522 0.0
H315 H 0.98589 0.64939 0.6849 0.0
H316 H 0.00254 0.65971 0.61823 0.0
H317 H 0.94832 0.61424 0.55939 0.0
H318 H 0.93163 0.60367 0.62585 0.0
H319 H 0.96818 0.65273 0.51826 0.0
H320 H 0.98218 0.60277 0.5756 0.0
H321 H 0.99412 0.58862 0.62919 0.0
H322 H 0.05304 0.64133 0.62397 0.0
H323 H 0.04134 0.65594 0.57074 0.0
C324 C 0.0136 0.64567 0.3548 0.0
C325 C 0.03471 0.65703 0.35097 0.0
C326 C 0.0044 0.64417 0.39253 0.0
C327 C 0.01611 0.65414 0.42697 0.0
C328 C 0.03714 0.6658 0.42299 0.0
C329 C 0.04635 0.66726 0.38537 0.0
C330 C 0.00656 0.6514 0.46764 0.0
C331 C 0.01327 0.644 0.49957 0.0
C332 C 0.99026 0.65484 0.47451 0.0
C333 C 0.98342 0.66398 0.44287 0.0
C334 C 0.99723 0.6824 0.42439 0.0
C335 C 0.99073 0.69094 0.39459 0.0
C336 C 0.97043 0.68128 0.38317 0.0
C337 C 0.95657 0.66307 0.4016 0.0
C338 C 0.963 0.65445 0.43141 0.0
C339 C 0.97745 0.64174 0.65773 0.0
C340 C 0.95752 0.62562 0.66058 0.0
C341 C 0.98697 0.64764 0.61974 0.0
C342 C 0.97664 0.63764 0.58407 0.0
C343 C 0.95649 0.62213 0.58664 0.0
C344 C 0.94705 0.61605 0.62462 0.0
C345 C 0.98722 0.64241 0.54436 0.0
C346 C 0.98064 0.65007 0.51274 0.0
C347 C 0.00374 0.63934 0.53774 0.0
C348 C 0.01082 0.63055 0.56957 0.0
C349 C -0.00237 0.61142 0.58616 0.0
C350 C 0.00436 0.60331 0.61641 0.0
C351 C 0.02431 0.6141 0.63007 0.0
C352 C 0.03758 0.63301 0.61342 0.0
C353 C 0.03091 0.64121 0.5832 0.0
H354 H 0.0295 0.60778 0.65349 0.0
H355 H 0.96542 0.68793 0.3601 0.0
H356 H 0.37432 0.06464 0.85384 0.0
H357 H 0.36235 0.05048 0.92177 0.0
H358 H 0.34243 0.99073 0.87485 0.0
H359 H 0.35386 0.00471 0.80654 0.0
H360 H 0.31654 0.9899 0.93129 0.0
H361 H 0.38873 0.0186 0.91948 0.0
H362 H 0.42345 0.04585 0.90515 0.0
H363 H 0.41874 0.08195 0.00025 0.0
H364 H 0.38386 0.05502 0.0147 0.0
H365 H 0.32659 0.9371 0.09771 0.0
H366 H 0.32819 0.95434 0.03405 0.0
H367 H 0.34399 0.00885 0.10091 0.0
H368 H 0.34254 0.99171 0.16506 0.0
H369 H 0.36968 0.01526 0.03802 0.0
H370 H 0.29843 0.98327 0.05596 0.0
H371 H 0.26411 0.95514 0.0696 0.0
H372 H 0.26732 0.92407 0.96315 0.0
H373 H 0.30179 0.95188 0.94917 0.0
C374 C 0.36716 0.04845 0.85787 0.0
C375 C 0.36528 0.0358 0.825 0.0
C376 C 0.36034 0.0404 0.8967 0.0
C377 C 0.35187 0.01961 0.90348 0.0
C378 C 0.34898 0.00683 0.87028 0.0
C379 C 0.35559 0.01485 0.8313 0.0
C380 C 0.34751 0.01135 0.94549 0.0
C381 C 0.32815 0.99536 0.95463 0.0
C382 C 0.36257 0.01882 0.97615 0.0
C383 C 0.38363 0.0349 0.96785 0.0
C384 C 0.39506 0.03241 0.93715 0.0
C385 C 0.41477 0.04779 0.92902 0.0
C386 C 0.42327 0.06564 0.9517 0.0
C387 C 0.41212 0.06813 0.98265 0.0
C388 C 0.39238 0.05281 0.99083 0.0
C389 C 0.33021 0.95271 0.09901 0.0
C390 C 0.33455 0.96308 0.13643 0.0
C391 C 0.33097 0.96249 0.06258 0.0
C392 C 0.33602 0.98281 0.06283 0.0
C393 C 0.33998 0.99313 0.10016 0.0
C394 C 0.33913 0.98331 0.13673 0.0
C395 C 0.33878 0.99357 0.02373 0.0
C396 C 0.35791 0.01002 0.01503 0.0
C397 C 0.32355 0.98638 0.99346 0.0
C398 C 0.30277 0.96963 0.00167 0.0
C399 C 0.29189 0.97038 0.03562 0.0
C400 C 0.27239 0.9545 0.04338 0.0
C401 C 0.26355 0.93782 0.01729 0.0
C402 C 0.27419 0.937 0.98333 0.0
C403 C 0.2937 0.95283 0.97544 0.0
H404 H 0.24845 0.92554 0.02336 0.0
H405 H 0.43853 0.07754 0.94536 0.0
H406 H 0.30501 0.36497 0.37254 0.0
H407 H 0.3075 0.35189 0.43909 0.0
H408 H 0.3558 0.34362 0.39348 0.0
H409 H 0.35276 0.35583 0.32646 0.0
H410 H 0.33412 0.31469 0.44467 0.0
H411 H 0.3645 0.38711 0.44591 0.0
H412 H 0.36522 0.41946 0.4369 0.0
H413 H 0.31848 0.40179 0.52682 0.0
H414 H 0.3173 0.3692 0.53594 0.0
H415 H 0.39693 0.3344 0.61756 0.0
H416 H 0.38174 0.33557 0.55279 0.0
H417 H 0.32951 0.32888 0.61692 0.0
H418 H 0.34451 0.32739 0.68214 0.0
H419 H 0.34786 0.36193 0.56006 0.0
H420 H 0.32282 0.29077 0.5649 0.0
H421 H 0.32536 0.26012 0.57357 0.0
H422 H 0.36606 0.27752 0.47172 0.0
H423 H 0.36401 0.30844 0.46281 0.0
C424 C 0.31592 0.36003 0.37656 0.0
C425 C 0.32887 0.36164 0.34452 0.0
C426 C 0.31738 0.35263 0.41462 0.0
C427 C 0.33218 0.34725 0.42157 0.0
C428 C 0.34431 0.34775 0.38889 0.0
C429 C 0.3426 0.35478 0.35061 0.0
C430 C 0.33618 0.34266 0.46339 0.0
C431 C 0.33718 0.32505 0.46985 0.0
C432 C 0.33987 0.35602 0.49649 0.0
C433 C 0.34064 0.37564 0.49124 0.0
C434 C 0.35428 0.39008 0.46355 0.0
C435 C 0.35478 0.40845 0.45845 0.0
C436 C 0.34186 0.41265 0.48119 0.0
C437 C 0.32845 0.3985 0.50917 0.0
C438 C 0.32786 0.38007 0.51432 0.0
C439 C 0.38217 0.33307 0.61793 0.0
C440 C 0.37192 0.33086 0.65492 0.0
C441 C 0.37347 0.33361 0.5809 0.0
C442 C 0.35447 0.33214 0.5802 0.0
C443 C 0.34415 0.32992 0.61698 0.0
C444 C 0.35273 0.32906 0.6541 0.0
C445 C 0.34609 0.33417 0.54102 0.0
C446 C 0.34437 0.35137 0.53505 0.0
C447 C 0.34218 0.32066 0.50826 0.0
C448 C 0.34336 0.30201 0.51337 0.0
C449 C 0.33243 0.28815 0.54455 0.0
C450 C 0.33376 0.27071 0.54947 0.0
C451 C 0.34589 0.26689 0.52326 0.0
C452 C 0.35667 0.2805 0.49201 0.0
C453 C 0.35541 0.29797 0.48698 0.0
H454 H 0.3469 0.25338 0.52712 0.0
H455 H 0.34227 0.42689 0.4772 0.0
H456 H 0.98848 0.60192 0.82273 0.0
H457 H 0.00922 0.61411 0.88422 0.0
H458 H 0.96764 0.63056 0.93624 0.0
H459 H 0.94696 0.61872 0.87449 0.0
H460 H 0.00616 0.65905 0.95141 0.0
H461 H 0.96584 0.58722 0.96451 0.0
H462 H 0.95161 0.55177 0.9431 0.0
H463 H 0.01113 0.55952 0.93773 0.0
H464 H 0.02575 0.59512 0.95856 0.0
H465 H 0.03593 0.66265 0.16017 0.0
H466 H 0.01699 0.6545 0.09602 0.0
H467 H 0.06013 0.64147 0.03954 0.0
H468 H 0.07915 0.64959 0.10333 0.0
H469 H 0.02069 0.61156 0.02702 0.0
H470 H 0.06076 0.68369 0.01543 0.0
H471 H 0.07437 0.71888 0.03802 0.0
H472 H 0.01445 0.71015 0.04239 0.0
H473 H 0.00044 0.67479 0.02039 0.0
C474 C 0.98379 0.60823 0.84713 0.0
C475 C 0.96599 0.6092 0.84388 0.0
C476 C 0.99563 0.61514 0.8823 0.0
C477 C 0.98979 0.62294 0.91503 0.0
C478 C 0.97238 0.62453 0.91136 0.0
C479 C 0.96056 0.6177 0.87611 0.0
C480 C 0.00153 0.62888 0.95352 0.0
C481 C 0.00914 0.6486 0.96824 0.0
C482 C 0.00565 0.61532 0.97509 0.0
C483 C 0.9969 0.59389 0.9627 0.0
C484 C 0.97591 0.58141 0.95845 0.0
C485 C 0.96777 0.56128 0.94647 0.0
C486 C 0.98046 0.55341 0.93895 0.0
C487 C 0.00132 0.56565 0.94351 0.0
C488 C 0.00954 0.5858 0.95543 0.0
C489 C 0.04144 0.65816 0.13402 0.0
C490 C 0.05902 0.65674 0.13682 0.0
C491 C 0.03065 0.65358 0.0974 0.0
C492 C 0.03724 0.64748 0.06307 0.0
C493 C 0.05482 0.64616 0.06573 0.0
C494 C 0.06569 0.65086 0.10218 0.0
C495 C 0.02544 0.64175 0.02474 0.0
C496 C 0.01775 0.62202 0.01014 0.0
C497 C 0.02115 0.65526 0.00351 0.0
C498 C 0.02954 0.67652 0.01668 0.0
C499 C 0.05046 0.68921 0.02157 0.0
C500 C 0.05825 0.7092 0.03419 0.0
C501 C 0.04527 0.71673 0.04175 0.0
C502 C 0.02448 0.70429 0.03659 0.0
C503 C 0.01661 0.68428 0.02401 0.0
H504 H 0.05133 0.73221 0.05151 0.0
H505 H 0.97413 0.53783 0.92969 0.0
H506 H 0.36187 0.92713 0.37393 0.0
H507 H 0.3686 0.94606 0.43751 0.0
H508 H 0.3398 0.97772 0.38881 0.0
H509 H 0.33354 0.95922 0.32451 0.0
H510 H 0.37362 0.00321 0.42478 0.0
H511 H 0.3166 0.93993 0.46191 0.0
H512 H 0.29653 0.90291 0.46867 0.0
H513 H 0.34215 0.90348 0.54583 0.0
H514 H 0.36263 0.94048 0.53909 0.0
H515 H 0.37241 0.04686 0.61576 0.0
H516 H 0.36103 0.02631 0.55378 0.0
H517 H 0.39375 0.99641 0.58939 0.0
H518 H 0.40508 0.01677 0.65158 0.0
H519 H 0.35579 0.9699 0.5605 0.0
H520 H 0.41336 0.03323 0.51956 0.0
H521 H 0.43301 0.07027 0.51268 0.0
H522 H 0.38515 0.06934 0.4426 0.0
H523 H 0.36509 0.0323 0.44954 0.0
C524 C 0.35686 0.93803 0.37681 0.0
C525 C 0.34713 0.94166 0.34428 0.0
C526 C 0.36063 0.94878 0.41327 0.0
C527 C 0.35442 0.96309 0.41817 0.0
C528 C 0.34467 0.96672 0.38572 0.0
C529 C 0.34109 0.95612 0.34905 0.0
C530 C 0.35876 0.97475 0.45665 0.0
C531 C 0.36939 0.9959 0.45441 0.0
C532 C 0.35357 0.96523 0.49536 0.0
C533 C 0.34122 0.94298 0.49972 0.0
C534 C 0.32242 0.93215 0.4801 0.0
C535 C 0.31096 0.91117 0.48396 0.0
C536 C 0.31808 0.90085 0.50759 0.0
C537 C 0.33666 0.91149 0.52751 0.0
C538 C 0.34819 0.93247 0.52372 0.0
C539 C 0.37713 0.03587 0.61049 0.0
C540 C 0.38973 0.03351 0.63847 0.0
C541 C 0.37065 0.02418 0.57504 0.0
C542 C 0.37672 0.01 0.5669 0.0
C543 C 0.38892 0.00729 0.59518 0.0
C544 C 0.39543 0.01899 0.6306 0.0
C545 C 0.37073 0.99826 0.52848 0.0
C546 C 0.35982 0.97713 0.53078 0.0
C547 C 0.37555 0.00778 0.48982 0.0
C548 C 0.38764 0.03003 0.48544 0.0
C549 C 0.40696 0.04094 0.50296 0.0
C550 C 0.41818 0.06193 0.499 0.0
C551 C 0.41031 0.07216 0.47732 0.0
C552 C 0.39122 0.06141 0.45944 0.0
C553 C 0.37992 0.04042 0.46335 0.0
H554 H 0.41902 0.08841 0.47429 0.0
H555 H 0.30919 0.88461 0.51053 0.0
H556 H 0.37474 0.37096 0.81456 0.0
H557 H 0.36395 0.37696 0.88092 0.0
H558 H 0.39369 0.34877 0.94111 0.0
H559 H 0.40366 0.34193 0.87494 0.0
H560 H 0.36024 0.33756 0.97741 0.0
H561 H 0.41465 0.40174 0.93412 0.0
H562 H 0.43308 0.43079 0.88793 0.0
H563 H 0.38427 0.44318 0.89346 0.0
H564 H 0.36543 0.41402 0.93929 0.0
H565 H 0.37868 0.38827 0.172 0.0
H566 H 0.38403 0.37924 0.10307 0.0
H567 H 0.33335 0.38369 0.05895 0.0
H568 H 0.32749 0.39213 0.12795 0.0
H569 H 0.3752 0.40657 0.01452 0.0
H570 H 0.32199 0.34153 0.06236 0.0
H571 H 0.30649 0.31361 0.11201 0.0
H572 H 0.35729 0.3045 0.10131 0.0
H573 H 0.37324 0.3326 0.05204 0.0
C574 C 0.37888 0.36598 0.84198 0.0
C575 C 0.39011 0.35608 0.83963 0.0
C576 C 0.3728 0.3695 0.87989 0.0
C577 C 0.37832 0.36365 0.91612 0.0
C578 C 0.38924 0.35343 0.91365 0.0
C579 C 0.39498 0.34957 0.87579 0.0
C580 C 0.37301 0.36833 0.95669 0.0
C581 C 0.36368 0.35271 0.98549 0.0
C582 C 0.37725 0.38803 0.96729 0.0
C583 C 0.38854 0.40557 0.93975 0.0
C584 C 0.40779 0.41057 0.92523 0.0
C585 C 0.41832 0.42706 0.89916 0.0
C586 C 0.40983 0.43878 0.88767 0.0
C587 C 0.39081 0.43406 0.90232 0.0
C588 C 0.3802 0.41756 0.92837 0.0
C589 C 0.36864 0.38723 0.14764 0.0
C590 C 0.35265 0.39084 0.15526 0.0
C591 C 0.37169 0.38207 0.10843 0.0
C592 C 0.35904 0.38082 0.07625 0.0
C593 C 0.3432 0.38458 0.0836 0.0
C594 C 0.33985 0.3893 0.12296 0.0
C595 C 0.36263 0.37586 0.03472 0.0
C596 C 0.37166 0.39144 0.00598 0.0
C597 C 0.35852 0.35626 0.02445 0.0
C598 C 0.34891 0.33931 0.05389 0.0
C599 C 0.32995 0.33371 0.07093 0.0
C600 C 0.32106 0.31782 0.09892 0.0
C601 C 0.33092 0.30733 0.10991 0.0
C602 C 0.34968 0.31267 0.09282 0.0
C603 C 0.35864 0.32856 0.06484 0.0
H604 H 0.32401 0.29503 0.13158 0.0
H605 H 0.418 0.45155 0.86749 0.0
H606 H 0.97657 0.37776 0.66735 0.0
H607 H 0.99425 0.38112 0.6033 0.0
H608 H 0.95709 0.31713 0.58198 0.0
H609 H 0.93893 0.31371 0.6457 0.0
H610 H 0.01619 0.36671 0.57074 0.0
H611 H 0.94652 0.30988 0.48002 0.0
H612 H 0.9094 0.29383 0.48233 0.0
H613 H 0.91448 0.34532 0.54565 0.0
H614 H 0.9516 0.36175 0.54325 0.0
H615 H 0.04979 0.36897 0.36629 0.0
H616 H 0.0328 0.35501 0.43152 0.0
H617 H 0.99695 0.38357 0.41459 0.0
H618 H 0.01344 0.39714 0.34932 0.0
H619 H 0.97446 0.34699 0.44495 0.0
H620 H 0.04001 0.40514 0.47358 0.0
H621 H 0.07719 0.42489 0.47115 0.0
H622 H 0.08051 0.37696 0.53205 0.0
H623 H 0.04332 0.35682 0.53437 0.0
C624 C 0.97227 0.36435 0.64929 0.0
C625 C 0.95616 0.34552 0.66128 0.0
C626 C 0.98248 0.36628 0.61276 0.0
C627 C 0.97681 0.34942 0.58762 0.0
C628 C 0.96148 0.33039 0.60063 0.0
C629 C 0.95114 0.32847 0.63705 0.0
C630 C 0.98597 0.35225 0.54656 0.0
C631 C 0.00707 0.36219 0.54323 0.0
C632 C 0.97408 0.34651 0.51065 0.0
C633 C 0.95179 0.33689 0.5119 0.0
C634 C 0.93969 0.31777 0.49435 0.0
C635 C 0.91866 0.30862 0.49567 0.0
C636 C 0.90959 0.31852 0.51427 0.0
C637 C 0.92152 0.33763 0.53141 0.0
C638 C 0.94255 0.34686 0.5301 0.0
C639 C 0.03815 0.3721 0.37632 0.0
C640 C 0.03306 0.38429 0.35281 0.0
C641 C 0.0285 0.36415 0.41361 0.0
C642 C 0.01377 0.36844 0.42808 0.0
C643 C 0.00824 0.38003 0.40397 0.0
C644 C 0.01777 0.38787 0.36672 0.0
C645 C 0.00468 0.36181 0.46911 0.0
C646 C 0.98358 0.35108 0.47244 0.0
C647 C 0.01659 0.36729 0.50498 0.0
C648 C 0.03892 0.3794 0.5037 0.0
C649 C 0.04868 0.39876 0.48617 0.0
C650 C 0.06974 0.41003 0.48486 0.0
C651 C 0.0812 0.40216 0.50132 0.0
C652 C 0.07161 0.38302 0.51923 0.0
C653 C 0.05055 0.37168 0.52056 0.0
H654 H 0.09751 0.41091 0.50028 0.0
H655 H 0.89331 0.3114 0.5153 0.0
H656 H 0.65269 0.05373 0.8698 0.0
H657 H 0.64762 0.03718 0.93566 0.0
H658 H 0.62047 0.97916 0.8758 0.0
H659 H 0.62477 0.99571 0.80951 0.0
H660 H 0.59901 0.9766 0.93817 0.0
H661 H 0.6691 0.00198 0.91957 0.0
H662 H 0.70451 0.02693 0.90384 0.0
H663 H 0.70635 0.06304 0.00595 0.0
H664 H 0.67085 0.03845 0.02199 0.0
H665 H 0.60357 0.92965 0.12535 0.0
H666 H 0.6126 0.94354 0.05618 0.0
H667 H 0.61956 -2e-05 0.09883 0.0
H668 H 0.61005 0.98607 0.16799 0.0
H669 H 0.65251 0.00063 0.04402 0.0
H670 H 0.58006 0.97559 0.05471 0.0
H671 H 0.54496 0.94933 0.06925 0.0
H672 H 0.54921 0.91033 0.98044 0.0
H673 H 0.58441 0.93637 0.96546 0.0
C674 C 0.64578 0.03745 0.87055 0.0
C675 C 0.63916 0.02601 0.83448 0.0
C676 C 0.64302 0.028 0.90828 0.0
C677 C 0.63402 0.00693 0.91072 0.0
C678 C 0.62752 0.99545 0.87466 0.0
C679 C 0.63 0.0049 0.83684 0.0
C680 C 0.63048 0.99696 0.95117 0.0
C681 C 0.61086 0.98163 0.96093 0.0
C682 C 0.64584 0.0036 0.98121 0.0
C683 C 0.66725 0.01842 0.9718 0.0
C684 C 0.67701 0.01531 0.93852 0.0
C685 C 0.6971 0.02938 0.92956 0.0
C686 C 0.70766 0.04658 0.95383 0.0
C687 C 0.69815 0.04971 0.98717 0.0
C688 C 0.67805 0.0357 0.99624 0.0
C689 C 0.60716 0.94507 0.12007 0.0
C690 C 0.60608 0.95679 0.15199 0.0
C691 C 0.61228 0.95293 0.08061 0.0
C692 C 0.6167 0.97272 0.07267 0.0
C693 C 0.61621 0.98467 0.10461 0.0
C694 C 0.61072 0.97669 0.14395 0.0
C695 C 0.62113 0.98071 0.03067 0.0
C696 C 0.64086 0.99558 0.02082 0.0
C697 C 0.60601 0.97344 0.00033 0.0
C698 C 0.5849 0.9578 0.00933 0.0
C699 C 0.57356 0.96134 0.03857 0.0
C700 C 0.55364 0.94652 0.04683 0.0
C701 C 0.5449 0.92813 0.02597 0.0
C702 C 0.55602 0.92456 0.99665 0.0
C703 C 0.57594 0.93936 0.98819 0.0
H704 H 0.52947 0.91667 0.03243 0.0
H705 H 0.72321 0.05745 0.94684 0.0
H706 H 0.56936 0.6583 0.39236 0.0
H707 H 0.58364 0.65627 0.45763 0.0
H708 H 0.63896 0.66929 0.39705 0.0
H709 H 0.6246 0.67088 0.33146 0.0
H710 H 0.62595 0.63723 0.4436 0.0
H711 H 0.63646 0.70377 0.46204 0.0
H712 H 0.62708 0.73024 0.46353 0.0
H713 H 0.5836 0.6982 0.55777 0.0
H714 H 0.59252 0.67138 0.55646 0.0
H715 H 0.67431 0.63705 0.62572 0.0
H716 H 0.66717 0.65073 0.56465 0.0
H717 H 0.60878 0.63518 0.61337 0.0
H718 H 0.6159 0.62175 0.67489 0.0
H719 H 0.6262 0.67135 0.57272 0.0
H720 H 0.613 0.60355 0.54886 0.0
H721 H 0.62156 0.57649 0.54717 0.0
H722 H 0.66952 0.61082 0.4623 0.0
H723 H 0.6614 0.63823 0.46394 0.0
C724 C 0.58467 0.661 0.39298 0.0
C725 C 0.59581 0.66462 0.35673 0.0
C726 C 0.59286 0.65996 0.43038 0.0
C727 C 0.61243 0.66279 0.43227 0.0
C728 C 0.62382 0.66706 0.39627 0.0
C729 C 0.6156 0.66796 0.35883 0.0
C730 C 0.62033 0.65955 0.47111 0.0
C731 C 0.62641 0.64504 0.47162 0.0
C732 C 0.6204 0.66932 0.50791 0.0
C733 C 0.61506 0.68548 0.50892 0.0
C734 C 0.62479 0.70229 0.48287 0.0
C735 C 0.61958 0.71737 0.48372 0.0
C736 C 0.60473 0.71588 0.51067 0.0
C737 C 0.5951 0.69933 0.5369 0.0
C738 C 0.60025 0.68419 0.53615 0.0
C739 C 0.66005 0.63678 0.62372 0.0
C740 C 0.64555 0.62806 0.65489 0.0
C741 C 0.656 0.64459 0.5888 0.0
C742 C 0.63733 0.64365 0.58427 0.0
C743 C 0.62327 0.636 0.61628 0.0
C744 C 0.62734 0.62825 0.65132 0.0
C745 C 0.63178 0.6491 0.54495 0.0
C746 C 0.62602 0.66385 0.54446 0.0
C747 C 0.63192 0.63953 0.50806 0.0
C748 C 0.63674 0.62302 0.50688 0.0
C749 C 0.62547 0.60539 0.53008 0.0
C750 C 0.63023 0.58998 0.5291 0.0
C751 C 0.64611 0.59196 0.50474 0.0
C752 C 0.65724 0.60933 0.48122 0.0
C753 C 0.65256 0.6248 0.48214 0.0
H754 H 0.64977 0.58001 0.50401 0.0
H755 H 0.60071 0.72758 0.51127 0.0
H756 H 0.06542 0.59758 0.33686 0.0
H757 H 0.07102 0.56903 0.32845 0.0
H758 H 0.10654 0.59666 0.22044 0.0
H759 H 0.10085 0.62518 0.22832 0.0
H760 H 0.07901 0.5576 0.20756 0.0
H761 H 0.12922 0.59538 0.30821 0.0
H762 H 0.14251 0.61398 0.37277 0.0
H763 H 0.10274 0.56074 0.4409 0.0
H764 H 0.08899 0.54188 0.37672 0.0
H765 H 0.10928 0.48399 0.18751 0.0
H766 H 0.11095 0.51654 0.19655 0.0
H767 H 0.07536 0.49451 0.30649 0.0
H768 H 0.07386 0.46214 0.29807 0.0
H769 H 0.10594 0.53253 0.31646 0.0
H770 H 0.05388 0.49571 0.21675 0.0
H771 H 0.03992 0.47685 0.15267 0.0
H772 H 0.08263 0.52823 0.08334 0.0
H773 H 0.09704 0.5473 0.1471 0.0
C774 C 0.07455 0.59767 0.31149 0.0
C775 C 0.08267 0.61364 0.28325 0.0
C776 C 0.07781 0.58138 0.30683 0.0
C777 C 0.08934 0.58082 0.274 0.0
C778 C 0.09762 0.59682 0.246 0.0
C779 C 0.09439 0.61313 0.25064 0.0
C780 C 0.09195 0.56307 0.26789 0.0
C781 C 0.08525 0.55233 0.23108 0.0
C782 C 0.09969 0.55598 0.29893 0.0
C783 C 0.10796 0.56726 0.33762 0.0
C784 C 0.12319 0.58768 0.33695 0.0
C785 C 0.13083 0.59826 0.37348 0.0
C786 C 0.12344 0.58856 0.41091 0.0
C787 C 0.10843 0.56824 0.41188 0.0
C788 C 0.10073 0.55759 0.37543 0.0
C789 C 0.10192 0.48612 0.21373 0.0
C790 C 0.09134 0.47044 0.24193 0.0
C791 C 0.10283 0.5047 0.21879 0.0
C792 C 0.09309 0.50785 0.25197 0.0
C793 C 0.08299 0.4924 0.28069 0.0
C794 C 0.08209 0.47387 0.27571 0.0
C795 C 0.09283 0.52698 0.25632 0.0
C796 C 0.09992 0.53795 0.2928 0.0
C797 C 0.08538 0.53426 0.22504 0.0
C798 C 0.07669 0.52284 0.1867 0.0
C799 C 0.0604 0.50292 0.18785 0.0
C800 C 0.05239 0.49221 0.15159 0.0
C801 C 0.06042 0.50131 0.11396 0.0
C802 C 0.07645 0.52118 0.11252 0.0
C803 C 0.08454 0.53195 0.1487 0.0
H804 H 0.0542 0.49299 0.08592 0.0
H805 H 0.12937 0.59678 0.43916 0.0
H806 H 0.46717 0.09483 0.71116 0.0
H807 H 0.50014 0.09708 0.71164 0.0
H808 H 0.49038 0.07578 0.83613 0.0
H809 H 0.45746 0.07373 0.83618 0.0
H810 H 0.52908 0.10639 0.82348 0.0
H811 H 0.48188 0.04362 0.75846 0.0
H812 H 0.45593 0.0227 0.70776 0.0
H813 H 0.49745 0.05438 0.61033 0.0
H814 H 0.52356 0.07571 0.66048 0.0
H815 H 0.59964 0.0728 0.83756 0.0
H816 H 0.56946 0.07592 0.83674 0.0
H817 H 0.57908 0.09178 0.70893 0.0
H818 H 0.609 0.08803 0.70923 0.0
H819 H 0.54114 0.06556 0.72154 0.0
H820 H 0.58895 0.12746 0.78575 0.0
H821 H 0.61492 0.14896 0.83589 0.0
H822 H 0.5728 0.11986 0.9338 0.0
H823 H 0.54665 0.09799 0.88428 0.0
C824 C 0.47208 0.09078 0.73879 0.0
C825 C 0.45961 0.08393 0.77353 0.0
C826 C 0.49091 0.09203 0.73895 0.0
C827 C 0.49755 0.0863 0.77371 0.0
C828 C 0.48549 0.08021 0.80896 0.0
C829 C 0.46667 0.079 0.80888 0.0
C830 C 0.51667 0.08586 0.77276 0.0
C831 C 0.53168 0.09732 0.80149 0.0
C832 C 0.52019 0.07441 0.74337 0.0
C833 C 0.5046 0.06138 0.71321 0.0
C834 C 0.48543 0.04621 0.72622 0.0
C835 C 0.4707 0.03427 0.69759 0.0
C836 C 0.47502 0.03725 0.65585 0.0
C837 C 0.49411 0.05212 0.64267 0.0
C838 C 0.50889 0.06412 0.67118 0.0
C839 C 0.59541 0.07706 0.80931 0.0
C840 C 0.60673 0.08022 0.77347 0.0
C841 C 0.5782 0.07895 0.80894 0.0
C842 C 0.57217 0.08441 0.77294 0.0
C843 C 0.58347 0.0876 0.7371 0.0
C844 C 0.60058 0.08548 0.73732 0.0
C845 C 0.55366 0.08607 0.77238 0.0
C846 C 0.53868 0.07478 0.7434 0.0
C847 C 0.55023 0.09776 0.80145 0.0
C848 C 0.56589 0.11097 0.8313 0.0
C849 C 0.58527 0.12555 0.81799 0.0
C850 C 0.60001 0.13782 0.8463 0.0
C851 C 0.59553 0.13575 0.88801 0.0
C852 C 0.57626 0.12144 0.90149 0.0
C853 C 0.56147 0.10912 0.8733 0.0
H854 H 0.60696 0.14526 0.90988 0.0
H855 H 0.46359 0.028 0.63372 0.0
H856 H 0.51476 0.61309 0.23774 0.0
H857 H 0.48263 0.58206 0.24887 0.0
H858 H 0.51449 0.55136 0.28512 0.0
H859 H 0.54666 0.58221 0.27355 0.0
H860 H 0.48441 0.52875 0.23354 0.0
H861 H 0.49229 0.56636 0.35587 0.0
H862 H 0.49811 0.59592 0.39654 0.0
H863 H 0.44484 0.59258 0.34556 0.0
H864 H 0.43887 0.56316 0.3041 0.0
H865 H 0.40261 0.44216 0.32094 0.0
H866 H 0.43407 0.47448 0.31696 0.0
H867 H 0.40194 0.50229 0.26621 0.0
H868 H 0.37035 0.46997 0.26976 0.0
H869 H 0.4318 0.52635 0.32592 0.0
H870 H 0.42451 0.48885 0.2029 0.0
H871 H 0.41866 0.45892 0.16355 0.0
H872 H 0.47123 0.46197 0.21748 0.0
H873 H 0.47719 0.49173 0.25773 0.0
C874 C 0.51494 0.59974 0.24808 0.0
C875 C 0.53326 0.60012 0.25482 0.0
C876 C 0.49656 0.58205 0.25461 0.0
C877 C 0.49618 0.56447 0.26825 0.0
C878 C 0.51445 0.56477 0.27464 0.0
C879 C 0.53282 0.58243 0.26809 0.0
C880 C 0.47675 0.54567 0.2753 0.0
C881 C 0.47304 0.52818 0.25418 0.0
C882 C 0.46174 0.54503 0.30159 0.0
C883 C 0.46525 0.56268 0.32656 0.0
C884 C 0.48191 0.57203 0.35307 0.0
C885 C 0.48522 0.58874 0.37631 0.0
C886 C 0.47188 0.59616 0.37355 0.0
C887 C 0.45518 0.58684 0.34762 0.0
C888 C 0.45181 0.57014 0.32426 0.0
C889 C 0.40216 0.4552 0.30944 0.0
C890 C 0.38402 0.45348 0.29532 0.0
C891 C 0.42015 0.47362 0.30712 0.0
C892 C 0.42029 0.49065 0.29092 0.0
C893 C 0.40209 0.48927 0.27874 0.0
C894 C 0.3841 0.47079 0.28066 0.0
C895 C 0.43961 0.50954 0.28434 0.0
C896 C 0.44324 0.527 0.3054 0.0
C897 C 0.4546 0.51016 0.25813 0.0
C898 C 0.45117 0.49239 0.23366 0.0
C899 C 0.43472 0.48303 0.20664 0.0
C900 C 0.4314 0.46612 0.18413 0.0
C901 C 0.44453 0.45851 0.18809 0.0
C902 C 0.46105 0.46785 0.2145 0.0
C903 C 0.46441 0.48475 0.23716 0.0
H904 H 0.44194 0.44541 0.17064 0.0
H905 H 0.47447 0.6091 0.39158 0.0
H906 H 0.91025 0.5246 0.66498 0.0
H907 H 0.90579 0.4908 0.67186 0.0
H908 H 0.89665 0.49229 0.8016 0.0
H909 H 0.90146 0.52619 0.79514 0.0
H910 H 0.92284 0.48006 0.78648 0.0
H911 H 0.85729 0.46312 0.73667 0.0
H912 H 0.83297 0.46464 0.68953 0.0
H913 H 0.85479 0.44348 0.59136 0.0
H914 H 0.87944 0.44209 0.63781 0.0
H915 H 0.89087 0.37801 0.82864 0.0
H916 H 0.89016 0.40935 0.81978 0.0
H917 H 0.90313 0.40963 0.69146 0.0
H918 H 0.90374 0.3782 0.69992 0.0
H919 H 0.87436 0.42052 0.70564 0.0
H920 H 0.94034 0.43834 0.75481 0.0
H921 H 0.96482 0.43691 0.80163 0.0
H922 H 0.94219 0.45666 0.90083 0.0
H923 H 0.91736 0.45793 0.85469 0.0
C924 C 0.90714 0.51767 0.69493 0.0
C925 C 0.90625 0.5281 0.72952 0.0
C926 C 0.9045 0.49831 0.69878 0.0
C927 C 0.90072 0.48896 0.73721 0.0
C928 C 0.89956 0.49923 0.77167 0.0
C929 C 0.90228 0.5186 0.76789 0.0
C930 C 0.89894 0.46886 0.7419 0.0
C931 C 0.912 0.46697 0.76928 0.0
C932 C 0.88518 0.45192 0.71862 0.0
C933 C 0.87034 0.45269 0.69064 0.0
C934 C 0.85701 0.45895 0.70496 0.0
C935 C 0.84315 0.45975 0.67838 0.0
C936 C 0.84237 0.45421 0.63746 0.0
C937 C 0.85543 0.44779 0.62306 0.0
C938 C 0.86934 0.44697 0.64951 0.0
C939 C 0.89341 0.38463 0.79845 0.0
C940 C 0.89752 0.3757 0.76504 0.0
C941 C 0.89304 0.40256 0.79347 0.0
C942 C 0.89684 0.41191 0.75507 0.0
C943 C 0.9002 0.40265 0.72136 0.0
C944 C 0.90061 0.38474 0.72631 0.0
C945 C 0.89813 0.43176 0.75043 0.0
C946 C 0.88508 0.43361 0.72297 0.0
C947 C 0.9119 0.44871 0.7736 0.0
C948 C 0.92685 0.44802 0.80139 0.0
C949 C 0.94047 0.44221 0.78668 0.0
C950 C 0.95442 0.44146 0.81308 0.0
C951 C 0.95502 0.44663 0.8542 0.0
C952 C 0.94169 0.45262 0.86898 0.0
C953 C 0.92768 0.45337 0.84272 0.0
H954 H 0.96584 0.44605 0.87459 0.0
H955 H 0.83162 0.45484 0.61693 0.0
H956 H 0.38012 0.89945 0.2121 0.0
H957 H 0.41062 0.89723 0.22186 0.0
H958 H 0.44478 0.96126 0.24528 0.0
H959 H 0.41452 0.96369 0.23469 0.0
H960 H 0.46588 0.95011 0.19885 0.0
H961 H 0.42788 0.9268 0.3234 0.0
H962 H 0.39783 0.90566 0.36546 0.0
H963 H 0.39832 0.85245 0.32556 0.0
H964 H 0.42823 0.87328 0.28276 0.0
H965 H 0.54998 0.95648 0.30132 0.0
H966 H 0.51813 0.95603 0.29095 0.0
H967 H 0.49028 0.8944 0.24922 0.0
H968 H 0.52216 0.89474 0.25909 0.0
H969 H 0.46578 0.90313 0.3035 0.0
H970 H 0.50532 0.92762 0.18102 0.0
H971 H 0.53623 0.94963 0.14215 0.0
H972 H 0.53325 0.00174 0.18042 0.0
H973 H 0.50261 0.98006 0.2206 0.0
C974 C 0.39416 0.91308 0.21901 0.0
C975 C 0.39487 0.93173 0.22287 0.0
C976 C 0.41155 0.91178 0.22477 0.0
C977 C 0.4299 0.92903 0.23495 0.0
C978 C 0.43077 0.94775 0.23754 0.0
C979 C 0.41343 0.94909 0.23155 0.0
C980 C 0.44812 0.92759 0.24387 0.0
C981 C 0.46589 0.93998 0.22202 0.0
C982 C 0.44805 0.91412 0.27363 0.0
C983 C 0.43016 0.90158 0.29955 0.0
C984 C 0.42149 0.91058 0.32336 0.0
C985 C 0.4045 0.89866 0.34736 0.0
C986 C 0.39614 0.87772 0.3481 0.0
C987 C 0.4048 0.86867 0.32491 0.0
C988 C 0.42177 0.88052 0.30079 0.0
C989 C 0.53703 0.94273 0.29047 0.0
C990 C 0.53861 0.92568 0.28073 0.0
C991 C 0.51888 0.94253 0.28447 0.0
C992 C 0.50199 0.92525 0.26897 0.0
C993 C 0.5032 0.90788 0.26115 0.0
C994 C 0.52142 0.90813 0.26667 0.0
C995 C 0.48345 0.92574 0.25873 0.0
C996 C 0.46567 0.91318 0.28026 0.0
C997 C 0.48354 0.93917 0.22893 0.0
C998 C 0.50177 0.95222 0.20419 0.0
C999 C 0.51134 0.94379 0.18147 0.0
C1000 C 0.52881 0.9562 0.15914 0.0
C1001 C 0.5367 0.97707 0.15877 0.0
C1002 C 0.52713 0.98557 0.18075 0.0
C1003 C 0.50972 0.97322 0.20336 0.0
H1004 H 0.55022 0.98666 0.14142 0.0
H1005 H 0.38299 0.86851 0.36671 0.0
H1006 H 0.61742 0.53998 0.6814 0.0
H1007 H 0.58809 0.50658 0.67023 0.0
H1008 H 0.58508 0.4943 0.79943 0.0
H1009 H 0.61463 0.52755 0.81083 0.0
H1010 H 0.57869 0.46192 0.75518 0.0
H1011 H 0.5539 0.50865 0.7558 0.0
H1012 H 0.55261 0.53878 0.73369 0.0
H1013 H 0.53881 0.51562 0.61127 0.0
H1014 H 0.54029 0.48546 0.63258 0.0
H1015 H 0.47695 0.38435 0.77672 0.0
H1016 H 0.50975 0.41514 0.77963 0.0
H1017 H 0.50822 0.42223 0.64918 0.0
H1018 H 0.47519 0.39146 0.646 0.0
H1019 H 0.51789 0.45668 0.68927 0.0
H1020 H 0.5401 0.40839 0.69063 0.0
H1021 H 0.54102 0.37823 0.71387 0.0
H1022 H 0.55925 0.40407 0.83351 0.0
H1023 H 0.55816 0.43429 0.81116 0.0
C1024 C 0.61058 0.53015 0.70745 0.0
C1025 C 0.61828 0.53648 0.74707 0.0
C1026 C 0.59379 0.51109 0.701 0.0
C1027 C 0.58425 0.49807 0.73407 0.0
C1028 C 0.5922 0.50413 0.7735 0.0
C1029 C 0.60905 0.52317 0.77997 0.0
C1030 C 0.56567 0.47835 0.72777 0.0
C1031 C 0.56532 0.46076 0.74111 0.0
C1032 C 0.54841 0.47684 0.7085 0.0
C1033 C 0.54742 0.49491 0.69569 0.0
C1034 C 0.55075 0.51006 0.7241 0.0
C1035 C 0.54995 0.52713 0.71173 0.0
C1036 C 0.54569 0.52914 0.67107 0.0
C1037 C 0.54215 0.51406 0.64274 0.0
C1038 C 0.54295 0.49697 0.65495 0.0
C1039 C 0.48364 0.39233 0.74854 0.0
C1040 C 0.47343 0.38547 0.71111 0.0
C1041 C 0.50246 0.40988 0.75025 0.0
C1042 C 0.5115 0.42088 0.71457 0.0
C1043 C 0.5015 0.41393 0.67706 0.0
C1044 C 0.48266 0.39633 0.6753 0.0
C1045 C 0.53084 0.44022 0.71694 0.0
C1046 C 0.53131 0.45777 0.70295 0.0
C1047 C 0.54816 0.44168 0.73575 0.0
C1048 C 0.54889 0.42354 0.74929 0.0
C1049 C 0.54415 0.40758 0.72199 0.0
C1050 C 0.54473 0.39048 0.73499 0.0
C1051 C 0.55015 0.38922 0.77516 0.0
C1052 C 0.55504 0.40507 0.80241 0.0
C1053 C 0.55447 0.4222 0.78957 0.0
H1054 H 0.55059 0.37597 0.78517 0.0
H1055 H 0.54508 0.54237 0.66155 0.0
H1056 H 0.13518 0.4169 0.27707 0.0
H1057 H 0.16702 0.41679 0.27446 0.0
H1058 H 0.15533 0.39687 0.14907 0.0
H1059 H 0.1234 0.39694 0.15133 0.0
H1060 H 0.16713 0.37467 0.19723 0.0
H1061 H 0.18948 0.44403 0.16767 0.0
H1062 H 0.19258 0.47733 0.17883 0.0
H1063 H 0.22125 0.48246 0.29444 0.0
H1064 H 0.21805 0.44904 0.28424 0.0
H1065 H 0.26429 0.38799 0.15972 0.0
H1066 H 0.23364 0.39028 0.15562 0.0
H1067 H 0.24443 0.41522 0.27734 0.0
H1068 H 0.27532 0.41336 0.28142 0.0
H1069 H 0.23319 0.43536 0.22743 0.0
H1070 H 0.20949 0.36584 0.25967 0.0
H1071 H 0.20594 0.33223 0.25057 0.0
H1072 H 0.17938 0.32702 0.13247 0.0
H1073 H 0.18302 0.36074 0.14064 0.0
C1074 C 0.13939 0.41255 0.24888 0.0
C1075 C 0.12679 0.40692 0.21439 0.0
C1076 C 0.15762 0.41258 0.24741 0.0
C1077 C 0.16354 0.40696 0.21148 0.0
C1078 C 0.151 0.40129 0.17703 0.0
C1079 C 0.13281 0.40139 0.17837 0.0
C1080 C 0.18259 0.4065 0.21039 0.0
C1081 C 0.18164 0.38799 0.20313 0.0
C1082 C 0.20137 0.42381 0.21915 0.0
C1083 C 0.20336 0.44394 0.22534 0.0
C1084 C 0.19629 0.45218 0.19563 0.0
C1085 C 0.1981 0.47109 0.20176 0.0
C1086 C 0.20706 0.48198 0.23737 0.0
C1087 C 0.21429 0.474 0.26689 0.0
C1088 C 0.2125 0.45508 0.26093 0.0
C1089 C 0.26016 0.39398 0.18562 0.0
C1090 C 0.27218 0.40042 0.22097 0.0
C1091 C 0.2426 0.39521 0.18326 0.0
C1092 C 0.23665 0.40269 0.21637 0.0
C1093 C 0.24877 0.40939 0.25146 0.0
C1094 C 0.26637 0.40825 0.25378 0.0
C1095 C 0.21775 0.40348 0.21453 0.0
C1096 C 0.21871 0.42205 0.22127 0.0
C1097 C 0.19894 0.38619 0.20557 0.0
C1098 C 0.19673 0.36591 0.20059 0.0
C1099 C 0.20305 0.3576 0.23162 0.0
C1100 C 0.20099 0.33852 0.22665 0.0
C1101 C 0.19249 0.32752 0.19091 0.0
C1102 C 0.18599 0.33557 0.1601 0.0
C1103 C 0.18803 0.35466 0.1649 0.0
H1104 H 0.19091 0.31275 0.18713 0.0
H1105 H 0.20845 0.49662 0.24205 0.0
H1106 H 0.87779 0.25094 0.80335 0.0
H1107 H 0.84605 0.21884 0.80597 0.0
H1108 H 0.81593 0.24588 0.74314 0.0
H1109 H 0.84749 0.2781 0.74095 0.0
H1110 H 0.79372 0.22296 0.80618 0.0
H1111 H 0.82973 0.21583 0.69255 0.0
H1112 H 0.85865 0.21618 0.65849 0.0
H1113 H 0.85409 0.1702 0.74017 0.0
H1114 H 0.82529 0.16976 0.77508 0.0
H1115 H 0.70561 0.13591 0.73752 0.0
H1116 H 0.73759 0.16757 0.74259 0.0
H1117 H 0.76423 0.13676 0.80426 0.0
H1118 H 0.73236 0.10491 0.79872 0.0
H1119 H 0.78858 0.16112 0.74555 0.0
H1120 H 0.75142 0.16705 0.85712 0.0
H1121 H 0.72239 0.16661 0.89083 0.0
H1122 H 0.72899 0.21476 0.8132 0.0
H1123 H 0.75791 0.2153 0.77862 0.0
C1124 C 0.86441 0.25006 0.79011 0.0
C1125 C 0.86516 0.26703 0.77177 0.0
C1126 C 0.84631 0.2317 0.79154 0.0
C1127 C 0.82871 0.22995 0.77435 0.0
C1128 C 0.82936 0.24693 0.75656 0.0
C1129 C 0.84742 0.2653 0.75523 0.0
C1130 C 0.80961 0.21039 0.7746 0.0
C1131 C 0.79252 0.20947 0.79256 0.0
C1132 C 0.80823 0.19272 0.75775 0.0
C1133 C 0.82549 0.19292 0.73669 0.0
C1134 C 0.83499 0.2059 0.70345 0.0
C1135 C 0.85134 0.2061 0.68396 0.0
C1136 C 0.85824 0.19326 0.69723 0.0
C1137 C 0.84875 0.18016 0.72996 0.0
C1138 C 0.83241 0.17992 0.74959 0.0
C1139 C 0.71824 0.13586 0.7523 0.0
C1140 C 0.71645 0.1179 0.76776 0.0
C1141 C 0.73648 0.15399 0.75534 0.0
C1142 C 0.7532 0.15454 0.77424 0.0
C1143 C 0.75148 0.13664 0.78964 0.0
C1144 C 0.73325 0.11848 0.78651 0.0
C1145 C 0.77263 0.17371 0.77685 0.0
C1146 C 0.78979 0.17456 0.75943 0.0
C1147 C 0.77407 0.19132 0.79419 0.0
C1148 C 0.75673 0.19109 0.81505 0.0
C1149 C 0.74659 0.17744 0.84702 0.0
C1150 C 0.73017 0.17719 0.86632 0.0
C1151 C 0.72382 0.19062 0.8541 0.0
C1152 C 0.73392 0.20435 0.82261 0.0
C1153 C 0.75033 0.20465 0.80318 0.0
H1154 H 0.7111 0.1904 0.86908 0.0
H1155 H 0.8709 0.19343 0.6821 0.0
H1156 H 0.61533 0.73185 0.15278 0.0
H1157 H 0.61641 0.76431 0.15405 0.0
H1158 H 0.56387 0.73897 0.23181 0.0
H1159 H 0.56262 0.70642 0.23073 0.0
H1160 H 0.56309 0.76413 0.17075 0.0
H1161 H 0.60834 0.76501 0.27435 0.0
H1162 H 0.63662 0.7614 0.30026 0.0
H1163 H 0.67731 0.80806 0.21878 0.0
H1164 H 0.64919 0.81173 0.19195 0.0
H1165 H 0.57093 0.85222 0.25858 0.0
H1166 H 0.56855 0.81959 0.24675 0.0
H1167 H 0.62464 0.84892 0.17985 0.0
H1168 H 0.62735 0.88167 0.19222 0.0
H1169 H 0.624 0.82193 0.23156 0.0
H1170 H 0.57941 0.82259 0.1302 0.0
H1171 H 0.55129 0.82628 0.10366 0.0
H1172 H 0.5096 0.77712 0.17915 0.0
H1173 H 0.53752 0.77331 0.2066 0.0
C1174 C 0.60386 0.7331 0.16978 0.0
C1175 C 0.58899 0.71662 0.19197 0.0
C1176 C 0.60454 0.75166 0.17053 0.0
C1177 C 0.59036 0.75403 0.19341 0.0
C1178 C 0.57496 0.7374 0.21405 0.0
C1179 C 0.57432 0.71885 0.2135 0.0
C1180 C 0.59223 0.77411 0.19768 0.0
C1181 C 0.5763 0.77676 0.18436 0.0
C1182 C 0.60969 0.79061 0.2146 0.0
C1183 C 0.62663 0.78848 0.23083 0.0
C1184 C 0.62329 0.77437 0.26171 0.0
C1185 C 0.63929 0.77234 0.27661 0.0
C1186 C 0.65874 0.78445 0.26109 0.0
C1187 C 0.66223 0.79866 0.23072 0.0
C1188 C 0.64627 0.80073 0.21567 0.0
C1189 C 0.58276 0.85174 0.24132 0.0
C1190 C 0.59932 0.86952 0.22627 0.0
C1191 C 0.58131 0.83306 0.23438 0.0
C1192 C 0.59627 0.83182 0.21191 0.0
C1193 C 0.6129 0.84956 0.19715 0.0
C1194 C 0.61441 0.86825 0.20423 0.0
C1195 C 0.59482 0.81203 0.20472 0.0
C1196 C 0.61082 0.8094 0.21762 0.0
C1197 C 0.57745 0.79559 0.18726 0.0
C1198 C 0.5606 0.79779 0.17072 0.0
C1199 C 0.56427 0.81266 0.14138 0.0
C1200 C 0.54836 0.81476 0.12614 0.0
C1201 C 0.52868 0.80197 0.13979 0.0
C1202 C 0.52486 0.78702 0.16864 0.0
C1203 C 0.54072 0.78488 0.18402 0.0
H1204 H 0.51638 0.80362 0.12794 0.0
H1205 H 0.67111 0.78286 0.27267 0.0
H1206 H 0.85963 0.58887 0.66847 0.0
H1207 H 0.82861 0.59045 0.67443 0.0
H1208 H 0.83334 0.59125 0.80579 0.0
H1209 H 0.86435 0.58962 0.8002 0.0
H1210 H 0.79502 0.5643 0.77794 0.0
H1211 H 0.84561 0.63379 0.75718 0.0
H1212 H 0.87408 0.66216 0.7217 0.0
H1213 H 0.83795 0.64971 0.61365 0.0
H1214 H 0.80934 0.62107 0.64833 0.0
H1215 H 0.7211 0.59111 0.82354 0.0
H1216 H 0.75268 0.59059 0.81862 0.0
H1217 H 0.75178 0.59578 0.68746 0.0
H1218 H 0.72049 0.59686 0.69222 0.0
H1219 H 0.78843 0.61981 0.71563 0.0
H1220 H 0.73812 0.55034 0.73448 0.0
H1221 H 0.70946 0.52142 0.76834 0.0
H1222 H 0.74461 0.53295 0.87758 0.0
H1223 H 0.77341 0.56212 0.84454 0.0
C1224 C 0.85409 0.5894 0.69864 0.0
C1225 C 0.86446 0.58917 0.73387 0.0
C1226 C 0.83641 0.59037 0.70196 0.0
C1227 C 0.82882 0.59112 0.74054 0.0
C1228 C 0.83901 0.5907 0.77576 0.0
C1229 C 0.85674 0.58984 0.77248 0.0
C1230 C 0.81011 0.59215 0.74417 0.0
C1231 C 0.79363 0.57657 0.76483 0.0
C1232 C 0.80823 0.6079 0.72609 0.0
C1233 C 0.8254 0.62516 0.70523 0.0
C1234 C 0.84379 0.637 0.72575 0.0
C1235 C 0.85994 0.65315 0.7058 0.0
C1236 C 0.85785 0.65771 0.66541 0.0
C1237 C 0.83957 0.64615 0.64492 0.0
C1238 C 0.82337 0.62997 0.66472 0.0
C1239 C 0.72763 0.59214 0.79365 0.0
C1240 C 0.71827 0.59394 0.75825 0.0
C1241 C 0.74563 0.59176 0.79087 0.0
C1242 C 0.75442 0.59285 0.75261 0.0
C1243 C 0.74524 0.5949 0.71728 0.0
C1244 C 0.72734 0.59546 0.72006 0.0
C1245 C 0.77324 0.59193 0.74939 0.0
C1246 C 0.78977 0.60753 0.72879 0.0
C1247 C 0.77512 0.57611 0.76726 0.0
C1248 C 0.75785 0.55853 0.78716 0.0
C1249 C 0.73969 0.5468 0.76583 0.0
C1250 C 0.72343 0.53035 0.78485 0.0
C1251 C 0.72519 0.52539 0.82512 0.0
C1252 C 0.74325 0.53683 0.84641 0.0
C1253 C 0.75955 0.55331 0.82754 0.0
H1254 H 0.71259 0.51264 0.8398 0.0
H1255 H 0.87037 0.67022 0.65002 0.0
H1256 H 0.25941 0.88971 0.2738 0.0
H1257 H 0.22693 0.85854 0.27935 0.0
H1258 H 0.25186 0.82588 0.21862 0.0
H1259 H 0.28442 0.85699 0.21278 0.0
H1260 H 0.21478 0.81702 0.18785 0.0
H1261 H 0.24512 0.8215 0.31888 0.0
H1262 H 0.26161 0.83797 0.3836 0.0
H1263 H 0.21002 0.84298 0.41694 0.0
H1264 H 0.19334 0.82679 0.35209 0.0
H1265 H 0.14076 0.71676 0.23401 0.0
H1266 H 0.17221 0.74895 0.22949 0.0
H1267 H 0.14438 0.77844 0.29192 0.0
H1268 H 0.11277 0.7462 0.29681 0.0
H1269 H 0.18215 0.78969 0.32189 0.0
H1270 H 0.15137 0.78453 0.19215 0.0
H1271 H 0.13474 0.76824 0.12742 0.0
H1272 H 0.18691 0.76483 0.09148 0.0
H1273 H 0.20375 0.78084 0.15631 0.0
C1274 C 0.25801 0.8759 0.26164 0.0
C1275 C 0.27448 0.87579 0.2429 0.0
C1276 C 0.23946 0.85811 0.26497 0.0
C1277 C 0.23708 0.83993 0.24965 0.0
C1278 C 0.25344 0.83979 0.23064 0.0
C1279 C 0.27202 0.85755 0.22747 0.0
C1280 C 0.21747 0.82106 0.25311 0.0
C1281 C 0.20775 0.81089 0.21715 0.0
C1282 C 0.2081 0.81346 0.29134 0.0
C1283 C 0.21807 0.82313 0.33042 0.0
C1284 C 0.23736 0.82627 0.33984 0.0
C1285 C 0.24673 0.83553 0.37658 0.0
C1286 C 0.23689 0.84157 0.40431 0.0
C1287 C 0.21764 0.83832 0.3954 0.0
C1288 C 0.20821 0.82909 0.35867 0.0
C1289 C 0.14129 0.73007 0.2468 0.0
C1290 C 0.12425 0.72895 0.26567 0.0
C1291 C 0.15926 0.74846 0.24404 0.0
C1292 C 0.16052 0.76607 0.26001 0.0
C1293 C 0.14365 0.76499 0.27934 0.0
C1294 C 0.12561 0.74659 0.28197 0.0
C1295 C 0.17955 0.78555 0.25663 0.0
C1296 C 0.18915 0.79585 0.29258 0.0
C1297 C 0.18879 0.79331 0.21837 0.0
C1298 C 0.17874 0.78372 0.17928 0.0
C1299 C 0.15923 0.78015 0.1706 0.0
C1300 C 0.14978 0.77099 0.13386 0.0
C1301 C 0.15974 0.76545 0.1054 0.0
C1302 C 0.1792 0.7691 0.11358 0.0
C1303 C 0.18871 0.77824 0.15031 0.0
H1304 H 0.1524 0.75837 0.07697 0.0
H1305 H 0.24417 0.84874 0.43274 0.0
H1306 H 0.36407 0.25813 0.77335 0.0
H1307 H 0.36026 0.22459 0.76689 0.0
H1308 H 0.42251 0.25139 0.72962 0.0
H1309 H 0.42639 0.28497 0.73543 0.0
H1310 H 0.39798 0.22045 0.6805 0.0
H1311 H 0.40788 0.23257 0.82533 0.0
H1312 H 0.40075 0.24101 0.89375 0.0
H1313 H 0.34079 0.18985 0.88922 0.0
H1314 H 0.34748 0.18126 0.82049 0.0
H1315 H 0.41657 0.13975 0.71002 0.0
H1316 H 0.41615 0.1714 0.71204 0.0
H1317 H 0.35334 0.13915 0.74662 0.0
H1318 H 0.35364 0.10734 0.74503 0.0
H1319 H 0.37548 0.17164 0.79532 0.0
H1320 H 0.36632 0.15829 0.65213 0.0
H1321 H 0.37363 0.14972 0.58402 0.0
H1322 H 0.43217 0.20303 0.58541 0.0
H1323 H 0.42533 0.21177 0.65382 0.0
C1324 C 0.37698 0.2569 0.76397 0.0
C1325 C 0.39554 0.2742 0.75493 0.0
C1326 C 0.37479 0.23772 0.7604 0.0
C1327 C 0.39114 0.23554 0.74803 0.0
C1328 C 0.4097 0.25277 0.73915 0.0
C1329 C 0.4119 0.27194 0.74264 0.0
C1330 C 0.38889 0.21527 0.74368 0.0
C1331 C 0.39327 0.20984 0.70571 0.0
C1332 C 0.38215 0.20126 0.77626 0.0
C1333 C 0.3781 0.20641 0.81758 0.0
C1334 C 0.39311 0.22322 0.83877 0.0
C1335 C 0.38917 0.22801 0.87764 0.0
C1336 C 0.37031 0.21601 0.89577 0.0
C1337 C 0.35538 0.19916 0.87511 0.0
C1338 C 0.35924 0.19431 0.83621 0.0
C1339 C 0.4026 0.13934 0.71773 0.0
C1340 C 0.38514 0.12104 0.72743 0.0
C1341 C 0.40237 0.15744 0.71869 0.0
C1342 C 0.38467 0.15757 0.72917 0.0
C1343 C 0.36714 0.13933 0.7384 0.0
C1344 C 0.36733 0.12118 0.73736 0.0
C1345 C 0.38483 0.17692 0.73229 0.0
C1346 C 0.38003 0.18218 0.77001 0.0
C1347 C 0.3912 0.19078 0.69948 0.0
C1348 C 0.39537 0.18559 0.65828 0.0
C1349 C 0.38082 0.1681 0.63807 0.0
C1350 C 0.38487 0.16323 0.59937 0.0
C1351 C 0.40337 0.1758 0.58044 0.0
C1352 C 0.41785 0.1933 0.60013 0.0
C1353 C 0.41389 0.19823 0.63885 0.0
H1354 H 0.40647 0.172 0.55047 0.0
H1355 H 0.36729 0.21974 0.92587 0.0
loop_
_geom_bond_atom_site_label_1
_geom_bond_atom_site_label_2
_geom_bond_distance
_geom_bond_site_symmetry_2
_ccdc_geom_bond_type
C0 O1 1.160 . S
C0 O7 1.185 . S
O1 C0 1.160 . S
O2 Zn3 1.899 . S
O2 C10 1.284 . S
Zn3 O2 1.899 . S
Zn3 O4 2.032 . S
Zn3 O7 2.086 . S
Zn3 O12 1.977 . S
O4 Zn3 2.032 . S
O4 C8 1.278 . S
C5 O6 1.203 . S
C5 O12 1.267 . S
O6 C5 1.203 . S
O7 C0 1.185 . S
O7 Zn3 2.086 . S
C8 O4 1.278 . S
C8 O9 1.211 . S
O9 C8 1.211 . S
C10 O2 1.284 . S
C10 O11 1.273 . S
O11 C10 1.273 . S
O12 Zn3 1.977 . S
O12 C5 1.267 . S
C13 O14 1.160 . S
C13 O20 1.185 . S
O14 C13 1.160 . S
O15 Zn16 1.899 . S
O15 C23 1.284 . S
Zn16 O15 1.899 . S
Zn16 O17 2.032 . S
Zn16 O20 2.086 . S
Zn16 O25 1.977 . S
O17 Zn16 2.032 . S
O17 C21 1.278 . S
C18 O19 1.203 . S
C18 O25 1.267 . S
O19 C18 1.203 . S
O20 C13 1.185 . S
O20 Zn16 2.086 . S
C21 O17 1.278 . S
C21 O22 1.211 . S
O22 C21 1.211 . S
C23 O15 1.284 . S
C23 O24 1.273 . S
O24 C23 1.273 . S
O25 Zn16 1.977 . S
O25 C18 1.267 . S
C26 O27 1.160 . S
C26 O33 1.185 . S
O27 C26 1.160 . S
O28 Zn29 1.899 . S
O28 C36 1.284 . S
Zn29 O28 1.899 . S
Zn29 O30 2.032 . S
Zn29 O33 2.086 . S
Zn29 O38 1.977 . S
O30 Zn29 2.032 . S
O30 C34 1.278 . S
C31 O32 1.203 . S
C31 O38 1.267 . S
O32 C31 1.203 . S
O33 C26 1.185 . S
O33 Zn29 2.086 . S
C34 O30 1.278 . S
C34 O35 1.211 . S
O35 C34 1.211 . S
C36 O28 1.284 . S
C36 O37 1.273 . S
O37 C36 1.273 . S
O38 Zn29 1.977 . S
O38 C31 1.267 . S
C39 O40 1.160 . S
C39 O46 1.185 . S
O40 C39 1.160 . S
O41 Zn42 1.899 . S
O41 C49 1.284 . S
Zn42 O41 1.899 . S
Zn42 O43 2.032 . S
Zn42 O46 2.086 . S
Zn42 O51 1.977 . S
O43 Zn42 2.032 . S
O43 C47 1.278 . S
C44 O45 1.203 . S
C44 O51 1.267 . S
O45 C44 1.203 . S
O46 C39 1.185 . S
O46 Zn42 2.086 . S
C47 O43 1.278 . S
C47 O48 1.211 . S
O48 C47 1.211 . S
C49 O41 1.284 . S
C49 O50 1.273 . S
O50 C49 1.273 . S
O51 Zn42 1.977 . S
O51 C44 1.267 . S
C52 O53 1.160 . S
C52 O59 1.185 . S
O53 C52 1.160 . S
O54 Zn55 1.899 . S
O54 C62 1.284 . S
Zn55 O54 1.899 . S
Zn55 O56 2.032 . S
Zn55 O59 2.086 . S
Zn55 O64 1.977 . S
O56 Zn55 2.032 . S
O56 C60 1.278 . S
C57 O58 1.203 . S
C57 O64 1.267 . S
O58 C57 1.203 . S
O59 C52 1.185 . S
O59 Zn55 2.086 . S
C60 O56 1.278 . S
C60 O61 1.211 . S
O61 C60 1.211 . S
C62 O54 1.284 . S
C62 O63 1.273 . S
O63 C62 1.273 . S
O64 Zn55 1.977 . S
O64 C57 1.267 . S
C65 O66 1.160 . S
C65 O72 1.185 . S
O66 C65 1.160 . S
O67 Zn68 1.899 . S
O67 C75 1.284 . S
Zn68 O67 1.899 . S
Zn68 O69 2.032 . S
Zn68 O72 2.086 . S
Zn68 O77 1.977 . S
O69 Zn68 2.032 . S
O69 C73 1.278 . S
C70 O71 1.203 . S
C70 O77 1.267 . S
O71 C70 1.203 . S
O72 C65 1.185 . S
O72 Zn68 2.086 . S
C73 O69 1.278 . S
C73 O74 1.211 . S
O74 C73 1.211 . S
C75 O67 1.284 . S
C75 O76 1.273 . S
O76 C75 1.273 . S
O77 Zn68 1.977 . S
O77 C70 1.267 . S
C78 O79 1.160 . S
C78 O85 1.185 . S
O79 C78 1.160 . S
O80 Zn81 1.899 . S
O80 C88 1.284 . S
Zn81 O80 1.899 . S
Zn81 O82 2.032 . S
Zn81 O85 2.086 . S
Zn81 O90 1.977 . S
O82 Zn81 2.032 . S
O82 C86 1.278 . S
C83 O84 1.203 . S
C83 O90 1.267 . S
O84 C83 1.203 . S
O85 C78 1.185 . S
O85 Zn81 2.086 . S
C86 O82 1.278 . S
C86 O87 1.211 . S
O87 C86 1.211 . S
C88 O80 1.284 . S
C88 O89 1.273 . S
O89 C88 1.273 . S
O90 Zn81 1.977 . S
O90 C83 1.267 . S
C91 O92 1.160 . S
C91 O98 1.185 . S
O92 C91 1.160 . S
O93 Zn94 1.899 . S
O93 C101 1.284 . S
Zn94 O93 1.899 . S
Zn94 O95 2.032 . S
Zn94 O98 2.086 . S
Zn94 O103 1.977 . S
O95 Zn94 2.032 . S
O95 C99 1.278 . S
C96 O97 1.203 . S
C96 O103 1.267 . S
O97 C96 1.203 . S
O98 C91 1.185 . S
O98 Zn94 2.086 . S
C99 O95 1.278 . S
C99 O100 1.211 . S
O100 C99 1.211 . S
C101 O93 1.284 . S
C101 O102 1.273 . S
O102 C101 1.273 . S
O103 Zn94 1.977 . S
O103 C96 1.267 . S
C104 O105 1.160 . S
C104 O111 1.185 . S
O105 C104 1.160 . S
O106 Zn107 1.899 . S
O106 C114 1.284 . S
Zn107 O106 1.899 . S
Zn107 O108 2.032 . S
Zn107 O111 2.086 . S
Zn107 O116 1.977 . S
O108 Zn107 2.032 . S
O108 C112 1.278 . S
C109 O110 1.203 . S
C109 O116 1.267 . S
O110 C109 1.203 . S
O111 C104 1.185 . S
O111 Zn107 2.086 . S
C112 O108 1.278 . S
C112 O113 1.211 . S
O113 C112 1.211 . S
C114 O106 1.284 . S
C114 O115 1.273 . S
O115 C114 1.273 . S
O116 Zn107 1.977 . S
O116 C109 1.267 . S
C117 O118 1.160 . S
C117 O124 1.185 . S
O118 C117 1.160 . S
O119 Zn120 1.899 . S
O119 C127 1.284 . S
Zn120 O119 1.899 . S
Zn120 O121 2.032 . S
Zn120 O124 2.086 . S
Zn120 O129 1.977 . S
O121 Zn120 2.032 . S
O121 C125 1.278 . S
C122 O123 1.203 . S
C122 O129 1.267 . S
O123 C122 1.203 . S
O124 C117 1.185 . S
O124 Zn120 2.086 . S
C125 O121 1.278 . S
C125 O126 1.211 . S
O126 C125 1.211 . S
C127 O119 1.284 . S
C127 O128 1.273 . S
O128 C127 1.273 . S
O129 Zn120 1.977 . S
O129 C122 1.267 . S
C130 O131 1.160 . S
C130 O137 1.185 . S
O131 C130 1.160 . S
O132 Zn133 1.899 . S
O132 C140 1.284 . S
Zn133 O132 1.899 . S
Zn133 O134 2.032 . S
Zn133 O137 2.086 . S
Zn133 O142 1.977 . S
O134 Zn133 2.032 . S
O134 C138 1.278 . S
C135 O136 1.203 . S
C135 O142 1.267 . S
O136 C135 1.203 . S
O137 C130 1.185 . S
O137 Zn133 2.086 . S
C138 O134 1.278 . S
C138 O139 1.211 . S
O139 C138 1.211 . S
C140 O132 1.284 . S
C140 O141 1.273 . S
O141 C140 1.273 . S
O142 Zn133 1.977 . S
O142 C135 1.267 . S
C143 O144 1.160 . S
C143 O150 1.185 . S
O144 C143 1.160 . S
O145 Zn146 1.899 . S
O145 C153 1.284 . S
Zn146 O145 1.899 . S
Zn146 O147 2.032 . S
Zn146 O150 2.086 . S
Zn146 O155 1.977 . S
O147 Zn146 2.032 . S
O147 C151 1.278 . S
C148 O149 1.203 . S
C148 O155 1.267 . S
O149 C148 1.203 . S
O150 C143 1.185 . S
O150 Zn146 2.086 . S
C151 O147 1.278 . S
C151 O152 1.211 . S
O152 C151 1.211 . S
C153 O145 1.284 . S
C153 O154 1.273 . S
O154 C153 1.273 . S
O155 Zn146 1.977 . S
O155 C148 1.267 . S
H156 C174 0.951 . S
H157 C176 0.951 . S
H158 C178 0.950 . S
H159 C179 0.950 . S
H160 C181 0.950 . S
H161 C184 0.950 . S
H162 C185 0.950 . S
H163 C187 0.950 . S
H164 C188 0.950 . S
H165 C189 0.951 . S
H166 C191 0.951 . S
H167 C193 0.950 . S
H168 C194 0.950 . S
H169 C196 0.950 . S
H170 C199 0.950 . S
H171 C200 0.950 . S
H172 C202 0.950 . S
H173 C203 0.950 . S
C174 H156 0.951 . S
C174 C175 1.366 . S
C174 C176 1.388 . S
C175 C174 1.366 . S
C175 C179 1.385 . S
C176 H157 0.951 . S
C176 C174 1.388 . S
C176 C177 1.366 . S
C177 C176 1.366 . S
C177 C178 1.414 . S
C177 C180 1.499 . S
C178 H158 0.950 . S
C178 C177 1.414 . S
C178 C179 1.374 . S
C179 H159 0.950 . S
C179 C175 1.385 . S
C179 C178 1.374 . S
C180 C177 1.499 . S
C180 C181 1.373 1_455 S
C180 C182 1.377 1_554 S
C181 H160 0.950 . S
C181 C180 1.373 1_655 S
C181 C197 1.389 . S
C182 C180 1.377 1_556 S
C182 C183 1.526 . S
C182 C196 1.389 . S
C183 C182 1.526 . S
C183 C184 1.397 1_556 S
C183 C188 1.363 . S
C184 H161 0.950 . S
C184 C183 1.397 1_554 S
C184 C185 1.334 . S
C185 H162 0.950 . S
C185 C184 1.334 . S
C185 C186 1.287 1_554 S
C186 C185 1.287 1_556 S
C186 C187 1.524 . S
C186 H205 0.913 . S
C187 H163 0.950 . S
C187 C186 1.524 . S
C187 C188 1.415 . S
C188 H164 0.950 . S
C188 C183 1.363 . S
C188 C187 1.415 . S
C189 H165 0.951 . S
C189 C190 1.366 . S
C189 C191 1.388 . S
C190 C189 1.366 . S
C190 C194 1.385 . S
C191 H166 0.951 . S
C191 C189 1.388 . S
C191 C192 1.366 . S
C192 C191 1.366 . S
C192 C193 1.414 . S
C192 C195 1.499 . S
C193 H167 0.950 . S
C193 C192 1.414 . S
C193 C194 1.374 . S
C194 H168 0.950 . S
C194 C190 1.385 . S
C194 C193 1.374 . S
C195 C192 1.499 . S
C195 C196 1.373 1_655 S
C195 C197 1.377 1_556 S
C196 H169 0.950 . S
C196 C182 1.389 . S
C196 C195 1.373 1_455 S
C197 C181 1.389 . S
C197 C195 1.377 1_554 S
C197 C198 1.526 . S
C198 C197 1.526 . S
C198 C199 1.397 1_554 S
C198 C203 1.363 . S
C199 H170 0.950 . S
C199 C198 1.397 1_556 S
C199 C200 1.334 . S
C200 H171 0.950 . S
C200 C199 1.334 . S
C200 C201 1.287 1_556 S
C201 C200 1.287 1_554 S
C201 C202 1.524 . S
C201 H204 0.999 . S
C202 H172 0.950 . S
C202 C201 1.524 . S
C202 C203 1.415 . S
C203 H173 0.950 . S
C203 C198 1.363 . S
C203 C202 1.415 . S
H204 C201 0.999 . S
H205 C186 0.913 . S
H206 C224 0.951 . S
H207 C226 0.951 1_545 S
H208 C228 0.950 . S
H209 C229 0.950 . S
H210 C231 0.950 . S
H211 C234 0.982 . S
H212 C235 0.950 1_565 S
H213 C237 0.950 . S
H214 C238 0.950 . S
H215 C239 0.951 . S
H216 C241 0.951 1_565 S
H217 C243 0.950 . S
H218 C244 0.950 . S
H219 C246 0.950 . S
H220 C249 0.982 . S
H221 C250 0.950 1_545 S
H222 C252 0.950 . S
H223 C253 0.950 . S
C224 H206 0.951 . S
C224 C225 1.366 . S
C224 C226 1.388 . S
C225 C224 1.366 . S
C225 C229 1.385 . S
C226 H207 0.951 1_565 S
C226 C224 1.388 . S
C226 C227 1.366 . S
C227 C226 1.366 . S
C227 C228 1.414 . S
C227 C230 1.499 . S
C228 H208 0.950 . S
C228 C227 1.414 . S
C228 C229 1.374 . S
C229 H209 0.950 . S
C229 C225 1.385 . S
C229 C228 1.374 . S
C230 C227 1.499 . S
C230 C231 1.373 . S
C230 C232 1.389 1_565 S
C231 H210 0.950 . S
C231 C230 1.373 . S
C231 C247 1.377 . S
C232 C230 1.389 1_545 S
C232 C233 1.524 . S
C232 C246 1.377 . S
C233 C232 1.524 . S
C233 C234 1.359 1_545 S
C233 C238 1.363 . S
C234 H211 0.982 . S
C234 C233 1.359 1_565 S
C234 C235 1.341 1_565 S
C235 H212 0.950 1_545 S
C235 C234 1.341 1_545 S
C235 C236 1.287 . S
C236 C235 1.287 . S
C236 C237 1.524 . S
C236 H255 0.913 . S
C237 H213 0.950 . S
C237 C236 1.524 . S
C237 C238 1.415 . S
C238 H214 0.950 . S
C238 C233 1.363 . S
C238 C237 1.415 . S
C239 H215 0.951 . S
C239 C240 1.366 . S
C239 C241 1.388 . S
C240 C239 1.366 . S
C240 C244 1.385 . S
C241 H216 0.951 1_545 S
C241 C239 1.388 . S
C241 C242 1.366 . S
C242 C241 1.366 . S
C242 C243 1.414 . S
C242 C245 1.499 . S
C243 H217 0.950 . S
C243 C242 1.414 . S
C243 C244 1.374 . S
C244 H218 0.950 . S
C244 C240 1.385 . S
C244 C243 1.374 . S
C245 C242 1.499 . S
C245 C246 1.373 . S
C245 C247 1.389 1_545 S
C246 H219 0.950 . S
C246 C232 1.377 . S
C246 C245 1.373 . S
C247 C231 1.377 . S
C247 C245 1.389 1_565 S
C247 C248 1.524 . S
C248 C247 1.524 . S
C248 C249 1.359 1_565 S
C248 C253 1.363 . S
C249 H220 0.982 . S
C249 C248 1.359 1_545 S
C249 C250 1.341 1_545 S
C250 H221 0.950 1_565 S
C250 C249 1.341 1_565 S
C250 C251 1.287 . S
C251 C250 1.287 . S
C251 C252 1.524 . S
C251 H254 0.999 . S
C252 H222 0.950 . S
C252 C251 1.524 . S
C252 C253 1.415 . S
C253 H223 0.950 . S
C253 C248 1.363 . S
C253 C252 1.415 . S
H254 C251 0.999 . S
H255 C236 0.913 . S
H256 C274 0.951 . S
H257 C276 0.951 . S
H258 C278 0.950 . S
H259 C279 0.950 . S
H260 C281 0.950 . S
H261 C284 0.950 . S
H262 C285 0.950 . S
H263 C287 0.950 . S
H264 C288 0.950 . S
H265 C289 0.951 . S
H266 C291 0.951 . S
H267 C293 0.950 . S
H268 C294 0.950 . S
H269 C296 0.950 . S
H270 C299 0.950 . S
H271 C300 0.950 . S
H272 C302 0.950 . S
H273 C303 0.950 . S
C274 H256 0.951 . S
C274 C275 1.366 . S
C274 C276 1.388 . S
C275 C274 1.366 . S
C275 C279 1.385 . S
C276 H257 0.951 . S
C276 C274 1.388 . S
C276 C277 1.366 . S
C277 C276 1.366 . S
C277 C278 1.414 . S
C277 C280 1.499 . S
C278 H258 0.950 . S
C278 C277 1.414 . S
C278 C279 1.374 . S
C279 H259 0.950 . S
C279 C275 1.385 . S
C279 C278 1.374 . S
C280 C277 1.499 . S
C280 C281 1.373 . S
C280 C282 1.389 . S
C281 H260 0.950 . S
C281 C280 1.373 . S
C281 C297 1.377 1_554 S
C282 C280 1.389 . S
C282 C283 1.524 . S
C282 C296 1.377 1_554 S
C283 C282 1.524 . S
C283 C284 1.397 . S
C283 C288 1.363 1_554 S
C284 H261 0.950 . S
C284 C283 1.397 . S
C284 C285 1.334 . S
C285 H262 0.950 . S
C285 C284 1.334 . S
C285 C286 1.287 1_554 S
C286 C285 1.287 1_556 S
C286 C287 1.524 . S
C286 H305 0.913 . S
C287 H263 0.950 . S
C287 C286 1.524 . S
C287 C288 1.415 . S
C288 H264 0.950 . S
C288 C283 1.363 1_556 S
C288 C287 1.415 . S
C289 H265 0.951 . S
C289 C290 1.366 . S
C289 C291 1.388 . S
C290 C289 1.366 . S
C290 C294 1.385 . S
C291 H266 0.951 . S
C291 C289 1.388 . S
C291 C292 1.366 . S
C292 C291 1.366 . S
C292 C293 1.414 . S
C292 C295 1.499 . S
C293 H267 0.950 . S
C293 C292 1.414 . S
C293 C294 1.374 . S
C294 H268 0.950 . S
C294 C290 1.385 . S
C294 C293 1.374 . S
C295 C292 1.499 . S
C295 C296 1.373 . S
C295 C297 1.389 . S
C296 H269 0.950 . S
C296 C282 1.377 1_556 S
C296 C295 1.373 . S
C297 C281 1.377 1_556 S
C297 C295 1.389 . S
C297 C298 1.524 . S
C298 C297 1.524 . S
C298 C299 1.397 . S
C298 C303 1.363 1_556 S
C299 H270 0.950 . S
C299 C298 1.397 . S
C299 C300 1.334 . S
C300 H271 0.950 . S
C300 C299 1.334 . S
C300 C301 1.287 1_556 S
C301 C300 1.287 1_554 S
C301 C302 1.524 . S
C301 H304 0.999 . S
C302 H272 0.950 . S
C302 C301 1.524 . S
C302 C303 1.415 . S
C303 H273 0.950 . S
C303 C298 1.363 1_554 S
C303 C302 1.415 . S
H304 C301 0.999 . S
H305 C286 0.913 . S
H306 C324 0.951 . S
H307 C326 0.951 1_655 S
H308 C328 0.950 . S
H309 C329 0.950 . S
H310 C331 0.950 . S
H311 C334 0.950 . S
H312 C335 0.950 . S
H313 C337 0.950 . S
H314 C338 0.950 . S
H315 C339 0.951 . S
H316 C341 0.951 1_455 S
H317 C343 0.950 . S
H318 C344 0.950 . S
H319 C346 0.950 . S
H320 C349 0.950 . S
H321 C350 0.950 . S
H322 C352 0.950 . S
H323 C353 0.950 . S
C324 H306 0.951 . S
C324 C325 1.366 . S
C324 C326 1.388 . S
C325 C324 1.366 . S
C325 C329 1.385 . S
C326 H307 0.951 1_455 S
C326 C324 1.388 . S
C326 C327 1.366 . S
C327 C326 1.366 . S
C327 C328 1.414 . S
C327 C330 1.499 . S
C328 H308 0.950 . S
C328 C327 1.414 . S
C328 C329 1.374 . S
C329 H309 0.950 . S
C329 C325 1.385 . S
C329 C328 1.374 . S
C330 C327 1.499 . S
C330 C331 1.373 . S
C330 C332 1.389 1_455 S
C331 H310 0.950 . S
C331 C330 1.373 . S
C331 C347 1.377 . S
C332 C330 1.389 1_655 S
C332 C333 1.524 . S
C332 C346 1.377 . S
C333 C332 1.524 . S
C333 C334 1.397 1_655 S
C333 C338 1.363 . S
C334 H311 0.950 . S
C334 C333 1.397 1_455 S
C334 C335 1.334 . S
C335 H312 0.950 . S
C335 C334 1.334 . S
C335 C336 1.287 1_455 S
C336 C335 1.287 1_655 S
C336 C337 1.524 . S
C336 H355 0.913 . S
C337 H313 0.950 . S
C337 C336 1.524 . S
C337 C338 1.415 . S
C338 H314 0.950 . S
C338 C333 1.363 . S
C338 C337 1.415 . S
C339 H315 0.951 . S
C339 C340 1.366 . S
C339 C341 1.388 . S
C340 C339 1.366 . S
C340 C344 1.385 . S
C341 H316 0.951 1_655 S
C341 C339 1.388 . S
C341 C342 1.366 . S
C342 C341 1.366 . S
C342 C343 1.414 . S
C342 C345 1.499 . S
C343 H317 0.950 . S
C343 C342 1.414 . S
C343 C344 1.374 . S
C344 H318 0.950 . S
C344 C340 1.385 . S
C344 C343 1.374 . S
C345 C342 1.499 . S
C345 C346 1.373 . S
C345 C347 1.389 1_655 S
C346 H319 0.950 . S
C346 C332 1.377 . S
C346 C345 1.373 . S
C347 C331 1.377 . S
C347 C345 1.389 1_455 S
C347 C348 1.524 . S
C348 C347 1.524 . S
C348 C349 1.397 1_455 S
C348 C353 1.363 . S
C349 H320 0.950 . S
C349 C348 1.397 1_655 S
C349 C350 1.334 . S
C350 H321 0.950 . S
C350 C349 1.334 . S
C350 C351 1.287 1_655 S
C351 C350 1.287 1_455 S
C351 C352 1.524 . S
C351 H354 0.999 . S
C352 H322 0.950 . S
C352 C351 1.524 . S
C352 C353 1.415 . S
C353 H323 0.950 . S
C353 C348 1.363 . S
C353 C352 1.415 . S
H354 C351 0.999 . S
H355 C336 0.913 . S
H356 C374 0.951 . S
H357 C376 0.951 . S
H358 C378 0.950 1_565 S
H359 C379 0.950 . S
H360 C381 0.950 . S
H361 C384 0.950 . S
H362 C385 0.950 . S
H363 C387 0.950 . S
H364 C388 0.950 . S
H365 C389 0.951 . S
H366 C391 0.951 . S
H367 C393 0.950 1_545 S
H368 C394 0.950 . S
H369 C396 0.950 . S
H370 C399 0.950 . S
H371 C400 0.950 . S
H372 C402 0.950 . S
H373 C403 0.950 . S
C374 H356 0.951 . S
C374 C375 1.366 . S
C374 C376 1.388 . S
C375 C374 1.366 . S
C375 C379 1.385 . S
C376 H357 0.951 . S
C376 C374 1.388 . S
C376 C377 1.366 . S
C377 C376 1.366 . S
C377 C378 1.414 . S
C377 C380 1.499 . S
C378 H358 0.950 1_545 S
C378 C377 1.414 . S
C378 C379 1.374 . S
C379 H359 0.950 . S
C379 C375 1.385 . S
C379 C378 1.374 . S
C380 C377 1.499 . S
C380 C381 1.373 1_545 S
C380 C382 1.389 . S
C381 H360 0.950 . S
C381 C380 1.373 1_565 S
C381 C397 1.377 1_556 S
C382 C380 1.389 . S
C382 C383 1.524 . S
C382 C396 1.377 1_556 S
C383 C382 1.524 . S
C383 C384 1.397 . S
C383 C388 1.363 1_556 S
C384 H361 0.950 . S
C384 C383 1.397 . S
C384 C385 1.334 . S
C385 H362 0.950 . S
C385 C384 1.334 . S
C385 C386 1.287 . S
C386 C385 1.287 . S
C386 C387 1.524 1_556 S
C386 H405 0.913 . S
C387 H363 0.950 . S
C387 C386 1.524 1_554 S
C387 C388 1.415 . S
C388 H364 0.950 . S
C388 C383 1.363 1_554 S
C388 C387 1.415 . S
C389 H365 0.951 . S
C389 C390 1.366 . S
C389 C391 1.388 . S
C390 C389 1.366 . S
C390 C394 1.385 . S
C391 H366 0.951 . S
C391 C389 1.388 . S
C391 C392 1.366 . S
C392 C391 1.366 . S
C392 C393 1.414 . S
C392 C395 1.499 . S
C393 H367 0.950 1_565 S
C393 C392 1.414 . S
C393 C394 1.374 . S
C394 H368 0.950 . S
C394 C390 1.385 . S
C394 C393 1.374 . S
C395 C392 1.499 . S
C395 C396 1.373 1_565 S
C395 C397 1.389 . S
C396 H369 0.950 . S
C396 C382 1.377 1_554 S
C396 C395 1.373 1_545 S
C397 C381 1.377 1_554 S
C397 C395 1.389 . S
C397 C398 1.524 . S
C398 C397 1.524 . S
C398 C399 1.397 . S
C398 C403 1.363 1_554 S
C399 H370 0.950 . S
C399 C398 1.397 . S
C399 C400 1.334 . S
C400 H371 0.950 . S
C400 C399 1.334 . S
C400 C401 1.287 . S
C401 C400 1.287 . S
C401 C402 1.524 1_554 S
C401 H404 0.999 . S
C402 H372 0.950 . S
C402 C401 1.524 1_556 S
C402 C403 1.415 . S
C403 H373 0.950 . S
C403 C398 1.363 1_556 S
C403 C402 1.415 . S
H404 C401 0.999 . S
H405 C386 0.913 . S
H406 C424 0.951 . S
H407 C426 0.951 . S
H408 C428 0.950 . S
H409 C429 0.950 . S
H410 C431 0.950 . S
H411 C434 0.950 . S
H412 C435 0.950 . S
H413 C437 0.950 . S
H414 C438 0.950 . S
H415 C439 0.951 . S
H416 C441 0.951 . S
H417 C443 0.950 . S
H418 C444 0.950 . S
H419 C446 0.950 . S
H420 C449 0.950 . S
H421 C450 0.950 . S
H422 C452 0.950 . S
H423 C453 0.950 . S
C424 H406 0.951 . S
C424 C425 1.366 . S
C424 C426 1.388 . S
C425 C424 1.366 . S
C425 C429 1.385 . S
C426 H407 0.951 . S
C426 C424 1.388 . S
C426 C427 1.366 . S
C427 C426 1.366 . S
C427 C428 1.414 . S
C427 C430 1.499 . S
C428 H408 0.950 . S
C428 C427 1.414 . S
C428 C429 1.374 . S
C429 H409 0.950 . S
C429 C425 1.385 . S
C429 C428 1.374 . S
C430 C427 1.499 . S
C430 C431 1.373 . S
C430 C432 1.389 . S
C431 H410 0.950 . S
C431 C430 1.373 . S
C431 C447 1.377 . S
C432 C430 1.389 . S
C432 C433 1.524 . S
C432 C446 1.377 . S
C433 C432 1.524 . S
C433 C434 1.397 . S
C433 C438 1.363 . S
C434 H411 0.950 . S
C434 C433 1.397 . S
C434 C435 1.334 . S
C435 H412 0.950 . S
C435 C434 1.334 . S
C435 C436 1.287 . S
C436 C435 1.287 . S
C436 C437 1.524 . S
C436 H455 0.913 . S
C437 H413 0.950 . S
C437 C436 1.524 . S
C437 C438 1.415 . S
C438 H414 0.950 . S
C438 C433 1.363 . S
C438 C437 1.415 . S
C439 H415 0.951 . S
C439 C440 1.366 . S
C439 C441 1.388 . S
C440 C439 1.366 . S
C440 C444 1.385 . S
C441 H416 0.951 . S
C441 C439 1.388 . S
C441 C442 1.366 . S
C442 C441 1.366 . S
C442 C443 1.414 . S
C442 C445 1.499 . S
C443 H417 0.950 . S
C443 C442 1.414 . S
C443 C444 1.374 . S
C444 H418 0.950 . S
C444 C440 1.385 . S
C444 C443 1.374 . S
C445 C442 1.499 . S
C445 C446 1.373 . S
C445 C447 1.389 . S
C446 H419 0.950 . S
C446 C432 1.377 . S
C446 C445 1.373 . S
C447 C431 1.377 . S
C447 C445 1.389 . S
C447 C448 1.524 . S
C448 C447 1.524 . S
C448 C449 1.397 . S
C448 C453 1.363 . S
C449 H420 0.950 . S
C449 C448 1.397 . S
C449 C450 1.334 . S
C450 H421 0.950 . S
C450 C449 1.334 . S
C450 C451 1.287 . S
C451 C450 1.287 . S
C451 C452 1.524 . S
C451 H454 0.999 . S
C452 H422 0.950 . S
C452 C451 1.524 . S
C452 C453 1.415 . S
C453 H423 0.950 . S
C453 C448 1.363 . S
C453 C452 1.415 . S
H454 C451 0.999 . S
H455 C436 0.913 . S
H456 C474 0.951 . S
H457 C476 0.951 . S
H458 C478 0.950 . S
H459 C479 0.950 . S
H460 C481 0.950 . S
H461 C484 0.950 . S
H462 C485 0.950 . S
H463 C487 0.950 . S
H464 C488 0.899 1_455 S
H465 C489 0.951 . S
H466 C491 0.951 . S
H467 C493 0.950 . S
H468 C494 0.950 . S
H469 C496 0.950 . S
H470 C499 0.950 . S
H471 C500 0.950 . S
H472 C502 0.950 . S
H473 C503 0.899 1_655 S
C474 H456 0.951 . S
C474 C475 1.366 . S
C474 C476 1.388 . S
C475 C474 1.366 . S
C475 C479 1.385 . S
C476 H457 0.951 . S
C476 C474 1.388 . S
C476 C477 1.366 . S
C477 C476 1.366 . S
C477 C478 1.414 . S
C477 C480 1.499 . S
C478 H458 0.950 . S
C478 C477 1.414 . S
C478 C479 1.374 . S
C479 H459 0.950 . S
C479 C475 1.385 . S
C479 C478 1.374 . S
C480 C477 1.499 . S
C480 C481 1.373 . S
C480 C482 1.389 . S
C481 H460 0.950 . S
C481 C480 1.373 . S
C481 C497 1.377 1_656 S
C482 C480 1.389 . S
C482 C483 1.524 . S
C482 C496 1.377 1_656 S
C483 C482 1.524 . S
C483 C484 1.397 . S
C483 C488 1.363 . S
C484 H461 0.950 . S
C484 C483 1.397 . S
C484 C485 1.334 . S
C485 H462 0.950 . S
C485 C484 1.334 . S
C485 C486 1.287 . S
C486 C485 1.287 . S
C486 C487 1.524 . S
C486 H505 0.913 . S
C487 H463 0.950 . S
C487 C486 1.524 . S
C487 C488 1.415 . S
C488 H464 0.899 1_655 S
C488 C483 1.363 . S
C488 C487 1.415 . S
C489 H465 0.951 . S
C489 C490 1.366 . S
C489 C491 1.388 . S
C490 C489 1.366 . S
C490 C494 1.385 . S
C491 H466 0.951 . S
C491 C489 1.388 . S
C491 C492 1.366 . S
C492 C491 1.366 . S
C492 C493 1.414 . S
C492 C495 1.499 . S
C493 H467 0.950 . S
C493 C492 1.414 . S
C493 C494 1.374 . S
C494 H468 0.950 . S
C494 C490 1.385 . S
C494 C493 1.374 . S
C495 C492 1.499 . S
C495 C496 1.373 . S
C495 C497 1.389 . S
C496 H469 0.950 . S
C496 C482 1.377 1_454 S
C496 C495 1.373 . S
C497 C481 1.377 1_454 S
C497 C495 1.389 . S
C497 C498 1.524 . S
C498 C497 1.524 . S
C498 C499 1.397 . S
C498 C503 1.363 . S
C499 H470 0.950 . S
C499 C498 1.397 . S
C499 C500 1.334 . S
C500 H471 0.950 . S
C500 C499 1.334 . S
C500 C501 1.287 . S
C501 C500 1.287 . S
C501 C502 1.524 . S
C501 H504 0.999 . S
C502 H472 0.950 . S
C502 C501 1.524 . S
C502 C503 1.415 . S
C503 H473 0.899 1_455 S
C503 C498 1.363 . S
C503 C502 1.415 . S
H504 C501 0.999 . S
H505 C486 0.913 . S
H506 C524 0.951 . S
H507 C526 0.951 . S
H508 C528 0.950 . S
H509 C529 0.950 . S
H510 C531 0.950 . S
H511 C534 0.950 . S
H512 C535 0.950 . S
H513 C537 0.950 . S
H514 C538 0.950 . S
H515 C539 0.951 . S
H516 C541 0.951 . S
H517 C543 0.950 . S
H518 C544 0.950 . S
H519 C546 0.950 . S
H520 C549 0.950 . S
H521 C550 0.950 . S
H522 C552 0.950 . S
H523 C553 0.950 . S
C524 H506 0.951 . S
C524 C525 1.366 . S
C524 C526 1.388 . S
C525 C524 1.366 . S
C525 C529 1.385 . S
C526 H507 0.951 . S
C526 C524 1.388 . S
C526 C527 1.366 . S
C527 C526 1.366 . S
C527 C528 1.414 . S
C527 C530 1.499 . S
C528 H508 0.950 . S
C528 C527 1.414 . S
C528 C529 1.374 . S
C529 H509 0.950 . S
C529 C525 1.385 . S
C529 C528 1.374 . S
C530 C527 1.499 . S
C530 C531 1.373 1_565 S
C530 C532 1.389 . S
C531 H510 0.950 . S
C531 C530 1.373 1_545 S
C531 C547 1.377 . S
C532 C530 1.389 . S
C532 C533 1.524 . S
C532 C546 1.377 . S
C533 C532 1.524 . S
C533 C534 1.397 . S
C533 C538 1.363 . S
C534 H511 0.950 . S
C534 C533 1.397 . S
C534 C535 1.334 . S
C535 H512 0.950 . S
C535 C534 1.334 . S
C535 C536 1.287 . S
C536 C535 1.287 . S
C536 C537 1.524 . S
C536 H555 0.913 . S
C537 H513 0.950 . S
C537 C536 1.524 . S
C537 C538 1.415 . S
C538 H514 0.950 . S
C538 C533 1.363 . S
C538 C537 1.415 . S
C539 H515 0.951 . S
C539 C540 1.366 . S
C539 C541 1.388 . S
C540 C539 1.366 . S
C540 C544 1.385 . S
C541 H516 0.951 . S
C541 C539 1.388 . S
C541 C542 1.366 . S
C542 C541 1.366 . S
C542 C543 1.414 . S
C542 C545 1.499 . S
C543 H517 0.950 . S
C543 C542 1.414 . S
C543 C544 1.374 . S
C544 H518 0.950 . S
C544 C540 1.385 . S
C544 C543 1.374 . S
C545 C542 1.499 . S
C545 C546 1.373 1_545 S
C545 C547 1.389 . S
C546 H519 0.950 . S
C546 C532 1.377 . S
C546 C545 1.373 1_565 S
C547 C531 1.377 . S
C547 C545 1.389 . S
C547 C548 1.524 . S
C548 C547 1.524 . S
C548 C549 1.397 . S
C548 C553 1.363 . S
C549 H520 0.950 . S
C549 C548 1.397 . S
C549 C550 1.334 . S
C550 H521 0.950 . S
C550 C549 1.334 . S
C550 C551 1.287 . S
C551 C550 1.287 . S
C551 C552 1.524 . S
C551 H554 0.999 . S
C552 H522 0.950 . S
C552 C551 1.524 . S
C552 C553 1.415 . S
C553 H523 0.950 . S
C553 C548 1.363 . S
C553 C552 1.415 . S
H554 C551 0.999 . S
H555 C536 0.913 . S
H556 C574 0.951 . S
H557 C576 0.951 . S
H558 C578 0.950 . S
H559 C579 0.950 . S
H560 C581 0.950 . S
H561 C584 0.950 . S
H562 C585 0.950 . S
H563 C587 0.950 . S
H564 C588 0.950 . S
H565 C589 0.951 . S
H566 C591 0.951 . S
H567 C593 0.950 . S
H568 C594 0.950 . S
H569 C596 0.950 . S
H570 C599 0.950 . S
H571 C600 0.950 . S
H572 C602 0.950 . S
H573 C603 0.950 . S
C574 H556 0.951 . S
C574 C575 1.366 . S
C574 C576 1.388 . S
C575 C574 1.366 . S
C575 C579 1.385 . S
C576 H557 0.951 . S
C576 C574 1.388 . S
C576 C577 1.366 . S
C577 C576 1.366 . S
C577 C578 1.414 . S
C577 C580 1.499 . S
C578 H558 0.950 . S
C578 C577 1.414 . S
C578 C579 1.374 . S
C579 H559 0.950 . S
C579 C575 1.385 . S
C579 C578 1.374 . S
C580 C577 1.499 . S
C580 C581 1.373 . S
C580 C582 1.389 . S
C581 H560 0.950 . S
C581 C580 1.373 . S
C581 C597 1.377 1_556 S
C582 C580 1.389 . S
C582 C583 1.524 . S
C582 C596 1.377 1_556 S
C583 C582 1.524 . S
C583 C584 1.397 . S
C583 C588 1.363 . S
C584 H561 0.950 . S
C584 C583 1.397 . S
C584 C585 1.334 . S
C585 H562 0.950 . S
C585 C584 1.334 . S
C585 C586 1.287 . S
C586 C585 1.287 . S
C586 C587 1.524 . S
C586 H605 0.913 . S
C587 H563 0.950 . S
C587 C586 1.524 . S
C587 C588 1.415 . S
C588 H564 0.950 . S
C588 C583 1.363 . S
C588 C587 1.415 . S
C589 H565 0.951 . S
C589 C590 1.366 . S
C589 C591 1.388 . S
C590 C589 1.366 . S
C590 C594 1.385 . S
C591 H566 0.951 . S
C591 C589 1.388 . S
C591 C592 1.366 . S
C592 C591 1.366 . S
C592 C593 1.414 . S
C592 C595 1.499 . S
C593 H567 0.950 . S
C593 C592 1.414 . S
C593 C594 1.374 . S
C594 H568 0.950 . S
C594 C590 1.385 . S
C594 C593 1.374 . S
C595 C592 1.499 . S
C595 C596 1.373 . S
C595 C597 1.389 . S
C596 H569 0.950 . S
C596 C582 1.377 1_554 S
C596 C595 1.373 . S
C597 C581 1.377 1_554 S
C597 C595 1.389 . S
C597 C598 1.524 . S
C598 C597 1.524 . S
C598 C599 1.397 . S
C598 C603 1.363 . S
C599 H570 0.950 . S
C599 C598 1.397 . S
C599 C600 1.334 . S
C600 H571 0.950 . S
C600 C599 1.334 . S
C600 C601 1.287 . S
C601 C600 1.287 . S
C601 C602 1.524 . S
C601 H604 0.999 . S
C602 H572 0.950 . S
C602 C601 1.524 . S
C602 C603 1.415 . S
C603 H573 0.950 . S
C603 C598 1.363 . S
C603 C602 1.415 . S
H604 C601 0.999 . S
H605 C586 0.913 . S
H606 C624 0.951 . S
H607 C626 0.951 . S
H608 C628 0.950 . S
H609 C629 0.950 . S
H610 C631 0.950 . S
H611 C634 0.950 . S
H612 C635 0.950 . S
H613 C637 0.950 . S
H614 C638 0.950 . S
H615 C639 0.951 . S
H616 C641 0.951 . S
H617 C643 0.950 . S
H618 C644 0.950 . S
H619 C646 0.950 . S
H620 C649 0.950 . S
H621 C650 0.950 . S
H622 C652 0.950 . S
H623 C653 0.950 . S
C624 H606 0.951 . S
C624 C625 1.366 . S
C624 C626 1.388 . S
C625 C624 1.366 . S
C625 C629 1.385 . S
C626 H607 0.951 . S
C626 C624 1.388 . S
C626 C627 1.366 . S
C627 C626 1.366 . S
C627 C628 1.414 . S
C627 C630 1.499 . S
C628 H608 0.950 . S
C628 C627 1.414 . S
C628 C629 1.374 . S
C629 H609 0.950 . S
C629 C625 1.385 . S
C629 C628 1.374 . S
C630 C627 1.499 . S
C630 C631 1.373 1_655 S
C630 C632 1.389 . S
C631 H610 0.950 . S
C631 C630 1.373 1_455 S
C631 C647 1.377 . S
C632 C630 1.389 . S
C632 C633 1.524 . S
C632 C646 1.377 . S
C633 C632 1.524 . S
C633 C634 1.397 . S
C633 C638 1.363 . S
C634 H611 0.950 . S
C634 C633 1.397 . S
C634 C635 1.334 . S
C635 H612 0.950 . S
C635 C634 1.334 . S
C635 C636 1.287 . S
C636 C635 1.287 . S
C636 C637 1.524 . S
C636 H655 0.913 . S
C637 H613 0.950 . S
C637 C636 1.524 . S
C637 C638 1.415 . S
C638 H614 0.950 . S
C638 C633 1.363 . S
C638 C637 1.415 . S
C639 H615 0.951 . S
C639 C640 1.366 . S
C639 C641 1.388 . S
C640 C639 1.366 . S
C640 C644 1.385 . S
C641 H616 0.951 . S
C641 C639 1.388 . S
C641 C642 1.366 . S
C642 C641 1.366 . S
C642 C643 1.414 . S
C642 C645 1.499 . S
C643 H617 0.950 . S
C643 C642 1.414 . S
C643 C644 1.374 . S
C644 H618 0.950 . S
C644 C640 1.385 . S
C644 C643 1.374 . S
C645 C642 1.499 . S
C645 C646 1.373 1_455 S
C645 C647 1.389 . S
C646 H619 0.950 . S
C646 C632 1.377 . S
C646 C645 1.373 1_655 S
C647 C631 1.377 . S
C647 C645 1.389 . S
C647 C648 1.524 . S
C648 C647 1.524 . S
C648 C649 1.397 . S
C648 C653 1.363 . S
C649 H620 0.950 . S
C649 C648 1.397 . S
C649 C650 1.334 . S
C650 H621 0.950 . S
C650 C649 1.334 . S
C650 C651 1.287 . S
C651 C650 1.287 . S
C651 C652 1.524 . S
C651 H654 0.999 . S
C652 H622 0.950 . S
C652 C651 1.524 . S
C652 C653 1.415 . S
C653 H623 0.950 . S
C653 C648 1.363 . S
C653 C652 1.415 . S
H654 C651 0.999 . S
H655 C636 0.913 . S
H656 C674 0.951 . S
H657 C676 0.951 . S
H658 C678 0.950 1_565 S
H659 C679 0.950 . S
H660 C681 0.950 . S
H661 C684 0.950 . S
H662 C685 0.950 . S
H663 C687 0.950 . S
H664 C688 0.950 . S
H665 C689 0.951 . S
H666 C691 0.951 . S
H667 C693 0.950 1_545 S
H668 C694 0.950 . S
H669 C696 0.950 . S
H670 C699 0.950 . S
H671 C700 0.950 . S
H672 C702 0.950 . S
H673 C703 0.950 . S
C674 H656 0.951 . S
C674 C675 1.366 . S
C674 C676 1.388 . S
C675 C674 1.366 . S
C675 C679 1.385 . S
C676 H657 0.951 . S
C676 C674 1.388 . S
C676 C677 1.366 . S
C677 C676 1.366 . S
C677 C678 1.414 . S
C677 C680 1.499 . S
C678 H658 0.950 1_545 S
C678 C677 1.414 . S
C678 C679 1.374 . S
C679 H659 0.950 . S
C679 C675 1.385 . S
C679 C678 1.374 . S
C680 C677 1.499 . S
C680 C681 1.373 1_545 S
C680 C682 1.389 . S
C681 H660 0.950 . S
C681 C680 1.373 1_565 S
C681 C697 1.377 1_556 S
C682 C680 1.389 . S
C682 C683 1.524 . S
C682 C696 1.377 1_556 S
C683 C682 1.524 . S
C683 C684 1.397 . S
C683 C688 1.363 1_556 S
C684 H661 0.950 . S
C684 C683 1.397 . S
C684 C685 1.334 . S
C685 H662 0.950 . S
C685 C684 1.334 . S
C685 C686 1.287 . S
C686 C685 1.287 . S
C686 C687 1.524 1_556 S
C686 H705 0.913 . S
C687 H663 0.950 . S
C687 C686 1.524 1_554 S
C687 C688 1.415 . S
C688 H664 0.950 . S
C688 C683 1.363 1_554 S
C688 C687 1.415 . S
C689 H665 0.951 . S
C689 C690 1.366 . S
C689 C691 1.388 . S
C690 C689 1.366 . S
C690 C694 1.385 . S
C691 H666 0.951 . S
C691 C689 1.388 . S
C691 C692 1.366 . S
C692 C691 1.366 . S
C692 C693 1.414 . S
C692 C695 1.499 . S
C693 H667 0.950 1_565 S
C693 C692 1.414 . S
C693 C694 1.374 . S
C694 H668 0.950 . S
C694 C690 1.385 . S
C694 C693 1.374 . S
C695 C692 1.499 . S
C695 C696 1.373 1_565 S
C695 C697 1.389 . S
C696 H669 0.950 . S
C696 C682 1.377 1_554 S
C696 C695 1.373 1_545 S
C697 C681 1.377 1_554 S
C697 C695 1.389 . S
C697 C698 1.524 . S
C698 C697 1.524 . S
C698 C699 1.397 . S
C698 C703 1.363 1_554 S
C699 H670 0.950 . S
C699 C698 1.397 . S
C699 C700 1.334 . S
C700 H671 0.950 . S
C700 C699 1.334 . S
C700 C701 1.287 . S
C701 C700 1.287 . S
C701 C702 1.524 1_554 S
C701 H704 0.999 . S
C702 H672 0.950 . S
C702 C701 1.524 1_556 S
C702 C703 1.415 . S
C703 H673 0.950 . S
C703 C698 1.363 1_556 S
C703 C702 1.415 . S
H704 C701 0.999 . S
H705 C686 0.913 . S
H706 C724 0.951 . S
H707 C726 0.951 . S
H708 C728 0.950 . S
H709 C729 0.950 . S
H710 C731 0.950 . S
H711 C734 0.950 . S
H712 C735 0.950 . S
H713 C737 0.950 . S
H714 C738 0.950 . S
H715 C739 0.951 . S
H716 C741 0.951 . S
H717 C743 0.950 . S
H718 C744 0.950 . S
H719 C746 0.950 . S
H720 C749 0.950 . S
H721 C750 0.950 . S
H722 C752 0.950 . S
H723 C753 0.950 . S
C724 H706 0.951 . S
C724 C725 1.366 . S
C724 C726 1.388 . S
C725 C724 1.366 . S
C725 C729 1.385 . S
C726 H707 0.951 . S
C726 C724 1.388 . S
C726 C727 1.366 . S
C727 C726 1.366 . S
C727 C728 1.414 . S
C727 C730 1.499 . S
C728 H708 0.950 . S
C728 C727 1.414 . S
C728 C729 1.374 . S
C729 H709 0.950 . S
C729 C725 1.385 . S
C729 C728 1.374 . S
C730 C727 1.499 . S
C730 C731 1.373 . S
C730 C732 1.389 . S
C731 H710 0.950 . S
C731 C730 1.373 . S
C731 C747 1.377 . S
C732 C730 1.389 . S
C732 C733 1.524 . S
C732 C746 1.377 . S
C733 C732 1.524 . S
C733 C734 1.397 . S
C733 C738 1.363 . S
C734 H711 0.950 . S
C734 C733 1.397 . S
C734 C735 1.334 . S
C735 H712 0.950 . S
C735 C734 1.334 . S
C735 C736 1.287 . S
C736 C735 1.287 . S
C736 C737 1.524 . S
C736 H755 0.913 . S
C737 H713 0.950 . S
C737 C736 1.524 . S
C737 C738 1.415 . S
C738 H714 0.950 . S
C738 C733 1.363 . S
C738 C737 1.415 . S
C739 H715 0.951 . S
C739 C740 1.366 . S
C739 C741 1.388 . S
C740 C739 1.366 . S
C740 C744 1.385 . S
C741 H716 0.951 . S
C741 C739 1.388 . S
C741 C742 1.366 . S
C742 C741 1.366 . S
C742 C743 1.414 . S
C742 C745 1.499 . S
C743 H717 0.950 . S
C743 C742 1.414 . S
C743 C744 1.374 . S
C744 H718 0.950 . S
C744 C740 1.385 . S
C744 C743 1.374 . S
C745 C742 1.499 . S
C745 C746 1.373 . S
C745 C747 1.389 . S
C746 H719 0.950 . S
C746 C732 1.377 . S
C746 C745 1.373 . S
C747 C731 1.377 . S
C747 C745 1.389 . S
C747 C748 1.524 . S
C748 C747 1.524 . S
C748 C749 1.397 . S
C748 C753 1.363 . S
C749 H720 0.950 . S
C749 C748 1.397 . S
C749 C750 1.334 . S
C750 H721 0.950 . S
C750 C749 1.334 . S
C750 C751 1.287 . S
C751 C750 1.287 . S
C751 C752 1.524 . S
C751 H754 0.999 . S
C752 H722 0.950 . S
C752 C751 1.524 . S
C752 C753 1.415 . S
C753 H723 0.950 . S
C753 C748 1.363 . S
C753 C752 1.415 . S
H754 C751 0.999 . S
H755 C736 0.913 . S
H756 C774 0.951 . S
H757 C776 0.951 . S
H758 C778 0.950 . S
H759 C779 0.950 . S
H760 C781 0.950 . S
H761 C784 0.950 . S
H762 C785 0.950 . S
H763 C787 0.950 . S
H764 C788 0.950 . S
H765 C789 0.951 . S
H766 C791 0.951 . S
H767 C793 0.950 . S
H768 C794 0.950 . S
H769 C796 0.950 . S
H770 C799 0.950 . S
H771 C800 0.950 . S
H772 C802 0.950 . S
H773 C803 0.950 . S
C774 H756 0.951 . S
C774 C775 1.366 . S
C774 C776 1.388 . S
C775 C774 1.366 . S
C775 C779 1.385 . S
C776 H757 0.951 . S
C776 C774 1.388 . S
C776 C777 1.366 . S
C777 C776 1.366 . S
C777 C778 1.414 . S
C777 C780 1.499 . S
C778 H758 0.950 . S
C778 C777 1.414 . S
C778 C779 1.374 . S
C779 H759 0.950 . S
C779 C775 1.385 . S
C779 C778 1.374 . S
C780 C777 1.499 . S
C780 C781 1.373 . S
C780 C782 1.389 . S
C781 H760 0.950 . S
C781 C780 1.373 . S
C781 C797 1.377 . S
C782 C780 1.389 . S
C782 C783 1.524 . S
C782 C796 1.377 . S
C783 C782 1.524 . S
C783 C784 1.397 . S
C783 C788 1.363 . S
C784 H761 0.950 . S
C784 C783 1.397 . S
C784 C785 1.334 . S
C785 H762 0.950 . S
C785 C784 1.334 . S
C785 C786 1.287 . S
C786 C785 1.287 . S
C786 C787 1.524 . S
C786 H805 0.913 . S
C787 H763 0.950 . S
C787 C786 1.524 . S
C787 C788 1.415 . S
C788 H764 0.950 . S
C788 C783 1.363 . S
C788 C787 1.415 . S
C789 H765 0.951 . S
C789 C790 1.366 . S
C789 C791 1.388 . S
C790 C789 1.366 . S
C790 C794 1.385 . S
C791 H766 0.951 . S
C791 C789 1.388 . S
C791 C792 1.366 . S
C792 C791 1.366 . S
C792 C793 1.414 . S
C792 C795 1.499 . S
C793 H767 0.950 . S
C793 C792 1.414 . S
C793 C794 1.374 . S
C794 H768 0.950 . S
C794 C790 1.385 . S
C794 C793 1.374 . S
C795 C792 1.499 . S
C795 C796 1.373 . S
C795 C797 1.389 . S
C796 H769 0.950 . S
C796 C782 1.377 . S
C796 C795 1.373 . S
C797 C781 1.377 . S
C797 C795 1.389 . S
C797 C798 1.524 . S
C798 C797 1.524 . S
C798 C799 1.397 . S
C798 C803 1.363 . S
C799 H770 0.950 . S
C799 C798 1.397 . S
C799 C800 1.334 . S
C800 H771 0.950 . S
C800 C799 1.334 . S
C800 C801 1.287 . S
C801 C800 1.287 . S
C801 C802 1.524 . S
C801 H804 0.999 . S
C802 H772 0.950 . S
C802 C801 1.524 . S
C802 C803 1.415 . S
C803 H773 0.950 . S
C803 C798 1.363 . S
C803 C802 1.415 . S
H804 C801 0.999 . S
H805 C786 0.913 . S
H806 C824 0.951 . S
H807 C826 0.951 . S
H808 C828 0.950 . S
H809 C829 0.950 . S
H810 C831 0.950 . S
H811 C834 0.950 . S
H812 C835 0.950 . S
H813 C837 0.950 . S
H814 C838 0.950 . S
H815 C839 0.951 . S
H816 C841 0.951 . S
H817 C843 0.950 . S
H818 C844 0.950 . S
H819 C846 0.950 . S
H820 C849 0.950 . S
H821 C850 0.950 . S
H822 C852 0.950 . S
H823 C853 0.950 . S
C824 H806 0.951 . S
C824 C825 1.366 . S
C824 C826 1.388 . S
C825 C824 1.366 . S
C825 C829 1.385 . S
C826 H807 0.951 . S
C826 C824 1.388 . S
C826 C827 1.366 . S
C827 C826 1.366 . S
C827 C828 1.414 . S
C827 C830 1.499 . S
C828 H808 0.950 . S
C828 C827 1.414 . S
C828 C829 1.374 . S
C829 H809 0.950 . S
C829 C825 1.385 . S
C829 C828 1.374 . S
C830 C827 1.499 . S
C830 C831 1.373 . S
C830 C832 1.389 . S
C831 H810 0.950 . S
C831 C830 1.373 . S
C831 C847 1.377 . S
C832 C830 1.389 . S
C832 C833 1.524 . S
C832 C846 1.377 . S
C833 C832 1.524 . S
C833 C834 1.397 . S
C833 C838 1.363 . S
C834 H811 0.950 . S
C834 C833 1.397 . S
C834 C835 1.334 . S
C835 H812 0.950 . S
C835 C834 1.334 . S
C835 C836 1.287 . S
C836 C835 1.287 . S
C836 C837 1.524 . S
C836 H855 0.913 . S
C837 H813 0.950 . S
C837 C836 1.524 . S
C837 C838 1.415 . S
C838 H814 0.950 . S
C838 C833 1.363 . S
C838 C837 1.415 . S
C839 H815 0.951 . S
C839 C840 1.366 . S
C839 C841 1.388 . S
C840 C839 1.366 . S
C840 C844 1.385 . S
C841 H816 0.951 . S
C841 C839 1.388 . S
C841 C842 1.366 . S
C842 C841 1.366 . S
C842 C843 1.414 . S
C842 C845 1.499 . S
C843 H817 0.950 . S
C843 C842 1.414 . S
C843 C844 1.374 . S
C844 H818 0.950 . S
C844 C840 1.385 . S
C844 C843 1.374 . S
C845 C842 1.499 . S
C845 C846 1.373 . S
C845 C847 1.389 . S
C846 H819 0.950 . S
C846 C832 1.377 . S
C846 C845 1.373 . S
C847 C831 1.377 . S
C847 C845 1.389 . S
C847 C848 1.524 . S
C848 C847 1.524 . S
C848 C849 1.397 . S
C848 C853 1.363 . S
C849 H820 0.950 . S
C849 C848 1.397 . S
C849 C850 1.334 . S
C850 H821 0.950 . S
C850 C849 1.334 . S
C850 C851 1.287 . S
C851 C850 1.287 . S
C851 C852 1.524 . S
C851 H854 0.999 . S
C852 H822 0.950 . S
C852 C851 1.524 . S
C852 C853 1.415 . S
C853 H823 0.950 . S
C853 C848 1.363 . S
C853 C852 1.415 . S
H854 C851 0.999 . S
H855 C836 0.913 . S
H856 C874 0.951 . S
H857 C876 0.951 . S
H858 C878 0.950 . S
H859 C879 0.950 . S
H860 C881 0.950 . S
H861 C884 0.950 . S
H862 C885 0.950 . S
H863 C887 0.950 . S
H864 C888 0.950 . S
H865 C889 0.951 . S
H866 C891 0.951 . S
H867 C893 0.950 . S
H868 C894 0.950 . S
H869 C896 0.950 . S
H870 C899 0.950 . S
H871 C900 0.950 . S
H872 C902 0.950 . S
H873 C903 0.950 . S
C874 H856 0.951 . S
C874 C875 1.366 . S
C874 C876 1.388 . S
C875 C874 1.366 . S
C875 C879 1.385 . S
C876 H857 0.951 . S
C876 C874 1.388 . S
C876 C877 1.366 . S
C877 C876 1.366 . S
C877 C878 1.414 . S
C877 C880 1.499 . S
C878 H858 0.950 . S
C878 C877 1.414 . S
C878 C879 1.374 . S
C879 H859 0.950 . S
C879 C875 1.385 . S
C879 C878 1.374 . S
C880 C877 1.499 . S
C880 C881 1.373 . S
C880 C882 1.389 . S
C881 H860 0.950 . S
C881 C880 1.373 . S
C881 C897 1.377 . S
C882 C880 1.389 . S
C882 C883 1.524 . S
C882 C896 1.377 . S
C883 C882 1.524 . S
C883 C884 1.397 . S
C883 C888 1.363 . S
C884 H861 0.950 . S
C884 C883 1.397 . S
C884 C885 1.334 . S
C885 H862 0.950 . S
C885 C884 1.334 . S
C885 C886 1.287 . S
C886 C885 1.287 . S
C886 C887 1.524 . S
C886 H905 0.913 . S
C887 H863 0.950 . S
C887 C886 1.524 . S
C887 C888 1.415 . S
C888 H864 0.950 . S
C888 C883 1.363 . S
C888 C887 1.415 . S
C889 H865 0.951 . S
C889 C890 1.366 . S
C889 C891 1.388 . S
C890 C889 1.366 . S
C890 C894 1.385 . S
C891 H866 0.951 . S
C891 C889 1.388 . S
C891 C892 1.366 . S
C892 C891 1.366 . S
C892 C893 1.414 . S
C892 C895 1.499 . S
C893 H867 0.950 . S
C893 C892 1.414 . S
C893 C894 1.374 . S
C894 H868 0.950 . S
C894 C890 1.385 . S
C894 C893 1.374 . S
C895 C892 1.499 . S
C895 C896 1.373 . S
C895 C897 1.389 . S
C896 H869 0.950 . S
C896 C882 1.377 . S
C896 C895 1.373 . S
C897 C881 1.377 . S
C897 C895 1.389 . S
C897 C898 1.524 . S
C898 C897 1.524 . S
C898 C899 1.397 . S
C898 C903 1.363 . S
C899 H870 0.950 . S
C899 C898 1.397 . S
C899 C900 1.334 . S
C900 H871 0.950 . S
C900 C899 1.334 . S
C900 C901 1.287 . S
C901 C900 1.287 . S
C901 C902 1.524 . S
C901 H904 0.999 . S
C902 H872 0.950 . S
C902 C901 1.524 . S
C902 C903 1.415 . S
C903 H873 0.950 . S
C903 C898 1.363 . S
C903 C902 1.415 . S
H904 C901 0.999 . S
H905 C886 0.913 . S
H906 C924 0.951 . S
H907 C926 0.951 . S
H908 C928 0.950 . S
H909 C929 0.950 . S
H910 C931 0.950 . S
H911 C934 0.950 . S
H912 C935 0.950 . S
H913 C937 0.950 . S
H914 C938 0.950 . S
H915 C939 0.951 . S
H916 C941 0.951 . S
H917 C943 0.950 . S
H918 C944 0.950 . S
H919 C946 0.950 . S
H920 C949 0.950 . S
H921 C950 0.950 . S
H922 C952 0.950 . S
H923 C953 0.950 . S
C924 H906 0.951 . S
C924 C925 1.366 . S
C924 C926 1.388 . S
C925 C924 1.366 . S
C925 C929 1.385 . S
C926 H907 0.951 . S
C926 C924 1.388 . S
C926 C927 1.366 . S
C927 C926 1.366 . S
C927 C928 1.414 . S
C927 C930 1.499 . S
C928 H908 0.950 . S
C928 C927 1.414 . S
C928 C929 1.374 . S
C929 H909 0.950 . S
C929 C925 1.385 . S
C929 C928 1.374 . S
C930 C927 1.499 . S
C930 C931 1.373 . S
C930 C932 1.389 . S
C931 H910 0.950 . S
C931 C930 1.373 . S
C931 C947 1.377 . S
C932 C930 1.389 . S
C932 C933 1.524 . S
C932 C946 1.377 . S
C933 C932 1.524 . S
C933 C934 1.397 . S
C933 C938 1.363 . S
C934 H911 0.950 . S
C934 C933 1.397 . S
C934 C935 1.334 . S
C935 H912 0.950 . S
C935 C934 1.334 . S
C935 C936 1.287 . S
C936 C935 1.287 . S
C936 C937 1.524 . S
C936 H955 0.913 . S
C937 H913 0.950 . S
C937 C936 1.524 . S
C937 C938 1.415 . S
C938 H914 0.950 . S
C938 C933 1.363 . S
C938 C937 1.415 . S
C939 H915 0.951 . S
C939 C940 1.366 . S
C939 C941 1.388 . S
C940 C939 1.366 . S
C940 C944 1.385 . S
C941 H916 0.951 . S
C941 C939 1.388 . S
C941 C942 1.366 . S
C942 C941 1.366 . S
C942 C943 1.414 . S
C942 C945 1.499 . S
C943 H917 0.950 . S
C943 C942 1.414 . S
C943 C944 1.374 . S
C944 H918 0.950 . S
C944 C940 1.385 . S
C944 C943 1.374 . S
C945 C942 1.499 . S
C945 C946 1.373 . S
C945 C947 1.389 . S
C946 H919 0.950 . S
C946 C932 1.377 . S
C946 C945 1.373 . S
C947 C931 1.377 . S
C947 C945 1.389 . S
C947 C948 1.524 . S
C948 C947 1.524 . S
C948 C949 1.397 . S
C948 C953 1.363 . S
C949 H920 0.950 . S
C949 C948 1.397 . S
C949 C950 1.334 . S
C950 H921 0.950 . S
C950 C949 1.334 . S
C950 C951 1.287 . S
C951 C950 1.287 . S
C951 C952 1.524 . S
C951 H954 0.999 . S
C952 H922 0.950 . S
C952 C951 1.524 . S
C952 C953 1.415 . S
C953 H923 0.950 . S
C953 C948 1.363 . S
C953 C952 1.415 . S
H954 C951 0.999 . S
H955 C936 0.913 . S
H956 C974 0.951 . S
H957 C976 0.951 . S
H958 C978 0.950 . S
H959 C979 0.950 . S
H960 C981 0.950 . S
H961 C984 0.950 . S
H962 C985 0.950 . S
H963 C987 0.950 . S
H964 C988 0.950 . S
H965 C989 0.951 . S
H966 C991 0.951 . S
H967 C993 0.950 . S
H968 C994 0.950 . S
H969 C996 0.950 . S
H970 C999 0.950 . S
H971 C1000 0.950 . S
H972 C1002 0.950 1_545 S
H973 C1003 0.950 . S
C974 H956 0.951 . S
C974 C975 1.366 . S
C974 C976 1.388 . S
C975 C974 1.366 . S
C975 C979 1.385 . S
C976 H957 0.951 . S
C976 C974 1.388 . S
C976 C977 1.366 . S
C977 C976 1.366 . S
C977 C978 1.414 . S
C977 C980 1.499 . S
C978 H958 0.950 . S
C978 C977 1.414 . S
C978 C979 1.374 . S
C979 H959 0.950 . S
C979 C975 1.385 . S
C979 C978 1.374 . S
C980 C977 1.499 . S
C980 C981 1.373 . S
C980 C982 1.389 . S
C981 H960 0.950 . S
C981 C980 1.373 . S
C981 C997 1.377 . S
C982 C980 1.389 . S
C982 C983 1.524 . S
C982 C996 1.377 . S
C983 C982 1.524 . S
C983 C984 1.397 . S
C983 C988 1.363 . S
C984 H961 0.950 . S
C984 C983 1.397 . S
C984 C985 1.334 . S
C985 H962 0.950 . S
C985 C984 1.334 . S
C985 C986 1.287 . S
C986 C985 1.287 . S
C986 C987 1.524 . S
C986 H1005 0.913 . S
C987 H963 0.950 . S
C987 C986 1.524 . S
C987 C988 1.415 . S
C988 H964 0.950 . S
C988 C983 1.363 . S
C988 C987 1.415 . S
C989 H965 0.951 . S
C989 C990 1.366 . S
C989 C991 1.388 . S
C990 C989 1.366 . S
C990 C994 1.385 . S
C991 H966 0.951 . S
C991 C989 1.388 . S
C991 C992 1.366 . S
C992 C991 1.366 . S
C992 C993 1.414 . S
C992 C995 1.499 . S
C993 H967 0.950 . S
C993 C992 1.414 . S
C993 C994 1.374 . S
C994 H968 0.950 . S
C994 C990 1.385 . S
C994 C993 1.374 . S
C995 C992 1.499 . S
C995 C996 1.373 . S
C995 C997 1.389 . S
C996 H969 0.950 . S
C996 C982 1.377 . S
C996 C995 1.373 . S
C997 C981 1.377 . S
C997 C995 1.389 . S
C997 C998 1.524 . S
C998 C997 1.524 . S
C998 C999 1.397 . S
C998 C1003 1.363 . S
C999 H970 0.950 . S
C999 C998 1.397 . S
C999 C1000 1.334 . S
C1000 H971 0.950 . S
C1000 C999 1.334 . S
C1000 C1001 1.287 . S
C1001 C1000 1.287 . S
C1001 C1002 1.524 . S
C1001 H1004 0.999 1_565 S
C1002 H972 0.950 1_565 S
C1002 C1001 1.524 . S
C1002 C1003 1.415 . S
C1003 H973 0.950 . S
C1003 C998 1.363 . S
C1003 C1002 1.415 . S
H1004 C1001 0.999 1_545 S
H1005 C986 0.913 . S
H1006 C1024 0.951 . S
H1007 C1026 0.951 . S
H1008 C1028 0.950 . S
H1009 C1029 0.950 . S
H1010 C1031 0.950 . S
H1011 C1034 0.950 . S
H1012 C1035 0.950 . S
H1013 C1037 0.950 . S
H1014 C1038 0.950 . S
H1015 C1039 0.951 . S
H1016 C1041 0.951 . S
H1017 C1043 0.950 . S
H1018 C1044 0.950 . S
H1019 C1046 0.950 . S
H1020 C1049 0.950 . S
H1021 C1050 0.950 . S
H1022 C1052 0.950 . S
H1023 C1053 0.950 . S
C1024 H1006 0.951 . S
C1024 C1025 1.366 . S
C1024 C1026 1.388 . S
C1025 C1024 1.366 . S
C1025 C1029 1.385 . S
C1026 H1007 0.951 . S
C1026 C1024 1.388 . S
C1026 C1027 1.366 . S
C1027 C1026 1.366 . S
C1027 C1028 1.414 . S
C1027 C1030 1.499 . S
C1028 H1008 0.950 . S
C1028 C1027 1.414 . S
C1028 C1029 1.374 . S
C1029 H1009 0.950 . S
C1029 C1025 1.385 . S
C1029 C1028 1.374 . S
C1030 C1027 1.499 . S
C1030 C1031 1.373 . S
C1030 C1032 1.389 . S
C1031 H1010 0.950 . S
C1031 C1030 1.373 . S
C1031 C1047 1.377 . S
C1032 C1030 1.389 . S
C1032 C1033 1.524 . S
C1032 C1046 1.377 . S
C1033 C1032 1.524 . S
C1033 C1034 1.397 . S
C1033 C1038 1.363 . S
C1034 H1011 0.950 . S
C1034 C1033 1.397 . S
C1034 C1035 1.334 . S
C1035 H1012 0.950 . S
C1035 C1034 1.334 . S
C1035 C1036 1.287 . S
C1036 C1035 1.287 . S
C1036 C1037 1.524 . S
C1036 H1055 0.913 . S
C1037 H1013 0.950 . S
C1037 C1036 1.524 . S
C1037 C1038 1.415 . S
C1038 H1014 0.950 . S
C1038 C1033 1.363 . S
C1038 C1037 1.415 . S
C1039 H1015 0.951 . S
C1039 C1040 1.366 . S
C1039 C1041 1.388 . S
C1040 C1039 1.366 . S
C1040 C1044 1.385 . S
C1041 H1016 0.951 . S
C1041 C1039 1.388 . S
C1041 C1042 1.366 . S
C1042 C1041 1.366 . S
C1042 C1043 1.414 . S
C1042 C1045 1.499 . S
C1043 H1017 0.950 . S
C1043 C1042 1.414 . S
C1043 C1044 1.374 . S
C1044 H1018 0.950 . S
C1044 C1040 1.385 . S
C1044 C1043 1.374 . S
C1045 C1042 1.499 . S
C1045 C1046 1.373 . S
C1045 C1047 1.389 . S
C1046 H1019 0.950 . S
C1046 C1032 1.377 . S
C1046 C1045 1.373 . S
C1047 C1031 1.377 . S
C1047 C1045 1.389 . S
C1047 C1048 1.524 . S
C1048 C1047 1.524 . S
C1048 C1049 1.397 . S
C1048 C1053 1.363 . S
C1049 H1020 0.950 . S
C1049 C1048 1.397 . S
C1049 C1050 1.334 . S
C1050 H1021 0.950 . S
C1050 C1049 1.334 . S
C1050 C1051 1.287 . S
C1051 C1050 1.287 . S
C1051 C1052 1.524 . S
C1051 H1054 0.999 . S
C1052 H1022 0.950 . S
C1052 C1051 1.524 . S
C1052 C1053 1.415 . S
C1053 H1023 0.950 . S
C1053 C1048 1.363 . S
C1053 C1052 1.415 . S
H1054 C1051 0.999 . S
H1055 C1036 0.913 . S
H1056 C1074 0.951 . S
H1057 C1076 0.951 . S
H1058 C1078 0.950 . S
H1059 C1079 0.950 . S
H1060 C1081 0.950 . S
H1061 C1084 0.950 . S
H1062 C1085 0.950 . S
H1063 C1087 0.950 . S
H1064 C1088 0.950 . S
H1065 C1089 0.951 . S
H1066 C1091 0.951 . S
H1067 C1093 0.950 . S
H1068 C1094 0.950 . S
H1069 C1096 0.950 . S
H1070 C1099 0.950 . S
H1071 C1100 0.950 . S
H1072 C1102 0.950 . S
H1073 C1103 0.950 . S
C1074 H1056 0.951 . S
C1074 C1075 1.366 . S
C1074 C1076 1.388 . S
C1075 C1074 1.366 . S
C1075 C1079 1.385 . S
C1076 H1057 0.951 . S
C1076 C1074 1.388 . S
C1076 C1077 1.366 . S
C1077 C1076 1.366 . S
C1077 C1078 1.414 . S
C1077 C1080 1.499 . S
C1078 H1058 0.950 . S
C1078 C1077 1.414 . S
C1078 C1079 1.374 . S
C1079 H1059 0.950 . S
C1079 C1075 1.385 . S
C1079 C1078 1.374 . S
C1080 C1077 1.499 . S
C1080 C1081 1.373 . S
C1080 C1082 1.389 . S
C1081 H1060 0.950 . S
C1081 C1080 1.373 . S
C1081 C1097 1.377 . S
C1082 C1080 1.389 . S
C1082 C1083 1.524 . S
C1082 C1096 1.377 . S
C1083 C1082 1.524 . S
C1083 C1084 1.397 . S
C1083 C1088 1.363 . S
C1084 H1061 0.950 . S
C1084 C1083 1.397 . S
C1084 C1085 1.334 . S
C1085 H1062 0.950 . S
C1085 C1084 1.334 . S
C1085 C1086 1.287 . S
C1086 C1085 1.287 . S
C1086 C1087 1.524 . S
C1086 H1105 0.913 . S
C1087 H1063 0.950 . S
C1087 C1086 1.524 . S
C1087 C1088 1.415 . S
C1088 H1064 0.950 . S
C1088 C1083 1.363 . S
C1088 C1087 1.415 . S
C1089 H1065 0.951 . S
C1089 C1090 1.366 . S
C1089 C1091 1.388 . S
C1090 C1089 1.366 . S
C1090 C1094 1.385 . S
C1091 H1066 0.951 . S
C1091 C1089 1.388 . S
C1091 C1092 1.366 . S
C1092 C1091 1.366 . S
C1092 C1093 1.414 . S
C1092 C1095 1.499 . S
C1093 H1067 0.950 . S
C1093 C1092 1.414 . S
C1093 C1094 1.374 . S
C1094 H1068 0.950 . S
C1094 C1090 1.385 . S
C1094 C1093 1.374 . S
C1095 C1092 1.499 . S
C1095 C1096 1.373 . S
C1095 C1097 1.389 . S
C1096 H1069 0.950 . S
C1096 C1082 1.377 . S
C1096 C1095 1.373 . S
C1097 C1081 1.377 . S
C1097 C1095 1.389 . S
C1097 C1098 1.524 . S
C1098 C1097 1.524 . S
C1098 C1099 1.397 . S
C1098 C1103 1.363 . S
C1099 H1070 0.950 . S
C1099 C1098 1.397 . S
C1099 C1100 1.334 . S
C1100 H1071 0.950 . S
C1100 C1099 1.334 . S
C1100 C1101 1.287 . S
C1101 C1100 1.287 . S
C1101 C1102 1.524 . S
C1101 H1104 0.999 . S
C1102 H1072 0.950 . S
C1102 C1101 1.524 . S
C1102 C1103 1.415 . S
C1103 H1073 0.950 . S
C1103 C1098 1.363 . S
C1103 C1102 1.415 . S
H1104 C1101 0.999 . S
H1105 C1086 0.913 . S
H1106 C1124 0.951 . S
H1107 C1126 0.951 . S
H1108 C1128 0.950 . S
H1109 C1129 0.950 . S
H1110 C1131 0.950 . S
H1111 C1134 0.950 . S
H1112 C1135 0.950 . S
H1113 C1137 0.950 . S
H1114 C1138 0.950 . S
H1115 C1139 0.951 . S
H1116 C1141 0.951 . S
H1117 C1143 0.950 . S
H1118 C1144 0.950 . S
H1119 C1146 0.950 . S
H1120 C1149 0.950 . S
H1121 C1150 0.950 . S
H1122 C1152 0.950 . S
H1123 C1153 0.950 . S
C1124 H1106 0.951 . S
C1124 C1125 1.366 . S
C1124 C1126 1.388 . S
C1125 C1124 1.366 . S
C1125 C1129 1.385 . S
C1126 H1107 0.951 . S
C1126 C1124 1.388 . S
C1126 C1127 1.366 . S
C1127 C1126 1.366 . S
C1127 C1128 1.414 . S
C1127 C1130 1.499 . S
C1128 H1108 0.950 . S
C1128 C1127 1.414 . S
C1128 C1129 1.374 . S
C1129 H1109 0.950 . S
C1129 C1125 1.385 . S
C1129 C1128 1.374 . S
C1130 C1127 1.499 . S
C1130 C1131 1.373 . S
C1130 C1132 1.389 . S
C1131 H1110 0.950 . S
C1131 C1130 1.373 . S
C1131 C1147 1.377 . S
C1132 C1130 1.389 . S
C1132 C1133 1.524 . S
C1132 C1146 1.377 . S
C1133 C1132 1.524 . S
C1133 C1134 1.397 . S
C1133 C1138 1.363 . S
C1134 H1111 0.950 . S
C1134 C1133 1.397 . S
C1134 C1135 1.334 . S
C1135 H1112 0.950 . S
C1135 C1134 1.334 . S
C1135 C1136 1.287 . S
C1136 C1135 1.287 . S
C1136 C1137 1.524 . S
C1136 H1155 0.913 . S
C1137 H1113 0.950 . S
C1137 C1136 1.524 . S
C1137 C1138 1.415 . S
C1138 H1114 0.950 . S
C1138 C1133 1.363 . S
C1138 C1137 1.415 . S
C1139 H1115 0.951 . S
C1139 C1140 1.366 . S
C1139 C1141 1.388 . S
C1140 C1139 1.366 . S
C1140 C1144 1.385 . S
C1141 H1116 0.951 . S
C1141 C1139 1.388 . S
C1141 C1142 1.366 . S
C1142 C1141 1.366 . S
C1142 C1143 1.414 . S
C1142 C1145 1.499 . S
C1143 H1117 0.950 . S
C1143 C1142 1.414 . S
C1143 C1144 1.374 . S
C1144 H1118 0.950 . S
C1144 C1140 1.385 . S
C1144 C1143 1.374 . S
C1145 C1142 1.499 . S
C1145 C1146 1.373 . S
C1145 C1147 1.389 . S
C1146 H1119 0.950 . S
C1146 C1132 1.377 . S
C1146 C1145 1.373 . S
C1147 C1131 1.377 . S
C1147 C1145 1.389 . S
C1147 C1148 1.524 . S
C1148 C1147 1.524 . S
C1148 C1149 1.397 . S
C1148 C1153 1.363 . S
C1149 H1120 0.950 . S
C1149 C1148 1.397 . S
C1149 C1150 1.334 . S
C1150 H1121 0.950 . S
C1150 C1149 1.334 . S
C1150 C1151 1.287 . S
C1151 C1150 1.287 . S
C1151 C1152 1.524 . S
C1151 H1154 0.999 . S
C1152 H1122 0.950 . S
C1152 C1151 1.524 . S
C1152 C1153 1.415 . S
C1153 H1123 0.950 . S
C1153 C1148 1.363 . S
C1153 C1152 1.415 . S
H1154 C1151 0.999 . S
H1155 C1136 0.913 . S
H1156 C1174 0.951 . S
H1157 C1176 0.951 . S
H1158 C1178 0.950 . S
H1159 C1179 0.950 . S
H1160 C1181 0.950 . S
H1161 C1184 0.950 . S
H1162 C1185 0.950 . S
H1163 C1187 0.950 . S
H1164 C1188 0.950 . S
H1165 C1189 0.951 . S
H1166 C1191 0.951 . S
H1167 C1193 0.950 . S
H1168 C1194 0.950 . S
H1169 C1196 0.950 . S
H1170 C1199 0.950 . S
H1171 C1200 0.950 . S
H1172 C1202 0.950 . S
H1173 C1203 0.950 . S
C1174 H1156 0.951 . S
C1174 C1175 1.366 . S
C1174 C1176 1.388 . S
C1175 C1174 1.366 . S
C1175 C1179 1.385 . S
C1176 H1157 0.951 . S
C1176 C1174 1.388 . S
C1176 C1177 1.366 . S
C1177 C1176 1.366 . S
C1177 C1178 1.414 . S
C1177 C1180 1.499 . S
C1178 H1158 0.950 . S
C1178 C1177 1.414 . S
C1178 C1179 1.374 . S
C1179 H1159 0.950 . S
C1179 C1175 1.385 . S
C1179 C1178 1.374 . S
C1180 C1177 1.499 . S
C1180 C1181 1.373 . S
C1180 C1182 1.389 . S
C1181 H1160 0.950 . S
C1181 C1180 1.373 . S
C1181 C1197 1.377 . S
C1182 C1180 1.389 . S
C1182 C1183 1.524 . S
C1182 C1196 1.377 . S
C1183 C1182 1.524 . S
C1183 C1184 1.397 . S
C1183 C1188 1.363 . S
C1184 H1161 0.950 . S
C1184 C1183 1.397 . S
C1184 C1185 1.334 . S
C1185 H1162 0.950 . S
C1185 C1184 1.334 . S
C1185 C1186 1.287 . S
C1186 C1185 1.287 . S
C1186 C1187 1.524 . S
C1186 H1205 0.913 . S
C1187 H1163 0.950 . S
C1187 C1186 1.524 . S
C1187 C1188 1.415 . S
C1188 H1164 0.950 . S
C1188 C1183 1.363 . S
C1188 C1187 1.415 . S
C1189 H1165 0.951 . S
C1189 C1190 1.366 . S
C1189 C1191 1.388 . S
C1190 C1189 1.366 . S
C1190 C1194 1.385 . S
C1191 H1166 0.951 . S
C1191 C1189 1.388 . S
C1191 C1192 1.366 . S
C1192 C1191 1.366 . S
C1192 C1193 1.414 . S
C1192 C1195 1.499 . S
C1193 H1167 0.950 . S
C1193 C1192 1.414 . S
C1193 C1194 1.374 . S
C1194 H1168 0.950 . S
C1194 C1190 1.385 . S
C1194 C1193 1.374 . S
C1195 C1192 1.499 . S
C1195 C1196 1.373 . S
C1195 C1197 1.389 . S
C1196 H1169 0.950 . S
C1196 C1182 1.377 . S
C1196 C1195 1.373 . S
C1197 C1181 1.377 . S
C1197 C1195 1.389 . S
C1197 C1198 1.524 . S
C1198 C1197 1.524 . S
C1198 C1199 1.397 . S
C1198 C1203 1.363 . S
C1199 H1170 0.950 . S
C1199 C1198 1.397 . S
C1199 C1200 1.334 . S
C1200 H1171 0.950 . S
C1200 C1199 1.334 . S
C1200 C1201 1.287 . S
C1201 C1200 1.287 . S
C1201 C1202 1.524 . S
C1201 H1204 0.999 . S
C1202 H1172 0.950 . S
C1202 C1201 1.524 . S
C1202 C1203 1.415 . S
C1203 H1173 0.950 . S
C1203 C1198 1.363 . S
C1203 C1202 1.415 . S
H1204 C1201 0.999 . S
H1205 C1186 0.913 . S
H1206 C1224 0.951 . S
H1207 C1226 0.951 . S
H1208 C1228 0.950 . S
H1209 C1229 0.950 . S
H1210 C1231 0.950 . S
H1211 C1234 0.950 . S
H1212 C1235 0.950 . S
H1213 C1237 0.950 . S
H1214 C1238 0.950 . S
H1215 C1239 0.951 . S
H1216 C1241 0.951 . S
H1217 C1243 0.950 . S
H1218 C1244 0.950 . S
H1219 C1246 0.950 . S
H1220 C1249 0.950 . S
H1221 C1250 0.950 . S
H1222 C1252 0.950 . S
H1223 C1253 0.950 . S
C1224 H1206 0.951 . S
C1224 C1225 1.366 . S
C1224 C1226 1.388 . S
C1225 C1224 1.366 . S
C1225 C1229 1.385 . S
C1226 H1207 0.951 . S
C1226 C1224 1.388 . S
C1226 C1227 1.366 . S
C1227 C1226 1.366 . S
C1227 C1228 1.414 . S
C1227 C1230 1.499 . S
C1228 H1208 0.950 . S
C1228 C1227 1.414 . S
C1228 C1229 1.374 . S
C1229 H1209 0.950 . S
C1229 C1225 1.385 . S
C1229 C1228 1.374 . S
C1230 C1227 1.499 . S
C1230 C1231 1.373 . S
C1230 C1232 1.389 . S
C1231 H1210 0.950 . S
C1231 C1230 1.373 . S
C1231 C1247 1.377 . S
C1232 C1230 1.389 . S
C1232 C1233 1.524 . S
C1232 C1246 1.377 . S
C1233 C1232 1.524 . S
C1233 C1234 1.397 . S
C1233 C1238 1.363 . S
C1234 H1211 0.950 . S
C1234 C1233 1.397 . S
C1234 C1235 1.334 . S
C1235 H1212 0.950 . S
C1235 C1234 1.334 . S
C1235 C1236 1.287 . S
C1236 C1235 1.287 . S
C1236 C1237 1.524 . S
C1236 H1255 0.913 . S
C1237 H1213 0.950 . S
C1237 C1236 1.524 . S
C1237 C1238 1.415 . S
C1238 H1214 0.950 . S
C1238 C1233 1.363 . S
C1238 C1237 1.415 . S
C1239 H1215 0.951 . S
C1239 C1240 1.366 . S
C1239 C1241 1.388 . S
C1240 C1239 1.366 . S
C1240 C1244 1.385 . S
C1241 H1216 0.951 . S
C1241 C1239 1.388 . S
C1241 C1242 1.366 . S
C1242 C1241 1.366 . S
C1242 C1243 1.414 . S
C1242 C1245 1.499 . S
C1243 H1217 0.950 . S
C1243 C1242 1.414 . S
C1243 C1244 1.374 . S
C1244 H1218 0.950 . S
C1244 C1240 1.385 . S
C1244 C1243 1.374 . S
C1245 C1242 1.499 . S
C1245 C1246 1.373 . S
C1245 C1247 1.389 . S
C1246 H1219 0.950 . S
C1246 C1232 1.377 . S
C1246 C1245 1.373 . S
C1247 C1231 1.377 . S
C1247 C1245 1.389 . S
C1247 C1248 1.524 . S
C1248 C1247 1.524 . S
C1248 C1249 1.397 . S
C1248 C1253 1.363 . S
C1249 H1220 0.950 . S
C1249 C1248 1.397 . S
C1249 C1250 1.334 . S
C1250 H1221 0.950 . S
C1250 C1249 1.334 . S
C1250 C1251 1.287 . S
C1251 C1250 1.287 . S
C1251 C1252 1.524 . S
C1251 H1254 0.999 . S
C1252 H1222 0.950 . S
C1252 C1251 1.524 . S
C1252 C1253 1.415 . S
C1253 H1223 0.950 . S
C1253 C1248 1.363 . S
C1253 C1252 1.415 . S
H1254 C1251 0.999 . S
H1255 C1236 0.913 . S
H1256 C1274 0.951 . S
H1257 C1276 0.951 . S
H1258 C1278 0.950 . S
H1259 C1279 0.950 . S
H1260 C1281 0.950 . S
H1261 C1284 0.950 . S
H1262 C1285 0.950 . S
H1263 C1287 0.950 . S
H1264 C1288 0.950 . S
H1265 C1289 0.951 . S
H1266 C1291 0.951 . S
H1267 C1293 0.950 . S
H1268 C1294 0.950 . S
H1269 C1296 0.950 . S
H1270 C1299 0.950 . S
H1271 C1300 0.950 . S
H1272 C1302 0.950 . S
H1273 C1303 0.950 . S
C1274 H1256 0.951 . S
C1274 C1275 1.366 . S
C1274 C1276 1.388 . S
C1275 C1274 1.366 . S
C1275 C1279 1.385 . S
C1276 H1257 0.951 . S
C1276 C1274 1.388 . S
C1276 C1277 1.366 . S
C1277 C1276 1.366 . S
C1277 C1278 1.414 . S
C1277 C1280 1.499 . S
C1278 H1258 0.950 . S
C1278 C1277 1.414 . S
C1278 C1279 1.374 . S
C1279 H1259 0.950 . S
C1279 C1275 1.385 . S
C1279 C1278 1.374 . S
C1280 C1277 1.499 . S
C1280 C1281 1.373 . S
C1280 C1282 1.389 . S
C1281 H1260 0.950 . S
C1281 C1280 1.373 . S
C1281 C1297 1.377 . S
C1282 C1280 1.389 . S
C1282 C1283 1.524 . S
C1282 C1296 1.377 . S
C1283 C1282 1.524 . S
C1283 C1284 1.397 . S
C1283 C1288 1.363 . S
C1284 H1261 0.950 . S
C1284 C1283 1.397 . S
C1284 C1285 1.334 . S
C1285 H1262 0.950 . S
C1285 C1284 1.334 . S
C1285 C1286 1.287 . S
C1286 C1285 1.287 . S
C1286 C1287 1.524 . S
C1286 H1305 0.913 . S
C1287 H1263 0.950 . S
C1287 C1286 1.524 . S
C1287 C1288 1.415 . S
C1288 H1264 0.950 . S
C1288 C1283 1.363 . S
C1288 C1287 1.415 . S
C1289 H1265 0.951 . S
C1289 C1290 1.366 . S
C1289 C1291 1.388 . S
C1290 C1289 1.366 . S
C1290 C1294 1.385 . S
C1291 H1266 0.951 . S
C1291 C1289 1.388 . S
C1291 C1292 1.366 . S
C1292 C1291 1.366 . S
C1292 C1293 1.414 . S
C1292 C1295 1.499 . S
C1293 H1267 0.950 . S
C1293 C1292 1.414 . S
C1293 C1294 1.374 . S
C1294 H1268 0.950 . S
C1294 C1290 1.385 . S
C1294 C1293 1.374 . S
C1295 C1292 1.499 . S
C1295 C1296 1.373 . S
C1295 C1297 1.389 . S
C1296 H1269 0.950 . S
C1296 C1282 1.377 . S
C1296 C1295 1.373 . S
C1297 C1281 1.377 . S
C1297 C1295 1.389 . S
C1297 C1298 1.524 . S
C1298 C1297 1.524 . S
C1298 C1299 1.397 . S
C1298 C1303 1.363 . S
C1299 H1270 0.950 . S
C1299 C1298 1.397 . S
C1299 C1300 1.334 . S
C1300 H1271 0.950 . S
C1300 C1299 1.334 . S
C1300 C1301 1.287 . S
C1301 C1300 1.287 . S
C1301 C1302 1.524 . S
C1301 H1304 0.999 . S
C1302 H1272 0.950 . S
C1302 C1301 1.524 . S
C1302 C1303 1.415 . S
C1303 H1273 0.950 . S
C1303 C1298 1.363 . S
C1303 C1302 1.415 . S
H1304 C1301 0.999 . S
H1305 C1286 0.913 . S
H1306 C1324 0.951 . S
H1307 C1326 0.951 . S
H1308 C1328 0.950 . S
H1309 C1329 0.950 . S
H1310 C1331 0.950 . S
H1311 C1334 0.950 . S
H1312 C1335 0.950 . S
H1313 C1337 0.950 . S
H1314 C1338 0.950 . S
H1315 C1339 0.951 . S
H1316 C1341 0.951 . S
H1317 C1343 0.950 . S
H1318 C1344 0.950 . S
H1319 C1346 0.950 . S
H1320 C1349 0.950 . S
H1321 C1350 0.950 . S
H1322 C1352 0.950 . S
H1323 C1353 0.950 . S
C1324 H1306 0.951 . S
C1324 C1325 1.366 . S
C1324 C1326 1.388 . S
C1325 C1324 1.366 . S
C1325 C1329 1.385 . S
C1326 H1307 0.951 . S
C1326 C1324 1.388 . S
C1326 C1327 1.366 . S
C1327 C1326 1.366 . S
C1327 C1328 1.414 . S
C1327 C1330 1.499 . S
C1328 H1308 0.950 . S
C1328 C1327 1.414 . S
C1328 C1329 1.374 . S
C1329 H1309 0.950 . S
C1329 C1325 1.385 . S
C1329 C1328 1.374 . S
C1330 C1327 1.499 . S
C1330 C1331 1.373 . S
C1330 C1332 1.389 . S
C1331 H1310 0.950 . S
C1331 C1330 1.373 . S
C1331 C1347 1.377 . S
C1332 C1330 1.389 . S
C1332 C1333 1.524 . S
C1332 C1346 1.377 . S
C1333 C1332 1.524 . S
C1333 C1334 1.397 . S
C1333 C1338 1.363 . S
C1334 H1311 0.950 . S
C1334 C1333 1.397 . S
C1334 C1335 1.334 . S
C1335 H1312 0.950 . S
C1335 C1334 1.334 . S
C1335 C1336 1.287 . S
C1336 C1335 1.287 . S
C1336 C1337 1.524 . S
C1336 H1355 0.913 . S
C1337 H1313 0.950 . S
C1337 C1336 1.524 . S
C1337 C1338 1.415 . S
C1338 H1314 0.950 . S
C1338 C1333 1.363 . S
C1338 C1337 1.415 . S
C1339 H1315 0.951 . S
C1339 C1340 1.366 . S
C1339 C1341 1.388 . S
C1340 C1339 1.366 . S
C1340 C1344 1.385 . S
C1341 H1316 0.951 . S
C1341 C1339 1.388 . S
C1341 C1342 1.366 . S
C1342 C1341 1.366 . S
C1342 C1343 1.414 . S
C1342 C1345 1.499 . S
C1343 H1317 0.950 . S
C1343 C1342 1.414 . S
C1343 C1344 1.374 . S
C1344 H1318 0.950 . S
C1344 C1340 1.385 . S
C1344 C1343 1.374 . S
C1345 C1342 1.499 . S
C1345 C1346 1.373 . S
C1345 C1347 1.389 . S
C1346 H1319 0.950 . S
C1346 C1332 1.377 . S
C1346 C1345 1.373 . S
C1347 C1331 1.377 . S
C1347 C1345 1.389 . S
C1347 C1348 1.524 . S
C1348 C1347 1.524 . S
C1348 C1349 1.397 . S
C1348 C1353 1.363 . S
C1349 H1320 0.950 . S
C1349 C1348 1.397 . S
C1349 C1350 1.334 . S
C1350 H1321 0.950 . S
C1350 C1349 1.334 . S
C1350 C1351 1.287 . S
C1351 C1350 1.287 . S
C1351 C1352 1.524 . S
C1351 H1354 0.999 . S
C1352 H1322 0.950 . S
C1352 C1351 1.524 . S
C1352 C1353 1.415 . S
C1353 H1323 0.950 . S
C1353 C1348 1.363 . S
C1353 C1352 1.415 . S
H1354 C1351 0.999 . S
H1355 C1336 0.913 . S
C175 C10 1.276 . S
C190 C153 1.276 . S
C225 C88 1.276 . S
C240 C23 1.277 . S
C275 C36 1.276 . S
C290 C101 1.276 . S
C325 C114 1.276 . S
C340 C49 1.277 . S
C375 C127 1.276 . S
C390 C62 1.276 . S
C425 C140 1.276 . S
C440 C75 1.276 . S
C475 C47 1.310 . S
C490 C112 1.309 . S
C525 C60 1.310 . S
C540 C125 1.309 . S
C575 C73 1.310 . S
C590 C138 1.309 . S
C625 C151 1.309 . S
C640 C8 1.310 . S
C675 C21 1.309 . S
C690 C86 1.310 . S
C725 C34 1.309 . S
C740 C99 1.310 . S
C775 C109 1.473 . S
C790 C5 1.474 . S
C825 C122 1.473 . S
C840 C18 1.473 . S
C875 C31 1.473 . S
C890 C135 1.473 . S
C925 C44 1.473 . S
C940 C148 1.474 . S
C975 C57 1.473 . S
C990 C83 1.474 . S
C1025 C96 1.474 . S
C1040 C70 1.473 . S
C1075 C0 1.260 . S
C1090 C130 1.260 . S
C1125 C143 1.260 . S
C1140 C13 1.260 . S
C1175 C26 1.260 . S
C1190 C78 1.260 . S
C1225 C39 1.261 . S
C1240 C91 1.260 . S
C1275 C52 1.260 . S
C1290 C104 1.260 . S
C1325 C65 1.260 . S
C1340 C117 1.260 . S
