# Generated by pormake.
# Topology wiu, (6)-cn, num edge types: 1
# Building blocks:
#     Node 0, Type 0, BuildingBlock: HISSIN_clean_sbu_0, # of connection points: 6
#     Node 1, Type 0, BuildingBlock: HISSIN_clean_sbu_0, # of connection points: 6
#     Node 2, Type 0, BuildingBlock: HISSIN_clean_sbu_0, # of connection points: 6
#     Node 3, Type 0, BuildingBlock: HISSIN_clean_sbu_0, # of connection points: 6
#     Node 4, Type 0, BuildingBlock: HISSIN_clean_sbu_0, # of connection points: 6
#     Node 5, Type 0, BuildingBlock: HISSIN_clean_sbu_0, # of connection points: 6
#     Node 6, Type 0, BuildingBlock: HISSIN_clean_sbu_0, # of connection points: 6
#     Node 7, Type 0, BuildingBlock: HISSIN_clean_sbu_0, # of connection points: 6
#     Node 8, Type 0, BuildingBlock: HISSIN_clean_sbu_0, # of connection points: 6
#     Node 9, Type 0, BuildingBlock: HISSIN_clean_sbu_0, # of connection points: 6
#     Node 10, Type 0, BuildingBlock: HISSIN_clean_sbu_0, # of connection points: 6
#     Node 11, Type 0, BuildingBlock: HISSIN_clean_sbu_0, # of connection points: 6
#     Node 12, Type 0, BuildingBlock: HISSIN_clean_sbu_0, # of connection points: 6
#     Node 13, Type 0, BuildingBlock: HISSIN_clean_sbu_0, # of connection points: 6
#     Node 14, Type 0, BuildingBlock: HISSIN_clean_sbu_0, # of connection points: 6
#     Node 15, Type 0, BuildingBlock: HISSIN_clean_sbu_0, # of connection points: 6
#     Edge 16, Type (0, 0), BuildingBlock: UVAHIK_clean_linker_0, # of connection points: 2
#     Edge 17, Type (0, 0), BuildingBlock: UVAHIK_clean_linker_0, # of connection points: 2
#     Edge 18, Type (0, 0), BuildingBlock: UVAHIK_clean_linker_0, # of connection points: 2
#     Edge 19, Type (0, 0), BuildingBlock: UVAHIK_clean_linker_0, # of connection points: 2
#     Edge 20, Type (0, 0), BuildingBlock: UVAHIK_clean_linker_0, # of connection points: 2
#     Edge 21, Type (0, 0), BuildingBlock: UVAHIK_clean_linker_0, # of connection points: 2
#     Edge 22, Type (0, 0), BuildingBlock: UVAHIK_clean_linker_0, # of connection points: 2
#     Edge 23, Type (0, 0), BuildingBlock: UVAHIK_clean_linker_0, # of connection points: 2
#     Edge 24, Type (0, 0), BuildingBlock: UVAHIK_clean_linker_0, # of connection points: 2
#     Edge 25, Type (0, 0), BuildingBlock: UVAHIK_clean_linker_0, # of connection points: 2
#     Edge 26, Type (0, 0), BuildingBlock: UVAHIK_clean_linker_0, # of connection points: 2
#     Edge 27, Type (0, 0), BuildingBlock: UVAHIK_clean_linker_0, # of connection points: 2
#     Edge 28, Type (0, 0), BuildingBlock: UVAHIK_clean_linker_0, # of connection points: 2
#     Edge 29, Type (0, 0), BuildingBlock: UVAHIK_clean_linker_0, # of connection points: 2
#     Edge 30, Type (0, 0), BuildingBlock: UVAHIK_clean_linker_0, # of connection points: 2
#     Edge 31, Type (0, 0), BuildingBlock: UVAHIK_clean_linker_0, # of connection points: 2
#     Edge 32, Type (0, 0), BuildingBlock: UVAHIK_clean_linker_0, # of connection points: 2
#     Edge 33, Type (0, 0), BuildingBlock: UVAHIK_clean_linker_0, # of connection points: 2
#     Edge 34, Type (0, 0), BuildingBlock: UVAHIK_clean_linker_0, # of connection points: 2
#     Edge 35, Type (0, 0), BuildingBlock: UVAHIK_clean_linker_0, # of connection points: 2
#     Edge 36, Type (0, 0), BuildingBlock: UVAHIK_clean_linker_0, # of connection points: 2
#     Edge 37, Type (0, 0), BuildingBlock: UVAHIK_clean_linker_0, # of connection points: 2
#     Edge 38, Type (0, 0), BuildingBlock: UVAHIK_clean_linker_0, # of connection points: 2
#     Edge 39, Type (0, 0), BuildingBlock: UVAHIK_clean_linker_0, # of connection points: 2
#     Edge 40, Type (0, 0), BuildingBlock: UVAHIK_clean_linker_0, # of connection points: 2
#     Edge 41, Type (0, 0), BuildingBlock: UVAHIK_clean_linker_0, # of connection points: 2
#     Edge 42, Type (0, 0), BuildingBlock: UVAHIK_clean_linker_0, # of connection points: 2
#     Edge 43, Type (0, 0), BuildingBlock: UVAHIK_clean_linker_0, # of connection points: 2
#     Edge 44, Type (0, 0), BuildingBlock: UVAHIK_clean_linker_0, # of connection points: 2
#     Edge 45, Type (0, 0), BuildingBlock: UVAHIK_clean_linker_0, # of connection points: 2
#     Edge 46, Type (0, 0), BuildingBlock: UVAHIK_clean_linker_0, # of connection points: 2
#     Edge 47, Type (0, 0), BuildingBlock: UVAHIK_clean_linker_0, # of connection points: 2
#     Edge 48, Type (0, 0), BuildingBlock: UVAHIK_clean_linker_0, # of connection points: 2
#     Edge 49, Type (0, 0), BuildingBlock: UVAHIK_clean_linker_0, # of connection points: 2
#     Edge 50, Type (0, 0), BuildingBlock: UVAHIK_clean_linker_0, # of connection points: 2
#     Edge 51, Type (0, 0), BuildingBlock: UVAHIK_clean_linker_0, # of connection points: 2
#     Edge 52, Type (0, 0), BuildingBlock: UVAHIK_clean_linker_0, # of connection points: 2
#     Edge 53, Type (0, 0), BuildingBlock: UVAHIK_clean_linker_0, # of connection points: 2
#     Edge 54, Type (0, 0), BuildingBlock: UVAHIK_clean_linker_0, # of connection points: 2
#     Edge 55, Type (0, 0), BuildingBlock: UVAHIK_clean_linker_0, # of connection points: 2
#     Edge 56, Type (0, 0), BuildingBlock: UVAHIK_clean_linker_0, # of connection points: 2
#     Edge 57, Type (0, 0), BuildingBlock: UVAHIK_clean_linker_0, # of connection points: 2
#     Edge 58, Type (0, 0), BuildingBlock: UVAHIK_clean_linker_0, # of connection points: 2
#     Edge 59, Type (0, 0), BuildingBlock: UVAHIK_clean_linker_0, # of connection points: 2
#     Edge 60, Type (0, 0), BuildingBlock: UVAHIK_clean_linker_0, # of connection points: 2
#     Edge 61, Type (0, 0), BuildingBlock: UVAHIK_clean_linker_0, # of connection points: 2
#     Edge 62, Type (0, 0), BuildingBlock: UVAHIK_clean_linker_0, # of connection points: 2
#     Edge 63, Type (0, 0), BuildingBlock: UVAHIK_clean_linker_0, # of connection points: 2
# Relax obj value: 0.435
# Max RMSD: 0.304
# Mean RMSD: 0.304
data_MOF--net-wiu--node1-HISSIN_clean_sbu_0--edge1-UVAHIK_clean_linker_0
_symmetry_space_group_name_H-M    P1
_symmetry_Int_Tables_number       1
_symmetry_cell_setting            triclinic
loop_
_symmetry_equiv_pos_as_xyz
'x, y, z'
_cell_length_a     46.272519
_cell_length_b     46.435782
_cell_length_c     74.407863
_cell_angle_alpha  89.931432
_cell_angle_beta   90.005626
_cell_angle_gamma 89.892202
loop_
_atom_site_label
_atom_site_type_symbol
_atom_site_fract_x
_atom_site_fract_y
_atom_site_fract_z
_atom_type_partial_charge
Eu0 Eu 0.33228 0.14006 0.25486 0.0
Eu1 Eu 0.37517 0.08957 0.23996 0.0
C2 C 0.30693 0.07804 0.2462 0.0
C3 C 0.29592 0.21307 0.25937 0.0
C4 C 0.27776 0.2317 0.26894 0.0
C5 C 0.30416 0.25081 0.23728 0.0
C6 C 0.2727 0.25971 0.2627 0.0
C7 C 0.3092 0.22281 0.24354 0.0
C8 C 0.28573 0.26961 0.24674 0.0
C9 C 0.30075 0.18349 0.26583 0.0
O10 O 0.35486 0.10659 0.21397 0.0
O11 O 0.31902 0.13602 0.22509 0.0
C12 C 0.33129 0.12225 0.21149 0.0
O13 O 0.37226 0.16359 0.24517 0.0
O14 O 0.38797 0.04445 0.23665 0.0
O15 O 0.41502 0.07862 0.22615 0.0
O16 O 0.40466 0.12695 0.24772 0.0
C17 C 0.39907 0.15462 0.24629 0.0
O18 O 0.34703 0.11694 0.28091 0.0
O19 O 0.37148 0.07775 0.2696 0.0
O20 O 0.32966 0.07294 0.23608 0.0
O21 O 0.2911 0.16302 0.25547 0.0
O22 O 0.32658 0.17786 0.27195 0.0
O23 O 0.30659 0.09938 0.25773 0.0
C24 C 0.41385 0.03548 0.20984 0.0
C25 C 0.40278 0.04709 0.19384 0.0
C26 C 0.43643 0.99706 0.19279 0.0
C27 C 0.40921 0.03426 0.17736 0.0
C28 C 0.43013 1.01006 0.20927 0.0
C29 C 0.42671 1.00947 0.1766 0.0
C30 C 0.41046 0.05093 0.2269 0.0
C31 C 0.36045 0.09193 0.28335 0.0
H32 H 0.26742 0.22456 0.28122 0.0
H33 H 0.31427 0.25753 0.22484 0.0
H34 H 0.25873 0.27369 0.27047 0.0
H35 H 0.32328 0.20866 0.23595 0.0
H36 H 0.39014 0.06674 0.19404 0.0
H37 H 0.4495 0.97769 0.19271 0.0
H38 H 0.40161 0.04462 0.1652 0.0
H39 H 0.4387 1.00074 0.22153 0.0
Eu40 Eu 0.63855 0.57655 0.50621 0.0
Eu41 Eu 0.68843 0.61981 0.4906 0.0
C42 C 0.70204 0.55201 0.49947 0.0
C43 C 0.56534 0.54016 0.51 0.0
C44 C 0.54658 0.52206 0.51949 0.0
C45 C 0.52722 0.54983 0.48833 0.0
C46 C 0.51833 0.51769 0.5134 0.0
C47 C 0.55545 0.55421 0.49447 0.0
C48 C 0.50835 0.53133 0.49764 0.0
C49 C 0.59532 0.54383 0.51612 0.0
O50 O 0.67201 0.60022 0.46453 0.0
O51 O 0.64178 0.56548 0.47594 0.0
C52 C 0.65582 0.57718 0.46223 0.0
O53 O 0.61551 0.61968 0.50395 0.0
O54 O 0.72857 0.62822 0.4762 0.0
O55 O 0.70683 0.66307 0.48984 0.0
O56 O 0.64723 0.64645 0.48736 0.0
C57 C 0.62191 0.64335 0.49516 0.0
O58 O 0.66444 0.58625 0.53187 0.0
O59 O 0.69735 0.61901 0.52097 0.0
O60 O 0.70821 0.5751 0.48995 0.0
O61 O 0.61521 0.53587 0.50478 0.0
O62 O 0.60141 0.56841 0.52365 0.0
O63 O 0.67903 0.55071 0.50971 0.0
C64 C 0.72852 0.67337 0.46215 0.0
C65 C 0.70849 0.66871 0.44832 0.0
C66 C 0.75042 0.71161 0.44461 0.0
C67 C 0.70953 0.68522 0.43267 0.0
C68 C 0.74943 0.69493 0.46028 0.0
C69 C 0.73054 0.70681 0.43062 0.0
C70 C 0.72715 0.65596 0.47856 0.0
C71 C 0.68646 0.60394 0.53444 0.0
H72 H 0.55385 0.51115 0.53156 0.0
H73 H 0.52043 0.5604 0.47605 0.0
H74 H 0.50427 0.50367 0.52106 0.0
H75 H 0.56971 0.56828 0.48696 0.0
H76 H 0.69201 0.65231 0.44964 0.0
H77 H 0.76697 0.72795 0.44334 0.0
H78 H 0.69367 0.68131 0.42226 0.0
H79 H 0.76497 0.69882 0.47089 0.0
Eu80 Eu 0.20123 0.8856 0.75567 0.0
Eu81 Eu 0.15788 0.93538 0.73965 0.0
C82 C 0.22571 0.94841 0.74834 0.0
C83 C 0.23887 0.81322 0.76006 0.0
C84 C 0.25766 0.79497 0.76947 0.0
C85 C 0.22925 0.77469 0.73881 0.0
C86 C 0.26236 0.76675 0.76356 0.0
C87 C 0.22454 0.80288 0.74476 0.0
C88 C 0.24837 0.75629 0.74808 0.0
C89 C 0.23459 0.84309 0.76607 0.0
O90 O 0.17583 0.91611 0.71379 0.0
O91 O 0.21355 0.89008 0.72566 0.0
C92 C 0.20038 0.902 0.71168 0.0
O93 O 0.15978 0.86086 0.75051 0.0
O94 O 0.14991 0.97415 0.72387 0.0
O95 O 0.11517 0.95564 0.73946 0.0
O96 O 0.12912 0.89552 0.73957 0.0
C97 C 0.13425 0.8688 0.74456 0.0
O98 O 0.18769 0.90952 0.78145 0.0
O99 O 0.16161 0.94718 0.76948 0.0
O100 O 0.20309 0.95372 0.73816 0.0
O101 O 0.24257 0.86298 0.75476 0.0
O102 O 0.20963 0.84888 0.77333 0.0
O103 O 0.22636 0.9264 0.75938 0.0
C104 C 0.10298 0.97625 0.71157 0.0
C105 C 0.11092 0.96406 0.69504 0.0
C106 C 0.05712 0.99096 0.69862 0.0
C107 C 0.09223 0.96558 0.68034 0.0
C108 C 0.07596 0.98962 0.71328 0.0
C109 C 0.06507 0.97902 0.68195 0.0
C110 C 0.12229 0.97441 0.72722 0.0
C111 C 0.1733 0.93401 0.78347 0.0
H112 H 0.2688 0.80258 0.78136 0.0
H113 H 0.21838 0.76752 0.72673 0.0
H114 H 0.27688 0.75308 0.77117 0.0
H115 H 0.20995 0.81674 0.73731 0.0
H116 H 0.13161 0.9534 0.69344 0.0
H117 H 0.03622 1.00107 0.70041 0.0
H118 H 0.09927 0.95656 0.66766 0.0
H119 H 0.06936 0.99888 0.726 0.0
Eu120 Eu 0.89376 0.44769 1.00605 0.0
Eu121 Eu 0.84378 0.40475 0.99121 0.0
C122 C 0.83153 0.4726 0.9974 0.0
C123 C 0.9666 0.48455 1.01089 0.0
C124 C 0.98458 0.50343 1.02035 0.0
C125 C 1.00539 0.47584 0.98953 0.0
C126 C 1.01279 0.50862 1.01441 0.0
C127 C 0.97718 0.47067 0.99549 0.0
C128 C 0.02352 0.495 0.99887 0.0
C129 C 0.93683 0.4796 1.01705 0.0
O130 O 0.86223 0.4235 0.96506 0.0
O131 O 0.88857 0.46127 0.97641 0.0
C132 C 0.87634 0.44798 0.96263 0.0
O133 O 0.91801 0.40808 0.99624 0.0
O134 O 0.7986 0.39349 0.98593 0.0
O135 O 0.83282 0.36313 0.97996 0.0
O136 O 0.88162 0.3756 0.9988 0.0
C137 C 0.9093 0.38126 0.9972 0.0
O138 O 0.87063 0.43337 1.03214 0.0
O139 O 0.83203 0.40792 1.02092 0.0
O140 O 0.82698 0.45013 0.98706 0.0
O141 O 0.91646 0.48882 1.00636 0.0
O142 O 0.93134 0.45395 1.02335 0.0
O143 O 0.85252 0.4727 1.00923 0.0
C144 C 0.79221 0.36163 0.96146 0.0
C145 C 0.80354 0.37303 0.9455 0.0
C146 C 0.76213 0.3293 0.94414 0.0
C147 C 0.79491 0.3619 0.92892 0.0
C148 C 0.77086 0.34038 0.9607 0.0
C149 C 0.77484 0.33922 0.92811 0.0
C150 C 0.8053 0.36874 0.97879 0.0
C151 C 0.84597 0.41936 1.03462 0.0
H152 H 0.97678 0.51423 1.03231 0.0
H153 H 1.01278 0.46526 0.97741 0.0
H154 H 0.02626 0.52316 1.02208 0.0
H155 H 0.96353 0.45603 0.988 0.0
H156 H 0.82018 0.38938 0.94591 0.0
H157 H 0.74624 0.3122 0.94392 0.0
H158 H 0.8053 0.36987 0.91686 0.0
H159 H 0.76194 0.33137 0.97294 0.0
Eu160 Eu 0.65855 0.93557 0.94864 0.0
Eu161 Eu 0.70156 0.88568 0.93249 0.0
C162 C 0.63466 0.86909 0.94358 0.0
C163 C 0.60384 0.97326 0.97757 0.0
C164 C 0.60565 0.95037 0.98983 0.0
C165 C 0.5659 0.99483 0.99561 0.0
C166 C 0.58798 0.94987 1.00501 0.0
C167 C 0.58376 0.99538 0.98043 0.0
C168 C 0.56806 0.9722 1.00813 0.0
C169 C 0.6231 0.97395 0.96194 0.0
O170 O 0.68723 0.90971 0.90683 0.0
O171 O 0.66232 0.94803 0.91891 0.0
C172 C 0.67342 0.93456 0.90486 0.0
O173 O 0.70361 0.95451 0.9493 0.0
O174 O 0.74275 0.86277 0.93308 0.0
O175 O 0.70944 0.84918 0.91462 0.0
O176 O 0.7268 0.92629 0.9285 0.0
C177 C 0.72615 0.94878 0.93913 0.0
O178 O 0.67642 0.91523 0.97426 0.0
O179 O 0.71488 0.89062 0.96227 0.0
O180 O 0.66061 0.86075 0.93866 0.0
O181 O 0.65059 0.97297 0.96561 0.0
O182 O 0.61628 0.95664 0.94885 0.0
O183 O 0.6292 0.89615 0.9476 0.0
C184 C 0.73876 0.81313 0.92749 0.0
C185 C 0.75775 0.79518 0.91804 0.0
C186 C 0.72899 0.77404 0.94837 0.0
C187 C 0.7625 0.76685 0.92376 0.0
C188 C 0.72425 0.80236 0.94262 0.0
C189 C 0.74834 0.75596 0.93908 0.0
C190 C 0.7345 0.84313 0.9217 0.0
C191 C 0.7014 0.90187 0.97632 0.0
H192 H 0.62091 0.93296 0.98772 0.0
H193 H 0.55089 0.01242 0.99775 0.0
H194 H 0.58985 0.93197 1.01429 0.0
H195 H 0.58209 0.01316 0.97105 0.0
H196 H 0.76904 0.80313 0.90628 0.0
H197 H 0.71799 0.76654 0.96033 0.0
H198 H 0.7772 0.75343 0.91613 0.0
H199 H 0.7095 0.81599 0.9501 0.0
Eu200 Eu 0.34333 0.40572 0.69579 0.0
Eu201 Eu 0.39348 0.44892 0.68069 0.0
C202 C 0.40981 0.38176 0.69118 0.0
C203 C 0.29373 0.35975 0.72447 0.0
C204 C 0.30634 0.37039 0.74024 0.0
C205 C 0.26732 0.32456 0.74202 0.0
C206 C 0.2997 0.358 0.75682 0.0
C207 C 0.27398 0.33701 0.72543 0.0
C208 C 0.28041 0.33469 0.75786 0.0
C209 C 0.30248 0.37108 0.70694 0.0
O210 O 0.36793 0.43963 0.65483 0.0
O211 O 0.33588 0.40573 0.6653 0.0
C212 C 0.3465 0.42134 0.652 0.0
O213 O 0.32637 0.45127 0.69895 0.0
O214 O 0.42986 0.45841 0.66299 0.0
O215 O 0.41702 0.4895 0.68311 0.0
O216 O 0.35251 0.47405 0.67711 0.0
C217 C 0.33119 0.47379 0.68868 0.0
O218 O 0.35909 0.42492 0.72219 0.0
O219 O 0.39002 0.45936 0.71108 0.0
O220 O 0.41677 0.40593 0.68309 0.0
O221 O 0.29883 0.39859 0.70447 0.0
O222 O 0.32759 0.36235 0.70124 0.0
O223 O 0.38404 0.3782 0.69833 0.0
C224 C 0.46689 0.48578 0.677 0.0
C225 C 0.47749 0.51352 0.6804 0.0
C226 C 0.51357 0.46586 0.68568 0.0
C227 C 0.50577 0.51743 0.68654 0.0
C228 C 0.48517 0.46193 0.67969 0.0
C229 C 0.52411 0.49364 0.6893 0.0
C230 C 0.43652 0.48219 0.67133 0.0
C231 C 0.37567 0.44767 0.72469 0.0
H232 H 0.32182 0.38783 0.73968 0.0
H233 H 0.25214 0.30685 0.74243 0.0
H234 H 0.31042 0.36605 0.76874 0.0
H235 H 0.26412 0.32856 0.71333 0.0
H236 H 0.46376 0.53219 0.67845 0.0
H237 H 0.52709 0.4471 0.68786 0.0
H238 H 0.51336 0.53911 0.68903 0.0
H239 H 0.47746 0.44024 0.67737 0.0
Eu240 Eu 0.87522 0.08999 0.44824 0.0
Eu241 Eu 0.8327 0.14071 0.43346 0.0
C242 C 0.89939 0.1549 0.4422 0.0
C243 C 0.91286 0.0359 0.4785 0.0
C244 C 0.89137 0.03888 0.49166 0.0
C245 C 0.94288 1.01013 0.49983 0.0
C246 C 0.89595 0.02822 0.50899 0.0
C247 C 0.9383 0.02089 0.48253 0.0
C248 C 0.92211 0.01441 0.51339 0.0
C249 C 0.91046 0.05134 0.4614 0.0
O250 O 0.84717 0.1175 0.40737 0.0
O251 O 0.87147 0.07815 0.41864 0.0
C252 C 0.86045 0.09242 0.40491 0.0
O253 O 0.82971 0.07328 0.45202 0.0
O254 O 0.82704 0.17794 0.41588 0.0
O255 O 0.79198 0.1647 0.4333 0.0
O256 O 0.8064 0.10041 0.43074 0.0
C257 C 0.80685 0.07876 0.44208 0.0
O258 O 0.8547 0.10665 0.47426 0.0
O259 O 0.81918 0.1365 0.46317 0.0
O260 O 0.87261 0.16384 0.44364 0.0
O261 O 0.8884 0.04501 0.45124 0.0
O262 O 0.91475 0.07903 0.46249 0.0
O263 O 0.90477 0.12728 0.44027 0.0
C264 C 0.79779 0.21476 0.42872 0.0
C265 C 0.76977 0.22514 0.43194 0.0
C266 C 0.81713 0.26114 0.4381 0.0
C267 C 0.76544 0.25315 0.43833 0.0
C268 C 0.82146 0.23304 0.43184 0.0
C269 C 0.78908 0.27146 0.44152 0.0
C270 C 0.80188 0.18469 0.42264 0.0
C271 C 0.83127 0.12249 0.47676 0.0
H272 H 0.87158 0.05046 0.48871 0.0
H273 H 0.96339 0.99992 0.50284 0.0
H274 H 0.87944 0.03157 0.5191 0.0
H275 H 0.95518 0.01865 0.47253 0.0
H276 H 0.75118 0.21147 0.42963 0.0
H277 H 0.8358 0.27459 0.4406 0.0
H278 H 0.74355 0.26056 0.44064 0.0
H279 H 0.84336 0.22559 0.42963 0.0
Eu280 Eu 0.18854 0.61987 0.19592 0.0
Eu281 Eu 0.13867 0.57677 0.18026 0.0
C282 C 0.12194 0.6436 0.19143 0.0
C283 C 0.23088 0.67151 0.22468 0.0
C284 C 0.2125 0.66557 0.2392 0.0
C285 C 0.25398 0.70904 0.24214 0.0
C286 C 0.215 0.68109 0.25515 0.0
C287 C 0.25154 0.69336 0.22618 0.0
C288 C 0.23581 0.70293 0.25682 0.0
C289 C 0.22804 0.65519 0.20794 0.0
O290 O 0.16405 0.58724 0.15453 0.0
O291 O 0.19784 0.61889 0.16562 0.0
C292 C 0.18649 0.60443 0.15206 0.0
O293 O 0.20684 0.5746 0.19769 0.0
O294 O 0.11555 0.53595 0.18178 0.0
O295 O 0.10179 0.56828 0.1627 0.0
O296 O 0.17955 0.55164 0.17643 0.0
C297 C 0.20151 0.55206 0.18754 0.0
O298 O 0.17092 0.6013 0.22202 0.0
O299 O 0.14262 0.56516 0.21044 0.0
O300 O 0.11502 0.61946 0.18332 0.0
O301 O 0.22957 0.62731 0.20955 0.0
O302 O 0.20689 0.6631 0.19749 0.0
O303 O 0.14776 0.64725 0.19848 0.0
C304 C 0.06573 0.53971 0.17612 0.0
C305 C 0.04766 0.52071 0.16683 0.0
C306 C 0.02671 0.5498 0.19707 0.0
C307 C 0.0193 0.51611 0.17266 0.0
C308 C 0.05506 0.5544 0.1912 0.0
C309 C 1.00852 0.53042 0.18795 0.0
C310 C 0.0958 0.54368 0.17026 0.0
C311 C 0.15568 0.57759 0.22427 0.0
H312 H 0.1962 0.64894 0.23818 0.0
H313 H 0.27035 0.72561 0.24311 0.0
H314 H 0.20042 0.67618 0.26612 0.0
H315 H 0.26579 0.69825 0.21503 0.0
H316 H 0.05554 0.50929 0.15512 0.0
H317 H 0.01928 0.56092 0.20899 0.0
H318 H 1.00579 0.5014 0.16515 0.0
H319 H 0.06879 0.56916 0.19855 0.0
Eu320 Eu 0.8324 0.64011 0.75539 0.0
Eu321 Eu 0.87516 0.58966 0.74077 0.0
C322 C 0.80685 0.57821 0.74655 0.0
C323 C 0.79595 0.71316 0.76033 0.0
C324 C 0.77711 0.73118 0.76984 0.0
C325 C 0.80456 0.75177 0.73889 0.0
C326 C 0.77189 0.75932 0.7639 0.0
C327 C 0.80975 0.72363 0.74485 0.0
C328 C 0.78545 0.76995 0.7483 0.0
C329 C 0.80095 0.68348 0.76652 0.0
O330 O 0.85541 0.60678 0.71461 0.0
O331 O 0.81923 0.63592 0.72559 0.0
C332 C 0.83175 0.62228 0.71202 0.0
O333 O 0.87206 0.66361 0.74513 0.0
O334 O 0.88763 0.54458 0.73687 0.0
O335 O 0.91605 0.57889 0.72818 0.0
O336 O 0.9044 0.62723 0.74861 0.0
C337 C 0.89889 0.65481 0.74655 0.0
O338 O 0.84728 0.61725 0.78155 0.0
O339 O 0.87084 0.57753 0.77031 0.0
O340 O 0.82972 0.57301 0.73658 0.0
O341 O 0.79128 0.66318 0.75604 0.0
O342 O 0.82682 0.67783 0.77255 0.0
O343 O 0.80645 0.59954 0.75809 0.0
C344 C 0.91652 0.53671 0.71113 0.0
C345 C 0.90354 0.54687 0.69532 0.0
C346 C 0.94606 0.50412 0.69356 0.0
C347 C 0.91249 0.5364 0.67864 0.0
C348 C 0.93717 0.51472 0.71022 0.0
C349 C 0.93455 0.51557 0.67756 0.0
C350 C 0.91125 0.55124 0.72828 0.0
C351 C 0.86018 0.59198 0.78404 0.0
H352 H 0.76637 0.72347 0.78185 0.0
H353 H 0.8151 0.75909 0.72673 0.0
H354 H 0.75739 0.77282 0.77162 0.0
H355 H 0.82437 0.70995 0.73732 0.0
H356 H 0.88761 0.56396 0.69583 0.0
H357 H 0.96272 0.48772 0.69317 0.0
H358 H 0.90335 0.54588 0.66661 0.0
H359 H 0.94734 0.50664 0.72235 0.0
Eu360 Eu 0.13837 0.07699 1.00547 0.0
Eu361 Eu 0.18877 0.12002 0.99048 0.0
C362 C 0.20057 0.05186 0.99776 0.0
C363 C 0.06481 0.04073 1.00874 0.0
C364 C 0.0534 0.0131 1.00615 0.0
C365 C 0.01922 0.06138 0.99862 0.0
C366 C 0.02524 1.00958 0.9997 0.0
C367 C 0.04749 0.06489 1.00493 0.0
C368 C 1.00786 0.03368 0.99581 0.0
C369 C 0.0951 0.04388 1.01462 0.0
O370 O 0.17232 0.10164 0.96402 0.0
O371 O 0.14228 0.06644 0.97513 0.0
C372 C 0.15619 0.07858 0.96149 0.0
O373 O 0.11511 0.11994 1.0029 0.0
O374 O 0.23303 0.12667 0.98121 0.0
O375 O 0.20522 0.16332 0.9856 0.0
O376 O 0.14838 0.14813 0.98844 0.0
C377 C 0.12241 0.1444 0.99527 0.0
O378 O 0.16365 0.08638 1.03142 0.0
O379 O 0.19646 0.11955 1.02093 0.0
O380 O 0.2055 0.07432 0.98744 0.0
O381 O 0.10184 0.06755 1.02306 0.0
O382 O 0.11466 0.03653 1.0029 0.0
O383 O 0.17919 0.05175 1.00928 0.0
C384 C 0.23797 0.16624 0.96178 0.0
C385 C 0.22506 0.15582 0.94604 0.0
C386 C 0.26364 0.20202 0.94426 0.0
C387 C 0.23123 0.16856 0.9295 0.0
C388 C 0.25746 0.1892 0.96082 0.0
C389 C 0.25033 0.19203 0.92846 0.0
C390 C 0.22985 0.15435 0.97928 0.0
C391 C 0.18544 0.10425 1.03424 0.0
H392 H 0.06642 0.99419 1.00895 0.0
H393 H 1.00647 0.08035 0.99556 0.0
H394 H 0.017 0.98797 0.99785 0.0
H395 H 0.0559 0.08648 1.0066 0.0
H396 H 0.20977 0.13823 0.9466 0.0
H397 H 0.27867 0.21986 0.94384 0.0
H398 H 0.22034 0.16062 0.91761 0.0
H399 H 0.26753 0.1975 0.97289 0.0
Eu400 Eu 0.70055 0.38515 0.25568 0.0
Eu401 Eu 0.65705 0.43519 0.24073 0.0
C402 C 0.72512 0.44717 0.24664 0.0
C403 C 0.73774 0.31229 0.2605 0.0
C404 C 0.76582 0.3022 0.25716 0.0
C405 C 0.71882 0.26537 0.25187 0.0
C406 C 0.77039 0.27404 0.25109 0.0
C407 C 0.71423 0.29362 0.25778 0.0
C408 C 0.74693 0.25531 0.24836 0.0
C409 C 0.73336 0.34246 0.26626 0.0
O410 O 0.67649 0.41809 0.21454 0.0
O411 O 0.71285 0.38925 0.22569 0.0
C412 C 0.70021 0.40265 0.21204 0.0
O413 O 0.66067 0.3604 0.24717 0.0
O414 O 0.64551 0.48019 0.23549 0.0
O415 O 0.61498 0.44619 0.22976 0.0
O416 O 0.62782 0.39702 0.24733 0.0
C417 C 0.63379 0.36934 0.24703 0.0
O418 O 0.68574 0.408 0.28176 0.0
O419 O 0.66108 0.44702 0.27036 0.0
O420 O 0.70252 0.45162 0.23629 0.0
O421 O 0.70854 0.34882 0.27362 0.0
O422 O 0.74192 0.36228 0.25504 0.0
O423 O 0.72534 0.4264 0.25859 0.0
C424 C 0.61334 0.48633 0.21105 0.0
C425 C 0.62968 0.47969 0.19574 0.0
C426 C 0.57726 0.50927 0.19225 0.0
C427 C 0.61945 0.48715 0.17869 0.0
C428 C 0.58753 0.50181 0.20927 0.0
C429 C 0.59266 0.50122 0.17674 0.0
C430 C 0.62057 0.47358 0.22847 0.0
C431 C 0.67216 0.43291 0.28414 0.0
H432 H 0.78426 0.31619 0.25913 0.0
H433 H 0.70029 0.25158 0.24971 0.0
H434 H 0.79232 0.26684 0.24868 0.0
H435 H 0.69228 0.30087 0.26006 0.0
H436 H 0.64961 0.46758 0.19693 0.0
H437 H 0.55642 0.5198 0.19123 0.0
H438 H 0.63198 0.481 0.16701 0.0
H439 H 0.57453 0.50679 0.22098 0.0
Eu440 Eu 0.39345 0.94596 0.50501 0.0
Eu441 Eu 0.34311 0.90393 0.48997 0.0
C442 C 0.33152 0.97194 0.49629 0.0
C443 C 0.46744 0.98107 0.5102 0.0
C444 C 0.47755 1.00907 0.50698 0.0
C445 C 0.51448 0.96218 0.50137 0.0
C446 C 0.50575 0.01361 0.50087 0.0
C447 C 0.48618 0.95762 0.50735 0.0
C448 C 0.52453 0.99022 0.49796 0.0
C449 C 0.43721 0.97678 0.51604 0.0
O450 O 0.36146 0.9231 0.46395 0.0
O451 O 0.38852 0.96019 0.47547 0.0
C452 C 0.37599 0.94734 0.46163 0.0
O453 O 0.41697 0.90634 0.49464 0.0
O454 O 0.29779 0.89214 0.48581 0.0
O455 O 0.33205 0.86356 0.47705 0.0
O456 O 0.38041 0.87439 0.4982 0.0
C457 C 0.40812 0.87965 0.49614 0.0
O458 O 0.37036 0.93109 0.53103 0.0
O459 O 0.3308 0.90758 0.51954 0.0
O460 O 0.32648 0.94942 0.48607 0.0
O461 O 0.43054 0.95164 0.52273 0.0
O462 O 0.41728 0.98657 0.50524 0.0
O463 O 0.35278 0.97193 0.50795 0.0
C464 C 0.28973 0.86394 0.45988 0.0
C465 C 0.30099 0.87557 0.44396 0.0
C466 C 0.25493 0.83678 0.44249 0.0
C467 C 0.28995 0.86705 0.42734 0.0
C468 C 0.26612 0.8452 0.4591 0.0
C469 C 0.26739 0.84682 0.42641 0.0
C470 C 0.30434 0.8687 0.47708 0.0
C471 C 0.34512 0.91809 0.53338 0.0
H472 H 0.46352 0.02747 0.5091 0.0
H473 H 0.52833 0.94371 0.49908 0.0
H474 H 0.51296 0.03548 0.49855 0.0
H475 H 0.47895 0.93574 0.50957 0.0
H476 H 0.31926 0.89011 0.44436 0.0
H477 H 0.23719 0.8216 0.44223 0.0
H478 H 0.30023 0.87503 0.41525 0.0
H479 H 0.25713 0.83614 0.4713 0.0
Eu480 Eu 0.15804 0.43542 0.44595 0.0
Eu481 Eu 0.20141 0.38514 0.43076 0.0
C482 C 0.13447 0.3689 0.44173 0.0
C483 C 0.10674 0.47929 0.47435 0.0
C484 C 0.11482 0.4636 0.48967 0.0
C485 C 0.06831 0.50206 0.49138 0.0
C486 C 0.09986 0.46723 0.50578 0.0
C487 C 0.08341 0.49849 0.47525 0.0
C488 C 0.07645 0.48649 0.50681 0.0
C489 C 0.1222 0.47502 0.45738 0.0
O490 O 0.19059 0.40977 0.40471 0.0
O491 O 0.16 0.44467 0.41573 0.0
C492 C 0.17401 0.43271 0.40217 0.0
O493 O 0.20342 0.45334 0.44795 0.0
O494 O 0.24224 0.36165 0.43309 0.0
O495 O 0.21076 0.34862 0.41323 0.0
O496 O 0.22677 0.42574 0.42697 0.0
C497 C 0.22614 0.44782 0.43791 0.0
O498 O 0.17755 0.41979 0.47223 0.0
O499 O 0.21187 0.38856 0.46118 0.0
O500 O 0.15855 0.36195 0.43347 0.0
O501 O 0.15019 0.47734 0.4582 0.0
O502 O 0.11424 0.45273 0.44802 0.0
O503 O 0.13095 0.39459 0.44888 0.0
C504 C 0.23847 0.31182 0.42733 0.0
C505 C 0.26635 0.30127 0.43078 0.0
C506 C 0.21866 0.26533 0.43612 0.0
C507 C 0.27038 0.2731 0.43697 0.0
C508 C 0.21461 0.29362 0.43008 0.0
C509 C 0.24659 0.25481 0.43975 0.0
C510 C 0.23475 0.34203 0.42149 0.0
C511 C 0.20033 0.40316 0.47473 0.0
H512 H 0.13262 0.44845 0.48915 0.0
H513 H 0.05049 0.5172 0.49183 0.0
H514 H 0.10636 0.45463 0.51736 0.0
H515 H 0.07688 0.51065 0.4635 0.0
H516 H 0.28504 0.31493 0.42879 0.0
H517 H 0.19989 0.25187 0.43831 0.0
H518 H 0.29218 0.26554 0.43946 0.0
H519 H 0.19281 0.30128 0.42772 0.0
Eu520 Eu 0.84307 0.90417 0.19846 0.0
Eu521 Eu 0.89338 0.94626 0.18335 0.0
C522 C 0.90803 0.87985 0.1921 0.0
C523 C 0.78911 0.86495 0.22861 0.0
C524 C 0.80009 0.87672 0.24455 0.0
C525 C 0.7525 0.83976 0.24577 0.0
C526 C 0.78791 0.86931 0.26108 0.0
C527 C 0.76484 0.84705 0.22925 0.0
C528 C 0.76445 0.85011 0.26192 0.0
C529 C 0.80436 0.86902 0.21153 0.0
O530 O 0.87025 0.93144 0.15735 0.0
O531 O 0.83082 0.90767 0.16885 0.0
C532 C 0.84509 0.91829 0.15501 0.0
O533 O 0.8264 0.94967 0.20227 0.0
O534 O 0.93036 0.95203 0.16554 0.0
O535 O 0.91723 0.98686 0.18309 0.0
O536 O 0.85266 0.97211 0.18031 0.0
C537 C 0.83144 0.97218 0.192 0.0
O538 O 0.86121 0.92364 0.22444 0.0
O539 O 0.88852 0.96054 0.21287 0.0
O540 O 0.91693 0.90653 0.19359 0.0
O541 O 0.79779 0.89189 0.20219 0.0
O542 O 0.83213 0.86427 0.21205 0.0
O543 O 0.8803 0.87462 0.19018 0.0
C544 C 0.96735 0.98136 0.17802 0.0
C545 C 0.97748 1.00932 0.18128 0.0
C546 C 0.01443 0.96237 0.18671 0.0
C547 C 1.00571 0.0138 0.18736 0.0
C548 C 0.9861 0.95788 0.18077 0.0
C549 C 0.02449 0.99038 0.19018 0.0
C550 C 0.93708 0.97712 0.17224 0.0
C551 C 0.87584 0.94782 0.22671 0.0
H552 H 0.81885 0.89062 0.24426 0.0
H553 H 0.73411 0.82537 0.24592 0.0
H554 H 0.79784 0.87748 0.27322 0.0
H555 H 0.75604 0.8379 0.21703 0.0
H556 H 0.96343 0.02774 0.17924 0.0
H557 H 0.02829 0.94388 0.18893 0.0
H558 H 1.01293 0.03565 0.18973 0.0
H559 H 0.97886 0.93602 0.17851 0.0
Eu560 Eu 0.37569 0.58986 0.94622 0.0
Eu561 Eu 0.33296 0.64014 0.93137 0.0
C562 C 0.39933 0.65509 0.94042 0.0
C563 C 0.41804 0.53798 0.97609 0.0
C564 C 0.40064 0.54385 0.99107 0.0
C565 C 0.45265 0.51383 0.99536 0.0
C566 C 0.40964 0.53544 1.00823 0.0
C567 C 0.44364 0.52228 0.97824 0.0
C568 C 0.43619 0.52111 1.0106 0.0
C569 C 0.41198 0.55156 0.95874 0.0
O570 O 0.34837 0.61756 0.90529 0.0
O571 O 0.37106 0.57746 0.91675 0.0
C572 C 0.36088 0.59208 0.90291 0.0
O573 O 0.33014 0.57373 0.95078 0.0
O574 O 0.29159 0.66274 0.93057 0.0
O575 O 0.32718 0.678 0.9143 0.0
O576 O 0.30749 0.59927 0.92856 0.0
C577 C 0.3075 0.57849 0.94052 0.0
O578 O 0.35636 0.60742 0.97235 0.0
O579 O 0.31984 0.63601 0.96119 0.0
O580 O 0.37247 0.66387 0.94163 0.0
O581 O 0.38776 0.54485 0.95083 0.0
O582 O 0.41712 0.57911 0.95819 0.0
O583 O 0.40491 0.62751 0.93847 0.0
C584 C 0.29602 0.71284 0.92671 0.0
C585 C 0.27755 0.73122 0.91715 0.0
C586 C 0.30403 0.75072 0.94867 0.0
C587 C 0.27224 0.75919 0.92333 0.0
C588 C 0.30932 0.72276 0.94247 0.0
C589 C 0.28532 0.76928 0.93921 0.0
C590 C 0.3012 0.68334 0.92027 0.0
C591 C 0.33256 0.62275 0.97486 0.0
H592 H 0.38083 0.55607 0.98958 0.0
H593 H 0.47336 0.50314 0.99672 0.0
H594 H 0.39633 0.54104 1.01968 0.0
H595 H 0.45742 0.51785 0.9668 0.0
H596 H 0.2672 0.72393 0.90492 0.0
H597 H 0.31419 0.75761 0.96105 0.0
H598 H 0.25806 0.773 0.91557 0.0
H599 H 0.32364 0.70879 0.95005 0.0
Eu600 Eu 0.6887 0.12157 0.69766 0.0
Eu601 Eu 0.63854 0.07882 0.68305 0.0
C602 C 0.62339 0.14531 0.69157 0.0
C603 C 0.74056 0.16459 0.72723 0.0
C604 C 0.72933 0.15315 0.74321 0.0
C605 C 0.77076 0.19687 0.74452 0.0
C606 C 0.73806 0.16423 0.75978 0.0
C607 C 0.76192 0.18584 0.72796 0.0
C608 C 0.75815 0.18691 0.76056 0.0
C609 C 0.72737 0.15751 0.70993 0.0
O610 O 0.66132 0.09314 0.65686 0.0
O611 O 0.70032 0.11811 0.66795 0.0
C612 C 0.68611 0.10687 0.65429 0.0
O613 O 0.70538 0.07612 0.70178 0.0
O614 O 0.61596 0.03768 0.68262 0.0
O615 O 0.60033 0.07294 0.6662 0.0
O616 O 0.67965 0.05372 0.67964 0.0
C617 C 0.70073 0.0537 0.6914 0.0
O618 O 0.67014 0.10328 0.72389 0.0
O619 O 0.64391 0.06534 0.71269 0.0
O620 O 0.61465 0.11856 0.69297 0.0
O621 O 0.73394 0.13271 0.70281 0.0
O622 O 0.69985 0.16322 0.70881 0.0
O623 O 0.65107 0.15079 0.68971 0.0
C624 C 0.56554 0.04248 0.67924 0.0
C625 C 0.54414 0.03184 0.66772 0.0
C626 C 0.5303 0.04469 0.70343 0.0
C627 C 0.51595 0.02765 0.67399 0.0
C628 C 0.55842 0.04904 0.69712 0.0
C629 C 0.50872 0.03396 0.69194 0.0
C630 C 0.59503 0.04725 0.67248 0.0
C631 C 0.65608 0.0788 0.72643 0.0
H632 H 0.71268 0.1368 0.74283 0.0
H633 H 0.78665 0.21397 0.74472 0.0
H634 H 0.72775 0.15623 0.77185 0.0
H635 H 0.77076 0.19488 0.71571 0.0
H636 H 0.54925 0.02676 0.65387 0.0
H637 H 0.52534 0.0501 0.71725 0.0
H638 H 0.4999 0.01909 0.66486 0.0
H639 H 0.57461 0.05759 0.70618 0.0
C640 C 0.45157 0.16878 0.24103 0.0
C641 C 0.42329 0.17634 0.24621 0.0
C642 C 0.47399 0.18939 0.24073 0.0
C643 C 0.48777 0.27053 0.245 0.0
H644 H 0.56734 0.2452 0.24711 0.0
C645 C 0.58213 0.35432 0.23997 0.0
C646 C 0.60968 0.3475 0.24679 0.0
C647 C 0.5598 0.33363 0.23953 0.0
C648 C 0.54537 0.25312 0.24682 0.0
H649 H 0.39696 0.21184 0.25559 0.0
H650 H 0.4357 0.24696 0.25618 0.0
H651 H 0.5291 0.21011 0.24806 0.0
H652 H 0.63479 0.31325 0.25893 0.0
H653 H 0.59606 0.27808 0.25925 0.0
H654 H 0.50394 0.3136 0.24504 0.0
C655 C 0.44083 0.22554 0.25148 0.0
C656 C 0.52298 0.23252 0.24697 0.0
C657 C 0.41832 0.20511 0.25133 0.0
C658 C 0.61401 0.31938 0.25339 0.0
C659 C 0.59153 0.29891 0.25339 0.0
C660 C 0.51013 0.29115 0.24529 0.0
C661 C 0.46926 0.21832 0.24605 0.0
C662 C 0.49356 0.24064 0.24599 0.0
C663 C 0.56384 0.30539 0.24633 0.0
C664 C 0.53957 0.28303 0.24613 0.0
H665 H 0.45632 0.14695 0.23684 0.0
H666 H 0.49495 0.18243 0.23602 0.0
H667 H 0.46586 0.2784 0.24383 0.0
H668 H 0.57791 0.37562 0.23461 0.0
H669 H 0.53949 0.33997 0.23353 0.0
C670 C 0.57547 0.66716 0.50585 0.0
C671 C 0.59987 0.66747 0.49449 0.0
C672 C 0.55509 0.68978 0.50572 0.0
C673 C 0.54314 0.76641 0.48888 0.0
H674 H 0.46455 0.75108 0.50387 0.0
C675 C 0.45966 0.86053 0.49761 0.0
C676 C 0.42983 0.85526 0.49565 0.0
C677 C 0.48004 0.83787 0.4973 0.0
C678 C 0.48621 0.75603 0.49938 0.0
H679 H 0.62124 0.69241 0.47381 0.0
H680 H 0.58545 0.73107 0.47301 0.0
H681 H 0.49928 0.7121 0.50276 0.0
H682 H 0.3985 0.82135 0.49149 0.0
H683 H 0.43365 0.78225 0.49021 0.0
H684 H 0.52966 0.81006 0.48462 0.0
C685 C 0.58228 0.71374 0.48252 0.0
C686 C 0.50662 0.7334 0.49906 0.0
C687 C 0.60293 0.69124 0.48285 0.0
C688 C 0.42117 0.82645 0.4932 0.0
C689 C 0.44158 0.8038 0.4926 0.0
C690 C 0.52261 0.78898 0.48896 0.0
C691 C 0.55788 0.71362 0.49402 0.0
C692 C 0.53567 0.73803 0.49393 0.0
C693 C 0.47155 0.80892 0.49472 0.0
C694 C 0.49365 0.78441 0.49432 0.0
H695 H 0.57224 0.64952 0.51517 0.0
H696 H 0.53735 0.6886 0.51515 0.0
H697 H 0.56507 0.77155 0.48503 0.0
H698 H 0.46738 0.88228 0.49966 0.0
H699 H 0.50251 0.84326 0.4994 0.0
C700 C 0.08483 0.85125 0.73394 0.0
C701 C 0.11026 0.84674 0.74398 0.0
C702 C 0.06244 0.83057 0.73368 0.0
C703 C 0.04525 0.75308 0.74751 0.0
H704 H 0.9669 0.77716 0.73725 0.0
C705 C 0.95191 0.66816 0.74251 0.0
C706 C 0.92318 0.6765 0.746 0.0
C707 C 0.97445 0.68861 0.7418 0.0
C708 C 0.98847 0.76976 0.74044 0.0
H709 H 0.13134 0.81655 0.76195 0.0
H710 H 0.09243 0.7816 0.76224 0.0
H711 H 1.00522 0.81248 0.73762 0.0
H712 H 0.89613 0.71345 0.75182 0.0
H713 H 0.93501 0.74857 0.75152 0.0
H714 H 0.02829 0.71069 0.75138 0.0
C715 C 0.08981 0.8005 0.75389 0.0
C716 C 1.01094 0.7903 0.7403 0.0
C717 C 0.11236 0.82089 0.75386 0.0
C718 C 0.91785 0.70602 0.74894 0.0
C719 C 0.94043 0.7264 0.74859 0.0
C720 C 0.02272 0.73265 0.74797 0.0
C721 C 0.06429 0.80472 0.74375 0.0
C722 C 0.03994 0.7825 0.7438 0.0
C723 C 0.96932 0.71827 0.74492 0.0
C724 C 0.99373 0.74042 0.74442 0.0
H725 H 0.08229 0.87071 0.72606 0.0
H726 H 0.04381 0.83494 0.72534 0.0
H727 H 0.06699 0.74545 0.74997 0.0
H728 H 0.95701 0.64574 0.74001 0.0
H729 H 0.99589 0.68095 0.73853 0.0
C730 C 0.07524 0.16752 1.00531 0.0
C731 C 0.10055 0.16868 0.99478 0.0
C732 C 0.055 0.19026 1.00533 0.0
C733 C 0.04475 0.26834 0.99069 0.0
H734 H 0.96506 0.25228 1.00282 0.0
C735 C 0.9608 0.36213 0.99946 0.0
C736 C 0.93113 0.35701 0.99659 0.0
C737 C 0.98119 0.33947 0.99911 0.0
C738 C 0.98704 0.25747 0.99913 0.0
H739 H 0.12372 0.19529 0.97572 0.0
H740 H 0.08821 0.23419 0.97512 0.0
H741 H 0.99966 0.21327 1.00153 0.0
H742 H 0.90015 0.32344 0.99073 0.0
H743 H 0.93533 0.28446 0.98933 0.0
H744 H 0.03177 0.31233 0.98734 0.0
C745 C 0.08419 0.21607 0.98391 0.0
C746 C 1.00737 0.23478 0.99872 0.0
C747 C 0.10468 0.19344 0.98411 0.0
C748 C 0.92267 0.3284 0.99317 0.0
C749 C 0.9431 0.3058 0.99251 0.0
C750 C 0.02431 0.29099 0.99083 0.0
C751 C 0.05887 0.2151 0.99458 0.0
C752 C 0.0368 0.23964 0.99462 0.0
C753 C 0.97289 0.31071 0.99557 0.0
C754 C 0.99495 0.28617 0.99515 0.0
H755 H 0.07117 0.14908 1.01387 0.0
H756 H 0.0365 0.18837 1.01413 0.0
H757 H 0.06697 0.27366 0.98768 0.0
H758 H 0.96833 0.38374 1.00226 0.0
H759 H 1.0035 0.34469 1.00193 0.0
C760 C 0.61325 0.82081 0.93473 0.0
C761 C 0.61063 0.84708 0.94407 0.0
C762 C 0.59069 0.80045 0.93458 0.0
C763 C 0.5111 0.79079 0.94678 0.0
H764 H 0.52893 0.71086 0.9371 0.0
C765 C 0.41835 0.70625 0.93778 0.0
C766 C 0.42358 0.67681 0.94108 0.0
C767 C 0.44091 0.72665 0.93825 0.0
C768 C 0.5232 0.73291 0.94012 0.0
H769 H 0.58172 0.87186 0.96092 0.0
H770 H 0.54319 0.83613 0.96149 0.0
H771 H 0.56754 0.74563 0.93876 0.0
H772 H 0.45718 0.64619 0.94783 0.0
H773 H 0.49598 0.68143 0.94955 0.0
H774 H 0.46694 0.77776 0.94924 0.0
C775 C 0.56225 0.83139 0.95363 0.0
C776 C 0.54571 0.75335 0.94071 0.0
C777 C 0.58466 0.85205 0.95347 0.0
C778 C 0.45218 0.66855 0.94505 0.0
C779 C 0.47468 0.68903 0.94589 0.0
C780 C 0.48864 0.77025 0.94653 0.0
C781 C 0.56462 0.80511 0.94408 0.0
C782 C 0.54026 0.78289 0.94391 0.0
C783 C 0.46966 0.71862 0.94241 0.0
C784 C 0.49406 0.74079 0.94305 0.0
H785 H 0.63266 0.81612 0.92714 0.0
H786 H 0.59375 0.78121 0.92663 0.0
H787 H 0.50527 0.81305 0.94905 0.0
H788 H 0.39674 0.7136 0.93453 0.0
H789 H 0.43559 0.74874 0.93503 0.0
C790 C 0.57189 0.16437 0.68936 0.0
C791 C 0.6016 0.16961 0.69194 0.0
C792 C 0.55149 0.18702 0.68948 0.0
C793 C 0.54549 0.26896 0.6881 0.0
H794 H 0.46586 0.25312 0.70051 0.0
C795 C 0.45683 0.35837 0.68109 0.0
C796 C 0.43178 0.35759 0.69187 0.0
C797 C 0.47716 0.3357 0.68129 0.0
C798 C 0.48801 0.25835 0.69722 0.0
H799 H 0.63268 0.20342 0.697 0.0
H800 H 0.59749 0.24247 0.69798 0.0
H801 H 0.50116 0.21456 0.70124 0.0
H802 H 0.4092 0.33179 0.71162 0.0
H803 H 0.44485 0.29307 0.71259 0.0
H804 H 0.53269 0.31301 0.68501 0.0
C805 C 0.58968 0.22099 0.69523 0.0
C806 C 0.50849 0.23576 0.69731 0.0
C807 C 0.61011 0.19836 0.69481 0.0
C808 C 0.42801 0.33332 0.70302 0.0
C809 C 0.4486 0.31079 0.70344 0.0
C810 C 0.52511 0.29162 0.68827 0.0
C811 C 0.55984 0.21592 0.69247 0.0
C812 C 0.53774 0.24044 0.69265 0.0
C813 C 0.47365 0.31135 0.69251 0.0
C814 C 0.49579 0.28688 0.69271 0.0
H815 H 0.56431 0.14265 0.68697 0.0
H816 H 0.52914 0.18168 0.68689 0.0
H817 H 0.56739 0.27402 0.68414 0.0
H818 H 0.46062 0.37643 0.67217 0.0
H819 H 0.49545 0.33725 0.67229 0.0
C820 C 0.11122 0.32211 0.43166 0.0
C821 C 0.11042 0.34693 0.44256 0.0
C822 C 0.08873 0.3017 0.43196 0.0
C823 C 1.01166 0.29007 0.44837 0.0
H824 H 0.02815 0.21127 0.43482 0.0
C825 C 0.91825 0.20618 0.44012 0.0
C826 C 0.92372 0.17656 0.44258 0.0
C827 C 0.94081 0.22656 0.44032 0.0
C828 C 0.02287 0.23299 0.43891 0.0
H829 H 0.08477 0.36902 0.46262 0.0
H830 H 0.04632 0.33316 0.46375 0.0
H831 H 0.06688 0.24614 0.43572 0.0
H832 H 0.95786 0.1456 0.44748 0.0
H833 H 0.99682 0.18082 0.4486 0.0
H834 H 0.96794 0.27655 0.45249 0.0
C835 C 0.06393 0.32969 0.45445 0.0
C836 C 0.04536 0.25348 0.4391 0.0
C837 C 0.0863 0.35039 0.45393 0.0
C838 C 0.95263 0.1681 0.44539 0.0
C839 C 0.97519 0.18855 0.44589 0.0
C840 C 0.98924 0.26948 0.44844 0.0
C841 C 0.06455 0.30487 0.44341 0.0
C842 C 0.0403 0.28259 0.44369 0.0
C843 C 0.96986 0.21831 0.44329 0.0
C844 C 0.99423 0.24045 0.44358 0.0
H845 H 0.12915 0.31857 0.42257 0.0
H846 H 0.09027 0.28362 0.42286 0.0
H847 H 1.0062 0.31204 0.45179 0.0
H848 H 0.89642 0.21371 0.43777 0.0
H849 H 0.93527 0.24885 0.43783 0.0
C850 C 0.10339 0.69169 0.20357 0.0
C851 C 0.09985 0.66766 0.19222 0.0
C852 C 0.08273 0.71415 0.20404 0.0
C853 C 1.00638 0.73351 0.18851 0.0
H854 H 0.02994 0.8103 0.20222 0.0
C855 C 0.92114 0.82666 0.19501 0.0
C856 C 0.92974 0.85546 0.19242 0.0
C857 C 0.94156 0.80399 0.19542 0.0
C858 C 0.02272 0.78919 0.19808 0.0
H859 H 0.07134 0.6492 0.17223 0.0
H860 H 0.03639 0.68826 0.17245 0.0
H861 H 0.06532 0.77182 0.20149 0.0
H862 H 0.96717 0.88246 0.18792 0.0
H863 H 1.00228 0.84343 0.18784 0.0
H864 H 0.96415 0.75115 0.18418 0.0
C865 C 0.05454 0.68966 0.18156 0.0
C866 C 0.04325 0.76663 0.19799 0.0
C867 C 0.07494 0.66705 0.18131 0.0
C868 C 0.95951 0.86071 0.1901 0.0
C869 C 0.97988 0.83804 0.19021 0.0
C870 C 0.98596 0.75614 0.18835 0.0
C871 C 0.05782 0.71377 0.19297 0.0
C872 C 0.03561 0.73819 0.1932 0.0
C873 C 0.97146 0.80909 0.19295 0.0
C874 C 0.99358 0.78458 0.19315 0.0
H875 H 0.1221 0.69309 0.21227 0.0
H876 H 0.08629 0.73167 0.21334 0.0
H877 H 0.9989 0.71218 0.18503 0.0
H878 H 0.89853 0.82157 0.19698 0.0
H879 H 0.93368 0.78246 0.19795 0.0
C880 C 0.46563 0.98915 0.15687 0.0
C881 C 0.43681 0.99825 0.15897 0.0
C882 C 0.47626 0.98167 0.13996 0.0
C883 C 0.46508 0.99806 1.09262 0.0
H884 H 0.51923 0.93539 1.08512 0.0
C885 C 0.52064 0.97901 1.02402 0.0
C886 C 0.5502 0.97213 1.02468 0.0
C887 C 0.50402 0.97901 1.03972 0.0
C888 C 0.50427 0.95309 1.08702 0.0
H889 H 0.39619 1.0051 0.14501 0.0
H890 H 0.41501 0.99244 0.11536 0.0
H891 H 0.49468 0.94008 0.11398 0.0
H892 H 0.58565 0.96036 1.04228 0.0
H893 H 0.55689 0.96079 1.06964 0.0
H894 H 0.47539 1.01174 1.06593 0.0
C895 C 0.42934 0.99137 0.12685 0.0
C896 C 0.49016 0.95569 0.10352 0.0
C897 C 0.41862 0.99866 0.14382 0.0
C898 C 0.56281 0.96528 1.04132 0.0
C899 C 0.54628 0.96543 1.05699 0.0
C900 C 0.47933 0.99556 1.07614 0.0
C901 C 0.45841 0.98327 0.12472 0.0
C902 C 0.47081 0.9785 0.1066 0.0
C903 C 0.51668 0.97229 1.0564 0.0
C904 C 0.49951 0.97337 1.07327 0.0
H905 H 0.48043 0.98906 0.16814 0.0
H906 H 0.49886 0.97591 0.1387 0.0
H907 H 0.45055 0.01607 0.09468 0.0
H908 H 0.5103 0.98406 1.01134 0.0
H909 H 0.48122 0.98408 1.03877 0.0
C910 C 0.72834 0.71054 0.3971 0.0
C911 C 0.73165 0.72404 0.41386 0.0
C912 C 0.72873 0.72667 0.38128 0.0
C913 C 0.75332 0.79571 0.36243 0.0
H914 H 0.70121 0.77544 0.32363 0.0
C915 C 0.7532 0.85672 0.29477 0.0
C916 C 0.75436 0.83886 0.27953 0.0
C917 C 0.74675 0.8452 0.31166 0.0
C918 C 0.71591 0.78132 0.33434 0.0
H919 H 0.7379 0.76504 0.42719 0.0
H920 H 0.73853 0.79333 0.39947 0.0
H921 H 0.6976 0.75049 0.35239 0.0
H922 H 0.74917 0.79492 0.27013 0.0
H923 H 0.73759 0.77504 0.29944 0.0
H924 H 0.77192 0.82623 0.34424 0.0
C925 C 0.73593 0.7702 0.39859 0.0
C926 C 0.71392 0.76698 0.35079 0.0
C927 C 0.7356 0.75402 0.41445 0.0
C928 C 0.74792 0.80944 0.28148 0.0
C929 C 0.74134 0.79799 0.29832 0.0
C930 C 0.75526 0.81011 0.34598 0.0
C931 C 0.73238 0.7567 0.38183 0.0
C932 C 0.73297 0.77362 0.3649 0.0
C933 C 0.74117 0.81563 0.31363 0.0
C934 C 0.73694 0.80268 0.33166 0.0
H935 H 0.72576 0.68741 0.3962 0.0
H936 H 0.7266 0.71551 0.36857 0.0
H937 H 0.76849 0.80114 0.37297 0.0
H938 H 0.75767 0.87954 0.29368 0.0
H939 H 0.74642 0.85936 0.32322 0.0
C940 C 0.02913 1.00603 0.663 0.0
C941 C 0.04538 0.98093 0.66619 0.0
C942 C 1.01165 1.00834 0.64777 0.0
C943 C 0.97798 0.96569 0.61101 0.0
H944 H 0.97955 0.03888 0.5859 0.0
C945 C 0.94401 0.9818 0.53669 0.0
C946 C 0.92916 1.00731 0.53233 0.0
C947 C 0.9541 0.97715 0.55417 0.0
C948 C 0.97852 0.01843 0.59289 0.0
H949 H 0.0551 0.93815 0.65612 0.0
H950 H 0.02556 0.94262 0.62922 0.0
H951 H 1.00527 0.03372 0.6142 0.0
H952 H 0.91232 0.04742 0.54303 0.0
H953 H 0.92965 0.03913 0.57352 0.0
H954 H 0.95193 0.95027 0.58922 0.0
C955 C 0.02595 0.96038 0.63864 0.0
C956 C 0.99323 0.01546 0.60915 0.0
C957 C 0.04326 0.95798 0.65395 0.0
C958 C 0.92346 0.02743 0.54598 0.0
C959 C 0.93365 0.02285 0.5634 0.0
C960 C 0.96341 0.96861 0.59464 0.0
C961 C 1.01017 0.98571 0.63526 0.0
C962 C 0.99329 0.98903 0.61838 0.0
C963 C 0.94968 0.99801 0.56756 0.0
C964 C 0.96365 0.995 0.58539 0.0
H965 H 0.03041 0.02424 0.67205 0.0
H966 H 0.99946 0.02801 0.64574 0.0
H967 H 0.97724 0.94514 0.61789 0.0
H968 H 0.94851 0.96581 0.52648 0.0
H969 H 0.96649 0.95785 0.55698 0.0
C970 C 0.76902 0.29372 0.91054 0.0
C971 C 0.76962 0.32398 0.91091 0.0
C972 C 0.76714 0.27901 0.89426 0.0
C973 C 0.78327 0.28788 0.84633 0.0
H974 H 0.73662 0.21911 0.84103 0.0
C975 C 0.7641 0.23236 0.77816 0.0
C976 C 0.76348 0.20209 0.77777 0.0
C977 C 0.76607 0.24702 0.79445 0.0
C978 C 0.75006 0.23805 0.84239 0.0
H979 H 0.76757 0.36255 0.89451 0.0
H980 H 0.7642 0.33678 0.86597 0.0
H981 H 0.73547 0.24575 0.86925 0.0
H982 H 0.76558 0.16348 0.79413 0.0
H983 H 0.76909 0.18917 0.82269 0.0
H984 H 0.79785 0.28019 0.81947 0.0
C985 C 0.76563 0.32449 0.87832 0.0
C986 C 0.74931 0.25336 0.85852 0.0
C987 C 0.76748 0.33923 0.89464 0.0
C988 C 0.76568 0.1868 0.79402 0.0
C989 C 0.76762 0.2015 0.81035 0.0
C990 C 0.78401 0.27257 0.8302 0.0
C991 C 0.76586 0.29421 0.87796 0.0
C992 C 0.76591 0.27844 0.86065 0.0
C993 C 0.76741 0.23177 0.81074 0.0
C994 C 0.76741 0.2475 0.82806 0.0
H995 H 0.77122 0.28129 0.9228 0.0
H996 H 0.76777 0.25569 0.89442 0.0
H997 H 0.79671 0.30683 0.84768 0.0
H998 H 0.76186 0.24482 0.76593 0.0
H999 H 0.76545 0.27034 0.79432 0.0
C1000 C 0.27177 0.33625 0.79113 0.0
C1001 C 0.27516 0.32014 0.77529 0.0
C1002 C 0.26864 0.32242 0.80769 0.0
C1003 C 0.28468 0.25376 0.83029 0.0
H1004 H 0.22997 0.28114 0.86588 0.0
C1005 C 0.25864 0.19074 0.89516 0.0
C1006 C 0.25529 0.20674 0.91105 0.0
C1007 C 0.26165 0.20468 0.87864 0.0
C1008 C 0.24559 0.27345 0.85615 0.0
H1009 H 0.27768 0.27691 0.76438 0.0
H1010 H 0.27163 0.25279 0.79323 0.0
H1011 H 0.23304 0.30523 0.8368 0.0
H1012 H 0.25267 0.24989 0.92208 0.0
H1013 H 0.25849 0.27422 0.89326 0.0
H1014 H 0.29724 0.22199 0.84963 0.0
C1015 C 0.27172 0.27611 0.79286 0.0
C1016 C 0.24731 0.28723 0.8395 0.0
C1017 C 0.27481 0.28992 0.77632 0.0
C1018 C 0.2555 0.23696 0.9101 0.0
C1019 C 0.25847 0.2509 0.89358 0.0
C1020 C 0.28296 0.23999 0.84693 0.0
C1021 C 0.2689 0.2922 0.80875 0.0
C1022 C 0.26686 0.2775 0.82639 0.0
C1023 C 0.26132 0.2349 0.87765 0.0
C1024 C 0.2634 0.24969 0.86004 0.0
H1025 H 0.2717 0.35957 0.79074 0.0
H1026 H 0.2667 0.33541 0.81971 0.0
H1027 H 0.3003 0.24607 0.82056 0.0
H1028 H 0.25882 0.16742 0.8955 0.0
H1029 H 0.26359 0.19176 0.86659 0.0
C1030 C 0.25816 0.85068 0.39314 0.0
C1031 C 0.25922 0.83392 0.40888 0.0
C1032 C 0.25397 0.83766 0.3764 0.0
C1033 C 0.26481 0.76778 0.35425 0.0
H1034 H 0.21672 0.79967 0.31644 0.0
C1035 C 0.23772 0.70422 0.29039 0.0
C1036 C 0.23863 0.71899 0.27392 0.0
C1037 C 0.24 0.71918 0.30656 0.0
C1038 C 0.23048 0.79071 0.32683 0.0
H1039 H 0.25591 0.7904 0.41938 0.0
H1040 H 0.24779 0.76795 0.39038 0.0
H1041 H 0.21975 0.82428 0.34544 0.0
H1042 H 0.24249 0.76102 0.26144 0.0
H1043 H 0.24679 0.78725 0.28981 0.0
H1044 H 0.27555 0.73425 0.33576 0.0
C1045 C 0.25065 0.79108 0.39092 0.0
C1046 C 0.23218 0.80476 0.34341 0.0
C1047 C 0.25487 0.80404 0.40759 0.0
C1048 C 0.24195 0.74907 0.27395 0.0
C1049 C 0.2441 0.76409 0.29016 0.0
C1050 C 0.26309 0.75377 0.33774 0.0
C1051 C 0.25084 0.80763 0.3751 0.0
C1052 C 0.24916 0.79327 0.35735 0.0
C1053 C 0.24321 0.74926 0.30663 0.0
C1054 C 0.24573 0.76493 0.3239 0.0
H1055 H 0.26115 0.87379 0.39371 0.0
H1056 H 0.25426 0.85097 0.36444 0.0
H1057 H 0.27865 0.75875 0.36457 0.0
H1058 H 0.23546 0.68101 0.29079 0.0
H1059 H 0.23894 0.70719 0.31904 0.0
C1060 C 0.03028 0.49103 0.52428 0.0
C1061 C 0.06063 0.49015 0.52397 0.0
C1062 C 0.01547 0.49349 0.54058 0.0
C1063 C 0.0252 0.51652 0.58755 0.0
H1064 H 0.95892 0.46778 0.59707 0.0
C1065 C 0.97786 0.50663 0.65826 0.0
C1066 C 0.94764 0.50833 0.65992 0.0
C1067 C 0.99067 0.50319 0.64145 0.0
C1068 C 0.97722 0.48172 0.59453 0.0
H1069 H 0.09929 0.49182 0.54041 0.0
H1070 H 0.07351 0.49577 0.56883 0.0
H1071 H 0.98301 0.46533 0.56786 0.0
H1072 H 0.90715 0.50649 0.64529 0.0
H1073 H 0.92966 0.50084 0.61578 0.0
H1074 H 0.01956 0.53289 0.61414 0.0
C1075 C 0.06112 0.49471 0.5565 0.0
C1076 C 0.99097 0.48036 0.57781 0.0
C1077 C 0.07589 0.49215 0.54024 0.0
C1078 C 0.93049 0.5055 0.64442 0.0
C1079 C 0.94336 0.50205 0.62755 0.0
C1080 C 1.0115 0.51788 0.60421 0.0
C1081 C 0.03077 0.49529 0.55686 0.0
C1082 C 0.01527 0.49756 0.57423 0.0
C1083 C 0.97362 0.50147 0.62588 0.0
C1084 C 0.98755 0.50029 0.60796 0.0
H1085 H 0.01796 0.4893 0.51195 0.0
H1086 H 0.99208 0.49415 0.54044 0.0
H1087 H 0.04354 0.53044 0.58507 0.0
H1088 H 0.99175 0.50911 0.66987 0.0
H1089 H 0.01403 0.50234 0.64062 0.0
C1090 C 0.58036 0.48222 0.14623 0.0
C1091 C 0.5793 0.50484 0.15875 0.0
C1092 C 0.56501 0.48401 0.13012 0.0
C1093 C 0.5018 0.51992 0.11031 0.0
H1094 H 0.53336 0.49198 1.06531 0.0
C1095 C 0.44676 0.53865 1.04169 0.0
C1096 C 0.44832 0.51654 1.02883 0.0
C1097 C 0.46139 0.53614 1.05802 0.0
C1098 C 0.52409 0.49947 1.07783 0.0
H1099 H 0.56237 0.54765 0.16381 0.0
H1100 H 0.53559 0.55082 0.13559 0.0
H1101 H 0.56319 0.49117 1.09231 0.0
H1102 H 0.46514 0.47381 1.02344 0.0
H1103 H 0.49063 0.46936 1.05205 0.0
H1104 H 0.46271 0.52826 0.09582 0.0
C1105 C 0.54792 0.53149 0.13841 0.0
C1106 C 0.54122 0.49911 1.09327 0.0
C1107 C 0.56331 0.52971 0.15453 0.0
C1108 C 0.46386 0.49136 1.03298 0.0
C1109 C 0.47851 0.48886 1.04932 0.0
C1110 C 0.48466 0.52026 0.09487 0.0
C1111 C 0.54822 0.50845 0.12618 0.0
C1112 C 0.53028 0.50938 0.10967 0.0
C1113 C 0.47792 0.51148 1.06185 0.0
C1114 C 0.49563 0.51008 1.07845 0.0
H1115 H 0.59203 0.46254 0.14919 0.0
H1116 H 0.56542 0.46577 0.12107 0.0
H1117 H 0.49258 0.52749 0.12283 0.0
H1118 H 0.43539 0.55853 1.03881 0.0
H1119 H 0.46076 0.55409 1.0673 0.0
C1120 C 0.30178 0.31592 0.23208 0.0
C1121 C 0.27971 0.29919 0.23984 0.0
C1122 C 0.29593 0.34353 0.2254 0.0
C1123 C 0.23543 0.3895 0.2096 0.0
H1124 H 0.28925 0.45222 0.21723 0.0
C1125 C 0.21363 0.50117 0.17915 0.0
C1126 C 0.21766 0.52485 0.19063 0.0
C1127 C 0.22455 0.47402 0.1837 0.0
C1128 C 0.27395 0.43496 0.21502 0.0
H1129 H 0.23408 0.29853 0.2465 0.0
H1130 H 0.22405 0.34675 0.23525 0.0
H1131 H 0.30072 0.40422 0.22867 0.0
H1132 H 0.23767 0.53877 0.21551 0.0
H1133 H 0.25643 0.49141 0.22354 0.0
H1134 H 0.20821 0.42025 0.19651 0.0
C1135 C 0.24585 0.33843 0.23412 0.0
C1136 C 0.28066 0.40736 0.22143 0.0
C1137 C 0.25169 0.31087 0.2408 0.0
C1138 C 0.23429 0.52106 0.20628 0.0
C1139 C 0.24509 0.49384 0.21089 0.0
C1140 C 0.22874 0.41703 0.20321 0.0
C1141 C 0.26785 0.3551 0.22626 0.0
C1142 C 0.26135 0.38432 0.21894 0.0
C1143 C 0.23964 0.4698 0.19991 0.0
C1144 C 0.2478 0.4402 0.20591 0.0
H1145 H 0.32368 0.30775 0.23128 0.0
H1146 H 0.31336 0.35565 0.21931 0.0
H1147 H 0.22022 0.37223 0.2072 0.0
H1148 H 0.20113 0.50334 0.1669 0.0
H1149 H 0.22052 0.45616 0.1747 0.0
C1150 C 0.46195 0.5479 0.48312 0.0
C1151 C 0.47868 0.52566 0.4907 0.0
C1152 C 0.43435 0.5423 0.47626 0.0
C1153 C 0.38875 0.48241 0.45967 0.0
H1154 H 0.32543 0.53572 0.46754 0.0
C1155 C 0.27697 0.46031 0.42934 0.0
C1156 C 0.25326 0.46407 0.44092 0.0
C1157 C 0.30408 0.47145 0.4338 0.0
C1158 C 0.34286 0.52057 0.46526 0.0
H1159 H 0.47939 0.48 0.4969 0.0
H1160 H 0.43116 0.4704 0.48541 0.0
H1161 H 0.37341 0.54702 0.4792 0.0
H1162 H 0.23918 0.48382 0.46584 0.0
H1163 H 0.28649 0.50286 0.47374 0.0
H1164 H 0.35819 0.45545 0.44635 0.0
C1165 C 0.43948 0.49214 0.48453 0.0
C1166 C 0.37045 0.52719 0.47179 0.0
C1167 C 0.46703 0.49773 0.49136 0.0
C1168 C 0.25693 0.48064 0.45656 0.0
C1169 C 0.28412 0.49162 0.46109 0.0
C1170 C 0.36123 0.47579 0.45318 0.0
C1171 C 0.42283 0.5143 0.47679 0.0
C1172 C 0.39368 0.50802 0.46924 0.0
C1173 C 0.30823 0.48644 0.45002 0.0
C1174 C 0.33785 0.49466 0.45599 0.0
H1175 H 0.47011 0.56973 0.48256 0.0
H1176 H 0.42222 0.55983 0.47029 0.0
H1177 H 0.4062 0.46734 0.45721 0.0
H1178 H 0.27485 0.44788 0.4171 0.0
H1179 H 0.32199 0.46764 0.42474 0.0
C1180 C 0.23181 0.70953 0.73431 0.0
C1181 C 0.25419 0.72658 0.74139 0.0
C1182 C 0.23752 0.68187 0.7277 0.0
C1183 C 0.29751 0.6364 0.71078 0.0
H1184 H 0.24484 0.57322 0.71995 0.0
C1185 C 0.31863 0.52466 0.68046 0.0
C1186 C 0.31538 0.50105 0.69212 0.0
C1187 C 0.30779 0.55176 0.68513 0.0
C1188 C 0.25982 0.59061 0.71731 0.0
H1189 H 0.30019 0.72779 0.74697 0.0
H1190 H 0.30999 0.67947 0.7359 0.0
H1191 H 0.23356 0.6212 0.73141 0.0
H1192 H 0.29693 0.48719 0.71749 0.0
H1193 H 0.27837 0.53448 0.72574 0.0
H1194 H 0.32428 0.60581 0.69725 0.0
C1195 C 0.28805 0.68758 0.73522 0.0
C1196 C 0.25321 0.61819 0.72373 0.0
C1197 C 0.28236 0.71519 0.74181 0.0
C1198 C 0.29969 0.50485 0.70813 0.0
C1199 C 0.28899 0.53203 0.71286 0.0
C1200 C 0.30413 0.60888 0.70439 0.0
C1201 C 0.26576 0.6706 0.72799 0.0
C1202 C 0.27212 0.64139 0.72068 0.0
C1203 C 0.2936 0.556 0.70164 0.0
C1204 C 0.28548 0.58556 0.70765 0.0
H1205 H 0.20981 0.71748 0.73395 0.0
H1206 H 0.21987 0.6695 0.72212 0.0
H1207 H 0.31239 0.6538 0.70794 0.0
H1208 H 0.33039 0.52245 0.66794 0.0
H1209 H 0.31115 0.56957 0.67596 0.0
C1210 C 0.07083 0.47905 0.98528 0.0
C1211 C 0.0533 0.50115 0.99227 0.0
C1212 C 0.09865 0.48503 0.97889 0.0
C1213 C 0.14395 0.5452 0.96237 0.0
H1214 H 0.20777 0.49329 0.97221 0.0
C1215 C 0.25641 0.56623 0.93245 0.0
C1216 C 0.28002 0.56318 0.94419 0.0
C1217 C 0.2292 0.55559 0.93715 0.0
C1218 C 0.19021 0.50806 0.96939 0.0
H1219 H 0.05136 0.54695 0.99788 0.0
H1220 H 0.09994 0.55723 0.98714 0.0
H1221 H 0.15949 0.48167 0.98328 0.0
H1222 H 0.29375 0.54545 0.9698 0.0
H1223 H 0.24624 0.52719 0.97809 0.0
H1224 H 0.17464 0.57204 0.949 0.0
C1225 C 0.0921 0.5353 0.98639 0.0
C1226 C 0.16245 0.50125 0.97558 0.0
C1227 C 0.06434 0.52933 0.99278 0.0
C1228 C 0.27609 0.54801 0.96037 0.0
C1229 C 0.24879 0.5375 0.96513 0.0
C1230 C 0.17163 0.55199 0.9562 0.0
C1231 C 0.10959 0.51326 0.97929 0.0
C1232 C 0.13901 0.51987 0.97227 0.0
C1233 C 0.22484 0.54179 0.95377 0.0
C1234 C 0.19518 0.5336 0.95969 0.0
H1235 H 0.06315 0.45705 0.98486 0.0
H1236 H 0.11142 0.46757 0.97339 0.0
H1237 H 0.12637 0.55985 0.95935 0.0
H1238 H 0.25872 0.5776 0.91981 0.0
H1239 H 0.2114 0.55871 0.92789 0.0
C1240 C 0.80068 0.50392 0.97765 0.0
C1241 C 0.81586 0.49991 0.99384 0.0
C1242 C 0.79 0.53114 0.97294 0.0
C1243 C 0.80433 0.60793 0.98203 0.0
H1244 H 0.73425 0.62034 0.95451 0.0
C1245 C 0.78249 0.71494 0.94526 0.0
C1246 C 0.75424 0.72614 0.94558 0.0
C1247 C 0.78827 0.68721 0.95166 0.0
C1248 C 0.75376 0.6173 0.96233 0.0
H1249 H 0.83004 0.52096 1.0183 0.0
H1250 H 0.81084 0.56813 1.0103 0.0
H1251 H 0.74569 0.57217 0.96569 0.0
H1252 H 0.7098 0.71657 0.95265 0.0
H1253 H 0.71999 0.66835 0.96415 0.0
H1254 H 0.8123 0.65299 0.9789 0.0
C1255 C 0.80786 0.55047 1.00099 0.0
C1256 C 0.76047 0.58961 0.96859 0.0
C1257 C 0.81867 0.52334 1.00565 0.0
C1258 C 0.73187 0.70876 0.95237 0.0
C1259 C 0.73765 0.68098 0.95879 0.0
C1260 C 0.79764 0.63554 0.9758 0.0
C1261 C 0.79413 0.55493 0.98435 0.0
C1262 C 0.78594 0.58454 0.97843 0.0
C1263 C 0.76597 0.66991 0.9586 0.0
C1264 C 0.77242 0.64057 0.96572 0.0
H1265 H 0.79829 0.4864 0.96817 0.0
H1266 H 0.77975 0.53377 0.95995 0.0
H1267 H 0.82434 0.60485 0.98933 0.0
H1268 H 0.80032 0.72778 0.94032 0.0
H1269 H 0.81027 0.67927 0.95107 0.0
C1270 C 0.5593 0.51696 0.71041 0.0
C1271 C 0.554 0.49787 0.69614 0.0
C1272 C 0.5874 0.52133 0.71673 0.0
C1273 C 0.66329 0.51727 0.70278 0.0
H1274 H 0.67869 0.52298 0.75387 0.0
C1275 C 0.77796 0.54171 0.72929 0.0
C1276 C 0.77964 0.56224 0.74313 0.0
C1277 C 0.75136 0.52962 0.72449 0.0
C1278 C 0.67476 0.52166 0.73955 0.0
H1279 H 0.57407 0.46837 0.67734 0.0
H1280 H 0.62328 0.47611 0.68835 0.0
H1281 H 0.6303 0.51048 0.74351 0.0
H1282 H 0.75469 0.58522 0.76325 0.0
H1283 H 0.70854 0.56459 0.75475 0.0
H1284 H 0.7074 0.52935 0.69874 0.0
C1285 C 0.60563 0.48768 0.69463 0.0
C1286 C 0.64702 0.51446 0.73362 0.0
C1287 C 0.57745 0.48309 0.68841 0.0
C1288 C 0.75429 0.56945 0.75254 0.0
C1289 C 0.72774 0.55745 0.74771 0.0
C1290 C 0.69099 0.52469 0.70869 0.0
C1291 C 0.61091 0.50689 0.70885 0.0
C1292 C 0.64087 0.51255 0.71517 0.0
C1293 C 0.72579 0.53781 0.73339 0.0
C1294 C 0.69701 0.52737 0.72716 0.0
H1295 H 0.54166 0.52845 0.71676 0.0
H1296 H 0.59077 0.53649 0.72758 0.0
H1297 H 0.65917 0.51628 0.68846 0.0
H1298 H 0.79704 0.5356 0.72176 0.0
H1299 H 0.75077 0.51419 0.71359 0.0
C1300 C 0.76466 0.30613 0.46255 0.0
C1301 C 0.78447 0.30111 0.44856 0.0
C1302 C 0.76015 0.33397 0.46914 0.0
C1303 C 0.76585 0.41016 0.45631 0.0
H1304 H 0.75754 0.42368 0.50747 0.0
C1305 C 0.74084 0.52382 0.48358 0.0
C1306 C 0.71915 0.52524 0.49679 0.0
C1307 C 0.75336 0.49737 0.47892 0.0
C1308 C 0.75961 0.42029 0.49313 0.0
H1309 H 0.815 0.32148 0.4305 0.0
H1310 H 0.80706 0.37018 0.442 0.0
H1311 H 0.76985 0.37561 0.49667 0.0
H1312 H 0.69485 0.50001 0.51615 0.0
H1313 H 0.71626 0.45419 0.50792 0.0
H1314 H 0.75472 0.45451 0.45266 0.0
C1315 C 0.79503 0.35252 0.44785 0.0
C1316 C 0.76668 0.39271 0.48695 0.0
C1317 C 0.79973 0.3246 0.44136 0.0
C1318 C 0.71147 0.49983 0.50591 0.0
C1319 C 0.7239 0.47343 0.50122 0.0
C1320 C 0.75858 0.4377 0.46247 0.0
C1321 C 0.77517 0.35752 0.46181 0.0
C1322 C 0.76951 0.38724 0.46846 0.0
C1323 C 0.74448 0.4717 0.48735 0.0
C1324 C 0.75496 0.44306 0.48096 0.0
H1325 H 0.75277 0.28846 0.46851 0.0
H1326 H 0.74448 0.33712 0.47977 0.0
H1327 H 0.76757 0.4066 0.44197 0.0
H1328 H 0.74736 0.54294 0.4763 0.0
H1329 H 0.76955 0.49695 0.46842 0.0
C1330 C 0.77585 0.46037 0.25496 0.0
C1331 C 0.75239 0.46285 0.24305 0.0
C1332 C 0.80297 0.4713 0.25033 0.0
C1333 C 0.84193 0.51833 0.21777 0.0
H1334 H 0.90595 0.46712 0.22847 0.0
C1335 C 0.96124 0.54695 0.20131 0.0
C1336 C 0.97872 0.52459 0.19459 0.0
C1337 C 0.93345 0.54123 0.20783 0.0
C1338 C 0.88832 0.48161 0.22527 0.0
H1339 H 0.7388 0.47991 0.21724 0.0
H1340 H 0.78618 0.49863 0.20907 0.0
H1341 H 0.85773 0.45504 0.23892 0.0
H1342 H 0.98059 0.4786 0.18962 0.0
H1343 H 0.93207 0.46876 0.20056 0.0
H1344 H 0.87256 0.54439 0.20356 0.0
C1345 C 0.78356 0.48857 0.2221 0.0
C1346 C 0.86067 0.4749 0.2315 0.0
C1347 C 0.75635 0.47779 0.22679 0.0
C1348 C 0.96765 0.49641 0.19449 0.0
C1349 C 0.93992 0.4907 0.201 0.0
C1350 C 0.86966 0.52505 0.2115 0.0
C1351 C 0.8074 0.4848 0.23362 0.0
C1352 C 0.83705 0.49305 0.22775 0.0
C1353 C 0.9225 0.51299 0.20784 0.0
C1354 C 0.89315 0.50661 0.21503 0.0
H1355 H 0.7735 0.44921 0.26767 0.0
H1356 H 0.82067 0.46859 0.25971 0.0
H1357 H 0.8243 0.53293 0.21475 0.0
H1358 H 0.96895 0.56896 0.20142 0.0
H1359 H 0.92072 0.55888 0.21312 0.0
C1360 C 0.80142 0.81707 0.73467 0.0
C1361 C 0.77927 0.79967 0.74172 0.0
C1362 C 0.79543 0.84487 0.72835 0.0
C1363 C 0.735 0.89049 0.71216 0.0
H1364 H 0.78712 0.95379 0.72212 0.0
C1365 C 0.7134 1.00302 0.68292 0.0
C1366 C 0.71641 0.02634 0.6948 0.0
C1367 C 0.72427 0.97584 0.68741 0.0
C1368 C 0.7723 0.93637 0.71926 0.0
H1369 H 0.73335 0.79797 0.74748 0.0
H1370 H 0.72304 0.84649 0.73686 0.0
H1371 H 0.79888 0.90547 0.73293 0.0
H1372 H 0.73438 0.0396 0.72041 0.0
H1373 H 0.75305 0.99212 0.72833 0.0
H1374 H 0.70795 0.92135 0.69903 0.0
C1375 C 0.74503 0.83857 0.73602 0.0
C1376 C 0.77918 0.9086 0.72531 0.0
C1377 C 0.75101 0.81083 0.74234 0.0
C1378 C 0.73183 0.02216 0.71089 0.0
C1379 C 0.74258 0.99489 0.71543 0.0
C1380 C 0.72813 0.91818 0.70613 0.0
C1381 C 0.76712 0.85593 0.72888 0.0
C1382 C 0.76047 0.88535 0.72196 0.0
C1383 C 0.73827 0.97121 0.70395 0.0
C1384 C 0.74659 0.94154 0.70968 0.0
H1385 H 0.82348 0.80929 0.73416 0.0
H1386 H 0.81293 0.85755 0.72282 0.0
H1387 H 0.72027 0.87307 0.70912 0.0
H1388 H 0.70186 1.00552 0.67035 0.0
H1389 H 0.72114 0.95827 0.67806 0.0
C1390 C 0.75456 0.98795 0.95428 0.0
C1391 C 0.75306 0.96574 0.94147 0.0
C1392 C 0.78111 1.00059 0.95861 0.0
C1393 C 0.85835 1.00582 0.94419 0.0
H1394 H 0.87231 0.0157 0.9952 0.0
C1395 C 0.97277 1.00968 0.97494 0.0
C1396 C 0.97815 0.02985 0.9886 0.0
C1397 C 0.94481 1.00572 0.96829 0.0
C1398 C 0.86866 0.01346 0.98089 0.0
H1399 H 0.77821 0.94058 0.92249 0.0
H1400 H 0.82424 0.96217 0.9302 0.0
H1401 H 0.82414 1.0029 0.98476 0.0
H1402 H 0.95838 0.06173 1.00597 0.0
H1403 H 0.9094 0.0547 0.99439 0.0
H1404 H 0.90324 0.01541 0.94048 0.0
C1405 C 0.80498 0.97015 0.9368 0.0
C1406 C 0.84098 1.00621 0.97487 0.0
C1407 C 0.77847 0.95762 0.93242 0.0
C1408 C 0.95494 0.04613 0.99538 0.0
C1409 C 0.92689 0.04197 0.98884 0.0
C1410 C 0.88607 0.01287 0.95024 0.0
C1411 C 0.80679 0.99128 0.95028 0.0
C1412 C 0.83554 1.00187 0.95646 0.0
C1413 C 0.92151 0.02167 0.97524 0.0
C1414 C 0.89163 0.01636 0.96868 0.0
H1415 H 0.73542 0.99486 0.96147 0.0
H1416 H 0.78159 0.0172 0.9688 0.0
H1417 H 0.85488 1.00318 0.9299 0.0
H1418 H 0.99025 0.99702 0.96932 0.0
H1419 H 0.94134 0.9897 0.95794 0.0
C1420 C 0.79524 1.00169 0.20924 0.0
C1421 C 0.81571 0.99956 0.19533 0.0
C1422 C 0.7835 0.02844 0.21399 0.0
C1423 C 0.77647 0.10486 0.1987 0.0
H1424 H 0.77091 0.12061 0.24975 0.0
C1425 C 0.77121 0.22019 0.22758 0.0
C1426 C 0.7518 0.22547 0.24173 0.0
C1427 C 0.77595 0.19216 0.22137 0.0
C1428 C 0.77198 0.11646 0.23545 0.0
H1429 H 0.83892 0.02389 0.17503 0.0
H1430 H 0.81891 0.07029 0.18344 0.0
H1431 H 0.78374 0.07238 0.23959 0.0
H1432 H 0.7222 0.2054 0.26051 0.0
H1433 H 0.73057 0.15635 0.2497 0.0
H1434 H 0.76557 0.14927 0.19464 0.0
C1435 C 0.81155 0.05134 0.19058 0.0
C1436 C 0.77924 0.08875 0.22959 0.0
C1437 C 0.82318 0.02463 0.1858 0.0
C1438 C 0.73716 0.20205 0.24951 0.0
C1439 C 0.74211 0.17396 0.24341 0.0
C1440 C 0.76942 0.13262 0.20457 0.0
C1441 C 0.79199 0.05372 0.20498 0.0
C1442 C 0.78192 0.08264 0.21114 0.0
C1443 C 0.76157 0.16869 0.22927 0.0
C1444 C 0.76742 0.13882 0.22301 0.0
H1445 H 0.78893 0.98283 0.21686 0.0
H1446 H 0.7681 0.02935 0.22493 0.0
H1447 H 0.77779 0.10088 0.18439 0.0
H1448 H 0.78261 0.2378 0.22119 0.0
H1449 H 0.79128 0.18881 0.21058 0.0
C1450 C 0.75435 0.06996 0.43591 0.0
C1451 C 0.7797 0.06257 0.44529 0.0
C1452 C 0.72784 0.05768 0.44056 0.0
C1453 C 0.69115 0.02357 0.47917 0.0
H1454 H 0.63068 1.00994 0.44412 0.0
C1455 C 0.57799 0.98041 0.49888 0.0
C1456 C 0.55438 0.99509 0.49124 0.0
C1457 C 0.60612 0.9855 0.49276 0.0
C1458 C 0.64733 0.01376 0.45407 0.0
H1459 H 0.79716 0.03533 0.46638 0.0
H1460 H 0.75097 0.01343 0.47424 0.0
H1461 H 0.67902 0.02307 0.43396 0.0
H1462 H 0.54174 0.02608 0.47088 0.0
H1463 H 0.5908 0.03501 0.46022 0.0
H1464 H 0.65932 0.01438 0.49927 0.0
C1465 C 0.75152 0.02922 0.46352 0.0
C1466 C 0.67504 0.02132 0.44826 0.0
C1467 C 0.77808 0.04159 0.45889 0.0
C1468 C 0.5595 0.01464 0.47716 0.0
C1469 C 0.58757 0.01953 0.47093 0.0
C1470 C 0.66348 0.01581 0.48497 0.0
C1471 C 0.72595 0.03757 0.45467 0.0
C1472 C 0.69721 0.02681 0.46074 0.0
C1473 C 0.61123 1.00514 0.47872 0.0
C1474 C 0.64113 1.01128 0.4725 0.0
H1475 H 0.75471 0.08607 0.42538 0.0
H1476 H 0.70864 0.06493 0.43357 0.0
H1477 H 0.70749 0.02805 0.48919 0.0
H1478 H 0.57475 0.96535 0.50982 0.0
H1479 H 0.62388 0.97395 0.49896 0.0
C1480 C 0.27028 0.21959 0.46077 0.0
C1481 C 0.25096 0.22498 0.44657 0.0
C1482 C 0.27481 0.19154 0.46703 0.0
C1483 C 0.27066 0.11594 0.45297 0.0
H1484 H 0.27702 0.10023 0.50401 0.0
C1485 C 0.29497 1.00125 0.47915 0.0
C1486 C 0.31562 0.99925 0.49297 0.0
C1487 C 0.28298 0.02793 0.47443 0.0
C1488 C 0.27553 0.10425 0.4897 0.0
H1489 H 0.22122 0.2051 0.42782 0.0
H1490 H 0.22922 0.156 0.43875 0.0
H1491 H 0.26446 0.14859 0.49378 0.0
H1492 H 0.33893 0.02372 0.51312 0.0
H1493 H 0.31847 0.06999 0.50477 0.0
H1494 H 0.28261 0.07194 0.4488 0.0
C1495 C 0.24086 0.17354 0.44501 0.0
C1496 C 0.26829 0.13198 0.48385 0.0
C1497 C 0.23612 0.20166 0.43885 0.0
C1498 C 0.32305 0.02436 0.50243 0.0
C1499 C 0.31116 0.05099 0.49768 0.0
C1500 C 0.27811 0.08825 0.45881 0.0
C1501 C 0.2603 0.16816 0.45916 0.0
C1502 C 0.26612 0.13824 0.46541 0.0
C1503 C 0.29139 0.05326 0.48338 0.0
C1504 C 0.28102 0.0821 0.47725 0.0
H1505 H 0.28183 0.23712 0.46711 0.0
H1506 H 0.29013 0.1881 0.47783 0.0
H1507 H 0.26947 0.12014 0.43866 0.0
H1508 H 0.28868 0.98236 0.47158 0.0
H1509 H 0.26743 0.02875 0.46356 0.0
C1510 C 0.05951 0.01454 0.21102 0.0
C1511 C 0.05436 0.99517 0.19689 0.0
C1512 C 0.0876 0.01933 0.21725 0.0
C1513 C 0.16347 0.01576 0.20317 0.0
H1514 H 0.1791 0.02225 0.25421 0.0
C1515 C 0.27812 0.04111 0.22927 0.0
C1516 C 0.27978 0.06188 0.24296 0.0
C1517 C 0.25155 0.0288 0.22462 0.0
C1518 C 0.1751 0.02071 0.2399 0.0
H1519 H 0.07468 0.96564 0.17819 0.0
H1520 H 0.12384 0.97409 0.18905 0.0
H1521 H 0.13074 1.0093 0.24401 0.0
H1522 H 0.25486 0.08507 0.26301 0.0
H1523 H 0.20876 0.06406 0.25477 0.0
H1524 H 0.20747 0.02804 0.19898 0.0
C1525 C 0.10609 0.98556 0.1953 0.0
C1526 C 0.14737 0.01326 0.23407 0.0
C1527 C 0.07794 0.98057 0.18917 0.0
C1528 C 0.25447 0.06912 0.25241 0.0
C1529 C 0.22794 0.05691 0.24773 0.0
C1530 C 0.19115 0.02342 0.20899 0.0
C1531 C 0.11123 1.00502 0.2094 0.0
C1532 C 0.14115 1.01106 0.21564 0.0
C1533 C 0.22601 0.03702 0.23353 0.0
C1534 C 0.19724 0.02637 0.22743 0.0
H1535 H 0.04177 0.0259 0.21736 0.0
H1536 H 0.09086 0.03467 0.22802 0.0
H1537 H 0.15928 0.01454 0.18887 0.0
H1538 H 0.29718 0.03496 0.22173 0.0
H1539 H 0.25097 0.01318 0.21383 0.0
C1540 C 0.21265 1.0009 1.00605 0.0
C1541 C 0.21632 0.02452 0.99444 0.0
C1542 C 0.2235 0.97376 1.00148 0.0
C1543 C 0.27246 0.9348 0.96997 0.0
H1544 H 0.21948 0.87167 0.9786 0.0
C1545 C 0.30114 0.81584 0.95356 0.0
C1546 C 0.27911 0.79884 0.94602 0.0
C1547 C 0.29512 0.84347 0.96012 0.0
C1548 C 0.23448 0.88906 0.97598 0.0
H1549 H 0.23552 0.03833 0.96927 0.0
H1550 H 0.25415 0.99095 0.96122 0.0
H1551 H 0.20722 0.91973 0.98907 0.0
H1552 H 0.23339 0.79766 0.93962 0.0
H1553 H 0.22306 0.84591 0.95065 0.0
H1554 H 0.29926 0.90412 0.95634 0.0
C1555 C 0.24316 0.99344 0.97397 0.0
C1556 C 0.22764 0.9166 0.98223 0.0
C1557 C 0.23242 0.02066 0.97859 0.0
C1558 C 0.25096 0.81022 0.94515 0.0
C1559 C 0.24496 0.8378 0.9517 0.0
C1560 C 0.27931 0.90718 0.9637 0.0
C1561 C 0.23816 0.96948 0.98513 0.0
C1562 C 0.24644 0.9399 0.97923 0.0
C1563 C 0.26692 0.85475 0.95934 0.0
C1564 C 0.26027 0.884 0.9665 0.0
H1565 H 0.20056 1.00313 1.01844 0.0
H1566 H 0.21982 0.95595 1.0106 0.0
H1567 H 0.28755 0.95216 0.96754 0.0
H1568 H 0.32313 0.80789 0.95428 0.0
H1569 H 0.31252 0.85582 0.96603 0.0
C1570 C 0.47407 0.01642 0.71554 0.0
C1571 C 0.47882 0.02921 0.69867 0.0
C1572 C 0.44597 1.01138 0.7217 0.0
C1573 C 0.37082 1.00327 0.70529 0.0
H1574 H 0.35161 1.0105 0.75582 0.0
C1575 C 0.25503 0.98385 0.73063 0.0
C1576 C 0.25267 0.965 0.74537 0.0
C1577 C 0.28177 0.9956 0.72588 0.0
C1578 C 0.35668 1.00831 0.74168 0.0
H1579 H 0.45775 0.04753 0.67528 0.0
H1580 H 0.40874 0.03908 0.68608 0.0
H1581 H 0.40001 0.02325 0.74546 0.0
H1582 H 0.27636 0.94522 0.76734 0.0
H1583 H 0.32291 0.96584 0.7591 0.0
H1584 H 0.32759 0.98818 0.70153 0.0
C1585 C 0.42671 0.03233 0.69441 0.0
C1586 C 0.38445 0.01551 0.73573 0.0
C1587 C 0.45482 0.03721 0.68821 0.0
C1588 C 0.27737 0.9596 0.75588 0.0
C1589 C 0.30408 0.9715 0.75119 0.0
C1590 C 0.34306 0.99624 0.71122 0.0
C1591 C 0.4219 0.01916 0.71119 0.0
C1592 C 0.39197 0.01282 0.71748 0.0
C1593 C 0.30674 0.98896 0.73583 0.0
C1594 C 0.33572 0.99843 0.7295 0.0
H1595 H 0.49211 1.00968 0.72382 0.0
H1596 H 0.44317 1.00075 0.73454 0.0
H1597 H 0.37591 1.00041 0.6912 0.0
H1598 H 0.23649 0.98854 0.72222 0.0
H1599 H 0.28304 1.00935 0.71414 0.0
C1600 C 0.32503 0.10218 0.17966 0.0
C1601 C 0.31689 0.12227 0.19301 0.0
C1602 C 0.3105 0.10057 0.16293 0.0
C1603 C 0.2616 0.14191 0.1313 0.0
H1604 H 0.24815 0.06722 0.10971 0.0
C1605 C 0.21855 0.12927 1.05699 0.0
C1606 C 0.19894 0.10689 1.05291 0.0
C1607 C 0.23197 0.13143 1.07405 0.0
C1608 C 0.25149 0.08835 0.11547 0.0
H1609 H 0.28646 0.15665 0.19849 0.0
H1610 H 0.2617 0.15432 0.16937 0.0
H1611 H 0.27286 0.07057 0.1387 0.0
H1612 H 0.17866 0.06906 1.06432 0.0
H1613 H 0.20217 0.07255 1.09379 0.0
H1614 H 0.24039 0.1597 0.10801 0.0
C1615 C 0.27946 0.13964 0.17185 0.0
C1616 C 0.26608 0.09032 0.13219 0.0
C1617 C 0.29375 0.14097 0.18872 0.0
C1618 C 0.19341 0.08672 1.06672 0.0
C1619 C 0.20719 0.08864 1.08373 0.0
C1620 C 0.24741 0.13997 0.11444 0.0
C1621 C 0.28731 0.1192 0.15861 0.0
C1622 C 0.27147 0.11714 0.14054 0.0
C1623 C 0.22681 0.11107 1.08782 0.0
C1624 C 0.24195 0.11314 0.10612 0.0
H1625 H 0.34245 0.08714 0.18222 0.0
H1626 H 0.31771 0.08469 0.15327 0.0
H1627 H 0.26527 0.16306 0.13696 0.0
H1628 H 0.22369 0.14531 1.04692 0.0
H1629 H 0.247 0.1489 1.0763 0.0
C1630 C 0.68155 0.43363 0.3184 0.0
C1631 C 0.66961 0.44644 0.30283 0.0
C1632 C 0.67959 0.44711 0.33552 0.0
C1633 C 0.66359 0.51962 0.35769 0.0
H1634 H 0.65917 0.47471 0.40146 0.0
C1635 C 0.67 0.57485 0.42892 0.0
C1636 C 0.65514 0.56285 0.44374 0.0
C1637 C 0.67131 0.56071 0.41207 0.0
C1638 C 0.66014 0.48784 0.38946 0.0
H1639 H 0.64584 0.48408 0.29382 0.0
H1640 H 0.64221 0.50698 0.32311 0.0
H1641 H 0.66205 0.4504 0.37242 0.0
H1642 H 0.62989 0.52573 0.45171 0.0
H1643 H 0.63182 0.50143 0.42256 0.0
H1644 H 0.66121 0.55703 0.37461 0.0
C1645 C 0.65361 0.48666 0.32225 0.0
C1646 C 0.6622 0.4737 0.37259 0.0
C1647 C 0.65551 0.47321 0.30522 0.0
C1648 C 0.64146 0.53605 0.44083 0.0
C1649 C 0.64286 0.52182 0.42396 0.0
C1650 C 0.66165 0.53373 0.37453 0.0
C1651 C 0.66571 0.47411 0.33786 0.0
C1652 C 0.66389 0.48922 0.35623 0.0
C1653 C 0.65793 0.53372 0.40914 0.0
C1654 C 0.65984 0.51826 0.39089 0.0
H1655 H 0.69271 0.41318 0.31738 0.0
H1656 H 0.68955 0.43647 0.34689 0.0
H1657 H 0.66523 0.53284 0.34575 0.0
H1658 H 0.68114 0.59521 0.43037 0.0
H1659 H 0.68355 0.57083 0.40141 0.0
C1660 C 0.24222 0.88883 0.6904 0.0
C1661 C 0.21473 0.90143 0.69316 0.0
C1662 C 0.25642 0.89023 0.6735 0.0
C1663 C 0.24383 0.90736 0.62384 0.0
H1664 H 0.32743 0.90936 0.62173 0.0
C1665 C 0.30475 0.90145 0.5545 0.0
C1666 C 0.33152 0.91556 0.55207 0.0
C1667 C 0.29122 0.8996 0.57153 0.0
C1668 C 0.30405 0.90907 0.62188 0.0
H1669 H 0.18116 0.92561 0.67951 0.0
H1670 H 0.20554 0.92814 0.6505 0.0
H1671 H 0.30307 0.90671 0.65077 0.0
H1672 H 0.36468 0.93879 0.56655 0.0
H1673 H 0.34125 0.93583 0.59605 0.0
H1674 H 0.2447 0.91038 0.59503 0.0
C1675 C 0.21621 0.91665 0.66129 0.0
C1676 C 0.28987 0.90713 0.63877 0.0
C1677 C 0.20205 0.91528 0.67817 0.0
C1678 C 0.34425 0.9276 0.5676 0.0
C1679 C 0.33067 0.92574 0.58472 0.0
C1680 C 0.25799 0.90924 0.60698 0.0
C1681 C 0.24386 0.90431 0.6585 0.0
C1682 C 0.25935 0.90622 0.64021 0.0
C1683 C 0.30368 0.91183 0.58712 0.0
C1684 C 0.28849 0.91009 0.6055 0.0
H1685 H 0.25307 0.87805 0.70141 0.0
H1686 H 0.27733 0.87996 0.67224 0.0
H1687 H 0.22047 0.90643 0.62391 0.0
H1688 H 0.29394 0.8917 0.54313 0.0
H1689 H 0.27094 0.88815 0.57242 0.0
C1690 C 0.85044 0.59134 0.81829 0.0
C1691 C 0.86247 0.57848 0.80278 0.0
C1692 C 0.8521 0.57782 0.83543 0.0
C1693 C 0.86793 0.5052 0.85782 0.0
H1694 H 0.87107 0.55018 0.90153 0.0
C1695 C 0.8622 0.44966 0.92922 0.0
C1696 C 0.87642 0.46222 0.94408 0.0
C1697 C 0.86064 0.46374 0.9123 0.0
C1698 C 0.87048 0.537 0.88956 0.0
H1699 H 0.88611 0.54069 0.79394 0.0
H1700 H 0.88931 0.51777 0.82325 0.0
H1701 H 0.86851 0.57442 0.87246 0.0
H1702 H 0.9002 0.50026 0.95206 0.0
H1703 H 0.89795 0.52434 0.92288 0.0
H1704 H 0.87046 0.46781 0.87481 0.0
C1705 C 0.87801 0.53814 0.82233 0.0
C1706 C 0.86859 0.55112 0.87265 0.0
C1707 C 0.87637 0.55161 0.80528 0.0
C1708 C 0.88913 0.4895 0.94116 0.0
C1709 C 0.88754 0.50361 0.92425 0.0
C1710 C 0.86974 0.4911 0.8747 0.0
C1711 C 0.86581 0.55073 0.83788 0.0
C1712 C 0.86737 0.5356 0.8563 0.0
C1713 C 0.87314 0.49117 0.90936 0.0
C1714 C 0.87113 0.50658 0.89105 0.0
H1715 H 0.83941 0.61185 0.81719 0.0
H1716 H 0.84205 0.58851 0.84674 0.0
H1717 H 0.86662 0.49195 0.8459 0.0
H1718 H 0.8518 0.42893 0.93067 0.0
H1719 H 0.84892 0.45316 0.90161 0.0
C1720 C 0.80495 0.90134 0.1338 0.0
C1721 C 0.83156 0.91572 0.1363 0.0
C1722 C 0.79152 0.89944 0.11674 0.0
C1723 C 0.80449 0.90952 1.0664 0.0
H1724 H 0.72099 0.90552 1.06417 0.0
C1725 C 0.74346 0.88932 0.99761 0.0
C1726 C 0.71571 0.90135 0.99486 0.0
C1727 C 0.75754 0.89073 1.01455 0.0
C1728 C 0.74433 0.90685 1.0643 0.0
H1729 H 0.86452 0.93939 0.12188 0.0
H1730 H 0.84125 0.93638 1.09235 0.0
H1731 H 0.74498 0.90954 1.09311 0.0
H1732 H 0.68153 0.92449 1.00857 0.0
H1733 H 0.7057 0.92707 1.03764 0.0
H1734 H 0.80372 0.90753 1.0375 0.0
C1735 C 0.83073 0.9261 0.10364 0.0
C1736 C 0.75836 0.90876 1.0812 0.0
C1737 C 0.84421 0.92799 0.12079 0.0
C1738 C 0.70264 0.91463 1.0099 0.0
C1739 C 0.71669 0.91602 1.02682 0.0
C1740 C 0.79044 0.90757 1.04947 0.0
C1741 C 0.8039 0.91189 0.10118 0.0
C1742 C 0.78883 0.9101 1.08275 0.0
C1743 C 0.7446 0.90424 1.02961 0.0
C1744 C 0.75995 0.90618 1.04795 0.0
H1745 H 0.79421 0.8914 0.14515 0.0
H1746 H 0.77137 0.88776 0.11581 0.0
H1747 H 0.82786 0.91019 1.0666 0.0
H1748 H 0.75461 0.87898 0.98656 0.0
H1749 H 0.77866 0.88089 1.0158 0.0
C1750 C 0.35216 0.59188 0.86856 0.0
C1751 C 0.36322 0.57853 0.88421 0.0
C1752 C 0.35388 0.57836 0.85144 0.0
C1753 C 0.36734 0.50528 0.82927 0.0
H1754 H 0.3744 0.55009 0.7856 0.0
C1755 C 0.36072 0.45037 0.75789 0.0
C1756 C 0.37628 0.46193 0.74322 0.0
C1757 C 0.35947 0.46452 0.77476 0.0
C1758 C 0.37268 0.53696 0.79757 0.0
H1759 H 0.38515 0.53988 0.89334 0.0
H1760 H 0.3884 0.51693 0.86407 0.0
H1761 H 0.37187 0.57441 0.81464 0.0
H1762 H 0.40281 0.4983 0.73551 0.0
H1763 H 0.40101 0.52257 0.76466 0.0
H1764 H 0.36863 0.46784 0.81233 0.0
C1765 C 0.37786 0.53771 0.86486 0.0
C1766 C 0.37082 0.55113 0.81445 0.0
C1767 C 0.37619 0.55118 0.88188 0.0
C1768 C 0.39069 0.4883 0.74628 0.0
C1769 C 0.38937 0.50253 0.76315 0.0
C1770 C 0.36908 0.49114 0.81243 0.0
C1771 C 0.36664 0.5508 0.84916 0.0
C1772 C 0.3682 0.53566 0.83078 0.0
C1773 C 0.37362 0.49107 0.77784 0.0
C1774 C 0.37184 0.50655 0.7961 0.0
H1775 H 0.34187 0.61278 0.86953 0.0
H1776 H 0.34462 0.58945 0.84 0.0
H1777 H 0.36494 0.4921 0.84118 0.0
H1778 H 0.34899 0.43037 0.75633 0.0
H1779 H 0.34668 0.45475 0.78529 0.0
C1780 C 0.72128 0.12966 0.63185 0.0
C1781 C 0.69927 0.1094 0.63553 0.0
C1782 C 0.73452 0.13162 0.61472 0.0
C1783 C 0.74934 0.0898 0.57233 0.0
H1784 H 0.76866 0.16423 0.55205 0.0
C1785 C 0.82416 0.10189 0.50843 0.0
C1786 C 0.81683 0.12258 0.49523 0.0
C1787 C 0.80954 0.10044 0.52515 0.0
C1788 C 0.76344 0.14317 0.55738 0.0
H1789 H 0.67454 0.07504 0.62332 0.0
H1790 H 0.69791 0.078 0.59372 0.0
H1791 H 0.7439 0.16137 0.5811 0.0
H1792 H 0.78781 0.15829 0.49003 0.0
H1793 H 0.76308 0.15635 0.51918 0.0
H1794 H 0.76926 0.07159 0.54874 0.0
C1795 C 0.70484 0.09266 0.60416 0.0
C1796 C 0.74929 0.1415 0.57427 0.0
C1797 C 0.69117 0.09108 0.62124 0.0
C1798 C 0.79446 0.14209 0.49967 0.0
C1799 C 0.78018 0.14099 0.51655 0.0
C1800 C 0.76398 0.09146 0.55561 0.0
C1801 C 0.72683 0.11302 0.60049 0.0
C1802 C 0.74183 0.11478 0.58214 0.0
C1803 C 0.78718 0.11993 0.52963 0.0
C1804 C 0.77134 0.11819 0.5477 0.0
H1805 H 0.72842 0.14422 0.6423 0.0
H1806 H 0.75138 0.14745 0.61278 0.0
H1807 H 0.74436 0.06874 0.57775 0.0
H1808 H 0.841 0.08626 0.50576 0.0
H1809 H 0.81605 0.08404 0.53469 0.0
C1810 C 0.15505 0.47198 0.38099 0.0
C1811 C 0.17139 0.44654 0.38357 0.0
C1812 C 0.15301 0.48561 0.364 0.0
C1813 C 0.16536 0.47431 0.31389 0.0
H1814 H 0.15824 0.55738 0.31199 0.0
C1815 C 0.14302 0.53569 0.2455 0.0
C1816 C 0.15517 0.56327 0.24277 0.0
C1817 C 0.14465 0.5215 0.26239 0.0
C1818 C 0.1604 0.53417 0.31206 0.0
H1819 H 0.19836 0.41588 0.36941 0.0
H1820 H 0.19487 0.43944 0.33998 0.0
H1821 H 0.16252 0.53315 0.34091 0.0
H1822 H 0.17867 0.59708 0.25647 0.0
H1823 H 0.18138 0.57278 0.28552 0.0
H1824 H 0.16368 0.47544 0.28498 0.0
C1825 C 0.18329 0.44887 0.35116 0.0
C1826 C 0.16252 0.52003 0.32891 0.0
C1827 C 0.18545 0.43525 0.36824 0.0
C1828 C 0.16872 0.57609 0.25779 0.0
C1829 C 0.17021 0.562 0.27467 0.0
C1830 C 0.16308 0.48846 0.29702 0.0
C1831 C 0.16714 0.47452 0.34863 0.0
C1832 C 0.16505 0.48972 0.3303 0.0
C1833 C 0.1584 0.53423 0.27741 0.0
C1834 C 0.16058 0.51879 0.29566 0.0
H1835 H 0.14374 0.48164 0.3922 0.0
H1836 H 0.1399 0.50486 0.36295 0.0
H1837 H 0.16698 0.45106 0.31401 0.0
H1838 H 0.13252 0.52472 0.23446 0.0
H1839 H 0.13483 0.50046 0.26364 0.0
C1840 C 0.72002 0.6289 0.55703 0.0
C1841 C 0.70026 0.60661 0.55304 0.0
C1842 C 0.73349 0.63114 0.57409 0.0
C1843 C 0.75281 0.5883 0.61568 0.0
H1844 H 0.76658 0.66305 0.6371 0.0
C1845 C 0.82584 0.60223 0.68014 0.0
C1846 C 0.81755 0.6223 0.69347 0.0
C1847 C 0.81148 0.60061 0.66334 0.0
C1848 C 0.76292 0.64189 0.63146 0.0
H1849 H 0.67983 0.56898 0.56462 0.0
H1850 H 0.70344 0.57258 0.59404 0.0
H1851 H 0.74193 0.65963 0.60806 0.0
H1852 H 0.78703 0.65665 0.69881 0.0
H1853 H 0.7626 0.65433 0.66958 0.0
H1854 H 0.77398 0.57057 0.639 0.0
C1855 C 0.70853 0.58856 0.58392 0.0
C1856 C 0.74886 0.63992 0.61455 0.0
C1857 C 0.69469 0.58658 0.56693 0.0
C1858 C 0.79444 0.64098 0.68908 0.0
C1859 C 0.78034 0.63966 0.67214 0.0
C1860 C 0.76729 0.59031 0.63244 0.0
C1861 C 0.72826 0.61092 0.58793 0.0
C1862 C 0.74338 0.61306 0.60625 0.0
C1863 C 0.78833 0.61923 0.65891 0.0
C1864 C 0.77266 0.61715 0.64078 0.0
H1865 H 0.72519 0.64484 0.5469 0.0
H1866 H 0.74859 0.64857 0.57627 0.0
H1867 H 0.74945 0.56715 0.60995 0.0
H1868 H 0.84324 0.58721 0.68277 0.0
H1869 H 0.81881 0.58474 0.65371 0.0
C1870 C 0.18277 0.93558 0.81765 0.0
C1871 C 0.17071 0.94805 0.802 0.0
C1872 C 0.18072 0.94926 0.83469 0.0
C1873 C 0.16418 0.02172 0.85672 0.0
H1874 H 0.16007 0.97674 0.90048 0.0
C1875 C 0.17047 0.07668 0.92815 0.0
C1876 C 0.15564 0.06449 0.94292 0.0
C1877 C 0.17183 0.0627 0.91124 0.0
C1878 C 0.16095 0.9899 0.88848 0.0
H1879 H 0.14671 0.98539 0.79277 0.0
H1880 H 0.14296 1.00872 0.82198 0.0
H1881 H 0.163 0.95249 0.87145 0.0
H1882 H 0.13052 0.0272 0.95074 0.0
H1883 H 0.13253 1.00319 0.92152 0.0
H1884 H 0.1617 0.05911 0.87368 0.0
C1885 C 0.15447 0.98846 0.82121 0.0
C1886 C 0.16304 0.97579 0.87161 0.0
C1887 C 0.15645 0.97477 0.80424 0.0
C1888 C 0.14206 0.03768 0.9399 0.0
C1889 C 0.14351 0.02361 0.92299 0.0
C1890 C 0.16223 0.03581 0.87358 0.0
C1891 C 0.16662 0.97615 0.83691 0.0
C1892 C 0.16464 0.99132 0.85525 0.0
C1893 C 0.15854 0.03568 0.90821 0.0
C1894 C 0.16053 0.02031 0.88993 0.0
H1895 H 0.19406 0.91519 0.81676 0.0
H1896 H 0.19077 0.93882 0.8461 0.0
H1897 H 0.16571 0.03494 0.84477 0.0
H1898 H 0.18154 0.09705 0.92968 0.0
H1899 H 0.18402 0.07295 0.90061 0.0
C1900 C 0.81082 0.39625 1.05698 0.0
C1901 C 0.83265 0.41673 1.05335 0.0
C1902 C 0.79747 0.39419 1.07407 0.0
C1903 C 0.78194 0.43589 0.11644 0.0
H1904 H 0.76316 0.3613 0.13668 0.0
C1905 C 0.70706 0.42322 0.18032 0.0
C1906 C 0.71452 0.40257 0.19352 0.0
C1907 C 0.72168 0.42477 0.1636 0.0
C1908 C 0.76822 0.38241 0.13136 0.0
H1909 H 0.85691 0.45136 1.06561 0.0
H1910 H 0.83334 0.44821 0.09515 0.0
H1911 H 0.78803 0.36437 0.10768 0.0
H1912 H 0.74379 0.36707 0.19871 0.0
H1913 H 0.76851 0.36917 0.16956 0.0
H1914 H 0.76174 0.45393 0.14 0.0
C1915 C 0.82664 0.43346 1.0847 0.0
C1916 C 0.78243 0.3842 0.1145 0.0
C1917 C 0.84044 0.43516 1.06766 0.0
C1918 C 0.73703 0.38321 0.18907 0.0
C1919 C 0.7513 0.38441 0.17219 0.0
C1920 C 0.76722 0.43411 0.13314 0.0
C1921 C 0.80484 0.41288 1.08832 0.0
C1922 C 0.78972 0.41099 0.10664 0.0
C1923 C 0.74418 0.40543 0.15911 0.0
C1924 C 0.76006 0.40732 0.14104 0.0
H1925 H 0.80391 0.3816 1.04652 0.0
H1926 H 0.78076 0.37818 1.07597 0.0
H1927 H 0.78676 0.457 0.11104 0.0
H1928 H 0.69017 0.43878 0.18301 0.0
H1929 H 0.71508 0.44114 0.15407 0.0
C1930 C 0.36208 0.94927 0.42822 0.0
C1931 C 0.37623 0.96173 0.44314 0.0
C1932 C 0.36065 0.96342 0.41134 0.0
C1933 C 0.37056 0.03671 0.38876 0.0
H1934 H 0.36732 0.99177 0.34503 0.0
C1935 C 0.35048 0.09103 0.31753 0.0
C1936 C 0.36281 0.07837 0.30205 0.0
C1937 C 0.35216 0.07747 0.33466 0.0
C1938 C 0.36845 1.00498 0.35697 0.0
H1939 H 0.40004 0.99967 0.45127 0.0
H1940 H 0.398 0.02391 0.42212 0.0
H1941 H 0.37104 0.96756 0.37393 0.0
H1942 H 0.38698 0.04092 0.29322 0.0
H1943 H 0.39021 0.01792 0.32252 0.0
H1944 H 0.36852 0.07417 0.3717 0.0
C1945 C 0.38756 1.00319 0.42343 0.0
C1946 C 0.3702 0.99085 0.37384 0.0
C1947 C 0.38902 0.98899 0.44031 0.0
C1948 C 0.37702 0.05167 0.30455 0.0
C1949 C 0.37868 0.03816 0.32158 0.0
C1950 C 0.36873 0.05087 0.37186 0.0
C1951 C 0.37323 0.99084 0.40849 0.0
C1952 C 0.37135 1.00629 0.3902 0.0
C1953 C 0.36617 0.05055 0.33711 0.0
C1954 C 0.36773 0.03538 0.3555 0.0
H1955 H 0.35163 0.92855 0.4296 0.0
H1956 H 0.34898 0.95292 0.40059 0.0
H1957 H 0.37099 0.04984 0.40075 0.0
H1958 H 0.3392 0.1114 0.31643 0.0
H1959 H 0.34188 0.088 0.34594 0.0
C1960 C 0.31362 0.39595 0.62924 0.0
C1961 C 0.33294 0.41858 0.63334 0.0
C1962 C 0.30016 0.39368 0.61219 0.0
C1963 C 0.28003 0.43673 0.57082 0.0
H1964 H 0.26676 0.36198 0.54927 0.0
C1965 C 0.20654 0.42282 0.50666 0.0
C1966 C 0.21468 0.40282 0.49324 0.0
C1967 C 0.22108 0.42435 0.52339 0.0
C1968 C 0.27029 0.38314 0.55494 0.0
H1969 H 0.35264 0.45673 0.62195 0.0
H1970 H 0.32909 0.45304 0.59251 0.0
H1971 H 0.29169 0.36545 0.5782 0.0
H1972 H 0.24512 0.36848 0.4877 0.0
H1973 H 0.2699 0.37068 0.51683 0.0
H1974 H 0.25849 0.45441 0.54763 0.0
C1975 C 0.32431 0.43684 0.60255 0.0
C1976 C 0.28451 0.38515 0.57179 0.0
C1977 C 0.33813 0.43888 0.61955 0.0
C1978 C 0.23781 0.38409 0.4975 0.0
C1979 C 0.25212 0.38535 0.51438 0.0
C1980 C 0.26543 0.43469 0.55411 0.0
C1981 C 0.30498 0.41417 0.59844 0.0
C1982 C 0.28979 0.412 0.58015 0.0
C1983 C 0.2443 0.40575 0.52767 0.0
C1984 C 0.26021 0.40785 0.54573 0.0
H1985 H 0.30873 0.3798 0.6393 0.0
H1986 H 0.28536 0.37602 0.60994 0.0
H1987 H 0.28322 0.45787 0.57659 0.0
H1988 H 0.18908 0.43786 0.50414 0.0
H1989 H 0.21384 0.44017 0.53308 0.0
C1990 C 0.87682 0.05215 0.38371 0.0
C1991 C 0.86273 0.07891 0.38619 0.0
C1992 C 0.87844 0.03867 0.36668 0.0
C1993 C 0.86863 0.05148 0.31636 0.0
H1994 H 0.87069 0.96817 0.31439 0.0
C1995 C 0.88887 0.98952 0.24797 0.0
C1996 C 0.87605 0.96227 0.24518 0.0
C1997 C 0.88739 1.00375 0.26483 0.0
C1998 C 0.86992 0.99146 0.31445 0.0
H1999 H 0.83931 0.11209 0.37178 0.0
H2000 H 0.84193 0.08874 0.34226 0.0
H2001 H 0.86699 0.99237 0.34326 0.0
H2002 H 0.85137 0.92916 0.25877 0.0
H2003 H 0.8487 0.95357 0.28773 0.0
H2004 H 0.87095 0.05047 0.28747 0.0
C2005 C 0.85214 0.07814 0.35356 0.0
C2006 C 0.86818 1.00559 0.3313 0.0
C2007 C 0.85049 0.09166 0.37069 0.0
C2008 C 0.86185 0.94986 0.26012 0.0
C2009 C 0.86041 0.96404 0.27697 0.0
C2010 C 0.87045 0.03732 0.29948 0.0
C2011 C 0.86603 0.05115 0.35113 0.0
C2012 C 0.86755 0.03599 0.33275 0.0
C2013 C 0.87303 0.99144 0.27979 0.0
C2014 C 0.87116 1.0069 0.29806 0.0
H2015 H 0.88672 0.04131 0.39504 0.0
H2016 H 0.88988 0.01838 0.36576 0.0
H2017 H 0.86848 0.07478 0.31649 0.0
H2018 H 0.89992 1.00017 0.237 0.0
H2019 H 0.89786 0.02446 0.26611 0.0
C2020 C 0.22023 0.62935 0.12955 0.0
C2021 C 0.20031 0.60716 0.13348 0.0
C2022 C 0.23378 0.63161 0.11252 0.0
C2023 C 0.25331 0.58886 1.07108 0.0
H2024 H 0.26683 0.66359 1.04945 0.0
C2025 C 0.32689 0.60311 1.00688 0.0
C2026 C 0.31834 0.62284 0.99339 0.0
C2027 C 0.31244 0.60148 1.02364 0.0
C2028 C 0.26325 0.64244 1.05516 0.0
H2029 H 0.17966 0.56975 0.12184 0.0
H2030 H 0.20345 0.57334 1.09247 0.0
H2031 H 0.24201 0.66017 1.07844 0.0
H2032 H 0.28729 0.65662 0.98772 0.0
H2033 H 0.26274 0.65433 1.01691 0.0
H2034 H 0.27478 0.57114 1.04789 0.0
C2035 C 0.20858 0.58923 0.10261 0.0
C2036 C 0.24909 0.64047 1.07203 0.0
C2037 C 0.19464 0.58726 0.11957 0.0
C2038 C 0.2949 0.64121 0.99759 0.0
C2039 C 0.28073 0.63991 1.0145 0.0
C2040 C 0.26791 0.59087 1.05436 0.0
C2041 C 0.22847 0.61149 0.09866 0.0
C2042 C 0.24369 0.61362 1.08039 0.0
C2043 C 0.28896 0.61978 1.02787 0.0
C2044 C 0.27319 0.6177 1.04596 0.0
H2045 H 0.22547 0.64519 0.1397 0.0
H2046 H 0.249 0.64895 0.11036 0.0
H2047 H 0.25001 0.56772 1.07687 0.0
H2048 H 0.34458 0.58836 1.00441 0.0
H2049 H 0.31993 0.58586 1.0334 0.0
C2050 C 0.65663 0.97537 0.88402 0.0
C2051 C 0.67086 0.94864 0.88631 0.0
C2052 C 0.65474 0.98907 0.86702 0.0
C2053 C 0.66402 0.97641 0.81663 0.0
H2054 H 0.6614 0.05969 0.8144 0.0
C2055 C 0.64328 0.0375 0.74803 0.0
C2056 C 0.65594 0.06477 0.74504 0.0
C2057 C 0.64481 0.02356 0.76499 0.0
C2058 C 0.66232 0.03641 0.81454 0.0
H2059 H 0.69427 0.91579 0.87164 0.0
H2060 H 0.69121 0.93947 0.84228 0.0
H2061 H 0.66534 0.03561 0.84337 0.0
H2062 H 0.68035 0.09829 0.75838 0.0
H2063 H 0.68312 0.07434 0.78755 0.0
H2064 H 0.66161 0.97727 0.78776 0.0
C2065 C 0.68106 0.94989 0.85365 0.0
C2066 C 0.66421 0.02236 0.83144 0.0
C2067 C 0.68299 0.93618 0.8707 0.0
C2068 C 0.67001 0.07754 0.75989 0.0
C2069 C 0.67151 0.06363 0.77686 0.0
C2070 C 0.66204 0.99048 0.79972 0.0
C2071 C 0.66698 0.9768 0.85136 0.0
C2072 C 0.66509 0.99196 0.83298 0.0
C2073 C 0.6591 0.03618 0.77986 0.0
C2074 C 0.66114 0.02088 0.7982 0.0
H2075 H 0.64685 0.98597 0.89546 0.0
H2076 H 0.64322 1.00933 0.86622 0.0
H2077 H 0.66431 0.95312 0.81682 0.0
H2078 H 0.63229 0.0266 0.73715 0.0
H2079 H 0.63446 1.00281 0.76642 0.0
loop_
_geom_bond_atom_site_label_1
_geom_bond_atom_site_label_2
_geom_bond_distance
_geom_bond_site_symmetry_2
_ccdc_geom_bond_type
Eu0 C9 2.828 . S
Eu0 O11 2.392 . S
Eu0 O13 2.418 . S
Eu0 O18 2.373 . S
Eu0 O21 2.488 . S
Eu0 O22 2.471 . S
Eu0 O23 2.349 . S
Eu1 O10 2.373 . S
Eu1 O14 2.488 . S
Eu1 O15 2.471 . S
Eu1 O16 2.349 . S
Eu1 O19 2.392 . S
Eu1 O20 2.418 . S
Eu1 C30 2.828 . S
C2 O20 1.244 . S
C2 O23 1.265 . S
C3 C4 1.379 . S
C3 C7 1.373 . S
C3 C9 1.505 . S
C4 C3 1.379 . S
C4 C6 1.369 . S
C4 H32 0.930 . S
C5 C7 1.383 . S
C5 C8 1.382 . S
C5 H33 0.930 . S
C6 C4 1.369 . S
C6 C8 1.392 . S
C6 H34 0.930 . S
C7 C3 1.373 . S
C7 C5 1.383 . S
C7 H35 0.931 . S
C8 C5 1.382 . S
C8 C6 1.392 . S
C9 Eu0 2.828 . S
C9 C3 1.505 . S
C9 O21 1.249 . S
C9 O22 1.244 . S
O10 Eu1 2.373 . S
O10 C12 1.258 . S
O11 Eu0 2.392 . S
O11 C12 1.242 . S
C12 O10 1.258 . S
C12 O11 1.242 . S
O13 Eu0 2.418 . S
O13 C17 1.244 . S
O14 Eu1 2.488 . S
O14 C30 1.249 . S
O15 Eu1 2.471 . S
O15 C30 1.244 . S
O16 Eu1 2.349 . S
O16 C17 1.265 . S
C17 O13 1.244 . S
C17 O16 1.265 . S
O18 Eu0 2.373 . S
O18 C31 1.258 . S
O19 Eu1 2.392 . S
O19 C31 1.242 . S
O20 Eu1 2.418 . S
O20 C2 1.244 . S
O21 Eu0 2.488 . S
O21 C9 1.249 . S
O22 Eu0 2.471 . S
O22 C9 1.244 . S
O23 Eu0 2.349 . S
O23 C2 1.265 . S
C24 C25 1.379 . S
C24 C28 1.373 . S
C24 C30 1.505 . S
C25 C24 1.379 . S
C25 C27 1.369 . S
C25 H36 0.930 . S
C26 C28 1.383 . S
C26 C29 1.382 . S
C26 H37 0.930 1_545 S
C27 C25 1.369 . S
C27 C29 1.392 . S
C27 H38 0.930 . S
C28 C24 1.373 . S
C28 C26 1.383 . S
C28 H39 0.931 . S
C29 C26 1.382 . S
C29 C27 1.392 . S
C30 Eu1 2.828 . S
C30 O14 1.249 . S
C30 O15 1.244 . S
C30 C24 1.505 . S
C31 O18 1.258 . S
C31 O19 1.242 . S
H32 C4 0.930 . S
H33 C5 0.930 . S
H34 C6 0.930 . S
H35 C7 0.931 . S
H36 C25 0.930 . S
H37 C26 0.930 1_565 S
H38 C27 0.930 . S
H39 C28 0.931 . S
Eu40 C49 2.828 . S
Eu40 O51 2.392 . S
Eu40 O53 2.418 . S
Eu40 O58 2.373 . S
Eu40 O61 2.488 . S
Eu40 O62 2.471 . S
Eu40 O63 2.349 . S
Eu41 O50 2.373 . S
Eu41 O54 2.488 . S
Eu41 O55 2.471 . S
Eu41 O56 2.349 . S
Eu41 O59 2.392 . S
Eu41 O60 2.418 . S
Eu41 C70 2.828 . S
C42 O60 1.244 . S
C42 O63 1.265 . S
C43 C44 1.379 . S
C43 C47 1.373 . S
C43 C49 1.505 . S
C44 C43 1.379 . S
C44 C46 1.369 . S
C44 H72 0.930 . S
C45 C47 1.383 . S
C45 C48 1.382 . S
C45 H73 0.930 . S
C46 C44 1.369 . S
C46 C48 1.392 . S
C46 H74 0.930 . S
C47 C43 1.373 . S
C47 C45 1.383 . S
C47 H75 0.931 . S
C48 C45 1.382 . S
C48 C46 1.392 . S
C49 Eu40 2.828 . S
C49 C43 1.505 . S
C49 O61 1.249 . S
C49 O62 1.244 . S
O50 Eu41 2.373 . S
O50 C52 1.258 . S
O51 Eu40 2.392 . S
O51 C52 1.242 . S
C52 O50 1.258 . S
C52 O51 1.242 . S
O53 Eu40 2.418 . S
O53 C57 1.244 . S
O54 Eu41 2.488 . S
O54 C70 1.249 . S
O55 Eu41 2.471 . S
O55 C70 1.244 . S
O56 Eu41 2.349 . S
O56 C57 1.265 . S
C57 O53 1.244 . S
C57 O56 1.265 . S
O58 Eu40 2.373 . S
O58 C71 1.258 . S
O59 Eu41 2.392 . S
O59 C71 1.242 . S
O60 Eu41 2.418 . S
O60 C42 1.244 . S
O61 Eu40 2.488 . S
O61 C49 1.249 . S
O62 Eu40 2.471 . S
O62 C49 1.244 . S
O63 Eu40 2.349 . S
O63 C42 1.265 . S
C64 C65 1.379 . S
C64 C68 1.373 . S
C64 C70 1.505 . S
C65 C64 1.379 . S
C65 C67 1.369 . S
C65 H76 0.930 . S
C66 C68 1.383 . S
C66 C69 1.382 . S
C66 H77 0.930 . S
C67 C65 1.369 . S
C67 C69 1.392 . S
C67 H78 0.930 . S
C68 C64 1.373 . S
C68 C66 1.383 . S
C68 H79 0.931 . S
C69 C66 1.382 . S
C69 C67 1.392 . S
C70 Eu41 2.828 . S
C70 O54 1.249 . S
C70 O55 1.244 . S
C70 C64 1.505 . S
C71 O58 1.258 . S
C71 O59 1.242 . S
H72 C44 0.930 . S
H73 C45 0.930 . S
H74 C46 0.930 . S
H75 C47 0.931 . S
H76 C65 0.930 . S
H77 C66 0.930 . S
H78 C67 0.930 . S
H79 C68 0.931 . S
Eu80 C89 2.828 . S
Eu80 O91 2.392 . S
Eu80 O93 2.418 . S
Eu80 O98 2.373 . S
Eu80 O101 2.488 . S
Eu80 O102 2.471 . S
Eu80 O103 2.349 . S
Eu81 O90 2.373 . S
Eu81 O94 2.488 . S
Eu81 O95 2.471 . S
Eu81 O96 2.349 . S
Eu81 O99 2.392 . S
Eu81 O100 2.418 . S
Eu81 C110 2.828 . S
C82 O100 1.244 . S
C82 O103 1.265 . S
C83 C84 1.379 . S
C83 C87 1.373 . S
C83 C89 1.505 . S
C84 C83 1.379 . S
C84 C86 1.369 . S
C84 H112 0.930 . S
C85 C87 1.383 . S
C85 C88 1.382 . S
C85 H113 0.930 . S
C86 C84 1.369 . S
C86 C88 1.392 . S
C86 H114 0.930 . S
C87 C83 1.373 . S
C87 C85 1.383 . S
C87 H115 0.931 . S
C88 C85 1.382 . S
C88 C86 1.392 . S
C89 Eu80 2.828 . S
C89 C83 1.505 . S
C89 O101 1.249 . S
C89 O102 1.244 . S
O90 Eu81 2.373 . S
O90 C92 1.258 . S
O91 Eu80 2.392 . S
O91 C92 1.242 . S
C92 O90 1.258 . S
C92 O91 1.242 . S
O93 Eu80 2.418 . S
O93 C97 1.244 . S
O94 Eu81 2.488 . S
O94 C110 1.249 . S
O95 Eu81 2.471 . S
O95 C110 1.244 . S
O96 Eu81 2.349 . S
O96 C97 1.265 . S
C97 O93 1.244 . S
C97 O96 1.265 . S
O98 Eu80 2.373 . S
O98 C111 1.258 . S
O99 Eu81 2.392 . S
O99 C111 1.242 . S
O100 Eu81 2.418 . S
O100 C82 1.244 . S
O101 Eu80 2.488 . S
O101 C89 1.249 . S
O102 Eu80 2.471 . S
O102 C89 1.244 . S
O103 Eu80 2.349 . S
O103 C82 1.265 . S
C104 C105 1.379 . S
C104 C108 1.373 . S
C104 C110 1.505 . S
C105 C104 1.379 . S
C105 C107 1.369 . S
C105 H116 0.930 . S
C106 C108 1.383 . S
C106 C109 1.382 . S
C106 H117 0.930 1_565 S
C107 C105 1.369 . S
C107 C109 1.392 . S
C107 H118 0.930 . S
C108 C104 1.373 . S
C108 C106 1.383 . S
C108 H119 0.931 . S
C109 C106 1.382 . S
C109 C107 1.392 . S
C110 Eu81 2.828 . S
C110 O94 1.249 . S
C110 O95 1.244 . S
C110 C104 1.505 . S
C111 O98 1.258 . S
C111 O99 1.242 . S
H112 C84 0.930 . S
H113 C85 0.930 . S
H114 C86 0.930 . S
H115 C87 0.931 . S
H116 C105 0.930 . S
H117 C106 0.930 1_545 S
H118 C107 0.930 . S
H119 C108 0.931 . S
Eu120 C129 2.828 . S
Eu120 O131 2.392 . S
Eu120 O133 2.418 . S
Eu120 O138 2.373 . S
Eu120 O141 2.488 . S
Eu120 O142 2.471 . S
Eu120 O143 2.349 . S
Eu121 O130 2.373 . S
Eu121 O134 2.488 . S
Eu121 O135 2.471 . S
Eu121 O136 2.349 . S
Eu121 O139 2.392 . S
Eu121 O140 2.418 . S
Eu121 C150 2.828 . S
C122 O140 1.244 . S
C122 O143 1.265 . S
C123 C124 1.379 . S
C123 C127 1.373 1_655 S
C123 C129 1.505 . S
C124 C123 1.379 . S
C124 C126 1.369 . S
C124 H152 0.930 . S
C125 C127 1.383 . S
C125 C128 1.382 . S
C125 H153 0.930 . S
C126 C124 1.369 . S
C126 C128 1.392 1_655 S
C126 H154 0.930 . S
C127 C123 1.373 1_455 S
C127 C125 1.383 . S
C127 H155 0.931 . S
C128 C125 1.382 . S
C128 C126 1.392 1_455 S
C129 Eu120 2.828 . S
C129 C123 1.505 . S
C129 O141 1.249 . S
C129 O142 1.244 . S
O130 Eu121 2.373 . S
O130 C132 1.258 . S
O131 Eu120 2.392 . S
O131 C132 1.242 . S
C132 O130 1.258 . S
C132 O131 1.242 . S
O133 Eu120 2.418 . S
O133 C137 1.244 . S
O134 Eu121 2.488 . S
O134 C150 1.249 . S
O135 Eu121 2.471 . S
O135 C150 1.244 . S
O136 Eu121 2.349 . S
O136 C137 1.265 . S
C137 O133 1.244 . S
C137 O136 1.265 . S
O138 Eu120 2.373 . S
O138 C151 1.258 . S
O139 Eu121 2.392 . S
O139 C151 1.242 . S
O140 Eu121 2.418 . S
O140 C122 1.244 . S
O141 Eu120 2.488 . S
O141 C129 1.249 . S
O142 Eu120 2.471 . S
O142 C129 1.244 . S
O143 Eu120 2.349 . S
O143 C122 1.265 . S
C144 C145 1.379 . S
C144 C148 1.373 . S
C144 C150 1.505 . S
C145 C144 1.379 . S
C145 C147 1.369 . S
C145 H156 0.930 . S
C146 C148 1.383 . S
C146 C149 1.382 . S
C146 H157 0.930 . S
C147 C145 1.369 . S
C147 C149 1.392 . S
C147 H158 0.930 . S
C148 C144 1.373 . S
C148 C146 1.383 . S
C148 H159 0.931 . S
C149 C146 1.382 . S
C149 C147 1.392 . S
C150 Eu121 2.828 . S
C150 O134 1.249 . S
C150 O135 1.244 . S
C150 C144 1.505 . S
C151 O138 1.258 . S
C151 O139 1.242 . S
H152 C124 0.930 . S
H153 C125 0.930 . S
H154 C126 0.930 . S
H155 C127 0.931 . S
H156 C145 0.930 . S
H157 C146 0.930 . S
H158 C147 0.930 . S
H159 C148 0.931 . S
Eu160 C169 2.828 . S
Eu160 O171 2.392 . S
Eu160 O173 2.418 . S
Eu160 O178 2.373 . S
Eu160 O181 2.488 . S
Eu160 O182 2.471 . S
Eu160 O183 2.349 . S
Eu161 O170 2.373 . S
Eu161 O174 2.488 . S
Eu161 O175 2.471 . S
Eu161 O176 2.349 . S
Eu161 O179 2.392 . S
Eu161 O180 2.418 . S
Eu161 C190 2.828 . S
C162 O180 1.244 . S
C162 O183 1.265 . S
C163 C164 1.379 . S
C163 C167 1.373 . S
C163 C169 1.505 . S
C164 C163 1.379 . S
C164 C166 1.369 . S
C164 H192 0.930 . S
C165 C167 1.383 . S
C165 C168 1.382 . S
C165 H193 0.930 1_565 S
C166 C164 1.369 . S
C166 C168 1.392 . S
C166 H194 0.930 . S
C167 C163 1.373 . S
C167 C165 1.383 . S
C167 H195 0.931 . S
C168 C165 1.382 . S
C168 C166 1.392 . S
C169 Eu160 2.828 . S
C169 C163 1.505 . S
C169 O181 1.249 . S
C169 O182 1.244 . S
O170 Eu161 2.373 . S
O170 C172 1.258 . S
O171 Eu160 2.392 . S
O171 C172 1.242 . S
C172 O170 1.258 . S
C172 O171 1.242 . S
O173 Eu160 2.418 . S
O173 C177 1.244 . S
O174 Eu161 2.488 . S
O174 C190 1.249 . S
O175 Eu161 2.471 . S
O175 C190 1.244 . S
O176 Eu161 2.349 . S
O176 C177 1.265 . S
C177 O173 1.244 . S
C177 O176 1.265 . S
O178 Eu160 2.373 . S
O178 C191 1.258 . S
O179 Eu161 2.392 . S
O179 C191 1.242 . S
O180 Eu161 2.418 . S
O180 C162 1.244 . S
O181 Eu160 2.488 . S
O181 C169 1.249 . S
O182 Eu160 2.471 . S
O182 C169 1.244 . S
O183 Eu160 2.349 . S
O183 C162 1.265 . S
C184 C185 1.379 . S
C184 C188 1.373 . S
C184 C190 1.505 . S
C185 C184 1.379 . S
C185 C187 1.369 . S
C185 H196 0.930 . S
C186 C188 1.383 . S
C186 C189 1.382 . S
C186 H197 0.930 . S
C187 C185 1.369 . S
C187 C189 1.392 . S
C187 H198 0.930 . S
C188 C184 1.373 . S
C188 C186 1.383 . S
C188 H199 0.931 . S
C189 C186 1.382 . S
C189 C187 1.392 . S
C190 Eu161 2.828 . S
C190 O174 1.249 . S
C190 O175 1.244 . S
C190 C184 1.505 . S
C191 O178 1.258 . S
C191 O179 1.242 . S
H192 C164 0.930 . S
H193 C165 0.930 1_545 S
H194 C166 0.930 . S
H195 C167 0.931 . S
H196 C185 0.930 . S
H197 C186 0.930 . S
H198 C187 0.930 . S
H199 C188 0.931 . S
Eu200 C209 2.828 . S
Eu200 O211 2.392 . S
Eu200 O213 2.418 . S
Eu200 O218 2.373 . S
Eu200 O221 2.488 . S
Eu200 O222 2.471 . S
Eu200 O223 2.349 . S
Eu201 O210 2.373 . S
Eu201 O214 2.488 . S
Eu201 O215 2.471 . S
Eu201 O216 2.349 . S
Eu201 O219 2.392 . S
Eu201 O220 2.418 . S
Eu201 C230 2.828 . S
C202 O220 1.244 . S
C202 O223 1.265 . S
C203 C204 1.379 . S
C203 C207 1.373 . S
C203 C209 1.505 . S
C204 C203 1.379 . S
C204 C206 1.369 . S
C204 H232 0.930 . S
C205 C207 1.383 . S
C205 C208 1.382 . S
C205 H233 0.930 . S
C206 C204 1.369 . S
C206 C208 1.392 . S
C206 H234 0.930 . S
C207 C203 1.373 . S
C207 C205 1.383 . S
C207 H235 0.931 . S
C208 C205 1.382 . S
C208 C206 1.392 . S
C209 Eu200 2.828 . S
C209 C203 1.505 . S
C209 O221 1.249 . S
C209 O222 1.244 . S
O210 Eu201 2.373 . S
O210 C212 1.258 . S
O211 Eu200 2.392 . S
O211 C212 1.242 . S
C212 O210 1.258 . S
C212 O211 1.242 . S
O213 Eu200 2.418 . S
O213 C217 1.244 . S
O214 Eu201 2.488 . S
O214 C230 1.249 . S
O215 Eu201 2.471 . S
O215 C230 1.244 . S
O216 Eu201 2.349 . S
O216 C217 1.265 . S
C217 O213 1.244 . S
C217 O216 1.265 . S
O218 Eu200 2.373 . S
O218 C231 1.258 . S
O219 Eu201 2.392 . S
O219 C231 1.242 . S
O220 Eu201 2.418 . S
O220 C202 1.244 . S
O221 Eu200 2.488 . S
O221 C209 1.249 . S
O222 Eu200 2.471 . S
O222 C209 1.244 . S
O223 Eu200 2.349 . S
O223 C202 1.265 . S
C224 C225 1.379 . S
C224 C228 1.373 . S
C224 C230 1.505 . S
C225 C224 1.379 . S
C225 C227 1.369 . S
C225 H236 0.930 . S
C226 C228 1.383 . S
C226 C229 1.382 . S
C226 H237 0.930 . S
C227 C225 1.369 . S
C227 C229 1.392 . S
C227 H238 0.930 . S
C228 C224 1.373 . S
C228 C226 1.383 . S
C228 H239 0.931 . S
C229 C226 1.382 . S
C229 C227 1.392 . S
C230 Eu201 2.828 . S
C230 O214 1.249 . S
C230 O215 1.244 . S
C230 C224 1.505 . S
C231 O218 1.258 . S
C231 O219 1.242 . S
H232 C204 0.930 . S
H233 C205 0.930 . S
H234 C206 0.930 . S
H235 C207 0.931 . S
H236 C225 0.930 . S
H237 C226 0.930 . S
H238 C227 0.930 . S
H239 C228 0.931 . S
Eu240 C249 2.828 . S
Eu240 O251 2.392 . S
Eu240 O253 2.418 . S
Eu240 O258 2.373 . S
Eu240 O261 2.488 . S
Eu240 O262 2.471 . S
Eu240 O263 2.349 . S
Eu241 O250 2.373 . S
Eu241 O254 2.488 . S
Eu241 O255 2.471 . S
Eu241 O256 2.349 . S
Eu241 O259 2.392 . S
Eu241 O260 2.418 . S
Eu241 C270 2.828 . S
C242 O260 1.244 . S
C242 O263 1.265 . S
C243 C244 1.379 . S
C243 C247 1.373 . S
C243 C249 1.505 . S
C244 C243 1.379 . S
C244 C246 1.369 . S
C244 H272 0.930 . S
C245 C247 1.383 . S
C245 C248 1.382 . S
C245 H273 0.930 1_545 S
C246 C244 1.369 . S
C246 C248 1.392 . S
C246 H274 0.930 . S
C247 C243 1.373 . S
C247 C245 1.383 . S
C247 H275 0.931 . S
C248 C245 1.382 . S
C248 C246 1.392 . S
C249 Eu240 2.828 . S
C249 C243 1.505 . S
C249 O261 1.249 . S
C249 O262 1.244 . S
O250 Eu241 2.373 . S
O250 C252 1.258 . S
O251 Eu240 2.392 . S
O251 C252 1.242 . S
C252 O250 1.258 . S
C252 O251 1.242 . S
O253 Eu240 2.418 . S
O253 C257 1.244 . S
O254 Eu241 2.488 . S
O254 C270 1.249 . S
O255 Eu241 2.471 . S
O255 C270 1.244 . S
O256 Eu241 2.349 . S
O256 C257 1.265 . S
C257 O253 1.244 . S
C257 O256 1.265 . S
O258 Eu240 2.373 . S
O258 C271 1.258 . S
O259 Eu241 2.392 . S
O259 C271 1.242 . S
O260 Eu241 2.418 . S
O260 C242 1.244 . S
O261 Eu240 2.488 . S
O261 C249 1.249 . S
O262 Eu240 2.471 . S
O262 C249 1.244 . S
O263 Eu240 2.349 . S
O263 C242 1.265 . S
C264 C265 1.379 . S
C264 C268 1.373 . S
C264 C270 1.505 . S
C265 C264 1.379 . S
C265 C267 1.369 . S
C265 H276 0.930 . S
C266 C268 1.383 . S
C266 C269 1.382 . S
C266 H277 0.930 . S
C267 C265 1.369 . S
C267 C269 1.392 . S
C267 H278 0.930 . S
C268 C264 1.373 . S
C268 C266 1.383 . S
C268 H279 0.931 . S
C269 C266 1.382 . S
C269 C267 1.392 . S
C270 Eu241 2.828 . S
C270 O254 1.249 . S
C270 O255 1.244 . S
C270 C264 1.505 . S
C271 O258 1.258 . S
C271 O259 1.242 . S
H272 C244 0.930 . S
H273 C245 0.930 1_565 S
H274 C246 0.930 . S
H275 C247 0.931 . S
H276 C265 0.930 . S
H277 C266 0.930 . S
H278 C267 0.930 . S
H279 C268 0.931 . S
Eu280 C289 2.828 . S
Eu280 O291 2.392 . S
Eu280 O293 2.418 . S
Eu280 O298 2.373 . S
Eu280 O301 2.488 . S
Eu280 O302 2.471 . S
Eu280 O303 2.349 . S
Eu281 O290 2.373 . S
Eu281 O294 2.488 . S
Eu281 O295 2.471 . S
Eu281 O296 2.349 . S
Eu281 O299 2.392 . S
Eu281 O300 2.418 . S
Eu281 C310 2.828 . S
C282 O300 1.244 . S
C282 O303 1.265 . S
C283 C284 1.379 . S
C283 C287 1.373 . S
C283 C289 1.505 . S
C284 C283 1.379 . S
C284 C286 1.369 . S
C284 H312 0.930 . S
C285 C287 1.383 . S
C285 C288 1.382 . S
C285 H313 0.930 . S
C286 C284 1.369 . S
C286 C288 1.392 . S
C286 H314 0.930 . S
C287 C283 1.373 . S
C287 C285 1.383 . S
C287 H315 0.931 . S
C288 C285 1.382 . S
C288 C286 1.392 . S
C289 Eu280 2.828 . S
C289 C283 1.505 . S
C289 O301 1.249 . S
C289 O302 1.244 . S
O290 Eu281 2.373 . S
O290 C292 1.258 . S
O291 Eu280 2.392 . S
O291 C292 1.242 . S
C292 O290 1.258 . S
C292 O291 1.242 . S
O293 Eu280 2.418 . S
O293 C297 1.244 . S
O294 Eu281 2.488 . S
O294 C310 1.249 . S
O295 Eu281 2.471 . S
O295 C310 1.244 . S
O296 Eu281 2.349 . S
O296 C297 1.265 . S
C297 O293 1.244 . S
C297 O296 1.265 . S
O298 Eu280 2.373 . S
O298 C311 1.258 . S
O299 Eu281 2.392 . S
O299 C311 1.242 . S
O300 Eu281 2.418 . S
O300 C282 1.244 . S
O301 Eu280 2.488 . S
O301 C289 1.249 . S
O302 Eu280 2.471 . S
O302 C289 1.244 . S
O303 Eu280 2.349 . S
O303 C282 1.265 . S
C304 C305 1.379 . S
C304 C308 1.373 1_455 S
C304 C310 1.505 . S
C305 C304 1.379 . S
C305 C307 1.369 . S
C305 H316 0.930 . S
C306 C308 1.383 . S
C306 C309 1.382 . S
C306 H317 0.930 . S
C307 C305 1.369 . S
C307 C309 1.392 1_455 S
C307 H318 0.930 . S
C308 C304 1.373 1_655 S
C308 C306 1.383 . S
C308 H319 0.931 . S
C309 C306 1.382 . S
C309 C307 1.392 1_655 S
C310 Eu281 2.828 . S
C310 O294 1.249 . S
C310 O295 1.244 . S
C310 C304 1.505 . S
C311 O298 1.258 . S
C311 O299 1.242 . S
H312 C284 0.930 . S
H313 C285 0.930 . S
H314 C286 0.930 . S
H315 C287 0.931 . S
H316 C305 0.930 . S
H317 C306 0.930 . S
H318 C307 0.930 . S
H319 C308 0.931 . S
Eu320 C329 2.828 . S
Eu320 O331 2.392 . S
Eu320 O333 2.418 . S
Eu320 O338 2.373 . S
Eu320 O341 2.488 . S
Eu320 O342 2.471 . S
Eu320 O343 2.349 . S
Eu321 O330 2.373 . S
Eu321 O334 2.488 . S
Eu321 O335 2.471 . S
Eu321 O336 2.349 . S
Eu321 O339 2.392 . S
Eu321 O340 2.418 . S
Eu321 C350 2.828 . S
C322 O340 1.244 . S
C322 O343 1.265 . S
C323 C324 1.379 . S
C323 C327 1.373 . S
C323 C329 1.505 . S
C324 C323 1.379 . S
C324 C326 1.369 . S
C324 H352 0.930 . S
C325 C327 1.383 . S
C325 C328 1.382 . S
C325 H353 0.930 . S
C326 C324 1.369 . S
C326 C328 1.392 . S
C326 H354 0.930 . S
C327 C323 1.373 . S
C327 C325 1.383 . S
C327 H355 0.931 . S
C328 C325 1.382 . S
C328 C326 1.392 . S
C329 Eu320 2.828 . S
C329 C323 1.505 . S
C329 O341 1.249 . S
C329 O342 1.244 . S
O330 Eu321 2.373 . S
O330 C332 1.258 . S
O331 Eu320 2.392 . S
O331 C332 1.242 . S
C332 O330 1.258 . S
C332 O331 1.242 . S
O333 Eu320 2.418 . S
O333 C337 1.244 . S
O334 Eu321 2.488 . S
O334 C350 1.249 . S
O335 Eu321 2.471 . S
O335 C350 1.244 . S
O336 Eu321 2.349 . S
O336 C337 1.265 . S
C337 O333 1.244 . S
C337 O336 1.265 . S
O338 Eu320 2.373 . S
O338 C351 1.258 . S
O339 Eu321 2.392 . S
O339 C351 1.242 . S
O340 Eu321 2.418 . S
O340 C322 1.244 . S
O341 Eu320 2.488 . S
O341 C329 1.249 . S
O342 Eu320 2.471 . S
O342 C329 1.244 . S
O343 Eu320 2.349 . S
O343 C322 1.265 . S
C344 C345 1.379 . S
C344 C348 1.373 . S
C344 C350 1.505 . S
C345 C344 1.379 . S
C345 C347 1.369 . S
C345 H356 0.930 . S
C346 C348 1.383 . S
C346 C349 1.382 . S
C346 H357 0.930 . S
C347 C345 1.369 . S
C347 C349 1.392 . S
C347 H358 0.930 . S
C348 C344 1.373 . S
C348 C346 1.383 . S
C348 H359 0.931 . S
C349 C346 1.382 . S
C349 C347 1.392 . S
C350 Eu321 2.828 . S
C350 O334 1.249 . S
C350 O335 1.244 . S
C350 C344 1.505 . S
C351 O338 1.258 . S
C351 O339 1.242 . S
H352 C324 0.930 . S
H353 C325 0.930 . S
H354 C326 0.930 . S
H355 C327 0.931 . S
H356 C345 0.930 . S
H357 C346 0.930 . S
H358 C347 0.930 . S
H359 C348 0.931 . S
Eu360 C369 2.828 . S
Eu360 O371 2.392 . S
Eu360 O373 2.418 . S
Eu360 O378 2.373 . S
Eu360 O381 2.488 . S
Eu360 O382 2.471 . S
Eu360 O383 2.349 . S
Eu361 O370 2.373 . S
Eu361 O374 2.488 . S
Eu361 O375 2.471 . S
Eu361 O376 2.349 . S
Eu361 O379 2.392 . S
Eu361 O380 2.418 . S
Eu361 C390 2.828 . S
C362 O380 1.244 . S
C362 O383 1.265 . S
C363 C364 1.377 1_545 S
C363 C367 1.374 1_455 S
C363 C369 1.506 . S
C364 C363 1.377 1_565 S
C364 C366 1.369 . S
C364 H392 0.930 . S
C365 C367 1.383 1_565 S
C365 C368 1.382 . S
C365 H393 0.934 . S
C366 C364 1.369 . S
C366 C368 1.392 1_455 S
C366 H394 0.930 . S
C367 C363 1.374 1_655 S
C367 C365 1.383 1_545 S
C367 H395 0.931 . S
C368 C365 1.382 . S
C368 C366 1.392 1_655 S
C369 Eu360 2.828 . S
C369 C363 1.506 . S
C369 O381 1.249 . S
C369 O382 1.244 . S
O370 Eu361 2.373 . S
O370 C372 1.258 . S
O371 Eu360 2.392 . S
O371 C372 1.242 . S
C372 O370 1.258 . S
C372 O371 1.242 . S
O373 Eu360 2.418 . S
O373 C377 1.244 . S
O374 Eu361 2.488 . S
O374 C390 1.249 . S
O375 Eu361 2.471 . S
O375 C390 1.244 . S
O376 Eu361 2.349 . S
O376 C377 1.265 . S
C377 O373 1.244 . S
C377 O376 1.265 . S
O378 Eu360 2.373 . S
O378 C391 1.258 . S
O379 Eu361 2.392 . S
O379 C391 1.242 . S
O380 Eu361 2.418 . S
O380 C362 1.244 . S
O381 Eu360 2.488 . S
O381 C369 1.249 . S
O382 Eu360 2.471 . S
O382 C369 1.244 . S
O383 Eu360 2.349 . S
O383 C362 1.265 . S
C384 C385 1.379 . S
C384 C388 1.373 . S
C384 C390 1.505 . S
C385 C384 1.379 . S
C385 C387 1.369 . S
C385 H396 0.930 . S
C386 C388 1.383 . S
C386 C389 1.382 . S
C386 H397 0.930 . S
C387 C385 1.369 . S
C387 C389 1.392 . S
C387 H398 0.930 . S
C388 C384 1.373 . S
C388 C386 1.383 . S
C388 H399 0.931 . S
C389 C386 1.382 . S
C389 C387 1.392 . S
C390 Eu361 2.828 . S
C390 O374 1.249 . S
C390 O375 1.244 . S
C390 C384 1.505 . S
C391 O378 1.258 . S
C391 O379 1.242 . S
H392 C364 0.930 . S
H393 C365 0.934 . S
H394 C366 0.930 . S
H395 C367 0.931 . S
H396 C385 0.930 . S
H397 C386 0.930 . S
H398 C387 0.930 . S
H399 C388 0.931 . S
Eu400 C409 2.828 . S
Eu400 O411 2.392 . S
Eu400 O413 2.418 . S
Eu400 O418 2.373 . S
Eu400 O421 2.488 . S
Eu400 O422 2.471 . S
Eu400 O423 2.349 . S
Eu401 O410 2.373 . S
Eu401 O414 2.488 . S
Eu401 O415 2.471 . S
Eu401 O416 2.349 . S
Eu401 O419 2.392 . S
Eu401 O420 2.418 . S
Eu401 C430 2.828 . S
C402 O420 1.244 . S
C402 O423 1.265 . S
C403 C404 1.379 . S
C403 C407 1.373 . S
C403 C409 1.505 . S
C404 C403 1.379 . S
C404 C406 1.369 . S
C404 H432 0.930 . S
C405 C407 1.383 . S
C405 C408 1.382 . S
C405 H433 0.930 . S
C406 C404 1.369 . S
C406 C408 1.392 . S
C406 H434 0.930 . S
C407 C403 1.373 . S
C407 C405 1.383 . S
C407 H435 0.931 . S
C408 C405 1.382 . S
C408 C406 1.392 . S
C409 Eu400 2.828 . S
C409 C403 1.505 . S
C409 O421 1.249 . S
C409 O422 1.244 . S
O410 Eu401 2.373 . S
O410 C412 1.258 . S
O411 Eu400 2.392 . S
O411 C412 1.242 . S
C412 O410 1.258 . S
C412 O411 1.242 . S
O413 Eu400 2.418 . S
O413 C417 1.244 . S
O414 Eu401 2.488 . S
O414 C430 1.249 . S
O415 Eu401 2.471 . S
O415 C430 1.244 . S
O416 Eu401 2.349 . S
O416 C417 1.265 . S
C417 O413 1.244 . S
C417 O416 1.265 . S
O418 Eu400 2.373 . S
O418 C431 1.258 . S
O419 Eu401 2.392 . S
O419 C431 1.242 . S
O420 Eu401 2.418 . S
O420 C402 1.244 . S
O421 Eu400 2.488 . S
O421 C409 1.249 . S
O422 Eu400 2.471 . S
O422 C409 1.244 . S
O423 Eu400 2.349 . S
O423 C402 1.265 . S
C424 C425 1.379 . S
C424 C428 1.373 . S
C424 C430 1.505 . S
C425 C424 1.379 . S
C425 C427 1.369 . S
C425 H436 0.930 . S
C426 C428 1.383 . S
C426 C429 1.382 . S
C426 H437 0.930 . S
C427 C425 1.369 . S
C427 C429 1.392 . S
C427 H438 0.930 . S
C428 C424 1.373 . S
C428 C426 1.383 . S
C428 H439 0.931 . S
C429 C426 1.382 . S
C429 C427 1.392 . S
C430 Eu401 2.828 . S
C430 O414 1.249 . S
C430 O415 1.244 . S
C430 C424 1.505 . S
C431 O418 1.258 . S
C431 O419 1.242 . S
H432 C404 0.930 . S
H433 C405 0.930 . S
H434 C406 0.930 . S
H435 C407 0.931 . S
H436 C425 0.930 . S
H437 C426 0.930 . S
H438 C427 0.930 . S
H439 C428 0.931 . S
Eu440 C449 2.828 . S
Eu440 O451 2.392 . S
Eu440 O453 2.418 . S
Eu440 O458 2.373 . S
Eu440 O461 2.488 . S
Eu440 O462 2.471 . S
Eu440 O463 2.349 . S
Eu441 O450 2.373 . S
Eu441 O454 2.488 . S
Eu441 O455 2.471 . S
Eu441 O456 2.349 . S
Eu441 O459 2.392 . S
Eu441 O460 2.418 . S
Eu441 C470 2.828 . S
C442 O460 1.244 . S
C442 O463 1.265 . S
C443 C444 1.377 1_565 S
C443 C447 1.374 . S
C443 C449 1.506 . S
C444 C443 1.377 1_545 S
C444 C446 1.369 . S
C444 H472 0.930 . S
C445 C447 1.383 1_545 S
C445 C448 1.382 . S
C445 H473 0.934 . S
C446 C444 1.369 . S
C446 C448 1.392 . S
C446 H474 0.930 . S
C447 C443 1.374 . S
C447 C445 1.383 1_565 S
C447 H475 0.931 . S
C448 C445 1.382 . S
C448 C446 1.392 . S
C449 Eu440 2.828 . S
C449 C443 1.506 . S
C449 O461 1.249 . S
C449 O462 1.244 . S
O450 Eu441 2.373 . S
O450 C452 1.258 . S
O451 Eu440 2.392 . S
O451 C452 1.242 . S
C452 O450 1.258 . S
C452 O451 1.242 . S
O453 Eu440 2.418 . S
O453 C457 1.244 . S
O454 Eu441 2.488 . S
O454 C470 1.249 . S
O455 Eu441 2.471 . S
O455 C470 1.244 . S
O456 Eu441 2.349 . S
O456 C457 1.265 . S
C457 O453 1.244 . S
C457 O456 1.265 . S
O458 Eu440 2.373 . S
O458 C471 1.258 . S
O459 Eu441 2.392 . S
O459 C471 1.242 . S
O460 Eu441 2.418 . S
O460 C442 1.244 . S
O461 Eu440 2.488 . S
O461 C449 1.249 . S
O462 Eu440 2.471 . S
O462 C449 1.244 . S
O463 Eu440 2.349 . S
O463 C442 1.265 . S
C464 C465 1.379 . S
C464 C468 1.373 . S
C464 C470 1.505 . S
C465 C464 1.379 . S
C465 C467 1.369 . S
C465 H476 0.930 . S
C466 C468 1.383 . S
C466 C469 1.382 . S
C466 H477 0.930 . S
C467 C465 1.369 . S
C467 C469 1.392 . S
C467 H478 0.930 . S
C468 C464 1.373 . S
C468 C466 1.383 . S
C468 H479 0.931 . S
C469 C466 1.382 . S
C469 C467 1.392 . S
C470 Eu441 2.828 . S
C470 O454 1.249 . S
C470 O455 1.244 . S
C470 C464 1.505 . S
C471 O458 1.258 . S
C471 O459 1.242 . S
H472 C444 0.930 . S
H473 C445 0.934 . S
H474 C446 0.930 . S
H475 C447 0.931 . S
H476 C465 0.930 . S
H477 C466 0.930 . S
H478 C467 0.930 . S
H479 C468 0.931 . S
Eu480 C489 2.828 . S
Eu480 O491 2.392 . S
Eu480 O493 2.418 . S
Eu480 O498 2.373 . S
Eu480 O501 2.488 . S
Eu480 O502 2.471 . S
Eu480 O503 2.349 . S
Eu481 O490 2.373 . S
Eu481 O494 2.488 . S
Eu481 O495 2.471 . S
Eu481 O496 2.349 . S
Eu481 O499 2.392 . S
Eu481 O500 2.418 . S
Eu481 C510 2.828 . S
C482 O500 1.244 . S
C482 O503 1.265 . S
C483 C484 1.379 . S
C483 C487 1.373 . S
C483 C489 1.505 . S
C484 C483 1.379 . S
C484 C486 1.369 . S
C484 H512 0.930 . S
C485 C487 1.383 . S
C485 C488 1.382 . S
C485 H513 0.930 . S
C486 C484 1.369 . S
C486 C488 1.392 . S
C486 H514 0.930 . S
C487 C483 1.373 . S
C487 C485 1.383 . S
C487 H515 0.931 . S
C488 C485 1.382 . S
C488 C486 1.392 . S
C489 Eu480 2.828 . S
C489 C483 1.505 . S
C489 O501 1.249 . S
C489 O502 1.244 . S
O490 Eu481 2.373 . S
O490 C492 1.258 . S
O491 Eu480 2.392 . S
O491 C492 1.242 . S
C492 O490 1.258 . S
C492 O491 1.242 . S
O493 Eu480 2.418 . S
O493 C497 1.244 . S
O494 Eu481 2.488 . S
O494 C510 1.249 . S
O495 Eu481 2.471 . S
O495 C510 1.244 . S
O496 Eu481 2.349 . S
O496 C497 1.265 . S
C497 O493 1.244 . S
C497 O496 1.265 . S
O498 Eu480 2.373 . S
O498 C511 1.258 . S
O499 Eu481 2.392 . S
O499 C511 1.242 . S
O500 Eu481 2.418 . S
O500 C482 1.244 . S
O501 Eu480 2.488 . S
O501 C489 1.249 . S
O502 Eu480 2.471 . S
O502 C489 1.244 . S
O503 Eu480 2.349 . S
O503 C482 1.265 . S
C504 C505 1.379 . S
C504 C508 1.373 . S
C504 C510 1.505 . S
C505 C504 1.379 . S
C505 C507 1.369 . S
C505 H516 0.930 . S
C506 C508 1.383 . S
C506 C509 1.382 . S
C506 H517 0.930 . S
C507 C505 1.369 . S
C507 C509 1.392 . S
C507 H518 0.930 . S
C508 C504 1.373 . S
C508 C506 1.383 . S
C508 H519 0.931 . S
C509 C506 1.382 . S
C509 C507 1.392 . S
C510 Eu481 2.828 . S
C510 O494 1.249 . S
C510 O495 1.244 . S
C510 C504 1.505 . S
C511 O498 1.258 . S
C511 O499 1.242 . S
H512 C484 0.930 . S
H513 C485 0.930 . S
H514 C486 0.930 . S
H515 C487 0.931 . S
H516 C505 0.930 . S
H517 C506 0.930 . S
H518 C507 0.930 . S
H519 C508 0.931 . S
Eu520 C529 2.828 . S
Eu520 O531 2.392 . S
Eu520 O533 2.418 . S
Eu520 O538 2.373 . S
Eu520 O541 2.488 . S
Eu520 O542 2.471 . S
Eu520 O543 2.349 . S
Eu521 O530 2.373 . S
Eu521 O534 2.488 . S
Eu521 O535 2.471 . S
Eu521 O536 2.349 . S
Eu521 O539 2.392 . S
Eu521 O540 2.418 . S
Eu521 C550 2.828 . S
C522 O540 1.244 . S
C522 O543 1.265 . S
C523 C524 1.379 . S
C523 C527 1.373 . S
C523 C529 1.505 . S
C524 C523 1.379 . S
C524 C526 1.369 . S
C524 H552 0.930 . S
C525 C527 1.383 . S
C525 C528 1.382 . S
C525 H553 0.930 . S
C526 C524 1.369 . S
C526 C528 1.392 . S
C526 H554 0.930 . S
C527 C523 1.373 . S
C527 C525 1.383 . S
C527 H555 0.931 . S
C528 C525 1.382 . S
C528 C526 1.392 . S
C529 Eu520 2.828 . S
C529 C523 1.505 . S
C529 O541 1.249 . S
C529 O542 1.244 . S
O530 Eu521 2.373 . S
O530 C532 1.258 . S
O531 Eu520 2.392 . S
O531 C532 1.242 . S
C532 O530 1.258 . S
C532 O531 1.242 . S
O533 Eu520 2.418 . S
O533 C537 1.244 . S
O534 Eu521 2.488 . S
O534 C550 1.249 . S
O535 Eu521 2.471 . S
O535 C550 1.244 . S
O536 Eu521 2.349 . S
O536 C537 1.265 . S
C537 O533 1.244 . S
C537 O536 1.265 . S
O538 Eu520 2.373 . S
O538 C551 1.258 . S
O539 Eu521 2.392 . S
O539 C551 1.242 . S
O540 Eu521 2.418 . S
O540 C522 1.244 . S
O541 Eu520 2.488 . S
O541 C529 1.249 . S
O542 Eu520 2.471 . S
O542 C529 1.244 . S
O543 Eu520 2.349 . S
O543 C522 1.265 . S
C544 C545 1.377 1_565 S
C544 C548 1.374 1_655 S
C544 C550 1.506 . S
C545 C544 1.377 1_545 S
C545 C547 1.369 . S
C545 H556 0.930 . S
C546 C548 1.383 1_545 S
C546 C549 1.382 . S
C546 H557 0.934 . S
C547 C545 1.369 . S
C547 C549 1.392 1_655 S
C547 H558 0.930 . S
C548 C544 1.374 1_455 S
C548 C546 1.383 1_565 S
C548 H559 0.931 . S
C549 C546 1.382 . S
C549 C547 1.392 1_455 S
C550 Eu521 2.828 . S
C550 O534 1.249 . S
C550 O535 1.244 . S
C550 C544 1.506 . S
C551 O538 1.258 . S
C551 O539 1.242 . S
H552 C524 0.930 . S
H553 C525 0.930 . S
H554 C526 0.930 . S
H555 C527 0.931 . S
H556 C545 0.930 . S
H557 C546 0.934 . S
H558 C547 0.930 . S
H559 C548 0.931 . S
Eu560 C569 2.828 . S
Eu560 O571 2.392 . S
Eu560 O573 2.418 . S
Eu560 O578 2.373 . S
Eu560 O581 2.488 . S
Eu560 O582 2.471 . S
Eu560 O583 2.349 . S
Eu561 O570 2.373 . S
Eu561 O574 2.488 . S
Eu561 O575 2.471 . S
Eu561 O576 2.349 . S
Eu561 O579 2.392 . S
Eu561 O580 2.418 . S
Eu561 C590 2.828 . S
C562 O580 1.244 . S
C562 O583 1.265 . S
C563 C564 1.379 . S
C563 C567 1.373 . S
C563 C569 1.505 . S
C564 C563 1.379 . S
C564 C566 1.369 . S
C564 H592 0.930 . S
C565 C567 1.383 . S
C565 C568 1.382 . S
C565 H593 0.930 . S
C566 C564 1.369 . S
C566 C568 1.392 . S
C566 H594 0.930 . S
C567 C563 1.373 . S
C567 C565 1.383 . S
C567 H595 0.931 . S
C568 C565 1.382 . S
C568 C566 1.392 . S
C569 Eu560 2.828 . S
C569 C563 1.505 . S
C569 O581 1.249 . S
C569 O582 1.244 . S
O570 Eu561 2.373 . S
O570 C572 1.258 . S
O571 Eu560 2.392 . S
O571 C572 1.242 . S
C572 O570 1.258 . S
C572 O571 1.242 . S
O573 Eu560 2.418 . S
O573 C577 1.244 . S
O574 Eu561 2.488 . S
O574 C590 1.249 . S
O575 Eu561 2.471 . S
O575 C590 1.244 . S
O576 Eu561 2.349 . S
O576 C577 1.265 . S
C577 O573 1.244 . S
C577 O576 1.265 . S
O578 Eu560 2.373 . S
O578 C591 1.258 . S
O579 Eu561 2.392 . S
O579 C591 1.242 . S
O580 Eu561 2.418 . S
O580 C562 1.244 . S
O581 Eu560 2.488 . S
O581 C569 1.249 . S
O582 Eu560 2.471 . S
O582 C569 1.244 . S
O583 Eu560 2.349 . S
O583 C562 1.265 . S
C584 C585 1.379 . S
C584 C588 1.373 . S
C584 C590 1.505 . S
C585 C584 1.379 . S
C585 C587 1.369 . S
C585 H596 0.930 . S
C586 C588 1.383 . S
C586 C589 1.382 . S
C586 H597 0.930 . S
C587 C585 1.369 . S
C587 C589 1.392 . S
C587 H598 0.930 . S
C588 C584 1.373 . S
C588 C586 1.383 . S
C588 H599 0.931 . S
C589 C586 1.382 . S
C589 C587 1.392 . S
C590 Eu561 2.828 . S
C590 O574 1.249 . S
C590 O575 1.244 . S
C590 C584 1.505 . S
C591 O578 1.258 . S
C591 O579 1.242 . S
H592 C564 0.930 . S
H593 C565 0.930 . S
H594 C566 0.930 . S
H595 C567 0.931 . S
H596 C585 0.930 . S
H597 C586 0.930 . S
H598 C587 0.930 . S
H599 C588 0.931 . S
Eu600 C609 2.828 . S
Eu600 O611 2.392 . S
Eu600 O613 2.418 . S
Eu600 O618 2.373 . S
Eu600 O621 2.488 . S
Eu600 O622 2.471 . S
Eu600 O623 2.349 . S
Eu601 O610 2.373 . S
Eu601 O614 2.488 . S
Eu601 O615 2.471 . S
Eu601 O616 2.349 . S
Eu601 O619 2.392 . S
Eu601 O620 2.418 . S
Eu601 C630 2.828 . S
C602 O620 1.244 . S
C602 O623 1.265 . S
C603 C604 1.379 . S
C603 C607 1.373 . S
C603 C609 1.505 . S
C604 C603 1.379 . S
C604 C606 1.369 . S
C604 H632 0.930 . S
C605 C607 1.383 . S
C605 C608 1.382 . S
C605 H633 0.930 . S
C606 C604 1.369 . S
C606 C608 1.392 . S
C606 H634 0.930 . S
C607 C603 1.373 . S
C607 C605 1.383 . S
C607 H635 0.931 . S
C608 C605 1.382 . S
C608 C606 1.392 . S
C609 Eu600 2.828 . S
C609 C603 1.505 . S
C609 O621 1.249 . S
C609 O622 1.244 . S
O610 Eu601 2.373 . S
O610 C612 1.258 . S
O611 Eu600 2.392 . S
O611 C612 1.242 . S
C612 O610 1.258 . S
C612 O611 1.242 . S
O613 Eu600 2.418 . S
O613 C617 1.244 . S
O614 Eu601 2.488 . S
O614 C630 1.249 . S
O615 Eu601 2.471 . S
O615 C630 1.244 . S
O616 Eu601 2.349 . S
O616 C617 1.265 . S
C617 O613 1.244 . S
C617 O616 1.265 . S
O618 Eu600 2.373 . S
O618 C631 1.258 . S
O619 Eu601 2.392 . S
O619 C631 1.242 . S
O620 Eu601 2.418 . S
O620 C602 1.244 . S
O621 Eu600 2.488 . S
O621 C609 1.249 . S
O622 Eu600 2.471 . S
O622 C609 1.244 . S
O623 Eu600 2.349 . S
O623 C602 1.265 . S
C624 C625 1.377 1_545 S
C624 C628 1.374 . S
C624 C630 1.506 . S
C625 C624 1.377 1_565 S
C625 C627 1.369 . S
C625 H636 0.930 . S
C626 C628 1.383 1_565 S
C626 C629 1.382 . S
C626 H637 0.934 . S
C627 C625 1.369 . S
C627 C629 1.392 . S
C627 H638 0.930 . S
C628 C624 1.374 . S
C628 C626 1.383 1_545 S
C628 H639 0.931 . S
C629 C626 1.382 . S
C629 C627 1.392 . S
C630 Eu601 2.828 . S
C630 O614 1.249 . S
C630 O615 1.244 . S
C630 C624 1.506 . S
C631 O618 1.258 . S
C631 O619 1.242 . S
H632 C604 0.930 . S
H633 C605 0.930 . S
H634 C606 0.930 . S
H635 C607 0.931 . S
H636 C625 0.930 . S
H637 C626 0.934 . S
H638 C627 0.930 . S
H639 C628 0.931 . S
C640 C641 1.349 . S
C640 C642 1.327 . S
C640 H665 0.950 . S
C641 C640 1.349 . S
C641 C657 1.349 . S
C642 C640 1.327 . S
C642 C661 1.429 . S
C642 H666 0.950 . S
C643 C660 1.574 . S
C643 C662 1.368 . S
C643 H667 0.949 . S
H644 C648 0.949 . S
C645 C646 1.349 . S
C645 C647 1.327 . S
C645 H668 0.950 . S
C646 C645 1.349 . S
C646 C658 1.349 . S
C647 C645 1.327 . S
C647 C663 1.429 . S
C647 H669 0.950 . S
C648 H644 0.949 . S
C648 C656 1.574 . S
C648 C664 1.368 . S
H649 C657 0.950 . S
H650 C655 0.950 . S
H651 C656 0.949 . S
H652 C658 0.950 . S
H653 C659 0.950 . S
H654 C660 0.949 . S
C655 H650 0.950 . S
C655 C657 1.327 . S
C655 C661 1.429 . S
C656 C648 1.574 . S
C656 H651 0.949 . S
C656 C662 1.368 . S
C657 C641 1.349 . S
C657 H649 0.950 . S
C657 C655 1.327 . S
C658 C646 1.349 . S
C658 H652 0.950 . S
C658 C659 1.327 . S
C659 H653 0.950 . S
C659 C658 1.327 . S
C659 C663 1.429 . S
C660 C643 1.574 . S
C660 H654 0.949 . S
C660 C664 1.368 . S
C661 C642 1.429 . S
C661 C655 1.429 . S
C661 C662 1.523 . S
C662 C643 1.368 . S
C662 C656 1.368 . S
C662 C661 1.523 . S
C663 C647 1.429 . S
C663 C659 1.429 . S
C663 C664 1.523 . S
C664 C648 1.368 . S
C664 C660 1.368 . S
C664 C663 1.523 . S
H665 C640 0.950 . S
H666 C642 0.950 . S
H667 C643 0.949 . S
H668 C645 0.950 . S
H669 C647 0.950 . S
C670 C671 1.349 . S
C670 C672 1.327 . S
C670 H695 0.950 . S
C671 C670 1.349 . S
C671 C687 1.349 . S
C672 C670 1.327 . S
C672 C691 1.429 . S
C672 H696 0.950 . S
C673 C690 1.574 . S
C673 C692 1.368 . S
C673 H697 0.949 . S
H674 C678 0.949 . S
C675 C676 1.349 . S
C675 C677 1.327 . S
C675 H698 0.950 . S
C676 C675 1.349 . S
C676 C688 1.349 . S
C677 C675 1.327 . S
C677 C693 1.429 . S
C677 H699 0.950 . S
C678 H674 0.949 . S
C678 C686 1.574 . S
C678 C694 1.368 . S
H679 C687 0.950 . S
H680 C685 0.950 . S
H681 C686 0.949 . S
H682 C688 0.950 . S
H683 C689 0.950 . S
H684 C690 0.949 . S
C685 H680 0.950 . S
C685 C687 1.327 . S
C685 C691 1.429 . S
C686 C678 1.574 . S
C686 H681 0.949 . S
C686 C692 1.368 . S
C687 C671 1.349 . S
C687 H679 0.950 . S
C687 C685 1.327 . S
C688 C676 1.349 . S
C688 H682 0.950 . S
C688 C689 1.327 . S
C689 H683 0.950 . S
C689 C688 1.327 . S
C689 C693 1.429 . S
C690 C673 1.574 . S
C690 H684 0.949 . S
C690 C694 1.368 . S
C691 C672 1.429 . S
C691 C685 1.429 . S
C691 C692 1.523 . S
C692 C673 1.368 . S
C692 C686 1.368 . S
C692 C691 1.523 . S
C693 C677 1.429 . S
C693 C689 1.429 . S
C693 C694 1.523 . S
C694 C678 1.368 . S
C694 C690 1.368 . S
C694 C693 1.523 . S
H695 C670 0.950 . S
H696 C672 0.950 . S
H697 C673 0.949 . S
H698 C675 0.950 . S
H699 C677 0.950 . S
C700 C701 1.349 . S
C700 C702 1.327 . S
C700 H725 0.950 . S
C701 C700 1.349 . S
C701 C717 1.349 . S
C702 C700 1.327 . S
C702 C721 1.429 . S
C702 H726 0.950 . S
C703 C720 1.574 1_455 S
C703 C722 1.368 . S
C703 H727 0.949 . S
H704 C708 0.949 . S
C705 C706 1.349 . S
C705 C707 1.327 . S
C705 H728 0.950 . S
C706 C705 1.349 . S
C706 C718 1.349 . S
C707 C705 1.327 . S
C707 C723 1.429 . S
C707 H729 0.950 . S
C708 H704 0.949 . S
C708 C716 1.574 1_655 S
C708 C724 1.368 . S
H709 C717 0.950 . S
H710 C715 0.950 . S
H711 C716 0.949 . S
H712 C718 0.950 . S
H713 C719 0.950 . S
H714 C720 0.949 . S
C715 H710 0.950 . S
C715 C717 1.327 . S
C715 C721 1.429 . S
C716 C708 1.574 1_455 S
C716 H711 0.949 . S
C716 C722 1.368 . S
C717 C701 1.349 . S
C717 H709 0.950 . S
C717 C715 1.327 . S
C718 C706 1.349 . S
C718 H712 0.950 . S
C718 C719 1.327 . S
C719 H713 0.950 . S
C719 C718 1.327 . S
C719 C723 1.429 . S
C720 C703 1.574 1_655 S
C720 H714 0.949 . S
C720 C724 1.368 . S
C721 C702 1.429 . S
C721 C715 1.429 . S
C721 C722 1.523 . S
C722 C703 1.368 . S
C722 C716 1.368 . S
C722 C721 1.523 . S
C723 C707 1.429 . S
C723 C719 1.429 . S
C723 C724 1.523 . S
C724 C708 1.368 . S
C724 C720 1.368 . S
C724 C723 1.523 . S
H725 C700 0.950 . S
H726 C702 0.950 . S
H727 C703 0.949 . S
H728 C705 0.950 . S
H729 C707 0.950 . S
C730 C731 1.349 . S
C730 C732 1.327 . S
C730 H755 0.950 . S
C731 C730 1.349 . S
C731 C747 1.349 . S
C732 C730 1.327 . S
C732 C751 1.429 . S
C732 H756 0.950 . S
C733 C750 1.574 . S
C733 C752 1.368 . S
C733 H757 0.949 . S
H734 C738 0.949 . S
C735 C736 1.349 . S
C735 C737 1.327 . S
C735 H758 0.950 . S
C736 C735 1.349 . S
C736 C748 1.349 . S
C737 C735 1.327 . S
C737 C753 1.429 . S
C737 H759 0.950 . S
C738 H734 0.949 . S
C738 C746 1.574 . S
C738 C754 1.368 . S
H739 C747 0.950 . S
H740 C745 0.950 . S
H741 C746 0.949 . S
H742 C748 0.950 . S
H743 C749 0.950 . S
H744 C750 0.949 . S
C745 H740 0.950 . S
C745 C747 1.327 . S
C745 C751 1.429 . S
C746 C738 1.574 . S
C746 H741 0.949 . S
C746 C752 1.368 1_655 S
C747 C731 1.349 . S
C747 H739 0.950 . S
C747 C745 1.327 . S
C748 C736 1.349 . S
C748 H742 0.950 . S
C748 C749 1.327 . S
C749 H743 0.950 . S
C749 C748 1.327 . S
C749 C753 1.429 . S
C750 C733 1.574 . S
C750 H744 0.949 . S
C750 C754 1.368 1_455 S
C751 C732 1.429 . S
C751 C745 1.429 . S
C751 C752 1.523 . S
C752 C733 1.368 . S
C752 C746 1.368 1_455 S
C752 C751 1.523 . S
C753 C737 1.429 . S
C753 C749 1.429 . S
C753 C754 1.523 . S
C754 C738 1.368 . S
C754 C750 1.368 1_655 S
C754 C753 1.523 . S
H755 C730 0.950 . S
H756 C732 0.950 . S
H757 C733 0.949 . S
H758 C735 0.950 . S
H759 C737 0.950 . S
C760 C761 1.349 . S
C760 C762 1.327 . S
C760 H785 0.950 . S
C761 C760 1.349 . S
C761 C777 1.349 . S
C762 C760 1.327 . S
C762 C781 1.429 . S
C762 H786 0.950 . S
C763 C780 1.574 . S
C763 C782 1.368 . S
C763 H787 0.949 . S
H764 C768 0.949 . S
C765 C766 1.349 . S
C765 C767 1.327 . S
C765 H788 0.950 . S
C766 C765 1.349 . S
C766 C778 1.349 . S
C767 C765 1.327 . S
C767 C783 1.429 . S
C767 H789 0.950 . S
C768 H764 0.949 . S
C768 C776 1.574 . S
C768 C784 1.368 . S
H769 C777 0.950 . S
H770 C775 0.950 . S
H771 C776 0.949 . S
H772 C778 0.950 . S
H773 C779 0.950 . S
H774 C780 0.949 . S
C775 H770 0.950 . S
C775 C777 1.327 . S
C775 C781 1.429 . S
C776 C768 1.574 . S
C776 H771 0.949 . S
C776 C782 1.368 . S
C777 C761 1.349 . S
C777 H769 0.950 . S
C777 C775 1.327 . S
C778 C766 1.349 . S
C778 H772 0.950 . S
C778 C779 1.327 . S
C779 H773 0.950 . S
C779 C778 1.327 . S
C779 C783 1.429 . S
C780 C763 1.574 . S
C780 H774 0.949 . S
C780 C784 1.368 . S
C781 C762 1.429 . S
C781 C775 1.429 . S
C781 C782 1.523 . S
C782 C763 1.368 . S
C782 C776 1.368 . S
C782 C781 1.523 . S
C783 C767 1.429 . S
C783 C779 1.429 . S
C783 C784 1.523 . S
C784 C768 1.368 . S
C784 C780 1.368 . S
C784 C783 1.523 . S
H785 C760 0.950 . S
H786 C762 0.950 . S
H787 C763 0.949 . S
H788 C765 0.950 . S
H789 C767 0.950 . S
C790 C791 1.349 . S
C790 C792 1.327 . S
C790 H815 0.950 . S
C791 C790 1.349 . S
C791 C807 1.349 . S
C792 C790 1.327 . S
C792 C811 1.429 . S
C792 H816 0.950 . S
C793 C810 1.574 . S
C793 C812 1.368 . S
C793 H817 0.949 . S
H794 C798 0.949 . S
C795 C796 1.349 . S
C795 C797 1.327 . S
C795 H818 0.950 . S
C796 C795 1.349 . S
C796 C808 1.349 . S
C797 C795 1.327 . S
C797 C813 1.429 . S
C797 H819 0.950 . S
C798 H794 0.949 . S
C798 C806 1.574 . S
C798 C814 1.368 . S
H799 C807 0.950 . S
H800 C805 0.950 . S
H801 C806 0.949 . S
H802 C808 0.950 . S
H803 C809 0.950 . S
H804 C810 0.949 . S
C805 H800 0.950 . S
C805 C807 1.327 . S
C805 C811 1.429 . S
C806 C798 1.574 . S
C806 H801 0.949 . S
C806 C812 1.368 . S
C807 C791 1.349 . S
C807 H799 0.950 . S
C807 C805 1.327 . S
C808 C796 1.349 . S
C808 H802 0.950 . S
C808 C809 1.327 . S
C809 H803 0.950 . S
C809 C808 1.327 . S
C809 C813 1.429 . S
C810 C793 1.574 . S
C810 H804 0.949 . S
C810 C814 1.368 . S
C811 C792 1.429 . S
C811 C805 1.429 . S
C811 C812 1.523 . S
C812 C793 1.368 . S
C812 C806 1.368 . S
C812 C811 1.523 . S
C813 C797 1.429 . S
C813 C809 1.429 . S
C813 C814 1.523 . S
C814 C798 1.368 . S
C814 C810 1.368 . S
C814 C813 1.523 . S
H815 C790 0.950 . S
H816 C792 0.950 . S
H817 C793 0.949 . S
H818 C795 0.950 . S
H819 C797 0.950 . S
C820 C821 1.349 . S
C820 C822 1.327 . S
C820 H845 0.950 . S
C821 C820 1.349 . S
C821 C837 1.349 . S
C822 C820 1.327 . S
C822 C841 1.429 . S
C822 H846 0.950 . S
C823 C840 1.574 1_455 S
C823 C842 1.368 . S
C823 H847 0.949 . S
H824 C828 0.949 . S
C825 C826 1.349 . S
C825 C827 1.327 . S
C825 H848 0.950 . S
C826 C825 1.349 . S
C826 C838 1.349 . S
C827 C825 1.327 . S
C827 C843 1.429 . S
C827 H849 0.950 . S
C828 H824 0.949 . S
C828 C836 1.574 1_655 S
C828 C844 1.368 . S
H829 C837 0.950 . S
H830 C835 0.950 . S
H831 C836 0.949 . S
H832 C838 0.950 . S
H833 C839 0.950 . S
H834 C840 0.949 . S
C835 H830 0.950 . S
C835 C837 1.327 . S
C835 C841 1.429 . S
C836 C828 1.574 1_455 S
C836 H831 0.949 . S
C836 C842 1.368 . S
C837 C821 1.349 . S
C837 H829 0.950 . S
C837 C835 1.327 . S
C838 C826 1.349 . S
C838 H832 0.950 . S
C838 C839 1.327 . S
C839 H833 0.950 . S
C839 C838 1.327 . S
C839 C843 1.429 . S
C840 C823 1.574 1_655 S
C840 H834 0.949 . S
C840 C844 1.368 . S
C841 C822 1.429 . S
C841 C835 1.429 . S
C841 C842 1.523 . S
C842 C823 1.368 . S
C842 C836 1.368 . S
C842 C841 1.523 . S
C843 C827 1.429 . S
C843 C839 1.429 . S
C843 C844 1.523 . S
C844 C828 1.368 . S
C844 C840 1.368 . S
C844 C843 1.523 . S
H845 C820 0.950 . S
H846 C822 0.950 . S
H847 C823 0.949 . S
H848 C825 0.950 . S
H849 C827 0.950 . S
C850 C851 1.349 . S
C850 C852 1.327 . S
C850 H875 0.950 . S
C851 C850 1.349 . S
C851 C867 1.349 . S
C852 C850 1.327 . S
C852 C871 1.429 . S
C852 H876 0.950 . S
C853 C870 1.574 . S
C853 C872 1.368 1_655 S
C853 H877 0.949 . S
H854 C858 0.949 . S
C855 C856 1.349 . S
C855 C857 1.327 . S
C855 H878 0.950 . S
C856 C855 1.349 . S
C856 C868 1.349 . S
C857 C855 1.327 . S
C857 C873 1.429 . S
C857 H879 0.950 . S
C858 H854 0.949 . S
C858 C866 1.574 . S
C858 C874 1.368 1_455 S
H859 C867 0.950 . S
H860 C865 0.950 . S
H861 C866 0.949 . S
H862 C868 0.950 . S
H863 C869 0.950 . S
H864 C870 0.949 . S
C865 H860 0.950 . S
C865 C867 1.327 . S
C865 C871 1.429 . S
C866 C858 1.574 . S
C866 H861 0.949 . S
C866 C872 1.368 . S
C867 C851 1.349 . S
C867 H859 0.950 . S
C867 C865 1.327 . S
C868 C856 1.349 . S
C868 H862 0.950 . S
C868 C869 1.327 . S
C869 H863 0.950 . S
C869 C868 1.327 . S
C869 C873 1.429 . S
C870 C853 1.574 . S
C870 H864 0.949 . S
C870 C874 1.368 . S
C871 C852 1.429 . S
C871 C865 1.429 . S
C871 C872 1.523 . S
C872 C853 1.368 1_455 S
C872 C866 1.368 . S
C872 C871 1.523 . S
C873 C857 1.429 . S
C873 C869 1.429 . S
C873 C874 1.523 . S
C874 C858 1.368 1_655 S
C874 C870 1.368 . S
C874 C873 1.523 . S
H875 C850 0.950 . S
H876 C852 0.950 . S
H877 C853 0.949 . S
H878 C855 0.950 . S
H879 C857 0.950 . S
C880 C881 1.349 1_565 S
C880 C882 1.327 . S
C880 H905 0.950 . S
C881 C880 1.349 1_545 S
C881 C897 1.349 . S
C882 C880 1.327 . S
C882 C901 1.429 1_565 S
C882 H906 0.950 . S
C883 C900 1.574 1_554 S
C883 C902 1.368 . S
C883 H907 0.949 . S
H884 C888 0.949 . S
C885 C886 1.349 1_545 S
C885 C887 1.327 . S
C885 H908 0.950 . S
C886 C885 1.349 1_565 S
C886 C898 1.349 . S
C887 C885 1.327 . S
C887 C903 1.429 1_545 S
C887 H909 0.950 . S
C888 H884 0.949 . S
C888 C896 1.574 1_556 S
C888 C904 1.368 . S
H889 C897 0.950 . S
H890 C895 0.950 . S
H891 C896 0.949 . S
H892 C898 0.950 . S
H893 C899 0.950 . S
H894 C900 0.949 . S
C895 H890 0.950 . S
C895 C897 1.327 . S
C895 C901 1.429 . S
C896 C888 1.574 1_554 S
C896 H891 0.949 . S
C896 C902 1.368 1_565 S
C897 C881 1.349 . S
C897 H889 0.950 . S
C897 C895 1.327 . S
C898 C886 1.349 . S
C898 H892 0.950 . S
C898 C899 1.327 . S
C899 H893 0.950 . S
C899 C898 1.327 . S
C899 C903 1.429 . S
C900 C883 1.574 1_556 S
C900 H894 0.949 . S
C900 C904 1.368 1_545 S
C901 C882 1.429 1_545 S
C901 C895 1.429 . S
C901 C902 1.523 . S
C902 C883 1.368 . S
C902 C896 1.368 1_545 S
C902 C901 1.523 . S
C903 C887 1.429 1_565 S
C903 C899 1.429 . S
C903 C904 1.523 . S
C904 C888 1.368 . S
C904 C900 1.368 1_565 S
C904 C903 1.523 . S
H905 C880 0.950 . S
H906 C882 0.950 . S
H907 C883 0.949 . S
H908 C885 0.950 . S
H909 C887 0.950 . S
C910 C911 1.349 . S
C910 C912 1.327 . S
C910 H935 0.950 . S
C911 C910 1.349 . S
C911 C927 1.349 . S
C912 C910 1.327 . S
C912 C931 1.429 . S
C912 H936 0.950 . S
C913 C930 1.574 . S
C913 C932 1.368 . S
C913 H937 0.949 . S
H914 C918 0.949 . S
C915 C916 1.349 . S
C915 C917 1.327 . S
C915 H938 0.950 . S
C916 C915 1.349 . S
C916 C928 1.349 . S
C917 C915 1.327 . S
C917 C933 1.429 . S
C917 H939 0.950 . S
C918 H914 0.949 . S
C918 C926 1.574 . S
C918 C934 1.368 . S
H919 C927 0.950 . S
H920 C925 0.950 . S
H921 C926 0.949 . S
H922 C928 0.950 . S
H923 C929 0.950 . S
H924 C930 0.949 . S
C925 H920 0.950 . S
C925 C927 1.327 . S
C925 C931 1.429 . S
C926 C918 1.574 . S
C926 H921 0.949 . S
C926 C932 1.368 . S
C927 C911 1.349 . S
C927 H919 0.950 . S
C927 C925 1.327 . S
C928 C916 1.349 . S
C928 H922 0.950 . S
C928 C929 1.327 . S
C929 H923 0.950 . S
C929 C928 1.327 . S
C929 C933 1.429 . S
C930 C913 1.574 . S
C930 H924 0.949 . S
C930 C934 1.368 . S
C931 C912 1.429 . S
C931 C925 1.429 . S
C931 C932 1.523 . S
C932 C913 1.368 . S
C932 C926 1.368 . S
C932 C931 1.523 . S
C933 C917 1.429 . S
C933 C929 1.429 . S
C933 C934 1.523 . S
C934 C918 1.368 . S
C934 C930 1.368 . S
C934 C933 1.523 . S
H935 C910 0.950 . S
H936 C912 0.950 . S
H937 C913 0.949 . S
H938 C915 0.950 . S
H939 C917 0.950 . S
C940 C941 1.349 1_545 S
C940 C942 1.327 . S
C940 H965 0.950 . S
C941 C940 1.349 1_565 S
C941 C957 1.349 . S
C942 C940 1.327 . S
C942 C961 1.429 1_545 S
C942 H966 0.950 . S
C943 C960 1.574 1_455 S
C943 C962 1.368 . S
C943 H967 0.949 . S
H944 C948 0.949 . S
C945 C946 1.349 1_565 S
C945 C947 1.327 . S
C945 H968 0.950 . S
C946 C945 1.349 1_545 S
C946 C958 1.349 . S
C947 C945 1.327 . S
C947 C963 1.429 1_565 S
C947 H969 0.950 . S
C948 H944 0.949 . S
C948 C956 1.574 1_655 S
C948 C964 1.368 . S
H949 C957 0.950 . S
H950 C955 0.950 . S
H951 C956 0.949 . S
H952 C958 0.950 . S
H953 C959 0.950 . S
H954 C960 0.949 . S
C955 H950 0.950 . S
C955 C957 1.327 . S
C955 C961 1.429 . S
C956 C948 1.574 1_455 S
C956 H951 0.949 . S
C956 C962 1.368 1_545 S
C957 C941 1.349 . S
C957 H949 0.950 . S
C957 C955 1.327 . S
C958 C946 1.349 . S
C958 H952 0.950 . S
C958 C959 1.327 . S
C959 H953 0.950 . S
C959 C958 1.327 . S
C959 C963 1.429 . S
C960 C943 1.574 1_655 S
C960 H954 0.949 . S
C960 C964 1.368 1_565 S
C961 C942 1.429 1_565 S
C961 C955 1.429 . S
C961 C962 1.523 . S
C962 C943 1.368 . S
C962 C956 1.368 1_565 S
C962 C961 1.523 . S
C963 C947 1.429 1_545 S
C963 C959 1.429 . S
C963 C964 1.523 . S
C964 C948 1.368 . S
C964 C960 1.368 1_545 S
C964 C963 1.523 . S
H965 C940 0.950 . S
H966 C942 0.950 . S
H967 C943 0.949 . S
H968 C945 0.950 . S
H969 C947 0.950 . S
C970 C971 1.349 . S
C970 C972 1.327 . S
C970 H995 0.950 . S
C971 C970 1.349 . S
C971 C987 1.349 . S
C972 C970 1.327 . S
C972 C991 1.429 . S
C972 H996 0.950 . S
C973 C990 1.574 . S
C973 C992 1.368 . S
C973 H997 0.949 . S
H974 C978 0.949 . S
C975 C976 1.349 . S
C975 C977 1.327 . S
C975 H998 0.950 . S
C976 C975 1.349 . S
C976 C988 1.349 . S
C977 C975 1.327 . S
C977 C993 1.429 . S
C977 H999 0.950 . S
C978 H974 0.949 . S
C978 C986 1.574 . S
C978 C994 1.368 . S
H979 C987 0.950 . S
H980 C985 0.950 . S
H981 C986 0.949 . S
H982 C988 0.950 . S
H983 C989 0.950 . S
H984 C990 0.949 . S
C985 H980 0.950 . S
C985 C987 1.327 . S
C985 C991 1.429 . S
C986 C978 1.574 . S
C986 H981 0.949 . S
C986 C992 1.368 . S
C987 C971 1.349 . S
C987 H979 0.950 . S
C987 C985 1.327 . S
C988 C976 1.349 . S
C988 H982 0.950 . S
C988 C989 1.327 . S
C989 H983 0.950 . S
C989 C988 1.327 . S
C989 C993 1.429 . S
C990 C973 1.574 . S
C990 H984 0.949 . S
C990 C994 1.368 . S
C991 C972 1.429 . S
C991 C985 1.429 . S
C991 C992 1.523 . S
C992 C973 1.368 . S
C992 C986 1.368 . S
C992 C991 1.523 . S
C993 C977 1.429 . S
C993 C989 1.429 . S
C993 C994 1.523 . S
C994 C978 1.368 . S
C994 C990 1.368 . S
C994 C993 1.523 . S
H995 C970 0.950 . S
H996 C972 0.950 . S
H997 C973 0.949 . S
H998 C975 0.950 . S
H999 C977 0.950 . S
C1000 C1001 1.349 . S
C1000 C1002 1.327 . S
C1000 H1025 0.950 . S
C1001 C1000 1.349 . S
C1001 C1017 1.349 . S
C1002 C1000 1.327 . S
C1002 C1021 1.429 . S
C1002 H1026 0.950 . S
C1003 C1020 1.574 . S
C1003 C1022 1.368 . S
C1003 H1027 0.949 . S
H1004 C1008 0.949 . S
C1005 C1006 1.349 . S
C1005 C1007 1.327 . S
C1005 H1028 0.950 . S
C1006 C1005 1.349 . S
C1006 C1018 1.349 . S
C1007 C1005 1.327 . S
C1007 C1023 1.429 . S
C1007 H1029 0.950 . S
C1008 H1004 0.949 . S
C1008 C1016 1.574 . S
C1008 C1024 1.368 . S
H1009 C1017 0.950 . S
H1010 C1015 0.950 . S
H1011 C1016 0.949 . S
H1012 C1018 0.950 . S
H1013 C1019 0.950 . S
H1014 C1020 0.949 . S
C1015 H1010 0.950 . S
C1015 C1017 1.327 . S
C1015 C1021 1.429 . S
C1016 C1008 1.574 . S
C1016 H1011 0.949 . S
C1016 C1022 1.368 . S
C1017 C1001 1.349 . S
C1017 H1009 0.950 . S
C1017 C1015 1.327 . S
C1018 C1006 1.349 . S
C1018 H1012 0.950 . S
C1018 C1019 1.327 . S
C1019 H1013 0.950 . S
C1019 C1018 1.327 . S
C1019 C1023 1.429 . S
C1020 C1003 1.574 . S
C1020 H1014 0.949 . S
C1020 C1024 1.368 . S
C1021 C1002 1.429 . S
C1021 C1015 1.429 . S
C1021 C1022 1.523 . S
C1022 C1003 1.368 . S
C1022 C1016 1.368 . S
C1022 C1021 1.523 . S
C1023 C1007 1.429 . S
C1023 C1019 1.429 . S
C1023 C1024 1.523 . S
C1024 C1008 1.368 . S
C1024 C1020 1.368 . S
C1024 C1023 1.523 . S
H1025 C1000 0.950 . S
H1026 C1002 0.950 . S
H1027 C1003 0.949 . S
H1028 C1005 0.950 . S
H1029 C1007 0.950 . S
C1030 C1031 1.349 . S
C1030 C1032 1.327 . S
C1030 H1055 0.950 . S
C1031 C1030 1.349 . S
C1031 C1047 1.349 . S
C1032 C1030 1.327 . S
C1032 C1051 1.429 . S
C1032 H1056 0.950 . S
C1033 C1050 1.574 . S
C1033 C1052 1.368 . S
C1033 H1057 0.949 . S
H1034 C1038 0.949 . S
C1035 C1036 1.349 . S
C1035 C1037 1.327 . S
C1035 H1058 0.950 . S
C1036 C1035 1.349 . S
C1036 C1048 1.349 . S
C1037 C1035 1.327 . S
C1037 C1053 1.429 . S
C1037 H1059 0.950 . S
C1038 H1034 0.949 . S
C1038 C1046 1.574 . S
C1038 C1054 1.368 . S
H1039 C1047 0.950 . S
H1040 C1045 0.950 . S
H1041 C1046 0.949 . S
H1042 C1048 0.950 . S
H1043 C1049 0.950 . S
H1044 C1050 0.949 . S
C1045 H1040 0.950 . S
C1045 C1047 1.327 . S
C1045 C1051 1.429 . S
C1046 C1038 1.574 . S
C1046 H1041 0.949 . S
C1046 C1052 1.368 . S
C1047 C1031 1.349 . S
C1047 H1039 0.950 . S
C1047 C1045 1.327 . S
C1048 C1036 1.349 . S
C1048 H1042 0.950 . S
C1048 C1049 1.327 . S
C1049 H1043 0.950 . S
C1049 C1048 1.327 . S
C1049 C1053 1.429 . S
C1050 C1033 1.574 . S
C1050 H1044 0.949 . S
C1050 C1054 1.368 . S
C1051 C1032 1.429 . S
C1051 C1045 1.429 . S
C1051 C1052 1.523 . S
C1052 C1033 1.368 . S
C1052 C1046 1.368 . S
C1052 C1051 1.523 . S
C1053 C1037 1.429 . S
C1053 C1049 1.429 . S
C1053 C1054 1.523 . S
C1054 C1038 1.368 . S
C1054 C1050 1.368 . S
C1054 C1053 1.523 . S
H1055 C1030 0.950 . S
H1056 C1032 0.950 . S
H1057 C1033 0.949 . S
H1058 C1035 0.950 . S
H1059 C1037 0.950 . S
C1060 C1061 1.349 . S
C1060 C1062 1.327 . S
C1060 H1085 0.950 . S
C1061 C1060 1.349 . S
C1061 C1077 1.349 . S
C1062 C1060 1.327 . S
C1062 C1081 1.429 . S
C1062 H1086 0.950 . S
C1063 C1080 1.574 1_455 S
C1063 C1082 1.368 . S
C1063 H1087 0.949 . S
H1064 C1068 0.949 . S
C1065 C1066 1.349 . S
C1065 C1067 1.327 . S
C1065 H1088 0.950 . S
C1066 C1065 1.349 . S
C1066 C1078 1.349 . S
C1067 C1065 1.327 . S
C1067 C1083 1.429 . S
C1067 H1089 0.950 . S
C1068 H1064 0.949 . S
C1068 C1076 1.574 1_655 S
C1068 C1084 1.368 . S
H1069 C1077 0.950 . S
H1070 C1075 0.950 . S
H1071 C1076 0.949 . S
H1072 C1078 0.950 . S
H1073 C1079 0.950 . S
H1074 C1080 0.949 . S
C1075 H1070 0.950 . S
C1075 C1077 1.327 . S
C1075 C1081 1.429 . S
C1076 C1068 1.574 1_455 S
C1076 H1071 0.949 . S
C1076 C1082 1.368 . S
C1077 C1061 1.349 . S
C1077 H1069 0.950 . S
C1077 C1075 1.327 . S
C1078 C1066 1.349 . S
C1078 H1072 0.950 . S
C1078 C1079 1.327 . S
C1079 H1073 0.950 . S
C1079 C1078 1.327 . S
C1079 C1083 1.429 . S
C1080 C1063 1.574 1_655 S
C1080 H1074 0.949 . S
C1080 C1084 1.368 . S
C1081 C1062 1.429 . S
C1081 C1075 1.429 . S
C1081 C1082 1.523 . S
C1082 C1063 1.368 . S
C1082 C1076 1.368 . S
C1082 C1081 1.523 . S
C1083 C1067 1.429 . S
C1083 C1079 1.429 . S
C1083 C1084 1.523 . S
C1084 C1068 1.368 . S
C1084 C1080 1.368 . S
C1084 C1083 1.523 . S
H1085 C1060 0.950 . S
H1086 C1062 0.950 . S
H1087 C1063 0.949 . S
H1088 C1065 0.950 . S
H1089 C1067 0.950 . S
C1090 C1091 1.349 . S
C1090 C1092 1.327 . S
C1090 H1115 0.950 . S
C1091 C1090 1.349 . S
C1091 C1107 1.349 . S
C1092 C1090 1.327 . S
C1092 C1111 1.429 . S
C1092 H1116 0.950 . S
C1093 C1110 1.574 . S
C1093 C1112 1.368 1_556 S
C1093 H1117 0.949 . S
H1094 C1098 0.949 . S
C1095 C1096 1.349 . S
C1095 C1097 1.327 . S
C1095 H1118 0.950 . S
C1096 C1095 1.349 . S
C1096 C1108 1.349 . S
C1097 C1095 1.327 . S
C1097 C1113 1.429 . S
C1097 H1119 0.950 . S
C1098 H1094 0.949 . S
C1098 C1106 1.574 . S
C1098 C1114 1.368 1_554 S
H1099 C1107 0.950 . S
H1100 C1105 0.950 . S
H1101 C1106 0.949 . S
H1102 C1108 0.950 . S
H1103 C1109 0.950 . S
H1104 C1110 0.949 . S
C1105 H1100 0.950 . S
C1105 C1107 1.327 . S
C1105 C1111 1.429 . S
C1106 C1098 1.574 . S
C1106 H1101 0.949 . S
C1106 C1112 1.368 . S
C1107 C1091 1.349 . S
C1107 H1099 0.950 . S
C1107 C1105 1.327 . S
C1108 C1096 1.349 . S
C1108 H1102 0.950 . S
C1108 C1109 1.327 . S
C1109 H1103 0.950 . S
C1109 C1108 1.327 . S
C1109 C1113 1.429 . S
C1110 C1093 1.574 . S
C1110 H1104 0.949 . S
C1110 C1114 1.368 . S
C1111 C1092 1.429 . S
C1111 C1105 1.429 . S
C1111 C1112 1.523 . S
C1112 C1093 1.368 1_554 S
C1112 C1106 1.368 . S
C1112 C1111 1.523 . S
C1113 C1097 1.429 . S
C1113 C1109 1.429 . S
C1113 C1114 1.523 . S
C1114 C1098 1.368 1_556 S
C1114 C1110 1.368 . S
C1114 C1113 1.523 . S
H1115 C1090 0.950 . S
H1116 C1092 0.950 . S
H1117 C1093 0.949 . S
H1118 C1095 0.950 . S
H1119 C1097 0.950 . S
C1120 C1121 1.349 . S
C1120 C1122 1.327 . S
C1120 H1145 0.950 . S
C1121 C1120 1.349 . S
C1121 C1137 1.349 . S
C1122 C1120 1.327 . S
C1122 C1141 1.429 . S
C1122 H1146 0.950 . S
C1123 C1140 1.574 . S
C1123 C1142 1.368 . S
C1123 H1147 0.949 . S
H1124 C1128 0.949 . S
C1125 C1126 1.349 . S
C1125 C1127 1.327 . S
C1125 H1148 0.950 . S
C1126 C1125 1.349 . S
C1126 C1138 1.349 . S
C1127 C1125 1.327 . S
C1127 C1143 1.429 . S
C1127 H1149 0.950 . S
C1128 H1124 0.949 . S
C1128 C1136 1.574 . S
C1128 C1144 1.368 . S
H1129 C1137 0.950 . S
H1130 C1135 0.950 . S
H1131 C1136 0.949 . S
H1132 C1138 0.950 . S
H1133 C1139 0.950 . S
H1134 C1140 0.949 . S
C1135 H1130 0.950 . S
C1135 C1137 1.327 . S
C1135 C1141 1.429 . S
C1136 C1128 1.574 . S
C1136 H1131 0.949 . S
C1136 C1142 1.368 . S
C1137 C1121 1.349 . S
C1137 H1129 0.950 . S
C1137 C1135 1.327 . S
C1138 C1126 1.349 . S
C1138 H1132 0.950 . S
C1138 C1139 1.327 . S
C1139 H1133 0.950 . S
C1139 C1138 1.327 . S
C1139 C1143 1.429 . S
C1140 C1123 1.574 . S
C1140 H1134 0.949 . S
C1140 C1144 1.368 . S
C1141 C1122 1.429 . S
C1141 C1135 1.429 . S
C1141 C1142 1.523 . S
C1142 C1123 1.368 . S
C1142 C1136 1.368 . S
C1142 C1141 1.523 . S
C1143 C1127 1.429 . S
C1143 C1139 1.429 . S
C1143 C1144 1.523 . S
C1144 C1128 1.368 . S
C1144 C1140 1.368 . S
C1144 C1143 1.523 . S
H1145 C1120 0.950 . S
H1146 C1122 0.950 . S
H1147 C1123 0.949 . S
H1148 C1125 0.950 . S
H1149 C1127 0.950 . S
C1150 C1151 1.349 . S
C1150 C1152 1.327 . S
C1150 H1175 0.950 . S
C1151 C1150 1.349 . S
C1151 C1167 1.349 . S
C1152 C1150 1.327 . S
C1152 C1171 1.429 . S
C1152 H1176 0.950 . S
C1153 C1170 1.574 . S
C1153 C1172 1.368 . S
C1153 H1177 0.949 . S
H1154 C1158 0.949 . S
C1155 C1156 1.349 . S
C1155 C1157 1.327 . S
C1155 H1178 0.950 . S
C1156 C1155 1.349 . S
C1156 C1168 1.349 . S
C1157 C1155 1.327 . S
C1157 C1173 1.429 . S
C1157 H1179 0.950 . S
C1158 H1154 0.949 . S
C1158 C1166 1.574 . S
C1158 C1174 1.368 . S
H1159 C1167 0.950 . S
H1160 C1165 0.950 . S
H1161 C1166 0.949 . S
H1162 C1168 0.950 . S
H1163 C1169 0.950 . S
H1164 C1170 0.949 . S
C1165 H1160 0.950 . S
C1165 C1167 1.327 . S
C1165 C1171 1.429 . S
C1166 C1158 1.574 . S
C1166 H1161 0.949 . S
C1166 C1172 1.368 . S
C1167 C1151 1.349 . S
C1167 H1159 0.950 . S
C1167 C1165 1.327 . S
C1168 C1156 1.349 . S
C1168 H1162 0.950 . S
C1168 C1169 1.327 . S
C1169 H1163 0.950 . S
C1169 C1168 1.327 . S
C1169 C1173 1.429 . S
C1170 C1153 1.574 . S
C1170 H1164 0.949 . S
C1170 C1174 1.368 . S
C1171 C1152 1.429 . S
C1171 C1165 1.429 . S
C1171 C1172 1.523 . S
C1172 C1153 1.368 . S
C1172 C1166 1.368 . S
C1172 C1171 1.523 . S
C1173 C1157 1.429 . S
C1173 C1169 1.429 . S
C1173 C1174 1.523 . S
C1174 C1158 1.368 . S
C1174 C1170 1.368 . S
C1174 C1173 1.523 . S
H1175 C1150 0.950 . S
H1176 C1152 0.950 . S
H1177 C1153 0.949 . S
H1178 C1155 0.950 . S
H1179 C1157 0.950 . S
C1180 C1181 1.349 . S
C1180 C1182 1.327 . S
C1180 H1205 0.950 . S
C1181 C1180 1.349 . S
C1181 C1197 1.349 . S
C1182 C1180 1.327 . S
C1182 C1201 1.429 . S
C1182 H1206 0.950 . S
C1183 C1200 1.574 . S
C1183 C1202 1.368 . S
C1183 H1207 0.949 . S
H1184 C1188 0.949 . S
C1185 C1186 1.349 . S
C1185 C1187 1.327 . S
C1185 H1208 0.950 . S
C1186 C1185 1.349 . S
C1186 C1198 1.349 . S
C1187 C1185 1.327 . S
C1187 C1203 1.429 . S
C1187 H1209 0.950 . S
C1188 H1184 0.949 . S
C1188 C1196 1.574 . S
C1188 C1204 1.368 . S
H1189 C1197 0.950 . S
H1190 C1195 0.950 . S
H1191 C1196 0.949 . S
H1192 C1198 0.950 . S
H1193 C1199 0.950 . S
H1194 C1200 0.949 . S
C1195 H1190 0.950 . S
C1195 C1197 1.327 . S
C1195 C1201 1.429 . S
C1196 C1188 1.574 . S
C1196 H1191 0.949 . S
C1196 C1202 1.368 . S
C1197 C1181 1.349 . S
C1197 H1189 0.950 . S
C1197 C1195 1.327 . S
C1198 C1186 1.349 . S
C1198 H1192 0.950 . S
C1198 C1199 1.327 . S
C1199 H1193 0.950 . S
C1199 C1198 1.327 . S
C1199 C1203 1.429 . S
C1200 C1183 1.574 . S
C1200 H1194 0.949 . S
C1200 C1204 1.368 . S
C1201 C1182 1.429 . S
C1201 C1195 1.429 . S
C1201 C1202 1.523 . S
C1202 C1183 1.368 . S
C1202 C1196 1.368 . S
C1202 C1201 1.523 . S
C1203 C1187 1.429 . S
C1203 C1199 1.429 . S
C1203 C1204 1.523 . S
C1204 C1188 1.368 . S
C1204 C1200 1.368 . S
C1204 C1203 1.523 . S
H1205 C1180 0.950 . S
H1206 C1182 0.950 . S
H1207 C1183 0.949 . S
H1208 C1185 0.950 . S
H1209 C1187 0.950 . S
C1210 C1211 1.349 . S
C1210 C1212 1.327 . S
C1210 H1235 0.950 . S
C1211 C1210 1.349 . S
C1211 C1227 1.349 . S
C1212 C1210 1.327 . S
C1212 C1231 1.429 . S
C1212 H1236 0.950 . S
C1213 C1230 1.574 . S
C1213 C1232 1.368 . S
C1213 H1237 0.949 . S
H1214 C1218 0.949 . S
C1215 C1216 1.349 . S
C1215 C1217 1.327 . S
C1215 H1238 0.950 . S
C1216 C1215 1.349 . S
C1216 C1228 1.349 . S
C1217 C1215 1.327 . S
C1217 C1233 1.429 . S
C1217 H1239 0.950 . S
C1218 H1214 0.949 . S
C1218 C1226 1.574 . S
C1218 C1234 1.368 . S
H1219 C1227 0.950 . S
H1220 C1225 0.950 . S
H1221 C1226 0.949 . S
H1222 C1228 0.950 . S
H1223 C1229 0.950 . S
H1224 C1230 0.949 . S
C1225 H1220 0.950 . S
C1225 C1227 1.327 . S
C1225 C1231 1.429 . S
C1226 C1218 1.574 . S
C1226 H1221 0.949 . S
C1226 C1232 1.368 . S
C1227 C1211 1.349 . S
C1227 H1219 0.950 . S
C1227 C1225 1.327 . S
C1228 C1216 1.349 . S
C1228 H1222 0.950 . S
C1228 C1229 1.327 . S
C1229 H1223 0.950 . S
C1229 C1228 1.327 . S
C1229 C1233 1.429 . S
C1230 C1213 1.574 . S
C1230 H1224 0.949 . S
C1230 C1234 1.368 . S
C1231 C1212 1.429 . S
C1231 C1225 1.429 . S
C1231 C1232 1.523 . S
C1232 C1213 1.368 . S
C1232 C1226 1.368 . S
C1232 C1231 1.523 . S
C1233 C1217 1.429 . S
C1233 C1229 1.429 . S
C1233 C1234 1.523 . S
C1234 C1218 1.368 . S
C1234 C1230 1.368 . S
C1234 C1233 1.523 . S
H1235 C1210 0.950 . S
H1236 C1212 0.950 . S
H1237 C1213 0.949 . S
H1238 C1215 0.950 . S
H1239 C1217 0.950 . S
C1240 C1241 1.349 . S
C1240 C1242 1.327 . S
C1240 H1265 0.950 . S
C1241 C1240 1.349 . S
C1241 C1257 1.349 . S
C1242 C1240 1.327 . S
C1242 C1261 1.429 . S
C1242 H1266 0.950 . S
C1243 C1260 1.574 . S
C1243 C1262 1.368 . S
C1243 H1267 0.949 . S
H1244 C1248 0.949 . S
C1245 C1246 1.349 . S
C1245 C1247 1.327 . S
C1245 H1268 0.950 . S
C1246 C1245 1.349 . S
C1246 C1258 1.349 . S
C1247 C1245 1.327 . S
C1247 C1263 1.429 . S
C1247 H1269 0.950 . S
C1248 H1244 0.949 . S
C1248 C1256 1.574 . S
C1248 C1264 1.368 . S
H1249 C1257 0.950 . S
H1250 C1255 0.950 . S
H1251 C1256 0.949 . S
H1252 C1258 0.950 . S
H1253 C1259 0.950 . S
H1254 C1260 0.949 . S
C1255 H1250 0.950 . S
C1255 C1257 1.327 . S
C1255 C1261 1.429 . S
C1256 C1248 1.574 . S
C1256 H1251 0.949 . S
C1256 C1262 1.368 . S
C1257 C1241 1.349 . S
C1257 H1249 0.950 . S
C1257 C1255 1.327 . S
C1258 C1246 1.349 . S
C1258 H1252 0.950 . S
C1258 C1259 1.327 . S
C1259 H1253 0.950 . S
C1259 C1258 1.327 . S
C1259 C1263 1.429 . S
C1260 C1243 1.574 . S
C1260 H1254 0.949 . S
C1260 C1264 1.368 . S
C1261 C1242 1.429 . S
C1261 C1255 1.429 . S
C1261 C1262 1.523 . S
C1262 C1243 1.368 . S
C1262 C1256 1.368 . S
C1262 C1261 1.523 . S
C1263 C1247 1.429 . S
C1263 C1259 1.429 . S
C1263 C1264 1.523 . S
C1264 C1248 1.368 . S
C1264 C1260 1.368 . S
C1264 C1263 1.523 . S
H1265 C1240 0.950 . S
H1266 C1242 0.950 . S
H1267 C1243 0.949 . S
H1268 C1245 0.950 . S
H1269 C1247 0.950 . S
C1270 C1271 1.349 . S
C1270 C1272 1.327 . S
C1270 H1295 0.950 . S
C1271 C1270 1.349 . S
C1271 C1287 1.349 . S
C1272 C1270 1.327 . S
C1272 C1291 1.429 . S
C1272 H1296 0.950 . S
C1273 C1290 1.574 . S
C1273 C1292 1.368 . S
C1273 H1297 0.949 . S
H1274 C1278 0.949 . S
C1275 C1276 1.349 . S
C1275 C1277 1.327 . S
C1275 H1298 0.950 . S
C1276 C1275 1.349 . S
C1276 C1288 1.349 . S
C1277 C1275 1.327 . S
C1277 C1293 1.429 . S
C1277 H1299 0.950 . S
C1278 H1274 0.949 . S
C1278 C1286 1.574 . S
C1278 C1294 1.368 . S
H1279 C1287 0.950 . S
H1280 C1285 0.950 . S
H1281 C1286 0.949 . S
H1282 C1288 0.950 . S
H1283 C1289 0.950 . S
H1284 C1290 0.949 . S
C1285 H1280 0.950 . S
C1285 C1287 1.327 . S
C1285 C1291 1.429 . S
C1286 C1278 1.574 . S
C1286 H1281 0.949 . S
C1286 C1292 1.368 . S
C1287 C1271 1.349 . S
C1287 H1279 0.950 . S
C1287 C1285 1.327 . S
C1288 C1276 1.349 . S
C1288 H1282 0.950 . S
C1288 C1289 1.327 . S
C1289 H1283 0.950 . S
C1289 C1288 1.327 . S
C1289 C1293 1.429 . S
C1290 C1273 1.574 . S
C1290 H1284 0.949 . S
C1290 C1294 1.368 . S
C1291 C1272 1.429 . S
C1291 C1285 1.429 . S
C1291 C1292 1.523 . S
C1292 C1273 1.368 . S
C1292 C1286 1.368 . S
C1292 C1291 1.523 . S
C1293 C1277 1.429 . S
C1293 C1289 1.429 . S
C1293 C1294 1.523 . S
C1294 C1278 1.368 . S
C1294 C1290 1.368 . S
C1294 C1293 1.523 . S
H1295 C1270 0.950 . S
H1296 C1272 0.950 . S
H1297 C1273 0.949 . S
H1298 C1275 0.950 . S
H1299 C1277 0.950 . S
C1300 C1301 1.349 . S
C1300 C1302 1.327 . S
C1300 H1325 0.950 . S
C1301 C1300 1.349 . S
C1301 C1317 1.349 . S
C1302 C1300 1.327 . S
C1302 C1321 1.429 . S
C1302 H1326 0.950 . S
C1303 C1320 1.574 . S
C1303 C1322 1.368 . S
C1303 H1327 0.949 . S
H1304 C1308 0.949 . S
C1305 C1306 1.349 . S
C1305 C1307 1.327 . S
C1305 H1328 0.950 . S
C1306 C1305 1.349 . S
C1306 C1318 1.349 . S
C1307 C1305 1.327 . S
C1307 C1323 1.429 . S
C1307 H1329 0.950 . S
C1308 H1304 0.949 . S
C1308 C1316 1.574 . S
C1308 C1324 1.368 . S
H1309 C1317 0.950 . S
H1310 C1315 0.950 . S
H1311 C1316 0.949 . S
H1312 C1318 0.950 . S
H1313 C1319 0.950 . S
H1314 C1320 0.949 . S
C1315 H1310 0.950 . S
C1315 C1317 1.327 . S
C1315 C1321 1.429 . S
C1316 C1308 1.574 . S
C1316 H1311 0.949 . S
C1316 C1322 1.368 . S
C1317 C1301 1.349 . S
C1317 H1309 0.950 . S
C1317 C1315 1.327 . S
C1318 C1306 1.349 . S
C1318 H1312 0.950 . S
C1318 C1319 1.327 . S
C1319 H1313 0.950 . S
C1319 C1318 1.327 . S
C1319 C1323 1.429 . S
C1320 C1303 1.574 . S
C1320 H1314 0.949 . S
C1320 C1324 1.368 . S
C1321 C1302 1.429 . S
C1321 C1315 1.429 . S
C1321 C1322 1.523 . S
C1322 C1303 1.368 . S
C1322 C1316 1.368 . S
C1322 C1321 1.523 . S
C1323 C1307 1.429 . S
C1323 C1319 1.429 . S
C1323 C1324 1.523 . S
C1324 C1308 1.368 . S
C1324 C1320 1.368 . S
C1324 C1323 1.523 . S
H1325 C1300 0.950 . S
H1326 C1302 0.950 . S
H1327 C1303 0.949 . S
H1328 C1305 0.950 . S
H1329 C1307 0.950 . S
C1330 C1331 1.349 . S
C1330 C1332 1.327 . S
C1330 H1355 0.950 . S
C1331 C1330 1.349 . S
C1331 C1347 1.349 . S
C1332 C1330 1.327 . S
C1332 C1351 1.429 . S
C1332 H1356 0.950 . S
C1333 C1350 1.574 . S
C1333 C1352 1.368 . S
C1333 H1357 0.949 . S
H1334 C1338 0.949 . S
C1335 C1336 1.349 . S
C1335 C1337 1.327 . S
C1335 H1358 0.950 . S
C1336 C1335 1.349 . S
C1336 C1348 1.349 . S
C1337 C1335 1.327 . S
C1337 C1353 1.429 . S
C1337 H1359 0.950 . S
C1338 H1334 0.949 . S
C1338 C1346 1.574 . S
C1338 C1354 1.368 . S
H1339 C1347 0.950 . S
H1340 C1345 0.950 . S
H1341 C1346 0.949 . S
H1342 C1348 0.950 . S
H1343 C1349 0.950 . S
H1344 C1350 0.949 . S
C1345 H1340 0.950 . S
C1345 C1347 1.327 . S
C1345 C1351 1.429 . S
C1346 C1338 1.574 . S
C1346 H1341 0.949 . S
C1346 C1352 1.368 . S
C1347 C1331 1.349 . S
C1347 H1339 0.950 . S
C1347 C1345 1.327 . S
C1348 C1336 1.349 . S
C1348 H1342 0.950 . S
C1348 C1349 1.327 . S
C1349 H1343 0.950 . S
C1349 C1348 1.327 . S
C1349 C1353 1.429 . S
C1350 C1333 1.574 . S
C1350 H1344 0.949 . S
C1350 C1354 1.368 . S
C1351 C1332 1.429 . S
C1351 C1345 1.429 . S
C1351 C1352 1.523 . S
C1352 C1333 1.368 . S
C1352 C1346 1.368 . S
C1352 C1351 1.523 . S
C1353 C1337 1.429 . S
C1353 C1349 1.429 . S
C1353 C1354 1.523 . S
C1354 C1338 1.368 . S
C1354 C1350 1.368 . S
C1354 C1353 1.523 . S
H1355 C1330 0.950 . S
H1356 C1332 0.950 . S
H1357 C1333 0.949 . S
H1358 C1335 0.950 . S
H1359 C1337 0.950 . S
C1360 C1361 1.349 . S
C1360 C1362 1.327 . S
C1360 H1385 0.950 . S
C1361 C1360 1.349 . S
C1361 C1377 1.349 . S
C1362 C1360 1.327 . S
C1362 C1381 1.429 . S
C1362 H1386 0.950 . S
C1363 C1380 1.574 . S
C1363 C1382 1.368 . S
C1363 H1387 0.949 . S
H1364 C1368 0.949 . S
C1365 C1366 1.349 . S
C1365 C1367 1.327 . S
C1365 H1388 0.950 . S
C1366 C1365 1.349 . S
C1366 C1378 1.349 . S
C1367 C1365 1.327 . S
C1367 C1383 1.429 . S
C1367 H1389 0.950 . S
C1368 H1364 0.949 . S
C1368 C1376 1.574 . S
C1368 C1384 1.368 . S
H1369 C1377 0.950 . S
H1370 C1375 0.950 . S
H1371 C1376 0.949 . S
H1372 C1378 0.968 . S
H1373 C1379 0.950 . S
H1374 C1380 0.949 . S
C1375 H1370 0.950 . S
C1375 C1377 1.327 . S
C1375 C1381 1.429 . S
C1376 C1368 1.574 . S
C1376 H1371 0.949 . S
C1376 C1382 1.368 . S
C1377 C1361 1.349 . S
C1377 H1369 0.950 . S
C1377 C1375 1.327 . S
C1378 C1366 1.349 . S
C1378 H1372 0.968 . S
C1378 C1379 1.327 . S
C1379 H1373 0.950 . S
C1379 C1378 1.327 . S
C1379 C1383 1.429 . S
C1380 C1363 1.574 . S
C1380 H1374 0.949 . S
C1380 C1384 1.368 . S
C1381 C1362 1.429 . S
C1381 C1375 1.429 . S
C1381 C1382 1.523 . S
C1382 C1363 1.368 . S
C1382 C1376 1.368 . S
C1382 C1381 1.523 . S
C1383 C1367 1.429 . S
C1383 C1379 1.429 . S
C1383 C1384 1.523 . S
C1384 C1368 1.368 . S
C1384 C1380 1.368 . S
C1384 C1383 1.523 . S
H1385 C1360 0.950 . S
H1386 C1362 0.950 . S
H1387 C1363 0.949 . S
H1388 C1365 0.950 . S
H1389 C1367 0.950 . S
C1390 C1391 1.349 . S
C1390 C1392 1.327 . S
C1390 H1415 0.950 . S
C1391 C1390 1.349 . S
C1391 C1407 1.349 . S
C1392 C1390 1.327 . S
C1392 C1411 1.429 . S
C1392 H1416 0.950 . S
C1393 C1410 1.574 . S
C1393 C1412 1.368 . S
C1393 H1417 0.949 . S
H1394 C1398 0.949 . S
C1395 C1396 1.349 . S
C1395 C1397 1.327 . S
C1395 H1418 0.950 . S
C1396 C1395 1.349 . S
C1396 C1408 1.349 . S
C1397 C1395 1.327 . S
C1397 C1413 1.429 . S
C1397 H1419 0.950 . S
C1398 H1394 0.949 . S
C1398 C1406 1.574 . S
C1398 C1414 1.368 . S
H1399 C1407 0.950 . S
H1400 C1405 0.950 . S
H1401 C1406 0.949 . S
H1402 C1408 0.950 . S
H1403 C1409 0.950 . S
H1404 C1410 0.949 . S
C1405 H1400 0.950 . S
C1405 C1407 1.327 . S
C1405 C1411 1.429 . S
C1406 C1398 1.574 . S
C1406 H1401 0.949 . S
C1406 C1412 1.368 . S
C1407 C1391 1.349 . S
C1407 H1399 0.950 . S
C1407 C1405 1.327 . S
C1408 C1396 1.349 . S
C1408 H1402 0.950 . S
C1408 C1409 1.327 . S
C1409 H1403 0.950 . S
C1409 C1408 1.327 . S
C1409 C1413 1.429 . S
C1410 C1393 1.574 . S
C1410 H1404 0.949 . S
C1410 C1414 1.368 . S
C1411 C1392 1.429 . S
C1411 C1405 1.429 . S
C1411 C1412 1.523 . S
C1412 C1393 1.368 . S
C1412 C1406 1.368 . S
C1412 C1411 1.523 . S
C1413 C1397 1.429 . S
C1413 C1409 1.429 . S
C1413 C1414 1.523 . S
C1414 C1398 1.368 . S
C1414 C1410 1.368 . S
C1414 C1413 1.523 . S
H1415 C1390 0.950 . S
H1416 C1392 0.950 . S
H1417 C1393 0.949 . S
H1418 C1395 0.950 . S
H1419 C1397 0.950 . S
C1420 C1421 1.349 . S
C1420 C1422 1.327 . S
C1420 H1445 0.950 . S
C1421 C1420 1.349 . S
C1421 C1437 1.349 . S
C1422 C1420 1.327 . S
C1422 C1441 1.429 . S
C1422 H1446 0.950 . S
C1423 C1440 1.574 . S
C1423 C1442 1.368 . S
C1423 H1447 0.949 . S
H1424 C1428 0.949 . S
C1425 C1426 1.349 . S
C1425 C1427 1.327 . S
C1425 H1448 0.950 . S
C1426 C1425 1.349 . S
C1426 C1438 1.349 . S
C1427 C1425 1.327 . S
C1427 C1443 1.429 . S
C1427 H1449 0.950 . S
C1428 H1424 0.949 . S
C1428 C1436 1.574 . S
C1428 C1444 1.368 . S
H1429 C1437 0.963 . S
H1430 C1435 0.950 . S
H1431 C1436 0.949 . S
H1432 C1438 0.950 . S
H1433 C1439 0.950 . S
H1434 C1440 0.949 . S
C1435 H1430 0.950 . S
C1435 C1437 1.327 . S
C1435 C1441 1.429 . S
C1436 C1428 1.574 . S
C1436 H1431 0.949 . S
C1436 C1442 1.368 . S
C1437 C1421 1.349 . S
C1437 H1429 0.963 . S
C1437 C1435 1.327 . S
C1438 C1426 1.349 . S
C1438 H1432 0.950 . S
C1438 C1439 1.327 . S
C1439 H1433 0.950 . S
C1439 C1438 1.327 . S
C1439 C1443 1.429 . S
C1440 C1423 1.574 . S
C1440 H1434 0.949 . S
C1440 C1444 1.368 . S
C1441 C1422 1.429 . S
C1441 C1435 1.429 . S
C1441 C1442 1.523 . S
C1442 C1423 1.368 . S
C1442 C1436 1.368 . S
C1442 C1441 1.523 . S
C1443 C1427 1.429 . S
C1443 C1439 1.429 . S
C1443 C1444 1.523 . S
C1444 C1428 1.368 . S
C1444 C1440 1.368 . S
C1444 C1443 1.523 . S
H1445 C1420 0.950 . S
H1446 C1422 0.950 . S
H1447 C1423 0.949 . S
H1448 C1425 0.950 . S
H1449 C1427 0.950 . S
C1450 C1451 1.349 . S
C1450 C1452 1.327 . S
C1450 H1475 0.950 . S
C1451 C1450 1.349 . S
C1451 C1467 1.349 . S
C1452 C1450 1.327 . S
C1452 C1471 1.429 . S
C1452 H1476 0.950 . S
C1453 C1470 1.574 . S
C1453 C1472 1.368 . S
C1453 H1477 0.949 . S
H1454 C1458 0.949 . S
C1455 C1456 1.349 . S
C1455 C1457 1.327 . S
C1455 H1478 0.950 . S
C1456 C1455 1.349 . S
C1456 C1468 1.349 . S
C1457 C1455 1.327 . S
C1457 C1473 1.429 . S
C1457 H1479 0.950 . S
C1458 H1454 0.949 . S
C1458 C1466 1.574 . S
C1458 C1474 1.368 . S
H1459 C1467 0.950 . S
H1460 C1465 0.950 . S
H1461 C1466 0.949 . S
H1462 C1468 0.950 . S
H1463 C1469 0.950 . S
H1464 C1470 0.949 . S
C1465 H1460 0.950 . S
C1465 C1467 1.327 . S
C1465 C1471 1.429 . S
C1466 C1458 1.574 . S
C1466 H1461 0.949 . S
C1466 C1472 1.368 . S
C1467 C1451 1.349 . S
C1467 H1459 0.950 . S
C1467 C1465 1.327 . S
C1468 C1456 1.349 . S
C1468 H1462 0.950 . S
C1468 C1469 1.327 . S
C1469 H1463 0.950 . S
C1469 C1468 1.327 . S
C1469 C1473 1.429 . S
C1470 C1453 1.574 . S
C1470 H1464 0.949 . S
C1470 C1474 1.368 . S
C1471 C1452 1.429 . S
C1471 C1465 1.429 . S
C1471 C1472 1.523 . S
C1472 C1453 1.368 . S
C1472 C1466 1.368 . S
C1472 C1471 1.523 . S
C1473 C1457 1.429 . S
C1473 C1469 1.429 . S
C1473 C1474 1.523 . S
C1474 C1458 1.368 . S
C1474 C1470 1.368 . S
C1474 C1473 1.523 . S
H1475 C1450 0.950 . S
H1476 C1452 0.950 . S
H1477 C1453 0.949 . S
H1478 C1455 0.950 . S
H1479 C1457 0.950 . S
C1480 C1481 1.349 . S
C1480 C1482 1.327 . S
C1480 H1505 0.950 . S
C1481 C1480 1.349 . S
C1481 C1497 1.349 . S
C1482 C1480 1.327 . S
C1482 C1501 1.429 . S
C1482 H1506 0.950 . S
C1483 C1500 1.574 . S
C1483 C1502 1.368 . S
C1483 H1507 0.949 . S
H1484 C1488 0.949 . S
C1485 C1486 1.349 . S
C1485 C1487 1.327 . S
C1485 H1508 0.950 . S
C1486 C1485 1.349 . S
C1486 C1498 1.349 . S
C1487 C1485 1.327 . S
C1487 C1503 1.429 . S
C1487 H1509 0.950 . S
C1488 H1484 0.949 . S
C1488 C1496 1.574 . S
C1488 C1504 1.368 . S
H1489 C1497 0.950 . S
H1490 C1495 0.950 . S
H1491 C1496 0.949 . S
H1492 C1498 0.962 . S
H1493 C1499 0.950 . S
H1494 C1500 0.949 . S
C1495 H1490 0.950 . S
C1495 C1497 1.327 . S
C1495 C1501 1.429 . S
C1496 C1488 1.574 . S
C1496 H1491 0.949 . S
C1496 C1502 1.368 . S
C1497 C1481 1.349 . S
C1497 H1489 0.950 . S
C1497 C1495 1.327 . S
C1498 C1486 1.349 . S
C1498 H1492 0.962 . S
C1498 C1499 1.327 . S
C1499 H1493 0.950 . S
C1499 C1498 1.327 . S
C1499 C1503 1.429 . S
C1500 C1483 1.574 . S
C1500 H1494 0.949 . S
C1500 C1504 1.368 . S
C1501 C1482 1.429 . S
C1501 C1495 1.429 . S
C1501 C1502 1.523 . S
C1502 C1483 1.368 . S
C1502 C1496 1.368 . S
C1502 C1501 1.523 . S
C1503 C1487 1.429 . S
C1503 C1499 1.429 . S
C1503 C1504 1.523 . S
C1504 C1488 1.368 . S
C1504 C1500 1.368 . S
C1504 C1503 1.523 . S
H1505 C1480 0.950 . S
H1506 C1482 0.950 . S
H1507 C1483 0.949 . S
H1508 C1485 0.950 . S
H1509 C1487 0.950 . S
C1510 C1511 1.349 . S
C1510 C1512 1.327 . S
C1510 H1535 0.950 . S
C1511 C1510 1.349 . S
C1511 C1527 1.349 . S
C1512 C1510 1.327 . S
C1512 C1531 1.429 . S
C1512 H1536 0.950 . S
C1513 C1530 1.574 . S
C1513 C1532 1.368 . S
C1513 H1537 0.949 . S
H1514 C1518 0.949 . S
C1515 C1516 1.349 . S
C1515 C1517 1.327 . S
C1515 H1538 0.950 . S
C1516 C1515 1.349 . S
C1516 C1528 1.349 . S
C1517 C1515 1.327 . S
C1517 C1533 1.429 . S
C1517 H1539 0.950 . S
C1518 H1514 0.949 . S
C1518 C1526 1.574 . S
C1518 C1534 1.368 . S
H1519 C1527 0.950 . S
H1520 C1525 0.950 . S
H1521 C1526 0.949 . S
H1522 C1528 0.950 . S
H1523 C1529 0.950 . S
H1524 C1530 0.949 . S
C1525 H1520 0.950 . S
C1525 C1527 1.327 . S
C1525 C1531 1.429 . S
C1526 C1518 1.574 . S
C1526 H1521 0.949 . S
C1526 C1532 1.368 . S
C1527 C1511 1.349 . S
C1527 H1519 0.950 . S
C1527 C1525 1.327 . S
C1528 C1516 1.349 . S
C1528 H1522 0.950 . S
C1528 C1529 1.327 . S
C1529 H1523 0.950 . S
C1529 C1528 1.327 . S
C1529 C1533 1.429 . S
C1530 C1513 1.574 . S
C1530 H1524 0.949 . S
C1530 C1534 1.368 . S
C1531 C1512 1.429 . S
C1531 C1525 1.429 . S
C1531 C1532 1.523 . S
C1532 C1513 1.368 . S
C1532 C1526 1.368 . S
C1532 C1531 1.523 . S
C1533 C1517 1.429 . S
C1533 C1529 1.429 . S
C1533 C1534 1.523 . S
C1534 C1518 1.368 . S
C1534 C1530 1.368 . S
C1534 C1533 1.523 . S
H1535 C1510 0.950 . S
H1536 C1512 0.950 . S
H1537 C1513 0.949 . S
H1538 C1515 0.950 . S
H1539 C1517 0.950 . S
C1540 C1541 1.349 . S
C1540 C1542 1.327 . S
C1540 H1565 0.950 . S
C1541 C1540 1.349 . S
C1541 C1557 1.349 . S
C1542 C1540 1.327 . S
C1542 C1561 1.429 . S
C1542 H1566 0.950 . S
C1543 C1560 1.574 . S
C1543 C1562 1.368 . S
C1543 H1567 0.949 . S
H1544 C1548 0.949 . S
C1545 C1546 1.349 . S
C1545 C1547 1.327 . S
C1545 H1568 0.950 . S
C1546 C1545 1.349 . S
C1546 C1558 1.349 . S
C1547 C1545 1.327 . S
C1547 C1563 1.429 . S
C1547 H1569 0.950 . S
C1548 H1544 0.949 . S
C1548 C1556 1.574 . S
C1548 C1564 1.368 . S
H1549 C1557 0.969 . S
H1550 C1555 0.950 . S
H1551 C1556 0.949 . S
H1552 C1558 0.950 . S
H1553 C1559 0.950 . S
H1554 C1560 0.949 . S
C1555 H1550 0.950 . S
C1555 C1557 1.327 . S
C1555 C1561 1.429 . S
C1556 C1548 1.574 . S
C1556 H1551 0.949 . S
C1556 C1562 1.368 . S
C1557 C1541 1.349 . S
C1557 H1549 0.969 . S
C1557 C1555 1.327 . S
C1558 C1546 1.349 . S
C1558 H1552 0.950 . S
C1558 C1559 1.327 . S
C1559 H1553 0.950 . S
C1559 C1558 1.327 . S
C1559 C1563 1.429 . S
C1560 C1543 1.574 . S
C1560 H1554 0.949 . S
C1560 C1564 1.368 . S
C1561 C1542 1.429 . S
C1561 C1555 1.429 . S
C1561 C1562 1.523 . S
C1562 C1543 1.368 . S
C1562 C1556 1.368 . S
C1562 C1561 1.523 . S
C1563 C1547 1.429 . S
C1563 C1559 1.429 . S
C1563 C1564 1.523 . S
C1564 C1548 1.368 . S
C1564 C1560 1.368 . S
C1564 C1563 1.523 . S
H1565 C1540 0.950 . S
H1566 C1542 0.950 . S
H1567 C1543 0.949 . S
H1568 C1545 0.950 . S
H1569 C1547 0.950 . S
C1570 C1571 1.349 . S
C1570 C1572 1.327 . S
C1570 H1595 0.950 . S
C1571 C1570 1.349 . S
C1571 C1587 1.349 . S
C1572 C1570 1.327 . S
C1572 C1591 1.429 . S
C1572 H1596 0.950 . S
C1573 C1590 1.574 . S
C1573 C1592 1.368 . S
C1573 H1597 0.949 . S
H1574 C1578 0.949 . S
C1575 C1576 1.349 . S
C1575 C1577 1.327 . S
C1575 H1598 0.950 . S
C1576 C1575 1.349 . S
C1576 C1588 1.349 . S
C1577 C1575 1.327 . S
C1577 C1593 1.429 . S
C1577 H1599 0.950 . S
C1578 H1574 0.949 . S
C1578 C1586 1.574 . S
C1578 C1594 1.368 . S
H1579 C1587 0.950 . S
H1580 C1585 0.950 . S
H1581 C1586 0.949 . S
H1582 C1588 0.950 . S
H1583 C1589 0.950 . S
H1584 C1590 0.949 . S
C1585 H1580 0.950 . S
C1585 C1587 1.327 . S
C1585 C1591 1.429 . S
C1586 C1578 1.574 . S
C1586 H1581 0.949 . S
C1586 C1592 1.368 . S
C1587 C1571 1.349 . S
C1587 H1579 0.950 . S
C1587 C1585 1.327 . S
C1588 C1576 1.349 . S
C1588 H1582 0.950 . S
C1588 C1589 1.327 . S
C1589 H1583 0.950 . S
C1589 C1588 1.327 . S
C1589 C1593 1.429 . S
C1590 C1573 1.574 . S
C1590 H1584 0.949 . S
C1590 C1594 1.368 . S
C1591 C1572 1.429 . S
C1591 C1585 1.429 . S
C1591 C1592 1.523 . S
C1592 C1573 1.368 . S
C1592 C1586 1.368 . S
C1592 C1591 1.523 . S
C1593 C1577 1.429 . S
C1593 C1589 1.429 . S
C1593 C1594 1.523 . S
C1594 C1578 1.368 . S
C1594 C1590 1.368 . S
C1594 C1593 1.523 . S
H1595 C1570 0.950 . S
H1596 C1572 0.950 . S
H1597 C1573 0.949 . S
H1598 C1575 0.950 . S
H1599 C1577 0.950 . S
C1600 C1601 1.349 . S
C1600 C1602 1.327 . S
C1600 H1625 0.950 . S
C1601 C1600 1.349 . S
C1601 C1617 1.349 . S
C1602 C1600 1.327 . S
C1602 C1621 1.429 1_554 S
C1602 H1626 0.950 . S
C1603 C1620 1.574 . S
C1603 C1622 1.368 . S
C1603 H1627 0.949 . S
H1604 C1608 0.949 . S
C1605 C1606 1.349 . S
C1605 C1607 1.327 . S
C1605 H1628 0.950 . S
C1606 C1605 1.349 . S
C1606 C1618 1.349 . S
C1607 C1605 1.327 . S
C1607 C1623 1.429 . S
C1607 H1629 0.950 . S
C1608 H1604 0.949 . S
C1608 C1616 1.574 . S
C1608 C1624 1.368 . S
H1609 C1617 0.950 . S
H1610 C1615 0.950 . S
H1611 C1616 0.949 . S
H1612 C1618 0.950 . S
H1613 C1619 0.950 . S
H1614 C1620 0.949 . S
C1615 H1610 0.950 . S
C1615 C1617 1.327 1_556 S
C1615 C1621 1.429 . S
C1616 C1608 1.574 . S
C1616 H1611 0.949 . S
C1616 C1622 1.368 . S
C1617 C1601 1.349 . S
C1617 H1609 0.950 . S
C1617 C1615 1.327 1_554 S
C1618 C1606 1.349 . S
C1618 H1612 0.950 . S
C1618 C1619 1.327 . S
C1619 H1613 0.950 . S
C1619 C1618 1.327 . S
C1619 C1623 1.429 . S
C1620 C1603 1.574 . S
C1620 H1614 0.949 . S
C1620 C1624 1.368 . S
C1621 C1602 1.429 1_556 S
C1621 C1615 1.429 . S
C1621 C1622 1.523 . S
C1622 C1603 1.368 . S
C1622 C1616 1.368 . S
C1622 C1621 1.523 . S
C1623 C1607 1.429 . S
C1623 C1619 1.429 . S
C1623 C1624 1.523 . S
C1624 C1608 1.368 . S
C1624 C1620 1.368 . S
C1624 C1623 1.523 . S
H1625 C1600 0.950 . S
H1626 C1602 0.950 . S
H1627 C1603 0.949 . S
H1628 C1605 0.950 . S
H1629 C1607 0.950 . S
C1630 C1631 1.349 . S
C1630 C1632 1.327 . S
C1630 H1655 0.950 . S
C1631 C1630 1.349 . S
C1631 C1647 1.349 . S
C1632 C1630 1.327 . S
C1632 C1651 1.429 . S
C1632 H1656 0.950 . S
C1633 C1650 1.574 . S
C1633 C1652 1.368 . S
C1633 H1657 0.949 . S
H1634 C1638 0.949 . S
C1635 C1636 1.349 . S
C1635 C1637 1.327 . S
C1635 H1658 0.950 . S
C1636 C1635 1.349 . S
C1636 C1648 1.349 . S
C1637 C1635 1.327 . S
C1637 C1653 1.429 . S
C1637 H1659 0.950 . S
C1638 H1634 0.949 . S
C1638 C1646 1.574 . S
C1638 C1654 1.368 . S
H1639 C1647 0.950 . S
H1640 C1645 0.950 . S
H1641 C1646 0.949 . S
H1642 C1648 0.950 . S
H1643 C1649 0.950 . S
H1644 C1650 0.949 . S
C1645 H1640 0.950 . S
C1645 C1647 1.327 . S
C1645 C1651 1.429 . S
C1646 C1638 1.574 . S
C1646 H1641 0.949 . S
C1646 C1652 1.368 . S
C1647 C1631 1.349 . S
C1647 H1639 0.950 . S
C1647 C1645 1.327 . S
C1648 C1636 1.349 . S
C1648 H1642 0.950 . S
C1648 C1649 1.327 . S
C1649 H1643 0.950 . S
C1649 C1648 1.327 . S
C1649 C1653 1.429 . S
C1650 C1633 1.574 . S
C1650 H1644 0.949 . S
C1650 C1654 1.368 . S
C1651 C1632 1.429 . S
C1651 C1645 1.429 . S
C1651 C1652 1.523 . S
C1652 C1633 1.368 . S
C1652 C1646 1.368 . S
C1652 C1651 1.523 . S
C1653 C1637 1.429 . S
C1653 C1649 1.429 . S
C1653 C1654 1.523 . S
C1654 C1638 1.368 . S
C1654 C1650 1.368 . S
C1654 C1653 1.523 . S
H1655 C1630 0.950 . S
H1656 C1632 0.950 . S
H1657 C1633 0.949 . S
H1658 C1635 0.950 . S
H1659 C1637 0.950 . S
C1660 C1661 1.349 . S
C1660 C1662 1.327 . S
C1660 H1685 0.950 . S
C1661 C1660 1.349 . S
C1661 C1677 1.349 . S
C1662 C1660 1.327 . S
C1662 C1681 1.429 . S
C1662 H1686 0.950 . S
C1663 C1680 1.574 . S
C1663 C1682 1.368 . S
C1663 H1687 0.949 . S
H1664 C1668 0.949 . S
C1665 C1666 1.349 . S
C1665 C1667 1.327 . S
C1665 H1688 0.950 . S
C1666 C1665 1.349 . S
C1666 C1678 1.349 . S
C1667 C1665 1.327 . S
C1667 C1683 1.429 . S
C1667 H1689 0.950 . S
C1668 H1664 0.949 . S
C1668 C1676 1.574 . S
C1668 C1684 1.368 . S
H1669 C1677 0.950 . S
H1670 C1675 0.950 . S
H1671 C1676 0.949 . S
H1672 C1678 0.950 . S
H1673 C1679 0.950 . S
H1674 C1680 0.949 . S
C1675 H1670 0.950 . S
C1675 C1677 1.327 . S
C1675 C1681 1.429 . S
C1676 C1668 1.574 . S
C1676 H1671 0.949 . S
C1676 C1682 1.368 . S
C1677 C1661 1.349 . S
C1677 H1669 0.950 . S
C1677 C1675 1.327 . S
C1678 C1666 1.349 . S
C1678 H1672 0.950 . S
C1678 C1679 1.327 . S
C1679 H1673 0.950 . S
C1679 C1678 1.327 . S
C1679 C1683 1.429 . S
C1680 C1663 1.574 . S
C1680 H1674 0.949 . S
C1680 C1684 1.368 . S
C1681 C1662 1.429 . S
C1681 C1675 1.429 . S
C1681 C1682 1.523 . S
C1682 C1663 1.368 . S
C1682 C1676 1.368 . S
C1682 C1681 1.523 . S
C1683 C1667 1.429 . S
C1683 C1679 1.429 . S
C1683 C1684 1.523 . S
C1684 C1668 1.368 . S
C1684 C1680 1.368 . S
C1684 C1683 1.523 . S
H1685 C1660 0.950 . S
H1686 C1662 0.950 . S
H1687 C1663 0.949 . S
H1688 C1665 0.950 . S
H1689 C1667 0.950 . S
C1690 C1691 1.349 . S
C1690 C1692 1.327 . S
C1690 H1715 0.950 . S
C1691 C1690 1.349 . S
C1691 C1707 1.349 . S
C1692 C1690 1.327 . S
C1692 C1711 1.429 . S
C1692 H1716 0.950 . S
C1693 C1710 1.574 . S
C1693 C1712 1.368 . S
C1693 H1717 0.949 . S
H1694 C1698 0.949 . S
C1695 C1696 1.349 . S
C1695 C1697 1.327 . S
C1695 H1718 0.950 . S
C1696 C1695 1.349 . S
C1696 C1708 1.349 . S
C1697 C1695 1.327 . S
C1697 C1713 1.429 . S
C1697 H1719 0.950 . S
C1698 H1694 0.949 . S
C1698 C1706 1.574 . S
C1698 C1714 1.368 . S
H1699 C1707 0.950 . S
H1700 C1705 0.950 . S
H1701 C1706 0.949 . S
H1702 C1708 0.950 . S
H1703 C1709 0.950 . S
H1704 C1710 0.949 . S
C1705 H1700 0.950 . S
C1705 C1707 1.327 . S
C1705 C1711 1.429 . S
C1706 C1698 1.574 . S
C1706 H1701 0.949 . S
C1706 C1712 1.368 . S
C1707 C1691 1.349 . S
C1707 H1699 0.950 . S
C1707 C1705 1.327 . S
C1708 C1696 1.349 . S
C1708 H1702 0.950 . S
C1708 C1709 1.327 . S
C1709 H1703 0.950 . S
C1709 C1708 1.327 . S
C1709 C1713 1.429 . S
C1710 C1693 1.574 . S
C1710 H1704 0.949 . S
C1710 C1714 1.368 . S
C1711 C1692 1.429 . S
C1711 C1705 1.429 . S
C1711 C1712 1.523 . S
C1712 C1693 1.368 . S
C1712 C1706 1.368 . S
C1712 C1711 1.523 . S
C1713 C1697 1.429 . S
C1713 C1709 1.429 . S
C1713 C1714 1.523 . S
C1714 C1698 1.368 . S
C1714 C1710 1.368 . S
C1714 C1713 1.523 . S
H1715 C1690 0.950 . S
H1716 C1692 0.950 . S
H1717 C1693 0.949 . S
H1718 C1695 0.950 . S
H1719 C1697 0.950 . S
C1720 C1721 1.349 . S
C1720 C1722 1.327 . S
C1720 H1745 0.950 . S
C1721 C1720 1.349 . S
C1721 C1737 1.349 . S
C1722 C1720 1.327 . S
C1722 C1741 1.429 . S
C1722 H1746 0.950 . S
C1723 C1740 1.574 . S
C1723 C1742 1.368 . S
C1723 H1747 0.949 . S
H1724 C1728 0.949 . S
C1725 C1726 1.349 . S
C1725 C1727 1.327 . S
C1725 H1748 0.950 . S
C1726 C1725 1.349 . S
C1726 C1738 1.349 . S
C1727 C1725 1.327 . S
C1727 C1743 1.429 1_556 S
C1727 H1749 0.950 . S
C1728 H1724 0.949 . S
C1728 C1736 1.574 . S
C1728 C1744 1.368 . S
H1729 C1737 0.950 . S
H1730 C1735 0.950 . S
H1731 C1736 0.949 . S
H1732 C1738 0.950 . S
H1733 C1739 0.950 . S
H1734 C1740 0.949 . S
C1735 H1730 0.950 . S
C1735 C1737 1.327 . S
C1735 C1741 1.429 . S
C1736 C1728 1.574 . S
C1736 H1731 0.949 . S
C1736 C1742 1.368 . S
C1737 C1721 1.349 . S
C1737 H1729 0.950 . S
C1737 C1735 1.327 . S
C1738 C1726 1.349 . S
C1738 H1732 0.950 . S
C1738 C1739 1.327 1_556 S
C1739 H1733 0.950 . S
C1739 C1738 1.327 1_554 S
C1739 C1743 1.429 . S
C1740 C1723 1.574 . S
C1740 H1734 0.949 . S
C1740 C1744 1.368 . S
C1741 C1722 1.429 . S
C1741 C1735 1.429 . S
C1741 C1742 1.523 . S
C1742 C1723 1.368 . S
C1742 C1736 1.368 . S
C1742 C1741 1.523 . S
C1743 C1727 1.429 1_554 S
C1743 C1739 1.429 . S
C1743 C1744 1.523 . S
C1744 C1728 1.368 . S
C1744 C1740 1.368 . S
C1744 C1743 1.523 . S
H1745 C1720 0.950 . S
H1746 C1722 0.950 . S
H1747 C1723 0.949 . S
H1748 C1725 0.950 . S
H1749 C1727 0.950 . S
C1750 C1751 1.349 . S
C1750 C1752 1.327 . S
C1750 H1775 0.950 . S
C1751 C1750 1.349 . S
C1751 C1767 1.349 . S
C1752 C1750 1.327 . S
C1752 C1771 1.429 . S
C1752 H1776 0.950 . S
C1753 C1770 1.574 . S
C1753 C1772 1.368 . S
C1753 H1777 0.949 . S
H1754 C1758 0.949 . S
C1755 C1756 1.349 . S
C1755 C1757 1.327 . S
C1755 H1778 0.950 . S
C1756 C1755 1.349 . S
C1756 C1768 1.349 . S
C1757 C1755 1.327 . S
C1757 C1773 1.429 . S
C1757 H1779 0.950 . S
C1758 H1754 0.949 . S
C1758 C1766 1.574 . S
C1758 C1774 1.368 . S
H1759 C1767 0.950 . S
H1760 C1765 0.950 . S
H1761 C1766 0.949 . S
H1762 C1768 0.950 . S
H1763 C1769 0.950 . S
H1764 C1770 0.949 . S
C1765 H1760 0.950 . S
C1765 C1767 1.327 . S
C1765 C1771 1.429 . S
C1766 C1758 1.574 . S
C1766 H1761 0.949 . S
C1766 C1772 1.368 . S
C1767 C1751 1.349 . S
C1767 H1759 0.950 . S
C1767 C1765 1.327 . S
C1768 C1756 1.349 . S
C1768 H1762 0.950 . S
C1768 C1769 1.327 . S
C1769 H1763 0.950 . S
C1769 C1768 1.327 . S
C1769 C1773 1.429 . S
C1770 C1753 1.574 . S
C1770 H1764 0.949 . S
C1770 C1774 1.368 . S
C1771 C1752 1.429 . S
C1771 C1765 1.429 . S
C1771 C1772 1.523 . S
C1772 C1753 1.368 . S
C1772 C1766 1.368 . S
C1772 C1771 1.523 . S
C1773 C1757 1.429 . S
C1773 C1769 1.429 . S
C1773 C1774 1.523 . S
C1774 C1758 1.368 . S
C1774 C1770 1.368 . S
C1774 C1773 1.523 . S
H1775 C1750 0.950 . S
H1776 C1752 0.950 . S
H1777 C1753 0.949 . S
H1778 C1755 0.950 . S
H1779 C1757 0.950 . S
C1780 C1781 1.349 . S
C1780 C1782 1.327 . S
C1780 H1805 0.950 . S
C1781 C1780 1.349 . S
C1781 C1797 1.349 . S
C1782 C1780 1.327 . S
C1782 C1801 1.429 . S
C1782 H1806 0.950 . S
C1783 C1800 1.574 . S
C1783 C1802 1.368 . S
C1783 H1807 0.949 . S
H1784 C1788 0.949 . S
C1785 C1786 1.349 . S
C1785 C1787 1.327 . S
C1785 H1808 0.950 . S
C1786 C1785 1.349 . S
C1786 C1798 1.349 . S
C1787 C1785 1.327 . S
C1787 C1803 1.429 . S
C1787 H1809 0.950 . S
C1788 H1784 0.949 . S
C1788 C1796 1.574 . S
C1788 C1804 1.368 . S
H1789 C1797 0.950 . S
H1790 C1795 0.950 . S
H1791 C1796 0.949 . S
H1792 C1798 0.950 . S
H1793 C1799 0.950 . S
H1794 C1800 0.949 . S
C1795 H1790 0.950 . S
C1795 C1797 1.327 . S
C1795 C1801 1.429 . S
C1796 C1788 1.574 . S
C1796 H1791 0.949 . S
C1796 C1802 1.368 . S
C1797 C1781 1.349 . S
C1797 H1789 0.950 . S
C1797 C1795 1.327 . S
C1798 C1786 1.349 . S
C1798 H1792 0.950 . S
C1798 C1799 1.327 . S
C1799 H1793 0.950 . S
C1799 C1798 1.327 . S
C1799 C1803 1.429 . S
C1800 C1783 1.574 . S
C1800 H1794 0.949 . S
C1800 C1804 1.368 . S
C1801 C1782 1.429 . S
C1801 C1795 1.429 . S
C1801 C1802 1.523 . S
C1802 C1783 1.368 . S
C1802 C1796 1.368 . S
C1802 C1801 1.523 . S
C1803 C1787 1.429 . S
C1803 C1799 1.429 . S
C1803 C1804 1.523 . S
C1804 C1788 1.368 . S
C1804 C1800 1.368 . S
C1804 C1803 1.523 . S
H1805 C1780 0.950 . S
H1806 C1782 0.950 . S
H1807 C1783 0.949 . S
H1808 C1785 0.950 . S
H1809 C1787 0.950 . S
C1810 C1811 1.349 . S
C1810 C1812 1.327 . S
C1810 H1835 0.950 . S
C1811 C1810 1.349 . S
C1811 C1827 1.349 . S
C1812 C1810 1.327 . S
C1812 C1831 1.429 . S
C1812 H1836 0.950 . S
C1813 C1830 1.574 . S
C1813 C1832 1.368 . S
C1813 H1837 0.949 . S
H1814 C1818 0.949 . S
C1815 C1816 1.349 . S
C1815 C1817 1.327 . S
C1815 H1838 0.950 . S
C1816 C1815 1.349 . S
C1816 C1828 1.349 . S
C1817 C1815 1.327 . S
C1817 C1833 1.429 . S
C1817 H1839 0.950 . S
C1818 H1814 0.949 . S
C1818 C1826 1.574 . S
C1818 C1834 1.368 . S
H1819 C1827 0.950 . S
H1820 C1825 0.950 . S
H1821 C1826 0.949 . S
H1822 C1828 0.950 . S
H1823 C1829 0.950 . S
H1824 C1830 0.949 . S
C1825 H1820 0.950 . S
C1825 C1827 1.327 . S
C1825 C1831 1.429 . S
C1826 C1818 1.574 . S
C1826 H1821 0.949 . S
C1826 C1832 1.368 . S
C1827 C1811 1.349 . S
C1827 H1819 0.950 . S
C1827 C1825 1.327 . S
C1828 C1816 1.349 . S
C1828 H1822 0.950 . S
C1828 C1829 1.327 . S
C1829 H1823 0.950 . S
C1829 C1828 1.327 . S
C1829 C1833 1.429 . S
C1830 C1813 1.574 . S
C1830 H1824 0.949 . S
C1830 C1834 1.368 . S
C1831 C1812 1.429 . S
C1831 C1825 1.429 . S
C1831 C1832 1.523 . S
C1832 C1813 1.368 . S
C1832 C1826 1.368 . S
C1832 C1831 1.523 . S
C1833 C1817 1.429 . S
C1833 C1829 1.429 . S
C1833 C1834 1.523 . S
C1834 C1818 1.368 . S
C1834 C1830 1.368 . S
C1834 C1833 1.523 . S
H1835 C1810 0.950 . S
H1836 C1812 0.950 . S
H1837 C1813 0.949 . S
H1838 C1815 0.950 . S
H1839 C1817 0.950 . S
C1840 C1841 1.349 . S
C1840 C1842 1.327 . S
C1840 H1865 0.950 . S
C1841 C1840 1.349 . S
C1841 C1857 1.349 . S
C1842 C1840 1.327 . S
C1842 C1861 1.429 . S
C1842 H1866 0.950 . S
C1843 C1860 1.574 . S
C1843 C1862 1.368 . S
C1843 H1867 0.949 . S
H1844 C1848 0.949 . S
C1845 C1846 1.349 . S
C1845 C1847 1.327 . S
C1845 H1868 0.950 . S
C1846 C1845 1.349 . S
C1846 C1858 1.349 . S
C1847 C1845 1.327 . S
C1847 C1863 1.429 . S
C1847 H1869 0.950 . S
C1848 H1844 0.949 . S
C1848 C1856 1.574 . S
C1848 C1864 1.368 . S
H1849 C1857 0.950 . S
H1850 C1855 0.950 . S
H1851 C1856 0.949 . S
H1852 C1858 0.950 . S
H1853 C1859 0.950 . S
H1854 C1860 0.949 . S
C1855 H1850 0.950 . S
C1855 C1857 1.327 . S
C1855 C1861 1.429 . S
C1856 C1848 1.574 . S
C1856 H1851 0.949 . S
C1856 C1862 1.368 . S
C1857 C1841 1.349 . S
C1857 H1849 0.950 . S
C1857 C1855 1.327 . S
C1858 C1846 1.349 . S
C1858 H1852 0.950 . S
C1858 C1859 1.327 . S
C1859 H1853 0.950 . S
C1859 C1858 1.327 . S
C1859 C1863 1.429 . S
C1860 C1843 1.574 . S
C1860 H1854 0.949 . S
C1860 C1864 1.368 . S
C1861 C1842 1.429 . S
C1861 C1855 1.429 . S
C1861 C1862 1.523 . S
C1862 C1843 1.368 . S
C1862 C1856 1.368 . S
C1862 C1861 1.523 . S
C1863 C1847 1.429 . S
C1863 C1859 1.429 . S
C1863 C1864 1.523 . S
C1864 C1848 1.368 . S
C1864 C1860 1.368 . S
C1864 C1863 1.523 . S
H1865 C1840 0.950 . S
H1866 C1842 0.950 . S
H1867 C1843 0.949 . S
H1868 C1845 0.950 . S
H1869 C1847 0.950 . S
C1870 C1871 1.349 . S
C1870 C1872 1.327 . S
C1870 H1895 0.950 . S
C1871 C1870 1.349 . S
C1871 C1887 1.349 . S
C1872 C1870 1.327 . S
C1872 C1891 1.429 . S
C1872 H1896 0.950 . S
C1873 C1890 1.574 . S
C1873 C1892 1.368 . S
C1873 H1897 0.949 . S
H1874 C1878 0.949 . S
C1875 C1876 1.349 . S
C1875 C1877 1.327 . S
C1875 H1898 0.950 . S
C1876 C1875 1.349 . S
C1876 C1888 1.349 1_545 S
C1877 C1875 1.327 . S
C1877 C1893 1.429 1_545 S
C1877 H1899 0.950 . S
C1878 H1874 0.949 . S
C1878 C1886 1.574 . S
C1878 C1894 1.368 . S
H1879 C1887 0.950 . S
H1880 C1885 0.950 . S
H1881 C1886 0.949 . S
H1882 C1888 0.950 . S
H1883 C1889 0.950 . S
H1884 C1890 0.949 . S
C1885 H1880 0.950 . S
C1885 C1887 1.327 . S
C1885 C1891 1.429 . S
C1886 C1878 1.574 . S
C1886 H1881 0.949 . S
C1886 C1892 1.368 . S
C1887 C1871 1.349 . S
C1887 H1879 0.950 . S
C1887 C1885 1.327 . S
C1888 C1876 1.349 1_565 S
C1888 H1882 0.950 . S
C1888 C1889 1.327 . S
C1889 H1883 0.950 . S
C1889 C1888 1.327 . S
C1889 C1893 1.429 . S
C1890 C1873 1.574 . S
C1890 H1884 0.949 . S
C1890 C1894 1.368 . S
C1891 C1872 1.429 . S
C1891 C1885 1.429 . S
C1891 C1892 1.523 . S
C1892 C1873 1.368 . S
C1892 C1886 1.368 . S
C1892 C1891 1.523 . S
C1893 C1877 1.429 1_565 S
C1893 C1889 1.429 . S
C1893 C1894 1.523 . S
C1894 C1878 1.368 . S
C1894 C1890 1.368 . S
C1894 C1893 1.523 . S
H1895 C1870 0.950 . S
H1896 C1872 0.950 . S
H1897 C1873 0.949 . S
H1898 C1875 0.950 . S
H1899 C1877 0.950 . S
C1900 C1901 1.349 . S
C1900 C1902 1.327 . S
C1900 H1925 0.950 . S
C1901 C1900 1.349 . S
C1901 C1917 1.349 . S
C1902 C1900 1.327 . S
C1902 C1921 1.429 . S
C1902 H1926 0.950 . S
C1903 C1920 1.574 . S
C1903 C1922 1.368 . S
C1903 H1927 0.949 . S
H1904 C1908 0.949 . S
C1905 C1906 1.349 . S
C1905 C1907 1.327 1_554 S
C1905 H1928 0.950 . S
C1906 C1905 1.349 . S
C1906 C1918 1.349 . S
C1907 C1905 1.327 1_556 S
C1907 C1923 1.429 . S
C1907 H1929 0.950 . S
C1908 H1904 0.949 . S
C1908 C1916 1.574 . S
C1908 C1924 1.368 . S
H1909 C1917 0.950 . S
H1910 C1915 0.950 . S
H1911 C1916 0.949 . S
H1912 C1918 0.950 . S
H1913 C1919 0.977 . S
H1914 C1920 0.949 . S
C1915 H1910 0.950 . S
C1915 C1917 1.327 . S
C1915 C1921 1.429 . S
C1916 C1908 1.574 . S
C1916 H1911 0.949 . S
C1916 C1922 1.368 . S
C1917 C1901 1.349 . S
C1917 H1909 0.950 . S
C1917 C1915 1.327 . S
C1918 C1906 1.349 . S
C1918 H1912 0.950 . S
C1918 C1919 1.271 1_554 S
C1919 H1913 0.977 . S
C1919 C1918 1.271 1_556 S
C1919 C1923 1.461 . S
C1920 C1903 1.574 . S
C1920 H1914 0.949 . S
C1920 C1924 1.368 . S
C1921 C1902 1.429 . S
C1921 C1915 1.429 . S
C1921 C1922 1.523 . S
C1922 C1903 1.368 . S
C1922 C1916 1.368 . S
C1922 C1921 1.523 . S
C1923 C1907 1.429 . S
C1923 C1919 1.461 . S
C1923 C1924 1.523 . S
C1924 C1908 1.368 . S
C1924 C1920 1.368 . S
C1924 C1923 1.523 . S
H1925 C1900 0.950 . S
H1926 C1902 0.950 . S
H1927 C1903 0.949 . S
H1928 C1905 0.950 . S
H1929 C1907 0.950 . S
C1930 C1931 1.349 . S
C1930 C1932 1.327 . S
C1930 H1955 0.950 . S
C1931 C1930 1.349 . S
C1931 C1947 1.349 1_565 S
C1932 C1930 1.327 . S
C1932 C1951 1.429 1_565 S
C1932 H1956 0.950 . S
C1933 C1950 1.574 . S
C1933 C1952 1.368 . S
C1933 H1957 0.949 . S
H1934 C1938 0.949 . S
C1935 C1936 1.349 . S
C1935 C1937 1.327 . S
C1935 H1958 0.950 . S
C1936 C1935 1.349 . S
C1936 C1948 1.349 . S
C1937 C1935 1.327 . S
C1937 C1953 1.429 . S
C1937 H1959 0.950 . S
C1938 H1934 0.949 . S
C1938 C1946 1.574 . S
C1938 C1954 1.368 . S
H1939 C1947 0.950 . S
H1940 C1945 0.950 . S
H1941 C1946 0.949 . S
H1942 C1948 0.950 . S
H1943 C1949 0.950 . S
H1944 C1950 0.949 . S
C1945 H1940 0.950 . S
C1945 C1947 1.327 . S
C1945 C1951 1.429 . S
C1946 C1938 1.574 . S
C1946 H1941 0.949 . S
C1946 C1952 1.368 . S
C1947 C1931 1.349 1_545 S
C1947 H1939 0.950 . S
C1947 C1945 1.327 . S
C1948 C1936 1.349 . S
C1948 H1942 0.950 . S
C1948 C1949 1.327 . S
C1949 H1943 0.950 . S
C1949 C1948 1.327 . S
C1949 C1953 1.429 . S
C1950 C1933 1.574 . S
C1950 H1944 0.949 . S
C1950 C1954 1.368 . S
C1951 C1932 1.429 1_545 S
C1951 C1945 1.429 . S
C1951 C1952 1.523 . S
C1952 C1933 1.368 . S
C1952 C1946 1.368 . S
C1952 C1951 1.523 . S
C1953 C1937 1.429 . S
C1953 C1949 1.429 . S
C1953 C1954 1.523 . S
C1954 C1938 1.368 . S
C1954 C1950 1.368 . S
C1954 C1953 1.523 . S
H1955 C1930 0.950 . S
H1956 C1932 0.950 . S
H1957 C1933 0.949 . S
H1958 C1935 0.950 . S
H1959 C1937 0.950 . S
C1960 C1961 1.349 . S
C1960 C1962 1.327 . S
C1960 H1985 0.950 . S
C1961 C1960 1.349 . S
C1961 C1977 1.349 . S
C1962 C1960 1.327 . S
C1962 C1981 1.429 . S
C1962 H1986 0.950 . S
C1963 C1980 1.574 . S
C1963 C1982 1.368 . S
C1963 H1987 0.949 . S
H1964 C1968 0.949 . S
C1965 C1966 1.349 . S
C1965 C1967 1.327 . S
C1965 H1988 0.950 . S
C1966 C1965 1.349 . S
C1966 C1978 1.349 . S
C1967 C1965 1.327 . S
C1967 C1983 1.429 . S
C1967 H1989 0.950 . S
C1968 H1964 0.949 . S
C1968 C1976 1.574 . S
C1968 C1984 1.368 . S
H1969 C1977 0.950 . S
H1970 C1975 0.950 . S
H1971 C1976 0.949 . S
H1972 C1978 0.950 . S
H1973 C1979 0.950 . S
H1974 C1980 0.949 . S
C1975 H1970 0.950 . S
C1975 C1977 1.327 . S
C1975 C1981 1.429 . S
C1976 C1968 1.574 . S
C1976 H1971 0.949 . S
C1976 C1982 1.368 . S
C1977 C1961 1.349 . S
C1977 H1969 0.950 . S
C1977 C1975 1.327 . S
C1978 C1966 1.349 . S
C1978 H1972 0.950 . S
C1978 C1979 1.327 . S
C1979 H1973 0.950 . S
C1979 C1978 1.327 . S
C1979 C1983 1.429 . S
C1980 C1963 1.574 . S
C1980 H1974 0.949 . S
C1980 C1984 1.368 . S
C1981 C1962 1.429 . S
C1981 C1975 1.429 . S
C1981 C1982 1.523 . S
C1982 C1963 1.368 . S
C1982 C1976 1.368 . S
C1982 C1981 1.523 . S
C1983 C1967 1.429 . S
C1983 C1979 1.429 . S
C1983 C1984 1.523 . S
C1984 C1968 1.368 . S
C1984 C1980 1.368 . S
C1984 C1983 1.523 . S
H1985 C1960 0.950 . S
H1986 C1962 0.950 . S
H1987 C1963 0.949 . S
H1988 C1965 0.950 . S
H1989 C1967 0.950 . S
C1990 C1991 1.349 . S
C1990 C1992 1.327 . S
C1990 H2015 0.950 . S
C1991 C1990 1.349 . S
C1991 C2007 1.349 . S
C1992 C1990 1.327 . S
C1992 C2011 1.429 . S
C1992 H2016 0.950 . S
C1993 C2010 1.574 . S
C1993 C2012 1.368 . S
C1993 H2017 0.949 . S
H1994 C1998 0.949 . S
C1995 C1996 1.349 1_545 S
C1995 C1997 1.327 . S
C1995 H2018 0.950 . S
C1996 C1995 1.349 1_565 S
C1996 C2008 1.349 . S
C1997 C1995 1.327 . S
C1997 C2013 1.429 . S
C1997 H2019 0.950 . S
C1998 H1994 0.949 . S
C1998 C2006 1.574 . S
C1998 C2014 1.368 . S
H1999 C2007 0.950 . S
H2000 C2005 0.950 . S
H2001 C2006 0.949 . S
H2002 C2008 0.950 . S
H2003 C2009 0.950 . S
H2004 C2010 0.949 . S
C2005 H2000 0.950 . S
C2005 C2007 1.327 . S
C2005 C2011 1.429 . S
C2006 C1998 1.574 . S
C2006 H2001 0.949 . S
C2006 C2012 1.368 . S
C2007 C1991 1.349 . S
C2007 H1999 0.950 . S
C2007 C2005 1.327 . S
C2008 C1996 1.349 . S
C2008 H2002 0.950 . S
C2008 C2009 1.327 . S
C2009 H2003 0.950 . S
C2009 C2008 1.327 . S
C2009 C2013 1.429 1_565 S
C2010 C1993 1.574 . S
C2010 H2004 0.949 . S
C2010 C2014 1.368 . S
C2011 C1992 1.429 . S
C2011 C2005 1.429 . S
C2011 C2012 1.523 . S
C2012 C1993 1.368 . S
C2012 C2006 1.368 . S
C2012 C2011 1.523 . S
C2013 C1997 1.429 . S
C2013 C2009 1.429 1_545 S
C2013 C2014 1.523 . S
C2014 C1998 1.368 . S
C2014 C2010 1.368 . S
C2014 C2013 1.523 . S
H2015 C1990 0.950 . S
H2016 C1992 0.950 . S
H2017 C1993 0.949 . S
H2018 C1995 0.950 . S
H2019 C1997 0.950 . S
C2020 C2021 1.349 . S
C2020 C2022 1.327 . S
C2020 H2045 0.950 . S
C2021 C2020 1.349 . S
C2021 C2037 1.349 . S
C2022 C2020 1.327 . S
C2022 C2041 1.429 . S
C2022 H2046 0.950 . S
C2023 C2040 1.574 . S
C2023 C2042 1.368 . S
C2023 H2047 0.949 . S
H2024 C2028 0.949 . S
C2025 C2026 1.349 . S
C2025 C2027 1.327 . S
C2025 H2048 0.950 . S
C2026 C2025 1.349 . S
C2026 C2038 1.349 . S
C2027 C2025 1.327 . S
C2027 C2043 1.429 1_556 S
C2027 H2049 0.950 . S
C2028 H2024 0.949 . S
C2028 C2036 1.574 . S
C2028 C2044 1.368 . S
H2029 C2037 0.950 . S
H2030 C2035 0.950 . S
H2031 C2036 0.949 . S
H2032 C2038 0.950 . S
H2033 C2039 0.950 . S
H2034 C2040 0.949 . S
C2035 H2030 0.950 . S
C2035 C2037 1.327 . S
C2035 C2041 1.429 . S
C2036 C2028 1.574 . S
C2036 H2031 0.949 . S
C2036 C2042 1.368 . S
C2037 C2021 1.349 . S
C2037 H2029 0.950 . S
C2037 C2035 1.327 . S
C2038 C2026 1.349 . S
C2038 H2032 0.950 . S
C2038 C2039 1.327 1_556 S
C2039 H2033 0.950 . S
C2039 C2038 1.327 1_554 S
C2039 C2043 1.429 . S
C2040 C2023 1.574 . S
C2040 H2034 0.949 . S
C2040 C2044 1.368 . S
C2041 C2022 1.429 . S
C2041 C2035 1.429 . S
C2041 C2042 1.523 . S
C2042 C2023 1.368 . S
C2042 C2036 1.368 . S
C2042 C2041 1.523 . S
C2043 C2027 1.429 1_554 S
C2043 C2039 1.429 . S
C2043 C2044 1.523 . S
C2044 C2028 1.368 . S
C2044 C2040 1.368 . S
C2044 C2043 1.523 . S
H2045 C2020 0.950 . S
H2046 C2022 0.950 . S
H2047 C2023 0.949 . S
H2048 C2025 0.950 . S
H2049 C2027 0.950 . S
C2050 C2051 1.349 . S
C2050 C2052 1.327 . S
C2050 H2075 0.950 . S
C2051 C2050 1.349 . S
C2051 C2067 1.349 . S
C2052 C2050 1.327 . S
C2052 C2071 1.429 . S
C2052 H2076 0.950 . S
C2053 C2070 1.574 . S
C2053 C2072 1.368 . S
C2053 H2077 0.949 . S
H2054 C2058 0.949 . S
C2055 C2056 1.349 1_565 S
C2055 C2057 1.327 . S
C2055 H2078 0.950 . S
C2056 C2055 1.349 1_545 S
C2056 C2068 1.349 . S
C2057 C2055 1.327 . S
C2057 C2073 1.429 . S
C2057 H2079 0.950 . S
C2058 H2054 0.949 . S
C2058 C2066 1.574 . S
C2058 C2074 1.368 . S
H2059 C2067 0.950 . S
H2060 C2065 0.950 . S
H2061 C2066 0.949 . S
H2062 C2068 0.950 . S
H2063 C2069 0.950 . S
H2064 C2070 0.949 . S
C2065 H2060 0.950 . S
C2065 C2067 1.327 . S
C2065 C2071 1.429 . S
C2066 C2058 1.574 . S
C2066 H2061 0.949 . S
C2066 C2072 1.368 . S
C2067 C2051 1.349 . S
C2067 H2059 0.950 . S
C2067 C2065 1.327 . S
C2068 C2056 1.349 . S
C2068 H2062 0.950 . S
C2068 C2069 1.327 . S
C2069 H2063 0.950 . S
C2069 C2068 1.327 . S
C2069 C2073 1.429 1_545 S
C2070 C2053 1.574 . S
C2070 H2064 0.949 . S
C2070 C2074 1.368 . S
C2071 C2052 1.429 . S
C2071 C2065 1.429 . S
C2071 C2072 1.523 . S
C2072 C2053 1.368 . S
C2072 C2066 1.368 . S
C2072 C2071 1.523 . S
C2073 C2057 1.429 . S
C2073 C2069 1.429 1_565 S
C2073 C2074 1.523 . S
C2074 C2058 1.368 . S
C2074 C2070 1.368 . S
C2074 C2073 1.523 . S
H2075 C2050 0.950 . S
H2076 C2052 0.950 . S
H2077 C2053 0.949 . S
H2078 C2055 0.950 . S
H2079 C2057 0.950 . S
C641 C17 2.387 . S
C646 C417 2.387 . S
C671 C57 2.387 . S
C676 C457 2.387 . S
C701 C97 2.387 . S
C706 C337 2.387 . S
C731 C377 2.387 . S
C736 C137 2.387 . S
C761 C162 2.387 . S
C766 C562 2.387 . S
C791 C602 2.387 . S
C796 C202 2.387 . S
C821 C482 2.387 . S
C826 C242 2.387 . S
C851 C282 2.387 . S
C856 C522 2.387 . S
C881 C29 0.747 . S
C886 C168 0.747 . S
C911 C69 0.747 . S
C916 C528 0.747 . S
C941 C109 0.747 . S
C946 C248 0.747 . S
C971 C149 0.747 . S
C976 C608 0.747 . S
C1001 C208 0.747 . S
C1006 C389 0.747 . S
C1031 C469 0.747 . S
C1036 C288 0.747 . S
C1061 C488 0.747 . S
C1066 C349 0.747 . S
C1091 C429 0.747 . S
C1096 C568 0.747 . S
C1121 C8 0.786 . S
C1126 C297 0.803 . S
C1151 C48 0.786 . S
C1156 C497 0.803 . S
C1181 C88 0.786 . S
C1186 C217 0.803 . S
C1211 C128 0.786 . S
C1216 C577 0.803 . S
C1241 C122 0.803 . S
C1246 C189 0.786 . S
C1271 C229 0.786 . S
C1276 C322 0.803 . S
C1301 C269 0.786 . S
C1306 C42 0.803 . S
C1331 C402 0.803 . S
C1336 C309 0.786 . S
C1361 C328 0.786 . S
C1366 C617 0.803 1_565 S
C1391 C177 0.803 . S
C1396 C368 0.786 . S
C1421 C537 0.803 1_545 S
C1426 C408 0.786 . S
C1451 C257 0.803 . S
C1456 C448 0.786 . S
C1481 C509 0.786 . S
C1486 C442 0.803 1_545 S
C1511 C549 0.786 . S
C1516 C2 0.803 . S
C1541 C362 0.803 1_565 S
C1546 C589 0.786 . S
C1571 C629 0.786 . S
C1576 C82 0.803 . S
C1601 C12 4.084 . S
C1606 C391 4.030 . S
C1631 C431 4.030 . S
C1636 C52 4.084 . S
C1661 C92 4.084 . S
C1666 C471 4.030 . S
C1691 C351 4.030 . S
C1696 C132 4.084 . S
C1721 C532 4.030 . S
C1726 C191 4.084 . S
C1751 C572 4.030 . S
C1756 C231 4.084 . S
C1781 C612 4.030 . S
C1786 C271 4.084 . S
C1811 C492 4.030 . S
C1816 C311 4.084 . S
C1841 C71 4.030 . S
C1846 C332 4.084 . S
C1871 C111 4.030 . S
C1876 C372 4.084 . S
C1901 C151 4.030 . S
C1906 C412 4.084 . S
C1931 C452 4.084 . S
C1936 C31 4.030 . S
C1961 C212 4.030 . S
C1966 C511 4.084 . S
C1991 C252 4.030 . S
C1996 C551 4.084 . S
C2021 C292 4.030 . S
C2026 C591 4.084 . S
C2051 C172 4.030 . S
C2056 C631 4.084 . S
