# Generated by pormake.
# Topology une, (4)-cn, num edge types: 1
# Building blocks:
#     Node 0, Type 0, BuildingBlock: CEKHIL_clean_sbu_0, # of connection points: 4
#     Node 1, Type 0, BuildingBlock: CEKHIL_clean_sbu_0, # of connection points: 4
#     Node 2, Type 0, BuildingBlock: CEKHIL_clean_sbu_0, # of connection points: 4
#     Node 3, Type 0, BuildingBlock: CEKHIL_clean_sbu_0, # of connection points: 4
#     Node 4, Type 0, BuildingBlock: CEKHIL_clean_sbu_0, # of connection points: 4
#     Node 5, Type 0, BuildingBlock: CEKHIL_clean_sbu_0, # of connection points: 4
#     Node 6, Type 0, BuildingBlock: CEKHIL_clean_sbu_0, # of connection points: 4
#     Node 7, Type 0, BuildingBlock: CEKHIL_clean_sbu_0, # of connection points: 4
#     Node 8, Type 0, BuildingBlock: CEKHIL_clean_sbu_0, # of connection points: 4
#     Node 9, Type 0, BuildingBlock: CEKHIL_clean_sbu_0, # of connection points: 4
#     Node 10, Type 0, BuildingBlock: CEKHIL_clean_sbu_0, # of connection points: 4
#     Node 11, Type 0, BuildingBlock: CEKHIL_clean_sbu_0, # of connection points: 4
#     Node 12, Type 0, BuildingBlock: CEKHIL_clean_sbu_0, # of connection points: 4
#     Node 13, Type 0, BuildingBlock: CEKHIL_clean_sbu_0, # of connection points: 4
#     Node 14, Type 0, BuildingBlock: CEKHIL_clean_sbu_0, # of connection points: 4
#     Node 15, Type 0, BuildingBlock: CEKHIL_clean_sbu_0, # of connection points: 4
#     Node 16, Type 0, BuildingBlock: CEKHIL_clean_sbu_0, # of connection points: 4
#     Node 17, Type 0, BuildingBlock: CEKHIL_clean_sbu_0, # of connection points: 4
#     Edge 18, Type (0, 0), BuildingBlock: XUDNAN_clean_linker_2, # of connection points: 2
#     Edge 19, Type (0, 0), BuildingBlock: XUDNAN_clean_linker_2, # of connection points: 2
#     Edge 20, Type (0, 0), BuildingBlock: XUDNAN_clean_linker_2, # of connection points: 2
#     Edge 21, Type (0, 0), BuildingBlock: XUDNAN_clean_linker_2, # of connection points: 2
#     Edge 22, Type (0, 0), BuildingBlock: XUDNAN_clean_linker_2, # of connection points: 2
#     Edge 23, Type (0, 0), BuildingBlock: XUDNAN_clean_linker_2, # of connection points: 2
#     Edge 24, Type (0, 0), BuildingBlock: XUDNAN_clean_linker_2, # of connection points: 2
#     Edge 25, Type (0, 0), BuildingBlock: XUDNAN_clean_linker_2, # of connection points: 2
#     Edge 26, Type (0, 0), BuildingBlock: XUDNAN_clean_linker_2, # of connection points: 2
#     Edge 27, Type (0, 0), BuildingBlock: XUDNAN_clean_linker_2, # of connection points: 2
#     Edge 28, Type (0, 0), BuildingBlock: XUDNAN_clean_linker_2, # of connection points: 2
#     Edge 29, Type (0, 0), BuildingBlock: XUDNAN_clean_linker_2, # of connection points: 2
#     Edge 30, Type (0, 0), BuildingBlock: XUDNAN_clean_linker_2, # of connection points: 2
#     Edge 31, Type (0, 0), BuildingBlock: XUDNAN_clean_linker_2, # of connection points: 2
#     Edge 32, Type (0, 0), BuildingBlock: XUDNAN_clean_linker_2, # of connection points: 2
#     Edge 33, Type (0, 0), BuildingBlock: XUDNAN_clean_linker_2, # of connection points: 2
#     Edge 34, Type (0, 0), BuildingBlock: XUDNAN_clean_linker_2, # of connection points: 2
#     Edge 35, Type (0, 0), BuildingBlock: XUDNAN_clean_linker_2, # of connection points: 2
#     Edge 36, Type (0, 0), BuildingBlock: XUDNAN_clean_linker_2, # of connection points: 2
#     Edge 37, Type (0, 0), BuildingBlock: XUDNAN_clean_linker_2, # of connection points: 2
#     Edge 38, Type (0, 0), BuildingBlock: XUDNAN_clean_linker_2, # of connection points: 2
#     Edge 39, Type (0, 0), BuildingBlock: XUDNAN_clean_linker_2, # of connection points: 2
#     Edge 40, Type (0, 0), BuildingBlock: XUDNAN_clean_linker_2, # of connection points: 2
#     Edge 41, Type (0, 0), BuildingBlock: XUDNAN_clean_linker_2, # of connection points: 2
#     Edge 42, Type (0, 0), BuildingBlock: XUDNAN_clean_linker_2, # of connection points: 2
#     Edge 43, Type (0, 0), BuildingBlock: XUDNAN_clean_linker_2, # of connection points: 2
#     Edge 44, Type (0, 0), BuildingBlock: XUDNAN_clean_linker_2, # of connection points: 2
#     Edge 45, Type (0, 0), BuildingBlock: XUDNAN_clean_linker_2, # of connection points: 2
#     Edge 46, Type (0, 0), BuildingBlock: XUDNAN_clean_linker_2, # of connection points: 2
#     Edge 47, Type (0, 0), BuildingBlock: XUDNAN_clean_linker_2, # of connection points: 2
#     Edge 48, Type (0, 0), BuildingBlock: XUDNAN_clean_linker_2, # of connection points: 2
#     Edge 49, Type (0, 0), BuildingBlock: XUDNAN_clean_linker_2, # of connection points: 2
#     Edge 50, Type (0, 0), BuildingBlock: XUDNAN_clean_linker_2, # of connection points: 2
#     Edge 51, Type (0, 0), BuildingBlock: XUDNAN_clean_linker_2, # of connection points: 2
#     Edge 52, Type (0, 0), BuildingBlock: XUDNAN_clean_linker_2, # of connection points: 2
#     Edge 53, Type (0, 0), BuildingBlock: XUDNAN_clean_linker_2, # of connection points: 2
# Relax obj value: 0.261
# Max RMSD: 0.176
# Mean RMSD: 0.165
data_MOF--net-une--node1-CEKHIL_clean_sbu_0--edge1-XUDNAN_clean_linker_2
_symmetry_space_group_name_H-M    P1
_symmetry_Int_Tables_number       1
_symmetry_cell_setting            triclinic
loop_
_symmetry_equiv_pos_as_xyz
'x, y, z'
_cell_length_a     38.111919
_cell_length_b     37.587802
_cell_length_c     51.924716
_cell_angle_alpha  90.059629
_cell_angle_beta   90.597845
_cell_angle_gamma 119.9192
loop_
_atom_site_label
_atom_site_type_symbol
_atom_site_fract_x
_atom_site_fract_y
_atom_site_fract_z
_atom_type_partial_charge
Co0 Co 0.39068 0.08902 0.07431 0.0
O1 O 0.41516 0.05365 0.07722 0.0
O2 O 0.42962 0.1009 0.04772 0.0
C3 C 0.39204 0.11103 0.11548 0.0
O4 O 0.37628 0.13168 0.06357 0.0
Co5 Co 0.30923 0.07265 0.09792 0.0
O6 O 0.3253 0.12914 0.08615 0.0
C7 C 0.30905 0.02132 0.055 0.0
C8 C 0.43506 0.07175 0.05641 0.0
C9 C 0.35384 0.14661 0.07004 0.0
O10 O 0.34689 0.04636 0.05136 0.0
O11 O 0.28952 0.02439 0.07396 0.0
O12 O 0.42492 0.12683 0.10181 0.0
O13 O 0.36195 0.07842 0.10553 0.0
Co14 Co 0.92412 0.30003 0.06714 0.0
O15 O 0.88451 0.28964 0.09377 0.0
O16 O 0.92862 0.26801 0.09515 0.0
C17 C 0.94838 0.36778 0.05808 0.0
O18 O 0.96934 0.30393 0.04478 0.0
Co19 Co 0.91226 0.32041 1.01076 0.0
O20 O 0.97044 0.33655 1.00818 0.0
C21 C 0.86094 0.23702 0.02995 0.0
C22 C 0.89724 0.26725 0.10528 0.0
C23 C 0.98651 0.32271 0.02393 0.0
O24 O 0.88354 0.2472 0.05019 0.0
O25 O 0.8655 0.26242 0.01212 0.0
O26 O 0.96091 0.3569 0.0785 0.0
O27 O 0.91741 0.33789 0.04662 0.0
Co28 Co 0.71198 0.6256 0.07145 0.0
O29 O 0.65355 0.6007 0.07757 0.0
O30 O 0.68148 0.57806 0.04983 0.0
C31 C 0.73879 0.63954 0.11235 0.0
O32 O 0.76733 0.63985 0.05847 0.0
Co33 Co 0.77662 0.7158 0.08534 0.0
O34 O 0.81694 0.70029 0.07369 0.0
C35 C 0.71191 0.69731 0.04735 0.0
C36 C 0.64861 0.57539 0.05878 0.0
C37 C 0.80492 0.66693 0.06116 0.0
O38 O 0.70612 0.66083 0.04453 0.0
O39 O 0.73537 0.72235 0.06469 0.0
O40 O 0.72308 0.60236 0.10297 0.0
O41 O 0.73302 0.6643 0.09823 0.0
Co42 Co 0.59117 0.9113 0.94094 0.0
O43 O 0.56496 0.87433 0.912 0.0
O44 O 0.63067 0.91737 0.91528 0.0
C45 C 0.54926 0.93719 0.94804 0.0
O46 O 0.62962 0.95419 0.96671 0.0
Co47 Co 0.54945 0.8937 0.99456 0.0
O48 O 0.59706 0.94749 1.00395 0.0
C49 C 0.58336 0.84332 0.97695 0.0
C50 C 0.601 0.88727 0.90276 0.0
C51 C 0.62796 0.96622 0.98965 0.0
O52 O 0.59891 0.86737 0.95769 0.0
O53 O 0.56009 0.84669 0.99312 0.0
O54 O 0.57526 0.95113 0.92933 0.0
O55 O 0.54484 0.90404 0.95842 0.0
Co56 Co 0.09101 0.68129 0.94016 0.0
O57 O 0.12657 0.69825 0.90992 0.0
O58 O 0.07208 0.70389 0.91371 0.0
C59 C 0.08327 0.61847 0.95015 0.0
O60 O 0.04646 0.66868 0.96578 0.0
Co61 Co 0.11632 0.66898 0.99535 0.0
O62 O 0.06039 0.65391 1.00524 0.0
C63 C 0.14837 0.75241 0.9752 0.0
C64 C 0.10378 0.712 0.90037 0.0
C65 C 0.03695 0.65781 0.9893 0.0
O66 O 0.12562 0.73836 0.95501 0.0
O67 O 0.15087 0.72976 0.99262 0.0
O68 O 0.06244 0.62196 0.93119 0.0
O69 O 0.11153 0.65294 0.95932 0.0
Co70 Co 0.33112 0.40932 0.94774 0.0
O71 O 0.31124 0.42364 0.91655 0.0
O72 O 0.30073 0.36191 0.92589 0.0
C73 C 0.39702 0.45891 0.95183 0.0
O74 O 0.34552 0.38135 0.97569 0.0
Co75 Co 0.35366 0.46154 0.99801 0.0
O76 O 0.36827 0.42092 1.01144 0.0
C77 C 0.26883 0.41232 0.98324 0.0
C78 C 0.2937 0.38473 0.91042 0.0
C79 C 0.3606 0.3889 0.99858 0.0
O80 O 0.2794 0.39565 0.96567 0.0
O81 O 0.29419 0.4429 0.9969 0.0
O82 O 0.38547 0.43023 0.93431 0.0
O83 O 0.36756 0.46198 0.96187 0.0
Co84 Co 0.04724 0.40888 0.40675 0.0
O85 O 0.07437 0.37618 0.41091 0.0
O86 O 0.09169 0.4265 0.38328 0.0
C87 C 0.0379 0.42212 0.44847 0.0
O88 O 0.02984 0.44914 0.39536 0.0
Co89 Co 0.95974 0.38264 0.42501 0.0
O90 O 0.97253 0.43855 0.41399 0.0
C91 C 0.97322 0.33846 0.38284 0.0
C92 C 0.09679 0.39679 0.39148 0.0
C93 C 1.00314 0.45955 0.39985 0.0
O94 O 0.01002 0.36743 0.38049 0.0
O95 O 0.95008 0.33678 0.40104 0.0
O96 O 0.07316 0.44409 0.43775 0.0
O97 O 0.01245 0.39093 0.43506 0.0
Co98 Co 0.58931 0.63149 0.39774 0.0
O99 O 0.56392 0.62101 0.43186 0.0
O100 O 0.60189 0.59624 0.41782 0.0
C101 C 0.61656 0.70042 0.39245 0.0
O102 O 0.62115 0.6332 0.36615 0.0
Co103 Co 0.56091 0.65986 0.34953 0.0
O104 O 0.61323 0.6701 0.33493 0.0
C105 C 0.51063 0.57613 0.36877 0.0
C106 C 0.57888 0.59682 0.43579 0.0
C107 C 0.63113 0.6522 0.34458 0.0
O108 O 0.53921 0.58198 0.38449 0.0
O109 O 0.51212 0.60392 0.35386 0.0
O110 O 0.63412 0.68587 0.40738 0.0
O111 O 0.58024 0.67357 0.38509 0.0
Co112 Co 0.37409 0.95582 0.41023 0.0
O113 O 0.31869 0.93784 0.42068 0.0
O114 O 0.33497 0.9143 0.38667 0.0
C115 C 0.4041 0.95709 0.44893 0.0
O116 O 0.42539 0.96434 0.39278 0.0
Co117 Co 0.4488 0.03863 0.42771 0.0
O118 O 0.48002 0.01373 0.41368 0.0
C119 C 0.3918 0.03877 0.3891 0.0
C120 C 0.30664 0.91502 0.39992 0.0
C121 C 0.46378 0.98436 0.39738 0.0
O122 O 0.37253 0.99936 0.38852 0.0
O123 O 0.42195 0.06036 0.40412 0.0
O124 O 0.382 0.92252 0.43658 0.0
O125 O 0.40262 0.98795 0.43935 0.0
Co126 Co 0.26663 0.25183 0.27708 0.0
O127 O 0.25182 0.21747 0.24578 0.0
O128 O 0.31257 0.26927 0.25489 0.0
C129 C 0.21674 0.26759 0.28203 0.0
O130 O 0.29495 0.29427 0.30525 0.0
Co131 Co 0.21774 0.22096 0.32758 0.0
O132 O 0.25655 0.27699 0.34074 0.0
C133 C 0.26807 0.18668 0.31218 0.0
C134 C 0.28997 0.23886 0.23961 0.0
C135 C 0.28771 0.30187 0.32811 0.0
O136 O 0.28188 0.21351 0.29423 0.0
O137 O 0.23908 0.18163 0.32672 0.0
O138 O 0.24417 0.28532 0.2644 0.0
O139 O 0.21511 0.23494 0.29167 0.0
Co140 Co 0.74682 0.00408 0.26903 0.0
O141 O 0.78352 0.02328 0.23945 0.0
O142 O 0.72976 0.03015 0.24375 0.0
C143 C 0.7382 0.9403 0.27628 0.0
O144 O 0.70148 0.98985 0.29441 0.0
Co145 Co 0.76895 0.98482 0.32333 0.0
O146 O 0.7125 0.96879 0.33262 0.0
C147 C 0.80812 0.06979 0.30469 0.0
C148 C 0.76194 0.03896 0.23071 0.0
C149 C 0.69028 0.97553 0.31719 0.0
O150 O 0.78243 0.05914 0.28595 0.0
O151 O 0.81 0.04413 0.31999 0.0
O152 O 0.71753 0.94556 0.25794 0.0
O153 O 0.76613 0.97363 0.28667 0.0
Co154 Co 0.98532 0.74386 0.28467 0.0
O155 O 0.97457 0.77316 0.25789 0.0
O156 O 0.96455 0.71035 0.25353 0.0
C157 C 0.04644 0.79362 0.301 0.0
O158 O 0.99261 0.704 0.30707 0.0
Co159 Co 0.9866 0.76828 0.34215 0.0
O160 O 0.99929 0.72364 0.34872 0.0
C161 C 0.91057 0.73054 0.31332 0.0
C162 C 0.95964 0.73964 0.24408 0.0
C163 C 0.99881 0.69986 0.33098 0.0
O164 O 0.92747 0.71992 0.29604 0.0
O165 O 0.93014 0.75456 0.33211 0.0
O166 O 0.04493 0.77439 0.2797 0.0
O167 O 0.01158 0.78679 0.30874 0.0
Co168 Co 0.71434 0.74179 0.73952 0.0
O169 O 0.72357 0.69642 0.74669 0.0
O170 O 0.76279 0.74927 0.72232 0.0
C171 C 0.69619 0.75248 0.77943 0.0
O172 O 0.71568 0.79396 0.7276 0.0
Co173 Co 0.62908 0.73369 0.7454 0.0
O174 O 0.66073 0.79432 0.74264 0.0
C175 C 0.64424 0.69281 0.7022 0.0
C176 C 0.75354 0.71301 0.73063 0.0
C177 C 0.69547 0.81224 0.73226 0.0
O178 O 0.68201 0.71068 0.70825 0.0
O179 O 0.61773 0.69611 0.71526 0.0
O180 O 0.73446 0.76811 0.77397 0.0
O181 O 0.67165 0.72795 0.76215 0.0
Co182 Co 0.25268 0.96492 0.72822 0.0
O183 O 0.21489 0.95236 0.75637 0.0
O184 O 0.25394 0.9251 0.75187 0.0
C185 C 0.28241 0.03478 0.72612 0.0
O186 O 0.29597 0.9701 0.70325 0.0
Co187 Co 0.24566 0.00446 0.67657 0.0
O188 O 0.29663 0.00541 0.66796 0.0
C189 C 0.18679 0.91848 0.68774 0.0
C190 C 0.22538 0.92622 0.76465 0.0
C191 C 0.31109 0.98748 0.68161 0.0
O192 O 0.20807 0.9186 0.70725 0.0
O193 O 0.19473 0.95065 0.67498 0.0
O194 O 0.29384 0.01782 0.74375 0.0
O195 O 0.25017 0.00943 0.71365 0.0
Co196 Co 0.04959 0.28672 0.73724 0.0
O197 O 0.99423 0.2712 0.7458 0.0
O198 O 0.01089 0.24518 0.71327 0.0
C199 C 0.07604 0.28788 0.77716 0.0
O200 O 0.10195 0.29369 0.72237 0.0
Co201 Co 0.1223 0.37033 0.75676 0.0
O202 O 0.15537 0.35077 0.73898 0.0
C203 C 0.06616 0.36939 0.7175 0.0
C204 C 0.98252 0.24771 0.7254 0.0
C205 C 0.14031 0.31854 0.72491 0.0
O206 O 0.05173 0.33067 0.71403 0.0
O207 O 0.09128 0.38991 0.73558 0.0
O208 O 0.05404 0.25311 0.765 0.0
O209 O 0.07594 0.31877 0.76661 0.0
Co210 Co 0.92092 0.56959 0.60974 0.0
O211 O 0.89396 0.52245 0.58668 0.0
O212 O 0.95154 0.57854 0.57822 0.0
C213 C 0.86784 0.57647 0.6238 0.0
O214 O 0.95815 0.62392 0.62734 0.0
Co215 Co 0.90465 0.56364 0.66895 0.0
O216 O 0.94213 0.62385 0.66897 0.0
C217 C 0.95051 0.52746 0.64696 0.0
C218 C 0.92533 0.54098 0.57176 0.0
C219 C 0.96272 0.64199 0.64917 0.0
O220 O 0.95154 0.54377 0.62508 0.0
O221 O 0.93116 0.52945 0.66636 0.0
O222 O 0.88384 0.59105 0.60141 0.0
O223 O 0.88057 0.55421 0.63469 0.0
Co224 Co 0.43547 0.34726 0.60548 0.0
O225 O 0.47418 0.35853 0.57844 0.0
O226 O 0.42277 0.36979 0.57523 0.0
C227 C 0.42451 0.28502 0.61963 0.0
O228 O 0.38957 0.33948 0.62871 0.0
Co229 Co 0.45942 0.34251 0.66253 0.0
O230 O 0.4003 0.32008 0.66776 0.0
C231 C 0.49682 0.42167 0.63633 0.0
C232 C 0.45614 0.37454 0.56542 0.0
C233 C 0.37802 0.32539 0.65151 0.0
O234 O 0.47036 0.40509 0.61819 0.0
O235 O 0.50036 0.40121 0.65487 0.0
O236 O 0.4056 0.28704 0.59905 0.0
O237 O 0.45265 0.32005 0.62805 0.0
Co238 Co 0.66226 0.07303 0.6154 0.0
O239 O 0.64361 0.09078 0.58527 0.0
O240 O 0.64057 0.03087 0.58906 0.0
C241 C 0.72339 0.12869 0.62561 0.0
O242 O 0.67774 0.0429 0.64146 0.0
Co243 Co 0.6711 0.11123 0.6699 0.0
O244 O 0.69397 0.0758 0.67977 0.0
C245 C 0.59007 0.0594 0.64806 0.0
C246 C 0.6309 0.05408 0.57582 0.0
C247 C 0.69171 0.04803 0.66463 0.0
O248 O 0.6059 0.04932 0.62972 0.0
O249 O 0.61112 0.08618 0.66529 0.0
O250 O 0.72023 0.10467 0.60647 0.0
O251 O 0.68913 0.12244 0.63433 0.0
H252 H 0.43285 0.99593 0.05492 0.0
H253 H 0.49291 0.11811 0.02215 0.0
H254 H 0.52752 0.09688 0.99128 0.0
H255 H 0.51968 0.97757 0.04711 0.0
H256 H 0.48757 0.92413 0.03894 0.0
H257 H 0.46928 0.94942 0.05991 0.0
H258 H 0.40753 0.92749 0.02945 0.0
H259 H 0.42595 0.90267 1.00822 0.0
H260 H 0.41571 0.94147 0.99594 0.0
H261 H 0.55227 0.06196 0.96152 0.0
H262 H 0.57039 0.01679 0.93752 0.0
H263 H 0.49636 0.91663 0.98891 0.0
C264 C 0.45407 0.01842 0.04168 0.0
C265 C 0.46016 0.05891 0.0412 0.0
C266 C 0.4876 0.08701 0.02308 0.0
C267 C 0.50744 0.07522 1.00532 0.0
C268 C 0.49993 0.035 1.00569 0.0
C269 C 0.4744 0.00706 0.02359 0.0
C270 C 0.47136 0.96548 0.0192 0.0
C271 C 0.48796 0.95344 0.04269 0.0
C272 C 0.42753 0.93232 0.01282 0.0
C273 C 0.49861 0.97445 0.99594 0.0
C274 C 0.51466 0.01479 0.98849 0.0
C275 C 0.54008 0.03035 0.9673 0.0
C276 C 0.55003 0.00432 0.95362 0.0
C277 C 0.53483 0.96301 0.96112 0.0
C278 C 0.50849 0.94798 0.98255 0.0
H279 H 0.92792 0.40238 0.01742 0.0
H280 H 0.02784 0.42398 0.06822 0.0
H281 H 0.07284 0.487 0.04433 0.0
H282 H 0.98521 0.43901 0.95906 0.0
H283 H 0.9582 0.46366 0.947 0.0
H284 H 0.93323 0.41989 0.96786 0.0
H285 H 0.91573 0.46202 0.99939 0.0
H286 H 0.94022 0.50576 0.97848 0.0
H287 H 0.95569 0.51034 0.0118 0.0
H288 H 0.1077 0.54715 0.0147 0.0
H289 H 0.12902 0.6039 0.98401 0.0
H290 H 1.00706 0.54673 0.95216 0.0
C291 C 0.95918 0.42063 0.02367 0.0
C292 C 0.97414 0.40807 0.04496 0.0
C293 C 0.01535 0.43289 0.05232 0.0
C294 C 0.0413 0.46872 0.03868 0.0
C295 C 0.02576 0.47998 0.01774 0.0
C296 C 0.98553 0.45706 1.01043 0.0
C297 C 0.97656 0.47693 0.98755 0.0
C298 C 0.96246 0.44815 0.96397 0.0
C299 C 0.94519 0.4895 0.99474 0.0
C300 C 0.01803 0.51452 0.98312 0.0
C301 C 0.04591 0.51527 1.00071 0.0
C302 C 0.08607 0.54684 1.0009 0.0
C303 C 0.09794 0.57899 0.98323 0.0
C304 C 0.07 0.57997 0.96538 0.0
C305 C 0.02946 0.54674 0.96515 0.0
H306 H 0.43255 0.51673 0.99204 0.0
H307 H 0.45282 0.43561 0.94257 0.0
H308 H 0.51487 0.45282 0.96689 0.0
H309 H 0.54022 0.59589 0.99755 0.0
H310 H 0.53683 0.60815 0.03067 0.0
H311 H 0.49318 0.58932 1.00963 0.0
H312 H 0.45192 0.5308 0.04172 0.0
H313 H 0.49564 0.54909 0.06267 0.0
H314 H 0.47022 0.49675 0.05115 0.0
H315 H 0.57326 0.47581 0.99689 0.0
H316 H 0.63066 0.51115 0.02709 0.0
H317 H 0.57816 0.58176 0.0572 0.0
C318 C 0.45035 0.50302 0.98616 0.0
C319 C 0.43732 0.47461 0.96519 0.0
C320 C 0.46172 0.45745 0.95831 0.0
C321 C 0.4971 0.46683 0.9722 0.0
C322 C 0.50862 0.49409 0.99292 0.0
C323 C 0.48662 0.51272 0.99966 0.0
C324 C 0.5073 0.54223 0.0223 0.0
C325 C 0.52014 0.58653 0.01457 0.0
C326 C 0.47961 0.52892 0.04586 0.0
C327 C 0.54415 0.53707 0.02713 0.0
C328 C 0.54368 0.50861 1.01005 0.0
C329 C 0.57406 0.4983 1.01027 0.0
C330 C 0.60659 0.51852 0.02768 0.0
C331 C 0.6092 0.54921 0.04479 0.0
C332 C 0.57692 0.558 0.04478 0.0
H333 H 0.09629 0.32158 0.38998 0.0
H334 H 0.15478 0.44385 0.35733 0.0
H335 H 0.18984 0.42334 0.32637 0.0
H336 H 0.18485 0.30536 0.38194 0.0
H337 H 0.15359 0.25176 0.37387 0.0
H338 H 0.13464 0.27636 0.39491 0.0
H339 H 0.07244 0.25301 0.36467 0.0
H340 H 0.09153 0.2289 0.34336 0.0
H341 H 0.0801 0.2669 0.33113 0.0
H342 H 0.21446 0.38925 0.29632 0.0
H343 H 0.23381 0.34571 0.27203 0.0
H344 H 0.16309 0.24445 0.3236 0.0
C345 C 0.1173 0.34429 0.37677 0.0
C346 C 0.12273 0.38464 0.37638 0.0
C347 C 0.14995 0.41294 0.35827 0.0
C348 C 0.17002 0.40151 0.34043 0.0
C349 C 0.16311 0.36146 0.34072 0.0
C350 C 0.13804 0.33333 0.35865 0.0
C351 C 0.13601 0.2921 0.3542 0.0
C352 C 0.1533 0.28072 0.37763 0.0
C353 C 0.09242 0.25822 0.34797 0.0
C354 C 0.16324 0.30145 0.3308 0.0
C355 C 0.17826 0.34172 0.32341 0.0
C356 C 0.20317 0.35776 0.3021 0.0
C357 C 0.21382 0.33251 0.28824 0.0
C358 C 0.20011 0.29134 0.29563 0.0
C359 C 0.17408 0.27563 0.31724 0.0
H360 H 0.58955 0.7383 0.35779 0.0
H361 H 0.69878 0.75122 0.39361 0.0
H362 H 0.7401 0.81006 0.36551 0.0
H363 H 0.62597 0.76316 0.29357 0.0
H364 H 0.60202 0.793 0.28622 0.0
H365 H 0.57998 0.75242 0.30956 0.0
H366 H 0.58198 0.80349 0.34387 0.0
H367 H 0.60328 0.84404 0.32048 0.0
H368 H 0.62913 0.84977 0.35077 0.0
H369 H 0.7702 0.86373 0.33164 0.0
H370 H 0.78766 0.91856 0.29994 0.0
H371 H 0.66015 0.87498 0.28601 0.0
C372 C 0.62217 0.75381 0.35992 0.0
C373 C 0.64078 0.73971 0.37801 0.0
C374 C 0.68359 0.76116 0.38013 0.0
C375 C 0.70743 0.79445 0.36399 0.0
C376 C 0.68826 0.80643 0.34577 0.0
C377 C 0.64662 0.78759 0.34405 0.0
C378 C 0.63402 0.80805 0.32337 0.0
C379 C 0.60901 0.77731 0.30191 0.0
C380 C 0.61072 0.82748 0.33533 0.0
C381 C 0.67511 0.84088 0.31351 0.0
C382 C 0.70582 0.83884 0.32664 0.0
C383 C 0.74639 0.86573 0.32137 0.0
C384 C 0.75601 0.89663 0.30311 0.0
C385 C 0.72544 0.90091 0.29009 0.0
C386 C 0.68426 0.87196 0.29504 0.0
H387 H 0.12339 0.80177 0.29568 0.0
H388 H 0.05309 0.83428 0.34576 0.0
H389 H 0.11015 0.86581 0.37659 0.0
H390 H 0.17369 0.77733 0.34614 0.0
H391 H 0.22179 0.79929 0.33022 0.0
H392 H 0.17567 0.77933 0.31147 0.0
H393 H 0.2031 0.84931 0.28869 0.0
H394 H 0.24946 0.86934 0.30718 0.0
H395 H 0.22046 0.89529 0.30779 0.0
H396 H 0.17431 0.89302 0.40298 0.0
H397 H 0.24267 0.91786 0.42145 0.0
H398 H 0.27376 0.86975 0.35488 0.0
C399 C 0.12017 0.81587 0.31301 0.0
C400 C 0.08333 0.81534 0.31812 0.0
C401 C 0.08063 0.83402 0.34122 0.0
C402 C 0.113 0.85205 0.35899 0.0
C403 C 0.1485 0.85158 0.35364 0.0
C404 C 0.15256 0.83434 0.33112 0.0
C405 C 0.19446 0.83853 0.33019 0.0
C406 C 0.19119 0.79609 0.32946 0.0
C407 C 0.21828 0.86468 0.30709 0.0
C408 C 0.21309 0.8607 0.35562 0.0
C409 C 0.18585 0.86768 0.36887 0.0
C410 C 0.19588 0.88771 0.39275 0.0
C411 C 0.23487 0.90159 0.40319 0.0
C412 C 0.26386 0.89568 0.38988 0.0
C413 C 0.25239 0.87453 0.36579 0.0
H414 H 0.86986 0.65225 0.62431 0.0
H415 H 0.81238 0.53188 0.65942 0.0
H416 H 0.77896 0.55431 0.69057 0.0
H417 H 0.88969 0.70908 0.68295 0.0
H418 H 0.8791 0.7475 0.67042 0.0
H419 H 0.89667 0.72184 0.64924 0.0
H420 H 0.83391 0.69895 0.61958 0.0
H421 H 0.81648 0.72511 0.64046 0.0
H422 H 0.78398 0.6714 0.63313 0.0
H423 H 0.75425 0.58985 0.71962 0.0
H424 H 0.73545 0.63503 0.74276 0.0
H425 H 0.80791 0.73391 0.69014 0.0
C426 C 0.84933 0.63037 0.63809 0.0
C427 C 0.84331 0.5899 0.63907 0.0
C428 C 0.81721 0.56276 0.65803 0.0
C429 C 0.79818 0.57531 0.67596 0.0
C430 C 0.80546 0.61545 0.67501 0.0
C431 C 0.83002 0.6426 0.65646 0.0
C432 C 0.83323 0.68438 0.66047 0.0
C433 C 0.87729 0.71767 0.6661 0.0
C434 C 0.81586 0.69562 0.63701 0.0
C435 C 0.80681 0.67633 0.68411 0.0
C436 C 0.79129 0.6363 0.69213 0.0
C437 C 0.76618 0.62126 0.71347 0.0
C438 C 0.75584 0.64737 0.72666 0.0
C439 C 0.77034 0.68835 0.71863 0.0
C440 C 0.79663 0.703 0.69711 0.0
H441 H 0.34795 0.21481 0.62189 0.0
H442 H 0.46857 0.27188 0.65573 0.0
H443 H 0.44555 0.21594 0.68731 0.0
H444 H 0.29376 0.18039 0.68119 0.0
H445 H 0.25418 0.13244 0.66821 0.0
H446 H 0.28028 0.17606 0.64744 0.0
H447 H 0.29902 0.13322 0.61724 0.0
H448 H 0.27271 0.08958 0.63803 0.0
H449 H 0.32502 0.10819 0.63041 0.0
H450 H 0.409 0.15409 0.71647 0.0
H451 H 0.36223 0.08964 0.73894 0.0
H452 H 0.26496 0.07342 0.68736 0.0
C453 C 0.36966 0.21503 0.6356 0.0
C454 C 0.41033 0.24771 0.63603 0.0
C455 C 0.4374 0.24719 0.6548 0.0
C456 C 0.42456 0.21555 0.67296 0.0
C457 C 0.38426 0.1843 0.67242 0.0
C458 C 0.35718 0.18359 0.65414 0.0
C459 C 0.31539 0.1465 0.6581 0.0
C460 C 0.28408 0.15969 0.66409 0.0
C461 C 0.30227 0.11767 0.63454 0.0
C462 C 0.32324 0.1269 0.68147 0.0
C463 C 0.36316 0.14909 0.68942 0.0
C464 C 0.37759 0.13654 0.7104 0.0
C465 C 0.35074 0.09999 0.72323 0.0
C466 C 0.30977 0.07633 0.71515 0.0
C467 C 0.29601 0.09065 0.69419 0.0
H468 H 0.79718 0.1293 0.62279 0.0
H469 H 0.73543 0.18101 0.66525 0.0
H470 H 0.79306 0.2139 0.69562 0.0
H471 H 0.8421 0.10855 0.67771 0.0
H472 H 0.88959 0.12275 0.66252 0.0
H473 H 0.84399 0.10358 0.6433 0.0
H474 H 0.87757 0.16894 0.61528 0.0
H475 H 0.92346 0.1881 0.63418 0.0
H476 H 0.89938 0.21869 0.63057 0.0
H477 H 0.85557 0.23877 0.723 0.0
H478 H 0.92223 0.26029 0.74288 0.0
H479 H 0.94715 0.19593 0.68274 0.0
C480 C 0.79612 0.14815 0.6382 0.0
C481 C 0.76143 0.1525 0.64143 0.0
C482 C 0.76135 0.17705 0.66218 0.0
C483 C 0.79401 0.19583 0.67969 0.0
C484 C 0.82719 0.19026 0.67636 0.0
C485 C 0.8289 0.16754 0.65596 0.0
C486 C 0.86863 0.1669 0.65697 0.0
C487 C 0.86059 0.12283 0.66032 0.0
C488 C 0.89375 0.18685 0.63281 0.0
C489 C 0.88886 0.19289 0.68101 0.0
C490 C 0.86402 0.20554 0.69198 0.0
C491 C 0.87538 0.22923 0.71446 0.0
C492 C 0.9134 0.24117 0.72575 0.0
C493 C 0.9403 0.22992 0.71458 0.0
C494 C 0.92744 0.20502 0.69193 0.0
H495 H 0.32295 0.08856 0.14385 0.0
H496 H 0.44432 0.19013 0.13163 0.0
H497 H 0.42989 0.23378 0.16021 0.0
H498 H 0.27319 0.14819 0.14401 0.0
H499 H 0.23777 0.11887 0.1688 0.0
H500 H 0.25773 0.09477 0.14819 0.0
H501 H 0.28342 0.07262 0.188 0.0
H502 H 0.26303 0.0961 0.20878 0.0
H503 H 0.31576 0.11077 0.21138 0.0
H504 H 0.40171 0.26729 0.1892 0.0
H505 H 0.36435 0.28685 0.21906 0.0
H506 H 0.26021 0.16417 0.21305 0.0
C507 C 0.34672 0.11985 0.1474 0.0
C508 C 0.38501 0.13571 0.13541 0.0
C509 C 0.41498 0.17697 0.14061 0.0
C510 C 0.4069 0.20215 0.15673 0.0
C511 C 0.36864 0.18584 0.1677 0.0
C512 C 0.33913 0.1455 0.16349 0.0
C513 C 0.30048 0.13566 0.17765 0.0
C514 C 0.2652 0.12366 0.15852 0.0
C515 C 0.29006 0.10178 0.19764 0.0
C516 C 0.31287 0.1767 0.19063 0.0
C517 C 0.3523 0.20521 0.18443 0.0
C518 C 0.37087 0.24514 0.19416 0.0
C519 C 0.3492 0.25602 0.21112 0.0
C520 C 0.30906 0.22731 0.21844 0.0
C521 C 0.29053 0.18715 0.20763 0.0
H522 H 0.91636 0.21613 0.13372 0.0
H523 H 0.82212 0.2476 0.12251 0.0
H524 H 0.77765 0.19148 0.15151 0.0
H525 H 0.85204 0.10724 0.13586 0.0
H526 H 0.88 0.09878 0.161 0.0
H527 H 0.90558 0.14219 0.13995 0.0
H528 H 0.93135 0.19149 0.17926 0.0
H529 H 0.90637 0.14817 0.20045 0.0
H530 H 0.89553 0.1896 0.20241 0.0
H531 H 0.74154 0.12957 0.17972 0.0
H532 H 0.71874 0.07144 0.20937 0.0
H533 H 0.83622 0.07959 0.2049 0.0
C534 C 0.8866 0.21165 0.13769 0.0
C535 C 0.87302 0.23681 0.12575 0.0
C536 C 0.83362 0.22937 0.13143 0.0
C537 C 0.80792 0.19722 0.1478 0.0
C538 C 0.82187 0.17259 0.15877 0.0
C539 C 0.86053 0.17979 0.15436 0.0
C540 C 0.86795 0.14886 0.16902 0.0
C541 C 0.87693 0.12272 0.15034 0.0
C542 C 0.90234 0.17084 0.18897 0.0
C543 C 0.8273 0.12295 0.18213 0.0
C544 C 0.8012 0.13718 0.17568 0.0
C545 C 0.76187 0.11842 0.18501 0.0
C546 C 0.74911 0.08509 0.20185 0.0
C547 C 0.7754 0.07039 0.20963 0.0
C548 C 0.81506 0.08952 0.19925 0.0
H549 H 0.91741 0.66994 0.21266 0.0
H550 H 0.93512 0.79191 0.22617 0.0
H551 H 0.87982 0.77733 0.19558 0.0
H552 H 0.89313 0.66717 0.14255 0.0
H553 H 0.85612 0.61323 0.14271 0.0
H554 H 0.8985 0.63346 0.1649 0.0
H555 H 0.84884 0.60306 0.20288 0.0
H556 H 0.80632 0.58341 0.18084 0.0
H557 H 0.81022 0.61689 0.20694 0.0
H558 H 0.81948 0.74876 0.16706 0.0
H559 H 0.76346 0.71186 0.13634 0.0
H560 H 0.78408 0.60815 0.13731 0.0
C561 C 0.91024 0.6939 0.20874 0.0
C562 C 0.93107 0.73233 0.22198 0.0
C563 C 0.92018 0.76247 0.21637 0.0
C564 C 0.88846 0.75434 0.19906 0.0
C565 C 0.86787 0.71601 0.18702 0.0
C566 C 0.87875 0.68649 0.19103 0.0
C567 C 0.8514 0.64802 0.17504 0.0
C568 C 0.87628 0.64 0.15512 0.0
C569 C 0.8278 0.61063 0.19247 0.0
C570 C 0.82307 0.6604 0.16189 0.0
C571 C 0.83327 0.69973 0.16943 0.0
C572 C 0.8116 0.71819 0.16074 0.0
C573 C 0.77954 0.6967 0.14327 0.0
C574 C 0.76906 0.65697 0.13411 0.0
C575 C 0.79092 0.63827 0.14396 0.0
H576 H 0.67201 0.90881 0.87591 0.0
H577 H 0.54734 0.81135 0.884 0.0
H578 H 0.5605 0.76698 0.8556 0.0
H579 H 0.67873 0.88631 0.80682 0.0
H580 H 0.73085 0.89897 0.80965 0.0
H581 H 0.71178 0.92404 0.83017 0.0
H582 H 0.73577 0.90059 0.87024 0.0
H583 H 0.75426 0.87485 0.84985 0.0
H584 H 0.71824 0.84674 0.87464 0.0
H585 H 0.58705 0.73113 0.82913 0.0
H586 H 0.62263 0.70833 0.80023 0.0
H587 H 0.73058 0.82847 0.80579 0.0
C588 C 0.64733 0.87837 0.87133 0.0
C589 C 0.60844 0.86374 0.8823 0.0
C590 C 0.57717 0.8236 0.87583 0.0
C591 C 0.58446 0.79794 0.85981 0.0
C592 C 0.62312 0.8128 0.84989 0.0
C593 C 0.6539 0.85236 0.8548 0.0
C594 C 0.69232 0.86052 0.84082 0.0
C595 C 0.70411 0.89448 0.82068 0.0
C596 C 0.72721 0.87132 0.86004 0.0
C597 C 0.67847 0.81903 0.82789 0.0
C598 C 0.63841 0.79212 0.83366 0.0
C599 C 0.6183 0.75202 0.82432 0.0
C600 C 0.63897 0.73929 0.80796 0.0
C601 C 0.67956 0.76632 0.80074 0.0
C602 C 0.69986 0.80674 0.81125 0.0
H603 H 0.17526 0.749 0.87116 0.0
H604 H 0.05836 0.74148 0.87862 0.0
H605 H 0.07749 0.79511 0.84605 0.0
H606 H 0.2337 0.85771 0.86241 0.0
H607 H 0.26676 0.85632 0.83835 0.0
H608 H 0.24418 0.81594 0.86179 0.0
H609 H 0.21344 0.76163 0.82528 0.0
H610 H 0.23635 0.8018 0.80173 0.0
H611 H 0.18255 0.76663 0.80062 0.0
H612 H 0.11018 0.85334 0.81516 0.0
H613 H 0.15153 0.90666 0.78372 0.0
H614 H 0.24684 0.87621 0.79269 0.0
C615 C 0.15344 0.7581 0.86558 0.0
C616 C 0.11507 0.74053 0.87772 0.0
C617 C 0.08782 0.75399 0.86986 0.0
C618 C 0.09847 0.78476 0.85132 0.0
C619 C 0.13657 0.80207 0.84025 0.0
C620 C 0.16349 0.78885 0.84665 0.0
C621 C 0.20243 0.81289 0.83138 0.0
C622 C 0.23893 0.83715 0.84957 0.0
C623 C 0.20908 0.78401 0.8137 0.0
C624 C 0.19317 0.84172 0.81573 0.0
C625 C 0.15507 0.83507 0.82147 0.0
C626 C 0.13992 0.85853 0.81033 0.0
C627 C 0.16385 0.88907 0.79254 0.0
C628 C 0.20259 0.89597 0.78554 0.0
C629 C 0.21738 0.87183 0.79749 0.0
H630 H 0.25538 0.41746 0.88037 0.0
H631 H 0.26286 0.30705 0.89171 0.0
H632 H 0.2081 0.27042 0.8598 0.0
H633 H 0.14772 0.36735 0.87366 0.0
H634 H 0.14738 0.4007 0.84886 0.0
H635 H 0.18875 0.41957 0.87175 0.0
H636 H 0.23984 0.44037 0.83449 0.0
H637 H 0.19863 0.42198 0.8115 0.0
H638 H 0.23332 0.40255 0.81066 0.0
H639 H 0.14979 0.24393 0.82789 0.0
H640 H 0.09584 0.23172 0.79621 0.0
H641 H 0.1254 0.35856 0.80477 0.0
C642 C 0.24598 0.38582 0.87579 0.0
C643 C 0.26385 0.36536 0.88865 0.0
C644 C 0.24998 0.32365 0.88225 0.0
C645 C 0.21867 0.3024 0.86411 0.0
C646 C 0.20111 0.32302 0.85224 0.0
C647 C 0.21448 0.36393 0.85758 0.0
C648 C 0.18984 0.37848 0.84219 0.0
C649 C 0.16708 0.39234 0.86019 0.0
C650 C 0.21703 0.41289 0.82361 0.0
C651 C 0.1606 0.33941 0.82758 0.0
C652 C 0.16756 0.30773 0.83373 0.0
C653 C 0.1442 0.26862 0.82287 0.0
C654 C 0.11339 0.26184 0.80496 0.0
C655 C 0.10611 0.29399 0.79792 0.0
C656 C 0.13002 0.33319 0.80967 0.0
H657 H 0.05874 0.50159 0.46602 0.0
H658 H 0.97899 0.37193 0.48039 0.0
H659 H 0.94098 0.38864 0.51137 0.0
H660 H 0.06 0.53591 0.53362 0.0
H661 H 0.06011 0.58203 0.52402 0.0
H662 H 0.08284 0.56037 0.5037 0.0
H663 H 0.03712 0.55785 0.46569 0.0
H664 H 0.01379 0.57887 0.48602 0.0
H665 H 0.98296 0.53079 0.4694 0.0
H666 H 0.90727 0.41764 0.53795 0.0
H667 H 0.88612 0.45811 0.56415 0.0
H668 H 0.98806 0.57055 0.53595 0.0
C669 C 0.03411 0.47688 0.47632 0.0
C670 C 0.02226 0.43524 0.47083 0.0
C671 C 0.98897 0.40394 0.48427 0.0
C672 C 0.96689 0.41311 0.50185 0.0
C673 C 0.97824 0.45401 0.50621 0.0
C674 C 0.01151 0.48559 0.49433 0.0
C675 C 0.01655 0.52688 0.50279 0.0
C676 C 0.0573 0.55284 0.51687 0.0
C677 C 0.01237 0.54996 0.4796 0.0
C678 C 0.98104 0.51333 0.52117 0.0
C679 C 0.95913 0.47105 0.52241 0.0
C680 C 0.92444 0.45082 0.53734 0.0
C681 C 0.91239 0.47421 0.55205 0.0
C682 C 0.93508 0.51768 0.55225 0.0
C683 C 0.96976 0.53741 0.53623 0.0
H684 H 0.50872 0.56068 0.46587 0.0
H685 H 0.62296 0.56404 0.45433 0.0
H686 H 0.60248 0.50686 0.48449 0.0
H687 H 0.50025 0.53414 0.5354 0.0
H688 H 0.4462 0.50054 0.53356 0.0
H689 H 0.47049 0.54354 0.51207 0.0
H690 H 0.43868 0.49419 0.47311 0.0
H691 H 0.41489 0.45096 0.49447 0.0
H692 H 0.44758 0.45167 0.46939 0.0
H693 H 0.56894 0.44649 0.51325 0.0
H694 H 0.52745 0.39147 0.54356 0.0
H695 H 0.4341 0.42542 0.5389 0.0
C696 C 0.52979 0.55005 0.47026 0.0
C697 C 0.56777 0.56735 0.45771 0.0
C698 C 0.59389 0.55167 0.46361 0.0
C699 C 0.58243 0.51893 0.4807 0.0
C700 C 0.54453 0.50169 0.49204 0.0
C701 C 0.51873 0.51697 0.4875 0.0
C702 C 0.47948 0.49197 0.50231 0.0
C703 C 0.47378 0.51917 0.522 0.0
C704 C 0.443 0.47096 0.48371 0.0
C705 C 0.48743 0.46043 0.51569 0.0
C706 C 0.5251 0.46662 0.50919 0.0
C707 C 0.53948 0.44151 0.51864 0.0
C708 C 0.51544 0.41001 0.53579 0.0
C709 C 0.47724 0.40359 0.54371 0.0
C710 C 0.4629 0.42901 0.53312 0.0
H711 H 0.58481 0.08399 0.55206 0.0
H712 H 0.60817 0.98226 0.55026 0.0
H713 H 0.55272 0.94631 0.51858 0.0
H714 H 0.47741 0.02357 0.54797 0.0
H715 H 0.47053 0.05825 0.52738 0.0
H716 H 0.5137 0.07773 0.54885 0.0
H717 H 0.56206 0.11084 0.5105 0.0
H718 H 0.51901 0.09203 0.48894 0.0
H719 H 0.55816 0.07953 0.48308 0.0
H720 H 0.49131 0.91871 0.48883 0.0
H721 H 0.4332 0.90503 0.4605 0.0
H722 H 0.44957 0.02456 0.48027 0.0
C723 C 0.5789 0.05461 0.54454 0.0
C724 C 0.60143 0.03629 0.55366 0.0
C725 C 0.59181 0.99727 0.54362 0.0
C726 C 0.5601 0.9764 0.52562 0.0
C727 C 0.53786 0.99471 0.51754 0.0
C728 C 0.54713 0.03319 0.52641 0.0
C729 C 0.51789 0.04553 0.51483 0.0
C730 C 0.49344 0.05163 0.53602 0.0
C731 C 0.54064 0.08428 0.49836 0.0
C732 C 0.49086 0.00806 0.49818 0.0
C733 C 0.50274 0.97896 0.50019 0.0
C734 C 0.48194 0.94145 0.48703 0.0
C735 C 0.44868 0.93377 0.47107 0.0
C736 C 0.43648 0.9635 0.4681 0.0
C737 C 0.45794 1.00105 0.48208 0.0
H738 H 0.24176 0.94838 0.06494 0.0
H739 H 0.32757 0.01515 1.0047 0.0
H740 H 0.29106 0.95521 0.97542 0.0
H741 H 0.23705 0.85471 0.053 0.0
H742 H 0.18418 0.82387 0.06063 0.0
H743 H 0.21413 0.87362 0.07532 0.0
H744 H 0.16342 0.89532 0.05818 0.0
H745 H 0.13334 0.84557 0.04332 0.0
H746 H 0.15177 0.89131 0.02419 0.0
H747 H 0.24522 0.88615 0.95321 0.0
H748 H 0.1999 0.8124 0.94228 0.0
H749 H 0.14889 0.79169 0.01863 0.0
C750 C 0.25248 0.95078 0.04543 0.0
C751 C 0.2871 0.98655 0.03694 0.0
C752 C 0.30089 0.98802 1.01151 0.0
C753 C 0.28023 0.95427 0.99473 0.0
C754 C 0.24618 0.91932 1.00382 0.0
C755 C 0.23277 0.91734 0.02871 0.0
C756 C 0.19801 0.87526 0.03482 0.0
C757 C 0.20903 0.85573 0.05726 0.0
C758 C 0.15935 0.87699 0.04045 0.0
C759 C 0.19428 0.8535 1.00965 0.0
C760 C 0.22157 0.87947 0.99171 0.0
C761 C 0.22372 0.86561 0.96712 0.0
C762 C 0.19792 0.82391 0.96102 0.0
C763 C 0.17137 0.79685 0.97973 0.0
C764 C 0.16916 0.812 1.00409 0.0
H765 H 0.05516 0.39446 0.01345 0.0
H766 H 1.00737 0.26358 0.02175 0.0
H767 H 0.07466 0.27259 1.01147 0.0
H768 H 0.12429 0.41252 0.96193 0.0
H769 H 0.16369 0.46073 0.97483 0.0
H770 H 0.11146 0.44382 0.98164 0.0
H771 H 0.12742 0.45039 0.03054 0.0
H772 H 0.17976 0.4674 0.02397 0.0
H773 H 0.15131 0.42369 0.04438 0.0
H774 H 0.14527 0.29522 0.99814 0.0
H775 H 0.21788 0.33083 0.9875 0.0
H776 H 0.22244 0.44828 0.99249 0.0
C777 C 0.05904 0.36781 0.01289 0.0
C778 C 0.0264 0.32824 0.01795 0.0
C779 C 0.03227 0.29401 0.01773 0.0
C780 C 0.07021 0.29886 0.01188 0.0
C781 C 0.10193 0.33828 1.00694 0.0
C782 C 0.09701 0.37228 1.00784 0.0
C783 C 0.13667 0.41145 1.00319 0.0
C784 C 0.13384 0.43341 0.97895 0.0
C785 C 0.14954 0.4399 0.02694 0.0
C786 C 0.16456 0.39405 0.9992 0.0
C787 C 0.14363 0.35172 1.00108 0.0
C788 C 0.16214 0.32836 0.99693 0.0
C789 C 0.20325 0.3488 0.99081 0.0
C790 C 0.22555 0.39216 0.98944 0.0
C791 C 0.20604 0.41511 0.99381 0.0
H792 H 0.672 0.73483 0.06422 0.0
H793 H 0.69853 0.68849 0.99507 0.0
H794 H 0.66242 0.71579 0.96878 0.0
H795 H 0.56981 0.71194 0.0431 0.0
H796 H 0.57508 0.75706 0.05898 0.0
H797 H 0.60046 0.7313 0.07194 0.0
H798 H 0.66915 0.79933 0.07028 0.0
H799 H 0.64411 0.82528 0.05735 0.0
H800 H 0.68551 0.82637 0.04021 0.0
H801 H 0.63198 0.75733 0.9503 0.0
H802 H 0.60428 0.80339 0.94141 0.0
H803 H 0.59266 0.81596 0.02343 0.0
C804 C 0.66983 0.73012 0.04354 0.0
C805 C 0.68829 0.71024 0.03146 0.0
C806 C 0.68452 0.7039 1.0045 0.0
C807 C 0.6641 0.71921 0.98952 0.0
C808 C 0.64677 0.73949 1.00206 0.0
C809 C 0.64875 0.74411 0.02854 0.0
C810 C 0.62852 0.76763 0.03748 0.0
C811 C 0.59125 0.74035 0.05384 0.0
C812 C 0.65863 0.80698 0.05218 0.0
C813 C 0.61636 0.77728 0.01184 0.0
C814 C 0.62706 0.76085 0.99156 0.0
C815 C 0.62252 0.76941 0.96602 0.0
C816 C 0.60694 0.79566 0.96116 0.0
C817 C 0.59574 0.81253 0.98176 0.0
C818 C 0.59988 0.80253 1.00732 0.0
H819 H 0.683 0.03395 0.96312 0.0
H820 H 0.65209 0.98247 0.03984 0.0
H821 H 0.71012 0.04524 0.05794 0.0
H822 H 0.79262 0.08858 0.97164 0.0
H823 H 0.79997 0.13245 0.95334 0.0
H824 H 0.75761 0.08237 0.94606 0.0
H825 H 0.70844 0.11048 0.95218 0.0
H826 H 0.75061 0.16061 0.95952 0.0
H827 H 0.70974 0.13577 0.98199 0.0
H828 H 0.77042 0.11274 0.06779 0.0
H829 H 0.82755 0.18346 0.06953 0.0
H830 H 0.81796 0.19372 0.98669 0.0
C831 C 0.68885 0.03578 0.98368 0.0
C832 C 0.66338 0.00335 1.00011 0.0
C833 C 0.67131 0.00705 0.02696 0.0
C834 C 0.70424 0.04246 0.03739 0.0
C835 C 0.72859 0.07401 0.02073 0.0
C836 C 0.72121 0.07127 0.99449 0.0
C837 C 0.7508 0.11069 0.98114 0.0
C838 C 0.77679 0.10305 0.96191 0.0
C839 C 0.72856 0.13056 0.96794 0.0
C840 C 0.77585 0.13599 1.00403 0.0
C841 C 0.76273 0.11393 0.02659 0.0
C842 C 0.78102 0.13037 0.05028 0.0
C843 C 0.81356 0.17058 0.05101 0.0
C844 C 0.82727 0.19417 0.02822 0.0
C845 C 0.80807 0.17652 1.00442 0.0
H846 H 0.8849 0.6951 0.07444 0.0
H847 H 0.79177 0.62107 0.01796 0.0
H848 H 0.84027 0.60785 0.99491 0.0
H849 H 0.96768 0.74132 0.03122 0.0
H850 H 1.00373 0.73921 0.053 0.0
H851 H 0.9615 0.74238 0.06554 0.0
H852 H 0.93997 0.6764 0.09203 0.0
H853 H 0.98214 0.673 0.07951 0.0
H854 H 0.93141 0.63025 0.07583 0.0
H855 H 0.89922 0.60682 0.97607 0.0
H856 H 0.96537 0.61513 0.96375 0.0
H857 H 0.01981 0.68521 0.03369 0.0
C858 C 0.87483 0.67613 0.05723 0.0
C859 C 0.83463 0.65923 0.04793 0.0
C860 C 0.82238 0.63418 0.0255 0.0
C861 C 0.84969 0.62651 0.01224 0.0
C862 C 0.88902 0.64352 0.02187 0.0
C863 C 0.9016 0.66746 0.04396 0.0
C864 C 0.9457 0.68183 0.05008 0.0
C865 C 0.97114 0.72898 0.04994 0.0
C866 C 0.95005 0.66432 0.0759 0.0
C867 C 0.95605 0.66303 0.02761 0.0
C868 C 0.92284 0.64116 1.01157 0.0
C869 C 0.92533 0.62328 0.98865 0.0
C870 C 0.96291 0.6282 0.98179 0.0
C871 C 0.99723 0.65025 0.99797 0.0
C872 C 0.99366 0.66739 0.02134 0.0
H873 H 0.33117 0.34349 0.04222 0.0
H874 H 0.41182 0.3674 0.97817 0.0
H875 H 0.42318 0.31118 0.9922 0.0
H876 H 0.3841 0.30973 0.08932 0.0
H877 H 0.33701 0.27003 0.10217 0.0
H878 H 0.34051 0.31652 0.08986 0.0
H879 H 0.27987 0.27328 0.05905 0.0
H880 H 0.2765 0.22676 0.07098 0.0
H881 H 0.28241 0.23757 0.03699 0.0
H882 H 0.42029 0.24945 1.00966 0.0
H883 H 0.40444 0.1845 0.03008 0.0
H884 H 0.32309 0.19719 0.08258 0.0
C885 C 0.35221 0.33755 0.03181 0.0
C886 C 0.37132 0.35979 1.00948 0.0
C887 C 0.39749 0.35069 0.99553 0.0
C888 C 0.40411 0.31897 1.00336 0.0
C889 C 0.38397 0.29663 0.02503 0.0
C890 C 0.35865 0.30542 0.03918 0.0
C891 C 0.33768 0.27384 0.0601 0.0
C892 C 0.35061 0.29373 0.08696 0.0
C893 C 0.29138 0.25155 0.05655 0.0
C894 C 0.35427 0.24537 0.05489 0.0
C895 C 0.38133 0.25962 0.03482 0.0
C896 C 0.39958 0.23817 0.02564 0.0
C897 C 0.39018 0.20116 0.03737 0.0
C898 C 0.36248 0.18567 0.058 0.0
C899 C 0.34434 0.2082 0.06687 0.0
H900 H 0.93924 0.25943 0.39586 0.0
H901 H 0.9699 0.3397 0.33002 0.0
H902 H 0.93286 0.27879 0.30119 0.0
H903 H 0.94808 0.1773 0.36287 0.0
H904 H 0.90685 0.13796 0.38092 0.0
H905 H 0.93867 0.18786 0.39516 0.0
H906 H 0.87512 0.19415 0.40409 0.0
H907 H 0.84317 0.14465 0.38958 0.0
H908 H 0.84165 0.18892 0.37774 0.0
H909 H 0.88431 0.20806 0.28103 0.0
H910 H 0.83625 0.13468 0.27085 0.0
H911 H 0.8424 0.10372 0.35062 0.0
C912 C 0.93873 0.26404 0.37529 0.0
C913 C 0.95696 0.3037 0.36493 0.0
C914 C 0.95606 0.30913 0.33806 0.0
C915 C 0.93506 0.27486 0.32167 0.0
C916 C 0.91622 0.23584 0.33265 0.0
C917 C 0.91878 0.23046 0.35883 0.0
C918 C 0.89543 0.18593 0.36627 0.0
C919 C 0.92397 0.17141 0.37692 0.0
C920 C 0.86186 0.17798 0.38554 0.0
C921 C 0.87806 0.16691 0.34037 0.0
C922 C 0.89012 0.19587 0.3211 0.0
C923 C 0.87532 0.18508 0.2959 0.0
C924 C 0.84789 0.14352 0.29033 0.0
C925 C 0.83606 0.11363 0.30991 0.0
C926 C 0.85147 0.12574 0.33512 0.0
H927 H 0.86676 0.76842 0.32312 0.0
H928 H 0.85493 0.65164 0.301 0.0
H929 H 0.78031 0.61937 0.30207 0.0
H930 H 0.78796 0.73185 0.36632 0.0
H931 H 0.77008 0.76647 0.35763 0.0
H932 H 0.82231 0.78143 0.35299 0.0
H933 H 0.81633 0.79474 0.30466 0.0
H934 H 0.7641 0.78048 0.30915 0.0
H935 H 0.77725 0.75474 0.28502 0.0
H936 H 0.70823 0.59815 0.31238 0.0
H937 H 0.64327 0.59106 0.32692 0.0
H938 H 0.70114 0.72282 0.33677 0.0
C939 C 0.84833 0.73619 0.31818 0.0
C940 C 0.86628 0.71231 0.31215 0.0
C941 C 0.84151 0.67034 0.30561 0.0
C942 C 0.79921 0.65182 0.30614 0.0
C943 C 0.78232 0.67608 0.31246 0.0
C944 C 0.80608 0.71756 0.31781 0.0
C945 C 0.78043 0.73649 0.32471 0.0
C946 C 0.79082 0.75514 0.35203 0.0
C947 C 0.78479 0.7685 0.30468 0.0
C948 C 0.73865 0.69889 0.3234 0.0
C949 C 0.74036 0.66428 0.31641 0.0
C950 C 0.70625 0.62517 0.31701 0.0
C951 C 0.66959 0.62137 0.32523 0.0
C952 C 0.66735 0.65655 0.33211 0.0
C953 C 0.70202 0.69574 0.33069 0.0
H954 H 0.24402 0.1185 0.3429 0.0
H955 H 0.34096 0.20283 0.29319 0.0
H956 H 0.38069 0.17003 0.30485 0.0
H957 H 0.3043 0.11655 0.39277 0.0
H958 H 0.27391 0.0626 0.39967 0.0
H959 H 0.25075 0.0897 0.38559 0.0
H960 H 0.22306 0.03757 0.34767 0.0
H961 H 0.246 0.01012 0.36174 0.0
H962 H 0.25754 0.02839 0.32913 0.0
H963 H 0.41431 0.13619 0.32668 0.0
H964 H 0.43648 0.09692 0.35404 0.0
H965 H 0.31661 0.03007 0.38667 0.0
C966 C 0.27328 0.12956 0.33413 0.0
C967 C 0.28934 0.16342 0.31724 0.0
C968 C 0.32782 0.17695 0.30617 0.0
C969 C 0.35075 0.15853 0.31265 0.0
C970 C 0.33453 0.126 0.32981 0.0
C971 C 0.29638 0.11097 0.34002 0.0
C972 C 0.28683 0.07642 0.35871 0.0
C973 C 0.27847 0.08697 0.38578 0.0
C974 C 0.25125 0.03571 0.34871 0.0
C975 C 0.32621 0.07568 0.35815 0.0
C976 C 0.35332 0.10461 0.34135 0.0
C977 C 0.39308 0.11265 0.33938 0.0
C978 C 0.40547 0.09047 0.355 0.0
C979 C 0.37796 0.06029 0.37192 0.0
C980 C 0.33776 0.05241 0.3733 0.0
H981 H 0.464 0.53466 0.32696 0.0
H982 H 0.47667 0.5251 0.40941 0.0
H983 H 0.41733 0.45503 0.40861 0.0
H984 H 0.35356 0.47479 0.32261 0.0
H985 H 0.35382 0.45026 0.29282 0.0
H986 H 0.39453 0.50118 0.30036 0.0
H987 H 0.44657 0.47656 0.29444 0.0
H988 H 0.40606 0.42563 0.28692 0.0
H989 H 0.44121 0.43343 0.31275 0.0
H990 H 0.35742 0.3856 0.39857 0.0
H991 H 0.30528 0.31956 0.3794 0.0
H992 H 0.33551 0.37343 0.30328 0.0
C993 C 0.45375 0.51801 0.34487 0.0
C994 C 0.47437 0.53518 0.36826 0.0
C995 C 0.46099 0.51228 0.39128 0.0
C996 C 0.42729 0.47264 0.39105 0.0
C997 C 0.40777 0.45632 0.36758 0.0
C998 C 0.42074 0.47811 0.34488 0.0
C999 C 0.39674 0.4523 0.32196 0.0
C1000 C 0.37327 0.47074 0.30866 0.0
C1001 C 0.42429 0.44665 0.30291 0.0
C1002 C 0.36847 0.41257 0.33529 0.0
C1003 C 0.37477 0.41566 0.36164 0.0
C1004 C 0.35219 0.38276 0.37796 0.0
C1005 C 0.32268 0.34549 0.36695 0.0
C1006 C 0.3168 0.34149 0.33992 0.0
C1007 C 0.33976 0.37558 0.32401 0.0
H1008 H 0.66911 0.98651 0.36557 0.0
H1009 H 0.62188 0.94853 0.28793 0.0
H1010 H 0.55625 0.94057 0.3012 0.0
H1011 H 0.57363 0.92129 0.40012 0.0
H1012 H 0.58386 0.96071 0.42364 0.0
H1013 H 0.62516 0.958 0.409 0.0
H1014 H 0.65612 0.03356 0.39434 0.0
H1015 H 0.61493 0.03644 0.40884 0.0
H1016 H 0.6258 0.0484 0.37523 0.0
H1017 H 0.49702 0.93994 0.3223 0.0
H1018 H 0.45022 0.95175 0.3488 0.0
H1019 H 0.5377 0.99486 0.41185 0.0
C1020 C 0.64459 0.9756 0.35156 0.0
C1021 C 0.65026 0.96767 0.32581 0.0
C1022 C 0.61798 0.9546 0.30778 0.0
C1023 C 0.58059 0.94982 0.31517 0.0
C1024 C 0.57614 0.95863 0.34059 0.0
C1025 C 0.60732 0.97147 0.3585 0.0
C1026 C 0.59594 0.98264 0.38391 0.0
C1027 C 0.59456 0.95394 0.40544 0.0
C1028 C 0.62492 0.02795 0.39098 0.0
C1029 C 0.55394 0.97502 0.37728 0.0
C1030 C 0.54273 0.96029 0.3524 0.0
C1031 C 0.50539 0.95132 0.34185 0.0
C1032 C 0.479 0.95806 0.35704 0.0
C1033 C 0.49045 0.97441 0.38228 0.0
C1034 C 0.52828 0.9826 0.39253 0.0
H1035 H 0.97796 0.65586 0.37581 0.0
H1036 H 0.03416 0.66677 0.30174 0.0
H1037 H 0.04349 0.60805 0.31241 0.0
H1038 H 0.0397 0.62412 0.41305 0.0
H1039 H 0.99767 0.58827 0.43215 0.0
H1040 H 0.99848 0.6333 0.41955 0.0
H1041 H 0.92846 0.58694 0.39775 0.0
H1042 H 0.92791 0.54192 0.4101 0.0
H1043 H 0.92218 0.54671 0.37598 0.0
H1044 H 0.04629 0.54875 0.33046 0.0
H1045 H 0.03899 0.48864 0.35392 0.0
H1046 H 0.97722 0.51266 0.41554 0.0
C1047 C 0.99272 0.64616 0.36204 0.0
C1048 C 1.00562 0.66587 0.33803 0.0
C1049 C 0.02405 0.65195 0.32022 0.0
C1050 C 0.02962 0.6188 0.32614 0.0
C1051 C 0.01618 0.59972 0.34982 0.0
C1052 C 0.99788 0.61259 0.36746 0.0
C1053 C 0.98413 0.58502 0.39086 0.0
C1054 C 1.00634 0.60913 0.41535 0.0
C1055 C 0.93793 0.5639 0.39383 0.0
C1056 C 0.99732 0.5545 0.38347 0.0
C1057 C 0.01624 0.56404 0.35988 0.0
C1058 C 0.03153 0.54088 0.34895 0.0
C1059 C 0.0273 0.50688 0.36246 0.0
C1060 C 1.00743 0.49601 0.38648 0.0
C1061 C 0.9922 0.52012 0.3971 0.0
H1062 H 0.56963 0.46817 0.66119 0.0
H1063 H 0.48144 0.47681 0.61201 0.0
H1064 H 0.51949 0.55204 0.6165 0.0
H1065 H 0.58154 0.53866 0.70512 0.0
H1066 H 0.63536 0.56117 0.71028 0.0
H1067 H 0.60616 0.50919 0.69895 0.0
H1068 H 0.65307 0.5271 0.65949 0.0
H1069 H 0.68236 0.57943 0.6708 0.0
H1070 H 0.66064 0.56874 0.63877 0.0
H1071 H 0.55572 0.62199 0.63485 0.0
H1072 H 0.59152 0.68291 0.66328 0.0
H1073 H 0.66124 0.63194 0.69675 0.0
C1074 C 0.55901 0.48604 0.65083 0.0
C1075 C 0.52252 0.46673 0.63643 0.0
C1076 C 0.5094 0.49099 0.62313 0.0
C1077 C 0.53093 0.53378 0.62544 0.0
C1078 C 0.56612 0.55188 0.64048 0.0
C1079 C 0.58066 0.52889 0.65248 0.0
C1080 C 0.61691 0.55548 0.66959 0.0
C1081 C 0.6095 0.54022 0.69763 0.0
C1082 C 0.65553 0.55783 0.65902 0.0
C1083 C 0.6183 0.59624 0.66694 0.0
C1084 C 0.58911 0.59369 0.64976 0.0
C1085 C 0.57985 0.6251 0.6475 0.0
C1086 C 0.60013 0.65945 0.66371 0.0
C1087 C 0.62967 0.6622 0.68148 0.0
C1088 C 0.63991 0.63104 0.68244 0.0
H1089 H 0.543 0.05082 0.68977 0.0
H1090 H 0.53656 0.02541 0.60773 0.0
H1091 H 0.46279 0.99878 0.60805 0.0
H1092 H 0.44515 0.95991 0.70568 0.0
H1093 H 0.43398 0.98735 0.72971 0.0
H1094 H 0.48579 1.00175 0.72334 0.0
H1095 H 0.50241 0.07637 0.71436 0.0
H1096 H 0.45073 0.0622 0.72065 0.0
H1097 H 0.47324 0.0855 0.69042 0.0
H1098 H 0.39174 0.98318 0.6163 0.0
H1099 H 0.32722 0.9747 0.63264 0.0
H1100 H 0.37867 0.00521 0.70976 0.0
C1101 C 0.52598 0.03915 0.67194 0.0
C1102 C 0.54549 0.0402 0.64873 0.0
C1103 C 0.52219 0.02461 0.62579 0.0
C1104 C 0.48029 0.00948 0.62577 0.0
C1105 C 0.46209 0.00943 0.64892 0.0
C1106 C 0.48407 0.02329 0.67166 0.0
C1107 C 0.45741 0.02099 0.69378 0.0
C1108 C 0.45547 0.99069 0.71434 0.0
C1109 C 0.47181 0.06381 0.70548 0.0
C1110 C 0.41721 0.00477 0.67979 0.0
C1111 C 0.42058 0.9984 0.65391 0.0
C1112 C 0.38846 0.9871 0.63662 0.0
C1113 C 0.35205 0.98245 0.64602 0.0
C1114 C 0.34797 0.98848 0.67247 0.0
C1115 C 0.38076 0.9992 0.68959 0.0
H1116 H 0.06384 0.43854 0.72895 0.0
H1117 H 0.0356 0.34863 0.66815 0.0
H1118 H 0.00964 0.38471 0.64084 0.0
H1119 H 0.97543 0.44278 0.72207 0.0
H1120 H 0.99852 0.49674 0.72953 0.0
H1121 H 0.02001 0.46737 0.74242 0.0
H1122 H 0.08917 0.51814 0.72225 0.0
H1123 H 0.06782 0.54771 0.70922 0.0
H1124 H 0.09185 0.5283 0.68819 0.0
H1125 H 0.9843 0.42973 0.62107 0.0
H1126 H 0.95439 0.47416 0.61282 0.0
H1127 H 0.99518 0.52987 0.68834 0.0
C1128 C 0.05305 0.42691 0.70967 0.0
C1129 C 0.05224 0.39124 0.70046 0.0
C1130 C 0.03669 0.37617 0.67545 0.0
C1131 C 0.02216 0.39657 0.65979 0.0
C1132 C 0.02317 0.43163 0.66959 0.0
C1133 C 0.03787 0.44634 0.69409 0.0
C1134 C 0.03175 0.48172 0.70137 0.0
C1135 C 1.00481 0.47151 0.72525 0.0
C1136 C 0.07258 0.52131 0.70549 0.0
C1137 C 0.01039 0.4841 0.6774 0.0
C1138 C 1.00661 0.45579 0.65895 0.0
C1139 C 0.9872 0.45207 0.63535 0.0
C1140 C 0.97044 0.47737 0.6308 0.0
C1141 C 0.97245 0.50496 0.65009 0.0
C1142 C 0.99319 0.50877 0.6734 0.0
H1143 H 0.14239 0.84557 0.71401 0.0
H1144 H 0.15371 0.90332 0.63969 0.0
H1145 H 0.09651 0.83966 0.62278 0.0
H1146 H 0.11624 0.74583 0.68936 0.0
H1147 H 0.07991 0.71794 0.71403 0.0
H1148 H 0.12191 0.7684 0.72087 0.0
H1149 H 0.07212 0.79252 0.73501 0.0
H1150 H 0.02991 0.74216 0.72814 0.0
H1151 H 0.03245 0.7866 0.71315 0.0
H1152 H 0.04084 0.77058 0.61289 0.0
H1153 H 0.987 0.69805 0.6109 0.0
H1154 H 0.00828 0.68403 0.69162 0.0
C1155 C 0.13279 0.84468 0.6942 0.0
C1156 C 0.15247 0.87948 0.67823 0.0
C1157 C 0.13893 0.87723 0.65242 0.0
C1158 C 0.10648 0.84117 0.64254 0.0
C1159 C 0.08758 0.80761 0.65873 0.0
C1160 C 0.09992 0.80885 0.684 0.0
C1161 C 0.07389 0.76798 0.69706 0.0
C1162 C 0.09952 0.74891 0.70584 0.0
C1163 C 0.05072 0.77261 0.71968 0.0
C1164 C 0.04547 0.74375 0.675 0.0
C1165 C 0.05415 0.76735 0.65311 0.0
C1166 C 0.03342 0.75172 0.62992 0.0
C1167 C 1.00304 0.71054 0.62896 0.0
C1168 C 0.99349 0.68569 0.65111 0.0
C1169 C 0.01467 0.70262 0.67451 0.0
H1170 H 0.21157 0.37412 0.70348 0.0
H1171 H 0.13325 0.24358 0.7153 0.0
H1172 H 0.1845 0.23026 0.69536 0.0
H1173 H 0.25003 0.36413 0.64072 0.0
H1174 H 0.29978 0.40721 0.6471 0.0
H1175 H 0.25598 0.40573 0.66107 0.0
H1176 H 0.28821 0.41505 0.70655 0.0
H1177 H 0.33196 0.41636 0.69279 0.0
H1178 H 0.30391 0.37952 0.71741 0.0
H1179 H 0.24816 0.23271 0.67904 0.0
H1180 H 0.31619 0.25016 0.6633 0.0
H1181 H 0.34963 0.37811 0.65871 0.0
C1182 C 0.20506 0.34269 0.7016 0.0
C1183 C 0.16871 0.30982 0.71099 0.0
C1184 C 0.16094 0.26909 0.70808 0.0
C1185 C 0.18987 0.26131 0.69687 0.0
C1186 C 0.2258 0.29457 0.68818 0.0
C1187 C 0.23307 0.33438 0.68996 0.0
C1188 C 0.2741 0.36479 0.67939 0.0
C1189 C 0.2697 0.38675 0.65565 0.0
C1190 C 0.30113 0.39574 0.70028 0.0
C1191 C 0.28944 0.33608 0.67206 0.0
C1192 C 0.26126 0.29567 0.67739 0.0
C1193 C 0.27002 0.26407 0.67424 0.0
C1194 C 0.30854 0.27412 0.66541 0.0
C1195 C 0.33728 0.31512 0.65947 0.0
C1196 C 0.32755 0.34639 0.66259 0.0
H1197 H 0.67751 0.86921 0.75064 0.0
H1198 H 0.74665 0.84946 0.69217 0.0
H1199 H 0.76175 0.91468 0.67159 0.0
H1200 H 0.62994 0.9035 0.7116 0.0
H1201 H 0.63163 0.94227 0.73289 0.0
H1202 H 0.63296 0.89875 0.746 0.0
H1203 H 0.70003 0.94686 0.77023 0.0
H1204 H 0.69874 0.9908 0.75747 0.0
H1205 H 0.74258 0.98532 0.75263 0.0
H1206 H 0.7567 0.97264 0.65255 0.0
H1207 H 0.73783 0.0239 0.63875 0.0
H1208 H 0.67565 0.00894 0.71077 0.0
C1209 C 0.69682 0.87926 0.73393 0.0
C1210 C 0.71082 0.85437 0.7229 0.0
C1211 C 0.73589 0.8683 0.70102 0.0
C1212 C 0.74461 0.90527 0.68921 0.0
C1213 C 0.72884 0.92827 0.69992 0.0
C1214 C 0.70626 0.91631 0.72216 0.0
C1215 C 0.68995 0.94462 0.72853 0.0
C1216 C 0.64338 0.92085 0.72981 0.0
C1217 C 0.70897 0.96832 0.75371 0.0
C1218 C 0.70469 0.9728 0.70552 0.0
C1219 C 0.72741 0.9631 0.68937 0.0
C1220 C 0.74005 0.9814 0.66537 0.0
C1221 C 0.72894 0.01013 0.65761 0.0
C1222 C 0.70579 0.0204 0.6739 0.0
C1223 C 0.69428 1.0022 0.69833 0.0
loop_
_geom_bond_atom_site_label_1
_geom_bond_atom_site_label_2
_geom_bond_distance
_geom_bond_site_symmetry_2
_ccdc_geom_bond_type
Co0 O1 2.216 . S
Co0 O2 2.091 . S
Co0 O4 2.004 . S
Co0 O10 2.021 . S
Co0 O12 2.137 . S
Co0 O13 2.244 . S
O1 Co0 2.216 . S
O1 C8 1.247 . S
O2 Co0 2.091 . S
O2 C8 1.261 . S
C3 O12 1.247 . S
C3 O13 1.272 . S
O4 Co0 2.004 . S
O4 C9 1.259 . S
Co5 O6 2.061 . S
Co5 O11 2.052 1_545 S
Co5 O13 2.135 . S
O6 Co5 2.061 . S
O6 C9 1.235 . S
C7 O10 1.238 1_565 S
C7 O11 1.241 . S
C8 O1 1.247 . S
C8 O2 1.261 . S
C9 O4 1.259 . S
C9 O6 1.235 . S
O10 Co0 2.021 . S
O10 C7 1.238 1_545 S
O11 Co5 2.052 1_565 S
O11 C7 1.241 . S
O12 Co0 2.137 . S
O12 C3 1.247 . S
O13 Co0 2.244 . S
O13 C3 1.272 . S
O13 Co5 2.135 . S
Co14 O15 2.216 . S
Co14 O16 2.091 . S
Co14 O18 2.004 1_655 S
Co14 O24 2.021 . S
Co14 O26 2.137 . S
Co14 O27 2.244 . S
O15 Co14 2.216 . S
O15 C22 1.247 . S
O16 Co14 2.091 . S
O16 C22 1.261 . S
C17 O26 1.247 . S
C17 O27 1.272 . S
O18 Co14 2.004 1_455 S
O18 C23 1.259 . S
Co19 O20 2.061 1_656 S
Co19 O25 2.052 1_556 S
Co19 O27 2.135 1_556 S
O20 Co19 2.061 1_454 S
O20 C23 1.235 . S
C21 O24 1.238 . S
C21 O25 1.241 . S
C22 O15 1.247 . S
C22 O16 1.261 . S
C23 O18 1.259 . S
C23 O20 1.235 . S
O24 Co14 2.021 . S
O24 C21 1.238 . S
O25 Co19 2.052 1_554 S
O25 C21 1.241 . S
O26 Co14 2.137 . S
O26 C17 1.247 . S
O27 Co14 2.244 . S
O27 C17 1.272 . S
O27 Co19 2.135 1_554 S
Co28 O29 2.216 . S
Co28 O30 2.091 . S
Co28 O32 2.004 . S
Co28 O38 2.021 . S
Co28 O40 2.137 . S
Co28 O41 2.244 . S
O29 Co28 2.216 . S
O29 C36 1.247 . S
O30 Co28 2.091 . S
O30 C36 1.261 . S
C31 O40 1.247 . S
C31 O41 1.272 . S
O32 Co28 2.004 . S
O32 C37 1.259 . S
Co33 O34 2.061 . S
Co33 O39 2.052 . S
Co33 O41 2.135 . S
O34 Co33 2.061 . S
O34 C37 1.235 . S
C35 O38 1.238 . S
C35 O39 1.241 . S
C36 O29 1.247 . S
C36 O30 1.261 . S
C37 O32 1.259 . S
C37 O34 1.235 . S
O38 Co28 2.021 . S
O38 C35 1.238 . S
O39 Co33 2.052 . S
O39 C35 1.241 . S
O40 Co28 2.137 . S
O40 C31 1.247 . S
O41 Co28 2.244 . S
O41 C31 1.272 . S
O41 Co33 2.135 . S
Co42 O43 2.216 . S
Co42 O44 2.091 . S
Co42 O46 2.004 1_565 S
Co42 O52 2.021 . S
Co42 O54 2.137 . S
Co42 O55 2.244 . S
O43 Co42 2.216 . S
O43 C50 1.247 . S
O44 Co42 2.091 . S
O44 C50 1.261 . S
C45 O54 1.247 . S
C45 O55 1.272 . S
O46 Co42 2.004 1_545 S
O46 C51 1.259 . S
Co47 O48 2.050 1_564 S
Co47 O53 2.043 1_554 S
Co47 O55 2.105 1_554 S
O48 Co47 2.050 1_546 S
O48 C51 1.235 . S
C49 O52 1.238 . S
C49 O53 1.241 . S
C50 O43 1.247 . S
C50 O44 1.261 . S
C51 O46 1.259 . S
C51 O48 1.235 . S
O52 Co42 2.021 . S
O52 C49 1.238 . S
O53 Co47 2.043 1_556 S
O53 C49 1.241 . S
O54 Co42 2.137 . S
O54 C45 1.247 . S
O55 Co42 2.244 . S
O55 C45 1.272 . S
O55 Co47 2.105 1_556 S
Co56 O57 2.216 . S
Co56 O58 2.091 . S
Co56 O60 2.004 1_455 S
Co56 O66 2.021 . S
Co56 O68 2.137 . S
Co56 O69 2.244 . S
O57 Co56 2.216 . S
O57 C64 1.247 . S
O58 Co56 2.091 . S
O58 C64 1.261 . S
C59 O68 1.247 . S
C59 O69 1.272 . S
O60 Co56 2.004 1_655 S
O60 C65 1.259 . S
Co61 O62 2.061 1_454 S
Co61 O67 2.052 1_554 S
Co61 O69 2.135 1_554 S
O62 Co61 2.061 1_656 S
O62 C65 1.235 . S
C63 O66 1.238 . S
C63 O67 1.241 . S
C64 O57 1.247 . S
C64 O58 1.261 . S
C65 O60 1.259 . S
C65 O62 1.235 . S
O66 Co56 2.021 . S
O66 C63 1.238 . S
O67 Co61 2.052 1_556 S
O67 C63 1.241 . S
O68 Co56 2.137 . S
O68 C59 1.247 . S
O69 Co56 2.244 . S
O69 C59 1.272 . S
O69 Co61 2.135 1_556 S
Co70 O71 2.216 . S
Co70 O72 2.091 . S
Co70 O74 2.004 . S
Co70 O80 2.021 . S
Co70 O82 2.137 . S
Co70 O83 2.244 . S
O71 Co70 2.216 . S
O71 C78 1.247 . S
O72 Co70 2.091 . S
O72 C78 1.261 . S
C73 O82 1.247 . S
C73 O83 1.272 . S
O74 Co70 2.004 . S
O74 C79 1.259 . S
Co75 O76 2.061 1_554 S
Co75 O81 2.052 1_554 S
Co75 O83 2.135 1_554 S
O76 Co75 2.061 1_556 S
O76 C79 1.235 . S
C77 O80 1.238 . S
C77 O81 1.241 . S
C78 O71 1.247 . S
C78 O72 1.261 . S
C79 O74 1.259 . S
C79 O76 1.235 . S
O80 Co70 2.021 . S
O80 C77 1.238 . S
O81 Co75 2.052 1_556 S
O81 C77 1.241 . S
O82 Co70 2.137 . S
O82 C73 1.247 . S
O83 Co70 2.244 . S
O83 C73 1.272 . S
O83 Co75 2.135 1_556 S
Co84 O85 2.216 . S
Co84 O86 2.091 . S
Co84 O88 2.004 . S
Co84 O94 2.021 1_455 S
Co84 O96 2.137 . S
Co84 O97 2.244 1_455 S
O85 Co84 2.216 . S
O85 C92 1.247 . S
O86 Co84 2.091 . S
O86 C92 1.261 . S
C87 O96 1.247 . S
C87 O97 1.272 1_455 S
O88 Co84 2.004 . S
O88 C93 1.259 1_455 S
Co89 O90 2.061 . S
Co89 O95 2.052 . S
Co89 O97 2.135 . S
O90 Co89 2.061 . S
O90 C93 1.235 . S
C91 O94 1.238 . S
C91 O95 1.241 . S
C92 O85 1.247 . S
C92 O86 1.261 . S
C93 O88 1.259 1_655 S
C93 O90 1.235 . S
O94 Co84 2.021 1_655 S
O94 C91 1.238 . S
O95 Co89 2.052 . S
O95 C91 1.241 . S
O96 Co84 2.137 . S
O96 C87 1.247 . S
O97 Co84 2.244 1_655 S
O97 C87 1.272 1_655 S
O97 Co89 2.135 . S
Co98 O99 2.216 . S
Co98 O100 2.091 . S
Co98 O102 2.004 . S
Co98 O108 2.021 . S
Co98 O110 2.137 . S
Co98 O111 2.244 . S
O99 Co98 2.216 . S
O99 C106 1.247 . S
O100 Co98 2.091 . S
O100 C106 1.261 . S
C101 O110 1.247 . S
C101 O111 1.272 . S
O102 Co98 2.004 . S
O102 C107 1.259 . S
Co103 O104 2.061 . S
Co103 O109 2.052 . S
Co103 O111 2.135 . S
O104 Co103 2.061 . S
O104 C107 1.235 . S
C105 O108 1.238 . S
C105 O109 1.241 . S
C106 O99 1.247 . S
C106 O100 1.261 . S
C107 O102 1.259 . S
C107 O104 1.235 . S
O108 Co98 2.021 . S
O108 C105 1.238 . S
O109 Co103 2.052 . S
O109 C105 1.241 . S
O110 Co98 2.137 . S
O110 C101 1.247 . S
O111 Co98 2.244 . S
O111 C101 1.272 . S
O111 Co103 2.135 . S
Co112 O113 2.216 . S
Co112 O114 2.091 . S
Co112 O116 2.004 . S
Co112 O122 2.021 1_565 S
Co112 O124 2.137 . S
Co112 O125 2.244 1_565 S
O113 Co112 2.216 . S
O113 C120 1.247 . S
O114 Co112 2.091 . S
O114 C120 1.261 . S
C115 O124 1.247 . S
C115 O125 1.272 1_565 S
O116 Co112 2.004 . S
O116 C121 1.259 1_565 S
Co117 O118 2.061 . S
Co117 O123 2.052 . S
Co117 O125 2.135 . S
O118 Co117 2.061 . S
O118 C121 1.235 . S
C119 O122 1.238 . S
C119 O123 1.241 . S
C120 O113 1.247 . S
C120 O114 1.261 . S
C121 O116 1.259 1_545 S
C121 O118 1.235 . S
O122 Co112 2.021 1_545 S
O122 C119 1.238 . S
O123 Co117 2.052 . S
O123 C119 1.241 . S
O124 Co112 2.137 . S
O124 C115 1.247 . S
O125 Co112 2.244 1_545 S
O125 C115 1.272 1_545 S
O125 Co117 2.135 . S
Co126 O127 2.216 . S
Co126 O128 2.091 . S
Co126 O130 2.004 . S
Co126 O136 2.021 . S
Co126 O138 2.137 . S
Co126 O139 2.244 . S
O127 Co126 2.216 . S
O127 C134 1.247 . S
O128 Co126 2.091 . S
O128 C134 1.261 . S
C129 O138 1.247 . S
C129 O139 1.272 . S
O130 Co126 2.004 . S
O130 C135 1.259 . S
Co131 O132 2.061 . S
Co131 O137 2.052 . S
Co131 O139 2.135 . S
O132 Co131 2.061 . S
O132 C135 1.235 . S
C133 O136 1.238 . S
C133 O137 1.241 . S
C134 O127 1.247 . S
C134 O128 1.261 . S
C135 O130 1.259 . S
C135 O132 1.235 . S
O136 Co126 2.021 . S
O136 C133 1.238 . S
O137 Co131 2.052 . S
O137 C133 1.241 . S
O138 Co126 2.137 . S
O138 C129 1.247 . S
O139 Co126 2.244 . S
O139 C129 1.272 . S
O139 Co131 2.135 . S
Co140 O141 2.216 . S
Co140 O142 2.091 . S
Co140 O144 2.004 . S
Co140 O150 2.021 . S
Co140 O152 2.137 1_545 S
Co140 O153 2.244 . S
O141 Co140 2.216 . S
O141 C148 1.247 . S
O142 Co140 2.091 . S
O142 C148 1.261 . S
C143 O152 1.247 . S
C143 O153 1.272 1_565 S
O144 Co140 2.004 . S
O144 C149 1.259 . S
Co145 O146 2.061 . S
Co145 O151 2.052 . S
Co145 O153 2.135 . S
O146 Co145 2.061 . S
O146 C149 1.235 . S
C147 O150 1.238 . S
C147 O151 1.241 . S
C148 O141 1.247 . S
C148 O142 1.261 . S
C149 O144 1.259 . S
C149 O146 1.235 . S
O150 Co140 2.021 . S
O150 C147 1.238 . S
O151 Co145 2.052 . S
O151 C147 1.241 . S
O152 Co140 2.137 1_565 S
O152 C143 1.247 . S
O153 Co140 2.244 . S
O153 C143 1.272 1_545 S
O153 Co145 2.135 . S
Co154 O155 2.216 . S
Co154 O156 2.091 . S
Co154 O158 2.004 . S
Co154 O164 2.021 . S
Co154 O166 2.137 1_655 S
Co154 O167 2.244 . S
O155 Co154 2.216 . S
O155 C162 1.247 . S
O156 Co154 2.091 . S
O156 C162 1.261 . S
C157 O166 1.247 . S
C157 O167 1.272 1_455 S
O158 Co154 2.004 . S
O158 C163 1.259 . S
Co159 O160 2.061 . S
Co159 O165 2.052 . S
Co159 O167 2.135 . S
O160 Co159 2.061 . S
O160 C163 1.235 . S
C161 O164 1.238 . S
C161 O165 1.241 . S
C162 O155 1.247 . S
C162 O156 1.261 . S
C163 O158 1.259 . S
C163 O160 1.235 . S
O164 Co154 2.021 . S
O164 C161 1.238 . S
O165 Co159 2.052 . S
O165 C161 1.241 . S
O166 Co154 2.137 1_455 S
O166 C157 1.247 . S
O167 Co154 2.244 . S
O167 C157 1.272 1_655 S
O167 Co159 2.135 . S
Co168 O169 2.216 . S
Co168 O170 2.091 . S
Co168 O172 2.004 . S
Co168 O178 2.021 . S
Co168 O180 2.137 . S
Co168 O181 2.244 . S
O169 Co168 2.216 . S
O169 C176 1.247 . S
O170 Co168 2.091 . S
O170 C176 1.261 . S
C171 O180 1.247 . S
C171 O181 1.272 . S
O172 Co168 2.004 . S
O172 C177 1.259 . S
Co173 O174 2.061 . S
Co173 O179 2.052 . S
Co173 O181 2.135 . S
O174 Co173 2.061 . S
O174 C177 1.235 . S
C175 O178 1.238 . S
C175 O179 1.241 . S
C176 O169 1.247 . S
C176 O170 1.261 . S
C177 O172 1.259 . S
C177 O174 1.235 . S
O178 Co168 2.021 . S
O178 C175 1.238 . S
O179 Co173 2.052 . S
O179 C175 1.241 . S
O180 Co168 2.137 . S
O180 C171 1.247 . S
O181 Co168 2.244 . S
O181 C171 1.272 . S
O181 Co173 2.135 . S
Co182 O183 2.216 . S
Co182 O184 2.091 . S
Co182 O186 2.004 . S
Co182 O192 2.021 . S
Co182 O194 2.137 1_565 S
Co182 O195 2.244 . S
O183 Co182 2.216 . S
O183 C190 1.247 . S
O184 Co182 2.091 . S
O184 C190 1.261 . S
C185 O194 1.247 . S
C185 O195 1.272 1_545 S
O186 Co182 2.004 . S
O186 C191 1.259 . S
Co187 O188 2.061 . S
Co187 O193 2.052 . S
Co187 O195 2.135 . S
O188 Co187 2.061 . S
O188 C191 1.235 . S
C189 O192 1.238 . S
C189 O193 1.241 . S
C190 O183 1.247 . S
C190 O184 1.261 . S
C191 O186 1.259 . S
C191 O188 1.235 . S
O192 Co182 2.021 . S
O192 C189 1.238 . S
O193 Co187 2.052 . S
O193 C189 1.241 . S
O194 Co182 2.137 1_545 S
O194 C185 1.247 . S
O195 Co182 2.244 . S
O195 C185 1.272 1_565 S
O195 Co187 2.135 . S
Co196 O197 2.216 1_455 S
Co196 O198 2.091 1_455 S
Co196 O200 2.004 . S
Co196 O206 2.021 . S
Co196 O208 2.137 . S
Co196 O209 2.244 . S
O197 Co196 2.216 1_655 S
O197 C204 1.247 . S
O198 Co196 2.091 1_655 S
O198 C204 1.261 . S
C199 O208 1.247 . S
C199 O209 1.272 . S
O200 Co196 2.004 . S
O200 C205 1.259 . S
Co201 O202 2.061 . S
Co201 O207 2.052 . S
Co201 O209 2.135 . S
O202 Co201 2.061 . S
O202 C205 1.235 . S
C203 O206 1.238 . S
C203 O207 1.241 . S
C204 O197 1.247 . S
C204 O198 1.261 . S
C205 O200 1.259 . S
C205 O202 1.235 . S
O206 Co196 2.021 . S
O206 C203 1.238 . S
O207 Co201 2.052 . S
O207 C203 1.241 . S
O208 Co196 2.137 . S
O208 C199 1.247 . S
O209 Co196 2.244 . S
O209 C199 1.272 . S
O209 Co201 2.135 . S
Co210 O211 2.211 1_455 S
Co210 O212 2.098 . S
Co210 O214 2.013 . S
Co210 O220 2.036 . S
Co210 O222 2.118 1_455 S
Co210 O223 2.228 1_455 S
O211 Co210 2.211 1_655 S
O211 C218 1.247 . S
O212 Co210 2.098 . S
O212 C218 1.261 1_455 S
C213 O222 1.247 . S
C213 O223 1.272 . S
O214 Co210 2.013 . S
O214 C219 1.259 . S
Co215 O216 2.061 1_655 S
Co215 O221 2.052 . S
Co215 O223 2.135 . S
O216 Co215 2.061 1_455 S
O216 C219 1.235 . S
C217 O220 1.238 . S
C217 O221 1.241 1_455 S
C218 O211 1.247 . S
C218 O212 1.261 1_655 S
C219 O214 1.259 . S
C219 O216 1.235 . S
O220 Co210 2.036 . S
O220 C217 1.238 . S
O221 Co215 2.052 . S
O221 C217 1.241 1_655 S
O222 Co210 2.118 1_655 S
O222 C213 1.247 . S
O223 Co210 2.228 1_655 S
O223 C213 1.272 . S
O223 Co215 2.135 . S
Co224 O225 2.216 . S
Co224 O226 2.091 . S
Co224 O228 2.004 . S
Co224 O234 2.021 . S
Co224 O236 2.137 . S
Co224 O237 2.244 . S
O225 Co224 2.216 . S
O225 C232 1.247 . S
O226 Co224 2.091 . S
O226 C232 1.261 . S
C227 O236 1.247 . S
C227 O237 1.272 . S
O228 Co224 2.004 . S
O228 C233 1.259 . S
Co229 O230 2.061 . S
Co229 O235 2.052 . S
Co229 O237 2.135 . S
O230 Co229 2.061 . S
O230 C233 1.235 . S
C231 O234 1.238 . S
C231 O235 1.241 . S
C232 O225 1.247 . S
C232 O226 1.261 . S
C233 O228 1.259 . S
C233 O230 1.235 . S
O234 Co224 2.021 . S
O234 C231 1.238 . S
O235 Co229 2.052 . S
O235 C231 1.241 . S
O236 Co224 2.137 . S
O236 C227 1.247 . S
O237 Co224 2.244 . S
O237 C227 1.272 . S
O237 Co229 2.135 . S
Co238 O239 2.197 1_565 S
Co238 O240 2.094 . S
Co238 O242 2.027 . S
Co238 O248 2.018 . S
Co238 O250 2.134 1_565 S
Co238 O251 2.234 1_565 S
O239 Co238 2.197 1_545 S
O239 C246 1.247 . S
O240 Co238 2.094 . S
O240 C246 1.261 1_565 S
C241 O250 1.247 . S
C241 O251 1.272 . S
O242 Co238 2.027 . S
O242 C247 1.259 . S
Co243 O244 2.061 1_545 S
Co243 O249 2.052 . S
Co243 O251 2.135 . S
O244 Co243 2.061 1_565 S
O244 C247 1.235 . S
C245 O248 1.238 . S
C245 O249 1.241 1_565 S
C246 O239 1.247 . S
C246 O240 1.261 1_545 S
C247 O242 1.259 . S
C247 O244 1.235 . S
O248 Co238 2.018 . S
O248 C245 1.238 . S
O249 Co243 2.052 . S
O249 C245 1.241 1_545 S
O250 Co238 2.134 1_545 S
O250 C241 1.247 . S
O251 Co238 2.234 1_545 S
O251 C241 1.272 . S
O251 Co243 2.135 . S
H252 C264 0.930 . S
H253 C266 0.930 . S
H254 C267 0.930 . S
H255 C271 0.959 . S
H256 C271 0.959 . S
H257 C271 0.961 . S
H258 C272 0.960 1_554 S
H259 C272 0.961 . S
H260 C272 0.959 . S
H261 C275 0.929 . S
H262 C276 0.931 . S
H263 C278 0.930 . S
C264 H252 0.930 . S
C264 C265 1.399 1_565 S
C264 C269 1.399 . S
C265 C264 1.399 1_545 S
C265 C266 1.376 . S
C266 H253 0.930 . S
C266 C265 1.376 . S
C266 C267 1.388 1_554 S
C267 H254 0.930 . S
C267 C266 1.388 1_556 S
C267 C268 1.390 . S
C268 C267 1.390 . S
C268 C269 1.394 1_546 S
C268 C274 1.465 . S
C269 C264 1.399 . S
C269 C268 1.394 1_564 S
C269 C270 1.516 . S
C270 C269 1.516 . S
C270 C271 1.502 . S
C270 C272 1.561 1_554 S
C270 C273 1.526 1_554 S
C271 H255 0.959 . S
C271 H256 0.959 . S
C271 H257 0.961 . S
C271 C270 1.502 . S
C272 H258 0.960 1_556 S
C272 H259 0.961 . S
C272 H260 0.959 . S
C272 C270 1.561 1_556 S
C273 C270 1.526 1_556 S
C273 C274 1.396 1_565 S
C273 C278 1.390 . S
C274 C268 1.465 . S
C274 C273 1.396 1_545 S
C274 C275 1.399 . S
C275 H261 0.929 . S
C275 C274 1.399 . S
C275 C276 1.385 . S
C276 H262 0.931 . S
C276 C275 1.385 . S
C276 C277 1.389 1_545 S
C277 C276 1.389 1_565 S
C277 C278 1.387 . S
C278 H263 0.930 . S
C278 C273 1.390 . S
C278 C277 1.387 . S
H279 C291 0.921 1_455 S
H280 C293 0.930 . S
H281 C294 0.930 . S
H282 C298 0.959 . S
H283 C298 0.959 . S
H284 C298 0.961 . S
H285 C299 0.960 . S
H286 C299 0.961 . S
H287 C299 0.959 . S
H288 C302 0.929 . S
H289 C303 0.920 1_654 S
H290 C305 0.930 . S
C291 H279 0.921 1_655 S
C291 C292 1.399 . S
C291 C296 1.399 . S
C292 C291 1.399 . S
C292 C293 1.376 . S
C293 H280 0.930 . S
C293 C292 1.376 . S
C293 C294 1.388 . S
C294 H281 0.930 . S
C294 C293 1.388 . S
C294 C295 1.390 . S
C295 C294 1.390 . S
C295 C296 1.394 . S
C295 C301 1.465 . S
C296 C291 1.399 . S
C296 C295 1.394 . S
C296 C297 1.516 1_654 S
C297 C296 1.516 1_456 S
C297 C298 1.502 . S
C297 C299 1.561 1_455 S
C297 C300 1.526 . S
C298 H282 0.959 . S
C298 H283 0.959 . S
C298 H284 0.961 . S
C298 C297 1.502 . S
C299 H285 0.960 . S
C299 H286 0.961 . S
C299 H287 0.959 . S
C299 C297 1.561 1_655 S
C300 C297 1.526 . S
C300 C301 1.396 1_456 S
C300 C305 1.390 . S
C301 C295 1.465 . S
C301 C300 1.396 1_654 S
C301 C302 1.399 . S
C302 H288 0.929 . S
C302 C301 1.399 . S
C302 C303 1.385 1_654 S
C303 H289 0.920 1_456 S
C303 C302 1.385 1_456 S
C303 C304 1.391 . S
C304 C303 1.391 . S
C304 C305 1.387 . S
C305 H290 0.930 . S
C305 C300 1.390 . S
C305 C304 1.387 . S
H306 C318 0.949 . S
H307 C320 0.930 . S
H308 C321 0.930 . S
H309 C325 0.959 . S
H310 C325 0.959 . S
H311 C325 0.961 . S
H312 C326 0.960 . S
H313 C326 0.961 . S
H314 C326 0.959 . S
H315 C329 0.929 . S
H316 C330 0.931 1_556 S
H317 C332 0.930 . S
C318 H306 0.949 . S
C318 C319 1.399 . S
C318 C323 1.399 . S
C319 C318 1.399 . S
C319 C320 1.376 . S
C320 H307 0.930 . S
C320 C319 1.376 . S
C320 C321 1.388 . S
C321 H308 0.930 . S
C321 C320 1.388 . S
C321 C322 1.390 . S
C322 C321 1.390 . S
C322 C323 1.394 . S
C322 C328 1.465 . S
C323 C318 1.399 . S
C323 C322 1.394 . S
C323 C324 1.516 1_556 S
C324 C323 1.516 1_554 S
C324 C325 1.502 . S
C324 C326 1.561 . S
C324 C327 1.526 . S
C325 H309 0.959 . S
C325 H310 0.959 . S
C325 H311 0.961 . S
C325 C324 1.502 . S
C326 H312 0.960 . S
C326 H313 0.961 . S
C326 H314 0.959 . S
C326 C324 1.561 . S
C327 C324 1.526 . S
C327 C328 1.396 1_554 S
C327 C332 1.390 . S
C328 C322 1.465 . S
C328 C327 1.396 1_556 S
C328 C329 1.399 . S
C329 H315 0.929 . S
C329 C328 1.399 . S
C329 C330 1.385 1_556 S
C330 H316 0.931 1_554 S
C330 C329 1.385 1_554 S
C330 C331 1.389 . S
C331 C330 1.389 . S
C331 C332 1.387 . S
C332 H317 0.930 . S
C332 C327 1.390 . S
C332 C331 1.387 . S
H333 C345 0.930 . S
H334 C347 0.930 . S
H335 C348 0.930 . S
H336 C352 0.959 . S
H337 C352 0.959 . S
H338 C352 0.961 . S
H339 C353 0.960 . S
H340 C353 0.961 . S
H341 C353 0.959 . S
H342 C356 0.929 . S
H343 C357 0.931 . S
H344 C359 0.930 . S
C345 H333 0.930 . S
C345 C346 1.399 . S
C345 C350 1.399 . S
C346 C345 1.399 . S
C346 C347 1.376 . S
C347 H334 0.930 . S
C347 C346 1.376 . S
C347 C348 1.388 . S
C348 H335 0.930 . S
C348 C347 1.388 . S
C348 C349 1.390 . S
C349 C348 1.390 . S
C349 C350 1.394 . S
C349 C355 1.465 . S
C350 C345 1.399 . S
C350 C349 1.394 . S
C350 C351 1.516 . S
C351 C350 1.516 . S
C351 C352 1.502 . S
C351 C353 1.561 . S
C351 C354 1.526 . S
C352 H336 0.959 . S
C352 H337 0.959 . S
C352 H338 0.961 . S
C352 C351 1.502 . S
C353 H339 0.960 . S
C353 H340 0.961 . S
C353 H341 0.959 . S
C353 C351 1.561 . S
C354 C351 1.526 . S
C354 C355 1.396 . S
C354 C359 1.390 . S
C355 C349 1.465 . S
C355 C354 1.396 . S
C355 C356 1.399 . S
C356 H342 0.929 . S
C356 C355 1.399 . S
C356 C357 1.385 . S
C357 H343 0.931 . S
C357 C356 1.385 . S
C357 C358 1.389 . S
C358 C357 1.389 . S
C358 C359 1.387 . S
C359 H344 0.930 . S
C359 C354 1.390 . S
C359 C358 1.387 . S
H360 C372 0.930 . S
H361 C374 0.930 . S
H362 C375 0.930 . S
H363 C379 0.959 . S
H364 C379 0.959 . S
H365 C379 0.961 . S
H366 C380 0.960 . S
H367 C380 0.961 . S
H368 C380 0.959 . S
H369 C383 0.929 . S
H370 C384 0.931 . S
H371 C386 0.930 . S
C372 H360 0.930 . S
C372 C373 1.399 . S
C372 C377 1.399 . S
C373 C372 1.399 . S
C373 C374 1.376 . S
C374 H361 0.930 . S
C374 C373 1.376 . S
C374 C375 1.388 . S
C375 H362 0.930 . S
C375 C374 1.388 . S
C375 C376 1.390 . S
C376 C375 1.390 . S
C376 C377 1.394 . S
C376 C382 1.465 . S
C377 C372 1.399 . S
C377 C376 1.394 . S
C377 C378 1.516 . S
C378 C377 1.516 . S
C378 C379 1.502 . S
C378 C380 1.561 . S
C378 C381 1.526 . S
C379 H363 0.959 . S
C379 H364 0.959 . S
C379 H365 0.961 . S
C379 C378 1.502 . S
C380 H366 0.960 . S
C380 H367 0.961 . S
C380 H368 0.959 . S
C380 C378 1.561 . S
C381 C378 1.526 . S
C381 C382 1.396 . S
C381 C386 1.390 . S
C382 C376 1.465 . S
C382 C381 1.396 . S
C382 C383 1.399 . S
C383 H369 0.929 . S
C383 C382 1.399 . S
C383 C384 1.385 . S
C384 H370 0.931 . S
C384 C383 1.385 . S
C384 C385 1.389 . S
C385 C384 1.389 . S
C385 C386 1.387 . S
C386 H371 0.930 . S
C386 C381 1.390 . S
C386 C385 1.387 . S
H387 C399 0.930 . S
H388 C401 0.930 . S
H389 C402 0.930 . S
H390 C406 0.959 . S
H391 C406 0.959 . S
H392 C406 0.961 . S
H393 C407 0.960 . S
H394 C407 0.961 . S
H395 C407 0.959 . S
H396 C410 0.929 . S
H397 C411 0.931 . S
H398 C413 0.930 . S
C399 H387 0.930 . S
C399 C400 1.399 . S
C399 C404 1.399 . S
C400 C399 1.399 . S
C400 C401 1.376 . S
C401 H388 0.930 . S
C401 C400 1.376 . S
C401 C402 1.388 . S
C402 H389 0.930 . S
C402 C401 1.388 . S
C402 C403 1.390 . S
C403 C402 1.390 . S
C403 C404 1.394 . S
C403 C409 1.465 . S
C404 C399 1.399 . S
C404 C403 1.394 . S
C404 C405 1.516 . S
C405 C404 1.516 . S
C405 C406 1.502 . S
C405 C407 1.561 . S
C405 C408 1.526 . S
C406 H390 0.959 . S
C406 H391 0.959 . S
C406 H392 0.961 . S
C406 C405 1.502 . S
C407 H393 0.960 . S
C407 H394 0.961 . S
C407 H395 0.959 . S
C407 C405 1.561 . S
C408 C405 1.526 . S
C408 C409 1.396 . S
C408 C413 1.390 . S
C409 C403 1.465 . S
C409 C408 1.396 . S
C409 C410 1.399 . S
C410 H396 0.929 . S
C410 C409 1.399 . S
C410 C411 1.385 . S
C411 H397 0.931 . S
C411 C410 1.385 . S
C411 C412 1.389 . S
C412 C411 1.389 . S
C412 C413 1.387 . S
C413 H398 0.930 . S
C413 C408 1.390 . S
C413 C412 1.387 . S
H414 C426 0.930 . S
H415 C428 0.930 . S
H416 C429 0.930 . S
H417 C433 0.959 . S
H418 C433 0.959 . S
H419 C433 0.961 . S
H420 C434 0.960 . S
H421 C434 0.961 . S
H422 C434 0.959 . S
H423 C437 0.929 . S
H424 C438 0.931 . S
H425 C440 0.930 . S
C426 H414 0.930 . S
C426 C427 1.399 . S
C426 C431 1.399 . S
C427 C426 1.399 . S
C427 C428 1.376 . S
C428 H415 0.930 . S
C428 C427 1.376 . S
C428 C429 1.388 . S
C429 H416 0.930 . S
C429 C428 1.388 . S
C429 C430 1.390 . S
C430 C429 1.390 . S
C430 C431 1.394 . S
C430 C436 1.465 . S
C431 C426 1.399 . S
C431 C430 1.394 . S
C431 C432 1.516 . S
C432 C431 1.516 . S
C432 C433 1.502 . S
C432 C434 1.561 . S
C432 C435 1.526 . S
C433 H417 0.959 . S
C433 H418 0.959 . S
C433 H419 0.961 . S
C433 C432 1.502 . S
C434 H420 0.960 . S
C434 H421 0.961 . S
C434 H422 0.959 . S
C434 C432 1.561 . S
C435 C432 1.526 . S
C435 C436 1.396 . S
C435 C440 1.390 . S
C436 C430 1.465 . S
C436 C435 1.396 . S
C436 C437 1.399 . S
C437 H423 0.929 . S
C437 C436 1.399 . S
C437 C438 1.385 . S
C438 H424 0.931 . S
C438 C437 1.385 . S
C438 C439 1.389 . S
C439 C438 1.389 . S
C439 C440 1.387 . S
C440 H425 0.930 . S
C440 C435 1.390 . S
C440 C439 1.387 . S
H441 C453 0.930 . S
H442 C455 0.930 . S
H443 C456 0.930 . S
H444 C460 0.959 . S
H445 C460 0.959 . S
H446 C460 0.961 . S
H447 C461 0.960 . S
H448 C461 0.961 . S
H449 C461 0.959 . S
H450 C464 0.929 . S
H451 C465 0.931 . S
H452 C467 0.930 . S
C453 H441 0.930 . S
C453 C454 1.399 . S
C453 C458 1.399 . S
C454 C453 1.399 . S
C454 C455 1.376 . S
C455 H442 0.930 . S
C455 C454 1.376 . S
C455 C456 1.388 . S
C456 H443 0.930 . S
C456 C455 1.388 . S
C456 C457 1.390 . S
C457 C456 1.390 . S
C457 C458 1.394 . S
C457 C463 1.465 . S
C458 C453 1.399 . S
C458 C457 1.394 . S
C458 C459 1.516 . S
C459 C458 1.516 . S
C459 C460 1.502 . S
C459 C461 1.561 . S
C459 C462 1.526 . S
C460 H444 0.959 . S
C460 H445 0.959 . S
C460 H446 0.961 . S
C460 C459 1.502 . S
C461 H447 0.960 . S
C461 H448 0.961 . S
C461 H449 0.959 . S
C461 C459 1.561 . S
C462 C459 1.526 . S
C462 C463 1.396 . S
C462 C467 1.390 . S
C463 C457 1.465 . S
C463 C462 1.396 . S
C463 C464 1.399 . S
C464 H450 0.929 . S
C464 C463 1.399 . S
C464 C465 1.385 . S
C465 H451 0.931 . S
C465 C464 1.385 . S
C465 C466 1.389 . S
C466 C465 1.389 . S
C466 C467 1.387 . S
C467 H452 0.930 . S
C467 C462 1.390 . S
C467 C466 1.387 . S
H468 C480 0.930 . S
H469 C482 0.930 . S
H470 C483 0.930 . S
H471 C487 0.959 . S
H472 C487 0.959 . S
H473 C487 0.961 . S
H474 C488 0.960 . S
H475 C488 0.961 . S
H476 C488 0.959 . S
H477 C491 0.929 . S
H478 C492 0.931 . S
H479 C494 0.930 . S
C480 H468 0.930 . S
C480 C481 1.399 . S
C480 C485 1.399 . S
C481 C480 1.399 . S
C481 C482 1.376 . S
C482 H469 0.930 . S
C482 C481 1.376 . S
C482 C483 1.388 . S
C483 H470 0.930 . S
C483 C482 1.388 . S
C483 C484 1.390 . S
C484 C483 1.390 . S
C484 C485 1.394 . S
C484 C490 1.465 . S
C485 C480 1.399 . S
C485 C484 1.394 . S
C485 C486 1.516 . S
C486 C485 1.516 . S
C486 C487 1.502 . S
C486 C488 1.561 . S
C486 C489 1.526 . S
C487 H471 0.959 . S
C487 H472 0.959 . S
C487 H473 0.961 . S
C487 C486 1.502 . S
C488 H474 0.960 . S
C488 H475 0.961 . S
C488 H476 0.959 . S
C488 C486 1.561 . S
C489 C486 1.526 . S
C489 C490 1.396 . S
C489 C494 1.390 . S
C490 C484 1.465 . S
C490 C489 1.396 . S
C490 C491 1.399 . S
C491 H477 0.929 . S
C491 C490 1.399 . S
C491 C492 1.385 . S
C492 H478 0.931 . S
C492 C491 1.385 . S
C492 C493 1.389 . S
C493 C492 1.389 . S
C493 C494 1.387 . S
C494 H479 0.930 . S
C494 C489 1.390 . S
C494 C493 1.387 . S
H495 C507 0.930 . S
H496 C509 0.930 . S
H497 C510 0.930 . S
H498 C514 0.959 . S
H499 C514 0.959 . S
H500 C514 0.961 . S
H501 C515 0.960 . S
H502 C515 0.961 . S
H503 C515 0.959 . S
H504 C518 0.929 . S
H505 C519 0.931 . S
H506 C521 0.930 . S
C507 H495 0.930 . S
C507 C508 1.399 . S
C507 C512 1.399 . S
C508 C507 1.399 . S
C508 C509 1.376 . S
C509 H496 0.930 . S
C509 C508 1.376 . S
C509 C510 1.388 . S
C510 H497 0.930 . S
C510 C509 1.388 . S
C510 C511 1.390 . S
C511 C510 1.390 . S
C511 C512 1.394 . S
C511 C517 1.465 . S
C512 C507 1.399 . S
C512 C511 1.394 . S
C512 C513 1.516 . S
C513 C512 1.516 . S
C513 C514 1.502 . S
C513 C515 1.561 . S
C513 C516 1.526 . S
C514 H498 0.959 . S
C514 H499 0.959 . S
C514 H500 0.961 . S
C514 C513 1.502 . S
C515 H501 0.960 . S
C515 H502 0.961 . S
C515 H503 0.959 . S
C515 C513 1.561 . S
C516 C513 1.526 . S
C516 C517 1.396 . S
C516 C521 1.390 . S
C517 C511 1.465 . S
C517 C516 1.396 . S
C517 C518 1.399 . S
C518 H504 0.929 . S
C518 C517 1.399 . S
C518 C519 1.385 . S
C519 H505 0.931 . S
C519 C518 1.385 . S
C519 C520 1.389 . S
C520 C519 1.389 . S
C520 C521 1.387 . S
C521 H506 0.930 . S
C521 C516 1.390 . S
C521 C520 1.387 . S
H522 C534 0.930 . S
H523 C536 0.930 . S
H524 C537 0.930 . S
H525 C541 0.959 . S
H526 C541 0.959 . S
H527 C541 0.961 . S
H528 C542 0.960 . S
H529 C542 0.961 . S
H530 C542 0.959 . S
H531 C545 0.929 . S
H532 C546 0.931 . S
H533 C548 0.930 . S
C534 H522 0.930 . S
C534 C535 1.399 . S
C534 C539 1.399 . S
C535 C534 1.399 . S
C535 C536 1.376 . S
C536 H523 0.930 . S
C536 C535 1.376 . S
C536 C537 1.388 . S
C537 H524 0.930 . S
C537 C536 1.388 . S
C537 C538 1.390 . S
C538 C537 1.390 . S
C538 C539 1.394 . S
C538 C544 1.465 . S
C539 C534 1.399 . S
C539 C538 1.394 . S
C539 C540 1.516 . S
C540 C539 1.516 . S
C540 C541 1.502 . S
C540 C542 1.561 . S
C540 C543 1.526 . S
C541 H525 0.959 . S
C541 H526 0.959 . S
C541 H527 0.961 . S
C541 C540 1.502 . S
C542 H528 0.960 . S
C542 H529 0.961 . S
C542 H530 0.959 . S
C542 C540 1.561 . S
C543 C540 1.526 . S
C543 C544 1.396 . S
C543 C548 1.390 . S
C544 C538 1.465 . S
C544 C543 1.396 . S
C544 C545 1.399 . S
C545 H531 0.929 . S
C545 C544 1.399 . S
C545 C546 1.385 . S
C546 H532 0.931 . S
C546 C545 1.385 . S
C546 C547 1.389 . S
C547 C546 1.389 . S
C547 C548 1.387 . S
C548 H533 0.930 . S
C548 C543 1.390 . S
C548 C547 1.387 . S
H549 C561 0.930 . S
H550 C563 0.930 . S
H551 C564 0.930 . S
H552 C568 0.959 . S
H553 C568 0.959 . S
H554 C568 0.961 . S
H555 C569 0.960 . S
H556 C569 0.961 . S
H557 C569 0.959 . S
H558 C572 0.929 . S
H559 C573 0.931 . S
H560 C575 0.930 . S
C561 H549 0.930 . S
C561 C562 1.399 . S
C561 C566 1.399 . S
C562 C561 1.399 . S
C562 C563 1.376 . S
C563 H550 0.930 . S
C563 C562 1.376 . S
C563 C564 1.388 . S
C564 H551 0.930 . S
C564 C563 1.388 . S
C564 C565 1.390 . S
C565 C564 1.390 . S
C565 C566 1.394 . S
C565 C571 1.465 . S
C566 C561 1.399 . S
C566 C565 1.394 . S
C566 C567 1.516 . S
C567 C566 1.516 . S
C567 C568 1.502 . S
C567 C569 1.561 . S
C567 C570 1.526 . S
C568 H552 0.959 . S
C568 H553 0.959 . S
C568 H554 0.961 . S
C568 C567 1.502 . S
C569 H555 0.960 . S
C569 H556 0.961 . S
C569 H557 0.959 . S
C569 C567 1.561 . S
C570 C567 1.526 . S
C570 C571 1.396 . S
C570 C575 1.390 . S
C571 C565 1.465 . S
C571 C570 1.396 . S
C571 C572 1.399 . S
C572 H558 0.929 . S
C572 C571 1.399 . S
C572 C573 1.385 . S
C573 H559 0.931 . S
C573 C572 1.385 . S
C573 C574 1.389 . S
C574 C573 1.389 . S
C574 C575 1.387 . S
C575 H560 0.930 . S
C575 C570 1.390 . S
C575 C574 1.387 . S
H576 C588 0.930 . S
H577 C590 0.930 . S
H578 C591 0.930 . S
H579 C595 0.959 . S
H580 C595 0.959 . S
H581 C595 0.961 . S
H582 C596 0.960 . S
H583 C596 0.961 . S
H584 C596 0.959 . S
H585 C599 0.929 . S
H586 C600 0.931 . S
H587 C602 0.930 . S
C588 H576 0.930 . S
C588 C589 1.399 . S
C588 C593 1.399 . S
C589 C588 1.399 . S
C589 C590 1.376 . S
C590 H577 0.930 . S
C590 C589 1.376 . S
C590 C591 1.388 . S
C591 H578 0.930 . S
C591 C590 1.388 . S
C591 C592 1.390 . S
C592 C591 1.390 . S
C592 C593 1.394 . S
C592 C598 1.465 . S
C593 C588 1.399 . S
C593 C592 1.394 . S
C593 C594 1.516 . S
C594 C593 1.516 . S
C594 C595 1.502 . S
C594 C596 1.561 . S
C594 C597 1.526 . S
C595 H579 0.959 . S
C595 H580 0.959 . S
C595 H581 0.961 . S
C595 C594 1.502 . S
C596 H582 0.960 . S
C596 H583 0.961 . S
C596 H584 0.959 . S
C596 C594 1.561 . S
C597 C594 1.526 . S
C597 C598 1.396 . S
C597 C602 1.390 . S
C598 C592 1.465 . S
C598 C597 1.396 . S
C598 C599 1.399 . S
C599 H585 0.929 . S
C599 C598 1.399 . S
C599 C600 1.385 . S
C600 H586 0.931 . S
C600 C599 1.385 . S
C600 C601 1.389 . S
C601 C600 1.389 . S
C601 C602 1.387 . S
C602 H587 0.930 . S
C602 C597 1.390 . S
C602 C601 1.387 . S
H603 C615 0.930 . S
H604 C617 0.930 . S
H605 C618 0.930 . S
H606 C622 0.959 . S
H607 C622 0.959 . S
H608 C622 0.961 . S
H609 C623 0.960 . S
H610 C623 0.961 . S
H611 C623 0.959 . S
H612 C626 0.929 . S
H613 C627 0.931 . S
H614 C629 0.930 . S
C615 H603 0.930 . S
C615 C616 1.399 . S
C615 C620 1.399 . S
C616 C615 1.399 . S
C616 C617 1.376 . S
C617 H604 0.930 . S
C617 C616 1.376 . S
C617 C618 1.388 . S
C618 H605 0.930 . S
C618 C617 1.388 . S
C618 C619 1.390 . S
C619 C618 1.390 . S
C619 C620 1.394 . S
C619 C625 1.465 . S
C620 C615 1.399 . S
C620 C619 1.394 . S
C620 C621 1.516 . S
C621 C620 1.516 . S
C621 C622 1.502 . S
C621 C623 1.561 . S
C621 C624 1.526 . S
C622 H606 0.959 . S
C622 H607 0.959 . S
C622 H608 0.961 . S
C622 C621 1.502 . S
C623 H609 0.960 . S
C623 H610 0.961 . S
C623 H611 0.959 . S
C623 C621 1.561 . S
C624 C621 1.526 . S
C624 C625 1.396 . S
C624 C629 1.390 . S
C625 C619 1.465 . S
C625 C624 1.396 . S
C625 C626 1.399 . S
C626 H612 0.929 . S
C626 C625 1.399 . S
C626 C627 1.385 . S
C627 H613 0.931 . S
C627 C626 1.385 . S
C627 C628 1.389 . S
C628 C627 1.389 . S
C628 C629 1.387 . S
C629 H614 0.930 . S
C629 C624 1.390 . S
C629 C628 1.387 . S
H630 C642 0.930 . S
H631 C644 0.930 . S
H632 C645 0.930 . S
H633 C649 0.959 . S
H634 C649 0.959 . S
H635 C649 0.961 . S
H636 C650 0.960 . S
H637 C650 0.961 . S
H638 C650 0.959 . S
H639 C653 0.929 . S
H640 C654 0.931 . S
H641 C656 0.930 . S
C642 H630 0.930 . S
C642 C643 1.399 . S
C642 C647 1.399 . S
C643 C642 1.399 . S
C643 C644 1.376 . S
C644 H631 0.930 . S
C644 C643 1.376 . S
C644 C645 1.388 . S
C645 H632 0.930 . S
C645 C644 1.388 . S
C645 C646 1.390 . S
C646 C645 1.390 . S
C646 C647 1.394 . S
C646 C652 1.465 . S
C647 C642 1.399 . S
C647 C646 1.394 . S
C647 C648 1.516 . S
C648 C647 1.516 . S
C648 C649 1.502 . S
C648 C650 1.561 . S
C648 C651 1.526 . S
C649 H633 0.959 . S
C649 H634 0.959 . S
C649 H635 0.961 . S
C649 C648 1.502 . S
C650 H636 0.960 . S
C650 H637 0.961 . S
C650 H638 0.959 . S
C650 C648 1.561 . S
C651 C648 1.526 . S
C651 C652 1.396 . S
C651 C656 1.390 . S
C652 C646 1.465 . S
C652 C651 1.396 . S
C652 C653 1.399 . S
C653 H639 0.929 . S
C653 C652 1.399 . S
C653 C654 1.385 . S
C654 H640 0.931 . S
C654 C653 1.385 . S
C654 C655 1.389 . S
C655 C654 1.389 . S
C655 C656 1.387 . S
C656 H641 0.930 . S
C656 C651 1.390 . S
C656 C655 1.387 . S
H657 C669 0.930 . S
H658 C671 0.930 . S
H659 C672 0.930 . S
H660 C676 0.959 . S
H661 C676 0.959 . S
H662 C676 0.961 . S
H663 C677 0.960 . S
H664 C677 0.961 . S
H665 C677 0.959 . S
H666 C680 0.929 . S
H667 C681 0.931 . S
H668 C683 0.930 . S
C669 H657 0.930 . S
C669 C670 1.399 . S
C669 C674 1.399 . S
C670 C669 1.399 . S
C670 C671 1.376 1_455 S
C671 H658 0.930 . S
C671 C670 1.376 1_655 S
C671 C672 1.388 . S
C672 H659 0.930 . S
C672 C671 1.388 . S
C672 C673 1.390 . S
C673 C672 1.390 . S
C673 C674 1.394 1_655 S
C673 C679 1.465 . S
C674 C669 1.399 . S
C674 C673 1.394 1_455 S
C674 C675 1.516 . S
C675 C674 1.516 . S
C675 C676 1.502 . S
C675 C677 1.561 . S
C675 C678 1.526 . S
C676 H660 0.959 . S
C676 H661 0.959 . S
C676 H662 0.961 . S
C676 C675 1.502 . S
C677 H663 0.960 . S
C677 H664 0.961 . S
C677 H665 0.959 . S
C677 C675 1.561 . S
C678 C675 1.526 . S
C678 C679 1.396 1_455 S
C678 C683 1.390 . S
C679 C673 1.465 . S
C679 C678 1.396 1_655 S
C679 C680 1.399 . S
C680 H666 0.929 . S
C680 C679 1.399 . S
C680 C681 1.385 . S
C681 H667 0.931 . S
C681 C680 1.385 . S
C681 C682 1.389 . S
C682 C681 1.389 . S
C682 C683 1.387 1_655 S
C683 H668 0.930 . S
C683 C678 1.390 . S
C683 C682 1.387 1_455 S
H684 C696 0.930 . S
H685 C698 0.930 . S
H686 C699 0.930 . S
H687 C703 0.959 . S
H688 C703 0.959 . S
H689 C703 0.961 . S
H690 C704 0.960 . S
H691 C704 0.961 . S
H692 C704 0.959 . S
H693 C707 0.929 . S
H694 C708 0.931 . S
H695 C710 0.930 . S
C696 H684 0.930 . S
C696 C697 1.399 . S
C696 C701 1.399 . S
C697 C696 1.399 . S
C697 C698 1.376 . S
C698 H685 0.930 . S
C698 C697 1.376 . S
C698 C699 1.388 . S
C699 H686 0.930 . S
C699 C698 1.388 . S
C699 C700 1.390 . S
C700 C699 1.390 . S
C700 C701 1.394 . S
C700 C706 1.465 . S
C701 C696 1.399 . S
C701 C700 1.394 . S
C701 C702 1.516 . S
C702 C701 1.516 . S
C702 C703 1.502 . S
C702 C704 1.561 . S
C702 C705 1.526 . S
C703 H687 0.959 . S
C703 H688 0.959 . S
C703 H689 0.961 . S
C703 C702 1.502 . S
C704 H690 0.960 . S
C704 H691 0.961 . S
C704 H692 0.959 . S
C704 C702 1.561 . S
C705 C702 1.526 . S
C705 C706 1.396 . S
C705 C710 1.390 . S
C706 C700 1.465 . S
C706 C705 1.396 . S
C706 C707 1.399 . S
C707 H693 0.929 . S
C707 C706 1.399 . S
C707 C708 1.385 . S
C708 H694 0.931 . S
C708 C707 1.385 . S
C708 C709 1.389 . S
C709 C708 1.389 . S
C709 C710 1.387 . S
C710 H695 0.930 . S
C710 C705 1.390 . S
C710 C709 1.387 . S
H711 C723 0.930 . S
H712 C725 0.930 . S
H713 C726 0.930 . S
H714 C730 0.959 . S
H715 C730 0.959 . S
H716 C730 0.961 . S
H717 C731 0.960 . S
H718 C731 0.961 . S
H719 C731 0.959 . S
H720 C734 0.929 . S
H721 C735 0.931 . S
H722 C737 0.930 . S
C723 H711 0.930 . S
C723 C724 1.399 . S
C723 C728 1.399 . S
C724 C723 1.399 . S
C724 C725 1.376 1_545 S
C725 H712 0.930 . S
C725 C724 1.376 1_565 S
C725 C726 1.388 . S
C726 H713 0.930 . S
C726 C725 1.388 . S
C726 C727 1.390 . S
C727 C726 1.390 . S
C727 C728 1.394 1_565 S
C727 C733 1.465 . S
C728 C723 1.399 . S
C728 C727 1.394 1_545 S
C728 C729 1.516 . S
C729 C728 1.516 . S
C729 C730 1.502 . S
C729 C731 1.561 . S
C729 C732 1.526 . S
C730 H714 0.959 . S
C730 H715 0.959 . S
C730 H716 0.961 . S
C730 C729 1.502 . S
C731 H717 0.960 . S
C731 H718 0.961 . S
C731 H719 0.959 . S
C731 C729 1.561 . S
C732 C729 1.526 . S
C732 C733 1.396 1_545 S
C732 C737 1.390 . S
C733 C727 1.465 . S
C733 C732 1.396 1_565 S
C733 C734 1.399 . S
C734 H720 0.929 . S
C734 C733 1.399 . S
C734 C735 1.385 . S
C735 H721 0.931 . S
C735 C734 1.385 . S
C735 C736 1.389 . S
C736 C735 1.389 . S
C736 C737 1.387 1_565 S
C737 H722 0.930 . S
C737 C732 1.390 . S
C737 C736 1.387 1_545 S
H738 C750 0.930 . S
H739 C752 0.932 1_546 S
H740 C753 0.930 . S
H741 C757 0.959 . S
H742 C757 0.959 . S
H743 C757 0.961 . S
H744 C758 0.960 . S
H745 C758 0.961 . S
H746 C758 0.959 . S
H747 C761 0.929 . S
H748 C762 0.931 . S
H749 C764 0.930 . S
C750 H738 0.930 . S
C750 C751 1.399 . S
C750 C755 1.399 . S
C751 C750 1.399 . S
C751 C752 1.376 . S
C752 H739 0.932 1_564 S
C752 C751 1.376 . S
C752 C753 1.388 1_554 S
C753 H740 0.930 . S
C753 C752 1.388 1_556 S
C753 C754 1.411 . S
C754 C753 1.411 . S
C754 C755 1.349 1_556 S
C754 C760 1.484 . S
C755 C750 1.399 . S
C755 C754 1.349 1_554 S
C755 C756 1.516 . S
C756 C755 1.516 . S
C756 C757 1.502 . S
C756 C758 1.561 . S
C756 C759 1.526 . S
C757 H741 0.959 . S
C757 H742 0.959 . S
C757 H743 0.961 . S
C757 C756 1.502 . S
C758 H744 0.960 . S
C758 H745 0.961 . S
C758 H746 0.959 . S
C758 C756 1.561 . S
C759 C756 1.526 . S
C759 C760 1.396 1_554 S
C759 C764 1.390 . S
C760 C754 1.484 . S
C760 C759 1.396 1_556 S
C760 C761 1.399 . S
C761 H747 0.929 . S
C761 C760 1.399 . S
C761 C762 1.385 . S
C762 H748 0.931 . S
C762 C761 1.385 . S
C762 C763 1.389 . S
C763 C762 1.389 . S
C763 C764 1.387 1_556 S
C764 H749 0.930 . S
C764 C759 1.390 . S
C764 C763 1.387 1_554 S
H765 C777 0.930 . S
H766 C779 0.930 . S
H767 C780 0.930 . S
H768 C784 0.959 . S
H769 C784 0.959 . S
H770 C784 0.961 . S
H771 C785 0.960 . S
H772 C785 0.961 . S
H773 C785 0.959 . S
H774 C788 0.929 . S
H775 C789 0.931 . S
H776 C791 0.930 . S
C777 H765 0.930 . S
C777 C778 1.399 . S
C777 C782 1.399 . S
C778 C777 1.399 . S
C778 C779 1.376 . S
C779 H766 0.930 . S
C779 C778 1.376 . S
C779 C780 1.388 . S
C780 H767 0.930 . S
C780 C779 1.388 . S
C780 C781 1.390 . S
C781 C780 1.390 . S
C781 C782 1.394 . S
C781 C787 1.465 1_554 S
C782 C777 1.399 . S
C782 C781 1.394 . S
C782 C783 1.516 . S
C783 C782 1.516 . S
C783 C784 1.502 1_554 S
C783 C785 1.561 . S
C783 C786 1.526 1_554 S
C784 H768 0.959 . S
C784 H769 0.959 . S
C784 H770 0.961 . S
C784 C783 1.502 1_556 S
C785 H771 0.960 . S
C785 H772 0.961 . S
C785 H773 0.959 . S
C785 C783 1.561 . S
C786 C783 1.526 1_556 S
C786 C787 1.396 . S
C786 C791 1.390 . S
C787 C781 1.465 1_556 S
C787 C786 1.396 . S
C787 C788 1.399 . S
C788 H774 0.929 . S
C788 C787 1.399 . S
C788 C789 1.385 . S
C789 H775 0.931 . S
C789 C788 1.385 . S
C789 C790 1.389 . S
C790 C789 1.389 . S
C790 C791 1.387 . S
C791 H776 0.930 . S
C791 C786 1.390 . S
C791 C790 1.387 . S
H792 C804 0.930 . S
H793 C806 0.930 1_556 S
H794 C807 0.930 . S
H795 C811 0.959 . S
H796 C811 0.959 . S
H797 C811 0.961 . S
H798 C812 0.960 . S
H799 C812 0.961 . S
H800 C812 0.959 . S
H801 C815 0.929 . S
H802 C816 0.931 . S
H803 C818 0.930 1_554 S
C804 H792 0.930 . S
C804 C805 1.399 . S
C804 C809 1.399 . S
C805 C804 1.399 . S
C805 C806 1.376 . S
C806 H793 0.930 1_554 S
C806 C805 1.376 . S
C806 C807 1.388 1_554 S
C807 H794 0.930 . S
C807 C806 1.388 1_556 S
C807 C808 1.390 . S
C808 C807 1.390 . S
C808 C809 1.394 1_556 S
C808 C814 1.465 . S
C809 C804 1.399 . S
C809 C808 1.394 1_554 S
C809 C810 1.516 . S
C810 C809 1.516 . S
C810 C811 1.502 . S
C810 C812 1.561 . S
C810 C813 1.526 . S
C811 H795 0.959 . S
C811 H796 0.959 . S
C811 H797 0.961 . S
C811 C810 1.502 . S
C812 H798 0.960 . S
C812 H799 0.961 . S
C812 H800 0.959 . S
C812 C810 1.561 . S
C813 C810 1.526 . S
C813 C814 1.396 1_554 S
C813 C818 1.390 1_554 S
C814 C808 1.465 . S
C814 C813 1.396 1_556 S
C814 C815 1.399 . S
C815 H801 0.929 . S
C815 C814 1.399 . S
C815 C816 1.385 . S
C816 H802 0.931 . S
C816 C815 1.385 . S
C816 C817 1.389 . S
C817 C816 1.389 . S
C817 C818 1.387 . S
C818 H803 0.930 1_556 S
C818 C813 1.390 1_556 S
C818 C817 1.387 . S
H819 C831 0.930 . S
H820 C833 0.930 . S
H821 C834 0.933 1_554 S
H822 C838 0.959 . S
H823 C838 0.959 . S
H824 C838 0.961 . S
H825 C839 0.960 . S
H826 C839 0.961 . S
H827 C839 0.959 . S
H828 C842 0.929 . S
H829 C843 0.931 . S
H830 C845 0.949 . S
C831 H819 0.930 . S
C831 C832 1.399 . S
C831 C836 1.399 . S
C832 C831 1.399 . S
C832 C833 1.376 . S
C833 H820 0.930 . S
C833 C832 1.376 . S
C833 C834 1.386 . S
C834 H821 0.933 1_556 S
C834 C833 1.386 . S
C834 C835 1.389 . S
C835 C834 1.389 . S
C835 C836 1.394 . S
C835 C841 1.465 1_556 S
C836 C831 1.399 . S
C836 C835 1.394 . S
C836 C837 1.516 . S
C837 C836 1.516 . S
C837 C838 1.502 . S
C837 C839 1.561 . S
C837 C840 1.526 . S
C838 H822 0.959 . S
C838 H823 0.959 . S
C838 H824 0.961 . S
C838 C837 1.502 . S
C839 H825 0.960 . S
C839 H826 0.961 . S
C839 H827 0.959 . S
C839 C837 1.561 . S
C840 C837 1.526 . S
C840 C841 1.396 1_556 S
C840 C845 1.390 1_556 S
C841 C835 1.465 1_554 S
C841 C840 1.396 1_554 S
C841 C842 1.399 . S
C842 H828 0.929 . S
C842 C841 1.399 . S
C842 C843 1.385 . S
C843 H829 0.931 . S
C843 C842 1.385 . S
C843 C844 1.389 . S
C844 C843 1.389 . S
C844 C845 1.387 . S
C845 H830 0.949 . S
C845 C840 1.390 1_554 S
C845 C844 1.387 . S
H846 C858 0.930 . S
H847 C860 0.930 . S
H848 C861 0.930 1_556 S
H849 C865 0.959 . S
H850 C865 0.959 . S
H851 C865 0.961 1_554 S
H852 C866 0.960 . S
H853 C866 0.961 . S
H854 C866 0.959 . S
H855 C869 0.929 . S
H856 C870 0.931 . S
H857 C872 0.930 . S
C858 H846 0.930 . S
C858 C859 1.399 . S
C858 C863 1.399 . S
C859 C858 1.399 . S
C859 C860 1.376 . S
C860 H847 0.930 . S
C860 C859 1.376 . S
C860 C861 1.388 . S
C861 H848 0.930 1_554 S
C861 C860 1.388 . S
C861 C862 1.390 . S
C862 C861 1.390 . S
C862 C863 1.394 . S
C862 C868 1.465 1_554 S
C863 C858 1.399 . S
C863 C862 1.394 . S
C863 C864 1.516 . S
C864 C863 1.516 . S
C864 C865 1.502 1_554 S
C864 C866 1.561 . S
C864 C867 1.526 1_554 S
C865 H849 0.959 . S
C865 H850 0.959 . S
C865 H851 0.961 1_556 S
C865 C864 1.502 1_556 S
C866 H852 0.960 . S
C866 H853 0.961 . S
C866 H854 0.959 . S
C866 C864 1.561 . S
C867 C864 1.526 1_556 S
C867 C868 1.396 . S
C867 C872 1.390 . S
C868 C862 1.465 1_556 S
C868 C867 1.396 . S
C868 C869 1.399 . S
C869 H855 0.929 . S
C869 C868 1.399 . S
C869 C870 1.385 . S
C870 H856 0.931 . S
C870 C869 1.385 . S
C870 C871 1.389 . S
C871 C870 1.389 . S
C871 C872 1.387 . S
C872 H857 0.930 . S
C872 C867 1.390 . S
C872 C871 1.387 . S
H873 C885 0.930 . S
H874 C887 0.930 . S
H875 C888 0.930 . S
H876 C892 0.959 . S
H877 C892 0.959 . S
H878 C892 0.961 . S
H879 C893 0.960 . S
H880 C893 0.961 . S
H881 C893 0.959 1_556 S
H882 C896 0.929 . S
H883 C897 0.941 . S
H884 C899 0.930 . S
C885 H873 0.930 . S
C885 C886 1.399 . S
C885 C890 1.399 . S
C886 C885 1.399 . S
C886 C887 1.376 . S
C887 H874 0.930 . S
C887 C886 1.376 . S
C887 C888 1.388 . S
C888 H875 0.930 . S
C888 C887 1.388 . S
C888 C889 1.390 . S
C889 C888 1.390 . S
C889 C890 1.394 . S
C889 C895 1.465 . S
C890 C885 1.399 . S
C890 C889 1.394 . S
C890 C891 1.516 1_556 S
C891 C890 1.516 1_554 S
C891 C892 1.502 . S
C891 C893 1.561 . S
C891 C894 1.526 . S
C892 H876 0.959 . S
C892 H877 0.959 . S
C892 H878 0.961 . S
C892 C891 1.502 . S
C893 H879 0.960 . S
C893 H880 0.961 . S
C893 H881 0.959 1_554 S
C893 C891 1.561 . S
C894 C891 1.526 . S
C894 C895 1.396 1_554 S
C894 C899 1.390 . S
C895 C889 1.465 . S
C895 C894 1.396 1_556 S
C895 C896 1.399 . S
C896 H882 0.929 . S
C896 C895 1.399 . S
C896 C897 1.411 . S
C897 H883 0.941 . S
C897 C896 1.411 . S
C897 C898 1.355 1_556 S
C898 C897 1.355 1_554 S
C898 C899 1.387 . S
C899 H884 0.930 . S
C899 C894 1.390 . S
C899 C898 1.387 . S
H900 C912 0.930 . S
H901 C914 0.930 . S
H902 C915 0.930 . S
H903 C919 0.959 . S
H904 C919 0.959 . S
H905 C919 0.961 . S
H906 C920 0.960 . S
H907 C920 0.961 . S
H908 C920 0.959 . S
H909 C923 0.929 . S
H910 C924 0.931 . S
H911 C926 0.930 . S
C912 H900 0.930 . S
C912 C913 1.399 . S
C912 C917 1.399 . S
C913 C912 1.399 . S
C913 C914 1.376 . S
C914 H901 0.930 . S
C914 C913 1.376 . S
C914 C915 1.388 . S
C915 H902 0.930 . S
C915 C914 1.388 . S
C915 C916 1.390 . S
C916 C915 1.390 . S
C916 C917 1.394 . S
C916 C922 1.465 . S
C917 C912 1.399 . S
C917 C916 1.394 . S
C917 C918 1.516 . S
C918 C917 1.516 . S
C918 C919 1.502 . S
C918 C920 1.561 . S
C918 C921 1.526 . S
C919 H903 0.959 . S
C919 H904 0.959 . S
C919 H905 0.961 . S
C919 C918 1.502 . S
C920 H906 0.960 . S
C920 H907 0.961 . S
C920 H908 0.959 . S
C920 C918 1.561 . S
C921 C918 1.526 . S
C921 C922 1.396 . S
C921 C926 1.390 . S
C922 C916 1.465 . S
C922 C921 1.396 . S
C922 C923 1.399 . S
C923 H909 0.929 . S
C923 C922 1.399 . S
C923 C924 1.385 . S
C924 H910 0.931 . S
C924 C923 1.385 . S
C924 C925 1.389 . S
C925 C924 1.389 . S
C925 C926 1.387 . S
C926 H911 0.930 . S
C926 C921 1.390 . S
C926 C925 1.387 . S
H927 C939 0.930 . S
H928 C941 0.930 . S
H929 C942 0.930 . S
H930 C946 0.959 . S
H931 C946 0.959 . S
H932 C946 0.961 . S
H933 C947 0.960 . S
H934 C947 0.961 . S
H935 C947 0.959 . S
H936 C950 0.929 . S
H937 C951 0.931 . S
H938 C953 0.930 . S
C939 H927 0.930 . S
C939 C940 1.399 . S
C939 C944 1.399 . S
C940 C939 1.399 . S
C940 C941 1.376 . S
C941 H928 0.930 . S
C941 C940 1.376 . S
C941 C942 1.388 . S
C942 H929 0.930 . S
C942 C941 1.388 . S
C942 C943 1.390 . S
C943 C942 1.390 . S
C943 C944 1.394 . S
C943 C949 1.465 . S
C944 C939 1.399 . S
C944 C943 1.394 . S
C944 C945 1.516 . S
C945 C944 1.516 . S
C945 C946 1.502 . S
C945 C947 1.561 . S
C945 C948 1.526 . S
C946 H930 0.959 . S
C946 H931 0.959 . S
C946 H932 0.961 . S
C946 C945 1.502 . S
C947 H933 0.960 . S
C947 H934 0.961 . S
C947 H935 0.959 . S
C947 C945 1.561 . S
C948 C945 1.526 . S
C948 C949 1.396 . S
C948 C953 1.390 . S
C949 C943 1.465 . S
C949 C948 1.396 . S
C949 C950 1.399 . S
C950 H936 0.929 . S
C950 C949 1.399 . S
C950 C951 1.385 . S
C951 H937 0.931 . S
C951 C950 1.385 . S
C951 C952 1.389 . S
C952 C951 1.389 . S
C952 C953 1.387 . S
C953 H938 0.930 . S
C953 C948 1.390 . S
C953 C952 1.387 . S
H954 C966 0.930 . S
H955 C968 0.930 . S
H956 C969 0.930 . S
H957 C973 0.959 . S
H958 C973 0.959 . S
H959 C973 0.961 . S
H960 C974 0.960 . S
H961 C974 0.961 . S
H962 C974 0.959 . S
H963 C977 0.929 . S
H964 C978 0.931 . S
H965 C980 0.930 . S
C966 H954 0.930 . S
C966 C967 1.399 . S
C966 C971 1.399 . S
C967 C966 1.399 . S
C967 C968 1.376 . S
C968 H955 0.930 . S
C968 C967 1.376 . S
C968 C969 1.388 . S
C969 H956 0.930 . S
C969 C968 1.388 . S
C969 C970 1.390 . S
C970 C969 1.390 . S
C970 C971 1.394 . S
C970 C976 1.465 . S
C971 C966 1.399 . S
C971 C970 1.394 . S
C971 C972 1.516 . S
C972 C971 1.516 . S
C972 C973 1.502 . S
C972 C974 1.561 . S
C972 C975 1.526 . S
C973 H957 0.959 . S
C973 H958 0.959 . S
C973 H959 0.961 . S
C973 C972 1.502 . S
C974 H960 0.960 . S
C974 H961 0.961 . S
C974 H962 0.959 . S
C974 C972 1.561 . S
C975 C972 1.526 . S
C975 C976 1.396 . S
C975 C980 1.390 . S
C976 C970 1.465 . S
C976 C975 1.396 . S
C976 C977 1.399 . S
C977 H963 0.929 . S
C977 C976 1.399 . S
C977 C978 1.385 . S
C978 H964 0.931 . S
C978 C977 1.385 . S
C978 C979 1.389 . S
C979 C978 1.389 . S
C979 C980 1.387 . S
C980 H965 0.930 . S
C980 C975 1.390 . S
C980 C979 1.387 . S
H981 C993 0.930 . S
H982 C995 0.930 . S
H983 C996 0.930 . S
H984 C1000 0.959 . S
H985 C1000 0.959 . S
H986 C1000 0.961 . S
H987 C1001 0.960 . S
H988 C1001 0.961 . S
H989 C1001 0.959 . S
H990 C1004 0.929 . S
H991 C1005 0.931 . S
H992 C1007 0.930 . S
C993 H981 0.930 . S
C993 C994 1.399 . S
C993 C998 1.399 . S
C994 C993 1.399 . S
C994 C995 1.376 . S
C995 H982 0.930 . S
C995 C994 1.376 . S
C995 C996 1.388 . S
C996 H983 0.930 . S
C996 C995 1.388 . S
C996 C997 1.390 . S
C997 C996 1.390 . S
C997 C998 1.394 . S
C997 C1003 1.465 . S
C998 C993 1.399 . S
C998 C997 1.394 . S
C998 C999 1.516 . S
C999 C998 1.516 . S
C999 C1000 1.502 . S
C999 C1001 1.561 . S
C999 C1002 1.526 . S
C1000 H984 0.959 . S
C1000 H985 0.959 . S
C1000 H986 0.961 . S
C1000 C999 1.502 . S
C1001 H987 0.960 . S
C1001 H988 0.961 . S
C1001 H989 0.959 . S
C1001 C999 1.561 . S
C1002 C999 1.526 . S
C1002 C1003 1.396 . S
C1002 C1007 1.390 . S
C1003 C997 1.465 . S
C1003 C1002 1.396 . S
C1003 C1004 1.399 . S
C1004 H990 0.929 . S
C1004 C1003 1.399 . S
C1004 C1005 1.385 . S
C1005 H991 0.931 . S
C1005 C1004 1.385 . S
C1005 C1006 1.389 . S
C1006 C1005 1.389 . S
C1006 C1007 1.387 . S
C1007 H992 0.930 . S
C1007 C1002 1.390 . S
C1007 C1006 1.387 . S
H1008 C1020 0.930 1_565 S
H1009 C1022 0.930 . S
H1010 C1023 0.930 . S
H1011 C1027 0.971 . S
H1012 C1027 0.959 . S
H1013 C1027 0.961 . S
H1014 C1028 0.960 . S
H1015 C1028 0.961 . S
H1016 C1028 0.959 . S
H1017 C1031 0.929 . S
H1018 C1032 0.931 . S
H1019 C1034 0.930 . S
C1020 H1008 0.930 1_545 S
C1020 C1021 1.399 . S
C1020 C1025 1.399 . S
C1021 C1020 1.399 . S
C1021 C1022 1.376 . S
C1022 H1009 0.930 . S
C1022 C1021 1.376 . S
C1022 C1023 1.388 . S
C1023 H1010 0.930 . S
C1023 C1022 1.388 . S
C1023 C1024 1.390 . S
C1024 C1023 1.390 . S
C1024 C1025 1.394 . S
C1024 C1030 1.465 . S
C1025 C1020 1.399 . S
C1025 C1024 1.394 . S
C1025 C1026 1.516 1_545 S
C1026 C1025 1.516 1_565 S
C1026 C1027 1.502 . S
C1026 C1028 1.561 . S
C1026 C1029 1.526 1_565 S
C1027 H1011 0.971 . S
C1027 H1012 0.959 . S
C1027 H1013 0.961 . S
C1027 C1026 1.502 . S
C1028 H1014 0.960 . S
C1028 H1015 0.961 . S
C1028 H1016 0.959 . S
C1028 C1026 1.561 . S
C1029 C1026 1.526 1_545 S
C1029 C1030 1.396 . S
C1029 C1034 1.390 1_545 S
C1030 C1024 1.465 . S
C1030 C1029 1.396 . S
C1030 C1031 1.399 . S
C1031 H1017 0.929 . S
C1031 C1030 1.399 . S
C1031 C1032 1.385 . S
C1032 H1018 0.931 . S
C1032 C1031 1.385 . S
C1032 C1033 1.389 . S
C1033 C1032 1.389 . S
C1033 C1034 1.387 1_545 S
C1034 H1019 0.930 . S
C1034 C1029 1.390 1_565 S
C1034 C1033 1.387 1_565 S
H1035 C1047 0.930 . S
H1036 C1049 0.930 . S
H1037 C1050 0.930 . S
H1038 C1054 0.959 . S
H1039 C1054 0.959 . S
H1040 C1054 0.961 . S
H1041 C1055 0.960 . S
H1042 C1055 0.961 . S
H1043 C1055 0.959 . S
H1044 C1058 0.929 . S
H1045 C1059 0.931 . S
H1046 C1061 0.930 . S
C1047 H1035 0.930 . S
C1047 C1048 1.399 . S
C1047 C1052 1.399 . S
C1048 C1047 1.399 . S
C1048 C1049 1.376 . S
C1049 H1036 0.930 . S
C1049 C1048 1.376 . S
C1049 C1050 1.388 . S
C1050 H1037 0.930 . S
C1050 C1049 1.388 . S
C1050 C1051 1.390 . S
C1051 C1050 1.390 . S
C1051 C1052 1.394 . S
C1051 C1057 1.465 . S
C1052 C1047 1.399 . S
C1052 C1051 1.394 . S
C1052 C1053 1.516 . S
C1053 C1052 1.516 . S
C1053 C1054 1.502 1_655 S
C1053 C1055 1.561 . S
C1053 C1056 1.526 . S
C1054 H1038 0.959 . S
C1054 H1039 0.959 . S
C1054 H1040 0.961 . S
C1054 C1053 1.502 1_455 S
C1055 H1041 0.960 . S
C1055 H1042 0.961 . S
C1055 H1043 0.959 . S
C1055 C1053 1.561 . S
C1056 C1053 1.526 . S
C1056 C1057 1.396 . S
C1056 C1061 1.390 . S
C1057 C1051 1.465 . S
C1057 C1056 1.396 . S
C1057 C1058 1.399 . S
C1058 H1044 0.929 . S
C1058 C1057 1.399 . S
C1058 C1059 1.385 . S
C1059 H1045 0.931 . S
C1059 C1058 1.385 . S
C1059 C1060 1.389 . S
C1060 C1059 1.389 . S
C1060 C1061 1.387 . S
C1061 H1046 0.930 . S
C1061 C1056 1.390 . S
C1061 C1060 1.387 . S
H1062 C1074 0.930 . S
H1063 C1076 0.930 . S
H1064 C1077 0.930 . S
H1065 C1081 0.959 . S
H1066 C1081 0.959 . S
H1067 C1081 0.961 . S
H1068 C1082 0.960 . S
H1069 C1082 0.961 . S
H1070 C1082 0.959 . S
H1071 C1085 0.929 . S
H1072 C1086 0.931 . S
H1073 C1088 0.930 . S
C1074 H1062 0.930 . S
C1074 C1075 1.399 . S
C1074 C1079 1.399 . S
C1075 C1074 1.399 . S
C1075 C1076 1.376 . S
C1076 H1063 0.930 . S
C1076 C1075 1.376 . S
C1076 C1077 1.388 . S
C1077 H1064 0.930 . S
C1077 C1076 1.388 . S
C1077 C1078 1.390 . S
C1078 C1077 1.390 . S
C1078 C1079 1.394 . S
C1078 C1084 1.465 . S
C1079 C1074 1.399 . S
C1079 C1078 1.394 . S
C1079 C1080 1.516 . S
C1080 C1079 1.516 . S
C1080 C1081 1.502 . S
C1080 C1082 1.561 . S
C1080 C1083 1.526 . S
C1081 H1065 0.959 . S
C1081 H1066 0.959 . S
C1081 H1067 0.961 . S
C1081 C1080 1.502 . S
C1082 H1068 0.960 . S
C1082 H1069 0.961 . S
C1082 H1070 0.959 . S
C1082 C1080 1.561 . S
C1083 C1080 1.526 . S
C1083 C1084 1.396 . S
C1083 C1088 1.390 . S
C1084 C1078 1.465 . S
C1084 C1083 1.396 . S
C1084 C1085 1.399 . S
C1085 H1071 0.929 . S
C1085 C1084 1.399 . S
C1085 C1086 1.385 . S
C1086 H1072 0.931 . S
C1086 C1085 1.385 . S
C1086 C1087 1.389 . S
C1087 C1086 1.389 . S
C1087 C1088 1.387 . S
C1088 H1073 0.930 . S
C1088 C1083 1.390 . S
C1088 C1087 1.387 . S
H1089 C1101 0.930 1_545 S
H1090 C1103 0.930 . S
H1091 C1104 0.930 . S
H1092 C1108 0.959 . S
H1093 C1108 0.959 . S
H1094 C1108 0.961 . S
H1095 C1109 0.960 . S
H1096 C1109 0.961 . S
H1097 C1109 0.959 . S
H1098 C1112 0.929 . S
H1099 C1113 0.931 . S
H1100 C1115 0.930 . S
C1101 H1089 0.930 1_565 S
C1101 C1102 1.399 . S
C1101 C1106 1.399 . S
C1102 C1101 1.399 . S
C1102 C1103 1.376 . S
C1103 H1090 0.930 . S
C1103 C1102 1.376 . S
C1103 C1104 1.388 . S
C1104 H1091 0.930 . S
C1104 C1103 1.388 . S
C1104 C1105 1.390 . S
C1105 C1104 1.390 . S
C1105 C1106 1.394 . S
C1105 C1111 1.465 . S
C1106 C1101 1.399 . S
C1106 C1105 1.394 . S
C1106 C1107 1.516 . S
C1107 C1106 1.516 . S
C1107 C1108 1.502 . S
C1107 C1109 1.561 1_565 S
C1107 C1110 1.526 . S
C1108 H1092 0.959 . S
C1108 H1093 0.959 . S
C1108 H1094 0.961 . S
C1108 C1107 1.502 . S
C1109 H1095 0.960 . S
C1109 H1096 0.961 . S
C1109 H1097 0.959 . S
C1109 C1107 1.561 1_545 S
C1110 C1107 1.526 . S
C1110 C1111 1.396 . S
C1110 C1115 1.390 . S
C1111 C1105 1.465 . S
C1111 C1110 1.396 . S
C1111 C1112 1.399 . S
C1112 H1098 0.929 . S
C1112 C1111 1.399 . S
C1112 C1113 1.385 . S
C1113 H1099 0.931 . S
C1113 C1112 1.385 . S
C1113 C1114 1.389 . S
C1114 C1113 1.389 . S
C1114 C1115 1.387 . S
C1115 H1100 0.930 . S
C1115 C1110 1.390 . S
C1115 C1114 1.387 . S
H1116 C1128 0.930 . S
H1117 C1130 0.930 . S
H1118 C1131 0.930 . S
H1119 C1135 0.959 . S
H1120 C1135 0.959 . S
H1121 C1135 0.961 . S
H1122 C1136 0.960 . S
H1123 C1136 0.961 . S
H1124 C1136 0.959 . S
H1125 C1139 0.929 . S
H1126 C1140 0.931 . S
H1127 C1142 0.930 . S
C1128 H1116 0.930 . S
C1128 C1129 1.399 . S
C1128 C1133 1.399 . S
C1129 C1128 1.399 . S
C1129 C1130 1.376 1_455 S
C1130 H1117 0.930 . S
C1130 C1129 1.376 1_655 S
C1130 C1131 1.388 . S
C1131 H1118 0.930 . S
C1131 C1130 1.388 . S
C1131 C1132 1.390 1_655 S
C1132 C1131 1.390 1_455 S
C1132 C1133 1.394 . S
C1132 C1138 1.465 . S
C1133 C1128 1.399 . S
C1133 C1132 1.394 . S
C1133 C1134 1.516 . S
C1134 C1133 1.516 . S
C1134 C1135 1.502 . S
C1134 C1136 1.561 . S
C1134 C1137 1.526 . S
C1135 H1119 0.959 . S
C1135 H1120 0.959 . S
C1135 H1121 0.961 . S
C1135 C1134 1.502 . S
C1136 H1122 0.960 . S
C1136 H1123 0.961 . S
C1136 H1124 0.959 . S
C1136 C1134 1.561 . S
C1137 C1134 1.526 . S
C1137 C1138 1.396 . S
C1137 C1142 1.390 . S
C1138 C1132 1.465 . S
C1138 C1137 1.396 . S
C1138 C1139 1.399 1_455 S
C1139 H1125 0.929 . S
C1139 C1138 1.399 1_655 S
C1139 C1140 1.385 . S
C1140 H1126 0.931 . S
C1140 C1139 1.385 . S
C1140 C1141 1.389 1_655 S
C1141 C1140 1.389 1_455 S
C1141 C1142 1.387 . S
C1142 H1127 0.930 . S
C1142 C1137 1.390 . S
C1142 C1141 1.387 . S
H1143 C1155 0.930 . S
H1144 C1157 0.930 . S
H1145 C1158 0.930 . S
H1146 C1162 0.959 . S
H1147 C1162 0.959 . S
H1148 C1162 0.961 . S
H1149 C1163 0.960 . S
H1150 C1163 0.961 . S
H1151 C1163 0.959 . S
H1152 C1166 0.929 . S
H1153 C1167 0.931 . S
H1154 C1169 0.930 . S
C1155 H1143 0.930 . S
C1155 C1156 1.399 . S
C1155 C1160 1.399 . S
C1156 C1155 1.399 . S
C1156 C1157 1.376 . S
C1157 H1144 0.930 . S
C1157 C1156 1.376 . S
C1157 C1158 1.388 . S
C1158 H1145 0.930 . S
C1158 C1157 1.388 . S
C1158 C1159 1.390 . S
C1159 C1158 1.390 . S
C1159 C1160 1.394 . S
C1159 C1165 1.465 . S
C1160 C1155 1.399 . S
C1160 C1159 1.394 . S
C1160 C1161 1.516 . S
C1161 C1160 1.516 . S
C1161 C1162 1.502 . S
C1161 C1163 1.561 . S
C1161 C1164 1.526 . S
C1162 H1146 0.959 . S
C1162 H1147 0.959 . S
C1162 H1148 0.961 . S
C1162 C1161 1.502 . S
C1163 H1149 0.960 . S
C1163 H1150 0.961 . S
C1163 H1151 0.959 . S
C1163 C1161 1.561 . S
C1164 C1161 1.526 . S
C1164 C1165 1.396 . S
C1164 C1169 1.390 . S
C1165 C1159 1.465 . S
C1165 C1164 1.396 . S
C1165 C1166 1.399 . S
C1166 H1152 0.929 . S
C1166 C1165 1.399 . S
C1166 C1167 1.385 . S
C1167 H1153 0.931 . S
C1167 C1166 1.385 . S
C1167 C1168 1.389 . S
C1168 C1167 1.389 . S
C1168 C1169 1.387 . S
C1169 H1154 0.930 . S
C1169 C1164 1.390 . S
C1169 C1168 1.387 . S
H1170 C1182 0.930 . S
H1171 C1184 0.930 . S
H1172 C1185 0.930 . S
H1173 C1189 0.959 . S
H1174 C1189 0.959 . S
H1175 C1189 0.961 . S
H1176 C1190 0.960 . S
H1177 C1190 0.961 . S
H1178 C1190 0.959 . S
H1179 C1193 0.929 . S
H1180 C1194 0.931 . S
H1181 C1196 0.930 . S
C1182 H1170 0.930 . S
C1182 C1183 1.399 . S
C1182 C1187 1.399 . S
C1183 C1182 1.399 . S
C1183 C1184 1.376 . S
C1184 H1171 0.930 . S
C1184 C1183 1.376 . S
C1184 C1185 1.388 . S
C1185 H1172 0.930 . S
C1185 C1184 1.388 . S
C1185 C1186 1.390 . S
C1186 C1185 1.390 . S
C1186 C1187 1.394 . S
C1186 C1192 1.465 . S
C1187 C1182 1.399 . S
C1187 C1186 1.394 . S
C1187 C1188 1.516 . S
C1188 C1187 1.516 . S
C1188 C1189 1.502 . S
C1188 C1190 1.561 . S
C1188 C1191 1.526 . S
C1189 H1173 0.959 . S
C1189 H1174 0.959 . S
C1189 H1175 0.961 . S
C1189 C1188 1.502 . S
C1190 H1176 0.960 . S
C1190 H1177 0.961 . S
C1190 H1178 0.959 . S
C1190 C1188 1.561 . S
C1191 C1188 1.526 . S
C1191 C1192 1.396 . S
C1191 C1196 1.390 . S
C1192 C1186 1.465 . S
C1192 C1191 1.396 . S
C1192 C1193 1.399 . S
C1193 H1179 0.929 . S
C1193 C1192 1.399 . S
C1193 C1194 1.385 . S
C1194 H1180 0.931 . S
C1194 C1193 1.385 . S
C1194 C1195 1.389 . S
C1195 C1194 1.389 . S
C1195 C1196 1.387 . S
C1196 H1181 0.930 . S
C1196 C1191 1.390 . S
C1196 C1195 1.387 . S
H1197 C1209 0.930 . S
H1198 C1211 0.930 . S
H1199 C1212 0.930 . S
H1200 C1216 0.959 . S
H1201 C1216 0.959 . S
H1202 C1216 0.961 . S
H1203 C1217 0.960 . S
H1204 C1217 0.961 . S
H1205 C1217 0.959 . S
H1206 C1220 0.929 . S
H1207 C1221 0.931 . S
H1208 C1223 0.930 . S
C1209 H1197 0.930 . S
C1209 C1210 1.399 . S
C1209 C1214 1.399 . S
C1210 C1209 1.399 . S
C1210 C1211 1.376 . S
C1211 H1198 0.930 . S
C1211 C1210 1.376 . S
C1211 C1212 1.388 . S
C1212 H1199 0.930 . S
C1212 C1211 1.388 . S
C1212 C1213 1.390 . S
C1213 C1212 1.390 . S
C1213 C1214 1.394 . S
C1213 C1219 1.465 . S
C1214 C1209 1.399 . S
C1214 C1213 1.394 . S
C1214 C1215 1.516 . S
C1215 C1214 1.516 . S
C1215 C1216 1.502 . S
C1215 C1217 1.561 . S
C1215 C1218 1.526 . S
C1216 H1200 0.959 . S
C1216 H1201 0.959 . S
C1216 H1202 0.961 . S
C1216 C1215 1.502 . S
C1217 H1203 0.960 . S
C1217 H1204 0.961 . S
C1217 H1205 0.959 . S
C1217 C1215 1.561 . S
C1218 C1215 1.526 . S
C1218 C1219 1.396 . S
C1218 C1223 1.390 . S
C1219 C1213 1.465 . S
C1219 C1218 1.396 . S
C1219 C1220 1.399 . S
C1220 H1206 0.929 . S
C1220 C1219 1.399 . S
C1220 C1221 1.385 . S
C1221 H1207 0.931 . S
C1221 C1220 1.385 . S
C1221 C1222 1.389 . S
C1222 C1221 1.389 . S
C1222 C1223 1.387 . S
C1223 H1208 0.930 . S
C1223 C1218 1.390 . S
C1223 C1222 1.387 . S
C265 C8 2.080 . S
C277 C45 2.120 . S
C292 C17 2.078 . S
C304 C59 2.052 . S
C319 C73 2.046 . S
C331 C36 2.009 . S
C346 C92 2.077 . S
C358 C129 2.108 . S
C373 C101 2.052 . S
C385 C143 2.080 . S
C400 C157 2.029 . S
C412 C120 2.040 . S
C427 C213 2.122 . S
C439 C176 2.084 . S
C454 C227 2.065 . S
C466 C185 2.070 . S
C481 C241 2.024 . S
C493 C204 2.042 . S
C508 C3 1.723 . S
C520 C134 1.672 . S
C535 C22 1.665 . S
C547 C148 1.676 . S
C562 C162 1.650 . S
C574 C31 1.659 . S
C589 C50 1.713 . S
C601 C171 1.679 . S
C616 C64 1.696 . S
C628 C190 1.641 . S
C643 C78 1.655 . S
C655 C199 1.644 . S
C670 C87 1.685 . S
C682 C218 1.720 . S
C697 C106 1.693 . S
C709 C232 1.643 . S
C724 C246 1.648 . S
C736 C115 1.639 . S
C751 C7 0.489 . S
C763 C63 0.564 . S
C778 C23 0.530 . S
C790 C77 0.507 . S
C805 C35 0.469 . S
C817 C49 0.563 . S
C832 C51 0.522 . S
C844 C21 0.567 . S
C859 C37 0.588 . S
C871 C65 0.570 . S
C886 C79 0.622 . S
C898 C9 0.621 . S
C913 C91 0.485 . S
C925 C147 0.575 . S
C940 C161 0.408 . S
C952 C107 0.544 . S
C967 C133 0.544 . S
C979 C119 0.416 . S
C994 C105 0.610 . S
C1006 C135 0.484 . S
C1021 C149 0.546 . S
C1033 C121 0.532 . S
C1048 C163 0.626 . S
C1060 C93 0.608 . S
C1075 C231 0.518 . S
C1087 C175 0.425 . S
C1102 C245 0.558 . S
C1114 C191 0.417 . S
C1129 C203 0.567 . S
C1141 C217 0.475 . S
C1156 C189 0.529 . S
C1168 C219 0.582 . S
C1183 C205 0.547 . S
C1195 C233 0.537 . S
C1210 C177 0.625 . S
C1222 C247 0.637 . S
