# Generated by pormake.
# Topology tzs, (4)-cn, num edge types: 1
# Building blocks:
#     Node 0, Type 0, BuildingBlock: AZAVOO_clean_sbu_0, # of connection points: 4
#     Node 1, Type 0, BuildingBlock: AZAVOO_clean_sbu_0, # of connection points: 4
#     Node 2, Type 0, BuildingBlock: AZAVOO_clean_sbu_0, # of connection points: 4
#     Node 3, Type 0, BuildingBlock: AZAVOO_clean_sbu_0, # of connection points: 4
#     Node 4, Type 0, BuildingBlock: AZAVOO_clean_sbu_0, # of connection points: 4
#     Node 5, Type 0, BuildingBlock: AZAVOO_clean_sbu_0, # of connection points: 4
#     Node 6, Type 0, BuildingBlock: AZAVOO_clean_sbu_0, # of connection points: 4
#     Node 7, Type 0, BuildingBlock: AZAVOO_clean_sbu_0, # of connection points: 4
#     Node 8, Type 0, BuildingBlock: AZAVOO_clean_sbu_0, # of connection points: 4
#     Node 9, Type 0, BuildingBlock: AZAVOO_clean_sbu_0, # of connection points: 4
#     Node 10, Type 0, BuildingBlock: AZAVOO_clean_sbu_0, # of connection points: 4
#     Node 11, Type 0, BuildingBlock: AZAVOO_clean_sbu_0, # of connection points: 4
#     Node 12, Type 0, BuildingBlock: AZAVOO_clean_sbu_0, # of connection points: 4
#     Node 13, Type 0, BuildingBlock: AZAVOO_clean_sbu_0, # of connection points: 4
#     Node 14, Type 0, BuildingBlock: AZAVOO_clean_sbu_0, # of connection points: 4
#     Node 15, Type 0, BuildingBlock: AZAVOO_clean_sbu_0, # of connection points: 4
#     Edge 16, Type (0, 0), BuildingBlock: AJUNOK_clean_linker_0, # of connection points: 2
#     Edge 17, Type (0, 0), BuildingBlock: AJUNOK_clean_linker_0, # of connection points: 2
#     Edge 18, Type (0, 0), BuildingBlock: AJUNOK_clean_linker_0, # of connection points: 2
#     Edge 19, Type (0, 0), BuildingBlock: AJUNOK_clean_linker_0, # of connection points: 2
#     Edge 20, Type (0, 0), BuildingBlock: AJUNOK_clean_linker_0, # of connection points: 2
#     Edge 21, Type (0, 0), BuildingBlock: AJUNOK_clean_linker_0, # of connection points: 2
#     Edge 22, Type (0, 0), BuildingBlock: AJUNOK_clean_linker_0, # of connection points: 2
#     Edge 23, Type (0, 0), BuildingBlock: AJUNOK_clean_linker_0, # of connection points: 2
#     Edge 24, Type (0, 0), BuildingBlock: AJUNOK_clean_linker_0, # of connection points: 2
#     Edge 25, Type (0, 0), BuildingBlock: AJUNOK_clean_linker_0, # of connection points: 2
#     Edge 26, Type (0, 0), BuildingBlock: AJUNOK_clean_linker_0, # of connection points: 2
#     Edge 27, Type (0, 0), BuildingBlock: AJUNOK_clean_linker_0, # of connection points: 2
#     Edge 28, Type (0, 0), BuildingBlock: AJUNOK_clean_linker_0, # of connection points: 2
#     Edge 29, Type (0, 0), BuildingBlock: AJUNOK_clean_linker_0, # of connection points: 2
#     Edge 30, Type (0, 0), BuildingBlock: AJUNOK_clean_linker_0, # of connection points: 2
#     Edge 31, Type (0, 0), BuildingBlock: AJUNOK_clean_linker_0, # of connection points: 2
#     Edge 32, Type (0, 0), BuildingBlock: AJUNOK_clean_linker_0, # of connection points: 2
#     Edge 33, Type (0, 0), BuildingBlock: AJUNOK_clean_linker_0, # of connection points: 2
#     Edge 34, Type (0, 0), BuildingBlock: AJUNOK_clean_linker_0, # of connection points: 2
#     Edge 35, Type (0, 0), BuildingBlock: AJUNOK_clean_linker_0, # of connection points: 2
#     Edge 36, Type (0, 0), BuildingBlock: AJUNOK_clean_linker_0, # of connection points: 2
#     Edge 37, Type (0, 0), BuildingBlock: AJUNOK_clean_linker_0, # of connection points: 2
#     Edge 38, Type (0, 0), BuildingBlock: AJUNOK_clean_linker_0, # of connection points: 2
#     Edge 39, Type (0, 0), BuildingBlock: AJUNOK_clean_linker_0, # of connection points: 2
#     Edge 40, Type (0, 0), BuildingBlock: AJUNOK_clean_linker_0, # of connection points: 2
#     Edge 41, Type (0, 0), BuildingBlock: AJUNOK_clean_linker_0, # of connection points: 2
#     Edge 42, Type (0, 0), BuildingBlock: AJUNOK_clean_linker_0, # of connection points: 2
#     Edge 43, Type (0, 0), BuildingBlock: AJUNOK_clean_linker_0, # of connection points: 2
#     Edge 44, Type (0, 0), BuildingBlock: AJUNOK_clean_linker_0, # of connection points: 2
#     Edge 45, Type (0, 0), BuildingBlock: AJUNOK_clean_linker_0, # of connection points: 2
#     Edge 46, Type (0, 0), BuildingBlock: AJUNOK_clean_linker_0, # of connection points: 2
#     Edge 47, Type (0, 0), BuildingBlock: AJUNOK_clean_linker_0, # of connection points: 2
# Relax obj value: 0.114
# Max RMSD: 0.120
# Mean RMSD: 0.120
data_MOF--net-tzs--node1-AZAVOO_clean_sbu_0--edge1-AJUNOK_clean_linker_0
_symmetry_space_group_name_H-M    P1
_symmetry_Int_Tables_number       1
_symmetry_cell_setting            triclinic
loop_
_symmetry_equiv_pos_as_xyz
'x, y, z'
_cell_length_a     35.211899
_cell_length_b     35.133522
_cell_length_c     30.894401
_cell_angle_alpha  90.02762
_cell_angle_beta   89.931476
_cell_angle_gamma 90.019176
loop_
_atom_site_label
_atom_site_type_symbol
_atom_site_fract_x
_atom_site_fract_y
_atom_site_fract_z
_atom_type_partial_charge
Mg0 Mg 0.15105 0.37108 0.15595 0.0
O1 O 0.0927 0.36133 0.1883 0.0
O2 O 0.0702 0.3071 0.1607 0.0
Mg3 Mg 0.11014 0.28697 0.1065 0.0
C4 C 0.06747 0.33522 0.18672 0.0
C5 C 0.18318 0.44309 0.18877 0.0
O6 O 0.19021 0.44237 0.147 0.0
O7 O 0.177 0.32207 0.19304 0.0
O8 O 0.15524 0.27082 0.15777 0.0
O9 O 0.12642 0.40699 0.1047 0.0
O10 O 0.13458 0.34465 0.09929 0.0
C11 C 0.17625 0.28618 0.18667 0.0
C12 C 0.12404 0.37627 0.08179 0.0
O13 O 0.16697 0.41459 0.2061 0.0
Mg14 Mg 0.64656 0.1648 0.16337 0.0
O15 O 0.65439 0.10435 0.19078 0.0
O16 O 0.70231 0.07792 0.15383 0.0
Mg17 Mg 0.72303 0.12062 0.10223 0.0
C18 C 0.67687 0.07658 0.18332 0.0
C19 C 0.57967 0.20038 0.20202 0.0
O20 O 0.58177 0.21161 0.16152 0.0
O21 O 0.69959 0.18346 0.19884 0.0
O22 O 0.74573 0.16178 0.15518 0.0
O23 O 0.60548 0.14616 0.11335 0.0
O24 O 0.66759 0.14923 0.10324 0.0
C25 C 0.7345 0.18099 0.18801 0.0
C26 C 0.63433 0.142 0.08792 0.0
O27 O 0.60669 0.18062 0.21744 0.0
Mg28 Mg 0.85853 0.65398 0.15542 0.0
O29 O 0.91722 0.66614 0.18553 0.0
O30 O 0.93642 0.72134 0.15727 0.0
Mg31 Mg 0.89382 0.74055 0.10558 0.0
C32 C 0.94111 0.69342 0.18314 0.0
C33 C 0.83074 0.57972 0.18525 0.0
O34 O 0.82234 0.58275 0.14399 0.0
O35 O 0.83141 0.70136 0.19509 0.0
O36 O 0.85058 0.75365 0.1597 0.0
O37 O 0.88369 0.62099 0.10128 0.0
O38 O 0.87087 0.68244 0.09884 0.0
C39 C 0.83107 0.7374 0.18936 0.0
C40 C 0.88211 0.65216 0.07907 0.0
O41 O 0.84622 0.60786 0.20424 0.0
Mg42 Mg 0.35919 0.86292 0.15198 0.0
O43 O 0.35037 0.92223 0.18188 0.0
O44 O 0.29751 0.94663 0.15327 0.0
Mg45 Mg 0.2743 0.90331 0.10427 0.0
C46 C 0.32593 0.94883 0.17867 0.0
C47 C 0.43314 0.83402 0.18339 0.0
O48 O 0.43142 0.82509 0.14215 0.0
O49 O 0.31163 0.83875 0.19314 0.0
O50 O 0.2599 0.86202 0.16027 0.0
O51 O 0.39222 0.88619 0.09681 0.0
O52 O 0.33029 0.87574 0.0957 0.0
C53 C 0.27561 0.84147 0.18937 0.0
C54 C 0.36069 0.8857 0.07533 0.0
O55 O 0.40465 0.85003 0.20093 0.0
Mg56 Mg 0.15751 0.65472 0.3199 0.0
O57 O 0.09795 0.66674 0.29231 0.0
O58 O 0.07675 0.71863 0.32619 0.0
Mg59 Mg 0.1202 0.73608 0.37781 0.0
C60 C 0.07282 0.69245 0.29789 0.0
C61 C 0.18804 0.585 0.28295 0.0
O62 O 0.19984 0.58767 0.32316 0.0
O63 O 0.18214 0.70527 0.28373 0.0
O64 O 0.16106 0.75447 0.32316 0.0
O65 O 0.13383 0.61713 0.3705 0.0
O66 O 0.14562 0.67854 0.37954 0.0
C67 C 0.18053 0.7409 0.29178 0.0
C68 C 0.13452 0.64653 0.39569 0.0
O69 O 0.16956 0.61263 0.26682 0.0
Mg70 Mg 0.3621 0.16568 0.31861 0.0
O71 O 0.35142 0.10645 0.28861 0.0
O72 O 0.29967 0.08317 0.32077 0.0
Mg73 Mg 0.278 0.12702 0.36997 0.0
C74 C 0.32682 0.08008 0.29359 0.0
C75 C 0.43434 0.19626 0.28875 0.0
O76 O 0.42972 0.20602 0.32947 0.0
O77 O 0.31394 0.19093 0.27943 0.0
O78 O 0.26287 0.1686 0.3145 0.0
O79 O 0.3965 0.14107 0.37152 0.0
O80 O 0.33488 0.15284 0.37618 0.0
C81 C 0.27803 0.18905 0.28489 0.0
C82 C 0.36577 0.14146 0.39446 0.0
O83 O 0.40747 0.17903 0.26946 0.0
Mg84 Mg 0.84792 0.36677 0.31893 0.0
O85 O 0.90984 0.36017 0.29627 0.0
O86 O 0.93143 0.3072 0.3277 0.0
Mg87 Mg 0.88769 0.28688 0.37829 0.0
C88 C 0.93565 0.33507 0.30155 0.0
C89 C 0.81893 0.43771 0.27908 0.0
O90 O 0.80675 0.43785 0.31929 0.0
O91 O 0.8312 0.31465 0.27923 0.0
O92 O 0.84834 0.26679 0.32309 0.0
O93 O 0.86329 0.40564 0.37291 0.0
O94 O 0.86003 0.34297 0.37854 0.0
C95 C 0.83185 0.27933 0.28909 0.0
C96 C 0.86644 0.37546 0.39648 0.0
O97 O 0.83645 0.40855 0.26513 0.0
Mg98 Mg 0.64463 0.85718 0.31992 0.0
O99 O 0.65503 0.91627 0.29038 0.0
O100 O 0.70536 0.94186 0.32296 0.0
Mg101 Mg 0.72705 0.89772 0.37207 0.0
C102 C 0.6786 0.94347 0.29525 0.0
C103 C 0.57185 0.82957 0.28311 0.0
O104 O 0.57074 0.82082 0.32444 0.0
O105 O 0.69362 0.83246 0.28186 0.0
O106 O 0.744 0.85587 0.31722 0.0
O107 O 0.60939 0.88072 0.37315 0.0
O108 O 0.67102 0.86935 0.37824 0.0
C109 C 0.72942 0.83478 0.28781 0.0
C110 C 0.63973 0.87947 0.39666 0.0
O111 O 0.60161 0.84509 0.26798 0.0
Mg112 Mg 0.85795 0.64732 0.81584 0.0
O113 O 0.848 0.58558 0.79427 0.0
O114 O 0.79569 0.56642 0.8285 0.0
Mg115 Mg 0.77809 0.61237 0.87798 0.0
C116 C 0.82231 0.56069 0.80115 0.0
C117 C 0.92805 0.67502 0.7767 0.0
O118 O 0.92628 0.68814 0.81649 0.0
O119 O 0.80639 0.66723 0.77715 0.0
O120 O 0.75909 0.65192 0.82272 0.0
O121 O 0.89596 0.62961 0.86981 0.0
O122 O 0.83428 0.63971 0.87633 0.0
C123 C 0.77145 0.66826 0.7885 0.0
C124 C 0.86632 0.632 0.89436 0.0
O125 O 0.90002 0.6563 0.76191 0.0
Mg126 Mg 0.3467 0.85251 0.81423 0.0
O127 O 0.40595 0.84104 0.78673 0.0
O128 O 0.43095 0.79256 0.82359 0.0
Mg129 Mg 0.38715 0.77467 0.87557 0.0
C130 C 0.43282 0.81755 0.79367 0.0
C131 C 0.31652 0.92125 0.77382 0.0
O132 O 0.30499 0.9208 0.81429 0.0
O133 O 0.32453 0.80011 0.77957 0.0
O134 O 0.34507 0.75345 0.82328 0.0
O135 O 0.36896 0.89222 0.86428 0.0
O136 O 0.35911 0.83076 0.87481 0.0
C137 C 0.32579 0.76515 0.79082 0.0
C138 C 0.36889 0.86339 0.89027 0.0
O139 O 0.33448 0.89259 0.75931 0.0
Mg140 Mg 0.13809 0.33892 0.82373 0.0
O141 O 0.14896 0.39766 0.7923 0.0
O142 O 0.20081 0.42125 0.82418 0.0
Mg143 Mg 0.21833 0.38141 0.87952 0.0
C144 C 0.17439 0.42344 0.79601 0.0
C145 C 0.06963 0.30448 0.78541 0.0
O146 O 0.06931 0.29556 0.82671 0.0
O147 O 0.18951 0.31407 0.79025 0.0
O148 O 0.23818 0.33704 0.82887 0.0
O149 O 0.09862 0.36285 0.87207 0.0
O150 O 0.16066 0.35659 0.88197 0.0
C151 C 0.22489 0.31576 0.79889 0.0
C152 C 0.12796 0.36698 0.89676 0.0
O153 O 0.09805 0.32239 0.77031 0.0
Mg154 Mg 0.65404 0.13773 0.82641 0.0
O155 O 0.59436 0.14786 0.79767 0.0
O156 O 0.57381 0.2027 0.82571 0.0
Mg157 Mg 0.61666 0.2236 0.87626 0.0
C158 C 0.56953 0.17427 0.80041 0.0
C159 C 0.68212 0.06371 0.79406 0.0
O160 O 0.69177 0.06559 0.83506 0.0
O161 O 0.67836 0.18562 0.78574 0.0
O162 O 0.65856 0.23779 0.82078 0.0
O163 O 0.63157 0.10336 0.88046 0.0
O164 O 0.64039 0.16572 0.88333 0.0
C165 C 0.67781 0.22169 0.79078 0.0
C166 C 0.62997 0.13471 0.9023 0.0
O167 O 0.66643 0.09246 0.77666 0.0
Mg168 Mg 0.85949 0.34485 0.65638 0.0
O169 O 0.84902 0.40309 0.68929 0.0
O170 O 0.79495 0.42494 0.66081 0.0
Mg171 Mg 0.77601 0.38533 0.60584 0.0
C172 C 0.82242 0.42777 0.68756 0.0
C173 C 0.92976 0.31031 0.68869 0.0
O174 O 0.92711 0.30171 0.64742 0.0
O175 O 0.81033 0.31853 0.69281 0.0
O176 O 0.75938 0.34032 0.65733 0.0
O177 O 0.89603 0.37012 0.60625 0.0
O178 O 0.83401 0.3617 0.59916 0.0
C179 C 0.77455 0.31937 0.68642 0.0
C180 C 0.86591 0.37255 0.58251 0.0
O181 O 0.9026 0.32826 0.70656 0.0
Mg182 Mg 0.65112 0.85168 0.65911 0.0
O183 O 0.59152 0.84089 0.68678 0.0
O184 O 0.56793 0.79015 0.65241 0.0
Mg185 Mg 0.61207 0.77023 0.60192 0.0
C186 C 0.56517 0.81655 0.68068 0.0
C187 C 0.6805 0.9231 0.69664 0.0
O188 O 0.68991 0.9233 0.65548 0.0
O189 O 0.67312 0.80102 0.69698 0.0
O190 O 0.65381 0.75199 0.65595 0.0
O191 O 0.62962 0.88886 0.606 0.0
O192 O 0.63842 0.82698 0.60022 0.0
C193 C 0.67235 0.76552 0.68807 0.0
C194 C 0.62936 0.85867 0.58203 0.0
O195 O 0.66368 0.89405 0.71194 0.0
Mg196 Mg 0.14586 0.64106 0.65807 0.0
O197 O 0.15353 0.58031 0.68371 0.0
O198 O 0.20829 0.55944 0.65627 0.0
Mg199 Mg 0.22972 0.60305 0.606 0.0
C200 C 0.17936 0.55501 0.68074 0.0
C201 C 0.07284 0.66993 0.6886 0.0
O202 O 0.07718 0.68088 0.64824 0.0
O203 O 0.19455 0.66247 0.70039 0.0
O204 O 0.24493 0.64508 0.66045 0.0
O205 O 0.11176 0.62085 0.60216 0.0
O206 O 0.17373 0.63054 0.60042 0.0
C207 C 0.23022 0.66281 0.69249 0.0
C208 C 0.14298 0.62183 0.58014 0.0
O209 O 0.10005 0.65271 0.70723 0.0
Mg210 Mg 0.35374 0.14067 0.6571 0.0
O211 O 0.41281 0.15035 0.68715 0.0
O212 O 0.43295 0.20657 0.66279 0.0
Mg213 Mg 0.38971 0.22936 0.61369 0.0
C214 C 0.43743 0.17701 0.68622 0.0
C215 C 0.32685 0.06466 0.68306 0.0
O216 O 0.31878 0.06852 0.6418 0.0
O217 O 0.32756 0.18571 0.70061 0.0
O218 O 0.34723 0.23978 0.66938 0.0
O219 O 0.37849 0.11054 0.60089 0.0
O220 O 0.36551 0.17215 0.60229 0.0
C221 C 0.32773 0.222 0.69788 0.0
C222 C 0.3771 0.14284 0.58088 0.0
O223 O 0.34185 0.09247 0.7031 0.0
C224 C 0.21623 0.20126 0.24741 0.0
C225 C 0.25307 0.21348 0.2583 0.0
C226 C 0.19153 0.2248 0.22391 0.0
C227 C 0.20244 0.26178 0.21167 0.0
H228 H 0.20649 0.17323 0.2569 0.0
H229 H 0.1635 0.21422 0.21589 0.0
S230 S 0.29575 0.30736 0.23244 0.0
N231 N 0.29933 0.26481 0.2547 0.0
N232 N 0.25265 0.30933 0.2116 0.0
C233 C 0.23913 0.27436 0.2225 0.0
C234 C 0.26454 0.25013 0.2455 0.0
C235 C 0.78597 0.22571 0.28264 0.0
C236 C 0.81002 0.25229 0.26237 0.0
C237 C 0.76205 0.20209 0.25828 0.0
C238 C 0.76238 0.20335 0.21284 0.0
H239 H 0.78452 0.22423 0.31764 0.0
H240 H 0.74291 0.18297 0.27508 0.0
S241 S 0.82166 0.2664 0.14426 0.0
N242 N 0.83335 0.27793 0.19437 0.0
N243 N 0.78958 0.23225 0.14842 0.0
C244 C 0.78735 0.22872 0.19215 0.0
C245 C 0.81086 0.25358 0.21697 0.0
C246 C 0.81592 0.79863 0.22693 0.0
C247 C 0.80542 0.76121 0.21588 0.0
C248 C 0.79123 0.82234 0.25031 0.0
C249 C 0.75476 0.80984 0.26226 0.0
H250 H 0.84352 0.80959 0.2177 0.0
H251 H 0.80057 0.85082 0.25857 0.0
S252 S 0.71349 0.71444 0.24083 0.0
N253 N 0.75623 0.7127 0.21889 0.0
N254 N 0.7095 0.7575 0.26177 0.0
C255 C 0.74385 0.77256 0.25117 0.0
C256 C 0.76928 0.74817 0.2283 0.0
C257 C 0.26337 0.7803 0.22765 0.0
C258 C 0.25129 0.81727 0.21696 0.0
C259 C 0.23989 0.75555 0.25107 0.0
C260 C 0.20386 0.76718 0.26556 0.0
H261 H 0.29085 0.77005 0.21698 0.0
H262 H 0.25031 0.72727 0.25843 0.0
S263 S 0.1593 0.86141 0.24696 0.0
N264 N 0.20101 0.86441 0.22268 0.0
N265 N 0.15728 0.81823 0.26798 0.0
C266 C 0.19164 0.80428 0.2557 0.0
C267 C 0.21524 0.82922 0.23102 0.0
C268 C 0.71936 0.71268 0.69381 0.0
C269 C 0.69561 0.73943 0.71429 0.0
C270 C 0.74404 0.68962 0.71795 0.0
C271 C 0.74477 0.69176 0.76334 0.0
H272 H 0.71971 0.71041 0.65883 0.0
H273 H 0.76254 0.66994 0.70106 0.0
S274 S 0.68724 0.75628 0.83227 0.0
N275 N 0.67416 0.7666 0.78231 0.0
N276 N 0.71932 0.7222 0.82787 0.0
C277 C 0.72044 0.71771 0.78418 0.0
C278 C 0.69617 0.74187 0.75958 0.0
C279 C 0.28146 0.71127 0.69774 0.0
C280 C 0.25522 0.68729 0.71869 0.0
C281 C 0.30433 0.73646 0.72133 0.0
C282 C 0.30258 0.73753 0.7667 0.0
H283 H 0.2836 0.7113 0.66275 0.0
H284 H 0.3236 0.7551 0.70402 0.0
S285 S 0.23947 0.67981 0.83692 0.0
N286 N 0.22882 0.66612 0.78721 0.0
N287 N 0.27311 0.71231 0.83185 0.0
C288 C 0.27713 0.7131 0.78811 0.0
C289 C 0.25304 0.68828 0.764 0.0
C290 C 0.28771 0.30413 0.76342 0.0
C291 C 0.25122 0.29106 0.77444 0.0
C292 C 0.31262 0.28136 0.73917 0.0
C293 C 0.30229 0.24436 0.72624 0.0
H294 H 0.29673 0.33247 0.77266 0.0
H295 H 0.34013 0.29285 0.73039 0.0
S296 S 0.21061 0.19619 0.74904 0.0
N297 N 0.20633 0.23852 0.77176 0.0
N298 N 0.25343 0.1954 0.72722 0.0
C299 C 0.26628 0.23059 0.73821 0.0
C300 C 0.24065 0.25405 0.762 0.0
C301 C 0.6905 0.2826 0.75121 0.0
C302 C 0.70209 0.24562 0.7627 0.0
C303 C 0.71384 0.3062 0.72594 0.0
C304 C 0.75 0.29402 0.71242 0.0
H305 H 0.66312 0.29329 0.76163 0.0
H306 H 0.70383 0.33443 0.71766 0.0
S307 S 0.79369 0.19984 0.73397 0.0
N308 N 0.75191 0.19784 0.75817 0.0
N309 N 0.79609 0.24251 0.71178 0.0
C310 C 0.76193 0.25718 0.72377 0.0
C311 C 0.73788 0.23288 0.74859 0.0
C312 C 0.09841 0.35074 0.96696 0.0
C313 C 0.12277 0.37453 0.943 0.0
C314 C 0.09752 0.35237 0.01225 0.0
C315 C 0.11987 0.37887 0.03463 0.0
H316 H 0.08163 0.32918 0.95072 0.0
H317 H 0.08014 0.33217 0.02988 0.0
S318 S 0.18627 0.44914 0.98633 0.0
N319 N 0.16867 0.42591 0.9444 0.0
N320 N 0.16568 0.43062 0.02955 0.0
C321 C 0.14273 0.40425 0.0108 0.0
C322 C 0.14456 0.40165 0.96485 0.0
C323 C 0.64945 0.10848 0.97315 0.0
C324 C 0.62594 0.13333 0.94953 0.0
C325 C 0.65135 0.11047 0.01838 0.0
C326 C 0.62871 0.13639 0.04129 0.0
H327 H 0.66806 0.08878 0.95641 0.0
H328 H 0.67111 0.09224 0.03544 0.0
S329 S 0.56082 0.20583 -0.00546 0.0
N330 N 0.57903 0.18377 0.95209 0.0
N331 N 0.58092 0.18629 0.03743 0.0
C332 C 0.60369 0.16005 0.01814 0.0
C333 C 0.60275 0.15887 0.97206 0.0
C334 C 0.89435 0.61298 0.96557 0.0
C335 C 0.87099 0.63725 0.94126 0.0
C336 C 0.89958 0.61904 0.01011 0.0
C337 C 0.88274 0.65035 0.03128 0.0
H338 H 0.90784 0.58872 0.9503 0.0
H339 H 0.91626 0.59866 0.02826 0.0
S340 S 0.82284 0.72477 0.98005 0.0
N341 N 0.83324 0.69512 0.94034 0.0
N342 N 0.844 0.70737 0.02335 0.0
C343 C 0.86106 0.67595 0.00649 0.0
C344 C 0.85489 0.66913 0.96165 0.0
C345 C 0.33766 0.85815 0.00656 0.0
C346 C 0.36165 0.8842 0.02767 0.0
C347 C 0.34162 0.85061 0.96244 0.0
C348 C 0.36902 0.86955 0.93737 0.0
H349 H 0.31648 0.84228 0.02453 0.0
H350 H 0.32245 0.83026 0.94769 0.0
S351 S 0.4378 0.94155 0.97645 0.0
N352 N 0.41374 0.92917 0.02022 0.0
N353 N 0.41969 0.91648 0.93616 0.0
C354 C 0.39253 0.89649 0.95759 0.0
C355 C 0.38925 0.9034 0.00304 0.0
C356 C 0.16426 0.65246 0.51233 0.0
C357 C 0.14141 0.62496 0.53269 0.0
C358 C 0.16004 0.6607 0.4684 0.0
C359 C 0.1335 0.64106 0.44287 0.0
H360 H 0.18489 0.66866 0.53072 0.0
H361 H 0.1786 0.68187 0.4541 0.0
S362 S 0.06716 0.56607 0.48042 0.0
N363 N 0.09083 0.57849 0.52439 0.0
N364 N 0.08433 0.59254 0.44074 0.0
C365 C 0.11076 0.61312 0.46258 0.0
C366 C 0.11433 0.60546 0.50778 0.0
C367 C 0.35124 0.16676 0.51166 0.0
C368 C 0.37762 0.14356 0.53326 0.0
C369 C 0.3463 0.1642 0.46692 0.0
C370 C 0.36822 0.13903 0.44191 0.0
H371 H 0.3333 0.18627 0.52958 0.0
H372 H 0.32579 0.18288 0.45172 0.0
S373 S 0.44177 0.0727 0.48265 0.0
N374 N 0.42575 0.09435 0.52653 0.0
N375 N 0.41782 0.09093 0.44163 0.0
C376 C 0.39518 0.11608 0.46288 0.0
C377 C 0.39953 0.11798 0.50878 0.0
C378 C 0.84295 0.39939 0.467 0.0
C379 C 0.8703 0.37866 0.44356 0.0
C380 C 0.84221 0.39849 0.51237 0.0
C381 C 0.86967 0.37797 0.53549 0.0
H382 H 0.82082 0.41479 0.45009 0.0
H383 H 0.81966 0.41322 0.52939 0.0
S384 S 0.94849 0.32089 0.48875 0.0
N385 N 0.92577 0.33797 0.44624 0.0
N386 N 0.92584 0.33761 0.53159 0.0
C387 C 0.89826 0.35864 0.51227 0.0
C388 C 0.89819 0.3586 0.46617 0.0
C389 C 0.61591 0.89658 0.51494 0.0
C390 C 0.62693 0.86191 0.53429 0.0
C391 C 0.61972 0.90246 0.47012 0.0
C392 C 0.6357 0.87426 0.44363 0.0
H393 H 0.60508 0.91966 0.53465 0.0
H394 H 0.61108 0.92945 0.45634 0.0
S395 S 0.66562 0.77741 0.47681 0.0
N396 N 0.65158 0.79797 0.52211 0.0
N397 N 0.65956 0.80959 0.43857 0.0
C398 C 0.64552 0.83915 0.46213 0.0
C399 C 0.64089 0.8328 0.5073 0.0
C400 C 0.18875 0.5481 0.2141 0.0
C401 C 0.19129 0.54862 0.25944 0.0
C402 C 0.18793 0.51367 0.19138 0.0
C403 C 0.18881 0.47858 0.2133 0.0
H404 H 0.1867 0.57445 0.19606 0.0
H405 H 0.18501 0.51464 0.15649 0.0
S406 S 0.1976 0.46434 0.33171 0.0
N407 N 0.19676 0.511 0.32541 0.0
N408 N 0.1944 0.44629 0.28251 0.0
C409 C 0.19251 0.47865 0.25849 0.0
C410 C 0.19401 0.5137 0.28163 0.0
C411 C 0.50928 0.20574 0.20179 0.0
C412 C 0.54338 0.20381 0.22546 0.0
C413 C 0.47401 0.20401 0.22256 0.0
C414 C 0.47162 0.20119 0.26778 0.0
H415 H 0.50973 0.20697 0.16675 0.0
H416 H 0.44847 0.20438 0.20303 0.0
S417 S 0.55256 0.1979 0.34471 0.0
N418 N 0.57265 0.20056 0.2965 0.0
N419 N 0.50632 0.19828 0.33589 0.0
C420 C 0.50549 0.20092 0.29201 0.0
C421 C 0.54142 0.20195 0.27074 0.0
C422 C 0.82066 0.54281 0.25315 0.0
C423 C 0.82487 0.54328 0.20797 0.0
C424 C 0.81703 0.50843 0.2756 0.0
C425 C 0.8183 0.47327 0.25376 0.0
H426 H 0.82044 0.56917 0.27136 0.0
H427 H 0.81459 0.50948 0.31054 0.0
S428 S 0.82765 0.45901 0.13535 0.0
N429 N 0.82874 0.50565 0.14185 0.0
N430 N 0.82274 0.44098 0.18437 0.0
C431 C 0.82177 0.47333 0.20851 0.0
C432 C 0.82481 0.50837 0.18552 0.0
C433 C 0.50148 0.82646 0.27722 0.0
C434 C 0.53717 0.82657 0.25668 0.0
C435 C 0.4679 0.82801 0.25319 0.0
C436 C 0.46877 0.82899 0.20776 0.0
H437 H 0.49939 0.82666 0.31221 0.0
H438 H 0.44108 0.829 0.27039 0.0
S439 S 0.55498 0.8267 0.13837 0.0
N440 N 0.57146 0.82574 0.18836 0.0
N441 N 0.50827 0.82795 0.14296 0.0
C442 C 0.50424 0.82739 0.18673 0.0
C443 C 0.53848 0.8264 0.21126 0.0
C444 C 0.856 0.51226 0.75476 0.0
C445 C 0.82228 0.52517 0.77467 0.0
C446 C 0.85617 0.4801 0.72757 0.0
C447 C 0.82247 0.46023 0.71833 0.0
H448 H 0.8825 0.5272 0.76007 0.0
H449 H 0.88267 0.47141 0.71272 0.0
S450 S 0.72694 0.48091 0.76328 0.0
N451 N 0.75453 0.5141 0.78431 0.0
N452 N 0.75487 0.45455 0.73254 0.0
C453 C 0.78874 0.47239 0.73842 0.0
C454 C 0.78864 0.50457 0.76676 0.0
C455 C 0.53521 0.81791 0.75413 0.0
C456 C 0.53114 0.81783 0.7088 0.0
C457 C 0.50329 0.81737 0.78156 0.0
C458 C 0.46627 0.8181 0.76454 0.0
H459 H 0.56328 0.81751 0.76847 0.0
H460 H 0.50759 0.81684 0.81627 0.0
S461 S 0.44044 0.81897 0.64818 0.0
N462 N 0.48736 0.81826 0.6482 0.0
N463 N 0.42742 0.81916 0.69958 0.0
C464 C 0.4619 0.81877 0.71929 0.0
C465 C 0.49433 0.81811 0.69145 0.0
C466 C 0.20919 0.47278 0.75305 0.0
C467 C 0.17444 0.45636 0.76577 0.0
C468 C 0.21045 0.50392 0.72465 0.0
C469 C 0.17697 0.52056 0.70857 0.0
H470 H 0.23577 0.46128 0.76487 0.0
H471 H 0.23792 0.5156 0.71605 0.0
S472 S 0.07861 0.48836 0.73174 0.0
N473 N 0.10568 0.45872 0.75944 0.0
N474 N 0.10797 0.51799 0.70712 0.0
C475 C 0.14199 0.50447 0.72101 0.0
C476 C 0.14074 0.47217 0.74924 0.0
C477 C 0.48776 0.20873 0.73047 0.0
C478 C 0.47127 0.1749 0.7149 0.0
C479 C 0.51902 0.20804 0.75851 0.0
C480 C 0.53572 0.1735 0.77158 0.0
H481 H 0.47609 0.23612 0.72144 0.0
H482 H 0.53053 0.23495 0.76953 0.0
S483 S 0.50383 0.0768 0.73958 0.0
N484 N 0.47402 0.10573 0.71471 0.0
N485 N 0.53345 0.10446 0.76659 0.0
C486 C 0.51981 0.13939 0.75596 0.0
C487 C 0.48742 0.14008 0.72795 0.0
C488 C 0.68584 0.02764 0.72476 0.0
C489 C 0.68543 0.02748 0.7702 0.0
C490 C 0.68581 0.99358 0.70132 0.0
C491 C 0.68459 0.95814 0.72249 0.0
H492 H 0.68568 0.05429 0.70711 0.0
H493 H 0.68534 0.99516 0.66631 0.0
S494 S 0.68499 0.94205 0.84105 0.0
N495 N 0.68556 0.9888 0.83566 0.0
N496 N 0.68473 0.92477 0.79135 0.0
C497 C 0.68513 0.95749 0.7679 0.0
C498 C 0.68579 0.99219 0.79183 0.0
C499 C 0.99853 0.67831 0.77636 0.0
C500 C 0.96427 0.67678 0.75296 0.0
C501 C 0.03364 0.6765 0.75526 0.0
C502 C 0.03569 0.67403 0.71 0.0
H503 H 0.9983 0.67961 0.81139 0.0
H504 H 0.05932 0.67683 0.77455 0.0
S505 S 0.95423 0.67107 0.63378 0.0
N506 N 0.93448 0.67367 0.68219 0.0
N507 N 1.00054 0.67125 0.64219 0.0
C508 C 0.00166 0.67374 0.68609 0.0
C509 C 0.9659 0.67482 0.70767 0.0
C510 C 0.3162 0.0266 0.74986 0.0
C511 C 0.32101 0.02781 0.70479 0.0
C512 C 0.31291 0.99186 0.77158 0.0
C513 C 0.31511 0.95707 0.74908 0.0
H514 H 0.31535 0.05267 0.7686 0.0
H515 H 0.3101 0.99238 0.80649 0.0
S516 S 0.326 0.94478 0.63055 0.0
N517 N 0.32621 0.99132 0.63798 0.0
N518 N 0.32084 0.92591 0.67914 0.0
C519 C 0.31901 0.95786 0.70388 0.0
C520 C 0.32172 0.99329 0.68163 0.0
C521 C 0.99929 0.30008 0.78092 0.0
C522 C 0.03466 0.30053 0.75967 0.0
C523 C 0.96534 0.30208 0.75761 0.0
C524 C 0.96555 0.30377 0.71222 0.0
H525 H 0.99773 0.30003 0.81595 0.0
H526 H 0.93879 0.30313 0.77533 0.0
S527 S 0.05067 0.30188 0.64109 0.0
N528 N 0.06792 0.30029 0.69072 0.0
N529 N 0.00405 0.30319 0.64661 0.0
C530 C 1.00068 0.30208 0.69043 0.0
C531 C 0.03528 0.30071 0.71426 0.0
C532 C 0.34488 0.04755 0.22395 0.0
C533 C 0.32866 0.04556 0.26568 0.0
C534 C 0.34434 0.01603 0.19583 0.0
C535 C 0.32815 0.98132 0.20877 0.0
H536 H 0.35713 0.07397 0.21243 0.0
H537 H 0.3563 0.01892 0.16367 0.0
S538 S 0.28432 0.95994 0.315 0.0
N539 N 0.29733 0.005 0.31874 0.0
N540 N 0.29699 0.94596 0.26602 0.0
C541 C 0.31285 0.9785 0.25055 0.0
C542 C 0.31293 0.01056 0.27898 0.0
C543 C 0.98773 0.3023 0.26086 0.0
C544 C 0.9703 0.33647 0.274 0.0
C545 C 0.0189 0.30231 0.23253 0.0
C546 C 0.03458 0.33652 0.21691 0.0
H547 H 0.9766 0.27516 0.27167 0.0
H548 H 0.03097 0.27521 0.22302 0.0
S549 S 1.00043 0.43387 0.24258 0.0
N550 N 0.97138 0.40556 0.26956 0.0
N551 N 0.03074 0.4056 0.21737 0.0
C552 C 0.01802 0.37097 0.23052 0.0
C553 C 0.98568 0.37093 0.25869 0.0
C554 C 0.67953 0.0141 0.28357 0.0
C555 C 0.67599 0.97714 0.2665 0.0
C556 C 0.67835 0.04627 0.25653 0.0
C557 C 0.67493 0.04249 0.21136 0.0
H558 H 0.68309 0.01818 0.31809 0.0
H559 H 0.6813 0.07425 0.27091 0.0
S560 S 0.66504 0.95212 0.15052 0.0
N561 N 0.66814 0.93874 0.20166 0.0
N562 N 0.66783 0.99908 0.15078 0.0
C563 C 0.67149 0.00576 0.19389 0.0
C564 C 0.67149 0.9731 0.22149 0.0
C565 C 0.02345 0.65895 0.25301 0.0
C566 C 0.0389 0.69307 0.26927 0.0
C567 C 0.99157 0.65917 0.22559 0.0
C568 C 0.9746 0.69356 0.21241 0.0
H569 H 0.03583 0.63185 0.26192 0.0
H570 H 0.9805 0.63223 0.2141 0.0
S571 S 0.00451 0.7907 0.24537 0.0
N572 N 0.0347 0.76215 0.27011 0.0
N573 N 0.9756 0.7626 0.21803 0.0
C574 C 0.98999 0.72784 0.22821 0.0
C575 C 0.02187 0.72758 0.25677 0.0
loop_
_geom_bond_atom_site_label_1
_geom_bond_atom_site_label_2
_geom_bond_distance
_geom_bond_site_symmetry_2
_ccdc_geom_bond_type
Mg0 O1 2.028 . S
Mg0 O7 1.986 . S
Mg0 O9 2.114 . S
Mg0 O10 2.251 . S
Mg0 O13 2.010 . S
O1 Mg0 2.028 . S
O1 C4 1.250 . S
O2 Mg3 2.028 . S
O2 C4 1.248 . S
Mg3 O2 2.028 . S
Mg3 O8 2.032 . S
Mg3 O10 2.079 . S
C4 O1 1.250 . S
C4 O2 1.248 . S
C5 O6 1.264 . S
C5 O13 1.249 . S
O6 C5 1.264 . S
O7 Mg0 1.986 . S
O7 C11 1.246 . S
O8 Mg3 2.032 . S
O8 C11 1.259 . S
O9 Mg0 2.114 . S
O9 C12 1.252 . S
O10 Mg0 2.251 . S
O10 Mg3 2.079 . S
O10 C12 1.273 . S
C11 O7 1.246 . S
C11 O8 1.259 . S
C12 O9 1.252 . S
C12 O10 1.273 . S
O13 Mg0 2.010 . S
O13 C5 1.249 . S
Mg14 O15 2.028 . S
Mg14 O21 1.986 . S
Mg14 O23 2.114 . S
Mg14 O24 2.251 . S
Mg14 O27 2.010 . S
O15 Mg14 2.028 . S
O15 C18 1.250 . S
O16 Mg17 2.028 . S
O16 C18 1.248 . S
Mg17 O16 2.028 . S
Mg17 O22 2.032 . S
Mg17 O24 2.079 . S
C18 O15 1.250 . S
C18 O16 1.248 . S
C19 O20 1.264 . S
C19 O27 1.249 . S
O20 C19 1.264 . S
O21 Mg14 1.986 . S
O21 C25 1.246 . S
O22 Mg17 2.032 . S
O22 C25 1.259 . S
O23 Mg14 2.114 . S
O23 C26 1.252 . S
O24 Mg14 2.251 . S
O24 Mg17 2.079 . S
O24 C26 1.273 . S
C25 O21 1.246 . S
C25 O22 1.259 . S
C26 O23 1.252 . S
C26 O24 1.273 . S
O27 Mg14 2.010 . S
O27 C19 1.249 . S
Mg28 O29 2.028 . S
Mg28 O35 1.986 . S
Mg28 O37 2.114 . S
Mg28 O38 2.251 . S
Mg28 O41 2.010 . S
O29 Mg28 2.028 . S
O29 C32 1.250 . S
O30 Mg31 2.028 . S
O30 C32 1.248 . S
Mg31 O30 2.028 . S
Mg31 O36 2.032 . S
Mg31 O38 2.079 . S
C32 O29 1.250 . S
C32 O30 1.248 . S
C33 O34 1.264 . S
C33 O41 1.249 . S
O34 C33 1.264 . S
O35 Mg28 1.986 . S
O35 C39 1.246 . S
O36 Mg31 2.032 . S
O36 C39 1.259 . S
O37 Mg28 2.114 . S
O37 C40 1.252 . S
O38 Mg28 2.251 . S
O38 Mg31 2.079 . S
O38 C40 1.273 . S
C39 O35 1.246 . S
C39 O36 1.259 . S
C40 O37 1.252 . S
C40 O38 1.273 . S
O41 Mg28 2.010 . S
O41 C33 1.249 . S
Mg42 O43 2.028 . S
Mg42 O49 1.986 . S
Mg42 O51 2.114 . S
Mg42 O52 2.251 . S
Mg42 O55 2.010 . S
O43 Mg42 2.028 . S
O43 C46 1.250 . S
O44 Mg45 2.028 . S
O44 C46 1.248 . S
Mg45 O44 2.028 . S
Mg45 O50 2.032 . S
Mg45 O52 2.079 . S
C46 O43 1.250 . S
C46 O44 1.248 . S
C47 O48 1.264 . S
C47 O55 1.249 . S
O48 C47 1.264 . S
O49 Mg42 1.986 . S
O49 C53 1.246 . S
O50 Mg45 2.032 . S
O50 C53 1.259 . S
O51 Mg42 2.114 . S
O51 C54 1.252 . S
O52 Mg42 2.251 . S
O52 Mg45 2.079 . S
O52 C54 1.273 . S
C53 O49 1.246 . S
C53 O50 1.259 . S
C54 O51 1.252 . S
C54 O52 1.273 . S
O55 Mg42 2.010 . S
O55 C47 1.249 . S
Mg56 O57 2.028 . S
Mg56 O63 1.986 . S
Mg56 O65 2.114 . S
Mg56 O66 2.251 . S
Mg56 O69 2.010 . S
O57 Mg56 2.028 . S
O57 C60 1.250 . S
O58 Mg59 2.028 . S
O58 C60 1.248 . S
Mg59 O58 2.028 . S
Mg59 O64 2.032 . S
Mg59 O66 2.079 . S
C60 O57 1.250 . S
C60 O58 1.248 . S
C61 O62 1.264 . S
C61 O69 1.249 . S
O62 C61 1.264 . S
O63 Mg56 1.986 . S
O63 C67 1.246 . S
O64 Mg59 2.032 . S
O64 C67 1.259 . S
O65 Mg56 2.114 . S
O65 C68 1.252 . S
O66 Mg56 2.251 . S
O66 Mg59 2.079 . S
O66 C68 1.273 . S
C67 O63 1.246 . S
C67 O64 1.259 . S
C68 O65 1.252 . S
C68 O66 1.273 . S
O69 Mg56 2.010 . S
O69 C61 1.249 . S
Mg70 O71 2.028 . S
Mg70 O77 1.986 . S
Mg70 O79 2.114 . S
Mg70 O80 2.251 . S
Mg70 O83 2.010 . S
O71 Mg70 2.028 . S
O71 C74 1.250 . S
O72 Mg73 2.028 . S
O72 C74 1.248 . S
Mg73 O72 2.028 . S
Mg73 O78 2.032 . S
Mg73 O80 2.079 . S
C74 O71 1.250 . S
C74 O72 1.248 . S
C75 O76 1.264 . S
C75 O83 1.249 . S
O76 C75 1.264 . S
O77 Mg70 1.986 . S
O77 C81 1.246 . S
O78 Mg73 2.032 . S
O78 C81 1.259 . S
O79 Mg70 2.114 . S
O79 C82 1.252 . S
O80 Mg70 2.251 . S
O80 Mg73 2.079 . S
O80 C82 1.273 . S
C81 O77 1.246 . S
C81 O78 1.259 . S
C82 O79 1.252 . S
C82 O80 1.273 . S
O83 Mg70 2.010 . S
O83 C75 1.249 . S
Mg84 O85 2.028 . S
Mg84 O91 1.986 . S
Mg84 O93 2.114 . S
Mg84 O94 2.251 . S
Mg84 O97 2.010 . S
O85 Mg84 2.028 . S
O85 C88 1.250 . S
O86 Mg87 2.028 . S
O86 C88 1.248 . S
Mg87 O86 2.028 . S
Mg87 O92 2.032 . S
Mg87 O94 2.079 . S
C88 O85 1.250 . S
C88 O86 1.248 . S
C89 O90 1.264 . S
C89 O97 1.249 . S
O90 C89 1.264 . S
O91 Mg84 1.986 . S
O91 C95 1.246 . S
O92 Mg87 2.032 . S
O92 C95 1.259 . S
O93 Mg84 2.114 . S
O93 C96 1.252 . S
O94 Mg84 2.251 . S
O94 Mg87 2.079 . S
O94 C96 1.273 . S
C95 O91 1.246 . S
C95 O92 1.259 . S
C96 O93 1.252 . S
C96 O94 1.273 . S
O97 Mg84 2.010 . S
O97 C89 1.249 . S
Mg98 O99 2.028 . S
Mg98 O105 1.986 . S
Mg98 O107 2.114 . S
Mg98 O108 2.251 . S
Mg98 O111 2.010 . S
O99 Mg98 2.028 . S
O99 C102 1.250 . S
O100 Mg101 2.028 . S
O100 C102 1.248 . S
Mg101 O100 2.028 . S
Mg101 O106 2.032 . S
Mg101 O108 2.079 . S
C102 O99 1.250 . S
C102 O100 1.248 . S
C103 O104 1.264 . S
C103 O111 1.249 . S
O104 C103 1.264 . S
O105 Mg98 1.986 . S
O105 C109 1.246 . S
O106 Mg101 2.032 . S
O106 C109 1.259 . S
O107 Mg98 2.114 . S
O107 C110 1.252 . S
O108 Mg98 2.251 . S
O108 Mg101 2.079 . S
O108 C110 1.273 . S
C109 O105 1.246 . S
C109 O106 1.259 . S
C110 O107 1.252 . S
C110 O108 1.273 . S
O111 Mg98 2.010 . S
O111 C103 1.249 . S
Mg112 O113 2.028 . S
Mg112 O119 1.986 . S
Mg112 O121 2.114 . S
Mg112 O122 2.251 . S
Mg112 O125 2.010 . S
O113 Mg112 2.028 . S
O113 C116 1.250 . S
O114 Mg115 2.028 . S
O114 C116 1.248 . S
Mg115 O114 2.028 . S
Mg115 O120 2.032 . S
Mg115 O122 2.079 . S
C116 O113 1.250 . S
C116 O114 1.248 . S
C117 O118 1.264 . S
C117 O125 1.249 . S
O118 C117 1.264 . S
O119 Mg112 1.986 . S
O119 C123 1.246 . S
O120 Mg115 2.032 . S
O120 C123 1.259 . S
O121 Mg112 2.114 . S
O121 C124 1.252 . S
O122 Mg112 2.251 . S
O122 Mg115 2.079 . S
O122 C124 1.273 . S
C123 O119 1.246 . S
C123 O120 1.259 . S
C124 O121 1.252 . S
C124 O122 1.273 . S
O125 Mg112 2.010 . S
O125 C117 1.249 . S
Mg126 O127 2.028 . S
Mg126 O133 1.986 . S
Mg126 O135 2.114 . S
Mg126 O136 2.251 . S
Mg126 O139 2.010 . S
O127 Mg126 2.028 . S
O127 C130 1.250 . S
O128 Mg129 2.028 . S
O128 C130 1.248 . S
Mg129 O128 2.028 . S
Mg129 O134 2.032 . S
Mg129 O136 2.079 . S
C130 O127 1.250 . S
C130 O128 1.248 . S
C131 O132 1.264 . S
C131 O139 1.249 . S
O132 C131 1.264 . S
O133 Mg126 1.986 . S
O133 C137 1.246 . S
O134 Mg129 2.032 . S
O134 C137 1.259 . S
O135 Mg126 2.114 . S
O135 C138 1.252 . S
O136 Mg126 2.251 . S
O136 Mg129 2.079 . S
O136 C138 1.273 . S
C137 O133 1.246 . S
C137 O134 1.259 . S
C138 O135 1.252 . S
C138 O136 1.273 . S
O139 Mg126 2.010 . S
O139 C131 1.249 . S
Mg140 O141 2.028 . S
Mg140 O147 1.986 . S
Mg140 O149 2.114 . S
Mg140 O150 2.251 . S
Mg140 O153 2.010 . S
O141 Mg140 2.028 . S
O141 C144 1.250 . S
O142 Mg143 2.028 . S
O142 C144 1.248 . S
Mg143 O142 2.028 . S
Mg143 O148 2.032 . S
Mg143 O150 2.079 . S
C144 O141 1.250 . S
C144 O142 1.248 . S
C145 O146 1.264 . S
C145 O153 1.249 . S
O146 C145 1.264 . S
O147 Mg140 1.986 . S
O147 C151 1.246 . S
O148 Mg143 2.032 . S
O148 C151 1.259 . S
O149 Mg140 2.114 . S
O149 C152 1.252 . S
O150 Mg140 2.251 . S
O150 Mg143 2.079 . S
O150 C152 1.273 . S
C151 O147 1.246 . S
C151 O148 1.259 . S
C152 O149 1.252 . S
C152 O150 1.273 . S
O153 Mg140 2.010 . S
O153 C145 1.249 . S
Mg154 O155 2.028 . S
Mg154 O161 1.986 . S
Mg154 O163 2.114 . S
Mg154 O164 2.251 . S
Mg154 O167 2.010 . S
O155 Mg154 2.028 . S
O155 C158 1.250 . S
O156 Mg157 2.028 . S
O156 C158 1.248 . S
Mg157 O156 2.028 . S
Mg157 O162 2.032 . S
Mg157 O164 2.079 . S
C158 O155 1.250 . S
C158 O156 1.248 . S
C159 O160 1.264 . S
C159 O167 1.249 . S
O160 C159 1.264 . S
O161 Mg154 1.986 . S
O161 C165 1.246 . S
O162 Mg157 2.032 . S
O162 C165 1.259 . S
O163 Mg154 2.114 . S
O163 C166 1.252 . S
O164 Mg154 2.251 . S
O164 Mg157 2.079 . S
O164 C166 1.273 . S
C165 O161 1.246 . S
C165 O162 1.259 . S
C166 O163 1.252 . S
C166 O164 1.273 . S
O167 Mg154 2.010 . S
O167 C159 1.249 . S
Mg168 O169 2.028 . S
Mg168 O175 1.986 . S
Mg168 O177 2.114 . S
Mg168 O178 2.251 . S
Mg168 O181 2.010 . S
O169 Mg168 2.028 . S
O169 C172 1.250 . S
O170 Mg171 2.028 . S
O170 C172 1.248 . S
Mg171 O170 2.028 . S
Mg171 O176 2.032 . S
Mg171 O178 2.079 . S
C172 O169 1.250 . S
C172 O170 1.248 . S
C173 O174 1.264 . S
C173 O181 1.249 . S
O174 C173 1.264 . S
O175 Mg168 1.986 . S
O175 C179 1.246 . S
O176 Mg171 2.032 . S
O176 C179 1.259 . S
O177 Mg168 2.114 . S
O177 C180 1.252 . S
O178 Mg168 2.251 . S
O178 Mg171 2.079 . S
O178 C180 1.273 . S
C179 O175 1.246 . S
C179 O176 1.259 . S
C180 O177 1.252 . S
C180 O178 1.273 . S
O181 Mg168 2.010 . S
O181 C173 1.249 . S
Mg182 O183 2.028 . S
Mg182 O189 1.986 . S
Mg182 O191 2.114 . S
Mg182 O192 2.251 . S
Mg182 O195 2.010 . S
O183 Mg182 2.028 . S
O183 C186 1.250 . S
O184 Mg185 2.028 . S
O184 C186 1.248 . S
Mg185 O184 2.028 . S
Mg185 O190 2.032 . S
Mg185 O192 2.079 . S
C186 O183 1.250 . S
C186 O184 1.248 . S
C187 O188 1.264 . S
C187 O195 1.249 . S
O188 C187 1.264 . S
O189 Mg182 1.986 . S
O189 C193 1.246 . S
O190 Mg185 2.032 . S
O190 C193 1.259 . S
O191 Mg182 2.114 . S
O191 C194 1.252 . S
O192 Mg182 2.251 . S
O192 Mg185 2.079 . S
O192 C194 1.273 . S
C193 O189 1.246 . S
C193 O190 1.259 . S
C194 O191 1.252 . S
C194 O192 1.273 . S
O195 Mg182 2.010 . S
O195 C187 1.249 . S
Mg196 O197 2.028 . S
Mg196 O203 1.986 . S
Mg196 O205 2.114 . S
Mg196 O206 2.251 . S
Mg196 O209 2.010 . S
O197 Mg196 2.028 . S
O197 C200 1.250 . S
O198 Mg199 2.028 . S
O198 C200 1.248 . S
Mg199 O198 2.028 . S
Mg199 O204 2.032 . S
Mg199 O206 2.079 . S
C200 O197 1.250 . S
C200 O198 1.248 . S
C201 O202 1.264 . S
C201 O209 1.249 . S
O202 C201 1.264 . S
O203 Mg196 1.986 . S
O203 C207 1.246 . S
O204 Mg199 2.032 . S
O204 C207 1.259 . S
O205 Mg196 2.114 . S
O205 C208 1.252 . S
O206 Mg196 2.251 . S
O206 Mg199 2.079 . S
O206 C208 1.273 . S
C207 O203 1.246 . S
C207 O204 1.259 . S
C208 O205 1.252 . S
C208 O206 1.273 . S
O209 Mg196 2.010 . S
O209 C201 1.249 . S
Mg210 O211 2.028 . S
Mg210 O217 1.986 . S
Mg210 O219 2.114 . S
Mg210 O220 2.251 . S
Mg210 O223 2.010 . S
O211 Mg210 2.028 . S
O211 C214 1.250 . S
O212 Mg213 2.028 . S
O212 C214 1.248 . S
Mg213 O212 2.028 . S
Mg213 O218 2.032 . S
Mg213 O220 2.079 . S
C214 O211 1.250 . S
C214 O212 1.248 . S
C215 O216 1.264 . S
C215 O223 1.249 . S
O216 C215 1.264 . S
O217 Mg210 1.986 . S
O217 C221 1.246 . S
O218 Mg213 2.032 . S
O218 C221 1.259 . S
O219 Mg210 2.114 . S
O219 C222 1.252 . S
O220 Mg210 2.251 . S
O220 Mg213 2.079 . S
O220 C222 1.273 . S
C221 O217 1.246 . S
C221 O218 1.259 . S
C222 O219 1.252 . S
C222 O220 1.273 . S
O223 Mg210 2.010 . S
O223 C215 1.249 . S
C224 C225 1.369 . S
C224 C226 1.419 . S
C224 H228 0.930 . S
C225 C224 1.369 . S
C225 C234 1.429 . S
C226 C224 1.419 . S
C226 C227 1.363 . S
C226 H229 0.929 . S
C227 C226 1.363 . S
C227 C233 1.428 . S
H228 C224 0.930 . S
H229 C226 0.929 . S
S230 N231 1.613 . S
S230 N232 1.610 . S
N231 S230 1.613 . S
N231 C234 1.350 . S
N232 S230 1.610 . S
N232 C233 1.351 . S
C233 C227 1.428 . S
C233 N232 1.351 . S
C233 C234 1.434 . S
C234 C225 1.429 . S
C234 N231 1.350 . S
C234 C233 1.434 . S
C235 C236 1.369 . S
C235 C237 1.419 . S
C235 H239 0.930 . S
C236 C235 1.369 . S
C236 C245 1.429 . S
C237 C235 1.419 . S
C237 C238 1.363 . S
C237 H240 0.929 . S
C238 C237 1.363 . S
C238 C244 1.428 . S
H239 C235 0.930 . S
H240 C237 0.929 . S
S241 N242 1.613 . S
S241 N243 1.610 . S
N242 S241 1.613 . S
N242 C245 1.350 . S
N243 S241 1.610 . S
N243 C244 1.351 . S
C244 C238 1.428 . S
C244 N243 1.351 . S
C244 C245 1.434 . S
C245 C236 1.429 . S
C245 N242 1.350 . S
C245 C244 1.434 . S
C246 C247 1.369 . S
C246 C248 1.419 . S
C246 H250 0.930 . S
C247 C246 1.369 . S
C247 C256 1.429 . S
C248 C246 1.419 . S
C248 C249 1.363 . S
C248 H251 0.929 . S
C249 C248 1.363 . S
C249 C255 1.428 . S
H250 C246 0.930 . S
H251 C248 0.929 . S
S252 N253 1.613 . S
S252 N254 1.610 . S
N253 S252 1.613 . S
N253 C256 1.350 . S
N254 S252 1.610 . S
N254 C255 1.351 . S
C255 C249 1.428 . S
C255 N254 1.351 . S
C255 C256 1.434 . S
C256 C247 1.429 . S
C256 N253 1.350 . S
C256 C255 1.434 . S
C257 C258 1.369 . S
C257 C259 1.419 . S
C257 H261 0.930 . S
C258 C257 1.369 . S
C258 C267 1.429 . S
C259 C257 1.419 . S
C259 C260 1.363 . S
C259 H262 0.929 . S
C260 C259 1.363 . S
C260 C266 1.428 . S
H261 C257 0.930 . S
H262 C259 0.929 . S
S263 N264 1.613 . S
S263 N265 1.610 . S
N264 S263 1.613 . S
N264 C267 1.350 . S
N265 S263 1.610 . S
N265 C266 1.351 . S
C266 C260 1.428 . S
C266 N265 1.351 . S
C266 C267 1.434 . S
C267 C258 1.429 . S
C267 N264 1.350 . S
C267 C266 1.434 . S
C268 C269 1.369 . S
C268 C270 1.419 . S
C268 H272 0.930 . S
C269 C268 1.369 . S
C269 C278 1.429 . S
C270 C268 1.419 . S
C270 C271 1.363 . S
C270 H273 0.929 . S
C271 C270 1.363 . S
C271 C277 1.428 . S
H272 C268 0.930 . S
H273 C270 0.929 . S
S274 N275 1.613 . S
S274 N276 1.610 . S
N275 S274 1.613 . S
N275 C278 1.350 . S
N276 S274 1.610 . S
N276 C277 1.351 . S
C277 C271 1.428 . S
C277 N276 1.351 . S
C277 C278 1.434 . S
C278 C269 1.429 . S
C278 N275 1.350 . S
C278 C277 1.434 . S
C279 C280 1.369 . S
C279 C281 1.419 . S
C279 H283 0.930 . S
C280 C279 1.369 . S
C280 C289 1.429 . S
C281 C279 1.419 . S
C281 C282 1.363 . S
C281 H284 0.929 . S
C282 C281 1.363 . S
C282 C288 1.428 . S
H283 C279 0.930 . S
H284 C281 0.929 . S
S285 N286 1.613 . S
S285 N287 1.610 . S
N286 S285 1.613 . S
N286 C289 1.350 . S
N287 S285 1.610 . S
N287 C288 1.351 . S
C288 C282 1.428 . S
C288 N287 1.351 . S
C288 C289 1.434 . S
C289 C280 1.429 . S
C289 N286 1.350 . S
C289 C288 1.434 . S
C290 C291 1.369 . S
C290 C292 1.419 . S
C290 H294 0.930 . S
C291 C290 1.369 . S
C291 C300 1.429 . S
C292 C290 1.419 . S
C292 C293 1.363 . S
C292 H295 0.929 . S
C293 C292 1.363 . S
C293 C299 1.428 . S
H294 C290 0.930 . S
H295 C292 0.929 . S
S296 N297 1.613 . S
S296 N298 1.610 . S
N297 S296 1.613 . S
N297 C300 1.350 . S
N298 S296 1.610 . S
N298 C299 1.351 . S
C299 C293 1.428 . S
C299 N298 1.351 . S
C299 C300 1.434 . S
C300 C291 1.429 . S
C300 N297 1.350 . S
C300 C299 1.434 . S
C301 C302 1.369 . S
C301 C303 1.419 . S
C301 H305 0.930 . S
C302 C301 1.369 . S
C302 C311 1.429 . S
C303 C301 1.419 . S
C303 C304 1.363 . S
C303 H306 0.929 . S
C304 C303 1.363 . S
C304 C310 1.428 . S
H305 C301 0.930 . S
H306 C303 0.929 . S
S307 N308 1.613 . S
S307 N309 1.610 . S
N308 S307 1.613 . S
N308 C311 1.350 . S
N309 S307 1.610 . S
N309 C310 1.351 . S
C310 C304 1.428 . S
C310 N309 1.351 . S
C310 C311 1.434 . S
C311 C302 1.429 . S
C311 N308 1.350 . S
C311 C310 1.434 . S
C312 C313 1.369 . S
C312 C314 1.419 1_556 S
C312 H316 0.930 . S
C313 C312 1.369 . S
C313 C322 1.429 . S
C314 C312 1.419 1_554 S
C314 C315 1.363 . S
C314 H317 0.929 . S
C315 C314 1.363 . S
C315 C321 1.428 . S
H316 C312 0.930 . S
H317 C314 0.929 . S
S318 N319 1.613 1_554 S
S318 N320 1.610 . S
N319 S318 1.613 1_556 S
N319 C322 1.350 . S
N320 S318 1.610 . S
N320 C321 1.351 . S
C321 C315 1.428 . S
C321 N320 1.351 . S
C321 C322 1.434 1_554 S
C322 C313 1.429 . S
C322 N319 1.350 . S
C322 C321 1.434 1_556 S
C323 C324 1.369 . S
C323 C325 1.419 1_556 S
C323 H327 0.930 . S
C324 C323 1.369 . S
C324 C333 1.429 . S
C325 C323 1.419 1_554 S
C325 C326 1.363 . S
C325 H328 0.929 . S
C326 C325 1.363 . S
C326 C332 1.428 . S
H327 C323 0.930 . S
H328 C325 0.929 . S
S329 N330 1.613 1_554 S
S329 N331 1.610 . S
N330 S329 1.613 1_556 S
N330 C333 1.350 . S
N331 S329 1.610 . S
N331 C332 1.351 . S
C332 C326 1.428 . S
C332 N331 1.351 . S
C332 C333 1.434 1_554 S
C333 C324 1.429 . S
C333 N330 1.350 . S
C333 C332 1.434 1_556 S
C334 C335 1.369 . S
C334 C336 1.419 1_556 S
C334 H338 0.930 . S
C335 C334 1.369 . S
C335 C344 1.429 . S
C336 C334 1.419 1_554 S
C336 C337 1.363 . S
C336 H339 0.929 . S
C337 C336 1.363 . S
C337 C343 1.428 . S
H338 C334 0.930 . S
H339 C336 0.929 . S
S340 N341 1.613 . S
S340 N342 1.610 1_556 S
N341 S340 1.613 . S
N341 C344 1.350 . S
N342 S340 1.610 1_554 S
N342 C343 1.351 . S
C343 C337 1.428 . S
C343 N342 1.351 . S
C343 C344 1.434 1_554 S
C344 C335 1.429 . S
C344 N341 1.350 . S
C344 C343 1.434 1_556 S
C345 C346 1.369 . S
C345 C347 1.419 1_554 S
C345 H349 0.930 . S
C346 C345 1.369 . S
C346 C355 1.429 . S
C347 C345 1.419 1_556 S
C347 C348 1.363 . S
C347 H350 0.929 . S
C348 C347 1.363 . S
C348 C354 1.428 . S
H349 C345 0.930 . S
H350 C347 0.929 . S
S351 N352 1.613 . S
S351 N353 1.610 1_554 S
N352 S351 1.613 . S
N352 C355 1.350 . S
N353 S351 1.610 1_556 S
N353 C354 1.351 . S
C354 C348 1.428 . S
C354 N353 1.351 . S
C354 C355 1.434 1_556 S
C355 C346 1.429 . S
C355 N352 1.350 . S
C355 C354 1.434 1_554 S
C356 C357 1.369 . S
C356 C358 1.419 . S
C356 H360 0.930 . S
C357 C356 1.369 . S
C357 C366 1.429 . S
C358 C356 1.419 . S
C358 C359 1.363 . S
C358 H361 0.929 . S
C359 C358 1.363 . S
C359 C365 1.428 . S
H360 C356 0.930 . S
H361 C358 0.929 . S
S362 N363 1.613 . S
S362 N364 1.610 . S
N363 S362 1.613 . S
N363 C366 1.350 . S
N364 S362 1.610 . S
N364 C365 1.351 . S
C365 C359 1.428 . S
C365 N364 1.351 . S
C365 C366 1.434 . S
C366 C357 1.429 . S
C366 N363 1.350 . S
C366 C365 1.434 . S
C367 C368 1.369 . S
C367 C369 1.419 . S
C367 H371 0.930 . S
C368 C367 1.369 . S
C368 C377 1.429 . S
C369 C367 1.419 . S
C369 C370 1.363 . S
C369 H372 0.929 . S
C370 C369 1.363 . S
C370 C376 1.428 . S
H371 C367 0.930 . S
H372 C369 0.929 . S
S373 N374 1.613 . S
S373 N375 1.610 . S
N374 S373 1.613 . S
N374 C377 1.350 . S
N375 S373 1.610 . S
N375 C376 1.351 . S
C376 C370 1.428 . S
C376 N375 1.351 . S
C376 C377 1.434 . S
C377 C368 1.429 . S
C377 N374 1.350 . S
C377 C376 1.434 . S
C378 C379 1.369 . S
C378 C380 1.419 . S
C378 H382 0.930 . S
C379 C378 1.369 . S
C379 C388 1.429 . S
C380 C378 1.419 . S
C380 C381 1.363 . S
C380 H383 0.929 . S
C381 C380 1.363 . S
C381 C387 1.428 . S
H382 C378 0.930 . S
H383 C380 0.929 . S
S384 N385 1.613 . S
S384 N386 1.610 . S
N385 S384 1.613 . S
N385 C388 1.350 . S
N386 S384 1.610 . S
N386 C387 1.351 . S
C387 C381 1.428 . S
C387 N386 1.351 . S
C387 C388 1.434 . S
C388 C379 1.429 . S
C388 N385 1.350 . S
C388 C387 1.434 . S
C389 C390 1.369 . S
C389 C391 1.419 . S
C389 H393 0.930 . S
C390 C389 1.369 . S
C390 C399 1.429 . S
C391 C389 1.419 . S
C391 C392 1.363 . S
C391 H394 0.929 . S
C392 C391 1.363 . S
C392 C398 1.428 . S
H393 C389 0.930 . S
H394 C391 0.929 . S
S395 N396 1.613 . S
S395 N397 1.610 . S
N396 S395 1.613 . S
N396 C399 1.350 . S
N397 S395 1.610 . S
N397 C398 1.351 . S
C398 C392 1.428 . S
C398 N397 1.351 . S
C398 C399 1.434 . S
C399 C390 1.429 . S
C399 N396 1.350 . S
C399 C398 1.434 . S
C400 C401 1.369 . S
C400 C402 1.419 . S
C400 H404 0.930 . S
C401 C400 1.369 . S
C401 C410 1.429 . S
C402 C400 1.419 . S
C402 C403 1.363 . S
C402 H405 0.929 . S
C403 C402 1.363 . S
C403 C409 1.428 . S
H404 C400 0.930 . S
H405 C402 0.929 . S
S406 N407 1.613 . S
S406 N408 1.610 . S
N407 S406 1.613 . S
N407 C410 1.350 . S
N408 S406 1.610 . S
N408 C409 1.351 . S
C409 C403 1.428 . S
C409 N408 1.351 . S
C409 C410 1.434 . S
C410 C401 1.429 . S
C410 N407 1.350 . S
C410 C409 1.434 . S
C411 C412 1.369 . S
C411 C413 1.419 . S
C411 H415 0.930 . S
C412 C411 1.369 . S
C412 C421 1.429 . S
C413 C411 1.419 . S
C413 C414 1.363 . S
C413 H416 0.929 . S
C414 C413 1.363 . S
C414 C420 1.428 . S
H415 C411 0.930 . S
H416 C413 0.929 . S
S417 N418 1.613 . S
S417 N419 1.610 . S
N418 S417 1.613 . S
N418 C421 1.350 . S
N419 S417 1.610 . S
N419 C420 1.351 . S
C420 C414 1.428 . S
C420 N419 1.351 . S
C420 C421 1.434 . S
C421 C412 1.429 . S
C421 N418 1.350 . S
C421 C420 1.434 . S
C422 C423 1.369 . S
C422 C424 1.419 . S
C422 H426 0.930 . S
C423 C422 1.369 . S
C423 C432 1.429 . S
C424 C422 1.419 . S
C424 C425 1.363 . S
C424 H427 0.929 . S
C425 C424 1.363 . S
C425 C431 1.428 . S
H426 C422 0.930 . S
H427 C424 0.929 . S
S428 N429 1.613 . S
S428 N430 1.610 . S
N429 S428 1.613 . S
N429 C432 1.350 . S
N430 S428 1.610 . S
N430 C431 1.351 . S
C431 C425 1.428 . S
C431 N430 1.351 . S
C431 C432 1.434 . S
C432 C423 1.429 . S
C432 N429 1.350 . S
C432 C431 1.434 . S
C433 C434 1.369 . S
C433 C435 1.419 . S
C433 H437 0.930 . S
C434 C433 1.369 . S
C434 C443 1.429 . S
C435 C433 1.419 . S
C435 C436 1.363 . S
C435 H438 0.929 . S
C436 C435 1.363 . S
C436 C442 1.428 . S
H437 C433 0.930 . S
H438 C435 0.929 . S
S439 N440 1.613 . S
S439 N441 1.610 . S
N440 S439 1.613 . S
N440 C443 1.350 . S
N441 S439 1.610 . S
N441 C442 1.351 . S
C442 C436 1.428 . S
C442 N441 1.351 . S
C442 C443 1.434 . S
C443 C434 1.429 . S
C443 N440 1.350 . S
C443 C442 1.434 . S
C444 C445 1.369 . S
C444 C446 1.419 . S
C444 H448 0.930 . S
C445 C444 1.369 . S
C445 C454 1.429 . S
C446 C444 1.419 . S
C446 C447 1.363 . S
C446 H449 0.929 . S
C447 C446 1.363 . S
C447 C453 1.428 . S
H448 C444 0.930 . S
H449 C446 0.929 . S
S450 N451 1.613 . S
S450 N452 1.610 . S
N451 S450 1.613 . S
N451 C454 1.350 . S
N452 S450 1.610 . S
N452 C453 1.351 . S
C453 C447 1.428 . S
C453 N452 1.351 . S
C453 C454 1.434 . S
C454 C445 1.429 . S
C454 N451 1.350 . S
C454 C453 1.434 . S
C455 C456 1.369 . S
C455 C457 1.419 . S
C455 H459 0.930 . S
C456 C455 1.369 . S
C456 C465 1.429 . S
C457 C455 1.419 . S
C457 C458 1.363 . S
C457 H460 0.929 . S
C458 C457 1.363 . S
C458 C464 1.428 . S
H459 C455 0.930 . S
H460 C457 0.929 . S
S461 N462 1.613 . S
S461 N463 1.610 . S
N462 S461 1.613 . S
N462 C465 1.350 . S
N463 S461 1.610 . S
N463 C464 1.351 . S
C464 C458 1.428 . S
C464 N463 1.351 . S
C464 C465 1.434 . S
C465 C456 1.429 . S
C465 N462 1.350 . S
C465 C464 1.434 . S
C466 C467 1.369 . S
C466 C468 1.419 . S
C466 H470 0.930 . S
C467 C466 1.369 . S
C467 C476 1.429 . S
C468 C466 1.419 . S
C468 C469 1.363 . S
C468 H471 0.929 . S
C469 C468 1.363 . S
C469 C475 1.428 . S
H470 C466 0.930 . S
H471 C468 0.929 . S
S472 N473 1.613 . S
S472 N474 1.610 . S
N473 S472 1.613 . S
N473 C476 1.350 . S
N474 S472 1.610 . S
N474 C475 1.351 . S
C475 C469 1.428 . S
C475 N474 1.351 . S
C475 C476 1.434 . S
C476 C467 1.429 . S
C476 N473 1.350 . S
C476 C475 1.434 . S
C477 C478 1.369 . S
C477 C479 1.419 . S
C477 H481 0.930 . S
C478 C477 1.369 . S
C478 C487 1.429 . S
C479 C477 1.419 . S
C479 C480 1.363 . S
C479 H482 0.929 . S
C480 C479 1.363 . S
C480 C486 1.428 . S
H481 C477 0.930 . S
H482 C479 0.929 . S
S483 N484 1.613 . S
S483 N485 1.610 . S
N484 S483 1.613 . S
N484 C487 1.350 . S
N485 S483 1.610 . S
N485 C486 1.351 . S
C486 C480 1.428 . S
C486 N485 1.351 . S
C486 C487 1.434 . S
C487 C478 1.429 . S
C487 N484 1.350 . S
C487 C486 1.434 . S
C488 C489 1.369 . S
C488 C490 1.419 1_545 S
C488 H492 0.930 . S
C489 C488 1.369 . S
C489 C498 1.429 . S
C490 C488 1.419 1_565 S
C490 C491 1.363 . S
C490 H493 0.929 . S
C491 C490 1.363 . S
C491 C497 1.428 . S
H492 C488 0.930 . S
H493 C490 0.929 . S
S494 N495 1.613 1_565 S
S494 N496 1.610 . S
N495 S494 1.613 1_545 S
N495 C498 1.350 . S
N496 S494 1.610 . S
N496 C497 1.351 . S
C497 C491 1.428 . S
C497 N496 1.351 . S
C497 C498 1.434 1_565 S
C498 C489 1.429 . S
C498 N495 1.350 . S
C498 C497 1.434 1_545 S
C499 C500 1.369 . S
C499 C501 1.419 1_655 S
C499 H503 0.930 . S
C500 C499 1.369 . S
C500 C509 1.429 . S
C501 C499 1.419 1_455 S
C501 C502 1.363 . S
C501 H504 0.929 . S
C502 C501 1.363 . S
C502 C508 1.428 . S
H503 C499 0.930 . S
H504 C501 0.929 . S
S505 N506 1.613 . S
S505 N507 1.610 1_655 S
N506 S505 1.613 . S
N506 C509 1.350 . S
N507 S505 1.610 1_455 S
N507 C508 1.351 . S
C508 C502 1.428 . S
C508 N507 1.351 . S
C508 C509 1.434 1_455 S
C509 C500 1.429 . S
C509 N506 1.350 . S
C509 C508 1.434 1_655 S
C510 C511 1.369 . S
C510 C512 1.419 1_545 S
C510 H514 0.930 . S
C511 C510 1.369 . S
C511 C520 1.429 . S
C512 C510 1.419 1_565 S
C512 C513 1.363 . S
C512 H515 0.929 . S
C513 C512 1.363 . S
C513 C519 1.428 . S
H514 C510 0.930 . S
H515 C512 0.929 . S
S516 N517 1.613 1_565 S
S516 N518 1.610 . S
N517 S516 1.613 1_545 S
N517 C520 1.350 . S
N518 S516 1.610 . S
N518 C519 1.351 . S
C519 C513 1.428 . S
C519 N518 1.351 . S
C519 C520 1.434 1_565 S
C520 C511 1.429 . S
C520 N517 1.350 . S
C520 C519 1.434 1_545 S
C521 C522 1.369 . S
C521 C523 1.419 1_455 S
C521 H525 0.930 . S
C522 C521 1.369 . S
C522 C531 1.429 . S
C523 C521 1.419 1_655 S
C523 C524 1.363 . S
C523 H526 0.929 . S
C524 C523 1.363 . S
C524 C530 1.428 . S
H525 C521 0.930 . S
H526 C523 0.929 . S
S527 N528 1.613 . S
S527 N529 1.610 1_455 S
N528 S527 1.613 . S
N528 C531 1.350 . S
N529 S527 1.610 1_655 S
N529 C530 1.351 . S
C530 C524 1.428 . S
C530 N529 1.351 . S
C530 C531 1.434 1_655 S
C531 C522 1.429 . S
C531 N528 1.350 . S
C531 C530 1.434 1_455 S
C532 C533 1.369 . S
C532 C534 1.419 1_545 S
C532 H536 0.930 . S
C533 C532 1.369 . S
C533 C542 1.429 . S
C534 C532 1.419 1_565 S
C534 C535 1.363 . S
C534 H537 0.929 . S
C535 C534 1.363 . S
C535 C541 1.428 . S
H536 C532 0.930 . S
H537 C534 0.929 . S
S538 N539 1.613 1_565 S
S538 N540 1.610 . S
N539 S538 1.613 1_545 S
N539 C542 1.350 . S
N540 S538 1.610 . S
N540 C541 1.351 . S
C541 C535 1.428 . S
C541 N540 1.351 . S
C541 C542 1.434 1_565 S
C542 C533 1.429 . S
C542 N539 1.350 . S
C542 C541 1.434 1_545 S
C543 C544 1.369 . S
C543 C545 1.419 1_655 S
C543 H547 0.930 . S
C544 C543 1.369 . S
C544 C553 1.429 . S
C545 C543 1.419 1_455 S
C545 C546 1.363 . S
C545 H548 0.929 . S
C546 C545 1.363 . S
C546 C552 1.428 . S
H547 C543 0.930 . S
H548 C545 0.929 . S
S549 N550 1.613 1_455 S
S549 N551 1.610 . S
N550 S549 1.613 1_655 S
N550 C553 1.350 . S
N551 S549 1.610 . S
N551 C552 1.351 . S
C552 C546 1.428 . S
C552 N551 1.351 . S
C552 C553 1.434 1_455 S
C553 C544 1.429 . S
C553 N550 1.350 . S
C553 C552 1.434 1_655 S
C554 C555 1.369 . S
C554 C556 1.419 1_565 S
C554 H558 0.930 . S
C555 C554 1.369 . S
C555 C564 1.429 . S
C556 C554 1.419 1_545 S
C556 C557 1.363 . S
C556 H559 0.929 . S
C557 C556 1.363 . S
C557 C563 1.428 . S
H558 C554 0.930 . S
H559 C556 0.929 . S
S560 N561 1.613 . S
S560 N562 1.635 . S
N561 S560 1.613 . S
N561 C564 1.350 . S
N562 S560 1.635 . S
N562 C563 1.349 1_565 S
C563 C557 1.428 . S
C563 N562 1.349 1_545 S
C563 C564 1.434 1_545 S
C564 C555 1.429 . S
C564 N561 1.350 . S
C564 C563 1.434 1_565 S
C565 C566 1.369 . S
C565 C567 1.419 1_455 S
C565 H569 0.930 . S
C566 C565 1.369 . S
C566 C575 1.429 . S
C567 C565 1.419 1_655 S
C567 C568 1.363 . S
C567 H570 0.929 . S
C568 C567 1.363 . S
C568 C574 1.428 . S
H569 C565 0.930 . S
H570 C567 0.929 . S
S571 N572 1.613 1_655 S
S571 N573 1.610 . S
N572 S571 1.613 1_455 S
N572 C575 1.350 . S
N573 S571 1.610 . S
N573 C574 1.351 . S
C574 C568 1.428 . S
C574 N573 1.351 . S
C574 C575 1.434 1_655 S
C575 C566 1.429 . S
C575 N572 1.350 . S
C575 C574 1.434 1_455 S
C225 C81 1.283 . S
C227 C11 1.285 . S
C236 C95 1.285 . S
C238 C25 1.281 . S
C247 C39 1.285 . S
C249 C109 1.284 . S
C258 C53 1.282 . S
C260 C67 1.280 . S
C269 C193 1.286 . S
C271 C123 1.281 . S
C280 C207 1.286 . S
C282 C137 1.281 . S
C291 C151 1.283 . S
C293 C221 1.285 . S
C302 C165 1.281 . S
C304 C179 1.285 . S
C313 C152 1.549 . S
C315 C12 1.544 . S
C324 C166 1.549 . S
C326 C26 1.545 . S
C335 C124 1.545 . S
C337 C40 1.548 . S
C346 C54 1.547 . S
C348 C138 1.546 . S
C357 C208 1.549 . S
C359 C68 1.545 . S
C368 C222 1.549 . S
C370 C82 1.544 . S
C379 C96 1.549 . S
C381 C180 1.544 . S
C390 C194 1.548 . S
C392 C110 1.546 . S
C401 C61 1.122 . S
C403 C5 1.129 . S
C412 C19 1.122 . S
C414 C75 1.115 . S
C423 C33 1.118 . S
C425 C89 1.127 . S
C434 C103 1.131 . S
C436 C47 1.123 . S
C445 C116 1.644 . S
C447 C172 1.644 . S
C456 C186 1.645 . S
C458 C130 1.645 . S
C467 C144 1.645 . S
C469 C200 1.645 . S
C478 C214 1.645 . S
C480 C158 1.645 . S
C489 C159 1.112 . S
C491 C187 1.121 . S
C500 C117 1.124 . S
C502 C201 1.116 . S
C511 C215 1.118 . S
C513 C131 1.127 . S
C522 C145 1.131 . S
C524 C173 1.127 . S
C533 C74 1.644 . S
C535 C46 1.644 . S
C544 C88 1.646 . S
C546 C4 1.646 . S
C555 C102 1.644 . S
C557 C18 1.644 . S
C566 C60 1.644 . S
C568 C32 1.644 . S
