# Generated by pormake.
# Topology smw, (6)-cn, num edge types: 1
# Building blocks:
#     Node 0, Type 0, BuildingBlock: IZENUY_clean_sbu_0, # of connection points: 6
#     Node 1, Type 0, BuildingBlock: IZENUY_clean_sbu_0, # of connection points: 6
#     Node 2, Type 0, BuildingBlock: IZENUY_clean_sbu_0, # of connection points: 6
#     Node 3, Type 0, BuildingBlock: IZENUY_clean_sbu_0, # of connection points: 6
#     Node 4, Type 0, BuildingBlock: IZENUY_clean_sbu_0, # of connection points: 6
#     Node 5, Type 0, BuildingBlock: IZENUY_clean_sbu_0, # of connection points: 6
#     Node 6, Type 0, BuildingBlock: IZENUY_clean_sbu_0, # of connection points: 6
#     Node 7, Type 0, BuildingBlock: IZENUY_clean_sbu_0, # of connection points: 6
#     Node 8, Type 0, BuildingBlock: IZENUY_clean_sbu_0, # of connection points: 6
#     Node 9, Type 0, BuildingBlock: IZENUY_clean_sbu_0, # of connection points: 6
#     Node 10, Type 0, BuildingBlock: IZENUY_clean_sbu_0, # of connection points: 6
#     Node 11, Type 0, BuildingBlock: IZENUY_clean_sbu_0, # of connection points: 6
#     Edge 12, Type (0, 0), BuildingBlock: KIFKEQ_clean_linker_1, # of connection points: 2
#     Edge 13, Type (0, 0), BuildingBlock: KIFKEQ_clean_linker_1, # of connection points: 2
#     Edge 14, Type (0, 0), BuildingBlock: KIFKEQ_clean_linker_1, # of connection points: 2
#     Edge 15, Type (0, 0), BuildingBlock: KIFKEQ_clean_linker_1, # of connection points: 2
#     Edge 16, Type (0, 0), BuildingBlock: KIFKEQ_clean_linker_1, # of connection points: 2
#     Edge 17, Type (0, 0), BuildingBlock: KIFKEQ_clean_linker_1, # of connection points: 2
#     Edge 18, Type (0, 0), BuildingBlock: KIFKEQ_clean_linker_1, # of connection points: 2
#     Edge 19, Type (0, 0), BuildingBlock: KIFKEQ_clean_linker_1, # of connection points: 2
#     Edge 20, Type (0, 0), BuildingBlock: KIFKEQ_clean_linker_1, # of connection points: 2
#     Edge 21, Type (0, 0), BuildingBlock: KIFKEQ_clean_linker_1, # of connection points: 2
#     Edge 22, Type (0, 0), BuildingBlock: KIFKEQ_clean_linker_1, # of connection points: 2
#     Edge 23, Type (0, 0), BuildingBlock: KIFKEQ_clean_linker_1, # of connection points: 2
#     Edge 24, Type (0, 0), BuildingBlock: KIFKEQ_clean_linker_1, # of connection points: 2
#     Edge 25, Type (0, 0), BuildingBlock: KIFKEQ_clean_linker_1, # of connection points: 2
#     Edge 26, Type (0, 0), BuildingBlock: KIFKEQ_clean_linker_1, # of connection points: 2
#     Edge 27, Type (0, 0), BuildingBlock: KIFKEQ_clean_linker_1, # of connection points: 2
#     Edge 28, Type (0, 0), BuildingBlock: KIFKEQ_clean_linker_1, # of connection points: 2
#     Edge 29, Type (0, 0), BuildingBlock: KIFKEQ_clean_linker_1, # of connection points: 2
#     Edge 30, Type (0, 0), BuildingBlock: KIFKEQ_clean_linker_1, # of connection points: 2
#     Edge 31, Type (0, 0), BuildingBlock: KIFKEQ_clean_linker_1, # of connection points: 2
#     Edge 32, Type (0, 0), BuildingBlock: KIFKEQ_clean_linker_1, # of connection points: 2
#     Edge 33, Type (0, 0), BuildingBlock: KIFKEQ_clean_linker_1, # of connection points: 2
#     Edge 34, Type (0, 0), BuildingBlock: KIFKEQ_clean_linker_1, # of connection points: 2
#     Edge 35, Type (0, 0), BuildingBlock: KIFKEQ_clean_linker_1, # of connection points: 2
#     Edge 36, Type (0, 0), BuildingBlock: KIFKEQ_clean_linker_1, # of connection points: 2
#     Edge 37, Type (0, 0), BuildingBlock: KIFKEQ_clean_linker_1, # of connection points: 2
#     Edge 38, Type (0, 0), BuildingBlock: KIFKEQ_clean_linker_1, # of connection points: 2
#     Edge 39, Type (0, 0), BuildingBlock: KIFKEQ_clean_linker_1, # of connection points: 2
#     Edge 40, Type (0, 0), BuildingBlock: KIFKEQ_clean_linker_1, # of connection points: 2
#     Edge 41, Type (0, 0), BuildingBlock: KIFKEQ_clean_linker_1, # of connection points: 2
#     Edge 42, Type (0, 0), BuildingBlock: KIFKEQ_clean_linker_1, # of connection points: 2
#     Edge 43, Type (0, 0), BuildingBlock: KIFKEQ_clean_linker_1, # of connection points: 2
#     Edge 44, Type (0, 0), BuildingBlock: KIFKEQ_clean_linker_1, # of connection points: 2
#     Edge 45, Type (0, 0), BuildingBlock: KIFKEQ_clean_linker_1, # of connection points: 2
#     Edge 46, Type (0, 0), BuildingBlock: KIFKEQ_clean_linker_1, # of connection points: 2
#     Edge 47, Type (0, 0), BuildingBlock: KIFKEQ_clean_linker_1, # of connection points: 2
# Relax obj value: 0.142
# Max RMSD: 0.113
# Mean RMSD: 0.113
data_MOF--net-smw--node1-IZENUY_clean_sbu_0--edge1-KIFKEQ_clean_linker_1
_symmetry_space_group_name_H-M    P1
_symmetry_Int_Tables_number       1
_symmetry_cell_setting            triclinic
loop_
_symmetry_equiv_pos_as_xyz
'x, y, z'
_cell_length_a     57.199459
_cell_length_b     57.181211
_cell_length_c     20.566631
_cell_angle_alpha  89.909048
_cell_angle_beta   90.013654
_cell_angle_gamma 120.11994
loop_
_atom_site_label
_atom_site_type_symbol
_atom_site_fract_x
_atom_site_fract_y
_atom_site_fract_z
_atom_type_partial_charge
Fe0 Fe 0.49921 0.16548 0.00307 0.0
Fe1 Fe 0.47523 0.1045 0.99054 0.0
O2 O 0.47053 0.13269 0.99648 0.0
Fe3 Fe 0.43717 0.1276 0.99529 0.0
O4 O 0.44445 0.14925 0.92452 0.0
O5 O 0.48454 0.18205 0.95533 0.0
O6 O 0.51383 0.16209 0.92728 0.0
C7 C 0.5193 0.14363 0.91735 0.0
C8 C 0.46462 0.1699 0.08803 0.0
O9 O 0.50828 0.12243 0.9514 0.0
C10 C 0.42836 0.08397 0.06839 0.0
O11 O 0.51866 0.15438 0.05294 0.0
O12 O 0.49062 0.11093 0.07011 0.0
O13 O 0.44467 0.15576 0.05105 0.0
O14 O 0.4872 0.17168 0.07849 0.0
C15 C 0.43654 0.09163 0.89878 0.0
O16 O 0.4431 0.0805 0.02852 0.0
O17 O 0.4272 0.10544 0.06668 0.0
C18 C 0.51136 0.13293 0.08563 0.0
O19 O 0.46035 0.09699 0.91064 0.0
O20 O 0.424 0.09862 0.9382 0.0
C21 C 0.46417 0.173 0.91816 0.0
Fe22 Fe 0.34516 0.49165 -0.00034 0.0
Fe23 Fe 0.38314 0.4687 0.99409 0.0
O24 O 0.34995 0.46339 0.99502 0.0
Fe25 Fe 0.32184 0.43004 0.99181 0.0
O26 O 0.30921 0.43752 0.91824 0.0
O27 O 0.3138 0.47612 0.95174 0.0
O28 O 0.36358 0.50587 0.92417 0.0
C29 C 0.38782 0.51175 0.91631 0.0
C30 C 0.30578 0.45683 0.08307 0.0
O31 O 0.39808 0.50138 0.95256 0.0
C32 C 0.35519 0.42153 0.071 0.0
O33 O 0.3755 0.51229 0.04933 0.0
O34 O 0.39027 0.48453 0.07336 0.0
O35 O 0.30007 0.43739 0.04435 0.0
O36 O 0.32674 0.47954 0.07495 0.0
C37 C 0.35986 0.42911 0.90319 0.0
O38 O 0.37468 0.43704 0.03476 0.0
O39 O 0.33246 0.41994 0.06544 0.0
C40 C 0.38906 0.5055 0.08557 0.0
O41 O 0.37797 0.4531 0.91527 0.0
O42 O 0.33878 0.41702 0.93833 0.0
C43 C 0.30388 0.45633 0.91275 0.0
Fe44 Fe 0.90389 0.31723 -0.0011 0.0
Fe45 Fe 0.86453 0.33933 0.99483 0.0
O46 O 0.89792 0.34494 -0.00168 0.0
Fe47 Fe 0.92536 0.37839 0.00107 0.0
O48 O 0.94847 0.37121 0.9562 0.0
O49 O 0.92411 0.32895 0.92469 0.0
O50 O 0.87459 0.29557 0.94682 0.0
C51 C 0.86088 0.30139 0.90837 0.0
C52 C 0.94253 0.35437 0.08862 0.0
O53 O 0.8587 0.32204 0.91765 0.0
C54 C 0.88714 0.38021 0.08384 0.0
O55 O 0.88396 0.30345 0.07286 0.0
O56 O 0.84953 0.30742 0.03982 0.0
O57 O 0.93631 0.37228 0.0782 0.0
O58 O 0.9343 0.33412 0.05112 0.0
C59 C 0.8935 0.38488 0.91303 0.0
O60 O 0.86833 0.35643 0.07225 0.0
O61 O 0.90742 0.39181 0.04676 0.0
C62 C 0.85955 0.29743 0.07809 0.0
O63 O 0.87329 0.37018 0.94858 0.0
O64 O 0.91605 0.3867 0.92391 0.0
C65 C 0.94393 0.35251 0.91679 0.0
Fe66 Fe 0.55938 0.9201 0.99565 0.0
Fe67 Fe 0.59828 0.89785 -0.00074 0.0
O68 O 0.56487 0.89236 0.99536 0.0
Fe69 Fe 0.53673 0.85924 0.99123 0.0
O70 O 0.51597 0.86861 0.9416 0.0
O71 O 0.54352 0.91114 0.91587 0.0
O72 O 0.59115 0.94349 0.9556 0.0
C73 C 0.60675 0.9396 0.91971 0.0
C74 C 0.5166 0.88195 0.07367 0.0
O75 O 0.60837 0.91849 0.9255 0.0
C76 C 0.57207 0.85341 0.07811 0.0
O77 O 0.5747 0.9303 0.07513 0.0
O78 O 0.61112 0.92796 0.05226 0.0
O79 O 0.52264 0.86367 0.06688 0.0
O80 O 0.52665 0.90226 0.03641 0.0
C81 C 0.57177 0.85499 0.90813 0.0
O82 O 0.59087 0.87767 0.07308 0.0
O83 O 0.55232 0.84369 0.0391 0.0
C84 C 0.59854 0.93601 0.08835 0.0
O85 O 0.59106 0.8687 0.94724 0.0
O86 O 0.54889 0.85286 0.91593 0.0
C87 C 0.5225 0.8887 0.90457 0.0
Fe88 Fe 0.65225 0.55699 0.0031 0.0
Fe89 Fe 0.71356 0.5947 -0.00112 0.0
O90 O 0.68506 0.56149 -0.00209 0.0
Fe91 Fe 0.68901 0.53279 0.99215 0.0
O92 O 0.6581 0.51287 0.94385 0.0
O93 O 0.64325 0.54101 0.92394 0.0
O94 O 0.66082 0.58889 0.96321 0.0
C95 C 0.67941 0.60336 0.92362 0.0
C96 C 0.64727 0.51352 0.07903 0.0
O97 O 0.70195 0.60437 0.92625 0.0
C98 C 0.73166 0.56799 0.07643 0.0
O99 O 0.65958 0.57254 0.08246 0.0
O100 O 0.69781 0.60853 0.05379 0.0
O101 O 0.67114 0.5187 0.06869 0.0
O102 O 0.63704 0.52426 0.04417 0.0
C103 C 0.72836 0.56696 0.90724 0.0
O104 O 0.72715 0.58739 0.0711 0.0
O105 O 0.72058 0.54784 0.03859 0.0
C106 C 0.67822 0.59642 0.09327 0.0
O107 O 0.73436 0.58674 0.94488 0.0
O108 O 0.7071 0.5445 0.91596 0.0
C109 C 0.64403 0.51989 0.91014 0.0
Fe110 Fe 0.10983 0.64568 0.99461 0.0
Fe111 Fe 0.1318 0.7069 0.99563 0.0
O112 O 0.13752 0.67908 0.99448 0.0
Fe113 Fe 0.1707 0.68417 0.99339 0.0
O114 O 0.16191 0.65405 0.94423 0.0
O115 O 0.11961 0.63876 0.91603 0.0
O116 O 0.08665 0.65364 0.95244 0.0
C117 C 0.09066 0.67285 0.91526 0.0
C118 C 0.14701 0.64116 0.07611 0.0
O119 O 0.11166 0.69574 0.92102 0.0
C120 C 0.17561 0.72588 0.07715 0.0
O121 O 0.0989 0.65094 0.07287 0.0
O122 O 0.10136 0.68965 0.04789 0.0
O123 O 0.16531 0.66557 0.06963 0.0
O124 O 0.12723 0.63086 0.03745 0.0
C125 C 0.17624 0.72364 0.90825 0.0
O126 O 0.15148 0.72047 0.06997 0.0
O127 O 0.18559 0.71527 0.04095 0.0
C128 C 0.09302 0.66906 0.08462 0.0
O129 O 0.16124 0.72873 0.94402 0.0
O130 O 0.17836 0.70297 0.91804 0.0
C131 C 0.14222 0.64042 0.90623 0.0
Fe132 Fe 0.90388 0.59201 0.4964 0.0
Fe133 Fe 0.86465 0.53026 0.49642 0.0
O134 O 0.89796 0.55834 0.49582 0.0
Fe135 Fe 0.92544 0.55241 0.49434 0.0
O136 O 0.93773 0.56953 0.57111 0.0
O137 O 0.93486 0.60558 0.54664 0.0
O138 O 0.88485 0.58629 0.5719 0.0
C139 C 0.86061 0.56772 0.57961 0.0
C140 C 0.94294 0.59699 0.41071 0.0
O141 O 0.85031 0.54704 0.54363 0.0
C142 C 0.89189 0.51389 0.40882 0.0
O143 O 0.87399 0.58402 0.44623 0.0
O144 O 0.85684 0.54099 0.42092 0.0
O145 O 0.94797 0.58284 0.44893 0.0
O146 O 0.92316 0.60051 0.42063 0.0
C147 C 0.88867 0.51152 0.57895 0.0
O148 O 0.87264 0.50816 0.44793 0.0
O149 O 0.91459 0.53488 0.4171 0.0
C150 C 0.85904 0.56378 0.41064 0.0
O151 O 0.87041 0.51761 0.57278 0.0
O152 O 0.90829 0.52072 0.53971 0.0
C153 C 0.94385 0.59365 0.58229 0.0
Fe154 Fe 0.32435 0.89999 0.49467 0.0
Fe155 Fe 0.34697 0.86094 0.49212 0.0
O156 O 0.35221 0.89425 0.49332 0.0
Fe157 Fe 0.38565 0.9219 0.49336 0.0
O158 O 0.38033 0.93336 0.57046 0.0
O159 O 0.34149 0.93053 0.54628 0.0
O160 O 0.31094 0.88034 0.56933 0.0
C161 C 0.30533 0.8561 0.57609 0.0
C162 C 0.35865 0.94025 0.41114 0.0
O163 O 0.31565 0.84608 0.53907 0.0
C164 C 0.39123 0.88924 0.4063 0.0
O165 O 0.30255 0.87045 0.44333 0.0
O166 O 0.32858 0.85374 0.41642 0.0
O167 O 0.37791 0.94471 0.44863 0.0
O168 O 0.33538 0.92006 0.41995 0.0
C169 C 0.38906 0.88492 0.57761 0.0
O170 O 0.37726 0.8695 0.4439 0.0
O171 O 0.39301 0.91187 0.41594 0.0
C172 C 0.30784 0.85574 0.40696 0.0
O173 O 0.36512 0.86598 0.56854 0.0
O174 O 0.39998 0.90463 0.53868 0.0
C175 C 0.36225 0.93922 0.58229 0.0
Fe176 Fe 0.49853 0.34336 0.50177 0.0
Fe177 Fe 0.47396 0.37992 0.4919 0.0
O178 O 0.46977 0.34718 0.49571 0.0
Fe179 Fe 0.43681 0.31843 0.49381 0.0
O180 O 0.4451 0.2975 0.54677 0.0
O181 O 0.48679 0.32542 0.57826 0.0
O182 O 0.51849 0.37427 0.54978 0.0
C183 C 0.51144 0.38811 0.58408 0.0
C184 C 0.46373 0.3009 0.41639 0.0
O185 O 0.4902 0.38871 0.57089 0.0
C186 C 0.43431 0.35436 0.40187 0.0
O187 O 0.5125 0.3613 0.42546 0.0
O188 O 0.50657 0.39529 0.4498 0.0
O189 O 0.44447 0.30563 0.42085 0.0
O190 O 0.48356 0.31169 0.45532 0.0
C191 C 0.42787 0.35168 0.5717 0.0
O192 O 0.45813 0.37304 0.41292 0.0
O193 O 0.4226 0.33422 0.44006 0.0
C194 C 0.51759 0.38519 0.41532 0.0
O195 O 0.44206 0.37084 0.53303 0.0
O196 O 0.42702 0.32928 0.56707 0.0
C197 C 0.46441 0.30402 0.58635 0.0
Fe198 Fe 0.13136 0.43148 0.49776 0.0
Fe199 Fe 0.17055 0.49313 0.49415 0.0
O200 O 0.1372 0.46506 0.49713 0.0
Fe201 Fe 0.10957 0.47068 0.49997 0.0
O202 O 0.09918 0.45403 0.57792 0.0
O203 O 0.10109 0.41785 0.55051 0.0
O204 O 0.15121 0.43777 0.57158 0.0
C205 C 0.17548 0.45636 0.57796 0.0
C206 C 0.08998 0.42458 0.41913 0.0
O207 O 0.18576 0.47656 0.54011 0.0
C208 C 0.14122 0.50892 0.41103 0.0
O209 O 0.16057 0.43923 0.44541 0.0
O210 O 0.17695 0.48185 0.41753 0.0
O211 O 0.08617 0.43973 0.45694 0.0
O212 O 0.11095 0.42266 0.42385 0.0
C213 C 0.14745 0.51127 0.58194 0.0
O214 O 0.16147 0.51475 0.44685 0.0
O215 O 0.11867 0.48799 0.42208 0.0
C216 C 0.17467 0.45901 0.40774 0.0
O217 O 0.16632 0.50639 0.57122 0.0
O218 O 0.12741 0.50247 0.54421 0.0
C219 C 0.09324 0.42996 0.58868 0.0
Fe220 Fe 0.68812 0.16379 0.49431 0.0
Fe221 Fe 0.65018 0.1027 0.50553 0.0
O222 O 0.68331 0.13072 0.49984 0.0
Fe223 Fe 0.71139 0.12527 0.49971 0.0
O224 O 0.72547 0.14572 0.57239 0.0
O225 O 0.71941 0.17936 0.54192 0.0
O226 O 0.67029 0.16036 0.57036 0.0
C227 C 0.64638 0.1419 0.5815 0.0
C228 C 0.72715 0.1684 0.40938 0.0
O229 O 0.63582 0.12046 0.54841 0.0
C230 C 0.67587 0.0842 0.42105 0.0
O231 O 0.65755 0.15373 0.44527 0.0
O232 O 0.64081 0.11018 0.4278 0.0
O233 O 0.73276 0.15428 0.44681 0.0
O234 O 0.70625 0.17008 0.41837 0.0
C235 C 0.6757 0.08762 0.59314 0.0
O236 O 0.65792 0.07943 0.46304 0.0
O237 O 0.69925 0.10458 0.4263 0.0
C238 C 0.64249 0.1324 0.41328 0.0
O239 O 0.65757 0.09365 0.58385 0.0
O240 O 0.69516 0.09523 0.55333 0.0
C241 C 0.7299 0.16958 0.57957 0.0
Fe242 Fe 0.59755 0.70583 0.49876 0.0
Fe243 Fe 0.53565 0.68233 0.49554 0.0
O244 O 0.564 0.67767 0.49881 0.0
Fe245 Fe 0.55876 0.64452 0.502 0.0
O246 O 0.57535 0.65109 0.57997 0.0
O247 O 0.61138 0.68934 0.55144 0.0
O248 O 0.59134 0.7195 0.57232 0.0
C249 C 0.57201 0.72394 0.58036 0.0
C250 C 0.60326 0.67103 0.41815 0.0
O251 O 0.55163 0.71357 0.5431 0.0
C252 C 0.52097 0.63751 0.41183 0.0
O253 O 0.5896 0.72723 0.44672 0.0
O254 O 0.54699 0.70062 0.41968 0.0
O255 O 0.58972 0.6526 0.45887 0.0
O256 O 0.6062 0.69429 0.42463 0.0
C257 C 0.5166 0.64038 0.58157 0.0
O258 O 0.51466 0.65177 0.44686 0.0
O259 O 0.54184 0.63613 0.42408 0.0
C260 C 0.56958 0.72158 0.41015 0.0
O261 O 0.52201 0.66434 0.57177 0.0
O262 O 0.52668 0.62982 0.54568 0.0
C263 C 0.59947 0.66934 0.59001 0.0
H264 H 0.50563 0.20822 0.1612 0.0
H265 H 0.41954 0.17128 0.12989 0.0
H266 H 0.50393 0.23879 0.2395 0.0
H267 H 0.41765 0.20152 0.21114 0.0
H268 H 0.43166 0.28092 0.30783 0.0
H269 H 0.43039 0.24795 0.23011 0.0
H270 H 0.48959 0.24045 0.34509 0.0
H271 H 0.49164 0.27396 0.42049 0.0
C272 C 0.48618 0.20632 0.17168 0.0
C273 C 0.46269 0.18718 0.13912 0.0
C274 C 0.48519 0.22384 0.21713 0.0
C275 C 0.46062 0.22259 0.23224 0.0
C276 C 0.43699 0.20327 0.20023 0.0
C277 C 0.43802 0.18579 0.15403 0.0
C278 C 0.44438 0.27218 0.31629 0.0
C279 C 0.462 0.28033 0.36986 0.0
C280 C 0.44352 0.25313 0.27203 0.0
C281 C 0.46008 0.24165 0.28084 0.0
C282 C 0.47705 0.24931 0.33563 0.0
C283 C 0.47816 0.26851 0.37916 0.0
H284 H 0.17972 0.41482 0.37879 0.0
H285 H 0.20801 0.49749 0.32072 0.0
H286 H 0.21074 0.41241 0.30085 0.0
H287 H 0.23857 0.49489 0.2429 0.0
H288 H 0.31305 0.49378 0.17602 0.0
H289 H 0.28011 0.49243 0.25249 0.0
H290 H 0.22078 0.41356 0.18149 0.0
H291 H 0.25404 0.41472 0.10451 0.0
C292 C 0.19231 0.43237 0.34906 0.0
C293 C 0.19156 0.45645 0.35662 0.0
C294 C 0.21001 0.43093 0.30428 0.0
C295 C 0.22736 0.45357 0.26639 0.0
C296 C 0.22587 0.47727 0.27236 0.0
C297 C 0.2082 0.4787 0.31681 0.0
C298 C 0.29305 0.47603 0.17665 0.0
C299 C 0.28615 0.45446 0.13351 0.0
C300 C 0.2741 0.47535 0.22035 0.0
C301 C 0.24771 0.4531 0.2223 0.0
C302 C 0.24099 0.431 0.18109 0.0
C303 C 0.26002 0.43169 0.13698 0.0
H304 H 0.80494 0.26741 0.07083 0.0
H305 H 0.87238 0.27973 0.19009 0.0
H306 H 0.77373 0.23469 0.14816 0.0
H307 H 0.84072 0.24725 0.26966 0.0
H308 H 0.77437 0.17039 0.37267 0.0
H309 H 0.80711 0.2001 0.29143 0.0
H310 H 0.75751 0.23589 0.2532 0.0
H311 H 0.72466 0.20589 0.33209 0.0
C312 C 0.81314 0.26323 0.11392 0.0
C313 C 0.84117 0.27645 0.12471 0.0
C314 C 0.79516 0.24449 0.15853 0.0
C315 C 0.80462 0.23864 0.21583 0.0
C316 C 0.83274 0.2512 0.22588 0.0
C317 C 0.85088 0.26988 0.18053 0.0
C318 C 0.7704 0.18449 0.34649 0.0
C319 C 0.74677 0.18561 0.35872 0.0
C320 C 0.78928 0.20166 0.30031 0.0
C321 C 0.78493 0.22032 0.26545 0.0
C322 C 0.76132 0.22141 0.27802 0.0
C323 C 0.74247 0.20423 0.32368 0.0
H324 H 0.5287 0.71955 0.33769 0.0
H325 H 0.61482 0.76824 0.36944 0.0
H326 H 0.53092 0.75217 0.25916 0.0
H327 H 0.6172 0.80073 0.28834 0.0
H328 H 0.60378 0.86627 0.18793 0.0
H329 H 0.60459 0.83481 0.2678 0.0
H330 H 0.54633 0.76746 0.15274 0.0
H331 H 0.54482 0.79854 0.07517 0.0
C332 C 0.54823 0.73708 0.32738 0.0
C333 C 0.57161 0.74116 0.35986 0.0
C334 C 0.54953 0.7558 0.2819 0.0
C335 C 0.57429 0.77905 0.26683 0.0
C336 C 0.59776 0.78319 0.29918 0.0
C337 C 0.59642 0.76446 0.34529 0.0
C338 C 0.59121 0.84472 0.1799 0.0
C339 C 0.57397 0.83494 0.12569 0.0
C340 C 0.59177 0.82669 0.22542 0.0
C341 C 0.57526 0.79855 0.21722 0.0
C342 C 0.55877 0.78894 0.16173 0.0
C343 C 0.558 0.80684 0.11694 0.0
H344 H 0.75696 0.53849 0.07628 0.0
H345 H 0.75215 0.60084 0.18362 0.0
H346 H 0.7891 0.53942 0.15449 0.0
H347 H 0.78386 0.6011 0.26397 0.0
H348 H 0.85959 0.60945 0.36605 0.0
H349 H 0.83003 0.61211 0.28401 0.0
H350 H 0.7887 0.52523 0.26247 0.0
H351 H 0.81855 0.52269 0.34198 0.0
C352 C 0.76263 0.5523 0.11695 0.0
C353 C 0.75178 0.56943 0.12401 0.0
C354 C 0.78102 0.55275 0.16209 0.0
C355 C 0.78884 0.57006 0.21617 0.0
C356 C 0.77845 0.58765 0.22266 0.0
C357 C 0.76017 0.58741 0.17685 0.0
C358 C 0.84426 0.59097 0.34345 0.0
C359 C 0.84158 0.56589 0.36038 0.0
C360 C 0.8272 0.59247 0.29676 0.0
C361 C 0.80705 0.56891 0.26625 0.0
C362 C 0.80434 0.54388 0.28375 0.0
C363 C 0.82143 0.54241 0.32981 0.0
H364 H 0.30931 0.81675 0.33401 0.0
H365 H 0.26106 0.85434 0.36803 0.0
H366 H 0.27637 0.78643 0.25609 0.0
H367 H 0.2282 0.82424 0.28757 0.0
H368 H 0.16242 0.74455 0.18696 0.0
H369 H 0.19386 0.77709 0.26664 0.0
H370 H 0.26125 0.78757 0.14979 0.0
H371 H 0.23029 0.75482 0.07253 0.0
C372 C 0.2918 0.81879 0.32437 0.0
C373 C 0.28798 0.83815 0.35722 0.0
C374 C 0.27289 0.80141 0.27925 0.0
C375 C 0.24969 0.80301 0.26491 0.0
C376 C 0.24573 0.82231 0.29778 0.0
C377 C 0.26467 0.8397 0.34352 0.0
C378 C 0.18397 0.75394 0.1785 0.0
C379 C 0.19384 0.74676 0.12405 0.0
C380 C 0.20198 0.77265 0.22389 0.0
C381 C 0.23014 0.78465 0.21522 0.0
C382 C 0.23977 0.7782 0.1592 0.0
C383 C 0.22193 0.75943 0.11462 0.0
H384 H 0.53026 0.72676 0.63436 0.0
H385 H 0.61724 0.76444 0.64034 0.0
H386 H 0.53202 0.75923 0.71268 0.0
H387 H 0.61919 0.79796 0.71738 0.0
H388 H 0.60811 0.83706 0.90372 0.0
H389 H 0.60942 0.8056 0.82559 0.0
H390 H 0.54399 0.80486 0.71847 0.0
H391 H 0.54199 0.83521 0.7979 0.0
C392 C 0.54983 0.74216 0.65215 0.0
C393 C 0.57363 0.74316 0.63074 0.0
C394 C 0.55087 0.76098 0.69679 0.0
C395 C 0.57579 0.78163 0.72064 0.0
C396 C 0.59963 0.78228 0.70035 0.0
C397 C 0.59855 0.76313 0.65609 0.0
C398 C 0.59418 0.83031 0.86311 0.0
C399 C 0.57474 0.83836 0.85733 0.0
C400 C 0.59497 0.81232 0.81817 0.0
C401 C 0.57653 0.80228 0.76612 0.0
C402 C 0.55798 0.81146 0.75893 0.0
C403 C 0.55695 0.82906 0.80421 0.0
H404 H 0.77606 0.6119 0.87026 0.0
H405 H 0.72561 0.52648 0.83165 0.0
H406 H 0.80893 0.61431 0.79045 0.0
H407 H 0.75857 0.5287 0.75431 0.0
H408 H 0.80609 0.54327 0.57302 0.0
H409 H 0.77511 0.54541 0.64941 0.0
H410 H 0.84234 0.60061 0.76938 0.0
H411 H 0.87384 0.59917 0.69046 0.0
C412 C 0.77195 0.59366 0.8448 0.0
C413 C 0.74804 0.56904 0.85713 0.0
C414 C 0.79091 0.59501 0.79945 0.0
C415 C 0.78641 0.57176 0.76552 0.0
C416 C 0.76254 0.54718 0.7783 0.0
C417 C 0.74359 0.54587 0.82307 0.0
C418 C 0.81441 0.55593 0.61561 0.0
C419 C 0.84248 0.57077 0.62609 0.0
C420 C 0.79654 0.55706 0.65973 0.0
C421 C 0.80609 0.57274 0.7164 0.0
C422 C 0.83426 0.58835 0.72614 0.0
C423 C 0.85232 0.58747 0.68117 0.0
H424 H 0.27682 0.80135 0.57264 0.0
H425 H 0.28652 0.86923 0.68588 0.0
H426 H 0.24441 0.77036 0.65066 0.0
H427 H 0.25428 0.83777 0.76627 0.0
H428 H 0.17728 0.77019 0.86857 0.0
H429 H 0.20723 0.8031 0.78778 0.0
H430 H 0.24575 0.75552 0.75733 0.0
H431 H 0.21558 0.72253 0.83571 0.0
C432 C 0.27216 0.80971 0.61459 0.0
C433 C 0.28458 0.83783 0.62343 0.0
C434 C 0.25358 0.79185 0.65964 0.0
C435 C 0.24705 0.80148 0.71553 0.0
C436 C 0.25878 0.82964 0.72364 0.0
C437 C 0.27733 0.84768 0.67782 0.0
C438 C 0.19205 0.76672 0.84425 0.0
C439 C 0.19383 0.74356 0.85838 0.0
C440 C 0.20936 0.7857 0.79831 0.0
C441 C 0.22881 0.78192 0.7656 0.0
C442 C 0.23066 0.75887 0.78037 0.0
C443 C 0.21336 0.73992 0.82575 0.0
H444 H 0.49492 0.31506 0.69609 0.0
H445 H 0.42895 0.24949 0.59267 0.0
H446 H 0.4934 0.28334 0.77719 0.0
H447 H 0.42819 0.21742 0.67212 0.0
H448 H 0.4196 0.16864 0.85622 0.0
H449 H 0.41813 0.20036 0.77904 0.0
H450 H 0.50515 0.24999 0.78962 0.0
H451 H 0.50636 0.21903 0.86858 0.0
C452 C 0.48012 0.29381 0.69061 0.0
C453 C 0.46214 0.2848 0.63779 0.0
C454 C 0.47937 0.27552 0.73687 0.0
C455 C 0.46092 0.24762 0.73103 0.0
C456 C 0.4425 0.23871 0.67885 0.0
C457 C 0.44299 0.2571 0.63304 0.0
C458 C 0.43838 0.18634 0.84194 0.0
C459 C 0.46307 0.19141 0.86893 0.0
C460 C 0.43758 0.20452 0.79742 0.0
C461 C 0.4615 0.228 0.7782 0.0
C462 C 0.48621 0.23261 0.80434 0.0
C463 C 0.48695 0.2147 0.84939 0.0
H464 H 0.22933 0.47466 0.56767 0.0
H465 H 0.16141 0.43211 0.6976 0.0
H466 H 0.25915 0.47192 0.64884 0.0
H467 H 0.19163 0.43019 0.77983 0.0
H468 H 0.26957 0.47623 0.92147 0.0
H469 H 0.23679 0.47326 0.84056 0.0
H470 H 0.26057 0.42922 0.71239 0.0
H471 H 0.29289 0.43139 0.79422 0.0
C472 C 0.22079 0.46471 0.6136 0.0
C473 C 0.19306 0.45364 0.62647 0.0
C474 C 0.23782 0.46304 0.65976 0.0
C475 C 0.22761 0.45084 0.72031 0.0
C476 C 0.1999 0.43967 0.73333 0.0
C477 C 0.18267 0.44071 0.68639 0.0
C478 C 0.26772 0.4658 0.87617 0.0
C479 C 0.28384 0.45411 0.864 0.0
C480 C 0.24885 0.46396 0.83021 0.0
C481 C 0.24619 0.45097 0.77058 0.0
C482 C 0.26228 0.4393 0.75819 0.0
C483 C 0.28069 0.44052 0.8049 0.0
H484 H 0.84351 0.24725 0.90168 0.0
H485 H 0.84009 0.31156 0.79988 0.0
H486 H 0.8121 0.21461 0.82332 0.0
H487 H 0.80979 0.27932 0.71989 0.0
H488 H 0.73238 0.21406 0.6333 0.0
H489 H 0.76471 0.24507 0.71167 0.0
H490 H 0.80432 0.19755 0.7158 0.0
H491 H 0.77091 0.16567 0.63898 0.0
C492 C 0.83642 0.25448 0.86186 0.0
C493 C 0.84408 0.28195 0.85729 0.0
C494 C 0.81845 0.23576 0.81672 0.0
C495 C 0.80802 0.24416 0.7655 0.0
C496 C 0.81671 0.27189 0.75962 0.0
C497 C 0.83429 0.29048 0.80521 0.0
C498 C 0.74796 0.21018 0.651 0.0
C499 C 0.74919 0.1875 0.62959 0.0
C500 C 0.76671 0.22813 0.69566 0.0
C501 C 0.78754 0.2242 0.71952 0.0
C502 C 0.78849 0.20119 0.69896 0.0
C503 C 0.76939 0.18293 0.65476 0.0
H504 H 0.32427 0.95484 0.35186 0.0
H505 H 0.40638 0.97034 0.35055 0.0
H506 H 0.33642 0.98961 0.26657 0.0
H507 H 0.41808 1.00419 0.26617 0.0
H508 H 0.41835 0.03239 0.06171 0.0
H509 H 0.3969 0.99677 0.14222 0.0
H510 H 0.37856 0.04789 0.25973 0.0
H511 H 0.40052 0.08436 0.17842 0.0
C512 C 0.34474 0.96549 0.3332 0.0
C513 C 0.36437 0.95989 0.35789 0.0
C514 C 0.35171 0.98546 0.28505 0.0
C515 C 0.37819 0.99954 0.26022 0.0
C516 C 0.39755 0.99364 0.28456 0.0
C517 C 0.3908 0.97424 0.33292 0.0
C518 C 0.40951 0.03617 0.10414 0.0
C519 C 0.41162 0.06151 0.11406 0.0
C520 C 0.39707 0.0156 0.15005 0.0
C521 C 0.3862 0.01965 0.20707 0.0
C522 C 0.38665 0.04427 0.21572 0.0
C523 C 0.39931 0.06513 0.16944 0.0
H524 H 0.3792 0.3313 0.38853 0.0
H525 H 0.4551 0.38732 0.29712 0.0
H526 H 0.35499 0.34208 0.30589 0.0
H527 H 0.43118 0.39805 0.21579 0.0
H528 H 0.38492 0.39801 0.04676 0.0
H529 H 0.40005 0.37622 0.12403 0.0
H530 H 0.35123 0.3836 0.27377 0.0
H531 H 0.33548 0.40516 0.19504 0.0
C532 C 0.39066 0.34559 0.35038 0.0
C533 C 0.41906 0.35845 0.34924 0.0
C534 C 0.37682 0.3519 0.30352 0.0
C535 C 0.39116 0.3708 0.25422 0.0
C536 C 0.41948 0.38309 0.25252 0.0
C537 C 0.43323 0.37705 0.2994 0.0
C538 C 0.37698 0.39452 0.09587 0.0
C539 C 0.35937 0.40363 0.11532 0.0
C540 C 0.38571 0.38211 0.14014 0.0
C541 C 0.37731 0.37875 0.20527 0.0
C542 C 0.35803 0.38594 0.2238 0.0
C543 C 0.34903 0.39826 0.17893 0.0
H544 H 0.09312 0.40749 0.29584 0.0
H545 H 0.03662 0.4025 0.44199 0.0
H546 H 0.05581 0.38559 0.21722 0.0
H547 H 0.9997 0.38029 0.365 0.0
H548 H 0.95499 0.38843 0.19085 0.0
H549 H 0.99003 0.40047 0.27155 0.0
H550 H 1.01065 0.34418 0.18624 0.0
H551 H 0.97528 0.33215 0.10382 0.0
C552 C 0.0727 0.4011 0.3115 0.0
C553 C 0.06779 0.40715 0.37444 0.0
C554 C 0.05136 0.38854 0.26671 0.0
C555 C 0.02491 0.38173 0.28465 0.0
C556 C 0.01993 0.3859 0.3492 0.0
C557 C 0.04109 0.39859 0.39334 0.0
C558 C 0.96677 0.37838 0.18935 0.0
C559 C 0.96232 0.35933 0.14084 0.0
C560 C 0.98681 0.38518 0.23598 0.0
C561 C 1.00304 0.37316 0.23556 0.0
C562 C 0.99849 0.35382 0.1876 0.0
C563 C 0.97813 0.34679 0.14086 0.0
H564 H 0.65242 0.97423 0.09558 0.0
H565 H 0.5768 0.94256 0.19885 0.0
H566 H 0.67392 1.01124 0.17433 0.0
H567 H 0.59828 0.97847 0.27866 0.0
H568 H 0.62897 0.06086 0.35627 0.0
H569 H 0.61283 0.02502 0.27643 0.0
H570 H 0.68907 0.02647 0.28556 0.0
H571 H 0.70575 0.06375 0.36462 0.0
C572 C 0.64059 0.97484 0.13598 0.0
C573 C 0.61286 0.95577 0.14074 0.0
C574 C 0.6529 0.99601 0.18109 0.0
C575 C 0.6377 0.99825 0.232 0.0
C576 C 0.61042 0.97798 0.23886 0.0
C577 C 0.59811 0.95722 0.19345 0.0
C578 C 0.64241 0.0537 0.34084 0.0
C579 C 0.66847 0.06481 0.36705 0.0
C580 C 0.63307 0.03293 0.29549 0.0
C581 C 0.64931 0.0222 0.27593 0.0
C582 C 0.67598 0.03418 0.29981 0.0
C583 C 0.68557 0.05549 0.34491 0.0
H584 H 0.69187 0.64976 0.0946 0.0
H585 H 0.65418 0.57659 0.20923 0.0
H586 H 0.67599 0.67126 0.17242 0.0
H587 H 0.63931 0.59814 0.28775 0.0
H588 H 0.5821 0.62391 0.35473 0.0
H589 H 0.604 0.60908 0.27786 0.0
H590 H 0.67625 0.68774 0.28554 0.0
H591 H 0.65355 0.703 0.36229 0.0
C592 C 0.6809 0.63859 0.13742 0.0
C593 C 0.67389 0.61142 0.14565 0.0
C594 C 0.6718 0.65087 0.18187 0.0
C595 C 0.65579 0.63616 0.23532 0.0
C596 C 0.65085 0.60975 0.24597 0.0
C597 C 0.65954 0.59744 0.20134 0.0
C598 C 0.6026 0.63817 0.33967 0.0
C599 C 0.61629 0.66447 0.36502 0.0
C600 C 0.61526 0.6296 0.29603 0.0
C601 C 0.64218 0.64695 0.27716 0.0
C602 C 0.65555 0.67385 0.29964 0.0
C603 C 0.64261 0.68261 0.34328 0.0
H604 H 0.96672 0.64947 0.36494 0.0
H605 H 0.96124 0.57234 0.33268 0.0
H606 H 1.0042 0.6705 0.28604 0.0
H607 H 0.99749 0.59271 0.25353 0.0
H608 H 0.08274 0.63749 0.19121 0.0
H609 H 0.04555 0.62271 0.26747 0.0
H610 H 0.01921 0.67235 0.16949 0.0
H611 H 0.05727 0.68786 0.09344 0.0
C612 C 0.97306 0.63697 0.33972 0.0
C613 C 0.9614 0.60941 0.35515 0.0
C614 C 0.9945 0.64895 0.29486 0.0
C615 C 1.00431 0.63339 0.26494 0.0
C616 C 0.99109 0.60547 0.27727 0.0
C617 C 0.97012 0.59371 0.32214 0.0
C618 C 0.06924 0.64554 0.18628 0.0
C619 C 0.07272 0.66355 0.13583 0.0
C620 C 0.04779 0.63693 0.22974 0.0
C621 C 0.02897 0.64579 0.22346 0.0
C622 C 0.0333 0.66509 0.17541 0.0
C623 C 0.05508 0.67396 0.13195 0.0
H624 H 0.69774 0.05468 0.60437 0.0
H625 H 0.64353 0.07588 0.69923 0.0
H626 H 0.68669 0.01932 0.68625 0.0
H627 H 0.6325 0.04083 0.77979 0.0
H628 H 0.6313 0.99281 0.94613 0.0
H629 H 0.65375 0.03024 0.87011 0.0
H630 H 0.64495 0.97444 0.71788 0.0
H631 H 0.6228 0.93665 0.79535 0.0
C632 C 0.68379 0.05205 0.6431 0.0
C633 C 0.67149 0.06806 0.64538 0.0
C634 C 0.67734 0.0317 0.68955 0.0
C635 C 0.65883 0.02737 0.73955 0.0
C636 C 0.64715 0.0439 0.74249 0.0
C637 C 0.65336 0.06392 0.69603 0.0
C638 C 0.63463 0.98856 0.89672 0.0
C639 C 0.62497 0.96185 0.87616 0.0
C640 C 0.64742 1.00999 0.85318 0.0
C641 C 0.65056 1.00522 0.78773 0.0
C642 C 0.6428 0.9787 0.76812 0.0
C643 C 0.63013 0.9571 0.81225 0.0
H644 H 0.64842 0.62576 0.94608 0.0
H645 H 0.69892 0.61945 0.7993 0.0
H646 H 0.63289 0.64683 0.86786 0.0
H647 H 0.68279 0.64031 0.71967 0.0
H648 H 0.65459 0.69231 0.60394 0.0
H649 H 0.67864 0.68145 0.68687 0.0
H650 H 0.60226 0.62507 0.7755 0.0
H651 H 0.5785 0.63589 0.69399 0.0
C652 C 0.65647 0.62921 0.89708 0.0
C653 C 0.67454 0.62057 0.8784 0.0
C654 C 0.64751 0.64123 0.85225 0.0
C655 C 0.65615 0.64469 0.7873 0.0
C656 C 0.67579 0.6379 0.76947 0.0
C657 C 0.685 0.62595 0.81488 0.0
C658 C 0.64305 0.67788 0.64175 0.0
C659 C 0.61464 0.66496 0.64244 0.0
C660 C 0.65679 0.67153 0.6888 0.0
C661 C 0.64236 0.65252 0.73785 0.0
C662 C 0.61403 0.64011 0.739 0.0
C663 C 0.60037 0.64621 0.69196 0.0
H664 H 0.95822 0.57232 0.68198 0.0
H665 H 0.97578 0.6488 0.59814 0.0
H666 H 0.99329 0.59589 0.7626 0.0
H667 H 1.01124 0.67264 0.68013 0.0
H668 H 0.09441 0.69342 0.79168 0.0
H669 H 0.05758 0.6774 0.71135 0.0
H670 H 1.00086 0.62563 0.85734 0.0
H671 H 0.03722 0.6411 0.93617 0.0
C672 C 0.96946 0.59423 0.681 0.0
C673 C 0.96413 0.60866 0.63362 0.0
C674 C 0.98951 0.60777 0.72752 0.0
C675 C 1.00494 0.63615 0.72799 0.0
C676 C 0.9997 0.65075 0.6808 0.0
C677 C 0.97929 0.63711 0.6343 0.0
C678 C 0.07394 0.67912 0.80663 0.0
C679 C 0.06872 0.66813 0.86968 0.0
C680 C 0.05289 0.66995 0.76083 0.0
C681 C 0.02644 0.64983 0.77781 0.0
C682 C 0.0211 0.64064 0.84235 0.0
C683 C 0.04195 0.64957 0.88754 0.0
H684 H 0.40062 0.95601 0.67617 0.0
H685 H 0.33715 0.96907 0.60322 0.0
H686 H 0.41535 0.99417 0.74901 0.0
H687 H 0.35214 1.00766 0.67752 0.0
H688 H 0.45894 0.08205 0.79363 0.0
H689 H 0.43715 0.04474 0.71743 0.0
H690 H 0.35977 0.01994 0.80614 0.0
H691 H 0.38171 0.05765 0.88343 0.0
C692 C 0.38961 0.96687 0.67604 0.0
C693 C 0.36799 0.95977 0.63298 0.0
C694 C 0.39813 0.98879 0.71771 0.0
C695 C 0.38523 1.00416 0.71774 0.0
C696 C 0.36249 0.99616 0.67798 0.0
C697 C 0.35394 0.97411 0.63565 0.0
C698 C 0.43721 0.06896 0.79643 0.0
C699 C 0.42211 0.0725 0.84528 0.0
C700 C 0.42477 0.04757 0.75287 0.0
C701 C 0.39692 0.02919 0.75696 0.0
C702 C 0.38132 0.03383 0.8023 0.0
C703 C 0.39386 0.05539 0.84633 0.0
H704 H 0.40917 0.43618 0.87402 0.0
H705 H 0.32457 0.38708 0.82554 0.0
H706 H 0.42024 0.41103 0.79619 0.0
H707 H 0.33604 0.36238 0.74531 0.0
H708 H 0.39936 0.37721 0.55271 0.0
H709 H 0.37787 0.39085 0.63568 0.0
H710 H 0.39881 0.35065 0.78265 0.0
H711 H 0.41958 0.33609 0.69906 0.0
C712 C 0.39295 0.42008 0.84646 0.0
C713 C 0.36601 0.41371 0.85535 0.0
C714 C 0.39929 0.40556 0.80253 0.0
C715 C 0.37894 0.38473 0.76562 0.0
C716 C 0.35197 0.37826 0.77399 0.0
C717 C 0.34547 0.39239 0.81945 0.0
C718 C 0.39869 0.37066 0.60248 0.0
C719 C 0.4111 0.35567 0.61978 0.0
C720 C 0.3863 0.37832 0.64966 0.0
C721 C 0.38666 0.37162 0.71506 0.0
C722 C 0.39809 0.35572 0.73219 0.0
C723 C 0.4099 0.34742 0.6846 0.0
H724 H 0.96499 0.32241 0.86479 0.0
H725 H 0.96626 0.39825 0.84713 0.0
H726 H 1.00254 0.33864 0.78624 0.0
H727 H 1.00257 0.41398 0.76839 0.0
H728 H 0.08641 0.45059 0.70048 0.0
H729 H 0.04984 0.42853 0.77864 0.0
H730 H 0.0177 0.35373 0.67141 0.0
H731 H 0.05522 0.37586 0.59369 0.0
C732 C 0.97292 0.34224 0.84311 0.0
C733 C 0.96313 0.35929 0.86256 0.0
C734 C 0.99438 0.35156 0.7984 0.0
C735 C 1.00605 0.37791 0.77255 0.0
C736 C 0.99477 0.39398 0.78908 0.0
C737 C 0.97379 0.38489 0.83382 0.0
C738 C 0.07178 0.42933 0.69407 0.0
C739 C 0.07344 0.41503 0.64064 0.0
C740 C 0.0507 0.4167 0.73858 0.0
C741 C 0.03042 0.38955 0.73022 0.0
C742 C 0.03296 0.37468 0.67903 0.0
C743 C 0.05441 0.38733 0.63461 0.0
H744 H 0.51817 0.09083 0.12034 0.0
H745 H 0.54616 0.17468 0.16294 0.0
H746 H 0.5506 0.09111 0.19686 0.0
H747 H 0.57753 0.17467 0.24324 0.0
H748 H 0.64928 0.17456 0.33724 0.0
H749 H 0.6177 0.17471 0.25773 0.0
H750 H 0.56083 0.0911 0.30443 0.0
H751 H 0.59313 0.09065 0.38002 0.0
C752 C 0.53094 0.1092 0.14721 0.0
C753 C 0.52965 0.13272 0.13587 0.0
C754 C 0.54951 0.10937 0.19148 0.0
C755 C 0.56681 0.1329 0.2268 0.0
C756 C 0.56504 0.15631 0.21616 0.0
C757 C 0.54688 0.1563 0.17063 0.0
C758 C 0.63007 0.15623 0.32989 0.0
C759 C 0.62372 0.13257 0.36436 0.0
C760 C 0.61181 0.15632 0.28478 0.0
C761 C 0.58653 0.13291 0.27432 0.0
C762 C 0.58025 0.10936 0.30962 0.0
C763 C 0.59874 0.1091 0.35341 0.0
H764 H 0.42143 0.49817 0.17136 0.0
H765 H 0.39729 0.5558 0.11429 0.0
H766 H 0.45293 0.53048 0.24981 0.0
H767 H 0.42925 0.58829 0.19174 0.0
H768 H 0.47052 0.62909 0.38383 0.0
H769 H 0.43781 0.59686 0.30706 0.0
H770 H 0.49542 0.57293 0.24937 0.0
H771 H 0.52792 0.60469 0.32703 0.0
C772 C 0.4228 0.51771 0.17555 0.0
C773 C 0.40691 0.52442 0.13626 0.0
C774 C 0.44102 0.53631 0.22021 0.0
C775 C 0.44381 0.56207 0.22661 0.0
C776 C 0.42746 0.56855 0.1884 0.0
C777 C 0.40919 0.54993 0.14381 0.0
C778 C 0.47627 0.61706 0.35456 0.0
C779 C 0.5018 0.61937 0.36192 0.0
C780 C 0.45753 0.59863 0.31038 0.0
C781 C 0.46391 0.58216 0.27245 0.0
C782 C 0.48966 0.58492 0.27879 0.0
C783 C 0.50837 0.60329 0.323 0.0
H784 H 0.92557 0.52112 0.30713 0.0
H785 H 0.85149 0.46111 0.39886 0.0
H786 H 0.92228 0.48733 0.23023 0.0
H787 H 0.8487 0.42701 0.32325 0.0
H788 H 0.84197 0.37924 0.13387 0.0
H789 H 0.84147 0.41148 0.2118 0.0
H790 H 0.92816 0.44911 0.23271 0.0
H791 H 0.92863 0.41783 0.15397 0.0
C792 C 0.90861 0.5007 0.31097 0.0
C793 C 0.88896 0.49378 0.35947 0.0
C794 C 0.90679 0.48123 0.26715 0.0
C795 C 0.88544 0.45428 0.2712 0.0
C796 C 0.86532 0.44756 0.31848 0.0
C797 C 0.86701 0.46712 0.36201 0.0
C798 C 0.86077 0.39424 0.15598 0.0
C799 C 0.88536 0.39632 0.13747 0.0
C800 C 0.86054 0.41272 0.20046 0.0
C801 C 0.88488 0.43331 0.22743 0.0
C802 C 0.90916 0.43417 0.21135 0.0
C803 C 0.90941 0.41606 0.16666 0.0
H804 H 0.42821 0.92861 0.32603 0.0
H805 H 0.3929 0.84377 0.37285 0.0
H806 H 0.45729 0.92453 0.24623 0.0
H807 H 0.42165 0.83958 0.29159 0.0
H808 H 0.50057 0.85306 0.18833 0.0
H809 H 0.4691 0.85345 0.26901 0.0
H810 H 0.45349 0.9043 0.14182 0.0
H811 H 0.48501 0.90446 0.06308 0.0
C812 C 0.42648 0.90903 0.31898 0.0
C813 C 0.40819 0.88654 0.35585 0.0
C814 C 0.44309 0.90664 0.27297 0.0
C815 C 0.44171 0.88167 0.2623 0.0
C816 C 0.42341 0.85914 0.2991 0.0
C817 C 0.40681 0.86154 0.34533 0.0
C818 C 0.49014 0.86403 0.17767 0.0
C819 C 0.49554 0.87903 0.11994 0.0
C820 C 0.47213 0.86426 0.22368 0.0
C821 C 0.45918 0.87935 0.21229 0.0
C822 C 0.46369 0.89314 0.15302 0.0
C823 C 0.48169 0.89309 0.10768 0.0
H824 H 0.65867 0.48175 0.16039 0.0
H825 H 0.59553 0.49898 0.10873 0.0
H826 H 0.62848 0.44918 0.24254 0.0
H827 H 0.56598 0.46681 0.18887 0.0
H828 H 0.53385 0.43768 0.38842 0.0
H829 H 0.56681 0.4673 0.3095 0.0
H830 H 0.58204 0.40348 0.25299 0.0
H831 H 0.54876 0.37331 0.33376 0.0
C832 C 0.63846 0.47858 0.16626 0.0
C833 C 0.62968 0.4932 0.12822 0.0
C834 C 0.62117 0.45984 0.21291 0.0
C835 C 0.59498 0.45567 0.2225 0.0
C836 C 0.58618 0.46988 0.18344 0.0
C837 C 0.60322 0.48834 0.13719 0.0
C838 C 0.54415 0.42975 0.35956 0.0
C839 C 0.53837 0.40291 0.36719 0.0
C840 C 0.56308 0.44682 0.31411 0.0
C841 C 0.57682 0.43766 0.27457 0.0
C842 C 0.57178 0.4111 0.28303 0.0
C843 C 0.55262 0.39381 0.32887 0.0
H844 H 0.10069 0.50712 0.33658 0.0
H845 H 0.1865 0.55563 0.37286 0.0
H846 H 0.10389 0.54021 0.25739 0.0
H847 H 0.18979 0.58848 0.29214 0.0
H848 H 0.17742 0.65438 0.18864 0.0
H849 H 0.17703 0.62282 0.27046 0.0
H850 H 0.12177 0.55549 0.15091 0.0
H851 H 0.12163 0.58653 0.07118 0.0
C852 C 0.12029 0.52472 0.32733 0.0
C853 C 0.14332 0.52862 0.36103 0.0
C854 C 0.12217 0.5437 0.28167 0.0
C855 C 0.14716 0.56699 0.26808 0.0
C856 C 0.17021 0.57095 0.30189 0.0
C857 C 0.16832 0.55198 0.34781 0.0
C858 C 0.16539 0.63283 0.17995 0.0
C859 C 0.14931 0.623 0.12389 0.0
C860 C 0.16517 0.61475 0.22663 0.0
C861 C 0.14898 0.58658 0.21773 0.0
C862 C 0.13385 0.57698 0.16034 0.0
C863 C 0.13392 0.59488 0.11434 0.0
H864 H 0.53096 0.92351 0.80383 0.0
H865 H 0.46954 0.84949 0.8929 0.0
H866 H 0.49788 0.92103 0.72527 0.0
H867 H 0.43625 0.84763 0.81657 0.0
H868 H 0.388 0.84023 0.63098 0.0
H869 H 0.42062 0.84011 0.70802 0.0
H870 H 0.46045 0.9273 0.72022 0.0
H871 H 0.42881 0.9273 0.64168 0.0
C872 C 0.51039 0.90678 0.80677 0.0
C873 C 0.50291 0.88679 0.85475 0.0
C874 C 0.49131 0.90542 0.76206 0.0
C875 C 0.4642 0.88426 0.76487 0.0
C876 C 0.45691 0.86403 0.81224 0.0
C877 C 0.47605 0.8652 0.85634 0.0
C878 C 0.40362 0.85924 0.6508 0.0
C879 C 0.40606 0.88376 0.63004 0.0
C880 C 0.42234 0.85926 0.69491 0.0
C881 C 0.44356 0.88377 0.71968 0.0
C882 C 0.44503 0.9081 0.70078 0.0
C883 C 0.42669 0.90809 0.65621 0.0
H884 H 0.63475 0.4694 0.88052 0.0
H885 H 0.61071 0.52754 0.82779 0.0
H886 H 0.60214 0.43723 0.80406 0.0
H887 H 0.5785 0.49547 0.74974 0.0
H888 H 0.50387 0.4211 0.66762 0.0
H889 H 0.53604 0.45301 0.74606 0.0
H890 H 0.59418 0.42957 0.68981 0.0
H891 H 0.56193 0.39728 0.61301 0.0
C892 C 0.62271 0.47545 0.85214 0.0
C893 C 0.62534 0.50107 0.86045 0.0
C894 C 0.60404 0.457 0.80805 0.0
C895 C 0.58764 0.46372 0.77081 0.0
C896 C 0.59051 0.48948 0.77843 0.0
C897 C 0.60913 0.50794 0.8228 0.0
C898 C 0.52347 0.42266 0.67228 0.0
C899 C 0.5303 0.40663 0.63395 0.0
C900 C 0.54198 0.4411 0.71688 0.0
C901 C 0.56774 0.44394 0.72405 0.0
C902 C 0.57441 0.42768 0.68618 0.0
C903 C 0.55591 0.40921 0.64187 0.0
H904 H 0.19221 0.55617 0.6312 0.0
H905 H 0.10565 0.50685 0.65162 0.0
H906 H 0.19221 0.58886 0.70834 0.0
H907 H 0.10561 0.53851 0.72991 0.0
H908 H 0.10736 0.61261 0.80701 0.0
H909 H 0.11048 0.58202 0.72986 0.0
H910 H 0.1854 0.59734 0.81852 0.0
H911 H 0.18281 0.6287 0.89386 0.0
C912 C 0.17333 0.55209 0.65325 0.0
C913 C 0.14892 0.52921 0.63511 0.0
C914 C 0.17325 0.57076 0.69731 0.0
C915 C 0.14879 0.56662 0.7244 0.0
C916 C 0.12469 0.54289 0.7085 0.0
C917 C 0.12474 0.52457 0.66411 0.0
C918 C 0.12457 0.60957 0.80974 0.0
C919 C 0.14471 0.62297 0.85684 0.0
C920 C 0.1263 0.59187 0.76582 0.0
C921 C 0.14804 0.58687 0.76847 0.0
C922 C 0.16851 0.60082 0.81462 0.0
C923 C 0.16692 0.61874 0.85808 0.0
H924 H 0.59404 0.10613 0.61046 0.0
H925 H 0.65939 0.18566 0.66172 0.0
H926 H 0.56531 0.11011 0.69046 0.0
H927 H 0.62999 0.18943 0.74349 0.0
H928 H 0.54972 0.18643 0.83375 0.0
H929 H 0.58262 0.18929 0.7522 0.0
H930 H 0.56887 0.11116 0.81348 0.0
H931 H 0.53645 0.10808 0.89326 0.0
C932 C 0.60237 0.12456 0.63873 0.0
C933 C 0.62922 0.14548 0.62997 0.0
C934 C 0.5858 0.12678 0.68472 0.0
C935 C 0.5955 0.14994 0.72355 0.0
C936 C 0.62204 0.17138 0.71392 0.0
C937 C 0.63886 0.16912 0.66754 0.0
C938 C 0.55389 0.16999 0.82985 0.0
C939 C 0.54018 0.14691 0.86959 0.0
C940 C 0.57279 0.17172 0.78358 0.0
C941 C 0.57802 0.15031 0.77626 0.0
C942 C 0.56495 0.12778 0.81741 0.0
C943 C 0.54632 0.12608 0.86327 0.0
H944 H 0.48278 0.65109 0.65598 0.0
H945 H 0.50513 0.59037 0.61972 0.0
H946 H 0.45005 0.62132 0.73825 0.0
H947 H 0.47277 0.56116 0.70022 0.0
H948 H 0.44165 0.53195 0.90011 0.0
H949 H 0.47157 0.56492 0.82162 0.0
H950 H 0.40549 0.57298 0.74649 0.0
H951 H 0.37493 0.53963 0.82666 0.0
C952 C 0.48073 0.63151 0.66541 0.0
C953 C 0.49668 0.62318 0.6315 0.0
C954 C 0.46191 0.61446 0.71201 0.0
C955 C 0.45907 0.58906 0.72577 0.0
C956 C 0.47478 0.58076 0.69123 0.0
C957 C 0.4933 0.59755 0.64485 0.0
C958 C 0.43328 0.54068 0.86724 0.0
C959 C 0.40572 0.53283 0.86925 0.0
C960 C 0.45053 0.55962 0.82218 0.0
C961 C 0.44078 0.57126 0.77757 0.0
C962 C 0.41348 0.56431 0.7806 0.0
C963 C 0.39601 0.54514 0.82609 0.0
H964 H 0.85878 0.49507 0.69219 0.0
H965 H 0.91317 0.48159 0.57316 0.0
H966 H 0.85878 0.46369 0.77393 0.0
H967 H 0.9126 0.45018 0.65283 0.0
H968 H 0.93403 0.42349 0.83837 0.0
H969 H 0.93098 0.45344 0.75931 0.0
H970 H 0.84516 0.41608 0.79504 0.0
H971 H 0.8483 0.38643 0.87579 0.0
C972 C 0.87043 0.48521 0.68318 0.0
C973 C 0.88626 0.4911 0.62677 0.0
C974 C 0.8704 0.46723 0.72976 0.0
C975 C 0.88608 0.4548 0.72031 0.0
C976 C 0.90093 0.45996 0.66256 0.0
C977 C 0.90112 0.47792 0.61666 0.0
C978 C 0.91448 0.42158 0.82941 0.0
C979 C 0.89142 0.4025 0.86335 0.0
C980 C 0.9127 0.4387 0.78384 0.0
C981 C 0.88777 0.43704 0.77058 0.0
C982 C 0.86469 0.41804 0.80461 0.0
C983 C 0.86649 0.40093 0.8505 0.0
loop_
_geom_bond_atom_site_label_1
_geom_bond_atom_site_label_2
_geom_bond_distance
_geom_bond_site_symmetry_2
_ccdc_geom_bond_type
Fe0 O2 1.918 . S
Fe0 O5 1.997 1_554 S
Fe0 O6 2.002 1_554 S
Fe0 O11 1.976 . S
Fe0 O14 1.996 . S
Fe1 O2 1.918 . S
Fe1 O9 1.997 1_554 S
Fe1 O12 1.996 . S
Fe1 O16 1.976 . S
Fe1 O19 2.002 1_554 S
O2 Fe0 1.918 . S
O2 Fe1 1.918 . S
O2 Fe3 1.918 . S
Fe3 O2 1.918 . S
Fe3 O4 2.002 1_554 S
Fe3 O13 1.976 . S
Fe3 O17 1.996 . S
Fe3 O20 1.997 1_554 S
O4 Fe3 2.002 1_556 S
O4 C21 1.295 . S
O5 Fe0 1.997 1_556 S
O5 C21 1.235 . S
O6 Fe0 2.002 1_556 S
O6 C7 1.295 . S
C7 O6 1.295 . S
C7 O9 1.235 . S
C8 O13 1.287 . S
C8 O14 1.255 . S
O9 Fe1 1.997 1_556 S
O9 C7 1.235 . S
C10 O16 1.287 . S
C10 O17 1.255 . S
O11 Fe0 1.976 . S
O11 C18 1.287 . S
O12 Fe1 1.996 . S
O12 C18 1.255 . S
O13 Fe3 1.976 . S
O13 C8 1.287 . S
O14 Fe0 1.996 . S
O14 C8 1.255 . S
C15 O19 1.295 . S
C15 O20 1.235 . S
O16 Fe1 1.976 . S
O16 C10 1.287 . S
O17 Fe3 1.996 . S
O17 C10 1.255 . S
C18 O11 1.287 . S
C18 O12 1.255 . S
O19 Fe1 2.002 1_556 S
O19 C15 1.295 . S
O20 Fe3 1.997 1_556 S
O20 C15 1.235 . S
C21 O4 1.295 . S
C21 O5 1.235 . S
Fe22 O24 1.918 . S
Fe22 O27 1.997 1_554 S
Fe22 O28 2.002 1_554 S
Fe22 O33 1.976 . S
Fe22 O36 1.996 . S
Fe23 O24 1.918 . S
Fe23 O31 1.997 1_554 S
Fe23 O34 1.996 . S
Fe23 O38 1.976 . S
Fe23 O41 2.002 1_554 S
O24 Fe22 1.918 . S
O24 Fe23 1.918 . S
O24 Fe25 1.918 . S
Fe25 O24 1.918 . S
Fe25 O26 2.002 1_554 S
Fe25 O35 1.976 . S
Fe25 O39 1.996 . S
Fe25 O42 1.997 1_554 S
O26 Fe25 2.002 1_556 S
O26 C43 1.295 . S
O27 Fe22 1.997 1_556 S
O27 C43 1.235 . S
O28 Fe22 2.002 1_556 S
O28 C29 1.295 . S
C29 O28 1.295 . S
C29 O31 1.235 . S
C30 O35 1.287 . S
C30 O36 1.255 . S
O31 Fe23 1.997 1_556 S
O31 C29 1.235 . S
C32 O38 1.287 . S
C32 O39 1.255 . S
O33 Fe22 1.976 . S
O33 C40 1.287 . S
O34 Fe23 1.996 . S
O34 C40 1.255 . S
O35 Fe25 1.976 . S
O35 C30 1.287 . S
O36 Fe22 1.996 . S
O36 C30 1.255 . S
C37 O41 1.295 . S
C37 O42 1.235 . S
O38 Fe23 1.976 . S
O38 C32 1.287 . S
O39 Fe25 1.996 . S
O39 C32 1.255 . S
C40 O33 1.287 . S
C40 O34 1.255 . S
O41 Fe23 2.002 1_556 S
O41 C37 1.295 . S
O42 Fe25 1.997 1_556 S
O42 C37 1.235 . S
C43 O26 1.295 . S
C43 O27 1.235 . S
Fe44 O46 1.918 . S
Fe44 O49 1.997 1_554 S
Fe44 O50 2.002 1_554 S
Fe44 O55 1.976 . S
Fe44 O58 1.996 . S
Fe45 O46 1.918 . S
Fe45 O53 1.997 1_554 S
Fe45 O56 1.996 . S
Fe45 O60 1.976 . S
Fe45 O63 2.002 1_554 S
O46 Fe44 1.918 . S
O46 Fe45 1.918 . S
O46 Fe47 1.918 . S
Fe47 O46 1.918 . S
Fe47 O48 2.002 1_554 S
Fe47 O57 1.976 . S
Fe47 O61 1.996 . S
Fe47 O64 1.997 1_554 S
O48 Fe47 2.002 1_556 S
O48 C65 1.295 . S
O49 Fe44 1.997 1_556 S
O49 C65 1.235 . S
O50 Fe44 2.002 1_556 S
O50 C51 1.295 . S
C51 O50 1.295 . S
C51 O53 1.235 . S
C52 O57 1.287 . S
C52 O58 1.255 . S
O53 Fe45 1.997 1_556 S
O53 C51 1.235 . S
C54 O60 1.287 . S
C54 O61 1.255 . S
O55 Fe44 1.976 . S
O55 C62 1.287 . S
O56 Fe45 1.996 . S
O56 C62 1.255 . S
O57 Fe47 1.976 . S
O57 C52 1.287 . S
O58 Fe44 1.996 . S
O58 C52 1.255 . S
C59 O63 1.295 . S
C59 O64 1.235 . S
O60 Fe45 1.976 . S
O60 C54 1.287 . S
O61 Fe47 1.996 . S
O61 C54 1.255 . S
C62 O55 1.287 . S
C62 O56 1.255 . S
O63 Fe45 2.002 1_556 S
O63 C59 1.295 . S
O64 Fe47 1.997 1_556 S
O64 C59 1.235 . S
C65 O48 1.295 . S
C65 O49 1.235 . S
Fe66 O68 1.918 . S
Fe66 O71 1.997 1_554 S
Fe66 O72 2.002 1_554 S
Fe66 O77 1.976 . S
Fe66 O80 1.996 . S
Fe67 O68 1.918 . S
Fe67 O75 1.997 1_554 S
Fe67 O78 1.996 . S
Fe67 O82 1.976 . S
Fe67 O85 2.002 1_554 S
O68 Fe66 1.918 . S
O68 Fe67 1.918 . S
O68 Fe69 1.918 . S
Fe69 O68 1.918 . S
Fe69 O70 2.002 1_554 S
Fe69 O79 1.976 . S
Fe69 O83 1.996 . S
Fe69 O86 1.997 1_554 S
O70 Fe69 2.002 1_556 S
O70 C87 1.295 . S
O71 Fe66 1.997 1_556 S
O71 C87 1.235 . S
O72 Fe66 2.002 1_556 S
O72 C73 1.295 . S
C73 O72 1.295 . S
C73 O75 1.235 . S
C74 O79 1.287 . S
C74 O80 1.255 . S
O75 Fe67 1.997 1_556 S
O75 C73 1.235 . S
C76 O82 1.287 . S
C76 O83 1.255 . S
O77 Fe66 1.976 . S
O77 C84 1.287 . S
O78 Fe67 1.996 . S
O78 C84 1.255 . S
O79 Fe69 1.976 . S
O79 C74 1.287 . S
O80 Fe66 1.996 . S
O80 C74 1.255 . S
C81 O85 1.295 . S
C81 O86 1.235 . S
O82 Fe67 1.976 . S
O82 C76 1.287 . S
O83 Fe69 1.996 . S
O83 C76 1.255 . S
C84 O77 1.287 . S
C84 O78 1.255 . S
O85 Fe67 2.002 1_556 S
O85 C81 1.295 . S
O86 Fe69 1.997 1_556 S
O86 C81 1.235 . S
C87 O70 1.295 . S
C87 O71 1.235 . S
Fe88 O90 1.918 . S
Fe88 O93 1.997 1_554 S
Fe88 O94 2.002 1_554 S
Fe88 O99 1.976 . S
Fe88 O102 1.996 . S
Fe89 O90 1.918 . S
Fe89 O97 1.997 1_554 S
Fe89 O100 1.996 . S
Fe89 O104 1.976 . S
Fe89 O107 2.002 1_554 S
O90 Fe88 1.918 . S
O90 Fe89 1.918 . S
O90 Fe91 1.918 . S
Fe91 O90 1.918 . S
Fe91 O92 2.002 1_554 S
Fe91 O101 1.976 . S
Fe91 O105 1.996 . S
Fe91 O108 1.997 1_554 S
O92 Fe91 2.002 1_556 S
O92 C109 1.295 . S
O93 Fe88 1.997 1_556 S
O93 C109 1.235 . S
O94 Fe88 2.002 1_556 S
O94 C95 1.295 . S
C95 O94 1.295 . S
C95 O97 1.235 . S
C96 O101 1.287 . S
C96 O102 1.255 . S
O97 Fe89 1.997 1_556 S
O97 C95 1.235 . S
C98 O104 1.287 . S
C98 O105 1.255 . S
O99 Fe88 1.976 . S
O99 C106 1.287 . S
O100 Fe89 1.996 . S
O100 C106 1.255 . S
O101 Fe91 1.976 . S
O101 C96 1.287 . S
O102 Fe88 1.996 . S
O102 C96 1.255 . S
C103 O107 1.295 . S
C103 O108 1.235 . S
O104 Fe89 1.976 . S
O104 C98 1.287 . S
O105 Fe91 1.996 . S
O105 C98 1.255 . S
C106 O99 1.287 . S
C106 O100 1.255 . S
O107 Fe89 2.002 1_556 S
O107 C103 1.295 . S
O108 Fe91 1.997 1_556 S
O108 C103 1.235 . S
C109 O92 1.295 . S
C109 O93 1.235 . S
Fe110 O112 1.918 . S
Fe110 O115 1.997 1_554 S
Fe110 O116 2.002 1_554 S
Fe110 O121 1.976 . S
Fe110 O124 1.996 . S
Fe111 O112 1.918 . S
Fe111 O119 1.997 1_554 S
Fe111 O122 1.996 . S
Fe111 O126 1.976 . S
Fe111 O129 2.002 1_554 S
O112 Fe110 1.918 . S
O112 Fe111 1.918 . S
O112 Fe113 1.918 . S
Fe113 O112 1.918 . S
Fe113 O114 2.002 1_554 S
Fe113 O123 1.976 . S
Fe113 O127 1.996 . S
Fe113 O130 1.997 1_554 S
O114 Fe113 2.002 1_556 S
O114 C131 1.295 . S
O115 Fe110 1.997 1_556 S
O115 C131 1.235 . S
O116 Fe110 2.002 1_556 S
O116 C117 1.295 . S
C117 O116 1.295 . S
C117 O119 1.235 . S
C118 O123 1.287 . S
C118 O124 1.255 . S
O119 Fe111 1.997 1_556 S
O119 C117 1.235 . S
C120 O126 1.287 . S
C120 O127 1.255 . S
O121 Fe110 1.976 . S
O121 C128 1.287 . S
O122 Fe111 1.996 . S
O122 C128 1.255 . S
O123 Fe113 1.976 . S
O123 C118 1.287 . S
O124 Fe110 1.996 . S
O124 C118 1.255 . S
C125 O129 1.295 . S
C125 O130 1.235 . S
O126 Fe111 1.976 . S
O126 C120 1.287 . S
O127 Fe113 1.996 . S
O127 C120 1.255 . S
C128 O121 1.287 . S
C128 O122 1.255 . S
O129 Fe111 2.002 1_556 S
O129 C125 1.295 . S
O130 Fe113 1.997 1_556 S
O130 C125 1.235 . S
C131 O114 1.295 . S
C131 O115 1.235 . S
Fe132 O134 1.918 . S
Fe132 O137 1.997 . S
Fe132 O138 2.002 . S
Fe132 O143 1.976 . S
Fe132 O146 1.996 . S
Fe133 O134 1.918 . S
Fe133 O141 1.997 . S
Fe133 O144 1.996 . S
Fe133 O148 1.976 . S
Fe133 O151 2.002 . S
O134 Fe132 1.918 . S
O134 Fe133 1.918 . S
O134 Fe135 1.918 . S
Fe135 O134 1.918 . S
Fe135 O136 2.002 . S
Fe135 O145 1.976 . S
Fe135 O149 1.996 . S
Fe135 O152 1.997 . S
O136 Fe135 2.002 . S
O136 C153 1.295 . S
O137 Fe132 1.997 . S
O137 C153 1.235 . S
O138 Fe132 2.002 . S
O138 C139 1.295 . S
C139 O138 1.295 . S
C139 O141 1.235 . S
C140 O145 1.287 . S
C140 O146 1.255 . S
O141 Fe133 1.997 . S
O141 C139 1.235 . S
C142 O148 1.287 . S
C142 O149 1.255 . S
O143 Fe132 1.976 . S
O143 C150 1.287 . S
O144 Fe133 1.996 . S
O144 C150 1.255 . S
O145 Fe135 1.976 . S
O145 C140 1.287 . S
O146 Fe132 1.996 . S
O146 C140 1.255 . S
C147 O151 1.295 . S
C147 O152 1.235 . S
O148 Fe133 1.976 . S
O148 C142 1.287 . S
O149 Fe135 1.996 . S
O149 C142 1.255 . S
C150 O143 1.287 . S
C150 O144 1.255 . S
O151 Fe133 2.002 . S
O151 C147 1.295 . S
O152 Fe135 1.997 . S
O152 C147 1.235 . S
C153 O136 1.295 . S
C153 O137 1.235 . S
Fe154 O156 1.918 . S
Fe154 O159 1.997 . S
Fe154 O160 2.002 . S
Fe154 O165 1.976 . S
Fe154 O168 1.996 . S
Fe155 O156 1.918 . S
Fe155 O163 1.997 . S
Fe155 O166 1.996 . S
Fe155 O170 1.976 . S
Fe155 O173 2.002 . S
O156 Fe154 1.918 . S
O156 Fe155 1.918 . S
O156 Fe157 1.918 . S
Fe157 O156 1.918 . S
Fe157 O158 2.002 . S
Fe157 O167 1.976 . S
Fe157 O171 1.996 . S
Fe157 O174 1.997 . S
O158 Fe157 2.002 . S
O158 C175 1.295 . S
O159 Fe154 1.997 . S
O159 C175 1.235 . S
O160 Fe154 2.002 . S
O160 C161 1.295 . S
C161 O160 1.295 . S
C161 O163 1.235 . S
C162 O167 1.287 . S
C162 O168 1.255 . S
O163 Fe155 1.997 . S
O163 C161 1.235 . S
C164 O170 1.287 . S
C164 O171 1.255 . S
O165 Fe154 1.976 . S
O165 C172 1.287 . S
O166 Fe155 1.996 . S
O166 C172 1.255 . S
O167 Fe157 1.976 . S
O167 C162 1.287 . S
O168 Fe154 1.996 . S
O168 C162 1.255 . S
C169 O173 1.295 . S
C169 O174 1.235 . S
O170 Fe155 1.976 . S
O170 C164 1.287 . S
O171 Fe157 1.996 . S
O171 C164 1.255 . S
C172 O165 1.287 . S
C172 O166 1.255 . S
O173 Fe155 2.002 . S
O173 C169 1.295 . S
O174 Fe157 1.997 . S
O174 C169 1.235 . S
C175 O158 1.295 . S
C175 O159 1.235 . S
Fe176 O178 1.918 . S
Fe176 O181 1.997 . S
Fe176 O182 2.002 . S
Fe176 O187 1.976 . S
Fe176 O190 1.996 . S
Fe177 O178 1.918 . S
Fe177 O185 1.997 . S
Fe177 O188 1.996 . S
Fe177 O192 1.976 . S
Fe177 O195 2.002 . S
O178 Fe176 1.918 . S
O178 Fe177 1.918 . S
O178 Fe179 1.918 . S
Fe179 O178 1.918 . S
Fe179 O180 2.002 . S
Fe179 O189 1.976 . S
Fe179 O193 1.996 . S
Fe179 O196 1.997 . S
O180 Fe179 2.002 . S
O180 C197 1.295 . S
O181 Fe176 1.997 . S
O181 C197 1.235 . S
O182 Fe176 2.002 . S
O182 C183 1.295 . S
C183 O182 1.295 . S
C183 O185 1.235 . S
C184 O189 1.287 . S
C184 O190 1.255 . S
O185 Fe177 1.997 . S
O185 C183 1.235 . S
C186 O192 1.287 . S
C186 O193 1.255 . S
O187 Fe176 1.976 . S
O187 C194 1.287 . S
O188 Fe177 1.996 . S
O188 C194 1.255 . S
O189 Fe179 1.976 . S
O189 C184 1.287 . S
O190 Fe176 1.996 . S
O190 C184 1.255 . S
C191 O195 1.295 . S
C191 O196 1.235 . S
O192 Fe177 1.976 . S
O192 C186 1.287 . S
O193 Fe179 1.996 . S
O193 C186 1.255 . S
C194 O187 1.287 . S
C194 O188 1.255 . S
O195 Fe177 2.002 . S
O195 C191 1.295 . S
O196 Fe179 1.997 . S
O196 C191 1.235 . S
C197 O180 1.295 . S
C197 O181 1.235 . S
Fe198 O200 1.918 . S
Fe198 O203 1.997 . S
Fe198 O204 2.002 . S
Fe198 O209 1.976 . S
Fe198 O212 1.996 . S
Fe199 O200 1.918 . S
Fe199 O207 1.997 . S
Fe199 O210 1.996 . S
Fe199 O214 1.976 . S
Fe199 O217 2.002 . S
O200 Fe198 1.918 . S
O200 Fe199 1.918 . S
O200 Fe201 1.918 . S
Fe201 O200 1.918 . S
Fe201 O202 2.002 . S
Fe201 O211 1.976 . S
Fe201 O215 1.996 . S
Fe201 O218 1.997 . S
O202 Fe201 2.002 . S
O202 C219 1.295 . S
O203 Fe198 1.997 . S
O203 C219 1.235 . S
O204 Fe198 2.002 . S
O204 C205 1.295 . S
C205 O204 1.295 . S
C205 O207 1.235 . S
C206 O211 1.287 . S
C206 O212 1.255 . S
O207 Fe199 1.997 . S
O207 C205 1.235 . S
C208 O214 1.287 . S
C208 O215 1.255 . S
O209 Fe198 1.976 . S
O209 C216 1.287 . S
O210 Fe199 1.996 . S
O210 C216 1.255 . S
O211 Fe201 1.976 . S
O211 C206 1.287 . S
O212 Fe198 1.996 . S
O212 C206 1.255 . S
C213 O217 1.295 . S
C213 O218 1.235 . S
O214 Fe199 1.976 . S
O214 C208 1.287 . S
O215 Fe201 1.996 . S
O215 C208 1.255 . S
C216 O209 1.287 . S
C216 O210 1.255 . S
O217 Fe199 2.002 . S
O217 C213 1.295 . S
O218 Fe201 1.997 . S
O218 C213 1.235 . S
C219 O202 1.295 . S
C219 O203 1.235 . S
Fe220 O222 1.918 . S
Fe220 O225 1.997 . S
Fe220 O226 2.002 . S
Fe220 O231 1.976 . S
Fe220 O234 1.996 . S
Fe221 O222 1.918 . S
Fe221 O229 1.997 . S
Fe221 O232 1.996 . S
Fe221 O236 1.976 . S
Fe221 O239 2.002 . S
O222 Fe220 1.918 . S
O222 Fe221 1.918 . S
O222 Fe223 1.918 . S
Fe223 O222 1.918 . S
Fe223 O224 2.002 . S
Fe223 O233 1.976 . S
Fe223 O237 1.996 . S
Fe223 O240 1.997 . S
O224 Fe223 2.002 . S
O224 C241 1.295 . S
O225 Fe220 1.997 . S
O225 C241 1.235 . S
O226 Fe220 2.002 . S
O226 C227 1.295 . S
C227 O226 1.295 . S
C227 O229 1.235 . S
C228 O233 1.287 . S
C228 O234 1.255 . S
O229 Fe221 1.997 . S
O229 C227 1.235 . S
C230 O236 1.287 . S
C230 O237 1.255 . S
O231 Fe220 1.976 . S
O231 C238 1.287 . S
O232 Fe221 1.996 . S
O232 C238 1.255 . S
O233 Fe223 1.976 . S
O233 C228 1.287 . S
O234 Fe220 1.996 . S
O234 C228 1.255 . S
C235 O239 1.295 . S
C235 O240 1.235 . S
O236 Fe221 1.976 . S
O236 C230 1.287 . S
O237 Fe223 1.996 . S
O237 C230 1.255 . S
C238 O231 1.287 . S
C238 O232 1.255 . S
O239 Fe221 2.002 . S
O239 C235 1.295 . S
O240 Fe223 1.997 . S
O240 C235 1.235 . S
C241 O224 1.295 . S
C241 O225 1.235 . S
Fe242 O244 1.918 . S
Fe242 O247 1.997 . S
Fe242 O248 2.002 . S
Fe242 O253 1.976 . S
Fe242 O256 1.996 . S
Fe243 O244 1.918 . S
Fe243 O251 1.997 . S
Fe243 O254 1.996 . S
Fe243 O258 1.976 . S
Fe243 O261 2.002 . S
O244 Fe242 1.918 . S
O244 Fe243 1.918 . S
O244 Fe245 1.918 . S
Fe245 O244 1.918 . S
Fe245 O246 2.002 . S
Fe245 O255 1.976 . S
Fe245 O259 1.996 . S
Fe245 O262 1.997 . S
O246 Fe245 2.002 . S
O246 C263 1.295 . S
O247 Fe242 1.997 . S
O247 C263 1.235 . S
O248 Fe242 2.002 . S
O248 C249 1.295 . S
C249 O248 1.295 . S
C249 O251 1.235 . S
C250 O255 1.287 . S
C250 O256 1.255 . S
O251 Fe243 1.997 . S
O251 C249 1.235 . S
C252 O258 1.287 . S
C252 O259 1.255 . S
O253 Fe242 1.976 . S
O253 C260 1.287 . S
O254 Fe243 1.996 . S
O254 C260 1.255 . S
O255 Fe245 1.976 . S
O255 C250 1.287 . S
O256 Fe242 1.996 . S
O256 C250 1.255 . S
C257 O261 1.295 . S
C257 O262 1.235 . S
O258 Fe243 1.976 . S
O258 C252 1.287 . S
O259 Fe245 1.996 . S
O259 C252 1.255 . S
C260 O253 1.287 . S
C260 O254 1.255 . S
O261 Fe243 2.002 . S
O261 C257 1.295 . S
O262 Fe245 1.997 . S
O262 C257 1.235 . S
C263 O246 1.295 . S
C263 O247 1.235 . S
H264 C272 0.950 . S
H265 C277 0.950 . S
H266 C274 0.950 . S
H267 C276 0.950 . S
H268 C278 0.950 . S
H269 C280 0.950 . S
H270 C282 0.950 . S
H271 C283 0.950 . S
C272 H264 0.950 . S
C272 C273 1.386 . S
C272 C274 1.391 . S
C273 C272 1.386 . S
C273 C277 1.393 . S
C274 H266 0.950 . S
C274 C272 1.391 . S
C274 C275 1.400 . S
C275 C274 1.400 . S
C275 C276 1.398 . S
C275 C281 1.491 . S
C276 H267 0.950 . S
C276 C275 1.398 . S
C276 C277 1.391 . S
C277 H265 0.950 . S
C277 C273 1.393 . S
C277 C276 1.391 . S
C278 H268 0.950 . S
C278 C279 1.386 . S
C278 C280 1.391 . S
C279 C278 1.386 . S
C279 C283 1.393 . S
C280 H269 0.950 . S
C280 C278 1.391 . S
C280 C281 1.400 . S
C281 C275 1.491 . S
C281 C280 1.400 . S
C281 C282 1.398 . S
C282 H270 0.950 . S
C282 C281 1.398 . S
C282 C283 1.391 . S
C283 H271 0.950 . S
C283 C279 1.393 . S
C283 C282 1.391 . S
H284 C292 0.950 . S
H285 C297 0.950 . S
H286 C294 0.950 . S
H287 C296 0.950 . S
H288 C298 0.950 . S
H289 C300 0.950 . S
H290 C302 0.950 . S
H291 C303 0.950 . S
C292 H284 0.950 . S
C292 C293 1.386 . S
C292 C294 1.391 . S
C293 C292 1.386 . S
C293 C297 1.393 . S
C294 H286 0.950 . S
C294 C292 1.391 . S
C294 C295 1.400 . S
C295 C294 1.400 . S
C295 C296 1.398 . S
C295 C301 1.491 . S
C296 H287 0.950 . S
C296 C295 1.398 . S
C296 C297 1.391 . S
C297 H285 0.950 . S
C297 C293 1.393 . S
C297 C296 1.391 . S
C298 H288 0.950 . S
C298 C299 1.386 . S
C298 C300 1.391 . S
C299 C298 1.386 . S
C299 C303 1.393 . S
C300 H289 0.950 . S
C300 C298 1.391 . S
C300 C301 1.400 . S
C301 C295 1.491 . S
C301 C300 1.400 . S
C301 C302 1.398 . S
C302 H290 0.950 . S
C302 C301 1.398 . S
C302 C303 1.391 . S
C303 H291 0.950 . S
C303 C299 1.393 . S
C303 C302 1.391 . S
H304 C312 0.950 . S
H305 C317 0.950 . S
H306 C314 0.950 . S
H307 C316 0.950 . S
H308 C318 0.950 . S
H309 C320 0.950 . S
H310 C322 0.950 . S
H311 C323 0.950 . S
C312 H304 0.950 . S
C312 C313 1.386 . S
C312 C314 1.391 . S
C313 C312 1.386 . S
C313 C317 1.393 . S
C314 H306 0.950 . S
C314 C312 1.391 . S
C314 C315 1.400 . S
C315 C314 1.400 . S
C315 C316 1.398 . S
C315 C321 1.491 . S
C316 H307 0.950 . S
C316 C315 1.398 . S
C316 C317 1.391 . S
C317 H305 0.950 . S
C317 C313 1.393 . S
C317 C316 1.391 . S
C318 H308 0.950 . S
C318 C319 1.386 . S
C318 C320 1.391 . S
C319 C318 1.386 . S
C319 C323 1.393 . S
C320 H309 0.950 . S
C320 C318 1.391 . S
C320 C321 1.400 . S
C321 C315 1.491 . S
C321 C320 1.400 . S
C321 C322 1.398 . S
C322 H310 0.950 . S
C322 C321 1.398 . S
C322 C323 1.391 . S
C323 H311 0.950 . S
C323 C319 1.393 . S
C323 C322 1.391 . S
H324 C332 0.950 . S
H325 C337 0.950 . S
H326 C334 0.950 . S
H327 C336 0.950 . S
H328 C338 0.950 . S
H329 C340 0.950 . S
H330 C342 0.950 . S
H331 C343 0.950 . S
C332 H324 0.950 . S
C332 C333 1.386 . S
C332 C334 1.391 . S
C333 C332 1.386 . S
C333 C337 1.393 . S
C334 H326 0.950 . S
C334 C332 1.391 . S
C334 C335 1.400 . S
C335 C334 1.400 . S
C335 C336 1.398 . S
C335 C341 1.491 . S
C336 H327 0.950 . S
C336 C335 1.398 . S
C336 C337 1.391 . S
C337 H325 0.950 . S
C337 C333 1.393 . S
C337 C336 1.391 . S
C338 H328 0.950 . S
C338 C339 1.386 . S
C338 C340 1.391 . S
C339 C338 1.386 . S
C339 C343 1.393 . S
C340 H329 0.950 . S
C340 C338 1.391 . S
C340 C341 1.400 . S
C341 C335 1.491 . S
C341 C340 1.400 . S
C341 C342 1.398 . S
C342 H330 0.950 . S
C342 C341 1.398 . S
C342 C343 1.391 . S
C343 H331 0.950 . S
C343 C339 1.393 . S
C343 C342 1.391 . S
H344 C352 0.950 . S
H345 C357 0.950 . S
H346 C354 0.950 . S
H347 C356 0.950 . S
H348 C358 0.950 . S
H349 C360 0.950 . S
H350 C362 0.950 . S
H351 C363 0.950 . S
C352 H344 0.950 . S
C352 C353 1.386 . S
C352 C354 1.391 . S
C353 C352 1.386 . S
C353 C357 1.393 . S
C354 H346 0.950 . S
C354 C352 1.391 . S
C354 C355 1.400 . S
C355 C354 1.400 . S
C355 C356 1.398 . S
C355 C361 1.491 . S
C356 H347 0.950 . S
C356 C355 1.398 . S
C356 C357 1.391 . S
C357 H345 0.950 . S
C357 C353 1.393 . S
C357 C356 1.391 . S
C358 H348 0.950 . S
C358 C359 1.386 . S
C358 C360 1.391 . S
C359 C358 1.386 . S
C359 C363 1.393 . S
C360 H349 0.950 . S
C360 C358 1.391 . S
C360 C361 1.400 . S
C361 C355 1.491 . S
C361 C360 1.400 . S
C361 C362 1.398 . S
C362 H350 0.950 . S
C362 C361 1.398 . S
C362 C363 1.391 . S
C363 H351 0.950 . S
C363 C359 1.393 . S
C363 C362 1.391 . S
H364 C372 0.950 . S
H365 C377 0.950 . S
H366 C374 0.950 . S
H367 C376 0.950 . S
H368 C378 0.950 . S
H369 C380 0.950 . S
H370 C382 0.950 . S
H371 C383 0.950 . S
C372 H364 0.950 . S
C372 C373 1.386 . S
C372 C374 1.391 . S
C373 C372 1.386 . S
C373 C377 1.393 . S
C374 H366 0.950 . S
C374 C372 1.391 . S
C374 C375 1.400 . S
C375 C374 1.400 . S
C375 C376 1.398 . S
C375 C381 1.491 . S
C376 H367 0.950 . S
C376 C375 1.398 . S
C376 C377 1.391 . S
C377 H365 0.950 . S
C377 C373 1.393 . S
C377 C376 1.391 . S
C378 H368 0.950 . S
C378 C379 1.386 . S
C378 C380 1.391 . S
C379 C378 1.386 . S
C379 C383 1.393 . S
C380 H369 0.950 . S
C380 C378 1.391 . S
C380 C381 1.400 . S
C381 C375 1.491 . S
C381 C380 1.400 . S
C381 C382 1.398 . S
C382 H370 0.950 . S
C382 C381 1.398 . S
C382 C383 1.391 . S
C383 H371 0.950 . S
C383 C379 1.393 . S
C383 C382 1.391 . S
H384 C392 0.950 . S
H385 C397 0.950 . S
H386 C394 0.950 . S
H387 C396 0.950 . S
H388 C398 0.950 . S
H389 C400 0.950 . S
H390 C402 0.950 . S
H391 C403 0.950 . S
C392 H384 0.950 . S
C392 C393 1.386 . S
C392 C394 1.391 . S
C393 C392 1.386 . S
C393 C397 1.393 . S
C394 H386 0.950 . S
C394 C392 1.391 . S
C394 C395 1.400 . S
C395 C394 1.400 . S
C395 C396 1.398 . S
C395 C401 1.491 . S
C396 H387 0.950 . S
C396 C395 1.398 . S
C396 C397 1.391 . S
C397 H385 0.950 . S
C397 C393 1.393 . S
C397 C396 1.391 . S
C398 H388 0.950 . S
C398 C399 1.386 . S
C398 C400 1.391 . S
C399 C398 1.386 . S
C399 C403 1.393 . S
C400 H389 0.950 . S
C400 C398 1.391 . S
C400 C401 1.400 . S
C401 C395 1.491 . S
C401 C400 1.400 . S
C401 C402 1.398 . S
C402 H390 0.950 . S
C402 C401 1.398 . S
C402 C403 1.391 . S
C403 H391 0.950 . S
C403 C399 1.393 . S
C403 C402 1.391 . S
H404 C412 0.950 . S
H405 C417 0.950 . S
H406 C414 0.950 . S
H407 C416 0.950 . S
H408 C418 0.950 . S
H409 C420 0.950 . S
H410 C422 0.950 . S
H411 C423 0.950 . S
C412 H404 0.950 . S
C412 C413 1.386 . S
C412 C414 1.391 . S
C413 C412 1.386 . S
C413 C417 1.393 . S
C414 H406 0.950 . S
C414 C412 1.391 . S
C414 C415 1.400 . S
C415 C414 1.400 . S
C415 C416 1.398 . S
C415 C421 1.491 . S
C416 H407 0.950 . S
C416 C415 1.398 . S
C416 C417 1.391 . S
C417 H405 0.950 . S
C417 C413 1.393 . S
C417 C416 1.391 . S
C418 H408 0.950 . S
C418 C419 1.386 . S
C418 C420 1.391 . S
C419 C418 1.386 . S
C419 C423 1.393 . S
C420 H409 0.950 . S
C420 C418 1.391 . S
C420 C421 1.400 . S
C421 C415 1.491 . S
C421 C420 1.400 . S
C421 C422 1.398 . S
C422 H410 0.950 . S
C422 C421 1.398 . S
C422 C423 1.391 . S
C423 H411 0.950 . S
C423 C419 1.393 . S
C423 C422 1.391 . S
H424 C432 0.950 . S
H425 C437 0.950 . S
H426 C434 0.950 . S
H427 C436 0.950 . S
H428 C438 0.950 . S
H429 C440 0.950 . S
H430 C442 0.950 . S
H431 C443 0.950 . S
C432 H424 0.950 . S
C432 C433 1.386 . S
C432 C434 1.391 . S
C433 C432 1.386 . S
C433 C437 1.393 . S
C434 H426 0.950 . S
C434 C432 1.391 . S
C434 C435 1.400 . S
C435 C434 1.400 . S
C435 C436 1.398 . S
C435 C441 1.491 . S
C436 H427 0.950 . S
C436 C435 1.398 . S
C436 C437 1.391 . S
C437 H425 0.950 . S
C437 C433 1.393 . S
C437 C436 1.391 . S
C438 H428 0.950 . S
C438 C439 1.386 . S
C438 C440 1.391 . S
C439 C438 1.386 . S
C439 C443 1.393 . S
C440 H429 0.950 . S
C440 C438 1.391 . S
C440 C441 1.400 . S
C441 C435 1.491 . S
C441 C440 1.400 . S
C441 C442 1.398 . S
C442 H430 0.950 . S
C442 C441 1.398 . S
C442 C443 1.391 . S
C443 H431 0.950 . S
C443 C439 1.393 . S
C443 C442 1.391 . S
H444 C452 0.950 . S
H445 C457 0.950 . S
H446 C454 0.950 . S
H447 C456 0.950 . S
H448 C458 0.950 . S
H449 C460 0.950 . S
H450 C462 0.950 . S
H451 C463 0.950 . S
C452 H444 0.950 . S
C452 C453 1.386 . S
C452 C454 1.391 . S
C453 C452 1.386 . S
C453 C457 1.393 . S
C454 H446 0.950 . S
C454 C452 1.391 . S
C454 C455 1.400 . S
C455 C454 1.400 . S
C455 C456 1.398 . S
C455 C461 1.491 . S
C456 H447 0.950 . S
C456 C455 1.398 . S
C456 C457 1.391 . S
C457 H445 0.950 . S
C457 C453 1.393 . S
C457 C456 1.391 . S
C458 H448 0.950 . S
C458 C459 1.386 . S
C458 C460 1.391 . S
C459 C458 1.386 . S
C459 C463 1.393 . S
C460 H449 0.950 . S
C460 C458 1.391 . S
C460 C461 1.400 . S
C461 C455 1.491 . S
C461 C460 1.400 . S
C461 C462 1.398 . S
C462 H450 0.950 . S
C462 C461 1.398 . S
C462 C463 1.391 . S
C463 H451 0.950 . S
C463 C459 1.393 . S
C463 C462 1.391 . S
H464 C472 0.950 . S
H465 C477 0.950 . S
H466 C474 0.950 . S
H467 C476 0.950 . S
H468 C478 0.950 . S
H469 C480 0.950 . S
H470 C482 0.950 . S
H471 C483 0.950 . S
C472 H464 0.950 . S
C472 C473 1.386 . S
C472 C474 1.391 . S
C473 C472 1.386 . S
C473 C477 1.393 . S
C474 H466 0.950 . S
C474 C472 1.391 . S
C474 C475 1.400 . S
C475 C474 1.400 . S
C475 C476 1.398 . S
C475 C481 1.491 . S
C476 H467 0.950 . S
C476 C475 1.398 . S
C476 C477 1.391 . S
C477 H465 0.950 . S
C477 C473 1.393 . S
C477 C476 1.391 . S
C478 H468 0.950 . S
C478 C479 1.386 . S
C478 C480 1.391 . S
C479 C478 1.386 . S
C479 C483 1.393 . S
C480 H469 0.950 . S
C480 C478 1.391 . S
C480 C481 1.400 . S
C481 C475 1.491 . S
C481 C480 1.400 . S
C481 C482 1.398 . S
C482 H470 0.950 . S
C482 C481 1.398 . S
C482 C483 1.391 . S
C483 H471 0.950 . S
C483 C479 1.393 . S
C483 C482 1.391 . S
H484 C492 0.950 . S
H485 C497 0.950 . S
H486 C494 0.950 . S
H487 C496 0.950 . S
H488 C498 0.950 . S
H489 C500 0.950 . S
H490 C502 0.950 . S
H491 C503 0.950 . S
C492 H484 0.950 . S
C492 C493 1.386 . S
C492 C494 1.391 . S
C493 C492 1.386 . S
C493 C497 1.393 . S
C494 H486 0.950 . S
C494 C492 1.391 . S
C494 C495 1.400 . S
C495 C494 1.400 . S
C495 C496 1.398 . S
C495 C501 1.491 . S
C496 H487 0.950 . S
C496 C495 1.398 . S
C496 C497 1.391 . S
C497 H485 0.950 . S
C497 C493 1.393 . S
C497 C496 1.391 . S
C498 H488 0.950 . S
C498 C499 1.386 . S
C498 C500 1.391 . S
C499 C498 1.386 . S
C499 C503 1.393 . S
C500 H489 0.950 . S
C500 C498 1.391 . S
C500 C501 1.400 . S
C501 C495 1.491 . S
C501 C500 1.400 . S
C501 C502 1.398 . S
C502 H490 0.950 . S
C502 C501 1.398 . S
C502 C503 1.391 . S
C503 H491 0.950 . S
C503 C499 1.393 . S
C503 C502 1.391 . S
H504 C512 0.950 . S
H505 C517 0.950 . S
H506 C514 0.950 1_545 S
H507 C516 0.950 . S
H508 C518 0.950 . S
H509 C520 0.950 1_565 S
H510 C522 0.950 . S
H511 C523 0.950 . S
C512 H504 0.950 . S
C512 C513 1.386 . S
C512 C514 1.391 . S
C513 C512 1.386 . S
C513 C517 1.393 . S
C514 H506 0.950 1_565 S
C514 C512 1.391 . S
C514 C515 1.400 . S
C515 C514 1.400 . S
C515 C516 1.398 . S
C515 C521 1.491 1_565 S
C516 H507 0.950 . S
C516 C515 1.398 . S
C516 C517 1.391 . S
C517 H505 0.950 . S
C517 C513 1.393 . S
C517 C516 1.391 . S
C518 H508 0.950 . S
C518 C519 1.386 . S
C518 C520 1.391 . S
C519 C518 1.386 . S
C519 C523 1.393 . S
C520 H509 0.950 1_545 S
C520 C518 1.391 . S
C520 C521 1.400 . S
C521 C515 1.491 1_545 S
C521 C520 1.400 . S
C521 C522 1.398 . S
C522 H510 0.950 . S
C522 C521 1.398 . S
C522 C523 1.391 . S
C523 H511 0.950 . S
C523 C519 1.393 . S
C523 C522 1.391 . S
H524 C532 0.950 . S
H525 C537 0.950 . S
H526 C534 0.950 . S
H527 C536 0.950 . S
H528 C538 0.950 . S
H529 C540 0.950 . S
H530 C542 0.950 . S
H531 C543 0.950 . S
C532 H524 0.950 . S
C532 C533 1.386 . S
C532 C534 1.391 . S
C533 C532 1.386 . S
C533 C537 1.393 . S
C534 H526 0.950 . S
C534 C532 1.391 . S
C534 C535 1.400 . S
C535 C534 1.400 . S
C535 C536 1.398 . S
C535 C541 1.491 . S
C536 H527 0.950 . S
C536 C535 1.398 . S
C536 C537 1.391 . S
C537 H525 0.950 . S
C537 C533 1.393 . S
C537 C536 1.391 . S
C538 H528 0.950 . S
C538 C539 1.386 . S
C538 C540 1.391 . S
C539 C538 1.386 . S
C539 C543 1.393 . S
C540 H529 0.950 . S
C540 C538 1.391 . S
C540 C541 1.400 . S
C541 C535 1.491 . S
C541 C540 1.400 . S
C541 C542 1.398 . S
C542 H530 0.950 . S
C542 C541 1.398 . S
C542 C543 1.391 . S
C543 H531 0.950 . S
C543 C539 1.393 . S
C543 C542 1.391 . S
H544 C552 0.950 . S
H545 C557 0.950 . S
H546 C554 0.950 . S
H547 C556 0.950 . S
H548 C558 0.950 . S
H549 C560 0.950 . S
H550 C562 0.950 . S
H551 C563 0.950 . S
C552 H544 0.950 . S
C552 C553 1.386 . S
C552 C554 1.391 . S
C553 C552 1.386 . S
C553 C557 1.393 . S
C554 H546 0.950 . S
C554 C552 1.391 . S
C554 C555 1.400 . S
C555 C554 1.400 . S
C555 C556 1.398 . S
C555 C561 1.491 1_455 S
C556 H547 0.950 . S
C556 C555 1.398 . S
C556 C557 1.391 . S
C557 H545 0.950 . S
C557 C553 1.393 . S
C557 C556 1.391 . S
C558 H548 0.950 . S
C558 C559 1.386 . S
C558 C560 1.391 . S
C559 C558 1.386 . S
C559 C563 1.393 . S
C560 H549 0.950 . S
C560 C558 1.391 . S
C560 C561 1.400 . S
C561 C555 1.491 1_655 S
C561 C560 1.400 . S
C561 C562 1.398 . S
C562 H550 0.950 . S
C562 C561 1.398 . S
C562 C563 1.391 . S
C563 H551 0.950 . S
C563 C559 1.393 . S
C563 C562 1.391 . S
H564 C572 0.950 . S
H565 C577 0.950 . S
H566 C574 0.950 . S
H567 C576 0.950 . S
H568 C578 0.950 . S
H569 C580 0.950 . S
H570 C582 0.950 . S
H571 C583 0.950 . S
C572 H564 0.950 . S
C572 C573 1.386 . S
C572 C574 1.391 . S
C573 C572 1.386 . S
C573 C577 1.393 . S
C574 H566 0.950 . S
C574 C572 1.391 . S
C574 C575 1.400 . S
C575 C574 1.400 . S
C575 C576 1.398 . S
C575 C581 1.491 1_565 S
C576 H567 0.950 . S
C576 C575 1.398 . S
C576 C577 1.391 . S
C577 H565 0.950 . S
C577 C573 1.393 . S
C577 C576 1.391 . S
C578 H568 0.950 . S
C578 C579 1.386 . S
C578 C580 1.391 . S
C579 C578 1.386 . S
C579 C583 1.393 . S
C580 H569 0.950 . S
C580 C578 1.391 . S
C580 C581 1.400 . S
C581 C575 1.491 1_545 S
C581 C580 1.400 . S
C581 C582 1.398 . S
C582 H570 0.950 . S
C582 C581 1.398 . S
C582 C583 1.391 . S
C583 H571 0.950 . S
C583 C579 1.393 . S
C583 C582 1.391 . S
H584 C592 0.950 . S
H585 C597 0.950 . S
H586 C594 0.950 . S
H587 C596 0.950 . S
H588 C598 0.950 . S
H589 C600 0.950 . S
H590 C602 0.950 . S
H591 C603 0.950 . S
C592 H584 0.950 . S
C592 C593 1.386 . S
C592 C594 1.391 . S
C593 C592 1.386 . S
C593 C597 1.393 . S
C594 H586 0.950 . S
C594 C592 1.391 . S
C594 C595 1.400 . S
C595 C594 1.400 . S
C595 C596 1.398 . S
C595 C601 1.491 . S
C596 H587 0.950 . S
C596 C595 1.398 . S
C596 C597 1.391 . S
C597 H585 0.950 . S
C597 C593 1.393 . S
C597 C596 1.391 . S
C598 H588 0.950 . S
C598 C599 1.386 . S
C598 C600 1.391 . S
C599 C598 1.386 . S
C599 C603 1.393 . S
C600 H589 0.950 . S
C600 C598 1.391 . S
C600 C601 1.400 . S
C601 C595 1.491 . S
C601 C600 1.400 . S
C601 C602 1.398 . S
C602 H590 0.950 . S
C602 C601 1.398 . S
C602 C603 1.391 . S
C603 H591 0.950 . S
C603 C599 1.393 . S
C603 C602 1.391 . S
H604 C612 0.950 . S
H605 C617 0.950 . S
H606 C614 0.950 . S
H607 C616 0.950 . S
H608 C618 0.950 . S
H609 C620 0.950 . S
H610 C622 0.950 . S
H611 C623 0.950 . S
C612 H604 0.950 . S
C612 C613 1.386 . S
C612 C614 1.391 . S
C613 C612 1.386 . S
C613 C617 1.393 . S
C614 H606 0.950 . S
C614 C612 1.391 . S
C614 C615 1.400 . S
C615 C614 1.400 . S
C615 C616 1.398 . S
C615 C621 1.491 1_655 S
C616 H607 0.950 . S
C616 C615 1.398 . S
C616 C617 1.391 . S
C617 H605 0.950 . S
C617 C613 1.393 . S
C617 C616 1.391 . S
C618 H608 0.950 . S
C618 C619 1.386 . S
C618 C620 1.391 . S
C619 C618 1.386 . S
C619 C623 1.393 . S
C620 H609 0.950 . S
C620 C618 1.391 . S
C620 C621 1.400 . S
C621 C615 1.491 1_455 S
C621 C620 1.400 . S
C621 C622 1.398 . S
C622 H610 0.950 . S
C622 C621 1.398 . S
C622 C623 1.391 . S
C623 H611 0.950 . S
C623 C619 1.393 . S
C623 C622 1.391 . S
H624 C632 0.950 . S
H625 C637 0.950 . S
H626 C634 0.950 1_565 S
H627 C636 0.950 . S
H628 C638 0.950 . S
H629 C640 0.950 1_545 S
H630 C642 0.950 . S
H631 C643 0.950 . S
C632 H624 0.950 . S
C632 C633 1.386 . S
C632 C634 1.391 . S
C633 C632 1.386 . S
C633 C637 1.393 . S
C634 H626 0.950 1_545 S
C634 C632 1.391 . S
C634 C635 1.400 . S
C635 C634 1.400 . S
C635 C636 1.398 . S
C635 C641 1.491 1_545 S
C636 H627 0.950 . S
C636 C635 1.398 . S
C636 C637 1.391 . S
C637 H625 0.950 . S
C637 C633 1.393 . S
C637 C636 1.391 . S
C638 H628 0.950 . S
C638 C639 1.386 . S
C638 C640 1.391 . S
C639 C638 1.386 . S
C639 C643 1.393 . S
C640 H629 0.950 1_565 S
C640 C638 1.391 . S
C640 C641 1.400 . S
C641 C635 1.491 1_565 S
C641 C640 1.400 . S
C641 C642 1.398 . S
C642 H630 0.950 . S
C642 C641 1.398 . S
C642 C643 1.391 . S
C643 H631 0.950 . S
C643 C639 1.393 . S
C643 C642 1.391 . S
H644 C652 0.950 . S
H645 C657 0.950 . S
H646 C654 0.950 . S
H647 C656 0.950 . S
H648 C658 0.950 . S
H649 C660 0.950 . S
H650 C662 0.950 . S
H651 C663 0.950 . S
C652 H644 0.950 . S
C652 C653 1.386 . S
C652 C654 1.391 . S
C653 C652 1.386 . S
C653 C657 1.393 . S
C654 H646 0.950 . S
C654 C652 1.391 . S
C654 C655 1.400 . S
C655 C654 1.400 . S
C655 C656 1.398 . S
C655 C661 1.491 . S
C656 H647 0.950 . S
C656 C655 1.398 . S
C656 C657 1.391 . S
C657 H645 0.950 . S
C657 C653 1.393 . S
C657 C656 1.391 . S
C658 H648 0.950 . S
C658 C659 1.386 . S
C658 C660 1.391 . S
C659 C658 1.386 . S
C659 C663 1.393 . S
C660 H649 0.950 . S
C660 C658 1.391 . S
C660 C661 1.400 . S
C661 C655 1.491 . S
C661 C660 1.400 . S
C661 C662 1.398 . S
C662 H650 0.950 . S
C662 C661 1.398 . S
C662 C663 1.391 . S
C663 H651 0.950 . S
C663 C659 1.393 . S
C663 C662 1.391 . S
H664 C672 0.950 . S
H665 C677 0.950 . S
H666 C674 0.950 . S
H667 C676 0.950 1_455 S
H668 C678 0.950 . S
H669 C680 0.950 . S
H670 C682 0.950 1_655 S
H671 C683 0.950 . S
C672 H664 0.950 . S
C672 C673 1.386 . S
C672 C674 1.391 . S
C673 C672 1.386 . S
C673 C677 1.393 . S
C674 H666 0.950 . S
C674 C672 1.391 . S
C674 C675 1.400 . S
C675 C674 1.400 . S
C675 C676 1.398 . S
C675 C681 1.491 1_655 S
C676 H667 0.950 1_655 S
C676 C675 1.398 . S
C676 C677 1.391 . S
C677 H665 0.950 . S
C677 C673 1.393 . S
C677 C676 1.391 . S
C678 H668 0.950 . S
C678 C679 1.386 . S
C678 C680 1.391 . S
C679 C678 1.386 . S
C679 C683 1.393 . S
C680 H669 0.950 . S
C680 C678 1.391 . S
C680 C681 1.400 . S
C681 C675 1.491 1_455 S
C681 C680 1.400 . S
C681 C682 1.398 . S
C682 H670 0.950 1_455 S
C682 C681 1.398 . S
C682 C683 1.391 . S
C683 H671 0.950 . S
C683 C679 1.393 . S
C683 C682 1.391 . S
H684 C692 0.950 . S
H685 C697 0.950 . S
H686 C694 0.950 . S
H687 C696 0.950 1_545 S
H688 C698 0.950 . S
H689 C700 0.950 . S
H690 C702 0.950 1_565 S
H691 C703 0.950 . S
C692 H684 0.950 . S
C692 C693 1.386 . S
C692 C694 1.391 . S
C693 C692 1.386 . S
C693 C697 1.393 . S
C694 H686 0.950 . S
C694 C692 1.391 . S
C694 C695 1.400 . S
C695 C694 1.400 . S
C695 C696 1.398 . S
C695 C701 1.491 1_565 S
C696 H687 0.950 1_565 S
C696 C695 1.398 . S
C696 C697 1.391 . S
C697 H685 0.950 . S
C697 C693 1.393 . S
C697 C696 1.391 . S
C698 H688 0.950 . S
C698 C699 1.386 . S
C698 C700 1.391 . S
C699 C698 1.386 . S
C699 C703 1.393 . S
C700 H689 0.950 . S
C700 C698 1.391 . S
C700 C701 1.400 . S
C701 C695 1.491 1_545 S
C701 C700 1.400 . S
C701 C702 1.398 . S
C702 H690 0.950 1_545 S
C702 C701 1.398 . S
C702 C703 1.391 . S
C703 H691 0.950 . S
C703 C699 1.393 . S
C703 C702 1.391 . S
H704 C712 0.950 . S
H705 C717 0.950 . S
H706 C714 0.950 . S
H707 C716 0.950 . S
H708 C718 0.950 . S
H709 C720 0.950 . S
H710 C722 0.950 . S
H711 C723 0.950 . S
C712 H704 0.950 . S
C712 C713 1.386 . S
C712 C714 1.391 . S
C713 C712 1.386 . S
C713 C717 1.393 . S
C714 H706 0.950 . S
C714 C712 1.391 . S
C714 C715 1.400 . S
C715 C714 1.400 . S
C715 C716 1.398 . S
C715 C721 1.491 . S
C716 H707 0.950 . S
C716 C715 1.398 . S
C716 C717 1.391 . S
C717 H705 0.950 . S
C717 C713 1.393 . S
C717 C716 1.391 . S
C718 H708 0.950 . S
C718 C719 1.386 . S
C718 C720 1.391 . S
C719 C718 1.386 . S
C719 C723 1.393 . S
C720 H709 0.950 . S
C720 C718 1.391 . S
C720 C721 1.400 . S
C721 C715 1.491 . S
C721 C720 1.400 . S
C721 C722 1.398 . S
C722 H710 0.950 . S
C722 C721 1.398 . S
C722 C723 1.391 . S
C723 H711 0.950 . S
C723 C719 1.393 . S
C723 C722 1.391 . S
H724 C732 0.950 . S
H725 C737 0.950 . S
H726 C734 0.950 . S
H727 C736 0.950 . S
H728 C738 0.950 . S
H729 C740 0.950 . S
H730 C742 0.950 . S
H731 C743 0.950 . S
C732 H724 0.950 . S
C732 C733 1.386 . S
C732 C734 1.391 . S
C733 C732 1.386 . S
C733 C737 1.393 . S
C734 H726 0.950 . S
C734 C732 1.391 . S
C734 C735 1.400 . S
C735 C734 1.400 . S
C735 C736 1.398 . S
C735 C741 1.491 1_655 S
C736 H727 0.950 . S
C736 C735 1.398 . S
C736 C737 1.391 . S
C737 H725 0.950 . S
C737 C733 1.393 . S
C737 C736 1.391 . S
C738 H728 0.950 . S
C738 C739 1.386 . S
C738 C740 1.391 . S
C739 C738 1.386 . S
C739 C743 1.393 . S
C740 H729 0.950 . S
C740 C738 1.391 . S
C740 C741 1.400 . S
C741 C735 1.491 1_455 S
C741 C740 1.400 . S
C741 C742 1.398 . S
C742 H730 0.950 . S
C742 C741 1.398 . S
C742 C743 1.391 . S
C743 H731 0.950 . S
C743 C739 1.393 . S
C743 C742 1.391 . S
H744 C752 0.950 . S
H745 C757 0.950 . S
H746 C754 0.950 . S
H747 C756 0.950 . S
H748 C758 0.950 . S
H749 C760 0.950 . S
H750 C762 0.950 . S
H751 C763 0.950 . S
C752 H744 0.950 . S
C752 C753 1.386 . S
C752 C754 1.391 . S
C753 C752 1.386 . S
C753 C757 1.393 . S
C754 H746 0.950 . S
C754 C752 1.391 . S
C754 C755 1.400 . S
C755 C754 1.400 . S
C755 C756 1.398 . S
C755 C761 1.491 . S
C756 H747 0.950 . S
C756 C755 1.398 . S
C756 C757 1.391 . S
C757 H745 0.950 . S
C757 C753 1.393 . S
C757 C756 1.391 . S
C758 H748 0.950 . S
C758 C759 1.386 . S
C758 C760 1.391 . S
C759 C758 1.386 . S
C759 C763 1.393 . S
C760 H749 0.950 . S
C760 C758 1.391 . S
C760 C761 1.400 . S
C761 C755 1.491 . S
C761 C760 1.400 . S
C761 C762 1.398 . S
C762 H750 0.950 . S
C762 C761 1.398 . S
C762 C763 1.391 . S
C763 H751 0.950 . S
C763 C759 1.393 . S
C763 C762 1.391 . S
H764 C772 0.950 . S
H765 C777 0.950 . S
H766 C774 0.950 . S
H767 C776 0.950 . S
H768 C778 0.950 . S
H769 C780 0.950 . S
H770 C782 0.950 . S
H771 C783 0.950 . S
C772 H764 0.950 . S
C772 C773 1.386 . S
C772 C774 1.391 . S
C773 C772 1.386 . S
C773 C777 1.393 . S
C774 H766 0.950 . S
C774 C772 1.391 . S
C774 C775 1.400 . S
C775 C774 1.400 . S
C775 C776 1.398 . S
C775 C781 1.491 . S
C776 H767 0.950 . S
C776 C775 1.398 . S
C776 C777 1.391 . S
C777 H765 0.950 . S
C777 C773 1.393 . S
C777 C776 1.391 . S
C778 H768 0.950 . S
C778 C779 1.386 . S
C778 C780 1.391 . S
C779 C778 1.386 . S
C779 C783 1.393 . S
C780 H769 0.950 . S
C780 C778 1.391 . S
C780 C781 1.400 . S
C781 C775 1.491 . S
C781 C780 1.400 . S
C781 C782 1.398 . S
C782 H770 0.950 . S
C782 C781 1.398 . S
C782 C783 1.391 . S
C783 H771 0.950 . S
C783 C779 1.393 . S
C783 C782 1.391 . S
H784 C792 0.950 . S
H785 C797 0.950 . S
H786 C794 0.950 . S
H787 C796 0.950 . S
H788 C798 0.950 . S
H789 C800 0.950 . S
H790 C802 0.950 . S
H791 C803 0.950 . S
C792 H784 0.950 . S
C792 C793 1.386 . S
C792 C794 1.391 . S
C793 C792 1.386 . S
C793 C797 1.393 . S
C794 H786 0.950 . S
C794 C792 1.391 . S
C794 C795 1.400 . S
C795 C794 1.400 . S
C795 C796 1.398 . S
C795 C801 1.491 . S
C796 H787 0.950 . S
C796 C795 1.398 . S
C796 C797 1.391 . S
C797 H785 0.950 . S
C797 C793 1.393 . S
C797 C796 1.391 . S
C798 H788 0.950 . S
C798 C799 1.386 . S
C798 C800 1.391 . S
C799 C798 1.386 . S
C799 C803 1.393 . S
C800 H789 0.950 . S
C800 C798 1.391 . S
C800 C801 1.400 . S
C801 C795 1.491 . S
C801 C800 1.400 . S
C801 C802 1.398 . S
C802 H790 0.950 . S
C802 C801 1.398 . S
C802 C803 1.391 . S
C803 H791 0.950 . S
C803 C799 1.393 . S
C803 C802 1.391 . S
H804 C812 0.950 . S
H805 C817 0.950 . S
H806 C814 0.950 . S
H807 C816 0.950 . S
H808 C818 0.950 . S
H809 C820 0.950 . S
H810 C822 0.950 . S
H811 C823 0.950 . S
C812 H804 0.950 . S
C812 C813 1.386 . S
C812 C814 1.391 . S
C813 C812 1.386 . S
C813 C817 1.393 . S
C814 H806 0.950 . S
C814 C812 1.391 . S
C814 C815 1.400 . S
C815 C814 1.400 . S
C815 C816 1.398 . S
C815 C821 1.491 . S
C816 H807 0.950 . S
C816 C815 1.398 . S
C816 C817 1.391 . S
C817 H805 0.950 . S
C817 C813 1.393 . S
C817 C816 1.391 . S
C818 H808 0.950 . S
C818 C819 1.386 . S
C818 C820 1.391 . S
C819 C818 1.386 . S
C819 C823 1.393 . S
C820 H809 0.950 . S
C820 C818 1.391 . S
C820 C821 1.400 . S
C821 C815 1.491 . S
C821 C820 1.400 . S
C821 C822 1.398 . S
C822 H810 0.950 . S
C822 C821 1.398 . S
C822 C823 1.391 . S
C823 H811 0.950 . S
C823 C819 1.393 . S
C823 C822 1.391 . S
H824 C832 0.950 . S
H825 C837 0.950 . S
H826 C834 0.950 . S
H827 C836 0.950 . S
H828 C838 0.950 . S
H829 C840 0.950 . S
H830 C842 0.950 . S
H831 C843 0.950 . S
C832 H824 0.950 . S
C832 C833 1.386 . S
C832 C834 1.391 . S
C833 C832 1.386 . S
C833 C837 1.393 . S
C834 H826 0.950 . S
C834 C832 1.391 . S
C834 C835 1.400 . S
C835 C834 1.400 . S
C835 C836 1.398 . S
C835 C841 1.491 . S
C836 H827 0.950 . S
C836 C835 1.398 . S
C836 C837 1.391 . S
C837 H825 0.950 . S
C837 C833 1.393 . S
C837 C836 1.391 . S
C838 H828 0.950 . S
C838 C839 1.386 . S
C838 C840 1.391 . S
C839 C838 1.386 . S
C839 C843 1.393 . S
C840 H829 0.950 . S
C840 C838 1.391 . S
C840 C841 1.400 . S
C841 C835 1.491 . S
C841 C840 1.400 . S
C841 C842 1.398 . S
C842 H830 0.950 . S
C842 C841 1.398 . S
C842 C843 1.391 . S
C843 H831 0.950 . S
C843 C839 1.393 . S
C843 C842 1.391 . S
H844 C852 0.950 . S
H845 C857 0.950 . S
H846 C854 0.950 . S
H847 C856 0.950 . S
H848 C858 0.950 . S
H849 C860 0.950 . S
H850 C862 0.950 . S
H851 C863 0.950 . S
C852 H844 0.950 . S
C852 C853 1.386 . S
C852 C854 1.391 . S
C853 C852 1.386 . S
C853 C857 1.393 . S
C854 H846 0.950 . S
C854 C852 1.391 . S
C854 C855 1.400 . S
C855 C854 1.400 . S
C855 C856 1.398 . S
C855 C861 1.491 . S
C856 H847 0.950 . S
C856 C855 1.398 . S
C856 C857 1.391 . S
C857 H845 0.950 . S
C857 C853 1.393 . S
C857 C856 1.391 . S
C858 H848 0.950 . S
C858 C859 1.386 . S
C858 C860 1.391 . S
C859 C858 1.386 . S
C859 C863 1.393 . S
C860 H849 0.950 . S
C860 C858 1.391 . S
C860 C861 1.400 . S
C861 C855 1.491 . S
C861 C860 1.400 . S
C861 C862 1.398 . S
C862 H850 0.950 . S
C862 C861 1.398 . S
C862 C863 1.391 . S
C863 H851 0.950 . S
C863 C859 1.393 . S
C863 C862 1.391 . S
H864 C872 0.950 . S
H865 C877 0.950 . S
H866 C874 0.950 . S
H867 C876 0.950 . S
H868 C878 0.950 . S
H869 C880 0.950 . S
H870 C882 0.950 . S
H871 C883 0.950 . S
C872 H864 0.950 . S
C872 C873 1.386 . S
C872 C874 1.391 . S
C873 C872 1.386 . S
C873 C877 1.393 . S
C874 H866 0.950 . S
C874 C872 1.391 . S
C874 C875 1.400 . S
C875 C874 1.400 . S
C875 C876 1.398 . S
C875 C881 1.491 . S
C876 H867 0.950 . S
C876 C875 1.398 . S
C876 C877 1.391 . S
C877 H865 0.950 . S
C877 C873 1.393 . S
C877 C876 1.391 . S
C878 H868 0.950 . S
C878 C879 1.386 . S
C878 C880 1.391 . S
C879 C878 1.386 . S
C879 C883 1.393 . S
C880 H869 0.950 . S
C880 C878 1.391 . S
C880 C881 1.400 . S
C881 C875 1.491 . S
C881 C880 1.400 . S
C881 C882 1.398 . S
C882 H870 0.950 . S
C882 C881 1.398 . S
C882 C883 1.391 . S
C883 H871 0.950 . S
C883 C879 1.393 . S
C883 C882 1.391 . S
H884 C892 0.950 . S
H885 C897 0.950 . S
H886 C894 0.950 . S
H887 C896 0.950 . S
H888 C898 0.950 . S
H889 C900 0.950 . S
H890 C902 0.950 . S
H891 C903 0.950 . S
C892 H884 0.950 . S
C892 C893 1.386 . S
C892 C894 1.391 . S
C893 C892 1.386 . S
C893 C897 1.393 . S
C894 H886 0.950 . S
C894 C892 1.391 . S
C894 C895 1.400 . S
C895 C894 1.400 . S
C895 C896 1.398 . S
C895 C901 1.491 . S
C896 H887 0.950 . S
C896 C895 1.398 . S
C896 C897 1.391 . S
C897 H885 0.950 . S
C897 C893 1.393 . S
C897 C896 1.391 . S
C898 H888 0.950 . S
C898 C899 1.386 . S
C898 C900 1.391 . S
C899 C898 1.386 . S
C899 C903 1.393 . S
C900 H889 0.950 . S
C900 C898 1.391 . S
C900 C901 1.400 . S
C901 C895 1.491 . S
C901 C900 1.400 . S
C901 C902 1.398 . S
C902 H890 0.950 . S
C902 C901 1.398 . S
C902 C903 1.391 . S
C903 H891 0.950 . S
C903 C899 1.393 . S
C903 C902 1.391 . S
H904 C912 0.950 . S
H905 C917 0.950 . S
H906 C914 0.950 . S
H907 C916 0.950 . S
H908 C918 0.950 . S
H909 C920 0.950 . S
H910 C922 0.950 . S
H911 C923 0.950 . S
C912 H904 0.950 . S
C912 C913 1.386 . S
C912 C914 1.391 . S
C913 C912 1.386 . S
C913 C917 1.393 . S
C914 H906 0.950 . S
C914 C912 1.391 . S
C914 C915 1.400 . S
C915 C914 1.400 . S
C915 C916 1.398 . S
C915 C921 1.491 . S
C916 H907 0.950 . S
C916 C915 1.398 . S
C916 C917 1.391 . S
C917 H905 0.950 . S
C917 C913 1.393 . S
C917 C916 1.391 . S
C918 H908 0.950 . S
C918 C919 1.386 . S
C918 C920 1.391 . S
C919 C918 1.386 . S
C919 C923 1.393 . S
C920 H909 0.950 . S
C920 C918 1.391 . S
C920 C921 1.400 . S
C921 C915 1.491 . S
C921 C920 1.400 . S
C921 C922 1.398 . S
C922 H910 0.950 . S
C922 C921 1.398 . S
C922 C923 1.391 . S
C923 H911 0.950 . S
C923 C919 1.393 . S
C923 C922 1.391 . S
H924 C932 0.950 . S
H925 C937 0.950 . S
H926 C934 0.950 . S
H927 C936 0.950 . S
H928 C938 0.950 . S
H929 C940 0.950 . S
H930 C942 0.950 . S
H931 C943 0.950 . S
C932 H924 0.950 . S
C932 C933 1.386 . S
C932 C934 1.391 . S
C933 C932 1.386 . S
C933 C937 1.393 . S
C934 H926 0.950 . S
C934 C932 1.391 . S
C934 C935 1.400 . S
C935 C934 1.400 . S
C935 C936 1.398 . S
C935 C941 1.491 . S
C936 H927 0.950 . S
C936 C935 1.398 . S
C936 C937 1.391 . S
C937 H925 0.950 . S
C937 C933 1.393 . S
C937 C936 1.391 . S
C938 H928 0.950 . S
C938 C939 1.386 . S
C938 C940 1.391 . S
C939 C938 1.386 . S
C939 C943 1.393 . S
C940 H929 0.950 . S
C940 C938 1.391 . S
C940 C941 1.400 . S
C941 C935 1.491 . S
C941 C940 1.400 . S
C941 C942 1.398 . S
C942 H930 0.950 . S
C942 C941 1.398 . S
C942 C943 1.391 . S
C943 H931 0.950 . S
C943 C939 1.393 . S
C943 C942 1.391 . S
H944 C952 0.950 . S
H945 C957 0.950 . S
H946 C954 0.950 . S
H947 C956 0.950 . S
H948 C958 0.950 . S
H949 C960 0.950 . S
H950 C962 0.950 . S
H951 C963 0.950 . S
C952 H944 0.950 . S
C952 C953 1.386 . S
C952 C954 1.391 . S
C953 C952 1.386 . S
C953 C957 1.393 . S
C954 H946 0.950 . S
C954 C952 1.391 . S
C954 C955 1.400 . S
C955 C954 1.400 . S
C955 C956 1.398 . S
C955 C961 1.491 . S
C956 H947 0.950 . S
C956 C955 1.398 . S
C956 C957 1.391 . S
C957 H945 0.950 . S
C957 C953 1.393 . S
C957 C956 1.391 . S
C958 H948 0.950 . S
C958 C959 1.386 . S
C958 C960 1.391 . S
C959 C958 1.386 . S
C959 C963 1.393 . S
C960 H949 0.950 . S
C960 C958 1.391 . S
C960 C961 1.400 . S
C961 C955 1.491 . S
C961 C960 1.400 . S
C961 C962 1.398 . S
C962 H950 0.950 . S
C962 C961 1.398 . S
C962 C963 1.391 . S
C963 H951 0.950 . S
C963 C959 1.393 . S
C963 C962 1.391 . S
H964 C972 0.950 . S
H965 C977 0.950 . S
H966 C974 0.950 . S
H967 C976 0.950 . S
H968 C978 0.950 . S
H969 C980 0.950 . S
H970 C982 0.950 . S
H971 C983 0.950 . S
C972 H964 0.950 . S
C972 C973 1.386 . S
C972 C974 1.391 . S
C973 C972 1.386 . S
C973 C977 1.393 . S
C974 H966 0.950 . S
C974 C972 1.391 . S
C974 C975 1.400 . S
C975 C974 1.400 . S
C975 C976 1.398 . S
C975 C981 1.491 . S
C976 H967 0.950 . S
C976 C975 1.398 . S
C976 C977 1.391 . S
C977 H965 0.950 . S
C977 C973 1.393 . S
C977 C976 1.391 . S
C978 H968 0.950 . S
C978 C979 1.386 . S
C978 C980 1.391 . S
C979 C978 1.386 . S
C979 C983 1.393 . S
C980 H969 0.950 . S
C980 C978 1.391 . S
C980 C981 1.400 . S
C981 C975 1.491 . S
C981 C980 1.400 . S
C981 C982 1.398 . S
C982 H970 0.950 . S
C982 C981 1.398 . S
C982 C983 1.391 . S
C983 H971 0.950 . S
C983 C979 1.393 . S
C983 C982 1.391 . S
C273 C8 1.158 . S
C279 C184 1.163 . S
C293 C216 1.163 . S
C299 C30 1.160 . S
C313 C62 1.163 . S
C319 C228 1.158 . S
C333 C260 1.157 . S
C339 C76 1.164 . S
C353 C98 1.158 . S
C359 C150 1.162 . S
C373 C172 1.157 . S
C379 C120 1.163 . S
C393 C249 1.271 . S
C399 C81 1.275 . S
C413 C103 1.270 . S
C419 C139 1.274 . S
C433 C161 1.275 . S
C439 C125 1.278 . S
C453 C197 1.275 . S
C459 C21 1.271 . S
C473 C205 1.273 . S
C479 C43 1.277 . S
C493 C51 1.267 . S
C499 C241 1.268 . S
C513 C162 1.234 . S
C519 C10 1.247 . S
C533 C186 1.235 . S
C539 C32 1.245 . S
C553 C206 1.242 . S
C559 C52 1.237 . S
C573 C84 1.238 . S
C579 C230 1.241 . S
C593 C106 1.234 . S
C599 C250 1.248 . S
C613 C140 1.239 . S
C619 C128 1.239 . S
C633 C235 1.339 . S
C639 C73 1.325 . S
C653 C95 1.336 . S
C659 C263 1.323 . S
C673 C153 1.322 . S
C679 C117 1.335 . S
C693 C175 1.324 . S
C699 C15 1.337 . S
C713 C37 1.336 . S
C719 C191 1.323 . S
C733 C65 1.337 . S
C739 C219 1.337 . S
C753 C18 1.511 . S
C759 C238 1.518 . S
C773 C40 1.512 . S
C779 C252 1.514 . S
C793 C142 1.516 . S
C799 C54 1.511 . S
C813 C164 1.511 . S
C819 C74 1.517 . S
C833 C96 1.516 . S
C839 C194 1.519 . S
C853 C208 1.515 . S
C859 C118 1.511 . S
C873 C87 1.635 . S
C879 C169 1.634 . S
C893 C109 1.624 . S
C899 C183 1.623 . S
C913 C213 1.624 . S
C919 C131 1.623 . S
C933 C227 1.633 . S
C939 C7 1.635 . S
C953 C257 1.624 . S
C959 C29 1.627 . S
C973 C147 1.624 . S
C979 C59 1.623 . S
