# Generated by pormake.
# Topology snk, (6)-cn, num edge types: 1
# Building blocks:
#     Node 0, Type 0, BuildingBlock: CUKXOW_clean_sbu_0, # of connection points: 6
#     Node 1, Type 0, BuildingBlock: CUKXOW_clean_sbu_0, # of connection points: 6
#     Node 2, Type 0, BuildingBlock: CUKXOW_clean_sbu_0, # of connection points: 6
#     Node 3, Type 0, BuildingBlock: CUKXOW_clean_sbu_0, # of connection points: 6
#     Node 4, Type 0, BuildingBlock: CUKXOW_clean_sbu_0, # of connection points: 6
#     Node 5, Type 0, BuildingBlock: CUKXOW_clean_sbu_0, # of connection points: 6
#     Node 6, Type 0, BuildingBlock: CUKXOW_clean_sbu_0, # of connection points: 6
#     Node 7, Type 0, BuildingBlock: CUKXOW_clean_sbu_0, # of connection points: 6
#     Edge 8, Type (0, 0), BuildingBlock: ZUJKAS_clean_linker_0, # of connection points: 2
#     Edge 9, Type (0, 0), BuildingBlock: ZUJKAS_clean_linker_0, # of connection points: 2
#     Edge 10, Type (0, 0), BuildingBlock: ZUJKAS_clean_linker_0, # of connection points: 2
#     Edge 11, Type (0, 0), BuildingBlock: ZUJKAS_clean_linker_0, # of connection points: 2
#     Edge 12, Type (0, 0), BuildingBlock: ZUJKAS_clean_linker_0, # of connection points: 2
#     Edge 13, Type (0, 0), BuildingBlock: ZUJKAS_clean_linker_0, # of connection points: 2
#     Edge 14, Type (0, 0), BuildingBlock: ZUJKAS_clean_linker_0, # of connection points: 2
#     Edge 15, Type (0, 0), BuildingBlock: ZUJKAS_clean_linker_0, # of connection points: 2
#     Edge 16, Type (0, 0), BuildingBlock: ZUJKAS_clean_linker_0, # of connection points: 2
#     Edge 17, Type (0, 0), BuildingBlock: ZUJKAS_clean_linker_0, # of connection points: 2
#     Edge 18, Type (0, 0), BuildingBlock: ZUJKAS_clean_linker_0, # of connection points: 2
#     Edge 19, Type (0, 0), BuildingBlock: ZUJKAS_clean_linker_0, # of connection points: 2
#     Edge 20, Type (0, 0), BuildingBlock: ZUJKAS_clean_linker_0, # of connection points: 2
#     Edge 21, Type (0, 0), BuildingBlock: ZUJKAS_clean_linker_0, # of connection points: 2
#     Edge 22, Type (0, 0), BuildingBlock: ZUJKAS_clean_linker_0, # of connection points: 2
#     Edge 23, Type (0, 0), BuildingBlock: ZUJKAS_clean_linker_0, # of connection points: 2
#     Edge 24, Type (0, 0), BuildingBlock: ZUJKAS_clean_linker_0, # of connection points: 2
#     Edge 25, Type (0, 0), BuildingBlock: ZUJKAS_clean_linker_0, # of connection points: 2
#     Edge 26, Type (0, 0), BuildingBlock: ZUJKAS_clean_linker_0, # of connection points: 2
#     Edge 27, Type (0, 0), BuildingBlock: ZUJKAS_clean_linker_0, # of connection points: 2
#     Edge 28, Type (0, 0), BuildingBlock: ZUJKAS_clean_linker_0, # of connection points: 2
#     Edge 29, Type (0, 0), BuildingBlock: ZUJKAS_clean_linker_0, # of connection points: 2
#     Edge 30, Type (0, 0), BuildingBlock: ZUJKAS_clean_linker_0, # of connection points: 2
#     Edge 31, Type (0, 0), BuildingBlock: ZUJKAS_clean_linker_0, # of connection points: 2
# Relax obj value: 0.069
# Max RMSD: 0.173
# Mean RMSD: 0.128
data_MOF--net-snk--node1-CUKXOW_clean_sbu_0--edge1-ZUJKAS_clean_linker_0
_symmetry_space_group_name_H-M    P1
_symmetry_Int_Tables_number       1
_symmetry_cell_setting            triclinic
loop_
_symmetry_equiv_pos_as_xyz
'x, y, z'
_cell_length_a     58.417672
_cell_length_b     58.393744
_cell_length_c     18.91919
_cell_angle_alpha  98.684743
_cell_angle_beta   98.439249
_cell_angle_gamma 90.404602
loop_
_atom_site_label
_atom_site_type_symbol
_atom_site_fract_x
_atom_site_fract_y
_atom_site_fract_z
_atom_type_partial_charge
Tb0 Tb 0.02222 0.01876 0.55107 0.0
C1 C 0.03153 0.96619 0.56549 0.0
Tb2 Tb 0.97994 0.98398 0.55291 0.0
O3 O 0.03153 0.02762 0.67049 0.0
O4 O 0.00512 0.00475 0.62485 0.0
O5 O 0.03905 0.98561 0.5467 0.0
C6 C 0.94767 0.9623 0.60377 0.0
O7 O 0.01006 0.96303 0.57899 0.0
C8 C 0.98645 0.9882 0.4188 0.0
C9 C 0.97078 0.03661 0.53621 0.0
O10 O 0.96164 0.95225 0.56207 0.0
O11 O 0.95179 0.98451 0.61652 0.0
O12 O 0.97058 0.97469 0.43382 0.0
O13 O 0.99702 0.99783 0.47879 0.0
O14 O 0.96314 0.01728 0.55546 0.0
O15 O 0.99235 0.03973 0.52365 0.0
C16 C 0.05523 0.04104 0.50568 0.0
O17 O 0.04215 0.05034 0.55148 0.0
O18 O 0.0496 0.01927 0.48494 0.0
C19 C 0.01561 0.01414 0.6851 0.0
Tb20 Tb 0.23116 0.7686 0.77633 0.0
C21 C 0.2834 0.78604 0.83022 0.0
Tb22 Tb 0.2702 0.73166 0.81063 0.0
O23 O 0.22402 0.77795 0.88876 0.0
O24 O 0.24803 0.75405 0.86409 0.0
O25 O 0.26278 0.79056 0.79514 0.0
C26 C 0.30134 0.70517 0.87439 0.0
O27 O 0.28849 0.76534 0.84932 0.0
C28 C 0.2627 0.73641 0.67107 0.0
C29 C 0.21802 0.71416 0.75624 0.0
O30 O 0.30586 0.72153 0.83864 0.0
O31 O 0.27912 0.70378 0.87499 0.0
O32 O 0.27744 0.72236 0.69832 0.0
O33 O 0.25334 0.74621 0.72286 0.0
O34 O 0.23863 0.70963 0.79135 0.0
O35 O 0.21288 0.7349 0.73746 0.0
C36 C 0.19988 0.79515 0.71336 0.0
O37 O 0.19548 0.77886 0.74951 0.0
O38 O 0.22205 0.79641 0.71184 0.0
C39 C 0.23874 0.76388 0.91597 0.0
Tb40 Tb 0.48218 0.01891 0.05621 0.0
C41 C 0.46581 0.96617 1.00754 0.0
Tb42 Tb 0.51926 0.98203 1.02677 0.0
O43 O 0.4748 0.0286 0.9468 0.0
O44 O 0.49873 0.00437 0.96963 0.0
O45 O 0.46093 0.98693 1.04088 0.0
C46 C 0.54573 0.94814 0.97574 0.0
O47 O 0.48684 0.96124 0.99114 0.0
C48 C 0.51526 0.99563 0.16392 0.0
C49 C 0.53548 0.03476 0.0685 0.0
O50 O 0.53547 0.94856 1.03222 0.0
O51 O 0.54102 0.96683 0.94754 0.0
O52 O 0.53427 0.98864 0.14089 0.0
O53 O 0.49906 0.99296 0.11091 0.0
O54 O 0.54033 0.01385 1.03603 0.0
O55 O 0.51472 0.03967 0.08728 0.0
C56 C 0.45374 0.04838 0.11884 0.0
O57 O 0.47562 0.04666 0.14245 0.0
O58 O 0.44796 0.03333 0.06094 0.0
C59 C 0.48935 0.01451 0.91923 0.0
Tb60 Tb 0.23768 0.23089 0.29872 0.0
C61 C 0.29077 0.22335 0.28596 0.0
Tb62 Tb 0.27147 0.27426 0.30008 0.0
O63 O 0.22971 0.22196 0.17925 0.0
O64 O 0.2517 0.24879 0.2266 0.0
O65 O 0.27147 0.2152 0.30419 0.0
C66 C 0.28999 0.30963 0.25481 0.0
O67 O 0.29348 0.24501 0.27332 0.0
C68 C 0.26716 0.26694 0.43311 0.0
C69 C 0.21841 0.28169 0.31655 0.0
O70 O 0.3012 0.29666 0.29753 0.0
O71 O 0.26863 0.30234 0.23652 0.0
O72 O 0.28048 0.28311 0.41901 0.0
O73 O 0.25767 0.25644 0.37283 0.0
O74 O 0.23772 0.28996 0.29894 0.0
O75 O 0.21562 0.25987 0.32713 0.0
C76 C 0.21403 0.19595 0.32862 0.0
O77 O 0.20664 0.20913 0.28126 0.0
O78 O 0.23461 0.20282 0.36138 0.0
C79 C 0.2428 0.23832 0.16585 0.0
Tb80 Tb 0.732 0.26916 0.27037 0.0
C81 C 0.78562 0.28455 0.31613 0.0
Tb82 Tb 0.77021 0.23142 0.30399 0.0
O83 O 0.72216 0.2758 0.38016 0.0
O84 O 0.74665 0.25237 0.3562 0.0
O85 O 0.76485 0.28909 0.28193 0.0
C86 C 0.79877 0.20214 0.36547 0.0
O87 O 0.79075 0.26395 0.33574 0.0
C88 C 0.76578 0.23925 0.16723 0.0
C89 C 0.71655 0.21608 0.2576 0.0
O90 O 0.79846 0.22433 0.38741 0.0
O91 O 0.78283 0.19654 0.30989 0.0
O92 O 0.78017 0.22488 0.19434 0.0
O93 O 0.75553 0.24817 0.21812 0.0
O94 O 0.7373 0.21148 0.29178 0.0
O95 O 0.71146 0.23671 0.23818 0.0
C96 C 0.70314 0.29822 0.20916 0.0
O97 O 0.70339 0.27599 0.18783 0.0
O98 O 0.71936 0.30399 0.26386 0.0
C99 C 0.7365 0.26137 0.40721 0.0
Tb100 Tb 0.73097 0.72725 0.78654 0.0
C101 C 0.78435 0.71954 0.77365 0.0
Tb102 Tb 0.76484 0.77031 0.78724 0.0
O103 O 0.7218 0.71835 0.66746 0.0
O104 O 0.74338 0.74596 0.7132 0.0
O105 O 0.76457 0.71115 0.78798 0.0
C106 C 0.78607 0.80594 0.75109 0.0
O107 O 0.7877 0.74152 0.76544 0.0
C108 C 0.76233 0.76148 0.92041 0.0
C109 C 0.71183 0.77739 0.79546 0.0
O110 O 0.79121 0.78439 0.73392 0.0
O111 O 0.7691 0.80733 0.78842 0.0
O112 O 0.77596 0.77731 0.90616 0.0
O113 O 0.75197 0.75196 0.8602 0.0
O114 O 0.73016 0.7839 0.76838 0.0
O115 O 0.71007 0.75687 0.81685 0.0
C116 C 0.70933 0.69342 0.83031 0.0
O117 O 0.69926 0.70841 0.79278 0.0
O118 O 0.73149 0.69764 0.84384 0.0
C119 C 0.73426 0.73512 0.65302 0.0
Tb120 Tb 0.51929 0.51521 0.04505 0.0
C121 C 0.52766 0.4623 0.06092 0.0
Tb122 Tb 0.47665 0.48076 0.0461 0.0
O123 O 0.5282 0.52446 0.16438 0.0
O124 O 0.50183 0.5015 0.11861 0.0
O125 O 0.53535 0.48156 1.04131 0.0
C126 C 0.44153 0.46176 0.09144 0.0
O127 O 0.50613 0.45936 0.07424 0.0
C128 C 0.4838 0.48491 0.91236 0.0
C129 C 0.46812 0.53344 1.02835 0.0
O130 O 0.45491 0.45063 0.04963 0.0
O131 O 0.44828 0.48332 0.10884 0.0
O132 O 0.46787 0.47138 0.92676 0.0
O133 O 0.49408 0.49454 0.9726 0.0
O134 O 0.46041 0.51423 0.04789 0.0
O135 O 0.48971 0.53639 1.01579 0.0
C136 C 0.55314 0.53664 1.00075 0.0
O137 O 0.53871 0.54672 1.04072 0.0
O138 O 0.54837 0.51457 0.98512 0.0
C139 C 0.5122 0.51104 0.17884 0.0
Tb140 Tb 0.9824 0.52006 0.55707 0.0
C141 C 0.96469 0.46792 0.50123 0.0
Tb142 Tb 0.0191 0.48074 0.52175 0.0
O143 O 0.97327 0.52736 0.445 0.0
O144 O 0.99702 0.5032 0.46898 0.0
O145 O 0.96026 0.48849 0.53733 0.0
C146 C 0.04538 0.44898 0.45882 0.0
O147 O 0.98537 0.4628 0.48186 0.0
C148 C 0.01422 0.48825 0.66145 0.0
C149 C 0.03686 0.53285 0.57627 0.0
O150 O 0.02846 0.44481 0.49287 0.0
O151 O 0.04742 0.47122 0.45924 0.0
O152 O 0.02823 0.47346 0.63386 0.0
O153 O 0.0045 0.49762 0.60988 0.0
O154 O 0.04118 0.51225 0.54027 0.0
O155 O 0.01624 0.53806 0.59604 0.0
C156 C 0.9561 0.55169 0.62069 0.0
O157 O 0.97274 0.55593 0.58562 0.0
O158 O 0.95434 0.52946 0.62086 0.0
C159 C 0.98729 0.51259 0.41743 0.0
H160 H 0.07124 0.08485 0.55624 0.0
H161 H 0.10155 0.10586 0.51385 0.0
H162 H 0.11106 0.04592 0.35819 0.0
H163 H 0.08091 0.02456 0.40143 0.0
H164 H 0.15315 0.06918 0.43511 0.0
H165 H 0.09025 0.12844 0.31531 0.0
H166 H 0.08811 0.12698 0.4082 0.0
H167 H 0.08152 0.10156 0.34122 0.0
C168 C 0.07985 0.07616 0.51315 0.0
C169 C 0.07374 0.05328 0.4814 0.0
C170 C 0.09708 0.08812 0.48907 0.0
C171 C 0.10814 0.07743 0.43242 0.0
C172 C 0.10254 0.05435 0.40186 0.0
H173 H 0.18203 0.17121 0.22952 0.0
H174 H 0.15929 0.13754 0.24416 0.0
C175 C 0.08536 0.04229 0.42631 0.0
C176 C 0.12494 0.09089 0.40389 0.0
H177 H 0.13006 0.14078 0.33498 0.0
C178 C 0.1482 0.08466 0.41207 0.0
C179 C 0.11814 0.11068 0.37256 0.0
C180 C 0.0931 0.1172 0.35805 0.0
C181 C 0.1652 0.09863 0.39308 0.0
C182 C 0.15859 0.11942 0.36699 0.0
C183 C 0.13512 0.1249 0.35557 0.0
C184 C 0.17548 0.13655 0.35419 0.0
C185 C 0.18997 0.09111 0.4016 0.0
C186 C 0.19249 0.14675 0.41076 0.0
C187 C 0.2058 0.16577 0.40197 0.0
C188 C 0.20166 0.17506 0.33738 0.0
C189 C 0.18519 0.16444 0.28024 0.0
C190 C 0.17236 0.14517 0.28832 0.0
H191 H 0.19089 0.07196 0.39744 0.0
H192 H 0.19938 0.09688 0.3602 0.0
H193 H 0.19893 0.0988 0.45591 0.0
H194 H 0.19473 0.14073 0.46268 0.0
H195 H 0.21851 0.17382 0.44651 0.0
H196 H 0.07625 0.96544 0.53814 0.0
H197 H 0.10419 0.93511 0.55326 0.0
H198 H 0.0533 0.89414 0.62644 0.0
H199 H 0.02497 0.92434 0.6107 0.0
H200 H 0.12056 0.91853 0.6803 0.0
H201 H 0.07792 0.8477 0.47268 0.0
H202 H 0.06976 0.87755 0.47532 0.0
H203 H 0.0598 0.86026 0.53631 0.0
C204 C 0.07084 0.94995 0.55705 0.0
C205 C 0.04827 0.94738 0.57316 0.0
C206 C 0.0869 0.93261 0.56561 0.0
C207 C 0.08076 0.91224 0.59006 0.0
C208 C 0.05826 0.90952 0.60607 0.0
H209 H 0.15375 0.79398 0.71908 0.0
H210 H 0.12532 0.82236 0.68447 0.0
C211 C 0.04213 0.92688 0.59746 0.0
C212 C 0.09833 0.89445 0.60211 0.0
H213 H 0.11037 0.83764 0.55235 0.0
C214 C 0.11843 0.90088 0.65196 0.0
C215 C 0.09547 0.87145 0.56509 0.0
C216 C 0.07468 0.8638 0.50885 0.0
C217 C 0.1355 0.8848 0.66715 0.0
C218 C 0.13261 0.86175 0.63041 0.0
C219 C 0.11258 0.85534 0.5802 0.0
C220 C 0.1497 0.84382 0.64603 0.0
C221 C 0.15614 0.89244 0.72407 0.0
C222 C 0.17273 0.84613 0.63411 0.0
C223 C 0.18906 0.82993 0.65401 0.0
C224 C 0.18252 0.81112 0.68573 0.0
C225 C 0.15928 0.80836 0.69494 0.0
C226 C 0.14301 0.82454 0.67513 0.0
H227 H 0.15311 0.90894 0.75869 0.0
H228 H 0.16041 0.87899 0.7592 0.0
H229 H 0.17137 0.89522 0.69724 0.0
H230 H 0.17815 0.86066 0.61041 0.0
H231 H 0.20685 0.83238 0.64604 0.0
H232 H 0.32985 0.78232 0.87792 0.0
H233 H 0.36007 0.81301 0.90705 0.0
H234 H 0.30941 0.86349 0.8555 0.0
H235 H 0.27901 0.83286 0.82526 0.0
H236 H 0.36998 0.84817 0.80404 0.0
H237 H 0.34687 0.88698 0.07056 0.0
H238 H 0.3399 0.85704 1.03238 0.0
H239 H 0.3239 0.87967 0.9955 0.0
C240 C 0.32501 0.79993 0.87287 0.0
C241 C 0.30181 0.80497 0.84921 0.0
C242 C 0.3424 0.8175 0.88946 0.0
C243 C 0.33708 0.84064 0.88391 0.0
C244 C 0.31398 0.84581 0.86065 0.0
H245 H 0.41888 0.9709 1.00574 0.0
H246 H 0.38819 0.94079 0.97352 0.0
C247 C 0.29658 0.8282 0.8432 0.0
C248 C 0.35574 0.85927 0.90161 0.0
H249 H 0.37763 0.90491 1.03 0.0
C250 C 0.37169 0.86058 0.85347 0.0
C251 C 0.35789 0.87562 0.9657 0.0
C252 C 0.34137 0.87488 1.01954 0.0
C253 C 0.38949 0.8779 0.86714 0.0
C254 C 0.39206 0.89403 0.93228 0.0
C255 C 0.37594 0.89268 0.98023 0.0
C256 C 0.41111 0.91247 0.95152 0.0
C257 C 0.40484 0.87909 0.81016 0.0
C258 C 0.43452 0.9069 0.95116 0.0
C259 C 0.45217 0.92423 0.96867 0.0
C260 C 0.44702 0.94764 0.98869 0.0
C261 C 0.42364 0.95313 0.99064 0.0
C262 C 0.40598 0.93584 0.97221 0.0
H263 H 0.39614 0.87105 0.75578 0.0
H264 H 0.4099 0.89727 0.80755 0.0
H265 H 0.42076 0.86938 0.82325 0.0
H266 H 0.43927 0.88906 0.93799 0.0
H267 H 0.46993 0.91919 0.96735 0.0
H268 H 0.4648 0.08481 0.22837 0.0
H269 H 0.4396 0.11639 0.26654 0.0
H270 H 0.38291 0.08369 0.11117 0.0
H271 H 0.40802 0.05244 0.07226 0.0
H272 H 0.38963 0.13005 0.10284 0.0
H273 H 0.38644 0.117 0.38631 0.0
H274 H 0.41497 0.11959 0.36291 0.0
H275 H 0.39647 0.09513 0.32072 0.0
C276 C 0.44687 0.08426 0.20319 0.0
C277 C 0.43832 0.06622 0.14746 0.0
C278 C 0.43249 0.10224 0.22514 0.0
C279 C 0.40933 0.1023 0.19202 0.0
C280 C 0.40072 0.08399 0.13744 0.0
H281 H 0.2913 0.17759 0.30227 0.0
H282 H 0.32177 0.15015 0.28254 0.0
C283 C 0.41506 0.06612 0.11542 0.0
C284 C 0.39419 0.12188 0.21114 0.0
H285 H 0.36754 0.14958 0.34764 0.0
C286 C 0.38488 0.13442 0.15646 0.0
C287 C 0.38795 0.12743 0.28102 0.0
C288 C 0.39678 0.114 0.34112 0.0
C289 C 0.36917 0.1521 0.16933 0.0
C290 C 0.36294 0.1577 0.23925 0.0
C291 C 0.37251 0.14539 0.29427 0.0
C292 C 0.34519 0.17506 0.25479 0.0
C293 C 0.3587 0.16399 0.10721 0.0
C294 C 0.34837 0.19835 0.24687 0.0
C295 C 0.33085 0.21418 0.25771 0.0
C296 C 0.30989 0.20702 0.27719 0.0
C297 C 0.30711 0.18379 0.28701 0.0
C298 C 0.32457 0.16802 0.27599 0.0
H299 H 0.36137 0.15423 0.05407 0.0
H300 H 0.33983 0.16613 0.1073 0.0
H301 H 0.36697 0.18147 0.11289 0.0
H302 H 0.36433 0.20424 0.23179 0.0
H303 H 0.33368 0.23195 0.25023 0.0
H304 H 0.91479 0.98188 0.67935 0.0
H305 H 0.88418 0.96154 0.72392 0.0
H306 H 0.91011 0.8959 0.63665 0.0
H307 H 0.94051 0.91601 0.59167 0.0
H308 H 0.85077 0.92694 0.62841 0.0
H309 H 0.90381 0.89232 0.85427 0.0
H310 H 0.91262 0.91755 0.81888 0.0
H311 H 0.9164 0.88895 0.77229 0.0
C312 C 0.91396 0.96311 0.6702 0.0
C313 C 0.92983 0.95038 0.63223 0.0
C314 C 0.89658 0.95161 0.69564 0.0
C315 C 0.89526 0.92737 0.68412 0.0
C316 C 0.91122 0.91468 0.64676 0.0
H317 H 0.82343 0.80537 0.68126 0.0
H318 H 0.84746 0.8388 0.67037 0.0
C319 C 0.92843 0.92612 0.62086 0.0
C320 C 0.8765 0.91488 0.70693 0.0
H321 H 0.86779 0.87187 0.80371 0.0
C322 C 0.85419 0.91532 0.66811 0.0
C323 C 0.88126 0.89996 0.75896 0.0
C324 C 0.90478 0.89977 0.80406 0.0
C325 C 0.83684 0.89961 0.67581 0.0
C326 C 0.8422 0.88345 0.72371 0.0
C327 C 0.86399 0.88424 0.76646 0.0
C328 C 0.8264 0.864 0.72497 0.0
C329 C 0.81349 0.89923 0.62941 0.0
C330 C 0.80657 0.86745 0.75817 0.0
C331 C 0.79285 0.84844 0.76429 0.0
C332 C 0.79898 0.82592 0.73753 0.0
C333 C 0.81843 0.82261 0.70226 0.0
C334 C 0.83212 0.8416 0.69617 0.0
H335 H 0.81264 0.9121 0.59148 0.0
H336 H 0.80946 0.8817 0.5977 0.0
H337 H 0.79992 0.9031 0.66448 0.0
H338 H 0.80211 0.88469 0.78102 0.0
H339 H 0.77787 0.85132 0.79178 0.0
H340 H 0.97869 0.07895 0.49638 0.0
H341 H 0.95086 0.10935 0.47759 0.0
H342 H 0.89732 0.06717 0.53315 0.0
H343 H 0.92497 0.03686 0.55313 0.0
H344 H 0.91105 0.1065 0.37976 0.0
H345 H 0.89042 0.12919 0.65799 0.0
H346 H 0.91516 0.11241 0.63796 0.0
H347 H 0.8868 0.09878 0.62408 0.0
C348 C 0.96105 0.07618 0.50526 0.0
C349 C 0.95415 0.05542 0.52651 0.0
C350 C 0.94516 0.0936 0.49447 0.0
C351 C 0.9221 0.0907 0.50511 0.0
C352 C 0.91515 0.07004 0.5263 0.0
H353 H 0.80101 0.15601 0.31916 0.0
H354 H 0.83148 0.1299 0.35634 0.0
C355 C 0.931 0.05262 0.53718 0.0
C356 C 0.90497 0.10869 0.49009 0.0
H357 H 0.86478 0.14309 0.56405 0.0
C358 C 0.90108 0.11464 0.42025 0.0
C359 C 0.89217 0.11954 0.54319 0.0
C360 C 0.89648 0.11485 0.62021 0.0
C361 C 0.88422 0.13055 0.40139 0.0
C362 C 0.87062 0.1405 0.45344 0.0
C363 C 0.87503 0.1352 0.524 0.0
C364 C 0.85144 0.15608 0.43484 0.0
C365 C 0.88117 0.13661 0.32586 0.0
C366 C 0.85208 0.17925 0.46872 0.0
C367 C 0.83456 0.1942 0.44782 0.0
C368 C 0.81612 0.18613 0.39305 0.0
C369 C 0.81509 0.16272 0.36125 0.0
C370 C 0.83256 0.14783 0.38211 0.0
H371 H 0.89675 0.13259 0.29946 0.0
H372 H 0.8663 0.12631 0.29251 0.0
H373 H 0.87753 0.15527 0.32635 0.0
H374 H 0.86643 0.1859 0.50992 0.0
H375 H 0.83574 0.21217 0.47323 0.0
H376 H 0.66975 0.21997 0.21551 0.0
H377 H 0.63968 0.18925 0.18597 0.0
H378 H 0.69126 0.13844 0.22596 0.0
H379 H 0.72126 0.16919 0.25832 0.0
H380 H 0.63147 0.1538 0.08385 0.0
H381 H 0.6457 0.1183 0.34124 0.0
H382 H 0.6595 0.14503 0.33072 0.0
H383 H 0.67136 0.11757 0.29951 0.0
C384 C 0.67474 0.20229 0.2187 0.0
C385 C 0.69806 0.19724 0.24013 0.0
C386 C 0.65743 0.18463 0.20156 0.0
C387 C 0.66287 0.16132 0.20491 0.0
C388 C 0.68624 0.15621 0.22507 0.0
H389 H 0.58234 0.03046 0.06572 0.0
H390 H 0.61289 0.06089 0.09773 0.0
C391 C 0.70352 0.1739 0.24316 0.0
C392 C 0.64422 0.14248 0.18525 0.0
H393 H 0.62108 0.0957 0.24339 0.0
C394 C 0.6292 0.14125 0.11921 0.0
C395 C 0.64091 0.1259 0.23097 0.0
C396 C 0.65506 0.12688 0.30485 0.0
C397 C 0.61146 0.12396 0.09751 0.0
C398 C 0.60851 0.10725 0.14258 0.0
C399 C 0.62343 0.10837 0.20845 0.0
C400 C 0.58978 0.08872 0.12259 0.0
C401 C 0.59607 0.12346 1.02594 0.0
C402 C 0.56652 0.09409 0.12612 0.0
C403 C 0.54898 0.07667 0.10846 0.0
C404 C 0.55419 0.05339 0.0861 0.0
C405 C 0.57754 0.04812 0.08223 0.0
C406 C 0.5951 0.06553 0.10076 0.0
H407 H 0.60245 0.13558 0.99273 0.0
H408 H 0.59483 0.10566 0.99481 0.0
H409 H 0.57835 0.12839 1.03567 0.0
H410 H 0.56194 0.1118 0.14316 0.0
H411 H 0.53129 0.08151 0.11222 0.0
H412 H 0.66942 0.77004 0.8358 0.0
H413 H 0.63976 0.79862 0.8577 0.0
H414 H 0.68229 0.85127 0.79919 0.0
H415 H 0.71199 0.82296 0.77695 0.0
H416 H 0.66505 0.86241 0.93755 0.0
H417 H 0.59603 0.831 0.70708 0.0
H418 H 0.60867 0.80952 0.75862 0.0
H419 H 0.62605 0.82378 0.70665 0.0
C420 C 0.6724 0.78764 0.82688 0.0
C421 C 0.69312 0.79416 0.80454 0.0
C422 C 0.65538 0.80392 0.83914 0.0
C423 C 0.65879 0.82699 0.82948 0.0
C424 C 0.6793 0.83351 0.80658 0.0
H425 H 0.56686 0.94415 0.85492 0.0
H426 H 0.59406 0.91446 0.81684 0.0
C427 C 0.69624 0.81725 0.79379 0.0
C428 C 0.64159 0.84466 0.84715 0.0
H429 H 0.58645 0.86127 0.79541 0.0
C430 C 0.64788 0.86221 0.90642 0.0
C431 C 0.6193 0.8444 0.80605 0.0
C432 C 0.61203 0.82629 0.74064 0.0
C433 C 0.63229 0.87929 0.92651 0.0
C434 C 0.60985 0.87878 0.88632 0.0
C435 C 0.60366 0.8615 0.82623 0.0
C436 C 0.59256 0.89596 0.90693 0.0
C437 C 0.63988 0.89787 0.99045 0.0
C438 C 0.58253 0.8951 0.96945 0.0
C439 C 0.56697 0.91188 0.99097 0.0
C440 C 0.56127 0.92986 0.95047 0.0
C441 C 0.57102 0.93049 0.88715 0.0
C442 C 0.58649 0.91357 0.86533 0.0
H443 H 0.65889 0.89817 1.00809 0.0
H444 H 0.63479 0.91519 0.97716 0.0
H445 H 0.63114 0.89463 1.03645 0.0
H446 H 0.58693 0.88155 1.00195 0.0
H447 H 0.55968 0.91096 1.03995 0.0
H448 H 0.5634 0.58261 1.0257 0.0
H449 H 0.59693 0.60211 0.99531 0.0
H450 H 0.62118 0.53629 0.90242 0.0
H451 H 0.58726 0.51664 0.93149 0.0
H452 H 0.64444 0.59432 1.04034 0.0
H453 H 0.61888 0.57693 0.74078 0.0
H454 H 0.59865 0.57326 0.80197 0.0
H455 H 0.62079 0.55257 0.7891 0.0
C456 C 0.57582 0.57234 0.99848 0.0
C457 C 0.57285 0.54825 0.98046 0.0
C458 C 0.59496 0.58343 0.98156 0.0
C459 C 0.61136 0.57055 0.94664 0.0
C460 C 0.60851 0.54644 0.92878 0.0
H461 H 0.72927 0.65811 0.89292 0.0
H462 H 0.70951 0.62398 0.92006 0.0
C463 C 0.58922 0.53531 0.94535 0.0
C464 C 0.63108 0.5829 0.92821 0.0
H465 H 0.65003 0.60299 0.7866 0.0
C466 C 0.64609 0.59592 0.98491 0.0
C467 C 0.63298 0.58472 0.85573 0.0
C468 C 0.61695 0.57126 0.79313 0.0
C469 C 0.6619 0.61218 0.97116 0.0
C470 C 0.66284 0.61497 0.89881 0.0
C471 C 0.64909 0.60067 0.84194 0.0
C472 C 0.6752 0.63485 0.88141 0.0
C473 C 0.67615 0.62742 1.03403 0.0
C474 C 0.66233 0.65192 0.8502 0.0
C475 C 0.67348 0.6712 0.83434 0.0
C476 C 0.69764 0.67363 0.84974 0.0
C477 C 0.71056 0.65658 0.88117 0.0
C478 C 0.69937 0.63717 0.89663 0.0
H479 H 0.67103 0.62499 0.08676 0.0
H480 H 0.69469 0.62324 1.0353 0.0
H481 H 0.67438 0.64596 1.02778 0.0
H482 H 0.64361 0.65037 0.83851 0.0
H483 H 0.66323 0.68414 0.80995 0.0
H484 H 0.66505 0.28759 0.10604 0.0
H485 H 0.63371 0.31347 0.07227 0.0
H486 H 0.66995 0.3702 0.21965 0.0
H487 H 0.70106 0.34443 0.25407 0.0
H488 H 0.62379 0.36453 0.23748 0.0
H489 H 0.63218 0.36604 0.94929 0.0
H490 H 0.62992 0.33771 0.9744 0.0
H491 H 0.65486 0.3561 1.01208 0.0
C492 C 0.66644 0.30567 0.13032 0.0
C493 C 0.68545 0.31405 0.18255 0.0
C494 C 0.64858 0.32044 0.11089 0.0
C495 C 0.64958 0.3438 0.14314 0.0
C496 C 0.66884 0.35224 0.1941 0.0
H497 H 0.57303 0.462 1.04028 0.0
H498 H 0.60089 0.43182 0.05838 0.0
C499 C 0.68663 0.33753 0.21352 0.0
C500 C 0.63012 0.35931 0.12701 0.0
H501 H 0.60062 0.38561 0.99328 0.0
C502 C 0.61864 0.36908 0.18403 0.0
C503 C 0.62356 0.36529 0.05733 0.0
C504 C 0.63585 0.35593 0.99473 0.0
C505 C 0.60094 0.38491 0.17353 0.0
C506 C 0.59429 0.39083 0.10378 0.0
C507 C 0.60562 0.38088 0.04655 0.0
C508 C 0.57674 0.40852 0.09029 0.0
C509 C 0.59009 0.39577 0.23773 0.0
C510 C 0.55375 0.40533 0.10132 0.0
C511 C 0.53768 0.42268 0.09133 0.0
C512 C 0.5443 0.44347 0.06971 0.0
C513 C 0.56725 0.44631 0.05723 0.0
C514 C 0.58326 0.42902 0.06731 0.0
H515 H 0.60056 0.39324 0.2898 0.0
H516 H 0.58797 0.41464 0.23745 0.0
H517 H 0.57269 0.38766 0.23499 0.0
H518 H 0.54827 0.38947 0.1179 0.0
H519 H 0.52014 0.41981 0.10097 0.0
H520 H 0.96823 0.42164 0.44975 0.0
H521 H 0.93751 0.39149 0.41878 0.0
H522 H 0.88723 0.44191 0.47548 0.0
H523 H 0.91792 0.47227 0.5076 0.0
H524 H 0.90132 0.38196 0.52445 0.0
H525 H 0.86505 0.4043 0.25533 0.0
H526 H 0.89505 0.41049 0.29379 0.0
H527 H 0.87281 0.4273 0.33043 0.0
C528 C 0.95066 0.42646 0.45559 0.0
C529 C 0.9457 0.44958 0.48125 0.0
C530 C 0.93308 0.4091 0.43791 0.0
C531 C 0.90999 0.41437 0.44444 0.0
C532 C 0.90488 0.43739 0.46967 0.0
H533 H 0.78061 0.33133 0.3136 0.0
H534 H 0.81034 0.36239 0.34653 0.0
C535 C 0.92251 0.45476 0.48816 0.0
C536 C 0.89138 0.39571 0.42569 0.0
H537 H 0.84711 0.37313 0.29368 0.0
C538 C 0.88946 0.38 0.47401 0.0
C539 C 0.87573 0.39325 0.36027 0.0
C540 C 0.87712 0.4096 0.30644 0.0
C541 C 0.87225 0.36209 0.45906 0.0
C542 C 0.85688 0.35915 0.39251 0.0
C543 C 0.85879 0.37508 0.34448 0.0
C544 C 0.83869 0.33988 0.3719 0.0
C545 C 0.87036 0.34698 0.51611 0.0
C546 C 0.84443 0.31656 0.37358 0.0
C547 C 0.82732 0.29871 0.3556 0.0
C548 C 0.80397 0.30354 0.33377 0.0
C549 C 0.79834 0.32681 0.33007 0.0
C550 C 0.81542 0.34468 0.34897 0.0
H551 H 0.87774 0.35594 0.57087 0.0
H552 H 0.85208 0.34182 0.51686 0.0
H553 H 0.88032 0.33108 0.50465 0.0
H554 H 0.86224 0.31205 0.38845 0.0
H555 H 0.83248 0.28105 0.35835 0.0
H556 H 0.82694 0.72784 0.73549 0.0
H557 H 0.85758 0.70014 0.71726 0.0
H558 H 0.81571 0.64646 0.77321 0.0
H559 H 0.78514 0.67393 0.79243 0.0
H560 H 0.86234 0.64745 0.83876 0.0
H561 H 0.85457 0.64826 0.54292 0.0
H562 H 0.85921 0.67628 0.5978 0.0
H563 H 0.83284 0.65999 0.59576 0.0
C564 C 0.82424 0.71018 0.74417 0.0
C565 C 0.80344 0.70315 0.76498 0.0
C566 C 0.84174 0.69433 0.73335 0.0
C567 C 0.83877 0.67116 0.74283 0.0
C568 C 0.81832 0.66423 0.76528 0.0
H569 H 0.91747 0.54509 0.68243 0.0
H570 H 0.88951 0.57433 0.7173 0.0
C571 C 0.80082 0.68001 0.77604 0.0
C572 C 0.85681 0.65399 0.72862 0.0
H573 H 0.8851 0.62697 0.59512 0.0
C574 C 0.86732 0.64294 0.78551 0.0
C575 C 0.8632 0.64807 0.65903 0.0
C576 C 0.85176 0.65858 0.59511 0.0
C577 C 0.88436 0.62639 0.77491 0.0
C578 C 0.89075 0.6205 0.70531 0.0
C579 C 0.88023 0.63156 0.6485 0.0
C580 C 0.90838 0.60298 0.68977 0.0
C581 C 0.8957 0.61572 0.83855 0.0
C582 C 0.92817 0.60932 0.66244 0.0
C583 C 0.94401 0.59268 0.64224 0.0
C584 C 0.94032 0.56933 0.64863 0.0
C585 C 0.92079 0.563 0.67741 0.0
C586 C 0.90488 0.5797 0.69761 0.0
H587 H 0.89325 0.62621 0.89084 0.0
H588 H 0.88784 0.59822 0.83622 0.0
H589 H 0.91454 0.61382 0.83723 0.0
H590 H 0.93118 0.62714 0.65573 0.0
H591 H 0.95891 0.59805 0.62011 0.0
H592 H 0.33386 0.32715 0.29161 0.0
H593 H 0.34879 0.36366 0.26602 0.0
H594 H 0.28144 0.37718 0.15483 0.0
H595 H 0.26649 0.34026 0.17913 0.0
H596 H 0.31524 0.3833 0.0773 0.0
H597 H 0.34039 0.43012 0.35296 0.0
H598 H 0.35144 0.40148 0.34832 0.0
H599 H 0.32057 0.40529 0.33338 0.0
C600 C 0.32226 0.33795 0.2619 0.0
C601 C 0.29913 0.33104 0.23715 0.0
C602 C 0.33066 0.35892 0.24829 0.0
C603 C 0.31596 0.37338 0.2106 0.0
C604 C 0.29287 0.36639 0.18516 0.0
H605 H 0.40953 0.48522 0.16189 0.0
H606 H 0.37254 0.46979 0.18403 0.0
C607 C 0.28446 0.34531 0.19854 0.0
C608 C 0.3258 0.39444 0.19157 0.0
H609 H 0.36591 0.43719 0.26432 0.0
C610 C 0.32571 0.39565 0.11811 0.0
C611 C 0.33874 0.41103 0.24474 0.0
C612 C 0.33753 0.41205 0.32423 0.0
C613 C 0.3408 0.41102 0.09665 0.0
C614 C 0.35652 0.42491 0.15019 0.0
C615 C 0.35426 0.42599 0.22335 0.0
C616 C 0.37773 0.43491 0.1326 0.0
C617 C 0.34086 0.41111 1.017 0.0
C618 C 0.39301 0.42019 0.09818 0.0
C619 C 0.41402 0.42888 0.0857 0.0
C620 C 0.42015 0.45232 0.10846 0.0
C621 C 0.40509 0.46701 0.14407 0.0
C622 C 0.38397 0.45832 0.1562 0.0
H623 H 0.32314 0.40757 0.98639 0.0
H624 H 0.34753 0.42793 1.00646 0.0
H625 H 0.35201 0.39713 0.99613 0.0
H626 H 0.38885 0.40187 0.08203 0.0
H627 H 0.42544 0.41727 0.05836 0.0
H628 H 0.42331 0.53453 0.05456 0.0
H629 H 0.39538 0.56464 1.03617 0.0
H630 H 0.44658 0.60492 0.96195 0.0
H631 H 0.47496 0.57489 0.98088 0.0
H632 H 0.42078 0.63083 0.06193 0.0
H633 H 0.36342 0.57676 0.83756 0.0
H634 H 0.36976 0.56385 0.91832 0.0
H635 H 0.39266 0.569 0.86821 0.0
C636 C 0.42875 0.54975 1.03424 0.0
C637 C 0.45142 0.55216 1.01867 0.0
C638 C 0.41267 0.56692 1.02351 0.0
C639 C 0.41879 0.58681 0.99656 0.0
C640 C 0.44149 0.5896 0.98242 0.0
H641 H 0.34769 0.70713 0.87322 0.0
H642 H 0.3762 0.67907 0.90947 0.0
C643 C 0.45767 0.5724 0.99319 0.0
C644 C 0.40141 0.60464 0.98314 0.0
H645 H 0.34939 0.6131 0.88341 0.0
C646 C 0.4052 0.62701 1.02276 0.0
C647 C 0.38106 0.59954 0.93224 0.0
C648 C 0.3765 0.57606 0.88611 0.0
C649 C 0.389 0.64439 1.01342 0.0
C650 C 0.3687 0.63931 0.96227 0.0
C651 C 0.36488 0.6169 0.92296 0.0
C652 C 0.35168 0.65723 0.94596 0.0
C653 C 0.39359 0.66792 0.05916 0.0
C654 C 0.32835 0.65418 0.9538 0.0
C655 C 0.31197 0.67019 0.93277 0.0
C656 C 0.31867 0.68934 0.90298 0.0
C657 C 0.34207 0.69257 0.89639 0.0
C658 C 0.35841 0.67662 0.91747 0.0
H659 H 0.40604 0.66707 0.10902 0.0
H660 H 0.4012 0.67978 1.02763 0.0
H661 H 0.37733 0.67545 0.07479 0.0
H662 H 0.32278 0.63923 0.97522 0.0
H663 H 0.29401 0.66727 0.93813 0.0
H664 H 0.22281 0.66722 0.75774 0.0
H665 H 0.1928 0.63637 0.72487 0.0
H666 H 0.14146 0.68707 0.68113 0.0
H667 H 0.17142 0.71779 0.71118 0.0
H668 H 0.15583 0.62653 0.77885 0.0
H669 H 0.12542 0.64253 0.50033 0.0
H670 H 0.15126 0.65652 0.55358 0.0
H671 H 0.12319 0.6678 0.56534 0.0
C672 C 0.20516 0.67183 0.7406 0.0
C673 C 0.19973 0.69513 0.73652 0.0
C674 C 0.18792 0.65409 0.72183 0.0
C675 C 0.16471 0.65907 0.69867 0.0
C676 C 0.15921 0.68241 0.6962 0.0
H677 H 0.03393 0.57924 0.62832 0.0
H678 H 0.06504 0.60906 0.65786 0.0
C679 C 0.17645 0.70011 0.71406 0.0
C680 C 0.14626 0.64004 0.67909 0.0
H681 H 0.10129 0.61748 0.54868 0.0
C682 C 0.14408 0.62452 0.72817 0.0
C683 C 0.13078 0.63704 0.61274 0.0
C684 C 0.13291 0.6517 0.5547 0.0
C685 C 0.12677 0.60671 0.71361 0.0
C686 C 0.11102 0.60421 0.6484 0.0
C687 C 0.11322 0.61949 0.59901 0.0
C688 C 0.09214 0.58583 0.63072 0.0
C689 C 0.12512 0.59076 0.76844 0.0
C690 C 0.09689 0.56274 0.60522 0.0
C691 C 0.07906 0.54558 0.58762 0.0
C692 C 0.056 0.55104 0.59563 0.0
C693 C 0.05139 0.57423 0.62163 0.0
C694 C 0.06919 0.59139 0.63848 0.0
H695 H 0.13742 0.59602 0.81908 0.0
H696 H 0.10724 0.59048 0.78178 0.0
H697 H 0.12892 0.57285 0.74501 0.0
H698 H 0.11442 0.55799 0.59852 0.0
H699 H 0.0834 0.52801 0.56792 0.0
H700 H 0.21758 0.32744 0.3 0.0
H701 H 0.18675 0.35462 0.31839 0.0
H702 H 0.1449 0.30043 0.37175 0.0
H703 H 0.17585 0.27302 0.35447 0.0
H704 H 0.14095 0.35325 0.2498 0.0
H705 H 0.14556 0.35208 0.54465 0.0
H706 H 0.1679 0.34043 0.49427 0.0
H707 H 0.14138 0.3241 0.48943 0.0
C708 C 0.20187 0.3212 0.31577 0.0
C709 C 0.19932 0.29799 0.32621 0.0
C710 C 0.18423 0.33681 0.32609 0.0
C711 C 0.16367 0.32965 0.34736 0.0
C712 C 0.16082 0.30643 0.35663 0.0
H713 H 0.04192 0.40259 0.45782 0.0
H714 H 0.06982 0.37337 0.42464 0.0
C715 C 0.1785 0.29075 0.34638 0.0
C716 C 0.14531 0.34659 0.3598 0.0
H717 H 0.11547 0.3733 0.48977 0.0
C718 C 0.13537 0.35767 0.30225 0.0
C719 C 0.13813 0.35236 0.42833 0.0
C720 C 0.1489 0.34181 0.49297 0.0
C721 C 0.11819 0.37414 0.31117 0.0
C722 C 0.11105 0.37993 0.37975 0.0
C723 C 0.12094 0.36879 0.43718 0.0
C724 C 0.09335 0.3975 0.3936 0.0
C725 C 0.10754 0.3849 0.24687 0.0
C726 C 0.09721 0.42078 0.38654 0.0
C727 C 0.08121 0.43755 0.4053 0.0
C728 C 0.06122 0.43127 0.43187 0.0
C729 C 0.05717 0.40791 0.43738 0.0
C730 C 0.07311 0.3912 0.41859 0.0
H731 H 0.11047 0.37443 0.19503 0.0
H732 H 0.08862 0.38685 0.24635 0.0
H733 H 0.11555 0.40238 0.25009 0.0
H734 H 0.11292 0.42611 0.36865 0.0
H735 H 0.0848 0.45547 0.40104 0.0
H736 H 0.98631 0.98278 0.72635 0.0
H737 H 0.98068 0.97859 0.85039 0.0
H738 H 0.03102 0.03396 0.93493 0.0
H739 H 0.03627 0.03844 0.81203 0.0
H740 H 0.01244 0.96819 0.96556 0.0
H741 H 0.97752 0.05492 1.04087 0.0
H742 H 0.97955 0.04292 0.9484 0.0
H743 H 0.00466 0.05607 1.00761 0.0
C744 C 0.99587 0.99425 0.77141 0.0
C745 C 0.01146 0.01118 0.75916 0.0
C746 C 0.99276 0.99178 0.84241 0.0
C747 C 0.00507 0.00628 0.90254 0.0
C748 C 0.02084 0.02294 0.88996 0.0
H749 H 0.01537 0.01961 0.37615 0.0
H750 H 0.02078 0.0235 0.25173 0.0
C751 C 0.02393 0.02538 0.81939 0.0
C752 C 0.00215 0.00369 0.9785 0.0
H753 H 0.989 0.03352 0.13718 0.0
C754 C 0.00713 0.98243 1.00283 0.0
C755 C 0.99539 0.02228 1.02784 0.0
C756 C 0.98876 0.04527 1.0048 0.0
C757 C 0.00604 0.97942 0.07493 0.0
C758 C 0.99932 0.99803 0.12432 0.0
C759 C 0.9943 0.01927 0.09992 0.0
C760 C 0.99658 0.99553 0.20051 0.0
C761 C 0.01268 0.95643 0.09792 0.0
C762 C 0.98101 0.97879 0.21378 0.0
C763 C 0.97807 0.9765 0.28461 0.0
C764 C 0.99049 0.99095 0.34442 0.0
C765 C 0.00588 0.00794 0.33147 0.0
C766 C 0.00884 0.01025 0.26022 0.0
H767 H 0.02391 0.94678 0.06181 0.0
H768 H 0.0219 0.95876 0.1543 0.0
H769 H 0.99678 0.94562 0.09511 0.0
H770 H 0.97085 0.96761 0.16915 0.0
H771 H 0.96587 0.9634 0.29248 0.0
H772 H 0.28548 0.71566 0.56577 0.0
H773 H 0.28118 0.7208 0.43904 0.0
H774 H 0.22727 0.7695 0.47334 0.0
H775 H 0.23176 0.76451 0.60166 0.0
H776 H 0.24412 0.71227 0.33207 0.0
H777 H 0.27036 0.8055 0.37577 0.0
H778 H 0.27485 0.78798 0.44716 0.0
H779 H 0.24667 0.79882 0.42063 0.0
C780 C 0.2727 0.72753 0.54656 0.0
C781 C 0.25906 0.73984 0.59399 0.0
C782 C 0.27025 0.73042 0.47385 0.0
C783 C 0.25415 0.74577 0.44637 0.0
C784 C 0.24019 0.75791 0.49338 0.0
H785 H 0.21608 0.78473 1.02141 0.0
H786 H 0.22043 0.77964 0.14818 0.0
C787 C 0.24266 0.755 0.56666 0.0
C788 C 0.25205 0.74859 0.36838 0.0
H789 H 0.25747 0.78812 0.25507 0.0
C790 C 0.24708 0.72887 0.31528 0.0
C791 C 0.25602 0.77018 0.34616 0.0
C792 C 0.26248 0.79182 0.40028 0.0
C793 C 0.24556 0.73021 0.24098 0.0
C794 C 0.24954 0.7518 0.21876 0.0
C795 C 0.25451 0.77152 0.27186 0.0
C796 C 0.24743 0.75462 0.14077 0.0
C797 C 0.2391 0.70857 0.18688 0.0
C798 C 0.26135 0.74245 0.09369 0.0
C799 C 0.25883 0.74533 1.02038 0.0
C800 C 0.24243 0.7605 0.99309 0.0
C801 C 0.22885 0.77285 1.04059 0.0
C802 C 0.23133 0.76998 0.11333 0.0
H803 H 0.2312 0.69489 0.21139 0.0
H804 H 0.22674 0.71241 0.13999 0.0
H805 H 0.25491 0.70155 0.16654 0.0
H806 H 0.27426 0.73085 0.1137 0.0
H807 H 0.2697 0.73578 0.98532 0.0
H808 H 0.52497 0.99338 0.85456 0.0
H809 H 0.53008 0.99043 0.72654 0.0
H810 H 0.46578 0.02506 0.68212 0.0
H811 H 0.46102 0.02848 0.80906 0.0
H812 H 0.50453 0.96988 0.60103 0.0
H813 H 0.5079 0.06441 0.59831 0.0
H814 H 0.50963 0.0523 0.6811 0.0
H815 H 0.48195 0.05538 0.62773 0.0
C816 C 0.51194 1.00022 0.81728 0.0
C817 C 0.49266 0.01122 0.842 0.0
C818 C 0.51488 0.99863 0.74414 0.0
C819 C 0.49859 0.00805 0.69458 0.0
C820 C 0.479 0.01833 0.71923 0.0
H821 H 0.47582 0.00607 0.22503 0.0
H822 H 0.4716 0.00916 0.35387 0.0
C823 C 0.4762 0.0201 0.79196 0.0
C824 C 0.50169 0.00698 0.61701 0.0
H825 H 0.50227 0.0403 0.48279 0.0
C826 C 0.50422 0.98531 0.57548 0.0
C827 C 0.50136 0.02711 0.58313 0.0
C828 C 0.50031 0.05112 0.62507 0.0
C829 C 0.50584 0.98321 0.50119 0.0
C830 C 0.50494 0.00325 0.46726 0.0
C831 C 0.50262 0.02492 0.50863 0.0
C832 C 0.5074 0.00209 0.3895 0.0
C833 C 0.50821 0.95951 0.45892 0.0
C834 C 0.52898 0.99761 0.36706 0.0
C835 C 0.53147 0.99612 0.29406 0.0
C836 C 0.51239 0.99891 0.24157 0.0
C837 C 0.49082 0.00381 0.26415 0.0
C838 C 0.48839 0.00553 0.33764 0.0
H839 H 0.50491 0.94542 0.48991 0.0
H840 H 0.496 0.95713 0.40733 0.0
H841 H 0.52603 0.95791 0.44532 0.0
H842 H 0.54393 0.99517 0.40614 0.0
H843 H 0.54834 0.99239 0.27859 0.0
H844 H 0.27361 0.26844 0.12525 0.0
H845 H 0.27767 0.27409 1.00097 0.0
H846 H 0.22311 0.22284 0.91676 0.0
H847 H 0.21879 0.21751 1.03949 0.0
H848 H 0.28822 0.24132 0.88527 0.0
H849 H 0.20168 0.27666 0.81225 0.0
H850 H 0.21394 0.27503 0.90461 0.0
H851 H 0.20055 0.24974 0.8467 0.0
C852 C 0.2623 0.25869 0.08016 0.0
C853 C 0.24568 0.24278 0.09227 0.0
C854 C 0.26469 0.2618 1.00914 0.0
C855 C 0.25037 0.24921 0.9492 0.0
C856 C 0.23397 0.2332 0.96171 0.0
H857 H 0.23651 0.23712 0.47545 0.0
H858 H 0.23285 0.23173 0.60018 0.0
C859 C 0.23163 0.23008 1.03216 0.0
C860 C 0.25287 0.25198 0.87331 0.0
H861 H 0.22272 0.26454 0.71506 0.0
C862 C 0.27396 0.2466 0.84828 0.0
C863 C 0.23421 0.25863 0.82448 0.0
C864 C 0.21138 0.26556 0.84842 0.0
C865 C 0.27675 0.24724 0.77583 0.0
C866 C 0.25808 0.25386 0.72696 0.0
C867 C 0.237 0.25928 0.75204 0.0
C868 C 0.26046 0.25641 0.6508 0.0
C869 C 0.29957 0.24028 0.75189 0.0
C870 C 0.27693 0.2722 0.63743 0.0
C871 C 0.27904 0.27518 0.56667 0.0
C872 C 0.2647 0.26255 0.5071 0.0
C873 C 0.24804 0.24683 0.52009 0.0
C874 C 0.24588 0.24385 0.59138 0.0
H875 H 0.30927 0.2292 0.78813 0.0
H876 H 0.297 0.23076 0.69575 0.0
H877 H 0.31041 0.25608 0.7535 0.0
H878 H 0.28799 0.28254 0.68196 0.0
H879 H 0.29191 0.28761 0.55868 0.0
H880 H 0.73584 0.2683 0.09793 0.0
H881 H 0.73034 0.27184 0.9682 0.0
H882 H 0.78293 0.22164 0.93408 0.0
H883 H 0.78817 0.21786 0.06193 0.0
H884 H 0.76239 0.28461 0.8814 0.0
H885 H 0.72925 0.19466 0.78118 0.0
H886 H 0.7309 0.20768 0.87468 0.0
H887 H 0.75634 0.19626 0.84053 0.0
C888 C 0.74609 0.25799 0.06251 0.0
C889 C 0.76226 0.24264 0.09008 0.0
C890 C 0.74299 0.26002 0.98844 0.0
C891 C 0.75588 0.24662 0.94076 0.0
C892 C 0.77234 0.23173 0.96898 0.0
H893 H 0.76627 0.23216 0.47642 0.0
H894 H 0.77184 0.22869 0.60618 0.0
C895 C 0.77542 0.22971 1.04244 0.0
C896 C 0.7527 0.24834 0.86185 0.0
H897 H 0.74001 0.21615 0.69319 0.0
C898 C 0.75731 0.26968 0.8403 0.0
C899 C 0.7463 0.22882 0.80786 0.0
C900 C 0.7402 0.20561 0.82705 0.0
C901 C 0.75611 0.27193 0.76672 0.0
C902 C 0.7497 0.25242 0.71272 0.0
C903 C 0.74509 0.23108 0.73428 0.0
C904 C 0.74651 0.25414 0.63379 0.0
C905 C 0.76226 0.29515 0.74756 0.0
C906 C 0.73015 0.26914 0.60565 0.0
C907 C 0.72705 0.27112 0.53216 0.0
C908 C 0.74008 0.25805 0.48442 0.0
C909 C 0.75614 0.2426 0.51192 0.0
C910 C 0.75927 0.2406 0.58601 0.0
H911 H 0.77329 0.30603 0.79338 0.0
H912 H 0.77148 0.29307 0.69979 0.0
H913 H 0.74614 0.30456 0.73438 0.0
H914 H 0.71964 0.27931 0.6406 0.0
H915 H 0.71437 0.28305 0.51274 0.0
H916 H 0.7629 0.76705 0.61152 0.0
H917 H 0.76781 0.77166 0.48708 0.0
H918 H 0.71759 0.71613 0.40336 0.0
H919 H 0.71273 0.7115 0.52643 0.0
H920 H 0.78146 0.73738 0.37517 0.0
H921 H 0.69363 0.76855 0.29174 0.0
H922 H 0.70573 0.76888 0.38538 0.0
H923 H 0.69391 0.74237 0.33086 0.0
C924 C 0.75289 0.75594 0.5665 0.0
C925 C 0.73739 0.73897 0.57893 0.0
C926 C 0.75569 0.75855 0.49537 0.0
C927 C 0.74281 0.74446 0.43548 0.0
C928 C 0.72741 0.72753 0.44824 0.0
H929 H 0.73147 0.73169 0.96177 0.0
H930 H 0.72727 0.72633 0.08606 0.0
C931 C 0.72473 0.72483 0.51888 0.0
C932 C 0.74576 0.7468 0.35957 0.0
H933 H 0.71634 0.75782 0.19839 0.0
C934 C 0.76727 0.74203 0.33669 0.0
C935 C 0.72719 0.75257 0.3088 0.0
C936 C 0.70385 0.75859 0.33036 0.0
C937 C 0.77061 0.74247 0.26455 0.0
C938 C 0.75208 0.7484 0.21378 0.0
C939 C 0.73055 0.75315 0.23675 0.0
C940 C 0.75497 0.75079 0.13772 0.0
C941 C 0.79386 0.73596 0.24308 0.0
C942 C 0.77172 0.7664 0.12483 0.0
C943 C 0.7742 0.76929 0.0542 0.0
C944 C 0.75988 0.75683 0.99424 0.0
C945 C 0.74298 0.74127 1.0067 0.0
C946 C 0.74051 0.73832 0.07781 0.0
H947 H 0.80331 0.72491 0.27991 0.0
H948 H 0.79201 0.72657 0.18686 0.0
H949 H 0.8046 0.75195 0.2464 0.0
H950 H 0.78268 0.77673 0.1696 0.0
H951 H 0.78721 0.78163 0.04663 0.0
H952 H 0.46327 0.46056 0.78539 0.0
H953 H 0.46858 0.46511 0.66256 0.0
H954 H 0.51844 0.5209 0.74781 0.0
H955 H 0.5133 0.51613 0.87167 0.0
H956 H 0.46036 0.50166 0.59101 0.0
H957 H 0.55336 0.4811 0.60721 0.0
H958 H 0.53628 0.47545 0.67516 0.0
H959 H 0.54724 0.50429 0.67496 0.0
C960 C 0.47553 0.4737 0.77815 0.0
C961 C 0.48806 0.48782 0.83845 0.0
C962 C 0.47851 0.47633 0.70765 0.0
C963 C 0.49414 0.49313 0.69524 0.0
C964 C 0.50665 0.50742 0.75554 0.0
H965 H 0.53274 0.53544 0.30569 0.0
H966 H 0.5275 0.53091 0.42861 0.0
C967 C 0.50369 0.50474 0.82646 0.0
C968 C 0.49669 0.49587 0.61913 0.0
H969 H 0.5358 0.49436 0.50038 0.0
C970 C 0.47687 0.49999 0.57123 0.0
C971 C 0.51817 0.49366 0.59273 0.0
C972 C 0.53996 0.48817 0.63987 0.0
C973 C 0.47798 0.50236 0.49867 0.0
C974 C 0.49947 0.50014 0.47226 0.0
C975 C 0.51929 0.49603 0.52017 0.0
C976 C 0.502 0.50284 0.39611 0.0
C977 C 0.4562 0.50786 0.45153 0.0
C978 C 0.48951 0.48851 0.3359 0.0
C979 C 0.49244 0.49115 0.26493 0.0
C980 C 0.50801 0.50811 0.2528 0.0
C981 C 0.52052 0.52227 0.31303 0.0
C982 C 0.51759 0.51966 0.38358 0.0
H983 H 0.4428 0.51493 0.48419 0.0
H984 H 0.45989 0.52058 0.41627 0.0
H985 H 0.44892 0.49174 0.4164 0.0
H986 H 0.47775 0.47501 0.34373 0.0
H987 H 0.48285 0.47971 0.21979 0.0
H988 H 0.03525 0.46575 0.76644 0.0
H989 H 0.03024 0.47017 0.89339 0.0
H990 H 0.98117 0.52375 0.86002 0.0
H991 H 0.98602 0.51913 0.73142 0.0
H992 H 0.03856 0.50748 1.0003 0.0
H993 H 0.94565 0.48036 0.95813 0.0
H994 H 0.96315 0.47594 0.88641 0.0
H995 H 0.9521 0.50407 0.91312 0.0
C996 C 0.02333 0.47849 0.7859 0.0
C997 C 0.01089 0.49199 0.73866 0.0
C998 C 0.02051 0.48101 0.85874 0.0
C999 C 0.0051 0.49705 0.88653 0.0
C1000 C 0.99282 0.51089 0.83972 0.0
H1001 H 0.9662 0.53502 0.31237 0.0
H1002 H 0.97125 0.53063 0.18546 0.0
C1003 C 0.99565 0.50834 0.7663 0.0
C1004 C 0.00234 0.49919 0.9646 0.0
H1005 H 0.96303 0.49341 0.07863 0.0
C1006 C 0.02204 0.50437 1.01739 0.0
C1007 C 0.98083 0.49501 0.98719 0.0
C1008 C 0.95924 0.48833 0.93339 0.0
C1009 C 0.02076 0.50589 0.09176 0.0
C1010 C 0.99925 0.5017 0.11435 0.0
C1011 C 0.97956 0.49652 0.06155 0.0
C1012 C 0.99648 0.50384 0.19242 0.0
C1013 C 0.04236 0.51259 0.14555 0.0
C1014 C 0.00881 0.49004 0.23928 0.0
C1015 C 0.00596 0.49258 0.31268 0.0
C1016 C 0.99065 0.50886 0.34024 0.0
C1017 C 0.97817 0.52233 0.29296 0.0
C1018 C 0.98101 0.51983 0.22015 0.0
H1019 H 0.05592 0.52059 0.12082 0.0
H1020 H 0.03843 0.52495 0.19258 0.0
H1021 H 0.04953 0.49685 0.16574 0.0
H1022 H 0.02051 0.47722 0.21904 0.0
H1023 H 0.01564 0.48183 0.34763 0.0
loop_
_geom_bond_atom_site_label_1
_geom_bond_atom_site_label_2
_geom_bond_distance
_geom_bond_site_symmetry_2
_ccdc_geom_bond_type
Tb0 O3 2.453 . S
Tb0 O4 2.596 1_445 S
Tb0 O5 2.374 1_545 S
Tb0 O13 2.343 . S
Tb0 O15 2.353 1_455 S
Tb0 O17 2.427 . S
Tb0 O18 2.513 . S
C1 O5 1.251 . S
C1 O7 1.263 . S
Tb2 O4 2.343 . S
Tb2 O7 2.353 1_655 S
Tb2 O10 2.427 . S
Tb2 O11 2.513 . S
Tb2 O12 2.453 . S
Tb2 O13 2.596 1_665 S
Tb2 O14 2.374 1_565 S
O3 Tb0 2.453 . S
O3 C19 1.247 1_455 S
O4 Tb0 2.596 1_665 S
O4 Tb2 2.343 . S
O4 C19 1.259 1_565 S
O5 Tb0 2.374 1_565 S
O5 C1 1.251 . S
C6 O10 1.275 . S
C6 O11 1.246 . S
O7 C1 1.263 . S
O7 Tb2 2.353 1_455 S
C8 O12 1.241 1_455 S
C8 O13 1.260 1_565 S
C9 O14 1.250 . S
C9 O15 1.263 . S
O10 Tb2 2.427 . S
O10 C6 1.275 . S
O11 Tb2 2.513 . S
O11 C6 1.246 . S
O12 Tb2 2.453 . S
O12 C8 1.241 1_655 S
O13 Tb0 2.343 . S
O13 Tb2 2.596 1_445 S
O13 C8 1.260 1_545 S
O14 Tb2 2.374 1_545 S
O14 C9 1.250 . S
O15 Tb0 2.353 1_655 S
O15 C9 1.263 . S
C16 O17 1.275 . S
C16 O18 1.246 . S
O17 Tb0 2.427 . S
O17 C16 1.275 . S
O18 Tb0 2.513 . S
O18 C16 1.246 . S
C19 O3 1.247 1_655 S
C19 O4 1.259 1_545 S
Tb20 O23 2.453 . S
Tb20 O24 2.596 . S
Tb20 O25 2.374 . S
Tb20 O33 2.343 . S
Tb20 O35 2.353 . S
Tb20 O37 2.427 . S
Tb20 O38 2.513 . S
C21 O25 1.251 . S
C21 O27 1.263 . S
Tb22 O24 2.343 . S
Tb22 O27 2.353 . S
Tb22 O30 2.427 . S
Tb22 O31 2.513 . S
Tb22 O32 2.453 . S
Tb22 O33 2.596 . S
Tb22 O34 2.374 . S
O23 Tb20 2.453 . S
O23 C39 1.245 . S
O24 Tb20 2.596 . S
O24 Tb22 2.343 . S
O24 C39 1.259 . S
O25 Tb20 2.374 . S
O25 C21 1.251 . S
C26 O30 1.275 . S
C26 O31 1.246 . S
O27 C21 1.263 . S
O27 Tb22 2.353 . S
C28 O32 1.245 . S
C28 O33 1.259 . S
C29 O34 1.250 . S
C29 O35 1.263 . S
O30 Tb22 2.427 . S
O30 C26 1.275 . S
O31 Tb22 2.513 . S
O31 C26 1.246 . S
O32 Tb22 2.453 . S
O32 C28 1.245 . S
O33 Tb20 2.343 . S
O33 Tb22 2.596 . S
O33 C28 1.259 . S
O34 Tb22 2.374 . S
O34 C29 1.250 . S
O35 Tb20 2.353 . S
O35 C29 1.263 . S
C36 O37 1.275 . S
C36 O38 1.246 . S
O37 Tb20 2.427 . S
O37 C36 1.275 . S
O38 Tb20 2.513 . S
O38 C36 1.246 . S
C39 O23 1.245 . S
C39 O24 1.259 . S
Tb40 O43 2.453 . S
Tb40 O44 2.596 1_545 S
Tb40 O45 2.374 1_545 S
Tb40 O53 2.343 1_556 S
Tb40 O55 2.353 1_556 S
Tb40 O57 2.427 1_556 S
Tb40 O58 2.513 1_556 S
C41 O45 1.251 . S
C41 O47 1.263 . S
Tb42 O44 2.343 1_554 S
Tb42 O47 2.353 1_554 S
Tb42 O50 2.427 1_554 S
Tb42 O51 2.513 1_554 S
Tb42 O52 2.453 . S
Tb42 O53 2.596 1_565 S
Tb42 O54 2.374 1_565 S
O43 Tb40 2.453 . S
O43 C59 1.245 1_545 S
O44 Tb40 2.596 1_565 S
O44 Tb42 2.343 1_556 S
O44 C59 1.259 . S
O45 Tb40 2.374 1_565 S
O45 C41 1.251 . S
C46 O50 1.275 . S
C46 O51 1.246 . S
O47 C41 1.263 . S
O47 Tb42 2.353 1_556 S
C48 O52 1.245 1_545 S
C48 O53 1.259 . S
C49 O54 1.250 . S
C49 O55 1.263 . S
O50 Tb42 2.427 1_556 S
O50 C46 1.275 . S
O51 Tb42 2.513 1_556 S
O51 C46 1.246 . S
O52 Tb42 2.453 . S
O52 C48 1.245 1_565 S
O53 Tb40 2.343 1_554 S
O53 Tb42 2.596 1_545 S
O53 C48 1.259 . S
O54 Tb42 2.374 1_545 S
O54 C49 1.250 . S
O55 Tb40 2.353 1_554 S
O55 C49 1.263 . S
C56 O57 1.275 . S
C56 O58 1.246 . S
O57 Tb40 2.427 1_554 S
O57 C56 1.275 . S
O58 Tb40 2.513 1_554 S
O58 C56 1.246 . S
C59 O43 1.245 1_565 S
C59 O44 1.259 . S
Tb60 O63 2.453 . S
Tb60 O64 2.596 . S
Tb60 O65 2.374 . S
Tb60 O73 2.343 . S
Tb60 O75 2.353 . S
Tb60 O77 2.427 . S
Tb60 O78 2.513 . S
C61 O65 1.251 . S
C61 O67 1.263 . S
Tb62 O64 2.343 . S
Tb62 O67 2.353 . S
Tb62 O70 2.427 . S
Tb62 O71 2.513 . S
Tb62 O72 2.453 . S
Tb62 O73 2.596 . S
Tb62 O74 2.374 . S
O63 Tb60 2.453 . S
O63 C79 1.245 . S
O64 Tb60 2.596 . S
O64 Tb62 2.343 . S
O64 C79 1.259 . S
O65 Tb60 2.374 . S
O65 C61 1.251 . S
C66 O70 1.275 . S
C66 O71 1.246 . S
O67 C61 1.263 . S
O67 Tb62 2.353 . S
C68 O72 1.245 . S
C68 O73 1.259 . S
C69 O74 1.250 . S
C69 O75 1.263 . S
O70 Tb62 2.427 . S
O70 C66 1.275 . S
O71 Tb62 2.513 . S
O71 C66 1.246 . S
O72 Tb62 2.453 . S
O72 C68 1.245 . S
O73 Tb60 2.343 . S
O73 Tb62 2.596 . S
O73 C68 1.259 . S
O74 Tb62 2.374 . S
O74 C69 1.250 . S
O75 Tb60 2.353 . S
O75 C69 1.263 . S
C76 O77 1.275 . S
C76 O78 1.246 . S
O77 Tb60 2.427 . S
O77 C76 1.275 . S
O78 Tb60 2.513 . S
O78 C76 1.246 . S
C79 O63 1.245 . S
C79 O64 1.259 . S
Tb80 O83 2.453 . S
Tb80 O84 2.596 . S
Tb80 O85 2.374 . S
Tb80 O93 2.343 . S
Tb80 O95 2.353 . S
Tb80 O97 2.427 . S
Tb80 O98 2.513 . S
C81 O85 1.251 . S
C81 O87 1.263 . S
Tb82 O84 2.343 . S
Tb82 O87 2.353 . S
Tb82 O90 2.427 . S
Tb82 O91 2.513 . S
Tb82 O92 2.453 . S
Tb82 O93 2.596 . S
Tb82 O94 2.374 . S
O83 Tb80 2.453 . S
O83 C99 1.245 . S
O84 Tb80 2.596 . S
O84 Tb82 2.343 . S
O84 C99 1.259 . S
O85 Tb80 2.374 . S
O85 C81 1.251 . S
C86 O90 1.275 . S
C86 O91 1.246 . S
O87 C81 1.263 . S
O87 Tb82 2.353 . S
C88 O92 1.245 . S
C88 O93 1.259 . S
C89 O94 1.250 . S
C89 O95 1.263 . S
O90 Tb82 2.427 . S
O90 C86 1.275 . S
O91 Tb82 2.513 . S
O91 C86 1.246 . S
O92 Tb82 2.453 . S
O92 C88 1.245 . S
O93 Tb80 2.343 . S
O93 Tb82 2.596 . S
O93 C88 1.259 . S
O94 Tb82 2.374 . S
O94 C89 1.250 . S
O95 Tb80 2.353 . S
O95 C89 1.263 . S
C96 O97 1.275 . S
C96 O98 1.246 . S
O97 Tb80 2.427 . S
O97 C96 1.275 . S
O98 Tb80 2.513 . S
O98 C96 1.246 . S
C99 O83 1.245 . S
C99 O84 1.259 . S
Tb100 O103 2.453 . S
Tb100 O104 2.596 . S
Tb100 O105 2.374 . S
Tb100 O113 2.343 . S
Tb100 O115 2.353 . S
Tb100 O117 2.427 . S
Tb100 O118 2.513 . S
C101 O105 1.251 . S
C101 O107 1.263 . S
Tb102 O104 2.343 . S
Tb102 O107 2.353 . S
Tb102 O110 2.427 . S
Tb102 O111 2.513 . S
Tb102 O112 2.453 . S
Tb102 O113 2.596 . S
Tb102 O114 2.374 . S
O103 Tb100 2.453 . S
O103 C119 1.245 . S
O104 Tb100 2.596 . S
O104 Tb102 2.343 . S
O104 C119 1.259 . S
O105 Tb100 2.374 . S
O105 C101 1.251 . S
C106 O110 1.275 . S
C106 O111 1.246 . S
O107 C101 1.263 . S
O107 Tb102 2.353 . S
C108 O112 1.245 . S
C108 O113 1.259 . S
C109 O114 1.250 . S
C109 O115 1.263 . S
O110 Tb102 2.427 . S
O110 C106 1.275 . S
O111 Tb102 2.513 . S
O111 C106 1.246 . S
O112 Tb102 2.453 . S
O112 C108 1.245 . S
O113 Tb100 2.343 . S
O113 Tb102 2.596 . S
O113 C108 1.259 . S
O114 Tb102 2.374 . S
O114 C109 1.250 . S
O115 Tb100 2.353 . S
O115 C109 1.263 . S
C116 O117 1.275 . S
C116 O118 1.246 . S
O117 Tb100 2.427 . S
O117 C116 1.275 . S
O118 Tb100 2.513 . S
O118 C116 1.246 . S
C119 O103 1.245 . S
C119 O104 1.259 . S
Tb120 O123 2.453 . S
Tb120 O124 2.596 . S
Tb120 O125 2.374 . S
Tb120 O133 2.343 1_554 S
Tb120 O135 2.353 . S
Tb120 O137 2.427 1_554 S
Tb120 O138 2.513 1_554 S
C121 O125 1.251 . S
C121 O127 1.263 1_554 S
Tb122 O124 2.343 1_556 S
Tb122 O127 2.353 . S
Tb122 O130 2.427 1_556 S
Tb122 O131 2.513 1_556 S
Tb122 O132 2.453 . S
Tb122 O133 2.596 . S
Tb122 O134 2.374 . S
O123 Tb120 2.453 . S
O123 C139 1.245 . S
O124 Tb120 2.596 . S
O124 Tb122 2.343 1_554 S
O124 C139 1.259 . S
O125 Tb120 2.374 . S
O125 C121 1.251 . S
C126 O130 1.275 . S
C126 O131 1.246 . S
O127 C121 1.263 1_556 S
O127 Tb122 2.353 . S
C128 O132 1.245 . S
C128 O133 1.259 . S
C129 O134 1.250 . S
C129 O135 1.263 1_556 S
O130 Tb122 2.427 1_554 S
O130 C126 1.275 . S
O131 Tb122 2.513 1_554 S
O131 C126 1.246 . S
O132 Tb122 2.453 . S
O132 C128 1.245 . S
O133 Tb120 2.343 1_556 S
O133 Tb122 2.596 . S
O133 C128 1.259 . S
O134 Tb122 2.374 . S
O134 C129 1.250 . S
O135 Tb120 2.353 . S
O135 C129 1.263 1_554 S
C136 O137 1.275 . S
C136 O138 1.246 . S
O137 Tb120 2.427 1_556 S
O137 C136 1.275 . S
O138 Tb120 2.513 1_556 S
O138 C136 1.246 . S
C139 O123 1.245 . S
C139 O124 1.259 . S
Tb140 O143 2.453 . S
Tb140 O144 2.596 1_655 S
Tb140 O145 2.374 . S
Tb140 O153 2.343 . S
Tb140 O155 2.353 1_655 S
Tb140 O157 2.427 . S
Tb140 O158 2.513 . S
C141 O145 1.251 . S
C141 O147 1.263 . S
Tb142 O144 2.343 . S
Tb142 O147 2.353 1_455 S
Tb142 O150 2.427 . S
Tb142 O151 2.513 . S
Tb142 O152 2.453 . S
Tb142 O153 2.596 1_455 S
Tb142 O154 2.374 . S
O143 Tb140 2.453 . S
O143 C159 1.244 1_655 S
O144 Tb140 2.596 1_455 S
O144 Tb142 2.343 . S
O144 C159 1.260 . S
O145 Tb140 2.374 . S
O145 C141 1.251 . S
C146 O150 1.275 . S
C146 O151 1.246 . S
O147 C141 1.263 . S
O147 Tb142 2.353 1_655 S
C148 O152 1.244 . S
C148 O153 1.260 1_455 S
C149 O154 1.250 . S
C149 O155 1.263 . S
O150 Tb142 2.427 . S
O150 C146 1.275 . S
O151 Tb142 2.513 . S
O151 C146 1.246 . S
O152 Tb142 2.453 . S
O152 C148 1.244 . S
O153 Tb140 2.343 . S
O153 Tb142 2.596 1_655 S
O153 C148 1.260 1_655 S
O154 Tb142 2.374 . S
O154 C149 1.250 . S
O155 Tb140 2.353 1_455 S
O155 C149 1.263 . S
C156 O157 1.275 . S
C156 O158 1.246 . S
O157 Tb140 2.427 . S
O157 C156 1.275 . S
O158 Tb140 2.513 . S
O158 C156 1.246 . S
C159 O143 1.244 1_455 S
C159 O144 1.260 . S
H160 C168 0.929 . S
H161 C170 0.930 . S
H162 C172 0.930 . S
H163 C175 0.929 . S
H164 C178 0.930 . S
H165 C180 0.960 . S
H166 C180 0.960 . S
H167 C180 0.960 . S
C168 H160 0.929 . S
C168 C169 1.377 . S
C168 C170 1.384 . S
C169 C168 1.377 . S
C169 C175 1.390 . S
C170 H161 0.930 . S
C170 C168 1.384 . S
C170 C171 1.372 . S
C171 C170 1.372 . S
C171 C172 1.400 . S
C171 C176 1.490 . S
C172 H162 0.930 . S
C172 C171 1.400 . S
C172 C175 1.386 . S
H173 C189 0.930 . S
H174 C190 0.931 . S
C175 H163 0.929 . S
C175 C169 1.390 . S
C175 C172 1.386 . S
C176 C171 1.490 . S
C176 C178 1.395 . S
C176 C179 1.403 . S
H177 C183 0.930 . S
C178 H164 0.930 . S
C178 C176 1.395 . S
C178 C181 1.403 . S
C179 C176 1.403 . S
C179 C180 1.524 . S
C179 C183 1.400 . S
C180 H165 0.960 . S
C180 H166 0.960 . S
C180 H167 0.960 . S
C180 C179 1.524 . S
C181 C178 1.403 . S
C181 C182 1.392 . S
C181 C185 1.495 . S
C182 C181 1.392 . S
C182 C183 1.385 . S
C182 C184 1.478 . S
C183 H177 0.930 . S
C183 C179 1.400 . S
C183 C182 1.385 . S
C184 C182 1.478 . S
C184 C186 1.381 . S
C184 C190 1.383 . S
C185 C181 1.495 . S
C185 H191 0.959 . S
C185 H192 0.961 . S
C185 H193 0.960 . S
C186 C184 1.381 . S
C186 C187 1.394 . S
C186 H194 0.930 . S
C187 C186 1.394 . S
C187 C188 1.383 . S
C187 H195 0.929 . S
C188 C187 1.383 . S
C188 C189 1.377 . S
C189 H173 0.930 . S
C189 C188 1.377 . S
C189 C190 1.379 . S
C190 H174 0.931 . S
C190 C184 1.383 . S
C190 C189 1.379 . S
H191 C185 0.959 . S
H192 C185 0.961 . S
H193 C185 0.960 . S
H194 C186 0.930 . S
H195 C187 0.929 . S
H196 C204 0.929 . S
H197 C206 0.930 . S
H198 C208 0.930 . S
H199 C211 0.929 . S
H200 C214 0.930 . S
H201 C216 0.960 . S
H202 C216 0.960 . S
H203 C216 0.960 . S
C204 H196 0.929 . S
C204 C205 1.377 . S
C204 C206 1.384 . S
C205 C204 1.377 . S
C205 C211 1.390 . S
C206 H197 0.930 . S
C206 C204 1.384 . S
C206 C207 1.372 . S
C207 C206 1.372 . S
C207 C208 1.400 . S
C207 C212 1.490 . S
C208 H198 0.930 . S
C208 C207 1.400 . S
C208 C211 1.386 . S
H209 C225 0.930 . S
H210 C226 0.931 . S
C211 H199 0.929 . S
C211 C205 1.390 . S
C211 C208 1.386 . S
C212 C207 1.490 . S
C212 C214 1.395 . S
C212 C215 1.403 . S
H213 C219 0.930 . S
C214 H200 0.930 . S
C214 C212 1.395 . S
C214 C217 1.403 . S
C215 C212 1.403 . S
C215 C216 1.524 . S
C215 C219 1.400 . S
C216 H201 0.960 . S
C216 H202 0.960 . S
C216 H203 0.960 . S
C216 C215 1.524 . S
C217 C214 1.403 . S
C217 C218 1.392 . S
C217 C221 1.495 . S
C218 C217 1.392 . S
C218 C219 1.385 . S
C218 C220 1.478 . S
C219 H213 0.930 . S
C219 C215 1.400 . S
C219 C218 1.385 . S
C220 C218 1.478 . S
C220 C222 1.381 . S
C220 C226 1.383 . S
C221 C217 1.495 . S
C221 H227 0.959 . S
C221 H228 0.961 . S
C221 H229 0.960 . S
C222 C220 1.381 . S
C222 C223 1.394 . S
C222 H230 0.930 . S
C223 C222 1.394 . S
C223 C224 1.383 . S
C223 H231 0.929 . S
C224 C223 1.383 . S
C224 C225 1.377 . S
C225 H209 0.930 . S
C225 C224 1.377 . S
C225 C226 1.379 . S
C226 H210 0.931 . S
C226 C220 1.383 . S
C226 C225 1.379 . S
H227 C221 0.959 . S
H228 C221 0.961 . S
H229 C221 0.960 . S
H230 C222 0.930 . S
H231 C223 0.929 . S
H232 C240 0.929 . S
H233 C242 0.930 . S
H234 C244 0.930 . S
H235 C247 0.929 . S
H236 C250 0.930 . S
H237 C252 0.960 . S
H238 C252 0.960 . S
H239 C252 0.960 . S
C240 H232 0.929 . S
C240 C241 1.377 . S
C240 C242 1.384 . S
C241 C240 1.377 . S
C241 C247 1.390 . S
C242 H233 0.930 . S
C242 C240 1.384 . S
C242 C243 1.372 . S
C243 C242 1.372 . S
C243 C244 1.400 . S
C243 C248 1.490 . S
C244 H234 0.930 . S
C244 C243 1.400 . S
C244 C247 1.386 . S
H245 C261 0.930 . S
H246 C262 0.931 . S
C247 H235 0.929 . S
C247 C241 1.390 . S
C247 C244 1.386 . S
C248 C243 1.490 . S
C248 C250 1.395 . S
C248 C251 1.403 . S
H249 C255 0.930 . S
C250 H236 0.930 . S
C250 C248 1.395 . S
C250 C253 1.403 . S
C251 C248 1.403 . S
C251 C252 1.524 . S
C251 C255 1.400 . S
C252 H237 0.960 . S
C252 H238 0.960 . S
C252 H239 0.960 . S
C252 C251 1.524 . S
C253 C250 1.403 . S
C253 C254 1.392 . S
C253 C257 1.495 . S
C254 C253 1.392 . S
C254 C255 1.385 . S
C254 C256 1.478 . S
C255 H249 0.930 . S
C255 C251 1.400 . S
C255 C254 1.385 . S
C256 C254 1.478 . S
C256 C258 1.381 . S
C256 C262 1.383 . S
C257 C253 1.495 . S
C257 H263 0.959 . S
C257 H264 0.961 . S
C257 H265 0.960 . S
C258 C256 1.381 . S
C258 C259 1.394 . S
C258 H266 0.930 . S
C259 C258 1.394 . S
C259 C260 1.383 . S
C259 H267 0.929 . S
C260 C259 1.383 . S
C260 C261 1.377 . S
C261 H245 0.930 . S
C261 C260 1.377 . S
C261 C262 1.379 . S
C262 H246 0.931 . S
C262 C256 1.383 . S
C262 C261 1.379 . S
H263 C257 0.959 . S
H264 C257 0.961 . S
H265 C257 0.960 . S
H266 C258 0.930 . S
H267 C259 0.929 . S
H268 C276 0.929 . S
H269 C278 0.930 . S
H270 C280 0.930 . S
H271 C283 0.929 . S
H272 C286 0.930 . S
H273 C288 0.960 . S
H274 C288 0.960 . S
H275 C288 0.960 . S
C276 H268 0.929 . S
C276 C277 1.377 . S
C276 C278 1.384 . S
C277 C276 1.377 . S
C277 C283 1.390 . S
C278 H269 0.930 . S
C278 C276 1.384 . S
C278 C279 1.372 . S
C279 C278 1.372 . S
C279 C280 1.400 . S
C279 C284 1.490 . S
C280 H270 0.930 . S
C280 C279 1.400 . S
C280 C283 1.386 . S
H281 C297 0.930 . S
H282 C298 0.931 . S
C283 H271 0.929 . S
C283 C277 1.390 . S
C283 C280 1.386 . S
C284 C279 1.490 . S
C284 C286 1.395 . S
C284 C287 1.403 . S
H285 C291 0.930 . S
C286 H272 0.930 . S
C286 C284 1.395 . S
C286 C289 1.403 . S
C287 C284 1.403 . S
C287 C288 1.524 . S
C287 C291 1.400 . S
C288 H273 0.960 . S
C288 H274 0.960 . S
C288 H275 0.960 . S
C288 C287 1.524 . S
C289 C286 1.403 . S
C289 C290 1.392 . S
C289 C293 1.495 . S
C290 C289 1.392 . S
C290 C291 1.385 . S
C290 C292 1.478 . S
C291 H285 0.930 . S
C291 C287 1.400 . S
C291 C290 1.385 . S
C292 C290 1.478 . S
C292 C294 1.381 . S
C292 C298 1.383 . S
C293 C289 1.495 . S
C293 H299 0.959 . S
C293 H300 0.961 . S
C293 H301 0.960 . S
C294 C292 1.381 . S
C294 C295 1.394 . S
C294 H302 0.930 . S
C295 C294 1.394 . S
C295 C296 1.383 . S
C295 H303 0.929 . S
C296 C295 1.383 . S
C296 C297 1.377 . S
C297 H281 0.930 . S
C297 C296 1.377 . S
C297 C298 1.379 . S
C298 H282 0.931 . S
C298 C292 1.383 . S
C298 C297 1.379 . S
H299 C293 0.959 . S
H300 C293 0.961 . S
H301 C293 0.960 . S
H302 C294 0.930 . S
H303 C295 0.929 . S
H304 C312 0.929 . S
H305 C314 0.930 . S
H306 C316 0.930 . S
H307 C319 0.929 . S
H308 C322 0.930 . S
H309 C324 0.960 . S
H310 C324 0.960 . S
H311 C324 0.960 . S
C312 H304 0.929 . S
C312 C313 1.377 . S
C312 C314 1.384 . S
C313 C312 1.377 . S
C313 C319 1.390 . S
C314 H305 0.930 . S
C314 C312 1.384 . S
C314 C315 1.372 . S
C315 C314 1.372 . S
C315 C316 1.400 . S
C315 C320 1.490 . S
C316 H306 0.930 . S
C316 C315 1.400 . S
C316 C319 1.386 . S
H317 C333 0.930 . S
H318 C334 0.931 . S
C319 H307 0.929 . S
C319 C313 1.390 . S
C319 C316 1.386 . S
C320 C315 1.490 . S
C320 C322 1.395 . S
C320 C323 1.403 . S
H321 C327 0.930 . S
C322 H308 0.930 . S
C322 C320 1.395 . S
C322 C325 1.403 . S
C323 C320 1.403 . S
C323 C324 1.524 . S
C323 C327 1.400 . S
C324 H309 0.960 . S
C324 H310 0.960 . S
C324 H311 0.960 . S
C324 C323 1.524 . S
C325 C322 1.403 . S
C325 C326 1.392 . S
C325 C329 1.495 . S
C326 C325 1.392 . S
C326 C327 1.385 . S
C326 C328 1.478 . S
C327 H321 0.930 . S
C327 C323 1.400 . S
C327 C326 1.385 . S
C328 C326 1.478 . S
C328 C330 1.381 . S
C328 C334 1.383 . S
C329 C325 1.495 . S
C329 H335 0.959 . S
C329 H336 0.961 . S
C329 H337 0.960 . S
C330 C328 1.381 . S
C330 C331 1.394 . S
C330 H338 0.930 . S
C331 C330 1.394 . S
C331 C332 1.383 . S
C331 H339 0.929 . S
C332 C331 1.383 . S
C332 C333 1.377 . S
C333 H317 0.930 . S
C333 C332 1.377 . S
C333 C334 1.379 . S
C334 H318 0.931 . S
C334 C328 1.383 . S
C334 C333 1.379 . S
H335 C329 0.959 . S
H336 C329 0.961 . S
H337 C329 0.960 . S
H338 C330 0.930 . S
H339 C331 0.929 . S
H340 C348 0.929 . S
H341 C350 0.930 . S
H342 C352 0.930 . S
H343 C355 0.929 . S
H344 C358 0.930 . S
H345 C360 0.960 . S
H346 C360 0.960 . S
H347 C360 0.960 . S
C348 H340 0.929 . S
C348 C349 1.377 . S
C348 C350 1.384 . S
C349 C348 1.377 . S
C349 C355 1.390 . S
C350 H341 0.930 . S
C350 C348 1.384 . S
C350 C351 1.372 . S
C351 C350 1.372 . S
C351 C352 1.400 . S
C351 C356 1.490 . S
C352 H342 0.930 . S
C352 C351 1.400 . S
C352 C355 1.386 . S
H353 C369 0.930 . S
H354 C370 0.931 . S
C355 H343 0.929 . S
C355 C349 1.390 . S
C355 C352 1.386 . S
C356 C351 1.490 . S
C356 C358 1.395 . S
C356 C359 1.403 . S
H357 C363 0.930 . S
C358 H344 0.930 . S
C358 C356 1.395 . S
C358 C361 1.403 . S
C359 C356 1.403 . S
C359 C360 1.524 . S
C359 C363 1.400 . S
C360 H345 0.960 . S
C360 H346 0.960 . S
C360 H347 0.960 . S
C360 C359 1.524 . S
C361 C358 1.403 . S
C361 C362 1.392 . S
C361 C365 1.495 . S
C362 C361 1.392 . S
C362 C363 1.385 . S
C362 C364 1.478 . S
C363 H357 0.930 . S
C363 C359 1.400 . S
C363 C362 1.385 . S
C364 C362 1.478 . S
C364 C366 1.381 . S
C364 C370 1.383 . S
C365 C361 1.495 . S
C365 H371 0.959 . S
C365 H372 0.961 . S
C365 H373 0.960 . S
C366 C364 1.381 . S
C366 C367 1.394 . S
C366 H374 0.930 . S
C367 C366 1.394 . S
C367 C368 1.383 . S
C367 H375 0.929 . S
C368 C367 1.383 . S
C368 C369 1.377 . S
C369 H353 0.930 . S
C369 C368 1.377 . S
C369 C370 1.379 . S
C370 H354 0.931 . S
C370 C364 1.383 . S
C370 C369 1.379 . S
H371 C365 0.959 . S
H372 C365 0.961 . S
H373 C365 0.960 . S
H374 C366 0.930 . S
H375 C367 0.929 . S
H376 C384 0.929 . S
H377 C386 0.930 . S
H378 C388 0.930 . S
H379 C391 0.929 . S
H380 C394 0.930 . S
H381 C396 0.960 . S
H382 C396 0.960 . S
H383 C396 0.960 . S
C384 H376 0.929 . S
C384 C385 1.377 . S
C384 C386 1.384 . S
C385 C384 1.377 . S
C385 C391 1.390 . S
C386 H377 0.930 . S
C386 C384 1.384 . S
C386 C387 1.372 . S
C387 C386 1.372 . S
C387 C388 1.400 . S
C387 C392 1.490 . S
C388 H378 0.930 . S
C388 C387 1.400 . S
C388 C391 1.386 . S
H389 C405 0.930 1_556 S
H390 C406 0.931 . S
C391 H379 0.929 . S
C391 C385 1.390 . S
C391 C388 1.386 . S
C392 C387 1.490 . S
C392 C394 1.395 . S
C392 C395 1.403 . S
H393 C399 0.930 . S
C394 H380 0.930 . S
C394 C392 1.395 . S
C394 C397 1.403 . S
C395 C392 1.403 . S
C395 C396 1.524 . S
C395 C399 1.400 . S
C396 H381 0.960 . S
C396 H382 0.960 . S
C396 H383 0.960 . S
C396 C395 1.524 . S
C397 C394 1.403 . S
C397 C398 1.392 . S
C397 C401 1.495 . S
C398 C397 1.392 . S
C398 C399 1.385 . S
C398 C400 1.478 . S
C399 H393 0.930 . S
C399 C395 1.400 . S
C399 C398 1.385 . S
C400 C398 1.478 . S
C400 C402 1.381 . S
C400 C406 1.383 . S
C401 C397 1.495 . S
C401 H407 0.959 . S
C401 H408 0.961 . S
C401 H409 0.960 . S
C402 C400 1.381 . S
C402 C403 1.394 . S
C402 H410 0.930 . S
C403 C402 1.394 . S
C403 C404 1.383 . S
C403 H411 0.929 . S
C404 C403 1.383 . S
C404 C405 1.377 . S
C405 H389 0.930 1_554 S
C405 C404 1.377 . S
C405 C406 1.379 . S
C406 H390 0.931 . S
C406 C400 1.383 . S
C406 C405 1.379 . S
H407 C401 0.959 . S
H408 C401 0.961 . S
H409 C401 0.960 . S
H410 C402 0.930 . S
H411 C403 0.929 . S
H412 C420 0.929 . S
H413 C422 0.930 . S
H414 C424 0.930 . S
H415 C427 0.929 . S
H416 C430 0.930 . S
H417 C432 0.960 . S
H418 C432 0.960 . S
H419 C432 0.960 . S
C420 H412 0.929 . S
C420 C421 1.377 . S
C420 C422 1.384 . S
C421 C420 1.377 . S
C421 C427 1.390 . S
C422 H413 0.930 . S
C422 C420 1.384 . S
C422 C423 1.372 . S
C423 C422 1.372 . S
C423 C424 1.400 . S
C423 C428 1.490 . S
C424 H414 0.930 . S
C424 C423 1.400 . S
C424 C427 1.386 . S
H425 C441 0.930 . S
H426 C442 0.931 . S
C427 H415 0.929 . S
C427 C421 1.390 . S
C427 C424 1.386 . S
C428 C423 1.490 . S
C428 C430 1.395 . S
C428 C431 1.403 . S
H429 C435 0.930 . S
C430 H416 0.930 . S
C430 C428 1.395 . S
C430 C433 1.403 . S
C431 C428 1.403 . S
C431 C432 1.524 . S
C431 C435 1.400 . S
C432 H417 0.960 . S
C432 H418 0.960 . S
C432 H419 0.960 . S
C432 C431 1.524 . S
C433 C430 1.403 . S
C433 C434 1.392 . S
C433 C437 1.495 . S
C434 C433 1.392 . S
C434 C435 1.385 . S
C434 C436 1.478 . S
C435 H429 0.930 . S
C435 C431 1.400 . S
C435 C434 1.385 . S
C436 C434 1.478 . S
C436 C438 1.381 . S
C436 C442 1.383 . S
C437 C433 1.495 . S
C437 H443 0.959 1_556 S
C437 H444 0.961 . S
C437 H445 0.960 1_556 S
C438 C436 1.381 . S
C438 C439 1.394 . S
C438 H446 0.930 . S
C439 C438 1.394 . S
C439 C440 1.383 . S
C439 H447 0.929 . S
C440 C439 1.383 . S
C440 C441 1.377 . S
C441 H425 0.930 . S
C441 C440 1.377 . S
C441 C442 1.379 . S
C442 H426 0.931 . S
C442 C436 1.383 . S
C442 C441 1.379 . S
H443 C437 0.959 1_554 S
H444 C437 0.961 . S
H445 C437 0.960 1_554 S
H446 C438 0.930 . S
H447 C439 0.929 . S
H448 C456 0.929 . S
H449 C458 0.930 . S
H450 C460 0.930 . S
H451 C463 0.929 . S
H452 C466 0.930 . S
H453 C468 0.960 . S
H454 C468 0.960 . S
H455 C468 0.960 . S
C456 H448 0.929 . S
C456 C457 1.377 . S
C456 C458 1.384 . S
C457 C456 1.377 . S
C457 C463 1.390 . S
C458 H449 0.930 . S
C458 C456 1.384 . S
C458 C459 1.372 . S
C459 C458 1.372 . S
C459 C460 1.400 . S
C459 C464 1.490 . S
C460 H450 0.930 . S
C460 C459 1.400 . S
C460 C463 1.386 . S
H461 C477 0.930 . S
H462 C478 0.931 . S
C463 H451 0.929 . S
C463 C457 1.390 . S
C463 C460 1.386 . S
C464 C459 1.490 . S
C464 C466 1.395 . S
C464 C467 1.403 . S
H465 C471 0.930 . S
C466 H452 0.930 . S
C466 C464 1.395 . S
C466 C469 1.403 . S
C467 C464 1.403 . S
C467 C468 1.524 . S
C467 C471 1.400 . S
C468 H453 0.960 . S
C468 H454 0.960 . S
C468 H455 0.960 . S
C468 C467 1.524 . S
C469 C466 1.403 . S
C469 C470 1.392 . S
C469 C473 1.495 . S
C470 C469 1.392 . S
C470 C471 1.385 . S
C470 C472 1.478 . S
C471 H465 0.930 . S
C471 C467 1.400 . S
C471 C470 1.385 . S
C472 C470 1.478 . S
C472 C474 1.381 . S
C472 C478 1.383 . S
C473 C469 1.495 . S
C473 H479 0.959 1_556 S
C473 H480 0.967 . S
C473 H481 0.960 . S
C474 C472 1.381 . S
C474 C475 1.394 . S
C474 H482 0.930 . S
C475 C474 1.394 . S
C475 C476 1.383 . S
C475 H483 0.929 . S
C476 C475 1.383 . S
C476 C477 1.377 . S
C477 H461 0.930 . S
C477 C476 1.377 . S
C477 C478 1.379 . S
C478 H462 0.931 . S
C478 C472 1.383 . S
C478 C477 1.379 . S
H479 C473 0.959 1_554 S
H480 C473 0.967 . S
H481 C473 0.960 . S
H482 C474 0.930 . S
H483 C475 0.929 . S
H484 C492 0.929 . S
H485 C494 0.930 . S
H486 C496 0.930 . S
H487 C499 0.929 . S
H488 C502 0.930 . S
H489 C504 0.960 . S
H490 C504 0.960 . S
H491 C504 0.960 . S
C492 H484 0.929 . S
C492 C493 1.377 . S
C492 C494 1.384 . S
C493 C492 1.377 . S
C493 C499 1.390 . S
C494 H485 0.930 . S
C494 C492 1.384 . S
C494 C495 1.372 . S
C495 C494 1.372 . S
C495 C496 1.400 . S
C495 C500 1.490 . S
C496 H486 0.930 . S
C496 C495 1.400 . S
C496 C499 1.386 . S
H497 C513 0.930 . S
H498 C514 0.931 . S
C499 H487 0.929 . S
C499 C493 1.390 . S
C499 C496 1.386 . S
C500 C495 1.490 . S
C500 C502 1.395 . S
C500 C503 1.403 . S
H501 C507 0.930 . S
C502 H488 0.930 . S
C502 C500 1.395 . S
C502 C505 1.403 . S
C503 C500 1.403 . S
C503 C504 1.524 . S
C503 C507 1.400 . S
C504 H489 0.960 . S
C504 H490 0.960 . S
C504 H491 0.960 . S
C504 C503 1.524 . S
C505 C502 1.403 . S
C505 C506 1.392 . S
C505 C509 1.495 . S
C506 C505 1.392 . S
C506 C507 1.385 . S
C506 C508 1.478 . S
C507 H501 0.930 . S
C507 C503 1.400 . S
C507 C506 1.385 . S
C508 C506 1.478 . S
C508 C510 1.381 . S
C508 C514 1.383 . S
C509 C505 1.495 . S
C509 H515 0.959 . S
C509 H516 0.961 . S
C509 H517 0.960 . S
C510 C508 1.381 . S
C510 C511 1.394 1_554 S
C510 H518 0.930 1_554 S
C511 C510 1.394 1_556 S
C511 C512 1.383 1_556 S
C511 H519 0.929 . S
C512 C511 1.383 1_554 S
C512 C513 1.377 . S
C513 H497 0.930 . S
C513 C512 1.377 . S
C513 C514 1.379 . S
C514 H498 0.931 . S
C514 C508 1.383 . S
C514 C513 1.379 . S
H515 C509 0.959 . S
H516 C509 0.961 . S
H517 C509 0.960 . S
H518 C510 0.930 1_556 S
H519 C511 0.929 . S
H520 C528 0.929 . S
H521 C530 0.930 . S
H522 C532 0.930 . S
H523 C535 0.929 . S
H524 C538 0.930 . S
H525 C540 0.960 . S
H526 C540 0.960 . S
H527 C540 0.960 . S
C528 H520 0.929 . S
C528 C529 1.377 . S
C528 C530 1.384 . S
C529 C528 1.377 . S
C529 C535 1.390 . S
C530 H521 0.930 . S
C530 C528 1.384 . S
C530 C531 1.372 . S
C531 C530 1.372 . S
C531 C532 1.400 . S
C531 C536 1.490 . S
C532 H522 0.930 . S
C532 C531 1.400 . S
C532 C535 1.386 . S
H533 C549 0.930 . S
H534 C550 0.931 . S
C535 H523 0.929 . S
C535 C529 1.390 . S
C535 C532 1.386 . S
C536 C531 1.490 . S
C536 C538 1.395 . S
C536 C539 1.403 . S
H537 C543 0.930 . S
C538 H524 0.930 . S
C538 C536 1.395 . S
C538 C541 1.403 . S
C539 C536 1.403 . S
C539 C540 1.524 . S
C539 C543 1.400 . S
C540 H525 0.960 . S
C540 H526 0.960 . S
C540 H527 0.960 . S
C540 C539 1.524 . S
C541 C538 1.403 . S
C541 C542 1.392 . S
C541 C545 1.495 . S
C542 C541 1.392 . S
C542 C543 1.385 . S
C542 C544 1.478 . S
C543 H537 0.930 . S
C543 C539 1.400 . S
C543 C542 1.385 . S
C544 C542 1.478 . S
C544 C546 1.381 . S
C544 C550 1.383 . S
C545 C541 1.495 . S
C545 H551 0.959 . S
C545 H552 0.961 . S
C545 H553 0.960 . S
C546 C544 1.381 . S
C546 C547 1.394 . S
C546 H554 0.930 . S
C547 C546 1.394 . S
C547 C548 1.383 . S
C547 H555 0.929 . S
C548 C547 1.383 . S
C548 C549 1.377 . S
C549 H533 0.930 . S
C549 C548 1.377 . S
C549 C550 1.379 . S
C550 H534 0.931 . S
C550 C544 1.383 . S
C550 C549 1.379 . S
H551 C545 0.959 . S
H552 C545 0.961 . S
H553 C545 0.960 . S
H554 C546 0.930 . S
H555 C547 0.929 . S
H556 C564 0.929 . S
H557 C566 0.930 . S
H558 C568 0.930 . S
H559 C571 0.929 . S
H560 C574 0.930 . S
H561 C576 0.960 . S
H562 C576 0.960 . S
H563 C576 0.960 . S
C564 H556 0.929 . S
C564 C565 1.377 . S
C564 C566 1.384 . S
C565 C564 1.377 . S
C565 C571 1.390 . S
C566 H557 0.930 . S
C566 C564 1.384 . S
C566 C567 1.372 . S
C567 C566 1.372 . S
C567 C568 1.400 . S
C567 C572 1.490 . S
C568 H558 0.930 . S
C568 C567 1.400 . S
C568 C571 1.386 . S
H569 C585 0.930 . S
H570 C586 0.931 . S
C571 H559 0.929 . S
C571 C565 1.390 . S
C571 C568 1.386 . S
C572 C567 1.490 . S
C572 C574 1.395 . S
C572 C575 1.403 . S
H573 C579 0.930 . S
C574 H560 0.930 . S
C574 C572 1.395 . S
C574 C577 1.403 . S
C575 C572 1.403 . S
C575 C576 1.524 . S
C575 C579 1.400 . S
C576 H561 0.960 . S
C576 H562 0.960 . S
C576 H563 0.960 . S
C576 C575 1.524 . S
C577 C574 1.403 . S
C577 C578 1.392 . S
C577 C581 1.495 . S
C578 C577 1.392 . S
C578 C579 1.385 . S
C578 C580 1.478 . S
C579 H573 0.930 . S
C579 C575 1.400 . S
C579 C578 1.385 . S
C580 C578 1.478 . S
C580 C582 1.381 . S
C580 C586 1.383 . S
C581 C577 1.495 . S
C581 H587 0.959 . S
C581 H588 0.961 . S
C581 H589 0.960 . S
C582 C580 1.381 . S
C582 C583 1.394 . S
C582 H590 0.930 . S
C583 C582 1.394 . S
C583 C584 1.383 . S
C583 H591 0.929 . S
C584 C583 1.383 . S
C584 C585 1.377 . S
C585 H569 0.930 . S
C585 C584 1.377 . S
C585 C586 1.379 . S
C586 H570 0.931 . S
C586 C580 1.383 . S
C586 C585 1.379 . S
H587 C581 0.959 . S
H588 C581 0.961 . S
H589 C581 0.960 . S
H590 C582 0.930 . S
H591 C583 0.929 . S
H592 C600 0.929 . S
H593 C602 0.930 . S
H594 C604 0.930 . S
H595 C607 0.929 . S
H596 C610 0.930 . S
H597 C612 0.960 . S
H598 C612 0.960 . S
H599 C612 0.960 . S
C600 H592 0.929 . S
C600 C601 1.377 . S
C600 C602 1.384 . S
C601 C600 1.377 . S
C601 C607 1.390 . S
C602 H593 0.930 . S
C602 C600 1.384 . S
C602 C603 1.372 . S
C603 C602 1.372 . S
C603 C604 1.400 . S
C603 C608 1.490 . S
C604 H594 0.930 . S
C604 C603 1.400 . S
C604 C607 1.386 . S
H605 C621 0.930 . S
H606 C622 0.931 . S
C607 H595 0.929 . S
C607 C601 1.390 . S
C607 C604 1.386 . S
C608 C603 1.490 . S
C608 C610 1.395 . S
C608 C611 1.403 . S
H609 C615 0.930 . S
C610 H596 0.930 . S
C610 C608 1.395 . S
C610 C613 1.403 . S
C611 C608 1.403 . S
C611 C612 1.524 . S
C611 C615 1.400 . S
C612 H597 0.960 . S
C612 H598 0.960 . S
C612 H599 0.960 . S
C612 C611 1.524 . S
C613 C610 1.403 . S
C613 C614 1.392 . S
C613 C617 1.495 1_554 S
C614 C613 1.392 . S
C614 C615 1.385 . S
C614 C616 1.478 . S
C615 H609 0.930 . S
C615 C611 1.400 . S
C615 C614 1.385 . S
C616 C614 1.478 . S
C616 C618 1.381 . S
C616 C622 1.383 . S
C617 C613 1.495 1_556 S
C617 H623 0.959 . S
C617 H624 0.961 . S
C617 H625 0.960 . S
C618 C616 1.381 . S
C618 C619 1.394 . S
C618 H626 0.930 . S
C619 C618 1.394 . S
C619 C620 1.383 . S
C619 H627 0.929 . S
C620 C619 1.383 . S
C620 C621 1.377 . S
C621 H605 0.930 . S
C621 C620 1.377 . S
C621 C622 1.379 . S
C622 H606 0.931 . S
C622 C616 1.383 . S
C622 C621 1.379 . S
H623 C617 0.959 . S
H624 C617 0.961 . S
H625 C617 0.960 . S
H626 C618 0.930 . S
H627 C619 0.929 . S
H628 C636 0.929 1_554 S
H629 C638 0.930 1_554 S
H630 C640 0.930 . S
H631 C643 0.929 . S
H632 C646 0.930 1_554 S
H633 C648 0.960 . S
H634 C648 0.960 . S
H635 C648 0.960 . S
C636 H628 0.929 1_556 S
C636 C637 1.377 . S
C636 C638 1.384 . S
C637 C636 1.377 . S
C637 C643 1.390 . S
C638 H629 0.930 1_556 S
C638 C636 1.384 . S
C638 C639 1.372 . S
C639 C638 1.372 . S
C639 C640 1.400 . S
C639 C644 1.490 . S
C640 H630 0.930 . S
C640 C639 1.400 . S
C640 C643 1.386 . S
H641 C657 0.930 . S
H642 C658 0.931 . S
C643 H631 0.929 . S
C643 C637 1.390 . S
C643 C640 1.386 . S
C644 C639 1.490 . S
C644 C646 1.395 . S
C644 C647 1.403 . S
H645 C651 0.930 . S
C646 H632 0.930 1_556 S
C646 C644 1.395 . S
C646 C649 1.403 . S
C647 C644 1.403 . S
C647 C648 1.524 . S
C647 C651 1.400 . S
C648 H633 0.960 . S
C648 H634 0.960 . S
C648 H635 0.960 . S
C648 C647 1.524 . S
C649 C646 1.403 . S
C649 C650 1.392 . S
C649 C653 1.495 1_556 S
C650 C649 1.392 . S
C650 C651 1.385 . S
C650 C652 1.478 . S
C651 H645 0.930 . S
C651 C647 1.400 . S
C651 C650 1.385 . S
C652 C650 1.478 . S
C652 C654 1.381 . S
C652 C658 1.383 . S
C653 C649 1.495 1_554 S
C653 H659 0.959 . S
C653 H660 0.961 1_554 S
C653 H661 0.960 . S
C654 C652 1.381 . S
C654 C655 1.394 . S
C654 H662 0.930 . S
C655 C654 1.394 . S
C655 C656 1.383 . S
C655 H663 0.929 . S
C656 C655 1.383 . S
C656 C657 1.377 . S
C657 H641 0.930 . S
C657 C656 1.377 . S
C657 C658 1.379 . S
C658 H642 0.931 . S
C658 C652 1.383 . S
C658 C657 1.379 . S
H659 C653 0.959 . S
H660 C653 0.961 1_556 S
H661 C653 0.960 . S
H662 C654 0.930 . S
H663 C655 0.929 . S
H664 C672 0.929 . S
H665 C674 0.930 . S
H666 C676 0.930 . S
H667 C679 0.929 . S
H668 C682 0.930 . S
H669 C684 0.960 . S
H670 C684 0.960 . S
H671 C684 0.960 . S
C672 H664 0.929 . S
C672 C673 1.377 . S
C672 C674 1.384 . S
C673 C672 1.377 . S
C673 C679 1.390 . S
C674 H665 0.930 . S
C674 C672 1.384 . S
C674 C675 1.372 . S
C675 C674 1.372 . S
C675 C676 1.400 . S
C675 C680 1.490 . S
C676 H666 0.930 . S
C676 C675 1.400 . S
C676 C679 1.386 . S
H677 C693 0.930 . S
H678 C694 0.931 . S
C679 H667 0.929 . S
C679 C673 1.390 . S
C679 C676 1.386 . S
C680 C675 1.490 . S
C680 C682 1.395 . S
C680 C683 1.403 . S
H681 C687 0.930 . S
C682 H668 0.930 . S
C682 C680 1.395 . S
C682 C685 1.403 . S
C683 C680 1.403 . S
C683 C684 1.524 . S
C683 C687 1.400 . S
C684 H669 0.960 . S
C684 H670 0.960 . S
C684 H671 0.960 . S
C684 C683 1.524 . S
C685 C682 1.403 . S
C685 C686 1.392 . S
C685 C689 1.495 . S
C686 C685 1.392 . S
C686 C687 1.385 . S
C686 C688 1.478 . S
C687 H681 0.930 . S
C687 C683 1.400 . S
C687 C686 1.385 . S
C688 C686 1.478 . S
C688 C690 1.381 . S
C688 C694 1.383 . S
C689 C685 1.495 . S
C689 H695 0.959 . S
C689 H696 0.961 . S
C689 H697 0.960 . S
C690 C688 1.381 . S
C690 C691 1.394 . S
C690 H698 0.930 . S
C691 C690 1.394 . S
C691 C692 1.383 . S
C691 H699 0.929 . S
C692 C691 1.383 . S
C692 C693 1.377 . S
C693 H677 0.930 . S
C693 C692 1.377 . S
C693 C694 1.379 . S
C694 H678 0.931 . S
C694 C688 1.383 . S
C694 C693 1.379 . S
H695 C689 0.959 . S
H696 C689 0.961 . S
H697 C689 0.960 . S
H698 C690 0.930 . S
H699 C691 0.929 . S
H700 C708 0.929 . S
H701 C710 0.930 . S
H702 C712 0.930 . S
H703 C715 0.929 . S
H704 C718 0.930 . S
H705 C720 0.960 . S
H706 C720 0.960 . S
H707 C720 0.960 . S
C708 H700 0.929 . S
C708 C709 1.377 . S
C708 C710 1.384 . S
C709 C708 1.377 . S
C709 C715 1.390 . S
C710 H701 0.930 . S
C710 C708 1.384 . S
C710 C711 1.372 . S
C711 C710 1.372 . S
C711 C712 1.400 . S
C711 C716 1.490 . S
C712 H702 0.930 . S
C712 C711 1.400 . S
C712 C715 1.386 . S
H713 C729 0.930 . S
H714 C730 0.931 . S
C715 H703 0.929 . S
C715 C709 1.390 . S
C715 C712 1.386 . S
C716 C711 1.490 . S
C716 C718 1.395 . S
C716 C719 1.403 . S
H717 C723 0.930 . S
C718 H704 0.930 . S
C718 C716 1.395 . S
C718 C721 1.403 . S
C719 C716 1.403 . S
C719 C720 1.524 . S
C719 C723 1.400 . S
C720 H705 0.960 . S
C720 H706 0.960 . S
C720 H707 0.960 . S
C720 C719 1.524 . S
C721 C718 1.403 . S
C721 C722 1.392 . S
C721 C725 1.495 . S
C722 C721 1.392 . S
C722 C723 1.385 . S
C722 C724 1.478 . S
C723 H717 0.930 . S
C723 C719 1.400 . S
C723 C722 1.385 . S
C724 C722 1.478 . S
C724 C726 1.381 . S
C724 C730 1.383 . S
C725 C721 1.495 . S
C725 H731 0.959 . S
C725 H732 0.961 . S
C725 H733 0.960 . S
C726 C724 1.381 . S
C726 C727 1.394 . S
C726 H734 0.930 . S
C727 C726 1.394 . S
C727 C728 1.383 . S
C727 H735 0.929 . S
C728 C727 1.383 . S
C728 C729 1.377 . S
C729 H713 0.930 . S
C729 C728 1.377 . S
C729 C730 1.379 . S
C730 H714 0.931 . S
C730 C724 1.383 . S
C730 C729 1.379 . S
H731 C725 0.959 . S
H732 C725 0.961 . S
H733 C725 0.960 . S
H734 C726 0.930 . S
H735 C727 0.929 . S
H736 C744 0.929 . S
H737 C746 0.930 . S
H738 C748 0.930 . S
H739 C751 0.929 . S
H740 C754 0.930 . S
H741 C756 0.960 . S
H742 C756 0.960 1_655 S
H743 C756 0.960 . S
C744 H736 0.929 . S
C744 C745 1.377 . S
C744 C746 1.384 . S
C745 C744 1.377 . S
C745 C751 1.390 1_665 S
C746 H737 0.930 . S
C746 C744 1.384 . S
C746 C747 1.372 . S
C747 C746 1.372 . S
C747 C748 1.400 1_665 S
C747 C752 1.490 . S
C748 H738 0.930 . S
C748 C747 1.400 1_445 S
C748 C751 1.386 . S
H749 C765 0.930 . S
H750 C766 0.931 . S
C751 H739 0.929 . S
C751 C745 1.390 1_445 S
C751 C748 1.386 . S
C752 C747 1.490 . S
C752 C754 1.395 . S
C752 C755 1.403 1_665 S
H753 C759 0.930 . S
C754 H740 0.930 . S
C754 C752 1.395 . S
C754 C757 1.403 1_556 S
C755 C752 1.403 1_445 S
C755 C756 1.524 . S
C755 C759 1.400 1_556 S
C756 H741 0.960 . S
C756 H742 0.960 1_455 S
C756 H743 0.960 . S
C756 C755 1.524 . S
C757 C754 1.403 1_554 S
C757 C758 1.396 . S
C757 C761 1.495 . S
C758 C757 1.396 . S
C758 C759 1.378 1_665 S
C758 C760 1.484 1_655 S
C759 H753 0.930 . S
C759 C755 1.400 1_554 S
C759 C758 1.378 1_445 S
C760 C758 1.484 1_455 S
C760 C762 1.360 1_455 S
C760 C766 1.401 1_565 S
C761 C757 1.495 . S
C761 H767 0.959 . S
C761 H768 0.961 1_655 S
C761 H769 0.960 . S
C762 C760 1.360 1_655 S
C762 C763 1.394 . S
C762 H770 0.930 . S
C763 C762 1.394 . S
C763 C764 1.383 1_665 S
C763 H771 0.929 . S
C764 C763 1.383 1_445 S
C764 C765 1.377 . S
C765 H749 0.930 . S
C765 C764 1.377 . S
C765 C766 1.379 . S
C766 H750 0.931 . S
C766 C760 1.401 1_545 S
C766 C765 1.379 . S
H767 C761 0.959 . S
H768 C761 0.961 1_455 S
H769 C761 0.960 . S
H770 C762 0.930 . S
H771 C763 0.929 . S
H772 C780 0.929 . S
H773 C782 0.930 . S
H774 C784 0.930 . S
H775 C787 0.929 . S
H776 C790 0.930 . S
H777 C792 0.960 . S
H778 C792 0.960 . S
H779 C792 0.960 . S
C780 H772 0.929 . S
C780 C781 1.377 . S
C780 C782 1.384 . S
C781 C780 1.377 . S
C781 C787 1.390 . S
C782 H773 0.930 . S
C782 C780 1.384 . S
C782 C783 1.372 . S
C783 C782 1.372 . S
C783 C784 1.400 . S
C783 C788 1.490 . S
C784 H774 0.930 . S
C784 C783 1.400 . S
C784 C787 1.386 . S
H785 C801 0.930 . S
H786 C802 0.931 . S
C787 H775 0.929 . S
C787 C781 1.390 . S
C787 C784 1.386 . S
C788 C783 1.490 . S
C788 C790 1.395 . S
C788 C791 1.403 . S
H789 C795 0.930 . S
C790 H776 0.930 . S
C790 C788 1.395 . S
C790 C793 1.403 . S
C791 C788 1.403 . S
C791 C792 1.524 . S
C791 C795 1.400 . S
C792 H777 0.960 . S
C792 H778 0.960 . S
C792 H779 0.960 . S
C792 C791 1.524 . S
C793 C790 1.403 . S
C793 C794 1.392 . S
C793 C797 1.495 . S
C794 C793 1.392 . S
C794 C795 1.385 . S
C794 C796 1.478 . S
C795 H789 0.930 . S
C795 C791 1.400 . S
C795 C794 1.385 . S
C796 C794 1.478 . S
C796 C798 1.381 . S
C796 C802 1.383 . S
C797 C793 1.495 . S
C797 H803 0.959 . S
C797 H804 0.961 . S
C797 H805 0.960 . S
C798 C796 1.381 . S
C798 C799 1.394 . S
C798 H806 0.930 . S
C799 C798 1.394 . S
C799 C800 1.383 1_554 S
C799 H807 0.929 . S
C800 C799 1.383 1_556 S
C800 C801 1.377 . S
C801 H785 0.930 . S
C801 C800 1.377 . S
C801 C802 1.379 1_556 S
C802 H786 0.931 . S
C802 C796 1.383 . S
C802 C801 1.379 1_554 S
H803 C797 0.959 . S
H804 C797 0.961 . S
H805 C797 0.960 . S
H806 C798 0.930 . S
H807 C799 0.929 . S
H808 C816 0.929 . S
H809 C818 0.930 . S
H810 C820 0.930 . S
H811 C823 0.929 . S
H812 C826 0.930 . S
H813 C828 0.960 . S
H814 C828 0.960 . S
H815 C828 0.960 . S
C816 H808 0.929 . S
C816 C817 1.377 1_545 S
C816 C818 1.384 . S
C817 C816 1.377 1_565 S
C817 C823 1.390 . S
C818 H809 0.930 . S
C818 C816 1.384 . S
C818 C819 1.372 1_545 S
C819 C818 1.372 1_565 S
C819 C820 1.400 . S
C819 C824 1.490 . S
C820 H810 0.930 . S
C820 C819 1.400 . S
C820 C823 1.386 . S
H821 C837 0.930 . S
H822 C838 0.931 . S
C823 H811 0.929 . S
C823 C817 1.390 . S
C823 C820 1.386 . S
C824 C819 1.490 . S
C824 C826 1.395 . S
C824 C827 1.403 1_565 S
H825 C831 0.930 . S
C826 H812 0.930 . S
C826 C824 1.395 . S
C826 C829 1.403 . S
C827 C824 1.403 1_545 S
C827 C828 1.524 . S
C827 C831 1.400 . S
C828 H813 0.960 . S
C828 H814 0.960 . S
C828 H815 0.960 . S
C828 C827 1.524 . S
C829 C826 1.403 . S
C829 C830 1.393 1_565 S
C829 C833 1.495 . S
C830 C829 1.393 1_545 S
C830 C831 1.385 . S
C830 C832 1.477 . S
C831 H825 0.930 . S
C831 C827 1.400 . S
C831 C830 1.385 . S
C832 C830 1.477 . S
C832 C834 1.381 . S
C832 C838 1.383 1_545 S
C833 C829 1.495 . S
C833 H839 0.959 . S
C833 H840 0.961 . S
C833 H841 0.960 . S
C834 C832 1.381 . S
C834 C835 1.394 . S
C834 H842 0.930 . S
C835 C834 1.394 . S
C835 C836 1.383 . S
C835 H843 0.929 . S
C836 C835 1.383 . S
C836 C837 1.377 1_545 S
C837 H821 0.930 . S
C837 C836 1.377 1_565 S
C837 C838 1.379 . S
C838 H822 0.931 . S
C838 C832 1.383 1_565 S
C838 C837 1.379 . S
H839 C833 0.959 . S
H840 C833 0.961 . S
H841 C833 0.960 . S
H842 C834 0.930 . S
H843 C835 0.929 . S
H844 C852 0.929 . S
H845 C854 0.930 . S
H846 C856 0.930 . S
H847 C859 0.929 1_554 S
H848 C862 0.930 . S
H849 C864 0.960 . S
H850 C864 0.960 . S
H851 C864 0.960 . S
C852 H844 0.929 . S
C852 C853 1.377 . S
C852 C854 1.384 1_554 S
C853 C852 1.377 . S
C853 C859 1.390 1_554 S
C854 H845 0.930 . S
C854 C852 1.384 1_556 S
C854 C855 1.372 . S
C855 C854 1.372 . S
C855 C856 1.400 . S
C855 C860 1.490 . S
C856 H846 0.930 . S
C856 C855 1.400 . S
C856 C859 1.386 . S
H857 C873 0.930 . S
H858 C874 0.931 . S
C859 H847 0.929 1_556 S
C859 C853 1.390 1_556 S
C859 C856 1.386 . S
C860 C855 1.490 . S
C860 C862 1.395 . S
C860 C863 1.403 . S
H861 C867 0.930 . S
C862 H848 0.930 . S
C862 C860 1.395 . S
C862 C865 1.403 . S
C863 C860 1.403 . S
C863 C864 1.524 . S
C863 C867 1.400 . S
C864 H849 0.960 . S
C864 H850 0.960 . S
C864 H851 0.960 . S
C864 C863 1.524 . S
C865 C862 1.403 . S
C865 C866 1.392 . S
C865 C869 1.495 . S
C866 C865 1.392 . S
C866 C867 1.385 . S
C866 C868 1.478 . S
C867 H861 0.930 . S
C867 C863 1.400 . S
C867 C866 1.385 . S
C868 C866 1.478 . S
C868 C870 1.381 . S
C868 C874 1.383 . S
C869 C865 1.495 . S
C869 H875 0.959 . S
C869 H876 0.961 . S
C869 H877 0.960 . S
C870 C868 1.381 . S
C870 C871 1.394 . S
C870 H878 0.930 . S
C871 C870 1.394 . S
C871 C872 1.383 . S
C871 H879 0.929 . S
C872 C871 1.383 . S
C872 C873 1.377 . S
C873 H857 0.930 . S
C873 C872 1.377 . S
C873 C874 1.379 . S
C874 H858 0.931 . S
C874 C868 1.383 . S
C874 C873 1.379 . S
H875 C869 0.959 . S
H876 C869 0.961 . S
H877 C869 0.960 . S
H878 C870 0.930 . S
H879 C871 0.929 . S
H880 C888 0.929 . S
H881 C890 0.930 . S
H882 C892 0.930 . S
H883 C895 0.929 . S
H884 C898 0.930 . S
H885 C900 0.960 . S
H886 C900 0.960 . S
H887 C900 0.960 . S
C888 H880 0.929 . S
C888 C889 1.377 1_556 S
C888 C890 1.384 . S
C889 C888 1.377 1_554 S
C889 C895 1.390 . S
C890 H881 0.930 . S
C890 C888 1.384 . S
C890 C891 1.372 . S
C891 C890 1.372 . S
C891 C892 1.400 . S
C891 C896 1.490 . S
C892 H882 0.930 . S
C892 C891 1.400 . S
C892 C895 1.386 1_556 S
H893 C909 0.930 . S
H894 C910 0.931 . S
C895 H883 0.929 . S
C895 C889 1.390 . S
C895 C892 1.386 1_554 S
C896 C891 1.490 . S
C896 C898 1.395 . S
C896 C899 1.403 . S
H897 C903 0.930 . S
C898 H884 0.930 . S
C898 C896 1.395 . S
C898 C901 1.403 . S
C899 C896 1.403 . S
C899 C900 1.524 . S
C899 C903 1.400 . S
C900 H885 0.960 . S
C900 H886 0.960 . S
C900 H887 0.960 . S
C900 C899 1.524 . S
C901 C898 1.403 . S
C901 C902 1.392 . S
C901 C905 1.495 . S
C902 C901 1.392 . S
C902 C903 1.385 . S
C902 C904 1.478 . S
C903 H897 0.930 . S
C903 C899 1.400 . S
C903 C902 1.385 . S
C904 C902 1.478 . S
C904 C906 1.381 . S
C904 C910 1.383 . S
C905 C901 1.495 . S
C905 H911 0.959 . S
C905 H912 0.961 . S
C905 H913 0.960 . S
C906 C904 1.381 . S
C906 C907 1.394 . S
C906 H914 0.930 . S
C907 C906 1.394 . S
C907 C908 1.383 . S
C907 H915 0.929 . S
C908 C907 1.383 . S
C908 C909 1.377 . S
C909 H893 0.930 . S
C909 C908 1.377 . S
C909 C910 1.379 . S
C910 H894 0.931 . S
C910 C904 1.383 . S
C910 C909 1.379 . S
H911 C905 0.959 . S
H912 C905 0.961 . S
H913 C905 0.960 . S
H914 C906 0.930 . S
H915 C907 0.929 . S
H916 C924 0.929 . S
H917 C926 0.930 . S
H918 C928 0.930 . S
H919 C931 0.929 . S
H920 C934 0.930 . S
H921 C936 0.960 . S
H922 C936 0.960 . S
H923 C936 0.960 . S
C924 H916 0.929 . S
C924 C925 1.377 . S
C924 C926 1.384 . S
C925 C924 1.377 . S
C925 C931 1.390 . S
C926 H917 0.930 . S
C926 C924 1.384 . S
C926 C927 1.372 . S
C927 C926 1.372 . S
C927 C928 1.400 . S
C927 C932 1.490 . S
C928 H918 0.930 . S
C928 C927 1.400 . S
C928 C931 1.386 . S
H929 C945 0.930 1_556 S
H930 C946 0.931 . S
C931 H919 0.929 . S
C931 C925 1.390 . S
C931 C928 1.386 . S
C932 C927 1.490 . S
C932 C934 1.395 . S
C932 C935 1.403 . S
H933 C939 0.930 . S
C934 H920 0.930 . S
C934 C932 1.395 . S
C934 C937 1.403 . S
C935 C932 1.403 . S
C935 C936 1.524 . S
C935 C939 1.400 . S
C936 H921 0.960 . S
C936 H922 0.960 . S
C936 H923 0.960 . S
C936 C935 1.524 . S
C937 C934 1.403 . S
C937 C938 1.392 . S
C937 C941 1.495 . S
C938 C937 1.392 . S
C938 C939 1.385 . S
C938 C940 1.478 . S
C939 H933 0.930 . S
C939 C935 1.400 . S
C939 C938 1.385 . S
C940 C938 1.478 . S
C940 C942 1.381 . S
C940 C946 1.383 . S
C941 C937 1.495 . S
C941 H947 0.959 . S
C941 H948 0.961 . S
C941 H949 0.960 . S
C942 C940 1.381 . S
C942 C943 1.394 . S
C942 H950 0.930 . S
C943 C942 1.394 . S
C943 C944 1.383 1_554 S
C943 H951 0.929 1_554 S
C944 C943 1.383 1_556 S
C944 C945 1.377 1_556 S
C945 H929 0.930 1_554 S
C945 C944 1.377 1_554 S
C945 C946 1.379 . S
C946 H930 0.931 . S
C946 C940 1.383 . S
C946 C945 1.379 . S
H947 C941 0.959 . S
H948 C941 0.961 . S
H949 C941 0.960 . S
H950 C942 0.930 . S
H951 C943 0.929 1_556 S
H952 C960 0.929 . S
H953 C962 0.930 . S
H954 C964 0.930 . S
H955 C967 0.929 . S
H956 C970 0.930 . S
H957 C972 0.960 . S
H958 C972 0.960 . S
H959 C972 0.960 . S
C960 H952 0.929 . S
C960 C961 1.377 . S
C960 C962 1.384 . S
C961 C960 1.377 . S
C961 C967 1.390 . S
C962 H953 0.930 . S
C962 C960 1.384 . S
C962 C963 1.372 . S
C963 C962 1.372 . S
C963 C964 1.400 . S
C963 C968 1.490 . S
C964 H954 0.930 . S
C964 C963 1.400 . S
C964 C967 1.386 . S
H965 C981 0.930 . S
H966 C982 0.931 . S
C967 H955 0.929 . S
C967 C961 1.390 . S
C967 C964 1.386 . S
C968 C963 1.490 . S
C968 C970 1.395 . S
C968 C971 1.403 . S
H969 C975 0.930 . S
C970 H956 0.930 . S
C970 C968 1.395 . S
C970 C973 1.403 . S
C971 C968 1.403 . S
C971 C972 1.524 . S
C971 C975 1.400 . S
C972 H957 0.960 . S
C972 H958 0.960 . S
C972 H959 0.960 . S
C972 C971 1.524 . S
C973 C970 1.403 . S
C973 C974 1.392 . S
C973 C977 1.495 . S
C974 C973 1.392 . S
C974 C975 1.385 . S
C974 C976 1.478 . S
C975 H969 0.930 . S
C975 C971 1.400 . S
C975 C974 1.385 . S
C976 C974 1.478 . S
C976 C978 1.381 . S
C976 C982 1.383 . S
C977 C973 1.495 . S
C977 H983 0.959 . S
C977 H984 0.961 . S
C977 H985 0.960 . S
C978 C976 1.381 . S
C978 C979 1.394 . S
C978 H986 0.930 . S
C979 C978 1.394 . S
C979 C980 1.383 . S
C979 H987 0.929 . S
C980 C979 1.383 . S
C980 C981 1.377 . S
C981 H965 0.930 . S
C981 C980 1.377 . S
C981 C982 1.379 . S
C982 H966 0.931 . S
C982 C976 1.383 . S
C982 C981 1.379 . S
H983 C977 0.959 . S
H984 C977 0.961 . S
H985 C977 0.960 . S
H986 C978 0.930 . S
H987 C979 0.929 . S
H988 C996 0.929 . S
H989 C998 0.930 . S
H990 C1000 0.930 . S
H991 C1003 0.929 . S
H992 C1006 0.930 . S
H993 C1008 0.960 . S
H994 C1008 0.960 . S
H995 C1008 0.960 . S
C996 H988 0.929 . S
C996 C997 1.377 1_455 S
C996 C998 1.384 . S
C997 C996 1.377 1_655 S
C997 C1003 1.390 . S
C998 H989 0.930 . S
C998 C996 1.384 . S
C998 C999 1.375 . S
C999 C998 1.375 . S
C999 C1000 1.397 1_455 S
C999 C1004 1.490 . S
C1000 H990 0.930 . S
C1000 C999 1.397 1_655 S
C1000 C1003 1.386 . S
H1001 C1017 0.930 . S
H1002 C1018 0.931 . S
C1003 H991 0.929 . S
C1003 C997 1.390 . S
C1003 C1000 1.386 . S
C1004 C999 1.490 . S
C1004 C1006 1.395 . S
C1004 C1007 1.403 1_455 S
H1005 C1011 0.930 . S
C1006 H992 0.930 . S
C1006 C1004 1.395 . S
C1006 C1009 1.403 1_556 S
C1007 C1004 1.403 1_655 S
C1007 C1008 1.524 . S
C1007 C1011 1.400 1_556 S
C1008 H993 0.960 . S
C1008 H994 0.960 . S
C1008 H995 0.960 . S
C1008 C1007 1.524 . S
C1009 C1006 1.403 1_554 S
C1009 C1010 1.392 . S
C1009 C1013 1.495 . S
C1010 C1009 1.392 . S
C1010 C1011 1.385 1_455 S
C1010 C1012 1.478 . S
C1011 H1005 0.930 . S
C1011 C1007 1.400 1_554 S
C1011 C1010 1.385 1_655 S
C1012 C1010 1.478 . S
C1012 C1014 1.381 . S
C1012 C1018 1.383 1_455 S
C1013 C1009 1.495 . S
C1013 H1019 0.959 . S
C1013 H1020 0.961 . S
C1013 H1021 0.960 . S
C1014 C1012 1.381 . S
C1014 C1015 1.394 . S
C1014 H1022 0.930 . S
C1015 C1014 1.394 . S
C1015 C1016 1.383 . S
C1015 H1023 0.929 . S
C1016 C1015 1.383 . S
C1016 C1017 1.377 1_455 S
C1017 H1001 0.930 . S
C1017 C1016 1.377 1_655 S
C1017 C1018 1.379 . S
C1018 H1002 0.931 . S
C1018 C1012 1.383 1_655 S
C1018 C1017 1.379 . S
H1019 C1013 0.959 . S
H1020 C1013 0.961 . S
H1021 C1013 0.960 . S
H1022 C1014 0.930 . S
H1023 C1015 0.929 . S
C169 C16 1.253 . S
C188 C76 1.268 . S
C205 C1 1.535 . S
C224 C36 1.490 . S
C241 C21 1.765 . S
C260 C41 1.776 . S
C277 C56 1.494 . S
C296 C61 1.544 . S
C313 C6 1.263 . S
C332 C106 1.270 . S
C349 C9 1.534 . S
C368 C86 1.478 . S
C385 C89 1.759 . S
C404 C49 1.766 . S
C421 C109 1.539 . S
C440 C46 1.462 . S
C457 C136 1.262 . S
C476 C116 1.281 . S
C493 C96 1.493 . S
C512 C121 1.539 . S
C529 C141 1.766 . S
C548 C81 1.776 . S
C565 C101 1.539 . S
C584 C156 1.514 . S
C601 C66 1.254 . S
C620 C126 1.223 . S
C637 C129 1.536 . S
C656 C26 1.508 . S
C673 C29 1.765 . S
C692 C149 1.751 . S
C709 C69 1.540 . S
C728 C146 1.508 . S
C745 C19 2.011 1_565 S
C764 C8 1.988 1_545 S
C781 C28 2.029 . S
C800 C39 2.047 . S
C817 C59 2.026 . S
C836 C48 2.002 . S
C853 C79 2.011 . S
C872 C68 1.985 . S
C889 C88 2.028 . S
C908 C99 1.998 . S
C925 C119 2.008 . S
C944 C108 1.990 . S
C961 C128 2.010 . S
C980 C139 1.985 . S
C997 C148 2.025 1_655 S
C1016 C159 2.005 . S
