# Generated by pormake.
# Topology xfu, (5)-cn, num edge types: 1
# Building blocks:
#     Node 0, Type 0, BuildingBlock: BEQFEK_clean_sbu_0, # of connection points: 5
#     Node 1, Type 0, BuildingBlock: BEQFEK_clean_sbu_0, # of connection points: 5
#     Node 2, Type 0, BuildingBlock: BEQFEK_clean_sbu_0, # of connection points: 5
#     Node 3, Type 0, BuildingBlock: BEQFEK_clean_sbu_0, # of connection points: 5
#     Node 4, Type 0, BuildingBlock: BEQFEK_clean_sbu_0, # of connection points: 5
#     Node 5, Type 0, BuildingBlock: BEQFEK_clean_sbu_0, # of connection points: 5
#     Node 6, Type 0, BuildingBlock: BEQFEK_clean_sbu_0, # of connection points: 5
#     Node 7, Type 0, BuildingBlock: BEQFEK_clean_sbu_0, # of connection points: 5
#     Edge 8, Type (0, 0), BuildingBlock: UVAHIK_clean_linker_0, # of connection points: 2
#     Edge 9, Type (0, 0), BuildingBlock: UVAHIK_clean_linker_0, # of connection points: 2
#     Edge 10, Type (0, 0), BuildingBlock: UVAHIK_clean_linker_0, # of connection points: 2
#     Edge 11, Type (0, 0), BuildingBlock: UVAHIK_clean_linker_0, # of connection points: 2
#     Edge 12, Type (0, 0), BuildingBlock: UVAHIK_clean_linker_0, # of connection points: 2
#     Edge 13, Type (0, 0), BuildingBlock: UVAHIK_clean_linker_0, # of connection points: 2
#     Edge 14, Type (0, 0), BuildingBlock: UVAHIK_clean_linker_0, # of connection points: 2
#     Edge 15, Type (0, 0), BuildingBlock: UVAHIK_clean_linker_0, # of connection points: 2
#     Edge 16, Type (0, 0), BuildingBlock: UVAHIK_clean_linker_0, # of connection points: 2
#     Edge 17, Type (0, 0), BuildingBlock: UVAHIK_clean_linker_0, # of connection points: 2
#     Edge 18, Type (0, 0), BuildingBlock: UVAHIK_clean_linker_0, # of connection points: 2
#     Edge 19, Type (0, 0), BuildingBlock: UVAHIK_clean_linker_0, # of connection points: 2
#     Edge 20, Type (0, 0), BuildingBlock: UVAHIK_clean_linker_0, # of connection points: 2
#     Edge 21, Type (0, 0), BuildingBlock: UVAHIK_clean_linker_0, # of connection points: 2
#     Edge 22, Type (0, 0), BuildingBlock: UVAHIK_clean_linker_0, # of connection points: 2
#     Edge 23, Type (0, 0), BuildingBlock: UVAHIK_clean_linker_0, # of connection points: 2
#     Edge 24, Type (0, 0), BuildingBlock: UVAHIK_clean_linker_0, # of connection points: 2
#     Edge 25, Type (0, 0), BuildingBlock: UVAHIK_clean_linker_0, # of connection points: 2
#     Edge 26, Type (0, 0), BuildingBlock: UVAHIK_clean_linker_0, # of connection points: 2
#     Edge 27, Type (0, 0), BuildingBlock: UVAHIK_clean_linker_0, # of connection points: 2
# Relax obj value: 0.269
# Max RMSD: 0.175
# Mean RMSD: 0.175
data_MOF--net-xfu--node1-BEQFEK_clean_sbu_0--edge1-UVAHIK_clean_linker_0
_symmetry_space_group_name_H-M    P1
_symmetry_Int_Tables_number       1
_symmetry_cell_setting            triclinic
loop_
_symmetry_equiv_pos_as_xyz
'x, y, z'
_cell_length_a     38.230908
_cell_length_b     38.136625
_cell_length_c     68.912272
_cell_angle_alpha  90.032841
_cell_angle_beta   90.035475
_cell_angle_gamma 90.029291
loop_
_atom_site_label
_atom_site_type_symbol
_atom_site_fract_x
_atom_site_fract_y
_atom_site_fract_z
_atom_type_partial_charge
Co0 Co 0.04733 0.24564 0.66029 0.0
Co1 Co 0.05192 0.17777 0.63479 0.0
C2 C 0.10656 0.23324 0.63256 0.0
O3 O 0.0905 0.2519 0.64498 0.0
O4 O 0.09505 0.20334 0.62741 0.0
C5 C 0.04729 0.3194 0.66635 0.0
O6 O 0.05743 0.31972 0.64814 0.0
C7 C 0.05661 0.13488 0.59975 0.0
C8 C 0.03006 0.086 0.60876 0.0
C9 C 0.04581 0.10231 0.59308 0.0
N10 N 0.04701 0.13794 0.61842 0.0
N11 N 0.03152 0.10852 0.6238 0.0
C12 C 0.07713 0.16223 0.58908 0.0
H13 H 0.06301 0.18763 0.58964 0.0
H14 H 0.08238 0.1548 0.57382 0.0
H15 H 0.10265 0.16595 0.59645 0.0
C16 C 0.97934 0.25156 0.64037 0.0
N17 N 0.00979 0.23502 0.64365 0.0
N18 N 0.01185 0.20718 0.63241 0.0
C19 C 0.98275 0.20543 0.62135 0.0
C20 C 0.9613 0.23359 0.626 0.0
C21 C 0.96687 0.28254 0.6518 0.0
H22 H 0.9752 0.28005 0.66714 0.0
H23 H 0.97866 0.30672 0.6457 0.0
H24 H 0.93797 0.28496 0.65128 0.0
O25 O 0.05363 0.20818 0.67979 0.0
O26 O 0.05671 0.16011 0.66172 0.0
H27 H 0.97418 0.15209 0.61303 0.0
H28 H 0.95234 0.18362 0.59761 0.0
C29 C 0.97638 0.17822 0.60609 0.0
H30 H -0.00118 0.17765 0.59596 0.0
H31 H 0.02133 0.1041 0.63763 0.0
O32 O 0.04001 0.29027 0.67434 0.0
C33 C 0.05697 0.17508 0.67824 0.0
Co34 Co 0.81259 0.55013 0.15287 0.0
Co35 Co 0.88433 0.54772 0.1311 0.0
C36 C 0.83674 0.60908 0.12716 0.0
O37 O 0.81433 0.59478 0.13829 0.0
O38 O 0.86555 0.59404 0.12313 0.0
C39 C 0.73924 0.56296 0.15895 0.0
O40 O 0.74188 0.58271 0.14341 0.0
C41 C 0.93334 0.54788 0.0987 0.0
C42 C 0.97744 0.51684 0.11033 0.0
C43 C 0.96591 0.53436 0.09392 0.0
N44 N 0.92606 0.53877 0.11707 0.0
N45 N 0.95263 0.52055 0.12403 0.0
C46 C 0.90774 0.56584 0.08559 0.0
H47 H 0.88059 0.56135 0.09071 0.0
H48 H 0.9103 0.55618 0.07047 0.0
H49 H 0.91291 0.59447 0.08578 0.0
C50 C 0.80243 0.48358 0.13202 0.0
N51 N 0.82151 0.51218 0.13624 0.0
N52 N 0.85117 0.51117 0.1266 0.0
C53 C 0.85169 0.48186 0.11562 0.0
C54 C 0.82074 0.46346 0.11866 0.0
C55 C 0.76884 0.4745 0.14201 0.0
H56 H 0.77092 0.48074 0.15769 0.0
H57 H 0.74742 0.49057 0.13578 0.0
H58 H 0.76223 0.44634 0.14043 0.0
O59 O 0.84687 0.55121 0.17431 0.0
O60 O 0.89775 0.55031 0.15887 0.0
H61 H 0.90494 0.46726 0.11064 0.0
H62 H 0.87447 0.44876 0.0933 0.0
C63 C 0.88082 0.47221 0.10213 0.0
H64 H 0.88591 0.4943 0.09213 0.0
H65 H 0.95344 0.50994 0.13798 0.0
O66 O 0.76586 0.54622 0.16495 0.0
C67 C 0.88014 0.55143 0.17453 0.0
Co68 Co 0.51493 0.31023 0.65415 0.0
Co69 Co 0.51704 0.382 0.63229 0.0
C70 C 0.45683 0.33312 0.62772 0.0
O71 O 0.47125 0.31073 0.63882 0.0
O72 O 0.47126 0.36248 0.62412 0.0
C73 C 0.50622 0.23596 0.65818 0.0
O74 O 0.49232 0.23824 0.64079 0.0
C75 C 0.51649 0.4307 0.59974 0.0
C76 C 0.54613 0.47583 0.61141 0.0
C77 C 0.52931 0.46361 0.59491 0.0
N78 N 0.52536 0.42388 0.6182 0.0
N79 N 0.5427 0.45107 0.62519 0.0
C80 C 0.49959 0.40435 0.5866 0.0
H81 H 0.50439 0.37736 0.59197 0.0
H82 H 0.50978 0.40675 0.57159 0.0
H83 H 0.47094 0.40895 0.58637 0.0
C84 C 0.58371 0.30257 0.63512 0.0
N85 N 0.55369 0.32006 0.63819 0.0
N86 N 0.55398 0.34941 0.62817 0.0
C87 C 0.58401 0.35114 0.61798 0.0
C88 C 0.60397 0.3216 0.62211 0.0
C89 C 0.59405 0.27036 0.64615 0.0
H90 H 0.58421 0.27199 0.66125 0.0
H91 H 0.58207 0.24707 0.63914 0.0
H92 H 0.62284 0.26697 0.64655 0.0
O93 O 0.51159 0.34471 0.6755 0.0
O94 O 0.51478 0.39559 0.66 0.0
H95 H 0.59803 0.40463 0.61276 0.0
H96 H 0.61639 0.37404 0.59542 0.0
C97 C 0.59311 0.38031 0.60435 0.0
H98 H 0.57091 0.38507 0.59441 0.0
H99 H 0.55294 0.45234 0.63922 0.0
O100 O 0.51857 0.26335 0.66617 0.0
C101 C 0.51229 0.37808 0.67565 0.0
Co102 Co 0.75115 0.02385 0.15708 0.0
Co103 Co 0.68206 0.01503 0.13333 0.0
C104 C 0.7394 0.96241 0.13058 0.0
O105 O 0.75833 0.97997 0.14227 0.0
O106 O 0.7088 0.97254 0.12594 0.0
C107 C 0.82549 0.02843 0.16377 0.0
O108 O 0.82835 0.01814 0.14564 0.0
C109 C 0.63676 0.00898 0.0993 0.0
C110 C 0.5874 0.03189 0.11014 0.0
C111 C 0.60308 0.0181 0.0937 0.0
N112 N 0.64074 0.01727 0.11811 0.0
N113 N 0.61099 0.0304 0.12461 0.0
C114 C 0.66607 0.99646 0.08666 0.0
H115 H 0.69172 0.00306 0.09325 0.0
H116 H 0.66437 0.0084 0.07201 0.0
H117 H 0.66434 0.96755 0.08513 0.0
C118 C 0.752 0.09202 0.13683 0.0
N119 N 0.73776 0.06043 0.14036 0.0
N120 N 0.70926 0.05665 0.12984 0.0
C121 C 0.70478 0.08573 0.11896 0.0
C122 C 0.73175 0.10909 0.12303 0.0
C123 C 0.78263 0.1065 0.14777 0.0
H124 H 0.78148 0.09799 0.16313 0.0
H125 H 0.80712 0.09619 0.14129 0.0
H126 H 0.78321 0.13556 0.14729 0.0
O127 O 0.71552 0.01718 0.17743 0.0
O128 O 0.66646 0.0105 0.16065 0.0
H129 H 0.6504 0.09045 0.11204 0.0
H130 H 0.67885 0.11491 0.09598 0.0
C131 C 0.67598 0.09042 0.10446 0.0
H132 H 0.67633 0.06826 0.09412 0.0
H133 H 0.60722 0.03951 0.13873 0.0
O134 O 0.79529 0.03383 0.17085 0.0
C135 C 0.68266 0.0121 0.17677 0.0
Co136 Co 0.01259 0.81656 0.33576 0.0
Co137 Co 0.01593 0.88649 0.3596 0.0
C138 C 0.95675 0.8364 0.36432 0.0
O139 O 0.97023 0.81525 0.35216 0.0
O140 O 0.97128 0.86552 0.36835 0.0
C141 C 0.00469 0.74264 0.33039 0.0
O142 O 0.99293 0.74377 0.34828 0.0
C143 C 0.01776 0.93167 0.39378 0.0
C144 C 0.04773 0.97749 0.38328 0.0
C145 C 0.03202 0.96339 0.39961 0.0
N146 N 0.0254 0.92684 0.37496 0.0
N147 N 0.04291 0.9545 0.36868 0.0
C148 C -0.00377 0.90659 0.4055 0.0
H149 H 0.00771 0.87992 0.4046 0.0
H150 H 0.9938 0.91476 0.42087 0.0
H151 H 0.96957 0.90526 0.3992 0.0
C152 C 0.08259 0.80759 0.35324 0.0
N153 N 0.05245 0.82533 0.35108 0.0
N154 N 0.05326 0.85376 0.3619 0.0
C155 C 0.0837 0.85452 0.37176 0.0
C156 C 0.10344 0.82542 0.3665 0.0
C157 C 0.09225 0.77615 0.34138 0.0
H158 H 0.0817 0.77885 0.32647 0.0
H159 H 0.08052 0.75243 0.34805 0.0
H160 H 0.12101 0.77271 0.34053 0.0
O161 O 0.00755 0.853 0.3156 0.0
O162 O 0.01143 0.90262 0.33234 0.0
H163 H 0.09785 0.90725 0.37893 0.0
H164 H 0.11665 0.87464 0.39492 0.0
C165 C 0.09314 0.88194 0.38641 0.0
H166 H 0.07121 0.88538 0.39669 0.0
H167 H 0.05228 0.95728 0.35454 0.0
O168 O 0.01559 0.77067 0.32245 0.0
C169 C 0.00799 0.88636 0.3163 0.0
Co170 Co 0.25229 0.52312 0.83473 0.0
Co171 Co 0.18518 0.52135 0.86056 0.0
C172 C 0.23752 0.46405 0.8626 0.0
O173 O 0.25654 0.47925 0.84998 0.0
O174 O 0.20859 0.47722 0.86808 0.0
C175 C 0.3262 0.5215 0.82737 0.0
O176 O 0.32851 0.51273 0.84576 0.0
C177 C 0.14093 0.51871 0.89516 0.0
C178 C 0.09455 0.54873 0.88561 0.0
C179 C 0.10878 0.5313 0.90139 0.0
N180 N 0.14541 0.52834 0.87658 0.0
N181 N 0.11746 0.5459 0.87088 0.0
C182 C 0.1687 0.5013 0.90708 0.0
H183 H 0.19498 0.50693 0.90103 0.0
H184 H 0.16769 0.51038 0.92237 0.0
H185 H 0.16452 0.47251 0.90678 0.0
C186 C 0.26079 0.59188 0.85398 0.0
N187 N 0.24367 0.56147 0.85123 0.0
N188 N 0.21632 0.56025 0.86279 0.0
C189 C 0.21573 0.58958 0.87372 0.0
C190 C 0.24383 0.6107 0.86845 0.0
C191 C 0.29092 0.60372 0.84175 0.0
H192 H 0.28784 0.59392 0.8267 0.0
H193 H 0.31552 0.59286 0.84782 0.0
H194 H 0.29289 0.63274 0.8414 0.0
O195 O 0.21463 0.51876 0.81533 0.0
O196 O 0.16706 0.51645 0.83369 0.0
H197 H 0.16375 0.60164 0.88304 0.0
H198 H 0.19755 0.61872 0.89885 0.0
C199 C 0.18976 0.59634 0.88953 0.0
H200 H 0.18762 0.57285 0.89885 0.0
H201 H 0.11445 0.55675 0.85708 0.0
O202 O 0.29638 0.52837 0.82017 0.0
C203 C 0.18162 0.51609 0.81709 0.0
Co204 Co 0.55112 0.75334 0.33952 0.0
Co205 Co 0.55291 0.68307 0.36286 0.0
C206 C 0.60881 0.73674 0.36757 0.0
O207 O 0.59359 0.75707 0.35563 0.0
O208 O 0.5966 0.70654 0.37155 0.0
C209 C 0.55472 0.82769 0.33409 0.0
O210 O 0.56694 0.82754 0.35191 0.0
C211 C 0.55429 0.63702 0.39656 0.0
C212 C 0.52866 0.58913 0.38535 0.0
C213 C 0.54327 0.60374 0.4019 0.0
N214 N 0.54653 0.64179 0.37775 0.0
N215 N 0.5316 0.61297 0.37105 0.0
C216 C 0.56841 0.66536 0.40943 0.0
H217 H 0.56207 0.69156 0.40338 0.0
H218 H 0.55746 0.66321 0.42429 0.0
H219 H 0.59728 0.66285 0.41029 0.0
C220 C 0.48213 0.75875 0.35821 0.0
N221 N 0.51262 0.74213 0.35524 0.0
N222 N 0.51338 0.71313 0.36558 0.0
C223 C 0.48326 0.71056 0.37567 0.0
C224 C 0.46257 0.73948 0.37139 0.0
C225 C 0.47102 0.79084 0.34731 0.0
H226 H 0.47979 0.789 0.33201 0.0
H227 H 0.48351 0.8142 0.35396 0.0
H228 H 0.44222 0.79426 0.34753 0.0
O229 O 0.55732 0.71764 0.319 0.0
O230 O 0.55814 0.66783 0.33558 0.0
H231 H 0.47356 0.6563 0.38137 0.0
H232 H 0.44982 0.68585 0.39716 0.0
C233 C 0.47487 0.68142 0.38945 0.0
H234 H 0.49589 0.67937 0.40042 0.0
H235 H 0.5226 0.60994 0.35685 0.0
O236 O 0.54513 0.79897 0.32636 0.0
C237 C 0.55952 0.68436 0.31956 0.0
Co238 Co 0.31959 0.05032 0.84085 0.0
Co239 Co 0.39261 0.05464 0.8613 0.0
C240 C 0.33959 0.11149 0.86579 0.0
O241 O 0.3178 0.09495 0.85526 0.0
O242 O 0.37004 0.09945 0.86916 0.0
C243 C 0.24519 0.05662 0.83549 0.0
O244 O 0.24668 0.07644 0.85105 0.0
C245 C 0.44073 0.05766 0.89394 0.0
C246 C 0.48875 0.03404 0.88179 0.0
C247 C 0.47456 0.04762 0.89871 0.0
N248 N 0.43527 0.05023 0.87515 0.0
N249 N 0.46418 0.0366 0.86786 0.0
C250 C 0.41256 0.07033 0.90731 0.0
H251 H 0.38636 0.06451 0.90117 0.0
H252 H 0.41497 0.05783 0.92179 0.0
H253 H 0.415 0.09914 0.9091 0.0
C254 C 0.31619 0.98393 0.8623 0.0
N255 N 0.33264 0.01385 0.85759 0.0
N256 N 0.36313 0.01521 0.86644 0.0
C257 C 0.36703 0.98584 0.87717 0.0
C258 C 0.33726 0.96525 0.87501 0.0
C259 C 0.2824 0.97237 0.85333 0.0
H260 H 0.28313 0.97723 0.83747 0.0
H261 H 0.26069 0.98808 0.85954 0.0
H262 H 0.27717 0.94414 0.85581 0.0
O263 O 0.35284 0.05372 0.81897 0.0
O264 O 0.40465 0.057 0.83339 0.0
H265 H 0.42233 0.97891 0.88026 0.0
H266 H 0.39659 0.95179 0.89641 0.0
C267 C 0.39844 0.97783 0.88936 0.0
H268 H 0.40081 -0.00218 0.90092 0.0
H269 H 0.46674 0.02797 0.85356 0.0
O270 O 0.27292 0.0421 0.82925 0.0
C271 C 0.386 0.05625 0.81809 0.0
C272 C 0.04522 0.9565 0.43481 0.0
C273 C 0.03433 0.97784 0.41938 0.0
C274 C 0.04774 0.97014 0.45353 0.0
C275 C 0.05587 0.0531 0.48065 0.0
H276 H 0.02081 -0.00253 0.52355 0.0
C277 C 0.03662 0.10953 0.55747 0.0
C278 C 0.04686 0.08844 0.57315 0.0
C279 C 0.03645 0.09604 0.53865 0.0
C280 C 0.03111 0.01313 0.51176 0.0
H281 H 0.01914 0.03034 0.41101 0.0
H282 H 0.02306 0.05435 0.4439 0.0
H283 H 0.01784 0.97421 0.49066 0.0
H284 H 0.06372 0.03656 0.58174 0.0
H285 H 0.06368 0.01281 0.54873 0.0
H286 H 0.06889 0.09214 0.50178 0.0
C287 C 0.02961 0.02705 0.44156 0.0
C288 C 0.0294 -0.00017 0.49291 0.0
C289 C 0.02716 0.01335 0.42279 0.0
C290 C 0.05613 0.05338 0.5698 0.0
C291 C 0.05593 0.03983 0.55097 0.0
C292 C 0.05754 0.06643 0.4995 0.0
C293 C 0.03971 0.0055 0.45715 0.0
C294 C 0.04171 0.01968 0.47715 0.0
C295 C 0.04611 0.06105 0.53519 0.0
C296 C 0.04511 0.0466 0.51524 0.0
H297 H 0.05223 0.92934 0.43235 0.0
H298 H 0.05644 0.9531 0.46514 0.0
H299 H 0.06607 0.0688 0.46884 0.0
H300 H 0.02795 0.13624 0.55979 0.0
H301 H 0.02795 0.11277 0.52686 0.0
C302 C 0.98232 0.5646 0.06299 0.0
C303 C 0.98363 0.53481 0.07491 0.0
C304 C -0.00252 0.56404 0.04458 0.0
C305 C 0.02416 0.50267 0.00622 0.0
H306 H 0.07359 0.58338 0.98575 0.0
C307 C 0.09723 0.50054 0.93286 0.0
C308 C 0.09385 0.5304 0.92111 0.0
C309 C 0.08422 0.5006 0.95179 0.0
C310 C 0.05955 0.56077 0.99121 0.0
H311 H 0.00326 0.4817 0.07743 0.0
H312 H 0.03022 0.48083 0.04532 0.0
H313 H 0.05146 0.58472 0.01893 0.0
H314 H 0.07308 0.58319 0.91955 0.0
H315 H 0.04996 0.5832 0.95255 0.0
H316 H 0.03215 0.47878 0.97847 0.0
C317 C 0.01678 0.50434 0.05002 0.0
C318 C 0.04692 0.56153 0.0102 0.0
C319 C 0.00163 0.50494 0.06844 0.0
C320 C 0.07625 0.5599 0.92837 0.0
C321 C 0.06332 0.56002 0.9473 0.0
C322 C 0.03682 0.5019 0.98723 0.0
C323 C 0.01446 0.53374 0.0378 0.0
C324 C 0.02895 0.53255 0.01787 0.0
C325 C 0.06747 0.53049 0.95926 0.0
C326 C 0.05448 0.53102 0.9795 0.0
H327 H 0.96956 0.58835 0.06785 0.0
H328 H 0.99521 0.58709 0.03549 0.0
H329 H 0.00993 0.48013 0.01162 0.0
H330 H 0.10981 0.47709 0.92743 0.0
H331 H 0.0878 0.47746 0.96067 0.0
C332 C 0.50016 0.47825 0.56339 0.0
C333 C 0.52923 0.48085 0.57576 0.0
C334 C 0.50136 0.49247 0.54475 0.0
C335 C 0.54796 0.55626 0.51415 0.0
H336 H 0.51514 0.49762 0.47187 0.0
C337 C 0.57136 0.59264 0.43413 0.0
C338 C 0.54302 0.58803 0.42143 0.0
C339 C 0.57004 0.5792 0.45295 0.0
C340 C 0.52406 0.51446 0.48353 0.0
H341 H 0.5816 0.50195 0.57882 0.0
H342 H 0.58371 0.52691 0.54623 0.0
H343 H 0.51099 0.47645 0.50516 0.0
H344 H 0.49166 0.56477 0.41808 0.0
H345 H 0.48912 0.54151 0.451 0.0
H346 H 0.56089 0.59435 0.49254 0.0
C347 C 0.56005 0.51376 0.55091 0.0
C348 C 0.52165 0.50235 0.50258 0.0
C349 C 0.55887 0.49944 0.56953 0.0
C350 C 0.51386 0.5687 0.42762 0.0
C351 C 0.51246 0.55534 0.44644 0.0
C352 C 0.55027 0.56843 0.49509 0.0
C353 C 0.53152 0.50989 0.53823 0.0
C354 C 0.53357 0.52313 0.51808 0.0
C355 C 0.54039 0.56076 0.45938 0.0
C356 C 0.53835 0.54765 0.47958 0.0
H357 H 0.47649 0.4652 0.56808 0.0
H358 H 0.47867 0.48983 0.53544 0.0
H359 H 0.557 0.57298 0.52583 0.0
H360 H 0.59463 0.6065 0.42951 0.0
H361 H 0.59231 0.5831 0.46243 0.0
C362 C 0.48497 0.073 0.93174 0.0
C363 C 0.49078 0.04626 0.91813 0.0
C364 C 0.49798 0.06995 0.95059 0.0
C365 C 0.56276 0.0232 0.98061 0.0
H366 H 0.4991 0.04574 0.02261 0.0
C367 C 0.59531 0.99218 0.0605 0.0
C368 C 0.58822 0.01893 0.07393 0.0
C369 C 0.58289 0.99458 0.04148 0.0
C370 C 0.51729 0.03964 0.01105 0.0
H371 H 0.51629 0.99632 0.91313 0.0
H372 H 0.53906 0.99096 0.94608 0.0
H373 H 0.48013 0.05322 0.9891 0.0
H374 H 0.56148 0.06841 0.07832 0.0
H375 H 0.53991 0.07271 0.04515 0.0
H376 H 0.59998 0.00973 0.00258 0.0
C377 C 0.5244 0.01423 0.94222 0.0
C378 C 0.50646 0.044 0.99187 0.0
C379 C 0.51133 0.01728 0.92338 0.0
C380 C 0.56735 0.0474 0.06824 0.0
C381 C 0.55495 0.04982 0.04926 0.0
C382 C 0.57363 0.01889 -0.00019 0.0
C383 C 0.5173 0.04025 0.95612 0.0
C384 C 0.52911 0.03592 0.97645 0.0
C385 C 0.56293 0.02365 0.03561 0.0
C386 C 0.55103 0.02716 0.01523 0.0
H387 H 0.47028 0.09621 0.92788 0.0
H388 H 0.49283 0.09082 0.96087 0.0
H389 H 0.5809 0.01709 0.96902 0.0
H390 H 0.61039 0.96939 0.06467 0.0
H391 H 0.58881 0.97363 0.03139 0.0
C392 C 0.20979 0.03128 0.80842 0.0
C393 C 0.21345 0.05621 0.82329 0.0
C394 C 0.18337 0.03477 0.79455 0.0
C395 C 0.10502 0.08823 0.78063 0.0
H396 H 0.14338 0.07654 0.72896 0.0
C397 C 0.06354 0.16978 0.71431 0.0
C398 C 0.0635 0.15391 0.69588 0.0
C399 C 0.07363 0.15081 0.73071 0.0
C400 C 0.13186 0.07928 0.74323 0.0
H401 H 0.19076 0.10279 0.8362 0.0
H402 H 0.14554 0.10964 0.81171 0.0
H403 H 0.1757 0.05486 0.75669 0.0
H404 H 0.07192 0.10498 0.68045 0.0
H405 H 0.08968 0.07198 0.70911 0.0
H406 H 0.06206 0.11464 0.76695 0.0
C407 C 0.16252 0.08698 0.81085 0.0
C408 C 0.15038 0.06672 0.75921 0.0
C409 C 0.18863 0.08318 0.82488 0.0
C410 C 0.07196 0.11813 0.69439 0.0
C411 C 0.08219 0.0992 0.71079 0.0
C412 C 0.08658 0.10108 0.76459 0.0
C413 C 0.16042 0.06359 0.79509 0.0
C414 C 0.13768 0.07182 0.77816 0.0
C415 C 0.08399 0.11559 0.72903 0.0
C416 C 0.10028 0.09747 0.74578 0.0
H417 H 0.22823 0.00986 0.80703 0.0
H418 H 0.18192 0.01572 0.78292 0.0
H419 H 0.09416 0.09208 0.79498 0.0
H420 H 0.05696 0.19723 0.71601 0.0
H421 H 0.07505 0.16427 0.74453 0.0
C422 C 0.97778 0.68374 0.32462 0.0
C423 C 0.00058 0.71053 0.3186 0.0
C424 C 0.96937 0.6562 0.31206 0.0
C425 C 0.99334 0.6117 0.26627 0.0
H426 H 0.89316 0.60743 0.2579 0.0
C427 C 0.93262 0.56991 0.19365 0.0
C428 C 0.89851 0.55625 0.19323 0.0
C429 C 0.94804 0.57955 0.21124 0.0
C430 C 0.92115 0.60734 0.26028 0.0
H431 H 0.03462 0.72802 0.29537 0.0
H432 H 0.02013 0.6798 0.27353 0.0
H433 H 0.91608 0.64024 0.28523 0.0
H434 H 0.85495 0.53914 0.211 0.0
H435 H 0.88234 0.55464 0.24175 0.0
H436 H -0.00152 0.57923 0.2411 0.0
C437 C 0.00865 0.68015 0.2879 0.0
C438 C 0.93429 0.62633 0.27598 0.0
C439 C 0.01674 0.7079 0.30035 0.0
C440 C 0.88109 0.55012 0.21084 0.0
C441 C 0.89674 0.55921 0.22847 0.0
C442 C 0.98017 0.59225 0.25067 0.0
C443 C 0.98399 0.65471 0.29339 0.0
C444 C 0.97051 0.62956 0.2788 0.0
C445 C 0.92991 0.57524 0.22885 0.0
C446 C 0.94393 0.59076 0.24711 0.0
H447 H 0.96498 0.68497 0.33862 0.0
H448 H 0.95046 0.63676 0.31668 0.0
H449 H 0.02139 0.61354 0.26825 0.0
H450 H 0.94673 0.57499 0.18031 0.0
H451 H 0.97341 0.59216 0.21085 0.0
C452 C 0.35301 0.52435 0.79441 0.0
C453 C 0.35689 0.51855 0.81442 0.0
C454 C 0.38009 0.51639 0.78163 0.0
C455 C 0.44302 0.50532 0.75643 0.0
H456 H 0.48657 0.41547 0.76663 0.0
C457 C 0.51551 0.43286 0.69567 0.0
C458 C 0.50764 0.39696 0.69421 0.0
C459 C 0.50743 0.4515 0.71255 0.0
C460 C 0.47463 0.44058 0.76351 0.0
H461 H 0.39325 0.50242 0.83687 0.0
H462 H 0.441 0.48921 0.81451 0.0
H463 H 0.45227 0.44361 0.79185 0.0
H464 H 0.48656 0.35211 0.70961 0.0
H465 H 0.47116 0.38465 0.73859 0.0
H466 H 0.46266 0.50091 0.72759 0.0
C467 C 0.41662 0.49908 0.80868 0.0
C468 C 0.45538 0.45706 0.77813 0.0
C469 C 0.38933 0.50685 0.8215 0.0
C470 C 0.49302 0.37975 0.71028 0.0
C471 C 0.48444 0.39846 0.72702 0.0
C472 C 0.46178 0.4886 0.74173 0.0
C473 C 0.41193 0.50275 0.78852 0.0
C474 C 0.43819 0.48901 0.77452 0.0
C475 C 0.49079 0.43477 0.72823 0.0
C476 C 0.47674 0.45538 0.74485 0.0
H477 H 0.32842 0.53348 0.78845 0.0
H478 H 0.37519 0.51914 0.76623 0.0
H479 H 0.43087 0.53033 0.75328 0.0
H480 H 0.52724 0.44675 0.6836 0.0
H481 H 0.51344 0.47923 0.71309 0.0
C482 C 0.5419 0.86038 0.3035 0.0
C483 C 0.55745 0.85951 0.32197 0.0
C484 C 0.54956 0.8875 0.29059 0.0
C485 C 0.62316 0.94273 0.27891 0.0
H486 H 0.5605 0.98244 0.24051 0.0
C487 C 0.67853 0.0151 0.21297 0.0
C488 C 0.66336 0.00618 0.19506 0.0
C489 C 0.66186 0.00646 0.23034 0.0
C490 C 0.57836 0.97149 0.2511 0.0
H491 H 0.59103 0.88781 0.34198 0.0
H492 H 0.60466 0.93507 0.3193 0.0
H493 H 0.53644 0.95075 0.26829 0.0
H494 H 0.61808 0.98254 0.1813 0.0
H495 H 0.58963 0.96627 0.21153 0.0
H496 H 0.66512 0.96124 0.26133 0.0
C497 C 0.58671 0.91462 0.31481 0.0
C498 C 0.56455 0.95354 0.26704 0.0
C499 C 0.5788 0.88763 0.3278 0.0
C500 C 0.63046 0.98978 0.19487 0.0
C501 C 0.614 0.9807 0.21225 0.0
C502 C 0.63696 0.96031 0.26291 0.0
C503 C 0.5731 0.91416 0.29586 0.0
C504 C 0.58687 0.93827 0.28085 0.0
C505 C 0.62987 0.98822 0.23021 0.0
C506 C 0.61479 0.97415 0.24853 0.0
H507 H 0.52509 0.83923 0.29865 0.0
H508 H 0.53884 0.88631 0.27605 0.0
H509 H 0.64106 0.93077 0.28914 0.0
H510 H 0.70364 0.02823 0.21359 0.0
H511 H 0.67447 0.01339 0.24389 0.0
C512 C 0.98861 0.89013 0.28174 0.0
C513 C 0.0026 0.90658 0.29824 0.0
C514 C 0.9804 0.90962 0.26523 0.0
C515 C 0.95813 0.00016 0.25105 0.0
H516 H 0.95257 0.95643 0.20037 0.0
C517 C 0.85169 0.0346 0.19675 0.0
C518 C 0.85616 0.02794 0.17686 0.0
C519 C 0.87864 0.0279 0.20985 0.0
C520 C 0.9546 0.96961 0.21424 0.0
H521 H 0.02094 0.95608 0.30997 0.0
H522 H 0.00765 0.99 0.28089 0.0
H523 H 0.9854 0.92803 0.22604 0.0
H524 H 0.89358 0.01219 0.15488 0.0
H525 H 0.94114 0.00135 0.17776 0.0
H526 H 0.92767 0.04194 0.23918 0.0
C527 C 0.00201 0.96217 0.2809 0.0
C528 C 0.97299 0.95293 0.22912 0.0
C529 C 0.00977 0.94271 0.29755 0.0
C530 C 0.88917 0.01718 0.17016 0.0
C531 C 0.91635 0.01074 0.1833 0.0
C532 C 0.94026 0.01714 0.23608 0.0
C533 C 0.98646 0.94602 0.26467 0.0
C534 C 0.97353 0.96713 0.24796 0.0
C535 C 0.91097 0.01474 0.20339 0.0
C536 C 0.93679 0.00125 0.21775 0.0
H537 H 0.98265 0.86236 0.2818 0.0
H538 H 0.96784 0.89624 0.25325 0.0
H539 H 0.95791 0.01206 0.26531 0.0
H540 H 0.82667 0.04314 0.20242 0.0
H541 H 0.87317 0.03096 0.22517 0.0
C542 C 0.1732 0.51831 0.78112 0.0
C543 C 0.16019 0.50983 0.79958 0.0
C544 C 0.15493 0.50845 0.76443 0.0
C545 C 0.07099 0.46825 0.74692 0.0
H546 H 0.1319 0.42882 0.70761 0.0
C547 C 0.03648 0.35184 0.69732 0.0
C548 C 0.04955 0.35154 0.67826 0.0
C549 C 0.04378 0.37988 0.70971 0.0
C550 C 0.11444 0.44034 0.71821 0.0
H551 H 0.11702 0.48592 0.8151 0.0
H552 H 0.08594 0.46734 0.7861 0.0
H553 H 0.157 0.46229 0.73404 0.0
H554 H 0.07829 0.38158 0.6568 0.0
H555 H 0.09141 0.43036 0.67859 0.0
H556 H 0.02868 0.44384 0.73152 0.0
C557 C 0.10973 0.48241 0.78436 0.0
C558 C 0.12882 0.4597 0.73342 0.0
C559 C 0.1277 0.49285 0.80105 0.0
C560 C 0.06801 0.38093 0.67144 0.0
C561 C 0.07562 0.40881 0.6839 0.0
C562 C 0.05664 0.44841 0.7318 0.0
C563 C 0.12358 0.48923 0.76582 0.0
C564 C 0.10742 0.47322 0.74825 0.0
C565 C 0.06453 0.40801 0.70333 0.0
C566 C 0.07836 0.43364 0.71755 0.0
H567 H 0.19794 0.53188 0.77955 0.0
H568 H 0.16596 0.51501 0.75043 0.0
H569 H 0.05362 0.47885 0.75784 0.0
H570 H 0.02192 0.32969 0.70294 0.0
H571 H 0.03508 0.37845 0.72465 0.0
C572 C 0.56727 0.68225 0.28347 0.0
C573 C 0.56558 0.66465 0.30137 0.0
C574 C 0.57641 0.66421 0.26658 0.0
C575 C 0.62917 0.58965 0.25208 0.0
H576 H 0.59253 0.60934 0.20075 0.0
C577 C 0.70213 0.5394 0.18571 0.0
C578 C 0.70782 0.56479 0.17131 0.0
C579 C 0.67629 0.54439 0.19974 0.0
C580 C 0.60307 0.60357 0.21498 0.0
H581 H 0.57017 0.61381 0.31532 0.0
H582 H 0.58626 0.58245 0.28582 0.0
H583 H 0.56242 0.63234 0.22934 0.0
H584 H 0.68933 0.614 0.15939 0.0
H585 H 0.64518 0.62341 0.18421 0.0
H586 H 0.67082 0.56273 0.23799 0.0
C587 C 0.58082 0.61028 0.28494 0.0
C588 C 0.58578 0.61668 0.23133 0.0
C589 C 0.57156 0.62827 0.30182 0.0
C590 C 0.68555 0.59399 0.17034 0.0
C591 C 0.66006 0.59927 0.18456 0.0
C592 C 0.64656 0.57683 0.23579 0.0
C593 C 0.58413 0.62822 0.26724 0.0
C594 C 0.59914 0.61048 0.25002 0.0
C595 C 0.65603 0.57518 0.19986 0.0
C596 C 0.63423 0.58429 0.21701 0.0
H597 H 0.56263 0.71022 0.28257 0.0
H598 H 0.57908 0.67883 0.25319 0.0
H599 H 0.64042 0.58487 0.26626 0.0
H600 H 0.71857 0.51632 0.1866 0.0
H601 H 0.67324 0.52483 0.211 0.0
C602 C 0.43715 0.07363 0.79759 0.0
C603 C 0.4029 0.06051 0.79894 0.0
C604 C 0.45164 0.08157 0.77952 0.0
C605 C 0.42291 0.10606 0.7304 0.0
H606 H 0.52271 0.10676 0.72037 0.0
C607 C 0.47787 0.17788 0.66434 0.0
C608 C 0.50237 0.20359 0.66974 0.0
C609 C 0.46942 0.1507 0.6771 0.0
C610 C 0.49475 0.10643 0.72292 0.0
H611 H 0.35795 0.04294 0.78234 0.0
H612 H 0.3836 0.05581 0.7508 0.0
H613 H 0.50007 0.07572 0.74873 0.0
H614 H 0.53954 0.21923 0.6919 0.0
H615 H 0.52491 0.17179 0.71411 0.0
H616 H 0.41766 0.13747 0.70491 0.0
C617 C 0.39889 0.06105 0.76371 0.0
C618 C 0.48178 0.08885 0.7392 0.0
C619 C 0.38423 0.05354 0.78179 0.0
C620 C 0.52031 0.19999 0.68742 0.0
C621 C 0.51212 0.17264 0.70008 0.0
C622 C 0.43584 0.12327 0.71406 0.0
C623 C 0.43238 0.07615 0.76237 0.0
C624 C 0.44579 0.08946 0.74349 0.0
C625 C 0.48566 0.14853 0.69537 0.0
C626 C 0.47196 0.12459 0.71049 0.0
H627 H 0.45224 0.07931 0.81052 0.0
H628 H 0.47729 0.09359 0.77913 0.0
H629 H 0.39513 0.10762 0.73333 0.0
H630 H 0.46371 0.17986 0.65076 0.0
H631 H 0.44914 0.13225 0.67305 0.0
C632 C 0.89976 0.21683 0.61807 0.0
C633 C 0.92639 0.24217 0.61827 0.0
C634 C 0.86557 0.22631 0.61322 0.0
C635 C 0.80889 0.29956 0.61957 0.0
H636 H 0.7441 0.25161 0.58533 0.0
C637 C 0.66569 0.34121 0.61762 0.0
C638 C 0.64053 0.31454 0.6164 0.0
C639 C 0.70072 0.33411 0.61371 0.0
C640 C 0.76177 0.26507 0.5951 0.0
H641 H 0.93906 0.29652 0.6125 0.0
H642 H 0.87896 0.31338 0.60459 0.0
H643 H 0.80587 0.23472 0.58557 0.0
H644 H 0.63188 0.2598 0.60962 0.0
H645 H 0.69347 0.24658 0.60411 0.0
H646 H 0.76526 0.32828 0.6302 0.0
C647 C 0.88457 0.28625 0.60806 0.0
C648 C 0.7971 0.25554 0.59509 0.0
C649 C 0.91877 0.27667 0.61265 0.0
C650 C 0.65091 0.28074 0.61081 0.0
C651 C 0.68616 0.27335 0.60739 0.0
C652 C 0.77364 0.3086 0.61988 0.0
C653 C 0.85759 0.26133 0.60879 0.0
C654 C 0.82083 0.27268 0.6074 0.0
C655 C 0.71162 0.29985 0.60914 0.0
C656 C 0.74951 0.29141 0.60772 0.0
H657 H 0.90502 0.19015 0.62259 0.0
H658 H 0.84505 0.20677 0.61408 0.0
H659 H 0.82665 0.31268 0.62947 0.0
H660 H 0.65851 0.36741 0.62218 0.0
H661 H 0.71935 0.35541 0.61475 0.0
C662 C 0.77666 0.42314 0.10393 0.0
C663 C 0.81063 0.42874 0.11103 0.0
C664 C 0.76539 0.38932 0.09932 0.0
C665 C 0.79242 0.2997 0.0883 0.0
H666 H 0.71707 0.27135 0.12249 0.0
C667 C 0.77018 0.15599 0.10954 0.0
C668 C 0.73689 0.14496 0.11548 0.0
C669 C 0.77602 0.19086 0.10436 0.0
C670 C 0.73743 0.27872 0.11237 0.0
H671 H 0.86 0.40394 0.11807 0.0
H672 H 0.84069 0.34488 0.10931 0.0
H673 H 0.73334 0.3327 0.1205 0.0
H674 H 0.68323 0.16118 0.11999 0.0
H675 H 0.69265 0.22142 0.10961 0.0
H676 H 0.79659 0.24584 0.08005 0.0
C677 C 0.82282 0.36664 0.10736 0.0
C678 C 0.74683 0.31398 0.11135 0.0
C679 C 0.83386 0.40036 0.11233 0.0
C680 C 0.7091 0.16893 0.11524 0.0
C681 C 0.7147 0.20363 0.1096 0.0
C682 C 0.78252 0.26444 0.08898 0.0
C683 C 0.78821 0.36076 0.10137 0.0
C684 C 0.77499 0.32457 0.09974 0.0
C685 C 0.74847 0.21534 0.10464 0.0
C686 C 0.75561 0.25331 0.10151 0.0
H687 H 0.75843 0.44475 0.10264 0.0
H688 H 0.73859 0.3853 0.09472 0.0
H689 H 0.81415 0.30745 0.07917 0.0
H690 H 0.79197 0.13784 0.10946 0.0
H691 H 0.8025 0.19878 0.10094 0.0
C692 C 0.40031 0.72158 0.37593 0.0
C693 C 0.42663 0.74701 0.37785 0.0
C694 C 0.36547 0.73029 0.37956 0.0
C695 C 0.30885 0.80294 0.37284 0.0
H696 H 0.24073 0.75252 0.40378 0.0
C697 C 0.16525 0.84413 0.37157 0.0
C698 C 0.13995 0.81752 0.37192 0.0
C699 C 0.20006 0.83663 0.37583 0.0
C700 C 0.25934 0.76665 0.39489 0.0
H701 H 0.43789 0.80067 0.38603 0.0
H702 H 0.37662 0.8163 0.39174 0.0
H703 H 0.30256 0.73619 0.40551 0.0
H704 H 0.13086 0.76233 0.37721 0.0
H705 H 0.19215 0.7485 0.38332 0.0
H706 H 0.26622 0.83184 0.36113 0.0
C707 C 0.38303 0.78964 0.38762 0.0
C708 C 0.29468 0.75745 0.39605 0.0
C709 C 0.41788 0.78077 0.3843 0.0
C710 C 0.15001 0.78325 0.37672 0.0
C711 C 0.18505 0.77549 0.38051 0.0
C712 C 0.27361 0.81164 0.37136 0.0
C713 C 0.35653 0.76467 0.38483 0.0
C714 C 0.3196 0.77555 0.38499 0.0
C715 C 0.21061 0.80206 0.3799 0.0
C716 C 0.24831 0.79358 0.38232 0.0
H717 H 0.40644 0.69551 0.37069 0.0
H718 H 0.34533 0.71078 0.37711 0.0
H719 H 0.32762 0.81679 0.36389 0.0
H720 H 0.15829 0.87071 0.36762 0.0
H721 H 0.21875 0.85795 0.37563 0.0
C722 C 0.35398 0.90251 0.87939 0.0
C723 C 0.33031 0.92994 0.88277 0.0
C724 C 0.34477 0.86804 0.88392 0.0
C725 C 0.26896 0.81487 0.88181 0.0
H726 H 0.32316 0.74323 0.90801 0.0
C727 C 0.22598 0.67154 0.87751 0.0
C728 C 0.25238 0.6463 0.87549 0.0
C729 C 0.23423 0.70573 0.88303 0.0
C730 C 0.30786 0.76283 0.90046 0.0
H731 H 0.27961 0.94363 0.8945 0.0
H732 H 0.26296 0.88303 0.90184 0.0
H733 H 0.34162 0.80457 0.90988 0.0
H734 H 0.30795 0.63656 0.87818 0.0
H735 H 0.32289 0.69682 0.88632 0.0
H736 H 0.23675 0.77377 0.87104 0.0
C737 C 0.28869 0.88826 0.89592 0.0
C738 C 0.31831 0.79791 0.90172 0.0
C739 C 0.29813 0.92274 0.89169 0.0
C740 C 0.28714 0.6557 0.87941 0.0
C741 C 0.29558 0.69016 0.88441 0.0
C742 C 0.25896 0.77989 0.88018 0.0
C743 C 0.31157 0.8606 0.89157 0.0
C744 C 0.29904 0.82408 0.89226 0.0
C745 C 0.26926 0.7158 0.88602 0.0
C746 C 0.27845 0.75328 0.8893 0.0
H747 H 0.37872 0.90745 0.87224 0.0
H748 H 0.36261 0.84701 0.88022 0.0
H749 H 0.25406 0.83462 0.8741 0.0
H750 H 0.19898 0.66513 0.87433 0.0
H751 H 0.21309 0.7244 0.88455 0.0
C752 C 0.39937 0.35285 0.61411 0.0
C753 C 0.42165 0.32549 0.61992 0.0
C754 C 0.36448 0.3459 0.60939 0.0
C755 C 0.30106 0.27673 0.59691 0.0
H756 H 0.23836 0.32722 0.63112 0.0
C757 C 0.16607 0.22289 0.61868 0.0
C758 C 0.13986 0.24632 0.62457 0.0
C759 C 0.19904 0.23538 0.6133 0.0
C760 C 0.25508 0.3134 0.62102 0.0
H761 H 0.42571 0.26919 0.62389 0.0
H762 H 0.36499 0.25712 0.61537 0.0
H763 H 0.29927 0.34448 0.62918 0.0
H764 H 0.12641 0.30118 0.62793 0.0
H765 H 0.18318 0.32311 0.61762 0.0
H766 H 0.25696 0.24542 0.5888 0.0
C767 C 0.37441 0.28388 0.61461 0.0
C768 C 0.29013 0.32332 0.61998 0.0
C769 C 0.40907 0.29085 0.61964 0.0
C770 C 0.14641 0.2825 0.62379 0.0
C771 C 0.17906 0.29503 0.61798 0.0
C772 C 0.26577 0.26713 0.59768 0.0
C773 C 0.35154 0.31144 0.61003 0.0
C774 C 0.31362 0.30448 0.60835 0.0
C775 C 0.20622 0.27162 0.6133 0.0
C776 C 0.24252 0.2847 0.61019 0.0
H777 H 0.40836 0.37979 0.61414 0.0
H778 H 0.34731 0.36756 0.60583 0.0
H779 H 0.31871 0.26195 0.58773 0.0
H780 H 0.16168 0.19483 0.61916 0.0
H781 H 0.21928 0.21643 0.61004 0.0
C782 C 0.85745 0.66705 0.1145 0.0
C783 C 0.82976 0.64477 0.11981 0.0
C784 C 0.85102 0.70224 0.11007 0.0
C785 C 0.78302 0.76623 0.09689 0.0
H786 H 0.83251 0.8292 0.13151 0.0
C787 C 0.72946 0.90221 0.11725 0.0
C788 C 0.75273 0.92867 0.12311 0.0
C789 C 0.74193 0.86893 0.11236 0.0
C790 C 0.81899 0.81237 0.12131 0.0
H791 H 0.77347 0.64114 0.12327 0.0
H792 H 0.76228 0.70236 0.11521 0.0
H793 H 0.8493 0.76791 0.12999 0.0
H794 H 0.80741 0.94198 0.12702 0.0
H795 H 0.82933 0.88451 0.11764 0.0
H796 H 0.75253 0.81054 0.08824 0.0
C797 C 0.78891 0.69271 0.11464 0.0
C798 C 0.82862 0.77712 0.12052 0.0
C799 C 0.79537 0.65775 0.1194 0.0
C800 C 0.78882 0.92188 0.12286 0.0
C801 C 0.80135 0.88883 0.11759 0.0
C802 C 0.77373 0.80167 0.09742 0.0
C803 C 0.81675 0.7155 0.11047 0.0
C804 C 0.81012 0.75356 0.10871 0.0
C805 C 0.77802 0.86156 0.11285 0.0
C806 C 0.79092 0.82503 0.11008 0.0
H807 H 0.88422 0.65775 0.11467 0.0
H808 H 0.87289 0.71934 0.10684 0.0
H809 H 0.76854 0.74854 0.08756 0.0
H810 H 0.70148 0.90669 0.11734 0.0
H811 H 0.72304 0.84862 0.10907 0.0
C812 C 0.64846 0.78403 0.37927 0.0
C813 C 0.64217 0.74822 0.37618 0.0
C814 C 0.68147 0.79563 0.38504 0.0
C815 C 0.77088 0.76492 0.39988 0.0
H816 H 0.79942 0.84793 0.37152 0.0
C817 C 0.91009 0.79291 0.37239 0.0
C818 C 0.92268 0.82751 0.37314 0.0
C819 C 0.87638 0.78502 0.37879 0.0
C820 C 0.79174 0.82513 0.37987 0.0
H821 H 0.66466 0.6962 0.37762 0.0
H822 H 0.72289 0.7164 0.38661 0.0
H823 H 0.73845 0.83082 0.37159 0.0
H824 H 0.91053 0.88067 0.38214 0.0
H825 H 0.85116 0.8669 0.39292 0.0
H826 H 0.8252 0.75818 0.40682 0.0
C827 C 0.70224 0.73564 0.38522 0.0
C828 C 0.75664 0.81528 0.38 0.0
C829 C 0.6689 0.72398 0.37992 0.0
C830 C 0.90151 0.85378 0.3813 0.0
C831 C 0.86757 0.84595 0.38746 0.0
C832 C 0.80619 0.77452 0.39947 0.0
C833 C 0.70922 0.77175 0.38729 0.0
C834 C 0.74579 0.78459 0.38963 0.0
C835 C 0.85447 0.81165 0.38585 0.0
C836 C 0.81696 0.80431 0.38911 0.0
H837 H 0.62802 0.8032 0.37682 0.0
H838 H 0.68546 0.82349 0.3871 0.0
H839 H 0.76346 0.74156 0.4078 0.0
H840 H 0.9259 0.77203 0.36634 0.0
H841 H 0.8668 0.75843 0.37722 0.0
C842 C 0.29427 0.15349 0.87731 0.0
C843 C 0.32951 0.1462 0.87334 0.0
C844 C 0.28379 0.18742 0.88212 0.0
C845 C 0.31714 0.27779 0.89326 0.0
H846 H 0.23055 0.30495 0.86808 0.0
C847 C 0.28291 0.41761 0.86736 0.0
C848 C 0.2485 0.42954 0.8702 0.0
C849 C 0.29242 0.38365 0.87278 0.0
C850 C 0.25447 0.29768 0.87549 0.0
H851 H 0.38173 0.16808 0.87213 0.0
H852 H 0.36336 0.22777 0.8795 0.0
H853 H 0.24784 0.24384 0.86823 0.0
H854 H 0.19753 0.4158 0.8818 0.0
H855 H 0.21407 0.35611 0.89084 0.0
H856 H 0.32452 0.33255 0.89925 0.0
C857 C 0.34379 0.20726 0.87952 0.0
C858 C 0.26441 0.26252 0.87568 0.0
C859 C 0.35438 0.17306 0.87516 0.0
C860 C 0.22421 0.40734 0.87934 0.0
C861 C 0.23361 0.37319 0.8845 0.0
C862 C 0.30742 0.31314 0.89276 0.0
C863 C 0.30818 0.21507 0.88255 0.0
C864 C 0.29614 0.25209 0.88431 0.0
C865 C 0.2676 0.36086 0.88091 0.0
C866 C 0.27622 0.32339 0.88363 0.0
H867 H 0.27466 0.13305 0.87633 0.0
H868 H 0.25634 0.19209 0.88497 0.0
H869 H 0.34141 0.27075 0.90036 0.0
H870 H 0.30231 0.43419 0.8605 0.0
H871 H 0.31873 0.37466 0.86972 0.0
loop_
_geom_bond_atom_site_label_1
_geom_bond_atom_site_label_2
_geom_bond_distance
_geom_bond_site_symmetry_2
_ccdc_geom_bond_type
Co0 O3 1.970 . S
Co0 N17 1.989 . S
Co0 O25 1.967 . S
Co0 O32 1.920 . S
Co1 O4 1.966 . S
Co1 N10 2.022 . S
Co1 N18 1.993 . S
Co1 O26 1.941 . S
C2 O3 1.258 . S
C2 O4 1.263 . S
O3 Co0 1.970 . S
O3 C2 1.258 . S
O4 Co1 1.966 . S
O4 C2 1.263 . S
C5 O6 1.235 . S
C5 O32 1.289 . S
O6 C5 1.235 . S
C7 C9 1.400 . S
C7 N10 1.351 . S
C7 C12 1.501 . S
C8 C9 1.387 . S
C8 N11 1.341 . S
C9 C7 1.400 . S
C9 C8 1.387 . S
N10 Co1 2.022 . S
N10 C7 1.351 . S
N10 N11 1.365 . S
N11 C8 1.341 . S
N11 N10 1.365 . S
N11 H31 0.862 . S
C12 C7 1.501 . S
C12 H13 0.961 . S
C12 H14 0.961 . S
C12 H15 0.960 . S
H13 C12 0.961 . S
H14 C12 0.961 . S
H15 C12 0.960 . S
C16 N17 1.342 1_655 S
C16 C20 1.401 . S
C16 C21 1.499 . S
N17 Co0 1.989 . S
N17 C16 1.342 1_455 S
N17 N18 1.388 . S
N18 Co1 1.993 . S
N18 N17 1.388 . S
N18 C19 1.346 1_455 S
C19 N18 1.346 1_655 S
C19 C20 1.396 . S
C19 C29 1.510 . S
C20 C16 1.401 . S
C20 C19 1.396 . S
C21 C16 1.499 . S
C21 H22 0.959 1_655 S
C21 H23 0.960 . S
C21 H24 0.961 . S
H22 C21 0.959 1_455 S
H23 C21 0.960 . S
H24 C21 0.961 . S
O25 Co0 1.967 . S
O25 C33 1.258 . S
O26 Co1 1.941 . S
O26 C33 1.266 . S
H27 C29 0.959 . S
H28 C29 0.961 . S
C29 C19 1.510 . S
C29 H27 0.959 . S
C29 H28 0.961 . S
C29 H30 0.960 . S
H30 C29 0.960 . S
H31 N11 0.862 . S
O32 Co0 1.920 . S
O32 C5 1.289 . S
C33 O25 1.258 . S
C33 O26 1.266 . S
Co34 O37 1.970 . S
Co34 N51 1.989 . S
Co34 O59 1.967 . S
Co34 O66 1.920 . S
Co35 O38 1.966 . S
Co35 N44 2.022 . S
Co35 N52 1.993 . S
Co35 O60 1.941 . S
C36 O37 1.258 . S
C36 O38 1.263 . S
O37 Co34 1.970 . S
O37 C36 1.258 . S
O38 Co35 1.966 . S
O38 C36 1.263 . S
C39 O40 1.235 . S
C39 O66 1.289 . S
O40 C39 1.235 . S
C41 C43 1.400 . S
C41 N44 1.351 . S
C41 C46 1.501 . S
C42 C43 1.387 . S
C42 N45 1.341 . S
C43 C41 1.400 . S
C43 C42 1.387 . S
N44 Co35 2.022 . S
N44 C41 1.351 . S
N44 N45 1.365 . S
N45 C42 1.341 . S
N45 N44 1.365 . S
N45 H65 0.862 . S
C46 C41 1.501 . S
C46 H47 0.961 . S
C46 H48 0.961 . S
C46 H49 0.960 . S
H47 C46 0.961 . S
H48 C46 0.961 . S
H49 C46 0.960 . S
C50 N51 1.342 . S
C50 C54 1.401 . S
C50 C55 1.499 . S
N51 Co34 1.989 . S
N51 C50 1.342 . S
N51 N52 1.388 . S
N52 Co35 1.993 . S
N52 N51 1.388 . S
N52 C53 1.346 . S
C53 N52 1.346 . S
C53 C54 1.396 . S
C53 C63 1.510 . S
C54 C50 1.401 . S
C54 C53 1.396 . S
C55 C50 1.499 . S
C55 H56 0.959 . S
C55 H57 0.960 . S
C55 H58 0.961 . S
H56 C55 0.959 . S
H57 C55 0.960 . S
H58 C55 0.961 . S
O59 Co34 1.967 . S
O59 C67 1.258 . S
O60 Co35 1.941 . S
O60 C67 1.266 . S
H61 C63 0.959 . S
H62 C63 0.961 . S
C63 C53 1.510 . S
C63 H61 0.959 . S
C63 H62 0.961 . S
C63 H64 0.960 . S
H64 C63 0.960 . S
H65 N45 0.862 . S
O66 Co34 1.920 . S
O66 C39 1.289 . S
C67 O59 1.258 . S
C67 O60 1.266 . S
Co68 O71 1.970 . S
Co68 N85 1.989 . S
Co68 O93 1.967 . S
Co68 O100 1.920 . S
Co69 O72 1.966 . S
Co69 N78 2.022 . S
Co69 N86 1.993 . S
Co69 O94 1.941 . S
C70 O71 1.258 . S
C70 O72 1.263 . S
O71 Co68 1.970 . S
O71 C70 1.258 . S
O72 Co69 1.966 . S
O72 C70 1.263 . S
C73 O74 1.235 . S
C73 O100 1.289 . S
O74 C73 1.235 . S
C75 C77 1.400 . S
C75 N78 1.351 . S
C75 C80 1.501 . S
C76 C77 1.387 . S
C76 N79 1.341 . S
C77 C75 1.400 . S
C77 C76 1.387 . S
N78 Co69 2.022 . S
N78 C75 1.351 . S
N78 N79 1.365 . S
N79 C76 1.341 . S
N79 N78 1.365 . S
N79 H99 0.862 . S
C80 C75 1.501 . S
C80 H81 0.961 . S
C80 H82 0.961 . S
C80 H83 0.960 . S
H81 C80 0.961 . S
H82 C80 0.961 . S
H83 C80 0.960 . S
C84 N85 1.342 . S
C84 C88 1.401 . S
C84 C89 1.499 . S
N85 Co68 1.989 . S
N85 C84 1.342 . S
N85 N86 1.388 . S
N86 Co69 1.993 . S
N86 N85 1.388 . S
N86 C87 1.346 . S
C87 N86 1.346 . S
C87 C88 1.396 . S
C87 C97 1.510 . S
C88 C84 1.401 . S
C88 C87 1.396 . S
C89 C84 1.499 . S
C89 H90 0.959 . S
C89 H91 0.960 . S
C89 H92 0.961 . S
H90 C89 0.959 . S
H91 C89 0.960 . S
H92 C89 0.961 . S
O93 Co68 1.967 . S
O93 C101 1.258 . S
O94 Co69 1.941 . S
O94 C101 1.266 . S
H95 C97 0.959 . S
H96 C97 0.961 . S
C97 C87 1.510 . S
C97 H95 0.959 . S
C97 H96 0.961 . S
C97 H98 0.960 . S
H98 C97 0.960 . S
H99 N79 0.862 . S
O100 Co68 1.920 . S
O100 C73 1.289 . S
C101 O93 1.258 . S
C101 O94 1.266 . S
Co102 O105 1.970 1_545 S
Co102 N119 1.989 . S
Co102 O127 1.967 1_545 S
Co102 O134 1.920 . S
Co103 O106 1.966 1_545 S
Co103 N112 2.022 . S
Co103 N120 1.993 . S
Co103 O128 1.945 . S
C104 O105 1.258 . S
C104 O106 1.263 . S
O105 Co102 1.970 1_565 S
O105 C104 1.258 . S
O106 Co103 1.966 1_565 S
O106 C104 1.263 . S
C107 O108 1.235 . S
C107 O134 1.289 . S
O108 C107 1.235 . S
C109 C111 1.400 . S
C109 N112 1.351 . S
C109 C114 1.501 1_545 S
C110 C111 1.387 . S
C110 N113 1.341 . S
C111 C109 1.400 . S
C111 C110 1.387 . S
N112 Co103 2.022 . S
N112 C109 1.351 . S
N112 N113 1.365 . S
N113 C110 1.341 . S
N113 N112 1.365 . S
N113 H133 0.862 . S
C114 C109 1.501 1_565 S
C114 H115 0.961 . S
C114 H116 0.960 1_565 S
C114 H117 0.960 . S
H115 C114 0.961 . S
H116 C114 0.960 1_545 S
H117 C114 0.960 . S
C118 N119 1.342 . S
C118 C122 1.401 . S
C118 C123 1.499 . S
N119 Co102 1.989 . S
N119 C118 1.342 . S
N119 N120 1.388 . S
N120 Co103 1.993 . S
N120 N119 1.388 . S
N120 C121 1.346 . S
C121 N120 1.346 . S
C121 C122 1.396 . S
C121 C131 1.510 . S
C122 C118 1.401 . S
C122 C121 1.396 . S
C123 C118 1.499 . S
C123 H124 0.959 . S
C123 H125 0.960 . S
C123 H126 0.961 . S
H124 C123 0.959 . S
H125 C123 0.960 . S
H126 C123 0.961 . S
O127 Co102 1.967 1_565 S
O127 C135 1.258 . S
O128 Co103 1.945 . S
O128 C135 1.263 1_545 S
H129 C131 0.959 . S
H130 C131 0.961 . S
C131 C121 1.510 . S
C131 H129 0.959 . S
C131 H130 0.961 . S
C131 H132 0.960 . S
H132 C131 0.960 . S
H133 N113 0.862 . S
O134 Co102 1.920 . S
O134 C107 1.289 . S
C135 O127 1.258 . S
C135 O128 1.263 1_565 S
Co136 O139 1.970 1_455 S
Co136 N153 1.989 . S
Co136 O161 1.967 1_455 S
Co136 O168 1.920 . S
Co137 O140 1.966 1_455 S
Co137 N146 2.022 . S
Co137 N154 1.993 . S
Co137 O162 1.941 . S
C138 O139 1.258 . S
C138 O140 1.263 . S
O139 Co136 1.970 1_655 S
O139 C138 1.258 . S
O140 Co137 1.966 1_655 S
O140 C138 1.263 . S
C141 O142 1.235 . S
C141 O168 1.289 . S
O142 C141 1.235 . S
C143 C145 1.400 . S
C143 N146 1.351 . S
C143 C148 1.501 1_455 S
C144 C145 1.387 . S
C144 N147 1.341 . S
C145 C143 1.400 . S
C145 C144 1.387 . S
N146 Co137 2.022 . S
N146 C143 1.351 . S
N146 N147 1.365 . S
N147 C144 1.341 . S
N147 N146 1.365 . S
N147 H167 0.862 . S
C148 C143 1.501 1_655 S
C148 H149 0.961 . S
C148 H150 0.961 1_655 S
C148 H151 0.960 . S
H149 C148 0.961 . S
H150 C148 0.961 1_455 S
H151 C148 0.960 . S
C152 N153 1.342 . S
C152 C156 1.401 . S
C152 C157 1.499 . S
N153 Co136 1.989 . S
N153 C152 1.342 . S
N153 N154 1.388 . S
N154 Co137 1.993 . S
N154 N153 1.388 . S
N154 C155 1.346 . S
C155 N154 1.346 . S
C155 C156 1.396 . S
C155 C165 1.510 . S
C156 C152 1.401 . S
C156 C155 1.396 . S
C157 C152 1.499 . S
C157 H158 0.959 . S
C157 H159 0.960 . S
C157 H160 0.961 . S
H158 C157 0.959 . S
H159 C157 0.960 . S
H160 C157 0.961 . S
O161 Co136 1.967 1_655 S
O161 C169 1.258 . S
O162 Co137 1.941 . S
O162 C169 1.266 1_455 S
H163 C165 0.959 . S
H164 C165 0.961 . S
C165 C155 1.510 . S
C165 H163 0.959 . S
C165 H164 0.961 . S
C165 H166 0.960 . S
H166 C165 0.960 . S
H167 N147 0.862 . S
O168 Co136 1.920 . S
O168 C141 1.289 . S
C169 O161 1.258 . S
C169 O162 1.266 1_655 S
Co170 O173 1.970 . S
Co170 N187 1.989 . S
Co170 O195 1.967 . S
Co170 O202 1.920 . S
Co171 O174 1.966 . S
Co171 N180 2.022 . S
Co171 N188 1.993 . S
Co171 O196 1.941 . S
C172 O173 1.258 . S
C172 O174 1.263 . S
O173 Co170 1.970 . S
O173 C172 1.258 . S
O174 Co171 1.966 . S
O174 C172 1.263 . S
C175 O176 1.235 . S
C175 O202 1.289 . S
O176 C175 1.235 . S
C177 C179 1.400 . S
C177 N180 1.351 . S
C177 C182 1.501 . S
C178 C179 1.387 . S
C178 N181 1.341 . S
C179 C177 1.400 . S
C179 C178 1.387 . S
N180 Co171 2.022 . S
N180 C177 1.351 . S
N180 N181 1.365 . S
N181 C178 1.341 . S
N181 N180 1.365 . S
N181 H201 0.862 . S
C182 C177 1.501 . S
C182 H183 0.961 . S
C182 H184 0.961 . S
C182 H185 0.960 . S
H183 C182 0.961 . S
H184 C182 0.961 . S
H185 C182 0.960 . S
C186 N187 1.342 . S
C186 C190 1.401 . S
C186 C191 1.499 . S
N187 Co170 1.989 . S
N187 C186 1.342 . S
N187 N188 1.388 . S
N188 Co171 1.993 . S
N188 N187 1.388 . S
N188 C189 1.346 . S
C189 N188 1.346 . S
C189 C190 1.396 . S
C189 C199 1.510 . S
C190 C186 1.401 . S
C190 C189 1.396 . S
C191 C186 1.499 . S
C191 H192 0.959 . S
C191 H193 0.960 . S
C191 H194 0.961 . S
H192 C191 0.959 . S
H193 C191 0.960 . S
H194 C191 0.961 . S
O195 Co170 1.967 . S
O195 C203 1.258 . S
O196 Co171 1.941 . S
O196 C203 1.266 . S
H197 C199 0.959 . S
H198 C199 0.961 . S
C199 C189 1.510 . S
C199 H197 0.959 . S
C199 H198 0.961 . S
C199 H200 0.960 . S
H200 C199 0.960 . S
H201 N181 0.862 . S
O202 Co170 1.920 . S
O202 C175 1.289 . S
C203 O195 1.258 . S
C203 O196 1.266 . S
Co204 O207 1.970 . S
Co204 N221 1.989 . S
Co204 O229 1.967 . S
Co204 O236 1.920 . S
Co205 O208 1.966 . S
Co205 N214 2.022 . S
Co205 N222 1.993 . S
Co205 O230 1.941 . S
C206 O207 1.258 . S
C206 O208 1.263 . S
O207 Co204 1.970 . S
O207 C206 1.258 . S
O208 Co205 1.966 . S
O208 C206 1.263 . S
C209 O210 1.235 . S
C209 O236 1.289 . S
O210 C209 1.235 . S
C211 C213 1.400 . S
C211 N214 1.351 . S
C211 C216 1.501 . S
C212 C213 1.387 . S
C212 N215 1.341 . S
C213 C211 1.400 . S
C213 C212 1.387 . S
N214 Co205 2.022 . S
N214 C211 1.351 . S
N214 N215 1.365 . S
N215 C212 1.341 . S
N215 N214 1.365 . S
N215 H235 0.862 . S
C216 C211 1.501 . S
C216 H217 0.961 . S
C216 H218 0.961 . S
C216 H219 0.960 . S
H217 C216 0.961 . S
H218 C216 0.961 . S
H219 C216 0.960 . S
C220 N221 1.342 . S
C220 C224 1.401 . S
C220 C225 1.499 . S
N221 Co204 1.989 . S
N221 C220 1.342 . S
N221 N222 1.388 . S
N222 Co205 1.993 . S
N222 N221 1.388 . S
N222 C223 1.346 . S
C223 N222 1.346 . S
C223 C224 1.396 . S
C223 C233 1.510 . S
C224 C220 1.401 . S
C224 C223 1.396 . S
C225 C220 1.499 . S
C225 H226 0.959 . S
C225 H227 0.960 . S
C225 H228 0.961 . S
H226 C225 0.959 . S
H227 C225 0.960 . S
H228 C225 0.961 . S
O229 Co204 1.967 . S
O229 C237 1.258 . S
O230 Co205 1.941 . S
O230 C237 1.266 . S
H231 C233 0.959 . S
H232 C233 0.961 . S
C233 C223 1.510 . S
C233 H231 0.959 . S
C233 H232 0.961 . S
C233 H234 0.960 . S
H234 C233 0.960 . S
H235 N215 0.862 . S
O236 Co204 1.920 . S
O236 C209 1.289 . S
C237 O229 1.258 . S
C237 O230 1.266 . S
Co238 O241 1.970 . S
Co238 N255 1.989 . S
Co238 O263 1.967 . S
Co238 O270 1.920 . S
Co239 O242 1.966 . S
Co239 N248 2.022 . S
Co239 N256 1.993 . S
Co239 O264 1.941 . S
C240 O241 1.258 . S
C240 O242 1.263 . S
O241 Co238 1.970 . S
O241 C240 1.258 . S
O242 Co239 1.966 . S
O242 C240 1.263 . S
C243 O244 1.235 . S
C243 O270 1.289 . S
O244 C243 1.235 . S
C245 C247 1.400 . S
C245 N248 1.351 . S
C245 C250 1.501 . S
C246 C247 1.387 . S
C246 N249 1.341 . S
C247 C245 1.400 . S
C247 C246 1.387 . S
N248 Co239 2.022 . S
N248 C245 1.351 . S
N248 N249 1.365 . S
N249 C246 1.341 . S
N249 N248 1.365 . S
N249 H269 0.862 . S
C250 C245 1.501 . S
C250 H251 0.961 . S
C250 H252 0.961 . S
C250 H253 0.960 . S
H251 C250 0.961 . S
H252 C250 0.961 . S
H253 C250 0.960 . S
C254 N255 1.342 1_565 S
C254 C258 1.401 . S
C254 C259 1.499 . S
N255 Co238 1.989 . S
N255 C254 1.342 1_545 S
N255 N256 1.388 . S
N256 Co239 1.993 . S
N256 N255 1.388 . S
N256 C257 1.346 1_545 S
C257 N256 1.346 1_565 S
C257 C258 1.396 . S
C257 C267 1.510 . S
C258 C254 1.401 . S
C258 C257 1.396 . S
C259 C254 1.499 . S
C259 H260 0.959 1_565 S
C259 H261 0.960 . S
C259 H262 0.961 . S
H260 C259 0.959 1_545 S
H261 C259 0.960 . S
H262 C259 0.961 . S
O263 Co238 1.967 . S
O263 C271 1.258 . S
O264 Co239 1.941 . S
O264 C271 1.266 . S
H265 C267 0.959 . S
H266 C267 0.961 . S
C267 C257 1.510 . S
C267 H265 0.959 . S
C267 H266 0.961 . S
C267 H268 0.960 . S
H268 C267 0.960 . S
H269 N249 0.862 . S
O270 Co238 1.920 . S
O270 C243 1.289 . S
C271 O263 1.258 . S
C271 O264 1.266 . S
C272 C273 1.349 . S
C272 C274 1.327 . S
C272 H297 0.950 . S
C273 C272 1.349 . S
C273 C289 1.349 . S
C274 C272 1.327 . S
C274 C293 1.429 . S
C274 H298 0.950 . S
C275 C292 1.574 . S
C275 C294 1.368 . S
C275 H299 0.949 . S
H276 C280 0.949 . S
C277 C278 1.349 . S
C277 C279 1.327 . S
C277 H300 0.950 . S
C278 C277 1.349 . S
C278 C290 1.349 . S
C279 C277 1.327 . S
C279 C295 1.429 . S
C279 H301 0.950 . S
C280 H276 0.949 . S
C280 C288 1.574 . S
C280 C296 1.368 . S
H281 C289 0.950 . S
H282 C287 0.950 1_545 S
H283 C288 0.949 1_565 S
H284 C290 0.950 . S
H285 C291 0.950 . S
H286 C292 0.949 . S
C287 H282 0.950 1_565 S
C287 C289 1.327 . S
C287 C293 1.429 . S
C288 C280 1.574 . S
C288 H283 0.949 1_545 S
C288 C294 1.368 . S
C289 C273 1.349 . S
C289 H281 0.950 . S
C289 C287 1.327 . S
C290 C278 1.349 . S
C290 H284 0.950 . S
C290 C291 1.327 . S
C291 H285 0.950 . S
C291 C290 1.327 . S
C291 C295 1.429 . S
C292 C275 1.574 . S
C292 H286 0.949 . S
C292 C296 1.368 . S
C293 C274 1.429 . S
C293 C287 1.429 . S
C293 C294 1.523 1_565 S
C294 C275 1.368 . S
C294 C288 1.368 . S
C294 C293 1.523 1_545 S
C295 C279 1.429 . S
C295 C291 1.429 . S
C295 C296 1.523 . S
C296 C280 1.368 . S
C296 C292 1.368 . S
C296 C295 1.523 . S
H297 C272 0.950 . S
H298 C274 0.950 . S
H299 C275 0.949 . S
H300 C277 0.950 . S
H301 C279 0.950 . S
C302 C303 1.349 . S
C302 C304 1.327 . S
C302 H327 0.950 . S
C303 C302 1.349 . S
C303 C319 1.349 . S
C304 C302 1.327 . S
C304 C323 1.429 . S
C304 H328 0.950 1_655 S
C305 C322 1.574 1_554 S
C305 C324 1.368 . S
C305 H329 0.949 1_455 S
H306 C310 0.949 . S
C307 C308 1.349 . S
C307 C309 1.327 . S
C307 H330 0.950 . S
C308 C307 1.349 . S
C308 C320 1.349 . S
C309 C307 1.327 . S
C309 C325 1.429 . S
C309 H331 0.950 . S
C310 H306 0.949 . S
C310 C318 1.574 1_556 S
C310 C326 1.368 . S
H311 C319 0.950 . S
H312 C317 0.950 . S
H313 C318 0.949 . S
H314 C320 0.950 . S
H315 C321 0.950 . S
H316 C322 0.949 . S
C317 H312 0.950 . S
C317 C319 1.327 . S
C317 C323 1.429 . S
C318 C310 1.574 1_554 S
C318 H313 0.949 . S
C318 C324 1.368 . S
C319 C303 1.349 . S
C319 H311 0.950 . S
C319 C317 1.327 . S
C320 C308 1.349 . S
C320 H314 0.950 . S
C320 C321 1.327 . S
C321 H315 0.950 . S
C321 C320 1.327 . S
C321 C325 1.429 . S
C322 C305 1.574 1_556 S
C322 H316 0.949 . S
C322 C326 1.368 . S
C323 C304 1.429 . S
C323 C317 1.429 . S
C323 C324 1.523 1_655 S
C324 C305 1.368 . S
C324 C318 1.368 . S
C324 C323 1.523 1_455 S
C325 C309 1.429 . S
C325 C321 1.429 . S
C325 C326 1.523 . S
C326 C310 1.368 . S
C326 C322 1.368 . S
C326 C325 1.523 . S
H327 C302 0.950 . S
H328 C304 0.950 1_455 S
H329 C305 0.949 1_655 S
H330 C307 0.950 . S
H331 C309 0.950 . S
C332 C333 1.349 . S
C332 C334 1.327 . S
C332 H357 0.950 . S
C333 C332 1.349 . S
C333 C349 1.349 . S
C334 C332 1.327 . S
C334 C353 1.429 . S
C334 H358 0.950 . S
C335 C352 1.574 . S
C335 C354 1.368 . S
C335 H359 0.949 . S
H336 C340 0.949 . S
C337 C338 1.349 . S
C337 C339 1.327 . S
C337 H360 0.950 . S
C338 C337 1.349 . S
C338 C350 1.349 . S
C339 C337 1.327 . S
C339 C355 1.429 . S
C339 H361 0.950 . S
C340 H336 0.949 . S
C340 C348 1.574 . S
C340 C356 1.368 . S
H341 C349 0.950 . S
H342 C347 0.950 . S
H343 C348 0.949 . S
H344 C350 0.950 . S
H345 C351 0.950 . S
H346 C352 0.949 . S
C347 H342 0.950 . S
C347 C349 1.327 . S
C347 C353 1.429 . S
C348 C340 1.574 . S
C348 H343 0.949 . S
C348 C354 1.368 . S
C349 C333 1.349 . S
C349 H341 0.950 . S
C349 C347 1.327 . S
C350 C338 1.349 . S
C350 H344 0.950 . S
C350 C351 1.327 . S
C351 H345 0.950 . S
C351 C350 1.327 . S
C351 C355 1.429 . S
C352 C335 1.574 . S
C352 H346 0.949 . S
C352 C356 1.368 . S
C353 C334 1.429 . S
C353 C347 1.429 . S
C353 C354 1.523 . S
C354 C335 1.368 . S
C354 C348 1.368 . S
C354 C353 1.523 . S
C355 C339 1.429 . S
C355 C351 1.429 . S
C355 C356 1.523 . S
C356 C340 1.368 . S
C356 C352 1.368 . S
C356 C355 1.523 . S
H357 C332 0.950 . S
H358 C334 0.950 . S
H359 C335 0.949 . S
H360 C337 0.950 . S
H361 C339 0.950 . S
C362 C363 1.349 . S
C362 C364 1.327 . S
C362 H387 0.950 . S
C363 C362 1.349 . S
C363 C379 1.349 . S
C364 C362 1.327 . S
C364 C383 1.429 . S
C364 H388 0.950 . S
C365 C382 1.574 1_556 S
C365 C384 1.368 . S
C365 H389 0.949 1_545 S
H366 C370 0.949 . S
C367 C368 1.349 . S
C367 C369 1.327 . S
C367 H390 0.950 1_545 S
C368 C367 1.349 . S
C368 C380 1.349 . S
C369 C367 1.327 . S
C369 C385 1.429 . S
C369 H391 0.950 1_545 S
C370 H366 0.949 . S
C370 C378 1.574 1_554 S
C370 C386 1.368 . S
H371 C379 0.950 1_565 S
H372 C377 0.950 1_565 S
H373 C378 0.949 . S
H374 C380 0.950 . S
H375 C381 0.950 . S
H376 C382 0.949 1_565 S
C377 H372 0.950 1_545 S
C377 C379 1.327 . S
C377 C383 1.429 . S
C378 C370 1.574 1_556 S
C378 H373 0.949 . S
C378 C384 1.368 . S
C379 C363 1.349 . S
C379 H371 0.950 1_545 S
C379 C377 1.327 . S
C380 C368 1.349 . S
C380 H374 0.950 . S
C380 C381 1.327 . S
C381 H375 0.950 . S
C381 C380 1.327 . S
C381 C385 1.429 . S
C382 C365 1.574 1_554 S
C382 H376 0.949 1_545 S
C382 C386 1.368 . S
C383 C364 1.429 . S
C383 C377 1.429 . S
C383 C384 1.523 . S
C384 C365 1.368 . S
C384 C378 1.368 . S
C384 C383 1.523 . S
C385 C369 1.429 . S
C385 C381 1.429 . S
C385 C386 1.523 . S
C386 C370 1.368 . S
C386 C382 1.368 . S
C386 C385 1.523 . S
H387 C362 0.950 . S
H388 C364 0.950 . S
H389 C365 0.949 1_565 S
H390 C367 0.950 1_565 S
H391 C369 0.950 1_565 S
C392 C393 1.349 . S
C392 C394 1.327 . S
C392 H417 0.950 . S
C393 C392 1.349 . S
C393 C409 1.349 . S
C394 C392 1.327 . S
C394 C413 1.429 . S
C394 H418 0.950 . S
C395 C412 1.574 . S
C395 C414 1.368 . S
C395 H419 0.949 . S
H396 C400 0.949 . S
C397 C398 1.349 . S
C397 C399 1.327 . S
C397 H420 0.950 . S
C398 C397 1.349 . S
C398 C410 1.349 . S
C399 C397 1.327 . S
C399 C415 1.429 . S
C399 H421 0.950 . S
C400 H396 0.949 . S
C400 C408 1.574 . S
C400 C416 1.368 . S
H401 C409 0.950 . S
H402 C407 0.950 . S
H403 C408 0.949 . S
H404 C410 0.950 . S
H405 C411 0.950 . S
H406 C412 0.949 . S
C407 H402 0.950 . S
C407 C409 1.327 . S
C407 C413 1.429 . S
C408 C400 1.574 . S
C408 H403 0.949 . S
C408 C414 1.368 . S
C409 C393 1.349 . S
C409 H401 0.950 . S
C409 C407 1.327 . S
C410 C398 1.349 . S
C410 H404 0.950 . S
C410 C411 1.327 . S
C411 H405 0.950 . S
C411 C410 1.327 . S
C411 C415 1.429 . S
C412 C395 1.574 . S
C412 H406 0.949 . S
C412 C416 1.368 . S
C413 C394 1.429 . S
C413 C407 1.429 . S
C413 C414 1.523 . S
C414 C395 1.368 . S
C414 C408 1.368 . S
C414 C413 1.523 . S
C415 C399 1.429 . S
C415 C411 1.429 . S
C415 C416 1.523 . S
C416 C400 1.368 . S
C416 C412 1.368 . S
C416 C415 1.523 . S
H417 C392 0.950 . S
H418 C394 0.950 . S
H419 C395 0.949 . S
H420 C397 0.950 . S
H421 C399 0.950 . S
C422 C423 1.349 . S
C422 C424 1.327 1_455 S
C422 H447 0.950 . S
C423 C422 1.349 . S
C423 C439 1.349 . S
C424 C422 1.327 1_655 S
C424 C443 1.429 . S
C424 H448 0.950 . S
C425 C442 1.574 . S
C425 C444 1.368 . S
C425 H449 0.949 . S
H426 C430 0.949 . S
C427 C428 1.349 . S
C427 C429 1.327 . S
C427 H450 0.950 . S
C428 C427 1.349 . S
C428 C440 1.349 . S
C429 C427 1.327 . S
C429 C445 1.429 . S
C429 H451 0.950 . S
C430 H426 0.949 . S
C430 C438 1.574 . S
C430 C446 1.368 . S
H431 C439 0.950 . S
H432 C437 0.950 . S
H433 C438 0.949 . S
H434 C440 0.950 . S
H435 C441 0.950 . S
H436 C442 0.949 . S
C437 H432 0.950 . S
C437 C439 1.327 1_655 S
C437 C443 1.429 . S
C438 C430 1.574 . S
C438 H433 0.949 . S
C438 C444 1.368 . S
C439 C423 1.349 . S
C439 H431 0.950 . S
C439 C437 1.327 1_455 S
C440 C428 1.349 . S
C440 H434 0.950 . S
C440 C441 1.327 . S
C441 H435 0.950 . S
C441 C440 1.327 . S
C441 C445 1.429 . S
C442 C425 1.574 . S
C442 H436 0.949 . S
C442 C446 1.368 . S
C443 C424 1.429 . S
C443 C437 1.429 . S
C443 C444 1.523 . S
C444 C425 1.368 . S
C444 C438 1.368 . S
C444 C443 1.523 . S
C445 C429 1.429 . S
C445 C441 1.429 . S
C445 C446 1.523 . S
C446 C430 1.368 . S
C446 C442 1.368 . S
C446 C445 1.523 . S
H447 C422 0.950 . S
H448 C424 0.950 . S
H449 C425 0.949 . S
H450 C427 0.950 . S
H451 C429 0.950 . S
C452 C453 1.349 . S
C452 C454 1.327 . S
C452 H477 0.950 . S
C453 C452 1.349 . S
C453 C469 1.349 . S
C454 C452 1.327 . S
C454 C473 1.429 . S
C454 H478 0.950 . S
C455 C472 1.574 . S
C455 C474 1.368 . S
C455 H479 0.949 . S
H456 C460 0.949 . S
C457 C458 1.349 . S
C457 C459 1.327 . S
C457 H480 0.950 . S
C458 C457 1.349 . S
C458 C470 1.349 . S
C459 C457 1.327 . S
C459 C475 1.429 . S
C459 H481 0.950 . S
C460 H456 0.949 . S
C460 C468 1.574 . S
C460 C476 1.368 . S
H461 C469 0.950 . S
H462 C467 0.950 . S
H463 C468 0.949 . S
H464 C470 0.950 . S
H465 C471 0.950 . S
H466 C472 0.949 . S
C467 H462 0.950 . S
C467 C469 1.327 . S
C467 C473 1.429 . S
C468 C460 1.574 . S
C468 H463 0.949 . S
C468 C474 1.368 . S
C469 C453 1.349 . S
C469 H461 0.950 . S
C469 C467 1.327 . S
C470 C458 1.349 . S
C470 H464 0.950 . S
C470 C471 1.327 . S
C471 H465 0.950 . S
C471 C470 1.327 . S
C471 C475 1.429 . S
C472 C455 1.574 . S
C472 H466 0.949 . S
C472 C476 1.368 . S
C473 C454 1.429 . S
C473 C467 1.429 . S
C473 C474 1.523 . S
C474 C455 1.368 . S
C474 C468 1.368 . S
C474 C473 1.523 . S
C475 C459 1.429 . S
C475 C471 1.429 . S
C475 C476 1.523 . S
C476 C460 1.368 . S
C476 C472 1.368 . S
C476 C475 1.523 . S
H477 C452 0.950 . S
H478 C454 0.950 . S
H479 C455 0.949 . S
H480 C457 0.950 . S
H481 C459 0.950 . S
C482 C483 1.349 . S
C482 C484 1.327 . S
C482 H507 0.950 . S
C483 C482 1.349 . S
C483 C499 1.349 . S
C484 C482 1.327 . S
C484 C503 1.429 . S
C484 H508 0.950 . S
C485 C502 1.574 . S
C485 C504 1.368 . S
C485 H509 0.949 . S
H486 C490 0.949 . S
C487 C488 1.349 . S
C487 C489 1.327 . S
C487 H510 0.950 1_565 S
C488 C487 1.349 . S
C488 C500 1.349 . S
C489 C487 1.327 . S
C489 C505 1.429 . S
C489 H511 0.950 . S
C490 H486 0.949 . S
C490 C498 1.574 . S
C490 C506 1.368 . S
H491 C499 0.950 . S
H492 C497 0.950 . S
H493 C498 0.949 . S
H494 C500 0.950 . S
H495 C501 0.950 . S
H496 C502 0.949 . S
C497 H492 0.950 . S
C497 C499 1.327 . S
C497 C503 1.429 . S
C498 C490 1.574 . S
C498 H493 0.949 . S
C498 C504 1.368 . S
C499 C483 1.349 . S
C499 H491 0.950 . S
C499 C497 1.327 . S
C500 C488 1.349 . S
C500 H494 0.950 . S
C500 C501 1.327 . S
C501 H495 0.950 . S
C501 C500 1.327 . S
C501 C505 1.429 . S
C502 C485 1.574 . S
C502 H496 0.949 . S
C502 C506 1.368 . S
C503 C484 1.429 . S
C503 C497 1.429 . S
C503 C504 1.523 . S
C504 C485 1.368 . S
C504 C498 1.368 . S
C504 C503 1.523 . S
C505 C489 1.429 . S
C505 C501 1.429 . S
C505 C506 1.523 . S
C506 C490 1.368 . S
C506 C502 1.368 . S
C506 C505 1.523 . S
H507 C482 0.950 . S
H508 C484 0.950 . S
H509 C485 0.949 . S
H510 C487 0.950 1_545 S
H511 C489 0.950 . S
C512 C513 1.349 . S
C512 C514 1.327 . S
C512 H537 0.950 . S
C513 C512 1.349 . S
C513 C529 1.355 . S
C514 C512 1.327 . S
C514 C533 1.429 . S
C514 H538 0.950 . S
C515 C532 1.574 . S
C515 C534 1.368 . S
C515 H539 0.949 . S
H516 C520 0.949 . S
C517 C518 1.349 . S
C517 C519 1.327 . S
C517 H540 0.950 . S
C518 C517 1.349 . S
C518 C530 1.349 1_545 S
C519 C517 1.327 . S
C519 C535 1.429 1_545 S
C519 H541 0.950 . S
C520 H516 0.949 . S
C520 C528 1.574 . S
C520 C536 1.368 . S
H521 C529 0.933 1_455 S
H522 C527 0.950 . S
H523 C528 0.949 . S
H524 C530 0.950 . S
H525 C531 0.950 . S
H526 C532 0.949 1_545 S
C527 H522 0.950 . S
C527 C529 1.337 . S
C527 C533 1.429 . S
C528 C520 1.574 . S
C528 H523 0.949 . S
C528 C534 1.368 . S
C529 C513 1.355 . S
C529 H521 0.933 1_655 S
C529 C527 1.337 . S
C530 C518 1.349 1_565 S
C530 H524 0.950 . S
C530 C531 1.327 . S
C531 H525 0.950 . S
C531 C530 1.327 . S
C531 C535 1.429 . S
C532 C515 1.574 . S
C532 H526 0.949 1_565 S
C532 C536 1.368 . S
C533 C514 1.429 . S
C533 C527 1.429 . S
C533 C534 1.523 . S
C534 C515 1.368 . S
C534 C528 1.368 . S
C534 C533 1.523 . S
C535 C519 1.429 1_565 S
C535 C531 1.429 . S
C535 C536 1.523 . S
C536 C520 1.368 . S
C536 C532 1.368 . S
C536 C535 1.523 . S
H537 C512 0.950 . S
H538 C514 0.950 . S
H539 C515 0.949 . S
H540 C517 0.950 . S
H541 C519 0.950 . S
C542 C543 1.349 . S
C542 C544 1.327 . S
C542 H567 0.950 . S
C543 C542 1.349 . S
C543 C559 1.349 . S
C544 C542 1.327 . S
C544 C563 1.429 . S
C544 H568 0.950 . S
C545 C562 1.574 . S
C545 C564 1.368 . S
C545 H569 0.949 . S
H546 C550 0.949 . S
C547 C548 1.349 . S
C547 C549 1.327 . S
C547 H570 0.950 . S
C548 C547 1.349 . S
C548 C560 1.349 . S
C549 C547 1.327 . S
C549 C565 1.429 . S
C549 H571 0.950 . S
C550 H546 0.949 . S
C550 C558 1.574 . S
C550 C566 1.368 . S
H551 C559 0.950 . S
H552 C557 0.950 . S
H553 C558 0.949 . S
H554 C560 0.950 . S
H555 C561 0.950 . S
H556 C562 0.949 . S
C557 H552 0.950 . S
C557 C559 1.327 . S
C557 C563 1.429 . S
C558 C550 1.574 . S
C558 H553 0.949 . S
C558 C564 1.368 . S
C559 C543 1.349 . S
C559 H551 0.950 . S
C559 C557 1.327 . S
C560 C548 1.349 . S
C560 H554 0.950 . S
C560 C561 1.327 . S
C561 H555 0.950 . S
C561 C560 1.327 . S
C561 C565 1.429 . S
C562 C545 1.574 . S
C562 H556 0.949 . S
C562 C566 1.368 . S
C563 C544 1.429 . S
C563 C557 1.429 . S
C563 C564 1.523 . S
C564 C545 1.368 . S
C564 C558 1.368 . S
C564 C563 1.523 . S
C565 C549 1.429 . S
C565 C561 1.429 . S
C565 C566 1.523 . S
C566 C550 1.368 . S
C566 C562 1.368 . S
C566 C565 1.523 . S
H567 C542 0.950 . S
H568 C544 0.950 . S
H569 C545 0.949 . S
H570 C547 0.950 . S
H571 C549 0.950 . S
C572 C573 1.349 . S
C572 C574 1.327 . S
C572 H597 0.950 . S
C573 C572 1.349 . S
C573 C589 1.349 . S
C574 C572 1.327 . S
C574 C593 1.429 . S
C574 H598 0.950 . S
C575 C592 1.574 . S
C575 C594 1.368 . S
C575 H599 0.949 . S
H576 C580 0.949 . S
C577 C578 1.349 . S
C577 C579 1.327 . S
C577 H600 0.950 . S
C578 C577 1.349 . S
C578 C590 1.349 . S
C579 C577 1.327 . S
C579 C595 1.429 . S
C579 H601 0.950 . S
C580 H576 0.949 . S
C580 C588 1.574 . S
C580 C596 1.368 . S
H581 C589 0.950 . S
H582 C587 0.950 . S
H583 C588 0.949 . S
H584 C590 0.950 . S
H585 C591 0.950 . S
H586 C592 0.949 . S
C587 H582 0.950 . S
C587 C589 1.327 . S
C587 C593 1.429 . S
C588 C580 1.574 . S
C588 H583 0.949 . S
C588 C594 1.368 . S
C589 C573 1.349 . S
C589 H581 0.950 . S
C589 C587 1.327 . S
C590 C578 1.349 . S
C590 H584 0.950 . S
C590 C591 1.327 . S
C591 H585 0.950 . S
C591 C590 1.327 . S
C591 C595 1.429 . S
C592 C575 1.574 . S
C592 H586 0.949 . S
C592 C596 1.368 . S
C593 C574 1.429 . S
C593 C587 1.429 . S
C593 C594 1.523 . S
C594 C575 1.368 . S
C594 C588 1.368 . S
C594 C593 1.523 . S
C595 C579 1.429 . S
C595 C591 1.429 . S
C595 C596 1.523 . S
C596 C580 1.368 . S
C596 C592 1.368 . S
C596 C595 1.523 . S
H597 C572 0.950 . S
H598 C574 0.950 . S
H599 C575 0.949 . S
H600 C577 0.950 . S
H601 C579 0.950 . S
C602 C603 1.349 . S
C602 C604 1.327 . S
C602 H627 0.950 . S
C603 C602 1.349 . S
C603 C619 1.349 . S
C604 C602 1.327 . S
C604 C623 1.429 . S
C604 H628 0.950 . S
C605 C622 1.574 . S
C605 C624 1.368 . S
C605 H629 0.949 . S
H606 C610 0.949 . S
C607 C608 1.349 . S
C607 C609 1.327 . S
C607 H630 0.950 . S
C608 C607 1.349 . S
C608 C620 1.349 . S
C609 C607 1.327 . S
C609 C625 1.429 . S
C609 H631 0.950 . S
C610 H606 0.949 . S
C610 C618 1.574 . S
C610 C626 1.368 . S
H611 C619 0.950 . S
H612 C617 0.950 . S
H613 C618 0.949 . S
H614 C620 0.950 . S
H615 C621 0.950 . S
H616 C622 0.949 . S
C617 H612 0.950 . S
C617 C619 1.327 . S
C617 C623 1.429 . S
C618 C610 1.574 . S
C618 H613 0.949 . S
C618 C624 1.368 . S
C619 C603 1.349 . S
C619 H611 0.950 . S
C619 C617 1.327 . S
C620 C608 1.349 . S
C620 H614 0.950 . S
C620 C621 1.327 . S
C621 H615 0.950 . S
C621 C620 1.327 . S
C621 C625 1.429 . S
C622 C605 1.574 . S
C622 H616 0.949 . S
C622 C626 1.368 . S
C623 C604 1.429 . S
C623 C617 1.429 . S
C623 C624 1.523 . S
C624 C605 1.368 . S
C624 C618 1.368 . S
C624 C623 1.523 . S
C625 C609 1.429 . S
C625 C621 1.429 . S
C625 C626 1.523 . S
C626 C610 1.368 . S
C626 C622 1.368 . S
C626 C625 1.523 . S
H627 C602 0.950 . S
H628 C604 0.950 . S
H629 C605 0.949 . S
H630 C607 0.950 . S
H631 C609 0.950 . S
C632 C633 1.349 . S
C632 C634 1.327 . S
C632 H657 0.950 . S
C633 C632 1.349 . S
C633 C649 1.349 . S
C634 C632 1.327 . S
C634 C653 1.429 . S
C634 H658 0.950 . S
C635 C652 1.574 . S
C635 C654 1.368 . S
C635 H659 0.949 . S
H636 C640 0.949 . S
C637 C638 1.349 . S
C637 C639 1.327 . S
C637 H660 0.950 . S
C638 C637 1.349 . S
C638 C650 1.349 . S
C639 C637 1.327 . S
C639 C655 1.429 . S
C639 H661 0.950 . S
C640 H636 0.949 . S
C640 C648 1.574 . S
C640 C656 1.368 . S
H641 C649 0.950 . S
H642 C647 0.950 . S
H643 C648 0.949 . S
H644 C650 0.950 . S
H645 C651 0.950 . S
H646 C652 0.949 . S
C647 H642 0.950 . S
C647 C649 1.327 . S
C647 C653 1.429 . S
C648 C640 1.574 . S
C648 H643 0.949 . S
C648 C654 1.368 . S
C649 C633 1.349 . S
C649 H641 0.950 . S
C649 C647 1.327 . S
C650 C638 1.349 . S
C650 H644 0.950 . S
C650 C651 1.327 . S
C651 H645 0.950 . S
C651 C650 1.327 . S
C651 C655 1.429 . S
C652 C635 1.574 . S
C652 H646 0.949 . S
C652 C656 1.368 . S
C653 C634 1.429 . S
C653 C647 1.429 . S
C653 C654 1.523 . S
C654 C635 1.368 . S
C654 C648 1.368 . S
C654 C653 1.523 . S
C655 C639 1.429 . S
C655 C651 1.429 . S
C655 C656 1.523 . S
C656 C640 1.368 . S
C656 C652 1.368 . S
C656 C655 1.523 . S
H657 C632 0.950 . S
H658 C634 0.950 . S
H659 C635 0.949 . S
H660 C637 0.950 . S
H661 C639 0.950 . S
C662 C663 1.349 . S
C662 C664 1.327 . S
C662 H687 0.950 . S
C663 C662 1.349 . S
C663 C679 1.349 . S
C664 C662 1.327 . S
C664 C683 1.429 . S
C664 H688 0.950 . S
C665 C682 1.574 . S
C665 C684 1.368 . S
C665 H689 0.949 . S
H666 C670 0.949 . S
C667 C668 1.349 . S
C667 C669 1.327 . S
C667 H690 0.950 . S
C668 C667 1.349 . S
C668 C680 1.349 . S
C669 C667 1.327 . S
C669 C685 1.429 . S
C669 H691 0.950 . S
C670 H666 0.949 . S
C670 C678 1.574 . S
C670 C686 1.368 . S
H671 C679 0.950 . S
H672 C677 0.950 . S
H673 C678 0.949 . S
H674 C680 0.950 . S
H675 C681 0.950 . S
H676 C682 0.949 . S
C677 H672 0.950 . S
C677 C679 1.327 . S
C677 C683 1.429 . S
C678 C670 1.574 . S
C678 H673 0.949 . S
C678 C684 1.368 . S
C679 C663 1.349 . S
C679 H671 0.950 . S
C679 C677 1.327 . S
C680 C668 1.349 . S
C680 H674 0.950 . S
C680 C681 1.327 . S
C681 H675 0.950 . S
C681 C680 1.327 . S
C681 C685 1.429 . S
C682 C665 1.574 . S
C682 H676 0.949 . S
C682 C686 1.368 . S
C683 C664 1.429 . S
C683 C677 1.429 . S
C683 C684 1.523 . S
C684 C665 1.368 . S
C684 C678 1.368 . S
C684 C683 1.523 . S
C685 C669 1.429 . S
C685 C681 1.429 . S
C685 C686 1.523 . S
C686 C670 1.368 . S
C686 C682 1.368 . S
C686 C685 1.523 . S
H687 C662 0.950 . S
H688 C664 0.950 . S
H689 C665 0.949 . S
H690 C667 0.950 . S
H691 C669 0.950 . S
C692 C693 1.349 . S
C692 C694 1.327 . S
C692 H717 0.950 . S
C693 C692 1.349 . S
C693 C709 1.349 . S
C694 C692 1.327 . S
C694 C713 1.429 . S
C694 H718 0.950 . S
C695 C712 1.574 . S
C695 C714 1.368 . S
C695 H719 0.949 . S
H696 C700 0.949 . S
C697 C698 1.349 . S
C697 C699 1.327 . S
C697 H720 0.950 . S
C698 C697 1.349 . S
C698 C710 1.349 . S
C699 C697 1.327 . S
C699 C715 1.429 . S
C699 H721 0.950 . S
C700 H696 0.949 . S
C700 C708 1.574 . S
C700 C716 1.368 . S
H701 C709 0.950 . S
H702 C707 0.950 . S
H703 C708 0.949 . S
H704 C710 0.950 . S
H705 C711 0.950 . S
H706 C712 0.949 . S
C707 H702 0.950 . S
C707 C709 1.327 . S
C707 C713 1.429 . S
C708 C700 1.574 . S
C708 H703 0.949 . S
C708 C714 1.368 . S
C709 C693 1.349 . S
C709 H701 0.950 . S
C709 C707 1.327 . S
C710 C698 1.349 . S
C710 H704 0.950 . S
C710 C711 1.327 . S
C711 H705 0.950 . S
C711 C710 1.327 . S
C711 C715 1.429 . S
C712 C695 1.574 . S
C712 H706 0.949 . S
C712 C716 1.368 . S
C713 C694 1.429 . S
C713 C707 1.429 . S
C713 C714 1.523 . S
C714 C695 1.368 . S
C714 C708 1.368 . S
C714 C713 1.523 . S
C715 C699 1.429 . S
C715 C711 1.429 . S
C715 C716 1.523 . S
C716 C700 1.368 . S
C716 C712 1.368 . S
C716 C715 1.523 . S
H717 C692 0.950 . S
H718 C694 0.950 . S
H719 C695 0.949 . S
H720 C697 0.950 . S
H721 C699 0.950 . S
C722 C723 1.349 . S
C722 C724 1.327 . S
C722 H747 0.950 . S
C723 C722 1.349 . S
C723 C739 1.349 . S
C724 C722 1.327 . S
C724 C743 1.429 . S
C724 H748 0.950 . S
C725 C742 1.574 . S
C725 C744 1.368 . S
C725 H749 0.949 . S
H726 C730 0.949 . S
C727 C728 1.349 . S
C727 C729 1.327 . S
C727 H750 0.950 . S
C728 C727 1.349 . S
C728 C740 1.349 . S
C729 C727 1.327 . S
C729 C745 1.429 . S
C729 H751 0.950 . S
C730 H726 0.949 . S
C730 C738 1.574 . S
C730 C746 1.368 . S
H731 C739 0.950 . S
H732 C737 0.950 . S
H733 C738 0.949 . S
H734 C740 0.950 . S
H735 C741 0.950 . S
H736 C742 0.949 . S
C737 H732 0.950 . S
C737 C739 1.327 . S
C737 C743 1.429 . S
C738 C730 1.574 . S
C738 H733 0.949 . S
C738 C744 1.368 . S
C739 C723 1.349 . S
C739 H731 0.950 . S
C739 C737 1.327 . S
C740 C728 1.349 . S
C740 H734 0.950 . S
C740 C741 1.327 . S
C741 H735 0.950 . S
C741 C740 1.327 . S
C741 C745 1.429 . S
C742 C725 1.574 . S
C742 H736 0.949 . S
C742 C746 1.368 . S
C743 C724 1.429 . S
C743 C737 1.429 . S
C743 C744 1.523 . S
C744 C725 1.368 . S
C744 C738 1.368 . S
C744 C743 1.523 . S
C745 C729 1.429 . S
C745 C741 1.429 . S
C745 C746 1.523 . S
C746 C730 1.368 . S
C746 C742 1.368 . S
C746 C745 1.523 . S
H747 C722 0.950 . S
H748 C724 0.950 . S
H749 C725 0.949 . S
H750 C727 0.950 . S
H751 C729 0.950 . S
C752 C753 1.349 . S
C752 C754 1.327 . S
C752 H777 0.950 . S
C753 C752 1.349 . S
C753 C769 1.349 . S
C754 C752 1.327 . S
C754 C773 1.429 . S
C754 H778 0.950 . S
C755 C772 1.574 . S
C755 C774 1.368 . S
C755 H779 0.949 . S
H756 C760 0.949 . S
C757 C758 1.349 . S
C757 C759 1.327 . S
C757 H780 0.950 . S
C758 C757 1.349 . S
C758 C770 1.349 . S
C759 C757 1.327 . S
C759 C775 1.429 . S
C759 H781 0.950 . S
C760 H756 0.949 . S
C760 C768 1.574 . S
C760 C776 1.368 . S
H761 C769 0.950 . S
H762 C767 0.950 . S
H763 C768 0.949 . S
H764 C770 0.950 . S
H765 C771 0.950 . S
H766 C772 0.949 . S
C767 H762 0.950 . S
C767 C769 1.327 . S
C767 C773 1.429 . S
C768 C760 1.574 . S
C768 H763 0.949 . S
C768 C774 1.368 . S
C769 C753 1.349 . S
C769 H761 0.950 . S
C769 C767 1.327 . S
C770 C758 1.349 . S
C770 H764 0.950 . S
C770 C771 1.327 . S
C771 H765 0.950 . S
C771 C770 1.327 . S
C771 C775 1.429 . S
C772 C755 1.574 . S
C772 H766 0.949 . S
C772 C776 1.368 . S
C773 C754 1.429 . S
C773 C767 1.429 . S
C773 C774 1.523 . S
C774 C755 1.368 . S
C774 C768 1.368 . S
C774 C773 1.523 . S
C775 C759 1.429 . S
C775 C771 1.429 . S
C775 C776 1.523 . S
C776 C760 1.368 . S
C776 C772 1.368 . S
C776 C775 1.523 . S
H777 C752 0.950 . S
H778 C754 0.950 . S
H779 C755 0.949 . S
H780 C757 0.950 . S
H781 C759 0.950 . S
C782 C783 1.349 . S
C782 C784 1.327 . S
C782 H807 0.950 . S
C783 C782 1.349 . S
C783 C799 1.349 . S
C784 C782 1.327 . S
C784 C803 1.429 . S
C784 H808 0.950 . S
C785 C802 1.574 . S
C785 C804 1.368 . S
C785 H809 0.949 . S
H786 C790 0.949 . S
C787 C788 1.349 . S
C787 C789 1.327 . S
C787 H810 0.950 . S
C788 C787 1.349 . S
C788 C800 1.349 . S
C789 C787 1.327 . S
C789 C805 1.429 . S
C789 H811 0.950 . S
C790 H786 0.949 . S
C790 C798 1.574 . S
C790 C806 1.368 . S
H791 C799 0.950 . S
H792 C797 0.950 . S
H793 C798 0.949 . S
H794 C800 0.950 . S
H795 C801 0.950 . S
H796 C802 0.949 . S
C797 H792 0.950 . S
C797 C799 1.327 . S
C797 C803 1.429 . S
C798 C790 1.574 . S
C798 H793 0.949 . S
C798 C804 1.368 . S
C799 C783 1.349 . S
C799 H791 0.950 . S
C799 C797 1.327 . S
C800 C788 1.349 . S
C800 H794 0.950 . S
C800 C801 1.327 . S
C801 H795 0.950 . S
C801 C800 1.327 . S
C801 C805 1.429 . S
C802 C785 1.574 . S
C802 H796 0.949 . S
C802 C806 1.368 . S
C803 C784 1.429 . S
C803 C797 1.429 . S
C803 C804 1.523 . S
C804 C785 1.368 . S
C804 C798 1.368 . S
C804 C803 1.523 . S
C805 C789 1.429 . S
C805 C801 1.429 . S
C805 C806 1.523 . S
C806 C790 1.368 . S
C806 C802 1.368 . S
C806 C805 1.523 . S
H807 C782 0.950 . S
H808 C784 0.950 . S
H809 C785 0.949 . S
H810 C787 0.950 . S
H811 C789 0.950 . S
C812 C813 1.349 . S
C812 C814 1.327 . S
C812 H837 0.950 . S
C813 C812 1.349 . S
C813 C829 1.349 . S
C814 C812 1.327 . S
C814 C833 1.429 . S
C814 H838 0.950 . S
C815 C832 1.574 . S
C815 C834 1.368 . S
C815 H839 0.949 . S
H816 C820 0.949 . S
C817 C818 1.349 . S
C817 C819 1.327 . S
C817 H840 0.950 . S
C818 C817 1.349 . S
C818 C830 1.349 . S
C819 C817 1.327 . S
C819 C835 1.429 . S
C819 H841 0.950 . S
C820 H816 0.949 . S
C820 C828 1.574 . S
C820 C836 1.368 . S
H821 C829 0.950 . S
H822 C827 0.950 . S
H823 C828 0.949 . S
H824 C830 0.950 . S
H825 C831 0.950 . S
H826 C832 0.949 . S
C827 H822 0.950 . S
C827 C829 1.327 . S
C827 C833 1.429 . S
C828 C820 1.574 . S
C828 H823 0.949 . S
C828 C834 1.368 . S
C829 C813 1.349 . S
C829 H821 0.950 . S
C829 C827 1.327 . S
C830 C818 1.349 . S
C830 H824 0.950 . S
C830 C831 1.327 . S
C831 H825 0.950 . S
C831 C830 1.327 . S
C831 C835 1.429 . S
C832 C815 1.574 . S
C832 H826 0.949 . S
C832 C836 1.368 . S
C833 C814 1.429 . S
C833 C827 1.429 . S
C833 C834 1.523 . S
C834 C815 1.368 . S
C834 C828 1.368 . S
C834 C833 1.523 . S
C835 C819 1.429 . S
C835 C831 1.429 . S
C835 C836 1.523 . S
C836 C820 1.368 . S
C836 C832 1.368 . S
C836 C835 1.523 . S
H837 C812 0.950 . S
H838 C814 0.950 . S
H839 C815 0.949 . S
H840 C817 0.950 . S
H841 C819 0.950 . S
C842 C843 1.349 . S
C842 C844 1.327 . S
C842 H867 0.950 . S
C843 C842 1.349 . S
C843 C859 1.349 . S
C844 C842 1.327 . S
C844 C863 1.429 . S
C844 H868 0.950 . S
C845 C862 1.574 . S
C845 C864 1.368 . S
C845 H869 0.949 . S
H846 C850 0.949 . S
C847 C848 1.349 . S
C847 C849 1.327 . S
C847 H870 0.950 . S
C848 C847 1.349 . S
C848 C860 1.349 . S
C849 C847 1.327 . S
C849 C865 1.429 . S
C849 H871 0.950 . S
C850 H846 0.949 . S
C850 C858 1.574 . S
C850 C866 1.368 . S
H851 C859 0.950 . S
H852 C857 0.950 . S
H853 C858 0.949 . S
H854 C860 0.950 . S
H855 C861 0.950 . S
H856 C862 0.949 . S
C857 H852 0.950 . S
C857 C859 1.327 . S
C857 C863 1.429 . S
C858 C850 1.574 . S
C858 H853 0.949 . S
C858 C864 1.368 . S
C859 C843 1.349 . S
C859 H851 0.950 . S
C859 C857 1.327 . S
C860 C848 1.349 . S
C860 H854 0.950 . S
C860 C861 1.327 . S
C861 H855 0.950 . S
C861 C860 1.327 . S
C861 C865 1.429 . S
C862 C845 1.574 . S
C862 H856 0.949 . S
C862 C866 1.368 . S
C863 C844 1.429 . S
C863 C857 1.429 . S
C863 C864 1.523 . S
C864 C845 1.368 . S
C864 C858 1.368 . S
C864 C863 1.523 . S
C865 C849 1.429 . S
C865 C861 1.429 . S
C865 C866 1.523 . S
C866 C850 1.368 . S
C866 C862 1.368 . S
C866 C865 1.523 . S
H867 C842 0.950 . S
H868 C844 0.950 . S
H869 C845 0.949 . S
H870 C847 0.950 . S
H871 C849 0.950 . S
C273 C145 1.475 . S
C278 C9 1.475 . S
C303 C43 1.475 . S
C308 C179 1.475 . S
C333 C77 1.475 . S
C338 C213 1.475 . S
C363 C247 1.475 . S
C368 C111 1.475 . S
C393 C243 0.602 . S
C398 C33 0.600 . S
C423 C141 0.601 . S
C428 C67 0.600 . S
C453 C175 0.602 . S
C458 C101 0.600 . S
C483 C209 0.602 . S
C488 C135 0.600 . S
C513 C169 0.600 . S
C518 C107 0.602 . S
C543 C203 0.600 . S
C548 C5 0.602 . S
C573 C237 0.600 . S
C578 C39 0.602 . S
C603 C271 0.600 . S
C608 C73 0.602 . S
C633 C20 1.234 . S
C638 C88 1.234 . S
C663 C54 1.233 . S
C668 C122 1.233 . S
C693 C224 1.234 . S
C698 C156 1.234 . S
C723 C258 1.233 . S
C728 C190 1.233 . S
C753 C70 0.987 . S
C758 C2 0.987 . S
C783 C36 0.987 . S
C788 C104 0.987 . S
C813 C206 0.987 . S
C818 C138 0.987 . S
C843 C240 0.987 . S
C848 C172 0.987 . S
