# Generated by pormake.
# Topology cag, (4)-cn, num edge types: 1
# Building blocks:
#     Node 0, Type 0, BuildingBlock: CEKHIL_clean_sbu_0, # of connection points: 4
#     Node 1, Type 0, BuildingBlock: CEKHIL_clean_sbu_0, # of connection points: 4
#     Node 2, Type 0, BuildingBlock: CEKHIL_clean_sbu_0, # of connection points: 4
#     Node 3, Type 0, BuildingBlock: CEKHIL_clean_sbu_0, # of connection points: 4
#     Node 4, Type 0, BuildingBlock: CEKHIL_clean_sbu_0, # of connection points: 4
#     Node 5, Type 0, BuildingBlock: CEKHIL_clean_sbu_0, # of connection points: 4
#     Node 6, Type 0, BuildingBlock: CEKHIL_clean_sbu_0, # of connection points: 4
#     Node 7, Type 0, BuildingBlock: CEKHIL_clean_sbu_0, # of connection points: 4
#     Node 8, Type 0, BuildingBlock: CEKHIL_clean_sbu_0, # of connection points: 4
#     Node 9, Type 0, BuildingBlock: CEKHIL_clean_sbu_0, # of connection points: 4
#     Node 10, Type 0, BuildingBlock: CEKHIL_clean_sbu_0, # of connection points: 4
#     Node 11, Type 0, BuildingBlock: CEKHIL_clean_sbu_0, # of connection points: 4
#     Node 12, Type 0, BuildingBlock: CEKHIL_clean_sbu_0, # of connection points: 4
#     Node 13, Type 0, BuildingBlock: CEKHIL_clean_sbu_0, # of connection points: 4
#     Node 14, Type 0, BuildingBlock: CEKHIL_clean_sbu_0, # of connection points: 4
#     Node 15, Type 0, BuildingBlock: CEKHIL_clean_sbu_0, # of connection points: 4
#     Edge 16, Type (0, 0), BuildingBlock: XIVTED_clean_linker_0, # of connection points: 2
#     Edge 17, Type (0, 0), BuildingBlock: XIVTED_clean_linker_0, # of connection points: 2
#     Edge 18, Type (0, 0), BuildingBlock: XIVTED_clean_linker_0, # of connection points: 2
#     Edge 19, Type (0, 0), BuildingBlock: XIVTED_clean_linker_0, # of connection points: 2
#     Edge 20, Type (0, 0), BuildingBlock: XIVTED_clean_linker_0, # of connection points: 2
#     Edge 21, Type (0, 0), BuildingBlock: XIVTED_clean_linker_0, # of connection points: 2
#     Edge 22, Type (0, 0), BuildingBlock: XIVTED_clean_linker_0, # of connection points: 2
#     Edge 23, Type (0, 0), BuildingBlock: XIVTED_clean_linker_0, # of connection points: 2
#     Edge 24, Type (0, 0), BuildingBlock: XIVTED_clean_linker_0, # of connection points: 2
#     Edge 25, Type (0, 0), BuildingBlock: XIVTED_clean_linker_0, # of connection points: 2
#     Edge 26, Type (0, 0), BuildingBlock: XIVTED_clean_linker_0, # of connection points: 2
#     Edge 27, Type (0, 0), BuildingBlock: XIVTED_clean_linker_0, # of connection points: 2
#     Edge 28, Type (0, 0), BuildingBlock: XIVTED_clean_linker_0, # of connection points: 2
#     Edge 29, Type (0, 0), BuildingBlock: XIVTED_clean_linker_0, # of connection points: 2
#     Edge 30, Type (0, 0), BuildingBlock: XIVTED_clean_linker_0, # of connection points: 2
#     Edge 31, Type (0, 0), BuildingBlock: XIVTED_clean_linker_0, # of connection points: 2
#     Edge 32, Type (0, 0), BuildingBlock: XIVTED_clean_linker_0, # of connection points: 2
#     Edge 33, Type (0, 0), BuildingBlock: XIVTED_clean_linker_0, # of connection points: 2
#     Edge 34, Type (0, 0), BuildingBlock: XIVTED_clean_linker_0, # of connection points: 2
#     Edge 35, Type (0, 0), BuildingBlock: XIVTED_clean_linker_0, # of connection points: 2
#     Edge 36, Type (0, 0), BuildingBlock: XIVTED_clean_linker_0, # of connection points: 2
#     Edge 37, Type (0, 0), BuildingBlock: XIVTED_clean_linker_0, # of connection points: 2
#     Edge 38, Type (0, 0), BuildingBlock: XIVTED_clean_linker_0, # of connection points: 2
#     Edge 39, Type (0, 0), BuildingBlock: XIVTED_clean_linker_0, # of connection points: 2
#     Edge 40, Type (0, 0), BuildingBlock: XIVTED_clean_linker_0, # of connection points: 2
#     Edge 41, Type (0, 0), BuildingBlock: XIVTED_clean_linker_0, # of connection points: 2
#     Edge 42, Type (0, 0), BuildingBlock: XIVTED_clean_linker_0, # of connection points: 2
#     Edge 43, Type (0, 0), BuildingBlock: XIVTED_clean_linker_0, # of connection points: 2
#     Edge 44, Type (0, 0), BuildingBlock: XIVTED_clean_linker_0, # of connection points: 2
#     Edge 45, Type (0, 0), BuildingBlock: XIVTED_clean_linker_0, # of connection points: 2
#     Edge 46, Type (0, 0), BuildingBlock: XIVTED_clean_linker_0, # of connection points: 2
#     Edge 47, Type (0, 0), BuildingBlock: XIVTED_clean_linker_0, # of connection points: 2
# Relax obj value: 0.094
# Max RMSD: 0.132
# Mean RMSD: 0.131
data_MOF--net-cag--node1-CEKHIL_clean_sbu_0--edge1-XIVTED_clean_linker_0
_symmetry_space_group_name_H-M    P1
_symmetry_Int_Tables_number       1
_symmetry_cell_setting            triclinic
loop_
_symmetry_equiv_pos_as_xyz
'x, y, z'
_cell_length_a     44.212455
_cell_length_b     48.923001
_cell_length_c     40.400634
_cell_angle_alpha  89.995819
_cell_angle_beta   89.997382
_cell_angle_gamma 90.001144
loop_
_atom_site_label
_atom_site_type_symbol
_atom_site_fract_x
_atom_site_fract_y
_atom_site_fract_z
_atom_type_partial_charge
Co0 Co 0.31925 0.13406 0.0774 0.0
O1 O 0.27913 0.14386 0.06264 0.0
O2 O 0.31924 0.17095 0.06068 0.0
C3 C 0.32074 0.093 0.05221 0.0
O4 O 0.3644 0.13139 0.08763 0.0
Co5 Co 0.33259 0.08415 0.12227 0.0
O6 O 0.37546 0.09105 0.11132 0.0
C7 C 0.30661 0.13426 0.1516 0.0
C8 C 0.29079 0.16718 0.05402 0.0
C9 C 0.38353 0.11359 0.09828 0.0
O10 O 0.30907 0.14701 0.12381 0.0
O11 O 0.31335 0.10903 0.15547 0.0
O12 O 0.32655 0.11518 0.03574 0.0
O13 O 0.31201 0.09638 0.08248 0.0
Co14 Co 0.18266 0.86421 0.57632 0.0
O15 O 0.22273 0.85465 0.56112 0.0
O16 O 0.18261 0.82761 0.5587 0.0
C17 C 0.18111 0.90572 0.55223 0.0
O18 O 0.13754 0.8667 0.58682 0.0
Co19 Co 0.16943 0.91341 0.62244 0.0
O20 O 0.12654 0.90667 0.61143 0.0
C21 C 0.19593 0.86296 0.65033 0.0
C22 C 0.21104 0.83146 0.55203 0.0
C23 C 0.11844 0.88435 0.59791 0.0
O24 O 0.1931 0.85053 0.62236 0.0
O25 O 0.18927 0.88813 0.65475 0.0
O26 O 0.17521 0.88385 0.53516 0.0
O27 O 0.18991 0.90175 0.58235 0.0
Co28 Co 0.3197 0.86501 0.92665 0.0
O29 O 0.27997 0.85459 0.9421 0.0
O30 O 0.32057 0.82809 0.94324 0.0
C31 C 0.32087 0.90603 0.95193 0.0
O32 O 0.36465 0.86833 0.91569 0.0
Co33 Co 0.33159 0.91517 0.88172 0.0
O34 O 0.37471 0.9089 0.89207 0.0
C35 C 0.30609 0.86476 0.85265 0.0
C36 C 0.29218 0.83142 0.95044 0.0
C37 C 0.38333 0.88645 0.90488 0.0
O38 O 0.3091 0.852 0.88038 0.0
O39 O 0.31236 0.89008 0.84875 0.0
O40 O 0.32727 0.8839 0.96825 0.0
O41 O 0.31177 0.90258 0.9218 0.0
Co42 Co 0.18385 0.13437 0.42847 0.0
O43 O 0.22395 0.14379 0.44375 0.0
O44 O 0.18393 0.17095 0.44613 0.0
C45 C 0.18205 0.09286 0.45251 0.0
O46 O 0.13874 0.1321 0.41793 0.0
Co47 Co 0.17031 0.08529 0.3823 0.0
O48 O 0.12746 0.09218 0.39336 0.0
C49 C 0.19703 0.13567 0.35444 0.0
C50 C 0.21232 0.167 0.45288 0.0
C51 C 0.11951 0.11455 0.40688 0.0
O52 O 0.19438 0.14806 0.38246 0.0
O53 O 0.19017 0.11054 0.34998 0.0
O54 O 0.17626 0.11474 0.46959 0.0
O55 O 0.1909 0.0968 0.42239 0.0
Co56 Co 0.66974 0.8732 0.90991 0.0
O57 O 0.70922 0.87558 0.88897 0.0
O58 O 0.66709 0.8626 0.86404 0.0
C59 C 0.67136 0.91397 0.93622 0.0
O60 O 0.62479 0.86955 0.92056 0.0
Co61 Co 0.65822 0.8734 0.98588 0.0
O62 O 0.61497 0.8771 0.97433 0.0
C63 C 0.68162 0.82354 0.95325 0.0
C64 C 0.69581 0.86777 0.86189 0.0
C65 C 0.60621 0.87289 0.94476 0.0
O66 O 0.67858 0.83425 0.92425 0.0
O67 O 0.67633 0.83631 0.98025 0.0
O68 O 0.66432 0.91276 0.90499 0.0
O69 O 0.67926 0.89115 0.94964 0.0
Co70 Co 0.83262 0.12839 0.41027 0.0
O71 O 0.79303 0.12602 0.38958 0.0
O72 O 0.835 0.13918 0.36447 0.0
C73 C 0.83127 0.08753 0.43638 0.0
O74 O 0.87763 0.13209 0.42056 0.0
Co75 Co 0.84479 0.12796 0.48609 0.0
O76 O 0.88796 0.12423 0.47413 0.0
C77 C 0.82092 0.17787 0.45398 0.0
C78 C 0.80629 0.13396 0.36246 0.0
C79 C 0.89644 0.1286 0.4445 0.0
O80 O 0.82377 0.16727 0.42489 0.0
O81 O 0.8265 0.16502 0.48086 0.0
O82 O 0.83811 0.08887 0.4051 0.0
O83 O 0.82342 0.11028 0.45001 0.0
Co84 Co 0.6705 0.12738 0.09621 0.0
O85 O 0.71006 0.12516 0.11702 0.0
O86 O 0.66797 0.13821 0.14199 0.0
C87 C 0.67207 0.0865 0.07015 0.0
O88 O 0.62551 0.13093 0.08577 0.0
Co89 Co 0.65856 0.12683 0.02034 0.0
O90 O 0.61537 0.12304 0.03216 0.0
C91 C 0.68219 0.17683 0.05245 0.0
C92 C 0.69671 0.13311 0.14408 0.0
C93 C 0.60678 0.12739 0.06175 0.0
O94 O 0.67926 0.16627 0.08155 0.0
O95 O 0.67674 0.16392 0.02558 0.0
O96 O 0.66515 0.08783 0.10141 0.0
O97 O 0.67987 0.10928 0.05654 0.0
Co98 Co 0.8314 0.87359 0.59542 0.0
O99 O 0.79189 0.87635 0.61626 0.0
O100 O 0.83376 0.8627 0.64119 0.0
C101 C 0.83051 0.91451 0.56939 0.0
O102 O 0.87632 0.86941 0.58495 0.0
Co103 Co 0.84333 0.874 0.51955 0.0
O104 O 0.88661 0.87709 0.53133 0.0
C105 C 0.81878 0.82437 0.55164 0.0
C106 C 0.80513 0.86821 0.64331 0.0
C107 C 0.89512 0.87263 0.56093 0.0
O108 O 0.82199 0.83483 0.58075 0.0
O109 O 0.82438 0.83721 0.52476 0.0
O110 O 0.83742 0.91306 0.60064 0.0
O111 O 0.82233 0.89186 0.55576 0.0
Co112 Co 0.81922 0.63541 0.07689 0.0
O113 O 0.77943 0.64541 0.06115 0.0
O114 O 0.81977 0.67223 0.06005 0.0
C115 C 0.82093 0.59426 0.05194 0.0
O116 O 0.86417 0.63262 0.08799 0.0
Co117 Co 0.83184 0.58561 0.12215 0.0
O118 O 0.87488 0.59223 0.11168 0.0
C119 C 0.80535 0.63578 0.15081 0.0
C120 C 0.79146 0.66862 0.05267 0.0
C121 C 0.88315 0.61475 0.09877 0.0
O122 O 0.80828 0.6485 0.12304 0.0
O123 O 0.81202 0.61056 0.15486 0.0
O124 O 0.82713 0.61636 0.03546 0.0
O125 O 0.81175 0.59778 0.08203 0.0
Co126 Co 0.68267 0.36597 0.5773 0.0
O127 O 0.72247 0.35603 0.56151 0.0
O128 O 0.68217 0.32915 0.56043 0.0
C129 C 0.68089 0.40714 0.55239 0.0
O130 O 0.63772 0.36868 0.58847 0.0
Co131 Co 0.67002 0.41567 0.62266 0.0
O132 O 0.62696 0.409 0.61232 0.0
C133 C 0.69661 0.3655 0.6512 0.0
C134 C 0.71048 0.33279 0.55305 0.0
C135 C 0.61872 0.38649 0.59938 0.0
O136 O 0.69368 0.35284 0.6234 0.0
O137 O 0.68989 0.3907 0.65533 0.0
O138 O 0.67469 0.38504 0.53591 0.0
O139 O 0.6901 0.40361 0.58247 0.0
Co140 Co 0.81886 0.36546 0.92883 0.0
O141 O 0.77884 0.35604 0.94432 0.0
O142 O 0.81873 0.32869 0.94594 0.0
C143 C 0.82102 0.40669 0.95355 0.0
O144 O 0.86392 0.3677 0.91795 0.0
Co145 Co 0.83222 0.41493 0.88328 0.0
O146 O 0.87514 0.40783 0.89386 0.0
C147 C 0.80518 0.36492 0.85487 0.0
C148 C 0.79041 0.3327 0.95301 0.0
C149 C 0.88312 0.38532 0.90699 0.0
O150 O 0.80794 0.3523 0.88271 0.0
O151 O 0.81214 0.39006 0.85067 0.0
O152 O 0.82684 0.38459 0.97019 0.0
O153 O 0.81192 0.40315 0.92344 0.0
Co154 Co 0.68175 0.6355 0.4278 0.0
O155 O 0.72142 0.64605 0.44336 0.0
O156 O 0.68074 0.67244 0.44429 0.0
C157 C 0.68065 0.59449 0.45313 0.0
O158 O 0.63682 0.63213 0.41682 0.0
Co159 Co 0.66978 0.58526 0.38303 0.0
O160 O 0.62667 0.59144 0.39356 0.0
C161 C 0.69546 0.63557 0.35384 0.0
C162 C 0.70911 0.66919 0.45164 0.0
C163 C 0.61809 0.61395 0.40625 0.0
O164 O 0.69242 0.64843 0.3815 0.0
O165 O 0.68914 0.61025 0.35003 0.0
O166 O 0.67418 0.61661 0.46943 0.0
O167 O 0.68973 0.59794 0.423 0.0
Co168 Co 0.17024 0.37233 0.91068 0.0
O169 O 0.21001 0.37463 0.89046 0.0
O170 O 0.16841 0.36085 0.86507 0.0
C171 C 0.1711 0.41359 0.93583 0.0
O172 O 0.12516 0.36854 0.92061 0.0
Co173 Co 0.15759 0.37383 0.98639 0.0
O174 O 0.11448 0.37707 0.97396 0.0
C175 C 0.18198 0.32358 0.95557 0.0
C176 C 0.1971 0.36623 0.86334 0.0
C177 C 0.10619 0.37225 0.94437 0.0
O178 O 0.17922 0.33373 0.92625 0.0
O179 O 0.17615 0.3368 0.98212 0.0
O180 O 0.16453 0.41172 0.90453 0.0
O181 O 0.179 0.3911 0.95006 0.0
Co182 Co 0.33078 0.62587 0.4093 0.0
O183 O 0.29106 0.62383 0.38891 0.0
O184 O 0.33293 0.63706 0.36361 0.0
C185 C 0.3294 0.58479 0.43487 0.0
O186 O 0.37586 0.6293 0.41937 0.0
Co187 Co 0.34318 0.62476 0.48506 0.0
O188 O 0.38629 0.62107 0.47284 0.0
C189 C 0.3194 0.67502 0.45367 0.0
C190 C 0.30418 0.63198 0.3618 0.0
C191 C 0.39471 0.6256 0.44323 0.0
O192 O 0.32217 0.66465 0.42446 0.0
O193 O 0.32499 0.66191 0.48037 0.0
O194 O 0.33608 0.58639 0.40356 0.0
O195 O 0.32169 0.60744 0.44883 0.0
Co196 Co 0.1703 0.62736 0.09468 0.0
O197 O 0.21006 0.62505 0.11491 0.0
O198 O 0.16843 0.63875 0.1403 0.0
C199 C 0.17119 0.58613 0.06944 0.0
O200 O 0.12522 0.63111 0.08477 0.0
Co201 Co 0.15762 0.62595 0.01898 0.0
O202 O 0.11453 0.62259 0.03143 0.0
C203 C 0.18196 0.67618 0.04989 0.0
C204 C 0.19712 0.63337 0.14205 0.0
C205 C 0.10625 0.62737 0.06103 0.0
O206 O 0.17924 0.66598 0.07919 0.0
O207 O 0.17613 0.663 0.0233 0.0
O208 O 0.16461 0.58796 0.10075 0.0
O209 O 0.17907 0.60864 0.05525 0.0
Co210 Co 0.3315 0.37233 0.59646 0.0
O211 O 0.29172 0.37434 0.61671 0.0
O212 O 0.33353 0.36126 0.64221 0.0
C213 C 0.33005 0.41337 0.57078 0.0
O214 O 0.37662 0.36897 0.58653 0.0
Co215 Co 0.34405 0.37334 0.52072 0.0
O216 O 0.38711 0.37718 0.53306 0.0
C217 C 0.32036 0.32307 0.5522 0.0
C218 C 0.30476 0.36631 0.64391 0.0
C219 C 0.3955 0.3727 0.56269 0.0
O220 O 0.32302 0.3335 0.58139 0.0
O221 O 0.32599 0.33614 0.52548 0.0
O222 O 0.33667 0.41184 0.6021 0.0
O223 O 0.32244 0.39067 0.55686 0.0
H224 H 0.22925 0.17067 0.04804 0.0
H225 H 0.2335 0.3017 0.92924 0.0
H226 H 0.31196 0.2103 0.01783 0.0
H227 H 0.1588 0.28347 0.99411 0.0
H228 H 0.2595 0.26041 0.94934 0.0
H229 H 0.20041 0.20512 0.01719 0.0
C230 C 0.24132 0.18657 0.03487 0.0
C231 C 0.273 0.18787 0.03581 0.0
C232 C 0.23713 0.2652 0.95859 0.0
C233 C 0.24027 0.22681 0.99997 0.0
C234 C 0.22219 0.28848 0.94684 0.0
C235 C 0.19406 0.29581 0.9601 0.0
C236 C 0.22353 0.24913 0.98333 0.0
C237 C 0.18052 0.27839 0.98335 0.0
C238 C 0.22489 0.20613 0.01723 0.0
C239 C 0.28753 0.20879 0.01811 0.0
N240 N 0.19543 0.25591 0.99437 0.0
N241 N 0.27106 0.22744 1.00087 0.0
H242 H 0.2681 0.69704 0.427 0.0
H243 H 0.27259 0.82805 0.54585 0.0
H244 H 0.3428 0.71524 0.49188 0.0
H245 H 0.18984 0.78867 0.51529 0.0
H246 H 0.30139 0.79372 0.51479 0.0
H247 H 0.24227 0.73851 0.44681 0.0
C248 C 0.27946 0.71029 0.44453 0.0
C249 C 0.30752 0.70289 0.45789 0.0
C250 C 0.27692 0.79274 0.51478 0.0
C251 C 0.27824 0.74978 0.4808 0.0
C252 C 0.26049 0.81224 0.53253 0.0
C253 C 0.22881 0.81097 0.53348 0.0
C254 C 0.26152 0.77214 0.4974 0.0
C255 C 0.21427 0.79017 0.51559 0.0
C256 C 0.26461 0.73368 0.45612 0.0
C257 C 0.32112 0.72036 0.48104 0.0
N258 N 0.23073 0.77156 0.49825 0.0
N259 N 0.30629 0.74294 0.49192 0.0
H260 H 0.31467 0.78768 0.9845 0.0
H261 H 0.15701 0.71722 0.01427 0.0
H262 H 0.23088 0.82781 0.95927 0.0
H263 H 0.23526 0.69692 0.07285 0.0
H264 H 0.18298 0.75816 0.99422 0.0
H265 H 0.28614 0.75359 0.01596 0.0
C266 C 0.29025 0.78928 0.9855 0.0
C267 C 0.27508 0.81046 0.969 0.0
C268 C 0.19426 0.74514 0.01205 0.0
C269 C 0.24235 0.77159 0.00504 0.0
C270 C 0.17939 0.72191 0.02363 0.0
C271 C 0.19402 0.70393 0.04538 0.0
C272 C 0.22434 0.74993 0.02151 0.0
C273 C 0.22315 0.71055 0.05641 0.0
C274 C 0.27403 0.76998 0.00375 0.0
C275 C 0.24345 0.81172 0.97148 0.0
N276 N 0.23766 0.73279 0.04381 0.0
N277 N 0.22809 0.79238 0.98887 0.0
H278 H 0.26894 0.30107 0.57857 0.0
H279 H 0.27386 0.17022 0.45947 0.0
H280 H 0.34406 0.28278 0.51431 0.0
H281 H 0.19107 0.20972 0.48965 0.0
H282 H 0.3026 0.20439 0.49087 0.0
H283 H 0.2432 0.25962 0.55858 0.0
C284 C 0.2804 0.2878 0.56115 0.0
C285 C 0.30856 0.29517 0.548 0.0
C286 C 0.27813 0.20543 0.49072 0.0
C287 C 0.27938 0.24831 0.52488 0.0
C288 C 0.26175 0.18602 0.47277 0.0
C289 C 0.23008 0.18738 0.47162 0.0
C290 C 0.2627 0.22602 0.50809 0.0
C291 C 0.2155 0.20817 0.4895 0.0
C292 C 0.26561 0.26442 0.54946 0.0
C293 C 0.32231 0.27767 0.52499 0.0
N294 N 0.23192 0.22668 0.50703 0.0
N295 N 0.30752 0.25511 0.51399 0.0
H296 H 0.81391 0.71239 0.0187 0.0
H297 H 0.65605 0.78174 0.98697 0.0
H298 H 0.7302 0.67167 0.04289 0.0
H299 H 0.73516 0.80329 0.93047 0.0
H300 H 0.68194 0.74064 0.00668 0.0
H301 H 0.78547 0.74618 0.98675 0.0
C302 C 0.78952 0.7106 0.01736 0.0
C303 C 0.77434 0.68935 0.03374 0.0
C304 C 0.69342 0.75395 0.98933 0.0
C305 C 0.7417 0.7279 0.99711 0.0
C306 C 0.67859 0.77726 0.97793 0.0
C307 C 0.6935 0.79565 0.95691 0.0
C308 C 0.72372 0.74949 0.98047 0.0
C309 C 0.72284 0.78933 0.94632 0.0
C310 C 0.77335 0.72973 0.99883 0.0
C311 C 0.74277 0.68783 0.0308 0.0
N312 N 0.73729 0.76701 0.95877 0.0
N313 N 0.72744 0.70703 0.01314 0.0
H314 H 0.84613 0.21948 0.48837 0.0
H315 H 0.68817 0.289 0.51902 0.0
H316 H 0.76747 0.19821 0.431 0.0
H317 H 0.77178 0.32971 0.54361 0.0
H318 H 0.71676 0.25514 0.48731 0.0
H319 H 0.82012 0.26052 0.50807 0.0
C320 C 0.82366 0.22399 0.47916 0.0
C321 C 0.80892 0.2057 0.45789 0.0
C322 C 0.72883 0.2716 0.49943 0.0
C323 C 0.77855 0.2518 0.4814 0.0
C324 C 0.71257 0.29077 0.51781 0.0
C325 C 0.72767 0.31205 0.53424 0.0
C326 C 0.76048 0.27342 0.4979 0.0
C327 C 0.75926 0.31354 0.53148 0.0
C328 C 0.80875 0.24728 0.49055 0.0
C329 C 0.77966 0.21208 0.44706 0.0
N330 N 0.77467 0.2943 0.51397 0.0
N331 N 0.76513 0.23437 0.45949 0.0
H332 H 0.72893 0.32983 0.9604 0.0
H333 H 0.7342 0.19816 0.07817 0.0
H334 H 0.81172 0.28949 0.98892 0.0
H335 H 0.65822 0.21767 0.01569 0.0
H336 H 0.7601 0.23951 0.05811 0.0
H337 H 0.70027 0.29569 0.99193 0.0
C338 C 0.74106 0.31384 0.97335 0.0
C339 C 0.7727 0.31225 0.97171 0.0
C340 C 0.73747 0.23501 0.04941 0.0
C341 C 0.74018 0.27365 0.00834 0.0
C342 C 0.72259 0.2117 0.06117 0.0
C343 C 0.69412 0.20471 0.04853 0.0
C344 C 0.72349 0.25142 0.02527 0.0
C345 C 0.6802 0.22251 0.02599 0.0
C346 C 0.72472 0.29446 0.99139 0.0
C347 C 0.78731 0.29123 0.98916 0.0
N348 N 0.69508 0.24499 0.01491 0.0
N349 N 0.77093 0.27275 0.00678 0.0
H350 H 0.84446 0.78206 0.51902 0.0
H351 H 0.68631 0.71354 0.48427 0.0
H352 H 0.76422 0.80508 0.57265 0.0
H353 H 0.77024 0.67235 0.46224 0.0
H354 H 0.71441 0.74766 0.51609 0.0
H355 H 0.81843 0.74117 0.49887 0.0
C356 C 0.82161 0.77795 0.52734 0.0
C357 C 0.80647 0.79666 0.54772 0.0
C358 C 0.72665 0.73105 0.5045 0.0
C359 C 0.7761 0.75076 0.52362 0.0
C360 C 0.71068 0.71172 0.48605 0.0
C361 C 0.72601 0.69021 0.47033 0.0
C362 C 0.75826 0.72913 0.50684 0.0
C363 C 0.75755 0.68869 0.47381 0.0
C364 C 0.80669 0.75477 0.51567 0.0
C365 C 0.77672 0.79085 0.55735 0.0
N366 N 0.77268 0.70805 0.49141 0.0
N367 N 0.76224 0.76863 0.54466 0.0
H368 H 0.3302 0.08038 0.98716 0.0
H369 H 0.33118 0.91871 0.01681 0.0
H370 H 0.31786 0.04338 0.08318 0.0
H371 H 0.31696 0.95564 0.92106 0.0
H372 H 0.33357 0.96435 0.04148 0.0
H373 H 0.33263 0.03476 0.96246 0.0
C374 C 0.32818 0.06265 0.00306 0.0
C375 C 0.32368 0.06563 0.03724 0.0
C376 C 0.33 0.96244 0.01507 0.0
C377 C 0.32653 0.01347 0.0092 0.0
C378 C 0.32873 0.93643 1.00096 0.0
C379 C 0.32372 0.93342 0.96688 0.0
C380 C 0.32654 0.9856 0.99488 0.0
C381 C 0.3207 0.95705 0.94748 0.0
C382 C 0.32947 0.03664 0.98894 0.0
C383 C 0.3212 0.04198 0.05669 0.0
N384 N 0.32217 0.98217 0.96176 0.0
N385 N 0.32267 0.01687 0.04239 0.0
H386 H 0.18398 0.95458 0.5848 0.0
H387 H 0.18473 0.04399 0.41992 0.0
H388 H 0.17176 0.9198 0.48755 0.0
H389 H 0.17233 0.0788 0.51712 0.0
H390 H 0.18183 0.99826 0.44415 0.0
H391 H 0.18155 0.00031 0.56053 0.0
C392 C 0.18066 0.95658 0.55835 0.0
C393 C 0.17816 0.9334 0.53811 0.0
C394 C 0.17955 0.0159 0.46015 0.0
C395 C 0.1756 0.9856 0.51017 0.0
C396 C 0.18128 0.042 0.44635 0.0
C397 C 0.17887 0.06519 0.46658 0.0
C398 C 0.17575 0.01299 0.49448 0.0
C399 C 0.17431 0.06144 0.50064 0.0
C400 C 0.17921 0.98268 0.54452 0.0
C401 C 0.1738 0.93716 0.50402 0.0
N402 N 0.17314 0.03582 0.51358 0.0
N403 N 0.17289 0.96278 0.49107 0.0
H404 H 0.67485 0.91885 0.00334 0.0
H405 H 0.67512 0.0815 0.00304 0.0
H406 H 0.66213 0.96657 0.9146 0.0
H407 H 0.66289 0.03393 0.09198 0.0
H408 H 0.67231 0.03971 0.97031 0.0
H409 H 0.6724 0.96063 0.03617 0.0
C410 C 0.67143 0.93813 0.99073 0.0
C411 C 0.66877 0.93923 0.95612 0.0
C412 C 0.67005 0.03838 0.99696 0.0
C413 C 0.66619 0.98725 0.99369 0.0
C414 C 0.67173 0.06225 0.01572 0.0
C415 C 0.66931 0.06119 0.05036 0.0
C416 C 0.66631 0.01314 0.01289 0.0
C417 C 0.66489 0.03565 0.06536 0.0
C418 C 0.66996 0.96198 0.00955 0.0
C419 C 0.66431 0.9648 0.9412 0.0
N420 N 0.66377 0.01259 0.04655 0.0
N421 N 0.66339 0.98784 0.96006 0.0
H422 H 0.82833 0.08238 0.5035 0.0
H423 H 0.82749 0.91972 0.50229 0.0
H424 H 0.84029 0.035 0.41437 0.0
H425 H 0.84016 0.96695 0.59141 0.0
H426 H 0.83043 0.96162 0.46974 0.0
H427 H 0.83092 0.04046 0.53607 0.0
C428 C 0.83161 0.06314 0.49075 0.0
C429 C 0.83401 0.06218 0.45611 0.0
C430 C 0.83276 0.96285 0.49638 0.0
C431 C 0.83675 0.01399 0.49337 0.0
C432 C 0.831 0.93892 0.51505 0.0
C433 C 0.83349 0.93985 0.54968 0.0
C434 C 0.83664 0.98803 0.51243 0.0
C435 C 0.83811 0.96532 0.56479 0.0
C436 C 0.83317 0.03921 0.50942 0.0
C437 C 0.83832 0.03666 0.441 0.0
N438 N 0.83929 0.98845 0.54608 0.0
N439 N 0.83931 0.01354 0.45972 0.0
H440 H 0.83109 0.41974 0.01838 0.0
H441 H 0.83136 0.58124 0.98716 0.0
H442 H 0.81813 0.45609 0.92209 0.0
H443 H 0.81759 0.54484 0.08329 0.0
H444 H 0.83406 0.53544 0.96292 0.0
H445 H 0.83373 0.46553 0.04259 0.0
C446 C 0.82899 0.43736 1.00231 0.0
C447 C 0.82423 0.43415 0.96821 0.0
C448 C 0.83054 0.53751 0.98933 0.0
C449 C 0.82731 0.4865 0.99569 0.0
C450 C 0.82909 0.56361 0.00318 0.0
C451 C 0.82408 0.5668 0.03724 0.0
C452 C 0.82726 0.51446 0.00975 0.0
C453 C 0.8213 0.54328 0.05688 0.0
C454 C 0.8304 0.46346 0.01616 0.0
C455 C 0.82165 0.45766 0.94853 0.0
N456 N 0.82293 0.51808 0.04284 0.0
N457 N 0.82322 0.48287 0.96256 0.0
H458 H 0.67063 0.42008 0.48757 0.0
H459 H 0.67066 0.58166 0.51807 0.0
H460 H 0.68433 0.45662 0.58363 0.0
H461 H 0.68419 0.54497 0.42206 0.0
H462 H 0.66824 0.53593 0.54256 0.0
H463 H 0.66812 0.46582 0.4632 0.0
C464 C 0.67293 0.43774 0.50356 0.0
C465 C 0.67785 0.43459 0.53764 0.0
C466 C 0.67166 0.53792 0.51613 0.0
C467 C 0.6749 0.48688 0.50997 0.0
C468 C 0.67294 0.56398 0.50213 0.0
C469 C 0.67777 0.56707 0.46802 0.0
C470 C 0.67491 0.51481 0.4958 0.0
C471 C 0.6806 0.54349 0.44851 0.0
C472 C 0.6716 0.46381 0.48962 0.0
C473 C 0.68067 0.45814 0.5572 0.0
N474 N 0.67911 0.51834 0.46268 0.0
N475 N 0.67915 0.48332 0.54309 0.0
H476 H 0.16145 0.53416 0.0928 0.0
H477 H 0.16146 0.46558 0.91242 0.0
H478 H 0.1742 0.57981 1.00247 0.0
H479 H 0.17405 0.41994 0.00279 0.0
H480 H 0.1588 0.5078 0.94509 0.0
H481 H 0.15874 0.49196 0.0601 0.0
C482 C 0.16351 0.53531 0.06612 0.0
C483 C 0.16821 0.56049 0.05035 0.0
C484 C 0.16205 0.4885 0.95772 0.0
C485 C 0.16498 0.51247 0.01284 0.0
C486 C 0.16349 0.46443 0.9391 0.0
C487 C 0.16814 0.43925 0.95488 0.0
C488 C 0.16497 0.48729 0.99236 0.0
C489 C 0.1706 0.43892 0.98955 0.0
C490 C 0.16203 0.51126 0.04748 0.0
C491 C 0.1707 0.56084 0.01569 0.0
N492 N 0.16898 0.46255 0.00711 0.0
N493 N 0.16905 0.53722 0.99811 0.0
H494 H 0.33904 0.53258 0.41216 0.0
H495 H 0.33928 0.46563 0.59345 0.0
H496 H 0.32616 0.57899 0.50189 0.0
H497 H 0.32688 0.41909 0.50374 0.0
H498 H 0.34163 0.50756 0.5602 0.0
H499 H 0.34172 0.49066 0.4454 0.0
C500 C 0.33694 0.53396 0.43881 0.0
C501 C 0.33223 0.55927 0.45425 0.0
C502 C 0.33848 0.48813 0.54784 0.0
C503 C 0.33543 0.51157 0.49238 0.0
C504 C 0.33722 0.46423 0.5668 0.0
C505 C 0.33273 0.43888 0.55137 0.0
C506 C 0.33554 0.48659 0.51322 0.0
C507 C 0.33022 0.43821 0.51671 0.0
C508 C 0.3384 0.51006 0.45776 0.0
C509 C 0.32967 0.55991 0.48891 0.0
N510 N 0.33167 0.46168 0.49882 0.0
N511 N 0.33132 0.53644 0.50678 0.0
H512 H 0.57839 0.11847 0.121 0.0
H513 H 0.41172 0.1467 0.05309 0.0
H514 H 0.5604 0.13802 0.01867 0.0
H515 H 0.42987 0.09271 0.13523 0.0
H516 H 0.46639 0.15255 0.04524 0.0
H517 H 0.52382 0.11772 0.13154 0.0
C518 C 0.56299 0.12282 0.10082 0.0
C519 C 0.57395 0.12815 0.06885 0.0
C520 C 0.4583 0.13956 0.06507 0.0
C521 C 0.51165 0.1276 0.08087 0.0
C522 C 0.42718 0.13634 0.06969 0.0
C523 C 0.41626 0.11907 0.09473 0.0
C524 C 0.47857 0.12584 0.08604 0.0
C525 C 0.43731 0.10603 0.11543 0.0
C526 C 0.5319 0.12228 0.10684 0.0
C527 C 0.55293 0.13357 0.04362 0.0
N528 N 0.46745 0.10973 0.11068 0.0
N529 N 0.52277 0.13324 0.05018 0.0
H530 H 0.92357 0.8806 0.62034 0.0
H531 H 0.09009 0.852 0.552 0.0
H532 H 0.94144 0.86189 0.51776 0.0
H533 H 0.07221 0.90471 0.6354 0.0
H534 H 0.03538 0.84653 0.544 0.0
H535 H 0.97811 0.88065 0.63097 0.0
C536 C 0.93893 0.87628 0.60011 0.0
C537 C 0.92794 0.87141 0.56805 0.0
C538 C 0.04354 0.85914 0.56414 0.0
C539 C 0.99024 0.87118 0.58017 0.0
C540 C 0.07468 0.86215 0.56884 0.0
C541 C 0.08568 0.87896 0.59429 0.0
C542 C 0.02333 0.87262 0.58542 0.0
C543 C 0.0647 0.89175 0.6153 0.0
C544 C 0.97001 0.87642 0.60619 0.0
C545 C 0.94893 0.866 0.54278 0.0
N546 N 0.03454 0.88827 0.61044 0.0
N547 N 0.97909 0.86596 0.54939 0.0
H548 H 0.429 0.90828 0.86771 0.0
H549 H 0.56029 0.86172 0.98817 0.0
H550 H 0.41251 0.85372 0.94971 0.0
H551 H 0.57724 0.88225 0.88593 0.0
H552 H 0.50589 0.86224 0.97684 0.0
H553 H 0.48345 0.90249 0.87597 0.0
C554 C 0.43684 0.89497 0.88736 0.0
C555 C 0.4162 0.88149 0.90811 0.0
C556 C 0.52156 0.86643 0.95687 0.0
C557 C 0.47841 0.87513 0.91794 0.0
C558 C 0.55257 0.86629 0.96333 0.0
C559 C 0.57333 0.87203 0.93796 0.0
C560 C 0.51119 0.87291 0.925 0.0
C561 C 0.56205 0.87764 0.90619 0.0
C562 C 0.46789 0.89161 0.89195 0.0
C563 C 0.42763 0.8644 0.93307 0.0
N564 N 0.53172 0.87825 0.90069 0.0
N565 N 0.45801 0.86197 0.93757 0.0
H566 H 0.09159 0.14734 0.45261 0.0
H567 H 0.92459 0.12001 0.38505 0.0
H568 H 0.07298 0.09423 0.36976 0.0
H569 H 0.94301 0.13896 0.48745 0.0
H570 H 0.97911 0.11927 0.37424 0.0
H571 H 0.03698 0.1533 0.46073 0.0
C572 C 0.07604 0.1372 0.43591 0.0
C573 C 0.08681 0.12014 0.41058 0.0
C574 C 0.97114 0.1237 0.39902 0.0
C575 C 0.02456 0.12704 0.4196 0.0
C576 C 0.94007 0.12424 0.4052 0.0
C577 C 0.92925 0.12939 0.43726 0.0
C578 C 0.9915 0.12883 0.42494 0.0
C579 C 0.95038 0.13465 0.46243 0.0
C580 C 0.04495 0.14048 0.44069 0.0
C581 C 0.06565 0.10738 0.38977 0.0
N582 N 0.98051 0.13431 0.45572 0.0
N583 N 0.03553 0.11113 0.39469 0.0
H584 H 0.07826 0.61868 0.12056 0.0
H585 H 0.91144 0.64801 0.0539 0.0
H586 H 0.05966 0.63829 0.01839 0.0
H587 H 0.92946 0.59343 0.1355 0.0
H588 H 0.96609 0.65361 0.0459 0.0
H589 H 0.02373 0.61822 0.13157 0.0
C590 C 0.06274 0.62312 0.10052 0.0
C591 C 0.0735 0.62837 0.06845 0.0
C592 C 0.95799 0.64056 0.06565 0.0
C593 C 0.01129 0.62816 0.081 0.0
C594 C 0.92687 0.63748 0.07036 0.0
C595 C 0.91591 0.62011 0.09529 0.0
C596 C 0.97823 0.6266 0.08641 0.0
C597 C 0.93694 0.60684 0.1158 0.0
C598 C 0.03168 0.62274 0.10681 0.0
C599 C 0.05234 0.6339 0.0434 0.0
N600 N 0.9671 0.6104 0.11096 0.0
N601 N 0.02223 0.63373 0.05022 0.0
H602 H 0.59037 0.353 0.55478 0.0
H603 H 0.42365 0.38203 0.62201 0.0
H604 H 0.57245 0.40782 0.63616 0.0
H605 H 0.44201 0.36176 0.51998 0.0
H606 H 0.47822 0.38286 0.63277 0.0
H607 H 0.53572 0.34719 0.54708 0.0
C608 C 0.57497 0.36355 0.57126 0.0
C609 C 0.58595 0.38104 0.59604 0.0
C610 C 0.47021 0.37812 0.60809 0.0
C611 C 0.52362 0.37432 0.58749 0.0
C612 C 0.43913 0.37753 0.60195 0.0
C613 C 0.42829 0.37198 0.57 0.0
C614 C 0.49055 0.37261 0.58226 0.0
C615 C 0.44939 0.36638 0.54491 0.0
C616 C 0.54385 0.36035 0.56672 0.0
C617 C 0.56495 0.39433 0.61658 0.0
N618 N 0.47952 0.36675 0.55159 0.0
N619 N 0.53479 0.39065 0.6119 0.0
H620 H 0.07811 0.38044 0.88479 0.0
H621 H 0.91124 0.35231 0.95232 0.0
H622 H 0.05965 0.36159 0.9872 0.0
H623 H 0.92949 0.40577 0.86971 0.0
H624 H 0.96588 0.34644 0.96024 0.0
H625 H 0.02358 0.38081 0.87387 0.0
C626 C 0.06262 0.37615 0.9049 0.0
C627 C 0.07343 0.37115 0.93701 0.0
C628 C 0.95782 0.3593 0.94028 0.0
C629 C 0.01119 0.37127 0.92457 0.0
C630 C 0.92671 0.36253 0.93562 0.0
C631 C 0.91583 0.37968 0.91044 0.0
C632 C 0.97812 0.3729 0.91922 0.0
C633 C 0.93691 0.39255 0.88961 0.0
C634 C 0.03155 0.37647 0.89867 0.0
C635 C 0.0523 0.36579 0.96215 0.0
N636 N 0.96705 0.38886 0.89442 0.0
N637 N 0.02218 0.36592 0.95539 0.0
H638 H 0.58934 0.64732 0.45066 0.0
H639 H 0.42296 0.61619 0.384 0.0
H640 H 0.57207 0.59172 0.36989 0.0
H641 H 0.44112 0.63691 0.48594 0.0
H642 H 0.47753 0.61575 0.37324 0.0
H643 H 0.53462 0.65245 0.45852 0.0
C644 C 0.57406 0.63645 0.43435 0.0
C645 C 0.58525 0.61896 0.40969 0.0
C646 C 0.46948 0.62049 0.3979 0.0
C647 C 0.52285 0.6249 0.41842 0.0
C648 C 0.4384 0.62086 0.40404 0.0
C649 C 0.4275 0.62644 0.43597 0.0
C650 C 0.48976 0.62627 0.4237 0.0
C651 C 0.44855 0.63226 0.46103 0.0
C652 C 0.5429 0.63927 0.43899 0.0
C653 C 0.56441 0.60524 0.38937 0.0
N654 N 0.47869 0.63212 0.45434 0.0
N655 N 0.5342 0.60855 0.39413 0.0
H656 H 0.33022 0.13695 0.21346 0.0
H657 H 0.1732 0.14122 0.29298 0.0
H658 H 0.25296 0.16167 0.15582 0.0
H659 H 0.25222 0.16035 0.35084 0.0
H660 H 0.2011 0.15274 0.24254 0.0
H661 H 0.30307 0.14934 0.26406 0.0
C662 C 0.30781 0.14578 0.21151 0.0
C663 C 0.29372 0.14834 0.18059 0.0
C664 C 0.21212 0.15526 0.26628 0.0
C665 C 0.26212 0.16156 0.23828 0.0
C666 C 0.19618 0.14874 0.29503 0.0
C667 C 0.2105 0.14994 0.32594 0.0
C668 C 0.24292 0.16202 0.26843 0.0
C669 C 0.24039 0.1594 0.3274 0.0
C670 C 0.29232 0.15284 0.24035 0.0
C671 C 0.26459 0.15959 0.17927 0.0
N672 N 0.25593 0.1644 0.29893 0.0
N673 N 0.24939 0.16513 0.20782 0.0
H674 H 0.32953 0.86182 0.79075 0.0
H675 H 0.17226 0.85753 0.71189 0.0
H676 H 0.25243 0.83736 0.8488 0.0
H677 H 0.25106 0.83816 0.65377 0.0
H678 H 0.2003 0.84608 0.76226 0.0
H679 H 0.30221 0.8493 0.7403 0.0
C680 C 0.30713 0.85301 0.79282 0.0
C681 C 0.29313 0.85056 0.82381 0.0
C682 C 0.21124 0.84349 0.73848 0.0
C683 C 0.26132 0.83721 0.76629 0.0
C684 C 0.19521 0.84997 0.70977 0.0
C685 C 0.20943 0.84868 0.6788 0.0
C686 C 0.24202 0.83669 0.73623 0.0
C687 C 0.2393 0.83918 0.67726 0.0
C688 C 0.29153 0.84588 0.76407 0.0
C689 C 0.26399 0.83935 0.82529 0.0
N690 N 0.25492 0.83422 0.70569 0.0
N691 N 0.24868 0.83374 0.79683 0.0
H692 H 0.67118 0.86039 0.80047 0.0
H693 H 0.82955 0.85996 0.70463 0.0
H694 H 0.7569 0.87144 0.84973 0.0
H695 H 0.74405 0.87257 0.65546 0.0
H696 H 0.80323 0.85877 0.75783 0.0
H697 H 0.69745 0.85945 0.74721 0.0
C698 C 0.69557 0.86247 0.80013 0.0
C699 C 0.71186 0.86602 0.82968 0.0
C700 C 0.79021 0.86175 0.73542 0.0
C701 C 0.7421 0.86489 0.7686 0.0
C702 C 0.80519 0.86233 0.70497 0.0
C703 C 0.78899 0.86639 0.67546 0.0
C704 C 0.75867 0.86497 0.73649 0.0
C705 C 0.75747 0.86943 0.67755 0.0
C706 C 0.71053 0.86204 0.76965 0.0
C707 C 0.74342 0.8687 0.82761 0.0
N708 N 0.74334 0.86859 0.70751 0.0
N709 N 0.75751 0.86802 0.79762 0.0
H710 H 0.83068 0.14188 0.30104 0.0
H711 H 0.6722 0.14099 0.20545 0.0
H712 H 0.74519 0.12986 0.35044 0.0
H713 H 0.75783 0.12951 0.15616 0.0
H714 H 0.69854 0.14238 0.25863 0.0
H715 H 0.80432 0.14283 0.24787 0.0
C716 C 0.80631 0.1396 0.30076 0.0
C717 C 0.79012 0.13575 0.33032 0.0
C718 C 0.71158 0.1396 0.2362 0.0
C719 C 0.75976 0.13689 0.26932 0.0
C720 C 0.69659 0.13892 0.20576 0.0
C721 C 0.71283 0.1351 0.17623 0.0
C722 C 0.74316 0.13674 0.23723 0.0
C723 C 0.74439 0.13244 0.17827 0.0
C724 C 0.7913 0.14003 0.27032 0.0
C725 C 0.75859 0.13282 0.32831 0.0
N726 N 0.75853 0.13337 0.20822 0.0
N727 N 0.74444 0.13351 0.29835 0.0
H728 H 0.67176 0.63904 0.29209 0.0
H729 H 0.829 0.64024 0.21249 0.0
H730 H 0.74971 0.66193 0.3497 0.0
H731 H 0.75052 0.66114 0.15463 0.0
H732 H 0.80127 0.65196 0.26297 0.0
H733 H 0.69922 0.65087 0.24147 0.0
C734 C 0.69439 0.6474 0.29403 0.0
C735 C 0.70856 0.64961 0.32495 0.0
C736 C 0.79034 0.6548 0.23923 0.0
C737 C 0.74051 0.66212 0.26724 0.0
C738 C 0.80618 0.64815 0.21045 0.0
C739 C 0.79196 0.64983 0.17952 0.0
C740 C 0.75972 0.66219 0.23708 0.0
C741 C 0.76227 0.65981 0.17809 0.0
C742 C 0.71007 0.65412 0.26518 0.0
C743 C 0.738 0.66017 0.32626 0.0
N744 N 0.74681 0.66495 0.20658 0.0
N745 N 0.75334 0.66538 0.2977 0.0
H746 H 0.75071 0.33878 0.65399 0.0
H747 H 0.75076 0.33876 0.85208 0.0
H748 H 0.67408 0.36203 0.71355 0.0
H749 H 0.82776 0.36108 0.79257 0.0
H750 H 0.7227 0.32767 0.80118 0.0
H751 H 0.77864 0.32736 0.70488 0.0
C752 C 0.73941 0.34045 0.6777 0.0
C753 C 0.71019 0.35141 0.67979 0.0
C754 C 0.74606 0.33417 0.79943 0.0
C755 C 0.7417 0.33843 0.73763 0.0
C756 C 0.7621 0.34028 0.82837 0.0
C757 C 0.79148 0.35089 0.8263 0.0
C758 C 0.75981 0.33831 0.76845 0.0
C759 C 0.80507 0.35299 0.79504 0.0
C760 C 0.75537 0.33415 0.70664 0.0
C761 C 0.69665 0.35368 0.71106 0.0
N762 N 0.78905 0.34698 0.76728 0.0
N763 N 0.71259 0.34747 0.73882 0.0
H764 H 0.24351 0.36964 0.6549 0.0
H765 H 0.2583 0.37032 0.85234 0.0
H766 H 0.32847 0.3587 0.70572 0.0
H767 H 0.17354 0.35787 0.8016 0.0
H768 H 0.28451 0.36888 0.79886 0.0
H769 H 0.21733 0.36814 0.7084 0.0
C770 C 0.25664 0.36682 0.67727 0.0
C771 C 0.28823 0.36426 0.67579 0.0
C772 C 0.26018 0.36632 0.79947 0.0
C773 C 0.25848 0.36283 0.73715 0.0
C774 C 0.24522 0.36717 0.82999 0.0
C775 C 0.21368 0.36418 0.83149 0.0
C776 C 0.24346 0.36281 0.77015 0.0
C777 C 0.19789 0.36019 0.80168 0.0
C778 C 0.2417 0.36593 0.7078 0.0
C779 C 0.30409 0.36067 0.70563 0.0
N780 N 0.2129 0.3598 0.77228 0.0
N781 N 0.28909 0.36025 0.73504 0.0
H782 H 0.24295 0.62875 0.35058 0.0
H783 H 0.25828 0.62911 0.15319 0.0
H784 H 0.32808 0.63982 0.30012 0.0
H785 H 0.17344 0.64154 0.20376 0.0
H786 H 0.28435 0.6302 0.20677 0.0
H787 H 0.21693 0.63058 0.297 0.0
C788 C 0.25615 0.63166 0.32828 0.0
C789 C 0.28773 0.63416 0.32987 0.0
C790 C 0.26004 0.63283 0.2061 0.0
C791 C 0.25817 0.63598 0.26844 0.0
C792 C 0.24516 0.63218 0.17552 0.0
C793 C 0.21363 0.63526 0.17395 0.0
C794 C 0.24325 0.63623 0.23539 0.0
C795 C 0.19778 0.63916 0.20374 0.0
C796 C 0.24129 0.63274 0.2977 0.0
C797 C 0.30369 0.63788 0.30012 0.0
N798 N 0.2127 0.63934 0.23319 0.0
N799 N 0.28878 0.63849 0.27066 0.0
loop_
_geom_bond_atom_site_label_1
_geom_bond_atom_site_label_2
_geom_bond_distance
_geom_bond_site_symmetry_2
_ccdc_geom_bond_type
Co0 O1 2.216 . S
Co0 O2 2.091 . S
Co0 O4 2.004 . S
Co0 O10 2.021 . S
Co0 O12 2.137 . S
Co0 O13 2.244 . S
O1 Co0 2.216 . S
O1 C8 1.247 . S
O2 Co0 2.091 . S
O2 C8 1.261 . S
C3 O12 1.247 . S
C3 O13 1.272 . S
O4 Co0 2.004 . S
O4 C9 1.259 . S
Co5 O6 2.061 . S
Co5 O11 2.052 . S
Co5 O13 2.135 . S
O6 Co5 2.061 . S
O6 C9 1.235 . S
C7 O10 1.238 . S
C7 O11 1.241 . S
C8 O1 1.247 . S
C8 O2 1.261 . S
C9 O4 1.259 . S
C9 O6 1.235 . S
O10 Co0 2.021 . S
O10 C7 1.238 . S
O11 Co5 2.052 . S
O11 C7 1.241 . S
O12 Co0 2.137 . S
O12 C3 1.247 . S
O13 Co0 2.244 . S
O13 C3 1.272 . S
O13 Co5 2.135 . S
Co14 O15 2.216 . S
Co14 O16 2.091 . S
Co14 O18 2.004 . S
Co14 O24 2.021 . S
Co14 O26 2.137 . S
Co14 O27 2.244 . S
O15 Co14 2.216 . S
O15 C22 1.247 . S
O16 Co14 2.091 . S
O16 C22 1.261 . S
C17 O26 1.247 . S
C17 O27 1.272 . S
O18 Co14 2.004 . S
O18 C23 1.259 . S
Co19 O20 2.061 . S
Co19 O25 2.052 . S
Co19 O27 2.135 . S
O20 Co19 2.061 . S
O20 C23 1.235 . S
C21 O24 1.238 . S
C21 O25 1.241 . S
C22 O15 1.247 . S
C22 O16 1.261 . S
C23 O18 1.259 . S
C23 O20 1.235 . S
O24 Co14 2.021 . S
O24 C21 1.238 . S
O25 Co19 2.052 . S
O25 C21 1.241 . S
O26 Co14 2.137 . S
O26 C17 1.247 . S
O27 Co14 2.244 . S
O27 C17 1.272 . S
O27 Co19 2.135 . S
Co28 O29 2.216 . S
Co28 O30 2.091 . S
Co28 O32 2.004 . S
Co28 O38 2.021 . S
Co28 O40 2.137 . S
Co28 O41 2.244 . S
O29 Co28 2.216 . S
O29 C36 1.247 . S
O30 Co28 2.091 . S
O30 C36 1.261 . S
C31 O40 1.247 . S
C31 O41 1.272 . S
O32 Co28 2.004 . S
O32 C37 1.259 . S
Co33 O34 2.061 . S
Co33 O39 2.052 . S
Co33 O41 2.135 . S
O34 Co33 2.061 . S
O34 C37 1.235 . S
C35 O38 1.238 . S
C35 O39 1.241 . S
C36 O29 1.247 . S
C36 O30 1.261 . S
C37 O32 1.259 . S
C37 O34 1.235 . S
O38 Co28 2.021 . S
O38 C35 1.238 . S
O39 Co33 2.052 . S
O39 C35 1.241 . S
O40 Co28 2.137 . S
O40 C31 1.247 . S
O41 Co28 2.244 . S
O41 C31 1.272 . S
O41 Co33 2.135 . S
Co42 O43 2.216 . S
Co42 O44 2.091 . S
Co42 O46 2.004 . S
Co42 O52 2.021 . S
Co42 O54 2.137 . S
Co42 O55 2.244 . S
O43 Co42 2.216 . S
O43 C50 1.247 . S
O44 Co42 2.091 . S
O44 C50 1.261 . S
C45 O54 1.247 . S
C45 O55 1.272 . S
O46 Co42 2.004 . S
O46 C51 1.259 . S
Co47 O48 2.061 . S
Co47 O53 2.052 . S
Co47 O55 2.135 . S
O48 Co47 2.061 . S
O48 C51 1.235 . S
C49 O52 1.238 . S
C49 O53 1.241 . S
C50 O43 1.247 . S
C50 O44 1.261 . S
C51 O46 1.259 . S
C51 O48 1.235 . S
O52 Co42 2.021 . S
O52 C49 1.238 . S
O53 Co47 2.052 . S
O53 C49 1.241 . S
O54 Co42 2.137 . S
O54 C45 1.247 . S
O55 Co42 2.244 . S
O55 C45 1.272 . S
O55 Co47 2.135 . S
Co56 O57 2.216 . S
Co56 O58 2.091 . S
Co56 O60 2.004 . S
Co56 O66 2.021 . S
Co56 O68 2.137 . S
Co56 O69 2.244 . S
O57 Co56 2.216 . S
O57 C64 1.247 . S
O58 Co56 2.091 . S
O58 C64 1.261 . S
C59 O68 1.247 . S
C59 O69 1.272 . S
O60 Co56 2.004 . S
O60 C65 1.259 . S
Co61 O62 2.061 . S
Co61 O67 2.052 . S
Co61 O69 2.135 . S
O62 Co61 2.061 . S
O62 C65 1.235 . S
C63 O66 1.238 . S
C63 O67 1.241 . S
C64 O57 1.247 . S
C64 O58 1.261 . S
C65 O60 1.259 . S
C65 O62 1.235 . S
O66 Co56 2.021 . S
O66 C63 1.238 . S
O67 Co61 2.052 . S
O67 C63 1.241 . S
O68 Co56 2.137 . S
O68 C59 1.247 . S
O69 Co56 2.244 . S
O69 C59 1.272 . S
O69 Co61 2.135 . S
Co70 O71 2.216 . S
Co70 O72 2.091 . S
Co70 O74 2.004 . S
Co70 O80 2.021 . S
Co70 O82 2.137 . S
Co70 O83 2.244 . S
O71 Co70 2.216 . S
O71 C78 1.247 . S
O72 Co70 2.091 . S
O72 C78 1.261 . S
C73 O82 1.247 . S
C73 O83 1.272 . S
O74 Co70 2.004 . S
O74 C79 1.259 . S
Co75 O76 2.061 . S
Co75 O81 2.052 . S
Co75 O83 2.135 . S
O76 Co75 2.061 . S
O76 C79 1.235 . S
C77 O80 1.238 . S
C77 O81 1.241 . S
C78 O71 1.247 . S
C78 O72 1.261 . S
C79 O74 1.259 . S
C79 O76 1.235 . S
O80 Co70 2.021 . S
O80 C77 1.238 . S
O81 Co75 2.052 . S
O81 C77 1.241 . S
O82 Co70 2.137 . S
O82 C73 1.247 . S
O83 Co70 2.244 . S
O83 C73 1.272 . S
O83 Co75 2.135 . S
Co84 O85 2.216 . S
Co84 O86 2.091 . S
Co84 O88 2.004 . S
Co84 O94 2.021 . S
Co84 O96 2.137 . S
Co84 O97 2.244 . S
O85 Co84 2.216 . S
O85 C92 1.247 . S
O86 Co84 2.091 . S
O86 C92 1.261 . S
C87 O96 1.247 . S
C87 O97 1.272 . S
O88 Co84 2.004 . S
O88 C93 1.259 . S
Co89 O90 2.061 . S
Co89 O95 2.052 . S
Co89 O97 2.135 . S
O90 Co89 2.061 . S
O90 C93 1.235 . S
C91 O94 1.238 . S
C91 O95 1.241 . S
C92 O85 1.247 . S
C92 O86 1.261 . S
C93 O88 1.259 . S
C93 O90 1.235 . S
O94 Co84 2.021 . S
O94 C91 1.238 . S
O95 Co89 2.052 . S
O95 C91 1.241 . S
O96 Co84 2.137 . S
O96 C87 1.247 . S
O97 Co84 2.244 . S
O97 C87 1.272 . S
O97 Co89 2.135 . S
Co98 O99 2.216 . S
Co98 O100 2.091 . S
Co98 O102 2.004 . S
Co98 O108 2.021 . S
Co98 O110 2.137 . S
Co98 O111 2.244 . S
O99 Co98 2.216 . S
O99 C106 1.247 . S
O100 Co98 2.091 . S
O100 C106 1.261 . S
C101 O110 1.247 . S
C101 O111 1.272 . S
O102 Co98 2.004 . S
O102 C107 1.259 . S
Co103 O104 2.061 . S
Co103 O109 2.052 . S
Co103 O111 2.135 . S
O104 Co103 2.061 . S
O104 C107 1.235 . S
C105 O108 1.238 . S
C105 O109 1.241 . S
C106 O99 1.247 . S
C106 O100 1.261 . S
C107 O102 1.259 . S
C107 O104 1.235 . S
O108 Co98 2.021 . S
O108 C105 1.238 . S
O109 Co103 2.052 . S
O109 C105 1.241 . S
O110 Co98 2.137 . S
O110 C101 1.247 . S
O111 Co98 2.244 . S
O111 C101 1.272 . S
O111 Co103 2.135 . S
Co112 O113 2.216 . S
Co112 O114 2.091 . S
Co112 O116 2.004 . S
Co112 O122 2.021 . S
Co112 O124 2.137 . S
Co112 O125 2.244 . S
O113 Co112 2.216 . S
O113 C120 1.247 . S
O114 Co112 2.091 . S
O114 C120 1.261 . S
C115 O124 1.247 . S
C115 O125 1.272 . S
O116 Co112 2.004 . S
O116 C121 1.259 . S
Co117 O118 2.061 . S
Co117 O123 2.052 . S
Co117 O125 2.135 . S
O118 Co117 2.061 . S
O118 C121 1.235 . S
C119 O122 1.238 . S
C119 O123 1.241 . S
C120 O113 1.247 . S
C120 O114 1.261 . S
C121 O116 1.259 . S
C121 O118 1.235 . S
O122 Co112 2.021 . S
O122 C119 1.238 . S
O123 Co117 2.052 . S
O123 C119 1.241 . S
O124 Co112 2.137 . S
O124 C115 1.247 . S
O125 Co112 2.244 . S
O125 C115 1.272 . S
O125 Co117 2.135 . S
Co126 O127 2.216 . S
Co126 O128 2.091 . S
Co126 O130 2.004 . S
Co126 O136 2.021 . S
Co126 O138 2.137 . S
Co126 O139 2.244 . S
O127 Co126 2.216 . S
O127 C134 1.247 . S
O128 Co126 2.091 . S
O128 C134 1.261 . S
C129 O138 1.247 . S
C129 O139 1.272 . S
O130 Co126 2.004 . S
O130 C135 1.259 . S
Co131 O132 2.061 . S
Co131 O137 2.052 . S
Co131 O139 2.135 . S
O132 Co131 2.061 . S
O132 C135 1.235 . S
C133 O136 1.238 . S
C133 O137 1.241 . S
C134 O127 1.247 . S
C134 O128 1.261 . S
C135 O130 1.259 . S
C135 O132 1.235 . S
O136 Co126 2.021 . S
O136 C133 1.238 . S
O137 Co131 2.052 . S
O137 C133 1.241 . S
O138 Co126 2.137 . S
O138 C129 1.247 . S
O139 Co126 2.244 . S
O139 C129 1.272 . S
O139 Co131 2.135 . S
Co140 O141 2.216 . S
Co140 O142 2.091 . S
Co140 O144 2.004 . S
Co140 O150 2.021 . S
Co140 O152 2.137 . S
Co140 O153 2.244 . S
O141 Co140 2.216 . S
O141 C148 1.247 . S
O142 Co140 2.091 . S
O142 C148 1.261 . S
C143 O152 1.247 . S
C143 O153 1.272 . S
O144 Co140 2.004 . S
O144 C149 1.259 . S
Co145 O146 2.061 . S
Co145 O151 2.052 . S
Co145 O153 2.135 . S
O146 Co145 2.061 . S
O146 C149 1.235 . S
C147 O150 1.238 . S
C147 O151 1.241 . S
C148 O141 1.247 . S
C148 O142 1.261 . S
C149 O144 1.259 . S
C149 O146 1.235 . S
O150 Co140 2.021 . S
O150 C147 1.238 . S
O151 Co145 2.052 . S
O151 C147 1.241 . S
O152 Co140 2.137 . S
O152 C143 1.247 . S
O153 Co140 2.244 . S
O153 C143 1.272 . S
O153 Co145 2.135 . S
Co154 O155 2.216 . S
Co154 O156 2.091 . S
Co154 O158 2.004 . S
Co154 O164 2.021 . S
Co154 O166 2.137 . S
Co154 O167 2.244 . S
O155 Co154 2.216 . S
O155 C162 1.247 . S
O156 Co154 2.091 . S
O156 C162 1.261 . S
C157 O166 1.247 . S
C157 O167 1.272 . S
O158 Co154 2.004 . S
O158 C163 1.259 . S
Co159 O160 2.061 . S
Co159 O165 2.052 . S
Co159 O167 2.135 . S
O160 Co159 2.061 . S
O160 C163 1.235 . S
C161 O164 1.238 . S
C161 O165 1.241 . S
C162 O155 1.247 . S
C162 O156 1.261 . S
C163 O158 1.259 . S
C163 O160 1.235 . S
O164 Co154 2.021 . S
O164 C161 1.238 . S
O165 Co159 2.052 . S
O165 C161 1.241 . S
O166 Co154 2.137 . S
O166 C157 1.247 . S
O167 Co154 2.244 . S
O167 C157 1.272 . S
O167 Co159 2.135 . S
Co168 O169 2.216 . S
Co168 O170 2.091 . S
Co168 O172 2.004 . S
Co168 O178 2.021 . S
Co168 O180 2.137 . S
Co168 O181 2.244 . S
O169 Co168 2.216 . S
O169 C176 1.247 . S
O170 Co168 2.091 . S
O170 C176 1.261 . S
C171 O180 1.247 . S
C171 O181 1.272 . S
O172 Co168 2.004 . S
O172 C177 1.259 . S
Co173 O174 2.061 . S
Co173 O179 2.052 . S
Co173 O181 2.135 . S
O174 Co173 2.061 . S
O174 C177 1.235 . S
C175 O178 1.238 . S
C175 O179 1.241 . S
C176 O169 1.247 . S
C176 O170 1.261 . S
C177 O172 1.259 . S
C177 O174 1.235 . S
O178 Co168 2.021 . S
O178 C175 1.238 . S
O179 Co173 2.052 . S
O179 C175 1.241 . S
O180 Co168 2.137 . S
O180 C171 1.247 . S
O181 Co168 2.244 . S
O181 C171 1.272 . S
O181 Co173 2.135 . S
Co182 O183 2.216 . S
Co182 O184 2.091 . S
Co182 O186 2.004 . S
Co182 O192 2.021 . S
Co182 O194 2.137 . S
Co182 O195 2.244 . S
O183 Co182 2.216 . S
O183 C190 1.247 . S
O184 Co182 2.091 . S
O184 C190 1.261 . S
C185 O194 1.247 . S
C185 O195 1.272 . S
O186 Co182 2.004 . S
O186 C191 1.259 . S
Co187 O188 2.061 . S
Co187 O193 2.052 . S
Co187 O195 2.135 . S
O188 Co187 2.061 . S
O188 C191 1.235 . S
C189 O192 1.238 . S
C189 O193 1.241 . S
C190 O183 1.247 . S
C190 O184 1.261 . S
C191 O186 1.259 . S
C191 O188 1.235 . S
O192 Co182 2.021 . S
O192 C189 1.238 . S
O193 Co187 2.052 . S
O193 C189 1.241 . S
O194 Co182 2.137 . S
O194 C185 1.247 . S
O195 Co182 2.244 . S
O195 C185 1.272 . S
O195 Co187 2.135 . S
Co196 O197 2.216 . S
Co196 O198 2.091 . S
Co196 O200 2.004 . S
Co196 O206 2.021 . S
Co196 O208 2.137 . S
Co196 O209 2.244 . S
O197 Co196 2.216 . S
O197 C204 1.247 . S
O198 Co196 2.091 . S
O198 C204 1.261 . S
C199 O208 1.247 . S
C199 O209 1.272 . S
O200 Co196 2.004 . S
O200 C205 1.259 . S
Co201 O202 2.061 . S
Co201 O207 2.052 . S
Co201 O209 2.135 . S
O202 Co201 2.061 . S
O202 C205 1.235 . S
C203 O206 1.238 . S
C203 O207 1.241 . S
C204 O197 1.247 . S
C204 O198 1.261 . S
C205 O200 1.259 . S
C205 O202 1.235 . S
O206 Co196 2.021 . S
O206 C203 1.238 . S
O207 Co201 2.052 . S
O207 C203 1.241 . S
O208 Co196 2.137 . S
O208 C199 1.247 . S
O209 Co196 2.244 . S
O209 C199 1.272 . S
O209 Co201 2.135 . S
Co210 O211 2.216 . S
Co210 O212 2.091 . S
Co210 O214 2.004 . S
Co210 O220 2.021 . S
Co210 O222 2.137 . S
Co210 O223 2.244 . S
O211 Co210 2.216 . S
O211 C218 1.247 . S
O212 Co210 2.091 . S
O212 C218 1.261 . S
C213 O222 1.247 . S
C213 O223 1.272 . S
O214 Co210 2.004 . S
O214 C219 1.259 . S
Co215 O216 2.061 . S
Co215 O221 2.052 . S
Co215 O223 2.135 . S
O216 Co215 2.061 . S
O216 C219 1.235 . S
C217 O220 1.238 . S
C217 O221 1.241 . S
C218 O211 1.247 . S
C218 O212 1.261 . S
C219 O214 1.259 . S
C219 O216 1.235 . S
O220 Co210 2.021 . S
O220 C217 1.238 . S
O221 Co215 2.052 . S
O221 C217 1.241 . S
O222 Co210 2.137 . S
O222 C213 1.247 . S
O223 Co210 2.244 . S
O223 C213 1.272 . S
O223 Co215 2.135 . S
H224 C230 0.930 . S
H225 C234 0.930 . S
H226 C239 0.929 1_556 S
H227 C237 0.929 . S
H228 C232 0.929 . S
H229 C238 0.929 . S
C230 H224 0.930 . S
C230 C231 1.367 . S
C230 C238 1.378 . S
C231 C230 1.367 . S
C231 C239 1.433 . S
C232 H228 0.929 . S
C232 C234 1.378 . S
C232 C236 1.350 . S
C233 C236 1.479 . S
C233 C238 1.325 1_556 S
C233 N241 1.439 . S
C234 H225 0.930 . S
C234 C232 1.378 . S
C234 C235 1.367 . S
C235 C234 1.367 . S
C235 C237 1.433 . S
C236 C232 1.350 . S
C236 C233 1.479 . S
C236 N240 1.427 . S
C237 H227 0.929 . S
C237 C235 1.433 . S
C237 N240 1.384 . S
C238 H229 0.929 . S
C238 C230 1.378 . S
C238 C233 1.325 1_554 S
C239 H226 0.929 1_554 S
C239 C231 1.433 . S
C239 N241 1.384 1_554 S
N240 C236 1.427 . S
N240 C237 1.384 . S
N241 C233 1.439 . S
N241 C239 1.384 1_556 S
H242 C248 0.930 . S
H243 C252 0.930 . S
H244 C257 0.929 . S
H245 C255 0.929 . S
H246 C250 0.929 . S
H247 C256 0.929 . S
C248 H242 0.930 . S
C248 C249 1.367 . S
C248 C256 1.378 . S
C249 C248 1.367 . S
C249 C257 1.433 . S
C250 H246 0.929 . S
C250 C252 1.378 . S
C250 C254 1.350 . S
C251 C254 1.463 . S
C251 C256 1.350 . S
C251 N259 1.427 . S
C252 H243 0.930 . S
C252 C250 1.378 . S
C252 C253 1.367 . S
C253 C252 1.367 . S
C253 C255 1.433 . S
C254 C250 1.350 . S
C254 C251 1.463 . S
C254 N258 1.427 . S
C255 H245 0.929 . S
C255 C253 1.433 . S
C255 N258 1.384 . S
C256 H247 0.929 . S
C256 C248 1.378 . S
C256 C251 1.350 . S
C257 H244 0.929 . S
C257 C249 1.433 . S
C257 N259 1.384 . S
N258 C254 1.427 . S
N258 C255 1.384 . S
N259 C251 1.427 . S
N259 C257 1.384 . S
H260 C266 0.930 . S
H261 C270 0.930 . S
H262 C275 0.929 . S
H263 C273 0.929 . S
H264 C268 0.929 1_556 S
H265 C274 0.929 . S
C266 H260 0.930 . S
C266 C267 1.367 1_554 S
C266 C274 1.378 . S
C267 C266 1.367 1_556 S
C267 C275 1.433 . S
C268 H264 0.929 1_554 S
C268 C270 1.378 . S
C268 C272 1.350 . S
C269 C272 1.463 . S
C269 C274 1.350 . S
C269 N277 1.427 1_554 S
C270 H261 0.930 . S
C270 C268 1.378 . S
C270 C271 1.367 . S
C271 C270 1.367 . S
C271 C273 1.433 . S
C272 C268 1.350 . S
C272 C269 1.463 . S
C272 N276 1.427 . S
C273 H263 0.929 . S
C273 C271 1.433 . S
C273 N276 1.384 . S
C274 H265 0.929 . S
C274 C266 1.378 . S
C274 C269 1.350 . S
C275 H262 0.929 . S
C275 C267 1.433 . S
C275 N277 1.384 . S
N276 C272 1.427 . S
N276 C273 1.384 . S
N277 C269 1.427 1_556 S
N277 C275 1.384 . S
H278 C284 0.930 . S
H279 C288 0.930 . S
H280 C293 0.929 . S
H281 C291 0.929 . S
H282 C286 0.929 . S
H283 C292 0.929 . S
C284 H278 0.930 . S
C284 C285 1.367 . S
C284 C292 1.378 . S
C285 C284 1.367 . S
C285 C293 1.433 . S
C286 H282 0.929 . S
C286 C288 1.378 . S
C286 C290 1.350 . S
C287 C290 1.463 . S
C287 C292 1.350 . S
C287 N295 1.427 . S
C288 H279 0.930 . S
C288 C286 1.378 . S
C288 C289 1.367 . S
C289 C288 1.367 . S
C289 C291 1.433 . S
C290 C286 1.350 . S
C290 C287 1.463 . S
C290 N294 1.427 . S
C291 H281 0.929 . S
C291 C289 1.433 . S
C291 N294 1.384 . S
C292 H283 0.929 . S
C292 C284 1.378 . S
C292 C287 1.350 . S
C293 H280 0.929 . S
C293 C285 1.433 . S
C293 N295 1.384 . S
N294 C290 1.427 . S
N294 C291 1.384 . S
N295 C287 1.427 . S
N295 C293 1.384 . S
H296 C302 0.930 . S
H297 C306 0.930 . S
H298 C311 0.929 . S
H299 C309 0.929 . S
H300 C304 0.929 . S
H301 C310 0.929 . S
C302 H296 0.930 . S
C302 C303 1.367 . S
C302 C310 1.378 . S
C303 C302 1.367 . S
C303 C311 1.433 . S
C304 H300 0.929 . S
C304 C306 1.378 . S
C304 C308 1.350 . S
C305 C308 1.463 . S
C305 C310 1.350 1_556 S
C305 N313 1.427 . S
C306 H297 0.930 . S
C306 C304 1.378 . S
C306 C307 1.367 . S
C307 C306 1.367 . S
C307 C309 1.433 . S
C308 C304 1.350 . S
C308 C305 1.463 . S
C308 N312 1.427 . S
C309 H299 0.929 . S
C309 C307 1.433 . S
C309 N312 1.384 . S
C310 H301 0.929 . S
C310 C302 1.378 . S
C310 C305 1.350 1_554 S
C311 H298 0.929 . S
C311 C303 1.433 . S
C311 N313 1.384 1_554 S
N312 C308 1.427 . S
N312 C309 1.384 . S
N313 C305 1.427 . S
N313 C311 1.384 1_556 S
H314 C320 0.930 . S
H315 C324 0.930 . S
H316 C329 0.929 . S
H317 C327 0.929 . S
H318 C322 0.929 . S
H319 C328 0.929 . S
C320 H314 0.930 . S
C320 C321 1.367 . S
C320 C328 1.378 . S
C321 C320 1.367 . S
C321 C329 1.433 . S
C322 H318 0.929 . S
C322 C324 1.378 . S
C322 C326 1.350 . S
C323 C326 1.463 . S
C323 C328 1.350 . S
C323 N331 1.427 . S
C324 H315 0.930 . S
C324 C322 1.378 . S
C324 C325 1.367 . S
C325 C324 1.367 . S
C325 C327 1.433 . S
C326 C322 1.350 . S
C326 C323 1.463 . S
C326 N330 1.427 . S
C327 H317 0.929 . S
C327 C325 1.433 . S
C327 N330 1.384 . S
C328 H319 0.929 . S
C328 C320 1.378 . S
C328 C323 1.350 . S
C329 H316 0.929 . S
C329 C321 1.433 . S
C329 N331 1.384 . S
N330 C326 1.427 . S
N330 C327 1.384 . S
N331 C323 1.427 . S
N331 C329 1.384 . S
H332 C338 0.942 . S
H333 C342 0.930 . S
H334 C347 0.929 . S
H335 C345 0.929 . S
H336 C340 0.929 1_556 S
H337 C346 0.929 . S
C338 H332 0.942 . S
C338 C339 1.343 1_554 S
C338 C346 1.391 . S
C339 C338 1.343 1_556 S
C339 C347 1.433 . S
C340 H336 0.929 1_554 S
C340 C342 1.378 . S
C340 C344 1.350 . S
C341 C344 1.463 . S
C341 C346 1.350 . S
C341 N349 1.427 1_554 S
C342 H333 0.930 . S
C342 C340 1.378 . S
C342 C343 1.367 . S
C343 C342 1.367 . S
C343 C345 1.433 . S
C344 C340 1.350 . S
C344 C341 1.463 . S
C344 N348 1.427 . S
C345 H335 0.929 . S
C345 C343 1.433 . S
C345 N348 1.384 . S
C346 H337 0.929 . S
C346 C338 1.391 . S
C346 C341 1.350 . S
C347 H334 0.929 . S
C347 C339 1.433 . S
C347 N349 1.384 . S
N348 C344 1.427 . S
N348 C345 1.384 . S
N349 C341 1.427 1_556 S
N349 C347 1.384 . S
H350 C356 0.930 . S
H351 C360 0.930 . S
H352 C365 0.929 . S
H353 C363 0.929 . S
H354 C358 0.929 . S
H355 C364 0.929 . S
C356 H350 0.930 . S
C356 C357 1.367 . S
C356 C364 1.378 . S
C357 C356 1.367 . S
C357 C365 1.433 . S
C358 H354 0.929 . S
C358 C360 1.378 . S
C358 C362 1.350 . S
C359 C362 1.463 . S
C359 C364 1.350 . S
C359 N367 1.427 . S
C360 H351 0.930 . S
C360 C358 1.378 . S
C360 C361 1.367 . S
C361 C360 1.367 . S
C361 C363 1.433 . S
C362 C358 1.350 . S
C362 C359 1.463 . S
C362 N366 1.427 . S
C363 H353 0.929 . S
C363 C361 1.433 . S
C363 N366 1.384 . S
C364 H355 0.929 . S
C364 C356 1.378 . S
C364 C359 1.350 . S
C365 H352 0.929 . S
C365 C357 1.433 . S
C365 N367 1.384 . S
N366 C362 1.427 . S
N366 C363 1.384 . S
N367 C359 1.427 . S
N367 C365 1.384 . S
H368 C374 0.930 1_556 S
H369 C378 0.930 1_554 S
H370 C383 0.929 . S
H371 C381 0.929 . S
H372 C376 0.929 . S
H373 C382 0.929 . S
C374 H368 0.930 1_554 S
C374 C375 1.367 . S
C374 C382 1.378 1_554 S
C375 C374 1.367 . S
C375 C383 1.433 . S
C376 H372 0.929 . S
C376 C378 1.378 1_554 S
C376 C380 1.350 1_554 S
C377 C380 1.463 1_544 S
C377 C382 1.350 1_554 S
C377 N385 1.427 . S
C378 H369 0.930 1_556 S
C378 C376 1.378 1_556 S
C378 C379 1.367 . S
C379 C378 1.367 . S
C379 C381 1.433 . S
C380 C376 1.350 1_556 S
C380 C377 1.463 1_566 S
C380 N384 1.427 . S
C381 H371 0.929 . S
C381 C379 1.433 . S
C381 N384 1.384 . S
C382 H373 0.929 . S
C382 C374 1.378 1_556 S
C382 C377 1.350 1_556 S
C383 H370 0.929 . S
C383 C375 1.433 . S
C383 N385 1.384 . S
N384 C380 1.427 . S
N384 C381 1.384 . S
N385 C377 1.427 . S
N385 C383 1.384 . S
H386 C392 0.930 . S
H387 C396 0.930 . S
H388 C401 0.929 . S
H389 C399 0.929 . S
H390 C394 0.929 . S
H391 C400 0.929 . S
C392 H386 0.930 . S
C392 C393 1.367 . S
C392 C400 1.378 . S
C393 C392 1.367 . S
C393 C401 1.433 . S
C394 H390 0.929 . S
C394 C396 1.378 . S
C394 C398 1.350 . S
C395 C398 1.463 1_565 S
C395 C400 1.350 . S
C395 N403 1.427 . S
C396 H387 0.930 . S
C396 C394 1.378 . S
C396 C397 1.367 . S
C397 C396 1.367 . S
C397 C399 1.433 . S
C398 C394 1.350 . S
C398 C395 1.463 1_545 S
C398 N402 1.427 . S
C399 H389 0.929 . S
C399 C397 1.433 . S
C399 N402 1.384 . S
C400 H391 0.929 . S
C400 C392 1.378 . S
C400 C395 1.350 . S
C401 H388 0.929 . S
C401 C393 1.433 . S
C401 N403 1.384 . S
N402 C398 1.427 . S
N402 C399 1.384 . S
N403 C395 1.427 . S
N403 C401 1.384 . S
H404 C410 0.930 . S
H405 C414 0.930 . S
H406 C419 0.929 . S
H407 C417 0.929 . S
H408 C412 0.929 1_556 S
H409 C418 0.929 1_554 S
C410 H404 0.930 . S
C410 C411 1.367 . S
C410 C418 1.378 . S
C411 C410 1.367 . S
C411 C419 1.433 . S
C412 H408 0.929 1_554 S
C412 C414 1.378 . S
C412 C416 1.350 . S
C413 C416 1.463 1_566 S
C413 C418 1.350 . S
C413 N421 1.427 . S
C414 H405 0.930 . S
C414 C412 1.378 . S
C414 C415 1.367 . S
C415 C414 1.367 . S
C415 C417 1.433 . S
C416 C412 1.350 . S
C416 C413 1.463 1_544 S
C416 N420 1.427 . S
C417 H407 0.929 . S
C417 C415 1.433 . S
C417 N420 1.384 . S
C418 H409 0.929 1_556 S
C418 C410 1.378 . S
C418 C413 1.350 . S
C419 H406 0.929 . S
C419 C411 1.433 . S
C419 N421 1.384 . S
N420 C416 1.427 . S
N420 C417 1.384 . S
N421 C413 1.427 . S
N421 C419 1.384 . S
H422 C428 0.930 . S
H423 C432 0.930 . S
H424 C437 0.929 . S
H425 C435 0.929 . S
H426 C430 0.929 . S
H427 C436 0.929 . S
C428 H422 0.930 . S
C428 C429 1.367 . S
C428 C436 1.378 . S
C429 C428 1.367 . S
C429 C437 1.433 . S
C430 H426 0.929 . S
C430 C432 1.378 . S
C430 C434 1.350 . S
C431 C434 1.463 1_545 S
C431 C436 1.350 . S
C431 N439 1.427 . S
C432 H423 0.930 . S
C432 C430 1.378 . S
C432 C433 1.367 . S
C433 C432 1.367 . S
C433 C435 1.433 . S
C434 C430 1.350 . S
C434 C431 1.463 1_565 S
C434 N438 1.427 . S
C435 H425 0.929 . S
C435 C433 1.433 . S
C435 N438 1.384 . S
C436 H427 0.929 . S
C436 C428 1.378 . S
C436 C431 1.350 . S
C437 H424 0.929 . S
C437 C429 1.433 . S
C437 N439 1.384 . S
N438 C434 1.427 . S
N438 C435 1.384 . S
N439 C431 1.427 . S
N439 C437 1.384 . S
H440 C446 0.930 1_554 S
H441 C450 0.930 1_556 S
H442 C455 0.929 . S
H443 C453 0.929 . S
H444 C448 0.929 . S
H445 C454 0.929 . S
C446 H440 0.930 1_556 S
C446 C447 1.367 . S
C446 C454 1.378 1_556 S
C447 C446 1.367 . S
C447 C455 1.433 . S
C448 H444 0.929 . S
C448 C450 1.378 1_556 S
C448 C452 1.350 1_556 S
C449 C452 1.463 1_556 S
C449 C454 1.350 1_556 S
C449 N457 1.427 . S
C450 H441 0.930 1_554 S
C450 C448 1.378 1_554 S
C450 C451 1.367 . S
C451 C450 1.367 . S
C451 C453 1.433 . S
C452 C448 1.350 1_554 S
C452 C449 1.463 1_554 S
C452 N456 1.427 . S
C453 H443 0.929 . S
C453 C451 1.433 . S
C453 N456 1.384 . S
C454 H445 0.929 . S
C454 C446 1.378 1_554 S
C454 C449 1.350 1_554 S
C455 H442 0.929 . S
C455 C447 1.433 . S
C455 N457 1.384 . S
N456 C452 1.427 . S
N456 C453 1.384 . S
N457 C449 1.427 . S
N457 C455 1.384 . S
H458 C464 0.930 . S
H459 C468 0.930 . S
H460 C473 0.929 . S
H461 C471 0.929 . S
H462 C466 0.929 . S
H463 C472 0.929 . S
C464 H458 0.930 . S
C464 C465 1.367 . S
C464 C472 1.378 . S
C465 C464 1.367 . S
C465 C473 1.433 . S
C466 H462 0.929 . S
C466 C468 1.378 . S
C466 C470 1.350 . S
C467 C470 1.463 . S
C467 C472 1.350 . S
C467 N475 1.427 . S
C468 H459 0.930 . S
C468 C466 1.378 . S
C468 C469 1.367 . S
C469 C468 1.367 . S
C469 C471 1.433 . S
C470 C466 1.350 . S
C470 C467 1.463 . S
C470 N474 1.427 . S
C471 H461 0.929 . S
C471 C469 1.433 . S
C471 N474 1.384 . S
C472 H463 0.929 . S
C472 C464 1.378 . S
C472 C467 1.350 . S
C473 H460 0.929 . S
C473 C465 1.433 . S
C473 N475 1.384 . S
N474 C470 1.427 . S
N474 C471 1.384 . S
N475 C467 1.427 . S
N475 C473 1.384 . S
H476 C482 0.930 . S
H477 C486 0.930 . S
H478 C491 0.929 . S
H479 C489 0.929 . S
H480 C484 0.929 . S
H481 C490 0.929 . S
C482 H476 0.930 . S
C482 C483 1.367 . S
C482 C490 1.378 . S
C483 C482 1.367 . S
C483 C491 1.433 . S
C484 H480 0.929 . S
C484 C486 1.378 . S
C484 C488 1.350 . S
C485 C488 1.463 1_554 S
C485 C490 1.350 . S
C485 N493 1.427 1_554 S
C486 H477 0.930 . S
C486 C484 1.378 . S
C486 C487 1.367 . S
C487 C486 1.367 . S
C487 C489 1.433 . S
C488 C484 1.350 . S
C488 C485 1.463 1_556 S
C488 N492 1.427 1_556 S
C489 H479 0.929 . S
C489 C487 1.433 . S
C489 N492 1.384 1_556 S
C490 H481 0.929 . S
C490 C482 1.378 . S
C490 C485 1.350 . S
C491 H478 0.929 . S
C491 C483 1.433 . S
C491 N493 1.384 1_554 S
N492 C488 1.427 1_554 S
N492 C489 1.384 1_554 S
N493 C485 1.427 1_556 S
N493 C491 1.384 1_556 S
H494 C500 0.930 . S
H495 C504 0.930 . S
H496 C509 0.929 . S
H497 C507 0.929 . S
H498 C502 0.929 . S
H499 C508 0.929 . S
C500 H494 0.930 . S
C500 C501 1.367 . S
C500 C508 1.378 . S
C501 C500 1.367 . S
C501 C509 1.433 . S
C502 H498 0.929 . S
C502 C504 1.378 . S
C502 C506 1.350 . S
C503 C506 1.463 . S
C503 C508 1.350 . S
C503 N511 1.427 . S
C504 H495 0.930 . S
C504 C502 1.378 . S
C504 C505 1.367 . S
C505 C504 1.367 . S
C505 C507 1.433 . S
C506 C502 1.350 . S
C506 C503 1.463 . S
C506 N510 1.427 . S
C507 H497 0.929 . S
C507 C505 1.433 . S
C507 N510 1.384 . S
C508 H499 0.929 . S
C508 C500 1.378 . S
C508 C503 1.350 . S
C509 H496 0.929 . S
C509 C501 1.433 . S
C509 N511 1.384 . S
N510 C506 1.427 . S
N510 C507 1.384 . S
N511 C503 1.427 . S
N511 C509 1.384 . S
H512 C518 0.930 . S
H513 C522 0.930 . S
H514 C527 0.929 . S
H515 C525 0.929 . S
H516 C520 0.929 . S
H517 C526 0.929 . S
C518 H512 0.930 . S
C518 C519 1.367 . S
C518 C526 1.378 . S
C519 C518 1.367 . S
C519 C527 1.433 . S
C520 H516 0.929 . S
C520 C522 1.378 . S
C520 C524 1.350 . S
C521 C524 1.463 . S
C521 C526 1.350 . S
C521 N529 1.427 . S
C522 H513 0.930 . S
C522 C520 1.378 . S
C522 C523 1.367 . S
C523 C522 1.367 . S
C523 C525 1.433 . S
C524 C520 1.350 . S
C524 C521 1.463 . S
C524 N528 1.427 . S
C525 H515 0.929 . S
C525 C523 1.433 . S
C525 N528 1.384 . S
C526 H517 0.929 . S
C526 C518 1.378 . S
C526 C521 1.350 . S
C527 H514 0.929 . S
C527 C519 1.433 . S
C527 N529 1.384 . S
N528 C524 1.427 . S
N528 C525 1.384 . S
N529 C521 1.427 . S
N529 C527 1.384 . S
H530 C536 0.930 . S
H531 C540 0.930 . S
H532 C545 0.929 . S
H533 C543 0.929 . S
H534 C538 0.929 . S
H535 C544 0.929 1_455 S
C536 H530 0.930 . S
C536 C537 1.367 . S
C536 C544 1.378 . S
C537 C536 1.367 . S
C537 C545 1.433 . S
C538 H534 0.929 . S
C538 C540 1.378 . S
C538 C542 1.350 . S
C539 C542 1.463 . S
C539 C544 1.350 1_455 S
C539 N547 1.427 1_455 S
C540 H531 0.930 . S
C540 C538 1.378 . S
C540 C541 1.367 . S
C541 C540 1.367 . S
C541 C543 1.433 . S
C542 C538 1.350 . S
C542 C539 1.463 . S
C542 N546 1.427 . S
C543 H533 0.929 . S
C543 C541 1.433 . S
C543 N546 1.384 . S
C544 H535 0.929 1_655 S
C544 C536 1.378 . S
C544 C539 1.350 1_655 S
C545 H532 0.929 . S
C545 C537 1.433 . S
C545 N547 1.384 . S
N546 C542 1.427 . S
N546 C543 1.384 . S
N547 C539 1.427 1_655 S
N547 C545 1.384 . S
H548 C554 0.930 . S
H549 C558 0.930 . S
H550 C563 0.929 . S
H551 C561 0.929 . S
H552 C556 0.929 . S
H553 C562 0.929 . S
C554 H548 0.930 . S
C554 C555 1.367 . S
C554 C562 1.378 . S
C555 C554 1.367 . S
C555 C563 1.433 . S
C556 H552 0.929 . S
C556 C558 1.378 . S
C556 C560 1.350 . S
C557 C560 1.463 . S
C557 C562 1.350 . S
C557 N565 1.427 . S
C558 H549 0.930 . S
C558 C556 1.378 . S
C558 C559 1.367 . S
C559 C558 1.367 . S
C559 C561 1.433 . S
C560 C556 1.350 . S
C560 C557 1.463 . S
C560 N564 1.427 . S
C561 H551 0.929 . S
C561 C559 1.433 . S
C561 N564 1.384 . S
C562 H553 0.929 . S
C562 C554 1.378 . S
C562 C557 1.350 . S
C563 H550 0.929 . S
C563 C555 1.433 . S
C563 N565 1.384 . S
N564 C560 1.427 . S
N564 C561 1.384 . S
N565 C557 1.427 . S
N565 C563 1.384 . S
H566 C572 0.930 . S
H567 C576 0.930 . S
H568 C581 0.929 . S
H569 C579 0.929 . S
H570 C574 0.929 1_455 S
H571 C580 0.929 . S
C572 H566 0.930 . S
C572 C573 1.367 . S
C572 C580 1.378 . S
C573 C572 1.367 . S
C573 C581 1.433 . S
C574 H570 0.929 1_655 S
C574 C576 1.378 . S
C574 C578 1.350 1_655 S
C575 C578 1.463 . S
C575 C580 1.350 . S
C575 N583 1.427 . S
C576 H567 0.930 . S
C576 C574 1.378 . S
C576 C577 1.367 . S
C577 C576 1.367 . S
C577 C579 1.433 . S
C578 C574 1.350 1_455 S
C578 C575 1.463 . S
C578 N582 1.427 1_455 S
C579 H569 0.929 . S
C579 C577 1.433 . S
C579 N582 1.384 . S
C580 H571 0.929 . S
C580 C572 1.378 . S
C580 C575 1.350 . S
C581 H568 0.929 . S
C581 C573 1.433 . S
C581 N583 1.384 . S
N582 C578 1.427 1_655 S
N582 C579 1.384 . S
N583 C575 1.427 . S
N583 C581 1.384 . S
H584 C590 0.930 . S
H585 C594 0.930 . S
H586 C599 0.929 . S
H587 C597 0.929 . S
H588 C592 0.929 . S
H589 C598 0.929 1_655 S
C590 H584 0.930 . S
C590 C591 1.367 . S
C590 C598 1.378 . S
C591 C590 1.367 . S
C591 C599 1.433 . S
C592 H588 0.929 . S
C592 C594 1.378 . S
C592 C596 1.350 . S
C593 C596 1.463 . S
C593 C598 1.350 1_655 S
C593 N601 1.427 1_655 S
C594 H585 0.930 . S
C594 C592 1.378 . S
C594 C595 1.367 . S
C595 C594 1.367 . S
C595 C597 1.433 . S
C596 C592 1.350 . S
C596 C593 1.463 . S
C596 N600 1.427 . S
C597 H587 0.929 . S
C597 C595 1.433 . S
C597 N600 1.384 . S
C598 H589 0.929 1_455 S
C598 C590 1.378 . S
C598 C593 1.350 1_455 S
C599 H586 0.929 . S
C599 C591 1.433 . S
C599 N601 1.384 . S
N600 C596 1.427 . S
N600 C597 1.384 . S
N601 C593 1.427 1_455 S
N601 C599 1.384 . S
H602 C608 0.930 . S
H603 C612 0.930 . S
H604 C617 0.929 . S
H605 C615 0.929 . S
H606 C610 0.929 . S
H607 C616 0.929 . S
C608 H602 0.930 . S
C608 C609 1.367 . S
C608 C616 1.378 . S
C609 C608 1.367 . S
C609 C617 1.433 . S
C610 H606 0.929 . S
C610 C612 1.378 . S
C610 C614 1.350 . S
C611 C614 1.463 . S
C611 C616 1.350 . S
C611 N619 1.427 . S
C612 H603 0.930 . S
C612 C610 1.378 . S
C612 C613 1.367 . S
C613 C612 1.367 . S
C613 C615 1.433 . S
C614 C610 1.350 . S
C614 C611 1.463 . S
C614 N618 1.427 . S
C615 H605 0.929 . S
C615 C613 1.433 . S
C615 N618 1.384 . S
C616 H607 0.929 . S
C616 C608 1.378 . S
C616 C611 1.350 . S
C617 H604 0.929 . S
C617 C609 1.433 . S
C617 N619 1.384 . S
N618 C614 1.427 . S
N618 C615 1.384 . S
N619 C611 1.427 . S
N619 C617 1.384 . S
H620 C626 0.930 . S
H621 C630 0.930 . S
H622 C635 0.929 . S
H623 C633 0.929 . S
H624 C628 0.929 . S
H625 C634 0.929 1_655 S
C626 H620 0.930 . S
C626 C627 1.367 . S
C626 C634 1.378 . S
C627 C626 1.367 . S
C627 C635 1.433 . S
C628 H624 0.929 . S
C628 C630 1.378 . S
C628 C632 1.350 . S
C629 C632 1.463 . S
C629 C634 1.350 1_655 S
C629 N637 1.427 1_655 S
C630 H621 0.930 . S
C630 C628 1.378 . S
C630 C631 1.367 . S
C631 C630 1.367 . S
C631 C633 1.433 . S
C632 C628 1.350 . S
C632 C629 1.463 . S
C632 N636 1.427 . S
C633 H623 0.929 . S
C633 C631 1.433 . S
C633 N636 1.384 . S
C634 H625 0.929 1_455 S
C634 C626 1.378 . S
C634 C629 1.350 1_455 S
C635 H622 0.929 . S
C635 C627 1.433 . S
C635 N637 1.384 . S
N636 C632 1.427 . S
N636 C633 1.384 . S
N637 C629 1.427 1_455 S
N637 C635 1.384 . S
H638 C644 0.930 . S
H639 C648 0.930 . S
H640 C653 0.929 . S
H641 C651 0.929 . S
H642 C646 0.929 . S
H643 C652 0.929 . S
C644 H638 0.930 . S
C644 C645 1.367 . S
C644 C652 1.378 . S
C645 C644 1.367 . S
C645 C653 1.433 . S
C646 H642 0.929 . S
C646 C648 1.378 . S
C646 C650 1.350 . S
C647 C650 1.463 . S
C647 C652 1.350 . S
C647 N655 1.427 . S
C648 H639 0.930 . S
C648 C646 1.378 . S
C648 C649 1.367 . S
C649 C648 1.367 . S
C649 C651 1.433 . S
C650 C646 1.350 . S
C650 C647 1.463 . S
C650 N654 1.427 . S
C651 H641 0.929 . S
C651 C649 1.433 . S
C651 N654 1.384 . S
C652 H643 0.929 . S
C652 C644 1.378 . S
C652 C647 1.350 . S
C653 H640 0.929 . S
C653 C645 1.433 . S
C653 N655 1.384 . S
N654 C650 1.427 . S
N654 C651 1.384 . S
N655 C647 1.427 . S
N655 C653 1.384 . S
H656 C662 0.930 . S
H657 C666 0.930 . S
H658 C671 0.929 . S
H659 C669 0.929 . S
H660 C664 0.929 . S
H661 C670 0.929 . S
C662 H656 0.930 . S
C662 C663 1.367 . S
C662 C670 1.378 . S
C663 C662 1.367 . S
C663 C671 1.433 . S
C664 H660 0.929 . S
C664 C666 1.378 . S
C664 C668 1.350 . S
C665 C668 1.463 . S
C665 C670 1.350 . S
C665 N673 1.427 . S
C666 H657 0.930 . S
C666 C664 1.378 . S
C666 C667 1.367 . S
C667 C666 1.367 . S
C667 C669 1.433 . S
C668 C664 1.350 . S
C668 C665 1.463 . S
C668 N672 1.427 . S
C669 H659 0.929 . S
C669 C667 1.433 . S
C669 N672 1.384 . S
C670 H661 0.929 . S
C670 C662 1.378 . S
C670 C665 1.350 . S
C671 H658 0.929 . S
C671 C663 1.433 . S
C671 N673 1.384 . S
N672 C668 1.427 . S
N672 C669 1.384 . S
N673 C665 1.427 . S
N673 C671 1.384 . S
H674 C680 0.930 . S
H675 C684 0.930 . S
H676 C689 0.929 . S
H677 C687 0.929 . S
H678 C682 0.929 . S
H679 C688 0.929 . S
C680 H674 0.930 . S
C680 C681 1.367 . S
C680 C688 1.378 . S
C681 C680 1.367 . S
C681 C689 1.433 . S
C682 H678 0.929 . S
C682 C684 1.378 . S
C682 C686 1.350 . S
C683 C686 1.463 . S
C683 C688 1.350 . S
C683 N691 1.427 . S
C684 H675 0.930 . S
C684 C682 1.378 . S
C684 C685 1.367 . S
C685 C684 1.367 . S
C685 C687 1.433 . S
C686 C682 1.350 . S
C686 C683 1.463 . S
C686 N690 1.427 . S
C687 H677 0.929 . S
C687 C685 1.433 . S
C687 N690 1.384 . S
C688 H679 0.929 . S
C688 C680 1.378 . S
C688 C683 1.350 . S
C689 H676 0.929 . S
C689 C681 1.433 . S
C689 N691 1.384 . S
N690 C686 1.427 . S
N690 C687 1.384 . S
N691 C683 1.427 . S
N691 C689 1.384 . S
H692 C698 0.930 . S
H693 C702 0.930 . S
H694 C707 0.929 . S
H695 C705 0.929 . S
H696 C700 0.929 . S
H697 C706 0.929 . S
C698 H692 0.930 . S
C698 C699 1.367 . S
C698 C706 1.378 . S
C699 C698 1.367 . S
C699 C707 1.433 . S
C700 H696 0.929 . S
C700 C702 1.378 . S
C700 C704 1.350 . S
C701 C704 1.463 . S
C701 C706 1.350 . S
C701 N709 1.427 . S
C702 H693 0.930 . S
C702 C700 1.378 . S
C702 C703 1.367 . S
C703 C702 1.367 . S
C703 C705 1.433 . S
C704 C700 1.350 . S
C704 C701 1.463 . S
C704 N708 1.427 . S
C705 H695 0.929 . S
C705 C703 1.433 . S
C705 N708 1.384 . S
C706 H697 0.929 . S
C706 C698 1.378 . S
C706 C701 1.350 . S
C707 H694 0.929 . S
C707 C699 1.433 . S
C707 N709 1.384 . S
N708 C704 1.427 . S
N708 C705 1.384 . S
N709 C701 1.427 . S
N709 C707 1.384 . S
H710 C716 0.930 . S
H711 C720 0.930 . S
H712 C725 0.929 . S
H713 C723 0.929 . S
H714 C718 0.929 . S
H715 C724 0.929 . S
C716 H710 0.930 . S
C716 C717 1.367 . S
C716 C724 1.378 . S
C717 C716 1.367 . S
C717 C725 1.433 . S
C718 H714 0.929 . S
C718 C720 1.378 . S
C718 C722 1.350 . S
C719 C722 1.463 . S
C719 C724 1.350 . S
C719 N727 1.427 . S
C720 H711 0.930 . S
C720 C718 1.378 . S
C720 C721 1.367 . S
C721 C720 1.367 . S
C721 C723 1.433 . S
C722 C718 1.350 . S
C722 C719 1.463 . S
C722 N726 1.427 . S
C723 H713 0.929 . S
C723 C721 1.433 . S
C723 N726 1.384 . S
C724 H715 0.929 . S
C724 C716 1.378 . S
C724 C719 1.350 . S
C725 H712 0.929 . S
C725 C717 1.433 . S
C725 N727 1.384 . S
N726 C722 1.427 . S
N726 C723 1.384 . S
N727 C719 1.427 . S
N727 C725 1.384 . S
H728 C734 0.930 . S
H729 C738 0.930 . S
H730 C743 0.929 . S
H731 C741 0.929 . S
H732 C736 0.929 . S
H733 C742 0.929 . S
C734 H728 0.930 . S
C734 C735 1.367 . S
C734 C742 1.378 . S
C735 C734 1.367 . S
C735 C743 1.433 . S
C736 H732 0.929 . S
C736 C738 1.378 . S
C736 C740 1.350 . S
C737 C740 1.463 . S
C737 C742 1.350 . S
C737 N745 1.427 . S
C738 H729 0.930 . S
C738 C736 1.378 . S
C738 C739 1.367 . S
C739 C738 1.367 . S
C739 C741 1.433 . S
C740 C736 1.350 . S
C740 C737 1.463 . S
C740 N744 1.427 . S
C741 H731 0.929 . S
C741 C739 1.433 . S
C741 N744 1.384 . S
C742 H733 0.929 . S
C742 C734 1.378 . S
C742 C737 1.350 . S
C743 H730 0.929 . S
C743 C735 1.433 . S
C743 N745 1.384 . S
N744 C740 1.427 . S
N744 C741 1.384 . S
N745 C737 1.427 . S
N745 C743 1.384 . S
H746 C752 0.930 . S
H747 C756 0.930 . S
H748 C761 0.929 . S
H749 C759 0.929 . S
H750 C754 0.929 . S
H751 C760 0.929 . S
C752 H746 0.930 . S
C752 C753 1.367 . S
C752 C760 1.378 . S
C753 C752 1.367 . S
C753 C761 1.433 . S
C754 H750 0.929 . S
C754 C756 1.378 . S
C754 C758 1.350 . S
C755 C758 1.463 . S
C755 C760 1.350 . S
C755 N763 1.427 . S
C756 H747 0.930 . S
C756 C754 1.378 . S
C756 C757 1.367 . S
C757 C756 1.367 . S
C757 C759 1.433 . S
C758 C754 1.350 . S
C758 C755 1.463 . S
C758 N762 1.427 . S
C759 H749 0.929 . S
C759 C757 1.433 . S
C759 N762 1.384 . S
C760 H751 0.929 . S
C760 C752 1.378 . S
C760 C755 1.350 . S
C761 H748 0.929 . S
C761 C753 1.433 . S
C761 N763 1.384 . S
N762 C758 1.427 . S
N762 C759 1.384 . S
N763 C755 1.427 . S
N763 C761 1.384 . S
H764 C770 0.930 . S
H765 C774 0.930 . S
H766 C779 0.929 . S
H767 C777 0.929 . S
H768 C772 0.929 . S
H769 C778 0.929 . S
C770 H764 0.930 . S
C770 C771 1.367 . S
C770 C778 1.378 . S
C771 C770 1.367 . S
C771 C779 1.433 . S
C772 H768 0.929 . S
C772 C774 1.378 . S
C772 C776 1.350 . S
C773 C776 1.463 . S
C773 C778 1.350 . S
C773 N781 1.427 . S
C774 H765 0.930 . S
C774 C772 1.378 . S
C774 C775 1.367 . S
C775 C774 1.367 . S
C775 C777 1.433 . S
C776 C772 1.350 . S
C776 C773 1.463 . S
C776 N780 1.427 . S
C777 H767 0.929 . S
C777 C775 1.433 . S
C777 N780 1.384 . S
C778 H769 0.929 . S
C778 C770 1.378 . S
C778 C773 1.350 . S
C779 H766 0.929 . S
C779 C771 1.433 . S
C779 N781 1.384 . S
N780 C776 1.427 . S
N780 C777 1.384 . S
N781 C773 1.427 . S
N781 C779 1.384 . S
H782 C788 0.930 . S
H783 C792 0.930 . S
H784 C797 0.929 . S
H785 C795 0.929 . S
H786 C790 0.929 . S
H787 C796 0.929 . S
C788 H782 0.930 . S
C788 C789 1.367 . S
C788 C796 1.378 . S
C789 C788 1.367 . S
C789 C797 1.433 . S
C790 H786 0.929 . S
C790 C792 1.378 . S
C790 C794 1.350 . S
C791 C794 1.463 . S
C791 C796 1.350 . S
C791 N799 1.427 . S
C792 H783 0.930 . S
C792 C790 1.378 . S
C792 C793 1.367 . S
C793 C792 1.367 . S
C793 C795 1.433 . S
C794 C790 1.350 . S
C794 C791 1.463 . S
C794 N798 1.427 . S
C795 H785 0.929 . S
C795 C793 1.433 . S
C795 N798 1.384 . S
C796 H787 0.929 . S
C796 C788 1.378 . S
C796 C791 1.350 . S
C797 H784 0.929 . S
C797 C789 1.433 . S
C797 N799 1.384 . S
N798 C794 1.427 . S
N798 C795 1.384 . S
N799 C791 1.427 . S
N799 C797 1.384 . S
C231 C8 1.505 . S
C235 C175 1.479 . S
C249 C189 1.475 . S
C253 C22 1.505 . S
C267 C36 1.500 . S
C271 C203 1.468 . S
C285 C217 1.478 . S
C289 C50 1.505 . S
C303 C120 1.500 . S
C307 C63 1.478 . S
C321 C77 1.474 . S
C325 C134 1.498 . S
C339 C148 1.501 . S
C343 C91 1.468 . S
C357 C105 1.480 . S
C361 C162 1.502 . S
C375 C3 1.537 . S
C379 C31 1.539 . S
C393 C17 1.535 . S
C397 C45 1.533 . S
C411 C59 1.540 . S
C415 C87 1.539 . S
C429 C73 1.540 . S
C433 C101 1.539 . S
C447 C143 1.537 . S
C451 C115 1.539 . S
C465 C129 1.537 . S
C469 C157 1.539 . S
C483 C199 1.543 . S
C487 C171 1.543 . S
C501 C185 1.542 . S
C505 C213 1.543 . S
C519 C93 1.519 . S
C523 C9 1.535 . S
C537 C107 1.525 . S
C541 C23 1.532 . S
C555 C37 1.533 . S
C559 C65 1.521 . S
C573 C51 1.532 . S
C577 C79 1.525 . S
C591 C205 1.526 . S
C595 C121 1.531 . S
C609 C135 1.535 . S
C613 C219 1.519 . S
C627 C177 1.524 . S
C631 C149 1.533 . S
C645 C163 1.531 . S
C649 C191 1.526 . S
C663 C7 1.266 . S
C667 C49 1.280 . S
C681 C35 1.266 . S
C685 C21 1.280 . S
C699 C64 1.619 . S
C703 C106 1.619 . S
C717 C78 1.619 . S
C721 C92 1.619 . S
C735 C161 1.266 . S
C739 C119 1.277 . S
C753 C133 1.269 . S
C757 C147 1.282 . S
C771 C218 1.621 . S
C775 C176 1.621 . S
C789 C190 1.621 . S
C793 C204 1.620 . S
