# Generated by pormake.
# Topology smd, (6)-cn, num edge types: 1
# Building blocks:
#     Node 0, Type 0, BuildingBlock: MIFKUJ_clean_sbu_0, # of connection points: 6
#     Node 1, Type 0, BuildingBlock: MIFKUJ_clean_sbu_0, # of connection points: 6
#     Node 2, Type 0, BuildingBlock: MIFKUJ_clean_sbu_0, # of connection points: 6
#     Node 3, Type 0, BuildingBlock: MIFKUJ_clean_sbu_0, # of connection points: 6
#     Node 4, Type 0, BuildingBlock: MIFKUJ_clean_sbu_0, # of connection points: 6
#     Node 5, Type 0, BuildingBlock: MIFKUJ_clean_sbu_0, # of connection points: 6
#     Node 6, Type 0, BuildingBlock: MIFKUJ_clean_sbu_0, # of connection points: 6
#     Node 7, Type 0, BuildingBlock: MIFKUJ_clean_sbu_0, # of connection points: 6
#     Node 8, Type 0, BuildingBlock: MIFKUJ_clean_sbu_0, # of connection points: 6
#     Node 9, Type 0, BuildingBlock: MIFKUJ_clean_sbu_0, # of connection points: 6
#     Node 10, Type 0, BuildingBlock: MIFKUJ_clean_sbu_0, # of connection points: 6
#     Node 11, Type 0, BuildingBlock: MIFKUJ_clean_sbu_0, # of connection points: 6
#     Node 12, Type 0, BuildingBlock: MIFKUJ_clean_sbu_0, # of connection points: 6
#     Node 13, Type 0, BuildingBlock: MIFKUJ_clean_sbu_0, # of connection points: 6
#     Node 14, Type 0, BuildingBlock: MIFKUJ_clean_sbu_0, # of connection points: 6
#     Node 15, Type 0, BuildingBlock: MIFKUJ_clean_sbu_0, # of connection points: 6
#     Node 16, Type 0, BuildingBlock: MIFKUJ_clean_sbu_0, # of connection points: 6
#     Node 17, Type 0, BuildingBlock: MIFKUJ_clean_sbu_0, # of connection points: 6
#     Edge 18, Type (0, 0), BuildingBlock: UVAHIK_clean_linker_0, # of connection points: 2
#     Edge 19, Type (0, 0), BuildingBlock: UVAHIK_clean_linker_0, # of connection points: 2
#     Edge 20, Type (0, 0), BuildingBlock: UVAHIK_clean_linker_0, # of connection points: 2
#     Edge 21, Type (0, 0), BuildingBlock: UVAHIK_clean_linker_0, # of connection points: 2
#     Edge 22, Type (0, 0), BuildingBlock: UVAHIK_clean_linker_0, # of connection points: 2
#     Edge 23, Type (0, 0), BuildingBlock: UVAHIK_clean_linker_0, # of connection points: 2
#     Edge 24, Type (0, 0), BuildingBlock: UVAHIK_clean_linker_0, # of connection points: 2
#     Edge 25, Type (0, 0), BuildingBlock: UVAHIK_clean_linker_0, # of connection points: 2
#     Edge 26, Type (0, 0), BuildingBlock: UVAHIK_clean_linker_0, # of connection points: 2
#     Edge 27, Type (0, 0), BuildingBlock: UVAHIK_clean_linker_0, # of connection points: 2
#     Edge 28, Type (0, 0), BuildingBlock: UVAHIK_clean_linker_0, # of connection points: 2
#     Edge 29, Type (0, 0), BuildingBlock: UVAHIK_clean_linker_0, # of connection points: 2
#     Edge 30, Type (0, 0), BuildingBlock: UVAHIK_clean_linker_0, # of connection points: 2
#     Edge 31, Type (0, 0), BuildingBlock: UVAHIK_clean_linker_0, # of connection points: 2
#     Edge 32, Type (0, 0), BuildingBlock: UVAHIK_clean_linker_0, # of connection points: 2
#     Edge 33, Type (0, 0), BuildingBlock: UVAHIK_clean_linker_0, # of connection points: 2
#     Edge 34, Type (0, 0), BuildingBlock: UVAHIK_clean_linker_0, # of connection points: 2
#     Edge 35, Type (0, 0), BuildingBlock: UVAHIK_clean_linker_0, # of connection points: 2
#     Edge 36, Type (0, 0), BuildingBlock: UVAHIK_clean_linker_0, # of connection points: 2
#     Edge 37, Type (0, 0), BuildingBlock: UVAHIK_clean_linker_0, # of connection points: 2
#     Edge 38, Type (0, 0), BuildingBlock: UVAHIK_clean_linker_0, # of connection points: 2
#     Edge 39, Type (0, 0), BuildingBlock: UVAHIK_clean_linker_0, # of connection points: 2
#     Edge 40, Type (0, 0), BuildingBlock: UVAHIK_clean_linker_0, # of connection points: 2
#     Edge 41, Type (0, 0), BuildingBlock: UVAHIK_clean_linker_0, # of connection points: 2
#     Edge 42, Type (0, 0), BuildingBlock: UVAHIK_clean_linker_0, # of connection points: 2
#     Edge 43, Type (0, 0), BuildingBlock: UVAHIK_clean_linker_0, # of connection points: 2
#     Edge 44, Type (0, 0), BuildingBlock: UVAHIK_clean_linker_0, # of connection points: 2
#     Edge 45, Type (0, 0), BuildingBlock: UVAHIK_clean_linker_0, # of connection points: 2
#     Edge 46, Type (0, 0), BuildingBlock: UVAHIK_clean_linker_0, # of connection points: 2
#     Edge 47, Type (0, 0), BuildingBlock: UVAHIK_clean_linker_0, # of connection points: 2
#     Edge 48, Type (0, 0), BuildingBlock: UVAHIK_clean_linker_0, # of connection points: 2
#     Edge 49, Type (0, 0), BuildingBlock: UVAHIK_clean_linker_0, # of connection points: 2
#     Edge 50, Type (0, 0), BuildingBlock: UVAHIK_clean_linker_0, # of connection points: 2
#     Edge 51, Type (0, 0), BuildingBlock: UVAHIK_clean_linker_0, # of connection points: 2
#     Edge 52, Type (0, 0), BuildingBlock: UVAHIK_clean_linker_0, # of connection points: 2
#     Edge 53, Type (0, 0), BuildingBlock: UVAHIK_clean_linker_0, # of connection points: 2
#     Edge 54, Type (0, 0), BuildingBlock: UVAHIK_clean_linker_0, # of connection points: 2
#     Edge 55, Type (0, 0), BuildingBlock: UVAHIK_clean_linker_0, # of connection points: 2
#     Edge 56, Type (0, 0), BuildingBlock: UVAHIK_clean_linker_0, # of connection points: 2
#     Edge 57, Type (0, 0), BuildingBlock: UVAHIK_clean_linker_0, # of connection points: 2
#     Edge 58, Type (0, 0), BuildingBlock: UVAHIK_clean_linker_0, # of connection points: 2
#     Edge 59, Type (0, 0), BuildingBlock: UVAHIK_clean_linker_0, # of connection points: 2
#     Edge 60, Type (0, 0), BuildingBlock: UVAHIK_clean_linker_0, # of connection points: 2
#     Edge 61, Type (0, 0), BuildingBlock: UVAHIK_clean_linker_0, # of connection points: 2
#     Edge 62, Type (0, 0), BuildingBlock: UVAHIK_clean_linker_0, # of connection points: 2
#     Edge 63, Type (0, 0), BuildingBlock: UVAHIK_clean_linker_0, # of connection points: 2
#     Edge 64, Type (0, 0), BuildingBlock: UVAHIK_clean_linker_0, # of connection points: 2
#     Edge 65, Type (0, 0), BuildingBlock: UVAHIK_clean_linker_0, # of connection points: 2
#     Edge 66, Type (0, 0), BuildingBlock: UVAHIK_clean_linker_0, # of connection points: 2
#     Edge 67, Type (0, 0), BuildingBlock: UVAHIK_clean_linker_0, # of connection points: 2
#     Edge 68, Type (0, 0), BuildingBlock: UVAHIK_clean_linker_0, # of connection points: 2
#     Edge 69, Type (0, 0), BuildingBlock: UVAHIK_clean_linker_0, # of connection points: 2
#     Edge 70, Type (0, 0), BuildingBlock: UVAHIK_clean_linker_0, # of connection points: 2
#     Edge 71, Type (0, 0), BuildingBlock: UVAHIK_clean_linker_0, # of connection points: 2
# Relax obj value: 0.200
# Max RMSD: 0.241
# Mean RMSD: 0.241
data_MOF--net-smd--node1-MIFKUJ_clean_sbu_0--edge1-UVAHIK_clean_linker_0
_symmetry_space_group_name_H-M    P1
_symmetry_Int_Tables_number       1
_symmetry_cell_setting            triclinic
loop_
_symmetry_equiv_pos_as_xyz
'x, y, z'
_cell_length_a     91.379811
_cell_length_b     91.351159
_cell_length_c     22.725895
_cell_angle_alpha  89.976695
_cell_angle_beta   89.997886
_cell_angle_gamma 120.04225
loop_
_atom_site_label
_atom_site_type_symbol
_atom_site_fract_x
_atom_site_fract_y
_atom_site_fract_z
_atom_type_partial_charge
Zn0 Zn 0.01062 0.22381 0.53762 0.0
Zn1 Zn 0.00949 0.21768 0.39914 0.0
C2 C 0.99919 0.24486 0.5815 0.0
O3 O 0.01558 0.2538 0.5903 0.0
C4 C 0.03151 0.20382 0.41135 0.0
O5 O 0.02166 0.19381 0.36951 0.0
O6 O 0.01983 0.22358 0.61799 0.0
O7 O 0.99799 0.19885 0.51218 0.0
O8 O 0.98691 0.20015 0.42793 0.0
C9 C 0.00891 0.21274 0.65294 0.0
O10 O 0.99357 0.20257 0.63315 0.0
O11 O 0.99316 0.23056 0.55625 0.0
C12 C 0.02272 0.22437 0.28181 0.0
O13 O 0.03605 0.23639 0.30878 0.0
O14 O 0.00967 0.21462 0.31178 0.0
O15 O 0.01471 0.24126 0.4108 0.0
O16 O 0.02924 0.2439 0.49136 0.0
O17 O 0.02836 0.21476 0.43317 0.0
C18 C 0.98629 0.19206 0.47398 0.0
C19 C 0.02645 0.25046 0.44629 0.0
Zn20 Zn 0.80204 0.79688 0.55238 0.0
Zn21 Zn 0.80635 0.79772 0.41864 0.0
C22 C 0.77941 0.76448 0.5938 0.0
O23 O 0.77298 0.77355 0.6138 0.0
C24 C 0.82121 0.83422 0.41493 0.0
O25 O 0.82968 0.83287 0.37057 0.0
O26 O 0.80263 0.80509 0.63513 0.0
O27 O 0.82699 0.80805 0.52772 0.0
O28 O 0.82423 0.79332 0.44792 0.0
C29 C 0.81225 0.80288 0.66994 0.0
O30 O 0.82141 0.79669 0.64878 0.0
O31 O 0.79286 0.77175 0.56311 0.0
C32 C 0.79777 0.80119 0.30012 0.0
O33 O 0.78704 0.80449 0.32724 0.0
O34 O 0.80732 0.79772 0.33045 0.0
O35 O 0.78295 0.78039 0.44139 0.0
O36 O 0.78325 0.79811 0.50714 0.0
O37 O 0.81097 0.821 0.44324 0.0
C38 C 0.83306 0.8019 0.49128 0.0
C39 C 0.77507 0.78589 0.47161 0.0
Zn40 Zn 0.22931 0.01569 0.55723 0.0
Zn41 Zn 0.21603 0.01183 0.41014 0.0
C42 C 0.26188 0.0206 0.59105 0.0
O43 O 0.25389 0.00404 0.58647 0.0
C44 C 0.1812 0.98834 0.42413 0.0
O45 O 0.18059 0.99889 0.38624 0.0
O46 O 0.21711 0.00608 0.63358 0.0
O47 O 0.22383 0.03372 0.52979 0.0
O48 O 0.21703 0.03298 0.4361 0.0
C49 C 0.21592 0.01634 0.66831 0.0
O50 O 0.22165 0.032 0.65108 0.0
O51 O 0.25398 0.02847 0.58026 0.0
C52 C 0.21037 0.99824 0.29282 0.0
O53 O 0.21037 0.98544 0.3192 0.0
O54 O 0.21267 0.0109 0.32306 0.0
O55 O 0.23712 0.01066 0.42302 0.0
O56 O 0.22655 0.99636 0.50462 0.0
O57 O 0.1955 0.99147 0.44384 0.0
C58 C 0.2198 0.03981 0.48644 0.0
C59 C 0.23619 0.9999 0.46022 0.0
Zn60 Zn 0.01474 0.79651 0.59618 0.0
Zn61 Zn 0.01161 0.79186 0.45925 0.0
C62 C 0.99289 0.81069 0.59151 0.0
O63 O 0.0035 0.82063 0.63189 0.0
C64 C 0.02306 0.77077 0.41506 0.0
O65 O 0.00665 0.76166 0.40677 0.0
O66 O 0.01493 0.79804 0.68463 0.0
O67 O 0.01075 0.77368 0.5759 0.0
O68 O 0.99316 0.77185 0.50665 0.0
C69 C 0.00179 0.78801 0.71374 0.0
O70 O 0.98841 0.77654 0.68537 0.0
O71 O 0.99534 0.79947 0.56802 0.0
C72 C 0.01327 0.80222 0.34245 0.0
O73 O 0.02876 0.81225 0.36125 0.0
O74 O 0.0023 0.79196 0.37867 0.0
O75 O 0.02455 0.81679 0.48533 0.0
O76 O 0.03654 0.8151 0.56707 0.0
O77 O 0.02901 0.78507 0.4402 0.0
C78 C 0.99789 0.76473 0.5443 0.0
C79 C 0.03652 0.82348 0.52271 0.0
Zn80 Zn 0.22119 0.22498 0.59412 0.0
Zn81 Zn 0.22711 0.22852 0.4565 0.0
C82 C 0.20633 0.18867 0.58167 0.0
O83 O 0.19519 0.18828 0.61914 0.0
C84 C 0.24959 0.26055 0.41179 0.0
O85 O 0.25638 0.25153 0.39474 0.0
O86 O 0.2191 0.22268 0.68217 0.0
O87 O 0.24464 0.24321 0.57691 0.0
O88 O 0.24583 0.22796 0.50437 0.0
C89 C 0.22881 0.21906 0.71092 0.0
O90 O 0.24019 0.21707 0.68236 0.0
O91 O 0.21807 0.20287 0.5633 0.0
C92 C 0.217 0.22075 0.33878 0.0
O93 O 0.20766 0.22706 0.35706 0.0
O94 O 0.22676 0.21933 0.37534 0.0
O95 O 0.20207 0.2175 0.47985 0.0
O96 O 0.20308 0.22916 0.56563 0.0
O97 O 0.23606 0.25342 0.44202 0.0
C98 C 0.25316 0.23872 0.54533 0.0
C99 C 0.19512 0.22194 0.51907 0.0
Zn100 Zn 0.80382 0.0054 0.58463 0.0
Zn101 Zn 0.80114 0.00802 0.44789 0.0
C102 C 0.83982 0.02859 0.58026 0.0
O103 O 0.8397 0.01883 0.62299 0.0
C104 C 0.76848 0.99774 0.40691 0.0
O105 O 0.77624 0.0142 0.39936 0.0
O106 O 0.80533 0.00543 0.67273 0.0
O107 O 0.78467 0.00903 0.56517 0.0
O108 O 0.80049 0.02675 0.49636 0.0
C109 C 0.808 0.01834 0.70233 0.0
O110 O 0.80951 0.03166 0.67462 0.0
O111 O 0.82596 0.02501 0.55542 0.0
C112 C 0.80976 0.00631 0.33176 0.0
O113 O 0.8044 0.99089 0.35118 0.0
O114 O 0.81037 0.01734 0.36738 0.0
O115 O 0.81271 0.99449 0.47176 0.0
O116 O 0.80085 0.98356 0.55705 0.0
O117 O 0.77662 0.99124 0.42988 0.0
C118 C 0.78874 0.02207 0.53437 0.0
C119 C 0.80836 0.98308 0.51091 0.0
Zn120 Zn 0.66972 0.56532 0.85957 0.0
Zn121 Zn 0.68236 0.55224 0.70717 0.0
C122 C 0.649 0.58093 0.86654 0.0
O123 O 0.65191 0.58277 0.80963 0.0
C124 C 0.7047 0.54692 0.78735 0.0
O125 O 0.69608 0.54848 0.83075 0.0
O126 O 0.68191 0.5625 0.92914 0.0
O127 O 0.65368 0.54274 0.82328 0.0
O128 O 0.6594 0.53474 0.73806 0.0
C129 C 0.67209 0.55123 0.96543 0.0
O130 O 0.65603 0.54191 0.95171 0.0
O131 O 0.65499 0.57343 0.89674 0.0
C132 C 0.69455 0.55857 0.58849 0.0
O133 O 0.70832 0.56988 0.61548 0.0
O134 O 0.68143 0.54921 0.61892 0.0
O135 O 0.6905 0.57697 0.71919 0.0
O136 O 0.68491 0.58447 0.8056 0.0
O137 O 0.7006 0.54773 0.73456 0.0
C138 C 0.64973 0.53202 0.78199 0.0
C139 C 0.69171 0.58821 0.75493 0.0
Zn140 Zn 0.46098 0.11599 0.85211 0.0
Zn141 Zn 0.4695 0.1293 0.70329 0.0
C142 C 0.43769 0.08623 0.91574 0.0
O143 O 0.43316 0.09678 0.93663 0.0
C144 C 0.47972 0.16401 0.71334 0.0
O145 O 0.48989 0.16453 0.67148 0.0
O146 O 0.46437 0.12905 0.92714 0.0
O147 O 0.48421 0.12137 0.8221 0.0
O148 O 0.48979 0.12842 0.72828 0.0
C149 C 0.47445 0.12858 0.96459 0.0
O150 O 0.48281 0.12084 0.95051 0.0
O151 O 0.44947 0.09151 0.87769 0.0
C152 C 0.46134 0.13527 0.58627 0.0
O153 O 0.44924 0.13624 0.61404 0.0
O154 O 0.47141 0.13228 0.61548 0.0
O155 O 0.44747 0.10807 0.71772 0.0
O156 O 0.44345 0.11762 0.80131 0.0
O157 O 0.46966 0.14987 0.73718 0.0
C158 C 0.49407 0.12548 0.77796 0.0
C159 C 0.43751 0.10831 0.75602 0.0
Zn160 Zn 0.89673 0.33986 0.86798 0.0
Zn161 Zn 0.89649 0.3441 0.7344 0.0
C162 C 0.93013 0.35074 0.90345 0.0
O163 O 0.92299 0.33433 0.91124 0.0
C164 C 0.86024 0.32047 0.72976 0.0
O165 O 0.86125 0.32854 0.68072 0.0
O166 O 0.88833 0.33154 0.95014 0.0
O167 O 0.88507 0.35315 0.84271 0.0
O168 O 0.90072 0.36613 0.76551 0.0
C169 C 0.88967 0.34304 0.98501 0.0
O170 O 0.89505 0.3583 0.96396 0.0
O171 O 0.92135 0.35681 0.88269 0.0
C172 C 0.89394 0.33252 0.6156 0.0
O173 O 0.89209 0.31899 0.64271 0.0
O174 O 0.8962 0.34517 0.646 0.0
O175 O 0.91411 0.33838 0.75556 0.0
O176 O 0.89665 0.32051 0.82107 0.0
O177 O 0.87348 0.3252 0.76054 0.0
C178 C 0.89163 0.36582 0.80808 0.0
C179 C 0.90866 0.32476 0.78442 0.0
Zn180 Zn 0.6822 0.13815 0.93492 0.0
Zn181 Zn 0.68973 0.12638 0.78344 0.0
C182 C 0.65779 0.14047 0.85265 0.0
O183 O 0.66943 0.14606 0.81143 0.0
C184 C 0.69765 0.10322 0.72824 0.0
O185 O 0.68106 0.0942 0.72779 0.0
O186 O 0.68176 0.14217 0.02194 0.0
O187 O 0.67997 0.11524 0.93092 0.0
O188 O 0.67373 0.10725 0.8375 0.0
C189 C 0.66871 0.13198 0.0512 0.0
O190 O 0.65595 0.11949 0.02348 0.0
O191 O 0.66107 0.13689 0.90318 0.0
C192 C 0.68806 0.13881 0.67357 0.0
O193 O 0.70422 0.14755 0.68673 0.0
O194 O 0.6779 0.12838 0.7113 0.0
O195 O 0.70593 0.14981 0.81433 0.0
O196 O 0.70348 0.15783 0.90402 0.0
O197 O 0.70474 0.11796 0.75053 0.0
C198 C 0.67293 0.10379 0.89211 0.0
C199 C 0.71109 0.16084 0.85497 0.0
Zn200 Zn 0.88683 0.54659 0.94797 0.0
Zn201 Zn 0.89643 0.56185 0.79958 0.0
C202 C 0.87616 0.51246 0.92585 0.0
O203 O 0.8644 0.51127 0.96205 0.0
C204 C 0.92077 0.59386 0.74917 0.0
O205 O 0.93044 0.58704 0.75256 0.0
O206 O 0.88404 0.54193 0.03503 0.0
O207 O 0.90835 0.56861 0.93886 0.0
O208 O 0.91534 0.56318 0.852 0.0
C209 C 0.89552 0.54178 0.06618 0.0
O210 O 0.90965 0.54466 0.0409 0.0
O211 O 0.88774 0.52708 0.91 0.0
C212 C 0.8819 0.54535 0.6918 0.0
O213 O 0.87084 0.5497 0.70843 0.0
O214 O 0.89405 0.54831 0.72621 0.0
O215 O 0.87297 0.5556 0.83052 0.0
O216 O 0.86651 0.54728 0.92297 0.0
O217 O 0.90564 0.58555 0.76784 0.0
C218 C 0.91953 0.57024 0.90223 0.0
C219 C 0.86265 0.55078 0.87349 0.0
Zn220 Zn 0.47155 0.34066 0.90039 0.0
Zn221 Zn 0.45986 0.33866 0.75403 0.0
C222 C 0.50552 0.36868 0.89429 0.0
O223 O 0.50663 0.3619 0.94385 0.0
C224 C 0.42958 0.31465 0.69283 0.0
O225 O 0.44041 0.3124 0.66165 0.0
O226 O 0.47458 0.34146 0.98844 0.0
O227 O 0.45024 0.34125 0.88628 0.0
O228 O 0.46156 0.35724 0.80849 0.0
C229 C 0.47279 0.35197 0.01987 0.0
O230 O 0.46863 0.36229 0.99443 0.0
O231 O 0.49172 0.36148 0.86558 0.0
C232 C 0.48009 0.3447 0.64803 0.0
O233 O 0.48431 0.33438 0.67308 0.0
O234 O 0.47074 0.34896 0.67593 0.0
O235 O 0.46608 0.32083 0.77774 0.0
O236 O 0.47064 0.31968 0.87286 0.0
O237 O 0.435 0.32512 0.73526 0.0
C238 C 0.45163 0.3529 0.85241 0.0
C239 C 0.46919 0.31396 0.82106 0.0
Zn240 Zn 0.3347 0.89255 0.23874 0.0
Zn241 Zn 0.34802 0.87841 0.08983 0.0
C242 C 0.32724 0.9161 0.2914 0.0
O243 O 0.34379 0.92513 0.28779 0.0
C244 C 0.37054 0.86497 0.10076 0.0
O245 O 0.36134 0.85535 0.05705 0.0
O246 O 0.34698 0.89052 0.30993 0.0
O247 O 0.31893 0.86953 0.20442 0.0
O248 O 0.32501 0.86093 0.12103 0.0
C249 C 0.33696 0.87975 0.34725 0.0
O250 O 0.32086 0.87066 0.33367 0.0
O251 O 0.31979 0.90089 0.27322 0.0
C252 C 0.36049 0.88445 0.97087 0.0
O253 O 0.37397 0.89637 0.99747 0.0
O254 O 0.34758 0.8747 0.00164 0.0
O255 O 0.35513 0.90302 0.09734 0.0
O256 O 0.34936 0.91124 0.18194 0.0
O257 O 0.36668 0.87526 0.12391 0.0
C258 C 0.31522 0.85848 0.1644 0.0
C259 C 0.35597 0.91453 0.13094 0.0
Zn260 Zn 0.12345 0.45646 0.2175 0.0
Zn261 Zn 0.13207 0.46825 0.07034 0.0
C262 C 0.10544 0.4263 0.29083 0.0
O263 O 0.10273 0.43641 0.32436 0.0
C264 C 0.14387 0.50259 0.08953 0.0
O265 O 0.15517 0.50294 0.05293 0.0
O266 O 0.12642 0.46965 0.29207 0.0
O267 O 0.14716 0.46355 0.18751 0.0
O268 O 0.15291 0.46814 0.09255 0.0
C269 C 0.13695 0.46943 0.32816 0.0
O270 O 0.14538 0.4619 0.31239 0.0
O271 O 0.11371 0.43196 0.24313 0.0
C272 C 0.12058 0.46505 0.94893 0.0
O273 O 0.10585 0.45382 0.97062 0.0
O274 O 0.13329 0.47239 0.9829 0.0
O275 O 0.11085 0.44638 0.08655 0.0
O276 O 0.10498 0.45618 0.16595 0.0
O277 O 0.13204 0.48833 0.10727 0.0
C278 C 0.15732 0.46713 0.14451 0.0
C279 C 0.10008 0.44683 0.12048 0.0
Zn280 Zn 0.57042 0.68827 0.24211 0.0
Zn281 Zn 0.55217 0.68059 0.09495 0.0
C282 C 0.60217 0.69642 0.29224 0.0
O283 O 0.59476 0.67984 0.29253 0.0
C284 C 0.52449 0.65591 0.17154 0.0
O285 O 0.52545 0.66896 0.1994 0.0
O286 O 0.55745 0.67697 0.31645 0.0
O287 O 0.56274 0.70435 0.21189 0.0
O288 O 0.55072 0.70029 0.12435 0.0
C289 C 0.55396 0.68591 0.35029 0.0
O290 O 0.55756 0.70105 0.33276 0.0
O291 O 0.59422 0.70337 0.27134 0.0
C292 C 0.54705 0.66752 0.97669 0.0
O293 O 0.54932 0.65589 0.00211 0.0
O294 O 0.54751 0.67929 0.00793 0.0
O295 O 0.57521 0.68334 0.10223 0.0
O296 O 0.57192 0.67109 0.18855 0.0
O297 O 0.53458 0.65834 0.12933 0.0
C298 C 0.55583 0.70859 0.1719 0.0
C299 C 0.5769 0.67311 0.13532 0.0
Zn300 Zn 0.34147 0.47115 0.27777 0.0
Zn301 Zn 0.35716 0.45859 0.13076 0.0
C302 C 0.31988 0.48552 0.26915 0.0
O303 O 0.3285 0.49381 0.3159 0.0
C304 C 0.36409 0.43517 0.07357 0.0
O305 O 0.34753 0.4262 0.07742 0.0
O306 O 0.34204 0.47458 0.36623 0.0
O307 O 0.3338 0.4465 0.26791 0.0
O308 O 0.34168 0.43952 0.18497 0.0
C309 C 0.32984 0.46458 0.39927 0.0
O310 O 0.31636 0.45193 0.37529 0.0
O311 O 0.32367 0.47552 0.24338 0.0
C312 C 0.35527 0.4733 0.02495 0.0
O313 O 0.37111 0.48309 0.04067 0.0
O314 O 0.34539 0.46166 0.06007 0.0
O315 O 0.3734 0.48101 0.16808 0.0
O316 O 0.36478 0.48819 0.24898 0.0
O317 O 0.37168 0.45013 0.09408 0.0
C318 C 0.33378 0.43549 0.23371 0.0
C319 C 0.37589 0.49132 0.20968 0.0
Zn320 Zn 0.56545 0.89793 0.26414 0.0
Zn321 Zn 0.56944 0.89801 0.12874 0.0
C322 C 0.54968 0.86148 0.26013 0.0
O323 O 0.53909 0.86226 0.29738 0.0
C324 C 0.58989 0.9297 0.07693 0.0
O325 O 0.59616 0.92071 0.0549 0.0
O326 O 0.56431 0.89739 0.35269 0.0
O327 O 0.58858 0.91577 0.2408 0.0
O328 O 0.5889 0.8983 0.17505 0.0
C329 C 0.57375 0.89357 0.38217 0.0
O330 O 0.58451 0.89051 0.3541 0.0
O331 O 0.56165 0.8751 0.23897 0.0
C332 C 0.55858 0.88995 0.0116 0.0
O333 O 0.54916 0.89604 0.03112 0.0
O334 O 0.56853 0.88855 0.04735 0.0
O335 O 0.54462 0.88659 0.15535 0.0
O336 O 0.54696 0.90133 0.23485 0.0
O337 O 0.57766 0.92277 0.11321 0.0
C338 C 0.59675 0.91049 0.21102 0.0
C339 C 0.53819 0.89228 0.19216 0.0
Zn340 Zn 0.12761 0.67442 0.25796 0.0
Zn341 Zn 0.12634 0.67749 0.12441 0.0
C342 C 0.16366 0.69876 0.26349 0.0
O343 O 0.16254 0.69108 0.31357 0.0
C344 C 0.09212 0.66581 0.09475 0.0
O345 O 0.09865 0.68211 0.08572 0.0
O346 O 0.12785 0.67343 0.34619 0.0
O347 O 0.10973 0.67974 0.23697 0.0
O348 O 0.12683 0.69723 0.17001 0.0
C349 C 0.12964 0.68587 0.37681 0.0
O350 O 0.13115 0.69931 0.35002 0.0
O351 O 0.15059 0.69348 0.23132 0.0
C352 C 0.1326 0.67376 0.00685 0.0
O353 O 0.12737 0.65855 0.02816 0.0
O354 O 0.13404 0.68532 0.04158 0.0
O355 O 0.13839 0.66451 0.14924 0.0
O356 O 0.12338 0.6523 0.22833 0.0
O357 O 0.10159 0.66026 0.11317 0.0
C358 C 0.11499 0.69317 0.20723 0.0
C359 C 0.13213 0.65219 0.18536 0.0
C360 C 0.09669 0.39615 0.26786 0.0
C361 C 0.09909 0.40858 0.30918 0.0
C362 C 0.09025 0.37933 0.28537 0.0
C363 C 0.0672 0.34978 0.40949 0.0
H364 H 0.07993 0.32078 0.32637 0.0
C365 C 0.04532 0.2805 0.47907 0.0
C366 C 0.03702 0.26875 0.43371 0.0
C367 C 0.05431 0.29787 0.46678 0.0
C368 C 0.07631 0.32877 0.35002 0.0
H369 H 0.09715 0.41327 0.40153 0.0
H370 H 0.08665 0.38421 0.43256 0.0
H371 H 0.09315 0.35061 0.29996 0.0
H372 H 0.03216 0.26592 0.33976 0.0
H373 H 0.04824 0.29612 0.31831 0.0
H374 H 0.05059 0.32784 0.46023 0.0
C375 C 0.08911 0.38719 0.38623 0.0
C376 C 0.08376 0.34585 0.33461 0.0
C377 C 0.09524 0.40392 0.36851 0.0
C378 C 0.03835 0.27466 0.37571 0.0
C379 C 0.04762 0.29193 0.36332 0.0
C380 C 0.06 0.33277 0.42557 0.0
C381 C 0.08634 0.37459 0.34487 0.0
C382 C 0.07912 0.35657 0.36347 0.0
C383 C 0.05549 0.30372 0.40877 0.0
C384 C 0.0643 0.32206 0.3954 0.0
H385 H 0.09945 0.39935 0.22173 0.0
H386 H 0.08802 0.37002 0.25188 0.0
H387 H 0.06301 0.35745 0.43217 0.0
H388 H 0.0445 0.27632 0.52415 0.0
H389 H 0.06032 0.30674 0.50254 0.0
C390 C 0.74725 0.76071 0.44832 0.0
C391 C 0.75653 0.77773 0.46572 0.0
C392 C 0.72987 0.75294 0.43918 0.0
C393 C 0.6972 0.76151 0.39227 0.0
H394 H 0.66679 0.71643 0.45167 0.0
C395 C 0.62625 0.72415 0.32743 0.0
C396 C 0.61935 0.70674 0.31714 0.0
C397 C 0.64237 0.7337 0.35217 0.0
C398 C 0.67511 0.72895 0.43422 0.0
H399 H 0.75492 0.79993 0.48809 0.0
H400 H 0.7243 0.78634 0.47033 0.0
H401 H 0.69609 0.73159 0.48473 0.0
H402 H 0.62407 0.68578 0.32394 0.0
H403 H 0.65223 0.70242 0.36515 0.0
H404 H 0.67652 0.75862 0.33949 0.0
C405 C 0.73059 0.77905 0.46443 0.0
C406 C 0.69186 0.73767 0.45357 0.0
C407 C 0.74802 0.78678 0.4748 0.0
C408 C 0.62895 0.69913 0.33168 0.0
C409 C 0.64508 0.70868 0.35585 0.0
C410 C 0.68047 0.75271 0.3723 0.0
C411 C 0.72138 0.76207 0.44631 0.0
C412 C 0.70315 0.75388 0.43192 0.0
C413 C 0.65199 0.72608 0.36677 0.0
C414 C 0.66931 0.73615 0.39205 0.0
H415 H 0.75347 0.7534 0.4414 0.0
H416 H 0.72312 0.73988 0.42476 0.0
H417 H 0.7057 0.77395 0.37449 0.0
H418 H 0.61912 0.73036 0.31701 0.0
H419 H 0.64719 0.74701 0.36046 0.0
C420 C 0.26028 0.99824 0.41536 0.0
C421 C 0.2455 0.99079 0.44967 0.0
C422 C 0.26904 0.98963 0.40463 0.0
C423 C 0.26338 0.94797 0.38661 0.0
H424 H 0.31145 0.96911 0.41773 0.0
C425 C 0.30089 0.91382 0.33475 0.0
C426 C 0.31755 0.92384 0.31442 0.0
C427 C 0.29191 0.92137 0.35657 0.0
C428 C 0.29808 0.96308 0.40788 0.0
H429 H 0.2283 0.9685 0.49968 0.0
H430 H 0.2434 0.95317 0.47907 0.0
H431 H 0.29621 0.98365 0.44515 0.0
H432 H 0.33775 0.94958 0.29993 0.0
H433 H 0.32198 0.96269 0.33521 0.0
H434 H 0.26525 0.92779 0.3466 0.0
C435 C 0.24824 0.96577 0.46125 0.0
C436 C 0.28936 0.97139 0.42409 0.0
C437 C 0.23967 0.97455 0.47312 0.0
C438 C 0.32499 0.94151 0.31591 0.0
C439 C 0.31595 0.94904 0.33668 0.0
C440 C 0.27216 0.93978 0.36931 0.0
C441 C 0.26301 0.97326 0.42696 0.0
C442 C 0.27198 0.96397 0.41316 0.0
C443 C 0.2993 0.93911 0.35761 0.0
C444 C 0.28968 0.9473 0.37912 0.0
H445 H 0.26512 0.01078 0.39704 0.0
H446 H 0.28036 0.99562 0.37782 0.0
H447 H 0.24998 0.94206 0.37734 0.0
H448 H 0.29487 0.90016 0.33447 0.0
H449 H 0.27924 0.91327 0.37309 0.0
C450 C 0.28675 0.04598 0.63524 0.0
C451 C 0.27977 0.02986 0.60974 0.0
C452 C 0.30352 0.05444 0.65472 0.0
C453 C 0.33921 0.04701 0.69109 0.0
H454 H 0.36598 0.09586 0.6789 0.0
C455 C 0.41215 0.0852 0.70567 0.0
C456 C 0.41911 0.09899 0.74467 0.0
C457 C 0.39485 0.07658 0.69347 0.0
C458 C 0.35858 0.08222 0.68301 0.0
H459 H 0.28495 0.01013 0.58306 0.0
H460 H 0.31434 0.02512 0.61433 0.0
H461 H 0.33653 0.08133 0.64716 0.0
H462 H 0.41342 0.11454 0.80161 0.0
H463 H 0.38313 0.09969 0.77875 0.0
H464 H 0.36164 0.04801 0.72447 0.0
C465 C 0.30679 0.03105 0.62159 0.0
C466 C 0.34166 0.07386 0.66509 0.0
C467 C 0.28994 0.02248 0.60315 0.0
C468 C 0.4084 0.10394 0.77146 0.0
C469 C 0.39112 0.09551 0.75826 0.0
C470 C 0.35619 0.05536 0.70795 0.0
C471 C 0.3138 0.0471 0.64815 0.0
C472 C 0.33174 0.05611 0.6686 0.0
C473 C 0.38421 0.08177 0.71915 0.0
C474 C 0.36603 0.07302 0.70387 0.0
H475 H 0.27914 0.05191 0.64132 0.0
H476 H 0.3083 0.06662 0.67579 0.0
H477 H 0.33194 0.0334 0.69594 0.0
H478 H 0.42008 0.08105 0.68458 0.0
H479 H 0.38982 0.06607 0.66292 0.0
C480 C 0.93364 0.32207 0.75885 0.0
C481 C 0.91654 0.31425 0.77517 0.0
C482 C 0.94114 0.3124 0.74607 0.0
C483 C 0.93236 0.27232 0.6864 0.0
H484 H 0.97651 0.28465 0.74919 0.0
C485 C 0.9706 0.24027 0.61044 0.0
C486 C 0.98812 0.25108 0.60423 0.0
C487 C 0.96055 0.24616 0.63611 0.0
C488 C 0.96425 0.28112 0.73079 0.0
H489 H 0.89389 0.29023 0.79167 0.0
H490 H 0.90702 0.27313 0.76742 0.0
H491 H 0.96128 0.29811 0.78781 0.0
H492 H 0.00874 0.27668 0.61795 0.0
H493 H 0.99132 0.28701 0.66076 0.0
H494 H 0.93566 0.25592 0.6273 0.0
C495 C 0.91457 0.28679 0.76529 0.0
C496 C 0.95549 0.28874 0.75331 0.0
C497 C 0.90711 0.29654 0.7794 0.0
C498 C 0.99531 0.26796 0.62269 0.0
C499 C 0.98531 0.27385 0.64779 0.0
C500 C 0.94123 0.26479 0.66329 0.0
C501 C 0.93165 0.29467 0.74833 0.0
C502 C 0.93965 0.28471 0.73044 0.0
C503 C 0.96785 0.26299 0.65576 0.0
C504 C 0.95749 0.26945 0.68419 0.0
H505 H 0.94122 0.33571 0.75557 0.0
H506 H 0.95428 0.31879 0.73267 0.0
H507 H 0.9202 0.26908 0.66775 0.0
H508 H 0.96471 0.22717 0.59683 0.0
H509 H 0.94716 0.23743 0.64174 0.0
C510 C 0.77551 0.73543 0.57901 0.0
C511 C 0.77105 0.74623 0.60788 0.0
C512 C 0.76715 0.71812 0.59231 0.0
C513 C 0.72772 0.68448 0.66244 0.0
H514 H 0.75215 0.65997 0.67017 0.0
C515 C 0.69954 0.61852 0.76846 0.0
C516 C 0.70119 0.60621 0.73676 0.0
C517 C 0.70822 0.63544 0.75069 0.0
C518 C 0.74516 0.66664 0.66768 0.0
H519 H 0.75462 0.74744 0.6743 0.0
H520 H 0.74049 0.7176 0.69849 0.0
H521 H 0.76712 0.68985 0.64262 0.0
H522 H 0.71347 0.60211 0.66192 0.0
H523 H 0.72876 0.63173 0.63139 0.0
H524 H 0.70587 0.66137 0.68884 0.0
C525 C 0.75005 0.72226 0.66437 0.0
C526 C 0.7537 0.68374 0.6517 0.0
C527 C 0.75826 0.73944 0.65074 0.0
C528 C 0.71188 0.61126 0.68726 0.0
C529 C 0.72072 0.62822 0.66992 0.0
C530 C 0.71925 0.66748 0.67895 0.0
C531 C 0.75424 0.71131 0.63503 0.0
C532 C 0.74512 0.69292 0.64937 0.0
C533 C 0.71888 0.64046 0.70122 0.0
C534 C 0.72789 0.65841 0.68215 0.0
H535 H 0.78528 0.74029 0.54563 0.0
H536 H 0.77061 0.71005 0.56842 0.0
H537 H 0.72058 0.691 0.65976 0.0
H538 H 0.6914 0.61508 0.8067 0.0
H539 H 0.70669 0.64463 0.77597 0.0
C540 C 0.99705 0.73821 0.57553 0.0
C541 C 0.98853 0.7462 0.55287 0.0
C542 C 0.98834 0.72092 0.58755 0.0
C543 C 0.94744 0.68684 0.63238 0.0
H544 H 0.96574 0.65819 0.58827 0.0
C545 C 0.91633 0.61678 0.70692 0.0
C546 C 0.92732 0.6108 0.72231 0.0
C547 C 0.92257 0.63261 0.68012 0.0
C548 C 0.96053 0.66603 0.60155 0.0
H549 H 0.96424 0.74233 0.52412 0.0
H550 H 0.94879 0.71192 0.54681 0.0
H551 H 0.97878 0.68701 0.55062 0.0
H552 H 0.95349 0.61687 0.7225 0.0
H553 H 0.96442 0.64458 0.67775 0.0
H554 H 0.92968 0.66621 0.68553 0.0
C555 C 0.96229 0.71913 0.55464 0.0
C556 C 0.96794 0.6825 0.57954 0.0
C557 C 0.97112 0.73647 0.54144 0.0
C558 C 0.94467 0.62104 0.71082 0.0
C559 C 0.95092 0.63691 0.68462 0.0
C560 C 0.94013 0.6704 0.65504 0.0
C561 C 0.97084 0.71124 0.57808 0.0
C562 C 0.96166 0.69316 0.59552 0.0
C563 C 0.93996 0.64289 0.66854 0.0
C564 C 0.94679 0.65989 0.64081 0.0
H565 H 0.0105 0.74537 0.58446 0.0
H566 H 0.99523 0.71521 0.60604 0.0
H567 H 0.94245 0.69486 0.64586 0.0
H568 H 0.90287 0.60913 0.71484 0.0
H569 H 0.91371 0.63667 0.6678 0.0
C570 C 0.28138 0.2414 0.5232 0.0
C571 C 0.27129 0.24545 0.55862 0.0
C572 C 0.29849 0.24779 0.53668 0.0
C573 C 0.32889 0.26587 0.65995 0.0
H574 H 0.36287 0.28416 0.53706 0.0
C575 C 0.39978 0.30783 0.71119 0.0
C576 C 0.41137 0.30549 0.67767 0.0
C577 C 0.38265 0.29949 0.69617 0.0
C578 C 0.35352 0.27889 0.5718 0.0
H579 H 0.2713 0.25946 0.63581 0.0
H580 H 0.30097 0.27063 0.65878 0.0
H581 H 0.333 0.27131 0.5112 0.0
H582 H 0.41401 0.29244 0.60222 0.0
H583 H 0.38408 0.2778 0.57628 0.0
H584 H 0.34935 0.27357 0.72061 0.0
C585 C 0.29568 0.26235 0.62109 0.0
C586 C 0.3364 0.27153 0.55697 0.0
C587 C 0.27867 0.25603 0.6076 0.0
C588 C 0.40542 0.29454 0.62895 0.0
C589 C 0.38828 0.28623 0.61385 0.0
C590 C 0.34597 0.27322 0.67475 0.0
C591 C 0.30579 0.25828 0.58598 0.0
C592 C 0.32391 0.26513 0.60098 0.0
C593 C 0.3767 0.28862 0.64725 0.0
C594 C 0.3585 0.28001 0.63097 0.0
H595 H 0.27609 0.23329 0.48513 0.0
H596 H 0.30592 0.24433 0.50897 0.0
H597 H 0.31957 0.26076 0.69481 0.0
H598 H 0.40393 0.31621 0.74888 0.0
H599 H 0.37411 0.30181 0.72236 0.0
C600 C 0.7002 0.07881 0.69157 0.0
C601 C 0.70778 0.09621 0.70301 0.0
C602 C 0.70959 0.07204 0.66752 0.0
C603 C 0.75372 0.08136 0.64364 0.0
H604 H 0.7314 0.04258 0.53989 0.0
C605 C 0.78782 0.04912 0.53206 0.0
C606 C 0.77991 0.0317 0.544 0.0
C607 C 0.77961 0.0582 0.54535 0.0
C608 C 0.73779 0.05344 0.56868 0.0
H609 H 0.73117 0.12021 0.69772 0.0
H610 H 0.74751 0.10849 0.65401 0.0
H611 H 0.7161 0.05641 0.57442 0.0
H612 H 0.75705 0.01003 0.57695 0.0
H613 H 0.74263 0.02576 0.5986 0.0
H614 H 0.77549 0.07834 0.63702 0.0
C615 C 0.73437 0.09998 0.66488 0.0
C616 C 0.72901 0.06131 0.58893 0.0
C617 C 0.72499 0.10673 0.68971 0.0
C618 C 0.76349 0.02346 0.56759 0.0
C619 C 0.7552 0.03243 0.57968 0.0
C620 C 0.76259 0.07362 0.62261 0.0
C621 C 0.72679 0.08253 0.65343 0.0
C622 C 0.7367 0.07513 0.62783 0.0
C623 C 0.76323 0.04991 0.5694 0.0
C624 C 0.75458 0.05937 0.58595 0.0
H625 H 0.687 0.07034 0.70184 0.0
H626 H 0.70336 0.05851 0.66082 0.0
H627 H 0.76004 0.09184 0.67397 0.0
H628 H 0.80049 0.05578 0.51402 0.0
H629 H 0.78604 0.07168 0.53689 0.0
C630 C 0.62437 0.93512 0.24011 0.0
C631 C 0.61515 0.91832 0.22036 0.0
C632 C 0.64155 0.9425 0.25274 0.0
C633 C 0.67316 0.93299 0.30479 0.0
H634 H 0.70476 0.97819 0.24929 0.0
C635 C 0.74393 0.9697 0.37613 0.0
C636 C 0.75094 0.98714 0.38564 0.0
C637 C 0.72775 0.96016 0.35158 0.0
C638 C 0.69609 0.96563 0.26571 0.0
H639 H 0.61668 0.89608 0.19778 0.0
H640 H 0.64691 0.90898 0.22157 0.0
H641 H 0.6759 0.96359 0.21201 0.0
H642 H 0.74624 0.00812 0.37926 0.0
H643 H 0.71804 0.99154 0.33852 0.0
H644 H 0.69311 0.9353 0.3606 0.0
C645 C 0.64074 0.9164 0.22657 0.0
C646 C 0.6796 0.95724 0.24393 0.0
C647 C 0.62353 0.90908 0.2127 0.0
C648 C 0.74129 0.99474 0.37181 0.0
C649 C 0.72514 0.98524 0.34791 0.0
C650 C 0.68965 0.94148 0.3272 0.0
C651 C 0.64987 0.93317 0.24685 0.0
C652 C 0.66788 0.94099 0.26412 0.0
C653 C 0.71825 0.96788 0.33646 0.0
C654 C 0.70121 0.95808 0.30893 0.0
H655 H 0.61826 0.94256 0.24618 0.0
H656 H 0.64825 0.9554 0.26876 0.0
H657 H 0.6643 0.9205 0.32136 0.0
H658 H 0.75111 0.9635 0.38614 0.0
H659 H 0.72288 0.94684 0.34316 0.0
C660 C 0.02724 0.748 0.37244 0.0
C661 C 0.03425 0.7648 0.39153 0.0
C662 C 0.03736 0.74239 0.34642 0.0
C663 C 0.08158 0.75209 0.32948 0.0
H664 H 0.0618 0.71928 0.20333 0.0
C665 C 0.1163 0.72127 0.21216 0.0
C666 C 0.10695 0.70354 0.21565 0.0
C667 C 0.10869 0.73087 0.22621 0.0
C668 C 0.06752 0.72852 0.23826 0.0
H669 H 0.05748 0.78888 0.39915 0.0
H670 H 0.07524 0.77912 0.35274 0.0
H671 H 0.0463 0.73228 0.24354 0.0
H672 H 0.08225 0.6819 0.23352 0.0
H673 H 0.06891 0.69857 0.25634 0.0
H674 H 0.10278 0.7481 0.32403 0.0
C675 C 0.0619 0.77023 0.35853 0.0
C676 C 0.05861 0.73587 0.26168 0.0
C677 C 0.05173 0.77583 0.38507 0.0
C678 C 0.08977 0.69556 0.23088 0.0
C679 C 0.08211 0.70509 0.24358 0.0
C680 C 0.09059 0.74483 0.30553 0.0
C681 C 0.05477 0.75348 0.33822 0.0
C682 C 0.06527 0.74734 0.30887 0.0
C683 C 0.09153 0.72283 0.24234 0.0
C684 C 0.08341 0.73262 0.26089 0.0
H685 H 0.01384 0.73913 0.37733 0.0
H686 H 0.0315 0.72929 0.3329 0.0
H687 H 0.08707 0.76082 0.36591 0.0
H688 H 0.12959 0.72768 0.20074 0.0
H689 H 0.11618 0.74454 0.22486 0.0
C690 C 0.31288 0.41212 0.29867 0.0
C691 C 0.32446 0.41747 0.25167 0.0
C692 C 0.3043 0.39518 0.31629 0.0
C693 C 0.30771 0.35692 0.31472 0.0
H694 H 0.25945 0.33325 0.34495 0.0
C695 C 0.27067 0.28518 0.35286 0.0
C696 C 0.25758 0.27857 0.39467 0.0
C697 C 0.27844 0.30214 0.33626 0.0
C698 C 0.27297 0.33973 0.33756 0.0
H699 H 0.33603 0.40913 0.18634 0.0
H700 H 0.32111 0.3796 0.21743 0.0
H701 H 0.27372 0.36284 0.31415 0.0
H702 H 0.24235 0.2846 0.45187 0.0
H703 H 0.25624 0.31444 0.42395 0.0
H704 H 0.30715 0.33406 0.33895 0.0
C705 C 0.31872 0.38856 0.24061 0.0
C706 C 0.28112 0.35666 0.3197 0.0
C707 C 0.32718 0.40546 0.22257 0.0
C708 C 0.25238 0.28932 0.41943 0.0
C709 C 0.26028 0.30639 0.40316 0.0
C710 C 0.29962 0.34008 0.33307 0.0
C711 C 0.30723 0.38325 0.28774 0.0
C712 C 0.29855 0.36538 0.30763 0.0
C713 C 0.27347 0.31303 0.36148 0.0
C714 C 0.28211 0.33119 0.34418 0.0
H715 H 0.31044 0.42102 0.32196 0.0
H716 H 0.2956 0.39148 0.35304 0.0
H717 H 0.32121 0.36341 0.30676 0.0
H718 H 0.27487 0.27721 0.33242 0.0
H719 H 0.28826 0.30666 0.3031 0.0
C720 C 0.95875 0.35538 0.92668 0.0
C721 C 0.94773 0.36184 0.92279 0.0
C722 C 0.97498 0.36522 0.94969 0.0
C723 C 0.00722 0.40932 0.99103 0.0
H724 H 0.02545 0.3859 0.08047 0.0
C725 C 0.0707 0.44251 0.12236 0.0
C726 C 0.08201 0.43719 0.10434 0.0
C727 C 0.05383 0.43377 0.10363 0.0
C728 C 0.02047 0.39258 0.05571 0.0
H729 H 0.94504 0.38375 0.93902 0.0
H730 H 0.97323 0.40082 0.98128 0.0
H731 H 0.99695 0.37004 0.04058 0.0
H732 H 0.0845 0.41836 0.05419 0.0
H733 H 0.05497 0.40284 0.02324 0.0
H734 H 0.03084 0.43196 0.00787 0.0
C735 C 0.96954 0.38829 0.96526 0.0
C736 C 0.00421 0.3835 0.03226 0.0
C737 C 0.95336 0.3785 0.94116 0.0
C738 C 0.07608 0.42277 0.06862 0.0
C739 C 0.05919 0.41386 0.05107 0.0
C740 C 0.02342 0.41846 0.01547 0.0
C741 C 0.98049 0.38168 0.97058 0.0
C742 C 0.99747 0.39167 0.99849 0.0
C743 C 0.04797 0.41937 0.0679 0.0
C744 C 0.03027 0.4101 0.04707 0.0
H745 H 0.9548 0.34263 0.91216 0.0
H746 H 0.98317 0.35984 0.95123 0.0
H747 H 0.00258 0.41606 0.9649 0.0
H748 H 0.07498 0.45364 0.14966 0.0
H749 H 0.04535 0.4382 0.11723 0.0
C750 C 0.63665 0.58656 0.95657 0.0
C751 C 0.63983 0.58849 0.8957 0.0
C752 C 0.62878 0.59444 0.98445 0.0
C753 C 0.60309 0.61479 0.95469 0.0
H754 H 0.62077 0.63675 0.10487 0.0
C755 C 0.58761 0.66378 0.05013 0.0
C756 C 0.58385 0.66285 0.1105 0.0
C757 C 0.5937 0.65381 0.02596 0.0
C758 C 0.61556 0.6305 0.06331 0.0
H759 H 0.63704 0.60006 0.81631 0.0
H760 H 0.62355 0.61396 0.86492 0.0
H761 H 0.63246 0.62072 0.05871 0.0
H762 H 0.5838 0.65084 0.19295 0.0
H763 H 0.59455 0.63345 0.15057 0.0
H764 H 0.5864 0.62485 0.95883 0.0
C765 C 0.62689 0.60615 0.89109 0.0
C766 C 0.62223 0.62129 0.03685 0.0
C767 C 0.63472 0.59824 0.86322 0.0
C768 C 0.58655 0.65185 0.14628 0.0
C769 C 0.59276 0.64194 0.12208 0.0
C770 C 0.59648 0.62405 0.98101 0.0
C771 C 0.62393 0.60445 0.95212 0.0
C772 C 0.6162 0.61346 0.9819 0.0
C773 C 0.59629 0.64274 0.06156 0.0
C774 C 0.60276 0.63217 0.0353 0.0
H775 H 0.64037 0.57907 0.98288 0.0
H776 H 0.62648 0.59267 0.03136 0.0
H777 H 0.59792 0.60866 0.91294 0.0
H778 H 0.58576 0.67215 0.02123 0.0
H779 H 0.59655 0.65491 0.97936 0.0
C780 C 0.43255 0.05655 0.91047 0.0
C781 C 0.42939 0.06855 0.93729 0.0
C782 C 0.42469 0.0399 0.93123 0.0
C783 C 0.38842 0.00914 0.02224 0.0
H784 H 0.41329 0.98503 0.02599 0.0
C785 C 0.3633 0.94487 0.14032 0.0
C786 C 0.36474 0.93228 0.10963 0.0
C787 C 0.37129 0.96151 0.11948 0.0
C788 C 0.40614 0.99156 0.02477 0.0
H789 H 0.41562 0.07251 0.0074 0.0
H790 H 0.40226 0.04366 0.04434 0.0
H791 H 0.42703 0.01401 0.98929 0.0
H792 H 0.3759 0.92743 0.03308 0.0
H793 H 0.38989 0.95647 0.99705 0.0
H794 H 0.36762 0.98672 0.05852 0.0
C795 C 0.4105 0.04695 0.00642 0.0
C796 C 0.41399 0.00816 0.00356 0.0
C797 C 0.41825 0.06355 0.98542 0.0
C798 C 0.3745 0.93678 0.05787 0.0
C799 C 0.38261 0.95345 0.03734 0.0
C800 C 0.38062 0.9926 0.04384 0.0
C801 C 0.41358 0.03488 0.97955 0.0
C802 C 0.40522 0.01717 0.00196 0.0
C803 C 0.38103 0.96598 0.06776 0.0
C804 C 0.38939 0.98362 0.04528 0.0
H805 H 0.44101 0.05998 0.87313 0.0
H806 H 0.42718 0.03091 0.90885 0.0
H807 H 0.38115 0.01554 0.0207 0.0
H808 H 0.35585 0.94186 0.18018 0.0
H809 H 0.36997 0.97092 0.14416 0.0
C810 C 0.65884 0.08171 0.97034 0.0
C811 C 0.6637 0.08588 0.91117 0.0
C812 C 0.65005 0.06482 0.98846 0.0
C813 C 0.64402 0.02344 0.95268 0.0
H814 H 0.60267 0.00546 0.04378 0.0
C815 C 0.605 0.95258 0.00333 0.0
C816 C 0.59689 0.94743 0.05808 0.0
C817 C 0.61233 0.9694 0.98546 0.0
C818 C 0.61433 0.01031 0.01917 0.0
H819 H 0.66313 0.07552 0.82474 0.0
H820 H 0.64812 0.04604 0.85683 0.0
H821 H 0.61725 0.03509 0.01312 0.0
H822 H 0.58991 0.95574 0.137 0.0
H823 H 0.60338 0.98541 0.10701 0.0
H824 H 0.64164 0.99908 0.96011 0.0
C825 C 0.65104 0.0559 0.88893 0.0
C826 C 0.62261 0.02726 0.00139 0.0
C827 C 0.65959 0.07277 0.87058 0.0
C828 C 0.59604 0.95939 0.09443 0.0
C829 C 0.6037 0.97637 0.07701 0.0
C830 C 0.63593 0.00662 0.97122 0.0
C831 C 0.64619 0.05178 0.94801 0.0
C832 C 0.63745 0.03392 0.96757 0.0
C833 C 0.61209 0.98162 0.02244 0.0
C834 C 0.62087 0.99974 0.00422 0.0
H835 H 0.66174 0.09149 0.00272 0.0
H836 H 0.64654 0.06197 0.03433 0.0
H837 H 0.65559 0.02835 0.92744 0.0
H838 H 0.60561 0.94356 0.97397 0.0
H839 H 0.61819 0.97277 0.94243 0.0
C840 C 0.06247 0.65985 0.08562 0.0
C841 C 0.07417 0.6542 0.08083 0.0
C842 C 0.04566 0.64939 0.06886 0.0
C843 C 0.01943 0.61746 0.96598 0.0
H844 H 0.98245 0.60657 0.0736 0.0
C845 C 0.94937 0.57598 0.8949 0.0
C846 C 0.93747 0.5795 0.92044 0.0
C847 C 0.96609 0.58414 0.9151 0.0
C848 C 0.99258 0.6097 0.04252 0.0
H849 H 0.07755 0.63325 0.05497 0.0
H850 H 0.04807 0.61508 0.02359 0.0
H851 H 0.0115 0.62254 0.10873 0.0
H852 H 0.93388 0.59479 0.98534 0.0
H853 H 0.96304 0.60961 0.01828 0.0
H854 H 0.00075 0.60553 0.89883 0.0
C855 C 0.05196 0.62751 0.04123 0.0
C856 C 0.0092 0.6187 0.063 0.0
C857 C 0.06873 0.63784 0.05945 0.0
C858 C 0.94272 0.59166 0.96529 0.0
C859 C 0.95946 0.60005 0.98459 0.0
C860 C 0.0028 0.60876 0.94507 0.0
C861 C 0.04033 0.63325 0.0457 0.0
C862 C 0.02275 0.62273 0.02485 0.0
C863 C 0.97136 0.59624 0.96052 0.0
C864 C 0.98912 0.60489 0.98295 0.0
H865 H 0.06636 0.6724 0.10212 0.0
H866 H 0.0369 0.65408 0.07248 0.0
H867 H 0.02975 0.62059 0.93568 0.0
H868 H 0.94565 0.56659 0.86046 0.0
H869 H 0.97476 0.58066 0.89584 0.0
C870 C 0.36599 0.4102 0.03981 0.0
C871 C 0.37359 0.4278 0.04608 0.0
C872 C 0.37479 0.40304 0.01385 0.0
C873 C 0.41816 0.41256 0.97308 0.0
H874 H 0.39314 0.37071 0.88562 0.0
C875 C 0.44904 0.37897 0.84887 0.0
C876 C 0.44275 0.36218 0.86737 0.0
C877 C 0.44093 0.38787 0.86578 0.0
C878 C 0.40027 0.38242 0.90983 0.0
H879 H 0.39631 0.45176 0.02938 0.0
H880 H 0.41152 0.43934 0.98196 0.0
H881 H 0.37849 0.38491 0.92301 0.0
H882 H 0.42285 0.3414 0.9166 0.0
H883 H 0.40844 0.35679 0.9445 0.0
H884 H 0.44001 0.41006 0.95842 0.0
C885 C 0.39891 0.43098 0.99857 0.0
C886 C 0.39188 0.39052 0.93176 0.0
C887 C 0.39017 0.43813 0.0255 0.0
C888 C 0.42802 0.35434 0.90186 0.0
C889 C 0.41973 0.3631 0.91761 0.0
C890 C 0.42661 0.4046 0.95014 0.0
C891 C 0.39133 0.41331 0.99244 0.0
C892 C 0.40062 0.4055 0.96487 0.0
C893 C 0.42619 0.37998 0.9002 0.0
C894 C 0.41765 0.3893 0.91936 0.0
H895 H 0.35329 0.40188 0.05578 0.0
H896 H 0.36864 0.38939 0.01147 0.0
H897 H 0.42532 0.42394 0.99888 0.0
H898 H 0.46042 0.38533 0.82247 0.0
H899 H 0.44611 0.40088 0.85179 0.0
C900 C 0.05739 0.21374 0.47424 0.0
C901 C 0.04702 0.20352 0.42822 0.0
C902 C 0.07271 0.21442 0.48683 0.0
C903 C 0.10549 0.20856 0.41608 0.0
H904 H 0.12039 0.20808 0.57539 0.0
C905 C 0.16781 0.20894 0.4627 0.0
C906 C 0.17764 0.21866 0.51046 0.0
C907 C 0.15143 0.20612 0.45421 0.0
C908 C 0.11653 0.20844 0.53063 0.0
H909 H 0.04445 0.18566 0.36042 0.0
H910 H 0.07117 0.18692 0.38229 0.0
H911 H 0.09258 0.20495 0.5587 0.0
H912 H 0.1779 0.23308 0.58673 0.0
H913 H 0.1496 0.22855 0.57113 0.0
H914 H 0.1295 0.21247 0.3878 0.0
C915 C 0.06749 0.19449 0.40834 0.0
C916 C 0.10056 0.20659 0.52113 0.0
C917 C 0.05212 0.19369 0.39609 0.0
C918 C 0.17067 0.22545 0.54963 0.0
C919 C 0.15435 0.22274 0.54089 0.0
C920 C 0.1215 0.21056 0.42555 0.0
C921 C 0.07806 0.20502 0.45334 0.0
C922 C 0.09487 0.20664 0.46374 0.0
C923 C 0.14451 0.21308 0.49299 0.0
C924 C 0.12727 0.21056 0.48296 0.0
H925 H 0.05382 0.22146 0.49988 0.0
H926 H 0.08063 0.22273 0.52156 0.0
H927 H 0.10157 0.20892 0.37136 0.0
H928 H 0.17274 0.20345 0.43184 0.0
H929 H 0.14416 0.19838 0.41737 0.0
C930 C 0.80598 0.95577 0.54383 0.0
C931 C 0.81186 0.969 0.50257 0.0
C932 C 0.80866 0.94215 0.53537 0.0
C933 C 0.8181 0.91972 0.41911 0.0
H934 H 0.82659 0.89844 0.55227 0.0
C935 C 0.83149 0.86464 0.39093 0.0
C936 C 0.82246 0.85068 0.42841 0.0
C937 C 0.83165 0.87982 0.40107 0.0
C938 C 0.82414 0.90419 0.51472 0.0
H939 H 0.82548 0.97837 0.42039 0.0
H940 H 0.83044 0.95473 0.40602 0.0
H941 H 0.8245 0.92376 0.56749 0.0
H942 H 0.8069 0.8419 0.50695 0.0
H943 H 0.80726 0.86843 0.52476 0.0
H944 H 0.81776 0.90012 0.36641 0.0
C945 C 0.82347 0.95476 0.44456 0.0
C946 C 0.8229 0.91869 0.52338 0.0
C947 C 0.82072 0.96838 0.45291 0.0
C948 C 0.81398 0.85241 0.47721 0.0
C949 C 0.81425 0.86763 0.48758 0.0
C950 C 0.81945 0.90528 0.41042 0.0
C951 C 0.81738 0.94141 0.48551 0.0
C952 C 0.81968 0.92655 0.4758 0.0
C953 C 0.8229 0.88144 0.44918 0.0
C954 C 0.82231 0.89726 0.45819 0.0
H955 H 0.79903 0.95577 0.58253 0.0
H956 H 0.80353 0.932 0.56733 0.0
H957 H 0.81535 0.92524 0.38158 0.0
H958 H 0.83817 0.86376 0.35297 0.0
H959 H 0.8386 0.89029 0.37111 0.0
C960 C 0.06473 0.84767 0.55188 0.0
C961 C 0.05054 0.84108 0.51471 0.0
C962 C 0.07823 0.86407 0.54376 0.0
C963 C 0.09779 0.89809 0.43211 0.0
H964 H 0.12247 0.92542 0.56675 0.0
C965 C 0.15045 0.96774 0.40928 0.0
C966 C 0.16561 0.97239 0.43932 0.0
C967 C 0.13596 0.95219 0.42032 0.0
C968 C 0.11575 0.91788 0.52876 0.0
H969 H 0.03932 0.84671 0.44027 0.0
H970 H 0.06273 0.87551 0.42693 0.0
H971 H 0.09772 0.89755 0.5822 0.0
H972 H 0.17731 0.96453 0.50574 0.0
H973 H 0.15189 0.93738 0.52541 0.0
H974 H 0.11577 0.91855 0.37879 0.0
C975 C 0.06357 0.86785 0.4617 0.0
C976 C 0.10159 0.90189 0.53752 0.0
C977 C 0.05009 0.85137 0.46956 0.0
C978 C 0.16584 0.96132 0.48184 0.0
C979 C 0.15127 0.94581 0.49327 0.0
C980 C 0.11185 0.91414 0.42339 0.0
C981 C 0.07786 0.87438 0.49854 0.0
C982 C 0.0925 0.89172 0.48929 0.0
C983 C 0.13625 0.94099 0.46202 0.0
C984 C 0.12105 0.92415 0.4716 0.0
H985 H 0.06556 0.84007 0.58689 0.0
H986 H 0.08913 0.86851 0.57231 0.0
H987 H 0.09131 0.89053 0.3939 0.0
H988 H 0.14982 0.97597 0.37628 0.0
H989 H 0.12451 0.94891 0.39609 0.0
C990 C 0.21947 0.17361 0.53162 0.0
C991 C 0.2063 0.17293 0.56572 0.0
C992 C 0.22024 0.15895 0.52062 0.0
C993 C 0.20525 0.1161 0.58019 0.0
H994 H 0.22115 0.10895 0.4307 0.0
C995 C 0.2228 0.064 0.54815 0.0
C996 C 0.21817 0.05504 0.49473 0.0
C997 C 0.22106 0.07824 0.55586 0.0
C998 C 0.21655 0.11066 0.47257 0.0
H999 H 0.1833 0.15621 0.6133 0.0
H1000 H 0.18448 0.1306 0.59321 0.0
H1001 H 0.2178 0.13358 0.44384 0.0
H1002 H 0.20799 0.05406 0.40755 0.0
H1003 H 0.20476 0.0787 0.42131 0.0
H1004 H 0.20368 0.09301 0.60854 0.0
C1005 C 0.19441 0.14252 0.57597 0.0
C1006 C 0.21481 0.1249 0.48032 0.0
C1007 C 0.19366 0.15719 0.58713 0.0
C1008 C 0.21178 0.06069 0.4492 0.0
C1009 C 0.21 0.07489 0.45697 0.0
C1010 C 0.20696 0.10185 0.57241 0.0
C1011 C 0.20783 0.14325 0.54327 0.0
C1012 C 0.20919 0.12783 0.53429 0.0
C1013 C 0.21461 0.08385 0.51039 0.0
C1014 C 0.21268 0.09897 0.51856 0.0
H1015 H 0.22945 0.18553 0.51457 0.0
H1016 H 0.23086 0.16004 0.49582 0.0
H1017 H 0.2011 0.11806 0.6226 0.0
H1018 H 0.22788 0.06009 0.58399 0.0
H1019 H 0.22497 0.08499 0.59726 0.0
C1020 C 0.85605 0.05464 0.51829 0.0
C1021 C 0.85566 0.04431 0.56486 0.0
C1022 C 0.87074 0.07001 0.50638 0.0
C1023 C 0.90933 0.10286 0.5782 0.0
H1024 H 0.92502 0.11748 0.41887 0.0
C1025 C 0.97181 0.16478 0.53073 0.0
C1026 C 0.97197 0.17463 0.48288 0.0
C1027 C 0.95811 0.14848 0.53955 0.0
C1028 C 0.92071 0.11369 0.46363 0.0
H1029 H 0.87053 0.04188 0.63458 0.0
H1030 H 0.89609 0.06866 0.61378 0.0
H1031 H 0.90017 0.08977 0.43571 0.0
H1032 H 0.95781 0.17499 0.4068 0.0
H1033 H 0.93385 0.1468 0.42287 0.0
H1034 H 0.92959 0.12684 0.60626 0.0
C1035 C 0.88501 0.06494 0.58681 0.0
C1036 C 0.90648 0.09778 0.47323 0.0
C1037 C 0.87037 0.04953 0.59845 0.0
C1038 C 0.95816 0.16774 0.44396 0.0
C1039 C 0.94443 0.15149 0.45297 0.0
C1040 C 0.92348 0.11881 0.56861 0.0
C1041 C 0.88531 0.07544 0.54103 0.0
C1042 C 0.90062 0.0922 0.53062 0.0
C1043 C 0.94419 0.14165 0.50096 0.0
C1044 C 0.92935 0.12447 0.51119 0.0
H1045 H 0.84494 0.05099 0.49155 0.0
H1046 H 0.87054 0.07788 0.47107 0.0
H1047 H 0.90498 0.09903 0.62291 0.0
H1048 H 0.98227 0.16966 0.56143 0.0
H1049 H 0.9585 0.14118 0.57647 0.0
C1050 C 0.97368 0.82242 0.60929 0.0
C1051 C 0.97765 0.81176 0.57687 0.0
C1052 C 0.95877 0.82269 0.5982 0.0
C1053 C 0.92552 0.8121 0.48701 0.0
H1054 H 0.89815 0.8096 0.62121 0.0
C1055 C 0.85643 0.79662 0.46175 0.0
C1056 C 0.85034 0.80458 0.4994 0.0
C1057 C 0.87248 0.79862 0.47012 0.0
C1058 C 0.90574 0.81058 0.58321 0.0
H1059 H 0.96926 0.79334 0.50625 0.0
H1060 H 0.94324 0.79387 0.48675 0.0
H1061 H 0.92529 0.81122 0.63697 0.0
H1062 H 0.85651 0.82113 0.575 0.0
H1063 H 0.88468 0.82491 0.58895 0.0
H1064 H 0.90604 0.81151 0.43317 0.0
C1065 C 0.9517 0.80205 0.52069 0.0
C1066 C 0.9213 0.81147 0.59229 0.0
C1067 C 0.96657 0.80169 0.53206 0.0
C1068 C 0.86078 0.81477 0.54529 0.0
C1069 C 0.8769 0.81685 0.5535 0.0
C1070 C 0.91001 0.81132 0.47791 0.0
C1071 C 0.94754 0.8124 0.55414 0.0
C1072 C 0.93131 0.8121 0.5443 0.0
C1073 C 0.88292 0.80872 0.51619 0.0
C1074 C 0.89983 0.81039 0.52589 0.0
H1075 H 0.98195 0.83037 0.64405 0.0
H1076 H 0.95602 0.83096 0.62422 0.0
H1077 H 0.93306 0.81281 0.44915 0.0
H1078 H 0.84871 0.7886 0.42611 0.0
H1079 H 0.87653 0.79192 0.44113 0.0
C1080 C 0.83502 0.54568 0.91476 0.0
C1081 C 0.84586 0.54937 0.86613 0.0
C1082 C 0.81922 0.5444 0.90819 0.0
C1083 C 0.7865 0.53629 0.79859 0.0
H1084 H 0.77254 0.55939 0.90876 0.0
C1085 C 0.73007 0.5459 0.75194 0.0
C1086 C 0.7198 0.54533 0.79896 0.0
C1087 C 0.74477 0.54524 0.76224 0.0
C1088 C 0.77609 0.55261 0.87818 0.0
H1089 H 0.84849 0.55463 0.77242 0.0
H1090 H 0.82084 0.55226 0.76097 0.0
H1091 H 0.79958 0.56054 0.92251 0.0
H1092 H 0.71676 0.54326 0.89376 0.0
H1093 H 0.74234 0.54173 0.91178 0.0
H1094 H 0.76303 0.52824 0.75439 0.0
C1095 C 0.82459 0.55027 0.80411 0.0
C1096 C 0.79162 0.55334 0.88596 0.0
C1097 C 0.84047 0.5517 0.81074 0.0
C1098 C 0.72443 0.54379 0.85659 0.0
C1099 C 0.73915 0.54302 0.86691 0.0
C1100 C 0.77092 0.53544 0.79107 0.0
C1101 C 0.81382 0.54665 0.8528 0.0
C1102 C 0.79707 0.54535 0.84585 0.0
C1103 C 0.74956 0.54385 0.81982 0.0
C1104 C 0.76561 0.54378 0.83031 0.0
H1105 H 0.83873 0.5438 0.95811 0.0
H1106 H 0.81113 0.54146 0.9464 0.0
H1107 H 0.79024 0.52978 0.76755 0.0
H1108 H 0.72695 0.54719 0.70696 0.0
H1109 H 0.7526 0.54624 0.72496 0.0
C1110 C 0.47341 0.2944 0.75488 0.0
C1111 C 0.47048 0.29861 0.81138 0.0
C1112 C 0.47451 0.27983 0.74594 0.0
C1113 C 0.47992 0.24715 0.82673 0.0
H1114 H 0.46386 0.2228 0.67952 0.0
C1115 C 0.47124 0.18042 0.78022 0.0
C1116 C 0.47905 0.17943 0.72826 0.0
C1117 C 0.47025 0.19492 0.7926 0.0
C1118 C 0.46842 0.22952 0.72078 0.0
H1119 H 0.4661 0.29065 0.90271 0.0
H1120 H 0.46728 0.26495 0.88689 0.0
H1121 H 0.46168 0.24796 0.69661 0.0
H1122 H 0.4919 0.19281 0.64859 0.0
H1123 H 0.48979 0.21785 0.66969 0.0
H1124 H 0.48614 0.22821 0.85114 0.0
C1125 C 0.46934 0.27314 0.8496 0.0
C1126 C 0.46731 0.24403 0.7305 0.0
C1127 C 0.46855 0.28786 0.85867 0.0
C1128 C 0.48586 0.1932 0.68911 0.0
C1129 C 0.48458 0.2075 0.70094 0.0
C1130 C 0.48074 0.23244 0.81733 0.0
C1131 C 0.47237 0.26891 0.79311 0.0
C1132 C 0.47321 0.25318 0.78339 0.0
C1133 C 0.47673 0.20849 0.75265 0.0
C1134 C 0.47516 0.22361 0.76403 0.0
H1135 H 0.47505 0.30245 0.71755 0.0
H1136 H 0.47721 0.27726 0.702 0.0
H1137 H 0.48487 0.25395 0.86759 0.0
H1138 H 0.46591 0.17001 0.81121 0.0
H1139 H 0.46409 0.19539 0.83272 0.0
C1140 C 0.73584 0.18785 0.89146 0.0
C1141 C 0.72621 0.1776 0.84434 0.0
C1142 C 0.75025 0.20357 0.88096 0.0
C1143 C 0.78069 0.2285 0.76151 0.0
H1144 H 0.79311 0.26612 0.86786 0.0
C1145 C 0.83138 0.29686 0.70421 0.0
C1146 C 0.84426 0.30512 0.74617 0.0
C1147 C 0.8168 0.28164 0.71799 0.0
C1148 C 0.78981 0.25568 0.83802 0.0
H1149 H 0.7238 0.17606 0.74936 0.0
H1150 H 0.74839 0.20359 0.731 0.0
H1151 H 0.76787 0.2389 0.88793 0.0
H1152 H 0.85169 0.30421 0.83615 0.0
H1153 H 0.82593 0.27772 0.86059 0.0
H1154 H 0.80238 0.24552 0.71078 0.0
C1155 C 0.74531 0.19933 0.77611 0.0
C1156 C 0.7754 0.24003 0.84959 0.0
C1157 C 0.7311 0.18352 0.78661 0.0
C1158 C 0.842 0.29811 0.80285 0.0
C1159 C 0.82726 0.28301 0.81693 0.0
C1160 C 0.79489 0.24418 0.74952 0.0
C1161 C 0.7552 0.20953 0.82307 0.0
C1162 C 0.77063 0.22622 0.81141 0.0
C1163 C 0.81466 0.2745 0.77429 0.0
C1164 C 0.79958 0.25792 0.78758 0.0
H1165 H 0.73242 0.18359 0.93648 0.0
H1166 H 0.75764 0.2109 0.91828 0.0
H1167 H 0.77774 0.21812 0.73181 0.0
H1168 H 0.83274 0.3019 0.66013 0.0
H1169 H 0.8072 0.27538 0.68449 0.0
C1170 C 0.88865 0.49789 0.86797 0.0
C1171 C 0.87655 0.49706 0.90813 0.0
C1172 C 0.88947 0.48337 0.8543 0.0
C1173 C 0.87899 0.4421 0.91589 0.0
H1174 H 0.88434 0.43086 0.75588 0.0
C1175 C 0.87746 0.37964 0.86037 0.0
C1176 C 0.88883 0.3803 0.81738 0.0
C1177 C 0.87523 0.39354 0.86971 0.0
C1178 C 0.88306 0.43391 0.80092 0.0
H1179 H 0.85561 0.48024 0.96445 0.0
H1180 H 0.85712 0.45505 0.94077 0.0
H1181 H 0.88214 0.45599 0.77471 0.0
H1182 H 0.9068 0.39613 0.7506 0.0
H1183 H 0.90323 0.4204 0.76783 0.0
H1184 H 0.88028 0.42033 0.94252 0.0
C1185 C 0.86603 0.46692 0.92018 0.0
C1186 C 0.88176 0.4483 0.81162 0.0
C1187 C 0.86512 0.48136 0.93344 0.0
C1188 C 0.89785 0.39513 0.78384 0.0
C1189 C 0.89572 0.40905 0.79348 0.0
C1190 C 0.88044 0.42781 0.9053 0.0
C1191 C 0.87831 0.46778 0.88094 0.0
C1192 C 0.87969 0.45253 0.86921 0.0
C1193 C 0.88441 0.40847 0.83661 0.0
C1194 C 0.88249 0.42351 0.84767 0.0
H1195 H 0.89762 0.50978 0.84769 0.0
H1196 H 0.89912 0.48442 0.82411 0.0
H1197 H 0.87765 0.44517 0.96087 0.0
H1198 H 0.87027 0.36839 0.88683 0.0
H1199 H 0.86621 0.39253 0.90269 0.0
C1200 C 0.53184 0.39579 0.91676 0.0
C1201 C 0.5197 0.38523 0.87537 0.0
C1202 C 0.54486 0.41179 0.90055 0.0
C1203 C 0.57186 0.43685 0.78312 0.0
H1204 H 0.57656 0.47533 0.87115 0.0
C1205 C 0.62667 0.50501 0.73768 0.0
C1206 C 0.63371 0.51564 0.78677 0.0
C1207 C 0.61175 0.48939 0.7432 0.0
C1208 C 0.57562 0.46474 0.84656 0.0
H1209 H 0.5119 0.383 0.78415 0.0
H1210 H 0.53522 0.41099 0.75527 0.0
H1211 H 0.55272 0.44723 0.89074 0.0
H1212 H 0.63064 0.51807 0.88026 0.0
H1213 H 0.60525 0.49079 0.89044 0.0
H1214 H 0.59522 0.45406 0.74116 0.0
C1215 C 0.53438 0.40682 0.80042 0.0
C1216 C 0.56186 0.44868 0.85751 0.0
C1217 C 0.52107 0.39089 0.81697 0.0
C1218 C 0.6255 0.5103 0.84137 0.0
C1219 C 0.61079 0.49463 0.84708 0.0
C1220 C 0.58586 0.4529 0.77288 0.0
C1221 C 0.54623 0.41746 0.84236 0.0
C1222 C 0.55998 0.43458 0.82647 0.0
C1223 C 0.60365 0.48393 0.79812 0.0
C1224 C 0.58808 0.46704 0.80519 0.0
H1225 H 0.5311 0.39185 0.96215 0.0
H1226 H 0.55393 0.41975 0.93352 0.0
H1227 H 0.57069 0.4261 0.75892 0.0
H1228 H 0.63264 0.50879 0.69489 0.0
H1229 H 0.60654 0.48165 0.70428 0.0
C1230 C 0.6288 0.13267 0.88696 0.0
C1231 C 0.64096 0.13863 0.84181 0.0
C1232 C 0.61305 0.13129 0.87823 0.0
C1233 C 0.58307 0.12818 0.76382 0.0
H1234 H 0.56463 0.14257 0.89026 0.0
C1235 C 0.52227 0.13227 0.73683 0.0
C1236 C 0.51089 0.12689 0.78441 0.0
C1237 C 0.53818 0.13374 0.74276 0.0
C1238 C 0.56949 0.13831 0.85479 0.0
H1239 H 0.64596 0.14756 0.75159 0.0
H1240 H 0.61835 0.14523 0.73642 0.0
H1241 H 0.59233 0.14518 0.90166 0.0
H1242 H 0.50735 0.11869 0.87552 0.0
H1243 H 0.53502 0.1211 0.88566 0.0
H1244 H 0.56016 0.12124 0.71705 0.0
C1245 C 0.62105 0.14154 0.77852 0.0
C1246 C 0.58539 0.13983 0.86128 0.0
C1247 C 0.63689 0.14295 0.78729 0.0
C1248 C 0.5158 0.12295 0.83804 0.0
C1249 C 0.53171 0.12442 0.84395 0.0
C1250 C 0.56713 0.12664 0.75734 0.0
C1251 C 0.60902 0.13583 0.82414 0.0
C1252 C 0.59233 0.13469 0.81604 0.0
C1253 C 0.54311 0.12986 0.79641 0.0
C1254 C 0.56012 0.13161 0.80289 0.0
H1255 H 0.63143 0.1291 0.92942 0.0
H1256 H 0.60397 0.12654 0.91391 0.0
H1257 H 0.58798 0.12393 0.72844 0.0
H1258 H 0.51896 0.13547 0.69489 0.0
H1259 H 0.54671 0.13819 0.70551 0.0
C1260 C 0.51352 0.89501 0.22534 0.0
C1261 C 0.52037 0.88817 0.18593 0.0
C1262 C 0.49686 0.89149 0.21913 0.0
C1263 C 0.45571 0.86139 0.15316 0.0
H1264 H 0.44697 0.89861 0.16804 0.0
C1265 C 0.39229 0.8563 0.08492 0.0
C1266 C 0.38638 0.86534 0.11775 0.0
C1267 C 0.40809 0.85803 0.09685 0.0
C1268 C 0.4491 0.888 0.16471 0.0
H1269 H 0.51497 0.87209 0.10933 0.0
H1270 H 0.48583 0.86596 0.09848 0.0
H1271 H 0.47558 0.90372 0.18102 0.0
H1272 H 0.39211 0.88267 0.19075 0.0
H1273 H 0.41949 0.8854 0.2124 0.0
H1274 H 0.42919 0.84565 0.13685 0.0
C1275 C 0.49337 0.87397 0.13445 0.0
C1276 C 0.46554 0.89096 0.17197 0.0
C1277 C 0.51009 0.87755 0.14049 0.0
C1278 C 0.39633 0.87562 0.16432 0.0
C1279 C 0.4121 0.87729 0.17644 0.0
C1280 C 0.43922 0.85841 0.14614 0.0
C1281 C 0.48661 0.881 0.17348 0.0
C1282 C 0.46905 0.8777 0.16615 0.0
C1283 C 0.41833 0.86877 0.14211 0.0
C1284 C 0.43572 0.8717 0.15167 0.0
H1285 H 0.52104 0.90319 0.26099 0.0
H1286 H 0.49196 0.89692 0.25038 0.0
H1287 H 0.45798 0.85088 0.14912 0.0
H1288 H 0.38496 0.8483 0.04864 0.0
H1289 H 0.41252 0.85141 0.06913 0.0
C1290 C 0.14582 0.63768 0.1342 0.0
C1291 C 0.13482 0.6376 0.17759 0.0
C1292 C 0.14796 0.62364 0.12681 0.0
C1293 C 0.14053 0.58417 0.20205 0.0
H1294 H 0.14433 0.57044 0.04408 0.0
C1295 C 0.1326 0.51861 0.14546 0.0
C1296 C 0.1442 0.5185 0.10509 0.0
C1297 C 0.13239 0.53357 0.15684 0.0
C1298 C 0.14344 0.57421 0.08851 0.0
H1299 H 0.11737 0.62262 0.24696 0.0
H1300 H 0.12074 0.59816 0.2331 0.0
H1301 H 0.14234 0.59582 0.05838 0.0
H1302 H 0.16492 0.53411 0.04602 0.0
H1303 H 0.16446 0.56007 0.06569 0.0
H1304 H 0.14121 0.56225 0.23183 0.0
C1305 C 0.12808 0.60916 0.20569 0.0
C1306 C 0.14237 0.58881 0.09677 0.0
C1307 C 0.12605 0.6232 0.21337 0.0
C1308 C 0.15578 0.53372 0.07728 0.0
C1309 C 0.15547 0.54859 0.08823 0.0
C1310 C 0.14144 0.56948 0.19371 0.0
C1311 C 0.13905 0.60917 0.16233 0.0
C1312 C 0.14084 0.59396 0.15365 0.0
C1313 C 0.14367 0.54866 0.12764 0.0
C1314 C 0.14288 0.56434 0.13685 0.0
H1315 H 0.1528 0.64859 0.10601 0.0
H1316 H 0.15669 0.6242 0.09347 0.0
H1317 H 0.13968 0.5879 0.24658 0.0
H1318 H 0.12352 0.5071 0.16763 0.0
H1319 H 0.1231 0.53323 0.18722 0.0
C1320 C 0.50941 0.62479 0.15208 0.0
C1321 C 0.51069 0.63851 0.18441 0.0
C1322 C 0.49556 0.60858 0.15947 0.0
C1323 C 0.45999 0.58143 0.2577 0.0
H1324 H 0.4393 0.55731 0.11324 0.0
C1325 C 0.39436 0.52036 0.25169 0.0
C1326 C 0.39201 0.50769 0.21131 0.0
C1327 C 0.40928 0.53605 0.2514 0.0
C1328 C 0.44504 0.56372 0.15409 0.0
H1329 H 0.49874 0.64576 0.25188 0.0
H1330 H 0.47446 0.61733 0.26472 0.0
H1331 H 0.46466 0.585 0.10861 0.0
H1332 H 0.40378 0.50149 0.14005 0.0
H1333 H 0.42985 0.52865 0.14035 0.0
H1334 H 0.44033 0.56007 0.30317 0.0
C1335 C 0.48424 0.61919 0.23369 0.0
C1336 C 0.45958 0.57963 0.15141 0.0
C1337 C 0.49812 0.63548 0.22618 0.0
C1338 C 0.40508 0.51098 0.17149 0.0
C1339 C 0.42002 0.52662 0.17143 0.0
C1340 C 0.44545 0.56543 0.26042 0.0
C1341 C 0.48265 0.60564 0.19946 0.0
C1342 C 0.46725 0.58866 0.20312 0.0
C1343 C 0.42224 0.53943 0.21091 0.0
C1344 C 0.43781 0.55637 0.20859 0.0
H1345 H 0.51892 0.62661 0.11989 0.0
H1346 H 0.49486 0.59834 0.13326 0.0
H1347 H 0.46569 0.58803 0.29831 0.0
H1348 H 0.38455 0.5183 0.2829 0.0
H1349 H 0.41047 0.54568 0.28198 0.0
C1350 C 0.56036 0.73373 0.23116 0.0
C1351 C 0.55382 0.72358 0.1807 0.0
C1352 C 0.55878 0.74806 0.23871 0.0
C1353 C 0.552 0.77884 0.15521 0.0
H1354 H 0.5424 0.7903 0.3092 0.0
C1355 C 0.56038 0.84439 0.20886 0.0
C1356 C 0.5485 0.84508 0.24635 0.0
C1357 C 0.55996 0.8291 0.19884 0.0
C1358 C 0.54492 0.78719 0.26576 0.0
H1359 H 0.54028 0.72049 0.09893 0.0
H1360 H 0.53741 0.74538 0.11244 0.0
H1361 H 0.54339 0.76431 0.29643 0.0
H1362 H 0.52656 0.83013 0.30142 0.0
H1363 H 0.52573 0.8034 0.28341 0.0
H1364 H 0.55335 0.80163 0.12442 0.0
C1365 C 0.54397 0.74238 0.1458 0.0
C1366 C 0.54569 0.7724 0.2586 0.0
C1367 C 0.54554 0.72805 0.13823 0.0
C1368 C 0.53595 0.83005 0.2725 0.0
C1369 C 0.53553 0.81475 0.26248 0.0
C1370 C 0.55124 0.79364 0.16238 0.0
C1371 C 0.55063 0.7526 0.19599 0.0
C1372 C 0.54934 0.76809 0.20332 0.0
C1373 C 0.54765 0.81412 0.22604 0.0
C1374 C 0.54779 0.79804 0.21781 0.0
H1375 H 0.56689 0.73074 0.26463 0.0
H1376 H 0.56425 0.75578 0.27752 0.0
H1377 H 0.555 0.77598 0.11213 0.0
H1378 H 0.57023 0.85574 0.18805 0.0
H1379 H 0.56959 0.8291 0.17104 0.0
C1380 C 0.29186 0.83152 0.12094 0.0
C1381 C 0.29926 0.84207 0.16995 0.0
C1382 C 0.27681 0.81602 0.12693 0.0
C1383 C 0.24094 0.79205 0.23192 0.0
H1384 H 0.23336 0.75334 0.13853 0.0
C1385 C 0.19149 0.72354 0.29169 0.0
C1386 C 0.1795 0.7144 0.24787 0.0
C1387 C 0.20588 0.73898 0.27853 0.0
C1388 C 0.23531 0.76411 0.16454 0.0
H1389 H 0.29687 0.84441 0.26392 0.0
H1390 H 0.27128 0.8173 0.27493 0.0
H1391 H 0.25897 0.78066 0.123 0.0
H1392 H 0.17344 0.71401 0.1554 0.0
H1393 H 0.19903 0.7409 0.13202 0.0
H1394 H 0.21761 0.7752 0.27516 0.0
C1395 C 0.27658 0.82114 0.23128 0.0
C1396 C 0.24992 0.7798 0.15552 0.0
C1397 C 0.2914 0.83671 0.22508 0.0
C1398 C 0.18246 0.72079 0.19009 0.0
C1399 C 0.19707 0.73612 0.17666 0.0
C1400 C 0.22655 0.77633 0.24164 0.0
C1401 C 0.26896 0.81058 0.18229 0.0
C1402 C 0.25303 0.79398 0.18952 0.0
C1403 C 0.20875 0.74546 0.22104 0.0
C1404 C 0.22367 0.7622 0.20838 0.0
H1405 H 0.29757 0.83532 0.07778 0.0
H1406 H 0.27125 0.80841 0.08797 0.0
H1407 H 0.24255 0.80269 0.25787 0.0
H1408 H 0.18956 0.71901 0.33666 0.0
H1409 H 0.21476 0.74592 0.31339 0.0
C1410 C 0.29649 0.4791 0.19772 0.0
C1411 C 0.3047 0.48625 0.25121 0.0
C1412 C 0.28127 0.47844 0.18357 0.0
C1413 C 0.24433 0.47562 0.25407 0.0
H1414 H 0.23506 0.48906 0.10314 0.0
C1415 C 0.18177 0.47462 0.21162 0.0
C1416 C 0.17451 0.46999 0.15539 0.0
C1417 C 0.19804 0.47743 0.22201 0.0
C1418 C 0.23733 0.485 0.14523 0.0
H1419 H 0.30364 0.49874 0.33099 0.0
H1420 H 0.27696 0.49732 0.30657 0.0
H1421 H 0.26297 0.49265 0.12244 0.0
H1422 H 0.17858 0.46459 0.06593 0.0
H1423 H 0.2067 0.46882 0.08445 0.0
H1424 H 0.21869 0.46739 0.27658 0.0
C1425 C 0.28233 0.49226 0.27568 0.0
C1426 C 0.25336 0.48716 0.15628 0.0
C1427 C 0.29764 0.49315 0.28944 0.0
C1428 C 0.18387 0.46823 0.10971 0.0
C1429 C 0.20006 0.47078 0.12029 0.0
C1430 C 0.22826 0.47322 0.24278 0.0
C1431 C 0.27389 0.48469 0.22304 0.0
C1432 C 0.25701 0.48257 0.21093 0.0
C1433 C 0.20737 0.47541 0.17663 0.0
C1434 C 0.22454 0.47794 0.1883 0.0
H1435 H 0.30165 0.47372 0.16729 0.0
H1436 H 0.27497 0.47248 0.14279 0.0
H1437 H 0.24676 0.47172 0.29626 0.0
H1438 H 0.17498 0.47634 0.24751 0.0
H1439 H 0.20335 0.48136 0.26562 0.0
C1440 C 0.00883 0.20891 0.18909 0.0
C1441 C 0.0227 0.22242 0.21721 0.0
C1442 C 0.00847 0.20736 0.12796 0.0
C1443 C 0.03524 0.22148 0.99431 0.0
H1444 H 0.9927 0.20906 0.91745 0.0
C1445 C 0.02745 0.22564 0.74154 0.0
C1446 C 0.01259 0.21259 0.71621 0.0
C1447 C 0.02979 0.22633 0.80259 0.0
C1448 C 0.00462 0.21233 0.93823 0.0
H1449 H 0.04725 0.24474 0.20326 0.0
H1450 H 0.04649 0.24215 0.09625 0.0
H1451 H 0.99463 0.21133 0.024 0.0
H1452 H 0.98901 0.18951 0.73459 0.0
H1453 H 0.99319 0.19064 0.84045 0.0
H1454 H 0.04522 0.22265 0.90788 0.0
C1455 C 0.03598 0.23265 0.12162 0.0
C1456 C 0.00573 0.21363 0.99936 0.0
C1457 C 0.03637 0.23418 0.18291 0.0
C1458 C 0.00052 0.19986 0.75273 0.0
C1459 C 0.00286 0.20053 0.81348 0.0
C1460 C 0.03414 0.22022 0.93289 0.0
C1461 C 0.02194 0.21931 0.09343 0.0
C1462 C 0.021 0.21811 0.02821 0.0
C1463 C 0.01731 0.21399 0.83926 0.0
C1464 C 0.01877 0.21551 0.90428 0.0
H1465 H 0.99817 0.19955 0.21425 0.0
H1466 H 0.9976 0.19676 0.10771 0.0
H1467 H 0.04716 0.22484 0.01527 0.0
H1468 H 0.03698 0.23564 0.71451 0.0
H1469 H 0.04103 0.23689 0.82122 0.0
C1470 C 0.81104 0.79907 0.20663 0.0
C1471 C 0.79907 0.80194 0.2352 0.0
C1472 C 0.8124 0.79988 0.14541 0.0
C1473 C 0.80233 0.81682 0.01362 0.0
H1474 H 0.80917 0.78333 0.93291 0.0
C1475 C 0.79994 0.80895 0.7592 0.0
C1476 C 0.81186 0.80536 0.7341 0.0
C1477 C 0.79857 0.80952 0.82041 0.0
C1478 C 0.80745 0.79289 0.95482 0.0
H1479 H 0.77915 0.80795 0.22183 0.0
H1480 H 0.78141 0.80916 0.11468 0.0
H1481 H 0.80603 0.78202 0.03938 0.0
H1482 H 0.83222 0.80037 0.75344 0.0
H1483 H 0.82994 0.80154 0.85971 0.0
H1484 H 0.80369 0.82762 0.9286 0.0
C1485 C 0.78987 0.80648 0.13979 0.0
C1486 C 0.80565 0.79214 0.01586 0.0
C1487 C 0.78851 0.80568 0.20115 0.0
C1488 C 0.82279 0.80301 0.77131 0.0
C1489 C 0.82142 0.80357 0.83228 0.0
C1490 C 0.80411 0.81756 0.95236 0.0
C1491 C 0.80181 0.80354 0.11124 0.0
C1492 C 0.8032 0.80416 0.04607 0.0
C1493 C 0.80908 0.80649 0.85756 0.0
C1494 C 0.80684 0.80568 0.9224 0.0
H1495 H 0.81944 0.79626 0.23153 0.0
H1496 H 0.82191 0.79781 0.12486 0.0
H1497 H 0.80062 0.82637 0.03567 0.0
H1498 H 0.79132 0.8108 0.73168 0.0
H1499 H 0.78889 0.81173 0.83861 0.0
C1500 C 0.20691 0.01143 0.20162 0.0
C1501 C 0.20806 0.99819 0.22847 0.0
C1502 C 0.20545 0.01191 0.14071 0.0
C1503 C 0.19481 0.98628 0.00513 0.0
H1504 H 0.22303 0.03 0.93206 0.0
C1505 C 0.2089 0.99675 0.75441 0.0
C1506 C 0.21044 0.01159 0.7299 0.0
C1507 C 0.20625 0.9937 0.81488 0.0
C1508 C 0.21487 0.01774 0.95176 0.0
H1509 H 0.20813 0.97481 0.21259 0.0
H1510 H 0.20582 0.97579 0.10568 0.0
H1511 H 0.22319 0.02739 0.0383 0.0
H1512 H 0.20913 0.03419 0.74859 0.0
H1513 H 0.20427 0.02874 0.85357 0.0
H1514 H 0.18671 0.97666 0.91787 0.0
C1515 C 0.20588 0.9857 0.132 0.0
C1516 C 0.21497 0.01625 0.01271 0.0
C1517 C 0.2073 0.9852 0.19316 0.0
C1518 C 0.20823 0.02276 0.76627 0.0
C1519 C 0.20553 0.01968 0.82647 0.0
C1520 C 0.19472 0.98779 0.94385 0.0
C1521 C 0.20518 0.9992 0.10513 0.0
C1522 C 0.20491 0.00054 0.04016 0.0
C1523 C 0.20506 0.00541 0.85173 0.0
C1524 C 0.2047 0.00357 0.91662 0.0
H1525 H 0.20727 0.02155 0.22759 0.0
H1526 H 0.20461 0.02231 0.12142 0.0
H1527 H 0.18683 0.97403 0.02511 0.0
H1528 H 0.21053 0.98789 0.72744 0.0
H1529 H 0.206 0.98261 0.83311 0.0
C1530 C 0.0153 0.80251 0.80853 0.0
C1531 C 0.00142 0.78953 0.77855 0.0
C1532 C 0.01487 0.80408 0.86958 0.0
C1533 C 0.99391 0.77991 0.00345 0.0
H1534 H 0.01269 0.82441 0.07363 0.0
C1535 C 0.99401 0.78912 0.25548 0.0
C1536 C 0.0094 0.80182 0.27899 0.0
C1537 C 0.99126 0.78793 0.19459 0.0
C1538 C 0.00747 0.8119 0.05475 0.0
H1539 H 0.97616 0.76799 0.7893 0.0
H1540 H 0.97542 0.77076 0.89591 0.0
H1541 H 0.01153 0.82156 0.96681 0.0
H1542 H 0.03371 0.82358 0.25713 0.0
H1543 H 0.02898 0.82144 0.15161 0.0
H1544 H 0.99016 0.77027 0.09139 0.0
C1545 C 0.98669 0.77966 0.87217 0.0
C1546 C 0.00683 0.81027 0.99354 0.0
C1547 C 0.9871 0.77812 0.81104 0.0
C1548 C 0.02171 0.81363 0.24056 0.0
C1549 C 0.01895 0.81247 0.17993 0.0
C1550 C 0.99458 0.78154 0.06473 0.0
C1551 C 0.00056 0.79268 0.90213 0.0
C1552 C 1.00027 0.79428 0.96716 0.0
C1553 C 0.0038 0.79947 0.15606 0.0
C1554 C 0.00161 0.79758 0.09112 0.0
H1555 H 0.02654 0.81151 0.78488 0.0
H1556 H 0.02586 0.8141 0.89141 0.0
H1557 H 0.98892 0.76742 0.98453 0.0
H1558 H 0.98427 0.77983 0.28391 0.0
H1559 H 0.97937 0.77788 0.17764 0.0
C1560 C 0.22916 0.21311 0.25272 0.0
C1561 C 0.21709 0.21682 0.27564 0.0
C1562 C 0.22999 0.21088 0.1921 0.0
C1563 C 0.20572 0.20277 0.05317 0.0
H1564 H 0.24998 0.22672 0.98013 0.0
C1565 C 0.21458 0.21843 0.80589 0.0
C1566 C 0.22724 0.21703 0.77566 0.0
C1567 C 0.21313 0.2166 0.86699 0.0
C1568 C 0.23754 0.21974 -0.00014 0.0
H1569 H 0.19609 0.22053 0.25313 0.0
H1570 H 0.19761 0.21676 0.14798 0.0
H1571 H 0.24762 0.22613 0.08712 0.0
H1572 H 0.24825 0.2125 0.78594 0.0
H1573 H 0.24567 0.20925 0.89269 0.0
H1574 H 0.19562 0.19667 0.96592 0.0
C1575 C 0.20635 0.21543 0.17661 0.0
C1576 C 0.23619 0.21938 0.06121 0.0
C1577 C 0.20556 0.21771 0.23698 0.0
C1578 C 0.23838 0.21369 0.8079 0.0
C1579 C 0.23695 0.2119 0.8691 0.0
C1580 C 0.20707 0.20314 0.9919 0.0
C1581 C 0.21871 0.21222 0.1533 0.0
C1582 C 0.22025 0.21114 0.08853 0.0
C1583 C 0.22431 0.21335 0.89934 0.0
C1584 C 0.22298 0.21188 0.9645 0.0
H1585 H 0.23821 0.21233 0.28138 0.0
H1586 H 0.23955 0.20825 0.17554 0.0
H1587 H 0.19326 0.19605 0.07288 0.0
H1588 H 0.2058 0.22102 0.78243 0.0
H1589 H 0.20341 0.21804 0.88902 0.0
C1590 C 0.81323 0.99776 0.23096 0.0
C1591 C 0.81303 0.00992 0.26819 0.0
C1592 C 0.8142 0.99996 0.17012 0.0
C1593 C 0.82455 0.03089 0.05033 0.0
H1594 H 0.79283 0.99109 0.96262 0.0
C1595 C 0.81148 0.03214 0.80077 0.0
C1596 C 0.8095 0.01835 0.76714 0.0
C1597 C 0.81266 0.03196 0.86212 0.0
C1598 C 0.80191 0.00227 0.9863 0.0
H1599 H 0.8145 0.03436 0.27095 0.0
H1600 H 0.8161 0.03818 0.16405 0.0
H1601 H 0.79419 0.98958 0.06907 0.0
H1602 H 0.8076 0.99373 0.77145 0.0
H1603 H 0.80986 0.9935 0.878 0.0
H1604 H 0.83226 0.04356 0.96708 0.0
C1605 C 0.81558 0.02696 0.18221 0.0
C1606 C 0.80269 0.00141 0.04736 0.0
C1607 C 0.81463 0.02476 0.24337 0.0
C1608 C 0.80897 0.00449 0.79604 0.0
C1609 C 0.81018 0.00433 0.85721 0.0
C1610 C 0.8238 0.03175 0.98897 0.0
C1611 C 0.81494 0.01436 0.14495 0.0
C1612 C 0.81411 0.01564 0.08006 0.0
C1613 C 0.8119 0.01799 0.89104 0.0
C1614 C 0.81255 0.01739 0.95627 0.0
H1615 H 0.81222 0.98628 0.24867 0.0
H1616 H 0.81407 0.99021 0.14263 0.0
H1617 H 0.83353 0.04204 0.07437 0.0
H1618 H 0.81194 0.04302 0.77982 0.0
H1619 H 0.81383 0.04261 0.88695 0.0
C1620 C 0.6665 0.53754 0.06433 0.0
C1621 C 0.67778 0.55014 0.02554 0.0
C1622 C 0.67069 0.53767 0.12347 0.0
C1623 C 0.69738 0.5673 0.2386 0.0
H1624 H 0.68148 0.52623 0.33004 0.0
C1625 C 0.70835 0.56834 0.48979 0.0
C1626 C 0.69429 0.55699 0.52352 0.0
C1627 C 0.70802 0.56712 0.4284 0.0
C1628 C 0.68593 0.53781 0.30513 0.0
H1629 H 0.70273 0.57228 0.01786 0.0
H1630 H 0.71016 0.57241 0.12136 0.0
H1631 H 0.67868 0.52452 0.22313 0.0
H1632 H 0.66894 0.53531 0.5191 0.0
H1633 H 0.66836 0.53322 0.41202 0.0
H1634 H 0.70442 0.58055 0.32072 0.0
C1635 C 0.69793 0.56257 0.10605 0.0
C1636 C 0.68434 0.53684 0.24385 0.0
C1637 C 0.69373 0.56242 0.04665 0.0
C1638 C 0.67998 0.54426 0.49448 0.0
C1639 C 0.67969 0.54299 0.4331 0.0
C1640 C 0.69903 0.56827 0.29987 0.0
C1641 C 0.68629 0.55041 0.14546 0.0
C1642 C 0.68976 0.55155 0.20986 0.0
C1643 C 0.69367 0.55446 0.39932 0.0
C1644 C 0.69305 0.55351 0.33394 0.0
H1645 H 0.65412 0.52785 0.04957 0.0
H1646 H 0.66133 0.52821 0.15247 0.0
H1647 H 0.70146 0.57887 0.21402 0.0
H1648 H 0.7196 0.57828 0.51072 0.0
H1649 H 0.71905 0.57605 0.4037 0.0
C1650 C 0.45227 0.14097 0.4888 0.0
C1651 C 0.46339 0.13779 0.52182 0.0
C1652 C 0.45414 0.1431 0.42777 0.0
C1653 C 0.48484 0.15235 0.30683 0.0
H1654 H 0.44475 0.12835 0.20999 0.0
C1655 C 0.48676 0.13444 0.06577 0.0
C1656 C 0.47513 0.13454 0.02558 0.0
C1657 C 0.48618 0.13803 0.12511 0.0
C1658 C 0.45605 0.1354 0.23632 0.0
H1659 H 0.48531 0.13453 0.51672 0.0
H1660 H 0.48842 0.13801 0.41056 0.0
H1661 H 0.44191 0.12837 0.31659 0.0
H1662 H 0.45423 0.13925 0.01568 0.0
H1663 H 0.45324 0.14558 0.1196 0.0
H1664 H 0.499 0.15897 0.22656 0.0
C1665 C 0.47839 0.13911 0.43177 0.0
C1666 C 0.45442 0.1354 0.29746 0.0
C1667 C 0.47652 0.13697 0.49265 0.0
C1668 C 0.46335 0.13903 0.04558 0.0
C1669 C 0.46271 0.14255 0.10513 0.0
C1670 C 0.48647 0.15233 0.24571 0.0
C1671 C 0.46719 0.14213 0.39856 0.0
C1672 C 0.46882 0.14358 0.33347 0.0
C1673 C 0.47391 0.14177 0.14572 0.0
C1674 C 0.47211 0.14357 0.20985 0.0
H1675 H 0.44206 0.14175 0.50998 0.0
H1676 H 0.4454 0.14556 0.40349 0.0
H1677 H 0.49616 0.15905 0.3333 0.0
H1678 H 0.49603 0.13107 0.05178 0.0
H1679 H 0.49488 0.13714 0.15528 0.0
C1680 C 0.88826 0.35292 0.08603 0.0
C1681 C 0.8872 0.34008 0.04918 0.0
C1682 C 0.88785 0.35115 0.14705 0.0
C1683 C 0.87674 0.32046 0.26834 0.0
H1684 H 0.9101 0.35989 0.35375 0.0
C1685 C 0.89035 0.3189 0.51682 0.0
C1686 C 0.89287 0.33285 0.55068 0.0
C1687 C 0.88921 0.31919 0.4555 0.0
C1688 C 0.90058 0.34883 0.33071 0.0
H1689 H 0.88418 0.31498 0.04751 0.0
H1690 H 0.88356 0.31191 0.15459 0.0
H1691 H 0.9083 0.36116 0.24728 0.0
H1692 H 0.89601 0.358 0.54668 0.0
H1693 H 0.89388 0.35845 0.44002 0.0
H1694 H 0.86904 0.30814 0.35214 0.0
C1695 C 0.88462 0.32332 0.13604 0.0
C1696 C 0.89954 0.34955 0.26964 0.0
C1697 C 0.88501 0.32509 0.07473 0.0
C1698 C 0.89417 0.34707 0.52192 0.0
C1699 C 0.89303 0.34736 0.46071 0.0
C1700 C 0.87777 0.31974 0.32964 0.0
C1701 C 0.88642 0.33651 0.17282 0.0
C1702 C 0.88753 0.33543 0.23775 0.0
C1703 C 0.89058 0.33345 0.42673 0.0
C1704 C 0.88963 0.33396 0.36153 0.0
H1705 H 0.88978 0.36457 0.06782 0.0
H1706 H 0.88889 0.36138 0.17414 0.0
H1707 H 0.86728 0.30941 0.24504 0.0
H1708 H 0.8893 0.30774 0.5376 0.0
H1709 H 0.88751 0.30834 0.43057 0.0
C1710 C 0.65399 0.1219 0.14828 0.0
C1711 C 0.66812 0.1337 0.11585 0.0
C1712 C 0.65368 0.12308 0.20957 0.0
C1713 C 0.67426 0.15245 0.33449 0.0
H1714 H 0.65933 0.1113 0.42455 0.0
C1715 C 0.69384 0.15232 0.57446 0.0
C1716 C 0.68247 0.13981 0.6133 0.0
C1717 C 0.68964 0.15224 0.51541 0.0
C1718 C 0.66323 0.12287 0.4002 0.0
H1719 H 0.69289 0.15615 0.12237 0.0
H1720 H 0.69242 0.1581 0.22923 0.0
H1721 H 0.65678 0.10983 0.31772 0.0
H1722 H 0.65743 0.11782 0.62118 0.0
H1723 H 0.65002 0.11771 0.51758 0.0
H1724 H 0.68107 0.16553 0.41694 0.0
C1725 C 0.68148 0.14805 0.20725 0.0
C1726 C 0.6618 0.12204 0.33888 0.0
C1727 C 0.6818 0.14687 0.14599 0.0
C1728 C 0.66647 0.12762 0.59232 0.0
C1729 C 0.66228 0.12748 0.53293 0.0
C1730 C 0.67567 0.15328 0.3958 0.0
C1731 C 0.66747 0.13609 0.23983 0.0
C1732 C 0.6676 0.13685 0.30522 0.0
C1733 C 0.67396 0.13962 0.49358 0.0
C1734 C 0.67049 0.13854 0.4293 0.0
H1735 H 0.6432 0.11163 0.12644 0.0
H1736 H 0.64262 0.11377 0.23327 0.0
H1737 H 0.67854 0.16406 0.30994 0.0
H1738 H 0.70625 0.16194 0.58921 0.0
H1739 H 0.69901 0.16166 0.48632 0.0
C1740 C 0.90637 0.54053 0.16647 0.0
C1741 C 0.89317 0.53904 0.13053 0.0
C1742 C 0.90435 0.53878 0.22759 0.0
C1743 C 0.87913 0.5426 0.34665 0.0
H1744 H 0.89728 0.52012 0.44171 0.0
C1745 C 0.86747 0.53545 0.59477 0.0
C1746 C 0.88163 0.53981 0.63042 0.0
C1747 C 0.86801 0.53285 0.53449 0.0
C1748 C 0.89223 0.52652 0.41574 0.0
H1749 H 0.86728 0.53393 0.13045 0.0
H1750 H 0.86372 0.53071 0.23664 0.0
H1751 H 0.89999 0.52054 0.33449 0.0
H1752 H 0.90715 0.54391 0.63134 0.0
H1753 H 0.90817 0.53957 0.52569 0.0
H1754 H 0.87158 0.54883 0.42734 0.0
C1755 C 0.87575 0.53354 0.21781 0.0
C1756 C 0.8938 0.52678 0.35437 0.0
C1757 C 0.87777 0.53532 0.15686 0.0
C1758 C 0.89602 0.54054 0.60505 0.0
C1759 C 0.89659 0.53803 0.54449 0.0
C1760 C 0.87757 0.54235 0.40773 0.0
C1761 C 0.88908 0.53549 0.25402 0.0
C1762 C 0.88725 0.53483 0.31914 0.0
C1763 C 0.88276 0.53466 0.50827 0.0
C1764 C 0.88408 0.5343 0.4431 0.0
H1765 H 0.9184 0.54338 0.14757 0.0
H1766 H 0.91492 0.5405 0.25423 0.0
H1767 H 0.87427 0.54924 0.32101 0.0
H1768 H 0.85612 0.53458 0.61306 0.0
H1769 H 0.85699 0.52987 0.50809 0.0
C1770 C 0.48214 0.34324 0.11035 0.0
C1771 C 0.4756 0.3527 0.08421 0.0
C1772 C 0.48471 0.34383 0.17111 0.0
C1773 C 0.48854 0.36889 0.30499 0.0
H1774 H 0.47663 0.32689 0.38516 0.0
C1775 C 0.47829 0.35914 0.55671 0.0
C1776 C 0.48373 0.34899 0.58487 0.0
C1777 C 0.47959 0.36124 0.49563 0.0
C1778 C 0.48026 0.33878 0.36337 0.0
H1779 H 0.46671 0.3703 0.10139 0.0
H1780 H 0.47083 0.37105 0.20754 0.0
H1781 H 0.47402 0.32707 0.27871 0.0
H1782 H 0.49566 0.33384 0.57117 0.0
H1783 H 0.49795 0.33756 0.46468 0.0
H1784 H 0.49435 0.38046 0.3903 0.0
C1785 C 0.47428 0.3634 0.18099 0.0
C1786 C 0.47877 0.33889 0.30226 0.0
C1787 C 0.4718 0.36288 0.12014 0.0
C1788 C 0.49126 0.34167 0.55091 0.0
C1789 C 0.49248 0.34371 0.48983 0.0
C1790 C 0.48994 0.36875 0.36628 0.0
C1791 C 0.4807 0.35383 0.20729 0.0
C1792 C 0.48281 0.35392 0.27226 0.0
C1793 C 0.48629 0.35318 0.46139 0.0
C1794 C 0.48575 0.35368 0.39613 0.0
H1795 H 0.48534 0.33538 0.08388 0.0
H1796 H 0.48994 0.33652 0.18968 0.0
H1797 H 0.49201 0.38074 0.28326 0.0
H1798 H 0.47245 0.36498 0.58156 0.0
H1799 H 0.47462 0.36854 0.47499 0.0
C1800 C 0.33125 0.86602 0.44612 0.0
C1801 C 0.34256 0.87871 0.40761 0.0
C1802 C 0.33542 0.86595 0.50516 0.0
C1803 C 0.36225 0.89485 0.6218 0.0
H1804 H 0.34675 0.85321 0.70942 0.0
C1805 C 0.37401 0.89458 0.87191 0.0
C1806 C 0.36017 0.88291 0.90581 0.0
C1807 C 0.37349 0.89365 0.81044 0.0
C1808 C 0.35108 0.86494 0.68565 0.0
H1809 H 0.36747 0.90091 0.40056 0.0
H1810 H 0.37487 0.9007 0.504 0.0
H1811 H 0.3436 0.85221 0.60267 0.0
H1812 H 0.33504 0.86089 0.9015 0.0
H1813 H 0.33411 0.85931 0.79428 0.0
H1814 H 0.3695 0.90756 0.7049 0.0
C1815 C 0.36265 0.89092 0.48846 0.0
C1816 C 0.34929 0.86438 0.62441 0.0
C1817 C 0.35847 0.89096 0.42908 0.0
C1818 C 0.34593 0.87008 0.87678 0.0
C1819 C 0.34544 0.86911 0.81527 0.0
C1820 C 0.36408 0.89542 0.68304 0.0
C1821 C 0.35103 0.87857 0.52746 0.0
C1822 C 0.35459 0.8793 0.59177 0.0
C1823 C 0.35916 0.88098 0.78132 0.0
C1824 C 0.35827 0.88045 0.71582 0.0
H1825 H 0.31888 0.85636 0.43111 0.0
H1826 H 0.32607 0.85636 0.53386 0.0
H1827 H 0.36625 0.90657 0.59831 0.0
H1828 H 0.38521 0.9046 0.89279 0.0
H1829 H 0.38435 0.90287 0.78569 0.0
C1830 C 0.13668 0.48373 0.8643 0.0
C1831 C 0.12244 0.46906 0.88545 0.0
C1832 C 0.13865 0.48733 0.80412 0.0
C1833 C 0.14554 0.48596 0.6749 0.0
H1834 H 0.1069 0.47139 0.57182 0.0
C1835 C 0.14814 0.47273 0.43026 0.0
C1836 C 0.13774 0.4749 0.38989 0.0
C1837 C 0.14735 0.47558 0.49011 0.0
C1838 C 0.1179 0.47586 0.59988 0.0
H1839 H 0.09902 0.44674 0.8603 0.0
H1840 H 0.10274 0.4526 0.75526 0.0
H1841 H 0.10287 0.46981 0.67785 0.0
H1842 H 0.11906 0.48276 0.38026 0.0
H1843 H 0.11797 0.48816 0.48504 0.0
H1844 H 0.16061 0.49228 0.59702 0.0
C1845 C 0.11218 0.46164 0.78506 0.0
C1846 C 0.11554 0.47468 0.66083 0.0
C1847 C 0.1101 0.45817 0.84533 0.0
C1848 C 0.12717 0.48088 0.41034 0.0
C1849 C 0.12646 0.48384 0.47042 0.0
C1850 C 0.14793 0.48732 0.61404 0.0
C1851 C 0.12655 0.47621 0.76359 0.0
C1852 C 0.12926 0.47927 0.6991 0.0
C1853 C 0.13626 0.48084 0.5112 0.0
C1854 C 0.13408 0.48183 0.5757 0.0
H1855 H 0.14631 0.49248 0.89429 0.0
H1856 H 0.14971 0.49882 0.78942 0.0
H1857 H 0.15643 0.48953 0.70276 0.0
H1858 H 0.15645 0.46815 0.41605 0.0
H1859 H 0.15491 0.47288 0.52006 0.0
C1860 C 0.54151 0.67935 0.88536 0.0
C1861 C 0.54475 0.66739 0.91213 0.0
C1862 C 0.54017 0.6798 0.82423 0.0
C1863 C 0.53403 0.65512 0.68745 0.0
H1864 H 0.55662 0.69955 0.6153 0.0
C1865 C 0.54929 0.66712 0.43753 0.0
C1866 C 0.54843 0.68066 0.41175 0.0
C1867 C 0.54657 0.66399 0.49804 0.0
C1868 C 0.55001 0.68704 0.63467 0.0
H1869 H 0.54877 0.64628 0.89563 0.0
H1870 H 0.5467 0.64723 0.78882 0.0
H1871 H 0.55635 0.69708 0.72172 0.0
H1872 H 0.54284 0.70074 0.4284 0.0
H1873 H 0.53785 0.69511 0.53326 0.0
H1874 H 0.52796 0.64513 0.59978 0.0
C1875 C 0.54496 0.65613 0.81517 0.0
C1876 C 0.54986 0.68562 0.69582 0.0
C1877 C 0.54625 0.65564 0.87642 0.0
C1878 C 0.54381 0.69034 0.44698 0.0
C1879 C 0.54105 0.68718 0.50721 0.0
C1880 C 0.5342 0.65654 0.62604 0.0
C1881 C 0.54212 0.66835 0.7883 0.0
C1882 C 0.54187 0.66966 0.72306 0.0
C1883 C 0.54291 0.67431 0.53381 0.0
C1884 C 0.54219 0.67254 0.59897 0.0
H1885 H 0.54014 0.6885 0.91157 0.0
H1886 H 0.53767 0.68919 0.80508 0.0
H1887 H 0.52762 0.64264 0.70704 0.0
H1888 H 0.55284 0.65944 0.41158 0.0
H1889 H 0.54816 0.65401 0.51718 0.0
C1890 C 0.33507 0.46119 0.93958 0.0
C1891 C 0.35007 0.47433 0.96392 0.0
C1892 C 0.33165 0.46115 0.87938 0.0
C1893 C 0.35449 0.47791 0.73953 0.0
H1894 H 0.31005 0.46263 0.67351 0.0
C1895 C 0.34515 0.48068 0.48993 0.0
C1896 C 0.33109 0.46676 0.46414 0.0
C1897 C 0.34667 0.48234 0.55115 0.0
C1898 C 0.32252 0.46679 0.69124 0.0
H1899 H 0.37266 0.49825 0.94483 0.0
H1900 H 0.36659 0.49827 0.84067 0.0
H1901 H 0.31378 0.46428 0.78034 0.0
H1902 H 0.30744 0.44381 0.48272 0.0
H1903 H 0.31023 0.44656 0.5894 0.0
H1904 H 0.36326 0.48018 0.651 0.0
C1905 C 0.35766 0.4878 0.86757 0.0
C1906 C 0.32465 0.46775 0.75249 0.0
C1907 C 0.36108 0.48783 0.92747 0.0
C1908 C 0.31843 0.45471 0.50107 0.0
C1909 C 0.31998 0.45634 0.56234 0.0
C1910 C 0.35237 0.47691 0.67852 0.0
C1911 C 0.34316 0.47424 0.84238 0.0
C1912 C 0.34069 0.47336 0.77736 0.0
C1913 C 0.33421 0.47008 0.58822 0.0
C1914 C 0.33637 0.47136 0.65346 0.0
H1915 H 0.32634 0.45058 0.96641 0.0
H1916 H 0.32039 0.45048 0.86138 0.0
H1917 H 0.36696 0.48193 0.7571 0.0
H1918 H 0.35508 0.49027 0.46284 0.0
H1919 H 0.35766 0.49325 0.56944 0.0
C1920 C 0.54766 0.88832 0.90962 0.0
C1921 C 0.55891 0.88678 0.94782 0.0
C1922 C 0.54886 0.88702 0.84883 0.0
C1923 C 0.57945 0.89235 0.73365 0.0
H1924 H 0.53955 0.8717 0.63455 0.0
C1925 C 0.58294 0.88819 0.47993 0.0
C1926 C 0.57222 0.89199 0.44707 0.0
C1927 C 0.58127 0.88637 0.54108 0.0
C1928 C 0.55082 0.87763 0.66161 0.0
H1929 H 0.57994 0.88211 0.95213 0.0
H1930 H 0.58193 0.87965 0.84564 0.0
H1931 H 0.53641 0.86976 0.74126 0.0
H1932 H 0.55136 0.89691 0.45282 0.0
H1933 H 0.54853 0.89384 0.55939 0.0
H1934 H 0.59384 0.90035 0.65386 0.0
C1935 C 0.5723 0.88209 0.86286 0.0
C1936 C 0.54902 0.8765 0.72277 0.0
C1937 C 0.57108 0.88337 0.92389 0.0
C1938 C 0.55982 0.89396 0.47675 0.0
C1939 C 0.55811 0.89208 0.53782 0.0
C1940 C 0.58125 0.89344 0.67241 0.0
C1941 C 0.56134 0.88413 0.82459 0.0
C1942 C 0.56331 0.88405 0.75958 0.0
C1943 C 0.56879 0.88823 0.57071 0.0
C1944 C 0.56694 0.8863 0.63571 0.0
H1945 H 0.53814 0.89096 0.92652 0.0
H1946 H 0.54035 0.88887 0.82074 0.0
H1947 H 0.59071 0.89851 0.76065 0.0
H1948 H 0.5926 0.88655 0.45843 0.0
H1949 H 0.5896 0.88327 0.56508 0.0
C1950 C 0.12926 0.67109 0.46999 0.0
C1951 C 0.13055 0.68537 0.4417 0.0
C1952 C 0.13022 0.6706 0.53118 0.0
C1953 C 0.14512 0.69772 0.66313 0.0
H1954 H 0.11412 0.65612 0.74371 0.0
C1955 C 0.13737 0.69177 0.91741 0.0
C1956 C 0.13497 0.67668 0.94269 0.0
C1957 C 0.13785 0.69365 0.85619 0.0
C1958 C 0.12301 0.66777 0.72184 0.0
H1959 H 0.13393 0.71038 0.45551 0.0
H1960 H 0.13545 0.70944 0.5626 0.0
H1961 H 0.11262 0.65776 0.63724 0.0
H1962 H 0.13204 0.65206 0.9237 0.0
H1963 H 0.13309 0.65543 0.8174 0.0
H1964 H 0.15546 0.70771 0.74815 0.0
C1965 C 0.13387 0.6987 0.53729 0.0
C1966 C 0.12214 0.66871 0.66081 0.0
C1967 C 0.13289 0.69919 0.47597 0.0
C1968 C 0.13373 0.66379 0.90566 0.0
C1969 C 0.13423 0.66567 0.84468 0.0
C1970 C 0.14599 0.69678 0.72438 0.0
C1971 C 0.13249 0.68437 0.56556 0.0
C1972 C 0.13325 0.68364 0.63067 0.0
C1973 C 0.13594 0.68046 0.8192 0.0
C1974 C 0.13502 0.68174 0.75432 0.0
H1975 H 0.12755 0.66027 0.4449 0.0
H1976 H 0.12937 0.65948 0.55155 0.0
H1977 H 0.15396 0.70935 0.6411 0.0
H1978 H 0.13835 0.70193 0.94479 0.0
H1979 H 0.13911 0.70517 0.83786 0.0
loop_
_geom_bond_atom_site_label_1
_geom_bond_atom_site_label_2
_geom_bond_distance
_geom_bond_site_symmetry_2
_ccdc_geom_bond_type
Zn0 O6 1.969 . S
Zn0 O7 1.965 . S
Zn0 O11 2.024 1_455 S
Zn0 O16 1.969 . S
Zn1 O8 1.969 . S
Zn1 O14 1.969 . S
Zn1 O15 1.965 . S
Zn1 O17 2.024 . S
C2 O3 1.229 . S
C2 O11 1.058 . S
O3 C2 1.229 . S
C4 O5 1.229 . S
C4 O17 1.058 . S
O5 C4 1.229 . S
O6 Zn0 1.969 . S
O6 C9 1.267 . S
O7 Zn0 1.965 . S
O7 C18 1.260 1_455 S
O8 Zn1 1.969 . S
O8 C18 1.258 1_455 S
C9 O6 1.267 . S
C9 O10 1.228 1_455 S
O10 C9 1.228 1_655 S
O11 Zn0 2.024 1_655 S
O11 C2 1.058 . S
C12 O13 1.228 . S
C12 O14 1.267 . S
O13 C12 1.228 . S
O14 Zn1 1.969 . S
O14 C12 1.267 . S
O15 Zn1 1.965 . S
O15 C19 1.260 . S
O16 Zn0 1.969 . S
O16 C19 1.258 . S
O17 Zn1 2.024 . S
O17 C4 1.058 . S
C18 O7 1.260 1_655 S
C18 O8 1.258 1_655 S
C19 O15 1.260 . S
C19 O16 1.258 . S
Zn20 O26 1.969 . S
Zn20 O27 1.965 . S
Zn20 O31 2.024 . S
Zn20 O36 1.969 . S
Zn21 O28 1.969 . S
Zn21 O34 1.969 . S
Zn21 O35 1.965 . S
Zn21 O37 2.024 . S
C22 O23 1.229 . S
C22 O31 1.058 . S
O23 C22 1.229 . S
C24 O25 1.229 . S
C24 O37 1.058 . S
O25 C24 1.229 . S
O26 Zn20 1.969 . S
O26 C29 1.267 . S
O27 Zn20 1.965 . S
O27 C38 1.260 . S
O28 Zn21 1.969 . S
O28 C38 1.258 . S
C29 O26 1.267 . S
C29 O30 1.228 . S
O30 C29 1.228 . S
O31 Zn20 2.024 . S
O31 C22 1.058 . S
C32 O33 1.228 . S
C32 O34 1.267 . S
O33 C32 1.228 . S
O34 Zn21 1.969 . S
O34 C32 1.267 . S
O35 Zn21 1.965 . S
O35 C39 1.260 . S
O36 Zn20 1.969 . S
O36 C39 1.258 . S
O37 Zn21 2.024 . S
O37 C24 1.058 . S
C38 O27 1.260 . S
C38 O28 1.258 . S
C39 O35 1.260 . S
C39 O36 1.258 . S
Zn40 O46 1.969 . S
Zn40 O47 1.965 . S
Zn40 O51 2.024 . S
Zn40 O56 1.969 1_545 S
Zn41 O48 1.969 1_565 S
Zn41 O54 1.969 1_565 S
Zn41 O55 1.935 . S
Zn41 O57 2.024 . S
C42 O43 1.229 . S
C42 O51 1.058 . S
O43 C42 1.229 . S
C44 O45 1.229 . S
C44 O57 1.058 . S
O45 C44 1.229 . S
O46 Zn40 1.969 . S
O46 C49 1.267 . S
O47 Zn40 1.965 . S
O47 C58 1.260 . S
O48 Zn41 1.969 1_545 S
O48 C58 1.258 . S
C49 O46 1.267 . S
C49 O50 1.228 . S
O50 C49 1.228 . S
O51 Zn40 2.024 . S
O51 C42 1.058 . S
C52 O53 1.263 . S
C52 O54 1.240 1_565 S
O53 C52 1.263 . S
O54 Zn41 1.969 1_545 S
O54 C52 1.240 1_545 S
O55 Zn41 1.935 . S
O55 C59 1.307 . S
O56 Zn40 1.969 1_565 S
O56 C59 1.258 . S
O57 Zn41 2.024 . S
O57 C44 1.058 . S
C58 O47 1.260 . S
C58 O48 1.258 . S
C59 O55 1.307 . S
C59 O56 1.258 . S
Zn60 O66 1.969 . S
Zn60 O67 1.965 . S
Zn60 O71 2.024 1_455 S
Zn60 O76 1.969 . S
Zn61 O68 1.969 . S
Zn61 O74 1.969 . S
Zn61 O75 1.965 . S
Zn61 O77 2.024 . S
C62 O63 1.229 . S
C62 O71 1.058 . S
O63 C62 1.229 . S
C64 O65 1.229 . S
C64 O77 1.058 . S
O65 C64 1.229 . S
O66 Zn60 1.969 . S
O66 C69 1.267 . S
O67 Zn60 1.965 . S
O67 C78 1.260 1_455 S
O68 Zn61 1.969 . S
O68 C78 1.258 1_455 S
C69 O66 1.267 . S
C69 O70 1.228 1_455 S
O70 C69 1.228 1_655 S
O71 Zn60 2.024 1_655 S
O71 C62 1.058 . S
C72 O73 1.228 . S
C72 O74 1.267 . S
O73 C72 1.228 . S
O74 Zn61 1.969 . S
O74 C72 1.267 . S
O75 Zn61 1.965 . S
O75 C79 1.260 . S
O76 Zn60 1.969 . S
O76 C79 1.258 . S
O77 Zn61 2.024 . S
O77 C64 1.058 . S
C78 O67 1.260 1_655 S
C78 O68 1.258 1_655 S
C79 O75 1.260 . S
C79 O76 1.258 . S
Zn80 O86 1.969 . S
Zn80 O87 1.965 . S
Zn80 O91 2.024 . S
Zn80 O96 1.969 . S
Zn81 O88 1.969 . S
Zn81 O94 1.969 . S
Zn81 O95 1.965 . S
Zn81 O97 2.024 . S
C82 O83 1.229 . S
C82 O91 1.058 . S
O83 C82 1.229 . S
C84 O85 1.229 . S
C84 O97 1.058 . S
O85 C84 1.229 . S
O86 Zn80 1.969 . S
O86 C89 1.267 . S
O87 Zn80 1.965 . S
O87 C98 1.260 . S
O88 Zn81 1.969 . S
O88 C98 1.258 . S
C89 O86 1.267 . S
C89 O90 1.228 . S
O90 C89 1.228 . S
O91 Zn80 2.024 . S
O91 C82 1.058 . S
C92 O93 1.228 . S
C92 O94 1.267 . S
O93 C92 1.228 . S
O94 Zn81 1.969 . S
O94 C92 1.267 . S
O95 Zn81 1.965 . S
O95 C99 1.260 . S
O96 Zn80 1.969 . S
O96 C99 1.258 . S
O97 Zn81 2.024 . S
O97 C84 1.058 . S
C98 O87 1.260 . S
C98 O88 1.258 . S
C99 O95 1.260 . S
C99 O96 1.258 . S
Zn100 O106 1.969 . S
Zn100 O107 1.965 . S
Zn100 O111 2.024 . S
Zn100 O116 1.969 . S
Zn101 O108 1.969 . S
Zn101 O114 1.969 . S
Zn101 O115 1.965 . S
Zn101 O117 2.024 1_545 S
C102 O103 1.229 . S
C102 O111 1.058 . S
O103 C102 1.229 . S
C104 O105 1.229 . S
C104 O117 1.058 . S
O105 C104 1.229 . S
O106 Zn100 1.969 . S
O106 C109 1.267 . S
O107 Zn100 1.965 . S
O107 C118 1.260 . S
O108 Zn101 1.969 . S
O108 C118 1.258 . S
C109 O106 1.267 . S
C109 O110 1.228 . S
O110 C109 1.228 . S
O111 Zn100 2.024 . S
O111 C102 1.058 . S
C112 O113 1.228 1_545 S
C112 O114 1.267 . S
O113 C112 1.228 1_565 S
O114 Zn101 1.969 . S
O114 C112 1.267 . S
O115 Zn101 1.965 . S
O115 C119 1.260 1_545 S
O116 Zn100 1.969 . S
O116 C119 1.258 1_545 S
O117 Zn101 2.024 1_565 S
O117 C104 1.058 . S
C118 O107 1.260 . S
C118 O108 1.258 . S
C119 O115 1.260 1_565 S
C119 O116 1.258 1_565 S
Zn120 O126 1.969 1_556 S
Zn120 O127 1.965 . S
Zn120 O131 2.024 . S
Zn120 O136 1.969 . S
Zn121 O128 1.969 . S
Zn121 O134 1.969 . S
Zn121 O135 1.965 . S
Zn121 O137 2.024 . S
C122 O123 1.229 1_556 S
C122 O131 1.058 . S
O123 C122 1.229 1_554 S
C124 O125 1.229 . S
C124 O137 1.058 . S
O125 C124 1.229 . S
O126 Zn120 1.969 1_554 S
O126 C129 1.267 . S
O127 Zn120 1.965 . S
O127 C138 1.260 . S
O128 Zn121 1.969 . S
O128 C138 1.258 . S
C129 O126 1.267 . S
C129 O130 1.228 . S
O130 C129 1.228 . S
O131 Zn120 2.024 . S
O131 C122 1.058 . S
C132 O133 1.228 . S
C132 O134 1.267 . S
O133 C132 1.228 . S
O134 Zn121 1.969 . S
O134 C132 1.267 . S
O135 Zn121 1.965 . S
O135 C139 1.260 . S
O136 Zn120 1.969 . S
O136 C139 1.258 . S
O137 Zn121 2.024 . S
O137 C124 1.058 . S
C138 O127 1.260 . S
C138 O128 1.258 . S
C139 O135 1.260 . S
C139 O136 1.258 . S
Zn140 O146 1.969 1_556 S
Zn140 O147 1.965 . S
Zn140 O151 2.024 . S
Zn140 O156 1.969 . S
Zn141 O148 1.969 . S
Zn141 O154 1.969 . S
Zn141 O155 1.965 . S
Zn141 O157 2.024 . S
C142 O143 1.229 1_556 S
C142 O151 1.058 . S
O143 C142 1.229 1_554 S
C144 O145 1.229 . S
C144 O157 1.058 . S
O145 C144 1.229 . S
O146 Zn140 1.969 1_554 S
O146 C149 1.267 . S
O147 Zn140 1.965 . S
O147 C158 1.260 . S
O148 Zn141 1.969 . S
O148 C158 1.258 . S
C149 O146 1.267 . S
C149 O150 1.228 . S
O150 C149 1.228 . S
O151 Zn140 2.024 . S
O151 C142 1.058 . S
C152 O153 1.228 . S
C152 O154 1.267 . S
O153 C152 1.228 . S
O154 Zn141 1.969 . S
O154 C152 1.267 . S
O155 Zn141 1.965 . S
O155 C159 1.260 . S
O156 Zn140 1.969 . S
O156 C159 1.258 . S
O157 Zn141 2.024 . S
O157 C144 1.058 . S
C158 O147 1.260 . S
C158 O148 1.258 . S
C159 O155 1.260 . S
C159 O156 1.258 . S
Zn160 O166 1.969 1_556 S
Zn160 O167 1.965 . S
Zn160 O171 2.024 . S
Zn160 O176 1.969 . S
Zn161 O168 1.969 . S
Zn161 O174 1.969 . S
Zn161 O175 1.965 . S
Zn161 O177 2.024 . S
C162 O163 1.229 1_556 S
C162 O171 1.058 . S
O163 C162 1.229 1_554 S
C164 O165 1.229 . S
C164 O177 1.058 . S
O165 C164 1.229 . S
O166 Zn160 1.969 1_554 S
O166 C169 1.267 . S
O167 Zn160 1.965 . S
O167 C178 1.260 . S
O168 Zn161 1.969 . S
O168 C178 1.258 . S
C169 O166 1.267 . S
C169 O170 1.228 . S
O170 C169 1.228 . S
O171 Zn160 2.024 . S
O171 C162 1.058 . S
C172 O173 1.228 . S
C172 O174 1.267 . S
O173 C172 1.228 . S
O174 Zn161 1.969 . S
O174 C172 1.267 . S
O175 Zn161 1.965 . S
O175 C179 1.260 . S
O176 Zn160 1.969 . S
O176 C179 1.258 . S
O177 Zn161 2.024 . S
O177 C164 1.058 . S
C178 O167 1.260 . S
C178 O168 1.258 . S
C179 O175 1.260 . S
C179 O176 1.258 . S
Zn180 O186 1.969 . S
Zn180 O187 1.965 . S
Zn180 O191 2.024 . S
Zn180 O196 1.969 . S
Zn181 O188 1.969 . S
Zn181 O194 1.969 . S
Zn181 O195 1.965 . S
Zn181 O197 2.024 . S
C182 O183 1.229 . S
C182 O191 1.058 . S
O183 C182 1.229 . S
C184 O185 1.229 . S
C184 O197 1.058 . S
O185 C184 1.229 . S
O186 Zn180 1.969 . S
O186 C189 1.267 . S
O187 Zn180 1.965 . S
O187 C198 1.260 . S
O188 Zn181 1.969 . S
O188 C198 1.258 . S
C189 O186 1.267 . S
C189 O190 1.228 . S
O190 C189 1.228 . S
O191 Zn180 2.024 . S
O191 C182 1.058 . S
C192 O193 1.228 . S
C192 O194 1.267 . S
O193 C192 1.228 . S
O194 Zn181 1.969 . S
O194 C192 1.267 . S
O195 Zn181 1.965 . S
O195 C199 1.260 . S
O196 Zn180 1.969 . S
O196 C199 1.258 . S
O197 Zn181 2.024 . S
O197 C184 1.058 . S
C198 O187 1.260 . S
C198 O188 1.258 . S
C199 O195 1.260 . S
C199 O196 1.258 . S
Zn200 O206 1.969 . S
Zn200 O207 1.965 . S
Zn200 O211 2.024 . S
Zn200 O216 1.969 . S
Zn201 O208 1.969 . S
Zn201 O214 1.969 . S
Zn201 O215 1.965 . S
Zn201 O217 2.024 . S
C202 O203 1.229 . S
C202 O211 1.058 . S
O203 C202 1.229 . S
C204 O205 1.229 . S
C204 O217 1.058 . S
O205 C204 1.229 . S
O206 Zn200 1.969 . S
O206 C209 1.267 . S
O207 Zn200 1.965 . S
O207 C218 1.260 . S
O208 Zn201 1.969 . S
O208 C218 1.258 . S
C209 O206 1.267 . S
C209 O210 1.228 . S
O210 C209 1.228 . S
O211 Zn200 2.024 . S
O211 C202 1.058 . S
C212 O213 1.228 . S
C212 O214 1.267 . S
O213 C212 1.228 . S
O214 Zn201 1.969 . S
O214 C212 1.267 . S
O215 Zn201 1.965 . S
O215 C219 1.260 . S
O216 Zn200 1.969 . S
O216 C219 1.258 . S
O217 Zn201 2.024 . S
O217 C204 1.058 . S
C218 O207 1.260 . S
C218 O208 1.258 . S
C219 O215 1.260 . S
C219 O216 1.258 . S
Zn220 O226 1.969 . S
Zn220 O227 1.965 . S
Zn220 O231 2.024 . S
Zn220 O236 1.969 . S
Zn221 O228 1.969 . S
Zn221 O234 1.969 . S
Zn221 O235 1.965 . S
Zn221 O237 2.024 . S
C222 O223 1.229 . S
C222 O231 1.058 . S
O223 C222 1.229 . S
C224 O225 1.229 . S
C224 O237 1.058 . S
O225 C224 1.229 . S
O226 Zn220 1.969 . S
O226 C229 1.267 . S
O227 Zn220 1.965 . S
O227 C238 1.260 . S
O228 Zn221 1.969 . S
O228 C238 1.258 . S
C229 O226 1.267 . S
C229 O230 1.228 . S
O230 C229 1.228 . S
O231 Zn220 2.024 . S
O231 C222 1.058 . S
C232 O233 1.228 . S
C232 O234 1.267 . S
O233 C232 1.228 . S
O234 Zn221 1.969 . S
O234 C232 1.267 . S
O235 Zn221 1.965 . S
O235 C239 1.260 . S
O236 Zn220 1.969 . S
O236 C239 1.258 . S
O237 Zn221 2.024 . S
O237 C224 1.058 . S
C238 O227 1.260 . S
C238 O228 1.258 . S
C239 O235 1.260 . S
C239 O236 1.258 . S
Zn240 O246 1.969 . S
Zn240 O247 1.965 . S
Zn240 O251 2.024 . S
Zn240 O256 1.969 . S
Zn241 O248 1.969 . S
Zn241 O254 1.969 . S
Zn241 O255 1.965 . S
Zn241 O257 2.024 . S
C242 O243 1.229 . S
C242 O251 1.058 . S
O243 C242 1.229 . S
C244 O245 1.229 . S
C244 O257 1.058 . S
O245 C244 1.229 . S
O246 Zn240 1.969 . S
O246 C249 1.267 . S
O247 Zn240 1.965 . S
O247 C258 1.260 . S
O248 Zn241 1.969 . S
O248 C258 1.258 . S
C249 O246 1.267 . S
C249 O250 1.228 . S
O250 C249 1.228 . S
O251 Zn240 2.024 . S
O251 C242 1.058 . S
C252 O253 1.228 . S
C252 O254 1.267 . S
O253 C252 1.228 . S
O254 Zn241 1.969 . S
O254 C252 1.267 . S
O255 Zn241 1.965 . S
O255 C259 1.260 . S
O256 Zn240 1.969 . S
O256 C259 1.258 . S
O257 Zn241 2.024 . S
O257 C244 1.058 . S
C258 O247 1.260 . S
C258 O248 1.258 . S
C259 O255 1.260 . S
C259 O256 1.258 . S
Zn260 O266 1.969 . S
Zn260 O267 1.965 . S
Zn260 O271 2.024 . S
Zn260 O276 1.969 . S
Zn261 O268 1.969 . S
Zn261 O274 1.969 . S
Zn261 O275 1.965 . S
Zn261 O277 2.024 . S
C262 O263 1.229 . S
C262 O271 1.058 . S
O263 C262 1.229 . S
C264 O265 1.229 . S
C264 O277 1.058 . S
O265 C264 1.229 . S
O266 Zn260 1.969 . S
O266 C269 1.267 . S
O267 Zn260 1.965 . S
O267 C278 1.260 . S
O268 Zn261 1.969 . S
O268 C278 1.258 . S
C269 O266 1.267 . S
C269 O270 1.228 . S
O270 C269 1.228 . S
O271 Zn260 2.024 . S
O271 C262 1.058 . S
C272 O273 1.228 . S
C272 O274 1.267 . S
O273 C272 1.228 . S
O274 Zn261 1.969 . S
O274 C272 1.267 . S
O275 Zn261 1.965 . S
O275 C279 1.260 . S
O276 Zn260 1.969 . S
O276 C279 1.258 . S
O277 Zn261 2.024 . S
O277 C264 1.058 . S
C278 O267 1.260 . S
C278 O268 1.258 . S
C279 O275 1.260 . S
C279 O276 1.258 . S
Zn280 O286 1.969 . S
Zn280 O287 1.965 . S
Zn280 O291 2.024 . S
Zn280 O296 1.969 . S
Zn281 O288 1.969 . S
Zn281 O294 1.969 . S
Zn281 O295 1.965 . S
Zn281 O297 2.024 . S
C282 O283 1.229 . S
C282 O291 1.058 . S
O283 C282 1.229 . S
C284 O285 1.229 . S
C284 O297 1.058 . S
O285 C284 1.229 . S
O286 Zn280 1.969 . S
O286 C289 1.267 . S
O287 Zn280 1.965 . S
O287 C298 1.260 . S
O288 Zn281 1.969 . S
O288 C298 1.258 . S
C289 O286 1.267 . S
C289 O290 1.228 . S
O290 C289 1.228 . S
O291 Zn280 2.024 . S
O291 C282 1.058 . S
C292 O293 1.228 . S
C292 O294 1.267 . S
O293 C292 1.228 . S
O294 Zn281 1.969 . S
O294 C292 1.267 . S
O295 Zn281 1.965 . S
O295 C299 1.260 . S
O296 Zn280 1.969 . S
O296 C299 1.258 . S
O297 Zn281 2.024 . S
O297 C284 1.058 . S
C298 O287 1.260 . S
C298 O288 1.258 . S
C299 O295 1.260 . S
C299 O296 1.258 . S
Zn300 O306 1.969 . S
Zn300 O307 1.965 . S
Zn300 O311 2.024 . S
Zn300 O316 1.969 . S
Zn301 O308 1.969 . S
Zn301 O314 1.969 1_554 S
Zn301 O315 1.965 . S
Zn301 O317 2.024 . S
C302 O303 1.229 . S
C302 O311 1.058 . S
O303 C302 1.229 . S
C304 O305 1.229 1_554 S
C304 O317 1.058 . S
O305 C304 1.229 1_556 S
O306 Zn300 1.969 . S
O306 C309 1.267 . S
O307 Zn300 1.965 . S
O307 C318 1.260 . S
O308 Zn301 1.969 . S
O308 C318 1.258 . S
C309 O306 1.267 . S
C309 O310 1.228 . S
O310 C309 1.228 . S
O311 Zn300 2.024 . S
O311 C302 1.058 . S
C312 O313 1.228 . S
C312 O314 1.267 . S
O313 C312 1.228 . S
O314 Zn301 1.969 1_556 S
O314 C312 1.267 . S
O315 Zn301 1.965 . S
O315 C319 1.260 . S
O316 Zn300 1.969 . S
O316 C319 1.258 . S
O317 Zn301 2.024 . S
O317 C304 1.058 . S
C318 O307 1.260 . S
C318 O308 1.258 . S
C319 O315 1.260 . S
C319 O316 1.258 . S
Zn320 O326 1.969 . S
Zn320 O327 1.965 . S
Zn320 O331 2.024 . S
Zn320 O336 1.969 . S
Zn321 O328 1.969 . S
Zn321 O334 1.969 1_554 S
Zn321 O335 1.965 . S
Zn321 O337 2.024 . S
C322 O323 1.229 . S
C322 O331 1.058 . S
O323 C322 1.229 . S
C324 O325 1.229 1_554 S
C324 O337 1.058 . S
O325 C324 1.229 1_556 S
O326 Zn320 1.969 . S
O326 C329 1.267 . S
O327 Zn320 1.965 . S
O327 C338 1.260 . S
O328 Zn321 1.969 . S
O328 C338 1.258 . S
C329 O326 1.267 . S
C329 O330 1.228 . S
O330 C329 1.228 . S
O331 Zn320 2.024 . S
O331 C322 1.058 . S
C332 O333 1.228 . S
C332 O334 1.267 . S
O333 C332 1.228 . S
O334 Zn321 1.969 1_556 S
O334 C332 1.267 . S
O335 Zn321 1.965 . S
O335 C339 1.260 . S
O336 Zn320 1.969 . S
O336 C339 1.258 . S
O337 Zn321 2.024 . S
O337 C324 1.058 . S
C338 O327 1.260 . S
C338 O328 1.258 . S
C339 O335 1.260 . S
C339 O336 1.258 . S
Zn340 O346 1.969 . S
Zn340 O347 1.965 . S
Zn340 O351 2.024 . S
Zn340 O356 1.969 . S
Zn341 O348 1.969 . S
Zn341 O354 1.969 1_554 S
Zn341 O355 1.965 . S
Zn341 O357 2.024 . S
C342 O343 1.229 . S
C342 O351 1.058 . S
O343 C342 1.229 . S
C344 O345 1.229 1_554 S
C344 O357 1.058 . S
O345 C344 1.229 1_556 S
O346 Zn340 1.969 . S
O346 C349 1.267 . S
O347 Zn340 1.965 . S
O347 C358 1.260 . S
O348 Zn341 1.969 . S
O348 C358 1.258 . S
C349 O346 1.267 . S
C349 O350 1.228 . S
O350 C349 1.228 . S
O351 Zn340 2.024 . S
O351 C342 1.058 . S
C352 O353 1.228 . S
C352 O354 1.267 . S
O353 C352 1.228 . S
O354 Zn341 1.969 1_556 S
O354 C352 1.267 . S
O355 Zn341 1.965 . S
O355 C359 1.260 . S
O356 Zn340 1.969 . S
O356 C359 1.258 . S
O357 Zn341 2.024 . S
O357 C344 1.058 . S
C358 O347 1.260 . S
C358 O348 1.258 . S
C359 O355 1.260 . S
C359 O356 1.258 . S
C360 C361 1.349 . S
C360 C362 1.327 . S
C360 H385 0.950 . S
C361 C360 1.349 . S
C361 C377 1.349 . S
C362 C360 1.327 . S
C362 C381 1.429 . S
C362 H386 0.950 . S
C363 C380 1.574 . S
C363 C382 1.368 . S
C363 H387 0.949 . S
H364 C368 0.949 . S
C365 C366 1.349 . S
C365 C367 1.327 . S
C365 H388 0.950 . S
C366 C365 1.349 . S
C366 C378 1.349 . S
C367 C365 1.327 . S
C367 C383 1.429 . S
C367 H389 0.950 . S
C368 H364 0.949 . S
C368 C376 1.574 . S
C368 C384 1.368 . S
H369 C377 0.950 . S
H370 C375 0.950 . S
H371 C376 0.949 . S
H372 C378 0.950 . S
H373 C379 0.950 . S
H374 C380 0.949 . S
C375 H370 0.950 . S
C375 C377 1.327 . S
C375 C381 1.429 . S
C376 C368 1.574 . S
C376 H371 0.949 . S
C376 C382 1.368 . S
C377 C361 1.349 . S
C377 H369 0.950 . S
C377 C375 1.327 . S
C378 C366 1.349 . S
C378 H372 0.950 . S
C378 C379 1.327 . S
C379 H373 0.950 . S
C379 C378 1.327 . S
C379 C383 1.429 . S
C380 C363 1.574 . S
C380 H374 0.949 . S
C380 C384 1.368 . S
C381 C362 1.429 . S
C381 C375 1.429 . S
C381 C382 1.523 . S
C382 C363 1.368 . S
C382 C376 1.368 . S
C382 C381 1.523 . S
C383 C367 1.429 . S
C383 C379 1.429 . S
C383 C384 1.523 . S
C384 C368 1.368 . S
C384 C380 1.368 . S
C384 C383 1.523 . S
H385 C360 0.950 . S
H386 C362 0.950 . S
H387 C363 0.949 . S
H388 C365 0.950 . S
H389 C367 0.950 . S
C390 C391 1.349 . S
C390 C392 1.327 . S
C390 H415 0.950 . S
C391 C390 1.349 . S
C391 C407 1.349 . S
C392 C390 1.327 . S
C392 C411 1.429 . S
C392 H416 0.950 . S
C393 C410 1.574 . S
C393 C412 1.368 . S
C393 H417 0.949 . S
H394 C398 0.949 . S
C395 C396 1.349 . S
C395 C397 1.327 . S
C395 H418 0.950 . S
C396 C395 1.349 . S
C396 C408 1.349 . S
C397 C395 1.327 . S
C397 C413 1.429 . S
C397 H419 0.950 . S
C398 H394 0.949 . S
C398 C406 1.574 . S
C398 C414 1.368 . S
H399 C407 0.950 . S
H400 C405 0.950 . S
H401 C406 0.949 . S
H402 C408 0.950 . S
H403 C409 0.950 . S
H404 C410 0.949 . S
C405 H400 0.950 . S
C405 C407 1.327 . S
C405 C411 1.429 . S
C406 C398 1.574 . S
C406 H401 0.949 . S
C406 C412 1.368 . S
C407 C391 1.349 . S
C407 H399 0.950 . S
C407 C405 1.327 . S
C408 C396 1.349 . S
C408 H402 0.950 . S
C408 C409 1.327 . S
C409 H403 0.950 . S
C409 C408 1.327 . S
C409 C413 1.429 . S
C410 C393 1.574 . S
C410 H404 0.949 . S
C410 C414 1.368 . S
C411 C392 1.429 . S
C411 C405 1.429 . S
C411 C412 1.523 . S
C412 C393 1.368 . S
C412 C406 1.368 . S
C412 C411 1.523 . S
C413 C397 1.429 . S
C413 C409 1.429 . S
C413 C414 1.523 . S
C414 C398 1.368 . S
C414 C410 1.368 . S
C414 C413 1.523 . S
H415 C390 0.950 . S
H416 C392 0.950 . S
H417 C393 0.949 . S
H418 C395 0.950 . S
H419 C397 0.950 . S
C420 C421 1.349 . S
C420 C422 1.327 . S
C420 H445 1.001 . S
C421 C420 1.349 . S
C421 C437 1.349 . S
C422 C420 1.327 . S
C422 C441 1.429 . S
C422 H446 0.950 . S
C423 C440 1.574 . S
C423 C442 1.368 . S
C423 H447 0.949 . S
H424 C428 0.949 . S
C425 C426 1.349 . S
C425 C427 1.327 . S
C425 H448 0.950 . S
C426 C425 1.349 . S
C426 C438 1.349 . S
C427 C425 1.327 . S
C427 C443 1.429 . S
C427 H449 0.950 . S
C428 H424 0.949 . S
C428 C436 1.574 . S
C428 C444 1.368 . S
H429 C437 0.950 . S
H430 C435 0.950 . S
H431 C436 0.949 . S
H432 C438 0.950 . S
H433 C439 0.950 . S
H434 C440 0.949 . S
C435 H430 0.950 . S
C435 C437 1.327 . S
C435 C441 1.429 . S
C436 C428 1.574 . S
C436 H431 0.949 . S
C436 C442 1.368 . S
C437 C421 1.349 . S
C437 H429 0.950 . S
C437 C435 1.327 . S
C438 C426 1.349 . S
C438 H432 0.950 . S
C438 C439 1.327 . S
C439 H433 0.950 . S
C439 C438 1.327 . S
C439 C443 1.429 . S
C440 C423 1.574 . S
C440 H434 0.949 . S
C440 C444 1.368 . S
C441 C422 1.429 . S
C441 C435 1.429 . S
C441 C442 1.523 . S
C442 C423 1.368 . S
C442 C436 1.368 . S
C442 C441 1.523 . S
C443 C427 1.429 . S
C443 C439 1.429 . S
C443 C444 1.523 . S
C444 C428 1.368 . S
C444 C440 1.368 . S
C444 C443 1.523 . S
H445 C420 1.001 . S
H446 C422 0.950 . S
H447 C423 0.949 . S
H448 C425 0.950 . S
H449 C427 0.950 . S
C450 C451 1.349 . S
C450 C452 1.327 . S
C450 H475 0.950 . S
C451 C450 1.349 . S
C451 C467 1.349 . S
C452 C450 1.327 . S
C452 C471 1.429 . S
C452 H476 0.950 . S
C453 C470 1.574 . S
C453 C472 1.368 . S
C453 H477 0.949 . S
H454 C458 0.949 . S
C455 C456 1.349 . S
C455 C457 1.327 . S
C455 H478 0.950 . S
C456 C455 1.349 . S
C456 C468 1.349 . S
C457 C455 1.327 . S
C457 C473 1.429 . S
C457 H479 0.950 . S
C458 H454 0.949 . S
C458 C466 1.574 . S
C458 C474 1.368 . S
H459 C467 0.950 . S
H460 C465 0.950 . S
H461 C466 0.949 . S
H462 C468 0.950 . S
H463 C469 0.950 . S
H464 C470 0.949 . S
C465 H460 0.950 . S
C465 C467 1.327 . S
C465 C471 1.429 . S
C466 C458 1.574 . S
C466 H461 0.949 . S
C466 C472 1.368 . S
C467 C451 1.349 . S
C467 H459 0.950 . S
C467 C465 1.327 . S
C468 C456 1.349 . S
C468 H462 0.950 . S
C468 C469 1.327 . S
C469 H463 0.950 . S
C469 C468 1.327 . S
C469 C473 1.429 . S
C470 C453 1.574 . S
C470 H464 0.949 . S
C470 C474 1.368 . S
C471 C452 1.429 . S
C471 C465 1.429 . S
C471 C472 1.523 . S
C472 C453 1.368 . S
C472 C466 1.368 . S
C472 C471 1.523 . S
C473 C457 1.429 . S
C473 C469 1.429 . S
C473 C474 1.523 . S
C474 C458 1.368 . S
C474 C470 1.368 . S
C474 C473 1.523 . S
H475 C450 0.950 . S
H476 C452 0.950 . S
H477 C453 0.949 . S
H478 C455 0.950 . S
H479 C457 0.950 . S
C480 C481 1.349 . S
C480 C482 1.327 . S
C480 H505 0.950 . S
C481 C480 1.349 . S
C481 C497 1.349 . S
C482 C480 1.327 . S
C482 C501 1.429 . S
C482 H506 0.950 . S
C483 C500 1.574 . S
C483 C502 1.368 . S
C483 H507 0.949 . S
H484 C488 0.949 . S
C485 C486 1.349 . S
C485 C487 1.327 . S
C485 H508 0.950 . S
C486 C485 1.349 . S
C486 C498 1.349 . S
C487 C485 1.327 . S
C487 C503 1.429 . S
C487 H509 0.950 . S
C488 H484 0.949 . S
C488 C496 1.574 . S
C488 C504 1.368 . S
H489 C497 0.950 . S
H490 C495 0.950 . S
H491 C496 0.949 . S
H492 C498 0.950 . S
H493 C499 0.950 . S
H494 C500 0.949 . S
C495 H490 0.950 . S
C495 C497 1.327 . S
C495 C501 1.429 . S
C496 C488 1.574 . S
C496 H491 0.949 . S
C496 C502 1.368 . S
C497 C481 1.349 . S
C497 H489 0.950 . S
C497 C495 1.327 . S
C498 C486 1.349 . S
C498 H492 0.950 . S
C498 C499 1.327 . S
C499 H493 0.950 . S
C499 C498 1.327 . S
C499 C503 1.429 . S
C500 C483 1.574 . S
C500 H494 0.949 . S
C500 C504 1.368 . S
C501 C482 1.429 . S
C501 C495 1.429 . S
C501 C502 1.523 . S
C502 C483 1.368 . S
C502 C496 1.368 . S
C502 C501 1.523 . S
C503 C487 1.429 . S
C503 C499 1.429 . S
C503 C504 1.523 . S
C504 C488 1.368 . S
C504 C500 1.368 . S
C504 C503 1.523 . S
H505 C480 0.950 . S
H506 C482 0.950 . S
H507 C483 0.949 . S
H508 C485 0.950 . S
H509 C487 0.950 . S
C510 C511 1.349 . S
C510 C512 1.327 . S
C510 H535 0.950 . S
C511 C510 1.349 . S
C511 C527 1.349 . S
C512 C510 1.327 . S
C512 C531 1.429 . S
C512 H536 0.950 . S
C513 C530 1.574 . S
C513 C532 1.368 . S
C513 H537 0.949 . S
H514 C518 0.949 . S
C515 C516 1.349 . S
C515 C517 1.327 . S
C515 H538 0.950 . S
C516 C515 1.349 . S
C516 C528 1.349 . S
C517 C515 1.327 . S
C517 C533 1.429 . S
C517 H539 0.950 . S
C518 H514 0.949 . S
C518 C526 1.574 . S
C518 C534 1.368 . S
H519 C527 0.950 . S
H520 C525 0.950 . S
H521 C526 0.949 . S
H522 C528 0.950 . S
H523 C529 0.950 . S
H524 C530 0.949 . S
C525 H520 0.950 . S
C525 C527 1.327 . S
C525 C531 1.429 . S
C526 C518 1.574 . S
C526 H521 0.949 . S
C526 C532 1.368 . S
C527 C511 1.349 . S
C527 H519 0.950 . S
C527 C525 1.327 . S
C528 C516 1.349 . S
C528 H522 0.950 . S
C528 C529 1.327 . S
C529 H523 0.950 . S
C529 C528 1.327 . S
C529 C533 1.429 . S
C530 C513 1.574 . S
C530 H524 0.949 . S
C530 C534 1.368 . S
C531 C512 1.429 . S
C531 C525 1.429 . S
C531 C532 1.523 . S
C532 C513 1.368 . S
C532 C526 1.368 . S
C532 C531 1.523 . S
C533 C517 1.429 . S
C533 C529 1.429 . S
C533 C534 1.523 . S
C534 C518 1.368 . S
C534 C530 1.368 . S
C534 C533 1.523 . S
H535 C510 0.950 . S
H536 C512 0.950 . S
H537 C513 0.949 . S
H538 C515 0.950 . S
H539 C517 0.950 . S
C540 C541 1.349 . S
C540 C542 1.327 . S
C540 H565 0.950 . S
C541 C540 1.349 . S
C541 C557 1.349 . S
C542 C540 1.327 . S
C542 C561 1.429 . S
C542 H566 0.950 . S
C543 C560 1.574 . S
C543 C562 1.368 . S
C543 H567 0.949 . S
H544 C548 0.949 . S
C545 C546 1.349 . S
C545 C547 1.327 . S
C545 H568 0.950 . S
C546 C545 1.349 . S
C546 C558 1.349 . S
C547 C545 1.327 . S
C547 C563 1.429 . S
C547 H569 0.950 . S
C548 H544 0.949 . S
C548 C556 1.574 . S
C548 C564 1.368 . S
H549 C557 0.950 . S
H550 C555 0.950 . S
H551 C556 0.949 . S
H552 C558 0.950 . S
H553 C559 0.950 . S
H554 C560 0.949 . S
C555 H550 0.950 . S
C555 C557 1.327 . S
C555 C561 1.429 . S
C556 C548 1.574 . S
C556 H551 0.949 . S
C556 C562 1.368 . S
C557 C541 1.349 . S
C557 H549 0.950 . S
C557 C555 1.327 . S
C558 C546 1.349 . S
C558 H552 0.950 . S
C558 C559 1.327 . S
C559 H553 0.950 . S
C559 C558 1.327 . S
C559 C563 1.429 . S
C560 C543 1.574 . S
C560 H554 0.949 . S
C560 C564 1.368 . S
C561 C542 1.429 . S
C561 C555 1.429 . S
C561 C562 1.523 . S
C562 C543 1.368 . S
C562 C556 1.368 . S
C562 C561 1.523 . S
C563 C547 1.429 . S
C563 C559 1.429 . S
C563 C564 1.523 . S
C564 C548 1.368 . S
C564 C560 1.368 . S
C564 C563 1.523 . S
H565 C540 0.950 . S
H566 C542 0.950 . S
H567 C543 0.949 . S
H568 C545 0.950 . S
H569 C547 0.950 . S
C570 C571 1.349 . S
C570 C572 1.327 . S
C570 H595 0.950 . S
C571 C570 1.349 . S
C571 C587 1.349 . S
C572 C570 1.327 . S
C572 C591 1.429 . S
C572 H596 0.950 . S
C573 C590 1.574 . S
C573 C592 1.368 . S
C573 H597 0.949 . S
H574 C578 0.949 . S
C575 C576 1.349 . S
C575 C577 1.327 . S
C575 H598 0.950 . S
C576 C575 1.349 . S
C576 C588 1.349 . S
C577 C575 1.327 . S
C577 C593 1.429 . S
C577 H599 0.950 . S
C578 H574 0.949 . S
C578 C586 1.574 . S
C578 C594 1.368 . S
H579 C587 0.950 . S
H580 C585 0.950 . S
H581 C586 0.949 . S
H582 C588 0.950 . S
H583 C589 0.950 . S
H584 C590 0.949 . S
C585 H580 0.950 . S
C585 C587 1.327 . S
C585 C591 1.429 . S
C586 C578 1.574 . S
C586 H581 0.949 . S
C586 C592 1.368 . S
C587 C571 1.349 . S
C587 H579 0.950 . S
C587 C585 1.327 . S
C588 C576 1.349 . S
C588 H582 0.950 . S
C588 C589 1.327 . S
C589 H583 0.950 . S
C589 C588 1.327 . S
C589 C593 1.429 . S
C590 C573 1.574 . S
C590 H584 0.949 . S
C590 C594 1.368 . S
C591 C572 1.429 . S
C591 C585 1.429 . S
C591 C592 1.523 . S
C592 C573 1.368 . S
C592 C586 1.368 . S
C592 C591 1.523 . S
C593 C577 1.429 . S
C593 C589 1.429 . S
C593 C594 1.523 . S
C594 C578 1.368 . S
C594 C590 1.368 . S
C594 C593 1.523 . S
H595 C570 0.950 . S
H596 C572 0.950 . S
H597 C573 0.949 . S
H598 C575 0.950 . S
H599 C577 0.950 . S
C600 C601 1.349 . S
C600 C602 1.327 . S
C600 H625 0.950 . S
C601 C600 1.349 . S
C601 C617 1.349 . S
C602 C600 1.327 . S
C602 C621 1.429 . S
C602 H626 0.950 . S
C603 C620 1.574 . S
C603 C622 1.368 . S
C603 H627 0.949 . S
H604 C608 0.949 . S
C605 C606 1.349 . S
C605 C607 1.327 . S
C605 H628 0.950 . S
C606 C605 1.349 . S
C606 C618 1.349 . S
C607 C605 1.327 . S
C607 C623 1.429 . S
C607 H629 0.950 . S
C608 H604 0.949 . S
C608 C616 1.574 . S
C608 C624 1.368 . S
H609 C617 0.950 . S
H610 C615 0.950 . S
H611 C616 0.949 . S
H612 C618 0.950 . S
H613 C619 0.950 . S
H614 C620 0.949 . S
C615 H610 0.950 . S
C615 C617 1.327 . S
C615 C621 1.429 . S
C616 C608 1.574 . S
C616 H611 0.949 . S
C616 C622 1.368 . S
C617 C601 1.349 . S
C617 H609 0.950 . S
C617 C615 1.327 . S
C618 C606 1.349 . S
C618 H612 0.950 . S
C618 C619 1.327 . S
C619 H613 0.950 . S
C619 C618 1.327 . S
C619 C623 1.429 . S
C620 C603 1.574 . S
C620 H614 0.949 . S
C620 C624 1.368 . S
C621 C602 1.429 . S
C621 C615 1.429 . S
C621 C622 1.523 . S
C622 C603 1.368 . S
C622 C616 1.368 . S
C622 C621 1.523 . S
C623 C607 1.429 . S
C623 C619 1.429 . S
C623 C624 1.523 . S
C624 C608 1.368 . S
C624 C620 1.368 . S
C624 C623 1.523 . S
H625 C600 0.950 . S
H626 C602 0.950 . S
H627 C603 0.949 . S
H628 C605 0.950 . S
H629 C607 0.950 . S
C630 C631 1.349 . S
C630 C632 1.327 . S
C630 H655 0.950 . S
C631 C630 1.349 . S
C631 C647 1.349 . S
C632 C630 1.327 . S
C632 C651 1.429 . S
C632 H656 0.950 . S
C633 C650 1.574 . S
C633 C652 1.368 . S
C633 H657 0.949 . S
H634 C638 0.949 . S
C635 C636 1.349 . S
C635 C637 1.327 . S
C635 H658 0.950 . S
C636 C635 1.349 . S
C636 C648 1.349 . S
C637 C635 1.327 . S
C637 C653 1.429 . S
C637 H659 0.950 . S
C638 H634 0.949 . S
C638 C646 1.574 . S
C638 C654 1.368 . S
H639 C647 0.950 . S
H640 C645 0.950 . S
H641 C646 0.949 . S
H642 C648 0.950 . S
H643 C649 0.950 . S
H644 C650 0.949 . S
C645 H640 0.950 . S
C645 C647 1.327 . S
C645 C651 1.429 . S
C646 C638 1.574 . S
C646 H641 0.949 . S
C646 C652 1.368 . S
C647 C631 1.349 . S
C647 H639 0.950 . S
C647 C645 1.327 . S
C648 C636 1.349 . S
C648 H642 0.950 . S
C648 C649 1.327 . S
C649 H643 0.950 . S
C649 C648 1.327 . S
C649 C653 1.429 . S
C650 C633 1.574 . S
C650 H644 0.949 . S
C650 C654 1.368 . S
C651 C632 1.429 . S
C651 C645 1.429 . S
C651 C652 1.523 . S
C652 C633 1.368 . S
C652 C646 1.368 . S
C652 C651 1.523 . S
C653 C637 1.429 . S
C653 C649 1.429 . S
C653 C654 1.523 . S
C654 C638 1.368 . S
C654 C650 1.368 . S
C654 C653 1.523 . S
H655 C630 0.950 . S
H656 C632 0.950 . S
H657 C633 0.949 . S
H658 C635 0.950 . S
H659 C637 0.950 . S
C660 C661 1.349 . S
C660 C662 1.327 . S
C660 H685 0.950 . S
C661 C660 1.349 . S
C661 C677 1.349 . S
C662 C660 1.327 . S
C662 C681 1.429 . S
C662 H686 0.950 . S
C663 C680 1.574 . S
C663 C682 1.368 . S
C663 H687 0.949 . S
H664 C668 0.949 . S
C665 C666 1.349 . S
C665 C667 1.327 . S
C665 H688 0.950 . S
C666 C665 1.349 . S
C666 C678 1.349 . S
C667 C665 1.327 . S
C667 C683 1.429 . S
C667 H689 0.950 . S
C668 H664 0.949 . S
C668 C676 1.574 . S
C668 C684 1.368 . S
H669 C677 0.950 . S
H670 C675 0.950 . S
H671 C676 0.949 . S
H672 C678 0.950 . S
H673 C679 0.950 . S
H674 C680 0.949 . S
C675 H670 0.950 . S
C675 C677 1.327 . S
C675 C681 1.429 . S
C676 C668 1.574 . S
C676 H671 0.949 . S
C676 C682 1.368 . S
C677 C661 1.349 . S
C677 H669 0.950 . S
C677 C675 1.327 . S
C678 C666 1.349 . S
C678 H672 0.950 . S
C678 C679 1.327 . S
C679 H673 0.950 . S
C679 C678 1.327 . S
C679 C683 1.429 . S
C680 C663 1.574 . S
C680 H674 0.949 . S
C680 C684 1.368 . S
C681 C662 1.429 . S
C681 C675 1.429 . S
C681 C682 1.523 . S
C682 C663 1.368 . S
C682 C676 1.368 . S
C682 C681 1.523 . S
C683 C667 1.429 . S
C683 C679 1.429 . S
C683 C684 1.523 . S
C684 C668 1.368 . S
C684 C680 1.368 . S
C684 C683 1.523 . S
H685 C660 0.950 . S
H686 C662 0.950 . S
H687 C663 0.949 . S
H688 C665 0.950 . S
H689 C667 0.950 . S
C690 C691 1.349 . S
C690 C692 1.327 . S
C690 H715 0.950 . S
C691 C690 1.349 . S
C691 C707 1.349 . S
C692 C690 1.327 . S
C692 C711 1.429 . S
C692 H716 0.950 . S
C693 C710 1.574 . S
C693 C712 1.368 . S
C693 H717 0.949 . S
H694 C698 0.949 . S
C695 C696 1.349 . S
C695 C697 1.327 . S
C695 H718 0.950 . S
C696 C695 1.349 . S
C696 C708 1.349 . S
C697 C695 1.327 . S
C697 C713 1.429 . S
C697 H719 0.950 . S
C698 H694 0.949 . S
C698 C706 1.574 . S
C698 C714 1.368 . S
H699 C707 0.950 . S
H700 C705 0.950 . S
H701 C706 0.949 . S
H702 C708 0.950 . S
H703 C709 0.950 . S
H704 C710 0.949 . S
C705 H700 0.950 . S
C705 C707 1.327 . S
C705 C711 1.429 . S
C706 C698 1.574 . S
C706 H701 0.949 . S
C706 C712 1.368 . S
C707 C691 1.349 . S
C707 H699 0.950 . S
C707 C705 1.327 . S
C708 C696 1.349 . S
C708 H702 0.950 . S
C708 C709 1.327 . S
C709 H703 0.950 . S
C709 C708 1.327 . S
C709 C713 1.429 . S
C710 C693 1.574 . S
C710 H704 0.949 . S
C710 C714 1.368 . S
C711 C692 1.429 . S
C711 C705 1.429 . S
C711 C712 1.523 . S
C712 C693 1.368 . S
C712 C706 1.368 . S
C712 C711 1.523 . S
C713 C697 1.429 . S
C713 C709 1.429 . S
C713 C714 1.523 . S
C714 C698 1.368 . S
C714 C710 1.368 . S
C714 C713 1.523 . S
H715 C690 0.950 . S
H716 C692 0.950 . S
H717 C693 0.949 . S
H718 C695 0.950 . S
H719 C697 0.950 . S
C720 C721 1.349 1_554 S
C720 C722 1.327 . S
C720 H745 0.950 . S
C721 C720 1.349 1_556 S
C721 C737 1.349 . S
C722 C720 1.327 . S
C722 C741 1.429 . S
C722 H746 0.950 . S
C723 C740 1.574 . S
C723 C742 1.368 . S
C723 H747 0.949 . S
H724 C728 0.949 . S
C725 C726 1.349 . S
C725 C727 1.327 . S
C725 H748 0.950 . S
C726 C725 1.349 . S
C726 C738 1.349 . S
C727 C725 1.327 . S
C727 C743 1.429 . S
C727 H749 0.950 . S
C728 H724 0.949 . S
C728 C736 1.574 . S
C728 C744 1.368 . S
H729 C737 0.950 . S
H730 C735 0.950 . S
H731 C736 0.949 . S
H732 C738 0.950 . S
H733 C739 0.950 . S
H734 C740 0.949 . S
C735 H730 0.950 . S
C735 C737 1.327 1_554 S
C735 C741 1.429 . S
C736 C728 1.574 . S
C736 H731 0.949 . S
C736 C742 1.368 . S
C737 C721 1.349 . S
C737 H729 0.950 . S
C737 C735 1.327 1_556 S
C738 C726 1.349 . S
C738 H732 0.950 . S
C738 C739 1.327 . S
C739 H733 0.950 . S
C739 C738 1.327 . S
C739 C743 1.429 . S
C740 C723 1.574 . S
C740 H734 0.949 . S
C740 C744 1.368 . S
C741 C722 1.429 . S
C741 C735 1.429 . S
C741 C742 1.523 1_655 S
C742 C723 1.368 . S
C742 C736 1.368 . S
C742 C741 1.523 1_455 S
C743 C727 1.429 . S
C743 C739 1.429 . S
C743 C744 1.523 . S
C744 C728 1.368 . S
C744 C740 1.368 . S
C744 C743 1.523 . S
H745 C720 0.950 . S
H746 C722 0.950 . S
H747 C723 0.949 . S
H748 C725 0.950 . S
H749 C727 0.950 . S
C750 C751 1.349 1_554 S
C750 C752 1.327 . S
C750 H775 0.950 . S
C751 C750 1.349 1_556 S
C751 C767 1.349 . S
C752 C750 1.327 . S
C752 C771 1.429 . S
C752 H776 0.950 . S
C753 C770 1.574 . S
C753 C772 1.368 . S
C753 H777 0.949 1_554 S
H754 C758 0.949 . S
C755 C756 1.349 . S
C755 C757 1.327 . S
C755 H778 0.950 . S
C756 C755 1.349 . S
C756 C768 1.349 . S
C757 C755 1.327 . S
C757 C773 1.429 . S
C757 H779 0.950 . S
C758 H754 0.949 . S
C758 C766 1.574 . S
C758 C774 1.368 . S
H759 C767 0.950 . S
H760 C765 0.950 . S
H761 C766 0.949 . S
H762 C768 0.950 . S
H763 C769 0.950 . S
H764 C770 0.949 . S
C765 H760 0.950 . S
C765 C767 1.327 . S
C765 C771 1.429 1_556 S
C766 C758 1.574 . S
C766 H761 0.949 . S
C766 C772 1.368 . S
C767 C751 1.349 . S
C767 H759 0.950 . S
C767 C765 1.327 . S
C768 C756 1.349 . S
C768 H762 0.950 . S
C768 C769 1.327 . S
C769 H763 0.950 . S
C769 C768 1.327 . S
C769 C773 1.429 . S
C770 C753 1.574 . S
C770 H764 0.949 . S
C770 C774 1.368 . S
C771 C752 1.429 . S
C771 C765 1.429 1_554 S
C771 C772 1.523 . S
C772 C753 1.368 . S
C772 C766 1.368 . S
C772 C771 1.523 . S
C773 C757 1.429 . S
C773 C769 1.429 . S
C773 C774 1.523 . S
C774 C758 1.368 . S
C774 C770 1.368 . S
C774 C773 1.523 . S
H775 C750 0.950 . S
H776 C752 0.950 . S
H777 C753 0.949 1_556 S
H778 C755 0.950 . S
H779 C757 0.950 . S
C780 C781 1.349 . S
C780 C782 1.327 . S
C780 H805 0.950 . S
C781 C780 1.349 . S
C781 C797 1.349 1_556 S
C782 C780 1.327 . S
C782 C801 1.429 1_556 S
C782 H806 0.950 . S
C783 C800 1.574 1_545 S
C783 C802 1.368 . S
C783 H807 0.949 . S
H784 C788 0.949 . S
C785 C786 1.349 . S
C785 C787 1.327 . S
C785 H808 0.950 . S
C786 C785 1.349 . S
C786 C798 1.349 . S
C787 C785 1.327 . S
C787 C803 1.429 . S
C787 H809 0.950 . S
C788 H784 0.949 . S
C788 C796 1.574 1_565 S
C788 C804 1.368 . S
H789 C797 0.950 . S
H790 C795 0.950 . S
H791 C796 0.949 . S
H792 C798 0.950 . S
H793 C799 0.950 . S
H794 C800 0.949 . S
C795 H790 0.950 . S
C795 C797 1.327 . S
C795 C801 1.429 . S
C796 C788 1.574 1_545 S
C796 H791 0.949 . S
C796 C802 1.368 . S
C797 C781 1.349 1_554 S
C797 H789 0.950 . S
C797 C795 1.327 . S
C798 C786 1.349 . S
C798 H792 0.950 . S
C798 C799 1.327 . S
C799 H793 0.950 . S
C799 C798 1.327 . S
C799 C803 1.429 . S
C800 C783 1.574 1_565 S
C800 H794 0.949 . S
C800 C804 1.368 . S
C801 C782 1.429 1_554 S
C801 C795 1.429 . S
C801 C802 1.523 . S
C802 C783 1.368 . S
C802 C796 1.368 . S
C802 C801 1.523 . S
C803 C787 1.429 . S
C803 C799 1.429 . S
C803 C804 1.523 . S
C804 C788 1.368 . S
C804 C800 1.368 . S
C804 C803 1.523 . S
H805 C780 0.950 . S
H806 C782 0.950 . S
H807 C783 0.949 . S
H808 C785 0.950 . S
H809 C787 0.950 . S
C810 C811 1.349 . S
C810 C812 1.327 . S
C810 H835 0.950 . S
C811 C810 1.349 . S
C811 C827 1.349 . S
C812 C810 1.327 . S
C812 C831 1.429 . S
C812 H836 0.950 . S
C813 C830 1.574 . S
C813 C832 1.368 . S
C813 H837 0.949 . S
H814 C818 0.949 1_554 S
C815 C816 1.349 1_556 S
C815 C817 1.327 . S
C815 H838 0.950 . S
C816 C815 1.349 1_554 S
C816 C828 1.349 . S
C817 C815 1.327 . S
C817 C833 1.429 . S
C817 H839 0.950 . S
C818 H814 0.949 1_556 S
C818 C826 1.574 . S
C818 C834 1.368 . S
H819 C827 0.950 . S
H820 C825 0.950 . S
H821 C826 0.949 . S
H822 C828 0.950 . S
H823 C829 0.950 . S
H824 C830 0.949 1_565 S
C825 H820 0.950 . S
C825 C827 1.327 . S
C825 C831 1.429 . S
C826 C818 1.574 . S
C826 H821 0.949 . S
C826 C832 1.368 . S
C827 C811 1.349 . S
C827 H819 0.950 . S
C827 C825 1.327 . S
C828 C816 1.349 . S
C828 H822 0.950 . S
C828 C829 1.327 . S
C829 H823 0.950 . S
C829 C828 1.327 . S
C829 C833 1.429 1_554 S
C830 C813 1.574 . S
C830 H824 0.949 1_545 S
C830 C834 1.368 . S
C831 C812 1.429 . S
C831 C825 1.429 . S
C831 C832 1.523 . S
C832 C813 1.368 . S
C832 C826 1.368 . S
C832 C831 1.523 . S
C833 C817 1.429 . S
C833 C829 1.429 1_556 S
C833 C834 1.523 1_565 S
C834 C818 1.368 . S
C834 C830 1.368 . S
C834 C833 1.523 1_545 S
H835 C810 0.950 . S
H836 C812 0.950 . S
H837 C813 0.949 . S
H838 C815 0.950 . S
H839 C817 0.950 . S
C840 C841 1.349 . S
C840 C842 1.327 . S
C840 H865 0.950 . S
C841 C840 1.349 . S
C841 C857 1.349 1_554 S
C842 C840 1.327 . S
C842 C861 1.429 1_554 S
C842 H866 0.950 . S
C843 C860 1.574 . S
C843 C862 1.368 . S
C843 H867 0.949 . S
H844 C848 0.949 . S
C845 C846 1.349 . S
C845 C847 1.327 . S
C845 H868 0.950 . S
C846 C845 1.349 . S
C846 C858 1.349 . S
C847 C845 1.327 . S
C847 C863 1.429 . S
C847 H869 0.950 . S
C848 H844 0.949 . S
C848 C856 1.574 1_655 S
C848 C864 1.368 . S
H849 C857 0.950 . S
H850 C855 0.950 . S
H851 C856 0.949 1_554 S
H852 C858 0.950 . S
H853 C859 0.950 . S
H854 C860 0.942 1_655 S
C855 H850 0.950 . S
C855 C857 1.327 . S
C855 C861 1.429 . S
C856 C848 1.574 1_455 S
C856 H851 0.949 1_556 S
C856 C862 1.368 . S
C857 C841 1.349 1_556 S
C857 H849 0.950 . S
C857 C855 1.327 . S
C858 C846 1.349 . S
C858 H852 0.950 . S
C858 C859 1.327 . S
C859 H853 0.950 . S
C859 C858 1.327 . S
C859 C863 1.429 . S
C860 C843 1.574 . S
C860 H854 0.942 1_455 S
C860 C864 1.368 1_455 S
C861 C842 1.429 1_556 S
C861 C855 1.429 . S
C861 C862 1.523 . S
C862 C843 1.368 . S
C862 C856 1.368 . S
C862 C861 1.523 . S
C863 C847 1.429 . S
C863 C859 1.429 . S
C863 C864 1.523 . S
C864 C848 1.368 . S
C864 C860 1.368 1_655 S
C864 C863 1.523 . S
H865 C840 0.950 . S
H866 C842 0.950 . S
H867 C843 0.949 . S
H868 C845 0.950 . S
H869 C847 0.950 . S
C870 C871 1.349 . S
C870 C872 1.327 . S
C870 H895 0.950 . S
C871 C870 1.349 . S
C871 C887 1.349 1_554 S
C872 C870 1.327 . S
C872 C891 1.429 1_554 S
C872 H896 0.950 . S
C873 C890 1.574 . S
C873 C892 1.368 . S
C873 H897 0.949 . S
H874 C878 0.949 . S
C875 C876 1.349 . S
C875 C877 1.327 . S
C875 H898 0.950 . S
C876 C875 1.349 . S
C876 C888 1.349 . S
C877 C875 1.327 . S
C877 C893 1.429 . S
C877 H899 0.950 . S
C878 H874 0.949 . S
C878 C886 1.574 . S
C878 C894 1.368 . S
H879 C887 0.950 . S
H880 C885 0.950 . S
H881 C886 0.949 1_554 S
H882 C888 0.950 . S
H883 C889 0.950 . S
H884 C890 0.949 . S
C885 H880 0.950 . S
C885 C887 1.327 . S
C885 C891 1.429 . S
C886 C878 1.574 . S
C886 H881 0.949 1_556 S
C886 C892 1.368 . S
C887 C871 1.349 1_556 S
C887 H879 0.950 . S
C887 C885 1.327 . S
C888 C876 1.349 . S
C888 H882 0.950 . S
C888 C889 1.327 . S
C889 H883 0.950 . S
C889 C888 1.327 . S
C889 C893 1.429 . S
C890 C873 1.574 . S
C890 H884 0.949 . S
C890 C894 1.368 . S
C891 C872 1.429 1_556 S
C891 C885 1.429 . S
C891 C892 1.523 . S
C892 C873 1.368 . S
C892 C886 1.368 . S
C892 C891 1.523 . S
C893 C877 1.429 . S
C893 C889 1.429 . S
C893 C894 1.523 . S
C894 C878 1.368 . S
C894 C890 1.368 . S
C894 C893 1.523 . S
H895 C870 0.950 . S
H896 C872 0.950 . S
H897 C873 0.949 . S
H898 C875 0.950 . S
H899 C877 0.950 . S
C900 C901 1.349 . S
C900 C902 1.327 . S
C900 H925 0.950 . S
C901 C900 1.349 . S
C901 C917 1.349 . S
C902 C900 1.327 . S
C902 C921 1.429 . S
C902 H926 0.950 . S
C903 C920 1.574 . S
C903 C922 1.368 . S
C903 H927 0.949 . S
H904 C908 0.949 . S
C905 C906 1.349 . S
C905 C907 1.327 . S
C905 H928 0.950 . S
C906 C905 1.349 . S
C906 C918 1.349 . S
C907 C905 1.327 . S
C907 C923 1.429 . S
C907 H929 0.950 . S
C908 H904 0.949 . S
C908 C916 1.574 . S
C908 C924 1.368 . S
H909 C917 0.950 . S
H910 C915 0.950 . S
H911 C916 0.949 . S
H912 C918 0.950 . S
H913 C919 0.950 . S
H914 C920 0.949 . S
C915 H910 0.950 . S
C915 C917 1.327 . S
C915 C921 1.429 . S
C916 C908 1.574 . S
C916 H911 0.949 . S
C916 C922 1.368 . S
C917 C901 1.349 . S
C917 H909 0.950 . S
C917 C915 1.327 . S
C918 C906 1.349 . S
C918 H912 0.950 . S
C918 C919 1.327 . S
C919 H913 0.950 . S
C919 C918 1.327 . S
C919 C923 1.429 . S
C920 C903 1.574 . S
C920 H914 0.949 . S
C920 C924 1.368 . S
C921 C902 1.429 . S
C921 C915 1.429 . S
C921 C922 1.523 . S
C922 C903 1.368 . S
C922 C916 1.368 . S
C922 C921 1.523 . S
C923 C907 1.429 . S
C923 C919 1.429 . S
C923 C924 1.523 . S
C924 C908 1.368 . S
C924 C920 1.368 . S
C924 C923 1.523 . S
H925 C900 0.950 . S
H926 C902 0.950 . S
H927 C903 0.949 . S
H928 C905 0.950 . S
H929 C907 0.950 . S
C930 C931 1.349 . S
C930 C932 1.327 . S
C930 H955 0.950 . S
C931 C930 1.349 . S
C931 C947 1.349 . S
C932 C930 1.327 . S
C932 C951 1.429 . S
C932 H956 0.950 . S
C933 C950 1.574 . S
C933 C952 1.368 . S
C933 H957 0.949 . S
H934 C938 0.949 . S
C935 C936 1.349 . S
C935 C937 1.327 . S
C935 H958 0.950 . S
C936 C935 1.349 . S
C936 C948 1.349 . S
C937 C935 1.327 . S
C937 C953 1.429 . S
C937 H959 0.950 . S
C938 H934 0.949 . S
C938 C946 1.574 . S
C938 C954 1.368 . S
H939 C947 0.950 . S
H940 C945 0.950 . S
H941 C946 0.949 . S
H942 C948 0.950 . S
H943 C949 0.950 . S
H944 C950 0.949 . S
C945 H940 0.950 . S
C945 C947 1.327 . S
C945 C951 1.429 . S
C946 C938 1.574 . S
C946 H941 0.949 . S
C946 C952 1.368 . S
C947 C931 1.349 . S
C947 H939 0.950 . S
C947 C945 1.327 . S
C948 C936 1.349 . S
C948 H942 0.950 . S
C948 C949 1.327 . S
C949 H943 0.950 . S
C949 C948 1.327 . S
C949 C953 1.429 . S
C950 C933 1.574 . S
C950 H944 0.949 . S
C950 C954 1.368 . S
C951 C932 1.429 . S
C951 C945 1.429 . S
C951 C952 1.523 . S
C952 C933 1.368 . S
C952 C946 1.368 . S
C952 C951 1.523 . S
C953 C937 1.429 . S
C953 C949 1.429 . S
C953 C954 1.523 . S
C954 C938 1.368 . S
C954 C950 1.368 . S
C954 C953 1.523 . S
H955 C930 0.950 . S
H956 C932 0.950 . S
H957 C933 0.949 . S
H958 C935 0.950 . S
H959 C937 0.950 . S
C960 C961 1.349 . S
C960 C962 1.327 . S
C960 H985 0.950 . S
C961 C960 1.349 . S
C961 C977 1.349 . S
C962 C960 1.327 . S
C962 C981 1.429 . S
C962 H986 0.950 . S
C963 C980 1.574 . S
C963 C982 1.368 . S
C963 H987 0.949 . S
H964 C968 0.949 . S
C965 C966 1.349 . S
C965 C967 1.327 . S
C965 H988 0.950 . S
C966 C965 1.349 . S
C966 C978 1.349 . S
C967 C965 1.327 . S
C967 C983 1.429 . S
C967 H989 0.950 . S
C968 H964 0.949 . S
C968 C976 1.574 . S
C968 C984 1.368 . S
H969 C977 0.950 . S
H970 C975 0.950 . S
H971 C976 0.949 . S
H972 C978 0.950 . S
H973 C979 0.950 . S
H974 C980 0.949 . S
C975 H970 0.950 . S
C975 C977 1.327 . S
C975 C981 1.429 . S
C976 C968 1.574 . S
C976 H971 0.949 . S
C976 C982 1.368 . S
C977 C961 1.349 . S
C977 H969 0.950 . S
C977 C975 1.327 . S
C978 C966 1.349 . S
C978 H972 0.950 . S
C978 C979 1.327 . S
C979 H973 0.950 . S
C979 C978 1.327 . S
C979 C983 1.429 . S
C980 C963 1.574 . S
C980 H974 0.949 . S
C980 C984 1.368 . S
C981 C962 1.429 . S
C981 C975 1.429 . S
C981 C982 1.523 . S
C982 C963 1.368 . S
C982 C976 1.368 . S
C982 C981 1.523 . S
C983 C967 1.429 . S
C983 C979 1.429 . S
C983 C984 1.523 . S
C984 C968 1.368 . S
C984 C980 1.368 . S
C984 C983 1.523 . S
H985 C960 0.950 . S
H986 C962 0.950 . S
H987 C963 0.949 . S
H988 C965 0.950 . S
H989 C967 0.950 . S
C990 C991 1.349 . S
C990 C992 1.327 . S
C990 H1015 0.950 . S
C991 C990 1.349 . S
C991 C1007 1.349 . S
C992 C990 1.327 . S
C992 C1011 1.429 . S
C992 H1016 0.950 . S
C993 C1010 1.574 . S
C993 C1012 1.368 . S
C993 H1017 0.949 . S
H994 C998 0.949 . S
C995 C996 1.349 . S
C995 C997 1.327 . S
C995 H1018 0.950 . S
C996 C995 1.349 . S
C996 C1008 1.349 . S
C997 C995 1.327 . S
C997 C1013 1.429 . S
C997 H1019 0.950 . S
C998 H994 0.949 . S
C998 C1006 1.574 . S
C998 C1014 1.368 . S
H999 C1007 0.950 . S
H1000 C1005 0.950 . S
H1001 C1006 0.949 . S
H1002 C1008 0.950 . S
H1003 C1009 0.950 . S
H1004 C1010 0.949 . S
C1005 H1000 0.950 . S
C1005 C1007 1.327 . S
C1005 C1011 1.429 . S
C1006 C998 1.574 . S
C1006 H1001 0.949 . S
C1006 C1012 1.368 . S
C1007 C991 1.349 . S
C1007 H999 0.950 . S
C1007 C1005 1.327 . S
C1008 C996 1.349 . S
C1008 H1002 0.950 . S
C1008 C1009 1.327 . S
C1009 H1003 0.950 . S
C1009 C1008 1.327 . S
C1009 C1013 1.429 . S
C1010 C993 1.574 . S
C1010 H1004 0.949 . S
C1010 C1014 1.368 . S
C1011 C992 1.429 . S
C1011 C1005 1.429 . S
C1011 C1012 1.523 . S
C1012 C993 1.368 . S
C1012 C1006 1.368 . S
C1012 C1011 1.523 . S
C1013 C997 1.429 . S
C1013 C1009 1.429 . S
C1013 C1014 1.523 . S
C1014 C998 1.368 . S
C1014 C1010 1.368 . S
C1014 C1013 1.523 . S
H1015 C990 0.950 . S
H1016 C992 0.950 . S
H1017 C993 0.949 . S
H1018 C995 0.950 . S
H1019 C997 0.950 . S
C1020 C1021 1.349 . S
C1020 C1022 1.327 . S
C1020 H1045 0.950 . S
C1021 C1020 1.349 . S
C1021 C1037 1.349 . S
C1022 C1020 1.327 . S
C1022 C1041 1.429 . S
C1022 H1046 0.950 . S
C1023 C1040 1.574 . S
C1023 C1042 1.368 . S
C1023 H1047 0.949 . S
H1024 C1028 0.949 . S
C1025 C1026 1.349 . S
C1025 C1027 1.327 . S
C1025 H1048 0.950 . S
C1026 C1025 1.349 . S
C1026 C1038 1.349 . S
C1027 C1025 1.327 . S
C1027 C1043 1.429 . S
C1027 H1049 0.950 . S
C1028 H1024 0.949 . S
C1028 C1036 1.574 . S
C1028 C1044 1.368 . S
H1029 C1037 0.950 . S
H1030 C1035 0.950 . S
H1031 C1036 0.949 . S
H1032 C1038 0.950 . S
H1033 C1039 0.950 . S
H1034 C1040 0.949 . S
C1035 H1030 0.950 . S
C1035 C1037 1.327 . S
C1035 C1041 1.429 . S
C1036 C1028 1.574 . S
C1036 H1031 0.949 . S
C1036 C1042 1.368 . S
C1037 C1021 1.349 . S
C1037 H1029 0.950 . S
C1037 C1035 1.327 . S
C1038 C1026 1.349 . S
C1038 H1032 0.950 . S
C1038 C1039 1.327 . S
C1039 H1033 0.950 . S
C1039 C1038 1.327 . S
C1039 C1043 1.429 . S
C1040 C1023 1.574 . S
C1040 H1034 0.949 . S
C1040 C1044 1.368 . S
C1041 C1022 1.429 . S
C1041 C1035 1.429 . S
C1041 C1042 1.523 . S
C1042 C1023 1.368 . S
C1042 C1036 1.368 . S
C1042 C1041 1.523 . S
C1043 C1027 1.429 . S
C1043 C1039 1.429 . S
C1043 C1044 1.523 . S
C1044 C1028 1.368 . S
C1044 C1040 1.368 . S
C1044 C1043 1.523 . S
H1045 C1020 0.950 . S
H1046 C1022 0.950 . S
H1047 C1023 0.949 . S
H1048 C1025 0.950 . S
H1049 C1027 0.950 . S
C1050 C1051 1.349 . S
C1050 C1052 1.327 . S
C1050 H1075 0.950 . S
C1051 C1050 1.349 . S
C1051 C1067 1.349 . S
C1052 C1050 1.327 . S
C1052 C1071 1.429 . S
C1052 H1076 0.950 . S
C1053 C1070 1.574 . S
C1053 C1072 1.368 . S
C1053 H1077 0.949 . S
H1054 C1058 0.949 . S
C1055 C1056 1.349 . S
C1055 C1057 1.327 . S
C1055 H1078 0.950 . S
C1056 C1055 1.349 . S
C1056 C1068 1.349 . S
C1057 C1055 1.327 . S
C1057 C1073 1.429 . S
C1057 H1079 0.950 . S
C1058 H1054 0.949 . S
C1058 C1066 1.574 . S
C1058 C1074 1.368 . S
H1059 C1067 0.950 . S
H1060 C1065 0.950 . S
H1061 C1066 0.949 . S
H1062 C1068 0.950 . S
H1063 C1069 0.950 . S
H1064 C1070 0.949 . S
C1065 H1060 0.950 . S
C1065 C1067 1.327 . S
C1065 C1071 1.429 . S
C1066 C1058 1.574 . S
C1066 H1061 0.949 . S
C1066 C1072 1.368 . S
C1067 C1051 1.349 . S
C1067 H1059 0.950 . S
C1067 C1065 1.327 . S
C1068 C1056 1.349 . S
C1068 H1062 0.950 . S
C1068 C1069 1.327 . S
C1069 H1063 0.950 . S
C1069 C1068 1.327 . S
C1069 C1073 1.429 . S
C1070 C1053 1.574 . S
C1070 H1064 0.949 . S
C1070 C1074 1.368 . S
C1071 C1052 1.429 . S
C1071 C1065 1.429 . S
C1071 C1072 1.523 . S
C1072 C1053 1.368 . S
C1072 C1066 1.368 . S
C1072 C1071 1.523 . S
C1073 C1057 1.429 . S
C1073 C1069 1.429 . S
C1073 C1074 1.523 . S
C1074 C1058 1.368 . S
C1074 C1070 1.368 . S
C1074 C1073 1.523 . S
H1075 C1050 0.950 . S
H1076 C1052 0.950 . S
H1077 C1053 0.949 . S
H1078 C1055 0.950 . S
H1079 C1057 0.950 . S
C1080 C1081 1.349 . S
C1080 C1082 1.327 . S
C1080 H1105 0.950 . S
C1081 C1080 1.349 . S
C1081 C1097 1.349 . S
C1082 C1080 1.327 . S
C1082 C1101 1.429 . S
C1082 H1106 0.950 . S
C1083 C1100 1.574 . S
C1083 C1102 1.368 . S
C1083 H1107 0.949 . S
H1084 C1088 0.949 . S
C1085 C1086 1.349 . S
C1085 C1087 1.327 . S
C1085 H1108 0.950 . S
C1086 C1085 1.349 . S
C1086 C1098 1.349 . S
C1087 C1085 1.327 . S
C1087 C1103 1.429 . S
C1087 H1109 0.950 . S
C1088 H1084 0.949 . S
C1088 C1096 1.574 . S
C1088 C1104 1.368 . S
H1089 C1097 0.950 . S
H1090 C1095 0.950 . S
H1091 C1096 0.949 . S
H1092 C1098 0.950 . S
H1093 C1099 0.950 . S
H1094 C1100 0.949 . S
C1095 H1090 0.950 . S
C1095 C1097 1.327 . S
C1095 C1101 1.429 . S
C1096 C1088 1.574 . S
C1096 H1091 0.949 . S
C1096 C1102 1.368 . S
C1097 C1081 1.349 . S
C1097 H1089 0.950 . S
C1097 C1095 1.327 . S
C1098 C1086 1.349 . S
C1098 H1092 0.950 . S
C1098 C1099 1.327 . S
C1099 H1093 0.950 . S
C1099 C1098 1.327 . S
C1099 C1103 1.429 . S
C1100 C1083 1.574 . S
C1100 H1094 0.949 . S
C1100 C1104 1.368 . S
C1101 C1082 1.429 . S
C1101 C1095 1.429 . S
C1101 C1102 1.523 . S
C1102 C1083 1.368 . S
C1102 C1096 1.368 . S
C1102 C1101 1.523 . S
C1103 C1087 1.429 . S
C1103 C1099 1.429 . S
C1103 C1104 1.523 . S
C1104 C1088 1.368 . S
C1104 C1100 1.368 . S
C1104 C1103 1.523 . S
H1105 C1080 0.950 . S
H1106 C1082 0.950 . S
H1107 C1083 0.949 . S
H1108 C1085 0.950 . S
H1109 C1087 0.950 . S
C1110 C1111 1.349 . S
C1110 C1112 1.327 . S
C1110 H1135 0.950 . S
C1111 C1110 1.349 . S
C1111 C1127 1.349 . S
C1112 C1110 1.327 . S
C1112 C1131 1.429 . S
C1112 H1136 0.950 . S
C1113 C1130 1.574 . S
C1113 C1132 1.368 . S
C1113 H1137 0.949 . S
H1114 C1118 0.949 . S
C1115 C1116 1.349 . S
C1115 C1117 1.327 . S
C1115 H1138 0.950 . S
C1116 C1115 1.349 . S
C1116 C1128 1.349 . S
C1117 C1115 1.327 . S
C1117 C1133 1.429 . S
C1117 H1139 0.950 . S
C1118 H1114 0.949 . S
C1118 C1126 1.574 . S
C1118 C1134 1.368 . S
H1119 C1127 0.950 . S
H1120 C1125 0.950 . S
H1121 C1126 0.949 . S
H1122 C1128 0.950 . S
H1123 C1129 0.950 . S
H1124 C1130 0.949 . S
C1125 H1120 0.950 . S
C1125 C1127 1.327 . S
C1125 C1131 1.429 . S
C1126 C1118 1.574 . S
C1126 H1121 0.949 . S
C1126 C1132 1.368 . S
C1127 C1111 1.349 . S
C1127 H1119 0.950 . S
C1127 C1125 1.327 . S
C1128 C1116 1.349 . S
C1128 H1122 0.950 . S
C1128 C1129 1.327 . S
C1129 H1123 0.950 . S
C1129 C1128 1.327 . S
C1129 C1133 1.429 . S
C1130 C1113 1.574 . S
C1130 H1124 0.949 . S
C1130 C1134 1.368 . S
C1131 C1112 1.429 . S
C1131 C1125 1.429 . S
C1131 C1132 1.523 . S
C1132 C1113 1.368 . S
C1132 C1126 1.368 . S
C1132 C1131 1.523 . S
C1133 C1117 1.429 . S
C1133 C1129 1.429 . S
C1133 C1134 1.523 . S
C1134 C1118 1.368 . S
C1134 C1130 1.368 . S
C1134 C1133 1.523 . S
H1135 C1110 0.950 . S
H1136 C1112 0.950 . S
H1137 C1113 0.949 . S
H1138 C1115 0.950 . S
H1139 C1117 0.950 . S
C1140 C1141 1.349 . S
C1140 C1142 1.327 . S
C1140 H1165 0.950 . S
C1141 C1140 1.349 . S
C1141 C1157 1.349 . S
C1142 C1140 1.327 . S
C1142 C1161 1.429 . S
C1142 H1166 0.950 . S
C1143 C1160 1.574 . S
C1143 C1162 1.368 . S
C1143 H1167 0.949 . S
H1144 C1148 0.949 . S
C1145 C1146 1.349 . S
C1145 C1147 1.327 . S
C1145 H1168 0.950 . S
C1146 C1145 1.349 . S
C1146 C1158 1.349 . S
C1147 C1145 1.327 . S
C1147 C1163 1.429 . S
C1147 H1169 0.950 . S
C1148 H1144 0.949 . S
C1148 C1156 1.574 . S
C1148 C1164 1.368 . S
H1149 C1157 0.950 . S
H1150 C1155 0.950 . S
H1151 C1156 0.949 . S
H1152 C1158 0.950 . S
H1153 C1159 0.950 . S
H1154 C1160 0.949 . S
C1155 H1150 0.950 . S
C1155 C1157 1.327 . S
C1155 C1161 1.429 . S
C1156 C1148 1.574 . S
C1156 H1151 0.949 . S
C1156 C1162 1.368 . S
C1157 C1141 1.349 . S
C1157 H1149 0.950 . S
C1157 C1155 1.327 . S
C1158 C1146 1.349 . S
C1158 H1152 0.950 . S
C1158 C1159 1.327 . S
C1159 H1153 0.950 . S
C1159 C1158 1.327 . S
C1159 C1163 1.429 . S
C1160 C1143 1.574 . S
C1160 H1154 0.949 . S
C1160 C1164 1.368 . S
C1161 C1142 1.429 . S
C1161 C1155 1.429 . S
C1161 C1162 1.523 . S
C1162 C1143 1.368 . S
C1162 C1156 1.368 . S
C1162 C1161 1.523 . S
C1163 C1147 1.429 . S
C1163 C1159 1.429 . S
C1163 C1164 1.523 . S
C1164 C1148 1.368 . S
C1164 C1160 1.368 . S
C1164 C1163 1.523 . S
H1165 C1140 0.950 . S
H1166 C1142 0.950 . S
H1167 C1143 0.949 . S
H1168 C1145 0.950 . S
H1169 C1147 0.950 . S
C1170 C1171 1.349 . S
C1170 C1172 1.327 . S
C1170 H1195 0.950 . S
C1171 C1170 1.349 . S
C1171 C1187 1.349 . S
C1172 C1170 1.327 . S
C1172 C1191 1.429 . S
C1172 H1196 0.950 . S
C1173 C1190 1.574 . S
C1173 C1192 1.368 . S
C1173 H1197 0.949 . S
H1174 C1178 0.949 . S
C1175 C1176 1.349 . S
C1175 C1177 1.327 . S
C1175 H1198 0.950 . S
C1176 C1175 1.349 . S
C1176 C1188 1.349 . S
C1177 C1175 1.327 . S
C1177 C1193 1.429 . S
C1177 H1199 0.950 . S
C1178 H1174 0.949 . S
C1178 C1186 1.574 . S
C1178 C1194 1.368 . S
H1179 C1187 0.950 . S
H1180 C1185 0.950 . S
H1181 C1186 0.949 . S
H1182 C1188 0.950 . S
H1183 C1189 0.950 . S
H1184 C1190 0.949 . S
C1185 H1180 0.950 . S
C1185 C1187 1.327 . S
C1185 C1191 1.429 . S
C1186 C1178 1.574 . S
C1186 H1181 0.949 . S
C1186 C1192 1.368 . S
C1187 C1171 1.349 . S
C1187 H1179 0.950 . S
C1187 C1185 1.327 . S
C1188 C1176 1.349 . S
C1188 H1182 0.950 . S
C1188 C1189 1.327 . S
C1189 H1183 0.950 . S
C1189 C1188 1.327 . S
C1189 C1193 1.429 . S
C1190 C1173 1.574 . S
C1190 H1184 0.949 . S
C1190 C1194 1.368 . S
C1191 C1172 1.429 . S
C1191 C1185 1.429 . S
C1191 C1192 1.523 . S
C1192 C1173 1.368 . S
C1192 C1186 1.368 . S
C1192 C1191 1.523 . S
C1193 C1177 1.429 . S
C1193 C1189 1.429 . S
C1193 C1194 1.523 . S
C1194 C1178 1.368 . S
C1194 C1190 1.368 . S
C1194 C1193 1.523 . S
H1195 C1170 0.950 . S
H1196 C1172 0.950 . S
H1197 C1173 0.949 . S
H1198 C1175 0.950 . S
H1199 C1177 0.950 . S
C1200 C1201 1.349 . S
C1200 C1202 1.327 . S
C1200 H1225 0.950 . S
C1201 C1200 1.349 . S
C1201 C1217 1.349 . S
C1202 C1200 1.327 . S
C1202 C1221 1.429 . S
C1202 H1226 0.950 . S
C1203 C1220 1.574 . S
C1203 C1222 1.368 . S
C1203 H1227 0.949 . S
H1204 C1208 0.949 . S
C1205 C1206 1.349 . S
C1205 C1207 1.327 . S
C1205 H1228 0.950 . S
C1206 C1205 1.349 . S
C1206 C1218 1.349 . S
C1207 C1205 1.327 . S
C1207 C1223 1.429 . S
C1207 H1229 0.950 . S
C1208 H1204 0.949 . S
C1208 C1216 1.574 . S
C1208 C1224 1.368 . S
H1209 C1217 0.950 . S
H1210 C1215 0.950 . S
H1211 C1216 0.949 . S
H1212 C1218 0.950 . S
H1213 C1219 0.950 . S
H1214 C1220 0.949 . S
C1215 H1210 0.950 . S
C1215 C1217 1.327 . S
C1215 C1221 1.429 . S
C1216 C1208 1.574 . S
C1216 H1211 0.949 . S
C1216 C1222 1.368 . S
C1217 C1201 1.349 . S
C1217 H1209 0.950 . S
C1217 C1215 1.327 . S
C1218 C1206 1.349 . S
C1218 H1212 0.950 . S
C1218 C1219 1.327 . S
C1219 H1213 0.950 . S
C1219 C1218 1.327 . S
C1219 C1223 1.429 . S
C1220 C1203 1.574 . S
C1220 H1214 0.949 . S
C1220 C1224 1.368 . S
C1221 C1202 1.429 . S
C1221 C1215 1.429 . S
C1221 C1222 1.523 . S
C1222 C1203 1.368 . S
C1222 C1216 1.368 . S
C1222 C1221 1.523 . S
C1223 C1207 1.429 . S
C1223 C1219 1.429 . S
C1223 C1224 1.523 . S
C1224 C1208 1.368 . S
C1224 C1220 1.368 . S
C1224 C1223 1.523 . S
H1225 C1200 0.950 . S
H1226 C1202 0.950 . S
H1227 C1203 0.949 . S
H1228 C1205 0.950 . S
H1229 C1207 0.950 . S
C1230 C1231 1.349 . S
C1230 C1232 1.327 . S
C1230 H1255 0.950 . S
C1231 C1230 1.349 . S
C1231 C1247 1.349 . S
C1232 C1230 1.327 . S
C1232 C1251 1.429 . S
C1232 H1256 0.950 . S
C1233 C1250 1.574 . S
C1233 C1252 1.368 . S
C1233 H1257 0.949 . S
H1234 C1238 0.949 . S
C1235 C1236 1.349 . S
C1235 C1237 1.327 . S
C1235 H1258 0.950 . S
C1236 C1235 1.349 . S
C1236 C1248 1.349 . S
C1237 C1235 1.327 . S
C1237 C1253 1.429 . S
C1237 H1259 0.950 . S
C1238 H1234 0.949 . S
C1238 C1246 1.574 . S
C1238 C1254 1.368 . S
H1239 C1247 0.950 . S
H1240 C1245 0.950 . S
H1241 C1246 0.949 . S
H1242 C1248 0.950 . S
H1243 C1249 0.950 . S
H1244 C1250 0.949 . S
C1245 H1240 0.950 . S
C1245 C1247 1.327 . S
C1245 C1251 1.429 . S
C1246 C1238 1.574 . S
C1246 H1241 0.949 . S
C1246 C1252 1.368 . S
C1247 C1231 1.349 . S
C1247 H1239 0.950 . S
C1247 C1245 1.327 . S
C1248 C1236 1.349 . S
C1248 H1242 0.950 . S
C1248 C1249 1.327 . S
C1249 H1243 0.950 . S
C1249 C1248 1.327 . S
C1249 C1253 1.429 . S
C1250 C1233 1.574 . S
C1250 H1244 0.949 . S
C1250 C1254 1.368 . S
C1251 C1232 1.429 . S
C1251 C1245 1.429 . S
C1251 C1252 1.523 . S
C1252 C1233 1.368 . S
C1252 C1246 1.368 . S
C1252 C1251 1.523 . S
C1253 C1237 1.429 . S
C1253 C1249 1.429 . S
C1253 C1254 1.523 . S
C1254 C1238 1.368 . S
C1254 C1250 1.368 . S
C1254 C1253 1.523 . S
H1255 C1230 0.950 . S
H1256 C1232 0.950 . S
H1257 C1233 0.949 . S
H1258 C1235 0.950 . S
H1259 C1237 0.950 . S
C1260 C1261 1.349 . S
C1260 C1262 1.327 . S
C1260 H1285 0.950 . S
C1261 C1260 1.349 . S
C1261 C1277 1.349 . S
C1262 C1260 1.327 . S
C1262 C1281 1.429 . S
C1262 H1286 0.950 . S
C1263 C1280 1.574 . S
C1263 C1282 1.368 . S
C1263 H1287 0.949 . S
H1264 C1268 0.949 . S
C1265 C1266 1.349 . S
C1265 C1267 1.327 . S
C1265 H1288 0.950 . S
C1266 C1265 1.349 . S
C1266 C1278 1.349 . S
C1267 C1265 1.327 . S
C1267 C1283 1.429 . S
C1267 H1289 0.950 . S
C1268 H1264 0.949 . S
C1268 C1276 1.574 . S
C1268 C1284 1.368 . S
H1269 C1277 0.950 . S
H1270 C1275 0.950 . S
H1271 C1276 0.949 . S
H1272 C1278 0.950 . S
H1273 C1279 0.950 . S
H1274 C1280 0.949 . S
C1275 H1270 0.950 . S
C1275 C1277 1.327 . S
C1275 C1281 1.429 . S
C1276 C1268 1.574 . S
C1276 H1271 0.949 . S
C1276 C1282 1.368 . S
C1277 C1261 1.349 . S
C1277 H1269 0.950 . S
C1277 C1275 1.327 . S
C1278 C1266 1.349 . S
C1278 H1272 0.950 . S
C1278 C1279 1.327 . S
C1279 H1273 0.950 . S
C1279 C1278 1.327 . S
C1279 C1283 1.429 . S
C1280 C1263 1.574 . S
C1280 H1274 0.949 . S
C1280 C1284 1.368 . S
C1281 C1262 1.429 . S
C1281 C1275 1.429 . S
C1281 C1282 1.523 . S
C1282 C1263 1.368 . S
C1282 C1276 1.368 . S
C1282 C1281 1.523 . S
C1283 C1267 1.429 . S
C1283 C1279 1.429 . S
C1283 C1284 1.523 . S
C1284 C1268 1.368 . S
C1284 C1280 1.368 . S
C1284 C1283 1.523 . S
H1285 C1260 0.950 . S
H1286 C1262 0.950 . S
H1287 C1263 0.949 . S
H1288 C1265 0.950 . S
H1289 C1267 0.950 . S
C1290 C1291 1.349 . S
C1290 C1292 1.327 . S
C1290 H1315 0.950 . S
C1291 C1290 1.349 . S
C1291 C1307 1.349 . S
C1292 C1290 1.327 . S
C1292 C1311 1.429 . S
C1292 H1316 0.950 . S
C1293 C1310 1.574 . S
C1293 C1312 1.368 . S
C1293 H1317 0.949 . S
H1294 C1298 0.949 . S
C1295 C1296 1.349 . S
C1295 C1297 1.327 . S
C1295 H1318 0.950 . S
C1296 C1295 1.349 . S
C1296 C1308 1.349 . S
C1297 C1295 1.327 . S
C1297 C1313 1.429 . S
C1297 H1319 0.950 . S
C1298 H1294 0.949 . S
C1298 C1306 1.574 . S
C1298 C1314 1.368 . S
H1299 C1307 0.950 . S
H1300 C1305 0.950 . S
H1301 C1306 0.949 . S
H1302 C1308 0.950 . S
H1303 C1309 0.950 . S
H1304 C1310 0.949 . S
C1305 H1300 0.950 . S
C1305 C1307 1.327 . S
C1305 C1311 1.429 . S
C1306 C1298 1.574 . S
C1306 H1301 0.949 . S
C1306 C1312 1.368 . S
C1307 C1291 1.349 . S
C1307 H1299 0.950 . S
C1307 C1305 1.327 . S
C1308 C1296 1.349 . S
C1308 H1302 0.950 . S
C1308 C1309 1.327 . S
C1309 H1303 0.950 . S
C1309 C1308 1.327 . S
C1309 C1313 1.429 . S
C1310 C1293 1.574 . S
C1310 H1304 0.949 . S
C1310 C1314 1.368 . S
C1311 C1292 1.429 . S
C1311 C1305 1.429 . S
C1311 C1312 1.523 . S
C1312 C1293 1.368 . S
C1312 C1306 1.368 . S
C1312 C1311 1.523 . S
C1313 C1297 1.429 . S
C1313 C1309 1.429 . S
C1313 C1314 1.523 . S
C1314 C1298 1.368 . S
C1314 C1310 1.368 . S
C1314 C1313 1.523 . S
H1315 C1290 0.950 . S
H1316 C1292 0.950 . S
H1317 C1293 0.949 . S
H1318 C1295 0.950 . S
H1319 C1297 0.950 . S
C1320 C1321 1.349 . S
C1320 C1322 1.327 . S
C1320 H1345 0.950 . S
C1321 C1320 1.349 . S
C1321 C1337 1.349 . S
C1322 C1320 1.327 . S
C1322 C1341 1.429 . S
C1322 H1346 0.950 . S
C1323 C1340 1.574 . S
C1323 C1342 1.368 . S
C1323 H1347 0.949 . S
H1324 C1328 0.949 . S
C1325 C1326 1.349 . S
C1325 C1327 1.327 . S
C1325 H1348 0.950 . S
C1326 C1325 1.349 . S
C1326 C1338 1.349 . S
C1327 C1325 1.327 . S
C1327 C1343 1.429 . S
C1327 H1349 0.950 . S
C1328 H1324 0.949 . S
C1328 C1336 1.574 . S
C1328 C1344 1.368 . S
H1329 C1337 0.950 . S
H1330 C1335 0.950 . S
H1331 C1336 0.949 . S
H1332 C1338 0.950 . S
H1333 C1339 0.950 . S
H1334 C1340 0.949 . S
C1335 H1330 0.950 . S
C1335 C1337 1.327 . S
C1335 C1341 1.429 . S
C1336 C1328 1.574 . S
C1336 H1331 0.949 . S
C1336 C1342 1.368 . S
C1337 C1321 1.349 . S
C1337 H1329 0.950 . S
C1337 C1335 1.327 . S
C1338 C1326 1.349 . S
C1338 H1332 0.950 . S
C1338 C1339 1.327 . S
C1339 H1333 0.950 . S
C1339 C1338 1.327 . S
C1339 C1343 1.429 . S
C1340 C1323 1.574 . S
C1340 H1334 0.949 . S
C1340 C1344 1.368 . S
C1341 C1322 1.429 . S
C1341 C1335 1.429 . S
C1341 C1342 1.523 . S
C1342 C1323 1.368 . S
C1342 C1336 1.368 . S
C1342 C1341 1.523 . S
C1343 C1327 1.429 . S
C1343 C1339 1.429 . S
C1343 C1344 1.523 . S
C1344 C1328 1.368 . S
C1344 C1340 1.368 . S
C1344 C1343 1.523 . S
H1345 C1320 0.950 . S
H1346 C1322 0.950 . S
H1347 C1323 0.949 . S
H1348 C1325 0.950 . S
H1349 C1327 0.950 . S
C1350 C1351 1.349 . S
C1350 C1352 1.327 . S
C1350 H1375 0.950 . S
C1351 C1350 1.349 . S
C1351 C1367 1.349 . S
C1352 C1350 1.327 . S
C1352 C1371 1.429 . S
C1352 H1376 0.950 . S
C1353 C1370 1.574 . S
C1353 C1372 1.368 . S
C1353 H1377 0.949 . S
H1354 C1358 0.949 . S
C1355 C1356 1.349 . S
C1355 C1357 1.327 . S
C1355 H1378 0.950 . S
C1356 C1355 1.349 . S
C1356 C1368 1.349 . S
C1357 C1355 1.327 . S
C1357 C1373 1.429 . S
C1357 H1379 0.950 . S
C1358 H1354 0.949 . S
C1358 C1366 1.574 . S
C1358 C1374 1.368 . S
H1359 C1367 0.950 . S
H1360 C1365 0.950 . S
H1361 C1366 0.949 . S
H1362 C1368 0.950 . S
H1363 C1369 0.950 . S
H1364 C1370 0.949 . S
C1365 H1360 0.950 . S
C1365 C1367 1.327 . S
C1365 C1371 1.429 . S
C1366 C1358 1.574 . S
C1366 H1361 0.949 . S
C1366 C1372 1.368 . S
C1367 C1351 1.349 . S
C1367 H1359 0.950 . S
C1367 C1365 1.327 . S
C1368 C1356 1.349 . S
C1368 H1362 0.950 . S
C1368 C1369 1.327 . S
C1369 H1363 0.950 . S
C1369 C1368 1.327 . S
C1369 C1373 1.429 . S
C1370 C1353 1.574 . S
C1370 H1364 0.949 . S
C1370 C1374 1.368 . S
C1371 C1352 1.429 . S
C1371 C1365 1.429 . S
C1371 C1372 1.523 . S
C1372 C1353 1.368 . S
C1372 C1366 1.368 . S
C1372 C1371 1.523 . S
C1373 C1357 1.429 . S
C1373 C1369 1.429 . S
C1373 C1374 1.523 . S
C1374 C1358 1.368 . S
C1374 C1370 1.368 . S
C1374 C1373 1.523 . S
H1375 C1350 0.950 . S
H1376 C1352 0.950 . S
H1377 C1353 0.949 . S
H1378 C1355 0.950 . S
H1379 C1357 0.950 . S
C1380 C1381 1.349 . S
C1380 C1382 1.327 . S
C1380 H1405 0.950 . S
C1381 C1380 1.349 . S
C1381 C1397 1.349 . S
C1382 C1380 1.327 . S
C1382 C1401 1.429 . S
C1382 H1406 0.950 . S
C1383 C1400 1.574 . S
C1383 C1402 1.368 . S
C1383 H1407 0.949 . S
H1384 C1388 0.949 . S
C1385 C1386 1.349 . S
C1385 C1387 1.327 . S
C1385 H1408 0.950 . S
C1386 C1385 1.349 . S
C1386 C1398 1.349 . S
C1387 C1385 1.327 . S
C1387 C1403 1.429 . S
C1387 H1409 0.950 . S
C1388 H1384 0.949 . S
C1388 C1396 1.574 . S
C1388 C1404 1.368 . S
H1389 C1397 0.950 . S
H1390 C1395 0.950 . S
H1391 C1396 0.949 . S
H1392 C1398 0.950 . S
H1393 C1399 0.950 . S
H1394 C1400 0.949 . S
C1395 H1390 0.950 . S
C1395 C1397 1.327 . S
C1395 C1401 1.429 . S
C1396 C1388 1.574 . S
C1396 H1391 0.949 . S
C1396 C1402 1.368 . S
C1397 C1381 1.349 . S
C1397 H1389 0.950 . S
C1397 C1395 1.327 . S
C1398 C1386 1.349 . S
C1398 H1392 0.950 . S
C1398 C1399 1.327 . S
C1399 H1393 0.950 . S
C1399 C1398 1.327 . S
C1399 C1403 1.429 . S
C1400 C1383 1.574 . S
C1400 H1394 0.949 . S
C1400 C1404 1.368 . S
C1401 C1382 1.429 . S
C1401 C1395 1.429 . S
C1401 C1402 1.523 . S
C1402 C1383 1.368 . S
C1402 C1396 1.368 . S
C1402 C1401 1.523 . S
C1403 C1387 1.429 . S
C1403 C1399 1.429 . S
C1403 C1404 1.523 . S
C1404 C1388 1.368 . S
C1404 C1400 1.368 . S
C1404 C1403 1.523 . S
H1405 C1380 0.950 . S
H1406 C1382 0.950 . S
H1407 C1383 0.949 . S
H1408 C1385 0.950 . S
H1409 C1387 0.950 . S
C1410 C1411 1.349 . S
C1410 C1412 1.327 . S
C1410 H1435 0.950 . S
C1411 C1410 1.349 . S
C1411 C1427 1.349 . S
C1412 C1410 1.327 . S
C1412 C1431 1.429 . S
C1412 H1436 0.950 . S
C1413 C1430 1.574 . S
C1413 C1432 1.368 . S
C1413 H1437 0.949 . S
H1414 C1418 0.949 . S
C1415 C1416 1.349 . S
C1415 C1417 1.327 . S
C1415 H1438 0.950 . S
C1416 C1415 1.349 . S
C1416 C1428 1.349 . S
C1417 C1415 1.327 . S
C1417 C1433 1.429 . S
C1417 H1439 0.950 . S
C1418 H1414 0.949 . S
C1418 C1426 1.574 . S
C1418 C1434 1.368 . S
H1419 C1427 0.950 . S
H1420 C1425 0.950 . S
H1421 C1426 0.949 . S
H1422 C1428 0.950 . S
H1423 C1429 0.950 . S
H1424 C1430 0.949 . S
C1425 H1420 0.950 . S
C1425 C1427 1.327 . S
C1425 C1431 1.429 . S
C1426 C1418 1.574 . S
C1426 H1421 0.949 . S
C1426 C1432 1.368 . S
C1427 C1411 1.349 . S
C1427 H1419 0.950 . S
C1427 C1425 1.327 . S
C1428 C1416 1.349 . S
C1428 H1422 0.950 . S
C1428 C1429 1.327 . S
C1429 H1423 0.950 . S
C1429 C1428 1.327 . S
C1429 C1433 1.429 . S
C1430 C1413 1.574 . S
C1430 H1424 0.949 . S
C1430 C1434 1.368 . S
C1431 C1412 1.429 . S
C1431 C1425 1.429 . S
C1431 C1432 1.523 . S
C1432 C1413 1.368 . S
C1432 C1426 1.368 . S
C1432 C1431 1.523 . S
C1433 C1417 1.429 . S
C1433 C1429 1.429 . S
C1433 C1434 1.523 . S
C1434 C1418 1.368 . S
C1434 C1430 1.368 . S
C1434 C1433 1.523 . S
H1435 C1410 0.950 . S
H1436 C1412 0.950 . S
H1437 C1413 0.949 . S
H1438 C1415 0.950 . S
H1439 C1417 0.950 . S
C1440 C1441 1.349 . S
C1440 C1442 1.327 . S
C1440 H1465 0.950 1_455 S
C1441 C1440 1.349 . S
C1441 C1457 1.349 . S
C1442 C1440 1.327 . S
C1442 C1461 1.429 . S
C1442 H1466 0.950 1_455 S
C1443 C1460 1.574 . S
C1443 C1462 1.368 . S
C1443 H1467 0.949 . S
H1444 C1448 0.992 . S
C1445 C1446 1.349 . S
C1445 C1447 1.327 . S
C1445 H1468 0.950 . S
C1446 C1445 1.349 . S
C1446 C1458 1.349 1_455 S
C1447 C1445 1.327 . S
C1447 C1463 1.429 . S
C1447 H1469 0.950 . S
C1448 H1444 0.992 . S
C1448 C1456 1.570 1_655 S
C1448 C1464 1.330 1_655 S
H1449 C1457 0.950 . S
H1450 C1455 0.950 . S
H1451 C1456 0.946 1_655 S
H1452 C1458 0.950 . S
H1453 C1459 0.950 . S
H1454 C1460 0.950 . S
C1455 H1450 0.950 . S
C1455 C1457 1.327 . S
C1455 C1461 1.429 . S
C1456 C1448 1.570 1_455 S
C1456 H1451 0.946 1_455 S
C1456 C1462 1.373 . S
C1457 C1441 1.349 . S
C1457 H1449 0.950 . S
C1457 C1455 1.327 . S
C1458 C1446 1.349 1_655 S
C1458 H1452 0.950 . S
C1458 C1459 1.327 . S
C1459 H1453 0.950 . S
C1459 C1458 1.327 . S
C1459 C1463 1.429 1_655 S
C1460 C1443 1.574 . S
C1460 H1454 0.950 . S
C1460 C1464 1.368 . S
C1461 C1442 1.429 . S
C1461 C1455 1.429 . S
C1461 C1462 1.523 . S
C1462 C1443 1.368 . S
C1462 C1456 1.373 . S
C1462 C1461 1.523 . S
C1463 C1447 1.429 . S
C1463 C1459 1.429 1_455 S
C1463 C1464 1.523 1_556 S
C1464 C1448 1.330 1_455 S
C1464 C1460 1.368 . S
C1464 C1463 1.523 1_554 S
H1465 C1440 0.950 1_655 S
H1466 C1442 0.950 1_655 S
H1467 C1443 0.949 . S
H1468 C1445 0.950 . S
H1469 C1447 0.950 . S
C1470 C1471 1.349 . S
C1470 C1472 1.327 . S
C1470 H1495 0.950 . S
C1471 C1470 1.349 . S
C1471 C1487 1.349 . S
C1472 C1470 1.327 . S
C1472 C1491 1.429 . S
C1472 H1496 0.950 . S
C1473 C1490 1.574 . S
C1473 C1492 1.368 . S
C1473 H1497 0.949 . S
H1474 C1478 0.949 . S
C1475 C1476 1.349 . S
C1475 C1477 1.327 . S
C1475 H1498 0.950 . S
C1476 C1475 1.349 . S
C1476 C1488 1.349 . S
C1477 C1475 1.327 . S
C1477 C1493 1.429 . S
C1477 H1499 0.950 . S
C1478 H1474 0.949 . S
C1478 C1486 1.574 . S
C1478 C1494 1.368 . S
H1479 C1487 0.950 . S
H1480 C1485 0.950 . S
H1481 C1486 0.949 . S
H1482 C1488 0.950 . S
H1483 C1489 0.950 . S
H1484 C1490 0.949 1_556 S
C1485 H1480 0.950 . S
C1485 C1487 1.327 . S
C1485 C1491 1.429 . S
C1486 C1478 1.574 . S
C1486 H1481 0.949 . S
C1486 C1492 1.368 . S
C1487 C1471 1.349 . S
C1487 H1479 0.950 . S
C1487 C1485 1.327 . S
C1488 C1476 1.349 . S
C1488 H1482 0.950 . S
C1488 C1489 1.327 . S
C1489 H1483 0.950 . S
C1489 C1488 1.327 . S
C1489 C1493 1.429 . S
C1490 C1473 1.574 . S
C1490 H1484 0.949 1_554 S
C1490 C1494 1.368 . S
C1491 C1472 1.429 . S
C1491 C1485 1.429 . S
C1491 C1492 1.523 . S
C1492 C1473 1.368 . S
C1492 C1486 1.368 . S
C1492 C1491 1.523 . S
C1493 C1477 1.429 . S
C1493 C1489 1.429 . S
C1493 C1494 1.523 1_556 S
C1494 C1478 1.368 . S
C1494 C1490 1.368 . S
C1494 C1493 1.523 1_554 S
H1495 C1470 0.950 . S
H1496 C1472 0.950 . S
H1497 C1473 0.949 . S
H1498 C1475 0.950 . S
H1499 C1477 0.950 . S
C1500 C1501 1.349 . S
C1500 C1502 1.327 . S
C1500 H1525 0.950 . S
C1501 C1500 1.349 . S
C1501 C1517 1.349 1_545 S
C1502 C1500 1.327 . S
C1502 C1521 1.429 . S
C1502 H1526 0.950 . S
C1503 C1520 1.574 . S
C1503 C1522 1.368 1_565 S
C1503 H1527 0.949 . S
H1504 C1508 0.949 . S
C1505 C1506 1.349 1_565 S
C1505 C1507 1.327 . S
C1505 H1528 0.950 . S
C1506 C1505 1.349 1_545 S
C1506 C1518 1.349 . S
C1507 C1505 1.327 . S
C1507 C1523 1.429 1_565 S
C1507 H1529 0.950 . S
C1508 H1504 0.949 . S
C1508 C1516 1.574 . S
C1508 C1524 1.368 . S
H1509 C1517 0.950 . S
H1510 C1515 0.950 . S
H1511 C1516 0.949 . S
H1512 C1518 0.950 . S
H1513 C1519 0.950 . S
H1514 C1520 0.949 1_556 S
C1515 H1510 0.950 . S
C1515 C1517 1.327 . S
C1515 C1521 1.429 1_565 S
C1516 C1508 1.574 . S
C1516 H1511 0.949 . S
C1516 C1522 1.368 . S
C1517 C1501 1.349 1_565 S
C1517 H1509 0.950 . S
C1517 C1515 1.327 . S
C1518 C1506 1.349 . S
C1518 H1512 0.950 . S
C1518 C1519 1.327 . S
C1519 H1513 0.950 . S
C1519 C1518 1.327 . S
C1519 C1523 1.429 . S
C1520 C1503 1.574 . S
C1520 H1514 0.949 1_554 S
C1520 C1524 1.368 1_565 S
C1521 C1502 1.429 . S
C1521 C1515 1.429 1_545 S
C1521 C1522 1.523 . S
C1522 C1503 1.368 1_545 S
C1522 C1516 1.368 . S
C1522 C1521 1.523 . S
C1523 C1507 1.429 1_545 S
C1523 C1519 1.429 . S
C1523 C1524 1.523 1_556 S
C1524 C1508 1.368 . S
C1524 C1520 1.368 1_545 S
C1524 C1523 1.523 1_554 S
H1525 C1500 0.950 . S
H1526 C1502 0.950 . S
H1527 C1503 0.949 . S
H1528 C1505 0.950 . S
H1529 C1507 0.950 . S
C1530 C1531 1.349 . S
C1530 C1532 1.327 . S
C1530 H1555 0.950 . S
C1531 C1530 1.349 . S
C1531 C1547 1.349 . S
C1532 C1530 1.327 . S
C1532 C1551 1.429 . S
C1532 H1556 0.950 . S
C1533 C1550 1.574 . S
C1533 C1552 1.368 . S
C1533 H1557 0.949 . S
H1534 C1538 0.950 1_554 S
C1535 C1536 1.349 . S
C1535 C1537 1.327 . S
C1535 H1558 0.950 . S
C1536 C1535 1.349 . S
C1536 C1548 1.349 . S
C1537 C1535 1.327 . S
C1537 C1553 1.429 . S
C1537 H1559 0.950 . S
C1538 H1534 0.950 1_556 S
C1538 C1546 1.574 . S
C1538 C1554 1.368 . S
H1539 C1547 0.950 . S
H1540 C1545 0.950 . S
H1541 C1546 0.949 . S
H1542 C1548 0.950 . S
H1543 C1549 0.950 . S
H1544 C1550 0.949 . S
C1545 H1540 0.950 . S
C1545 C1547 1.327 . S
C1545 C1551 1.429 . S
C1546 C1538 1.574 . S
C1546 H1541 0.949 . S
C1546 C1552 1.368 . S
C1547 C1531 1.349 . S
C1547 H1539 0.950 . S
C1547 C1545 1.327 . S
C1548 C1536 1.349 . S
C1548 H1542 0.950 . S
C1548 C1549 1.327 . S
C1549 H1543 0.950 . S
C1549 C1548 1.327 . S
C1549 C1553 1.429 . S
C1550 C1533 1.574 . S
C1550 H1544 0.949 . S
C1550 C1554 1.368 . S
C1551 C1532 1.429 . S
C1551 C1545 1.429 . S
C1551 C1552 1.523 . S
C1552 C1533 1.368 . S
C1552 C1546 1.368 . S
C1552 C1551 1.523 . S
C1553 C1537 1.429 . S
C1553 C1549 1.429 . S
C1553 C1554 1.523 1_554 S
C1554 C1538 1.368 . S
C1554 C1550 1.368 . S
C1554 C1553 1.523 1_556 S
H1555 C1530 0.950 . S
H1556 C1532 0.950 . S
H1557 C1533 0.949 . S
H1558 C1535 0.950 . S
H1559 C1537 0.950 . S
C1560 C1561 1.349 . S
C1560 C1562 1.327 . S
C1560 H1585 0.950 . S
C1561 C1560 1.349 . S
C1561 C1577 1.349 . S
C1562 C1560 1.327 . S
C1562 C1581 1.429 . S
C1562 H1586 0.950 . S
C1563 C1580 1.574 . S
C1563 C1582 1.368 . S
C1563 H1587 0.949 . S
H1564 C1568 0.949 . S
C1565 C1566 1.349 . S
C1565 C1567 1.327 . S
C1565 H1588 0.950 . S
C1566 C1565 1.349 . S
C1566 C1578 1.349 . S
C1567 C1565 1.327 . S
C1567 C1583 1.429 . S
C1567 H1589 0.950 . S
C1568 H1564 0.949 . S
C1568 C1576 1.574 . S
C1568 C1584 1.368 . S
H1569 C1577 0.950 . S
H1570 C1575 0.950 . S
H1571 C1576 0.949 . S
H1572 C1578 0.950 . S
H1573 C1579 0.950 . S
H1574 C1580 0.949 . S
C1575 H1570 0.950 . S
C1575 C1577 1.327 . S
C1575 C1581 1.429 . S
C1576 C1568 1.574 . S
C1576 H1571 0.949 . S
C1576 C1582 1.368 . S
C1577 C1561 1.349 . S
C1577 H1569 0.950 . S
C1577 C1575 1.327 . S
C1578 C1566 1.349 . S
C1578 H1572 0.950 . S
C1578 C1579 1.327 . S
C1579 H1573 0.950 . S
C1579 C1578 1.327 . S
C1579 C1583 1.429 . S
C1580 C1563 1.574 . S
C1580 H1574 0.949 . S
C1580 C1584 1.368 . S
C1581 C1562 1.429 . S
C1581 C1575 1.429 . S
C1581 C1582 1.523 1_554 S
C1582 C1563 1.368 . S
C1582 C1576 1.368 . S
C1582 C1581 1.523 1_556 S
C1583 C1567 1.429 . S
C1583 C1579 1.429 . S
C1583 C1584 1.523 . S
C1584 C1568 1.368 . S
C1584 C1580 1.368 . S
C1584 C1583 1.523 . S
H1585 C1560 0.950 . S
H1586 C1562 0.950 . S
H1587 C1563 0.949 . S
H1588 C1565 0.950 . S
H1589 C1567 0.950 . S
C1590 C1591 1.349 1_565 S
C1590 C1592 1.327 . S
C1590 H1615 0.950 . S
C1591 C1590 1.349 1_545 S
C1591 C1607 1.349 . S
C1592 C1590 1.327 . S
C1592 C1611 1.429 1_565 S
C1592 H1616 0.950 . S
C1593 C1610 1.574 . S
C1593 C1612 1.368 . S
C1593 H1617 0.949 1_556 S
H1594 C1598 0.949 . S
C1595 C1596 1.349 . S
C1595 C1597 1.327 . S
C1595 H1618 0.950 . S
C1596 C1595 1.349 . S
C1596 C1608 1.369 . S
C1597 C1595 1.327 . S
C1597 C1613 1.429 . S
C1597 H1619 0.950 . S
C1598 H1594 0.949 . S
C1598 C1606 1.574 . S
C1598 C1614 1.368 1_565 S
H1599 C1607 0.950 . S
H1600 C1605 0.950 . S
H1601 C1606 0.949 . S
H1602 C1608 0.932 1_565 S
H1603 C1609 0.994 . S
H1604 C1610 0.949 . S
C1605 H1600 0.950 . S
C1605 C1607 1.327 . S
C1605 C1611 1.429 . S
C1606 C1598 1.574 . S
C1606 H1601 0.949 . S
C1606 C1612 1.368 1_565 S
C1607 C1591 1.349 . S
C1607 H1599 0.950 . S
C1607 C1605 1.327 . S
C1608 C1596 1.369 . S
C1608 H1602 0.932 1_545 S
C1608 C1609 1.326 1_545 S
C1609 H1603 0.994 . S
C1609 C1608 1.326 1_565 S
C1609 C1613 1.391 1_565 S
C1610 C1593 1.574 . S
C1610 H1604 0.949 . S
C1610 C1614 1.368 . S
C1611 C1592 1.429 1_545 S
C1611 C1605 1.429 . S
C1611 C1612 1.523 1_554 S
C1612 C1593 1.368 . S
C1612 C1606 1.368 1_545 S
C1612 C1611 1.523 1_556 S
C1613 C1597 1.429 . S
C1613 C1609 1.391 1_545 S
C1613 C1614 1.523 . S
C1614 C1598 1.368 1_545 S
C1614 C1610 1.368 . S
C1614 C1613 1.523 . S
H1615 C1590 0.950 . S
H1616 C1592 0.950 . S
H1617 C1593 0.949 1_554 S
H1618 C1595 0.950 . S
H1619 C1597 0.950 . S
C1620 C1621 1.349 . S
C1620 C1622 1.327 . S
C1620 H1645 0.950 . S
C1621 C1620 1.349 . S
C1621 C1637 1.349 . S
C1622 C1620 1.327 . S
C1622 C1641 1.429 . S
C1622 H1646 0.950 . S
C1623 C1640 1.574 . S
C1623 C1642 1.368 . S
C1623 H1647 0.949 . S
H1624 C1628 0.949 . S
C1625 C1626 1.349 . S
C1625 C1627 1.327 . S
C1625 H1648 0.950 . S
C1626 C1625 1.349 . S
C1626 C1638 1.349 . S
C1627 C1625 1.327 . S
C1627 C1643 1.429 . S
C1627 H1649 0.950 . S
C1628 H1624 0.949 . S
C1628 C1636 1.574 . S
C1628 C1644 1.368 . S
H1629 C1637 0.950 . S
H1630 C1635 0.950 . S
H1631 C1636 0.949 . S
H1632 C1638 0.950 . S
H1633 C1639 0.950 . S
H1634 C1640 0.949 . S
C1635 H1630 0.950 . S
C1635 C1637 1.327 . S
C1635 C1641 1.429 . S
C1636 C1628 1.574 . S
C1636 H1631 0.949 . S
C1636 C1642 1.368 . S
C1637 C1621 1.349 . S
C1637 H1629 0.950 . S
C1637 C1635 1.327 . S
C1638 C1626 1.349 . S
C1638 H1632 0.950 . S
C1638 C1639 1.327 . S
C1639 H1633 0.950 . S
C1639 C1638 1.327 . S
C1639 C1643 1.429 . S
C1640 C1623 1.574 . S
C1640 H1634 0.949 . S
C1640 C1644 1.368 . S
C1641 C1622 1.429 . S
C1641 C1635 1.429 . S
C1641 C1642 1.523 . S
C1642 C1623 1.368 . S
C1642 C1636 1.368 . S
C1642 C1641 1.523 . S
C1643 C1627 1.429 . S
C1643 C1639 1.429 . S
C1643 C1644 1.523 . S
C1644 C1628 1.368 . S
C1644 C1640 1.368 . S
C1644 C1643 1.523 . S
H1645 C1620 0.950 . S
H1646 C1622 0.950 . S
H1647 C1623 0.949 . S
H1648 C1625 0.950 . S
H1649 C1627 0.950 . S
C1650 C1651 1.349 . S
C1650 C1652 1.327 . S
C1650 H1675 0.950 . S
C1651 C1650 1.349 . S
C1651 C1667 1.349 . S
C1652 C1650 1.327 . S
C1652 C1671 1.429 . S
C1652 H1676 0.950 . S
C1653 C1670 1.574 . S
C1653 C1672 1.368 . S
C1653 H1677 0.949 . S
H1654 C1658 0.949 . S
C1655 C1656 1.349 . S
C1655 C1657 1.327 . S
C1655 H1678 0.950 . S
C1656 C1655 1.349 . S
C1656 C1668 1.349 . S
C1657 C1655 1.327 . S
C1657 C1673 1.429 . S
C1657 H1679 0.950 . S
C1658 H1654 0.949 . S
C1658 C1666 1.574 . S
C1658 C1674 1.368 . S
H1659 C1667 0.950 . S
H1660 C1665 0.950 . S
H1661 C1666 0.949 . S
H1662 C1668 0.950 . S
H1663 C1669 0.950 . S
H1664 C1670 0.949 . S
C1665 H1660 0.950 . S
C1665 C1667 1.327 . S
C1665 C1671 1.429 . S
C1666 C1658 1.574 . S
C1666 H1661 0.949 . S
C1666 C1672 1.368 . S
C1667 C1651 1.349 . S
C1667 H1659 0.950 . S
C1667 C1665 1.327 . S
C1668 C1656 1.349 . S
C1668 H1662 0.950 . S
C1668 C1669 1.327 . S
C1669 H1663 0.950 . S
C1669 C1668 1.327 . S
C1669 C1673 1.429 . S
C1670 C1653 1.574 . S
C1670 H1664 0.949 . S
C1670 C1674 1.368 . S
C1671 C1652 1.429 . S
C1671 C1665 1.429 . S
C1671 C1672 1.523 . S
C1672 C1653 1.368 . S
C1672 C1666 1.368 . S
C1672 C1671 1.523 . S
C1673 C1657 1.429 . S
C1673 C1669 1.429 . S
C1673 C1674 1.523 . S
C1674 C1658 1.368 . S
C1674 C1670 1.368 . S
C1674 C1673 1.523 . S
H1675 C1650 0.950 . S
H1676 C1652 0.950 . S
H1677 C1653 0.949 . S
H1678 C1655 0.950 . S
H1679 C1657 0.950 . S
C1680 C1681 1.349 . S
C1680 C1682 1.327 . S
C1680 H1705 0.950 . S
C1681 C1680 1.349 . S
C1681 C1697 1.349 . S
C1682 C1680 1.327 . S
C1682 C1701 1.429 . S
C1682 H1706 0.950 . S
C1683 C1700 1.574 . S
C1683 C1702 1.368 . S
C1683 H1707 0.949 . S
H1684 C1688 0.949 . S
C1685 C1686 1.349 . S
C1685 C1687 1.327 . S
C1685 H1708 0.950 . S
C1686 C1685 1.349 . S
C1686 C1698 1.349 . S
C1687 C1685 1.327 . S
C1687 C1703 1.429 . S
C1687 H1709 0.950 . S
C1688 H1684 0.949 . S
C1688 C1696 1.574 . S
C1688 C1704 1.368 . S
H1689 C1697 0.950 . S
H1690 C1695 0.950 . S
H1691 C1696 0.949 . S
H1692 C1698 0.950 . S
H1693 C1699 0.950 . S
H1694 C1700 0.949 . S
C1695 H1690 0.950 . S
C1695 C1697 1.327 . S
C1695 C1701 1.429 . S
C1696 C1688 1.574 . S
C1696 H1691 0.949 . S
C1696 C1702 1.368 . S
C1697 C1681 1.349 . S
C1697 H1689 0.950 . S
C1697 C1695 1.327 . S
C1698 C1686 1.349 . S
C1698 H1692 0.950 . S
C1698 C1699 1.327 . S
C1699 H1693 0.950 . S
C1699 C1698 1.327 . S
C1699 C1703 1.429 . S
C1700 C1683 1.574 . S
C1700 H1694 0.949 . S
C1700 C1704 1.368 . S
C1701 C1682 1.429 . S
C1701 C1695 1.429 . S
C1701 C1702 1.523 . S
C1702 C1683 1.368 . S
C1702 C1696 1.368 . S
C1702 C1701 1.523 . S
C1703 C1687 1.429 . S
C1703 C1699 1.429 . S
C1703 C1704 1.523 . S
C1704 C1688 1.368 . S
C1704 C1700 1.368 . S
C1704 C1703 1.523 . S
H1705 C1680 0.950 . S
H1706 C1682 0.950 . S
H1707 C1683 0.949 . S
H1708 C1685 0.950 . S
H1709 C1687 0.950 . S
C1710 C1711 1.349 . S
C1710 C1712 1.327 . S
C1710 H1735 0.950 . S
C1711 C1710 1.349 . S
C1711 C1727 1.349 . S
C1712 C1710 1.327 . S
C1712 C1731 1.429 . S
C1712 H1736 0.950 . S
C1713 C1730 1.574 . S
C1713 C1732 1.368 . S
C1713 H1737 0.949 . S
H1714 C1718 0.949 . S
C1715 C1716 1.349 . S
C1715 C1717 1.327 . S
C1715 H1738 0.950 . S
C1716 C1715 1.349 . S
C1716 C1728 1.349 . S
C1717 C1715 1.327 . S
C1717 C1733 1.429 . S
C1717 H1739 0.950 . S
C1718 H1714 0.949 . S
C1718 C1726 1.574 . S
C1718 C1734 1.368 . S
H1719 C1727 0.950 . S
H1720 C1725 0.950 . S
H1721 C1726 0.949 . S
H1722 C1728 0.950 . S
H1723 C1729 0.950 . S
H1724 C1730 0.949 . S
C1725 H1720 0.950 . S
C1725 C1727 1.327 . S
C1725 C1731 1.429 . S
C1726 C1718 1.574 . S
C1726 H1721 0.949 . S
C1726 C1732 1.368 . S
C1727 C1711 1.349 . S
C1727 H1719 0.950 . S
C1727 C1725 1.327 . S
C1728 C1716 1.349 . S
C1728 H1722 0.950 . S
C1728 C1729 1.327 . S
C1729 H1723 0.950 . S
C1729 C1728 1.327 . S
C1729 C1733 1.429 . S
C1730 C1713 1.574 . S
C1730 H1724 0.949 . S
C1730 C1734 1.368 . S
C1731 C1712 1.429 . S
C1731 C1725 1.429 . S
C1731 C1732 1.523 . S
C1732 C1713 1.368 . S
C1732 C1726 1.368 . S
C1732 C1731 1.523 . S
C1733 C1717 1.429 . S
C1733 C1729 1.429 . S
C1733 C1734 1.523 . S
C1734 C1718 1.368 . S
C1734 C1730 1.368 . S
C1734 C1733 1.523 . S
H1735 C1710 0.950 . S
H1736 C1712 0.950 . S
H1737 C1713 0.949 . S
H1738 C1715 0.950 . S
H1739 C1717 0.950 . S
C1740 C1741 1.349 . S
C1740 C1742 1.327 . S
C1740 H1765 0.950 . S
C1741 C1740 1.349 . S
C1741 C1757 1.349 . S
C1742 C1740 1.327 . S
C1742 C1761 1.429 . S
C1742 H1766 0.950 . S
C1743 C1760 1.574 . S
C1743 C1762 1.368 . S
C1743 H1767 0.949 . S
H1744 C1748 0.949 . S
C1745 C1746 1.349 . S
C1745 C1747 1.327 . S
C1745 H1768 0.950 . S
C1746 C1745 1.349 . S
C1746 C1758 1.349 . S
C1747 C1745 1.327 . S
C1747 C1763 1.429 . S
C1747 H1769 0.950 . S
C1748 H1744 0.949 . S
C1748 C1756 1.574 . S
C1748 C1764 1.368 . S
H1749 C1757 0.950 . S
H1750 C1755 0.950 . S
H1751 C1756 0.949 . S
H1752 C1758 0.950 . S
H1753 C1759 0.950 . S
H1754 C1760 0.949 . S
C1755 H1750 0.950 . S
C1755 C1757 1.327 . S
C1755 C1761 1.429 . S
C1756 C1748 1.574 . S
C1756 H1751 0.949 . S
C1756 C1762 1.368 . S
C1757 C1741 1.349 . S
C1757 H1749 0.950 . S
C1757 C1755 1.327 . S
C1758 C1746 1.349 . S
C1758 H1752 0.950 . S
C1758 C1759 1.327 . S
C1759 H1753 0.950 . S
C1759 C1758 1.327 . S
C1759 C1763 1.429 . S
C1760 C1743 1.574 . S
C1760 H1754 0.949 . S
C1760 C1764 1.368 . S
C1761 C1742 1.429 . S
C1761 C1755 1.429 . S
C1761 C1762 1.523 . S
C1762 C1743 1.368 . S
C1762 C1756 1.368 . S
C1762 C1761 1.523 . S
C1763 C1747 1.429 . S
C1763 C1759 1.429 . S
C1763 C1764 1.523 . S
C1764 C1748 1.368 . S
C1764 C1760 1.368 . S
C1764 C1763 1.523 . S
H1765 C1740 0.950 . S
H1766 C1742 0.950 . S
H1767 C1743 0.949 . S
H1768 C1745 0.950 . S
H1769 C1747 0.950 . S
C1770 C1771 1.349 . S
C1770 C1772 1.327 . S
C1770 H1795 0.950 . S
C1771 C1770 1.349 . S
C1771 C1787 1.349 . S
C1772 C1770 1.327 . S
C1772 C1791 1.429 . S
C1772 H1796 0.950 . S
C1773 C1790 1.574 . S
C1773 C1792 1.368 . S
C1773 H1797 0.949 . S
H1774 C1778 0.949 . S
C1775 C1776 1.349 . S
C1775 C1777 1.327 . S
C1775 H1798 0.950 . S
C1776 C1775 1.349 . S
C1776 C1788 1.349 . S
C1777 C1775 1.327 . S
C1777 C1793 1.429 . S
C1777 H1799 0.950 . S
C1778 H1774 0.949 . S
C1778 C1786 1.574 . S
C1778 C1794 1.368 . S
H1779 C1787 0.950 . S
H1780 C1785 0.950 . S
H1781 C1786 0.949 . S
H1782 C1788 0.950 . S
H1783 C1789 0.950 . S
H1784 C1790 0.949 . S
C1785 H1780 0.950 . S
C1785 C1787 1.327 . S
C1785 C1791 1.429 . S
C1786 C1778 1.574 . S
C1786 H1781 0.949 . S
C1786 C1792 1.368 . S
C1787 C1771 1.349 . S
C1787 H1779 0.950 . S
C1787 C1785 1.327 . S
C1788 C1776 1.349 . S
C1788 H1782 0.950 . S
C1788 C1789 1.327 . S
C1789 H1783 0.950 . S
C1789 C1788 1.327 . S
C1789 C1793 1.429 . S
C1790 C1773 1.574 . S
C1790 H1784 0.949 . S
C1790 C1794 1.368 . S
C1791 C1772 1.429 . S
C1791 C1785 1.429 . S
C1791 C1792 1.523 . S
C1792 C1773 1.368 . S
C1792 C1786 1.368 . S
C1792 C1791 1.523 . S
C1793 C1777 1.429 . S
C1793 C1789 1.429 . S
C1793 C1794 1.523 . S
C1794 C1778 1.368 . S
C1794 C1790 1.368 . S
C1794 C1793 1.523 . S
H1795 C1770 0.950 . S
H1796 C1772 0.950 . S
H1797 C1773 0.949 . S
H1798 C1775 0.950 . S
H1799 C1777 0.950 . S
C1800 C1801 1.349 . S
C1800 C1802 1.327 . S
C1800 H1825 0.950 . S
C1801 C1800 1.349 . S
C1801 C1817 1.349 . S
C1802 C1800 1.327 . S
C1802 C1821 1.429 . S
C1802 H1826 0.950 . S
C1803 C1820 1.574 . S
C1803 C1822 1.368 . S
C1803 H1827 0.949 . S
H1804 C1808 0.949 . S
C1805 C1806 1.349 . S
C1805 C1807 1.327 . S
C1805 H1828 0.950 . S
C1806 C1805 1.349 . S
C1806 C1818 1.349 . S
C1807 C1805 1.327 . S
C1807 C1823 1.429 . S
C1807 H1829 0.950 . S
C1808 H1804 0.949 . S
C1808 C1816 1.574 . S
C1808 C1824 1.368 . S
H1809 C1817 0.950 . S
H1810 C1815 0.950 . S
H1811 C1816 0.949 . S
H1812 C1818 0.950 . S
H1813 C1819 0.950 . S
H1814 C1820 0.949 . S
C1815 H1810 0.950 . S
C1815 C1817 1.327 . S
C1815 C1821 1.429 . S
C1816 C1808 1.574 . S
C1816 H1811 0.949 . S
C1816 C1822 1.368 . S
C1817 C1801 1.349 . S
C1817 H1809 0.950 . S
C1817 C1815 1.327 . S
C1818 C1806 1.349 . S
C1818 H1812 0.950 . S
C1818 C1819 1.327 . S
C1819 H1813 0.950 . S
C1819 C1818 1.327 . S
C1819 C1823 1.429 . S
C1820 C1803 1.574 . S
C1820 H1814 0.949 . S
C1820 C1824 1.368 . S
C1821 C1802 1.429 . S
C1821 C1815 1.429 . S
C1821 C1822 1.523 . S
C1822 C1803 1.368 . S
C1822 C1816 1.368 . S
C1822 C1821 1.523 . S
C1823 C1807 1.429 . S
C1823 C1819 1.429 . S
C1823 C1824 1.523 . S
C1824 C1808 1.368 . S
C1824 C1820 1.368 . S
C1824 C1823 1.523 . S
H1825 C1800 0.950 . S
H1826 C1802 0.950 . S
H1827 C1803 0.949 . S
H1828 C1805 0.950 . S
H1829 C1807 0.950 . S
C1830 C1831 1.349 . S
C1830 C1832 1.327 . S
C1830 H1855 0.950 . S
C1831 C1830 1.349 . S
C1831 C1847 1.349 . S
C1832 C1830 1.327 . S
C1832 C1851 1.429 . S
C1832 H1856 0.950 . S
C1833 C1850 1.574 . S
C1833 C1852 1.368 . S
C1833 H1857 0.949 . S
H1834 C1838 0.949 . S
C1835 C1836 1.349 . S
C1835 C1837 1.327 . S
C1835 H1858 0.950 . S
C1836 C1835 1.349 . S
C1836 C1848 1.349 . S
C1837 C1835 1.327 . S
C1837 C1853 1.429 . S
C1837 H1859 0.950 . S
C1838 H1834 0.949 . S
C1838 C1846 1.574 . S
C1838 C1854 1.368 . S
H1839 C1847 0.950 . S
H1840 C1845 0.950 . S
H1841 C1846 0.949 . S
H1842 C1848 0.950 . S
H1843 C1849 0.950 . S
H1844 C1850 0.949 . S
C1845 H1840 0.950 . S
C1845 C1847 1.327 . S
C1845 C1851 1.429 . S
C1846 C1838 1.574 . S
C1846 H1841 0.949 . S
C1846 C1852 1.368 . S
C1847 C1831 1.349 . S
C1847 H1839 0.950 . S
C1847 C1845 1.327 . S
C1848 C1836 1.349 . S
C1848 H1842 0.950 . S
C1848 C1849 1.327 . S
C1849 H1843 0.950 . S
C1849 C1848 1.327 . S
C1849 C1853 1.429 . S
C1850 C1833 1.574 . S
C1850 H1844 0.949 . S
C1850 C1854 1.368 . S
C1851 C1832 1.429 . S
C1851 C1845 1.429 . S
C1851 C1852 1.523 . S
C1852 C1833 1.368 . S
C1852 C1846 1.368 . S
C1852 C1851 1.523 . S
C1853 C1837 1.429 . S
C1853 C1849 1.429 . S
C1853 C1854 1.523 . S
C1854 C1838 1.368 . S
C1854 C1850 1.368 . S
C1854 C1853 1.523 . S
H1855 C1830 0.950 . S
H1856 C1832 0.950 . S
H1857 C1833 0.949 . S
H1858 C1835 0.950 . S
H1859 C1837 0.950 . S
C1860 C1861 1.349 . S
C1860 C1862 1.327 . S
C1860 H1885 0.950 . S
C1861 C1860 1.349 . S
C1861 C1877 1.349 . S
C1862 C1860 1.327 . S
C1862 C1881 1.429 . S
C1862 H1886 0.950 . S
C1863 C1880 1.574 . S
C1863 C1882 1.368 . S
C1863 H1887 0.949 . S
H1864 C1868 0.949 . S
C1865 C1866 1.349 . S
C1865 C1867 1.327 . S
C1865 H1888 0.950 . S
C1866 C1865 1.349 . S
C1866 C1878 1.349 . S
C1867 C1865 1.327 . S
C1867 C1883 1.429 . S
C1867 H1889 0.950 . S
C1868 H1864 0.949 . S
C1868 C1876 1.574 . S
C1868 C1884 1.368 . S
H1869 C1877 0.950 . S
H1870 C1875 0.950 . S
H1871 C1876 0.949 . S
H1872 C1878 0.950 . S
H1873 C1879 0.950 . S
H1874 C1880 0.949 . S
C1875 H1870 0.950 . S
C1875 C1877 1.327 . S
C1875 C1881 1.429 . S
C1876 C1868 1.574 . S
C1876 H1871 0.949 . S
C1876 C1882 1.368 . S
C1877 C1861 1.349 . S
C1877 H1869 0.950 . S
C1877 C1875 1.327 . S
C1878 C1866 1.349 . S
C1878 H1872 0.950 . S
C1878 C1879 1.327 . S
C1879 H1873 0.950 . S
C1879 C1878 1.327 . S
C1879 C1883 1.429 . S
C1880 C1863 1.574 . S
C1880 H1874 0.949 . S
C1880 C1884 1.368 . S
C1881 C1862 1.429 . S
C1881 C1875 1.429 . S
C1881 C1882 1.523 . S
C1882 C1863 1.368 . S
C1882 C1876 1.368 . S
C1882 C1881 1.523 . S
C1883 C1867 1.429 . S
C1883 C1879 1.429 . S
C1883 C1884 1.523 . S
C1884 C1868 1.368 . S
C1884 C1880 1.368 . S
C1884 C1883 1.523 . S
H1885 C1860 0.950 . S
H1886 C1862 0.950 . S
H1887 C1863 0.949 . S
H1888 C1865 0.950 . S
H1889 C1867 0.950 . S
C1890 C1891 1.349 . S
C1890 C1892 1.327 . S
C1890 H1915 0.950 . S
C1891 C1890 1.349 . S
C1891 C1907 1.349 . S
C1892 C1890 1.327 . S
C1892 C1911 1.429 . S
C1892 H1916 0.950 . S
C1893 C1910 1.574 . S
C1893 C1912 1.368 . S
C1893 H1917 0.949 . S
H1894 C1898 0.949 . S
C1895 C1896 1.349 . S
C1895 C1897 1.327 . S
C1895 H1918 0.950 . S
C1896 C1895 1.349 . S
C1896 C1908 1.349 . S
C1897 C1895 1.327 . S
C1897 C1913 1.429 . S
C1897 H1919 0.950 . S
C1898 H1894 0.949 . S
C1898 C1906 1.574 . S
C1898 C1914 1.368 . S
H1899 C1907 0.950 . S
H1900 C1905 0.950 . S
H1901 C1906 0.949 . S
H1902 C1908 0.950 . S
H1903 C1909 0.950 . S
H1904 C1910 0.949 . S
C1905 H1900 0.950 . S
C1905 C1907 1.327 . S
C1905 C1911 1.429 . S
C1906 C1898 1.574 . S
C1906 H1901 0.949 . S
C1906 C1912 1.368 . S
C1907 C1891 1.349 . S
C1907 H1899 0.950 . S
C1907 C1905 1.327 . S
C1908 C1896 1.349 . S
C1908 H1902 0.950 . S
C1908 C1909 1.327 . S
C1909 H1903 0.950 . S
C1909 C1908 1.327 . S
C1909 C1913 1.429 . S
C1910 C1893 1.574 . S
C1910 H1904 0.949 . S
C1910 C1914 1.368 . S
C1911 C1892 1.429 . S
C1911 C1905 1.429 . S
C1911 C1912 1.523 . S
C1912 C1893 1.368 . S
C1912 C1906 1.368 . S
C1912 C1911 1.523 . S
C1913 C1897 1.429 . S
C1913 C1909 1.429 . S
C1913 C1914 1.523 . S
C1914 C1898 1.368 . S
C1914 C1910 1.368 . S
C1914 C1913 1.523 . S
H1915 C1890 0.950 . S
H1916 C1892 0.950 . S
H1917 C1893 0.949 . S
H1918 C1895 0.950 . S
H1919 C1897 0.950 . S
C1920 C1921 1.349 . S
C1920 C1922 1.327 . S
C1920 H1945 0.950 . S
C1921 C1920 1.349 . S
C1921 C1937 1.349 . S
C1922 C1920 1.327 . S
C1922 C1941 1.429 . S
C1922 H1946 0.950 . S
C1923 C1940 1.574 . S
C1923 C1942 1.368 . S
C1923 H1947 0.949 . S
H1924 C1928 0.949 . S
C1925 C1926 1.349 . S
C1925 C1927 1.327 . S
C1925 H1948 0.950 . S
C1926 C1925 1.349 . S
C1926 C1938 1.349 . S
C1927 C1925 1.327 . S
C1927 C1943 1.429 . S
C1927 H1949 0.950 . S
C1928 H1924 0.949 . S
C1928 C1936 1.574 . S
C1928 C1944 1.368 . S
H1929 C1937 0.950 . S
H1930 C1935 0.950 . S
H1931 C1936 0.949 . S
H1932 C1938 0.950 . S
H1933 C1939 0.950 . S
H1934 C1940 0.949 . S
C1935 H1930 0.950 . S
C1935 C1937 1.327 . S
C1935 C1941 1.429 . S
C1936 C1928 1.574 . S
C1936 H1931 0.949 . S
C1936 C1942 1.368 . S
C1937 C1921 1.349 . S
C1937 H1929 0.950 . S
C1937 C1935 1.327 . S
C1938 C1926 1.349 . S
C1938 H1932 0.950 . S
C1938 C1939 1.327 . S
C1939 H1933 0.950 . S
C1939 C1938 1.327 . S
C1939 C1943 1.429 . S
C1940 C1923 1.574 . S
C1940 H1934 0.949 . S
C1940 C1944 1.368 . S
C1941 C1922 1.429 . S
C1941 C1935 1.429 . S
C1941 C1942 1.523 . S
C1942 C1923 1.368 . S
C1942 C1936 1.368 . S
C1942 C1941 1.523 . S
C1943 C1927 1.429 . S
C1943 C1939 1.429 . S
C1943 C1944 1.523 . S
C1944 C1928 1.368 . S
C1944 C1940 1.368 . S
C1944 C1943 1.523 . S
H1945 C1920 0.950 . S
H1946 C1922 0.950 . S
H1947 C1923 0.949 . S
H1948 C1925 0.950 . S
H1949 C1927 0.950 . S
C1950 C1951 1.349 . S
C1950 C1952 1.327 . S
C1950 H1975 0.950 . S
C1951 C1950 1.349 . S
C1951 C1967 1.349 . S
C1952 C1950 1.327 . S
C1952 C1971 1.429 . S
C1952 H1976 0.950 . S
C1953 C1970 1.574 . S
C1953 C1972 1.368 . S
C1953 H1977 0.949 . S
H1954 C1958 0.949 . S
C1955 C1956 1.349 . S
C1955 C1957 1.327 . S
C1955 H1978 0.950 . S
C1956 C1955 1.349 . S
C1956 C1968 1.349 . S
C1957 C1955 1.327 . S
C1957 C1973 1.429 . S
C1957 H1979 0.950 . S
C1958 H1954 0.949 . S
C1958 C1966 1.574 . S
C1958 C1974 1.368 . S
H1959 C1967 0.950 . S
H1960 C1965 0.950 . S
H1961 C1966 0.949 . S
H1962 C1968 0.950 . S
H1963 C1969 0.950 . S
H1964 C1970 0.949 . S
C1965 H1960 0.950 . S
C1965 C1967 1.327 . S
C1965 C1971 1.429 . S
C1966 C1958 1.574 . S
C1966 H1961 0.949 . S
C1966 C1972 1.368 . S
C1967 C1951 1.349 . S
C1967 H1959 0.950 . S
C1967 C1965 1.327 . S
C1968 C1956 1.349 . S
C1968 H1962 0.950 . S
C1968 C1969 1.327 . S
C1969 H1963 0.950 . S
C1969 C1968 1.327 . S
C1969 C1973 1.429 . S
C1970 C1953 1.574 . S
C1970 H1964 0.949 . S
C1970 C1974 1.368 . S
C1971 C1952 1.429 . S
C1971 C1965 1.429 . S
C1971 C1972 1.523 . S
C1972 C1953 1.368 . S
C1972 C1966 1.368 . S
C1972 C1971 1.523 . S
C1973 C1957 1.429 . S
C1973 C1969 1.429 . S
C1973 C1974 1.523 . S
C1974 C1958 1.368 . S
C1974 C1970 1.368 . S
C1974 C1973 1.523 . S
H1975 C1950 0.950 . S
H1976 C1952 0.950 . S
H1977 C1953 0.949 . S
H1978 C1955 0.950 . S
H1979 C1957 0.950 . S
C361 C262 1.583 . S
C366 C19 1.669 . S
C391 C39 1.669 . S
C396 C282 1.583 . S
C421 C59 1.669 . S
C426 C242 1.583 . S
C451 C42 1.582 . S
C456 C159 1.669 . S
C481 C179 1.669 . S
C486 C2 1.583 . S
C511 C22 1.583 . S
C516 C139 1.669 . S
C541 C78 1.669 . S
C546 C204 1.583 . S
C571 C98 1.669 . S
C576 C224 1.583 . S
C601 C184 1.583 . S
C606 C118 1.669 . S
C631 C338 1.669 . S
C636 C104 1.583 . S
C661 C64 1.583 . S
C666 C358 1.669 . S
C691 C318 1.669 . S
C696 C84 1.582 . S
C721 C162 1.582 . S
C726 C279 1.669 . S
C751 C122 1.583 . S
C756 C299 1.669 . S
C781 C142 1.583 . S
C786 C259 1.669 . S
C811 C198 1.669 . S
C816 C324 1.583 . S
C841 C344 1.582 . S
C846 C218 1.669 . S
C871 C304 1.583 . S
C876 C238 1.669 . S
C901 C4 1.584 . S
C906 C99 1.595 . S
C931 C119 1.595 . S
C936 C24 1.584 . S
C961 C79 1.594 . S
C966 C44 1.584 . S
C991 C82 1.584 . S
C996 C58 1.594 . S
C1021 C102 1.583 . S
C1026 C18 1.594 . S
C1051 C62 1.584 . S
C1056 C38 1.595 . S
C1081 C219 1.595 . S
C1086 C124 1.584 . S
C1111 C239 1.594 . S
C1116 C144 1.584 . S
C1141 C199 1.594 . S
C1146 C164 1.583 . S
C1171 C202 1.584 . S
C1176 C178 1.595 . S
C1201 C222 1.583 . S
C1206 C138 1.594 . S
C1231 C182 1.584 . S
C1236 C158 1.594 . S
C1261 C339 1.594 . S
C1266 C244 1.584 . S
C1291 C359 1.595 . S
C1296 C264 1.584 . S
C1321 C284 1.583 . S
C1326 C319 1.594 . S
C1351 C298 1.595 . S
C1356 C322 1.584 . S
C1381 C258 1.594 . S
C1386 C342 1.584 . S
C1411 C302 1.584 . S
C1416 C278 1.595 . S
C1441 C12 1.379 . S
C1446 C9 1.379 . S
C1471 C32 1.379 . S
C1476 C29 1.379 . S
C1501 C52 1.374 1_545 S
C1506 C49 1.379 . S
C1531 C69 1.379 . S
C1536 C72 1.379 . S
C1561 C92 1.379 . S
C1566 C89 1.379 . S
C1591 C112 1.379 . S
C1596 C109 1.379 . S
C1621 C129 1.379 . S
C1626 C132 1.379 . S
C1651 C152 1.379 . S
C1656 C149 1.379 . S
C1681 C169 1.379 . S
C1686 C172 1.379 . S
C1711 C189 1.379 1_554 S
C1716 C192 1.379 . S
C1741 C209 1.379 1_554 S
C1746 C212 1.379 . S
C1771 C229 1.379 1_554 S
C1776 C232 1.379 . S
C1801 C249 1.379 . S
C1806 C252 1.379 1_556 S
C1831 C272 1.379 1_556 S
C1836 C269 1.379 . S
C1861 C292 1.379 1_556 S
C1866 C289 1.379 . S
C1891 C312 1.379 . S
C1896 C309 1.379 . S
C1921 C332 1.379 . S
C1926 C329 1.379 . S
C1951 C349 1.379 . S
C1956 C352 1.379 . S
