# Generated by pormake.
# Topology qdl, (4)-cn, num edge types: 1
# Building blocks:
#     Node 0, Type 0, BuildingBlock: MUDLON_clean_sbu_0, # of connection points: 4
#     Node 1, Type 0, BuildingBlock: MUDLON_clean_sbu_0, # of connection points: 4
#     Node 2, Type 0, BuildingBlock: MUDLON_clean_sbu_0, # of connection points: 4
#     Node 3, Type 0, BuildingBlock: MUDLON_clean_sbu_0, # of connection points: 4
#     Node 4, Type 0, BuildingBlock: MUDLON_clean_sbu_0, # of connection points: 4
#     Node 5, Type 0, BuildingBlock: MUDLON_clean_sbu_0, # of connection points: 4
#     Edge 6, Type (0, 0), BuildingBlock: CIFDUS_clean_linker_0, # of connection points: 2
#     Edge 7, Type (0, 0), BuildingBlock: CIFDUS_clean_linker_0, # of connection points: 2
#     Edge 8, Type (0, 0), BuildingBlock: CIFDUS_clean_linker_0, # of connection points: 2
#     Edge 9, Type (0, 0), BuildingBlock: CIFDUS_clean_linker_0, # of connection points: 2
#     Edge 10, Type (0, 0), BuildingBlock: CIFDUS_clean_linker_0, # of connection points: 2
#     Edge 11, Type (0, 0), BuildingBlock: CIFDUS_clean_linker_0, # of connection points: 2
#     Edge 12, Type (0, 0), BuildingBlock: CIFDUS_clean_linker_0, # of connection points: 2
#     Edge 13, Type (0, 0), BuildingBlock: CIFDUS_clean_linker_0, # of connection points: 2
#     Edge 14, Type (0, 0), BuildingBlock: CIFDUS_clean_linker_0, # of connection points: 2
#     Edge 15, Type (0, 0), BuildingBlock: CIFDUS_clean_linker_0, # of connection points: 2
#     Edge 16, Type (0, 0), BuildingBlock: CIFDUS_clean_linker_0, # of connection points: 2
#     Edge 17, Type (0, 0), BuildingBlock: CIFDUS_clean_linker_0, # of connection points: 2
# Relax obj value: 0.001
# Max RMSD: 0.015
# Mean RMSD: 0.013
data_MOF--net-qdl--node1-MUDLON_clean_sbu_0--edge1-CIFDUS_clean_linker_0
_symmetry_space_group_name_H-M    P1
_symmetry_Int_Tables_number       1
_symmetry_cell_setting            triclinic
loop_
_symmetry_equiv_pos_as_xyz
'x, y, z'
_cell_length_a     13.490236
_cell_length_b     13.465586
_cell_length_c     80.527215
_cell_angle_alpha  90.368085
_cell_angle_beta   90.765544
_cell_angle_gamma 119.89365
loop_
_atom_site_label
_atom_site_type_symbol
_atom_site_fract_x
_atom_site_fract_y
_atom_site_fract_z
_atom_type_partial_charge
Mg0 Mg 0.22848 0.12982 0.09894 0.0
C1 C 0.32544 0.96981 0.10593 0.0
O2 O 0.28428 0.96666 0.12072 0.0
C3 C 0.32975 0.38686 0.09271 0.0
O4 O 0.29 0.34948 0.07761 0.0
C5 C 0.17317 0.10731 0.13515 0.0
O6 O 0.28026 0.19034 0.13528 0.0
O7 O 0.12489 0.06227 0.12122 0.0
O8 O 0.32245 0.03737 0.09517 0.0
O9 O 0.1279 0.10014 0.07591 0.0
C10 C 0.17343 0.0962 0.06231 0.0
O11 O 0.27564 0.10677 0.06289 0.0
O12 O 0.32529 0.31574 0.10346 0.0
Mg13 Mg 0.13713 0.20666 0.43173 0.0
C14 C 0.98012 0.30679 0.42527 0.0
O15 O 0.97421 0.26406 0.41034 0.0
C16 C 0.39402 0.29955 0.4388 0.0
O17 O 0.3571 0.25573 0.45347 0.0
C18 C 0.107 0.15561 0.46799 0.0
O19 O 0.1353 0.26413 0.46767 0.0
O20 O 0.10072 0.10448 0.45428 0.0
O21 O 0.04986 0.30515 0.43595 0.0
O22 O 0.06167 0.10519 0.40882 0.0
C23 C 0.11954 0.13447 0.39555 0.0
O24 O 0.22518 0.22027 0.39624 0.0
O25 O 0.32312 0.29942 0.42816 0.0
Mg26 Mg 0.14788 0.97581 0.76602 0.0
C27 C 0.97187 0.73575 0.77142 0.0
O28 O 0.92828 0.79672 0.77725 0.0
C29 C 0.42631 0.11432 0.76407 0.0
O30 O 0.4275 0.05018 0.75181 0.0
C31 C 0.10386 0.98827 0.80189 0.0
O32 O 0.16464 0.93653 0.80189 0.0
O33 O 0.07926 0.01643 0.78799 0.0
O34 O 0.07317 0.78833 0.76582 0.0
O35 O 0.09052 1.01165 0.74226 0.0
C36 C 0.15503 0.04103 0.72968 0.0
O37 O 0.25968 0.05954 0.73159 0.0
O38 O 0.33163 0.09332 0.77034 0.0
Mg39 Mg 0.97478 0.87429 0.59757 0.0
C40 C 0.13037 0.77215 0.6038 0.0
O41 O 0.13464 0.81229 0.61886 0.0
C42 C 0.71799 0.78177 0.59047 0.0
O43 O 0.75547 0.82677 0.57587 0.0
C44 C 1.00495 0.92707 0.56144 0.0
O45 O 0.97596 0.81835 0.56172 0.0
O46 O 1.01174 0.97809 0.57518 0.0
O47 O 0.06188 0.77581 0.59308 0.0
O48 O 0.05138 0.97229 0.6207 0.0
C49 C 0.98924 0.96146 0.63313 0.0
O50 O 0.87759 0.9002 0.63133 0.0
O51 O 0.78854 0.78104 0.60109 0.0
Mg52 Mg 0.95043 0.12393 0.93149 0.0
C53 C 0.10805 0.3814 0.93811 0.0
O54 O 0.11474 0.34542 0.95297 0.0
C55 C 0.69352 0.95856 0.92455 0.0
O56 O 0.73026 0.94989 0.90989 0.0
C57 C 0.9746 0.09635 0.89515 0.0
O58 O 0.93721 0.1697 0.89542 0.0
O59 O 0.98832 0.05792 0.90892 0.0
O60 O 0.03788 0.30949 0.92744 0.0
O61 O 0.02317 0.09632 0.95438 0.0
C62 C 0.97453 0.09375 0.96798 0.0
O63 O 0.88303 0.10464 0.96746 0.0
O64 O 0.76448 0.03059 0.93513 0.0
Mg65 Mg 0.87896 0.93755 0.26393 0.0
C66 C 0.77953 0.09401 0.25634 0.0
O67 O 0.82615 0.10099 0.24187 0.0
C68 C 0.78664 0.68102 0.27026 0.0
O69 O 0.83239 0.71917 0.28507 0.0
C70 C 0.93582 0.95955 0.22782 0.0
O71 O 0.82913 0.87565 0.22769 0.0
O72 O 0.98349 1.00551 0.24174 0.0
O73 O 0.77934 0.02435 0.26699 0.0
O74 O 0.97738 0.97939 0.28737 0.0
C75 C 0.92036 0.96071 0.30063 0.0
O76 O 0.80878 0.91507 0.29933 0.0
O77 O 0.78608 0.75123 0.25978 0.0
H78 H 0.35577 0.82414 0.12598 0.0
H79 H 0.35745 0.91296 0.07453 0.0
H80 H 0.37092 0.74595 0.06594 0.0
H81 H 0.36007 0.56303 0.07289 0.0
H82 H 0.35877 0.47436 0.12433 0.0
H83 H 0.36889 0.65329 0.133 0.0
C84 C 0.36087 0.80806 0.11289 0.0
C85 C 0.3541 0.88058 0.10093 0.0
C86 C 0.36784 0.71114 0.108 0.0
C87 C 0.36208 0.85877 0.08403 0.0
C88 C 0.36921 0.76272 0.07909 0.0
C89 C 0.36385 0.58357 0.08601 0.0
C90 C 0.35718 0.50425 0.09791 0.0
C91 C 0.36878 0.6865 0.09094 0.0
C92 C 0.3634 0.53323 0.11486 0.0
C93 C 0.36856 0.63549 0.11985 0.0
H94 H 0.57239 0.32981 0.45875 0.0
H95 H 0.4785 0.33186 0.40736 0.0
H96 H 0.65766 0.34591 0.39867 0.0
H97 H 0.83093 0.33588 0.40551 0.0
H98 H 0.92572 0.33553 0.4569 0.0
H99 H 0.75762 0.34419 0.46567 0.0
C100 C 0.59181 0.33511 0.44565 0.0
C101 C 0.51102 0.3283 0.43374 0.0
C102 C 0.69514 0.34272 0.4407 0.0
C103 C 0.53853 0.33656 0.41683 0.0
C104 C 0.64097 0.34402 0.41182 0.0
C105 C 0.81593 0.3396 0.41864 0.0
C106 C 0.89052 0.33366 0.4305 0.0
C107 C 0.71842 0.34388 0.42363 0.0
C108 C 0.87002 0.33973 0.44746 0.0
C109 C 0.7733 0.34401 0.45251 0.0
H110 H 0.79377 0.60304 0.79066 0.0
H111 H 0.97916 0.58614 0.74859 0.0
H112 H 0.83065 0.38594 0.74336 0.0
H113 H 0.63608 0.22334 0.74899 0.0
H114 H 0.45432 0.24721 0.79121 0.0
H115 H 0.61344 0.43621 0.79813 0.0
C116 C 0.80272 0.55507 0.78048 0.0
C117 C 0.8967 0.60968 0.76994 0.0
C118 C 0.71672 0.44128 0.77746 0.0
C119 C 0.90777 0.54598 0.75693 0.0
C120 C 0.82229 0.43177 0.75386 0.0
C121 C 0.63218 0.26908 0.75986 0.0
C122 C 0.53205 0.22118 0.76939 0.0
C123 C 0.7245 0.37949 0.76377 0.0
C124 C 0.52911 0.28196 0.78349 0.0
C125 C 0.62028 0.39043 0.78749 0.0
H126 H 0.27874 0.74163 0.62356 0.0
H127 H 0.18681 0.74649 0.57214 0.0
H128 H 0.35561 0.73899 0.56343 0.0
H129 H 0.54056 0.75302 0.57043 0.0
H130 H 0.6317 0.74649 0.62183 0.0
H131 H 0.45191 0.73143 0.63044 0.0
C132 C 0.29451 0.73916 0.61043 0.0
C133 C 0.22048 0.74602 0.59855 0.0
C134 C 0.39247 0.73557 0.60547 0.0
C135 C 0.24204 0.74157 0.58159 0.0
C136 C 0.33916 0.73795 0.57658 0.0
C137 C 0.52043 0.74655 0.58351 0.0
C138 C 0.60066 0.75242 0.59545 0.0
C139 C 0.41674 0.73832 0.58841 0.0
C140 C 0.57218 0.74261 0.61234 0.0
C141 C 0.46936 0.73453 0.6173 0.0
H142 H 0.25746 0.56063 0.95789 0.0
H143 H 0.16142 0.46284 0.9065 0.0
H144 H 0.32922 0.63898 0.89773 0.0
H145 H 0.51462 0.80988 0.90464 0.0
H146 H 0.6099 0.90846 0.95603 0.0
H147 H 0.43085 0.7441 0.96475 0.0
C148 C 0.27212 0.57864 0.94477 0.0
C149 C 0.19729 0.49754 0.9329 0.0
C150 C 0.36947 0.68007 0.93978 0.0
C151 C 0.21732 0.5232 0.91594 0.0
C152 C 0.31386 0.62384 0.9109 0.0
C153 C 0.49551 0.79649 0.91774 0.0
C154 C 0.57663 0.87097 0.92964 0.0
C155 C 0.39231 0.70123 0.9227 0.0
C156 C 0.54955 0.85272 0.94657 0.0
C157 C 0.44721 0.75819 0.95159 0.0
H158 H 0.75181 0.24174 0.23643 0.0
H159 H 0.7452 0.14832 0.28774 0.0
H160 H 0.73517 0.3168 0.29654 0.0
H161 H 0.75172 0.50257 0.28985 0.0
H162 H 0.7566 0.5953 0.23854 0.0
H163 H 0.7424 0.41495 0.22962 0.0
C164 C 0.74618 0.2571 0.24953 0.0
C165 C 0.75082 0.18299 0.26139 0.0
C166 C 0.74114 0.35483 0.25454 0.0
C167 C 0.74214 0.20376 0.27831 0.0
C168 C 0.73709 0.30069 0.28338 0.0
C169 C 0.74782 0.48257 0.27671 0.0
C170 C 0.7568 0.56332 0.26491 0.0
C171 C 0.74016 0.37868 0.27163 0.0
C172 C 0.7502 0.53517 0.24792 0.0
C173 C 0.7427 0.43212 0.24279 0.0
H174 H 0.85281 0.88048 0.19658 0.0
H175 H 0.15657 0.13098 0.22314 0.0
H176 H 0.25579 0.19832 0.19686 0.0
H177 H 0.25632 0.18633 0.16639 0.0
H178 H 0.95245 0.93596 0.13984 0.0
H179 H 0.85331 0.86856 0.16612 0.0
C180 C 0.9408 0.94982 0.19667 0.0
C181 C 0.99703 1.00047 0.21189 0.0
C182 C 0.9973 0.98825 0.18151 0.0
C183 C 0.11106 0.09029 0.21167 0.0
C184 C 0.16788 0.1289 0.19663 0.0
C185 C 0.16833 0.11699 0.1663 0.0
C186 C 0.11205 0.06639 0.15109 0.0
C187 C 0.11183 0.07858 0.18147 0.0
C188 C 0.998 0.97662 0.15131 0.0
C189 C 0.94122 0.93797 0.16635 0.0
H190 H 0.99671 0.83835 0.53065 0.0
H191 H 0.06465 0.15072 0.55583 0.0
H192 H 0.10194 0.24806 0.52918 0.0
H193 H 0.11523 0.24451 0.49878 0.0
H194 H 0.04734 0.93208 0.47363 0.0
H195 H 1.01001 0.8348 0.50028 0.0
C196 C 1.01966 0.92779 0.53036 0.0
C197 C 0.02781 0.98702 0.5453 0.0
C198 C 0.04099 0.98322 0.51499 0.0
C199 C 0.05772 0.10291 0.54458 0.0
C200 C 0.07906 0.15865 0.52933 0.0
C201 C 0.09228 0.15507 0.49908 0.0
C202 C 0.08417 0.09581 0.48415 0.0
C203 C 0.07095 0.09966 0.51446 0.0
C204 C 0.05427 0.97993 0.48487 0.0
C205 C 0.0329 0.92421 0.50012 0.0
H206 H 0.13042 0.92333 0.83281 0.0
H207 H 0.99518 0.11174 0.80709 0.0
H208 H 0.9419 0.15971 0.83362 0.0
H209 H 0.93769 0.15188 0.86411 0.0
H210 H 0.07168 0.96225 0.88981 0.0
H211 H 0.12119 0.91087 0.86324 0.0
C212 C 0.08907 0.97475 0.83296 0.0
C213 C 0.06736 1.01425 0.81792 0.0
C214 C 0.05858 1.00193 0.84827 0.0
C215 C 1.01308 0.08022 0.81843 0.0
C216 C 0.98271 0.10783 0.83361 0.0
C217 C 0.97755 0.09909 0.86395 0.0
C218 C 1.00131 0.06144 0.87901 0.0
C219 C 1.00569 0.06975 0.84861 0.0
C220 C 0.05244 0.99257 0.87846 0.0
C221 C 0.08093 0.96325 0.86326 0.0
H222 H 0.2507 0.0857 0.03163 0.0
H223 H 0.9688 0.08749 0.05611 0.0
H224 H 0.88122 0.08296 0.02913 0.0
H225 H 0.88787 0.08521 0.99863 0.0
H226 H 0.17055 0.08505 0.97415 0.0
H227 H 0.25428 0.08179 1.00112 0.0
C228 C 0.16981 0.08462 0.03111 0.0
C229 C 0.11675 0.08737 0.04595 0.0
C230 C 0.12017 0.08258 0.01554 0.0
C231 C 1.01174 0.08554 0.04494 0.0
C232 C 0.96165 0.08313 0.0295 0.0
C233 C 0.96762 0.084 0.99915 0.0
C234 C 0.02294 0.08582 0.98431 0.0
C235 C 1.0156 0.08268 1.01472 0.0
C236 C 0.12604 0.08382 0.98531 0.0
C237 C 0.17411 0.08213 1.00075 0.0
H238 H 0.81902 0.90497 0.33074 0.0
H239 H 0.1496 0.09064 0.30808 0.0
H240 H 0.24058 0.15576 0.33552 0.0
H241 H 0.22503 0.16813 0.36581 0.0
H242 H 0.8942 0.98155 0.3884 0.0
H243 H 0.80483 0.90798 0.36111 0.0
C244 C 0.91112 0.95927 0.33177 0.0
C245 C 0.97721 0.99357 0.3173 0.0
C246 C 0.96282 0.9964 0.34759 0.0
C247 C 0.09653 0.06302 0.31896 0.0
C248 C 0.1486 0.10053 0.33466 0.0
C249 C 0.13341 0.11072 0.36481 0.0
C250 C 0.06644 0.08112 0.37919 0.0
C251 C 0.08243 0.06899 0.34904 0.0
C252 C 0.94796 1.00592 0.3776 0.0
C253 C 0.89667 0.96408 0.36197 0.0
H254 H 0.87946 0.94805 0.66193 0.0
H255 H 0.21582 0.06575 0.64236 0.0
H256 H 0.29771 0.1098 0.67049 0.0
H257 H 0.27168 0.09912 0.70071 0.0
H258 H 0.93486 0.97785 0.72033 0.0
H259 H 0.85581 0.95211 0.69212 0.0
C260 C 0.97094 0.98458 0.66377 0.0
C261 C 0.04108 1.00251 0.64998 0.0
C262 C 1.01741 1.00844 0.68003 0.0
C263 C 0.15955 0.05065 0.65268 0.0
C264 C 0.20649 0.07551 0.6688 0.0
C265 C 0.1811 0.0682 0.69886 0.0
C266 C 0.10927 0.03942 0.71269 0.0
C267 C 0.1359 0.05231 0.68258 0.0
C268 C 0.99226 1.00032 0.70998 0.0
C269 C 0.94684 0.98519 0.69382 0.0
loop_
_geom_bond_atom_site_label_1
_geom_bond_atom_site_label_2
_geom_bond_distance
_geom_bond_site_symmetry_2
_ccdc_geom_bond_type
Mg0 O7 2.141 . S
Mg0 O8 2.048 1_545 S
Mg0 O9 2.048 . S
Mg0 O12 2.141 . S
C1 O2 1.313 . S
C1 O8 1.195 1_455 S
O2 C1 1.313 . S
C3 O4 1.245 . S
C3 O12 1.289 1_455 S
O4 C3 1.245 . S
C5 O6 1.245 . S
C5 O7 1.289 1_455 S
O6 C5 1.245 . S
O7 Mg0 2.141 . S
O7 C5 1.289 1_655 S
O8 Mg0 2.048 1_565 S
O8 C1 1.195 1_655 S
O9 Mg0 2.048 . S
O9 C10 1.195 1_655 S
C10 O9 1.195 1_455 S
C10 O11 1.313 . S
O11 C10 1.313 . S
O12 Mg0 2.141 . S
O12 C3 1.289 1_655 S
Mg13 O20 2.141 . S
Mg13 O21 2.048 1_455 S
Mg13 O22 2.048 . S
Mg13 O25 2.141 . S
C14 O15 1.313 1_545 S
C14 O21 1.195 . S
O15 C14 1.313 1_565 S
C16 O17 1.245 1_545 S
C16 O25 1.289 . S
O17 C16 1.245 1_565 S
C18 O19 1.245 1_445 S
C18 O20 1.289 . S
O19 C18 1.245 1_665 S
O20 Mg13 2.141 . S
O20 C18 1.289 . S
O21 Mg13 2.048 1_655 S
O21 C14 1.195 . S
O22 Mg13 2.048 . S
O22 C23 1.195 . S
C23 O22 1.195 . S
C23 O24 1.313 1_445 S
O24 C23 1.313 1_665 S
O25 Mg13 2.141 . S
O25 C16 1.289 . S
Mg26 O33 2.141 . S
Mg26 O34 2.048 1_445 S
Mg26 O35 2.048 . S
Mg26 O38 2.141 . S
C27 O28 1.313 . S
C27 O34 1.195 . S
O28 C27 1.313 . S
C29 O30 1.245 . S
C29 O38 1.289 . S
O30 C29 1.245 . S
C31 O32 1.245 1_545 S
C31 O33 1.289 . S
O32 C31 1.245 1_565 S
O33 Mg26 2.141 . S
O33 C31 1.289 . S
O34 Mg26 2.048 1_665 S
O34 C27 1.195 . S
O35 Mg26 2.048 . S
O35 C36 1.195 . S
C36 O35 1.195 . S
C36 O37 1.313 1_545 S
O37 C36 1.313 1_565 S
O38 Mg26 2.141 . S
O38 C29 1.289 . S
Mg39 O46 2.141 . S
Mg39 O47 2.048 . S
Mg39 O48 2.048 . S
Mg39 O51 2.141 1_455 S
C40 O41 1.313 1_545 S
C40 O47 1.195 . S
O41 C40 1.313 1_565 S
C42 O43 1.245 1_545 S
C42 O51 1.289 . S
O43 C42 1.245 1_565 S
C44 O45 1.237 1_445 S
C44 O46 1.296 . S
O45 C44 1.237 1_665 S
O46 Mg39 2.141 . S
O46 C44 1.296 . S
O47 Mg39 2.048 . S
O47 C40 1.195 . S
O48 Mg39 2.048 . S
O48 C49 1.195 . S
C49 O48 1.195 . S
C49 O50 1.313 1_445 S
O50 C49 1.313 1_665 S
O51 Mg39 2.141 1_655 S
O51 C42 1.289 . S
Mg52 O59 2.141 . S
Mg52 O60 2.048 1_655 S
Mg52 O61 2.048 . S
Mg52 O64 2.141 1_545 S
C53 O54 1.313 . S
C53 O60 1.195 . S
O54 C53 1.313 . S
C55 O56 1.245 . S
C55 O64 1.289 . S
O56 C55 1.245 . S
C57 O58 1.245 1_545 S
C57 O59 1.289 1_455 S
O58 C57 1.245 1_565 S
O59 Mg52 2.141 . S
O59 C57 1.289 1_655 S
O60 Mg52 2.048 1_455 S
O60 C53 1.195 . S
O61 Mg52 2.048 . S
O61 C62 1.195 1_655 S
C62 O61 1.195 1_455 S
C62 O63 1.313 . S
O63 C62 1.313 . S
O64 Mg52 2.141 1_565 S
O64 C55 1.289 . S
Mg65 O72 2.141 . S
Mg65 O73 2.048 1_565 S
Mg65 O74 2.048 . S
Mg65 O77 2.141 . S
C66 O67 1.313 . S
C66 O73 1.195 1_455 S
O67 C66 1.313 . S
C68 O69 1.245 . S
C68 O77 1.289 1_455 S
O69 C68 1.245 . S
C70 O71 1.245 . S
C70 O72 1.289 1_445 S
O71 C70 1.245 . S
O72 Mg65 2.141 . S
O72 C70 1.289 1_665 S
O73 Mg65 2.048 1_545 S
O73 C66 1.195 1_655 S
O74 Mg65 2.048 . S
O74 C75 1.195 1_665 S
C75 O74 1.195 1_445 S
C75 O76 1.313 . S
O76 C75 1.313 . S
O77 Mg65 2.141 . S
O77 C68 1.289 1_655 S
H78 C84 0.930 . S
H79 C87 0.930 . S
H80 C88 0.930 . S
H81 C89 0.930 . S
H82 C92 0.930 . S
H83 C93 0.930 . S
C84 H78 0.930 . S
C84 C85 1.355 1_655 S
C84 C86 1.415 . S
C85 C84 1.355 1_455 S
C85 C87 1.419 . S
C86 C84 1.415 . S
C86 C91 1.425 1_655 S
C86 C93 1.409 . S
C87 H79 0.930 . S
C87 C85 1.419 . S
C87 C88 1.362 . S
C88 H80 0.930 . S
C88 C87 1.362 . S
C88 C91 1.409 . S
C89 H81 0.930 . S
C89 C90 1.355 . S
C89 C91 1.415 . S
C90 C89 1.355 . S
C90 C92 1.419 1_455 S
C91 C86 1.425 1_455 S
C91 C88 1.409 . S
C91 C89 1.415 . S
C92 H82 0.930 . S
C92 C90 1.419 1_655 S
C92 C93 1.362 . S
C93 H83 0.930 . S
C93 C86 1.409 . S
C93 C92 1.362 . S
H94 C100 0.930 . S
H95 C103 0.930 . S
H96 C104 0.930 . S
H97 C105 0.930 . S
H98 C108 0.930 . S
H99 C109 0.930 . S
C100 H94 0.930 . S
C100 C101 1.355 . S
C100 C102 1.415 . S
C101 C100 1.355 . S
C101 C103 1.419 1_545 S
C102 C100 1.415 . S
C102 C107 1.425 1_545 S
C102 C109 1.409 . S
C103 H95 0.930 . S
C103 C101 1.419 1_565 S
C103 C104 1.362 . S
C104 H96 0.930 . S
C104 C103 1.362 . S
C104 C107 1.409 . S
C105 H97 0.930 . S
C105 C106 1.355 1_565 S
C105 C107 1.415 . S
C106 C105 1.355 1_545 S
C106 C108 1.419 . S
C107 C102 1.425 1_565 S
C107 C104 1.409 . S
C107 C105 1.415 . S
C108 H98 0.930 . S
C108 C106 1.419 . S
C108 C109 1.362 . S
C109 H99 0.930 . S
C109 C102 1.409 . S
C109 C108 1.362 . S
H110 C116 0.930 . S
H111 C119 0.930 . S
H112 C120 0.930 . S
H113 C121 0.930 . S
H114 C124 0.930 . S
H115 C125 0.930 . S
C116 H110 0.930 . S
C116 C117 1.355 . S
C116 C118 1.415 . S
C117 C116 1.355 . S
C117 C119 1.419 . S
C118 C116 1.415 . S
C118 C123 1.425 . S
C118 C125 1.409 . S
C119 H111 0.930 . S
C119 C117 1.419 . S
C119 C120 1.362 . S
C120 H112 0.930 . S
C120 C119 1.362 . S
C120 C123 1.409 . S
C121 H113 0.930 . S
C121 C122 1.355 . S
C121 C123 1.415 . S
C122 C121 1.355 . S
C122 C124 1.419 . S
C123 C118 1.425 . S
C123 C120 1.409 . S
C123 C121 1.415 . S
C124 H114 0.930 . S
C124 C122 1.419 . S
C124 C125 1.362 . S
C125 H115 0.930 . S
C125 C118 1.409 . S
C125 C124 1.362 . S
H126 C132 0.930 . S
H127 C135 0.930 . S
H128 C136 0.930 . S
H129 C137 0.930 . S
H130 C140 0.930 . S
H131 C141 0.930 . S
C132 H126 0.930 . S
C132 C133 1.355 . S
C132 C134 1.415 . S
C133 C132 1.355 . S
C133 C135 1.419 1_545 S
C134 C132 1.415 . S
C134 C139 1.425 1_545 S
C134 C141 1.409 . S
C135 H127 0.930 . S
C135 C133 1.419 1_565 S
C135 C136 1.362 . S
C136 H128 0.930 . S
C136 C135 1.362 . S
C136 C139 1.409 . S
C137 H129 0.930 . S
C137 C138 1.355 1_565 S
C137 C139 1.415 . S
C138 C137 1.355 1_545 S
C138 C140 1.419 . S
C139 C134 1.425 1_565 S
C139 C136 1.409 . S
C139 C137 1.415 . S
C140 H130 0.930 . S
C140 C138 1.419 . S
C140 C141 1.362 . S
C141 H131 0.930 . S
C141 C134 1.409 . S
C141 C140 1.362 . S
H142 C148 0.930 . S
H143 C151 0.930 . S
H144 C152 0.930 . S
H145 C153 0.930 . S
H146 C156 0.930 . S
H147 C157 0.930 . S
C148 H142 0.930 . S
C148 C149 1.355 . S
C148 C150 1.415 . S
C149 C148 1.355 . S
C149 C151 1.419 . S
C150 C148 1.415 . S
C150 C155 1.425 . S
C150 C157 1.409 . S
C151 H143 0.930 . S
C151 C149 1.419 . S
C151 C152 1.362 . S
C152 H144 0.930 . S
C152 C151 1.362 . S
C152 C155 1.409 . S
C153 H145 0.930 . S
C153 C154 1.355 . S
C153 C155 1.415 . S
C154 C153 1.355 . S
C154 C156 1.419 . S
C155 C150 1.425 . S
C155 C152 1.409 . S
C155 C153 1.415 . S
C156 H146 0.930 . S
C156 C154 1.419 . S
C156 C157 1.362 . S
C157 H147 0.930 . S
C157 C150 1.409 . S
C157 C156 1.362 . S
H158 C164 0.930 . S
H159 C167 0.930 . S
H160 C168 0.930 . S
H161 C169 0.930 . S
H162 C172 0.930 . S
H163 C173 0.930 . S
C164 H158 0.930 . S
C164 C165 1.355 . S
C164 C166 1.415 . S
C165 C164 1.355 . S
C165 C167 1.419 1_455 S
C166 C164 1.415 . S
C166 C171 1.425 1_455 S
C166 C173 1.409 . S
C167 H159 0.930 . S
C167 C165 1.419 1_655 S
C167 C168 1.362 . S
C168 H160 0.930 . S
C168 C167 1.362 . S
C168 C171 1.409 . S
C169 H161 0.930 . S
C169 C170 1.355 1_655 S
C169 C171 1.415 . S
C170 C169 1.355 1_455 S
C170 C172 1.419 . S
C171 C166 1.425 1_655 S
C171 C168 1.409 . S
C171 C169 1.415 . S
C172 H162 0.930 . S
C172 C170 1.419 . S
C172 C173 1.362 . S
C173 H163 0.930 . S
C173 C166 1.409 . S
C173 C172 1.362 . S
H174 C180 0.930 . S
H175 C183 0.930 . S
H176 C184 0.930 . S
H177 C185 0.930 . S
H178 C188 0.930 . S
H179 C189 0.930 . S
C180 H174 0.930 . S
C180 C181 1.355 . S
C180 C182 1.415 . S
C181 C180 1.355 . S
C181 C183 1.419 1_445 S
C182 C180 1.415 . S
C182 C187 1.425 1_545 S
C182 C189 1.409 . S
C183 H175 0.930 . S
C183 C181 1.419 1_665 S
C183 C184 1.362 . S
C184 H176 0.930 . S
C184 C183 1.362 . S
C184 C187 1.409 1_655 S
C185 H177 0.930 . S
C185 C186 1.355 1_665 S
C185 C187 1.415 1_655 S
C186 C185 1.355 1_445 S
C186 C188 1.419 . S
C187 C182 1.425 1_565 S
C187 C184 1.409 1_455 S
C187 C185 1.415 1_455 S
C188 H178 0.930 . S
C188 C186 1.419 . S
C188 C189 1.362 . S
C189 H179 0.930 . S
C189 C182 1.409 . S
C189 C188 1.362 . S
H190 C196 0.930 . S
H191 C199 0.930 . S
H192 C200 0.930 . S
H193 C201 0.930 . S
H194 C204 0.930 . S
H195 C205 0.930 . S
C196 H190 0.930 . S
C196 C197 1.355 1_665 S
C196 C198 1.415 . S
C197 C196 1.355 1_445 S
C197 C199 1.419 . S
C198 C196 1.415 . S
C198 C203 1.425 1_665 S
C198 C205 1.409 . S
C199 H191 0.930 . S
C199 C197 1.419 . S
C199 C200 1.362 . S
C200 H192 0.930 . S
C200 C199 1.362 . S
C200 C203 1.409 . S
C201 H193 0.930 . S
C201 C202 1.355 . S
C201 C203 1.415 . S
C202 C201 1.355 . S
C202 C204 1.419 1_445 S
C203 C198 1.425 1_445 S
C203 C200 1.409 . S
C203 C201 1.415 . S
C204 H194 0.930 . S
C204 C202 1.419 1_665 S
C204 C205 1.362 . S
C205 H195 0.930 . S
C205 C198 1.409 . S
C205 C204 1.362 . S
H206 C212 0.930 . S
H207 C215 0.930 . S
H208 C216 0.930 . S
H209 C217 0.930 . S
H210 C220 0.930 . S
H211 C221 0.930 . S
C212 H206 0.930 . S
C212 C213 1.355 1_665 S
C212 C214 1.415 . S
C213 C212 1.355 1_445 S
C213 C215 1.419 . S
C214 C212 1.415 . S
C214 C219 1.425 1_665 S
C214 C221 1.409 . S
C215 H207 0.930 . S
C215 C213 1.419 . S
C215 C216 1.362 . S
C216 H208 0.930 . S
C216 C215 1.362 . S
C216 C219 1.409 . S
C217 H209 0.930 . S
C217 C218 1.355 . S
C217 C219 1.415 . S
C218 C217 1.355 . S
C218 C220 1.419 1_445 S
C219 C214 1.425 1_445 S
C219 C216 1.409 . S
C219 C217 1.415 . S
C220 H210 0.930 . S
C220 C218 1.419 1_665 S
C220 C221 1.362 . S
C221 H211 0.930 . S
C221 C214 1.409 . S
C221 C220 1.362 . S
H222 C228 0.930 . S
H223 C231 0.930 . S
H224 C232 0.930 . S
H225 C233 0.930 . S
H226 C236 0.930 . S
H227 C237 0.930 . S
C228 H222 0.930 . S
C228 C229 1.355 . S
C228 C230 1.415 . S
C229 C228 1.355 . S
C229 C231 1.419 1_445 S
C230 C228 1.415 . S
C230 C235 1.425 1_444 S
C230 C237 1.409 1_554 S
C231 H223 0.930 . S
C231 C229 1.419 1_665 S
C231 C232 1.362 . S
C232 H224 0.930 . S
C232 C231 1.362 . S
C232 C235 1.409 1_554 S
C233 H225 0.930 . S
C233 C234 1.355 1_665 S
C233 C235 1.415 . S
C234 C233 1.355 1_445 S
C234 C236 1.419 . S
C235 C230 1.425 1_666 S
C235 C232 1.409 1_556 S
C235 C233 1.415 . S
C236 H226 0.930 . S
C236 C234 1.419 . S
C236 C237 1.362 . S
C237 H227 0.930 . S
C237 C230 1.409 1_556 S
C237 C236 1.362 . S
H238 C244 0.930 . S
H239 C247 0.930 . S
H240 C248 0.930 . S
H241 C249 0.930 . S
H242 C252 0.930 . S
H243 C253 0.930 . S
C244 H238 0.930 . S
C244 C245 1.355 . S
C244 C246 1.415 . S
C245 C244 1.355 . S
C245 C247 1.419 1_545 S
C246 C244 1.415 . S
C246 C251 1.425 1_545 S
C246 C253 1.409 . S
C247 H239 0.930 . S
C247 C245 1.419 1_565 S
C247 C248 1.362 . S
C248 H240 0.930 . S
C248 C247 1.362 . S
C248 C251 1.409 . S
C249 H241 0.930 . S
C249 C250 1.355 1_565 S
C249 C251 1.415 . S
C250 C249 1.355 1_545 S
C250 C252 1.419 . S
C251 C246 1.425 1_565 S
C251 C248 1.409 . S
C251 C249 1.415 . S
C252 H242 0.930 . S
C252 C250 1.419 . S
C252 C253 1.362 . S
C253 H243 0.930 . S
C253 C246 1.409 . S
C253 C252 1.362 . S
H254 C260 0.930 . S
H255 C263 0.930 . S
H256 C264 0.930 . S
H257 C265 0.930 . S
H258 C268 0.930 . S
H259 C269 0.930 . S
C260 H254 0.930 . S
C260 C261 1.355 1_665 S
C260 C262 1.415 . S
C261 C260 1.355 1_445 S
C261 C263 1.419 . S
C262 C260 1.415 . S
C262 C267 1.425 1_665 S
C262 C269 1.409 . S
C263 H255 0.930 . S
C263 C261 1.419 . S
C263 C264 1.362 . S
C264 H256 0.930 . S
C264 C263 1.362 . S
C264 C267 1.409 . S
C265 H257 0.930 . S
C265 C266 1.355 . S
C265 C267 1.415 . S
C266 C265 1.355 . S
C266 C268 1.419 1_445 S
C267 C262 1.425 1_445 S
C267 C264 1.409 . S
C267 C265 1.415 . S
C268 H258 0.930 . S
C268 C266 1.419 1_665 S
C268 C269 1.362 . S
C269 H259 0.930 . S
C269 C262 1.409 . S
C269 C268 1.362 . S
C85 C1 1.476 . S
C90 C3 1.499 . S
C101 C16 1.478 . S
C106 C14 1.497 . S
C117 C27 1.474 . S
C122 C29 1.498 . S
C133 C40 1.481 . S
C138 C42 1.498 . S
C149 C53 1.494 . S
C154 C55 1.481 . S
C165 C66 1.493 . S
C170 C68 1.470 . S
C181 C70 1.494 . S
C186 C5 1.471 . S
C197 C44 1.497 . S
C202 C18 1.475 . S
C213 C31 1.490 . S
C218 C57 1.477 . S
C229 C10 1.499 . S
C234 C62 1.476 . S
C245 C75 1.488 . S
C250 C23 1.491 . S
C261 C49 1.493 . S
C266 C36 1.486 . S
