# Generated by pormake.
# Topology uom, (4)-cn, num edge types: 1
# Building blocks:
#     Node 0, Type 0, BuildingBlock: MUDLON_clean_sbu_0, # of connection points: 4
#     Node 1, Type 0, BuildingBlock: MUDLON_clean_sbu_0, # of connection points: 4
#     Node 2, Type 0, BuildingBlock: MUDLON_clean_sbu_0, # of connection points: 4
#     Node 3, Type 0, BuildingBlock: MUDLON_clean_sbu_0, # of connection points: 4
#     Node 4, Type 0, BuildingBlock: MUDLON_clean_sbu_0, # of connection points: 4
#     Node 5, Type 0, BuildingBlock: MUDLON_clean_sbu_0, # of connection points: 4
#     Edge 6, Type (0, 0), BuildingBlock: KIFKEQ_clean_linker_1, # of connection points: 2
#     Edge 7, Type (0, 0), BuildingBlock: KIFKEQ_clean_linker_1, # of connection points: 2
#     Edge 8, Type (0, 0), BuildingBlock: KIFKEQ_clean_linker_1, # of connection points: 2
#     Edge 9, Type (0, 0), BuildingBlock: KIFKEQ_clean_linker_1, # of connection points: 2
#     Edge 10, Type (0, 0), BuildingBlock: KIFKEQ_clean_linker_1, # of connection points: 2
#     Edge 11, Type (0, 0), BuildingBlock: KIFKEQ_clean_linker_1, # of connection points: 2
#     Edge 12, Type (0, 0), BuildingBlock: KIFKEQ_clean_linker_1, # of connection points: 2
#     Edge 13, Type (0, 0), BuildingBlock: KIFKEQ_clean_linker_1, # of connection points: 2
#     Edge 14, Type (0, 0), BuildingBlock: KIFKEQ_clean_linker_1, # of connection points: 2
#     Edge 15, Type (0, 0), BuildingBlock: KIFKEQ_clean_linker_1, # of connection points: 2
#     Edge 16, Type (0, 0), BuildingBlock: KIFKEQ_clean_linker_1, # of connection points: 2
#     Edge 17, Type (0, 0), BuildingBlock: KIFKEQ_clean_linker_1, # of connection points: 2
# Relax obj value: 0.094
# Max RMSD: 0.085
# Mean RMSD: 0.085
data_MOF--net-uom--node1-MUDLON_clean_sbu_0--edge1-KIFKEQ_clean_linker_1
_symmetry_space_group_name_H-M    P1
_symmetry_Int_Tables_number       1
_symmetry_cell_setting            triclinic
loop_
_symmetry_equiv_pos_as_xyz
'x, y, z'
_cell_length_a     30.51395
_cell_length_b     30.358351
_cell_length_c     38.561267
_cell_angle_alpha  89.425288
_cell_angle_beta   89.987177
_cell_angle_gamma 119.9735
loop_
_atom_site_label
_atom_site_type_symbol
_atom_site_fract_x
_atom_site_fract_y
_atom_site_fract_z
_atom_type_partial_charge
Mg0 Mg 0.24193 0.96765 0.1116 0.0
C1 C 0.28281 0.99348 0.18494 0.0
O2 O 0.32534 0.00768 0.16818 0.0
C3 C 0.20592 0.89483 1.05371 0.0
O4 O 0.24749 0.93361 1.04114 0.0
C5 C 0.33953 0.97083 0.09736 0.0
O6 O 0.31007 0.92391 0.10843 0.0
O7 O 0.32077 0.99995 0.09446 0.0
O8 O 0.24127 0.97059 0.16838 0.0
O9 O 0.20299 0.00899 0.09717 0.0
C10 C 0.15501 0.98061 0.09861 0.0
O11 O 0.13604 0.93261 0.10755 0.0
O12 O 0.1951 0.89514 0.08556 0.0
Mg13 Mg 0.30895 0.26523 0.44536 0.0
C14 C 0.33926 0.30162 0.51978 0.0
O15 O 0.37269 0.34348 0.5038 0.0
C16 C 0.31686 0.22107 0.38184 0.0
O17 O 0.29755 0.25024 0.3745 0.0
C18 C 0.39904 0.36401 0.42573 0.0
O19 O 0.4179 0.33376 0.43004 0.0
O20 O 0.35143 0.34527 0.42914 0.0
O21 O 0.31238 0.26195 0.50197 0.0
O22 O 0.2273 0.22429 0.43656 0.0
C23 C 0.20936 0.17629 0.4379 0.0
O24 O 0.24037 0.15899 0.44424 0.0
O25 O 0.33193 0.22152 0.41273 0.0
Mg26 Mg 0.09015 0.32428 0.77314 0.0
C27 C 0.07513 0.35369 0.8456 0.0
O28 O 0.05662 0.37746 0.82753 0.0
C29 C 0.19587 0.34855 0.74187 0.0
O30 O 0.20827 0.33983 0.77274 0.0
C31 C 0.07722 0.40945 0.7499 0.0
O32 O 0.12631 0.42902 0.75338 0.0
O33 O 0.04881 0.36179 0.75504 0.0
O34 O 0.09771 0.33409 0.8296 0.0
O35 O 0.05605 0.24192 0.76794 0.0
C36 C 0.08274 0.22757 0.78481 0.0
O37 O 0.12033 0.26144 0.80341 0.0
O38 O 0.15483 0.34935 0.73801 0.0
Mg39 Mg 0.816 0.11709 0.11501 0.0
C40 C 0.84035 0.11842 0.19215 0.0
O41 O 0.88027 0.11822 0.17961 0.0
C42 C 0.85855 0.16963 1.05083 0.0
O43 O 0.82896 0.12112 1.04421 0.0
C44 C 0.71665 0.10755 0.10294 0.0
O45 O 0.74446 0.15317 0.1159 0.0
O46 O 0.73727 0.08053 0.09795 0.0
O47 O 0.81057 0.1231 0.17128 0.0
O48 O 0.85669 0.07557 0.10654 0.0
C49 C 0.90442 0.10443 0.10316 0.0
O50 O 0.92368 0.15377 0.10595 0.0
O51 O 0.85913 0.18438 0.08175 0.0
Mg52 Mg 0.73548 0.83922 0.44951 0.0
C53 C 0.71929 0.79199 0.52018 0.0
O54 O 0.71037 0.75393 0.4999 0.0
C55 C 0.74878 0.93895 0.42154 0.0
O56 O 0.78242 0.95649 0.44644 0.0
C57 C 0.64093 0.74238 0.43643 0.0
O58 O 0.62544 0.76989 0.45286 0.0
O59 O 0.68795 0.76229 0.42956 0.0
O60 O 0.72693 0.83355 0.50625 0.0
O61 O 0.81705 0.87429 0.44051 0.0
C62 C 0.8444 0.90564 0.46369 0.0
O63 O 0.82239 0.90865 0.49211 0.0
O64 O 0.71885 0.89112 0.41982 0.0
Mg65 Mg 0.95843 0.75725 0.78024 0.0
C66 C 0.99395 0.73726 0.84687 0.0
O67 O 0.0201 0.72912 0.82332 0.0
C68 C 0.90313 0.77063 0.7247 0.0
O69 O 0.95069 0.79149 0.71491 0.0
C70 C 0.95163 0.65879 0.76431 0.0
O71 O 0.9114 0.64583 0.78362 0.0
O72 O 0.98011 0.70562 0.75649 0.0
O73 O 0.95968 0.74673 0.83673 0.0
O74 O 0.00934 0.83872 0.77139 0.0
C75 C 0.01716 0.86818 0.79678 0.0
O76 O 1.00138 0.84826 0.82779 0.0
O77 O 0.89041 0.74762 0.754 0.0
H78 H 0.36427 0.04054 0.2281 0.0
H79 H 0.20586 0.99476 0.2208 0.0
H80 H 0.37191 0.09042 0.27939 0.0
H81 H 0.21365 0.0445 0.27214 0.0
H82 H 0.27111 0.20269 0.31915 0.0
H83 H 0.26028 0.13963 0.27687 0.0
H84 H 0.3434 0.09091 0.34213 0.0
H85 H 0.35413 0.15464 0.38533 0.0
C86 C 0.33078 0.04012 0.23788 0.0
C87 C 0.28458 0.01416 0.22001 0.0
C88 C 0.3352 0.0686 0.26737 0.0
C89 C 0.29361 0.07205 0.27946 0.0
C90 C 0.24658 0.04319 0.26307 0.0
C91 C 0.24204 0.0144 0.23377 0.0
C92 C 0.28729 0.17876 0.32472 0.0
C93 C 0.31362 0.18391 0.35573 0.0
C94 C 0.28054 0.14213 0.30052 0.0
C95 C 0.30029 0.10973 0.30635 0.0
C96 C 0.32757 0.11527 0.33701 0.0
C97 C 0.33381 0.15176 0.36167 0.0
H98 H 0.252 0.23514 0.55403 0.0
H99 H 0.39344 0.37507 0.56763 0.0
H100 H 0.22164 0.24831 0.60937 0.0
H101 H 0.36301 0.38756 0.62346 0.0
H102 H 0.28911 0.35508 0.73784 0.0
H103 H 0.32855 0.34191 0.68637 0.0
H104 H 0.20274 0.32238 0.62416 0.0
H105 H 0.16398 0.3365 0.67479 0.0
C106 C 0.27715 0.26804 0.56917 0.0
C107 C 0.32507 0.30424 0.55624 0.0
C108 C 0.25956 0.27572 0.60076 0.0
C109 C 0.28978 0.31925 0.62044 0.0
C110 C 0.33898 0.35371 0.60878 0.0
C111 C 0.35631 0.3465 0.57683 0.0
C112 C 0.27028 0.34871 0.71307 0.0
C113 C 0.22336 0.34687 0.71052 0.0
C114 C 0.2928 0.34107 0.68369 0.0
C115 C 0.26824 0.33035 0.65147 0.0
C116 C 0.2221 0.32979 0.6488 0.0
C117 C 0.20016 0.33837 0.67783 0.0
H118 H 0.92279 0.27406 1.05119 0.0
H119 H 0.8781 0.14045 0.98929 0.0
H120 H 0.98505 0.32631 1.00617 0.0
H121 H 0.93976 0.19186 0.94536 0.0
H122 H 0.08116 0.28172 0.88557 0.0
H123 H 0.03499 0.24302 0.93929 0.0
H124 H 0.98221 0.35094 0.94167 0.0
H125 H 0.02845 0.38993 0.8879 0.0
C126 C 0.92615 0.25588 1.02812 0.0
C127 C 0.89526 0.20309 1.02385 0.0
C128 C 0.9618 0.28571 1.00244 0.0
C129 C 0.96782 0.26303 0.97248 0.0
C130 C 0.93684 0.21038 0.96841 0.0
C131 C 0.90099 0.18095 0.99357 0.0
C132 C 0.06093 0.2982 0.89797 0.0
C133 C 0.05797 0.33851 0.88208 0.0
C134 C 0.03419 0.27578 0.92867 0.0
C135 C 1.00427 0.29341 0.94437 0.0
C136 C 1.0049 0.33652 0.93021 0.0
C137 C 0.03132 0.35872 0.89931 0.0
H138 H 0.7468 0.08241 0.22219 0.0
H139 H 0.89974 0.11882 0.24517 0.0
H140 H 0.71985 0.04492 0.28023 0.0
H141 H 0.87288 0.08164 0.30297 0.0
H142 H 0.81927 0.03941 0.41265 0.0
H143 H 0.83891 0.0903 0.35965 0.0
H144 H 0.7116 0.96614 0.30904 0.0
H145 H 0.69173 0.91493 0.36216 0.0
C146 C 0.77489 0.08342 0.23984 0.0
C147 C 0.82546 0.10352 0.22897 0.0
C148 C 0.75933 0.06156 0.27299 0.0
C149 C 0.79413 0.06006 0.29619 0.0
C150 C 0.84515 0.08255 0.2859 0.0
C151 C 0.86055 0.10374 0.25267 0.0
C152 C 0.79473 0.02315 0.39051 0.0
C153 C 0.75415 0.97275 0.39166 0.0
C154 C 0.80626 0.05233 0.36002 0.0
C155 C 0.77725 0.0321 0.32998 0.0
C156 C 0.7346 0.98297 0.33177 0.0
C157 C 0.72327 0.95354 0.36223 0.0
H158 H 0.79906 0.71007 0.72067 0.0
H159 H 0.92648 0.84412 0.6764 0.0
H160 H 0.74347 0.71657 0.67716 0.0
H161 H 0.87193 0.85045 0.63349 0.0
H162 H 0.7673 0.87029 0.56621 0.0
H163 H 0.80263 0.86671 0.62234 0.0
H164 H 0.73464 0.70386 0.61354 0.0
H165 H 0.69871 0.70729 0.55791 0.0
C166 C 0.81498 0.74126 0.70208 0.0
C167 C 0.86719 0.7762 0.70171 0.0
C168 C 0.7833 0.74493 0.67712 0.0
C169 C 0.8032 0.78412 0.65182 0.0
C170 C 0.85501 0.82025 0.65277 0.0
C171 C 0.88649 0.81622 0.67723 0.0
C172 C 0.75866 0.83357 0.57671 0.0
C173 C 0.73085 0.7892 0.55729 0.0
C174 C 0.7792 0.83153 0.60879 0.0
C175 C 0.77221 0.78507 0.6222 0.0
C176 C 0.7407 0.74024 0.60414 0.0
C177 C 0.72036 0.7423 0.57205 0.0
H178 H 0.22596 0.86591 0.99225 0.0
H179 H 0.10221 0.84144 1.05919 0.0
H180 H 0.1663 0.8171 0.94697 0.0
H181 H 0.04191 0.79238 1.01343 0.0
H182 H 0.97643 0.78812 0.89905 0.0
H183 H 0.02194 0.81558 0.9541 0.0
H184 H 0.09774 0.73115 0.93168 0.0
H185 H 0.05291 0.7042 0.8769 0.0
C186 C 0.18584 0.84909 0.99754 0.0
C187 C 0.16882 0.85734 1.02932 0.0
C188 C 0.15155 0.82096 0.9716 0.0
C189 C 0.09925 0.80083 0.97654 0.0
C190 C 0.08195 0.80757 1.0088 0.0
C191 C 0.11642 0.83517 1.0351 0.0
C192 C 1.00173 0.77429 0.90636 0.0
C193 C 0.01158 0.74457 0.88336 0.0
C194 C 0.02781 0.79001 0.93792 0.0
C195 C 0.06413 0.77624 0.94698 0.0
C196 C 0.07078 0.74323 0.92517 0.0
C197 C 0.04489 0.72764 0.8938 0.0
H198 H 0.05641 0.92684 0.08007 0.0
H199 H 0.17422 0.07865 0.1051 0.0
H200 H 0.99525 0.95578 0.07689 0.0
H201 H 0.11254 0.10754 0.10345 0.0
H202 H 0.99879 0.15481 0.07532 0.0
H203 H 0.05933 0.12546 0.06948 0.0
H204 H 0.94992 0.97993 0.11389 0.0
H205 H 0.88853 0.00895 0.11826 0.0
C206 C 0.06925 0.96656 0.08483 0.0
C207 C 0.12008 1.00048 0.09298 0.0
C208 C 0.03402 0.98308 0.08331 0.0
C209 C 0.04852 0.03388 0.09038 0.0
C210 C 0.0999 0.06824 0.09745 0.0
C211 C 0.13539 0.05177 0.09849 0.0
C212 C 0.98753 0.11636 0.08359 0.0
C213 C 0.93897 0.0842 0.09742 0.0
C214 C 0.02245 0.09964 0.08047 0.0
C215 C 0.00999 0.05047 0.09153 0.0
C216 C 0.96082 0.01784 0.10464 0.0
C217 C 0.92556 0.03443 0.10731 0.0
H218 H 0.90419 0.9148 0.40734 0.0
H219 H 0.90593 0.985 0.5047 0.0
H220 H 0.99122 0.98293 0.39578 0.0
H221 H 0.99189 0.05245 0.49304 0.0
H222 H 0.12904 0.19159 0.44916 0.0
H223 H 0.03923 0.12625 0.4516 0.0
H224 H 0.07721 0.01251 0.42205 0.0
H225 H 0.16639 0.07735 0.41963 0.0
C226 C 0.9231 0.94448 0.4263 0.0
C227 C 0.8981 0.94425 0.45699 0.0
C228 C 0.97279 0.98354 0.41963 0.0
C229 C 0.99809 0.02339 0.44331 0.0
C230 C 0.97309 0.02289 0.47397 0.0
C231 C 0.92391 0.98376 0.4808 0.0
C232 C 0.118 0.15282 0.44258 0.0
C233 C 0.1547 0.13948 0.43458 0.0
C234 C 0.06673 0.11538 0.44418 0.0
C235 C 0.05129 0.06417 0.4373 0.0
C236 C 0.08784 0.05157 0.42733 0.0
C237 C 0.13896 0.08873 0.42618 0.0
H238 H 0.14286 0.19422 0.81212 0.0
H239 H 0.00595 0.1429 0.7528 0.0
H240 H 0.13188 0.10964 0.81097 0.0
H241 H 0.99441 0.05675 0.75226 0.0
H242 H 0.01515 0.9166 0.73668 0.0
H243 H 0.03227 1.00437 0.73069 0.0
H244 H 0.07303 0.02934 0.83891 0.0
H245 H 0.05654 0.9426 0.84475 0.0
C246 C 0.11014 0.1648 0.79889 0.0
C247 C 0.07485 0.1753 0.78293 0.0
C248 C 0.1039 0.11614 0.79829 0.0
C249 C 0.06205 0.07631 0.78186 0.0
C250 C 0.02725 0.0868 0.76498 0.0
C251 C 0.0336 0.13595 0.76551 0.0
C252 C 0.02883 0.94131 0.75894 0.0
C253 C 0.03476 0.92282 0.79117 0.0
C254 C 0.03794 0.99127 0.75562 0.0
C255 C 0.05379 0.02375 0.78435 0.0
C256 C 0.06132 0.00555 0.81617 0.0
C257 C 0.05181 0.95575 0.81955 0.0
H258 H 0.64591 0.01487 0.07658 0.0
H259 H 0.66314 0.15559 0.11545 0.0
H260 H 0.55513 0.98206 0.06971 0.0
H261 H 0.57294 0.12254 0.1097 0.0
H262 H 0.41304 0.06602 0.07549 0.0
H263 H 0.50407 0.09872 0.07143 0.0
H264 H 0.48131 0.95238 0.1048 0.0
H265 H 0.39068 0.91947 0.10768 0.0
C266 C 0.63042 0.03885 0.08356 0.0
C267 C 0.66189 0.08779 0.09669 0.0
C268 C 0.57829 0.01997 0.07982 0.0
C269 C 0.55638 0.04952 0.08922 0.0
C270 C 0.58826 0.09886 0.10162 0.0
C271 C 0.64019 0.11773 0.1052 0.0
C272 C 0.42747 0.04071 0.08154 0.0
C273 C 0.39448 0.9902 0.09209 0.0
C274 C 0.47976 0.05952 0.07945 0.0
C275 C 0.50039 0.02837 0.08804 0.0
C276 C 0.46705 0.97742 0.09754 0.0
C277 C 0.41488 0.9586 0.09944 0.0
H278 H 0.54175 0.68781 0.45585 0.0
H279 H 0.65759 0.67354 0.40129 0.0
H280 H 0.48339 0.59763 0.44898 0.0
H281 H 0.59827 0.58305 0.39314 0.0
H282 H 0.50218 0.41538 0.4272 0.0
H283 H 0.55935 0.50659 0.42571 0.0
H284 H 0.43227 0.5306 0.4115 0.0
H285 H 0.37466 0.43882 0.41441 0.0
C286 C 0.55461 0.66555 0.44187 0.0
C287 C 0.60458 0.688 0.42932 0.0
C288 C 0.52083 0.61365 0.43767 0.0
C289 C 0.53583 0.5826 0.42053 0.0
C290 C 0.58547 0.60543 0.40701 0.0
C291 C 0.61948 0.65744 0.41147 0.0
C292 C 0.48631 0.44 0.42346 0.0
C293 C 0.43367 0.41965 0.42118 0.0
C294 C 0.51931 0.49256 0.42235 0.0
C295 C 0.50071 0.5264 0.41862 0.0
C296 C 0.44807 0.50591 0.41506 0.0
C297 C 0.41495 0.4532 0.41647 0.0
H298 H 0.9067 0.56035 0.78706 0.0
H299 H 0.02931 0.66948 0.72232 0.0
H300 H 0.93453 0.49909 0.77838 0.0
H301 H 0.05616 0.60715 0.71231 0.0
H302 H 0.97738 0.38456 0.74439 0.0
H303 H 0.9441 0.44293 0.74156 0.0
H304 H 0.09674 0.57065 0.74298 0.0
H305 H 0.1296 0.51273 0.74432 0.0
C306 C 0.93916 0.57102 0.77041 0.0
C307 C 0.96605 0.62011 0.75564 0.0
C308 C 0.95494 0.53555 0.76518 0.0
C309 C 0.99785 0.54793 0.74474 0.0
C310 C 0.02353 0.59643 0.72878 0.0
C311 C 0.00798 0.63217 0.73431 0.0
C312 C 1.00374 0.42511 0.74354 0.0
C313 C 0.05615 0.44385 0.74477 0.0
C314 C 0.9847 0.45868 0.7422 0.0
C315 C 0.01762 0.51179 0.74228 0.0
C316 C 0.07004 0.53023 0.74233 0.0
C317 C 0.08898 0.49679 0.7434 0.0
loop_
_geom_bond_atom_site_label_1
_geom_bond_atom_site_label_2
_geom_bond_distance
_geom_bond_site_symmetry_2
_ccdc_geom_bond_type
Mg0 O7 2.141 . S
Mg0 O8 2.048 . S
Mg0 O9 2.048 . S
Mg0 O12 2.141 1_554 S
C1 O2 1.313 . S
C1 O8 1.195 . S
O2 C1 1.313 . S
C3 O4 1.245 1_556 S
C3 O12 1.289 1_565 S
O4 C3 1.245 1_554 S
C5 O6 1.245 1_545 S
C5 O7 1.289 . S
O6 C5 1.245 1_565 S
O7 Mg0 2.141 . S
O7 C5 1.289 . S
O8 Mg0 2.048 . S
O8 C1 1.195 . S
O9 Mg0 2.048 . S
O9 C10 1.195 . S
C10 O9 1.195 . S
C10 O11 1.313 1_545 S
O11 C10 1.313 1_565 S
O12 Mg0 2.141 1_556 S
O12 C3 1.289 1_545 S
Mg13 O20 2.141 . S
Mg13 O21 2.048 . S
Mg13 O22 2.048 . S
Mg13 O25 2.141 . S
C14 O15 1.313 . S
C14 O21 1.195 . S
O15 C14 1.313 . S
C16 O17 1.245 . S
C16 O25 1.289 . S
O17 C16 1.245 . S
C18 O19 1.245 . S
C18 O20 1.289 . S
O19 C18 1.245 . S
O20 Mg13 2.141 . S
O20 C18 1.289 . S
O21 Mg13 2.048 . S
O21 C14 1.195 . S
O22 Mg13 2.048 . S
O22 C23 1.195 . S
C23 O22 1.195 . S
C23 O24 1.313 . S
O24 C23 1.313 . S
O25 Mg13 2.141 . S
O25 C16 1.289 . S
Mg26 O33 2.141 . S
Mg26 O34 2.048 1_455 S
Mg26 O35 2.048 . S
Mg26 O38 2.141 . S
C27 O28 1.313 . S
C27 O34 1.195 1_455 S
O28 C27 1.313 . S
C29 O30 1.245 . S
C29 O38 1.289 . S
O30 C29 1.245 . S
C31 O32 1.245 . S
C31 O33 1.289 . S
O32 C31 1.245 . S
O33 Mg26 2.141 . S
O33 C31 1.289 . S
O34 Mg26 2.048 1_655 S
O34 C27 1.195 1_655 S
O35 Mg26 2.048 . S
O35 C36 1.195 . S
C36 O35 1.195 . S
C36 O37 1.313 . S
O37 C36 1.313 . S
O38 Mg26 2.141 . S
O38 C29 1.289 . S
Mg39 O46 2.141 . S
Mg39 O47 2.048 . S
Mg39 O48 2.048 . S
Mg39 O51 2.141 1_554 S
C40 O41 1.313 . S
C40 O47 1.195 . S
O41 C40 1.313 . S
C42 O43 1.245 1_556 S
C42 O51 1.289 . S
O43 C42 1.245 1_554 S
C44 O45 1.245 . S
C44 O46 1.289 . S
O45 C44 1.245 . S
O46 Mg39 2.141 . S
O46 C44 1.289 . S
O47 Mg39 2.048 . S
O47 C40 1.195 . S
O48 Mg39 2.048 . S
O48 C49 1.195 . S
C49 O48 1.195 . S
C49 O50 1.313 . S
O50 C49 1.313 . S
O51 Mg39 2.141 1_556 S
O51 C42 1.289 . S
Mg52 O59 2.141 . S
Mg52 O60 2.048 . S
Mg52 O61 2.048 . S
Mg52 O64 2.141 . S
C53 O54 1.313 . S
C53 O60 1.195 . S
O54 C53 1.313 . S
C55 O56 1.245 . S
C55 O64 1.289 . S
O56 C55 1.245 . S
C57 O58 1.245 . S
C57 O59 1.289 . S
O58 C57 1.245 . S
O59 Mg52 2.141 . S
O59 C57 1.289 . S
O60 Mg52 2.048 . S
O60 C53 1.195 . S
O61 Mg52 2.048 . S
O61 C62 1.195 . S
C62 O61 1.195 . S
C62 O63 1.313 . S
O63 C62 1.313 . S
O64 Mg52 2.141 . S
O64 C55 1.289 . S
Mg65 O72 2.141 . S
Mg65 O73 2.048 . S
Mg65 O74 2.048 . S
Mg65 O77 2.141 . S
C66 O67 1.313 . S
C66 O73 1.195 . S
O67 C66 1.313 . S
C68 O69 1.245 . S
C68 O77 1.289 1_655 S
O69 C68 1.245 . S
C70 O71 1.245 1_455 S
C70 O72 1.289 . S
O71 C70 1.245 1_655 S
O72 Mg65 2.141 . S
O72 C70 1.289 . S
O73 Mg65 2.048 . S
O73 C66 1.195 . S
O74 Mg65 2.048 . S
O74 C75 1.195 . S
C75 O74 1.195 . S
C75 O76 1.313 1_455 S
O76 C75 1.313 1_655 S
O77 Mg65 2.141 . S
O77 C68 1.289 1_455 S
H78 C86 0.950 . S
H79 C91 0.950 . S
H80 C88 0.950 . S
H81 C90 0.950 . S
H82 C92 0.950 . S
H83 C94 0.950 . S
H84 C96 0.950 . S
H85 C97 0.950 . S
C86 H78 0.950 . S
C86 C87 1.386 . S
C86 C88 1.391 . S
C87 C86 1.386 . S
C87 C91 1.393 . S
C88 H80 0.950 . S
C88 C86 1.391 . S
C88 C89 1.400 . S
C89 C88 1.400 . S
C89 C90 1.398 . S
C89 C95 1.491 . S
C90 H81 0.950 . S
C90 C89 1.398 . S
C90 C91 1.391 . S
C91 H79 0.950 . S
C91 C87 1.393 . S
C91 C90 1.391 . S
C92 H82 0.950 . S
C92 C93 1.386 . S
C92 C94 1.391 . S
C93 C92 1.386 . S
C93 C97 1.393 . S
C94 H83 0.950 . S
C94 C92 1.391 . S
C94 C95 1.400 . S
C95 C89 1.491 . S
C95 C94 1.400 . S
C95 C96 1.398 . S
C96 H84 0.950 . S
C96 C95 1.398 . S
C96 C97 1.391 . S
C97 H85 0.950 . S
C97 C93 1.393 . S
C97 C96 1.391 . S
H98 C106 0.950 . S
H99 C111 0.950 . S
H100 C108 0.950 . S
H101 C110 0.950 . S
H102 C112 0.950 . S
H103 C114 0.950 . S
H104 C116 0.950 . S
H105 C117 0.950 . S
C106 H98 0.950 . S
C106 C107 1.386 . S
C106 C108 1.391 . S
C107 C106 1.386 . S
C107 C111 1.393 . S
C108 H100 0.950 . S
C108 C106 1.391 . S
C108 C109 1.400 . S
C109 C108 1.400 . S
C109 C110 1.398 . S
C109 C115 1.491 . S
C110 H101 0.950 . S
C110 C109 1.398 . S
C110 C111 1.391 . S
C111 H99 0.950 . S
C111 C107 1.393 . S
C111 C110 1.391 . S
C112 H102 0.950 . S
C112 C113 1.386 . S
C112 C114 1.391 . S
C113 C112 1.386 . S
C113 C117 1.393 . S
C114 H103 0.950 . S
C114 C112 1.391 . S
C114 C115 1.400 . S
C115 C109 1.491 . S
C115 C114 1.400 . S
C115 C116 1.398 . S
C116 H104 0.950 . S
C116 C115 1.398 . S
C116 C117 1.391 . S
C117 H105 0.950 . S
C117 C113 1.393 . S
C117 C116 1.391 . S
H118 C126 0.950 . S
H119 C131 0.950 . S
H120 C128 0.950 . S
H121 C130 0.950 . S
H122 C132 0.950 . S
H123 C134 0.950 . S
H124 C136 0.950 . S
H125 C137 0.950 . S
C126 H118 0.950 . S
C126 C127 1.386 . S
C126 C128 1.391 . S
C127 C126 1.386 . S
C127 C131 1.393 . S
C128 H120 0.950 . S
C128 C126 1.391 . S
C128 C129 1.400 . S
C129 C128 1.400 . S
C129 C130 1.398 . S
C129 C135 1.491 . S
C130 H121 0.950 . S
C130 C129 1.398 . S
C130 C131 1.391 . S
C131 H119 0.950 . S
C131 C127 1.393 . S
C131 C130 1.391 . S
C132 H122 0.950 . S
C132 C133 1.386 . S
C132 C134 1.391 . S
C133 C132 1.386 . S
C133 C137 1.393 . S
C134 H123 0.950 . S
C134 C132 1.391 . S
C134 C135 1.400 . S
C135 C129 1.491 . S
C135 C134 1.400 . S
C135 C136 1.398 . S
C136 H124 0.950 . S
C136 C135 1.398 . S
C136 C137 1.391 . S
C137 H125 0.950 . S
C137 C133 1.393 . S
C137 C136 1.391 . S
H138 C146 0.950 . S
H139 C151 0.950 . S
H140 C148 0.950 . S
H141 C150 0.950 1_545 S
H142 C152 0.950 . S
H143 C154 0.950 . S
H144 C156 0.950 . S
H145 C157 0.950 . S
C146 H138 0.950 . S
C146 C147 1.386 . S
C146 C148 1.391 . S
C147 C146 1.386 . S
C147 C151 1.393 1_565 S
C148 H140 0.950 . S
C148 C146 1.391 . S
C148 C149 1.400 . S
C149 C148 1.400 . S
C149 C150 1.398 . S
C149 C155 1.491 . S
C150 H141 0.950 1_565 S
C150 C149 1.398 . S
C150 C151 1.391 1_565 S
C151 H139 0.950 . S
C151 C147 1.393 1_545 S
C151 C150 1.391 1_545 S
C152 H142 0.950 . S
C152 C153 1.386 . S
C152 C154 1.391 . S
C153 C152 1.386 . S
C153 C157 1.393 . S
C154 H143 0.950 . S
C154 C152 1.391 . S
C154 C155 1.400 . S
C155 C149 1.491 . S
C155 C154 1.400 . S
C155 C156 1.398 . S
C156 H144 0.950 . S
C156 C155 1.398 . S
C156 C157 1.391 . S
C157 H145 0.950 . S
C157 C153 1.393 . S
C157 C156 1.391 . S
H158 C166 0.950 . S
H159 C171 0.950 . S
H160 C168 0.950 . S
H161 C170 0.950 . S
H162 C172 0.950 . S
H163 C174 0.950 . S
H164 C176 0.950 . S
H165 C177 0.950 . S
C166 H158 0.950 . S
C166 C167 1.386 . S
C166 C168 1.391 . S
C167 C166 1.386 . S
C167 C171 1.393 . S
C168 H160 0.950 . S
C168 C166 1.391 . S
C168 C169 1.400 . S
C169 C168 1.400 . S
C169 C170 1.398 . S
C169 C175 1.491 . S
C170 H161 0.950 . S
C170 C169 1.398 . S
C170 C171 1.391 . S
C171 H159 0.950 . S
C171 C167 1.393 . S
C171 C170 1.391 . S
C172 H162 0.950 . S
C172 C173 1.386 . S
C172 C174 1.391 . S
C173 C172 1.386 . S
C173 C177 1.393 . S
C174 H163 0.950 . S
C174 C172 1.391 . S
C174 C175 1.400 . S
C175 C169 1.491 . S
C175 C174 1.400 . S
C175 C176 1.398 . S
C176 H164 0.950 . S
C176 C175 1.398 . S
C176 C177 1.391 . S
C177 H165 0.950 . S
C177 C173 1.393 . S
C177 C176 1.391 . S
H178 C186 0.950 . S
H179 C191 0.950 1_545 S
H180 C188 0.950 . S
H181 C190 0.950 . S
H182 C192 0.950 . S
H183 C194 0.950 . S
H184 C196 0.950 . S
H185 C197 0.950 . S
C186 H178 0.950 . S
C186 C187 1.386 . S
C186 C188 1.391 . S
C187 C186 1.386 . S
C187 C191 1.393 . S
C188 H180 0.950 . S
C188 C186 1.391 . S
C188 C189 1.400 . S
C189 C188 1.400 . S
C189 C190 1.398 . S
C189 C195 1.491 . S
C190 H181 0.950 . S
C190 C189 1.398 . S
C190 C191 1.391 . S
C191 H179 0.950 1_565 S
C191 C187 1.393 . S
C191 C190 1.391 . S
C192 H182 0.950 . S
C192 C193 1.386 . S
C192 C194 1.391 . S
C193 C192 1.386 . S
C193 C197 1.393 . S
C194 H183 0.950 . S
C194 C192 1.391 . S
C194 C195 1.400 . S
C195 C189 1.491 . S
C195 C194 1.400 . S
C195 C196 1.398 . S
C196 H184 0.950 . S
C196 C195 1.398 . S
C196 C197 1.391 . S
C197 H185 0.950 . S
C197 C193 1.393 . S
C197 C196 1.391 . S
H198 C206 0.950 1_565 S
H199 C211 0.950 . S
H200 C208 0.950 . S
H201 C210 0.950 . S
H202 C212 0.950 . S
H203 C214 0.950 1_455 S
H204 C216 0.950 . S
H205 C217 0.950 . S
C206 H198 0.950 1_545 S
C206 C207 1.386 . S
C206 C208 1.391 . S
C207 C206 1.386 . S
C207 C211 1.393 . S
C208 H200 0.950 . S
C208 C206 1.391 . S
C208 C209 1.400 . S
C209 C208 1.400 . S
C209 C210 1.398 . S
C209 C215 1.491 . S
C210 H201 0.950 . S
C210 C209 1.398 . S
C210 C211 1.391 . S
C211 H199 0.950 . S
C211 C207 1.393 . S
C211 C210 1.391 . S
C212 H202 0.950 . S
C212 C213 1.386 . S
C212 C214 1.391 . S
C213 C212 1.386 . S
C213 C217 1.393 . S
C214 H203 0.950 1_655 S
C214 C212 1.391 . S
C214 C215 1.400 1_655 S
C215 C209 1.491 . S
C215 C214 1.400 1_455 S
C215 C216 1.398 1_455 S
C216 H204 0.950 . S
C216 C215 1.398 1_655 S
C216 C217 1.391 . S
C217 H205 0.950 . S
C217 C213 1.393 . S
C217 C216 1.391 . S
H218 C226 0.950 . S
H219 C231 0.950 . S
H220 C228 0.950 1_455 S
H221 C230 0.950 . S
H222 C232 0.950 . S
H223 C234 0.950 . S
H224 C236 0.950 . S
H225 C237 0.950 . S
C226 H218 0.950 . S
C226 C227 1.386 . S
C226 C228 1.391 . S
C227 C226 1.386 . S
C227 C231 1.393 . S
C228 H220 0.950 1_655 S
C228 C226 1.391 . S
C228 C229 1.400 1_665 S
C229 C228 1.400 1_445 S
C229 C230 1.398 1_455 S
C229 C235 1.491 . S
C230 H221 0.950 . S
C230 C229 1.398 1_655 S
C230 C231 1.391 1_545 S
C231 H219 0.950 . S
C231 C227 1.393 . S
C231 C230 1.391 1_565 S
C232 H222 0.950 . S
C232 C233 1.386 . S
C232 C234 1.391 . S
C233 C232 1.386 . S
C233 C237 1.393 . S
C234 H223 0.950 . S
C234 C232 1.391 . S
C234 C235 1.400 . S
C235 C229 1.491 . S
C235 C234 1.400 . S
C235 C236 1.398 . S
C236 H224 0.950 . S
C236 C235 1.398 . S
C236 C237 1.391 . S
C237 H225 0.950 . S
C237 C233 1.393 . S
C237 C236 1.391 . S
H238 C246 0.950 . S
H239 C251 0.950 . S
H240 C248 0.950 . S
H241 C250 0.950 . S
H242 C252 0.950 . S
H243 C254 0.950 1_545 S
H244 C256 0.950 1_545 S
H245 C257 0.950 . S
C246 H238 0.950 . S
C246 C247 1.386 . S
C246 C248 1.391 . S
C247 C246 1.386 . S
C247 C251 1.393 . S
C248 H240 0.950 . S
C248 C246 1.391 . S
C248 C249 1.400 . S
C249 C248 1.400 . S
C249 C250 1.398 . S
C249 C255 1.491 . S
C250 H241 0.950 . S
C250 C249 1.398 . S
C250 C251 1.391 . S
C251 H239 0.950 . S
C251 C247 1.393 . S
C251 C250 1.391 . S
C252 H242 0.950 . S
C252 C253 1.386 . S
C252 C254 1.391 . S
C253 C252 1.386 . S
C253 C257 1.393 . S
C254 H243 0.950 1_565 S
C254 C252 1.391 . S
C254 C255 1.400 1_565 S
C255 C249 1.491 . S
C255 C254 1.400 1_545 S
C255 C256 1.398 1_545 S
C256 H244 0.950 1_565 S
C256 C255 1.398 1_565 S
C256 C257 1.391 . S
C257 H245 0.950 . S
C257 C253 1.393 . S
C257 C256 1.391 . S
H258 C266 0.950 1_565 S
H259 C271 0.950 . S
H260 C268 0.950 1_565 S
H261 C270 0.950 . S
H262 C272 0.950 . S
H263 C274 0.950 . S
H264 C276 0.934 1_565 S
H265 C277 0.950 . S
C266 H258 0.950 1_545 S
C266 C267 1.386 . S
C266 C268 1.391 . S
C267 C266 1.386 . S
C267 C271 1.393 . S
C268 H260 0.950 1_545 S
C268 C266 1.391 . S
C268 C269 1.400 . S
C269 C268 1.400 . S
C269 C270 1.398 . S
C269 C275 1.491 . S
C270 H261 0.950 . S
C270 C269 1.398 . S
C270 C271 1.391 . S
C271 H259 0.950 . S
C271 C267 1.393 . S
C271 C270 1.391 . S
C272 H262 0.950 . S
C272 C273 1.386 . S
C272 C274 1.391 . S
C273 C272 1.386 . S
C273 C277 1.393 1_545 S
C274 H263 0.950 . S
C274 C272 1.391 . S
C274 C275 1.400 . S
C275 C269 1.491 . S
C275 C274 1.400 . S
C275 C276 1.406 . S
C276 H264 0.934 1_545 S
C276 C275 1.406 . S
C276 C277 1.398 1_545 S
C277 H265 0.950 . S
C277 C273 1.393 1_565 S
C277 C276 1.398 1_565 S
H278 C286 0.950 . S
H279 C291 0.950 . S
H280 C288 0.950 . S
H281 C290 0.950 . S
H282 C292 0.950 . S
H283 C294 0.950 . S
H284 C296 0.950 . S
H285 C297 0.950 . S
C286 H278 0.950 . S
C286 C287 1.386 . S
C286 C288 1.391 . S
C287 C286 1.386 . S
C287 C291 1.393 . S
C288 H280 0.950 . S
C288 C286 1.391 . S
C288 C289 1.400 . S
C289 C288 1.400 . S
C289 C290 1.398 . S
C289 C295 1.491 . S
C290 H281 0.950 . S
C290 C289 1.398 . S
C290 C291 1.391 . S
C291 H279 0.950 . S
C291 C287 1.393 . S
C291 C290 1.391 . S
C292 H282 0.950 . S
C292 C293 1.386 . S
C292 C294 1.391 . S
C293 C292 1.386 . S
C293 C297 1.393 . S
C294 H283 0.950 . S
C294 C292 1.391 . S
C294 C295 1.400 . S
C295 C289 1.491 . S
C295 C294 1.400 . S
C295 C296 1.398 . S
C296 H284 0.950 . S
C296 C295 1.398 . S
C296 C297 1.391 . S
C297 H285 0.950 . S
C297 C293 1.393 . S
C297 C296 1.391 . S
H298 C306 0.950 . S
H299 C311 0.950 . S
H300 C308 0.950 . S
H301 C310 0.950 . S
H302 C312 0.950 . S
H303 C314 0.950 . S
H304 C316 0.950 1_655 S
H305 C317 0.952 . S
C306 H298 0.950 . S
C306 C307 1.386 1_655 S
C306 C308 1.391 . S
C307 C306 1.386 1_455 S
C307 C311 1.393 . S
C308 H300 0.950 . S
C308 C306 1.391 . S
C308 C309 1.400 1_655 S
C309 C308 1.400 1_455 S
C309 C310 1.398 . S
C309 C315 1.491 . S
C310 H301 0.950 . S
C310 C309 1.398 . S
C310 C311 1.391 . S
C311 H299 0.950 . S
C311 C307 1.393 . S
C311 C310 1.391 . S
C312 H302 0.950 . S
C312 C313 1.386 . S
C312 C314 1.391 . S
C313 C312 1.386 . S
C313 C317 1.393 . S
C314 H303 0.950 . S
C314 C312 1.391 . S
C314 C315 1.400 . S
C315 C309 1.491 . S
C315 C314 1.400 . S
C315 C316 1.398 . S
C316 H304 0.950 1_455 S
C316 C315 1.398 . S
C316 C317 1.391 . S
C317 H305 0.952 . S
C317 C313 1.393 . S
C317 C316 1.391 . S
C87 C1 1.716 . S
C93 C16 1.715 . S
C107 C14 1.707 . S
C113 C29 1.704 . S
C127 C42 1.715 . S
C133 C27 1.713 1_655 S
C147 C40 1.706 1_565 S
C153 C55 1.708 . S
C167 C68 1.715 . S
C173 C53 1.714 . S
C187 C3 1.700 . S
C193 C66 1.716 . S
C207 C10 0.985 . S
C213 C49 0.991 . S
C227 C62 0.994 . S
C233 C23 0.985 . S
C247 C36 0.991 . S
C253 C75 0.990 . S
C267 C44 1.443 . S
C273 C5 1.445 . S
C287 C57 1.450 . S
C293 C18 1.448 . S
C307 C70 1.445 . S
C313 C31 1.443 . S
