# Generated by pormake.
# Topology vbj, (5)-cn, num edge types: 1
# Building blocks:
#     Node 0, Type 0, BuildingBlock: XOMCOT_clean_sbu_1, # of connection points: 5
#     Node 1, Type 0, BuildingBlock: XOMCOT_clean_sbu_1, # of connection points: 5
#     Node 2, Type 0, BuildingBlock: XOMCOT_clean_sbu_1, # of connection points: 5
#     Node 3, Type 0, BuildingBlock: XOMCOT_clean_sbu_1, # of connection points: 5
#     Node 4, Type 0, BuildingBlock: XOMCOT_clean_sbu_1, # of connection points: 5
#     Node 5, Type 0, BuildingBlock: XOMCOT_clean_sbu_1, # of connection points: 5
#     Node 6, Type 0, BuildingBlock: XOMCOT_clean_sbu_1, # of connection points: 5
#     Node 7, Type 0, BuildingBlock: XOMCOT_clean_sbu_1, # of connection points: 5
#     Node 8, Type 0, BuildingBlock: XOMCOT_clean_sbu_1, # of connection points: 5
#     Node 9, Type 0, BuildingBlock: XOMCOT_clean_sbu_1, # of connection points: 5
#     Node 10, Type 0, BuildingBlock: XOMCOT_clean_sbu_1, # of connection points: 5
#     Node 11, Type 0, BuildingBlock: XOMCOT_clean_sbu_1, # of connection points: 5
#     Node 12, Type 0, BuildingBlock: XOMCOT_clean_sbu_1, # of connection points: 5
#     Node 13, Type 0, BuildingBlock: XOMCOT_clean_sbu_1, # of connection points: 5
#     Node 14, Type 0, BuildingBlock: XOMCOT_clean_sbu_1, # of connection points: 5
#     Node 15, Type 0, BuildingBlock: XOMCOT_clean_sbu_1, # of connection points: 5
#     Edge 16, Type (0, 0), BuildingBlock: CIFDUS_clean_linker_0, # of connection points: 2
#     Edge 17, Type (0, 0), BuildingBlock: CIFDUS_clean_linker_0, # of connection points: 2
#     Edge 18, Type (0, 0), BuildingBlock: CIFDUS_clean_linker_0, # of connection points: 2
#     Edge 19, Type (0, 0), BuildingBlock: CIFDUS_clean_linker_0, # of connection points: 2
#     Edge 20, Type (0, 0), BuildingBlock: CIFDUS_clean_linker_0, # of connection points: 2
#     Edge 21, Type (0, 0), BuildingBlock: CIFDUS_clean_linker_0, # of connection points: 2
#     Edge 22, Type (0, 0), BuildingBlock: CIFDUS_clean_linker_0, # of connection points: 2
#     Edge 23, Type (0, 0), BuildingBlock: CIFDUS_clean_linker_0, # of connection points: 2
#     Edge 24, Type (0, 0), BuildingBlock: CIFDUS_clean_linker_0, # of connection points: 2
#     Edge 25, Type (0, 0), BuildingBlock: CIFDUS_clean_linker_0, # of connection points: 2
#     Edge 26, Type (0, 0), BuildingBlock: CIFDUS_clean_linker_0, # of connection points: 2
#     Edge 27, Type (0, 0), BuildingBlock: CIFDUS_clean_linker_0, # of connection points: 2
#     Edge 28, Type (0, 0), BuildingBlock: CIFDUS_clean_linker_0, # of connection points: 2
#     Edge 29, Type (0, 0), BuildingBlock: CIFDUS_clean_linker_0, # of connection points: 2
#     Edge 30, Type (0, 0), BuildingBlock: CIFDUS_clean_linker_0, # of connection points: 2
#     Edge 31, Type (0, 0), BuildingBlock: CIFDUS_clean_linker_0, # of connection points: 2
#     Edge 32, Type (0, 0), BuildingBlock: CIFDUS_clean_linker_0, # of connection points: 2
#     Edge 33, Type (0, 0), BuildingBlock: CIFDUS_clean_linker_0, # of connection points: 2
#     Edge 34, Type (0, 0), BuildingBlock: CIFDUS_clean_linker_0, # of connection points: 2
#     Edge 35, Type (0, 0), BuildingBlock: CIFDUS_clean_linker_0, # of connection points: 2
#     Edge 36, Type (0, 0), BuildingBlock: CIFDUS_clean_linker_0, # of connection points: 2
#     Edge 37, Type (0, 0), BuildingBlock: CIFDUS_clean_linker_0, # of connection points: 2
#     Edge 38, Type (0, 0), BuildingBlock: CIFDUS_clean_linker_0, # of connection points: 2
#     Edge 39, Type (0, 0), BuildingBlock: CIFDUS_clean_linker_0, # of connection points: 2
#     Edge 40, Type (0, 0), BuildingBlock: CIFDUS_clean_linker_0, # of connection points: 2
#     Edge 41, Type (0, 0), BuildingBlock: CIFDUS_clean_linker_0, # of connection points: 2
#     Edge 42, Type (0, 0), BuildingBlock: CIFDUS_clean_linker_0, # of connection points: 2
#     Edge 43, Type (0, 0), BuildingBlock: CIFDUS_clean_linker_0, # of connection points: 2
#     Edge 44, Type (0, 0), BuildingBlock: CIFDUS_clean_linker_0, # of connection points: 2
#     Edge 45, Type (0, 0), BuildingBlock: CIFDUS_clean_linker_0, # of connection points: 2
#     Edge 46, Type (0, 0), BuildingBlock: CIFDUS_clean_linker_0, # of connection points: 2
#     Edge 47, Type (0, 0), BuildingBlock: CIFDUS_clean_linker_0, # of connection points: 2
#     Edge 48, Type (0, 0), BuildingBlock: CIFDUS_clean_linker_0, # of connection points: 2
#     Edge 49, Type (0, 0), BuildingBlock: CIFDUS_clean_linker_0, # of connection points: 2
#     Edge 50, Type (0, 0), BuildingBlock: CIFDUS_clean_linker_0, # of connection points: 2
#     Edge 51, Type (0, 0), BuildingBlock: CIFDUS_clean_linker_0, # of connection points: 2
#     Edge 52, Type (0, 0), BuildingBlock: CIFDUS_clean_linker_0, # of connection points: 2
#     Edge 53, Type (0, 0), BuildingBlock: CIFDUS_clean_linker_0, # of connection points: 2
#     Edge 54, Type (0, 0), BuildingBlock: CIFDUS_clean_linker_0, # of connection points: 2
#     Edge 55, Type (0, 0), BuildingBlock: CIFDUS_clean_linker_0, # of connection points: 2
# Relax obj value: 0.099
# Max RMSD: 0.143
# Mean RMSD: 0.143
data_MOF--net-vbj--node1-XOMCOT_clean_sbu_1--edge1-CIFDUS_clean_linker_0
_symmetry_space_group_name_H-M    P1
_symmetry_Int_Tables_number       1
_symmetry_cell_setting            triclinic
loop_
_symmetry_equiv_pos_as_xyz
'x, y, z'
_cell_length_a     25.0705
_cell_length_b     56.260612
_cell_length_c     40.341338
_cell_angle_alpha  90.215729
_cell_angle_beta   89.846725
_cell_angle_gamma 90.252546
loop_
_atom_site_label
_atom_site_type_symbol
_atom_site_fract_x
_atom_site_fract_y
_atom_site_fract_z
_atom_type_partial_charge
C0 C -0.02617 0.17372 0.07564 0.0
C1 C 0.96583 0.19781 0.07685 0.0
N2 N -0.01412 0.20605 0.10555 0.0
N3 N -0.00194 0.16659 0.10373 0.0
C4 C 0.00585 0.18688 0.12136 0.0
H5 H 0.96161 0.16197 0.05577 0.0
Co6 Co 0.01008 0.13425 0.11273 0.0
C7 C -0.0142 0.12959 0.18349 0.0
O8 O 0.95199 0.11271 0.17536 0.0
N9 N 0.02389 0.10093 0.1211 0.0
C10 C 0.01811 0.06156 0.12812 0.0
C11 C -0.01009 0.08222 0.1236 0.0
C12 C 0.07274 0.09076 0.12458 0.0
N13 N 0.07042 0.06691 0.12852 0.0
O14 O 0.08428 0.13974 0.10771 0.0
H15 H 0.94697 0.08316 0.12248 0.0
H16 H 0.10989 0.10054 0.12448 0.0
O17 O 0.01255 0.14045 0.161 0.0
C18 C 0.09101 0.1361 0.07672 0.0
O19 O 0.04916 0.13021 0.05886 0.0
N20 N 0.93598 0.1298 0.11216 0.0
C21 C 0.83632 0.13953 0.08506 0.0
C22 C 0.85177 0.14976 0.11539 0.0
C23 C 0.90187 0.14471 0.12853 0.0
C24 C 0.92005 0.11848 0.0839 0.0
C25 C 0.86999 0.12267 0.07034 0.0
H26 H 0.91563 0.1553 0.14922 0.0
H27 H 0.94834 0.10801 0.06988 0.0
H28 H 0.02455 0.18754 0.1455 0.0
H29 H 0.9472 0.20857 0.05797 0.0
H30 H 0.00126 0.04388 0.13015 0.0
H31 H 0.8277 0.16324 0.12735 0.0
H32 H 0.85945 0.114 0.04725 0.0
C33 C 0.39107 0.88174 0.18171 0.0
C34 C 0.40787 0.85862 0.18494 0.0
N35 N 0.42829 0.85132 0.15567 0.0
N36 N 0.40115 0.88931 0.15064 0.0
C37 C 0.42331 0.87031 0.13532 0.0
H38 H 0.37265 0.89235 0.20096 0.0
Co39 Co 0.38703 0.91992 0.13381 0.0
C40 C 0.42071 0.95243 0.19003 0.0
O41 O 0.43043 0.97048 0.17033 0.0
N42 N 0.3716 0.95079 0.11743 0.0
C43 C 0.36079 0.98253 0.08529 0.0
C44 C 0.3877 0.96146 0.08915 0.0
C45 C 0.33476 0.96595 0.13018 0.0
N46 N 0.32705 0.98534 0.11104 0.0
O47 O 0.31268 0.91654 0.14416 0.0
H48 H 0.41539 0.95419 0.07137 0.0
H49 H 0.31288 0.96243 0.15281 0.0
O50 O 0.40374 0.93275 0.17801 0.0
C51 C 0.28961 0.90226 0.12405 0.0
O52 O 0.31934 0.88805 0.10597 0.0
N53 N 0.45779 0.92194 0.11927 0.0
C54 C 0.55624 0.91832 0.08705 0.0
C55 C 0.55306 0.92568 0.12043 0.0
C56 C 0.50338 0.92703 0.13632 0.0
C57 C 0.46032 0.91445 0.08715 0.0
C58 C 0.50883 0.91259 0.07055 0.0
H59 H 0.50223 0.93155 0.16227 0.0
H60 H 0.42391 0.90954 0.07445 0.0
H61 H 0.43465 0.87033 0.10948 0.0
H62 H 0.40555 0.84823 0.20739 0.0
H63 H 0.36388 0.99422 0.06412 0.0
H64 H 0.58861 0.93022 0.1343 0.0
H65 H 0.50907 0.90614 0.04524 0.0
C66 C 0.55972 0.87127 0.3974 0.0
C67 C 0.54923 0.84736 0.39557 0.0
N68 N 0.52311 0.84077 0.42328 0.0
N69 N 0.54019 0.88011 0.42606 0.0
C70 C 0.51784 0.86102 0.44138 0.0
H71 H 0.58171 0.88147 0.37922 0.0
Co72 Co 0.55089 0.9121 0.43928 0.0
C73 C 0.51927 0.93996 0.37822 0.0
O74 O 0.50662 0.959 0.39543 0.0
N75 N 0.56359 0.94438 0.45176 0.0
C76 C 0.56943 0.97907 0.47847 0.0
C77 C 0.54424 0.95728 0.47739 0.0
C78 C 0.60077 0.95894 0.43781 0.0
N79 N 0.60539 0.98009 0.45366 0.0
O80 O 0.62613 0.90926 0.43156 0.0
H81 H 0.51515 0.95128 0.49523 0.0
H82 H 0.62485 0.95389 0.41664 0.0
O83 O 0.53687 0.92154 0.3931 0.0
C84 C 0.64865 0.89702 0.4541 0.0
O85 O 0.61861 0.88391 0.47357 0.0
N86 N 0.47887 0.91416 0.45152 0.0
C87 C 0.38109 0.92133 0.48324 0.0
C88 C 0.38555 0.9229 0.44848 0.0
C89 C 0.43487 0.91905 0.43298 0.0
C90 C 0.47391 0.90996 0.48462 0.0
C91 C 0.42578 0.91382 0.5011 0.0
H92 H 0.43727 0.92034 0.4064 0.0
H93 H 0.50886 0.90516 0.49874 0.0
H94 H 0.50002 0.86175 0.46581 0.0
H95 H 0.56047 0.83567 0.37538 0.0
H96 H 0.5634 0.99267 0.49713 0.0
H97 H 0.35152 0.92754 0.4334 0.0
H98 H 0.42472 0.9122 0.52782 0.0
C99 C 0.882 0.17996 0.48019 0.0
C100 C 0.89056 0.20405 0.47965 0.0
N101 N 0.91587 0.20954 0.45125 0.0
N102 N 0.90108 0.17014 0.45203 0.0
C103 C 0.92198 0.1887 0.43485 0.0
H104 H 0.86368 0.17016 0.50021 0.0
Co105 Co 0.89748 0.13724 0.44429 0.0
C106 C 0.94158 0.131 0.37702 0.0
O107 O -0.02656 0.1145 0.38843 0.0
N108 N 0.89219 0.10323 0.43713 0.0
C109 C 0.90484 0.06393 0.43961 0.0
C110 C 0.92835 0.08598 0.44324 0.0
C111 C 0.84735 0.0908 0.42899 0.0
N112 N 0.85349 0.06699 0.43115 0.0
O113 O 0.82239 0.14036 0.43875 0.0
H114 H 0.96905 0.08895 0.45096 0.0
H115 H 0.80991 0.0989 0.42241 0.0
O116 O 0.90975 0.14186 0.3967 0.0
C117 C 0.80267 0.13439 0.46671 0.0
O118 O 0.83484 0.12562 0.48922 0.0
N119 N 0.96968 0.13557 0.45519 0.0
C120 C 0.05754 0.14949 0.49302 0.0
C121 C 0.05544 0.15439 0.45886 0.0
C122 C 0.01055 0.14776 0.4405 0.0
C123 C -0.02672 0.12889 0.48754 0.0
C124 C 0.01674 0.13559 0.50688 0.0
H125 H 0.00673 0.15467 0.41574 0.0
H126 H 0.93953 0.1204 0.49939 0.0
H127 H 0.94132 0.18704 0.41095 0.0
H128 H 0.88025 0.21657 0.49907 0.0
H129 H 0.92343 0.047 0.44468 0.0
H130 H 0.08633 0.16479 0.44687 0.0
H131 H 0.01568 0.13166 0.53312 0.0
C132 C 0.94353 0.89947 0.99537 0.0
C133 C 0.96011 0.87639 0.99747 0.0
N134 N 0.9555 0.86623 0.96734 0.0
N135 N 0.92851 0.90419 0.964 0.0
C136 C 0.93563 0.8834 0.9474 0.0
H137 H 0.94399 0.91233 1.01535 0.0
Co138 Co 0.90807 0.93519 0.95179 0.0
C139 C 0.95512 0.93713 0.88328 0.0
O140 O -0.00946 0.95282 0.89316 0.0
N141 N 0.88599 0.96679 0.94011 0.0
C142 C 0.88331 1.00522 0.92612 0.0
C143 C 0.91575 0.98585 0.93106 0.0
C144 C 0.83536 0.97532 0.94014 0.0
N145 N 0.83257 0.99852 0.93183 0.0
O146 O 0.83564 0.9243 0.94874 0.0
H147 H 0.95867 0.98611 0.92889 0.0
H148 H 0.8007 0.96498 0.94679 0.0
O149 O 0.92125 0.92847 0.90397 0.0
C150 C 0.82037 0.92513 0.979 0.0
O151 O 0.85382 0.93354 1.00122 0.0
N152 N -0.02184 0.9454 0.96086 0.0
C153 C 0.06639 0.94622 1.00266 0.0
C154 C 0.06658 0.9322 0.97383 0.0
C155 C 0.02198 0.93205 0.95312 0.0
C156 C -0.02067 0.96048 0.98745 0.0
C157 C 0.02347 0.96149 1.00835 0.0
H158 H 0.02008 0.91893 0.9335 0.0
H159 H 0.94351 0.96971 0.99494 0.0
H160 H 0.92825 0.88113 0.92116 0.0
H161 H -0.02531 0.86773 1.01956 0.0
H162 H 0.89617 1.02281 0.91875 0.0
H163 H 0.09909 0.92008 0.96878 0.0
H164 H 0.02154 0.97225 1.03064 0.0
C165 C 0.44997 0.19304 0.96303 0.0
C166 C 0.4404 0.21705 0.9613 0.0
N167 N 0.47417 0.22651 0.93894 0.0
N168 N 0.48903 0.18721 0.94139 0.0
C169 C 0.50348 0.20811 0.92738 0.0
H170 H 0.42999 0.18066 0.97938 0.0
Co171 Co 0.5172 0.15651 0.93365 0.0
C172 C 0.53846 0.15678 0.86142 0.0
O173 O 0.58527 0.14679 0.86539 0.0
N174 N 0.54541 0.12578 0.92548 0.0
C175 C 0.5585 0.08963 0.90438 0.0
C176 C 0.5247 0.10885 0.90543 0.0
C177 C 0.59149 0.11622 0.93664 0.0
N178 N 0.60079 0.09432 0.92393 0.0
O179 O 0.58803 0.16905 0.93589 0.0
H180 H 0.48811 0.11067 0.89154 0.0
H181 H 0.61808 0.12515 0.95362 0.0
O182 O 0.50987 0.16187 0.88657 0.0
C183 C 0.59503 0.17103 0.96717 0.0
O184 O 0.55374 0.16723 0.98666 0.0
N185 N 0.4491 0.14382 0.93605 0.0
C186 C 0.34798 0.13389 0.96026 0.0
C187 C 0.35439 0.14617 0.93019 0.0
C188 C 0.40581 0.15099 0.91834 0.0
C189 C 0.4434 0.13016 0.96361 0.0
C190 C 0.39313 0.12473 0.97594 0.0
H191 H 0.41074 0.16239 0.89703 0.0
H192 H 0.47823 0.12508 0.97763 0.0
H193 H 0.53513 0.20984 0.90923 0.0
H194 H 0.41223 0.22697 0.97624 0.0
H195 H 0.55319 0.07384 0.88933 0.0
H196 H 0.32041 0.15362 0.91744 0.0
H197 H 0.38982 0.11475 0.99878 0.0
C198 C 0.39171 0.21567 0.66846 0.0
C199 C 0.41052 0.23873 0.66869 0.0
N200 N 0.43123 0.24356 0.63857 0.0
N201 N 0.40054 0.20595 0.63835 0.0
C202 C 0.42443 0.22341 0.62069 0.0
H203 H 0.37252 0.20663 0.68891 0.0
Co204 Co 0.38199 0.17526 0.62394 0.0
C205 C 0.42284 0.1438 0.67755 0.0
O206 O 0.43413 0.12719 0.65567 0.0
N207 N 0.36156 0.14427 0.60923 0.0
C208 C 0.343 0.11251 0.57806 0.0
C209 C 0.36915 0.13395 0.57926 0.0
C210 C 0.32903 0.12872 0.62539 0.0
N211 N 0.31761 0.10914 0.60706 0.0
O212 O 0.30993 0.17981 0.63723 0.0
H213 H 0.38995 0.1416 0.55852 0.0
H214 H 0.31356 0.13186 0.65008 0.0
O215 O 0.40122 0.16314 0.66795 0.0
C216 C 0.28518 0.1921 0.61577 0.0
O217 O 0.3135 0.20607 0.59644 0.0
N218 N 0.45139 0.17157 0.6074 0.0
C219 C 0.54514 0.16256 0.57284 0.0
C220 C 0.54456 0.16258 0.60767 0.0
C221 C 0.49731 0.16769 0.6246 0.0
C222 C 0.45339 0.17504 0.57403 0.0
C223 C 0.49947 0.17006 0.55606 0.0
H224 H 0.49804 0.16835 0.65128 0.0
H225 H 0.41781 0.18055 0.56108 0.0
H226 H 0.43557 0.22154 0.5949 0.0
H227 H 0.40948 0.25087 0.68954 0.0
H228 H 0.34079 0.1008 0.55674 0.0
H229 H 0.58004 0.15833 0.62168 0.0
H230 H 0.49836 0.17098 0.52927 0.0
C231 C 0.02211 0.91494 0.5711 0.0
C232 C 0.00672 0.89194 0.56527 0.0
N233 N -0.00455 0.88158 0.59453 0.0
N234 N 0.02114 0.9193 0.60393 0.0
C235 C 0.00535 0.89847 0.61777 0.0
H236 H 0.03107 0.92805 0.55235 0.0
Co237 Co 0.03135 0.95023 0.61999 0.0
C238 C -0.01345 0.94646 0.6886 0.0
O239 O 0.94976 0.96203 0.6811 0.0
N240 N 0.04289 0.98236 0.63554 0.0
C241 C 0.03162 1.02066 0.64876 0.0
C242 C 0.00641 0.9993 0.64277 0.0
C243 C 0.09017 0.99414 0.63817 0.0
N244 N 0.08451 1.01748 0.64551 0.0
O245 O 0.10635 0.94369 0.6221 0.0
H246 H 0.96368 0.99688 0.64219 0.0
H247 H 0.12851 0.98601 0.63423 0.0
O248 O 0.0206 0.9399 0.66662 0.0
C249 C 0.12409 0.95005 0.59371 0.0
O250 O 0.09188 0.96186 0.57413 0.0
N251 N 0.95888 0.95589 0.6116 0.0
C252 C 0.87044 0.95123 0.5703 0.0
C253 C 0.87419 0.93783 0.59946 0.0
C254 C 0.91887 0.94038 0.61984 0.0
C255 C 0.95367 0.9703 0.58467 0.0
C256 C 0.9094 0.96852 0.56395 0.0
H257 H 0.92393 0.9279 0.63984 0.0
H258 H -0.01322 0.9814 0.57705 0.0
H259 H -0.00208 0.8962 0.644 0.0
H260 H 0.00296 0.88365 0.54113 0.0
H261 H 0.01209 1.03748 0.65328 0.0
H262 H 0.84476 0.9243 0.60521 0.0
H263 H 0.90838 0.97897 0.54147 0.0
C264 C 0.52782 0.68559 0.09987 0.0
C265 C 0.51552 0.70931 0.10024 0.0
N266 N 0.51586 0.71694 0.13191 0.0
N267 N 0.53616 0.67808 0.13114 0.0
C268 C 0.52851 0.69764 0.15025 0.0
H269 H 0.52916 0.67428 0.07815 0.0
Co270 Co 0.55302 0.6462 0.14078 0.0
C271 C 0.49313 0.64531 0.20678 0.0
O272 O 0.45228 0.63372 0.19432 0.0
N273 N 0.57235 0.61405 0.14954 0.0
C274 C 0.5834 0.57779 0.17043 0.0
C275 C 0.55409 0.59842 0.17223 0.0
C276 C 0.61215 0.60215 0.13394 0.0
N277 N 0.62045 0.58008 0.14632 0.0
O278 O 0.62491 0.65579 0.14986 0.0
H279 H 0.52216 0.60159 0.18953 0.0
H280 H 0.6346 0.6097 0.11373 0.0
O281 O 0.53323 0.65068 0.18834 0.0
C282 C 0.64652 0.65833 0.12143 0.0
O283 O 0.61842 0.65328 0.09488 0.0
N284 N 0.48391 0.63704 0.12691 0.0
C285 C 0.39886 0.63481 0.08245 0.0
C286 C 0.3976 0.65053 0.10944 0.0
C287 C 0.44052 0.65141 0.13138 0.0
C288 C 0.48394 0.62061 0.10188 0.0
C289 C 0.4415 0.61897 0.07967 0.0
H290 H 0.441 0.66527 0.15 0.0
H291 H 0.51921 0.6103 0.09669 0.0
H292 H 0.53167 0.69769 0.17699 0.0
H293 H 0.50517 0.71991 0.07889 0.0
H294 H 0.57826 0.56261 0.18647 0.0
H295 H 0.36503 0.66294 0.11256 0.0
H296 H 0.44417 0.60674 0.05893 0.0
C297 C 0.95957 0.37564 0.07589 0.0
C298 C 0.96909 0.35168 0.07766 0.0
N299 N 0.94645 0.3434 0.10557 0.0
N300 N 0.93181 0.38268 0.10291 0.0
C301 C 0.92345 0.36243 0.12035 0.0
H302 H -0.02752 0.38726 0.05614 0.0
Co303 Co 0.9138 0.41463 0.11164 0.0
C304 C 0.94359 0.42134 0.18161 0.0
O305 O 0.96824 0.44099 0.17293 0.0
N306 N 0.8941 0.44747 0.12007 0.0
C307 C 0.89269 0.4872 0.12367 0.0
C308 C 0.9242 0.46755 0.11892 0.0
C309 C 0.84423 0.45586 0.12659 0.0
N310 N 0.84221 0.47986 0.12832 0.0
O311 O 0.84039 0.40624 0.111 0.0
H312 H 0.96682 0.46832 0.11534 0.0
H313 H 0.8093 0.44471 0.12927 0.0
O314 O 0.91948 0.40888 0.1596 0.0
C315 C 0.8297 0.40774 0.08018 0.0
O316 O 0.86892 0.41199 0.05933 0.0
N317 N -0.01411 0.42243 0.1068 0.0
C318 C 0.08742 0.42345 0.07848 0.0
C319 C 0.07856 0.41217 0.10908 0.0
C320 C 0.02719 0.41163 0.12272 0.0
C321 C -0.00581 0.43371 0.07737 0.0
C322 C 0.04467 0.43497 0.06325 0.0
H323 H 0.01991 0.40071 0.14424 0.0
H324 H 0.96059 0.44068 0.0638 0.0
H325 H 0.90152 0.36166 0.14347 0.0
H326 H -0.00999 0.34098 0.05947 0.0
H327 H 0.90612 0.50552 0.12405 0.0
H328 H 0.11012 0.40249 0.12127 0.0
H329 H 0.04957 0.44411 0.03985 0.0
C330 C -0.01469 0.38138 0.4784 0.0
C331 C 0.96202 0.35944 0.48064 0.0
N332 N -0.02087 0.34605 0.45513 0.0
N333 N 0.01662 0.38242 0.45112 0.0
C334 C 0.01344 0.36012 0.43801 0.0
H335 H -0.02039 0.3956 0.49602 0.0
Co336 Co 0.05537 0.41042 0.43918 0.0
C337 C 0.00191 0.39635 0.37334 0.0
O338 O 0.96319 0.38373 0.38654 0.0
N339 N 0.09298 0.43844 0.42792 0.0
C340 C 0.11257 0.47265 0.40325 0.0
C341 C 0.07843 0.45355 0.40375 0.0
C342 C 0.13573 0.44913 0.44228 0.0
N343 N 0.14921 0.46998 0.42737 0.0
O344 O 0.11973 0.39242 0.43288 0.0
H345 H 0.04391 0.4513 0.38803 0.0
H346 H 0.15582 0.44187 0.46361 0.0
O347 O 0.03652 0.40656 0.39196 0.0
C348 C 0.13797 0.38126 0.45794 0.0
O349 O 0.10654 0.37774 0.48356 0.0
N350 N -0.00395 0.42901 0.44909 0.0
C351 C 0.91152 0.45129 0.48078 0.0
C352 C 0.90603 0.44286 0.44816 0.0
C353 C 0.94907 0.43169 0.4326 0.0
C354 C 0.0034 0.43921 0.47946 0.0
C355 C 0.96138 0.45016 0.49603 0.0
H356 H 0.94344 0.42463 0.40812 0.0
H357 H 0.04122 0.43713 0.49196 0.0
H358 H 0.03424 0.35459 0.41574 0.0
H359 H 0.93422 0.35372 0.49963 0.0
H360 H 0.10913 0.48769 0.38681 0.0
H361 H 0.86799 0.44364 0.43554 0.0
H362 H 0.9672 0.45675 0.52103 0.0
C363 C 0.36712 0.68546 0.50515 0.0
C364 C 0.37209 0.70979 0.50572 0.0
N365 N 0.39749 0.71676 0.47791 0.0
N366 N 0.38888 0.67686 0.47702 0.0
C367 C 0.40728 0.69638 0.46088 0.0
H368 H 0.34983 0.67464 0.52451 0.0
Co369 Co 0.39343 0.64412 0.46808 0.0
C370 C 0.44421 0.64095 0.402 0.0
O371 O 0.47797 0.62547 0.4141 0.0
N372 N 0.39663 0.6103 0.45934 0.0
C373 C 0.40836 0.57114 0.46523 0.0
C374 C 0.42859 0.59339 0.47239 0.0
C375 C 0.35865 0.5975 0.44308 0.0
N376 N 0.36398 0.57378 0.44704 0.0
O377 O 0.318 0.64356 0.46031 0.0
H378 H 0.46332 0.5966 0.48748 0.0
H379 H 0.32519 0.60542 0.43043 0.0
O380 O 0.40893 0.65028 0.42099 0.0
C381 C 0.29945 0.63501 0.48731 0.0
O382 O 0.33348 0.62826 0.51007 0.0
N383 N 0.46441 0.64538 0.48188 0.0
C384 C 0.5499 0.65669 0.52348 0.0
C385 C 0.5499 0.66392 0.49005 0.0
C386 C 0.50611 0.65843 0.46969 0.0
C387 C 0.46439 0.63823 0.51409 0.0
C388 C 0.50656 0.64338 0.53507 0.0
H389 H 0.50428 0.6661 0.44524 0.0
H390 H 0.42972 0.62946 0.52428 0.0
H391 H 0.42795 0.69566 0.43732 0.0
H392 H 0.35953 0.72138 0.52572 0.0
H393 H 0.42418 0.55435 0.47366 0.0
H394 H 0.58234 0.67448 0.48006 0.0
H395 H 0.50338 0.63811 0.56079 0.0
C396 C 0.47713 0.39899 0.96359 0.0
C397 C 0.48563 0.37493 0.9627 0.0
N398 N 0.45982 0.36592 0.93629 0.0
N399 N 0.44713 0.4054 0.93736 0.0
C400 C 0.43622 0.38468 0.92146 0.0
H401 H 0.49155 0.41109 0.98246 0.0
Co402 Co 0.42477 0.43691 0.92936 0.0
C403 C 0.45731 0.44334 0.85926 0.0
O404 O 0.48954 0.46043 0.86879 0.0
N405 N 0.40038 0.46901 0.92173 0.0
C406 C 0.39473 0.50821 0.91335 0.0
C407 C 0.42855 0.48911 0.91546 0.0
C408 C 0.34909 0.47674 0.92284 0.0
N409 N 0.34451 0.50045 0.91813 0.0
O410 O 0.35269 0.42609 0.93127 0.0
H411 H 0.47141 0.49031 0.91334 0.0
H412 H 0.31516 0.46529 0.92701 0.0
O413 O 0.42916 0.43198 0.88064 0.0
C414 C 0.34483 0.42659 0.96262 0.0
O415 O 0.3845 0.43348 0.9817 0.0
N416 N 0.49589 0.44691 0.93371 0.0
C417 C 0.59312 0.44814 0.96643 0.0
C418 C 0.58757 0.43511 0.93695 0.0
C419 C 0.53838 0.43484 0.92068 0.0
C420 C 0.50197 0.46057 0.96149 0.0
C421 C 0.55067 0.46193 0.97774 0.0
H422 H 0.53267 0.42258 0.90028 0.0
H423 H 0.4675 0.46854 0.97315 0.0
H424 H 0.411 0.38333 0.89979 0.0
H425 H 0.50731 0.36466 0.98083 0.0
H426 H 0.40671 0.52651 0.9097 0.0
H427 H 0.61961 0.42391 0.92803 0.0
H428 H 0.55344 0.47171 1.00087 0.0
C429 C 0.04486 0.69792 1.00506 0.0
C430 C 0.03973 0.72197 1.00952 0.0
N431 N 0.03854 0.73233 0.97953 0.0
N432 N 0.04739 0.69299 0.97237 0.0
C433 C 0.04312 0.71441 0.95727 0.0
H434 H 0.04723 0.68478 1.02449 0.0
Co435 Co 0.05772 0.66202 0.95647 0.0
C436 C 0.0016 0.66245 0.89188 0.0
O437 O -0.02644 0.6439 0.90127 0.0
N438 N 0.06963 0.62994 0.94046 0.0
C439 C 0.06353 0.59082 0.93051 0.0
C440 C 0.03612 0.61095 0.93972 0.0
C441 C 0.11692 0.6206 0.93037 0.0
N442 N 0.11458 0.59693 0.92484 0.0
O443 O 0.13063 0.66983 0.94772 0.0
H444 H -0.00571 0.61125 0.94615 0.0
H445 H 0.15353 0.63061 0.92826 0.0
O446 O 0.03568 0.67168 0.91176 0.0
C447 C 0.15199 0.6641 0.97527 0.0
O448 O 0.12139 0.6555 0.99886 0.0
N449 N -0.01092 0.65452 0.97107 0.0
C450 C 0.90312 0.65004 1.01466 0.0
C451 C 0.89958 0.66478 0.98662 0.0
C452 C 0.94349 0.667 0.96517 0.0
C453 C -0.00724 0.64021 0.99814 0.0
C454 C 0.95021 0.63739 1.01983 0.0
H455 H 0.94224 0.67993 0.94545 0.0
H456 H 0.0303 0.63187 1.00403 0.0
H457 H 0.045 0.71692 0.93071 0.0
H458 H 0.03748 0.73125 1.03305 0.0
H459 H 0.04725 0.57302 0.92869 0.0
H460 H 0.86402 0.67509 0.98198 0.0
H461 H 0.95548 0.62644 0.0416 0.0
C462 C 0.95666 0.71072 0.60089 0.0
C463 C 0.9699 0.73432 0.59901 0.0
N464 N 0.9434 0.74593 0.62299 0.0
N465 N 0.92184 0.70723 0.6261 0.0
C466 C 0.91407 0.72931 0.63894 0.0
H467 H -0.0297 0.69724 0.58383 0.0
Co468 Co 0.8869 0.67792 0.63522 0.0
C469 C 0.93629 0.69145 0.70196 0.0
O470 O -0.02816 0.70612 0.68945 0.0
N471 N 0.85281 0.64883 0.64388 0.0
C472 C 0.8336 0.61378 0.66615 0.0
C473 C 0.86736 0.63303 0.66718 0.0
C474 C 0.81076 0.63849 0.62847 0.0
N475 N 0.79743 0.61719 0.64195 0.0
O476 O 0.82001 0.69387 0.64146 0.0
H477 H 0.90106 0.63513 0.68362 0.0
H478 H 0.79067 0.64647 0.60766 0.0
O479 O 0.90375 0.68044 0.68281 0.0
C480 C 0.80244 0.70301 0.61468 0.0
O481 O 0.83448 0.70419 0.58892 0.0
N482 N 0.94865 0.6614 0.62476 0.0
C483 C 0.03502 0.64169 0.59174 0.0
C484 C 0.03998 0.64931 0.62481 0.0
C485 C -0.00404 0.65926 0.64104 0.0
C486 C 0.94235 0.65233 0.59364 0.0
C487 C -0.01484 0.6426 0.5765 0.0
H488 H 0.00088 0.66586 0.66589 0.0
H489 H 0.90437 0.65416 0.58125 0.0
H490 H 0.88634 0.7332 0.65882 0.0
H491 H -0.004 0.74251 0.58087 0.0
H492 H 0.83652 0.59826 0.68176 0.0
H493 H 0.07809 0.64871 0.63736 0.0
H494 H -0.02024 0.63659 0.55118 0.0
C495 C 0.56459 0.40228 0.56413 0.0
C496 C 0.55417 0.37831 0.56696 0.0
N497 N 0.53205 0.37424 0.59695 0.0
N498 N 0.54933 0.41339 0.59219 0.0
C499 C 0.53012 0.39585 0.61178 0.0
H500 H 0.57994 0.41121 0.54239 0.0
Co501 Co 0.54679 0.44636 0.5982 0.0
C502 C 0.49736 0.45141 0.6648 0.0
O503 O 0.46249 0.4666 0.6532 0.0
N504 N 0.545 0.48021 0.60449 0.0
C505 C 0.53593 0.51933 0.59707 0.0
C506 C 0.51547 0.49719 0.58958 0.0
C507 C 0.58176 0.49281 0.62195 0.0
N508 N 0.57798 0.5165 0.61723 0.0
O509 O 0.62209 0.44664 0.60593 0.0
H510 H 0.48237 0.4941 0.57311 0.0
H511 H 0.61326 0.4847 0.63621 0.0
O512 O 0.53205 0.44219 0.64543 0.0
C513 C 0.64133 0.45379 0.57837 0.0
O514 O 0.60803 0.45882 0.55435 0.0
N515 N 0.47567 0.44524 0.58484 0.0
C516 C 0.38996 0.43255 0.54429 0.0
C517 C 0.38974 0.42682 0.57827 0.0
C518 C 0.43359 0.43302 0.59814 0.0
C519 C 0.47578 0.45104 0.55209 0.0
C520 C 0.43343 0.44523 0.53159 0.0
H521 H 0.43524 0.42634 0.62316 0.0
H522 H 0.51076 0.45907 0.54115 0.0
H523 H 0.51321 0.39899 0.63605 0.0
H524 H 0.55994 0.36516 0.54765 0.0
H525 H 0.52196 0.53615 0.58757 0.0
H526 H 0.35714 0.41679 0.58907 0.0
H527 H 0.4366 0.44935 0.50546 0.0
H528 H 0.3284 0.142 1.02541 0.0
H529 H 0.25028 0.12422 0.93328 0.0
H530 H 0.16393 0.12381 0.96162 0.0
H531 H 0.11154 0.12838 1.01207 0.0
H532 H 0.1888 0.14546 0.10476 0.0
H533 H 0.27555 0.14599 0.07651 0.0
C534 C 0.29257 0.13766 1.01161 0.0
C535 C 0.29569 0.1329 0.97732 0.0
C536 C 0.24331 0.13739 1.02807 0.0
C537 C 0.24881 0.12799 0.95961 0.0
C538 C 0.19959 0.12769 0.97582 0.0
C539 C 0.14725 0.13224 1.02626 0.0
C540 C 0.14378 0.13693 0.06051 0.0
C541 C 0.19649 0.1324 1.00997 0.0
C542 C 0.19048 0.14187 0.07838 0.0
C543 C 0.23995 0.14213 0.06225 0.0
H544 H 0.09464 0.90428 1.0295 0.0
H545 H 0.12498 0.97962 0.03612 0.0
H546 H 0.19005 0.97288 0.08021 0.0
H547 H 0.24366 0.9451 0.11309 0.0
H548 H 0.21667 0.86975 0.10403 0.0
H549 H 0.14296 0.87689 0.06583 0.0
C550 C 0.1158 0.91919 0.04054 0.0
C551 C 0.10624 0.94235 1.02909 0.0
C552 C 0.15265 0.91517 0.06599 0.0
C553 C 0.13242 0.96161 0.04426 0.0
C554 C 0.16928 0.95776 0.06961 0.0
C555 C 0.22059 0.93034 0.1037 0.0
C556 C 0.23547 0.90697 0.11152 0.0
C557 C 0.18024 0.93458 0.08037 0.0
C558 C 0.20554 0.88792 0.09862 0.0
C559 C 0.164 0.89198 0.07638 0.0
H560 H 0.6903 0.94111 0.46234 0.0
H561 H 0.72385 0.86695 0.47703 0.0
H562 H 0.79781 0.87737 0.51386 0.0
H563 H 0.84531 0.90743 0.54696 0.0
H564 H 0.80757 0.98162 0.535 0.0
H565 H 0.74213 0.97144 0.4923 0.0
C566 C 0.71495 0.9273 0.47256 0.0
C567 C 0.70211 0.90333 0.46659 0.0
C568 C 0.75542 0.93346 0.49507 0.0
C569 C 0.73359 0.88554 0.48089 0.0
C570 C 0.77529 0.89149 0.50233 0.0
C571 C 0.82246 0.92135 0.53513 0.0
C572 C 0.83033 0.9452 0.54461 0.0
C573 C 0.78509 0.91535 0.51061 0.0
C574 C 0.80176 0.96312 0.52834 0.0
C575 C 0.76457 0.95731 0.50382 0.0
H576 H 0.74713 0.112 0.51377 0.0
H577 H 0.73533 0.16846 0.44224 0.0
H578 H 0.6522 0.18198 0.46844 0.0
H579 H 0.58918 0.18016 0.51569 0.0
H580 H 0.60477 0.12394 0.58764 0.0
H581 H 0.68153 0.10834 0.55778 0.0
C582 C 0.72595 0.12708 0.50359 0.0
C583 C 0.74728 0.13938 0.47639 0.0
C584 C 0.67985 0.13515 0.51941 0.0
C585 C 0.71929 0.15866 0.46309 0.0
C586 C 0.67227 0.16654 0.47834 0.0
C587 C 0.60909 0.16437 0.52463 0.0
C588 C 0.59184 0.15348 0.55421 0.0
C589 C 0.65319 0.15536 0.50718 0.0
C590 C 0.61814 0.13306 0.5655 0.0
C591 C 0.66162 0.12395 0.54824 0.0
H592 H 0.7934 0.90687 0.03753 0.0
H593 H 0.7254 0.93206 0.94624 0.0
H594 H 0.63616 0.9315 0.9717 0.0
H595 H 0.58005 0.92804 1.02202 0.0
H596 H 0.65024 0.90249 0.11285 0.0
H597 H 0.73669 0.89969 0.0856 0.0
C598 C 0.75884 0.91184 1.023 0.0
C599 C 0.76572 0.91961 0.99019 0.0
C600 C 0.70848 0.912 0.03799 0.0
C601 C 0.72086 0.92581 0.97147 0.0
C602 C 0.67007 0.92578 0.98618 0.0
C603 C 0.614 0.92149 0.03577 0.0
C604 C 0.60855 0.91587 0.06974 0.0
C605 C 0.66373 0.91957 1.01976 0.0
C606 C 0.65332 0.90762 0.08707 0.0
C607 C 0.70274 0.90573 0.07139 0.0
H608 H 0.61585 0.17596 1.03196 0.0
H609 H 0.69353 0.1648 0.9376 0.0
H610 H 0.77684 0.15516 0.96633 0.0
H611 H 0.82418 0.14634 1.01836 0.0
H612 H 0.74045 0.15266 0.11181 0.0
H613 H 0.66241 0.16769 0.08309 0.0
C614 C 0.6511 0.1717 1.01749 0.0
C615 C 0.64838 0.17091 0.98266 0.0
C616 C 0.69739 0.16492 0.03406 0.0
C617 C 0.69466 0.16568 0.96441 0.0
C618 C 0.742 0.15986 0.98086 0.0
C619 C 0.78864 0.15063 1.03249 0.0
C620 C 0.78822 0.1481 0.06732 0.0
C621 C 0.74319 0.15865 1.01569 0.0
C622 C 0.74224 0.15454 0.08513 0.0
C623 C 0.69749 0.1631 0.06871 0.0
H624 H 0.10389 0.13213 0.54965 0.0
H625 H 0.10016 0.19406 0.48652 0.0
H626 H 0.16451 0.21393 0.52201 0.0
H627 H 0.22539 0.21313 0.56889 0.0
H628 H 0.22759 0.15237 0.63373 0.0
H629 H 0.15777 0.13326 0.60069 0.0
C630 C 0.11657 0.15007 0.54377 0.0
C631 C 0.09787 0.16122 0.51478 0.0
C632 C 0.1526 0.16182 0.56492 0.0
C633 C 0.11517 0.18452 0.50777 0.0
C634 C 0.15138 0.19614 0.52842 0.0
C635 C 0.20994 0.19589 0.57625 0.0
C636 C 0.2328 0.1839 0.60319 0.0
C637 C 0.17076 0.18488 0.5568 0.0
C638 C 0.21146 0.1618 0.61274 0.0
C639 C 0.1718 0.15079 0.59367 0.0
H640 H 0.17461 0.96962 0.54175 0.0
H641 H 0.19226 0.91515 0.61581 0.0
H642 H 0.27343 0.90104 0.58779 0.0
H643 H 0.3358 0.90292 0.54007 0.0
H644 H 0.31613 0.95822 0.46704 0.0
H645 H 0.23788 0.97264 0.49632 0.0
C646 C 0.19632 0.95474 0.55203 0.0
C647 C 0.17731 0.94338 0.58078 0.0
C648 C 0.24185 0.94653 0.53551 0.0
C649 C 0.20628 0.9243 0.59385 0.0
C650 C 0.25233 0.9161 0.57763 0.0
C651 C 0.31471 0.91823 0.53065 0.0
C652 C 0.33184 0.9292 0.50096 0.0
C653 C 0.26995 0.92685 0.54807 0.0
C654 C 0.30339 0.94892 0.48916 0.0
C655 C 0.25891 0.95744 0.50616 0.0
H656 H 0.7241 0.62619 0.11947 0.0
H657 H 0.69267 0.70071 0.10795 0.0
H658 H 0.77328 0.70521 0.07401 0.0
H659 H 0.84375 0.68638 0.0402 0.0
H660 H 0.86636 0.61049 0.04629 0.0
H661 H 0.79761 0.60782 0.08889 0.0
C662 C 0.73617 0.6435 0.11044 0.0
C663 C 0.7033 0.66312 0.11641 0.0
C664 C 0.77974 0.64544 0.08877 0.0
C665 C 0.71846 0.68551 0.10434 0.0
C666 C 0.76374 0.68793 0.08426 0.0
C667 C 0.83333 0.66925 0.0507 0.0
C668 C 0.85981 0.64864 0.03978 0.0
C669 C 0.793 0.66776 0.0749 0.0
C670 C 0.84669 0.62664 0.05423 0.0
C671 C 0.80743 0.62509 0.07867 0.0
H672 H 0.79164 0.44933 0.06104 0.0
H673 H 0.75063 0.3752 0.06936 0.0
H674 H 0.67267 0.38127 0.03355 0.0
H675 H 0.62175 0.40725 0.9958 0.0
H676 H 0.66409 0.48133 0.98776 0.0
H677 H 0.73697 0.47581 1.02735 0.0
C678 C 0.76445 0.43471 0.05586 0.0
C679 C 0.77568 0.41198 0.06811 0.0
C680 C 0.72133 0.43825 0.03456 0.0
C681 C 0.74153 0.39294 0.06074 0.0
C682 C 0.69771 0.39636 0.03987 0.0
C683 C 0.64748 0.42204 1.00258 0.0
C684 C 0.63907 0.44451 0.98841 0.0
C685 C 0.68833 0.41879 1.0258 0.0
C686 C 0.67101 0.46383 0.99797 0.0
C687 C 0.71216 0.46071 1.02073 0.0
H688 H 0.21217 0.4131 0.43721 0.0
H689 H 0.19232 0.34982 0.4958 0.0
H690 H 0.27306 0.3595 0.52697 0.0
H691 H 0.33866 0.38966 0.54431 0.0
H692 H 0.34739 0.45622 0.49147 0.0
H693 H 0.28132 0.44191 0.452 0.0
C694 C 0.22613 0.40121 0.45635 0.0
C695 C 0.19564 0.38117 0.46486 0.0
C696 C 0.26948 0.40803 0.47618 0.0
C697 C 0.21507 0.36549 0.489 0.0
C698 C 0.26058 0.37127 0.50728 0.0
C699 C 0.32562 0.40118 0.52446 0.0
C700 C 0.34771 0.42409 0.52123 0.0
C701 C 0.28601 0.39323 0.50246 0.0
C702 C 0.33135 0.43847 0.49464 0.0
C703 C 0.29342 0.43034 0.47201 0.0
H704 H 0.25445 0.60826 0.53433 0.0
H705 H 0.21687 0.66071 0.46034 0.0
H706 H 0.12765 0.66549 0.48481 0.0
H707 H 0.06615 0.65861 0.53197 0.0
H708 H 0.10955 0.60895 0.60842 0.0
H709 H 0.19176 0.59944 0.57853 0.0
C710 C 0.22656 0.62057 0.52321 0.0
C711 C 0.24231 0.63439 0.49589 0.0
C712 C 0.17702 0.62398 0.5383 0.0
C713 C 0.20551 0.64988 0.48137 0.0
C714 C 0.15486 0.65278 0.4956 0.0
C715 C 0.09333 0.64543 0.5417 0.0
C716 C 0.08229 0.6345 0.57235 0.0
C717 C 0.14105 0.64055 0.52479 0.0
C718 C 0.11775 0.61767 0.58505 0.0
C719 C 0.16447 0.6122 0.56792 0.0
H720 H 0.32474 0.42481 1.02793 0.0
H721 H 0.24711 0.41914 0.9328 0.0
H722 H 0.16014 0.41632 0.96077 0.0
H723 H 0.10684 0.41754 1.01225 0.0
H724 H 0.18633 0.42631 0.10647 0.0
H725 H 0.27263 0.42553 0.07857 0.0
C726 C 0.28894 0.42287 1.0131 0.0
C727 C 0.29232 0.42234 0.97826 0.0
C728 C 0.23961 0.42188 1.02921 0.0
C729 C 0.24552 0.41957 0.95963 0.0
C730 C 0.1959 0.41808 0.97562 0.0
C731 C 0.14299 0.41956 1.0267 0.0
C732 C 0.13998 0.42223 0.06149 0.0
C733 C 0.19252 0.41965 1.0104 0.0
C734 C 0.18736 0.42407 0.07981 0.0
C735 C 0.23672 0.42377 0.06384 0.0
H736 H 0.20783 0.62454 0.98309 0.0
H737 H 0.22187 0.70081 0.98318 0.0
H738 H 0.30457 0.69822 1.01538 0.0
H739 H 0.36304 0.67437 0.05139 0.0
H740 H 0.34456 0.59811 0.05367 0.0
H741 H 0.2732 0.60043 1.01262 0.0
C742 C 0.23048 0.6405 0.98892 0.0
C743 C 0.20963 0.66281 0.98056 0.0
C744 C 0.27597 0.63883 1.00881 0.0
C745 C 0.23814 0.68347 0.98876 0.0
C746 C 0.28468 0.68196 1.00775 0.0
C747 C 0.34337 0.65828 0.04279 0.0
C748 C 0.358 0.63613 0.05606 0.0
C749 C 0.30227 0.6598 1.01932 0.0
C750 C 0.3335 0.61535 0.04405 0.0
C751 C 0.29283 0.61668 1.02058 0.0
H752 H 0.60324 0.69917 0.52647 0.0
H753 H 0.59152 0.63088 0.57468 0.0
H754 H 0.65726 0.64335 0.61543 0.0
H755 H 0.72665 0.67129 0.63295 0.0
H756 H 0.75086 0.73598 0.57816 0.0
H757 H 0.67031 0.72804 0.54583 0.0
C758 C 0.61552 0.68687 0.54558 0.0
C759 C 0.59239 0.66406 0.5472 0.0
C760 C 0.65517 0.69374 0.56828 0.0
C761 C 0.60805 0.64864 0.57282 0.0
C762 C 0.64587 0.6557 0.59619 0.0
C763 C 0.7136 0.68387 0.61443 0.0
C764 C 0.745 0.70393 0.60748 0.0
C765 C 0.67058 0.67798 0.59372 0.0
C766 C 0.7271 0.72039 0.58392 0.0
C767 C 0.68175 0.71558 0.56494 0.0
H768 H 0.87986 0.43529 0.54089 0.0
H769 H 0.83707 0.48375 0.46282 0.0
H770 H 0.75217 0.4919 0.49048 0.0
H771 H 0.68657 0.48134 0.53236 0.0
H772 H 0.72456 0.43031 0.60814 0.0
H773 H 0.81613 0.42761 0.58659 0.0
C774 C 0.85234 0.44804 0.53043 0.0
C775 C 0.86423 0.45888 0.49984 0.0
C776 C 0.80304 0.45205 0.54598 0.0
C777 C 0.8283 0.47512 0.48619 0.0
C778 C 0.77995 0.47977 0.50199 0.0
C779 C 0.71508 0.46983 0.5445 0.0
C780 C 0.69885 0.4557 0.57139 0.0
C781 C 0.76631 0.46772 0.53121 0.0
C782 C 0.73629 0.44129 0.58735 0.0
C783 C 0.78835 0.43961 0.57481 0.0
H784 H 0.16959 0.07196 0.10254 0.0
H785 H 0.07057 1.02421 0.15943 0.0
H786 H 0.14256 0.99514 0.16075 0.0
H787 H 0.23252 0.98256 0.144 0.0
H788 H 0.33099 1.03004 0.08627 0.0
H789 H 0.26089 0.05996 0.08759 0.0
C790 C 0.16395 0.05537 0.11567 0.0
C791 C 0.11442 0.05037 0.13082 0.0
C792 C 0.20556 1.03858 0.11618 0.0
C793 C 0.10784 1.0285 0.14721 0.0
C794 C 0.14918 1.01187 0.14812 0.0
C795 C 0.2391 0.99951 0.13204 0.0
C796 C 0.28714 1.00377 0.11471 0.0
C797 C 0.1981 1.0166 0.13244 0.0
C798 C 0.29429 1.02597 0.09926 0.0
C799 C 0.25416 0.04318 0.10008 0.0
H800 H 0.7052 0.97625 0.42776 0.0
H801 H 0.59223 1.02691 0.46646 0.0
H802 H 0.65836 0.05866 0.46125 0.0
H803 H 0.74983 0.07178 0.44861 0.0
H804 H 0.86425 1.02107 0.41191 0.0
H805 H 0.79638 0.98966 0.41365 0.0
C806 C 0.69478 0.99425 0.43472 0.0
C807 C 0.64364 0.99903 0.44777 0.0
C808 C 0.73356 1.01245 0.43225 0.0
C809 C 0.63133 1.02257 0.45682 0.0
C810 C 0.66916 1.04079 0.45376 0.0
C811 C 0.75975 0.05397 0.4404 0.0
C812 C 0.81221 0.04889 0.42993 0.0
C813 C 0.72065 1.03591 0.44192 0.0
C814 C 0.8244 1.02549 0.42019 0.0
C815 C 0.7855 1.00752 0.42112 0.0
H816 H 0.60781 0.04659 0.91703 0.0
H817 H 0.70074 0.1092 0.94022 0.0
H818 H 0.78076 0.085 0.94513 0.0
H819 H 0.82519 0.04604 0.94164 0.0
H820 H 0.73227 0.98365 0.91748 0.0
H821 H 0.65187 1.00774 0.91402 0.0
C822 C 0.64555 0.05501 0.92296 0.0
C823 C 0.64785 0.07979 0.92814 0.0
C824 C 0.69171 1.04098 0.92551 0.0
C825 C 0.69725 0.09021 0.93644 0.0
C826 C 0.7433 0.07637 0.93902 0.0
C827 C 0.78746 1.03773 0.93537 0.0
C828 C 0.78508 1.01299 0.92979 0.0
C829 C 0.74113 0.05175 0.93338 0.0
C830 C 0.73545 1.00254 0.92226 0.0
C831 C 0.68936 1.01635 0.92011 0.0
H832 H 0.17989 1.0161 0.61384 0.0
H833 H 0.08151 0.06072 0.67586 0.0
H834 H 0.1466 0.09298 0.67102 0.0
H835 H 0.22974 0.10928 0.64664 0.0
H836 H 0.32733 0.06405 0.58513 0.0
H837 H 0.26487 1.03123 0.59288 0.0
C838 C 0.1729 1.03263 0.62692 0.0
C839 C 0.12538 1.03581 0.64512 0.0
C840 C 0.2105 0.05116 0.62402 0.0
C841 C 0.11717 0.05774 0.6613 0.0
C842 C 0.15458 0.07623 0.65865 0.0
C843 C 0.23767 0.09217 0.63532 0.0
C844 C 0.28297 0.08931 0.61495 0.0
C845 C 0.20112 0.07327 0.63969 0.0
C846 C 0.29238 0.06694 0.6004 0.0
C847 C 0.25672 0.04809 0.60491 0.0
H848 H 0.82546 0.52329 0.1024 0.0
H849 H 0.75409 0.46995 0.16498 0.0
H850 H 0.67757 0.49593 0.17518 0.0
H851 H 0.6328 0.53435 0.16788 0.0
H852 H 0.70432 0.58712 0.1038 0.0
H853 H 0.77835 0.56082 0.09277 0.0
C854 C 0.7933 0.51739 0.11842 0.0
C855 C 0.79591 0.49477 0.13321 0.0
C856 C 0.74934 0.53239 0.12404 0.0
C857 C 0.75313 0.48721 0.15322 0.0
C858 C 0.70945 0.50213 0.15916 0.0
C859 C 0.66439 0.54035 0.1516 0.0
C860 C 0.6626 0.56338 0.13761 0.0
C861 C 0.70735 0.52489 0.14496 0.0
C862 C 0.70404 0.57003 0.11577 0.0
C863 C 0.74685 0.55484 0.10925 0.0
H864 H 0.33549 0.53506 0.48273 0.0
H865 H 0.30547 0.57176 0.39113 0.0
H866 H 0.23756 0.54222 0.37638 0.0
H867 H 0.18634 0.50658 0.38972 0.0
H868 H 0.21095 0.47111 0.48323 0.0
H869 H 0.28232 0.49914 0.49652 0.0
C870 C 0.31449 0.5364 0.45937 0.0
C871 C 0.32579 0.55556 0.43791 0.0
C872 C 0.27459 0.51955 0.45138 0.0
C873 C 0.29743 0.55729 0.40806 0.0
C874 C 0.25867 0.54037 0.39964 0.0
C875 C 0.20644 0.50493 0.41327 0.0
C876 C 0.19228 0.48647 0.43539 0.0
C877 C 0.24659 0.52155 0.42123 0.0
C878 C 0.22055 0.48479 0.46542 0.0
C879 C 0.26145 0.50098 0.47318 0.0
H880 H 0.32897 0.54427 0.89223 0.0
H881 H 0.25101 0.48909 0.94888 0.0
H882 H 0.17165 0.51357 0.95402 0.0
H883 H 0.12556 0.5515 0.94506 0.0
H884 H 0.20444 0.60724 0.89034 0.0
H885 H 0.28242 0.5819 0.88247 0.0
C886 C 0.29488 0.53757 0.90588 0.0
C887 C 0.29657 0.51471 0.9201 0.0
C888 C 0.24939 0.55196 0.90933 0.0
C889 C 0.25117 0.50636 0.9372 0.0
C890 C 0.20564 0.52047 0.94041 0.0
C891 C 0.15945 0.55799 0.93097 0.0
C892 C 0.15902 0.58129 0.91831 0.0
C893 C 0.20442 0.54337 0.92681 0.0
C894 C 0.20384 0.5895 0.90064 0.0
C895 C 0.24841 0.57498 0.89605 0.0
H896 H 0.75556 0.5815 0.67895 0.0
H897 H 0.73971 0.61682 0.58462 0.0
H898 H 0.66733 0.58978 0.56965 0.0
H899 H 0.61118 0.55466 0.5822 0.0
H900 H 0.63148 0.51821 0.67506 0.0
H901 H 0.70036 0.54683 0.69142 0.0
C902 C 0.73707 0.58326 0.65489 0.0
C903 C 0.75397 0.60131 0.63297 0.0
C904 C 0.69621 0.56727 0.64608 0.0
C905 C 0.72789 0.60334 0.60223 0.0
C906 C 0.68645 0.58774 0.59353 0.0
C907 C 0.6302 0.55321 0.60619 0.0
C908 C 0.61606 0.53437 0.6275 0.0
C909 C 0.67054 0.56951 0.61515 0.0
C910 C 0.64183 0.53246 0.65823 0.0
C911 C 0.68114 0.54884 0.66757 0.0
H912 H 0.02994 0.31491 0.11574 0.0
H913 H 0.85849 0.31673 0.11479 0.0
H914 H 0.85497 0.27316 0.11819 0.0
H915 H 0.9017 0.23452 0.11384 0.0
H916 H 0.07303 0.2327 0.11728 0.0
H917 H 0.0763 0.27628 0.12105 0.0
C918 C -0.00803 0.30567 0.1172 0.0
C919 C 0.94448 0.31879 0.11498 0.0
C920 C -0.00949 0.28071 0.11932 0.0
C921 C 0.89534 0.30687 0.11679 0.0
C922 C 0.89345 0.28202 0.11843 0.0
C923 C 0.93952 0.24377 0.11635 0.0
C924 C -0.01287 0.23065 0.11527 0.0
C925 C 0.94081 0.26874 0.11865 0.0
C926 C 0.03609 0.24257 0.1184 0.0
C927 C 0.03784 0.26743 0.12025 0.0
H928 H 0.41868 0.81044 0.19129 0.0
H929 H 0.4897 0.83944 0.10232 0.0
H930 H 0.52453 0.80053 0.088 0.0
H931 H 0.53348 0.75799 0.09973 0.0
H932 H 0.46497 0.7289 0.18895 0.0
H933 H 0.43227 0.76834 0.20473 0.0
C934 C 0.44221 0.80851 0.16894 0.0
C935 C 0.45059 0.82819 0.14783 0.0
C936 C 0.46309 0.786 0.16096 0.0
C937 C 0.48118 0.82483 0.11885 0.0
C938 C 0.50166 0.8025 0.11068 0.0
C939 C 0.5114 0.76029 0.12265 0.0
C940 C 0.50132 0.74048 0.143 0.0
C941 C 0.49247 0.78294 0.13137 0.0
C942 C 0.4736 0.74385 0.17296 0.0
C943 C 0.45452 0.76637 0.18182 0.0
H944 H 0.43788 0.82681 0.46001 0.0
H945 H 0.57323 0.80024 0.40536 0.0
H946 H 0.5454 0.75948 0.41629 0.0
H947 H 0.48278 0.73098 0.44156 0.0
H948 H 0.34708 0.75725 0.49615 0.0
H949 H 0.37489 0.79812 0.48536 0.0
C950 C 0.46144 0.81209 0.45077 0.0
C951 C 0.5074 0.81672 0.43167 0.0
C952 C 0.44506 0.78847 0.45708 0.0
C953 C 0.53722 0.79733 0.41965 0.0
C954 C 0.52144 0.77392 0.426 0.0
C955 C 0.45896 0.74562 0.45077 0.0
C956 C 0.4129 0.74089 0.46972 0.0
C957 C 0.47524 0.76922 0.4445 0.0
C958 C 0.38305 0.76024 0.48184 0.0
C959 C 0.39885 0.7837 0.4756 0.0
H960 H 0.03534 0.30719 0.43526 0.0
H961 H 0.87714 0.33225 0.45791 0.0
H962 H 0.84229 0.29184 0.45522 0.0
H963 H 0.85819 0.24906 0.45311 0.0
H964 H 0.01471 0.22255 0.43056 0.0
H965 H 0.04894 0.26353 0.42598 0.0
C966 C -0.00684 0.30373 0.43882 0.0
C967 C 0.95895 0.32263 0.44733 0.0
C968 C -0.02675 0.28015 0.43756 0.0
C969 C 0.90432 0.31794 0.45194 0.0
C970 C 0.88434 0.29484 0.45039 0.0
C971 C 0.89955 0.25235 0.44656 0.0
C972 C 0.93398 0.233 0.44231 0.0
C973 C 0.91865 0.27577 0.44431 0.0
C974 C -0.01252 0.23729 0.43368 0.0
C975 C 0.00703 0.26069 0.43136 0.0
H976 H 0.03893 0.84268 0.99166 0.0
H977 H 0.90547 0.83544 0.92545 0.0
H978 H 0.92335 0.79264 0.91974 0.0
H979 H -0.02869 0.75639 0.93944 0.0
H980 H 0.10133 0.76484 1.00808 0.0
H981 H 0.09083 0.80795 1.00708 0.0
C982 C 0.01394 0.83175 0.9758 0.0
C983 C -0.02957 0.8421 0.95944 0.0
C984 C 0.02383 0.8073 0.97331 0.0
C985 C 0.93918 0.82786 0.93831 0.0
C986 C 0.94922 0.80338 0.93527 0.0
C987 C -0.00211 0.76784 0.95349 0.0
C988 C 0.03696 0.75758 0.97394 0.0
C989 C -0.00941 0.79275 0.95343 0.0
C990 C 0.07092 0.77244 0.99238 0.0
C991 C 0.06482 0.79704 0.99185 0.0
H992 H 0.39659 0.25836 0.9284 0.0
H993 H 0.56697 0.25066 0.9352 0.0
H994 H 0.57828 0.2939 0.93222 0.0
H995 H 0.53861 0.33404 0.93327 0.0
H996 H 0.36869 0.3419 0.92393 0.0
H997 H 0.35781 0.29852 0.92181 0.0
C998 C 0.43612 0.26625 0.92874 0.0
C999 C 0.48092 0.25148 0.9323 0.0
C1000 C 0.44219 0.29109 0.92666 0.0
C1001 C 0.53207 0.26172 0.93234 0.0
C1002 C 0.53844 0.28642 0.93084 0.0
C1003 C 0.49941 0.32614 0.93014 0.0
C1004 C 0.45443 0.34098 0.92891 0.0
C1005 C 0.49371 0.30128 0.92878 0.0
C1006 C 0.40376 0.33075 0.92466 0.0
C1007 C 0.3976 0.30599 0.92375 0.0
H1008 H 0.4098 0.2878 0.66104 0.0
H1009 H 0.50762 0.24905 0.59152 0.0
H1010 H 0.54838 0.28617 0.57281 0.0
H1011 H 0.5565 0.32966 0.5763 0.0
H1012 H 0.45652 0.36837 0.64494 0.0
H1013 H 0.41777 0.33128 0.66442 0.0
C1014 C 0.44036 0.28743 0.64202 0.0
C1015 C 0.45546 0.26558 0.62772 0.0
C1016 C 0.46366 0.30888 0.63133 0.0
C1017 C 0.49463 0.26556 0.60268 0.0
C1018 C 0.51823 0.28681 0.59209 0.0
C1019 C 0.52602 0.33009 0.59535 0.0
C1020 C 0.50995 0.35204 0.60906 0.0
C1021 C 0.50296 0.3086 0.60616 0.0
C1022 C 0.47073 0.35195 0.63414 0.0
C1023 C 0.44803 0.33066 0.6452 0.0
H1024 H 0.90854 0.77777 0.58002 0.0
H1025 H -0.01724 0.77029 0.67521 0.0
H1026 H 0.00257 0.81321 0.67666 0.0
H1027 H 0.00783 0.85191 0.64694 0.0
H1028 H 0.93127 0.85829 0.55172 0.0
H1029 H 0.90309 0.81697 0.55406 0.0
C1030 C 0.92775 0.7858 0.60139 0.0
C1031 C 0.94406 0.77122 0.62751 0.0
C1032 C 0.93941 0.81019 0.60168 0.0
C1033 C 0.96938 0.78145 0.65509 0.0
C1034 C -0.01889 0.80586 0.65568 0.0
C1035 C -0.01577 0.84433 0.62704 0.0
C1036 C -0.02683 0.85805 0.59873 0.0
C1037 C 0.96773 0.82032 0.62858 0.0
C1038 C 0.9421 0.84797 0.57324 0.0
C1039 C 0.92551 0.82435 0.57465 0.0
H1040 H 0.90475 0.14151 0.22377 0.0
H1041 H 0.07476 0.13095 0.22213 0.0
H1042 H 0.07676 0.132 0.28299 0.0
H1043 H 0.02785 0.131 0.33633 0.0
H1044 H 0.8583 0.14349 0.33768 0.0
H1045 H 0.85817 0.14687 0.27716 0.0
C1046 C 0.94237 0.14007 0.23684 0.0
C1047 C -0.01043 0.13612 0.21878 0.0
C1048 C 0.94302 0.14072 0.27164 0.0
C1049 C 0.03814 0.13425 0.23567 0.0
C1050 C 0.03911 0.1346 0.2704 0.0
C1051 C -0.00895 0.13478 0.32333 0.0
C1052 C 0.94295 0.13661 0.34126 0.0
C1053 C -0.00849 0.13703 0.28862 0.0
C1054 C 0.8957 0.14194 0.32434 0.0
C1055 C 0.89562 0.14378 0.28977 0.0
H1056 H 0.44967 0.91618 0.23083 0.0
H1057 H 0.42916 0.99223 0.22846 0.0
H1058 H 0.4587 0.99521 0.28607 0.0
H1059 H 0.49039 0.97621 0.33726 0.0
H1060 H 0.514 0.90028 0.33882 0.0
H1061 H 0.48379 0.89733 0.2815 0.0
C1062 C 0.45113 0.93338 0.24303 0.0
C1063 C 0.43659 0.95393 0.22543 0.0
C1064 C 0.46927 0.93502 0.27599 0.0
C1065 C 0.43992 0.97613 0.24143 0.0
C1066 C 0.4569 0.97785 0.27438 0.0
C1067 C 0.48917 0.95901 0.32505 0.0
C1068 C 0.50458 0.93851 0.34251 0.0
C1069 C 0.47182 0.95742 0.29191 0.0
C1070 C 0.50285 0.9164 0.32609 0.0
C1071 C 0.48522 0.91466 0.29328 0.0
H1072 H 0.03729 0.93294 0.83992 0.0
H1073 H 0.86564 0.93083 0.84565 0.0
H1074 H 0.86026 0.93141 0.78498 0.0
H1075 H 0.90451 0.93765 0.7308 0.0
H1076 H 0.0762 0.93787 0.72491 0.0
H1077 H 0.08164 0.93258 0.7851 0.0
C1078 C -0.00126 0.93209 0.82782 0.0
C1079 C 0.95186 0.93205 0.84722 0.0
C1080 C -0.00393 0.93231 0.79295 0.0
C1081 C 0.90222 0.93074 0.83129 0.0
C1082 C 0.89918 0.93129 0.7966 0.0
C1083 C 0.9431 0.93606 0.74267 0.0
C1084 C -0.01004 0.93841 0.72351 0.0
C1085 C 0.94581 0.93284 0.77724 0.0
C1086 C 0.03965 0.93606 0.73908 0.0
C1087 C 0.04271 0.93321 0.77353 0.0
H1088 H 0.55475 0.12753 0.80883 0.0
H1089 H 0.46636 0.18931 0.83992 0.0
H1090 H 0.42165 0.19062 0.78604 0.0
H1091 H 0.40726 0.17392 0.73012 0.0
H1092 H 0.49215 0.11058 0.70079 0.0
H1093 H 0.53781 0.10999 0.75398 0.0
C1094 C 0.5262 0.14145 0.80362 0.0
C1095 C 0.51451 0.15854 0.82805 0.0
C1096 C 0.49939 0.14162 0.77303 0.0
C1097 C 0.47635 0.17609 0.82133 0.0
C1098 C 0.45062 0.17678 0.7906 0.0
C1099 C 0.43548 0.1599 0.73543 0.0
C1100 C 0.44618 0.14236 0.71131 0.0
C1101 C 0.46159 0.15954 0.7663 0.0
C1102 C 0.4828 0.12428 0.71879 0.0
C1103 C 0.5093 0.12398 0.7492 0.0
H1104 H 0.53095 0.64088 0.36125 0.0
H1105 H 0.3613 0.65317 0.3619 0.0
H1106 H 0.36208 0.65721 0.30148 0.0
H1107 H 0.40986 0.65384 0.2481 0.0
H1108 H 0.58022 0.6438 0.24743 0.0
H1109 H 0.58055 0.64261 0.30817 0.0
C1110 C 0.49426 0.64469 0.34816 0.0
C1111 C 0.44597 0.64643 0.36601 0.0
C1112 C 0.49519 0.64734 0.31342 0.0
C1113 C 0.39892 0.65174 0.34878 0.0
C1114 C 0.39934 0.65394 0.3142 0.0
C1115 C 0.44717 0.65175 0.2613 0.0
C1116 C 0.49493 0.64872 0.24328 0.0
C1117 C 0.44704 0.6513 0.29621 0.0
C1118 C 0.54301 0.64628 0.2607 0.0
C1119 C 0.54312 0.64542 0.29543 0.0
H1120 H 0.93276 0.37899 0.32671 0.0
H1121 H 0.06851 0.42578 0.33852 0.0
H1122 H 0.06195 0.43746 0.2806 0.0
H1123 H 0.01621 0.43559 0.22717 0.0
H1124 H 0.88257 0.38796 0.21389 0.0
H1125 H 0.88994 0.37536 0.27182 0.0
C1126 C 0.96114 0.39164 0.31661 0.0
C1127 C 0.00066 0.40171 0.33727 0.0
C1128 C 0.95738 0.39822 0.28304 0.0
C1129 C 0.03733 0.4179 0.3235 0.0
C1130 C 0.03362 0.42462 0.29029 0.0
C1131 C -0.01147 0.42246 0.23689 0.0
C1132 C 0.94842 0.41295 0.2163 0.0
C1133 C -0.00656 0.41514 0.26998 0.0
C1134 C 0.91362 0.39565 0.22922 0.0
C1135 C 0.91784 0.38846 0.26235 0.0
H1136 H 0.53919 0.43677 0.81722 0.0
H1137 H 0.36778 0.44064 0.82093 0.0
H1138 H 0.3645 0.44276 0.76013 0.0
H1139 H 0.41182 0.44788 0.70643 0.0
H1140 H 0.58316 0.44169 0.70327 0.0
H1141 H 0.58527 0.43603 0.76332 0.0
C1142 C 0.50107 0.43746 0.80458 0.0
C1143 C 0.45377 0.43854 0.82333 0.0
C1144 C 0.49968 0.43866 0.76982 0.0
C1145 C 0.40459 0.43948 0.80689 0.0
C1146 C 0.40284 0.44099 0.7722 0.0
C1147 C 0.4495 0.44508 0.71894 0.0
C1148 C 0.4974 0.44559 0.70057 0.0
C1149 C 0.45028 0.44132 0.75347 0.0
C1150 C 0.54586 0.44147 0.71689 0.0
C1151 C 0.54708 0.43828 0.75123 0.0
H1152 H 0.92688 0.64905 0.84672 0.0
H1153 H 0.05902 0.6975 0.86049 0.0
H1154 H 0.04902 0.71146 0.80346 0.0
H1155 H 0.00509 0.70865 0.74891 0.0
H1156 H 0.87275 0.66014 0.73582 0.0
H1157 H 0.88053 0.64759 0.79337 0.0
C1158 C 0.95349 0.66274 0.83738 0.0
C1159 C -0.00606 0.67207 0.85793 0.0
C1160 C 0.94756 0.67065 0.80458 0.0
C1161 C 0.02764 0.68993 0.84531 0.0
C1162 C 0.02198 0.69791 0.81263 0.0
C1163 C -0.02232 0.69544 0.75865 0.0
C1164 C 0.93863 0.68524 0.73777 0.0
C1165 C -0.01758 0.68821 0.79192 0.0
C1166 C 0.90341 0.66822 0.75106 0.0
C1167 C 0.90783 0.661 0.78405 0.0
loop_
_geom_bond_atom_site_label_1
_geom_bond_atom_site_label_2
_geom_bond_distance
_geom_bond_site_symmetry_2
_ccdc_geom_bond_type
C0 C1 1.351 . S
C0 N3 1.368 . S
C0 H5 0.931 . S
C1 C0 1.351 . S
C1 N2 1.373 . S
C1 H29 0.930 . S
N2 C1 1.373 . S
N2 C4 1.340 . S
N3 C0 1.368 . S
N3 C4 1.321 . S
N3 Co6 2.135 . S
C4 N2 1.340 . S
C4 N3 1.321 . S
C4 H28 0.930 . S
H5 C0 0.931 . S
Co6 N3 2.135 . S
Co6 N9 2.121 . S
Co6 O14 2.055 . S
Co6 O17 2.039 . S
Co6 N20 2.140 . S
C7 O8 1.234 . S
C7 O17 1.265 . S
O8 C7 1.234 . S
N9 Co6 2.121 . S
N9 C11 1.375 . S
N9 C12 1.313 . S
C10 C11 1.338 . S
C10 N13 1.377 . S
C10 H30 0.930 . S
C11 N9 1.375 . S
C11 C10 1.338 . S
C11 H15 0.931 . S
C12 N9 1.313 . S
C12 N13 1.344 . S
C12 H16 0.930 . S
N13 C10 1.377 . S
N13 C12 1.344 . S
O14 Co6 2.055 . S
O14 C18 1.253 . S
H15 C11 0.931 . S
H16 C12 0.930 . S
O17 Co6 2.039 . S
O17 C7 1.265 . S
C18 O14 1.253 . S
C18 O19 1.227 . S
O19 C18 1.227 . S
N20 Co6 2.140 . S
N20 C23 1.346 1_455 S
N20 C24 1.345 . S
C21 C22 1.387 . S
C21 C25 1.391 . S
C22 C21 1.387 . S
C22 C23 1.369 . S
C22 H31 0.929 . S
C23 N20 1.346 1_655 S
C23 C22 1.369 . S
C23 H26 0.928 . S
C24 N20 1.345 . S
C24 C25 1.371 1_455 S
C24 H27 0.931 . S
C25 C21 1.391 . S
C25 C24 1.371 1_655 S
C25 H32 0.930 . S
H26 C23 0.928 . S
H27 C24 0.931 . S
H28 C4 0.930 . S
H29 C1 0.930 . S
H30 C10 0.930 . S
H31 C22 0.929 . S
H32 C25 0.930 . S
C33 C34 1.351 . S
C33 N36 1.368 . S
C33 H38 0.931 . S
C34 C33 1.351 . S
C34 N35 1.373 . S
C34 H62 0.930 . S
N35 C34 1.373 . S
N35 C37 1.340 . S
N36 C33 1.368 . S
N36 C37 1.321 . S
N36 Co39 2.135 . S
C37 N35 1.340 . S
C37 N36 1.321 . S
C37 H61 0.930 . S
H38 C33 0.931 . S
Co39 N36 2.135 . S
Co39 N42 2.121 . S
Co39 O47 2.055 . S
Co39 O50 2.039 . S
Co39 N53 2.140 . S
C40 O41 1.227 . S
C40 O50 1.265 . S
O41 C40 1.227 . S
N42 Co39 2.121 . S
N42 C44 1.375 . S
N42 C45 1.313 . S
C43 C44 1.338 . S
C43 N46 1.377 . S
C43 H63 0.930 . S
C44 N42 1.375 . S
C44 C43 1.338 . S
C44 H48 0.931 . S
C45 N42 1.313 . S
C45 N46 1.344 . S
C45 H49 0.930 . S
N46 C43 1.377 . S
N46 C45 1.344 . S
O47 Co39 2.055 . S
O47 C51 1.253 . S
H48 C44 0.931 . S
H49 C45 0.930 . S
O50 Co39 2.039 . S
O50 C40 1.265 . S
C51 O47 1.253 . S
C51 O52 1.227 . S
O52 C51 1.227 . S
N53 Co39 2.140 . S
N53 C56 1.346 . S
N53 C57 1.345 . S
C54 C55 1.387 . S
C54 C58 1.391 . S
C55 C54 1.387 . S
C55 C56 1.369 . S
C55 H64 0.929 . S
C56 N53 1.346 . S
C56 C55 1.369 . S
C56 H59 0.928 . S
C57 N53 1.345 . S
C57 C58 1.371 . S
C57 H60 0.931 . S
C58 C54 1.391 . S
C58 C57 1.371 . S
C58 H65 0.930 . S
H59 C56 0.928 . S
H60 C57 0.931 . S
H61 C37 0.930 . S
H62 C34 0.930 . S
H63 C43 0.930 . S
H64 C55 0.929 . S
H65 C58 0.930 . S
C66 C67 1.351 . S
C66 N69 1.368 . S
C66 H71 0.931 . S
C67 C66 1.351 . S
C67 N68 1.373 . S
C67 H95 0.930 . S
N68 C67 1.373 . S
N68 C70 1.340 . S
N69 C66 1.368 . S
N69 C70 1.321 . S
N69 Co72 2.135 . S
C70 N68 1.340 . S
C70 N69 1.321 . S
C70 H94 0.930 . S
H71 C66 0.931 . S
Co72 N69 2.135 . S
Co72 N75 2.121 . S
Co72 O80 2.055 . S
Co72 O83 2.039 . S
Co72 N86 2.140 . S
C73 O74 1.227 . S
C73 O83 1.265 . S
O74 C73 1.227 . S
N75 Co72 2.121 . S
N75 C77 1.375 . S
N75 C78 1.313 . S
C76 C77 1.338 . S
C76 N79 1.377 . S
C76 H96 0.930 . S
C77 N75 1.375 . S
C77 C76 1.338 . S
C77 H81 0.931 . S
C78 N75 1.313 . S
C78 N79 1.344 . S
C78 H82 0.930 . S
N79 C76 1.377 . S
N79 C78 1.344 . S
O80 Co72 2.055 . S
O80 C84 1.253 . S
H81 C77 0.931 . S
H82 C78 0.930 . S
O83 Co72 2.039 . S
O83 C73 1.265 . S
C84 O80 1.253 . S
C84 O85 1.227 . S
O85 C84 1.227 . S
N86 Co72 2.140 . S
N86 C89 1.346 . S
N86 C90 1.345 . S
C87 C88 1.387 . S
C87 C91 1.391 . S
C88 C87 1.387 . S
C88 C89 1.369 . S
C88 H97 0.929 . S
C89 N86 1.346 . S
C89 C88 1.369 . S
C89 H92 0.928 . S
C90 N86 1.345 . S
C90 C91 1.371 . S
C90 H93 0.931 . S
C91 C87 1.391 . S
C91 C90 1.371 . S
C91 H98 0.930 . S
H92 C89 0.928 . S
H93 C90 0.931 . S
H94 C70 0.930 . S
H95 C67 0.930 . S
H96 C76 0.930 . S
H97 C88 0.929 . S
H98 C91 0.930 . S
C99 C100 1.351 . S
C99 N102 1.368 . S
C99 H104 0.931 . S
C100 C99 1.351 . S
C100 N101 1.373 . S
C100 H128 0.930 . S
N101 C100 1.373 . S
N101 C103 1.340 . S
N102 C99 1.368 . S
N102 C103 1.321 . S
N102 Co105 2.135 . S
C103 N101 1.340 . S
C103 N102 1.321 . S
C103 H127 0.930 . S
H104 C99 0.931 . S
Co105 N102 2.135 . S
Co105 N108 2.121 . S
Co105 O113 2.055 . S
Co105 O116 2.039 . S
Co105 N119 2.140 . S
C106 O107 1.234 . S
C106 O116 1.265 . S
O107 C106 1.234 . S
N108 Co105 2.121 . S
N108 C110 1.375 . S
N108 C111 1.313 . S
C109 C110 1.338 . S
C109 N112 1.377 . S
C109 H129 0.930 . S
C110 N108 1.375 . S
C110 C109 1.338 . S
C110 H114 0.931 . S
C111 N108 1.313 . S
C111 N112 1.344 . S
C111 H115 0.930 . S
N112 C109 1.377 . S
N112 C111 1.344 . S
O113 Co105 2.055 . S
O113 C117 1.253 . S
H114 C110 0.931 . S
H115 C111 0.930 . S
O116 Co105 2.039 . S
O116 C106 1.265 . S
C117 O113 1.253 . S
C117 O118 1.227 . S
O118 C117 1.227 . S
N119 Co105 2.140 . S
N119 C122 1.346 1_655 S
N119 C123 1.345 . S
C120 C121 1.387 . S
C120 C124 1.391 . S
C121 C120 1.387 . S
C121 C122 1.369 . S
C121 H130 0.929 . S
C122 N119 1.346 1_455 S
C122 C121 1.369 . S
C122 H125 0.928 . S
C123 N119 1.345 . S
C123 C124 1.371 1_655 S
C123 H126 0.931 . S
C124 C120 1.391 . S
C124 C123 1.371 1_455 S
C124 H131 0.930 . S
H125 C122 0.928 . S
H126 C123 0.931 . S
H127 C103 0.930 . S
H128 C100 0.930 . S
H129 C109 0.930 . S
H130 C121 0.929 . S
H131 C124 0.930 . S
C132 C133 1.351 . S
C132 N135 1.368 . S
C132 H137 0.931 . S
C133 C132 1.351 . S
C133 N134 1.373 . S
C133 H161 0.930 . S
N134 C133 1.373 . S
N134 C136 1.340 . S
N135 C132 1.368 . S
N135 C136 1.321 . S
N135 Co138 2.135 . S
C136 N134 1.340 . S
C136 N135 1.321 . S
C136 H160 0.930 . S
H137 C132 0.931 . S
Co138 N135 2.135 . S
Co138 N141 2.121 . S
Co138 O146 2.055 . S
Co138 O149 2.039 . S
Co138 N152 2.140 . S
C139 O140 1.234 . S
C139 O149 1.265 . S
O140 C139 1.234 . S
N141 Co138 2.121 . S
N141 C143 1.375 . S
N141 C144 1.313 . S
C142 C143 1.338 . S
C142 N145 1.377 . S
C142 H162 0.930 . S
C143 N141 1.375 . S
C143 C142 1.338 . S
C143 H147 0.931 . S
C144 N141 1.313 . S
C144 N145 1.344 . S
C144 H148 0.930 . S
N145 C142 1.377 . S
N145 C144 1.344 . S
O146 Co138 2.055 . S
O146 C150 1.253 . S
H147 C143 0.931 . S
H148 C144 0.930 . S
O149 Co138 2.039 . S
O149 C139 1.265 . S
C150 O146 1.253 . S
C150 O151 1.227 . S
O151 C150 1.227 . S
N152 Co138 2.140 . S
N152 C155 1.346 1_655 S
N152 C156 1.345 . S
C153 C154 1.387 . S
C153 C157 1.391 . S
C154 C153 1.387 . S
C154 C155 1.369 . S
C154 H163 0.929 . S
C155 N152 1.346 1_455 S
C155 C154 1.369 . S
C155 H158 0.928 . S
C156 N152 1.345 . S
C156 C157 1.371 1_655 S
C156 H159 0.931 . S
C157 C153 1.391 . S
C157 C156 1.371 1_455 S
C157 H164 0.930 . S
H158 C155 0.928 . S
H159 C156 0.931 . S
H160 C136 0.930 . S
H161 C133 0.930 . S
H162 C142 0.930 . S
H163 C154 0.929 . S
H164 C157 0.930 . S
C165 C166 1.351 . S
C165 N168 1.368 . S
C165 H170 0.931 . S
C166 C165 1.351 . S
C166 N167 1.373 . S
C166 H194 0.930 . S
N167 C166 1.373 . S
N167 C169 1.340 . S
N168 C165 1.368 . S
N168 C169 1.321 . S
N168 Co171 2.135 . S
C169 N167 1.340 . S
C169 N168 1.321 . S
C169 H193 0.930 . S
H170 C165 0.931 . S
Co171 N168 2.135 . S
Co171 N174 2.121 . S
Co171 O179 2.055 . S
Co171 O182 2.039 . S
Co171 N185 2.140 . S
C172 O173 1.227 . S
C172 O182 1.265 . S
O173 C172 1.227 . S
N174 Co171 2.121 . S
N174 C176 1.375 . S
N174 C177 1.313 . S
C175 C176 1.338 . S
C175 N178 1.377 . S
C175 H195 0.930 . S
C176 N174 1.375 . S
C176 C175 1.338 . S
C176 H180 0.931 . S
C177 N174 1.313 . S
C177 N178 1.344 . S
C177 H181 0.930 . S
N178 C175 1.377 . S
N178 C177 1.344 . S
O179 Co171 2.055 . S
O179 C183 1.253 . S
H180 C176 0.931 . S
H181 C177 0.930 . S
O182 Co171 2.039 . S
O182 C172 1.265 . S
C183 O179 1.253 . S
C183 O184 1.227 . S
O184 C183 1.227 . S
N185 Co171 2.140 . S
N185 C188 1.346 . S
N185 C189 1.345 . S
C186 C187 1.387 . S
C186 C190 1.391 . S
C187 C186 1.387 . S
C187 C188 1.369 . S
C187 H196 0.929 . S
C188 N185 1.346 . S
C188 C187 1.369 . S
C188 H191 0.928 . S
C189 N185 1.345 . S
C189 C190 1.371 . S
C189 H192 0.931 . S
C190 C186 1.391 . S
C190 C189 1.371 . S
C190 H197 0.930 . S
H191 C188 0.928 . S
H192 C189 0.931 . S
H193 C169 0.930 . S
H194 C166 0.930 . S
H195 C175 0.930 . S
H196 C187 0.929 . S
H197 C190 0.930 . S
C198 C199 1.351 . S
C198 N201 1.368 . S
C198 H203 0.931 . S
C199 C198 1.351 . S
C199 N200 1.373 . S
C199 H227 0.930 . S
N200 C199 1.373 . S
N200 C202 1.340 . S
N201 C198 1.368 . S
N201 C202 1.321 . S
N201 Co204 2.135 . S
C202 N200 1.340 . S
C202 N201 1.321 . S
C202 H226 0.930 . S
H203 C198 0.931 . S
Co204 N201 2.135 . S
Co204 N207 2.121 . S
Co204 O212 2.055 . S
Co204 O215 2.039 . S
Co204 N218 2.140 . S
C205 O206 1.227 . S
C205 O215 1.265 . S
O206 C205 1.227 . S
N207 Co204 2.121 . S
N207 C209 1.375 . S
N207 C210 1.313 . S
C208 C209 1.338 . S
C208 N211 1.377 . S
C208 H228 0.930 . S
C209 N207 1.375 . S
C209 C208 1.338 . S
C209 H213 0.931 . S
C210 N207 1.313 . S
C210 N211 1.344 . S
C210 H214 0.930 . S
N211 C208 1.377 . S
N211 C210 1.344 . S
O212 Co204 2.055 . S
O212 C216 1.253 . S
H213 C209 0.931 . S
H214 C210 0.930 . S
O215 Co204 2.039 . S
O215 C205 1.265 . S
C216 O212 1.253 . S
C216 O217 1.227 . S
O217 C216 1.227 . S
N218 Co204 2.140 . S
N218 C221 1.346 . S
N218 C222 1.345 . S
C219 C220 1.387 . S
C219 C223 1.391 . S
C220 C219 1.387 . S
C220 C221 1.369 . S
C220 H229 0.929 . S
C221 N218 1.346 . S
C221 C220 1.369 . S
C221 H224 0.928 . S
C222 N218 1.345 . S
C222 C223 1.371 . S
C222 H225 0.931 . S
C223 C219 1.391 . S
C223 C222 1.371 . S
C223 H230 0.930 . S
H224 C221 0.928 . S
H225 C222 0.931 . S
H226 C202 0.930 . S
H227 C199 0.930 . S
H228 C208 0.930 . S
H229 C220 0.929 . S
H230 C223 0.930 . S
C231 C232 1.351 . S
C231 N234 1.368 . S
C231 H236 0.931 . S
C232 C231 1.351 . S
C232 N233 1.373 . S
C232 H260 0.930 . S
N233 C232 1.373 . S
N233 C235 1.340 . S
N234 C231 1.368 . S
N234 C235 1.321 . S
N234 Co237 2.135 . S
C235 N233 1.340 . S
C235 N234 1.321 . S
C235 H259 0.930 . S
H236 C231 0.931 . S
Co237 N234 2.135 . S
Co237 N240 2.121 . S
Co237 O245 2.055 . S
Co237 O248 2.039 . S
Co237 N251 2.140 . S
C238 O239 1.234 . S
C238 O248 1.265 . S
O239 C238 1.234 . S
N240 Co237 2.121 . S
N240 C242 1.375 . S
N240 C243 1.313 . S
C241 C242 1.338 . S
C241 N244 1.377 . S
C241 H261 0.930 . S
C242 N240 1.375 . S
C242 C241 1.338 . S
C242 H246 0.931 . S
C243 N240 1.313 . S
C243 N244 1.344 . S
C243 H247 0.930 . S
N244 C241 1.377 . S
N244 C243 1.344 . S
O245 Co237 2.055 . S
O245 C249 1.253 . S
H246 C242 0.931 . S
H247 C243 0.930 . S
O248 Co237 2.039 . S
O248 C238 1.265 . S
C249 O245 1.253 . S
C249 O250 1.227 . S
O250 C249 1.227 . S
N251 Co237 2.140 . S
N251 C254 1.346 1_455 S
N251 C255 1.345 . S
C252 C253 1.387 . S
C252 C256 1.391 . S
C253 C252 1.387 . S
C253 C254 1.369 . S
C253 H262 0.929 . S
C254 N251 1.346 1_655 S
C254 C253 1.369 . S
C254 H257 0.928 . S
C255 N251 1.345 . S
C255 C256 1.371 1_455 S
C255 H258 0.931 . S
C256 C252 1.391 . S
C256 C255 1.371 1_655 S
C256 H263 0.930 . S
H257 C254 0.928 . S
H258 C255 0.931 . S
H259 C235 0.930 . S
H260 C232 0.930 . S
H261 C241 0.930 . S
H262 C253 0.929 . S
H263 C256 0.930 . S
C264 C265 1.351 . S
C264 N267 1.368 . S
C264 H269 0.931 . S
C265 C264 1.351 . S
C265 N266 1.373 . S
C265 H293 0.930 . S
N266 C265 1.373 . S
N266 C268 1.340 . S
N267 C264 1.368 . S
N267 C268 1.321 . S
N267 Co270 2.135 . S
C268 N266 1.340 . S
C268 N267 1.321 . S
C268 H292 0.930 . S
H269 C264 0.931 . S
Co270 N267 2.135 . S
Co270 N273 2.121 . S
Co270 O278 2.055 . S
Co270 O281 2.039 . S
Co270 N284 2.140 . S
C271 O272 1.227 . S
C271 O281 1.265 . S
O272 C271 1.227 . S
N273 Co270 2.121 . S
N273 C275 1.375 . S
N273 C276 1.313 . S
C274 C275 1.338 . S
C274 N277 1.377 . S
C274 H294 0.930 . S
C275 N273 1.375 . S
C275 C274 1.338 . S
C275 H279 0.931 . S
C276 N273 1.313 . S
C276 N277 1.344 . S
C276 H280 0.930 . S
N277 C274 1.377 . S
N277 C276 1.344 . S
O278 Co270 2.055 . S
O278 C282 1.253 . S
H279 C275 0.931 . S
H280 C276 0.930 . S
O281 Co270 2.039 . S
O281 C271 1.265 . S
C282 O278 1.253 . S
C282 O283 1.227 . S
O283 C282 1.227 . S
N284 Co270 2.140 . S
N284 C287 1.346 . S
N284 C288 1.345 . S
C285 C286 1.387 . S
C285 C289 1.391 . S
C286 C285 1.387 . S
C286 C287 1.369 . S
C286 H295 0.929 . S
C287 N284 1.346 . S
C287 C286 1.369 . S
C287 H290 0.928 . S
C288 N284 1.345 . S
C288 C289 1.371 . S
C288 H291 0.931 . S
C289 C285 1.391 . S
C289 C288 1.371 . S
C289 H296 0.930 . S
H290 C287 0.928 . S
H291 C288 0.931 . S
H292 C268 0.930 . S
H293 C265 0.930 . S
H294 C274 0.930 . S
H295 C286 0.929 . S
H296 C289 0.930 . S
C297 C298 1.351 . S
C297 N300 1.368 . S
C297 H302 0.931 . S
C298 C297 1.351 . S
C298 N299 1.373 . S
C298 H326 0.930 . S
N299 C298 1.373 . S
N299 C301 1.340 . S
N300 C297 1.368 . S
N300 C301 1.321 . S
N300 Co303 2.135 . S
C301 N299 1.340 . S
C301 N300 1.321 . S
C301 H325 0.930 . S
H302 C297 0.931 . S
Co303 N300 2.135 . S
Co303 N306 2.121 . S
Co303 O311 2.055 . S
Co303 O314 2.039 . S
Co303 N317 2.140 . S
C304 O305 1.234 . S
C304 O314 1.265 . S
O305 C304 1.234 . S
N306 Co303 2.121 . S
N306 C308 1.375 . S
N306 C309 1.313 . S
C307 C308 1.338 . S
C307 N310 1.377 . S
C307 H327 0.930 . S
C308 N306 1.375 . S
C308 C307 1.338 . S
C308 H312 0.931 . S
C309 N306 1.313 . S
C309 N310 1.344 . S
C309 H313 0.930 . S
N310 C307 1.377 . S
N310 C309 1.344 . S
O311 Co303 2.055 . S
O311 C315 1.253 . S
H312 C308 0.931 . S
H313 C309 0.930 . S
O314 Co303 2.039 . S
O314 C304 1.265 . S
C315 O311 1.253 . S
C315 O316 1.227 . S
O316 C315 1.227 . S
N317 Co303 2.140 . S
N317 C320 1.346 1_655 S
N317 C321 1.345 . S
C318 C319 1.387 . S
C318 C322 1.391 . S
C319 C318 1.387 . S
C319 C320 1.369 . S
C319 H328 0.929 . S
C320 N317 1.346 1_455 S
C320 C319 1.369 . S
C320 H323 0.928 . S
C321 N317 1.345 . S
C321 C322 1.371 1_655 S
C321 H324 0.931 . S
C322 C318 1.391 . S
C322 C321 1.371 1_455 S
C322 H329 0.930 . S
H323 C320 0.928 . S
H324 C321 0.931 . S
H325 C301 0.930 . S
H326 C298 0.930 . S
H327 C307 0.930 . S
H328 C319 0.929 . S
H329 C322 0.930 . S
C330 C331 1.351 . S
C330 N333 1.368 . S
C330 H335 0.931 . S
C331 C330 1.351 . S
C331 N332 1.373 . S
C331 H359 0.930 . S
N332 C331 1.373 . S
N332 C334 1.340 . S
N333 C330 1.368 . S
N333 C334 1.321 . S
N333 Co336 2.135 . S
C334 N332 1.340 . S
C334 N333 1.321 . S
C334 H358 0.930 . S
H335 C330 0.931 . S
Co336 N333 2.135 . S
Co336 N339 2.121 . S
Co336 O344 2.055 . S
Co336 O347 2.039 . S
Co336 N350 2.140 . S
C337 O338 1.234 . S
C337 O347 1.265 . S
O338 C337 1.234 . S
N339 Co336 2.121 . S
N339 C341 1.375 . S
N339 C342 1.313 . S
C340 C341 1.338 . S
C340 N343 1.377 . S
C340 H360 0.930 . S
C341 N339 1.375 . S
C341 C340 1.338 . S
C341 H345 0.931 . S
C342 N339 1.313 . S
C342 N343 1.344 . S
C342 H346 0.930 . S
N343 C340 1.377 . S
N343 C342 1.344 . S
O344 Co336 2.055 . S
O344 C348 1.253 . S
H345 C341 0.931 . S
H346 C342 0.930 . S
O347 Co336 2.039 . S
O347 C337 1.265 . S
C348 O344 1.253 . S
C348 O349 1.227 . S
O349 C348 1.227 . S
N350 Co336 2.140 . S
N350 C353 1.346 1_455 S
N350 C354 1.345 . S
C351 C352 1.387 . S
C351 C355 1.391 . S
C352 C351 1.387 . S
C352 C353 1.369 . S
C352 H361 0.929 . S
C353 N350 1.346 1_655 S
C353 C352 1.369 . S
C353 H356 0.928 . S
C354 N350 1.345 . S
C354 C355 1.371 1_455 S
C354 H357 0.931 . S
C355 C351 1.391 . S
C355 C354 1.371 1_655 S
C355 H362 0.930 . S
H356 C353 0.928 . S
H357 C354 0.931 . S
H358 C334 0.930 . S
H359 C331 0.930 . S
H360 C340 0.930 . S
H361 C352 0.929 . S
H362 C355 0.930 . S
C363 C364 1.351 . S
C363 N366 1.368 . S
C363 H368 0.931 . S
C364 C363 1.351 . S
C364 N365 1.373 . S
C364 H392 0.930 . S
N365 C364 1.373 . S
N365 C367 1.340 . S
N366 C363 1.368 . S
N366 C367 1.321 . S
N366 Co369 2.135 . S
C367 N365 1.340 . S
C367 N366 1.321 . S
C367 H391 0.930 . S
H368 C363 0.931 . S
Co369 N366 2.135 . S
Co369 N372 2.121 . S
Co369 O377 2.055 . S
Co369 O380 2.039 . S
Co369 N383 2.140 . S
C370 O371 1.227 . S
C370 O380 1.265 . S
O371 C370 1.227 . S
N372 Co369 2.121 . S
N372 C374 1.375 . S
N372 C375 1.313 . S
C373 C374 1.338 . S
C373 N376 1.377 . S
C373 H393 0.930 . S
C374 N372 1.375 . S
C374 C373 1.338 . S
C374 H378 0.931 . S
C375 N372 1.313 . S
C375 N376 1.344 . S
C375 H379 0.930 . S
N376 C373 1.377 . S
N376 C375 1.344 . S
O377 Co369 2.055 . S
O377 C381 1.253 . S
H378 C374 0.931 . S
H379 C375 0.930 . S
O380 Co369 2.039 . S
O380 C370 1.265 . S
C381 O377 1.253 . S
C381 O382 1.227 . S
O382 C381 1.227 . S
N383 Co369 2.140 . S
N383 C386 1.346 . S
N383 C387 1.345 . S
C384 C385 1.387 . S
C384 C388 1.391 . S
C385 C384 1.387 . S
C385 C386 1.369 . S
C385 H394 0.929 . S
C386 N383 1.346 . S
C386 C385 1.369 . S
C386 H389 0.928 . S
C387 N383 1.345 . S
C387 C388 1.371 . S
C387 H390 0.931 . S
C388 C384 1.391 . S
C388 C387 1.371 . S
C388 H395 0.930 . S
H389 C386 0.928 . S
H390 C387 0.931 . S
H391 C367 0.930 . S
H392 C364 0.930 . S
H393 C373 0.930 . S
H394 C385 0.929 . S
H395 C388 0.930 . S
C396 C397 1.351 . S
C396 N399 1.368 . S
C396 H401 0.931 . S
C397 C396 1.351 . S
C397 N398 1.373 . S
C397 H425 0.930 . S
N398 C397 1.373 . S
N398 C400 1.340 . S
N399 C396 1.368 . S
N399 C400 1.321 . S
N399 Co402 2.135 . S
C400 N398 1.340 . S
C400 N399 1.321 . S
C400 H424 0.930 . S
H401 C396 0.931 . S
Co402 N399 2.135 . S
Co402 N405 2.121 . S
Co402 O410 2.055 . S
Co402 O413 2.039 . S
Co402 N416 2.140 . S
C403 O404 1.227 . S
C403 O413 1.265 . S
O404 C403 1.227 . S
N405 Co402 2.121 . S
N405 C407 1.375 . S
N405 C408 1.313 . S
C406 C407 1.338 . S
C406 N409 1.377 . S
C406 H426 0.930 . S
C407 N405 1.375 . S
C407 C406 1.338 . S
C407 H411 0.931 . S
C408 N405 1.313 . S
C408 N409 1.344 . S
C408 H412 0.930 . S
N409 C406 1.377 . S
N409 C408 1.344 . S
O410 Co402 2.055 . S
O410 C414 1.253 . S
H411 C407 0.931 . S
H412 C408 0.930 . S
O413 Co402 2.039 . S
O413 C403 1.265 . S
C414 O410 1.253 . S
C414 O415 1.227 . S
O415 C414 1.227 . S
N416 Co402 2.140 . S
N416 C419 1.346 . S
N416 C420 1.345 . S
C417 C418 1.387 . S
C417 C421 1.391 . S
C418 C417 1.387 . S
C418 C419 1.369 . S
C418 H427 0.929 . S
C419 N416 1.346 . S
C419 C418 1.369 . S
C419 H422 0.928 . S
C420 N416 1.345 . S
C420 C421 1.371 . S
C420 H423 0.931 . S
C421 C417 1.391 . S
C421 C420 1.371 . S
C421 H428 0.930 . S
H422 C419 0.928 . S
H423 C420 0.931 . S
H424 C400 0.930 . S
H425 C397 0.930 . S
H426 C406 0.930 . S
H427 C418 0.929 . S
H428 C421 0.930 . S
C429 C430 1.351 . S
C429 N432 1.368 . S
C429 H434 0.931 . S
C430 C429 1.351 . S
C430 N431 1.373 . S
C430 H458 0.930 . S
N431 C430 1.373 . S
N431 C433 1.340 . S
N432 C429 1.368 . S
N432 C433 1.321 . S
N432 Co435 2.135 . S
C433 N431 1.340 . S
C433 N432 1.321 . S
C433 H457 0.930 . S
H434 C429 0.931 . S
Co435 N432 2.135 . S
Co435 N438 2.121 . S
Co435 O443 2.055 . S
Co435 O446 2.039 . S
Co435 N449 2.140 . S
C436 O437 1.234 . S
C436 O446 1.265 . S
O437 C436 1.234 . S
N438 Co435 2.121 . S
N438 C440 1.375 . S
N438 C441 1.313 . S
C439 C440 1.338 . S
C439 N442 1.377 . S
C439 H459 0.930 . S
C440 N438 1.375 . S
C440 C439 1.338 . S
C440 H444 0.931 . S
C441 N438 1.313 . S
C441 N442 1.344 . S
C441 H445 0.930 . S
N442 C439 1.377 . S
N442 C441 1.344 . S
O443 Co435 2.055 . S
O443 C447 1.253 . S
H444 C440 0.931 . S
H445 C441 0.930 . S
O446 Co435 2.039 . S
O446 C436 1.265 . S
C447 O443 1.253 . S
C447 O448 1.227 . S
O448 C447 1.227 . S
N449 Co435 2.140 . S
N449 C452 1.346 1_455 S
N449 C453 1.345 . S
C450 C451 1.387 . S
C450 C454 1.391 . S
C451 C450 1.387 . S
C451 C452 1.369 . S
C451 H460 0.929 . S
C452 N449 1.346 1_655 S
C452 C451 1.369 . S
C452 H455 0.928 . S
C453 N449 1.345 . S
C453 C454 1.371 1_455 S
C453 H456 0.931 . S
C454 C450 1.391 . S
C454 C453 1.371 1_655 S
C454 H461 0.930 . S
H455 C452 0.928 . S
H456 C453 0.931 . S
H457 C433 0.930 . S
H458 C430 0.930 . S
H459 C439 0.930 . S
H460 C451 0.929 . S
H461 C454 0.930 . S
C462 C463 1.351 . S
C462 N465 1.368 . S
C462 H467 0.931 . S
C463 C462 1.351 . S
C463 N464 1.373 . S
C463 H491 0.930 . S
N464 C463 1.373 . S
N464 C466 1.340 . S
N465 C462 1.368 . S
N465 C466 1.321 . S
N465 Co468 2.135 . S
C466 N464 1.340 . S
C466 N465 1.321 . S
C466 H490 0.930 . S
H467 C462 0.931 . S
Co468 N465 2.135 . S
Co468 N471 2.121 . S
Co468 O476 2.055 . S
Co468 O479 2.039 . S
Co468 N482 2.140 . S
C469 O470 1.234 . S
C469 O479 1.265 . S
O470 C469 1.234 . S
N471 Co468 2.121 . S
N471 C473 1.375 . S
N471 C474 1.313 . S
C472 C473 1.338 . S
C472 N475 1.377 . S
C472 H492 0.930 . S
C473 N471 1.375 . S
C473 C472 1.338 . S
C473 H477 0.931 . S
C474 N471 1.313 . S
C474 N475 1.344 . S
C474 H478 0.930 . S
N475 C472 1.377 . S
N475 C474 1.344 . S
O476 Co468 2.055 . S
O476 C480 1.253 . S
H477 C473 0.931 . S
H478 C474 0.930 . S
O479 Co468 2.039 . S
O479 C469 1.265 . S
C480 O476 1.253 . S
C480 O481 1.227 . S
O481 C480 1.227 . S
N482 Co468 2.140 . S
N482 C485 1.346 1_655 S
N482 C486 1.345 . S
C483 C484 1.387 . S
C483 C487 1.391 . S
C484 C483 1.387 . S
C484 C485 1.369 . S
C484 H493 0.929 . S
C485 N482 1.346 1_455 S
C485 C484 1.369 . S
C485 H488 0.928 . S
C486 N482 1.345 . S
C486 C487 1.371 1_655 S
C486 H489 0.931 . S
C487 C483 1.391 . S
C487 C486 1.371 1_455 S
C487 H494 0.930 . S
H488 C485 0.928 . S
H489 C486 0.931 . S
H490 C466 0.930 . S
H491 C463 0.930 . S
H492 C472 0.930 . S
H493 C484 0.929 . S
H494 C487 0.930 . S
C495 C496 1.351 . S
C495 N498 1.368 . S
C495 H500 0.931 . S
C496 C495 1.351 . S
C496 N497 1.373 . S
C496 H524 0.930 . S
N497 C496 1.373 . S
N497 C499 1.340 . S
N498 C495 1.368 . S
N498 C499 1.321 . S
N498 Co501 2.135 . S
C499 N497 1.340 . S
C499 N498 1.321 . S
C499 H523 0.930 . S
H500 C495 0.931 . S
Co501 N498 2.135 . S
Co501 N504 2.121 . S
Co501 O509 2.055 . S
Co501 O512 2.039 . S
Co501 N515 2.140 . S
C502 O503 1.227 . S
C502 O512 1.265 . S
O503 C502 1.227 . S
N504 Co501 2.121 . S
N504 C506 1.375 . S
N504 C507 1.313 . S
C505 C506 1.338 . S
C505 N508 1.377 . S
C505 H525 0.930 . S
C506 N504 1.375 . S
C506 C505 1.338 . S
C506 H510 0.931 . S
C507 N504 1.313 . S
C507 N508 1.344 . S
C507 H511 0.930 . S
N508 C505 1.377 . S
N508 C507 1.344 . S
O509 Co501 2.055 . S
O509 C513 1.253 . S
H510 C506 0.931 . S
H511 C507 0.930 . S
O512 Co501 2.039 . S
O512 C502 1.265 . S
C513 O509 1.253 . S
C513 O514 1.227 . S
O514 C513 1.227 . S
N515 Co501 2.140 . S
N515 C518 1.346 . S
N515 C519 1.345 . S
C516 C517 1.387 . S
C516 C520 1.391 . S
C517 C516 1.387 . S
C517 C518 1.369 . S
C517 H526 0.929 . S
C518 N515 1.346 . S
C518 C517 1.369 . S
C518 H521 0.928 . S
C519 N515 1.345 . S
C519 C520 1.371 . S
C519 H522 0.931 . S
C520 C516 1.391 . S
C520 C519 1.371 . S
C520 H527 0.930 . S
H521 C518 0.928 . S
H522 C519 0.931 . S
H523 C499 0.930 . S
H524 C496 0.930 . S
H525 C505 0.930 . S
H526 C517 0.929 . S
H527 C520 0.930 . S
H528 C534 0.930 . S
H529 C537 0.930 . S
H530 C538 0.930 . S
H531 C539 0.930 . S
H532 C542 0.930 . S
H533 C543 0.930 . S
C534 H528 0.930 . S
C534 C535 1.355 1_554 S
C534 C536 1.415 . S
C535 C534 1.355 1_556 S
C535 C537 1.419 . S
C536 C534 1.415 . S
C536 C541 1.425 . S
C536 C543 1.409 . S
C537 H529 0.930 . S
C537 C535 1.419 . S
C537 C538 1.362 . S
C538 H530 0.930 . S
C538 C537 1.362 . S
C538 C541 1.409 1_556 S
C539 H531 0.930 . S
C539 C540 1.355 . S
C539 C541 1.415 . S
C540 C539 1.355 . S
C540 C542 1.419 . S
C541 C536 1.425 . S
C541 C538 1.409 1_554 S
C541 C539 1.415 . S
C542 H532 0.930 . S
C542 C540 1.419 . S
C542 C543 1.362 . S
C543 H533 0.930 . S
C543 C536 1.409 . S
C543 C542 1.362 . S
H544 C550 0.930 1_554 S
H545 C553 0.930 . S
H546 C554 0.930 . S
H547 C555 0.930 . S
H548 C558 0.930 . S
H549 C559 0.930 . S
C550 H544 0.930 1_556 S
C550 C551 1.355 . S
C550 C552 1.415 1_556 S
C551 C550 1.355 . S
C551 C553 1.419 . S
C552 C550 1.415 1_554 S
C552 C557 1.425 . S
C552 C559 1.409 . S
C553 H545 0.930 . S
C553 C551 1.419 . S
C553 C554 1.362 . S
C554 H546 0.930 . S
C554 C553 1.362 . S
C554 C557 1.409 1_556 S
C555 H547 0.930 . S
C555 C556 1.355 . S
C555 C557 1.415 . S
C556 C555 1.355 . S
C556 C558 1.419 . S
C557 C552 1.425 . S
C557 C554 1.409 1_554 S
C557 C555 1.415 . S
C558 H548 0.930 . S
C558 C556 1.419 . S
C558 C559 1.362 . S
C559 H549 0.930 . S
C559 C552 1.409 . S
C559 C558 1.362 . S
H560 C566 0.930 . S
H561 C569 0.930 . S
H562 C570 0.930 . S
H563 C571 0.930 . S
H564 C574 0.930 . S
H565 C575 0.930 . S
C566 H560 0.930 . S
C566 C567 1.355 . S
C566 C568 1.415 . S
C567 C566 1.355 . S
C567 C569 1.419 . S
C568 C566 1.415 . S
C568 C573 1.425 . S
C568 C575 1.409 . S
C569 H561 0.930 . S
C569 C567 1.419 . S
C569 C570 1.362 . S
C570 H562 0.930 . S
C570 C569 1.362 . S
C570 C573 1.409 . S
C571 H563 0.930 . S
C571 C572 1.355 . S
C571 C573 1.415 . S
C572 C571 1.355 . S
C572 C574 1.419 . S
C573 C568 1.425 . S
C573 C570 1.409 . S
C573 C571 1.415 . S
C574 H564 0.930 . S
C574 C572 1.419 . S
C574 C575 1.362 . S
C575 H565 0.930 . S
C575 C568 1.409 . S
C575 C574 1.362 . S
H576 C582 0.930 . S
H577 C585 0.930 . S
H578 C586 0.930 . S
H579 C587 0.930 . S
H580 C590 0.930 . S
H581 C591 0.930 . S
C582 H576 0.930 . S
C582 C583 1.355 . S
C582 C584 1.415 . S
C583 C582 1.355 . S
C583 C585 1.419 . S
C584 C582 1.415 . S
C584 C589 1.425 . S
C584 C591 1.409 . S
C585 H577 0.930 . S
C585 C583 1.419 . S
C585 C586 1.362 . S
C586 H578 0.930 . S
C586 C585 1.362 . S
C586 C589 1.409 . S
C587 H579 0.930 . S
C587 C588 1.355 . S
C587 C589 1.415 . S
C588 C587 1.355 . S
C588 C590 1.419 . S
C589 C584 1.425 . S
C589 C586 1.409 . S
C589 C587 1.415 . S
C590 H580 0.930 . S
C590 C588 1.419 . S
C590 C591 1.362 . S
C591 H581 0.930 . S
C591 C584 1.409 . S
C591 C590 1.362 . S
H592 C598 0.930 . S
H593 C601 0.930 . S
H594 C602 0.936 . S
H595 C603 0.930 . S
H596 C606 0.930 . S
H597 C607 0.930 . S
C598 H592 0.930 . S
C598 C599 1.355 . S
C598 C600 1.415 . S
C599 C598 1.355 . S
C599 C601 1.419 . S
C600 C598 1.415 . S
C600 C605 1.425 . S
C600 C607 1.409 . S
C601 H593 0.930 . S
C601 C599 1.419 . S
C601 C602 1.362 . S
C602 H594 0.936 . S
C602 C601 1.362 . S
C602 C605 1.409 . S
C603 H595 0.930 . S
C603 C604 1.355 . S
C603 C605 1.415 1_554 S
C604 C603 1.355 . S
C604 C606 1.419 . S
C605 C600 1.425 . S
C605 C602 1.409 . S
C605 C603 1.415 1_556 S
C606 H596 0.930 . S
C606 C604 1.419 . S
C606 C607 1.362 1_554 S
C607 H597 0.930 . S
C607 C600 1.409 . S
C607 C606 1.362 1_556 S
H608 C614 0.930 . S
H609 C617 0.930 . S
H610 C618 0.930 . S
H611 C619 0.930 . S
H612 C622 0.930 . S
H613 C623 0.930 . S
C614 H608 0.930 . S
C614 C615 1.355 . S
C614 C616 1.415 . S
C615 C614 1.355 . S
C615 C617 1.419 . S
C616 C614 1.415 . S
C616 C621 1.425 1_556 S
C616 C623 1.409 . S
C617 H609 0.930 . S
C617 C615 1.419 . S
C617 C618 1.362 1_556 S
C618 H610 0.930 . S
C618 C617 1.362 1_554 S
C618 C621 1.409 . S
C619 H611 0.930 . S
C619 C620 1.355 . S
C619 C621 1.415 . S
C620 C619 1.355 . S
C620 C622 1.419 1_554 S
C621 C616 1.425 1_554 S
C621 C618 1.409 . S
C621 C619 1.415 . S
C622 H612 0.930 . S
C622 C620 1.419 1_556 S
C622 C623 1.362 . S
C623 H613 0.930 . S
C623 C616 1.409 . S
C623 C622 1.362 . S
H624 C630 0.930 . S
H625 C633 0.930 . S
H626 C634 0.930 . S
H627 C635 0.930 . S
H628 C638 0.930 . S
H629 C639 0.930 . S
C630 H624 0.930 . S
C630 C631 1.355 . S
C630 C632 1.415 . S
C631 C630 1.355 . S
C631 C633 1.419 . S
C632 C630 1.415 . S
C632 C637 1.425 . S
C632 C639 1.409 . S
C633 H625 0.930 . S
C633 C631 1.419 . S
C633 C634 1.362 . S
C634 H626 0.930 . S
C634 C633 1.362 . S
C634 C637 1.409 . S
C635 H627 0.930 . S
C635 C636 1.355 . S
C635 C637 1.415 . S
C636 C635 1.355 . S
C636 C638 1.419 . S
C637 C632 1.425 . S
C637 C634 1.409 . S
C637 C635 1.415 . S
C638 H628 0.930 . S
C638 C636 1.419 . S
C638 C639 1.362 . S
C639 H629 0.930 . S
C639 C632 1.409 . S
C639 C638 1.362 . S
H640 C646 0.930 . S
H641 C649 0.930 . S
H642 C650 0.930 . S
H643 C651 0.930 . S
H644 C654 0.930 . S
H645 C655 0.930 . S
C646 H640 0.930 . S
C646 C647 1.355 . S
C646 C648 1.415 . S
C647 C646 1.355 . S
C647 C649 1.419 . S
C648 C646 1.415 . S
C648 C653 1.425 . S
C648 C655 1.409 . S
C649 H641 0.930 . S
C649 C647 1.419 . S
C649 C650 1.362 . S
C650 H642 0.930 . S
C650 C649 1.362 . S
C650 C653 1.409 . S
C651 H643 0.930 . S
C651 C652 1.355 . S
C651 C653 1.415 . S
C652 C651 1.355 . S
C652 C654 1.419 . S
C653 C648 1.425 . S
C653 C650 1.409 . S
C653 C651 1.415 . S
C654 H644 0.930 . S
C654 C652 1.419 . S
C654 C655 1.362 . S
C655 H645 0.930 . S
C655 C648 1.409 . S
C655 C654 1.362 . S
H656 C662 0.930 . S
H657 C665 0.930 . S
H658 C666 0.930 1_556 S
H659 C667 0.930 . S
H660 C670 0.930 . S
H661 C671 0.930 . S
C662 H656 0.930 . S
C662 C663 1.355 . S
C662 C664 1.415 . S
C663 C662 1.355 . S
C663 C665 1.419 . S
C664 C662 1.415 . S
C664 C669 1.406 1_554 S
C664 C671 1.409 . S
C665 H657 0.930 . S
C665 C663 1.419 . S
C665 C666 1.362 . S
C666 H658 0.930 1_554 S
C666 C665 1.362 . S
C666 C669 1.408 1_554 S
C667 H659 0.930 . S
C667 C668 1.355 . S
C667 C669 1.435 . S
C668 C667 1.355 . S
C668 C670 1.419 . S
C669 C664 1.406 1_556 S
C669 C666 1.408 1_556 S
C669 C667 1.435 . S
C670 H660 0.930 . S
C670 C668 1.419 . S
C670 C671 1.362 1_556 S
C671 H661 0.930 . S
C671 C664 1.409 . S
C671 C670 1.362 1_554 S
H672 C678 0.930 . S
H673 C681 0.930 . S
H674 C682 0.930 1_556 S
H675 C683 0.930 . S
H676 C686 0.930 . S
H677 C687 0.930 . S
C678 H672 0.930 . S
C678 C679 1.355 . S
C678 C680 1.415 . S
C679 C678 1.355 . S
C679 C681 1.419 . S
C680 C678 1.415 . S
C680 C685 1.425 . S
C680 C687 1.409 . S
C681 H673 0.930 . S
C681 C679 1.419 . S
C681 C682 1.362 . S
C682 H674 0.930 1_554 S
C682 C681 1.362 . S
C682 C685 1.409 . S
C683 H675 0.930 . S
C683 C684 1.355 . S
C683 C685 1.415 1_556 S
C684 C683 1.355 . S
C684 C686 1.419 . S
C685 C680 1.425 . S
C685 C682 1.409 . S
C685 C683 1.415 1_554 S
C686 H676 0.930 . S
C686 C684 1.419 . S
C686 C687 1.362 1_556 S
C687 H677 0.930 . S
C687 C680 1.409 . S
C687 C686 1.362 1_554 S
H688 C694 0.930 . S
H689 C697 0.930 . S
H690 C698 0.930 . S
H691 C699 0.930 . S
H692 C702 0.930 . S
H693 C703 0.930 . S
C694 H688 0.930 . S
C694 C695 1.355 . S
C694 C696 1.415 . S
C695 C694 1.355 . S
C695 C697 1.419 . S
C696 C694 1.415 . S
C696 C701 1.425 . S
C696 C703 1.409 . S
C697 H689 0.930 . S
C697 C695 1.419 . S
C697 C698 1.362 . S
C698 H690 0.930 . S
C698 C697 1.362 . S
C698 C701 1.409 . S
C699 H691 0.930 . S
C699 C700 1.355 . S
C699 C701 1.415 . S
C700 C699 1.355 . S
C700 C702 1.419 . S
C701 C696 1.425 . S
C701 C698 1.409 . S
C701 C699 1.415 . S
C702 H692 0.930 . S
C702 C700 1.419 . S
C702 C703 1.362 . S
C703 H693 0.930 . S
C703 C696 1.409 . S
C703 C702 1.362 . S
H704 C710 0.930 . S
H705 C713 0.930 . S
H706 C714 0.930 . S
H707 C715 0.930 . S
H708 C718 0.930 . S
H709 C719 0.930 . S
C710 H704 0.930 . S
C710 C711 1.355 . S
C710 C712 1.415 . S
C711 C710 1.355 . S
C711 C713 1.419 . S
C712 C710 1.415 . S
C712 C717 1.425 . S
C712 C719 1.409 . S
C713 H705 0.930 . S
C713 C711 1.419 . S
C713 C714 1.362 . S
C714 H706 0.930 . S
C714 C713 1.362 . S
C714 C717 1.409 . S
C715 H707 0.930 . S
C715 C716 1.355 . S
C715 C717 1.415 . S
C716 C715 1.355 . S
C716 C718 1.419 . S
C717 C712 1.425 . S
C717 C714 1.409 . S
C717 C715 1.415 . S
C718 H708 0.930 . S
C718 C716 1.419 . S
C718 C719 1.362 . S
C719 H709 0.930 . S
C719 C712 1.409 . S
C719 C718 1.362 . S
H720 C726 0.930 . S
H721 C729 0.930 . S
H722 C730 0.930 . S
H723 C731 0.930 . S
H724 C734 0.930 . S
H725 C735 0.928 1_556 S
C726 H720 0.930 . S
C726 C727 1.355 . S
C726 C728 1.415 . S
C727 C726 1.355 . S
C727 C729 1.419 . S
C728 C726 1.415 . S
C728 C733 1.425 . S
C728 C735 1.405 1_556 S
C729 H721 0.930 . S
C729 C727 1.419 . S
C729 C730 1.362 . S
C730 H722 0.930 . S
C730 C729 1.362 . S
C730 C733 1.409 . S
C731 H723 0.930 . S
C731 C732 1.355 . S
C731 C733 1.415 1_554 S
C732 C731 1.355 . S
C732 C734 1.419 . S
C733 C728 1.425 . S
C733 C730 1.409 . S
C733 C731 1.415 1_556 S
C734 H724 0.930 . S
C734 C732 1.419 . S
C734 C735 1.369 . S
C735 H725 0.928 1_554 S
C735 C728 1.405 1_554 S
C735 C734 1.369 . S
H736 C742 0.930 . S
H737 C745 0.930 . S
H738 C746 0.930 . S
H739 C747 0.930 1_556 S
H740 C750 0.930 . S
H741 C751 0.930 . S
C742 H736 0.930 . S
C742 C743 1.355 . S
C742 C744 1.415 . S
C743 C742 1.355 . S
C743 C745 1.419 . S
C744 C742 1.415 . S
C744 C749 1.425 . S
C744 C751 1.409 1_556 S
C745 H737 0.930 . S
C745 C743 1.419 . S
C745 C746 1.362 . S
C746 H738 0.930 . S
C746 C745 1.362 . S
C746 C749 1.409 . S
C747 H739 0.930 1_554 S
C747 C748 1.355 . S
C747 C749 1.415 1_554 S
C748 C747 1.355 . S
C748 C750 1.419 . S
C749 C744 1.425 . S
C749 C746 1.409 . S
C749 C747 1.415 1_556 S
C750 H740 0.930 . S
C750 C748 1.419 . S
C750 C751 1.362 . S
C751 H741 0.930 . S
C751 C744 1.409 1_554 S
C751 C750 1.362 . S
H752 C758 0.930 . S
H753 C761 0.930 . S
H754 C762 0.930 . S
H755 C763 0.930 . S
H756 C766 0.930 . S
H757 C767 0.930 . S
C758 H752 0.930 . S
C758 C759 1.355 . S
C758 C760 1.415 . S
C759 C758 1.355 . S
C759 C761 1.419 . S
C760 C758 1.415 . S
C760 C765 1.425 . S
C760 C767 1.409 . S
C761 H753 0.930 . S
C761 C759 1.419 . S
C761 C762 1.362 . S
C762 H754 0.930 . S
C762 C761 1.362 . S
C762 C765 1.409 . S
C763 H755 0.930 . S
C763 C764 1.355 . S
C763 C765 1.415 . S
C764 C763 1.355 . S
C764 C766 1.419 . S
C765 C760 1.425 . S
C765 C762 1.409 . S
C765 C763 1.415 . S
C766 H756 0.930 . S
C766 C764 1.419 . S
C766 C767 1.362 . S
C767 H757 0.930 . S
C767 C760 1.409 . S
C767 C766 1.362 . S
H768 C774 0.930 . S
H769 C777 0.930 . S
H770 C778 0.930 . S
H771 C779 0.930 . S
H772 C782 0.930 . S
H773 C783 0.930 . S
C774 H768 0.930 . S
C774 C775 1.355 . S
C774 C776 1.415 . S
C775 C774 1.355 . S
C775 C777 1.419 . S
C776 C774 1.415 . S
C776 C781 1.425 . S
C776 C783 1.409 . S
C777 H769 0.930 . S
C777 C775 1.419 . S
C777 C778 1.362 . S
C778 H770 0.930 . S
C778 C777 1.362 . S
C778 C781 1.409 . S
C779 H771 0.930 . S
C779 C780 1.355 . S
C779 C781 1.415 . S
C780 C779 1.355 . S
C780 C782 1.419 . S
C781 C776 1.425 . S
C781 C778 1.409 . S
C781 C779 1.415 . S
C782 H772 0.930 . S
C782 C780 1.419 . S
C782 C783 1.362 . S
C783 H773 0.930 . S
C783 C776 1.409 . S
C783 C782 1.362 . S
H784 C790 0.930 . S
H785 C793 0.930 . S
H786 C794 0.930 . S
H787 C795 0.930 . S
H788 C798 0.930 . S
H789 C799 0.930 . S
C790 H784 0.930 . S
C790 C791 1.355 . S
C790 C792 1.415 . S
C791 C790 1.355 . S
C791 C793 1.419 . S
C792 C790 1.415 . S
C792 C797 1.425 1_545 S
C792 C799 1.409 . S
C793 H785 0.930 . S
C793 C791 1.419 . S
C793 C794 1.362 1_545 S
C794 H786 0.930 . S
C794 C793 1.362 1_565 S
C794 C797 1.409 . S
C795 H787 0.930 . S
C795 C796 1.355 . S
C795 C797 1.415 . S
C796 C795 1.355 . S
C796 C798 1.419 . S
C797 C792 1.425 1_565 S
C797 C794 1.409 . S
C797 C795 1.415 . S
C798 H788 0.930 . S
C798 C796 1.419 . S
C798 C799 1.362 1_565 S
C799 H789 0.930 . S
C799 C792 1.409 . S
C799 C798 1.362 1_545 S
H800 C806 0.930 . S
H801 C809 0.930 . S
H802 C810 0.930 . S
H803 C811 0.930 . S
H804 C814 0.930 . S
H805 C815 0.930 . S
C806 H800 0.930 . S
C806 C807 1.355 . S
C806 C808 1.415 . S
C807 C806 1.355 . S
C807 C809 1.419 . S
C808 C806 1.415 . S
C808 C813 1.425 1_565 S
C808 C815 1.409 . S
C809 H801 0.930 . S
C809 C807 1.419 . S
C809 C810 1.362 1_565 S
C810 H802 0.930 . S
C810 C809 1.362 1_545 S
C810 C813 1.409 . S
C811 H803 0.930 . S
C811 C812 1.355 . S
C811 C813 1.415 . S
C812 C811 1.355 . S
C812 C814 1.419 . S
C813 C808 1.425 1_545 S
C813 C810 1.409 . S
C813 C811 1.415 . S
C814 H804 0.930 . S
C814 C812 1.419 . S
C814 C815 1.362 1_545 S
C815 H805 0.930 . S
C815 C808 1.409 . S
C815 C814 1.362 1_565 S
H816 C822 0.930 . S
H817 C825 0.930 . S
H818 C826 0.930 . S
H819 C827 0.930 . S
H820 C830 0.930 . S
H821 C831 0.930 . S
C822 H816 0.930 . S
C822 C823 1.355 . S
C822 C824 1.415 . S
C823 C822 1.355 . S
C823 C825 1.419 . S
C824 C822 1.415 . S
C824 C829 1.425 1_545 S
C824 C831 1.409 . S
C825 H817 0.930 . S
C825 C823 1.419 . S
C825 C826 1.362 1_545 S
C826 H818 0.930 . S
C826 C825 1.362 1_565 S
C826 C829 1.409 . S
C827 H819 0.930 . S
C827 C828 1.355 . S
C827 C829 1.415 . S
C828 C827 1.355 . S
C828 C830 1.419 . S
C829 C824 1.425 1_565 S
C829 C826 1.409 . S
C829 C827 1.415 . S
C830 H820 0.930 . S
C830 C828 1.419 . S
C830 C831 1.362 1_565 S
C831 H821 0.930 . S
C831 C824 1.409 . S
C831 C830 1.362 1_545 S
H832 C838 0.930 . S
H833 C841 0.930 . S
H834 C842 0.930 . S
H835 C843 0.930 . S
H836 C846 0.930 . S
H837 C847 0.930 . S
C838 H832 0.930 . S
C838 C839 1.355 . S
C838 C840 1.415 . S
C839 C838 1.355 . S
C839 C841 1.419 . S
C840 C838 1.415 . S
C840 C845 1.425 1_565 S
C840 C847 1.409 . S
C841 H833 0.930 . S
C841 C839 1.419 . S
C841 C842 1.362 1_565 S
C842 H834 0.930 . S
C842 C841 1.362 1_545 S
C842 C845 1.409 . S
C843 H835 0.930 . S
C843 C844 1.355 . S
C843 C845 1.415 . S
C844 C843 1.355 . S
C844 C846 1.419 . S
C845 C840 1.425 1_545 S
C845 C842 1.409 . S
C845 C843 1.415 . S
C846 H836 0.930 . S
C846 C844 1.419 . S
C846 C847 1.362 1_545 S
C847 H837 0.930 . S
C847 C840 1.409 . S
C847 C846 1.362 1_565 S
H848 C854 0.930 . S
H849 C857 0.930 . S
H850 C858 0.930 . S
H851 C859 0.930 . S
H852 C862 0.930 . S
H853 C863 0.930 . S
C854 H848 0.930 . S
C854 C855 1.355 . S
C854 C856 1.415 . S
C855 C854 1.355 . S
C855 C857 1.419 . S
C856 C854 1.415 . S
C856 C861 1.425 . S
C856 C863 1.409 . S
C857 H849 0.930 . S
C857 C855 1.419 . S
C857 C858 1.362 . S
C858 H850 0.930 . S
C858 C857 1.362 . S
C858 C861 1.409 . S
C859 H851 0.930 . S
C859 C860 1.355 . S
C859 C861 1.415 . S
C860 C859 1.355 . S
C860 C862 1.419 . S
C861 C856 1.425 . S
C861 C858 1.409 . S
C861 C859 1.415 . S
C862 H852 0.930 . S
C862 C860 1.419 . S
C862 C863 1.362 . S
C863 H853 0.930 . S
C863 C856 1.409 . S
C863 C862 1.362 . S
H864 C870 0.930 . S
H865 C873 0.930 . S
H866 C874 0.930 . S
H867 C875 0.930 . S
H868 C878 0.930 . S
H869 C879 0.930 . S
C870 H864 0.930 . S
C870 C871 1.355 . S
C870 C872 1.415 . S
C871 C870 1.355 . S
C871 C873 1.419 . S
C872 C870 1.415 . S
C872 C877 1.425 . S
C872 C879 1.409 . S
C873 H865 0.930 . S
C873 C871 1.419 . S
C873 C874 1.362 . S
C874 H866 0.930 . S
C874 C873 1.362 . S
C874 C877 1.409 . S
C875 H867 0.930 . S
C875 C876 1.355 . S
C875 C877 1.415 . S
C876 C875 1.355 . S
C876 C878 1.419 . S
C877 C872 1.425 . S
C877 C874 1.409 . S
C877 C875 1.415 . S
C878 H868 0.930 . S
C878 C876 1.419 . S
C878 C879 1.362 . S
C879 H869 0.930 . S
C879 C872 1.409 . S
C879 C878 1.362 . S
H880 C886 0.930 . S
H881 C889 0.930 . S
H882 C890 0.930 . S
H883 C891 0.930 . S
H884 C894 0.930 . S
H885 C895 0.930 . S
C886 H880 0.930 . S
C886 C887 1.355 . S
C886 C888 1.415 . S
C887 C886 1.355 . S
C887 C889 1.419 . S
C888 C886 1.415 . S
C888 C893 1.425 . S
C888 C895 1.409 . S
C889 H881 0.930 . S
C889 C887 1.419 . S
C889 C890 1.362 . S
C890 H882 0.930 . S
C890 C889 1.362 . S
C890 C893 1.409 . S
C891 H883 0.930 . S
C891 C892 1.355 . S
C891 C893 1.415 . S
C892 C891 1.355 . S
C892 C894 1.419 . S
C893 C888 1.425 . S
C893 C890 1.409 . S
C893 C891 1.415 . S
C894 H884 0.930 . S
C894 C892 1.419 . S
C894 C895 1.362 . S
C895 H885 0.930 . S
C895 C888 1.409 . S
C895 C894 1.362 . S
H896 C902 0.930 . S
H897 C905 0.930 . S
H898 C906 0.930 . S
H899 C907 0.930 . S
H900 C910 0.930 . S
H901 C911 0.930 . S
C902 H896 0.930 . S
C902 C903 1.355 . S
C902 C904 1.415 . S
C903 C902 1.355 . S
C903 C905 1.419 . S
C904 C902 1.415 . S
C904 C909 1.425 . S
C904 C911 1.409 . S
C905 H897 0.930 . S
C905 C903 1.419 . S
C905 C906 1.362 . S
C906 H898 0.930 . S
C906 C905 1.362 . S
C906 C909 1.409 . S
C907 H899 0.930 . S
C907 C908 1.355 . S
C907 C909 1.415 . S
C908 C907 1.355 . S
C908 C910 1.419 . S
C909 C904 1.425 . S
C909 C906 1.409 . S
C909 C907 1.415 . S
C910 H900 0.930 . S
C910 C908 1.419 . S
C910 C911 1.362 . S
C911 H901 0.930 . S
C911 C904 1.409 . S
C911 C910 1.362 . S
H912 C918 0.930 . S
H913 C921 0.930 . S
H914 C922 0.930 . S
H915 C923 0.930 . S
H916 C926 0.930 . S
H917 C927 0.930 . S
C918 H912 0.930 . S
C918 C919 1.355 1_455 S
C918 C920 1.415 . S
C919 C918 1.355 1_655 S
C919 C921 1.419 . S
C920 C918 1.415 . S
C920 C925 1.425 1_455 S
C920 C927 1.409 . S
C921 H913 0.930 . S
C921 C919 1.419 . S
C921 C922 1.362 . S
C922 H914 0.930 . S
C922 C921 1.362 . S
C922 C925 1.409 . S
C923 H915 0.930 . S
C923 C924 1.355 1_655 S
C923 C925 1.415 . S
C924 C923 1.355 1_455 S
C924 C926 1.419 . S
C925 C920 1.425 1_655 S
C925 C922 1.409 . S
C925 C923 1.415 . S
C926 H916 0.930 . S
C926 C924 1.419 . S
C926 C927 1.362 . S
C927 H917 0.930 . S
C927 C920 1.409 . S
C927 C926 1.362 . S
H928 C934 0.930 . S
H929 C937 0.930 . S
H930 C938 0.930 . S
H931 C939 0.930 . S
H932 C942 0.930 . S
H933 C943 0.930 . S
C934 H928 0.930 . S
C934 C935 1.355 . S
C934 C936 1.415 . S
C935 C934 1.355 . S
C935 C937 1.419 . S
C936 C934 1.415 . S
C936 C941 1.425 . S
C936 C943 1.409 . S
C937 H929 0.930 . S
C937 C935 1.419 . S
C937 C938 1.362 . S
C938 H930 0.930 . S
C938 C937 1.362 . S
C938 C941 1.409 . S
C939 H931 0.930 . S
C939 C940 1.355 . S
C939 C941 1.415 . S
C940 C939 1.355 . S
C940 C942 1.419 . S
C941 C936 1.425 . S
C941 C938 1.409 . S
C941 C939 1.415 . S
C942 H932 0.930 . S
C942 C940 1.419 . S
C942 C943 1.362 . S
C943 H933 0.930 . S
C943 C936 1.409 . S
C943 C942 1.362 . S
H944 C950 0.930 . S
H945 C953 0.930 . S
H946 C954 0.930 . S
H947 C955 0.930 . S
H948 C958 0.930 . S
H949 C959 0.930 . S
C950 H944 0.930 . S
C950 C951 1.355 . S
C950 C952 1.415 . S
C951 C950 1.355 . S
C951 C953 1.419 . S
C952 C950 1.415 . S
C952 C957 1.425 . S
C952 C959 1.409 . S
C953 H945 0.930 . S
C953 C951 1.419 . S
C953 C954 1.362 . S
C954 H946 0.930 . S
C954 C953 1.362 . S
C954 C957 1.409 . S
C955 H947 0.930 . S
C955 C956 1.355 . S
C955 C957 1.415 . S
C956 C955 1.355 . S
C956 C958 1.419 . S
C957 C952 1.425 . S
C957 C954 1.409 . S
C957 C955 1.415 . S
C958 H948 0.930 . S
C958 C956 1.419 . S
C958 C959 1.362 . S
C959 H949 0.930 . S
C959 C952 1.409 . S
C959 C958 1.362 . S
H960 C966 0.930 . S
H961 C969 0.930 . S
H962 C970 0.930 . S
H963 C971 0.930 . S
H964 C974 0.930 . S
H965 C975 0.930 . S
C966 H960 0.930 . S
C966 C967 1.355 . S
C966 C968 1.415 . S
C967 C966 1.355 . S
C967 C969 1.419 1_455 S
C968 C966 1.415 . S
C968 C973 1.425 1_455 S
C968 C975 1.409 . S
C969 H961 0.930 . S
C969 C967 1.419 1_655 S
C969 C970 1.362 . S
C970 H962 0.930 . S
C970 C969 1.362 . S
C970 C973 1.409 . S
C971 H963 0.930 . S
C971 C972 1.355 . S
C971 C973 1.415 . S
C972 C971 1.355 . S
C972 C974 1.419 1_655 S
C973 C968 1.425 1_655 S
C973 C970 1.409 . S
C973 C971 1.415 . S
C974 H964 0.930 . S
C974 C972 1.419 1_455 S
C974 C975 1.362 . S
C975 H965 0.930 . S
C975 C968 1.409 . S
C975 C974 1.362 . S
H976 C982 0.930 . S
H977 C985 0.930 . S
H978 C986 0.930 . S
H979 C987 0.930 . S
H980 C990 0.930 . S
H981 C991 0.930 . S
C982 H976 0.930 . S
C982 C983 1.355 1_455 S
C982 C984 1.415 . S
C983 C982 1.355 1_655 S
C983 C985 1.419 . S
C984 C982 1.415 . S
C984 C989 1.425 1_455 S
C984 C991 1.409 . S
C985 H977 0.930 . S
C985 C983 1.419 . S
C985 C986 1.362 . S
C986 H978 0.930 . S
C986 C985 1.362 . S
C986 C989 1.409 . S
C987 H979 0.930 . S
C987 C988 1.355 1_655 S
C987 C989 1.415 . S
C988 C987 1.355 1_455 S
C988 C990 1.419 . S
C989 C984 1.425 1_655 S
C989 C986 1.409 . S
C989 C987 1.415 . S
C990 H980 0.930 . S
C990 C988 1.419 . S
C990 C991 1.362 . S
C991 H981 0.930 . S
C991 C984 1.409 . S
C991 C990 1.362 . S
H992 C998 0.930 . S
H993 C1001 0.930 . S
H994 C1002 0.930 . S
H995 C1003 0.930 . S
H996 C1006 0.930 . S
H997 C1007 0.930 . S
C998 H992 0.930 . S
C998 C999 1.355 . S
C998 C1000 1.415 . S
C999 C998 1.355 . S
C999 C1001 1.419 . S
C1000 C998 1.415 . S
C1000 C1005 1.425 . S
C1000 C1007 1.409 . S
C1001 H993 0.930 . S
C1001 C999 1.419 . S
C1001 C1002 1.362 . S
C1002 H994 0.930 . S
C1002 C1001 1.362 . S
C1002 C1005 1.409 . S
C1003 H995 0.930 . S
C1003 C1004 1.355 . S
C1003 C1005 1.415 . S
C1004 C1003 1.355 . S
C1004 C1006 1.419 . S
C1005 C1000 1.425 . S
C1005 C1002 1.409 . S
C1005 C1003 1.415 . S
C1006 H996 0.930 . S
C1006 C1004 1.419 . S
C1006 C1007 1.362 . S
C1007 H997 0.930 . S
C1007 C1000 1.409 . S
C1007 C1006 1.362 . S
H1008 C1014 0.930 . S
H1009 C1017 0.930 . S
H1010 C1018 0.930 . S
H1011 C1019 0.930 . S
H1012 C1022 0.930 . S
H1013 C1023 0.930 . S
C1014 H1008 0.930 . S
C1014 C1015 1.355 . S
C1014 C1016 1.415 . S
C1015 C1014 1.355 . S
C1015 C1017 1.419 . S
C1016 C1014 1.415 . S
C1016 C1021 1.425 . S
C1016 C1023 1.409 . S
C1017 H1009 0.930 . S
C1017 C1015 1.419 . S
C1017 C1018 1.362 . S
C1018 H1010 0.930 . S
C1018 C1017 1.362 . S
C1018 C1021 1.409 . S
C1019 H1011 0.930 . S
C1019 C1020 1.355 . S
C1019 C1021 1.415 . S
C1020 C1019 1.355 . S
C1020 C1022 1.419 . S
C1021 C1016 1.425 . S
C1021 C1018 1.409 . S
C1021 C1019 1.415 . S
C1022 H1012 0.930 . S
C1022 C1020 1.419 . S
C1022 C1023 1.362 . S
C1023 H1013 0.930 . S
C1023 C1016 1.409 . S
C1023 C1022 1.362 . S
H1024 C1030 0.930 . S
H1025 C1033 0.930 . S
H1026 C1034 0.930 . S
H1027 C1035 0.930 . S
H1028 C1038 0.930 . S
H1029 C1039 0.930 . S
C1030 H1024 0.930 . S
C1030 C1031 1.355 . S
C1030 C1032 1.415 . S
C1031 C1030 1.355 . S
C1031 C1033 1.419 1_655 S
C1032 C1030 1.415 . S
C1032 C1037 1.425 1_655 S
C1032 C1039 1.409 . S
C1033 H1025 0.930 . S
C1033 C1031 1.419 1_455 S
C1033 C1034 1.362 . S
C1034 H1026 0.930 . S
C1034 C1033 1.362 . S
C1034 C1037 1.409 . S
C1035 H1027 0.930 . S
C1035 C1036 1.355 . S
C1035 C1037 1.415 . S
C1036 C1035 1.355 . S
C1036 C1038 1.419 1_455 S
C1037 C1032 1.425 1_455 S
C1037 C1034 1.409 . S
C1037 C1035 1.415 . S
C1038 H1028 0.930 . S
C1038 C1036 1.419 1_655 S
C1038 C1039 1.362 . S
C1039 H1029 0.930 . S
C1039 C1032 1.409 . S
C1039 C1038 1.362 . S
H1040 C1046 0.930 . S
H1041 C1049 0.930 . S
H1042 C1050 0.930 . S
H1043 C1051 0.930 . S
H1044 C1054 0.930 . S
H1045 C1055 0.930 . S
C1046 H1040 0.930 . S
C1046 C1047 1.355 . S
C1046 C1048 1.415 . S
C1047 C1046 1.355 . S
C1047 C1049 1.419 . S
C1048 C1046 1.415 . S
C1048 C1053 1.425 1_455 S
C1048 C1055 1.409 . S
C1049 H1041 0.930 . S
C1049 C1047 1.419 . S
C1049 C1050 1.362 1_455 S
C1050 H1042 0.930 . S
C1050 C1049 1.362 1_655 S
C1050 C1053 1.409 . S
C1051 H1043 0.930 . S
C1051 C1052 1.355 . S
C1051 C1053 1.415 . S
C1052 C1051 1.355 . S
C1052 C1054 1.419 . S
C1053 C1048 1.425 1_655 S
C1053 C1050 1.409 . S
C1053 C1051 1.415 . S
C1054 H1044 0.930 . S
C1054 C1052 1.419 . S
C1054 C1055 1.362 1_655 S
C1055 H1045 0.930 . S
C1055 C1048 1.409 . S
C1055 C1054 1.362 1_455 S
H1056 C1062 0.930 . S
H1057 C1065 0.930 . S
H1058 C1066 0.930 . S
H1059 C1067 0.930 . S
H1060 C1070 0.930 . S
H1061 C1071 0.930 . S
C1062 H1056 0.930 . S
C1062 C1063 1.355 . S
C1062 C1064 1.415 . S
C1063 C1062 1.355 . S
C1063 C1065 1.419 . S
C1064 C1062 1.415 . S
C1064 C1069 1.425 . S
C1064 C1071 1.409 . S
C1065 H1057 0.930 . S
C1065 C1063 1.419 . S
C1065 C1066 1.362 . S
C1066 H1058 0.930 . S
C1066 C1065 1.362 . S
C1066 C1069 1.409 . S
C1067 H1059 0.930 . S
C1067 C1068 1.355 . S
C1067 C1069 1.415 . S
C1068 C1067 1.355 . S
C1068 C1070 1.419 . S
C1069 C1064 1.425 . S
C1069 C1066 1.409 . S
C1069 C1067 1.415 . S
C1070 H1060 0.930 . S
C1070 C1068 1.419 . S
C1070 C1071 1.362 . S
C1071 H1061 0.930 . S
C1071 C1064 1.409 . S
C1071 C1070 1.362 . S
H1072 C1078 0.930 . S
H1073 C1081 0.930 . S
H1074 C1082 0.930 . S
H1075 C1083 0.930 . S
H1076 C1086 0.930 . S
H1077 C1087 0.930 . S
C1078 H1072 0.930 . S
C1078 C1079 1.355 . S
C1078 C1080 1.415 . S
C1079 C1078 1.355 . S
C1079 C1081 1.419 1_655 S
C1080 C1078 1.415 . S
C1080 C1085 1.425 1_655 S
C1080 C1087 1.409 . S
C1081 H1073 0.930 . S
C1081 C1079 1.419 1_455 S
C1081 C1082 1.362 . S
C1082 H1074 0.930 . S
C1082 C1081 1.362 . S
C1082 C1085 1.409 . S
C1083 H1075 0.930 . S
C1083 C1084 1.355 . S
C1083 C1085 1.415 . S
C1084 C1083 1.355 . S
C1084 C1086 1.419 1_455 S
C1085 C1080 1.425 1_455 S
C1085 C1082 1.409 . S
C1085 C1083 1.415 . S
C1086 H1076 0.930 . S
C1086 C1084 1.419 1_655 S
C1086 C1087 1.362 . S
C1087 H1077 0.930 . S
C1087 C1080 1.409 . S
C1087 C1086 1.362 . S
H1088 C1094 0.930 . S
H1089 C1097 0.930 . S
H1090 C1098 0.930 . S
H1091 C1099 0.930 . S
H1092 C1102 0.930 . S
H1093 C1103 0.930 . S
C1094 H1088 0.930 . S
C1094 C1095 1.355 . S
C1094 C1096 1.415 . S
C1095 C1094 1.355 . S
C1095 C1097 1.419 . S
C1096 C1094 1.415 . S
C1096 C1101 1.425 . S
C1096 C1103 1.409 . S
C1097 H1089 0.930 . S
C1097 C1095 1.419 . S
C1097 C1098 1.362 . S
C1098 H1090 0.930 . S
C1098 C1097 1.362 . S
C1098 C1101 1.409 . S
C1099 H1091 0.930 . S
C1099 C1100 1.355 . S
C1099 C1101 1.415 . S
C1100 C1099 1.355 . S
C1100 C1102 1.419 . S
C1101 C1096 1.425 . S
C1101 C1098 1.409 . S
C1101 C1099 1.415 . S
C1102 H1092 0.930 . S
C1102 C1100 1.419 . S
C1102 C1103 1.362 . S
C1103 H1093 0.930 . S
C1103 C1096 1.409 . S
C1103 C1102 1.362 . S
H1104 C1110 0.930 . S
H1105 C1113 0.930 . S
H1106 C1114 0.930 . S
H1107 C1115 0.930 . S
H1108 C1118 0.930 . S
H1109 C1119 0.930 . S
C1110 H1104 0.930 . S
C1110 C1111 1.355 . S
C1110 C1112 1.415 . S
C1111 C1110 1.355 . S
C1111 C1113 1.419 . S
C1112 C1110 1.415 . S
C1112 C1117 1.425 . S
C1112 C1119 1.409 . S
C1113 H1105 0.930 . S
C1113 C1111 1.419 . S
C1113 C1114 1.362 . S
C1114 H1106 0.930 . S
C1114 C1113 1.362 . S
C1114 C1117 1.409 . S
C1115 H1107 0.930 . S
C1115 C1116 1.355 . S
C1115 C1117 1.415 . S
C1116 C1115 1.355 . S
C1116 C1118 1.419 . S
C1117 C1112 1.425 . S
C1117 C1114 1.409 . S
C1117 C1115 1.415 . S
C1118 H1108 0.930 . S
C1118 C1116 1.419 . S
C1118 C1119 1.362 . S
C1119 H1109 0.930 . S
C1119 C1112 1.409 . S
C1119 C1118 1.362 . S
H1120 C1126 0.930 . S
H1121 C1129 0.930 . S
H1122 C1130 0.930 . S
H1123 C1131 0.930 . S
H1124 C1134 0.930 . S
H1125 C1135 0.930 . S
C1126 H1120 0.930 . S
C1126 C1127 1.355 . S
C1126 C1128 1.415 . S
C1127 C1126 1.355 . S
C1127 C1129 1.419 1_455 S
C1128 C1126 1.415 . S
C1128 C1133 1.425 1_455 S
C1128 C1135 1.409 . S
C1129 H1121 0.930 . S
C1129 C1127 1.419 1_655 S
C1129 C1130 1.362 . S
C1130 H1122 0.930 . S
C1130 C1129 1.362 . S
C1130 C1133 1.409 . S
C1131 H1123 0.930 . S
C1131 C1132 1.355 . S
C1131 C1133 1.415 . S
C1132 C1131 1.355 . S
C1132 C1134 1.419 1_655 S
C1133 C1128 1.425 1_655 S
C1133 C1130 1.409 . S
C1133 C1131 1.415 . S
C1134 H1124 0.930 . S
C1134 C1132 1.419 1_455 S
C1134 C1135 1.362 . S
C1135 H1125 0.930 . S
C1135 C1128 1.409 . S
C1135 C1134 1.362 . S
H1136 C1142 0.930 . S
H1137 C1145 0.930 . S
H1138 C1146 0.930 . S
H1139 C1147 0.930 . S
H1140 C1150 0.930 . S
H1141 C1151 0.930 . S
C1142 H1136 0.930 . S
C1142 C1143 1.355 . S
C1142 C1144 1.415 . S
C1143 C1142 1.355 . S
C1143 C1145 1.419 . S
C1144 C1142 1.415 . S
C1144 C1149 1.425 . S
C1144 C1151 1.409 . S
C1145 H1137 0.930 . S
C1145 C1143 1.419 . S
C1145 C1146 1.362 . S
C1146 H1138 0.930 . S
C1146 C1145 1.362 . S
C1146 C1149 1.409 . S
C1147 H1139 0.930 . S
C1147 C1148 1.355 . S
C1147 C1149 1.415 . S
C1148 C1147 1.355 . S
C1148 C1150 1.419 . S
C1149 C1144 1.425 . S
C1149 C1146 1.409 . S
C1149 C1147 1.415 . S
C1150 H1140 0.930 . S
C1150 C1148 1.419 . S
C1150 C1151 1.362 . S
C1151 H1141 0.930 . S
C1151 C1144 1.409 . S
C1151 C1150 1.362 . S
H1152 C1158 0.930 . S
H1153 C1161 0.930 . S
H1154 C1162 0.930 . S
H1155 C1163 0.930 . S
H1156 C1166 0.930 . S
H1157 C1167 0.930 . S
C1158 H1152 0.930 . S
C1158 C1159 1.355 . S
C1158 C1160 1.415 . S
C1159 C1158 1.355 . S
C1159 C1161 1.419 1_455 S
C1160 C1158 1.415 . S
C1160 C1165 1.425 1_455 S
C1160 C1167 1.409 . S
C1161 H1153 0.930 . S
C1161 C1159 1.419 1_655 S
C1161 C1162 1.362 . S
C1162 H1154 0.930 . S
C1162 C1161 1.362 . S
C1162 C1165 1.409 . S
C1163 H1155 0.930 . S
C1163 C1164 1.355 . S
C1163 C1165 1.415 . S
C1164 C1163 1.355 . S
C1164 C1166 1.419 1_655 S
C1165 C1160 1.425 1_655 S
C1165 C1162 1.409 . S
C1165 C1163 1.415 . S
C1166 H1156 0.930 . S
C1166 C1164 1.419 1_455 S
C1166 C1167 1.362 . S
C1167 H1157 0.930 . S
C1167 C1160 1.409 . S
C1167 C1166 1.362 . S
C535 C186 1.151 . S
C540 C18 1.157 . S
C551 C153 1.162 . S
C556 C51 1.162 . S
C567 C84 1.106 . S
C572 C252 1.120 . S
C583 C117 1.133 . S
C588 C219 1.144 . S
C599 C150 1.090 . S
C604 C54 1.093 . S
C615 C183 1.089 . S
C620 C21 1.100 . S
C631 C120 1.100 . S
C636 C216 1.103 . S
C647 C249 1.158 . S
C652 C87 1.153 . S
C663 C282 1.147 . S
C668 C450 1.156 . S
C679 C315 1.155 . S
C684 C417 1.161 . S
C695 C348 1.124 . S
C700 C516 1.137 . S
C711 C381 1.109 . S
C716 C483 1.123 . S
C727 C414 1.151 . S
C732 C318 1.158 . S
C743 C447 1.162 . S
C748 C285 1.161 . S
C759 C384 1.114 . S
C764 C480 1.101 . S
C775 C351 1.162 . S
C780 C513 1.159 . S
C791 N13 1.703 . S
C796 N46 1.677 . S
C807 N79 1.701 . S
C812 N112 1.681 . S
C823 N178 1.664 . S
C828 N145 1.703 . S
C839 N244 1.691 . S
C844 N211 1.695 . S
C855 N310 1.678 . S
C860 N277 1.703 . S
C871 N376 1.663 . S
C876 N343 1.703 . S
C887 N409 1.703 . S
C892 N442 1.662 . S
C903 N475 1.699 . S
C908 N508 1.685 . S
C919 N299 1.495 . S
C924 N2 1.517 . S
C935 N35 1.544 . S
C940 N266 1.546 . S
C951 N68 1.493 . S
C956 N365 1.533 . S
C967 N332 1.538 . S
C972 N101 1.550 . S
C983 N134 1.534 . S
C988 N431 1.493 . S
C999 N167 1.494 . S
C1004 N398 1.520 . S
C1015 N200 1.522 . S
C1020 N497 1.555 . S
C1031 N464 1.553 . S
C1036 N233 1.533 . S
C1047 C7 1.443 . S
C1052 C106 1.453 . S
C1063 C40 1.483 . S
C1068 C73 1.479 . S
C1079 C139 1.444 . S
C1084 C238 1.454 . S
C1095 C172 1.438 . S
C1100 C205 1.439 . S
C1111 C370 1.480 . S
C1116 C271 1.483 . S
C1127 C337 1.454 . S
C1132 C304 1.445 . S
C1143 C403 1.480 . S
C1148 C502 1.473 . S
C1159 C436 1.446 . S
C1164 C469 1.456 . S
