# Generated by pormake.
# Topology sml, (6)-cn, num edge types: 1
# Building blocks:
#     Node 0, Type 0, BuildingBlock: GEDQOX_clean_sbu_0, # of connection points: 6
#     Node 1, Type 0, BuildingBlock: GEDQOX_clean_sbu_0, # of connection points: 6
#     Node 2, Type 0, BuildingBlock: GEDQOX_clean_sbu_0, # of connection points: 6
#     Node 3, Type 0, BuildingBlock: GEDQOX_clean_sbu_0, # of connection points: 6
#     Node 4, Type 0, BuildingBlock: GEDQOX_clean_sbu_0, # of connection points: 6
#     Node 5, Type 0, BuildingBlock: GEDQOX_clean_sbu_0, # of connection points: 6
#     Edge 6, Type (0, 0), BuildingBlock: AJUNOK_clean_linker_0, # of connection points: 2
#     Edge 7, Type (0, 0), BuildingBlock: AJUNOK_clean_linker_0, # of connection points: 2
#     Edge 8, Type (0, 0), BuildingBlock: AJUNOK_clean_linker_0, # of connection points: 2
#     Edge 9, Type (0, 0), BuildingBlock: AJUNOK_clean_linker_0, # of connection points: 2
#     Edge 10, Type (0, 0), BuildingBlock: AJUNOK_clean_linker_0, # of connection points: 2
#     Edge 11, Type (0, 0), BuildingBlock: AJUNOK_clean_linker_0, # of connection points: 2
#     Edge 12, Type (0, 0), BuildingBlock: AJUNOK_clean_linker_0, # of connection points: 2
#     Edge 13, Type (0, 0), BuildingBlock: AJUNOK_clean_linker_0, # of connection points: 2
#     Edge 14, Type (0, 0), BuildingBlock: AJUNOK_clean_linker_0, # of connection points: 2
#     Edge 15, Type (0, 0), BuildingBlock: AJUNOK_clean_linker_0, # of connection points: 2
#     Edge 16, Type (0, 0), BuildingBlock: AJUNOK_clean_linker_0, # of connection points: 2
#     Edge 17, Type (0, 0), BuildingBlock: AJUNOK_clean_linker_0, # of connection points: 2
#     Edge 18, Type (0, 0), BuildingBlock: AJUNOK_clean_linker_0, # of connection points: 2
#     Edge 19, Type (0, 0), BuildingBlock: AJUNOK_clean_linker_0, # of connection points: 2
#     Edge 20, Type (0, 0), BuildingBlock: AJUNOK_clean_linker_0, # of connection points: 2
#     Edge 21, Type (0, 0), BuildingBlock: AJUNOK_clean_linker_0, # of connection points: 2
#     Edge 22, Type (0, 0), BuildingBlock: AJUNOK_clean_linker_0, # of connection points: 2
#     Edge 23, Type (0, 0), BuildingBlock: AJUNOK_clean_linker_0, # of connection points: 2
# Relax obj value: 0.251
# Max RMSD: 0.236
# Mean RMSD: 0.236
data_MOF--net-sml--node1-GEDQOX_clean_sbu_0--edge1-AJUNOK_clean_linker_0
_symmetry_space_group_name_H-M    P1
_symmetry_Int_Tables_number       1
_symmetry_cell_setting            triclinic
loop_
_symmetry_equiv_pos_as_xyz
'x, y, z'
_cell_length_a     42.80656
_cell_length_b     42.798305
_cell_length_c     11.513366
_cell_angle_alpha  90.060467
_cell_angle_beta   89.258701
_cell_angle_gamma 119.91726
loop_
_atom_site_label
_atom_site_type_symbol
_atom_site_fract_x
_atom_site_fract_y
_atom_site_fract_z
_atom_type_partial_charge
Nd0 Nd 0.24158 0.41735 1.01486 0.0
Nd1 Nd 0.21313 0.46922 1.00609 0.0
C2 C 0.2731 0.37744 0.99322 0.0
C3 C 0.29072 0.36097 0.92368 0.0
C4 C 0.32712 0.38097 0.88832 0.0
C5 C 0.3448 0.36361 0.84069 0.0
C6 C 0.32667 0.32581 0.82863 0.0
C7 C 0.28987 0.30614 0.85903 0.0
C8 C 0.2722 0.32346 0.90623 0.0
C9 C 0.16854 0.38662 0.06143 0.0
C10 C 0.22113 0.43793 0.76615 0.0
C11 C 0.17954 0.50688 1.03557 0.0
C12 C 0.1852 0.5404 0.09167 0.0
C13 C 0.17081 0.56005 0.04009 0.0
C14 C 0.17769 0.59312 0.08616 0.0
C15 C 0.199 0.60724 0.18541 0.0
C16 C 0.21252 0.58699 0.23933 0.0
C17 C 0.20576 0.55387 0.19268 0.0
C18 C 0.28589 0.50165 0.96129 0.0
C19 C 0.23204 0.447 0.26015 0.0
O20 O 0.29077 0.41192 1.01707 0.0
O21 O 0.23849 0.36473 0.98217 0.0
O22 O 0.18989 0.37857 0.11607 0.0
O23 O 0.18548 0.40944 0.98193 0.0
O24 O 0.24433 0.43167 0.82104 0.0
O25 O 0.19861 0.44482 0.82504 0.0
O26 O 0.17439 0.48014 0.1031 0.0
O27 O 0.20022 0.51078 0.94599 0.0
O28 O 0.2644 0.51053 0.9125 0.0
O29 O 0.26955 0.47793 0.03936 0.0
O30 O 0.21487 0.46019 0.20184 0.0
O31 O 0.2494 0.43282 0.20639 0.0
H32 H 0.3423 0.40986 0.9009 0.0
H33 H 0.37296 0.37972 0.81588 0.0
H34 H 0.27508 0.27705 0.85161 0.0
H35 H 0.24431 0.30717 0.93396 0.0
H36 H 0.15486 0.55016 0.9623 0.0
H37 H 0.16696 0.6081 0.04265 0.0
H38 H 0.22956 0.59746 0.31458 0.0
H39 H 0.21731 0.53927 0.23375 0.0
Nd40 Nd 0.83827 0.2366 0.35892 0.0
Nd41 Nd 0.75718 0.20134 0.34773 0.0
C42 C 0.90947 0.27865 0.3463 0.0
C43 C 0.94558 0.29212 0.29246 0.0
C44 C 0.95217 0.29804 0.1723 0.0
C45 C 0.98751 0.31289 0.12715 0.0
C46 C 1.01681 0.3223 0.20151 0.0
C47 C 1.00976 0.31611 0.32146 0.0
C48 C 0.97468 0.30119 0.36608 0.0
C49 C 0.80144 0.1628 0.39832 0.0
C50 C 0.79817 0.21031 0.10685 0.0
C51 C 0.68614 0.16539 0.37993 0.0
C52 C 0.66055 0.17422 0.43737 0.0
C53 C 0.62522 0.1471 0.46454 0.0
C54 C 0.60101 0.15579 0.5189 0.0
C55 C 0.6119 0.19174 0.54748 0.0
C56 C 0.6473 0.21878 0.51884 0.0
C57 C 0.67141 0.21009 0.46523 0.0
C58 C 0.7929 0.2746 0.30998 0.0
C59 C 0.79692 0.22221 0.60128 0.0
O60 O 0.88693 0.28722 0.30037 0.0
O61 O 0.89355 0.24701 0.39666 0.0
O62 O 0.8306 0.18546 0.45106 0.0
O63 O 0.79396 0.17884 0.32111 0.0
O64 O 0.82749 0.2338 0.16196 0.0
O65 O 0.76848 0.18799 0.16514 0.0
O66 O 0.70848 0.16204 0.44799 0.0
O67 O 0.70204 0.18388 0.28601 0.0
O68 O 0.76387 0.25184 0.25784 0.0
O69 O 0.80106 0.2591 0.38731 0.0
O70 O 0.76806 0.20001 0.54246 0.0
O71 O 0.82677 0.24572 0.54669 0.0
H72 H 0.93015 0.29132 0.11366 0.0
H73 H 0.99181 0.31665 1.03415 0.0
H74 H 0.03156 0.3233 0.38153 0.0
H75 H 0.97033 0.29723 0.45914 0.0
H76 H 0.61637 0.11925 0.44362 0.0
H77 H 0.57391 0.13441 0.53938 0.0
H78 H 0.65627 0.24685 0.53636 0.0
H79 H 0.69854 0.23145 0.44463 0.0
Nd80 Nd 0.6234 0.83595 0.72415 0.0
Nd81 Nd 0.57128 0.74994 0.72254 0.0
C82 C 0.65977 0.90712 0.70246 0.0
C83 C 0.67204 0.94203 0.64153 0.0
C84 C 0.69032 0.94996 0.53358 0.0
C85 C 0.70791 0.98533 0.48906 0.0
C86 C 0.70791 1.01352 0.5521 0.0
C87 C 0.68784 1.00509 0.65652 0.0
C88 C 0.6702 0.9698 0.70072 0.0
C89 C 0.65478 0.79457 0.77304 0.0
C90 C 0.59934 0.7928 0.47648 0.0
C91 C 0.54213 0.67915 0.73801 0.0
C92 C 0.50764 0.64875 0.78213 0.0
C93 C 0.49324 0.64997 0.89156 0.0
C94 C 0.45908 0.62225 0.92704 0.0
C95 C 0.4386 0.59295 0.85356 0.0
C96 C 0.45355 0.5913 0.7458 0.0
C97 C 0.48775 0.61882 0.71075 0.0
C98 C 0.53048 0.78399 0.71732 0.0
C99 C 0.59462 0.7942 0.96995 0.0
O100 O 0.62757 0.8897 0.75107 0.0
O101 O 0.67184 0.88601 0.66587 0.0
O102 O 0.66437 0.82569 0.81899 0.0
O103 O 0.63094 0.78726 0.69764 0.0
O104 O 0.60892 0.82334 0.53171 0.0
O105 O 0.58946 0.76218 0.53224 0.0
O106 O 0.56453 0.70148 0.81487 0.0
O107 O 0.54012 0.69558 0.64477 0.0
O108 O 0.5168 0.74934 0.7202 0.0
O109 O 0.56418 0.79844 0.72146 0.0
O110 O 0.58484 0.76381 0.91392 0.0
O111 O 0.60475 0.82509 0.91512 0.0
H112 H 0.69238 0.92922 0.48593 0.0
H113 H 0.72309 0.99098 0.40831 0.0
H114 H 0.68679 0.02608 0.70611 0.0
H115 H 0.65652 0.96458 0.7843 0.0
H116 H 0.50783 0.67283 0.94827 0.0
H117 H 0.44799 0.62459 1.00953 0.0
H118 H 0.43833 0.5691 0.68728 0.0
H119 H 0.49825 0.61725 0.62614 0.0
Nd120 Nd 0.81176 0.62146 0.05963 0.0
Nd121 Nd 0.84056 0.56521 0.05546 0.0
C122 C 0.78058 0.66133 1.03747 0.0
C123 C 0.75966 0.6745 0.97141 0.0
C124 C 0.72175 0.65707 0.97967 0.0
C125 C 0.703 0.67376 0.93688 0.0
C126 C 0.72185 0.70836 0.88662 0.0
C127 C 0.75943 0.72481 0.87275 0.0
C128 C 0.77808 0.70814 0.91455 0.0
C129 C 0.88417 0.64888 0.10435 0.0
C130 C 0.82734 0.59371 0.81006 0.0
C131 C 0.87793 0.53151 0.07314 0.0
C132 C 0.86881 0.4947 0.10904 0.0
C133 C 0.89325 0.48904 0.1734 0.0
C134 C 0.88442 0.4541 0.20825 0.0
C135 C 0.8511 0.42429 0.17836 0.0
C136 C 0.82646 0.43023 0.11614 0.0
C137 C 0.83518 0.46498 0.08192 0.0
C138 C 0.76589 0.52825 0.04711 0.0
C139 C 0.82056 0.58984 0.30365 0.0
O140 O 0.7642 0.62903 0.08479 0.0
O141 O 0.81384 0.67198 1.0045 0.0
O142 O 0.8643 0.66033 0.15329 0.0
O143 O 0.86626 0.62518 1.0298 0.0
O144 O 0.80902 0.60649 0.86664 0.0
O145 O 0.84665 0.58201 0.86432 0.0
O146 O 0.87675 0.55213 0.15522 0.0
O147 O 0.86403 0.53432 0.97555 0.0
O148 O 0.78518 0.5127 0.05026 0.0
O149 O 0.78653 0.56172 0.05382 0.0
O150 O 0.84119 0.57993 0.24691 0.0
O151 O 0.80174 0.60216 0.24946 0.0
H152 H 0.7067 0.63136 1.02408 0.0
H153 H 0.67404 0.66057 0.94908 0.0
H154 H 0.7746 0.75142 0.83389 0.0
H155 H 0.80723 0.72259 0.90768 0.0
H156 H 0.91918 0.51163 0.19638 0.0
H157 H 0.90381 0.45029 0.25666 0.0
H158 H 0.80026 0.40788 0.09414 0.0
H159 H 0.81556 0.46856 1.03407 0.0
Nd160 Nd 0.21391 0.7983 0.38132 0.0
Nd161 Nd 0.2939 0.82971 0.36458 0.0
C162 C 0.14237 0.76351 0.36684 0.0
C163 C 0.10836 0.7456 0.29962 0.0
C164 C 0.08663 0.70778 0.30046 0.0
C165 C 0.05146 0.69105 0.25695 0.0
C166 C 0.0371 0.71178 0.2126 0.0
C167 C 0.05933 0.74946 0.20748 0.0
C168 C 0.09447 0.76614 0.25022 0.0
C169 C 0.25298 0.87129 0.42902 0.0
C170 C 0.25425 0.82158 0.12826 0.0
C171 C 0.36512 0.86373 0.38665 0.0
C172 C 0.39212 0.85815 0.44862 0.0
C173 C 0.38905 0.85075 0.56849 0.0
C174 C 0.41361 0.84324 0.62342 0.0
C175 C 0.44148 0.84247 0.55948 0.0
C176 C 0.44524 0.85116 0.44047 0.0
C177 C 0.42083 0.85892 0.38574 0.0
C178 C 0.25609 0.75705 0.3195 0.0
C179 C 0.25371 0.80877 0.623 0.0
O180 O 0.16078 0.74705 0.38422 0.0
O181 O 0.16277 0.7985 0.35894 0.0
O182 O 0.22421 0.84819 0.48515 0.0
O183 O 0.26012 0.85603 0.34691 0.0
O184 O 0.22529 0.79754 0.18567 0.0
O185 O 0.28334 0.84455 0.18486 0.0
O186 O 0.34397 0.87132 0.44865 0.0
O187 O 0.34806 0.84121 0.30307 0.0
O188 O 0.28518 0.78001 0.26533 0.0
O189 O 0.24825 0.77203 0.40084 0.0
O190 O 0.28382 0.82697 0.56196 0.0
O191 O 0.22233 0.79025 0.5718 0.0
H192 H 0.09618 0.69116 0.33975 0.0
H193 H 0.03486 0.66202 0.26371 0.0
H194 H 0.04909 0.76616 0.17348 0.0
H195 H 0.11012 0.79531 0.24921 0.0
H196 H 0.3673 0.85004 0.61948 0.0
H197 H 0.41038 0.83736 0.71569 0.0
H198 H 0.46627 0.85063 0.38865 0.0
H199 H 0.42385 0.86463 0.29333 0.0
Nd200 Nd 0.43122 0.20114 0.70334 0.0
Nd201 Nd 0.48911 0.29101 0.70297 0.0
C202 C 0.40649 0.13068 0.6957 0.0
C203 C 0.38105 0.09451 0.64816 0.0
C204 C 0.37868 0.08712 0.52831 0.0
C205 C 0.35719 0.05168 0.48782 0.0
C206 C 0.33757 0.02293 0.56616 0.0
C207 C 0.34011 0.03057 0.68575 0.0
C208 C 0.36143 0.06583 0.72599 0.0
C209 C 0.39723 0.24248 0.70939 0.0
C210 C 0.45603 0.24649 0.45695 0.0
C211 C 0.52164 0.36206 0.71637 0.0
C212 C 0.55682 0.38987 0.76132 0.0
C213 C 0.56012 0.42046 0.81789 0.0
C214 C 0.59281 0.44544 0.86878 0.0
C215 C 0.62267 0.4401 0.86406 0.0
C216 C 0.61934 0.40975 0.80536 0.0
C217 C 0.58681 0.38489 0.75496 0.0
C218 C 0.52365 0.25081 0.70357 0.0
C219 C 0.46165 0.24518 0.94934 0.0
O220 O 0.4325 0.15417 0.62801 0.0
O221 O 0.39439 0.14551 0.77032 0.0
O222 O 0.37948 0.20732 0.70598 0.0
O223 O 0.43019 0.25251 0.70308 0.0
O224 O 0.44264 0.21507 0.51125 0.0
O225 O 0.47064 0.27802 0.5118 0.0
O226 O 0.4985 0.3405 0.79476 0.0
O227 O 0.52241 0.34499 0.62252 0.0
O228 O 0.54071 0.28579 0.70467 0.0
O229 O 0.49046 0.23988 0.70564 0.0
O230 O 0.47541 0.27681 0.89583 0.0
O231 O 0.44881 0.21408 0.89345 0.0
H232 H 0.39383 0.10856 0.466 0.0
H233 H 0.35587 0.04677 0.39523 0.0
H234 H 0.32621 1.00908 0.74889 0.0
H235 H 0.36333 0.07055 0.81879 0.0
H236 H 0.53718 0.4246 0.82487 0.0
H237 H 0.59437 0.46826 0.91473 0.0
H238 H 0.64192 0.40502 0.7994 0.0
H239 H 0.58496 0.36142 0.71269 0.0
C240 C 0.34814 0.25783 0.68387 0.0
C241 C 0.38105 0.26563 0.73397 0.0
C242 C 0.33123 0.27799 0.71195 0.0
C243 C 0.34635 0.30652 0.79241 0.0
H244 H 0.33528 0.23588 0.62276 0.0
H245 H 0.30593 0.27096 0.67105 0.0
S246 S 0.42966 0.3344 0.95968 0.0
N247 N 0.42641 0.30186 0.87469 0.0
N248 N 0.3949 0.3394 0.92821 0.0
C249 C 0.37901 0.31415 0.84417 0.0
C250 C 0.39624 0.29379 0.81492 0.0
C251 C 0.11331 0.34087 0.1677 0.0
C252 C 0.12933 0.3699 0.08863 0.0
C253 C 0.07687 0.3252 0.20049 0.0
C254 C 0.05472 0.33799 0.15656 0.0
H255 H 0.1291 0.33018 0.20559 0.0
H256 H 0.06602 0.30292 0.26176 0.0
S257 S 0.08361 0.41378 0.94721 0.0
N258 N 0.12016 0.41065 0.96561 0.0
N259 N 0.05184 0.38186 1.02955 0.0
C260 C 0.07027 0.36677 0.07601 0.0
C261 C 0.10749 0.38259 0.04174 0.0
C262 C 0.75165 0.09903 0.36362 0.0
C263 C 0.77729 0.12501 0.43824 0.0
C264 C 0.72928 0.06302 0.40043 0.0
C265 C 0.73108 0.0519 0.51418 0.0
H266 H 0.74925 0.10644 0.27561 0.0
H267 H 0.71027 0.04379 0.33976 0.0
S268 S 0.7927 0.10981 0.74463 0.0
N269 N 0.80257 0.13711 0.63193 0.0
N270 N 0.76042 0.07007 0.70112 0.0
C271 C 0.75617 0.07785 0.58999 0.0
C272 C 0.77927 0.1142 0.55207 0.0
C273 C 0.6599 0.73844 0.75011 0.0
C274 C 0.67071 0.77175 0.80482 0.0
C275 C 0.67586 0.71745 0.77806 0.0
C276 C 0.70341 0.72926 0.86067 0.0
H277 H 0.63923 0.72868 0.68467 0.0
H278 H 0.66715 0.69224 0.73314 0.0
S279 S 0.7393 0.81262 1.03569 0.0
N280 N 0.70921 0.81409 0.95119 0.0
N281 N 0.73906 0.77503 1.00182 0.0
C282 C 0.71371 0.76194 0.91775 0.0
C283 C 0.6974 0.78305 0.89032 0.0
C284 C 0.97707 0.70844 0.2306 0.0
C285 C 0.99819 0.69483 0.18191 0.0
C286 C 0.94035 0.69314 0.20533 0.0
C287 C 0.92311 0.66378 0.12919 0.0
H288 H 0.98896 0.73091 0.29016 0.0
H289 H 0.92541 0.70463 0.24578 0.0
S290 S 0.9663 0.61837 0.97661 0.0
N291 N 0.99913 0.65025 0.05323 0.0
N292 N 0.93018 0.62184 1.00417 0.0
C293 C 0.94386 0.64991 0.07932 0.0
C294 C 0.98131 0.66529 0.10621 0.0
C295 C 0.32858 0.96978 0.44408 0.0
C296 C 0.31485 0.98494 0.52472 0.0
C297 C 0.30831 0.93324 0.41118 0.0
C298 C 0.27356 0.91047 0.45772 0.0
H299 H 0.35558 0.98599 0.40855 0.0
H300 H 0.32028 0.9226 0.35098 0.0
S301 S 0.22373 0.93786 0.66197 0.0
N302 N 0.26305 0.97484 0.64212 0.0
N303 N 0.22547 0.90661 0.58266 0.0
C304 C 0.25917 0.92566 0.53545 0.0
C305 C 0.27964 0.96271 0.56828 0.0
C306 C 0.24488 0.4299 0.57531 0.0
C307 C 0.22246 0.43967 0.6372 0.0
C308 C 0.24822 0.43285 0.45399 0.0
C309 C 0.22944 0.44588 0.38917 0.0
H310 H 0.26014 0.41987 0.62071 0.0
H311 H 0.26567 0.42473 0.41094 0.0
S312 S 0.16737 0.47558 0.50934 0.0
N313 N 0.18127 0.46318 0.6242 0.0
N314 N 0.18751 0.46885 0.39686 0.0
C315 C 0.20696 0.45592 0.45005 0.0
C316 C 0.20345 0.45272 0.57367 0.0
C317 C 0.82568 0.24123 0.91715 0.0
C318 C 0.79796 0.21145 0.97758 0.0
C319 C 0.82495 0.24469 0.79613 0.0
C320 C 0.79645 0.21856 0.73006 0.0
H321 H 0.84794 0.26256 0.96372 0.0
H322 H 0.84687 0.26824 0.75435 0.0
S323 S 0.71833 0.13403 0.84481 0.0
N324 N 0.74195 0.15443 0.9609 0.0
N325 N 0.74047 0.16081 0.73422 0.0
C326 C 0.7688 0.18828 0.78913 0.0
C327 C 0.7696 0.18475 0.91244 0.0
C328 C 0.60058 0.82226 0.28663 0.0
C329 C 0.59897 0.79289 0.34738 0.0
C330 C 0.59914 0.82255 0.16489 0.0
C331 C 0.59599 0.79347 0.09887 0.0
H332 H 0.60252 0.84514 0.33332 0.0
H333 H 0.60019 0.84565 0.12251 0.0
S334 S 0.59347 0.71111 0.21514 0.0
N335 N 0.59582 0.7347 0.33137 0.0
N336 N 0.59323 0.73517 0.10375 0.0
C337 C 0.595 0.76417 0.15852 0.0
C338 C 0.59646 0.7639 0.2823 0.0
C339 C 0.811 0.61023 0.61998 0.0
C340 C 0.82547 0.59193 0.68112 0.0
C341 C 0.80874 0.60884 0.49834 0.0
C342 C 0.82079 0.58904 0.43276 0.0
H343 H 0.80164 0.62615 0.66616 0.0
H344 H 0.79806 0.62397 0.4555 0.0
S345 S 0.85795 0.53359 0.55101 0.0
N346 N 0.8501 0.55162 0.66649 0.0
N347 N 0.84569 0.5488 0.43908 0.0
C348 C 0.83446 0.56984 0.49303 0.0
C349 C 0.83687 0.57135 0.61669 0.0
C350 C 0.22371 0.791 0.81939 0.0
C351 C 0.25498 0.81197 0.75182 0.0
C352 C 0.22364 0.79488 0.94031 0.0
C353 C 0.25481 0.82002 0.99921 0.0
H354 H 0.19892 0.77135 0.77878 0.0
H355 H 0.19884 0.77777 0.98784 0.0
S356 S 0.34381 0.8822 0.86293 0.0
N357 N 0.31802 0.85942 0.75336 0.0
N358 N 0.31788 0.86647 0.98003 0.0
C359 C 0.28627 0.84135 0.9328 0.0
C360 C 0.28638 0.83735 0.80952 0.0
C361 C 0.47675 0.27766 0.26295 0.0
C362 C 0.45571 0.24584 0.32753 0.0
C363 C 0.47866 0.27713 0.14117 0.0
C364 C 0.45972 0.24474 0.0786 0.0
H365 H 0.49238 0.30319 0.30661 0.0
H366 H 0.49543 0.30241 0.09599 0.0
S367 S 0.3986 0.15411 0.2054 0.0
N368 N 0.4139 0.18107 0.31842 0.0
N369 N 0.41779 0.18018 0.09088 0.0
C370 C 0.43807 0.21279 0.14194 0.0
C371 C 0.43597 0.21332 0.26579 0.0
C372 C 0.22562 0.67284 0.14124 0.0
C373 C 0.21026 0.6447 0.22354 0.0
C374 C 0.23903 0.70879 0.1738 0.0
C375 C 0.23718 0.71823 0.28972 0.0
H376 H 0.22845 0.66719 0.05118 0.0
H377 H 0.25157 0.72952 0.10743 0.0
S378 S 0.1975 0.65478 0.53807 0.0
N379 N 0.19262 0.6286 0.426 0.0
N380 N 0.21736 0.69647 0.48667 0.0
C381 C 0.22066 0.69041 0.37259 0.0
C382 C 0.20746 0.6536 0.33969 0.0
C383 C 0.55174 0.18915 0.55792 0.0
C384 C 0.58642 0.20165 0.60337 0.0
C385 C 0.52971 0.20288 0.59764 0.0
C386 C 0.54178 0.22959 0.68366 0.0
H387 H 0.54242 0.17026 0.48655 0.0
H388 H 0.50435 0.19449 0.55499 0.0
S389 S 0.62727 0.26663 0.84474 0.0
N390 N 0.6292 0.23841 0.75093 0.0
N391 N 0.58845 0.26494 0.8221 0.0
C392 C 0.57515 0.24037 0.7351 0.0
C393 C 0.5973 0.2262 0.69596 0.0
C394 C 0.33695 0.5393 0.82782 0.0
C395 C 0.32514 0.52128 0.93538 0.0
C396 C 0.37362 0.5613 0.80146 0.0
C397 C 0.40019 0.56664 0.88205 0.0
H398 H 0.31759 0.53688 0.76359 0.0
H399 H 0.38118 0.57525 0.71849 0.0
S400 S 0.3838 0.52394 0.17361 0.0
N401 N 0.34299 0.50865 0.12105 0.0
N402 N 0.4123 0.55067 0.0722 0.0
C403 C 0.38892 0.54806 0.98904 0.0
C404 C 0.35132 0.5251 1.01536 0.0
C405 C 0.82898 0.34068 0.35878 0.0
C406 C 0.81344 0.31309 0.27589 0.0
C407 C 0.84278 0.37707 0.32633 0.0
C408 C 0.84159 0.38681 0.2101 0.0
H409 H 0.82869 0.33399 0.44964 0.0
H410 H 0.85284 0.39746 0.39325 0.0
S411 S 0.81001 0.32502 0.95806 0.0
N412 N 0.80195 0.29833 0.07138 0.0
N413 N 0.82832 0.36627 1.01059 0.0
C414 C 0.82858 0.35956 0.12589 0.0
C415 C 0.8144 0.32281 0.1588 0.0
C416 C 0.5025 0.84877 0.59498 0.0
C417 C 0.46482 0.82992 0.61375 0.0
C418 C 0.5243 0.83509 0.63534 0.0
C419 C 0.50906 0.80182 0.69434 0.0
H420 H 0.51512 0.87389 0.54652 0.0
H421 H 0.55292 0.84975 0.61524 0.0
S422 S 0.41233 0.74269 0.77044 0.0
N423 N 0.41371 0.77683 0.69939 0.0
N424 N 0.45444 0.75138 0.77504 0.0
C425 C 0.47173 0.78346 0.71737 0.0
C426 C 0.44967 0.79742 0.67719 0.0
C427 C 0.70756 0.47126 0.03862 0.0
C428 C 0.72715 0.50865 1.01828 0.0
C429 C 0.67318 0.4498 0.99294 0.0
C430 C 0.65697 0.46472 0.92394 0.0
H431 H 0.71946 0.45816 0.0868 0.0
H432 H 0.65962 0.421 1.00889 0.0
S433 S 0.69613 0.5617 0.85031 0.0
N434 N 0.72713 0.56021 0.93031 0.0
N435 N 0.66246 0.51973 0.84254 0.0
C436 C 0.67545 0.50242 0.90779 0.0
C437 C 0.71058 0.52442 0.95536 0.0
loop_
_geom_bond_atom_site_label_1
_geom_bond_atom_site_label_2
_geom_bond_distance
_geom_bond_site_symmetry_2
_ccdc_geom_bond_type
Nd0 C2 2.836 1_554 S
Nd0 O20 2.500 1_554 S
Nd0 O21 2.492 1_554 S
Nd0 O22 2.487 . S
Nd0 O23 2.682 . S
Nd0 O24 2.410 1_554 S
Nd0 O29 2.414 1_554 S
Nd0 O31 2.424 . S
Nd1 C11 2.836 1_556 S
Nd1 O23 2.414 1_556 S
Nd1 O25 2.424 . S
Nd1 O26 2.500 1_556 S
Nd1 O27 2.492 1_556 S
Nd1 O28 2.487 . S
Nd1 O29 2.682 . S
Nd1 O30 2.410 1_556 S
C2 Nd0 2.836 1_556 S
C2 C3 1.498 . S
C2 O20 1.258 . S
C2 O21 1.239 . S
C3 C2 1.498 . S
C3 C4 1.366 . S
C3 C8 1.407 . S
C4 C3 1.366 . S
C4 C5 1.392 . S
C4 H32 0.930 . S
C5 C4 1.392 . S
C5 C6 1.398 . S
C5 H33 0.929 . S
C6 C5 1.398 . S
C6 C7 1.352 . S
C7 C6 1.352 . S
C7 C8 1.384 . S
C7 H34 0.930 . S
C8 C3 1.407 . S
C8 C7 1.384 . S
C8 H35 0.929 . S
C9 O22 1.241 . S
C9 O23 1.273 . S
C10 O24 1.251 . S
C10 O25 1.268 . S
C11 Nd1 2.836 1_554 S
C11 C12 1.498 . S
C11 O26 1.258 . S
C11 O27 1.239 . S
C12 C11 1.498 . S
C12 C13 1.366 . S
C12 C17 1.407 . S
C13 C12 1.366 . S
C13 C14 1.392 . S
C13 H36 0.930 . S
C14 C13 1.392 . S
C14 C15 1.398 . S
C14 H37 0.929 . S
C15 C14 1.398 . S
C15 C16 1.352 . S
C16 C15 1.352 . S
C16 C17 1.384 . S
C16 H38 0.930 . S
C17 C12 1.407 . S
C17 C16 1.384 . S
C17 H39 0.929 . S
C18 O28 1.241 . S
C18 O29 1.273 . S
C19 O30 1.251 . S
C19 O31 1.268 . S
O20 Nd0 2.500 1_556 S
O20 C2 1.258 . S
O21 Nd0 2.492 1_556 S
O21 C2 1.239 . S
O22 Nd0 2.487 . S
O22 C9 1.241 . S
O23 Nd0 2.682 . S
O23 Nd1 2.414 1_554 S
O23 C9 1.273 . S
O24 Nd0 2.410 1_556 S
O24 C10 1.251 . S
O25 Nd1 2.424 . S
O25 C10 1.268 . S
O26 Nd1 2.500 1_554 S
O26 C11 1.258 . S
O27 Nd1 2.492 1_554 S
O27 C11 1.239 . S
O28 Nd1 2.487 . S
O28 C18 1.241 . S
O29 Nd0 2.414 1_556 S
O29 Nd1 2.682 . S
O29 C18 1.273 . S
O30 Nd1 2.410 1_554 S
O30 C19 1.251 . S
O31 Nd0 2.424 . S
O31 C19 1.268 . S
H32 C4 0.930 . S
H33 C5 0.929 . S
H34 C7 0.930 . S
H35 C8 0.929 . S
H36 C13 0.930 . S
H37 C14 0.929 . S
H38 C16 0.930 . S
H39 C17 0.929 . S
Nd40 C42 2.836 . S
Nd40 O60 2.500 . S
Nd40 O61 2.492 . S
Nd40 O62 2.487 . S
Nd40 O63 2.682 . S
Nd40 O64 2.410 . S
Nd40 O69 2.414 . S
Nd40 O71 2.424 . S
Nd41 C51 2.836 . S
Nd41 O63 2.414 . S
Nd41 O65 2.424 . S
Nd41 O66 2.500 . S
Nd41 O67 2.492 . S
Nd41 O68 2.487 . S
Nd41 O69 2.682 . S
Nd41 O70 2.410 . S
C42 Nd40 2.836 . S
C42 C43 1.498 . S
C42 O60 1.258 . S
C42 O61 1.239 . S
C43 C42 1.498 . S
C43 C44 1.366 . S
C43 C48 1.407 . S
C44 C43 1.366 . S
C44 C45 1.392 . S
C44 H72 0.930 . S
C45 C44 1.392 . S
C45 C46 1.398 . S
C45 H73 0.929 1_554 S
C46 C45 1.398 . S
C46 C47 1.352 . S
C47 C46 1.352 . S
C47 C48 1.384 . S
C47 H74 0.930 . S
C48 C43 1.407 . S
C48 C47 1.384 . S
C48 H75 0.929 . S
C49 O62 1.241 . S
C49 O63 1.273 . S
C50 O64 1.251 . S
C50 O65 1.268 . S
C51 Nd41 2.836 . S
C51 C52 1.498 . S
C51 O66 1.258 . S
C51 O67 1.239 . S
C52 C51 1.498 . S
C52 C53 1.366 . S
C52 C57 1.407 . S
C53 C52 1.366 . S
C53 C54 1.392 . S
C53 H76 0.930 . S
C54 C53 1.392 . S
C54 C55 1.398 . S
C54 H77 0.929 . S
C55 C54 1.398 . S
C55 C56 1.352 . S
C56 C55 1.352 . S
C56 C57 1.384 . S
C56 H78 0.930 . S
C57 C52 1.407 . S
C57 C56 1.384 . S
C57 H79 0.929 . S
C58 O68 1.241 . S
C58 O69 1.273 . S
C59 O70 1.251 . S
C59 O71 1.268 . S
O60 Nd40 2.500 . S
O60 C42 1.258 . S
O61 Nd40 2.492 . S
O61 C42 1.239 . S
O62 Nd40 2.487 . S
O62 C49 1.241 . S
O63 Nd40 2.682 . S
O63 Nd41 2.414 . S
O63 C49 1.273 . S
O64 Nd40 2.410 . S
O64 C50 1.251 . S
O65 Nd41 2.424 . S
O65 C50 1.268 . S
O66 Nd41 2.500 . S
O66 C51 1.258 . S
O67 Nd41 2.492 . S
O67 C51 1.239 . S
O68 Nd41 2.487 . S
O68 C58 1.241 . S
O69 Nd40 2.414 . S
O69 Nd41 2.682 . S
O69 C58 1.273 . S
O70 Nd41 2.410 . S
O70 C59 1.251 . S
O71 Nd40 2.424 . S
O71 C59 1.268 . S
H72 C44 0.930 . S
H73 C45 0.929 1_556 S
H74 C47 0.930 . S
H75 C48 0.929 . S
H76 C53 0.930 . S
H77 C54 0.929 . S
H78 C56 0.930 . S
H79 C57 0.929 . S
Nd80 C82 2.836 . S
Nd80 O100 2.500 . S
Nd80 O101 2.492 . S
Nd80 O102 2.487 . S
Nd80 O103 2.682 . S
Nd80 O104 2.410 . S
Nd80 O109 2.414 . S
Nd80 O111 2.424 . S
Nd81 C91 2.836 . S
Nd81 O103 2.414 . S
Nd81 O105 2.424 . S
Nd81 O106 2.500 . S
Nd81 O107 2.492 . S
Nd81 O108 2.487 . S
Nd81 O109 2.682 . S
Nd81 O110 2.410 . S
C82 Nd80 2.836 . S
C82 C83 1.498 . S
C82 O100 1.258 . S
C82 O101 1.239 . S
C83 C82 1.498 . S
C83 C84 1.366 . S
C83 C88 1.407 . S
C84 C83 1.366 . S
C84 C85 1.392 . S
C84 H112 0.930 . S
C85 C84 1.392 . S
C85 C86 1.398 . S
C85 H113 0.929 . S
C86 C85 1.398 . S
C86 C87 1.352 . S
C87 C86 1.352 . S
C87 C88 1.384 . S
C87 H114 0.930 . S
C88 C83 1.407 . S
C88 C87 1.384 . S
C88 H115 0.929 . S
C89 O102 1.241 . S
C89 O103 1.273 . S
C90 O104 1.251 . S
C90 O105 1.268 . S
C91 Nd81 2.836 . S
C91 C92 1.498 . S
C91 O106 1.258 . S
C91 O107 1.239 . S
C92 C91 1.498 . S
C92 C93 1.366 . S
C92 C97 1.407 . S
C93 C92 1.366 . S
C93 C94 1.392 . S
C93 H116 0.930 . S
C94 C93 1.392 . S
C94 C95 1.398 . S
C94 H117 0.929 1_556 S
C95 C94 1.398 . S
C95 C96 1.352 . S
C96 C95 1.352 . S
C96 C97 1.384 . S
C96 H118 0.930 . S
C97 C92 1.407 . S
C97 C96 1.384 . S
C97 H119 0.929 . S
C98 O108 1.241 . S
C98 O109 1.273 . S
C99 O110 1.251 . S
C99 O111 1.268 . S
O100 Nd80 2.500 . S
O100 C82 1.258 . S
O101 Nd80 2.492 . S
O101 C82 1.239 . S
O102 Nd80 2.487 . S
O102 C89 1.241 . S
O103 Nd80 2.682 . S
O103 Nd81 2.414 . S
O103 C89 1.273 . S
O104 Nd80 2.410 . S
O104 C90 1.251 . S
O105 Nd81 2.424 . S
O105 C90 1.268 . S
O106 Nd81 2.500 . S
O106 C91 1.258 . S
O107 Nd81 2.492 . S
O107 C91 1.239 . S
O108 Nd81 2.487 . S
O108 C98 1.241 . S
O109 Nd80 2.414 . S
O109 Nd81 2.682 . S
O109 C98 1.273 . S
O110 Nd81 2.410 . S
O110 C99 1.251 . S
O111 Nd80 2.424 . S
O111 C99 1.268 . S
H112 C84 0.930 . S
H113 C85 0.929 . S
H114 C87 0.930 . S
H115 C88 0.929 . S
H116 C93 0.930 . S
H117 C94 0.929 1_554 S
H118 C96 0.930 . S
H119 C97 0.929 . S
Nd120 C122 2.836 1_554 S
Nd120 O140 2.500 1_554 S
Nd120 O141 2.492 1_554 S
Nd120 O142 2.487 . S
Nd120 O143 2.682 . S
Nd120 O144 2.410 1_554 S
Nd120 O149 2.414 1_554 S
Nd120 O151 2.424 . S
Nd121 C131 2.836 1_556 S
Nd121 O143 2.414 1_556 S
Nd121 O145 2.424 . S
Nd121 O146 2.500 1_556 S
Nd121 O147 2.492 1_556 S
Nd121 O148 2.487 . S
Nd121 O149 2.682 . S
Nd121 O150 2.410 1_556 S
C122 Nd120 2.836 1_556 S
C122 C123 1.498 . S
C122 O140 1.258 . S
C122 O141 1.239 . S
C123 C122 1.498 . S
C123 C124 1.366 . S
C123 C128 1.407 . S
C124 C123 1.366 . S
C124 C125 1.392 . S
C124 H152 0.930 . S
C125 C124 1.392 . S
C125 C126 1.398 . S
C125 H153 0.929 . S
C126 C125 1.398 . S
C126 C127 1.352 . S
C127 C126 1.352 . S
C127 C128 1.384 . S
C127 H154 0.930 . S
C128 C123 1.407 . S
C128 C127 1.384 . S
C128 H155 0.929 . S
C129 O142 1.241 . S
C129 O143 1.273 . S
C130 O144 1.251 . S
C130 O145 1.268 . S
C131 Nd121 2.836 1_554 S
C131 C132 1.498 . S
C131 O146 1.258 . S
C131 O147 1.239 . S
C132 C131 1.498 . S
C132 C133 1.366 . S
C132 C137 1.407 . S
C133 C132 1.366 . S
C133 C134 1.392 . S
C133 H156 0.930 . S
C134 C133 1.392 . S
C134 C135 1.398 . S
C134 H157 0.929 . S
C135 C134 1.398 . S
C135 C136 1.352 . S
C136 C135 1.352 . S
C136 C137 1.384 . S
C136 H158 0.930 . S
C137 C132 1.407 . S
C137 C136 1.384 . S
C137 H159 0.929 . S
C138 O148 1.241 . S
C138 O149 1.273 . S
C139 O150 1.251 . S
C139 O151 1.268 . S
O140 Nd120 2.500 1_556 S
O140 C122 1.258 . S
O141 Nd120 2.492 1_556 S
O141 C122 1.239 . S
O142 Nd120 2.487 . S
O142 C129 1.241 . S
O143 Nd120 2.682 . S
O143 Nd121 2.414 1_554 S
O143 C129 1.273 . S
O144 Nd120 2.410 1_556 S
O144 C130 1.251 . S
O145 Nd121 2.424 . S
O145 C130 1.268 . S
O146 Nd121 2.500 1_554 S
O146 C131 1.258 . S
O147 Nd121 2.492 1_554 S
O147 C131 1.239 . S
O148 Nd121 2.487 . S
O148 C138 1.241 . S
O149 Nd120 2.414 1_556 S
O149 Nd121 2.682 . S
O149 C138 1.273 . S
O150 Nd121 2.410 1_554 S
O150 C139 1.251 . S
O151 Nd120 2.424 . S
O151 C139 1.268 . S
H152 C124 0.930 . S
H153 C125 0.929 . S
H154 C127 0.930 . S
H155 C128 0.929 . S
H156 C133 0.930 . S
H157 C134 0.929 . S
H158 C136 0.930 . S
H159 C137 0.929 . S
Nd160 C162 2.836 . S
Nd160 O180 2.500 . S
Nd160 O181 2.492 . S
Nd160 O182 2.487 . S
Nd160 O183 2.682 . S
Nd160 O184 2.410 . S
Nd160 O189 2.414 . S
Nd160 O191 2.424 . S
Nd161 C171 2.836 . S
Nd161 O183 2.414 . S
Nd161 O185 2.424 . S
Nd161 O186 2.500 . S
Nd161 O187 2.492 . S
Nd161 O188 2.487 . S
Nd161 O189 2.682 . S
Nd161 O190 2.410 . S
C162 Nd160 2.836 . S
C162 C163 1.498 . S
C162 O180 1.258 . S
C162 O181 1.239 . S
C163 C162 1.498 . S
C163 C164 1.366 . S
C163 C168 1.407 . S
C164 C163 1.366 . S
C164 C165 1.392 . S
C164 H192 0.930 . S
C165 C164 1.392 . S
C165 C166 1.398 . S
C165 H193 0.929 1_554 S
C166 C165 1.398 . S
C166 C167 1.352 . S
C167 C166 1.352 . S
C167 C168 1.384 . S
C167 H194 0.930 . S
C168 C163 1.407 . S
C168 C167 1.384 . S
C168 H195 0.929 . S
C169 O182 1.241 . S
C169 O183 1.273 . S
C170 O184 1.251 . S
C170 O185 1.268 . S
C171 Nd161 2.836 . S
C171 C172 1.498 . S
C171 O186 1.258 . S
C171 O187 1.239 . S
C172 C171 1.498 . S
C172 C173 1.366 . S
C172 C177 1.407 . S
C173 C172 1.366 . S
C173 C174 1.392 . S
C173 H196 0.930 . S
C174 C173 1.392 . S
C174 C175 1.398 . S
C174 H197 0.929 . S
C175 C174 1.398 . S
C175 C176 1.352 . S
C176 C175 1.352 . S
C176 C177 1.384 . S
C176 H198 0.930 . S
C177 C172 1.407 . S
C177 C176 1.384 . S
C177 H199 0.929 . S
C178 O188 1.241 . S
C178 O189 1.273 . S
C179 O190 1.251 . S
C179 O191 1.268 . S
O180 Nd160 2.500 . S
O180 C162 1.258 . S
O181 Nd160 2.492 . S
O181 C162 1.239 . S
O182 Nd160 2.487 . S
O182 C169 1.241 . S
O183 Nd160 2.682 . S
O183 Nd161 2.414 . S
O183 C169 1.273 . S
O184 Nd160 2.410 . S
O184 C170 1.251 . S
O185 Nd161 2.424 . S
O185 C170 1.268 . S
O186 Nd161 2.500 . S
O186 C171 1.258 . S
O187 Nd161 2.492 . S
O187 C171 1.239 . S
O188 Nd161 2.487 . S
O188 C178 1.241 . S
O189 Nd160 2.414 . S
O189 Nd161 2.682 . S
O189 C178 1.273 . S
O190 Nd161 2.410 . S
O190 C179 1.251 . S
O191 Nd160 2.424 . S
O191 C179 1.268 . S
H192 C164 0.930 . S
H193 C165 0.929 1_556 S
H194 C167 0.930 . S
H195 C168 0.929 . S
H196 C173 0.930 . S
H197 C174 0.929 . S
H198 C176 0.930 . S
H199 C177 0.929 . S
Nd200 C202 2.836 . S
Nd200 O220 2.500 . S
Nd200 O221 2.492 . S
Nd200 O222 2.487 . S
Nd200 O223 2.682 . S
Nd200 O224 2.410 . S
Nd200 O229 2.414 . S
Nd200 O231 2.424 . S
Nd201 C211 2.836 . S
Nd201 O223 2.414 . S
Nd201 O225 2.424 . S
Nd201 O226 2.500 . S
Nd201 O227 2.492 . S
Nd201 O228 2.487 . S
Nd201 O229 2.682 . S
Nd201 O230 2.410 . S
C202 Nd200 2.836 . S
C202 C203 1.498 . S
C202 O220 1.258 . S
C202 O221 1.239 . S
C203 C202 1.498 . S
C203 C204 1.366 . S
C203 C208 1.407 . S
C204 C203 1.366 . S
C204 C205 1.392 . S
C204 H232 0.930 . S
C205 C204 1.392 . S
C205 C206 1.398 . S
C205 H233 0.929 . S
C206 C205 1.398 . S
C206 C207 1.352 . S
C207 C206 1.352 . S
C207 C208 1.384 . S
C207 H234 0.930 . S
C208 C203 1.407 . S
C208 C207 1.384 . S
C208 H235 0.929 . S
C209 O222 1.241 . S
C209 O223 1.273 . S
C210 O224 1.251 . S
C210 O225 1.268 . S
C211 Nd201 2.836 . S
C211 C212 1.498 . S
C211 O226 1.258 . S
C211 O227 1.239 . S
C212 C211 1.498 . S
C212 C213 1.366 . S
C212 C217 1.407 . S
C213 C212 1.366 . S
C213 C214 1.392 . S
C213 H236 0.930 . S
C214 C213 1.392 . S
C214 C215 1.398 . S
C214 H237 0.929 1_556 S
C215 C214 1.398 . S
C215 C216 1.352 . S
C216 C215 1.352 . S
C216 C217 1.384 . S
C216 H238 0.930 . S
C217 C212 1.407 . S
C217 C216 1.384 . S
C217 H239 0.929 . S
C218 O228 1.241 . S
C218 O229 1.273 . S
C219 O230 1.251 . S
C219 O231 1.268 . S
O220 Nd200 2.500 . S
O220 C202 1.258 . S
O221 Nd200 2.492 . S
O221 C202 1.239 . S
O222 Nd200 2.487 . S
O222 C209 1.241 . S
O223 Nd200 2.682 . S
O223 Nd201 2.414 . S
O223 C209 1.273 . S
O224 Nd200 2.410 . S
O224 C210 1.251 . S
O225 Nd201 2.424 . S
O225 C210 1.268 . S
O226 Nd201 2.500 . S
O226 C211 1.258 . S
O227 Nd201 2.492 . S
O227 C211 1.239 . S
O228 Nd201 2.487 . S
O228 C218 1.241 . S
O229 Nd200 2.414 . S
O229 Nd201 2.682 . S
O229 C218 1.273 . S
O230 Nd201 2.410 . S
O230 C219 1.251 . S
O231 Nd200 2.424 . S
O231 C219 1.268 . S
H232 C204 0.930 . S
H233 C205 0.929 . S
H234 C207 0.930 . S
H235 C208 0.929 . S
H236 C213 0.930 . S
H237 C214 0.929 1_554 S
H238 C216 0.930 . S
H239 C217 0.929 . S
C240 C241 1.369 . S
C240 C242 1.419 . S
C240 H244 0.930 . S
C241 C240 1.369 . S
C241 C250 1.429 . S
C242 C240 1.419 . S
C242 C243 1.363 . S
C242 H245 0.929 . S
C243 C242 1.363 . S
C243 C249 1.428 . S
H244 C240 0.930 . S
H245 C242 0.929 . S
S246 N247 1.613 . S
S246 N248 1.610 . S
N247 S246 1.613 . S
N247 C250 1.350 . S
N248 S246 1.610 . S
N248 C249 1.351 . S
C249 C243 1.428 . S
C249 N248 1.351 . S
C249 C250 1.434 . S
C250 C241 1.429 . S
C250 N247 1.350 . S
C250 C249 1.434 . S
C251 C252 1.369 1_556 S
C251 C253 1.419 . S
C251 H255 0.930 . S
C252 C251 1.369 1_554 S
C252 C261 1.429 . S
C253 C251 1.419 . S
C253 C254 1.363 1_556 S
C253 H256 0.929 . S
C254 C253 1.363 1_554 S
C254 C260 1.428 . S
H255 C251 0.930 . S
H256 C253 0.929 . S
S257 N258 1.613 . S
S257 N259 1.610 . S
N258 S257 1.613 . S
N258 C261 1.350 . S
N259 S257 1.610 . S
N259 C260 1.351 . S
C260 C254 1.428 . S
C260 N259 1.351 . S
C260 C261 1.434 . S
C261 C252 1.429 . S
C261 N258 1.350 . S
C261 C260 1.434 . S
C262 C263 1.369 . S
C262 C264 1.419 . S
C262 H266 0.930 . S
C263 C262 1.369 . S
C263 C272 1.429 . S
C264 C262 1.419 . S
C264 C265 1.363 . S
C264 H267 0.929 . S
C265 C264 1.363 . S
C265 C271 1.428 . S
H266 C262 0.930 . S
H267 C264 0.929 . S
S268 N269 1.613 . S
S268 N270 1.610 . S
N269 S268 1.613 . S
N269 C272 1.350 . S
N270 S268 1.610 . S
N270 C271 1.351 . S
C271 C265 1.428 . S
C271 N270 1.351 . S
C271 C272 1.434 . S
C272 C263 1.429 . S
C272 N269 1.350 . S
C272 C271 1.434 . S
C273 C274 1.369 . S
C273 C275 1.419 . S
C273 H277 0.930 . S
C274 C273 1.369 . S
C274 C283 1.429 . S
C275 C273 1.419 . S
C275 C276 1.363 . S
C275 H278 0.929 . S
C276 C275 1.363 . S
C276 C282 1.428 . S
H277 C273 0.930 . S
H278 C275 0.929 . S
S279 N280 1.613 . S
S279 N281 1.610 . S
N280 S279 1.613 . S
N280 C283 1.350 . S
N281 S279 1.610 . S
N281 C282 1.351 . S
C282 C276 1.428 . S
C282 N281 1.351 . S
C282 C283 1.434 . S
C283 C274 1.429 . S
C283 N280 1.350 . S
C283 C282 1.434 . S
C284 C285 1.369 . S
C284 C286 1.419 . S
C284 H288 0.930 . S
C285 C284 1.369 . S
C285 C294 1.429 1_554 S
C286 C284 1.419 . S
C286 C287 1.363 . S
C286 H289 0.929 . S
C287 C286 1.363 . S
C287 C293 1.428 1_554 S
H288 C284 0.930 . S
H289 C286 0.929 . S
S290 N291 1.613 . S
S290 N292 1.610 . S
N291 S290 1.613 . S
N291 C294 1.350 . S
N292 S290 1.610 . S
N292 C293 1.351 . S
C293 C287 1.428 1_556 S
C293 N292 1.351 . S
C293 C294 1.434 . S
C294 C285 1.429 1_556 S
C294 N291 1.350 . S
C294 C293 1.434 . S
C295 C296 1.369 . S
C295 C297 1.419 . S
C295 H299 0.930 . S
C296 C295 1.369 . S
C296 C305 1.429 . S
C297 C295 1.419 . S
C297 C298 1.363 . S
C297 H300 0.929 . S
C298 C297 1.363 . S
C298 C304 1.428 . S
H299 C295 0.930 . S
H300 C297 0.929 . S
S301 N302 1.613 . S
S301 N303 1.610 . S
N302 S301 1.613 . S
N302 C305 1.350 . S
N303 S301 1.610 . S
N303 C304 1.351 . S
C304 C298 1.428 . S
C304 N303 1.351 . S
C304 C305 1.434 . S
C305 C296 1.429 . S
C305 N302 1.350 . S
C305 C304 1.434 . S
C306 C307 1.369 . S
C306 C308 1.419 . S
C306 H310 0.930 . S
C307 C306 1.369 . S
C307 C316 1.429 . S
C308 C306 1.419 . S
C308 C309 1.363 . S
C308 H311 0.929 . S
C309 C308 1.363 . S
C309 C315 1.428 . S
H310 C306 0.930 . S
H311 C308 0.929 . S
S312 N313 1.613 . S
S312 N314 1.610 . S
N313 S312 1.613 . S
N313 C316 1.350 . S
N314 S312 1.610 . S
N314 C315 1.351 . S
C315 C309 1.428 . S
C315 N314 1.351 . S
C315 C316 1.434 . S
C316 C307 1.429 . S
C316 N313 1.350 . S
C316 C315 1.434 . S
C317 C318 1.369 . S
C317 C319 1.419 . S
C317 H321 0.930 . S
C318 C317 1.369 . S
C318 C327 1.429 . S
C319 C317 1.419 . S
C319 C320 1.363 . S
C319 H322 0.929 . S
C320 C319 1.363 . S
C320 C326 1.428 . S
H321 C317 0.930 . S
H322 C319 0.929 . S
S323 N324 1.613 . S
S323 N325 1.610 . S
N324 S323 1.613 . S
N324 C327 1.350 . S
N325 S323 1.610 . S
N325 C326 1.351 . S
C326 C320 1.428 . S
C326 N325 1.351 . S
C326 C327 1.434 . S
C327 C318 1.429 . S
C327 N324 1.350 . S
C327 C326 1.434 . S
C328 C329 1.369 . S
C328 C330 1.419 . S
C328 H332 0.930 . S
C329 C328 1.369 . S
C329 C338 1.429 . S
C330 C328 1.419 . S
C330 C331 1.363 . S
C330 H333 0.929 . S
C331 C330 1.363 . S
C331 C337 1.428 . S
H332 C328 0.930 . S
H333 C330 0.929 . S
S334 N335 1.613 . S
S334 N336 1.610 . S
N335 S334 1.613 . S
N335 C338 1.350 . S
N336 S334 1.610 . S
N336 C337 1.351 . S
C337 C331 1.428 . S
C337 N336 1.351 . S
C337 C338 1.434 . S
C338 C329 1.429 . S
C338 N335 1.350 . S
C338 C337 1.434 . S
C339 C340 1.369 . S
C339 C341 1.419 . S
C339 H343 0.930 . S
C340 C339 1.369 . S
C340 C349 1.429 . S
C341 C339 1.419 . S
C341 C342 1.363 . S
C341 H344 0.929 . S
C342 C341 1.363 . S
C342 C348 1.428 . S
H343 C339 0.930 . S
H344 C341 0.929 . S
S345 N346 1.613 . S
S345 N347 1.610 . S
N346 S345 1.613 . S
N346 C349 1.350 . S
N347 S345 1.610 . S
N347 C348 1.351 . S
C348 C342 1.428 . S
C348 N347 1.351 . S
C348 C349 1.434 . S
C349 C340 1.429 . S
C349 N346 1.350 . S
C349 C348 1.434 . S
C350 C351 1.369 . S
C350 C352 1.419 . S
C350 H354 0.930 . S
C351 C350 1.369 . S
C351 C360 1.429 . S
C352 C350 1.419 . S
C352 C353 1.363 . S
C352 H355 0.929 . S
C353 C352 1.363 . S
C353 C359 1.428 . S
H354 C350 0.930 . S
H355 C352 0.929 . S
S356 N357 1.613 . S
S356 N358 1.610 . S
N357 S356 1.613 . S
N357 C360 1.350 . S
N358 S356 1.610 . S
N358 C359 1.351 . S
C359 C353 1.428 . S
C359 N358 1.351 . S
C359 C360 1.434 . S
C360 C351 1.429 . S
C360 N357 1.350 . S
C360 C359 1.434 . S
C361 C362 1.369 . S
C361 C363 1.419 . S
C361 H365 0.930 . S
C362 C361 1.369 . S
C362 C371 1.429 . S
C363 C361 1.419 . S
C363 C364 1.363 . S
C363 H366 0.929 . S
C364 C363 1.363 . S
C364 C370 1.428 . S
H365 C361 0.930 . S
H366 C363 0.929 . S
S367 N368 1.613 . S
S367 N369 1.610 . S
N368 S367 1.613 . S
N368 C371 1.350 . S
N369 S367 1.610 . S
N369 C370 1.351 . S
C370 C364 1.428 . S
C370 N369 1.351 . S
C370 C371 1.434 . S
C371 C362 1.429 . S
C371 N368 1.350 . S
C371 C370 1.434 . S
C372 C373 1.369 . S
C372 C374 1.419 . S
C372 H376 0.930 . S
C373 C372 1.369 . S
C373 C382 1.429 . S
C374 C372 1.419 . S
C374 C375 1.363 . S
C374 H377 0.929 . S
C375 C374 1.363 . S
C375 C381 1.428 . S
H376 C372 0.930 . S
H377 C374 0.929 . S
S378 N379 1.613 . S
S378 N380 1.610 . S
N379 S378 1.613 . S
N379 C382 1.350 . S
N380 S378 1.610 . S
N380 C381 1.351 . S
C381 C375 1.428 . S
C381 N380 1.351 . S
C381 C382 1.434 . S
C382 C373 1.429 . S
C382 N379 1.350 . S
C382 C381 1.434 . S
C383 C384 1.369 . S
C383 C385 1.419 . S
C383 H387 0.930 . S
C384 C383 1.369 . S
C384 C393 1.429 . S
C385 C383 1.419 . S
C385 C386 1.363 . S
C385 H388 0.929 . S
C386 C385 1.363 . S
C386 C392 1.428 . S
H387 C383 0.930 . S
H388 C385 0.929 . S
S389 N390 1.613 . S
S389 N391 1.610 . S
N390 S389 1.613 . S
N390 C393 1.350 . S
N391 S389 1.610 . S
N391 C392 1.351 . S
C392 C386 1.428 . S
C392 N391 1.351 . S
C392 C393 1.434 . S
C393 C384 1.429 . S
C393 N390 1.350 . S
C393 C392 1.434 . S
C394 C395 1.369 . S
C394 C396 1.419 . S
C394 H398 0.930 . S
C395 C394 1.369 . S
C395 C404 1.429 1_556 S
C396 C394 1.419 . S
C396 C397 1.363 . S
C396 H399 0.929 . S
C397 C396 1.363 . S
C397 C403 1.428 1_556 S
H398 C394 0.930 . S
H399 C396 0.929 . S
S400 N401 1.613 . S
S400 N402 1.610 . S
N401 S400 1.613 . S
N401 C404 1.350 . S
N402 S400 1.610 . S
N402 C403 1.351 . S
C403 C397 1.428 1_554 S
C403 N402 1.351 . S
C403 C404 1.434 . S
C404 C395 1.429 1_554 S
C404 N401 1.350 . S
C404 C403 1.434 . S
C405 C406 1.369 . S
C405 C407 1.419 . S
C405 H409 0.930 . S
C406 C405 1.369 . S
C406 C415 1.429 . S
C407 C405 1.419 . S
C407 C408 1.363 . S
C407 H410 0.929 . S
C408 C407 1.363 . S
C408 C414 1.428 . S
H409 C405 0.930 . S
H410 C407 0.929 . S
S411 N412 1.613 . S
S411 N413 1.610 . S
N412 S411 1.613 . S
N412 C415 1.350 . S
N413 S411 1.610 . S
N413 C414 1.351 . S
C414 C408 1.428 . S
C414 N413 1.351 . S
C414 C415 1.434 . S
C415 C406 1.429 . S
C415 N412 1.350 . S
C415 C414 1.434 . S
C416 C417 1.369 . S
C416 C418 1.419 . S
C416 H420 0.930 . S
C417 C416 1.369 . S
C417 C426 1.429 . S
C418 C416 1.419 . S
C418 C419 1.363 . S
C418 H421 0.929 . S
C419 C418 1.363 . S
C419 C425 1.428 . S
H420 C416 0.930 . S
H421 C418 0.929 . S
S422 N423 1.613 . S
S422 N424 1.610 . S
N423 S422 1.613 . S
N423 C426 1.350 . S
N424 S422 1.610 . S
N424 C425 1.351 . S
C425 C419 1.428 . S
C425 N424 1.351 . S
C425 C426 1.434 . S
C426 C417 1.429 . S
C426 N423 1.350 . S
C426 C425 1.434 . S
C427 C428 1.369 . S
C427 C429 1.419 . S
C427 H431 0.930 . S
C428 C427 1.369 . S
C428 C437 1.429 1_556 S
C429 C427 1.419 . S
C429 C430 1.363 . S
C429 H432 0.929 . S
C430 C429 1.363 . S
C430 C436 1.428 1_556 S
H431 C427 0.930 . S
H432 C429 0.929 . S
S433 N434 1.613 . S
S433 N435 1.610 . S
N434 S433 1.613 . S
N434 C437 1.350 . S
N435 S433 1.610 . S
N435 C436 1.351 . S
C436 C430 1.428 1_554 S
C436 N435 1.351 . S
C436 C437 1.434 . S
C437 C428 1.429 1_554 S
C437 N434 1.350 . S
C437 C436 1.434 . S
C241 C209 1.821 . S
C243 C6 1.741 . S
C252 C9 1.822 . S
C254 C46 1.740 1_455 S
C263 C49 1.815 . S
C265 C86 1.746 1_545 S
C274 C89 1.816 . S
C276 C126 1.745 . S
C285 C166 1.748 1_655 S
C287 C129 1.819 . S
C296 C206 1.749 1_565 S
C298 C169 1.816 . S
C307 C10 2.090 . S
C309 C19 2.092 . S
C318 C50 2.091 1_556 S
C320 C59 2.091 . S
C329 C90 2.092 . S
C331 C99 2.090 1_554 S
C340 C130 2.089 . S
C342 C139 2.092 . S
C351 C179 2.094 . S
C353 C170 2.089 1_556 S
C362 C210 2.094 . S
C364 C219 2.089 1_554 S
C373 C15 1.694 . S
C375 C178 1.784 . S
C384 C55 1.691 . S
C386 C218 1.783 . S
C395 C18 1.787 . S
C397 C95 1.695 . S
C406 C58 1.788 . S
C408 C135 1.687 . S
C417 C175 1.696 . S
C419 C98 1.786 . S
C428 C138 1.787 . S
C430 C215 1.695 . S
