# Generated by pormake.
# Topology yfr, (5)-cn, num edge types: 1
# Building blocks:
#     Node 0, Type 0, BuildingBlock: XOMCOT_clean_sbu_1, # of connection points: 5
#     Node 1, Type 0, BuildingBlock: XOMCOT_clean_sbu_1, # of connection points: 5
#     Node 2, Type 0, BuildingBlock: XOMCOT_clean_sbu_1, # of connection points: 5
#     Node 3, Type 0, BuildingBlock: XOMCOT_clean_sbu_1, # of connection points: 5
#     Node 4, Type 0, BuildingBlock: XOMCOT_clean_sbu_1, # of connection points: 5
#     Node 5, Type 0, BuildingBlock: XOMCOT_clean_sbu_1, # of connection points: 5
#     Node 6, Type 0, BuildingBlock: XOMCOT_clean_sbu_1, # of connection points: 5
#     Node 7, Type 0, BuildingBlock: XOMCOT_clean_sbu_1, # of connection points: 5
#     Node 8, Type 0, BuildingBlock: XOMCOT_clean_sbu_1, # of connection points: 5
#     Node 9, Type 0, BuildingBlock: XOMCOT_clean_sbu_1, # of connection points: 5
#     Node 10, Type 0, BuildingBlock: XOMCOT_clean_sbu_1, # of connection points: 5
#     Node 11, Type 0, BuildingBlock: XOMCOT_clean_sbu_1, # of connection points: 5
#     Node 12, Type 0, BuildingBlock: XOMCOT_clean_sbu_1, # of connection points: 5
#     Node 13, Type 0, BuildingBlock: XOMCOT_clean_sbu_1, # of connection points: 5
#     Node 14, Type 0, BuildingBlock: XOMCOT_clean_sbu_1, # of connection points: 5
#     Node 15, Type 0, BuildingBlock: XOMCOT_clean_sbu_1, # of connection points: 5
#     Node 16, Type 0, BuildingBlock: XOMCOT_clean_sbu_1, # of connection points: 5
#     Node 17, Type 0, BuildingBlock: XOMCOT_clean_sbu_1, # of connection points: 5
#     Node 18, Type 0, BuildingBlock: XOMCOT_clean_sbu_1, # of connection points: 5
#     Node 19, Type 0, BuildingBlock: XOMCOT_clean_sbu_1, # of connection points: 5
#     Node 20, Type 0, BuildingBlock: XOMCOT_clean_sbu_1, # of connection points: 5
#     Node 21, Type 0, BuildingBlock: XOMCOT_clean_sbu_1, # of connection points: 5
#     Node 22, Type 0, BuildingBlock: XOMCOT_clean_sbu_1, # of connection points: 5
#     Node 23, Type 0, BuildingBlock: XOMCOT_clean_sbu_1, # of connection points: 5
#     Node 24, Type 0, BuildingBlock: XOMCOT_clean_sbu_1, # of connection points: 5
#     Node 25, Type 0, BuildingBlock: XOMCOT_clean_sbu_1, # of connection points: 5
#     Node 26, Type 0, BuildingBlock: XOMCOT_clean_sbu_1, # of connection points: 5
#     Node 27, Type 0, BuildingBlock: XOMCOT_clean_sbu_1, # of connection points: 5
#     Node 28, Type 0, BuildingBlock: XOMCOT_clean_sbu_1, # of connection points: 5
#     Node 29, Type 0, BuildingBlock: XOMCOT_clean_sbu_1, # of connection points: 5
#     Node 30, Type 0, BuildingBlock: XOMCOT_clean_sbu_1, # of connection points: 5
#     Node 31, Type 0, BuildingBlock: XOMCOT_clean_sbu_1, # of connection points: 5
#     Edge 32, Type (0, 0), BuildingBlock: EZIPEK_clean_linker_0, # of connection points: 2
#     Edge 33, Type (0, 0), BuildingBlock: EZIPEK_clean_linker_0, # of connection points: 2
#     Edge 34, Type (0, 0), BuildingBlock: EZIPEK_clean_linker_0, # of connection points: 2
#     Edge 35, Type (0, 0), BuildingBlock: EZIPEK_clean_linker_0, # of connection points: 2
#     Edge 36, Type (0, 0), BuildingBlock: EZIPEK_clean_linker_0, # of connection points: 2
#     Edge 37, Type (0, 0), BuildingBlock: EZIPEK_clean_linker_0, # of connection points: 2
#     Edge 38, Type (0, 0), BuildingBlock: EZIPEK_clean_linker_0, # of connection points: 2
#     Edge 39, Type (0, 0), BuildingBlock: EZIPEK_clean_linker_0, # of connection points: 2
#     Edge 40, Type (0, 0), BuildingBlock: EZIPEK_clean_linker_0, # of connection points: 2
#     Edge 41, Type (0, 0), BuildingBlock: EZIPEK_clean_linker_0, # of connection points: 2
#     Edge 42, Type (0, 0), BuildingBlock: EZIPEK_clean_linker_0, # of connection points: 2
#     Edge 43, Type (0, 0), BuildingBlock: EZIPEK_clean_linker_0, # of connection points: 2
#     Edge 44, Type (0, 0), BuildingBlock: EZIPEK_clean_linker_0, # of connection points: 2
#     Edge 45, Type (0, 0), BuildingBlock: EZIPEK_clean_linker_0, # of connection points: 2
#     Edge 46, Type (0, 0), BuildingBlock: EZIPEK_clean_linker_0, # of connection points: 2
#     Edge 47, Type (0, 0), BuildingBlock: EZIPEK_clean_linker_0, # of connection points: 2
#     Edge 48, Type (0, 0), BuildingBlock: EZIPEK_clean_linker_0, # of connection points: 2
#     Edge 49, Type (0, 0), BuildingBlock: EZIPEK_clean_linker_0, # of connection points: 2
#     Edge 50, Type (0, 0), BuildingBlock: EZIPEK_clean_linker_0, # of connection points: 2
#     Edge 51, Type (0, 0), BuildingBlock: EZIPEK_clean_linker_0, # of connection points: 2
#     Edge 52, Type (0, 0), BuildingBlock: EZIPEK_clean_linker_0, # of connection points: 2
#     Edge 53, Type (0, 0), BuildingBlock: EZIPEK_clean_linker_0, # of connection points: 2
#     Edge 54, Type (0, 0), BuildingBlock: EZIPEK_clean_linker_0, # of connection points: 2
#     Edge 55, Type (0, 0), BuildingBlock: EZIPEK_clean_linker_0, # of connection points: 2
#     Edge 56, Type (0, 0), BuildingBlock: EZIPEK_clean_linker_0, # of connection points: 2
#     Edge 57, Type (0, 0), BuildingBlock: EZIPEK_clean_linker_0, # of connection points: 2
#     Edge 58, Type (0, 0), BuildingBlock: EZIPEK_clean_linker_0, # of connection points: 2
#     Edge 59, Type (0, 0), BuildingBlock: EZIPEK_clean_linker_0, # of connection points: 2
#     Edge 60, Type (0, 0), BuildingBlock: EZIPEK_clean_linker_0, # of connection points: 2
#     Edge 61, Type (0, 0), BuildingBlock: EZIPEK_clean_linker_0, # of connection points: 2
#     Edge 62, Type (0, 0), BuildingBlock: EZIPEK_clean_linker_0, # of connection points: 2
#     Edge 63, Type (0, 0), BuildingBlock: EZIPEK_clean_linker_0, # of connection points: 2
#     Edge 64, Type (0, 0), BuildingBlock: EZIPEK_clean_linker_0, # of connection points: 2
#     Edge 65, Type (0, 0), BuildingBlock: EZIPEK_clean_linker_0, # of connection points: 2
#     Edge 66, Type (0, 0), BuildingBlock: EZIPEK_clean_linker_0, # of connection points: 2
#     Edge 67, Type (0, 0), BuildingBlock: EZIPEK_clean_linker_0, # of connection points: 2
#     Edge 68, Type (0, 0), BuildingBlock: EZIPEK_clean_linker_0, # of connection points: 2
#     Edge 69, Type (0, 0), BuildingBlock: EZIPEK_clean_linker_0, # of connection points: 2
#     Edge 70, Type (0, 0), BuildingBlock: EZIPEK_clean_linker_0, # of connection points: 2
#     Edge 71, Type (0, 0), BuildingBlock: EZIPEK_clean_linker_0, # of connection points: 2
#     Edge 72, Type (0, 0), BuildingBlock: EZIPEK_clean_linker_0, # of connection points: 2
#     Edge 73, Type (0, 0), BuildingBlock: EZIPEK_clean_linker_0, # of connection points: 2
#     Edge 74, Type (0, 0), BuildingBlock: EZIPEK_clean_linker_0, # of connection points: 2
#     Edge 75, Type (0, 0), BuildingBlock: EZIPEK_clean_linker_0, # of connection points: 2
#     Edge 76, Type (0, 0), BuildingBlock: EZIPEK_clean_linker_0, # of connection points: 2
#     Edge 77, Type (0, 0), BuildingBlock: EZIPEK_clean_linker_0, # of connection points: 2
#     Edge 78, Type (0, 0), BuildingBlock: EZIPEK_clean_linker_0, # of connection points: 2
#     Edge 79, Type (0, 0), BuildingBlock: EZIPEK_clean_linker_0, # of connection points: 2
#     Edge 80, Type (0, 0), BuildingBlock: EZIPEK_clean_linker_0, # of connection points: 2
#     Edge 81, Type (0, 0), BuildingBlock: EZIPEK_clean_linker_0, # of connection points: 2
#     Edge 82, Type (0, 0), BuildingBlock: EZIPEK_clean_linker_0, # of connection points: 2
#     Edge 83, Type (0, 0), BuildingBlock: EZIPEK_clean_linker_0, # of connection points: 2
#     Edge 84, Type (0, 0), BuildingBlock: EZIPEK_clean_linker_0, # of connection points: 2
#     Edge 85, Type (0, 0), BuildingBlock: EZIPEK_clean_linker_0, # of connection points: 2
#     Edge 86, Type (0, 0), BuildingBlock: EZIPEK_clean_linker_0, # of connection points: 2
#     Edge 87, Type (0, 0), BuildingBlock: EZIPEK_clean_linker_0, # of connection points: 2
#     Edge 88, Type (0, 0), BuildingBlock: EZIPEK_clean_linker_0, # of connection points: 2
#     Edge 89, Type (0, 0), BuildingBlock: EZIPEK_clean_linker_0, # of connection points: 2
#     Edge 90, Type (0, 0), BuildingBlock: EZIPEK_clean_linker_0, # of connection points: 2
#     Edge 91, Type (0, 0), BuildingBlock: EZIPEK_clean_linker_0, # of connection points: 2
#     Edge 92, Type (0, 0), BuildingBlock: EZIPEK_clean_linker_0, # of connection points: 2
#     Edge 93, Type (0, 0), BuildingBlock: EZIPEK_clean_linker_0, # of connection points: 2
#     Edge 94, Type (0, 0), BuildingBlock: EZIPEK_clean_linker_0, # of connection points: 2
#     Edge 95, Type (0, 0), BuildingBlock: EZIPEK_clean_linker_0, # of connection points: 2
#     Edge 96, Type (0, 0), BuildingBlock: EZIPEK_clean_linker_0, # of connection points: 2
#     Edge 97, Type (0, 0), BuildingBlock: EZIPEK_clean_linker_0, # of connection points: 2
#     Edge 98, Type (0, 0), BuildingBlock: EZIPEK_clean_linker_0, # of connection points: 2
#     Edge 99, Type (0, 0), BuildingBlock: EZIPEK_clean_linker_0, # of connection points: 2
#     Edge 100, Type (0, 0), BuildingBlock: EZIPEK_clean_linker_0, # of connection points: 2
#     Edge 101, Type (0, 0), BuildingBlock: EZIPEK_clean_linker_0, # of connection points: 2
#     Edge 102, Type (0, 0), BuildingBlock: EZIPEK_clean_linker_0, # of connection points: 2
#     Edge 103, Type (0, 0), BuildingBlock: EZIPEK_clean_linker_0, # of connection points: 2
#     Edge 104, Type (0, 0), BuildingBlock: EZIPEK_clean_linker_0, # of connection points: 2
#     Edge 105, Type (0, 0), BuildingBlock: EZIPEK_clean_linker_0, # of connection points: 2
#     Edge 106, Type (0, 0), BuildingBlock: EZIPEK_clean_linker_0, # of connection points: 2
#     Edge 107, Type (0, 0), BuildingBlock: EZIPEK_clean_linker_0, # of connection points: 2
#     Edge 108, Type (0, 0), BuildingBlock: EZIPEK_clean_linker_0, # of connection points: 2
#     Edge 109, Type (0, 0), BuildingBlock: EZIPEK_clean_linker_0, # of connection points: 2
#     Edge 110, Type (0, 0), BuildingBlock: EZIPEK_clean_linker_0, # of connection points: 2
#     Edge 111, Type (0, 0), BuildingBlock: EZIPEK_clean_linker_0, # of connection points: 2
# Relax obj value: 0.569
# Max RMSD: 0.322
# Mean RMSD: 0.322
data_MOF--net-yfr--node1-XOMCOT_clean_sbu_1--edge1-EZIPEK_clean_linker_0
_symmetry_space_group_name_H-M    P1
_symmetry_Int_Tables_number       1
_symmetry_cell_setting            triclinic
loop_
_symmetry_equiv_pos_as_xyz
'x, y, z'
_cell_length_a     39.783718
_cell_length_b     39.924862
_cell_length_c     46.652259
_cell_angle_alpha  90.024535
_cell_angle_beta   90.040583
_cell_angle_gamma 90.060255
loop_
_atom_site_label
_atom_site_type_symbol
_atom_site_fract_x
_atom_site_fract_y
_atom_site_fract_z
_atom_type_partial_charge
C0 C 0.06988 0.12266 0.31749 0.0
C1 C 0.0445 0.11913 0.33707 0.0
N2 N 0.01516 0.11832 0.32271 0.0
N3 N 0.0564 0.1247 0.29104 0.0
C4 C 0.02301 0.12119 0.29476 0.0
H5 H 0.09649 0.12332 0.32213 0.0
Co6 Co 0.08082 0.12731 0.25773 0.0
C7 C 0.03899 0.17138 0.21632 0.0
O8 O 0.05069 0.15797 0.19267 0.0
N9 N 0.10697 0.12809 0.22383 0.0
C10 C 0.12971 0.11049 0.18306 0.0
C11 C 0.11347 0.10094 0.20748 0.0
C12 C 0.1214 0.15366 0.20921 0.0
N13 N 0.13438 0.14386 0.18374 0.0
O14 O 0.05739 0.08699 0.24523 0.0
H15 H 0.1057 0.07564 0.2119 0.0
H16 H 0.12246 0.17881 0.2171 0.0
O17 O 0.0471 0.15902 0.24075 0.0
C18 C 0.07128 0.06162 0.2572 0.0
O19 O 0.09966 0.06675 0.27101 0.0
N20 N 0.10368 0.1647 0.27302 0.0
C21 C 0.13152 0.20779 0.31346 0.0
C22 C 0.09849 0.21213 0.30431 0.0
C23 C 0.08495 0.19026 0.28436 0.0
C24 C 0.13678 0.16147 0.28019 0.0
C25 C 0.15144 0.18312 0.30038 0.0
H26 H 0.05829 0.19212 0.28052 0.0
H27 H 0.15103 0.14042 0.27212 0.0
H28 H 1.00493 0.12047 0.27741 0.0
H29 H 0.04725 0.117 0.36009 0.0
H30 H 0.13517 0.09436 0.16498 0.0
H31 H 0.08244 0.2308 0.31415 0.0
H32 H 0.17716 0.17919 0.30718 0.0
C33 C 0.17969 0.84468 0.55387 0.0
C34 C 0.18312 0.82695 0.57883 0.0
N35 N 0.15843 0.80404 0.57955 0.0
N36 N 0.1534 0.83255 0.53875 0.0
C37 C 0.14092 0.80762 0.55503 0.0
H38 H 0.19476 0.86598 0.54764 0.0
Co39 Co 0.14097 0.85276 0.50479 0.0
C40 C 0.0757 0.82413 0.48378 0.0
O41 O 0.06721 0.8556 0.4803 0.0
N42 N 0.13088 0.87425 0.4699 0.0
C43 C 0.10993 0.90496 0.43431 0.0
C44 C 0.11507 0.9033 0.46351 0.0
C45 C 0.13651 0.85978 0.44414 0.0
N46 N 0.12332 0.87737 0.42231 0.0
O47 O 0.17725 0.8282 0.48662 0.0
H48 H 0.10598 0.9213 0.47891 0.0
H49 H 0.14858 0.83576 0.4413 0.0
O50 O 0.10521 0.8176 0.49442 0.0
C51 C 0.20428 0.84554 0.4874 0.0
O52 O 0.20197 0.87747 0.49396 0.0
N53 N 0.10908 0.87756 0.526 0.0
C54 C 0.08068 0.9066 0.57467 0.0
C55 C 0.07064 0.87491 0.56554 0.0
C56 C 0.085 0.86089 0.5414 0.0
C57 C 0.11862 0.90904 0.53417 0.0
C58 C 0.10403 0.92451 0.55817 0.0
H59 H 0.07909 0.83506 0.53755 0.0
H60 H 0.13935 0.9212 0.52337 0.0
H61 H 0.11862 0.79352 0.54999 0.0
H62 H 0.201 0.83165 0.59586 0.0
H63 H 0.09698 0.92463 0.42279 0.0
H64 H 0.05294 0.86021 0.57797 0.0
H65 H 0.11233 0.94918 0.56476 0.0
C66 C 0.40565 0.89919 0.83658 0.0
C67 C 0.4304 0.90131 0.85704 0.0
N68 N 0.45994 0.89488 0.84424 0.0
N69 N 0.41961 0.89087 0.8112 0.0
C70 C 0.45292 0.88905 0.8164 0.0
H71 H 0.37902 0.90285 0.84 0.0
Co72 Co 0.3952 0.88564 0.77755 0.0
C73 C 0.42011 0.82264 0.75125 0.0
O74 O 0.38823 0.81541 0.74708 0.0
N75 N 0.37006 0.8835 0.74334 0.0
C76 C 0.33227 0.89635 0.70957 0.0
C77 C 0.33871 0.89551 0.7386 0.0
C78 C 0.38271 0.87915 0.71668 0.0
N79 N 0.36017 0.8862 0.69602 0.0
O80 O 0.41979 0.92172 0.76159 0.0
H81 H 0.32243 0.90597 0.75474 0.0
H82 H 0.4086 0.87276 0.71227 0.0
O83 O 0.42796 0.85117 0.76243 0.0
C84 C 0.40496 0.94844 0.7694 0.0
O85 O 0.37756 0.94592 0.78497 0.0
N86 N 0.36988 0.8514 0.7958 0.0
C87 C 0.33874 0.80957 0.83541 0.0
C88 C 0.37276 0.806 0.8293 0.0
C89 C 0.38778 0.82717 0.80979 0.0
C90 C 0.33635 0.85506 0.80141 0.0
C91 C 0.31995 0.83372 0.82075 0.0
H92 H 0.41461 0.82582 0.80805 0.0
H93 H 0.32257 0.8759 0.79291 0.0
H94 H 0.47158 0.88319 0.80033 0.0
H95 H 0.42701 0.90619 0.87968 0.0
H96 H 0.30957 0.90505 0.69918 0.0
H97 H 0.38814 0.78799 0.84072 0.0
H98 H 0.29357 0.83735 0.82552 0.0
C99 C 0.35846 0.1825 0.0815 0.0
C100 C 0.35583 0.20882 0.1004 0.0
N101 N 0.36199 0.23731 0.08594 0.0
N102 N 0.367 0.19442 0.05544 0.0
C103 C 0.36828 0.22802 0.05867 0.0
H104 H 0.3556 0.15622 0.08659 0.0
Co105 Co 0.37509 0.16823 0.02303 0.0
C106 C 0.43829 0.19174 -0.00228 0.0
O107 O 0.44663 0.15994 -0.00206 0.0
N108 N 0.38153 0.14217 0.98879 0.0
C109 C 0.39771 0.10863 0.95292 0.0
C110 C 0.3967 0.11272 0.98225 0.0
C111 C 0.37288 0.1546 0.96272 0.0
N112 N 0.38255 0.13507 0.94068 0.0
O113 O 0.3381 0.19078 0.00524 0.0
H114 H 0.40831 0.09574 -0.00287 0.0
H115 H 0.36135 0.17869 0.95954 0.0
O116 O 0.40916 0.20061 0.00729 0.0
C117 C 0.31105 0.17715 0.01402 0.0
O118 O 0.31326 0.15082 0.03081 0.0
N119 N 0.40944 0.14575 0.04397 0.0
C120 C 0.45949 0.11809 0.0783 0.0
C121 C 0.45699 0.15265 0.07497 0.0
C122 C 0.4321 0.16582 0.05783 0.0
C123 C 0.40878 0.11225 0.04997 0.0
C124 C 0.43478 0.09746 0.06601 0.0
H125 H 0.43107 0.19255 0.05579 0.0
H126 H 0.38839 0.09687 0.04209 0.0
H127 H 0.37489 0.24526 0.04172 0.0
H128 H 0.35145 0.20714 0.12325 0.0
H129 H 0.40895 0.08792 0.94142 0.0
H130 H 0.47493 0.1695 0.08494 0.0
H131 H 0.43549 0.07057 0.06889 0.0
C132 C 0.05902 0.90278 0.1777 0.0
C133 C 0.03637 0.9081 0.15599 0.0
N134 N 0.01143 0.88563 0.15899 0.0
N135 N 0.04803 0.87747 0.19442 0.0
C136 C 0.01878 0.86763 0.18259 0.0
H137 H 0.08248 0.91598 0.18077 0.0
Co138 Co 0.07253 0.86289 0.22538 0.0
C139 C 0.04685 0.79456 0.2425 0.0
O140 O 0.07855 0.7866 0.24609 0.0
N141 N 0.09904 0.84994 0.25747 0.0
C142 C 0.14117 0.83567 0.28675 0.0
C143 C 0.13034 0.83645 0.25885 0.0
C144 C 0.09131 0.85624 0.2852 0.0
N145 N 0.11663 0.84833 0.30307 0.0
O146 O 0.04828 0.89535 0.24847 0.0
H147 H 0.14509 0.82753 0.24113 0.0
H148 H 0.06795 0.86724 0.29231 0.0
O149 O 0.03926 0.82464 0.23431 0.0
C150 C 0.06508 0.92272 0.24793 0.0
O151 O 0.09535 0.92231 0.23674 0.0
N152 N 0.09732 0.83599 0.2002 0.0
C153 C 0.13381 0.80292 0.15827 0.0
C154 C 0.10067 0.79373 0.164 0.0
C155 C 0.08271 0.81104 0.18463 0.0
C156 C 0.12838 0.84761 0.19261 0.0
C157 C 0.1478 0.83055 0.17235 0.0
H158 H 0.05676 0.80518 0.18713 0.0
H159 H 0.13845 0.86971 0.20296 0.0
H160 H 1.00368 0.84712 0.19039 0.0
H161 H 0.03896 0.92555 0.13837 0.0
H162 H 0.16536 0.82715 0.29447 0.0
H163 H 0.08877 0.77328 0.15255 0.0
H164 H 0.17319 0.83871 0.16773 0.0
C165 C 0.39115 0.73806 0.49618 0.0
C166 C 0.39419 0.71743 0.47264 0.0
N167 N 0.41955 0.72915 0.4564 0.0
N168 N 0.41469 0.76239 0.49478 0.0
C169 C 0.43269 0.75506 0.47107 0.0
H170 H 0.37111 0.73723 0.51182 0.0
Co171 Co 0.41433 0.80233 0.51593 0.0
C172 C 0.43296 0.76533 0.56523 0.0
O173 O 0.42642 0.74845 0.58873 0.0
N174 N 0.4136 0.84153 0.53882 0.0
C175 C 0.43194 0.87646 0.57277 0.0
C176 C 0.43997 0.86034 0.54759 0.0
C177 C 0.38979 0.84718 0.55911 0.0
N178 N 0.40057 0.86762 0.58027 0.0
O179 O 0.36441 0.80544 0.50951 0.0
H180 H 0.46511 0.85893 0.53919 0.0
H181 H 0.36681 0.83284 0.56067 0.0
O182 O 0.40849 0.77697 0.55041 0.0
C183 C 0.34584 0.83077 0.50326 0.0
O184 O 0.35961 0.86066 0.5017 0.0
N185 N 0.42338 0.82654 0.48154 0.0
C186 C 0.45135 0.83584 0.42696 0.0
C187 C 0.41828 0.82434 0.43017 0.0
C188 C 0.40445 0.82089 0.45751 0.0
C189 C 0.45516 0.83907 0.47873 0.0
C190 C 0.46906 0.84524 0.4517 0.0
H191 H 0.38068 0.80815 0.45905 0.0
H192 H 0.47164 0.84031 0.49692 0.0
H193 H 0.45264 0.77067 0.46283 0.0
H194 H 0.37669 0.69805 0.46621 0.0
H195 H 0.44913 0.89053 0.58618 0.0
H196 H 0.40391 0.81599 0.41178 0.0
H197 H 0.49478 0.85403 0.45023 0.0
C198 C 0.40078 0.13301 0.67901 0.0
C199 C 0.42252 0.12604 0.65716 0.0
N200 N 0.45399 0.12652 0.66769 0.0
N201 N 0.41819 0.13941 0.70324 0.0
C202 C 0.45071 0.1343 0.69588 0.0
H203 H 0.37374 0.13248 0.67745 0.0
Co204 Co 0.39618 0.14912 0.73781 0.0
C205 C 0.42762 0.20948 0.76277 0.0
O206 O 0.39671 0.21845 0.76905 0.0
N207 N 0.37299 0.15648 0.77283 0.0
C208 C 0.33427 0.16023 0.80735 0.0
C209 C 0.33987 0.16123 0.77828 0.0
C210 C 0.38682 0.15269 0.79921 0.0
N211 N 0.36381 0.15473 0.82032 0.0
O212 O 0.41876 0.11209 0.7548 0.0
H213 H 0.32029 0.1641 0.76261 0.0
H214 H 0.41319 0.14763 0.80286 0.0
O215 O 0.43203 0.18107 0.75019 0.0
C216 C 0.40156 0.08572 0.75022 0.0
O217 O 0.37212 0.08865 0.73767 0.0
N218 N 0.37319 0.18381 0.71843 0.0
C219 C 0.34706 0.21595 0.67048 0.0
C220 C 0.37904 0.224 0.68057 0.0
C221 C 0.39172 0.20762 0.70435 0.0
C222 C 0.34114 0.17696 0.70959 0.0
C223 C 0.32709 0.19363 0.6861 0.0
H224 H 0.41819 0.21079 0.70819 0.0
H225 H 0.32817 0.1552 0.71772 0.0
H226 H 0.47145 0.1359 0.71085 0.0
H227 H 0.41573 0.12022 0.63524 0.0
H228 H 0.31028 0.16244 0.81813 0.0
H229 H 0.39533 0.24071 0.66862 0.0
H230 H 0.30243 0.18649 0.67837 0.0
C231 C 0.1319 0.1419 0.93132 0.0
C232 C 0.14168 0.15693 0.90628 0.0
N233 N 0.13549 0.18991 0.90858 0.0
N234 N 0.11941 0.16519 0.94937 0.0
C235 C 0.122 0.19441 0.93492 0.0
H236 H 0.1356 0.11586 0.9367 0.0
Co237 Co 0.10986 0.15461 0.9873 0.0
C238 C 0.04832 0.19062 0.00357 0.0
O239 O 0.03827 0.16152 0.01359 0.0
N240 N 0.10249 0.14321 0.02602 0.0
C241 C 0.10145 0.11615 0.06774 0.0
C242 C 0.09701 0.11319 0.03863 0.0
C243 C 0.10928 0.16408 0.04818 0.0
N244 N 0.10942 0.14811 0.07357 0.0
O245 O 0.14688 0.18257 -0.00143 0.0
H246 H 0.09214 0.08991 0.02778 0.0
H247 H 0.11588 0.19017 0.04565 0.0
O248 O 0.07754 0.19255 0.99181 0.0
C249 C 0.17429 0.16611 -0.00163 0.0
O250 O 0.17318 0.13384 0.99292 0.0
N251 N 0.07594 0.12525 0.97363 0.0
C252 C 0.0484 0.08518 0.93089 0.0
C253 C 0.03633 0.11749 0.93544 0.0
C254 C 0.05094 0.13733 0.95633 0.0
C255 C 0.08516 0.09235 0.97154 0.0
C256 C 0.07093 0.07144 0.95069 0.0
H257 H 0.04546 0.16353 0.95498 0.0
H258 H 0.10722 0.08355 0.98275 0.0
H259 H 0.11578 0.2186 0.94391 0.0
H260 H 0.15324 0.14482 0.88801 0.0
H261 H 0.10108 0.09598 0.08324 0.0
H262 H 0.0193 0.12904 0.92022 0.0
H263 H 0.08088 0.04646 0.94758 0.0
C264 C 0.97454 0.95067 0.70728 0.0
C265 C 0.99485 0.95792 0.68459 0.0
N266 N 0.0174 0.93312 0.68207 0.0
N267 N 0.98501 0.9224 0.72026 0.0
C268 C 0.0112 0.91185 0.7041 0.0
H269 H 0.95144 0.96346 0.71232 0.0
Co270 Co 0.95668 0.90475 0.74817 0.0
C271 C 0.97018 0.83193 0.7557 0.0
O272 O 0.93736 0.82842 0.75492 0.0
N273 N 0.92675 0.88891 0.77686 0.0
C274 C 0.88294 0.87104 0.80261 0.0
C275 C 0.89302 0.88397 0.77669 0.0
C276 C 0.9362 0.87948 0.8036 0.0
N277 N 0.91019 0.86825 0.81939 0.0
O278 O 0.98363 0.9257 0.77779 0.0
H279 H 0.87623 0.88894 0.75915 0.0
H280 H 0.96177 0.88047 0.8114 0.0
O281 O 0.98317 0.86146 0.75251 0.0
C282 C 0.98973 0.95651 0.78353 0.0
O283 O 0.00898 0.96359 0.80561 0.0
N284 N 0.93099 0.88648 0.71804 0.0
C285 C 0.89794 0.86627 0.66855 0.0
C286 C 0.92905 0.85277 0.67561 0.0
C287 C 0.94549 0.86378 0.69993 0.0
C288 C 0.90169 0.90181 0.71025 0.0
C289 C 0.88398 0.89127 0.68588 0.0
H290 H 0.97073 0.8549 0.70319 0.0
H291 H 0.89242 0.92279 0.7226 0.0
H292 H 0.023 0.88759 0.70645 0.0
H293 H 0.99066 0.97747 0.6689 0.0
H294 H 0.85757 0.86444 0.80881 0.0
H295 H 0.94111 0.83451 0.66182 0.0
H296 H 0.86046 0.90312 0.68012 0.0
C297 C 0.85456 0.20954 0.42161 0.0
C298 C 0.8533 0.23478 0.40176 0.0
N299 N 0.8647 0.26299 0.41422 0.0
N300 N 0.86724 0.22169 0.44636 0.0
C301 C 0.87275 0.25454 0.44133 0.0
H302 H 0.8475 0.18373 0.418 0.0
Co303 Co 0.8757 0.19581 0.47861 0.0
C304 C 0.9446 0.21847 0.49798 0.0
O305 O 0.95292 0.18677 0.49892 0.0
N306 N 0.88374 0.16902 0.51185 0.0
C307 C 0.91021 0.13651 0.5433 0.0
C308 C 0.90468 0.14255 0.51483 0.0
C309 C 0.87473 0.17638 0.53915 0.0
N310 N 0.89127 0.15769 0.55884 0.0
O311 O 0.84124 0.22129 0.49833 0.0
H312 H 0.91836 0.1304 0.4978 0.0
H313 H 0.85774 0.19636 0.54467 0.0
O314 O 0.91432 0.22673 0.49066 0.0
C315 C 0.81424 0.20646 0.49012 0.0
O316 O 0.81729 0.17858 0.47536 0.0
N317 N 0.90376 0.16928 0.4561 0.0
C318 C 0.92708 0.13473 0.40859 0.0
C319 C 0.9429 0.16421 0.41758 0.0
C320 C 0.93005 0.18177 0.44067 0.0
C321 C 0.88888 0.13978 0.44827 0.0
C322 C 0.90001 0.12211 0.42428 0.0
H323 H 0.93928 0.2067 0.44414 0.0
H324 H 0.86653 0.13142 0.45935 0.0
H325 H 0.88351 0.27167 0.45678 0.0
H326 H 0.8464 0.23231 0.3794 0.0
H327 H 0.92839 0.119 0.55186 0.0
H328 H 0.96324 0.17511 0.40525 0.0
H329 H 0.88665 0.09993 0.41725 0.0
C330 C 0.62482 0.12154 0.16677 0.0
C331 C 0.60685 0.11269 0.14285 0.0
N332 N 0.57395 0.11633 0.14881 0.0
N333 N 0.60338 0.13017 0.1879 0.0
C334 C 0.57251 0.12684 0.17633 0.0
H335 H 0.65183 0.12032 0.16909 0.0
Co336 Co 0.61857 0.13847 0.22474 0.0
C337 C 0.57616 0.19315 0.24973 0.0
O338 O 0.60422 0.20377 0.26149 0.0
N339 N 0.63569 0.14472 0.26218 0.0
C340 C 0.66957 0.15136 0.2999 0.0
C341 C 0.66761 0.15134 0.27045 0.0
C342 C 0.61894 0.13994 0.28718 0.0
N343 N 0.63894 0.14429 0.31027 0.0
O344 O 0.59778 0.09667 0.23669 0.0
H345 H 0.68865 0.15515 0.25636 0.0
H346 H 0.59258 0.13334 0.28844 0.0
O347 O 0.57693 0.16553 0.23519 0.0
C348 C 0.61425 0.07063 0.22904 0.0
O349 O 0.64406 0.07472 0.21745 0.0
N350 N 0.63977 0.17776 0.20998 0.0
C351 C 0.66477 0.22445 0.17074 0.0
C352 C 0.63124 0.22499 0.17908 0.0
C353 C 0.61917 0.20073 0.19722 0.0
C354 C 0.67319 0.17748 0.20287 0.0
C355 C 0.68641 0.20092 0.18329 0.0
H356 H 0.59252 0.19784 0.19698 0.0
H357 H 0.68887 0.15681 0.20945 0.0
H358 H 0.54946 0.13042 0.18807 0.0
H359 H 0.61706 0.10383 0.12272 0.0
H360 H 0.6918 0.15584 0.31275 0.0
H361 H 0.61332 0.24146 0.16864 0.0
H362 H 0.71229 0.19896 0.17635 0.0
C363 C 0.68718 0.79809 0.93528 0.0
C364 C 0.69072 0.7847 0.90848 0.0
N365 N 0.66071 0.77269 0.90044 0.0
N366 N 0.6551 0.79438 0.94438 0.0
C367 C 0.63939 0.77863 0.92244 0.0
H368 H 0.70659 0.81155 0.94663 0.0
Co369 Co 0.64148 0.81433 0.97886 0.0
C370 C 0.57658 0.77933 -0.00032 0.0
O371 O 0.57498 0.79984 0.02155 0.0
N372 N 0.63108 0.83582 0.01397 0.0
C373 C 0.62323 0.87636 0.0462 0.0
C374 C 0.62369 0.86864 0.01748 0.0
C375 C 0.63631 0.82453 0.04106 0.0
N376 N 0.63129 0.84861 0.06093 0.0
O377 O 0.67377 0.78535 -0.00178 0.0
H378 H 0.62061 0.88651 0.00029 0.0
H379 H 0.6445 0.79938 0.04617 0.0
O380 O 0.60223 0.7808 0.98262 0.0
C381 C 0.70155 0.8006 0.00304 0.0
O382 O 0.7013 0.83319 -0.001 0.0
N383 N 0.61295 0.84394 0.95805 0.0
C384 C 0.57132 0.87362 0.91773 0.0
C385 C 0.55832 0.8631 0.944 0.0
C386 C 0.57972 0.84874 0.96412 0.0
C387 C 0.62663 0.85894 0.93441 0.0
C388 C 0.60606 0.87328 0.91346 0.0
H389 H 0.56901 0.84045 0.98392 0.0
H390 H 0.65336 0.85762 0.9306 0.0
H391 H 0.61284 0.77297 0.92194 0.0
H392 H 0.71315 0.78492 0.89535 0.0
H393 H 0.61899 0.90082 0.05554 0.0
H394 H 0.53156 0.86409 0.94821 0.0
H395 H 0.61687 0.88205 0.89353 0.0
C396 C 0.01346 0.1035 0.77043 0.0
C397 C 0.02957 0.0873 0.7922 0.0
N398 N 0.01568 0.09742 0.81684 0.0
N399 N 0.9881 0.12262 0.78082 0.0
C400 C 0.99116 0.1193 0.80964 0.0
H401 H 0.02002 0.10137 0.74806 0.0
Co402 Co 0.95926 0.1441 0.75368 0.0
C403 C 1.00095 0.19015 0.75348 0.0
O404 O 0.97896 0.19196 0.77452 0.0
N405 N 0.93365 0.16486 0.72404 0.0
C406 C 0.92498 0.20341 0.69044 0.0
C407 C 0.93585 0.19785 0.71786 0.0
C408 C 0.91866 0.15153 0.70056 0.0
N409 N 0.91406 0.17423 0.67935 0.0
O410 O 0.961 0.10088 0.73235 0.0
H411 H 0.94689 0.2167 0.7315 0.0
H412 H 0.91327 0.12531 0.69799 0.0
O413 O 0.99923 0.16432 0.73694 0.0
C414 C 0.93942 0.07691 0.73143 0.0
O415 O 0.90772 0.08411 0.7361 0.0
N416 N 0.91937 0.13117 0.77415 0.0
C417 C 0.88423 0.14104 0.82445 0.0
C418 C 0.90329 0.11186 0.82087 0.0
C419 C 0.91958 0.10655 0.79458 0.0
C420 C 0.8952 0.15553 0.77557 0.0
C421 C 0.87665 0.16029 0.8004 0.0
H422 H 0.93648 0.08553 0.7926 0.0
H423 H 0.8932 0.17499 0.75977 0.0
H424 H 0.9753 0.13152 0.82514 0.0
H425 H 0.05034 0.06994 0.79025 0.0
H426 H 0.9268 0.22693 0.679 0.0
H427 H 0.90887 0.0958 0.83895 0.0
H428 H 0.86132 0.18261 0.80237 0.0
C429 C 0.63781 0.19094 0.56464 0.0
C430 C 0.63954 0.2148 0.58569 0.0
N431 N 0.62055 0.24096 0.57747 0.0
N432 N 0.61861 0.20245 0.54295 0.0
C433 C 0.60797 0.23285 0.55154 0.0
H434 H 0.64977 0.16665 0.56507 0.0
Co435 Co 0.61168 0.17783 0.51019 0.0
C436 C 0.54922 0.20342 0.48222 0.0
O437 O 0.54074 0.17176 0.47978 0.0
N438 N 0.60617 0.15163 0.47655 0.0
C439 C 0.59377 0.11231 0.44417 0.0
C440 C 0.59289 0.12069 0.4728 0.0
C441 C 0.61523 0.16115 0.44977 0.0
N442 N 0.6082 0.1377 0.42979 0.0
O443 O 0.64847 0.20291 0.49244 0.0
H444 H 0.58246 0.10512 0.48944 0.0
H445 H 0.62602 0.18526 0.44472 0.0
O446 O 0.57714 0.21021 0.49506 0.0
C447 C 0.67741 0.19218 0.50019 0.0
O448 O 0.67898 0.16437 0.51513 0.0
N449 N 0.57892 0.15339 0.53092 0.0
C450 C 0.54622 0.12606 0.57844 0.0
C451 C 0.53441 0.15535 0.56563 0.0
C452 C 0.55149 0.16906 0.54248 0.0
C453 C 0.59024 0.12415 0.54274 0.0
C454 C 0.57408 0.10984 0.56651 0.0
H455 H 0.54452 0.19407 0.53633 0.0
H456 H 0.61354 0.11336 0.53519 0.0
H457 H 0.59085 0.24842 0.53953 0.0
H458 H 0.65263 0.21269 0.60597 0.0
H459 H 0.58483 0.08923 0.43462 0.0
H460 H 0.51362 0.16908 0.57498 0.0
H461 H 0.58438 0.08761 0.57648 0.0
C462 C 0.53119 0.88671 0.28404 0.0
C463 C 0.51155 0.88225 0.30764 0.0
N464 N 0.52047 0.85348 0.3206 0.0
N465 N 0.55441 0.86222 0.28267 0.0
C466 C 0.54625 0.84138 0.30456 0.0
H467 H 0.52733 0.90606 0.26831 0.0
Co468 Co 0.58911 0.85986 0.25539 0.0
C469 C 0.56816 0.80571 0.23027 0.0
O470 O 0.59911 0.79964 0.23847 0.0
N471 N 0.62315 0.85768 0.22711 0.0
C472 C 0.66784 0.84409 0.20084 0.0
C473 C 0.65548 0.84735 0.22837 0.0
C474 C 0.61676 0.86111 0.1988 0.0
N475 N 0.64329 0.85274 0.18243 0.0
O476 O 0.57809 0.90657 0.24194 0.0
H477 H 0.66864 0.84058 0.24778 0.0
H478 H 0.59234 0.86767 0.19023 0.0
O479 O 0.55806 0.83635 0.23034 0.0
C480 C 0.59869 0.93001 0.23492 0.0
O481 O 0.63102 0.92358 0.23346 0.0
N482 N 0.61923 0.87547 0.28302 0.0
C483 C 0.64059 0.87839 0.33935 0.0
C484 C 0.64012 0.84786 0.32475 0.0
C485 C 0.62965 0.84706 0.29643 0.0
C486 C 0.62293 0.90595 0.2961 0.0
C487 C 0.63477 0.90801 0.32422 0.0
H488 H 0.6257 0.82304 0.28628 0.0
H489 H 0.61437 0.92862 0.28652 0.0
H490 H 0.55854 0.81758 0.30815 0.0
H491 H 0.49112 0.89844 0.31418 0.0
H492 H 0.69231 0.83463 0.19476 0.0
H493 H 0.64483 0.82449 0.33586 0.0
H494 H 0.6355 0.93202 0.33503 0.0
C495 C 0.82503 0.75477 0.04343 0.0
C496 C 0.81636 0.73386 0.0655 0.0
N497 N 0.84023 0.7102 0.06768 0.0
N498 N 0.85343 0.74374 0.03082 0.0
C499 C 0.86175 0.71601 0.04582 0.0
H500 H 0.81347 0.77863 0.03904 0.0
Co501 Co 0.87627 0.77096 0.00463 0.0
C502 C 0.95006 0.75056 0.00642 0.0
O503 O 0.95733 0.7818 0.01244 0.0
N504 N 0.89845 0.79989 0.97734 0.0
C505 C 0.92714 0.84144 0.95622 0.0
C506 C 0.91838 0.82706 0.98182 0.0
C507 C 0.89628 0.79833 0.94828 0.0
N508 N 0.91295 0.82348 0.93522 0.0
O509 O 0.85666 0.74526 0.9737 0.0
H510 H 0.92667 0.83644 0.00227 0.0
H511 H 0.88157 0.78008 0.93661 0.0
O512 O 0.91879 0.7415 0.00416 0.0
C513 C 0.82601 0.74057 0.96582 0.0
O514 O 0.82044 0.72126 0.94351 0.0
N515 N 0.89168 0.79626 0.03586 0.0
C516 C 0.9162 0.83522 0.08011 0.0
C517 C 0.92258 0.80089 0.07959 0.0
C518 C 0.9097 0.78174 0.05741 0.0
C519 C 0.88047 0.82841 0.0388 0.0
C520 C 0.89361 0.84901 0.06036 0.0
H521 H 0.91545 0.75549 0.05704 0.0
H522 H 0.86355 0.8388 0.02297 0.0
H523 H 0.88464 0.70221 0.04269 0.0
H524 H 0.7969 0.73845 0.08123 0.0
H525 H 0.94171 0.86408 0.95323 0.0
H526 H 0.93921 0.78941 0.09515 0.0
H527 H 0.88775 0.87549 0.06068 0.0
C528 C 0.57367 0.63694 0.80855 0.0
C529 C 0.56465 0.62739 0.83569 0.0
N530 N 0.53116 0.63083 0.83815 0.0
N531 N 0.54609 0.64642 0.79392 0.0
C532 C 0.52046 0.64275 0.81259 0.0
H533 H 0.59803 0.63309 0.79894 0.0
Co534 Co 0.54647 0.64905 0.75438 0.0
C535 C 0.50177 0.70441 0.73703 0.0
O536 O 0.52552 0.71202 0.71858 0.0
N537 N 0.54738 0.6491 0.71389 0.0
C538 C 0.52778 0.63997 0.66983 0.0
C539 C 0.52007 0.64005 0.69841 0.0
C540 C 0.57162 0.65438 0.69392 0.0
N541 N 0.56017 0.6488 0.66702 0.0
O542 O 0.5189 0.60942 0.75387 0.0
H543 H 0.49564 0.63456 0.70737 0.0
H544 H 0.59684 0.66271 0.69863 0.0
O545 O 0.50584 0.67886 0.75353 0.0
C546 C 0.53615 0.58254 0.75428 0.0
O547 O 0.56887 0.58476 0.75084 0.0
N548 N 0.57586 0.68644 0.75779 0.0
C549 C 0.62145 0.7205 0.79258 0.0
C550 C 0.58791 0.73026 0.79153 0.0
C551 C 0.56559 0.71292 0.77427 0.0
C552 C 0.60943 0.67956 0.75562 0.0
C553 C 0.63297 0.69686 0.7726 0.0
H554 H 0.5397 0.71748 0.77874 0.0
H555 H 0.61759 0.65736 0.74434 0.0
H556 H 0.49427 0.64543 0.80674 0.0
H557 H 0.58095 0.61624 0.85164 0.0
H558 H 0.51067 0.63499 0.65227 0.0
H559 H 0.5781 0.74851 0.80658 0.0
H560 H 0.65901 0.68898 0.7727 0.0
C561 C 0.62488 0.34462 0.04815 0.0
C562 C 0.63123 0.33492 0.07574 0.0
N563 N 0.62617 0.30146 0.07832 0.0
N564 N 0.6162 0.31765 0.03272 0.0
C565 C 0.61799 0.2918 0.05118 0.0
H566 H 0.62986 0.36906 0.03924 0.0
Co567 Co 0.61276 0.3167 0.99309 0.0
C568 C 0.55482 0.27411 0.97917 0.0
O569 O 0.54663 0.29674 0.95998 0.0
N570 N 0.61066 0.31552 0.95272 0.0
C571 C 0.6138 0.29349 0.90892 0.0
C572 C 0.61847 0.28771 0.93757 0.0
C573 C 0.60088 0.33794 0.93255 0.0
N574 N 0.60265 0.32499 0.90583 0.0
O575 O 0.65055 0.28648 0.9924 0.0
H576 H 0.62546 0.26394 0.94686 0.0
H577 H 0.59165 0.3628 0.9371 0.0
O578 O 0.5811 0.27843 0.99468 0.0
C579 C 0.67841 0.30137 -0.00311 0.0
O580 O 0.67844 0.33414 -0.00053 0.0
N581 N 0.57762 0.34857 0.99601 0.0
C582 C 0.55025 0.3976 0.03118 0.0
C583 C 0.53613 0.36564 0.03016 0.0
C584 C 0.55014 0.34154 0.01256 0.0
C585 C 0.58784 0.38108 0.99302 0.0
C586 C 0.57387 0.40641 0.01017 0.0
H587 H 0.5423 0.31651 0.01684 0.0
H588 H 0.61029 0.38666 0.98085 0.0
H589 H 0.61744 0.26645 0.04338 0.0
H590 H 0.64272 0.35111 0.09151 0.0
H591 H 0.61701 0.27559 0.8917 0.0
H592 H 0.51754 0.35786 0.04581 0.0
H593 H 0.58423 0.43146 0.0093 0.0
C594 C 1.00512 0.37204 0.25656 0.0
C595 C 0.02849 0.37624 0.27785 0.0
N596 N 0.01554 0.36313 0.30185 0.0
N597 N 0.97731 0.35694 0.26725 0.0
C598 C 0.98528 0.35055 0.29483 0.0
H599 H 0.00794 0.3804 0.23466 0.0
Co600 Co 0.93882 0.35057 0.24443 0.0
C601 C 0.96657 0.296 0.22692 0.0
O602 O 0.94831 0.28962 0.24973 0.0
N603 N 0.90313 0.34338 0.21895 0.0
C604 C 0.86996 0.3124 0.1909 0.0
C605 C 0.88377 0.31552 0.21778 0.0
C606 C 0.90157 0.35603 0.19211 0.0
N607 N 0.88153 0.33778 0.17484 0.0
O608 O 0.94699 0.39672 0.22926 0.0
H609 H 0.88249 0.29681 0.23452 0.0
H610 H 0.91819 0.37535 0.18417 0.0
O611 O 0.96736 0.32637 0.21761 0.0
C612 C 0.9266 0.4217 0.22932 0.0
O613 O 0.89474 0.41551 0.23438 0.0
N614 N 0.90937 0.36933 0.27376 0.0
C615 C 0.88563 0.36073 0.3288 0.0
C616 C 0.91219 0.38304 0.32371 0.0
C617 C 0.92236 0.38869 0.29531 0.0
C618 C 0.8784 0.35515 0.27807 0.0
C619 C 0.86594 0.35062 0.30565 0.0
H620 H 0.9443 0.40396 0.29146 0.0
H621 H 0.86429 0.34394 0.26113 0.0
H622 H 0.9686 0.33929 0.31015 0.0
H623 H 0.0523 0.38926 0.27629 0.0
H624 H 0.85568 0.29127 0.18288 0.0
H625 H 0.92724 0.39264 0.34124 0.0
H626 H 0.84415 0.33474 0.30886 0.0
C627 C 0.86454 0.7816 0.52174 0.0
C628 C 0.85948 0.80636 0.54148 0.0
N629 N 0.87782 0.79886 0.56464 0.0
N630 N 0.88516 0.75772 0.53263 0.0
C631 C 0.89383 0.76984 0.55873 0.0
H632 H 0.8541 0.78167 0.50036 0.0
Co633 Co 0.89768 0.72013 0.5102 0.0
C634 C 0.95076 0.7493 0.49818 0.0
O635 O 0.95382 0.72647 0.5183 0.0
N636 N 0.9108 0.68552 0.48427 0.0
C637 C 0.94423 0.65144 0.4591 0.0
C638 C 0.93907 0.66661 0.48523 0.0
C639 C 0.90027 0.68249 0.45672 0.0
N640 N 0.9198 0.66157 0.44126 0.0
O641 O 0.85192 0.72265 0.49306 0.0
H642 H 0.95576 0.66495 0.50348 0.0
H643 H 0.88018 0.69719 0.44747 0.0
O644 O 0.92169 0.75172 0.48599 0.0
C645 C 0.82965 0.69933 0.49198 0.0
O646 O 0.8394 0.66793 0.49085 0.0
N647 N 0.87999 0.68851 0.53837 0.0
C648 C 0.89629 0.66363 0.59182 0.0
C649 C 0.87307 0.6898 0.58946 0.0
C650 C 0.86386 0.70083 0.56206 0.0
C651 C 0.89441 0.6575 0.54064 0.0
C652 C 0.9038 0.64498 0.56736 0.0
H653 H 0.84703 0.72188 0.56022 0.0
H654 H 0.90138 0.64319 0.52215 0.0
H655 H 0.9109 0.7576 0.57331 0.0
H656 H 0.8439 0.8284 0.53902 0.0
H657 H 0.96522 0.63566 0.45317 0.0
H658 H 0.86512 0.70371 0.60819 0.0
H659 H 0.91997 0.6232 0.56857 0.0
C660 C 0.49224 0.44896 0.6903 0.0
C661 C 0.47022 0.45556 0.66845 0.0
N662 N 0.45314 0.42729 0.66282 0.0
N663 N 0.48883 0.41682 0.69884 0.0
C664 C 0.46403 0.40445 0.68204 0.0
H665 H 0.51158 0.46585 0.69776 0.0
Co666 Co 0.52082 0.39866 0.72366 0.0
C667 C 0.5052 0.32778 0.73617 0.0
O668 O 0.53745 0.32264 0.73209 0.0
N669 N 0.55426 0.3826 0.7498 0.0
C670 C 0.60051 0.36538 0.77264 0.0
C671 C 0.58732 0.37505 0.74671 0.0
C672 C 0.54846 0.3777 0.77814 0.0
N673 N 0.57598 0.36713 0.79227 0.0
O674 O 0.50084 0.42396 0.75375 0.0
H675 H 0.60163 0.37608 0.72721 0.0
H676 H 0.52443 0.3817 0.78838 0.0
O677 O 0.49301 0.35758 0.73284 0.0
C678 C 0.51943 0.44974 0.75632 0.0
O679 O 0.54805 0.45069 0.74227 0.0
N680 N 0.54083 0.37764 0.69205 0.0
C681 C 0.5728 0.3478 0.64613 0.0
C682 C 0.53976 0.33912 0.65287 0.0
C683 C 0.52435 0.35409 0.67613 0.0
C684 C 0.57027 0.39084 0.68215 0.0
C685 C 0.5878 0.37506 0.65997 0.0
H686 H 0.49963 0.34555 0.68176 0.0
H687 H 0.58125 0.41231 0.6928 0.0
H688 H 0.45601 0.3786 0.68199 0.0
H689 H 0.4697 0.47799 0.65542 0.0
H690 H 0.62616 0.35779 0.77686 0.0
H691 H 0.52717 0.31866 0.64195 0.0
H692 H 0.61312 0.38288 0.65469 0.0
C693 C 0.83692 0.28041 0.92553 0.0
C694 C 0.8351 0.25444 0.90632 0.0
N695 N 0.85665 0.23053 0.91487 0.0
N696 N 0.8597 0.27292 0.94593 0.0
C697 C 0.87117 0.24213 0.93906 0.0
H698 H 0.82326 0.30377 0.92433 0.0
Co699 Co 0.86956 0.30187 0.97567 0.0
C700 C 0.93807 0.28619 -0.00383 0.0
O701 O 0.9425 0.31843 0.00021 0.0
N702 N 0.87749 0.33152 0.00692 0.0
C703 C 0.88344 0.37406 0.03771 0.0
C704 C 0.88094 0.36524 0.00929 0.0
C705 C 0.87784 0.32075 0.03444 0.0
N706 N 0.88129 0.34597 0.0533 0.0
O707 O 0.84 0.27636 -0.00102 0.0
H708 H 0.88116 0.3831 0.9921 0.0
H709 H 0.87524 0.29479 0.04071 0.0
O710 O 0.90941 0.27499 0.98755 0.0
C711 C 0.81155 0.29027 0.99575 0.0
O712 O 0.80977 0.31837 0.98119 0.0
N713 N 0.89605 0.3269 0.95017 0.0
C714 C 0.93414 0.3625 0.91089 0.0
C715 C 0.94041 0.32857 0.91564 0.0
C716 C 0.92119 0.31127 0.93542 0.0
C717 C 0.88598 0.35812 0.94193 0.0
C718 C 0.90592 0.37732 0.92347 0.0
H719 H 0.92682 0.28517 0.93883 0.0
H720 H 0.86268 0.36835 0.94997 0.0
H721 H 0.89107 0.22931 0.95044 0.0
H722 H 0.82065 0.25392 0.88664 0.0
H723 H 0.88591 0.39912 0.04634 0.0
H724 H 0.96124 0.31597 0.90527 0.0
H725 H 0.89957 0.40322 0.91923 0.0
C726 C 0.95403 0.5531 0.20156 0.0
C727 C 0.97425 0.543 0.1795 0.0
N728 N 1.00104 0.56349 0.17883 0.0
N729 N 0.96854 0.57898 0.21545 0.0
C730 C 0.99724 0.58501 0.20095 0.0
H731 H 0.92933 0.54335 0.20632 0.0
Co732 Co 0.94591 0.59965 0.2451 0.0
C733 C 0.97114 0.67076 0.25091 0.0
O734 O 0.93955 0.67911 0.2547 0.0
N735 N 0.92156 0.61887 0.27616 0.0
C736 C 0.88164 0.63638 0.30634 0.0
C737 C 0.88844 0.62619 0.27878 0.0
C738 C 0.93417 0.62493 0.30271 0.0
N739 N 0.91042 0.6355 0.32126 0.0
O740 O 0.97352 0.57541 0.27238 0.0
H741 H 0.86967 0.62374 0.26234 0.0
H742 H 0.96014 0.6209 0.30865 0.0
O743 O 0.97863 0.63965 0.24633 0.0
C744 C 0.97949 0.54424 0.27689 0.0
O745 O 0.99964 0.53627 0.29812 0.0
N746 N 0.91861 0.62061 0.21692 0.0
C747 C 0.88293 0.64272 0.16898 0.0
C748 C 0.91586 0.65317 0.17373 0.0
C749 C 0.93328 0.6414 0.19737 0.0
C750 C 0.88725 0.60807 0.21139 0.0
C751 C 0.86837 0.61968 0.18795 0.0
H752 H 0.95931 0.6473 0.19864 0.0
H753 H 0.87713 0.58839 0.22478 0.0
H754 H 0.01387 0.60585 0.2053 0.0
H755 H 0.96839 0.52408 0.16362 0.0
H756 H 0.85732 0.64308 0.31501 0.0
H757 H 0.92832 0.66995 0.15887 0.0
H758 H 0.84315 0.61035 0.18435 0.0
C759 C 0.64033 0.80725 0.49341 0.0
C760 C 0.64624 0.83476 0.47655 0.0
N761 N 0.63632 0.82705 0.44989 0.0
N762 N 0.62693 0.78239 0.47731 0.0
C763 C 0.62449 0.79543 0.45074 0.0
H764 H 0.64616 0.80516 0.51598 0.0
Co765 Co 0.61739 0.74038 0.4928 0.0
C766 C 0.56696 0.77311 0.51678 0.0
O767 O 0.56263 0.77781 0.48915 0.0
N768 N 0.60981 0.69849 0.51146 0.0
C769 C 0.59006 0.65068 0.52978 0.0
C770 C 0.59485 0.66896 0.50492 0.0
C771 C 0.61522 0.69645 0.54011 0.0
N772 N 0.60266 0.6683 0.55191 0.0
O773 O 0.66488 0.73969 0.50704 0.0
H774 H 0.58525 0.66197 0.48413 0.0
H775 H 0.62529 0.71688 0.55275 0.0
O776 O 0.59565 0.76192 0.52555 0.0
C777 C 0.68558 0.71532 0.5035 0.0
O778 O 0.67426 0.68648 0.49392 0.0
N779 N 0.62913 0.72004 0.45789 0.0
C780 C 0.62523 0.69772 0.40144 0.0
C781 C 0.65579 0.70999 0.41233 0.0
C782 C 0.65714 0.72158 0.44085 0.0
C783 C 0.59937 0.70952 0.44672 0.0
C784 C 0.59703 0.69738 0.4191 0.0
H785 H 0.67983 0.7334 0.44844 0.0
H786 H 0.57665 0.71202 0.459 0.0
H787 H 0.61497 0.78197 0.43229 0.0
H788 H 0.65754 0.85824 0.48306 0.0
H789 H 0.5758 0.6277 0.53175 0.0
H790 H 0.67774 0.71179 0.39871 0.0
H791 H 0.57276 0.68922 0.41109 0.0
C792 C 0.51422 0.41251 0.19245 0.0
C793 C 0.52858 0.42484 0.16801 0.0
N794 N 0.51855 0.40568 0.14604 0.0
N795 N 0.49378 0.38626 0.18617 0.0
C796 C 0.49831 0.38184 0.1575 0.0
H797 H 0.51889 0.42263 0.21353 0.0
Co798 Co 0.46577 0.36464 0.21432 0.0
C799 C 0.50471 0.31388 0.21907 0.0
O800 O 0.48199 0.3084 0.19918 0.0
N801 N 0.44114 0.34283 0.24366 0.0
C802 C 0.41313 0.3037 0.26812 0.0
C803 C 0.4257 0.31264 0.24171 0.0
C804 C 0.43885 0.35091 0.27178 0.0
N805 N 0.42168 0.32776 0.28689 0.0
O806 O 0.47026 0.40554 0.23728 0.0
H807 H 0.42334 0.29824 0.22217 0.0
H808 H 0.45001 0.37294 0.28132 0.0
O809 O 0.50557 0.34335 0.23003 0.0
C810 C 0.449 0.42805 0.24436 0.0
O811 O 0.4167 0.42124 0.24432 0.0
N812 N 0.42421 0.38149 0.19635 0.0
C813 C 0.38627 0.35488 0.15262 0.0
C814 C 0.40872 0.38102 0.14675 0.0
C815 C 0.42621 0.39549 0.16971 0.0
C816 C 0.39471 0.36546 0.20279 0.0
C817 C 0.37621 0.35003 0.18101 0.0
H818 H 0.44423 0.41487 0.16551 0.0
H819 H 0.38738 0.36079 0.22466 0.0
H820 H 0.48584 0.36264 0.14504 0.0
H821 H 0.54539 0.4461 0.16641 0.0
H822 H 0.39913 0.28123 0.27328 0.0
H823 H 0.41546 0.38736 0.12493 0.0
H824 H 0.35705 0.33181 0.18642 0.0
C825 C 0.33172 0.6752 0.95309 0.0
C826 C 0.31593 0.69281 0.93192 0.0
N827 N 0.33091 0.7229 0.93001 0.0
N828 N 0.35533 0.69452 0.96561 0.0
C829 C 0.35433 0.72373 0.95105 0.0
H830 H 0.32751 0.64914 0.95821 0.0
Co831 Co 0.38099 0.67568 0.99472 0.0
C832 C 0.45147 0.70438 0.98826 0.0
O833 O 0.46189 0.6738 0.98364 0.0
N834 N 0.40477 0.65483 0.02616 0.0
C835 C 0.43857 0.62615 0.05588 0.0
C836 C 0.43215 0.63456 0.0278 0.0
C837 C 0.3951 0.65761 0.054 0.0
N838 N 0.41502 0.64063 0.0722 0.0
O839 O 0.35682 0.70387 0.0218 0.0
H840 H 0.44671 0.62536 0.01003 0.0
H841 H 0.3736 0.67159 0.06141 0.0
O842 O 0.41964 0.71031 0.99205 0.0
C843 C 0.32594 0.71031 0.02784 0.0
O844 O 0.31996 0.73039 0.04957 0.0
N845 N 0.40223 0.64848 0.96656 0.0
C846 C 0.4396 0.61545 0.92521 0.0
C847 C 0.43081 0.64884 0.92144 0.0
C848 C 0.41262 0.66491 0.94238 0.0
C849 C 0.40558 0.61444 0.96817 0.0
C850 C 0.42577 0.5974 0.94816 0.0
H851 H 0.4094 0.69149 0.94002 0.0
H852 H 0.39488 0.60092 0.98606 0.0
H853 H 0.37193 0.74407 0.95434 0.0
H854 H 0.29722 0.6832 0.91718 0.0
H855 H 0.45855 0.61018 0.06369 0.0
H856 H 0.4407 0.66334 0.90368 0.0
H857 H 0.43168 0.57118 0.95122 0.0
C858 C 0.05446 0.63225 0.67877 0.0
C859 C 0.02892 0.63196 0.65902 0.0
N860 N 1.00066 0.64202 0.67222 0.0
N861 N 0.04238 0.64284 0.7042 0.0
C862 C 0.00934 0.64842 0.69962 0.0
H863 H 0.08048 0.62601 0.67473 0.0
Co864 Co 0.06947 0.64802 0.73623 0.0
C865 C 0.04495 0.70784 0.76754 0.0
O866 O 0.07707 0.71457 0.77062 0.0
N867 N 0.09735 0.65146 0.76912 0.0
C868 C 0.13875 0.655 0.80129 0.0
C869 C 0.13033 0.65881 0.77288 0.0
C870 C 0.08652 0.64342 0.79576 0.0
N871 N 0.11116 0.64511 0.81551 0.0
O872 O 0.04915 0.60825 0.75214 0.0
H873 H 0.14787 0.66598 0.75645 0.0
H874 H 0.06096 0.63625 0.80067 0.0
O875 O 0.03687 0.68034 0.75455 0.0
C876 C 0.06688 0.584 0.7424 0.0
O877 O 0.09326 0.59128 0.72664 0.0
N878 N 0.09078 0.68353 0.71726 0.0
C879 C 0.11857 0.72431 0.67528 0.0
C880 C 0.08637 0.73077 0.68576 0.0
C881 C 0.07276 0.70989 0.70649 0.0
C882 C 0.1218 0.6764 0.70646 0.0
C883 C 0.13684 0.6973 0.68626 0.0
H884 H 0.04658 0.71326 0.71166 0.0
H885 H 0.13391 0.65303 0.71188 0.0
H886 H 0.99224 0.65796 0.71555 0.0
H887 H 0.03112 0.62628 0.6364 0.0
H888 H 0.16345 0.65818 0.81067 0.0
H889 H 0.07118 0.75072 0.67682 0.0
H890 H 0.16136 0.69105 0.67773 0.0
C891 C 0.17403 0.32658 0.44207 0.0
C892 C 0.18047 0.30911 0.41745 0.0
N893 N 0.15492 0.28774 0.41325 0.0
N894 N 0.14465 0.31621 0.45365 0.0
C895 C 0.13369 0.29206 0.43557 0.0
H896 H 0.18944 0.34659 0.45046 0.0
Co897 Co 0.12846 0.33606 0.48747 0.0
C898 C 0.06762 0.2963 0.50921 0.0
O899 O 0.06256 0.31893 0.52907 0.0
N900 N 0.11486 0.35751 0.52178 0.0
C901 C 0.09382 0.39358 0.55357 0.0
C902 C 0.09663 0.38591 0.52493 0.0
C903 C 0.12372 0.34919 0.54893 0.0
N904 N 0.11112 0.37058 0.56854 0.0
O905 O 0.16289 0.31141 0.50725 0.0
H906 H 0.08647 0.40078 0.50766 0.0
H907 H 0.13917 0.32787 0.55445 0.0
O908 O 0.09333 0.29905 0.4924 0.0
C909 C 0.18918 0.32982 0.50865 0.0
O910 O 0.18435 0.36201 0.50461 0.0
N911 N 0.09822 0.36175 0.46551 0.0
C912 C 0.06509 0.3785 0.41585 0.0
C913 C 0.04686 0.36629 0.4392 0.0
C914 C 0.06409 0.35829 0.4643 0.0
C915 C 0.11439 0.38058 0.44541 0.0
C916 C 0.09848 0.38832 0.41969 0.0
H917 H 0.05017 0.34715 0.48147 0.0
H918 H 0.14092 0.38571 0.44769 0.0
H919 H 0.11068 0.27814 0.4383 0.0
H920 H 0.20154 0.31265 0.40308 0.0
H921 H 0.08107 0.41502 0.5627 0.0
H922 H 0.02055 0.3597 0.43704 0.0
H923 H 0.11288 0.39884 0.40216 0.0
C924 C 0.49834 0.61366 0.31678 0.0
C925 C 0.52541 0.62112 0.33396 0.0
N926 N 0.54505 0.64312 0.31996 0.0
N927 N 0.50101 0.63055 0.29186 0.0
C928 C 0.53001 0.64805 0.29437 0.0
H929 H 0.47712 0.59826 0.32276 0.0
Co930 Co 0.46663 0.63239 0.26452 0.0
C931 C 0.48425 0.68956 0.22553 0.0
O932 O 0.45232 0.69793 0.22552 0.0
N933 N 0.43177 0.63307 0.2371 0.0
C934 C 0.38325 0.63419 0.21307 0.0
C935 C 0.39797 0.6351 0.23987 0.0
C936 C 0.43676 0.63006 0.20855 0.0
N937 N 0.40789 0.6312 0.19359 0.0
O938 O 0.48485 0.59319 0.24611 0.0
H939 H 0.38454 0.63751 0.25983 0.0
H940 H 0.46134 0.62817 0.19873 0.0
O941 O 0.49333 0.6639 0.24037 0.0
C942 C 0.47035 0.56803 0.25779 0.0
O943 O 0.44745 0.57366 0.27747 0.0
N944 N 0.44765 0.66738 0.28575 0.0
C945 C 0.43418 0.69992 0.33707 0.0
C946 C 0.45554 0.71469 0.31691 0.0
C947 C 0.46246 0.69766 0.29139 0.0
C948 C 0.42473 0.65431 0.30435 0.0
C949 C 0.4174 0.67032 0.33008 0.0
H950 H 0.48274 0.70705 0.27843 0.0
H951 H 0.41528 0.62923 0.30099 0.0
H952 H 0.53866 0.66604 0.27897 0.0
H953 H 0.5295 0.61249 0.35568 0.0
H954 H 0.35676 0.63659 0.20819 0.0
H955 H 0.46928 0.73734 0.32212 0.0
H956 H 0.40117 0.65811 0.34552 0.0
C957 C 0.18964 0.6612 0.05513 0.0
C958 C 0.19816 0.6842 0.07572 0.0
N959 N 0.17421 0.7079 0.07596 0.0
N960 N 0.16081 0.67072 0.04224 0.0
C961 C 0.1522 0.69965 0.05514 0.0
H962 H 0.20338 0.63862 0.05007 0.0
Co963 Co 0.14325 0.64618 0.01224 0.0
C964 C 0.0723 0.66782 0.00017 0.0
O965 O 0.0668 0.63613 0.99442 0.0
N966 N 0.12812 0.6207 0.98038 0.0
C967 C 0.11045 0.58319 0.94815 0.0
C968 C 0.11836 0.58844 0.97656 0.0
C969 C 0.12622 0.63414 0.9538 0.0
N970 N 0.11575 0.61198 0.934 0.0
O971 O 0.17348 0.67097 0.9879 0.0
H972 H 0.11653 0.56956 0.99291 0.0
H973 H 0.13219 0.65996 0.94892 0.0
O974 O 0.10269 0.67775 0.0062 0.0
C975 C 0.20107 0.65459 0.98672 0.0
O976 O 0.19945 0.623 0.9946 0.0
N977 N 0.118 0.62152 0.03919 0.0
C978 C 0.08805 0.58982 0.08571 0.0
C979 C 0.08333 0.6239 0.08115 0.0
C980 C 0.09844 0.6392 0.05793 0.0
C981 C 0.12609 0.58905 0.04537 0.0
C982 C 0.1101 0.57208 0.06792 0.0
H983 H 0.09433 0.66567 0.05548 0.0
H984 H 0.14543 0.57643 0.03323 0.0
H985 H 0.12981 0.71387 0.05011 0.0
H986 H 0.21915 0.68277 0.09045 0.0
H987 H 0.10196 0.56 0.93852 0.0
H988 H 0.06715 0.63852 0.09504 0.0
H989 H 0.11517 0.5458 0.07166 0.0
C990 C 0.09486 0.40837 0.82565 0.0
C991 C 0.07318 0.41484 0.8478 0.0
N992 N 0.04305 0.40167 0.84094 0.0
N993 N 0.07825 0.392 0.80468 0.0
C994 C 0.04652 0.3887 0.8144 0.0
H995 H 0.12122 0.41495 0.82484 0.0
Co996 Co 0.09966 0.38032 0.77092 0.0
C997 C 0.06959 0.31715 0.74871 0.0
O998 O 0.10084 0.30874 0.74324 0.0
N999 N 0.12282 0.37266 0.73666 0.0
C1000 C 0.16201 0.37852 0.7029 0.0
C1001 C 0.1554 0.38036 0.73178 0.0
C1002 C 0.10964 0.36858 0.71013 0.0
N1003 N 0.13308 0.37129 0.6894 0.0
O1004 O 0.07653 0.41766 0.75273 0.0
H1005 H 0.17252 0.3902 0.74767 0.0
H1006 H 0.08303 0.36592 0.70588 0.0
O1007 O 0.06336 0.34654 0.75927 0.0
C1008 C 0.08893 0.44639 0.75873 0.0
O1009 O 0.11706 0.44776 0.77342 0.0
N1010 N 0.12212 0.34422 0.79119 0.0
C1011 C 0.1454 0.29195 0.82594 0.0
C1012 C 0.11174 0.30079 0.8258 0.0
C1013 C 0.10083 0.32632 0.8084 0.0
C1014 C 0.15576 0.33678 0.79189 0.0
C1015 C 0.16792 0.31004 0.80873 0.0
H1016 H 0.07467 0.33166 0.80925 0.0
H1017 H 0.17365 0.35128 0.77999 0.0
H1018 H 0.02666 0.37622 0.80272 0.0
H1019 H 0.07937 0.42674 0.86798 0.0
H1020 H 0.18548 0.38468 0.69241 0.0
H1021 H 0.09356 0.28758 0.83895 0.0
H1022 H 0.19442 0.30387 0.80858 0.0
C1023 C 0.31527 0.30946 0.52831 0.0
C1024 C 0.30614 0.29469 0.55342 0.0
N1025 N 0.32775 0.26961 0.55843 0.0
N1026 N 0.34122 0.29281 0.51648 0.0
C1027 C 0.34877 0.26862 0.53564 0.0
H1028 H 0.30589 0.33308 0.52058 0.0
Co1029 Co 0.36078 0.31253 0.48482 0.0
C1030 C 0.43267 0.29203 0.48077 0.0
O1031 O 0.43921 0.32379 0.47605 0.0
N1032 N 0.37862 0.33424 0.45185 0.0
C1033 C 0.39815 0.37096 0.41975 0.0
C1034 C 0.38831 0.36646 0.44772 0.0
C1035 C 0.3828 0.31989 0.42572 0.0
N1036 N 0.39454 0.34165 0.40605 0.0
O1037 O 0.33822 0.28035 0.46016 0.0
H1038 H 0.38862 0.38595 0.46363 0.0
H1039 H 0.37712 0.294 0.42091 0.0
O1040 O 0.40204 0.28272 0.48555 0.0
C1041 C 0.30743 0.27172 0.45673 0.0
O1042 O 0.30038 0.24813 0.43804 0.0
N1043 N 0.38064 0.34338 0.51058 0.0
C1044 C 0.39809 0.3831 0.55739 0.0
C1045 C 0.41099 0.35089 0.55456 0.0
C1046 C 0.40144 0.33129 0.5315 0.0
C1047 C 0.36651 0.37438 0.51374 0.0
C1048 C 0.37568 0.39521 0.53668 0.0
H1049 H 0.40901 0.30544 0.53197 0.0
H1050 H 0.34718 0.3825 0.49898 0.0
H1051 H 0.37095 0.25302 0.53441 0.0
H1052 H 0.28787 0.30417 0.56858 0.0
H1053 H 0.40676 0.39405 0.41004 0.0
H1054 H 0.42746 0.34042 0.57077 0.0
H1055 H 0.36466 0.41988 0.53876 0.0
C1056 C 0.10335 0.17918 0.11905 0.0
C1057 C 0.12328 0.15996 0.10018 0.0
C1058 C 0.16411 0.15023 0.13838 0.0
C1059 C 0.14054 0.16327 0.15809 0.0
N1060 N 0.10115 0.20814 0.16462 0.0
N1061 N 0.17736 0.13703 0.08865 0.0
C1062 C 0.11445 0.18387 0.1476 0.0
C1063 C 0.15568 0.1492 0.10875 0.0
N1064 N 0.07329 0.19153 0.11002 0.0
N1065 N 0.19272 0.13604 0.14888 0.0
H1066 H 0.17108 0.13618 0.06693 0.0
H1067 H 0.20197 0.12989 0.09302 0.0
H1068 H 0.19839 0.13723 0.17074 0.0
H1069 H 0.21024 0.12325 0.13649 0.0
H1070 H 0.05584 0.20261 0.1237 0.0
H1071 H 0.06552 0.18906 0.08886 0.0
H1072 H 0.08273 0.22484 0.15773 0.0
H1073 H 0.11239 0.21461 0.18398 0.0
C1074 C 0.13741 0.89139 0.37229 0.0
C1075 C 0.12346 0.86856 0.39229 0.0
C1076 C 0.1084 0.83052 0.35286 0.0
C1077 C 0.11866 0.85522 0.33314 0.0
N1078 N 0.14065 0.90991 0.32284 0.0
N1079 N 0.09458 0.81627 0.40174 0.0
C1080 C 0.13248 0.88594 0.34253 0.0
C1081 C 0.10889 0.83789 0.38265 0.0
N1082 N 0.15701 0.91719 0.38186 0.0
N1083 N 0.09885 0.79976 0.34287 0.0
H1084 H 0.09569 0.81946 0.42376 0.0
H1085 H 0.0798 0.79589 0.3958 0.0
H1086 H 0.09752 0.79423 0.32104 0.0
H1087 H 0.09453 0.77908 0.35594 0.0
H1088 H 0.17037 0.93312 0.36837 0.0
H1089 H 0.16279 0.92052 0.40348 0.0
H1090 H 0.14755 0.93425 0.3283 0.0
H1091 H 0.13811 0.90611 0.30082 0.0
C1092 C 0.3658 0.84963 0.65425 0.0
C1093 C 0.36522 0.88224 0.66571 0.0
C1094 C 0.38024 0.90522 0.61871 0.0
C1095 C 0.3859 0.87227 0.60842 0.0
N1096 N 0.38888 0.81291 0.61856 0.0
N1097 N 0.37291 0.9415 0.66012 0.0
C1098 C 0.37951 0.84432 0.62662 0.0
C1099 C 0.37244 0.91028 0.64822 0.0
N1100 N 0.35319 0.8237 0.67003 0.0
N1101 N 0.38178 0.93147 0.60002 0.0
H1102 H 0.36659 0.94573 0.68151 0.0
H1103 H 0.38139 0.96276 0.64941 0.0
H1104 H 0.38681 0.92813 0.57826 0.0
H1105 H 0.37528 0.9559 0.60545 0.0
H1106 H 0.3497 0.79966 0.66185 0.0
H1107 H 0.34334 0.82706 0.69056 0.0
H1108 H 0.38821 0.79224 0.63215 0.0
H1109 H 0.40055 0.80803 0.59924 0.0
C1110 C 0.3611 0.11867 0.86313 0.0
C1111 C 0.36906 0.14983 0.85053 0.0
C1112 C 0.38719 0.1715 0.89715 0.0
C1113 C 0.37708 0.14086 0.91034 0.0
N1114 N 0.34579 0.0893 0.90656 0.0
N1115 N 0.38316 0.20785 0.85555 0.0
C1116 C 0.36173 0.11545 0.89346 0.0
C1117 C 0.38026 0.17681 0.86758 0.0
N1118 N 0.35317 0.0921 0.84598 0.0
N1119 N 0.40437 0.19514 0.9124 0.0
H1120 H 0.37799 0.21221 0.83395 0.0
H1121 H 0.38773 0.22956 0.86731 0.0
H1122 H 0.40919 0.19323 0.93417 0.0
H1123 H 0.416 0.21577 0.903 0.0
H1124 H 0.35048 0.06774 0.85366 0.0
H1125 H 0.35214 0.09402 0.82369 0.0
H1126 H 0.33167 0.07152 0.89548 0.0
H1127 H 0.34338 0.08756 0.92875 0.0
C1128 C 0.92962 0.81587 0.8846 0.0
C1129 C 0.91087 0.83328 0.90561 0.0
C1130 C 0.89433 0.87522 0.87009 0.0
C1131 C 0.91097 0.85656 0.84857 0.0
N1132 N 0.93998 0.80657 0.83393 0.0
N1133 N 0.86996 0.87522 0.91768 0.0
C1134 C 0.92747 0.82612 0.85544 0.0
C1135 C 0.89157 0.86173 0.89811 0.0
N1136 N 0.95006 0.79016 0.89279 0.0
N1137 N 0.88245 0.90648 0.86394 0.0
H1138 H 0.86694 0.86532 0.9382 0.0
H1139 H 0.85283 0.89407 0.91274 0.0
H1140 H 0.88511 0.91744 0.84378 0.0
H1141 H 0.87289 0.92271 0.8794 0.0
H1142 H 0.9671 0.77852 0.87911 0.0
H1143 H 0.9515 0.78197 0.91398 0.0
H1144 H 0.9498 0.78271 0.83715 0.0
H1145 H 0.938 0.81319 0.8124 0.0
C1146 C 0.88819 0.19421 0.63386 0.0
C1147 C 0.90439 0.1685 0.6497 0.0
C1148 C 0.89936 0.13314 0.6073 0.0
C1149 C 0.8924 0.16141 0.58984 0.0
N1150 N 0.89139 0.22245 0.58862 0.0
N1151 N 0.93577 0.11634 0.64555 0.0
C1152 C 0.88954 0.19316 0.60354 0.0
C1153 C 0.91274 0.1384 0.63501 0.0
N1154 N 0.87137 0.21936 0.64739 0.0
N1155 N 0.8932 0.10145 0.5978 0.0
H1156 H 0.95152 0.12203 0.66271 0.0
H1157 H 0.94289 0.09495 0.63422 0.0
H1158 H 0.88039 0.0968 0.57868 0.0
H1159 H 0.897 0.08051 0.61079 0.0
H1160 H 0.85814 0.23765 0.63606 0.0
H1161 H 0.86714 0.21917 0.66945 0.0
H1162 H 0.89086 0.2457 0.59884 0.0
H1163 H 0.89886 0.22368 0.56729 0.0
C1164 C 0.63939 0.11353 0.35615 0.0
C1165 C 0.6299 0.14201 0.3401 0.0
C1166 C 0.60301 0.166 0.38259 0.0
C1167 C 0.61544 0.13913 0.39943 0.0
N1168 N 0.65203 0.09122 0.40319 0.0
N1169 N 0.6094 0.19849 0.33908 0.0
C1170 C 0.63535 0.11379 0.38644 0.0
C1171 C 0.61355 0.16917 0.35362 0.0
N1172 N 0.65203 0.0862 0.3423 0.0
N1173 N 0.58019 0.18778 0.39392 0.0
H1174 H 0.61768 0.2016 0.31805 0.0
H1175 H 0.60067 0.22039 0.34867 0.0
H1176 H 0.57115 0.18554 0.41476 0.0
H1177 H 0.56789 0.20595 0.38181 0.0
H1178 H 0.65646 0.06338 0.35242 0.0
H1179 H 0.65531 0.08562 0.32011 0.0
H1180 H 0.66925 0.07402 0.39508 0.0
H1181 H 0.65144 0.09206 0.42551 0.0
C1182 C 0.66269 0.86602 0.10416 0.0
C1183 C 0.63684 0.84658 0.09144 0.0
C1184 C 0.62086 0.82564 0.13883 0.0
C1185 C 0.64312 0.84896 0.15171 0.0
N1186 N 0.68265 0.8942 0.14699 0.0
N1187 N 0.58847 0.81091 0.0967 0.0
C1188 C 0.66359 0.8698 0.13446 0.0
C1189 C 0.61526 0.82695 0.10878 0.0
N1190 N 0.68677 0.88016 0.0872 0.0
N1191 N 0.60574 0.80178 0.15536 0.0
H1192 H 0.58332 0.81211 0.07486 0.0
H1193 H 0.56985 0.79895 0.1086 0.0
H1194 H 0.61057 0.79948 0.17724 0.0
H1195 H 0.59132 0.78231 0.14698 0.0
H1196 H 0.70796 0.89225 0.09531 0.0
H1197 H 0.68721 0.87681 0.06503 0.0
H1198 H 0.6955 0.91244 0.13538 0.0
H1199 H 0.68335 0.89785 0.16912 0.0
C1200 C 0.60914 0.63831 0.59831 0.0
C1201 C 0.59414 0.66409 0.58186 0.0
C1202 C 0.56472 0.6844 0.62462 0.0
C1203 C 0.57611 0.65631 0.64008 0.0
N1204 N 0.60728 0.60494 0.64199 0.0
N1205 N 0.55224 0.70717 0.5781 0.0
C1206 C 0.59812 0.63289 0.6271 0.0
C1207 C 0.5707 0.68617 0.59479 0.0
N1208 N 0.63406 0.61944 0.5864 0.0
N1209 N 0.54776 0.70922 0.63861 0.0
H1210 H 0.55438 0.7069 0.55595 0.0
H1211 H 0.53237 0.72158 0.58576 0.0
H1212 H 0.5431 0.70832 0.6606 0.0
H1213 H 0.54132 0.73192 0.62906 0.0
H1214 H 0.64815 0.60201 0.59784 0.0
H1215 H 0.64214 0.62307 0.56535 0.0
H1216 H 0.62056 0.5851 0.63298 0.0
H1217 H 0.59991 0.60098 0.66318 0.0
C1218 C 0.61014 0.36681 0.86718 0.0
C1219 C 0.59194 0.33976 0.87921 0.0
C1220 C 0.56151 0.33189 0.83409 0.0
C1221 C 0.57903 0.35954 0.8223 0.0
N1222 N 0.61311 0.40853 0.82946 0.0
N1223 N 0.54447 0.3026 0.87722 0.0
C1224 C 0.60116 0.37872 0.83953 0.0
C1225 C 0.5656 0.32433 0.8636 0.0
N1226 N 0.63714 0.37979 0.88145 0.0
N1227 N 0.5426 0.31175 0.81674 0.0
H1228 H 0.54664 0.29736 0.89905 0.0
H1229 H 0.52301 0.29257 0.8677 0.0
H1230 H 0.54012 0.31588 0.7948 0.0
H1231 H 0.5318 0.28936 0.82357 0.0
H1232 H 0.65355 0.39717 0.87242 0.0
H1233 H 0.64466 0.37126 0.90156 0.0
H1234 H 0.62702 0.42518 0.84193 0.0
H1235 H 0.60622 0.41802 0.80947 0.0
C1236 C 0.90846 0.32569 0.12839 0.0
C1237 C 0.88113 0.33914 0.1441 0.0
C1238 C 0.85255 0.35423 0.09954 0.0
C1239 C 0.88111 0.34342 0.08398 0.0
N1240 N 0.93763 0.32242 0.08279 0.0
N1241 N 0.82875 0.36868 0.1459 0.0
C1242 C 0.90945 0.32997 0.0982 0.0
C1243 C 0.85354 0.35408 0.12999 0.0
N1244 N 0.93298 0.30822 0.14241 0.0
N1245 N 0.82423 0.36354 0.08504 0.0
H1246 H 0.82886 0.36826 0.16827 0.0
H1247 H 0.80938 0.3829 0.13717 0.0
H1248 H 0.82284 0.36347 0.06272 0.0
H1249 H 0.80141 0.36881 0.09494 0.0
H1250 H 0.95185 0.29485 0.13206 0.0
H1251 H 0.93306 0.30501 0.16457 0.0
H1252 H 0.96041 0.31547 0.092 0.0
H1253 H 0.93896 0.32554 0.06063 0.0
C1254 C 0.9234 0.67401 0.36118 0.0
C1255 C 0.91405 0.64173 0.35152 0.0
C1256 C 0.90645 0.62323 0.40125 0.0
C1257 C 0.91785 0.65489 0.41092 0.0
N1258 N 0.94296 0.70831 0.4008 0.0
N1259 N 0.90047 0.58431 0.36144 0.0
C1260 C 0.92793 0.67977 0.39103 0.0
C1261 C 0.90672 0.6159 0.37137 0.0
N1262 N 0.927 0.69928 0.34172 0.0
N1263 N 0.89446 0.60071 0.42076 0.0
H1264 H 0.90011 0.57857 0.33962 0.0
H1265 H 0.89794 0.56346 0.37464 0.0
H1266 H 0.89405 0.60568 0.44272 0.0
H1267 H 0.88284 0.57826 0.4152 0.0
H1268 H 0.9306 0.72425 0.34741 0.0
H1269 H 0.92401 0.69546 0.31974 0.0
H1270 H 0.95373 0.72624 0.38745 0.0
H1271 H 0.94724 0.71258 0.42254 0.0
C1272 C 0.37792 0.35047 0.35571 0.0
C1273 C 0.39993 0.33574 0.37596 0.0
C1274 C 0.43318 0.31131 0.33702 0.0
C1275 C 0.41342 0.32915 0.31691 0.0
N1276 N 0.36807 0.36677 0.30624 0.0
N1277 N 0.44989 0.30448 0.38681 0.0
C1278 C 0.38602 0.34904 0.32605 0.0
C1279 C 0.42784 0.31651 0.36686 0.0
N1280 N 0.34871 0.36478 0.36499 0.0
N1281 N 0.4568 0.28924 0.3274 0.0
H1282 H 0.44657 0.30814 0.40876 0.0
H1283 H 0.47254 0.29292 0.38171 0.0
H1284 H 0.4612 0.2853 0.30565 0.0
H1285 H 0.47019 0.27312 0.34069 0.0
H1286 H 0.32996 0.3735 0.35135 0.0
H1287 H 0.34195 0.36539 0.38659 0.0
H1288 H 0.35007 0.38463 0.31153 0.0
H1289 H 0.3725 0.36482 0.28427 0.0
C1290 C 0.40387 0.60685 0.11571 0.0
C1291 C 0.41118 0.63823 0.10286 0.0
C1292 C 0.40762 0.66541 0.1498 0.0
C1293 C 0.40522 0.63363 0.16293 0.0
N1294 N 0.40165 0.57385 0.15948 0.0
N1295 N 0.4244 0.69679 0.10785 0.0
C1296 C 0.40344 0.60421 0.14614 0.0
C1297 C 0.41394 0.66746 0.11994 0.0
N1298 N 0.39608 0.58007 0.09874 0.0
N1299 N 0.40338 0.6936 0.16592 0.0
H1300 H 0.43024 0.69885 0.08619 0.0
H1301 H 0.43026 0.71813 0.11971 0.0
H1302 H 0.39916 0.69275 0.18796 0.0
H1303 H 0.40124 0.71748 0.15712 0.0
H1304 H 0.38778 0.55715 0.10668 0.0
H1305 H 0.39511 0.58172 0.07646 0.0
H1306 H 0.40373 0.55105 0.1488 0.0
H1307 H 0.39972 0.57166 0.18171 0.0
C1308 C 0.08893 0.64241 0.89406 0.0
C1309 C 0.11224 0.61813 0.90374 0.0
C1310 C 0.12903 0.60709 0.85422 0.0
C1311 C 0.10954 0.63471 0.84504 0.0
N1312 N 0.07303 0.68084 0.85621 0.0
N1313 N 0.15846 0.581 0.8937 0.0
C1314 C 0.0898 0.65287 0.86495 0.0
C1315 C 0.13326 0.60122 0.88398 0.0
N1316 N 0.06554 0.65481 0.91264 0.0
N1317 N 0.14271 0.586 0.83437 0.0
H1318 H 0.16316 0.57718 0.91542 0.0
H1319 H 0.17664 0.57064 0.88031 0.0
H1320 H 0.13892 0.58911 0.81241 0.0
H1321 H 0.15467 0.56367 0.83977 0.0
H1322 H 0.04598 0.67053 0.90644 0.0
H1323 H 0.0639 0.6468 0.93387 0.0
H1324 H 0.06101 0.69724 0.8702 0.0
H1325 H 0.07335 0.68893 0.83502 0.0
C1326 C 0.11685 0.34129 0.64524 0.0
C1327 C 0.12742 0.37111 0.65893 0.0
C1328 C 0.13183 0.39879 0.61237 0.0
C1329 C 0.11709 0.37043 0.59905 0.0
N1330 N 0.08961 0.31689 0.60382 0.0
N1331 N 0.13821 0.43038 0.65631 0.0
C1332 C 0.10798 0.34217 0.61577 0.0
C1333 C 0.13297 0.40055 0.64271 0.0
N1334 N 0.11646 0.31194 0.6602 0.0
N1335 N 0.14618 0.4233 0.59604 0.0
H1336 H 0.13803 0.43269 0.67856 0.0
H1337 H 0.13924 0.4532 0.6455 0.0
H1338 H 0.14767 0.42177 0.57378 0.0
H1339 H 0.15986 0.44313 0.60475 0.0
H1340 H 0.11209 0.28875 0.65063 0.0
H1341 H 0.1235 0.31053 0.68171 0.0
H1342 H 0.07965 0.29713 0.61568 0.0
H1343 H 0.08147 0.31751 0.58263 0.0
C1344 C 0.03737 0.97572 0.23306 0.0
C1345 C 0.05081 0.95604 0.2555 0.0
C1346 C 0.06103 0.00734 0.28285 0.0
C1347 C 0.05686 0.02678 0.25742 0.0
N1348 N 0.03973 0.02843 0.20754 0.0
N1349 N 0.07285 0.95262 0.3032 0.0
C1350 C 0.04381 0.01091 0.23242 0.0
C1351 C 0.06128 0.97176 0.28107 0.0
N1352 N 0.01861 0.9605 0.21236 0.0
N1353 N 0.06457 0.023 0.30872 0.0
H1354 H 0.07133 0.92654 0.30284 0.0
H1355 H 0.0849 0.96247 0.32116 0.0
H1356 H 0.06328 0.04896 0.31088 0.0
H1357 H 0.06502 0.01029 0.32821 0.0
H1358 H 0.00601 0.97351 0.19627 0.0
H1359 H 0.01253 0.93512 0.21371 0.0
H1360 H 0.0342 0.01699 0.18802 0.0
H1361 H 0.04386 0.05405 0.20576 0.0
C1362 C 0.26164 0.84655 0.46578 0.0
C1363 C 0.23881 0.83099 0.48485 0.0
C1364 C 0.28626 0.80996 0.51364 0.0
C1365 C 0.30931 0.82692 0.49529 0.0
N1366 N 0.31887 0.85339 0.44931 0.0
N1367 N 0.22956 0.78882 0.52086 0.0
C1368 C 0.29694 0.84264 0.46989 0.0
C1369 C 0.25123 0.8095 0.50665 0.0
N1370 N 0.24934 0.8662 0.44419 0.0
N1371 N 0.29722 0.79637 0.53885 0.0
H1372 H 0.20411 0.78732 0.5158 0.0
H1373 H 0.23731 0.77051 0.5353 0.0
H1374 H 0.32232 0.79609 0.5451 0.0
H1375 H 0.2811 0.78763 0.55475 0.0
H1376 H 0.26408 0.88238 0.43201 0.0
H1377 H 0.22376 0.86718 0.43921 0.0
H1378 H 0.31146 0.86137 0.42903 0.0
H1379 H 0.34479 0.85179 0.45139 0.0
C1380 C 0.41737 0.02975 0.73075 0.0
C1381 C 0.41544 0.05171 0.75474 0.0
C1382 C 0.4227 0.00425 0.78722 0.0
C1383 C 0.41839 0.9823 0.76362 0.0
N1384 N 0.42264 0.97274 0.71287 0.0
N1385 N 0.41933 0.06102 0.80566 0.0
C1386 C 0.4196 0.9946 0.73527 0.0
C1387 C 0.42009 0.0394 0.78295 0.0
N1388 N 0.41502 0.04264 0.70371 0.0
N1389 N 0.42933 0.99105 0.81364 0.0
H1390 H 0.41852 0.0869 0.80314 0.0
H1391 H 0.41842 0.05356 0.827 0.0
H1392 H 0.43176 0.9653 0.81682 0.0
H1393 H 0.43525 0.00519 0.83168 0.0
H1394 H 0.41142 0.02838 0.68531 0.0
H1395 H 0.41592 0.06829 0.69978 0.0
H1396 H 0.42643 0.97996 0.69171 0.0
H1397 H 0.42404 0.94691 0.71561 0.0
C1398 C 0.2551 0.19655 0.03121 0.0
C1399 C 0.27717 0.19077 0.00786 0.0
C1400 C 0.22972 0.18067 0.97615 0.0
C1401 C 0.20766 0.18264 8e-05 0.0
N1402 N 0.19763 0.20298 0.04789 0.0
N1403 N 0.28501 0.19284 0.95693 0.0
C1404 C 0.21977 0.19451 0.02678 0.0
C1405 C 0.26427 0.18819 0.97983 0.0
N1406 N 0.26828 0.20255 0.05775 0.0
N1407 N 0.21793 0.17008 0.95023 0.0
H1408 H 0.30974 0.20073 0.95952 0.0
H1409 H 0.27668 0.19334 0.93576 0.0
H1410 H 0.19252 0.16607 0.94647 0.0
H1411 H 0.23336 0.16401 0.93297 0.0
H1412 H 0.25425 0.20304 0.07656 0.0
H1413 H 0.29396 0.20643 0.06081 0.0
H1414 H 0.20459 0.21369 0.06734 0.0
H1415 H 0.17177 0.20194 0.04485 0.0
C1416 C 0.92861 0.01681 0.74704 0.0
C1417 C 0.9511 0.04123 0.73587 0.0
C1418 C 0.99869 0.00566 0.75025 0.0
C1419 C 0.97624 0.98466 0.76592 0.0
N1420 N 0.9198 0.97278 0.78186 0.0
N1421 N 1.00512 0.04941 0.71432 0.0
C1422 C 0.94115 0.99079 0.76489 0.0
C1423 C 0.98564 0.03299 0.73389 0.0
N1424 N 0.8958 0.01661 0.73848 0.0
N1425 N 0.03247 0.99955 0.75109 0.0
H1426 H 0.99501 0.06704 0.70023 0.0
H1427 H 0.02991 0.04312 0.70973 0.0
H1428 H 0.04275 0.97836 0.76077 0.0
H1429 H 0.05046 0.01614 0.74329 0.0
H1430 H 0.87888 0.99782 0.74419 0.0
H1431 H 0.88709 0.03199 0.72201 0.0
H1432 H 0.89439 0.97855 0.78406 0.0
H1433 H 0.92806 0.95417 0.79585 0.0
C1434 C 0.76347 0.22225 0.51986 0.0
C1435 C 0.77957 0.22039 0.49294 0.0
C1436 C 0.72497 0.21334 0.469 0.0
C1437 C 0.70926 0.21151 0.4961 0.0
N1438 N 0.71069 0.22995 0.545 0.0
N1439 N 0.77443 0.23066 0.44251 0.0
C1440 C 0.7277 0.2211 0.52088 0.0
C1441 C 0.75972 0.22156 0.46767 0.0
N1442 N 0.78216 0.22371 0.54432 0.0
N1443 N 0.70738 0.20556 0.44481 0.0
H1444 H 0.79916 0.23922 0.44215 0.0
H1445 H 0.76123 0.23393 0.42343 0.0
H1446 H 0.68169 0.20065 0.44517 0.0
H1447 H 0.71859 0.20264 0.42479 0.0
H1448 H 0.77195 0.22095 0.56474 0.0
H1449 H 0.80814 0.22698 0.54389 0.0
H1450 H 0.72225 0.23894 0.56351 0.0
H1451 H 0.68468 0.23262 0.54454 0.0
C1452 C 0.59898 0.017 0.20376 0.0
C1453 C 0.59948 0.03612 0.22955 0.0
C1454 C 0.58163 0.98601 0.25593 0.0
C1455 C 0.58851 0.96585 0.23142 0.0
N1456 N 0.60135 0.96219 0.18125 0.0
N1457 N 0.59176 0.03852 0.28073 0.0
C1458 C 0.59589 0.98153 0.205 0.0
C1459 C 0.59013 0.02074 0.25571 0.0
N1460 N 0.60105 0.03294 0.17799 0.0
N1461 N 0.56711 0.97205 0.2795 0.0
H1462 H 0.59769 0.06393 0.28152 0.0
H1463 H 0.58957 0.0276 0.30091 0.0
H1464 H 0.56103 0.94686 0.2804 0.0
H1465 H 0.55833 0.98589 0.29687 0.0
H1466 H 0.59767 0.02116 0.15829 0.0
H1467 H 0.60265 0.0588 0.17657 0.0
H1468 H 0.61146 0.9713 0.16221 0.0
H1469 H 0.59686 0.93642 0.18109 0.0
C1470 C 0.79247 0.79009 0.98485 0.0
C1471 C 0.79609 0.75507 0.98114 0.0
C1472 C 0.73859 0.74744 0.00053 0.0
C1473 C 0.73529 0.7828 0.00337 0.0
N1474 N 0.76715 0.83274 0.0143 0.0
N1475 N 0.77603 0.69989 0.99337 0.0
C1476 C 0.76481 0.80258 0.00069 0.0
C1477 C 0.77007 0.73351 0.99131 0.0
N1478 N 0.81423 0.81181 0.97215 0.0
N1479 N 0.71217 0.72711 0.00722 0.0
H1480 H 0.79908 0.6892 0.98792 0.0
H1481 H 0.75953 0.68305 0.00295 0.0
H1482 H 0.69167 0.73547 0.01912 0.0
H1483 H 0.71092 0.70194 0.00144 0.0
H1484 H 0.81107 0.83773 0.97289 0.0
H1485 H 0.83252 0.80373 0.95791 0.0
H1486 H 0.78917 0.84695 0.01434 0.0
H1487 H 0.74898 0.84076 0.0289 0.0
C1488 C 0.53108 0.49651 0.78815 0.0
C1489 C 0.508 0.48124 0.76946 0.0
C1490 C 0.49417 0.53511 0.74778 0.0
C1491 C 0.52142 0.54976 0.76309 0.0
N1492 N 0.55815 0.54724 0.80439 0.0
N1493 N 0.45736 0.4867 0.74232 0.0
C1494 C 0.53718 0.53137 0.78565 0.0
C1495 C 0.48571 0.50106 0.75325 0.0
N1496 N 0.54917 0.47666 0.80634 0.0
N1497 N 0.4783 0.55254 0.72656 0.0
H1498 H 0.45131 0.46175 0.74659 0.0
H1499 H 0.43867 0.50006 0.73167 0.0
H1500 H 0.48383 0.57738 0.72175 0.0
H1501 H 0.46098 0.54179 0.71257 0.0
H1502 H 0.56966 0.48478 0.81836 0.0
H1503 H 0.54369 0.45118 0.8086 0.0
H1504 H 0.56818 0.53616 0.82267 0.0
H1505 H 0.5634 0.57257 0.80282 0.0
C1506 C 0.76347 0.28754 0.02858 0.0
C1507 C 0.77986 0.27438 0.00441 0.0
C1508 C 0.72634 0.26482 0.9802 0.0
C1509 C 0.71026 0.28306 0.00239 0.0
N1510 N 0.71065 0.29992 0.05193 0.0
N1511 N 0.77783 0.23798 0.96381 0.0
C1512 C 0.72796 0.29017 0.02819 0.0
C1513 C 0.76133 0.25828 0.98262 0.0
N1514 N 0.78227 0.29966 0.05078 0.0
N1515 N 0.70901 0.25618 0.95606 0.0
H1516 H 0.80344 0.23305 0.9662 0.0
H1517 H 0.7659 0.22379 0.94808 0.0
H1518 H 0.68328 0.25996 0.95401 0.0
H1519 H 0.72027 0.24635 0.93777 0.0
H1520 H 0.77244 0.31316 0.06791 0.0
H1521 H 0.80832 0.29649 0.05142 0.0
H1522 H 0.72144 0.30344 0.07203 0.0
H1523 H 0.68464 0.30136 0.05176 0.0
C1524 C 0.93014 0.51064 0.25786 0.0
C1525 C 0.9653 0.51644 0.2589 0.0
C1526 C 0.97429 0.46499 0.23017 0.0
C1527 C 0.93951 0.45741 0.23232 0.0
N1528 N 0.88481 0.48347 0.23234 0.0
N1529 N 0.02119 0.50075 0.24412 0.0
C1530 C 0.91741 0.48332 0.24145 0.0
C1531 C 0.98747 0.49412 0.24427 0.0
N1532 N 0.90878 0.53036 0.27333 0.0
N1533 N 0.99395 0.44598 0.21255 0.0
H1534 H 0.03129 0.52314 0.2518 0.0
H1535 H 0.03939 0.48394 0.23714 0.0
H1536 H 0.9838 0.4276 0.1992 0.0
H1537 H 0.01919 0.45065 0.20841 0.0
H1538 H 0.88329 0.52496 0.27567 0.0
H1539 H 0.91697 0.55038 0.28586 0.0
H1540 H 0.86827 0.50309 0.23653 0.0
H1541 H 0.87605 0.46686 0.21676 0.0
C1542 C 0.73996 0.6935 0.52288 0.0
C1543 C 0.72299 0.71861 0.50705 0.0
C1544 C 0.77608 0.73254 0.48233 0.0
C1545 C 0.79313 0.707 0.49783 0.0
N1546 N 0.79224 0.66883 0.53839 0.0
N1547 N 0.72741 0.76883 0.4786 0.0
C1548 C 0.77536 0.68917 0.51973 0.0
C1549 C 0.7419 0.74044 0.48913 0.0
N1550 N 0.72184 0.67307 0.54065 0.0
N1551 N 0.79169 0.74782 0.45974 0.0
H1552 H 0.70282 0.77566 0.48327 0.0
H1553 H 0.74086 0.78743 0.46795 0.0
H1554 H 0.81616 0.74216 0.4534 0.0
H1555 H 0.77938 0.76376 0.44553 0.0
H1556 H 0.7311 0.65086 0.54927 0.0
H1557 H 0.69677 0.67775 0.5459 0.0
H1558 H 0.78162 0.65916 0.55702 0.0
H1559 H 0.81765 0.66343 0.53689 0.0
C1560 C 0.4872 0.50999 0.27191 0.0
C1561 C 0.477 0.53252 0.25001 0.0
C1562 C 0.45148 0.48636 0.2234 0.0
C1563 C 0.46027 0.4637 0.24584 0.0
N1564 N 0.49303 0.45239 0.28822 0.0
N1565 N 0.46125 0.5403 0.2009 0.0
C1566 C 0.48057 0.47499 0.26896 0.0
C1567 C 0.46319 0.51999 0.22436 0.0
N1568 N 0.50229 0.52252 0.29594 0.0
N1569 N 0.43074 0.47635 0.20169 0.0
H1570 H 0.47006 0.56488 0.20111 0.0
H1571 H 0.45483 0.53163 0.18056 0.0
H1572 H 0.42129 0.4522 0.19997 0.0
H1573 H 0.42051 0.49275 0.18668 0.0
H1574 H 0.5067 0.50865 0.31444 0.0
H1575 H 0.50983 0.5475 0.29735 0.0
H1576 H 0.51051 0.45843 0.304 0.0
H1577 H 0.48741 0.42689 0.28738 0.0
C1578 C 0.27096 0.71933 0.00136 0.0
C1579 C 0.29623 0.69681 0.01146 0.0
C1580 C 0.26383 0.65046 0.99087 0.0
C1581 C 0.23531 0.67135 0.98725 0.0
N1582 N 0.21417 0.72776 0.98339 0.0
N1583 N 0.31329 0.63944 0.01913 0.0
C1584 C 0.2396 0.70653 0.99071 0.0
C1585 C 0.29168 0.66194 0.0072 0.0
N1586 N 0.27745 0.75296 0.00102 0.0
N1587 N 0.26489 0.61994 0.9777 0.0
H1588 H 0.33349 0.64661 0.03181 0.0
H1589 H 0.30912 0.61366 0.01857 0.0
H1590 H 0.24635 0.61238 0.96321 0.0
H1591 H 0.28607 0.60458 0.97806 0.0
H1592 H 0.26147 0.77071 0.99206 0.0
H1593 H 0.30048 0.76308 0.00729 0.0
H1594 H 0.21294 0.75264 0.98997 0.0
H1595 H 0.19452 0.72053 0.96996 0.0
C1596 C 0.06112 0.49817 0.77729 0.0
C1597 C 0.0706 0.47838 0.75335 0.0
C1598 C 0.05971 0.5265 0.72224 0.0
C1599 C 0.05885 0.54782 0.74669 0.0
N1600 N 0.05741 0.55348 0.79817 0.0
N1601 N 0.07699 0.47293 0.70233 0.0
C1602 C 0.0584 0.5335 0.77445 0.0
C1603 C 0.06863 0.49212 0.72548 0.0
N1604 N 0.0541 0.48287 0.80266 0.0
N1605 N 0.0519 0.53939 0.69597 0.0
H1606 H 0.0824 0.44745 0.70407 0.0
H1607 H 0.08002 0.48253 0.68174 0.0
H1608 H 0.04416 0.56418 0.69346 0.0
H1609 H 0.04963 0.52491 0.6775 0.0
H1610 H 0.04449 0.49527 0.82051 0.0
H1611 H 0.05384 0.45695 0.80426 0.0
H1612 H 0.06198 0.54472 0.81884 0.0
H1613 H 0.05337 0.57913 0.79708 0.0
C1614 C 0.25932 0.26647 0.49186 0.0
C1615 C 0.27934 0.28684 0.47347 0.0
C1616 C 0.2486 0.33605 0.49008 0.0
C1617 C 0.22372 0.31534 0.50306 0.0
N1618 N 0.20896 0.26069 0.52098 0.0
N1619 N 0.28961 0.34095 0.45215 0.0
C1620 C 0.23015 0.28039 0.50532 0.0
C1621 C 0.27278 0.32156 0.47152 0.0
N1622 N 0.26924 0.23439 0.4976 0.0
N1623 N 0.25134 0.36902 0.49749 0.0
H1624 H 0.30743 0.33131 0.43801 0.0
H1625 H 0.28345 0.36596 0.44846 0.0
H1626 H 0.23841 0.37913 0.51489 0.0
H1627 H 0.27052 0.38445 0.48989 0.0
H1628 H 0.25787 0.21916 0.51288 0.0
H1629 H 0.29086 0.2238 0.48882 0.0
H1630 H 0.20898 0.23464 0.52012 0.0
H1631 H 0.19131 0.2707 0.53511 0.0
C1632 C 0.02149 0.26657 0.21859 0.0
C1633 C 0.98628 0.26729 0.21474 0.0
C1634 C 0.98684 0.20605 0.20589 0.0
C1635 C 0.02095 0.20461 0.21473 0.0
N1636 N 0.07087 0.23409 0.22992 0.0
N1637 N 0.93512 0.23828 0.20298 0.0
C1638 C 0.03834 0.23512 0.22092 0.0
C1639 C 0.96901 0.23715 0.20749 0.0
N1640 N 0.03892 0.29603 0.22002 0.0
N1641 N 0.97148 0.17765 0.19601 0.0
H1642 H 0.92211 0.26084 0.20157 0.0
H1643 H 0.91981 0.21721 0.20142 0.0
H1644 H 0.98336 0.15438 0.19563 0.0
H1645 H 0.94783 0.17738 0.18647 0.0
H1646 H 0.06503 0.29758 0.22013 0.0
H1647 H 0.02735 0.31927 0.21792 0.0
H1648 H 0.08376 0.25446 0.23852 0.0
H1649 H 0.08433 0.212 0.23072 0.0
C1650 C 0.02036 0.80304 0.46178 0.0
C1651 C 0.04696 0.79928 0.48242 0.0
C1652 C 0.00673 0.7721 0.514 0.0
C1653 C 0.98162 0.77042 0.49215 0.0
N1654 N 0.96886 0.78 0.44201 0.0
N1655 N 0.06602 0.76576 0.52224 0.0
C1656 C 0.98964 0.7845 0.46498 0.0
C1657 C 0.04047 0.77895 0.50649 0.0
N1658 N 0.02365 0.82484 0.43943 0.0
N1659 N 0.99843 0.76908 0.54227 0.0
H1660 H 0.0907 0.76592 0.51484 0.0
H1661 H 0.0617 0.75007 0.53975 0.0
H1662 H 0.97355 0.76886 0.54933 0.0
H1663 H 0.01618 0.77183 0.5586 0.0
H1664 H 1.00367 0.83128 0.42606 0.0
H1665 H 0.04545 0.83835 0.43534 0.0
H1666 H 0.97579 0.78648 0.42119 0.0
H1667 H 0.94601 0.7675 0.44312 0.0
C1668 C 0.46297 0.78099 0.76923 0.0
C1669 C 0.44498 0.79505 0.74592 0.0
C1670 C 0.46007 0.74541 0.71702 0.0
C1671 C 0.47504 0.73033 0.74155 0.0
N1672 N 0.47823 0.72984 0.79329 0.0
N1673 N 0.42566 0.79003 0.69715 0.0
C1674 C 0.47252 0.74677 0.76838 0.0
C1675 C 0.44325 0.77692 0.71965 0.0
N1676 N 0.47258 0.80041 0.79178 0.0
N1677 N 0.46221 0.72954 0.69111 0.0
H1678 H 0.41641 0.81444 0.69729 0.0
H1679 H 0.41955 0.77664 0.67872 0.0
H1680 H 0.47122 0.7051 0.68908 0.0
H1681 H 0.45597 0.74067 0.67165 0.0
H1682 H 0.48829 0.79163 0.80802 0.0
H1683 H 0.46921 0.82617 0.79194 0.0
H1684 H 0.47421 0.74049 0.81341 0.0
H1685 H 0.48249 0.70417 0.7939 0.0
C1686 C 0.47803 0.23769 0.01257 0.0
C1687 C 0.46597 0.21571 0.99091 0.0
C1688 C 0.51631 0.22885 0.96227 0.0
C1689 C 0.52944 0.24781 0.98539 0.0
N1690 N 0.52774 0.2581 0.03642 0.0
N1691 N 0.47831 0.18519 0.94705 0.0
C1692 C 0.51198 0.24837 0.0118 0.0
C1693 C 0.48649 0.20975 0.96627 0.0
N1694 N 0.45735 0.24919 0.03365 0.0
N1695 N 0.53246 0.22896 0.93641 0.0
H1696 H 0.4566 0.17077 0.94839 0.0
H1697 H 0.49445 0.17732 0.93082 0.0
H1698 H 0.55606 0.23988 0.93349 0.0
H1699 H 0.52174 0.21952 0.91768 0.0
H1700 H 0.46487 0.26714 0.04858 0.0
H1701 H 0.43171 0.2446 0.0338 0.0
H1702 H 0.51644 0.25632 0.05653 0.0
H1703 H 0.55327 0.26359 0.03726 0.0
C1704 C 1.00261 0.71823 0.27537 0.0
C1705 C 0.99622 0.69917 0.25013 0.0
C1706 C 0.01117 0.74844 0.22142 0.0
C1707 C 0.02183 0.76634 0.24603 0.0
N1708 N 0.03014 0.76657 0.29713 0.0
N1709 N 0.0079 0.69358 0.19988 0.0
C1710 C 0.01828 0.75061 0.27328 0.0
C1711 C 1.00456 0.71351 0.22335 0.0
N1712 N 0.99373 0.70531 0.30136 0.0
N1713 N 0.00584 0.76492 0.19633 0.0
H1714 H 0.00883 0.66762 0.20191 0.0
H1715 H 0.01547 0.70272 0.17995 0.0
H1716 H 0.00549 0.79094 0.19566 0.0
H1717 H 0.99648 0.75314 0.17803 0.0
H1718 H 0.99417 0.71906 0.32033 0.0
H1719 H 0.98477 0.68088 0.30361 0.0
H1720 H 0.03202 0.75518 0.31715 0.0
H1721 H 0.03934 0.79105 0.29648 0.0
C1722 C 0.52454 0.79278 0.55355 0.0
C1723 C 0.53522 0.76839 0.53349 0.0
C1724 C 0.47966 0.74068 0.53633 0.0
C1725 C 0.46828 0.76654 0.55464 0.0
N1726 N 0.48208 0.81102 0.58754 0.0
N1727 N 0.5236 0.71861 0.50588 0.0
C1728 C 0.49138 0.79083 0.56528 0.0
C1729 C 0.51279 0.74223 0.52493 0.0
N1730 N 0.54556 0.8187 0.56027 0.0
N1731 N 0.45922 0.71372 0.53107 0.0
H1732 H 0.54827 0.71754 0.49892 0.0
H1733 H 0.50886 0.69986 0.49701 0.0
H1734 H 0.43505 0.71145 0.53949 0.0
H1735 H 0.46632 0.69234 0.51992 0.0
H1736 H 0.53814 0.83972 0.57184 0.0
H1737 H 0.57029 0.81995 0.55288 0.0
H1738 H 0.4985 0.82692 0.59834 0.0
H1739 H 0.45825 0.81007 0.59672 0.0
C1740 C 0.47921 0.23644 0.74108 0.0
C1741 C 0.45385 0.23682 0.76218 0.0
C1742 C 0.46515 0.29723 0.76974 0.0
C1743 C 0.48445 0.2978 0.74405 0.0
N1744 N 0.5058 0.26715 0.70304 0.0
N1745 N 0.42875 0.26588 0.80193 0.0
C1746 C 0.49034 0.26715 0.72916 0.0
C1747 C 0.44868 0.26686 0.77814 0.0
N1748 N 0.49448 0.2071 0.73374 0.0
N1749 N 0.46401 0.325 0.78687 0.0
H1750 H 0.42165 0.24325 0.81131 0.0
H1751 H 0.41955 0.28699 0.81237 0.0
H1752 H 0.47536 0.34762 0.78148 0.0
H1753 H 0.45361 0.32534 0.80731 0.0
H1754 H 0.51539 0.20618 0.72031 0.0
H1755 H 0.49004 0.18483 0.74476 0.0
H1756 H 0.50779 0.24572 0.69037 0.0
H1757 H 0.5133 0.28895 0.69269 0.0
C1758 C 0.02014 0.24106 0.97918 0.0
C1759 C 0.02307 0.21867 0.00287 0.0
C1760 C 0.96895 0.23984 0.02139 0.0
C1761 C 0.96761 0.26359 -0.00103 0.0
N1762 N 0.99842 0.29383 0.96238 0.0
N1763 N 1.00468 0.20554 0.05106 0.0
C1764 C 0.99529 0.26658 0.97986 0.0
C1765 C 0.9987 0.22064 0.02531 0.0
N1766 N 0.03913 0.2372 0.95502 0.0
N1767 N 0.94209 0.23583 0.03932 0.0
H1768 H 0.02695 0.19303 0.05551 0.0
H1769 H 0.98946 0.20884 0.069 0.0
H1770 H 0.92061 0.25072 0.03825 0.0
H1771 H 0.94027 0.2162 0.05395 0.0
H1772 H 0.03459 0.25057 0.93623 0.0
H1773 H 0.05687 0.21858 0.95215 0.0
H1774 H 0.01996 0.29861 0.95033 0.0
H1775 H 0.9815 0.31359 0.96226 0.0
C1776 C 0.98103 0.77131 0.74394 0.0
C1777 C 0.99059 0.80057 0.7595 0.0
C1778 C 0.03048 0.76591 0.78706 0.0
C1779 C 0.02079 0.73695 0.77096 0.0
N1780 N 0.97415 0.71134 0.74658 0.0
N1781 N 0.01908 0.82357 0.80075 0.0
C1782 C 0.99222 0.73932 0.75313 0.0
C1783 C 0.01397 0.79734 0.78241 0.0
N1784 N 0.96181 0.77386 0.71979 0.0
N1785 N 0.05501 0.76317 0.80739 0.0
H1786 H 0.00815 0.84699 0.79794 0.0
H1787 H 0.03234 0.82167 0.81991 0.0
H1788 H 0.06313 0.74006 0.81503 0.0
H1789 H 0.06725 0.78359 0.81657 0.0
H1790 H 0.95688 0.75347 0.70644 0.0
H1791 H 0.95406 0.79672 0.71141 0.0
H1792 H 0.95179 0.71206 0.73493 0.0
H1793 H 0.97852 0.68856 0.75686 0.0
C1794 C 0.99331 0.23934 0.52738 0.0
C1795 C 0.97308 0.24284 0.50235 0.0
C1796 C 0.01973 0.27298 0.47883 0.0
C1797 C 0.03904 0.27198 0.50453 0.0
N1798 N 0.04414 0.25406 0.5536 0.0
N1799 N 0.96485 0.26967 0.45662 0.0
C1800 C 0.02567 0.25501 0.52887 0.0
C1801 C 0.98564 0.26171 0.47885 0.0
N1802 N 0.98156 0.22047 0.54972 0.0
N1803 N 0.03408 0.28373 0.45394 0.0
H1804 H 0.9398 0.26263 0.45609 0.0
H1805 H 0.97125 0.28642 0.4404 0.0
H1806 H 0.05891 0.29129 0.45265 0.0
H1807 H 0.02263 0.28158 0.43394 0.0
H1808 H 0.99612 0.21299 0.5671 0.0
H1809 H 0.95702 0.21129 0.55048 0.0
H1810 H 0.03471 0.24647 0.57334 0.0
H1811 H 0.0692 0.26178 0.55447 0.0
C1812 C 0.53082 0.27687 0.25877 0.0
C1813 C 0.52475 0.28407 0.22918 0.0
C1814 C 0.53601 0.22504 0.21808 0.0
C1815 C 0.54922 0.21944 0.24566 0.0
N1816 N 0.55508 0.23883 0.29408 0.0
N1817 N 0.53231 0.26552 0.18014 0.0
C1818 C 0.54541 0.24521 0.26656 0.0
C1819 C 0.53073 0.25829 0.20871 0.0
N1820 N 0.52161 0.29918 0.27953 0.0
N1821 N 0.52708 0.19875 0.20114 0.0
H1822 H 0.53148 0.29002 0.17237 0.0
H1823 H 0.53869 0.24754 0.16483 0.0
H1824 H 0.52591 0.17455 0.20939 0.0
H1825 H 0.51595 0.20186 0.18106 0.0
H1826 H 0.52299 0.29414 0.30137 0.0
H1827 H 0.51054 0.32219 0.27537 0.0
H1828 H 0.55781 0.25715 0.3098 0.0
H1829 H 0.56081 0.21459 0.30084 0.0
C1830 C 0.52706 0.75905 0.96829 0.0
C1831 C 0.54561 0.75791 0.99452 0.0
C1832 C 0.49621 0.73154 0.01774 0.0
C1833 C 0.47901 0.72993 0.99118 0.0
N1834 N 0.4799 0.73824 0.94018 0.0
N1835 N 0.54971 0.73584 0.04248 0.0
C1836 C 0.495 0.74267 0.96621 0.0
C1837 C 0.53054 0.74213 0.01875 0.0
N1838 N 0.53913 0.77679 0.94554 0.0
N1839 N 0.47955 0.72267 0.04218 0.0
H1840 H 0.57529 0.74155 0.04345 0.0
H1841 H 0.54137 0.72176 0.05986 0.0
H1842 H 0.45446 0.71503 0.04189 0.0
H1843 H 0.48931 0.72606 0.0627 0.0
H1844 H 0.52473 0.78251 0.92755 0.0
H1845 H 0.56289 0.78745 0.94517 0.0
H1846 H 0.492 0.74243 0.92071 0.0
H1847 H 0.45558 0.72879 0.93816 0.0
C1848 C 0.03046 0.23905 0.77448 0.0
C1849 C 0.02259 0.22075 0.7492 0.0
C1850 C 0.04119 0.27012 0.72142 0.0
C1851 C 0.04441 0.28912 0.74716 0.0
N1852 N 0.02608 0.29359 0.79598 0.0
N1853 N 0.01655 0.2219 0.69749 0.0
C1854 C 0.03422 0.2742 0.77306 0.0
C1855 C 0.02694 0.23702 0.7222 0.0
N1856 N 0.03422 0.22291 0.80007 0.0
N1857 N 0.05164 0.28387 0.6962 0.0
H1858 H 0.00749 0.1975 0.69664 0.0
H1859 H 0.01531 0.23434 0.6779 0.0
H1860 H 0.05911 0.30888 0.69476 0.0
H1861 H 0.05388 0.27027 0.67723 0.0
H1862 H 0.04192 0.23534 0.81865 0.0
H1863 H 0.03348 0.19683 0.80171 0.0
H1864 H 0.01694 0.28363 0.81513 0.0
H1865 H 0.02361 0.31942 0.79387 0.0
C1866 C 0.49116 0.27674 0.49707 0.0
C1867 C 0.46195 0.26827 0.4809 0.0
C1868 C 0.49338 0.22123 0.45949 0.0
C1869 C 0.52227 0.22954 0.47643 0.0
N1870 N 0.5518 0.27576 0.49827 0.0
N1871 N 0.43814 0.23709 0.44158 0.0
C1872 C 0.52221 0.26039 0.49143 0.0
C1873 C 0.46377 0.24163 0.46076 0.0
N1874 N 0.48937 0.30017 0.51834 0.0
N1875 N 0.49463 0.19447 0.44128 0.0
H1876 H 0.41615 0.25122 0.44182 0.0
H1877 H 0.43935 0.22097 0.42409 0.0
H1878 H 0.51719 0.18348 0.43501 0.0
H1879 H 0.47348 0.18335 0.43221 0.0
H1880 H 0.50905 0.30463 0.53263 0.0
H1881 H 0.46729 0.31264 0.5236 0.0
H1882 H 0.55302 0.29946 0.50759 0.0
H1883 H 0.57483 0.2676 0.49031 0.0
C1884 C 0.52031 0.77485 0.20408 0.0
C1885 C 0.54605 0.77584 0.2253 0.0
C1886 C 0.54123 0.71512 0.22972 0.0
C1887 C 0.5096 0.71556 0.21659 0.0
N1888 N 0.4725 0.74451 0.18424 0.0
N1889 N 0.573 0.74536 0.26444 0.0
C1890 C 0.50003 0.7452 0.20159 0.0
C1891 C 0.55446 0.74549 0.23981 0.0
N1892 N 0.51635 0.801 0.18554 0.0
N1893 N 0.55901 0.68615 0.23206 0.0
H1894 H 0.57851 0.76709 0.27594 0.0
H1895 H 0.57844 0.72322 0.2754 0.0
H1896 H 0.5507 0.6639 0.22264 0.0
H1897 H 0.58329 0.68563 0.24057 0.0
H1898 H 0.49987 0.80048 0.16821 0.0
H1899 H 0.53176 0.8221 0.18584 0.0
H1900 H 0.46144 0.76588 0.1756 0.0
H1901 H 0.46115 0.72197 0.17844 0.0
C1902 C 0.03646 0.71651 0.98245 0.0
C1903 C 0.0415 0.68991 0.0022 0.0
C1904 C 0.98418 0.69959 0.02181 0.0
C1905 C 0.97962 0.72706 0.00292 0.0
N1906 N 1.00115 0.76194 0.96492 0.0
N1907 N 0.0192 0.65493 0.04012 0.0
C1908 C 0.00579 0.73551 0.98316 0.0
C1909 C 0.01487 0.68094 0.02143 0.0
N1910 N 0.06026 0.7223 0.96187 0.0
N1911 N 0.95901 0.69125 0.04036 0.0
H1912 H 0.03832 0.63751 0.03836 0.0
H1913 H 1.00424 0.65036 0.05795 0.0
H1914 H 0.93868 0.70675 0.04412 0.0
H1915 H 0.95746 0.66888 0.05167 0.0
H1916 H 0.05719 0.73859 0.9447 0.0
H1917 H 0.0829 0.70921 0.9609 0.0
H1918 H 0.02007 0.77269 0.95261 0.0
H1919 H 0.97805 0.77393 0.96244 0.0
C1920 C 0.15213 0.23204 0.39052 0.0
C1921 C 0.15018 0.26727 0.38823 0.0
C1922 C 0.14529 0.26276 0.33607 0.0
C1923 C 0.14298 0.22746 0.33865 0.0
N1924 N 0.13895 0.17848 0.36902 0.0
N1925 N 0.13962 0.31642 0.35983 0.0
C1926 C 0.14522 0.21197 0.36605 0.0
C1927 C 0.14547 0.28275 0.36122 0.0
N1928 N 0.16138 0.21788 0.41596 0.0
N1929 N 0.14747 0.27706 0.30952 0.0
H1930 H 0.13842 0.33154 0.37803 0.0
H1931 H 0.13254 0.32872 0.3411 0.0
H1932 H 0.14774 0.26291 0.2907 0.0
H1933 H 0.15216 0.30244 0.30627 0.0
H1934 H 0.16663 0.19248 0.41828 0.0
H1935 H 0.16664 0.23211 0.43419 0.0
H1936 H 0.13637 0.16678 0.38885 0.0
H1937 H 0.13372 0.16272 0.35179 0.0
C1938 C 0.03075 0.92148 0.60362 0.0
C1939 C 0.06618 0.91935 0.6019 0.0
C1940 C 0.06986 0.92833 0.65392 0.0
C1941 C 0.0345 0.92575 0.65568 0.0
N1942 N 0.98202 0.91156 0.63303 0.0
N1943 N 0.11994 0.91665 0.62612 0.0
C1944 C 0.01515 0.91996 0.63073 0.0
C1945 C 0.08605 0.92191 0.62723 0.0
N1946 N 0.01203 0.925 0.57924 0.0
N1947 N 0.08775 0.93738 0.67766 0.0
H1948 H 0.1328 0.91192 0.60711 0.0
H1949 H 0.13496 0.91459 0.64432 0.0
H1950 H 0.07629 0.94148 0.69748 0.0
H1951 H 0.11331 0.94303 0.67721 0.0
H1952 H 0.98621 0.92944 0.57951 0.0
H1953 H 0.02293 0.92699 0.55896 0.0
H1954 H 0.96791 0.90327 0.61561 0.0
H1955 H 0.96992 0.90904 0.65272 0.0
C1956 C 0.32651 0.75351 0.85419 0.0
C1957 C 0.32491 0.78844 0.85853 0.0
C1958 C 0.31972 0.77922 0.91019 0.0
C1959 C 0.32823 0.74518 0.90593 0.0
N1960 N 0.34761 0.70187 0.87373 0.0
N1961 N 0.32179 0.8355 0.89099 0.0
C1962 C 0.33333 0.7326 0.87784 0.0
C1963 C 0.32138 0.80167 0.88662 0.0
N1964 N 0.32335 0.74073 0.82717 0.0
N1965 N 0.31001 0.78992 0.93666 0.0
H1966 H 0.32229 0.85279 0.87428 0.0
H1967 H 0.32348 0.84635 0.91125 0.0
H1968 H 0.30897 0.77384 0.9542 0.0
H1969 H 0.30042 0.81376 0.94058 0.0
H1970 H 0.32202 0.7151 0.82301 0.0
H1971 H 0.3186 0.75603 0.80947 0.0
H1972 H 0.35437 0.69286 0.85358 0.0
H1973 H 0.35669 0.68726 0.89054 0.0
C1974 C 0.54723 0.12393 0.10132 0.0
C1975 C 0.54624 0.11056 0.12946 0.0
C1976 C 0.48791 0.09301 0.12167 0.0
C1977 C 0.48979 0.10545 0.09327 0.0
N1978 N 0.52473 0.12064 0.05327 0.0
N1979 N 0.51933 0.0725 0.1625 0.0
C1980 C 0.52106 0.11598 0.08208 0.0
C1981 C 0.51774 0.09182 0.13844 0.0
N1982 N 0.57104 0.14692 0.09375 0.0
N1983 N 0.45766 0.08416 0.1332 0.0
H1984 H 0.54131 0.06986 0.17443 0.0
H1985 H 0.50005 0.05634 0.16866 0.0
H1986 H 0.43539 0.08427 0.12144 0.0
H1987 H 0.45455 0.07864 0.15486 0.0
H1988 H 0.57084 0.15927 0.07407 0.0
H1989 H 0.58814 0.157 0.10831 0.0
H1990 H 0.54777 0.12648 0.04385 0.0
H1991 H 0.50538 0.11523 0.03883 0.0
C1992 C 0.16921 0.76727 0.08942 0.0
C1993 C 0.16954 0.73311 0.09743 0.0
C1994 C 0.16004 0.74856 0.14728 0.0
C1995 C 0.1533 0.78175 0.13845 0.0
N1996 N 0.14995 0.82325 0.101 0.0
N1997 N 0.15938 0.6905 0.13311 0.0
C1998 C 0.15796 0.79152 0.10951 0.0
C1999 C 0.16388 0.72347 0.12623 0.0
N2000 N 0.17978 0.77626 0.06268 0.0
N2001 N 0.16182 0.74105 0.17581 0.0
H2002 H 0.15941 0.67138 0.1179 0.0
H2003 H 0.15193 0.6825 0.15338 0.0
H2004 H 0.15907 0.75925 0.19171 0.0
H2005 H 0.16938 0.71772 0.18346 0.0
H2006 H 0.18283 0.80105 0.05624 0.0
H2007 H 0.18832 0.7587 0.04778 0.0
H2008 H 0.14919 0.83065 0.0796 0.0
H2009 H 0.14224 0.84177 0.11532 0.0
C2010 C 0.50065 0.82021 0.39497 0.0
C2011 C 0.46833 0.83517 0.39826 0.0
C2012 C 0.46761 0.84438 0.34664 0.0
C2013 C 0.50286 0.83967 0.34518 0.0
N2014 N 0.55384 0.8235 0.3703 0.0
N2015 N 0.42354 0.8671 0.37594 0.0
C2016 C 0.51978 0.82721 0.36986 0.0
C2017 C 0.4522 0.84851 0.37367 0.0
N2018 N 0.51269 0.79862 0.41521 0.0
N2019 N 0.44902 0.84536 0.3221 0.0
H2020 H 0.41304 0.8739 0.39555 0.0
H2021 H 0.41267 0.87909 0.35837 0.0
H2022 H 0.45975 0.84069 0.30207 0.0
H2023 H 0.42284 0.84682 0.32226 0.0
H2024 H 0.53484 0.78504 0.41252 0.0
H2025 H 0.49853 0.79113 0.43288 0.0
H2026 H 0.56701 0.81689 0.38877 0.0
H2027 H 0.56942 0.83004 0.35338 0.0
C2028 C 0.33999 0.27656 0.60967 0.0
C2029 C 0.33309 0.25518 0.58618 0.0
C2030 C 0.3342 0.20677 0.618 0.0
C2031 C 0.33709 0.22879 0.64195 0.0
N2032 N 0.33449 0.28505 0.66068 0.0
N2033 N 0.3178 0.20096 0.56815 0.0
C2034 C 0.33716 0.26388 0.63777 0.0
C2035 C 0.32836 0.22053 0.5904 0.0
N2036 N 0.35081 0.30856 0.60505 0.0
N2037 N 0.339 0.1731 0.62112 0.0
H2038 H 0.31373 0.21053 0.54763 0.0
H2039 H 0.31056 0.17604 0.57066 0.0
H2040 H 0.34408 0.16176 0.6407 0.0
H2041 H 0.3408 0.15672 0.60379 0.0
H2042 H 0.35924 0.32415 0.62147 0.0
H2043 H 0.35511 0.31806 0.58456 0.0
H2044 H 0.33166 0.31087 0.65849 0.0
H2045 H 0.33161 0.27638 0.68165 0.0
C2046 C 1.00265 0.06951 0.86281 0.0
C2047 C 0.02567 0.08683 0.845 0.0
C2048 C 0.0691 0.08027 0.88142 0.0
C2049 C 0.04397 0.07159 0.90159 0.0
N2050 N 0.98736 0.05457 0.91157 0.0
N2051 N 0.08061 0.11101 0.83797 0.0
C2052 C 0.01095 0.06444 0.89211 0.0
C2053 C 0.05909 0.09234 0.85426 0.0
N2054 N 0.97339 0.05751 0.85152 0.0
N2055 N 0.10228 0.07811 0.88858 0.0
H2056 H 0.07336 0.12259 0.81893 0.0
H2057 H 0.1046 0.11787 0.84473 0.0
H2058 H 0.11038 0.06829 0.90804 0.0
H2059 H 0.12167 0.08204 0.87397 0.0
H2060 H 0.95656 0.04266 0.86295 0.0
H2061 H 0.96773 0.05973 0.82979 0.0
H2062 H 0.96183 0.05267 0.90687 0.0
H2063 H 0.99371 0.04943 0.93285 0.0
C2064 C 0.86647 0.82259 0.64178 0.0
C2065 C 0.88218 0.85442 0.64184 0.0
C2066 C 0.89372 0.85001 0.5907 0.0
C2067 C 0.87863 0.81791 0.59065 0.0
N2068 N 0.84258 0.77758 0.6134 0.0
N2069 N 0.90108 0.90274 0.61572 0.0
C2070 C 0.8624 0.80539 0.61541 0.0
C2071 C 0.89234 0.86967 0.61593 0.0
N2072 N 0.85679 0.80839 0.66711 0.0
N2073 N 0.91099 0.86075 0.56714 0.0
H2074 H 0.90045 0.9175 0.63417 0.0
H2075 H 0.90603 0.91609 0.59701 0.0
H2076 H 0.91325 0.84631 0.5486 0.0
H2077 H 0.92544 0.88252 0.56685 0.0
H2078 H 0.84901 0.78358 0.66901 0.0
H2079 H 0.85787 0.82135 0.68653 0.0
H2080 H 0.82781 0.76864 0.63015 0.0
H2081 H 0.83858 0.76519 0.59403 0.0
C2082 C 0.93408 0.14236 0.35662 0.0
C2083 C 0.93688 0.12079 0.38055 0.0
C2084 C 0.97798 0.08753 0.35473 0.0
C2085 C 0.98278 0.11478 0.33585 0.0
N2086 N 0.96423 0.16832 0.31761 0.0
N2087 N 0.95889 0.07031 0.40173 0.0
C2088 C 0.95973 0.14178 0.33565 0.0
C2089 C 0.95727 0.09189 0.37909 0.0
N2090 N 0.90816 0.16468 0.35528 0.0
N2091 N 0.99454 0.05828 0.34969 0.0
H2092 H 0.94357 0.07268 0.41972 0.0
H2093 H 0.97635 0.05095 0.40314 0.0
H2094 H 0.00928 0.05522 0.3314 0.0
H2095 H 0.99085 0.03657 0.36167 0.0
H2096 H 0.90351 0.17978 0.33751 0.0
H2097 H 0.88952 0.16545 0.37103 0.0
H2098 H 0.95048 0.19044 0.31913 0.0
H2099 H 0.98301 0.1692 0.30213 0.0
C2100 C 0.64137 0.24562 0.09985 0.0
C2101 C 0.6369 0.28079 0.1026 0.0
C2102 C 0.66812 0.27904 0.14802 0.0
C2103 C 0.67272 0.24431 0.14479 0.0
N2104 N 0.67375 0.1968 0.11341 0.0
N2105 N 0.62951 0.32382 0.13811 0.0
C2106 C 0.66361 0.22879 0.11873 0.0
C2107 C 0.64632 0.2961 0.12895 0.0
N2108 N 0.61945 0.22734 0.08374 0.0
N2109 N 0.68219 0.29476 0.17101 0.0
H2110 H 0.60808 0.33223 0.12741 0.0
H2111 H 0.63329 0.33481 0.15812 0.0
H2112 H 0.69721 0.28168 0.18559 0.0
H2113 H 0.6814 0.32066 0.17381 0.0
H2114 H 0.62064 0.20137 0.08191 0.0
H2115 H 0.59658 0.23745 0.07703 0.0
H2116 H 0.66935 0.18479 0.0939 0.0
H2117 H 0.68952 0.18396 0.1275 0.0
C2118 C 0.53647 0.91338 0.88842 0.0
C2119 C 0.54778 0.88037 0.89393 0.0
C2120 C 0.50249 0.8572 0.8647 0.0
C2121 C 0.49141 0.89008 0.85867 0.0
N2122 N 0.5005 0.94944 0.85975 0.0
N2123 N 0.54792 0.82183 0.88113 0.0
C2124 C 0.50944 0.91823 0.86888 0.0
C2125 C 0.53294 0.85259 0.87986 0.0
N2126 N 0.5507 0.93973 0.90265 0.0
N2127 N 0.48267 0.83047 0.85772 0.0
H2128 H 0.57037 0.81763 0.89214 0.0
H2129 H 0.53984 0.80135 0.86911 0.0
H2130 H 0.4596 0.83306 0.84735 0.0
H2131 H 0.48764 0.80608 0.86442 0.0
H2132 H 0.54129 0.96403 0.90197 0.0
H2133 H 0.57126 0.93689 0.91633 0.0
H2134 H 0.51412 0.97104 0.86441 0.0
H2135 H 0.48068 0.95321 0.84548 0.0
C2136 C 0.85464 0.15174 0.87139 0.0
C2137 C 0.88189 0.15807 0.85264 0.0
C2138 C 0.89599 0.20941 0.87875 0.0
C2139 C 0.86823 0.20372 0.89697 0.0
N2140 N 0.82487 0.16781 0.91493 0.0
N2141 N 0.93325 0.18823 0.84229 0.0
C2142 C 0.8489 0.17405 0.89476 0.0
C2143 C 0.90437 0.18513 0.85792 0.0
N2144 N 0.8336 0.12543 0.86599 0.0
N2145 N 0.91254 0.23942 0.87971 0.0
H2146 H 0.93895 0.17282 0.82502 0.0
H2147 H 0.95264 0.20465 0.84757 0.0
H2148 H 0.90678 0.25818 0.89438 0.0
H2149 H 0.93022 0.247 0.8646 0.0
H2150 H 0.81134 0.12105 0.87706 0.0
H2151 H 0.83806 0.10834 0.84949 0.0
H2152 H 0.81103 0.14574 0.91604 0.0
H2153 H 0.82051 0.18422 0.93196 0.0
C2154 C 0.53718 0.13727 0.63006 0.0
C2155 C 0.53134 0.1161 0.60634 0.0
C2156 C 0.48373 0.09185 0.63185 0.0
C2157 C 0.48379 0.11966 0.65093 0.0
N2158 N 0.51009 0.1717 0.66546 0.0
N2159 N 0.49991 0.07114 0.58493 0.0
C2160 C 0.5109 0.14275 0.64996 0.0
C2161 C 0.5052 0.09222 0.60751 0.0
N2162 N 0.56743 0.1529 0.63291 0.0
N2163 N 0.46302 0.06534 0.63707 0.0
H2164 H 0.51605 0.07028 0.56732 0.0
H2165 H 0.47882 0.05576 0.58319 0.0
H2166 H 0.44808 0.06428 0.65537 0.0
H2167 H 0.46343 0.04332 0.62509 0.0
H2168 H 0.57407 0.16598 0.65142 0.0
H2169 H 0.58684 0.14934 0.61815 0.0
H2170 H 0.52818 0.19042 0.66328 0.0
H2171 H 0.48965 0.1788 0.67792 0.0
C2172 C 0.61288 0.88046 0.38753 0.0
C2173 C 0.64278 0.8775 0.37095 0.0
C2174 C 0.6704 0.8468 0.40945 0.0
C2175 C 0.63994 0.84752 0.42498 0.0
N2176 N 0.58545 0.87093 0.43343 0.0
N2177 N 0.70227 0.86796 0.36894 0.0
C2178 C 0.61234 0.86676 0.41559 0.0
C2179 C 0.67248 0.86428 0.38312 0.0
N2180 N 0.58444 0.89395 0.37578 0.0
N2181 N 0.69653 0.82782 0.41922 0.0
H2182 H 0.70391 0.88099 0.34958 0.0
H2183 H 0.72543 0.86095 0.37741 0.0
H2184 H 0.6955 0.81493 0.43863 0.0
H2185 H 0.7183 0.82326 0.40752 0.0
H2186 H 0.56099 0.89353 0.3856 0.0
H2187 H 0.58353 0.90439 0.35538 0.0
H2188 H 0.56534 0.88681 0.42916 0.0
H2189 H 0.58443 0.86008 0.45376 0.0
C2190 C 0.99684 0.86525 0.11087 0.0
C2191 C 0.98651 0.87739 0.13796 0.0
C2192 C 0.92764 0.86711 0.12553 0.0
C2193 C 0.9382 0.85627 0.09807 0.0
N2194 N 0.98119 0.85424 0.06172 0.0
N2195 N 0.94272 0.89623 0.16946 0.0
C2196 C 0.9723 0.85881 0.08975 0.0
C2197 C 0.95197 0.88042 0.14476 0.0
N2198 N 0.02977 0.85733 0.10608 0.0
N2199 N 0.89484 0.86336 0.13352 0.0
H2200 H 0.96034 0.90623 0.18369 0.0
H2201 H 0.9179 0.90176 0.17465 0.0
H2202 H 0.87641 0.8546 0.11945 0.0
H2203 H 0.88628 0.86735 0.15432 0.0
H2204 H 0.03805 0.84526 0.08759 0.0
H2205 H 0.04829 0.85931 0.12179 0.0
H2206 H 1.00541 0.85861 0.05407 0.0
H2207 H 0.96358 0.84943 0.04566 0.0
C2208 C 0.6456 0.76725 0.82115 0.0
C2209 C 0.64142 0.73222 0.8177 0.0
C2210 C 0.6545 0.72401 0.86873 0.0
C2211 C 0.65334 0.75901 0.87271 0.0
N2212 N 0.64642 0.81451 0.85394 0.0
N2213 N 0.64212 0.67661 0.83838 0.0
C2214 C 0.64882 0.78085 0.84917 0.0
C2215 C 0.64652 0.71032 0.84145 0.0
N2216 N 0.64623 0.78728 0.79743 0.0
N2217 N 0.66389 0.70399 0.89109 0.0
H2218 H 0.63992 0.66499 0.81858 0.0
H2219 H 0.63996 0.66012 0.85557 0.0
H2220 H 0.6689 0.71347 0.91151 0.0
H2221 H 0.669 0.67854 0.88903 0.0
H2222 H 0.65163 0.81278 0.79801 0.0
H2223 H 0.64432 0.77748 0.77673 0.0
H2224 H 0.63983 0.83178 0.8382 0.0
H2225 H 0.64863 0.82495 0.87436 0.0
C2226 C 0.50339 0.42263 0.09655 0.0
C2227 C 0.52762 0.41098 0.11648 0.0
C2228 C 0.57063 0.41499 0.07927 0.0
C2229 C 0.54498 0.41679 0.05821 0.0
N2230 N 0.48728 0.42735 0.04647 0.0
N2231 N 0.58504 0.39696 0.12728 0.0
C2232 C 0.51145 0.42295 0.06688 0.0
C2233 C 0.56162 0.40789 0.10805 0.0
N2234 N 0.47334 0.43446 0.10617 0.0
N2235 N 0.60339 0.42004 0.07184 0.0
H2236 H 0.57893 0.38985 0.14814 0.0
H2237 H 0.61 0.39233 0.12197 0.0
H2238 H 0.61056 0.42721 0.05132 0.0
H2239 H 0.62293 0.42134 0.08666 0.0
H2240 H 0.45533 0.44534 0.09293 0.0
H2241 H 0.46833 0.43685 0.12794 0.0
H2242 H 0.46164 0.42793 0.05094 0.0
H2243 H 0.49337 0.42922 0.02475 0.0
C2244 C 0.90236 0.28843 0.37945 0.0
C2245 C 0.87539 0.29209 0.39867 0.0
C2246 C 0.86205 0.34668 0.37754 0.0
C2247 C 0.88483 0.33963 0.35496 0.0
N2248 N 0.92145 0.29939 0.33161 0.0
N2249 N 0.82908 0.32388 0.41696 0.0
C2250 C 0.90411 0.30959 0.35534 0.0
C2251 C 0.85537 0.32134 0.39834 0.0
N2252 N 0.92542 0.26362 0.38373 0.0
N2253 N 0.84652 0.37712 0.37864 0.0
H2254 H 0.82441 0.30574 0.43257 0.0
H2255 H 0.81122 0.3429 0.41612 0.0
H2256 H 0.85086 0.39571 0.36334 0.0
H2257 H 0.83148 0.38478 0.39567 0.0
H2258 H 0.94738 0.26149 0.37169 0.0
H2259 H 0.92417 0.24741 0.40123 0.0
H2260 H 0.93311 0.2761 0.33006 0.0
H2261 H 0.92095 0.31222 0.31224 0.0
C2262 C 0.97023 0.68068 0.64116 0.0
C2263 C 0.9702 0.6512 0.65773 0.0
C2264 C 0.91612 0.63477 0.63679 0.0
C2265 C 0.91925 0.66135 0.61682 0.0
N2266 N 0.95277 0.7064 0.59692 0.0
N2267 N 0.94432 0.59963 0.67201 0.0
C2268 C 0.94695 0.68387 0.61843 0.0
C2269 C 0.94315 0.62826 0.65607 0.0
N2270 N 0.99329 0.70517 0.6468 0.0
N2271 N 0.88754 0.61579 0.63703 0.0
H2272 H 0.96363 0.595 0.68664 0.0
H2273 H 0.92728 0.58 0.66982 0.0
H2274 H 0.86765 0.62009 0.6229 0.0
H2275 H 0.88249 0.59762 0.65244 0.0
H2276 H 0.9927 0.72872 0.6372 0.0
H2277 H 0.01098 0.70298 0.66322 0.0
H2278 H 0.97443 0.72099 0.59563 0.0
H2279 H 0.93782 0.70807 0.57867 0.0
C2280 C 0.59541 0.29091 0.6415 0.0
C2281 C 0.59258 0.32333 0.62961 0.0
C2282 C 0.61539 0.30237 0.58447 0.0
C2283 C 0.61156 0.26921 0.5949 0.0
N2284 N 0.58837 0.23259 0.63086 0.0
N2285 N 0.59767 0.3603 0.58902 0.0
C2286 C 0.59927 0.26358 0.62288 0.0
C2287 C 0.60222 0.32939 0.60086 0.0
N2288 N 0.59313 0.28618 0.67044 0.0
N2289 N 0.63219 0.30799 0.55944 0.0
H2290 H 0.58859 0.38062 0.60075 0.0
H2291 H 0.60098 0.36512 0.56725 0.0
H2292 H 0.64313 0.28867 0.54765 0.0
H2293 H 0.63801 0.33189 0.55197 0.0
H2294 H 0.59728 0.263 0.68011 0.0
H2295 H 0.59064 0.30608 0.68482 0.0
H2296 H 0.57663 0.22804 0.65044 0.0
H2297 H 0.58678 0.21281 0.61638 0.0
C2298 C 0.99281 0.38125 0.90651 0.0
C2299 C 0.95986 0.38189 0.89521 0.0
C2300 C 0.98198 0.40524 0.85068 0.0
C2301 C 0.01495 0.397 0.85987 0.0
N2302 N 0.04999 0.36838 0.89456 0.0
N2303 N 0.92264 0.3927 0.85539 0.0
C2304 C 0.02012 0.38304 0.88745 0.0
C2305 C 0.9541 0.39383 0.86703 0.0
N2306 N 0.99786 0.37738 0.93527 0.0
N2307 N 0.97741 0.42417 0.82667 0.0
H2308 H 0.90164 0.38462 0.86682 0.0
H2309 H 0.91788 0.39772 0.83384 0.0
H2310 H 0.99752 0.43373 0.8149 0.0
H2311 H 0.95399 0.43312 0.82027 0.0
H2312 H 0.02162 0.3788 0.94465 0.0
H2313 H 0.97792 0.37634 0.94979 0.0
H2314 H 0.0536 0.35555 0.91378 0.0
H2315 H 0.06944 0.36489 0.87993 0.0
C2316 C 0.85461 0.7101 0.11922 0.0
C2317 C 0.84809 0.69213 0.09356 0.0
C2318 C 0.86069 0.63945 0.1183 0.0
C2319 C 0.86464 0.65752 0.14434 0.0
N2320 N 0.85634 0.70849 0.17099 0.0
N2321 N 0.8394 0.63976 0.06941 0.0
C2322 C 0.85828 0.69233 0.14522 0.0
C2323 C 0.84932 0.65671 0.09337 0.0
N2324 N 0.85985 0.74391 0.11849 0.0
N2325 N 0.86932 0.60638 0.11705 0.0
H2326 H 0.83126 0.65207 0.05093 0.0
H2327 H 0.83678 0.61382 0.06864 0.0
H2328 H 0.87724 0.59292 0.13498 0.0
H2329 H 0.87057 0.59288 0.09798 0.0
H2330 H 0.86788 0.75763 0.13623 0.0
H2331 H 0.86018 0.75767 0.09955 0.0
H2332 H 0.84891 0.73341 0.17295 0.0
H2333 H 0.85878 0.69594 0.19051 0.0
C2334 C 0.5992 0.70917 0.35476 0.0
C2335 C 0.61982 0.68777 0.37117 0.0
C2336 C 0.60094 0.64019 0.34236 0.0
C2337 C 0.57395 0.65992 0.33202 0.0
N2338 N 0.54679 0.71404 0.32913 0.0
N2339 N 0.64415 0.63358 0.37881 0.0
C2340 C 0.57341 0.69496 0.3376 0.0
C2341 C 0.62259 0.65354 0.3638 0.0
N2342 N 0.60293 0.74301 0.35743 0.0
N2343 N 0.60505 0.60849 0.33201 0.0
H2344 H 0.66089 0.64341 0.39387 0.0
H2345 H 0.64474 0.6076 0.37697 0.0
H2346 H 0.58934 0.59869 0.31614 0.0
H2347 H 0.62542 0.5933 0.33718 0.0
H2348 H 0.5903 0.76025 0.34458 0.0
H2349 H 0.62136 0.75338 0.37072 0.0
H2350 H 0.54334 0.73881 0.3355 0.0
H2351 H 0.52676 0.70457 0.31742 0.0
C2352 C 0.35 0.32361 0.11715 0.0
C2353 C 0.38113 0.32735 0.13163 0.0
C2354 C 0.40143 0.27487 0.1105 0.0
C2355 C 0.36916 0.26923 0.09884 0.0
N2356 N 0.31227 0.28652 0.09089 0.0
N2357 N 0.43539 0.30471 0.14492 0.0
C2358 C 0.34333 0.29333 0.10189 0.0
C2359 C 0.40677 0.30271 0.12874 0.0
N2360 N 0.32712 0.34909 0.11797 0.0
N2361 N 0.42698 0.25326 0.1042 0.0
H2362 H 0.44058 0.3245 0.15872 0.0
H2363 H 0.45298 0.28551 0.14649 0.0
H2364 H 0.4234 0.23162 0.09214 0.0
H2365 H 0.45212 0.258 0.10893 0.0
H2366 H 0.30491 0.34928 0.10618 0.0
H2367 H 0.33156 0.37133 0.12913 0.0
H2368 H 0.29113 0.30124 0.09448 0.0
H2369 H 0.3074 0.26489 0.07901 0.0
C2370 C 0.5185 0.63037 0.89003 0.0
C2371 C 0.51099 0.61932 0.86185 0.0
C2372 C 0.46031 0.59119 0.87952 0.0
C2373 C 0.46755 0.60335 0.90724 0.0
N2374 N 0.5088 0.62267 0.94091 0.0
N2375 N 0.48142 0.57968 0.83188 0.0
C2376 C 0.49908 0.61808 0.91313 0.0
C2377 C 0.48401 0.59652 0.85722 0.0
N2378 N 0.54194 0.65485 0.89449 0.0
N2379 N 0.43002 0.57634 0.87432 0.0
H2380 H 0.49912 0.58219 0.81562 0.0
H2381 H 0.4638 0.56084 0.8282 0.0
H2382 H 0.41306 0.57115 0.89081 0.0
H2383 H 0.4214 0.57052 0.85381 0.0
H2384 H 0.54607 0.66593 0.91441 0.0
H2385 H 0.55467 0.66674 0.87784 0.0
H2386 H 0.53249 0.63156 0.94667 0.0
H2387 H 0.49408 0.61425 0.95798 0.0
C2388 C 0.13639 0.72896 0.62377 0.0
C2389 C 0.13138 0.74425 0.65097 0.0
C2390 C 0.14009 0.79932 0.6297 0.0
C2391 C 0.14928 0.78378 0.60361 0.0
N2392 N 0.16226 0.73392 0.57699 0.0
N2393 N 0.13534 0.79336 0.68106 0.0
C2394 C 0.14931 0.74856 0.601 0.0
C2395 C 0.13544 0.7793 0.65435 0.0
N2396 N 0.1271 0.69642 0.61917 0.0
N2397 N 0.134 0.83295 0.63052 0.0
H2398 H 0.13276 0.77925 0.69975 0.0
H2399 H 0.14115 0.81846 0.68472 0.0
H2400 H 0.13512 0.84799 0.61229 0.0
H2401 H 0.12416 0.84505 0.64844 0.0
H2402 H 0.12726 0.68533 0.59895 0.0
H2403 H 0.11605 0.68146 0.63486 0.0
H2404 H 0.16586 0.70817 0.57506 0.0
H2405 H 0.1723 0.74784 0.56011 0.0
C2406 C 0.05482 0.34333 0.37253 0.0
C2407 C 0.05162 0.37484 0.38658 0.0
C2408 C 0.0234 0.39825 0.34466 0.0
C2409 C 0.02831 0.36738 0.33025 0.0
N2410 N 0.05199 0.31233 0.32781 0.0
N2411 N 0.03638 0.43318 0.38584 0.0
C2412 C 0.04489 0.34036 0.3435 0.0
C2413 C 0.03688 0.40262 0.37259 0.0
N2414 N 0.06696 0.3162 0.3871 0.0
N2415 N 1.0051 0.42295 0.33176 0.0
H2416 H 0.04501 0.43683 0.40674 0.0
H2417 H 0.02927 0.4553 0.37575 0.0
H2418 H 0.99595 0.42085 0.31091 0.0
H2419 H 0.99729 0.44469 0.34208 0.0
H2420 H 0.06624 0.2918 0.37926 0.0
H2421 H 0.07636 0.31769 0.40787 0.0
H2422 H 0.06725 0.29291 0.33501 0.0
H2423 H 0.04452 0.30962 0.30648 0.0
C2424 C 0.4058 0.73163 0.37633 0.0
C2425 C 0.43321 0.71191 0.3671 0.0
C2426 C 0.45383 0.70759 0.41654 0.0
C2427 C 0.42423 0.7236 0.42615 0.0
N2428 N 0.3717 0.75138 0.41581 0.0
N2429 N 0.48372 0.68076 0.37751 0.0
C2430 C 0.40016 0.73593 0.40618 0.0
C2431 C 0.45765 0.70016 0.38693 0.0
N2432 N 0.38576 0.74685 0.35639 0.0
N2433 N 0.47815 0.6995 0.43598 0.0
H2434 H 0.48795 0.6758 0.3559 0.0
H2435 H 0.50042 0.66833 0.39097 0.0
H2436 H 0.47472 0.7028 0.45792 0.0
H2437 H 0.50213 0.69133 0.4305 0.0
H2438 H 0.36734 0.76439 0.36135 0.0
H2439 H 0.38948 0.74405 0.33438 0.0
H2440 H 0.35127 0.75724 0.40282 0.0
H2441 H 0.36762 0.75727 0.43723 0.0
C2442 C 0.01061 0.57493 0.12771 0.0
C2443 C 0.02368 0.56688 0.15508 0.0
C2444 C 0.08084 0.56753 0.13575 0.0
C2445 C 0.06731 0.57385 0.10814 0.0
N2446 N 0.01951 0.57395 0.07646 0.0
N2447 N 0.06989 0.54906 0.18448 0.0
C2448 C 0.03214 0.57391 0.10371 0.0
C2449 C 0.05848 0.56106 0.15888 0.0
N2450 N 0.97824 0.5859 0.12498 0.0
N2451 N 0.11474 0.56934 0.14009 0.0
H2452 H 0.05383 0.54434 0.20167 0.0
H2453 H 0.09459 0.54139 0.18786 0.0
H2454 H 0.13175 0.5732 0.12342 0.0
H2455 H 0.12578 0.56876 0.16033 0.0
H2456 H 0.9684 0.59506 0.10583 0.0
H2457 H 0.9624 0.58953 0.1425 0.0
H2458 H 0.99398 0.57143 0.07194 0.0
H2459 H 0.035 0.57309 0.05842 0.0
C2460 C 0.16795 0.26764 0.87169 0.0
C2461 C 0.15452 0.26268 0.84384 0.0
C2462 C 0.12832 0.21049 0.85922 0.0
C2463 C 0.14239 0.21462 0.88687 0.0
N2464 N 0.18246 0.24262 0.91739 0.0
N2465 N 0.1312 0.22499 0.8089 0.0
C2466 C 0.16448 0.24179 0.89249 0.0
C2467 C 0.13842 0.23214 0.83686 0.0
N2468 N 0.18223 0.29765 0.87872 0.0
N2469 N 0.10323 0.18768 0.85492 0.0
H2470 H 0.13824 0.24098 0.79223 0.0
H2471 H 0.12139 0.20204 0.80226 0.0
H2472 H 0.09321 0.17327 0.87149 0.0
H2473 H 0.08984 0.18582 0.83579 0.0
H2474 H 0.18864 0.30426 0.89962 0.0
H2475 H 0.18614 0.31661 0.86372 0.0
H2476 H 0.20134 0.2601 0.92145 0.0
H2477 H 0.1805 0.22407 0.93297 0.0
C2478 C 0.38831 0.40459 0.60739 0.0
C2479 C 0.40894 0.40286 0.58259 0.0
C2480 C 0.45848 0.41672 0.61102 0.0
C2481 C 0.43789 0.41969 0.63568 0.0
N2482 N 0.38323 0.42234 0.65711 0.0
N2483 N 0.46117 0.41598 0.55919 0.0
C2484 C 0.40268 0.41562 0.63372 0.0
C2485 C 0.44321 0.41213 0.58394 0.0
N2486 N 0.35565 0.39411 0.60609 0.0
N2487 N 0.49268 0.41613 0.61374 0.0
H2488 H 0.45032 0.41284 0.53898 0.0
H2489 H 0.48556 0.42548 0.55867 0.0
H2490 H 0.50491 0.41782 0.63344 0.0
H2491 H 0.50883 0.4105 0.59685 0.0
H2492 H 0.34045 0.39113 0.62407 0.0
H2493 H 0.34418 0.38662 0.58703 0.0
H2494 H 0.35707 0.42284 0.65659 0.0
H2495 H 0.39358 0.4298 0.67667 0.0
loop_
_geom_bond_atom_site_label_1
_geom_bond_atom_site_label_2
_geom_bond_distance
_geom_bond_site_symmetry_2
_ccdc_geom_bond_type
C0 C1 1.351 . S
C0 N3 1.368 . S
C0 H5 0.931 . S
C1 C0 1.351 . S
C1 N2 1.373 1_455 S
C1 H29 0.930 . S
N2 C1 1.373 1_655 S
N2 C4 1.340 1_655 S
N3 C0 1.368 . S
N3 C4 1.321 . S
N3 Co6 2.135 . S
C4 N2 1.340 1_455 S
C4 N3 1.321 . S
C4 H28 0.930 1_455 S
H5 C0 0.931 . S
Co6 N3 2.135 . S
Co6 N9 2.121 . S
Co6 O14 2.055 . S
Co6 O17 2.039 . S
Co6 N20 2.140 . S
C7 O8 1.227 . S
C7 O17 1.265 . S
O8 C7 1.227 . S
N9 Co6 2.121 . S
N9 C11 1.375 . S
N9 C12 1.313 . S
C10 C11 1.338 . S
C10 N13 1.377 . S
C10 H30 0.930 . S
C11 N9 1.375 . S
C11 C10 1.338 . S
C11 H15 0.931 . S
C12 N9 1.313 . S
C12 N13 1.344 . S
C12 H16 0.930 . S
N13 C10 1.377 . S
N13 C12 1.344 . S
O14 Co6 2.055 . S
O14 C18 1.253 . S
H15 C11 0.931 . S
H16 C12 0.930 . S
O17 Co6 2.039 . S
O17 C7 1.265 . S
C18 O14 1.253 . S
C18 O19 1.227 . S
O19 C18 1.227 . S
N20 Co6 2.140 . S
N20 C23 1.346 . S
N20 C24 1.345 . S
C21 C22 1.387 . S
C21 C25 1.391 . S
C22 C21 1.387 . S
C22 C23 1.369 . S
C22 H31 0.929 . S
C23 N20 1.346 . S
C23 C22 1.369 . S
C23 H26 0.928 . S
C24 N20 1.345 . S
C24 C25 1.371 . S
C24 H27 0.931 . S
C25 C21 1.391 . S
C25 C24 1.371 . S
C25 H32 0.930 . S
H26 C23 0.928 . S
H27 C24 0.931 . S
H28 C4 0.930 1_655 S
H29 C1 0.930 . S
H30 C10 0.930 . S
H31 C22 0.929 . S
H32 C25 0.930 . S
C33 C34 1.351 . S
C33 N36 1.368 . S
C33 H38 0.931 . S
C34 C33 1.351 . S
C34 N35 1.373 . S
C34 H62 0.930 . S
N35 C34 1.373 . S
N35 C37 1.340 . S
N36 C33 1.368 . S
N36 C37 1.321 . S
N36 Co39 2.135 . S
C37 N35 1.340 . S
C37 N36 1.321 . S
C37 H61 0.930 . S
H38 C33 0.931 . S
Co39 N36 2.135 . S
Co39 N42 2.121 . S
Co39 O47 2.055 . S
Co39 O50 2.039 . S
Co39 N53 2.140 . S
C40 O41 1.227 . S
C40 O50 1.265 . S
O41 C40 1.227 . S
N42 Co39 2.121 . S
N42 C44 1.375 . S
N42 C45 1.313 . S
C43 C44 1.338 . S
C43 N46 1.377 . S
C43 H63 0.930 . S
C44 N42 1.375 . S
C44 C43 1.338 . S
C44 H48 0.931 . S
C45 N42 1.313 . S
C45 N46 1.344 . S
C45 H49 0.930 . S
N46 C43 1.377 . S
N46 C45 1.344 . S
O47 Co39 2.055 . S
O47 C51 1.253 . S
H48 C44 0.931 . S
H49 C45 0.930 . S
O50 Co39 2.039 . S
O50 C40 1.265 . S
C51 O47 1.253 . S
C51 O52 1.227 . S
O52 C51 1.227 . S
N53 Co39 2.140 . S
N53 C56 1.346 . S
N53 C57 1.345 . S
C54 C55 1.387 . S
C54 C58 1.391 . S
C55 C54 1.387 . S
C55 C56 1.369 . S
C55 H64 0.929 . S
C56 N53 1.346 . S
C56 C55 1.369 . S
C56 H59 0.928 . S
C57 N53 1.345 . S
C57 C58 1.371 . S
C57 H60 0.931 . S
C58 C54 1.391 . S
C58 C57 1.371 . S
C58 H65 0.930 . S
H59 C56 0.928 . S
H60 C57 0.931 . S
H61 C37 0.930 . S
H62 C34 0.930 . S
H63 C43 0.930 . S
H64 C55 0.929 . S
H65 C58 0.930 . S
C66 C67 1.351 . S
C66 N69 1.368 . S
C66 H71 0.931 . S
C67 C66 1.351 . S
C67 N68 1.373 . S
C67 H95 0.930 . S
N68 C67 1.373 . S
N68 C70 1.340 . S
N69 C66 1.368 . S
N69 C70 1.321 . S
N69 Co72 2.135 . S
C70 N68 1.340 . S
C70 N69 1.321 . S
C70 H94 0.930 . S
H71 C66 0.931 . S
Co72 N69 2.135 . S
Co72 N75 2.121 . S
Co72 O80 2.055 . S
Co72 O83 2.039 . S
Co72 N86 2.140 . S
C73 O74 1.227 . S
C73 O83 1.265 . S
O74 C73 1.227 . S
N75 Co72 2.121 . S
N75 C77 1.375 . S
N75 C78 1.313 . S
C76 C77 1.338 . S
C76 N79 1.377 . S
C76 H96 0.930 . S
C77 N75 1.375 . S
C77 C76 1.338 . S
C77 H81 0.931 . S
C78 N75 1.313 . S
C78 N79 1.344 . S
C78 H82 0.930 . S
N79 C76 1.377 . S
N79 C78 1.344 . S
O80 Co72 2.055 . S
O80 C84 1.253 . S
H81 C77 0.931 . S
H82 C78 0.930 . S
O83 Co72 2.039 . S
O83 C73 1.265 . S
C84 O80 1.253 . S
C84 O85 1.227 . S
O85 C84 1.227 . S
N86 Co72 2.140 . S
N86 C89 1.346 . S
N86 C90 1.345 . S
C87 C88 1.387 . S
C87 C91 1.391 . S
C88 C87 1.387 . S
C88 C89 1.369 . S
C88 H97 0.929 . S
C89 N86 1.346 . S
C89 C88 1.369 . S
C89 H92 0.928 . S
C90 N86 1.345 . S
C90 C91 1.371 . S
C90 H93 0.931 . S
C91 C87 1.391 . S
C91 C90 1.371 . S
C91 H98 0.930 . S
H92 C89 0.928 . S
H93 C90 0.931 . S
H94 C70 0.930 . S
H95 C67 0.930 . S
H96 C76 0.930 . S
H97 C88 0.929 . S
H98 C91 0.930 . S
C99 C100 1.351 . S
C99 N102 1.368 . S
C99 H104 0.931 . S
C100 C99 1.351 . S
C100 N101 1.373 . S
C100 H128 0.930 . S
N101 C100 1.373 . S
N101 C103 1.340 . S
N102 C99 1.368 . S
N102 C103 1.321 . S
N102 Co105 2.135 . S
C103 N101 1.340 . S
C103 N102 1.321 . S
C103 H127 0.930 . S
H104 C99 0.931 . S
Co105 N102 2.135 . S
Co105 N108 2.121 1_554 S
Co105 O113 2.055 1_554 S
Co105 O116 2.039 . S
Co105 N119 2.140 . S
C106 O107 1.227 . S
C106 O116 1.265 . S
O107 C106 1.227 . S
N108 Co105 2.121 1_556 S
N108 C110 1.375 . S
N108 C111 1.313 . S
C109 C110 1.338 . S
C109 N112 1.377 . S
C109 H129 0.930 . S
C110 N108 1.375 . S
C110 C109 1.338 . S
C110 H114 0.931 . S
C111 N108 1.313 . S
C111 N112 1.344 . S
C111 H115 0.930 . S
N112 C109 1.377 . S
N112 C111 1.344 . S
O113 Co105 2.055 1_556 S
O113 C117 1.253 1_556 S
H114 C110 0.931 . S
H115 C111 0.930 . S
O116 Co105 2.039 . S
O116 C106 1.265 . S
C117 O113 1.253 1_554 S
C117 O118 1.227 . S
O118 C117 1.227 . S
N119 Co105 2.140 . S
N119 C122 1.346 . S
N119 C123 1.345 . S
C120 C121 1.387 . S
C120 C124 1.391 . S
C121 C120 1.387 . S
C121 C122 1.369 . S
C121 H130 0.929 . S
C122 N119 1.346 . S
C122 C121 1.369 . S
C122 H125 0.928 . S
C123 N119 1.345 . S
C123 C124 1.371 . S
C123 H126 0.931 . S
C124 C120 1.391 . S
C124 C123 1.371 . S
C124 H131 0.930 . S
H125 C122 0.928 . S
H126 C123 0.931 . S
H127 C103 0.930 . S
H128 C100 0.930 . S
H129 C109 0.930 . S
H130 C121 0.929 . S
H131 C124 0.930 . S
C132 C133 1.351 . S
C132 N135 1.368 . S
C132 H137 0.931 . S
C133 C132 1.351 . S
C133 N134 1.373 1_455 S
C133 H161 0.930 . S
N134 C133 1.373 1_655 S
N134 C136 1.340 1_655 S
N135 C132 1.368 . S
N135 C136 1.321 . S
N135 Co138 2.135 . S
C136 N134 1.340 1_455 S
C136 N135 1.321 . S
C136 H160 0.930 1_455 S
H137 C132 0.931 . S
Co138 N135 2.135 . S
Co138 N141 2.121 . S
Co138 O146 2.055 . S
Co138 O149 2.039 . S
Co138 N152 2.140 . S
C139 O140 1.227 . S
C139 O149 1.265 . S
O140 C139 1.227 . S
N141 Co138 2.121 . S
N141 C143 1.375 . S
N141 C144 1.313 . S
C142 C143 1.338 . S
C142 N145 1.377 . S
C142 H162 0.930 . S
C143 N141 1.375 . S
C143 C142 1.338 . S
C143 H147 0.931 . S
C144 N141 1.313 . S
C144 N145 1.344 . S
C144 H148 0.930 . S
N145 C142 1.377 . S
N145 C144 1.344 . S
O146 Co138 2.055 . S
O146 C150 1.253 . S
H147 C143 0.931 . S
H148 C144 0.930 . S
O149 Co138 2.039 . S
O149 C139 1.265 . S
C150 O146 1.253 . S
C150 O151 1.227 . S
O151 C150 1.227 . S
N152 Co138 2.140 . S
N152 C155 1.346 . S
N152 C156 1.345 . S
C153 C154 1.387 . S
C153 C157 1.391 . S
C154 C153 1.387 . S
C154 C155 1.369 . S
C154 H163 0.929 . S
C155 N152 1.346 . S
C155 C154 1.369 . S
C155 H158 0.928 . S
C156 N152 1.345 . S
C156 C157 1.371 . S
C156 H159 0.931 . S
C157 C153 1.391 . S
C157 C156 1.371 . S
C157 H164 0.930 . S
H158 C155 0.928 . S
H159 C156 0.931 . S
H160 C136 0.930 1_655 S
H161 C133 0.930 . S
H162 C142 0.930 . S
H163 C154 0.929 . S
H164 C157 0.930 . S
C165 C166 1.351 . S
C165 N168 1.368 . S
C165 H170 0.931 . S
C166 C165 1.351 . S
C166 N167 1.373 . S
C166 H194 0.930 . S
N167 C166 1.373 . S
N167 C169 1.340 . S
N168 C165 1.368 . S
N168 C169 1.321 . S
N168 Co171 2.135 . S
C169 N167 1.340 . S
C169 N168 1.321 . S
C169 H193 0.930 . S
H170 C165 0.931 . S
Co171 N168 2.135 . S
Co171 N174 2.121 . S
Co171 O179 2.055 . S
Co171 O182 2.039 . S
Co171 N185 2.140 . S
C172 O173 1.227 . S
C172 O182 1.265 . S
O173 C172 1.227 . S
N174 Co171 2.121 . S
N174 C176 1.375 . S
N174 C177 1.313 . S
C175 C176 1.338 . S
C175 N178 1.377 . S
C175 H195 0.930 . S
C176 N174 1.375 . S
C176 C175 1.338 . S
C176 H180 0.931 . S
C177 N174 1.313 . S
C177 N178 1.344 . S
C177 H181 0.930 . S
N178 C175 1.377 . S
N178 C177 1.344 . S
O179 Co171 2.055 . S
O179 C183 1.253 . S
H180 C176 0.931 . S
H181 C177 0.930 . S
O182 Co171 2.039 . S
O182 C172 1.265 . S
C183 O179 1.253 . S
C183 O184 1.227 . S
O184 C183 1.227 . S
N185 Co171 2.140 . S
N185 C188 1.346 . S
N185 C189 1.345 . S
C186 C187 1.387 . S
C186 C190 1.391 . S
C187 C186 1.387 . S
C187 C188 1.369 . S
C187 H196 0.929 . S
C188 N185 1.346 . S
C188 C187 1.369 . S
C188 H191 0.928 . S
C189 N185 1.345 . S
C189 C190 1.371 . S
C189 H192 0.931 . S
C190 C186 1.391 . S
C190 C189 1.371 . S
C190 H197 0.930 . S
H191 C188 0.928 . S
H192 C189 0.931 . S
H193 C169 0.930 . S
H194 C166 0.930 . S
H195 C175 0.930 . S
H196 C187 0.929 . S
H197 C190 0.930 . S
C198 C199 1.351 . S
C198 N201 1.368 . S
C198 H203 0.931 . S
C199 C198 1.351 . S
C199 N200 1.373 . S
C199 H227 0.930 . S
N200 C199 1.373 . S
N200 C202 1.340 . S
N201 C198 1.368 . S
N201 C202 1.321 . S
N201 Co204 2.135 . S
C202 N200 1.340 . S
C202 N201 1.321 . S
C202 H226 0.930 . S
H203 C198 0.931 . S
Co204 N201 2.135 . S
Co204 N207 2.121 . S
Co204 O212 2.055 . S
Co204 O215 2.039 . S
Co204 N218 2.140 . S
C205 O206 1.227 . S
C205 O215 1.265 . S
O206 C205 1.227 . S
N207 Co204 2.121 . S
N207 C209 1.375 . S
N207 C210 1.313 . S
C208 C209 1.338 . S
C208 N211 1.377 . S
C208 H228 0.930 . S
C209 N207 1.375 . S
C209 C208 1.338 . S
C209 H213 0.931 . S
C210 N207 1.313 . S
C210 N211 1.344 . S
C210 H214 0.930 . S
N211 C208 1.377 . S
N211 C210 1.344 . S
O212 Co204 2.055 . S
O212 C216 1.253 . S
H213 C209 0.931 . S
H214 C210 0.930 . S
O215 Co204 2.039 . S
O215 C205 1.265 . S
C216 O212 1.253 . S
C216 O217 1.227 . S
O217 C216 1.227 . S
N218 Co204 2.140 . S
N218 C221 1.346 . S
N218 C222 1.345 . S
C219 C220 1.387 . S
C219 C223 1.391 . S
C220 C219 1.387 . S
C220 C221 1.369 . S
C220 H229 0.929 . S
C221 N218 1.346 . S
C221 C220 1.369 . S
C221 H224 0.928 . S
C222 N218 1.345 . S
C222 C223 1.371 . S
C222 H225 0.931 . S
C223 C219 1.391 . S
C223 C222 1.371 . S
C223 H230 0.930 . S
H224 C221 0.928 . S
H225 C222 0.931 . S
H226 C202 0.930 . S
H227 C199 0.930 . S
H228 C208 0.930 . S
H229 C220 0.929 . S
H230 C223 0.930 . S
C231 C232 1.351 . S
C231 N234 1.368 . S
C231 H236 0.931 . S
C232 C231 1.351 . S
C232 N233 1.373 . S
C232 H260 0.930 . S
N233 C232 1.373 . S
N233 C235 1.340 . S
N234 C231 1.368 . S
N234 C235 1.321 . S
N234 Co237 2.135 . S
C235 N233 1.340 . S
C235 N234 1.321 . S
C235 H259 0.930 . S
H236 C231 0.931 . S
Co237 N234 2.135 . S
Co237 N240 2.121 1_556 S
Co237 O245 2.055 1_556 S
Co237 O248 2.039 . S
Co237 N251 2.140 . S
C238 O239 1.227 . S
C238 O248 1.265 . S
O239 C238 1.227 . S
N240 Co237 2.121 1_554 S
N240 C242 1.375 . S
N240 C243 1.313 . S
C241 C242 1.338 . S
C241 N244 1.377 . S
C241 H261 0.930 . S
C242 N240 1.375 . S
C242 C241 1.338 . S
C242 H246 0.931 . S
C243 N240 1.313 . S
C243 N244 1.344 . S
C243 H247 0.930 . S
N244 C241 1.377 . S
N244 C243 1.344 . S
O245 Co237 2.055 1_554 S
O245 C249 1.253 1_554 S
H246 C242 0.931 . S
H247 C243 0.930 . S
O248 Co237 2.039 . S
O248 C238 1.265 . S
C249 O245 1.253 1_556 S
C249 O250 1.227 . S
O250 C249 1.227 . S
N251 Co237 2.140 . S
N251 C254 1.346 . S
N251 C255 1.345 . S
C252 C253 1.387 . S
C252 C256 1.391 . S
C253 C252 1.387 . S
C253 C254 1.369 . S
C253 H262 0.929 . S
C254 N251 1.346 . S
C254 C253 1.369 . S
C254 H257 0.928 . S
C255 N251 1.345 . S
C255 C256 1.371 . S
C255 H258 0.931 . S
C256 C252 1.391 . S
C256 C255 1.371 . S
C256 H263 0.930 . S
H257 C254 0.928 . S
H258 C255 0.931 . S
H259 C235 0.930 . S
H260 C232 0.930 . S
H261 C241 0.930 . S
H262 C253 0.929 . S
H263 C256 0.930 . S
C264 C265 1.351 . S
C264 N267 1.368 . S
C264 H269 0.931 . S
C265 C264 1.351 . S
C265 N266 1.373 1_655 S
C265 H293 0.930 . S
N266 C265 1.373 1_455 S
N266 C268 1.340 1_455 S
N267 C264 1.368 . S
N267 C268 1.321 . S
N267 Co270 2.135 . S
C268 N266 1.340 1_655 S
C268 N267 1.321 . S
C268 H292 0.930 1_655 S
H269 C264 0.931 . S
Co270 N267 2.135 . S
Co270 N273 2.121 . S
Co270 O278 2.055 . S
Co270 O281 2.039 . S
Co270 N284 2.140 . S
C271 O272 1.227 . S
C271 O281 1.265 . S
O272 C271 1.227 . S
N273 Co270 2.121 . S
N273 C275 1.375 . S
N273 C276 1.313 . S
C274 C275 1.338 . S
C274 N277 1.377 . S
C274 H294 0.930 . S
C275 N273 1.375 . S
C275 C274 1.338 . S
C275 H279 0.931 . S
C276 N273 1.313 . S
C276 N277 1.344 . S
C276 H280 0.930 . S
N277 C274 1.377 . S
N277 C276 1.344 . S
O278 Co270 2.055 . S
O278 C282 1.253 . S
H279 C275 0.931 . S
H280 C276 0.930 . S
O281 Co270 2.039 . S
O281 C271 1.265 . S
C282 O278 1.253 . S
C282 O283 1.227 . S
O283 C282 1.227 . S
N284 Co270 2.140 . S
N284 C287 1.346 . S
N284 C288 1.345 . S
C285 C286 1.387 . S
C285 C289 1.391 . S
C286 C285 1.387 . S
C286 C287 1.369 . S
C286 H295 0.929 . S
C287 N284 1.346 . S
C287 C286 1.369 . S
C287 H290 0.928 . S
C288 N284 1.345 . S
C288 C289 1.371 . S
C288 H291 0.931 . S
C289 C285 1.391 . S
C289 C288 1.371 . S
C289 H296 0.930 . S
H290 C287 0.928 . S
H291 C288 0.931 . S
H292 C268 0.930 1_455 S
H293 C265 0.930 . S
H294 C274 0.930 . S
H295 C286 0.929 . S
H296 C289 0.930 . S
C297 C298 1.351 . S
C297 N300 1.368 . S
C297 H302 0.931 . S
C298 C297 1.351 . S
C298 N299 1.373 . S
C298 H326 0.930 . S
N299 C298 1.373 . S
N299 C301 1.340 . S
N300 C297 1.368 . S
N300 C301 1.321 . S
N300 Co303 2.135 . S
C301 N299 1.340 . S
C301 N300 1.321 . S
C301 H325 0.930 . S
H302 C297 0.931 . S
Co303 N300 2.135 . S
Co303 N306 2.121 . S
Co303 O311 2.055 . S
Co303 O314 2.039 . S
Co303 N317 2.140 . S
C304 O305 1.227 . S
C304 O314 1.265 . S
O305 C304 1.227 . S
N306 Co303 2.121 . S
N306 C308 1.375 . S
N306 C309 1.313 . S
C307 C308 1.338 . S
C307 N310 1.377 . S
C307 H327 0.930 . S
C308 N306 1.375 . S
C308 C307 1.338 . S
C308 H312 0.931 . S
C309 N306 1.313 . S
C309 N310 1.344 . S
C309 H313 0.930 . S
N310 C307 1.377 . S
N310 C309 1.344 . S
O311 Co303 2.055 . S
O311 C315 1.253 . S
H312 C308 0.931 . S
H313 C309 0.930 . S
O314 Co303 2.039 . S
O314 C304 1.265 . S
C315 O311 1.253 . S
C315 O316 1.227 . S
O316 C315 1.227 . S
N317 Co303 2.140 . S
N317 C320 1.346 . S
N317 C321 1.345 . S
C318 C319 1.387 . S
C318 C322 1.391 . S
C319 C318 1.387 . S
C319 C320 1.369 . S
C319 H328 0.929 . S
C320 N317 1.346 . S
C320 C319 1.369 . S
C320 H323 0.928 . S
C321 N317 1.345 . S
C321 C322 1.371 . S
C321 H324 0.931 . S
C322 C318 1.391 . S
C322 C321 1.371 . S
C322 H329 0.930 . S
H323 C320 0.928 . S
H324 C321 0.931 . S
H325 C301 0.930 . S
H326 C298 0.930 . S
H327 C307 0.930 . S
H328 C319 0.929 . S
H329 C322 0.930 . S
C330 C331 1.351 . S
C330 N333 1.368 . S
C330 H335 0.931 . S
C331 C330 1.351 . S
C331 N332 1.373 . S
C331 H359 0.930 . S
N332 C331 1.373 . S
N332 C334 1.340 . S
N333 C330 1.368 . S
N333 C334 1.321 . S
N333 Co336 2.135 . S
C334 N332 1.340 . S
C334 N333 1.321 . S
C334 H358 0.930 . S
H335 C330 0.931 . S
Co336 N333 2.135 . S
Co336 N339 2.121 . S
Co336 O344 2.055 . S
Co336 O347 2.039 . S
Co336 N350 2.140 . S
C337 O338 1.227 . S
C337 O347 1.265 . S
O338 C337 1.227 . S
N339 Co336 2.121 . S
N339 C341 1.375 . S
N339 C342 1.313 . S
C340 C341 1.338 . S
C340 N343 1.377 . S
C340 H360 0.930 . S
C341 N339 1.375 . S
C341 C340 1.338 . S
C341 H345 0.931 . S
C342 N339 1.313 . S
C342 N343 1.344 . S
C342 H346 0.930 . S
N343 C340 1.377 . S
N343 C342 1.344 . S
O344 Co336 2.055 . S
O344 C348 1.253 . S
H345 C341 0.931 . S
H346 C342 0.930 . S
O347 Co336 2.039 . S
O347 C337 1.265 . S
C348 O344 1.253 . S
C348 O349 1.227 . S
O349 C348 1.227 . S
N350 Co336 2.140 . S
N350 C353 1.346 . S
N350 C354 1.345 . S
C351 C352 1.387 . S
C351 C355 1.391 . S
C352 C351 1.387 . S
C352 C353 1.369 . S
C352 H361 0.929 . S
C353 N350 1.346 . S
C353 C352 1.369 . S
C353 H356 0.928 . S
C354 N350 1.345 . S
C354 C355 1.371 . S
C354 H357 0.931 . S
C355 C351 1.391 . S
C355 C354 1.371 . S
C355 H362 0.930 . S
H356 C353 0.928 . S
H357 C354 0.931 . S
H358 C334 0.930 . S
H359 C331 0.930 . S
H360 C340 0.930 . S
H361 C352 0.929 . S
H362 C355 0.930 . S
C363 C364 1.351 . S
C363 N366 1.368 . S
C363 H368 0.931 . S
C364 C363 1.351 . S
C364 N365 1.373 . S
C364 H392 0.930 . S
N365 C364 1.373 . S
N365 C367 1.340 . S
N366 C363 1.368 . S
N366 C367 1.321 . S
N366 Co369 2.135 . S
C367 N365 1.340 . S
C367 N366 1.321 . S
C367 H391 0.930 . S
H368 C363 0.931 . S
Co369 N366 2.135 . S
Co369 N372 2.121 1_556 S
Co369 O377 2.055 1_556 S
Co369 O380 2.039 . S
Co369 N383 2.140 . S
C370 O371 1.227 . S
C370 O380 1.265 . S
O371 C370 1.227 . S
N372 Co369 2.121 1_554 S
N372 C374 1.375 . S
N372 C375 1.313 . S
C373 C374 1.338 . S
C373 N376 1.377 . S
C373 H393 0.930 . S
C374 N372 1.375 . S
C374 C373 1.338 . S
C374 H378 0.931 . S
C375 N372 1.313 . S
C375 N376 1.344 . S
C375 H379 0.930 . S
N376 C373 1.377 . S
N376 C375 1.344 . S
O377 Co369 2.055 1_554 S
O377 C381 1.253 1_554 S
H378 C374 0.931 . S
H379 C375 0.930 . S
O380 Co369 2.039 . S
O380 C370 1.265 . S
C381 O377 1.253 1_556 S
C381 O382 1.227 . S
O382 C381 1.227 . S
N383 Co369 2.140 . S
N383 C386 1.346 . S
N383 C387 1.345 . S
C384 C385 1.387 . S
C384 C388 1.391 . S
C385 C384 1.387 . S
C385 C386 1.369 . S
C385 H394 0.929 . S
C386 N383 1.346 . S
C386 C385 1.369 . S
C386 H389 0.928 . S
C387 N383 1.345 . S
C387 C388 1.371 . S
C387 H390 0.931 . S
C388 C384 1.391 . S
C388 C387 1.371 . S
C388 H395 0.930 . S
H389 C386 0.928 . S
H390 C387 0.931 . S
H391 C367 0.930 . S
H392 C364 0.930 . S
H393 C373 0.930 . S
H394 C385 0.929 . S
H395 C388 0.930 . S
C396 C397 1.351 . S
C396 N399 1.368 . S
C396 H401 0.931 . S
C397 C396 1.351 . S
C397 N398 1.373 1_655 S
C397 H425 0.930 . S
N398 C397 1.373 1_455 S
N398 C400 1.340 1_455 S
N399 C396 1.368 . S
N399 C400 1.321 . S
N399 Co402 2.135 . S
C400 N398 1.340 1_655 S
C400 N399 1.321 . S
C400 H424 0.930 1_655 S
H401 C396 0.931 . S
Co402 N399 2.135 . S
Co402 N405 2.121 . S
Co402 O410 2.055 . S
Co402 O413 2.039 . S
Co402 N416 2.140 . S
C403 O404 1.227 . S
C403 O413 1.265 . S
O404 C403 1.227 . S
N405 Co402 2.121 . S
N405 C407 1.375 . S
N405 C408 1.313 . S
C406 C407 1.338 . S
C406 N409 1.377 . S
C406 H426 0.930 . S
C407 N405 1.375 . S
C407 C406 1.338 . S
C407 H411 0.931 . S
C408 N405 1.313 . S
C408 N409 1.344 . S
C408 H412 0.930 . S
N409 C406 1.377 . S
N409 C408 1.344 . S
O410 Co402 2.055 . S
O410 C414 1.253 . S
H411 C407 0.931 . S
H412 C408 0.930 . S
O413 Co402 2.039 . S
O413 C403 1.265 . S
C414 O410 1.253 . S
C414 O415 1.227 . S
O415 C414 1.227 . S
N416 Co402 2.140 . S
N416 C419 1.346 . S
N416 C420 1.345 . S
C417 C418 1.387 . S
C417 C421 1.391 . S
C418 C417 1.387 . S
C418 C419 1.369 . S
C418 H427 0.929 . S
C419 N416 1.346 . S
C419 C418 1.369 . S
C419 H422 0.928 . S
C420 N416 1.345 . S
C420 C421 1.371 . S
C420 H423 0.931 . S
C421 C417 1.391 . S
C421 C420 1.371 . S
C421 H428 0.930 . S
H422 C419 0.928 . S
H423 C420 0.931 . S
H424 C400 0.930 1_455 S
H425 C397 0.930 . S
H426 C406 0.930 . S
H427 C418 0.929 . S
H428 C421 0.930 . S
C429 C430 1.351 . S
C429 N432 1.368 . S
C429 H434 0.931 . S
C430 C429 1.351 . S
C430 N431 1.373 . S
C430 H458 0.930 . S
N431 C430 1.373 . S
N431 C433 1.340 . S
N432 C429 1.368 . S
N432 C433 1.321 . S
N432 Co435 2.135 . S
C433 N431 1.340 . S
C433 N432 1.321 . S
C433 H457 0.930 . S
H434 C429 0.931 . S
Co435 N432 2.135 . S
Co435 N438 2.121 . S
Co435 O443 2.055 . S
Co435 O446 2.039 . S
Co435 N449 2.140 . S
C436 O437 1.227 . S
C436 O446 1.265 . S
O437 C436 1.227 . S
N438 Co435 2.121 . S
N438 C440 1.375 . S
N438 C441 1.313 . S
C439 C440 1.338 . S
C439 N442 1.377 . S
C439 H459 0.930 . S
C440 N438 1.375 . S
C440 C439 1.338 . S
C440 H444 0.931 . S
C441 N438 1.313 . S
C441 N442 1.344 . S
C441 H445 0.930 . S
N442 C439 1.377 . S
N442 C441 1.344 . S
O443 Co435 2.055 . S
O443 C447 1.253 . S
H444 C440 0.931 . S
H445 C441 0.930 . S
O446 Co435 2.039 . S
O446 C436 1.265 . S
C447 O443 1.253 . S
C447 O448 1.227 . S
O448 C447 1.227 . S
N449 Co435 2.140 . S
N449 C452 1.346 . S
N449 C453 1.345 . S
C450 C451 1.387 . S
C450 C454 1.391 . S
C451 C450 1.387 . S
C451 C452 1.369 . S
C451 H460 0.929 . S
C452 N449 1.346 . S
C452 C451 1.369 . S
C452 H455 0.928 . S
C453 N449 1.345 . S
C453 C454 1.371 . S
C453 H456 0.931 . S
C454 C450 1.391 . S
C454 C453 1.371 . S
C454 H461 0.930 . S
H455 C452 0.928 . S
H456 C453 0.931 . S
H457 C433 0.930 . S
H458 C430 0.930 . S
H459 C439 0.930 . S
H460 C451 0.929 . S
H461 C454 0.930 . S
C462 C463 1.351 . S
C462 N465 1.368 . S
C462 H467 0.931 . S
C463 C462 1.351 . S
C463 N464 1.373 . S
C463 H491 0.930 . S
N464 C463 1.373 . S
N464 C466 1.340 . S
N465 C462 1.368 . S
N465 C466 1.321 . S
N465 Co468 2.135 . S
C466 N464 1.340 . S
C466 N465 1.321 . S
C466 H490 0.930 . S
H467 C462 0.931 . S
Co468 N465 2.135 . S
Co468 N471 2.121 . S
Co468 O476 2.055 . S
Co468 O479 2.039 . S
Co468 N482 2.140 . S
C469 O470 1.227 . S
C469 O479 1.265 . S
O470 C469 1.227 . S
N471 Co468 2.121 . S
N471 C473 1.375 . S
N471 C474 1.313 . S
C472 C473 1.338 . S
C472 N475 1.377 . S
C472 H492 0.930 . S
C473 N471 1.375 . S
C473 C472 1.338 . S
C473 H477 0.931 . S
C474 N471 1.313 . S
C474 N475 1.344 . S
C474 H478 0.930 . S
N475 C472 1.377 . S
N475 C474 1.344 . S
O476 Co468 2.055 . S
O476 C480 1.253 . S
H477 C473 0.931 . S
H478 C474 0.930 . S
O479 Co468 2.039 . S
O479 C469 1.265 . S
C480 O476 1.253 . S
C480 O481 1.227 . S
O481 C480 1.227 . S
N482 Co468 2.140 . S
N482 C485 1.346 . S
N482 C486 1.345 . S
C483 C484 1.387 . S
C483 C487 1.391 . S
C484 C483 1.387 . S
C484 C485 1.369 . S
C484 H493 0.929 . S
C485 N482 1.346 . S
C485 C484 1.369 . S
C485 H488 0.928 . S
C486 N482 1.345 . S
C486 C487 1.371 . S
C486 H489 0.931 . S
C487 C483 1.391 . S
C487 C486 1.371 . S
C487 H494 0.930 . S
H488 C485 0.928 . S
H489 C486 0.931 . S
H490 C466 0.930 . S
H491 C463 0.930 . S
H492 C472 0.930 . S
H493 C484 0.929 . S
H494 C487 0.930 . S
C495 C496 1.351 . S
C495 N498 1.368 . S
C495 H500 0.931 . S
C496 C495 1.351 . S
C496 N497 1.373 . S
C496 H524 0.930 . S
N497 C496 1.373 . S
N497 C499 1.340 . S
N498 C495 1.368 . S
N498 C499 1.321 . S
N498 Co501 2.135 . S
C499 N497 1.340 . S
C499 N498 1.321 . S
C499 H523 0.930 . S
H500 C495 0.931 . S
Co501 N498 2.135 . S
Co501 N504 2.121 1_554 S
Co501 O509 2.055 1_554 S
Co501 O512 2.039 . S
Co501 N515 2.140 . S
C502 O503 1.227 . S
C502 O512 1.265 . S
O503 C502 1.227 . S
N504 Co501 2.121 1_556 S
N504 C506 1.375 . S
N504 C507 1.313 . S
C505 C506 1.338 . S
C505 N508 1.377 . S
C505 H525 0.930 . S
C506 N504 1.375 . S
C506 C505 1.338 . S
C506 H510 0.931 . S
C507 N504 1.313 . S
C507 N508 1.344 . S
C507 H511 0.930 . S
N508 C505 1.377 . S
N508 C507 1.344 . S
O509 Co501 2.055 1_556 S
O509 C513 1.253 1_556 S
H510 C506 0.931 . S
H511 C507 0.930 . S
O512 Co501 2.039 . S
O512 C502 1.265 . S
C513 O509 1.253 1_554 S
C513 O514 1.227 . S
O514 C513 1.227 . S
N515 Co501 2.140 . S
N515 C518 1.346 . S
N515 C519 1.345 . S
C516 C517 1.387 . S
C516 C520 1.391 . S
C517 C516 1.387 . S
C517 C518 1.369 . S
C517 H526 0.929 . S
C518 N515 1.346 . S
C518 C517 1.369 . S
C518 H521 0.928 . S
C519 N515 1.345 . S
C519 C520 1.371 . S
C519 H522 0.931 . S
C520 C516 1.391 . S
C520 C519 1.371 . S
C520 H527 0.930 . S
H521 C518 0.928 . S
H522 C519 0.931 . S
H523 C499 0.930 . S
H524 C496 0.930 . S
H525 C505 0.930 . S
H526 C517 0.929 . S
H527 C520 0.930 . S
C528 C529 1.351 . S
C528 N531 1.368 . S
C528 H533 0.931 . S
C529 C528 1.351 . S
C529 N530 1.373 . S
C529 H557 0.930 . S
N530 C529 1.373 . S
N530 C532 1.340 . S
N531 C528 1.368 . S
N531 C532 1.321 . S
N531 Co534 2.135 . S
C532 N530 1.340 . S
C532 N531 1.321 . S
C532 H556 0.930 . S
H533 C528 0.931 . S
Co534 N531 2.135 . S
Co534 N537 2.121 . S
Co534 O542 2.055 . S
Co534 O545 2.039 . S
Co534 N548 2.140 . S
C535 O536 1.227 . S
C535 O545 1.265 . S
O536 C535 1.227 . S
N537 Co534 2.121 . S
N537 C539 1.375 . S
N537 C540 1.313 . S
C538 C539 1.338 . S
C538 N541 1.377 . S
C538 H558 0.930 . S
C539 N537 1.375 . S
C539 C538 1.338 . S
C539 H543 0.931 . S
C540 N537 1.313 . S
C540 N541 1.344 . S
C540 H544 0.930 . S
N541 C538 1.377 . S
N541 C540 1.344 . S
O542 Co534 2.055 . S
O542 C546 1.253 . S
H543 C539 0.931 . S
H544 C540 0.930 . S
O545 Co534 2.039 . S
O545 C535 1.265 . S
C546 O542 1.253 . S
C546 O547 1.227 . S
O547 C546 1.227 . S
N548 Co534 2.140 . S
N548 C551 1.346 . S
N548 C552 1.345 . S
C549 C550 1.387 . S
C549 C553 1.391 . S
C550 C549 1.387 . S
C550 C551 1.369 . S
C550 H559 0.929 . S
C551 N548 1.346 . S
C551 C550 1.369 . S
C551 H554 0.928 . S
C552 N548 1.345 . S
C552 C553 1.371 . S
C552 H555 0.931 . S
C553 C549 1.391 . S
C553 C552 1.371 . S
C553 H560 0.930 . S
H554 C551 0.928 . S
H555 C552 0.931 . S
H556 C532 0.930 . S
H557 C529 0.930 . S
H558 C538 0.930 . S
H559 C550 0.929 . S
H560 C553 0.930 . S
C561 C562 1.351 . S
C561 N564 1.368 . S
C561 H566 0.931 . S
C562 C561 1.351 . S
C562 N563 1.373 . S
C562 H590 0.930 . S
N563 C562 1.373 . S
N563 C565 1.340 . S
N564 C561 1.368 . S
N564 C565 1.321 . S
N564 Co567 2.135 . S
C565 N563 1.340 . S
C565 N564 1.321 . S
C565 H589 0.930 . S
H566 C561 0.931 . S
Co567 N564 2.135 . S
Co567 N570 2.121 1_554 S
Co567 O575 2.055 1_554 S
Co567 O578 2.039 . S
Co567 N581 2.140 . S
C568 O569 1.227 . S
C568 O578 1.265 . S
O569 C568 1.227 . S
N570 Co567 2.121 1_556 S
N570 C572 1.375 . S
N570 C573 1.313 . S
C571 C572 1.338 . S
C571 N574 1.377 . S
C571 H591 0.930 . S
C572 N570 1.375 . S
C572 C571 1.338 . S
C572 H576 0.931 . S
C573 N570 1.313 . S
C573 N574 1.344 . S
C573 H577 0.930 . S
N574 C571 1.377 . S
N574 C573 1.344 . S
O575 Co567 2.055 1_556 S
O575 C579 1.253 1_556 S
H576 C572 0.931 . S
H577 C573 0.930 . S
O578 Co567 2.039 . S
O578 C568 1.265 . S
C579 O575 1.253 1_554 S
C579 O580 1.227 . S
O580 C579 1.227 . S
N581 Co567 2.140 . S
N581 C584 1.346 . S
N581 C585 1.345 . S
C582 C583 1.387 . S
C582 C586 1.391 . S
C583 C582 1.387 . S
C583 C584 1.369 . S
C583 H592 0.929 . S
C584 N581 1.346 . S
C584 C583 1.369 . S
C584 H587 0.928 . S
C585 N581 1.345 . S
C585 C586 1.371 . S
C585 H588 0.931 . S
C586 C582 1.391 . S
C586 C585 1.371 . S
C586 H593 0.930 . S
H587 C584 0.928 . S
H588 C585 0.931 . S
H589 C565 0.930 . S
H590 C562 0.930 . S
H591 C571 0.930 . S
H592 C583 0.929 . S
H593 C586 0.930 . S
C594 C595 1.351 . S
C594 N597 1.368 . S
C594 H599 0.931 . S
C595 C594 1.351 . S
C595 N596 1.373 1_655 S
C595 H623 0.930 . S
N596 C595 1.373 1_455 S
N596 C598 1.340 1_455 S
N597 C594 1.368 . S
N597 C598 1.321 . S
N597 Co600 2.135 . S
C598 N596 1.340 1_655 S
C598 N597 1.321 . S
C598 H622 0.930 1_655 S
H599 C594 0.931 . S
Co600 N597 2.135 . S
Co600 N603 2.121 . S
Co600 O608 2.055 . S
Co600 O611 2.039 . S
Co600 N614 2.140 . S
C601 O602 1.227 . S
C601 O611 1.265 . S
O602 C601 1.227 . S
N603 Co600 2.121 . S
N603 C605 1.375 . S
N603 C606 1.313 . S
C604 C605 1.338 . S
C604 N607 1.377 . S
C604 H624 0.930 . S
C605 N603 1.375 . S
C605 C604 1.338 . S
C605 H609 0.931 . S
C606 N603 1.313 . S
C606 N607 1.344 . S
C606 H610 0.930 . S
N607 C604 1.377 . S
N607 C606 1.344 . S
O608 Co600 2.055 . S
O608 C612 1.253 . S
H609 C605 0.931 . S
H610 C606 0.930 . S
O611 Co600 2.039 . S
O611 C601 1.265 . S
C612 O608 1.253 . S
C612 O613 1.227 . S
O613 C612 1.227 . S
N614 Co600 2.140 . S
N614 C617 1.346 . S
N614 C618 1.345 . S
C615 C616 1.387 . S
C615 C619 1.391 . S
C616 C615 1.387 . S
C616 C617 1.369 . S
C616 H625 0.929 . S
C617 N614 1.346 . S
C617 C616 1.369 . S
C617 H620 0.928 . S
C618 N614 1.345 . S
C618 C619 1.371 . S
C618 H621 0.931 . S
C619 C615 1.391 . S
C619 C618 1.371 . S
C619 H626 0.930 . S
H620 C617 0.928 . S
H621 C618 0.931 . S
H622 C598 0.930 1_455 S
H623 C595 0.930 . S
H624 C604 0.930 . S
H625 C616 0.929 . S
H626 C619 0.930 . S
C627 C628 1.351 . S
C627 N630 1.368 . S
C627 H632 0.931 . S
C628 C627 1.351 . S
C628 N629 1.373 . S
C628 H656 0.930 . S
N629 C628 1.373 . S
N629 C631 1.340 . S
N630 C627 1.368 . S
N630 C631 1.321 . S
N630 Co633 2.135 . S
C631 N629 1.340 . S
C631 N630 1.321 . S
C631 H655 0.930 . S
H632 C627 0.931 . S
Co633 N630 2.135 . S
Co633 N636 2.121 . S
Co633 O641 2.055 . S
Co633 O644 2.039 . S
Co633 N647 2.140 . S
C634 O635 1.227 . S
C634 O644 1.265 . S
O635 C634 1.227 . S
N636 Co633 2.121 . S
N636 C638 1.375 . S
N636 C639 1.313 . S
C637 C638 1.338 . S
C637 N640 1.377 . S
C637 H657 0.930 . S
C638 N636 1.375 . S
C638 C637 1.338 . S
C638 H642 0.931 . S
C639 N636 1.313 . S
C639 N640 1.344 . S
C639 H643 0.930 . S
N640 C637 1.377 . S
N640 C639 1.344 . S
O641 Co633 2.055 . S
O641 C645 1.253 . S
H642 C638 0.931 . S
H643 C639 0.930 . S
O644 Co633 2.039 . S
O644 C634 1.265 . S
C645 O641 1.253 . S
C645 O646 1.227 . S
O646 C645 1.227 . S
N647 Co633 2.140 . S
N647 C650 1.346 . S
N647 C651 1.345 . S
C648 C649 1.387 . S
C648 C652 1.391 . S
C649 C648 1.387 . S
C649 C650 1.369 . S
C649 H658 0.929 . S
C650 N647 1.346 . S
C650 C649 1.369 . S
C650 H653 0.928 . S
C651 N647 1.345 . S
C651 C652 1.371 . S
C651 H654 0.931 . S
C652 C648 1.391 . S
C652 C651 1.371 . S
C652 H659 0.930 . S
H653 C650 0.928 . S
H654 C651 0.931 . S
H655 C631 0.930 . S
H656 C628 0.930 . S
H657 C637 0.930 . S
H658 C649 0.929 . S
H659 C652 0.930 . S
C660 C661 1.351 . S
C660 N663 1.368 . S
C660 H665 0.931 . S
C661 C660 1.351 . S
C661 N662 1.373 . S
C661 H689 0.930 . S
N662 C661 1.373 . S
N662 C664 1.340 . S
N663 C660 1.368 . S
N663 C664 1.321 . S
N663 Co666 2.135 . S
C664 N662 1.340 . S
C664 N663 1.321 . S
C664 H688 0.930 . S
H665 C660 0.931 . S
Co666 N663 2.135 . S
Co666 N669 2.121 . S
Co666 O674 2.055 . S
Co666 O677 2.039 . S
Co666 N680 2.140 . S
C667 O668 1.227 . S
C667 O677 1.265 . S
O668 C667 1.227 . S
N669 Co666 2.121 . S
N669 C671 1.375 . S
N669 C672 1.313 . S
C670 C671 1.338 . S
C670 N673 1.377 . S
C670 H690 0.930 . S
C671 N669 1.375 . S
C671 C670 1.338 . S
C671 H675 0.931 . S
C672 N669 1.313 . S
C672 N673 1.344 . S
C672 H676 0.930 . S
N673 C670 1.377 . S
N673 C672 1.344 . S
O674 Co666 2.055 . S
O674 C678 1.253 . S
H675 C671 0.931 . S
H676 C672 0.930 . S
O677 Co666 2.039 . S
O677 C667 1.265 . S
C678 O674 1.253 . S
C678 O679 1.227 . S
O679 C678 1.227 . S
N680 Co666 2.140 . S
N680 C683 1.346 . S
N680 C684 1.345 . S
C681 C682 1.387 . S
C681 C685 1.391 . S
C682 C681 1.387 . S
C682 C683 1.369 . S
C682 H691 0.929 . S
C683 N680 1.346 . S
C683 C682 1.369 . S
C683 H686 0.928 . S
C684 N680 1.345 . S
C684 C685 1.371 . S
C684 H687 0.931 . S
C685 C681 1.391 . S
C685 C684 1.371 . S
C685 H692 0.930 . S
H686 C683 0.928 . S
H687 C684 0.931 . S
H688 C664 0.930 . S
H689 C661 0.930 . S
H690 C670 0.930 . S
H691 C682 0.929 . S
H692 C685 0.930 . S
C693 C694 1.351 . S
C693 N696 1.368 . S
C693 H698 0.931 . S
C694 C693 1.351 . S
C694 N695 1.373 . S
C694 H722 0.930 . S
N695 C694 1.373 . S
N695 C697 1.340 . S
N696 C693 1.368 . S
N696 C697 1.321 . S
N696 Co699 2.135 . S
C697 N695 1.340 . S
C697 N696 1.321 . S
C697 H721 0.930 . S
H698 C693 0.931 . S
Co699 N696 2.135 . S
Co699 N702 2.121 1_556 S
Co699 O707 2.055 1_556 S
Co699 O710 2.039 . S
Co699 N713 2.140 . S
C700 O701 1.227 . S
C700 O710 1.265 . S
O701 C700 1.227 . S
N702 Co699 2.121 1_554 S
N702 C704 1.375 . S
N702 C705 1.313 . S
C703 C704 1.338 . S
C703 N706 1.377 . S
C703 H723 0.930 . S
C704 N702 1.375 . S
C704 C703 1.338 . S
C704 H708 0.931 . S
C705 N702 1.313 . S
C705 N706 1.344 . S
C705 H709 0.930 . S
N706 C703 1.377 . S
N706 C705 1.344 . S
O707 Co699 2.055 1_554 S
O707 C711 1.253 1_554 S
H708 C704 0.931 . S
H709 C705 0.930 . S
O710 Co699 2.039 . S
O710 C700 1.265 . S
C711 O707 1.253 1_556 S
C711 O712 1.227 . S
O712 C711 1.227 . S
N713 Co699 2.140 . S
N713 C716 1.346 . S
N713 C717 1.345 . S
C714 C715 1.387 . S
C714 C718 1.391 . S
C715 C714 1.387 . S
C715 C716 1.369 . S
C715 H724 0.929 . S
C716 N713 1.346 . S
C716 C715 1.369 . S
C716 H719 0.928 . S
C717 N713 1.345 . S
C717 C718 1.371 . S
C717 H720 0.931 . S
C718 C714 1.391 . S
C718 C717 1.371 . S
C718 H725 0.930 . S
H719 C716 0.928 . S
H720 C717 0.931 . S
H721 C697 0.930 . S
H722 C694 0.930 . S
H723 C703 0.930 . S
H724 C715 0.929 . S
H725 C718 0.930 . S
C726 C727 1.351 . S
C726 N729 1.368 . S
C726 H731 0.931 . S
C727 C726 1.351 . S
C727 N728 1.373 1_655 S
C727 H755 0.930 . S
N728 C727 1.373 1_455 S
N728 C730 1.340 1_455 S
N729 C726 1.368 . S
N729 C730 1.321 . S
N729 Co732 2.135 . S
C730 N728 1.340 1_655 S
C730 N729 1.321 . S
C730 H754 0.930 1_655 S
H731 C726 0.931 . S
Co732 N729 2.135 . S
Co732 N735 2.121 . S
Co732 O740 2.055 . S
Co732 O743 2.039 . S
Co732 N746 2.140 . S
C733 O734 1.227 . S
C733 O743 1.265 . S
O734 C733 1.227 . S
N735 Co732 2.121 . S
N735 C737 1.375 . S
N735 C738 1.313 . S
C736 C737 1.338 . S
C736 N739 1.377 . S
C736 H756 0.930 . S
C737 N735 1.375 . S
C737 C736 1.338 . S
C737 H741 0.931 . S
C738 N735 1.313 . S
C738 N739 1.344 . S
C738 H742 0.930 . S
N739 C736 1.377 . S
N739 C738 1.344 . S
O740 Co732 2.055 . S
O740 C744 1.253 . S
H741 C737 0.931 . S
H742 C738 0.930 . S
O743 Co732 2.039 . S
O743 C733 1.265 . S
C744 O740 1.253 . S
C744 O745 1.227 . S
O745 C744 1.227 . S
N746 Co732 2.140 . S
N746 C749 1.346 . S
N746 C750 1.345 . S
C747 C748 1.387 . S
C747 C751 1.391 . S
C748 C747 1.387 . S
C748 C749 1.369 . S
C748 H757 0.929 . S
C749 N746 1.346 . S
C749 C748 1.369 . S
C749 H752 0.928 . S
C750 N746 1.345 . S
C750 C751 1.371 . S
C750 H753 0.931 . S
C751 C747 1.391 . S
C751 C750 1.371 . S
C751 H758 0.930 . S
H752 C749 0.928 . S
H753 C750 0.931 . S
H754 C730 0.930 1_455 S
H755 C727 0.930 . S
H756 C736 0.930 . S
H757 C748 0.929 . S
H758 C751 0.930 . S
C759 C760 1.351 . S
C759 N762 1.368 . S
C759 H764 0.931 . S
C760 C759 1.351 . S
C760 N761 1.373 . S
C760 H788 0.930 . S
N761 C760 1.373 . S
N761 C763 1.340 . S
N762 C759 1.368 . S
N762 C763 1.321 . S
N762 Co765 2.135 . S
C763 N761 1.340 . S
C763 N762 1.321 . S
C763 H787 0.930 . S
H764 C759 0.931 . S
Co765 N762 2.135 . S
Co765 N768 2.121 . S
Co765 O773 2.055 . S
Co765 O776 2.039 . S
Co765 N779 2.140 . S
C766 O767 1.227 . S
C766 O776 1.265 . S
O767 C766 1.227 . S
N768 Co765 2.121 . S
N768 C770 1.375 . S
N768 C771 1.313 . S
C769 C770 1.338 . S
C769 N772 1.377 . S
C769 H789 0.930 . S
C770 N768 1.375 . S
C770 C769 1.338 . S
C770 H774 0.931 . S
C771 N768 1.313 . S
C771 N772 1.344 . S
C771 H775 0.930 . S
N772 C769 1.377 . S
N772 C771 1.344 . S
O773 Co765 2.055 . S
O773 C777 1.253 . S
H774 C770 0.931 . S
H775 C771 0.930 . S
O776 Co765 2.039 . S
O776 C766 1.265 . S
C777 O773 1.253 . S
C777 O778 1.227 . S
O778 C777 1.227 . S
N779 Co765 2.140 . S
N779 C782 1.346 . S
N779 C783 1.345 . S
C780 C781 1.387 . S
C780 C784 1.391 . S
C781 C780 1.387 . S
C781 C782 1.369 . S
C781 H790 0.929 . S
C782 N779 1.346 . S
C782 C781 1.369 . S
C782 H785 0.928 . S
C783 N779 1.345 . S
C783 C784 1.371 . S
C783 H786 0.931 . S
C784 C780 1.391 . S
C784 C783 1.371 . S
C784 H791 0.930 . S
H785 C782 0.928 . S
H786 C783 0.931 . S
H787 C763 0.930 . S
H788 C760 0.930 . S
H789 C769 0.930 . S
H790 C781 0.929 . S
H791 C784 0.930 . S
C792 C793 1.351 . S
C792 N795 1.368 . S
C792 H797 0.931 . S
C793 C792 1.351 . S
C793 N794 1.373 . S
C793 H821 0.930 . S
N794 C793 1.373 . S
N794 C796 1.340 . S
N795 C792 1.368 . S
N795 C796 1.321 . S
N795 Co798 2.135 . S
C796 N794 1.340 . S
C796 N795 1.321 . S
C796 H820 0.930 . S
H797 C792 0.931 . S
Co798 N795 2.135 . S
Co798 N801 2.121 . S
Co798 O806 2.055 . S
Co798 O809 2.039 . S
Co798 N812 2.140 . S
C799 O800 1.227 . S
C799 O809 1.265 . S
O800 C799 1.227 . S
N801 Co798 2.121 . S
N801 C803 1.375 . S
N801 C804 1.313 . S
C802 C803 1.338 . S
C802 N805 1.377 . S
C802 H822 0.930 . S
C803 N801 1.375 . S
C803 C802 1.338 . S
C803 H807 0.931 . S
C804 N801 1.313 . S
C804 N805 1.344 . S
C804 H808 0.930 . S
N805 C802 1.377 . S
N805 C804 1.344 . S
O806 Co798 2.055 . S
O806 C810 1.253 . S
H807 C803 0.931 . S
H808 C804 0.930 . S
O809 Co798 2.039 . S
O809 C799 1.265 . S
C810 O806 1.253 . S
C810 O811 1.227 . S
O811 C810 1.227 . S
N812 Co798 2.140 . S
N812 C815 1.346 . S
N812 C816 1.345 . S
C813 C814 1.387 . S
C813 C817 1.391 . S
C814 C813 1.387 . S
C814 C815 1.369 . S
C814 H823 0.929 . S
C815 N812 1.346 . S
C815 C814 1.369 . S
C815 H818 0.928 . S
C816 N812 1.345 . S
C816 C817 1.371 . S
C816 H819 0.931 . S
C817 C813 1.391 . S
C817 C816 1.371 . S
C817 H824 0.930 . S
H818 C815 0.928 . S
H819 C816 0.931 . S
H820 C796 0.930 . S
H821 C793 0.930 . S
H822 C802 0.930 . S
H823 C814 0.929 . S
H824 C817 0.930 . S
C825 C826 1.351 . S
C825 N828 1.368 . S
C825 H830 0.931 . S
C826 C825 1.351 . S
C826 N827 1.373 . S
C826 H854 0.930 . S
N827 C826 1.373 . S
N827 C829 1.340 . S
N828 C825 1.368 . S
N828 C829 1.321 . S
N828 Co831 2.135 . S
C829 N827 1.340 . S
C829 N828 1.321 . S
C829 H853 0.930 . S
H830 C825 0.931 . S
Co831 N828 2.135 . S
Co831 N834 2.121 1_556 S
Co831 O839 2.055 1_556 S
Co831 O842 2.039 . S
Co831 N845 2.140 . S
C832 O833 1.227 . S
C832 O842 1.265 . S
O833 C832 1.227 . S
N834 Co831 2.121 1_554 S
N834 C836 1.375 . S
N834 C837 1.313 . S
C835 C836 1.338 . S
C835 N838 1.377 . S
C835 H855 0.930 . S
C836 N834 1.375 . S
C836 C835 1.338 . S
C836 H840 0.931 . S
C837 N834 1.313 . S
C837 N838 1.344 . S
C837 H841 0.930 . S
N838 C835 1.377 . S
N838 C837 1.344 . S
O839 Co831 2.055 1_554 S
O839 C843 1.253 1_554 S
H840 C836 0.931 . S
H841 C837 0.930 . S
O842 Co831 2.039 . S
O842 C832 1.265 . S
C843 O839 1.253 1_556 S
C843 O844 1.227 . S
O844 C843 1.227 . S
N845 Co831 2.140 . S
N845 C848 1.346 . S
N845 C849 1.345 . S
C846 C847 1.387 . S
C846 C850 1.391 . S
C847 C846 1.387 . S
C847 C848 1.369 . S
C847 H856 0.929 . S
C848 N845 1.346 . S
C848 C847 1.369 . S
C848 H851 0.928 . S
C849 N845 1.345 . S
C849 C850 1.371 . S
C849 H852 0.931 . S
C850 C846 1.391 . S
C850 C849 1.371 . S
C850 H857 0.930 . S
H851 C848 0.928 . S
H852 C849 0.931 . S
H853 C829 0.930 . S
H854 C826 0.930 . S
H855 C835 0.930 . S
H856 C847 0.929 . S
H857 C850 0.930 . S
C858 C859 1.351 . S
C858 N861 1.368 . S
C858 H863 0.931 . S
C859 C858 1.351 . S
C859 N860 1.373 1_455 S
C859 H887 0.930 . S
N860 C859 1.373 1_655 S
N860 C862 1.340 1_655 S
N861 C858 1.368 . S
N861 C862 1.321 . S
N861 Co864 2.135 . S
C862 N860 1.340 1_455 S
C862 N861 1.321 . S
C862 H886 0.930 1_455 S
H863 C858 0.931 . S
Co864 N861 2.135 . S
Co864 N867 2.121 . S
Co864 O872 2.055 . S
Co864 O875 2.039 . S
Co864 N878 2.140 . S
C865 O866 1.227 . S
C865 O875 1.265 . S
O866 C865 1.227 . S
N867 Co864 2.121 . S
N867 C869 1.375 . S
N867 C870 1.313 . S
C868 C869 1.338 . S
C868 N871 1.377 . S
C868 H888 0.930 . S
C869 N867 1.375 . S
C869 C868 1.338 . S
C869 H873 0.931 . S
C870 N867 1.313 . S
C870 N871 1.344 . S
C870 H874 0.930 . S
N871 C868 1.377 . S
N871 C870 1.344 . S
O872 Co864 2.055 . S
O872 C876 1.253 . S
H873 C869 0.931 . S
H874 C870 0.930 . S
O875 Co864 2.039 . S
O875 C865 1.265 . S
C876 O872 1.253 . S
C876 O877 1.227 . S
O877 C876 1.227 . S
N878 Co864 2.140 . S
N878 C881 1.346 . S
N878 C882 1.345 . S
C879 C880 1.387 . S
C879 C883 1.391 . S
C880 C879 1.387 . S
C880 C881 1.369 . S
C880 H889 0.929 . S
C881 N878 1.346 . S
C881 C880 1.369 . S
C881 H884 0.928 . S
C882 N878 1.345 . S
C882 C883 1.371 . S
C882 H885 0.931 . S
C883 C879 1.391 . S
C883 C882 1.371 . S
C883 H890 0.930 . S
H884 C881 0.928 . S
H885 C882 0.931 . S
H886 C862 0.930 1_655 S
H887 C859 0.930 . S
H888 C868 0.930 . S
H889 C880 0.929 . S
H890 C883 0.930 . S
C891 C892 1.351 . S
C891 N894 1.368 . S
C891 H896 0.931 . S
C892 C891 1.351 . S
C892 N893 1.373 . S
C892 H920 0.930 . S
N893 C892 1.373 . S
N893 C895 1.340 . S
N894 C891 1.368 . S
N894 C895 1.321 . S
N894 Co897 2.135 . S
C895 N893 1.340 . S
C895 N894 1.321 . S
C895 H919 0.930 . S
H896 C891 0.931 . S
Co897 N894 2.135 . S
Co897 N900 2.121 . S
Co897 O905 2.055 . S
Co897 O908 2.039 . S
Co897 N911 2.140 . S
C898 O899 1.227 . S
C898 O908 1.265 . S
O899 C898 1.227 . S
N900 Co897 2.121 . S
N900 C902 1.375 . S
N900 C903 1.313 . S
C901 C902 1.338 . S
C901 N904 1.377 . S
C901 H921 0.930 . S
C902 N900 1.375 . S
C902 C901 1.338 . S
C902 H906 0.931 . S
C903 N900 1.313 . S
C903 N904 1.344 . S
C903 H907 0.930 . S
N904 C901 1.377 . S
N904 C903 1.344 . S
O905 Co897 2.055 . S
O905 C909 1.253 . S
H906 C902 0.931 . S
H907 C903 0.930 . S
O908 Co897 2.039 . S
O908 C898 1.265 . S
C909 O905 1.253 . S
C909 O910 1.227 . S
O910 C909 1.227 . S
N911 Co897 2.140 . S
N911 C914 1.346 . S
N911 C915 1.345 . S
C912 C913 1.387 . S
C912 C916 1.391 . S
C913 C912 1.387 . S
C913 C914 1.369 . S
C913 H922 0.929 . S
C914 N911 1.346 . S
C914 C913 1.369 . S
C914 H917 0.928 . S
C915 N911 1.345 . S
C915 C916 1.371 . S
C915 H918 0.931 . S
C916 C912 1.391 . S
C916 C915 1.371 . S
C916 H923 0.930 . S
H917 C914 0.928 . S
H918 C915 0.931 . S
H919 C895 0.930 . S
H920 C892 0.930 . S
H921 C901 0.930 . S
H922 C913 0.929 . S
H923 C916 0.930 . S
C924 C925 1.351 . S
C924 N927 1.368 . S
C924 H929 0.931 . S
C925 C924 1.351 . S
C925 N926 1.373 . S
C925 H953 0.930 . S
N926 C925 1.373 . S
N926 C928 1.340 . S
N927 C924 1.368 . S
N927 C928 1.321 . S
N927 Co930 2.135 . S
C928 N926 1.340 . S
C928 N927 1.321 . S
C928 H952 0.930 . S
H929 C924 0.931 . S
Co930 N927 2.135 . S
Co930 N933 2.121 . S
Co930 O938 2.055 . S
Co930 O941 2.039 . S
Co930 N944 2.140 . S
C931 O932 1.227 . S
C931 O941 1.265 . S
O932 C931 1.227 . S
N933 Co930 2.121 . S
N933 C935 1.375 . S
N933 C936 1.313 . S
C934 C935 1.338 . S
C934 N937 1.377 . S
C934 H954 0.930 . S
C935 N933 1.375 . S
C935 C934 1.338 . S
C935 H939 0.931 . S
C936 N933 1.313 . S
C936 N937 1.344 . S
C936 H940 0.930 . S
N937 C934 1.377 . S
N937 C936 1.344 . S
O938 Co930 2.055 . S
O938 C942 1.253 . S
H939 C935 0.931 . S
H940 C936 0.930 . S
O941 Co930 2.039 . S
O941 C931 1.265 . S
C942 O938 1.253 . S
C942 O943 1.227 . S
O943 C942 1.227 . S
N944 Co930 2.140 . S
N944 C947 1.346 . S
N944 C948 1.345 . S
C945 C946 1.387 . S
C945 C949 1.391 . S
C946 C945 1.387 . S
C946 C947 1.369 . S
C946 H955 0.929 . S
C947 N944 1.346 . S
C947 C946 1.369 . S
C947 H950 0.928 . S
C948 N944 1.345 . S
C948 C949 1.371 . S
C948 H951 0.931 . S
C949 C945 1.391 . S
C949 C948 1.371 . S
C949 H956 0.930 . S
H950 C947 0.928 . S
H951 C948 0.931 . S
H952 C928 0.930 . S
H953 C925 0.930 . S
H954 C934 0.930 . S
H955 C946 0.929 . S
H956 C949 0.930 . S
C957 C958 1.351 . S
C957 N960 1.368 . S
C957 H962 0.931 . S
C958 C957 1.351 . S
C958 N959 1.373 . S
C958 H986 0.930 . S
N959 C958 1.373 . S
N959 C961 1.340 . S
N960 C957 1.368 . S
N960 C961 1.321 . S
N960 Co963 2.135 . S
C961 N959 1.340 . S
C961 N960 1.321 . S
C961 H985 0.930 . S
H962 C957 0.931 . S
Co963 N960 2.135 . S
Co963 N966 2.121 1_554 S
Co963 O971 2.055 1_554 S
Co963 O974 2.039 . S
Co963 N977 2.140 . S
C964 O965 1.227 . S
C964 O974 1.265 . S
O965 C964 1.227 . S
N966 Co963 2.121 1_556 S
N966 C968 1.375 . S
N966 C969 1.313 . S
C967 C968 1.338 . S
C967 N970 1.377 . S
C967 H987 0.930 . S
C968 N966 1.375 . S
C968 C967 1.338 . S
C968 H972 0.931 . S
C969 N966 1.313 . S
C969 N970 1.344 . S
C969 H973 0.930 . S
N970 C967 1.377 . S
N970 C969 1.344 . S
O971 Co963 2.055 1_556 S
O971 C975 1.253 1_556 S
H972 C968 0.931 . S
H973 C969 0.930 . S
O974 Co963 2.039 . S
O974 C964 1.265 . S
C975 O971 1.253 1_554 S
C975 O976 1.227 . S
O976 C975 1.227 . S
N977 Co963 2.140 . S
N977 C980 1.346 . S
N977 C981 1.345 . S
C978 C979 1.387 . S
C978 C982 1.391 . S
C979 C978 1.387 . S
C979 C980 1.369 . S
C979 H988 0.929 . S
C980 N977 1.346 . S
C980 C979 1.369 . S
C980 H983 0.928 . S
C981 N977 1.345 . S
C981 C982 1.371 . S
C981 H984 0.931 . S
C982 C978 1.391 . S
C982 C981 1.371 . S
C982 H989 0.930 . S
H983 C980 0.928 . S
H984 C981 0.931 . S
H985 C961 0.930 . S
H986 C958 0.930 . S
H987 C967 0.930 . S
H988 C979 0.929 . S
H989 C982 0.930 . S
C990 C991 1.351 . S
C990 N993 1.368 . S
C990 H995 0.931 . S
C991 C990 1.351 . S
C991 N992 1.373 1_455 S
C991 H1019 0.930 . S
N992 C991 1.373 1_655 S
N992 C994 1.340 1_655 S
N993 C990 1.368 . S
N993 C994 1.321 . S
N993 Co996 2.135 . S
C994 N992 1.340 1_455 S
C994 N993 1.321 . S
C994 H1018 0.930 1_455 S
H995 C990 0.931 . S
Co996 N993 2.135 . S
Co996 N999 2.121 . S
Co996 O1004 2.055 . S
Co996 O1007 2.039 . S
Co996 N1010 2.140 . S
C997 O998 1.227 . S
C997 O1007 1.265 . S
O998 C997 1.227 . S
N999 Co996 2.121 . S
N999 C1001 1.375 . S
N999 C1002 1.313 . S
C1000 C1001 1.338 . S
C1000 N1003 1.377 . S
C1000 H1020 0.930 . S
C1001 N999 1.375 . S
C1001 C1000 1.338 . S
C1001 H1005 0.931 . S
C1002 N999 1.313 . S
C1002 N1003 1.344 . S
C1002 H1006 0.930 . S
N1003 C1000 1.377 . S
N1003 C1002 1.344 . S
O1004 Co996 2.055 . S
O1004 C1008 1.253 . S
H1005 C1001 0.931 . S
H1006 C1002 0.930 . S
O1007 Co996 2.039 . S
O1007 C997 1.265 . S
C1008 O1004 1.253 . S
C1008 O1009 1.227 . S
O1009 C1008 1.227 . S
N1010 Co996 2.140 . S
N1010 C1013 1.346 . S
N1010 C1014 1.345 . S
C1011 C1012 1.387 . S
C1011 C1015 1.391 . S
C1012 C1011 1.387 . S
C1012 C1013 1.369 . S
C1012 H1021 0.929 . S
C1013 N1010 1.346 . S
C1013 C1012 1.369 . S
C1013 H1016 0.928 . S
C1014 N1010 1.345 . S
C1014 C1015 1.371 . S
C1014 H1017 0.931 . S
C1015 C1011 1.391 . S
C1015 C1014 1.371 . S
C1015 H1022 0.930 . S
H1016 C1013 0.928 . S
H1017 C1014 0.931 . S
H1018 C994 0.930 1_655 S
H1019 C991 0.930 . S
H1020 C1000 0.930 . S
H1021 C1012 0.929 . S
H1022 C1015 0.930 . S
C1023 C1024 1.351 . S
C1023 N1026 1.368 . S
C1023 H1028 0.931 . S
C1024 C1023 1.351 . S
C1024 N1025 1.373 . S
C1024 H1052 0.930 . S
N1025 C1024 1.373 . S
N1025 C1027 1.340 . S
N1026 C1023 1.368 . S
N1026 C1027 1.321 . S
N1026 Co1029 2.135 . S
C1027 N1025 1.340 . S
C1027 N1026 1.321 . S
C1027 H1051 0.930 . S
H1028 C1023 0.931 . S
Co1029 N1026 2.135 . S
Co1029 N1032 2.121 . S
Co1029 O1037 2.055 . S
Co1029 O1040 2.039 . S
Co1029 N1043 2.140 . S
C1030 O1031 1.227 . S
C1030 O1040 1.265 . S
O1031 C1030 1.227 . S
N1032 Co1029 2.121 . S
N1032 C1034 1.375 . S
N1032 C1035 1.313 . S
C1033 C1034 1.338 . S
C1033 N1036 1.377 . S
C1033 H1053 0.930 . S
C1034 N1032 1.375 . S
C1034 C1033 1.338 . S
C1034 H1038 0.931 . S
C1035 N1032 1.313 . S
C1035 N1036 1.344 . S
C1035 H1039 0.930 . S
N1036 C1033 1.377 . S
N1036 C1035 1.344 . S
O1037 Co1029 2.055 . S
O1037 C1041 1.253 . S
H1038 C1034 0.931 . S
H1039 C1035 0.930 . S
O1040 Co1029 2.039 . S
O1040 C1030 1.265 . S
C1041 O1037 1.253 . S
C1041 O1042 1.227 . S
O1042 C1041 1.227 . S
N1043 Co1029 2.140 . S
N1043 C1046 1.346 . S
N1043 C1047 1.345 . S
C1044 C1045 1.387 . S
C1044 C1048 1.391 . S
C1045 C1044 1.387 . S
C1045 C1046 1.369 . S
C1045 H1054 0.929 . S
C1046 N1043 1.346 . S
C1046 C1045 1.369 . S
C1046 H1049 0.928 . S
C1047 N1043 1.345 . S
C1047 C1048 1.371 . S
C1047 H1050 0.931 . S
C1048 C1044 1.391 . S
C1048 C1047 1.371 . S
C1048 H1055 0.930 . S
H1049 C1046 0.928 . S
H1050 C1047 0.931 . S
H1051 C1027 0.930 . S
H1052 C1024 0.930 . S
H1053 C1033 0.930 . S
H1054 C1045 0.929 . S
H1055 C1048 0.930 . S
C1056 C1057 1.363 . S
C1056 C1062 1.379 . S
C1056 N1064 1.356 . S
C1057 C1056 1.363 . S
C1057 C1063 1.363 . S
C1058 C1059 1.363 . S
C1058 C1063 1.379 . S
C1058 N1065 1.356 . S
C1059 C1058 1.363 . S
C1059 C1062 1.363 . S
N1060 C1062 1.356 . S
N1060 H1072 0.984 . S
N1060 H1073 0.985 . S
N1061 C1063 1.356 . S
N1061 H1066 0.984 . S
N1061 H1067 0.985 . S
C1062 C1056 1.379 . S
C1062 C1059 1.363 . S
C1062 N1060 1.356 . S
C1063 C1057 1.363 . S
C1063 C1058 1.379 . S
C1063 N1061 1.356 . S
N1064 C1056 1.356 . S
N1064 H1070 0.984 . S
N1064 H1071 0.984 . S
N1065 C1058 1.356 . S
N1065 H1068 0.984 . S
N1065 H1069 0.985 . S
H1066 N1061 0.984 . S
H1067 N1061 0.985 . S
H1068 N1065 0.984 . S
H1069 N1065 0.985 . S
H1070 N1064 0.984 . S
H1071 N1064 0.984 . S
H1072 N1060 0.984 . S
H1073 N1060 0.985 . S
C1074 C1075 1.363 . S
C1074 C1080 1.379 . S
C1074 N1082 1.356 . S
C1075 C1074 1.363 . S
C1075 C1081 1.363 . S
C1076 C1077 1.363 . S
C1076 C1081 1.379 . S
C1076 N1083 1.356 . S
C1077 C1076 1.363 . S
C1077 C1080 1.363 . S
N1078 C1080 1.356 . S
N1078 H1090 0.984 . S
N1078 H1091 0.985 . S
N1079 C1081 1.356 . S
N1079 H1084 0.984 . S
N1079 H1085 0.985 . S
C1080 C1074 1.379 . S
C1080 C1077 1.363 . S
C1080 N1078 1.356 . S
C1081 C1075 1.363 . S
C1081 C1076 1.379 . S
C1081 N1079 1.356 . S
N1082 C1074 1.356 . S
N1082 H1088 0.984 . S
N1082 H1089 0.984 . S
N1083 C1076 1.356 . S
N1083 H1086 0.984 . S
N1083 H1087 0.985 . S
H1084 N1079 0.984 . S
H1085 N1079 0.985 . S
H1086 N1083 0.984 . S
H1087 N1083 0.985 . S
H1088 N1082 0.984 . S
H1089 N1082 0.984 . S
H1090 N1078 0.984 . S
H1091 N1078 0.985 . S
C1092 C1093 1.363 . S
C1092 C1098 1.379 . S
C1092 N1100 1.356 . S
C1093 C1092 1.363 . S
C1093 C1099 1.363 . S
C1094 C1095 1.363 . S
C1094 C1099 1.379 . S
C1094 N1101 1.356 . S
C1095 C1094 1.363 . S
C1095 C1098 1.363 . S
N1096 C1098 1.356 . S
N1096 H1108 0.984 . S
N1096 H1109 0.985 . S
N1097 C1099 1.356 . S
N1097 H1102 0.984 . S
N1097 H1103 0.985 . S
C1098 C1092 1.379 . S
C1098 C1095 1.363 . S
C1098 N1096 1.356 . S
C1099 C1093 1.363 . S
C1099 C1094 1.379 . S
C1099 N1097 1.356 . S
N1100 C1092 1.356 . S
N1100 H1106 0.984 . S
N1100 H1107 0.984 . S
N1101 C1094 1.356 . S
N1101 H1104 0.984 . S
N1101 H1105 0.985 . S
H1102 N1097 0.984 . S
H1103 N1097 0.985 . S
H1104 N1101 0.984 . S
H1105 N1101 0.985 . S
H1106 N1100 0.984 . S
H1107 N1100 0.984 . S
H1108 N1096 0.984 . S
H1109 N1096 0.985 . S
C1110 C1111 1.363 . S
C1110 C1116 1.379 . S
C1110 N1118 1.356 . S
C1111 C1110 1.363 . S
C1111 C1117 1.363 . S
C1112 C1113 1.363 . S
C1112 C1117 1.379 . S
C1112 N1119 1.356 . S
C1113 C1112 1.363 . S
C1113 C1116 1.363 . S
N1114 C1116 1.356 . S
N1114 H1126 0.984 . S
N1114 H1127 0.985 . S
N1115 C1117 1.356 . S
N1115 H1120 0.984 . S
N1115 H1121 0.985 . S
C1116 C1110 1.379 . S
C1116 C1113 1.363 . S
C1116 N1114 1.356 . S
C1117 C1111 1.363 . S
C1117 C1112 1.379 . S
C1117 N1115 1.356 . S
N1118 C1110 1.356 . S
N1118 H1124 0.984 . S
N1118 H1125 0.984 . S
N1119 C1112 1.356 . S
N1119 H1122 0.984 . S
N1119 H1123 0.985 . S
H1120 N1115 0.984 . S
H1121 N1115 0.985 . S
H1122 N1119 0.984 . S
H1123 N1119 0.985 . S
H1124 N1118 0.984 . S
H1125 N1118 0.984 . S
H1126 N1114 0.984 . S
H1127 N1114 0.985 . S
C1128 C1129 1.363 . S
C1128 C1134 1.379 . S
C1128 N1136 1.356 . S
C1129 C1128 1.363 . S
C1129 C1135 1.363 . S
C1130 C1131 1.363 . S
C1130 C1135 1.379 . S
C1130 N1137 1.356 . S
C1131 C1130 1.363 . S
C1131 C1134 1.363 . S
N1132 C1134 1.356 . S
N1132 H1144 0.984 . S
N1132 H1145 0.985 . S
N1133 C1135 1.356 . S
N1133 H1138 0.984 . S
N1133 H1139 0.985 . S
C1134 C1128 1.379 . S
C1134 C1131 1.363 . S
C1134 N1132 1.356 . S
C1135 C1129 1.363 . S
C1135 C1130 1.379 . S
C1135 N1133 1.356 . S
N1136 C1128 1.356 . S
N1136 H1142 0.984 . S
N1136 H1143 0.984 . S
N1137 C1130 1.356 . S
N1137 H1140 0.984 . S
N1137 H1141 0.985 . S
H1138 N1133 0.984 . S
H1139 N1133 0.985 . S
H1140 N1137 0.984 . S
H1141 N1137 0.985 . S
H1142 N1136 0.984 . S
H1143 N1136 0.984 . S
H1144 N1132 0.984 . S
H1145 N1132 0.985 . S
C1146 C1147 1.363 . S
C1146 C1152 1.379 . S
C1146 N1154 1.356 . S
C1147 C1146 1.363 . S
C1147 C1153 1.363 . S
C1148 C1149 1.363 . S
C1148 C1153 1.379 . S
C1148 N1155 1.356 . S
C1149 C1148 1.363 . S
C1149 C1152 1.363 . S
N1150 C1152 1.356 . S
N1150 H1162 0.984 . S
N1150 H1163 0.985 . S
N1151 C1153 1.356 . S
N1151 H1156 0.984 . S
N1151 H1157 0.985 . S
C1152 C1146 1.379 . S
C1152 C1149 1.363 . S
C1152 N1150 1.356 . S
C1153 C1147 1.363 . S
C1153 C1148 1.379 . S
C1153 N1151 1.356 . S
N1154 C1146 1.356 . S
N1154 H1160 0.984 . S
N1154 H1161 0.984 . S
N1155 C1148 1.356 . S
N1155 H1158 0.984 . S
N1155 H1159 0.985 . S
H1156 N1151 0.984 . S
H1157 N1151 0.985 . S
H1158 N1155 0.984 . S
H1159 N1155 0.985 . S
H1160 N1154 0.984 . S
H1161 N1154 0.984 . S
H1162 N1150 0.984 . S
H1163 N1150 0.985 . S
C1164 C1165 1.363 . S
C1164 C1170 1.379 . S
C1164 N1172 1.356 . S
C1165 C1164 1.363 . S
C1165 C1171 1.363 . S
C1166 C1167 1.363 . S
C1166 C1171 1.379 . S
C1166 N1173 1.356 . S
C1167 C1166 1.363 . S
C1167 C1170 1.363 . S
N1168 C1170 1.356 . S
N1168 H1180 0.984 . S
N1168 H1181 0.985 . S
N1169 C1171 1.356 . S
N1169 H1174 0.984 . S
N1169 H1175 0.985 . S
C1170 C1164 1.379 . S
C1170 C1167 1.363 . S
C1170 N1168 1.356 . S
C1171 C1165 1.363 . S
C1171 C1166 1.379 . S
C1171 N1169 1.356 . S
N1172 C1164 1.356 . S
N1172 H1178 0.984 . S
N1172 H1179 0.984 . S
N1173 C1166 1.356 . S
N1173 H1176 0.984 . S
N1173 H1177 0.985 . S
H1174 N1169 0.984 . S
H1175 N1169 0.985 . S
H1176 N1173 0.984 . S
H1177 N1173 0.985 . S
H1178 N1172 0.984 . S
H1179 N1172 0.984 . S
H1180 N1168 0.984 . S
H1181 N1168 0.985 . S
C1182 C1183 1.363 . S
C1182 C1188 1.379 . S
C1182 N1190 1.356 . S
C1183 C1182 1.363 . S
C1183 C1189 1.363 . S
C1184 C1185 1.363 . S
C1184 C1189 1.379 . S
C1184 N1191 1.356 . S
C1185 C1184 1.363 . S
C1185 C1188 1.363 . S
N1186 C1188 1.356 . S
N1186 H1198 0.984 . S
N1186 H1199 0.985 . S
N1187 C1189 1.356 . S
N1187 H1192 0.984 . S
N1187 H1193 0.985 . S
C1188 C1182 1.379 . S
C1188 C1185 1.363 . S
C1188 N1186 1.356 . S
C1189 C1183 1.363 . S
C1189 C1184 1.379 . S
C1189 N1187 1.356 . S
N1190 C1182 1.356 . S
N1190 H1196 0.984 . S
N1190 H1197 0.984 . S
N1191 C1184 1.356 . S
N1191 H1194 0.984 . S
N1191 H1195 0.985 . S
H1192 N1187 0.984 . S
H1193 N1187 0.985 . S
H1194 N1191 0.984 . S
H1195 N1191 0.985 . S
H1196 N1190 0.984 . S
H1197 N1190 0.984 . S
H1198 N1186 0.984 . S
H1199 N1186 0.985 . S
C1200 C1201 1.363 . S
C1200 C1206 1.379 . S
C1200 N1208 1.356 . S
C1201 C1200 1.363 . S
C1201 C1207 1.363 . S
C1202 C1203 1.363 . S
C1202 C1207 1.379 . S
C1202 N1209 1.356 . S
C1203 C1202 1.363 . S
C1203 C1206 1.363 . S
N1204 C1206 1.356 . S
N1204 H1216 0.984 . S
N1204 H1217 0.985 . S
N1205 C1207 1.356 . S
N1205 H1210 0.984 . S
N1205 H1211 0.985 . S
C1206 C1200 1.379 . S
C1206 C1203 1.363 . S
C1206 N1204 1.356 . S
C1207 C1201 1.363 . S
C1207 C1202 1.379 . S
C1207 N1205 1.356 . S
N1208 C1200 1.356 . S
N1208 H1214 0.984 . S
N1208 H1215 0.984 . S
N1209 C1202 1.356 . S
N1209 H1212 0.984 . S
N1209 H1213 0.985 . S
H1210 N1205 0.984 . S
H1211 N1205 0.985 . S
H1212 N1209 0.984 . S
H1213 N1209 0.985 . S
H1214 N1208 0.984 . S
H1215 N1208 0.984 . S
H1216 N1204 0.984 . S
H1217 N1204 0.985 . S
C1218 C1219 1.363 . S
C1218 C1224 1.379 . S
C1218 N1226 1.356 . S
C1219 C1218 1.363 . S
C1219 C1225 1.363 . S
C1220 C1221 1.363 . S
C1220 C1225 1.379 . S
C1220 N1227 1.356 . S
C1221 C1220 1.363 . S
C1221 C1224 1.363 . S
N1222 C1224 1.356 . S
N1222 H1234 0.984 . S
N1222 H1235 0.985 . S
N1223 C1225 1.356 . S
N1223 H1228 0.984 . S
N1223 H1229 0.985 . S
C1224 C1218 1.379 . S
C1224 C1221 1.363 . S
C1224 N1222 1.356 . S
C1225 C1219 1.363 . S
C1225 C1220 1.379 . S
C1225 N1223 1.356 . S
N1226 C1218 1.356 . S
N1226 H1232 0.984 . S
N1226 H1233 0.984 . S
N1227 C1220 1.356 . S
N1227 H1230 0.984 . S
N1227 H1231 0.985 . S
H1228 N1223 0.984 . S
H1229 N1223 0.985 . S
H1230 N1227 0.984 . S
H1231 N1227 0.985 . S
H1232 N1226 0.984 . S
H1233 N1226 0.984 . S
H1234 N1222 0.984 . S
H1235 N1222 0.985 . S
C1236 C1237 1.363 . S
C1236 C1242 1.379 . S
C1236 N1244 1.356 . S
C1237 C1236 1.363 . S
C1237 C1243 1.363 . S
C1238 C1239 1.363 . S
C1238 C1243 1.379 . S
C1238 N1245 1.356 . S
C1239 C1238 1.363 . S
C1239 C1242 1.363 . S
N1240 C1242 1.356 . S
N1240 H1252 0.984 . S
N1240 H1253 0.985 . S
N1241 C1243 1.356 . S
N1241 H1246 0.984 . S
N1241 H1247 0.985 . S
C1242 C1236 1.379 . S
C1242 C1239 1.363 . S
C1242 N1240 1.356 . S
C1243 C1237 1.363 . S
C1243 C1238 1.379 . S
C1243 N1241 1.356 . S
N1244 C1236 1.356 . S
N1244 H1250 0.984 . S
N1244 H1251 0.984 . S
N1245 C1238 1.356 . S
N1245 H1248 0.984 . S
N1245 H1249 0.985 . S
H1246 N1241 0.984 . S
H1247 N1241 0.985 . S
H1248 N1245 0.984 . S
H1249 N1245 0.985 . S
H1250 N1244 0.984 . S
H1251 N1244 0.984 . S
H1252 N1240 0.984 . S
H1253 N1240 0.985 . S
C1254 C1255 1.363 . S
C1254 C1260 1.379 . S
C1254 N1262 1.356 . S
C1255 C1254 1.363 . S
C1255 C1261 1.363 . S
C1256 C1257 1.363 . S
C1256 C1261 1.379 . S
C1256 N1263 1.356 . S
C1257 C1256 1.363 . S
C1257 C1260 1.363 . S
N1258 C1260 1.356 . S
N1258 H1270 0.984 . S
N1258 H1271 0.985 . S
N1259 C1261 1.356 . S
N1259 H1264 0.984 . S
N1259 H1265 0.985 . S
C1260 C1254 1.379 . S
C1260 C1257 1.363 . S
C1260 N1258 1.356 . S
C1261 C1255 1.363 . S
C1261 C1256 1.379 . S
C1261 N1259 1.356 . S
N1262 C1254 1.356 . S
N1262 H1268 0.984 . S
N1262 H1269 0.984 . S
N1263 C1256 1.356 . S
N1263 H1266 0.984 . S
N1263 H1267 0.985 . S
H1264 N1259 0.984 . S
H1265 N1259 0.985 . S
H1266 N1263 0.984 . S
H1267 N1263 0.985 . S
H1268 N1262 0.984 . S
H1269 N1262 0.984 . S
H1270 N1258 0.984 . S
H1271 N1258 0.985 . S
C1272 C1273 1.363 . S
C1272 C1278 1.379 . S
C1272 N1280 1.356 . S
C1273 C1272 1.363 . S
C1273 C1279 1.363 . S
C1274 C1275 1.363 . S
C1274 C1279 1.379 . S
C1274 N1281 1.356 . S
C1275 C1274 1.363 . S
C1275 C1278 1.363 . S
N1276 C1278 1.356 . S
N1276 H1288 0.984 . S
N1276 H1289 0.985 . S
N1277 C1279 1.356 . S
N1277 H1282 0.984 . S
N1277 H1283 0.985 . S
C1278 C1272 1.379 . S
C1278 C1275 1.363 . S
C1278 N1276 1.356 . S
C1279 C1273 1.363 . S
C1279 C1274 1.379 . S
C1279 N1277 1.356 . S
N1280 C1272 1.356 . S
N1280 H1286 0.984 . S
N1280 H1287 0.984 . S
N1281 C1274 1.356 . S
N1281 H1284 0.984 . S
N1281 H1285 0.985 . S
H1282 N1277 0.984 . S
H1283 N1277 0.985 . S
H1284 N1281 0.984 . S
H1285 N1281 0.985 . S
H1286 N1280 0.984 . S
H1287 N1280 0.984 . S
H1288 N1276 0.984 . S
H1289 N1276 0.985 . S
C1290 C1291 1.363 . S
C1290 C1296 1.379 . S
C1290 N1298 1.356 . S
C1291 C1290 1.363 . S
C1291 C1297 1.363 . S
C1292 C1293 1.363 . S
C1292 C1297 1.379 . S
C1292 N1299 1.356 . S
C1293 C1292 1.363 . S
C1293 C1296 1.363 . S
N1294 C1296 1.356 . S
N1294 H1306 0.984 . S
N1294 H1307 0.985 . S
N1295 C1297 1.356 . S
N1295 H1300 0.984 . S
N1295 H1301 0.985 . S
C1296 C1290 1.379 . S
C1296 C1293 1.363 . S
C1296 N1294 1.356 . S
C1297 C1291 1.363 . S
C1297 C1292 1.379 . S
C1297 N1295 1.356 . S
N1298 C1290 1.356 . S
N1298 H1304 0.984 . S
N1298 H1305 0.984 . S
N1299 C1292 1.356 . S
N1299 H1302 0.984 . S
N1299 H1303 0.985 . S
H1300 N1295 0.984 . S
H1301 N1295 0.985 . S
H1302 N1299 0.984 . S
H1303 N1299 0.985 . S
H1304 N1298 0.984 . S
H1305 N1298 0.984 . S
H1306 N1294 0.984 . S
H1307 N1294 0.985 . S
C1308 C1309 1.363 . S
C1308 C1314 1.379 . S
C1308 N1316 1.356 . S
C1309 C1308 1.363 . S
C1309 C1315 1.363 . S
C1310 C1311 1.363 . S
C1310 C1315 1.379 . S
C1310 N1317 1.356 . S
C1311 C1310 1.363 . S
C1311 C1314 1.363 . S
N1312 C1314 1.356 . S
N1312 H1324 0.984 . S
N1312 H1325 0.985 . S
N1313 C1315 1.356 . S
N1313 H1318 0.984 . S
N1313 H1319 0.985 . S
C1314 C1308 1.379 . S
C1314 C1311 1.363 . S
C1314 N1312 1.356 . S
C1315 C1309 1.363 . S
C1315 C1310 1.379 . S
C1315 N1313 1.356 . S
N1316 C1308 1.356 . S
N1316 H1322 0.984 . S
N1316 H1323 0.984 . S
N1317 C1310 1.356 . S
N1317 H1320 0.984 . S
N1317 H1321 0.985 . S
H1318 N1313 0.984 . S
H1319 N1313 0.985 . S
H1320 N1317 0.984 . S
H1321 N1317 0.985 . S
H1322 N1316 0.984 . S
H1323 N1316 0.984 . S
H1324 N1312 0.984 . S
H1325 N1312 0.985 . S
C1326 C1327 1.363 . S
C1326 C1332 1.379 . S
C1326 N1334 1.356 . S
C1327 C1326 1.363 . S
C1327 C1333 1.363 . S
C1328 C1329 1.363 . S
C1328 C1333 1.379 . S
C1328 N1335 1.356 . S
C1329 C1328 1.363 . S
C1329 C1332 1.363 . S
N1330 C1332 1.356 . S
N1330 H1342 0.984 . S
N1330 H1343 0.985 . S
N1331 C1333 1.356 . S
N1331 H1336 0.984 . S
N1331 H1337 0.985 . S
C1332 C1326 1.379 . S
C1332 C1329 1.363 . S
C1332 N1330 1.356 . S
C1333 C1327 1.363 . S
C1333 C1328 1.379 . S
C1333 N1331 1.356 . S
N1334 C1326 1.356 . S
N1334 H1340 0.984 . S
N1334 H1341 0.984 . S
N1335 C1328 1.356 . S
N1335 H1338 0.984 . S
N1335 H1339 0.985 . S
H1336 N1331 0.984 . S
H1337 N1331 0.985 . S
H1338 N1335 0.984 . S
H1339 N1335 0.985 . S
H1340 N1334 0.984 . S
H1341 N1334 0.984 . S
H1342 N1330 0.984 . S
H1343 N1330 0.985 . S
C1344 C1345 1.363 . S
C1344 C1350 1.379 1_565 S
C1344 N1352 1.356 . S
C1345 C1344 1.363 . S
C1345 C1351 1.363 . S
C1346 C1347 1.363 . S
C1346 C1351 1.379 1_545 S
C1346 N1353 1.356 . S
C1347 C1346 1.363 . S
C1347 C1350 1.363 . S
N1348 C1350 1.356 . S
N1348 H1360 0.984 . S
N1348 H1361 0.985 . S
N1349 C1351 1.356 . S
N1349 H1354 0.984 . S
N1349 H1355 0.985 . S
C1350 C1344 1.379 1_545 S
C1350 C1347 1.363 . S
C1350 N1348 1.356 . S
C1351 C1345 1.363 . S
C1351 C1346 1.379 1_565 S
C1351 N1349 1.356 . S
N1352 C1344 1.356 . S
N1352 H1358 0.984 . S
N1352 H1359 0.984 . S
N1353 C1346 1.356 . S
N1353 H1356 0.984 . S
N1353 H1357 0.985 . S
H1354 N1349 0.984 . S
H1355 N1349 0.985 . S
H1356 N1353 0.984 . S
H1357 N1353 0.985 . S
H1358 N1352 0.984 . S
H1359 N1352 0.984 . S
H1360 N1348 0.984 . S
H1361 N1348 0.985 . S
C1362 C1363 1.363 . S
C1362 C1368 1.379 . S
C1362 N1370 1.356 . S
C1363 C1362 1.363 . S
C1363 C1369 1.363 . S
C1364 C1365 1.363 . S
C1364 C1369 1.379 . S
C1364 N1371 1.356 . S
C1365 C1364 1.363 . S
C1365 C1368 1.363 . S
N1366 C1368 1.356 . S
N1366 H1378 0.984 . S
N1366 H1379 0.985 . S
N1367 C1369 1.356 . S
N1367 H1372 0.984 . S
N1367 H1373 0.985 . S
C1368 C1362 1.379 . S
C1368 C1365 1.363 . S
C1368 N1366 1.356 . S
C1369 C1363 1.363 . S
C1369 C1364 1.379 . S
C1369 N1367 1.356 . S
N1370 C1362 1.356 . S
N1370 H1376 0.984 . S
N1370 H1377 0.984 . S
N1371 C1364 1.356 . S
N1371 H1374 0.984 . S
N1371 H1375 0.985 . S
H1372 N1367 0.984 . S
H1373 N1367 0.985 . S
H1374 N1371 0.984 . S
H1375 N1371 0.985 . S
H1376 N1370 0.984 . S
H1377 N1370 0.984 . S
H1378 N1366 0.984 . S
H1379 N1366 0.985 . S
C1380 C1381 1.363 . S
C1380 C1386 1.379 1_545 S
C1380 N1388 1.356 . S
C1381 C1380 1.363 . S
C1381 C1387 1.363 . S
C1382 C1383 1.363 . S
C1382 C1387 1.379 1_565 S
C1382 N1389 1.356 . S
C1383 C1382 1.363 . S
C1383 C1386 1.363 . S
N1384 C1386 1.356 . S
N1384 H1396 0.984 . S
N1384 H1397 0.985 . S
N1385 C1387 1.356 . S
N1385 H1390 0.984 . S
N1385 H1391 0.985 . S
C1386 C1380 1.379 1_565 S
C1386 C1383 1.363 . S
C1386 N1384 1.356 . S
C1387 C1381 1.363 . S
C1387 C1382 1.379 1_545 S
C1387 N1385 1.356 . S
N1388 C1380 1.356 . S
N1388 H1394 0.984 . S
N1388 H1395 0.984 . S
N1389 C1382 1.356 . S
N1389 H1392 0.984 . S
N1389 H1393 0.985 . S
H1390 N1385 0.984 . S
H1391 N1385 0.985 . S
H1392 N1389 0.984 . S
H1393 N1389 0.985 . S
H1394 N1388 0.984 . S
H1395 N1388 0.984 . S
H1396 N1384 0.984 . S
H1397 N1384 0.985 . S
C1398 C1399 1.363 . S
C1398 C1404 1.379 . S
C1398 N1406 1.356 . S
C1399 C1398 1.363 . S
C1399 C1405 1.363 1_554 S
C1400 C1401 1.363 . S
C1400 C1405 1.379 . S
C1400 N1407 1.356 . S
C1401 C1400 1.363 . S
C1401 C1404 1.363 1_556 S
N1402 C1404 1.356 . S
N1402 H1414 0.984 . S
N1402 H1415 0.985 . S
N1403 C1405 1.356 . S
N1403 H1408 0.984 . S
N1403 H1409 0.985 . S
C1404 C1398 1.379 . S
C1404 C1401 1.363 1_554 S
C1404 N1402 1.356 . S
C1405 C1399 1.363 1_556 S
C1405 C1400 1.379 . S
C1405 N1403 1.356 . S
N1406 C1398 1.356 . S
N1406 H1412 0.984 . S
N1406 H1413 0.984 . S
N1407 C1400 1.356 . S
N1407 H1410 0.984 . S
N1407 H1411 0.985 . S
H1408 N1403 0.984 . S
H1409 N1403 0.985 . S
H1410 N1407 0.984 . S
H1411 N1407 0.985 . S
H1412 N1406 0.984 . S
H1413 N1406 0.984 . S
H1414 N1402 0.984 . S
H1415 N1402 0.985 . S
C1416 C1417 1.363 . S
C1416 C1422 1.379 1_545 S
C1416 N1424 1.356 . S
C1417 C1416 1.363 . S
C1417 C1423 1.363 . S
C1418 C1419 1.363 . S
C1418 C1423 1.379 1_565 S
C1418 N1425 1.356 . S
C1419 C1418 1.363 . S
C1419 C1422 1.363 . S
N1420 C1422 1.356 . S
N1420 H1432 0.984 . S
N1420 H1433 0.985 . S
N1421 C1423 1.356 . S
N1421 H1426 0.984 . S
N1421 H1427 0.985 . S
C1422 C1416 1.379 1_565 S
C1422 C1419 1.363 . S
C1422 N1420 1.356 . S
C1423 C1417 1.363 . S
C1423 C1418 1.379 1_545 S
C1423 N1421 1.356 . S
N1424 C1416 1.356 . S
N1424 H1430 0.984 . S
N1424 H1431 0.984 . S
N1425 C1418 1.356 . S
N1425 H1428 0.984 . S
N1425 H1429 0.985 . S
H1426 N1421 0.984 . S
H1427 N1421 0.985 . S
H1428 N1425 0.984 . S
H1429 N1425 0.985 . S
H1430 N1424 0.984 . S
H1431 N1424 0.984 . S
H1432 N1420 0.984 . S
H1433 N1420 0.985 . S
C1434 C1435 1.363 . S
C1434 C1440 1.379 . S
C1434 N1442 1.356 . S
C1435 C1434 1.363 . S
C1435 C1441 1.363 . S
C1436 C1437 1.363 . S
C1436 C1441 1.379 . S
C1436 N1443 1.356 . S
C1437 C1436 1.363 . S
C1437 C1440 1.363 . S
N1438 C1440 1.356 . S
N1438 H1450 0.984 . S
N1438 H1451 0.985 . S
N1439 C1441 1.356 . S
N1439 H1444 0.984 . S
N1439 H1445 0.985 . S
C1440 C1434 1.379 . S
C1440 C1437 1.363 . S
C1440 N1438 1.356 . S
C1441 C1435 1.363 . S
C1441 C1436 1.379 . S
C1441 N1439 1.356 . S
N1442 C1434 1.356 . S
N1442 H1448 0.984 . S
N1442 H1449 0.984 . S
N1443 C1436 1.356 . S
N1443 H1446 0.984 . S
N1443 H1447 0.985 . S
H1444 N1439 0.984 . S
H1445 N1439 0.985 . S
H1446 N1443 0.984 . S
H1447 N1443 0.985 . S
H1448 N1442 0.984 . S
H1449 N1442 0.984 . S
H1450 N1438 0.984 . S
H1451 N1438 0.985 . S
C1452 C1453 1.363 . S
C1452 C1458 1.379 1_545 S
C1452 N1460 1.356 . S
C1453 C1452 1.363 . S
C1453 C1459 1.363 . S
C1454 C1455 1.363 . S
C1454 C1459 1.379 1_565 S
C1454 N1461 1.356 . S
C1455 C1454 1.363 . S
C1455 C1458 1.363 . S
N1456 C1458 1.356 . S
N1456 H1468 0.984 . S
N1456 H1469 0.985 . S
N1457 C1459 1.356 . S
N1457 H1462 0.984 . S
N1457 H1463 0.985 . S
C1458 C1452 1.379 1_565 S
C1458 C1455 1.363 . S
C1458 N1456 1.356 . S
C1459 C1453 1.363 . S
C1459 C1454 1.379 1_545 S
C1459 N1457 1.356 . S
N1460 C1452 1.356 . S
N1460 H1466 0.984 . S
N1460 H1467 0.984 . S
N1461 C1454 1.356 . S
N1461 H1464 0.984 . S
N1461 H1465 0.985 . S
H1462 N1457 0.984 . S
H1463 N1457 0.985 . S
H1464 N1461 0.984 . S
H1465 N1461 0.985 . S
H1466 N1460 0.984 . S
H1467 N1460 0.984 . S
H1468 N1456 0.984 . S
H1469 N1456 0.985 . S
C1470 C1471 1.363 . S
C1470 C1476 1.379 . S
C1470 N1478 1.356 . S
C1471 C1470 1.363 . S
C1471 C1477 1.363 1_554 S
C1472 C1473 1.363 . S
C1472 C1477 1.379 . S
C1472 N1479 1.356 . S
C1473 C1472 1.363 . S
C1473 C1476 1.363 1_556 S
N1474 C1476 1.356 . S
N1474 H1486 0.984 . S
N1474 H1487 0.985 . S
N1475 C1477 1.356 . S
N1475 H1480 0.984 . S
N1475 H1481 0.985 . S
C1476 C1470 1.379 . S
C1476 C1473 1.363 1_554 S
C1476 N1474 1.356 . S
C1477 C1471 1.363 1_556 S
C1477 C1472 1.379 . S
C1477 N1475 1.356 . S
N1478 C1470 1.356 . S
N1478 H1484 0.984 . S
N1478 H1485 0.984 . S
N1479 C1472 1.356 . S
N1479 H1482 0.984 . S
N1479 H1483 0.985 . S
H1480 N1475 0.984 . S
H1481 N1475 0.985 . S
H1482 N1479 0.984 . S
H1483 N1479 0.985 . S
H1484 N1478 0.984 . S
H1485 N1478 0.984 . S
H1486 N1474 0.984 . S
H1487 N1474 0.985 . S
C1488 C1489 1.363 . S
C1488 C1494 1.379 . S
C1488 N1496 1.356 . S
C1489 C1488 1.363 . S
C1489 C1495 1.363 . S
C1490 C1491 1.363 . S
C1490 C1495 1.379 . S
C1490 N1497 1.356 . S
C1491 C1490 1.363 . S
C1491 C1494 1.363 . S
N1492 C1494 1.356 . S
N1492 H1504 0.984 . S
N1492 H1505 0.985 . S
N1493 C1495 1.356 . S
N1493 H1498 0.984 . S
N1493 H1499 0.985 . S
C1494 C1488 1.379 . S
C1494 C1491 1.363 . S
C1494 N1492 1.356 . S
C1495 C1489 1.363 . S
C1495 C1490 1.379 . S
C1495 N1493 1.356 . S
N1496 C1488 1.356 . S
N1496 H1502 0.984 . S
N1496 H1503 0.984 . S
N1497 C1490 1.356 . S
N1497 H1500 0.984 . S
N1497 H1501 0.985 . S
H1498 N1493 0.984 . S
H1499 N1493 0.985 . S
H1500 N1497 0.984 . S
H1501 N1497 0.985 . S
H1502 N1496 0.984 . S
H1503 N1496 0.984 . S
H1504 N1492 0.984 . S
H1505 N1492 0.985 . S
C1506 C1507 1.363 1_554 S
C1506 C1512 1.379 . S
C1506 N1514 1.356 . S
C1507 C1506 1.363 1_556 S
C1507 C1513 1.363 . S
C1508 C1509 1.363 1_556 S
C1508 C1513 1.379 . S
C1508 N1515 1.356 . S
C1509 C1508 1.363 1_554 S
C1509 C1512 1.363 . S
N1510 C1512 1.356 . S
N1510 H1522 0.984 . S
N1510 H1523 0.985 . S
N1511 C1513 1.356 . S
N1511 H1516 0.984 . S
N1511 H1517 0.985 . S
C1512 C1506 1.379 . S
C1512 C1509 1.363 . S
C1512 N1510 1.356 . S
C1513 C1507 1.363 . S
C1513 C1508 1.379 . S
C1513 N1511 1.356 . S
N1514 C1506 1.356 . S
N1514 H1520 0.984 . S
N1514 H1521 0.984 . S
N1515 C1508 1.356 . S
N1515 H1518 0.984 . S
N1515 H1519 0.985 . S
H1516 N1511 0.984 . S
H1517 N1511 0.985 . S
H1518 N1515 0.984 . S
H1519 N1515 0.985 . S
H1520 N1514 0.984 . S
H1521 N1514 0.984 . S
H1522 N1510 0.984 . S
H1523 N1510 0.985 . S
C1524 C1525 1.363 . S
C1524 C1530 1.379 . S
C1524 N1532 1.356 . S
C1525 C1524 1.363 . S
C1525 C1531 1.363 . S
C1526 C1527 1.363 . S
C1526 C1531 1.379 . S
C1526 N1533 1.356 . S
C1527 C1526 1.363 . S
C1527 C1530 1.363 . S
N1528 C1530 1.356 . S
N1528 H1540 0.984 . S
N1528 H1541 0.985 . S
N1529 C1531 1.356 . S
N1529 H1534 0.984 . S
N1529 H1535 0.985 . S
C1530 C1524 1.379 . S
C1530 C1527 1.363 . S
C1530 N1528 1.356 . S
C1531 C1525 1.363 . S
C1531 C1526 1.379 . S
C1531 N1529 1.356 . S
N1532 C1524 1.356 . S
N1532 H1538 0.984 . S
N1532 H1539 0.984 . S
N1533 C1526 1.356 . S
N1533 H1536 0.984 . S
N1533 H1537 0.985 . S
H1534 N1529 0.984 . S
H1535 N1529 0.985 . S
H1536 N1533 0.984 . S
H1537 N1533 0.985 . S
H1538 N1532 0.984 . S
H1539 N1532 0.984 . S
H1540 N1528 0.984 . S
H1541 N1528 0.985 . S
C1542 C1543 1.363 . S
C1542 C1548 1.379 . S
C1542 N1550 1.356 . S
C1543 C1542 1.363 . S
C1543 C1549 1.363 . S
C1544 C1545 1.363 . S
C1544 C1549 1.379 . S
C1544 N1551 1.356 . S
C1545 C1544 1.363 . S
C1545 C1548 1.363 . S
N1546 C1548 1.356 . S
N1546 H1558 0.984 . S
N1546 H1559 0.985 . S
N1547 C1549 1.356 . S
N1547 H1552 0.984 . S
N1547 H1553 0.985 . S
C1548 C1542 1.379 . S
C1548 C1545 1.363 . S
C1548 N1546 1.356 . S
C1549 C1543 1.363 . S
C1549 C1544 1.379 . S
C1549 N1547 1.356 . S
N1550 C1542 1.356 . S
N1550 H1556 0.984 . S
N1550 H1557 0.984 . S
N1551 C1544 1.356 . S
N1551 H1554 0.984 . S
N1551 H1555 0.985 . S
H1552 N1547 0.984 . S
H1553 N1547 0.985 . S
H1554 N1551 0.984 . S
H1555 N1551 0.985 . S
H1556 N1550 0.984 . S
H1557 N1550 0.984 . S
H1558 N1546 0.984 . S
H1559 N1546 0.985 . S
C1560 C1561 1.363 . S
C1560 C1566 1.379 . S
C1560 N1568 1.356 . S
C1561 C1560 1.363 . S
C1561 C1567 1.363 . S
C1562 C1563 1.363 . S
C1562 C1567 1.379 . S
C1562 N1569 1.356 . S
C1563 C1562 1.363 . S
C1563 C1566 1.363 . S
N1564 C1566 1.356 . S
N1564 H1576 0.984 . S
N1564 H1577 0.985 . S
N1565 C1567 1.356 . S
N1565 H1570 0.984 . S
N1565 H1571 0.985 . S
C1566 C1560 1.379 . S
C1566 C1563 1.363 . S
C1566 N1564 1.356 . S
C1567 C1561 1.363 . S
C1567 C1562 1.379 . S
C1567 N1565 1.356 . S
N1568 C1560 1.356 . S
N1568 H1574 0.984 . S
N1568 H1575 0.984 . S
N1569 C1562 1.356 . S
N1569 H1572 0.984 . S
N1569 H1573 0.985 . S
H1570 N1565 0.984 . S
H1571 N1565 0.985 . S
H1572 N1569 0.984 . S
H1573 N1569 0.985 . S
H1574 N1568 0.984 . S
H1575 N1568 0.984 . S
H1576 N1564 0.984 . S
H1577 N1564 0.985 . S
C1578 C1579 1.363 1_554 S
C1578 C1584 1.379 . S
C1578 N1586 1.356 . S
C1579 C1578 1.363 1_556 S
C1579 C1585 1.363 . S
C1580 C1581 1.363 1_556 S
C1580 C1585 1.379 . S
C1580 N1587 1.356 . S
C1581 C1580 1.363 1_554 S
C1581 C1584 1.363 . S
N1582 C1584 1.356 . S
N1582 H1594 0.984 . S
N1582 H1595 0.985 . S
N1583 C1585 1.356 . S
N1583 H1588 0.984 . S
N1583 H1589 0.985 . S
C1584 C1578 1.379 . S
C1584 C1581 1.363 . S
C1584 N1582 1.356 . S
C1585 C1579 1.363 . S
C1585 C1580 1.379 . S
C1585 N1583 1.356 . S
N1586 C1578 1.356 . S
N1586 H1592 0.984 . S
N1586 H1593 0.984 . S
N1587 C1580 1.356 . S
N1587 H1590 0.984 . S
N1587 H1591 0.985 . S
H1588 N1583 0.984 . S
H1589 N1583 0.985 . S
H1590 N1587 0.984 . S
H1591 N1587 0.985 . S
H1592 N1586 0.984 . S
H1593 N1586 0.984 . S
H1594 N1582 0.984 . S
H1595 N1582 0.985 . S
C1596 C1597 1.363 . S
C1596 C1602 1.379 . S
C1596 N1604 1.356 . S
C1597 C1596 1.363 . S
C1597 C1603 1.363 . S
C1598 C1599 1.363 . S
C1598 C1603 1.379 . S
C1598 N1605 1.356 . S
C1599 C1598 1.363 . S
C1599 C1602 1.363 . S
N1600 C1602 1.356 . S
N1600 H1612 0.984 . S
N1600 H1613 0.985 . S
N1601 C1603 1.356 . S
N1601 H1606 0.984 . S
N1601 H1607 0.985 . S
C1602 C1596 1.379 . S
C1602 C1599 1.363 . S
C1602 N1600 1.356 . S
C1603 C1597 1.363 . S
C1603 C1598 1.379 . S
C1603 N1601 1.356 . S
N1604 C1596 1.356 . S
N1604 H1610 0.984 . S
N1604 H1611 0.984 . S
N1605 C1598 1.356 . S
N1605 H1608 0.984 . S
N1605 H1609 0.985 . S
H1606 N1601 0.984 . S
H1607 N1601 0.985 . S
H1608 N1605 0.984 . S
H1609 N1605 0.985 . S
H1610 N1604 0.984 . S
H1611 N1604 0.984 . S
H1612 N1600 0.984 . S
H1613 N1600 0.985 . S
C1614 C1615 1.363 . S
C1614 C1620 1.379 . S
C1614 N1622 1.356 . S
C1615 C1614 1.363 . S
C1615 C1621 1.363 . S
C1616 C1617 1.363 . S
C1616 C1621 1.379 . S
C1616 N1623 1.356 . S
C1617 C1616 1.363 . S
C1617 C1620 1.363 . S
N1618 C1620 1.356 . S
N1618 H1630 0.984 . S
N1618 H1631 0.985 . S
N1619 C1621 1.356 . S
N1619 H1624 0.984 . S
N1619 H1625 0.985 . S
C1620 C1614 1.379 . S
C1620 C1617 1.363 . S
C1620 N1618 1.356 . S
C1621 C1615 1.363 . S
C1621 C1616 1.379 . S
C1621 N1619 1.356 . S
N1622 C1614 1.356 . S
N1622 H1628 0.984 . S
N1622 H1629 0.984 . S
N1623 C1616 1.356 . S
N1623 H1626 0.984 . S
N1623 H1627 0.985 . S
H1624 N1619 0.984 . S
H1625 N1619 0.985 . S
H1626 N1623 0.984 . S
H1627 N1623 0.985 . S
H1628 N1622 0.984 . S
H1629 N1622 0.984 . S
H1630 N1618 0.984 . S
H1631 N1618 0.985 . S
C1632 C1633 1.363 1_455 S
C1632 C1638 1.379 . S
C1632 N1640 1.356 . S
C1633 C1632 1.363 1_655 S
C1633 C1639 1.363 . S
C1634 C1635 1.363 1_655 S
C1634 C1639 1.379 . S
C1634 N1641 1.356 . S
C1635 C1634 1.363 1_455 S
C1635 C1638 1.363 . S
N1636 C1638 1.356 . S
N1636 H1648 0.984 . S
N1636 H1649 0.985 . S
N1637 C1639 1.356 . S
N1637 H1642 0.984 . S
N1637 H1643 0.985 . S
C1638 C1632 1.379 . S
C1638 C1635 1.363 . S
C1638 N1636 1.356 . S
C1639 C1633 1.363 . S
C1639 C1634 1.379 . S
C1639 N1637 1.356 . S
N1640 C1632 1.356 . S
N1640 H1646 0.984 . S
N1640 H1647 0.984 . S
N1641 C1634 1.356 . S
N1641 H1644 0.984 . S
N1641 H1645 0.985 . S
H1642 N1637 0.984 . S
H1643 N1637 0.985 . S
H1644 N1641 0.984 . S
H1645 N1641 0.985 . S
H1646 N1640 0.984 . S
H1647 N1640 0.984 . S
H1648 N1636 0.984 . S
H1649 N1636 0.985 . S
C1650 C1651 1.363 . S
C1650 C1656 1.379 1_455 S
C1650 N1658 1.356 . S
C1651 C1650 1.363 . S
C1651 C1657 1.363 . S
C1652 C1653 1.363 . S
C1652 C1657 1.379 1_655 S
C1652 N1659 1.356 . S
C1653 C1652 1.363 . S
C1653 C1656 1.363 . S
N1654 C1656 1.356 . S
N1654 H1666 0.984 . S
N1654 H1667 0.985 . S
N1655 C1657 1.356 . S
N1655 H1660 0.984 . S
N1655 H1661 0.985 . S
C1656 C1650 1.379 1_655 S
C1656 C1653 1.363 . S
C1656 N1654 1.356 . S
C1657 C1651 1.363 . S
C1657 C1652 1.379 1_455 S
C1657 N1655 1.356 . S
N1658 C1650 1.356 . S
N1658 H1664 0.984 . S
N1658 H1665 0.984 . S
N1659 C1652 1.356 . S
N1659 H1662 0.984 . S
N1659 H1663 0.985 . S
H1660 N1655 0.984 . S
H1661 N1655 0.985 . S
H1662 N1659 0.984 . S
H1663 N1659 0.985 . S
H1664 N1658 0.984 . S
H1665 N1658 0.984 . S
H1666 N1654 0.984 . S
H1667 N1654 0.985 . S
C1668 C1669 1.363 . S
C1668 C1674 1.379 . S
C1668 N1676 1.356 . S
C1669 C1668 1.363 . S
C1669 C1675 1.363 . S
C1670 C1671 1.363 . S
C1670 C1675 1.379 . S
C1670 N1677 1.356 . S
C1671 C1670 1.363 . S
C1671 C1674 1.363 . S
N1672 C1674 1.356 . S
N1672 H1684 0.984 . S
N1672 H1685 0.985 . S
N1673 C1675 1.356 . S
N1673 H1678 0.984 . S
N1673 H1679 0.985 . S
C1674 C1668 1.379 . S
C1674 C1671 1.363 . S
C1674 N1672 1.356 . S
C1675 C1669 1.363 . S
C1675 C1670 1.379 . S
C1675 N1673 1.356 . S
N1676 C1668 1.356 . S
N1676 H1682 0.984 . S
N1676 H1683 0.984 . S
N1677 C1670 1.356 . S
N1677 H1680 0.984 . S
N1677 H1681 0.985 . S
H1678 N1673 0.984 . S
H1679 N1673 0.985 . S
H1680 N1677 0.984 . S
H1681 N1677 0.985 . S
H1682 N1676 0.984 . S
H1683 N1676 0.984 . S
H1684 N1672 0.984 . S
H1685 N1672 0.985 . S
C1686 C1687 1.363 . S
C1686 C1692 1.379 . S
C1686 N1694 1.356 . S
C1687 C1686 1.363 . S
C1687 C1693 1.363 1_554 S
C1688 C1689 1.363 1_556 S
C1688 C1693 1.379 . S
C1688 N1695 1.356 . S
C1689 C1688 1.363 1_554 S
C1689 C1692 1.363 . S
N1690 C1692 1.356 . S
N1690 H1702 0.984 . S
N1690 H1703 0.985 . S
N1691 C1693 1.356 . S
N1691 H1696 0.984 . S
N1691 H1697 0.985 . S
C1692 C1686 1.379 . S
C1692 C1689 1.363 . S
C1692 N1690 1.356 . S
C1693 C1687 1.363 1_556 S
C1693 C1688 1.379 . S
C1693 N1691 1.356 . S
N1694 C1686 1.356 . S
N1694 H1700 0.984 . S
N1694 H1701 0.984 . S
N1695 C1688 1.356 . S
N1695 H1698 0.984 . S
N1695 H1699 0.985 . S
H1696 N1691 0.984 . S
H1697 N1691 0.985 . S
H1698 N1695 0.984 . S
H1699 N1695 0.985 . S
H1700 N1694 0.984 . S
H1701 N1694 0.984 . S
H1702 N1690 0.984 . S
H1703 N1690 0.985 . S
C1704 C1705 1.363 . S
C1704 C1710 1.379 . S
C1704 N1712 1.356 . S
C1705 C1704 1.363 . S
C1705 C1711 1.363 1_655 S
C1706 C1707 1.363 . S
C1706 C1711 1.379 . S
C1706 N1713 1.356 . S
C1707 C1706 1.363 . S
C1707 C1710 1.363 1_455 S
N1708 C1710 1.356 . S
N1708 H1720 0.984 . S
N1708 H1721 0.985 . S
N1709 C1711 1.356 . S
N1709 H1714 0.984 . S
N1709 H1715 0.985 . S
C1710 C1704 1.379 . S
C1710 C1707 1.363 1_655 S
C1710 N1708 1.356 . S
C1711 C1705 1.363 1_455 S
C1711 C1706 1.379 . S
C1711 N1709 1.356 . S
N1712 C1704 1.356 . S
N1712 H1718 0.984 . S
N1712 H1719 0.984 . S
N1713 C1706 1.356 . S
N1713 H1716 0.984 . S
N1713 H1717 0.985 . S
H1714 N1709 0.984 . S
H1715 N1709 0.985 . S
H1716 N1713 0.984 . S
H1717 N1713 0.985 . S
H1718 N1712 0.984 . S
H1719 N1712 0.984 . S
H1720 N1708 0.984 . S
H1721 N1708 0.985 . S
C1722 C1723 1.363 . S
C1722 C1728 1.379 . S
C1722 N1730 1.356 . S
C1723 C1722 1.363 . S
C1723 C1729 1.363 . S
C1724 C1725 1.363 . S
C1724 C1729 1.379 . S
C1724 N1731 1.356 . S
C1725 C1724 1.363 . S
C1725 C1728 1.363 . S
N1726 C1728 1.356 . S
N1726 H1738 0.984 . S
N1726 H1739 0.985 . S
N1727 C1729 1.356 . S
N1727 H1732 0.984 . S
N1727 H1733 0.985 . S
C1728 C1722 1.379 . S
C1728 C1725 1.363 . S
C1728 N1726 1.356 . S
C1729 C1723 1.363 . S
C1729 C1724 1.379 . S
C1729 N1727 1.356 . S
N1730 C1722 1.356 . S
N1730 H1736 0.984 . S
N1730 H1737 0.984 . S
N1731 C1724 1.356 . S
N1731 H1734 0.984 . S
N1731 H1735 0.985 . S
H1732 N1727 0.984 . S
H1733 N1727 0.985 . S
H1734 N1731 0.984 . S
H1735 N1731 0.985 . S
H1736 N1730 0.984 . S
H1737 N1730 0.984 . S
H1738 N1726 0.984 . S
H1739 N1726 0.985 . S
C1740 C1741 1.363 . S
C1740 C1746 1.379 . S
C1740 N1748 1.356 . S
C1741 C1740 1.363 . S
C1741 C1747 1.363 . S
C1742 C1743 1.363 . S
C1742 C1747 1.379 . S
C1742 N1749 1.356 . S
C1743 C1742 1.363 . S
C1743 C1746 1.363 . S
N1744 C1746 1.356 . S
N1744 H1756 0.984 . S
N1744 H1757 0.985 . S
N1745 C1747 1.356 . S
N1745 H1750 0.984 . S
N1745 H1751 0.985 . S
C1746 C1740 1.379 . S
C1746 C1743 1.363 . S
C1746 N1744 1.356 . S
C1747 C1741 1.363 . S
C1747 C1742 1.379 . S
C1747 N1745 1.356 . S
N1748 C1740 1.356 . S
N1748 H1754 0.984 . S
N1748 H1755 0.984 . S
N1749 C1742 1.356 . S
N1749 H1752 0.984 . S
N1749 H1753 0.985 . S
H1750 N1745 0.984 . S
H1751 N1745 0.985 . S
H1752 N1749 0.984 . S
H1753 N1749 0.985 . S
H1754 N1748 0.984 . S
H1755 N1748 0.984 . S
H1756 N1744 0.984 . S
H1757 N1744 0.985 . S
C1758 C1759 1.363 . S
C1758 C1764 1.379 1_455 S
C1758 N1766 1.356 . S
C1759 C1758 1.363 . S
C1759 C1765 1.363 1_556 S
C1760 C1761 1.363 1_554 S
C1760 C1765 1.379 1_655 S
C1760 N1767 1.356 . S
C1761 C1760 1.363 1_556 S
C1761 C1764 1.363 . S
N1762 C1764 1.356 . S
N1762 H1774 0.984 . S
N1762 H1775 0.985 . S
N1763 C1765 1.356 . S
N1763 H1768 0.984 . S
N1763 H1769 0.985 . S
C1764 C1758 1.379 1_655 S
C1764 C1761 1.363 . S
C1764 N1762 1.356 . S
C1765 C1759 1.363 1_554 S
C1765 C1760 1.379 1_455 S
C1765 N1763 1.356 . S
N1766 C1758 1.356 . S
N1766 H1772 0.984 . S
N1766 H1773 0.984 . S
N1767 C1760 1.356 . S
N1767 H1770 0.984 . S
N1767 H1771 0.985 . S
H1768 N1763 0.984 . S
H1769 N1763 0.985 . S
H1770 N1767 0.984 . S
H1771 N1767 0.985 . S
H1772 N1766 0.984 . S
H1773 N1766 0.984 . S
H1774 N1762 0.984 . S
H1775 N1762 0.985 . S
C1776 C1777 1.363 . S
C1776 C1782 1.379 . S
C1776 N1784 1.356 . S
C1777 C1776 1.363 . S
C1777 C1783 1.363 1_655 S
C1778 C1779 1.363 . S
C1778 C1783 1.379 . S
C1778 N1785 1.356 . S
C1779 C1778 1.363 . S
C1779 C1782 1.363 1_455 S
N1780 C1782 1.356 . S
N1780 H1792 0.984 . S
N1780 H1793 0.985 . S
N1781 C1783 1.356 . S
N1781 H1786 0.984 . S
N1781 H1787 0.985 . S
C1782 C1776 1.379 . S
C1782 C1779 1.363 1_655 S
C1782 N1780 1.356 . S
C1783 C1777 1.363 1_455 S
C1783 C1778 1.379 . S
C1783 N1781 1.356 . S
N1784 C1776 1.356 . S
N1784 H1790 0.984 . S
N1784 H1791 0.984 . S
N1785 C1778 1.356 . S
N1785 H1788 0.984 . S
N1785 H1789 0.985 . S
H1786 N1781 0.984 . S
H1787 N1781 0.985 . S
H1788 N1785 0.984 . S
H1789 N1785 0.985 . S
H1790 N1784 0.984 . S
H1791 N1784 0.984 . S
H1792 N1780 0.984 . S
H1793 N1780 0.985 . S
C1794 C1795 1.363 . S
C1794 C1800 1.379 1_655 S
C1794 N1802 1.356 . S
C1795 C1794 1.363 . S
C1795 C1801 1.363 . S
C1796 C1797 1.363 . S
C1796 C1801 1.379 1_455 S
C1796 N1803 1.356 . S
C1797 C1796 1.363 . S
C1797 C1800 1.363 . S
N1798 C1800 1.356 . S
N1798 H1810 0.984 . S
N1798 H1811 0.985 . S
N1799 C1801 1.356 . S
N1799 H1804 0.984 . S
N1799 H1805 0.985 . S
C1800 C1794 1.379 1_455 S
C1800 C1797 1.363 . S
C1800 N1798 1.356 . S
C1801 C1795 1.363 . S
C1801 C1796 1.379 1_655 S
C1801 N1799 1.356 . S
N1802 C1794 1.356 . S
N1802 H1808 0.984 . S
N1802 H1809 0.984 . S
N1803 C1796 1.356 . S
N1803 H1806 0.984 . S
N1803 H1807 0.985 . S
H1804 N1799 0.984 . S
H1805 N1799 0.985 . S
H1806 N1803 0.984 . S
H1807 N1803 0.985 . S
H1808 N1802 0.984 . S
H1809 N1802 0.984 . S
H1810 N1798 0.984 . S
H1811 N1798 0.985 . S
C1812 C1813 1.363 . S
C1812 C1818 1.379 . S
C1812 N1820 1.356 . S
C1813 C1812 1.363 . S
C1813 C1819 1.363 . S
C1814 C1815 1.363 . S
C1814 C1819 1.379 . S
C1814 N1821 1.356 . S
C1815 C1814 1.363 . S
C1815 C1818 1.363 . S
N1816 C1818 1.356 . S
N1816 H1828 0.984 . S
N1816 H1829 0.985 . S
N1817 C1819 1.356 . S
N1817 H1822 0.984 . S
N1817 H1823 0.985 . S
C1818 C1812 1.379 . S
C1818 C1815 1.363 . S
C1818 N1816 1.356 . S
C1819 C1813 1.363 . S
C1819 C1814 1.379 . S
C1819 N1817 1.356 . S
N1820 C1812 1.356 . S
N1820 H1826 0.984 . S
N1820 H1827 0.984 . S
N1821 C1814 1.356 . S
N1821 H1824 0.984 . S
N1821 H1825 0.985 . S
H1822 N1817 0.984 . S
H1823 N1817 0.985 . S
H1824 N1821 0.984 . S
H1825 N1821 0.985 . S
H1826 N1820 0.984 . S
H1827 N1820 0.984 . S
H1828 N1816 0.984 . S
H1829 N1816 0.985 . S
C1830 C1831 1.363 . S
C1830 C1836 1.379 . S
C1830 N1838 1.356 . S
C1831 C1830 1.363 . S
C1831 C1837 1.363 1_556 S
C1832 C1833 1.363 1_554 S
C1832 C1837 1.379 . S
C1832 N1839 1.356 . S
C1833 C1832 1.363 1_556 S
C1833 C1836 1.363 . S
N1834 C1836 1.356 . S
N1834 H1846 0.984 . S
N1834 H1847 0.985 . S
N1835 C1837 1.356 . S
N1835 H1840 0.984 . S
N1835 H1841 0.985 . S
C1836 C1830 1.379 . S
C1836 C1833 1.363 . S
C1836 N1834 1.356 . S
C1837 C1831 1.363 1_554 S
C1837 C1832 1.379 . S
C1837 N1835 1.356 . S
N1838 C1830 1.356 . S
N1838 H1844 0.984 . S
N1838 H1845 0.984 . S
N1839 C1832 1.356 . S
N1839 H1842 0.984 . S
N1839 H1843 0.985 . S
H1840 N1835 0.984 . S
H1841 N1835 0.985 . S
H1842 N1839 0.984 . S
H1843 N1839 0.985 . S
H1844 N1838 0.984 . S
H1845 N1838 0.984 . S
H1846 N1834 0.984 . S
H1847 N1834 0.985 . S
C1848 C1849 1.363 . S
C1848 C1854 1.379 . S
C1848 N1856 1.356 . S
C1849 C1848 1.363 . S
C1849 C1855 1.363 1_655 S
C1850 C1851 1.363 . S
C1850 C1855 1.379 . S
C1850 N1857 1.356 . S
C1851 C1850 1.363 . S
C1851 C1854 1.363 1_455 S
N1852 C1854 1.356 . S
N1852 H1864 0.984 . S
N1852 H1865 0.985 . S
N1853 C1855 1.356 . S
N1853 H1858 0.984 . S
N1853 H1859 0.985 . S
C1854 C1848 1.379 . S
C1854 C1851 1.363 1_655 S
C1854 N1852 1.356 . S
C1855 C1849 1.363 1_455 S
C1855 C1850 1.379 . S
C1855 N1853 1.356 . S
N1856 C1848 1.356 . S
N1856 H1862 0.984 . S
N1856 H1863 0.984 . S
N1857 C1850 1.356 . S
N1857 H1860 0.984 . S
N1857 H1861 0.985 . S
H1858 N1853 0.984 . S
H1859 N1853 0.985 . S
H1860 N1857 0.984 . S
H1861 N1857 0.985 . S
H1862 N1856 0.984 . S
H1863 N1856 0.984 . S
H1864 N1852 0.984 . S
H1865 N1852 0.985 . S
C1866 C1867 1.363 . S
C1866 C1872 1.379 . S
C1866 N1874 1.356 . S
C1867 C1866 1.363 . S
C1867 C1873 1.363 . S
C1868 C1869 1.363 . S
C1868 C1873 1.379 . S
C1868 N1875 1.356 . S
C1869 C1868 1.363 . S
C1869 C1872 1.363 . S
N1870 C1872 1.356 . S
N1870 H1882 0.984 . S
N1870 H1883 0.985 . S
N1871 C1873 1.356 . S
N1871 H1876 0.984 . S
N1871 H1877 0.985 . S
C1872 C1866 1.379 . S
C1872 C1869 1.363 . S
C1872 N1870 1.356 . S
C1873 C1867 1.363 . S
C1873 C1868 1.379 . S
C1873 N1871 1.356 . S
N1874 C1866 1.356 . S
N1874 H1880 0.984 . S
N1874 H1881 0.984 . S
N1875 C1868 1.356 . S
N1875 H1878 0.984 . S
N1875 H1879 0.985 . S
H1876 N1871 0.984 . S
H1877 N1871 0.985 . S
H1878 N1875 0.984 . S
H1879 N1875 0.985 . S
H1880 N1874 0.984 . S
H1881 N1874 0.984 . S
H1882 N1870 0.984 . S
H1883 N1870 0.985 . S
C1884 C1885 1.363 . S
C1884 C1890 1.379 . S
C1884 N1892 1.356 . S
C1885 C1884 1.363 . S
C1885 C1891 1.363 . S
C1886 C1887 1.363 . S
C1886 C1891 1.379 . S
C1886 N1893 1.356 . S
C1887 C1886 1.363 . S
C1887 C1890 1.363 . S
N1888 C1890 1.356 . S
N1888 H1900 0.984 . S
N1888 H1901 0.985 . S
N1889 C1891 1.356 . S
N1889 H1894 0.984 . S
N1889 H1895 0.985 . S
C1890 C1884 1.379 . S
C1890 C1887 1.363 . S
C1890 N1888 1.356 . S
C1891 C1885 1.363 . S
C1891 C1886 1.379 . S
C1891 N1889 1.356 . S
N1892 C1884 1.356 . S
N1892 H1898 0.984 . S
N1892 H1899 0.984 . S
N1893 C1886 1.356 . S
N1893 H1896 0.984 . S
N1893 H1897 0.985 . S
H1894 N1889 0.984 . S
H1895 N1889 0.985 . S
H1896 N1893 0.984 . S
H1897 N1893 0.985 . S
H1898 N1892 0.984 . S
H1899 N1892 0.984 . S
H1900 N1888 0.984 . S
H1901 N1888 0.985 . S
C1902 C1903 1.363 1_556 S
C1902 C1908 1.379 1_455 S
C1902 N1910 1.356 . S
C1903 C1902 1.363 1_554 S
C1903 C1909 1.363 . S
C1904 C1905 1.363 . S
C1904 C1909 1.379 1_655 S
C1904 N1911 1.356 . S
C1905 C1904 1.363 . S
C1905 C1908 1.363 1_554 S
N1906 C1908 1.356 . S
N1906 H1918 0.984 . S
N1906 H1919 0.985 . S
N1907 C1909 1.356 . S
N1907 H1912 0.984 . S
N1907 H1913 0.985 . S
C1908 C1902 1.379 1_655 S
C1908 C1905 1.363 1_556 S
C1908 N1906 1.356 . S
C1909 C1903 1.363 . S
C1909 C1904 1.379 1_455 S
C1909 N1907 1.356 . S
N1910 C1902 1.356 . S
N1910 H1916 0.984 . S
N1910 H1917 0.984 . S
N1911 C1904 1.356 . S
N1911 H1914 0.984 . S
N1911 H1915 0.985 . S
H1912 N1907 0.984 . S
H1913 N1907 0.985 . S
H1914 N1911 0.984 . S
H1915 N1911 0.985 . S
H1916 N1910 0.984 . S
H1917 N1910 0.984 . S
H1918 N1906 0.984 . S
H1919 N1906 0.985 . S
C1920 C1921 1.363 . S
C1920 C1926 1.379 . S
C1920 N1928 1.356 . S
C1921 C1920 1.363 . S
C1921 C1927 1.363 . S
C1922 C1923 1.363 . S
C1922 C1927 1.379 . S
C1922 N1929 1.356 . S
C1923 C1922 1.363 . S
C1923 C1926 1.363 . S
N1924 C1926 1.356 . S
N1924 H1936 0.984 . S
N1924 H1937 0.985 . S
N1925 C1927 1.356 . S
N1925 H1930 0.984 . S
N1925 H1931 0.985 . S
C1926 C1920 1.379 . S
C1926 C1923 1.363 . S
C1926 N1924 1.356 . S
C1927 C1921 1.363 . S
C1927 C1922 1.379 . S
C1927 N1925 1.356 . S
N1928 C1920 1.356 . S
N1928 H1934 0.984 . S
N1928 H1935 0.984 . S
N1929 C1922 1.356 . S
N1929 H1932 0.984 . S
N1929 H1933 0.985 . S
H1930 N1925 0.984 . S
H1931 N1925 0.985 . S
H1932 N1929 0.984 . S
H1933 N1929 0.985 . S
H1934 N1928 0.984 . S
H1935 N1928 0.984 . S
H1936 N1924 0.984 . S
H1937 N1924 0.985 . S
C1938 C1939 1.363 . S
C1938 C1944 1.379 . S
C1938 N1946 1.356 . S
C1939 C1938 1.363 . S
C1939 C1945 1.363 . S
C1940 C1941 1.363 . S
C1940 C1945 1.379 . S
C1940 N1947 1.356 . S
C1941 C1940 1.363 . S
C1941 C1944 1.363 . S
N1942 C1944 1.356 . S
N1942 H1954 0.984 . S
N1942 H1955 0.985 1_455 S
N1943 C1945 1.356 . S
N1943 H1948 0.984 . S
N1943 H1949 0.985 . S
C1944 C1938 1.379 . S
C1944 C1941 1.363 . S
C1944 N1942 1.356 . S
C1945 C1939 1.363 . S
C1945 C1940 1.379 . S
C1945 N1943 1.356 . S
N1946 C1938 1.356 . S
N1946 H1952 0.984 . S
N1946 H1953 0.984 . S
N1947 C1940 1.356 . S
N1947 H1950 0.984 . S
N1947 H1951 0.985 . S
H1948 N1943 0.984 . S
H1949 N1943 0.985 . S
H1950 N1947 0.984 . S
H1951 N1947 0.985 . S
H1952 N1946 0.984 . S
H1953 N1946 0.984 . S
H1954 N1942 0.984 . S
H1955 N1942 0.985 1_655 S
C1956 C1957 1.363 . S
C1956 C1962 1.379 . S
C1956 N1964 1.356 . S
C1957 C1956 1.363 . S
C1957 C1963 1.363 . S
C1958 C1959 1.363 . S
C1958 C1963 1.379 . S
C1958 N1965 1.356 . S
C1959 C1958 1.363 . S
C1959 C1962 1.363 . S
N1960 C1962 1.356 . S
N1960 H1972 0.984 . S
N1960 H1973 0.985 . S
N1961 C1963 1.356 . S
N1961 H1966 0.984 . S
N1961 H1967 0.985 . S
C1962 C1956 1.379 . S
C1962 C1959 1.363 . S
C1962 N1960 1.356 . S
C1963 C1957 1.363 . S
C1963 C1958 1.379 . S
C1963 N1961 1.356 . S
N1964 C1956 1.356 . S
N1964 H1970 0.984 . S
N1964 H1971 0.984 . S
N1965 C1958 1.356 . S
N1965 H1968 0.984 . S
N1965 H1969 0.985 . S
H1966 N1961 0.984 . S
H1967 N1961 0.985 . S
H1968 N1965 0.984 . S
H1969 N1965 0.985 . S
H1970 N1964 0.984 . S
H1971 N1964 0.984 . S
H1972 N1960 0.984 . S
H1973 N1960 0.985 . S
C1974 C1975 1.363 . S
C1974 C1980 1.379 . S
C1974 N1982 1.356 . S
C1975 C1974 1.363 . S
C1975 C1981 1.363 . S
C1976 C1977 1.363 . S
C1976 C1981 1.379 . S
C1976 N1983 1.356 . S
C1977 C1976 1.363 . S
C1977 C1980 1.363 . S
N1978 C1980 1.356 . S
N1978 H1990 0.984 . S
N1978 H1991 0.985 . S
N1979 C1981 1.356 . S
N1979 H1984 0.984 . S
N1979 H1985 0.985 . S
C1980 C1974 1.379 . S
C1980 C1977 1.363 . S
C1980 N1978 1.356 . S
C1981 C1975 1.363 . S
C1981 C1976 1.379 . S
C1981 N1979 1.356 . S
N1982 C1974 1.356 . S
N1982 H1988 0.984 . S
N1982 H1989 0.984 . S
N1983 C1976 1.356 . S
N1983 H1986 0.984 . S
N1983 H1987 0.985 . S
H1984 N1979 0.984 . S
H1985 N1979 0.985 . S
H1986 N1983 0.984 . S
H1987 N1983 0.985 . S
H1988 N1982 0.984 . S
H1989 N1982 0.984 . S
H1990 N1978 0.984 . S
H1991 N1978 0.985 . S
C1992 C1993 1.363 . S
C1992 C1998 1.379 . S
C1992 N2000 1.356 . S
C1993 C1992 1.363 . S
C1993 C1999 1.363 . S
C1994 C1995 1.363 . S
C1994 C1999 1.379 . S
C1994 N2001 1.356 . S
C1995 C1994 1.363 . S
C1995 C1998 1.363 . S
N1996 C1998 1.356 . S
N1996 H2008 0.984 . S
N1996 H2009 0.985 . S
N1997 C1999 1.356 . S
N1997 H2002 0.984 . S
N1997 H2003 0.985 . S
C1998 C1992 1.379 . S
C1998 C1995 1.363 . S
C1998 N1996 1.356 . S
C1999 C1993 1.363 . S
C1999 C1994 1.379 . S
C1999 N1997 1.356 . S
N2000 C1992 1.356 . S
N2000 H2006 0.984 . S
N2000 H2007 0.984 . S
N2001 C1994 1.356 . S
N2001 H2004 0.984 . S
N2001 H2005 0.985 . S
H2002 N1997 0.984 . S
H2003 N1997 0.985 . S
H2004 N2001 0.984 . S
H2005 N2001 0.985 . S
H2006 N2000 0.984 . S
H2007 N2000 0.984 . S
H2008 N1996 0.984 . S
H2009 N1996 0.985 . S
C2010 C2011 1.363 . S
C2010 C2016 1.379 . S
C2010 N2018 1.356 . S
C2011 C2010 1.363 . S
C2011 C2017 1.363 . S
C2012 C2013 1.363 . S
C2012 C2017 1.379 . S
C2012 N2019 1.356 . S
C2013 C2012 1.363 . S
C2013 C2016 1.363 . S
N2014 C2016 1.356 . S
N2014 H2026 0.984 . S
N2014 H2027 0.985 . S
N2015 C2017 1.356 . S
N2015 H2020 0.984 . S
N2015 H2021 0.985 . S
C2016 C2010 1.379 . S
C2016 C2013 1.363 . S
C2016 N2014 1.356 . S
C2017 C2011 1.363 . S
C2017 C2012 1.379 . S
C2017 N2015 1.356 . S
N2018 C2010 1.356 . S
N2018 H2024 0.984 . S
N2018 H2025 0.984 . S
N2019 C2012 1.356 . S
N2019 H2022 0.984 . S
N2019 H2023 0.985 . S
H2020 N2015 0.984 . S
H2021 N2015 0.985 . S
H2022 N2019 0.984 . S
H2023 N2019 0.985 . S
H2024 N2018 0.984 . S
H2025 N2018 0.984 . S
H2026 N2014 0.984 . S
H2027 N2014 0.985 . S
C2028 C2029 1.363 . S
C2028 C2034 1.379 . S
C2028 N2036 1.356 . S
C2029 C2028 1.363 . S
C2029 C2035 1.363 . S
C2030 C2031 1.363 . S
C2030 C2035 1.379 . S
C2030 N2037 1.356 . S
C2031 C2030 1.363 . S
C2031 C2034 1.363 . S
N2032 C2034 1.356 . S
N2032 H2044 0.984 . S
N2032 H2045 0.985 . S
N2033 C2035 1.356 . S
N2033 H2038 0.984 . S
N2033 H2039 0.985 . S
C2034 C2028 1.379 . S
C2034 C2031 1.363 . S
C2034 N2032 1.356 . S
C2035 C2029 1.363 . S
C2035 C2030 1.379 . S
C2035 N2033 1.356 . S
N2036 C2028 1.356 . S
N2036 H2042 0.984 . S
N2036 H2043 0.984 . S
N2037 C2030 1.356 . S
N2037 H2040 0.984 . S
N2037 H2041 0.985 . S
H2038 N2033 0.984 . S
H2039 N2033 0.985 . S
H2040 N2037 0.984 . S
H2041 N2037 0.985 . S
H2042 N2036 0.984 . S
H2043 N2036 0.984 . S
H2044 N2032 0.984 . S
H2045 N2032 0.985 . S
C2046 C2047 1.363 . S
C2046 C2052 1.379 . S
C2046 N2054 1.356 1_455 S
C2047 C2046 1.363 . S
C2047 C2053 1.363 . S
C2048 C2049 1.363 . S
C2048 C2053 1.379 . S
C2048 N2055 1.356 . S
C2049 C2048 1.363 . S
C2049 C2052 1.363 . S
N2050 C2052 1.356 . S
N2050 H2062 0.984 . S
N2050 H2063 0.985 . S
N2051 C2053 1.356 . S
N2051 H2056 0.984 . S
N2051 H2057 0.985 . S
C2052 C2046 1.379 . S
C2052 C2049 1.363 . S
C2052 N2050 1.356 . S
C2053 C2047 1.363 . S
C2053 C2048 1.379 . S
C2053 N2051 1.356 . S
N2054 C2046 1.356 1_655 S
N2054 H2060 0.984 . S
N2054 H2061 0.984 . S
N2055 C2048 1.356 . S
N2055 H2058 0.984 . S
N2055 H2059 0.985 . S
H2056 N2051 0.984 . S
H2057 N2051 0.985 . S
H2058 N2055 0.984 . S
H2059 N2055 0.985 . S
H2060 N2054 0.984 . S
H2061 N2054 0.984 . S
H2062 N2050 0.984 . S
H2063 N2050 0.985 . S
C2064 C2065 1.363 . S
C2064 C2070 1.379 . S
C2064 N2072 1.356 . S
C2065 C2064 1.363 . S
C2065 C2071 1.363 . S
C2066 C2067 1.363 . S
C2066 C2071 1.379 . S
C2066 N2073 1.356 . S
C2067 C2066 1.363 . S
C2067 C2070 1.363 . S
N2068 C2070 1.356 . S
N2068 H2080 0.984 . S
N2068 H2081 0.985 . S
N2069 C2071 1.356 . S
N2069 H2074 0.984 . S
N2069 H2075 0.985 . S
C2070 C2064 1.379 . S
C2070 C2067 1.363 . S
C2070 N2068 1.356 . S
C2071 C2065 1.363 . S
C2071 C2066 1.379 . S
C2071 N2069 1.356 . S
N2072 C2064 1.356 . S
N2072 H2078 0.984 . S
N2072 H2079 0.984 . S
N2073 C2066 1.356 . S
N2073 H2076 0.984 . S
N2073 H2077 0.985 . S
H2074 N2069 0.984 . S
H2075 N2069 0.985 . S
H2076 N2073 0.984 . S
H2077 N2073 0.985 . S
H2078 N2072 0.984 . S
H2079 N2072 0.984 . S
H2080 N2068 0.984 . S
H2081 N2068 0.985 . S
C2082 C2083 1.363 . S
C2082 C2088 1.379 . S
C2082 N2090 1.356 . S
C2083 C2082 1.363 . S
C2083 C2089 1.363 . S
C2084 C2085 1.363 . S
C2084 C2089 1.379 . S
C2084 N2091 1.365 . S
C2085 C2084 1.363 . S
C2085 C2088 1.363 . S
N2086 C2088 1.356 . S
N2086 H2098 0.984 . S
N2086 H2099 0.985 . S
N2087 C2089 1.356 . S
N2087 H2092 0.984 . S
N2087 H2093 0.985 . S
C2088 C2082 1.379 . S
C2088 C2085 1.363 . S
C2088 N2086 1.356 . S
C2089 C2083 1.363 . S
C2089 C2084 1.379 . S
C2089 N2087 1.356 . S
N2090 C2082 1.356 . S
N2090 H2096 0.984 . S
N2090 H2097 0.984 . S
N2091 C2084 1.365 . S
N2091 H2094 0.978 1_655 S
N2091 H2095 0.983 1_655 S
H2092 N2087 0.984 . S
H2093 N2087 0.985 . S
H2094 N2091 0.978 1_455 S
H2095 N2091 0.983 1_455 S
H2096 N2090 0.984 . S
H2097 N2090 0.984 . S
H2098 N2086 0.984 . S
H2099 N2086 0.985 . S
C2100 C2101 1.363 . S
C2100 C2106 1.379 . S
C2100 N2108 1.356 . S
C2101 C2100 1.363 . S
C2101 C2107 1.363 . S
C2102 C2103 1.363 . S
C2102 C2107 1.379 . S
C2102 N2109 1.356 . S
C2103 C2102 1.363 . S
C2103 C2106 1.363 . S
N2104 C2106 1.356 . S
N2104 H2116 0.984 . S
N2104 H2117 0.985 . S
N2105 C2107 1.356 . S
N2105 H2110 0.984 . S
N2105 H2111 0.985 . S
C2106 C2100 1.379 . S
C2106 C2103 1.363 . S
C2106 N2104 1.356 . S
C2107 C2101 1.363 . S
C2107 C2102 1.379 . S
C2107 N2105 1.356 . S
N2108 C2100 1.356 . S
N2108 H2114 0.984 . S
N2108 H2115 0.984 . S
N2109 C2102 1.356 . S
N2109 H2112 0.984 . S
N2109 H2113 0.985 . S
H2110 N2105 0.984 . S
H2111 N2105 0.985 . S
H2112 N2109 0.984 . S
H2113 N2109 0.985 . S
H2114 N2108 0.984 . S
H2115 N2108 0.984 . S
H2116 N2104 0.984 . S
H2117 N2104 0.985 . S
C2118 C2119 1.363 . S
C2118 C2124 1.379 . S
C2118 N2126 1.356 . S
C2119 C2118 1.363 . S
C2119 C2125 1.363 . S
C2120 C2121 1.363 . S
C2120 C2125 1.379 . S
C2120 N2127 1.356 . S
C2121 C2120 1.363 . S
C2121 C2124 1.363 . S
N2122 C2124 1.356 . S
N2122 H2134 0.984 . S
N2122 H2135 0.985 . S
N2123 C2125 1.356 . S
N2123 H2128 0.984 . S
N2123 H2129 0.985 . S
C2124 C2118 1.379 . S
C2124 C2121 1.363 . S
C2124 N2122 1.356 . S
C2125 C2119 1.363 . S
C2125 C2120 1.379 . S
C2125 N2123 1.356 . S
N2126 C2118 1.356 . S
N2126 H2132 0.984 . S
N2126 H2133 0.984 . S
N2127 C2120 1.356 . S
N2127 H2130 0.984 . S
N2127 H2131 0.985 . S
H2128 N2123 0.984 . S
H2129 N2123 0.985 . S
H2130 N2127 0.984 . S
H2131 N2127 0.985 . S
H2132 N2126 0.984 . S
H2133 N2126 0.984 . S
H2134 N2122 0.984 . S
H2135 N2122 0.985 . S
C2136 C2137 1.363 . S
C2136 C2142 1.379 . S
C2136 N2144 1.356 . S
C2137 C2136 1.363 . S
C2137 C2143 1.363 . S
C2138 C2139 1.363 . S
C2138 C2143 1.379 . S
C2138 N2145 1.356 . S
C2139 C2138 1.363 . S
C2139 C2142 1.363 . S
N2140 C2142 1.356 . S
N2140 H2152 0.984 . S
N2140 H2153 0.985 . S
N2141 C2143 1.356 . S
N2141 H2146 0.984 . S
N2141 H2147 0.985 . S
C2142 C2136 1.379 . S
C2142 C2139 1.363 . S
C2142 N2140 1.356 . S
C2143 C2137 1.363 . S
C2143 C2138 1.379 . S
C2143 N2141 1.356 . S
N2144 C2136 1.356 . S
N2144 H2150 0.984 . S
N2144 H2151 0.984 . S
N2145 C2138 1.356 . S
N2145 H2148 0.984 . S
N2145 H2149 0.985 . S
H2146 N2141 0.984 . S
H2147 N2141 0.985 . S
H2148 N2145 0.984 . S
H2149 N2145 0.985 . S
H2150 N2144 0.984 . S
H2151 N2144 0.984 . S
H2152 N2140 0.984 . S
H2153 N2140 0.985 . S
C2154 C2155 1.363 . S
C2154 C2160 1.379 . S
C2154 N2162 1.356 . S
C2155 C2154 1.363 . S
C2155 C2161 1.363 . S
C2156 C2157 1.363 . S
C2156 C2161 1.379 . S
C2156 N2163 1.356 . S
C2157 C2156 1.363 . S
C2157 C2160 1.363 . S
N2158 C2160 1.356 . S
N2158 H2170 0.984 . S
N2158 H2171 0.985 . S
N2159 C2161 1.356 . S
N2159 H2164 0.984 . S
N2159 H2165 0.985 . S
C2160 C2154 1.379 . S
C2160 C2157 1.363 . S
C2160 N2158 1.356 . S
C2161 C2155 1.363 . S
C2161 C2156 1.379 . S
C2161 N2159 1.356 . S
N2162 C2154 1.356 . S
N2162 H2168 0.984 . S
N2162 H2169 0.984 . S
N2163 C2156 1.356 . S
N2163 H2166 0.984 . S
N2163 H2167 0.985 . S
H2164 N2159 0.984 . S
H2165 N2159 0.985 . S
H2166 N2163 0.984 . S
H2167 N2163 0.985 . S
H2168 N2162 0.984 . S
H2169 N2162 0.984 . S
H2170 N2158 0.984 . S
H2171 N2158 0.985 . S
C2172 C2173 1.363 . S
C2172 C2178 1.379 . S
C2172 N2180 1.356 . S
C2173 C2172 1.363 . S
C2173 C2179 1.363 . S
C2174 C2175 1.363 . S
C2174 C2179 1.379 . S
C2174 N2181 1.356 . S
C2175 C2174 1.363 . S
C2175 C2178 1.363 . S
N2176 C2178 1.356 . S
N2176 H2188 0.984 . S
N2176 H2189 0.985 . S
N2177 C2179 1.356 . S
N2177 H2182 0.984 . S
N2177 H2183 0.985 . S
C2178 C2172 1.379 . S
C2178 C2175 1.363 . S
C2178 N2176 1.356 . S
C2179 C2173 1.363 . S
C2179 C2174 1.379 . S
C2179 N2177 1.356 . S
N2180 C2172 1.356 . S
N2180 H2186 0.984 . S
N2180 H2187 0.984 . S
N2181 C2174 1.356 . S
N2181 H2184 0.984 . S
N2181 H2185 0.985 . S
H2182 N2177 0.984 . S
H2183 N2177 0.985 . S
H2184 N2181 0.984 . S
H2185 N2181 0.985 . S
H2186 N2180 0.984 . S
H2187 N2180 0.984 . S
H2188 N2176 0.984 . S
H2189 N2176 0.985 . S
C2190 C2191 1.363 . S
C2190 C2196 1.379 . S
C2190 N2198 1.356 1_655 S
C2191 C2190 1.363 . S
C2191 C2197 1.363 . S
C2192 C2193 1.363 . S
C2192 C2197 1.379 . S
C2192 N2199 1.356 . S
C2193 C2192 1.363 . S
C2193 C2196 1.363 . S
N2194 C2196 1.356 . S
N2194 H2206 0.984 . S
N2194 H2207 0.985 . S
N2195 C2197 1.356 . S
N2195 H2200 0.984 . S
N2195 H2201 0.985 . S
C2196 C2190 1.379 . S
C2196 C2193 1.363 . S
C2196 N2194 1.356 . S
C2197 C2191 1.363 . S
C2197 C2192 1.379 . S
C2197 N2195 1.356 . S
N2198 C2190 1.356 1_455 S
N2198 H2204 0.984 . S
N2198 H2205 0.984 . S
N2199 C2192 1.356 . S
N2199 H2202 0.984 . S
N2199 H2203 0.985 . S
H2200 N2195 0.984 . S
H2201 N2195 0.985 . S
H2202 N2199 0.984 . S
H2203 N2199 0.985 . S
H2204 N2198 0.984 . S
H2205 N2198 0.984 . S
H2206 N2194 0.984 . S
H2207 N2194 0.985 . S
C2208 C2209 1.363 . S
C2208 C2214 1.379 . S
C2208 N2216 1.356 . S
C2209 C2208 1.363 . S
C2209 C2215 1.363 . S
C2210 C2211 1.363 . S
C2210 C2215 1.379 . S
C2210 N2217 1.356 . S
C2211 C2210 1.363 . S
C2211 C2214 1.363 . S
N2212 C2214 1.356 . S
N2212 H2224 0.984 . S
N2212 H2225 0.985 . S
N2213 C2215 1.356 . S
N2213 H2218 0.984 . S
N2213 H2219 0.985 . S
C2214 C2208 1.379 . S
C2214 C2211 1.363 . S
C2214 N2212 1.356 . S
C2215 C2209 1.363 . S
C2215 C2210 1.379 . S
C2215 N2213 1.356 . S
N2216 C2208 1.356 . S
N2216 H2222 0.984 . S
N2216 H2223 0.984 . S
N2217 C2210 1.356 . S
N2217 H2220 0.984 . S
N2217 H2221 0.985 . S
H2218 N2213 0.984 . S
H2219 N2213 0.985 . S
H2220 N2217 0.984 . S
H2221 N2217 0.985 . S
H2222 N2216 0.984 . S
H2223 N2216 0.984 . S
H2224 N2212 0.984 . S
H2225 N2212 0.985 . S
C2226 C2227 1.363 . S
C2226 C2232 1.379 . S
C2226 N2234 1.356 . S
C2227 C2226 1.363 . S
C2227 C2233 1.363 . S
C2228 C2229 1.363 . S
C2228 C2233 1.379 . S
C2228 N2235 1.356 . S
C2229 C2228 1.363 . S
C2229 C2232 1.363 . S
N2230 C2232 1.356 . S
N2230 H2242 0.984 . S
N2230 H2243 0.985 . S
N2231 C2233 1.356 . S
N2231 H2236 0.984 . S
N2231 H2237 0.985 . S
C2232 C2226 1.379 . S
C2232 C2229 1.363 . S
C2232 N2230 1.356 . S
C2233 C2227 1.363 . S
C2233 C2228 1.379 . S
C2233 N2231 1.356 . S
N2234 C2226 1.356 . S
N2234 H2240 0.984 . S
N2234 H2241 0.984 . S
N2235 C2228 1.356 . S
N2235 H2238 0.984 . S
N2235 H2239 0.985 . S
H2236 N2231 0.984 . S
H2237 N2231 0.985 . S
H2238 N2235 0.984 . S
H2239 N2235 0.985 . S
H2240 N2234 0.984 . S
H2241 N2234 0.984 . S
H2242 N2230 0.984 . S
H2243 N2230 0.985 . S
C2244 C2245 1.363 . S
C2244 C2250 1.379 . S
C2244 N2252 1.356 . S
C2245 C2244 1.363 . S
C2245 C2251 1.363 . S
C2246 C2247 1.363 . S
C2246 C2251 1.379 . S
C2246 N2253 1.356 . S
C2247 C2246 1.363 . S
C2247 C2250 1.363 . S
N2248 C2250 1.356 . S
N2248 H2260 0.984 . S
N2248 H2261 0.985 . S
N2249 C2251 1.356 . S
N2249 H2254 0.984 . S
N2249 H2255 0.985 . S
C2250 C2244 1.379 . S
C2250 C2247 1.363 . S
C2250 N2248 1.356 . S
C2251 C2245 1.363 . S
C2251 C2246 1.379 . S
C2251 N2249 1.356 . S
N2252 C2244 1.356 . S
N2252 H2258 0.984 . S
N2252 H2259 0.984 . S
N2253 C2246 1.356 . S
N2253 H2256 0.984 . S
N2253 H2257 0.985 . S
H2254 N2249 0.984 . S
H2255 N2249 0.985 . S
H2256 N2253 0.984 . S
H2257 N2253 0.985 . S
H2258 N2252 0.984 . S
H2259 N2252 0.984 . S
H2260 N2248 0.984 . S
H2261 N2248 0.985 . S
C2262 C2263 1.363 . S
C2262 C2268 1.379 . S
C2262 N2270 1.356 . S
C2263 C2262 1.363 . S
C2263 C2269 1.363 . S
C2264 C2265 1.363 . S
C2264 C2269 1.379 . S
C2264 N2271 1.356 . S
C2265 C2264 1.363 . S
C2265 C2268 1.363 . S
N2266 C2268 1.356 . S
N2266 H2278 0.984 . S
N2266 H2279 0.985 . S
N2267 C2269 1.356 . S
N2267 H2272 0.984 . S
N2267 H2273 0.985 . S
C2268 C2262 1.379 . S
C2268 C2265 1.363 . S
C2268 N2266 1.356 . S
C2269 C2263 1.363 . S
C2269 C2264 1.379 . S
C2269 N2267 1.356 . S
N2270 C2262 1.356 . S
N2270 H2276 0.984 . S
N2270 H2277 0.984 1_655 S
N2271 C2264 1.356 . S
N2271 H2274 0.984 . S
N2271 H2275 0.985 . S
H2272 N2267 0.984 . S
H2273 N2267 0.985 . S
H2274 N2271 0.984 . S
H2275 N2271 0.985 . S
H2276 N2270 0.984 . S
H2277 N2270 0.984 1_455 S
H2278 N2266 0.984 . S
H2279 N2266 0.985 . S
C2280 C2281 1.363 . S
C2280 C2286 1.379 . S
C2280 N2288 1.356 . S
C2281 C2280 1.363 . S
C2281 C2287 1.363 . S
C2282 C2283 1.363 . S
C2282 C2287 1.379 . S
C2282 N2289 1.356 . S
C2283 C2282 1.363 . S
C2283 C2286 1.363 . S
N2284 C2286 1.356 . S
N2284 H2296 0.984 . S
N2284 H2297 0.985 . S
N2285 C2287 1.356 . S
N2285 H2290 0.984 . S
N2285 H2291 0.985 . S
C2286 C2280 1.379 . S
C2286 C2283 1.363 . S
C2286 N2284 1.356 . S
C2287 C2281 1.363 . S
C2287 C2282 1.379 . S
C2287 N2285 1.356 . S
N2288 C2280 1.356 . S
N2288 H2294 0.984 . S
N2288 H2295 0.984 . S
N2289 C2282 1.356 . S
N2289 H2292 0.984 . S
N2289 H2293 0.985 . S
H2290 N2285 0.984 . S
H2291 N2285 0.985 . S
H2292 N2289 0.984 . S
H2293 N2289 0.985 . S
H2294 N2288 0.984 . S
H2295 N2288 0.984 . S
H2296 N2284 0.984 . S
H2297 N2284 0.985 . S
C2298 C2299 1.363 . S
C2298 C2304 1.379 . S
C2298 N2306 1.356 . S
C2299 C2298 1.363 . S
C2299 C2305 1.363 . S
C2300 C2301 1.363 . S
C2300 C2305 1.379 . S
C2300 N2307 1.356 . S
C2301 C2300 1.363 . S
C2301 C2304 1.363 . S
N2302 C2304 1.356 1_455 S
N2302 H2314 0.984 . S
N2302 H2315 0.985 . S
N2303 C2305 1.356 . S
N2303 H2308 0.984 . S
N2303 H2309 0.985 . S
C2304 C2298 1.379 . S
C2304 C2301 1.363 . S
C2304 N2302 1.356 1_655 S
C2305 C2299 1.363 . S
C2305 C2300 1.379 . S
C2305 N2303 1.356 . S
N2306 C2298 1.356 . S
N2306 H2312 0.984 . S
N2306 H2313 0.984 . S
N2307 C2300 1.356 . S
N2307 H2310 0.984 . S
N2307 H2311 0.985 . S
H2308 N2303 0.984 . S
H2309 N2303 0.985 . S
H2310 N2307 0.984 . S
H2311 N2307 0.985 . S
H2312 N2306 0.984 . S
H2313 N2306 0.984 . S
H2314 N2302 0.984 . S
H2315 N2302 0.985 . S
C2316 C2317 1.363 . S
C2316 C2322 1.379 . S
C2316 N2324 1.356 . S
C2317 C2316 1.363 . S
C2317 C2323 1.363 . S
C2318 C2319 1.363 . S
C2318 C2323 1.379 . S
C2318 N2325 1.356 . S
C2319 C2318 1.363 . S
C2319 C2322 1.363 . S
N2320 C2322 1.356 . S
N2320 H2332 0.984 . S
N2320 H2333 0.985 . S
N2321 C2323 1.356 . S
N2321 H2326 0.984 . S
N2321 H2327 0.985 . S
C2322 C2316 1.379 . S
C2322 C2319 1.363 . S
C2322 N2320 1.356 . S
C2323 C2317 1.363 . S
C2323 C2318 1.379 . S
C2323 N2321 1.356 . S
N2324 C2316 1.356 . S
N2324 H2330 0.984 . S
N2324 H2331 0.984 . S
N2325 C2318 1.356 . S
N2325 H2328 0.984 . S
N2325 H2329 0.985 . S
H2326 N2321 0.984 . S
H2327 N2321 0.985 . S
H2328 N2325 0.984 . S
H2329 N2325 0.985 . S
H2330 N2324 0.984 . S
H2331 N2324 0.984 . S
H2332 N2320 0.984 . S
H2333 N2320 0.985 . S
C2334 C2335 1.363 . S
C2334 C2340 1.379 . S
C2334 N2342 1.356 . S
C2335 C2334 1.363 . S
C2335 C2341 1.363 . S
C2336 C2337 1.363 . S
C2336 C2341 1.379 . S
C2336 N2343 1.356 . S
C2337 C2336 1.363 . S
C2337 C2340 1.363 . S
N2338 C2340 1.356 . S
N2338 H2350 0.984 . S
N2338 H2351 0.985 . S
N2339 C2341 1.356 . S
N2339 H2344 0.984 . S
N2339 H2345 0.985 . S
C2340 C2334 1.379 . S
C2340 C2337 1.363 . S
C2340 N2338 1.356 . S
C2341 C2335 1.363 . S
C2341 C2336 1.379 . S
C2341 N2339 1.356 . S
N2342 C2334 1.356 . S
N2342 H2348 0.984 . S
N2342 H2349 0.984 . S
N2343 C2336 1.356 . S
N2343 H2346 0.984 . S
N2343 H2347 0.985 . S
H2344 N2339 0.984 . S
H2345 N2339 0.985 . S
H2346 N2343 0.984 . S
H2347 N2343 0.985 . S
H2348 N2342 0.984 . S
H2349 N2342 0.984 . S
H2350 N2338 0.984 . S
H2351 N2338 0.985 . S
C2352 C2353 1.363 . S
C2352 C2358 1.379 . S
C2352 N2360 1.356 . S
C2353 C2352 1.363 . S
C2353 C2359 1.363 . S
C2354 C2355 1.363 . S
C2354 C2359 1.379 . S
C2354 N2361 1.356 . S
C2355 C2354 1.363 . S
C2355 C2358 1.363 . S
N2356 C2358 1.356 . S
N2356 H2368 0.984 . S
N2356 H2369 0.985 . S
N2357 C2359 1.356 . S
N2357 H2362 0.984 . S
N2357 H2363 0.985 . S
C2358 C2352 1.379 . S
C2358 C2355 1.363 . S
C2358 N2356 1.356 . S
C2359 C2353 1.363 . S
C2359 C2354 1.379 . S
C2359 N2357 1.356 . S
N2360 C2352 1.356 . S
N2360 H2366 0.984 . S
N2360 H2367 0.984 . S
N2361 C2354 1.356 . S
N2361 H2364 0.984 . S
N2361 H2365 0.985 . S
H2362 N2357 0.984 . S
H2363 N2357 0.985 . S
H2364 N2361 0.984 . S
H2365 N2361 0.985 . S
H2366 N2360 0.984 . S
H2367 N2360 0.984 . S
H2368 N2356 0.984 . S
H2369 N2356 0.985 . S
C2370 C2371 1.363 . S
C2370 C2376 1.379 . S
C2370 N2378 1.356 . S
C2371 C2370 1.363 . S
C2371 C2377 1.363 . S
C2372 C2373 1.363 . S
C2372 C2377 1.379 . S
C2372 N2379 1.356 . S
C2373 C2372 1.363 . S
C2373 C2376 1.363 . S
N2374 C2376 1.356 . S
N2374 H2386 0.984 . S
N2374 H2387 0.985 . S
N2375 C2377 1.356 . S
N2375 H2380 0.984 . S
N2375 H2381 0.985 . S
C2376 C2370 1.379 . S
C2376 C2373 1.363 . S
C2376 N2374 1.356 . S
C2377 C2371 1.363 . S
C2377 C2372 1.379 . S
C2377 N2375 1.356 . S
N2378 C2370 1.356 . S
N2378 H2384 0.984 . S
N2378 H2385 0.984 . S
N2379 C2372 1.356 . S
N2379 H2382 0.984 . S
N2379 H2383 0.985 . S
H2380 N2375 0.984 . S
H2381 N2375 0.985 . S
H2382 N2379 0.984 . S
H2383 N2379 0.985 . S
H2384 N2378 0.984 . S
H2385 N2378 0.984 . S
H2386 N2374 0.984 . S
H2387 N2374 0.985 . S
C2388 C2389 1.363 . S
C2388 C2394 1.379 . S
C2388 N2396 1.356 . S
C2389 C2388 1.363 . S
C2389 C2395 1.363 . S
C2390 C2391 1.363 . S
C2390 C2395 1.379 . S
C2390 N2397 1.356 . S
C2391 C2390 1.363 . S
C2391 C2394 1.363 . S
N2392 C2394 1.356 . S
N2392 H2404 0.984 . S
N2392 H2405 0.985 . S
N2393 C2395 1.356 . S
N2393 H2398 0.984 . S
N2393 H2399 0.985 . S
C2394 C2388 1.379 . S
C2394 C2391 1.363 . S
C2394 N2392 1.356 . S
C2395 C2389 1.363 . S
C2395 C2390 1.379 . S
C2395 N2393 1.356 . S
N2396 C2388 1.356 . S
N2396 H2402 0.984 . S
N2396 H2403 0.984 . S
N2397 C2390 1.356 . S
N2397 H2400 0.984 . S
N2397 H2401 0.985 . S
H2398 N2393 0.984 . S
H2399 N2393 0.985 . S
H2400 N2397 0.984 . S
H2401 N2397 0.985 . S
H2402 N2396 0.984 . S
H2403 N2396 0.984 . S
H2404 N2392 0.984 . S
H2405 N2392 0.985 . S
C2406 C2407 1.363 . S
C2406 C2412 1.379 . S
C2406 N2414 1.356 . S
C2407 C2406 1.363 . S
C2407 C2413 1.363 . S
C2408 C2409 1.363 . S
C2408 C2413 1.379 . S
C2408 N2415 1.356 1_455 S
C2409 C2408 1.363 . S
C2409 C2412 1.363 . S
N2410 C2412 1.356 . S
N2410 H2422 0.984 . S
N2410 H2423 0.985 . S
N2411 C2413 1.356 . S
N2411 H2416 0.984 . S
N2411 H2417 0.985 . S
C2412 C2406 1.379 . S
C2412 C2409 1.363 . S
C2412 N2410 1.356 . S
C2413 C2407 1.363 . S
C2413 C2408 1.379 . S
C2413 N2411 1.356 . S
N2414 C2406 1.356 . S
N2414 H2420 0.984 . S
N2414 H2421 0.984 . S
N2415 C2408 1.356 1_655 S
N2415 H2418 0.984 . S
N2415 H2419 0.985 . S
H2416 N2411 0.984 . S
H2417 N2411 0.985 . S
H2418 N2415 0.984 . S
H2419 N2415 0.985 . S
H2420 N2414 0.984 . S
H2421 N2414 0.984 . S
H2422 N2410 0.984 . S
H2423 N2410 0.985 . S
C2424 C2425 1.363 . S
C2424 C2430 1.379 . S
C2424 N2432 1.356 . S
C2425 C2424 1.363 . S
C2425 C2431 1.363 . S
C2426 C2427 1.363 . S
C2426 C2431 1.379 . S
C2426 N2433 1.356 . S
C2427 C2426 1.363 . S
C2427 C2430 1.363 . S
N2428 C2430 1.356 . S
N2428 H2440 0.984 . S
N2428 H2441 0.985 . S
N2429 C2431 1.356 . S
N2429 H2434 0.984 . S
N2429 H2435 0.985 . S
C2430 C2424 1.379 . S
C2430 C2427 1.363 . S
C2430 N2428 1.356 . S
C2431 C2425 1.363 . S
C2431 C2426 1.379 . S
C2431 N2429 1.356 . S
N2432 C2424 1.356 . S
N2432 H2438 0.984 . S
N2432 H2439 0.984 . S
N2433 C2426 1.356 . S
N2433 H2436 0.984 . S
N2433 H2437 0.985 . S
H2434 N2429 0.984 . S
H2435 N2429 0.985 . S
H2436 N2433 0.984 . S
H2437 N2433 0.985 . S
H2438 N2432 0.984 . S
H2439 N2432 0.984 . S
H2440 N2428 0.984 . S
H2441 N2428 0.985 . S
C2442 C2443 1.363 . S
C2442 C2448 1.379 . S
C2442 N2450 1.356 1_455 S
C2443 C2442 1.363 . S
C2443 C2449 1.363 . S
C2444 C2445 1.363 . S
C2444 C2449 1.379 . S
C2444 N2451 1.356 . S
C2445 C2444 1.363 . S
C2445 C2448 1.363 . S
N2446 C2448 1.356 . S
N2446 H2458 0.984 . S
N2446 H2459 0.985 . S
N2447 C2449 1.356 . S
N2447 H2452 0.984 . S
N2447 H2453 0.985 . S
C2448 C2442 1.379 . S
C2448 C2445 1.363 . S
C2448 N2446 1.356 . S
C2449 C2443 1.363 . S
C2449 C2444 1.379 . S
C2449 N2447 1.356 . S
N2450 C2442 1.356 1_655 S
N2450 H2456 0.984 . S
N2450 H2457 0.984 . S
N2451 C2444 1.356 . S
N2451 H2454 0.984 . S
N2451 H2455 0.985 . S
H2452 N2447 0.984 . S
H2453 N2447 0.985 . S
H2454 N2451 0.984 . S
H2455 N2451 0.985 . S
H2456 N2450 0.984 . S
H2457 N2450 0.984 . S
H2458 N2446 0.984 . S
H2459 N2446 0.985 . S
C2460 C2461 1.363 . S
C2460 C2466 1.379 . S
C2460 N2468 1.356 . S
C2461 C2460 1.363 . S
C2461 C2467 1.363 . S
C2462 C2463 1.363 . S
C2462 C2467 1.379 . S
C2462 N2469 1.356 . S
C2463 C2462 1.363 . S
C2463 C2466 1.363 . S
N2464 C2466 1.356 . S
N2464 H2476 0.984 . S
N2464 H2477 0.985 . S
N2465 C2467 1.356 . S
N2465 H2470 0.984 . S
N2465 H2471 0.985 . S
C2466 C2460 1.379 . S
C2466 C2463 1.363 . S
C2466 N2464 1.356 . S
C2467 C2461 1.363 . S
C2467 C2462 1.379 . S
C2467 N2465 1.356 . S
N2468 C2460 1.356 . S
N2468 H2474 0.984 . S
N2468 H2475 0.984 . S
N2469 C2462 1.356 . S
N2469 H2472 0.984 . S
N2469 H2473 0.985 . S
H2470 N2465 0.984 . S
H2471 N2465 0.985 . S
H2472 N2469 0.984 . S
H2473 N2469 0.985 . S
H2474 N2468 0.984 . S
H2475 N2468 0.984 . S
H2476 N2464 0.984 . S
H2477 N2464 0.985 . S
C2478 C2479 1.363 . S
C2478 C2484 1.379 . S
C2478 N2486 1.356 . S
C2479 C2478 1.363 . S
C2479 C2485 1.363 . S
C2480 C2481 1.363 . S
C2480 C2485 1.379 . S
C2480 N2487 1.356 . S
C2481 C2480 1.363 . S
C2481 C2484 1.363 . S
N2482 C2484 1.356 . S
N2482 H2494 0.984 . S
N2482 H2495 0.985 . S
N2483 C2485 1.356 . S
N2483 H2488 0.984 . S
N2483 H2489 0.985 . S
C2484 C2478 1.379 . S
C2484 C2481 1.363 . S
C2484 N2482 1.356 . S
C2485 C2479 1.363 . S
C2485 C2480 1.379 . S
C2485 N2483 1.356 . S
N2486 C2478 1.356 . S
N2486 H2492 0.984 . S
N2486 H2493 0.984 . S
N2487 C2480 1.356 . S
N2487 H2490 0.984 . S
N2487 H2491 0.985 . S
H2488 N2483 0.984 . S
H2489 N2483 0.985 . S
H2490 N2487 0.984 . S
H2491 N2487 0.985 . S
H2492 N2486 0.984 . S
H2493 N2486 0.984 . S
H2494 N2482 0.984 . S
H2495 N2482 0.985 . S
C1057 N244 1.787 . S
C1059 N13 1.786 . S
C1075 N46 1.787 . S
C1077 N145 1.787 . S
C1093 N79 1.787 . S
C1095 N178 1.787 . S
C1111 N211 1.786 . S
C1113 N112 1.787 . S
C1129 N508 1.787 . S
C1131 N277 1.786 . S
C1147 N409 1.787 . S
C1149 N310 1.787 . S
C1165 N343 1.787 . S
C1167 N442 1.787 . S
C1183 N376 1.787 . S
C1185 N475 1.786 . S
C1201 N772 1.787 . S
C1203 N541 1.787 . S
C1219 N574 1.787 . S
C1221 N673 1.787 . S
C1237 N607 1.787 . S
C1239 N706 1.787 . S
C1255 N739 1.787 . S
C1257 N640 1.787 . S
C1273 N1036 1.787 . S
C1275 N805 1.787 . S
C1291 N838 1.787 . S
C1293 N937 1.787 . S
C1309 N970 1.787 . S
C1311 N871 1.787 . S
C1327 N1003 1.787 . S
C1329 N904 1.787 . S
C1345 C150 1.085 . S
C1347 C18 1.085 . S
C1363 C51 1.085 . S
C1365 C183 1.085 . S
C1381 C216 1.085 . S
C1383 C84 1.085 . S
C1399 C117 1.084 . S
C1401 C249 1.084 . S
C1417 C414 1.085 . S
C1419 C282 1.085 . S
C1435 C315 1.085 . S
C1437 C447 1.085 . S
C1453 C348 1.085 . S
C1455 C480 1.085 . S
C1471 C513 1.084 . S
C1473 C381 1.084 . S
C1489 C678 1.085 . S
C1491 C546 1.085 . S
C1507 C711 1.084 . S
C1509 C579 1.084 . S
C1525 C744 1.085 . S
C1527 C612 1.085 . S
C1543 C777 1.085 . S
C1545 C645 1.085 . S
C1561 C942 1.085 . S
C1563 C810 1.085 . S
C1579 C843 1.084 . S
C1581 C975 1.084 . S
C1597 C1008 1.085 . S
C1599 C876 1.085 . S
C1615 C1041 1.085 . S
C1617 C909 1.085 . S
C1633 C601 1.409 . S
C1635 C7 1.409 . S
C1651 C40 1.409 . S
C1653 C634 1.409 . S
C1669 C73 1.409 . S
C1671 C535 1.409 . S
C1687 C106 1.409 . S
C1689 C568 1.409 . S
C1705 C733 1.409 . S
C1707 C139 1.409 . S
C1723 C766 1.409 . S
C1725 C172 1.409 . S
C1741 C205 1.409 . S
C1743 C667 1.409 . S
C1759 C238 1.409 . S
C1761 C700 1.409 . S
C1777 C271 1.409 . S
C1779 C865 1.409 . S
C1795 C304 1.409 . S
C1797 C898 1.409 . S
C1813 C799 1.409 . S
C1815 C337 1.409 . S
C1831 C370 1.409 . S
C1833 C832 1.409 . S
C1849 C403 1.409 . S
C1851 C997 1.409 . S
C1867 C1030 1.409 . S
C1869 C436 1.409 . S
C1885 C469 1.409 . S
C1887 C931 1.409 . S
C1903 C964 1.409 . S
C1905 C502 1.409 . S
C1921 N893 1.100 . S
C1923 C21 0.988 . S
C1939 C54 0.988 . S
C1941 N266 1.100 . S
C1957 C87 0.987 . S
C1959 N827 1.099 . S
C1975 N332 1.099 . S
C1977 C120 0.987 . S
C1993 N959 1.099 . S
C1995 C153 0.987 . S
C2011 C186 0.988 . S
C2013 N464 1.100 . S
C2029 N1025 1.100 . S
C2031 C219 0.988 . S
C2047 N398 1.099 . S
C2049 C252 0.987 . S
C2065 C285 0.988 . S
C2067 N629 1.100 . S
C2083 C318 0.988 . S
C2085 N2 1.100 . S
C2101 N563 1.099 . S
C2103 C351 0.987 . S
C2119 C384 0.987 . S
C2121 N68 1.099 . S
C2137 C417 0.987 . S
C2139 N695 1.099 . S
C2155 C450 0.988 . S
C2157 N200 1.100 . S
C2173 C483 0.988 . S
C2175 N761 1.100 . S
C2191 N134 1.099 . S
C2193 C516 0.987 . S
C2209 C549 0.987 . S
C2211 N365 1.099 . S
C2227 N794 1.099 . S
C2229 C582 0.987 . S
C2245 N299 1.100 . S
C2247 C615 0.988 . S
C2263 N860 1.100 . S
C2265 C648 0.988 . S
C2281 C681 0.988 . S
C2283 N431 1.100 . S
C2299 C714 0.987 . S
C2301 N992 1.099 . S
C2317 N497 1.099 . S
C2319 C747 0.987 . S
C2335 C780 0.988 . S
C2337 N926 1.100 . S
C2353 C813 0.987 . S
C2355 N101 1.099 . S
C2371 N530 1.099 . S
C2373 C846 0.987 . S
C2389 C879 0.988 . S
C2391 N35 1.100 . S
C2407 C912 0.988 . S
C2409 N596 1.100 . S
C2425 C945 0.988 . S
C2427 N167 1.100 . S
C2443 N728 1.099 . S
C2445 C978 0.987 . S
C2461 C1011 0.987 . S
C2463 N233 1.099 . S
C2479 C1044 0.988 . S
C2481 N662 1.100 . S
