# Generated by pormake.
# Topology upa, (4)-cn, num edge types: 1
# Building blocks:
#     Node 0, Type 0, BuildingBlock: UXUYUI_clean_sbu_0, # of connection points: 4
#     Node 1, Type 0, BuildingBlock: UXUYUI_clean_sbu_0, # of connection points: 4
#     Node 2, Type 0, BuildingBlock: UXUYUI_clean_sbu_0, # of connection points: 4
#     Node 3, Type 0, BuildingBlock: UXUYUI_clean_sbu_0, # of connection points: 4
#     Node 4, Type 0, BuildingBlock: UXUYUI_clean_sbu_0, # of connection points: 4
#     Node 5, Type 0, BuildingBlock: UXUYUI_clean_sbu_0, # of connection points: 4
#     Node 6, Type 0, BuildingBlock: UXUYUI_clean_sbu_0, # of connection points: 4
#     Node 7, Type 0, BuildingBlock: UXUYUI_clean_sbu_0, # of connection points: 4
#     Edge 8, Type (0, 0), BuildingBlock: MIFKUJ_clean_linker_0, # of connection points: 2
#     Edge 9, Type (0, 0), BuildingBlock: MIFKUJ_clean_linker_0, # of connection points: 2
#     Edge 10, Type (0, 0), BuildingBlock: MIFKUJ_clean_linker_0, # of connection points: 2
#     Edge 11, Type (0, 0), BuildingBlock: MIFKUJ_clean_linker_0, # of connection points: 2
#     Edge 12, Type (0, 0), BuildingBlock: MIFKUJ_clean_linker_0, # of connection points: 2
#     Edge 13, Type (0, 0), BuildingBlock: MIFKUJ_clean_linker_0, # of connection points: 2
#     Edge 14, Type (0, 0), BuildingBlock: MIFKUJ_clean_linker_0, # of connection points: 2
#     Edge 15, Type (0, 0), BuildingBlock: MIFKUJ_clean_linker_0, # of connection points: 2
#     Edge 16, Type (0, 0), BuildingBlock: MIFKUJ_clean_linker_0, # of connection points: 2
#     Edge 17, Type (0, 0), BuildingBlock: MIFKUJ_clean_linker_0, # of connection points: 2
#     Edge 18, Type (0, 0), BuildingBlock: MIFKUJ_clean_linker_0, # of connection points: 2
#     Edge 19, Type (0, 0), BuildingBlock: MIFKUJ_clean_linker_0, # of connection points: 2
#     Edge 20, Type (0, 0), BuildingBlock: MIFKUJ_clean_linker_0, # of connection points: 2
#     Edge 21, Type (0, 0), BuildingBlock: MIFKUJ_clean_linker_0, # of connection points: 2
#     Edge 22, Type (0, 0), BuildingBlock: MIFKUJ_clean_linker_0, # of connection points: 2
#     Edge 23, Type (0, 0), BuildingBlock: MIFKUJ_clean_linker_0, # of connection points: 2
# Relax obj value: 0.344
# Max RMSD: 0.248
# Mean RMSD: 0.248
data_MOF--net-upa--node1-UXUYUI_clean_sbu_0--edge1-MIFKUJ_clean_linker_0
_symmetry_space_group_name_H-M    P1
_symmetry_Int_Tables_number       1
_symmetry_cell_setting            triclinic
loop_
_symmetry_equiv_pos_as_xyz
'x, y, z'
_cell_length_a     46.255925
_cell_length_b     45.992036
_cell_length_c     76.087993
_cell_angle_alpha  89.998861
_cell_angle_beta   90.003068
_cell_angle_gamma 90.003566
loop_
_atom_site_label
_atom_site_type_symbol
_atom_site_fract_x
_atom_site_fract_y
_atom_site_fract_z
_atom_type_partial_charge
Li0 Li 0.13014 0.25369 0.32515 0.0
Li1 Li 0.16319 0.24353 0.34867 0.0
Li2 Li 0.1795 0.24159 0.31681 0.0
Li3 Li 0.14534 0.20446 0.32996 0.0
C4 C 0.15748 0.30341 0.32739 0.0
N5 N 0.13924 0.35921 0.31993 0.0
C6 C 0.13815 0.3175 0.33864 0.0
C7 C 0.1677 0.31768 0.31242 0.0
C8 C 0.1291 0.3457 0.3346 0.0
C9 C 0.15821 0.34592 0.30887 0.0
C10 C 0.11242 0.22877 0.36251 0.0
C11 C 0.10855 0.20569 0.39088 0.0
N12 N 0.09102 0.22759 0.39641 0.0
C13 C 0.09422 0.25097 0.36844 0.0
C14 C 0.11948 0.20583 0.37377 0.0
C15 C 0.08365 0.25 0.38563 0.0
C16 C 0.07085 0.25761 0.32361 0.0
N17 N 0.0946 0.27207 0.31774 0.0
C18 C 0.06523 0.30004 0.29806 0.0
C19 C 0.09225 0.29332 0.30536 0.0
C20 C 0.04052 0.28468 0.30356 0.0
C21 C 0.04361 0.26368 0.31679 0.0
H22 H 0.0732 0.23983 0.33275 0.0
H23 H 0.11142 0.30375 0.3003 0.0
C24 C 0.19932 0.2356 0.37796 0.0
N25 N 0.17598 0.25089 0.37223 0.0
C26 C 0.20703 0.236 0.39569 0.0
C27 C 0.16728 0.26882 0.40125 0.0
C28 C 0.16074 0.26831 0.38331 0.0
C29 C 0.19033 0.25203 0.40764 0.0
H30 H 0.21138 0.22226 0.36887 0.0
H31 H 0.14277 0.28088 0.3784 0.0
C32 C 0.12509 0.2291 0.29363 0.0
N33 N 0.08577 0.23924 0.267 0.0
C34 C 0.09917 0.21351 0.29303 0.0
C35 C 0.13116 0.24964 0.28061 0.0
C36 C 0.0795 0.21905 0.2795 0.0
C37 C 0.11099 0.25445 0.26725 0.0
C38 C 0.19871 0.186 0.33714 0.0
C39 C 0.21587 0.17618 0.32323 0.0
C40 C 0.19422 0.16804 0.35171 0.0
C41 C 0.22808 0.14843 0.32407 0.0
C42 C 0.20675 0.14041 0.35204 0.0
N43 N 0.22327 0.13125 0.33833 0.0
C44 C 0.2362 0.25818 0.30912 0.0
C45 C 0.21229 0.23504 0.28537 0.0
C46 C 0.26217 0.2585 0.29976 0.0
N47 N 0.2121 0.24623 0.30191 0.0
C48 C 0.2378 0.23502 0.2755 0.0
C49 C 0.26334 0.24636 0.28282 0.0
H50 H 0.23544 0.26659 0.32239 0.0
H51 H 0.19296 0.22505 0.28013 0.0
C52 C 0.10396 0.16298 0.33611 0.0
N53 N 0.13059 0.16598 0.32883 0.0
C54 C 0.08913 0.13683 0.33486 0.0
C55 C 0.12913 0.11699 0.3183 0.0
C56 C 0.14329 0.14377 0.31989 0.0
C57 C 0.10161 0.11336 0.32585 0.0
H58 H 0.09365 0.18129 0.34238 0.0
H59 H 0.16397 0.14702 0.3136 0.0
O60 O 0.16666 0.27588 0.33112 0.0
O61 O 0.12321 0.22945 0.34575 0.0
O62 O 0.14417 0.22468 0.30709 0.0
O63 O 0.18652 0.21309 0.33656 0.0
H64 H 0.13006 0.30668 0.35027 0.0
H65 H 0.18273 0.30701 0.30362 0.0
H66 H 0.11402 0.35685 0.34312 0.0
H67 H 0.16586 0.35724 0.29731 0.0
H68 H 0.11399 0.18815 0.39976 0.0
H69 H 0.08864 0.26899 0.35995 0.0
H70 H 0.13328 0.18835 0.36934 0.0
H71 H 0.06971 0.26712 0.39043 0.0
H72 H 0.06385 0.31632 0.28782 0.0
H73 H 0.02543 0.25065 0.3211 0.0
H74 H 0.22496 0.22277 0.40015 0.0
H75 H 0.15413 0.28171 0.41009 0.0
H76 H 0.0941 0.19762 0.30306 0.0
H77 H 0.15102 0.26208 0.28099 0.0
H78 H 0.05921 0.20738 0.27897 0.0
H79 H 0.11528 0.27044 0.25716 0.0
H80 H 0.21964 0.18973 0.31186 0.0
H81 H 0.18124 0.17536 0.36266 0.0
H82 H 0.24132 0.14053 0.31338 0.0
H83 H 0.20336 0.12626 0.36321 0.0
H84 H 0.28125 0.26775 0.30583 0.0
H85 H 0.2378 0.2251 0.26259 0.0
H86 H 0.06758 0.13539 0.34036 0.0
H87 H 0.13941 0.09948 0.31114 0.0
Li88 Li 0.26038 0.6921 0.81939 0.0
Li89 Li 0.26264 0.66927 0.84818 0.0
Li90 Li 0.3002 0.65949 0.82728 0.0
Li91 Li 0.25245 0.63837 0.82351 0.0
C92 C 0.3127 0.71063 0.84584 0.0
N93 N 0.35879 0.73763 0.86225 0.0
C94 C 0.32242 0.70077 0.86218 0.0
C95 C 0.32623 0.73449 0.83796 0.0
C96 C 0.34581 0.71462 0.87023 0.0
C97 C 0.34955 0.74777 0.84643 0.0
C98 C 0.20753 0.67592 0.84415 0.0
C99 C 0.17667 0.65787 0.86722 0.0
N100 N 0.16686 0.68536 0.87009 0.0
C101 C 0.19708 0.70396 0.84724 0.0
C102 C 0.19718 0.65263 0.85413 0.0
C103 C 0.17653 0.70829 0.86044 0.0
C104 C 0.24332 0.72504 0.78939 0.0
N105 N 0.25109 0.72641 0.80661 0.0
C106 C 0.25379 0.77823 0.80531 0.0
C107 C 0.25566 0.75228 0.81476 0.0
C108 C 0.24731 0.77747 0.78728 0.0
C109 C 0.24147 0.75046 0.77939 0.0
H110 H 0.23979 0.70414 0.78325 0.0
H111 H 0.26192 0.75265 0.82846 0.0
C112 C 0.25929 0.65369 0.88401 0.0
N113 N 0.25579 0.67608 0.87257 0.0
C114 C 0.25865 0.65867 0.9021 0.0
C115 C 0.24913 0.70943 0.89632 0.0
C116 C 0.25049 0.70354 0.87832 0.0
C117 C 0.25395 0.68697 0.90856 0.0
H118 H 0.26366 0.63213 0.87906 0.0
H119 H 0.24813 0.72101 0.86892 0.0
C120 C 0.29096 0.66919 0.79097 0.0
N121 N 0.31961 0.69053 0.76182 0.0
C122 C 0.28865 0.65493 0.77481 0.0
C123 C 0.30798 0.6942 0.79231 0.0
C124 C 0.3033 0.66606 0.76023 0.0
C125 C 0.32222 0.7047 0.77743 0.0
C126 C 0.29291 0.60455 0.84071 0.0
C127 C 0.29941 0.59424 0.82385 0.0
C128 C 0.3005 0.58785 0.85536 0.0
C129 C 0.31312 0.56737 0.82195 0.0
C130 C 0.31423 0.56109 0.8529 0.0
N131 N 0.32019 0.55149 0.8364 0.0
C132 C 0.35327 0.64241 0.84095 0.0
C133 C 0.35228 0.64074 0.80984 0.0
C134 C 0.3787 0.62619 0.84129 0.0
N135 N 0.34018 0.64876 0.82541 0.0
C136 C 0.3777 0.62441 0.80958 0.0
C137 C 0.39056 0.61596 0.82549 0.0
H138 H 0.34262 0.64753 0.85317 0.0
H139 H 0.34117 0.64458 0.79764 0.0
C140 C 0.22941 0.60186 0.79736 0.0
N141 N 0.2337 0.60426 0.81496 0.0
C142 C 0.22329 0.5748 0.78989 0.0
C143 C 0.22441 0.55359 0.81896 0.0
C144 C 0.23013 0.58113 0.82588 0.0
C145 C 0.2219 0.55006 0.80068 0.0
H146 H 0.23251 0.62061 0.78901 0.0
H147 H 0.23382 0.58363 0.83983 0.0
O148 O 0.28956 0.69765 0.8378 0.0
O149 O 0.22814 0.67134 0.8316 0.0
O150 O 0.27647 0.65874 0.80533 0.0
O151 O 0.28034 0.6313 0.843 0.0
H152 H 0.31228 0.68239 0.86853 0.0
H153 H 0.31875 0.74283 0.82547 0.0
H154 H 0.35364 0.70705 0.88282 0.0
H155 H 0.36024 0.7662 0.84045 0.0
H156 H 0.16859 0.6401 0.87514 0.0
H157 H 0.20499 0.72219 0.83963 0.0
H158 H 0.2052 0.63082 0.85191 0.0
H159 H 0.16834 0.72989 0.86306 0.0
H160 H 0.25873 0.79853 0.81187 0.0
H161 H 0.23611 0.74897 0.76556 0.0
H162 H 0.26298 0.64065 0.91086 0.0
H163 H 0.24484 0.73148 0.90054 0.0
H164 H 0.27577 0.63542 0.77353 0.0
H165 H 0.31015 0.70536 0.80471 0.0
H166 H 0.30169 0.65525 0.74764 0.0
H167 H 0.33537 0.7241 0.77829 0.0
H168 H 0.29414 0.60687 0.81232 0.0
H169 H 0.2961 0.59557 0.86851 0.0
H170 H 0.31823 0.5592 0.80899 0.0
H171 H 0.32024 0.54801 0.86414 0.0
H172 H 0.38799 0.62025 0.85385 0.0
H173 H 0.38579 0.61654 0.7971 0.0
H174 H 0.22164 0.57297 0.77573 0.0
H175 H 0.2232 0.53507 0.82772 0.0
Li176 Li 0.86791 0.75213 0.32452 0.0
Li177 Li 0.83302 0.762 0.34712 0.0
Li178 Li 0.81791 0.76067 0.3151 0.0
Li179 Li 0.8491 0.80001 0.32773 0.0
C180 C 0.84191 0.7008 0.32683 0.0
N181 N 0.86056 0.64499 0.31977 0.0
C182 C 0.8605 0.68666 0.33851 0.0
C183 C 0.8326 0.68654 0.31163 0.0
C184 C 0.86977 0.65846 0.33467 0.0
C185 C 0.8423 0.6583 0.30829 0.0
C186 C 0.88309 0.77424 0.3614 0.0
C187 C 0.88609 0.78851 0.39189 0.0
N188 N 0.90426 0.76586 0.39503 0.0
C189 C 0.90166 0.75097 0.365 0.0
C190 C 0.87515 0.7931 0.37501 0.0
C191 C 0.9122 0.74718 0.38205 0.0
C192 C 0.92718 0.75336 0.3222 0.0
N193 N 0.90475 0.73575 0.31769 0.0
C194 C 0.93644 0.7064 0.30019 0.0
C195 C 0.90889 0.71243 0.30696 0.0
C196 C 0.95984 0.72465 0.30445 0.0
C197 C 0.95491 0.74811 0.31585 0.0
H198 H 0.92327 0.77255 0.33003 0.0
H199 H 0.89071 0.69942 0.30283 0.0
C200 C 0.79626 0.77126 0.37584 0.0
N201 N 0.81908 0.7549 0.3705 0.0
C202 C 0.78775 0.77127 0.39342 0.0
C203 C 0.82526 0.73622 0.39961 0.0
C204 C 0.83278 0.73657 0.3818 0.0
C205 C 0.80298 0.75443 0.40574 0.0
H206 H 0.78514 0.78503 0.36656 0.0
H207 H 0.85054 0.72336 0.3772 0.0
C208 C 0.8707 0.77248 0.29178 0.0
N209 N 0.90816 0.7592 0.26469 0.0
C210 C 0.89589 0.78878 0.28939 0.0
C211 C 0.86439 0.74961 0.28032 0.0
C212 C 0.91462 0.78165 0.27565 0.0
C213 C 0.88363 0.74322 0.2667 0.0
C214 C 0.79802 0.81791 0.33344 0.0
C215 C 0.78344 0.82808 0.31857 0.0
C216 C 0.8029 0.83668 0.34759 0.0
C217 C 0.77401 0.85692 0.3181 0.0
C218 C 0.79316 0.86538 0.3466 0.0
N219 N 0.77904 0.87483 0.33199 0.0
C220 C 0.76338 0.73836 0.3064 0.0
C221 C 0.78508 0.7663 0.28378 0.0
C222 C 0.73757 0.73669 0.29692 0.0
N223 N 0.78623 0.75342 0.29984 0.0
C224 C 0.75965 0.76521 0.27386 0.0
C225 C 0.7352 0.75084 0.2806 0.0
H226 H 0.76488 0.72863 0.31931 0.0
H227 H 0.80339 0.77868 0.27908 0.0
C228 C 0.87508 0.85172 0.33863 0.0
N229 N 0.86053 0.83931 0.32509 0.0
C230 C 0.88896 0.87827 0.33638 0.0
C231 C 0.8719 0.87939 0.30634 0.0
C232 C 0.85811 0.85276 0.30925 0.0
C233 C 0.88818 0.89209 0.31992 0.0
H234 H 0.87728 0.84027 0.3509 0.0
H235 H 0.84675 0.84209 0.29862 0.0
O236 O 0.83242 0.72829 0.3304 0.0
O237 O 0.87256 0.7784 0.34474 0.0
O238 O 0.85258 0.77849 0.30551 0.0
O239 O 0.80817 0.78998 0.33395 0.0
H240 H 0.86778 0.6974 0.35035 0.0
H241 H 0.81811 0.69719 0.30251 0.0
H242 H 0.88429 0.64728 0.34354 0.0
H243 H 0.83536 0.647 0.29656 0.0
H244 H 0.87994 0.80284 0.40254 0.0
H245 H 0.90764 0.73573 0.35483 0.0
H246 H 0.86014 0.81069 0.37269 0.0
H247 H 0.92655 0.72926 0.38499 0.0
H248 H 0.93923 0.68815 0.29137 0.0
H249 H 0.97199 0.76328 0.31911 0.0
H250 H 0.7698 0.78491 0.39736 0.0
H251 H 0.8377 0.72286 0.40855 0.0
H252 H 0.90114 0.80645 0.29824 0.0
H253 H 0.84505 0.73668 0.28207 0.0
H254 H 0.93435 0.79388 0.27374 0.0
H255 H 0.87915 0.72545 0.25779 0.0
H256 H 0.77959 0.81394 0.30748 0.0
H257 H 0.81445 0.82928 0.35911 0.0
H258 H 0.76275 0.8651 0.30665 0.0
H259 H 0.79693 0.88017 0.35741 0.0
H260 H 0.71943 0.72503 0.30252 0.0
H261 H 0.75874 0.77677 0.26147 0.0
H262 H 0.90173 0.88688 0.34711 0.0
H263 H 0.87071 0.88939 0.29348 0.0
Li264 Li 0.74907 0.36465 0.82463 0.0
Li265 Li 0.69776 0.3488 0.82761 0.0
Li266 Li 0.73397 0.33007 0.84768 0.0
Li267 Li 0.73232 0.31309 0.81837 0.0
C268 C 0.71587 0.38027 0.86069 0.0
N269 N 0.70403 0.39636 0.89494 0.0
C270 C 0.68895 0.37398 0.86813 0.0
C271 C 0.73678 0.3947 0.87069 0.0
C272 C 0.68338 0.38231 0.88546 0.0
C273 C 0.73037 0.40268 0.88797 0.0
C274 C 0.70345 0.36267 0.79438 0.0
C275 C 0.65962 0.36159 0.77716 0.0
N276 N 0.66452 0.38947 0.77202 0.0
C277 C 0.70802 0.39134 0.78891 0.0
C278 C 0.67904 0.34767 0.78842 0.0
C279 C 0.68812 0.40449 0.77761 0.0
C280 C 0.78476 0.39795 0.80172 0.0
N281 N 0.76998 0.39812 0.81718 0.0
C282 C 0.77178 0.45001 0.81834 0.0
C283 C 0.76404 0.42337 0.82572 0.0
C284 C 0.78518 0.4507 0.80181 0.0
C285 C 0.79251 0.42422 0.7937 0.0
H286 H 0.78844 0.37759 0.79496 0.0
H287 H 0.7513 0.42302 0.8376 0.0
C288 C 0.63511 0.35188 0.82586 0.0
N289 N 0.66083 0.36619 0.82557 0.0
C290 C 0.60929 0.36739 0.82384 0.0
C291 C 0.6372 0.41171 0.82144 0.0
C292 C 0.66226 0.3955 0.82368 0.0
C293 C 0.61029 0.39767 0.82141 0.0
H294 H 0.63463 0.32858 0.82766 0.0
H295 H 0.68306 0.40625 0.82379 0.0
C296 C 0.79078 0.32329 0.84229 0.0
N297 N 0.83736 0.31615 0.86461 0.0
C298 C 0.7952 0.29672 0.8508 0.0
C299 C 0.81014 0.34618 0.84506 0.0
C300 C 0.81885 0.29356 0.86206 0.0
C301 C 0.83354 0.34215 0.85641 0.0
C302 C 0.69453 0.28052 0.83372 0.0
C303 C 0.70921 0.25848 0.8427 0.0
C304 C 0.67333 0.27318 0.82141 0.0
C305 C 0.7025 0.22945 0.83915 0.0
C306 C 0.66732 0.24389 0.81818 0.0
N307 N 0.68191 0.22282 0.82704 0.0
C308 C 0.71558 0.30554 0.87938 0.0
C309 C 0.76008 0.33041 0.88256 0.0
C310 C 0.71481 0.29947 0.89732 0.0
N311 N 0.7381 0.32048 0.87228 0.0
C312 C 0.76015 0.3249 0.90064 0.0
C313 C 0.73725 0.30923 0.90825 0.0
H314 H 0.69763 0.29904 0.87119 0.0
H315 H 0.77713 0.34338 0.87687 0.0
C316 C 0.724 0.27798 0.78784 0.0
N317 N 0.73789 0.27965 0.80356 0.0
C318 C 0.72406 0.25207 0.77826 0.0
C319 C 0.7541 0.23048 0.8007 0.0
C320 C 0.75353 0.25685 0.80981 0.0
C321 C 0.73866 0.22763 0.78489 0.0
H322 H 0.71205 0.29642 0.78299 0.0
H323 H 0.76454 0.25872 0.82226 0.0
O324 O 0.72205 0.37143 0.84394 0.0
O325 O 0.72235 0.34962 0.80582 0.0
O326 O 0.76796 0.3268 0.83108 0.0
O327 O 0.70131 0.30908 0.8367 0.0
H328 H 0.67268 0.36238 0.86071 0.0
H329 H 0.75797 0.39917 0.86529 0.0
H330 H 0.66269 0.37746 0.8914 0.0
H331 H 0.74641 0.4137 0.89589 0.0
H332 H 0.64054 0.35028 0.77259 0.0
H333 H 0.72646 0.40355 0.79347 0.0
H334 H 0.6747 0.32576 0.79279 0.0
H335 H 0.69138 0.42669 0.77335 0.0
H336 H 0.76527 0.46989 0.82488 0.0
H337 H 0.80282 0.42389 0.78092 0.0
H338 H 0.58886 0.35588 0.82399 0.0
H339 H 0.63885 0.43509 0.82003 0.0
H340 H 0.7803 0.27886 0.84896 0.0
H341 H 0.8071 0.36686 0.83855 0.0
H342 H 0.82242 0.27319 0.86883 0.0
H343 H 0.84865 0.35969 0.85871 0.0
H344 H 0.72601 0.26369 0.85208 0.0
H345 H 0.66187 0.28987 0.81425 0.0
H346 H 0.71384 0.2122 0.84592 0.0
H347 H 0.65112 0.23791 0.80859 0.0
H348 H 0.69631 0.28807 0.90267 0.0
H349 H 0.77783 0.33298 0.90859 0.0
H350 H 0.7118 0.25087 0.76616 0.0
H351 H 0.76608 0.21237 0.80615 0.0
Li352 Li 0.65217 0.3106 0.17573 0.0
Li353 Li 0.68168 0.26772 0.18498 0.0
Li354 Li 0.66496 0.2755 0.1536 0.0
Li355 Li 0.6308 0.26319 0.17602 0.0
C356 C 0.70407 0.32662 0.16963 0.0
N357 N 0.72719 0.38165 0.17359 0.0
C358 C 0.7196 0.33374 0.18479 0.0
C359 C 0.70034 0.3475 0.15647 0.0
C360 C 0.73112 0.36166 0.18654 0.0
C361 C 0.71217 0.3752 0.15872 0.0
C362 C 0.63059 0.27678 0.20991 0.0
C363 C 0.61835 0.24349 0.23323 0.0
N364 N 0.59404 0.25919 0.23658 0.0
C365 C 0.60559 0.29271 0.21365 0.0
C366 C 0.63711 0.25203 0.2198 0.0
C367 C 0.58733 0.2834 0.22715 0.0
C368 C 0.63382 0.3686 0.16959 0.0
N369 N 0.64392 0.34969 0.18186 0.0
C370 C 0.63219 0.38269 0.20501 0.0
C371 C 0.64432 0.35662 0.19923 0.0
C372 C 0.62014 0.40187 0.1927 0.0
C373 C 0.62205 0.39516 0.17475 0.0
H374 H 0.63345 0.36246 0.15593 0.0
H375 H 0.65244 0.34109 0.20869 0.0
C376 C 0.73643 0.24349 0.19167 0.0
N377 N 0.71367 0.25728 0.19926 0.0
C378 C 0.76272 0.24118 0.20062 0.0
C379 C 0.7412 0.26627 0.22527 0.0
C380 C 0.71532 0.26802 0.21587 0.0
C381 C 0.76563 0.25345 0.21746 0.0
H382 H 0.73458 0.23559 0.17832 0.0
H383 H 0.69712 0.27963 0.22138 0.0
C384 C 0.61544 0.29366 0.14124 0.0
N385 N 0.59341 0.29368 0.10744 0.0
C386 C 0.59581 0.27221 0.136 0.0
C387 C 0.62396 0.31501 0.12922 0.0
C388 C 0.58485 0.27266 0.11888 0.0
C389 C 0.6126 0.31465 0.11221 0.0
C390 C 0.65454 0.21141 0.17032 0.0
C391 C 0.63438 0.1999 0.15855 0.0
C392 C 0.66454 0.19446 0.1843 0.0
C393 C 0.62429 0.17157 0.16108 0.0
C394 C 0.65396 0.1662 0.18635 0.0
N395 N 0.6342 0.15545 0.17481 0.0
C396 C 0.7004 0.2866 0.12421 0.0
C397 C 0.66175 0.25444 0.1181 0.0
C398 C 0.70826 0.28713 0.10651 0.0
N399 N 0.67699 0.27112 0.12959 0.0
C400 C 0.6686 0.25461 0.1002 0.0
C401 C 0.69182 0.27161 0.09411 0.0
H402 H 0.71277 0.29898 0.13364 0.0
H403 H 0.6436 0.24179 0.1227 0.0
C404 C 0.57137 0.26537 0.17891 0.0
N405 N 0.59362 0.24688 0.18233 0.0
C406 C 0.54363 0.25948 0.18504 0.0
C407 C 0.56177 0.21551 0.19839 0.0
C408 C 0.58931 0.22217 0.19185 0.0
C409 C 0.53854 0.23449 0.19513 0.0
H410 H 0.57542 0.28558 0.17211 0.0
H411 H 0.60738 0.2084 0.19518 0.0
O412 O 0.692 0.2996 0.16787 0.0
O413 O 0.64823 0.28499 0.19636 0.0
O414 O 0.62648 0.29361 0.15797 0.0
O415 O 0.66487 0.23897 0.16802 0.0
H416 H 0.72261 0.31796 0.19514 0.0
H417 H 0.6881 0.34252 0.14474 0.0
H418 H 0.74315 0.36747 0.19822 0.0
H419 H 0.70931 0.3916 0.14868 0.0
H420 H 0.62302 0.22428 0.24093 0.0
H421 H 0.60007 0.31175 0.206 0.0
H422 H 0.65623 0.23931 0.21696 0.0
H423 H 0.56777 0.29533 0.23008 0.0
H424 H 0.63103 0.38722 0.21897 0.0
H425 H 0.61262 0.40931 0.16491 0.0
H426 H 0.78084 0.23076 0.19417 0.0
H427 H 0.74248 0.27644 0.23808 0.0
H428 H 0.58939 0.25509 0.1449 0.0
H429 H 0.63967 0.33133 0.13281 0.0
H430 H 0.5697 0.25616 0.11466 0.0
H431 H 0.61917 0.33093 0.10276 0.0
H432 H 0.62647 0.21276 0.14767 0.0
H433 H 0.68024 0.20305 0.19348 0.0
H434 H 0.60856 0.16241 0.15213 0.0
H435 H 0.66143 0.15283 0.19713 0.0
H436 H 0.72688 0.29981 0.10258 0.0
H437 H 0.65519 0.24234 0.09121 0.0
H438 H 0.52663 0.27518 0.18262 0.0
H439 H 0.55884 0.1961 0.20625 0.0
Li440 Li 0.23587 0.18929 0.67837 0.0
Li441 Li 0.23529 0.16505 0.64982 0.0
Li442 Li 0.2 0.15196 0.67119 0.0
Li443 Li 0.24988 0.13621 0.67472 0.0
C444 C 0.17956 0.19953 0.65398 0.0
N445 N 0.1264 0.21754 0.64148 0.0
C446 C 0.16955 0.18972 0.63769 0.0
C447 C 0.1627 0.21882 0.6638 0.0
C448 C 0.14257 0.19898 0.63163 0.0
C449 C 0.13584 0.22759 0.65728 0.0
C450 C 0.28992 0.17707 0.65318 0.0
C451 C 0.32124 0.16028 0.62999 0.0
N452 N 0.32943 0.18821 0.62685 0.0
C453 C 0.29872 0.20558 0.64981 0.0
C454 C 0.30133 0.15418 0.6433 0.0
C455 C 0.31871 0.21077 0.6364 0.0
C456 C 0.25099 0.22555 0.7074 0.0
N457 N 0.24205 0.22496 0.69038 0.0
C458 C 0.2349 0.27638 0.69045 0.0
C459 C 0.23461 0.24969 0.68174 0.0
C460 C 0.2427 0.27762 0.7083 0.0
C461 C 0.25138 0.25178 0.71668 0.0
H462 H 0.25664 0.20547 0.71396 0.0
H463 H 0.22763 0.24851 0.66818 0.0
C464 C 0.23696 0.1506 0.61361 0.0
N465 N 0.24027 0.17259 0.62536 0.0
C466 C 0.23622 0.15652 0.5956 0.0
C467 C 0.24379 0.2074 0.60213 0.0
C468 C 0.24383 0.20057 0.62002 0.0
C469 C 0.23929 0.18529 0.58972 0.0
H470 H 0.23384 0.12863 0.61825 0.0
H471 H 0.2457 0.21771 0.62969 0.0
C472 C 0.20944 0.15982 0.70794 0.0
N473 N 0.17952 0.16995 0.73878 0.0
C474 C 0.21078 0.13974 0.72172 0.0
C475 C 0.1927 0.18492 0.70982 0.0
C476 C 0.19552 0.14527 0.73721 0.0
C477 C 0.17781 0.18971 0.72552 0.0
C478 C 0.21338 0.0973 0.65865 0.0
C479 C 0.20716 0.08779 0.67572 0.0
C480 C 0.2096 0.07819 0.64455 0.0
C481 C 0.19751 0.05934 0.67838 0.0
C482 C 0.19986 0.04991 0.64775 0.0
N483 N 0.19408 0.04115 0.66445 0.0
C484 C 0.15009 0.12719 0.65803 0.0
C485 C 0.14821 0.13163 0.68902 0.0
C486 C 0.12624 0.10871 0.65814 0.0
N487 N 0.1612 0.13749 0.67336 0.0
C488 C 0.12429 0.11317 0.68973 0.0
C489 C 0.11381 0.10051 0.67421 0.0
H490 H 0.16122 0.13129 0.6458 0.0
H491 H 0.15739 0.13931 0.70112 0.0
C492 C 0.27666 0.10458 0.70158 0.0
N493 N 0.27212 0.10484 0.68396 0.0
C494 C 0.28323 0.07856 0.71014 0.0
C495 C 0.28298 0.05418 0.682 0.0
C496 C 0.27681 0.08079 0.67397 0.0
C497 C 0.28476 0.05256 0.70044 0.0
H498 H 0.27296 0.12412 0.70917 0.0
H499 H 0.27298 0.0816 0.65996 0.0
O500 O 0.20593 0.19072 0.66016 0.0
O501 O 0.26989 0.17159 0.66595 0.0
O502 O 0.22435 0.15476 0.69271 0.0
O503 O 0.22237 0.12529 0.65559 0.0
H504 H 0.18227 0.17484 0.62988 0.0
H505 H 0.17029 0.2271 0.67627 0.0
H506 H 0.13448 0.19137 0.61911 0.0
H507 H 0.12254 0.24244 0.66477 0.0
H508 H 0.33013 0.14283 0.62215 0.0
H509 H 0.28998 0.2235 0.65735 0.0
H510 H 0.29459 0.132 0.64575 0.0
H511 H 0.32563 0.23274 0.63355 0.0
H512 H 0.22864 0.29576 0.68333 0.0
H513 H 0.2573 0.25158 0.73045 0.0
H514 H 0.23278 0.1389 0.58639 0.0
H515 H 0.24587 0.22989 0.59808 0.0
H516 H 0.22326 0.11997 0.72044 0.0
H517 H 0.19107 0.20044 0.69923 0.0
H518 H 0.19634 0.12991 0.74796 0.0
H519 H 0.16483 0.20908 0.72715 0.0
H520 H 0.20972 0.10211 0.68684 0.0
H521 H 0.21403 0.08512 0.63123 0.0
H522 H 0.19272 0.05175 0.69152 0.0
H523 H 0.19685 0.03494 0.63694 0.0
H524 H 0.1186 0.0997 0.64583 0.0
H525 H 0.11553 0.10723 0.70243 0.0
H526 H 0.28527 0.07854 0.72431 0.0
H527 H 0.28387 0.03481 0.67394 0.0
Li528 Li 0.3194 0.73059 0.1845 0.0
Li529 Li 0.35064 0.68928 0.17461 0.0
Li530 Li 0.36943 0.73772 0.17437 0.0
Li531 Li 0.33461 0.72345 0.15288 0.0
C532 C 0.37362 0.72206 0.20809 0.0
N533 N 0.41326 0.7371 0.23369 0.0
C534 C 0.39949 0.70655 0.20972 0.0
C535 C 0.36782 0.74508 0.21954 0.0
C536 C 0.41929 0.71455 0.22272 0.0
C537 C 0.38814 0.75234 0.23241 0.0
C538 C 0.29956 0.67033 0.17023 0.0
C539 C 0.29453 0.62065 0.16053 0.0
N540 N 0.28059 0.61408 0.17576 0.0
C541 C 0.28516 0.66309 0.18578 0.0
C542 C 0.30426 0.64895 0.15748 0.0
C543 C 0.27573 0.63454 0.18832 0.0
C544 C 0.26412 0.75227 0.19156 0.0
N545 N 0.28763 0.73994 0.19924 0.0
C546 C 0.26124 0.73194 0.22582 0.0
C547 C 0.28689 0.73037 0.21614 0.0
C548 C 0.23614 0.74331 0.21796 0.0
C549 C 0.23806 0.75431 0.20075 0.0
H550 H 0.26528 0.75929 0.17801 0.0
H551 H 0.30571 0.71994 0.22174 0.0
C552 C 0.37525 0.63392 0.16866 0.0
N553 N 0.36175 0.65095 0.1807 0.0
C554 C 0.38953 0.60874 0.17398 0.0
C555 C 0.37488 0.61859 0.20391 0.0
C556 C 0.36038 0.64331 0.19795 0.0
C557 C 0.39037 0.60152 0.19189 0.0
H558 H 0.37651 0.64078 0.15514 0.0
H559 H 0.34973 0.6575 0.20725 0.0
C560 C 0.34285 0.78802 0.16978 0.0
N561 N 0.36082 0.84463 0.17495 0.0
C562 C 0.3618 0.80108 0.15786 0.0
C563 C 0.33288 0.80376 0.18428 0.0
C564 C 0.37071 0.82971 0.16073 0.0
C565 C 0.34224 0.83238 0.18666 0.0
C566 C 0.38354 0.70789 0.13913 0.0
C567 C 0.40106 0.73055 0.13303 0.0
C568 C 0.37519 0.68583 0.12753 0.0
C569 C 0.41012 0.7306 0.11551 0.0
C570 C 0.38461 0.68672 0.11009 0.0
N571 N 0.40177 0.70888 0.1045 0.0
C572 C 0.42919 0.73961 0.1752 0.0
C573 C 0.4092 0.77973 0.19046 0.0
C574 C 0.45678 0.74645 0.18122 0.0
N575 N 0.40598 0.75602 0.17992 0.0
C576 C 0.43654 0.78721 0.19698 0.0
C577 C 0.4607 0.77012 0.19259 0.0
H578 H 0.4261 0.72001 0.16762 0.0
H579 H 0.39047 0.79174 0.19477 0.0
C580 C 0.29889 0.70946 0.12406 0.0
N581 N 0.32086 0.72715 0.12918 0.0
C582 C 0.29005 0.70876 0.10653 0.0
C583 C 0.32583 0.74539 0.09989 0.0
C584 C 0.33369 0.74566 0.11763 0.0
C585 C 0.30406 0.72634 0.09403 0.0
H586 H 0.28846 0.6955 0.13355 0.0
H587 H 0.35075 0.75993 0.12205 0.0
O588 O 0.35434 0.71514 0.19511 0.0
O589 O 0.30971 0.69797 0.16772 0.0
O590 O 0.33375 0.7601 0.16717 0.0
O591 O 0.37428 0.70752 0.15624 0.0
H592 H 0.40446 0.68887 0.20083 0.0
H593 H 0.34802 0.75747 0.21834 0.0
H594 H 0.43953 0.70295 0.22402 0.0
H595 H 0.38403 0.77022 0.24129 0.0
H596 H 0.29816 0.60387 0.15081 0.0
H597 H 0.28144 0.67925 0.19582 0.0
H598 H 0.31564 0.65406 0.14546 0.0
H599 H 0.26462 0.62863 0.20031 0.0
H600 H 0.2607 0.72287 0.23895 0.0
H601 H 0.21939 0.76361 0.19426 0.0
H602 H 0.40165 0.59633 0.16437 0.0
H603 H 0.37518 0.61366 0.21783 0.0
H604 H 0.3697 0.78916 0.14658 0.0
H605 H 0.31818 0.79395 0.19361 0.0
H606 H 0.38549 0.84006 0.15166 0.0
H607 H 0.33479 0.84481 0.19784 0.0
H608 H 0.40725 0.74821 0.14161 0.0
H609 H 0.36108 0.66851 0.1318 0.0
H610 H 0.42361 0.74803 0.11064 0.0
H611 H 0.37814 0.66988 0.10098 0.0
H612 H 0.47457 0.73217 0.17789 0.0
H613 H 0.4386 0.80552 0.20584 0.0
H614 H 0.27257 0.69437 0.10282 0.0
H615 H 0.33742 0.75926 0.09081 0.0
Li616 Li 0.75867 0.86337 0.67291 0.0
Li617 Li 0.80784 0.84184 0.67053 0.0
Li618 Li 0.77019 0.8278 0.65096 0.0
Li619 Li 0.76771 0.81041 0.68035 0.0
C620 C 0.78087 0.87857 0.63738 0.0
N621 N 0.76764 0.89978 0.60431 0.0
C622 C 0.80085 0.87618 0.62366 0.0
C623 C 0.75403 0.89157 0.63417 0.0
C624 C 0.79377 0.88703 0.60706 0.0
C625 C 0.74782 0.90228 0.61741 0.0
C626 C 0.7883 0.86833 0.70357 0.0
C627 C 0.78063 0.89103 0.73178 0.0
N628 N 0.79593 0.91461 0.72632 0.0
C629 C 0.80379 0.89291 0.69821 0.0
C630 C 0.77648 0.86746 0.72047 0.0
C631 C 0.80749 0.91602 0.70991 0.0
C632 C 0.72027 0.89986 0.69297 0.0
N633 N 0.74114 0.89907 0.68039 0.0
C634 C 0.74721 0.95061 0.68207 0.0
C635 C 0.7543 0.9238 0.67474 0.0
C636 C 0.7265 0.95216 0.69553 0.0
C637 C 0.71253 0.92636 0.70075 0.0
H638 H 0.7107 0.87979 0.69756 0.0
H639 H 0.77167 0.92254 0.66528 0.0
C640 C 0.86352 0.85794 0.6594 0.0
N641 N 0.84778 0.85058 0.67378 0.0
C642 C 0.89099 0.87002 0.66132 0.0
C643 C 0.88644 0.86458 0.6928 0.0
C644 C 0.85911 0.85246 0.69024 0.0
C645 C 0.90227 0.87451 0.67824 0.0
H646 H 0.85423 0.85571 0.64649 0.0
H647 H 0.84634 0.84609 0.70149 0.0
C648 C 0.71261 0.82168 0.6565 0.0
N649 N 0.66621 0.80792 0.63523 0.0
C650 C 0.70914 0.7933 0.6503 0.0
C651 C 0.69232 0.84299 0.6521 0.0
C652 C 0.68559 0.78681 0.63948 0.0
C653 C 0.66904 0.83561 0.64129 0.0
C654 C 0.81811 0.78328 0.67017 0.0
C655 C 0.8303 0.76083 0.66023 0.0
C656 C 0.82563 0.78612 0.6879 0.0
C657 C 0.84992 0.74179 0.66814 0.0
C658 C 0.8453 0.76664 0.69533 0.0
N659 N 0.85696 0.74507 0.68538 0.0
C660 C 0.78663 0.80012 0.61999 0.0
C661 C 0.74271 0.82582 0.61631 0.0
C662 C 0.78674 0.79225 0.60229 0.0
N663 N 0.76483 0.81652 0.6267 0.0
C664 C 0.74203 0.81859 0.59846 0.0
C665 C 0.76434 0.80166 0.59123 0.0
H666 H 0.80449 0.79388 0.62828 0.0
H667 H 0.72597 0.83951 0.62168 0.0
C668 C 0.75691 0.77878 0.71236 0.0
N669 N 0.75904 0.77734 0.69457 0.0
C670 C 0.75554 0.75326 0.72234 0.0
C671 C 0.75792 0.72541 0.69545 0.0
C672 C 0.75896 0.75139 0.68603 0.0
C673 C 0.7567 0.72602 0.71392 0.0
H674 H 0.75733 0.79965 0.71884 0.0
H675 H 0.76127 0.75086 0.67189 0.0
O676 O 0.7871 0.86754 0.6537 0.0
O677 O 0.78351 0.84592 0.69206 0.0
O678 O 0.73536 0.82849 0.66717 0.0
O679 O 0.79845 0.80177 0.66259 0.0
H680 H 0.82142 0.86565 0.62565 0.0
H681 H 0.73789 0.89291 0.6444 0.0
H682 H 0.809 0.88517 0.59633 0.0
H683 H 0.72711 0.91231 0.61478 0.0
H684 H 0.77157 0.89063 0.74489 0.0
H685 H 0.8124 0.89441 0.68503 0.0
H686 H 0.76396 0.84896 0.72478 0.0
H687 H 0.81935 0.93517 0.70589 0.0
H688 H 0.75912 0.96967 0.67791 0.0
H689 H 0.69639 0.92655 0.71106 0.0
H690 H 0.9024 0.87746 0.64974 0.0
H691 H 0.89458 0.86727 0.70605 0.0
H692 H 0.72462 0.77657 0.65365 0.0
H693 H 0.69458 0.86499 0.65697 0.0
H694 H 0.68274 0.76499 0.63446 0.0
H695 H 0.65323 0.85189 0.6377 0.0
H696 H 0.82455 0.75792 0.64657 0.0
H697 H 0.81619 0.8029 0.69596 0.0
H698 H 0.85948 0.72435 0.66058 0.0
H699 H 0.85122 0.76862 0.70903 0.0
H700 H 0.80472 0.77973 0.5972 0.0
H701 H 0.72434 0.82633 0.59039 0.0
H702 H 0.7542 0.75487 0.73651 0.0
H703 H 0.75944 0.70511 0.68832 0.0
H704 H 0.06875 0.08595 0.3505 0.0
H705 H 0.03533 0.04587 0.34604 0.0
H706 H 0.06358 0.03797 0.29218 0.0
H707 H 0.09614 0.07947 0.29633 0.0
H708 H 0.00722 0.03706 0.29329 0.0
H709 H 0.08021 0.98527 0.32356 0.0
H710 H 0.1166 0.97522 0.34644 0.0
H711 H 0.05009 0.97402 0.38579 0.0
H712 H 0.01332 0.98448 0.3632 0.0
H713 H 0.92218 0.90294 0.29121 0.0
H714 H 0.96015 0.9398 0.28868 0.0
H715 H 0.93592 0.97468 0.33917 0.0
H716 H 0.89747 0.93849 0.34162 0.0
H717 H 0.99483 0.95666 0.33608 0.0
H718 H 0.92301 0.01343 0.3045 0.0
H719 H 0.88791 0.02189 0.28065 0.0
H720 H 0.95497 0.01023 0.24227 0.0
H721 H 0.99041 0.0013 0.26591 0.0
C722 C 0.06799 0.07563 0.33771 0.0
C723 C 0.08492 0.08605 0.32373 0.0
C724 C 0.04909 0.05245 0.33523 0.0
C725 C 0.04714 0.03865 0.31882 0.0
C726 C 0.0648 0.04825 0.30497 0.0
C727 C 0.0836 0.07175 0.30741 0.0
C728 C 0.02515 0.01562 0.31604 0.0
C729 C 0.00491 0.0191 0.30242 0.0
C730 C 0.02198 0.99225 0.328 0.0
C731 C 0.04401 0.98581 0.34167 0.0
C732 C 0.07335 0.98305 0.33711 0.0
C733 C 0.09405 0.97725 0.35003 0.0
C734 C 0.08567 0.97402 0.36756 0.0
C735 C 0.05655 0.97652 0.37221 0.0
C736 C 0.03576 0.98233 0.35934 0.0
C737 C 0.92429 0.91906 0.30151 0.0
C738 C 0.90701 0.91764 0.31671 0.0
C739 C 0.94612 0.93996 0.30008 0.0
C740 C 0.95094 0.95966 0.31383 0.0
C741 C 0.93264 0.95942 0.32851 0.0
C742 C 0.91073 0.93873 0.32989 0.0
C743 C 0.97655 0.97885 0.31379 0.0
C744 C 0.9975 0.97443 0.32683 0.0
C745 C 0.98059 0.00095 0.30115 0.0
C746 C 0.95928 0.00635 0.28696 0.0
C747 C 0.93021 0.01238 0.29097 0.0
C748 C 0.91027 0.01733 0.27749 0.0
C749 C 0.91918 0.0165 0.25995 0.0
C750 C 0.94808 0.01081 0.25586 0.0
C751 C 0.96811 0.00582 0.26929 0.0
H752 H 0.90371 0.02034 0.24954 0.0
H753 H 0.10173 0.96954 0.37755 0.0
H754 H 0.43742 0.61159 0.80354 0.0
H755 H 0.47264 0.57189 0.80221 0.0
H756 H 0.43082 0.5301 0.84614 0.0
H757 H 0.39542 0.56933 0.84742 0.0
H758 H 0.48934 0.52912 0.84923 0.0
H759 H 0.4183 0.50624 0.80551 0.0
H760 H 0.38763 0.51567 0.77964 0.0
H761 H 0.46327 0.5274 0.7477 0.0
H762 H 0.49442 0.51848 0.77347 0.0
H763 H 0.56105 0.39462 0.84117 0.0
H764 H 0.52038 0.42877 0.84084 0.0
H765 H 0.55938 0.4748 0.79749 0.0
H766 H 0.59971 0.44045 0.79753 0.0
H767 H 0.50037 0.47186 0.79433 0.0
H768 H 0.57109 0.4977 0.83828 0.0
H769 H 0.60199 0.48861 0.86412 0.0
H770 H 0.52675 0.47162 0.89555 0.0
H771 H 0.49541 0.48019 0.8698 0.0
C772 C 0.43581 0.59398 0.81294 0.0
C773 C 0.41372 0.59368 0.82563 0.0
C774 C 0.45589 0.57133 0.81216 0.0
C775 C 0.45409 0.54794 0.82396 0.0
C776 C 0.4326 0.54799 0.83694 0.0
C777 C 0.41252 0.57057 0.83773 0.0
C778 C 0.47435 0.52315 0.82267 0.0
C779 C 0.49145 0.51633 0.83731 0.0
C780 C 0.47736 0.50679 0.80702 0.0
C781 C 0.45869 0.51196 0.79147 0.0
C782 C 0.4284 0.51105 0.79301 0.0
C783 C 0.41092 0.51628 0.77835 0.0
C784 C 0.42349 0.5222 0.76204 0.0
C785 C 0.45357 0.52284 0.76035 0.0
C786 C 0.47114 0.51768 0.77497 0.0
C787 C 0.56054 0.41158 0.8313 0.0
C788 C 0.58364 0.41517 0.81952 0.0
C789 C 0.53744 0.43116 0.8312 0.0
C790 C 0.53719 0.45456 0.81933 0.0
C791 C 0.55926 0.45698 0.8068 0.0
C792 C 0.58235 0.43749 0.80692 0.0
C793 C 0.51537 0.47793 0.82087 0.0
C794 C 0.49805 0.48453 0.80627 0.0
C795 C 0.51215 0.49414 0.83656 0.0
C796 C 0.53094 0.48927 0.85208 0.0
C797 C 0.56115 0.49181 0.85067 0.0
C798 C 0.57874 0.48678 0.8653 0.0
C799 C 0.56634 0.47946 0.88145 0.0
C800 C 0.53632 0.47724 0.88302 0.0
C801 C 0.51863 0.48219 0.86842 0.0
H802 H 0.58 0.47558 0.89276 0.0
H803 H 0.40993 0.52624 0.75071 0.0
H804 H 0.62307 0.45851 0.1821 0.0
H805 H 0.58729 0.49668 0.18771 0.0
H806 H 0.53896 0.43737 0.22049 0.0
H807 H 0.57533 0.39991 0.21556 0.0
H808 H 0.53616 0.49618 0.17703 0.0
H809 H 0.49339 0.47102 0.24773 0.0
H810 H 0.51296 0.45687 0.27664 0.0
H811 H 0.5956 0.49256 0.26269 0.0
H812 H 0.57645 0.5073 0.2338 0.0
H813 H 0.39585 0.54583 0.18001 0.0
H814 H 0.43636 0.51283 0.18562 0.0
H815 H 0.47256 0.57462 0.22221 0.0
H816 H 0.43163 0.60719 0.21705 0.0
H817 H 0.4852 0.52074 0.23245 0.0
H818 H 0.49289 0.57615 0.17979 0.0
H819 H 0.47643 0.59584 0.15135 0.0
H820 H 0.47191 0.50944 0.13014 0.0
H821 H 0.48786 0.48919 0.15856 0.0
C822 C 0.60522 0.45406 0.19092 0.0
C823 C 0.60193 0.42644 0.19846 0.0
C824 C 0.58475 0.47576 0.19408 0.0
C825 C 0.56039 0.47 0.20457 0.0
C826 C 0.55782 0.4427 0.2127 0.0
C827 C 0.57858 0.42123 0.20983 0.0
C828 C 0.536 0.49098 0.20521 0.0
C829 C 0.52527 0.50167 0.18921 0.0
C830 C 0.52186 0.49861 0.22109 0.0
C831 C 0.5335 0.49006 0.23852 0.0
C832 C 0.51569 0.47599 0.25085 0.0
C833 C 0.52673 0.46783 0.26724 0.0
C834 C 0.55553 0.47374 0.27148 0.0
C835 C 0.57333 0.4879 0.25936 0.0
C836 C 0.5624 0.49612 0.24297 0.0
C837 C 0.41206 0.55192 0.18961 0.0
C838 C 0.41081 0.57904 0.19801 0.0
C839 C 0.4352 0.53318 0.19277 0.0
C840 C 0.45781 0.54165 0.204 0.0
C841 C 0.45541 0.56771 0.21345 0.0
C842 C 0.43201 0.58627 0.21051 0.0
C843 C 0.48523 0.52502 0.20428 0.0
C844 C 0.49641 0.51527 0.22038 0.0
C845 C 0.50048 0.51904 0.18857 0.0
C846 C 0.49135 0.53114 0.17135 0.0
C847 C 0.48824 0.56134 0.16908 0.0
C848 C 0.47899 0.5726 0.15297 0.0
C849 C 0.47308 0.5539 0.13896 0.0
C850 C 0.47647 0.5239 0.14101 0.0
C851 C 0.48563 0.51251 0.15712 0.0
H852 H 0.46592 0.56266 0.12649 0.0
H853 H 0.56403 0.46739 0.28416 0.0
H854 H 0.11473 0.04972 0.6558 0.0
H855 H 0.08094 0.00916 0.65776 0.0
H856 H 0.0315 0.05558 0.69678 0.0
H857 H 0.06516 0.09664 0.69475 0.0
H858 H 0.04144 0.99809 0.70586 0.0
H859 H 0.00665 0.05167 0.65585 0.0
H860 H 0.01086 0.07621 0.62715 0.0
H861 H 0.03776 0.99608 0.60325 0.0
H862 H 0.0341 0.97114 0.63188 0.0
H863 H 0.91029 0.91823 0.70185 0.0
H864 H 0.94988 0.95312 0.70281 0.0
H865 H 0.9928 0.90733 0.66073 0.0
H866 H 0.95296 0.8723 0.65964 0.0
H867 H 0.98819 0.96312 0.65335 0.0
H868 H 0.02068 0.9086 0.70293 0.0
H869 H 0.01676 0.88388 0.73158 0.0
H870 H 0.9947 0.9648 0.75632 0.0
H871 H 0.99808 0.98996 0.72777 0.0
C872 C 0.09636 0.0516 0.66456 0.0
C873 C 0.09235 0.07659 0.67494 0.0
C874 C 0.07721 0.02829 0.66575 0.0
C875 C 0.05363 0.02951 0.6773 0.0
C876 C 0.04963 0.05427 0.6878 0.0
C877 C 0.06881 0.07767 0.68661 0.0
C878 C 0.03314 0.00488 0.67832 0.0
C879 C 0.02948 0.99059 0.69446 0.0
C880 C 0.0183 0.99468 0.66329 0.0
C881 C 0.02038 0.00961 0.64604 0.0
C882 C 0.01369 0.03933 0.64451 0.0
C883 C 0.01594 0.05331 0.62825 0.0
C884 C 0.02465 0.03773 0.6134 0.0
C885 C 0.03105 0.00813 0.61477 0.0
C886 C 0.02887 0.99406 0.631 0.0
C887 C 0.92855 0.91505 0.69315 0.0
C888 C 0.92853 0.89252 0.68065 0.0
C889 C 0.95118 0.93506 0.6937 0.0
C890 C 0.97439 0.93276 0.6819 0.0
C891 C 0.97506 0.90953 0.66993 0.0
C892 C 0.95232 0.88957 0.66931 0.0
C893 C 0.99635 0.95617 0.68093 0.0
C894 C 0.00026 0.97035 0.66477 0.0
C895 C 0.01143 0.96618 0.69595 0.0
C896 C 0.0094 0.95112 0.71316 0.0
C897 C 0.01476 0.92109 0.71445 0.0
C898 C 0.01268 0.90701 0.73068 0.0
C899 C 0.00543 0.92275 0.74576 0.0
C900 C 0.0003 0.95263 0.74463 0.0
C901 C 0.00233 0.96682 0.72843 0.0
H902 H 0.00383 0.9118 0.75831 0.0
H903 H 0.02637 0.04859 0.60082 0.0
H904 H 0.15172 0.23711 0.43295 0.0
H905 H 0.16124 0.2281 0.46406 0.0
H906 H 0.25059 0.25238 0.45655 0.0
H907 H 0.24128 0.25993 0.42516 0.0
H908 H 0.24972 0.2072 0.47546 0.0
H909 H 0.19827 0.2968 0.47899 0.0
H910 H 0.15871 0.33156 0.47347 0.0
H911 H 0.09879 0.27459 0.4994 0.0
H912 H 0.13793 0.2393 0.50487 0.0
H913 H 0.27508 0.21806 0.56908 0.0
H914 H 0.26802 0.23132 0.53807 0.0
H915 H 0.18817 0.18296 0.53719 0.0
H916 H 0.19538 0.16922 0.56802 0.0
H917 H 0.18607 0.24287 0.52329 0.0
H918 H 0.23986 0.15284 0.51837 0.0
H919 H 0.28116 0.12047 0.52442 0.0
H920 H 0.33917 0.18291 0.50169 0.0
H921 H 0.29822 0.21587 0.49574 0.0
C922 C 0.17328 0.24091 0.43804 0.0
C923 C 0.19573 0.24942 0.42675 0.0
C924 C 0.17872 0.23586 0.45584 0.0
C925 C 0.20656 0.24004 0.46283 0.0
C926 C 0.22892 0.24901 0.45154 0.0
C927 C 0.22361 0.25344 0.43364 0.0
C928 C 0.2126 0.23369 0.48169 0.0
C929 C 0.23604 0.21551 0.48589 0.0
C930 C 0.19461 0.24408 0.49542 0.0
C931 C 0.17101 0.26529 0.49221 0.0
C932 C 0.17662 0.29159 0.48341 0.0
C933 C 0.15427 0.3114 0.48031 0.0
C934 C 0.12624 0.30526 0.48605 0.0
C935 C 0.12051 0.27931 0.49495 0.0
C936 C 0.14278 0.25941 0.49807 0.0
C937 C 0.25612 0.21019 0.5622 0.0
C938 C 0.23585 0.1925 0.57086 0.0
C939 C 0.25214 0.21773 0.54455 0.0
C940 C 0.22758 0.2081 0.5354 0.0
C941 C 0.20724 0.19058 0.54406 0.0
C942 C 0.21148 0.1826 0.56158 0.0
C943 C 0.2229 0.21643 0.51682 0.0
C944 C 0.19976 0.23491 0.51276 0.0
C945 C 0.24142 0.20678 0.50327 0.0
C946 C 0.26602 0.18696 0.5068 0.0
C947 C 0.26145 0.1598 0.51482 0.0
C948 C 0.28479 0.14131 0.5182 0.0
C949 C 0.31279 0.14967 0.51349 0.0
C950 C 0.31748 0.17649 0.50535 0.0
C951 C 0.29422 0.19507 0.50197 0.0
H952 H 0.33083 0.13532 0.51611 0.0
H953 H 0.10897 0.32062 0.48363 0.0
H954 H 0.23785 0.65169 0.93617 0.0
H955 H 0.24478 0.66031 0.96743 0.0
H956 H 0.27891 0.74563 0.95621 0.0
H957 H 0.2745 0.73621 0.92487 0.0
H958 H 0.31066 0.72283 0.97948 0.0
H959 H 0.20815 0.73242 0.97415 0.0
H960 H 0.15866 0.71821 0.96569 0.0
H961 H 0.16438 0.64255 0.99857 0.0
H962 H 0.21406 0.6561 0.00706 0.0
H963 H 0.30258 0.76987 0.06915 0.0
H964 H 0.29229 0.76517 0.03775 0.0
H965 H 0.27762 0.67328 0.04437 0.0
H966 H 0.28899 0.67739 0.07556 0.0
H967 H 0.23481 0.70203 0.02382 0.0
H968 H 0.33882 0.69342 0.02799 0.0
H969 H 0.38751 0.70981 0.03671 0.0
H970 H 0.37711 0.78739 0.00594 0.0
H971 H 0.32815 0.77165 0.99726 0.0
C972 C 0.2471 0.67222 0.94027 0.0
C973 C 0.25563 0.69319 0.92781 0.0
C974 C 0.25061 0.67732 0.95825 0.0
C975 C 0.26193 0.70385 0.9643 0.0
C976 C 0.27001 0.72501 0.95194 0.0
C977 C 0.26707 0.71971 0.93394 0.0
C978 C 0.26654 0.70905 0.98344 0.0
C979 C 0.29382 0.71877 0.98909 0.0
C980 C 0.24485 0.70331 0.99614 0.0
C981 C 0.21492 0.69516 0.99112 0.0
C982 C 0.19893 0.71265 0.97949 0.0
C983 C 0.17083 0.70472 0.9747 0.0
C984 C 0.15841 0.67946 0.98155 0.0
C985 C 0.17404 0.6621 0.99325 0.0
C986 C 0.20215 0.66991 0.99807 0.0
C987 C 0.29745 0.74858 0.06395 0.0
C988 C 0.29665 0.72402 0.075 0.0
C989 C 0.29139 0.746 0.046 0.0
C990 C 0.28424 0.71887 0.03876 0.0
C991 C 0.2829 0.69444 0.04974 0.0
C992 C 0.28926 0.69692 0.06762 0.0
C993 C 0.27875 0.71571 0.01966 0.0
C994 C 0.2514 0.70632 0.01408 0.0
C995 C 0.3002 0.72214 0.00701 0.0
C996 C 0.3297 0.73151 0.01214 0.0
C997 C 0.34681 0.71409 0.02321 0.0
C998 C 0.37448 0.72324 0.02812 0.0
C999 C 0.38537 0.74966 0.02192 0.0
C1000 C 0.36864 0.76695 0.01076 0.0
C1001 C 0.34093 0.75792 0.00583 0.0
H1002 H 0.4068 0.75671 0.02574 0.0
H1003 H 0.13666 0.67336 0.97783 0.0
H1004 H 0.75276 0.83798 0.56365 0.0
H1005 H 0.75673 0.8273 0.53226 0.0
H1006 H 0.78184 0.73917 0.54429 0.0
H1007 H 0.77809 0.7498 0.57571 0.0
H1008 H 0.8165 0.7612 0.52011 0.0
H1009 H 0.71406 0.75552 0.52796 0.0
H1010 H 0.66586 0.77225 0.53739 0.0
H1011 H 0.67239 0.84599 0.50301 0.0
H1012 H 0.72084 0.82992 0.49355 0.0
H1013 H 0.8041 0.71177 0.4312 0.0
H1014 H 0.79572 0.71748 0.46279 0.0
H1015 H 0.7788 0.80881 0.45522 0.0
H1016 H 0.78804 0.80363 0.42386 0.0
H1017 H 0.7386 0.78223 0.47713 0.0
H1018 H 0.84189 0.78897 0.47055 0.0
H1019 H 0.89008 0.77224 0.46109 0.0
H1020 H 0.88149 0.69595 0.49319 0.0
H1021 H 0.83301 0.71202 0.50264 0.0
C1022 C 0.75868 0.8162 0.5596 0.0
C1023 C 0.76503 0.79471 0.57216 0.0
C1024 C 0.76098 0.81012 0.54165 0.0
C1025 C 0.76932 0.78233 0.53589 0.0
C1026 C 0.77542 0.76077 0.54841 0.0
C1027 C 0.77329 0.76688 0.56636 0.0
C1028 C 0.77263 0.77605 0.51682 0.0
C1029 C 0.79926 0.76531 0.51077 0.0
C1030 C 0.75038 0.78197 0.50455 0.0
C1031 C 0.7212 0.79164 0.51016 0.0
C1032 C 0.70532 0.77542 0.52251 0.0
C1033 C 0.67793 0.78476 0.52784 0.0
C1034 C 0.6661 0.8102 0.52084 0.0
C1035 C 0.6816 0.82631 0.50844 0.0
C1036 C 0.70901 0.81707 0.50307 0.0
C1037 C 0.79879 0.73312 0.43624 0.0
C1038 C 0.79668 0.7572 0.42489 0.0
C1039 C 0.79387 0.7363 0.4543 0.0
C1040 C 0.78669 0.76359 0.46133 0.0
C1041 C 0.78411 0.78752 0.45004 0.0
C1042 C 0.78925 0.78443 0.43206 0.0
C1043 C 0.78242 0.76751 0.4805 0.0
C1044 C 0.75568 0.77786 0.48654 0.0
C1045 C 0.80452 0.76119 0.49277 0.0
C1046 C 0.83368 0.75152 0.48714 0.0
C1047 C 0.85016 0.76849 0.47546 0.0
C1048 C 0.87755 0.75916 0.47013 0.0
C1049 C 0.8888 0.733 0.47649 0.0
C1050 C 0.87271 0.71617 0.48825 0.0
C1051 C 0.84529 0.72538 0.4936 0.0
H1052 H 0.91002 0.72582 0.47235 0.0
H1053 H 0.64489 0.81739 0.52499 0.0
H1054 H 0.7209 0.25945 0.92521 0.0
H1055 H 0.71508 0.25195 0.9568 0.0
H1056 H 0.74465 0.33943 0.96652 0.0
H1057 H 0.75041 0.34715 0.93488 0.0
H1058 H 0.76761 0.30176 0.98994 0.0
H1059 H 0.67347 0.32382 0.96765 0.0
H1060 H 0.63123 0.31867 0.94814 0.0
H1061 H 0.61858 0.23115 0.96622 0.0
H1062 H 0.66105 0.23564 0.98566 0.0
H1063 H 0.71 0.31976 0.07596 0.0
H1064 H 0.72028 0.32402 0.04464 0.0
H1065 H 0.69731 0.23403 0.03716 0.0
H1066 H 0.68788 0.22916 0.06868 0.0
H1067 H 0.67156 0.27187 0.01274 0.0
H1068 H 0.76585 0.25146 0.03597 0.0
H1069 H 0.80744 0.25846 0.05579 0.0
H1070 H 0.81881 0.3453 0.03626 0.0
H1071 H 0.777 0.33897 0.01649 0.0
C1072 C 0.72614 0.27712 0.93406 0.0
C1073 C 0.73592 0.30397 0.92751 0.0
C1074 C 0.72283 0.27278 0.95212 0.0
C1075 C 0.72902 0.29527 0.96401 0.0
C1076 C 0.73972 0.32178 0.95758 0.0
C1077 C 0.7431 0.32613 0.93949 0.0
C1078 C 0.72363 0.29132 0.98311 0.0
C1079 C 0.74653 0.29555 0.99494 0.0
C1080 C 0.69623 0.28273 0.98962 0.0
C1081 C 0.67064 0.27996 0.97797 0.0
C1082 C 0.66184 0.30339 0.96736 0.0
C1083 C 0.63783 0.30061 0.95633 0.0
C1084 C 0.62228 0.27457 0.9559 0.0
C1085 C 0.63068 0.25129 0.96654 0.0
C1086 C 0.65471 0.25394 0.97758 0.0
C1087 C 0.70763 0.30065 0.06778 0.0
C1088 C 0.6983 0.27402 0.07496 0.0
C1089 C 0.71336 0.30321 0.04983 0.0
C1090 C 0.70976 0.27929 0.03861 0.0
C1091 C 0.7002 0.25276 0.04562 0.0
C1092 C 0.69469 0.25008 0.06363 0.0
C1093 C 0.71554 0.28224 0.01952 0.0
C1094 C 0.69267 0.27792 0.00771 0.0
C1095 C 0.74288 0.291 0.01306 0.0
C1096 C 0.76811 0.29483 0.02487 0.0
C1097 C 0.77706 0.27214 0.03601 0.0
C1098 C 0.80071 0.27597 0.04721 0.0
C1099 C 0.81571 0.30233 0.04732 0.0
C1100 C 0.80715 0.3249 0.03618 0.0
C1101 C 0.78349 0.32119 0.02496 0.0
H1102 H 0.83402 0.30525 0.056 0.0
H1103 H 0.60369 0.27246 0.94736 0.0
H1104 H 0.48556 0.24192 0.17981 0.0
H1105 H 0.43827 0.24109 0.19413 0.0
H1106 H 0.47851 0.21618 0.24299 0.0
H1107 H 0.52602 0.21718 0.22876 0.0
H1108 H 0.4272 0.18729 0.23756 0.0
H1109 H 0.46162 0.28561 0.23606 0.0
H1110 H 0.48103 0.32993 0.22217 0.0
H1111 H 0.40548 0.33604 0.18959 0.0
H1112 H 0.38581 0.29145 0.20309 0.0
H1113 H 0.31602 0.23085 0.29611 0.0
H1114 H 0.36189 0.22639 0.28042 0.0
H1115 H 0.3199 0.25159 0.23216 0.0
H1116 H 0.27391 0.25667 0.24788 0.0
H1117 H 0.37158 0.27958 0.2368 0.0
H1118 H 0.33657 0.18163 0.23916 0.0
H1119 H 0.31736 0.13759 0.25348 0.0
H1120 H 0.39412 0.13117 0.28498 0.0
H1121 H 0.41362 0.17545 0.27102 0.0
C1122 C 0.48434 0.23607 0.19358 0.0
C1123 C 0.50959 0.22986 0.20318 0.0
C1124 C 0.45729 0.23559 0.20174 0.0
C1125 C 0.45491 0.22906 0.2197 0.0
C1126 C 0.47987 0.22134 0.22912 0.0
C1127 C 0.50699 0.22179 0.22095 0.0
C1128 C 0.42662 0.2318 0.2288 0.0
C1129 C 0.41518 0.20754 0.23756 0.0
C1130 C 0.41069 0.2581 0.22854 0.0
C1131 C 0.42238 0.28501 0.22046 0.0
C1132 C 0.44925 0.29627 0.22583 0.0
C1133 C 0.46029 0.32146 0.21804 0.0
C1134 C 0.44454 0.33575 0.20497 0.0
C1135 C 0.41768 0.32492 0.19969 0.0
C1136 C 0.40656 0.29969 0.20741 0.0
C1137 C 0.31657 0.23574 0.28219 0.0
C1138 C 0.2913 0.24418 0.27325 0.0
C1139 C 0.34276 0.23289 0.27321 0.0
C1140 C 0.34427 0.23834 0.25508 0.0
C1141 C 0.3192 0.24716 0.24614 0.0
C1142 C 0.29292 0.24989 0.25511 0.0
C1143 C 0.37209 0.23506 0.24553 0.0
C1144 C 0.38351 0.25927 0.23673 0.0
C1145 C 0.38802 0.20875 0.24581 0.0
C1146 C 0.37644 0.18202 0.25416 0.0
C1147 C 0.34926 0.17096 0.24924 0.0
C1148 C 0.33833 0.14593 0.25728 0.0
C1149 C 0.35448 0.13163 0.27016 0.0
C1150 C 0.38162 0.14229 0.27501 0.0
C1151 C 0.39264 0.16734 0.26703 0.0
H1152 H 0.34599 0.11226 0.27637 0.0
H1153 H 0.45311 0.35526 0.19896 0.0
H1154 H 0.27265 0.78496 0.75516 0.0
H1155 H 0.27863 0.83036 0.73878 0.0
H1156 H 0.23183 0.87656 0.77907 0.0
H1157 H 0.22543 0.83112 0.79543 0.0
H1158 H 0.21653 0.89369 0.74503 0.0
H1159 H 0.30329 0.87813 0.77932 0.0
H1160 H 0.34557 0.84983 0.78917 0.0
H1161 H 0.37757 0.84685 0.73622 0.0
H1162 H 0.33522 0.87479 0.72601 0.0
H1163 H 0.2555 0.03809 0.7304 0.0
H1164 H 0.25031 0.99038 0.74375 0.0
H1165 H 0.30547 0.95335 0.70391 0.0
H1166 H 0.31205 0.0016 0.69086 0.0
H1167 H 0.31652 0.92954 0.73538 0.0
H1168 H 0.23253 0.94761 0.70096 0.0
H1169 H 0.19052 0.9756 0.6904 0.0
H1170 H 0.1529 0.97262 0.74196 0.0
H1171 H 0.19498 0.94511 0.75293 0.0
C1172 C 0.26317 0.80469 0.76038 0.0
C1173 C 0.24863 0.80449 0.77661 0.0
C1174 C 0.26681 0.83064 0.75107 0.0
C1175 C 0.25595 0.85686 0.75781 0.0
C1176 C 0.24045 0.85656 0.77367 0.0
C1177 C 0.23696 0.83065 0.78304 0.0
C1178 C 0.2618 0.88482 0.74876 0.0
C1179 C 0.23836 0.90169 0.74305 0.0
C1180 C 0.29033 0.89478 0.74572 0.0
C1181 C 0.31595 0.87828 0.75188 0.0
C1182 C 0.31924 0.87125 0.76976 0.0
C1183 C 0.34323 0.8553 0.77541 0.0
C1184 C 0.3642 0.84648 0.76332 0.0
C1185 C 0.36128 0.85366 0.74556 0.0
C1186 C 0.3373 0.86957 0.73984 0.0
C1187 C 0.26723 0.02006 0.72467 0.0
C1188 C 0.28427 0.02384 0.70951 0.0
C1189 C 0.26384 0.99262 0.7322 0.0
C1190 C 0.27696 0.96816 0.72461 0.0
C1191 C 0.29492 0.97189 0.7099 0.0
C1192 C 0.29851 0.99947 0.7024 0.0
C1193 C 0.27123 0.93872 0.73186 0.0
C1194 C 0.29467 0.92152 0.73722 0.0
C1195 C 0.24268 0.92832 0.73441 0.0
C1196 C 0.21706 0.94448 0.7278 0.0
C1197 C 0.2154 0.95309 0.71008 0.0
C1198 C 0.19157 0.96886 0.70402 0.0
C1199 C 0.16908 0.97592 0.71551 0.0
C1200 C 0.17035 0.96716 0.73308 0.0
C1201 C 0.19419 0.95146 0.73922 0.0
H1202 H 0.15065 0.98815 0.71079 0.0
H1203 H 0.38276 0.83413 0.76772 0.0
H1204 H 0.72476 0.74663 0.24513 0.0
H1205 H 0.67842 0.75195 0.22992 0.0
H1206 H 0.63543 0.76404 0.27968 0.0
H1207 H 0.68156 0.75891 0.29495 0.0
H1208 H 0.60478 0.72856 0.25877 0.0
H1209 H 0.65102 0.82177 0.25313 0.0
H1210 H 0.6906 0.85521 0.2452 0.0
H1211 H 0.68455 0.82823 0.1913 0.0
H1212 H 0.64519 0.79431 0.19896 0.0
H1213 H 0.47186 0.78152 0.2272 0.0
H1214 H 0.51893 0.78145 0.24187 0.0
H1215 H 0.56114 0.76727 0.19206 0.0
H1216 H 0.51419 0.76811 0.17724 0.0
H1217 H 0.59222 0.80413 0.21283 0.0
H1218 H 0.54648 0.71086 0.21832 0.0
H1219 H 0.50654 0.67766 0.22594 0.0
H1220 H 0.51187 0.70438 0.27992 0.0
H1221 H 0.55152 0.73816 0.27255 0.0
C1222 C 0.70545 0.75049 0.25283 0.0
C1223 C 0.70693 0.75235 0.27127 0.0
C1224 C 0.67897 0.75352 0.24412 0.0
C1225 C 0.65347 0.75875 0.25365 0.0
C1226 C 0.65479 0.75998 0.27205 0.0
C1227 C 0.6812 0.75689 0.28077 0.0
C1228 C 0.62543 0.76326 0.24448 0.0
C1229 C 0.60196 0.74534 0.2489 0.0
C1230 C 0.62186 0.78474 0.23131 0.0
C1231 C 0.64535 0.8053 0.22665 0.0
C1232 C 0.65827 0.82282 0.23961 0.0
C1233 C 0.68064 0.84188 0.23516 0.0
C1234 C 0.69013 0.84379 0.21776 0.0
C1235 C 0.67721 0.8267 0.20477 0.0
C1236 C 0.65485 0.80757 0.20916 0.0
C1237 C 0.4912 0.7792 0.21931 0.0
C1238 C 0.48929 0.77467 0.20107 0.0
C1239 C 0.51808 0.77885 0.22773 0.0
C1240 C 0.54351 0.77382 0.2181 0.0
C1241 C 0.5418 0.77102 0.19977 0.0
C1242 C 0.51495 0.77135 0.19133 0.0
C1243 C 0.5716 0.76956 0.22721 0.0
C1244 C 0.59507 0.78743 0.22275 0.0
C1245 C 0.57522 0.74798 0.24031 0.0
C1246 C 0.55177 0.72725 0.24485 0.0
C1247 C 0.53901 0.7098 0.23179 0.0
C1248 C 0.51643 0.69087 0.23607 0.0
C1249 C 0.50663 0.68896 0.2534 0.0
C1250 C 0.51946 0.70591 0.2665 0.0
C1251 C 0.54199 0.72495 0.26228 0.0
H1252 H 0.48913 0.67431 0.25668 0.0
H1253 H 0.70746 0.85856 0.21435 0.0
H1254 H 0.73097 0.17404 0.79972 0.0
H1255 H 0.72643 0.12719 0.78485 0.0
H1256 H 0.7366 0.16958 0.73466 0.0
H1257 H 0.74128 0.2166 0.74948 0.0
H1258 H 0.69286 0.1308 0.73389 0.0
H1259 H 0.79192 0.13094 0.75294 0.0
H1260 H 0.83162 0.13549 0.7744 0.0
H1261 H 0.79671 0.06441 0.80421 0.0
H1262 H 0.75656 0.05969 0.78305 0.0
H1263 H 0.7234 0.00691 0.68137 0.0
H1264 H 0.72249 0.05318 0.69701 0.0
H1265 H 0.71706 0.00754 0.74644 0.0
H1266 H 0.71941 0.96108 0.7309 0.0
H1267 H 0.75701 0.04772 0.74828 0.0
H1268 H 0.65868 0.04635 0.72862 0.0
H1269 H 0.61891 0.04201 0.7072 0.0
H1270 H 0.65203 0.11525 0.67858 0.0
H1271 H 0.69224 0.1198 0.69969 0.0
C1272 C 0.73266 0.17337 0.78553 0.0
C1273 C 0.73672 0.19906 0.77579 0.0
C1274 C 0.72994 0.14656 0.77704 0.0
C1275 C 0.73145 0.14481 0.75864 0.0
C1276 C 0.73533 0.17041 0.74887 0.0
C1277 C 0.73798 0.19727 0.75735 0.0
C1278 C 0.7288 0.11629 0.74959 0.0
C1279 C 0.7071 0.11271 0.73687 0.0
C1280 C 0.74687 0.09246 0.75381 0.0
C1281 C 0.77108 0.09516 0.7665 0.0
C1282 C 0.79259 0.11643 0.76415 0.0
C1283 C 0.81519 0.11901 0.77624 0.0
C1284 C 0.81665 0.1003 0.79069 0.0
C1285 C 0.79554 0.07891 0.79303 0.0
C1286 C 0.77287 0.07626 0.78098 0.0
C1287 C 0.72187 0.00667 0.69557 0.0
C1288 C 0.72158 0.98021 0.70486 0.0
C1289 C 0.72105 0.03321 0.70451 0.0
C1290 C 0.71947 0.03394 0.72294 0.0
C1291 C 0.71823 0.00756 0.73222 0.0
C1292 C 0.71924 0.98098 0.72329 0.0
C1293 C 0.72103 0.06212 0.73252 0.0
C1294 C 0.7426 0.06569 0.74533 0.0
C1295 C 0.70281 0.08592 0.72838 0.0
C1296 C 0.67862 0.08325 0.71566 0.0
C1297 C 0.65762 0.06139 0.71768 0.0
C1298 C 0.63497 0.05892 0.70561 0.0
C1299 C 0.63298 0.0783 0.69151 0.0
C1300 C 0.65361 0.10024 0.68949 0.0
C1301 C 0.67632 0.10279 0.70152 0.0
H1302 H 0.61543 0.07634 0.68218 0.0
H1303 H 0.83416 0.10233 0.80004 0.0
H1304 H 0.98666 0.28541 0.31849 0.0
H1305 H 0.9401 0.28209 0.30344 0.0
H1306 H 0.98317 0.2882 0.25334 0.0
H1307 H 0.03002 0.29079 0.26827 0.0
H1308 H 0.93034 0.32028 0.25533 0.0
H1309 H 0.96673 0.22431 0.26695 0.0
H1310 H 0.98669 0.18531 0.28557 0.0
H1311 H 0.91028 0.18697 0.31761 0.0
H1312 H 0.89008 0.22639 0.29935 0.0
H1313 H 0.81807 0.26466 0.20221 0.0
H1314 H 0.8647 0.27111 0.21666 0.0
H1315 H 0.82507 0.25445 0.26697 0.0
H1316 H 0.77842 0.2468 0.25252 0.0
H1317 H 0.87657 0.22816 0.26476 0.0
H1318 H 0.83985 0.32375 0.25351 0.0
H1319 H 0.81969 0.36332 0.23541 0.0
H1320 H 0.89598 0.36306 0.20327 0.0
H1321 H 0.91643 0.32315 0.22103 0.0
C1322 C 0.98626 0.28629 0.30427 0.0
C1323 C 0.01212 0.28806 0.29458 0.0
C1324 C 0.95962 0.28446 0.2957 0.0
C1325 C 0.95826 0.28448 0.27729 0.0
C1326 C 0.9838 0.28813 0.26757 0.0
C1327 C 0.01054 0.28977 0.27614 0.0
C1328 C 0.93044 0.27866 0.26825 0.0
C1329 C 0.91872 0.30002 0.2572 0.0
C1330 C 0.91506 0.25244 0.271 0.0
C1331 C 0.92702 0.22852 0.28189 0.0
C1332 C 0.95429 0.21654 0.27805 0.0
C1333 C 0.96563 0.19433 0.28853 0.0
C1334 C 0.9498 0.18372 0.30279 0.0
C1335 C 0.92254 0.19524 0.30657 0.0
C1336 C 0.91113 0.21752 0.29616 0.0
C1337 C 0.8193 0.26177 0.21631 0.0
C1338 C 0.7944 0.25522 0.22619 0.0
C1339 C 0.84596 0.26586 0.22459 0.0
C1340 C 0.84831 0.2638 0.24294 0.0
C1341 C 0.82374 0.25635 0.2528 0.0
C1342 C 0.79705 0.25217 0.24453 0.0
C1343 C 0.87629 0.26983 0.25184 0.0
C1344 C 0.8881 0.24846 0.26287 0.0
C1345 C 0.89168 0.29611 0.24912 0.0
C1346 C 0.87955 0.32027 0.2385 0.0
C1347 C 0.85224 0.33198 0.24251 0.0
C1348 C 0.84077 0.35449 0.23232 0.0
C1349 C 0.85651 0.36565 0.21817 0.0
C1350 C 0.8838 0.35437 0.21422 0.0
C1351 C 0.89535 0.33182 0.22435 0.0
H1352 H 0.8476 0.38307 0.2103 0.0
H1353 H 0.95861 0.16651 0.31088 0.0
H1354 H 0.20102 0.31961 0.70539 0.0
H1355 H 0.19713 0.36514 0.72165 0.0
H1356 H 0.2745 0.34397 0.75055 0.0
H1357 H 0.27903 0.29852 0.73401 0.0
H1358 H 0.22986 0.36424 0.77193 0.0
H1359 H 0.27838 0.3929 0.71884 0.0
H1360 H 0.28501 0.39631 0.68676 0.0
H1361 H 0.20451 0.44215 0.68209 0.0
H1362 H 0.19719 0.43864 0.71414 0.0
H1363 H 0.25589 0.50364 0.80876 0.0
H1364 H 0.258 0.45663 0.79394 0.0
H1365 H 0.18828 0.48286 0.75973 0.0
H1366 H 0.18667 0.53037 0.77429 0.0
H1367 H 0.22887 0.45932 0.74113 0.0
H1368 H 0.17983 0.43128 0.79392 0.0
H1369 H 0.17206 0.42729 0.82589 0.0
H1370 H 0.25157 0.37991 0.83118 0.0
H1371 H 0.26002 0.38395 0.79926 0.0
C1372 C 0.21752 0.32476 0.71499 0.0
C1373 C 0.24052 0.30544 0.71824 0.0
C1374 C 0.21513 0.35075 0.72436 0.0
C1375 C 0.23565 0.35804 0.7372 0.0
C1376 C 0.25841 0.33871 0.7407 0.0
C1377 C 0.26091 0.31272 0.73126 0.0
C1378 C 0.23324 0.38587 0.74693 0.0
C1379 C 0.23002 0.38509 0.76526 0.0
C1380 C 0.23267 0.41296 0.73814 0.0
C1381 C 0.23711 0.41526 0.71887 0.0
C1382 C 0.26198 0.40351 0.71096 0.0
C1383 C 0.26589 0.40549 0.69278 0.0
C1384 C 0.24516 0.41937 0.68238 0.0
C1385 C 0.22053 0.43137 0.69015 0.0
C1386 C 0.2165 0.42942 0.70833 0.0
C1387 C 0.24063 0.49917 0.7983 0.0
C1388 C 0.22094 0.52059 0.79276 0.0
C1389 C 0.24185 0.47226 0.78983 0.0
C1390 C 0.22304 0.46595 0.77584 0.0
C1391 C 0.20301 0.48717 0.77048 0.0
C1392 C 0.20205 0.51427 0.77882 0.0
C1393 C 0.22529 0.43785 0.76623 0.0
C1394 C 0.22858 0.43854 0.74788 0.0
C1395 C 0.22573 0.41067 0.77501 0.0
C1396 C 0.22068 0.40816 0.79421 0.0
C1397 C 0.19577 0.4202 0.80192 0.0
C1398 C 0.19122 0.4179 0.82003 0.0
C1399 C 0.21135 0.40342 0.83057 0.0
C1400 C 0.23602 0.39115 0.823 0.0
C1401 C 0.24068 0.39341 0.8049 0.0
H1402 H 0.20779 0.40165 0.84459 0.0
H1403 H 0.24822 0.42089 0.66831 0.0
H1404 H 0.18381 0.72844 0.2039 0.0
H1405 H 0.13746 0.72387 0.21891 0.0
H1406 H 0.17755 0.74886 0.26781 0.0
H1407 H 0.2242 0.75362 0.25281 0.0
H1408 H 0.14248 0.7025 0.2722 0.0
H1409 H 0.13484 0.79642 0.24527 0.0
H1410 H 0.13685 0.83176 0.22093 0.0
H1411 H 0.07064 0.7846 0.1935 0.0
H1412 H 0.06851 0.74873 0.21758 0.0
H1413 H 0.0131 0.73112 0.31972 0.0
H1414 H 0.06009 0.73211 0.30518 0.0
H1415 H 0.01938 0.71075 0.25582 0.0
H1416 H 0.97205 0.71101 0.27017 0.0
H1417 H 0.05502 0.75488 0.25167 0.0
H1418 H 0.06219 0.66117 0.27895 0.0
H1419 H 0.06041 0.62593 0.30335 0.0
H1420 H 0.12749 0.67269 0.33024 0.0
H1421 H 0.12941 0.70845 0.3061 0.0
C1422 C 0.18275 0.73346 0.21779 0.0
C1423 C 0.20773 0.74169 0.22711 0.0
C1424 C 0.1562 0.73071 0.22637 0.0
C1425 C 0.15392 0.73632 0.24445 0.0
C1426 C 0.1788 0.74441 0.25385 0.0
C1427 C 0.20544 0.74711 0.24526 0.0
C1428 C 0.12561 0.73334 0.25354 0.0
C1429 C 0.12343 0.71425 0.26787 0.0
C1430 C 0.10059 0.74811 0.24762 0.0
C1431 C 0.10171 0.76974 0.23316 0.0
C1432 C 0.12086 0.79346 0.23399 0.0
C1433 C 0.12199 0.81361 0.22025 0.0
C1434 C 0.10393 0.81038 0.20566 0.0
C1435 C 0.08464 0.78705 0.2048 0.0
C1436 C 0.08344 0.76682 0.2185 0.0
C1437 C 0.01413 0.72647 0.30578 0.0
C1438 C 0.98875 0.72106 0.29611 0.0
C1439 C 0.0411 0.72678 0.2975 0.0
C1440 C 0.04338 0.7213 0.2794 0.0
C1441 C 0.01819 0.715 0.26981 0.0
C1442 C 0.99115 0.71483 0.27807 0.0
C1443 C 0.07177 0.7239 0.27032 0.0
C1444 C 0.07401 0.74302 0.25599 0.0
C1445 C 0.09683 0.70916 0.27626 0.0
C1446 C 0.09575 0.68764 0.29078 0.0
C1447 C 0.07641 0.66407 0.29013 0.0
C1448 C 0.0754 0.64398 0.3039 0.0
C1449 C 0.09377 0.64711 0.31835 0.0
C1450 C 0.11325 0.67031 0.31904 0.0
C1451 C 0.11433 0.69048 0.30531 0.0
H1452 H 0.09296 0.63153 0.329 0.0
H1453 H 0.10485 0.826 0.19503 0.0
H1454 H 0.76911 0.46238 0.76813 0.0
H1455 H 0.7669 0.50968 0.75368 0.0
H1456 H 0.80439 0.54999 0.79956 0.0
H1457 H 0.80587 0.5026 0.81427 0.0
H1458 H 0.76053 0.58045 0.78953 0.0
H1459 H 0.84237 0.54163 0.75956 0.0
H1460 H 0.87067 0.50571 0.74275 0.0
H1461 H 0.8099 0.51101 0.70021 0.0
H1462 H 0.781 0.54668 0.71687 0.0
H1463 H 0.78522 0.71629 0.74505 0.0
H1464 H 0.79116 0.67023 0.76063 0.0
H1465 H 0.73976 0.62682 0.72134 0.0
H1466 H 0.73271 0.67293 0.70598 0.0
H1467 H 0.79316 0.59932 0.72848 0.0
H1468 H 0.71105 0.63788 0.75982 0.0
H1469 H 0.68461 0.67489 0.77689 0.0
H1470 H 0.7493 0.67132 0.8173 0.0
H1471 H 0.77636 0.63457 0.80034 0.0
C1472 C 0.77753 0.48121 0.77498 0.0
C1473 C 0.78789 0.47875 0.79228 0.0
C1474 C 0.77623 0.50831 0.76671 0.0
C1475 C 0.78578 0.53349 0.77542 0.0
C1476 C 0.79686 0.53094 0.79255 0.0
C1477 C 0.79782 0.50386 0.80092 0.0
C1478 C 0.78262 0.56258 0.76702 0.0
C1479 C 0.76817 0.58467 0.77629 0.0
C1480 C 0.79206 0.5681 0.74961 0.0
C1481 C 0.80939 0.54665 0.73954 0.0
C1482 C 0.83492 0.53497 0.74668 0.0
C1483 C 0.85109 0.51469 0.73716 0.0
C1484 C 0.84206 0.50604 0.72044 0.0
C1485 C 0.81686 0.51771 0.71317 0.0
C1486 C 0.80059 0.53799 0.72264 0.0
C1487 C 0.77458 0.69714 0.7399 0.0
C1488 C 0.7585 0.69845 0.72419 0.0
C1489 C 0.7782 0.67076 0.74878 0.0
C1490 C 0.76596 0.64513 0.7421 0.0
C1491 C 0.74955 0.64635 0.72663 0.0
C1492 C 0.74565 0.67275 0.71784 0.0
C1493 C 0.77097 0.61684 0.75096 0.0
C1494 C 0.78575 0.595 0.74176 0.0
C1495 C 0.76218 0.61168 0.76848 0.0
C1496 C 0.74588 0.6337 0.77872 0.0
C1497 C 0.71977 0.64518 0.77227 0.0
C1498 C 0.70464 0.66607 0.78194 0.0
C1499 C 0.71531 0.67551 0.79814 0.0
C1500 C 0.74109 0.66402 0.80473 0.0
C1501 C 0.75632 0.64314 0.79511 0.0
H1502 H 0.70356 0.69168 0.80561 0.0
H1503 H 0.85461 0.49033 0.71309 0.0
loop_
_geom_bond_atom_site_label_1
_geom_bond_atom_site_label_2
_geom_bond_distance
_geom_bond_site_symmetry_2
_ccdc_geom_bond_type
Li0 N17 1.990 . S
Li0 O60 1.956 . S
Li0 O61 1.970 . S
Li0 O62 1.961 . S
Li1 N25 1.990 . S
Li1 O60 1.970 . S
Li1 O61 1.956 . S
Li1 O63 1.961 . S
Li2 N47 1.990 . S
Li2 O60 1.961 . S
Li2 O62 1.956 . S
Li2 O63 1.970 . S
Li3 N53 1.990 . S
Li3 O61 1.961 . S
Li3 O62 1.970 . S
Li3 O63 1.956 . S
C4 C6 1.348 . S
C4 C7 1.356 . S
C4 O60 1.325 . S
N5 C8 1.314 . S
N5 C9 1.279 . S
C6 C4 1.348 . S
C6 C8 1.353 . S
C6 H64 0.929 . S
C7 C4 1.356 . S
C7 C9 1.358 . S
C7 H65 0.930 . S
C8 N5 1.314 . S
C8 C6 1.353 . S
C8 H66 0.930 . S
C9 N5 1.279 . S
C9 C7 1.358 . S
C9 H67 0.930 . S
C10 C13 1.348 . S
C10 C14 1.356 . S
C10 O61 1.325 . S
C11 N12 1.279 . S
C11 C14 1.358 . S
C11 H68 0.930 . S
N12 C11 1.279 . S
N12 C15 1.314 . S
C13 C10 1.348 . S
C13 C15 1.353 . S
C13 H69 0.929 . S
C14 C10 1.356 . S
C14 C11 1.358 . S
C14 H70 0.930 . S
C15 N12 1.314 . S
C15 C13 1.353 . S
C15 H71 0.930 1_455 S
C16 N17 1.314 . S
C16 C21 1.353 . S
C16 H22 0.930 . S
N17 Li0 1.990 . S
N17 C16 1.314 . S
N17 C19 1.279 . S
C18 C19 1.358 . S
C18 C20 1.356 . S
C18 H72 0.930 . S
C19 N17 1.279 . S
C19 C18 1.358 . S
C19 H23 0.930 . S
C20 C18 1.356 . S
C20 C21 1.348 . S
C21 C16 1.353 . S
C21 C20 1.348 . S
C21 H73 0.929 1_455 S
H22 C16 0.930 . S
H23 C19 0.930 . S
C24 N25 1.314 . S
C24 C26 1.353 . S
C24 H30 0.930 . S
N25 Li1 1.990 . S
N25 C24 1.314 . S
N25 C28 1.279 . S
C26 C24 1.353 . S
C26 C29 1.348 . S
C26 H74 0.929 . S
C27 C28 1.358 . S
C27 C29 1.356 . S
C27 H75 0.930 . S
C28 N25 1.279 . S
C28 C27 1.358 . S
C28 H31 0.930 . S
C29 C26 1.348 . S
C29 C27 1.356 . S
H30 C24 0.930 . S
H31 C28 0.930 . S
C32 C34 1.348 . S
C32 C35 1.356 . S
C32 O62 1.325 . S
N33 C36 1.314 . S
N33 C37 1.279 . S
C34 C32 1.348 . S
C34 C36 1.353 . S
C34 H76 0.929 . S
C35 C32 1.356 . S
C35 C37 1.358 . S
C35 H77 0.930 . S
C36 N33 1.314 . S
C36 C34 1.353 . S
C36 H78 0.930 . S
C37 N33 1.279 . S
C37 C35 1.358 . S
C37 H79 0.930 . S
C38 C39 1.348 . S
C38 C40 1.356 . S
C38 O63 1.325 . S
C39 C38 1.348 . S
C39 C41 1.353 . S
C39 H80 0.929 . S
C40 C38 1.356 . S
C40 C42 1.358 . S
C40 H81 0.930 . S
C41 C39 1.353 . S
C41 N43 1.314 . S
C41 H82 0.930 . S
C42 C40 1.358 . S
C42 N43 1.279 . S
C42 H83 0.930 . S
N43 C41 1.314 . S
N43 C42 1.279 . S
C44 C46 1.353 . S
C44 N47 1.314 . S
C44 H50 0.930 . S
C45 N47 1.279 . S
C45 C48 1.358 . S
C45 H51 0.930 . S
C46 C44 1.353 . S
C46 C49 1.348 . S
C46 H84 0.929 . S
N47 Li2 1.990 . S
N47 C44 1.314 . S
N47 C45 1.279 . S
C48 C45 1.358 . S
C48 C49 1.356 . S
C48 H85 0.930 . S
C49 C46 1.348 . S
C49 C48 1.356 . S
H50 C44 0.930 . S
H51 C45 0.930 . S
C52 N53 1.314 . S
C52 C54 1.353 . S
C52 H58 0.930 . S
N53 Li3 1.990 . S
N53 C52 1.314 . S
N53 C56 1.279 . S
C54 C52 1.353 . S
C54 C57 1.348 . S
C54 H86 0.929 . S
C55 C56 1.358 . S
C55 C57 1.356 . S
C55 H87 0.930 . S
C56 N53 1.279 . S
C56 C55 1.358 . S
C56 H59 0.930 . S
C57 C54 1.348 . S
C57 C55 1.356 . S
H58 C52 0.930 . S
H59 C56 0.930 . S
O60 Li0 1.956 . S
O60 Li1 1.970 . S
O60 Li2 1.961 . S
O60 C4 1.325 . S
O61 Li0 1.970 . S
O61 Li1 1.956 . S
O61 Li3 1.961 . S
O61 C10 1.325 . S
O62 Li0 1.961 . S
O62 Li2 1.956 . S
O62 Li3 1.970 . S
O62 C32 1.325 . S
O63 Li1 1.961 . S
O63 Li2 1.970 . S
O63 Li3 1.956 . S
O63 C38 1.325 . S
H64 C6 0.929 . S
H65 C7 0.930 . S
H66 C8 0.930 . S
H67 C9 0.930 . S
H68 C11 0.930 . S
H69 C13 0.929 . S
H70 C14 0.930 . S
H71 C15 0.930 1_655 S
H72 C18 0.930 . S
H73 C21 0.929 1_655 S
H74 C26 0.929 . S
H75 C27 0.930 . S
H76 C34 0.929 . S
H77 C35 0.930 . S
H78 C36 0.930 . S
H79 C37 0.930 . S
H80 C39 0.929 . S
H81 C40 0.930 . S
H82 C41 0.930 . S
H83 C42 0.930 . S
H84 C46 0.929 . S
H85 C48 0.930 . S
H86 C54 0.929 . S
H87 C55 0.930 . S
Li88 N105 1.990 . S
Li88 O148 1.956 . S
Li88 O149 1.970 . S
Li88 O150 1.961 . S
Li89 N113 1.990 . S
Li89 O148 1.970 . S
Li89 O149 1.956 . S
Li89 O151 1.961 . S
Li90 N135 1.990 . S
Li90 O148 1.961 . S
Li90 O150 1.956 . S
Li90 O151 1.970 . S
Li91 N141 1.990 . S
Li91 O149 1.961 . S
Li91 O150 1.970 . S
Li91 O151 1.956 . S
C92 C94 1.348 . S
C92 C95 1.356 . S
C92 O148 1.325 . S
N93 C96 1.314 . S
N93 C97 1.279 . S
C94 C92 1.348 . S
C94 C96 1.353 . S
C94 H152 0.929 . S
C95 C92 1.356 . S
C95 C97 1.358 . S
C95 H153 0.930 . S
C96 N93 1.314 . S
C96 C94 1.353 . S
C96 H154 0.930 . S
C97 N93 1.279 . S
C97 C95 1.358 . S
C97 H155 0.930 . S
C98 C101 1.348 . S
C98 C102 1.356 . S
C98 O149 1.325 . S
C99 N100 1.279 . S
C99 C102 1.358 . S
C99 H156 0.930 . S
N100 C99 1.279 . S
N100 C103 1.314 . S
C101 C98 1.348 . S
C101 C103 1.353 . S
C101 H157 0.929 . S
C102 C98 1.356 . S
C102 C99 1.358 . S
C102 H158 0.930 . S
C103 N100 1.314 . S
C103 C101 1.353 . S
C103 H159 0.930 . S
C104 N105 1.314 . S
C104 C109 1.353 . S
C104 H110 0.930 . S
N105 Li88 1.990 . S
N105 C104 1.314 . S
N105 C107 1.279 . S
C106 C107 1.358 . S
C106 C108 1.356 . S
C106 H160 0.930 . S
C107 N105 1.279 . S
C107 C106 1.358 . S
C107 H111 0.930 . S
C108 C106 1.356 . S
C108 C109 1.348 . S
C109 C104 1.353 . S
C109 C108 1.348 . S
C109 H161 0.929 . S
H110 C104 0.930 . S
H111 C107 0.930 . S
C112 N113 1.314 . S
C112 C114 1.353 . S
C112 H118 0.930 . S
N113 Li89 1.990 . S
N113 C112 1.314 . S
N113 C116 1.279 . S
C114 C112 1.353 . S
C114 C117 1.348 . S
C114 H162 0.929 . S
C115 C116 1.358 . S
C115 C117 1.356 . S
C115 H163 0.930 . S
C116 N113 1.279 . S
C116 C115 1.358 . S
C116 H119 0.930 . S
C117 C114 1.348 . S
C117 C115 1.356 . S
H118 C112 0.930 . S
H119 C116 0.930 . S
C120 C122 1.348 . S
C120 C123 1.356 . S
C120 O150 1.325 . S
N121 C124 1.314 . S
N121 C125 1.279 . S
C122 C120 1.348 . S
C122 C124 1.353 . S
C122 H164 0.929 . S
C123 C120 1.356 . S
C123 C125 1.358 . S
C123 H165 0.930 . S
C124 N121 1.314 . S
C124 C122 1.353 . S
C124 H166 0.930 . S
C125 N121 1.279 . S
C125 C123 1.358 . S
C125 H167 0.930 . S
C126 C127 1.348 . S
C126 C128 1.356 . S
C126 O151 1.325 . S
C127 C126 1.348 . S
C127 C129 1.353 . S
C127 H168 0.929 . S
C128 C126 1.356 . S
C128 C130 1.358 . S
C128 H169 0.930 . S
C129 C127 1.353 . S
C129 N131 1.314 . S
C129 H170 0.930 . S
C130 C128 1.358 . S
C130 N131 1.279 . S
C130 H171 0.930 . S
N131 C129 1.314 . S
N131 C130 1.279 . S
C132 C134 1.353 . S
C132 N135 1.314 . S
C132 H138 0.930 . S
C133 N135 1.279 . S
C133 C136 1.358 . S
C133 H139 0.930 . S
C134 C132 1.353 . S
C134 C137 1.348 . S
C134 H172 0.929 . S
N135 Li90 1.990 . S
N135 C132 1.314 . S
N135 C133 1.279 . S
C136 C133 1.358 . S
C136 C137 1.356 . S
C136 H173 0.930 . S
C137 C134 1.348 . S
C137 C136 1.356 . S
H138 C132 0.930 . S
H139 C133 0.930 . S
C140 N141 1.314 . S
C140 C142 1.353 . S
C140 H146 0.930 . S
N141 Li91 1.990 . S
N141 C140 1.314 . S
N141 C144 1.279 . S
C142 C140 1.353 . S
C142 C145 1.348 . S
C142 H174 0.929 . S
C143 C144 1.358 . S
C143 C145 1.356 . S
C143 H175 0.930 . S
C144 N141 1.279 . S
C144 C143 1.358 . S
C144 H147 0.930 . S
C145 C142 1.348 . S
C145 C143 1.356 . S
H146 C140 0.930 . S
H147 C144 0.930 . S
O148 Li88 1.956 . S
O148 Li89 1.970 . S
O148 Li90 1.961 . S
O148 C92 1.325 . S
O149 Li88 1.970 . S
O149 Li89 1.956 . S
O149 Li91 1.961 . S
O149 C98 1.325 . S
O150 Li88 1.961 . S
O150 Li90 1.956 . S
O150 Li91 1.970 . S
O150 C120 1.325 . S
O151 Li89 1.961 . S
O151 Li90 1.970 . S
O151 Li91 1.956 . S
O151 C126 1.325 . S
H152 C94 0.929 . S
H153 C95 0.930 . S
H154 C96 0.930 . S
H155 C97 0.930 . S
H156 C99 0.930 . S
H157 C101 0.929 . S
H158 C102 0.930 . S
H159 C103 0.930 . S
H160 C106 0.930 . S
H161 C109 0.929 . S
H162 C114 0.929 . S
H163 C115 0.930 . S
H164 C122 0.929 . S
H165 C123 0.930 . S
H166 C124 0.930 . S
H167 C125 0.930 . S
H168 C127 0.929 . S
H169 C128 0.930 . S
H170 C129 0.930 . S
H171 C130 0.930 . S
H172 C134 0.929 . S
H173 C136 0.930 . S
H174 C142 0.929 . S
H175 C143 0.930 . S
Li176 N193 1.990 . S
Li176 O236 1.956 . S
Li176 O237 1.970 . S
Li176 O238 1.961 . S
Li177 N201 1.990 . S
Li177 O236 1.970 . S
Li177 O237 1.956 . S
Li177 O239 1.961 . S
Li178 N223 1.990 . S
Li178 O236 1.961 . S
Li178 O238 1.956 . S
Li178 O239 1.970 . S
Li179 N229 1.990 . S
Li179 O237 1.961 . S
Li179 O238 1.970 . S
Li179 O239 1.956 . S
C180 C182 1.348 . S
C180 C183 1.356 . S
C180 O236 1.325 . S
N181 C184 1.314 . S
N181 C185 1.279 . S
C182 C180 1.348 . S
C182 C184 1.353 . S
C182 H240 0.929 . S
C183 C180 1.356 . S
C183 C185 1.358 . S
C183 H241 0.930 . S
C184 N181 1.314 . S
C184 C182 1.353 . S
C184 H242 0.930 . S
C185 N181 1.279 . S
C185 C183 1.358 . S
C185 H243 0.930 . S
C186 C189 1.348 . S
C186 C190 1.356 . S
C186 O237 1.325 . S
C187 N188 1.279 . S
C187 C190 1.358 . S
C187 H244 0.930 . S
N188 C187 1.279 . S
N188 C191 1.314 . S
C189 C186 1.348 . S
C189 C191 1.353 . S
C189 H245 0.929 . S
C190 C186 1.356 . S
C190 C187 1.358 . S
C190 H246 0.930 . S
C191 N188 1.314 . S
C191 C189 1.353 . S
C191 H247 0.930 1_655 S
C192 N193 1.314 . S
C192 C197 1.353 . S
C192 H198 0.930 . S
N193 Li176 1.990 . S
N193 C192 1.314 . S
N193 C195 1.279 . S
C194 C195 1.358 . S
C194 C196 1.356 . S
C194 H248 0.930 . S
C195 N193 1.279 . S
C195 C194 1.358 . S
C195 H199 0.930 . S
C196 C194 1.356 . S
C196 C197 1.348 . S
C197 C192 1.353 . S
C197 C196 1.348 . S
C197 H249 0.929 1_655 S
H198 C192 0.930 . S
H199 C195 0.930 . S
C200 N201 1.314 . S
C200 C202 1.353 . S
C200 H206 0.930 . S
N201 Li177 1.990 . S
N201 C200 1.314 . S
N201 C204 1.279 . S
C202 C200 1.353 . S
C202 C205 1.348 . S
C202 H250 0.929 . S
C203 C204 1.358 . S
C203 C205 1.356 . S
C203 H251 0.930 . S
C204 N201 1.279 . S
C204 C203 1.358 . S
C204 H207 0.930 . S
C205 C202 1.348 . S
C205 C203 1.356 . S
H206 C200 0.930 . S
H207 C204 0.930 . S
C208 C210 1.348 . S
C208 C211 1.356 . S
C208 O238 1.325 . S
N209 C212 1.314 . S
N209 C213 1.279 . S
C210 C208 1.348 . S
C210 C212 1.353 . S
C210 H252 0.929 . S
C211 C208 1.356 . S
C211 C213 1.358 . S
C211 H253 0.930 . S
C212 N209 1.314 . S
C212 C210 1.353 . S
C212 H254 0.930 . S
C213 N209 1.279 . S
C213 C211 1.358 . S
C213 H255 0.930 . S
C214 C215 1.348 . S
C214 C216 1.356 . S
C214 O239 1.325 . S
C215 C214 1.348 . S
C215 C217 1.353 . S
C215 H256 0.929 . S
C216 C214 1.356 . S
C216 C218 1.358 . S
C216 H257 0.930 . S
C217 C215 1.353 . S
C217 N219 1.314 . S
C217 H258 0.930 . S
C218 C216 1.358 . S
C218 N219 1.279 . S
C218 H259 0.930 . S
N219 C217 1.314 . S
N219 C218 1.279 . S
C220 C222 1.353 . S
C220 N223 1.314 . S
C220 H226 0.930 . S
C221 N223 1.279 . S
C221 C224 1.358 . S
C221 H227 0.930 . S
C222 C220 1.353 . S
C222 C225 1.348 . S
C222 H260 0.929 . S
N223 Li178 1.990 . S
N223 C220 1.314 . S
N223 C221 1.279 . S
C224 C221 1.358 . S
C224 C225 1.356 . S
C224 H261 0.930 . S
C225 C222 1.348 . S
C225 C224 1.356 . S
H226 C220 0.930 . S
H227 C221 0.930 . S
C228 N229 1.314 . S
C228 C230 1.353 . S
C228 H234 0.930 . S
N229 Li179 1.990 . S
N229 C228 1.314 . S
N229 C232 1.279 . S
C230 C228 1.353 . S
C230 C233 1.348 . S
C230 H262 0.929 . S
C231 C232 1.358 . S
C231 C233 1.356 . S
C231 H263 0.930 . S
C232 N229 1.279 . S
C232 C231 1.358 . S
C232 H235 0.930 . S
C233 C230 1.348 . S
C233 C231 1.356 . S
H234 C228 0.930 . S
H235 C232 0.930 . S
O236 Li176 1.956 . S
O236 Li177 1.970 . S
O236 Li178 1.961 . S
O236 C180 1.325 . S
O237 Li176 1.970 . S
O237 Li177 1.956 . S
O237 Li179 1.961 . S
O237 C186 1.325 . S
O238 Li176 1.961 . S
O238 Li178 1.956 . S
O238 Li179 1.970 . S
O238 C208 1.325 . S
O239 Li177 1.961 . S
O239 Li178 1.970 . S
O239 Li179 1.956 . S
O239 C214 1.325 . S
H240 C182 0.929 . S
H241 C183 0.930 . S
H242 C184 0.930 . S
H243 C185 0.930 . S
H244 C187 0.930 . S
H245 C189 0.929 . S
H246 C190 0.930 . S
H247 C191 0.930 1_455 S
H248 C194 0.930 . S
H249 C197 0.929 1_455 S
H250 C202 0.929 . S
H251 C203 0.930 . S
H252 C210 0.929 . S
H253 C211 0.930 . S
H254 C212 0.930 . S
H255 C213 0.930 . S
H256 C215 0.929 . S
H257 C216 0.930 . S
H258 C217 0.930 . S
H259 C218 0.930 . S
H260 C222 0.929 . S
H261 C224 0.930 . S
H262 C230 0.929 . S
H263 C231 0.930 . S
Li264 N281 1.990 . S
Li264 O324 1.956 . S
Li264 O325 1.970 . S
Li264 O326 1.961 . S
Li265 N289 1.990 . S
Li265 O324 1.970 . S
Li265 O325 1.956 . S
Li265 O327 1.961 . S
Li266 N311 1.990 . S
Li266 O324 1.961 . S
Li266 O326 1.956 . S
Li266 O327 1.970 . S
Li267 N317 1.990 . S
Li267 O325 1.961 . S
Li267 O326 1.970 . S
Li267 O327 1.956 . S
C268 C270 1.348 . S
C268 C271 1.356 . S
C268 O324 1.325 . S
N269 C272 1.314 . S
N269 C273 1.279 . S
C270 C268 1.348 . S
C270 C272 1.353 . S
C270 H328 0.929 . S
C271 C268 1.356 . S
C271 C273 1.358 . S
C271 H329 0.930 . S
C272 N269 1.314 . S
C272 C270 1.353 . S
C272 H330 0.930 . S
C273 N269 1.279 . S
C273 C271 1.358 . S
C273 H331 0.930 . S
C274 C277 1.348 . S
C274 C278 1.356 . S
C274 O325 1.325 . S
C275 N276 1.279 . S
C275 C278 1.358 . S
C275 H332 0.930 . S
N276 C275 1.279 . S
N276 C279 1.314 . S
C277 C274 1.348 . S
C277 C279 1.353 . S
C277 H333 0.929 . S
C278 C274 1.356 . S
C278 C275 1.358 . S
C278 H334 0.930 . S
C279 N276 1.314 . S
C279 C277 1.353 . S
C279 H335 0.930 . S
C280 N281 1.314 . S
C280 C285 1.353 . S
C280 H286 0.930 . S
N281 Li264 1.990 . S
N281 C280 1.314 . S
N281 C283 1.279 . S
C282 C283 1.358 . S
C282 C284 1.356 . S
C282 H336 0.930 . S
C283 N281 1.279 . S
C283 C282 1.358 . S
C283 H287 0.930 . S
C284 C282 1.356 . S
C284 C285 1.348 . S
C285 C280 1.353 . S
C285 C284 1.348 . S
C285 H337 0.929 . S
H286 C280 0.930 . S
H287 C283 0.930 . S
C288 N289 1.314 . S
C288 C290 1.353 . S
C288 H294 0.930 . S
N289 Li265 1.990 . S
N289 C288 1.314 . S
N289 C292 1.279 . S
C290 C288 1.353 . S
C290 C293 1.348 . S
C290 H338 0.929 . S
C291 C292 1.358 . S
C291 C293 1.356 . S
C291 H339 0.930 . S
C292 N289 1.279 . S
C292 C291 1.358 . S
C292 H295 0.930 . S
C293 C290 1.348 . S
C293 C291 1.356 . S
H294 C288 0.930 . S
H295 C292 0.930 . S
C296 C298 1.348 . S
C296 C299 1.356 . S
C296 O326 1.325 . S
N297 C300 1.314 . S
N297 C301 1.279 . S
C298 C296 1.348 . S
C298 C300 1.353 . S
C298 H340 0.929 . S
C299 C296 1.356 . S
C299 C301 1.358 . S
C299 H341 0.930 . S
C300 N297 1.314 . S
C300 C298 1.353 . S
C300 H342 0.930 . S
C301 N297 1.279 . S
C301 C299 1.358 . S
C301 H343 0.930 . S
C302 C303 1.348 . S
C302 C304 1.356 . S
C302 O327 1.325 . S
C303 C302 1.348 . S
C303 C305 1.353 . S
C303 H344 0.929 . S
C304 C302 1.356 . S
C304 C306 1.358 . S
C304 H345 0.930 . S
C305 C303 1.353 . S
C305 N307 1.314 . S
C305 H346 0.930 . S
C306 C304 1.358 . S
C306 N307 1.279 . S
C306 H347 0.930 . S
N307 C305 1.314 . S
N307 C306 1.279 . S
C308 C310 1.353 . S
C308 N311 1.314 . S
C308 H314 0.930 . S
C309 N311 1.279 . S
C309 C312 1.358 . S
C309 H315 0.930 . S
C310 C308 1.353 . S
C310 C313 1.348 . S
C310 H348 0.929 . S
N311 Li266 1.990 . S
N311 C308 1.314 . S
N311 C309 1.279 . S
C312 C309 1.358 . S
C312 C313 1.356 . S
C312 H349 0.930 . S
C313 C310 1.348 . S
C313 C312 1.356 . S
H314 C308 0.930 . S
H315 C309 0.930 . S
C316 N317 1.314 . S
C316 C318 1.353 . S
C316 H322 0.930 . S
N317 Li267 1.990 . S
N317 C316 1.314 . S
N317 C320 1.279 . S
C318 C316 1.353 . S
C318 C321 1.348 . S
C318 H350 0.929 . S
C319 C320 1.358 . S
C319 C321 1.356 . S
C319 H351 0.930 . S
C320 N317 1.279 . S
C320 C319 1.358 . S
C320 H323 0.930 . S
C321 C318 1.348 . S
C321 C319 1.356 . S
H322 C316 0.930 . S
H323 C320 0.930 . S
O324 Li264 1.956 . S
O324 Li265 1.970 . S
O324 Li266 1.961 . S
O324 C268 1.325 . S
O325 Li264 1.970 . S
O325 Li265 1.956 . S
O325 Li267 1.961 . S
O325 C274 1.325 . S
O326 Li264 1.961 . S
O326 Li266 1.956 . S
O326 Li267 1.970 . S
O326 C296 1.325 . S
O327 Li265 1.961 . S
O327 Li266 1.970 . S
O327 Li267 1.956 . S
O327 C302 1.325 . S
H328 C270 0.929 . S
H329 C271 0.930 . S
H330 C272 0.930 . S
H331 C273 0.930 . S
H332 C275 0.930 . S
H333 C277 0.929 . S
H334 C278 0.930 . S
H335 C279 0.930 . S
H336 C282 0.930 . S
H337 C285 0.929 . S
H338 C290 0.929 . S
H339 C291 0.930 . S
H340 C298 0.929 . S
H341 C299 0.930 . S
H342 C300 0.930 . S
H343 C301 0.930 . S
H344 C303 0.929 . S
H345 C304 0.930 . S
H346 C305 0.930 . S
H347 C306 0.930 . S
H348 C310 0.929 . S
H349 C312 0.930 . S
H350 C318 0.929 . S
H351 C319 0.930 . S
Li352 N369 1.990 . S
Li352 O412 1.956 . S
Li352 O413 1.970 . S
Li352 O414 1.961 . S
Li353 N377 1.990 . S
Li353 O412 1.970 . S
Li353 O413 1.956 . S
Li353 O415 1.961 . S
Li354 N399 1.990 . S
Li354 O412 1.961 . S
Li354 O414 1.956 . S
Li354 O415 1.970 . S
Li355 N405 1.990 . S
Li355 O413 1.961 . S
Li355 O414 1.970 . S
Li355 O415 1.956 . S
C356 C358 1.348 . S
C356 C359 1.356 . S
C356 O412 1.325 . S
N357 C360 1.314 . S
N357 C361 1.279 . S
C358 C356 1.348 . S
C358 C360 1.353 . S
C358 H416 0.929 . S
C359 C356 1.356 . S
C359 C361 1.358 . S
C359 H417 0.930 . S
C360 N357 1.314 . S
C360 C358 1.353 . S
C360 H418 0.930 . S
C361 N357 1.279 . S
C361 C359 1.358 . S
C361 H419 0.930 . S
C362 C365 1.348 . S
C362 C366 1.356 . S
C362 O413 1.325 . S
C363 N364 1.279 . S
C363 C366 1.358 . S
C363 H420 0.930 . S
N364 C363 1.279 . S
N364 C367 1.314 . S
C365 C362 1.348 . S
C365 C367 1.353 . S
C365 H421 0.929 . S
C366 C362 1.356 . S
C366 C363 1.358 . S
C366 H422 0.930 . S
C367 N364 1.314 . S
C367 C365 1.353 . S
C367 H423 0.930 . S
C368 N369 1.314 . S
C368 C373 1.353 . S
C368 H374 0.930 . S
N369 Li352 1.990 . S
N369 C368 1.314 . S
N369 C371 1.279 . S
C370 C371 1.358 . S
C370 C372 1.356 . S
C370 H424 0.930 . S
C371 N369 1.279 . S
C371 C370 1.358 . S
C371 H375 0.930 . S
C372 C370 1.356 . S
C372 C373 1.348 . S
C373 C368 1.353 . S
C373 C372 1.348 . S
C373 H425 0.929 . S
H374 C368 0.930 . S
H375 C371 0.930 . S
C376 N377 1.314 . S
C376 C378 1.353 . S
C376 H382 0.930 . S
N377 Li353 1.990 . S
N377 C376 1.314 . S
N377 C380 1.279 . S
C378 C376 1.353 . S
C378 C381 1.348 . S
C378 H426 0.929 . S
C379 C380 1.358 . S
C379 C381 1.356 . S
C379 H427 0.930 . S
C380 N377 1.279 . S
C380 C379 1.358 . S
C380 H383 0.930 . S
C381 C378 1.348 . S
C381 C379 1.356 . S
H382 C376 0.930 . S
H383 C380 0.930 . S
C384 C386 1.348 . S
C384 C387 1.356 . S
C384 O414 1.325 . S
N385 C388 1.314 . S
N385 C389 1.279 . S
C386 C384 1.348 . S
C386 C388 1.353 . S
C386 H428 0.929 . S
C387 C384 1.356 . S
C387 C389 1.358 . S
C387 H429 0.930 . S
C388 N385 1.314 . S
C388 C386 1.353 . S
C388 H430 0.930 . S
C389 N385 1.279 . S
C389 C387 1.358 . S
C389 H431 0.930 . S
C390 C391 1.348 . S
C390 C392 1.356 . S
C390 O415 1.325 . S
C391 C390 1.348 . S
C391 C393 1.353 . S
C391 H432 0.929 . S
C392 C390 1.356 . S
C392 C394 1.358 . S
C392 H433 0.930 . S
C393 C391 1.353 . S
C393 N395 1.314 . S
C393 H434 0.930 . S
C394 C392 1.358 . S
C394 N395 1.279 . S
C394 H435 0.930 . S
N395 C393 1.314 . S
N395 C394 1.279 . S
C396 C398 1.353 . S
C396 N399 1.314 . S
C396 H402 0.930 . S
C397 N399 1.279 . S
C397 C400 1.358 . S
C397 H403 0.930 . S
C398 C396 1.353 . S
C398 C401 1.348 . S
C398 H436 0.929 . S
N399 Li354 1.990 . S
N399 C396 1.314 . S
N399 C397 1.279 . S
C400 C397 1.358 . S
C400 C401 1.356 . S
C400 H437 0.930 . S
C401 C398 1.348 . S
C401 C400 1.356 . S
H402 C396 0.930 . S
H403 C397 0.930 . S
C404 N405 1.314 . S
C404 C406 1.353 . S
C404 H410 0.930 . S
N405 Li355 1.990 . S
N405 C404 1.314 . S
N405 C408 1.279 . S
C406 C404 1.353 . S
C406 C409 1.348 . S
C406 H438 0.929 . S
C407 C408 1.358 . S
C407 C409 1.356 . S
C407 H439 0.930 . S
C408 N405 1.279 . S
C408 C407 1.358 . S
C408 H411 0.930 . S
C409 C406 1.348 . S
C409 C407 1.356 . S
H410 C404 0.930 . S
H411 C408 0.930 . S
O412 Li352 1.956 . S
O412 Li353 1.970 . S
O412 Li354 1.961 . S
O412 C356 1.325 . S
O413 Li352 1.970 . S
O413 Li353 1.956 . S
O413 Li355 1.961 . S
O413 C362 1.325 . S
O414 Li352 1.961 . S
O414 Li354 1.956 . S
O414 Li355 1.970 . S
O414 C384 1.325 . S
O415 Li353 1.961 . S
O415 Li354 1.970 . S
O415 Li355 1.956 . S
O415 C390 1.325 . S
H416 C358 0.929 . S
H417 C359 0.930 . S
H418 C360 0.930 . S
H419 C361 0.930 . S
H420 C363 0.930 . S
H421 C365 0.929 . S
H422 C366 0.930 . S
H423 C367 0.930 . S
H424 C370 0.930 . S
H425 C373 0.929 . S
H426 C378 0.929 . S
H427 C379 0.930 . S
H428 C386 0.929 . S
H429 C387 0.930 . S
H430 C388 0.930 . S
H431 C389 0.930 . S
H432 C391 0.929 . S
H433 C392 0.930 . S
H434 C393 0.930 . S
H435 C394 0.930 . S
H436 C398 0.929 . S
H437 C400 0.930 . S
H438 C406 0.929 . S
H439 C407 0.930 . S
Li440 N457 1.990 . S
Li440 O500 1.956 . S
Li440 O501 1.970 . S
Li440 O502 1.961 . S
Li441 N465 1.990 . S
Li441 O500 1.970 . S
Li441 O501 1.956 . S
Li441 O503 1.961 . S
Li442 N487 1.990 . S
Li442 O500 1.961 . S
Li442 O502 1.956 . S
Li442 O503 1.970 . S
Li443 N493 1.990 . S
Li443 O501 1.961 . S
Li443 O502 1.970 . S
Li443 O503 1.956 . S
C444 C446 1.348 . S
C444 C447 1.356 . S
C444 O500 1.325 . S
N445 C448 1.314 . S
N445 C449 1.279 . S
C446 C444 1.348 . S
C446 C448 1.353 . S
C446 H504 0.929 . S
C447 C444 1.356 . S
C447 C449 1.358 . S
C447 H505 0.930 . S
C448 N445 1.314 . S
C448 C446 1.353 . S
C448 H506 0.930 . S
C449 N445 1.279 . S
C449 C447 1.358 . S
C449 H507 0.930 . S
C450 C453 1.348 . S
C450 C454 1.356 . S
C450 O501 1.325 . S
C451 N452 1.279 . S
C451 C454 1.358 . S
C451 H508 0.930 . S
N452 C451 1.279 . S
N452 C455 1.314 . S
C453 C450 1.348 . S
C453 C455 1.353 . S
C453 H509 0.929 . S
C454 C450 1.356 . S
C454 C451 1.358 . S
C454 H510 0.930 . S
C455 N452 1.314 . S
C455 C453 1.353 . S
C455 H511 0.930 . S
C456 N457 1.314 . S
C456 C461 1.353 . S
C456 H462 0.930 . S
N457 Li440 1.990 . S
N457 C456 1.314 . S
N457 C459 1.279 . S
C458 C459 1.358 . S
C458 C460 1.356 . S
C458 H512 0.930 . S
C459 N457 1.279 . S
C459 C458 1.358 . S
C459 H463 0.930 . S
C460 C458 1.356 . S
C460 C461 1.348 . S
C461 C456 1.353 . S
C461 C460 1.348 . S
C461 H513 0.929 . S
H462 C456 0.930 . S
H463 C459 0.930 . S
C464 N465 1.314 . S
C464 C466 1.353 . S
C464 H470 0.930 . S
N465 Li441 1.990 . S
N465 C464 1.314 . S
N465 C468 1.279 . S
C466 C464 1.353 . S
C466 C469 1.348 . S
C466 H514 0.929 . S
C467 C468 1.358 . S
C467 C469 1.356 . S
C467 H515 0.930 . S
C468 N465 1.279 . S
C468 C467 1.358 . S
C468 H471 0.930 . S
C469 C466 1.348 . S
C469 C467 1.356 . S
H470 C464 0.930 . S
H471 C468 0.930 . S
C472 C474 1.348 . S
C472 C475 1.356 . S
C472 O502 1.325 . S
N473 C476 1.314 . S
N473 C477 1.279 . S
C474 C472 1.348 . S
C474 C476 1.353 . S
C474 H516 0.929 . S
C475 C472 1.356 . S
C475 C477 1.358 . S
C475 H517 0.930 . S
C476 N473 1.314 . S
C476 C474 1.353 . S
C476 H518 0.930 . S
C477 N473 1.279 . S
C477 C475 1.358 . S
C477 H519 0.930 . S
C478 C479 1.348 . S
C478 C480 1.356 . S
C478 O503 1.325 . S
C479 C478 1.348 . S
C479 C481 1.353 . S
C479 H520 0.929 . S
C480 C478 1.356 . S
C480 C482 1.358 . S
C480 H521 0.930 . S
C481 C479 1.353 . S
C481 N483 1.314 . S
C481 H522 0.930 . S
C482 C480 1.358 . S
C482 N483 1.279 . S
C482 H523 0.930 . S
N483 C481 1.314 . S
N483 C482 1.279 . S
C484 C486 1.353 . S
C484 N487 1.314 . S
C484 H490 0.930 . S
C485 N487 1.279 . S
C485 C488 1.358 . S
C485 H491 0.930 . S
C486 C484 1.353 . S
C486 C489 1.348 . S
C486 H524 0.929 . S
N487 Li442 1.990 . S
N487 C484 1.314 . S
N487 C485 1.279 . S
C488 C485 1.358 . S
C488 C489 1.356 . S
C488 H525 0.930 . S
C489 C486 1.348 . S
C489 C488 1.356 . S
H490 C484 0.930 . S
H491 C485 0.930 . S
C492 N493 1.314 . S
C492 C494 1.353 . S
C492 H498 0.930 . S
N493 Li443 1.990 . S
N493 C492 1.314 . S
N493 C496 1.279 . S
C494 C492 1.353 . S
C494 C497 1.348 . S
C494 H526 0.929 . S
C495 C496 1.358 . S
C495 C497 1.356 . S
C495 H527 0.930 1_545 S
C496 N493 1.279 . S
C496 C495 1.358 . S
C496 H499 0.930 . S
C497 C494 1.348 . S
C497 C495 1.356 . S
H498 C492 0.930 . S
H499 C496 0.930 . S
O500 Li440 1.956 . S
O500 Li441 1.970 . S
O500 Li442 1.961 . S
O500 C444 1.325 . S
O501 Li440 1.970 . S
O501 Li441 1.956 . S
O501 Li443 1.961 . S
O501 C450 1.325 . S
O502 Li440 1.961 . S
O502 Li442 1.956 . S
O502 Li443 1.970 . S
O502 C472 1.325 . S
O503 Li441 1.961 . S
O503 Li442 1.970 . S
O503 Li443 1.956 . S
O503 C478 1.325 . S
H504 C446 0.929 . S
H505 C447 0.930 . S
H506 C448 0.930 . S
H507 C449 0.930 . S
H508 C451 0.930 . S
H509 C453 0.929 . S
H510 C454 0.930 . S
H511 C455 0.930 . S
H512 C458 0.930 . S
H513 C461 0.929 . S
H514 C466 0.929 . S
H515 C467 0.930 . S
H516 C474 0.929 . S
H517 C475 0.930 . S
H518 C476 0.930 . S
H519 C477 0.930 . S
H520 C479 0.929 . S
H521 C480 0.930 . S
H522 C481 0.930 . S
H523 C482 0.930 . S
H524 C486 0.929 . S
H525 C488 0.930 . S
H526 C494 0.929 . S
H527 C495 0.930 1_565 S
Li528 N545 1.990 . S
Li528 O588 1.956 . S
Li528 O589 1.970 . S
Li528 O590 1.961 . S
Li529 N553 1.990 . S
Li529 O588 1.970 . S
Li529 O589 1.956 . S
Li529 O591 1.961 . S
Li530 N575 1.990 . S
Li530 O588 1.961 . S
Li530 O590 1.956 . S
Li530 O591 1.970 . S
Li531 N581 1.990 . S
Li531 O589 1.961 . S
Li531 O590 1.970 . S
Li531 O591 1.956 . S
C532 C534 1.348 . S
C532 C535 1.356 . S
C532 O588 1.325 . S
N533 C536 1.314 . S
N533 C537 1.279 . S
C534 C532 1.348 . S
C534 C536 1.353 . S
C534 H592 0.929 . S
C535 C532 1.356 . S
C535 C537 1.358 . S
C535 H593 0.930 . S
C536 N533 1.314 . S
C536 C534 1.353 . S
C536 H594 0.930 . S
C537 N533 1.279 . S
C537 C535 1.358 . S
C537 H595 0.930 . S
C538 C541 1.348 . S
C538 C542 1.356 . S
C538 O589 1.325 . S
C539 N540 1.279 . S
C539 C542 1.358 . S
C539 H596 0.930 . S
N540 C539 1.279 . S
N540 C543 1.314 . S
C541 C538 1.348 . S
C541 C543 1.353 . S
C541 H597 0.929 . S
C542 C538 1.356 . S
C542 C539 1.358 . S
C542 H598 0.930 . S
C543 N540 1.314 . S
C543 C541 1.353 . S
C543 H599 0.930 . S
C544 N545 1.314 . S
C544 C549 1.353 . S
C544 H550 0.930 . S
N545 Li528 1.990 . S
N545 C544 1.314 . S
N545 C547 1.279 . S
C546 C547 1.358 . S
C546 C548 1.356 . S
C546 H600 0.930 . S
C547 N545 1.279 . S
C547 C546 1.358 . S
C547 H551 0.930 . S
C548 C546 1.356 . S
C548 C549 1.348 . S
C549 C544 1.353 . S
C549 C548 1.348 . S
C549 H601 0.929 . S
H550 C544 0.930 . S
H551 C547 0.930 . S
C552 N553 1.314 . S
C552 C554 1.353 . S
C552 H558 0.930 . S
N553 Li529 1.990 . S
N553 C552 1.314 . S
N553 C556 1.279 . S
C554 C552 1.353 . S
C554 C557 1.348 . S
C554 H602 0.929 . S
C555 C556 1.358 . S
C555 C557 1.356 . S
C555 H603 0.930 . S
C556 N553 1.279 . S
C556 C555 1.358 . S
C556 H559 0.930 . S
C557 C554 1.348 . S
C557 C555 1.356 . S
H558 C552 0.930 . S
H559 C556 0.930 . S
C560 C562 1.348 . S
C560 C563 1.356 . S
C560 O590 1.325 . S
N561 C564 1.314 . S
N561 C565 1.279 . S
C562 C560 1.348 . S
C562 C564 1.353 . S
C562 H604 0.929 . S
C563 C560 1.356 . S
C563 C565 1.358 . S
C563 H605 0.930 . S
C564 N561 1.314 . S
C564 C562 1.353 . S
C564 H606 0.930 . S
C565 N561 1.279 . S
C565 C563 1.358 . S
C565 H607 0.930 . S
C566 C567 1.348 . S
C566 C568 1.356 . S
C566 O591 1.325 . S
C567 C566 1.348 . S
C567 C569 1.353 . S
C567 H608 0.929 . S
C568 C566 1.356 . S
C568 C570 1.358 . S
C568 H609 0.930 . S
C569 C567 1.353 . S
C569 N571 1.314 . S
C569 H610 0.930 . S
C570 C568 1.358 . S
C570 N571 1.279 . S
C570 H611 0.930 . S
N571 C569 1.314 . S
N571 C570 1.279 . S
C572 C574 1.353 . S
C572 N575 1.314 . S
C572 H578 0.930 . S
C573 N575 1.279 . S
C573 C576 1.358 . S
C573 H579 0.930 . S
C574 C572 1.353 . S
C574 C577 1.348 . S
C574 H612 0.929 . S
N575 Li530 1.990 . S
N575 C572 1.314 . S
N575 C573 1.279 . S
C576 C573 1.358 . S
C576 C577 1.356 . S
C576 H613 0.930 . S
C577 C574 1.348 . S
C577 C576 1.356 . S
H578 C572 0.930 . S
H579 C573 0.930 . S
C580 N581 1.314 . S
C580 C582 1.353 . S
C580 H586 0.930 . S
N581 Li531 1.990 . S
N581 C580 1.314 . S
N581 C584 1.279 . S
C582 C580 1.353 . S
C582 C585 1.348 . S
C582 H614 0.929 . S
C583 C584 1.358 . S
C583 C585 1.356 . S
C583 H615 0.930 . S
C584 N581 1.279 . S
C584 C583 1.358 . S
C584 H587 0.930 . S
C585 C582 1.348 . S
C585 C583 1.356 . S
H586 C580 0.930 . S
H587 C584 0.930 . S
O588 Li528 1.956 . S
O588 Li529 1.970 . S
O588 Li530 1.961 . S
O588 C532 1.325 . S
O589 Li528 1.970 . S
O589 Li529 1.956 . S
O589 Li531 1.961 . S
O589 C538 1.325 . S
O590 Li528 1.961 . S
O590 Li530 1.956 . S
O590 Li531 1.970 . S
O590 C560 1.325 . S
O591 Li529 1.961 . S
O591 Li530 1.970 . S
O591 Li531 1.956 . S
O591 C566 1.325 . S
H592 C534 0.929 . S
H593 C535 0.930 . S
H594 C536 0.930 . S
H595 C537 0.930 . S
H596 C539 0.930 . S
H597 C541 0.929 . S
H598 C542 0.930 . S
H599 C543 0.930 . S
H600 C546 0.930 . S
H601 C549 0.929 . S
H602 C554 0.929 . S
H603 C555 0.930 . S
H604 C562 0.929 . S
H605 C563 0.930 . S
H606 C564 0.930 . S
H607 C565 0.930 . S
H608 C567 0.929 . S
H609 C568 0.930 . S
H610 C569 0.930 . S
H611 C570 0.930 . S
H612 C574 0.929 . S
H613 C576 0.930 . S
H614 C582 0.929 . S
H615 C583 0.930 . S
Li616 N633 1.990 . S
Li616 O676 1.956 . S
Li616 O677 1.970 . S
Li616 O678 1.961 . S
Li617 N641 1.990 . S
Li617 O676 1.970 . S
Li617 O677 1.956 . S
Li617 O679 1.961 . S
Li618 N663 1.990 . S
Li618 O676 1.961 . S
Li618 O678 1.956 . S
Li618 O679 1.970 . S
Li619 N669 1.990 . S
Li619 O677 1.961 . S
Li619 O678 1.970 . S
Li619 O679 1.956 . S
C620 C622 1.348 . S
C620 C623 1.356 . S
C620 O676 1.325 . S
N621 C624 1.314 . S
N621 C625 1.279 . S
C622 C620 1.348 . S
C622 C624 1.353 . S
C622 H680 0.929 . S
C623 C620 1.356 . S
C623 C625 1.358 . S
C623 H681 0.930 . S
C624 N621 1.314 . S
C624 C622 1.353 . S
C624 H682 0.930 . S
C625 N621 1.279 . S
C625 C623 1.358 . S
C625 H683 0.930 . S
C626 C629 1.348 . S
C626 C630 1.356 . S
C626 O677 1.325 . S
C627 N628 1.279 . S
C627 C630 1.358 . S
C627 H684 0.930 . S
N628 C627 1.279 . S
N628 C631 1.314 . S
C629 C626 1.348 . S
C629 C631 1.353 . S
C629 H685 0.929 . S
C630 C626 1.356 . S
C630 C627 1.358 . S
C630 H686 0.930 . S
C631 N628 1.314 . S
C631 C629 1.353 . S
C631 H687 0.930 . S
C632 N633 1.314 . S
C632 C637 1.353 . S
C632 H638 0.930 . S
N633 Li616 1.990 . S
N633 C632 1.314 . S
N633 C635 1.279 . S
C634 C635 1.358 . S
C634 C636 1.356 . S
C634 H688 0.930 1_565 S
C635 N633 1.279 . S
C635 C634 1.358 . S
C635 H639 0.930 . S
C636 C634 1.356 . S
C636 C637 1.348 . S
C637 C632 1.353 . S
C637 C636 1.348 . S
C637 H689 0.929 . S
H638 C632 0.930 . S
H639 C635 0.930 . S
C640 N641 1.314 . S
C640 C642 1.353 . S
C640 H646 0.930 . S
N641 Li617 1.990 . S
N641 C640 1.314 . S
N641 C644 1.279 . S
C642 C640 1.353 . S
C642 C645 1.348 . S
C642 H690 0.929 . S
C643 C644 1.358 . S
C643 C645 1.356 . S
C643 H691 0.930 . S
C644 N641 1.279 . S
C644 C643 1.358 . S
C644 H647 0.930 . S
C645 C642 1.348 . S
C645 C643 1.356 . S
H646 C640 0.930 . S
H647 C644 0.930 . S
C648 C650 1.348 . S
C648 C651 1.356 . S
C648 O678 1.325 . S
N649 C652 1.314 . S
N649 C653 1.279 . S
C650 C648 1.348 . S
C650 C652 1.353 . S
C650 H692 0.929 . S
C651 C648 1.356 . S
C651 C653 1.358 . S
C651 H693 0.930 . S
C652 N649 1.314 . S
C652 C650 1.353 . S
C652 H694 0.930 . S
C653 N649 1.279 . S
C653 C651 1.358 . S
C653 H695 0.930 . S
C654 C655 1.348 . S
C654 C656 1.356 . S
C654 O679 1.325 . S
C655 C654 1.348 . S
C655 C657 1.353 . S
C655 H696 0.929 . S
C656 C654 1.356 . S
C656 C658 1.358 . S
C656 H697 0.930 . S
C657 C655 1.353 . S
C657 N659 1.314 . S
C657 H698 0.930 . S
C658 C656 1.358 . S
C658 N659 1.279 . S
C658 H699 0.930 . S
N659 C657 1.314 . S
N659 C658 1.279 . S
C660 C662 1.353 . S
C660 N663 1.314 . S
C660 H666 0.930 . S
C661 N663 1.279 . S
C661 C664 1.358 . S
C661 H667 0.930 . S
C662 C660 1.353 . S
C662 C665 1.348 . S
C662 H700 0.929 . S
N663 Li618 1.990 . S
N663 C660 1.314 . S
N663 C661 1.279 . S
C664 C661 1.358 . S
C664 C665 1.356 . S
C664 H701 0.930 . S
C665 C662 1.348 . S
C665 C664 1.356 . S
H666 C660 0.930 . S
H667 C661 0.930 . S
C668 N669 1.314 . S
C668 C670 1.353 . S
C668 H674 0.930 . S
N669 Li619 1.990 . S
N669 C668 1.314 . S
N669 C672 1.279 . S
C670 C668 1.353 . S
C670 C673 1.348 . S
C670 H702 0.929 . S
C671 C672 1.358 . S
C671 C673 1.356 . S
C671 H703 0.930 . S
C672 N669 1.279 . S
C672 C671 1.358 . S
C672 H675 0.930 . S
C673 C670 1.348 . S
C673 C671 1.356 . S
H674 C668 0.930 . S
H675 C672 0.930 . S
O676 Li616 1.956 . S
O676 Li617 1.970 . S
O676 Li618 1.961 . S
O676 C620 1.325 . S
O677 Li616 1.970 . S
O677 Li617 1.956 . S
O677 Li619 1.961 . S
O677 C626 1.325 . S
O678 Li616 1.961 . S
O678 Li618 1.956 . S
O678 Li619 1.970 . S
O678 C648 1.325 . S
O679 Li617 1.961 . S
O679 Li618 1.970 . S
O679 Li619 1.956 . S
O679 C654 1.325 . S
H680 C622 0.929 . S
H681 C623 0.930 . S
H682 C624 0.930 . S
H683 C625 0.930 . S
H684 C627 0.930 . S
H685 C629 0.929 . S
H686 C630 0.930 . S
H687 C631 0.930 . S
H688 C634 0.930 1_545 S
H689 C637 0.929 . S
H690 C642 0.929 . S
H691 C643 0.930 . S
H692 C650 0.929 . S
H693 C651 0.930 . S
H694 C652 0.930 . S
H695 C653 0.930 . S
H696 C655 0.929 . S
H697 C656 0.930 . S
H698 C657 0.930 . S
H699 C658 0.930 . S
H700 C662 0.929 . S
H701 C664 0.930 . S
H702 C670 0.929 . S
H703 C671 0.930 . S
H704 C722 0.951 . S
H705 C724 0.951 . S
H706 C726 0.950 . S
H707 C727 0.950 . S
H708 C729 0.950 . S
H709 C732 0.950 . S
H710 C733 0.950 . S
H711 C735 0.950 1_655 S
H712 C736 0.950 . S
H713 C737 0.951 . S
H714 C739 0.951 . S
H715 C741 0.950 . S
H716 C742 0.950 . S
H717 C744 0.950 . S
H718 C747 0.950 . S
H719 C748 0.950 . S
H720 C750 0.950 1_455 S
H721 C751 0.950 . S
C722 H704 0.951 . S
C722 C723 1.366 . S
C722 C724 1.388 . S
C723 C722 1.366 . S
C723 C727 1.385 . S
C724 H705 0.951 . S
C724 C722 1.388 . S
C724 C725 1.366 . S
C725 C724 1.366 . S
C725 C726 1.414 . S
C725 C728 1.499 . S
C726 H706 0.950 . S
C726 C725 1.414 . S
C726 C727 1.374 . S
C727 H707 0.950 . S
C727 C723 1.385 . S
C727 C726 1.374 . S
C728 C725 1.499 . S
C728 C729 1.373 . S
C728 C730 1.389 . S
C729 H708 0.950 . S
C729 C728 1.373 . S
C729 C745 1.377 1_445 S
C730 C728 1.389 . S
C730 C731 1.524 . S
C730 C744 1.377 1_445 S
C731 C730 1.524 . S
C731 C732 1.397 . S
C731 C736 1.363 1_455 S
C732 H709 0.950 . S
C732 C731 1.397 . S
C732 C733 1.334 . S
C733 H710 0.950 . S
C733 C732 1.334 . S
C733 C734 1.287 . S
C734 C733 1.287 . S
C734 C735 1.524 . S
C734 H753 0.913 . S
C735 H711 0.950 1_455 S
C735 C734 1.524 . S
C735 C736 1.415 1_455 S
C736 H712 0.950 . S
C736 C731 1.363 1_655 S
C736 C735 1.415 1_655 S
C737 H713 0.951 . S
C737 C738 1.366 . S
C737 C739 1.388 . S
C738 C737 1.366 . S
C738 C742 1.385 . S
C739 H714 0.951 . S
C739 C737 1.388 . S
C739 C740 1.366 . S
C740 C739 1.366 . S
C740 C741 1.414 . S
C740 C743 1.499 . S
C741 H715 0.950 . S
C741 C740 1.414 . S
C741 C742 1.374 . S
C742 H716 0.950 . S
C742 C738 1.385 . S
C742 C741 1.374 . S
C743 C740 1.499 . S
C743 C744 1.373 . S
C743 C745 1.389 . S
C744 H717 0.950 . S
C744 C730 1.377 1_665 S
C744 C743 1.373 . S
C745 C729 1.377 1_665 S
C745 C743 1.389 . S
C745 C746 1.524 . S
C746 C745 1.524 . S
C746 C747 1.397 . S
C746 C751 1.363 1_655 S
C747 H718 0.950 . S
C747 C746 1.397 . S
C747 C748 1.334 . S
C748 H719 0.950 . S
C748 C747 1.334 . S
C748 C749 1.287 . S
C749 C748 1.287 . S
C749 C750 1.524 . S
C749 H752 0.999 . S
C750 H720 0.950 1_655 S
C750 C749 1.524 . S
C750 C751 1.415 1_655 S
C751 H721 0.950 . S
C751 C746 1.363 1_455 S
C751 C750 1.415 1_455 S
H752 C749 0.999 . S
H753 C734 0.913 . S
H754 C772 0.951 . S
H755 C774 0.951 . S
H756 C776 0.950 . S
H757 C777 0.950 . S
H758 C779 0.950 . S
H759 C782 0.950 . S
H760 C783 0.950 . S
H761 C785 0.950 . S
H762 C786 0.950 . S
H763 C787 0.951 . S
H764 C789 0.951 . S
H765 C791 0.950 . S
H766 C792 0.950 . S
H767 C794 0.950 . S
H768 C797 0.950 . S
H769 C798 0.950 . S
H770 C800 0.950 . S
H771 C801 0.950 . S
C772 H754 0.951 . S
C772 C773 1.366 . S
C772 C774 1.388 . S
C773 C772 1.366 . S
C773 C777 1.385 . S
C774 H755 0.951 . S
C774 C772 1.388 . S
C774 C775 1.366 . S
C775 C774 1.366 . S
C775 C776 1.414 . S
C775 C778 1.499 . S
C776 H756 0.950 . S
C776 C775 1.414 . S
C776 C777 1.374 . S
C777 H757 0.950 . S
C777 C773 1.385 . S
C777 C776 1.374 . S
C778 C775 1.499 . S
C778 C779 1.373 . S
C778 C780 1.389 . S
C779 H758 0.950 . S
C779 C778 1.373 . S
C779 C795 1.377 . S
C780 C778 1.389 . S
C780 C781 1.524 . S
C780 C794 1.377 . S
C781 C780 1.524 . S
C781 C782 1.397 . S
C781 C786 1.363 . S
C782 H759 0.950 . S
C782 C781 1.397 . S
C782 C783 1.334 . S
C783 H760 0.950 . S
C783 C782 1.334 . S
C783 C784 1.287 . S
C784 C783 1.287 . S
C784 C785 1.524 . S
C784 H803 0.913 . S
C785 H761 0.950 . S
C785 C784 1.524 . S
C785 C786 1.415 . S
C786 H762 0.950 . S
C786 C781 1.363 . S
C786 C785 1.415 . S
C787 H763 0.951 . S
C787 C788 1.366 . S
C787 C789 1.388 . S
C788 C787 1.366 . S
C788 C792 1.385 . S
C789 H764 0.951 . S
C789 C787 1.388 . S
C789 C790 1.366 . S
C790 C789 1.366 . S
C790 C791 1.414 . S
C790 C793 1.499 . S
C791 H765 0.950 . S
C791 C790 1.414 . S
C791 C792 1.374 . S
C792 H766 0.950 . S
C792 C788 1.385 . S
C792 C791 1.374 . S
C793 C790 1.499 . S
C793 C794 1.373 . S
C793 C795 1.389 . S
C794 H767 0.950 . S
C794 C780 1.377 . S
C794 C793 1.373 . S
C795 C779 1.377 . S
C795 C793 1.389 . S
C795 C796 1.524 . S
C796 C795 1.524 . S
C796 C797 1.397 . S
C796 C801 1.363 . S
C797 H768 0.950 . S
C797 C796 1.397 . S
C797 C798 1.334 . S
C798 H769 0.950 . S
C798 C797 1.334 . S
C798 C799 1.287 . S
C799 C798 1.287 . S
C799 C800 1.524 . S
C799 H802 0.999 . S
C800 H770 0.950 . S
C800 C799 1.524 . S
C800 C801 1.415 . S
C801 H771 0.950 . S
C801 C796 1.363 . S
C801 C800 1.415 . S
H802 C799 0.999 . S
H803 C784 0.913 . S
H804 C822 0.951 . S
H805 C824 0.951 . S
H806 C826 0.950 . S
H807 C827 0.950 . S
H808 C829 0.950 . S
H809 C832 0.950 . S
H810 C833 0.950 . S
H811 C835 0.950 . S
H812 C836 0.950 . S
H813 C837 0.951 . S
H814 C839 0.951 . S
H815 C841 0.950 . S
H816 C842 0.950 . S
H817 C844 0.950 . S
H818 C847 0.950 . S
H819 C848 0.950 . S
H820 C850 0.950 . S
H821 C851 0.950 . S
C822 H804 0.951 . S
C822 C823 1.366 . S
C822 C824 1.388 . S
C823 C822 1.366 . S
C823 C827 1.385 . S
C824 H805 0.951 . S
C824 C822 1.388 . S
C824 C825 1.366 . S
C825 C824 1.366 . S
C825 C826 1.414 . S
C825 C828 1.499 . S
C826 H806 0.950 . S
C826 C825 1.414 . S
C826 C827 1.374 . S
C827 H807 0.950 . S
C827 C823 1.385 . S
C827 C826 1.374 . S
C828 C825 1.499 . S
C828 C829 1.373 . S
C828 C830 1.389 . S
C829 H808 0.950 . S
C829 C828 1.373 . S
C829 C845 1.377 . S
C830 C828 1.389 . S
C830 C831 1.524 . S
C830 C844 1.377 . S
C831 C830 1.524 . S
C831 C832 1.397 . S
C831 C836 1.363 . S
C832 H809 0.950 . S
C832 C831 1.397 . S
C832 C833 1.334 . S
C833 H810 0.950 . S
C833 C832 1.334 . S
C833 C834 1.287 . S
C834 C833 1.287 . S
C834 C835 1.524 . S
C834 H853 0.913 . S
C835 H811 0.950 . S
C835 C834 1.524 . S
C835 C836 1.415 . S
C836 H812 0.950 . S
C836 C831 1.363 . S
C836 C835 1.415 . S
C837 H813 0.951 . S
C837 C838 1.366 . S
C837 C839 1.388 . S
C838 C837 1.366 . S
C838 C842 1.385 . S
C839 H814 0.951 . S
C839 C837 1.388 . S
C839 C840 1.366 . S
C840 C839 1.366 . S
C840 C841 1.414 . S
C840 C843 1.499 . S
C841 H815 0.950 . S
C841 C840 1.414 . S
C841 C842 1.374 . S
C842 H816 0.950 . S
C842 C838 1.385 . S
C842 C841 1.374 . S
C843 C840 1.499 . S
C843 C844 1.373 . S
C843 C845 1.389 . S
C844 H817 0.950 . S
C844 C830 1.377 . S
C844 C843 1.373 . S
C845 C829 1.377 . S
C845 C843 1.389 . S
C845 C846 1.524 . S
C846 C845 1.524 . S
C846 C847 1.397 . S
C846 C851 1.363 . S
C847 H818 0.950 . S
C847 C846 1.397 . S
C847 C848 1.334 . S
C848 H819 0.950 . S
C848 C847 1.334 . S
C848 C849 1.287 . S
C849 C848 1.287 . S
C849 C850 1.524 . S
C849 H852 0.999 . S
C850 H820 0.950 . S
C850 C849 1.524 . S
C850 C851 1.415 . S
C851 H821 0.950 . S
C851 C846 1.363 . S
C851 C850 1.415 . S
H852 C849 0.999 . S
H853 C834 0.913 . S
H854 C872 0.951 . S
H855 C874 0.951 . S
H856 C876 0.950 . S
H857 C877 0.950 . S
H858 C879 0.950 . S
H859 C882 0.941 1_655 S
H860 C883 0.950 . S
H861 C885 0.950 . S
H862 C886 0.950 1_565 S
H863 C887 0.951 . S
H864 C889 0.951 . S
H865 C891 0.950 . S
H866 C892 0.950 . S
H867 C894 0.950 . S
H868 C897 0.941 1_455 S
H869 C898 0.950 . S
H870 C900 0.950 . S
H871 C901 0.950 1_545 S
C872 H854 0.951 . S
C872 C873 1.366 . S
C872 C874 1.388 . S
C873 C872 1.366 . S
C873 C877 1.385 . S
C874 H855 0.951 . S
C874 C872 1.388 . S
C874 C875 1.366 . S
C875 C874 1.366 . S
C875 C876 1.414 . S
C875 C878 1.499 . S
C876 H856 0.950 . S
C876 C875 1.414 . S
C876 C877 1.374 . S
C877 H857 0.950 . S
C877 C873 1.385 . S
C877 C876 1.374 . S
C878 C875 1.499 . S
C878 C879 1.373 . S
C878 C880 1.389 . S
C879 H858 0.950 . S
C879 C878 1.373 . S
C879 C895 1.377 1_445 S
C880 C878 1.389 . S
C880 C881 1.524 . S
C880 C894 1.377 1_445 S
C881 C880 1.524 . S
C881 C882 1.397 . S
C881 C886 1.363 . S
C882 H859 0.941 1_455 S
C882 C881 1.397 . S
C882 C883 1.334 . S
C883 H860 0.950 . S
C883 C882 1.334 . S
C883 C884 1.287 . S
C884 C883 1.287 . S
C884 C885 1.524 . S
C884 H903 0.913 . S
C885 H861 0.950 . S
C885 C884 1.524 . S
C885 C886 1.415 . S
C886 H862 0.950 1_545 S
C886 C881 1.363 . S
C886 C885 1.415 . S
C887 H863 0.951 . S
C887 C888 1.366 . S
C887 C889 1.388 . S
C888 C887 1.366 . S
C888 C892 1.385 . S
C889 H864 0.951 . S
C889 C887 1.388 . S
C889 C890 1.366 . S
C890 C889 1.366 . S
C890 C891 1.414 . S
C890 C893 1.499 . S
C891 H865 0.950 . S
C891 C890 1.414 . S
C891 C892 1.374 . S
C892 H866 0.950 . S
C892 C888 1.385 . S
C892 C891 1.374 . S
C893 C890 1.499 . S
C893 C894 1.373 . S
C893 C895 1.389 . S
C894 H867 0.950 . S
C894 C880 1.377 1_665 S
C894 C893 1.373 . S
C895 C879 1.377 1_665 S
C895 C893 1.389 . S
C895 C896 1.524 . S
C896 C895 1.524 . S
C896 C897 1.397 . S
C896 C901 1.363 . S
C897 H868 0.941 1_655 S
C897 C896 1.397 . S
C897 C898 1.334 . S
C898 H869 0.950 . S
C898 C897 1.334 . S
C898 C899 1.287 . S
C899 C898 1.287 . S
C899 C900 1.524 . S
C899 H902 0.999 . S
C900 H870 0.950 . S
C900 C899 1.524 . S
C900 C901 1.415 . S
C901 H871 0.950 1_565 S
C901 C896 1.363 . S
C901 C900 1.415 . S
H902 C899 0.999 . S
H903 C884 0.913 . S
H904 C922 0.951 . S
H905 C924 0.951 . S
H906 C926 0.950 . S
H907 C927 0.950 . S
H908 C929 0.950 . S
H909 C932 0.950 . S
H910 C933 0.950 . S
H911 C935 0.950 . S
H912 C936 0.950 . S
H913 C937 0.951 . S
H914 C939 0.951 . S
H915 C941 0.950 . S
H916 C942 0.950 . S
H917 C944 0.950 . S
H918 C947 0.950 . S
H919 C948 0.950 . S
H920 C950 0.950 . S
H921 C951 0.950 . S
C922 H904 0.951 . S
C922 C923 1.366 . S
C922 C924 1.388 . S
C923 C922 1.366 . S
C923 C927 1.385 . S
C924 H905 0.951 . S
C924 C922 1.388 . S
C924 C925 1.366 . S
C925 C924 1.366 . S
C925 C926 1.414 . S
C925 C928 1.499 . S
C926 H906 0.950 . S
C926 C925 1.414 . S
C926 C927 1.374 . S
C927 H907 0.950 . S
C927 C923 1.385 . S
C927 C926 1.374 . S
C928 C925 1.499 . S
C928 C929 1.373 . S
C928 C930 1.389 . S
C929 H908 0.950 . S
C929 C928 1.373 . S
C929 C945 1.377 . S
C930 C928 1.389 . S
C930 C931 1.524 . S
C930 C944 1.377 . S
C931 C930 1.524 . S
C931 C932 1.397 . S
C931 C936 1.363 . S
C932 H909 0.950 . S
C932 C931 1.397 . S
C932 C933 1.334 . S
C933 H910 0.950 . S
C933 C932 1.334 . S
C933 C934 1.287 . S
C934 C933 1.287 . S
C934 C935 1.524 . S
C934 H953 0.913 . S
C935 H911 0.950 . S
C935 C934 1.524 . S
C935 C936 1.415 . S
C936 H912 0.950 . S
C936 C931 1.363 . S
C936 C935 1.415 . S
C937 H913 0.951 . S
C937 C938 1.366 . S
C937 C939 1.388 . S
C938 C937 1.366 . S
C938 C942 1.385 . S
C939 H914 0.951 . S
C939 C937 1.388 . S
C939 C940 1.366 . S
C940 C939 1.366 . S
C940 C941 1.414 . S
C940 C943 1.499 . S
C941 H915 0.950 . S
C941 C940 1.414 . S
C941 C942 1.374 . S
C942 H916 0.950 . S
C942 C938 1.385 . S
C942 C941 1.374 . S
C943 C940 1.499 . S
C943 C944 1.373 . S
C943 C945 1.389 . S
C944 H917 0.950 . S
C944 C930 1.377 . S
C944 C943 1.373 . S
C945 C929 1.377 . S
C945 C943 1.389 . S
C945 C946 1.524 . S
C946 C945 1.524 . S
C946 C947 1.397 . S
C946 C951 1.363 . S
C947 H918 0.950 . S
C947 C946 1.397 . S
C947 C948 1.334 . S
C948 H919 0.950 . S
C948 C947 1.334 . S
C948 C949 1.287 . S
C949 C948 1.287 . S
C949 C950 1.524 . S
C949 H952 0.999 . S
C950 H920 0.950 . S
C950 C949 1.524 . S
C950 C951 1.415 . S
C951 H921 0.950 . S
C951 C946 1.363 . S
C951 C950 1.415 . S
H952 C949 0.999 . S
H953 C934 0.913 . S
H954 C972 0.951 . S
H955 C974 0.951 . S
H956 C976 0.950 . S
H957 C977 0.950 . S
H958 C979 0.950 . S
H959 C982 0.950 . S
H960 C983 0.950 . S
H961 C985 0.950 . S
H962 C986 0.950 . S
H963 C987 0.951 . S
H964 C989 0.951 . S
H965 C991 0.950 . S
H966 C992 0.950 . S
H967 C994 0.950 . S
H968 C997 0.950 . S
H969 C998 0.950 . S
H970 C1000 0.950 . S
H971 C1001 0.950 . S
C972 H954 0.951 . S
C972 C973 1.366 . S
C972 C974 1.388 . S
C973 C972 1.366 . S
C973 C977 1.385 . S
C974 H955 0.951 . S
C974 C972 1.388 . S
C974 C975 1.366 . S
C975 C974 1.366 . S
C975 C976 1.414 . S
C975 C978 1.499 . S
C976 H956 0.950 . S
C976 C975 1.414 . S
C976 C977 1.374 . S
C977 H957 0.950 . S
C977 C973 1.385 . S
C977 C976 1.374 . S
C978 C975 1.499 . S
C978 C979 1.373 . S
C978 C980 1.389 1_556 S
C979 H958 0.950 . S
C979 C978 1.373 . S
C979 C995 1.371 . S
C980 C978 1.389 1_554 S
C980 C981 1.524 . S
C980 C994 1.377 . S
C981 C980 1.524 . S
C981 C982 1.397 1_554 S
C981 C986 1.363 . S
C982 H959 0.950 . S
C982 C981 1.397 1_556 S
C982 C983 1.334 . S
C983 H960 0.950 . S
C983 C982 1.334 . S
C983 C984 1.287 1_556 S
C984 C983 1.287 1_554 S
C984 C985 1.524 . S
C984 H1003 0.913 . S
C985 H961 0.950 . S
C985 C984 1.524 . S
C985 C986 1.415 . S
C986 H962 0.950 . S
C986 C981 1.363 . S
C986 C985 1.415 . S
C987 H963 0.951 . S
C987 C988 1.366 . S
C987 C989 1.388 . S
C988 C987 1.366 . S
C988 C992 1.385 . S
C989 H964 0.951 . S
C989 C987 1.388 . S
C989 C990 1.366 . S
C990 C989 1.366 . S
C990 C991 1.414 . S
C990 C993 1.499 . S
C991 H965 0.950 . S
C991 C990 1.414 . S
C991 C992 1.374 . S
C992 H966 0.950 . S
C992 C988 1.385 . S
C992 C991 1.374 . S
C993 C990 1.499 . S
C993 C994 1.373 . S
C993 C995 1.395 1_554 S
C994 H967 0.950 . S
C994 C980 1.377 . S
C994 C993 1.373 . S
C995 C979 1.371 . S
C995 C993 1.395 1_556 S
C995 C996 1.524 . S
C996 C995 1.524 . S
C996 C997 1.397 1_556 S
C996 C1001 1.363 . S
C997 H968 0.950 . S
C997 C996 1.397 1_554 S
C997 C998 1.334 . S
C998 H969 0.950 . S
C998 C997 1.334 . S
C998 C999 1.287 1_554 S
C999 C998 1.287 1_556 S
C999 C1000 1.524 . S
C999 H1002 0.999 . S
C1000 H970 0.950 . S
C1000 C999 1.524 . S
C1000 C1001 1.415 . S
C1001 H971 0.950 . S
C1001 C996 1.363 . S
C1001 C1000 1.415 . S
H1002 C999 0.999 . S
H1003 C984 0.913 . S
H1004 C1022 0.951 . S
H1005 C1024 0.951 . S
H1006 C1026 0.950 . S
H1007 C1027 0.950 . S
H1008 C1029 0.950 . S
H1009 C1032 0.950 . S
H1010 C1033 0.950 . S
H1011 C1035 0.950 . S
H1012 C1036 0.950 . S
H1013 C1037 0.951 . S
H1014 C1039 0.951 . S
H1015 C1041 0.950 . S
H1016 C1042 0.950 . S
H1017 C1044 0.950 . S
H1018 C1047 0.950 . S
H1019 C1048 0.950 . S
H1020 C1050 0.950 . S
H1021 C1051 0.950 . S
C1022 H1004 0.951 . S
C1022 C1023 1.366 . S
C1022 C1024 1.388 . S
C1023 C1022 1.366 . S
C1023 C1027 1.385 . S
C1024 H1005 0.951 . S
C1024 C1022 1.388 . S
C1024 C1025 1.366 . S
C1025 C1024 1.366 . S
C1025 C1026 1.414 . S
C1025 C1028 1.499 . S
C1026 H1006 0.950 . S
C1026 C1025 1.414 . S
C1026 C1027 1.374 . S
C1027 H1007 0.950 . S
C1027 C1023 1.385 . S
C1027 C1026 1.374 . S
C1028 C1025 1.499 . S
C1028 C1029 1.373 . S
C1028 C1030 1.389 . S
C1029 H1008 0.950 . S
C1029 C1028 1.373 . S
C1029 C1045 1.377 . S
C1030 C1028 1.389 . S
C1030 C1031 1.524 . S
C1030 C1044 1.377 . S
C1031 C1030 1.524 . S
C1031 C1032 1.397 . S
C1031 C1036 1.363 . S
C1032 H1009 0.950 . S
C1032 C1031 1.397 . S
C1032 C1033 1.334 . S
C1033 H1010 0.950 . S
C1033 C1032 1.334 . S
C1033 C1034 1.287 . S
C1034 C1033 1.287 . S
C1034 C1035 1.524 . S
C1034 H1053 0.913 . S
C1035 H1011 0.950 . S
C1035 C1034 1.524 . S
C1035 C1036 1.415 . S
C1036 H1012 0.950 . S
C1036 C1031 1.363 . S
C1036 C1035 1.415 . S
C1037 H1013 0.951 . S
C1037 C1038 1.366 . S
C1037 C1039 1.388 . S
C1038 C1037 1.366 . S
C1038 C1042 1.385 . S
C1039 H1014 0.951 . S
C1039 C1037 1.388 . S
C1039 C1040 1.366 . S
C1040 C1039 1.366 . S
C1040 C1041 1.414 . S
C1040 C1043 1.499 . S
C1041 H1015 0.950 . S
C1041 C1040 1.414 . S
C1041 C1042 1.374 . S
C1042 H1016 0.950 . S
C1042 C1038 1.385 . S
C1042 C1041 1.374 . S
C1043 C1040 1.499 . S
C1043 C1044 1.373 . S
C1043 C1045 1.389 . S
C1044 H1017 0.950 . S
C1044 C1030 1.377 . S
C1044 C1043 1.373 . S
C1045 C1029 1.377 . S
C1045 C1043 1.389 . S
C1045 C1046 1.524 . S
C1046 C1045 1.524 . S
C1046 C1047 1.397 . S
C1046 C1051 1.363 . S
C1047 H1018 0.950 . S
C1047 C1046 1.397 . S
C1047 C1048 1.334 . S
C1048 H1019 0.950 . S
C1048 C1047 1.334 . S
C1048 C1049 1.287 . S
C1049 C1048 1.287 . S
C1049 C1050 1.524 . S
C1049 H1052 0.999 . S
C1050 H1020 0.950 . S
C1050 C1049 1.524 . S
C1050 C1051 1.415 . S
C1051 H1021 0.950 . S
C1051 C1046 1.363 . S
C1051 C1050 1.415 . S
H1052 C1049 0.999 . S
H1053 C1034 0.913 . S
H1054 C1072 0.951 . S
H1055 C1074 0.951 . S
H1056 C1076 0.950 . S
H1057 C1077 0.950 . S
H1058 C1079 0.950 . S
H1059 C1082 0.950 . S
H1060 C1083 0.950 . S
H1061 C1085 0.950 . S
H1062 C1086 0.950 . S
H1063 C1087 0.951 . S
H1064 C1089 0.951 . S
H1065 C1091 0.950 . S
H1066 C1092 0.950 . S
H1067 C1094 0.950 . S
H1068 C1097 0.950 . S
H1069 C1098 0.950 . S
H1070 C1100 0.950 . S
H1071 C1101 0.950 . S
C1072 H1054 0.951 . S
C1072 C1073 1.366 . S
C1072 C1074 1.388 . S
C1073 C1072 1.366 . S
C1073 C1077 1.385 . S
C1074 H1055 0.951 . S
C1074 C1072 1.388 . S
C1074 C1075 1.366 . S
C1075 C1074 1.366 . S
C1075 C1076 1.414 . S
C1075 C1078 1.499 . S
C1076 H1056 0.950 . S
C1076 C1075 1.414 . S
C1076 C1077 1.374 . S
C1077 H1057 0.950 . S
C1077 C1073 1.385 . S
C1077 C1076 1.374 . S
C1078 C1075 1.499 . S
C1078 C1079 1.373 . S
C1078 C1080 1.389 . S
C1079 H1058 0.950 . S
C1079 C1078 1.373 . S
C1079 C1095 1.377 1_556 S
C1080 C1078 1.389 . S
C1080 C1081 1.524 . S
C1080 C1094 1.377 1_556 S
C1081 C1080 1.524 . S
C1081 C1082 1.397 . S
C1081 C1086 1.363 . S
C1082 H1059 0.950 . S
C1082 C1081 1.397 . S
C1082 C1083 1.334 . S
C1083 H1060 0.950 . S
C1083 C1082 1.334 . S
C1083 C1084 1.287 . S
C1084 C1083 1.287 . S
C1084 C1085 1.524 . S
C1084 H1103 0.913 . S
C1085 H1061 0.950 . S
C1085 C1084 1.524 . S
C1085 C1086 1.415 . S
C1086 H1062 0.950 . S
C1086 C1081 1.363 . S
C1086 C1085 1.415 . S
C1087 H1063 0.951 . S
C1087 C1088 1.366 . S
C1087 C1089 1.388 . S
C1088 C1087 1.366 . S
C1088 C1092 1.385 . S
C1089 H1064 0.951 . S
C1089 C1087 1.388 . S
C1089 C1090 1.366 . S
C1090 C1089 1.366 . S
C1090 C1091 1.414 . S
C1090 C1093 1.499 . S
C1091 H1065 0.950 . S
C1091 C1090 1.414 . S
C1091 C1092 1.374 . S
C1092 H1066 0.950 . S
C1092 C1088 1.385 . S
C1092 C1091 1.374 . S
C1093 C1090 1.499 . S
C1093 C1094 1.373 . S
C1093 C1095 1.389 . S
C1094 H1067 0.950 . S
C1094 C1080 1.377 1_554 S
C1094 C1093 1.373 . S
C1095 C1079 1.377 1_554 S
C1095 C1093 1.389 . S
C1095 C1096 1.524 . S
C1096 C1095 1.524 . S
C1096 C1097 1.397 . S
C1096 C1101 1.363 . S
C1097 H1068 0.950 . S
C1097 C1096 1.397 . S
C1097 C1098 1.334 . S
C1098 H1069 0.950 . S
C1098 C1097 1.334 . S
C1098 C1099 1.287 . S
C1099 C1098 1.287 . S
C1099 C1100 1.524 . S
C1099 H1102 0.999 . S
C1100 H1070 0.950 . S
C1100 C1099 1.524 . S
C1100 C1101 1.415 . S
C1101 H1071 0.950 . S
C1101 C1096 1.363 . S
C1101 C1100 1.415 . S
H1102 C1099 0.999 . S
H1103 C1084 0.913 . S
H1104 C1122 0.951 . S
H1105 C1124 0.951 . S
H1106 C1126 0.950 . S
H1107 C1127 0.950 . S
H1108 C1129 0.950 . S
H1109 C1132 0.950 . S
H1110 C1133 0.950 . S
H1111 C1135 0.950 . S
H1112 C1136 0.950 . S
H1113 C1137 0.951 . S
H1114 C1139 0.951 . S
H1115 C1141 0.950 . S
H1116 C1142 0.950 . S
H1117 C1144 0.950 . S
H1118 C1147 0.950 . S
H1119 C1148 0.950 . S
H1120 C1150 0.950 . S
H1121 C1151 0.950 . S
C1122 H1104 0.951 . S
C1122 C1123 1.366 . S
C1122 C1124 1.388 . S
C1123 C1122 1.366 . S
C1123 C1127 1.385 . S
C1124 H1105 0.951 . S
C1124 C1122 1.388 . S
C1124 C1125 1.366 . S
C1125 C1124 1.366 . S
C1125 C1126 1.414 . S
C1125 C1128 1.499 . S
C1126 H1106 0.950 . S
C1126 C1125 1.414 . S
C1126 C1127 1.374 . S
C1127 H1107 0.950 . S
C1127 C1123 1.385 . S
C1127 C1126 1.374 . S
C1128 C1125 1.499 . S
C1128 C1129 1.373 . S
C1128 C1130 1.389 . S
C1129 H1108 0.950 . S
C1129 C1128 1.373 . S
C1129 C1145 1.377 . S
C1130 C1128 1.389 . S
C1130 C1131 1.524 . S
C1130 C1144 1.377 . S
C1131 C1130 1.524 . S
C1131 C1132 1.397 . S
C1131 C1136 1.363 . S
C1132 H1109 0.950 . S
C1132 C1131 1.397 . S
C1132 C1133 1.334 . S
C1133 H1110 0.950 . S
C1133 C1132 1.334 . S
C1133 C1134 1.287 . S
C1134 C1133 1.287 . S
C1134 C1135 1.524 . S
C1134 H1153 0.913 . S
C1135 H1111 0.950 . S
C1135 C1134 1.524 . S
C1135 C1136 1.415 . S
C1136 H1112 0.950 . S
C1136 C1131 1.363 . S
C1136 C1135 1.415 . S
C1137 H1113 0.951 . S
C1137 C1138 1.366 . S
C1137 C1139 1.388 . S
C1138 C1137 1.366 . S
C1138 C1142 1.385 . S
C1139 H1114 0.951 . S
C1139 C1137 1.388 . S
C1139 C1140 1.366 . S
C1140 C1139 1.366 . S
C1140 C1141 1.414 . S
C1140 C1143 1.499 . S
C1141 H1115 0.950 . S
C1141 C1140 1.414 . S
C1141 C1142 1.374 . S
C1142 H1116 0.950 . S
C1142 C1138 1.385 . S
C1142 C1141 1.374 . S
C1143 C1140 1.499 . S
C1143 C1144 1.373 . S
C1143 C1145 1.389 . S
C1144 H1117 0.950 . S
C1144 C1130 1.377 . S
C1144 C1143 1.373 . S
C1145 C1129 1.377 . S
C1145 C1143 1.389 . S
C1145 C1146 1.524 . S
C1146 C1145 1.524 . S
C1146 C1147 1.397 . S
C1146 C1151 1.363 . S
C1147 H1118 0.950 . S
C1147 C1146 1.397 . S
C1147 C1148 1.334 . S
C1148 H1119 0.950 . S
C1148 C1147 1.334 . S
C1148 C1149 1.287 . S
C1149 C1148 1.287 . S
C1149 C1150 1.524 . S
C1149 H1152 0.999 . S
C1150 H1120 0.950 . S
C1150 C1149 1.524 . S
C1150 C1151 1.415 . S
C1151 H1121 0.950 . S
C1151 C1146 1.363 . S
C1151 C1150 1.415 . S
H1152 C1149 0.999 . S
H1153 C1134 0.913 . S
H1154 C1172 0.951 . S
H1155 C1174 0.951 . S
H1156 C1176 0.950 . S
H1157 C1177 0.950 . S
H1158 C1179 0.950 . S
H1159 C1182 0.950 . S
H1160 C1183 0.950 . S
H1161 C1185 0.950 . S
H1162 C1186 0.950 . S
H1163 C1187 0.951 . S
H1164 C1189 0.951 . S
H1165 C1191 0.950 . S
H1166 C1192 0.950 . S
H1167 C1194 0.950 . S
H1168 C1197 0.950 . S
H1169 C1198 0.950 . S
H1170 C1200 0.950 . S
H1171 C1201 0.950 . S
C1172 H1154 0.951 . S
C1172 C1173 1.366 . S
C1172 C1174 1.388 . S
C1173 C1172 1.366 . S
C1173 C1177 1.385 . S
C1174 H1155 0.951 . S
C1174 C1172 1.388 . S
C1174 C1175 1.366 . S
C1175 C1174 1.366 . S
C1175 C1176 1.414 . S
C1175 C1178 1.499 . S
C1176 H1156 0.950 . S
C1176 C1175 1.414 . S
C1176 C1177 1.374 . S
C1177 H1157 0.950 . S
C1177 C1173 1.385 . S
C1177 C1176 1.374 . S
C1178 C1175 1.499 . S
C1178 C1179 1.373 . S
C1178 C1180 1.389 . S
C1179 H1158 0.950 . S
C1179 C1178 1.373 . S
C1179 C1195 1.377 . S
C1180 C1178 1.389 . S
C1180 C1181 1.524 . S
C1180 C1194 1.377 . S
C1181 C1180 1.524 . S
C1181 C1182 1.397 . S
C1181 C1186 1.363 . S
C1182 H1159 0.950 . S
C1182 C1181 1.397 . S
C1182 C1183 1.334 . S
C1183 H1160 0.950 . S
C1183 C1182 1.334 . S
C1183 C1184 1.287 . S
C1184 C1183 1.287 . S
C1184 C1185 1.524 . S
C1184 H1203 0.913 . S
C1185 H1161 0.950 . S
C1185 C1184 1.524 . S
C1185 C1186 1.415 . S
C1186 H1162 0.950 . S
C1186 C1181 1.363 . S
C1186 C1185 1.415 . S
C1187 H1163 0.951 . S
C1187 C1188 1.366 . S
C1187 C1189 1.388 . S
C1188 C1187 1.366 . S
C1188 C1192 1.385 . S
C1189 H1164 0.951 . S
C1189 C1187 1.388 . S
C1189 C1190 1.366 . S
C1190 C1189 1.366 . S
C1190 C1191 1.414 . S
C1190 C1193 1.499 . S
C1191 H1165 0.950 . S
C1191 C1190 1.414 . S
C1191 C1192 1.374 . S
C1192 H1166 0.950 . S
C1192 C1188 1.385 . S
C1192 C1191 1.374 . S
C1193 C1190 1.499 . S
C1193 C1194 1.373 . S
C1193 C1195 1.389 . S
C1194 H1167 0.950 . S
C1194 C1180 1.377 . S
C1194 C1193 1.373 . S
C1195 C1179 1.377 . S
C1195 C1193 1.389 . S
C1195 C1196 1.524 . S
C1196 C1195 1.524 . S
C1196 C1197 1.397 . S
C1196 C1201 1.363 . S
C1197 H1168 0.950 . S
C1197 C1196 1.397 . S
C1197 C1198 1.334 . S
C1198 H1169 0.950 . S
C1198 C1197 1.334 . S
C1198 C1199 1.287 . S
C1199 C1198 1.287 . S
C1199 C1200 1.524 . S
C1199 H1202 0.999 . S
C1200 H1170 0.950 . S
C1200 C1199 1.524 . S
C1200 C1201 1.415 . S
C1201 H1171 0.950 . S
C1201 C1196 1.363 . S
C1201 C1200 1.415 . S
H1202 C1199 0.999 . S
H1203 C1184 0.913 . S
H1204 C1222 0.951 . S
H1205 C1224 0.951 . S
H1206 C1226 0.950 . S
H1207 C1227 0.950 . S
H1208 C1229 0.950 . S
H1209 C1232 0.950 . S
H1210 C1233 0.950 . S
H1211 C1235 0.950 . S
H1212 C1236 0.950 . S
H1213 C1237 0.951 . S
H1214 C1239 0.951 . S
H1215 C1241 0.950 . S
H1216 C1242 0.950 . S
H1217 C1244 0.950 . S
H1218 C1247 0.950 . S
H1219 C1248 0.950 . S
H1220 C1250 0.950 . S
H1221 C1251 0.950 . S
C1222 H1204 0.951 . S
C1222 C1223 1.366 . S
C1222 C1224 1.388 . S
C1223 C1222 1.366 . S
C1223 C1227 1.385 . S
C1224 H1205 0.951 . S
C1224 C1222 1.388 . S
C1224 C1225 1.366 . S
C1225 C1224 1.366 . S
C1225 C1226 1.414 . S
C1225 C1228 1.499 . S
C1226 H1206 0.950 . S
C1226 C1225 1.414 . S
C1226 C1227 1.374 . S
C1227 H1207 0.950 . S
C1227 C1223 1.385 . S
C1227 C1226 1.374 . S
C1228 C1225 1.499 . S
C1228 C1229 1.373 . S
C1228 C1230 1.389 . S
C1229 H1208 0.950 . S
C1229 C1228 1.373 . S
C1229 C1245 1.377 . S
C1230 C1228 1.389 . S
C1230 C1231 1.524 . S
C1230 C1244 1.377 . S
C1231 C1230 1.524 . S
C1231 C1232 1.397 . S
C1231 C1236 1.363 . S
C1232 H1209 0.950 . S
C1232 C1231 1.397 . S
C1232 C1233 1.334 . S
C1233 H1210 0.950 . S
C1233 C1232 1.334 . S
C1233 C1234 1.287 . S
C1234 C1233 1.287 . S
C1234 C1235 1.524 . S
C1234 H1253 0.913 . S
C1235 H1211 0.950 . S
C1235 C1234 1.524 . S
C1235 C1236 1.415 . S
C1236 H1212 0.950 . S
C1236 C1231 1.363 . S
C1236 C1235 1.415 . S
C1237 H1213 0.951 . S
C1237 C1238 1.366 . S
C1237 C1239 1.388 . S
C1238 C1237 1.366 . S
C1238 C1242 1.385 . S
C1239 H1214 0.951 . S
C1239 C1237 1.388 . S
C1239 C1240 1.366 . S
C1240 C1239 1.366 . S
C1240 C1241 1.414 . S
C1240 C1243 1.499 . S
C1241 H1215 0.950 . S
C1241 C1240 1.414 . S
C1241 C1242 1.374 . S
C1242 H1216 0.950 . S
C1242 C1238 1.385 . S
C1242 C1241 1.374 . S
C1243 C1240 1.499 . S
C1243 C1244 1.373 . S
C1243 C1245 1.389 . S
C1244 H1217 0.950 . S
C1244 C1230 1.377 . S
C1244 C1243 1.373 . S
C1245 C1229 1.377 . S
C1245 C1243 1.389 . S
C1245 C1246 1.524 . S
C1246 C1245 1.524 . S
C1246 C1247 1.397 . S
C1246 C1251 1.363 . S
C1247 H1218 0.950 . S
C1247 C1246 1.397 . S
C1247 C1248 1.334 . S
C1248 H1219 0.950 . S
C1248 C1247 1.334 . S
C1248 C1249 1.287 . S
C1249 C1248 1.287 . S
C1249 C1250 1.524 . S
C1249 H1252 0.999 . S
C1250 H1220 0.950 . S
C1250 C1249 1.524 . S
C1250 C1251 1.415 . S
C1251 H1221 0.950 . S
C1251 C1246 1.363 . S
C1251 C1250 1.415 . S
H1252 C1249 0.999 . S
H1253 C1234 0.913 . S
H1254 C1272 0.951 . S
H1255 C1274 0.951 . S
H1256 C1276 0.950 . S
H1257 C1277 0.950 . S
H1258 C1279 0.950 . S
H1259 C1282 0.950 . S
H1260 C1283 0.950 . S
H1261 C1285 0.950 . S
H1262 C1286 0.950 . S
H1263 C1287 0.951 . S
H1264 C1289 0.951 . S
H1265 C1291 0.950 . S
H1266 C1292 0.950 . S
H1267 C1294 0.950 . S
H1268 C1297 0.950 . S
H1269 C1298 0.950 . S
H1270 C1300 0.950 . S
H1271 C1301 0.950 . S
C1272 H1254 0.951 . S
C1272 C1273 1.366 . S
C1272 C1274 1.388 . S
C1273 C1272 1.366 . S
C1273 C1277 1.385 . S
C1274 H1255 0.951 . S
C1274 C1272 1.388 . S
C1274 C1275 1.366 . S
C1275 C1274 1.366 . S
C1275 C1276 1.414 . S
C1275 C1278 1.499 . S
C1276 H1256 0.950 . S
C1276 C1275 1.414 . S
C1276 C1277 1.374 . S
C1277 H1257 0.950 . S
C1277 C1273 1.385 . S
C1277 C1276 1.374 . S
C1278 C1275 1.499 . S
C1278 C1279 1.373 . S
C1278 C1280 1.389 . S
C1279 H1258 0.950 . S
C1279 C1278 1.373 . S
C1279 C1295 1.377 . S
C1280 C1278 1.389 . S
C1280 C1281 1.524 . S
C1280 C1294 1.377 . S
C1281 C1280 1.524 . S
C1281 C1282 1.397 . S
C1281 C1286 1.363 . S
C1282 H1259 0.950 . S
C1282 C1281 1.397 . S
C1282 C1283 1.334 . S
C1283 H1260 0.950 . S
C1283 C1282 1.334 . S
C1283 C1284 1.287 . S
C1284 C1283 1.287 . S
C1284 C1285 1.524 . S
C1284 H1303 0.913 . S
C1285 H1261 0.950 . S
C1285 C1284 1.524 . S
C1285 C1286 1.415 . S
C1286 H1262 0.950 . S
C1286 C1281 1.363 . S
C1286 C1285 1.415 . S
C1287 H1263 0.951 . S
C1287 C1288 1.366 . S
C1287 C1289 1.388 . S
C1288 C1287 1.366 . S
C1288 C1292 1.385 . S
C1289 H1264 0.951 . S
C1289 C1287 1.388 . S
C1289 C1290 1.366 . S
C1290 C1289 1.366 . S
C1290 C1291 1.414 . S
C1290 C1293 1.499 . S
C1291 H1265 0.950 . S
C1291 C1290 1.414 . S
C1291 C1292 1.374 . S
C1292 H1266 0.950 . S
C1292 C1288 1.385 . S
C1292 C1291 1.374 . S
C1293 C1290 1.499 . S
C1293 C1294 1.373 . S
C1293 C1295 1.389 . S
C1294 H1267 0.950 . S
C1294 C1280 1.377 . S
C1294 C1293 1.373 . S
C1295 C1279 1.377 . S
C1295 C1293 1.389 . S
C1295 C1296 1.524 . S
C1296 C1295 1.524 . S
C1296 C1297 1.397 . S
C1296 C1301 1.363 . S
C1297 H1268 0.950 . S
C1297 C1296 1.397 . S
C1297 C1298 1.334 . S
C1298 H1269 0.950 . S
C1298 C1297 1.334 . S
C1298 C1299 1.287 . S
C1299 C1298 1.287 . S
C1299 C1300 1.524 . S
C1299 H1302 0.999 . S
C1300 H1270 0.950 . S
C1300 C1299 1.524 . S
C1300 C1301 1.415 . S
C1301 H1271 0.950 . S
C1301 C1296 1.363 . S
C1301 C1300 1.415 . S
H1302 C1299 0.999 . S
H1303 C1284 0.913 . S
H1304 C1322 0.951 . S
H1305 C1324 0.951 . S
H1306 C1326 0.950 . S
H1307 C1327 0.950 . S
H1308 C1329 0.950 . S
H1309 C1332 0.950 . S
H1310 C1333 0.950 . S
H1311 C1335 0.950 . S
H1312 C1336 0.950 . S
H1313 C1337 0.951 . S
H1314 C1339 0.951 . S
H1315 C1341 0.950 . S
H1316 C1342 0.950 . S
H1317 C1344 0.950 . S
H1318 C1347 0.950 . S
H1319 C1348 0.950 . S
H1320 C1350 0.950 . S
H1321 C1351 0.950 . S
C1322 H1304 0.951 . S
C1322 C1323 1.366 . S
C1322 C1324 1.388 . S
C1323 C1322 1.366 . S
C1323 C1327 1.385 . S
C1324 H1305 0.951 . S
C1324 C1322 1.388 . S
C1324 C1325 1.366 . S
C1325 C1324 1.366 . S
C1325 C1326 1.414 . S
C1325 C1328 1.499 . S
C1326 H1306 0.950 . S
C1326 C1325 1.414 . S
C1326 C1327 1.374 . S
C1327 H1307 0.950 . S
C1327 C1323 1.385 . S
C1327 C1326 1.374 . S
C1328 C1325 1.499 . S
C1328 C1329 1.373 . S
C1328 C1330 1.389 . S
C1329 H1308 0.950 . S
C1329 C1328 1.373 . S
C1329 C1345 1.377 . S
C1330 C1328 1.389 . S
C1330 C1331 1.524 . S
C1330 C1344 1.377 . S
C1331 C1330 1.524 . S
C1331 C1332 1.397 . S
C1331 C1336 1.363 . S
C1332 H1309 0.950 . S
C1332 C1331 1.397 . S
C1332 C1333 1.334 . S
C1333 H1310 0.950 . S
C1333 C1332 1.334 . S
C1333 C1334 1.287 . S
C1334 C1333 1.287 . S
C1334 C1335 1.524 . S
C1334 H1353 0.913 . S
C1335 H1311 0.950 . S
C1335 C1334 1.524 . S
C1335 C1336 1.415 . S
C1336 H1312 0.950 . S
C1336 C1331 1.363 . S
C1336 C1335 1.415 . S
C1337 H1313 0.951 . S
C1337 C1338 1.366 . S
C1337 C1339 1.388 . S
C1338 C1337 1.366 . S
C1338 C1342 1.385 . S
C1339 H1314 0.951 . S
C1339 C1337 1.388 . S
C1339 C1340 1.366 . S
C1340 C1339 1.366 . S
C1340 C1341 1.414 . S
C1340 C1343 1.499 . S
C1341 H1315 0.950 . S
C1341 C1340 1.414 . S
C1341 C1342 1.374 . S
C1342 H1316 0.950 . S
C1342 C1338 1.385 . S
C1342 C1341 1.374 . S
C1343 C1340 1.499 . S
C1343 C1344 1.373 . S
C1343 C1345 1.389 . S
C1344 H1317 0.950 . S
C1344 C1330 1.377 . S
C1344 C1343 1.373 . S
C1345 C1329 1.377 . S
C1345 C1343 1.389 . S
C1345 C1346 1.524 . S
C1346 C1345 1.524 . S
C1346 C1347 1.397 . S
C1346 C1351 1.363 . S
C1347 H1318 0.950 . S
C1347 C1346 1.397 . S
C1347 C1348 1.334 . S
C1348 H1319 0.950 . S
C1348 C1347 1.334 . S
C1348 C1349 1.287 . S
C1349 C1348 1.287 . S
C1349 C1350 1.524 . S
C1349 H1352 0.999 . S
C1350 H1320 0.950 . S
C1350 C1349 1.524 . S
C1350 C1351 1.415 . S
C1351 H1321 0.950 . S
C1351 C1346 1.363 . S
C1351 C1350 1.415 . S
H1352 C1349 0.999 . S
H1353 C1334 0.913 . S
H1354 C1372 0.951 . S
H1355 C1374 0.951 . S
H1356 C1376 0.950 . S
H1357 C1377 0.950 . S
H1358 C1379 0.950 . S
H1359 C1382 0.950 . S
H1360 C1383 0.950 . S
H1361 C1385 0.950 . S
H1362 C1386 0.950 . S
H1363 C1387 0.951 . S
H1364 C1389 0.951 . S
H1365 C1391 0.950 . S
H1366 C1392 0.950 . S
H1367 C1394 0.950 . S
H1368 C1397 0.950 . S
H1369 C1398 0.950 . S
H1370 C1400 0.950 . S
H1371 C1401 0.950 . S
C1372 H1354 0.951 . S
C1372 C1373 1.366 . S
C1372 C1374 1.388 . S
C1373 C1372 1.366 . S
C1373 C1377 1.385 . S
C1374 H1355 0.951 . S
C1374 C1372 1.388 . S
C1374 C1375 1.366 . S
C1375 C1374 1.366 . S
C1375 C1376 1.414 . S
C1375 C1378 1.499 . S
C1376 H1356 0.950 . S
C1376 C1375 1.414 . S
C1376 C1377 1.374 . S
C1377 H1357 0.950 . S
C1377 C1373 1.385 . S
C1377 C1376 1.374 . S
C1378 C1375 1.499 . S
C1378 C1379 1.373 . S
C1378 C1380 1.389 . S
C1379 H1358 0.950 . S
C1379 C1378 1.373 . S
C1379 C1395 1.377 . S
C1380 C1378 1.389 . S
C1380 C1381 1.524 . S
C1380 C1394 1.377 . S
C1381 C1380 1.524 . S
C1381 C1382 1.397 . S
C1381 C1386 1.363 . S
C1382 H1359 0.950 . S
C1382 C1381 1.397 . S
C1382 C1383 1.334 . S
C1383 H1360 0.950 . S
C1383 C1382 1.334 . S
C1383 C1384 1.287 . S
C1384 C1383 1.287 . S
C1384 C1385 1.524 . S
C1384 H1403 0.913 . S
C1385 H1361 0.950 . S
C1385 C1384 1.524 . S
C1385 C1386 1.415 . S
C1386 H1362 0.950 . S
C1386 C1381 1.363 . S
C1386 C1385 1.415 . S
C1387 H1363 0.951 . S
C1387 C1388 1.366 . S
C1387 C1389 1.388 . S
C1388 C1387 1.366 . S
C1388 C1392 1.385 . S
C1389 H1364 0.951 . S
C1389 C1387 1.388 . S
C1389 C1390 1.366 . S
C1390 C1389 1.366 . S
C1390 C1391 1.414 . S
C1390 C1393 1.499 . S
C1391 H1365 0.950 . S
C1391 C1390 1.414 . S
C1391 C1392 1.374 . S
C1392 H1366 0.950 . S
C1392 C1388 1.385 . S
C1392 C1391 1.374 . S
C1393 C1390 1.499 . S
C1393 C1394 1.373 . S
C1393 C1395 1.389 . S
C1394 H1367 0.950 . S
C1394 C1380 1.377 . S
C1394 C1393 1.373 . S
C1395 C1379 1.377 . S
C1395 C1393 1.389 . S
C1395 C1396 1.524 . S
C1396 C1395 1.524 . S
C1396 C1397 1.397 . S
C1396 C1401 1.363 . S
C1397 H1368 0.950 . S
C1397 C1396 1.397 . S
C1397 C1398 1.334 . S
C1398 H1369 0.950 . S
C1398 C1397 1.334 . S
C1398 C1399 1.287 . S
C1399 C1398 1.287 . S
C1399 C1400 1.524 . S
C1399 H1402 0.999 . S
C1400 H1370 0.950 . S
C1400 C1399 1.524 . S
C1400 C1401 1.415 . S
C1401 H1371 0.950 . S
C1401 C1396 1.363 . S
C1401 C1400 1.415 . S
H1402 C1399 0.999 . S
H1403 C1384 0.913 . S
H1404 C1422 0.951 . S
H1405 C1424 0.951 . S
H1406 C1426 0.950 . S
H1407 C1427 0.950 . S
H1408 C1429 0.950 . S
H1409 C1432 0.950 . S
H1410 C1433 0.950 . S
H1411 C1435 0.950 . S
H1412 C1436 0.950 . S
H1413 C1437 0.951 . S
H1414 C1439 0.951 . S
H1415 C1441 0.950 . S
H1416 C1442 0.950 . S
H1417 C1444 0.950 . S
H1418 C1447 0.950 . S
H1419 C1448 0.950 . S
H1420 C1450 0.950 . S
H1421 C1451 0.950 . S
C1422 H1404 0.951 . S
C1422 C1423 1.366 . S
C1422 C1424 1.388 . S
C1423 C1422 1.366 . S
C1423 C1427 1.385 . S
C1424 H1405 0.951 . S
C1424 C1422 1.388 . S
C1424 C1425 1.366 . S
C1425 C1424 1.366 . S
C1425 C1426 1.414 . S
C1425 C1428 1.499 . S
C1426 H1406 0.950 . S
C1426 C1425 1.414 . S
C1426 C1427 1.374 . S
C1427 H1407 0.950 . S
C1427 C1423 1.385 . S
C1427 C1426 1.374 . S
C1428 C1425 1.499 . S
C1428 C1429 1.373 . S
C1428 C1430 1.389 . S
C1429 H1408 0.950 . S
C1429 C1428 1.373 . S
C1429 C1445 1.377 . S
C1430 C1428 1.389 . S
C1430 C1431 1.524 . S
C1430 C1444 1.377 . S
C1431 C1430 1.524 . S
C1431 C1432 1.397 . S
C1431 C1436 1.363 . S
C1432 H1409 0.950 . S
C1432 C1431 1.397 . S
C1432 C1433 1.334 . S
C1433 H1410 0.950 . S
C1433 C1432 1.334 . S
C1433 C1434 1.287 . S
C1434 C1433 1.287 . S
C1434 C1435 1.524 . S
C1434 H1453 0.913 . S
C1435 H1411 0.950 . S
C1435 C1434 1.524 . S
C1435 C1436 1.415 . S
C1436 H1412 0.950 . S
C1436 C1431 1.363 . S
C1436 C1435 1.415 . S
C1437 H1413 0.951 . S
C1437 C1438 1.366 . S
C1437 C1439 1.388 . S
C1438 C1437 1.366 . S
C1438 C1442 1.385 . S
C1439 H1414 0.951 . S
C1439 C1437 1.388 . S
C1439 C1440 1.366 . S
C1440 C1439 1.366 . S
C1440 C1441 1.414 . S
C1440 C1443 1.499 . S
C1441 H1415 0.950 . S
C1441 C1440 1.414 . S
C1441 C1442 1.374 . S
C1442 H1416 0.950 . S
C1442 C1438 1.385 . S
C1442 C1441 1.374 . S
C1443 C1440 1.499 . S
C1443 C1444 1.373 . S
C1443 C1445 1.389 . S
C1444 H1417 0.950 . S
C1444 C1430 1.377 . S
C1444 C1443 1.373 . S
C1445 C1429 1.377 . S
C1445 C1443 1.389 . S
C1445 C1446 1.524 . S
C1446 C1445 1.524 . S
C1446 C1447 1.397 . S
C1446 C1451 1.363 . S
C1447 H1418 0.950 . S
C1447 C1446 1.397 . S
C1447 C1448 1.334 . S
C1448 H1419 0.950 . S
C1448 C1447 1.334 . S
C1448 C1449 1.287 . S
C1449 C1448 1.287 . S
C1449 C1450 1.524 . S
C1449 H1452 0.999 . S
C1450 H1420 0.950 . S
C1450 C1449 1.524 . S
C1450 C1451 1.415 . S
C1451 H1421 0.950 . S
C1451 C1446 1.363 . S
C1451 C1450 1.415 . S
H1452 C1449 0.999 . S
H1453 C1434 0.913 . S
H1454 C1472 0.951 . S
H1455 C1474 0.951 . S
H1456 C1476 0.950 . S
H1457 C1477 0.950 . S
H1458 C1479 0.950 . S
H1459 C1482 0.950 . S
H1460 C1483 0.950 . S
H1461 C1485 0.950 . S
H1462 C1486 0.950 . S
H1463 C1487 0.951 . S
H1464 C1489 0.951 . S
H1465 C1491 0.950 . S
H1466 C1492 0.950 . S
H1467 C1494 0.950 . S
H1468 C1497 0.950 . S
H1469 C1498 0.950 . S
H1470 C1500 0.950 . S
H1471 C1501 0.950 . S
C1472 H1454 0.951 . S
C1472 C1473 1.366 . S
C1472 C1474 1.388 . S
C1473 C1472 1.366 . S
C1473 C1477 1.385 . S
C1474 H1455 0.951 . S
C1474 C1472 1.388 . S
C1474 C1475 1.366 . S
C1475 C1474 1.366 . S
C1475 C1476 1.414 . S
C1475 C1478 1.499 . S
C1476 H1456 0.950 . S
C1476 C1475 1.414 . S
C1476 C1477 1.374 . S
C1477 H1457 0.950 . S
C1477 C1473 1.385 . S
C1477 C1476 1.374 . S
C1478 C1475 1.499 . S
C1478 C1479 1.373 . S
C1478 C1480 1.389 . S
C1479 H1458 0.950 . S
C1479 C1478 1.373 . S
C1479 C1495 1.377 . S
C1480 C1478 1.389 . S
C1480 C1481 1.524 . S
C1480 C1494 1.377 . S
C1481 C1480 1.524 . S
C1481 C1482 1.397 . S
C1481 C1486 1.363 . S
C1482 H1459 0.950 . S
C1482 C1481 1.397 . S
C1482 C1483 1.334 . S
C1483 H1460 0.950 . S
C1483 C1482 1.334 . S
C1483 C1484 1.287 . S
C1484 C1483 1.287 . S
C1484 C1485 1.524 . S
C1484 H1503 0.913 . S
C1485 H1461 0.950 . S
C1485 C1484 1.524 . S
C1485 C1486 1.415 . S
C1486 H1462 0.950 . S
C1486 C1481 1.363 . S
C1486 C1485 1.415 . S
C1487 H1463 0.951 . S
C1487 C1488 1.366 . S
C1487 C1489 1.388 . S
C1488 C1487 1.366 . S
C1488 C1492 1.385 . S
C1489 H1464 0.951 . S
C1489 C1487 1.388 . S
C1489 C1490 1.366 . S
C1490 C1489 1.366 . S
C1490 C1491 1.414 . S
C1490 C1493 1.499 . S
C1491 H1465 0.950 . S
C1491 C1490 1.414 . S
C1491 C1492 1.374 . S
C1492 H1466 0.950 . S
C1492 C1488 1.385 . S
C1492 C1491 1.374 . S
C1493 C1490 1.499 . S
C1493 C1494 1.373 . S
C1493 C1495 1.389 . S
C1494 H1467 0.950 . S
C1494 C1480 1.377 . S
C1494 C1493 1.373 . S
C1495 C1479 1.377 . S
C1495 C1493 1.389 . S
C1495 C1496 1.524 . S
C1496 C1495 1.524 . S
C1496 C1497 1.397 . S
C1496 C1501 1.363 . S
C1497 H1468 0.950 . S
C1497 C1496 1.397 . S
C1497 C1498 1.334 . S
C1498 H1469 0.950 . S
C1498 C1497 1.334 . S
C1498 C1499 1.287 . S
C1499 C1498 1.287 . S
C1499 C1500 1.524 . S
C1499 H1502 0.999 . S
C1500 H1470 0.950 . S
C1500 C1499 1.524 . S
C1500 C1501 1.415 . S
C1501 H1471 0.950 . S
C1501 C1496 1.363 . S
C1501 C1500 1.415 . S
H1502 C1499 0.999 . S
H1503 C1484 0.913 . S
C723 C57 1.047 . S
C738 C233 1.046 . S
C773 C137 1.022 . S
C788 C293 1.023 . S
C823 C372 1.046 . S
C838 C557 1.047 . S
C873 C489 1.022 . S
C888 C645 1.022 . S
C923 C29 1.745 . S
C938 C469 1.763 . S
C973 C117 1.763 . S
C988 C585 1.746 . S
C1023 C665 1.763 . S
C1038 C205 1.746 . S
C1073 C313 1.764 . S
C1088 C401 1.746 . S
C1123 C409 1.669 . S
C1138 C49 1.754 . S
C1173 C108 1.723 . S
C1188 C497 1.641 1_565 S
C1223 C225 1.754 . S
C1238 C577 1.669 . S
C1273 C321 1.722 . S
C1288 C636 1.640 1_545 S
C1323 C20 1.669 1_655 S
C1338 C381 1.754 . S
C1373 C460 1.722 . S
C1388 C145 1.641 . S
C1423 C548 1.753 . S
C1438 C196 1.668 1_455 S
C1473 C284 1.640 . S
C1488 C673 1.722 . S
