# Generated by pormake.
# Topology wkj, (6)-cn, num edge types: 1
# Building blocks:
#     Node 0, Type 0, BuildingBlock: PAMTUU_clean_sbu_0, # of connection points: 6
#     Node 1, Type 0, BuildingBlock: PAMTUU_clean_sbu_0, # of connection points: 6
#     Node 2, Type 0, BuildingBlock: PAMTUU_clean_sbu_0, # of connection points: 6
#     Node 3, Type 0, BuildingBlock: PAMTUU_clean_sbu_0, # of connection points: 6
#     Node 4, Type 0, BuildingBlock: PAMTUU_clean_sbu_0, # of connection points: 6
#     Node 5, Type 0, BuildingBlock: PAMTUU_clean_sbu_0, # of connection points: 6
#     Node 6, Type 0, BuildingBlock: PAMTUU_clean_sbu_0, # of connection points: 6
#     Node 7, Type 0, BuildingBlock: PAMTUU_clean_sbu_0, # of connection points: 6
#     Node 8, Type 0, BuildingBlock: PAMTUU_clean_sbu_0, # of connection points: 6
#     Node 9, Type 0, BuildingBlock: PAMTUU_clean_sbu_0, # of connection points: 6
#     Node 10, Type 0, BuildingBlock: PAMTUU_clean_sbu_0, # of connection points: 6
#     Node 11, Type 0, BuildingBlock: PAMTUU_clean_sbu_0, # of connection points: 6
#     Edge 12, Type (0, 0), BuildingBlock: UVAHIK_clean_linker_0, # of connection points: 2
#     Edge 13, Type (0, 0), BuildingBlock: UVAHIK_clean_linker_0, # of connection points: 2
#     Edge 14, Type (0, 0), BuildingBlock: UVAHIK_clean_linker_0, # of connection points: 2
#     Edge 15, Type (0, 0), BuildingBlock: UVAHIK_clean_linker_0, # of connection points: 2
#     Edge 16, Type (0, 0), BuildingBlock: UVAHIK_clean_linker_0, # of connection points: 2
#     Edge 17, Type (0, 0), BuildingBlock: UVAHIK_clean_linker_0, # of connection points: 2
#     Edge 18, Type (0, 0), BuildingBlock: UVAHIK_clean_linker_0, # of connection points: 2
#     Edge 19, Type (0, 0), BuildingBlock: UVAHIK_clean_linker_0, # of connection points: 2
#     Edge 20, Type (0, 0), BuildingBlock: UVAHIK_clean_linker_0, # of connection points: 2
#     Edge 21, Type (0, 0), BuildingBlock: UVAHIK_clean_linker_0, # of connection points: 2
#     Edge 22, Type (0, 0), BuildingBlock: UVAHIK_clean_linker_0, # of connection points: 2
#     Edge 23, Type (0, 0), BuildingBlock: UVAHIK_clean_linker_0, # of connection points: 2
#     Edge 24, Type (0, 0), BuildingBlock: UVAHIK_clean_linker_0, # of connection points: 2
#     Edge 25, Type (0, 0), BuildingBlock: UVAHIK_clean_linker_0, # of connection points: 2
#     Edge 26, Type (0, 0), BuildingBlock: UVAHIK_clean_linker_0, # of connection points: 2
#     Edge 27, Type (0, 0), BuildingBlock: UVAHIK_clean_linker_0, # of connection points: 2
#     Edge 28, Type (0, 0), BuildingBlock: UVAHIK_clean_linker_0, # of connection points: 2
#     Edge 29, Type (0, 0), BuildingBlock: UVAHIK_clean_linker_0, # of connection points: 2
#     Edge 30, Type (0, 0), BuildingBlock: UVAHIK_clean_linker_0, # of connection points: 2
#     Edge 31, Type (0, 0), BuildingBlock: UVAHIK_clean_linker_0, # of connection points: 2
#     Edge 32, Type (0, 0), BuildingBlock: UVAHIK_clean_linker_0, # of connection points: 2
#     Edge 33, Type (0, 0), BuildingBlock: UVAHIK_clean_linker_0, # of connection points: 2
#     Edge 34, Type (0, 0), BuildingBlock: UVAHIK_clean_linker_0, # of connection points: 2
#     Edge 35, Type (0, 0), BuildingBlock: UVAHIK_clean_linker_0, # of connection points: 2
#     Edge 36, Type (0, 0), BuildingBlock: UVAHIK_clean_linker_0, # of connection points: 2
#     Edge 37, Type (0, 0), BuildingBlock: UVAHIK_clean_linker_0, # of connection points: 2
#     Edge 38, Type (0, 0), BuildingBlock: UVAHIK_clean_linker_0, # of connection points: 2
#     Edge 39, Type (0, 0), BuildingBlock: UVAHIK_clean_linker_0, # of connection points: 2
#     Edge 40, Type (0, 0), BuildingBlock: UVAHIK_clean_linker_0, # of connection points: 2
#     Edge 41, Type (0, 0), BuildingBlock: UVAHIK_clean_linker_0, # of connection points: 2
#     Edge 42, Type (0, 0), BuildingBlock: UVAHIK_clean_linker_0, # of connection points: 2
#     Edge 43, Type (0, 0), BuildingBlock: UVAHIK_clean_linker_0, # of connection points: 2
#     Edge 44, Type (0, 0), BuildingBlock: UVAHIK_clean_linker_0, # of connection points: 2
#     Edge 45, Type (0, 0), BuildingBlock: UVAHIK_clean_linker_0, # of connection points: 2
#     Edge 46, Type (0, 0), BuildingBlock: UVAHIK_clean_linker_0, # of connection points: 2
#     Edge 47, Type (0, 0), BuildingBlock: UVAHIK_clean_linker_0, # of connection points: 2
# Relax obj value: 0.616
# Max RMSD: 0.190
# Mean RMSD: 0.190
data_MOF--net-wkj--node1-PAMTUU_clean_sbu_0--edge1-UVAHIK_clean_linker_0
_symmetry_space_group_name_H-M    P1
_symmetry_Int_Tables_number       1
_symmetry_cell_setting            triclinic
loop_
_symmetry_equiv_pos_as_xyz
'x, y, z'
_cell_length_a     61.881942
_cell_length_b     61.957875
_cell_length_c     36.833346
_cell_angle_alpha  89.819115
_cell_angle_beta   90.193831
_cell_angle_gamma 120.05136
loop_
_atom_site_label
_atom_site_type_symbol
_atom_site_fract_x
_atom_site_fract_y
_atom_site_fract_z
_atom_type_partial_charge
Tb0 Tb 0.53184 0.104 0.33728 0.0
Tb1 Tb 0.47808 0.09591 0.35645 0.0
C2 C 0.49061 0.05464 0.37808 0.0
C3 C 0.59143 0.13777 0.29279 0.0
C4 C 0.60909 0.17938 0.24638 0.0
C5 C 0.59219 0.15532 0.23357 0.0
C6 C 0.58337 0.13474 0.25653 0.0
C7 C 0.61039 0.1614 0.30441 0.0
C8 C 0.61913 0.1821 0.28139 0.0
C9 C 0.5764 0.11859 0.32012 0.0
O10 O 0.50894 0.07863 0.29449 0.0
O11 O 0.47737 0.08763 0.29704 0.0
O12 O 0.50414 0.1356 0.35436 0.0
O13 O 0.52764 0.1335 0.30993 0.0
O14 O 0.43896 0.07564 0.35213 0.0
O15 O 0.45781 0.11279 0.37388 0.0
O16 O 0.49402 0.09679 0.41161 0.0
O17 O 0.53505 0.11484 0.39457 0.0
O18 O 0.51436 0.06918 0.36907 0.0
O19 O 0.47335 0.06035 0.37109 0.0
C20 C 0.48897 0.07743 0.28 0.0
O21 O 0.56999 0.12723 0.34764 0.0
O22 O 0.55757 0.09773 0.30841 0.0
C23 C 0.51906 0.14615 0.32706 0.0
C24 C 0.41855 0.08485 0.39779 0.0
C25 C 0.38442 0.0697 0.45553 0.0
C26 C 0.37919 0.07762 0.42254 0.0
C27 C 0.39621 0.08521 0.39387 0.0
C28 C 0.42384 0.07689 0.43054 0.0
C29 C 0.40691 0.06937 0.45918 0.0
C30 C 0.43633 0.09297 0.36776 0.0
C31 C 0.51802 0.10667 0.42031 0.0
H32 H 0.58474 0.15259 0.20624 0.0
H33 H 0.5689 0.11683 0.24654 0.0
H34 H 0.61693 0.16423 0.33227 0.0
H35 H 0.63236 0.20039 0.29181 0.0
H36 H 0.36207 0.07815 0.41902 0.0
H37 H 0.39196 0.09138 0.36867 0.0
H38 H 0.44102 0.07644 0.43387 0.0
H39 H 0.41125 0.06288 0.484 0.0
Tb40 Tb 0.42342 0.51461 0.67355 0.0
Tb41 Tb 0.37741 0.46048 0.69089 0.0
C42 C 0.43084 0.47288 0.71501 0.0
C43 C 0.45189 0.57929 0.64632 0.0
C44 C 0.43772 0.61051 0.61058 0.0
C45 C 0.46112 0.61271 0.60372 0.0
C46 C 0.4681 0.59711 0.6214 0.0
C47 C 0.42951 0.57855 0.65554 0.0
C48 C 0.42253 0.5941 0.63791 0.0
C49 C 0.45586 0.55873 0.65733 0.0
O50 O 0.42751 0.49026 0.6349 0.0
O51 O 0.38616 0.4618 0.63164 0.0
O52 O 0.36198 0.48487 0.68832 0.0
O53 O 0.38995 0.51338 0.64947 0.0
O54 O 0.35911 0.42165 0.68354 0.0
O55 O 0.34056 0.43903 0.70934 0.0
O56 O 0.39211 0.47706 0.7459 0.0
O57 O 0.41195 0.51799 0.72853 0.0
O58 O 0.44042 0.49636 0.70438 0.0
O59 O 0.40764 0.45577 0.70915 0.0
C60 C 0.40882 0.4721 0.61728 0.0
O61 O 0.44982 0.55083 0.69057 0.0
O62 O 0.44709 0.54027 0.63449 0.0
C63 C 0.36761 0.50227 0.66421 0.0
C64 C 0.33063 0.39939 0.7299 0.0
C65 C 0.31336 0.36388 0.78607 0.0
C66 C 0.30009 0.35871 0.7532 0.0
C67 C 0.30867 0.37643 0.72531 0.0
C68 C 0.34406 0.40454 0.76246 0.0
C69 C 0.33549 0.38693 0.79033 0.0
C70 C 0.33928 0.41804 0.70092 0.0
C71 C 0.4047 0.50114 0.75453 0.0
H72 H 0.47312 0.62493 0.5825 0.0
H73 H 0.4853 0.59776 0.61369 0.0
H74 H 0.41661 0.56477 0.67456 0.0
H75 H 0.40449 0.5921 0.64394 0.0
H76 H 0.28298 0.34114 0.74925 0.0
H77 H 0.29812 0.37227 0.70024 0.0
H78 H 0.36114 0.42219 0.7663 0.0
H79 H 0.34639 0.39125 0.81507 0.0
Tb80 Tb 0.9087 0.42837 1.00974 0.0
Tb81 Tb 0.91303 0.38051 1.02965 0.0
C82 C 0.95607 0.43286 1.05261 0.0
C83 C 0.88234 0.4603 0.9605 0.0
C84 C 0.84435 0.44756 0.90858 0.0
C85 C 0.86302 0.4413 0.90309 0.0
C86 C 0.88173 0.44747 0.92886 0.0
C87 C 0.86464 0.46792 0.96513 0.0
C88 C 0.8458 0.4617 0.93922 0.0
C89 C 0.89766 0.46085 0.99141 0.0
O90 O 0.93331 0.42928 0.96703 0.0
O91 O 0.92233 0.38814 0.97027 0.0
O92 O 0.87386 0.36887 1.02544 0.0
O93 O 0.87894 0.39564 0.98086 0.0
O94 O 0.93114 0.35961 1.02514 0.0
O95 O 0.8944 0.34347 1.04812 0.0
O96 O 0.91191 0.39553 1.0847 0.0
O97 O 0.89739 0.42153 1.06703 0.0
O98 O 0.94268 0.44332 1.04339 0.0
O99 O 0.94933 0.40978 1.0449 0.0
C100 C 0.93344 0.40994 0.95291 0.0
O101 O 0.88518 0.44339 1.01517 0.0
O102 O 0.91911 0.46261 0.98396 0.0
C103 C 0.86485 0.37428 0.99723 0.0
C104 C 0.92101 0.33024 1.07167 0.0
C105 C 0.9357 0.31059 0.12932 0.0
C106 C 0.92753 0.29758 1.09633 0.0
C107 C 0.92017 0.30735 1.0677 0.0
C108 C 0.92922 0.34333 1.10441 0.0
C109 C 0.93651 0.33359 0.13301 0.0
C110 C 0.91329 0.34036 1.0416 0.0
C111 C 0.90369 0.41108 1.09308 0.0
H112 H 0.86273 0.43091 0.87932 0.0
H113 H 0.8949 0.441 0.92492 0.0
H114 H 0.86454 0.47741 0.98973 0.0
H115 H 0.83168 0.4668 0.94408 0.0
H116 H 0.92665 0.27981 1.09278 0.0
H117 H 0.91383 0.29706 1.04248 0.0
H118 H 0.93007 0.36111 0.10777 0.0
H119 H 0.9432 0.3443 0.15783 0.0
Tb120 Tb 0.50521 0.91086 0.34012 0.0
Tb121 Tb 0.5587 0.91625 0.35775 0.0
C122 C 0.5489 0.95819 0.38364 0.0
C123 C 0.44465 0.88238 0.29636 0.0
C124 C 0.41686 0.83875 0.255 0.0
C125 C 0.43913 0.85877 0.24135 0.0
C126 C 0.45297 0.88028 0.26187 0.0
C127 C 0.42143 0.86324 0.30886 0.0
C128 C 0.4076 0.84155 0.28833 0.0
C129 C 0.46204 0.90136 0.32207 0.0
O130 O 0.52516 0.92227 0.28814 0.0
O131 O 0.56555 0.93923 0.30784 0.0
O132 O 0.53999 0.8859 0.31969 0.0
O133 O 0.50047 0.87316 0.33687 0.0
O134 O 0.59774 0.93373 0.35576 0.0
O135 O 0.57558 0.89619 0.37649 0.0
O136 O 0.53757 0.90563 0.41139 0.0
O137 O 0.50402 0.91079 0.39861 0.0
O138 O 0.5274 0.94816 0.36555 0.0
O139 O 0.5635 0.94866 0.38407 0.0
C140 C 0.54926 0.93664 0.28232 0.0
O141 O 0.4668 0.89191 0.35048 0.0
O142 O 0.48239 0.92011 0.30882 0.0
C143 C 0.51693 0.8681 0.32303 0.0
C144 C 0.61483 0.92174 0.40302 0.0
C145 C 0.64837 0.93681 0.46177 0.0
C146 C 0.65372 0.92849 0.42937 0.0
C147 C 0.637 0.92097 0.40019 0.0
C148 C 0.60924 0.9297 0.43538 0.0
C149 C 0.62586 0.93716 0.46453 0.0
C150 C 0.59805 0.91509 0.37178 0.0
C151 C 0.5175 0.90678 0.42216 0.0
H152 H 0.44637 0.85748 0.2152 0.0
H153 H 0.47084 0.89459 0.2515 0.0
H154 H 0.41478 0.86437 0.33557 0.0
H155 H 0.39043 0.82651 0.29942 0.0
H156 H 0.67083 0.92791 0.42654 0.0
H157 H 0.64153 0.91487 0.37527 0.0
H158 H 0.59222 0.93054 0.43784 0.0
H159 H 0.62141 0.94393 0.48884 0.0
Tb160 Tb 0.59052 0.49011 0.67212 0.0
Tb161 Tb 0.63822 0.54261 0.68914 0.0
C162 C 0.58598 0.53485 0.70876 0.0
C163 C 0.56436 0.42685 0.64259 0.0
C164 C 0.5869 0.40242 0.6086 0.0
C165 C 0.56785 0.40462 0.59092 0.0
C166 C 0.55669 0.41675 0.6078 0.0
C167 C 0.58151 0.42235 0.66164 0.0
C168 C 0.59265 0.41025 0.6448 0.0
C169 C 0.55868 0.44599 0.65563 0.0
O170 O 0.59758 0.51001 0.62023 0.0
O171 O 0.62226 0.55017 0.63964 0.0
O172 O 0.64954 0.52351 0.65119 0.0
O173 O 0.6238 0.48565 0.67414 0.0
O174 O 0.66081 0.58117 0.68216 0.0
O175 O 0.67385 0.56033 0.71335 0.0
O176 O 0.6267 0.52149 0.74306 0.0
O177 O 0.58674 0.49092 0.73001 0.0
O178 O 0.57468 0.51346 0.69045 0.0
O179 O 0.61016 0.54805 0.71247 0.0
C180 C 0.60799 0.53414 0.61438 0.0
O181 O 0.56537 0.45348 0.68882 0.0
O182 O 0.56509 0.46483 0.63381 0.0
C183 C 0.64442 0.50071 0.65678 0.0
C184 C 0.68593 0.60148 0.73214 0.0
C185 C 0.69527 0.63897 0.78295 0.0
C186 C 0.70474 0.64532 0.74754 0.0
C187 C 0.7002 0.62669 0.72239 0.0
C188 C 0.67705 0.59506 0.76783 0.0
C189 C 0.68188 0.61371 0.79314 0.0
C190 C 0.67811 0.58244 0.70371 0.0
C191 C 0.60428 0.50319 0.75396 0.0
H192 H 0.56311 0.39901 0.56287 0.0
H193 H 0.54361 0.42004 0.59253 0.0
H194 H 0.58784 0.42982 0.68861 0.0
H195 H 0.60701 0.40856 0.65925 0.0
H196 H 0.71514 0.66467 0.73912 0.0
H197 H 0.70701 0.63195 0.69487 0.0
H198 H 0.66562 0.5757 0.77577 0.0
H199 H 0.67409 0.60834 0.82016 0.0
Tb200 Tb 0.11042 0.59436 1.0122 0.0
Tb201 Tb 0.1031 0.64056 1.03171 0.0
C202 C 0.0623 0.5882 1.05691 0.0
C203 C 0.13713 0.56326 0.96141 0.0
C204 C 0.1755 0.5743 0.91105 0.0
C205 C 0.1586 0.58292 0.90546 0.0
C206 C 0.13974 0.5776 0.93046 0.0
C207 C 0.15324 0.55368 0.96641 0.0
C208 C 0.17226 0.55907 0.94131 0.0
C209 C 0.12057 0.56185 0.99097 0.0
O210 O 0.09883 0.60368 0.96078 0.0
O211 O 0.07938 0.62401 0.98253 0.0
O212 O 0.13305 0.65299 0.99269 0.0
O213 O 0.14769 0.62829 1.01152 0.0
O214 O 0.08509 0.66157 1.02915 0.0
O215 O 0.12227 0.67717 1.05176 0.0
O216 O 0.11382 0.62944 1.08509 0.0
O217 O 0.10982 0.59153 1.07059 0.0
O218 O 0.0733 0.57768 1.03901 0.0
O219 O 0.07078 0.61215 1.0573 0.0
C220 C 0.08297 0.61174 0.95603 0.0
O221 O 0.13215 0.57725 1.01747 0.0
O222 O 0.10026 0.56201 0.98162 0.0
C223 C 0.15185 0.64938 0.99705 0.0
C224 C 0.09553 0.69059 1.07621 0.0
C225 C 0.07725 0.70739 0.13276 0.0
C226 C 0.07233 0.71037 1.09642 0.0
C227 C 0.08153 0.70215 1.06838 0.0
C228 C 0.10097 0.68808 0.11249 0.0
C229 C 0.09202 0.69658 0.14055 0.0
C230 C 0.1032 0.68038 1.04616 0.0
C231 C 0.11279 0.6081 1.09509 0.0
H232 H 0.16019 0.59417 0.88195 0.0
H233 H 0.12779 0.58551 0.92619 0.0
H234 H 0.15176 0.54292 0.99046 0.0
H235 H 0.18498 0.55216 0.9463 0.0
H236 H 0.06102 0.71868 1.08976 0.0
H237 H 0.07717 0.70426 1.04052 0.0
H238 H 0.11159 0.67903 0.11923 0.0
H239 H 0.09575 0.69373 0.16839 0.0
Tb240 Tb 0.91532 0.49455 0.5482 0.0
Tb241 Tb 0.91675 0.54563 0.53392 0.0
C242 C 0.9627 0.54113 0.51079 0.0
C243 C 0.87991 0.43004 0.57299 0.0
C244 C 0.83163 0.40301 0.60284 0.0
C245 C 0.85236 0.40463 0.62139 0.0
C246 C 0.87629 0.41803 0.60656 0.0
C247 C 0.85891 0.42606 0.55266 0.0
C248 C 0.83499 0.41259 0.56742 0.0
C249 C 0.90493 0.45077 0.56354 0.0
O250 O 0.93203 0.51496 0.59873 0.0
O251 O 0.93967 0.55425 0.58436 0.0
O252 O 0.88829 0.52492 0.57414 0.0
O253 O 0.87688 0.48845 0.54781 0.0
O254 O 0.93122 0.58421 0.53708 0.0
O255 O 0.89424 0.55994 0.51545 0.0
O256 O 0.90707 0.52499 0.47951 0.0
O257 O 0.91855 0.49566 0.49007 0.0
O258 O 0.95373 0.51939 0.52797 0.0
O259 O 0.95089 0.55363 0.50937 0.0
C260 C 0.94196 0.53876 0.60689 0.0
O261 O 0.90774 0.45917 0.53049 0.0
O262 O 0.91437 0.46898 0.58687 0.0
C263 C 0.87085 0.50226 0.56732 0.0
C264 C 0.91789 0.60032 0.49036 0.0
C265 C 0.93582 0.63593 0.43428 0.0
C266 C 0.93255 0.64258 0.46941 0.0
C267 C 0.92358 0.62485 0.49723 0.0
C268 C 0.92036 0.59339 0.45509 0.0
C269 C 0.92912 0.61104 0.4272 0.0
C270 C 0.9119 0.58297 0.52081 0.0
C271 C 0.91218 0.50767 0.46719 0.0
H272 H 0.85059 0.3977 0.64888 0.0
H273 H 0.89216 0.42093 0.62278 0.0
H274 H 0.86104 0.43506 0.52661 0.0
H275 H 0.81939 0.41134 0.5522 0.0
H276 H 0.93753 0.66161 0.47553 0.0
H277 H 0.92191 0.63049 0.52441 0.0
H278 H 0.9164 0.5746 0.44941 0.0
H279 H 0.93186 0.60549 0.40053 0.0
Tb280 Tb 0.43732 0.91163 0.87457 0.0
Tb281 Tb 0.39069 0.91797 0.85472 0.0
C282 C 0.44409 0.96008 0.83264 0.0
C283 C 0.46314 0.87797 0.91872 0.0
C284 C 0.437 0.8365 0.96474 0.0
C285 C 0.44848 0.86084 0.97881 0.0
C286 C 0.46144 0.88139 0.95605 0.0
C287 C 0.45443 0.85361 0.90565 0.0
C288 C 0.44132 0.83299 0.92848 0.0
C289 C 0.46808 0.89827 0.89284 0.0
O290 O 0.43963 0.93784 0.91571 0.0
O291 O 0.39843 0.92666 0.91405 0.0
O292 O 0.37767 0.87846 0.85835 0.0
O293 O 0.40416 0.8818 0.90253 0.0
O294 O 0.37082 0.93712 0.85962 0.0
O295 O 0.35371 0.90054 0.83596 0.0
O296 O 0.40592 0.9171 0.79988 0.0
O297 O 0.42883 0.89921 0.81791 0.0
O298 O 0.45392 0.94617 0.84217 0.0
O299 O 0.42095 0.95378 0.83947 0.0
C300 C 0.4205 0.93805 0.9306 0.0
O301 O 0.45478 0.89087 0.8633 0.0
O302 O 0.46852 0.91801 0.90602 0.0
C303 C 0.3827 0.86859 0.88594 0.0
C304 C 0.34157 0.92813 0.81314 0.0
C305 C 0.32235 0.9435 0.75574 0.0
C306 C 0.30925 0.93529 0.78865 0.0
C307 C 0.3188 0.92759 0.81714 0.0
C308 C 0.35479 0.93643 0.7805 0.0
C309 C 0.34527 0.94406 0.75202 0.0
C310 C 0.35129 0.91978 0.84293 0.0
C311 C 0.42001 0.90717 0.79171 0.0
H312 H 0.44608 0.86402 1.00705 0.0
H313 H 0.46827 0.89985 0.96724 0.0
H314 H 0.45574 0.85038 0.87706 0.0
H315 H 0.43295 0.81442 0.91709 0.0
H316 H 0.29155 0.9346 0.7922 0.0
H317 H 0.3084 0.92116 0.84226 0.0
H318 H 0.37248 0.93703 0.77711 0.0
H319 H 0.35604 0.95076 0.72726 0.0
Tb320 Tb 0.52327 0.42302 0.20932 0.0
Tb321 Tb 0.46968 0.37674 0.18947 0.0
C322 C 0.48194 0.42899 0.16247 0.0
C323 C 0.58205 0.45448 0.25864 0.0
C324 C 0.61094 0.44287 0.30534 0.0
C325 C 0.58549 0.43379 0.31246 0.0
C326 C 0.57116 0.43939 0.28924 0.0
C327 C 0.60768 0.46458 0.2523 0.0
C328 C 0.62209 0.4589 0.27558 0.0
C329 C 0.56605 0.4559 0.23029 0.0
O330 O 0.50216 0.41323 0.26057 0.0
O331 O 0.4625 0.39372 0.23785 0.0
O332 O 0.48725 0.36483 0.22941 0.0
O333 O 0.52663 0.38918 0.21065 0.0
O334 O 0.43056 0.35597 0.18938 0.0
O335 O 0.45255 0.33953 0.17231 0.0
O336 O 0.49192 0.38699 0.13679 0.0
O337 O 0.52595 0.42504 0.15093 0.0
O338 O 0.50274 0.43955 0.1823 0.0
O339 O 0.46675 0.40497 0.16121 0.0
C340 C 0.47824 0.40547 0.26482 0.0
O341 O 0.56209 0.44102 0.2031 0.0
O342 O 0.54547 0.45496 0.24089 0.0
C343 C 0.50956 0.36815 0.22504 0.0
C344 C 0.41363 0.32521 0.14432 0.0
C345 C 0.38089 0.30384 1.08519 0.0
C346 C 0.37592 0.29104 0.11844 0.0
C347 C 0.39223 0.30168 0.1478 0.0
C348 C 0.41884 0.33798 0.11119 0.0
C349 C 0.40259 0.32739 1.08185 0.0
C350 C 0.43016 0.33642 0.17554 0.0
C351 C 0.51259 0.408 0.12679 0.0
H352 H 0.57648 0.42192 0.3357 0.0
H353 H 0.55135 0.43105 0.29445 0.0
H354 H 0.6163 0.47591 0.22843 0.0
H355 H 0.64165 0.46619 0.26947 0.0
H356 H 0.35946 0.27285 0.12175 0.0
H357 H 0.38804 0.29162 0.1733 0.0
H358 H 0.43529 0.35625 0.1082 0.0
H359 H 0.40671 0.33794 1.05683 0.0
Tb360 Tb 0.10185 0.52035 0.54686 0.0
Tb361 Tb 0.0929 0.46621 0.52808 0.0
C362 C 0.05309 0.48012 0.50289 0.0
C363 C 0.14112 0.58474 0.57061 0.0
C364 C 0.18994 0.61055 0.59922 0.0
C365 C 0.17024 0.6118 0.61637 0.0
C366 C 0.14607 0.59901 0.60215 0.0
C367 C 0.16115 0.58566 0.55131 0.0
C368 C 0.18537 0.59863 0.56535 0.0
C369 C 0.1154 0.56475 0.56318 0.0
O370 O 0.07299 0.49621 0.58531 0.0
O371 O 0.08416 0.46638 0.58706 0.0
O372 O 0.13285 0.4902 0.53073 0.0
O373 O 0.13349 0.51797 0.57084 0.0
O374 O 0.07125 0.42723 0.53291 0.0
O375 O 0.10844 0.44465 0.511 0.0
O376 O 0.09613 0.48392 0.47357 0.0
O377 O 0.11796 0.52439 0.49267 0.0
O378 O 0.06671 0.50307 0.51569 0.0
O379 O 0.05898 0.46276 0.50744 0.0
C380 C 0.0724 0.47714 0.60188 0.0
O381 O 0.11051 0.55632 0.53006 0.0
O382 O 0.10678 0.54661 0.58672 0.0
C383 C 0.14473 0.50722 0.55524 0.0
C384 C 0.07924 0.4058 0.48737 0.0
C385 C 0.06304 0.37161 0.42965 0.0
C386 C 0.07082 0.3661 0.46255 0.0
C387 C 0.07893 0.38314 0.4912 0.0
C388 C 0.0714 0.41137 0.45473 0.0
C389 C 0.06335 0.3944 0.4261 0.0
C390 C 0.08805 0.42368 0.51729 0.0
C391 C 0.10828 0.50818 0.46596 0.0
H392 H 0.17284 0.62054 0.64266 0.0
H393 H 0.13089 0.59837 0.61761 0.0
H394 H 0.15786 0.57469 0.52694 0.0
H395 H 0.20013 0.59766 0.55107 0.0
H396 H 0.07087 0.34875 0.46598 0.0
H397 H 0.08502 0.37868 0.51631 0.0
H398 H 0.07148 0.4288 0.45146 0.0
H399 H 0.057 0.39898 0.40136 0.0
Tb400 Tb 0.59724 0.0981 0.87187 0.0
Tb401 Tb 0.64611 0.09418 0.85535 0.0
C402 C 0.59478 0.05142 0.82864 0.0
C403 C 0.56534 0.12643 0.91509 0.0
C404 C 0.58407 0.17039 0.95645 0.0
C405 C 0.58255 0.14875 0.97142 0.0
C406 C 0.57341 0.12704 0.95094 0.0
C407 C 0.56454 0.14725 0.90139 0.0
C408 C 0.57389 0.16912 0.92189 0.0
C409 C 0.56332 0.1071 0.88973 0.0
O410 O 0.60623 0.08731 0.92421 0.0
O411 O 0.63016 0.07097 0.90502 0.0
O412 O 0.65668 0.12426 0.89352 0.0
O413 O 0.62979 0.13618 0.87394 0.0
O414 O 0.66842 0.07759 0.85797 0.0
O415 O 0.68315 0.11506 0.83732 0.0
O416 O 0.63553 0.10484 0.80164 0.0
O417 O 0.59607 0.0979 0.81343 0.0
O418 O 0.58282 0.06087 0.84666 0.0
O419 O 0.61901 0.06157 0.82852 0.0
C420 C 0.61631 0.07329 0.93034 0.0
O421 O 0.57698 0.11614 0.86082 0.0
O422 O 0.56525 0.08861 0.90329 0.0
C423 C 0.65128 0.14183 0.88872 0.0
C424 C 0.69783 0.09029 0.8113 0.0
C425 C 0.71699 0.07563 0.7533 0.0
C426 C 0.73034 0.08387 0.78609 0.0
C427 C 0.7208 0.09119 0.81489 0.0
C428 C 0.6846 0.08245 0.77854 0.0
C429 C 0.69411 0.0752 0.74976 0.0
C430 C 0.68723 0.09652 0.84224 0.0
C431 C 0.61401 0.1029 0.79036 0.0
H432 H 0.58953 0.14894 0.99851 0.0
H433 H 0.57424 0.11136 0.96245 0.0
H434 H 0.55846 0.14726 0.87377 0.0
H435 H 0.57462 0.18543 0.90982 0.0
H436 H 0.74804 0.08451 0.78952 0.0
H437 H 0.73117 0.09719 0.84014 0.0
H438 H 0.66671 0.08149 0.77549 0.0
H439 H 0.68312 0.06848 0.72513 0.0
Tb440 Tb 0.49095 0.58266 0.2073 0.0
Tb441 Tb 0.54511 0.62795 0.18718 0.0
C442 C 0.53392 0.57479 0.17592 0.0
C443 C 0.42874 0.55764 0.24218 0.0
C444 C 0.4053 0.57813 0.28397 0.0
C445 C 0.40595 0.55686 0.29611 0.0
C446 C 0.41756 0.54671 0.27536 0.0
C447 C 0.42624 0.57755 0.22861 0.0
C448 C 0.41452 0.58759 0.24922 0.0
C449 C 0.44686 0.55173 0.22574 0.0
O450 O 0.51484 0.58047 0.2492 0.0
O451 O 0.54599 0.62126 0.24694 0.0
O452 O 0.51964 0.64249 0.18549 0.0
O453 O 0.49435 0.61719 0.22955 0.0
O454 O 0.58047 0.64202 0.16428 0.0
O455 O 0.57089 0.66634 0.1931 0.0
O456 O 0.52748 0.6126 0.13302 0.0
O457 O 0.48656 0.59133 0.15085 0.0
O458 O 0.5097 0.56656 0.17619 0.0
O459 O 0.54946 0.59578 0.19149 0.0
C460 C 0.53436 0.59949 0.26426 0.0
O461 O 0.4534 0.55916 0.19247 0.0
O462 O 0.46624 0.55712 0.24585 0.0
C463 C 0.50391 0.63838 0.21175 0.0
C464 C 0.59947 0.68325 0.14433 0.0
C465 C 0.62694 0.7111 1.08387 0.0
C466 C 0.63796 0.71615 0.11855 0.0
C467 C 0.62431 0.70224 0.14855 0.0
C468 C 0.58769 0.67972 0.11051 0.0
C469 C 0.60134 0.6936 1.08045 0.0
C470 C 0.58761 0.6649 0.17345 0.0
C471 C 0.50335 0.59923 0.12476 0.0
H472 H 0.39932 0.54922 0.32291 0.0
H473 H 0.41945 0.53153 0.28649 0.0
H474 H 0.43481 0.58653 0.20316 0.0
H475 H 0.414 0.60369 0.23883 0.0
H476 H 0.65757 0.72972 0.12203 0.0
H477 H 0.63363 0.70519 0.17454 0.0
H478 H 0.56848 0.66504 1.10684 0.0
H479 H 0.59235 0.68911 1.05408 0.0
C480 C 0.52151 0.18681 0.34121 0.0
C481 C 0.52463 0.17169 0.31579 0.0
C482 C 0.52344 0.20949 0.331 0.0
C483 C 0.5424 0.2573 0.25635 0.0
H484 H 0.4955 0.27105 0.306 0.0
C485 C 0.53803 0.34959 0.23369 0.0
C486 C 0.51419 0.34725 0.23487 0.0
C487 C 0.54133 0.32921 0.2427 0.0
C488 C 0.50863 0.26757 0.29144 0.0
H489 H 0.53344 0.16945 0.25958 0.0
H490 H 0.53617 0.20896 0.24126 0.0
H491 H 0.4974 0.23416 0.32153 0.0
H492 H 0.47509 0.32107 0.24563 0.0
H493 H 0.48066 0.28616 0.26029 0.0
H494 H 0.5528 0.29058 0.22522 0.0
C495 C 0.53249 0.20332 0.26945 0.0
C496 C 0.51004 0.2464 0.30088 0.0
C497 C 0.53088 0.18057 0.2799 0.0
C498 C 0.49385 0.32394 0.24484 0.0
C499 C 0.49708 0.30373 0.25354 0.0
C500 C 0.54088 0.2786 0.2467 0.0
C501 C 0.52809 0.21784 0.29472 0.0
C502 C 0.52697 0.24081 0.2837 0.0
C503 C 0.52086 0.30594 0.25306 0.0
C504 C 0.52379 0.28399 0.26395 0.0
H505 H 0.51712 0.1809 0.36924 0.0
H506 H 0.52086 0.22032 0.35176 0.0
H507 H 0.55583 0.25391 0.24253 0.0
H508 H 0.55415 0.36717 0.22602 0.0
H509 H 0.55999 0.33183 0.24212 0.0
C510 C 0.32301 0.49222 0.66647 0.0
C511 C 0.34741 0.50774 0.65323 0.0
C512 C 0.3032 0.49563 0.65597 0.0
C513 C 0.28428 0.53914 0.61951 0.0
H514 H 0.22494 0.47813 0.59019 0.0
C515 C 0.18372 0.52733 0.59576 0.0
C516 C 0.17054 0.51273 0.56547 0.0
C517 C 0.20696 0.52989 0.60607 0.0
C518 C 0.2413 0.49543 0.59816 0.0
H519 H 0.36987 0.53983 0.61905 0.0
H520 H 0.33486 0.54599 0.60077 0.0
H521 H 0.2623 0.47706 0.60767 0.0
H522 H 0.17262 0.49066 0.52131 0.0
H523 H 0.21231 0.49513 0.53904 0.0
H524 H 0.26277 0.55735 0.61016 0.0
C525 C 0.33135 0.53101 0.61938 0.0
C526 C 0.26279 0.49478 0.60839 0.0
C527 C 0.35139 0.5274 0.62969 0.0
C528 C 0.18178 0.50176 0.54511 0.0
C529 C 0.20469 0.50425 0.55535 0.0
C530 C 0.26248 0.53973 0.60965 0.0
C531 C 0.30686 0.51481 0.63195 0.0
C532 C 0.28463 0.51655 0.61928 0.0
C533 C 0.21746 0.51785 0.58638 0.0
C534 C 0.2407 0.51784 0.59859 0.0
H535 H 0.31892 0.47692 0.68474 0.0
H536 H 0.28478 0.48301 0.66665 0.0
H537 H 0.30068 0.55623 0.62801 0.0
H538 H 0.1758 0.53616 0.61205 0.0
H539 H 0.21621 0.54047 0.63019 0.0
C540 C 0.82286 0.33638 1.00715 0.0
C541 C 0.83979 0.35495 0.98332 0.0
C542 C 0.80048 0.31621 0.99442 0.0
C543 C 0.77301 0.27767 0.9132 0.0
H544 H 0.71131 0.24915 0.9681 0.0
C545 C 0.696 0.17433 0.89963 0.0
C546 C 0.67079 0.1681 0.89757 0.0
C547 C 0.71494 0.1987 0.9073 0.0
C548 C 0.72828 0.25696 0.95221 0.0
H549 H 0.84591 0.367 0.92719 0.0
H550 H 0.80684 0.33134 0.90466 0.0
H551 H 0.74692 0.28935 0.98628 0.0
H552 H 0.64587 0.183 0.90259 0.0
H553 H 0.67912 0.22576 0.91714 0.0
H554 H 0.75471 0.24493 0.87989 0.0
C555 C 0.81097 0.33258 0.93342 0.0
C556 C 0.7488 0.27996 0.96278 0.0
C557 C 0.83329 0.35313 0.94634 0.0
C558 C 0.66506 0.1871 0.90381 0.0
C559 C 0.68412 0.21158 0.91227 0.0
C560 C 0.75265 0.25453 0.90299 0.0
C561 C 0.79438 0.31365 0.95728 0.0
C562 C 0.77161 0.29051 0.94374 0.0
C563 C 0.70938 0.21774 0.91379 0.0
C564 C 0.7301 0.24361 0.92266 0.0
H565 H 0.82716 0.33711 1.03581 0.0
H566 H 0.78842 0.30201 1.01362 0.0
H567 H 0.79023 0.28502 0.898 0.0
H568 H 0.70127 0.16033 0.89488 0.0
H569 H 0.73403 0.20255 0.90871 0.0
C570 C 0.48853 0.65847 0.25707 0.0
C571 C 0.49901 0.65879 0.22303 0.0
C572 C 0.48639 0.67896 0.26877 0.0
C573 C 0.48548 0.73573 0.23707 0.0
H574 H 0.51249 0.7626 0.33207 0.0
C575 C 0.48693 0.82395 0.30082 0.0
C576 C 0.5107 0.84216 0.31328 0.0
C577 C 0.48232 0.80003 0.29055 0.0
C578 C 0.50469 0.75525 0.30556 0.0
H579 H 0.51442 0.68074 0.17411 0.0
H580 H 0.51018 0.71597 0.1941 0.0
H581 H 0.5096 0.72353 0.31243 0.0
H582 H 0.54796 0.84907 0.32548 0.0
H583 H 0.53971 0.80762 0.30892 0.0
H584 H 0.48078 0.76768 0.2302 0.0
C585 C 0.50378 0.69999 0.21193 0.0
C586 C 0.5029 0.73274 0.29436 0.0
C587 C 0.50632 0.67975 0.20052 0.0
C588 C 0.52944 0.83564 0.31589 0.0
C589 C 0.52469 0.81175 0.30657 0.0
C590 C 0.4868 0.75803 0.24858 0.0
C591 C 0.49422 0.70015 0.24648 0.0
C592 C 0.49373 0.72287 0.25966 0.0
C593 C 0.50116 0.79359 0.29354 0.0
C594 C 0.49691 0.76838 0.28272 0.0
H595 H 0.48264 0.6427 0.27517 0.0
H596 H 0.47873 0.6783 0.29542 0.0
H597 H 0.47817 0.72865 0.21026 0.0
H598 H 0.4721 0.82834 0.29829 0.0
H599 H 0.46396 0.78649 0.28061 0.0
C600 C 0.66503 0.47407 0.6625 0.0
C601 C 0.66302 0.49329 0.64518 0.0
C602 C 0.68468 0.46961 0.65379 0.0
C603 C 0.73255 0.48106 0.58308 0.0
H604 H 0.77275 0.47932 0.66272 0.0
C605 C 0.82366 0.47592 0.55969 0.0
C606 C 0.84462 0.49415 0.57877 0.0
C607 C 0.79941 0.47115 0.56819 0.0
C608 C 0.76168 0.47964 0.6401 0.0
H609 H 0.6795 0.52192 0.60373 0.0
H610 H 0.71293 0.51374 0.58805 0.0
H611 H 0.73386 0.47923 0.6754 0.0
H612 H 0.85611 0.52065 0.62301 0.0
H613 H 0.81422 0.51193 0.6383 0.0
H614 H 0.76061 0.48198 0.54781 0.0
C615 C 0.69964 0.50226 0.60865 0.0
C616 C 0.73922 0.47939 0.6474 0.0
C617 C 0.68044 0.50704 0.61783 0.0
C618 C 0.8405 0.50653 0.60761 0.0
C619 C 0.81636 0.50143 0.61654 0.0
C620 C 0.75481 0.48093 0.57577 0.0
C621 C 0.70243 0.48384 0.62693 0.0
C622 C 0.72461 0.48072 0.61903 0.0
C623 C 0.79544 0.48408 0.59654 0.0
C624 C 0.77006 0.48084 0.60419 0.0
H625 H 0.65199 0.46309 0.68367 0.0
H626 H 0.68609 0.45512 0.66828 0.0
H627 H 0.72173 0.48188 0.56049 0.0
H628 H 0.82608 0.46603 0.53731 0.0
H629 H 0.78376 0.4575 0.55235 0.0
C630 C 0.36092 0.83518 0.93465 0.0
C631 C 0.36307 0.84318 0.89832 0.0
C632 C 0.33994 0.81261 0.94615 0.0
C633 C 0.27396 0.76889 0.91651 0.0
H634 H 0.27317 0.72634 0.99442 0.0
C635 C 0.18064 0.69326 0.97617 0.0
C636 C 0.17745 0.66998 0.98677 0.0
C637 C 0.20412 0.71316 0.96674 0.0
C638 C 0.27306 0.73787 0.97235 0.0
H639 H 0.34576 0.83257 0.84522 0.0
H640 H 0.31034 0.79346 0.86451 0.0
H641 H 0.31285 0.76252 0.9755 0.0
H642 H 0.19717 0.6498 0.99607 0.0
H643 H 0.23844 0.68463 0.97877 0.0
H644 H 0.2346 0.74431 0.91248 0.0
C645 C 0.324 0.80485 0.88479 0.0
C646 C 0.29587 0.75887 0.96175 0.0
C647 C 0.34459 0.82734 0.87354 0.0
C648 C 0.1988 0.66737 0.98792 0.0
C649 C 0.22253 0.68745 0.97821 0.0
C650 C 0.25139 0.74802 0.92692 0.0
C651 C 0.32072 0.79741 0.92149 0.0
C652 C 0.29669 0.77476 0.93355 0.0
C653 C 0.22551 0.71065 0.96712 0.0
C654 C 0.25037 0.73221 0.95525 0.0
H655 H 0.37479 0.84688 0.9545 0.0
H656 H 0.33831 0.80765 0.97462 0.0
H657 H 0.27338 0.78068 0.89523 0.0
H658 H 0.16489 0.69635 0.97535 0.0
H659 H 0.20546 0.73072 0.95941 0.0
C660 C 0.62021 0.20032 0.99392 0.0
C661 C 0.59777 0.19431 0.97635 0.0
C662 C 0.63118 0.22019 1.01803 0.0
C663 C 0.60811 0.25123 1.07929 0.0
H664 H 0.66638 0.25746 0.12805 0.0
C665 C 0.63871 0.22133 0.21887 0.0
C666 C 0.61434 0.20135 0.22392 0.0
C667 C 0.64342 0.23979 0.19293 0.0
C668 C 0.65023 0.25668 0.11536 0.0
H669 H 0.57126 0.20671 0.96576 0.0
H670 H 0.59092 0.24223 1.00695 0.0
H671 H 0.66531 0.25821 1.06285 0.0
H672 H 0.57546 0.18705 0.2102 0.0
H673 H 0.58335 0.21752 0.16426 0.0
H674 H 0.59382 0.2516 0.13172 0.0
C675 C 0.59946 0.23082 1.0037 0.0
C676 C 0.6494 0.25655 1.07746 0.0
C677 C 0.58822 0.21053 0.97979 0.0
C678 C 0.59459 0.20167 0.20572 0.0
C679 C 0.59924 0.21975 0.17968 0.0
C680 C 0.60959 0.25291 0.11711 0.0
C681 C 0.62018 0.23494 1.02508 0.0
C682 C 0.62681 0.2499 1.05939 0.0
C683 C 0.62388 0.23834 0.17122 0.0
C684 C 0.62893 0.2517 0.13556 0.0
H685 H 0.62862 0.18875 0.99057 0.0
H686 H 0.64708 0.22228 1.03325 0.0
H687 H 0.59085 0.24777 1.06676 0.0
H688 H 0.65425 0.22189 0.23333 0.0
H689 H 0.66257 0.25425 0.18852 0.0
C690 C 0.41424 0.61862 0.31185 0.0
C691 C 0.39895 0.59253 0.30976 0.0
C692 C 0.41272 0.63166 0.34166 0.0
C693 C 0.37997 0.62426 0.43016 0.0
H694 H 0.4476 0.65626 0.46747 0.0
C695 C 0.44258 0.64529 0.56977 0.0
C696 C 0.42742 0.62143 0.58461 0.0
C697 C 0.43508 0.65257 0.53839 0.0
C698 C 0.42861 0.64823 0.45769 0.0
H699 H 0.3679 0.56025 0.33483 0.0
H700 H 0.36584 0.58276 0.38742 0.0
H701 H 0.44052 0.64892 0.40336 0.0
H702 H 0.39139 0.58757 0.58044 0.0
H703 H 0.37872 0.59978 0.52584 0.0
H704 H 0.3681 0.62228 0.48521 0.0
C705 C 0.3789 0.59327 0.36602 0.0
C706 C 0.42451 0.64393 0.42053 0.0
C707 C 0.38031 0.58024 0.33608 0.0
C708 C 0.40353 0.60614 0.56984 0.0
C709 C 0.39618 0.61326 0.53833 0.0
C710 C 0.38409 0.62876 0.46746 0.0
C711 C 0.39608 0.61887 0.37015 0.0
C712 C 0.4001 0.63047 0.40663 0.0
C713 C 0.4125 0.63592 0.52093 0.0
C714 C 0.40838 0.63925 0.48191 0.0
H715 H 0.42887 0.62878 0.29216 0.0
H716 H 0.42592 0.65145 0.34375 0.0
H717 H 0.36095 0.61435 0.42013 0.0
H718 H 0.46089 0.65766 0.58105 0.0
H719 H 0.44782 0.67047 0.52634 0.0
C720 C 0.81212 0.41385 0.8697 0.0
C721 C 0.82313 0.43837 0.88279 0.0
C722 C 0.79517 0.4061 0.84102 0.0
C723 C 0.76062 0.39201 0.77751 0.0
H724 H 0.79439 0.44319 0.70462 0.0
C725 C 0.80008 0.37818 0.65079 0.0
C726 C 0.80841 0.39631 0.62327 0.0
C727 C 0.78464 0.37816 0.67835 0.0
C728 C 0.78393 0.42864 0.72432 0.0
H729 H 0.82285 0.47313 0.87906 0.0
H730 H 0.79279 0.45947 0.82902 0.0
H731 H 0.79968 0.45463 0.76759 0.0
H732 H 0.80355 0.42583 0.59975 0.0
H733 H 0.77619 0.42529 0.64716 0.0
H734 H 0.747 0.36573 0.73374 0.0
C735 C 0.79776 0.4464 0.84039 0.0
C736 C 0.78701 0.43529 0.76086 0.0
C737 C 0.81491 0.45422 0.86912 0.0
C738 C 0.79776 0.41172 0.62069 0.0
C739 C 0.78214 0.41156 0.64811 0.0
C740 C 0.75771 0.3853 0.74083 0.0
C741 C 0.78866 0.42265 0.82477 0.0
C742 C 0.77709 0.41683 0.78797 0.0
C743 C 0.77719 0.39623 0.67877 0.0
C744 C 0.77101 0.40337 0.7141 0.0
H745 H 0.81755 0.40096 0.88048 0.0
H746 H 0.78883 0.38774 0.82984 0.0
H747 H 0.7519 0.37741 0.79772 0.0
H748 H 0.8074 0.36559 0.65296 0.0
H749 H 0.78108 0.36589 0.70133 0.0
C750 C 0.40077 0.81837 1.00661 0.0
C751 C 0.4185 0.81544 0.98704 0.0
C752 C 0.38527 0.80041 1.03149 0.0
C753 C 0.38988 0.75561 1.0916 0.0
H754 H 0.3432 0.77006 0.13983 0.0
C755 C 0.37828 0.8018 0.22931 0.0
C756 C 0.40424 0.81491 0.23466 0.0
C757 C 0.36749 0.78217 0.20428 0.0
C758 C 0.3558 0.76498 0.12736 0.0
H759 H 0.43176 0.78995 0.97447 0.0
H760 H 0.40426 0.75801 1.01784 0.0
H761 H 0.34415 0.76948 1.07468 0.0
H762 H 0.43861 0.81512 0.22293 0.0
H763 H 0.42078 0.78284 0.1783 0.0
H764 H 0.40039 0.74945 0.14408 0.0
C765 C 0.40289 0.77467 1.01494 0.0
C766 C 0.35662 0.7651 1.08948 0.0
C767 C 0.41863 0.79291 0.98998 0.0
C768 C 0.41868 0.80611 0.21806 0.0
C769 C 0.4081 0.78694 0.19274 0.0
C770 C 0.38803 0.75403 0.12941 0.0
C771 C 0.38689 0.77877 1.03747 0.0
C772 C 0.37623 0.7642 1.07165 0.0
C773 C 0.38256 0.77571 0.18352 0.0
C774 C 0.37377 0.76255 0.14777 0.0
H775 H 0.39963 0.8352 1.00388 0.0
H776 H 0.37354 0.80479 1.04794 0.0
H777 H 0.40432 0.75321 1.07906 0.0
H778 H 0.36654 0.80774 0.24256 0.0
H779 H 0.34759 0.77332 0.1996 0.0
C780 C 0.61411 0.4105 0.3417 0.0
C781 C 0.62532 0.43517 0.32907 0.0
C782 C 0.62512 0.40406 0.36953 0.0
C783 C 0.64781 0.39294 0.43312 0.0
H784 H 0.66312 0.44429 0.50466 0.0
C785 C 0.59391 0.37886 0.55925 0.0
C786 C 0.60362 0.39665 0.58711 0.0
C787 C 0.60947 0.37918 0.53164 0.0
C788 C 0.65966 0.42977 0.4853 0.0
H789 H 0.65852 0.47168 0.33214 0.0
H790 H 0.67825 0.46029 0.38019 0.0
H791 H 0.66837 0.4551 0.44144 0.0
H792 H 0.63783 0.4263 0.61081 0.0
H793 H 0.66489 0.42662 0.56292 0.0
H794 H 0.63632 0.36717 0.47762 0.0
C795 C 0.66045 0.44606 0.36948 0.0
C796 C 0.66272 0.43604 0.44859 0.0
C797 C 0.64923 0.45259 0.34178 0.0
C798 C 0.62967 0.41238 0.58963 0.0
C799 C 0.64524 0.41267 0.56205 0.0
C800 C 0.64439 0.38659 0.46997 0.0
C801 C 0.6478 0.4221 0.38524 0.0
C802 C 0.65476 0.41735 0.42196 0.0
C803 C 0.63499 0.39738 0.5314 0.0
C804 C 0.64837 0.40467 0.49615 0.0
H805 H 0.59604 0.39642 0.33152 0.0
H806 H 0.61459 0.38542 0.38065 0.0
H807 H 0.64256 0.37823 0.41336 0.0
H808 H 0.57399 0.36616 0.55705 0.0
H809 H 0.60088 0.36704 0.50853 0.0
C810 C 0.20249 0.56404 0.87211 0.0
C811 C 0.1964 0.5816 0.8852 0.0
C812 C 0.21912 0.5701 0.84308 0.0
C813 C 0.22959 0.57903 0.76328 0.0
H814 H 0.27354 0.64723 0.73234 0.0
C815 C 0.2222 0.60011 0.62016 0.0
C816 C 0.21293 0.61675 0.62026 0.0
C817 C 0.2371 0.60012 0.64872 0.0
C818 C 0.26168 0.62799 0.74055 0.0
H819 H 0.20535 0.62013 0.88147 0.0
H820 H 0.23303 0.63031 0.83017 0.0
H821 H 0.26812 0.63718 0.797 0.0
H822 H 0.21617 0.64953 0.64644 0.0
H823 H 0.24103 0.64883 0.69698 0.0
H824 H 0.22182 0.56996 0.70737 0.0
C825 C 0.22543 0.61193 0.84207 0.0
C826 C 0.25845 0.62223 0.77761 0.0
C827 C 0.20907 0.60595 0.87117 0.0
C828 C 0.22223 0.63588 0.64628 0.0
C829 C 0.23686 0.63568 0.67509 0.0
C830 C 0.23303 0.58473 0.72637 0.0
C831 C 0.22974 0.59374 0.82642 0.0
C832 C 0.24077 0.59805 0.78936 0.0
C833 C 0.24264 0.61647 0.67812 0.0
C834 C 0.24757 0.6096 0.71467 0.0
H835 H 0.19326 0.54519 0.88269 0.0
H836 H 0.22244 0.55578 0.8323 0.0
H837 H 0.2159 0.56017 0.77094 0.0
H838 H 0.21579 0.58526 0.60038 0.0
H839 H 0.24195 0.58558 0.64975 0.0
C840 C 0.44348 0.95273 0.99088 0.0
C841 C 0.42453 0.95079 0.96738 0.0
C842 C 0.44891 0.96568 1.02421 0.0
C843 C 0.42716 1.00001 1.08912 0.0
H844 H 0.49127 0.02002 0.13298 0.0
C845 C 0.45517 0.05184 0.232 0.0
C846 C 0.48041 0.06475 0.24311 0.0
C847 C 0.44769 0.03826 0.19881 0.0
C848 C 0.47335 0.01524 0.12144 0.0
H849 H 0.39644 0.96159 0.96181 0.0
H850 H 0.40644 0.98507 1.01868 0.0
H851 H 0.48047 0.99803 1.07656 0.0
H852 H 0.5175 0.07398 0.22609 0.0
H853 H 0.50521 0.05235 0.16866 0.0
H854 H 0.42086 0.01877 0.13328 0.0
C855 C 0.41689 0.97592 1.01214 0.0
C856 C 0.46671 1.00168 1.08851 0.0
C857 C 0.41104 0.96234 0.97897 0.0
C858 C 0.49784 0.06417 0.21912 0.0
C859 C 0.49052 0.0512 0.18577 0.0
C860 C 0.43405 0.01409 0.12185 0.0
C861 C 0.43619 0.97817 1.03568 0.0
C862 C 0.44332 0.9934 1.07137 0.0
C863 C 0.46517 0.03735 0.17478 0.0
C864 C 0.45739 0.02212 0.13909 0.0
H865 H 0.45424 0.94398 0.98356 0.0
H866 H 0.46323 0.96559 1.04093 0.0
H867 H 0.40885 0.99421 1.07809 0.0
H868 H 0.44101 0.05151 0.24956 0.0
H869 H 0.42796 0.02802 0.19265 0.0
C870 C 0.48533 0.41873 0.33156 0.0
C871 C 0.46937 0.4104 0.30098 0.0
C872 C 0.47793 0.4243 0.36497 0.0
C873 C 0.42148 0.41932 0.41649 0.0
H874 H 0.47321 0.46467 0.48202 0.0
C875 C 0.39696 0.44187 0.56272 0.0
C876 C 0.41399 0.46427 0.58041 0.0
C877 C 0.40288 0.43484 0.52901 0.0
C878 C 0.45818 0.45222 0.46428 0.0
H879 H 0.43255 0.40163 0.28293 0.0
H880 H 0.41991 0.41194 0.3402 0.0
H881 H 0.48448 0.45464 0.42455 0.0
H882 H 0.45065 0.49696 0.57453 0.0
H883 H 0.46038 0.4856 0.51658 0.0
H884 H 0.39516 0.4179 0.45584 0.0
C885 C 0.43817 0.41369 0.33893 0.0
C886 C 0.46482 0.44592 0.43081 0.0
C887 C 0.44551 0.40779 0.30552 0.0
C888 C 0.43692 0.47943 0.56253 0.0
C889 C 0.44269 0.47263 0.52883 0.0
C890 C 0.4148 0.42587 0.44992 0.0
C891 C 0.45424 0.42225 0.36964 0.0
C892 C 0.44672 0.42919 0.4059 0.0
C893 C 0.42602 0.45 0.51115 0.0
C894 C 0.43298 0.44255 0.47484 0.0
H895 H 0.5038 0.42094 0.32984 0.0
H896 H 0.49104 0.43004 0.38729 0.0
H897 H 0.40656 0.40619 0.39914 0.0
H898 H 0.37913 0.42947 0.57524 0.0
H899 H 0.38929 0.41714 0.51741 0.0
C900 C 0.05537 0.48568 0.6597 0.0
C901 C 0.05903 0.46887 0.63845 0.0
C902 C 0.04239 0.47856 0.69312 0.0
C903 C 0.01069 0.42401 0.76218 0.0
H904 H 0.98886 0.46734 0.80257 0.0
C905 C 0.95856 0.401 0.90508 0.0
C906 C 0.94582 0.41349 0.91583 0.0
C907 C 0.97201 0.40679 0.87174 0.0
C908 C 0.99414 0.45438 0.79209 0.0
H909 H 0.05119 0.43073 0.63703 0.0
H910 H 0.02767 0.41786 0.69383 0.0
H911 H 1.01052 0.4779 0.74607 0.0
H912 H 0.93676 0.44132 0.89794 0.0
H913 H 0.95803 0.45006 0.84039 0.0
H914 H 0.99276 0.39971 0.80756 0.0
C915 C 0.03545 0.43707 0.68555 0.0
C916 C 1.00754 0.46097 0.75899 0.0
C917 C 0.04906 0.44445 0.65234 0.0
C918 C 0.94642 0.43132 0.89129 0.0
C919 C 0.95922 0.43665 0.8578 0.0
C920 C 0.99675 0.41713 0.79508 0.0
C921 C 0.03158 0.45392 0.70699 0.0
C922 C 0.0165 0.44617 0.74297 0.0
C923 C 0.97295 0.42501 0.84713 0.0
C924 C 0.98804 0.43214 0.81118 0.0
H925 H 0.06285 0.50475 0.65064 0.0
H926 H 0.0412 0.49292 0.70797 0.0
H927 H 0.017 0.41173 0.75221 0.0
H928 H 0.95891 0.38731 0.92305 0.0
H929 H 0.9821 0.39716 0.86594 0.0
C930 C 0.53994 0.94718 0.21904 0.0
C931 C 0.55767 0.95032 0.2459 0.0
C932 C 0.54703 0.96022 0.18561 0.0
C933 C 0.60257 0.99885 0.12333 0.0
H934 H 0.55651 0.01566 1.07747 0.0
C935 C 0.62039 0.04345 0.9755 0.0
C936 C 0.61132 0.05973 0.96683 0.0
C937 C 0.61472 0.03044 1.0092 0.0
C938 C 0.56992 0.01146 1.08968 0.0
H939 H 0.59738 0.97027 0.25702 0.0
H940 H 0.60975 0.99301 0.19915 0.0
H941 H 0.54582 0.99383 0.13525 0.0
H942 H 0.58911 0.07482 0.98859 0.0
H943 H 0.57969 0.05287 1.04632 0.0
H944 H 0.62688 0.01703 1.07785 0.0
C945 C 0.59012 0.98013 0.2038 0.0
C946 C 0.56351 0.99839 0.12314 0.0
C947 C 0.58298 0.96704 0.23745 0.0
C948 C 0.59654 0.06253 0.99354 0.0
C949 C 0.59087 0.04958 1.02704 0.0
C950 C 0.60896 0.01191 1.0897 0.0
C951 C 0.57228 0.9772 0.17709 0.0
C952 C 0.57961 0.99166 0.14092 0.0
C953 C 0.59964 0.03304 1.03577 0.0
C954 C 0.59282 0.01863 1.07199 0.0
H955 H 0.52026 0.93456 0.22382 0.0
H956 H 0.53245 0.95665 0.16621 0.0
H957 H 0.61565 0.9941 0.13528 0.0
H958 H 0.63173 0.0405 0.95604 0.0
H959 H 0.62184 0.0179 1.014 0.0
C960 C 0.60737 0.56738 0.57257 0.0
C961 C 0.6028 0.54289 0.57826 0.0
C962 C 0.60095 0.57455 0.53932 0.0
C963 C 0.5631 0.54674 0.45182 0.0
H964 H 0.59575 0.61559 0.42034 0.0
C965 C 0.5271 0.57429 0.32227 0.0
C966 C 0.54308 0.59538 0.30115 0.0
C967 C 0.53475 0.56911 0.35578 0.0
C968 C 0.58643 0.59614 0.42815 0.0
H969 H 0.58835 0.50714 0.55161 0.0
H970 H 0.57835 0.51954 0.49438 0.0
H971 H 0.60866 0.60461 0.4767 0.0
H972 H 0.58022 0.62766 0.30027 0.0
H973 H 0.59392 0.61841 0.35792 0.0
H974 H 0.54168 0.53797 0.40283 0.0
C975 C 0.58601 0.53331 0.51574 0.0
C976 C 0.59371 0.58978 0.46133 0.0
C977 C 0.59208 0.52612 0.54898 0.0
C978 C 0.56716 0.61129 0.31543 0.0
C979 C 0.57501 0.60591 0.34897 0.0
C980 C 0.55604 0.55304 0.41862 0.0
C981 C 0.5899 0.55763 0.51002 0.0
C982 C 0.58222 0.56486 0.47413 0.0
C983 C 0.55904 0.5845 0.36994 0.0
C984 C 0.56734 0.57792 0.40585 0.0
H985 H 0.61541 0.58097 0.59419 0.0
H986 H 0.60425 0.59337 0.53708 0.0
H987 H 0.55308 0.52737 0.45999 0.0
H988 H 0.50831 0.56155 0.31293 0.0
H989 H 0.5212 0.55288 0.37065 0.0
C990 C 0.07385 0.59409 0.89147 0.0
C991 C 0.0689 0.60631 0.91986 0.0
C992 C 0.06049 0.58793 0.85826 0.0
C993 C 0.01592 0.59976 0.80036 0.0
H994 H 1.00749 0.54182 0.74843 0.0
C995 C 0.96912 0.57309 0.65357 0.0
C996 C 0.95619 0.54777 0.6429 0.0
C997 C 0.9826 0.58082 0.68693 0.0
C998 C 1.00925 0.55798 0.76235 0.0
H999 H 0.04528 0.62154 0.93399 0.0
H1000 H 0.0219 0.61067 0.87663 0.0
H1001 H 0.02979 0.5533 0.80572 0.0
H1002 H 0.94757 0.51093 0.66085 0.0
H1003 H 0.97013 0.524 0.71793 0.0
H1004 H 0.9947 0.60395 0.75715 0.0
C1005 C 0.0365 0.60605 0.8798 0.0
C1006 C 0.02265 0.56493 0.79556 0.0
C1007 C 0.04998 0.61228 0.91318 0.0
C1008 C 0.95722 0.53063 0.66729 0.0
C1009 C 0.97056 0.53828 0.70046 0.0
C1010 C 1.00246 0.59278 0.76701 0.0
C1011 C 0.04128 0.59351 0.8515 0.0
C1012 C 0.02644 0.58604 0.81555 0.0
C1013 C 0.98381 0.56359 0.7112 0.0
C1014 C 0.99869 0.57163 0.74711 0.0
H1015 H 0.0882 0.58911 0.89484 0.0
H1016 H 0.06558 0.57889 0.83764 0.0
H1017 H 0.0183 0.61626 0.814 0.0
H1018 H 0.96906 0.58708 0.63597 0.0
H1019 H 0.99249 0.60051 0.69327 0.0
C1020 C 0.47333 0.03868 0.43899 0.0
C1021 C 0.48425 0.03607 0.40699 0.0
C1022 C 0.47355 0.02656 0.47082 0.0
C1023 C 0.51806 0.02825 0.51215 0.0
H1024 H 0.51045 0.96257 0.50949 0.0
C1025 C 0.54812 0.99509 0.41013 0.0
C1026 C 0.55363 0.97591 0.41327 0.0
C1027 C 0.54773 0.00773 0.44127 0.0
C1028 C 0.513 0.98112 0.51228 0.0
H1029 H 0.49946 0.01542 0.38098 0.0
H1030 H 0.49685 0.99165 0.43552 0.0
H1031 H 0.47391 0.96701 0.50508 0.0
H1032 H 0.56574 0.95668 0.45053 0.0
H1033 H 0.56122 0.9761 0.50492 0.0
H1034 H 0.55743 0.0425 0.50996 0.0
C1035 C 0.48985 1.00451 0.43673 0.0
C1036 C 0.49181 0.98358 0.50994 0.0
C1037 C 0.49148 0.01808 0.40551 0.0
C1038 C 0.56097 0.97118 0.44735 0.0
C1039 C 0.55894 0.9826 0.47862 0.0
C1040 C 0.53931 0.02583 0.51269 0.0
C1041 C 0.4832 0.01046 0.47033 0.0
C1042 C 0.49492 0.00727 0.50325 0.0
C1043 C 0.55074 0.99983 0.47601 0.0
C1044 C 0.53659 1.0023 0.50628 0.0
H1045 H 0.46696 0.05204 0.44048 0.0
H1046 H 0.46844 0.03154 0.49625 0.0
H1047 H 0.52075 0.04684 0.50918 0.0
H1048 H 0.54287 0.99938 0.38417 0.0
H1049 H 0.54184 0.02142 0.43849 0.0
C1050 C 0.46844 0.47445 0.74296 0.0
C1051 C 0.44322 0.46733 0.74465 0.0
C1052 C 0.48125 0.47583 0.77493 0.0
C1053 C 0.50726 0.49034 0.8468 0.0
H1054 H 0.50647 0.55036 0.81966 0.0
C1055 C 0.58407 0.55457 0.76631 0.0
C1056 C 0.57198 0.54175 0.73409 0.0
C1057 C 0.57036 0.55523 0.7957 0.0
C1058 C 0.50729 0.53432 0.82964 0.0
H1059 H 0.41065 0.45245 0.7796 0.0
H1060 H 0.43409 0.45939 0.83575 0.0
H1061 H 0.46781 0.51278 0.83362 0.0
H1062 H 0.53678 0.52364 0.70528 0.0
H1063 H 0.51294 0.52663 0.75593 0.0
H1064 H 0.54667 0.51126 0.83934 0.0
C1065 C 0.44359 0.46208 0.81005 0.0
C1066 C 0.48502 0.51255 0.83787 0.0
C1067 C 0.43039 0.45877 0.77784 0.0
C1068 C 0.54648 0.53314 0.72988 0.0
C1069 C 0.53296 0.53504 0.75885 0.0
C1070 C 0.52975 0.51238 0.84059 0.0
C1071 C 0.46952 0.47264 0.80895 0.0
C1072 C 0.48487 0.48974 0.83819 0.0
C1073 C 0.54447 0.54394 0.79296 0.0
C1074 C 0.52913 0.53304 0.82567 0.0
H1075 H 0.47856 0.48063 0.71759 0.0
H1076 H 0.50121 0.48331 0.77325 0.0
H1077 H 0.50764 0.47311 0.84937 0.0
H1078 H 0.60385 0.5618 0.77056 0.0
H1079 H 0.5796 0.5621 0.82161 0.0
C1080 C 0.96909 0.42944 0.11478 0.0
C1081 C 0.97394 0.44356 1.08266 0.0
C1082 C 0.98091 0.44089 0.14717 0.0
C1083 C 0.98316 0.48641 0.18596 0.0
H1084 H 0.05185 0.53935 0.18581 0.0
C1085 C 0.0246 0.55073 1.08269 0.0
C1086 C 0.04504 0.57469 1.08678 0.0
C1087 C 0.01108 0.53758 0.11333 0.0
C1088 C 0.03245 0.52485 0.18771 0.0
H1089 H 0.99809 0.4791 1.05723 0.0
H1090 H 0.02126 0.49841 0.11295 0.0
H1091 H 0.04239 0.49648 0.18523 0.0
H1092 H 0.06622 0.60462 0.12529 0.0
H1093 H 0.04482 0.58027 0.17877 0.0
H1094 H 0.97337 0.51473 0.17892 0.0
C1095 C 1.0069 0.47896 0.11373 0.0
C1096 C 0.02705 0.50011 0.18774 0.0
C1097 C 0.99369 0.46808 1.08184 0.0
C1098 C 0.05067 0.5859 0.12143 0.0
C1099 C 0.03817 0.57227 0.15212 0.0
C1100 C 0.98853 0.51112 0.184 0.0
C1101 C 0.99893 0.46618 0.14719 0.0
C1102 C 1.0026 0.4813 0.17985 0.0
C1103 C 0.01903 0.54757 0.14849 0.0
C1104 C 0.01335 0.53001 0.17886 0.0
H1105 H 0.95438 0.41014 0.11574 0.0
H1106 H 0.97439 0.43069 0.17247 0.0
H1107 H 0.96388 0.47188 0.18229 0.0
H1108 H 0.01968 0.54192 1.05625 0.0
H1109 H 0.99608 0.51856 0.10978 0.0
C1110 C 0.04067 0.46794 0.43914 0.0
C1111 C 0.03597 0.47586 0.47256 0.0
C1112 C 0.03135 0.47196 0.40689 0.0
C1113 C 0.04001 0.52222 0.37783 0.0
H1114 H 0.97673 0.52019 0.37671 0.0
C1115 C 1.00121 0.54211 0.48679 0.0
C1116 C 0.98305 0.54916 0.48405 0.0
C1117 C 0.01611 0.54479 0.45672 0.0
C1118 C 0.99485 0.52151 0.37534 0.0
H1119 H 0.01402 0.48922 0.49957 0.0
H1120 H 0.9951 0.49327 0.44365 0.0
H1121 H 0.97788 0.48216 0.36786 0.0
H1122 H 0.9682 0.56714 0.44895 0.0
H1123 H 0.9921 0.56892 0.39606 0.0
H1124 H 0.05629 0.56027 0.39448 0.0
C1125 C 1.00741 0.48561 0.442 0.0
C1126 C 0.99545 0.49952 0.36984 0.0
C1127 C 0.01823 0.48344 0.4741 0.0
C1128 C 0.98189 0.56123 0.45206 0.0
C1129 C 0.99584 0.5627 0.42163 0.0
C1130 C 0.03936 0.54399 0.38517 0.0
C1131 C 0.01607 0.48258 0.40801 0.0
C1132 C 0.01742 0.49928 0.37837 0.0
C1133 C 0.0118 0.55291 0.42299 0.0
C1134 C 0.01614 0.54243 0.38972 0.0
H1135 H 0.05391 0.46142 0.43736 0.0
H1136 H 0.03832 0.46949 0.38121 0.0
H1137 H 0.05759 0.52269 0.3819 0.0
H1138 H 1.00279 0.53315 0.51114 0.0
H1139 H 0.02868 0.53743 0.45864 0.0
C1140 C 0.44204 0.97574 0.7717 0.0
C1141 C 0.45593 0.9786 0.80355 0.0
C1142 C 0.45404 0.98778 0.73969 0.0
C1143 C 0.49533 0.985 0.69745 0.0
H1144 H 0.55541 0.04921 0.70117 0.0
C1145 C 0.55715 0.01486 0.80093 0.0
C1146 C 0.58212 0.03368 0.79879 0.0
C1147 C 0.5444 1.00267 0.76929 0.0
C1148 C 0.53884 0.03105 0.69806 0.0
H1149 H 0.49212 0.99952 0.82901 0.0
H1150 H 0.51276 0.02287 0.77408 0.0
H1151 H 0.51533 0.04682 0.70502 0.0
H1152 H 0.61415 0.05257 0.76273 0.0
H1153 H 0.59085 0.03385 0.70752 0.0
H1154 H 0.51894 0.96903 0.69976 0.0
C1155 C 0.49283 0.01008 0.77317 0.0
C1156 C 0.5157 0.02978 0.7001 0.0
C1157 C 0.48118 0.9967 0.80463 0.0
C1158 C 0.5947 0.03831 0.76523 0.0
C1159 C 0.58158 0.0273 0.73345 0.0
C1160 C 0.51848 0.98622 0.69714 0.0
C1161 C 0.47986 1.00389 0.73973 0.0
C1162 C 0.49438 1.00656 0.70664 0.0
C1163 C 0.55592 0.01064 0.73499 0.0
C1164 C 0.53999 0.00919 0.70411 0.0
H1165 H 0.4223 0.96219 0.77044 0.0
H1166 H 0.44366 0.98259 0.71441 0.0
H1167 H 0.47885 0.96676 0.70012 0.0
H1168 H 0.54718 0.01066 0.82645 0.0
H1169 H 0.52461 0.98943 0.77128 0.0
C1170 C 0.5399 0.5422 0.1456 0.0
C1171 C 0.54417 0.56652 0.14675 0.0
C1172 C 0.54495 0.53337 0.11375 0.0
C1173 C 0.54613 0.51465 1.03986 0.0
H1174 H 0.48067 0.50809 1.0345 0.0
C1175 C 0.47352 0.43165 1.09742 0.0
C1176 C 0.47919 0.44291 0.13205 0.0
C1177 C 0.47754 0.44593 1.06622 0.0
C1178 C 0.49885 0.50954 1.03335 0.0
H1179 H 0.56029 0.60183 0.11795 0.0
H1180 H 0.56496 0.58507 1.06062 0.0
H1181 H 0.51729 0.54898 1.03824 0.0
H1182 H 0.48918 0.47666 0.16168 0.0
H1183 H 0.49349 0.50116 1.10721 0.0
H1184 H 0.52742 0.47497 1.03892 0.0
C1185 C 0.55933 0.57332 1.08457 0.0
C1186 C 0.5201 0.53316 1.03559 0.0
C1187 C 0.55593 0.58262 0.11718 0.0
C1188 C 0.48512 0.46771 0.13535 0.0
C1189 C 0.48745 0.48157 1.10411 0.0
C1190 C 0.52501 0.49105 1.03593 0.0
C1191 C 0.55218 0.5481 1.08189 0.0
C1192 C 0.54272 0.535 1.04692 0.0
C1193 C 0.48594 0.47137 1.0693 0.0
C1194 C 0.50125 0.48855 1.0401 0.0
H1195 H 0.53136 0.52966 0.16837 0.0
H1196 H 0.53974 0.5139 0.11276 0.0
H1197 H 0.5638 0.51582 1.04611 0.0
H1198 H 0.46847 0.41232 1.09409 0.0
H1199 H 0.4764 0.43767 1.03988 0.0
C1200 C 0.3147 0.94581 0.68964 0.0
C1201 C 0.31278 0.95219 0.7255 0.0
C1202 C 0.30948 0.95697 0.66067 0.0
C1203 C 0.314 0.01659 0.6408 0.0
H1204 H 0.30052 0.98814 0.54419 0.0
C1205 C 0.37488 0.06748 0.5217 0.0
C1206 C 0.36633 0.061 0.48588 0.0
C1207 C 0.35868 0.05628 0.55077 0.0
C1208 C 0.30373 0.9965 0.57087 0.0
H1209 H 0.30184 0.97369 0.75931 0.0
H1210 H 0.29227 0.99299 0.7085 0.0
H1211 H 0.28621 0.96077 0.59666 0.0
H1212 H 0.33363 0.03929 0.45228 0.0
H1213 H 0.30509 0.01997 0.50324 0.0
H1214 H 0.33201 0.05232 0.61501 0.0
C1215 C 0.29825 0.97965 0.7028 0.0
C1216 C 0.29578 0.98073 0.60105 0.0
C1217 C 0.30358 0.96848 0.73189 0.0
C1218 C 0.34077 0.04459 0.47965 0.0
C1219 C 0.32447 0.0334 0.50883 0.0
C1220 C 0.32161 0.03236 0.61062 0.0
C1221 C 0.30207 0.97473 0.66685 0.0
C1222 C 0.30245 0.99061 0.63626 0.0
C1223 C 0.33345 0.0384 0.54473 0.0
C1224 C 0.31817 0.02249 0.57539 0.0
H1225 H 0.32127 0.93292 0.68392 0.0
H1226 H 0.31295 0.95286 0.63347 0.0
H1227 H 0.31933 0.02495 0.66747 0.0
H1228 H 0.39439 0.08046 0.52731 0.0
H1229 H 0.36645 0.06046 0.57792 0.0
C1230 C 0.37195 0.29624 1.01878 0.0
C1231 C 0.36306 0.29347 1.05446 0.0
C1232 C 0.35572 0.29047 0.98943 0.0
C1233 C 0.29867 0.2915 0.96895 0.0
H1234 H 0.3163 0.28149 0.87214 0.0
C1235 C 0.30606 0.35298 0.85187 0.0
C1236 C 0.30474 0.34525 0.81578 0.0
C1237 C 0.30179 0.33652 0.88038 0.0
C1238 C 0.31043 0.28369 0.89886 0.0
H1239 H 0.32981 0.28039 1.08745 0.0
H1240 H 0.3013 0.26975 1.03605 0.0
H1241 H 0.33023 0.26767 0.92431 0.0
H1242 H 0.29588 0.31367 0.78106 0.0
H1243 H 0.28802 0.28464 0.8311 0.0
H1244 H 0.27933 0.308 0.94352 0.0
C1245 C 0.32093 0.27688 1.03077 0.0
C1246 C 0.31874 0.27604 0.92888 0.0
C1247 C 0.33725 0.2828 1.06023 0.0
C1248 C 0.29712 0.32016 0.80868 0.0
C1249 C 0.29277 0.30359 0.83731 0.0
C1250 C 0.29003 0.29878 0.93893 0.0
C1251 C 0.33014 0.28163 0.99504 0.0
C1252 C 0.3145 0.28153 0.96425 0.0
C1253 C 0.29597 0.31185 0.87351 0.0
C1254 C 0.29737 0.29663 0.90369 0.0
H1255 H 0.39167 0.30392 1.0135 0.0
H1256 H 0.36366 0.29465 0.96242 0.0
H1257 H 0.29481 0.29589 0.99573 0.0
H1258 H 0.31142 0.3721 0.85813 0.0
H1259 H 0.30475 0.34374 0.90779 0.0
C1260 C 0.9379 0.30293 0.19546 0.0
C1261 C 0.94422 0.30087 0.15961 0.0
C1262 C 0.949 0.29765 0.22447 0.0
C1263 C 1.00846 0.30156 0.24437 0.0
H1264 H 0.98014 0.28859 0.34105 0.0
C1265 C 0.06037 0.36204 0.36343 0.0
C1266 C 0.05387 0.35355 0.39926 0.0
C1267 C 0.04884 0.34594 0.33437 0.0
C1268 C 0.98845 0.29165 0.31435 0.0
H1269 H 0.96552 0.28962 0.1259 0.0
H1270 H 0.98468 0.27992 0.17677 0.0
H1271 H 0.95264 0.27451 0.28865 0.0
H1272 H 0.03172 0.32101 0.43287 0.0
H1273 H 0.01182 0.29263 0.38191 0.0
H1274 H 0.04427 0.31916 0.27007 0.0
C1275 C 0.97145 0.28607 0.18243 0.0
C1276 C 0.97261 0.28384 0.28422 0.0
C1277 C 0.96035 0.29146 0.15329 0.0
C1278 C 0.03705 0.32811 0.40549 0.0
C1279 C 0.02553 0.3119 0.37631 0.0
C1280 C 0.02429 0.30902 0.27451 0.0
C1281 C 0.96662 0.29004 0.21836 0.0
C1282 C 0.98248 0.29033 0.24897 0.0
C1283 C 0.0306 0.32086 0.34041 0.0
C1284 C 0.01448 0.30576 0.30976 0.0
H1285 H 0.92513 0.30966 0.20114 0.0
H1286 H 0.94495 0.30123 0.25165 0.0
H1287 H 0.0168 0.30674 0.21767 0.0
H1288 H 0.07367 0.38144 0.35781 0.0
H1289 H 0.0531 0.35369 0.30722 0.0
C1290 C 0.72305 0.07119 0.68724 0.0
C1291 C 0.72583 0.06598 0.7235 0.0
C1292 C 0.72701 0.05865 0.65903 0.0
C1293 C 0.72062 0.99765 0.64401 0.0
H1294 H 0.73225 0.0221 0.54499 0.0
C1295 C 0.65839 0.94138 0.5281 0.0
C1296 C 0.66667 0.94654 0.49201 0.0
C1297 C 0.67473 0.95393 0.55662 0.0
C1298 C 0.72952 0.01485 0.5724 0.0
H1299 H 0.73709 0.04514 0.75857 0.0
H1300 H 0.74459 0.0236 0.70914 0.0
H1301 H 0.74769 0.05158 0.59487 0.0
H1302 H 0.69909 0.96731 0.45763 0.0
H1303 H 0.72785 0.98887 0.50763 0.0
H1304 H 0.70201 0.96093 0.62154 0.0
C1305 C 0.73883 0.03702 0.70256 0.0
C1306 C 0.73812 0.03183 0.60108 0.0
C1307 C 0.73474 0.04953 0.73087 0.0
C1308 C 0.69213 0.96296 0.48518 0.0
C1309 C 0.70857 0.97548 0.51381 0.0
C1310 C 0.71234 0.98067 0.61534 0.0
C1311 C 0.73402 0.04069 0.6664 0.0
C1312 C 0.73229 0.02342 0.63713 0.0
C1313 C 0.69982 0.97185 0.54976 0.0
C1314 C 0.71523 0.98909 0.57924 0.0
H1315 H 0.71667 0.08415 0.6807 0.0
H1316 H 0.72286 0.06186 0.63163 0.0
H1317 H 0.71587 0.9904 0.6714 0.0
H1318 H 0.63897 0.92845 0.53424 0.0
H1319 H 0.66716 0.95075 0.58383 0.0
C1320 C 0.63466 0.72714 1.01963 0.0
C1321 C 0.64276 0.72021 1.05093 0.0
C1322 C 0.64682 0.73011 0.98647 0.0
C1323 C 0.70084 0.72785 0.94352 0.0
H1324 H 0.65158 0.69082 0.86921 0.0
C1325 C 0.6898 0.67533 0.79723 0.0
C1326 C 0.69737 0.65839 0.80829 0.0
C1327 C 0.68847 0.69147 0.82233 0.0
C1328 C 0.6657 0.70167 0.88933 0.0
H1329 H 0.67091 0.71256 1.07248 0.0
H1330 H 0.69153 0.71704 1.01524 0.0
H1331 H 0.63948 0.7053 0.92227 0.0
H1332 H 0.71086 0.64595 0.85348 0.0
H1333 H 0.70888 0.67447 0.89739 0.0
H1334 H 0.72639 0.72202 0.91156 0.0
C1335 C 0.67629 0.72087 1.01593 0.0
C1336 C 0.65882 0.71014 0.91978 0.0
C1337 C 0.66436 0.71822 1.04901 0.0
C1338 C 0.7049 0.6588 0.84438 0.0
C1339 C 0.70396 0.67523 0.86934 0.0
C1340 C 0.70758 0.71894 0.91333 0.0
C1341 C 0.66706 0.7258 0.98391 0.0
C1342 C 0.67603 0.72245 0.94803 0.0
C1343 C 0.69509 0.69122 0.85874 0.0
C1344 C 0.68981 0.70504 0.88664 0.0
H1345 H 0.61823 0.72911 1.02045 0.0
H1346 H 0.63956 0.73452 0.96254 0.0
H1347 H 0.71478 0.73784 0.96423 0.0
H1348 H 0.68371 0.67521 0.76958 0.0
H1349 H 0.68152 0.70359 0.81359 0.0
C1350 C 0.07872 0.72636 0.19333 0.0
C1351 C 0.06511 0.71328 0.16254 0.0
C1352 C 0.06645 0.72877 0.22348 0.0
C1353 C 0.03498 0.71061 0.29081 0.0
H1354 H 0.96987 0.70531 0.28639 0.0
C1355 C 0.9401 0.65063 0.3699 0.0
C1356 C 0.94864 0.65519 0.40596 0.0
C1357 C 0.95468 0.66666 0.34214 0.0
C1358 C 0.98817 0.70708 0.28808 0.0
H1359 H 0.02827 0.69341 0.1383 0.0
H1360 H 1.00674 0.6967 0.19106 0.0
H1361 H 0.99663 0.71883 0.23273 0.0
H1362 H 0.97829 0.68095 0.44164 0.0
H1363 H 1.00384 0.70889 0.39302 0.0
H1364 H 0.02625 0.69818 0.34572 0.0
C1365 C 0.02691 0.70584 0.1919 0.0
C1366 C 1.00345 0.71466 0.25735 0.0
C1367 C 0.03923 0.70378 0.16163 0.0
C1368 C 0.97118 0.67702 0.41409 0.0
C1369 C 0.98587 0.69294 0.3863 0.0
C1370 C 0.01989 0.70338 0.32157 0.0
C1371 C 0.04026 0.71769 0.22365 0.0
C1372 C 0.02657 0.71542 0.25789 0.0
C1373 C 0.97816 0.68741 0.34995 0.0
C1374 C 0.99593 0.70055 0.32007 0.0
H1375 H 0.09877 0.73413 0.19443 0.0
H1376 H 0.0774 0.73852 0.24714 0.0
H1377 H 0.05246 0.7106 0.29233 0.0
H1378 H 0.92267 0.63404 0.36299 0.0
H1379 H 0.94836 0.66182 0.31434 0.0
C1380 C 0.51084 0.09476 0.48868 0.0
C1381 C 0.52704 0.10713 0.45929 0.0
C1382 C 0.52017 0.0936 0.52364 0.0
C1383 C 0.58069 0.10632 0.57296 0.0
H1384 H 0.54153 0.09708 0.65915 0.0
C1385 C 0.6167 0.09835 0.72043 0.0
C1386 C 0.60793 0.10553 0.75085 0.0
C1387 C 0.60722 0.09779 0.68479 0.0
C1388 C 0.55318 0.10007 0.6357 0.0
H1389 H 0.56636 0.12864 0.4456 0.0
H1390 H 0.58223 0.12751 0.50526 0.0
H1391 H 0.52476 0.0983 0.60013 0.0
H1392 H 0.58268 0.11869 0.76591 0.0
H1393 H 0.5674 0.11872 0.70553 0.0
H1394 H 0.60948 0.10893 0.60883 0.0
C1395 C 0.56219 0.11779 0.50164 0.0
C1396 C 0.54315 0.10034 0.6011 0.0
C1397 C 0.55291 0.11875 0.46687 0.0
C1398 C 0.59002 0.11283 0.74376 0.0
C1399 C 0.58083 0.11251 0.70855 0.0
C1400 C 0.59082 0.10627 0.60764 0.0
C1401 C 0.54618 0.10494 0.53103 0.0
C1402 C 0.55669 0.10373 0.56866 0.0
C1403 C 0.5887 0.10454 0.67803 0.0
C1404 C 0.57748 0.10345 0.64008 0.0
H1405 H 0.49085 0.08549 0.4846 0.0
H1406 H 0.50673 0.0832 0.54464 0.0
H1407 H 0.59194 0.10833 0.54941 0.0
H1408 H 0.63017 0.09225 0.72426 0.0
H1409 H 0.614 0.09133 0.66271 0.0
C1410 C 0.42938 0.53593 0.80054 0.0
C1411 C 0.41325 0.51026 0.7935 0.0
C1412 C 0.43919 0.54499 0.83558 0.0
C1413 C 0.43168 0.52755 0.93621 0.0
H1414 H 0.49599 0.58789 0.94445 0.0
C1415 C 0.46836 0.5769 1.07792 0.0
C1416 C 0.49421 0.59088 1.08576 0.0
C1417 C 0.45919 0.56715 1.04288 0.0
C1418 C 0.47807 0.57091 0.94316 0.0
H1419 H 0.39505 0.47421 0.82002 0.0
H1420 H 0.41205 0.48979 0.88078 0.0
H1421 H 0.4793 0.5706 0.8848 0.0
H1422 H 0.53048 0.60511 1.06084 0.0
H1423 H 0.51472 0.58829 1.0001 0.0
H1424 H 0.43072 0.52749 0.99457 0.0
C1425 C 0.41702 0.50319 0.85898 0.0
C1426 C 0.46815 0.561 0.90833 0.0
C1427 C 0.4072 0.49407 0.82367 0.0
C1428 C 0.51049 0.59483 1.05644 0.0
C1429 C 0.50128 0.58506 1.02116 0.0
C1430 C 0.44158 0.53747 0.97103 0.0
C1431 C 0.43346 0.52894 0.86584 0.0
C1432 C 0.44455 0.53914 0.9038 0.0
C1433 C 0.47531 0.57071 1.01348 0.0
C1434 C 0.46498 0.55958 0.97556 0.0
H1435 H 0.43484 0.54934 0.77862 0.0
H1436 H 0.45121 0.5649 0.83882 0.0
H1437 H 0.41351 0.51086 0.93486 0.0
H1438 H 0.45488 0.57317 1.09918 0.0
H1439 H 0.43917 0.55688 1.03897 0.0
C1440 C 0.89471 0.4364 0.1393 0.0
C1441 C 0.90328 0.41948 0.1322 0.0
C1442 C 0.89567 0.44615 0.1744 0.0
C1443 C 0.90574 0.43791 0.27508 0.0
H1444 H 0.91023 0.50232 0.28458 0.0
C1445 C 0.92244 0.48579 0.41749 0.0
C1446 C 0.91167 0.50051 0.42707 0.0
C1447 C 0.9214 0.47691 0.38192 0.0
C1448 C 0.90869 0.48417 0.28282 0.0
H1449 H 0.91962 0.39984 0.15882 0.0
H1450 H 0.92172 0.41695 0.21952 0.0
H1451 H 0.90923 0.4854 0.22444 0.0
H1452 H 0.89193 0.51787 0.40389 0.0
H1453 H 0.89014 0.50246 0.34145 0.0
H1454 H 0.90543 0.43678 0.33342 0.0
C1455 C 0.91376 0.42252 0.19777 0.0
C1456 C 0.90806 0.47423 0.24777 0.0
C1457 C 0.91268 0.41262 0.16244 0.0
C1458 C 0.90042 0.50662 0.39837 0.0
C1459 C 0.89944 0.49768 0.36222 0.0
C1460 C 0.90649 0.44789 0.31005 0.0
C1461 C 0.90538 0.43972 0.20472 0.0
C1462 C 0.90652 0.45075 0.24283 0.0
C1463 C 0.90959 0.48219 0.35326 0.0
C1464 C 0.90805 0.47133 0.31499 0.0
H1465 H 0.88726 0.44245 0.11741 0.0
H1466 H 0.88842 0.4587 0.17757 0.0
H1467 H 0.90407 0.4197 0.27359 0.0
H1468 H 0.93187 0.4808 0.43782 0.0
H1469 H 0.93022 0.46591 0.37699 0.0
C1470 C 0.52505 0.91181 0.49216 0.0
C1471 C 0.50899 0.90464 0.4617 0.0
C1472 C 0.51636 0.91278 0.52772 0.0
C1473 C 0.46052 0.91145 0.57647 0.0
H1474 H 0.49127 0.90361 0.66315 0.0
C1475 C 0.4245 0.91838 0.72309 0.0
C1476 C 0.42841 0.9063 0.75287 0.0
C1477 C 0.43468 0.91905 0.68816 0.0
C1478 C 0.48196 0.90551 0.6395 0.0
H1479 H 0.47053 0.89183 0.44661 0.0
H1480 H 0.45562 0.89246 0.50682 0.0
H1481 H 0.50779 0.90238 0.60388 0.0
H1482 H 0.44618 0.88488 0.76735 0.0
H1483 H 0.46277 0.88528 0.7078 0.0
H1484 H 0.43418 0.91373 0.6118 0.0
C1485 C 0.4752 0.89841 0.50387 0.0
C1486 C 0.49191 0.9052 0.60488 0.0
C1487 C 0.48386 0.89771 0.46873 0.0
C1488 C 0.44254 0.89455 0.74575 0.0
C1489 C 0.45253 0.89506 0.71103 0.0
C1490 C 0.45045 0.91155 0.61101 0.0
C1491 C 0.49119 0.9064 0.53441 0.0
C1492 C 0.4813 0.90786 0.57229 0.0
C1493 C 0.44923 0.90757 0.68121 0.0
C1494 C 0.46069 0.90833 0.64361 0.0
H1495 H 0.54454 0.91756 0.48845 0.0
H1496 H 0.52971 0.91921 0.54979 0.0
H1497 H 0.4518 0.91434 0.5529 0.0
H1498 H 0.41393 0.92781 0.72683 0.0
H1499 H 0.43156 0.92922 0.66684 0.0
C1500 C 0.61288 0.50467 0.82391 0.0
C1501 C 0.59675 0.49514 0.79358 0.0
C1502 C 0.60429 0.49557 0.85982 0.0
C1503 C 0.55096 0.44034 0.90997 0.0
H1504 H 0.57483 0.48299 0.99436 0.0
C1505 C 0.50644 0.40405 1.05646 0.0
C1506 C 0.52156 0.41488 1.08745 0.0
C1507 C 0.51527 0.41347 1.02083 0.0
C1508 C 0.56802 0.47043 0.97142 0.0
H1509 H 0.55814 0.46866 0.7794 0.0
H1510 H 0.54385 0.45356 0.83988 0.0
H1511 H 0.59162 0.50005 0.93455 0.0
H1512 H 0.55864 0.44404 1.10338 0.0
H1513 H 0.57374 0.45945 1.04312 0.0
H1514 H 0.52753 0.41067 0.94667 0.0
C1515 C 0.5633 0.46756 0.83647 0.0
C1516 C 0.57781 0.48044 0.93661 0.0
C1517 C 0.57173 0.47658 0.80112 0.0
C1518 C 0.54597 0.43498 1.0809 0.0
C1519 C 0.55475 0.44421 1.0457 0.0
C1520 C 0.54128 0.43029 0.94477 0.0
C1521 C 0.57929 0.47649 0.86682 0.0
C1522 C 0.5695 0.46569 0.9049 0.0
C1523 C 0.53965 0.43405 1.0146 0.0
C1524 C 0.54957 0.44501 0.97655 0.0
H1525 H 0.63216 0.51897 0.81997 0.0
H1526 H 0.61748 0.50321 0.88204 0.0
H1527 H 0.54402 0.42789 0.8869 0.0
H1528 H 0.48751 0.38879 1.05975 0.0
H1529 H 0.50263 0.4049 0.99822 0.0
C1530 C 0.11808 0.54391 0.42178 0.0
C1531 C 0.10953 0.51825 0.42744 0.0
C1532 C 0.11806 0.55375 0.38701 0.0
C1533 C 0.11511 0.54026 0.28615 0.0
H1534 H 0.10237 0.59521 0.27644 0.0
C1535 C 0.10653 0.57509 0.14174 0.0
C1536 C 0.11269 0.60003 0.13468 0.0
C1537 C 0.10595 0.56603 0.1771 0.0
C1538 C 0.10634 0.58011 0.27826 0.0
H1539 H 0.09408 0.48309 0.39894 0.0
H1540 H 0.09435 0.50013 0.33849 0.0
H1541 H 0.10132 0.57757 0.33636 0.0
H1542 H 0.12244 0.63463 0.16193 0.0
H1543 H 0.12197 0.61905 0.22388 0.0
H1544 H 0.12065 0.5429 0.22854 0.0
C1545 C 0.10129 0.51285 0.36126 0.0
C1546 C 0.10568 0.5698 0.31313 0.0
C1547 C 0.10106 0.50291 0.3963 0.0
C1548 C 0.11785 0.61544 0.16549 0.0
C1549 C 0.11739 0.60628 0.2014 0.0
C1550 C 0.11596 0.55065 0.25143 0.0
C1551 C 0.1097 0.53855 0.35573 0.0
C1552 C 0.11 0.54954 0.31799 0.0
C1553 C 0.11164 0.58129 0.20808 0.0
C1554 C 0.11143 0.57078 0.24633 0.0
H1555 H 0.12462 0.55665 0.44456 0.0
H1556 H 0.12499 0.57357 0.3847 0.0
H1557 H 0.11905 0.52513 0.28799 0.0
H1558 H 0.10176 0.56197 0.11964 0.0
H1559 H 0.10048 0.54657 0.17988 0.0
loop_
_geom_bond_atom_site_label_1
_geom_bond_atom_site_label_2
_geom_bond_distance
_geom_bond_site_symmetry_2
_ccdc_geom_bond_type
Tb0 C9 2.764 . S
Tb0 O10 2.325 . S
Tb0 O13 2.303 . S
Tb0 O17 2.322 . S
Tb0 O18 2.349 . S
Tb0 O21 2.415 . S
Tb0 O22 2.399 . S
Tb1 O11 2.322 . S
Tb1 O12 2.349 . S
Tb1 O14 2.415 . S
Tb1 O15 2.399 . S
Tb1 O16 2.325 . S
Tb1 O19 2.303 . S
Tb1 C30 2.764 . S
C2 O18 1.261 . S
C2 O19 1.257 . S
C3 C6 1.358 . S
C3 C7 1.332 . S
C3 C9 1.504 . S
C4 C5 1.373 . S
C4 C8 1.308 . S
C5 C4 1.373 . S
C5 C6 1.429 . S
C5 H32 0.932 . S
C6 C3 1.358 . S
C6 C5 1.429 . S
C6 H33 0.930 . S
C7 C3 1.332 . S
C7 C8 1.394 . S
C7 H34 0.932 . S
C8 C4 1.308 . S
C8 C7 1.394 . S
C8 H35 0.929 . S
C9 Tb0 2.764 . S
C9 C3 1.504 . S
C9 O21 1.239 . S
C9 O22 1.263 . S
O10 Tb0 2.325 . S
O10 C20 1.236 . S
O11 Tb1 2.322 . S
O11 C20 1.257 . S
O12 Tb1 2.349 . S
O12 C23 1.261 . S
O13 Tb0 2.303 . S
O13 C23 1.257 . S
O14 Tb1 2.415 . S
O14 C30 1.239 . S
O15 Tb1 2.399 . S
O15 C30 1.263 . S
O16 Tb1 2.325 . S
O16 C31 1.236 . S
O17 Tb0 2.322 . S
O17 C31 1.257 . S
O18 Tb0 2.349 . S
O18 C2 1.261 . S
O19 Tb1 2.303 . S
O19 C2 1.257 . S
C20 O10 1.236 . S
C20 O11 1.257 . S
O21 Tb0 2.415 . S
O21 C9 1.239 . S
O22 Tb0 2.399 . S
O22 C9 1.263 . S
C23 O12 1.261 . S
C23 O13 1.257 . S
C24 C27 1.358 . S
C24 C28 1.332 . S
C24 C30 1.504 . S
C25 C26 1.373 . S
C25 C29 1.308 . S
C26 C25 1.373 . S
C26 C27 1.429 . S
C26 H36 0.932 . S
C27 C24 1.358 . S
C27 C26 1.429 . S
C27 H37 0.930 . S
C28 C24 1.332 . S
C28 C29 1.394 . S
C28 H38 0.932 . S
C29 C25 1.308 . S
C29 C28 1.394 . S
C29 H39 0.929 . S
C30 Tb1 2.764 . S
C30 O14 1.239 . S
C30 O15 1.263 . S
C30 C24 1.504 . S
C31 O16 1.236 . S
C31 O17 1.257 . S
H32 C5 0.932 . S
H33 C6 0.930 . S
H34 C7 0.932 . S
H35 C8 0.929 . S
H36 C26 0.932 . S
H37 C27 0.930 . S
H38 C28 0.932 . S
H39 C29 0.929 . S
Tb40 C49 2.764 . S
Tb40 O50 2.325 . S
Tb40 O53 2.303 . S
Tb40 O57 2.322 . S
Tb40 O58 2.349 . S
Tb40 O61 2.415 . S
Tb40 O62 2.399 . S
Tb41 O51 2.322 . S
Tb41 O52 2.349 . S
Tb41 O54 2.415 . S
Tb41 O55 2.399 . S
Tb41 O56 2.325 . S
Tb41 O59 2.303 . S
Tb41 C70 2.764 . S
C42 O58 1.261 . S
C42 O59 1.257 . S
C43 C46 1.358 . S
C43 C47 1.332 . S
C43 C49 1.504 . S
C44 C45 1.373 . S
C44 C48 1.308 . S
C45 C44 1.373 . S
C45 C46 1.429 . S
C45 H72 0.932 . S
C46 C43 1.358 . S
C46 C45 1.429 . S
C46 H73 0.930 . S
C47 C43 1.332 . S
C47 C48 1.394 . S
C47 H74 0.932 . S
C48 C44 1.308 . S
C48 C47 1.394 . S
C48 H75 0.929 . S
C49 Tb40 2.764 . S
C49 C43 1.504 . S
C49 O61 1.239 . S
C49 O62 1.263 . S
O50 Tb40 2.325 . S
O50 C60 1.236 . S
O51 Tb41 2.322 . S
O51 C60 1.257 . S
O52 Tb41 2.349 . S
O52 C63 1.261 . S
O53 Tb40 2.303 . S
O53 C63 1.257 . S
O54 Tb41 2.415 . S
O54 C70 1.239 . S
O55 Tb41 2.399 . S
O55 C70 1.263 . S
O56 Tb41 2.325 . S
O56 C71 1.236 . S
O57 Tb40 2.322 . S
O57 C71 1.257 . S
O58 Tb40 2.349 . S
O58 C42 1.261 . S
O59 Tb41 2.303 . S
O59 C42 1.257 . S
C60 O50 1.236 . S
C60 O51 1.257 . S
O61 Tb40 2.415 . S
O61 C49 1.239 . S
O62 Tb40 2.399 . S
O62 C49 1.263 . S
C63 O52 1.261 . S
C63 O53 1.257 . S
C64 C67 1.358 . S
C64 C68 1.332 . S
C64 C70 1.504 . S
C65 C66 1.373 . S
C65 C69 1.308 . S
C66 C65 1.373 . S
C66 C67 1.429 . S
C66 H76 0.932 . S
C67 C64 1.358 . S
C67 C66 1.429 . S
C67 H77 0.930 . S
C68 C64 1.332 . S
C68 C69 1.394 . S
C68 H78 0.932 . S
C69 C65 1.308 . S
C69 C68 1.394 . S
C69 H79 0.929 . S
C70 Tb41 2.764 . S
C70 O54 1.239 . S
C70 O55 1.263 . S
C70 C64 1.504 . S
C71 O56 1.236 . S
C71 O57 1.257 . S
H72 C45 0.932 . S
H73 C46 0.930 . S
H74 C47 0.932 . S
H75 C48 0.929 . S
H76 C66 0.932 . S
H77 C67 0.930 . S
H78 C68 0.932 . S
H79 C69 0.929 . S
Tb80 C89 2.764 . S
Tb80 O90 2.325 . S
Tb80 O93 2.303 . S
Tb80 O97 2.322 . S
Tb80 O98 2.349 . S
Tb80 O101 2.415 . S
Tb80 O102 2.399 . S
Tb81 O91 2.322 . S
Tb81 O92 2.349 . S
Tb81 O94 2.415 . S
Tb81 O95 2.399 . S
Tb81 O96 2.325 . S
Tb81 O99 2.303 . S
Tb81 C110 2.764 . S
C82 O98 1.261 . S
C82 O99 1.257 . S
C83 C86 1.358 . S
C83 C87 1.332 . S
C83 C89 1.504 . S
C84 C85 1.373 . S
C84 C88 1.308 . S
C85 C84 1.373 . S
C85 C86 1.429 . S
C85 H112 0.932 . S
C86 C83 1.358 . S
C86 C85 1.429 . S
C86 H113 0.930 . S
C87 C83 1.332 . S
C87 C88 1.394 . S
C87 H114 0.932 . S
C88 C84 1.308 . S
C88 C87 1.394 . S
C88 H115 0.929 . S
C89 Tb80 2.764 . S
C89 C83 1.504 . S
C89 O101 1.239 . S
C89 O102 1.263 . S
O90 Tb80 2.325 . S
O90 C100 1.236 . S
O91 Tb81 2.322 . S
O91 C100 1.257 . S
O92 Tb81 2.349 . S
O92 C103 1.261 . S
O93 Tb80 2.303 . S
O93 C103 1.257 . S
O94 Tb81 2.415 . S
O94 C110 1.239 . S
O95 Tb81 2.399 . S
O95 C110 1.263 . S
O96 Tb81 2.325 . S
O96 C111 1.236 . S
O97 Tb80 2.322 . S
O97 C111 1.257 . S
O98 Tb80 2.349 . S
O98 C82 1.261 . S
O99 Tb81 2.303 . S
O99 C82 1.257 . S
C100 O90 1.236 . S
C100 O91 1.257 . S
O101 Tb80 2.415 . S
O101 C89 1.239 . S
O102 Tb80 2.399 . S
O102 C89 1.263 . S
C103 O92 1.261 . S
C103 O93 1.257 . S
C104 C107 1.358 . S
C104 C108 1.332 . S
C104 C110 1.504 1_554 S
C105 C106 1.373 . S
C105 C109 1.308 . S
C106 C105 1.373 . S
C106 C107 1.429 . S
C106 H116 0.932 . S
C107 C104 1.358 . S
C107 C106 1.429 . S
C107 H117 0.930 . S
C108 C104 1.332 . S
C108 C109 1.394 . S
C108 H118 0.932 . S
C109 C105 1.308 . S
C109 C108 1.394 . S
C109 H119 0.929 . S
C110 Tb81 2.764 . S
C110 O94 1.239 . S
C110 O95 1.263 . S
C110 C104 1.504 1_556 S
C111 O96 1.236 . S
C111 O97 1.257 . S
H112 C85 0.932 . S
H113 C86 0.930 . S
H114 C87 0.932 . S
H115 C88 0.929 . S
H116 C106 0.932 . S
H117 C107 0.930 . S
H118 C108 0.932 . S
H119 C109 0.929 . S
Tb120 C129 2.764 . S
Tb120 O130 2.325 . S
Tb120 O133 2.303 . S
Tb120 O137 2.322 . S
Tb120 O138 2.349 . S
Tb120 O141 2.415 . S
Tb120 O142 2.399 . S
Tb121 O131 2.322 . S
Tb121 O132 2.349 . S
Tb121 O134 2.415 . S
Tb121 O135 2.399 . S
Tb121 O136 2.325 . S
Tb121 O139 2.303 . S
Tb121 C150 2.764 . S
C122 O138 1.261 . S
C122 O139 1.257 . S
C123 C126 1.358 . S
C123 C127 1.332 . S
C123 C129 1.504 . S
C124 C125 1.373 . S
C124 C128 1.308 . S
C125 C124 1.373 . S
C125 C126 1.429 . S
C125 H152 0.932 . S
C126 C123 1.358 . S
C126 C125 1.429 . S
C126 H153 0.930 . S
C127 C123 1.332 . S
C127 C128 1.394 . S
C127 H154 0.932 . S
C128 C124 1.308 . S
C128 C127 1.394 . S
C128 H155 0.929 . S
C129 Tb120 2.764 . S
C129 C123 1.504 . S
C129 O141 1.239 . S
C129 O142 1.263 . S
O130 Tb120 2.325 . S
O130 C140 1.236 . S
O131 Tb121 2.322 . S
O131 C140 1.257 . S
O132 Tb121 2.349 . S
O132 C143 1.261 . S
O133 Tb120 2.303 . S
O133 C143 1.257 . S
O134 Tb121 2.415 . S
O134 C150 1.239 . S
O135 Tb121 2.399 . S
O135 C150 1.263 . S
O136 Tb121 2.325 . S
O136 C151 1.236 . S
O137 Tb120 2.322 . S
O137 C151 1.257 . S
O138 Tb120 2.349 . S
O138 C122 1.261 . S
O139 Tb121 2.303 . S
O139 C122 1.257 . S
C140 O130 1.236 . S
C140 O131 1.257 . S
O141 Tb120 2.415 . S
O141 C129 1.239 . S
O142 Tb120 2.399 . S
O142 C129 1.263 . S
C143 O132 1.261 . S
C143 O133 1.257 . S
C144 C147 1.358 . S
C144 C148 1.332 . S
C144 C150 1.504 . S
C145 C146 1.373 . S
C145 C149 1.308 . S
C146 C145 1.373 . S
C146 C147 1.429 . S
C146 H156 0.932 . S
C147 C144 1.358 . S
C147 C146 1.429 . S
C147 H157 0.930 . S
C148 C144 1.332 . S
C148 C149 1.394 . S
C148 H158 0.932 . S
C149 C145 1.308 . S
C149 C148 1.394 . S
C149 H159 0.929 . S
C150 Tb121 2.764 . S
C150 O134 1.239 . S
C150 O135 1.263 . S
C150 C144 1.504 . S
C151 O136 1.236 . S
C151 O137 1.257 . S
H152 C125 0.932 . S
H153 C126 0.930 . S
H154 C127 0.932 . S
H155 C128 0.929 . S
H156 C146 0.932 . S
H157 C147 0.930 . S
H158 C148 0.932 . S
H159 C149 0.929 . S
Tb160 C169 2.764 . S
Tb160 O170 2.325 . S
Tb160 O173 2.303 . S
Tb160 O177 2.322 . S
Tb160 O178 2.349 . S
Tb160 O181 2.415 . S
Tb160 O182 2.399 . S
Tb161 O171 2.322 . S
Tb161 O172 2.349 . S
Tb161 O174 2.415 . S
Tb161 O175 2.399 . S
Tb161 O176 2.325 . S
Tb161 O179 2.303 . S
Tb161 C190 2.764 . S
C162 O178 1.261 . S
C162 O179 1.257 . S
C163 C166 1.358 . S
C163 C167 1.332 . S
C163 C169 1.504 . S
C164 C165 1.373 . S
C164 C168 1.308 . S
C165 C164 1.373 . S
C165 C166 1.429 . S
C165 H192 0.932 . S
C166 C163 1.358 . S
C166 C165 1.429 . S
C166 H193 0.930 . S
C167 C163 1.332 . S
C167 C168 1.394 . S
C167 H194 0.932 . S
C168 C164 1.308 . S
C168 C167 1.394 . S
C168 H195 0.929 . S
C169 Tb160 2.764 . S
C169 C163 1.504 . S
C169 O181 1.239 . S
C169 O182 1.263 . S
O170 Tb160 2.325 . S
O170 C180 1.236 . S
O171 Tb161 2.322 . S
O171 C180 1.257 . S
O172 Tb161 2.349 . S
O172 C183 1.261 . S
O173 Tb160 2.303 . S
O173 C183 1.257 . S
O174 Tb161 2.415 . S
O174 C190 1.239 . S
O175 Tb161 2.399 . S
O175 C190 1.263 . S
O176 Tb161 2.325 . S
O176 C191 1.236 . S
O177 Tb160 2.322 . S
O177 C191 1.257 . S
O178 Tb160 2.349 . S
O178 C162 1.261 . S
O179 Tb161 2.303 . S
O179 C162 1.257 . S
C180 O170 1.236 . S
C180 O171 1.257 . S
O181 Tb160 2.415 . S
O181 C169 1.239 . S
O182 Tb160 2.399 . S
O182 C169 1.263 . S
C183 O172 1.261 . S
C183 O173 1.257 . S
C184 C187 1.358 . S
C184 C188 1.332 . S
C184 C190 1.504 . S
C185 C186 1.373 . S
C185 C189 1.308 . S
C186 C185 1.373 . S
C186 C187 1.429 . S
C186 H196 0.932 . S
C187 C184 1.358 . S
C187 C186 1.429 . S
C187 H197 0.930 . S
C188 C184 1.332 . S
C188 C189 1.394 . S
C188 H198 0.932 . S
C189 C185 1.308 . S
C189 C188 1.394 . S
C189 H199 0.929 . S
C190 Tb161 2.764 . S
C190 O174 1.239 . S
C190 O175 1.263 . S
C190 C184 1.504 . S
C191 O176 1.236 . S
C191 O177 1.257 . S
H192 C165 0.932 . S
H193 C166 0.930 . S
H194 C167 0.932 . S
H195 C168 0.929 . S
H196 C186 0.932 . S
H197 C187 0.930 . S
H198 C188 0.932 . S
H199 C189 0.929 . S
Tb200 C209 2.764 . S
Tb200 O210 2.325 . S
Tb200 O213 2.303 . S
Tb200 O217 2.322 . S
Tb200 O218 2.349 . S
Tb200 O221 2.415 . S
Tb200 O222 2.399 . S
Tb201 O211 2.322 . S
Tb201 O212 2.349 . S
Tb201 O214 2.415 . S
Tb201 O215 2.399 . S
Tb201 O216 2.325 . S
Tb201 O219 2.303 . S
Tb201 C230 2.764 . S
C202 O218 1.261 . S
C202 O219 1.257 . S
C203 C206 1.358 . S
C203 C207 1.332 . S
C203 C209 1.504 . S
C204 C205 1.373 . S
C204 C208 1.308 . S
C205 C204 1.373 . S
C205 C206 1.429 . S
C205 H232 0.932 . S
C206 C203 1.358 . S
C206 C205 1.429 . S
C206 H233 0.930 . S
C207 C203 1.332 . S
C207 C208 1.394 . S
C207 H234 0.932 . S
C208 C204 1.308 . S
C208 C207 1.394 . S
C208 H235 0.929 . S
C209 Tb200 2.764 . S
C209 C203 1.504 . S
C209 O221 1.239 . S
C209 O222 1.263 . S
O210 Tb200 2.325 . S
O210 C220 1.236 . S
O211 Tb201 2.322 . S
O211 C220 1.257 . S
O212 Tb201 2.349 . S
O212 C223 1.261 . S
O213 Tb200 2.303 . S
O213 C223 1.257 . S
O214 Tb201 2.415 . S
O214 C230 1.239 . S
O215 Tb201 2.399 . S
O215 C230 1.263 . S
O216 Tb201 2.325 . S
O216 C231 1.236 . S
O217 Tb200 2.322 . S
O217 C231 1.257 . S
O218 Tb200 2.349 . S
O218 C202 1.261 . S
O219 Tb201 2.303 . S
O219 C202 1.257 . S
C220 O210 1.236 . S
C220 O211 1.257 . S
O221 Tb200 2.415 . S
O221 C209 1.239 . S
O222 Tb200 2.399 . S
O222 C209 1.263 . S
C223 O212 1.261 . S
C223 O213 1.257 . S
C224 C227 1.358 . S
C224 C228 1.332 . S
C224 C230 1.504 1_554 S
C225 C226 1.373 . S
C225 C229 1.308 . S
C226 C225 1.373 . S
C226 C227 1.429 . S
C226 H236 0.932 . S
C227 C224 1.358 . S
C227 C226 1.429 . S
C227 H237 0.930 . S
C228 C224 1.332 . S
C228 C229 1.394 . S
C228 H238 0.932 . S
C229 C225 1.308 . S
C229 C228 1.394 . S
C229 H239 0.929 . S
C230 Tb201 2.764 . S
C230 O214 1.239 . S
C230 O215 1.263 . S
C230 C224 1.504 1_556 S
C231 O216 1.236 . S
C231 O217 1.257 . S
H232 C205 0.932 . S
H233 C206 0.930 . S
H234 C207 0.932 . S
H235 C208 0.929 . S
H236 C226 0.932 . S
H237 C227 0.930 . S
H238 C228 0.932 . S
H239 C229 0.929 . S
Tb240 C249 2.764 . S
Tb240 O250 2.325 . S
Tb240 O253 2.303 . S
Tb240 O257 2.322 . S
Tb240 O258 2.349 . S
Tb240 O261 2.415 . S
Tb240 O262 2.399 . S
Tb241 O251 2.322 . S
Tb241 O252 2.349 . S
Tb241 O254 2.415 . S
Tb241 O255 2.399 . S
Tb241 O256 2.325 . S
Tb241 O259 2.303 . S
Tb241 C270 2.764 . S
C242 O258 1.261 . S
C242 O259 1.257 . S
C243 C246 1.358 . S
C243 C247 1.332 . S
C243 C249 1.504 . S
C244 C245 1.373 . S
C244 C248 1.308 . S
C245 C244 1.373 . S
C245 C246 1.429 . S
C245 H272 0.932 . S
C246 C243 1.358 . S
C246 C245 1.429 . S
C246 H273 0.930 . S
C247 C243 1.332 . S
C247 C248 1.394 . S
C247 H274 0.932 . S
C248 C244 1.308 . S
C248 C247 1.394 . S
C248 H275 0.929 . S
C249 Tb240 2.764 . S
C249 C243 1.504 . S
C249 O261 1.239 . S
C249 O262 1.263 . S
O250 Tb240 2.325 . S
O250 C260 1.236 . S
O251 Tb241 2.322 . S
O251 C260 1.257 . S
O252 Tb241 2.349 . S
O252 C263 1.261 . S
O253 Tb240 2.303 . S
O253 C263 1.257 . S
O254 Tb241 2.415 . S
O254 C270 1.239 . S
O255 Tb241 2.399 . S
O255 C270 1.263 . S
O256 Tb241 2.325 . S
O256 C271 1.236 . S
O257 Tb240 2.322 . S
O257 C271 1.257 . S
O258 Tb240 2.349 . S
O258 C242 1.261 . S
O259 Tb241 2.303 . S
O259 C242 1.257 . S
C260 O250 1.236 . S
C260 O251 1.257 . S
O261 Tb240 2.415 . S
O261 C249 1.239 . S
O262 Tb240 2.399 . S
O262 C249 1.263 . S
C263 O252 1.261 . S
C263 O253 1.257 . S
C264 C267 1.358 . S
C264 C268 1.332 . S
C264 C270 1.504 . S
C265 C266 1.373 . S
C265 C269 1.308 . S
C266 C265 1.373 . S
C266 C267 1.429 . S
C266 H276 0.932 . S
C267 C264 1.358 . S
C267 C266 1.429 . S
C267 H277 0.930 . S
C268 C264 1.332 . S
C268 C269 1.394 . S
C268 H278 0.932 . S
C269 C265 1.308 . S
C269 C268 1.394 . S
C269 H279 0.929 . S
C270 Tb241 2.764 . S
C270 O254 1.239 . S
C270 O255 1.263 . S
C270 C264 1.504 . S
C271 O256 1.236 . S
C271 O257 1.257 . S
H272 C245 0.932 . S
H273 C246 0.930 . S
H274 C247 0.932 . S
H275 C248 0.929 . S
H276 C266 0.932 . S
H277 C267 0.930 . S
H278 C268 0.932 . S
H279 C269 0.929 . S
Tb280 C289 2.764 . S
Tb280 O290 2.325 . S
Tb280 O293 2.303 . S
Tb280 O297 2.322 . S
Tb280 O298 2.349 . S
Tb280 O301 2.415 . S
Tb280 O302 2.399 . S
Tb281 O291 2.322 . S
Tb281 O292 2.349 . S
Tb281 O294 2.415 . S
Tb281 O295 2.399 . S
Tb281 O296 2.325 . S
Tb281 O299 2.303 . S
Tb281 C310 2.764 . S
C282 O298 1.261 . S
C282 O299 1.257 . S
C283 C286 1.358 . S
C283 C287 1.332 . S
C283 C289 1.504 . S
C284 C285 1.373 . S
C284 C288 1.308 . S
C285 C284 1.373 . S
C285 C286 1.429 . S
C285 H312 0.932 . S
C286 C283 1.358 . S
C286 C285 1.429 . S
C286 H313 0.930 . S
C287 C283 1.332 . S
C287 C288 1.394 . S
C287 H314 0.932 . S
C288 C284 1.308 . S
C288 C287 1.394 . S
C288 H315 0.929 . S
C289 Tb280 2.764 . S
C289 C283 1.504 . S
C289 O301 1.239 . S
C289 O302 1.263 . S
O290 Tb280 2.325 . S
O290 C300 1.236 . S
O291 Tb281 2.322 . S
O291 C300 1.257 . S
O292 Tb281 2.349 . S
O292 C303 1.261 . S
O293 Tb280 2.303 . S
O293 C303 1.257 . S
O294 Tb281 2.415 . S
O294 C310 1.239 . S
O295 Tb281 2.399 . S
O295 C310 1.263 . S
O296 Tb281 2.325 . S
O296 C311 1.236 . S
O297 Tb280 2.322 . S
O297 C311 1.257 . S
O298 Tb280 2.349 . S
O298 C282 1.261 . S
O299 Tb281 2.303 . S
O299 C282 1.257 . S
C300 O290 1.236 . S
C300 O291 1.257 . S
O301 Tb280 2.415 . S
O301 C289 1.239 . S
O302 Tb280 2.399 . S
O302 C289 1.263 . S
C303 O292 1.261 . S
C303 O293 1.257 . S
C304 C307 1.358 . S
C304 C308 1.332 . S
C304 C310 1.504 . S
C305 C306 1.373 . S
C305 C309 1.308 . S
C306 C305 1.373 . S
C306 C307 1.429 . S
C306 H316 0.932 . S
C307 C304 1.358 . S
C307 C306 1.429 . S
C307 H317 0.930 . S
C308 C304 1.332 . S
C308 C309 1.394 . S
C308 H318 0.932 . S
C309 C305 1.308 . S
C309 C308 1.394 . S
C309 H319 0.929 . S
C310 Tb281 2.764 . S
C310 O294 1.239 . S
C310 O295 1.263 . S
C310 C304 1.504 . S
C311 O296 1.236 . S
C311 O297 1.257 . S
H312 C285 0.932 . S
H313 C286 0.930 . S
H314 C287 0.932 . S
H315 C288 0.929 . S
H316 C306 0.932 . S
H317 C307 0.930 . S
H318 C308 0.932 . S
H319 C309 0.929 . S
Tb320 C329 2.764 . S
Tb320 O330 2.325 . S
Tb320 O333 2.303 . S
Tb320 O337 2.322 . S
Tb320 O338 2.349 . S
Tb320 O341 2.415 . S
Tb320 O342 2.399 . S
Tb321 O331 2.322 . S
Tb321 O332 2.349 . S
Tb321 O334 2.415 . S
Tb321 O335 2.399 . S
Tb321 O336 2.325 . S
Tb321 O339 2.303 . S
Tb321 C350 2.764 . S
C322 O338 1.261 . S
C322 O339 1.257 . S
C323 C326 1.358 . S
C323 C327 1.332 . S
C323 C329 1.504 . S
C324 C325 1.373 . S
C324 C328 1.308 . S
C325 C324 1.373 . S
C325 C326 1.429 . S
C325 H352 0.932 . S
C326 C323 1.358 . S
C326 C325 1.429 . S
C326 H353 0.930 . S
C327 C323 1.332 . S
C327 C328 1.394 . S
C327 H354 0.932 . S
C328 C324 1.308 . S
C328 C327 1.394 . S
C328 H355 0.929 . S
C329 Tb320 2.764 . S
C329 C323 1.504 . S
C329 O341 1.239 . S
C329 O342 1.263 . S
O330 Tb320 2.325 . S
O330 C340 1.236 . S
O331 Tb321 2.322 . S
O331 C340 1.257 . S
O332 Tb321 2.349 . S
O332 C343 1.261 . S
O333 Tb320 2.303 . S
O333 C343 1.257 . S
O334 Tb321 2.415 . S
O334 C350 1.239 . S
O335 Tb321 2.399 . S
O335 C350 1.263 . S
O336 Tb321 2.325 . S
O336 C351 1.236 . S
O337 Tb320 2.322 . S
O337 C351 1.257 . S
O338 Tb320 2.349 . S
O338 C322 1.261 . S
O339 Tb321 2.303 . S
O339 C322 1.257 . S
C340 O330 1.236 . S
C340 O331 1.257 . S
O341 Tb320 2.415 . S
O341 C329 1.239 . S
O342 Tb320 2.399 . S
O342 C329 1.263 . S
C343 O332 1.261 . S
C343 O333 1.257 . S
C344 C347 1.358 . S
C344 C348 1.332 . S
C344 C350 1.504 1_556 S
C345 C346 1.373 . S
C345 C349 1.308 . S
C346 C345 1.373 . S
C346 C347 1.429 . S
C346 H356 0.932 . S
C347 C344 1.358 . S
C347 C346 1.429 . S
C347 H357 0.930 . S
C348 C344 1.332 . S
C348 C349 1.394 . S
C348 H358 0.932 . S
C349 C345 1.308 . S
C349 C348 1.394 . S
C349 H359 0.929 . S
C350 Tb321 2.764 . S
C350 O334 1.239 . S
C350 O335 1.263 . S
C350 C344 1.504 1_554 S
C351 O336 1.236 . S
C351 O337 1.257 . S
H352 C325 0.932 . S
H353 C326 0.930 . S
H354 C327 0.932 . S
H355 C328 0.929 . S
H356 C346 0.932 . S
H357 C347 0.930 . S
H358 C348 0.932 . S
H359 C349 0.929 . S
Tb360 C369 2.764 . S
Tb360 O370 2.325 . S
Tb360 O373 2.303 . S
Tb360 O377 2.322 . S
Tb360 O378 2.349 . S
Tb360 O381 2.415 . S
Tb360 O382 2.399 . S
Tb361 O371 2.322 . S
Tb361 O372 2.349 . S
Tb361 O374 2.415 . S
Tb361 O375 2.399 . S
Tb361 O376 2.325 . S
Tb361 O379 2.303 . S
Tb361 C390 2.764 . S
C362 O378 1.261 . S
C362 O379 1.257 . S
C363 C366 1.358 . S
C363 C367 1.332 . S
C363 C369 1.504 . S
C364 C365 1.373 . S
C364 C368 1.308 . S
C365 C364 1.373 . S
C365 C366 1.429 . S
C365 H392 0.932 . S
C366 C363 1.358 . S
C366 C365 1.429 . S
C366 H393 0.930 . S
C367 C363 1.332 . S
C367 C368 1.394 . S
C367 H394 0.932 . S
C368 C364 1.308 . S
C368 C367 1.394 . S
C368 H395 0.929 . S
C369 Tb360 2.764 . S
C369 C363 1.504 . S
C369 O381 1.239 . S
C369 O382 1.263 . S
O370 Tb360 2.325 . S
O370 C380 1.236 . S
O371 Tb361 2.322 . S
O371 C380 1.257 . S
O372 Tb361 2.349 . S
O372 C383 1.261 . S
O373 Tb360 2.303 . S
O373 C383 1.257 . S
O374 Tb361 2.415 . S
O374 C390 1.239 . S
O375 Tb361 2.399 . S
O375 C390 1.263 . S
O376 Tb361 2.325 . S
O376 C391 1.236 . S
O377 Tb360 2.322 . S
O377 C391 1.257 . S
O378 Tb360 2.349 . S
O378 C362 1.261 . S
O379 Tb361 2.303 . S
O379 C362 1.257 . S
C380 O370 1.236 . S
C380 O371 1.257 . S
O381 Tb360 2.415 . S
O381 C369 1.239 . S
O382 Tb360 2.399 . S
O382 C369 1.263 . S
C383 O372 1.261 . S
C383 O373 1.257 . S
C384 C387 1.358 . S
C384 C388 1.332 . S
C384 C390 1.504 . S
C385 C386 1.373 . S
C385 C389 1.308 . S
C386 C385 1.373 . S
C386 C387 1.429 . S
C386 H396 0.932 . S
C387 C384 1.358 . S
C387 C386 1.429 . S
C387 H397 0.930 . S
C388 C384 1.332 . S
C388 C389 1.394 . S
C388 H398 0.932 . S
C389 C385 1.308 . S
C389 C388 1.394 . S
C389 H399 0.929 . S
C390 Tb361 2.764 . S
C390 O374 1.239 . S
C390 O375 1.263 . S
C390 C384 1.504 . S
C391 O376 1.236 . S
C391 O377 1.257 . S
H392 C365 0.932 . S
H393 C366 0.930 . S
H394 C367 0.932 . S
H395 C368 0.929 . S
H396 C386 0.932 . S
H397 C387 0.930 . S
H398 C388 0.932 . S
H399 C389 0.929 . S
Tb400 C409 2.764 . S
Tb400 O410 2.325 . S
Tb400 O413 2.303 . S
Tb400 O417 2.322 . S
Tb400 O418 2.349 . S
Tb400 O421 2.415 . S
Tb400 O422 2.399 . S
Tb401 O411 2.322 . S
Tb401 O412 2.349 . S
Tb401 O414 2.415 . S
Tb401 O415 2.399 . S
Tb401 O416 2.325 . S
Tb401 O419 2.303 . S
Tb401 C430 2.764 . S
C402 O418 1.261 . S
C402 O419 1.257 . S
C403 C406 1.358 . S
C403 C407 1.332 . S
C403 C409 1.504 . S
C404 C405 1.373 . S
C404 C408 1.308 . S
C405 C404 1.373 . S
C405 C406 1.429 . S
C405 H432 0.932 . S
C406 C403 1.358 . S
C406 C405 1.429 . S
C406 H433 0.930 . S
C407 C403 1.332 . S
C407 C408 1.394 . S
C407 H434 0.932 . S
C408 C404 1.308 . S
C408 C407 1.394 . S
C408 H435 0.929 . S
C409 Tb400 2.764 . S
C409 C403 1.504 . S
C409 O421 1.239 . S
C409 O422 1.263 . S
O410 Tb400 2.325 . S
O410 C420 1.236 . S
O411 Tb401 2.322 . S
O411 C420 1.257 . S
O412 Tb401 2.349 . S
O412 C423 1.261 . S
O413 Tb400 2.303 . S
O413 C423 1.257 . S
O414 Tb401 2.415 . S
O414 C430 1.239 . S
O415 Tb401 2.399 . S
O415 C430 1.263 . S
O416 Tb401 2.325 . S
O416 C431 1.236 . S
O417 Tb400 2.322 . S
O417 C431 1.257 . S
O418 Tb400 2.349 . S
O418 C402 1.261 . S
O419 Tb401 2.303 . S
O419 C402 1.257 . S
C420 O410 1.236 . S
C420 O411 1.257 . S
O421 Tb400 2.415 . S
O421 C409 1.239 . S
O422 Tb400 2.399 . S
O422 C409 1.263 . S
C423 O412 1.261 . S
C423 O413 1.257 . S
C424 C427 1.358 . S
C424 C428 1.332 . S
C424 C430 1.504 . S
C425 C426 1.373 . S
C425 C429 1.308 . S
C426 C425 1.373 . S
C426 C427 1.429 . S
C426 H436 0.932 . S
C427 C424 1.358 . S
C427 C426 1.429 . S
C427 H437 0.930 . S
C428 C424 1.332 . S
C428 C429 1.394 . S
C428 H438 0.932 . S
C429 C425 1.308 . S
C429 C428 1.394 . S
C429 H439 0.929 . S
C430 Tb401 2.764 . S
C430 O414 1.239 . S
C430 O415 1.263 . S
C430 C424 1.504 . S
C431 O416 1.236 . S
C431 O417 1.257 . S
H432 C405 0.932 . S
H433 C406 0.930 . S
H434 C407 0.932 . S
H435 C408 0.929 . S
H436 C426 0.932 . S
H437 C427 0.930 . S
H438 C428 0.932 . S
H439 C429 0.929 . S
Tb440 C449 2.764 . S
Tb440 O450 2.325 . S
Tb440 O453 2.303 . S
Tb440 O457 2.322 . S
Tb440 O458 2.349 . S
Tb440 O461 2.415 . S
Tb440 O462 2.399 . S
Tb441 O451 2.322 . S
Tb441 O452 2.349 . S
Tb441 O454 2.415 . S
Tb441 O455 2.399 . S
Tb441 O456 2.325 . S
Tb441 O459 2.303 . S
Tb441 C470 2.764 . S
C442 O458 1.261 . S
C442 O459 1.257 . S
C443 C446 1.358 . S
C443 C447 1.332 . S
C443 C449 1.504 . S
C444 C445 1.373 . S
C444 C448 1.308 . S
C445 C444 1.373 . S
C445 C446 1.429 . S
C445 H472 0.932 . S
C446 C443 1.358 . S
C446 C445 1.429 . S
C446 H473 0.930 . S
C447 C443 1.332 . S
C447 C448 1.394 . S
C447 H474 0.932 . S
C448 C444 1.308 . S
C448 C447 1.394 . S
C448 H475 0.929 . S
C449 Tb440 2.764 . S
C449 C443 1.504 . S
C449 O461 1.239 . S
C449 O462 1.263 . S
O450 Tb440 2.325 . S
O450 C460 1.236 . S
O451 Tb441 2.322 . S
O451 C460 1.257 . S
O452 Tb441 2.349 . S
O452 C463 1.261 . S
O453 Tb440 2.303 . S
O453 C463 1.257 . S
O454 Tb441 2.415 . S
O454 C470 1.239 . S
O455 Tb441 2.399 . S
O455 C470 1.263 . S
O456 Tb441 2.325 . S
O456 C471 1.236 . S
O457 Tb440 2.322 . S
O457 C471 1.257 . S
O458 Tb440 2.349 . S
O458 C442 1.261 . S
O459 Tb441 2.303 . S
O459 C442 1.257 . S
C460 O450 1.236 . S
C460 O451 1.257 . S
O461 Tb440 2.415 . S
O461 C449 1.239 . S
O462 Tb440 2.399 . S
O462 C449 1.263 . S
C463 O452 1.261 . S
C463 O453 1.257 . S
C464 C467 1.358 . S
C464 C468 1.332 . S
C464 C470 1.504 1_556 S
C465 C466 1.373 . S
C465 C469 1.308 . S
C466 C465 1.373 . S
C466 C467 1.429 . S
C466 H476 0.932 . S
C467 C464 1.358 . S
C467 C466 1.429 . S
C467 H477 0.930 . S
C468 C464 1.332 . S
C468 C469 1.394 . S
C468 H478 0.932 . S
C469 C465 1.308 . S
C469 C468 1.394 . S
C469 H479 0.929 . S
C470 Tb441 2.764 . S
C470 O454 1.239 . S
C470 O455 1.263 . S
C470 C464 1.504 1_554 S
C471 O456 1.236 . S
C471 O457 1.257 . S
H472 C445 0.932 . S
H473 C446 0.930 . S
H474 C447 0.932 . S
H475 C448 0.929 . S
H476 C466 0.932 . S
H477 C467 0.930 . S
H478 C468 0.932 . S
H479 C469 0.929 . S
C480 C481 1.349 . S
C480 C482 1.327 . S
C480 H505 0.950 . S
C481 C480 1.349 . S
C481 C497 1.349 . S
C482 C480 1.327 . S
C482 C501 1.429 . S
C482 H506 0.950 . S
C483 C500 1.574 . S
C483 C502 1.368 . S
C483 H507 0.949 . S
H484 C488 0.949 . S
C485 C486 1.349 . S
C485 C487 1.327 . S
C485 H508 0.950 . S
C486 C485 1.349 . S
C486 C498 1.349 . S
C487 C485 1.327 . S
C487 C503 1.429 . S
C487 H509 0.950 . S
C488 H484 0.949 . S
C488 C496 1.574 . S
C488 C504 1.368 . S
H489 C497 0.950 . S
H490 C495 0.950 . S
H491 C496 0.949 . S
H492 C498 0.950 . S
H493 C499 0.950 . S
H494 C500 0.949 . S
C495 H490 0.950 . S
C495 C497 1.327 . S
C495 C501 1.429 . S
C496 C488 1.574 . S
C496 H491 0.949 . S
C496 C502 1.368 . S
C497 C481 1.349 . S
C497 H489 0.950 . S
C497 C495 1.327 . S
C498 C486 1.349 . S
C498 H492 0.950 . S
C498 C499 1.327 . S
C499 H493 0.950 . S
C499 C498 1.327 . S
C499 C503 1.429 . S
C500 C483 1.574 . S
C500 H494 0.949 . S
C500 C504 1.368 . S
C501 C482 1.429 . S
C501 C495 1.429 . S
C501 C502 1.523 . S
C502 C483 1.368 . S
C502 C496 1.368 . S
C502 C501 1.523 . S
C503 C487 1.429 . S
C503 C499 1.429 . S
C503 C504 1.523 . S
C504 C488 1.368 . S
C504 C500 1.368 . S
C504 C503 1.523 . S
H505 C480 0.950 . S
H506 C482 0.950 . S
H507 C483 0.949 . S
H508 C485 0.950 . S
H509 C487 0.950 . S
C510 C511 1.349 . S
C510 C512 1.327 . S
C510 H535 0.950 . S
C511 C510 1.349 . S
C511 C527 1.349 . S
C512 C510 1.327 . S
C512 C531 1.429 . S
C512 H536 0.950 . S
C513 C530 1.574 . S
C513 C532 1.368 . S
C513 H537 0.949 . S
H514 C518 0.949 . S
C515 C516 1.349 . S
C515 C517 1.327 . S
C515 H538 0.950 . S
C516 C515 1.349 . S
C516 C528 1.349 . S
C517 C515 1.327 . S
C517 C533 1.429 . S
C517 H539 0.950 . S
C518 H514 0.949 . S
C518 C526 1.574 . S
C518 C534 1.368 . S
H519 C527 0.950 . S
H520 C525 0.950 . S
H521 C526 0.949 . S
H522 C528 0.950 . S
H523 C529 0.950 . S
H524 C530 0.949 . S
C525 H520 0.950 . S
C525 C527 1.327 . S
C525 C531 1.429 . S
C526 C518 1.574 . S
C526 H521 0.949 . S
C526 C532 1.368 . S
C527 C511 1.349 . S
C527 H519 0.950 . S
C527 C525 1.327 . S
C528 C516 1.349 . S
C528 H522 0.950 . S
C528 C529 1.327 . S
C529 H523 0.950 . S
C529 C528 1.327 . S
C529 C533 1.429 . S
C530 C513 1.574 . S
C530 H524 0.949 . S
C530 C534 1.368 . S
C531 C512 1.429 . S
C531 C525 1.429 . S
C531 C532 1.523 . S
C532 C513 1.368 . S
C532 C526 1.368 . S
C532 C531 1.523 . S
C533 C517 1.429 . S
C533 C529 1.429 . S
C533 C534 1.523 . S
C534 C518 1.368 . S
C534 C530 1.368 . S
C534 C533 1.523 . S
H535 C510 0.950 . S
H536 C512 0.950 . S
H537 C513 0.949 . S
H538 C515 0.950 . S
H539 C517 0.950 . S
C540 C541 1.349 . S
C540 C542 1.327 . S
C540 H565 0.950 . S
C541 C540 1.349 . S
C541 C557 1.349 . S
C542 C540 1.327 . S
C542 C561 1.429 . S
C542 H566 0.950 . S
C543 C560 1.574 . S
C543 C562 1.368 . S
C543 H567 0.949 . S
H544 C548 0.949 . S
C545 C546 1.349 . S
C545 C547 1.327 . S
C545 H568 0.950 . S
C546 C545 1.349 . S
C546 C558 1.349 . S
C547 C545 1.327 . S
C547 C563 1.429 . S
C547 H569 0.950 . S
C548 H544 0.949 . S
C548 C556 1.574 . S
C548 C564 1.368 . S
H549 C557 0.950 . S
H550 C555 0.950 . S
H551 C556 0.949 . S
H552 C558 0.950 . S
H553 C559 0.950 . S
H554 C560 0.949 . S
C555 H550 0.950 . S
C555 C557 1.327 . S
C555 C561 1.429 . S
C556 C548 1.574 . S
C556 H551 0.949 . S
C556 C562 1.368 . S
C557 C541 1.349 . S
C557 H549 0.950 . S
C557 C555 1.327 . S
C558 C546 1.349 . S
C558 H552 0.950 . S
C558 C559 1.327 . S
C559 H553 0.950 . S
C559 C558 1.327 . S
C559 C563 1.429 . S
C560 C543 1.574 . S
C560 H554 0.949 . S
C560 C564 1.368 . S
C561 C542 1.429 . S
C561 C555 1.429 . S
C561 C562 1.523 . S
C562 C543 1.368 . S
C562 C556 1.368 . S
C562 C561 1.523 . S
C563 C547 1.429 . S
C563 C559 1.429 . S
C563 C564 1.523 . S
C564 C548 1.368 . S
C564 C560 1.368 . S
C564 C563 1.523 . S
H565 C540 0.950 . S
H566 C542 0.950 . S
H567 C543 0.949 . S
H568 C545 0.950 . S
H569 C547 0.950 . S
C570 C571 1.349 . S
C570 C572 1.327 . S
C570 H595 0.950 . S
C571 C570 1.349 . S
C571 C587 1.349 . S
C572 C570 1.327 . S
C572 C591 1.429 . S
C572 H596 0.950 . S
C573 C590 1.574 . S
C573 C592 1.368 . S
C573 H597 0.949 . S
H574 C578 0.949 . S
C575 C576 1.349 . S
C575 C577 1.327 . S
C575 H598 0.950 . S
C576 C575 1.349 . S
C576 C588 1.349 . S
C577 C575 1.327 . S
C577 C593 1.429 . S
C577 H599 0.950 . S
C578 H574 0.949 . S
C578 C586 1.574 . S
C578 C594 1.368 . S
H579 C587 0.950 . S
H580 C585 0.950 . S
H581 C586 0.949 . S
H582 C588 0.950 . S
H583 C589 0.950 . S
H584 C590 0.949 . S
C585 H580 0.950 . S
C585 C587 1.327 . S
C585 C591 1.429 . S
C586 C578 1.574 . S
C586 H581 0.949 . S
C586 C592 1.368 . S
C587 C571 1.349 . S
C587 H579 0.950 . S
C587 C585 1.327 . S
C588 C576 1.349 . S
C588 H582 0.950 . S
C588 C589 1.327 . S
C589 H583 0.950 . S
C589 C588 1.327 . S
C589 C593 1.429 . S
C590 C573 1.574 . S
C590 H584 0.949 . S
C590 C594 1.368 . S
C591 C572 1.429 . S
C591 C585 1.429 . S
C591 C592 1.523 . S
C592 C573 1.368 . S
C592 C586 1.368 . S
C592 C591 1.523 . S
C593 C577 1.429 . S
C593 C589 1.429 . S
C593 C594 1.523 . S
C594 C578 1.368 . S
C594 C590 1.368 . S
C594 C593 1.523 . S
H595 C570 0.950 . S
H596 C572 0.950 . S
H597 C573 0.949 . S
H598 C575 0.950 . S
H599 C577 0.950 . S
C600 C601 1.349 . S
C600 C602 1.327 . S
C600 H625 0.950 . S
C601 C600 1.349 . S
C601 C617 1.349 . S
C602 C600 1.327 . S
C602 C621 1.429 . S
C602 H626 0.950 . S
C603 C620 1.574 . S
C603 C622 1.368 . S
C603 H627 0.949 . S
H604 C608 0.949 . S
C605 C606 1.349 . S
C605 C607 1.327 . S
C605 H628 0.950 . S
C606 C605 1.349 . S
C606 C618 1.349 . S
C607 C605 1.327 . S
C607 C623 1.429 . S
C607 H629 0.950 . S
C608 H604 0.949 . S
C608 C616 1.574 . S
C608 C624 1.368 . S
H609 C617 0.950 . S
H610 C615 0.950 . S
H611 C616 0.949 . S
H612 C618 0.950 . S
H613 C619 0.950 . S
H614 C620 0.949 . S
C615 H610 0.950 . S
C615 C617 1.327 . S
C615 C621 1.429 . S
C616 C608 1.574 . S
C616 H611 0.949 . S
C616 C622 1.368 . S
C617 C601 1.349 . S
C617 H609 0.950 . S
C617 C615 1.327 . S
C618 C606 1.349 . S
C618 H612 0.950 . S
C618 C619 1.327 . S
C619 H613 0.950 . S
C619 C618 1.327 . S
C619 C623 1.429 . S
C620 C603 1.574 . S
C620 H614 0.949 . S
C620 C624 1.368 . S
C621 C602 1.429 . S
C621 C615 1.429 . S
C621 C622 1.523 . S
C622 C603 1.368 . S
C622 C616 1.368 . S
C622 C621 1.523 . S
C623 C607 1.429 . S
C623 C619 1.429 . S
C623 C624 1.523 . S
C624 C608 1.368 . S
C624 C620 1.368 . S
C624 C623 1.523 . S
H625 C600 0.950 . S
H626 C602 0.950 . S
H627 C603 0.949 . S
H628 C605 0.950 . S
H629 C607 0.950 . S
C630 C631 1.349 . S
C630 C632 1.327 . S
C630 H655 0.950 . S
C631 C630 1.349 . S
C631 C647 1.349 . S
C632 C630 1.327 . S
C632 C651 1.429 . S
C632 H656 0.950 . S
C633 C650 1.574 . S
C633 C652 1.368 . S
C633 H657 0.949 . S
H634 C638 0.949 . S
C635 C636 1.349 . S
C635 C637 1.327 . S
C635 H658 0.950 . S
C636 C635 1.349 . S
C636 C648 1.349 . S
C637 C635 1.327 . S
C637 C653 1.429 . S
C637 H659 0.950 . S
C638 H634 0.949 . S
C638 C646 1.574 . S
C638 C654 1.368 . S
H639 C647 0.950 . S
H640 C645 0.950 . S
H641 C646 0.949 . S
H642 C648 0.950 . S
H643 C649 0.950 . S
H644 C650 0.949 . S
C645 H640 0.950 . S
C645 C647 1.327 . S
C645 C651 1.429 . S
C646 C638 1.574 . S
C646 H641 0.949 . S
C646 C652 1.368 . S
C647 C631 1.349 . S
C647 H639 0.950 . S
C647 C645 1.327 . S
C648 C636 1.349 . S
C648 H642 0.950 . S
C648 C649 1.327 . S
C649 H643 0.950 . S
C649 C648 1.327 . S
C649 C653 1.429 . S
C650 C633 1.574 . S
C650 H644 0.949 . S
C650 C654 1.368 . S
C651 C632 1.429 . S
C651 C645 1.429 . S
C651 C652 1.523 . S
C652 C633 1.368 . S
C652 C646 1.368 . S
C652 C651 1.523 . S
C653 C637 1.429 . S
C653 C649 1.429 . S
C653 C654 1.523 . S
C654 C638 1.368 . S
C654 C650 1.368 . S
C654 C653 1.523 . S
H655 C630 0.950 . S
H656 C632 0.950 . S
H657 C633 0.949 . S
H658 C635 0.950 . S
H659 C637 0.950 . S
C660 C661 1.349 . S
C660 C662 1.327 . S
C660 H685 0.950 . S
C661 C660 1.349 . S
C661 C677 1.349 . S
C662 C660 1.327 . S
C662 C681 1.429 . S
C662 H686 0.950 . S
C663 C680 1.574 1_556 S
C663 C682 1.368 . S
C663 H687 0.949 . S
H664 C668 0.949 . S
C665 C666 1.349 . S
C665 C667 1.327 . S
C665 H688 0.950 . S
C666 C665 1.349 . S
C666 C678 1.349 . S
C667 C665 1.327 . S
C667 C683 1.429 . S
C667 H689 0.950 . S
C668 H664 0.949 . S
C668 C676 1.574 1_554 S
C668 C684 1.368 . S
H669 C677 0.950 . S
H670 C675 0.950 . S
H671 C676 0.949 . S
H672 C678 0.950 . S
H673 C679 0.950 . S
H674 C680 0.949 . S
C675 H670 0.950 . S
C675 C677 1.327 . S
C675 C681 1.429 . S
C676 C668 1.574 1_556 S
C676 H671 0.949 . S
C676 C682 1.368 . S
C677 C661 1.349 . S
C677 H669 0.950 . S
C677 C675 1.327 . S
C678 C666 1.349 . S
C678 H672 0.950 . S
C678 C679 1.327 . S
C679 H673 0.950 . S
C679 C678 1.327 . S
C679 C683 1.429 . S
C680 C663 1.574 1_554 S
C680 H674 0.949 . S
C680 C684 1.368 . S
C681 C662 1.429 . S
C681 C675 1.429 . S
C681 C682 1.523 . S
C682 C663 1.368 . S
C682 C676 1.368 . S
C682 C681 1.523 . S
C683 C667 1.429 . S
C683 C679 1.429 . S
C683 C684 1.523 . S
C684 C668 1.368 . S
C684 C680 1.368 . S
C684 C683 1.523 . S
H685 C660 0.950 . S
H686 C662 0.950 . S
H687 C663 0.949 . S
H688 C665 0.950 . S
H689 C667 0.950 . S
C690 C691 1.349 . S
C690 C692 1.327 . S
C690 H715 0.950 . S
C691 C690 1.349 . S
C691 C707 1.349 . S
C692 C690 1.327 . S
C692 C711 1.429 . S
C692 H716 0.950 . S
C693 C710 1.574 . S
C693 C712 1.368 . S
C693 H717 0.949 . S
H694 C698 0.949 . S
C695 C696 1.349 . S
C695 C697 1.327 . S
C695 H718 0.950 . S
C696 C695 1.349 . S
C696 C708 1.349 . S
C697 C695 1.327 . S
C697 C713 1.429 . S
C697 H719 0.950 . S
C698 H694 0.949 . S
C698 C706 1.574 . S
C698 C714 1.368 . S
H699 C707 0.950 . S
H700 C705 0.950 . S
H701 C706 0.949 . S
H702 C708 0.950 . S
H703 C709 0.950 . S
H704 C710 0.949 . S
C705 H700 0.950 . S
C705 C707 1.327 . S
C705 C711 1.429 . S
C706 C698 1.574 . S
C706 H701 0.949 . S
C706 C712 1.368 . S
C707 C691 1.349 . S
C707 H699 0.950 . S
C707 C705 1.327 . S
C708 C696 1.349 . S
C708 H702 0.950 . S
C708 C709 1.327 . S
C709 H703 0.950 . S
C709 C708 1.327 . S
C709 C713 1.429 . S
C710 C693 1.574 . S
C710 H704 0.949 . S
C710 C714 1.368 . S
C711 C692 1.429 . S
C711 C705 1.429 . S
C711 C712 1.523 . S
C712 C693 1.368 . S
C712 C706 1.368 . S
C712 C711 1.523 . S
C713 C697 1.429 . S
C713 C709 1.429 . S
C713 C714 1.523 . S
C714 C698 1.368 . S
C714 C710 1.368 . S
C714 C713 1.523 . S
H715 C690 0.950 . S
H716 C692 0.950 . S
H717 C693 0.949 . S
H718 C695 0.950 . S
H719 C697 0.950 . S
C720 C721 1.349 . S
C720 C722 1.327 . S
C720 H745 0.950 . S
C721 C720 1.349 . S
C721 C737 1.349 . S
C722 C720 1.327 . S
C722 C741 1.429 . S
C722 H746 0.950 . S
C723 C740 1.574 . S
C723 C742 1.368 . S
C723 H747 0.949 . S
H724 C728 0.949 . S
C725 C726 1.349 . S
C725 C727 1.327 . S
C725 H748 0.950 . S
C726 C725 1.349 . S
C726 C738 1.349 . S
C727 C725 1.327 . S
C727 C743 1.429 . S
C727 H749 0.950 . S
C728 H724 0.949 . S
C728 C736 1.574 . S
C728 C744 1.368 . S
H729 C737 0.950 . S
H730 C735 0.950 . S
H731 C736 0.949 . S
H732 C738 0.950 . S
H733 C739 0.950 . S
H734 C740 0.949 . S
C735 H730 0.950 . S
C735 C737 1.327 . S
C735 C741 1.429 . S
C736 C728 1.574 . S
C736 H731 0.949 . S
C736 C742 1.368 . S
C737 C721 1.349 . S
C737 H729 0.950 . S
C737 C735 1.327 . S
C738 C726 1.349 . S
C738 H732 0.950 . S
C738 C739 1.327 . S
C739 H733 0.950 . S
C739 C738 1.327 . S
C739 C743 1.429 . S
C740 C723 1.574 . S
C740 H734 0.949 . S
C740 C744 1.368 . S
C741 C722 1.429 . S
C741 C735 1.429 . S
C741 C742 1.523 . S
C742 C723 1.368 . S
C742 C736 1.368 . S
C742 C741 1.523 . S
C743 C727 1.429 . S
C743 C739 1.429 . S
C743 C744 1.523 . S
C744 C728 1.368 . S
C744 C740 1.368 . S
C744 C743 1.523 . S
H745 C720 0.950 . S
H746 C722 0.950 . S
H747 C723 0.949 . S
H748 C725 0.950 . S
H749 C727 0.950 . S
C750 C751 1.349 . S
C750 C752 1.327 . S
C750 H775 0.950 . S
C751 C750 1.349 . S
C751 C767 1.349 . S
C752 C750 1.327 . S
C752 C771 1.429 . S
C752 H776 0.950 . S
C753 C770 1.574 1_556 S
C753 C772 1.368 . S
C753 H777 0.949 . S
H754 C758 0.949 . S
C755 C756 1.349 . S
C755 C757 1.327 . S
C755 H778 0.950 . S
C756 C755 1.349 . S
C756 C768 1.349 . S
C757 C755 1.327 . S
C757 C773 1.429 . S
C757 H779 0.950 . S
C758 H754 0.949 . S
C758 C766 1.574 1_554 S
C758 C774 1.368 . S
H759 C767 0.950 . S
H760 C765 0.950 . S
H761 C766 0.949 . S
H762 C768 0.950 . S
H763 C769 0.950 . S
H764 C770 0.949 . S
C765 H760 0.950 . S
C765 C767 1.327 . S
C765 C771 1.429 . S
C766 C758 1.574 1_556 S
C766 H761 0.949 . S
C766 C772 1.368 . S
C767 C751 1.349 . S
C767 H759 0.950 . S
C767 C765 1.327 . S
C768 C756 1.349 . S
C768 H762 0.950 . S
C768 C769 1.327 . S
C769 H763 0.950 . S
C769 C768 1.327 . S
C769 C773 1.429 . S
C770 C753 1.574 1_554 S
C770 H764 0.949 . S
C770 C774 1.368 . S
C771 C752 1.429 . S
C771 C765 1.429 . S
C771 C772 1.523 . S
C772 C753 1.368 . S
C772 C766 1.368 . S
C772 C771 1.523 . S
C773 C757 1.429 . S
C773 C769 1.429 . S
C773 C774 1.523 . S
C774 C758 1.368 . S
C774 C770 1.368 . S
C774 C773 1.523 . S
H775 C750 0.950 . S
H776 C752 0.950 . S
H777 C753 0.949 . S
H778 C755 0.950 . S
H779 C757 0.950 . S
C780 C781 1.349 . S
C780 C782 1.327 . S
C780 H805 0.950 . S
C781 C780 1.349 . S
C781 C797 1.349 . S
C782 C780 1.327 . S
C782 C801 1.429 . S
C782 H806 0.950 . S
C783 C800 1.574 . S
C783 C802 1.368 . S
C783 H807 0.949 . S
H784 C788 0.949 . S
C785 C786 1.349 . S
C785 C787 1.327 . S
C785 H808 0.950 . S
C786 C785 1.349 . S
C786 C798 1.349 . S
C787 C785 1.327 . S
C787 C803 1.429 . S
C787 H809 0.950 . S
C788 H784 0.949 . S
C788 C796 1.574 . S
C788 C804 1.368 . S
H789 C797 0.950 . S
H790 C795 0.950 . S
H791 C796 0.949 . S
H792 C798 0.950 . S
H793 C799 0.950 . S
H794 C800 0.949 . S
C795 H790 0.950 . S
C795 C797 1.327 . S
C795 C801 1.429 . S
C796 C788 1.574 . S
C796 H791 0.949 . S
C796 C802 1.368 . S
C797 C781 1.349 . S
C797 H789 0.950 . S
C797 C795 1.327 . S
C798 C786 1.349 . S
C798 H792 0.950 . S
C798 C799 1.327 . S
C799 H793 0.950 . S
C799 C798 1.327 . S
C799 C803 1.429 . S
C800 C783 1.574 . S
C800 H794 0.949 . S
C800 C804 1.368 . S
C801 C782 1.429 . S
C801 C795 1.429 . S
C801 C802 1.523 . S
C802 C783 1.368 . S
C802 C796 1.368 . S
C802 C801 1.523 . S
C803 C787 1.429 . S
C803 C799 1.429 . S
C803 C804 1.523 . S
C804 C788 1.368 . S
C804 C800 1.368 . S
C804 C803 1.523 . S
H805 C780 0.950 . S
H806 C782 0.950 . S
H807 C783 0.949 . S
H808 C785 0.950 . S
H809 C787 0.950 . S
C810 C811 1.349 . S
C810 C812 1.327 . S
C810 H835 0.950 . S
C811 C810 1.349 . S
C811 C827 1.349 . S
C812 C810 1.327 . S
C812 C831 1.429 . S
C812 H836 0.950 . S
C813 C830 1.574 . S
C813 C832 1.368 . S
C813 H837 0.949 . S
H814 C818 0.949 . S
C815 C816 1.349 . S
C815 C817 1.327 . S
C815 H838 0.950 . S
C816 C815 1.349 . S
C816 C828 1.349 . S
C817 C815 1.327 . S
C817 C833 1.429 . S
C817 H839 0.950 . S
C818 H814 0.949 . S
C818 C826 1.574 . S
C818 C834 1.368 . S
H819 C827 0.950 . S
H820 C825 0.950 . S
H821 C826 0.949 . S
H822 C828 0.950 . S
H823 C829 0.950 . S
H824 C830 0.949 . S
C825 H820 0.950 . S
C825 C827 1.327 . S
C825 C831 1.429 . S
C826 C818 1.574 . S
C826 H821 0.949 . S
C826 C832 1.368 . S
C827 C811 1.349 . S
C827 H819 0.950 . S
C827 C825 1.327 . S
C828 C816 1.349 . S
C828 H822 0.950 . S
C828 C829 1.327 . S
C829 H823 0.950 . S
C829 C828 1.327 . S
C829 C833 1.429 . S
C830 C813 1.574 . S
C830 H824 0.949 . S
C830 C834 1.368 . S
C831 C812 1.429 . S
C831 C825 1.429 . S
C831 C832 1.523 . S
C832 C813 1.368 . S
C832 C826 1.368 . S
C832 C831 1.523 . S
C833 C817 1.429 . S
C833 C829 1.429 . S
C833 C834 1.523 . S
C834 C818 1.368 . S
C834 C830 1.368 . S
C834 C833 1.523 . S
H835 C810 0.950 . S
H836 C812 0.950 . S
H837 C813 0.949 . S
H838 C815 0.950 . S
H839 C817 0.950 . S
C840 C841 1.349 . S
C840 C842 1.327 . S
C840 H865 0.950 . S
C841 C840 1.349 . S
C841 C857 1.349 . S
C842 C840 1.327 . S
C842 C861 1.429 . S
C842 H866 0.950 . S
C843 C860 1.574 1_556 S
C843 C862 1.368 1_545 S
C843 H867 0.949 . S
H844 C848 0.949 . S
C845 C846 1.349 . S
C845 C847 1.327 . S
C845 H868 0.950 . S
C846 C845 1.349 . S
C846 C858 1.349 . S
C847 C845 1.327 . S
C847 C863 1.429 . S
C847 H869 0.950 . S
C848 H844 0.949 . S
C848 C856 1.574 1_554 S
C848 C864 1.368 1_565 S
H849 C857 0.950 . S
H850 C855 0.916 1_545 S
H851 C856 0.949 . S
H852 C858 0.950 . S
H853 C859 0.916 1_565 S
H854 C860 0.949 . S
C855 H850 0.916 1_565 S
C855 C857 1.327 . S
C855 C861 1.429 . S
C856 C848 1.574 1_556 S
C856 H851 0.949 . S
C856 C862 1.368 . S
C857 C841 1.349 . S
C857 H849 0.950 . S
C857 C855 1.327 . S
C858 C846 1.349 . S
C858 H852 0.950 . S
C858 C859 1.327 . S
C859 H853 0.916 1_545 S
C859 C858 1.327 . S
C859 C863 1.429 . S
C860 C843 1.574 1_554 S
C860 H854 0.949 . S
C860 C864 1.368 . S
C861 C842 1.429 . S
C861 C855 1.429 . S
C861 C862 1.523 . S
C862 C843 1.368 1_565 S
C862 C856 1.368 . S
C862 C861 1.523 . S
C863 C847 1.429 . S
C863 C859 1.429 . S
C863 C864 1.523 . S
C864 C848 1.368 1_545 S
C864 C860 1.368 . S
C864 C863 1.523 . S
H865 C840 0.950 . S
H866 C842 0.950 . S
H867 C843 0.949 . S
H868 C845 0.950 . S
H869 C847 0.950 . S
C870 C871 1.349 . S
C870 C872 1.327 . S
C870 H895 0.950 . S
C871 C870 1.349 . S
C871 C887 1.349 . S
C872 C870 1.327 . S
C872 C891 1.429 . S
C872 H896 0.950 . S
C873 C890 1.574 . S
C873 C892 1.368 . S
C873 H897 0.949 . S
H874 C878 0.949 . S
C875 C876 1.349 . S
C875 C877 1.327 . S
C875 H898 0.950 . S
C876 C875 1.349 . S
C876 C888 1.349 . S
C877 C875 1.327 . S
C877 C893 1.429 . S
C877 H899 0.950 . S
C878 H874 0.949 . S
C878 C886 1.574 . S
C878 C894 1.368 . S
H879 C887 0.950 . S
H880 C885 0.950 . S
H881 C886 0.949 . S
H882 C888 0.950 . S
H883 C889 0.950 . S
H884 C890 0.949 . S
C885 H880 0.950 . S
C885 C887 1.327 . S
C885 C891 1.429 . S
C886 C878 1.574 . S
C886 H881 0.949 . S
C886 C892 1.368 . S
C887 C871 1.349 . S
C887 H879 0.950 . S
C887 C885 1.327 . S
C888 C876 1.349 . S
C888 H882 0.950 . S
C888 C889 1.327 . S
C889 H883 0.950 . S
C889 C888 1.327 . S
C889 C893 1.429 . S
C890 C873 1.574 . S
C890 H884 0.949 . S
C890 C894 1.368 . S
C891 C872 1.429 . S
C891 C885 1.429 . S
C891 C892 1.523 . S
C892 C873 1.368 . S
C892 C886 1.368 . S
C892 C891 1.523 . S
C893 C877 1.429 . S
C893 C889 1.429 . S
C893 C894 1.523 . S
C894 C878 1.368 . S
C894 C890 1.368 . S
C894 C893 1.523 . S
H895 C870 0.950 . S
H896 C872 0.950 . S
H897 C873 0.949 . S
H898 C875 0.950 . S
H899 C877 0.950 . S
C900 C901 1.349 . S
C900 C902 1.327 . S
C900 H925 0.950 . S
C901 C900 1.349 . S
C901 C917 1.349 . S
C902 C900 1.327 . S
C902 C921 1.429 . S
C902 H926 0.950 . S
C903 C920 1.556 1_455 S
C903 C922 1.368 . S
C903 H927 0.949 . S
H904 C908 0.949 . S
C905 C906 1.349 . S
C905 C907 1.327 . S
C905 H928 0.950 . S
C906 C905 1.349 . S
C906 C918 1.349 . S
C907 C905 1.327 . S
C907 C923 1.429 . S
C907 H929 0.950 . S
C908 H904 0.949 . S
C908 C916 1.557 1_655 S
C908 C924 1.368 . S
H909 C917 0.950 . S
H910 C915 0.950 . S
H911 C916 0.935 . S
H912 C918 0.950 . S
H913 C919 0.950 . S
H914 C920 0.935 . S
C915 H910 0.950 . S
C915 C917 1.327 . S
C915 C921 1.429 . S
C916 C908 1.557 1_455 S
C916 H911 0.935 . S
C916 C922 1.402 . S
C917 C901 1.349 . S
C917 H909 0.950 . S
C917 C915 1.327 . S
C918 C906 1.349 . S
C918 H912 0.950 . S
C918 C919 1.327 . S
C919 H913 0.950 . S
C919 C918 1.327 . S
C919 C923 1.429 . S
C920 C903 1.556 1_655 S
C920 H914 0.935 . S
C920 C924 1.403 . S
C921 C902 1.429 . S
C921 C915 1.429 . S
C921 C922 1.523 . S
C922 C903 1.368 . S
C922 C916 1.402 . S
C922 C921 1.523 . S
C923 C907 1.429 . S
C923 C919 1.429 . S
C923 C924 1.523 . S
C924 C908 1.368 . S
C924 C920 1.403 . S
C924 C923 1.523 . S
H925 C900 0.950 . S
H926 C902 0.950 . S
H927 C903 0.949 . S
H928 C905 0.950 . S
H929 C907 0.950 . S
C930 C931 1.349 . S
C930 C932 1.327 . S
C930 H955 0.950 . S
C931 C930 1.349 . S
C931 C947 1.349 . S
C932 C930 1.327 . S
C932 C951 1.429 . S
C932 H956 0.950 . S
C933 C950 1.574 1_554 S
C933 C952 1.368 1_545 S
C933 H957 0.949 . S
H934 C938 0.949 . S
C935 C936 1.349 . S
C935 C937 1.327 . S
C935 H958 0.950 . S
C936 C935 1.349 . S
C936 C948 1.349 . S
C937 C935 1.327 . S
C937 C953 1.429 . S
C937 H959 0.950 . S
C938 H934 0.949 . S
C938 C946 1.574 1_556 S
C938 C954 1.368 1_565 S
H939 C947 0.950 . S
H940 C945 0.938 1_545 S
H941 C946 0.949 . S
H942 C948 0.950 . S
H943 C949 0.938 1_565 S
H944 C950 0.949 . S
C945 H940 0.938 1_565 S
C945 C947 1.327 . S
C945 C951 1.429 . S
C946 C938 1.574 1_554 S
C946 H941 0.949 . S
C946 C952 1.368 . S
C947 C931 1.349 . S
C947 H939 0.950 . S
C947 C945 1.327 . S
C948 C936 1.349 . S
C948 H942 0.950 . S
C948 C949 1.327 . S
C949 H943 0.938 1_545 S
C949 C948 1.327 . S
C949 C953 1.429 . S
C950 C933 1.574 1_556 S
C950 H944 0.949 . S
C950 C954 1.368 . S
C951 C932 1.429 . S
C951 C945 1.429 . S
C951 C952 1.523 . S
C952 C933 1.368 1_565 S
C952 C946 1.368 . S
C952 C951 1.523 . S
C953 C937 1.429 . S
C953 C949 1.429 . S
C953 C954 1.523 . S
C954 C938 1.368 1_545 S
C954 C950 1.368 . S
C954 C953 1.523 . S
H955 C930 0.950 . S
H956 C932 0.950 . S
H957 C933 0.949 . S
H958 C935 0.950 . S
H959 C937 0.950 . S
C960 C961 1.349 . S
C960 C962 1.327 . S
C960 H985 0.950 . S
C961 C960 1.349 . S
C961 C977 1.349 . S
C962 C960 1.327 . S
C962 C981 1.429 . S
C962 H986 0.950 . S
C963 C980 1.574 . S
C963 C982 1.368 . S
C963 H987 0.949 . S
H964 C968 0.949 . S
C965 C966 1.349 . S
C965 C967 1.327 . S
C965 H988 0.950 . S
C966 C965 1.349 . S
C966 C978 1.349 . S
C967 C965 1.327 . S
C967 C983 1.429 . S
C967 H989 0.950 . S
C968 H964 0.949 . S
C968 C976 1.574 . S
C968 C984 1.368 . S
H969 C977 0.950 . S
H970 C975 0.950 . S
H971 C976 0.949 . S
H972 C978 0.950 . S
H973 C979 0.950 . S
H974 C980 0.949 . S
C975 H970 0.950 . S
C975 C977 1.327 . S
C975 C981 1.429 . S
C976 C968 1.574 . S
C976 H971 0.949 . S
C976 C982 1.368 . S
C977 C961 1.349 . S
C977 H969 0.950 . S
C977 C975 1.327 . S
C978 C966 1.349 . S
C978 H972 0.950 . S
C978 C979 1.327 . S
C979 H973 0.950 . S
C979 C978 1.327 . S
C979 C983 1.429 . S
C980 C963 1.574 . S
C980 H974 0.949 . S
C980 C984 1.368 . S
C981 C962 1.429 . S
C981 C975 1.429 . S
C981 C982 1.523 . S
C982 C963 1.368 . S
C982 C976 1.368 . S
C982 C981 1.523 . S
C983 C967 1.429 . S
C983 C979 1.429 . S
C983 C984 1.523 . S
C984 C968 1.368 . S
C984 C980 1.368 . S
C984 C983 1.523 . S
H985 C960 0.950 . S
H986 C962 0.950 . S
H987 C963 0.949 . S
H988 C965 0.950 . S
H989 C967 0.950 . S
C990 C991 1.349 . S
C990 C992 1.327 . S
C990 H1015 0.950 . S
C991 C990 1.349 . S
C991 C1007 1.349 . S
C992 C990 1.327 . S
C992 C1011 1.429 . S
C992 H1016 0.950 . S
C993 C1010 1.574 . S
C993 C1012 1.368 1_655 S
C993 H1017 0.949 . S
H994 C998 0.949 . S
C995 C996 1.349 . S
C995 C997 1.327 . S
C995 H1018 0.950 . S
C996 C995 1.349 . S
C996 C1008 1.349 . S
C997 C995 1.327 . S
C997 C1013 1.429 . S
C997 H1019 0.950 . S
C998 H994 0.949 . S
C998 C1006 1.574 . S
C998 C1014 1.368 1_455 S
H999 C1007 0.950 . S
H1000 C1005 0.950 1_655 S
H1001 C1006 0.949 . S
H1002 C1008 0.950 . S
H1003 C1009 0.950 1_455 S
H1004 C1010 0.949 . S
C1005 H1000 0.950 1_455 S
C1005 C1007 1.327 . S
C1005 C1011 1.429 . S
C1006 C998 1.574 . S
C1006 H1001 0.949 . S
C1006 C1012 1.368 . S
C1007 C991 1.349 . S
C1007 H999 0.950 . S
C1007 C1005 1.327 . S
C1008 C996 1.349 . S
C1008 H1002 0.950 . S
C1008 C1009 1.327 . S
C1009 H1003 0.950 1_655 S
C1009 C1008 1.327 . S
C1009 C1013 1.429 . S
C1010 C993 1.574 . S
C1010 H1004 0.949 . S
C1010 C1014 1.368 . S
C1011 C992 1.429 . S
C1011 C1005 1.429 . S
C1011 C1012 1.523 . S
C1012 C993 1.368 1_455 S
C1012 C1006 1.368 . S
C1012 C1011 1.523 . S
C1013 C997 1.429 . S
C1013 C1009 1.429 . S
C1013 C1014 1.523 . S
C1014 C998 1.368 1_655 S
C1014 C1010 1.368 . S
C1014 C1013 1.523 . S
H1015 C990 0.950 . S
H1016 C992 0.950 . S
H1017 C993 0.949 . S
H1018 C995 0.950 . S
H1019 C997 0.950 . S
C1020 C1021 1.349 . S
C1020 C1022 1.327 . S
C1020 H1045 0.950 . S
C1021 C1020 1.349 . S
C1021 C1037 1.349 . S
C1022 C1020 1.327 . S
C1022 C1041 1.429 . S
C1022 H1046 0.950 . S
C1023 C1040 1.575 1_545 S
C1023 C1042 1.368 . S
C1023 H1047 0.949 . S
H1024 C1028 0.949 . S
C1025 C1026 1.349 . S
C1025 C1027 1.327 . S
C1025 H1048 0.950 . S
C1026 C1025 1.349 . S
C1026 C1038 1.349 . S
C1027 C1025 1.327 . S
C1027 C1043 1.429 . S
C1027 H1049 0.950 . S
C1028 H1024 0.949 . S
C1028 C1036 1.575 1_565 S
C1028 C1044 1.368 . S
H1029 C1037 0.950 . S
H1030 C1035 0.950 . S
H1031 C1036 0.939 . S
H1032 C1038 0.950 . S
H1033 C1039 0.950 . S
H1034 C1040 0.939 . S
C1035 H1030 0.950 . S
C1035 C1037 1.327 . S
C1035 C1041 1.429 . S
C1036 C1028 1.575 1_545 S
C1036 H1031 0.939 . S
C1036 C1042 1.368 . S
C1037 C1021 1.349 . S
C1037 H1029 0.950 . S
C1037 C1035 1.327 . S
C1038 C1026 1.349 . S
C1038 H1032 0.950 . S
C1038 C1039 1.327 . S
C1039 H1033 0.950 . S
C1039 C1038 1.327 . S
C1039 C1043 1.429 . S
C1040 C1023 1.575 1_565 S
C1040 H1034 0.939 . S
C1040 C1044 1.368 . S
C1041 C1022 1.429 . S
C1041 C1035 1.429 . S
C1041 C1042 1.523 . S
C1042 C1023 1.368 . S
C1042 C1036 1.368 . S
C1042 C1041 1.523 . S
C1043 C1027 1.429 . S
C1043 C1039 1.429 . S
C1043 C1044 1.523 . S
C1044 C1028 1.368 . S
C1044 C1040 1.368 . S
C1044 C1043 1.523 . S
H1045 C1020 0.950 . S
H1046 C1022 0.950 . S
H1047 C1023 0.949 . S
H1048 C1025 0.950 . S
H1049 C1027 0.950 . S
C1050 C1051 1.349 . S
C1050 C1052 1.327 . S
C1050 H1075 0.950 . S
C1051 C1050 1.349 . S
C1051 C1067 1.349 . S
C1052 C1050 1.327 . S
C1052 C1071 1.429 . S
C1052 H1076 0.950 . S
C1053 C1070 1.574 . S
C1053 C1072 1.368 . S
C1053 H1077 0.949 . S
H1054 C1058 0.949 . S
C1055 C1056 1.349 . S
C1055 C1057 1.327 . S
C1055 H1078 0.950 . S
C1056 C1055 1.349 . S
C1056 C1068 1.349 . S
C1057 C1055 1.327 . S
C1057 C1073 1.429 . S
C1057 H1079 0.950 . S
C1058 H1054 0.949 . S
C1058 C1066 1.574 . S
C1058 C1074 1.368 . S
H1059 C1067 0.950 . S
H1060 C1065 0.950 . S
H1061 C1066 0.949 . S
H1062 C1068 0.950 . S
H1063 C1069 0.950 . S
H1064 C1070 0.949 . S
C1065 H1060 0.950 . S
C1065 C1067 1.327 . S
C1065 C1071 1.429 . S
C1066 C1058 1.574 . S
C1066 H1061 0.949 . S
C1066 C1072 1.368 . S
C1067 C1051 1.349 . S
C1067 H1059 0.950 . S
C1067 C1065 1.327 . S
C1068 C1056 1.349 . S
C1068 H1062 0.950 . S
C1068 C1069 1.327 . S
C1069 H1063 0.950 . S
C1069 C1068 1.327 . S
C1069 C1073 1.429 . S
C1070 C1053 1.574 . S
C1070 H1064 0.949 . S
C1070 C1074 1.368 . S
C1071 C1052 1.429 . S
C1071 C1065 1.429 . S
C1071 C1072 1.523 . S
C1072 C1053 1.368 . S
C1072 C1066 1.368 . S
C1072 C1071 1.523 . S
C1073 C1057 1.429 . S
C1073 C1069 1.429 . S
C1073 C1074 1.523 . S
C1074 C1058 1.368 . S
C1074 C1070 1.368 . S
C1074 C1073 1.523 . S
H1075 C1050 0.950 . S
H1076 C1052 0.950 . S
H1077 C1053 0.949 . S
H1078 C1055 0.950 . S
H1079 C1057 0.950 . S
C1080 C1081 1.349 . S
C1080 C1082 1.327 . S
C1080 H1105 0.950 . S
C1081 C1080 1.349 . S
C1081 C1097 1.349 . S
C1082 C1080 1.327 . S
C1082 C1101 1.429 . S
C1082 H1106 0.950 . S
C1083 C1100 1.574 1_655 S
C1083 C1102 1.368 . S
C1083 H1107 0.949 . S
H1084 C1088 0.949 . S
C1085 C1086 1.349 . S
C1085 C1087 1.327 . S
C1085 H1108 0.950 . S
C1086 C1085 1.349 . S
C1086 C1098 1.349 . S
C1087 C1085 1.327 . S
C1087 C1103 1.429 . S
C1087 H1109 0.950 . S
C1088 H1084 0.949 . S
C1088 C1096 1.574 1_455 S
C1088 C1104 1.368 . S
H1089 C1097 0.950 . S
H1090 C1095 0.950 . S
H1091 C1096 0.959 . S
H1092 C1098 0.950 . S
H1093 C1099 0.950 . S
H1094 C1100 0.959 . S
C1095 H1090 0.950 . S
C1095 C1097 1.327 . S
C1095 C1101 1.429 . S
C1096 C1088 1.574 1_655 S
C1096 H1091 0.959 . S
C1096 C1102 1.368 . S
C1097 C1081 1.349 . S
C1097 H1089 0.950 . S
C1097 C1095 1.327 . S
C1098 C1086 1.349 . S
C1098 H1092 0.950 . S
C1098 C1099 1.327 . S
C1099 H1093 0.950 . S
C1099 C1098 1.327 . S
C1099 C1103 1.429 . S
C1100 C1083 1.574 1_455 S
C1100 H1094 0.959 . S
C1100 C1104 1.368 . S
C1101 C1082 1.429 . S
C1101 C1095 1.429 . S
C1101 C1102 1.523 . S
C1102 C1083 1.368 . S
C1102 C1096 1.368 . S
C1102 C1101 1.523 . S
C1103 C1087 1.429 . S
C1103 C1099 1.429 . S
C1103 C1104 1.523 . S
C1104 C1088 1.368 . S
C1104 C1100 1.368 . S
C1104 C1103 1.523 . S
H1105 C1080 0.950 . S
H1106 C1082 0.950 . S
H1107 C1083 0.949 . S
H1108 C1085 0.950 . S
H1109 C1087 0.950 . S
C1110 C1111 1.349 . S
C1110 C1112 1.327 . S
C1110 H1135 0.950 . S
C1111 C1110 1.349 . S
C1111 C1127 1.349 . S
C1112 C1110 1.327 . S
C1112 C1131 1.429 . S
C1112 H1136 0.950 . S
C1113 C1130 1.575 1_455 S
C1113 C1132 1.368 . S
C1113 H1137 0.949 . S
H1114 C1118 0.949 . S
C1115 C1116 1.349 . S
C1115 C1117 1.327 . S
C1115 H1138 0.950 . S
C1116 C1115 1.349 . S
C1116 C1128 1.349 . S
C1117 C1115 1.327 . S
C1117 C1133 1.429 . S
C1117 H1139 0.950 . S
C1118 H1114 0.949 . S
C1118 C1126 1.575 1_655 S
C1118 C1134 1.368 . S
H1119 C1127 0.950 . S
H1120 C1125 0.950 . S
H1121 C1126 0.939 . S
H1122 C1128 0.950 . S
H1123 C1129 0.950 . S
H1124 C1130 0.939 . S
C1125 H1120 0.950 . S
C1125 C1127 1.327 . S
C1125 C1131 1.429 . S
C1126 C1118 1.575 1_455 S
C1126 H1121 0.939 . S
C1126 C1132 1.368 . S
C1127 C1111 1.349 . S
C1127 H1119 0.950 . S
C1127 C1125 1.327 . S
C1128 C1116 1.349 . S
C1128 H1122 0.950 . S
C1128 C1129 1.327 . S
C1129 H1123 0.950 . S
C1129 C1128 1.327 . S
C1129 C1133 1.429 . S
C1130 C1113 1.575 1_655 S
C1130 H1124 0.939 . S
C1130 C1134 1.368 . S
C1131 C1112 1.429 . S
C1131 C1125 1.429 . S
C1131 C1132 1.523 . S
C1132 C1113 1.368 . S
C1132 C1126 1.368 . S
C1132 C1131 1.523 . S
C1133 C1117 1.429 . S
C1133 C1129 1.429 . S
C1133 C1134 1.523 . S
C1134 C1118 1.368 . S
C1134 C1130 1.368 . S
C1134 C1133 1.523 . S
H1135 C1110 0.950 . S
H1136 C1112 0.950 . S
H1137 C1113 0.949 . S
H1138 C1115 0.950 . S
H1139 C1117 0.950 . S
C1140 C1141 1.349 . S
C1140 C1142 1.327 . S
C1140 H1165 0.950 . S
C1141 C1140 1.349 . S
C1141 C1157 1.349 . S
C1142 C1140 1.327 . S
C1142 C1161 1.429 . S
C1142 H1166 0.950 . S
C1143 C1160 1.574 1_565 S
C1143 C1162 1.368 . S
C1143 H1167 0.949 . S
H1144 C1148 0.949 . S
C1145 C1146 1.349 . S
C1145 C1147 1.327 . S
C1145 H1168 0.950 . S
C1146 C1145 1.349 . S
C1146 C1158 1.349 . S
C1147 C1145 1.327 . S
C1147 C1163 1.429 . S
C1147 H1169 0.950 . S
C1148 H1144 0.949 . S
C1148 C1156 1.574 1_545 S
C1148 C1164 1.368 . S
H1149 C1157 0.950 . S
H1150 C1155 0.950 . S
H1151 C1156 0.959 . S
H1152 C1158 0.950 . S
H1153 C1159 0.950 . S
H1154 C1160 0.959 . S
C1155 H1150 0.950 . S
C1155 C1157 1.327 . S
C1155 C1161 1.429 . S
C1156 C1148 1.574 1_565 S
C1156 H1151 0.959 . S
C1156 C1162 1.368 . S
C1157 C1141 1.349 . S
C1157 H1149 0.950 . S
C1157 C1155 1.327 . S
C1158 C1146 1.349 . S
C1158 H1152 0.950 . S
C1158 C1159 1.327 . S
C1159 H1153 0.950 . S
C1159 C1158 1.327 . S
C1159 C1163 1.429 . S
C1160 C1143 1.574 1_545 S
C1160 H1154 0.959 . S
C1160 C1164 1.368 . S
C1161 C1142 1.429 . S
C1161 C1155 1.429 . S
C1161 C1162 1.523 . S
C1162 C1143 1.368 . S
C1162 C1156 1.368 . S
C1162 C1161 1.523 . S
C1163 C1147 1.429 . S
C1163 C1159 1.429 . S
C1163 C1164 1.523 . S
C1164 C1148 1.368 . S
C1164 C1160 1.368 . S
C1164 C1163 1.523 . S
H1165 C1140 0.950 . S
H1166 C1142 0.950 . S
H1167 C1143 0.949 . S
H1168 C1145 0.950 . S
H1169 C1147 0.950 . S
C1170 C1171 1.349 . S
C1170 C1172 1.327 . S
C1170 H1195 0.950 . S
C1171 C1170 1.349 . S
C1171 C1187 1.349 . S
C1172 C1170 1.327 . S
C1172 C1191 1.429 . S
C1172 H1196 0.950 . S
C1173 C1190 1.574 . S
C1173 C1192 1.368 . S
C1173 H1197 0.949 . S
H1174 C1178 0.949 . S
C1175 C1176 1.349 . S
C1175 C1177 1.327 . S
C1175 H1198 0.950 . S
C1176 C1175 1.349 . S
C1176 C1188 1.349 . S
C1177 C1175 1.327 . S
C1177 C1193 1.429 . S
C1177 H1199 0.950 . S
C1178 H1174 0.949 . S
C1178 C1186 1.574 . S
C1178 C1194 1.368 . S
H1179 C1187 0.950 . S
H1180 C1185 0.950 . S
H1181 C1186 0.949 . S
H1182 C1188 0.950 . S
H1183 C1189 0.950 . S
H1184 C1190 0.949 . S
C1185 H1180 0.950 . S
C1185 C1187 1.327 . S
C1185 C1191 1.429 . S
C1186 C1178 1.574 . S
C1186 H1181 0.949 . S
C1186 C1192 1.368 . S
C1187 C1171 1.349 . S
C1187 H1179 0.950 . S
C1187 C1185 1.327 . S
C1188 C1176 1.349 . S
C1188 H1182 0.950 . S
C1188 C1189 1.327 . S
C1189 H1183 0.950 . S
C1189 C1188 1.327 . S
C1189 C1193 1.429 . S
C1190 C1173 1.574 . S
C1190 H1184 0.949 . S
C1190 C1194 1.368 . S
C1191 C1172 1.429 . S
C1191 C1185 1.429 . S
C1191 C1192 1.523 . S
C1192 C1173 1.368 . S
C1192 C1186 1.368 . S
C1192 C1191 1.523 . S
C1193 C1177 1.429 . S
C1193 C1189 1.429 . S
C1193 C1194 1.523 . S
C1194 C1178 1.368 . S
C1194 C1190 1.368 . S
C1194 C1193 1.523 . S
H1195 C1170 0.950 . S
H1196 C1172 0.950 . S
H1197 C1173 0.949 . S
H1198 C1175 0.950 . S
H1199 C1177 0.950 . S
C1200 C1201 1.349 . S
C1200 C1202 1.327 . S
C1200 H1225 0.950 . S
C1201 C1200 1.349 . S
C1201 C1217 1.349 . S
C1202 C1200 1.327 . S
C1202 C1221 1.429 . S
C1202 H1226 0.950 . S
C1203 C1220 1.574 . S
C1203 C1222 1.368 1_545 S
C1203 H1227 0.949 . S
H1204 C1208 0.949 . S
C1205 C1206 1.349 . S
C1205 C1207 1.327 . S
C1205 H1228 0.950 . S
C1206 C1205 1.349 . S
C1206 C1218 1.349 . S
C1207 C1205 1.327 . S
C1207 C1223 1.429 . S
C1207 H1229 0.950 . S
C1208 H1204 0.949 . S
C1208 C1216 1.574 . S
C1208 C1224 1.368 1_565 S
H1209 C1217 0.950 . S
H1210 C1215 0.950 . S
H1211 C1216 0.949 . S
H1212 C1218 0.950 . S
H1213 C1219 0.950 . S
H1214 C1220 0.949 . S
C1215 H1210 0.950 . S
C1215 C1217 1.327 . S
C1215 C1221 1.429 . S
C1216 C1208 1.574 . S
C1216 H1211 0.949 . S
C1216 C1222 1.368 . S
C1217 C1201 1.349 . S
C1217 H1209 0.950 . S
C1217 C1215 1.327 . S
C1218 C1206 1.349 . S
C1218 H1212 0.950 . S
C1218 C1219 1.327 . S
C1219 H1213 0.950 . S
C1219 C1218 1.327 . S
C1219 C1223 1.429 . S
C1220 C1203 1.574 . S
C1220 H1214 0.949 . S
C1220 C1224 1.368 . S
C1221 C1202 1.429 . S
C1221 C1215 1.429 . S
C1221 C1222 1.523 . S
C1222 C1203 1.368 1_565 S
C1222 C1216 1.368 . S
C1222 C1221 1.523 . S
C1223 C1207 1.429 . S
C1223 C1219 1.429 . S
C1223 C1224 1.523 . S
C1224 C1208 1.368 1_545 S
C1224 C1220 1.368 . S
C1224 C1223 1.523 . S
H1225 C1200 0.950 . S
H1226 C1202 0.950 . S
H1227 C1203 0.949 . S
H1228 C1205 0.950 . S
H1229 C1207 0.950 . S
C1230 C1231 1.349 . S
C1230 C1232 1.327 . S
C1230 H1255 0.950 . S
C1231 C1230 1.349 . S
C1231 C1247 1.349 . S
C1232 C1230 1.327 . S
C1232 C1251 1.429 . S
C1232 H1256 0.950 . S
C1233 C1250 1.574 . S
C1233 C1252 1.368 . S
C1233 H1257 0.949 . S
H1234 C1238 0.949 . S
C1235 C1236 1.349 . S
C1235 C1237 1.327 . S
C1235 H1258 0.950 . S
C1236 C1235 1.349 . S
C1236 C1248 1.349 . S
C1237 C1235 1.327 . S
C1237 C1253 1.429 . S
C1237 H1259 0.950 . S
C1238 H1234 0.949 . S
C1238 C1246 1.574 . S
C1238 C1254 1.368 . S
H1239 C1247 0.950 . S
H1240 C1245 0.950 . S
H1241 C1246 0.949 . S
H1242 C1248 0.950 . S
H1243 C1249 0.950 . S
H1244 C1250 0.949 . S
C1245 H1240 0.950 . S
C1245 C1247 1.327 . S
C1245 C1251 1.429 . S
C1246 C1238 1.574 . S
C1246 H1241 0.949 . S
C1246 C1252 1.368 . S
C1247 C1231 1.349 . S
C1247 H1239 0.950 . S
C1247 C1245 1.327 . S
C1248 C1236 1.349 . S
C1248 H1242 0.950 . S
C1248 C1249 1.327 . S
C1249 H1243 0.950 . S
C1249 C1248 1.327 . S
C1249 C1253 1.429 . S
C1250 C1233 1.574 . S
C1250 H1244 0.949 . S
C1250 C1254 1.368 . S
C1251 C1232 1.429 . S
C1251 C1245 1.429 . S
C1251 C1252 1.523 . S
C1252 C1233 1.368 . S
C1252 C1246 1.368 . S
C1252 C1251 1.523 . S
C1253 C1237 1.429 . S
C1253 C1249 1.429 . S
C1253 C1254 1.523 . S
C1254 C1238 1.368 . S
C1254 C1250 1.368 . S
C1254 C1253 1.523 . S
H1255 C1230 0.950 . S
H1256 C1232 0.950 . S
H1257 C1233 0.949 . S
H1258 C1235 0.950 . S
H1259 C1237 0.950 . S
C1260 C1261 1.349 . S
C1260 C1262 1.327 . S
C1260 H1285 0.950 . S
C1261 C1260 1.349 . S
C1261 C1277 1.349 . S
C1262 C1260 1.327 . S
C1262 C1281 1.429 . S
C1262 H1286 0.950 . S
C1263 C1280 1.574 . S
C1263 C1282 1.368 1_455 S
C1263 H1287 0.949 . S
H1264 C1268 0.949 . S
C1265 C1266 1.349 . S
C1265 C1267 1.327 . S
C1265 H1288 0.950 . S
C1266 C1265 1.349 . S
C1266 C1278 1.349 . S
C1267 C1265 1.327 . S
C1267 C1283 1.429 . S
C1267 H1289 0.950 . S
C1268 H1264 0.949 . S
C1268 C1276 1.574 . S
C1268 C1284 1.368 1_655 S
H1269 C1277 0.950 . S
H1270 C1275 0.950 . S
H1271 C1276 0.949 . S
H1272 C1278 0.950 . S
H1273 C1279 0.950 . S
H1274 C1280 0.949 . S
C1275 H1270 0.950 . S
C1275 C1277 1.327 . S
C1275 C1281 1.429 . S
C1276 C1268 1.574 . S
C1276 H1271 0.949 . S
C1276 C1282 1.368 . S
C1277 C1261 1.349 . S
C1277 H1269 0.950 . S
C1277 C1275 1.327 . S
C1278 C1266 1.349 . S
C1278 H1272 0.950 . S
C1278 C1279 1.327 . S
C1279 H1273 0.950 . S
C1279 C1278 1.327 . S
C1279 C1283 1.429 . S
C1280 C1263 1.574 . S
C1280 H1274 0.949 . S
C1280 C1284 1.368 . S
C1281 C1262 1.429 . S
C1281 C1275 1.429 . S
C1281 C1282 1.523 . S
C1282 C1263 1.368 1_655 S
C1282 C1276 1.368 . S
C1282 C1281 1.523 . S
C1283 C1267 1.429 . S
C1283 C1279 1.429 . S
C1283 C1284 1.523 . S
C1284 C1268 1.368 1_455 S
C1284 C1280 1.368 . S
C1284 C1283 1.523 . S
H1285 C1260 0.950 . S
H1286 C1262 0.950 . S
H1287 C1263 0.949 . S
H1288 C1265 0.950 . S
H1289 C1267 0.950 . S
C1290 C1291 1.349 . S
C1290 C1292 1.327 . S
C1290 H1315 0.950 . S
C1291 C1290 1.349 . S
C1291 C1307 1.349 . S
C1292 C1290 1.327 . S
C1292 C1311 1.429 . S
C1292 H1316 0.950 . S
C1293 C1310 1.574 . S
C1293 C1312 1.368 1_565 S
C1293 H1317 0.949 . S
H1294 C1298 0.949 . S
C1295 C1296 1.349 . S
C1295 C1297 1.327 . S
C1295 H1318 0.950 . S
C1296 C1295 1.349 . S
C1296 C1308 1.349 . S
C1297 C1295 1.327 . S
C1297 C1313 1.429 . S
C1297 H1319 0.950 . S
C1298 H1294 0.949 . S
C1298 C1306 1.574 . S
C1298 C1314 1.368 1_545 S
H1299 C1307 0.950 . S
H1300 C1305 0.950 . S
H1301 C1306 0.949 . S
H1302 C1308 0.950 . S
H1303 C1309 0.950 . S
H1304 C1310 0.949 . S
C1305 H1300 0.950 . S
C1305 C1307 1.327 . S
C1305 C1311 1.429 . S
C1306 C1298 1.574 . S
C1306 H1301 0.949 . S
C1306 C1312 1.368 . S
C1307 C1291 1.349 . S
C1307 H1299 0.950 . S
C1307 C1305 1.327 . S
C1308 C1296 1.349 . S
C1308 H1302 0.950 . S
C1308 C1309 1.327 . S
C1309 H1303 0.950 . S
C1309 C1308 1.327 . S
C1309 C1313 1.429 . S
C1310 C1293 1.574 . S
C1310 H1304 0.949 . S
C1310 C1314 1.368 . S
C1311 C1292 1.429 . S
C1311 C1305 1.429 . S
C1311 C1312 1.523 . S
C1312 C1293 1.368 1_545 S
C1312 C1306 1.368 . S
C1312 C1311 1.523 . S
C1313 C1297 1.429 . S
C1313 C1309 1.429 . S
C1313 C1314 1.523 . S
C1314 C1298 1.368 1_565 S
C1314 C1310 1.368 . S
C1314 C1313 1.523 . S
H1315 C1290 0.950 . S
H1316 C1292 0.950 . S
H1317 C1293 0.949 . S
H1318 C1295 0.950 . S
H1319 C1297 0.950 . S
C1320 C1321 1.349 . S
C1320 C1322 1.327 . S
C1320 H1345 0.950 . S
C1321 C1320 1.349 . S
C1321 C1337 1.349 . S
C1322 C1320 1.327 . S
C1322 C1341 1.429 . S
C1322 H1346 0.950 . S
C1323 C1340 1.574 . S
C1323 C1342 1.368 . S
C1323 H1347 0.949 . S
H1324 C1328 0.949 . S
C1325 C1326 1.349 . S
C1325 C1327 1.327 . S
C1325 H1348 0.950 . S
C1326 C1325 1.349 . S
C1326 C1338 1.349 . S
C1327 C1325 1.327 . S
C1327 C1343 1.429 . S
C1327 H1349 0.950 . S
C1328 H1324 0.949 . S
C1328 C1336 1.574 . S
C1328 C1344 1.368 . S
H1329 C1337 0.950 . S
H1330 C1335 0.950 . S
H1331 C1336 0.949 . S
H1332 C1338 0.950 . S
H1333 C1339 0.950 . S
H1334 C1340 0.949 . S
C1335 H1330 0.950 . S
C1335 C1337 1.327 . S
C1335 C1341 1.429 . S
C1336 C1328 1.574 . S
C1336 H1331 0.949 . S
C1336 C1342 1.368 . S
C1337 C1321 1.349 . S
C1337 H1329 0.950 . S
C1337 C1335 1.327 . S
C1338 C1326 1.349 . S
C1338 H1332 0.950 . S
C1338 C1339 1.327 . S
C1339 H1333 0.950 . S
C1339 C1338 1.327 . S
C1339 C1343 1.429 . S
C1340 C1323 1.574 . S
C1340 H1334 0.949 . S
C1340 C1344 1.368 . S
C1341 C1322 1.429 . S
C1341 C1335 1.429 . S
C1341 C1342 1.523 . S
C1342 C1323 1.368 . S
C1342 C1336 1.368 . S
C1342 C1341 1.523 . S
C1343 C1327 1.429 . S
C1343 C1339 1.429 . S
C1343 C1344 1.523 . S
C1344 C1328 1.368 . S
C1344 C1340 1.368 . S
C1344 C1343 1.523 . S
H1345 C1320 0.950 . S
H1346 C1322 0.950 . S
H1347 C1323 0.949 . S
H1348 C1325 0.950 . S
H1349 C1327 0.950 . S
C1350 C1351 1.349 . S
C1350 C1352 1.327 . S
C1350 H1375 0.950 . S
C1351 C1350 1.349 . S
C1351 C1367 1.349 . S
C1352 C1350 1.327 . S
C1352 C1371 1.429 . S
C1352 H1376 0.950 . S
C1353 C1370 1.544 1_455 S
C1353 C1372 1.374 . S
C1353 H1377 0.973 . S
H1354 C1358 0.973 . S
C1355 C1356 1.349 . S
C1355 C1357 1.327 . S
C1355 H1378 0.950 . S
C1356 C1355 1.349 . S
C1356 C1368 1.349 . S
C1357 C1355 1.327 . S
C1357 C1373 1.429 . S
C1357 H1379 0.950 . S
C1358 H1354 0.973 . S
C1358 C1366 1.544 1_655 S
C1358 C1374 1.374 . S
H1359 C1367 0.950 . S
H1360 C1365 0.950 . S
H1361 C1366 0.949 . S
H1362 C1368 0.950 . S
H1363 C1369 0.950 . S
H1364 C1370 0.949 . S
C1365 H1360 0.950 . S
C1365 C1367 1.327 . S
C1365 C1371 1.429 . S
C1366 C1358 1.544 1_455 S
C1366 H1361 0.949 . S
C1366 C1372 1.368 . S
C1367 C1351 1.349 . S
C1367 H1359 0.950 . S
C1367 C1365 1.327 . S
C1368 C1356 1.349 . S
C1368 H1362 0.950 . S
C1368 C1369 1.327 . S
C1369 H1363 0.950 . S
C1369 C1368 1.327 . S
C1369 C1373 1.429 . S
C1370 C1353 1.544 1_655 S
C1370 H1364 0.949 . S
C1370 C1374 1.368 . S
C1371 C1352 1.429 . S
C1371 C1365 1.429 . S
C1371 C1372 1.523 . S
C1372 C1353 1.374 . S
C1372 C1366 1.368 . S
C1372 C1371 1.523 . S
C1373 C1357 1.429 . S
C1373 C1369 1.429 . S
C1373 C1374 1.523 . S
C1374 C1358 1.374 . S
C1374 C1370 1.368 . S
C1374 C1373 1.523 . S
H1375 C1350 0.950 . S
H1376 C1352 0.950 . S
H1377 C1353 0.973 . S
H1378 C1355 0.950 . S
H1379 C1357 0.950 . S
C1380 C1381 1.349 . S
C1380 C1382 1.327 . S
C1380 H1405 0.950 . S
C1381 C1380 1.349 . S
C1381 C1397 1.349 . S
C1382 C1380 1.327 . S
C1382 C1401 1.429 . S
C1382 H1406 0.950 . S
C1383 C1400 1.574 . S
C1383 C1402 1.368 . S
C1383 H1407 0.949 . S
H1384 C1388 0.949 . S
C1385 C1386 1.349 . S
C1385 C1387 1.327 . S
C1385 H1408 0.950 . S
C1386 C1385 1.349 . S
C1386 C1398 1.349 . S
C1387 C1385 1.327 . S
C1387 C1403 1.429 . S
C1387 H1409 0.950 . S
C1388 H1384 0.949 . S
C1388 C1396 1.574 . S
C1388 C1404 1.368 . S
H1389 C1397 0.950 . S
H1390 C1395 0.950 . S
H1391 C1396 0.949 . S
H1392 C1398 0.950 . S
H1393 C1399 0.950 . S
H1394 C1400 0.949 . S
C1395 H1390 0.950 . S
C1395 C1397 1.327 . S
C1395 C1401 1.429 . S
C1396 C1388 1.574 . S
C1396 H1391 0.949 . S
C1396 C1402 1.368 . S
C1397 C1381 1.349 . S
C1397 H1389 0.950 . S
C1397 C1395 1.327 . S
C1398 C1386 1.349 . S
C1398 H1392 0.950 . S
C1398 C1399 1.327 . S
C1399 H1393 0.950 . S
C1399 C1398 1.327 . S
C1399 C1403 1.429 . S
C1400 C1383 1.574 . S
C1400 H1394 0.949 . S
C1400 C1404 1.368 . S
C1401 C1382 1.429 . S
C1401 C1395 1.429 . S
C1401 C1402 1.523 . S
C1402 C1383 1.368 . S
C1402 C1396 1.368 . S
C1402 C1401 1.523 . S
C1403 C1387 1.429 . S
C1403 C1399 1.429 . S
C1403 C1404 1.523 . S
C1404 C1388 1.368 . S
C1404 C1400 1.368 . S
C1404 C1403 1.523 . S
H1405 C1380 0.950 . S
H1406 C1382 0.950 . S
H1407 C1383 0.949 . S
H1408 C1385 0.950 . S
H1409 C1387 0.950 . S
C1410 C1411 1.349 . S
C1410 C1412 1.327 . S
C1410 H1435 0.950 . S
C1411 C1410 1.349 . S
C1411 C1427 1.349 . S
C1412 C1410 1.327 . S
C1412 C1431 1.429 . S
C1412 H1436 0.950 . S
C1413 C1430 1.574 . S
C1413 C1432 1.368 . S
C1413 H1437 0.949 . S
H1414 C1418 0.949 . S
C1415 C1416 1.349 . S
C1415 C1417 1.327 . S
C1415 H1438 0.950 . S
C1416 C1415 1.349 . S
C1416 C1428 1.349 . S
C1417 C1415 1.327 . S
C1417 C1433 1.429 . S
C1417 H1439 0.950 . S
C1418 H1414 0.949 . S
C1418 C1426 1.574 . S
C1418 C1434 1.368 . S
H1419 C1427 0.950 . S
H1420 C1425 0.950 . S
H1421 C1426 0.949 . S
H1422 C1428 0.950 . S
H1423 C1429 0.950 . S
H1424 C1430 0.949 . S
C1425 H1420 0.950 . S
C1425 C1427 1.327 . S
C1425 C1431 1.429 . S
C1426 C1418 1.574 . S
C1426 H1421 0.949 . S
C1426 C1432 1.368 . S
C1427 C1411 1.349 . S
C1427 H1419 0.950 . S
C1427 C1425 1.327 . S
C1428 C1416 1.349 . S
C1428 H1422 0.950 . S
C1428 C1429 1.327 . S
C1429 H1423 0.950 . S
C1429 C1428 1.327 . S
C1429 C1433 1.429 . S
C1430 C1413 1.574 . S
C1430 H1424 0.949 . S
C1430 C1434 1.368 . S
C1431 C1412 1.429 . S
C1431 C1425 1.429 . S
C1431 C1432 1.523 . S
C1432 C1413 1.368 . S
C1432 C1426 1.368 . S
C1432 C1431 1.523 . S
C1433 C1417 1.429 . S
C1433 C1429 1.429 . S
C1433 C1434 1.523 . S
C1434 C1418 1.368 . S
C1434 C1430 1.368 . S
C1434 C1433 1.523 . S
H1435 C1410 0.950 . S
H1436 C1412 0.950 . S
H1437 C1413 0.949 . S
H1438 C1415 0.950 . S
H1439 C1417 0.950 . S
C1440 C1441 1.349 . S
C1440 C1442 1.327 . S
C1440 H1465 0.950 . S
C1441 C1440 1.349 . S
C1441 C1457 1.349 . S
C1442 C1440 1.327 . S
C1442 C1461 1.429 . S
C1442 H1466 0.950 . S
C1443 C1460 1.574 . S
C1443 C1462 1.368 . S
C1443 H1467 0.949 . S
H1444 C1448 0.949 . S
C1445 C1446 1.349 . S
C1445 C1447 1.327 . S
C1445 H1468 0.950 . S
C1446 C1445 1.349 . S
C1446 C1458 1.349 . S
C1447 C1445 1.327 . S
C1447 C1463 1.429 . S
C1447 H1469 0.950 . S
C1448 H1444 0.949 . S
C1448 C1456 1.574 . S
C1448 C1464 1.368 . S
H1449 C1457 0.950 . S
H1450 C1455 0.950 . S
H1451 C1456 0.949 . S
H1452 C1458 0.950 . S
H1453 C1459 0.950 . S
H1454 C1460 0.949 . S
C1455 H1450 0.950 . S
C1455 C1457 1.327 . S
C1455 C1461 1.429 . S
C1456 C1448 1.574 . S
C1456 H1451 0.949 . S
C1456 C1462 1.368 . S
C1457 C1441 1.349 . S
C1457 H1449 0.950 . S
C1457 C1455 1.327 . S
C1458 C1446 1.349 . S
C1458 H1452 0.950 . S
C1458 C1459 1.327 . S
C1459 H1453 0.950 . S
C1459 C1458 1.327 . S
C1459 C1463 1.429 . S
C1460 C1443 1.574 . S
C1460 H1454 0.949 . S
C1460 C1464 1.368 . S
C1461 C1442 1.429 . S
C1461 C1455 1.429 . S
C1461 C1462 1.523 . S
C1462 C1443 1.368 . S
C1462 C1456 1.368 . S
C1462 C1461 1.523 . S
C1463 C1447 1.429 . S
C1463 C1459 1.429 . S
C1463 C1464 1.523 . S
C1464 C1448 1.368 . S
C1464 C1460 1.368 . S
C1464 C1463 1.523 . S
H1465 C1440 0.950 . S
H1466 C1442 0.950 . S
H1467 C1443 0.949 . S
H1468 C1445 0.950 . S
H1469 C1447 0.950 . S
C1470 C1471 1.349 . S
C1470 C1472 1.327 . S
C1470 H1495 0.950 . S
C1471 C1470 1.349 . S
C1471 C1487 1.349 . S
C1472 C1470 1.327 . S
C1472 C1491 1.429 . S
C1472 H1496 0.950 . S
C1473 C1490 1.574 . S
C1473 C1492 1.368 . S
C1473 H1497 0.949 . S
H1474 C1478 0.949 . S
C1475 C1476 1.349 . S
C1475 C1477 1.327 . S
C1475 H1498 0.950 . S
C1476 C1475 1.349 . S
C1476 C1488 1.349 . S
C1477 C1475 1.327 . S
C1477 C1493 1.429 . S
C1477 H1499 0.950 . S
C1478 H1474 0.949 . S
C1478 C1486 1.574 . S
C1478 C1494 1.368 . S
H1479 C1487 0.950 . S
H1480 C1485 0.950 . S
H1481 C1486 0.949 . S
H1482 C1488 0.950 . S
H1483 C1489 0.950 . S
H1484 C1490 0.949 . S
C1485 H1480 0.950 . S
C1485 C1487 1.327 . S
C1485 C1491 1.429 . S
C1486 C1478 1.574 . S
C1486 H1481 0.949 . S
C1486 C1492 1.368 . S
C1487 C1471 1.349 . S
C1487 H1479 0.950 . S
C1487 C1485 1.327 . S
C1488 C1476 1.349 . S
C1488 H1482 0.950 . S
C1488 C1489 1.327 . S
C1489 H1483 0.950 . S
C1489 C1488 1.327 . S
C1489 C1493 1.429 . S
C1490 C1473 1.574 . S
C1490 H1484 0.949 . S
C1490 C1494 1.368 . S
C1491 C1472 1.429 . S
C1491 C1485 1.429 . S
C1491 C1492 1.523 . S
C1492 C1473 1.368 . S
C1492 C1486 1.368 . S
C1492 C1491 1.523 . S
C1493 C1477 1.429 . S
C1493 C1489 1.429 . S
C1493 C1494 1.523 . S
C1494 C1478 1.368 . S
C1494 C1490 1.368 . S
C1494 C1493 1.523 . S
H1495 C1470 0.950 . S
H1496 C1472 0.950 . S
H1497 C1473 0.949 . S
H1498 C1475 0.950 . S
H1499 C1477 0.950 . S
C1500 C1501 1.349 . S
C1500 C1502 1.327 . S
C1500 H1525 0.950 . S
C1501 C1500 1.349 . S
C1501 C1517 1.349 . S
C1502 C1500 1.327 . S
C1502 C1521 1.429 . S
C1502 H1526 0.950 . S
C1503 C1520 1.574 . S
C1503 C1522 1.368 . S
C1503 H1527 0.949 . S
H1504 C1508 0.949 . S
C1505 C1506 1.349 . S
C1505 C1507 1.327 . S
C1505 H1528 0.950 . S
C1506 C1505 1.349 . S
C1506 C1518 1.349 . S
C1507 C1505 1.327 . S
C1507 C1523 1.429 . S
C1507 H1529 0.950 . S
C1508 H1504 0.949 . S
C1508 C1516 1.574 . S
C1508 C1524 1.368 . S
H1509 C1517 0.950 . S
H1510 C1515 0.950 . S
H1511 C1516 0.949 . S
H1512 C1518 0.950 . S
H1513 C1519 0.950 . S
H1514 C1520 0.949 . S
C1515 H1510 0.950 . S
C1515 C1517 1.327 . S
C1515 C1521 1.429 . S
C1516 C1508 1.574 . S
C1516 H1511 0.949 . S
C1516 C1522 1.368 . S
C1517 C1501 1.349 . S
C1517 H1509 0.950 . S
C1517 C1515 1.327 . S
C1518 C1506 1.349 . S
C1518 H1512 0.950 . S
C1518 C1519 1.327 . S
C1519 H1513 0.950 . S
C1519 C1518 1.327 . S
C1519 C1523 1.429 . S
C1520 C1503 1.574 . S
C1520 H1514 0.949 . S
C1520 C1524 1.368 . S
C1521 C1502 1.429 . S
C1521 C1515 1.429 . S
C1521 C1522 1.523 . S
C1522 C1503 1.368 . S
C1522 C1516 1.368 . S
C1522 C1521 1.523 . S
C1523 C1507 1.429 . S
C1523 C1519 1.429 . S
C1523 C1524 1.523 . S
C1524 C1508 1.368 . S
C1524 C1520 1.368 . S
C1524 C1523 1.523 . S
H1525 C1500 0.950 . S
H1526 C1502 0.950 . S
H1527 C1503 0.949 . S
H1528 C1505 0.950 . S
H1529 C1507 0.950 . S
C1530 C1531 1.349 . S
C1530 C1532 1.327 . S
C1530 H1555 0.950 . S
C1531 C1530 1.349 . S
C1531 C1547 1.349 . S
C1532 C1530 1.327 . S
C1532 C1551 1.429 . S
C1532 H1556 0.950 . S
C1533 C1550 1.574 . S
C1533 C1552 1.368 . S
C1533 H1557 0.949 . S
H1534 C1538 0.949 . S
C1535 C1536 1.349 . S
C1535 C1537 1.327 . S
C1535 H1558 0.950 . S
C1536 C1535 1.349 . S
C1536 C1548 1.349 . S
C1537 C1535 1.327 . S
C1537 C1553 1.429 . S
C1537 H1559 0.950 . S
C1538 H1534 0.949 . S
C1538 C1546 1.574 . S
C1538 C1554 1.368 . S
H1539 C1547 0.950 . S
H1540 C1545 0.950 . S
H1541 C1546 0.949 . S
H1542 C1548 0.950 . S
H1543 C1549 0.950 . S
H1544 C1550 0.949 . S
C1545 H1540 0.950 . S
C1545 C1547 1.327 . S
C1545 C1551 1.429 . S
C1546 C1538 1.574 . S
C1546 H1541 0.949 . S
C1546 C1552 1.368 . S
C1547 C1531 1.349 . S
C1547 H1539 0.950 . S
C1547 C1545 1.327 . S
C1548 C1536 1.349 . S
C1548 H1542 0.950 . S
C1548 C1549 1.327 . S
C1549 H1543 0.950 . S
C1549 C1548 1.327 . S
C1549 C1553 1.429 . S
C1550 C1533 1.574 . S
C1550 H1544 0.949 . S
C1550 C1554 1.368 . S
C1551 C1532 1.429 . S
C1551 C1545 1.429 . S
C1551 C1552 1.523 . S
C1552 C1533 1.368 . S
C1552 C1546 1.368 . S
C1552 C1551 1.523 . S
C1553 C1537 1.429 . S
C1553 C1549 1.429 . S
C1553 C1554 1.523 . S
C1554 C1538 1.368 . S
C1554 C1550 1.368 . S
C1554 C1553 1.523 . S
H1555 C1530 0.950 . S
H1556 C1532 0.950 . S
H1557 C1533 0.949 . S
H1558 C1535 0.950 . S
H1559 C1537 0.950 . S
C481 C23 0.815 . S
C486 C343 0.815 . S
C511 C63 0.815 . S
C516 C383 0.815 . S
C541 C103 0.817 . S
C546 C423 0.817 . S
C571 C463 0.815 . S
C576 C143 0.815 . S
C601 C183 0.815 . S
C606 C263 0.815 . S
C631 C303 0.817 . S
C636 C223 0.817 . S
C661 C404 1.488 . S
C666 C4 1.488 . S
C691 C444 1.488 . S
C696 C44 1.488 . S
C721 C84 1.488 . S
C726 C244 1.488 . S
C751 C284 1.488 . S
C756 C124 1.488 . S
C781 C324 1.488 . S
C786 C164 1.488 . S
C811 C204 1.488 . S
C816 C364 1.488 . S
C841 C300 4.349 . S
C846 C20 4.349 . S
C871 C340 4.350 . S
C876 C60 4.350 . S
C901 C380 4.350 . S
C906 C100 4.350 . S
C931 C140 4.349 . S
C936 C420 4.349 . S
C961 C180 4.350 . S
C966 C460 4.350 . S
C991 C220 4.350 . S
C996 C260 4.350 . S
C1021 C2 0.518 . S
C1026 C122 0.518 . S
C1051 C42 0.518 . S
C1056 C162 0.518 . S
C1081 C82 0.518 . S
C1086 C202 0.518 . S
C1111 C362 0.518 . S
C1116 C242 0.518 . S
C1141 C282 0.518 . S
C1146 C402 0.518 . S
C1171 C442 0.518 . S
C1176 C322 0.518 . S
C1201 C305 0.932 . S
C1206 C25 0.932 . S
C1231 C345 0.932 . S
C1236 C65 0.932 . S
C1261 C105 0.932 . S
C1266 C385 0.932 . S
C1291 C425 0.932 . S
C1296 C145 0.932 . S
C1321 C465 0.932 . S
C1326 C185 0.932 . S
C1351 C225 0.932 . S
C1356 C265 0.932 . S
C1381 C31 4.503 . S
C1386 C431 4.503 . S
C1411 C71 4.503 . S
C1416 C471 4.503 1_556 S
C1441 C111 4.503 1_554 S
C1446 C271 4.503 . S
C1471 C151 4.503 . S
C1476 C311 4.503 . S
C1501 C191 4.503 . S
C1506 C351 4.503 1_556 S
C1531 C391 4.503 . S
C1536 C231 4.503 1_554 S
