# Generated by pormake.
# Topology tfs, (6)-cn, num edge types: 1
# Building blocks:
#     Node 0, Type 0, BuildingBlock: HISSIN_clean_sbu_0, # of connection points: 6
#     Node 1, Type 0, BuildingBlock: HISSIN_clean_sbu_0, # of connection points: 6
#     Node 2, Type 0, BuildingBlock: HISSIN_clean_sbu_0, # of connection points: 6
#     Node 3, Type 0, BuildingBlock: HISSIN_clean_sbu_0, # of connection points: 6
#     Node 4, Type 0, BuildingBlock: HISSIN_clean_sbu_0, # of connection points: 6
#     Node 5, Type 0, BuildingBlock: HISSIN_clean_sbu_0, # of connection points: 6
#     Edge 6, Type (0, 0), BuildingBlock: OJICUG_clean_linker_0, # of connection points: 2
#     Edge 7, Type (0, 0), BuildingBlock: OJICUG_clean_linker_0, # of connection points: 2
#     Edge 8, Type (0, 0), BuildingBlock: OJICUG_clean_linker_0, # of connection points: 2
#     Edge 9, Type (0, 0), BuildingBlock: OJICUG_clean_linker_0, # of connection points: 2
#     Edge 10, Type (0, 0), BuildingBlock: OJICUG_clean_linker_0, # of connection points: 2
#     Edge 11, Type (0, 0), BuildingBlock: OJICUG_clean_linker_0, # of connection points: 2
#     Edge 12, Type (0, 0), BuildingBlock: OJICUG_clean_linker_0, # of connection points: 2
#     Edge 13, Type (0, 0), BuildingBlock: OJICUG_clean_linker_0, # of connection points: 2
#     Edge 14, Type (0, 0), BuildingBlock: OJICUG_clean_linker_0, # of connection points: 2
#     Edge 15, Type (0, 0), BuildingBlock: OJICUG_clean_linker_0, # of connection points: 2
#     Edge 16, Type (0, 0), BuildingBlock: OJICUG_clean_linker_0, # of connection points: 2
#     Edge 17, Type (0, 0), BuildingBlock: OJICUG_clean_linker_0, # of connection points: 2
#     Edge 18, Type (0, 0), BuildingBlock: OJICUG_clean_linker_0, # of connection points: 2
#     Edge 19, Type (0, 0), BuildingBlock: OJICUG_clean_linker_0, # of connection points: 2
#     Edge 20, Type (0, 0), BuildingBlock: OJICUG_clean_linker_0, # of connection points: 2
#     Edge 21, Type (0, 0), BuildingBlock: OJICUG_clean_linker_0, # of connection points: 2
#     Edge 22, Type (0, 0), BuildingBlock: OJICUG_clean_linker_0, # of connection points: 2
#     Edge 23, Type (0, 0), BuildingBlock: OJICUG_clean_linker_0, # of connection points: 2
# Relax obj value: 0.577
# Max RMSD: 0.300
# Mean RMSD: 0.300
data_MOF--net-tfs--node1-HISSIN_clean_sbu_0--edge1-OJICUG_clean_linker_0
_symmetry_space_group_name_H-M    P1
_symmetry_Int_Tables_number       1
_symmetry_cell_setting            triclinic
loop_
_symmetry_equiv_pos_as_xyz
'x, y, z'
_cell_length_a     42.09364
_cell_length_b     42.451735
_cell_length_c     11.183787
_cell_angle_alpha  90.116475
_cell_angle_beta   89.860749
_cell_angle_gamma 120.1279
loop_
_atom_site_label
_atom_site_type_symbol
_atom_site_fract_x
_atom_site_fract_y
_atom_site_fract_z
_atom_type_partial_charge
Eu0 Eu 0.22662 0.41419 0.79052 0.0
Eu1 Eu 0.20603 0.48028 0.78381 0.0
C2 C 0.2184 0.45063 0.03497 0.0
C3 C 0.26683 0.35437 0.87141 0.0
C4 C 0.28665 0.37677 0.96804 0.0
C5 C 0.28908 0.31334 0.92059 0.0
C6 C 0.30783 0.36753 0.04041 0.0
C7 C 0.26807 0.32263 0.84839 0.0
C8 C 0.30923 0.33566 0.01739 0.0
C9 C 0.24499 0.36386 0.79343 0.0
O10 O 0.2676 0.5076 0.76239 0.0
O11 O 0.27638 0.46466 0.85718 0.0
C12 C 0.28902 0.49787 0.81675 0.0
O13 O 0.23524 0.43577 0.60385 0.0
O14 O 0.18499 0.5139 0.85875 0.0
O15 O 0.20079 0.51931 0.67213 0.0
O16 O 0.19058 0.45089 0.60792 0.0
C17 C 0.21287 0.44364 0.5482 0.0
O18 O 0.16539 0.38602 0.76187 0.0
O19 O 0.15475 0.42986 0.8411 0.0
O20 O 0.22022 0.47845 0.9769 0.0
O21 O 0.2145 0.35951 0.83893 0.0
O22 O 0.26315 0.3944 0.73488 0.0
O23 O 0.21644 0.42216 0.98132 0.0
C24 C 0.20356 0.57041 0.76434 0.0
C25 C 0.18015 0.58405 0.74007 0.0
C26 C 0.25468 0.6322 0.78324 0.0
C27 C 0.19383 0.6215 0.73637 0.0
C28 C 0.24089 0.59455 0.78659 0.0
C29 C 0.23129 0.64607 0.75731 0.0
C30 C 0.18857 0.531 0.75853 0.0
C31 C 0.14346 0.3959 0.81202 0.0
H32 H 0.28584 0.4014 -0.01301 0.0
H33 H 0.29015 0.28901 0.89892 0.0
H34 H 0.32293 0.38516 0.11449 0.0
H35 H 0.25301 0.30517 0.77386 0.0
H36 H 0.15131 0.56568 0.72154 0.0
H37 H 0.28358 0.65039 0.80091 0.0
H38 H 0.17517 0.63117 0.71401 0.0
H39 H 0.25934 0.58431 0.80497 0.0
Eu40 Eu 0.86484 0.22765 0.37111 0.0
Eu41 Eu 0.77783 0.20955 0.37535 0.0
C42 C 0.82294 0.22029 0.61426 0.0
C43 C 0.96265 0.26316 0.26628 0.0
C44 C 0.96994 0.24424 0.17691 0.0
C45 C 1.00988 0.32028 0.18061 0.0
C46 C 0.99663 0.2632 0.08934 0.0
C47 C 0.98326 0.30139 0.26783 0.0
C48 C 1.01665 0.30147 0.08955 0.0
C49 C 0.93303 0.24315 0.35505 0.0
O50 O 0.8124 0.27084 0.37175 0.0
O51 O 0.86602 0.27708 0.29468 0.0
C52 C 0.8443 0.29023 0.31789 0.0
O53 O 0.84396 0.2131 0.18298 0.0
O54 O 0.73524 0.21468 0.47019 0.0
O55 O 0.72128 0.18025 0.31237 0.0
O56 O 0.79443 0.22243 0.18337 0.0
C57 C 0.81928 0.21788 0.12717 0.0
O58 O 0.83069 0.16897 0.42694 0.0
O59 O 0.77669 0.15708 0.33836 0.0
O60 O 0.79223 0.19931 0.55786 0.0
O61 O 0.92252 0.26227 0.41802 0.0
O62 O 0.90526 0.21222 0.31991 0.0
O63 O 0.8539 0.23985 0.5568 0.0
C64 C 0.68243 0.20393 0.36207 0.0
C65 C 0.68326 0.21942 0.25048 0.0
C66 C 0.62655 0.20424 0.41233 0.0
C67 C 0.65551 0.22695 0.21961 0.0
C68 C 0.65417 0.19678 0.44293 0.0
C69 C 0.62659 0.21896 0.29983 0.0
C70 C 0.70947 0.19338 0.39583 0.0
C71 C 0.79816 0.14601 0.3834 0.0
H72 H 0.9547 0.21476 0.17381 0.0
H73 H 1.02549 0.34973 0.18547 0.0
H74 H 1.00121 0.24791 0.02057 0.0
H75 H 0.97875 0.31688 0.33604 0.0
H76 H 0.70497 0.22519 0.1869 0.0
H77 H 0.60515 0.19851 0.47711 0.0
H78 H 0.65622 0.23824 0.13223 0.0
H79 H 0.65322 0.18496 0.52963 0.0
Eu80 Eu 0.66526 0.8341 0.04994 0.0
Eu81 Eu 0.59905 0.74656 0.05381 0.0
C82 C 0.62982 0.79233 0.2934 0.0
C83 C 0.73185 0.93404 0.13026 0.0
C84 C 0.70982 0.93543 0.22199 0.0
C85 C 0.77795 0.99672 0.17071 0.0
C86 C 0.72147 0.96771 0.28598 0.0
C87 C 0.76622 0.96451 0.10666 0.0
C88 C 0.75535 0.99891 0.2592 0.0
C89 C 0.71879 0.90171 0.05475 0.0
O90 O 0.57326 0.77839 -0.01106 0.0
O91 O 0.61165 0.83291 0.0814 0.0
C92 C 0.58062 0.81066 0.02676 0.0
O93 O 0.64929 0.82161 0.85911 0.0
O94 O 0.54852 0.70352 0.13154 0.0
O95 O 0.57647 0.69008 -0.00519 0.0
O96 O 0.61327 0.75877 0.85986 0.0
C97 C 0.63095 0.79021 0.80424 0.0
O98 O 0.68874 0.79974 -0.01181 0.0
O99 O 0.65241 0.74973 0.1016 0.0
O100 O 0.60042 0.76876 0.23578 0.0
O101 O 0.72126 0.87471 0.09964 0.0
O102 O 0.68768 0.8909 -0.00016 0.0
O103 O 0.66014 0.81542 0.2386 0.0
C104 C 0.51151 0.65431 0.00309 0.0
C105 C 0.4853 0.66519 -0.01257 0.0
C106 C 0.46788 0.59444 0.92622 0.0
C107 C 0.45023 0.64047 0.94482 0.0
C108 C 0.50281 0.61906 0.96977 0.0
C109 C 0.44084 0.60452 0.9163 0.0
C110 C 0.54706 0.67838 0.06072 0.0
C111 C 0.68286 0.76987 0.04189 0.0
H112 H 0.68326 0.91191 0.24171 0.0
H113 H 0.80392 1.02039 0.14678 0.0
H114 H 0.70364 0.96856 0.35431 0.0
H115 H 0.78352 0.96375 0.0361 0.0
H116 H 0.49148 0.69242 0.01163 0.0
H117 H 0.46186 0.56723 0.90254 0.0
H118 H 0.43008 0.64913 0.93912 0.0
H119 H 0.52276 0.61026 0.98029 0.0
Eu120 Eu 0.8548 0.61821 0.77931 0.0
Eu121 Eu 0.87718 0.55323 0.7878 0.0
C122 C 0.86542 0.58633 0.02965 0.0
C123 C 0.82113 0.68733 0.81914 0.0
C124 C 0.80553 0.6764 0.93322 0.0
C125 C 0.79633 0.72767 0.80428 0.0
C126 C 0.78524 0.69113 0.98267 0.0
C127 C 0.81656 0.71305 0.75538 0.0
C128 C 0.78038 0.71688 0.91834 0.0
C129 C 0.8413 0.67166 0.76211 0.0
O130 O 0.8149 0.52385 0.79624 0.0
O131 O 0.80411 0.57023 0.8507 0.0
C132 C 0.79304 0.53556 0.83536 0.0
O133 O 0.84074 0.59052 0.60092 0.0
O134 O 0.91504 0.53556 0.84557 0.0
O135 O 0.86856 0.49991 0.73442 0.0
O136 O 0.88237 0.57084 0.59684 0.0
C137 C 0.86086 0.58018 0.54212 0.0
O138 O 0.9117 0.64143 0.70668 0.0
O139 O 0.92914 0.60729 0.81483 0.0
O140 O 0.86237 0.55764 0.97517 0.0
O141 O 0.86936 0.67412 0.8199 0.0
O142 O 0.82149 0.64009 0.71065 0.0
O143 O 0.86848 0.61477 0.97223 0.0
C144 C 0.88746 0.47297 0.8813 0.0
C145 C 0.9005 0.44922 0.85547 0.0
C146 C 0.86182 0.44096 0.06809 0.0
C147 C 0.89436 0.42151 0.93551 0.0
C148 C 0.86794 0.46866 -0.01227 0.0
C149 C 0.87516 0.41718 0.04317 0.0
C150 C 0.89572 0.50311 0.79956 0.0
C151 C 0.93736 0.63709 0.75582 0.0
H152 H 0.8088 0.65637 0.9832 0.0
H153 H 0.79244 0.74679 0.75123 0.0
H154 H 0.77338 0.68242 0.07088 0.0
H155 H 0.82823 0.72147 0.66672 0.0
H156 H 0.91562 0.45223 0.77367 0.0
H157 H 0.84716 0.43853 0.15043 0.0
H158 H 0.90436 0.40323 0.91239 0.0
H159 H 0.85783 0.48698 0.00918 0.0
Eu160 Eu 0.26398 0.86438 0.68097 0.0
Eu161 Eu 0.35068 0.88326 0.68034 0.0
C162 C 0.30734 0.87098 0.92556 0.0
C163 C 0.15881 0.81559 0.68601 0.0
C164 C 0.14991 0.79073 0.78048 0.0
C165 C 0.09683 0.77929 0.60955 0.0
C166 C 0.11446 0.7607 0.79052 0.0
C167 C 0.13212 0.80942 0.60019 0.0
C168 C 0.08738 0.75486 0.70583 0.0
C169 C 0.19538 0.84835 0.6761 0.0
O170 O 0.31663 0.82201 0.66532 0.0
O171 O 0.26016 0.81149 0.73117 0.0
C172 C 0.28307 0.80002 0.70443 0.0
O173 O 0.27749 0.85171 0.49899 0.0
O174 O 0.40667 0.91523 0.7464 0.0
O175 O 0.39467 0.87698 0.60145 0.0
O176 O 0.33802 0.89533 0.49716 0.0
C177 C 0.3077 0.87323 0.44037 0.0
O178 O 0.29748 0.92464 0.64905 0.0
O179 O 0.35103 0.9343 0.73463 0.0
O180 O 0.33083 0.86481 0.8675 0.0
O181 O 0.21564 0.85881 0.77195 0.0
O182 O 0.21427 0.85104 0.58039 0.0
O183 O 0.28433 0.87835 0.87034 0.0
C184 C 0.4415 0.88538 0.73839 0.0
C185 C 0.44707 0.85879 0.68326 0.0
C186 C 0.4798 0.88748 0.90459 0.0
C187 C 0.46847 0.84645 0.73861 0.0
C188 C 0.45833 0.89981 0.84929 0.0
C189 C 0.48498 0.86057 0.85002 0.0
C190 C 0.41905 0.89862 0.67909 0.0
C191 C 0.32914 0.94617 0.70033 0.0
H192 H 0.17013 0.79472 0.84759 0.0
H193 H 0.0769 0.77521 0.54127 0.0
H194 H 0.10807 0.74265 0.86623 0.0
H195 H 0.13851 0.8281 0.5262 0.0
H196 H 0.43501 0.84757 0.59695 0.0
H197 H 0.49206 0.89878 -0.0094 0.0
H198 H 0.47258 0.82622 0.6931 0.0
H199 H 0.45493 0.92064 0.89358 0.0
Eu200 Eu 0.42431 0.22646 0.22206 0.0
Eu201 Eu 0.49075 0.31345 0.22166 0.0
C202 C 0.45328 0.26971 0.46578 0.0
C203 C 0.36609 0.12817 0.12331 0.0
C204 C 0.3456 0.12281 0.01828 0.0
C205 C 0.37554 0.0784 0.06419 0.0
C206 C 0.34056 0.0958 0.93633 0.0
C207 C 0.38055 0.10532 0.14608 0.0
C208 C 0.35581 0.07358 0.9579 0.0
C209 C 0.37322 0.15807 0.20681 0.0
O210 O 0.51686 0.28072 0.16613 0.0
O211 O 0.47745 0.22823 0.26466 0.0
C212 C 0.50962 0.24993 0.21618 0.0
O213 O 0.44729 0.23767 0.03602 0.0
O214 O 0.54353 0.35512 0.29217 0.0
O215 O 0.51603 0.36957 0.15822 0.0
O216 O 0.47053 0.29954 0.03345 0.0
C217 C 0.45867 0.26835 0.97824 0.0
O218 O 0.39837 0.26012 0.17981 0.0
O219 O 0.43946 0.31567 0.2609 0.0
O220 O 0.48335 0.2936 0.41077 0.0
O221 O 0.40181 0.16978 0.27636 0.0
O222 O 0.36996 0.18473 0.16313 0.0
O223 O 0.42398 0.24562 0.40815 0.0
C224 C 0.58136 0.39962 0.14962 0.0
C225 C 0.58292 0.41636 0.03971 0.0
C226 C 0.64691 0.42159 0.13374 0.0
C227 C 0.61616 0.43568 0.97792 0.0
C228 C 0.61373 0.40241 0.19582 0.0
C229 C 0.64854 0.43871 0.02473 0.0
C230 C 0.54644 0.37992 0.21714 0.0
C231 C 0.40695 0.2928 0.21684 0.0
H232 H 0.33381 0.13976 -0.00147 0.0
H233 H 0.38682 0.06105 0.08485 0.0
H234 H 0.32518 0.09268 0.85532 0.0
H235 H 0.39602 0.10839 0.22686 0.0
H236 H 0.55854 0.41485 0.00174 0.0
H237 H 0.67153 0.42398 0.17303 0.0
H238 H 0.61658 0.44847 0.89377 0.0
H239 H 0.61357 0.39013 0.28078 0.0
C240 C 0.34355 0.27916 0.16997 0.0
C241 C 0.38052 0.30514 0.19133 0.0
H242 H 0.29181 0.2686 0.10106 0.0
C243 C 0.39259 0.3421 0.17071 0.0
H244 H 0.33331 0.2505 0.18652 0.0
C245 C 0.36879 0.35246 0.12013 0.0
C246 C 0.33258 0.32601 0.09004 0.0
H247 H 0.42098 0.36272 0.18592 0.0
H248 H 0.37943 0.38083 0.09781 0.0
C249 C 0.31983 0.28948 0.12028 0.0
C250 C 0.10089 0.33364 0.89253 0.0
C251 C 0.10701 0.36793 0.85629 0.0
H252 H 0.06769 0.28584 -0.00303 0.0
C253 C 0.08048 0.3777 0.88296 0.0
H254 H 0.12104 0.32551 0.8741 0.0
C255 C 1.04991 0.35497 0.95254 0.0
C256 C 1.04538 0.32213 -0.00185 0.0
H257 H 0.08432 0.40383 0.85523 0.0
H258 H 1.03059 0.36387 0.97483 0.0
C259 C 0.07036 0.31096 0.96332 0.0
C260 C 0.74956 0.0816 0.34787 0.0
C261 C 0.78643 0.10701 0.37327 0.0
H262 H 0.71087 1.02748 0.29248 0.0
C263 C 0.81227 0.0953 0.37616 0.0
H264 H 0.72894 0.08973 0.34599 0.0
C265 C 0.80184 0.05944 0.34547 0.0
C266 C 0.76536 0.03467 0.31263 0.0
H267 H 0.84088 0.11425 0.39571 0.0
H268 H 0.82255 0.05143 0.34322 0.0
C269 C 0.73912 0.0458 0.31817 0.0
C270 C 0.76799 0.76818 0.9472 0.0
C271 C 0.75747 0.73149 0.96602 0.0
H272 H 0.7527 0.80907 0.9569 0.0
C273 C 0.72358 0.70836 0.02148 0.0
H274 H 0.79429 0.78688 0.90711 0.0
C275 C 0.69983 0.72122 0.05133 0.0
C276 C 0.70952 0.75734 0.02552 0.0
H277 H 0.71461 0.6799 0.03651 0.0
H278 H 0.67328 0.70242 0.08962 0.0
C279 C 0.74421 0.78092 0.97611 0.0
C280 C 1.04157 0.68992 0.76106 0.0
C281 C 1.04906 0.72429 0.71969 0.0
H282 H 1.0003 0.63523 0.80513 0.0
C283 C 1.01951 0.72956 0.69224 0.0
H284 H 0.06372 0.68486 0.78208 0.0
C285 C 0.98344 0.70114 0.70386 0.0
C286 C 0.97589 0.66677 0.74447 0.0
H287 H 1.02416 0.75585 0.66304 0.0
H288 H 0.96143 0.70636 0.68194 0.0
C289 C 1.00528 0.66143 0.77379 0.0
C290 C 0.37298 1.00732 0.78336 0.0
C291 C 0.33762 0.98264 0.7411 0.0
H292 H 0.40659 0.05586 0.88327 0.0
C293 C 0.30939 0.99083 0.75645 0.0
H294 H 0.39541 1.00198 0.77164 0.0
C295 C 0.31572 1.02152 0.82193 0.0
C296 C 0.35041 0.04458 0.87245 0.0
H297 H 0.2818 0.97227 0.72525 0.0
H298 H 0.29289 1.0259 0.83912 0.0
C299 C 0.37932 0.03801 0.84816 0.0
C300 C 0.23702 0.73793 0.77804 0.0
C301 C 0.27058 0.7609 0.72051 0.0
H302 H 0.19892 0.6841 0.83783 0.0
C303 C 0.29191 0.7461 0.67923 0.0
H304 H 0.22006 0.74845 0.81226 0.0
C305 C 0.27954 0.70897 0.69305 0.0
C306 C 0.24568 0.68591 0.74891 0.0
H307 H 0.31791 0.76305 0.63459 0.0
H308 H 0.29609 0.69819 0.65724 0.0
C309 C 0.2248 0.70095 0.79245 0.0
C310 C 0.57525 0.26565 0.1907 0.0
C311 C 0.53905 0.24069 0.22619 0.0
H312 H 0.63143 0.27849 0.18685 0.0
C313 C 0.53161 0.20757 0.27818 0.0
H314 H 0.58194 0.29143 0.15036 0.0
C315 C 0.5599 0.20016 0.29853 0.0
C316 C 0.59633 0.22571 0.26767 0.0
H317 H 0.50401 0.18756 0.30556 0.0
H318 H 0.55328 0.17452 0.33994 0.0
C319 C 0.60362 0.25821 0.21119 0.0
C320 C 0.3866 0.54143 0.93044 0.0
C321 C 0.4024 0.57698 0.88468 0.0
H322 H 0.33883 0.48883 0.94489 0.0
C323 C 0.38069 0.58616 0.81365 0.0
H324 H 0.40219 0.53355 -0.01251 0.0
C325 C 0.3439 0.56048 0.79039 0.0
C326 C 0.32815 0.52506 0.83733 0.0
H327 H 0.3921 0.6132 0.77599 0.0
H328 H 0.32783 0.56845 0.73616 0.0
C329 C 0.35005 0.5158 0.90672 0.0
C330 C 0.83428 0.3665 0.18329 0.0
C331 C 0.86862 0.38745 0.12735 0.0
H332 H 0.7997 0.31948 0.28891 0.0
C333 C 0.89614 0.37856 0.14734 0.0
H334 H 0.81244 0.37253 0.16937 0.0
C335 C 0.88882 0.34811 0.21537 0.0
C336 C 0.85384 0.32591 0.26552 0.0
H337 H 0.92316 0.39467 0.10801 0.0
H338 H 0.91028 0.34131 0.22509 0.0
C339 C 0.82699 0.33606 0.25191 0.0
C340 C 0.49695 0.81037 0.90483 0.0
C341 C 0.50801 0.84755 0.90735 0.0
H342 H 0.51091 0.76954 0.94235 0.0
C343 C 0.54186 0.87221 0.96013 0.0
H344 H 0.47068 0.79061 0.86712 0.0
C345 C 0.56492 0.86009 0.00437 0.0
C346 C 0.55455 0.82311 -0.00365 0.0
H347 H 0.5512 0.90107 0.96285 0.0
H348 H 0.59145 0.87991 0.04028 0.0
C349 C 0.51995 0.79829 0.94868 0.0
C350 C 0.74523 0.47358 0.90681 0.0
C351 C 0.75496 0.50899 0.87075 0.0
H352 H 0.70373 0.42341 0.98426 0.0
C353 C 0.72861 0.52001 0.87782 0.0
H354 H 0.76504 0.46441 0.90288 0.0
C355 C 0.69368 0.49662 0.92367 0.0
C356 C 0.68437 0.46178 0.96465 0.0
H357 H 0.73523 0.54709 0.85027 0.0
H358 H 0.67444 0.50641 0.93154 0.0
C359 C 0.7103 0.45025 0.95418 0.0
C360 C 0.22919 0.42805 0.35192 0.0
C361 C 0.21395 0.44556 0.41692 0.0
H362 H 0.24261 0.41612 0.17988 0.0
C363 C 0.20116 0.46591 0.35569 0.0
H364 H 0.23937 0.41228 0.39684 0.0
C365 C 0.20364 0.46867 0.2311 0.0
C366 C 0.21827 0.45054 0.1663 0.0
H367 H 0.18964 0.47999 0.40403 0.0
H368 H 0.19335 0.48422 0.18546 0.0
C369 C 0.23107 0.43028 0.22777 0.0
C370 C 0.7886 0.21049 0.93085 0.0
C371 C 0.82033 0.21905 -0.00389 0.0
H372 H 0.7646 0.20386 0.75785 0.0
C373 C 0.85325 0.2289 0.93518 0.0
H374 H 0.76291 0.20284 0.97586 0.0
C375 C 0.85439 0.23006 0.81063 0.0
C376 C 0.82244 0.22069 0.74538 0.0
H377 H 0.87822 0.23599 0.98371 0.0
H378 H 0.88004 0.2376 0.76555 0.0
C379 C 0.78957 0.21095 0.80635 0.0
C380 C 0.65651 0.82148 0.6114 0.0
C381 C 0.63025 0.79062 0.67366 0.0
H382 H 0.67685 0.84617 0.44146 0.0
C383 C 0.60324 0.76057 0.61025 0.0
H384 H 0.67772 0.84506 0.6583 0.0
C385 C 0.60262 0.76141 0.48601 0.0
C386 C 0.62925 0.79208 0.42391 0.0
H387 H 0.58254 0.7366 0.65638 0.0
H388 H 0.58166 0.73777 0.43868 0.0
C389 C 0.65614 0.82216 0.48739 0.0
C390 C 0.87327 0.56115 0.34577 0.0
C391 C 0.86109 0.58128 0.41105 0.0
H392 H 0.88416 0.54707 0.1735 0.0
C393 C 0.85069 0.60366 0.35029 0.0
H394 H 0.88146 0.54373 0.39048 0.0
C395 C 0.85281 0.60608 0.22579 0.0
C396 C 0.86472 0.58565 0.16072 0.0
H397 H 0.8415 0.61974 0.39892 0.0
H398 H 0.84461 0.62342 0.18058 0.0
C399 C 0.8748 0.56309 0.22167 0.0
C400 C 0.3398 0.8806 0.12039 0.0
C401 C 0.30733 0.87067 0.05714 0.0
H402 H 0.36549 0.8899 0.29209 0.0
C403 C 0.27495 0.86126 0.12064 0.0
H404 H 0.36517 0.88816 0.07336 0.0
C405 C 0.27497 0.86159 0.24546 0.0
C406 C 0.30759 0.87222 0.30875 0.0
H407 H 0.24952 0.85338 0.07381 0.0
H408 H 0.24961 0.85413 0.29236 0.0
C409 C 0.34003 0.88182 0.24525 0.0
C410 C 0.48011 0.3002 0.78374 0.0
C411 C 0.45741 0.26809 0.84719 0.0
H412 H 0.49648 0.32577 0.61294 0.0
C413 C 0.43269 0.23646 0.78469 0.0
H414 H 0.49944 0.32496 0.82987 0.0
C415 C 0.43053 0.2371 0.66024 0.0
C416 C 0.45356 0.26919 0.59693 0.0
H417 H 0.41467 0.21144 0.83193 0.0
H418 H 0.41138 0.21238 0.61361 0.0
C419 C 0.47841 0.30067 0.65968 0.0
loop_
_geom_bond_atom_site_label_1
_geom_bond_atom_site_label_2
_geom_bond_distance
_geom_bond_site_symmetry_2
_ccdc_geom_bond_type
Eu0 C9 2.828 1_556 S
Eu0 O11 2.392 . S
Eu0 O13 2.418 . S
Eu0 O18 2.373 . S
Eu0 O21 2.488 . S
Eu0 O22 2.471 1_556 S
Eu0 O23 2.349 1_556 S
Eu1 O10 2.373 . S
Eu1 O14 2.488 . S
Eu1 O15 2.471 1_554 S
Eu1 O16 2.349 1_554 S
Eu1 O19 2.392 . S
Eu1 O20 2.418 . S
Eu1 C30 2.828 1_554 S
C2 O20 1.244 . S
C2 O23 1.265 . S
C3 C4 1.379 . S
C3 C7 1.373 1_554 S
C3 C9 1.505 . S
C4 C3 1.379 . S
C4 C6 1.369 . S
C4 H32 0.930 . S
C5 C7 1.383 . S
C5 C8 1.382 1_556 S
C5 H33 0.930 . S
C6 C4 1.369 . S
C6 C8 1.392 . S
C6 H34 0.930 . S
C7 C3 1.373 1_556 S
C7 C5 1.383 . S
C7 H35 0.931 . S
C8 C5 1.382 1_554 S
C8 C6 1.392 . S
C9 Eu0 2.828 1_554 S
C9 C3 1.505 . S
C9 O21 1.249 1_554 S
C9 O22 1.244 . S
O10 Eu1 2.373 . S
O10 C12 1.258 . S
O11 Eu0 2.392 . S
O11 C12 1.242 1_556 S
C12 O10 1.258 . S
C12 O11 1.242 1_554 S
O13 Eu0 2.418 . S
O13 C17 1.244 . S
O14 Eu1 2.488 . S
O14 C30 1.249 1_554 S
O15 Eu1 2.471 1_556 S
O15 C30 1.244 . S
O16 Eu1 2.349 1_556 S
O16 C17 1.265 . S
C17 O13 1.244 . S
C17 O16 1.265 . S
O18 Eu0 2.373 . S
O18 C31 1.258 . S
O19 Eu1 2.392 . S
O19 C31 1.242 1_554 S
O20 Eu1 2.418 . S
O20 C2 1.244 . S
O21 Eu0 2.488 . S
O21 C9 1.249 1_556 S
O22 Eu0 2.471 1_554 S
O22 C9 1.244 . S
O23 Eu0 2.349 1_554 S
O23 C2 1.265 . S
C24 C25 1.379 . S
C24 C28 1.373 1_556 S
C24 C30 1.505 . S
C25 C24 1.379 . S
C25 C27 1.369 . S
C25 H36 0.930 . S
C26 C28 1.383 . S
C26 C29 1.382 1_554 S
C26 H37 0.930 . S
C27 C25 1.369 . S
C27 C29 1.392 . S
C27 H38 0.930 . S
C28 C24 1.373 1_554 S
C28 C26 1.383 . S
C28 H39 0.931 . S
C29 C26 1.382 1_556 S
C29 C27 1.392 . S
C30 Eu1 2.828 1_556 S
C30 O14 1.249 1_556 S
C30 O15 1.244 . S
C30 C24 1.505 . S
C31 O18 1.258 . S
C31 O19 1.242 1_556 S
H32 C4 0.930 . S
H33 C5 0.930 . S
H34 C6 0.930 . S
H35 C7 0.931 . S
H36 C25 0.930 . S
H37 C26 0.930 . S
H38 C27 0.930 . S
H39 C28 0.931 . S
Eu40 C49 2.828 1_556 S
Eu40 O51 2.392 . S
Eu40 O53 2.418 . S
Eu40 O58 2.373 . S
Eu40 O61 2.488 . S
Eu40 O62 2.471 1_556 S
Eu40 O63 2.349 1_556 S
Eu41 O50 2.373 . S
Eu41 O54 2.488 . S
Eu41 O55 2.471 1_554 S
Eu41 O56 2.349 1_554 S
Eu41 O59 2.392 . S
Eu41 O60 2.418 . S
Eu41 C70 2.828 1_554 S
C42 O60 1.244 . S
C42 O63 1.265 . S
C43 C44 1.379 . S
C43 C47 1.373 1_554 S
C43 C49 1.505 . S
C44 C43 1.379 . S
C44 C46 1.369 . S
C44 H72 0.930 . S
C45 C47 1.383 . S
C45 C48 1.382 1_556 S
C45 H73 0.922 1_655 S
C46 C44 1.369 . S
C46 C48 1.392 . S
C46 H74 0.930 . S
C47 C43 1.373 1_556 S
C47 C45 1.383 . S
C47 H75 0.931 . S
C48 C45 1.382 1_554 S
C48 C46 1.392 . S
C49 Eu40 2.828 1_554 S
C49 C43 1.505 . S
C49 O61 1.249 1_554 S
C49 O62 1.244 . S
O50 Eu41 2.373 . S
O50 C52 1.258 . S
O51 Eu40 2.392 . S
O51 C52 1.242 1_556 S
C52 O50 1.258 . S
C52 O51 1.242 1_554 S
O53 Eu40 2.418 . S
O53 C57 1.244 . S
O54 Eu41 2.488 . S
O54 C70 1.249 1_554 S
O55 Eu41 2.471 1_556 S
O55 C70 1.244 . S
O56 Eu41 2.349 1_556 S
O56 C57 1.265 . S
C57 O53 1.244 . S
C57 O56 1.265 . S
O58 Eu40 2.373 . S
O58 C71 1.258 . S
O59 Eu41 2.392 . S
O59 C71 1.242 1_554 S
O60 Eu41 2.418 . S
O60 C42 1.244 . S
O61 Eu40 2.488 . S
O61 C49 1.249 1_556 S
O62 Eu40 2.471 1_554 S
O62 C49 1.244 . S
O63 Eu40 2.349 1_554 S
O63 C42 1.265 . S
C64 C65 1.379 . S
C64 C68 1.373 1_556 S
C64 C70 1.505 . S
C65 C64 1.379 . S
C65 C67 1.369 . S
C65 H76 0.930 . S
C66 C68 1.383 . S
C66 C69 1.382 1_554 S
C66 H77 0.930 . S
C67 C65 1.369 . S
C67 C69 1.392 . S
C67 H78 0.930 . S
C68 C64 1.373 1_554 S
C68 C66 1.383 . S
C68 H79 0.931 . S
C69 C66 1.382 1_556 S
C69 C67 1.392 . S
C70 Eu41 2.828 1_556 S
C70 O54 1.249 1_556 S
C70 O55 1.244 . S
C70 C64 1.505 . S
C71 O58 1.258 . S
C71 O59 1.242 1_556 S
H72 C44 0.930 . S
H73 C45 0.922 1_455 S
H74 C46 0.930 . S
H75 C47 0.931 . S
H76 C65 0.930 . S
H77 C66 0.930 . S
H78 C67 0.930 . S
H79 C68 0.931 . S
Eu80 C89 2.828 1_556 S
Eu80 O91 2.392 . S
Eu80 O93 2.418 . S
Eu80 O98 2.373 . S
Eu80 O101 2.488 . S
Eu80 O102 2.471 1_556 S
Eu80 O103 2.349 1_556 S
Eu81 O90 2.373 . S
Eu81 O94 2.488 . S
Eu81 O95 2.471 1_554 S
Eu81 O96 2.349 1_554 S
Eu81 O99 2.392 . S
Eu81 O100 2.418 . S
Eu81 C110 2.828 1_554 S
C82 O100 1.244 . S
C82 O103 1.265 . S
C83 C84 1.379 . S
C83 C87 1.373 1_554 S
C83 C89 1.505 . S
C84 C83 1.379 . S
C84 C86 1.369 . S
C84 H112 0.930 . S
C85 C87 1.383 . S
C85 C88 1.382 1_556 S
C85 H113 0.924 1_565 S
C86 C84 1.369 . S
C86 C88 1.392 . S
C86 H114 0.930 . S
C87 C83 1.373 1_556 S
C87 C85 1.383 . S
C87 H115 0.931 . S
C88 C85 1.382 1_554 S
C88 C86 1.392 . S
C89 Eu80 2.828 1_554 S
C89 C83 1.505 . S
C89 O101 1.249 1_554 S
C89 O102 1.244 . S
O90 Eu81 2.373 . S
O90 C92 1.258 . S
O91 Eu80 2.392 . S
O91 C92 1.242 1_556 S
C92 O90 1.258 . S
C92 O91 1.242 1_554 S
O93 Eu80 2.418 . S
O93 C97 1.244 . S
O94 Eu81 2.488 . S
O94 C110 1.249 1_554 S
O95 Eu81 2.471 1_556 S
O95 C110 1.244 . S
O96 Eu81 2.349 1_556 S
O96 C97 1.265 . S
C97 O93 1.244 . S
C97 O96 1.265 . S
O98 Eu80 2.373 . S
O98 C111 1.258 . S
O99 Eu81 2.392 . S
O99 C111 1.242 1_554 S
O100 Eu81 2.418 . S
O100 C82 1.244 . S
O101 Eu80 2.488 . S
O101 C89 1.249 1_556 S
O102 Eu80 2.471 1_554 S
O102 C89 1.244 . S
O103 Eu80 2.349 1_554 S
O103 C82 1.265 . S
C104 C105 1.379 . S
C104 C108 1.373 1_556 S
C104 C110 1.505 . S
C105 C104 1.379 . S
C105 C107 1.369 . S
C105 H116 0.930 . S
C106 C108 1.383 . S
C106 C109 1.382 1_554 S
C106 H117 0.930 . S
C107 C105 1.369 . S
C107 C109 1.392 . S
C107 H118 0.930 . S
C108 C104 1.373 1_554 S
C108 C106 1.383 . S
C108 H119 0.931 . S
C109 C106 1.382 1_556 S
C109 C107 1.392 . S
C110 Eu81 2.828 1_556 S
C110 O94 1.249 1_556 S
C110 O95 1.244 . S
C110 C104 1.505 . S
C111 O98 1.258 . S
C111 O99 1.242 1_556 S
H112 C84 0.930 . S
H113 C85 0.924 1_545 S
H114 C86 0.930 . S
H115 C87 0.931 . S
H116 C105 0.930 . S
H117 C106 0.930 . S
H118 C107 0.930 . S
H119 C108 0.931 . S
Eu120 C129 2.828 1_556 S
Eu120 O131 2.392 . S
Eu120 O133 2.418 . S
Eu120 O138 2.373 . S
Eu120 O141 2.488 . S
Eu120 O142 2.471 1_556 S
Eu120 O143 2.349 1_556 S
Eu121 O130 2.373 . S
Eu121 O134 2.488 . S
Eu121 O135 2.471 1_554 S
Eu121 O136 2.349 1_554 S
Eu121 O139 2.392 . S
Eu121 O140 2.418 . S
Eu121 C150 2.828 1_554 S
C122 O140 1.244 . S
C122 O143 1.265 . S
C123 C124 1.379 . S
C123 C127 1.373 1_554 S
C123 C129 1.505 . S
C124 C123 1.379 . S
C124 C126 1.369 . S
C124 H152 0.930 . S
C125 C127 1.383 . S
C125 C128 1.382 1_556 S
C125 H153 0.930 . S
C126 C124 1.369 . S
C126 C128 1.392 . S
C126 H154 0.930 . S
C127 C123 1.373 1_556 S
C127 C125 1.383 . S
C127 H155 0.931 . S
C128 C125 1.382 1_554 S
C128 C126 1.392 . S
C129 Eu120 2.828 1_554 S
C129 C123 1.505 . S
C129 O141 1.249 1_554 S
C129 O142 1.244 . S
O130 Eu121 2.373 . S
O130 C132 1.258 . S
O131 Eu120 2.392 . S
O131 C132 1.242 1_556 S
C132 O130 1.258 . S
C132 O131 1.242 1_554 S
O133 Eu120 2.418 . S
O133 C137 1.244 . S
O134 Eu121 2.488 . S
O134 C150 1.249 1_554 S
O135 Eu121 2.471 1_556 S
O135 C150 1.244 . S
O136 Eu121 2.349 1_556 S
O136 C137 1.265 . S
C137 O133 1.244 . S
C137 O136 1.265 . S
O138 Eu120 2.373 . S
O138 C151 1.258 . S
O139 Eu121 2.392 . S
O139 C151 1.242 1_554 S
O140 Eu121 2.418 . S
O140 C122 1.244 . S
O141 Eu120 2.488 . S
O141 C129 1.249 1_556 S
O142 Eu120 2.471 1_554 S
O142 C129 1.244 . S
O143 Eu120 2.349 1_554 S
O143 C122 1.265 . S
C144 C145 1.379 . S
C144 C148 1.373 1_556 S
C144 C150 1.505 . S
C145 C144 1.379 . S
C145 C147 1.369 . S
C145 H156 0.930 . S
C146 C148 1.383 . S
C146 C149 1.382 1_554 S
C146 H157 0.930 . S
C147 C145 1.369 . S
C147 C149 1.392 . S
C147 H158 0.930 . S
C148 C144 1.373 1_554 S
C148 C146 1.383 . S
C148 H159 0.931 . S
C149 C146 1.382 1_556 S
C149 C147 1.392 . S
C150 Eu121 2.828 1_556 S
C150 O134 1.249 1_556 S
C150 O135 1.244 . S
C150 C144 1.505 . S
C151 O138 1.258 . S
C151 O139 1.242 1_556 S
H152 C124 0.930 . S
H153 C125 0.930 . S
H154 C126 0.930 . S
H155 C127 0.931 . S
H156 C145 0.930 . S
H157 C146 0.930 . S
H158 C147 0.930 . S
H159 C148 0.931 . S
Eu160 C169 2.828 1_556 S
Eu160 O171 2.392 . S
Eu160 O173 2.418 . S
Eu160 O178 2.373 . S
Eu160 O181 2.488 . S
Eu160 O182 2.471 1_556 S
Eu160 O183 2.349 1_556 S
Eu161 O170 2.373 . S
Eu161 O174 2.488 . S
Eu161 O175 2.471 1_554 S
Eu161 O176 2.349 1_554 S
Eu161 O179 2.392 . S
Eu161 O180 2.418 . S
Eu161 C190 2.828 1_554 S
C162 O180 1.244 . S
C162 O183 1.265 . S
C163 C164 1.379 . S
C163 C167 1.373 1_554 S
C163 C169 1.505 . S
C164 C163 1.379 . S
C164 C166 1.369 . S
C164 H192 0.930 . S
C165 C167 1.383 . S
C165 C168 1.382 1_556 S
C165 H193 0.922 1_455 S
C166 C164 1.369 . S
C166 C168 1.392 . S
C166 H194 0.930 . S
C167 C163 1.373 1_556 S
C167 C165 1.383 . S
C167 H195 0.931 . S
C168 C165 1.382 1_554 S
C168 C166 1.392 . S
C169 Eu160 2.828 1_554 S
C169 C163 1.505 . S
C169 O181 1.249 1_554 S
C169 O182 1.244 . S
O170 Eu161 2.373 . S
O170 C172 1.258 . S
O171 Eu160 2.392 . S
O171 C172 1.242 1_556 S
C172 O170 1.258 . S
C172 O171 1.242 1_554 S
O173 Eu160 2.418 . S
O173 C177 1.244 . S
O174 Eu161 2.488 . S
O174 C190 1.249 1_554 S
O175 Eu161 2.471 1_556 S
O175 C190 1.244 . S
O176 Eu161 2.349 1_556 S
O176 C177 1.265 . S
C177 O173 1.244 . S
C177 O176 1.265 . S
O178 Eu160 2.373 . S
O178 C191 1.258 . S
O179 Eu161 2.392 . S
O179 C191 1.242 1_554 S
O180 Eu161 2.418 . S
O180 C162 1.244 . S
O181 Eu160 2.488 . S
O181 C169 1.249 1_556 S
O182 Eu160 2.471 1_554 S
O182 C169 1.244 . S
O183 Eu160 2.349 1_554 S
O183 C162 1.265 . S
C184 C185 1.379 . S
C184 C188 1.373 1_556 S
C184 C190 1.505 . S
C185 C184 1.379 . S
C185 C187 1.369 . S
C185 H196 0.930 . S
C186 C188 1.383 . S
C186 C189 1.382 1_554 S
C186 H197 0.930 . S
C187 C185 1.369 . S
C187 C189 1.392 . S
C187 H198 0.930 . S
C188 C184 1.373 1_554 S
C188 C186 1.383 . S
C188 H199 0.931 . S
C189 C186 1.382 1_556 S
C189 C187 1.392 . S
C190 Eu161 2.828 1_556 S
C190 O174 1.249 1_556 S
C190 O175 1.244 . S
C190 C184 1.505 . S
C191 O178 1.258 . S
C191 O179 1.242 1_556 S
H192 C164 0.930 . S
H193 C165 0.922 1_655 S
H194 C166 0.930 . S
H195 C167 0.931 . S
H196 C185 0.930 . S
H197 C186 0.930 . S
H198 C187 0.930 . S
H199 C188 0.931 . S
Eu200 C209 2.828 1_556 S
Eu200 O211 2.392 . S
Eu200 O213 2.418 . S
Eu200 O218 2.373 . S
Eu200 O221 2.488 . S
Eu200 O222 2.471 1_556 S
Eu200 O223 2.349 1_556 S
Eu201 O210 2.373 . S
Eu201 O214 2.488 . S
Eu201 O215 2.471 1_554 S
Eu201 O216 2.349 1_554 S
Eu201 O219 2.392 . S
Eu201 O220 2.418 . S
Eu201 C230 2.828 1_554 S
C202 O220 1.244 . S
C202 O223 1.265 . S
C203 C204 1.379 . S
C203 C207 1.373 1_554 S
C203 C209 1.505 . S
C204 C203 1.379 . S
C204 C206 1.369 . S
C204 H232 0.930 . S
C205 C207 1.383 . S
C205 C208 1.382 1_556 S
C205 H233 0.924 1_545 S
C206 C204 1.369 . S
C206 C208 1.392 . S
C206 H234 0.930 . S
C207 C203 1.373 1_556 S
C207 C205 1.383 . S
C207 H235 0.931 . S
C208 C205 1.382 1_554 S
C208 C206 1.392 . S
C209 Eu200 2.828 1_554 S
C209 C203 1.505 . S
C209 O221 1.249 1_554 S
C209 O222 1.244 . S
O210 Eu201 2.373 . S
O210 C212 1.258 . S
O211 Eu200 2.392 . S
O211 C212 1.242 1_556 S
C212 O210 1.258 . S
C212 O211 1.242 1_554 S
O213 Eu200 2.418 . S
O213 C217 1.244 . S
O214 Eu201 2.488 . S
O214 C230 1.249 1_554 S
O215 Eu201 2.471 1_556 S
O215 C230 1.244 . S
O216 Eu201 2.349 1_556 S
O216 C217 1.265 . S
C217 O213 1.244 . S
C217 O216 1.265 . S
O218 Eu200 2.373 . S
O218 C231 1.258 . S
O219 Eu201 2.392 . S
O219 C231 1.242 1_554 S
O220 Eu201 2.418 . S
O220 C202 1.244 . S
O221 Eu200 2.488 . S
O221 C209 1.249 1_556 S
O222 Eu200 2.471 1_554 S
O222 C209 1.244 . S
O223 Eu200 2.349 1_554 S
O223 C202 1.265 . S
C224 C225 1.379 . S
C224 C228 1.373 1_556 S
C224 C230 1.505 . S
C225 C224 1.379 . S
C225 C227 1.369 . S
C225 H236 0.930 . S
C226 C228 1.383 . S
C226 C229 1.382 1_554 S
C226 H237 0.930 . S
C227 C225 1.369 . S
C227 C229 1.392 . S
C227 H238 0.930 . S
C228 C224 1.373 1_554 S
C228 C226 1.383 . S
C228 H239 0.931 . S
C229 C226 1.382 1_556 S
C229 C227 1.392 . S
C230 Eu201 2.828 1_556 S
C230 O214 1.249 1_556 S
C230 O215 1.244 . S
C230 C224 1.505 . S
C231 O218 1.258 . S
C231 O219 1.242 1_556 S
H232 C204 0.930 . S
H233 C205 0.924 1_565 S
H234 C206 0.930 . S
H235 C207 0.931 . S
H236 C225 0.930 . S
H237 C226 0.930 . S
H238 C227 0.930 . S
H239 C228 0.931 . S
C240 C241 1.387 . S
C240 H244 0.950 . S
C240 C249 1.390 . S
C241 C240 1.387 . S
C241 C243 1.387 1_554 S
H242 C249 0.950 . S
C243 C241 1.387 1_556 S
C243 C245 1.390 1_556 S
C243 H247 0.950 . S
H244 C240 0.950 . S
C245 C243 1.390 1_554 S
C245 C246 1.387 . S
C245 H248 0.950 . S
C246 C245 1.387 . S
C246 C249 1.387 . S
H247 C243 0.950 . S
H248 C245 0.950 . S
C249 C240 1.390 . S
C249 H242 0.950 . S
C249 C246 1.387 . S
C250 C251 1.387 . S
C250 H254 0.950 . S
C250 C259 1.390 . S
C251 C250 1.387 . S
C251 C253 1.387 1_554 S
H252 C259 0.950 . S
C253 C251 1.387 1_556 S
C253 C255 1.390 . S
C253 H257 0.950 . S
H254 C250 0.950 . S
C255 C253 1.390 . S
C255 C256 1.387 1_556 S
C255 H258 0.950 . S
C256 C255 1.387 1_554 S
C256 C259 1.387 . S
H257 C253 0.950 . S
H258 C255 0.950 . S
C259 C250 1.390 . S
C259 H252 0.950 . S
C259 C256 1.387 . S
C260 C261 1.387 . S
C260 H264 0.950 . S
C260 C269 1.390 . S
C261 C260 1.387 . S
C261 C263 1.387 1_554 S
H262 C269 0.950 . S
C263 C261 1.387 1_556 S
C263 C265 1.390 . S
C263 H267 0.950 . S
H264 C260 0.950 . S
C265 C263 1.390 . S
C265 C266 1.387 1_556 S
C265 H268 0.950 . S
C266 C265 1.387 1_554 S
C266 C269 1.387 . S
H267 C263 0.950 . S
H268 C265 0.950 . S
C269 C260 1.390 . S
C269 H262 0.950 . S
C269 C266 1.387 . S
C270 C271 1.387 1_556 S
C270 H274 0.950 . S
C270 C279 1.390 . S
C271 C270 1.387 1_554 S
C271 C273 1.387 . S
H272 C279 0.950 . S
C273 C271 1.387 . S
C273 C275 1.390 . S
C273 H277 0.950 . S
H274 C270 0.950 . S
C275 C273 1.390 . S
C275 C276 1.387 . S
C275 H278 0.950 . S
C276 C275 1.387 . S
C276 C279 1.387 1_554 S
H277 C273 0.950 . S
H278 C275 0.950 . S
C279 C270 1.390 . S
C279 H272 0.950 . S
C279 C276 1.387 1_556 S
C280 C281 1.387 . S
C280 H284 0.950 . S
C280 C289 1.390 . S
C281 C280 1.387 . S
C281 C283 1.387 1_554 S
H282 C289 0.950 . S
C283 C281 1.387 1_556 S
C283 C285 1.390 . S
C283 H287 0.950 . S
H284 C280 0.950 . S
C285 C283 1.390 . S
C285 C286 1.387 1_556 S
C285 H288 0.950 . S
C286 C285 1.387 1_554 S
C286 C289 1.387 . S
H287 C283 0.950 . S
H288 C285 0.950 . S
C289 C280 1.390 . S
C289 H282 0.950 . S
C289 C286 1.387 . S
C290 C291 1.387 1_556 S
C290 H294 0.950 . S
C290 C299 1.390 . S
C291 C290 1.387 1_554 S
C291 C293 1.387 . S
H292 C299 0.950 . S
C293 C291 1.387 . S
C293 C295 1.390 . S
C293 H297 0.950 . S
H294 C290 0.950 . S
C295 C293 1.390 . S
C295 C296 1.387 . S
C295 H298 0.950 . S
C296 C295 1.387 . S
C296 C299 1.387 1_554 S
H297 C293 0.950 . S
H298 C295 0.950 . S
C299 C290 1.390 . S
C299 H292 0.950 . S
C299 C296 1.387 1_556 S
C300 C301 1.387 . S
C300 H304 0.950 . S
C300 C309 1.390 . S
C301 C300 1.387 . S
C301 C303 1.387 1_556 S
H302 C309 0.950 . S
C303 C301 1.387 1_554 S
C303 C305 1.390 . S
C303 H307 0.950 . S
H304 C300 0.950 . S
C305 C303 1.390 . S
C305 C306 1.387 1_554 S
C305 H308 0.950 . S
C306 C305 1.387 1_556 S
C306 C309 1.387 . S
H307 C303 0.950 . S
H308 C305 0.950 . S
C309 C300 1.390 . S
C309 H302 0.950 . S
C309 C306 1.387 . S
C310 C311 1.387 . S
C310 H314 0.950 1_556 S
C310 C319 1.390 . S
C311 C310 1.387 . S
C311 C313 1.387 . S
H312 C319 0.950 . S
C313 C311 1.387 . S
C313 C315 1.390 . S
C313 H317 0.950 . S
H314 C310 0.950 1_554 S
C315 C313 1.390 . S
C315 C316 1.387 . S
C315 H318 0.950 . S
C316 C315 1.387 . S
C316 C319 1.387 . S
H317 C313 0.950 . S
H318 C315 0.950 . S
C319 C310 1.390 . S
C319 H312 0.950 . S
C319 C316 1.387 . S
C320 C321 1.387 1_554 S
C320 H324 0.950 . S
C320 C329 1.390 . S
C321 C320 1.387 1_556 S
C321 C323 1.387 . S
H322 C329 0.950 . S
C323 C321 1.387 . S
C323 C325 1.390 . S
C323 H327 0.950 . S
H324 C320 0.950 . S
C325 C323 1.390 . S
C325 C326 1.387 . S
C325 H328 0.950 . S
C326 C325 1.387 . S
C326 C329 1.387 1_556 S
H327 C323 0.950 . S
H328 C325 0.950 . S
C329 C320 1.390 . S
C329 H322 0.950 . S
C329 C326 1.387 1_554 S
C330 C331 1.387 1_554 S
C330 H334 0.950 . S
C330 C339 1.390 . S
C331 C330 1.387 1_556 S
C331 C333 1.387 . S
H332 C339 0.950 . S
C333 C331 1.387 . S
C333 C335 1.390 . S
C333 H337 0.950 . S
H334 C330 0.950 . S
C335 C333 1.390 . S
C335 C336 1.387 . S
C335 H338 0.950 . S
C336 C335 1.387 . S
C336 C339 1.387 1_556 S
H337 C333 0.950 . S
H338 C335 0.950 . S
C339 C330 1.390 . S
C339 H332 0.950 . S
C339 C336 1.387 1_554 S
C340 C341 1.387 . S
C340 H344 0.950 . S
C340 C349 1.390 . S
C341 C340 1.387 . S
C341 C343 1.387 . S
H342 C349 0.950 . S
C343 C341 1.387 . S
C343 C345 1.390 . S
C343 H347 0.950 . S
H344 C340 0.950 . S
C345 C343 1.390 . S
C345 C346 1.387 . S
C345 H348 0.950 1_556 S
C346 C345 1.387 . S
C346 C349 1.387 . S
H347 C343 0.950 . S
H348 C345 0.950 1_554 S
C349 C340 1.390 . S
C349 H342 0.950 . S
C349 C346 1.387 . S
C350 C351 1.387 1_554 S
C350 H354 0.950 . S
C350 C359 1.390 . S
C351 C350 1.387 1_556 S
C351 C353 1.387 . S
H352 C359 0.950 . S
C353 C351 1.387 . S
C353 C355 1.390 . S
C353 H357 0.950 . S
H354 C350 0.950 . S
C355 C353 1.390 . S
C355 C356 1.387 . S
C355 H358 0.950 . S
C356 C355 1.387 . S
C356 C359 1.387 1_556 S
H357 C353 0.950 . S
H358 C355 0.950 . S
C359 C350 1.390 . S
C359 H352 0.950 . S
C359 C356 1.387 1_554 S
C360 C361 1.387 . S
C360 H364 0.950 . S
C360 C369 1.390 . S
C361 C360 1.387 . S
C361 C363 1.387 . S
H362 C369 0.950 . S
C363 C361 1.387 . S
C363 C365 1.390 . S
C363 H367 0.950 . S
H364 C360 0.950 . S
C365 C363 1.390 . S
C365 C366 1.387 . S
C365 H368 0.950 . S
C366 C365 1.387 . S
C366 C369 1.387 . S
H367 C363 0.950 . S
H368 C365 0.950 . S
C369 C360 1.390 . S
C369 H362 0.950 . S
C369 C366 1.387 . S
C370 C371 1.387 . S
C370 H374 0.950 . S
C370 C379 1.390 . S
C371 C370 1.387 . S
C371 C373 1.387 . S
H372 C379 0.950 . S
C373 C371 1.387 . S
C373 C375 1.390 . S
C373 H377 0.950 . S
H374 C370 0.950 . S
C375 C373 1.390 . S
C375 C376 1.387 . S
C375 H378 0.950 . S
C376 C375 1.387 . S
C376 C379 1.387 . S
H377 C373 0.950 . S
H378 C375 0.950 . S
C379 C370 1.390 . S
C379 H372 0.950 . S
C379 C376 1.387 . S
C380 C381 1.387 . S
C380 H384 0.950 . S
C380 C389 1.390 . S
C381 C380 1.387 . S
C381 C383 1.387 . S
H382 C389 0.950 . S
C383 C381 1.387 . S
C383 C385 1.390 . S
C383 H387 0.950 . S
H384 C380 0.950 . S
C385 C383 1.390 . S
C385 C386 1.387 . S
C385 H388 0.950 . S
C386 C385 1.387 . S
C386 C389 1.387 . S
H387 C383 0.950 . S
H388 C385 0.950 . S
C389 C380 1.390 . S
C389 H382 0.950 . S
C389 C386 1.387 . S
C390 C391 1.387 . S
C390 H394 0.950 . S
C390 C399 1.390 . S
C391 C390 1.387 . S
C391 C393 1.387 . S
H392 C399 0.950 . S
C393 C391 1.387 . S
C393 C395 1.390 . S
C393 H397 0.950 . S
H394 C390 0.950 . S
C395 C393 1.390 . S
C395 C396 1.387 . S
C395 H398 0.950 . S
C396 C395 1.387 . S
C396 C399 1.387 . S
H397 C393 0.950 . S
H398 C395 0.950 . S
C399 C390 1.390 . S
C399 H392 0.950 . S
C399 C396 1.387 . S
C400 C401 1.387 . S
C400 H404 0.950 . S
C400 C409 1.390 . S
C401 C400 1.387 . S
C401 C403 1.387 . S
H402 C409 0.950 . S
C403 C401 1.387 . S
C403 C405 1.390 . S
C403 H407 0.950 . S
H404 C400 0.950 . S
C405 C403 1.390 . S
C405 C406 1.387 . S
C405 H408 0.950 . S
C406 C405 1.387 . S
C406 C409 1.387 . S
H407 C403 0.950 . S
H408 C405 0.950 . S
C409 C400 1.390 . S
C409 H402 0.950 . S
C409 C406 1.387 . S
C410 C411 1.387 . S
C410 H414 0.950 . S
C410 C419 1.390 . S
C411 C410 1.387 . S
C411 C413 1.387 . S
H412 C419 0.950 . S
C413 C411 1.387 . S
C413 C415 1.390 . S
C413 H417 0.950 . S
H414 C410 0.950 . S
C415 C413 1.390 . S
C415 C416 1.387 . S
C415 H418 0.950 . S
C416 C415 1.387 . S
C416 C419 1.387 . S
H417 C413 0.950 . S
H418 C415 0.950 . S
C419 C410 1.390 . S
C419 H412 0.950 . S
C419 C416 1.387 . S
C241 C231 2.286 1_554 S
C246 C8 1.857 . S
C251 C31 2.286 1_554 S
C256 C48 1.855 1_455 S
C261 C71 2.286 1_554 S
C266 C88 1.855 1_545 S
C271 C128 1.859 . S
C276 C111 2.286 1_554 S
C281 C168 1.855 1_655 S
C286 C151 2.286 1_554 S
C291 C191 2.286 1_554 S
C296 C208 1.860 1_565 S
C301 C172 1.867 1_556 S
C306 C29 1.838 . S
C311 C212 1.867 1_556 S
C316 C69 1.837 . S
C321 C109 1.837 . S
C326 C12 1.868 1_556 S
C331 C149 1.837 . S
C336 C52 1.867 1_556 S
C341 C189 1.837 . S
C346 C92 1.867 1_556 S
C351 C132 1.867 1_556 S
C356 C229 1.837 . S
C361 C17 1.450 . S
C366 C2 1.450 . S
C371 C57 1.450 . S
C376 C42 1.450 . S
C381 C97 1.453 . S
C386 C82 1.453 . S
C391 C137 1.452 . S
C396 C122 1.452 . S
C401 C162 1.450 . S
C406 C177 1.450 . S
C411 C217 1.450 . S
C416 C202 1.450 . S
