# Generated by pormake.
# Topology snw, (6)-cn, num edge types: 1
# Building blocks:
#     Node 0, Type 0, BuildingBlock: OJICUG_clean_sbu_0, # of connection points: 6
#     Node 1, Type 0, BuildingBlock: OJICUG_clean_sbu_0, # of connection points: 6
#     Node 2, Type 0, BuildingBlock: OJICUG_clean_sbu_0, # of connection points: 6
#     Node 3, Type 0, BuildingBlock: OJICUG_clean_sbu_0, # of connection points: 6
#     Node 4, Type 0, BuildingBlock: OJICUG_clean_sbu_0, # of connection points: 6
#     Node 5, Type 0, BuildingBlock: OJICUG_clean_sbu_0, # of connection points: 6
#     Node 6, Type 0, BuildingBlock: OJICUG_clean_sbu_0, # of connection points: 6
#     Node 7, Type 0, BuildingBlock: OJICUG_clean_sbu_0, # of connection points: 6
#     Edge 8, Type (0, 0), BuildingBlock: KIFKEQ_clean_linker_1, # of connection points: 2
#     Edge 9, Type (0, 0), BuildingBlock: KIFKEQ_clean_linker_1, # of connection points: 2
#     Edge 10, Type (0, 0), BuildingBlock: KIFKEQ_clean_linker_1, # of connection points: 2
#     Edge 11, Type (0, 0), BuildingBlock: KIFKEQ_clean_linker_1, # of connection points: 2
#     Edge 12, Type (0, 0), BuildingBlock: KIFKEQ_clean_linker_1, # of connection points: 2
#     Edge 13, Type (0, 0), BuildingBlock: KIFKEQ_clean_linker_1, # of connection points: 2
#     Edge 14, Type (0, 0), BuildingBlock: KIFKEQ_clean_linker_1, # of connection points: 2
#     Edge 15, Type (0, 0), BuildingBlock: KIFKEQ_clean_linker_1, # of connection points: 2
#     Edge 16, Type (0, 0), BuildingBlock: KIFKEQ_clean_linker_1, # of connection points: 2
#     Edge 17, Type (0, 0), BuildingBlock: KIFKEQ_clean_linker_1, # of connection points: 2
#     Edge 18, Type (0, 0), BuildingBlock: KIFKEQ_clean_linker_1, # of connection points: 2
#     Edge 19, Type (0, 0), BuildingBlock: KIFKEQ_clean_linker_1, # of connection points: 2
#     Edge 20, Type (0, 0), BuildingBlock: KIFKEQ_clean_linker_1, # of connection points: 2
#     Edge 21, Type (0, 0), BuildingBlock: KIFKEQ_clean_linker_1, # of connection points: 2
#     Edge 22, Type (0, 0), BuildingBlock: KIFKEQ_clean_linker_1, # of connection points: 2
#     Edge 23, Type (0, 0), BuildingBlock: KIFKEQ_clean_linker_1, # of connection points: 2
#     Edge 24, Type (0, 0), BuildingBlock: KIFKEQ_clean_linker_1, # of connection points: 2
#     Edge 25, Type (0, 0), BuildingBlock: KIFKEQ_clean_linker_1, # of connection points: 2
#     Edge 26, Type (0, 0), BuildingBlock: KIFKEQ_clean_linker_1, # of connection points: 2
#     Edge 27, Type (0, 0), BuildingBlock: KIFKEQ_clean_linker_1, # of connection points: 2
#     Edge 28, Type (0, 0), BuildingBlock: KIFKEQ_clean_linker_1, # of connection points: 2
#     Edge 29, Type (0, 0), BuildingBlock: KIFKEQ_clean_linker_1, # of connection points: 2
#     Edge 30, Type (0, 0), BuildingBlock: KIFKEQ_clean_linker_1, # of connection points: 2
#     Edge 31, Type (0, 0), BuildingBlock: KIFKEQ_clean_linker_1, # of connection points: 2
# Relax obj value: 0.000
# Max RMSD: 0.008
# Mean RMSD: 0.008
data_MOF--net-snw--node1-OJICUG_clean_sbu_0--edge1-KIFKEQ_clean_linker_1
_symmetry_space_group_name_H-M    P1
_symmetry_Int_Tables_number       1
_symmetry_cell_setting            triclinic
loop_
_symmetry_equiv_pos_as_xyz
'x, y, z'
_cell_length_a     22.221053
_cell_length_b     22.219212
_cell_length_c     75.821443
_cell_angle_alpha  89.989895
_cell_angle_beta   90.035624
_cell_angle_gamma 89.967082
loop_
_atom_site_label
_atom_site_type_symbol
_atom_site_fract_x
_atom_site_fract_y
_atom_site_fract_z
_atom_type_partial_charge
Sc0 Sc 0.07037 0.24462 0.06465 0.0
Sc1 Sc 0.91187 0.24293 0.06445 0.0
Sc2 Sc 0.99072 0.24335 0.10488 0.0
O3 O 0.99097 0.24363 0.078 0.0
C4 C 0.09932 0.15347 0.09608 0.0
C5 C 0.9918 0.15462 0.04111 0.0
C6 C 0.8829 0.15292 0.09625 0.0
C7 C 0.99107 0.33385 0.0414 0.0
C8 C 0.0988 0.3338 0.09669 0.0
C9 C 0.88214 0.33324 0.09604 0.0
O10 O 0.10793 0.17373 0.0806 0.0
O11 O 0.94124 0.17257 0.04693 0.0
O12 O 0.92415 0.17277 0.10633 0.0
O13 O 0.04142 0.31558 0.0473 0.0
O14 O 0.05726 0.31393 0.10664 0.0
O15 O 0.87378 0.31325 0.08051 0.0
O16 O 0.10878 0.31262 0.0814 0.0
O17 O 0.94108 0.31128 0.04617 0.0
O18 O 0.92216 0.31211 0.10634 0.0
O19 O 0.04159 0.17703 0.04611 0.0
O20 O 0.05924 0.17453 0.10636 0.0
O21 O 0.87321 0.17429 0.08096 0.0
Sc22 Sc 0.99139 0.82372 0.31486 0.0
Sc23 Sc 0.99154 0.66514 0.31481 0.0
Sc24 Sc 0.99138 0.74429 0.35517 0.0
O25 O 0.99144 0.74439 0.32828 0.0
C26 C 0.08159 0.85255 0.34659 0.0
C27 C 0.08109 0.74439 0.29156 0.0
C28 C 0.08151 0.63597 0.3466 0.0
C29 C 0.90197 0.74449 0.29149 0.0
C30 C 0.90124 0.85265 0.34659 0.0
C31 C 0.90117 0.63615 0.34645 0.0
O32 O 0.06094 0.86172 0.33118 0.0
O33 O 0.06073 0.69416 0.29691 0.0
O34 O 0.06108 0.67677 0.35674 0.0
O35 O 0.92173 0.7948 0.29699 0.0
O36 O 0.92166 0.8118 0.35672 0.0
O37 O 0.92188 0.62709 0.33105 0.0
O38 O 0.92199 0.86195 0.3312 0.0
O39 O 0.92271 0.69428 0.29676 0.0
O40 O 0.92172 0.67671 0.35666 0.0
O41 O 0.0609 0.79468 0.29695 0.0
O42 O 0.06103 0.81189 0.35675 0.0
O43 O 0.06082 0.6268 0.3312 0.0
Sc44 Sc 0.57431 0.74381 0.56488 0.0
Sc45 Sc 0.416 0.74485 0.56525 0.0
Sc46 Sc 0.49636 0.74186 0.60539 0.0
O47 O 0.49555 0.74352 0.57852 0.0
C48 C 0.60358 0.65205 0.59636 0.0
C49 C 0.49482 0.65532 0.54158 0.0
C50 C 0.38668 0.6534 0.59648 0.0
C51 C 0.49418 0.83439 0.54195 0.0
C52 C 0.60473 0.83211 0.59669 0.0
C53 C 0.38912 0.83347 0.59758 0.0
O54 O 0.61443 0.67598 0.58146 0.0
O55 O 0.44505 0.67829 0.54641 0.0
O56 O 0.42629 0.67482 0.60684 0.0
O57 O 0.54415 0.81116 0.54646 0.0
O58 O 0.56701 0.80832 0.6072 0.0
O59 O 0.37799 0.8118 0.58241 0.0
O60 O 0.61096 0.8154 0.58075 0.0
O61 O 0.44405 0.81685 0.54814 0.0
O62 O 0.43146 0.81398 0.60735 0.0
O63 O 0.54537 0.67262 0.5476 0.0
O64 O 0.56105 0.66966 0.60632 0.0
O65 O 0.37881 0.67302 0.58089 0.0
Sc66 Sc 0.49579 0.32208 0.81489 0.0
Sc67 Sc 0.49335 0.16364 0.81463 0.0
Sc68 Sc 0.49775 0.24198 0.8551 0.0
O69 O 0.49561 0.24256 0.82821 0.0
C70 C 0.58683 0.35084 0.84638 0.0
C71 C 0.58316 0.24238 0.79113 0.0
C72 C 0.58683 0.13396 0.84558 0.0
C73 C 0.40389 0.24431 0.79182 0.0
C74 C 0.40665 0.34999 0.84696 0.0
C75 C 0.40659 0.13429 0.84699 0.0
O76 O 0.56564 0.36014 0.83106 0.0
O77 O 0.56141 0.19235 0.79621 0.0
O78 O 0.568 0.17506 0.85588 0.0
O79 O 0.42613 0.29408 0.7969 0.0
O80 O 0.42763 0.30916 0.85703 0.0
O81 O 0.4244 0.12626 0.83125 0.0
O82 O 0.42677 0.35955 0.8315 0.0
O83 O 0.4228 0.1937 0.79732 0.0
O84 O 0.42927 0.17354 0.85722 0.0
O85 O 0.56479 0.29282 0.79693 0.0
O86 O 0.56687 0.30988 0.85651 0.0
O87 O 0.56391 0.12442 0.83046 0.0
Sc88 Sc -0.00286 0.7413 0.88325 0.0
Sc89 Sc 0.0749 0.74308 0.92382 0.0
Sc90 Sc 0.91662 0.74468 0.92332 0.0
O91 O -0.00379 0.74304 0.91012 0.0
C92 C 0.8897 0.83285 0.89084 0.0
C93 C 0.1054 0.83155 0.89208 0.0
C94 C -0.0052 0.83404 0.94664 0.0
C95 C 0.10446 0.65156 0.89231 0.0
C96 C 0.88759 0.65281 0.8922 0.0
C97 C -0.00487 0.65495 0.94708 0.0
O98 O 0.93216 0.81334 0.88114 0.0
O99 O 0.11156 0.81476 0.90801 0.0
O100 O 0.94469 0.81691 0.94033 0.0
O101 O 0.06189 0.66915 0.88235 0.0
O102 O 0.87964 0.67263 0.90775 0.0
O103 O 0.04575 0.67177 0.94102 0.0
O104 O 0.92714 0.67418 0.88182 0.0
O105 O 0.11523 0.67538 0.90722 0.0
O106 O 0.94551 0.67837 0.94228 0.0
O107 O 0.06777 0.8078 0.88151 0.0
O108 O 0.87856 0.81137 0.90603 0.0
O109 O 0.04469 0.81034 0.94227 0.0
Sc110 Sc 0.49083 0.74335 0.13351 0.0
Sc111 Sc 0.49111 0.82301 0.17377 0.0
Sc112 Sc 0.49126 0.66443 0.17393 0.0
O113 O 0.49108 0.7436 0.1604 0.0
C114 C 0.40063 0.6353 0.14232 0.0
C115 C 0.40078 0.8518 0.14205 0.0
C116 C 0.40184 0.74394 0.19721 0.0
C117 C 0.58113 0.85162 0.142 0.0
C118 C 0.58096 0.63499 0.14212 0.0
C119 C 0.58095 0.74385 0.1971 0.0
O120 O 0.42109 0.67583 0.1321 0.0
O121 O 0.4216 0.86113 0.15743 0.0
O122 O 0.42253 0.69369 0.19197 0.0
O123 O 0.56054 0.81087 0.13187 0.0
O124 O 0.56044 0.62596 0.15755 0.0
O125 O 0.56073 0.7941 0.19168 0.0
O126 O 0.56044 0.67573 0.13197 0.0
O127 O 0.56054 0.86091 0.1574 0.0
O128 O 0.56057 0.69357 0.1918 0.0
O129 O 0.42116 0.81092 0.13193 0.0
O130 O 0.42149 0.62627 0.15772 0.0
O131 O 0.42158 0.7942 0.19168 0.0
Sc132 Sc 0.49141 0.24425 0.38377 0.0
Sc133 Sc 0.57101 0.24512 0.42405 0.0
Sc134 Sc 0.41252 0.24371 0.42416 0.0
O135 O 0.49164 0.24435 0.41065 0.0
C136 C 0.38298 0.33427 0.39261 0.0
C137 C 0.59959 0.3345 0.39206 0.0
C138 C 0.49183 0.33429 0.44729 0.0
C139 C 0.5999 0.15417 0.39258 0.0
C140 C 0.38345 0.15394 0.3923 0.0
C141 C 0.49218 0.15511 0.4475 0.0
O142 O 0.42291 0.31308 0.3823 0.0
O143 O 0.60958 0.31315 0.40734 0.0
O144 O 0.44183 0.3118 0.44249 0.0
O145 O 0.5599 0.17539 0.38228 0.0
O146 O 0.37374 0.17531 0.40759 0.0
O147 O 0.54204 0.17748 0.44254 0.0
O148 O 0.42479 0.17372 0.38226 0.0
O149 O 0.60846 0.17425 0.40809 0.0
O150 O 0.44169 0.17315 0.44164 0.0
O151 O 0.55799 0.31479 0.38209 0.0
O152 O 0.37463 0.31424 0.40813 0.0
O153 O 0.54217 0.31604 0.4414 0.0
Sc154 Sc -0.00294 0.24251 0.63349 0.0
Sc155 Sc -0.00633 0.32232 0.67372 0.0
Sc156 Sc -0.00488 0.164 0.67392 0.0
O157 O -0.00473 0.24296 0.66037 0.0
C158 C 0.90693 0.13392 0.64203 0.0
C159 C 0.90539 0.34966 0.64131 0.0
C160 C 0.90408 0.24353 0.69683 0.0
C161 C 0.08542 0.3521 0.64261 0.0
C162 C 0.08703 0.13529 0.64248 0.0
C163 C 0.08313 0.24336 0.6974 0.0
O164 O 0.93061 0.17189 0.63156 0.0
O165 O 0.92688 0.36055 0.65652 0.0
O166 O 0.92757 0.19372 0.6923 0.0
O167 O 0.0641 0.3126 0.63219 0.0
O168 O 0.06315 0.12429 0.65737 0.0
O169 O 0.06004 0.29314 0.69261 0.0
O170 O 0.06929 0.17784 0.63253 0.0
O171 O 0.06563 0.35981 0.65818 0.0
O172 O 0.06609 0.19287 0.69129 0.0
O173 O 0.92497 0.30745 0.63152 0.0
O174 O 0.92374 0.12742 0.65795 0.0
O175 O 0.92149 0.29384 0.69071 0.0
H176 H 0.89854 0.36719 0.01971 0.0
H177 H 0.08314 0.40986 0.03264 0.0
H178 H 0.89958 0.44342 -0.00331 0.0
H179 H 0.08349 0.48765 0.01004 0.0
H180 H 0.08557 0.57717 0.95616 0.0
H181 H 0.08386 0.49975 0.97888 0.0
H182 H 0.901 0.5489 0.99199 0.0
H183 H 0.90198 0.62471 0.96887 0.0
C184 C 0.93915 0.39332 0.01778 0.0
C185 C 0.9908 0.38229 0.02799 0.0
C186 C 0.93967 0.43727 0.00462 0.0
C187 C 0.99166 0.47169 0.00146 0.0
C188 C 0.04303 0.46123 0.01187 0.0
C189 C 0.0427 0.41687 0.02492 0.0
C190 C 0.04495 0.57134 0.96386 0.0
C191 C -0.0061 0.60711 0.96067 0.0
C192 C 0.04408 0.52719 0.97698 0.0
C193 C 0.99236 0.51815 0.98734 0.0
C194 C 0.9413 0.5539 0.9841 0.0
C195 C 0.94196 0.59762 0.97087 0.0
H196 H 0.6138 0.6514 0.21878 0.0
H197 H 0.65632 0.83624 0.20616 0.0
H198 H 0.68961 0.65209 0.24187 0.0
H199 H 0.7341 0.83623 0.22882 0.0
H200 H 0.82593 0.83647 0.28246 0.0
H201 H 0.7482 0.83614 0.25979 0.0
H202 H 0.79422 0.65245 0.24662 0.0
H203 H 0.86998 0.65206 0.26972 0.0
C204 C 0.6399 0.69199 0.22078 0.0
C205 C 0.629 0.74377 0.21062 0.0
C206 C 0.68364 0.69233 0.234 0.0
C207 C 0.71817 0.7442 0.23724 0.0
C208 C 0.70767 0.79581 0.22693 0.0
C209 C 0.66335 0.79571 0.21384 0.0
C210 C 0.81926 0.79598 0.27475 0.0
C211 C 0.85402 0.74424 0.27794 0.0
C212 C 0.77496 0.79589 0.26166 0.0
C213 C 0.7649 0.7443 0.25131 0.0
C214 C 0.79985 0.69265 0.25451 0.0
C215 C 0.84356 0.69249 0.26774 0.0
H216 H 0.58558 0.57782 0.53262 0.0
H217 H 0.40197 0.62485 0.51971 0.0
H218 H 0.58424 0.50035 0.50992 0.0
H219 H 0.40137 0.54903 0.49661 0.0
H220 H 0.39927 0.36744 0.46895 0.0
H221 H 0.40016 0.4436 0.49197 0.0
H222 H 0.5841 0.48801 0.47875 0.0
H223 H 0.5839 0.41024 0.45615 0.0
C224 C 0.54504 0.57186 0.52487 0.0
C225 C 0.49386 0.60748 0.52801 0.0
C226 C 0.54439 0.52769 0.51176 0.0
C227 C 0.49276 0.5185 0.50136 0.0
C228 C 0.44159 0.55414 0.50453 0.0
C229 C 0.44202 0.59785 0.51775 0.0
C230 C 0.43986 0.39359 0.4709 0.0
C231 C 0.49156 0.38263 0.46072 0.0
C232 C 0.4403 0.4375 0.48407 0.0
C233 C 0.49224 0.47198 0.48726 0.0
C234 C 0.54367 0.46156 0.4769 0.0
C235 C 0.54343 0.41722 0.46384 0.0
H236 H 0.61571 0.14945 0.76951 0.0
H237 H 0.65818 0.3346 0.78178 0.0
H238 H 0.69118 0.14997 0.74631 0.0
H239 H 0.73529 0.33444 0.759 0.0
H240 H 0.826 0.33442 0.70533 0.0
H241 H 0.74791 0.33361 0.72786 0.0
H242 H 0.7965 0.15115 0.74168 0.0
H243 H 0.87285 0.1512 0.71877 0.0
C244 C 0.64162 0.19008 0.76739 0.0
C245 C 0.63084 0.242 0.7775 0.0
C246 C 0.68514 0.19032 0.75412 0.0
C247 C 0.71941 0.24226 0.75074 0.0
C248 C 0.70902 0.29399 0.76099 0.0
C249 C 0.66506 0.29395 0.77416 0.0
C250 C 0.81984 0.29407 0.71314 0.0
C251 C 0.85564 0.24287 0.71022 0.0
C252 C 0.77531 0.29372 0.72615 0.0
C253 C 0.76596 0.24237 0.73666 0.0
C254 C 0.8017 0.19115 0.73367 0.0
C255 C 0.84575 0.19128 0.72055 0.0
H256 H 0.32799 0.15251 0.78276 0.0
H257 H 0.36986 0.3379 0.77063 0.0
H258 H 0.25009 0.15296 0.76019 0.0
H259 H 0.29354 0.33769 0.74762 0.0
H260 H 0.11273 0.33572 0.71955 0.0
H261 H 0.18821 0.33602 0.74278 0.0
H262 H 0.23822 0.15389 0.72904 0.0
H263 H 0.16109 0.15283 0.70623 0.0
C264 C 0.32076 0.1933 0.77523 0.0
C265 C 0.35518 0.24516 0.7785 0.0
C266 C 0.27634 0.19344 0.76219 0.0
C267 C 0.26568 0.24525 0.75199 0.0
C268 C 0.29986 0.29725 0.75538 0.0
C269 C 0.34385 0.2973 0.76854 0.0
C270 C 0.13995 0.29577 0.72144 0.0
C271 C 0.13079 0.24421 0.71104 0.0
C272 C 0.18347 0.29603 0.73473 0.0
C273 C 0.21936 0.24497 0.73783 0.0
C274 C 0.21065 0.19364 0.72727 0.0
C275 C 0.16668 0.19316 0.71409 0.0
H276 H 0.32585 0.83602 0.20614 0.0
H277 H 0.36993 0.65175 0.21907 0.0
H278 H 0.24821 0.83595 0.2288 0.0
H279 H 0.29425 0.6524 0.24218 0.0
H280 H 0.11388 0.65171 0.26999 0.0
H281 H 0.18965 0.65212 0.24692 0.0
H282 H 0.23417 0.83641 0.25977 0.0
H283 H 0.15642 0.83669 0.2824 0.0
C284 C 0.3192 0.79561 0.21389 0.0
C285 C 0.35395 0.74384 0.21076 0.0
C286 C 0.27495 0.79568 0.22698 0.0
C287 C 0.26492 0.74421 0.23739 0.0
C288 C 0.29986 0.69252 0.23424 0.0
C289 C 0.34353 0.6922 0.22102 0.0
C290 C 0.13997 0.69228 0.26794 0.0
C291 C 0.12908 0.74418 0.27804 0.0
C292 C 0.18369 0.69245 0.25474 0.0
C293 C 0.21822 0.74428 0.25145 0.0
C294 C 0.20774 0.79602 0.2617 0.0
C295 C 0.16344 0.79608 0.27478 0.0
H296 H 0.40042 0.07943 0.45686 0.0
H297 H 0.58548 0.12279 0.469 0.0
H298 H 0.40129 0.00213 0.47963 0.0
H299 H 0.58567 0.04717 0.49217 0.0
H300 H 0.58595 0.86581 0.51984 0.0
H301 H 0.58514 0.94185 0.49681 0.0
H302 H 0.40267 0.98958 0.5108 0.0
H303 H 0.40273 0.91183 0.53345 0.0
C304 C 0.4412 0.07269 0.46445 0.0
C305 C 0.49292 0.10723 0.46108 0.0
C306 C 0.44158 0.02863 0.4776 0.0
C307 C 0.49349 0.01846 0.4878 0.0
C308 C 0.54519 0.05303 0.48439 0.0
C309 C 0.54501 0.09663 0.47114 0.0
C310 C 0.54569 0.89266 0.51806 0.0
C311 C 0.49437 0.88265 0.52848 0.0
C312 C 0.54532 0.93652 0.50488 0.0
C313 C 0.49384 0.97194 0.50191 0.0
C314 C 0.44274 0.96243 0.51249 0.0
C315 C 0.4429 0.9181 0.52557 0.0
H316 H 0.90016 0.07898 0.03158 0.0
H317 H 0.08541 0.12233 0.01975 0.0
H318 H 0.90138 0.00172 0.00881 0.0
H319 H 0.08595 0.04674 -0.00342 0.0
H320 H 0.08641 0.86533 0.96888 0.0
H321 H 0.08542 0.94136 0.99191 0.0
H322 H 0.90324 0.98944 0.97763 0.0
H323 H 0.90348 0.91175 0.95498 0.0
C324 C 0.94106 0.07225 0.02406 0.0
C325 C 0.99271 0.10679 0.02752 0.0
C326 C 0.94164 0.02821 0.01091 0.0
C327 C -0.00629 0.01805 0.00079 0.0
C328 C 0.04536 0.0526 0.00429 0.0
C329 C 0.04497 0.09619 0.01755 0.0
C330 C 0.04618 0.89225 0.97059 0.0
C331 C -0.00502 0.88234 0.96009 0.0
C332 C 0.0457 0.93611 0.98378 0.0
C333 C -0.00577 0.9716 0.98667 0.0
C334 C 0.94329 0.96222 0.976 0.0
C335 C 0.94356 0.91792 0.96292 0.0
H336 H 0.34444 0.84883 0.10983 0.0
H337 H 0.34601 0.94492 0.15943 0.0
H338 H 0.26727 0.9171 0.09875 0.0
H339 H 0.26994 0.01361 0.14819 0.0
H340 H 0.19183 0.09812 0.07855 0.0
H341 H 0.26053 0.02192 0.08974 0.0
H342 H 0.16504 0.02014 0.13935 0.0
H343 H 0.09682 0.09738 0.12832 0.0
C344 C 0.32834 0.88435 0.11839 0.0
C345 C 0.35181 0.89144 0.13551 0.0
C346 C 0.28428 0.92368 0.112 0.0
C347 C 0.26258 0.97096 0.12256 0.0
C348 C 0.2851 0.97726 0.13978 0.0
C349 C 0.32912 0.93801 0.14618 0.0
C350 C 0.18514 0.08138 0.09183 0.0
C351 C 0.13891 0.10437 0.10256 0.0
C352 C 0.2244 0.0373 0.0982 0.0
C353 C 0.21841 0.01504 0.11546 0.0
C354 C 0.1714 0.03698 0.12607 0.0
C355 C 0.1321 0.08109 0.11971 0.0
H356 H 0.13733 0.94457 0.32899 0.0
H357 H 0.1371 0.85058 0.37894 0.0
H358 H 0.2135 0.01324 0.34013 0.0
H359 H 0.21435 0.91881 0.38994 0.0
H360 H 0.38667 0.09678 0.36021 0.0
H361 H 0.31829 0.01961 0.34924 0.0
H362 H 0.2211 0.024 0.39854 0.0
H363 H 0.28987 0.10007 0.40968 0.0
C364 C 0.15384 0.93812 0.3423 0.0
C365 C 0.13061 0.89215 0.35309 0.0
C366 C 0.19792 0.97734 0.34864 0.0
C367 C 0.21995 0.97163 0.36594 0.0
C368 C 0.19773 0.92493 0.37662 0.0
C369 C 0.15361 0.88562 0.37028 0.0
C370 C 0.35097 0.08106 0.36877 0.0
C371 C 0.34372 0.10501 0.38581 0.0
C372 C 0.31159 0.037 0.36243 0.0
C373 C 0.2641 0.01578 0.37299 0.0
C374 C 0.25763 0.03879 0.39014 0.0
C375 C 0.29692 0.08281 0.39648 0.0
H376 H 0.14787 0.14024 0.61105 0.0
H377 H 0.13879 0.04067 0.66 0.0
H378 H 0.22585 0.07206 0.60049 0.0
H379 H 0.21587 0.97211 0.64927 0.0
H380 H 0.29838 0.89084 0.57994 0.0
H381 H 0.23012 0.96719 0.59109 0.0
H382 H 0.32247 0.96497 0.64123 0.0
H383 H 0.39056 0.88742 0.63019 0.0
C384 C 0.16253 0.104 0.61959 0.0
C385 C 0.13662 0.0958 0.63634 0.0
C386 C 0.20707 0.06477 0.6135 0.0
C387 C 0.22684 0.01651 0.62401 0.0
C388 C 0.20211 0.00922 0.64092 0.0
C389 C 0.15753 0.04835 0.64701 0.0
C390 C 0.30451 0.90666 0.59333 0.0
C391 C 0.34988 0.88256 0.60419 0.0
C392 C 0.26553 0.95088 0.59967 0.0
C393 C 0.27084 0.97216 0.61705 0.0
C394 C 0.31684 0.94898 0.62784 0.0
C395 C 0.35603 0.90475 0.62147 0.0
H396 H 0.15212 0.92628 0.9104 0.0
H397 H 0.14857 0.84496 0.85873 0.0
H398 H 0.21961 0.00422 0.89955 0.0
H399 H 0.21922 0.91998 0.84806 0.0
H400 H 0.31316 0.0854 0.82867 0.0
H401 H 0.23576 0.01759 0.83961 0.0
H402 H 0.31734 0.02294 0.89145 0.0
H403 H 0.39186 0.09404 0.88065 0.0
C404 C 0.16625 0.92493 0.89673 0.0
C405 C 0.14513 0.87967 0.8854 0.0
C406 C 0.20538 0.96935 0.8905 0.0
C407 C 0.22557 0.96867 0.87289 0.0
C408 C 0.20397 0.92319 0.86158 0.0
C409 C 0.16369 0.87973 0.86771 0.0
C410 C 0.31404 0.07233 0.84244 0.0
C411 C 0.35847 0.09487 0.85382 0.0
C412 C 0.26994 0.03298 0.84872 0.0
C413 C 0.27016 0.01392 0.86645 0.0
C414 C 0.3146 0.03718 0.87783 0.0
C415 C 0.35775 0.07773 0.87163 0.0
H416 H 0.79874 0.89033 0.90832 0.0
H417 H 0.89081 0.88597 0.85809 0.0
H418 H 0.7302 0.96615 0.89699 0.0
H419 H 0.82242 0.96304 0.84686 0.0
H420 H 0.64799 0.13876 0.87696 0.0
H421 H 0.72596 0.07065 0.88751 0.0
H422 H 0.71586 0.97075 0.83873 0.0
H423 H 0.63866 0.03939 0.82799 0.0
C424 C 0.80478 0.90583 0.89489 0.0
C425 C 0.85025 0.88164 0.8841 0.0
C426 C 0.76563 0.94975 0.88844 0.0
C427 C 0.77083 0.97068 0.87102 0.0
C428 C 0.81686 0.94735 0.86029 0.0
C429 C 0.85624 0.9034 0.86677 0.0
C430 C 0.66256 0.10254 0.86841 0.0
C431 C 0.63656 0.0944 0.85166 0.0
C432 C 0.70713 0.06333 0.8745 0.0
C433 C 0.72685 0.01505 0.86401 0.0
C434 C 0.7021 0.00784 0.84708 0.0
C435 C 0.65748 0.04703 0.84097 0.0
H436 H 0.89281 0.09242 0.60848 0.0
H437 H 0.8129 0.08571 0.6603 0.0
H438 H 0.81802 0.02168 0.59767 0.0
H439 H 0.73525 0.01813 0.64933 0.0
H440 H 0.64689 0.84581 0.63017 0.0
H441 H 0.71774 0.9205 0.64096 0.0
H442 H 0.72029 0.00399 0.58937 0.0
H443 H 0.65258 0.92641 0.57842 0.0
C444 C 0.85842 0.07658 0.61748 0.0
C445 C 0.85885 0.09425 0.63525 0.0
C446 C 0.81509 0.03624 0.61126 0.0
C447 C 0.77016 0.01364 0.62258 0.0
C448 C 0.76976 0.03307 0.64027 0.0
C449 C 0.81402 0.07226 0.64657 0.0
C450 C 0.66252 0.88034 0.62119 0.0
C451 C 0.64452 0.88014 0.60344 0.0
C452 C 0.70293 0.92362 0.62739 0.0
C453 C 0.72526 0.96874 0.61609 0.0
C454 C 0.70555 0.96935 0.59842 0.0
C455 C 0.66628 0.92513 0.59213 0.0
H456 H 0.8468 0.94614 0.32925 0.0
H457 H 0.84465 0.84936 0.37874 0.0
H458 H 0.77077 0.01483 0.34048 0.0
H459 H 0.76752 0.91761 0.38982 0.0
H460 H 0.69215 0.09839 0.41014 0.0
H461 H 0.76086 0.02228 0.39894 0.0
H462 H 0.66582 0.02143 0.34922 0.0
H463 H 0.59761 0.09859 0.36027 0.0
C464 C 0.82979 0.93908 0.34247 0.0
C465 C 0.85231 0.89232 0.35312 0.0
C466 C 0.78579 0.97832 0.34887 0.0
C467 C 0.76313 0.97182 0.36606 0.0
C468 C 0.78465 0.92435 0.37659 0.0
C469 C 0.82869 0.88504 0.3702 0.0
C470 C 0.68557 0.08187 0.39684 0.0
C471 C 0.63946 0.1051 0.38608 0.0
C472 C 0.72482 0.03784 0.39046 0.0
C473 C 0.71897 0.01587 0.37317 0.0
C474 C 0.67209 0.03804 0.36253 0.0
C475 C 0.63278 0.08211 0.3689 0.0
H476 H 0.63694 0.94373 0.15955 0.0
H477 H 0.63651 0.8495 0.10964 0.0
H478 H 0.71307 0.01232 0.14838 0.0
H479 H 0.71374 0.91768 0.09862 0.0
H480 H 0.88616 0.09574 0.12834 0.0
H481 H 0.81781 0.01857 0.13931 0.0
H482 H 0.72064 0.02284 0.08996 0.0
H483 H 0.7894 0.09892 0.07883 0.0
C484 C 0.6534 0.93721 0.14625 0.0
C485 C 0.63013 0.89119 0.13547 0.0
C486 C 0.69746 0.97639 0.13989 0.0
C487 C 0.71944 0.97059 0.12259 0.0
C488 C 0.69716 0.92386 0.11193 0.0
C489 C 0.65306 0.88458 0.11829 0.0
C490 C 0.85048 0.07999 0.11977 0.0
C491 C 0.84322 0.10393 0.10272 0.0
C492 C 0.81111 0.03593 0.1261 0.0
C493 C 0.76362 0.01468 0.11554 0.0
C494 C 0.75716 0.03764 0.09837 0.0
C495 C 0.79644 0.08167 0.09204 0.0
H496 H 0.85158 0.34852 0.60867 0.0
H497 H 0.84817 0.44046 0.65894 0.0
H498 H 0.77418 0.41681 0.5976 0.0
H499 H 0.77198 0.50893 0.64776 0.0
H500 H 0.69828 0.60052 0.57884 0.0
H501 H 0.76698 0.52348 0.58958 0.0
H502 H 0.66714 0.51322 0.63835 0.0
H503 H 0.59886 0.59113 0.62779 0.0
C504 C 0.83429 0.38305 0.61738 0.0
C505 C 0.85642 0.38905 0.63468 0.0
C506 C 0.79015 0.42236 0.611 0.0
C507 C 0.76701 0.46833 0.62179 0.0
C508 C 0.78826 0.47353 0.63917 0.0
C509 C 0.83238 0.43443 0.64554 0.0
C510 C 0.69067 0.58173 0.59183 0.0
C511 C 0.64321 0.60254 0.6025 0.0
C512 C 0.72988 0.53718 0.59792 0.0
C513 C 0.72265 0.51237 0.61483 0.0
C514 C 0.67439 0.53205 0.62534 0.0
C515 C 0.63509 0.57657 0.61925 0.0
H516 H 0.88948 0.59741 0.85988 0.0
H517 H 0.7956 0.59707 0.90984 0.0
H518 H 0.8213 0.52025 0.84888 0.0
H519 H 0.7269 0.52088 0.89867 0.0
H520 H 0.64402 0.34747 0.87846 0.0
H521 H 0.72086 0.41604 0.8895 0.0
H522 H 0.71612 0.51371 0.84025 0.0
H523 H 0.64034 0.44472 0.82904 0.0
C524 C 0.85444 0.58091 0.86855 0.0
C525 C 0.84793 0.60383 0.88574 0.0
C526 C 0.81517 0.53684 0.86219 0.0
C527 C 0.7685 0.5146 0.87286 0.0
C528 C 0.76279 0.53653 0.89017 0.0
C529 C 0.80202 0.58057 0.89653 0.0
C530 C 0.65959 0.38332 0.86992 0.0
C531 C 0.63565 0.39065 0.85287 0.0
C532 C 0.70345 0.4228 0.8763 0.0
C533 C 0.72446 0.47047 0.86578 0.0
C534 C 0.70147 0.47704 0.84862 0.0
C535 C 0.65764 0.43762 0.84224 0.0
H536 H 0.63714 0.63783 0.1099 0.0
H537 H 0.63537 0.54148 0.15946 0.0
H538 H 0.71398 0.56932 0.09879 0.0
H539 H 0.71113 0.47254 0.1482 0.0
H540 H 0.88433 0.38884 0.12835 0.0
H541 H 0.81598 0.46585 0.1394 0.0
H542 H 0.72065 0.46458 0.08973 0.0
H543 H 0.7895 0.38859 0.07851 0.0
C544 C 0.65311 0.60219 0.11845 0.0
C545 C 0.62971 0.59513 0.13557 0.0
C546 C 0.69699 0.56272 0.11204 0.0
C547 C 0.71856 0.51531 0.12258 0.0
C548 C 0.69607 0.509 0.1398 0.0
C549 C 0.65224 0.5484 0.14622 0.0
C550 C 0.84905 0.40518 0.11972 0.0
C551 C 0.84236 0.38213 0.10255 0.0
C552 C 0.80967 0.44916 0.12611 0.0
C553 C 0.76268 0.4712 0.11548 0.0
C554 C 0.75677 0.44912 0.0982 0.0
C555 C 0.7961 0.40517 0.09181 0.0
H556 H 0.84575 0.54398 0.32881 0.0
H557 H 0.8452 0.63826 0.37871 0.0
H558 H 0.76953 0.47526 0.33989 0.0
H559 H 0.76792 0.56998 0.38963 0.0
H560 H 0.69301 0.38869 0.40943 0.0
H561 H 0.7616 0.46483 0.39828 0.0
H562 H 0.66462 0.46856 0.3489 0.0
H563 H 0.59638 0.39128 0.3599 0.0
C564 C 0.82905 0.55049 0.34209 0.0
C565 C 0.85209 0.59654 0.3529 0.0
C566 C 0.78495 0.51124 0.3484 0.0
C567 C 0.76271 0.51701 0.36566 0.0
C568 C 0.78471 0.56381 0.37635 0.0
C569 C 0.82884 0.60315 0.37004 0.0
C570 C 0.68597 0.40581 0.39621 0.0
C571 C 0.63925 0.3834 0.38553 0.0
C572 C 0.72515 0.44988 0.38987 0.0
C573 C 0.71867 0.47275 0.37269 0.0
C574 C 0.6713 0.4513 0.36212 0.0
C575 C 0.632 0.40718 0.36846 0.0
H576 H 0.29075 0.38994 0.41018 0.0
H577 H 0.38497 0.38981 0.36029 0.0
H578 H 0.22194 0.46603 0.39899 0.0
H579 H 0.31665 0.46694 0.34925 0.0
H580 H 0.13817 0.63912 0.37877 0.0
H581 H 0.21522 0.57074 0.38986 0.0
H582 H 0.21167 0.47356 0.34053 0.0
H583 H 0.13571 0.54236 0.32929 0.0
C584 C 0.29724 0.40646 0.39688 0.0
C585 C 0.34329 0.38327 0.38611 0.0
C586 C 0.25792 0.45048 0.3905 0.0
C587 C 0.26366 0.47248 0.3732 0.0
C588 C 0.31048 0.45031 0.36256 0.0
C589 C 0.34984 0.40627 0.36893 0.0
C590 C 0.15404 0.60342 0.37023 0.0
C591 C 0.13037 0.5962 0.35315 0.0
C592 C 0.19803 0.56403 0.37663 0.0
C593 C 0.21947 0.51655 0.36611 0.0
C594 C 0.19673 0.51008 0.34891 0.0
C595 C 0.15278 0.5494 0.34251 0.0
H596 H 0.09609 0.38986 0.12896 0.0
H597 H 0.1917 0.38864 0.0793 0.0
H598 H 0.16436 0.46709 0.14 0.0
H599 H 0.26031 0.4647 0.09048 0.0
H600 H 0.34581 0.5427 0.15993 0.0
H601 H 0.26947 0.47401 0.14888 0.0
H602 H 0.26648 0.56965 0.09928 0.0
H603 H 0.34386 0.63789 0.11017 0.0
C604 C 0.13149 0.40605 0.12038 0.0
C605 C 0.13845 0.38268 0.10326 0.0
C606 C 0.17081 0.45014 0.12675 0.0
C607 C 0.2179 0.47196 0.11614 0.0
C608 C 0.22409 0.44947 0.09892 0.0
C609 C 0.18489 0.40544 0.09255 0.0
C610 C 0.32878 0.54942 0.14669 0.0
C611 C 0.35147 0.5957 0.13591 0.0
C612 C 0.2846 0.51018 0.1404 0.0
C613 C 0.26196 0.51621 0.12318 0.0
C614 C 0.2836 0.56327 0.11253 0.0
C615 C 0.3278 0.60257 0.11881 0.0
H616 H 0.20076 0.60153 0.9095 0.0
H617 H 0.09869 0.58973 0.86104 0.0
H618 H 0.26969 0.52497 0.89863 0.0
H619 H 0.16721 0.51227 0.85035 0.0
H620 H 0.3548 0.35027 0.87984 0.0
H621 H 0.27755 0.41842 0.89097 0.0
H622 H 0.27131 0.5078 0.8404 0.0
H623 H 0.34744 0.43935 0.82915 0.0
C624 C 0.19261 0.5823 0.8966 0.0
C625 C 0.14431 0.60229 0.8861 0.0
C626 C 0.23198 0.53803 0.89042 0.0
C627 C 0.22408 0.51265 0.8736 0.0
C628 C 0.17503 0.53156 0.86327 0.0
C629 C 0.13558 0.57581 0.86944 0.0
C630 C 0.33669 0.38417 0.87104 0.0
C631 C 0.35769 0.38938 0.85361 0.0
C632 C 0.29261 0.42342 0.87746 0.0
C633 C 0.26839 0.46863 0.86659 0.0
C634 C 0.28846 0.47302 0.84907 0.0
C635 C 0.33253 0.43394 0.84266 0.0
H636 H 0.14152 0.34965 0.61041 0.0
H637 H 0.14002 0.44524 0.66009 0.0
H638 H 0.21825 0.41813 0.59934 0.0
H639 H 0.21578 0.51428 0.64885 0.0
H640 H 0.38896 0.59788 0.62879 0.0
H641 H 0.32051 0.52118 0.63993 0.0
H642 H 0.22476 0.52273 0.59033 0.0
H643 H 0.29373 0.5984 0.57903 0.0
C644 C 0.15752 0.38516 0.619 0.0
C645 C 0.13421 0.39201 0.63613 0.0
C646 C 0.20134 0.42462 0.6126 0.0
C647 C 0.22296 0.47187 0.62317 0.0
C648 C 0.20064 0.47796 0.64043 0.0
C649 C 0.15684 0.43851 0.64683 0.0
C650 C 0.35355 0.58168 0.6202 0.0
C651 C 0.3468 0.60468 0.60302 0.0
C652 C 0.31411 0.53788 0.62664 0.0
C653 C 0.26699 0.51599 0.61605 0.0
C654 C 0.26098 0.53806 0.59876 0.0
C655 C 0.3004 0.58182 0.59232 0.0
loop_
_geom_bond_atom_site_label_1
_geom_bond_atom_site_label_2
_geom_bond_distance
_geom_bond_site_symmetry_2
_ccdc_geom_bond_type
Sc0 O3 2.025 . S
Sc0 O10 2.105 . S
Sc0 O13 2.105 . S
Sc0 O16 2.105 . S
Sc0 O19 2.105 . S
Sc1 O3 2.025 1_655 S
Sc1 O11 2.105 . S
Sc1 O15 2.105 . S
Sc1 O17 2.105 . S
Sc1 O21 2.105 . S
Sc2 O3 2.025 . S
Sc2 O12 2.105 1_455 S
Sc2 O14 2.105 . S
Sc2 O18 2.105 1_455 S
Sc2 O20 2.105 . S
O3 Sc0 2.025 . S
O3 Sc1 2.025 1_455 S
O3 Sc2 2.025 . S
C4 O10 1.268 . S
C4 O20 1.268 . S
C5 O11 1.268 1_455 S
C5 O19 1.268 . S
C6 O12 1.268 . S
C6 O21 1.268 . S
C7 O13 1.268 . S
C7 O17 1.268 1_455 S
C8 O14 1.268 . S
C8 O16 1.268 . S
C9 O15 1.268 . S
C9 O18 1.268 . S
O10 Sc0 2.105 . S
O10 C4 1.268 . S
O11 Sc1 2.105 . S
O11 C5 1.268 1_655 S
O12 Sc2 2.105 1_655 S
O12 C6 1.268 . S
O13 Sc0 2.105 . S
O13 C7 1.268 . S
O14 Sc2 2.105 . S
O14 C8 1.268 . S
O15 Sc1 2.105 . S
O15 C9 1.268 . S
O16 Sc0 2.105 . S
O16 C8 1.268 . S
O17 Sc1 2.105 . S
O17 C7 1.268 1_655 S
O18 Sc2 2.105 1_655 S
O18 C9 1.268 . S
O19 Sc0 2.105 . S
O19 C5 1.268 . S
O20 Sc2 2.105 . S
O20 C4 1.268 . S
O21 Sc1 2.105 . S
O21 C6 1.268 . S
Sc22 O25 2.025 . S
Sc22 O32 2.105 . S
Sc22 O35 2.105 1_455 S
Sc22 O38 2.105 1_455 S
Sc22 O41 2.105 . S
Sc23 O25 2.025 . S
Sc23 O33 2.105 . S
Sc23 O37 2.105 1_455 S
Sc23 O39 2.105 1_455 S
Sc23 O43 2.105 . S
Sc24 O25 2.025 . S
Sc24 O34 2.105 . S
Sc24 O36 2.105 1_455 S
Sc24 O40 2.105 1_455 S
Sc24 O42 2.105 . S
O25 Sc22 2.025 . S
O25 Sc23 2.025 . S
O25 Sc24 2.025 . S
C26 O32 1.268 . S
C26 O42 1.268 . S
C27 O33 1.268 . S
C27 O41 1.268 . S
C28 O34 1.268 . S
C28 O43 1.268 . S
C29 O35 1.268 . S
C29 O39 1.268 . S
C30 O36 1.268 . S
C30 O38 1.268 . S
C31 O37 1.268 . S
C31 O40 1.268 . S
O32 Sc22 2.105 . S
O32 C26 1.268 . S
O33 Sc23 2.105 . S
O33 C27 1.268 . S
O34 Sc24 2.105 . S
O34 C28 1.268 . S
O35 Sc22 2.105 1_655 S
O35 C29 1.268 . S
O36 Sc24 2.105 1_655 S
O36 C30 1.268 . S
O37 Sc23 2.105 1_655 S
O37 C31 1.268 . S
O38 Sc22 2.105 1_655 S
O38 C30 1.268 . S
O39 Sc23 2.105 1_655 S
O39 C29 1.268 . S
O40 Sc24 2.105 1_655 S
O40 C31 1.268 . S
O41 Sc22 2.105 . S
O41 C27 1.268 . S
O42 Sc24 2.105 . S
O42 C26 1.268 . S
O43 Sc23 2.105 . S
O43 C28 1.268 . S
Sc44 O47 2.025 . S
Sc44 O54 2.105 . S
Sc44 O57 2.105 . S
Sc44 O60 2.105 . S
Sc44 O63 2.105 . S
Sc45 O47 2.025 . S
Sc45 O55 2.105 . S
Sc45 O59 2.105 . S
Sc45 O61 2.105 . S
Sc45 O65 2.105 . S
Sc46 O47 2.025 . S
Sc46 O56 2.105 . S
Sc46 O58 2.105 . S
Sc46 O62 2.105 . S
Sc46 O64 2.105 . S
O47 Sc44 2.025 . S
O47 Sc45 2.025 . S
O47 Sc46 2.025 . S
C48 O54 1.268 . S
C48 O64 1.268 . S
C49 O55 1.268 . S
C49 O63 1.268 . S
C50 O56 1.268 . S
C50 O65 1.268 . S
C51 O57 1.268 . S
C51 O61 1.268 . S
C52 O58 1.268 . S
C52 O60 1.268 . S
C53 O59 1.268 . S
C53 O62 1.268 . S
O54 Sc44 2.105 . S
O54 C48 1.268 . S
O55 Sc45 2.105 . S
O55 C49 1.268 . S
O56 Sc46 2.105 . S
O56 C50 1.268 . S
O57 Sc44 2.105 . S
O57 C51 1.268 . S
O58 Sc46 2.105 . S
O58 C52 1.268 . S
O59 Sc45 2.105 . S
O59 C53 1.268 . S
O60 Sc44 2.105 . S
O60 C52 1.268 . S
O61 Sc45 2.105 . S
O61 C51 1.268 . S
O62 Sc46 2.105 . S
O62 C53 1.268 . S
O63 Sc44 2.105 . S
O63 C49 1.268 . S
O64 Sc46 2.105 . S
O64 C48 1.268 . S
O65 Sc45 2.105 . S
O65 C50 1.268 . S
Sc66 O69 2.025 . S
Sc66 O76 2.105 . S
Sc66 O79 2.105 . S
Sc66 O82 2.105 . S
Sc66 O85 2.105 . S
Sc67 O69 2.025 . S
Sc67 O77 2.105 . S
Sc67 O81 2.105 . S
Sc67 O83 2.105 . S
Sc67 O87 2.105 . S
Sc68 O69 2.025 . S
Sc68 O78 2.105 . S
Sc68 O80 2.105 . S
Sc68 O84 2.105 . S
Sc68 O86 2.105 . S
O69 Sc66 2.025 . S
O69 Sc67 2.025 . S
O69 Sc68 2.025 . S
C70 O76 1.268 . S
C70 O86 1.268 . S
C71 O77 1.268 . S
C71 O85 1.268 . S
C72 O78 1.268 . S
C72 O87 1.268 . S
C73 O79 1.268 . S
C73 O83 1.268 . S
C74 O80 1.268 . S
C74 O82 1.268 . S
C75 O81 1.268 . S
C75 O84 1.268 . S
O76 Sc66 2.105 . S
O76 C70 1.268 . S
O77 Sc67 2.105 . S
O77 C71 1.268 . S
O78 Sc68 2.105 . S
O78 C72 1.268 . S
O79 Sc66 2.105 . S
O79 C73 1.268 . S
O80 Sc68 2.105 . S
O80 C74 1.268 . S
O81 Sc67 2.105 . S
O81 C75 1.268 . S
O82 Sc66 2.105 . S
O82 C74 1.268 . S
O83 Sc67 2.105 . S
O83 C73 1.268 . S
O84 Sc68 2.105 . S
O84 C75 1.268 . S
O85 Sc66 2.105 . S
O85 C71 1.268 . S
O86 Sc68 2.105 . S
O86 C70 1.268 . S
O87 Sc67 2.105 . S
O87 C72 1.268 . S
Sc88 O91 2.025 . S
Sc88 O98 2.105 1_455 S
Sc88 O101 2.105 . S
Sc88 O104 2.105 1_455 S
Sc88 O107 2.105 . S
Sc89 O91 2.025 . S
Sc89 O99 2.105 . S
Sc89 O103 2.105 . S
Sc89 O105 2.105 . S
Sc89 O109 2.105 . S
Sc90 O91 2.025 1_655 S
Sc90 O100 2.105 . S
Sc90 O102 2.105 . S
Sc90 O106 2.105 . S
Sc90 O108 2.105 . S
O91 Sc88 2.025 . S
O91 Sc89 2.025 . S
O91 Sc90 2.025 1_455 S
C92 O98 1.268 . S
C92 O108 1.268 . S
C93 O99 1.268 . S
C93 O107 1.268 . S
C94 O100 1.268 1_455 S
C94 O109 1.268 . S
C95 O101 1.268 . S
C95 O105 1.268 . S
C96 O102 1.268 . S
C96 O104 1.268 . S
C97 O103 1.268 . S
C97 O106 1.268 1_455 S
O98 Sc88 2.105 1_655 S
O98 C92 1.268 . S
O99 Sc89 2.105 . S
O99 C93 1.268 . S
O100 Sc90 2.105 . S
O100 C94 1.268 1_655 S
O101 Sc88 2.105 . S
O101 C95 1.268 . S
O102 Sc90 2.105 . S
O102 C96 1.268 . S
O103 Sc89 2.105 . S
O103 C97 1.268 . S
O104 Sc88 2.105 1_655 S
O104 C96 1.268 . S
O105 Sc89 2.105 . S
O105 C95 1.268 . S
O106 Sc90 2.105 . S
O106 C97 1.268 1_655 S
O107 Sc88 2.105 . S
O107 C93 1.268 . S
O108 Sc90 2.105 . S
O108 C92 1.268 . S
O109 Sc89 2.105 . S
O109 C94 1.268 . S
Sc110 O113 2.025 . S
Sc110 O120 2.105 . S
Sc110 O123 2.105 . S
Sc110 O126 2.105 . S
Sc110 O129 2.105 . S
Sc111 O113 2.025 . S
Sc111 O121 2.105 . S
Sc111 O125 2.105 . S
Sc111 O127 2.105 . S
Sc111 O131 2.105 . S
Sc112 O113 2.025 . S
Sc112 O122 2.105 . S
Sc112 O124 2.105 . S
Sc112 O128 2.105 . S
Sc112 O130 2.105 . S
O113 Sc110 2.025 . S
O113 Sc111 2.025 . S
O113 Sc112 2.025 . S
C114 O120 1.268 . S
C114 O130 1.268 . S
C115 O121 1.268 . S
C115 O129 1.268 . S
C116 O122 1.268 . S
C116 O131 1.268 . S
C117 O123 1.268 . S
C117 O127 1.268 . S
C118 O124 1.268 . S
C118 O126 1.268 . S
C119 O125 1.268 . S
C119 O128 1.268 . S
O120 Sc110 2.105 . S
O120 C114 1.268 . S
O121 Sc111 2.105 . S
O121 C115 1.268 . S
O122 Sc112 2.105 . S
O122 C116 1.268 . S
O123 Sc110 2.105 . S
O123 C117 1.268 . S
O124 Sc112 2.105 . S
O124 C118 1.268 . S
O125 Sc111 2.105 . S
O125 C119 1.268 . S
O126 Sc110 2.105 . S
O126 C118 1.268 . S
O127 Sc111 2.105 . S
O127 C117 1.268 . S
O128 Sc112 2.105 . S
O128 C119 1.268 . S
O129 Sc110 2.105 . S
O129 C115 1.268 . S
O130 Sc112 2.105 . S
O130 C114 1.268 . S
O131 Sc111 2.105 . S
O131 C116 1.268 . S
Sc132 O135 2.025 . S
Sc132 O142 2.105 . S
Sc132 O145 2.105 . S
Sc132 O148 2.105 . S
Sc132 O151 2.105 . S
Sc133 O135 2.025 . S
Sc133 O143 2.105 . S
Sc133 O147 2.105 . S
Sc133 O149 2.105 . S
Sc133 O153 2.105 . S
Sc134 O135 2.025 . S
Sc134 O144 2.105 . S
Sc134 O146 2.105 . S
Sc134 O150 2.105 . S
Sc134 O152 2.105 . S
O135 Sc132 2.025 . S
O135 Sc133 2.025 . S
O135 Sc134 2.025 . S
C136 O142 1.268 . S
C136 O152 1.268 . S
C137 O143 1.268 . S
C137 O151 1.268 . S
C138 O144 1.268 . S
C138 O153 1.268 . S
C139 O145 1.268 . S
C139 O149 1.268 . S
C140 O146 1.268 . S
C140 O148 1.268 . S
C141 O147 1.268 . S
C141 O150 1.268 . S
O142 Sc132 2.105 . S
O142 C136 1.268 . S
O143 Sc133 2.105 . S
O143 C137 1.268 . S
O144 Sc134 2.105 . S
O144 C138 1.268 . S
O145 Sc132 2.105 . S
O145 C139 1.268 . S
O146 Sc134 2.105 . S
O146 C140 1.268 . S
O147 Sc133 2.105 . S
O147 C141 1.268 . S
O148 Sc132 2.105 . S
O148 C140 1.268 . S
O149 Sc133 2.105 . S
O149 C139 1.268 . S
O150 Sc134 2.105 . S
O150 C141 1.268 . S
O151 Sc132 2.105 . S
O151 C137 1.268 . S
O152 Sc134 2.105 . S
O152 C136 1.268 . S
O153 Sc133 2.105 . S
O153 C138 1.268 . S
Sc154 O157 2.025 . S
Sc154 O164 2.105 1_455 S
Sc154 O167 2.105 . S
Sc154 O170 2.105 . S
Sc154 O173 2.105 1_455 S
Sc155 O157 2.025 . S
Sc155 O165 2.105 1_455 S
Sc155 O169 2.105 . S
Sc155 O171 2.105 . S
Sc155 O175 2.105 1_455 S
Sc156 O157 2.025 . S
Sc156 O166 2.105 1_455 S
Sc156 O168 2.105 . S
Sc156 O172 2.105 . S
Sc156 O174 2.105 1_455 S
O157 Sc154 2.025 . S
O157 Sc155 2.025 . S
O157 Sc156 2.025 . S
C158 O164 1.268 . S
C158 O174 1.268 . S
C159 O165 1.268 . S
C159 O173 1.268 . S
C160 O166 1.268 . S
C160 O175 1.268 . S
C161 O167 1.268 . S
C161 O171 1.268 . S
C162 O168 1.268 . S
C162 O170 1.268 . S
C163 O169 1.268 . S
C163 O172 1.268 . S
O164 Sc154 2.105 1_655 S
O164 C158 1.268 . S
O165 Sc155 2.105 1_655 S
O165 C159 1.268 . S
O166 Sc156 2.105 1_655 S
O166 C160 1.268 . S
O167 Sc154 2.105 . S
O167 C161 1.268 . S
O168 Sc156 2.105 . S
O168 C162 1.268 . S
O169 Sc155 2.105 . S
O169 C163 1.268 . S
O170 Sc154 2.105 . S
O170 C162 1.268 . S
O171 Sc155 2.105 . S
O171 C161 1.268 . S
O172 Sc156 2.105 . S
O172 C163 1.268 . S
O173 Sc154 2.105 1_655 S
O173 C159 1.268 . S
O174 Sc156 2.105 1_655 S
O174 C158 1.268 . S
O175 Sc155 2.105 1_655 S
O175 C160 1.268 . S
H176 C184 0.950 . S
H177 C189 0.950 . S
H178 C186 0.950 . S
H179 C188 0.950 . S
H180 C190 0.950 . S
H181 C192 0.950 . S
H182 C194 0.950 . S
H183 C195 0.950 . S
C184 H176 0.950 . S
C184 C185 1.385 1_655 S
C184 C186 1.391 . S
C185 C184 1.385 1_455 S
C185 C189 1.393 . S
C186 H178 0.950 . S
C186 C184 1.391 . S
C186 C187 1.400 1_655 S
C187 C186 1.400 1_455 S
C187 C188 1.398 . S
C187 C193 1.491 1_554 S
C188 H179 0.950 . S
C188 C187 1.398 . S
C188 C189 1.391 . S
C189 H177 0.950 . S
C189 C185 1.393 . S
C189 C188 1.391 . S
C190 H180 0.950 . S
C190 C191 1.385 . S
C190 C192 1.391 . S
C191 C190 1.385 . S
C191 C195 1.393 1_455 S
C192 H181 0.950 . S
C192 C190 1.391 . S
C192 C193 1.400 . S
C193 C187 1.491 1_556 S
C193 C192 1.400 . S
C193 C194 1.398 1_455 S
C194 H182 0.950 . S
C194 C193 1.398 1_655 S
C194 C195 1.391 . S
C195 H183 0.950 . S
C195 C191 1.393 1_655 S
C195 C194 1.391 . S
H196 C204 0.950 . S
H197 C209 0.950 . S
H198 C206 0.950 . S
H199 C208 0.950 . S
H200 C210 0.950 . S
H201 C212 0.950 . S
H202 C214 0.950 . S
H203 C215 0.950 . S
C204 H196 0.950 . S
C204 C205 1.386 . S
C204 C206 1.391 . S
C205 C204 1.386 . S
C205 C209 1.393 . S
C206 H198 0.950 . S
C206 C204 1.391 . S
C206 C207 1.400 . S
C207 C206 1.400 . S
C207 C208 1.398 . S
C207 C213 1.491 . S
C208 H199 0.950 . S
C208 C207 1.398 . S
C208 C209 1.391 . S
C209 H197 0.950 . S
C209 C205 1.393 . S
C209 C208 1.391 . S
C210 H200 0.950 . S
C210 C211 1.386 . S
C210 C212 1.391 . S
C211 C210 1.386 . S
C211 C215 1.393 . S
C212 H201 0.950 . S
C212 C210 1.391 . S
C212 C213 1.400 . S
C213 C207 1.491 . S
C213 C212 1.400 . S
C213 C214 1.398 . S
C214 H202 0.950 . S
C214 C213 1.398 . S
C214 C215 1.391 . S
C215 H203 0.950 . S
C215 C211 1.393 . S
C215 C214 1.391 . S
H216 C224 0.950 . S
H217 C229 0.950 . S
H218 C226 0.950 . S
H219 C228 0.950 . S
H220 C230 0.950 . S
H221 C232 0.950 . S
H222 C234 0.950 . S
H223 C235 0.950 . S
C224 H216 0.950 . S
C224 C225 1.386 . S
C224 C226 1.391 . S
C225 C224 1.386 . S
C225 C229 1.393 . S
C226 H218 0.950 . S
C226 C224 1.391 . S
C226 C227 1.400 . S
C227 C226 1.400 . S
C227 C228 1.398 . S
C227 C233 1.491 . S
C228 H219 0.950 . S
C228 C227 1.398 . S
C228 C229 1.391 . S
C229 H217 0.950 . S
C229 C225 1.393 . S
C229 C228 1.391 . S
C230 H220 0.950 . S
C230 C231 1.386 . S
C230 C232 1.391 . S
C231 C230 1.386 . S
C231 C235 1.393 . S
C232 H221 0.950 . S
C232 C230 1.391 . S
C232 C233 1.400 . S
C233 C227 1.491 . S
C233 C232 1.400 . S
C233 C234 1.398 . S
C234 H222 0.950 . S
C234 C233 1.398 . S
C234 C235 1.391 . S
C235 H223 0.950 . S
C235 C231 1.393 . S
C235 C234 1.391 . S
H236 C244 0.950 . S
H237 C249 0.950 . S
H238 C246 0.950 . S
H239 C248 0.950 . S
H240 C250 0.950 . S
H241 C252 0.950 . S
H242 C254 0.950 . S
H243 C255 0.950 . S
C244 H236 0.950 . S
C244 C245 1.386 . S
C244 C246 1.391 . S
C245 C244 1.386 . S
C245 C249 1.393 . S
C246 H238 0.950 . S
C246 C244 1.391 . S
C246 C247 1.400 . S
C247 C246 1.400 . S
C247 C248 1.398 . S
C247 C253 1.491 . S
C248 H239 0.950 . S
C248 C247 1.398 . S
C248 C249 1.391 . S
C249 H237 0.950 . S
C249 C245 1.393 . S
C249 C248 1.391 . S
C250 H240 0.950 . S
C250 C251 1.386 . S
C250 C252 1.391 . S
C251 C250 1.386 . S
C251 C255 1.393 . S
C252 H241 0.950 . S
C252 C250 1.391 . S
C252 C253 1.400 . S
C253 C247 1.491 . S
C253 C252 1.400 . S
C253 C254 1.398 . S
C254 H242 0.950 . S
C254 C253 1.398 . S
C254 C255 1.391 . S
C255 H243 0.950 . S
C255 C251 1.393 . S
C255 C254 1.391 . S
H256 C264 0.950 . S
H257 C269 0.950 . S
H258 C266 0.950 . S
H259 C268 0.950 . S
H260 C270 0.950 . S
H261 C272 0.950 . S
H262 C274 0.950 . S
H263 C275 0.950 . S
C264 H256 0.950 . S
C264 C265 1.386 . S
C264 C266 1.391 . S
C265 C264 1.386 . S
C265 C269 1.393 . S
C266 H258 0.950 . S
C266 C264 1.391 . S
C266 C267 1.400 . S
C267 C266 1.400 . S
C267 C268 1.398 . S
C267 C273 1.491 . S
C268 H259 0.950 . S
C268 C267 1.398 . S
C268 C269 1.391 . S
C269 H257 0.950 . S
C269 C265 1.393 . S
C269 C268 1.391 . S
C270 H260 0.950 . S
C270 C271 1.386 . S
C270 C272 1.391 . S
C271 C270 1.386 . S
C271 C275 1.393 . S
C272 H261 0.950 . S
C272 C270 1.391 . S
C272 C273 1.400 . S
C273 C267 1.491 . S
C273 C272 1.400 . S
C273 C274 1.398 . S
C274 H262 0.950 . S
C274 C273 1.398 . S
C274 C275 1.391 . S
C275 H263 0.950 . S
C275 C271 1.393 . S
C275 C274 1.391 . S
H276 C284 0.950 . S
H277 C289 0.950 . S
H278 C286 0.950 . S
H279 C288 0.950 . S
H280 C290 0.950 . S
H281 C292 0.950 . S
H282 C294 0.950 . S
H283 C295 0.950 . S
C284 H276 0.950 . S
C284 C285 1.386 . S
C284 C286 1.391 . S
C285 C284 1.386 . S
C285 C289 1.393 . S
C286 H278 0.950 . S
C286 C284 1.391 . S
C286 C287 1.400 . S
C287 C286 1.400 . S
C287 C288 1.398 . S
C287 C293 1.491 . S
C288 H279 0.950 . S
C288 C287 1.398 . S
C288 C289 1.391 . S
C289 H277 0.950 . S
C289 C285 1.393 . S
C289 C288 1.391 . S
C290 H280 0.950 . S
C290 C291 1.386 . S
C290 C292 1.391 . S
C291 C290 1.386 . S
C291 C295 1.393 . S
C292 H281 0.950 . S
C292 C290 1.391 . S
C292 C293 1.400 . S
C293 C287 1.491 . S
C293 C292 1.400 . S
C293 C294 1.398 . S
C294 H282 0.950 . S
C294 C293 1.398 . S
C294 C295 1.391 . S
C295 H283 0.950 . S
C295 C291 1.393 . S
C295 C294 1.391 . S
H296 C304 0.950 . S
H297 C309 0.950 . S
H298 C306 0.950 . S
H299 C308 0.950 . S
H300 C310 0.950 . S
H301 C312 0.950 . S
H302 C314 0.950 . S
H303 C315 0.950 . S
C304 H296 0.950 . S
C304 C305 1.386 . S
C304 C306 1.391 . S
C305 C304 1.386 . S
C305 C309 1.393 . S
C306 H298 0.950 . S
C306 C304 1.391 . S
C306 C307 1.400 . S
C307 C306 1.400 . S
C307 C308 1.398 . S
C307 C313 1.491 1_545 S
C308 H299 0.950 . S
C308 C307 1.398 . S
C308 C309 1.391 . S
C309 H297 0.950 . S
C309 C305 1.393 . S
C309 C308 1.391 . S
C310 H300 0.950 . S
C310 C311 1.386 . S
C310 C312 1.391 . S
C311 C310 1.386 . S
C311 C315 1.393 . S
C312 H301 0.950 . S
C312 C310 1.391 . S
C312 C313 1.400 . S
C313 C307 1.491 1_565 S
C313 C312 1.400 . S
C313 C314 1.398 . S
C314 H302 0.950 . S
C314 C313 1.398 . S
C314 C315 1.391 . S
C315 H303 0.950 . S
C315 C311 1.393 . S
C315 C314 1.391 . S
H316 C324 0.950 . S
H317 C329 0.950 . S
H318 C326 0.950 . S
H319 C328 0.950 . S
H320 C330 0.950 . S
H321 C332 0.950 . S
H322 C334 0.950 . S
H323 C335 0.950 . S
C324 H316 0.950 . S
C324 C325 1.390 . S
C324 C326 1.391 . S
C325 C324 1.390 . S
C325 C329 1.388 1_655 S
C326 H318 0.950 . S
C326 C324 1.391 . S
C326 C327 1.401 . S
C327 C326 1.401 . S
C327 C328 1.397 1_655 S
C327 C333 1.491 1_644 S
C328 H319 0.950 . S
C328 C327 1.397 1_455 S
C328 C329 1.391 . S
C329 H317 0.950 . S
C329 C325 1.388 1_455 S
C329 C328 1.391 . S
C330 H320 0.950 . S
C330 C331 1.394 . S
C330 C332 1.391 . S
C331 C330 1.394 . S
C331 C335 1.385 1_455 S
C332 H321 0.950 . S
C332 C330 1.391 . S
C332 C333 1.405 . S
C333 C327 1.491 1_466 S
C333 C332 1.405 . S
C333 C334 1.394 1_455 S
C334 H322 0.950 . S
C334 C333 1.394 1_655 S
C334 C335 1.391 . S
C335 H323 0.950 . S
C335 C331 1.385 1_655 S
C335 C334 1.391 . S
H336 C344 0.950 . S
H337 C349 0.950 . S
H338 C346 0.950 . S
H339 C348 0.950 1_545 S
H340 C350 0.950 . S
H341 C352 0.950 . S
H342 C354 0.950 1_565 S
H343 C355 0.950 . S
C344 H336 0.950 . S
C344 C345 1.386 . S
C344 C346 1.391 . S
C345 C344 1.386 . S
C345 C349 1.393 . S
C346 H338 0.950 . S
C346 C344 1.391 . S
C346 C347 1.400 . S
C347 C346 1.400 . S
C347 C348 1.398 . S
C347 C353 1.491 1_565 S
C348 H339 0.950 1_565 S
C348 C347 1.398 . S
C348 C349 1.391 . S
C349 H337 0.950 . S
C349 C345 1.393 . S
C349 C348 1.391 . S
C350 H340 0.950 . S
C350 C351 1.386 . S
C350 C352 1.391 . S
C351 C350 1.386 . S
C351 C355 1.393 . S
C352 H341 0.950 . S
C352 C350 1.391 . S
C352 C353 1.400 . S
C353 C347 1.491 1_545 S
C353 C352 1.400 . S
C353 C354 1.398 . S
C354 H342 0.950 1_545 S
C354 C353 1.398 . S
C354 C355 1.391 . S
C355 H343 0.950 . S
C355 C351 1.393 . S
C355 C354 1.391 . S
H356 C364 0.950 . S
H357 C369 0.950 . S
H358 C366 0.950 1_545 S
H359 C368 0.950 . S
H360 C370 0.950 . S
H361 C372 0.950 1_565 S
H362 C374 0.950 . S
H363 C375 0.950 . S
C364 H356 0.950 . S
C364 C365 1.386 . S
C364 C366 1.391 . S
C365 C364 1.386 . S
C365 C369 1.393 . S
C366 H358 0.950 1_565 S
C366 C364 1.391 . S
C366 C367 1.400 . S
C367 C366 1.400 . S
C367 C368 1.398 . S
C367 C373 1.491 1_565 S
C368 H359 0.950 . S
C368 C367 1.398 . S
C368 C369 1.391 . S
C369 H357 0.950 . S
C369 C365 1.393 . S
C369 C368 1.391 . S
C370 H360 0.950 . S
C370 C371 1.386 . S
C370 C372 1.391 . S
C371 C370 1.386 . S
C371 C375 1.393 . S
C372 H361 0.950 1_545 S
C372 C370 1.391 . S
C372 C373 1.400 . S
C373 C367 1.491 1_545 S
C373 C372 1.400 . S
C373 C374 1.398 . S
C374 H362 0.950 . S
C374 C373 1.398 . S
C374 C375 1.391 . S
C375 H363 0.950 . S
C375 C371 1.393 . S
C375 C374 1.391 . S
H376 C384 0.950 . S
H377 C389 0.950 . S
H378 C386 0.950 . S
H379 C388 0.950 1_565 S
H380 C390 0.950 . S
H381 C392 0.950 . S
H382 C394 0.950 1_545 S
H383 C395 0.950 . S
C384 H376 0.950 . S
C384 C385 1.386 . S
C384 C386 1.391 . S
C385 C384 1.386 . S
C385 C389 1.393 . S
C386 H378 0.950 . S
C386 C384 1.391 . S
C386 C387 1.400 . S
C387 C386 1.400 . S
C387 C388 1.398 . S
C387 C393 1.491 1_545 S
C388 H379 0.950 1_545 S
C388 C387 1.398 . S
C388 C389 1.391 . S
C389 H377 0.950 . S
C389 C385 1.393 . S
C389 C388 1.391 . S
C390 H380 0.950 . S
C390 C391 1.386 . S
C390 C392 1.391 . S
C391 C390 1.386 . S
C391 C395 1.393 . S
C392 H381 0.950 . S
C392 C390 1.391 . S
C392 C393 1.400 . S
C393 C387 1.491 1_565 S
C393 C392 1.400 . S
C393 C394 1.398 . S
C394 H382 0.950 1_565 S
C394 C393 1.398 . S
C394 C395 1.391 . S
C395 H383 0.950 . S
C395 C391 1.393 . S
C395 C394 1.391 . S
H396 C404 0.950 . S
H397 C409 0.950 . S
H398 C406 0.950 1_545 S
H399 C408 0.950 . S
H400 C410 0.950 . S
H401 C412 0.950 1_565 S
H402 C414 0.950 . S
H403 C415 0.950 . S
C404 H396 0.950 . S
C404 C405 1.386 . S
C404 C406 1.391 . S
C405 C404 1.386 . S
C405 C409 1.393 . S
C406 H398 0.950 1_565 S
C406 C404 1.391 . S
C406 C407 1.400 . S
C407 C406 1.400 . S
C407 C408 1.398 . S
C407 C413 1.491 1_565 S
C408 H399 0.950 . S
C408 C407 1.398 . S
C408 C409 1.391 . S
C409 H397 0.950 . S
C409 C405 1.393 . S
C409 C408 1.391 . S
C410 H400 0.950 . S
C410 C411 1.386 . S
C410 C412 1.391 . S
C411 C410 1.386 . S
C411 C415 1.393 . S
C412 H401 0.950 1_545 S
C412 C410 1.391 . S
C412 C413 1.400 . S
C413 C407 1.491 1_545 S
C413 C412 1.400 . S
C413 C414 1.398 . S
C414 H402 0.950 . S
C414 C413 1.398 . S
C414 C415 1.391 . S
C415 H403 0.950 . S
C415 C411 1.393 . S
C415 C414 1.391 . S
H416 C424 0.950 . S
H417 C429 0.950 . S
H418 C426 0.950 . S
H419 C428 0.950 1_545 S
H420 C430 0.950 . S
H421 C432 0.950 . S
H422 C434 0.950 1_565 S
H423 C435 0.950 . S
C424 H416 0.950 . S
C424 C425 1.386 . S
C424 C426 1.391 . S
C425 C424 1.386 . S
C425 C429 1.393 . S
C426 H418 0.950 . S
C426 C424 1.391 . S
C426 C427 1.400 . S
C427 C426 1.400 . S
C427 C428 1.398 . S
C427 C433 1.491 1_565 S
C428 H419 0.950 1_565 S
C428 C427 1.398 . S
C428 C429 1.391 . S
C429 H417 0.950 . S
C429 C425 1.393 . S
C429 C428 1.391 . S
C430 H420 0.950 . S
C430 C431 1.386 . S
C430 C432 1.391 . S
C431 C430 1.386 . S
C431 C435 1.393 . S
C432 H421 0.950 . S
C432 C430 1.391 . S
C432 C433 1.400 . S
C433 C427 1.491 1_545 S
C433 C432 1.400 . S
C433 C434 1.398 . S
C434 H422 0.950 1_545 S
C434 C433 1.398 . S
C434 C435 1.391 . S
C435 H423 0.950 . S
C435 C431 1.393 . S
C435 C434 1.391 . S
H436 C444 0.950 . S
H437 C449 0.950 . S
H438 C446 0.952 . S
H439 C448 0.950 . S
H440 C450 0.950 . S
H441 C452 0.950 1_545 S
H442 C454 0.950 . S
H443 C455 0.950 . S
C444 H436 0.950 . S
C444 C445 1.386 . S
C444 C446 1.391 . S
C445 C444 1.386 . S
C445 C449 1.393 . S
C446 H438 0.952 . S
C446 C444 1.391 . S
C446 C447 1.400 . S
C447 C446 1.400 . S
C447 C448 1.398 . S
C447 C453 1.491 1_545 S
C448 H439 0.950 . S
C448 C447 1.398 . S
C448 C449 1.391 . S
C449 H437 0.950 . S
C449 C445 1.393 . S
C449 C448 1.391 . S
C450 H440 0.950 . S
C450 C451 1.386 . S
C450 C452 1.391 . S
C451 C450 1.386 . S
C451 C455 1.393 . S
C452 H441 0.950 1_565 S
C452 C450 1.391 . S
C452 C453 1.400 . S
C453 C447 1.491 1_565 S
C453 C452 1.400 . S
C453 C454 1.398 . S
C454 H442 0.950 . S
C454 C453 1.398 . S
C454 C455 1.391 . S
C455 H443 0.950 . S
C455 C451 1.393 . S
C455 C454 1.391 . S
H456 C464 0.950 . S
H457 C469 0.950 . S
H458 C466 0.950 1_545 S
H459 C468 0.950 . S
H460 C470 0.950 . S
H461 C472 0.950 1_565 S
H462 C474 0.950 . S
H463 C475 0.950 . S
C464 H456 0.950 . S
C464 C465 1.386 . S
C464 C466 1.391 . S
C465 C464 1.386 . S
C465 C469 1.393 . S
C466 H458 0.950 1_565 S
C466 C464 1.391 . S
C466 C467 1.400 . S
C467 C466 1.400 . S
C467 C468 1.398 . S
C467 C473 1.491 1_565 S
C468 H459 0.950 . S
C468 C467 1.398 . S
C468 C469 1.391 . S
C469 H457 0.950 . S
C469 C465 1.393 . S
C469 C468 1.391 . S
C470 H460 0.950 . S
C470 C471 1.386 . S
C470 C472 1.391 . S
C471 C470 1.386 . S
C471 C475 1.393 . S
C472 H461 0.950 1_545 S
C472 C470 1.391 . S
C472 C473 1.400 . S
C473 C467 1.491 1_545 S
C473 C472 1.400 . S
C473 C474 1.398 . S
C474 H462 0.950 . S
C474 C473 1.398 . S
C474 C475 1.391 . S
C475 H463 0.950 . S
C475 C471 1.393 . S
C475 C474 1.391 . S
H476 C484 0.950 . S
H477 C489 0.950 . S
H478 C486 0.950 1_545 S
H479 C488 0.950 . S
H480 C490 0.950 . S
H481 C492 0.950 1_565 S
H482 C494 0.950 . S
H483 C495 0.950 . S
C484 H476 0.950 . S
C484 C485 1.386 . S
C484 C486 1.391 . S
C485 C484 1.386 . S
C485 C489 1.393 . S
C486 H478 0.950 1_565 S
C486 C484 1.391 . S
C486 C487 1.400 . S
C487 C486 1.400 . S
C487 C488 1.398 . S
C487 C493 1.491 1_565 S
C488 H479 0.950 . S
C488 C487 1.398 . S
C488 C489 1.391 . S
C489 H477 0.950 . S
C489 C485 1.393 . S
C489 C488 1.391 . S
C490 H480 0.950 . S
C490 C491 1.386 . S
C490 C492 1.391 . S
C491 C490 1.386 . S
C491 C495 1.393 . S
C492 H481 0.950 1_545 S
C492 C490 1.391 . S
C492 C493 1.400 . S
C493 C487 1.491 1_545 S
C493 C492 1.400 . S
C493 C494 1.398 . S
C494 H482 0.950 . S
C494 C493 1.398 . S
C494 C495 1.391 . S
C495 H483 0.950 . S
C495 C491 1.393 . S
C495 C494 1.391 . S
H496 C504 0.950 . S
H497 C509 0.950 . S
H498 C506 0.950 . S
H499 C508 0.950 . S
H500 C510 0.950 . S
H501 C512 0.950 . S
H502 C514 0.950 . S
H503 C515 0.950 . S
C504 H496 0.950 . S
C504 C505 1.386 . S
C504 C506 1.391 . S
C505 C504 1.386 . S
C505 C509 1.393 . S
C506 H498 0.950 . S
C506 C504 1.391 . S
C506 C507 1.400 . S
C507 C506 1.400 . S
C507 C508 1.398 . S
C507 C513 1.491 . S
C508 H499 0.950 . S
C508 C507 1.398 . S
C508 C509 1.391 . S
C509 H497 0.950 . S
C509 C505 1.393 . S
C509 C508 1.391 . S
C510 H500 0.950 . S
C510 C511 1.386 . S
C510 C512 1.391 . S
C511 C510 1.386 . S
C511 C515 1.393 . S
C512 H501 0.950 . S
C512 C510 1.391 . S
C512 C513 1.400 . S
C513 C507 1.491 . S
C513 C512 1.400 . S
C513 C514 1.398 . S
C514 H502 0.950 . S
C514 C513 1.398 . S
C514 C515 1.391 . S
C515 H503 0.950 . S
C515 C511 1.393 . S
C515 C514 1.391 . S
H516 C524 0.950 . S
H517 C529 0.950 . S
H518 C526 0.950 . S
H519 C528 0.950 . S
H520 C530 0.950 . S
H521 C532 0.950 . S
H522 C534 0.950 . S
H523 C535 0.950 . S
C524 H516 0.950 . S
C524 C525 1.386 . S
C524 C526 1.391 . S
C525 C524 1.386 . S
C525 C529 1.393 . S
C526 H518 0.950 . S
C526 C524 1.391 . S
C526 C527 1.400 . S
C527 C526 1.400 . S
C527 C528 1.398 . S
C527 C533 1.491 . S
C528 H519 0.950 . S
C528 C527 1.398 . S
C528 C529 1.391 . S
C529 H517 0.950 . S
C529 C525 1.393 . S
C529 C528 1.391 . S
C530 H520 0.950 . S
C530 C531 1.386 . S
C530 C532 1.391 . S
C531 C530 1.386 . S
C531 C535 1.393 . S
C532 H521 0.950 . S
C532 C530 1.391 . S
C532 C533 1.400 . S
C533 C527 1.491 . S
C533 C532 1.400 . S
C533 C534 1.398 . S
C534 H522 0.950 . S
C534 C533 1.398 . S
C534 C535 1.391 . S
C535 H523 0.950 . S
C535 C531 1.393 . S
C535 C534 1.391 . S
H536 C544 0.950 . S
H537 C549 0.950 . S
H538 C546 0.950 . S
H539 C548 0.950 . S
H540 C550 0.950 . S
H541 C552 0.950 . S
H542 C554 0.950 . S
H543 C555 0.950 . S
C544 H536 0.950 . S
C544 C545 1.386 . S
C544 C546 1.391 . S
C545 C544 1.386 . S
C545 C549 1.393 . S
C546 H538 0.950 . S
C546 C544 1.391 . S
C546 C547 1.400 . S
C547 C546 1.400 . S
C547 C548 1.398 . S
C547 C553 1.491 . S
C548 H539 0.950 . S
C548 C547 1.398 . S
C548 C549 1.391 . S
C549 H537 0.950 . S
C549 C545 1.393 . S
C549 C548 1.391 . S
C550 H540 0.950 . S
C550 C551 1.386 . S
C550 C552 1.391 . S
C551 C550 1.386 . S
C551 C555 1.393 . S
C552 H541 0.950 . S
C552 C550 1.391 . S
C552 C553 1.400 . S
C553 C547 1.491 . S
C553 C552 1.400 . S
C553 C554 1.398 . S
C554 H542 0.950 . S
C554 C553 1.398 . S
C554 C555 1.391 . S
C555 H543 0.950 . S
C555 C551 1.393 . S
C555 C554 1.391 . S
H556 C564 0.950 . S
H557 C569 0.950 . S
H558 C566 0.950 . S
H559 C568 0.950 . S
H560 C570 0.950 . S
H561 C572 0.950 . S
H562 C574 0.950 . S
H563 C575 0.950 . S
C564 H556 0.950 . S
C564 C565 1.386 . S
C564 C566 1.391 . S
C565 C564 1.386 . S
C565 C569 1.393 . S
C566 H558 0.950 . S
C566 C564 1.391 . S
C566 C567 1.400 . S
C567 C566 1.400 . S
C567 C568 1.398 . S
C567 C573 1.491 . S
C568 H559 0.950 . S
C568 C567 1.398 . S
C568 C569 1.391 . S
C569 H557 0.950 . S
C569 C565 1.393 . S
C569 C568 1.391 . S
C570 H560 0.950 . S
C570 C571 1.386 . S
C570 C572 1.391 . S
C571 C570 1.386 . S
C571 C575 1.393 . S
C572 H561 0.950 . S
C572 C570 1.391 . S
C572 C573 1.400 . S
C573 C567 1.491 . S
C573 C572 1.400 . S
C573 C574 1.398 . S
C574 H562 0.950 . S
C574 C573 1.398 . S
C574 C575 1.391 . S
C575 H563 0.950 . S
C575 C571 1.393 . S
C575 C574 1.391 . S
H576 C584 0.950 . S
H577 C589 0.950 . S
H578 C586 0.950 . S
H579 C588 0.950 . S
H580 C590 0.950 . S
H581 C592 0.950 . S
H582 C594 0.950 . S
H583 C595 0.950 . S
C584 H576 0.950 . S
C584 C585 1.386 . S
C584 C586 1.391 . S
C585 C584 1.386 . S
C585 C589 1.393 . S
C586 H578 0.950 . S
C586 C584 1.391 . S
C586 C587 1.400 . S
C587 C586 1.400 . S
C587 C588 1.398 . S
C587 C593 1.491 . S
C588 H579 0.950 . S
C588 C587 1.398 . S
C588 C589 1.391 . S
C589 H577 0.950 . S
C589 C585 1.393 . S
C589 C588 1.391 . S
C590 H580 0.950 . S
C590 C591 1.386 . S
C590 C592 1.391 . S
C591 C590 1.386 . S
C591 C595 1.393 . S
C592 H581 0.950 . S
C592 C590 1.391 . S
C592 C593 1.400 . S
C593 C587 1.491 . S
C593 C592 1.400 . S
C593 C594 1.398 . S
C594 H582 0.950 . S
C594 C593 1.398 . S
C594 C595 1.391 . S
C595 H583 0.950 . S
C595 C591 1.393 . S
C595 C594 1.391 . S
H596 C604 0.950 . S
H597 C609 0.950 . S
H598 C606 0.950 . S
H599 C608 0.950 . S
H600 C610 0.950 . S
H601 C612 0.950 . S
H602 C614 0.950 . S
H603 C615 0.950 . S
C604 H596 0.950 . S
C604 C605 1.386 . S
C604 C606 1.391 . S
C605 C604 1.386 . S
C605 C609 1.393 . S
C606 H598 0.950 . S
C606 C604 1.391 . S
C606 C607 1.400 . S
C607 C606 1.400 . S
C607 C608 1.398 . S
C607 C613 1.491 . S
C608 H599 0.950 . S
C608 C607 1.398 . S
C608 C609 1.391 . S
C609 H597 0.950 . S
C609 C605 1.393 . S
C609 C608 1.391 . S
C610 H600 0.950 . S
C610 C611 1.386 . S
C610 C612 1.391 . S
C611 C610 1.386 . S
C611 C615 1.393 . S
C612 H601 0.950 . S
C612 C610 1.391 . S
C612 C613 1.400 . S
C613 C607 1.491 . S
C613 C612 1.400 . S
C613 C614 1.398 . S
C614 H602 0.950 . S
C614 C613 1.398 . S
C614 C615 1.391 . S
C615 H603 0.950 . S
C615 C611 1.393 . S
C615 C614 1.391 . S
H616 C624 0.950 . S
H617 C629 0.950 . S
H618 C626 0.950 . S
H619 C628 0.950 . S
H620 C630 0.950 . S
H621 C632 0.950 . S
H622 C634 0.950 . S
H623 C635 0.950 . S
C624 H616 0.950 . S
C624 C625 1.386 . S
C624 C626 1.391 . S
C625 C624 1.386 . S
C625 C629 1.393 . S
C626 H618 0.950 . S
C626 C624 1.391 . S
C626 C627 1.400 . S
C627 C626 1.400 . S
C627 C628 1.398 . S
C627 C633 1.491 . S
C628 H619 0.950 . S
C628 C627 1.398 . S
C628 C629 1.391 . S
C629 H617 0.950 . S
C629 C625 1.393 . S
C629 C628 1.391 . S
C630 H620 0.950 . S
C630 C631 1.386 . S
C630 C632 1.391 . S
C631 C630 1.386 . S
C631 C635 1.393 . S
C632 H621 0.950 . S
C632 C630 1.391 . S
C632 C633 1.400 . S
C633 C627 1.491 . S
C633 C632 1.400 . S
C633 C634 1.398 . S
C634 H622 0.950 . S
C634 C633 1.398 . S
C634 C635 1.391 . S
C635 H623 0.950 . S
C635 C631 1.393 . S
C635 C634 1.391 . S
H636 C644 0.950 . S
H637 C649 0.950 . S
H638 C646 0.950 . S
H639 C648 0.950 . S
H640 C650 0.950 . S
H641 C652 0.950 . S
H642 C654 0.950 . S
H643 C655 0.950 . S
C644 H636 0.950 . S
C644 C645 1.386 . S
C644 C646 1.391 . S
C645 C644 1.386 . S
C645 C649 1.393 . S
C646 H638 0.950 . S
C646 C644 1.391 . S
C646 C647 1.400 . S
C647 C646 1.400 . S
C647 C648 1.398 . S
C647 C653 1.491 . S
C648 H639 0.950 . S
C648 C647 1.398 . S
C648 C649 1.391 . S
C649 H637 0.950 . S
C649 C645 1.393 . S
C649 C648 1.391 . S
C650 H640 0.950 . S
C650 C651 1.386 . S
C650 C652 1.391 . S
C651 C650 1.386 . S
C651 C655 1.393 . S
C652 H641 0.950 . S
C652 C650 1.391 . S
C652 C653 1.400 . S
C653 C647 1.491 . S
C653 C652 1.400 . S
C653 C654 1.398 . S
C654 H642 0.950 . S
C654 C653 1.398 . S
C654 C655 1.391 . S
C655 H643 0.950 . S
C655 C651 1.393 . S
C655 C654 1.391 . S
C185 C7 1.471 . S
C191 C97 1.471 . S
C205 C119 1.470 . S
C211 C29 1.472 . S
C225 C49 1.470 . S
C231 C138 1.470 . S
C245 C71 1.458 . S
C251 C160 1.460 . S
C265 C73 1.471 . S
C271 C163 1.469 . S
C285 C116 1.465 . S
C291 C27 1.463 . S
C305 C141 1.471 . S
C311 C51 1.471 . S
C325 C5 1.454 1_655 S
C331 C94 1.454 . S
C345 C115 1.500 . S
C351 C4 1.500 . S
C365 C26 1.496 . S
C371 C140 1.493 . S
C385 C162 1.499 . S
C391 C53 1.501 . S
C405 C93 1.493 . S
C411 C75 1.504 . S
C425 C92 1.499 . S
C431 C72 1.504 . S
C445 C158 1.495 . S
C451 C52 1.506 . S
C465 C30 1.506 . S
C471 C139 1.492 . S
C485 C117 1.503 . S
C491 C6 1.499 . S
C505 C159 1.500 . S
C511 C48 1.502 . S
C525 C96 1.501 . S
C531 C70 1.492 . S
C545 C118 1.501 . S
C551 C9 1.492 . S
C565 C31 1.491 . S
C571 C137 1.507 . S
C585 C136 1.501 . S
C591 C28 1.499 . S
C605 C8 1.496 . S
C611 C114 1.493 . S
C625 C95 1.504 . S
C631 C74 1.495 . S
C645 C161 1.491 . S
C651 C50 1.505 . S
