# Generated by pormake.
# Topology fcu, (12)-cn, num edge types: 1
# Building blocks:
#     Node 0, Type 0, BuildingBlock: EZIPEK_clean_sbu_0, # of connection points: 12
#     Node 1, Type 0, BuildingBlock: EZIPEK_clean_sbu_0, # of connection points: 12
#     Node 2, Type 0, BuildingBlock: EZIPEK_clean_sbu_0, # of connection points: 12
#     Node 3, Type 0, BuildingBlock: EZIPEK_clean_sbu_0, # of connection points: 12
#     Edge 4, Type (0, 0), BuildingBlock: CIFDUS_clean_linker_0, # of connection points: 2
#     Edge 5, Type (0, 0), BuildingBlock: CIFDUS_clean_linker_0, # of connection points: 2
#     Edge 6, Type (0, 0), BuildingBlock: CIFDUS_clean_linker_0, # of connection points: 2
#     Edge 7, Type (0, 0), BuildingBlock: CIFDUS_clean_linker_0, # of connection points: 2
#     Edge 8, Type (0, 0), BuildingBlock: CIFDUS_clean_linker_0, # of connection points: 2
#     Edge 9, Type (0, 0), BuildingBlock: CIFDUS_clean_linker_0, # of connection points: 2
#     Edge 10, Type (0, 0), BuildingBlock: CIFDUS_clean_linker_0, # of connection points: 2
#     Edge 11, Type (0, 0), BuildingBlock: CIFDUS_clean_linker_0, # of connection points: 2
#     Edge 12, Type (0, 0), BuildingBlock: CIFDUS_clean_linker_0, # of connection points: 2
#     Edge 13, Type (0, 0), BuildingBlock: CIFDUS_clean_linker_0, # of connection points: 2
#     Edge 14, Type (0, 0), BuildingBlock: CIFDUS_clean_linker_0, # of connection points: 2
#     Edge 15, Type (0, 0), BuildingBlock: CIFDUS_clean_linker_0, # of connection points: 2
#     Edge 16, Type (0, 0), BuildingBlock: CIFDUS_clean_linker_0, # of connection points: 2
#     Edge 17, Type (0, 0), BuildingBlock: CIFDUS_clean_linker_0, # of connection points: 2
#     Edge 18, Type (0, 0), BuildingBlock: CIFDUS_clean_linker_0, # of connection points: 2
#     Edge 19, Type (0, 0), BuildingBlock: CIFDUS_clean_linker_0, # of connection points: 2
#     Edge 20, Type (0, 0), BuildingBlock: CIFDUS_clean_linker_0, # of connection points: 2
#     Edge 21, Type (0, 0), BuildingBlock: CIFDUS_clean_linker_0, # of connection points: 2
#     Edge 22, Type (0, 0), BuildingBlock: CIFDUS_clean_linker_0, # of connection points: 2
#     Edge 23, Type (0, 0), BuildingBlock: CIFDUS_clean_linker_0, # of connection points: 2
#     Edge 24, Type (0, 0), BuildingBlock: CIFDUS_clean_linker_0, # of connection points: 2
#     Edge 25, Type (0, 0), BuildingBlock: CIFDUS_clean_linker_0, # of connection points: 2
#     Edge 26, Type (0, 0), BuildingBlock: CIFDUS_clean_linker_0, # of connection points: 2
#     Edge 27, Type (0, 0), BuildingBlock: CIFDUS_clean_linker_0, # of connection points: 2
# Relax obj value: 0.000
# Max RMSD: 0.000
# Mean RMSD: 0.000
data_MOF--net-fcu--node1-EZIPEK_clean_sbu_0--edge1-CIFDUS_clean_linker_0
_symmetry_space_group_name_H-M    P1
_symmetry_Int_Tables_number       1
_symmetry_cell_setting            triclinic
loop_
_symmetry_equiv_pos_as_xyz
'x, y, z'
_cell_length_a     24.1611
_cell_length_b     24.186001
_cell_length_c     24.388574
_cell_angle_alpha  89.983604
_cell_angle_beta   90.025816
_cell_angle_gamma 90.016698
loop_
_atom_site_label
_atom_site_type_symbol
_atom_site_fract_x
_atom_site_fract_y
_atom_site_fract_z
_atom_type_partial_charge
C0 C 0.02255 0.87645 0.13771 0.0
C1 C 0.01648 0.88069 0.87149 0.0
C2 C 1.00162 0.14961 0.13646 0.0
C3 C 1.00603 0.1428 0.87017 0.0
C4 C 0.86881 0.13576 1.0054 0.0
C5 C 0.88948 0.86832 1.00759 0.0
C6 C 0.13625 0.15579 1.00808 0.0
C7 C 0.15658 0.88866 1.0056 0.0
C8 C 0.14263 0.02298 0.8715 0.0
C9 C 0.87553 1.00086 0.87693 0.0
C10 C 0.14271 0.02378 0.14342 0.0
C11 C 0.87453 1.00618 0.13679 0.0
Eu12 Eu 0.02044 0.90805 1.00564 0.0
O13 O 0.96612 0.95886 0.95798 0.0
O14 O 0.06377 0.9677 0.05573 0.0
Eu15 Eu 0.90849 1.00441 1.00685 0.0
Eu16 Eu 0.11713 0.0199 1.00728 0.0
O17 O 0.96693 0.95917 0.05556 0.0
O18 O 0.06527 0.96716 0.95758 0.0
Eu19 Eu 1.01022 0.01272 0.11142 0.0
Eu20 Eu 1.0104 1.0119 0.90382 0.0
O21 O 0.95967 0.05836 0.05478 0.0
O22 O 0.95796 0.05848 0.95702 0.0
O23 O 0.05763 0.06405 0.95786 0.0
O24 O 0.05617 0.06419 0.05472 0.0
Eu25 Eu 1.00455 0.11674 1.00463 0.0
O26 O 0.02539 0.86157 0.0852 0.0
O27 O 0.02096 0.86229 0.92316 0.0
O28 O 1.00062 0.16418 0.08377 0.0
O29 O 1.00402 0.16176 0.92177 0.0
O30 O 0.85607 0.08205 1.00624 0.0
O31 O 0.86884 0.91953 1.00804 0.0
O32 O 0.15699 0.10461 0.00856 0.0
O33 O 0.16954 0.94231 1.00698 0.0
O34 O 0.08983 0.01773 0.85688 0.0
O35 O 0.92743 1.00723 0.85879 0.0
O36 O 0.0898 0.02057 0.15843 0.0
O37 O 0.92656 1.00919 0.15569 0.0
O38 O 0.08254 0.16865 1.00642 0.0
O39 O 0.91996 0.15656 1.00428 0.0
O40 O 0.10527 0.86813 1.00454 0.0
O41 O 0.94315 0.85543 1.00688 0.0
O42 O 1.01292 0.93329 0.8566 0.0
O43 O 1.00743 0.08999 0.85573 0.0
O44 O 0.01621 0.92857 0.156 0.0
O45 O 1.00521 0.09737 0.15518 0.0
O46 O 0.86015 1.00322 0.08442 0.0
O47 O 0.86046 0.99831 0.92913 0.0
O48 O 0.1614 0.02301 0.09141 0.0
O49 O 0.16153 0.02426 0.92342 0.0
C50 C 0.9963 0.38217 0.64578 0.0
C51 C 0.03095 0.64307 0.64591 0.0
C52 C 1.00765 0.37577 0.37916 0.0
C53 C 0.01747 0.64993 0.37947 0.0
C54 C 0.14868 0.50175 0.37772 0.0
C55 C 0.14904 0.49776 0.63999 0.0
C56 C 0.87742 0.52413 0.37848 0.0
C57 C 0.87815 0.52617 0.64087 0.0
C58 C 0.89192 0.65768 0.51243 0.0
C59 C 0.15819 0.63462 0.50925 0.0
C60 C 0.86877 0.39111 0.50794 0.0
C61 C 0.13511 0.36808 0.51046 0.0
Eu62 Eu 0.01362 0.51261 0.6146 0.0
O63 O 0.06652 0.55732 0.55932 0.0
O64 O 0.96042 0.46799 0.55954 0.0
Eu65 Eu 0.11617 0.50402 0.5092 0.0
Eu66 Eu 0.91063 0.52167 0.50987 0.0
O67 O 0.05842 0.45938 0.5596 0.0
O68 O 0.96867 0.56616 0.56001 0.0
Eu69 Eu 1.0045 0.40865 0.51131 0.0
Eu70 Eu 0.02238 0.61691 0.51145 0.0
O71 O 0.0566 0.46015 0.46078 0.0
O72 O 0.06555 0.558 0.46025 0.0
O73 O 0.96998 0.56548 0.46115 0.0
O74 O 0.96119 0.46793 0.46067 0.0
Eu75 Eu 0.01314 0.51289 0.40371 0.0
O76 O 1.00196 0.43439 0.66147 0.0
O77 O 0.02583 0.59077 0.66161 0.0
O78 O 1.00987 0.42803 0.36019 0.0
O79 O 0.01561 0.59773 0.36041 0.0
O80 O 0.16323 0.49881 0.43023 0.0
O81 O 0.16389 0.4982 0.58754 0.0
O82 O 0.86326 0.52702 0.43108 0.0
O83 O 0.86309 0.52659 0.58845 0.0
O84 O 0.94563 0.67023 0.51396 0.0
O85 O 0.10727 0.6559 0.50932 0.0
O86 O 0.91966 0.36981 0.50828 0.0
O87 O 0.08144 0.35546 0.51298 0.0
O88 O 0.92922 0.51784 0.35954 0.0
O89 O 0.09682 0.50831 0.359 0.0
O90 O 0.93028 0.52148 0.65938 0.0
O91 O 0.09702 0.50233 0.65871 0.0
O92 O 0.02936 0.66152 0.59409 0.0
O93 O 0.02072 0.66446 0.43211 0.0
O94 O 0.99736 0.36383 0.5939 0.0
O95 O 1.00493 0.36129 0.43186 0.0
O96 O 0.15577 0.4192 0.50816 0.0
O97 O 0.17019 0.58075 0.50941 0.0
O98 O 0.85672 0.44494 0.50893 0.0
O99 O 0.87115 0.6066 0.51017 0.0
C100 C 0.50925 0.88769 0.64975 0.0
C101 C 0.51996 0.15445 0.63395 0.0
C102 C 0.51028 0.87221 0.38269 0.0
C103 C 0.5126 0.14372 0.37198 0.0
C104 C 0.65164 1.00069 0.37858 0.0
C105 C 0.65154 0.01785 0.63817 0.0
C106 C 0.38279 1.01095 0.37217 0.0
C107 C 0.3837 0.02023 0.64432 0.0
C108 C 0.38693 0.1537 0.50458 0.0
C109 C 0.65461 0.13943 0.50132 0.0
C110 C 0.3727 0.88654 0.51258 0.0
C111 C 0.64011 0.87206 0.51569 0.0
Eu112 Eu 0.51624 0.01892 0.61206 0.0
O113 O 0.56681 0.06258 0.55489 0.0
O114 O 0.46314 0.97017 0.55953 0.0
Eu115 Eu 0.61806 1.00752 0.50851 0.0
Eu116 Eu 0.40898 0.01858 0.50817 0.0
O117 O 0.56149 0.96337 0.56021 0.0
O118 O 0.46754 0.06673 0.55505 0.0
Eu119 Eu 0.50832 0.9091 0.51426 0.0
Eu120 Eu 0.51936 0.11686 0.5039 0.0
O121 O 0.56032 0.95911 0.46219 0.0
O122 O 0.56666 0.05813 0.45684 0.0
O123 O 0.46818 0.06143 0.45736 0.0
O124 O 0.46366 0.96551 0.46203 0.0
Eu125 Eu 0.51594 1.00877 0.40377 0.0
O126 O 0.51416 0.94099 0.66278 0.0
O127 O 0.51765 0.10297 0.65375 0.0
O128 O 0.51375 0.92376 0.36274 0.0
O129 O 0.51445 0.09079 0.35537 0.0
O130 O 0.66609 1.00011 0.43103 0.0
O131 O 0.66665 0.01289 0.58612 0.0
O132 O 0.36434 0.0168 0.42398 0.0
O133 O 0.36466 0.02019 0.59239 0.0
O134 O 0.44046 0.16725 0.50383 0.0
O135 O 0.60299 0.15909 0.50064 0.0
O136 O 0.42437 0.86703 0.51475 0.0
O137 O 0.58666 0.85833 0.51659 0.0
O138 O 0.43573 1.00696 0.35745 0.0
O139 O 0.59966 1.00464 0.35966 0.0
O140 O 0.43676 0.02096 0.65883 0.0
O141 O 0.59943 0.01972 0.65665 0.0
O142 O 0.52167 0.16782 0.58103 0.0
O143 O 0.51474 0.161 0.4236 0.0
O144 O 0.50576 0.86773 0.5986 0.0
O145 O 0.50742 0.85894 0.43581 0.0
O146 O 0.65987 0.9236 0.51325 0.0
O147 O 0.66845 0.08609 0.50363 0.0
O148 O 0.35873 0.93985 0.50999 0.0
O149 O 0.36694 0.10224 0.50604 0.0
C150 C 0.50496 0.63893 0.86782 0.0
C151 C 0.50851 0.65196 0.13554 0.0
C152 C 0.51759 0.37141 0.88122 0.0
C153 C 0.52677 0.38036 0.14397 0.0
C154 C 0.65485 0.38746 0.00939 0.0
C155 C 0.63782 0.65399 1.00211 0.0
C156 C 0.3881 0.37024 0.01515 0.0
C157 C 0.37131 0.63683 1.00534 0.0
C158 C 0.37858 0.51399 0.14154 0.0
C159 C 0.65083 0.51945 0.13803 0.0
C160 C 0.37546 0.50389 0.87942 0.0
C161 C 0.64779 0.50972 0.87584 0.0
Eu162 Eu 0.5067 0.61577 1.0034 0.0
O163 O 0.55869 0.56552 0.05543 0.0
O164 O 0.46123 0.55513 0.95761 0.0
Eu165 Eu 0.61605 0.51864 1.00701 0.0
Eu166 Eu 0.41019 0.50542 0.01013 0.0
O167 O 0.55836 0.56182 0.95549 0.0
O168 O 0.46309 0.55918 0.05632 0.0
Eu169 Eu 0.51194 0.50695 0.90281 0.0
Eu170 Eu 0.51434 0.51535 0.11457 0.0
O171 O 0.56416 0.4642 0.96019 0.0
O172 O 0.56478 0.46834 0.05867 0.0
O173 O 0.46782 0.46123 0.06116 0.0
O174 O 0.46656 0.45773 0.96113 0.0
Eu175 Eu 0.51949 0.4083 0.01191 0.0
O176 O 0.50365 0.65824 0.91937 0.0
O177 O 0.50555 0.66528 0.08238 0.0
O178 O 0.52013 0.35801 0.93416 0.0
O179 O 0.52836 0.36402 0.09197 0.0
O180 O 0.66799 0.44098 0.00878 0.0
O181 O 0.65771 0.60256 1.00423 0.0
O182 O 0.36821 0.42167 0.01317 0.0
O183 O 0.3583 0.5833 1.00798 0.0
O184 O 0.43094 0.51516 0.15997 0.0
O185 O 0.59891 0.51843 0.15763 0.0
O186 O 0.42738 0.50418 0.85984 0.0
O187 O 0.59544 0.50731 0.85752 0.0
O188 O 0.4416 0.35683 0.01578 0.0
O189 O 0.60351 0.36722 0.01016 0.0
O190 O 0.42264 0.65706 1.00315 0.0
O191 O 0.58437 0.66742 1.00111 0.0
O192 O 0.51225 0.60041 0.15555 0.0
O193 O 0.51971 0.43262 0.1614 0.0
O194 O 0.50826 0.58575 0.85375 0.0
O195 O 0.51419 0.42283 0.8613 0.0
O196 O 0.66308 0.51474 0.92798 0.0
O197 O 0.66467 0.52071 0.08527 0.0
O198 O 0.36147 0.50325 0.93212 0.0
O199 O 0.36333 0.50988 0.0893 0.0
H200 H 0.02054 0.14915 0.24805 0.0
H201 H 0.97662 0.2575 0.11406 0.0
H202 H 0.97584 0.33626 0.17556 0.0
H203 H 0.98788 0.3761 0.2678 0.0
H204 H 0.03109 0.26777 0.40194 0.0
H205 H 0.03173 0.18885 0.34047 0.0
C206 C 1.01048 0.18986 0.23231 0.0
C207 C 0.99892 0.19669 0.17615 0.0
C208 C 1.01005 0.23582 0.26812 0.0
C209 C 0.98617 0.25029 0.15686 0.0
C210 C 0.98562 0.29583 0.1921 0.0
C211 C 0.99763 0.33532 0.28356 0.0
C212 C 1.00914 0.32849 0.33971 0.0
C213 C 0.99775 0.28931 0.24784 0.0
C214 C 0.02147 0.27486 0.35913 0.0
C215 C 0.022 0.22929 0.3239 0.0
H216 H 0.87702 0.99137 0.24794 0.0
H217 H 0.76554 0.02238 0.11274 0.0
H218 H 0.68708 0.02159 0.17452 0.0
H219 H 0.64911 0.0132 0.26718 0.0
H220 H 0.76049 0.98192 0.40245 0.0
H221 H 0.83886 0.98184 0.34057 0.0
C222 C 0.83564 0.99812 0.23206 0.0
C223 C 0.82761 1.00669 0.17577 0.0
C224 C 0.79009 0.99756 0.26784 0.0
C225 C 0.77339 0.01519 0.15588 0.0
C226 C 0.72814 0.01488 0.19119 0.0
C227 C 0.69042 1.00605 0.2831 0.0
C228 C 0.69842 0.99786 0.33945 0.0
C229 C 0.7359 1.00607 0.24727 0.0
C230 C 0.75258 0.98871 0.35926 0.0
C231 C 0.79781 0.98862 0.32391 0.0
H232 H 0.99688 0.87546 0.24788 0.0
H233 H 0.05717 0.77104 0.11722 0.0
H234 H 0.05934 0.69223 0.17867 0.0
H235 H 0.04381 0.65126 0.26981 0.0
H236 H 0.98466 0.75551 0.40091 0.0
H237 H 0.98243 0.83466 0.33947 0.0
C238 C 1.01083 0.83561 0.23292 0.0
C239 C 0.02644 0.82977 0.17766 0.0
C240 C 1.01205 0.78966 0.26869 0.0
C241 C 0.04427 0.77733 0.15928 0.0
C242 C 0.04564 0.73181 0.19449 0.0
C243 C 0.03018 0.69119 0.28484 0.0
C244 C 0.01471 0.69702 0.34009 0.0
C245 C 0.02931 0.73723 0.24924 0.0
C246 C 0.99746 0.74948 0.35877 0.0
C247 C 0.99601 0.79508 0.32358 0.0
H248 H 0.27423 0.04669 0.36782 0.0
H249 H 0.40155 0.96933 0.27012 0.0
H250 H 0.34108 0.96928 0.19072 0.0
H251 H 0.25143 0.99054 0.14747 0.0
H252 H 0.12331 0.06656 0.24482 0.0
H253 H 0.1842 0.06795 0.32439 0.0
C254 C 0.28857 0.02948 0.32932 0.0
C255 C 0.34272 1.0084 0.3255 0.0
C256 C 0.25337 0.02958 0.28293 0.0
C257 C 0.36041 0.9865 0.27476 0.0
C258 C 0.32577 0.98634 0.2289 0.0
C259 C 0.23707 1.00792 0.18591 0.0
C260 C 0.18273 0.02826 0.1898 0.0
C261 C 0.27222 1.00803 0.23223 0.0
C262 C 0.16478 0.05014 0.2404 0.0
C263 C 0.19962 0.05098 0.28621 0.0
H264 H 0.05845 0.7756 0.8669 0.0
H265 H 0.96944 0.89747 0.77206 0.0
H266 H 0.96989 0.83699 0.69276 0.0
H267 H 0.99422 0.74895 0.64971 0.0
H268 H 0.08124 0.6256 0.74398 0.0
H269 H 0.08344 0.68708 0.82325 0.0
C270 C 0.03886 0.78859 0.829 0.0
C271 C 0.01432 0.84101 0.82551 0.0
C272 C 0.03931 0.75356 0.78297 0.0
C273 C 0.98929 0.85749 0.77589 0.0
C274 C 0.98944 0.82297 0.73029 0.0
C275 C 0.01433 0.73597 0.68736 0.0
C276 C 0.03745 0.68305 0.69102 0.0
C277 C 0.01454 0.77104 0.73318 0.0
C278 C 0.06279 0.66627 0.74031 0.0
C279 C 0.06399 0.70128 0.78575 0.0
H280 H 0.25486 1.00408 0.87032 0.0
H281 H 0.11852 0.05191 0.76617 0.0
H282 H 0.17935 0.0547 0.68709 0.0
H283 H 0.27167 0.04229 0.64579 0.0
H284 H 0.40753 0.99298 0.75015 0.0
H285 H 0.34699 0.99201 0.82922 0.0
C286 C 0.23858 0.01556 0.83046 0.0
C287 C 0.18203 0.02763 0.82472 0.0
C288 C 0.27384 0.01656 0.78435 0.0
C289 C 0.16177 0.04205 0.7723 0.0
C290 C 0.19658 0.04365 0.72664 0.0
C291 C 0.28795 0.03116 0.68573 0.0
C292 C 0.34436 0.01821 0.6914 0.0
C293 C 0.2527 0.03056 0.73192 0.0
C294 C 0.36451 1.00392 0.74395 0.0
C295 C 0.32984 1.00317 0.78966 0.0
H296 H 0.0261 0.27382 0.64756 0.0
H297 H 0.95184 0.40195 0.74618 0.0
H298 H 0.94926 0.34028 0.82511 0.0
H299 H 0.97057 0.25027 0.86737 0.0
H300 H 0.04521 0.1228 0.76792 0.0
H301 H 0.04546 0.1837 0.68898 0.0
C302 C 1.00871 0.28789 0.68611 0.0
C303 C 0.98951 0.34227 0.69101 0.0
C304 C 1.00796 0.2525 0.73171 0.0
C305 C 0.96746 0.36024 0.74144 0.0
C306 C 0.96599 0.32508 0.78674 0.0
C307 C 0.98714 0.23607 0.82852 0.0
C308 C 1.00775 0.1821 0.8238 0.0
C309 C 0.98686 0.2713 0.78264 0.0
C310 C 0.02871 0.1641 0.77289 0.0
C311 C 0.0289 0.19886 0.72745 0.0
H312 H 0.65289 0.98183 0.74363 0.0
H313 H 0.7537 0.06057 0.62021 0.0
H314 H 0.83299 0.06026 0.68199 0.0
H315 H 0.87413 0.03725 0.77117 0.0
H316 H 0.77334 0.95708 0.89396 0.0
H317 H 0.69427 0.95792 0.83235 0.0
C318 C 0.69208 0.99939 0.73062 0.0
C319 C 0.69747 0.02113 0.67768 0.0
C320 C 0.73785 0.99837 0.76602 0.0
C321 C 0.74865 0.04321 0.66087 0.0
C322 C 0.79408 0.04303 0.69608 0.0
C323 C 0.83503 0.0195 0.78416 0.0
C324 C 0.82971 0.99749 0.83707 0.0
C325 C 0.78933 0.02032 0.74863 0.0
C326 C 0.77857 0.97489 0.85352 0.0
C327 C 0.73314 0.97532 0.81838 0.0
H328 H 0.27532 0.37685 0.01257 0.0
H329 H 0.4099 0.25923 0.01874 0.0
H330 H 0.34402 0.18317 0.01725 0.0
H331 H 0.24876 0.14971 0.01321 0.0
H332 H 0.1139 0.26696 1.00686 0.0
H333 H 0.17971 0.34325 0.0094 0.0
C334 C 0.29041 0.33465 0.01373 0.0
C335 C 0.34768 0.3241 0.01574 0.0
C336 C 0.25231 0.29084 0.01271 0.0
C337 C 0.36616 0.26892 0.0172 0.0
C338 C 0.32849 0.22521 0.01629 0.0
C339 C 0.23352 0.19187 0.01236 0.0
C340 C 0.17627 0.20227 0.00971 0.0
C341 C 0.27152 0.23568 0.01386 0.0
C342 C 0.15765 0.25742 0.00879 0.0
C343 C 0.19528 0.30123 0.01027 0.0
H344 H 0.37766 0.74947 1.00355 0.0
H345 H 0.26007 0.61475 1.00674 0.0
H346 H 0.18384 0.68059 1.00703 0.0
H347 H 0.15031 0.77601 1.00666 0.0
H348 H 0.26785 0.91077 1.0036 0.0
H349 H 0.3441 0.84493 1.00301 0.0
C350 C 0.33543 0.7343 1.00423 0.0
C351 C 0.32493 0.67703 1.0051 0.0
C352 C 0.29158 0.77236 1.00446 0.0
C353 C 0.2697 0.65849 1.00607 0.0
C354 C 0.22591 0.69614 1.00624 0.0
C355 C 0.19253 0.79121 1.0058 0.0
C356 C 0.20301 0.84849 1.00517 0.0
C357 C 0.23637 0.75315 1.00548 0.0
C358 C 0.25823 0.86703 1.00416 0.0
C359 C 0.30203 0.82938 1.00379 0.0
H360 H 0.64817 0.27498 0.01244 0.0
H361 H 0.76592 0.40941 1.00463 0.0
H362 H 0.84193 0.34343 1.00253 0.0
H363 H 0.87512 0.24813 1.00263 0.0
H364 H 0.75764 0.11349 0.01035 0.0
H365 H 0.68148 0.17946 0.0126 0.0
C366 C 0.69039 0.29004 0.01027 0.0
C367 C 0.70105 0.34725 0.00868 0.0
C368 C 0.73408 0.25191 0.00896 0.0
C369 C 0.75622 0.36571 1.00596 0.0
C370 C 0.79986 0.32799 1.0047 0.0
C371 C 0.83294 0.23296 1.00476 0.0
C372 C 0.82238 0.17575 1.00621 0.0
C373 C 0.78925 0.27104 1.00612 0.0
C374 C 0.76724 0.15721 0.00903 0.0
C375 C 0.72353 0.19493 0.01039 0.0
H376 H 0.7773 0.87433 0.99867 0.0
H377 H 0.91154 0.7575 0.01596 0.0
H378 H 0.84569 0.6812 0.0151 0.0
H379 H 0.75027 0.64754 0.00994 0.0
H380 H 0.61624 0.76469 0.9928 0.0
H381 H 0.68214 0.84076 0.99317 0.0
C382 C 0.79236 0.83226 1.00242 0.0
C383 C 0.84944 0.82193 1.00747 0.0
C384 C 0.75434 0.78846 1.00188 0.0
C385 C 0.86791 0.76692 0.01195 0.0
C386 C 0.83026 0.72313 0.0115 0.0
C387 C 0.73531 0.68964 1.00615 0.0
C388 C 0.67821 0.70009 1.00139 0.0
C389 C 0.7734 0.73343 1.00648 0.0
C390 C 0.65986 0.75512 0.99663 0.0
C391 C 0.69753 0.79883 0.99683 0.0
H392 H 0.65265 0.54874 0.77065 0.0
H393 H 0.74806 0.463 0.89367 0.0
H394 H 0.82871 0.46268 0.83375 0.0
H395 H 0.87309 0.48719 0.74617 0.0
H396 H 0.77792 0.57402 0.62357 0.0
H397 H 0.69732 0.57398 0.68334 0.0
C398 C 0.69094 0.52952 0.78395 0.0
C399 C 0.69425 0.50601 0.83644 0.0
C400 C 0.73777 0.53021 0.74955 0.0
C401 C 0.74444 0.48178 0.85347 0.0
C402 C 0.79075 0.48161 0.81929 0.0
C403 C 0.83493 0.50665 0.73288 0.0
C404 C 0.83173 0.53038 0.68044 0.0
C405 C 0.78816 0.50615 0.76738 0.0
C406 C 0.78161 0.55498 0.66363 0.0
C407 C 0.73526 0.55497 0.69775 0.0
H408 H 0.14986 0.52283 0.74941 0.0
H409 H 0.25351 0.46112 0.6188 0.0
H410 H 0.33268 0.45872 0.68011 0.0
H411 H 0.37387 0.4754 0.77077 0.0
H412 H 0.27001 0.53652 0.90147 0.0
H413 H 0.19057 0.53774 0.84047 0.0
C414 C 0.18959 0.50835 0.73453 0.0
C415 C 0.19544 0.49256 0.67948 0.0
C416 C 0.2355 0.50717 0.77003 0.0
C417 C 0.24757 0.47416 0.66087 0.0
C418 C 0.29316 0.47268 0.69592 0.0
C419 C 0.33393 0.48916 0.78579 0.0
C420 C 0.3282 0.50557 0.84067 0.0
C421 C 0.28784 0.48956 0.75049 0.0
C422 C 0.27585 0.52304 0.85951 0.0
C423 C 0.23013 0.52391 0.82464 0.0
H424 H 0.1536 0.53895 0.27158 0.0
H425 H 0.24984 0.45586 0.39599 0.0
H426 H 0.33007 0.4548 0.33596 0.0
H427 H 0.37415 0.47756 0.24776 0.0
H428 H 0.27775 0.55947 0.1229 0.0
H429 H 0.19748 0.56118 0.18318 0.0
C430 C 0.19194 0.52019 0.28531 0.0
C431 C 0.19541 0.49783 0.33835 0.0
C432 C 0.23854 0.51987 0.25057 0.0
C433 C 0.2458 0.47397 0.35555 0.0
C434 C 0.292 0.47328 0.32124 0.0
C435 C 0.33573 0.49623 0.23407 0.0
C436 C 0.33208 0.51819 0.18094 0.0
C437 C 0.28911 0.49648 0.26877 0.0
C438 C 0.28169 0.54178 0.16354 0.0
C439 C 0.23558 0.54281 0.19796 0.0
H440 H 0.65141 0.54238 0.24816 0.0
H441 H 0.75786 0.49262 0.11478 0.0
H442 H 0.83711 0.49114 0.17596 0.0
H443 H 0.87721 0.50306 0.26783 0.0
H444 H 0.7707 0.55352 0.40103 0.0
H445 H 0.69174 0.55554 0.33973 0.0
C446 C 0.69187 0.53106 0.23254 0.0
C447 C 0.69826 0.51793 0.17683 0.0
C448 C 0.7379 0.53042 0.26799 0.0
C449 C 0.75134 0.50355 0.15736 0.0
C450 C 0.79701 0.50251 0.19237 0.0
C451 C 0.83686 0.51481 0.2834 0.0
C452 C 0.83043 0.52774 0.33919 0.0
C453 C 0.79092 0.51596 0.24781 0.0
C454 C 0.77741 0.54279 0.35844 0.0
C455 C 0.73183 0.54407 0.32336 0.0
H456 H 0.37979 0.77368 0.51006 0.0
H457 H 0.2616 0.90781 0.51524 0.0
H458 H 0.18573 0.84186 0.51439 0.0
H459 H 0.15249 0.74688 0.51208 0.0
H460 H 0.26958 0.61194 0.50692 0.0
H461 H 0.34612 0.67781 0.50787 0.0
C462 C 0.33749 0.78862 0.51113 0.0
C463 C 0.32676 0.84585 0.5127 0.0
C464 C 0.29369 0.7504 0.51057 0.0
C465 C 0.27147 0.86416 0.51392 0.0
C466 C 0.22784 0.82643 0.51345 0.0
C467 C 0.19466 0.73157 0.5111 0.0
C468 C 0.20499 0.67433 0.5094 0.0
C469 C 0.23847 0.76954 0.51171 0.0
C470 C 0.26015 0.65569 0.50824 0.0
C471 C 0.30406 0.69336 0.5088 0.0
H472 H 0.24736 0.37403 0.50164 0.0
H473 H 0.11301 0.25713 0.51803 0.0
H474 H 0.17888 0.18085 0.51719 0.0
H475 H 0.27439 0.14722 0.51233 0.0
H476 H 0.40844 0.26448 0.49573 0.0
H477 H 0.34252 0.34051 0.49615 0.0
C478 C 0.23225 0.33195 0.5051 0.0
C479 C 0.17513 0.32162 0.51001 0.0
C480 C 0.27028 0.28816 0.50455 0.0
C481 C 0.15666 0.26658 0.51425 0.0
C482 C 0.19432 0.22279 0.51377 0.0
C483 C 0.28936 0.18933 0.5087 0.0
C484 C 0.34649 0.19981 0.50413 0.0
C485 C 0.25122 0.23311 0.50899 0.0
C486 C 0.36482 0.25487 0.4995 0.0
C487 C 0.32712 0.29855 0.4997 0.0
H488 H 0.77958 0.65172 0.51879 0.0
H489 H 0.91438 0.76873 0.508 0.0
H490 H 0.84859 0.8451 0.50881 0.0
H491 H 0.75292 0.87877 0.51165 0.0
H492 H 0.61851 0.76118 0.52218 0.0
H493 H 0.68439 0.68521 0.52233 0.0
C494 C 0.79479 0.69385 0.51654 0.0
C495 C 0.85201 0.7042 0.51327 0.0
C496 C 0.75682 0.73767 0.51697 0.0
C497 C 0.87065 0.75929 0.51064 0.0
C498 C 0.83303 0.80312 0.51104 0.0
C499 C 0.73788 0.8366 0.51412 0.0
C500 C 0.68064 0.82604 0.51687 0.0
C501 C 0.77601 0.79279 0.51411 0.0
C502 C 0.66221 0.77089 0.51998 0.0
C503 C 0.69988 0.72721 0.52006 0.0
H504 H 0.64748 0.2521 0.50421 0.0
H505 H 0.76564 0.11805 0.49674 0.0
H506 H 0.84152 0.18406 0.49788 0.0
H507 H 0.87466 0.27902 0.50199 0.0
H508 H 0.75742 0.41374 0.50985 0.0
H509 H 0.68097 0.34785 0.50747 0.0
C510 C 0.68977 0.23718 0.50261 0.0
C511 C 0.70054 0.18001 0.50041 0.0
C512 C 0.7335 0.27539 0.50346 0.0
C513 C 0.7558 0.1617 0.49852 0.0
C514 C 0.7994 0.19944 0.49918 0.0
C515 C 0.83247 0.29427 0.50321 0.0
C516 C 0.82205 0.35143 0.50622 0.0
C517 C 0.78873 0.25629 0.50186 0.0
C518 C 0.76689 0.37003 0.50758 0.0
C519 C 0.72304 0.33237 0.50621 0.0
H520 H 0.51675 0.37673 0.76941 0.0
H521 H 0.52063 0.26065 0.90419 0.0
H522 H 0.52204 0.18385 0.83997 0.0
H523 H 0.52182 0.14909 0.74574 0.0
H524 H 0.51806 0.26519 0.61098 0.0
H525 H 0.51703 0.342 0.6752 0.0
C526 C 0.51789 0.33471 0.78488 0.0
C527 C 0.51854 0.32486 0.84169 0.0
C528 C 0.51875 0.29041 0.74773 0.0
C529 C 0.52011 0.26987 0.86073 0.0
C530 C 0.52091 0.22568 0.82401 0.0
C531 C 0.5208 0.19113 0.73028 0.0
C532 C 0.52004 0.20098 0.67347 0.0
C533 C 0.52019 0.23543 0.76743 0.0
C534 C 0.5188 0.25598 0.65443 0.0
C535 C 0.51813 0.30017 0.69115 0.0
H536 H 0.50023 0.77483 0.64602 0.0
H537 H 0.51516 0.9112 0.75952 0.0
H538 H 0.51417 0.84721 0.83639 0.0
H539 H 0.51037 0.75223 0.87223 0.0
H540 H 0.49545 0.61613 0.75838 0.0
H541 H 0.49507 0.68025 0.68178 0.0
C542 C 0.50321 0.79071 0.6875 0.0
C543 C 0.5079 0.84799 0.69644 0.0
C544 C 0.50265 0.75361 0.73198 0.0
C545 C 0.51161 0.86743 0.75084 0.0
C546 C 0.51103 0.8308 0.79515 0.0
C547 C 0.5068 0.73652 0.83074 0.0
C548 C 0.50314 0.67917 0.8216 0.0
C549 C 0.50672 0.77374 0.78629 0.0
C550 C 0.49866 0.65989 0.7672 0.0
C551 C 0.49838 0.6966 0.72303 0.0
H552 H 0.5124 0.64801 0.24801 0.0
H553 H 0.50332 0.7628 0.11248 0.0
H554 H 0.50302 0.84018 0.17609 0.0
H555 H 0.50561 0.87622 0.27028 0.0
H556 H 0.51446 0.76141 0.40578 0.0
H557 H 0.51449 0.68401 0.34217 0.0
C558 C 0.51032 0.68987 0.23222 0.0
C559 C 0.50792 0.69898 0.17519 0.0
C560 C 0.51012 0.7347 0.26915 0.0
C561 C 0.50521 0.75392 0.15597 0.0
C562 C 0.50506 0.79853 0.1924 0.0
C563 C 0.50761 0.83434 0.28604 0.0
C564 C 0.51003 0.8252 0.34305 0.0
C565 C 0.50757 0.78951 0.24911 0.0
C566 C 0.51239 0.77027 0.3623 0.0
C567 C 0.51249 0.72566 0.32586 0.0
H568 H 0.56562 0.15743 0.2737 0.0
H569 H 0.44598 0.23249 0.38155 0.0
H570 H 0.44214 0.31444 0.32342 0.0
H571 H 0.47363 0.3661 0.24199 0.0
H572 H 0.59356 0.29127 0.13423 0.0
H573 H 0.59719 0.20921 0.19219 0.0
C574 C 0.53814 0.1914 0.28377 0.0
C575 C 0.50596 0.18879 0.33153 0.0
C576 C 0.53692 0.23921 0.25065 0.0
C577 C 0.47118 0.23356 0.3448 0.0
C578 C 0.46913 0.28064 0.31178 0.0
C579 C 0.50113 0.33217 0.23185 0.0
C580 C 0.53338 0.33492 0.18412 0.0
C581 C 0.50234 0.28436 0.26492 0.0
C582 C 0.56821 0.29015 0.17087 0.0
C583 C 0.57017 0.24299 0.20382 0.0
loop_
_geom_bond_atom_site_label_1
_geom_bond_atom_site_label_2
_geom_bond_distance
_geom_bond_site_symmetry_2
_ccdc_geom_bond_type
C0 O26 1.283 . S
C0 O44 1.283 . S
C1 O27 1.283 . S
C1 O42 1.283 . S
C2 O28 1.283 . S
C2 O45 1.283 . S
C3 O29 1.283 . S
C3 O43 1.283 . S
C4 O30 1.283 . S
C4 O39 1.283 . S
C5 O31 1.283 . S
C5 O41 1.283 . S
C6 O32 1.283 . S
C6 O38 1.283 . S
C7 O33 1.283 . S
C7 O40 1.283 . S
C8 O34 1.283 . S
C8 O49 1.283 . S
C9 O35 1.283 . S
C9 O47 1.283 . S
C10 O36 1.283 . S
C10 O48 1.283 . S
C11 O37 1.283 . S
C11 O46 1.283 . S
Eu12 O13 2.370 1_454 S
Eu12 O14 2.370 . S
Eu12 O17 2.370 1_455 S
Eu12 O18 2.370 1_554 S
Eu12 O26 2.363 . S
Eu12 O27 2.363 1_554 S
Eu12 O40 2.363 . S
Eu12 O41 2.363 1_455 S
O13 Eu12 2.370 1_656 S
O13 Eu15 2.370 1_566 S
O13 Eu20 2.370 1_665 S
O14 Eu12 2.370 . S
O14 Eu16 2.370 1_565 S
O14 Eu19 2.370 1_565 S
Eu15 O13 2.370 1_544 S
Eu15 O17 2.370 1_545 S
Eu15 O21 2.370 . S
Eu15 O22 2.370 1_554 S
Eu15 O30 2.363 . S
Eu15 O31 2.363 1_545 S
Eu15 O46 2.363 . S
Eu15 O47 2.363 1_554 S
Eu16 O14 2.370 1_545 S
Eu16 O18 2.370 1_544 S
Eu16 O23 2.370 1_554 S
Eu16 O24 2.370 . S
Eu16 O32 2.363 . S
Eu16 O33 2.363 1_545 S
Eu16 O48 2.363 . S
Eu16 O49 2.363 1_554 S
O17 Eu12 2.370 1_655 S
O17 Eu15 2.370 1_565 S
O17 Eu19 2.370 1_665 S
O18 Eu12 2.370 1_556 S
O18 Eu16 2.370 1_566 S
O18 Eu20 2.370 1_565 S
Eu19 O14 2.370 1_545 S
Eu19 O17 2.370 1_445 S
Eu19 O21 2.370 1_455 S
Eu19 O24 2.370 . S
Eu19 O36 2.363 . S
Eu19 O37 2.363 1_455 S
Eu19 O44 2.363 1_545 S
Eu19 O45 2.363 . S
Eu20 O13 2.370 1_445 S
Eu20 O18 2.370 1_545 S
Eu20 O22 2.370 1_455 S
Eu20 O23 2.370 . S
Eu20 O34 2.363 . S
Eu20 O35 2.363 1_455 S
Eu20 O42 2.363 1_545 S
Eu20 O43 2.363 . S
O21 Eu15 2.370 . S
O21 Eu19 2.370 1_655 S
O21 Eu25 2.370 1_655 S
O22 Eu15 2.370 1_556 S
O22 Eu20 2.370 1_655 S
O22 Eu25 2.370 1_656 S
O23 Eu16 2.370 1_556 S
O23 Eu20 2.370 . S
O23 Eu25 2.370 1_556 S
O24 Eu16 2.370 . S
O24 Eu19 2.370 . S
O24 Eu25 2.370 . S
Eu25 O21 2.370 1_455 S
Eu25 O22 2.370 1_454 S
Eu25 O23 2.370 1_554 S
Eu25 O24 2.370 . S
Eu25 O28 2.363 . S
Eu25 O29 2.363 1_554 S
Eu25 O38 2.363 . S
Eu25 O39 2.363 1_455 S
O26 C0 1.283 . S
O26 Eu12 2.363 . S
O27 C1 1.283 . S
O27 Eu12 2.363 1_556 S
O28 C2 1.283 . S
O28 Eu25 2.363 . S
O29 C3 1.283 . S
O29 Eu25 2.363 1_556 S
O30 C4 1.283 . S
O30 Eu15 2.363 . S
O31 C5 1.283 . S
O31 Eu15 2.363 1_565 S
O32 C6 1.283 . S
O32 Eu16 2.363 . S
O33 C7 1.283 . S
O33 Eu16 2.363 1_565 S
O34 C8 1.283 . S
O34 Eu20 2.363 . S
O35 C9 1.283 . S
O35 Eu20 2.363 1_655 S
O36 C10 1.283 . S
O36 Eu19 2.363 . S
O37 C11 1.283 . S
O37 Eu19 2.363 1_655 S
O38 C6 1.283 . S
O38 Eu25 2.363 . S
O39 C4 1.283 . S
O39 Eu25 2.363 1_655 S
O40 C7 1.283 . S
O40 Eu12 2.363 . S
O41 C5 1.283 . S
O41 Eu12 2.363 1_655 S
O42 C1 1.283 . S
O42 Eu20 2.363 1_565 S
O43 C3 1.283 . S
O43 Eu20 2.363 . S
O44 C0 1.283 . S
O44 Eu19 2.363 1_565 S
O45 C2 1.283 . S
O45 Eu19 2.363 . S
O46 C11 1.283 . S
O46 Eu15 2.363 . S
O47 C9 1.283 . S
O47 Eu15 2.363 1_556 S
O48 C10 1.283 . S
O48 Eu16 2.363 . S
O49 C8 1.283 . S
O49 Eu16 2.363 1_556 S
C50 O76 1.283 . S
C50 O94 1.283 . S
C51 O77 1.283 . S
C51 O92 1.283 . S
C52 O78 1.283 . S
C52 O95 1.283 . S
C53 O79 1.283 . S
C53 O93 1.283 . S
C54 O80 1.283 . S
C54 O89 1.283 . S
C55 O81 1.283 . S
C55 O91 1.283 . S
C56 O82 1.283 . S
C56 O88 1.283 . S
C57 O83 1.283 . S
C57 O90 1.283 . S
C58 O84 1.283 . S
C58 O99 1.283 . S
C59 O85 1.283 . S
C59 O97 1.283 . S
C60 O86 1.283 . S
C60 O98 1.283 . S
C61 O87 1.283 . S
C61 O96 1.283 . S
Eu62 O63 2.370 . S
Eu62 O64 2.370 1_455 S
Eu62 O67 2.370 . S
Eu62 O68 2.370 1_455 S
Eu62 O76 2.363 . S
Eu62 O77 2.363 . S
Eu62 O90 2.363 1_455 S
Eu62 O91 2.363 . S
O63 Eu62 2.370 . S
O63 Eu65 2.370 . S
O63 Eu70 2.370 . S
O64 Eu62 2.370 1_655 S
O64 Eu66 2.370 . S
O64 Eu69 2.370 1_655 S
Eu65 O63 2.370 . S
Eu65 O67 2.370 . S
Eu65 O71 2.370 . S
Eu65 O72 2.370 . S
Eu65 O80 2.363 . S
Eu65 O81 2.363 . S
Eu65 O96 2.363 . S
Eu65 O97 2.363 . S
Eu66 O64 2.370 . S
Eu66 O68 2.370 . S
Eu66 O73 2.370 . S
Eu66 O74 2.370 . S
Eu66 O82 2.363 . S
Eu66 O83 2.363 . S
Eu66 O98 2.363 . S
Eu66 O99 2.363 . S
O67 Eu62 2.370 . S
O67 Eu65 2.370 . S
O67 Eu69 2.370 . S
O68 Eu62 2.370 1_655 S
O68 Eu66 2.370 . S
O68 Eu70 2.370 1_655 S
Eu69 O64 2.370 1_455 S
Eu69 O67 2.370 . S
Eu69 O71 2.370 . S
Eu69 O74 2.370 1_455 S
Eu69 O86 2.363 1_455 S
Eu69 O87 2.363 . S
Eu69 O94 2.363 . S
Eu69 O95 2.363 . S
Eu70 O63 2.370 . S
Eu70 O68 2.370 1_455 S
Eu70 O72 2.370 . S
Eu70 O73 2.370 1_455 S
Eu70 O84 2.363 1_455 S
Eu70 O85 2.363 . S
Eu70 O92 2.363 . S
Eu70 O93 2.363 . S
O71 Eu65 2.370 . S
O71 Eu69 2.370 . S
O71 Eu75 2.370 . S
O72 Eu65 2.370 . S
O72 Eu70 2.370 . S
O72 Eu75 2.370 . S
O73 Eu66 2.370 . S
O73 Eu70 2.370 1_655 S
O73 Eu75 2.370 1_655 S
O74 Eu66 2.370 . S
O74 Eu69 2.370 1_655 S
O74 Eu75 2.370 1_655 S
Eu75 O71 2.370 . S
Eu75 O72 2.370 . S
Eu75 O73 2.370 1_455 S
Eu75 O74 2.370 1_455 S
Eu75 O78 2.363 . S
Eu75 O79 2.363 . S
Eu75 O88 2.363 1_455 S
Eu75 O89 2.363 . S
O76 C50 1.283 . S
O76 Eu62 2.363 . S
O77 C51 1.283 . S
O77 Eu62 2.363 . S
O78 C52 1.283 . S
O78 Eu75 2.363 . S
O79 C53 1.283 . S
O79 Eu75 2.363 . S
O80 C54 1.283 . S
O80 Eu65 2.363 . S
O81 C55 1.283 . S
O81 Eu65 2.363 . S
O82 C56 1.283 . S
O82 Eu66 2.363 . S
O83 C57 1.283 . S
O83 Eu66 2.363 . S
O84 C58 1.283 . S
O84 Eu70 2.363 1_655 S
O85 C59 1.283 . S
O85 Eu70 2.363 . S
O86 C60 1.283 . S
O86 Eu69 2.363 1_655 S
O87 C61 1.283 . S
O87 Eu69 2.363 . S
O88 C56 1.283 . S
O88 Eu75 2.363 1_655 S
O89 C54 1.283 . S
O89 Eu75 2.363 . S
O90 C57 1.283 . S
O90 Eu62 2.363 1_655 S
O91 C55 1.283 . S
O91 Eu62 2.363 . S
O92 C51 1.283 . S
O92 Eu70 2.363 . S
O93 C53 1.283 . S
O93 Eu70 2.363 . S
O94 C50 1.283 . S
O94 Eu69 2.363 . S
O95 C52 1.283 . S
O95 Eu69 2.363 . S
O96 C61 1.283 . S
O96 Eu65 2.363 . S
O97 C59 1.283 . S
O97 Eu65 2.363 . S
O98 C60 1.283 . S
O98 Eu66 2.363 . S
O99 C58 1.283 . S
O99 Eu66 2.363 . S
C100 O126 1.283 . S
C100 O144 1.283 . S
C101 O127 1.283 . S
C101 O142 1.283 . S
C102 O128 1.283 . S
C102 O145 1.283 . S
C103 O129 1.283 . S
C103 O143 1.283 . S
C104 O130 1.283 . S
C104 O139 1.283 . S
C105 O131 1.283 . S
C105 O141 1.283 . S
C106 O132 1.283 . S
C106 O138 1.283 . S
C107 O133 1.283 . S
C107 O140 1.283 . S
C108 O134 1.283 . S
C108 O149 1.283 . S
C109 O135 1.283 . S
C109 O147 1.283 . S
C110 O136 1.283 . S
C110 O148 1.283 . S
C111 O137 1.283 . S
C111 O146 1.283 . S
Eu112 O113 2.370 . S
Eu112 O114 2.370 1_545 S
Eu112 O117 2.370 1_545 S
Eu112 O118 2.370 . S
Eu112 O126 2.363 1_545 S
Eu112 O127 2.363 . S
Eu112 O140 2.363 . S
Eu112 O141 2.363 . S
O113 Eu112 2.370 . S
O113 Eu115 2.370 . S
O113 Eu120 2.370 . S
O114 Eu112 2.370 1_565 S
O114 Eu116 2.370 1_565 S
O114 Eu119 2.370 . S
Eu115 O113 2.370 . S
Eu115 O117 2.370 1_545 S
Eu115 O121 2.370 1_545 S
Eu115 O122 2.370 . S
Eu115 O130 2.363 . S
Eu115 O131 2.363 . S
Eu115 O146 2.363 1_545 S
Eu115 O147 2.363 . S
Eu116 O114 2.370 1_545 S
Eu116 O118 2.370 . S
Eu116 O123 2.370 . S
Eu116 O124 2.370 1_545 S
Eu116 O132 2.363 . S
Eu116 O133 2.363 . S
Eu116 O148 2.363 1_545 S
Eu116 O149 2.363 . S
O117 Eu112 2.370 1_565 S
O117 Eu115 2.370 1_565 S
O117 Eu119 2.370 . S
O118 Eu112 2.370 . S
O118 Eu116 2.370 . S
O118 Eu120 2.370 . S
Eu119 O114 2.370 . S
Eu119 O117 2.370 . S
Eu119 O121 2.370 . S
Eu119 O124 2.370 . S
Eu119 O136 2.363 . S
Eu119 O137 2.363 . S
Eu119 O144 2.363 . S
Eu119 O145 2.363 . S
Eu120 O113 2.370 . S
Eu120 O118 2.370 . S
Eu120 O122 2.370 . S
Eu120 O123 2.370 . S
Eu120 O134 2.363 . S
Eu120 O135 2.363 . S
Eu120 O142 2.363 . S
Eu120 O143 2.363 . S
O121 Eu115 2.370 1_565 S
O121 Eu119 2.370 . S
O121 Eu125 2.370 1_565 S
O122 Eu115 2.370 . S
O122 Eu120 2.370 . S
O122 Eu125 2.370 . S
O123 Eu116 2.370 . S
O123 Eu120 2.370 . S
O123 Eu125 2.370 . S
O124 Eu116 2.370 1_565 S
O124 Eu119 2.370 . S
O124 Eu125 2.370 1_565 S
Eu125 O121 2.370 1_545 S
Eu125 O122 2.370 . S
Eu125 O123 2.370 . S
Eu125 O124 2.370 1_545 S
Eu125 O128 2.363 1_545 S
Eu125 O129 2.363 . S
Eu125 O138 2.363 . S
Eu125 O139 2.363 . S
O126 C100 1.283 . S
O126 Eu112 2.363 1_565 S
O127 C101 1.283 . S
O127 Eu112 2.363 . S
O128 C102 1.283 . S
O128 Eu125 2.363 1_565 S
O129 C103 1.283 . S
O129 Eu125 2.363 . S
O130 C104 1.283 . S
O130 Eu115 2.363 . S
O131 C105 1.283 . S
O131 Eu115 2.363 . S
O132 C106 1.283 . S
O132 Eu116 2.363 . S
O133 C107 1.283 . S
O133 Eu116 2.363 . S
O134 C108 1.283 . S
O134 Eu120 2.363 . S
O135 C109 1.283 . S
O135 Eu120 2.363 . S
O136 C110 1.283 . S
O136 Eu119 2.363 . S
O137 C111 1.283 . S
O137 Eu119 2.363 . S
O138 C106 1.283 . S
O138 Eu125 2.363 . S
O139 C104 1.283 . S
O139 Eu125 2.363 . S
O140 C107 1.283 . S
O140 Eu112 2.363 . S
O141 C105 1.283 . S
O141 Eu112 2.363 . S
O142 C101 1.283 . S
O142 Eu120 2.363 . S
O143 C103 1.283 . S
O143 Eu120 2.363 . S
O144 C100 1.283 . S
O144 Eu119 2.363 . S
O145 C102 1.283 . S
O145 Eu119 2.363 . S
O146 C111 1.283 . S
O146 Eu115 2.363 1_565 S
O147 C109 1.283 . S
O147 Eu115 2.363 . S
O148 C110 1.283 . S
O148 Eu116 2.363 1_565 S
O149 C108 1.283 . S
O149 Eu116 2.363 . S
C150 O176 1.283 . S
C150 O194 1.283 . S
C151 O177 1.283 . S
C151 O192 1.283 . S
C152 O178 1.283 . S
C152 O195 1.283 . S
C153 O179 1.283 . S
C153 O193 1.283 . S
C154 O180 1.283 . S
C154 O189 1.283 . S
C155 O181 1.283 . S
C155 O191 1.283 . S
C156 O182 1.283 . S
C156 O188 1.283 . S
C157 O183 1.283 . S
C157 O190 1.283 . S
C158 O184 1.283 . S
C158 O199 1.283 . S
C159 O185 1.283 . S
C159 O197 1.283 . S
C160 O186 1.283 . S
C160 O198 1.283 . S
C161 O187 1.283 . S
C161 O196 1.283 . S
Eu162 O163 2.370 . S
Eu162 O164 2.370 1_554 S
Eu162 O167 2.370 1_554 S
Eu162 O168 2.370 . S
Eu162 O176 2.363 1_554 S
Eu162 O177 2.363 . S
Eu162 O190 2.363 . S
Eu162 O191 2.363 . S
O163 Eu162 2.370 . S
O163 Eu165 2.370 . S
O163 Eu170 2.370 . S
O164 Eu162 2.370 1_556 S
O164 Eu166 2.370 1_556 S
O164 Eu169 2.370 . S
Eu165 O163 2.370 . S
Eu165 O167 2.370 1_554 S
Eu165 O171 2.370 1_554 S
Eu165 O172 2.370 . S
Eu165 O180 2.363 . S
Eu165 O181 2.363 . S
Eu165 O196 2.363 1_554 S
Eu165 O197 2.363 . S
Eu166 O164 2.370 1_554 S
Eu166 O168 2.370 . S
Eu166 O173 2.370 . S
Eu166 O174 2.370 1_554 S
Eu166 O182 2.363 . S
Eu166 O183 2.363 . S
Eu166 O198 2.363 1_554 S
Eu166 O199 2.363 . S
O167 Eu162 2.370 1_556 S
O167 Eu165 2.370 1_556 S
O167 Eu169 2.370 . S
O168 Eu162 2.370 . S
O168 Eu166 2.370 . S
O168 Eu170 2.370 . S
Eu169 O164 2.370 . S
Eu169 O167 2.370 . S
Eu169 O171 2.370 . S
Eu169 O174 2.370 . S
Eu169 O186 2.363 . S
Eu169 O187 2.363 . S
Eu169 O194 2.363 . S
Eu169 O195 2.363 . S
Eu170 O163 2.370 . S
Eu170 O168 2.370 . S
Eu170 O172 2.370 . S
Eu170 O173 2.370 . S
Eu170 O184 2.363 . S
Eu170 O185 2.363 . S
Eu170 O192 2.363 . S
Eu170 O193 2.363 . S
O171 Eu165 2.370 1_556 S
O171 Eu169 2.370 . S
O171 Eu175 2.370 1_556 S
O172 Eu165 2.370 . S
O172 Eu170 2.370 . S
O172 Eu175 2.370 . S
O173 Eu166 2.370 . S
O173 Eu170 2.370 . S
O173 Eu175 2.370 . S
O174 Eu166 2.370 1_556 S
O174 Eu169 2.370 . S
O174 Eu175 2.370 1_556 S
Eu175 O171 2.370 1_554 S
Eu175 O172 2.370 . S
Eu175 O173 2.370 . S
Eu175 O174 2.370 1_554 S
Eu175 O178 2.363 1_554 S
Eu175 O179 2.363 . S
Eu175 O188 2.363 . S
Eu175 O189 2.363 . S
O176 C150 1.283 . S
O176 Eu162 2.363 1_556 S
O177 C151 1.283 . S
O177 Eu162 2.363 . S
O178 C152 1.283 . S
O178 Eu175 2.363 1_556 S
O179 C153 1.283 . S
O179 Eu175 2.363 . S
O180 C154 1.283 . S
O180 Eu165 2.363 . S
O181 C155 1.283 . S
O181 Eu165 2.363 . S
O182 C156 1.283 . S
O182 Eu166 2.363 . S
O183 C157 1.283 . S
O183 Eu166 2.363 . S
O184 C158 1.283 . S
O184 Eu170 2.363 . S
O185 C159 1.283 . S
O185 Eu170 2.363 . S
O186 C160 1.283 . S
O186 Eu169 2.363 . S
O187 C161 1.283 . S
O187 Eu169 2.363 . S
O188 C156 1.283 . S
O188 Eu175 2.363 . S
O189 C154 1.283 . S
O189 Eu175 2.363 . S
O190 C157 1.283 . S
O190 Eu162 2.363 . S
O191 C155 1.283 . S
O191 Eu162 2.363 . S
O192 C151 1.283 . S
O192 Eu170 2.363 . S
O193 C153 1.283 . S
O193 Eu170 2.363 . S
O194 C150 1.283 . S
O194 Eu169 2.363 . S
O195 C152 1.283 . S
O195 Eu169 2.363 . S
O196 C161 1.283 . S
O196 Eu165 2.363 1_556 S
O197 C159 1.283 . S
O197 Eu165 2.363 . S
O198 C160 1.283 . S
O198 Eu166 2.363 1_556 S
O199 C158 1.283 . S
O199 Eu166 2.363 . S
H200 C206 0.930 . S
H201 C209 0.930 . S
H202 C210 0.930 . S
H203 C211 0.930 . S
H204 C214 0.930 . S
H205 C215 0.930 . S
C206 H200 0.930 . S
C206 C207 1.355 1_455 S
C206 C208 1.415 . S
C207 C206 1.355 1_655 S
C207 C209 1.419 . S
C208 C206 1.415 . S
C208 C213 1.425 1_455 S
C208 C215 1.409 . S
C209 H201 0.930 . S
C209 C207 1.419 . S
C209 C210 1.362 . S
C210 H202 0.930 . S
C210 C209 1.362 . S
C210 C213 1.409 . S
C211 H203 0.930 . S
C211 C212 1.355 1_655 S
C211 C213 1.415 . S
C212 C211 1.355 1_455 S
C212 C214 1.419 . S
C213 C208 1.425 1_655 S
C213 C210 1.409 . S
C213 C211 1.415 . S
C214 H204 0.930 . S
C214 C212 1.419 . S
C214 C215 1.362 . S
C215 H205 0.930 . S
C215 C208 1.409 . S
C215 C214 1.362 . S
H216 C222 0.930 . S
H217 C225 0.930 . S
H218 C226 0.930 . S
H219 C227 0.930 . S
H220 C230 0.930 . S
H221 C231 0.930 . S
C222 H216 0.930 . S
C222 C223 1.355 . S
C222 C224 1.414 1_565 S
C223 C222 1.355 . S
C223 C225 1.419 . S
C224 C222 1.414 1_545 S
C224 C229 1.425 1_545 S
C224 C231 1.410 . S
C225 H217 0.930 . S
C225 C223 1.419 . S
C225 C226 1.362 . S
C226 H218 0.930 . S
C226 C225 1.362 . S
C226 C229 1.410 . S
C227 H219 0.930 . S
C227 C228 1.355 . S
C227 C229 1.414 1_545 S
C228 C227 1.355 . S
C228 C230 1.419 . S
C229 C224 1.425 1_565 S
C229 C226 1.410 . S
C229 C227 1.414 1_565 S
C230 H220 0.930 . S
C230 C228 1.419 . S
C230 C231 1.362 . S
C231 H221 0.930 . S
C231 C224 1.410 . S
C231 C230 1.362 . S
H232 C238 0.930 . S
H233 C241 0.930 . S
H234 C242 0.930 . S
H235 C243 0.930 . S
H236 C246 0.930 . S
H237 C247 0.930 . S
C238 H232 0.930 . S
C238 C239 1.355 1_655 S
C238 C240 1.415 . S
C239 C238 1.355 1_455 S
C239 C241 1.419 . S
C240 C238 1.415 . S
C240 C245 1.425 1_655 S
C240 C247 1.409 . S
C241 H233 0.930 . S
C241 C239 1.419 . S
C241 C242 1.362 . S
C242 H234 0.930 . S
C242 C241 1.362 . S
C242 C245 1.409 . S
C243 H235 0.930 . S
C243 C244 1.355 1_455 S
C243 C245 1.415 . S
C244 C243 1.355 1_655 S
C244 C246 1.419 . S
C245 C240 1.425 1_455 S
C245 C242 1.409 . S
C245 C243 1.415 . S
C246 H236 0.930 . S
C246 C244 1.419 . S
C246 C247 1.362 . S
C247 H237 0.930 . S
C247 C240 1.409 . S
C247 C246 1.362 . S
H248 C254 0.930 . S
H249 C257 0.930 . S
H250 C258 0.930 . S
H251 C259 0.930 . S
H252 C262 0.930 . S
H253 C263 0.930 . S
C254 H248 0.930 . S
C254 C255 1.355 1_545 S
C254 C256 1.415 . S
C255 C254 1.355 1_565 S
C255 C257 1.419 . S
C256 C254 1.415 . S
C256 C261 1.425 1_545 S
C256 C263 1.409 . S
C257 H249 0.930 . S
C257 C255 1.419 . S
C257 C258 1.362 . S
C258 H250 0.930 . S
C258 C257 1.362 . S
C258 C261 1.409 . S
C259 H251 0.930 . S
C259 C260 1.355 1_565 S
C259 C261 1.415 . S
C260 C259 1.355 1_545 S
C260 C262 1.419 . S
C261 C256 1.425 1_565 S
C261 C258 1.409 . S
C261 C259 1.415 . S
C262 H252 0.930 . S
C262 C260 1.419 . S
C262 C263 1.362 . S
C263 H253 0.930 . S
C263 C256 1.409 . S
C263 C262 1.362 . S
H264 C270 0.930 . S
H265 C273 0.930 . S
H266 C274 0.930 . S
H267 C275 0.930 . S
H268 C278 0.930 . S
H269 C279 0.930 . S
C270 H264 0.930 . S
C270 C271 1.355 1_455 S
C270 C272 1.415 . S
C271 C270 1.355 1_655 S
C271 C273 1.419 . S
C272 C270 1.415 . S
C272 C277 1.425 1_455 S
C272 C279 1.409 . S
C273 H265 0.930 . S
C273 C271 1.419 . S
C273 C274 1.362 . S
C274 H266 0.930 . S
C274 C273 1.362 . S
C274 C277 1.409 . S
C275 H267 0.930 . S
C275 C276 1.355 1_655 S
C275 C277 1.415 . S
C276 C275 1.355 1_455 S
C276 C278 1.419 . S
C277 C272 1.425 1_655 S
C277 C274 1.409 . S
C277 C275 1.415 . S
C278 H268 0.930 . S
C278 C276 1.419 . S
C278 C279 1.362 . S
C279 H269 0.930 . S
C279 C272 1.409 . S
C279 C278 1.362 . S
H280 C286 0.930 . S
H281 C289 0.930 . S
H282 C290 0.930 . S
H283 C291 0.930 . S
H284 C294 0.930 . S
H285 C295 0.930 . S
C286 H280 0.930 . S
C286 C287 1.355 1_565 S
C286 C288 1.415 . S
C287 C286 1.355 1_545 S
C287 C289 1.419 . S
C288 C286 1.415 . S
C288 C293 1.425 1_565 S
C288 C295 1.409 . S
C289 H281 0.930 . S
C289 C287 1.419 . S
C289 C290 1.362 . S
C290 H282 0.930 . S
C290 C289 1.362 . S
C290 C293 1.409 . S
C291 H283 0.930 . S
C291 C292 1.355 1_545 S
C291 C293 1.415 . S
C292 C291 1.355 1_565 S
C292 C294 1.419 . S
C293 C288 1.425 1_545 S
C293 C290 1.409 . S
C293 C291 1.415 . S
C294 H284 0.930 . S
C294 C292 1.419 . S
C294 C295 1.362 . S
C295 H285 0.930 . S
C295 C288 1.409 . S
C295 C294 1.362 . S
H296 C302 0.930 . S
H297 C305 0.930 . S
H298 C306 0.930 . S
H299 C307 0.930 . S
H300 C310 0.930 . S
H301 C311 0.930 . S
C302 H296 0.930 . S
C302 C303 1.355 1_455 S
C302 C304 1.415 . S
C303 C302 1.355 1_655 S
C303 C305 1.419 . S
C304 C302 1.415 . S
C304 C309 1.425 1_455 S
C304 C311 1.409 . S
C305 H297 0.930 . S
C305 C303 1.419 . S
C305 C306 1.362 . S
C306 H298 0.930 . S
C306 C305 1.362 . S
C306 C309 1.409 . S
C307 H299 0.930 . S
C307 C308 1.355 1_655 S
C307 C309 1.415 . S
C308 C307 1.355 1_455 S
C308 C310 1.419 . S
C309 C304 1.425 1_655 S
C309 C306 1.409 . S
C309 C307 1.415 . S
C310 H300 0.930 . S
C310 C308 1.419 . S
C310 C311 1.362 . S
C311 H301 0.930 . S
C311 C304 1.409 . S
C311 C310 1.362 . S
H312 C318 0.930 . S
H313 C321 0.930 . S
H314 C322 0.930 . S
H315 C323 0.930 . S
H316 C326 0.930 . S
H317 C327 0.930 . S
C318 H312 0.930 . S
C318 C319 1.355 1_565 S
C318 C320 1.415 . S
C319 C318 1.355 1_545 S
C319 C321 1.419 . S
C320 C318 1.415 . S
C320 C325 1.425 1_565 S
C320 C327 1.409 . S
C321 H313 0.930 . S
C321 C319 1.419 . S
C321 C322 1.362 . S
C322 H314 0.930 . S
C322 C321 1.362 . S
C322 C325 1.409 . S
C323 H315 0.930 . S
C323 C324 1.355 1_545 S
C323 C325 1.415 . S
C324 C323 1.355 1_565 S
C324 C326 1.419 . S
C325 C320 1.425 1_545 S
C325 C322 1.409 . S
C325 C323 1.415 . S
C326 H316 0.930 . S
C326 C324 1.419 . S
C326 C327 1.362 . S
C327 H317 0.930 . S
C327 C320 1.409 . S
C327 C326 1.362 . S
H328 C334 0.930 . S
H329 C337 0.930 . S
H330 C338 0.930 . S
H331 C339 0.930 . S
H332 C342 0.930 . S
H333 C343 0.930 . S
C334 H328 0.930 . S
C334 C335 1.355 1_554 S
C334 C336 1.415 . S
C335 C334 1.355 1_556 S
C335 C337 1.419 . S
C336 C334 1.415 . S
C336 C341 1.425 1_554 S
C336 C343 1.409 . S
C337 H329 0.930 . S
C337 C335 1.419 . S
C337 C338 1.362 . S
C338 H330 0.930 . S
C338 C337 1.362 . S
C338 C341 1.409 . S
C339 H331 0.930 . S
C339 C340 1.355 1_556 S
C339 C341 1.415 . S
C340 C339 1.355 1_554 S
C340 C342 1.419 . S
C341 C336 1.425 1_556 S
C341 C338 1.409 . S
C341 C339 1.415 . S
C342 H332 0.930 . S
C342 C340 1.419 . S
C342 C343 1.362 . S
C343 H333 0.930 . S
C343 C336 1.409 . S
C343 C342 1.362 . S
H344 C350 0.930 . S
H345 C353 0.930 . S
H346 C354 0.930 . S
H347 C355 0.930 . S
H348 C358 0.930 . S
H349 C359 0.930 . S
C350 H344 0.930 . S
C350 C351 1.355 1_556 S
C350 C352 1.415 . S
C351 C350 1.355 1_554 S
C351 C353 1.419 . S
C352 C350 1.415 . S
C352 C357 1.425 1_556 S
C352 C359 1.409 . S
C353 H345 0.930 . S
C353 C351 1.419 . S
C353 C354 1.362 . S
C354 H346 0.930 . S
C354 C353 1.362 . S
C354 C357 1.409 . S
C355 H347 0.930 . S
C355 C356 1.355 1_554 S
C355 C357 1.415 . S
C356 C355 1.355 1_556 S
C356 C358 1.419 . S
C357 C352 1.425 1_554 S
C357 C354 1.409 . S
C357 C355 1.415 . S
C358 H348 0.930 . S
C358 C356 1.419 . S
C358 C359 1.362 . S
C359 H349 0.930 . S
C359 C352 1.409 . S
C359 C358 1.362 . S
H360 C366 0.930 . S
H361 C369 0.930 . S
H362 C370 0.930 . S
H363 C371 0.930 . S
H364 C374 0.930 . S
H365 C375 0.930 . S
C366 H360 0.930 . S
C366 C367 1.355 1_554 S
C366 C368 1.415 . S
C367 C366 1.355 1_556 S
C367 C369 1.419 . S
C368 C366 1.415 . S
C368 C373 1.425 1_554 S
C368 C375 1.409 . S
C369 H361 0.930 . S
C369 C367 1.419 . S
C369 C370 1.362 . S
C370 H362 0.930 . S
C370 C369 1.362 . S
C370 C373 1.409 . S
C371 H363 0.930 . S
C371 C372 1.355 1_556 S
C371 C373 1.415 . S
C372 C371 1.355 1_554 S
C372 C374 1.419 . S
C373 C368 1.425 1_556 S
C373 C370 1.409 . S
C373 C371 1.415 . S
C374 H364 0.930 . S
C374 C372 1.419 . S
C374 C375 1.362 . S
C375 H365 0.930 . S
C375 C368 1.409 . S
C375 C374 1.362 . S
H376 C382 0.930 . S
H377 C385 0.930 . S
H378 C386 0.930 . S
H379 C387 0.930 . S
H380 C390 0.930 . S
H381 C391 0.930 . S
C382 H376 0.930 . S
C382 C383 1.355 1_556 S
C382 C384 1.415 . S
C383 C382 1.355 1_554 S
C383 C385 1.419 . S
C384 C382 1.415 . S
C384 C389 1.425 1_556 S
C384 C391 1.409 . S
C385 H377 0.930 . S
C385 C383 1.419 . S
C385 C386 1.362 . S
C386 H378 0.930 . S
C386 C385 1.362 . S
C386 C389 1.409 . S
C387 H379 0.930 . S
C387 C388 1.355 1_554 S
C387 C389 1.415 . S
C388 C387 1.355 1_556 S
C388 C390 1.419 . S
C389 C384 1.425 1_554 S
C389 C386 1.409 . S
C389 C387 1.415 . S
C390 H380 0.930 . S
C390 C388 1.419 . S
C390 C391 1.362 . S
C391 H381 0.930 . S
C391 C384 1.409 . S
C391 C390 1.362 . S
H392 C398 0.930 . S
H393 C401 0.930 . S
H394 C402 0.930 . S
H395 C403 0.930 . S
H396 C406 0.930 . S
H397 C407 0.930 . S
C398 H392 0.930 . S
C398 C399 1.355 . S
C398 C400 1.415 . S
C399 C398 1.355 . S
C399 C401 1.419 . S
C400 C398 1.415 . S
C400 C405 1.425 . S
C400 C407 1.409 . S
C401 H393 0.930 . S
C401 C399 1.419 . S
C401 C402 1.362 . S
C402 H394 0.930 . S
C402 C401 1.362 . S
C402 C405 1.409 . S
C403 H395 0.930 . S
C403 C404 1.355 . S
C403 C405 1.415 . S
C404 C403 1.355 . S
C404 C406 1.419 . S
C405 C400 1.425 . S
C405 C402 1.409 . S
C405 C403 1.415 . S
C406 H396 0.930 . S
C406 C404 1.419 . S
C406 C407 1.362 . S
C407 H397 0.930 . S
C407 C400 1.409 . S
C407 C406 1.362 . S
H408 C414 0.930 . S
H409 C417 0.930 . S
H410 C418 0.930 . S
H411 C419 0.930 . S
H412 C422 0.930 . S
H413 C423 0.930 . S
C414 H408 0.930 . S
C414 C415 1.355 . S
C414 C416 1.415 . S
C415 C414 1.355 . S
C415 C417 1.419 . S
C416 C414 1.415 . S
C416 C421 1.425 . S
C416 C423 1.409 . S
C417 H409 0.930 . S
C417 C415 1.419 . S
C417 C418 1.362 . S
C418 H410 0.930 . S
C418 C417 1.362 . S
C418 C421 1.409 . S
C419 H411 0.930 . S
C419 C420 1.355 . S
C419 C421 1.415 . S
C420 C419 1.355 . S
C420 C422 1.419 . S
C421 C416 1.425 . S
C421 C418 1.409 . S
C421 C419 1.415 . S
C422 H412 0.930 . S
C422 C420 1.419 . S
C422 C423 1.362 . S
C423 H413 0.930 . S
C423 C416 1.409 . S
C423 C422 1.362 . S
H424 C430 0.930 . S
H425 C433 0.930 . S
H426 C434 0.930 . S
H427 C435 0.930 . S
H428 C438 0.930 . S
H429 C439 0.930 . S
C430 H424 0.930 . S
C430 C431 1.355 . S
C430 C432 1.415 . S
C431 C430 1.355 . S
C431 C433 1.419 . S
C432 C430 1.415 . S
C432 C437 1.425 . S
C432 C439 1.409 . S
C433 H425 0.930 . S
C433 C431 1.419 . S
C433 C434 1.362 . S
C434 H426 0.930 . S
C434 C433 1.362 . S
C434 C437 1.409 . S
C435 H427 0.930 . S
C435 C436 1.355 . S
C435 C437 1.415 . S
C436 C435 1.355 . S
C436 C438 1.419 . S
C437 C432 1.425 . S
C437 C434 1.409 . S
C437 C435 1.415 . S
C438 H428 0.930 . S
C438 C436 1.419 . S
C438 C439 1.362 . S
C439 H429 0.930 . S
C439 C432 1.409 . S
C439 C438 1.362 . S
H440 C446 0.930 . S
H441 C449 0.930 . S
H442 C450 0.930 . S
H443 C451 0.930 . S
H444 C454 0.930 . S
H445 C455 0.930 . S
C446 H440 0.930 . S
C446 C447 1.355 . S
C446 C448 1.415 . S
C447 C446 1.355 . S
C447 C449 1.419 . S
C448 C446 1.415 . S
C448 C453 1.425 . S
C448 C455 1.409 . S
C449 H441 0.930 . S
C449 C447 1.419 . S
C449 C450 1.362 . S
C450 H442 0.930 . S
C450 C449 1.362 . S
C450 C453 1.409 . S
C451 H443 0.930 . S
C451 C452 1.355 . S
C451 C453 1.415 . S
C452 C451 1.355 . S
C452 C454 1.419 . S
C453 C448 1.425 . S
C453 C450 1.409 . S
C453 C451 1.415 . S
C454 H444 0.930 . S
C454 C452 1.419 . S
C454 C455 1.362 . S
C455 H445 0.930 . S
C455 C448 1.409 . S
C455 C454 1.362 . S
H456 C462 0.930 . S
H457 C465 0.930 . S
H458 C466 0.930 . S
H459 C467 0.930 . S
H460 C470 0.930 . S
H461 C471 0.930 . S
C462 H456 0.930 . S
C462 C463 1.355 . S
C462 C464 1.415 . S
C463 C462 1.355 . S
C463 C465 1.419 . S
C464 C462 1.415 . S
C464 C469 1.425 . S
C464 C471 1.409 . S
C465 H457 0.930 . S
C465 C463 1.419 . S
C465 C466 1.362 . S
C466 H458 0.930 . S
C466 C465 1.362 . S
C466 C469 1.409 . S
C467 H459 0.930 . S
C467 C468 1.355 . S
C467 C469 1.415 . S
C468 C467 1.355 . S
C468 C470 1.419 . S
C469 C464 1.425 . S
C469 C466 1.409 . S
C469 C467 1.415 . S
C470 H460 0.930 . S
C470 C468 1.419 . S
C470 C471 1.362 . S
C471 H461 0.930 . S
C471 C464 1.409 . S
C471 C470 1.362 . S
H472 C478 0.930 . S
H473 C481 0.930 . S
H474 C482 0.930 . S
H475 C483 0.930 . S
H476 C486 0.930 . S
H477 C487 0.930 . S
C478 H472 0.930 . S
C478 C479 1.355 . S
C478 C480 1.415 . S
C479 C478 1.355 . S
C479 C481 1.419 . S
C480 C478 1.415 . S
C480 C485 1.425 . S
C480 C487 1.409 . S
C481 H473 0.930 . S
C481 C479 1.419 . S
C481 C482 1.362 . S
C482 H474 0.930 . S
C482 C481 1.362 . S
C482 C485 1.409 . S
C483 H475 0.930 . S
C483 C484 1.355 . S
C483 C485 1.415 . S
C484 C483 1.355 . S
C484 C486 1.419 . S
C485 C480 1.425 . S
C485 C482 1.409 . S
C485 C483 1.415 . S
C486 H476 0.930 . S
C486 C484 1.419 . S
C486 C487 1.362 . S
C487 H477 0.930 . S
C487 C480 1.409 . S
C487 C486 1.362 . S
H488 C494 0.930 . S
H489 C497 0.930 . S
H490 C498 0.930 . S
H491 C499 0.930 . S
H492 C502 0.930 . S
H493 C503 0.930 . S
C494 H488 0.930 . S
C494 C495 1.355 . S
C494 C496 1.415 . S
C495 C494 1.355 . S
C495 C497 1.419 . S
C496 C494 1.415 . S
C496 C501 1.425 . S
C496 C503 1.409 . S
C497 H489 0.930 . S
C497 C495 1.419 . S
C497 C498 1.362 . S
C498 H490 0.930 . S
C498 C497 1.362 . S
C498 C501 1.409 . S
C499 H491 0.930 . S
C499 C500 1.355 . S
C499 C501 1.415 . S
C500 C499 1.355 . S
C500 C502 1.419 . S
C501 C496 1.425 . S
C501 C498 1.409 . S
C501 C499 1.415 . S
C502 H492 0.930 . S
C502 C500 1.419 . S
C502 C503 1.362 . S
C503 H493 0.930 . S
C503 C496 1.409 . S
C503 C502 1.362 . S
H504 C510 0.930 . S
H505 C513 0.930 . S
H506 C514 0.930 . S
H507 C515 0.930 . S
H508 C518 0.930 . S
H509 C519 0.930 . S
C510 H504 0.930 . S
C510 C511 1.355 . S
C510 C512 1.415 . S
C511 C510 1.355 . S
C511 C513 1.419 . S
C512 C510 1.415 . S
C512 C517 1.425 . S
C512 C519 1.409 . S
C513 H505 0.930 . S
C513 C511 1.419 . S
C513 C514 1.362 . S
C514 H506 0.930 . S
C514 C513 1.362 . S
C514 C517 1.409 . S
C515 H507 0.930 . S
C515 C516 1.355 . S
C515 C517 1.415 . S
C516 C515 1.355 . S
C516 C518 1.419 . S
C517 C512 1.425 . S
C517 C514 1.409 . S
C517 C515 1.415 . S
C518 H508 0.930 . S
C518 C516 1.419 . S
C518 C519 1.362 . S
C519 H509 0.930 . S
C519 C512 1.409 . S
C519 C518 1.362 . S
H520 C526 0.930 . S
H521 C529 0.930 . S
H522 C530 0.930 . S
H523 C531 0.930 . S
H524 C534 0.930 . S
H525 C535 0.930 . S
C526 H520 0.930 . S
C526 C527 1.355 . S
C526 C528 1.415 . S
C527 C526 1.355 . S
C527 C529 1.419 . S
C528 C526 1.415 . S
C528 C533 1.425 . S
C528 C535 1.409 . S
C529 H521 0.930 . S
C529 C527 1.419 . S
C529 C530 1.362 . S
C530 H522 0.930 . S
C530 C529 1.362 . S
C530 C533 1.409 . S
C531 H523 0.930 . S
C531 C532 1.355 . S
C531 C533 1.415 . S
C532 C531 1.355 . S
C532 C534 1.419 . S
C533 C528 1.425 . S
C533 C530 1.409 . S
C533 C531 1.415 . S
C534 H524 0.930 . S
C534 C532 1.419 . S
C534 C535 1.362 . S
C535 H525 0.930 . S
C535 C528 1.409 . S
C535 C534 1.362 . S
H536 C542 0.930 . S
H537 C545 0.930 . S
H538 C546 0.930 . S
H539 C547 0.930 . S
H540 C550 0.930 . S
H541 C551 0.930 . S
C542 H536 0.930 . S
C542 C543 1.355 . S
C542 C544 1.415 . S
C543 C542 1.355 . S
C543 C545 1.419 . S
C544 C542 1.415 . S
C544 C549 1.425 . S
C544 C551 1.409 . S
C545 H537 0.930 . S
C545 C543 1.419 . S
C545 C546 1.362 . S
C546 H538 0.930 . S
C546 C545 1.362 . S
C546 C549 1.409 . S
C547 H539 0.930 . S
C547 C548 1.355 . S
C547 C549 1.415 . S
C548 C547 1.355 . S
C548 C550 1.419 . S
C549 C544 1.425 . S
C549 C546 1.409 . S
C549 C547 1.415 . S
C550 H540 0.930 . S
C550 C548 1.419 . S
C550 C551 1.362 . S
C551 H541 0.930 . S
C551 C544 1.409 . S
C551 C550 1.362 . S
H552 C558 0.930 . S
H553 C561 0.930 . S
H554 C562 0.930 . S
H555 C563 0.930 . S
H556 C566 0.930 . S
H557 C567 0.930 . S
C558 H552 0.930 . S
C558 C559 1.355 . S
C558 C560 1.415 . S
C559 C558 1.355 . S
C559 C561 1.419 . S
C560 C558 1.415 . S
C560 C565 1.425 . S
C560 C567 1.409 . S
C561 H553 0.930 . S
C561 C559 1.419 . S
C561 C562 1.362 . S
C562 H554 0.930 . S
C562 C561 1.362 . S
C562 C565 1.409 . S
C563 H555 0.930 . S
C563 C564 1.355 . S
C563 C565 1.415 . S
C564 C563 1.355 . S
C564 C566 1.419 . S
C565 C560 1.425 . S
C565 C562 1.409 . S
C565 C563 1.415 . S
C566 H556 0.930 . S
C566 C564 1.419 . S
C566 C567 1.362 . S
C567 H557 0.930 . S
C567 C560 1.409 . S
C567 C566 1.362 . S
H568 C574 0.930 . S
H569 C577 0.930 . S
H570 C578 0.930 . S
H571 C579 0.930 . S
H572 C582 0.930 . S
H573 C583 0.930 . S
C574 H568 0.930 . S
C574 C575 1.355 . S
C574 C576 1.415 . S
C575 C574 1.355 . S
C575 C577 1.419 . S
C576 C574 1.415 . S
C576 C581 1.425 . S
C576 C583 1.409 . S
C577 H569 0.930 . S
C577 C575 1.419 . S
C577 C578 1.362 . S
C578 H570 0.930 . S
C578 C577 1.362 . S
C578 C581 1.409 . S
C579 H571 0.930 . S
C579 C580 1.355 . S
C579 C581 1.415 . S
C580 C579 1.355 . S
C580 C582 1.419 . S
C581 C576 1.425 . S
C581 C578 1.409 . S
C581 C579 1.415 . S
C582 H572 0.930 . S
C582 C580 1.419 . S
C582 C583 1.362 . S
C583 H573 0.930 . S
C583 C576 1.409 . S
C583 C582 1.362 . S
C207 C2 1.494 1_655 S
C212 C52 1.490 . S
C223 C11 1.494 1_565 S
C228 C104 1.494 . S
C239 C0 1.494 . S
C244 C53 1.494 1_655 S
C255 C106 1.494 1_565 S
C260 C10 1.490 . S
C271 C1 1.494 1_655 S
C276 C51 1.497 . S
C287 C8 1.494 . S
C292 C107 1.494 1_565 S
C303 C50 1.494 1_655 S
C308 C3 1.494 . S
C319 C105 1.494 . S
C324 C9 1.497 1_565 S
C335 C156 1.494 1_556 S
C340 C6 1.490 . S
C351 C157 1.494 . S
C356 C7 1.494 1_556 S
C367 C154 1.494 1_556 S
C372 C4 1.494 . S
C383 C5 1.494 . S
C388 C155 1.497 1_556 S
C399 C161 1.494 . S
C404 C57 1.497 . S
C415 C55 1.494 . S
C420 C160 1.493 . S
C431 C54 1.494 . S
C436 C158 1.490 . S
C447 C159 1.494 . S
C452 C56 1.494 . S
C463 C110 1.494 . S
C468 C59 1.494 . S
C479 C61 1.494 . S
C484 C108 1.490 . S
C495 C58 1.494 . S
C500 C111 1.497 . S
C511 C109 1.494 . S
C516 C60 1.494 . S
C527 C152 1.494 . S
C532 C101 1.494 . S
C543 C100 1.494 . S
C548 C150 1.497 . S
C559 C151 1.494 . S
C564 C102 1.494 . S
C575 C103 1.494 . S
C580 C153 1.490 . S
