# Generated by pormake.
# Topology ofo, (3)-cn, num edge types: 1
# Building blocks:
#     Node 0, Type 0, BuildingBlock: WUSLED_clean_sbu_0, # of connection points: 3
#     Node 1, Type 0, BuildingBlock: WUSLED_clean_sbu_0, # of connection points: 3
#     Node 2, Type 0, BuildingBlock: WUSLED_clean_sbu_0, # of connection points: 3
#     Node 3, Type 0, BuildingBlock: WUSLED_clean_sbu_0, # of connection points: 3
#     Node 4, Type 0, BuildingBlock: WUSLED_clean_sbu_0, # of connection points: 3
#     Node 5, Type 0, BuildingBlock: WUSLED_clean_sbu_0, # of connection points: 3
#     Node 6, Type 0, BuildingBlock: WUSLED_clean_sbu_0, # of connection points: 3
#     Node 7, Type 0, BuildingBlock: WUSLED_clean_sbu_0, # of connection points: 3
#     Node 8, Type 0, BuildingBlock: WUSLED_clean_sbu_0, # of connection points: 3
#     Node 9, Type 0, BuildingBlock: WUSLED_clean_sbu_0, # of connection points: 3
#     Node 10, Type 0, BuildingBlock: WUSLED_clean_sbu_0, # of connection points: 3
#     Node 11, Type 0, BuildingBlock: WUSLED_clean_sbu_0, # of connection points: 3
#     Edge 12, Type (0, 0), BuildingBlock: XUDNAN_clean_linker_2, # of connection points: 2
#     Edge 13, Type (0, 0), BuildingBlock: XUDNAN_clean_linker_2, # of connection points: 2
#     Edge 14, Type (0, 0), BuildingBlock: XUDNAN_clean_linker_2, # of connection points: 2
#     Edge 15, Type (0, 0), BuildingBlock: XUDNAN_clean_linker_2, # of connection points: 2
#     Edge 16, Type (0, 0), BuildingBlock: XUDNAN_clean_linker_2, # of connection points: 2
#     Edge 17, Type (0, 0), BuildingBlock: XUDNAN_clean_linker_2, # of connection points: 2
#     Edge 18, Type (0, 0), BuildingBlock: XUDNAN_clean_linker_2, # of connection points: 2
#     Edge 19, Type (0, 0), BuildingBlock: XUDNAN_clean_linker_2, # of connection points: 2
#     Edge 20, Type (0, 0), BuildingBlock: XUDNAN_clean_linker_2, # of connection points: 2
#     Edge 21, Type (0, 0), BuildingBlock: XUDNAN_clean_linker_2, # of connection points: 2
#     Edge 22, Type (0, 0), BuildingBlock: XUDNAN_clean_linker_2, # of connection points: 2
#     Edge 23, Type (0, 0), BuildingBlock: XUDNAN_clean_linker_2, # of connection points: 2
#     Edge 24, Type (0, 0), BuildingBlock: XUDNAN_clean_linker_2, # of connection points: 2
#     Edge 25, Type (0, 0), BuildingBlock: XUDNAN_clean_linker_2, # of connection points: 2
#     Edge 26, Type (0, 0), BuildingBlock: XUDNAN_clean_linker_2, # of connection points: 2
#     Edge 27, Type (0, 0), BuildingBlock: XUDNAN_clean_linker_2, # of connection points: 2
#     Edge 28, Type (0, 0), BuildingBlock: XUDNAN_clean_linker_2, # of connection points: 2
#     Edge 29, Type (0, 0), BuildingBlock: XUDNAN_clean_linker_2, # of connection points: 2
# Relax obj value: 0.053
# Max RMSD: 0.062
# Mean RMSD: 0.062
data_MOF--net-ofo--node1-WUSLED_clean_sbu_0--edge1-XUDNAN_clean_linker_2
_symmetry_space_group_name_H-M    P1
_symmetry_Int_Tables_number       1
_symmetry_cell_setting            triclinic
loop_
_symmetry_equiv_pos_as_xyz
'x, y, z'
_cell_length_a     36.179335
_cell_length_b     36.208336
_cell_length_c     90.918505
_cell_angle_alpha  89.953033
_cell_angle_beta   90.024368
_cell_angle_gamma 119.93849
loop_
_atom_site_label
_atom_site_type_symbol
_atom_site_fract_x
_atom_site_fract_y
_atom_site_fract_z
_atom_type_partial_charge
C0 C 0.42793 0.33404 0.11037 0.0
C1 C 0.4298 0.31034 0.12231 0.0
C2 C 0.46961 0.37522 0.13671 0.0
C3 C 0.45018 0.33071 0.13537 0.0
C4 C 0.46903 0.39907 0.1246 0.0
C5 C 0.44816 0.3786 0.11156 0.0
U6 U 0.39813 0.25063 0.08021 0.0
O7 O 0.33564 0.20592 0.07056 0.0
O8 O 0.38686 0.25291 0.05651 0.0
C9 C 0.34648 0.22319 0.05742 0.0
C10 C 0.40423 0.31271 0.09681 0.0
C11 C 0.31571 0.23284 0.05026 0.0
C12 C 0.28398 0.27777 0.04693 0.0
C13 C 0.31348 0.2693 0.05395 0.0
C14 C 0.25838 0.2132 0.0326 0.0
C15 C 0.25605 0.24981 0.03614 0.0
C16 C 0.28792 0.20486 0.03958 0.0
C17 C 0.45331 0.18216 0.0822 0.0
C18 C 0.43 0.11021 0.07355 0.0
C19 C 0.50406 0.15699 0.08001 0.0
C20 C 0.49494 0.18919 0.08349 0.0
C21 C 0.47162 0.11684 0.0752 0.0
C22 C 0.42091 0.14258 0.07702 0.0
C23 C 0.44457 0.21588 0.08715 0.0
O24 O 0.42738 0.31942 0.08492 0.0
O25 O 0.37387 0.27277 0.09829 0.0
O26 O 0.40662 0.20343 0.09274 0.0
O27 O 0.45832 0.24941 0.07856 0.0
H28 H 0.41498 0.27598 0.12166 0.0
H29 H 0.45057 0.31157 0.14447 0.0
H30 H 0.48352 0.43339 0.12536 0.0
H31 H 0.44724 0.39753 0.10249 0.0
H32 H 0.28273 0.30597 0.05007 0.0
H33 H 0.33452 0.29116 0.06225 0.0
H34 H 0.23785 0.19128 0.02423 0.0
H35 H 0.28918 0.17655 0.03659 0.0
H36 H 0.40416 0.0796 0.07 0.0
H37 H 0.53658 0.16354 0.08115 0.0
H38 H 0.52043 0.21953 0.08743 0.0
H39 H 0.38849 0.13638 0.07593 0.0
C40 C 0.10368 0.4243 0.77503 0.0
C41 C 0.14285 0.46126 0.77784 0.0
C42 C 0.11043 0.48157 0.79733 0.0
C43 C 0.14612 0.48972 0.78881 0.0
C44 C 0.07143 0.44399 0.79477 0.0
C45 C 0.06807 0.41565 0.78365 0.0
U46 U 0.15804 0.38158 0.7508 0.0
O47 O 0.13867 0.31706 0.74279 0.0
O48 O 0.15387 0.36867 0.727 0.0
C49 C 0.13881 0.32762 0.72893 0.0
C50 C 0.10029 0.39487 0.76323 0.0
C51 C 0.10098 0.29913 0.71999 0.0
C52 C 0.02567 0.24609 0.71746 0.0
C53 C 0.06059 0.27317 0.72631 0.0
C54 C 0.07089 0.27097 0.69589 0.0
C55 C 0.0304 0.24478 0.70213 0.0
C56 C 0.10572 0.29773 0.70473 0.0
C57 C 0.28062 0.43527 0.75985 0.0
C58 C 0.34677 0.45483 0.77271 0.0
C59 C 0.34726 0.46249 0.74624 0.0
C60 C 0.30299 0.44637 0.74643 0.0
C61 C 0.3697 0.46819 0.75946 0.0
C62 C 0.30275 0.43853 0.77289 0.0
C63 C 0.23607 0.42597 0.76111 0.0
O64 O 0.11977 0.41334 0.7509 0.0
O65 O 0.10723 0.36402 0.76729 0.0
O66 O 0.20786 0.38853 0.76639 0.0
O67 O 0.22106 0.43959 0.75053 0.0
H68 H 0.17093 0.46826 0.77147 0.0
H69 H 0.17669 0.51811 0.79067 0.0
H70 H 0.04338 0.43704 0.80114 0.0
H71 H 0.03764 0.38716 0.7817 0.0
H72 H 0.99485 0.2266 0.72258 0.0
H73 H 0.05598 0.27379 0.73806 0.0
H74 H 0.07584 0.27035 0.68417 0.0
H75 H 0.13658 0.31732 0.69962 0.0
H76 H 0.36317 0.45837 0.78304 0.0
H77 H 0.36421 0.47262 0.73588 0.0
H78 H 0.28668 0.4443 0.73621 0.0
H79 H 0.28625 0.43032 0.78337 0.0
C80 C 0.67737 0.09338 0.43794 0.0
C81 C 0.68557 0.1307 0.44537 0.0
C82 C 0.61931 0.09105 0.45919 0.0
C83 C 0.65683 0.12953 0.45595 0.0
C84 C 0.61174 0.0537 0.45183 0.0
C85 C 0.64049 0.05491 0.44131 0.0
U86 U 0.77507 0.15405 0.41341 0.0
O87 O 0.82329 0.13759 0.40631 0.0
O88 O 0.78382 0.14629 0.38991 0.0
C89 C 0.81217 0.13442 0.3924 0.0
C90 C 0.70629 0.09422 0.4264 0.0
C91 C 0.80438 0.09518 0.38485 0.0
C92 C 0.75957 0.0195 0.37981 0.0
C93 C 0.76709 0.05619 0.38747 0.0
C94 C 0.82683 0.06029 0.36703 0.0
C95 C 0.78924 0.02113 0.36942 0.0
C96 C 0.83426 0.09692 0.37467 0.0
C97 C 0.84029 0.27657 0.41793 0.0
C98 C 0.88823 0.32937 0.4003 0.0
C99 C 0.88708 0.34979 0.42559 0.0
C100 C 0.85584 0.30796 0.42888 0.0
C101 C 0.90339 0.36116 0.41123 0.0
C102 C 0.85701 0.28738 0.40363 0.0
C103 C 0.80531 0.23358 0.42162 0.0
O104 O 0.70538 0.11244 0.41401 0.0
O105 O 0.74516 0.10535 0.43071 0.0
O106 O 0.81637 0.20784 0.42792 0.0
O107 O 0.77534 0.21469 0.41163 0.0
H108 H 0.71392 0.16076 0.44286 0.0
H109 H 0.66346 0.15888 0.46133 0.0
H110 H 0.58357 0.02342 0.45423 0.0
H111 H 0.63373 0.02578 0.43571 0.0
H112 H 0.73058 0.98982 0.38209 0.0
H113 H 0.74371 0.05422 0.39535 0.0
H114 H 0.85011 0.06289 0.359 0.0
H115 H 0.86319 0.12679 0.37248 0.0
H116 H 0.90049 0.33696 0.38918 0.0
H117 H 0.89757 0.3735 0.43423 0.0
H118 H 0.8432 0.30027 0.43996 0.0
H119 H 0.84555 0.26354 0.39502 0.0
C120 C 0.59925 0.6807 0.11092 0.0
C121 C 0.57642 0.69772 0.11784 0.0
C122 C 0.553 0.64345 0.13697 0.0
C123 C 0.55358 0.67933 0.13074 0.0
C124 C 0.57505 0.6258 0.12979 0.0
C125 C 0.59814 0.64442 0.11688 0.0
U126 U 0.63319 0.76559 0.08168 0.0
O127 O 0.69629 0.80998 0.07241 0.0
O128 O 0.64495 0.76512 0.05793 0.0
C129 C 0.68552 0.79412 0.05908 0.0
C130 C 0.62487 0.70151 0.09772 0.0
C131 C 0.71581 0.78428 0.05169 0.0
C132 C 0.75124 0.74247 0.04935 0.0
C133 C 0.72192 0.7509 0.05652 0.0
C134 C 0.76861 0.80075 0.0325 0.0
C135 C 0.77502 0.76735 0.03725 0.0
C136 C 0.73932 0.80908 0.03965 0.0
C137 C 0.57987 0.83576 0.08488 0.0
C138 C 0.5695 0.87849 0.06642 0.0
C139 C 0.55768 0.88634 0.09216 0.0
C140 C 0.56873 0.85563 0.09583 0.0
C141 C 0.55749 0.89792 0.0774 0.0
C142 C 0.58066 0.8477 0.07013 0.0
C143 C 0.58798 0.80119 0.08921 0.0
O144 O 0.6029 0.69645 0.08563 0.0
O145 O 0.65553 0.74105 0.09969 0.0
O146 O 0.62581 0.81281 0.09473 0.0
O147 O 0.574 0.76842 0.08026 0.0
H148 H 0.57668 0.72557 0.11334 0.0
H149 H 0.53641 0.6933 0.13586 0.0
H150 H 0.57543 0.59836 0.13437 0.0
H151 H 0.61558 0.63085 0.11167 0.0
H152 H 0.75567 0.71683 0.05342 0.0
H153 H 0.70415 0.73152 0.06584 0.0
H154 H 0.78582 0.82015 0.02311 0.0
H155 H 0.73497 0.83496 0.03576 0.0
H156 H 0.57018 0.887 0.05496 0.0
H157 H 0.54801 0.90006 0.10089 0.0
H158 H 0.56767 0.84668 0.10727 0.0
H159 H 0.58928 0.83283 0.06148 0.0
C160 C 0.94336 0.59836 0.77511 0.0
C161 C 0.90942 0.5789 0.78514 0.0
C162 C 0.94374 0.54373 0.79723 0.0
C163 C 0.90971 0.55197 0.79616 0.0
C164 C 0.97789 0.56381 0.78725 0.0
C165 C 0.97767 0.59087 0.77631 0.0
U166 U 0.88405 0.63714 0.75061 0.0
O167 O 0.90309 0.70144 0.74239 0.0
O168 O 0.88904 0.64982 0.72679 0.0
C169 C 0.90373 0.69084 0.72859 0.0
C170 C 0.9429 0.62547 0.76311 0.0
C171 C 0.94172 0.71957 0.7197 0.0
C172 C 1.01425 0.77933 0.71724 0.0
C173 C 0.97945 0.752 0.7261 0.0
C174 C 0.97437 0.74206 0.69553 0.0
C175 C 1.01215 0.77457 0.70185 0.0
C176 C 0.9396 0.71502 0.70435 0.0
C177 C 0.76245 0.58775 0.75731 0.0
C178 C 0.7142 0.61622 0.75586 0.0
C179 C 0.68574 0.53987 0.75556 0.0
C180 C 0.72719 0.54637 0.75645 0.0
C181 C 0.6787 0.5747 0.75563 0.0
C182 C 0.75568 0.62271 0.75667 0.0
C183 C 0.80513 0.5932 0.76018 0.0
O184 O 0.92209 0.60501 0.75123 0.0
O185 O 0.93503 0.65582 0.76702 0.0
O186 O 0.83386 0.6297 0.76593 0.0
O187 O 0.82073 0.579 0.75001 0.0
H188 H 0.88249 0.58412 0.78433 0.0
H189 H 0.88275 0.53666 0.80357 0.0
H190 H 1.0048 0.55854 0.78789 0.0
H191 H 1.00416 0.60565 0.76868 0.0
H192 H 0.043 0.80384 0.72246 0.0
H193 H 0.98211 0.75635 0.73791 0.0
H194 H 0.97138 0.73789 0.68371 0.0
H195 H 0.91078 0.69057 0.69914 0.0
H196 H 0.70986 0.64373 0.75574 0.0
H197 H 0.65915 0.50752 0.75553 0.0
H198 H 0.73162 0.51893 0.75698 0.0
H199 H 0.78227 0.65501 0.75722 0.0
C200 C 0.3411 0.91906 0.44554 0.0
C201 C 0.32343 0.87893 0.45229 0.0
C202 C 0.38447 0.90501 0.46881 0.0
C203 C 0.3448 0.87201 0.46383 0.0
C204 C 0.40196 0.94528 0.46204 0.0
C205 C 0.38043 0.95223 0.4505 0.0
U206 U 0.25509 0.87182 0.41667 0.0
O207 O 0.2088 0.89011 0.4088 0.0
O208 O 0.25403 0.88747 0.39335 0.0
C209 C 0.22439 0.8979 0.39538 0.0
C210 C 0.31891 0.92578 0.43313 0.0
C211 C 0.23285 0.93878 0.38893 0.0
C212 C 0.28038 0.01388 0.38357 0.0
C213 C 0.27312 0.97559 0.38995 0.0
C214 C 0.20709 0.97913 0.37519 0.0
C215 C 0.24742 0.01619 0.3761 0.0
C216 C 0.19996 0.94088 0.38152 0.0
C217 C 0.18933 0.74798 0.41732 0.0
C218 C 0.11881 0.70021 0.40736 0.0
C219 C 0.16286 0.67181 0.41614 0.0
C220 C 0.19507 0.71294 0.41971 0.0
C221 C 0.12407 0.6648 0.41011 0.0
C222 C 0.15119 0.74151 0.41095 0.0
C223 C 0.22285 0.79025 0.42233 0.0
O224 O 0.32421 0.91217 0.42034 0.0
O225 O 0.27902 0.91506 0.43568 0.0
O226 O 0.21002 0.8143 0.42884 0.0
O227 O 0.25504 0.81151 0.41331 0.0
H228 H 0.2931 0.85286 0.44859 0.0
H229 H 0.33008 0.84078 0.4689 0.0
H230 H 0.43272 0.97112 0.46544 0.0
H231 H 0.3947 0.98335 0.44535 0.0
H232 H 0.31196 0.04156 0.38436 0.0
H233 H 0.29898 0.97468 0.39564 0.0
H234 H 0.18075 0.97976 0.36978 0.0
H235 H 0.16859 0.91285 0.38066 0.0
H236 H 0.08923 0.69591 0.40282 0.0
H237 H 0.16832 0.64543 0.41816 0.0
H238 H 0.22434 0.71733 0.42458 0.0
H239 H 0.14614 0.76819 0.40901 0.0
C240 C 0.6866 0.60835 0.24317 0.0
C241 C 0.70205 0.59154 0.23244 0.0
C242 C 0.63155 0.55313 0.2212 0.0
C243 C 0.6748 0.56438 0.22148 0.0
C244 C 0.61645 0.57053 0.23186 0.0
C245 C 0.64375 0.59793 0.24271 0.0
U246 U 0.77874 0.64065 0.27011 0.0
O247 O 0.82731 0.70388 0.27814 0.0
O248 O 0.78293 0.65593 0.2937 0.0
C249 C 0.81308 0.69569 0.29174 0.0
C250 C 0.71401 0.63533 0.25524 0.0
C251 C 0.80554 0.72793 0.29882 0.0
C252 C 0.77083 0.77067 0.29954 0.0
C253 C 0.7783 0.74064 0.29246 0.0
C254 C 0.81774 0.77557 0.31939 0.0
C255 C 0.79033 0.78843 0.31313 0.0
C256 C 0.82522 0.74564 0.31229 0.0
C257 C 0.84006 0.57855 0.2681 0.0
C258 C 0.91096 0.59936 0.27732 0.0
C259 C 0.86314 0.52619 0.27014 0.0
C260 C 0.83197 0.53667 0.2665 0.0
C261 C 0.90325 0.55747 0.27543 0.0
C262 C 0.87962 0.60981 0.2737 0.0
C263 C 0.80716 0.5887 0.26335 0.0
O264 O 0.70966 0.61548 0.26778 0.0
O265 O 0.75404 0.66213 0.25187 0.0
O266 O 0.82075 0.6259 0.25698 0.0
O267 O 0.77565 0.57863 0.27261 0.0
H268 H 0.73497 0.59886 0.23266 0.0
H269 H 0.68723 0.55113 0.21352 0.0
H270 H 0.58341 0.56279 0.23185 0.0
H271 H 0.63122 0.61053 0.25089 0.0
H272 H 0.75 0.78017 0.29429 0.0
H273 H 0.76276 0.72726 0.28206 0.0
H274 H 0.8328 0.788 0.32992 0.0
H275 H 0.84615 0.73601 0.3174 0.0
H276 H 0.94158 0.62434 0.28124 0.0
H277 H 0.85576 0.49348 0.26881 0.0
H278 H 0.80157 0.51205 0.26227 0.0
H279 H 0.88651 0.64237 0.27505 0.0
C280 C 0.10153 0.68387 0.90957 0.0
C281 C 0.14042 0.7025 0.90194 0.0
C282 C 0.10945 0.64694 0.88327 0.0
C283 C 0.14431 0.68429 0.8889 0.0
C284 C 0.07082 0.62772 0.89116 0.0
C285 C 0.06687 0.64618 0.90419 0.0
U286 U 0.15306 0.76743 0.93919 0.0
O287 O 0.13472 0.81171 0.94882 0.0
O288 O 0.14083 0.76596 0.96298 0.0
C289 C 0.12945 0.79516 0.96205 0.0
C290 C 0.09709 0.70425 0.92294 0.0
C291 C 0.08929 0.78513 0.96947 0.0
C292 C 1.01204 0.7436 0.97162 0.0
C293 C 0.04983 0.7522 0.96447 0.0
C294 C 0.05283 0.80083 0.98882 0.0
C295 C 1.01305 0.76787 0.9839 0.0
C296 C 0.09051 0.80932 0.98167 0.0
C297 C 0.27647 0.8371 0.93599 0.0
C298 C 0.32893 0.8802 0.95453 0.0
C299 C 0.34966 0.88669 0.92892 0.0
C300 C 0.30797 0.85616 0.92515 0.0
C301 C 0.36084 0.89889 0.94367 0.0
C302 C 0.28704 0.84959 0.95072 0.0
C303 C 0.23377 0.8029 0.93158 0.0
O304 O 0.11401 0.6985 0.93491 0.0
O305 O 0.10613 0.74395 0.92123 0.0
O306 O 0.20772 0.81499 0.92625 0.0
O307 O 0.21488 0.7698 0.94041 0.0
H308 H 0.16765 0.73143 0.90599 0.0
H309 H 0.17466 0.6995 0.88321 0.0
H310 H 0.04335 0.59911 0.88705 0.0
H311 H 0.03663 0.63133 0.90995 0.0
H312 H 0.98199 0.71833 0.96742 0.0
H313 H 0.04827 0.73329 0.955 0.0
H314 H 0.05495 0.81975 0.99834 0.0
H315 H 0.12071 0.83485 0.9857 0.0
H316 H 0.33632 0.88919 0.96597 0.0
H317 H 0.37342 0.89982 0.92029 0.0
H318 H 0.30049 0.84677 0.91373 0.0
H319 H 0.26313 0.83531 0.95928 0.0
C320 C 0.41391 0.08736 0.57213 0.0
C321 C 0.44698 0.12537 0.56619 0.0
C322 C 0.45222 0.0864 0.54519 0.0
C323 C 0.46615 0.12487 0.55285 0.0
C324 C 0.41967 0.04836 0.55138 0.0
C325 C 0.40072 0.04888 0.56471 0.0
U326 U 0.38857 0.14621 0.60169 0.0
O327 O 0.32678 0.13057 0.61152 0.0
O328 O 0.37823 0.13483 0.6255 0.0
C329 C 0.33786 0.12443 0.62467 0.0
C330 C 0.39156 0.08746 0.58564 0.0
C331 C 0.30688 0.0844 0.63201 0.0
C332 C 0.28186 0.0107 0.63891 0.0
C333 C 0.31199 0.04844 0.632 0.0
C334 C 0.24095 0.04427 0.64584 0.0
C335 C 0.24578 1.00802 0.64587 0.0
C336 C 0.27121 0.08202 0.639 0.0
C337 C 0.44388 0.26871 0.5988 0.0
C338 C 0.43977 0.31566 0.61702 0.0
C339 C 0.47331 0.34396 0.59346 0.0
C340 C 0.46487 0.30341 0.58922 0.0
C341 C 0.461 0.35072 0.60743 0.0
C342 C 0.43124 0.27496 0.61273 0.0
C343 C 0.43555 0.22652 0.59392 0.0
O344 O 0.41562 0.10468 0.5973 0.0
O345 O 0.36267 0.09895 0.58386 0.0
O346 O 0.39726 0.20117 0.58861 0.0
O347 O 0.44923 0.2069 0.60265 0.0
H348 H 0.45743 0.15546 0.57174 0.0
H349 H 0.49092 0.1547 0.54832 0.0
H350 H 0.40867 0.01814 0.54586 0.0
H351 H 0.37528 0.01924 0.56914 0.0
H352 H 0.28703 0.98372 0.63887 0.0
H353 H 0.33923 0.04947 0.62663 0.0
H354 H 0.21333 0.04331 0.65084 0.0
H355 H 0.26654 0.10935 0.63905 0.0
H356 H 0.43014 0.31974 0.62789 0.0
H357 H 0.48891 0.3699 0.58567 0.0
H358 H 0.47463 0.2991 0.57839 0.0
H359 H 0.41491 0.24845 0.62027 0.0
C360 C 0.33649 0.42296 0.24576 0.0
C361 C 0.33144 0.45795 0.24226 0.0
C362 C 0.38433 0.47896 0.22278 0.0
C363 C 0.35526 0.48578 0.23093 0.0
C364 C 0.38838 0.44311 0.226 0.0
C365 C 0.36473 0.41542 0.23746 0.0
U366 U 0.2465 0.3853 0.27312 0.0
O367 O 0.20267 0.32208 0.28245 0.0
O368 O 0.24446 0.37496 0.29704 0.0
C369 C 0.21703 0.33397 0.29592 0.0
C370 C 0.31292 0.39506 0.25822 0.0
C371 C 0.22725 0.30552 0.30453 0.0
C372 C 0.24419 0.24843 0.30647 0.0
C373 C 0.23585 0.2756 0.29784 0.0
C374 C 0.23595 0.28104 0.32853 0.0
C375 C 0.24443 0.25092 0.32193 0.0
C376 C 0.22739 0.30791 0.31993 0.0
C377 C 0.17699 0.43895 0.26869 0.0
C378 C 0.13326 0.44935 0.28668 0.0
C379 C 0.12831 0.46308 0.26089 0.0
C380 C 0.15871 0.45134 0.25753 0.0
C381 C 0.1155 0.46271 0.27552 0.0
C382 C 0.16373 0.4375 0.28329 0.0
C383 C 0.21158 0.43047 0.26475 0.0
O384 O 0.31597 0.41512 0.2706 0.0
O385 O 0.27372 0.36491 0.2553 0.0
O386 O 0.20002 0.39245 0.25947 0.0
O387 O 0.24388 0.44458 0.27394 0.0
H388 H 0.30945 0.46407 0.24845 0.0
H389 H 0.35104 0.51277 0.22858 0.0
H390 H 0.41071 0.43722 0.21995 0.0
H391 H 0.36893 0.38849 0.23998 0.0
H392 H 0.25093 0.22582 0.30104 0.0
H393 H 0.23607 0.27314 0.28597 0.0
H394 H 0.23522 0.28341 0.34038 0.0
H395 H 0.22058 0.33051 0.32534 0.0
H396 H 0.12375 0.44821 0.29804 0.0
H397 H 0.11588 0.47378 0.25204 0.0
H398 H 0.16872 0.45292 0.24621 0.0
H399 H 0.17741 0.42792 0.29208 0.0
C400 C 0.92699 0.32835 0.90945 0.0
C401 C 0.9059 0.30379 0.897 0.0
C402 C 0.9272 0.36816 0.88264 0.0
C403 C 0.90621 0.3235 0.88374 0.0
C404 C 0.94715 0.39273 0.8952 0.0
C405 C 0.94724 0.37298 0.90846 0.0
U406 U 0.87332 0.24821 0.94068 0.0
O407 O 0.89062 0.20411 0.95112 0.0
O408 O 0.88764 0.25311 0.96439 0.0
C409 C 0.8978 0.22296 0.96399 0.0
C410 C 0.92917 0.30808 0.92334 0.0
C411 C 0.93848 0.23312 0.97105 0.0
C412 C 0.01605 0.27063 0.97144 0.0
C413 C 0.97776 0.26211 0.96467 0.0
C414 C 0.97613 0.22136 0.99103 0.0
C415 C 0.01573 0.25026 0.9847 0.0
C416 C 0.93795 0.21292 0.98426 0.0
C417 C 0.74958 0.18061 0.93909 0.0
C418 C 0.70039 0.10942 0.94826 0.0
C419 C 0.67386 0.15641 0.94114 0.0
C420 C 0.7153 0.18807 0.93755 0.0
C421 C 0.66572 0.11641 0.94632 0.0
C422 C 0.74197 0.14123 0.94468 0.0
C423 C 0.79209 0.21352 0.93389 0.0
O424 O 0.91329 0.31635 0.93506 0.0
O425 O 0.91917 0.26789 0.92247 0.0
O426 O 0.81718 0.20013 0.92862 0.0
O427 O 0.81228 0.24785 0.94208 0.0
H428 H 0.88958 0.26931 0.89742 0.0
H429 H 0.89015 0.30375 0.87428 0.0
H430 H 0.96383 0.42721 0.89465 0.0
H431 H 0.96371 0.39261 0.91789 0.0
H432 H 0.04588 0.29266 0.96615 0.0
H433 H 0.97878 0.27791 0.95443 0.0
H434 H 0.9746 0.20557 1.00132 0.0
H435 H 0.9079 0.19049 0.98936 0.0
H436 H 0.69527 0.07891 0.95211 0.0
H437 H 0.64813 0.16323 0.93976 0.0
H438 H 0.72048 0.21825 0.93328 0.0
H439 H 0.76794 0.13472 0.94597 0.0
C440 C 0.6 0.91463 0.58012 0.0
C441 C 0.56447 0.87444 0.57732 0.0
C442 C 0.54816 0.90176 0.55521 0.0
C443 C 0.53872 0.86811 0.56504 0.0
C444 C 0.58358 0.94217 0.55819 0.0
C445 C 0.60927 0.9485 0.57054 0.0
U446 U 0.6377 0.86609 0.60898 0.0
O447 O 0.70209 0.88405 0.61685 0.0
O448 O 0.65424 0.88125 0.63234 0.0
C449 C 0.69426 0.89157 0.6303 0.0
C450 C 0.62831 0.92065 0.59265 0.0
C451 C 0.72666 0.9324 0.63674 0.0
C452 C 0.75772 1.00883 0.64018 0.0
C453 C 0.72621 0.97035 0.63407 0.0
C454 C 0.79045 0.97182 0.65164 0.0
C455 C 0.79039 0.01011 0.64901 0.0
C456 C 0.7589 0.93341 0.64557 0.0
C457 C 0.58062 0.74178 0.60741 0.0
C458 C 0.57111 0.67296 0.60004 0.0
C459 C 0.55123 0.68218 0.6246 0.0
C460 C 0.56455 0.7249 0.62141 0.0
C461 C 0.5537 0.6555 0.61386 0.0
C462 C 0.58429 0.71552 0.59685 0.0
C463 C 0.58936 0.78469 0.6029 0.0
O464 O 0.60909 0.90659 0.60538 0.0
O465 O 0.65746 0.90994 0.59007 0.0
O466 O 0.62615 0.80929 0.59642 0.0
O467 O 0.57783 0.80546 0.61195 0.0
H468 H 0.55687 0.8478 0.58457 0.0
H469 H 0.51138 0.83676 0.56325 0.0
H470 H 0.59214 0.96867 0.55078 0.0
H471 H 0.63676 0.97967 0.57247 0.0
H472 H 0.75631 0.03753 0.63805 0.0
H473 H 0.70156 0.97021 0.62726 0.0
H474 H 0.8154 0.97157 0.65815 0.0
H475 H 0.75989 0.90446 0.64769 0.0
H476 H 0.57291 0.65328 0.59142 0.0
H477 H 0.53841 0.66987 0.63541 0.0
H478 H 0.56118 0.74428 0.62979 0.0
H479 H 0.59602 0.72755 0.58591 0.0
H480 H 0.54796 0.44661 0.14183 0.0
H481 H 0.43329 0.35124 0.16381 0.0
H482 H 0.46293 0.38573 0.18769 0.0
H483 H 0.62077 0.45372 0.17113 0.0
H484 H 0.65601 0.51016 0.16875 0.0
H485 H 0.62625 0.47775 0.1533 0.0
H486 H 0.59376 0.52652 0.1488 0.0
H487 H 0.62431 0.55915 0.16406 0.0
H488 H 0.56743 0.53693 0.16368 0.0
H489 H 0.50245 0.43238 0.20885 0.0
H490 H 0.55241 0.4854 0.22656 0.0
H491 H 0.64315 0.54989 0.19132 0.0
C492 C 0.52917 0.43312 0.15168 0.0
C493 C 0.48833 0.39619 0.15099 0.0
C494 C 0.46482 0.37917 0.16412 0.0
C495 C 0.48135 0.39857 0.17772 0.0
C496 C 0.52161 0.43486 0.17805 0.0
C497 C 0.54546 0.45186 0.16542 0.0
C498 C 0.58819 0.49082 0.16896 0.0
C499 C 0.62498 0.48261 0.16532 0.0
C500 C 0.59366 0.53066 0.1609 0.0
C501 C 0.58379 0.49393 0.18545 0.0
C502 C 0.54512 0.46126 0.19043 0.0
C503 C 0.53305 0.45785 0.20513 0.0
C504 C 0.56151 0.4883 0.21509 0.0
C505 C 0.60167 0.52173 0.21034 0.0
C506 C 0.61286 0.52443 0.1953 0.0
H507 H 0.08233 0.46646 0.82604 0.0
H508 H 0.14651 0.56752 0.79391 0.0
H509 H 0.15341 0.62051 0.8124 0.0
H510 H 0.02326 0.50714 0.8431 0.0
H511 H 0.02866 0.49345 0.86178 0.0
H512 H 0.03057 0.46227 0.84669 0.0
H513 H 0.10377 0.47436 0.85435 0.0
H514 H 0.10275 0.50406 0.87008 0.0
H515 H 0.14696 0.52784 0.85741 0.0
H516 H 0.15326 0.66242 0.83421 0.0
H517 H 0.14576 0.69084 0.85798 0.0
H518 H 0.08164 0.56294 0.8762 0.0
C519 C 0.09773 0.49974 0.82292 0.0
C520 C 0.11394 0.51295 0.80855 0.0
C521 C 0.13421 0.55681 0.80489 0.0
C522 C 0.1382 0.5871 0.81531 0.0
C523 C 0.1221 0.57311 0.82939 0.0
C524 C 0.10257 0.53056 0.83326 0.0
C525 C 0.08821 0.52417 0.84919 0.0
C526 C 0.03974 0.49505 0.85028 0.0
C527 C 0.11185 0.50658 0.85829 0.0
C528 C 0.10178 0.56961 0.85355 0.0
C529 C 0.12169 0.59735 0.84198 0.0
C530 C 0.13778 0.64104 0.84336 0.0
C531 C 0.13355 0.6569 0.85693 0.0
C532 C 0.11323 0.62918 0.86897 0.0
C533 C 0.09697 0.58488 0.86717 0.0
H534 H 0.63431 0.13103 0.48618 0.0
H535 H 0.53241 0.04781 0.45653 0.0
H536 H 0.47924 0.04218 0.47468 0.0
H537 H 0.58764 0.0786 0.51862 0.0
H538 H 0.60406 0.125 0.52996 0.0
H539 H 0.63537 0.12764 0.5142 0.0
H540 H 0.62973 0.19049 0.50348 0.0
H541 H 0.59938 0.18942 0.51936 0.0
H542 H 0.57805 0.18574 0.50116 0.0
H543 H 0.43713 0.03982 0.49652 0.0
H544 H 0.40826 0.04316 0.52071 0.0
H545 H 0.53664 0.12818 0.5365 0.0
C546 C 0.60082 0.11225 0.4834 0.0
C547 C 0.58759 0.08971 0.46993 0.0
C548 C 0.54339 0.06487 0.46683 0.0
C549 C 0.51291 0.06173 0.47701 0.0
C550 C 0.52697 0.08378 0.49024 0.0
C551 C 0.56982 0.10873 0.49346 0.0
C552 C 0.57614 0.12735 0.50883 0.0
C553 C 0.6023 0.1138 0.51847 0.0
C554 C 0.59706 0.17615 0.50816 0.0
C555 C 0.53017 0.10712 0.51396 0.0
C556 C 0.50238 0.08275 0.50294 0.0
C557 C 0.45848 0.0594 0.50516 0.0
C558 C 0.44242 0.06115 0.519 0.0
C559 C 0.47015 0.08588 0.53051 0.0
C560 C 0.51462 0.10942 0.52787 0.0
H561 H 0.40129 0.46309 0.19464 0.0
H562 H 0.42891 0.56552 0.22528 0.0
H563 H 0.47461 0.61828 0.20666 0.0
H564 H 0.5039 0.50845 0.1788 0.0
H565 H 0.48601 0.49142 0.16019 0.0
H566 H 0.45341 0.46104 0.1755 0.0
H567 H 0.39007 0.46744 0.16588 0.0
H568 H 0.42144 0.49704 0.15023 0.0
H569 H 0.39718 0.51936 0.16186 0.0
H570 H 0.51765 0.65982 0.185 0.0
H571 H 0.55533 0.68797 0.16149 0.0
H572 H 0.50041 0.55902 0.14462 0.0
C573 C 0.41703 0.49664 0.19741 0.0
C574 C 0.41149 0.51026 0.2114 0.0
C575 C 0.43235 0.55443 0.21458 0.0
C576 C 0.45847 0.58461 0.2041 0.0
C577 C 0.46321 0.57018 0.19043 0.0
C578 C 0.44287 0.52731 0.18699 0.0
C579 C 0.45339 0.52049 0.17144 0.0
C580 C 0.47556 0.49379 0.17147 0.0
C581 C 0.41311 0.49987 0.16178 0.0
C582 C 0.48358 0.56616 0.16679 0.0
C583 C 0.48841 0.59426 0.1779 0.0
C584 C 0.51405 0.63815 0.17621 0.0
C585 C 0.53516 0.65384 0.16278 0.0
C586 C 0.5307 0.62577 0.15118 0.0
C587 C 0.50473 0.58128 0.15331 0.0
H588 H 0.92116 0.53627 0.82655 0.0
H589 H 0.96454 0.48165 0.7929 0.0
H590 H 0.96285 0.42992 0.81093 0.0
H591 H 0.98078 0.5288 0.85628 0.0
H592 H 0.93952 0.51365 0.86985 0.0
H593 H 0.94183 0.54548 0.85428 0.0
H594 H 0.86435 0.49058 0.84738 0.0
H595 H 0.86122 0.45856 0.86303 0.0
H596 H 0.84937 0.43547 0.84489 0.0
H597 H 0.95525 0.38333 0.83222 0.0
H598 H 0.94879 0.34879 0.85624 0.0
H599 H 0.91231 0.4343 0.87654 0.0
C600 C 0.92996 0.51319 0.82296 0.0
C601 C 0.94293 0.51298 0.80828 0.0
C602 C 0.95485 0.48269 0.80409 0.0
C603 C 0.95364 0.45292 0.81422 0.0
C604 C 0.9404 0.45376 0.82853 0.0
C605 C 0.92921 0.48335 0.83298 0.0
C606 C 0.91751 0.47807 0.84919 0.0
C607 C 0.94668 0.51888 0.8579 0.0
C608 C 0.87031 0.46488 0.85124 0.0
C609 C 0.92527 0.44181 0.85322 0.0
C610 C 0.93733 0.42759 0.84102 0.0
C611 C 0.9456 0.39398 0.84184 0.0
C612 C 0.94178 0.37452 0.85552 0.0
C613 C 0.93004 0.38883 0.86824 0.0
C614 C 0.92169 0.42296 0.86703 0.0
H615 H 0.52293 0.95503 0.54252 0.0
H616 H 0.51428 0.83177 0.53715 0.0
H617 H 0.47094 0.81899 0.51481 0.0
H618 H 0.41756 0.9252 0.53002 0.0
H619 H 0.4337 0.97408 0.52016 0.0
H620 H 0.46348 0.97404 0.53602 0.0
H621 H 0.53192 1.0069 0.52077 0.0
H622 H 0.50376 1.00649 0.50437 0.0
H623 H 0.53509 0.9806 0.50436 0.0
H624 H 0.42935 0.81984 0.49285 0.0
H625 H 0.3926 0.83437 0.47274 0.0
H626 H 0.42917 0.95763 0.49203 0.0
C627 C 0.51207 0.92538 0.53665 0.0
C628 C 0.52184 0.89427 0.54173 0.0
C629 C 0.50663 0.8558 0.5337 0.0
C630 C 0.48216 0.84832 0.52092 0.0
C631 C 0.47316 0.87961 0.51624 0.0
C632 C 0.48761 0.91736 0.52385 0.0
C633 C 0.47434 0.94617 0.51623 0.0
C634 C 0.44557 0.9554 0.52621 0.0
C635 C 0.51369 0.98754 0.51114 0.0
C636 C 0.44981 0.91859 0.50324 0.0
C637 C 0.44959 0.88033 0.50346 0.0
C638 C 0.42913 0.84961 0.4926 0.0
C639 C 0.40813 0.85809 0.48126 0.0
C640 C 0.40764 0.897 0.48082 0.0
C641 C 0.42911 0.92769 0.49196 0.0
H642 H 0.52344 0.0966 0.09124 0.0
H643 H 0.44096 0.05743 0.0529 0.0
H644 H 0.45597 0.99872 0.04865 0.0
H645 H 0.60333 0.07451 0.07601 0.0
H646 H 0.61233 0.05596 0.09332 0.0
H647 H 0.5958 0.09536 0.09305 0.0
H648 H 0.53124 0.04706 0.10966 0.0
H649 H 0.54752 1.00751 0.10997 0.0
H650 H 0.49455 0.99321 0.10396 0.0
H651 H 0.47916 0.94308 0.04898 0.0
H652 H 0.50663 0.89419 0.05431 0.0
H653 H 0.57545 0.97159 0.092 0.0
C654 C 0.50899 0.07614 0.0818 0.0
C655 C 0.4811 0.08184 0.07237 0.0
C656 C 0.46212 0.05356 0.06037 0.0
C657 C 0.4707 0.02029 0.0578 0.0
C658 C 0.49838 0.01569 0.06732 0.0
C659 C 0.51722 0.04289 0.07908 0.0
C660 C 0.54491 0.03056 0.08792 0.0
C661 C 0.59187 0.06622 0.08754 0.0
C662 C 0.52856 0.01888 0.10382 0.0
C663 C 0.53836 0.99183 0.07941 0.0
C664 C 0.51166 0.98388 0.06751 0.0
C665 C 0.50034 0.94922 0.05822 0.0
C666 C 0.51635 0.92176 0.06128 0.0
C667 C 0.54329 0.92897 0.07356 0.0
C668 C 0.55466 0.96487 0.0826 0.0
H669 H 0.4253 0.45399 0.74277 0.0
H670 H 0.42083 0.53497 0.77704 0.0
H671 H 0.49934 0.57343 0.77862 0.0
H672 H 0.50974 0.44348 0.75851 0.0
H673 H 0.53474 0.4446 0.74124 0.0
H674 H 0.47824 0.42516 0.74195 0.0
H675 H 0.48641 0.48004 0.72207 0.0
H676 H 0.54299 0.49966 0.7213 0.0
H677 H 0.52352 0.53585 0.72501 0.0
H678 H 0.57748 0.60176 0.77716 0.0
H679 H 0.65102 0.61615 0.77364 0.0
H680 H 0.60637 0.51647 0.74061 0.0
C681 C 0.44102 0.48014 0.75046 0.0
C682 C 0.41705 0.49151 0.75981 0.0
C683 C 0.43861 0.52554 0.76988 0.0
C684 C 0.48317 0.54774 0.77079 0.0
C685 C 0.50589 0.53554 0.76158 0.0
C686 C 0.48571 0.50248 0.75163 0.0
C687 C 0.5179 0.49462 0.74357 0.0
C688 C 0.50965 0.44927 0.7465 0.0
C689 C 0.51769 0.50305 0.72701 0.0
C690 C 0.5591 0.52796 0.75072 0.0
C691 C 0.55136 0.55154 0.76092 0.0
C692 C 0.58404 0.58376 0.76912 0.0
C693 C 0.62578 0.59188 0.76697 0.0
C694 C 0.6346 0.5677 0.75678 0.0
C695 C 0.60067 0.53546 0.74849 0.0
H696 H 0.09846 0.59403 0.42742 0.0
H697 H 0.07002 0.63546 0.38626 0.0
H698 H 1.01172 0.56182 0.38161 0.0
H699 H 0.07902 0.49128 0.41449 0.0
H700 H 0.05577 0.46484 0.43163 0.0
H701 H 0.09551 0.5206 0.43152 0.0
H702 H 0.04343 0.53823 0.44524 0.0
H703 H 1.00356 0.48258 0.4454 0.0
H704 H 0.99137 0.52102 0.43758 0.0
H705 H 0.95595 0.48318 0.38166 0.0
H706 H 0.9058 0.40709 0.38683 0.0
H707 H 0.97227 0.41763 0.42773 0.0
C708 C 0.08038 0.58761 0.41732 0.0
C709 C 0.08901 0.62057 0.40717 0.0
C710 C 0.06384 0.61085 0.39426 0.0
C711 C 0.03085 0.56906 0.39148 0.0
C712 C 0.02339 0.53736 0.40171 0.0
C713 C 0.04743 0.54622 0.41439 0.0
C714 C 0.03248 0.50677 0.42381 0.0
C715 C 0.0678 0.4952 0.42545 0.0
C716 C 0.01677 0.51251 0.4389 0.0
C717 C 0.99599 0.4743 0.41452 0.0
C718 C 0.99137 0.49242 0.40177 0.0
C719 C 0.95943 0.46864 0.39157 0.0
C720 C 0.93126 0.42536 0.39456 0.0
C721 C 0.93506 0.40629 0.40768 0.0
C722 C 0.96821 0.43126 0.41767 0.0
H723 H 0.92288 0.50503 0.25953 0.0
H724 H 0.96053 0.58522 0.29841 0.0
H725 H 0.01722 0.56761 0.30329 0.0
H726 H 0.94017 0.42214 0.27494 0.0
H727 H 0.95972 0.41324 0.25785 0.0
H728 H 0.9216 0.43147 0.25769 0.0
H729 H 0.97296 0.49624 0.24167 0.0
H730 H 1.01122 0.47826 0.2418 0.0
H731 H 0.0266 0.53127 0.24801 0.0
H732 H 0.07107 0.54215 0.30353 0.0
H733 H 0.11868 0.51288 0.29871 0.0
H734 H 0.04381 0.44769 0.26012 0.0
C735 C 0.94256 0.51845 0.26921 0.0
C736 C 0.93706 0.54647 0.27861 0.0
C737 C 0.96431 0.56403 0.29096 0.0
C738 C 0.99641 0.55395 0.29388 0.0
C739 C 1.00085 0.52619 0.28438 0.0
C740 C 0.97462 0.50869 0.2723 0.0
C741 C 0.98656 0.48057 0.26358 0.0
C742 C 0.94983 0.4341 0.26352 0.0
C743 C 1.00015 0.49762 0.24784 0.0
C744 C 0.024 0.48536 0.27253 0.0
C745 C 0.03161 0.51155 0.28454 0.0
C746 C 0.06516 0.52134 0.29422 0.0
C747 C 0.09189 0.50431 0.29144 0.0
C748 C 0.08504 0.47787 0.27905 0.0
C749 C 0.05023 0.46804 0.26962 0.0
H750 H 0.59434 0.09591 0.92988 0.0
H751 H 0.63596 0.05822 0.96903 0.0
H752 H 0.56198 1.00008 0.97325 0.0
H753 H 0.49207 0.07524 0.94437 0.0
H754 H 0.46513 0.05593 0.92701 0.0
H755 H 0.52109 0.0951 0.92738 0.0
H756 H 0.5376 0.0457 0.91148 0.0
H757 H 0.48175 1.00638 0.91107 0.0
H758 H 0.51998 0.99209 0.91763 0.0
H759 H 0.48306 0.94476 0.97279 0.0
H760 H 0.40689 0.89594 0.96726 0.0
H761 H 0.41731 0.97171 0.92882 0.0
C762 C 0.5879 0.07592 0.93949 0.0
C763 C 0.62108 0.08185 0.94916 0.0
C764 C 0.61124 0.05416 0.96139 0.0
C765 C 0.56924 0.02122 0.96394 0.0
C766 C 0.53737 0.01636 0.95417 0.0
C767 C 0.54628 0.043 0.94219 0.0
C768 C 0.50666 0.03046 0.93311 0.0
C769 C 0.49559 0.06632 0.93296 0.0
C770 C 0.51182 0.0179 0.9174 0.0
C771 C 0.47406 0.99225 0.94174 0.0
C772 C 0.49226 0.98473 0.9539 0.0
C773 C 0.46846 0.95057 0.96335 0.0
C774 C 0.4251 0.92315 0.96017 0.0
C775 C 0.40595 0.92991 0.94761 0.0
C776 C 0.43093 0.96533 0.93843 0.0
H777 H 0.58693 0.60495 0.60545 0.0
H778 H 0.47925 0.60065 0.62808 0.0
H779 H 0.44618 0.5226 0.63062 0.0
H780 H 0.52772 0.51276 0.58438 0.0
H781 H 0.56617 0.49502 0.58543 0.0
H782 H 0.58354 0.55091 0.5868 0.0
H783 H 0.61971 0.55471 0.6118 0.0
H784 H 0.60262 0.49879 0.61047 0.0
H785 H 0.58878 0.51888 0.62642 0.0
H786 H 0.42181 0.44411 0.6287 0.0
H787 H 0.40884 0.37201 0.62281 0.0
H788 H 0.53273 0.42781 0.60161 0.0
C789 C 0.55657 0.58768 0.61106 0.0
C790 C 0.53583 0.60908 0.61662 0.0
C791 C 0.49618 0.58519 0.62396 0.0
C792 C 0.477 0.54076 0.62538 0.0
C793 C 0.49794 0.52063 0.61951 0.0
C794 C 0.53702 0.54338 0.61259 0.0
C795 C 0.55196 0.514 0.60661 0.0
C796 C 0.55766 0.51844 0.58981 0.0
C797 C 0.59321 0.52208 0.61429 0.0
C798 C 0.51465 0.47109 0.61088 0.0
C799 C 0.48398 0.47555 0.61843 0.0
C800 C 0.4459 0.44026 0.62297 0.0
C801 C 0.4389 0.39939 0.61963 0.0
C802 C 0.46974 0.39406 0.61176 0.0
C803 C 0.50829 0.43062 0.60752 0.0
H804 H 0.03395 0.19318 0.99834 0.0
H805 H 0.08973 0.32731 0.98749 0.0
H806 H 0.15694 0.34194 0.99952 0.0
H807 H 0.08242 0.20863 0.03421 0.0
H808 H 0.09037 0.16346 0.0326 0.0
H809 H 0.0468 0.16361 0.02306 0.0
H810 H 0.07388 0.15002 0.9984 0.0
H811 H 0.11756 0.14989 1.00786 0.0
H812 H 0.12799 0.18581 0.99267 0.0
H813 H 0.21823 0.34195 0.01295 0.0
H814 H 0.2691 0.32704 0.02613 0.0
H815 H 0.17264 0.19317 0.02866 0.0
C816 C 0.06012 0.22573 0.99859 0.0
C817 C 0.0564 0.25909 0.99193 0.0
C818 C 0.09184 0.30109 0.99232 0.0
C819 C 0.1301 0.30977 0.99923 0.0
C820 C 0.13257 0.27616 1.0057 0.0
C821 C 0.09853 0.23496 1.00542 0.0
C822 C 0.1095 0.20448 0.01311 0.0
C823 C 0.08055 0.18384 0.02654 0.0
C824 C 0.1071 0.17056 1.00236 0.0
C825 C 0.15508 0.23493 0.01772 0.0
C826 C 0.16777 0.27616 0.01339 0.0
C827 C 0.20856 0.30979 0.01642 0.0
C828 C 0.23718 0.30104 0.024 0.0
C829 C 0.225 0.25894 0.02847 0.0
C830 C 0.18322 0.22562 0.02527 0.0
H831 H 0.829 0.02488 0.67627 0.0
H832 H 0.83066 0.08856 0.63558 0.0
H833 H 0.88936 0.15606 0.64528 0.0
H834 H 0.8538 0.11346 0.70083 0.0
H835 H 0.88732 0.10251 0.71259 0.0
H836 H 0.84368 0.05965 0.70281 0.0
H837 H 0.89583 0.03862 0.69109 0.0
H838 H 0.93959 0.08132 0.70085 0.0
H839 H 0.94167 0.0781 0.68111 0.0
H840 H 0.9503 0.21595 0.65889 0.0
H841 H 1.00882 0.26388 0.67545 0.0
H842 H 0.96885 0.16111 0.70711 0.0
C843 C 0.84167 0.05296 0.66937 0.0
C844 C 0.82488 0.05124 0.65514 0.0
C845 C 0.84228 0.08902 0.64659 0.0
C846 C 0.87587 0.12754 0.65198 0.0
C847 C 0.89179 0.12795 0.66597 0.0
C848 C 0.87524 0.09168 0.67457 0.0
C849 C 0.89899 0.10046 0.68906 0.0
C850 C 0.86917 0.09362 0.70209 0.0
C851 C 0.92029 0.073 0.69061 0.0
C852 C 0.93187 0.14721 0.68718 0.0
C853 C 0.92703 0.16246 0.67381 0.0
C854 C 0.95431 0.20436 0.66941 0.0
C855 C 0.98762 0.23129 0.67886 0.0
C856 C 0.99355 0.21631 0.69258 0.0
C857 C 0.96489 0.17373 0.6968 0.0
H858 H 0.84579 0.99415 0.36183 0.0
H859 H 0.7132 0.96078 0.35742 0.0
H860 H 0.69894 0.89759 0.3428 0.0
H861 H 0.85783 0.96414 0.32527 0.0
H862 H 0.89182 0.94345 0.33084 0.0
H863 H 0.89136 0.98547 0.34127 0.0
H864 H 0.87298 0.93951 0.3649 0.0
H865 H 0.87335 0.89733 0.35453 0.0
H866 H 0.82686 0.88677 0.36505 0.0
H867 H 0.69931 0.83846 0.32828 0.0
H868 H 0.714 0.78725 0.31536 0.0
H869 H 0.84683 0.86026 0.32862 0.0
C870 C 0.81378 0.9737 0.35774 0.0
C871 C 0.78059 0.9825 0.36084 0.0
C872 C 0.73904 0.95449 0.35541 0.0
C873 C 0.73067 0.91862 0.347 0.0
C874 C 0.76413 0.91104 0.34411 0.0
C875 C 0.80484 0.93773 0.34934 0.0
C876 C 0.83517 0.92245 0.34463 0.0
C877 C 0.87116 0.95587 0.33493 0.0
C878 C 0.85314 0.91082 0.35808 0.0
C879 C 0.80521 0.88314 0.33586 0.0
C880 C 0.76438 0.8771 0.3357 0.0
C881 C 0.73121 0.84296 0.3283 0.0
C882 C 0.73997 0.81417 0.32089 0.0
C883 C 0.78161 0.81963 0.32089 0.0
C884 C 0.81454 0.85476 0.32851 0.0
H885 H 0.8545 0.82517 0.0265 0.0
H886 H 0.76601 0.68934 0.03038 0.0
H887 H 0.81704 0.67458 0.01727 0.0
H888 H 0.89125 0.82204 0.99 0.0
H889 H 0.94548 0.8629 0.99362 0.0
H890 H 0.90225 0.86266 1.00352 0.0
H891 H 0.93755 0.86182 0.02823 0.0
H892 H 0.98086 0.86202 0.0184 0.0
H893 H 0.95063 0.8206 0.03161 0.0
H894 H 0.87768 0.67472 1.00335 0.0
H895 H 0.94364 0.68974 0.99031 0.0
H896 H 0.99163 0.8255 0.99505 0.0
C897 C 0.84565 0.79229 0.02452 0.0
C898 C 0.80611 0.75842 0.02952 0.0
C899 C 0.79624 0.71586 0.02686 0.0
C900 C 0.82493 0.70715 0.01933 0.0
C901 C 0.86348 0.7413 0.01452 0.0
C902 C 0.8739 0.78302 0.01704 0.0
C903 C 0.91739 0.81396 0.01075 0.0
C904 C 0.91386 0.84203 0.99876 0.0
C905 C 0.94843 0.8412 0.02298 0.0
C906 C 0.92982 0.78314 1.00427 0.0
C907 C 0.89828 0.74137 1.00653 0.0
C908 C 0.90254 0.70733 1.0015 0.0
C909 C 0.94005 0.71619 0.99401 0.0
C910 C 0.97296 0.7588 0.99161 0.0
C911 C 0.96744 0.79256 0.99683 0.0
H912 H 0.20001 0.99741 0.67141 0.0
H913 H 0.21618 0.92629 0.63598 0.0
H914 H 0.16091 0.85915 0.64709 0.0
H915 H 0.18015 0.92146 0.70053 0.0
H916 H 0.1403 0.92976 0.70937 0.0
H917 H 0.18268 0.97233 0.69906 0.0
H918 H 0.12706 0.9791 0.68306 0.0
H919 H 0.08454 0.93667 0.69336 0.0
H920 H 0.08639 0.93279 0.67363 0.0
H921 H 0.10203 0.79971 0.6615 0.0
H922 H 0.04351 0.75228 0.67815 0.0
H923 H 0.06387 0.86181 0.70388 0.0
C924 C 0.19191 0.96778 0.66594 0.0
C925 C 0.21286 0.96737 0.65282 0.0
C926 C 0.20138 0.92765 0.64616 0.0
C927 C 0.16976 0.88925 0.65234 0.0
C928 C 0.14973 0.89091 0.66521 0.0
C929 C 0.1603 0.92912 0.67194 0.0
C930 C 0.13305 0.92207 0.68548 0.0
C931 C 0.16071 0.93731 0.69943 0.0
C932 C 0.10617 0.94395 0.68377 0.0
C933 C 0.1053 0.87394 0.68525 0.0
C934 C 0.11555 0.85661 0.67348 0.0
C935 C 0.09376 0.81293 0.67076 0.0
C936 C 0.06039 0.78626 0.68024 0.0
C937 C 0.04896 0.80325 0.69232 0.0
C938 C 0.07213 0.84773 0.69487 0.0
H939 H 0.21583 0.0284 0.34999 0.0
H940 H 0.29508 0.09695 0.38742 0.0
H941 H 0.30596 0.1645 0.37694 0.0
H942 H 0.27487 0.10931 0.32244 0.0
H943 H 0.22768 0.10003 0.31263 0.0
H944 H 0.2279 0.05716 0.32264 0.0
H945 H 0.16145 0.04508 0.33736 0.0
H946 H 0.16094 0.08778 0.32737 0.0
H947 H 0.16294 0.08904 0.34718 0.0
H948 H 0.3059 0.22438 0.36296 0.0
H949 H 0.29456 0.27217 0.34656 0.0
H950 H 0.2138 0.16473 0.31851 0.0
C951 C 0.23542 0.05755 0.35603 0.0
C952 C 0.25476 0.05715 0.36954 0.0
C953 C 0.28051 0.09628 0.37695 0.0
C954 C 0.2867 0.13488 0.37112 0.0
C955 C 0.26698 0.134 0.35785 0.0
C956 C 0.24187 0.09638 0.35039 0.0
C957 C 0.22329 0.10411 0.33654 0.0
C958 C 0.23941 0.09193 0.32275 0.0
C959 C 0.17425 0.08008 0.33716 0.0
C960 C 0.24149 0.15191 0.33747 0.0
C961 C 0.26676 0.16853 0.34982 0.0
C962 C 0.28624 0.21172 0.35325 0.0
C963 C 0.27941 0.23858 0.3439 0.0
C964 C 0.25321 0.22227 0.33125 0.0
C965 C 0.23442 0.17833 0.32797 0.0
loop_
_geom_bond_atom_site_label_1
_geom_bond_atom_site_label_2
_geom_bond_distance
_geom_bond_site_symmetry_2
_ccdc_geom_bond_type
C0 C1 1.264 . S
C0 C5 1.479 . S
C0 C10 1.465 . S
C1 C0 1.264 . S
C1 C3 1.339 . S
C1 H28 0.931 . S
C2 C3 1.395 . S
C2 C4 1.320 . S
C3 C1 1.339 . S
C3 C2 1.395 . S
C3 H29 0.929 . S
C4 C2 1.320 . S
C4 C5 1.405 . S
C4 H30 0.930 . S
C5 C0 1.479 . S
C5 C4 1.405 . S
C5 H31 0.931 . S
U6 O7 2.454 . S
U6 O8 2.458 . S
U6 C9 2.984 . S
U6 C10 2.847 . S
U6 C23 2.882 . S
U6 O24 2.441 . S
U6 O25 2.420 . S
U6 O26 2.455 . S
U6 O27 2.449 . S
O7 U6 2.454 . S
O7 C9 1.353 . S
O8 U6 2.458 . S
O8 C9 1.286 . S
C9 U6 2.984 . S
C9 O7 1.353 . S
C9 O8 1.286 . S
C9 C11 1.363 . S
C10 C0 1.465 . S
C10 U6 2.847 . S
C10 O24 1.249 . S
C10 O25 1.202 . S
C11 C9 1.363 . S
C11 C13 1.408 . S
C11 C16 1.342 . S
C12 C13 1.310 . S
C12 C15 1.461 . S
C12 H32 0.932 . S
C13 C11 1.408 . S
C13 C12 1.310 . S
C13 H33 0.930 . S
C14 C15 1.474 . S
C14 C16 1.285 . S
C14 H34 0.929 1_554 S
C15 C12 1.461 . S
C15 C14 1.474 . S
C16 C11 1.342 . S
C16 C14 1.285 . S
C16 H35 0.930 . S
C17 C20 1.424 . S
C17 C22 1.245 . S
C17 C23 1.428 . S
C18 C21 1.260 . S
C18 C22 1.477 . S
C18 H36 0.932 . S
C19 C20 1.384 . S
C19 C21 1.479 . S
C19 H37 0.929 . S
C20 C17 1.424 . S
C20 C19 1.384 . S
C20 H38 0.928 . S
C21 C18 1.260 . S
C21 C19 1.479 . S
C22 C17 1.245 . S
C22 C18 1.477 . S
C22 H39 0.932 . S
C23 U6 2.882 . S
C23 C17 1.428 . S
C23 O26 1.301 . S
C23 O27 1.282 . S
O24 U6 2.441 . S
O24 C10 1.249 . S
O25 U6 2.420 . S
O25 C10 1.202 . S
O26 U6 2.455 . S
O26 C23 1.301 . S
O27 U6 2.449 . S
O27 C23 1.282 . S
H28 C1 0.931 . S
H29 C3 0.929 . S
H30 C4 0.930 . S
H31 C5 0.931 . S
H32 C12 0.932 . S
H33 C13 0.930 . S
H34 C14 0.929 1_556 S
H35 C16 0.930 . S
H36 C18 0.932 . S
H37 C19 0.929 . S
H38 C20 0.928 . S
H39 C22 0.932 . S
C40 C41 1.264 . S
C40 C45 1.479 . S
C40 C50 1.465 . S
C41 C40 1.264 . S
C41 C43 1.339 . S
C41 H68 0.931 . S
C42 C43 1.395 . S
C42 C44 1.320 . S
C43 C41 1.339 . S
C43 C42 1.395 . S
C43 H69 0.929 . S
C44 C42 1.320 . S
C44 C45 1.405 . S
C44 H70 0.930 . S
C45 C40 1.479 . S
C45 C44 1.405 . S
C45 H71 0.931 . S
U46 O47 2.454 . S
U46 O48 2.458 . S
U46 C49 2.984 . S
U46 C50 2.847 . S
U46 C63 2.882 . S
U46 O64 2.441 . S
U46 O65 2.420 . S
U46 O66 2.455 . S
U46 O67 2.449 . S
O47 U46 2.454 . S
O47 C49 1.353 . S
O48 U46 2.458 . S
O48 C49 1.286 . S
C49 U46 2.984 . S
C49 O47 1.353 . S
C49 O48 1.286 . S
C49 C51 1.363 . S
C50 C40 1.465 . S
C50 U46 2.847 . S
C50 O64 1.249 . S
C50 O65 1.202 . S
C51 C49 1.363 . S
C51 C53 1.408 . S
C51 C56 1.342 . S
C52 C53 1.310 1_655 S
C52 C55 1.461 . S
C52 H72 0.932 . S
C53 C51 1.408 . S
C53 C52 1.310 1_455 S
C53 H73 0.930 . S
C54 C55 1.474 1_455 S
C54 C56 1.285 . S
C54 H74 0.929 . S
C55 C52 1.461 . S
C55 C54 1.474 1_655 S
C56 C51 1.342 . S
C56 C54 1.285 . S
C56 H75 0.930 . S
C57 C60 1.424 . S
C57 C62 1.245 . S
C57 C63 1.428 . S
C58 C61 1.260 . S
C58 C62 1.477 . S
C58 H76 0.932 . S
C59 C60 1.384 . S
C59 C61 1.479 . S
C59 H77 0.929 . S
C60 C57 1.424 . S
C60 C59 1.384 . S
C60 H78 0.928 . S
C61 C58 1.260 . S
C61 C59 1.479 . S
C62 C57 1.245 . S
C62 C58 1.477 . S
C62 H79 0.932 . S
C63 U46 2.882 . S
C63 C57 1.428 . S
C63 O66 1.301 . S
C63 O67 1.282 . S
O64 U46 2.441 . S
O64 C50 1.249 . S
O65 U46 2.420 . S
O65 C50 1.202 . S
O66 U46 2.455 . S
O66 C63 1.301 . S
O67 U46 2.449 . S
O67 C63 1.282 . S
H68 C41 0.931 . S
H69 C43 0.929 . S
H70 C44 0.930 . S
H71 C45 0.931 . S
H72 C52 0.932 . S
H73 C53 0.930 . S
H74 C54 0.929 . S
H75 C56 0.930 . S
H76 C58 0.932 . S
H77 C59 0.929 . S
H78 C60 0.928 . S
H79 C62 0.932 . S
C80 C81 1.264 . S
C80 C85 1.479 . S
C80 C90 1.465 . S
C81 C80 1.264 . S
C81 C83 1.339 . S
C81 H108 0.931 . S
C82 C83 1.395 . S
C82 C84 1.320 . S
C83 C81 1.339 . S
C83 C82 1.395 . S
C83 H109 0.929 . S
C84 C82 1.320 . S
C84 C85 1.405 . S
C84 H110 0.930 . S
C85 C80 1.479 . S
C85 C84 1.405 . S
C85 H111 0.931 . S
U86 O87 2.454 . S
U86 O88 2.458 . S
U86 C89 2.984 . S
U86 C90 2.847 . S
U86 C103 2.882 . S
U86 O104 2.441 . S
U86 O105 2.420 . S
U86 O106 2.455 . S
U86 O107 2.449 . S
O87 U86 2.454 . S
O87 C89 1.353 . S
O88 U86 2.458 . S
O88 C89 1.286 . S
C89 U86 2.984 . S
C89 O87 1.353 . S
C89 O88 1.286 . S
C89 C91 1.363 . S
C90 C80 1.465 . S
C90 U86 2.847 . S
C90 O104 1.249 . S
C90 O105 1.202 . S
C91 C89 1.363 . S
C91 C93 1.408 . S
C91 C96 1.342 . S
C92 C93 1.310 1_565 S
C92 C95 1.461 . S
C92 H112 0.932 . S
C93 C91 1.408 . S
C93 C92 1.310 1_545 S
C93 H113 0.930 . S
C94 C95 1.474 1_545 S
C94 C96 1.285 . S
C94 H114 0.929 . S
C95 C92 1.461 . S
C95 C94 1.474 1_565 S
C96 C91 1.342 . S
C96 C94 1.285 . S
C96 H115 0.930 . S
C97 C100 1.424 . S
C97 C102 1.245 . S
C97 C103 1.428 . S
C98 C101 1.260 . S
C98 C102 1.477 . S
C98 H116 0.932 . S
C99 C100 1.384 . S
C99 C101 1.479 . S
C99 H117 0.929 . S
C100 C97 1.424 . S
C100 C99 1.384 . S
C100 H118 0.928 . S
C101 C98 1.260 . S
C101 C99 1.479 . S
C102 C97 1.245 . S
C102 C98 1.477 . S
C102 H119 0.932 . S
C103 U86 2.882 . S
C103 C97 1.428 . S
C103 O106 1.301 . S
C103 O107 1.282 . S
O104 U86 2.441 . S
O104 C90 1.249 . S
O105 U86 2.420 . S
O105 C90 1.202 . S
O106 U86 2.455 . S
O106 C103 1.301 . S
O107 U86 2.449 . S
O107 C103 1.282 . S
H108 C81 0.931 . S
H109 C83 0.929 . S
H110 C84 0.930 . S
H111 C85 0.931 . S
H112 C92 0.932 . S
H113 C93 0.930 . S
H114 C94 0.929 . S
H115 C96 0.930 . S
H116 C98 0.932 . S
H117 C99 0.929 . S
H118 C100 0.928 . S
H119 C102 0.932 . S
C120 C121 1.264 . S
C120 C125 1.479 . S
C120 C130 1.465 . S
C121 C120 1.264 . S
C121 C123 1.339 . S
C121 H148 0.931 . S
C122 C123 1.395 . S
C122 C124 1.320 . S
C123 C121 1.339 . S
C123 C122 1.395 . S
C123 H149 0.929 . S
C124 C122 1.320 . S
C124 C125 1.405 . S
C124 H150 0.930 . S
C125 C120 1.479 . S
C125 C124 1.405 . S
C125 H151 0.931 . S
U126 O127 2.454 . S
U126 O128 2.458 . S
U126 C129 2.984 . S
U126 C130 2.847 . S
U126 C143 2.882 . S
U126 O144 2.441 . S
U126 O145 2.420 . S
U126 O146 2.455 . S
U126 O147 2.449 . S
O127 U126 2.454 . S
O127 C129 1.353 . S
O128 U126 2.458 . S
O128 C129 1.286 . S
C129 U126 2.984 . S
C129 O127 1.353 . S
C129 O128 1.286 . S
C129 C131 1.363 . S
C130 C120 1.465 . S
C130 U126 2.847 . S
C130 O144 1.249 . S
C130 O145 1.202 . S
C131 C129 1.363 . S
C131 C133 1.408 . S
C131 C136 1.342 . S
C132 C133 1.310 . S
C132 C135 1.461 . S
C132 H152 0.932 . S
C133 C131 1.408 . S
C133 C132 1.310 . S
C133 H153 0.930 . S
C134 C135 1.474 . S
C134 C136 1.285 . S
C134 H154 0.929 1_554 S
C135 C132 1.461 . S
C135 C134 1.474 . S
C136 C131 1.342 . S
C136 C134 1.285 . S
C136 H155 0.930 . S
C137 C140 1.424 . S
C137 C142 1.245 . S
C137 C143 1.428 . S
C138 C141 1.260 . S
C138 C142 1.477 . S
C138 H156 0.932 . S
C139 C140 1.384 . S
C139 C141 1.479 . S
C139 H157 0.929 . S
C140 C137 1.424 . S
C140 C139 1.384 . S
C140 H158 0.928 . S
C141 C138 1.260 . S
C141 C139 1.479 . S
C142 C137 1.245 . S
C142 C138 1.477 . S
C142 H159 0.932 . S
C143 U126 2.882 . S
C143 C137 1.428 . S
C143 O146 1.301 . S
C143 O147 1.282 . S
O144 U126 2.441 . S
O144 C130 1.249 . S
O145 U126 2.420 . S
O145 C130 1.202 . S
O146 U126 2.455 . S
O146 C143 1.301 . S
O147 U126 2.449 . S
O147 C143 1.282 . S
H148 C121 0.931 . S
H149 C123 0.929 . S
H150 C124 0.930 . S
H151 C125 0.931 . S
H152 C132 0.932 . S
H153 C133 0.930 . S
H154 C134 0.929 1_556 S
H155 C136 0.930 . S
H156 C138 0.932 . S
H157 C139 0.929 . S
H158 C140 0.928 . S
H159 C142 0.932 . S
C160 C161 1.264 . S
C160 C165 1.479 . S
C160 C170 1.465 . S
C161 C160 1.264 . S
C161 C163 1.339 . S
C161 H188 0.931 . S
C162 C163 1.395 . S
C162 C164 1.320 . S
C163 C161 1.339 . S
C163 C162 1.395 . S
C163 H189 0.929 . S
C164 C162 1.320 . S
C164 C165 1.405 . S
C164 H190 0.930 . S
C165 C160 1.479 . S
C165 C164 1.405 . S
C165 H191 0.931 . S
U166 O167 2.454 . S
U166 O168 2.458 . S
U166 C169 2.984 . S
U166 C170 2.847 . S
U166 C183 2.882 . S
U166 O184 2.441 . S
U166 O185 2.420 . S
U166 O186 2.455 . S
U166 O187 2.449 . S
O167 U166 2.454 . S
O167 C169 1.353 . S
O168 U166 2.458 . S
O168 C169 1.286 . S
C169 U166 2.984 . S
C169 O167 1.353 . S
C169 O168 1.286 . S
C169 C171 1.363 . S
C170 C160 1.465 . S
C170 U166 2.847 . S
C170 O184 1.249 . S
C170 O185 1.202 . S
C171 C169 1.363 . S
C171 C173 1.408 . S
C171 C176 1.342 . S
C172 C173 1.310 1_455 S
C172 C175 1.461 . S
C172 H192 0.932 . S
C173 C171 1.408 . S
C173 C172 1.310 1_655 S
C173 H193 0.930 . S
C174 C175 1.474 1_655 S
C174 C176 1.285 . S
C174 H194 0.929 . S
C175 C172 1.461 . S
C175 C174 1.474 1_455 S
C176 C171 1.342 . S
C176 C174 1.285 . S
C176 H195 0.930 . S
C177 C180 1.424 . S
C177 C182 1.245 . S
C177 C183 1.428 . S
C178 C181 1.260 . S
C178 C182 1.477 . S
C178 H196 0.932 . S
C179 C180 1.384 . S
C179 C181 1.479 . S
C179 H197 0.929 . S
C180 C177 1.424 . S
C180 C179 1.384 . S
C180 H198 0.928 . S
C181 C178 1.260 . S
C181 C179 1.479 . S
C182 C177 1.245 . S
C182 C178 1.477 . S
C182 H199 0.932 . S
C183 U166 2.882 . S
C183 C177 1.428 . S
C183 O186 1.301 . S
C183 O187 1.282 . S
O184 U166 2.441 . S
O184 C170 1.249 . S
O185 U166 2.420 . S
O185 C170 1.202 . S
O186 U166 2.455 . S
O186 C183 1.301 . S
O187 U166 2.449 . S
O187 C183 1.282 . S
H188 C161 0.931 . S
H189 C163 0.929 . S
H190 C164 0.930 . S
H191 C165 0.931 . S
H192 C172 0.932 . S
H193 C173 0.930 . S
H194 C174 0.929 . S
H195 C176 0.930 . S
H196 C178 0.932 . S
H197 C179 0.929 . S
H198 C180 0.928 . S
H199 C182 0.932 . S
C200 C201 1.264 . S
C200 C205 1.479 . S
C200 C210 1.465 . S
C201 C200 1.264 . S
C201 C203 1.339 . S
C201 H228 0.931 . S
C202 C203 1.395 . S
C202 C204 1.320 . S
C203 C201 1.339 . S
C203 C202 1.395 . S
C203 H229 0.929 . S
C204 C202 1.320 . S
C204 C205 1.405 . S
C204 H230 0.930 . S
C205 C200 1.479 . S
C205 C204 1.405 . S
C205 H231 0.931 . S
U206 O207 2.454 . S
U206 O208 2.458 . S
U206 C209 2.984 . S
U206 C210 2.847 . S
U206 C223 2.882 . S
U206 O224 2.441 . S
U206 O225 2.420 . S
U206 O226 2.455 . S
U206 O227 2.449 . S
O207 U206 2.454 . S
O207 C209 1.353 . S
O208 U206 2.458 . S
O208 C209 1.286 . S
C209 U206 2.984 . S
C209 O207 1.353 . S
C209 O208 1.286 . S
C209 C211 1.363 . S
C210 C200 1.465 . S
C210 U206 2.847 . S
C210 O224 1.249 . S
C210 O225 1.202 . S
C211 C209 1.363 . S
C211 C213 1.408 . S
C211 C216 1.342 . S
C212 C213 1.310 1_545 S
C212 C215 1.461 . S
C212 H232 0.932 . S
C213 C211 1.408 . S
C213 C212 1.310 1_565 S
C213 H233 0.930 . S
C214 C215 1.474 1_565 S
C214 C216 1.285 . S
C214 H234 0.929 . S
C215 C212 1.461 . S
C215 C214 1.474 1_545 S
C216 C211 1.342 . S
C216 C214 1.285 . S
C216 H235 0.930 . S
C217 C220 1.424 . S
C217 C222 1.245 . S
C217 C223 1.428 . S
C218 C221 1.260 . S
C218 C222 1.477 . S
C218 H236 0.932 . S
C219 C220 1.384 . S
C219 C221 1.479 . S
C219 H237 0.929 . S
C220 C217 1.424 . S
C220 C219 1.384 . S
C220 H238 0.928 . S
C221 C218 1.260 . S
C221 C219 1.479 . S
C222 C217 1.245 . S
C222 C218 1.477 . S
C222 H239 0.932 . S
C223 U206 2.882 . S
C223 C217 1.428 . S
C223 O226 1.301 . S
C223 O227 1.282 . S
O224 U206 2.441 . S
O224 C210 1.249 . S
O225 U206 2.420 . S
O225 C210 1.202 . S
O226 U206 2.455 . S
O226 C223 1.301 . S
O227 U206 2.449 . S
O227 C223 1.282 . S
H228 C201 0.931 . S
H229 C203 0.929 . S
H230 C204 0.930 . S
H231 C205 0.931 . S
H232 C212 0.932 . S
H233 C213 0.930 . S
H234 C214 0.929 . S
H235 C216 0.930 . S
H236 C218 0.932 . S
H237 C219 0.929 . S
H238 C220 0.928 . S
H239 C222 0.932 . S
C240 C241 1.264 . S
C240 C245 1.479 . S
C240 C250 1.465 . S
C241 C240 1.264 . S
C241 C243 1.339 . S
C241 H268 0.931 . S
C242 C243 1.395 . S
C242 C244 1.320 . S
C243 C241 1.339 . S
C243 C242 1.395 . S
C243 H269 0.929 . S
C244 C242 1.320 . S
C244 C245 1.405 . S
C244 H270 0.930 . S
C245 C240 1.479 . S
C245 C244 1.405 . S
C245 H271 0.931 . S
U246 O247 2.454 . S
U246 O248 2.458 . S
U246 C249 2.984 . S
U246 C250 2.847 . S
U246 C263 2.882 . S
U246 O264 2.441 . S
U246 O265 2.420 . S
U246 O266 2.455 . S
U246 O267 2.449 . S
O247 U246 2.454 . S
O247 C249 1.353 . S
O248 U246 2.458 . S
O248 C249 1.286 . S
C249 U246 2.984 . S
C249 O247 1.353 . S
C249 O248 1.286 . S
C249 C251 1.363 . S
C250 C240 1.465 . S
C250 U246 2.847 . S
C250 O264 1.249 . S
C250 O265 1.202 . S
C251 C249 1.363 . S
C251 C253 1.408 . S
C251 C256 1.342 . S
C252 C253 1.310 . S
C252 C255 1.461 . S
C252 H272 0.932 . S
C253 C251 1.408 . S
C253 C252 1.310 . S
C253 H273 0.930 . S
C254 C255 1.474 . S
C254 C256 1.285 . S
C254 H274 0.929 . S
C255 C252 1.461 . S
C255 C254 1.474 . S
C256 C251 1.342 . S
C256 C254 1.285 . S
C256 H275 0.930 . S
C257 C260 1.424 . S
C257 C262 1.245 . S
C257 C263 1.428 . S
C258 C261 1.260 . S
C258 C262 1.477 . S
C258 H276 0.932 . S
C259 C260 1.384 . S
C259 C261 1.479 . S
C259 H277 0.929 . S
C260 C257 1.424 . S
C260 C259 1.384 . S
C260 H278 0.928 . S
C261 C258 1.260 . S
C261 C259 1.479 . S
C262 C257 1.245 . S
C262 C258 1.477 . S
C262 H279 0.932 . S
C263 U246 2.882 . S
C263 C257 1.428 . S
C263 O266 1.301 . S
C263 O267 1.282 . S
O264 U246 2.441 . S
O264 C250 1.249 . S
O265 U246 2.420 . S
O265 C250 1.202 . S
O266 U246 2.455 . S
O266 C263 1.301 . S
O267 U246 2.449 . S
O267 C263 1.282 . S
H268 C241 0.931 . S
H269 C243 0.929 . S
H270 C244 0.930 . S
H271 C245 0.931 . S
H272 C252 0.932 . S
H273 C253 0.930 . S
H274 C254 0.929 . S
H275 C256 0.930 . S
H276 C258 0.932 . S
H277 C259 0.929 . S
H278 C260 0.928 . S
H279 C262 0.932 . S
C280 C281 1.264 . S
C280 C285 1.479 . S
C280 C290 1.465 . S
C281 C280 1.264 . S
C281 C283 1.339 . S
C281 H308 0.931 . S
C282 C283 1.395 . S
C282 C284 1.320 . S
C283 C281 1.339 . S
C283 C282 1.395 . S
C283 H309 0.929 . S
C284 C282 1.320 . S
C284 C285 1.405 . S
C284 H310 0.930 . S
C285 C280 1.479 . S
C285 C284 1.405 . S
C285 H311 0.931 . S
U286 O287 2.454 . S
U286 O288 2.458 . S
U286 C289 2.984 . S
U286 C290 2.847 . S
U286 C303 2.882 . S
U286 O304 2.441 . S
U286 O305 2.420 . S
U286 O306 2.455 . S
U286 O307 2.449 . S
O287 U286 2.454 . S
O287 C289 1.353 . S
O288 U286 2.458 . S
O288 C289 1.286 . S
C289 U286 2.984 . S
C289 O287 1.353 . S
C289 O288 1.286 . S
C289 C291 1.363 . S
C290 C280 1.465 . S
C290 U286 2.847 . S
C290 O304 1.249 . S
C290 O305 1.202 . S
C291 C289 1.363 . S
C291 C293 1.408 . S
C291 C296 1.342 . S
C292 C293 1.310 1_655 S
C292 C295 1.461 . S
C292 H312 0.932 . S
C293 C291 1.408 . S
C293 C292 1.310 1_455 S
C293 H313 0.930 . S
C294 C295 1.474 1_455 S
C294 C296 1.285 . S
C294 H314 0.929 1_556 S
C295 C292 1.461 . S
C295 C294 1.474 1_655 S
C296 C291 1.342 . S
C296 C294 1.285 . S
C296 H315 0.930 . S
C297 C300 1.424 . S
C297 C302 1.245 . S
C297 C303 1.428 . S
C298 C301 1.260 . S
C298 C302 1.477 . S
C298 H316 0.932 . S
C299 C300 1.384 . S
C299 C301 1.479 . S
C299 H317 0.929 . S
C300 C297 1.424 . S
C300 C299 1.384 . S
C300 H318 0.928 . S
C301 C298 1.260 . S
C301 C299 1.479 . S
C302 C297 1.245 . S
C302 C298 1.477 . S
C302 H319 0.932 . S
C303 U286 2.882 . S
C303 C297 1.428 . S
C303 O306 1.301 . S
C303 O307 1.282 . S
O304 U286 2.441 . S
O304 C290 1.249 . S
O305 U286 2.420 . S
O305 C290 1.202 . S
O306 U286 2.455 . S
O306 C303 1.301 . S
O307 U286 2.449 . S
O307 C303 1.282 . S
H308 C281 0.931 . S
H309 C283 0.929 . S
H310 C284 0.930 . S
H311 C285 0.931 . S
H312 C292 0.932 . S
H313 C293 0.930 . S
H314 C294 0.929 1_554 S
H315 C296 0.930 . S
H316 C298 0.932 . S
H317 C299 0.929 . S
H318 C300 0.928 . S
H319 C302 0.932 . S
C320 C321 1.264 . S
C320 C325 1.479 . S
C320 C330 1.465 . S
C321 C320 1.264 . S
C321 C323 1.339 . S
C321 H348 0.931 . S
C322 C323 1.395 . S
C322 C324 1.320 . S
C323 C321 1.339 . S
C323 C322 1.395 . S
C323 H349 0.929 . S
C324 C322 1.320 . S
C324 C325 1.405 . S
C324 H350 0.930 . S
C325 C320 1.479 . S
C325 C324 1.405 . S
C325 H351 0.931 . S
U326 O327 2.454 . S
U326 O328 2.458 . S
U326 C329 2.984 . S
U326 C330 2.847 . S
U326 C343 2.882 . S
U326 O344 2.441 . S
U326 O345 2.420 . S
U326 O346 2.455 . S
U326 O347 2.449 . S
O327 U326 2.454 . S
O327 C329 1.353 . S
O328 U326 2.458 . S
O328 C329 1.286 . S
C329 U326 2.984 . S
C329 O327 1.353 . S
C329 O328 1.286 . S
C329 C331 1.363 . S
C330 C320 1.465 . S
C330 U326 2.847 . S
C330 O344 1.249 . S
C330 O345 1.202 . S
C331 C329 1.363 . S
C331 C333 1.408 . S
C331 C336 1.342 . S
C332 C333 1.310 1_565 S
C332 C335 1.461 . S
C332 H352 0.932 . S
C333 C331 1.408 . S
C333 C332 1.310 1_545 S
C333 H353 0.930 . S
C334 C335 1.474 1_545 S
C334 C336 1.285 . S
C334 H354 0.929 . S
C335 C332 1.461 . S
C335 C334 1.474 1_565 S
C336 C331 1.342 . S
C336 C334 1.285 . S
C336 H355 0.930 . S
C337 C340 1.424 . S
C337 C342 1.245 . S
C337 C343 1.428 . S
C338 C341 1.260 . S
C338 C342 1.477 . S
C338 H356 0.932 . S
C339 C340 1.384 . S
C339 C341 1.479 . S
C339 H357 0.929 . S
C340 C337 1.424 . S
C340 C339 1.384 . S
C340 H358 0.928 . S
C341 C338 1.260 . S
C341 C339 1.479 . S
C342 C337 1.245 . S
C342 C338 1.477 . S
C342 H359 0.932 . S
C343 U326 2.882 . S
C343 C337 1.428 . S
C343 O346 1.301 . S
C343 O347 1.282 . S
O344 U326 2.441 . S
O344 C330 1.249 . S
O345 U326 2.420 . S
O345 C330 1.202 . S
O346 U326 2.455 . S
O346 C343 1.301 . S
O347 U326 2.449 . S
O347 C343 1.282 . S
H348 C321 0.931 . S
H349 C323 0.929 . S
H350 C324 0.930 . S
H351 C325 0.931 . S
H352 C332 0.932 . S
H353 C333 0.930 . S
H354 C334 0.929 . S
H355 C336 0.930 . S
H356 C338 0.932 . S
H357 C339 0.929 . S
H358 C340 0.928 . S
H359 C342 0.932 . S
C360 C361 1.264 . S
C360 C365 1.479 . S
C360 C370 1.465 . S
C361 C360 1.264 . S
C361 C363 1.339 . S
C361 H388 0.931 . S
C362 C363 1.395 . S
C362 C364 1.320 . S
C363 C361 1.339 . S
C363 C362 1.395 . S
C363 H389 0.929 . S
C364 C362 1.320 . S
C364 C365 1.405 . S
C364 H390 0.930 . S
C365 C360 1.479 . S
C365 C364 1.405 . S
C365 H391 0.931 . S
U366 O367 2.454 . S
U366 O368 2.458 . S
U366 C369 2.984 . S
U366 C370 2.847 . S
U366 C383 2.882 . S
U366 O384 2.441 . S
U366 O385 2.420 . S
U366 O386 2.455 . S
U366 O387 2.449 . S
O367 U366 2.454 . S
O367 C369 1.353 . S
O368 U366 2.458 . S
O368 C369 1.286 . S
C369 U366 2.984 . S
C369 O367 1.353 . S
C369 O368 1.286 . S
C369 C371 1.363 . S
C370 C360 1.465 . S
C370 U366 2.847 . S
C370 O384 1.249 . S
C370 O385 1.202 . S
C371 C369 1.363 . S
C371 C373 1.408 . S
C371 C376 1.342 . S
C372 C373 1.310 . S
C372 C375 1.461 . S
C372 H392 0.932 . S
C373 C371 1.408 . S
C373 C372 1.310 . S
C373 H393 0.930 . S
C374 C375 1.474 . S
C374 C376 1.285 . S
C374 H394 0.929 . S
C375 C372 1.461 . S
C375 C374 1.474 . S
C376 C371 1.342 . S
C376 C374 1.285 . S
C376 H395 0.930 . S
C377 C380 1.424 . S
C377 C382 1.245 . S
C377 C383 1.428 . S
C378 C381 1.260 . S
C378 C382 1.477 . S
C378 H396 0.932 . S
C379 C380 1.384 . S
C379 C381 1.479 . S
C379 H397 0.929 . S
C380 C377 1.424 . S
C380 C379 1.384 . S
C380 H398 0.928 . S
C381 C378 1.260 . S
C381 C379 1.479 . S
C382 C377 1.245 . S
C382 C378 1.477 . S
C382 H399 0.932 . S
C383 U366 2.882 . S
C383 C377 1.428 . S
C383 O386 1.301 . S
C383 O387 1.282 . S
O384 U366 2.441 . S
O384 C370 1.249 . S
O385 U366 2.420 . S
O385 C370 1.202 . S
O386 U366 2.455 . S
O386 C383 1.301 . S
O387 U366 2.449 . S
O387 C383 1.282 . S
H388 C361 0.931 . S
H389 C363 0.929 . S
H390 C364 0.930 . S
H391 C365 0.931 . S
H392 C372 0.932 . S
H393 C373 0.930 . S
H394 C374 0.929 . S
H395 C376 0.930 . S
H396 C378 0.932 . S
H397 C379 0.929 . S
H398 C380 0.928 . S
H399 C382 0.932 . S
C400 C401 1.264 . S
C400 C405 1.479 . S
C400 C410 1.465 . S
C401 C400 1.264 . S
C401 C403 1.339 . S
C401 H428 0.931 . S
C402 C403 1.395 . S
C402 C404 1.320 . S
C403 C401 1.339 . S
C403 C402 1.395 . S
C403 H429 0.929 . S
C404 C402 1.320 . S
C404 C405 1.405 . S
C404 H430 0.930 . S
C405 C400 1.479 . S
C405 C404 1.405 . S
C405 H431 0.931 . S
U406 O407 2.454 . S
U406 O408 2.458 . S
U406 C409 2.984 . S
U406 C410 2.847 . S
U406 C423 2.882 . S
U406 O424 2.441 . S
U406 O425 2.420 . S
U406 O426 2.455 . S
U406 O427 2.449 . S
O407 U406 2.454 . S
O407 C409 1.353 . S
O408 U406 2.458 . S
O408 C409 1.286 . S
C409 U406 2.984 . S
C409 O407 1.353 . S
C409 O408 1.286 . S
C409 C411 1.363 . S
C410 C400 1.465 . S
C410 U406 2.847 . S
C410 O424 1.249 . S
C410 O425 1.202 . S
C411 C409 1.363 . S
C411 C413 1.408 . S
C411 C416 1.342 . S
C412 C413 1.310 1_455 S
C412 C415 1.461 . S
C412 H432 0.932 . S
C413 C411 1.408 . S
C413 C412 1.310 1_655 S
C413 H433 0.930 . S
C414 C415 1.474 1_655 S
C414 C416 1.285 . S
C414 H434 0.929 1_556 S
C415 C412 1.461 . S
C415 C414 1.474 1_455 S
C416 C411 1.342 . S
C416 C414 1.285 . S
C416 H435 0.930 . S
C417 C420 1.424 . S
C417 C422 1.245 . S
C417 C423 1.428 . S
C418 C421 1.260 . S
C418 C422 1.477 . S
C418 H436 0.932 . S
C419 C420 1.384 . S
C419 C421 1.479 . S
C419 H437 0.929 . S
C420 C417 1.424 . S
C420 C419 1.384 . S
C420 H438 0.928 . S
C421 C418 1.260 . S
C421 C419 1.479 . S
C422 C417 1.245 . S
C422 C418 1.477 . S
C422 H439 0.932 . S
C423 U406 2.882 . S
C423 C417 1.428 . S
C423 O426 1.301 . S
C423 O427 1.282 . S
O424 U406 2.441 . S
O424 C410 1.249 . S
O425 U406 2.420 . S
O425 C410 1.202 . S
O426 U406 2.455 . S
O426 C423 1.301 . S
O427 U406 2.449 . S
O427 C423 1.282 . S
H428 C401 0.931 . S
H429 C403 0.929 . S
H430 C404 0.930 . S
H431 C405 0.931 . S
H432 C412 0.932 . S
H433 C413 0.930 . S
H434 C414 0.929 1_554 S
H435 C416 0.930 . S
H436 C418 0.932 . S
H437 C419 0.929 . S
H438 C420 0.928 . S
H439 C422 0.932 . S
C440 C441 1.264 . S
C440 C445 1.479 . S
C440 C450 1.465 . S
C441 C440 1.264 . S
C441 C443 1.339 . S
C441 H468 0.931 . S
C442 C443 1.395 . S
C442 C444 1.320 . S
C443 C441 1.339 . S
C443 C442 1.395 . S
C443 H469 0.929 . S
C444 C442 1.320 . S
C444 C445 1.405 . S
C444 H470 0.930 . S
C445 C440 1.479 . S
C445 C444 1.405 . S
C445 H471 0.931 . S
U446 O447 2.454 . S
U446 O448 2.458 . S
U446 C449 2.984 . S
U446 C450 2.847 . S
U446 C463 2.882 . S
U446 O464 2.441 . S
U446 O465 2.420 . S
U446 O466 2.455 . S
U446 O467 2.449 . S
O447 U446 2.454 . S
O447 C449 1.353 . S
O448 U446 2.458 . S
O448 C449 1.286 . S
C449 U446 2.984 . S
C449 O447 1.353 . S
C449 O448 1.286 . S
C449 C451 1.363 . S
C450 C440 1.465 . S
C450 U446 2.847 . S
C450 O464 1.249 . S
C450 O465 1.202 . S
C451 C449 1.363 . S
C451 C453 1.408 . S
C451 C456 1.342 . S
C452 C453 1.310 1_545 S
C452 C455 1.461 . S
C452 H472 0.932 . S
C453 C451 1.408 . S
C453 C452 1.310 1_565 S
C453 H473 0.930 . S
C454 C455 1.474 1_565 S
C454 C456 1.285 . S
C454 H474 0.929 . S
C455 C452 1.461 . S
C455 C454 1.474 1_545 S
C456 C451 1.342 . S
C456 C454 1.285 . S
C456 H475 0.930 . S
C457 C460 1.424 . S
C457 C462 1.245 . S
C457 C463 1.428 . S
C458 C461 1.260 . S
C458 C462 1.477 . S
C458 H476 0.932 . S
C459 C460 1.384 . S
C459 C461 1.479 . S
C459 H477 0.929 . S
C460 C457 1.424 . S
C460 C459 1.384 . S
C460 H478 0.928 . S
C461 C458 1.260 . S
C461 C459 1.479 . S
C462 C457 1.245 . S
C462 C458 1.477 . S
C462 H479 0.932 . S
C463 U446 2.882 . S
C463 C457 1.428 . S
C463 O466 1.301 . S
C463 O467 1.282 . S
O464 U446 2.441 . S
O464 C450 1.249 . S
O465 U446 2.420 . S
O465 C450 1.202 . S
O466 U446 2.455 . S
O466 C463 1.301 . S
O467 U446 2.449 . S
O467 C463 1.282 . S
H468 C441 0.931 . S
H469 C443 0.929 . S
H470 C444 0.930 . S
H471 C445 0.931 . S
H472 C452 0.932 . S
H473 C453 0.930 . S
H474 C454 0.929 . S
H475 C456 0.930 . S
H476 C458 0.932 . S
H477 C459 0.929 . S
H478 C460 0.928 . S
H479 C462 0.932 . S
H480 C492 0.930 . S
H481 C494 0.930 . S
H482 C495 0.930 . S
H483 C499 0.959 . S
H484 C499 0.959 . S
H485 C499 0.961 . S
H486 C500 0.960 . S
H487 C500 0.961 . S
H488 C500 0.959 . S
H489 C503 0.929 . S
H490 C504 0.931 . S
H491 C506 0.930 . S
C492 H480 0.930 . S
C492 C493 1.399 . S
C492 C497 1.399 . S
C493 C492 1.399 . S
C493 C494 1.376 . S
C494 H481 0.930 . S
C494 C493 1.376 . S
C494 C495 1.388 . S
C495 H482 0.930 . S
C495 C494 1.388 . S
C495 C496 1.390 . S
C496 C495 1.390 . S
C496 C497 1.394 . S
C496 C502 1.465 . S
C497 C492 1.399 . S
C497 C496 1.394 . S
C497 C498 1.516 . S
C498 C497 1.516 . S
C498 C499 1.502 . S
C498 C500 1.561 . S
C498 C501 1.526 . S
C499 H483 0.959 . S
C499 H484 0.959 . S
C499 H485 0.961 . S
C499 C498 1.502 . S
C500 H486 0.960 . S
C500 H487 0.961 . S
C500 H488 0.959 . S
C500 C498 1.561 . S
C501 C498 1.526 . S
C501 C502 1.396 . S
C501 C506 1.390 . S
C502 C496 1.465 . S
C502 C501 1.396 . S
C502 C503 1.399 . S
C503 H489 0.929 . S
C503 C502 1.399 . S
C503 C504 1.385 . S
C504 H490 0.931 . S
C504 C503 1.385 . S
C504 C505 1.389 . S
C505 C504 1.389 . S
C505 C506 1.387 . S
C506 H491 0.930 . S
C506 C501 1.390 . S
C506 C505 1.387 . S
H507 C519 0.930 . S
H508 C521 0.930 . S
H509 C522 0.930 . S
H510 C526 0.959 . S
H511 C526 0.959 . S
H512 C526 0.961 . S
H513 C527 0.960 . S
H514 C527 0.961 . S
H515 C527 0.959 . S
H516 C530 0.929 . S
H517 C531 0.931 . S
H518 C533 0.930 . S
C519 H507 0.930 . S
C519 C520 1.399 . S
C519 C524 1.399 . S
C520 C519 1.399 . S
C520 C521 1.376 . S
C521 H508 0.930 . S
C521 C520 1.376 . S
C521 C522 1.388 . S
C522 H509 0.930 . S
C522 C521 1.388 . S
C522 C523 1.390 . S
C523 C522 1.390 . S
C523 C524 1.394 . S
C523 C529 1.465 . S
C524 C519 1.399 . S
C524 C523 1.394 . S
C524 C525 1.516 . S
C525 C524 1.516 . S
C525 C526 1.502 . S
C525 C527 1.561 . S
C525 C528 1.526 . S
C526 H510 0.959 . S
C526 H511 0.959 . S
C526 H512 0.961 . S
C526 C525 1.502 . S
C527 H513 0.960 . S
C527 H514 0.961 . S
C527 H515 0.959 . S
C527 C525 1.561 . S
C528 C525 1.526 . S
C528 C529 1.396 . S
C528 C533 1.390 . S
C529 C523 1.465 . S
C529 C528 1.396 . S
C529 C530 1.399 . S
C530 H516 0.929 . S
C530 C529 1.399 . S
C530 C531 1.385 . S
C531 H517 0.931 . S
C531 C530 1.385 . S
C531 C532 1.389 . S
C532 C531 1.389 . S
C532 C533 1.387 . S
C533 H518 0.930 . S
C533 C528 1.390 . S
C533 C532 1.387 . S
H534 C546 0.930 . S
H535 C548 0.930 . S
H536 C549 0.930 . S
H537 C553 0.959 . S
H538 C553 0.959 . S
H539 C553 0.961 . S
H540 C554 0.960 . S
H541 C554 0.961 . S
H542 C554 0.959 . S
H543 C557 0.929 . S
H544 C558 0.931 . S
H545 C560 0.930 . S
C546 H534 0.930 . S
C546 C547 1.399 . S
C546 C551 1.399 . S
C547 C546 1.399 . S
C547 C548 1.376 . S
C548 H535 0.930 . S
C548 C547 1.376 . S
C548 C549 1.388 . S
C549 H536 0.930 . S
C549 C548 1.388 . S
C549 C550 1.390 . S
C550 C549 1.390 . S
C550 C551 1.394 . S
C550 C556 1.465 . S
C551 C546 1.399 . S
C551 C550 1.394 . S
C551 C552 1.516 . S
C552 C551 1.516 . S
C552 C553 1.502 . S
C552 C554 1.561 . S
C552 C555 1.526 . S
C553 H537 0.959 . S
C553 H538 0.959 . S
C553 H539 0.961 . S
C553 C552 1.502 . S
C554 H540 0.960 . S
C554 H541 0.961 . S
C554 H542 0.959 . S
C554 C552 1.561 . S
C555 C552 1.526 . S
C555 C556 1.396 . S
C555 C560 1.390 . S
C556 C550 1.465 . S
C556 C555 1.396 . S
C556 C557 1.399 . S
C557 H543 0.929 . S
C557 C556 1.399 . S
C557 C558 1.385 . S
C558 H544 0.931 . S
C558 C557 1.385 . S
C558 C559 1.389 . S
C559 C558 1.389 . S
C559 C560 1.387 . S
C560 H545 0.930 . S
C560 C555 1.390 . S
C560 C559 1.387 . S
H561 C573 0.930 . S
H562 C575 0.930 . S
H563 C576 0.930 . S
H564 C580 0.959 . S
H565 C580 0.959 . S
H566 C580 0.961 . S
H567 C581 0.960 . S
H568 C581 0.961 . S
H569 C581 0.959 . S
H570 C584 0.929 . S
H571 C585 0.931 . S
H572 C587 0.930 . S
C573 H561 0.930 . S
C573 C574 1.399 . S
C573 C578 1.399 . S
C574 C573 1.399 . S
C574 C575 1.376 . S
C575 H562 0.930 . S
C575 C574 1.376 . S
C575 C576 1.388 . S
C576 H563 0.930 . S
C576 C575 1.388 . S
C576 C577 1.390 . S
C577 C576 1.390 . S
C577 C578 1.394 . S
C577 C583 1.465 . S
C578 C573 1.399 . S
C578 C577 1.394 . S
C578 C579 1.516 . S
C579 C578 1.516 . S
C579 C580 1.502 . S
C579 C581 1.561 . S
C579 C582 1.526 . S
C580 H564 0.959 . S
C580 H565 0.959 . S
C580 H566 0.961 . S
C580 C579 1.502 . S
C581 H567 0.960 . S
C581 H568 0.961 . S
C581 H569 0.959 . S
C581 C579 1.561 . S
C582 C579 1.526 . S
C582 C583 1.396 . S
C582 C587 1.390 . S
C583 C577 1.465 . S
C583 C582 1.396 . S
C583 C584 1.399 . S
C584 H570 0.929 . S
C584 C583 1.399 . S
C584 C585 1.385 . S
C585 H571 0.931 . S
C585 C584 1.385 . S
C585 C586 1.389 . S
C586 C585 1.389 . S
C586 C587 1.387 . S
C587 H572 0.930 . S
C587 C582 1.390 . S
C587 C586 1.387 . S
H588 C600 0.930 . S
H589 C602 0.930 . S
H590 C603 0.930 . S
H591 C607 0.959 . S
H592 C607 0.959 . S
H593 C607 0.961 . S
H594 C608 0.960 . S
H595 C608 0.961 . S
H596 C608 0.959 . S
H597 C611 0.929 . S
H598 C612 0.931 . S
H599 C614 0.930 . S
C600 H588 0.930 . S
C600 C601 1.399 . S
C600 C605 1.399 . S
C601 C600 1.399 . S
C601 C602 1.376 . S
C602 H589 0.930 . S
C602 C601 1.376 . S
C602 C603 1.388 . S
C603 H590 0.930 . S
C603 C602 1.388 . S
C603 C604 1.390 . S
C604 C603 1.390 . S
C604 C605 1.394 . S
C604 C610 1.465 . S
C605 C600 1.399 . S
C605 C604 1.394 . S
C605 C606 1.516 . S
C606 C605 1.516 . S
C606 C607 1.502 . S
C606 C608 1.561 . S
C606 C609 1.526 . S
C607 H591 0.959 . S
C607 H592 0.959 . S
C607 H593 0.961 . S
C607 C606 1.502 . S
C608 H594 0.960 . S
C608 H595 0.961 . S
C608 H596 0.959 . S
C608 C606 1.561 . S
C609 C606 1.526 . S
C609 C610 1.396 . S
C609 C614 1.390 . S
C610 C604 1.465 . S
C610 C609 1.396 . S
C610 C611 1.399 . S
C611 H597 0.929 . S
C611 C610 1.399 . S
C611 C612 1.385 . S
C612 H598 0.931 . S
C612 C611 1.385 . S
C612 C613 1.389 . S
C613 C612 1.389 . S
C613 C614 1.387 . S
C614 H599 0.930 . S
C614 C609 1.390 . S
C614 C613 1.387 . S
H615 C627 0.930 . S
H616 C629 0.930 . S
H617 C630 0.930 . S
H618 C634 0.959 . S
H619 C634 0.959 . S
H620 C634 0.961 . S
H621 C635 0.960 . S
H622 C635 0.961 . S
H623 C635 0.959 . S
H624 C638 0.929 . S
H625 C639 0.931 . S
H626 C641 0.930 . S
C627 H615 0.930 . S
C627 C628 1.399 . S
C627 C632 1.399 . S
C628 C627 1.399 . S
C628 C629 1.376 . S
C629 H616 0.930 . S
C629 C628 1.376 . S
C629 C630 1.388 . S
C630 H617 0.930 . S
C630 C629 1.388 . S
C630 C631 1.390 . S
C631 C630 1.390 . S
C631 C632 1.394 . S
C631 C637 1.465 . S
C632 C627 1.399 . S
C632 C631 1.394 . S
C632 C633 1.516 . S
C633 C632 1.516 . S
C633 C634 1.502 . S
C633 C635 1.561 . S
C633 C636 1.526 . S
C634 H618 0.959 . S
C634 H619 0.959 . S
C634 H620 0.961 . S
C634 C633 1.502 . S
C635 H621 0.960 . S
C635 H622 0.961 . S
C635 H623 0.959 . S
C635 C633 1.561 . S
C636 C633 1.526 . S
C636 C637 1.396 . S
C636 C641 1.390 . S
C637 C631 1.465 . S
C637 C636 1.396 . S
C637 C638 1.399 . S
C638 H624 0.929 . S
C638 C637 1.399 . S
C638 C639 1.385 . S
C639 H625 0.931 . S
C639 C638 1.385 . S
C639 C640 1.389 . S
C640 C639 1.389 . S
C640 C641 1.387 . S
C641 H626 0.930 . S
C641 C636 1.390 . S
C641 C640 1.387 . S
H642 C654 0.930 . S
H643 C656 0.930 . S
H644 C657 0.930 . S
H645 C661 0.959 . S
H646 C661 0.959 . S
H647 C661 0.961 . S
H648 C662 0.960 1_545 S
H649 C662 0.961 . S
H650 C662 0.959 . S
H651 C665 1.000 . S
H652 C666 0.931 . S
H653 C668 0.930 . S
C654 H642 0.930 . S
C654 C655 1.399 . S
C654 C659 1.399 . S
C655 C654 1.399 . S
C655 C656 1.376 . S
C656 H643 0.930 . S
C656 C655 1.376 . S
C656 C657 1.388 . S
C657 H644 0.930 . S
C657 C656 1.388 . S
C657 C658 1.390 . S
C658 C657 1.390 . S
C658 C659 1.394 . S
C658 C664 1.465 1_545 S
C659 C654 1.399 . S
C659 C658 1.394 . S
C659 C660 1.516 . S
C660 C659 1.516 . S
C660 C661 1.502 . S
C660 C662 1.561 1_545 S
C660 C663 1.526 1_545 S
C661 H645 0.959 . S
C661 H646 0.959 . S
C661 H647 0.961 . S
C661 C660 1.502 . S
C662 H648 0.960 1_565 S
C662 H649 0.961 . S
C662 H650 0.959 . S
C662 C660 1.561 1_565 S
C663 C660 1.526 1_565 S
C663 C664 1.396 . S
C663 C668 1.390 . S
C664 C658 1.465 1_565 S
C664 C663 1.396 . S
C664 C665 1.399 . S
C665 H651 1.000 . S
C665 C664 1.399 . S
C665 C666 1.385 . S
C666 H652 0.931 . S
C666 C665 1.385 . S
C666 C667 1.389 . S
C667 C666 1.389 . S
C667 C668 1.387 . S
C668 H653 0.930 . S
C668 C663 1.390 . S
C668 C667 1.387 . S
H669 C681 0.930 . S
H670 C683 0.930 . S
H671 C684 0.930 . S
H672 C688 0.959 . S
H673 C688 0.959 . S
H674 C688 0.961 . S
H675 C689 0.960 . S
H676 C689 0.961 . S
H677 C689 0.959 . S
H678 C692 0.929 . S
H679 C693 0.931 . S
H680 C695 0.930 . S
C681 H669 0.930 . S
C681 C682 1.399 . S
C681 C686 1.399 . S
C682 C681 1.399 . S
C682 C683 1.376 . S
C683 H670 0.930 . S
C683 C682 1.376 . S
C683 C684 1.388 . S
C684 H671 0.930 . S
C684 C683 1.388 . S
C684 C685 1.390 . S
C685 C684 1.390 . S
C685 C686 1.394 . S
C685 C691 1.465 . S
C686 C681 1.399 . S
C686 C685 1.394 . S
C686 C687 1.516 . S
C687 C686 1.516 . S
C687 C688 1.502 . S
C687 C689 1.561 . S
C687 C690 1.526 . S
C688 H672 0.959 . S
C688 H673 0.959 . S
C688 H674 0.961 . S
C688 C687 1.502 . S
C689 H675 0.960 . S
C689 H676 0.961 . S
C689 H677 0.959 . S
C689 C687 1.561 . S
C690 C687 1.526 . S
C690 C691 1.396 . S
C690 C695 1.390 . S
C691 C685 1.465 . S
C691 C690 1.396 . S
C691 C692 1.399 . S
C692 H678 0.929 . S
C692 C691 1.399 . S
C692 C693 1.385 . S
C693 H679 0.931 . S
C693 C692 1.385 . S
C693 C694 1.389 . S
C694 C693 1.389 . S
C694 C695 1.387 . S
C695 H680 0.930 . S
C695 C690 1.390 . S
C695 C694 1.387 . S
H696 C708 0.930 . S
H697 C710 0.930 . S
H698 C711 0.930 . S
H699 C715 0.959 . S
H700 C715 0.959 . S
H701 C715 0.961 . S
H702 C716 0.960 1_455 S
H703 C716 0.961 . S
H704 C716 0.959 . S
H705 C719 0.929 . S
H706 C720 0.931 . S
H707 C722 0.930 . S
C708 H696 0.930 . S
C708 C709 1.399 . S
C708 C713 1.399 . S
C709 C708 1.399 . S
C709 C710 1.376 . S
C710 H697 0.930 . S
C710 C709 1.376 . S
C710 C711 1.388 . S
C711 H698 0.930 . S
C711 C710 1.388 . S
C711 C712 1.390 . S
C712 C711 1.390 . S
C712 C713 1.394 . S
C712 C718 1.465 1_455 S
C713 C708 1.399 . S
C713 C712 1.394 . S
C713 C714 1.516 . S
C714 C713 1.516 . S
C714 C715 1.502 . S
C714 C716 1.561 1_455 S
C714 C717 1.526 1_455 S
C715 H699 0.959 . S
C715 H700 0.959 . S
C715 H701 0.961 . S
C715 C714 1.502 . S
C716 H702 0.960 1_655 S
C716 H703 0.961 . S
C716 H704 0.959 . S
C716 C714 1.561 1_655 S
C717 C714 1.526 1_655 S
C717 C718 1.396 . S
C717 C722 1.390 . S
C718 C712 1.465 1_655 S
C718 C717 1.396 . S
C718 C719 1.399 . S
C719 H705 0.929 . S
C719 C718 1.399 . S
C719 C720 1.385 . S
C720 H706 0.931 . S
C720 C719 1.385 . S
C720 C721 1.389 . S
C721 C720 1.389 . S
C721 C722 1.387 . S
C722 H707 0.930 . S
C722 C717 1.390 . S
C722 C721 1.387 . S
H723 C735 0.930 . S
H724 C737 0.930 . S
H725 C738 0.930 . S
H726 C742 0.959 . S
H727 C742 0.959 . S
H728 C742 0.961 . S
H729 C743 0.958 . S
H730 C743 0.963 1_455 S
H731 C743 0.959 1_455 S
H732 C746 0.929 . S
H733 C747 0.931 . S
H734 C749 0.930 . S
C735 H723 0.930 . S
C735 C736 1.399 . S
C735 C740 1.399 . S
C736 C735 1.399 . S
C736 C737 1.376 . S
C737 H724 0.930 . S
C737 C736 1.376 . S
C737 C738 1.388 . S
C738 H725 0.930 . S
C738 C737 1.388 . S
C738 C739 1.390 . S
C739 C738 1.390 . S
C739 C740 1.394 . S
C739 C745 1.465 1_655 S
C740 C735 1.399 . S
C740 C739 1.394 . S
C740 C741 1.516 . S
C741 C740 1.516 . S
C741 C742 1.502 . S
C741 C743 1.561 . S
C741 C744 1.526 1_655 S
C742 H726 0.959 . S
C742 H727 0.959 . S
C742 H728 0.961 . S
C742 C741 1.502 . S
C743 H729 0.958 . S
C743 H730 0.963 1_655 S
C743 H731 0.959 1_655 S
C743 C741 1.561 . S
C744 C741 1.526 1_455 S
C744 C745 1.396 . S
C744 C749 1.390 . S
C745 C739 1.465 1_455 S
C745 C744 1.396 . S
C745 C746 1.399 . S
C746 H732 0.929 . S
C746 C745 1.399 . S
C746 C747 1.385 . S
C747 H733 0.931 . S
C747 C746 1.385 . S
C747 C748 1.389 . S
C748 C747 1.389 . S
C748 C749 1.387 . S
C749 H734 0.930 . S
C749 C744 1.390 . S
C749 C748 1.387 . S
H750 C762 0.930 . S
H751 C764 0.930 . S
H752 C765 0.930 1_554 S
H753 C769 0.959 . S
H754 C769 0.955 1_565 S
H755 C769 0.961 . S
H756 C770 0.960 1_545 S
H757 C770 0.961 . S
H758 C770 0.959 . S
H759 C773 0.929 1_554 S
H760 C774 0.931 . S
H761 C776 0.930 . S
C762 H750 0.930 . S
C762 C763 1.399 . S
C762 C767 1.399 . S
C763 C762 1.399 . S
C763 C764 1.376 . S
C764 H751 0.930 . S
C764 C763 1.376 . S
C764 C765 1.388 . S
C765 H752 0.930 1_556 S
C765 C764 1.388 . S
C765 C766 1.390 . S
C766 C765 1.390 . S
C766 C767 1.394 . S
C766 C772 1.465 1_545 S
C767 C762 1.399 . S
C767 C766 1.394 . S
C767 C768 1.516 . S
C768 C767 1.516 . S
C768 C769 1.502 . S
C768 C770 1.561 1_545 S
C768 C771 1.526 1_545 S
C769 H753 0.959 . S
C769 H754 0.955 1_545 S
C769 H755 0.961 . S
C769 C768 1.502 . S
C770 H756 0.960 1_565 S
C770 H757 0.961 . S
C770 H758 0.959 . S
C770 C768 1.561 1_565 S
C771 C768 1.526 1_565 S
C771 C772 1.396 . S
C771 C776 1.390 . S
C772 C766 1.465 1_565 S
C772 C771 1.396 . S
C772 C773 1.399 . S
C773 H759 0.929 1_556 S
C773 C772 1.399 . S
C773 C774 1.385 . S
C774 H760 0.931 . S
C774 C773 1.385 . S
C774 C775 1.389 . S
C775 C774 1.389 . S
C775 C776 1.387 . S
C776 H761 0.930 . S
C776 C771 1.390 . S
C776 C775 1.387 . S
H777 C789 0.930 . S
H778 C791 0.930 . S
H779 C792 0.930 . S
H780 C796 0.959 . S
H781 C796 0.959 . S
H782 C796 0.961 . S
H783 C797 0.960 . S
H784 C797 0.961 . S
H785 C797 0.959 . S
H786 C800 0.929 . S
H787 C801 0.931 . S
H788 C803 0.930 . S
C789 H777 0.930 . S
C789 C790 1.399 . S
C789 C794 1.399 . S
C790 C789 1.399 . S
C790 C791 1.376 . S
C791 H778 0.930 . S
C791 C790 1.376 . S
C791 C792 1.388 . S
C792 H779 0.930 . S
C792 C791 1.388 . S
C792 C793 1.390 . S
C793 C792 1.390 . S
C793 C794 1.394 . S
C793 C799 1.465 . S
C794 C789 1.399 . S
C794 C793 1.394 . S
C794 C795 1.516 . S
C795 C794 1.516 . S
C795 C796 1.502 . S
C795 C797 1.561 . S
C795 C798 1.526 . S
C796 H780 0.959 . S
C796 H781 0.959 . S
C796 H782 0.961 . S
C796 C795 1.502 . S
C797 H783 0.960 . S
C797 H784 0.961 . S
C797 H785 0.959 . S
C797 C795 1.561 . S
C798 C795 1.526 . S
C798 C799 1.396 . S
C798 C803 1.390 . S
C799 C793 1.465 . S
C799 C798 1.396 . S
C799 C800 1.399 . S
C800 H786 0.929 . S
C800 C799 1.399 . S
C800 C801 1.385 . S
C801 H787 0.931 . S
C801 C800 1.385 . S
C801 C802 1.389 . S
C802 C801 1.389 . S
C802 C803 1.387 . S
C803 H788 0.930 . S
C803 C798 1.390 . S
C803 C802 1.387 . S
H804 C816 0.930 . S
H805 C818 0.930 . S
H806 C819 0.930 . S
H807 C823 0.959 . S
H808 C823 0.959 . S
H809 C823 0.961 . S
H810 C824 0.960 . S
H811 C824 0.961 . S
H812 C824 0.959 . S
H813 C827 0.929 . S
H814 C828 0.931 . S
H815 C830 0.930 . S
C816 H804 0.930 . S
C816 C817 1.399 1_554 S
C816 C821 1.400 . S
C817 C816 1.399 1_556 S
C817 C818 1.376 . S
C818 H805 0.930 . S
C818 C817 1.376 . S
C818 C819 1.388 . S
C819 H806 0.930 . S
C819 C818 1.388 . S
C819 C820 1.390 . S
C820 C819 1.390 . S
C820 C821 1.391 1_556 S
C820 C826 1.465 . S
C821 C816 1.400 . S
C821 C820 1.391 1_554 S
C821 C822 1.518 . S
C822 C821 1.518 . S
C822 C823 1.502 . S
C822 C824 1.561 1_554 S
C822 C825 1.526 . S
C823 H807 0.959 . S
C823 H808 0.959 . S
C823 H809 0.961 . S
C823 C822 1.502 . S
C824 H810 0.960 . S
C824 H811 0.961 . S
C824 H812 0.959 . S
C824 C822 1.561 1_556 S
C825 C822 1.526 . S
C825 C826 1.396 1_554 S
C825 C830 1.390 . S
C826 C820 1.465 . S
C826 C825 1.396 1_556 S
C826 C827 1.399 . S
C827 H813 0.929 . S
C827 C826 1.399 . S
C827 C828 1.385 . S
C828 H814 0.931 . S
C828 C827 1.385 . S
C828 C829 1.389 1_556 S
C829 C828 1.389 1_554 S
C829 C830 1.387 . S
C830 H815 0.930 . S
C830 C825 1.390 . S
C830 C829 1.387 . S
H831 C843 0.930 . S
H832 C845 0.930 . S
H833 C846 0.930 . S
H834 C850 0.959 . S
H835 C850 0.959 . S
H836 C850 0.961 . S
H837 C851 0.960 . S
H838 C851 0.961 . S
H839 C851 0.959 . S
H840 C854 0.929 . S
H841 C855 0.931 . S
H842 C857 0.930 . S
C843 H831 0.930 . S
C843 C844 1.399 . S
C843 C848 1.399 . S
C844 C843 1.399 . S
C844 C845 1.376 . S
C845 H832 0.930 . S
C845 C844 1.376 . S
C845 C846 1.388 . S
C846 H833 0.930 . S
C846 C845 1.388 . S
C846 C847 1.390 . S
C847 C846 1.390 . S
C847 C848 1.394 . S
C847 C853 1.465 . S
C848 C843 1.399 . S
C848 C847 1.394 . S
C848 C849 1.516 . S
C849 C848 1.516 . S
C849 C850 1.502 . S
C849 C851 1.561 . S
C849 C852 1.526 . S
C850 H834 0.959 . S
C850 H835 0.959 . S
C850 H836 0.961 . S
C850 C849 1.502 . S
C851 H837 0.960 . S
C851 H838 0.961 . S
C851 H839 0.959 . S
C851 C849 1.561 . S
C852 C849 1.526 . S
C852 C853 1.396 . S
C852 C857 1.390 . S
C853 C847 1.465 . S
C853 C852 1.396 . S
C853 C854 1.399 . S
C854 H840 0.929 . S
C854 C853 1.399 . S
C854 C855 1.385 . S
C855 H841 0.931 . S
C855 C854 1.385 . S
C855 C856 1.389 . S
C856 C855 1.389 . S
C856 C857 1.387 . S
C857 H842 0.930 . S
C857 C852 1.390 . S
C857 C856 1.387 . S
H858 C870 0.930 . S
H859 C872 0.930 . S
H860 C873 0.930 . S
H861 C877 0.959 . S
H862 C877 0.959 . S
H863 C877 0.961 . S
H864 C878 0.960 . S
H865 C878 0.961 . S
H866 C878 0.959 . S
H867 C881 0.929 . S
H868 C882 0.931 . S
H869 C884 0.930 . S
C870 H858 0.930 . S
C870 C871 1.399 . S
C870 C875 1.399 . S
C871 C870 1.399 . S
C871 C872 1.376 . S
C872 H859 0.930 . S
C872 C871 1.376 . S
C872 C873 1.388 . S
C873 H860 0.930 . S
C873 C872 1.388 . S
C873 C874 1.390 . S
C874 C873 1.390 . S
C874 C875 1.394 . S
C874 C880 1.465 . S
C875 C870 1.399 . S
C875 C874 1.394 . S
C875 C876 1.516 . S
C876 C875 1.516 . S
C876 C877 1.502 . S
C876 C878 1.561 . S
C876 C879 1.526 . S
C877 H861 0.959 . S
C877 H862 0.959 . S
C877 H863 0.961 . S
C877 C876 1.502 . S
C878 H864 0.960 . S
C878 H865 0.961 . S
C878 H866 0.959 . S
C878 C876 1.561 . S
C879 C876 1.526 . S
C879 C880 1.396 . S
C879 C884 1.390 . S
C880 C874 1.465 . S
C880 C879 1.396 . S
C880 C881 1.399 . S
C881 H867 0.929 . S
C881 C880 1.399 . S
C881 C882 1.385 . S
C882 H868 0.931 . S
C882 C881 1.385 . S
C882 C883 1.389 . S
C883 C882 1.389 . S
C883 C884 1.387 . S
C884 H869 0.930 . S
C884 C879 1.390 . S
C884 C883 1.387 . S
H885 C897 0.932 . S
H886 C899 0.930 . S
H887 C900 0.930 . S
H888 C904 0.959 . S
H889 C904 0.959 . S
H890 C904 0.961 . S
H891 C905 0.960 . S
H892 C905 0.961 . S
H893 C905 0.959 . S
H894 C908 0.929 . S
H895 C909 0.931 . S
H896 C911 0.930 . S
C897 H885 0.932 . S
C897 C898 1.399 . S
C897 C902 1.399 . S
C898 C897 1.399 . S
C898 C899 1.376 . S
C899 H886 0.930 . S
C899 C898 1.376 . S
C899 C900 1.388 . S
C900 H887 0.930 . S
C900 C899 1.388 . S
C900 C901 1.390 . S
C901 C900 1.390 . S
C901 C902 1.394 . S
C901 C907 1.465 . S
C902 C897 1.399 . S
C902 C901 1.394 . S
C902 C903 1.521 . S
C903 C902 1.521 . S
C903 C904 1.444 1_554 S
C903 C905 1.629 . S
C903 C906 1.524 . S
C904 H888 0.959 . S
C904 H889 0.959 . S
C904 H890 0.961 . S
C904 C903 1.444 1_556 S
C905 H891 0.960 . S
C905 H892 0.961 . S
C905 H893 0.959 . S
C905 C903 1.629 . S
C906 C903 1.524 . S
C906 C907 1.397 . S
C906 C911 1.389 1_554 S
C907 C901 1.465 . S
C907 C906 1.397 . S
C907 C908 1.399 . S
C908 H894 0.929 . S
C908 C907 1.399 . S
C908 C909 1.385 1_554 S
C909 H895 0.931 . S
C909 C908 1.385 1_556 S
C909 C910 1.389 . S
C910 C909 1.389 . S
C910 C911 1.387 . S
C911 H896 0.930 . S
C911 C906 1.389 1_556 S
C911 C910 1.387 . S
H912 C924 0.930 . S
H913 C926 0.930 . S
H914 C927 0.930 . S
H915 C931 0.959 . S
H916 C931 0.959 . S
H917 C931 0.961 . S
H918 C932 0.960 . S
H919 C932 0.961 . S
H920 C932 0.959 . S
H921 C935 0.929 . S
H922 C936 0.931 . S
H923 C938 0.930 . S
C924 H912 0.930 . S
C924 C925 1.399 . S
C924 C929 1.399 . S
C925 C924 1.399 . S
C925 C926 1.376 . S
C926 H913 0.930 . S
C926 C925 1.376 . S
C926 C927 1.388 . S
C927 H914 0.930 . S
C927 C926 1.388 . S
C927 C928 1.390 . S
C928 C927 1.390 . S
C928 C929 1.394 . S
C928 C934 1.465 . S
C929 C924 1.399 . S
C929 C928 1.394 . S
C929 C930 1.516 . S
C930 C929 1.516 . S
C930 C931 1.502 . S
C930 C932 1.561 . S
C930 C933 1.526 . S
C931 H915 0.959 . S
C931 H916 0.959 . S
C931 H917 0.961 . S
C931 C930 1.502 . S
C932 H918 0.960 . S
C932 H919 0.961 . S
C932 H920 0.959 . S
C932 C930 1.561 . S
C933 C930 1.526 . S
C933 C934 1.396 . S
C933 C938 1.390 . S
C934 C928 1.465 . S
C934 C933 1.396 . S
C934 C935 1.399 . S
C935 H921 0.929 . S
C935 C934 1.399 . S
C935 C936 1.385 . S
C936 H922 0.931 . S
C936 C935 1.385 . S
C936 C937 1.389 . S
C937 C936 1.389 . S
C937 C938 1.387 . S
C938 H923 0.930 . S
C938 C933 1.390 . S
C938 C937 1.387 . S
H939 C951 0.930 . S
H940 C953 0.930 . S
H941 C954 0.930 . S
H942 C958 0.959 . S
H943 C958 0.959 . S
H944 C958 0.961 . S
H945 C959 0.960 . S
H946 C959 0.961 . S
H947 C959 0.959 . S
H948 C962 0.929 . S
H949 C963 0.931 . S
H950 C965 0.930 . S
C951 H939 0.930 . S
C951 C952 1.399 . S
C951 C956 1.399 . S
C952 C951 1.399 . S
C952 C953 1.376 . S
C953 H940 0.930 . S
C953 C952 1.376 . S
C953 C954 1.388 . S
C954 H941 0.930 . S
C954 C953 1.388 . S
C954 C955 1.390 . S
C955 C954 1.390 . S
C955 C956 1.394 . S
C955 C961 1.465 . S
C956 C951 1.399 . S
C956 C955 1.394 . S
C956 C957 1.516 . S
C957 C956 1.516 . S
C957 C958 1.502 . S
C957 C959 1.561 . S
C957 C960 1.526 . S
C958 H942 0.959 . S
C958 H943 0.959 . S
C958 H944 0.961 . S
C958 C957 1.502 . S
C959 H945 0.960 . S
C959 H946 0.961 . S
C959 H947 0.959 . S
C959 C957 1.561 . S
C960 C957 1.526 . S
C960 C961 1.396 . S
C960 C965 1.390 . S
C961 C955 1.465 . S
C961 C960 1.396 . S
C961 C962 1.399 . S
C962 H948 0.929 . S
C962 C961 1.399 . S
C962 C963 1.385 . S
C963 H949 0.931 . S
C963 C962 1.385 . S
C963 C964 1.389 . S
C964 C963 1.389 . S
C964 C965 1.387 . S
C965 H950 0.930 . S
C965 C960 1.390 . S
C965 C964 1.387 . S
C493 C2 1.933 . S
C505 C242 2.001 . S
C520 C42 1.981 . S
C532 C282 1.944 . S
C547 C82 1.993 . S
C559 C322 1.943 . S
C574 C362 1.978 . S
C586 C122 1.947 . S
C601 C162 2.007 . S
C613 C402 1.924 . S
C628 C442 1.936 . S
C640 C202 1.989 . S
C655 C21 1.759 . S
C667 C141 1.794 . S
C682 C61 1.747 . S
C694 C181 1.730 . S
C709 C221 1.764 . S
C721 C101 1.793 . S
C736 C261 1.753 . S
C748 C381 1.795 . S
C763 C421 1.767 . S
C775 C301 1.792 . S
C790 C461 1.763 . S
C802 C341 1.725 . S
C817 C415 1.940 . S
C829 C15 1.972 . S
C844 C455 1.934 . S
C856 C55 1.967 . S
C871 C95 1.968 . S
C883 C255 1.946 . S
C898 C135 1.947 . S
C910 C295 1.966 . S
C925 C335 1.924 . S
C937 C175 1.981 . S
C952 C215 1.932 . S
C964 C375 1.970 . S
