# Generated by pormake.
# Topology upb, (4)-cn, num edge types: 1
# Building blocks:
#     Node 0, Type 0, BuildingBlock: NAHDIM_clean_sbu_0, # of connection points: 4
#     Node 1, Type 0, BuildingBlock: NAHDIM_clean_sbu_0, # of connection points: 4
#     Node 2, Type 0, BuildingBlock: NAHDIM_clean_sbu_0, # of connection points: 4
#     Node 3, Type 0, BuildingBlock: NAHDIM_clean_sbu_0, # of connection points: 4
#     Node 4, Type 0, BuildingBlock: NAHDIM_clean_sbu_0, # of connection points: 4
#     Node 5, Type 0, BuildingBlock: NAHDIM_clean_sbu_0, # of connection points: 4
#     Node 6, Type 0, BuildingBlock: NAHDIM_clean_sbu_0, # of connection points: 4
#     Node 7, Type 0, BuildingBlock: NAHDIM_clean_sbu_0, # of connection points: 4
#     Node 8, Type 0, BuildingBlock: NAHDIM_clean_sbu_0, # of connection points: 4
#     Node 9, Type 0, BuildingBlock: NAHDIM_clean_sbu_0, # of connection points: 4
#     Node 10, Type 0, BuildingBlock: NAHDIM_clean_sbu_0, # of connection points: 4
#     Node 11, Type 0, BuildingBlock: NAHDIM_clean_sbu_0, # of connection points: 4
#     Node 12, Type 0, BuildingBlock: NAHDIM_clean_sbu_0, # of connection points: 4
#     Node 13, Type 0, BuildingBlock: NAHDIM_clean_sbu_0, # of connection points: 4
#     Node 14, Type 0, BuildingBlock: NAHDIM_clean_sbu_0, # of connection points: 4
#     Node 15, Type 0, BuildingBlock: NAHDIM_clean_sbu_0, # of connection points: 4
#     Edge 16, Type (0, 0), BuildingBlock: UVAHIK_clean_linker_0, # of connection points: 2
#     Edge 17, Type (0, 0), BuildingBlock: UVAHIK_clean_linker_0, # of connection points: 2
#     Edge 18, Type (0, 0), BuildingBlock: UVAHIK_clean_linker_0, # of connection points: 2
#     Edge 19, Type (0, 0), BuildingBlock: UVAHIK_clean_linker_0, # of connection points: 2
#     Edge 20, Type (0, 0), BuildingBlock: UVAHIK_clean_linker_0, # of connection points: 2
#     Edge 21, Type (0, 0), BuildingBlock: UVAHIK_clean_linker_0, # of connection points: 2
#     Edge 22, Type (0, 0), BuildingBlock: UVAHIK_clean_linker_0, # of connection points: 2
#     Edge 23, Type (0, 0), BuildingBlock: UVAHIK_clean_linker_0, # of connection points: 2
#     Edge 24, Type (0, 0), BuildingBlock: UVAHIK_clean_linker_0, # of connection points: 2
#     Edge 25, Type (0, 0), BuildingBlock: UVAHIK_clean_linker_0, # of connection points: 2
#     Edge 26, Type (0, 0), BuildingBlock: UVAHIK_clean_linker_0, # of connection points: 2
#     Edge 27, Type (0, 0), BuildingBlock: UVAHIK_clean_linker_0, # of connection points: 2
#     Edge 28, Type (0, 0), BuildingBlock: UVAHIK_clean_linker_0, # of connection points: 2
#     Edge 29, Type (0, 0), BuildingBlock: UVAHIK_clean_linker_0, # of connection points: 2
#     Edge 30, Type (0, 0), BuildingBlock: UVAHIK_clean_linker_0, # of connection points: 2
#     Edge 31, Type (0, 0), BuildingBlock: UVAHIK_clean_linker_0, # of connection points: 2
#     Edge 32, Type (0, 0), BuildingBlock: UVAHIK_clean_linker_0, # of connection points: 2
#     Edge 33, Type (0, 0), BuildingBlock: UVAHIK_clean_linker_0, # of connection points: 2
#     Edge 34, Type (0, 0), BuildingBlock: UVAHIK_clean_linker_0, # of connection points: 2
#     Edge 35, Type (0, 0), BuildingBlock: UVAHIK_clean_linker_0, # of connection points: 2
#     Edge 36, Type (0, 0), BuildingBlock: UVAHIK_clean_linker_0, # of connection points: 2
#     Edge 37, Type (0, 0), BuildingBlock: UVAHIK_clean_linker_0, # of connection points: 2
#     Edge 38, Type (0, 0), BuildingBlock: UVAHIK_clean_linker_0, # of connection points: 2
#     Edge 39, Type (0, 0), BuildingBlock: UVAHIK_clean_linker_0, # of connection points: 2
#     Edge 40, Type (0, 0), BuildingBlock: UVAHIK_clean_linker_0, # of connection points: 2
#     Edge 41, Type (0, 0), BuildingBlock: UVAHIK_clean_linker_0, # of connection points: 2
#     Edge 42, Type (0, 0), BuildingBlock: UVAHIK_clean_linker_0, # of connection points: 2
#     Edge 43, Type (0, 0), BuildingBlock: UVAHIK_clean_linker_0, # of connection points: 2
#     Edge 44, Type (0, 0), BuildingBlock: UVAHIK_clean_linker_0, # of connection points: 2
#     Edge 45, Type (0, 0), BuildingBlock: UVAHIK_clean_linker_0, # of connection points: 2
#     Edge 46, Type (0, 0), BuildingBlock: UVAHIK_clean_linker_0, # of connection points: 2
#     Edge 47, Type (0, 0), BuildingBlock: UVAHIK_clean_linker_0, # of connection points: 2
# Relax obj value: 0.223
# Max RMSD: 0.103
# Mean RMSD: 0.103
data_MOF--net-upb--node1-NAHDIM_clean_sbu_0--edge1-UVAHIK_clean_linker_0
_symmetry_space_group_name_H-M    P1
_symmetry_Int_Tables_number       1
_symmetry_cell_setting            triclinic
loop_
_symmetry_equiv_pos_as_xyz
'x, y, z'
_cell_length_a     50.534816
_cell_length_b     50.527912
_cell_length_c     57.905055
_cell_angle_alpha  90.018375
_cell_angle_beta   89.975589
_cell_angle_gamma 89.987742
loop_
_atom_site_label
_atom_site_type_symbol
_atom_site_fract_x
_atom_site_fract_y
_atom_site_fract_z
_atom_type_partial_charge
C0 C 0.02209 0.31862 0.32714 0.0
O1 O 0.03478 0.31125 0.34585 0.0
O2 O 0.99565 0.27339 0.36911 0.0
Zn3 Zn 0.99957 0.2682 0.33467 0.0
O4 O 0.03193 0.24594 0.32879 0.0
C5 C 0.94474 0.25313 0.33107 0.0
O6 O 0.94176 0.27195 0.34652 0.0
O7 O 0.00457 0.30332 0.31879 0.0
C8 C 0.03409 0.22993 0.31197 0.0
O9 O 0.01446 0.22761 0.29723 0.0
C10 C 0.01513 0.26994 0.38269 0.0
O11 O 0.03823 0.26322 0.37409 0.0
O12 O 0.96764 0.24869 0.32287 0.0
C13 C 0.67549 0.02824 0.32784 0.0
O14 O 0.68548 0.0441 0.34356 0.0
O15 O 0.71687 0.99913 0.37321 0.0
Zn16 Zn 0.72305 0.00287 0.33886 0.0
O17 O 0.74469 0.03577 0.33333 0.0
C18 C 0.74181 0.94878 0.33672 0.0
O19 O 0.72506 0.94546 0.35384 0.0
O20 O 0.68817 0.00739 0.3225 0.0
C21 C 0.76217 0.03805 0.31769 0.0
O22 O 0.76686 0.018 0.30382 0.0
C23 C 0.7198 0.01873 0.38675 0.0
O24 O 0.72683 0.04175 0.3782 0.0
O25 O 0.74354 0.97137 0.32719 0.0
C26 C 0.99378 0.67329 0.30725 0.0
O27 O 0.00139 0.66978 0.32871 0.0
O28 O 0.00224 0.71986 0.35228 0.0
Zn29 Zn 0.99576 0.7293 0.31904 0.0
O30 O 0.96229 0.75091 0.3179 0.0
C31 C 0.04975 0.74582 0.31428 0.0
O32 O 0.05375 0.72484 0.32723 0.0
O33 O 0.99093 0.69667 0.29953 0.0
C34 C 0.95837 0.76941 0.30345 0.0
O35 O 0.97674 0.77484 0.2881 0.0
C36 C 0.98333 0.7129 0.3654 0.0
O37 O 0.95934 0.71103 0.35681 0.0
O38 O 0.02634 0.75132 0.30789 0.0
C39 C 0.32424 0.97877 0.32061 0.0
O40 O 0.31914 0.96665 0.34017 0.0
O41 O 0.2766 0.99936 0.36254 0.0
Zn42 Zn 0.2714 0.99589 0.32804 0.0
O43 O 0.25102 0.96238 0.32165 0.0
C44 C 0.25105 0.04933 0.32671 0.0
O45 O 0.26766 0.05276 0.34391 0.0
O46 O 0.30659 0.99356 0.31179 0.0
C47 C 0.2331 0.96076 0.30632 0.0
O48 O 0.22767 0.98157 0.29358 0.0
C49 C 0.27421 0.97955 0.37592 0.0
O50 O 0.26874 0.95624 0.36706 0.0
O51 O 0.24998 0.02692 0.3168 0.0
C52 C 0.02096 0.67357 0.67078 0.0
O53 O 0.03518 0.6801 0.65267 0.0
O54 O 0.99761 0.71323 0.6242 0.0
Zn55 Zn 0.99912 0.72221 0.65818 0.0
O56 O 0.03139 0.74457 0.66428 0.0
C57 C 0.96502 0.76476 0.65372 0.0
O58 O 0.98373 0.76982 0.63858 0.0
O59 O 0.00232 0.68887 0.67704 0.0
C60 C 0.03314 0.7601 0.68147 0.0
O61 O 0.01333 0.76164 0.69611 0.0
C62 C 0.01745 0.71663 0.61101 0.0
O63 O 0.03971 0.7255 0.61978 0.0
O64 O 0.96674 0.74377 0.66574 0.0
C65 C 0.32361 0.00246 0.67752 0.0
O66 O 0.32513 0.99934 0.65504 0.0
O67 O 0.27322 0.99279 0.63572 0.0
Zn68 Zn 0.26688 0.99743 0.66983 0.0
O69 O 0.24558 0.0307 0.67421 0.0
C70 C 0.24773 0.94381 0.67227 0.0
O71 O 0.26546 0.94021 0.65596 0.0
O72 O 0.30113 0.00139 0.68734 0.0
C73 C 0.2315 0.0346 0.69207 0.0
O74 O 0.23084 0.01645 0.70831 0.0
C75 C 0.27702 0.01258 0.6226 0.0
O76 O 0.27762 0.03644 0.63163 0.0
O77 O 0.24544 0.96657 0.6814 0.0
C78 C 0.97993 0.32375 0.68477 0.0
O79 O 0.97062 0.3206 0.66379 0.0
O80 O 0.00078 0.27643 0.64264 0.0
Zn81 Zn 0.99686 0.27039 0.67694 0.0
O82 O 0.96412 0.24838 0.6821 0.0
C83 C 0.05072 0.25131 0.67784 0.0
O84 O 0.05335 0.26763 0.66033 0.0
O85 O 0.99279 0.30493 0.69407 0.0
C86 C 0.96273 0.23011 0.69713 0.0
O87 O 0.98325 0.2254 0.71042 0.0
C88 C 0.98106 0.27526 0.62905 0.0
O89 O 0.95737 0.27088 0.63758 0.0
O90 O 0.02857 0.24992 0.68817 0.0
C91 C 0.66797 0.98553 0.69037 0.0
O92 O 0.66668 0.98209 0.66793 0.0
O93 O 0.71394 0.00417 0.6464 0.0
Zn94 Zn 0.72252 0.99866 0.68013 0.0
O95 O 0.746 0.96656 0.68239 0.0
C96 C 0.74268 0.05227 0.68208 0.0
O97 O 0.72558 0.05623 0.66536 0.0
O98 O 0.68961 0.99318 0.69937 0.0
C99 C 0.76714 0.96737 0.67052 0.0
O100 O 0.77217 0.98866 0.65825 0.0
C101 C 0.71139 0.98458 0.63279 0.0
O102 O 0.71305 0.96045 0.64113 0.0
O103 O 0.74391 0.02961 0.69155 0.0
C104 C 0.50449 0.82779 0.8286 0.0
O105 O 0.50211 0.82924 0.85114 0.0
O106 O 0.49557 0.77838 0.87079 0.0
Zn107 Zn 0.49876 0.77134 0.83661 0.0
O108 O 0.53152 0.7495 0.83139 0.0
C109 C 0.4449 0.7523 0.83585 0.0
O110 O 0.44188 0.76985 0.8524 0.0
O111 O 0.50265 0.80537 0.81873 0.0
C112 C 0.53447 0.735 0.81364 0.0
O113 O 0.51562 0.73423 0.79804 0.0
C114 C 0.51615 0.78109 0.88318 0.0
O115 O 0.53956 0.77967 0.87337 0.0
O116 O 0.46729 0.75016 0.82603 0.0
C117 C 0.18211 0.52751 0.8169 0.0
O118 O 0.19401 0.54411 0.83091 0.0
O119 O 0.21688 0.4904 0.86514 0.0
Zn120 Zn 0.22561 0.49723 0.83168 0.0
O121 O 0.24913 0.52937 0.83003 0.0
C122 C 0.2409 0.44264 0.82653 0.0
O123 O 0.22188 0.43912 0.84169 0.0
O124 O 0.19207 0.50466 0.81394 0.0
C125 C 0.26575 0.53357 0.81398 0.0
O126 O 0.26837 0.51609 0.79734 0.0
C127 C 0.21603 0.50922 0.8797 0.0
O128 O 0.22065 0.53351 0.87272 0.0
O129 O 0.24545 0.46583 0.81902 0.0
C130 C 0.47741 0.16908 0.81328 0.0
O131 O 0.46746 0.17164 0.83412 0.0
O132 O 0.49884 0.21421 0.85689 0.0
Zn133 Zn 0.49264 0.22203 0.82313 0.0
O134 O 0.45825 0.24189 0.81989 0.0
C135 C 0.54583 0.24283 0.81879 0.0
O136 O 0.55191 0.22257 0.83198 0.0
O137 O 0.49025 0.1883 0.80461 0.0
C138 C 0.45473 0.2593 0.80435 0.0
O139 O 0.47388 0.26423 0.78961 0.0
C140 C 0.47997 0.21417 0.87141 0.0
O141 O 0.45573 0.21861 0.8642 0.0
O142 O 0.52204 0.24573 0.81217 0.0
C143 C 0.82346 0.49173 0.81803 0.0
O144 O 0.82538 0.49651 0.84026 0.0
O145 O 0.77323 0.50204 0.85993 0.0
Zn146 Zn 0.76673 0.49783 0.82585 0.0
O147 O 0.74348 0.46567 0.82145 0.0
C148 C 0.74954 0.55242 0.82436 0.0
O149 O 0.76581 0.55482 0.84193 0.0
O150 O 0.80081 0.49205 0.80847 0.0
C151 C 0.71999 0.46723 0.8137 0.0
O152 O 0.71041 0.49047 0.80796 0.0
C153 C 0.77702 0.4822 0.87299 0.0
O154 O 0.77749 0.45836 0.86392 0.0
O155 O 0.74761 0.53019 0.81422 0.0
C156 C 0.52514 0.17714 0.17745 0.0
O157 O 0.54054 0.1834 0.16001 0.0
O158 O 0.5024 0.21621 0.12956 0.0
Zn159 Zn 0.5052 0.2258 0.16334 0.0
O160 O 0.53914 0.24588 0.1685 0.0
C161 C 0.47521 0.27133 0.15913 0.0
O162 O 0.49464 0.27492 0.14436 0.0
O163 O 0.50636 0.19275 0.18278 0.0
C164 C 0.5421 0.26228 0.18493 0.0
O165 O 0.52255 0.26615 0.19951 0.0
C166 C 0.52217 0.21754 0.11602 0.0
O167 O 0.54532 0.2246 0.12428 0.0
O168 O 0.47468 0.25002 0.1708 0.0
C169 C 0.82314 0.52084 0.17475 0.0
O170 O 0.8172 0.533 0.15539 0.0
O171 O 0.77638 0.49778 0.13309 0.0
Zn172 Zn 0.77112 0.50178 0.16754 0.0
O173 O 0.75023 0.53508 0.17347 0.0
C174 C 0.75515 0.44741 0.17088 0.0
O175 O 0.77443 0.44435 0.15588 0.0
O176 O 0.8063 0.50515 0.1836 0.0
C177 C 0.73175 0.53701 0.18825 0.0
O178 O 0.7256 0.51637 0.20096 0.0
C179 C 0.77337 0.51726 0.11944 0.0
O180 O 0.7672 0.54056 0.12796 0.0
O181 O 0.75059 0.47032 0.179 0.0
C182 C 0.49915 0.83253 0.18724 0.0
O183 O 0.5058 0.83594 0.16552 0.0
O184 O 0.50647 0.78523 0.14229 0.0
Zn185 Zn 0.50146 0.77627 0.17595 0.0
O186 O 0.46844 0.75416 0.17934 0.0
C187 C 0.55544 0.75818 0.17867 0.0
O188 O 0.55944 0.77784 0.16424 0.0
O189 O 0.49714 0.80918 0.19524 0.0
C190 C 0.46256 0.73717 0.16399 0.0
O191 O 0.47839 0.73401 0.14619 0.0
C192 C 0.48732 0.79279 0.12968 0.0
O193 O 0.46379 0.79581 0.13898 0.0
O194 O 0.53231 0.75434 0.18659 0.0
C195 C 0.18838 0.47027 0.18908 0.0
O196 O 0.2013 0.45363 0.1758 0.0
O197 O 0.21652 0.49938 0.13669 0.0
Zn198 Zn 0.22792 0.50194 0.17008 0.0
O199 O 0.25614 0.47449 0.17576 0.0
C200 C 0.25027 0.55261 0.15911 0.0
O201 O 0.24455 0.54452 0.13815 0.0
O202 O 0.19636 0.49408 0.19028 0.0
C203 C 0.27798 0.47651 0.16503 0.0
O204 O 0.28164 0.49676 0.15116 0.0
C205 C 0.21945 0.47869 0.12444 0.0
O206 O 0.2296 0.4573 0.13379 0.0
O207 O 0.24395 0.53809 0.17621 0.0
C208 C 0.05969 0.19356 0.29267 0.0
C209 C 0.05813 0.2134 0.30964 0.0
C210 C 0.08196 0.1772 0.29126 0.0
C211 C 0.15206 0.17182 0.3092 0.0
H212 H 0.13991 0.0963 0.30394 0.0
C213 C 0.23074 0.09391 0.33337 0.0
C214 C 0.23186 0.07031 0.32056 0.0
C215 C 0.21098 0.11261 0.32904 0.0
C216 C 0.14374 0.11736 0.305 0.0
H217 H 0.07901 0.23202 0.33809 0.0
H218 H 0.1177 0.20345 0.33566 0.0
H219 H 0.10262 0.12671 0.30172 0.0
H220 H 0.21381 0.04838 0.29244 0.0
H221 H 0.17959 0.08119 0.28469 0.0
H222 H 0.19316 0.16243 0.31282 0.0
C223 C 0.10183 0.20065 0.32333 0.0
C224 C 0.12233 0.13479 0.30375 0.0
C225 C 0.07955 0.21691 0.32482 0.0
C226 C 0.21341 0.06628 0.30274 0.0
C227 C 0.19368 0.08501 0.29838 0.0
C228 C 0.1735 0.15439 0.31039 0.0
C229 C 0.10319 0.18045 0.30669 0.0
C230 C 0.1262 0.16218 0.30617 0.0
C231 C 0.19193 0.10817 0.31176 0.0
C232 C 0.16954 0.12692 0.30863 0.0
H233 H 0.04356 0.19039 0.28068 0.0
H234 H 0.08254 0.16197 0.2781 0.0
H235 H 0.15571 0.19287 0.31077 0.0
H236 H 0.24463 0.09763 0.34723 0.0
H237 H 0.21006 0.13009 0.33984 0.0
C238 C 0.92611 0.2141 0.30988 0.0
C239 C 0.9225 0.23522 0.32539 0.0
C240 C 0.90611 0.19541 0.30652 0.0
C241 C 0.84989 0.16641 0.3373 0.0
H242 H 0.83433 0.13353 0.27833 0.0
C243 C 0.7712 0.08482 0.3295 0.0
C244 C 0.77778 0.06274 0.31588 0.0
C245 C 0.78666 0.1077 0.32879 0.0
C246 C 0.8386 0.14239 0.29494 0.0
H247 H 0.8945 0.25402 0.34861 0.0
H248 H 0.85956 0.22145 0.34263 0.0
H249 H 0.86505 0.17082 0.28005 0.0
H250 H 0.80539 0.04762 0.29041 0.0
H251 H 0.83271 0.08739 0.28951 0.0
H252 H 0.8241 0.13772 0.35235 0.0
C253 C 0.87803 0.21916 0.33334 0.0
C254 C 0.85614 0.16378 0.29591 0.0
C255 C 0.89801 0.2379 0.33666 0.0
C256 C 0.79979 0.06429 0.30111 0.0
C257 C 0.81535 0.08716 0.30049 0.0
C258 C 0.83247 0.14502 0.33635 0.0
C259 C 0.88208 0.19739 0.31862 0.0
C260 C 0.86212 0.17589 0.31714 0.0
C261 C 0.80916 0.10902 0.31455 0.0
C262 C 0.82674 0.13261 0.3152 0.0
H263 H 0.94472 0.21149 0.30087 0.0
H264 H 0.90993 0.17877 0.2952 0.0
H265 H 0.85446 0.17496 0.35398 0.0
H266 H 0.75421 0.08438 0.34091 0.0
H267 H 0.78103 0.12433 0.33953 0.0
C268 C 0.77946 0.93148 0.31288 0.0
C269 C 0.76041 0.92738 0.33022 0.0
C270 C 0.79863 0.91225 0.30825 0.0
C271 C 0.83332 0.85733 0.33659 0.0
H272 H 0.8585 0.84165 0.27481 0.0
C273 C 0.91375 0.77877 0.32046 0.0
C274 C 0.93377 0.7853 0.30459 0.0
C275 C 0.89104 0.79438 0.32232 0.0
C276 C 0.85183 0.84598 0.29218 0.0
H277 H 0.74591 0.89936 0.35563 0.0
H278 H 0.77925 0.86575 0.34743 0.0
H279 H 0.82115 0.87176 0.28007 0.0
H280 H 0.94537 0.81311 0.27791 0.0
H281 H 0.9059 0.84059 0.28141 0.0
H282 H 0.8642 0.83204 0.34879 0.0
C283 C 0.77958 0.88402 0.33765 0.0
C284 C 0.83041 0.86318 0.29518 0.0
C285 C 0.76038 0.90323 0.34225 0.0
C286 C 0.93032 0.80751 0.2903 0.0
C287 C 0.9076 0.82318 0.29221 0.0
C288 C 0.85473 0.8402 0.3336 0.0
C289 C 0.7992 0.88851 0.32088 0.0
C290 C 0.82102 0.86917 0.31744 0.0
C291 C 0.88781 0.81695 0.3084 0.0
C292 C 0.86436 0.83442 0.31138 0.0
H293 H 0.78004 0.94986 0.30327 0.0
H294 H 0.81359 0.91642 0.29536 0.0
H295 H 0.8269 0.86189 0.35399 0.0
H296 H 0.91568 0.76168 0.33163 0.0
H297 H 0.87599 0.78875 0.3347 0.0
C298 C 0.06745 0.7869 0.29558 0.0
C299 C 0.07172 0.76432 0.30928 0.0
C300 C 0.08747 0.80569 0.2927 0.0
C301 C 0.14569 0.83151 0.32259 0.0
H302 H 0.15901 0.86808 0.26488 0.0
C303 C 0.22455 0.91329 0.31627 0.0
C304 C 0.21754 0.93612 0.30383 0.0
C305 C 0.20901 0.89048 0.315 0.0
C306 C 0.15538 0.85819 0.28117 0.0
H307 H 0.10073 0.74324 0.32988 0.0
H308 H 0.13563 0.77607 0.32482 0.0
H309 H 0.12776 0.83121 0.26584 0.0
H310 H 0.18903 0.95268 0.27986 0.0
H311 H 0.1616 0.91312 0.27802 0.0
H312 H 0.17258 0.85882 0.33814 0.0
C313 C 0.11671 0.77933 0.31652 0.0
C314 C 0.13754 0.83704 0.28169 0.0
C315 C 0.09674 0.76047 0.31931 0.0
C316 C 0.19501 0.93542 0.28964 0.0
C317 C 0.17936 0.91265 0.28847 0.0
C318 C 0.16339 0.85271 0.32211 0.0
C319 C 0.11213 0.80237 0.30352 0.0
C320 C 0.13235 0.82363 0.30245 0.0
C321 C 0.18599 0.89001 0.30136 0.0
C322 C 0.1683 0.86647 0.30144 0.0
H323 H 0.04841 0.79043 0.28757 0.0
H324 H 0.08326 0.82333 0.28273 0.0
H325 H 0.14178 0.82186 0.33894 0.0
H326 H 0.24193 0.91309 0.32722 0.0
H327 H 0.21496 0.87325 0.32483 0.0
C328 C 0.07869 0.77401 0.66954 0.0
C329 C 0.05687 0.77692 0.6844 0.0
C330 C 0.1007 0.79054 0.67165 0.0
C331 C 0.11974 0.85633 0.69232 0.0
H332 H 0.19123 0.82974 0.68481 0.0
C333 C 0.20955 0.92639 0.69537 0.0
C334 C 0.22874 0.92253 0.67811 0.0
C335 C 0.19002 0.90732 0.69932 0.0
C336 C 0.17138 0.8375 0.6868 0.0
H337 H 0.04129 0.79919 0.71342 0.0
H338 H 0.07978 0.82812 0.71705 0.0
H339 H 0.15417 0.79879 0.68568 0.0
H340 H 0.24303 0.89519 0.65204 0.0
H341 H 0.20879 0.86222 0.65864 0.0
H342 H 0.13673 0.89505 0.69276 0.0
C343 C 0.07973 0.81312 0.70368 0.0
C344 C 0.15017 0.81977 0.68732 0.0
C345 C 0.05774 0.79647 0.70166 0.0
C346 C 0.22856 0.89879 0.66548 0.0
C347 C 0.20898 0.87978 0.66937 0.0
C348 C 0.14093 0.87407 0.69169 0.0
C349 C 0.10137 0.81044 0.68859 0.0
C350 C 0.12409 0.82902 0.68979 0.0
C351 C 0.18919 0.88402 0.68606 0.0
C352 C 0.16698 0.86491 0.68862 0.0
H353 H 0.07868 0.75913 0.65606 0.0
H354 H 0.11692 0.78818 0.65958 0.0
H355 H 0.09985 0.8641 0.69393 0.0
H356 H 0.20924 0.94439 0.70553 0.0
H357 H 0.17536 0.91101 0.71259 0.0
C358 C 0.21745 0.07908 0.67746 0.0
C359 C 0.21538 0.05895 0.69411 0.0
C360 C 0.20153 0.10163 0.67884 0.0
C361 C 0.13793 0.12417 0.70186 0.0
H362 H 0.16492 0.19409 0.68745 0.0
C363 C 0.06957 0.21525 0.70257 0.0
C364 C 0.07225 0.23267 0.6838 0.0
C365 C 0.08869 0.19585 0.70678 0.0
C366 C 0.15704 0.17467 0.69137 0.0
H367 H 0.19531 0.04697 0.72555 0.0
H368 H 0.16745 0.08636 0.7279 0.0
H369 H 0.1953 0.15656 0.68917 0.0
H370 H 0.09762 0.24401 0.65523 0.0
H371 H 0.13065 0.20993 0.66229 0.0
H372 H 0.09961 0.14196 0.70339 0.0
C373 C 0.1813 0.08457 0.7137 0.0
C374 C 0.17445 0.1532 0.69239 0.0
C375 C 0.19734 0.06207 0.7124 0.0
C376 C 0.09495 0.23092 0.66986 0.0
C377 C 0.114 0.21144 0.67399 0.0
C378 C 0.12051 0.14559 0.70073 0.0
C379 C 0.18309 0.1045 0.69684 0.0
C380 C 0.16503 0.12766 0.69737 0.0
C381 C 0.11086 0.19335 0.69225 0.0
C382 C 0.12979 0.17106 0.69521 0.0
H383 H 0.23117 0.07732 0.66316 0.0
H384 H 0.20316 0.11649 0.66544 0.0
H385 H 0.13 0.10468 0.70543 0.0
H386 H 0.05242 0.2162 0.71376 0.0
H387 H 0.0859 0.18256 0.72125 0.0
C388 C 0.91649 0.21899 0.68491 0.0
C389 C 0.93862 0.21359 0.69884 0.0
C390 C 0.89414 0.20275 0.68578 0.0
C391 C 0.87388 0.13508 0.70086 0.0
H392 H 0.80291 0.16404 0.69744 0.0
C393 C 0.78218 0.06775 0.70446 0.0
C394 C 0.76243 0.07284 0.68796 0.0
C395 C 0.80247 0.08601 0.70828 0.0
C396 C 0.82261 0.15566 0.69826 0.0
H397 H 0.95441 0.18716 0.72495 0.0
H398 H 0.91533 0.15888 0.72652 0.0
H399 H 0.84084 0.1939 0.69942 0.0
H400 H 0.74793 0.1016 0.66319 0.0
H401 H 0.78343 0.13335 0.66973 0.0
H402 H 0.8558 0.09688 0.6993 0.0
C403 C 0.91539 0.17554 0.71476 0.0
C404 C 0.84433 0.17275 0.69939 0.0
C405 C 0.93773 0.19183 0.71394 0.0
C406 C 0.76284 0.09705 0.67602 0.0
C407 C 0.78314 0.11533 0.67985 0.0
C408 C 0.8522 0.11801 0.69971 0.0
C409 C 0.89342 0.1807 0.70056 0.0
C410 C 0.87022 0.16265 0.70053 0.0
C411 C 0.80347 0.10979 0.69571 0.0
C412 C 0.82632 0.12808 0.69823 0.0
H413 H 0.91652 0.23558 0.67307 0.0
H414 H 0.87768 0.20709 0.67442 0.0
H415 H 0.89359 0.12665 0.70134 0.0
H416 H 0.78239 0.04936 0.71405 0.0
H417 H 0.81759 0.08135 0.7209 0.0
C418 C 0.78143 0.92226 0.6839 0.0
C419 C 0.78542 0.94452 0.66974 0.0
C420 C 0.79876 0.90066 0.68277 0.0
C421 C 0.84728 0.86905 0.64409 0.0
H422 H 0.87629 0.83808 0.69988 0.0
C423 C 0.94116 0.80596 0.6424 0.0
C424 C 0.94253 0.78326 0.65635 0.0
C425 C 0.92006 0.82356 0.64446 0.0
C426 C 0.86805 0.84622 0.68416 0.0
H427 H 0.81074 0.96158 0.64337 0.0
H428 H 0.84079 0.92408 0.64145 0.0
H429 H 0.84262 0.87273 0.70275 0.0
H430 H 0.9228 0.7613 0.68355 0.0
H431 H 0.88566 0.7922 0.68709 0.0
H432 H 0.87278 0.84291 0.62545 0.0
C433 C 0.82419 0.92316 0.65327 0.0
C434 C 0.8488 0.86607 0.6858 0.0
C435 C 0.80705 0.94475 0.6545 0.0
C436 C 0.9223 0.77862 0.67254 0.0
C437 C 0.90111 0.79635 0.67464 0.0
C438 C 0.8664 0.84923 0.64244 0.0
C439 C 0.82021 0.90085 0.66732 0.0
C440 C 0.83867 0.87808 0.66577 0.0
C441 C 0.89972 0.81894 0.6605 0.0
C442 C 0.87745 0.83801 0.66245 0.0
H443 H 0.76494 0.92149 0.69583 0.0
H444 H 0.79515 0.88367 0.69373 0.0
H445 H 0.83942 0.87753 0.62834 0.0
H446 H 0.95645 0.81024 0.62983 0.0
H447 H 0.91988 0.84103 0.63363 0.0
C448 C 0.57945 0.72084 0.82692 0.0
C449 C 0.55856 0.71861 0.81101 0.0
C450 C 0.6018 0.70472 0.82499 0.0
C451 C 0.62289 0.64055 0.8021 0.0
H452 H 0.69351 0.6673 0.81401 0.0
C453 C 0.71332 0.57144 0.79991 0.0
C454 C 0.73124 0.57422 0.81831 0.0
C455 C 0.69404 0.59071 0.79584 0.0
C456 C 0.6739 0.6595 0.81077 0.0
H457 H 0.54501 0.69804 0.78032 0.0
H458 H 0.58407 0.66983 0.77701 0.0
H459 H 0.65614 0.69792 0.81298 0.0
H460 H 0.74367 0.59997 0.84626 0.0
H461 H 0.70985 0.63332 0.8394 0.0
H462 H 0.64037 0.60208 0.80056 0.0
C463 C 0.58303 0.68397 0.79105 0.0
C464 C 0.65252 0.67704 0.81016 0.0
C465 C 0.56072 0.7002 0.7929 0.0
C466 C 0.73018 0.59721 0.83193 0.0
C467 C 0.71084 0.61644 0.82791 0.0
C468 C 0.64423 0.62301 0.80281 0.0
C469 C 0.60373 0.68593 0.80718 0.0
C470 C 0.62673 0.6677 0.8061 0.0
C471 C 0.69219 0.61316 0.81011 0.0
C472 C 0.66996 0.63221 0.80745 0.0
H473 H 0.57844 0.73484 0.84107 0.0
H474 H 0.61726 0.70649 0.83785 0.0
H475 H 0.60322 0.63269 0.79925 0.0
H476 H 0.71372 0.55404 0.78898 0.0
H477 H 0.6803 0.58781 0.78171 0.0
C478 C 0.42698 0.71396 0.81325 0.0
C479 C 0.4235 0.73327 0.83049 0.0
C480 C 0.40791 0.69434 0.80977 0.0
C481 C 0.35612 0.65883 0.84133 0.0
H482 H 0.33577 0.63292 0.78085 0.0
C483 C 0.27725 0.57771 0.8308 0.0
C484 C 0.28213 0.55784 0.81434 0.0
C485 C 0.29302 0.60037 0.83163 0.0
C486 C 0.34145 0.63977 0.79786 0.0
H487 H 0.3967 0.74775 0.85692 0.0
H488 H 0.36341 0.71353 0.85078 0.0
H489 H 0.36562 0.6708 0.78398 0.0
H490 H 0.30722 0.54637 0.78564 0.0
H491 H 0.33512 0.58571 0.78738 0.0
H492 H 0.33256 0.62761 0.8553 0.0
C493 C 0.38106 0.71341 0.84016 0.0
C494 C 0.35848 0.6615 0.79964 0.0
C495 C 0.40007 0.7331 0.84358 0.0
C496 C 0.30292 0.56132 0.79851 0.0
C497 C 0.31881 0.58396 0.79942 0.0
C498 C 0.33924 0.63708 0.83956 0.0
C499 C 0.385 0.69353 0.82352 0.0
C500 C 0.36604 0.67122 0.82141 0.0
C501 C 0.31417 0.60367 0.81612 0.0
C502 C 0.33173 0.62722 0.81782 0.0
H503 H 0.44479 0.71355 0.80284 0.0
H504 H 0.4116 0.6792 0.79693 0.0
H505 H 0.36198 0.66552 0.85835 0.0
H506 H 0.26123 0.57577 0.84313 0.0
H507 H 0.28857 0.61535 0.84444 0.0
C508 C 0.27959 0.42438 0.80458 0.0
C509 C 0.25876 0.42052 0.82033 0.0
C510 C 0.2981 0.40434 0.80056 0.0
C511 C 0.32763 0.34728 0.82962 0.0
H512 H 0.35765 0.33206 0.76942 0.0
C513 C 0.40867 0.26829 0.81832 0.0
C514 C 0.42991 0.27483 0.80372 0.0
C515 C 0.38579 0.28381 0.81866 0.0
C516 C 0.34961 0.33623 0.78638 0.0
H517 H 0.24038 0.39214 0.84343 0.0
H518 H 0.27268 0.35719 0.83638 0.0
H519 H 0.32089 0.36324 0.77272 0.0
H520 H 0.44354 0.30249 0.77767 0.0
H521 H 0.40392 0.3299 0.77863 0.0
H522 H 0.35669 0.321 0.84344 0.0
C523 C 0.27483 0.37584 0.82734 0.0
C524 C 0.32852 0.35403 0.78824 0.0
C525 C 0.25626 0.39582 0.83128 0.0
C526 C 0.42752 0.29688 0.78909 0.0
C527 C 0.4047 0.31251 0.78954 0.0
C528 C 0.34877 0.32962 0.82778 0.0
C529 C 0.29623 0.38005 0.81228 0.0
C530 C 0.31744 0.3599 0.80991 0.0
C531 C 0.38367 0.30635 0.80453 0.0
C532 C 0.36019 0.32402 0.80617 0.0
H533 H 0.28207 0.44316 0.79582 0.0
H534 H 0.31448 0.40827 0.78899 0.0
H535 H 0.31983 0.35172 0.84661 0.0
H536 H 0.40979 0.25129 0.82967 0.0
H537 H 0.3698 0.27821 0.83012 0.0
C538 C 0.7126 0.41858 0.8196 0.0
C539 C 0.7033 0.44325 0.81182 0.0
C540 C 0.69642 0.39617 0.8185 0.0
C541 C 0.626 0.37698 0.81485 0.0
H542 H 0.65416 0.30795 0.79885 0.0
C543 C 0.55792 0.28715 0.80265 0.0
C544 C 0.56554 0.26382 0.81409 0.0
C545 C 0.57559 0.30824 0.80045 0.0
C546 C 0.64608 0.32709 0.80348 0.0
H547 H 0.66991 0.46358 0.79635 0.0
H548 H 0.6419 0.4245 0.79412 0.0
H549 H 0.68337 0.34652 0.7988 0.0
H550 H 0.5981 0.24392 0.83124 0.0
H551 H 0.62898 0.28082 0.82734 0.0
H552 H 0.58877 0.35763 0.81956 0.0
C553 C 0.66151 0.42252 0.80145 0.0
C554 C 0.66279 0.34917 0.8035 0.0
C555 C 0.67764 0.44492 0.80261 0.0
C556 C 0.59159 0.26163 0.82238 0.0
C557 C 0.60932 0.28273 0.82007 0.0
C558 C 0.60931 0.35498 0.81473 0.0
C559 C 0.6706 0.39792 0.80956 0.0
C560 C 0.65293 0.37438 0.80921 0.0
C561 C 0.6013 0.30646 0.80953 0.0
C562 C 0.61914 0.32979 0.80905 0.0
H563 H 0.73226 0.41662 0.82684 0.0
H564 H 0.70394 0.3776 0.82514 0.0
H565 H 0.61785 0.39598 0.81981 0.0
H566 H 0.53805 0.28947 0.79594 0.0
H567 H 0.56898 0.32613 0.7919 0.0
C568 C 0.71598 0.4286 0.19177 0.0
C569 C 0.73716 0.42515 0.1763 0.0
C570 C 0.69742 0.40845 0.19508 0.0
C571 C 0.66872 0.35211 0.16438 0.0
H572 H 0.63737 0.33517 0.22369 0.0
C573 C 0.58849 0.27206 0.17245 0.0
C574 C 0.56672 0.27798 0.18665 0.0
C575 C 0.61116 0.28783 0.17298 0.0
C576 C 0.64579 0.33983 0.20698 0.0
H577 H 0.7561 0.39737 0.15296 0.0
H578 H 0.72372 0.36223 0.15879 0.0
H579 H 0.674 0.36665 0.22169 0.0
H580 H 0.55193 0.30473 0.21296 0.0
H581 H 0.59127 0.33261 0.21354 0.0
H582 H 0.64019 0.32602 0.14951 0.0
C583 C 0.72133 0.38065 0.16815 0.0
C584 C 0.6668 0.3578 0.20586 0.0
C585 C 0.73995 0.40074 0.16491 0.0
C586 C 0.56838 0.29961 0.20183 0.0
C587 C 0.59102 0.31551 0.20226 0.0
C588 C 0.64767 0.33429 0.16548 0.0
C589 C 0.69959 0.38447 0.18293 0.0
C590 C 0.67837 0.36425 0.18451 0.0
C591 C 0.61255 0.31002 0.18761 0.0
C592 C 0.63581 0.32803 0.18676 0.0
H593 H 0.71329 0.44715 0.20086 0.0
H594 H 0.68079 0.41207 0.20645 0.0
H595 H 0.67688 0.35703 0.14762 0.0
H596 H 0.58794 0.25538 0.16071 0.0
H597 H 0.62757 0.28272 0.16179 0.0
C598 C 0.60154 0.74124 0.17268 0.0
C599 C 0.57683 0.73899 0.18364 0.0
C600 C 0.62077 0.72161 0.17549 0.0
C601 C 0.64012 0.66412 0.21147 0.0
H602 H 0.67299 0.63943 0.15491 0.0
C603 C 0.69407 0.56347 0.20446 0.0
C604 C 0.71659 0.56197 0.19028 0.0
C605 C 0.67899 0.58666 0.20533 0.0
C606 C 0.66437 0.64632 0.17095 0.0
H607 H 0.55337 0.71493 0.20699 0.0
H608 H 0.58685 0.68068 0.21178 0.0
H609 H 0.64364 0.67755 0.15384 0.0
H610 H 0.74148 0.58397 0.16651 0.0
H611 H 0.71545 0.62445 0.16832 0.0
H612 H 0.66066 0.63261 0.22853 0.0
C613 C 0.59143 0.69767 0.2011 0.0
C614 C 0.64753 0.66821 0.17032 0.0
C615 C 0.57218 0.71725 0.19825 0.0
C616 C 0.72411 0.58437 0.17747 0.0
C617 C 0.70911 0.60756 0.17841 0.0
C618 C 0.65706 0.64223 0.21212 0.0
C619 C 0.61573 0.69936 0.18938 0.0
C620 C 0.63502 0.67722 0.19053 0.0
C621 C 0.68616 0.60888 0.19211 0.0
C622 C 0.6692 0.63293 0.19181 0.0
H623 H 0.60583 0.75779 0.1614 0.0
H624 H 0.63946 0.72366 0.1665 0.0
H625 H 0.63101 0.67078 0.22738 0.0
H626 H 0.68772 0.54656 0.21453 0.0
H627 H 0.66127 0.58689 0.21586 0.0
C628 C 0.42455 0.71909 0.18696 0.0
C629 C 0.43791 0.72158 0.16576 0.0
C630 C 0.40144 0.70395 0.18853 0.0
C631 C 0.34641 0.6782 0.15425 0.0
H632 H 0.34348 0.62095 0.19874 0.0
C633 C 0.27662 0.58999 0.14288 0.0
C634 C 0.26673 0.57657 0.1623 0.0
C635 C 0.29443 0.61085 0.14544 0.0
C636 C 0.34361 0.63719 0.18655 0.0
H637 H 0.4373 0.71063 0.12954 0.0
H638 H 0.39672 0.68464 0.13224 0.0
H639 H 0.38066 0.65176 0.19938 0.0
H640 H 0.26684 0.57538 0.19973 0.0
H641 H 0.29754 0.6124 0.20425 0.0
H642 H 0.3095 0.66388 0.14135 0.0
C643 C 0.4042 0.69428 0.14763 0.0
C644 C 0.365 0.65475 0.18688 0.0
C645 C 0.42751 0.709 0.14613 0.0
C646 C 0.27422 0.58523 0.18442 0.0
C647 C 0.29195 0.60633 0.18699 0.0
C648 C 0.32487 0.66092 0.15411 0.0
C649 C 0.39103 0.6915 0.16884 0.0
C650 C 0.36692 0.67496 0.17033 0.0
C651 C 0.30265 0.61909 0.16749 0.0
C652 C 0.32356 0.6397 0.16982 0.0
H653 H 0.43214 0.72855 0.20239 0.0
H654 H 0.39159 0.70212 0.20507 0.0
H655 H 0.34726 0.6939 0.14153 0.0
H656 H 0.27134 0.58383 0.12557 0.0
H657 H 0.30252 0.61979 0.12998 0.0
C658 C 0.29395 0.43291 0.1805 0.0
C659 C 0.29824 0.45546 0.16675 0.0
C660 C 0.31257 0.41242 0.18098 0.0
C661 C 0.36622 0.3839 0.14597 0.0
H662 H 0.38746 0.34909 0.20271 0.0
C663 C 0.4563 0.3154 0.14898 0.0
C664 C 0.45441 0.29175 0.16162 0.0
C665 C 0.43659 0.33461 0.15056 0.0
C666 C 0.38146 0.3584 0.1867 0.0
H667 H 0.32577 0.47446 0.14325 0.0
H668 H 0.35819 0.43888 0.14423 0.0
H669 H 0.3543 0.38438 0.20394 0.0
H670 H 0.43048 0.26988 0.18616 0.0
H671 H 0.39572 0.30354 0.18878 0.0
H672 H 0.39324 0.3581 0.12868 0.0
C673 C 0.34029 0.43685 0.15436 0.0
C674 C 0.36252 0.37861 0.18741 0.0
C675 C 0.32176 0.45732 0.15392 0.0
C676 C 0.43248 0.2879 0.17619 0.0
C677 C 0.41266 0.30721 0.17776 0.0
C678 C 0.38505 0.36373 0.14526 0.0
C679 C 0.33576 0.41402 0.16766 0.0
C680 C 0.35499 0.39181 0.16707 0.0
C681 C 0.4144 0.33066 0.16476 0.0
C682 C 0.39319 0.351 0.16563 0.0
H683 H 0.27602 0.43088 0.19059 0.0
H684 H 0.30846 0.39501 0.19129 0.0
H685 H 0.36039 0.39325 0.12994 0.0
H686 H 0.47302 0.31914 0.13773 0.0
H687 H 0.43882 0.35267 0.14068 0.0
C688 C 0.01751 0.35083 0.29437 0.0
C689 C 0.03052 0.34267 0.3146 0.0
C690 C 0.02776 0.37153 0.28106 0.0
C691 C 0.08029 0.42403 0.28017 0.0
H692 H 0.08352 0.40613 0.21515 0.0
C693 C 0.15714 0.43447 0.20047 0.0
C694 C 0.16508 0.46102 0.20227 0.0
C695 C 0.13562 0.4251 0.21306 0.0
C696 C 0.08277 0.41147 0.23326 0.0
H697 H 0.06354 0.35089 0.33745 0.0
H698 H 0.08179 0.38611 0.31403 0.0
H699 H 0.05457 0.38121 0.24051 0.0
H700 H 0.15632 0.49875 0.21841 0.0
H701 H 0.11837 0.4823 0.24049 0.0
H702 H 0.11013 0.45296 0.27309 0.0
C703 C 0.06343 0.37706 0.30853 0.0
C704 C 0.06583 0.39742 0.24779 0.0
C705 C 0.05307 0.35659 0.32191 0.0
C706 C 0.15072 0.47815 0.21674 0.0
C707 C 0.12905 0.46873 0.2294 0.0
C708 C 0.09746 0.43794 0.26564 0.0
C709 C 0.05134 0.38433 0.2876 0.0
C710 C 0.06511 0.40283 0.2716 0.0
C711 C 0.12134 0.44203 0.22774 0.0
C712 C 0.09965 0.43107 0.24219 0.0
H713 H -0.0001 0.34069 0.28843 0.0
H714 H 0.01765 0.37695 0.26527 0.0
H715 H 0.07979 0.42914 0.29833 0.0
H716 H 0.16775 0.42069 0.18953 0.0
H717 H 0.13067 0.4043 0.21174 0.0
C718 C 0.63943 0.01912 0.29903 0.0
C719 C 0.65132 0.0361 0.3152 0.0
C720 C 0.61803 0.02785 0.28568 0.0
C721 C 0.57039 0.08443 0.27897 0.0
H722 H 0.57626 0.06722 0.21398 0.0
C723 C 0.5547 0.13936 0.18735 0.0
C724 C 0.53153 0.15381 0.19183 0.0
C725 C 0.56271 0.11917 0.20216 0.0
C726 C 0.57432 0.07229 0.23207 0.0
H727 H 0.64943 0.07515 0.33071 0.0
H728 H 0.61319 0.09061 0.30709 0.0
H729 H 0.60281 0.04321 0.24185 0.0
H730 H 0.49763 0.15728 0.21459 0.0
H731 H 0.5113 0.12141 0.24028 0.0
H732 H 0.54378 0.11516 0.26897 0.0
C733 C 0.61966 0.07034 0.30495 0.0
C734 C 0.58928 0.05817 0.24817 0.0
C735 C 0.64075 0.06153 0.31841 0.0
C736 C 0.51574 0.14666 0.21081 0.0
C737 C 0.52365 0.12618 0.22558 0.0
C738 C 0.55579 0.09887 0.26283 0.0
C739 C 0.60829 0.05382 0.2881 0.0
C740 C 0.58836 0.06482 0.27174 0.0
C741 C 0.5476 0.11261 0.22174 0.0
C742 C 0.55844 0.09372 0.23907 0.0
H743 H 0.64698 0.99929 0.29633 0.0
H744 H 0.60952 0.01442 0.27315 0.0
H745 H 0.56854 0.08958 0.29705 0.0
H746 H 0.56735 0.1443 0.17287 0.0
H747 H 0.58151 0.10965 0.19877 0.0
C748 C 0.85383 0.51607 0.20859 0.0
C749 C 0.84781 0.52762 0.18715 0.0
C750 C 0.87562 0.52484 0.22136 0.0
C751 C 0.93607 0.56737 0.21803 0.0
H752 H 0.91973 0.582 0.2822 0.0
C753 C 0.97997 0.65385 0.26942 0.0
C754 C 0.98547 0.65047 0.29302 0.0
C755 C 0.96897 0.63324 0.25656 0.0
C756 C 0.9249 0.57757 0.26446 0.0
H757 H 0.86074 0.55644 0.16176 0.0
H758 H 0.89812 0.57209 0.18412 0.0
H759 H 0.88945 0.55534 0.25936 0.0
H760 H 0.98503 0.62238 0.32136 0.0
H761 H 0.96546 0.58643 0.29886 0.0
H762 H 0.97081 0.59103 0.22295 0.0
C763 C 0.8864 0.55599 0.19103 0.0
C764 C 0.90754 0.56222 0.25133 0.0
C765 C 0.86474 0.54716 0.17825 0.0
C766 C 0.98094 0.62563 0.30322 0.0
C767 C 0.96966 0.60508 0.29039 0.0
C768 C 0.95332 0.58292 0.23113 0.0
C769 C 0.89178 0.54539 0.21298 0.0
C770 C 0.91249 0.55762 0.22776 0.0
C771 C 0.96304 0.60889 0.26706 0.0
C772 C 0.94749 0.5888 0.25428 0.0
H773 H 0.84128 0.5008 0.21583 0.0
H774 H 0.87945 0.51596 0.23805 0.0
H775 H 0.94078 0.56373 0.20006 0.0
H776 H 0.98337 0.6727 0.26103 0.0
H777 H 0.96385 0.63686 0.23867 0.0
C778 C 0.35423 0.98449 0.28638 0.0
C779 C 0.34903 0.97293 0.30799 0.0
C780 C 0.37624 0.97658 0.27344 0.0
C781 C 0.40949 0.94041 0.24343 0.0
H782 H 0.47445 0.91493 0.2713 0.0
C783 C 0.48474 0.87977 0.19109 0.0
C784 C 0.49054 0.85528 0.20145 0.0
C785 C 0.47289 0.90001 0.20393 0.0
C786 C 0.45648 0.92212 0.26326 0.0
H787 H 0.3636 0.94503 0.33347 0.0
H788 H 0.40139 0.93085 0.31082 0.0
H789 H 0.44343 0.94099 0.29433 0.0
H790 H 0.49019 0.83346 0.2337 0.0
H791 H 0.46967 0.86875 0.25606 0.0
H792 H 0.42219 0.92091 0.21257 0.0
C793 C 0.38884 0.94631 0.30391 0.0
C794 C 0.43867 0.93695 0.27644 0.0
C795 C 0.36696 0.95428 0.31686 0.0
C796 C 0.48581 0.85204 0.22519 0.0
C797 C 0.47423 0.87234 0.23805 0.0
C798 C 0.42739 0.92577 0.23022 0.0
C799 C 0.39344 0.9569 0.28182 0.0
C800 C 0.41452 0.94547 0.2669 0.0
C801 C 0.46694 0.89624 0.2274 0.0
C802 C 0.45064 0.91573 0.24021 0.0
H803 H 0.34091 0.9991 0.27916 0.0
H804 H 0.37944 0.98544 0.25665 0.0
H805 H 0.39098 0.94633 0.23555 0.0
H806 H 0.48821 0.88292 0.17284 0.0
H807 H 0.46767 0.91832 0.19534 0.0
C808 C 0.14451 0.5186 0.78953 0.0
C809 C 0.15825 0.53606 0.80414 0.0
C810 C 0.1228 0.52751 0.77667 0.0
C811 C 0.07638 0.5848 0.77059 0.0
H812 H 0.07585 0.56456 0.70605 0.0
C813 C 0.05145 0.63597 0.67906 0.0
C814 C 0.02868 0.65044 0.6849 0.0
C815 C 0.06096 0.61623 0.69366 0.0
C816 C 0.07567 0.57042 0.72404 0.0
H817 H 0.15961 0.57633 0.81712 0.0
H818 H 0.12262 0.59194 0.7944 0.0
H819 H 0.10486 0.54152 0.73281 0.0
H820 H 0.99694 0.65428 0.70989 0.0
H821 H 0.01327 0.61927 0.73527 0.0
H822 H 0.04892 0.61514 0.76152 0.0
C823 C 0.12798 0.57124 0.79317 0.0
C824 C 0.09208 0.55693 0.73949 0.0
C825 C 0.14947 0.56233 0.80606 0.0
C826 C 0.01471 0.64365 0.70503 0.0
C827 C 0.02414 0.62367 0.71962 0.0
C828 C 0.06026 0.59852 0.7551 0.0
C829 C 0.1145 0.55406 0.77811 0.0
C830 C 0.09342 0.56468 0.76277 0.0
C831 C 0.04781 0.61022 0.71441 0.0
C832 C 0.0605 0.59218 0.73146 0.0
H833 H 0.1507 0.49818 0.78781 0.0
H834 H 0.1127 0.51368 0.76543 0.0
H835 H 0.07639 0.59083 0.78854 0.0
H836 H 0.06267 0.64061 0.66364 0.0
H837 H 0.07946 0.6067 0.68918 0.0
C838 C 0.48026 0.14284 0.77652 0.0
C839 C 0.47103 0.14541 0.79931 0.0
C840 C 0.47155 0.12196 0.76259 0.0
C841 C 0.43391 0.05819 0.76377 0.0
H842 H 0.41099 0.08058 0.70295 0.0
C843 C 0.34595 0.01283 0.71501 0.0
C844 C 0.34718 0.01073 0.69083 0.0
C845 C 0.36689 0.02401 0.72735 0.0
C846 C 0.41774 0.07378 0.71968 0.0
H847 H 0.44656 0.12727 0.82573 0.0
H848 H 0.43094 0.09147 0.80143 0.0
H849 H 0.43779 0.11017 0.72632 0.0
H850 H 0.37199 0.01732 0.66078 0.0
H851 H 0.40847 0.03708 0.68239 0.0
H852 H 0.41242 0.02233 0.75747 0.0
C853 C 0.4452 0.10522 0.7943 0.0
C854 C 0.43319 0.09074 0.7331 0.0
C855 C 0.454 0.12595 0.80823 0.0
C856 C 0.37037 0.01876 0.67939 0.0
C857 C 0.39123 0.03016 0.69173 0.0
C858 C 0.41825 0.0413 0.7504 0.0
C859 C 0.45335 0.10329 0.77114 0.0
C860 C 0.44082 0.08349 0.75558 0.0
C861 C 0.38941 0.03349 0.71576 0.0
C862 C 0.40943 0.04924 0.72847 0.0
H863 H 0.49359 0.15738 0.76921 0.0
H864 H 0.47857 0.12082 0.74495 0.0
H865 H 0.43991 0.05174 0.78082 0.0
H866 H 0.32842 0.0067 0.72435 0.0
H867 H 0.36481 0.02651 0.74585 0.0
C868 C 0.95524 0.36632 0.68898 0.0
C869 C 0.97287 0.34763 0.69823 0.0
C870 C 0.94591 0.3872 0.70249 0.0
C871 C 0.93401 0.40322 0.76346 0.0
H872 H 0.91133 0.47037 0.73776 0.0
C873 C 0.87033 0.47569 0.81614 0.0
C874 C 0.84688 0.48298 0.80473 0.0
C875 C 0.8912 0.46416 0.80387 0.0
C876 C 0.91769 0.45175 0.74519 0.0
H877 H 0.99594 0.3372 0.72847 0.0
H878 H 0.98003 0.37402 0.75198 0.0
H879 H 0.93923 0.4409 0.7148 0.0
H880 H 0.8276 0.48549 0.77134 0.0
H881 H 0.864 0.46547 0.74999 0.0
H882 H 0.91195 0.41379 0.79361 0.0
C883 C 0.97292 0.37215 0.73441 0.0
C884 C 0.93358 0.43483 0.73205 0.0
C885 C 0.98214 0.35112 0.72091 0.0
C886 C 0.84534 0.47994 0.78065 0.0
C887 C 0.86628 0.46865 0.76838 0.0
C888 C 0.91832 0.42023 0.77665 0.0
C889 C 0.95415 0.39004 0.72556 0.0
C890 C 0.94121 0.40997 0.74075 0.0
C891 C 0.88914 0.45999 0.77995 0.0
C892 C 0.90933 0.44429 0.76739 0.0
H893 H 0.94774 0.36427 0.67155 0.0
H894 H 0.93123 0.40033 0.69514 0.0
H895 H 0.93917 0.38413 0.77065 0.0
H896 H 0.87219 0.47787 0.83467 0.0
H897 H 0.90869 0.45787 0.81319 0.0
C898 C 0.6452 0.984 0.72882 0.0
C899 C 0.64543 0.97778 0.70518 0.0
C900 C 0.62519 0.97428 0.74317 0.0
C901 C 0.56004 0.93884 0.74268 0.0
H902 H 0.58533 0.91108 0.80104 0.0
C903 C 0.514 0.85033 0.79099 0.0
C904 C 0.51302 0.85122 0.81524 0.0
C905 C 0.52545 0.87106 0.77853 0.0
C906 C 0.5778 0.91913 0.785 0.0
H907 H 0.62427 0.9574 0.67786 0.0
H908 H 0.59007 0.93971 0.70288 0.0
H909 H 0.61453 0.93802 0.77748 0.0
H910 H 0.52191 0.87522 0.84535 0.0
H911 H 0.54223 0.91122 0.82354 0.0
H912 H 0.52375 0.91838 0.74982 0.0
C913 C 0.60488 0.95258 0.71039 0.0
C914 C 0.59452 0.93469 0.77147 0.0
C915 C 0.62467 0.96258 0.69601 0.0
C916 C 0.52245 0.87387 0.82668 0.0
C917 C 0.53417 0.89445 0.81424 0.0
C918 C 0.54341 0.92296 0.75611 0.0
C919 C 0.60517 0.95783 0.73425 0.0
C920 C 0.58608 0.9443 0.74989 0.0
C921 C 0.53635 0.89294 0.79009 0.0
C922 C 0.55234 0.91255 0.7772 0.0
H923 H 0.66077 0.99595 0.73634 0.0
H924 H 0.62575 0.97922 0.76136 0.0
H925 H 0.55266 0.94634 0.72639 0.0
H926 H 0.50677 0.83321 0.78167 0.0
H927 H 0.52703 0.86928 0.75994 0.0
C928 C 0.9866 0.27652 0.41765 0.0
C929 C 0.01184 0.27308 0.4079 0.0
C930 C 0.98356 0.27858 0.44158 0.0
C931 C 0.01787 0.26239 0.49617 0.0
H932 H 0.9661 0.30991 0.52314 0.0
C933 C 0.01044 0.27902 0.59437 0.0
C934 C 0.98485 0.2779 0.60384 0.0
C935 C 0.01402 0.28013 0.57047 0.0
C936 C 0.98052 0.29644 0.51582 0.0
H937 H 0.05374 0.26983 0.41556 0.0
H938 H 0.04849 0.27396 0.45717 0.0
H939 H 0.9719 0.30881 0.48128 0.0
H940 H 0.94294 0.27775 0.59568 0.0
H941 H 0.94925 0.27973 0.55395 0.0
H942 H 0.02653 0.2501 0.5307 0.0
C943 C 0.03097 0.27446 0.44641 0.0
C944 C 0.98381 0.29575 0.49186 0.0
C945 C 0.034 0.27223 0.42253 0.0
C946 C 0.96292 0.27854 0.58893 0.0
C947 C 0.96651 0.27983 0.56503 0.0
C948 C 0.01468 0.2632 0.5201 0.0
C949 C 0.0057 0.27741 0.45625 0.0
C950 C 0.00247 0.27863 0.48174 0.0
C951 C 0.9921 0.28032 0.55555 0.0
C952 C 0.99592 0.28015 0.53017 0.0
H953 H 0.96913 0.27717 0.40684 0.0
H954 H 0.96378 0.2805 0.44859 0.0
H955 H 0.03205 0.2486 0.48896 0.0
H956 H 0.02776 0.27862 0.60539 0.0
H957 H 0.03398 0.2808 0.56365 0.0
C958 C 0.70897 0.01452 0.59839 0.0
C959 C 0.70809 0.98885 0.6077 0.0
C960 C 0.70769 0.01838 0.57453 0.0
C961 C 0.68877 0.98631 0.5196 0.0
H962 H 0.74009 0.03462 0.4931 0.0
C963 C 0.71106 0.99068 0.42167 0.0
C964 C 0.71587 0.01569 0.41192 0.0
C965 C 0.70827 0.98787 0.44557 0.0
C966 C 0.72536 0.02135 0.50022 0.0
H967 H 0.70438 0.94716 0.59929 0.0
H968 H 0.70226 0.95393 0.55766 0.0
H969 H 0.7379 0.02919 0.53481 0.0
H970 H 0.72083 0.05746 0.41955 0.0
H971 H 0.71557 0.0526 0.46109 0.0
H972 H 0.67633 0.9784 0.48493 0.0
C973 C 0.70378 0.97106 0.56882 0.0
C974 C 0.72411 0.01824 0.52414 0.0
C975 C 0.70514 0.96719 0.59268 0.0
C976 C 0.71735 0.03787 0.42651 0.0
C977 C 0.71447 0.03507 0.45035 0.0
C978 C 0.68996 0.98949 0.49564 0.0
C979 C 0.70542 0.99667 0.55948 0.0
C980 C 0.70589 0.00062 0.53409 0.0
C981 C 0.71015 0.01002 0.4602 0.0
C982 C 0.70835 0.00698 0.48567 0.0
H983 H 0.71113 0.03164 0.60949 0.0
H984 H 0.70865 0.03838 0.56785 0.0
H985 H 0.67433 0.9728 0.5268 0.0
H986 H 0.70986 0.9732 0.4109 0.0
H987 H 0.70526 0.96825 0.45261 0.0
C988 C 0.03738 0.7148 0.5715 0.0
C989 C 0.0152 0.71184 0.5859 0.0
C990 C 0.03503 0.71179 0.54763 0.0
C991 C 0.99151 0.68519 0.50166 0.0
H992 H 0.02685 0.73772 0.46382 0.0
C993 C 0.96697 0.70265 0.40526 0.0
C994 C 0.98808 0.70851 0.3903 0.0
C995 C 0.97124 0.70034 0.42902 0.0
C996 C 0.01717 0.72265 0.4741 0.0
H997 H 0.97324 0.70274 0.58657 0.0
H998 H 0.96907 0.69785 0.54484 0.0
H999 H 0.03257 0.7386 0.50551 0.0
H1000 H 0.0304 0.71554 0.38845 0.0
H1001 H 0.03783 0.71131 0.42984 0.0
H1002 H 0.97577 0.66955 0.47013 0.0
C1003 C 0.98836 0.70219 0.55204 0.0
C1004 C 0.02046 0.72314 0.49801 0.0
C1005 C 0.99073 0.70514 0.57595 0.0
C1006 C 0.01367 0.71121 0.39951 0.0
C1007 C 0.01792 0.70891 0.42325 0.0
C1008 C 0.98819 0.68471 0.47769 0.0
C1009 C 0.01043 0.70582 0.53759 0.0
C1010 C 0.00759 0.7045 0.51209 0.0
C1011 C 0.9967 0.70386 0.4383 0.0
C1012 C 0.00091 0.70352 0.46366 0.0
H1013 H 0.05657 0.71976 0.57863 0.0
H1014 H 0.0525 0.71427 0.537 0.0
H1015 H 0.98159 0.67035 0.51201 0.0
H1016 H 0.94703 0.70043 0.39871 0.0
H1017 H 0.95444 0.69666 0.44019 0.0
C1018 C 0.28307 0.03072 0.58267 0.0
C1019 C 0.27975 0.00884 0.59737 0.0
C1020 C 0.28439 0.02725 0.55875 0.0
C1021 C 0.26446 0.98064 0.51316 0.0
H1022 H 0.31345 0.02054 0.47514 0.0
C1023 C 0.2753 0.96057 0.4158 0.0
C1024 C 0.27706 0.9827 0.40119 0.0
C1025 C 0.27712 0.96352 0.43972 0.0
C1026 C 0.29949 0.00944 0.48551 0.0
H1027 H 0.27586 0.96608 0.59852 0.0
H1028 H 0.27836 0.96005 0.55683 0.0
H1029 H 0.31415 0.02608 0.51703 0.0
H1030 H 0.28246 0.02528 0.40024 0.0
H1031 H 0.28531 0.03047 0.44205 0.0
H1032 H 0.24959 0.96418 0.48173 0.0
C1033 C 0.27957 0.97992 0.56377 0.0
C1034 C 0.2999 0.0126 0.50949 0.0
C1035 C 0.27829 0.98338 0.58768 0.0
C1036 C 0.28106 0.00782 0.41102 0.0
C1037 C 0.28285 0.01078 0.43497 0.0
C1038 C 0.26402 0.97751 0.48921 0.0
C1039 C 0.28237 0.00183 0.54903 0.0
C1040 C 0.28238 0.99824 0.52358 0.0
C1041 C 0.28069 0.98868 0.4496 0.0
C1042 C 0.28151 0.99187 0.4751 0.0
H1043 H 0.28426 0.0506 0.58959 0.0
H1044 H 0.2863 0.04455 0.54784 0.0
H1045 H 0.25037 0.96964 0.52349 0.0
H1046 H 0.27238 0.9409 0.40879 0.0
H1047 H 0.2758 0.94604 0.45048 0.0
C1048 C 0.53653 0.78624 0.92232 0.0
C1049 C 0.5138 0.7854 0.90837 0.0
C1050 C 0.53431 0.78943 0.9462 0.0
C1051 C 0.48913 0.81228 0.99213 0.0
H1052 H 0.53093 0.76602 0.03114 0.0
C1053 C 0.46927 0.79967 0.08984 0.0
C1054 C 0.49111 0.796 0.10451 0.0
C1055 C 0.47269 0.80065 0.0659 0.0
C1056 C 0.51942 0.77941 0.02054 0.0
H1057 H 0.47092 0.78775 0.9085 0.0
H1058 H 0.46709 0.79326 0.95022 0.0
H1059 H 0.53574 0.76356 0.98938 0.0
H1060 H 0.5338 0.79152 0.10561 0.0
H1061 H 0.5398 0.79373 0.06392 0.0
H1062 H 0.47275 0.82809 0.02332 0.0
C1063 C 0.48662 0.79161 0.94265 0.0
C1064 C 0.52216 0.77795 0.99659 0.0
C1065 C 0.48882 0.78828 0.91877 0.0
C1066 C 0.51652 0.79415 0.09477 0.0
C1067 C 0.51995 0.79526 0.07086 0.0
C1068 C 0.48647 0.81383 0.01613 0.0
C1069 C 0.50933 0.79199 0.95665 0.0
C1070 C 0.50695 0.79426 0.98211 0.0
C1071 C 0.49803 0.79809 0.05611 0.0
C1072 C 0.50149 0.79731 0.03062 0.0
H1073 H 0.55607 0.78416 0.91485 0.0
H1074 H 0.55219 0.78996 0.95651 0.0
H1075 H 0.47738 0.82533 0.98141 0.0
H1076 H 0.44942 0.80109 0.09679 0.0
H1077 H 0.45534 0.80256 0.05506 0.0
C1078 C 0.21062 0.47769 0.91278 0.0
C1079 C 0.21108 0.5038 0.9044 0.0
C1080 C 0.20749 0.47277 0.93637 0.0
C1081 C 0.18499 0.50285 0.99105 0.0
H1082 H 0.2358 0.45534 0.01929 0.0
C1083 C 0.20689 0.50331 0.08859 0.0
C1084 C 0.21332 0.47932 0.09949 0.0
C1085 C 0.20309 0.50428 0.06473 0.0
C1086 C 0.22111 0.46827 0.01168 0.0
H1087 H 0.20776 0.54516 0.91409 0.0
H1088 H 0.20228 0.53654 0.9552 0.0
H1089 H 0.2352 0.46049 0.9775 0.0
H1090 H 0.2197 0.43732 0.09404 0.0
H1091 H 0.21257 0.43893 0.05244 0.0
H1092 H 0.17106 0.51086 0.02524 0.0
C1093 C 0.20424 0.51989 0.94353 0.0
C1094 C 0.22081 0.47124 0.98772 0.0
C1095 C 0.20758 0.52482 0.92 0.0
C1096 C 0.21499 0.45616 0.08613 0.0
C1097 C 0.21103 0.45711 0.06227 0.0
C1098 C 0.18517 0.49976 0.01502 0.0
C1099 C 0.2045 0.49384 0.952 0.0
C1100 C 0.20306 0.48889 0.97719 0.0
C1101 C 0.20546 0.48126 0.05123 0.0
C1102 C 0.20354 0.48278 0.02566 0.0
H1103 H 0.21321 0.46106 0.90118 0.0
H1104 H 0.20755 0.45248 0.94242 0.0
H1105 H 0.17084 0.51632 0.98336 0.0
H1106 H 0.20553 0.52153 0.09838 0.0
H1107 H 0.19919 0.52329 0.05678 0.0
C1108 C 0.49361 0.20899 0.08146 0.0
C1109 C 0.51892 0.21257 0.09102 0.0
C1110 C 0.49046 0.20596 0.05764 0.0
C1111 C 0.52429 0.22096 0.00275 0.0
H1112 H 0.47084 0.1747 0.97669 0.0
C1113 C 0.51143 0.20837 0.90446 0.0
C1114 C 0.48531 0.21011 0.89626 0.0
C1115 C 0.51645 0.20597 0.92809 0.0
C1116 C 0.48577 0.18778 0.98375 0.0
H1117 H 0.56084 0.2148 0.08317 0.0
H1118 H 0.55537 0.20904 0.04169 0.0
H1119 H 0.47813 0.17508 0.01838 0.0
H1120 H 0.44396 0.20996 0.9064 0.0
H1121 H 0.45276 0.20584 0.94761 0.0
H1122 H 0.53181 0.23379 0.96817 0.0
C1123 C 0.53791 0.20914 0.05253 0.0
C1124 C 0.48991 0.18804 0.00761 0.0
C1125 C 0.54105 0.2123 0.07633 0.0
C1126 C 0.46432 0.20872 0.91214 0.0
C1127 C 0.46934 0.20619 0.93575 0.0
C1128 C 0.52023 0.2206 0.97892 0.0
C1129 C 0.51255 0.2063 0.04286 0.0
C1130 C 0.50906 0.20483 0.01742 0.0
C1131 C 0.49546 0.2051 0.944 0.0
C1132 C 0.50075 0.20421 0.96918 0.0
H1133 H 0.47614 0.20916 0.09231 0.0
H1134 H 0.47062 0.20415 0.05076 0.0
H1135 H 0.53888 0.23447 0.00974 0.0
H1136 H 0.52805 0.2093 0.89267 0.0
H1137 H 0.53679 0.20489 0.93393 0.0
C1138 C 0.77806 0.51138 0.90791 0.0
C1139 C 0.77971 0.48592 0.89822 0.0
C1140 C 0.7792 0.51485 0.9318 0.0
C1141 C 0.79951 0.48259 0.98619 0.0
H1142 H 0.7484 0.53052 0.01356 0.0
C1143 C 0.78075 0.48851 0.0847 0.0
C1144 C 0.77627 0.51372 0.09421 0.0
C1145 C 0.78254 0.48518 0.06078 0.0
C1146 C 0.76305 0.51734 0.00619 0.0
H1147 H 0.78449 0.44419 0.90601 0.0
H1148 H 0.78632 0.45028 0.94779 0.0
H1149 H 0.74938 0.5247 0.97185 0.0
H1150 H 0.77081 0.55529 0.08608 0.0
H1151 H 0.77429 0.54952 0.04447 0.0
H1152 H 0.81312 0.47521 0.02061 0.0
C1153 C 0.78433 0.46755 0.93686 0.0
C1154 C 0.7636 0.514 0.98227 0.0
C1155 C 0.78314 0.46406 0.91293 0.0
C1156 C 0.77408 0.53557 0.07932 0.0
C1157 C 0.77594 0.53225 0.05545 0.0
C1158 C 0.799 0.48598 0.01015 0.0
C1159 C 0.78206 0.49296 0.94656 0.0
C1160 C 0.78183 0.4966 0.97199 0.0
C1161 C 0.77994 0.50699 0.04587 0.0
C1162 C 0.78076 0.50341 0.02042 0.0
H1163 H 0.77556 0.52866 0.89706 0.0
H1164 H 0.7778 0.53471 0.93874 0.0
H1165 H 0.81398 0.46926 0.97875 0.0
H1166 H 0.78248 0.47127 0.0957 0.0
H1167 H 0.78536 0.46542 0.05395 0.0
loop_
_geom_bond_atom_site_label_1
_geom_bond_atom_site_label_2
_geom_bond_distance
_geom_bond_site_symmetry_2
_ccdc_geom_bond_type
C0 O1 1.160 . S
C0 O7 1.185 . S
O1 C0 1.160 . S
O2 Zn3 1.899 . S
O2 C10 1.284 . S
Zn3 O2 1.899 . S
Zn3 O4 2.032 . S
Zn3 O7 2.086 . S
Zn3 O12 1.977 1_455 S
O4 Zn3 2.032 . S
O4 C8 1.278 . S
C5 O6 1.203 . S
C5 O12 1.267 . S
O6 C5 1.203 . S
O7 C0 1.185 . S
O7 Zn3 2.086 . S
C8 O4 1.278 . S
C8 O9 1.211 . S
O9 C8 1.211 . S
C10 O2 1.284 . S
C10 O11 1.273 . S
O11 C10 1.273 . S
O12 Zn3 1.977 1_655 S
O12 C5 1.267 . S
C13 O14 1.160 . S
C13 O20 1.185 . S
O14 C13 1.160 . S
O15 Zn16 1.899 . S
O15 C23 1.284 . S
Zn16 O15 1.899 . S
Zn16 O17 2.032 . S
Zn16 O20 2.086 . S
Zn16 O25 1.977 1_545 S
O17 Zn16 2.032 . S
O17 C21 1.278 . S
C18 O19 1.203 . S
C18 O25 1.267 . S
O19 C18 1.203 . S
O20 C13 1.185 . S
O20 Zn16 2.086 . S
C21 O17 1.278 . S
C21 O22 1.211 . S
O22 C21 1.211 . S
C23 O15 1.284 . S
C23 O24 1.273 . S
O24 C23 1.273 . S
O25 Zn16 1.977 1_565 S
O25 C18 1.267 . S
C26 O27 1.160 . S
C26 O33 1.185 . S
O27 C26 1.160 . S
O28 Zn29 1.899 . S
O28 C36 1.284 . S
Zn29 O28 1.899 . S
Zn29 O30 2.032 . S
Zn29 O33 2.086 . S
Zn29 O38 1.977 1_655 S
O30 Zn29 2.032 . S
O30 C34 1.278 . S
C31 O32 1.203 . S
C31 O38 1.267 . S
O32 C31 1.203 . S
O33 C26 1.185 . S
O33 Zn29 2.086 . S
C34 O30 1.278 . S
C34 O35 1.211 . S
O35 C34 1.211 . S
C36 O28 1.284 . S
C36 O37 1.273 . S
O37 C36 1.273 . S
O38 Zn29 1.977 1_455 S
O38 C31 1.267 . S
C39 O40 1.160 . S
C39 O46 1.185 . S
O40 C39 1.160 . S
O41 Zn42 1.899 . S
O41 C49 1.284 . S
Zn42 O41 1.899 . S
Zn42 O43 2.032 . S
Zn42 O46 2.086 . S
Zn42 O51 1.977 1_565 S
O43 Zn42 2.032 . S
O43 C47 1.278 . S
C44 O45 1.203 . S
C44 O51 1.267 . S
O45 C44 1.203 . S
O46 C39 1.185 . S
O46 Zn42 2.086 . S
C47 O43 1.278 . S
C47 O48 1.211 . S
O48 C47 1.211 . S
C49 O41 1.284 . S
C49 O50 1.273 . S
O50 C49 1.273 . S
O51 Zn42 1.977 1_545 S
O51 C44 1.267 . S
C52 O53 1.160 . S
C52 O59 1.185 . S
O53 C52 1.160 . S
O54 Zn55 1.899 . S
O54 C62 1.284 . S
Zn55 O54 1.899 . S
Zn55 O56 2.032 . S
Zn55 O59 2.086 . S
Zn55 O64 1.977 1_455 S
O56 Zn55 2.032 . S
O56 C60 1.278 . S
C57 O58 1.203 . S
C57 O64 1.267 . S
O58 C57 1.203 . S
O59 C52 1.185 . S
O59 Zn55 2.086 . S
C60 O56 1.278 . S
C60 O61 1.211 . S
O61 C60 1.211 . S
C62 O54 1.284 . S
C62 O63 1.273 . S
O63 C62 1.273 . S
O64 Zn55 1.977 1_655 S
O64 C57 1.267 . S
C65 O66 1.160 . S
C65 O72 1.185 . S
O66 C65 1.160 . S
O67 Zn68 1.899 . S
O67 C75 1.284 . S
Zn68 O67 1.899 . S
Zn68 O69 2.032 . S
Zn68 O72 2.086 . S
Zn68 O77 1.977 1_545 S
O69 Zn68 2.032 . S
O69 C73 1.278 . S
C70 O71 1.203 . S
C70 O77 1.267 . S
O71 C70 1.203 . S
O72 C65 1.185 . S
O72 Zn68 2.086 . S
C73 O69 1.278 . S
C73 O74 1.211 . S
O74 C73 1.211 . S
C75 O67 1.284 . S
C75 O76 1.273 . S
O76 C75 1.273 . S
O77 Zn68 1.977 1_565 S
O77 C70 1.267 . S
C78 O79 1.160 . S
C78 O85 1.185 . S
O79 C78 1.160 . S
O80 Zn81 1.899 . S
O80 C88 1.284 . S
Zn81 O80 1.899 . S
Zn81 O82 2.032 . S
Zn81 O85 2.086 . S
Zn81 O90 1.977 1_655 S
O82 Zn81 2.032 . S
O82 C86 1.278 . S
C83 O84 1.203 . S
C83 O90 1.267 . S
O84 C83 1.203 . S
O85 C78 1.185 . S
O85 Zn81 2.086 . S
C86 O82 1.278 . S
C86 O87 1.211 . S
O87 C86 1.211 . S
C88 O80 1.284 . S
C88 O89 1.273 . S
O89 C88 1.273 . S
O90 Zn81 1.977 1_455 S
O90 C83 1.267 . S
C91 O92 1.160 . S
C91 O98 1.185 . S
O92 C91 1.160 . S
O93 Zn94 1.899 . S
O93 C101 1.284 . S
Zn94 O93 1.899 . S
Zn94 O95 2.032 . S
Zn94 O98 2.086 . S
Zn94 O103 1.977 1_565 S
O95 Zn94 2.032 . S
O95 C99 1.278 . S
C96 O97 1.203 . S
C96 O103 1.267 . S
O97 C96 1.203 . S
O98 C91 1.185 . S
O98 Zn94 2.086 . S
C99 O95 1.278 . S
C99 O100 1.211 . S
O100 C99 1.211 . S
C101 O93 1.284 . S
C101 O102 1.273 . S
O102 C101 1.273 . S
O103 Zn94 1.977 1_545 S
O103 C96 1.267 . S
C104 O105 1.160 . S
C104 O111 1.185 . S
O105 C104 1.160 . S
O106 Zn107 1.899 . S
O106 C114 1.284 . S
Zn107 O106 1.899 . S
Zn107 O108 2.032 . S
Zn107 O111 2.086 . S
Zn107 O116 1.977 . S
O108 Zn107 2.032 . S
O108 C112 1.278 . S
C109 O110 1.203 . S
C109 O116 1.267 . S
O110 C109 1.203 . S
O111 C104 1.185 . S
O111 Zn107 2.086 . S
C112 O108 1.278 . S
C112 O113 1.211 . S
O113 C112 1.211 . S
C114 O106 1.284 . S
C114 O115 1.273 . S
O115 C114 1.273 . S
O116 Zn107 1.977 . S
O116 C109 1.267 . S
C117 O118 1.160 . S
C117 O124 1.185 . S
O118 C117 1.160 . S
O119 Zn120 1.899 . S
O119 C127 1.284 . S
Zn120 O119 1.899 . S
Zn120 O121 2.032 . S
Zn120 O124 2.086 . S
Zn120 O129 1.977 . S
O121 Zn120 2.032 . S
O121 C125 1.278 . S
C122 O123 1.203 . S
C122 O129 1.267 . S
O123 C122 1.203 . S
O124 C117 1.185 . S
O124 Zn120 2.086 . S
C125 O121 1.278 . S
C125 O126 1.211 . S
O126 C125 1.211 . S
C127 O119 1.284 . S
C127 O128 1.273 . S
O128 C127 1.273 . S
O129 Zn120 1.977 . S
O129 C122 1.267 . S
C130 O131 1.160 . S
C130 O137 1.185 . S
O131 C130 1.160 . S
O132 Zn133 1.899 . S
O132 C140 1.284 . S
Zn133 O132 1.899 . S
Zn133 O134 2.032 . S
Zn133 O137 2.086 . S
Zn133 O142 1.977 . S
O134 Zn133 2.032 . S
O134 C138 1.278 . S
C135 O136 1.203 . S
C135 O142 1.267 . S
O136 C135 1.203 . S
O137 C130 1.185 . S
O137 Zn133 2.086 . S
C138 O134 1.278 . S
C138 O139 1.211 . S
O139 C138 1.211 . S
C140 O132 1.284 . S
C140 O141 1.273 . S
O141 C140 1.273 . S
O142 Zn133 1.977 . S
O142 C135 1.267 . S
C143 O144 1.160 . S
C143 O150 1.185 . S
O144 C143 1.160 . S
O145 Zn146 1.899 . S
O145 C153 1.284 . S
Zn146 O145 1.899 . S
Zn146 O147 2.032 . S
Zn146 O150 2.086 . S
Zn146 O155 1.977 . S
O147 Zn146 2.032 . S
O147 C151 1.278 . S
C148 O149 1.203 . S
C148 O155 1.267 . S
O149 C148 1.203 . S
O150 C143 1.185 . S
O150 Zn146 2.086 . S
C151 O147 1.278 . S
C151 O152 1.211 . S
O152 C151 1.211 . S
C153 O145 1.284 . S
C153 O154 1.273 . S
O154 C153 1.273 . S
O155 Zn146 1.977 . S
O155 C148 1.267 . S
C156 O157 1.160 . S
C156 O163 1.185 . S
O157 C156 1.160 . S
O158 Zn159 1.899 . S
O158 C166 1.284 . S
Zn159 O158 1.899 . S
Zn159 O160 2.032 . S
Zn159 O163 2.086 . S
Zn159 O168 1.977 . S
O160 Zn159 2.032 . S
O160 C164 1.278 . S
C161 O162 1.203 . S
C161 O168 1.267 . S
O162 C161 1.203 . S
O163 C156 1.185 . S
O163 Zn159 2.086 . S
C164 O160 1.278 . S
C164 O165 1.211 . S
O165 C164 1.211 . S
C166 O158 1.284 . S
C166 O167 1.273 . S
O167 C166 1.273 . S
O168 Zn159 1.977 . S
O168 C161 1.267 . S
C169 O170 1.160 . S
C169 O176 1.185 . S
O170 C169 1.160 . S
O171 Zn172 1.899 . S
O171 C179 1.284 . S
Zn172 O171 1.899 . S
Zn172 O173 2.032 . S
Zn172 O176 2.086 . S
Zn172 O181 1.977 . S
O173 Zn172 2.032 . S
O173 C177 1.278 . S
C174 O175 1.203 . S
C174 O181 1.267 . S
O175 C174 1.203 . S
O176 C169 1.185 . S
O176 Zn172 2.086 . S
C177 O173 1.278 . S
C177 O178 1.211 . S
O178 C177 1.211 . S
C179 O171 1.284 . S
C179 O180 1.273 . S
O180 C179 1.273 . S
O181 Zn172 1.977 . S
O181 C174 1.267 . S
C182 O183 1.160 . S
C182 O189 1.185 . S
O183 C182 1.160 . S
O184 Zn185 1.899 . S
O184 C192 1.284 . S
Zn185 O184 1.899 . S
Zn185 O186 2.032 . S
Zn185 O189 2.086 . S
Zn185 O194 1.977 . S
O186 Zn185 2.032 . S
O186 C190 1.278 . S
C187 O188 1.203 . S
C187 O194 1.267 . S
O188 C187 1.203 . S
O189 C182 1.185 . S
O189 Zn185 2.086 . S
C190 O186 1.278 . S
C190 O191 1.211 . S
O191 C190 1.211 . S
C192 O184 1.284 . S
C192 O193 1.273 . S
O193 C192 1.273 . S
O194 Zn185 1.977 . S
O194 C187 1.267 . S
C195 O196 1.160 . S
C195 O202 1.185 . S
O196 C195 1.160 . S
O197 Zn198 1.899 . S
O197 C205 1.284 . S
Zn198 O197 1.899 . S
Zn198 O199 2.032 . S
Zn198 O202 2.086 . S
Zn198 O207 1.977 . S
O199 Zn198 2.032 . S
O199 C203 1.278 . S
C200 O201 1.203 . S
C200 O207 1.267 . S
O201 C200 1.203 . S
O202 C195 1.185 . S
O202 Zn198 2.086 . S
C203 O199 1.278 . S
C203 O204 1.211 . S
O204 C203 1.211 . S
C205 O197 1.284 . S
C205 O206 1.273 . S
O206 C205 1.273 . S
O207 Zn198 1.977 . S
O207 C200 1.267 . S
C208 C209 1.349 . S
C208 C210 1.327 . S
C208 H233 0.950 . S
C209 C208 1.349 . S
C209 C225 1.349 . S
C210 C208 1.327 . S
C210 C229 1.429 . S
C210 H234 0.950 . S
C211 C228 1.574 . S
C211 C230 1.368 . S
C211 H235 0.949 . S
H212 C216 0.949 . S
C213 C214 1.349 . S
C213 C215 1.327 . S
C213 H236 0.950 . S
C214 C213 1.349 . S
C214 C226 1.349 . S
C215 C213 1.327 . S
C215 C231 1.429 . S
C215 H237 0.950 . S
C216 H212 0.949 . S
C216 C224 1.574 . S
C216 C232 1.368 . S
H217 C225 0.950 . S
H218 C223 0.950 . S
H219 C224 0.949 . S
H220 C226 0.950 . S
H221 C227 0.950 . S
H222 C228 0.949 . S
C223 H218 0.950 . S
C223 C225 1.327 . S
C223 C229 1.429 . S
C224 C216 1.574 . S
C224 H219 0.949 . S
C224 C230 1.368 . S
C225 C209 1.349 . S
C225 H217 0.950 . S
C225 C223 1.327 . S
C226 C214 1.349 . S
C226 H220 0.950 . S
C226 C227 1.327 . S
C227 H221 0.950 . S
C227 C226 1.327 . S
C227 C231 1.429 . S
C228 C211 1.574 . S
C228 H222 0.949 . S
C228 C232 1.368 . S
C229 C210 1.429 . S
C229 C223 1.429 . S
C229 C230 1.523 . S
C230 C211 1.368 . S
C230 C224 1.368 . S
C230 C229 1.523 . S
C231 C215 1.429 . S
C231 C227 1.429 . S
C231 C232 1.523 . S
C232 C216 1.368 . S
C232 C228 1.368 . S
C232 C231 1.523 . S
H233 C208 0.950 . S
H234 C210 0.950 . S
H235 C211 0.949 . S
H236 C213 0.950 . S
H237 C215 0.950 . S
C238 C239 1.349 . S
C238 C240 1.327 . S
C238 H263 0.950 . S
C239 C238 1.349 . S
C239 C255 1.349 . S
C240 C238 1.327 . S
C240 C259 1.429 . S
C240 H264 0.950 . S
C241 C258 1.574 . S
C241 C260 1.368 . S
C241 H265 0.949 . S
H242 C246 0.949 . S
C243 C244 1.349 . S
C243 C245 1.327 . S
C243 H266 0.950 . S
C244 C243 1.349 . S
C244 C256 1.349 . S
C245 C243 1.327 . S
C245 C261 1.429 . S
C245 H267 0.950 . S
C246 H242 0.949 . S
C246 C254 1.574 . S
C246 C262 1.368 . S
H247 C255 0.950 . S
H248 C253 0.950 . S
H249 C254 0.949 . S
H250 C256 0.950 . S
H251 C257 0.950 . S
H252 C258 0.949 . S
C253 H248 0.950 . S
C253 C255 1.327 . S
C253 C259 1.429 . S
C254 C246 1.574 . S
C254 H249 0.949 . S
C254 C260 1.368 . S
C255 C239 1.349 . S
C255 H247 0.950 . S
C255 C253 1.327 . S
C256 C244 1.349 . S
C256 H250 0.950 . S
C256 C257 1.327 . S
C257 H251 0.950 . S
C257 C256 1.327 . S
C257 C261 1.429 . S
C258 C241 1.574 . S
C258 H252 0.949 . S
C258 C262 1.368 . S
C259 C240 1.429 . S
C259 C253 1.429 . S
C259 C260 1.523 . S
C260 C241 1.368 . S
C260 C254 1.368 . S
C260 C259 1.523 . S
C261 C245 1.429 . S
C261 C257 1.429 . S
C261 C262 1.523 . S
C262 C246 1.368 . S
C262 C258 1.368 . S
C262 C261 1.523 . S
H263 C238 0.950 . S
H264 C240 0.950 . S
H265 C241 0.949 . S
H266 C243 0.950 . S
H267 C245 0.950 . S
C268 C269 1.349 . S
C268 C270 1.327 . S
C268 H293 0.950 . S
C269 C268 1.349 . S
C269 C285 1.349 . S
C270 C268 1.327 . S
C270 C289 1.429 . S
C270 H294 0.950 . S
C271 C288 1.574 . S
C271 C290 1.368 . S
C271 H295 0.949 . S
H272 C276 0.949 . S
C273 C274 1.349 . S
C273 C275 1.327 . S
C273 H296 0.950 . S
C274 C273 1.349 . S
C274 C286 1.349 . S
C275 C273 1.327 . S
C275 C291 1.429 . S
C275 H297 0.950 . S
C276 H272 0.949 . S
C276 C284 1.574 . S
C276 C292 1.368 . S
H277 C285 0.950 . S
H278 C283 0.950 . S
H279 C284 0.949 . S
H280 C286 0.950 . S
H281 C287 0.950 . S
H282 C288 0.949 . S
C283 H278 0.950 . S
C283 C285 1.327 . S
C283 C289 1.429 . S
C284 C276 1.574 . S
C284 H279 0.949 . S
C284 C290 1.368 . S
C285 C269 1.349 . S
C285 H277 0.950 . S
C285 C283 1.327 . S
C286 C274 1.349 . S
C286 H280 0.950 . S
C286 C287 1.327 . S
C287 H281 0.950 . S
C287 C286 1.327 . S
C287 C291 1.429 . S
C288 C271 1.574 . S
C288 H282 0.949 . S
C288 C292 1.368 . S
C289 C270 1.429 . S
C289 C283 1.429 . S
C289 C290 1.523 . S
C290 C271 1.368 . S
C290 C284 1.368 . S
C290 C289 1.523 . S
C291 C275 1.429 . S
C291 C287 1.429 . S
C291 C292 1.523 . S
C292 C276 1.368 . S
C292 C288 1.368 . S
C292 C291 1.523 . S
H293 C268 0.950 . S
H294 C270 0.950 . S
H295 C271 0.949 . S
H296 C273 0.950 . S
H297 C275 0.950 . S
C298 C299 1.349 . S
C298 C300 1.327 . S
C298 H323 0.950 . S
C299 C298 1.349 . S
C299 C315 1.349 . S
C300 C298 1.327 . S
C300 C319 1.429 . S
C300 H324 0.950 . S
C301 C318 1.574 . S
C301 C320 1.368 . S
C301 H325 0.949 . S
H302 C306 0.949 . S
C303 C304 1.349 . S
C303 C305 1.327 . S
C303 H326 0.950 . S
C304 C303 1.349 . S
C304 C316 1.349 . S
C305 C303 1.327 . S
C305 C321 1.429 . S
C305 H327 0.950 . S
C306 H302 0.949 . S
C306 C314 1.574 . S
C306 C322 1.368 . S
H307 C315 0.950 . S
H308 C313 0.950 . S
H309 C314 0.949 . S
H310 C316 0.950 . S
H311 C317 0.950 . S
H312 C318 0.949 . S
C313 H308 0.950 . S
C313 C315 1.327 . S
C313 C319 1.429 . S
C314 C306 1.574 . S
C314 H309 0.949 . S
C314 C320 1.368 . S
C315 C299 1.349 . S
C315 H307 0.950 . S
C315 C313 1.327 . S
C316 C304 1.349 . S
C316 H310 0.950 . S
C316 C317 1.327 . S
C317 H311 0.950 . S
C317 C316 1.327 . S
C317 C321 1.429 . S
C318 C301 1.574 . S
C318 H312 0.949 . S
C318 C322 1.368 . S
C319 C300 1.429 . S
C319 C313 1.429 . S
C319 C320 1.523 . S
C320 C301 1.368 . S
C320 C314 1.368 . S
C320 C319 1.523 . S
C321 C305 1.429 . S
C321 C317 1.429 . S
C321 C322 1.523 . S
C322 C306 1.368 . S
C322 C318 1.368 . S
C322 C321 1.523 . S
H323 C298 0.950 . S
H324 C300 0.950 . S
H325 C301 0.949 . S
H326 C303 0.950 . S
H327 C305 0.950 . S
C328 C329 1.349 . S
C328 C330 1.327 . S
C328 H353 0.950 . S
C329 C328 1.349 . S
C329 C345 1.349 . S
C330 C328 1.327 . S
C330 C349 1.429 . S
C330 H354 0.950 . S
C331 C348 1.574 . S
C331 C350 1.368 . S
C331 H355 0.949 . S
H332 C336 0.949 . S
C333 C334 1.349 . S
C333 C335 1.327 . S
C333 H356 0.950 . S
C334 C333 1.349 . S
C334 C346 1.349 . S
C335 C333 1.327 . S
C335 C351 1.429 . S
C335 H357 0.950 . S
C336 H332 0.949 . S
C336 C344 1.574 . S
C336 C352 1.368 . S
H337 C345 0.950 . S
H338 C343 0.950 . S
H339 C344 0.949 . S
H340 C346 0.950 . S
H341 C347 0.950 . S
H342 C348 0.949 . S
C343 H338 0.950 . S
C343 C345 1.327 . S
C343 C349 1.429 . S
C344 C336 1.574 . S
C344 H339 0.949 . S
C344 C350 1.368 . S
C345 C329 1.349 . S
C345 H337 0.950 . S
C345 C343 1.327 . S
C346 C334 1.349 . S
C346 H340 0.950 . S
C346 C347 1.327 . S
C347 H341 0.950 . S
C347 C346 1.327 . S
C347 C351 1.429 . S
C348 C331 1.574 . S
C348 H342 0.949 . S
C348 C352 1.368 . S
C349 C330 1.429 . S
C349 C343 1.429 . S
C349 C350 1.523 . S
C350 C331 1.368 . S
C350 C344 1.368 . S
C350 C349 1.523 . S
C351 C335 1.429 . S
C351 C347 1.429 . S
C351 C352 1.523 . S
C352 C336 1.368 . S
C352 C348 1.368 . S
C352 C351 1.523 . S
H353 C328 0.950 . S
H354 C330 0.950 . S
H355 C331 0.949 . S
H356 C333 0.950 . S
H357 C335 0.950 . S
C358 C359 1.349 . S
C358 C360 1.327 . S
C358 H383 0.950 . S
C359 C358 1.349 . S
C359 C375 1.349 . S
C360 C358 1.327 . S
C360 C379 1.429 . S
C360 H384 0.950 . S
C361 C378 1.574 . S
C361 C380 1.368 . S
C361 H385 0.949 . S
H362 C366 0.949 . S
C363 C364 1.349 . S
C363 C365 1.327 . S
C363 H386 0.950 . S
C364 C363 1.349 . S
C364 C376 1.349 . S
C365 C363 1.327 . S
C365 C381 1.429 . S
C365 H387 0.950 . S
C366 H362 0.949 . S
C366 C374 1.574 . S
C366 C382 1.368 . S
H367 C375 0.950 . S
H368 C373 0.950 . S
H369 C374 0.949 . S
H370 C376 0.950 . S
H371 C377 0.950 . S
H372 C378 0.949 . S
C373 H368 0.950 . S
C373 C375 1.327 . S
C373 C379 1.429 . S
C374 C366 1.574 . S
C374 H369 0.949 . S
C374 C380 1.368 . S
C375 C359 1.349 . S
C375 H367 0.950 . S
C375 C373 1.327 . S
C376 C364 1.349 . S
C376 H370 0.950 . S
C376 C377 1.327 . S
C377 H371 0.950 . S
C377 C376 1.327 . S
C377 C381 1.429 . S
C378 C361 1.574 . S
C378 H372 0.949 . S
C378 C382 1.368 . S
C379 C360 1.429 . S
C379 C373 1.429 . S
C379 C380 1.523 . S
C380 C361 1.368 . S
C380 C374 1.368 . S
C380 C379 1.523 . S
C381 C365 1.429 . S
C381 C377 1.429 . S
C381 C382 1.523 . S
C382 C366 1.368 . S
C382 C378 1.368 . S
C382 C381 1.523 . S
H383 C358 0.950 . S
H384 C360 0.950 . S
H385 C361 0.949 . S
H386 C363 0.950 . S
H387 C365 0.950 . S
C388 C389 1.349 . S
C388 C390 1.327 . S
C388 H413 0.950 . S
C389 C388 1.349 . S
C389 C405 1.349 . S
C390 C388 1.327 . S
C390 C409 1.429 . S
C390 H414 0.950 . S
C391 C408 1.574 . S
C391 C410 1.368 . S
C391 H415 0.949 . S
H392 C396 0.949 . S
C393 C394 1.349 . S
C393 C395 1.327 . S
C393 H416 0.950 . S
C394 C393 1.349 . S
C394 C406 1.349 . S
C395 C393 1.327 . S
C395 C411 1.429 . S
C395 H417 0.950 . S
C396 H392 0.949 . S
C396 C404 1.574 . S
C396 C412 1.368 . S
H397 C405 0.950 . S
H398 C403 0.950 . S
H399 C404 0.949 . S
H400 C406 0.950 . S
H401 C407 0.950 . S
H402 C408 0.949 . S
C403 H398 0.950 . S
C403 C405 1.327 . S
C403 C409 1.429 . S
C404 C396 1.574 . S
C404 H399 0.949 . S
C404 C410 1.368 . S
C405 C389 1.349 . S
C405 H397 0.950 . S
C405 C403 1.327 . S
C406 C394 1.349 . S
C406 H400 0.950 . S
C406 C407 1.327 . S
C407 H401 0.950 . S
C407 C406 1.327 . S
C407 C411 1.429 . S
C408 C391 1.574 . S
C408 H402 0.949 . S
C408 C412 1.368 . S
C409 C390 1.429 . S
C409 C403 1.429 . S
C409 C410 1.523 . S
C410 C391 1.368 . S
C410 C404 1.368 . S
C410 C409 1.523 . S
C411 C395 1.429 . S
C411 C407 1.429 . S
C411 C412 1.523 . S
C412 C396 1.368 . S
C412 C408 1.368 . S
C412 C411 1.523 . S
H413 C388 0.950 . S
H414 C390 0.950 . S
H415 C391 0.949 . S
H416 C393 0.950 . S
H417 C395 0.950 . S
C418 C419 1.349 . S
C418 C420 1.327 . S
C418 H443 0.950 . S
C419 C418 1.349 . S
C419 C435 1.349 . S
C420 C418 1.327 . S
C420 C439 1.429 . S
C420 H444 0.950 . S
C421 C438 1.574 . S
C421 C440 1.368 . S
C421 H445 0.949 . S
H422 C426 0.949 . S
C423 C424 1.349 . S
C423 C425 1.327 . S
C423 H446 0.950 . S
C424 C423 1.349 . S
C424 C436 1.349 . S
C425 C423 1.327 . S
C425 C441 1.429 . S
C425 H447 0.950 . S
C426 H422 0.949 . S
C426 C434 1.574 . S
C426 C442 1.368 . S
H427 C435 0.950 . S
H428 C433 0.950 . S
H429 C434 0.949 . S
H430 C436 0.950 . S
H431 C437 0.950 . S
H432 C438 0.949 . S
C433 H428 0.950 . S
C433 C435 1.327 . S
C433 C439 1.429 . S
C434 C426 1.574 . S
C434 H429 0.949 . S
C434 C440 1.368 . S
C435 C419 1.349 . S
C435 H427 0.950 . S
C435 C433 1.327 . S
C436 C424 1.349 . S
C436 H430 0.950 . S
C436 C437 1.327 . S
C437 H431 0.950 . S
C437 C436 1.327 . S
C437 C441 1.429 . S
C438 C421 1.574 . S
C438 H432 0.949 . S
C438 C442 1.368 . S
C439 C420 1.429 . S
C439 C433 1.429 . S
C439 C440 1.523 . S
C440 C421 1.368 . S
C440 C434 1.368 . S
C440 C439 1.523 . S
C441 C425 1.429 . S
C441 C437 1.429 . S
C441 C442 1.523 . S
C442 C426 1.368 . S
C442 C438 1.368 . S
C442 C441 1.523 . S
H443 C418 0.950 . S
H444 C420 0.950 . S
H445 C421 0.949 . S
H446 C423 0.950 . S
H447 C425 0.950 . S
C448 C449 1.349 . S
C448 C450 1.327 . S
C448 H473 0.950 . S
C449 C448 1.349 . S
C449 C465 1.349 . S
C450 C448 1.327 . S
C450 C469 1.429 . S
C450 H474 0.950 . S
C451 C468 1.574 . S
C451 C470 1.368 . S
C451 H475 0.949 . S
H452 C456 0.949 . S
C453 C454 1.349 . S
C453 C455 1.327 . S
C453 H476 0.950 . S
C454 C453 1.349 . S
C454 C466 1.349 . S
C455 C453 1.327 . S
C455 C471 1.429 . S
C455 H477 0.950 . S
C456 H452 0.949 . S
C456 C464 1.574 . S
C456 C472 1.368 . S
H457 C465 0.950 . S
H458 C463 0.950 . S
H459 C464 0.949 . S
H460 C466 0.950 . S
H461 C467 0.950 . S
H462 C468 0.949 . S
C463 H458 0.950 . S
C463 C465 1.327 . S
C463 C469 1.429 . S
C464 C456 1.574 . S
C464 H459 0.949 . S
C464 C470 1.368 . S
C465 C449 1.349 . S
C465 H457 0.950 . S
C465 C463 1.327 . S
C466 C454 1.349 . S
C466 H460 0.950 . S
C466 C467 1.327 . S
C467 H461 0.950 . S
C467 C466 1.327 . S
C467 C471 1.429 . S
C468 C451 1.574 . S
C468 H462 0.949 . S
C468 C472 1.368 . S
C469 C450 1.429 . S
C469 C463 1.429 . S
C469 C470 1.523 . S
C470 C451 1.368 . S
C470 C464 1.368 . S
C470 C469 1.523 . S
C471 C455 1.429 . S
C471 C467 1.429 . S
C471 C472 1.523 . S
C472 C456 1.368 . S
C472 C468 1.368 . S
C472 C471 1.523 . S
H473 C448 0.950 . S
H474 C450 0.950 . S
H475 C451 0.949 . S
H476 C453 0.950 . S
H477 C455 0.950 . S
C478 C479 1.349 . S
C478 C480 1.327 . S
C478 H503 0.950 . S
C479 C478 1.349 . S
C479 C495 1.349 . S
C480 C478 1.327 . S
C480 C499 1.429 . S
C480 H504 0.950 . S
C481 C498 1.574 . S
C481 C500 1.368 . S
C481 H505 0.949 . S
H482 C486 0.949 . S
C483 C484 1.349 . S
C483 C485 1.327 . S
C483 H506 0.950 . S
C484 C483 1.349 . S
C484 C496 1.349 . S
C485 C483 1.327 . S
C485 C501 1.429 . S
C485 H507 0.950 . S
C486 H482 0.949 . S
C486 C494 1.574 . S
C486 C502 1.368 . S
H487 C495 0.950 . S
H488 C493 0.950 . S
H489 C494 0.949 . S
H490 C496 0.950 . S
H491 C497 0.950 . S
H492 C498 0.949 . S
C493 H488 0.950 . S
C493 C495 1.327 . S
C493 C499 1.429 . S
C494 C486 1.574 . S
C494 H489 0.949 . S
C494 C500 1.368 . S
C495 C479 1.349 . S
C495 H487 0.950 . S
C495 C493 1.327 . S
C496 C484 1.349 . S
C496 H490 0.950 . S
C496 C497 1.327 . S
C497 H491 0.950 . S
C497 C496 1.327 . S
C497 C501 1.429 . S
C498 C481 1.574 . S
C498 H492 0.949 . S
C498 C502 1.368 . S
C499 C480 1.429 . S
C499 C493 1.429 . S
C499 C500 1.523 . S
C500 C481 1.368 . S
C500 C494 1.368 . S
C500 C499 1.523 . S
C501 C485 1.429 . S
C501 C497 1.429 . S
C501 C502 1.523 . S
C502 C486 1.368 . S
C502 C498 1.368 . S
C502 C501 1.523 . S
H503 C478 0.950 . S
H504 C480 0.950 . S
H505 C481 0.949 . S
H506 C483 0.950 . S
H507 C485 0.950 . S
C508 C509 1.349 . S
C508 C510 1.327 . S
C508 H533 0.950 . S
C509 C508 1.349 . S
C509 C525 1.349 . S
C510 C508 1.327 . S
C510 C529 1.429 . S
C510 H534 0.950 . S
C511 C528 1.574 . S
C511 C530 1.368 . S
C511 H535 0.949 . S
H512 C516 0.949 . S
C513 C514 1.349 . S
C513 C515 1.327 . S
C513 H536 0.950 . S
C514 C513 1.349 . S
C514 C526 1.349 . S
C515 C513 1.327 . S
C515 C531 1.429 . S
C515 H537 0.950 . S
C516 H512 0.949 . S
C516 C524 1.574 . S
C516 C532 1.368 . S
H517 C525 0.950 . S
H518 C523 0.950 . S
H519 C524 0.949 . S
H520 C526 0.950 . S
H521 C527 0.950 . S
H522 C528 0.949 . S
C523 H518 0.950 . S
C523 C525 1.327 . S
C523 C529 1.429 . S
C524 C516 1.574 . S
C524 H519 0.949 . S
C524 C530 1.368 . S
C525 C509 1.349 . S
C525 H517 0.950 . S
C525 C523 1.327 . S
C526 C514 1.349 . S
C526 H520 0.950 . S
C526 C527 1.327 . S
C527 H521 0.950 . S
C527 C526 1.327 . S
C527 C531 1.429 . S
C528 C511 1.574 . S
C528 H522 0.949 . S
C528 C532 1.368 . S
C529 C510 1.429 . S
C529 C523 1.429 . S
C529 C530 1.523 . S
C530 C511 1.368 . S
C530 C524 1.368 . S
C530 C529 1.523 . S
C531 C515 1.429 . S
C531 C527 1.429 . S
C531 C532 1.523 . S
C532 C516 1.368 . S
C532 C528 1.368 . S
C532 C531 1.523 . S
H533 C508 0.950 . S
H534 C510 0.950 . S
H535 C511 0.949 . S
H536 C513 0.950 . S
H537 C515 0.950 . S
C538 C539 1.349 . S
C538 C540 1.327 . S
C538 H563 0.950 . S
C539 C538 1.349 . S
C539 C555 1.349 . S
C540 C538 1.327 . S
C540 C559 1.429 . S
C540 H564 0.950 . S
C541 C558 1.574 . S
C541 C560 1.368 . S
C541 H565 0.949 . S
H542 C546 0.949 . S
C543 C544 1.349 . S
C543 C545 1.327 . S
C543 H566 0.950 . S
C544 C543 1.349 . S
C544 C556 1.349 . S
C545 C543 1.327 . S
C545 C561 1.429 . S
C545 H567 0.950 . S
C546 H542 0.949 . S
C546 C554 1.574 . S
C546 C562 1.368 . S
H547 C555 0.950 . S
H548 C553 0.950 . S
H549 C554 0.949 . S
H550 C556 0.950 . S
H551 C557 0.950 . S
H552 C558 0.949 . S
C553 H548 0.950 . S
C553 C555 1.327 . S
C553 C559 1.429 . S
C554 C546 1.574 . S
C554 H549 0.949 . S
C554 C560 1.368 . S
C555 C539 1.349 . S
C555 H547 0.950 . S
C555 C553 1.327 . S
C556 C544 1.349 . S
C556 H550 0.950 . S
C556 C557 1.327 . S
C557 H551 0.950 . S
C557 C556 1.327 . S
C557 C561 1.429 . S
C558 C541 1.574 . S
C558 H552 0.949 . S
C558 C562 1.368 . S
C559 C540 1.429 . S
C559 C553 1.429 . S
C559 C560 1.523 . S
C560 C541 1.368 . S
C560 C554 1.368 . S
C560 C559 1.523 . S
C561 C545 1.429 . S
C561 C557 1.429 . S
C561 C562 1.523 . S
C562 C546 1.368 . S
C562 C558 1.368 . S
C562 C561 1.523 . S
H563 C538 0.950 . S
H564 C540 0.950 . S
H565 C541 0.949 . S
H566 C543 0.950 . S
H567 C545 0.950 . S
C568 C569 1.349 . S
C568 C570 1.327 . S
C568 H593 0.950 . S
C569 C568 1.349 . S
C569 C585 1.349 . S
C570 C568 1.327 . S
C570 C589 1.429 . S
C570 H594 0.950 . S
C571 C588 1.574 . S
C571 C590 1.368 . S
C571 H595 0.949 . S
H572 C576 0.949 . S
C573 C574 1.349 . S
C573 C575 1.327 . S
C573 H596 0.950 . S
C574 C573 1.349 . S
C574 C586 1.349 . S
C575 C573 1.327 . S
C575 C591 1.429 . S
C575 H597 0.950 . S
C576 H572 0.949 . S
C576 C584 1.574 . S
C576 C592 1.368 . S
H577 C585 0.950 . S
H578 C583 0.950 . S
H579 C584 0.949 . S
H580 C586 0.950 . S
H581 C587 0.950 . S
H582 C588 0.949 . S
C583 H578 0.950 . S
C583 C585 1.327 . S
C583 C589 1.429 . S
C584 C576 1.574 . S
C584 H579 0.949 . S
C584 C590 1.368 . S
C585 C569 1.349 . S
C585 H577 0.950 . S
C585 C583 1.327 . S
C586 C574 1.349 . S
C586 H580 0.950 . S
C586 C587 1.327 . S
C587 H581 0.950 . S
C587 C586 1.327 . S
C587 C591 1.429 . S
C588 C571 1.574 . S
C588 H582 0.949 . S
C588 C592 1.368 . S
C589 C570 1.429 . S
C589 C583 1.429 . S
C589 C590 1.523 . S
C590 C571 1.368 . S
C590 C584 1.368 . S
C590 C589 1.523 . S
C591 C575 1.429 . S
C591 C587 1.429 . S
C591 C592 1.523 . S
C592 C576 1.368 . S
C592 C588 1.368 . S
C592 C591 1.523 . S
H593 C568 0.950 . S
H594 C570 0.950 . S
H595 C571 0.949 . S
H596 C573 0.950 . S
H597 C575 0.950 . S
C598 C599 1.349 . S
C598 C600 1.327 . S
C598 H623 0.950 . S
C599 C598 1.349 . S
C599 C615 1.349 . S
C600 C598 1.327 . S
C600 C619 1.429 . S
C600 H624 0.950 . S
C601 C618 1.574 . S
C601 C620 1.368 . S
C601 H625 0.949 . S
H602 C606 0.949 . S
C603 C604 1.349 . S
C603 C605 1.327 . S
C603 H626 0.950 . S
C604 C603 1.349 . S
C604 C616 1.349 . S
C605 C603 1.327 . S
C605 C621 1.429 . S
C605 H627 0.950 . S
C606 H602 0.949 . S
C606 C614 1.574 . S
C606 C622 1.368 . S
H607 C615 0.950 . S
H608 C613 0.950 . S
H609 C614 0.949 . S
H610 C616 0.950 . S
H611 C617 0.950 . S
H612 C618 0.949 . S
C613 H608 0.950 . S
C613 C615 1.327 . S
C613 C619 1.429 . S
C614 C606 1.574 . S
C614 H609 0.949 . S
C614 C620 1.368 . S
C615 C599 1.349 . S
C615 H607 0.950 . S
C615 C613 1.327 . S
C616 C604 1.349 . S
C616 H610 0.950 . S
C616 C617 1.327 . S
C617 H611 0.950 . S
C617 C616 1.327 . S
C617 C621 1.429 . S
C618 C601 1.574 . S
C618 H612 0.949 . S
C618 C622 1.368 . S
C619 C600 1.429 . S
C619 C613 1.429 . S
C619 C620 1.523 . S
C620 C601 1.368 . S
C620 C614 1.368 . S
C620 C619 1.523 . S
C621 C605 1.429 . S
C621 C617 1.429 . S
C621 C622 1.523 . S
C622 C606 1.368 . S
C622 C618 1.368 . S
C622 C621 1.523 . S
H623 C598 0.950 . S
H624 C600 0.950 . S
H625 C601 0.949 . S
H626 C603 0.950 . S
H627 C605 0.950 . S
C628 C629 1.349 . S
C628 C630 1.327 . S
C628 H653 0.950 . S
C629 C628 1.349 . S
C629 C645 1.349 . S
C630 C628 1.327 . S
C630 C649 1.429 . S
C630 H654 0.950 . S
C631 C648 1.574 . S
C631 C650 1.368 . S
C631 H655 0.949 . S
H632 C636 0.949 . S
C633 C634 1.349 . S
C633 C635 1.327 . S
C633 H656 0.950 . S
C634 C633 1.349 . S
C634 C646 1.349 . S
C635 C633 1.327 . S
C635 C651 1.429 . S
C635 H657 0.950 . S
C636 H632 0.949 . S
C636 C644 1.574 . S
C636 C652 1.368 . S
H637 C645 0.950 . S
H638 C643 0.950 . S
H639 C644 0.949 . S
H640 C646 0.950 . S
H641 C647 0.950 . S
H642 C648 0.949 . S
C643 H638 0.950 . S
C643 C645 1.327 . S
C643 C649 1.429 . S
C644 C636 1.574 . S
C644 H639 0.949 . S
C644 C650 1.368 . S
C645 C629 1.349 . S
C645 H637 0.950 . S
C645 C643 1.327 . S
C646 C634 1.349 . S
C646 H640 0.950 . S
C646 C647 1.327 . S
C647 H641 0.950 . S
C647 C646 1.327 . S
C647 C651 1.429 . S
C648 C631 1.574 . S
C648 H642 0.949 . S
C648 C652 1.368 . S
C649 C630 1.429 . S
C649 C643 1.429 . S
C649 C650 1.523 . S
C650 C631 1.368 . S
C650 C644 1.368 . S
C650 C649 1.523 . S
C651 C635 1.429 . S
C651 C647 1.429 . S
C651 C652 1.523 . S
C652 C636 1.368 . S
C652 C648 1.368 . S
C652 C651 1.523 . S
H653 C628 0.950 . S
H654 C630 0.950 . S
H655 C631 0.949 . S
H656 C633 0.950 . S
H657 C635 0.950 . S
C658 C659 1.349 . S
C658 C660 1.327 . S
C658 H683 0.950 . S
C659 C658 1.349 . S
C659 C675 1.349 . S
C660 C658 1.327 . S
C660 C679 1.429 . S
C660 H684 0.950 . S
C661 C678 1.574 . S
C661 C680 1.368 . S
C661 H685 0.949 . S
H662 C666 0.949 . S
C663 C664 1.349 . S
C663 C665 1.327 . S
C663 H686 0.950 . S
C664 C663 1.349 . S
C664 C676 1.349 . S
C665 C663 1.327 . S
C665 C681 1.429 . S
C665 H687 0.950 . S
C666 H662 0.949 . S
C666 C674 1.574 . S
C666 C682 1.368 . S
H667 C675 0.950 . S
H668 C673 0.950 . S
H669 C674 0.949 . S
H670 C676 0.950 . S
H671 C677 0.950 . S
H672 C678 0.949 . S
C673 H668 0.950 . S
C673 C675 1.327 . S
C673 C679 1.429 . S
C674 C666 1.574 . S
C674 H669 0.949 . S
C674 C680 1.368 . S
C675 C659 1.349 . S
C675 H667 0.950 . S
C675 C673 1.327 . S
C676 C664 1.349 . S
C676 H670 0.950 . S
C676 C677 1.327 . S
C677 H671 0.950 . S
C677 C676 1.327 . S
C677 C681 1.429 . S
C678 C661 1.574 . S
C678 H672 0.949 . S
C678 C682 1.368 . S
C679 C660 1.429 . S
C679 C673 1.429 . S
C679 C680 1.523 . S
C680 C661 1.368 . S
C680 C674 1.368 . S
C680 C679 1.523 . S
C681 C665 1.429 . S
C681 C677 1.429 . S
C681 C682 1.523 . S
C682 C666 1.368 . S
C682 C678 1.368 . S
C682 C681 1.523 . S
H683 C658 0.950 . S
H684 C660 0.950 . S
H685 C661 0.949 . S
H686 C663 0.950 . S
H687 C665 0.950 . S
C688 C689 1.349 . S
C688 C690 1.327 . S
C688 H713 0.950 . S
C689 C688 1.349 . S
C689 C705 1.349 . S
C690 C688 1.327 . S
C690 C709 1.429 . S
C690 H714 0.950 . S
C691 C708 1.574 . S
C691 C710 1.368 . S
C691 H715 0.949 . S
H692 C696 0.949 . S
C693 C694 1.349 . S
C693 C695 1.327 . S
C693 H716 0.950 . S
C694 C693 1.349 . S
C694 C706 1.349 . S
C695 C693 1.327 . S
C695 C711 1.429 . S
C695 H717 0.950 . S
C696 H692 0.949 . S
C696 C704 1.574 . S
C696 C712 1.368 . S
H697 C705 0.950 . S
H698 C703 0.950 . S
H699 C704 0.949 . S
H700 C706 0.950 . S
H701 C707 0.950 . S
H702 C708 0.949 . S
C703 H698 0.950 . S
C703 C705 1.327 . S
C703 C709 1.429 . S
C704 C696 1.574 . S
C704 H699 0.949 . S
C704 C710 1.368 . S
C705 C689 1.349 . S
C705 H697 0.950 . S
C705 C703 1.327 . S
C706 C694 1.349 . S
C706 H700 0.950 . S
C706 C707 1.327 . S
C707 H701 0.950 . S
C707 C706 1.327 . S
C707 C711 1.429 . S
C708 C691 1.574 . S
C708 H702 0.949 . S
C708 C712 1.368 . S
C709 C690 1.429 . S
C709 C703 1.429 . S
C709 C710 1.523 . S
C710 C691 1.368 . S
C710 C704 1.368 . S
C710 C709 1.523 . S
C711 C695 1.429 . S
C711 C707 1.429 . S
C711 C712 1.523 . S
C712 C696 1.368 . S
C712 C708 1.368 . S
C712 C711 1.523 . S
H713 C688 0.950 . S
H714 C690 0.950 . S
H715 C691 0.949 . S
H716 C693 0.950 . S
H717 C695 0.950 . S
C718 C719 1.349 . S
C718 C720 1.327 . S
C718 H743 0.950 . S
C719 C718 1.349 . S
C719 C735 1.349 . S
C720 C718 1.327 . S
C720 C739 1.429 . S
C720 H744 0.950 . S
C721 C738 1.574 . S
C721 C740 1.368 . S
C721 H745 0.949 . S
H722 C726 0.949 . S
C723 C724 1.349 . S
C723 C725 1.327 . S
C723 H746 0.950 . S
C724 C723 1.349 . S
C724 C736 1.349 . S
C725 C723 1.327 . S
C725 C741 1.429 . S
C725 H747 0.950 . S
C726 H722 0.949 . S
C726 C734 1.574 . S
C726 C742 1.368 . S
H727 C735 0.950 . S
H728 C733 0.950 . S
H729 C734 0.949 . S
H730 C736 0.950 . S
H731 C737 0.950 . S
H732 C738 0.949 . S
C733 H728 0.950 . S
C733 C735 1.327 . S
C733 C739 1.429 . S
C734 C726 1.574 . S
C734 H729 0.949 . S
C734 C740 1.368 . S
C735 C719 1.349 . S
C735 H727 0.950 . S
C735 C733 1.327 . S
C736 C724 1.349 . S
C736 H730 0.950 . S
C736 C737 1.327 . S
C737 H731 0.950 . S
C737 C736 1.327 . S
C737 C741 1.429 . S
C738 C721 1.574 . S
C738 H732 0.949 . S
C738 C742 1.368 . S
C739 C720 1.429 . S
C739 C733 1.429 . S
C739 C740 1.523 . S
C740 C721 1.368 . S
C740 C734 1.368 . S
C740 C739 1.523 . S
C741 C725 1.429 . S
C741 C737 1.429 . S
C741 C742 1.523 . S
C742 C726 1.368 . S
C742 C738 1.368 . S
C742 C741 1.523 . S
H743 C718 0.950 . S
H744 C720 0.950 . S
H745 C721 0.949 . S
H746 C723 0.950 . S
H747 C725 0.950 . S
C748 C749 1.349 . S
C748 C750 1.327 . S
C748 H773 0.950 . S
C749 C748 1.349 . S
C749 C765 1.349 . S
C750 C748 1.327 . S
C750 C769 1.429 . S
C750 H774 0.950 . S
C751 C768 1.574 . S
C751 C770 1.368 . S
C751 H775 0.949 . S
H752 C756 0.949 . S
C753 C754 1.349 . S
C753 C755 1.327 . S
C753 H776 0.950 . S
C754 C753 1.349 . S
C754 C766 1.349 . S
C755 C753 1.327 . S
C755 C771 1.429 . S
C755 H777 0.950 . S
C756 H752 0.949 . S
C756 C764 1.574 . S
C756 C772 1.368 . S
H757 C765 0.950 . S
H758 C763 0.950 . S
H759 C764 0.949 . S
H760 C766 0.950 . S
H761 C767 0.950 . S
H762 C768 0.949 . S
C763 H758 0.950 . S
C763 C765 1.327 . S
C763 C769 1.429 . S
C764 C756 1.574 . S
C764 H759 0.949 . S
C764 C770 1.368 . S
C765 C749 1.349 . S
C765 H757 0.950 . S
C765 C763 1.327 . S
C766 C754 1.349 . S
C766 H760 0.950 . S
C766 C767 1.327 . S
C767 H761 0.950 . S
C767 C766 1.327 . S
C767 C771 1.429 . S
C768 C751 1.574 . S
C768 H762 0.949 . S
C768 C772 1.368 . S
C769 C750 1.429 . S
C769 C763 1.429 . S
C769 C770 1.523 . S
C770 C751 1.368 . S
C770 C764 1.368 . S
C770 C769 1.523 . S
C771 C755 1.429 . S
C771 C767 1.429 . S
C771 C772 1.523 . S
C772 C756 1.368 . S
C772 C768 1.368 . S
C772 C771 1.523 . S
H773 C748 0.950 . S
H774 C750 0.950 . S
H775 C751 0.949 . S
H776 C753 0.950 . S
H777 C755 0.950 . S
C778 C779 1.349 . S
C778 C780 1.327 . S
C778 H803 0.950 . S
C779 C778 1.349 . S
C779 C795 1.349 . S
C780 C778 1.327 . S
C780 C799 1.429 . S
C780 H804 0.950 . S
C781 C798 1.574 . S
C781 C800 1.368 . S
C781 H805 0.949 . S
H782 C786 0.949 . S
C783 C784 1.349 . S
C783 C785 1.327 . S
C783 H806 0.950 . S
C784 C783 1.349 . S
C784 C796 1.349 . S
C785 C783 1.327 . S
C785 C801 1.429 . S
C785 H807 0.950 . S
C786 H782 0.949 . S
C786 C794 1.574 . S
C786 C802 1.368 . S
H787 C795 0.950 . S
H788 C793 0.950 . S
H789 C794 0.949 . S
H790 C796 0.950 . S
H791 C797 0.950 . S
H792 C798 0.949 . S
C793 H788 0.950 . S
C793 C795 1.327 . S
C793 C799 1.429 . S
C794 C786 1.574 . S
C794 H789 0.949 . S
C794 C800 1.368 . S
C795 C779 1.349 . S
C795 H787 0.950 . S
C795 C793 1.327 . S
C796 C784 1.349 . S
C796 H790 0.950 . S
C796 C797 1.327 . S
C797 H791 0.950 . S
C797 C796 1.327 . S
C797 C801 1.429 . S
C798 C781 1.574 . S
C798 H792 0.949 . S
C798 C802 1.368 . S
C799 C780 1.429 . S
C799 C793 1.429 . S
C799 C800 1.523 . S
C800 C781 1.368 . S
C800 C794 1.368 . S
C800 C799 1.523 . S
C801 C785 1.429 . S
C801 C797 1.429 . S
C801 C802 1.523 . S
C802 C786 1.368 . S
C802 C798 1.368 . S
C802 C801 1.523 . S
H803 C778 0.950 . S
H804 C780 0.950 . S
H805 C781 0.949 . S
H806 C783 0.950 . S
H807 C785 0.950 . S
C808 C809 1.349 . S
C808 C810 1.327 . S
C808 H833 0.950 . S
C809 C808 1.349 . S
C809 C825 1.349 . S
C810 C808 1.327 . S
C810 C829 1.429 . S
C810 H834 0.950 . S
C811 C828 1.574 . S
C811 C830 1.368 . S
C811 H835 0.949 . S
H812 C816 0.949 . S
C813 C814 1.349 . S
C813 C815 1.327 . S
C813 H836 0.950 . S
C814 C813 1.349 . S
C814 C826 1.349 . S
C815 C813 1.327 . S
C815 C831 1.429 . S
C815 H837 0.950 . S
C816 H812 0.949 . S
C816 C824 1.574 . S
C816 C832 1.368 . S
H817 C825 0.950 . S
H818 C823 0.950 . S
H819 C824 0.949 . S
H820 C826 0.950 . S
H821 C827 0.950 . S
H822 C828 0.949 . S
C823 H818 0.950 . S
C823 C825 1.327 . S
C823 C829 1.429 . S
C824 C816 1.574 . S
C824 H819 0.949 . S
C824 C830 1.368 . S
C825 C809 1.349 . S
C825 H817 0.950 . S
C825 C823 1.327 . S
C826 C814 1.349 . S
C826 H820 0.950 . S
C826 C827 1.327 . S
C827 H821 0.950 . S
C827 C826 1.327 . S
C827 C831 1.429 . S
C828 C811 1.574 . S
C828 H822 0.949 . S
C828 C832 1.368 . S
C829 C810 1.429 . S
C829 C823 1.429 . S
C829 C830 1.523 . S
C830 C811 1.368 . S
C830 C824 1.368 . S
C830 C829 1.523 . S
C831 C815 1.429 . S
C831 C827 1.429 . S
C831 C832 1.523 . S
C832 C816 1.368 . S
C832 C828 1.368 . S
C832 C831 1.523 . S
H833 C808 0.950 . S
H834 C810 0.950 . S
H835 C811 0.949 . S
H836 C813 0.950 . S
H837 C815 0.950 . S
C838 C839 1.349 . S
C838 C840 1.327 . S
C838 H863 0.950 . S
C839 C838 1.349 . S
C839 C855 1.349 . S
C840 C838 1.327 . S
C840 C859 1.429 . S
C840 H864 0.950 . S
C841 C858 1.574 . S
C841 C860 1.368 . S
C841 H865 0.949 . S
H842 C846 0.949 . S
C843 C844 1.349 . S
C843 C845 1.327 . S
C843 H866 0.950 . S
C844 C843 1.349 . S
C844 C856 1.349 . S
C845 C843 1.327 . S
C845 C861 1.429 . S
C845 H867 0.950 . S
C846 H842 0.949 . S
C846 C854 1.574 . S
C846 C862 1.368 . S
H847 C855 0.950 . S
H848 C853 0.950 . S
H849 C854 0.949 . S
H850 C856 0.950 . S
H851 C857 0.950 . S
H852 C858 0.949 . S
C853 H848 0.950 . S
C853 C855 1.327 . S
C853 C859 1.429 . S
C854 C846 1.574 . S
C854 H849 0.949 . S
C854 C860 1.368 . S
C855 C839 1.349 . S
C855 H847 0.950 . S
C855 C853 1.327 . S
C856 C844 1.349 . S
C856 H850 0.950 . S
C856 C857 1.327 . S
C857 H851 0.950 . S
C857 C856 1.327 . S
C857 C861 1.429 . S
C858 C841 1.574 . S
C858 H852 0.949 . S
C858 C862 1.368 . S
C859 C840 1.429 . S
C859 C853 1.429 . S
C859 C860 1.523 . S
C860 C841 1.368 . S
C860 C854 1.368 . S
C860 C859 1.523 . S
C861 C845 1.429 . S
C861 C857 1.429 . S
C861 C862 1.523 . S
C862 C846 1.368 . S
C862 C858 1.368 . S
C862 C861 1.523 . S
H863 C838 0.950 . S
H864 C840 0.950 . S
H865 C841 0.949 . S
H866 C843 0.950 . S
H867 C845 0.950 . S
C868 C869 1.349 . S
C868 C870 1.327 . S
C868 H893 0.950 . S
C869 C868 1.349 . S
C869 C885 1.349 . S
C870 C868 1.327 . S
C870 C889 1.429 . S
C870 H894 0.950 . S
C871 C888 1.574 . S
C871 C890 1.368 . S
C871 H895 0.949 . S
H872 C876 0.949 . S
C873 C874 1.349 . S
C873 C875 1.327 . S
C873 H896 0.950 . S
C874 C873 1.349 . S
C874 C886 1.349 . S
C875 C873 1.327 . S
C875 C891 1.429 . S
C875 H897 0.950 . S
C876 H872 0.949 . S
C876 C884 1.574 . S
C876 C892 1.368 . S
H877 C885 0.950 . S
H878 C883 0.950 . S
H879 C884 0.949 . S
H880 C886 0.950 . S
H881 C887 0.950 . S
H882 C888 0.949 . S
C883 H878 0.950 . S
C883 C885 1.327 . S
C883 C889 1.429 . S
C884 C876 1.574 . S
C884 H879 0.949 . S
C884 C890 1.368 . S
C885 C869 1.349 . S
C885 H877 0.950 . S
C885 C883 1.327 . S
C886 C874 1.349 . S
C886 H880 0.950 . S
C886 C887 1.327 . S
C887 H881 0.950 . S
C887 C886 1.327 . S
C887 C891 1.429 . S
C888 C871 1.574 . S
C888 H882 0.949 . S
C888 C892 1.368 . S
C889 C870 1.429 . S
C889 C883 1.429 . S
C889 C890 1.523 . S
C890 C871 1.368 . S
C890 C884 1.368 . S
C890 C889 1.523 . S
C891 C875 1.429 . S
C891 C887 1.429 . S
C891 C892 1.523 . S
C892 C876 1.368 . S
C892 C888 1.368 . S
C892 C891 1.523 . S
H893 C868 0.950 . S
H894 C870 0.950 . S
H895 C871 0.949 . S
H896 C873 0.950 . S
H897 C875 0.950 . S
C898 C899 1.349 . S
C898 C900 1.327 . S
C898 H923 0.950 . S
C899 C898 1.349 . S
C899 C915 1.349 . S
C900 C898 1.327 . S
C900 C919 1.429 . S
C900 H924 0.950 . S
C901 C918 1.574 . S
C901 C920 1.368 . S
C901 H925 0.949 . S
H902 C906 0.949 . S
C903 C904 1.349 . S
C903 C905 1.327 . S
C903 H926 0.950 . S
C904 C903 1.349 . S
C904 C916 1.349 . S
C905 C903 1.327 . S
C905 C921 1.429 . S
C905 H927 0.950 . S
C906 H902 0.949 . S
C906 C914 1.574 . S
C906 C922 1.368 . S
H907 C915 0.950 . S
H908 C913 0.950 . S
H909 C914 0.949 . S
H910 C916 0.950 . S
H911 C917 0.950 . S
H912 C918 0.949 . S
C913 H908 0.950 . S
C913 C915 1.327 . S
C913 C919 1.429 . S
C914 C906 1.574 . S
C914 H909 0.949 . S
C914 C920 1.368 . S
C915 C899 1.349 . S
C915 H907 0.950 . S
C915 C913 1.327 . S
C916 C904 1.349 . S
C916 H910 0.950 . S
C916 C917 1.327 . S
C917 H911 0.950 . S
C917 C916 1.327 . S
C917 C921 1.429 . S
C918 C901 1.574 . S
C918 H912 0.949 . S
C918 C922 1.368 . S
C919 C900 1.429 . S
C919 C913 1.429 . S
C919 C920 1.523 . S
C920 C901 1.368 . S
C920 C914 1.368 . S
C920 C919 1.523 . S
C921 C905 1.429 . S
C921 C917 1.429 . S
C921 C922 1.523 . S
C922 C906 1.368 . S
C922 C918 1.368 . S
C922 C921 1.523 . S
H923 C898 0.950 . S
H924 C900 0.950 . S
H925 C901 0.949 . S
H926 C903 0.950 . S
H927 C905 0.950 . S
C928 C929 1.349 1_655 S
C928 C930 1.327 . S
C928 H953 0.950 . S
C929 C928 1.349 1_455 S
C929 C945 1.349 . S
C930 C928 1.327 . S
C930 C949 1.429 1_655 S
C930 H954 0.950 . S
C931 C948 1.574 . S
C931 C950 1.368 . S
C931 H955 0.949 . S
H932 C936 0.949 . S
C933 C934 1.349 1_455 S
C933 C935 1.327 . S
C933 H956 0.950 . S
C934 C933 1.349 1_655 S
C934 C946 1.349 . S
C935 C933 1.327 . S
C935 C951 1.429 1_455 S
C935 H957 0.950 . S
C936 H932 0.949 . S
C936 C944 1.574 . S
C936 C952 1.368 . S
H937 C945 0.950 . S
H938 C943 0.950 . S
H939 C944 0.949 . S
H940 C946 0.950 . S
H941 C947 0.950 . S
H942 C948 0.949 . S
C943 H938 0.950 . S
C943 C945 1.327 . S
C943 C949 1.429 . S
C944 C936 1.574 . S
C944 H939 0.949 . S
C944 C950 1.368 1_655 S
C945 C929 1.349 . S
C945 H937 0.950 . S
C945 C943 1.327 . S
C946 C934 1.349 . S
C946 H940 0.950 . S
C946 C947 1.327 . S
C947 H941 0.950 . S
C947 C946 1.327 . S
C947 C951 1.429 . S
C948 C931 1.574 . S
C948 H942 0.949 . S
C948 C952 1.368 1_455 S
C949 C930 1.429 1_455 S
C949 C943 1.429 . S
C949 C950 1.523 . S
C950 C931 1.368 . S
C950 C944 1.368 1_455 S
C950 C949 1.523 . S
C951 C935 1.429 1_655 S
C951 C947 1.429 . S
C951 C952 1.523 . S
C952 C936 1.368 . S
C952 C948 1.368 1_655 S
C952 C951 1.523 . S
H953 C928 0.950 . S
H954 C930 0.950 . S
H955 C931 0.949 . S
H956 C933 0.950 . S
H957 C935 0.950 . S
C958 C959 1.349 1_545 S
C958 C960 1.327 . S
C958 H983 0.950 . S
C959 C958 1.349 1_565 S
C959 C975 1.349 . S
C960 C958 1.327 . S
C960 C979 1.429 1_545 S
C960 H984 0.950 . S
C961 C978 1.574 . S
C961 C980 1.368 . S
C961 H985 0.949 . S
H962 C966 0.949 . S
C963 C964 1.349 1_565 S
C963 C965 1.327 . S
C963 H986 0.950 . S
C964 C963 1.349 1_545 S
C964 C976 1.349 . S
C965 C963 1.327 . S
C965 C981 1.429 1_565 S
C965 H987 0.950 . S
C966 H962 0.949 . S
C966 C974 1.574 . S
C966 C982 1.368 . S
H967 C975 0.950 . S
H968 C973 0.950 . S
H969 C974 0.949 . S
H970 C976 0.950 . S
H971 C977 0.950 . S
H972 C978 0.949 . S
C973 H968 0.950 . S
C973 C975 1.327 . S
C973 C979 1.429 . S
C974 C966 1.574 . S
C974 H969 0.949 . S
C974 C980 1.368 1_545 S
C975 C959 1.349 . S
C975 H967 0.950 . S
C975 C973 1.327 . S
C976 C964 1.349 . S
C976 H970 0.950 . S
C976 C977 1.327 . S
C977 H971 0.950 . S
C977 C976 1.327 . S
C977 C981 1.429 . S
C978 C961 1.574 . S
C978 H972 0.949 . S
C978 C982 1.368 1_565 S
C979 C960 1.429 1_565 S
C979 C973 1.429 . S
C979 C980 1.523 . S
C980 C961 1.368 . S
C980 C974 1.368 1_565 S
C980 C979 1.523 . S
C981 C965 1.429 1_545 S
C981 C977 1.429 . S
C981 C982 1.523 . S
C982 C966 1.368 . S
C982 C978 1.368 1_545 S
C982 C981 1.523 . S
H983 C958 0.950 . S
H984 C960 0.950 . S
H985 C961 0.949 . S
H986 C963 0.950 . S
H987 C965 0.950 . S
C988 C989 1.349 . S
C988 C990 1.327 . S
C988 H1013 0.950 . S
C989 C988 1.349 . S
C989 C1005 1.349 1_455 S
C990 C988 1.327 . S
C990 C1009 1.429 . S
C990 H1014 0.950 . S
C991 C1008 1.574 . S
C991 C1010 1.368 1_655 S
C991 H1015 0.949 . S
H992 C996 0.949 . S
C993 C994 1.349 . S
C993 C995 1.327 . S
C993 H1016 0.950 . S
C994 C993 1.349 . S
C994 C1006 1.349 1_655 S
C995 C993 1.327 . S
C995 C1011 1.429 . S
C995 H1017 0.950 . S
C996 H992 0.949 . S
C996 C1004 1.574 . S
C996 C1012 1.368 1_455 S
H997 C1005 0.950 . S
H998 C1003 0.950 . S
H999 C1004 0.949 . S
H1000 C1006 0.950 . S
H1001 C1007 0.950 . S
H1002 C1008 0.949 . S
C1003 H998 0.950 . S
C1003 C1005 1.327 . S
C1003 C1009 1.429 1_655 S
C1004 C996 1.574 . S
C1004 H999 0.949 . S
C1004 C1010 1.368 . S
C1005 C989 1.349 1_655 S
C1005 H997 0.950 . S
C1005 C1003 1.327 . S
C1006 C994 1.349 1_455 S
C1006 H1000 0.950 . S
C1006 C1007 1.327 . S
C1007 H1001 0.950 . S
C1007 C1006 1.327 . S
C1007 C1011 1.429 1_455 S
C1008 C991 1.574 . S
C1008 H1002 0.949 . S
C1008 C1012 1.368 . S
C1009 C990 1.429 . S
C1009 C1003 1.429 1_455 S
C1009 C1010 1.523 . S
C1010 C991 1.368 1_455 S
C1010 C1004 1.368 . S
C1010 C1009 1.523 . S
C1011 C995 1.429 . S
C1011 C1007 1.429 1_655 S
C1011 C1012 1.523 . S
C1012 C996 1.368 1_655 S
C1012 C1008 1.368 . S
C1012 C1011 1.523 . S
H1013 C988 0.950 . S
H1014 C990 0.950 . S
H1015 C991 0.949 . S
H1016 C993 0.950 . S
H1017 C995 0.950 . S
C1018 C1019 1.349 . S
C1018 C1020 1.327 . S
C1018 H1043 0.950 . S
C1019 C1018 1.349 . S
C1019 C1035 1.349 1_545 S
C1020 C1018 1.327 . S
C1020 C1039 1.429 . S
C1020 H1044 0.950 . S
C1021 C1038 1.574 . S
C1021 C1040 1.368 1_565 S
C1021 H1045 0.949 . S
H1022 C1026 0.949 . S
C1023 C1024 1.349 . S
C1023 C1025 1.327 . S
C1023 H1046 0.950 . S
C1024 C1023 1.349 . S
C1024 C1036 1.349 1_565 S
C1025 C1023 1.327 . S
C1025 C1041 1.429 . S
C1025 H1047 0.950 . S
C1026 H1022 0.949 . S
C1026 C1034 1.574 . S
C1026 C1042 1.368 1_545 S
H1027 C1035 0.950 . S
H1028 C1033 0.950 . S
H1029 C1034 0.949 . S
H1030 C1036 0.950 . S
H1031 C1037 0.950 . S
H1032 C1038 0.949 . S
C1033 H1028 0.950 . S
C1033 C1035 1.327 . S
C1033 C1039 1.429 1_565 S
C1034 C1026 1.574 . S
C1034 H1029 0.949 . S
C1034 C1040 1.368 . S
C1035 C1019 1.349 1_565 S
C1035 H1027 0.950 . S
C1035 C1033 1.327 . S
C1036 C1024 1.349 1_545 S
C1036 H1030 0.950 . S
C1036 C1037 1.327 . S
C1037 H1031 0.950 . S
C1037 C1036 1.327 . S
C1037 C1041 1.429 1_545 S
C1038 C1021 1.574 . S
C1038 H1032 0.949 . S
C1038 C1042 1.368 . S
C1039 C1020 1.429 . S
C1039 C1033 1.429 1_545 S
C1039 C1040 1.523 . S
C1040 C1021 1.368 1_545 S
C1040 C1034 1.368 . S
C1040 C1039 1.523 . S
C1041 C1025 1.429 . S
C1041 C1037 1.429 1_565 S
C1041 C1042 1.523 . S
C1042 C1026 1.368 1_565 S
C1042 C1038 1.368 . S
C1042 C1041 1.523 . S
H1043 C1018 0.950 . S
H1044 C1020 0.950 . S
H1045 C1021 0.949 . S
H1046 C1023 0.950 . S
H1047 C1025 0.950 . S
C1048 C1049 1.349 . S
C1048 C1050 1.327 . S
C1048 H1073 0.950 . S
C1049 C1048 1.349 . S
C1049 C1065 1.349 . S
C1050 C1048 1.327 . S
C1050 C1069 1.429 . S
C1050 H1074 0.950 . S
C1051 C1068 1.574 1_556 S
C1051 C1070 1.368 . S
C1051 H1075 0.949 . S
H1052 C1056 0.949 . S
C1053 C1054 1.349 . S
C1053 C1055 1.327 . S
C1053 H1076 0.950 . S
C1054 C1053 1.349 . S
C1054 C1066 1.349 . S
C1055 C1053 1.327 . S
C1055 C1071 1.429 . S
C1055 H1077 0.950 . S
C1056 H1052 0.949 . S
C1056 C1064 1.574 1_554 S
C1056 C1072 1.368 . S
H1057 C1065 0.950 . S
H1058 C1063 0.950 . S
H1059 C1064 0.949 . S
H1060 C1066 0.950 . S
H1061 C1067 0.950 . S
H1062 C1068 0.949 . S
C1063 H1058 0.950 . S
C1063 C1065 1.327 . S
C1063 C1069 1.429 . S
C1064 C1056 1.574 1_556 S
C1064 H1059 0.949 . S
C1064 C1070 1.368 . S
C1065 C1049 1.349 . S
C1065 H1057 0.950 . S
C1065 C1063 1.327 . S
C1066 C1054 1.349 . S
C1066 H1060 0.950 . S
C1066 C1067 1.327 . S
C1067 H1061 0.950 . S
C1067 C1066 1.327 . S
C1067 C1071 1.429 . S
C1068 C1051 1.574 1_554 S
C1068 H1062 0.949 . S
C1068 C1072 1.368 . S
C1069 C1050 1.429 . S
C1069 C1063 1.429 . S
C1069 C1070 1.523 . S
C1070 C1051 1.368 . S
C1070 C1064 1.368 . S
C1070 C1069 1.523 . S
C1071 C1055 1.429 . S
C1071 C1067 1.429 . S
C1071 C1072 1.523 . S
C1072 C1056 1.368 . S
C1072 C1068 1.368 . S
C1072 C1071 1.523 . S
H1073 C1048 0.950 . S
H1074 C1050 0.950 . S
H1075 C1051 0.949 . S
H1076 C1053 0.950 . S
H1077 C1055 0.950 . S
C1078 C1079 1.349 . S
C1078 C1080 1.327 . S
C1078 H1103 0.950 . S
C1079 C1078 1.349 . S
C1079 C1095 1.349 . S
C1080 C1078 1.327 . S
C1080 C1099 1.429 . S
C1080 H1104 0.950 . S
C1081 C1098 1.574 1_556 S
C1081 C1100 1.368 . S
C1081 H1105 0.949 . S
H1082 C1086 0.949 . S
C1083 C1084 1.349 . S
C1083 C1085 1.327 . S
C1083 H1106 0.950 . S
C1084 C1083 1.349 . S
C1084 C1096 1.349 . S
C1085 C1083 1.327 . S
C1085 C1101 1.429 . S
C1085 H1107 0.950 . S
C1086 H1082 0.949 . S
C1086 C1094 1.574 1_554 S
C1086 C1102 1.368 . S
H1087 C1095 0.950 . S
H1088 C1093 0.950 . S
H1089 C1094 0.949 . S
H1090 C1096 0.950 . S
H1091 C1097 0.950 . S
H1092 C1098 0.949 . S
C1093 H1088 0.950 . S
C1093 C1095 1.327 . S
C1093 C1099 1.429 . S
C1094 C1086 1.574 1_556 S
C1094 H1089 0.949 . S
C1094 C1100 1.368 . S
C1095 C1079 1.349 . S
C1095 H1087 0.950 . S
C1095 C1093 1.327 . S
C1096 C1084 1.349 . S
C1096 H1090 0.950 . S
C1096 C1097 1.327 . S
C1097 H1091 0.950 . S
C1097 C1096 1.327 . S
C1097 C1101 1.429 . S
C1098 C1081 1.574 1_554 S
C1098 H1092 0.949 . S
C1098 C1102 1.368 . S
C1099 C1080 1.429 . S
C1099 C1093 1.429 . S
C1099 C1100 1.523 . S
C1100 C1081 1.368 . S
C1100 C1094 1.368 . S
C1100 C1099 1.523 . S
C1101 C1085 1.429 . S
C1101 C1097 1.429 . S
C1101 C1102 1.523 . S
C1102 C1086 1.368 . S
C1102 C1098 1.368 . S
C1102 C1101 1.523 . S
H1103 C1078 0.950 . S
H1104 C1080 0.950 . S
H1105 C1081 0.949 . S
H1106 C1083 0.950 . S
H1107 C1085 0.950 . S
C1108 C1109 1.349 . S
C1108 C1110 1.327 . S
C1108 H1133 0.950 . S
C1109 C1108 1.349 . S
C1109 C1125 1.349 . S
C1110 C1108 1.327 . S
C1110 C1129 1.429 . S
C1110 H1134 0.950 . S
C1111 C1128 1.574 1_554 S
C1111 C1130 1.368 . S
C1111 H1135 0.949 . S
H1112 C1116 0.949 . S
C1113 C1114 1.349 . S
C1113 C1115 1.327 . S
C1113 H1136 0.950 . S
C1114 C1113 1.349 . S
C1114 C1126 1.349 . S
C1115 C1113 1.327 . S
C1115 C1131 1.429 . S
C1115 H1137 0.950 . S
C1116 H1112 0.949 . S
C1116 C1124 1.574 1_556 S
C1116 C1132 1.368 . S
H1117 C1125 0.950 . S
H1118 C1123 0.950 . S
H1119 C1124 0.949 . S
H1120 C1126 0.950 . S
H1121 C1127 0.950 . S
H1122 C1128 0.949 . S
C1123 H1118 0.950 . S
C1123 C1125 1.327 . S
C1123 C1129 1.429 . S
C1124 C1116 1.574 1_554 S
C1124 H1119 0.949 . S
C1124 C1130 1.368 . S
C1125 C1109 1.349 . S
C1125 H1117 0.950 . S
C1125 C1123 1.327 . S
C1126 C1114 1.349 . S
C1126 H1120 0.950 . S
C1126 C1127 1.327 . S
C1127 H1121 0.950 . S
C1127 C1126 1.327 . S
C1127 C1131 1.429 . S
C1128 C1111 1.574 1_556 S
C1128 H1122 0.949 . S
C1128 C1132 1.368 . S
C1129 C1110 1.429 . S
C1129 C1123 1.429 . S
C1129 C1130 1.523 . S
C1130 C1111 1.368 . S
C1130 C1124 1.368 . S
C1130 C1129 1.523 . S
C1131 C1115 1.429 . S
C1131 C1127 1.429 . S
C1131 C1132 1.523 . S
C1132 C1116 1.368 . S
C1132 C1128 1.368 . S
C1132 C1131 1.523 . S
H1133 C1108 0.950 . S
H1134 C1110 0.950 . S
H1135 C1111 0.949 . S
H1136 C1113 0.950 . S
H1137 C1115 0.950 . S
C1138 C1139 1.349 . S
C1138 C1140 1.327 . S
C1138 H1163 0.950 . S
C1139 C1138 1.349 . S
C1139 C1155 1.349 . S
C1140 C1138 1.327 . S
C1140 C1159 1.429 . S
C1140 H1164 0.950 . S
C1141 C1158 1.574 1_556 S
C1141 C1160 1.368 . S
C1141 H1165 0.949 . S
H1142 C1146 0.949 . S
C1143 C1144 1.349 . S
C1143 C1145 1.327 . S
C1143 H1166 0.950 . S
C1144 C1143 1.349 . S
C1144 C1156 1.349 . S
C1145 C1143 1.327 . S
C1145 C1161 1.429 . S
C1145 H1167 0.950 . S
C1146 H1142 0.949 . S
C1146 C1154 1.574 1_554 S
C1146 C1162 1.368 . S
H1147 C1155 0.950 . S
H1148 C1153 0.950 . S
H1149 C1154 0.949 . S
H1150 C1156 0.950 . S
H1151 C1157 0.950 . S
H1152 C1158 0.949 . S
C1153 H1148 0.950 . S
C1153 C1155 1.327 . S
C1153 C1159 1.429 . S
C1154 C1146 1.574 1_556 S
C1154 H1149 0.949 . S
C1154 C1160 1.368 . S
C1155 C1139 1.349 . S
C1155 H1147 0.950 . S
C1155 C1153 1.327 . S
C1156 C1144 1.349 . S
C1156 H1150 0.950 . S
C1156 C1157 1.327 . S
C1157 H1151 0.950 . S
C1157 C1156 1.327 . S
C1157 C1161 1.429 . S
C1158 C1141 1.574 1_554 S
C1158 H1152 0.949 . S
C1158 C1162 1.368 . S
C1159 C1140 1.429 . S
C1159 C1153 1.429 . S
C1159 C1160 1.523 . S
C1160 C1141 1.368 . S
C1160 C1154 1.368 . S
C1160 C1159 1.523 . S
C1161 C1145 1.429 . S
C1161 C1157 1.429 . S
C1161 C1162 1.523 . S
C1162 C1146 1.368 . S
C1162 C1158 1.368 . S
C1162 C1161 1.523 . S
H1163 C1138 0.950 . S
H1164 C1140 0.950 . S
H1165 C1141 0.949 . S
H1166 C1143 0.950 . S
H1167 C1145 0.950 . S
C209 C8 1.332 . S
C214 C44 1.264 . S
C239 C5 1.264 . S
C244 C21 1.332 . S
C269 C18 1.264 . S
C274 C34 1.332 . S
C299 C31 1.264 . S
C304 C47 1.332 . S
C329 C60 1.332 . S
C334 C70 1.264 . S
C359 C73 1.332 . S
C364 C83 1.264 . S
C389 C86 1.332 . S
C394 C96 1.264 . S
C419 C99 1.332 . S
C424 C57 1.264 . S
C449 C112 1.332 . S
C454 C148 1.264 . S
C479 C109 1.264 . S
C484 C125 1.332 . S
C509 C122 1.264 . S
C514 C138 1.332 . S
C539 C151 1.332 . S
C544 C135 1.264 . S
C569 C174 1.264 . S
C574 C164 1.332 . S
C599 C187 1.264 . S
C604 C177 1.332 . S
C629 C190 1.332 . S
C634 C200 1.264 . S
C659 C203 1.332 . S
C664 C161 1.264 . S
C689 C0 0.864 . S
C694 C195 0.864 . S
C719 C13 0.864 . S
C724 C156 0.864 . S
C749 C169 0.864 . S
C754 C26 0.864 . S
C779 C39 0.864 . S
C784 C182 0.864 . S
C809 C117 0.864 . S
C814 C52 0.864 . S
C839 C130 0.864 . S
C844 C65 0.864 . S
C869 C78 0.864 . S
C874 C143 0.864 . S
C899 C91 0.864 . S
C904 C104 0.864 . S
C929 C10 1.350 . S
C934 C88 1.350 . S
C959 C101 1.350 . S
C964 C23 1.350 . S
C989 C62 1.350 . S
C994 C36 1.350 . S
C1019 C75 1.350 . S
C1024 C49 1.350 . S
C1049 C114 1.350 . S
C1054 C192 1.350 . S
C1079 C127 1.350 . S
C1084 C205 1.350 . S
C1109 C166 1.350 . S
C1114 C140 1.350 . S
C1139 C153 1.350 . S
C1144 C179 1.350 . S
