# Generated by pormake.
# Topology vbe, (5)-cn, num edge types: 1
# Building blocks:
#     Node 0, Type 0, BuildingBlock: BEQFEK_clean_sbu_0, # of connection points: 5
#     Node 1, Type 0, BuildingBlock: BEQFEK_clean_sbu_0, # of connection points: 5
#     Node 2, Type 0, BuildingBlock: BEQFEK_clean_sbu_0, # of connection points: 5
#     Node 3, Type 0, BuildingBlock: BEQFEK_clean_sbu_0, # of connection points: 5
#     Node 4, Type 0, BuildingBlock: BEQFEK_clean_sbu_0, # of connection points: 5
#     Node 5, Type 0, BuildingBlock: BEQFEK_clean_sbu_0, # of connection points: 5
#     Node 6, Type 0, BuildingBlock: BEQFEK_clean_sbu_0, # of connection points: 5
#     Node 7, Type 0, BuildingBlock: BEQFEK_clean_sbu_0, # of connection points: 5
#     Node 8, Type 0, BuildingBlock: BEQFEK_clean_sbu_0, # of connection points: 5
#     Node 9, Type 0, BuildingBlock: BEQFEK_clean_sbu_0, # of connection points: 5
#     Node 10, Type 0, BuildingBlock: BEQFEK_clean_sbu_0, # of connection points: 5
#     Node 11, Type 0, BuildingBlock: BEQFEK_clean_sbu_0, # of connection points: 5
#     Node 12, Type 0, BuildingBlock: BEQFEK_clean_sbu_0, # of connection points: 5
#     Node 13, Type 0, BuildingBlock: BEQFEK_clean_sbu_0, # of connection points: 5
#     Node 14, Type 0, BuildingBlock: BEQFEK_clean_sbu_0, # of connection points: 5
#     Node 15, Type 0, BuildingBlock: BEQFEK_clean_sbu_0, # of connection points: 5
#     Edge 16, Type (0, 0), BuildingBlock: XIVTED_clean_linker_0, # of connection points: 2
#     Edge 17, Type (0, 0), BuildingBlock: XIVTED_clean_linker_0, # of connection points: 2
#     Edge 18, Type (0, 0), BuildingBlock: XIVTED_clean_linker_0, # of connection points: 2
#     Edge 19, Type (0, 0), BuildingBlock: XIVTED_clean_linker_0, # of connection points: 2
#     Edge 20, Type (0, 0), BuildingBlock: XIVTED_clean_linker_0, # of connection points: 2
#     Edge 21, Type (0, 0), BuildingBlock: XIVTED_clean_linker_0, # of connection points: 2
#     Edge 22, Type (0, 0), BuildingBlock: XIVTED_clean_linker_0, # of connection points: 2
#     Edge 23, Type (0, 0), BuildingBlock: XIVTED_clean_linker_0, # of connection points: 2
#     Edge 24, Type (0, 0), BuildingBlock: XIVTED_clean_linker_0, # of connection points: 2
#     Edge 25, Type (0, 0), BuildingBlock: XIVTED_clean_linker_0, # of connection points: 2
#     Edge 26, Type (0, 0), BuildingBlock: XIVTED_clean_linker_0, # of connection points: 2
#     Edge 27, Type (0, 0), BuildingBlock: XIVTED_clean_linker_0, # of connection points: 2
#     Edge 28, Type (0, 0), BuildingBlock: XIVTED_clean_linker_0, # of connection points: 2
#     Edge 29, Type (0, 0), BuildingBlock: XIVTED_clean_linker_0, # of connection points: 2
#     Edge 30, Type (0, 0), BuildingBlock: XIVTED_clean_linker_0, # of connection points: 2
#     Edge 31, Type (0, 0), BuildingBlock: XIVTED_clean_linker_0, # of connection points: 2
#     Edge 32, Type (0, 0), BuildingBlock: XIVTED_clean_linker_0, # of connection points: 2
#     Edge 33, Type (0, 0), BuildingBlock: XIVTED_clean_linker_0, # of connection points: 2
#     Edge 34, Type (0, 0), BuildingBlock: XIVTED_clean_linker_0, # of connection points: 2
#     Edge 35, Type (0, 0), BuildingBlock: XIVTED_clean_linker_0, # of connection points: 2
#     Edge 36, Type (0, 0), BuildingBlock: XIVTED_clean_linker_0, # of connection points: 2
#     Edge 37, Type (0, 0), BuildingBlock: XIVTED_clean_linker_0, # of connection points: 2
#     Edge 38, Type (0, 0), BuildingBlock: XIVTED_clean_linker_0, # of connection points: 2
#     Edge 39, Type (0, 0), BuildingBlock: XIVTED_clean_linker_0, # of connection points: 2
#     Edge 40, Type (0, 0), BuildingBlock: XIVTED_clean_linker_0, # of connection points: 2
#     Edge 41, Type (0, 0), BuildingBlock: XIVTED_clean_linker_0, # of connection points: 2
#     Edge 42, Type (0, 0), BuildingBlock: XIVTED_clean_linker_0, # of connection points: 2
#     Edge 43, Type (0, 0), BuildingBlock: XIVTED_clean_linker_0, # of connection points: 2
#     Edge 44, Type (0, 0), BuildingBlock: XIVTED_clean_linker_0, # of connection points: 2
#     Edge 45, Type (0, 0), BuildingBlock: XIVTED_clean_linker_0, # of connection points: 2
#     Edge 46, Type (0, 0), BuildingBlock: XIVTED_clean_linker_0, # of connection points: 2
#     Edge 47, Type (0, 0), BuildingBlock: XIVTED_clean_linker_0, # of connection points: 2
#     Edge 48, Type (0, 0), BuildingBlock: XIVTED_clean_linker_0, # of connection points: 2
#     Edge 49, Type (0, 0), BuildingBlock: XIVTED_clean_linker_0, # of connection points: 2
#     Edge 50, Type (0, 0), BuildingBlock: XIVTED_clean_linker_0, # of connection points: 2
#     Edge 51, Type (0, 0), BuildingBlock: XIVTED_clean_linker_0, # of connection points: 2
#     Edge 52, Type (0, 0), BuildingBlock: XIVTED_clean_linker_0, # of connection points: 2
#     Edge 53, Type (0, 0), BuildingBlock: XIVTED_clean_linker_0, # of connection points: 2
#     Edge 54, Type (0, 0), BuildingBlock: XIVTED_clean_linker_0, # of connection points: 2
#     Edge 55, Type (0, 0), BuildingBlock: XIVTED_clean_linker_0, # of connection points: 2
# Relax obj value: 0.316
# Max RMSD: 0.194
# Mean RMSD: 0.194
data_MOF--net-vbe--node1-BEQFEK_clean_sbu_0--edge1-XIVTED_clean_linker_0
_symmetry_space_group_name_H-M    P1
_symmetry_Int_Tables_number       1
_symmetry_cell_setting            triclinic
loop_
_symmetry_equiv_pos_as_xyz
'x, y, z'
_cell_length_a     45.573689
_cell_length_b     40.728379
_cell_length_c     57.76029
_cell_angle_alpha  90.015302
_cell_angle_beta   89.926744
_cell_angle_gamma 90.186116
loop_
_atom_site_label
_atom_site_type_symbol
_atom_site_fract_x
_atom_site_fract_y
_atom_site_fract_z
_atom_type_partial_charge
Co0 Co 0.09293 0.12125 0.32919 0.0
Co1 Co 0.06128 0.0715 0.36232 0.0
C2 C 0.04981 0.1437 0.36454 0.0
O3 O 0.06796 0.1498 0.34833 0.0
O4 O 0.04487 0.1145 0.37137 0.0
C5 C 0.1246 0.17837 0.31314 0.0
O6 O 0.11731 0.19099 0.33327 0.0
C7 C 0.04348 0.04464 0.40661 0.0
C8 C 0.02949 0.99421 0.39763 0.0
C9 C 0.03176 0.01609 0.41593 0.0
N10 N 0.04762 0.03994 0.38387 0.0
N11 N 0.03927 0.00978 0.37855 0.0
C12 C 0.05231 0.07536 0.41903 0.0
H13 H 0.07087 0.08742 0.40986 0.0
H14 H 0.05874 0.06995 0.43716 0.0
H15 H 0.03355 0.09265 0.41919 0.0
C16 C 0.14498 0.09007 0.3493 0.0
N17 N 0.11586 0.09448 0.34831 0.0
N18 N 0.10278 0.07297 0.36187 0.0
C19 C 0.12326 0.05379 0.37173 0.0
C20 C 0.15068 0.06403 0.36405 0.0
C21 C 0.16668 0.10937 0.33533 0.0
H22 H 0.16288 0.13595 0.33811 0.0
H23 H 0.18961 0.10353 0.34022 0.0
H24 H 0.16334 0.10409 0.31667 0.0
O25 O 0.06844 0.09381 0.30843 0.0
O26 O 0.04564 0.05888 0.33186 0.0
H27 H 0.13601 0.00858 0.38896 0.0
H28 H 0.10626 0.0309 0.40221 0.0
C29 C 0.11627 0.0236 0.38549 0.0
H30 H 0.10009 0.00842 0.37593 0.0
H31 H 0.04007 -8e-05 0.36188 0.0
O32 O 0.11734 0.14894 0.30852 0.0
C33 C 0.05073 0.07002 0.3117 0.0
Co34 Co 0.38625 0.86649 0.33533 0.0
Co35 Co 0.41968 0.91526 0.36822 0.0
C36 C 0.4301 0.84267 0.36942 0.0
O37 O 0.41121 0.83704 0.35369 0.0
O38 O 0.43571 0.8717 0.37629 0.0
C39 C 0.35352 0.8104 0.31827 0.0
O40 O 0.36072 0.79661 0.33801 0.0
C41 C 0.43567 0.944 0.41289 0.0
C42 C 0.45906 0.98908 0.40204 0.0
C43 C 0.4511 0.97088 0.42133 0.0
N44 N 0.43458 0.94633 0.38971 0.0
N45 N 0.44835 0.97346 0.38334 0.0
C46 C 0.42394 0.91537 0.4263 0.0
H47 H 0.44025 0.90721 0.43933 0.0
H48 H 0.41817 0.89476 0.41464 0.0
H49 H 0.40372 0.92285 0.43558 0.0
C50 C 0.33542 0.89946 0.35583 0.0
N51 N 0.36435 0.89364 0.35502 0.0
N52 N 0.37813 0.91496 0.36827 0.0
C53 C 0.35833 0.93556 0.37762 0.0
C54 C 0.33061 0.92635 0.37003 0.0
C55 C 0.31322 0.88125 0.34167 0.0
H56 H 0.31666 0.88696 0.32308 0.0
H57 H 0.31631 0.85447 0.34405 0.0
H58 H 0.29047 0.88781 0.34671 0.0
O59 O 0.41075 0.89373 0.31446 0.0
O60 O 0.43482 0.92796 0.33759 0.0
H61 H 0.38469 0.97894 0.38127 0.0
H62 H 0.34755 0.98356 0.39162 0.0
C63 C 0.36632 0.96641 0.3903 0.0
H64 H 0.37369 0.96001 0.40801 0.0
H65 H 0.45113 0.98085 0.36618 0.0
O66 O 0.36109 0.83996 0.31444 0.0
C67 C 0.42896 0.91709 0.31749 0.0
Co68 Co 0.59227 0.88025 0.15999 0.0
Co69 Co 0.55323 0.92257 0.12688 0.0
C70 C 0.5464 0.84978 0.12972 0.0
O71 O 0.56709 0.8473 0.1444 0.0
O72 O 0.53866 0.87748 0.12164 0.0
C73 C 0.62931 0.82774 0.17594 0.0
O74 O 0.62265 0.81396 0.15605 0.0
C75 C 0.52705 0.94419 0.08347 0.0
C76 C 0.51374 0.99505 0.09176 0.0
C77 C 0.51374 0.97181 0.07426 0.0
N78 N 0.53485 0.95098 0.10536 0.0
N79 N 0.52679 0.98134 0.11026 0.0
C80 C 0.53047 0.91102 0.07263 0.0
H81 H 0.51497 0.8937 0.08107 0.0
H82 H 0.55301 0.90178 0.07576 0.0
H83 H 0.52572 0.91116 0.05384 0.0
C84 C 0.63948 0.91407 0.13435 0.0
N85 N 0.61099 0.9073 0.1381 0.0
N86 N 0.59478 0.92492 0.12397 0.0
C87 C 0.61256 0.94333 0.11054 0.0
C88 C 0.64147 0.93704 0.11665 0.0
C89 C 0.6638 0.90124 0.1492 0.0
H90 H 0.65696 0.90161 0.16763 0.0
H91 H 0.66831 0.87538 0.14434 0.0
H92 H 0.68419 0.9159 0.14727 0.0
O93 O 0.56808 0.90688 0.18115 0.0
O94 O 0.54004 0.93661 0.15788 0.0
H95 H 0.58911 0.98638 0.10042 0.0
H96 H 0.62043 0.97723 0.0822 0.0
C97 C 0.60201 0.96645 0.09223 0.0
H98 H 0.58747 0.95305 0.08011 0.0
H99 H 0.53013 0.99264 0.12626 0.0
O100 O 0.62009 0.85651 0.18022 0.0
C101 C 0.54807 0.92812 0.17808 0.0
Co102 Co 0.87871 0.1072 0.16341 0.0
Co103 Co 0.91648 0.07068 0.12624 0.0
C104 C 0.924 0.14171 0.13333 0.0
O105 O 0.90511 0.14055 0.1496 0.0
O106 O 0.93042 0.11634 0.12149 0.0
C107 C 0.84211 0.15888 0.18098 0.0
O108 O 0.84794 0.17309 0.16107 0.0
C109 C 0.9431 0.04754 0.08278 0.0
C110 C 0.95089 0.99534 0.09127 0.0
C111 C 0.9541 0.01839 0.0738 0.0
N112 N 0.93392 0.04179 0.10452 0.0
N113 N 0.93879 0.01064 0.10952 0.0
C114 C 0.93898 0.0796 0.07059 0.0
H115 H 0.92072 0.09356 0.07859 0.0
H116 H 0.93432 0.07563 0.05194 0.0
H117 H 0.95935 0.09442 0.07221 0.0
C118 C 0.8306 0.07663 0.13703 0.0
N119 N 0.8592 0.08317 0.14035 0.0
N120 N 0.87484 0.06795 0.1245 0.0
C121 C 0.85653 0.05145 0.11032 0.0
C122 C 0.8279 0.05643 0.11778 0.0
C123 C 0.80691 0.08688 0.15347 0.0
H124 H 0.81505 0.08554 0.17152 0.0
H125 H 0.80083 0.11272 0.14981 0.0
H126 H 0.7871 0.07117 0.15186 0.0
O127 O 0.9023 0.07812 0.18287 0.0
O128 O 0.93148 0.05556 0.15666 0.0
H129 H 0.87809 0.00942 0.09623 0.0
H130 H 0.84746 0.02369 0.0791 0.0
C131 C 0.86627 0.03147 0.08999 0.0
H132 H 0.88156 0.04615 0.07923 0.0
H133 H 0.93354 -0.00025 0.12535 0.0
O134 O 0.85169 0.13013 0.18475 0.0
C135 C 0.92365 0.05958 0.17761 0.0
Co136 Co 0.88497 0.87154 0.66268 0.0
Co137 Co 0.92108 0.91495 0.62792 0.0
C138 C 0.92929 0.8427 0.62987 0.0
O139 O 0.90976 0.83979 0.64554 0.0
O140 O 0.93612 0.87054 0.62144 0.0
C141 C 0.85002 0.81732 0.67927 0.0
O142 O 0.85555 0.80454 0.65885 0.0
C143 C 0.94596 0.93923 0.58456 0.0
C144 C 0.95551 0.99107 0.59317 0.0
C145 C 0.95757 0.96808 0.57555 0.0
N146 N 0.93766 0.94494 0.60648 0.0
N147 N 0.9435 0.9759 0.61158 0.0
C148 C 0.94048 0.90746 0.57224 0.0
H149 H 0.92146 0.89449 0.58009 0.0
H150 H 0.9362 0.91168 0.55357 0.0
H151 H 0.96007 0.89156 0.57401 0.0
C152 C 0.83578 0.90626 0.64044 0.0
N153 N 0.8644 0.89876 0.64207 0.0
N154 N 0.87939 0.91627 0.62697 0.0
C155 C 0.86063 0.93501 0.61481 0.0
C156 C 0.83238 0.92948 0.62302 0.0
C157 C 0.81304 0.89431 0.6572 0.0
H158 H 0.82263 0.89252 0.67478 0.0
H159 H 0.80567 0.86943 0.65191 0.0
H160 H 0.79379 0.91086 0.65787 0.0
O161 O 0.90992 0.89848 0.68304 0.0
O162 O 0.93599 0.92861 0.65847 0.0
H163 H 0.88144 0.97925 0.60337 0.0
H164 H 0.85051 0.96673 0.58579 0.0
C165 C 0.86967 0.95791 0.59582 0.0
H166 H 0.88478 0.94512 0.58384 0.0
H167 H 0.93917 0.98669 0.62761 0.0
O168 O 0.85901 0.8462 0.68372 0.0
C169 C 0.92944 0.92011 0.67901 0.0
Co170 Co 0.60104 0.12926 0.65635 0.0
Co171 Co 0.56132 0.07871 0.6297 0.0
C172 C 0.55646 0.15205 0.62295 0.0
O173 O 0.5782 0.15851 0.63603 0.0
O174 O 0.54773 0.12268 0.61972 0.0
C175 C 0.6334 0.18576 0.67314 0.0
O176 O 0.62244 0.20086 0.65503 0.0
C177 C 0.53653 0.04949 0.58823 0.0
C178 C 0.5202 0.00143 0.60069 0.0
C179 C 0.52254 0.02095 0.58114 0.0
N180 N 0.54257 0.04677 0.61086 0.0
N181 N 0.5327 0.01808 0.61828 0.0
C182 C 0.54233 0.08003 0.57449 0.0
H183 H 0.52659 0.09924 0.58001 0.0
H184 H 0.56477 0.08925 0.57825 0.0
H185 H 0.53962 0.07626 0.55564 0.0
C186 C 0.64758 0.08706 0.63714 0.0
N187 N 0.61927 0.09572 0.63925 0.0
N188 N 0.60278 0.07489 0.62763 0.0
C189 C 0.62016 0.05244 0.61744 0.0
C190 C 0.64912 0.05932 0.62318 0.0
C191 C 0.67196 0.10322 0.6503 0.0
H192 H 0.66511 0.10697 0.66854 0.0
H193 H 0.67641 0.12773 0.64266 0.0
H194 H 0.69234 0.08846 0.65006 0.0
O195 O 0.57376 0.11042 0.67915 0.0
O196 O 0.5476 0.07168 0.66172 0.0
H197 H 0.59523 0.00834 0.61277 0.0
H198 H 0.62733 0.01114 0.59432 0.0
C199 C 0.60917 0.02516 0.60236 0.0
H200 H 0.59555 0.03554 0.58831 0.0
H201 H 0.53446 0.00991 0.63534 0.0
O202 O 0.6288 0.15517 0.6756 0.0
C203 C 0.55433 0.08797 0.67973 0.0
Co204 Co 0.3782 0.14196 0.84009 0.0
Co205 Co 0.41409 0.08747 0.86589 0.0
C206 C 0.42277 0.16044 0.87432 0.0
O207 O 0.40174 0.16894 0.86116 0.0
O208 O 0.42998 0.13044 0.87682 0.0
C209 C 0.34962 0.19999 0.82162 0.0
O210 O 0.36269 0.21585 0.83854 0.0
C211 C 0.43098 0.05205 0.90769 0.0
C212 C 0.45529 0.00977 0.89337 0.0
C213 C 0.44657 0.02421 0.91399 0.0
N214 N 0.43039 0.05375 0.88449 0.0
N215 N 0.44479 0.02833 0.87601 0.0
C216 C 0.41842 0.07789 0.92323 0.0
H217 H 0.41349 0.10054 0.91339 0.0
H218 H 0.39757 0.06879 0.93083 0.0
H219 H 0.43385 0.0835 0.93756 0.0
C220 C 0.32899 0.1032 0.85821 0.0
N221 N 0.3578 0.10969 0.85672 0.0
N222 N 0.3726 0.08623 0.86705 0.0
C223 C 0.35361 0.06349 0.875 0.0
C224 C 0.32533 0.07364 0.86976 0.0
C225 C 0.3057 0.12418 0.84762 0.0
H226 H 0.31061 0.15044 0.85104 0.0
H227 H 0.28368 0.118 0.85464 0.0
H228 H 0.30569 0.12048 0.82859 0.0
O229 O 0.40487 0.12172 0.81726 0.0
O230 O 0.42789 0.08027 0.83411 0.0
H231 H 0.38191 0.02147 0.87431 0.0
H232 H 0.34467 0.01222 0.88258 0.0
C233 C 0.36261 0.03056 0.88405 0.0
H234 H 0.36874 0.03294 0.90254 0.0
H235 H 0.4479 0.02398 0.85837 0.0
O236 O 0.3519 0.16895 0.82052 0.0
C237 C 0.4226 0.0977 0.81638 0.0
Co238 Co 0.09957 0.86198 0.82963 0.0
Co239 Co 0.06516 0.90744 0.86407 0.0
C240 C 0.0562 0.83498 0.86371 0.0
O241 O 0.07508 0.8313 0.84766 0.0
O242 O 0.04976 0.8632 0.87169 0.0
C243 C 0.13311 0.80715 0.81221 0.0
O244 O 0.12666 0.7934 0.83216 0.0
C245 C 0.04419 0.93409 0.90797 0.0
C246 C 0.03169 0.98459 0.89809 0.0
C247 C 0.03251 0.96305 0.91663 0.0
N248 N 0.04982 0.93836 0.88537 0.0
N249 N 0.04225 0.96854 0.87953 0.0
C250 C 0.05188 0.90354 0.92096 0.0
H251 H 0.0705 0.89088 0.91238 0.0
H252 H 0.05771 0.9093 0.93916 0.0
H253 H 0.03273 0.88664 0.92088 0.0
C254 C 0.14976 0.89606 0.8505 0.0
N255 N 0.12102 0.88895 0.84975 0.0
N256 N 0.10681 0.90824 0.86418 0.0
C257 C 0.1262 0.92844 0.87455 0.0
C258 C 0.15403 0.92143 0.86614 0.0
C259 C 0.17216 0.88081 0.83492 0.0
H260 H 0.16723 0.88739 0.8167 0.0
H261 H 0.17086 0.85371 0.83646 0.0
H262 H 0.19473 0.88898 0.83935 0.0
O263 O 0.07472 0.88915 0.80927 0.0
O264 O 0.0499 0.92062 0.8337 0.0
H265 H 0.10264 0.97322 0.87939 0.0
H266 H 0.13685 0.9717 0.89498 0.0
C267 C 0.11761 0.95708 0.88931 0.0
H268 H 0.1057 0.94808 0.90481 0.0
H269 H 0.04436 0.97817 0.86287 0.0
O270 O 0.12498 0.83646 0.80838 0.0
C271 C 0.05589 0.91146 0.81322 0.0
Co272 Co 0.59786 0.62911 0.32829 0.0
Co273 Co 0.56453 0.58096 0.36162 0.0
C274 C 0.55652 0.65363 0.36429 0.0
O275 O 0.57471 0.65885 0.34796 0.0
O276 O 0.5502 0.6247 0.371 0.0
C277 C 0.63039 0.68493 0.31093 0.0
O278 O 0.62375 0.69844 0.33091 0.0
C279 C 0.5472 0.55403 0.40604 0.0
C280 C 0.53058 0.50472 0.39672 0.0
C281 C 0.53479 0.5258 0.41527 0.0
N282 N 0.54997 0.5499 0.38312 0.0
N283 N 0.54 0.52043 0.37759 0.0
C284 C 0.55809 0.58377 0.41864 0.0
H285 H 0.57649 0.59528 0.40894 0.0
H286 H 0.56544 0.5773 0.43636 0.0
H287 H 0.54008 0.60196 0.4199 0.0
C288 C 0.64875 0.59471 0.34757 0.0
N289 N 0.61987 0.6009 0.34698 0.0
N290 N 0.60604 0.5801 0.36062 0.0
C291 C 0.62573 0.55961 0.37014 0.0
C292 C 0.65345 0.56826 0.36218 0.0
C293 C 0.67103 0.6127 0.33331 0.0
H294 H 0.66747 0.60696 0.31474 0.0
H295 H 0.66811 0.63951 0.33565 0.0
H296 H 0.69375 0.60597 0.33826 0.0
O297 O 0.57173 0.60318 0.30786 0.0
O298 O 0.54777 0.56942 0.33141 0.0
H299 H 0.60016 0.51588 0.37444 0.0
H300 H 0.63647 0.51305 0.38649 0.0
C301 C 0.61756 0.52962 0.38373 0.0
H302 H 0.60874 0.53719 0.40081 0.0
H303 H 0.5396 0.51108 0.36077 0.0
O304 O 0.62273 0.65542 0.30704 0.0
C305 C 0.55304 0.58039 0.31125 0.0
Co306 Co 0.87884 0.35611 0.33262 0.0
Co307 Co 0.91338 0.4047 0.36489 0.0
C308 C 0.92258 0.3322 0.36706 0.0
O309 O 0.90349 0.32689 0.35142 0.0
O310 O 0.92904 0.36115 0.37367 0.0
C311 C 0.84578 0.29976 0.31663 0.0
O312 O 0.85374 0.28625 0.33628 0.0
C313 C 0.93188 0.43713 0.40799 0.0
C314 C 0.95028 0.4836 0.3944 0.0
C315 C 0.94534 0.46628 0.41466 0.0
N316 N 0.92883 0.43747 0.38487 0.0
N317 N 0.93976 0.46534 0.37687 0.0
C318 C 0.92338 0.40871 0.42303 0.0
H319 H 0.9202 0.38617 0.41263 0.0
H320 H 0.90231 0.41424 0.43181 0.0
H321 H 0.94032 0.40444 0.43648 0.0
C322 C 0.82876 0.39054 0.35304 0.0
N323 N 0.85757 0.3841 0.35209 0.0
N324 N 0.87182 0.40501 0.36536 0.0
C325 C 0.85243 0.42588 0.37494 0.0
C326 C 0.82451 0.41735 0.36743 0.0
C327 C 0.80617 0.37311 0.33878 0.0
H328 H 0.8084 0.34624 0.34126 0.0
H329 H 0.78358 0.38059 0.34362 0.0
H330 H 0.81002 0.37854 0.32019 0.0
O331 O 0.90334 0.38216 0.31097 0.0
O332 O 0.92795 0.41601 0.33394 0.0
H333 H 0.87805 0.46986 0.37778 0.0
H334 H 0.84214 0.47301 0.39066 0.0
C335 C 0.86102 0.45643 0.38773 0.0
H336 H 0.8704 0.44956 0.40474 0.0
H337 H 0.94034 0.47176 0.35939 0.0
O338 O 0.85302 0.32933 0.31248 0.0
C339 C 0.92189 0.4052 0.31389 0.0
Co340 Co 0.09486 0.37551 0.16382 0.0
Co341 Co 0.05619 0.41177 0.12727 0.0
C342 C 0.05151 0.34004 0.1328 0.0
O343 O 0.0702 0.3413 0.14916 0.0
O344 O 0.04419 0.36568 0.12163 0.0
C345 C 0.13289 0.32494 0.18057 0.0
O346 O 0.12798 0.31163 0.16021 0.0
C347 C 0.03152 0.43404 0.08328 0.0
C348 C 0.01952 0.48523 0.09177 0.0
C349 C 0.01973 0.46248 0.07394 0.0
N350 N 0.038 0.43987 0.10556 0.0
N351 N 0.03052 0.47035 0.11062 0.0
C352 C 0.03933 0.40294 0.07095 0.0
H353 H 0.0575 0.39025 0.08003 0.0
H354 H 0.04588 0.40805 0.05279 0.0
H355 H 0.01995 0.38637 0.07082 0.0
C356 C 0.14195 0.41063 0.13916 0.0
N357 N 0.11372 0.40169 0.14159 0.0
N358 N 0.0977 0.41694 0.12603 0.0
C359 C 0.11542 0.43591 0.11294 0.0
C360 C 0.14402 0.43256 0.12083 0.0
C361 C 0.16557 0.4012 0.15586 0.0
H362 H 0.15675 0.40133 0.17376 0.0
H363 H 0.17298 0.3759 0.15186 0.0
H364 H 0.18465 0.41812 0.15495 0.0
O365 O 0.06969 0.40258 0.18357 0.0
O366 O 0.04012 0.42528 0.15772 0.0
H367 H 0.09119 0.47705 0.10031 0.0
H368 H 0.12378 0.46789 0.08361 0.0
C369 C 0.10516 0.45706 0.09339 0.0
H370 H 0.09184 0.44213 0.0813 0.0
H371 H 0.03352 0.4812 0.12681 0.0
O372 O 0.12237 0.3531 0.18495 0.0
C373 C 0.04786 0.42056 0.17859 0.0
Co374 Co 0.37723 0.62049 0.16227 0.0
Co375 Co 0.41478 0.57885 0.12754 0.0
C376 C 0.42173 0.65135 0.13055 0.0
O377 O 0.40182 0.65348 0.14597 0.0
O378 O 0.4291 0.62385 0.12191 0.0
C379 C 0.34171 0.67328 0.18002 0.0
O380 O 0.34736 0.68735 0.16004 0.0
C381 C 0.44075 0.55608 0.0841 0.0
C382 C 0.4506 0.5042 0.09229 0.0
C383 C 0.45242 0.52751 0.0749 0.0
N384 N 0.43205 0.54976 0.10586 0.0
N385 N 0.43807 0.51879 0.11069 0.0
C386 C 0.43966 0.58952 0.07335 0.0
H387 H 0.45433 0.60623 0.08318 0.0
H388 H 0.41704 0.59938 0.07471 0.0
H389 H 0.44691 0.58951 0.05505 0.0
C390 C 0.32901 0.58565 0.13847 0.0
N391 N 0.35752 0.5934 0.14095 0.0
N392 N 0.37317 0.57656 0.12594 0.0
C393 C 0.35497 0.55797 0.11305 0.0
C394 C 0.3264 0.56293 0.12063 0.0
C395 C 0.3055 0.59705 0.1547 0.0
H396 H 0.31415 0.598 0.17262 0.0
H397 H 0.29875 0.62224 0.14973 0.0
H398 H 0.28602 0.58068 0.15432 0.0
O399 O 0.40228 0.59373 0.18256 0.0
O400 O 0.42931 0.56476 0.15808 0.0
H401 H 0.37678 0.51466 0.10128 0.0
H402 H 0.34602 0.52675 0.08346 0.0
C403 C 0.36481 0.53585 0.09387 0.0
H404 H 0.37993 0.54943 0.08227 0.0
H405 H 0.43365 0.50764 0.12659 0.0
O406 O 0.35063 0.6442 0.18358 0.0
C407 C 0.42221 0.5727 0.1786 0.0
Co408 Co 0.38379 0.37214 0.6555 0.0
Co409 Co 0.42273 0.41747 0.62405 0.0
C410 C 0.42953 0.34458 0.62368 0.0
O411 O 0.40891 0.3405 0.63836 0.0
O412 O 0.43717 0.37307 0.61688 0.0
C413 C 0.34999 0.31775 0.67458 0.0
O414 O 0.35978 0.30074 0.65687 0.0
C415 C 0.45037 0.44345 0.5823 0.0
C416 C 0.46111 0.49428 0.59284 0.0
C417 C 0.46321 0.47238 0.57455 0.0
N418 N 0.44131 0.44807 0.60416 0.0
N419 N 0.4479 0.4784 0.61043 0.0
C420 C 0.44437 0.41276 0.56881 0.0
H421 H 0.42486 0.39986 0.57594 0.0
H422 H 0.44061 0.41845 0.55026 0.0
H423 H 0.46352 0.39614 0.57025 0.0
C424 C 0.33662 0.40867 0.63184 0.0
N425 N 0.36504 0.40108 0.63487 0.0
N426 N 0.38131 0.41968 0.62131 0.0
C427 C 0.36369 0.43939 0.60887 0.0
C428 C 0.33479 0.43321 0.61519 0.0
C429 C 0.3124 0.39518 0.64662 0.0
H430 H 0.31955 0.39457 0.66496 0.0
H431 H 0.30763 0.36957 0.6412 0.0
H432 H 0.29211 0.40998 0.64534 0.0
O433 O 0.40799 0.39732 0.67749 0.0
O434 O 0.43566 0.42938 0.65543 0.0
H435 H 0.38638 0.48381 0.60034 0.0
H436 H 0.35611 0.4743 0.58117 0.0
C437 C 0.3744 0.46376 0.59138 0.0
H438 H 0.38976 0.45157 0.57929 0.0
H439 H 0.44319 0.48831 0.62668 0.0
O440 O 0.35603 0.34816 0.6759 0.0
C441 C 0.42767 0.41925 0.67525 0.0
Co442 Co 0.1012 0.61596 0.65742 0.0
Co443 Co 0.06334 0.57429 0.62289 0.0
C444 C 0.05524 0.64643 0.62705 0.0
O445 O 0.07554 0.64867 0.64211 0.0
O446 O 0.04806 0.61898 0.61818 0.0
C447 C 0.13731 0.66902 0.67434 0.0
O448 O 0.13132 0.68282 0.65434 0.0
C449 C 0.03605 0.55181 0.57991 0.0
C450 C 0.02705 0.4996 0.5879 0.0
C451 C 0.02421 0.52319 0.57082 0.0
N452 N 0.04576 0.54525 0.60134 0.0
N453 N 0.04027 0.51408 0.60605 0.0
C454 C 0.0363 0.58547 0.56948 0.0
H455 H 0.02171 0.6016 0.57979 0.0
H456 H 0.0588 0.59589 0.57044 0.0
H457 H 0.02846 0.58563 0.55135 0.0
C458 C 0.14918 0.58288 0.63229 0.0
N459 N 0.12067 0.59006 0.63527 0.0
N460 N 0.10487 0.57324 0.62032 0.0
C461 C 0.12294 0.55527 0.60695 0.0
C462 C 0.15162 0.56061 0.61416 0.0
C463 C 0.17286 0.59409 0.64845 0.0
H464 H 0.16439 0.59464 0.66644 0.0
H465 H 0.17963 0.61939 0.64366 0.0
H466 H 0.1923 0.57782 0.64778 0.0
O467 O 0.07749 0.58775 0.67793 0.0
O468 O 0.0503 0.55878 0.6535 0.0
H469 H 0.10149 0.51152 0.59537 0.0
H470 H 0.13148 0.52469 0.577 0.0
C471 C 0.11287 0.53314 0.58784 0.0
H472 H 0.09715 0.54642 0.57666 0.0
H473 H 0.04546 0.50274 0.62171 0.0
O474 O 0.12818 0.64005 0.67827 0.0
C475 C 0.05793 0.56614 0.674 0.0
Co476 Co 0.88877 0.61252 0.82665 0.0
Co477 Co 0.92443 0.56675 0.85993 0.0
C478 C 0.93331 0.63902 0.86023 0.0
O479 O 0.91407 0.64305 0.8445 0.0
O480 O 0.93975 0.6106 0.86776 0.0
C481 C 0.85432 0.66783 0.81135 0.0
O482 O 0.8609 0.68035 0.83167 0.0
C483 C 0.9481 0.53981 0.90272 0.0
C484 C 0.95656 0.48817 0.893 0.0
C485 C 0.9585 0.51019 0.91123 0.0
N486 N 0.94049 0.53544 0.88051 0.0
N487 N 0.94577 0.50463 0.87472 0.0
C488 C 0.94269 0.57096 0.91581 0.0
H489 H 0.92439 0.58482 0.90783 0.0
H490 H 0.93735 0.56575 0.9342 0.0
H491 H 0.96272 0.5865 0.91511 0.0
C492 C 0.8392 0.57847 0.84921 0.0
N493 N 0.86801 0.58476 0.84688 0.0
N494 N 0.88287 0.56608 0.86126 0.0
C495 C 0.8639 0.54766 0.87357 0.0
C496 C 0.83564 0.55477 0.86628 0.0
C497 C 0.81619 0.5924 0.83359 0.0
H498 H 0.8246 0.59348 0.81559 0.0
H499 H 0.81113 0.61782 0.8392 0.0
H500 H 0.79575 0.57757 0.83387 0.0
O501 O 0.91291 0.58606 0.8054 0.0
O502 O 0.93872 0.55438 0.82898 0.0
H503 H 0.8845 0.50294 0.88399 0.0
H504 H 0.85345 0.51442 0.90178 0.0
C505 C 0.87268 0.52382 0.89201 0.0
H506 H 0.88762 0.5361 0.90438 0.0
H507 H 0.94163 0.49476 0.85837 0.0
O508 O 0.86272 0.63891 0.80649 0.0
C509 C 0.932 0.56386 0.80872 0.0
Co510 Co 0.59502 0.37294 0.83228 0.0
Co511 Co 0.55894 0.4197 0.8649 0.0
C512 C 0.55303 0.34685 0.86779 0.0
O513 O 0.57188 0.34223 0.85181 0.0
O514 O 0.54582 0.37558 0.87428 0.0
C515 C 0.6284 0.31789 0.81398 0.0
O516 O 0.62032 0.30235 0.83288 0.0
C517 C 0.5355 0.44818 0.90755 0.0
C518 C 0.52545 0.49894 0.89653 0.0
C519 C 0.52465 0.47796 0.91538 0.0
N520 N 0.54282 0.45161 0.88517 0.0
N521 N 0.53668 0.48192 0.87864 0.0
C522 C 0.53708 0.4162 0.92028 0.0
H523 H 0.52176 0.39851 0.91207 0.0
H524 H 0.55954 0.40597 0.91873 0.0
H525 H 0.5309 0.4185 0.93875 0.0
C526 C 0.64413 0.41012 0.8527 0.0
N527 N 0.61543 0.40293 0.85104 0.0
N528 N 0.60047 0.42213 0.86505 0.0
C529 C 0.6193 0.44181 0.87646 0.0
C530 C 0.64754 0.43496 0.86895 0.0
C531 C 0.66711 0.39557 0.83728 0.0
H532 H 0.65881 0.39437 0.81926 0.0
H533 H 0.67173 0.37011 0.84304 0.0
H534 H 0.68774 0.41004 0.83748 0.0
O535 O 0.56894 0.39701 0.8112 0.0
O536 O 0.54293 0.42967 0.83402 0.0
H537 H 0.59799 0.48642 0.88624 0.0
H538 H 0.62969 0.47661 0.90372 0.0
C539 C 0.61044 0.46623 0.89451 0.0
H540 H 0.59602 0.45413 0.9074 0.0
H541 H 0.54019 0.49098 0.86197 0.0
O542 O 0.62126 0.3478 0.81137 0.0
C543 C 0.54935 0.41877 0.81405 0.0
H544 H 0.98124 0.04149 0.17518 0.0
H545 H -0.00125 0.03632 0.3125 0.0
H546 H 0.90856 0.0493 0.22286 0.0
H547 H 0.0649 0.07372 0.26578 0.0
H548 H 0.96827 0.02174 0.27913 0.0
H549 H 0.01428 0.03319 0.20801 0.0
C550 C 0.9721 0.04054 0.19249 0.0
C551 C 0.94221 0.04671 0.19639 0.0
C552 C -0.01031 0.03261 0.27626 0.0
C553 C 0.9798 0.0372 0.23379 0.0
C554 C 0.00711 0.04089 0.29523 0.0
C555 C 0.03416 0.05677 0.29186 0.0
C556 C -0.00036 0.03982 0.25384 0.0
C557 C 0.04396 0.06202 0.26913 0.0
C558 C -0.00901 0.036 0.21118 0.0
C559 C 0.93155 0.04519 0.21916 0.0
N560 N 0.02659 0.05377 0.25094 0.0
N561 N 0.95041 0.04095 0.23707 0.0
H562 H 0.49179 0.95089 0.17919 0.0
H563 H 0.48277 0.94689 0.31709 0.0
H564 H 0.56626 0.93109 0.22308 0.0
H565 H 0.412 0.91668 0.27218 0.0
H566 H 0.51215 0.96086 0.28288 0.0
H567 H 0.46148 0.95868 0.21378 0.0
C568 C 0.50194 0.94904 0.19608 0.0
C569 C 0.53143 0.93979 0.19834 0.0
C570 C 0.48999 0.95172 0.28063 0.0
C571 C 0.49703 0.94881 0.23772 0.0
C572 C 0.47321 0.94382 0.30006 0.0
C573 C 0.44513 0.93012 0.29738 0.0
C574 C 0.47833 0.94642 0.25847 0.0
C575 C 0.43376 0.92669 0.27495 0.0
C576 C 0.48461 0.95332 0.21575 0.0
C577 C 0.54347 0.93769 0.22063 0.0
N578 N 0.4505 0.9346 0.25631 0.0
N579 N 0.52613 0.94187 0.23952 0.0
H580 H 0.98539 0.94418 0.67755 0.0
H581 H 0.00232 0.94126 0.81486 0.0
H582 H 0.914 0.92361 0.72462 0.0
H583 H 0.07079 0.91233 0.76737 0.0
H584 H 0.97124 0.95544 0.78182 0.0
H585 H 0.01768 0.9535 0.71079 0.0
C586 C 0.97632 0.94247 0.69486 0.0
C587 C 0.94716 0.93252 0.69843 0.0
C588 C -0.00671 0.94657 0.77874 0.0
C589 C 0.98378 0.94333 0.73623 0.0
C590 C 0.01104 0.93853 0.79751 0.0
C591 C 0.03894 0.925 0.79377 0.0
C592 C 0.00374 0.94152 0.75618 0.0
C593 C 0.0492 0.92211 0.77096 0.0
C594 C -0.00523 0.94765 0.71375 0.0
C595 C 0.93651 0.93069 0.72118 0.0
N596 N 0.03147 0.93005 0.75297 0.0
N597 N 0.95493 0.93572 0.73928 0.0
H598 H 0.51884 0.03616 0.69267 0.0
H599 H 0.432 0.14152 0.78176 0.0
H600 H 0.54943 0.13159 0.71497 0.0
H601 H 0.45204 0.04216 0.8025 0.0
H602 H 0.46475 0.13534 0.74867 0.0
H603 H 0.48537 0.03479 0.72629 0.0
C604 C 0.51876 0.05655 0.70471 0.0
C605 C 0.53683 0.08407 0.70102 0.0
C606 C 0.46167 0.11484 0.76039 0.0
C607 C 0.49849 0.08293 0.73855 0.0
C608 C 0.4429 0.1182 0.77916 0.0
C609 C 0.43951 0.09237 0.79499 0.0
C610 C 0.47669 0.08528 0.75713 0.0
C611 C 0.45432 0.06273 0.79076 0.0
C612 C 0.49978 0.05569 0.72376 0.0
C613 C 0.53595 0.10986 0.71711 0.0
N614 N 0.47239 0.0599 0.77209 0.0
N615 N 0.5167 0.10889 0.73495 0.0
H616 H 0.56752 0.58197 0.26539 0.0
H617 H 0.4065 0.56918 0.22419 0.0
H618 H 0.499 0.55128 0.31238 0.0
H619 H 0.47838 0.54969 0.17747 0.0
H620 H 0.43944 0.56021 0.25693 0.0
H621 H 0.53558 0.56845 0.23277 0.0
C622 C 0.54588 0.572 0.26881 0.0
C623 C 0.53568 0.56816 0.29156 0.0
C624 C 0.44782 0.55716 0.23951 0.0
C625 C 0.49904 0.55305 0.25446 0.0
C626 C 0.42908 0.56238 0.22084 0.0
C627 C 0.43989 0.56067 0.19814 0.0
C628 C 0.47765 0.55104 0.23537 0.0
C629 C 0.46923 0.55148 0.19473 0.0
C630 C 0.52775 0.56408 0.25022 0.0
C631 C 0.50761 0.5548 0.29507 0.0
N632 N 0.48732 0.54777 0.21318 0.0
N633 N 0.48997 0.54836 0.27669 0.0
H634 H 0.97316 0.44016 0.31402 0.0
H635 H 0.98955 0.43555 0.1766 0.0
H636 H 0.90755 0.40005 0.26802 0.0
H637 H 0.06281 0.43091 0.22378 0.0
H638 H 0.95643 0.44199 0.20969 0.0
H639 H 0.00283 0.45549 0.28037 0.0
C640 C 0.96476 0.43505 0.29685 0.0
C641 C 0.9381 0.41826 0.29378 0.0
C642 C 0.97983 0.44026 0.21268 0.0
C643 C 0.97173 0.43609 0.25542 0.0
C644 C -0.00125 0.4368 0.19386 0.0
C645 C 0.02888 0.43211 0.19755 0.0
C646 C -0.00875 0.43949 0.23521 0.0
C647 C 0.03964 0.43391 0.22025 0.0
C648 C 0.98172 0.4438 0.27771 0.0
C649 C 0.92822 0.41244 0.27115 0.0
N650 N 0.02078 0.43713 0.23829 0.0
N651 N 0.94517 0.42114 0.25279 0.0
H652 H 0.56718 0.42035 0.76905 0.0
H653 H 0.40897 0.41745 0.72018 0.0
H654 H 0.49311 0.44171 0.81311 0.0
H655 H 0.48243 0.44646 0.67748 0.0
H656 H 0.43871 0.42769 0.75465 0.0
H657 H 0.53669 0.43109 0.73515 0.0
C658 C 0.54458 0.42773 0.77156 0.0
C659 C 0.53247 0.42978 0.79382 0.0
C660 C 0.44809 0.43246 0.73774 0.0
C661 C 0.49748 0.4416 0.75526 0.0
C662 C 0.43121 0.42647 0.71809 0.0
C663 C 0.44344 0.43066 0.69599 0.0
C664 C 0.47755 0.44191 0.73519 0.0
C665 C 0.47223 0.44271 0.69421 0.0
C666 C 0.52726 0.43404 0.75225 0.0
C667 C 0.50319 0.43974 0.79619 0.0
N668 N 0.48857 0.44725 0.71359 0.0
N669 N 0.48644 0.44463 0.77707 0.0
H670 H 0.91531 0.56283 0.76336 0.0
H671 H 0.07508 0.56218 0.71922 0.0
H672 H 0.98669 0.53671 0.80875 0.0
H673 H 0.00302 0.53914 0.6735 0.0
H674 H 0.04373 0.54936 0.75236 0.0
H675 H 0.94657 0.55089 0.73004 0.0
C676 C 0.93742 0.55407 0.76629 0.0
C677 C 0.94864 0.55127 0.78878 0.0
C678 C 0.03499 0.54638 0.73505 0.0
C679 C 0.98454 0.53807 0.75087 0.0
C680 C 0.05282 0.55384 0.71616 0.0
C681 C 0.04143 0.55228 0.69365 0.0
C682 C 0.00543 0.53814 0.73136 0.0
C683 C 0.01257 0.54097 0.6906 0.0
C684 C 0.95519 0.54708 0.74729 0.0
C685 C 0.9773 0.53945 0.79166 0.0
N686 N -0.0047 0.53507 0.70931 0.0
N687 N -0.00546 0.534 0.77288 0.0
H688 H 0.1427 0.15993 0.26985 0.0
H689 H 0.14463 0.34433 0.22501 0.0
H690 H 0.13519 0.24466 0.31437 0.0
H691 H 0.1469 0.25953 0.18019 0.0
H692 H 0.15271 0.30855 0.25826 0.0
H693 H 0.15542 0.1961 0.23767 0.0
C694 C 0.14413 0.18612 0.27296 0.0
C695 C 0.13725 0.19935 0.29474 0.0
C696 C 0.15193 0.29781 0.24112 0.0
C697 C 0.15164 0.24092 0.25789 0.0
C698 C 0.14737 0.31824 0.22209 0.0
C699 C 0.1444 0.30481 0.19982 0.0
C700 C 0.15334 0.26368 0.23788 0.0
C701 C 0.14859 0.27091 0.19707 0.0
C702 C 0.15141 0.20677 0.25455 0.0
C703 C 0.1399 0.23341 0.29781 0.0
N704 N 0.15233 0.25144 0.21593 0.0
N705 N 0.14644 0.25307 0.27949 0.0
H706 H 0.32882 0.73902 0.18099 0.0
H707 H 0.34008 0.74469 0.31833 0.0
H708 H 0.33136 0.65289 0.22449 0.0
H709 H 0.33823 0.83076 0.27475 0.0
H710 H 0.32714 0.711 0.28484 0.0
H711 H 0.32215 0.77293 0.21547 0.0
C712 C 0.32741 0.72714 0.19773 0.0
C713 C 0.33129 0.69311 0.19987 0.0
C714 C 0.32915 0.73732 0.28266 0.0
C715 C 0.32403 0.73185 0.23946 0.0
C716 C 0.33652 0.75659 0.30181 0.0
C717 C 0.34082 0.79053 0.29927 0.0
C718 C 0.32623 0.75207 0.26079 0.0
C719 C 0.33561 0.80461 0.27746 0.0
C720 C 0.3237 0.74655 0.21745 0.0
C721 C 0.32897 0.67909 0.22202 0.0
N722 N 0.32902 0.78527 0.25901 0.0
N723 N 0.32599 0.69856 0.24097 0.0
H724 H 0.64546 0.66503 0.26721 0.0
H725 H 0.6445 0.84813 0.21951 0.0
H726 H 0.64141 0.75117 0.31067 0.0
H727 H 0.64205 0.76197 0.17599 0.0
H728 H 0.65486 0.81323 0.25281 0.0
H729 H 0.65554 0.70016 0.2339 0.0
C730 C 0.64715 0.69131 0.26984 0.0
C731 C 0.64197 0.70523 0.29171 0.0
C732 C 0.65252 0.80199 0.23592 0.0
C733 C 0.6533 0.74562 0.25355 0.0
C734 C 0.64665 0.82192 0.21686 0.0
C735 C 0.64175 0.80789 0.19498 0.0
C736 C 0.65335 0.76775 0.23315 0.0
C737 C 0.64524 0.77383 0.19257 0.0
C738 C 0.65288 0.71137 0.25078 0.0
C739 C 0.64484 0.73938 0.29409 0.0
N740 N 0.65033 0.75487 0.2115 0.0
N741 N 0.64986 0.75845 0.27518 0.0
H742 H 0.82739 0.3199 0.27384 0.0
H743 H 0.82893 0.13756 0.22475 0.0
H744 H 0.83586 0.23331 0.31637 0.0
H745 H 0.82848 0.22441 0.18191 0.0
H746 H 0.81946 0.17176 0.25861 0.0
H747 H 0.8159 0.285 0.24071 0.0
C748 C 0.82638 0.29356 0.27632 0.0
C749 C 0.83324 0.27946 0.29782 0.0
C750 C 0.82096 0.1833 0.24176 0.0
C751 C 0.82029 0.23936 0.25986 0.0
C752 C 0.82632 0.16377 0.22238 0.0
C753 C 0.83017 0.17823 0.20051 0.0
C754 C 0.81958 0.21755 0.23929 0.0
C755 C 0.82612 0.21225 0.19847 0.0
C756 C 0.81983 0.27364 0.25736 0.0
C757 C 0.83114 0.24523 0.30006 0.0
N758 N 0.82154 0.23082 0.21768 0.0
N759 N 0.82531 0.22631 0.28121 0.0
H760 H 0.8387 0.64997 0.76732 0.0
H761 H 0.83773 0.83535 0.72395 0.0
H762 H 0.84297 0.7339 0.81288 0.0
H763 H 0.83771 0.75137 0.67832 0.0
H764 H 0.82919 0.79875 0.75674 0.0
H765 H 0.82794 0.68662 0.73504 0.0
C766 C 0.83692 0.67607 0.77063 0.0
C767 C 0.84232 0.68893 0.79279 0.0
C768 C 0.83061 0.78835 0.73952 0.0
C769 C 0.83024 0.7311 0.75579 0.0
C770 C 0.83544 0.80926 0.72075 0.0
C771 C 0.83903 0.79636 0.69837 0.0
C772 C 0.82952 0.75426 0.73594 0.0
C773 C 0.83548 0.76239 0.69528 0.0
C774 C 0.8308 0.69701 0.75215 0.0
C775 C 0.83934 0.72291 0.79605 0.0
N776 N 0.83138 0.74247 0.7139 0.0
N777 N 0.83395 0.74286 0.77768 0.0
H778 H 0.64425 0.34188 0.77144 0.0
H779 H 0.65114 0.16308 0.71556 0.0
H780 H 0.63995 0.25191 0.81083 0.0
H781 H 0.64103 0.25245 0.67623 0.0
H782 H 0.65946 0.19582 0.75036 0.0
H783 H 0.65532 0.31002 0.73674 0.0
C784 C 0.6461 0.31546 0.77291 0.0
C785 C 0.64058 0.29951 0.79404 0.0
C786 C 0.65588 0.20827 0.73405 0.0
C787 C 0.65312 0.26286 0.75425 0.0
C788 C 0.65122 0.18959 0.71411 0.0
C789 C 0.64477 0.20503 0.69298 0.0
C790 C 0.6541 0.24264 0.73288 0.0
C791 C 0.64549 0.23947 0.69219 0.0
C792 C 0.65237 0.29727 0.75304 0.0
C793 C 0.64364 0.26524 0.79488 0.0
N794 N 0.6496 0.25711 0.71191 0.0
N795 N 0.6493 0.24802 0.7752 0.0
H796 H 0.33807 0.25207 0.68004 0.0
H797 H 0.34344 0.26657 0.81642 0.0
H798 H 0.33514 0.3446 0.71646 0.0
H799 H 0.32982 0.17483 0.78048 0.0
H800 H 0.3337 0.29595 0.7804 0.0
H801 H 0.32823 0.22364 0.71649 0.0
C802 C 0.33482 0.26647 0.6956 0.0
C803 C 0.33801 0.30075 0.69523 0.0
C804 C 0.33234 0.26941 0.78046 0.0
C805 C 0.32716 0.26831 0.73711 0.0
C806 C 0.33788 0.2526 0.80107 0.0
C807 C 0.33799 0.21816 0.80142 0.0
C808 C 0.32723 0.25163 0.75998 0.0
C809 C 0.33038 0.20139 0.781 0.0
C810 C 0.32923 0.2502 0.71645 0.0
C811 C 0.33331 0.31811 0.71594 0.0
N812 N 0.32584 0.21826 0.76104 0.0
N813 N 0.32866 0.30168 0.73608 0.0
H814 H 0.15089 0.7347 0.67461 0.0
H815 H 0.14666 0.74157 0.8122 0.0
H816 H 0.14928 0.649 0.71859 0.0
H817 H 0.14656 0.82725 0.7682 0.0
H818 H 0.15775 0.70762 0.77846 0.0
H819 H 0.15965 0.76887 0.70869 0.0
C820 C 0.15293 0.72297 0.69136 0.0
C821 C 0.14872 0.68899 0.69378 0.0
C822 C 0.15573 0.73391 0.77623 0.0
C823 C 0.1584 0.72803 0.73292 0.0
C824 C 0.14945 0.75334 0.79552 0.0
C825 C 0.14509 0.78724 0.79296 0.0
C826 C 0.15753 0.74845 0.7542 0.0
C827 C 0.14926 0.80114 0.77094 0.0
C828 C 0.15784 0.74253 0.71084 0.0
C829 C 0.15188 0.67516 0.71592 0.0
N830 N 0.15481 0.78164 0.75237 0.0
N831 N 0.15605 0.69478 0.73466 0.0
H832 H 0.00403 0.05841 0.44555 0.0
H833 H -0.01029 0.92687 0.54768 0.0
H834 H 0.03581 0.95903 0.44024 0.0
H835 H 0.95334 0.02446 0.55068 0.0
H836 H 0.0082 0.93849 0.50885 0.0
H837 H 0.98725 0.04701 0.48478 0.0
C838 C 0.00802 0.03436 0.45282 0.0
C839 C 0.02201 0.00985 0.43988 0.0
C840 C -0.00398 0.95729 0.51795 0.0
C841 C 0.00198 -0.00375 0.48454 0.0
C842 C 0.98516 0.95054 0.54002 0.0
C843 C 0.96925 0.97444 0.55214 0.0
C844 C -0.00884 0.98828 0.50804 0.0
C845 C 0.96529 0.00525 0.54182 0.0
C846 C -0.00191 0.02773 0.47514 0.0
C847 C 0.02531 0.97866 0.44977 0.0
N848 N 0.97606 0.01125 0.52032 0.0
N849 N 0.01544 0.97275 0.47158 0.0
H850 H 0.42035 0.96224 0.46198 0.0
H851 H 0.55371 0.02395 0.54099 0.0
H852 H 0.50351 -0.00417 0.43502 0.0
H853 H 0.46921 -0.00348 0.56858 0.0
H854 H 0.5361 0.0114 0.50204 0.0
H855 H 0.43809 0.97241 0.50124 0.0
C856 C 0.44248 0.97126 0.46432 0.0
C857 C 0.46074 0.97753 0.44525 0.0
C858 C 0.5213 0.00825 0.51655 0.0
C859 C 0.48092 0.98997 0.49003 0.0
C860 C 0.53129 0.01564 0.53872 0.0
C861 C 0.51251 0.0122 0.55776 0.0
C862 C 0.49239 -0.00299 0.51348 0.0
C863 C 0.48414 -0.0001 0.55417 0.0
C864 C 0.4525 0.97739 0.48673 0.0
C865 C 0.48877 0.99057 0.44927 0.0
N866 N 0.47481 0.99294 0.53237 0.0
N867 N 0.49805 -0.00377 0.47121 0.0
H868 H 0.49803 -0.00416 0.92654 0.0
H869 H 0.46123 -0.00223 0.06194 0.0
H870 H 0.41462 0.02641 0.95446 0.0
H871 H 0.54137 0.95898 0.03336 0.0
H872 H 0.4434 0.00809 0.02262 0.0
H873 H 0.51372 0.98056 0.96546 0.0
C874 C 0.48301 -0.00066 0.94087 0.0
C875 C 0.45531 0.01336 0.93736 0.0
C876 C 0.46475 -0.00302 0.02492 0.0
C877 C 0.47308 -0.00402 0.98192 0.0
C878 C 0.4749 0.99117 0.04731 0.0
C879 C 0.50243 0.97684 0.05072 0.0
C880 C 0.48255 0.98886 0.00589 0.0
C881 C 0.51959 0.96911 0.03135 0.0
C882 C 0.492 0.9907 0.96309 0.0
C883 C 0.43661 0.01705 0.95648 0.0
N884 N 0.50938 0.97527 0.00972 0.0
N885 N 0.44592 0.00862 0.97798 0.0
H886 H 0.9871 0.05861 0.04548 0.0
H887 H 0.00334 0.92223 0.94666 0.0
H888 H 0.94911 0.96158 0.04958 0.0
H889 H 0.03646 0.0211 0.93975 0.0
H890 H 0.98509 0.93575 0.98514 0.0
H891 H 0.00646 0.04527 0.00718 0.0
C892 C 0.98235 0.03473 0.03817 0.0
C893 C 0.96585 0.01143 0.05049 0.0
C894 C -0.00346 0.95446 0.97531 0.0
C895 C 0.98874 0.99562 0.00703 0.0
C896 C 0.00731 0.9466 0.95343 0.0
C897 C 0.02206 0.97037 0.94025 0.0
C898 C 0.00038 0.98639 0.98402 0.0
C899 C 0.02536 0.00202 0.94947 0.0
C900 C -0.00629 0.02698 0.0164 0.0
C901 C 0.96158 0.98034 0.0406 0.0
N902 N 0.01467 0.00912 0.97085 0.0
N903 N 0.97288 0.97336 0.01944 0.0
H904 H 0.51093 0.56823 0.44688 0.0
H905 H 0.4948 0.432 0.54572 0.0
H906 H 0.53797 0.46756 0.43816 0.0
H907 H 0.46103 0.53051 0.55159 0.0
H908 H 0.51353 0.44525 0.50722 0.0
H909 H 0.49575 0.55576 0.48637 0.0
C910 C 0.51425 0.54365 0.45344 0.0
C911 C 0.52635 0.51904 0.43944 0.0
C912 C 0.50191 0.46392 0.51689 0.0
C913 C 0.50814 0.5043 0.48439 0.0
C914 C 0.49092 0.45626 0.53877 0.0
C915 C 0.47557 0.47992 0.55155 0.0
C916 C 0.49773 0.49557 0.50786 0.0
C917 C 0.4725 0.51146 0.54218 0.0
C918 C 0.50524 0.53643 0.47591 0.0
C919 C 0.52888 0.48725 0.4485 0.0
N920 N 0.48333 0.51833 0.52083 0.0
N921 N 0.51989 0.48077 0.47045 0.0
H922 H 0.04707 0.54109 0.529 0.0
H923 H 0.91769 0.45685 0.45656 0.0
H924 H 0.97371 0.49092 0.56041 0.0
H925 H -0.00543 0.50062 0.4255 0.0
H926 H 0.93612 0.47211 0.49471 0.0
H927 H 0.02636 0.52982 0.4908 0.0
C928 C 0.02628 0.52824 0.5278 0.0
C929 C 0.0116 0.51759 0.54775 0.0
C930 C 0.94902 0.47826 0.47955 0.0
C931 C 0.98825 0.50372 0.50426 0.0
C932 C 0.93866 0.4692 0.45777 0.0
C933 C 0.9551 0.47654 0.4379 0.0
C934 C 0.97589 0.49502 0.48142 0.0
C935 C 0.98137 0.49418 0.44043 0.0
C936 C 0.01461 0.52151 0.50603 0.0
C937 C 0.98545 0.49979 0.54534 0.0
N938 N -0.00894 0.50264 0.46182 0.0
N939 N 0.97453 0.49344 0.52394 0.0
H940 H 0.02728 0.51929 0.05014 0.0
H941 H 0.94979 0.45329 0.93492 0.0
H942 H -0.00816 0.42143 0.04324 0.0
H943 H -0.00941 0.54864 0.94088 0.0
H944 H 0.96511 0.44082 0.97452 0.0
H945 H 0.01315 0.53074 0.01022 0.0
C946 C 0.01659 0.50018 0.04016 0.0
C947 C 0.0112 0.46918 0.04981 0.0
C948 C 0.9706 0.46453 0.96719 0.0
C949 C -0.00511 0.48207 0.0042 0.0
C950 C 0.96193 0.47161 0.94461 0.0
C951 C 0.9683 0.50234 0.93488 0.0
C952 C 0.98592 0.48831 0.98002 0.0
C953 C 0.98428 0.52511 0.94802 0.0
C954 C 0.00863 0.50667 0.01736 0.0
C955 C -0.00281 0.44532 0.03623 0.0
N956 N -0.00755 0.51768 0.96997 0.0
N957 N 0.98949 0.45227 0.01406 0.0
H958 H 0.47518 0.51124 0.92683 0.0
H959 H 0.50271 0.496 0.06331 0.0
H960 H 0.55165 0.4659 0.95665 0.0
H961 H 0.42762 0.54424 0.03357 0.0
H962 H 0.52127 0.485 0.0243 0.0
H963 H 0.45785 0.52486 0.96581 0.0
C964 C 0.48821 0.50408 0.94166 0.0
C965 C 0.51435 0.4866 0.93872 0.0
C966 C 0.50087 0.49827 0.02627 0.0
C967 C 0.49499 0.50219 0.98316 0.0
C968 C 0.49031 0.50448 0.0485 0.0
C969 C 0.46407 0.52173 0.05151 0.0
C970 C 0.48479 0.50902 0.00699 0.0
C971 C 0.44849 0.53183 0.03189 0.0
C972 C 0.47836 0.51179 0.96386 0.0
C973 C 0.53079 0.47831 0.95832 0.0
N974 N 0.4591 0.52534 0.01041 0.0
N975 N 0.52075 0.48603 0.97977 0.0
H976 H 0.1822 0.04002 0.32835 0.0
H977 H 0.30006 0.94844 0.40765 0.0
H978 H 0.18057 0.04542 0.40287 0.0
H979 H 0.30226 0.95125 0.33307 0.0
H980 H 0.25633 0.98375 0.40707 0.0
H981 H 0.22667 0.00732 0.3303 0.0
C982 C 0.19156 0.03454 0.34514 0.0
C983 C 0.17815 0.04551 0.36548 0.0
C984 C 0.26637 0.97652 0.39086 0.0
C985 C 0.2286 0.0076 0.36799 0.0
C986 C 0.29113 0.95644 0.39122 0.0
C987 C 0.30417 0.94674 0.37037 0.0
C988 C 0.25495 0.98682 0.36948 0.0
C989 C 0.29233 0.95776 0.34947 0.0
C990 C 0.21681 0.01572 0.3463 0.0
C991 C 0.19056 0.0373 0.38686 0.0
N992 N 0.26833 0.97718 0.34955 0.0
N993 N 0.21522 0.01866 0.3876 0.0
H994 H 0.77538 0.08438 0.1073 0.0
H995 H 0.69323 0.91098 0.10194 0.0
H996 H 0.81945 0.99102 0.11059 0.0
H997 H 0.65 0.00313 0.11496 0.0
H998 H 0.73932 0.94074 0.09522 0.0
H999 H 0.72895 0.05564 0.10011 0.0
C1000 C 0.77525 0.05783 0.10611 0.0
C1001 C 0.801 0.03991 0.10971 0.0
C1002 C 0.71963 0.95448 0.09916 0.0
C1003 C 0.74836 0.00698 0.10161 0.0
C1004 C 0.69345 0.93754 0.10299 0.0
C1005 C 0.66805 0.95474 0.10913 0.0
C1006 C 0.72027 0.9888 0.10154 0.0
C1007 C 0.66917 0.98907 0.11014 0.0
C1008 C 0.74886 0.04146 0.10203 0.0
C1009 C 0.79998 0.00564 0.10781 0.0
N1010 N 0.69498 0.00501 0.10661 0.0
N1011 N 0.77396 0.99021 0.10414 0.0
H1012 H 0.65501 0.99353 0.62976 0.0
H1013 H 0.82701 -0.00407 0.62014 0.0
H1014 H 0.70228 0.07929 0.60652 0.0
H1015 H 0.77724 0.90603 0.61467 0.0
H1016 H 0.78183 0.02721 0.61528 0.0
H1017 H 0.69943 0.96082 0.62469 0.0
C1018 C 0.67468 0.0053 0.62319 0.0
C1019 C 0.67515 0.03903 0.61849 0.0
C1020 C 0.78083 0.00065 0.61477 0.0
C1021 C 0.72605 0.00213 0.61326 0.0
C1022 C 0.8066 0.9828 0.61741 0.0
C1023 C 0.80571 0.94842 0.61773 0.0
C1024 C 0.75397 0.98393 0.61293 0.0
C1025 C 0.77866 0.93257 0.61472 0.0
C1026 C 0.7 0.98669 0.62037 0.0
C1027 C 0.70125 0.05333 0.61051 0.0
N1028 N 0.75372 0.95048 0.61273 0.0
N1029 N 0.72585 0.03486 0.60839 0.0
H1030 H 0.30154 0.04258 0.90722 0.0
H1031 H 0.17867 0.95403 0.83042 0.0
H1032 H 0.28958 0.05806 0.83401 0.0
H1033 H 0.18634 0.93893 0.90401 0.0
H1034 H 0.2197 0.99244 0.83186 0.0
H1035 H 0.25917 0.0051 0.90716 0.0
C1036 C 0.2897 0.03828 0.89124 0.0
C1037 C 0.29863 0.05344 0.87064 0.0
C1038 C 0.21258 0.98074 0.84774 0.0
C1039 C 0.25084 0.01083 0.87031 0.0
C1040 C 0.18935 0.95869 0.84686 0.0
C1041 C 0.17961 0.94329 0.8671 0.0
C1042 C 0.2261 0.98748 0.86906 0.0
C1043 C 0.19357 0.9504 0.88807 0.0
C1044 C 0.26569 0.01696 0.89118 0.0
C1045 C 0.28296 0.0472 0.85031 0.0
N1046 N 0.21627 0.97208 0.88855 0.0
N1047 N 0.25986 0.02626 0.85064 0.0
H1048 H 0.79406 0.43967 0.40497 0.0
H1049 H 0.68357 0.54279 0.32618 0.0
H1050 H 0.79756 0.44407 0.33046 0.0
H1051 H 0.68239 0.54722 0.40074 0.0
H1052 H 0.72554 0.50612 0.32786 0.0
H1053 H 0.75257 0.47815 0.40447 0.0
C1054 C 0.78581 0.44861 0.38857 0.0
C1055 C 0.79867 0.43864 0.36773 0.0
C1056 C 0.71634 0.5152 0.34391 0.0
C1057 C 0.75204 0.48237 0.36692 0.0
C1058 C 0.69256 0.53631 0.34291 0.0
C1059 C 0.67996 0.54807 0.36335 0.0
C1060 C 0.72741 0.50561 0.36555 0.0
C1061 C 0.69179 0.53852 0.38465 0.0
C1062 C 0.76236 0.47054 0.38825 0.0
C1063 C 0.78773 0.45086 0.34685 0.0
N1064 N 0.71495 0.51764 0.38524 0.0
N1065 N 0.76501 0.47212 0.34698 0.0
H1066 H 0.32161 0.49652 0.11761 0.0
H1067 H 0.14808 0.49906 0.11718 0.0
H1068 H 0.27166 0.58562 0.1103 0.0
H1069 H 0.19866 0.41035 0.11022 0.0
H1070 H 0.1927 0.53141 0.11114 0.0
H1071 H 0.27698 0.46454 0.11144 0.0
C1072 C 0.30126 0.50931 0.11423 0.0
C1073 C 0.30014 0.54367 0.11446 0.0
C1074 C 0.19402 0.50488 0.11055 0.0
C1075 C 0.24889 0.50736 0.10804 0.0
C1076 C 0.16856 0.48646 0.11387 0.0
C1077 C 0.16992 0.45211 0.11423 0.0
C1078 C 0.221 0.48874 0.10791 0.0
C1079 C 0.19693 0.43686 0.11025 0.0
C1080 C 0.27576 0.49107 0.11083 0.0
C1081 C 0.27322 0.5591 0.11045 0.0
N1082 N 0.22154 0.4553 0.10753 0.0
N1083 N 0.2485 0.54081 0.10767 0.0
H1084 H 0.32924 0.49964 0.61571 0.0
H1085 H 0.15677 0.49425 0.6106 0.0
H1086 H 0.28123 0.41061 0.60121 0.0
H1087 H 0.20606 0.58425 0.60363 0.0
H1088 H 0.20181 0.46307 0.60475 0.0
H1089 H 0.28468 0.53131 0.60912 0.0
C1090 C 0.30936 0.48686 0.61068 0.0
C1091 C 0.30872 0.45256 0.609 0.0
C1092 C 0.20275 0.48962 0.60407 0.0
C1093 C 0.25758 0.48842 0.60205 0.0
C1094 C 0.17704 0.50741 0.60729 0.0
C1095 C 0.17789 0.54179 0.60762 0.0
C1096 C 0.22951 0.50642 0.60161 0.0
C1097 C 0.20471 0.5577 0.60372 0.0
C1098 C 0.28392 0.50491 0.607 0.0
C1099 C 0.28238 0.43706 0.60288 0.0
N1100 N 0.22962 0.53987 0.60119 0.0
N1101 N 0.25767 0.4551 0.59991 0.0
H1102 H 0.65533 0.50109 0.86807 0.0
H1103 H 0.82739 0.48874 0.86723 0.0
H1104 H 0.70071 0.41033 0.8814 0.0
H1105 H 0.78256 0.58054 0.87812 0.0
H1106 H 0.78135 0.45943 0.87368 0.0
H1107 H 0.70141 0.53103 0.87307 0.0
C1108 C 0.67499 0.48759 0.8725 0.0
C1109 C 0.67449 0.45331 0.87427 0.0
C1110 C 0.78162 0.48595 0.87504 0.0
C1111 C 0.72715 0.48709 0.87944 0.0
C1112 C 0.80787 0.50264 0.87144 0.0
C1113 C 0.80856 0.53699 0.87221 0.0
C1114 C 0.75583 0.50384 0.87895 0.0
C1115 C 0.78268 0.55399 0.87721 0.0
C1116 C 0.70124 0.50463 0.87528 0.0
C1117 C 0.70047 0.43679 0.87964 0.0
N1118 N 0.75716 0.53722 0.88013 0.0
N1119 N 0.72594 0.45383 0.88175 0.0
H1120 H -0.00124 0.13993 0.38951 0.0
H1121 H 0.9051 0.26825 0.3692 0.0
H1122 H 0.06144 0.20938 0.36182 0.0
H1123 H 0.97787 0.33236 0.38525 0.0
H1124 H 0.93597 0.22095 0.37753 0.0
H1125 H 0.96627 0.18562 0.39935 0.0
C1126 C 0.00587 0.16479 0.38579 0.0
C1127 C 0.03243 0.17088 0.37422 0.0
C1128 C 0.94494 0.24534 0.38001 0.0
C1129 C -0.00457 0.22287 0.38521 0.0
C1130 C 0.92742 0.27234 0.375 0.0
C1131 C 0.93914 0.30415 0.37624 0.0
C1132 C 0.97452 0.25028 0.38588 0.0
C1133 C 0.96809 0.30817 0.38397 0.0
C1134 C 0.98725 0.19076 0.39128 0.0
C1135 C 0.04079 0.20356 0.37018 0.0
N1136 N 0.98509 0.28144 0.38791 0.0
N1137 N 0.02218 0.22836 0.37547 0.0
H1138 H 0.48267 0.84567 0.39221 0.0
H1139 H 0.57406 0.71765 0.36551 0.0
H1140 H 0.41782 0.77711 0.3667 0.0
H1141 H 0.50281 0.65339 0.38529 0.0
H1142 H 0.54395 0.76487 0.37573 0.0
H1143 H 0.51564 0.79966 0.39995 0.0
C1144 C 0.47518 0.82093 0.38858 0.0
C1145 C 0.44781 0.81519 0.37819 0.0
C1146 C 0.53522 0.74045 0.37858 0.0
C1147 C 0.48536 0.76286 0.38678 0.0
C1148 C 0.55228 0.71351 0.37249 0.0
C1149 C 0.5407 0.68169 0.37427 0.0
C1150 C 0.50623 0.73545 0.38608 0.0
C1151 C 0.51247 0.67759 0.38355 0.0
C1152 C 0.49408 0.79479 0.39286 0.0
C1153 C 0.43904 0.78265 0.37418 0.0
N1154 N 0.49584 0.70428 0.38853 0.0
N1155 N 0.45793 0.75766 0.37827 0.0
H1156 H 0.56372 0.78565 0.13198 0.0
H1157 H 0.4045 0.71541 0.13408 0.0
H1158 H 0.48997 0.84681 0.11403 0.0
H1159 H 0.47735 0.65474 0.1131 0.0
H1160 H 0.4352 0.7642 0.12834 0.0
H1161 H 0.53274 0.73701 0.12664 0.0
C1162 C 0.54112 0.7888 0.12665 0.0
C1163 C 0.5293 0.82025 0.1236 0.0
C1164 C 0.44426 0.7402 0.12463 0.0
C1165 C 0.49379 0.76496 0.1179 0.0
C1166 C 0.42682 0.71241 0.12799 0.0
C1167 C 0.43849 0.68104 0.1242 0.0
C1168 C 0.47371 0.73648 0.11804 0.0
C1169 C 0.46751 0.6785 0.11622 0.0
C1170 C 0.52353 0.76109 0.12352 0.0
C1171 C 0.49993 0.82298 0.11658 0.0
N1172 N 0.48435 0.70586 0.11382 0.0
N1173 N 0.48298 0.79567 0.11438 0.0
H1174 H 0.93018 0.19153 0.16418 0.0
H1175 H 0.01835 0.32148 0.09503 0.0
H1176 H 0.9569 0.16139 0.09561 0.0
H1177 H 0.0475 0.28815 0.16216 0.0
H1178 H 0.98678 0.27228 0.09221 0.0
H1179 H 0.96266 0.23898 0.1612 0.0
C1180 C 0.9425 0.19512 0.14832 0.0
C1181 C 0.94098 0.17232 0.13015 0.0
C1182 C 0.00051 0.2758 0.10731 0.0
C1183 C 0.97788 0.22677 0.12671 0.0
C1184 C 0.0184 0.30371 0.10898 0.0
C1185 C 0.03546 0.30897 0.12891 0.0
C1186 C -0.00078 0.25385 0.12596 0.0
C1187 C 0.03476 0.28518 0.14648 0.0
C1188 C 0.96112 0.22208 0.14675 0.0
C1189 C 0.95763 0.17831 0.11006 0.0
N1190 N 0.01649 0.259 0.14478 0.0
N1191 N 0.97548 0.20517 0.1088 0.0
H1192 H 0.91249 0.77833 0.63234 0.0
H1193 H 0.07198 0.71075 0.6307 0.0
H1194 H 0.98494 0.84079 0.6124 0.0
H1195 H -0.00089 0.64899 0.61074 0.0
H1196 H 0.04076 0.75905 0.62569 0.0
H1197 H 0.9436 0.73023 0.62605 0.0
C1198 C 0.93482 0.78187 0.62635 0.0
C1199 C 0.94626 0.81352 0.62304 0.0
C1200 C 0.03181 0.73493 0.62205 0.0
C1201 C 0.98194 0.75887 0.61627 0.0
C1202 C 0.04953 0.70741 0.625 0.0
C1203 C 0.03802 0.67587 0.62128 0.0
C1204 C 0.00224 0.73075 0.61593 0.0
C1205 C 0.00883 0.67289 0.6138 0.0
C1206 C 0.95248 0.75447 0.62268 0.0
C1207 C 0.97529 0.81678 0.61517 0.0
N1208 N -0.00827 0.69998 0.6118 0.0
N1209 N -0.00764 0.78977 0.61249 0.0
H1210 H 0.48371 0.34457 0.60332 0.0
H1211 H 0.49962 0.14976 0.60799 0.0
H1212 H 0.41468 0.27942 0.62642 0.0
H1213 H 0.57213 0.2167 0.61828 0.0
H1214 H 0.46736 0.19669 0.60137 0.0
H1215 H 0.51478 0.29689 0.59576 0.0
C1216 C 0.47487 0.32024 0.60642 0.0
C1217 C 0.44672 0.31595 0.61589 0.0
C1218 C 0.49045 0.20097 0.60465 0.0
C1219 C 0.48204 0.26154 0.60703 0.0
C1220 C 0.50893 0.17426 0.60831 0.0
C1221 C 0.53852 0.1794 0.61409 0.0
C1222 C 0.50176 0.23291 0.60644 0.0
C1223 C 0.54937 0.21168 0.61421 0.0
C1224 C 0.49266 0.29312 0.60214 0.0
C1225 C 0.4364 0.28385 0.61946 0.0
N1226 N 0.5309 0.23729 0.61067 0.0
N1227 N 0.45416 0.25782 0.61516 0.0
H1228 H 0.40814 0.22394 0.88386 0.0
H1229 H 0.56833 0.28195 0.86557 0.0
H1230 H 0.48051 0.15594 0.88644 0.0
H1231 H 0.50172 0.34695 0.89231 0.0
H1232 H 0.53784 0.23501 0.87653 0.0
H1233 H 0.44231 0.26905 0.89101 0.0
C1234 C 0.43116 0.21847 0.88645 0.0
C1235 C 0.44164 0.18632 0.88413 0.0
C1236 C 0.53019 0.25954 0.88045 0.0
C1237 C 0.48086 0.23774 0.89177 0.0
C1238 C 0.5475 0.28633 0.87406 0.0
C1239 C 0.53729 0.31839 0.87763 0.0
C1240 C 0.50226 0.26493 0.89 0.0
C1241 C 0.51033 0.32266 0.88901 0.0
C1242 C 0.45065 0.24419 0.89057 0.0
C1243 C 0.47159 0.18046 0.88788 0.0
N1244 N 0.49345 0.29622 0.89435 0.0
N1245 N 0.49032 0.20608 0.89093 0.0
H1246 H 0.98427 0.63925 0.88527 0.0
H1247 H 0.07505 0.77169 0.86482 0.0
H1248 H 0.92048 0.7041 0.85445 0.0
H1249 H -9e-05 0.83228 0.87989 0.0
H1250 H 0.04502 0.72286 0.8714 0.0
H1251 H 0.01525 0.68682 0.89394 0.0
C1252 C 0.97661 0.66349 0.88056 0.0
C1253 C 0.95008 0.66769 0.8686 0.0
C1254 C 0.0353 0.7468 0.87399 0.0
C1255 C 0.98544 0.72189 0.87832 0.0
C1256 C 0.05236 0.77465 0.87003 0.0
C1257 C 0.03982 0.80594 0.87168 0.0
C1258 C 0.00538 0.75035 0.87918 0.0
C1259 C 0.01036 0.80853 0.87847 0.0
C1260 C -0.00561 0.69054 0.8854 0.0
C1261 C 0.94107 0.6997 0.86323 0.0
N1262 N -0.00613 0.78098 0.88141 0.0
N1263 N 0.95886 0.72562 0.86799 0.0
loop_
_geom_bond_atom_site_label_1
_geom_bond_atom_site_label_2
_geom_bond_distance
_geom_bond_site_symmetry_2
_ccdc_geom_bond_type
Co0 O3 1.970 . S
Co0 N17 1.989 . S
Co0 O25 1.967 . S
Co0 O32 1.920 . S
Co1 O4 1.966 . S
Co1 N10 2.022 . S
Co1 N18 1.993 . S
Co1 O26 1.941 . S
C2 O3 1.258 . S
C2 O4 1.263 . S
O3 Co0 1.970 . S
O3 C2 1.258 . S
O4 Co1 1.966 . S
O4 C2 1.263 . S
C5 O6 1.235 . S
C5 O32 1.289 . S
O6 C5 1.235 . S
C7 C9 1.400 . S
C7 N10 1.351 . S
C7 C12 1.501 . S
C8 C9 1.387 . S
C8 N11 1.341 . S
C9 C7 1.400 . S
C9 C8 1.387 . S
N10 Co1 2.022 . S
N10 C7 1.351 . S
N10 N11 1.365 . S
N11 C8 1.341 . S
N11 N10 1.365 . S
N11 H31 0.862 . S
C12 C7 1.501 . S
C12 H13 0.961 . S
C12 H14 0.961 . S
C12 H15 0.960 . S
H13 C12 0.961 . S
H14 C12 0.961 . S
H15 C12 0.960 . S
C16 N17 1.342 . S
C16 C20 1.401 . S
C16 C21 1.499 . S
N17 Co0 1.989 . S
N17 C16 1.342 . S
N17 N18 1.388 . S
N18 Co1 1.993 . S
N18 N17 1.388 . S
N18 C19 1.346 . S
C19 N18 1.346 . S
C19 C20 1.396 . S
C19 C29 1.510 . S
C20 C16 1.401 . S
C20 C19 1.396 . S
C21 C16 1.499 . S
C21 H22 0.959 . S
C21 H23 0.960 . S
C21 H24 0.961 . S
H22 C21 0.959 . S
H23 C21 0.960 . S
H24 C21 0.961 . S
O25 Co0 1.967 . S
O25 C33 1.258 . S
O26 Co1 1.941 . S
O26 C33 1.266 . S
H27 C29 0.959 . S
H28 C29 0.961 . S
C29 C19 1.510 . S
C29 H27 0.959 . S
C29 H28 0.961 . S
C29 H30 0.960 . S
H30 C29 0.960 . S
H31 N11 0.862 . S
O32 Co0 1.920 . S
O32 C5 1.289 . S
C33 O25 1.258 . S
C33 O26 1.266 . S
Co34 O37 1.970 . S
Co34 N51 1.989 . S
Co34 O59 1.967 . S
Co34 O66 1.920 . S
Co35 O38 1.966 . S
Co35 N44 2.022 . S
Co35 N52 1.993 . S
Co35 O60 1.941 . S
C36 O37 1.258 . S
C36 O38 1.263 . S
O37 Co34 1.970 . S
O37 C36 1.258 . S
O38 Co35 1.966 . S
O38 C36 1.263 . S
C39 O40 1.235 . S
C39 O66 1.289 . S
O40 C39 1.235 . S
C41 C43 1.400 . S
C41 N44 1.351 . S
C41 C46 1.501 . S
C42 C43 1.387 . S
C42 N45 1.341 . S
C43 C41 1.400 . S
C43 C42 1.387 . S
N44 Co35 2.022 . S
N44 C41 1.351 . S
N44 N45 1.365 . S
N45 C42 1.341 . S
N45 N44 1.365 . S
N45 H65 0.862 . S
C46 C41 1.501 . S
C46 H47 0.961 . S
C46 H48 0.961 . S
C46 H49 0.960 . S
H47 C46 0.961 . S
H48 C46 0.961 . S
H49 C46 0.960 . S
C50 N51 1.342 . S
C50 C54 1.401 . S
C50 C55 1.499 . S
N51 Co34 1.989 . S
N51 C50 1.342 . S
N51 N52 1.388 . S
N52 Co35 1.993 . S
N52 N51 1.388 . S
N52 C53 1.346 . S
C53 N52 1.346 . S
C53 C54 1.396 . S
C53 C63 1.510 . S
C54 C50 1.401 . S
C54 C53 1.396 . S
C55 C50 1.499 . S
C55 H56 0.959 . S
C55 H57 0.960 . S
C55 H58 0.961 . S
H56 C55 0.959 . S
H57 C55 0.960 . S
H58 C55 0.961 . S
O59 Co34 1.967 . S
O59 C67 1.258 . S
O60 Co35 1.941 . S
O60 C67 1.266 . S
H61 C63 0.959 . S
H62 C63 0.961 . S
C63 C53 1.510 . S
C63 H61 0.959 . S
C63 H62 0.961 . S
C63 H64 0.960 . S
H64 C63 0.960 . S
H65 N45 0.862 . S
O66 Co34 1.920 . S
O66 C39 1.289 . S
C67 O59 1.258 . S
C67 O60 1.266 . S
Co68 O71 1.970 . S
Co68 N85 1.989 . S
Co68 O93 1.967 . S
Co68 O100 1.920 . S
Co69 O72 1.966 . S
Co69 N78 2.022 . S
Co69 N86 1.993 . S
Co69 O94 1.941 . S
C70 O71 1.258 . S
C70 O72 1.263 . S
O71 Co68 1.970 . S
O71 C70 1.258 . S
O72 Co69 1.966 . S
O72 C70 1.263 . S
C73 O74 1.235 . S
C73 O100 1.289 . S
O74 C73 1.235 . S
C75 C77 1.400 . S
C75 N78 1.351 . S
C75 C80 1.501 . S
C76 C77 1.387 . S
C76 N79 1.341 . S
C77 C75 1.400 . S
C77 C76 1.387 . S
N78 Co69 2.022 . S
N78 C75 1.351 . S
N78 N79 1.365 . S
N79 C76 1.341 . S
N79 N78 1.365 . S
N79 H99 0.862 . S
C80 C75 1.501 . S
C80 H81 0.961 . S
C80 H82 0.961 . S
C80 H83 0.960 . S
H81 C80 0.961 . S
H82 C80 0.961 . S
H83 C80 0.960 . S
C84 N85 1.342 . S
C84 C88 1.401 . S
C84 C89 1.499 . S
N85 Co68 1.989 . S
N85 C84 1.342 . S
N85 N86 1.388 . S
N86 Co69 1.993 . S
N86 N85 1.388 . S
N86 C87 1.346 . S
C87 N86 1.346 . S
C87 C88 1.396 . S
C87 C97 1.510 . S
C88 C84 1.401 . S
C88 C87 1.396 . S
C89 C84 1.499 . S
C89 H90 0.959 . S
C89 H91 0.960 . S
C89 H92 0.961 . S
H90 C89 0.959 . S
H91 C89 0.960 . S
H92 C89 0.961 . S
O93 Co68 1.967 . S
O93 C101 1.258 . S
O94 Co69 1.941 . S
O94 C101 1.266 . S
H95 C97 0.959 . S
H96 C97 0.961 . S
C97 C87 1.510 . S
C97 H95 0.959 . S
C97 H96 0.961 . S
C97 H98 0.960 . S
H98 C97 0.960 . S
H99 N79 0.862 . S
O100 Co68 1.920 . S
O100 C73 1.289 . S
C101 O93 1.258 . S
C101 O94 1.266 . S
Co102 O105 1.970 . S
Co102 N119 1.989 . S
Co102 O127 1.967 . S
Co102 O134 1.920 . S
Co103 O106 1.966 . S
Co103 N112 2.022 . S
Co103 N120 1.993 . S
Co103 O128 1.941 . S
C104 O105 1.258 . S
C104 O106 1.263 . S
O105 Co102 1.970 . S
O105 C104 1.258 . S
O106 Co103 1.966 . S
O106 C104 1.263 . S
C107 O108 1.235 . S
C107 O134 1.289 . S
O108 C107 1.235 . S
C109 C111 1.400 . S
C109 N112 1.351 . S
C109 C114 1.501 . S
C110 C111 1.387 . S
C110 N113 1.341 . S
C111 C109 1.400 . S
C111 C110 1.387 . S
N112 Co103 2.022 . S
N112 C109 1.351 . S
N112 N113 1.365 . S
N113 C110 1.341 . S
N113 N112 1.365 . S
N113 H133 0.862 . S
C114 C109 1.501 . S
C114 H115 0.961 . S
C114 H116 0.961 . S
C114 H117 0.960 . S
H115 C114 0.961 . S
H116 C114 0.961 . S
H117 C114 0.960 . S
C118 N119 1.342 . S
C118 C122 1.401 . S
C118 C123 1.499 . S
N119 Co102 1.989 . S
N119 C118 1.342 . S
N119 N120 1.388 . S
N120 Co103 1.993 . S
N120 N119 1.388 . S
N120 C121 1.346 . S
C121 N120 1.346 . S
C121 C122 1.396 . S
C121 C131 1.510 . S
C122 C118 1.401 . S
C122 C121 1.396 . S
C123 C118 1.499 . S
C123 H124 0.959 . S
C123 H125 0.960 . S
C123 H126 0.961 . S
H124 C123 0.959 . S
H125 C123 0.960 . S
H126 C123 0.961 . S
O127 Co102 1.967 . S
O127 C135 1.258 . S
O128 Co103 1.941 . S
O128 C135 1.266 . S
H129 C131 0.959 . S
H130 C131 0.961 . S
C131 C121 1.510 . S
C131 H129 0.959 . S
C131 H130 0.961 . S
C131 H132 0.960 . S
H132 C131 0.960 . S
H133 N113 0.862 . S
O134 Co102 1.920 . S
O134 C107 1.289 . S
C135 O127 1.258 . S
C135 O128 1.266 . S
Co136 O139 1.970 . S
Co136 N153 1.989 . S
Co136 O161 1.967 . S
Co136 O168 1.920 . S
Co137 O140 1.966 . S
Co137 N146 2.022 . S
Co137 N154 1.993 . S
Co137 O162 1.941 . S
C138 O139 1.258 . S
C138 O140 1.263 . S
O139 Co136 1.970 . S
O139 C138 1.258 . S
O140 Co137 1.966 . S
O140 C138 1.263 . S
C141 O142 1.235 . S
C141 O168 1.289 . S
O142 C141 1.235 . S
C143 C145 1.400 . S
C143 N146 1.351 . S
C143 C148 1.501 . S
C144 C145 1.387 . S
C144 N147 1.341 . S
C145 C143 1.400 . S
C145 C144 1.387 . S
N146 Co137 2.022 . S
N146 C143 1.351 . S
N146 N147 1.365 . S
N147 C144 1.341 . S
N147 N146 1.365 . S
N147 H167 0.862 . S
C148 C143 1.501 . S
C148 H149 0.961 . S
C148 H150 0.961 . S
C148 H151 0.960 . S
H149 C148 0.961 . S
H150 C148 0.961 . S
H151 C148 0.960 . S
C152 N153 1.342 . S
C152 C156 1.401 . S
C152 C157 1.499 . S
N153 Co136 1.989 . S
N153 C152 1.342 . S
N153 N154 1.388 . S
N154 Co137 1.993 . S
N154 N153 1.388 . S
N154 C155 1.346 . S
C155 N154 1.346 . S
C155 C156 1.396 . S
C155 C165 1.510 . S
C156 C152 1.401 . S
C156 C155 1.396 . S
C157 C152 1.499 . S
C157 H158 0.959 . S
C157 H159 0.960 . S
C157 H160 0.961 . S
H158 C157 0.959 . S
H159 C157 0.960 . S
H160 C157 0.961 . S
O161 Co136 1.967 . S
O161 C169 1.258 . S
O162 Co137 1.941 . S
O162 C169 1.266 . S
H163 C165 0.959 . S
H164 C165 0.961 . S
C165 C155 1.510 . S
C165 H163 0.959 . S
C165 H164 0.961 . S
C165 H166 0.960 . S
H166 C165 0.960 . S
H167 N147 0.862 . S
O168 Co136 1.920 . S
O168 C141 1.289 . S
C169 O161 1.258 . S
C169 O162 1.266 . S
Co170 O173 1.970 . S
Co170 N187 1.989 . S
Co170 O195 1.967 . S
Co170 O202 1.920 . S
Co171 O174 1.966 . S
Co171 N180 2.022 . S
Co171 N188 1.993 . S
Co171 O196 1.941 . S
C172 O173 1.258 . S
C172 O174 1.263 . S
O173 Co170 1.970 . S
O173 C172 1.258 . S
O174 Co171 1.966 . S
O174 C172 1.263 . S
C175 O176 1.235 . S
C175 O202 1.289 . S
O176 C175 1.235 . S
C177 C179 1.400 . S
C177 N180 1.351 . S
C177 C182 1.501 . S
C178 C179 1.387 . S
C178 N181 1.341 . S
C179 C177 1.400 . S
C179 C178 1.387 . S
N180 Co171 2.022 . S
N180 C177 1.351 . S
N180 N181 1.365 . S
N181 C178 1.341 . S
N181 N180 1.365 . S
N181 H201 0.862 . S
C182 C177 1.501 . S
C182 H183 0.961 . S
C182 H184 0.961 . S
C182 H185 0.960 . S
H183 C182 0.961 . S
H184 C182 0.961 . S
H185 C182 0.960 . S
C186 N187 1.342 . S
C186 C190 1.401 . S
C186 C191 1.499 . S
N187 Co170 1.989 . S
N187 C186 1.342 . S
N187 N188 1.388 . S
N188 Co171 1.993 . S
N188 N187 1.388 . S
N188 C189 1.346 . S
C189 N188 1.346 . S
C189 C190 1.396 . S
C189 C199 1.510 . S
C190 C186 1.401 . S
C190 C189 1.396 . S
C191 C186 1.499 . S
C191 H192 0.959 . S
C191 H193 0.960 . S
C191 H194 0.961 . S
H192 C191 0.959 . S
H193 C191 0.960 . S
H194 C191 0.961 . S
O195 Co170 1.967 . S
O195 C203 1.258 . S
O196 Co171 1.941 . S
O196 C203 1.266 . S
H197 C199 0.959 . S
H198 C199 0.961 . S
C199 C189 1.510 . S
C199 H197 0.959 . S
C199 H198 0.961 . S
C199 H200 0.960 . S
H200 C199 0.960 . S
H201 N181 0.862 . S
O202 Co170 1.920 . S
O202 C175 1.289 . S
C203 O195 1.258 . S
C203 O196 1.266 . S
Co204 O207 1.970 . S
Co204 N221 1.989 . S
Co204 O229 1.967 . S
Co204 O236 1.920 . S
Co205 O208 1.966 . S
Co205 N214 2.022 . S
Co205 N222 1.993 . S
Co205 O230 1.941 . S
C206 O207 1.258 . S
C206 O208 1.263 . S
O207 Co204 1.970 . S
O207 C206 1.258 . S
O208 Co205 1.966 . S
O208 C206 1.263 . S
C209 O210 1.235 . S
C209 O236 1.289 . S
O210 C209 1.235 . S
C211 C213 1.400 . S
C211 N214 1.351 . S
C211 C216 1.501 . S
C212 C213 1.387 . S
C212 N215 1.341 . S
C213 C211 1.400 . S
C213 C212 1.387 . S
N214 Co205 2.022 . S
N214 C211 1.351 . S
N214 N215 1.365 . S
N215 C212 1.341 . S
N215 N214 1.365 . S
N215 H235 0.862 . S
C216 C211 1.501 . S
C216 H217 0.961 . S
C216 H218 0.961 . S
C216 H219 0.960 . S
H217 C216 0.961 . S
H218 C216 0.961 . S
H219 C216 0.960 . S
C220 N221 1.342 . S
C220 C224 1.401 . S
C220 C225 1.499 . S
N221 Co204 1.989 . S
N221 C220 1.342 . S
N221 N222 1.388 . S
N222 Co205 1.993 . S
N222 N221 1.388 . S
N222 C223 1.346 . S
C223 N222 1.346 . S
C223 C224 1.396 . S
C223 C233 1.510 . S
C224 C220 1.401 . S
C224 C223 1.396 . S
C225 C220 1.499 . S
C225 H226 0.959 . S
C225 H227 0.960 . S
C225 H228 0.961 . S
H226 C225 0.959 . S
H227 C225 0.960 . S
H228 C225 0.961 . S
O229 Co204 1.967 . S
O229 C237 1.258 . S
O230 Co205 1.941 . S
O230 C237 1.266 . S
H231 C233 0.959 . S
H232 C233 0.961 . S
C233 C223 1.510 . S
C233 H231 0.959 . S
C233 H232 0.961 . S
C233 H234 0.960 . S
H234 C233 0.960 . S
H235 N215 0.862 . S
O236 Co204 1.920 . S
O236 C209 1.289 . S
C237 O229 1.258 . S
C237 O230 1.266 . S
Co238 O241 1.970 . S
Co238 N255 1.989 . S
Co238 O263 1.967 . S
Co238 O270 1.920 . S
Co239 O242 1.966 . S
Co239 N248 2.022 . S
Co239 N256 1.993 . S
Co239 O264 1.941 . S
C240 O241 1.258 . S
C240 O242 1.263 . S
O241 Co238 1.970 . S
O241 C240 1.258 . S
O242 Co239 1.966 . S
O242 C240 1.263 . S
C243 O244 1.235 . S
C243 O270 1.289 . S
O244 C243 1.235 . S
C245 C247 1.400 . S
C245 N248 1.351 . S
C245 C250 1.501 . S
C246 C247 1.387 . S
C246 N249 1.341 . S
C247 C245 1.400 . S
C247 C246 1.387 . S
N248 Co239 2.022 . S
N248 C245 1.351 . S
N248 N249 1.365 . S
N249 C246 1.341 . S
N249 N248 1.365 . S
N249 H269 0.862 . S
C250 C245 1.501 . S
C250 H251 0.961 . S
C250 H252 0.961 . S
C250 H253 0.960 . S
H251 C250 0.961 . S
H252 C250 0.961 . S
H253 C250 0.960 . S
C254 N255 1.342 . S
C254 C258 1.401 . S
C254 C259 1.499 . S
N255 Co238 1.989 . S
N255 C254 1.342 . S
N255 N256 1.388 . S
N256 Co239 1.993 . S
N256 N255 1.388 . S
N256 C257 1.346 . S
C257 N256 1.346 . S
C257 C258 1.396 . S
C257 C267 1.510 . S
C258 C254 1.401 . S
C258 C257 1.396 . S
C259 C254 1.499 . S
C259 H260 0.959 . S
C259 H261 0.960 . S
C259 H262 0.961 . S
H260 C259 0.959 . S
H261 C259 0.960 . S
H262 C259 0.961 . S
O263 Co238 1.967 . S
O263 C271 1.258 . S
O264 Co239 1.941 . S
O264 C271 1.266 . S
H265 C267 0.959 . S
H266 C267 0.961 . S
C267 C257 1.510 . S
C267 H265 0.959 . S
C267 H266 0.961 . S
C267 H268 0.960 . S
H268 C267 0.960 . S
H269 N249 0.862 . S
O270 Co238 1.920 . S
O270 C243 1.289 . S
C271 O263 1.258 . S
C271 O264 1.266 . S
Co272 O275 1.970 . S
Co272 N289 1.989 . S
Co272 O297 1.967 . S
Co272 O304 1.920 . S
Co273 O276 1.966 . S
Co273 N282 2.022 . S
Co273 N290 1.993 . S
Co273 O298 1.941 . S
C274 O275 1.258 . S
C274 O276 1.263 . S
O275 Co272 1.970 . S
O275 C274 1.258 . S
O276 Co273 1.966 . S
O276 C274 1.263 . S
C277 O278 1.235 . S
C277 O304 1.289 . S
O278 C277 1.235 . S
C279 C281 1.400 . S
C279 N282 1.351 . S
C279 C284 1.501 . S
C280 C281 1.387 . S
C280 N283 1.341 . S
C281 C279 1.400 . S
C281 C280 1.387 . S
N282 Co273 2.022 . S
N282 C279 1.351 . S
N282 N283 1.365 . S
N283 C280 1.341 . S
N283 N282 1.365 . S
N283 H303 0.862 . S
C284 C279 1.501 . S
C284 H285 0.961 . S
C284 H286 0.961 . S
C284 H287 0.960 . S
H285 C284 0.961 . S
H286 C284 0.961 . S
H287 C284 0.960 . S
C288 N289 1.342 . S
C288 C292 1.401 . S
C288 C293 1.499 . S
N289 Co272 1.989 . S
N289 C288 1.342 . S
N289 N290 1.388 . S
N290 Co273 1.993 . S
N290 N289 1.388 . S
N290 C291 1.346 . S
C291 N290 1.346 . S
C291 C292 1.396 . S
C291 C301 1.510 . S
C292 C288 1.401 . S
C292 C291 1.396 . S
C293 C288 1.499 . S
C293 H294 0.959 . S
C293 H295 0.960 . S
C293 H296 0.961 . S
H294 C293 0.959 . S
H295 C293 0.960 . S
H296 C293 0.961 . S
O297 Co272 1.967 . S
O297 C305 1.258 . S
O298 Co273 1.941 . S
O298 C305 1.266 . S
H299 C301 0.959 . S
H300 C301 0.961 . S
C301 C291 1.510 . S
C301 H299 0.959 . S
C301 H300 0.961 . S
C301 H302 0.960 . S
H302 C301 0.960 . S
H303 N283 0.862 . S
O304 Co272 1.920 . S
O304 C277 1.289 . S
C305 O297 1.258 . S
C305 O298 1.266 . S
Co306 O309 1.970 . S
Co306 N323 1.989 . S
Co306 O331 1.967 . S
Co306 O338 1.920 . S
Co307 O310 1.966 . S
Co307 N316 2.022 . S
Co307 N324 1.993 . S
Co307 O332 1.941 . S
C308 O309 1.258 . S
C308 O310 1.263 . S
O309 Co306 1.970 . S
O309 C308 1.258 . S
O310 Co307 1.966 . S
O310 C308 1.263 . S
C311 O312 1.235 . S
C311 O338 1.289 . S
O312 C311 1.235 . S
C313 C315 1.400 . S
C313 N316 1.351 . S
C313 C318 1.501 . S
C314 C315 1.387 . S
C314 N317 1.341 . S
C315 C313 1.400 . S
C315 C314 1.387 . S
N316 Co307 2.022 . S
N316 C313 1.351 . S
N316 N317 1.365 . S
N317 C314 1.341 . S
N317 N316 1.365 . S
N317 H337 0.862 . S
C318 C313 1.501 . S
C318 H319 0.961 . S
C318 H320 0.961 . S
C318 H321 0.960 . S
H319 C318 0.961 . S
H320 C318 0.961 . S
H321 C318 0.960 . S
C322 N323 1.342 . S
C322 C326 1.401 . S
C322 C327 1.499 . S
N323 Co306 1.989 . S
N323 C322 1.342 . S
N323 N324 1.388 . S
N324 Co307 1.993 . S
N324 N323 1.388 . S
N324 C325 1.346 . S
C325 N324 1.346 . S
C325 C326 1.396 . S
C325 C335 1.510 . S
C326 C322 1.401 . S
C326 C325 1.396 . S
C327 C322 1.499 . S
C327 H328 0.959 . S
C327 H329 0.960 . S
C327 H330 0.961 . S
H328 C327 0.959 . S
H329 C327 0.960 . S
H330 C327 0.961 . S
O331 Co306 1.967 . S
O331 C339 1.258 . S
O332 Co307 1.941 . S
O332 C339 1.266 . S
H333 C335 0.959 . S
H334 C335 0.961 . S
C335 C325 1.510 . S
C335 H333 0.959 . S
C335 H334 0.961 . S
C335 H336 0.960 . S
H336 C335 0.960 . S
H337 N317 0.862 . S
O338 Co306 1.920 . S
O338 C311 1.289 . S
C339 O331 1.258 . S
C339 O332 1.266 . S
Co340 O343 1.970 . S
Co340 N357 1.989 . S
Co340 O365 1.967 . S
Co340 O372 1.920 . S
Co341 O344 1.966 . S
Co341 N350 2.022 . S
Co341 N358 1.993 . S
Co341 O366 1.941 . S
C342 O343 1.258 . S
C342 O344 1.263 . S
O343 Co340 1.970 . S
O343 C342 1.258 . S
O344 Co341 1.966 . S
O344 C342 1.263 . S
C345 O346 1.235 . S
C345 O372 1.289 . S
O346 C345 1.235 . S
C347 C349 1.400 . S
C347 N350 1.351 . S
C347 C352 1.501 . S
C348 C349 1.387 . S
C348 N351 1.341 . S
C349 C347 1.400 . S
C349 C348 1.387 . S
N350 Co341 2.022 . S
N350 C347 1.351 . S
N350 N351 1.365 . S
N351 C348 1.341 . S
N351 N350 1.365 . S
N351 H371 0.862 . S
C352 C347 1.501 . S
C352 H353 0.961 . S
C352 H354 0.961 . S
C352 H355 0.960 . S
H353 C352 0.961 . S
H354 C352 0.961 . S
H355 C352 0.960 . S
C356 N357 1.342 . S
C356 C360 1.401 . S
C356 C361 1.499 . S
N357 Co340 1.989 . S
N357 C356 1.342 . S
N357 N358 1.388 . S
N358 Co341 1.993 . S
N358 N357 1.388 . S
N358 C359 1.346 . S
C359 N358 1.346 . S
C359 C360 1.396 . S
C359 C369 1.510 . S
C360 C356 1.401 . S
C360 C359 1.396 . S
C361 C356 1.499 . S
C361 H362 0.959 . S
C361 H363 0.960 . S
C361 H364 0.961 . S
H362 C361 0.959 . S
H363 C361 0.960 . S
H364 C361 0.961 . S
O365 Co340 1.967 . S
O365 C373 1.258 . S
O366 Co341 1.941 . S
O366 C373 1.266 . S
H367 C369 0.959 . S
H368 C369 0.961 . S
C369 C359 1.510 . S
C369 H367 0.959 . S
C369 H368 0.961 . S
C369 H370 0.960 . S
H370 C369 0.960 . S
H371 N351 0.862 . S
O372 Co340 1.920 . S
O372 C345 1.289 . S
C373 O365 1.258 . S
C373 O366 1.266 . S
Co374 O377 1.970 . S
Co374 N391 1.989 . S
Co374 O399 1.967 . S
Co374 O406 1.920 . S
Co375 O378 1.966 . S
Co375 N384 2.022 . S
Co375 N392 1.993 . S
Co375 O400 1.941 . S
C376 O377 1.258 . S
C376 O378 1.263 . S
O377 Co374 1.970 . S
O377 C376 1.258 . S
O378 Co375 1.966 . S
O378 C376 1.263 . S
C379 O380 1.235 . S
C379 O406 1.289 . S
O380 C379 1.235 . S
C381 C383 1.400 . S
C381 N384 1.351 . S
C381 C386 1.501 . S
C382 C383 1.387 . S
C382 N385 1.341 . S
C383 C381 1.400 . S
C383 C382 1.387 . S
N384 Co375 2.022 . S
N384 C381 1.351 . S
N384 N385 1.365 . S
N385 C382 1.341 . S
N385 N384 1.365 . S
N385 H405 0.862 . S
C386 C381 1.501 . S
C386 H387 0.961 . S
C386 H388 0.961 . S
C386 H389 0.960 . S
H387 C386 0.961 . S
H388 C386 0.961 . S
H389 C386 0.960 . S
C390 N391 1.342 . S
C390 C394 1.401 . S
C390 C395 1.499 . S
N391 Co374 1.989 . S
N391 C390 1.342 . S
N391 N392 1.388 . S
N392 Co375 1.993 . S
N392 N391 1.388 . S
N392 C393 1.346 . S
C393 N392 1.346 . S
C393 C394 1.396 . S
C393 C403 1.510 . S
C394 C390 1.401 . S
C394 C393 1.396 . S
C395 C390 1.499 . S
C395 H396 0.959 . S
C395 H397 0.960 . S
C395 H398 0.961 . S
H396 C395 0.959 . S
H397 C395 0.960 . S
H398 C395 0.961 . S
O399 Co374 1.967 . S
O399 C407 1.258 . S
O400 Co375 1.941 . S
O400 C407 1.266 . S
H401 C403 0.959 . S
H402 C403 0.961 . S
C403 C393 1.510 . S
C403 H401 0.959 . S
C403 H402 0.961 . S
C403 H404 0.960 . S
H404 C403 0.960 . S
H405 N385 0.862 . S
O406 Co374 1.920 . S
O406 C379 1.289 . S
C407 O399 1.258 . S
C407 O400 1.266 . S
Co408 O411 1.970 . S
Co408 N425 1.989 . S
Co408 O433 1.967 . S
Co408 O440 1.920 . S
Co409 O412 1.966 . S
Co409 N418 2.022 . S
Co409 N426 1.993 . S
Co409 O434 1.941 . S
C410 O411 1.258 . S
C410 O412 1.263 . S
O411 Co408 1.970 . S
O411 C410 1.258 . S
O412 Co409 1.966 . S
O412 C410 1.263 . S
C413 O414 1.235 . S
C413 O440 1.289 . S
O414 C413 1.235 . S
C415 C417 1.400 . S
C415 N418 1.351 . S
C415 C420 1.501 . S
C416 C417 1.387 . S
C416 N419 1.341 . S
C417 C415 1.400 . S
C417 C416 1.387 . S
N418 Co409 2.022 . S
N418 C415 1.351 . S
N418 N419 1.365 . S
N419 C416 1.341 . S
N419 N418 1.365 . S
N419 H439 0.862 . S
C420 C415 1.501 . S
C420 H421 0.961 . S
C420 H422 0.961 . S
C420 H423 0.960 . S
H421 C420 0.961 . S
H422 C420 0.961 . S
H423 C420 0.960 . S
C424 N425 1.342 . S
C424 C428 1.401 . S
C424 C429 1.499 . S
N425 Co408 1.989 . S
N425 C424 1.342 . S
N425 N426 1.388 . S
N426 Co409 1.993 . S
N426 N425 1.388 . S
N426 C427 1.346 . S
C427 N426 1.346 . S
C427 C428 1.396 . S
C427 C437 1.510 . S
C428 C424 1.401 . S
C428 C427 1.396 . S
C429 C424 1.499 . S
C429 H430 0.959 . S
C429 H431 0.960 . S
C429 H432 0.961 . S
H430 C429 0.959 . S
H431 C429 0.960 . S
H432 C429 0.961 . S
O433 Co408 1.967 . S
O433 C441 1.258 . S
O434 Co409 1.941 . S
O434 C441 1.266 . S
H435 C437 0.959 . S
H436 C437 0.961 . S
C437 C427 1.510 . S
C437 H435 0.959 . S
C437 H436 0.961 . S
C437 H438 0.960 . S
H438 C437 0.960 . S
H439 N419 0.862 . S
O440 Co408 1.920 . S
O440 C413 1.289 . S
C441 O433 1.258 . S
C441 O434 1.266 . S
Co442 O445 1.970 . S
Co442 N459 1.989 . S
Co442 O467 1.967 . S
Co442 O474 1.920 . S
Co443 O446 1.966 . S
Co443 N452 2.022 . S
Co443 N460 1.993 . S
Co443 O468 1.941 . S
C444 O445 1.258 . S
C444 O446 1.263 . S
O445 Co442 1.970 . S
O445 C444 1.258 . S
O446 Co443 1.966 . S
O446 C444 1.263 . S
C447 O448 1.235 . S
C447 O474 1.289 . S
O448 C447 1.235 . S
C449 C451 1.400 . S
C449 N452 1.351 . S
C449 C454 1.501 . S
C450 C451 1.387 . S
C450 N453 1.341 . S
C451 C449 1.400 . S
C451 C450 1.387 . S
N452 Co443 2.022 . S
N452 C449 1.351 . S
N452 N453 1.365 . S
N453 C450 1.341 . S
N453 N452 1.365 . S
N453 H473 0.862 . S
C454 C449 1.501 . S
C454 H455 0.961 . S
C454 H456 0.961 . S
C454 H457 0.960 . S
H455 C454 0.961 . S
H456 C454 0.961 . S
H457 C454 0.960 . S
C458 N459 1.342 . S
C458 C462 1.401 . S
C458 C463 1.499 . S
N459 Co442 1.989 . S
N459 C458 1.342 . S
N459 N460 1.388 . S
N460 Co443 1.993 . S
N460 N459 1.388 . S
N460 C461 1.346 . S
C461 N460 1.346 . S
C461 C462 1.396 . S
C461 C471 1.510 . S
C462 C458 1.401 . S
C462 C461 1.396 . S
C463 C458 1.499 . S
C463 H464 0.959 . S
C463 H465 0.960 . S
C463 H466 0.961 . S
H464 C463 0.959 . S
H465 C463 0.960 . S
H466 C463 0.961 . S
O467 Co442 1.967 . S
O467 C475 1.258 . S
O468 Co443 1.941 . S
O468 C475 1.266 . S
H469 C471 0.959 . S
H470 C471 0.961 . S
C471 C461 1.510 . S
C471 H469 0.959 . S
C471 H470 0.961 . S
C471 H472 0.960 . S
H472 C471 0.960 . S
H473 N453 0.862 . S
O474 Co442 1.920 . S
O474 C447 1.289 . S
C475 O467 1.258 . S
C475 O468 1.266 . S
Co476 O479 1.970 . S
Co476 N493 1.989 . S
Co476 O501 1.967 . S
Co476 O508 1.920 . S
Co477 O480 1.966 . S
Co477 N486 2.022 . S
Co477 N494 1.993 . S
Co477 O502 1.941 . S
C478 O479 1.258 . S
C478 O480 1.263 . S
O479 Co476 1.970 . S
O479 C478 1.258 . S
O480 Co477 1.966 . S
O480 C478 1.263 . S
C481 O482 1.235 . S
C481 O508 1.289 . S
O482 C481 1.235 . S
C483 C485 1.400 . S
C483 N486 1.351 . S
C483 C488 1.501 . S
C484 C485 1.387 . S
C484 N487 1.341 . S
C485 C483 1.400 . S
C485 C484 1.387 . S
N486 Co477 2.022 . S
N486 C483 1.351 . S
N486 N487 1.365 . S
N487 C484 1.341 . S
N487 N486 1.365 . S
N487 H507 0.862 . S
C488 C483 1.501 . S
C488 H489 0.961 . S
C488 H490 0.961 . S
C488 H491 0.960 . S
H489 C488 0.961 . S
H490 C488 0.961 . S
H491 C488 0.960 . S
C492 N493 1.342 . S
C492 C496 1.401 . S
C492 C497 1.499 . S
N493 Co476 1.989 . S
N493 C492 1.342 . S
N493 N494 1.388 . S
N494 Co477 1.993 . S
N494 N493 1.388 . S
N494 C495 1.346 . S
C495 N494 1.346 . S
C495 C496 1.396 . S
C495 C505 1.510 . S
C496 C492 1.401 . S
C496 C495 1.396 . S
C497 C492 1.499 . S
C497 H498 0.959 . S
C497 H499 0.960 . S
C497 H500 0.961 . S
H498 C497 0.959 . S
H499 C497 0.960 . S
H500 C497 0.961 . S
O501 Co476 1.967 . S
O501 C509 1.258 . S
O502 Co477 1.941 . S
O502 C509 1.266 . S
H503 C505 0.959 . S
H504 C505 0.961 . S
C505 C495 1.510 . S
C505 H503 0.959 . S
C505 H504 0.961 . S
C505 H506 0.960 . S
H506 C505 0.960 . S
H507 N487 0.862 . S
O508 Co476 1.920 . S
O508 C481 1.289 . S
C509 O501 1.258 . S
C509 O502 1.266 . S
Co510 O513 1.970 . S
Co510 N527 1.989 . S
Co510 O535 1.967 . S
Co510 O542 1.920 . S
Co511 O514 1.966 . S
Co511 N520 2.022 . S
Co511 N528 1.993 . S
Co511 O536 1.941 . S
C512 O513 1.258 . S
C512 O514 1.263 . S
O513 Co510 1.970 . S
O513 C512 1.258 . S
O514 Co511 1.966 . S
O514 C512 1.263 . S
C515 O516 1.235 . S
C515 O542 1.289 . S
O516 C515 1.235 . S
C517 C519 1.400 . S
C517 N520 1.351 . S
C517 C522 1.501 . S
C518 C519 1.387 . S
C518 N521 1.341 . S
C519 C517 1.400 . S
C519 C518 1.387 . S
N520 Co511 2.022 . S
N520 C517 1.351 . S
N520 N521 1.365 . S
N521 C518 1.341 . S
N521 N520 1.365 . S
N521 H541 0.862 . S
C522 C517 1.501 . S
C522 H523 0.961 . S
C522 H524 0.961 . S
C522 H525 0.960 . S
H523 C522 0.961 . S
H524 C522 0.961 . S
H525 C522 0.960 . S
C526 N527 1.342 . S
C526 C530 1.401 . S
C526 C531 1.499 . S
N527 Co510 1.989 . S
N527 C526 1.342 . S
N527 N528 1.388 . S
N528 Co511 1.993 . S
N528 N527 1.388 . S
N528 C529 1.346 . S
C529 N528 1.346 . S
C529 C530 1.396 . S
C529 C539 1.510 . S
C530 C526 1.401 . S
C530 C529 1.396 . S
C531 C526 1.499 . S
C531 H532 0.959 . S
C531 H533 0.960 . S
C531 H534 0.961 . S
H532 C531 0.959 . S
H533 C531 0.960 . S
H534 C531 0.961 . S
O535 Co510 1.967 . S
O535 C543 1.258 . S
O536 Co511 1.941 . S
O536 C543 1.266 . S
H537 C539 0.959 . S
H538 C539 0.961 . S
C539 C529 1.510 . S
C539 H537 0.959 . S
C539 H538 0.961 . S
C539 H540 0.960 . S
H540 C539 0.960 . S
H541 N521 0.862 . S
O542 Co510 1.920 . S
O542 C515 1.289 . S
C543 O535 1.258 . S
C543 O536 1.266 . S
H544 C550 0.930 . S
H545 C554 0.930 . S
H546 C559 0.929 . S
H547 C557 0.929 . S
H548 C552 0.929 . S
H549 C558 0.929 . S
C550 H544 0.930 . S
C550 C551 1.367 . S
C550 C558 1.378 . S
C551 C550 1.367 . S
C551 C559 1.433 . S
C552 H548 0.929 . S
C552 C554 1.378 . S
C552 C556 1.350 . S
C553 C556 1.463 1_655 S
C553 C558 1.350 . S
C553 N561 1.427 . S
C554 H545 0.930 . S
C554 C552 1.378 . S
C554 C555 1.367 . S
C555 C554 1.367 . S
C555 C557 1.433 . S
C556 C552 1.350 . S
C556 C553 1.463 1_455 S
C556 N560 1.427 . S
C557 H547 0.929 . S
C557 C555 1.433 . S
C557 N560 1.384 . S
C558 H549 0.929 . S
C558 C550 1.378 . S
C558 C553 1.350 . S
C559 H546 0.929 . S
C559 C551 1.433 . S
C559 N561 1.384 . S
N560 C556 1.427 . S
N560 C557 1.384 . S
N561 C553 1.427 . S
N561 C559 1.384 . S
H562 C568 0.930 . S
H563 C572 0.930 . S
H564 C577 0.929 . S
H565 C575 0.929 . S
H566 C570 0.929 . S
H567 C576 0.929 . S
C568 H562 0.930 . S
C568 C569 1.367 . S
C568 C576 1.378 . S
C569 C568 1.367 . S
C569 C577 1.433 . S
C570 H566 0.929 . S
C570 C572 1.378 . S
C570 C574 1.350 . S
C571 C574 1.463 . S
C571 C576 1.350 . S
C571 N579 1.427 . S
C572 H563 0.930 . S
C572 C570 1.378 . S
C572 C573 1.367 . S
C573 C572 1.367 . S
C573 C575 1.433 . S
C574 C570 1.350 . S
C574 C571 1.463 . S
C574 N578 1.427 . S
C575 H565 0.929 . S
C575 C573 1.433 . S
C575 N578 1.384 . S
C576 H567 0.929 . S
C576 C568 1.378 . S
C576 C571 1.350 . S
C577 H564 0.929 . S
C577 C569 1.433 . S
C577 N579 1.384 . S
N578 C574 1.427 . S
N578 C575 1.384 . S
N579 C571 1.427 . S
N579 C577 1.384 . S
H580 C586 0.930 . S
H581 C590 0.930 . S
H582 C595 0.929 . S
H583 C593 0.929 . S
H584 C588 0.929 1_655 S
H585 C594 0.929 1_455 S
C586 H580 0.930 . S
C586 C587 1.367 . S
C586 C594 1.378 . S
C587 C586 1.367 . S
C587 C595 1.433 . S
C588 H584 0.929 1_455 S
C588 C590 1.378 . S
C588 C592 1.350 . S
C589 C592 1.463 1_655 S
C589 C594 1.350 . S
C589 N597 1.427 . S
C590 H581 0.930 . S
C590 C588 1.378 . S
C590 C591 1.367 . S
C591 C590 1.367 . S
C591 C593 1.433 . S
C592 C588 1.350 . S
C592 C589 1.463 1_455 S
C592 N596 1.427 . S
C593 H583 0.929 . S
C593 C591 1.433 . S
C593 N596 1.384 . S
C594 H585 0.929 1_655 S
C594 C586 1.378 . S
C594 C589 1.350 . S
C595 H582 0.929 . S
C595 C587 1.433 . S
C595 N597 1.384 . S
N596 C592 1.427 . S
N596 C593 1.384 . S
N597 C589 1.427 . S
N597 C595 1.384 . S
H598 C604 0.930 . S
H599 C608 0.930 . S
H600 C613 0.929 . S
H601 C611 0.929 . S
H602 C606 0.929 . S
H603 C612 0.929 . S
C604 H598 0.930 . S
C604 C605 1.367 . S
C604 C612 1.378 . S
C605 C604 1.367 . S
C605 C613 1.433 . S
C606 H602 0.929 . S
C606 C608 1.378 . S
C606 C610 1.350 . S
C607 C610 1.463 . S
C607 C612 1.350 . S
C607 N615 1.427 . S
C608 H599 0.930 . S
C608 C606 1.378 . S
C608 C609 1.367 . S
C609 C608 1.367 . S
C609 C611 1.433 . S
C610 C606 1.350 . S
C610 C607 1.463 . S
C610 N614 1.427 . S
C611 H601 0.929 . S
C611 C609 1.433 . S
C611 N614 1.384 . S
C612 H603 0.929 . S
C612 C604 1.378 . S
C612 C607 1.350 . S
C613 H600 0.929 . S
C613 C605 1.433 . S
C613 N615 1.384 . S
N614 C610 1.427 . S
N614 C611 1.384 . S
N615 C607 1.427 . S
N615 C613 1.384 . S
H616 C622 0.930 . S
H617 C626 0.930 . S
H618 C631 0.929 . S
H619 C629 0.929 . S
H620 C624 0.929 . S
H621 C630 0.929 . S
C622 H616 0.930 . S
C622 C623 1.367 . S
C622 C630 1.378 . S
C623 C622 1.367 . S
C623 C631 1.433 . S
C624 H620 0.929 . S
C624 C626 1.378 . S
C624 C628 1.350 . S
C625 C628 1.463 . S
C625 C630 1.350 . S
C625 N633 1.427 . S
C626 H617 0.930 . S
C626 C624 1.378 . S
C626 C627 1.367 . S
C627 C626 1.367 . S
C627 C629 1.433 . S
C628 C624 1.350 . S
C628 C625 1.463 . S
C628 N632 1.427 . S
C629 H619 0.929 . S
C629 C627 1.433 . S
C629 N632 1.384 . S
C630 H621 0.929 . S
C630 C622 1.378 . S
C630 C625 1.350 . S
C631 H618 0.929 . S
C631 C623 1.433 . S
C631 N633 1.384 . S
N632 C628 1.427 . S
N632 C629 1.384 . S
N633 C625 1.427 . S
N633 C631 1.384 . S
H634 C640 0.930 . S
H635 C644 0.930 . S
H636 C649 0.929 . S
H637 C647 0.929 . S
H638 C642 0.929 . S
H639 C648 0.929 . S
C640 H634 0.930 . S
C640 C641 1.367 . S
C640 C648 1.378 . S
C641 C640 1.367 . S
C641 C649 1.433 . S
C642 H638 0.929 . S
C642 C644 1.378 . S
C642 C646 1.350 . S
C643 C646 1.463 1_655 S
C643 C648 1.350 . S
C643 N651 1.427 . S
C644 H635 0.930 . S
C644 C642 1.378 . S
C644 C645 1.367 . S
C645 C644 1.367 . S
C645 C647 1.433 . S
C646 C642 1.350 . S
C646 C643 1.463 1_455 S
C646 N650 1.427 . S
C647 H637 0.929 . S
C647 C645 1.433 . S
C647 N650 1.384 . S
C648 H639 0.929 . S
C648 C640 1.378 . S
C648 C643 1.350 . S
C649 H636 0.929 . S
C649 C641 1.433 . S
C649 N651 1.384 . S
N650 C646 1.427 . S
N650 C647 1.384 . S
N651 C643 1.427 . S
N651 C649 1.384 . S
H652 C658 0.930 . S
H653 C662 0.930 . S
H654 C667 0.929 . S
H655 C665 0.929 . S
H656 C660 0.929 . S
H657 C666 0.929 . S
C658 H652 0.930 . S
C658 C659 1.367 . S
C658 C666 1.378 . S
C659 C658 1.367 . S
C659 C667 1.433 . S
C660 H656 0.929 . S
C660 C662 1.378 . S
C660 C664 1.350 . S
C661 C664 1.463 . S
C661 C666 1.350 . S
C661 N669 1.427 . S
C662 H653 0.930 . S
C662 C660 1.378 . S
C662 C663 1.367 . S
C663 C662 1.367 . S
C663 C665 1.433 . S
C664 C660 1.350 . S
C664 C661 1.463 . S
C664 N668 1.427 . S
C665 H655 0.929 . S
C665 C663 1.433 . S
C665 N668 1.384 . S
C666 H657 0.929 . S
C666 C658 1.378 . S
C666 C661 1.350 . S
C667 H654 0.929 . S
C667 C659 1.433 . S
C667 N669 1.384 . S
N668 C664 1.427 . S
N668 C665 1.384 . S
N669 C661 1.427 . S
N669 C667 1.384 . S
H670 C676 0.930 . S
H671 C680 0.930 . S
H672 C685 0.929 . S
H673 C683 0.929 . S
H674 C678 0.929 . S
H675 C684 0.929 . S
C676 H670 0.930 . S
C676 C677 1.367 . S
C676 C684 1.378 . S
C677 C676 1.367 . S
C677 C685 1.433 . S
C678 H674 0.929 . S
C678 C680 1.378 . S
C678 C682 1.350 . S
C679 C682 1.463 1_655 S
C679 C684 1.350 . S
C679 N687 1.427 . S
C680 H671 0.930 . S
C680 C678 1.378 . S
C680 C681 1.367 . S
C681 C680 1.367 . S
C681 C683 1.433 . S
C682 C678 1.350 . S
C682 C679 1.463 1_455 S
C682 N686 1.427 . S
C683 H673 0.929 . S
C683 C681 1.433 . S
C683 N686 1.384 . S
C684 H675 0.929 . S
C684 C676 1.378 . S
C684 C679 1.350 . S
C685 H672 0.929 . S
C685 C677 1.433 . S
C685 N687 1.384 . S
N686 C682 1.427 . S
N686 C683 1.384 . S
N687 C679 1.427 . S
N687 C685 1.384 . S
H688 C694 0.930 . S
H689 C698 0.930 . S
H690 C703 0.929 . S
H691 C701 0.929 . S
H692 C696 0.929 . S
H693 C702 0.929 . S
C694 H688 0.930 . S
C694 C695 1.367 . S
C694 C702 1.378 . S
C695 C694 1.367 . S
C695 C703 1.433 . S
C696 H692 0.929 . S
C696 C698 1.378 . S
C696 C700 1.350 . S
C697 C700 1.463 . S
C697 C702 1.350 . S
C697 N705 1.427 . S
C698 H689 0.930 . S
C698 C696 1.378 . S
C698 C699 1.367 . S
C699 C698 1.367 . S
C699 C701 1.433 . S
C700 C696 1.350 . S
C700 C697 1.463 . S
C700 N704 1.427 . S
C701 H691 0.929 . S
C701 C699 1.433 . S
C701 N704 1.384 . S
C702 H693 0.929 . S
C702 C694 1.378 . S
C702 C697 1.350 . S
C703 H690 0.929 . S
C703 C695 1.433 . S
C703 N705 1.384 . S
N704 C700 1.427 . S
N704 C701 1.384 . S
N705 C697 1.427 . S
N705 C703 1.384 . S
H706 C712 0.930 . S
H707 C716 0.930 . S
H708 C721 0.929 . S
H709 C719 0.929 . S
H710 C714 0.929 . S
H711 C720 0.929 . S
C712 H706 0.930 . S
C712 C713 1.367 . S
C712 C720 1.378 . S
C713 C712 1.367 . S
C713 C721 1.433 . S
C714 H710 0.929 . S
C714 C716 1.378 . S
C714 C718 1.350 . S
C715 C718 1.463 . S
C715 C720 1.350 . S
C715 N723 1.427 . S
C716 H707 0.930 . S
C716 C714 1.378 . S
C716 C717 1.367 . S
C717 C716 1.367 . S
C717 C719 1.433 . S
C718 C714 1.350 . S
C718 C715 1.463 . S
C718 N722 1.427 . S
C719 H709 0.929 . S
C719 C717 1.433 . S
C719 N722 1.384 . S
C720 H711 0.929 . S
C720 C712 1.378 . S
C720 C715 1.350 . S
C721 H708 0.929 . S
C721 C713 1.433 . S
C721 N723 1.384 . S
N722 C718 1.427 . S
N722 C719 1.384 . S
N723 C715 1.427 . S
N723 C721 1.384 . S
H724 C730 0.930 . S
H725 C734 0.930 . S
H726 C739 0.929 . S
H727 C737 0.929 . S
H728 C732 0.929 . S
H729 C738 0.929 . S
C730 H724 0.930 . S
C730 C731 1.367 . S
C730 C738 1.378 . S
C731 C730 1.367 . S
C731 C739 1.433 . S
C732 H728 0.929 . S
C732 C734 1.378 . S
C732 C736 1.350 . S
C733 C736 1.463 . S
C733 C738 1.350 . S
C733 N741 1.427 . S
C734 H725 0.930 . S
C734 C732 1.378 . S
C734 C735 1.367 . S
C735 C734 1.367 . S
C735 C737 1.433 . S
C736 C732 1.350 . S
C736 C733 1.463 . S
C736 N740 1.427 . S
C737 H727 0.929 . S
C737 C735 1.433 . S
C737 N740 1.384 . S
C738 H729 0.929 . S
C738 C730 1.378 . S
C738 C733 1.350 . S
C739 H726 0.929 . S
C739 C731 1.433 . S
C739 N741 1.384 . S
N740 C736 1.427 . S
N740 C737 1.384 . S
N741 C733 1.427 . S
N741 C739 1.384 . S
H742 C748 0.930 . S
H743 C752 0.930 . S
H744 C757 0.929 . S
H745 C755 0.929 . S
H746 C750 0.929 . S
H747 C756 0.929 . S
C748 H742 0.930 . S
C748 C749 1.367 . S
C748 C756 1.378 . S
C749 C748 1.367 . S
C749 C757 1.433 . S
C750 H746 0.929 . S
C750 C752 1.378 . S
C750 C754 1.350 . S
C751 C754 1.463 . S
C751 C756 1.350 . S
C751 N759 1.427 . S
C752 H743 0.930 . S
C752 C750 1.378 . S
C752 C753 1.367 . S
C753 C752 1.367 . S
C753 C755 1.433 . S
C754 C750 1.350 . S
C754 C751 1.463 . S
C754 N758 1.427 . S
C755 H745 0.929 . S
C755 C753 1.433 . S
C755 N758 1.384 . S
C756 H747 0.929 . S
C756 C748 1.378 . S
C756 C751 1.350 . S
C757 H744 0.929 . S
C757 C749 1.433 . S
C757 N759 1.384 . S
N758 C754 1.427 . S
N758 C755 1.384 . S
N759 C751 1.427 . S
N759 C757 1.384 . S
H760 C766 0.930 . S
H761 C770 0.930 . S
H762 C775 0.929 . S
H763 C773 0.929 . S
H764 C768 0.929 . S
H765 C774 0.929 . S
C766 H760 0.930 . S
C766 C767 1.367 . S
C766 C774 1.378 . S
C767 C766 1.367 . S
C767 C775 1.433 . S
C768 H764 0.929 . S
C768 C770 1.378 . S
C768 C772 1.350 . S
C769 C772 1.463 . S
C769 C774 1.350 . S
C769 N777 1.427 . S
C770 H761 0.930 . S
C770 C768 1.378 . S
C770 C771 1.367 . S
C771 C770 1.367 . S
C771 C773 1.433 . S
C772 C768 1.350 . S
C772 C769 1.463 . S
C772 N776 1.427 . S
C773 H763 0.929 . S
C773 C771 1.433 . S
C773 N776 1.384 . S
C774 H765 0.929 . S
C774 C766 1.378 . S
C774 C769 1.350 . S
C775 H762 0.929 . S
C775 C767 1.433 . S
C775 N777 1.384 . S
N776 C772 1.427 . S
N776 C773 1.384 . S
N777 C769 1.427 . S
N777 C775 1.384 . S
H778 C784 0.930 . S
H779 C788 0.930 . S
H780 C793 0.929 . S
H781 C791 0.929 . S
H782 C786 0.929 . S
H783 C792 0.929 . S
C784 H778 0.930 . S
C784 C785 1.367 . S
C784 C792 1.378 . S
C785 C784 1.367 . S
C785 C793 1.433 . S
C786 H782 0.929 . S
C786 C788 1.378 . S
C786 C790 1.350 . S
C787 C790 1.463 . S
C787 C792 1.350 . S
C787 N795 1.427 . S
C788 H779 0.930 . S
C788 C786 1.378 . S
C788 C789 1.367 . S
C789 C788 1.367 . S
C789 C791 1.433 . S
C790 C786 1.350 . S
C790 C787 1.463 . S
C790 N794 1.427 . S
C791 H781 0.929 . S
C791 C789 1.433 . S
C791 N794 1.384 . S
C792 H783 0.929 . S
C792 C784 1.378 . S
C792 C787 1.350 . S
C793 H780 0.929 . S
C793 C785 1.433 . S
C793 N795 1.384 . S
N794 C790 1.427 . S
N794 C791 1.384 . S
N795 C787 1.427 . S
N795 C793 1.384 . S
H796 C802 0.930 . S
H797 C806 0.930 . S
H798 C811 0.929 . S
H799 C809 0.929 . S
H800 C804 0.929 . S
H801 C810 0.929 . S
C802 H796 0.930 . S
C802 C803 1.367 . S
C802 C810 1.378 . S
C803 C802 1.367 . S
C803 C811 1.433 . S
C804 H800 0.929 . S
C804 C806 1.378 . S
C804 C808 1.350 . S
C805 C808 1.463 . S
C805 C810 1.350 . S
C805 N813 1.427 . S
C806 H797 0.930 . S
C806 C804 1.378 . S
C806 C807 1.367 . S
C807 C806 1.367 . S
C807 C809 1.433 . S
C808 C804 1.350 . S
C808 C805 1.463 . S
C808 N812 1.427 . S
C809 H799 0.929 . S
C809 C807 1.433 . S
C809 N812 1.384 . S
C810 H801 0.929 . S
C810 C802 1.378 . S
C810 C805 1.350 . S
C811 H798 0.929 . S
C811 C803 1.433 . S
C811 N813 1.384 . S
N812 C808 1.427 . S
N812 C809 1.384 . S
N813 C805 1.427 . S
N813 C811 1.384 . S
H814 C820 0.930 . S
H815 C824 0.930 . S
H816 C829 0.929 . S
H817 C827 0.929 . S
H818 C822 0.929 . S
H819 C828 0.929 . S
C820 H814 0.930 . S
C820 C821 1.367 . S
C820 C828 1.378 . S
C821 C820 1.367 . S
C821 C829 1.433 . S
C822 H818 0.929 . S
C822 C824 1.378 . S
C822 C826 1.350 . S
C823 C826 1.463 . S
C823 C828 1.350 . S
C823 N831 1.427 . S
C824 H815 0.930 . S
C824 C822 1.378 . S
C824 C825 1.367 . S
C825 C824 1.367 . S
C825 C827 1.433 . S
C826 C822 1.350 . S
C826 C823 1.463 . S
C826 N830 1.427 . S
C827 H817 0.929 . S
C827 C825 1.433 . S
C827 N830 1.384 . S
C828 H819 0.929 . S
C828 C820 1.378 . S
C828 C823 1.350 . S
C829 H816 0.929 . S
C829 C821 1.433 . S
C829 N831 1.384 . S
N830 C826 1.427 . S
N830 C827 1.384 . S
N831 C823 1.427 . S
N831 C829 1.384 . S
H832 C838 0.930 . S
H833 C842 0.930 . S
H834 C847 0.929 . S
H835 C845 0.929 . S
H836 C840 0.929 1_455 S
H837 C846 0.929 1_655 S
C838 H832 0.930 . S
C838 C839 1.367 . S
C838 C846 1.378 . S
C839 C838 1.367 . S
C839 C847 1.433 1_545 S
C840 H836 0.929 1_655 S
C840 C842 1.378 . S
C840 C844 1.350 . S
C841 C844 1.463 1_445 S
C841 C846 1.350 . S
C841 N849 1.427 1_545 S
C842 H833 0.930 . S
C842 C840 1.378 . S
C842 C843 1.367 . S
C843 C842 1.367 . S
C843 C845 1.433 1_565 S
C844 C840 1.350 . S
C844 C841 1.463 1_665 S
C844 N848 1.427 1_565 S
C845 H835 0.929 . S
C845 C843 1.433 1_545 S
C845 N848 1.384 . S
C846 H837 0.929 1_455 S
C846 C838 1.378 . S
C846 C841 1.350 . S
C847 H834 0.929 . S
C847 C839 1.433 1_565 S
C847 N849 1.384 . S
N848 C844 1.427 1_545 S
N848 C845 1.384 . S
N849 C841 1.427 1_565 S
N849 C847 1.384 . S
H850 C856 0.930 . S
H851 C860 0.930 . S
H852 C865 0.929 . S
H853 C863 0.929 . S
H854 C858 0.929 . S
H855 C864 0.929 . S
C856 H850 0.930 . S
C856 C857 1.367 . S
C856 C864 1.378 . S
C857 C856 1.367 . S
C857 C865 1.433 1_565 S
C858 H854 0.929 . S
C858 C860 1.378 . S
C858 C862 1.350 . S
C859 C862 1.463 1_565 S
C859 C864 1.350 . S
C859 N867 1.427 1_565 S
C860 H851 0.930 . S
C860 C858 1.378 . S
C860 C861 1.367 . S
C861 C860 1.367 . S
C861 C863 1.433 1_545 S
C862 C858 1.350 . S
C862 C859 1.463 1_545 S
C862 N866 1.427 1_545 S
C863 H853 0.929 . S
C863 C861 1.433 1_565 S
C863 N866 1.384 . S
C864 H855 0.929 . S
C864 C856 1.378 . S
C864 C859 1.350 . S
C865 H852 0.929 . S
C865 C857 1.433 1_545 S
C865 N867 1.384 . S
N866 C862 1.427 1_565 S
N866 C863 1.384 . S
N867 C859 1.427 1_545 S
N867 C865 1.384 . S
H868 C874 0.930 . S
H869 C878 0.930 . S
H870 C883 0.929 . S
H871 C881 0.929 . S
H872 C876 0.929 . S
H873 C882 0.929 . S
C874 H868 0.930 . S
C874 C875 1.367 1_565 S
C874 C882 1.378 . S
C875 C874 1.367 1_545 S
C875 C883 1.433 . S
C876 H872 0.929 . S
C876 C878 1.378 . S
C876 C880 1.350 1_545 S
C877 C880 1.463 1_546 S
C877 C882 1.350 1_545 S
C877 N885 1.427 . S
C878 H869 0.930 . S
C878 C876 1.378 . S
C878 C879 1.367 1_545 S
C879 C878 1.367 1_565 S
C879 C881 1.433 . S
C880 C876 1.350 1_565 S
C880 C877 1.463 1_564 S
C880 N884 1.427 . S
C881 H871 0.929 . S
C881 C879 1.433 . S
C881 N884 1.384 . S
C882 H873 0.929 . S
C882 C874 1.378 . S
C882 C877 1.350 1_565 S
C883 H870 0.929 . S
C883 C875 1.433 . S
C883 N885 1.384 . S
N884 C880 1.427 . S
N884 C881 1.384 . S
N885 C877 1.427 . S
N885 C883 1.384 . S
H886 C892 0.930 . S
H887 C896 0.930 . S
H888 C901 0.929 . S
H889 C899 0.929 . S
H890 C894 0.956 . S
H891 C900 0.956 . S
C892 H886 0.930 . S
C892 C893 1.367 . S
C892 C900 1.378 . S
C893 C892 1.367 . S
C893 C901 1.433 1_545 S
C894 H890 0.956 . S
C894 C896 1.378 . S
C894 C898 1.350 . S
C895 C898 1.463 1_644 S
C895 C900 1.350 . S
C895 N903 1.427 1_545 S
C896 H887 0.930 . S
C896 C894 1.378 . S
C896 C897 1.367 . S
C897 C896 1.367 . S
C897 C899 1.433 1_565 S
C898 C894 1.350 . S
C898 C895 1.463 1_466 S
C898 N902 1.427 1_565 S
C899 H889 0.929 . S
C899 C897 1.433 1_545 S
C899 N902 1.384 . S
C900 H891 0.956 . S
C900 C892 1.378 . S
C900 C895 1.350 . S
C901 H888 0.929 . S
C901 C893 1.433 1_565 S
C901 N903 1.384 . S
N902 C898 1.427 1_545 S
N902 C899 1.384 . S
N903 C895 1.427 1_565 S
N903 C901 1.384 . S
H904 C910 0.930 . S
H905 C914 0.930 . S
H906 C919 0.929 . S
H907 C917 0.929 . S
H908 C912 0.929 . S
H909 C918 0.929 . S
C910 H904 0.930 . S
C910 C911 1.367 . S
C910 C918 1.378 . S
C911 C910 1.367 . S
C911 C919 1.433 . S
C912 H908 0.929 . S
C912 C914 1.378 . S
C912 C916 1.350 . S
C913 C916 1.463 . S
C913 C918 1.350 . S
C913 N921 1.427 . S
C914 H905 0.930 . S
C914 C912 1.378 . S
C914 C915 1.367 . S
C915 C914 1.367 . S
C915 C917 1.433 . S
C916 C912 1.350 . S
C916 C913 1.463 . S
C916 N920 1.427 . S
C917 H907 0.929 . S
C917 C915 1.433 . S
C917 N920 1.384 . S
C918 H909 0.929 . S
C918 C910 1.378 . S
C918 C913 1.350 . S
C919 H906 0.929 . S
C919 C911 1.433 . S
C919 N921 1.384 . S
N920 C916 1.427 . S
N920 C917 1.384 . S
N921 C913 1.427 . S
N921 C919 1.384 . S
H922 C928 0.930 . S
H923 C932 0.930 . S
H924 C937 0.929 . S
H925 C935 0.929 . S
H926 C930 0.929 . S
H927 C936 0.929 . S
C928 H922 0.930 . S
C928 C929 1.367 . S
C928 C936 1.378 . S
C929 C928 1.367 . S
C929 C937 1.433 . S
C930 H926 0.929 . S
C930 C932 1.378 . S
C930 C934 1.350 . S
C931 C934 1.463 1_455 S
C931 C936 1.350 . S
C931 N939 1.427 . S
C932 H923 0.930 . S
C932 C930 1.378 . S
C932 C933 1.367 . S
C933 C932 1.367 . S
C933 C935 1.433 . S
C934 C930 1.350 . S
C934 C931 1.463 1_655 S
C934 N938 1.427 . S
C935 H925 0.929 . S
C935 C933 1.433 . S
C935 N938 1.384 . S
C936 H927 0.929 . S
C936 C928 1.378 . S
C936 C931 1.350 . S
C937 H924 0.929 . S
C937 C929 1.433 . S
C937 N939 1.384 . S
N938 C934 1.427 . S
N938 C935 1.384 . S
N939 C931 1.427 . S
N939 C937 1.384 . S
H940 C946 0.930 . S
H941 C950 0.930 . S
H942 C955 0.929 . S
H943 C953 0.929 . S
H944 C948 0.929 . S
H945 C954 0.929 . S
C946 H940 0.930 . S
C946 C947 1.367 . S
C946 C954 1.378 . S
C947 C946 1.367 . S
C947 C955 1.433 . S
C948 H944 0.929 . S
C948 C950 1.378 . S
C948 C952 1.350 . S
C949 C952 1.463 1_454 S
C949 C954 1.350 . S
C949 N957 1.427 . S
C950 H941 0.930 . S
C950 C948 1.378 . S
C950 C951 1.367 . S
C951 C950 1.367 . S
C951 C953 1.433 . S
C952 C948 1.350 . S
C952 C949 1.463 1_656 S
C952 N956 1.427 . S
C953 H943 0.929 . S
C953 C951 1.433 . S
C953 N956 1.384 . S
C954 H945 0.929 . S
C954 C946 1.378 . S
C954 C949 1.350 . S
C955 H942 0.929 . S
C955 C947 1.433 . S
C955 N957 1.384 . S
N956 C952 1.427 . S
N956 C953 1.384 . S
N957 C949 1.427 . S
N957 C955 1.384 . S
H958 C964 0.930 . S
H959 C968 0.930 . S
H960 C973 0.929 . S
H961 C971 0.929 . S
H962 C966 0.929 . S
H963 C972 0.929 . S
C964 H958 0.930 . S
C964 C965 1.367 . S
C964 C972 1.378 . S
C965 C964 1.367 . S
C965 C973 1.433 . S
C966 H962 0.929 . S
C966 C968 1.378 . S
C966 C970 1.350 . S
C967 C970 1.463 1_556 S
C967 C972 1.350 . S
C967 N975 1.427 . S
C968 H959 0.930 . S
C968 C966 1.378 . S
C968 C969 1.367 . S
C969 C968 1.367 . S
C969 C971 1.433 . S
C970 C966 1.350 . S
C970 C967 1.463 1_554 S
C970 N974 1.427 . S
C971 H961 0.929 . S
C971 C969 1.433 . S
C971 N974 1.384 . S
C972 H963 0.929 . S
C972 C964 1.378 . S
C972 C967 1.350 . S
C973 H960 0.929 . S
C973 C965 1.433 . S
C973 N975 1.384 . S
N974 C970 1.427 . S
N974 C971 1.384 . S
N975 C967 1.427 . S
N975 C973 1.384 . S
H976 C982 0.930 . S
H977 C986 0.930 . S
H978 C991 0.929 . S
H979 C989 0.929 . S
H980 C984 0.929 . S
H981 C990 0.929 . S
C982 H976 0.930 . S
C982 C983 1.367 . S
C982 C990 1.378 . S
C983 C982 1.367 . S
C983 C991 1.433 . S
C984 H980 0.929 . S
C984 C986 1.378 . S
C984 C988 1.350 . S
C985 C988 1.463 1_545 S
C985 C990 1.350 . S
C985 N993 1.427 . S
C986 H977 0.930 . S
C986 C984 1.378 . S
C986 C987 1.367 . S
C987 C986 1.367 . S
C987 C989 1.433 . S
C988 C984 1.350 . S
C988 C985 1.463 1_565 S
C988 N992 1.427 . S
C989 H979 0.929 . S
C989 C987 1.433 . S
C989 N992 1.384 . S
C990 H981 0.929 . S
C990 C982 1.378 . S
C990 C985 1.350 . S
C991 H978 0.929 . S
C991 C983 1.433 . S
C991 N993 1.384 . S
N992 C988 1.427 . S
N992 C989 1.384 . S
N993 C985 1.427 . S
N993 C991 1.384 . S
H994 C1000 0.930 . S
H995 C1004 0.930 . S
H996 C1009 0.929 . S
H997 C1007 0.929 . S
H998 C1002 0.929 . S
H999 C1008 0.929 . S
C1000 H994 0.930 . S
C1000 C1001 1.367 . S
C1000 C1008 1.378 . S
C1001 C1000 1.367 . S
C1001 C1009 1.433 . S
C1002 H998 0.929 . S
C1002 C1004 1.378 . S
C1002 C1006 1.350 . S
C1003 C1006 1.463 1_545 S
C1003 C1008 1.350 . S
C1003 N1011 1.434 . S
C1004 H995 0.930 . S
C1004 C1002 1.378 . S
C1004 C1005 1.367 . S
C1005 C1004 1.367 . S
C1005 C1007 1.433 . S
C1006 C1002 1.350 . S
C1006 C1003 1.463 1_565 S
C1006 N1010 1.434 . S
C1007 H997 0.929 . S
C1007 C1005 1.433 . S
C1007 N1010 1.397 . S
C1008 H999 0.929 . S
C1008 C1000 1.378 . S
C1008 C1003 1.350 . S
C1009 H996 0.929 . S
C1009 C1001 1.433 . S
C1009 N1011 1.397 . S
N1010 C1006 1.434 . S
N1010 C1007 1.397 . S
N1011 C1003 1.434 . S
N1011 C1009 1.397 . S
H1012 C1018 0.930 . S
H1013 C1022 0.930 . S
H1014 C1027 0.929 . S
H1015 C1025 0.929 . S
H1016 C1020 0.929 1_545 S
H1017 C1026 0.929 1_565 S
C1018 H1012 0.930 . S
C1018 C1019 1.367 . S
C1018 C1026 1.378 . S
C1019 C1018 1.367 . S
C1019 C1027 1.433 . S
C1020 H1016 0.929 1_565 S
C1020 C1022 1.378 . S
C1020 C1024 1.350 . S
C1021 C1024 1.463 1_545 S
C1021 C1026 1.350 . S
C1021 N1029 1.427 . S
C1022 H1013 0.930 . S
C1022 C1020 1.378 . S
C1022 C1023 1.367 . S
C1023 C1022 1.367 . S
C1023 C1025 1.433 . S
C1024 C1020 1.350 . S
C1024 C1021 1.463 1_565 S
C1024 N1028 1.427 . S
C1025 H1015 0.929 . S
C1025 C1023 1.433 . S
C1025 N1028 1.384 . S
C1026 H1017 0.929 1_545 S
C1026 C1018 1.378 . S
C1026 C1021 1.350 . S
C1027 H1014 0.929 . S
C1027 C1019 1.433 . S
C1027 N1029 1.384 . S
N1028 C1024 1.427 . S
N1028 C1025 1.384 . S
N1029 C1021 1.427 . S
N1029 C1027 1.384 . S
H1030 C1036 0.930 . S
H1031 C1040 0.930 . S
H1032 C1045 0.929 . S
H1033 C1043 0.929 . S
H1034 C1038 0.929 . S
H1035 C1044 0.929 . S
C1036 H1030 0.930 . S
C1036 C1037 1.367 . S
C1036 C1044 1.378 . S
C1037 C1036 1.367 . S
C1037 C1045 1.433 . S
C1038 H1034 0.929 . S
C1038 C1040 1.378 . S
C1038 C1042 1.350 . S
C1039 C1042 1.463 1_545 S
C1039 C1044 1.350 . S
C1039 N1047 1.427 . S
C1040 H1031 0.930 . S
C1040 C1038 1.378 . S
C1040 C1041 1.367 . S
C1041 C1040 1.367 . S
C1041 C1043 1.433 . S
C1042 C1038 1.350 . S
C1042 C1039 1.463 1_565 S
C1042 N1046 1.427 . S
C1043 H1033 0.929 . S
C1043 C1041 1.433 . S
C1043 N1046 1.384 . S
C1044 H1035 0.929 . S
C1044 C1036 1.378 . S
C1044 C1039 1.350 . S
C1045 H1032 0.929 . S
C1045 C1037 1.433 . S
C1045 N1047 1.384 . S
N1046 C1042 1.427 . S
N1046 C1043 1.384 . S
N1047 C1039 1.427 . S
N1047 C1045 1.384 . S
H1048 C1054 0.930 . S
H1049 C1058 0.930 . S
H1050 C1063 0.929 . S
H1051 C1061 0.929 . S
H1052 C1056 0.929 . S
H1053 C1062 0.929 . S
C1054 H1048 0.930 . S
C1054 C1055 1.367 . S
C1054 C1062 1.378 . S
C1055 C1054 1.367 . S
C1055 C1063 1.433 . S
C1056 H1052 0.929 . S
C1056 C1058 1.378 . S
C1056 C1060 1.350 . S
C1057 C1060 1.463 . S
C1057 C1062 1.350 . S
C1057 N1065 1.427 . S
C1058 H1049 0.930 . S
C1058 C1056 1.378 . S
C1058 C1059 1.367 . S
C1059 C1058 1.367 . S
C1059 C1061 1.433 . S
C1060 C1056 1.350 . S
C1060 C1057 1.463 . S
C1060 N1064 1.427 . S
C1061 H1051 0.929 . S
C1061 C1059 1.433 . S
C1061 N1064 1.384 . S
C1062 H1053 0.929 . S
C1062 C1054 1.378 . S
C1062 C1057 1.350 . S
C1063 H1050 0.929 . S
C1063 C1055 1.433 . S
C1063 N1065 1.384 . S
N1064 C1060 1.427 . S
N1064 C1061 1.384 . S
N1065 C1057 1.427 . S
N1065 C1063 1.384 . S
H1066 C1072 0.930 . S
H1067 C1076 0.930 . S
H1068 C1081 0.929 . S
H1069 C1079 0.929 . S
H1070 C1074 0.929 . S
H1071 C1080 0.929 . S
C1072 H1066 0.930 . S
C1072 C1073 1.367 . S
C1072 C1080 1.378 . S
C1073 C1072 1.367 . S
C1073 C1081 1.433 . S
C1074 H1070 0.929 . S
C1074 C1076 1.378 . S
C1074 C1078 1.350 . S
C1075 C1078 1.463 . S
C1075 C1080 1.350 . S
C1075 N1083 1.427 . S
C1076 H1067 0.930 . S
C1076 C1074 1.378 . S
C1076 C1077 1.367 . S
C1077 C1076 1.367 . S
C1077 C1079 1.433 . S
C1078 C1074 1.350 . S
C1078 C1075 1.463 . S
C1078 N1082 1.427 . S
C1079 H1069 0.929 . S
C1079 C1077 1.433 . S
C1079 N1082 1.384 . S
C1080 H1071 0.929 . S
C1080 C1072 1.378 . S
C1080 C1075 1.350 . S
C1081 H1068 0.929 . S
C1081 C1073 1.433 . S
C1081 N1083 1.384 . S
N1082 C1078 1.427 . S
N1082 C1079 1.384 . S
N1083 C1075 1.427 . S
N1083 C1081 1.384 . S
H1084 C1090 0.930 . S
H1085 C1094 0.930 . S
H1086 C1099 0.929 . S
H1087 C1097 0.929 . S
H1088 C1092 0.929 . S
H1089 C1098 0.929 . S
C1090 H1084 0.930 . S
C1090 C1091 1.367 . S
C1090 C1098 1.378 . S
C1091 C1090 1.367 . S
C1091 C1099 1.433 . S
C1092 H1088 0.929 . S
C1092 C1094 1.378 . S
C1092 C1096 1.350 . S
C1093 C1096 1.463 . S
C1093 C1098 1.350 . S
C1093 N1101 1.427 . S
C1094 H1085 0.930 . S
C1094 C1092 1.378 . S
C1094 C1095 1.367 . S
C1095 C1094 1.367 . S
C1095 C1097 1.433 . S
C1096 C1092 1.350 . S
C1096 C1093 1.463 . S
C1096 N1100 1.427 . S
C1097 H1087 0.929 . S
C1097 C1095 1.433 . S
C1097 N1100 1.384 . S
C1098 H1089 0.929 . S
C1098 C1090 1.378 . S
C1098 C1093 1.350 . S
C1099 H1086 0.929 . S
C1099 C1091 1.433 . S
C1099 N1101 1.384 . S
N1100 C1096 1.427 . S
N1100 C1097 1.384 . S
N1101 C1093 1.427 . S
N1101 C1099 1.384 . S
H1102 C1108 0.930 . S
H1103 C1112 0.930 . S
H1104 C1117 0.929 . S
H1105 C1115 0.929 . S
H1106 C1110 0.929 . S
H1107 C1116 0.929 . S
C1108 H1102 0.930 . S
C1108 C1109 1.367 . S
C1108 C1116 1.378 . S
C1109 C1108 1.367 . S
C1109 C1117 1.433 . S
C1110 H1106 0.929 . S
C1110 C1112 1.378 . S
C1110 C1114 1.350 . S
C1111 C1114 1.463 . S
C1111 C1116 1.350 . S
C1111 N1119 1.427 . S
C1112 H1103 0.930 . S
C1112 C1110 1.378 . S
C1112 C1113 1.367 . S
C1113 C1112 1.367 . S
C1113 C1115 1.433 . S
C1114 C1110 1.350 . S
C1114 C1111 1.463 . S
C1114 N1118 1.427 . S
C1115 H1105 0.929 . S
C1115 C1113 1.433 . S
C1115 N1118 1.384 . S
C1116 H1107 0.929 . S
C1116 C1108 1.378 . S
C1116 C1111 1.350 . S
C1117 H1104 0.929 . S
C1117 C1109 1.433 . S
C1117 N1119 1.384 . S
N1118 C1114 1.427 . S
N1118 C1115 1.384 . S
N1119 C1111 1.427 . S
N1119 C1117 1.384 . S
H1120 C1126 0.930 . S
H1121 C1130 0.930 . S
H1122 C1135 0.929 . S
H1123 C1133 0.929 . S
H1124 C1128 0.929 . S
H1125 C1134 0.929 . S
C1126 H1120 0.930 . S
C1126 C1127 1.367 . S
C1126 C1134 1.378 . S
C1127 C1126 1.367 . S
C1127 C1135 1.433 . S
C1128 H1124 0.929 . S
C1128 C1130 1.378 . S
C1128 C1132 1.350 . S
C1129 C1132 1.463 1_455 S
C1129 C1134 1.350 . S
C1129 N1137 1.427 . S
C1130 H1121 0.930 . S
C1130 C1128 1.378 . S
C1130 C1131 1.367 . S
C1131 C1130 1.367 . S
C1131 C1133 1.433 . S
C1132 C1128 1.350 . S
C1132 C1129 1.463 1_655 S
C1132 N1136 1.427 . S
C1133 H1123 0.929 . S
C1133 C1131 1.433 . S
C1133 N1136 1.384 . S
C1134 H1125 0.929 . S
C1134 C1126 1.378 . S
C1134 C1129 1.350 . S
C1135 H1122 0.929 . S
C1135 C1127 1.433 . S
C1135 N1137 1.384 . S
N1136 C1132 1.427 . S
N1136 C1133 1.384 . S
N1137 C1129 1.427 . S
N1137 C1135 1.384 . S
H1138 C1144 0.930 . S
H1139 C1148 0.930 . S
H1140 C1153 0.929 . S
H1141 C1151 0.929 . S
H1142 C1146 0.929 . S
H1143 C1152 0.929 . S
C1144 H1138 0.930 . S
C1144 C1145 1.367 . S
C1144 C1152 1.378 . S
C1145 C1144 1.367 . S
C1145 C1153 1.433 . S
C1146 H1142 0.929 . S
C1146 C1148 1.378 . S
C1146 C1150 1.350 . S
C1147 C1150 1.463 . S
C1147 C1152 1.350 . S
C1147 N1155 1.427 . S
C1148 H1139 0.930 . S
C1148 C1146 1.378 . S
C1148 C1149 1.367 . S
C1149 C1148 1.367 . S
C1149 C1151 1.433 . S
C1150 C1146 1.350 . S
C1150 C1147 1.463 . S
C1150 N1154 1.427 . S
C1151 H1141 0.929 . S
C1151 C1149 1.433 . S
C1151 N1154 1.384 . S
C1152 H1143 0.929 . S
C1152 C1144 1.378 . S
C1152 C1147 1.350 . S
C1153 H1140 0.929 . S
C1153 C1145 1.433 . S
C1153 N1155 1.384 . S
N1154 C1150 1.427 . S
N1154 C1151 1.384 . S
N1155 C1147 1.427 . S
N1155 C1153 1.384 . S
H1156 C1162 0.930 . S
H1157 C1166 0.930 . S
H1158 C1171 0.929 . S
H1159 C1169 0.929 . S
H1160 C1164 0.929 . S
H1161 C1170 0.929 . S
C1162 H1156 0.930 . S
C1162 C1163 1.367 . S
C1162 C1170 1.378 . S
C1163 C1162 1.367 . S
C1163 C1171 1.433 . S
C1164 H1160 0.929 . S
C1164 C1166 1.378 . S
C1164 C1168 1.350 . S
C1165 C1168 1.463 . S
C1165 C1170 1.350 . S
C1165 N1173 1.427 . S
C1166 H1157 0.930 . S
C1166 C1164 1.378 . S
C1166 C1167 1.367 . S
C1167 C1166 1.367 . S
C1167 C1169 1.433 . S
C1168 C1164 1.350 . S
C1168 C1165 1.463 . S
C1168 N1172 1.427 . S
C1169 H1159 0.929 . S
C1169 C1167 1.433 . S
C1169 N1172 1.384 . S
C1170 H1161 0.929 . S
C1170 C1162 1.378 . S
C1170 C1165 1.350 . S
C1171 H1158 0.929 . S
C1171 C1163 1.433 . S
C1171 N1173 1.384 . S
N1172 C1168 1.427 . S
N1172 C1169 1.384 . S
N1173 C1165 1.427 . S
N1173 C1171 1.384 . S
H1174 C1180 0.930 . S
H1175 C1184 0.930 . S
H1176 C1189 0.929 . S
H1177 C1187 0.929 . S
H1178 C1182 0.929 1_655 S
H1179 C1188 0.929 1_455 S
C1180 H1174 0.930 . S
C1180 C1181 1.367 . S
C1180 C1188 1.378 . S
C1181 C1180 1.367 . S
C1181 C1189 1.433 . S
C1182 H1178 0.929 1_455 S
C1182 C1184 1.378 . S
C1182 C1186 1.350 . S
C1183 C1186 1.463 1_655 S
C1183 C1188 1.350 . S
C1183 N1191 1.427 . S
C1184 H1175 0.930 . S
C1184 C1182 1.378 . S
C1184 C1185 1.367 . S
C1185 C1184 1.367 . S
C1185 C1187 1.433 . S
C1186 C1182 1.350 . S
C1186 C1183 1.463 1_455 S
C1186 N1190 1.427 . S
C1187 H1177 0.929 . S
C1187 C1185 1.433 . S
C1187 N1190 1.384 . S
C1188 H1179 0.929 1_655 S
C1188 C1180 1.378 . S
C1188 C1183 1.350 . S
C1189 H1176 0.929 . S
C1189 C1181 1.433 . S
C1189 N1191 1.384 . S
N1190 C1186 1.427 . S
N1190 C1187 1.384 . S
N1191 C1183 1.427 . S
N1191 C1189 1.384 . S
H1192 C1198 0.930 . S
H1193 C1202 0.930 . S
H1194 C1207 0.929 . S
H1195 C1205 0.929 . S
H1196 C1200 0.929 . S
H1197 C1206 0.929 . S
C1198 H1192 0.930 . S
C1198 C1199 1.367 . S
C1198 C1206 1.378 . S
C1199 C1198 1.367 . S
C1199 C1207 1.433 . S
C1200 H1196 0.929 . S
C1200 C1202 1.378 . S
C1200 C1204 1.350 . S
C1201 C1204 1.463 1_655 S
C1201 C1206 1.350 . S
C1201 N1209 1.427 . S
C1202 H1193 0.930 . S
C1202 C1200 1.378 . S
C1202 C1203 1.367 . S
C1203 C1202 1.367 . S
C1203 C1205 1.433 . S
C1204 C1200 1.350 . S
C1204 C1201 1.463 1_455 S
C1204 N1208 1.427 . S
C1205 H1195 0.929 . S
C1205 C1203 1.433 . S
C1205 N1208 1.384 . S
C1206 H1197 0.929 . S
C1206 C1198 1.378 . S
C1206 C1201 1.350 . S
C1207 H1194 0.929 . S
C1207 C1199 1.433 . S
C1207 N1209 1.384 . S
N1208 C1204 1.427 . S
N1208 C1205 1.384 . S
N1209 C1201 1.427 . S
N1209 C1207 1.384 . S
H1210 C1216 0.930 . S
H1211 C1220 0.930 . S
H1212 C1225 0.929 . S
H1213 C1223 0.929 . S
H1214 C1218 0.929 . S
H1215 C1224 0.929 . S
C1216 H1210 0.930 . S
C1216 C1217 1.367 . S
C1216 C1224 1.378 . S
C1217 C1216 1.367 . S
C1217 C1225 1.433 . S
C1218 H1214 0.929 . S
C1218 C1220 1.378 . S
C1218 C1222 1.350 . S
C1219 C1222 1.463 . S
C1219 C1224 1.350 . S
C1219 N1227 1.427 . S
C1220 H1211 0.930 . S
C1220 C1218 1.378 . S
C1220 C1221 1.367 . S
C1221 C1220 1.367 . S
C1221 C1223 1.433 . S
C1222 C1218 1.350 . S
C1222 C1219 1.463 . S
C1222 N1226 1.427 . S
C1223 H1213 0.929 . S
C1223 C1221 1.433 . S
C1223 N1226 1.384 . S
C1224 H1215 0.929 . S
C1224 C1216 1.378 . S
C1224 C1219 1.350 . S
C1225 H1212 0.929 . S
C1225 C1217 1.433 . S
C1225 N1227 1.384 . S
N1226 C1222 1.427 . S
N1226 C1223 1.384 . S
N1227 C1219 1.427 . S
N1227 C1225 1.384 . S
H1228 C1234 0.930 . S
H1229 C1238 0.930 . S
H1230 C1243 0.929 . S
H1231 C1241 0.929 . S
H1232 C1236 0.929 . S
H1233 C1242 0.929 . S
C1234 H1228 0.930 . S
C1234 C1235 1.367 . S
C1234 C1242 1.378 . S
C1235 C1234 1.367 . S
C1235 C1243 1.433 . S
C1236 H1232 0.929 . S
C1236 C1238 1.378 . S
C1236 C1240 1.350 . S
C1237 C1240 1.463 . S
C1237 C1242 1.350 . S
C1237 N1245 1.427 . S
C1238 H1229 0.930 . S
C1238 C1236 1.378 . S
C1238 C1239 1.367 . S
C1239 C1238 1.367 . S
C1239 C1241 1.433 . S
C1240 C1236 1.350 . S
C1240 C1237 1.463 . S
C1240 N1244 1.427 . S
C1241 H1231 0.929 . S
C1241 C1239 1.433 . S
C1241 N1244 1.384 . S
C1242 H1233 0.929 . S
C1242 C1234 1.378 . S
C1242 C1237 1.350 . S
C1243 H1230 0.929 . S
C1243 C1235 1.433 . S
C1243 N1245 1.384 . S
N1244 C1240 1.427 . S
N1244 C1241 1.384 . S
N1245 C1237 1.427 . S
N1245 C1243 1.384 . S
H1246 C1252 0.930 . S
H1247 C1256 0.930 . S
H1248 C1261 0.929 . S
H1249 C1259 0.929 . S
H1250 C1254 0.929 . S
H1251 C1260 0.929 . S
C1252 H1246 0.930 . S
C1252 C1253 1.367 . S
C1252 C1260 1.378 . S
C1253 C1252 1.367 . S
C1253 C1261 1.433 . S
C1254 H1250 0.929 . S
C1254 C1256 1.378 . S
C1254 C1258 1.350 . S
C1255 C1258 1.463 1_655 S
C1255 C1260 1.350 . S
C1255 N1263 1.427 . S
C1256 H1247 0.930 . S
C1256 C1254 1.378 . S
C1256 C1257 1.367 . S
C1257 C1256 1.367 . S
C1257 C1259 1.433 . S
C1258 C1254 1.350 . S
C1258 C1255 1.463 1_455 S
C1258 N1262 1.427 . S
C1259 H1249 0.929 . S
C1259 C1257 1.433 . S
C1259 N1262 1.384 . S
C1260 H1251 0.929 . S
C1260 C1252 1.378 . S
C1260 C1255 1.350 . S
C1261 H1248 0.929 . S
C1261 C1253 1.433 . S
C1261 N1263 1.384 . S
N1262 C1258 1.427 . S
N1262 C1259 1.384 . S
N1263 C1255 1.427 . S
N1263 C1261 1.384 . S
C551 C135 1.163 . S
C555 C33 1.173 . S
C569 C101 1.173 . S
C573 C67 1.164 . S
C587 C169 1.164 . S
C591 C271 1.173 . S
C605 C203 1.173 . S
C609 C237 1.163 . S
C623 C305 1.163 . S
C627 C407 1.170 . S
C641 C339 1.173 . S
C645 C373 1.163 . S
C659 C543 1.170 . S
C663 C441 1.163 . S
C677 C509 1.162 . S
C681 C475 1.171 . S
C695 C5 0.786 . S
C699 C345 0.798 . S
C713 C379 0.792 . S
C717 C39 0.780 . S
C731 C277 0.789 . S
C735 C73 0.796 . S
C749 C311 0.784 . S
C753 C107 0.798 . S
C767 C481 0.798 . S
C771 C141 0.786 . S
C785 C515 0.799 . S
C789 C175 0.783 . S
C803 C413 0.780 . S
C807 C209 0.792 . S
C821 C447 0.781 . S
C825 C243 0.789 . S
C839 C9 1.665 . S
C843 C145 1.665 . S
C857 C43 1.668 . S
C861 C179 1.668 . S
C875 C213 1.657 . S
C879 C77 1.657 . S
C893 C111 1.666 . S
C897 C247 1.666 . S
C911 C281 1.663 . S
C915 C417 1.663 . S
C929 C451 1.668 . S
C933 C315 1.668 . S
C947 C349 1.659 . S
C951 C485 1.659 . S
C965 C519 1.655 . S
C969 C383 1.655 . S
C983 C20 1.378 . S
C987 C54 1.380 . S
C1001 C122 1.379 . S
C1005 C88 1.380 . S
C1019 C190 1.377 . S
C1023 C156 1.378 . S
C1037 C224 1.380 . S
C1041 C258 1.377 . S
C1055 C326 1.379 . S
C1059 C292 1.377 . S
C1073 C394 1.377 . S
C1077 C360 1.379 . S
C1091 C428 1.377 . S
C1095 C462 1.379 . S
C1109 C530 1.377 . S
C1113 C496 1.378 . S
C1127 C2 1.056 . S
C1131 C308 1.041 . S
C1145 C36 1.056 . S
C1149 C274 1.042 . S
C1163 C70 1.054 . S
C1167 C376 1.044 . S
C1181 C104 1.042 . S
C1185 C342 1.054 . S
C1199 C138 1.043 . S
C1203 C444 1.055 . S
C1217 C410 1.043 . S
C1221 C172 1.052 . S
C1235 C206 1.044 . S
C1239 C512 1.055 . S
C1253 C478 1.056 . S
C1257 C240 1.041 . S
