# Generated by pormake.
# Topology wkl, (6)-cn, num edge types: 1
# Building blocks:
#     Node 0, Type 0, BuildingBlock: OJICUG_clean_sbu_0, # of connection points: 6
#     Node 1, Type 0, BuildingBlock: OJICUG_clean_sbu_0, # of connection points: 6
#     Node 2, Type 0, BuildingBlock: OJICUG_clean_sbu_0, # of connection points: 6
#     Node 3, Type 0, BuildingBlock: OJICUG_clean_sbu_0, # of connection points: 6
#     Node 4, Type 0, BuildingBlock: OJICUG_clean_sbu_0, # of connection points: 6
#     Node 5, Type 0, BuildingBlock: OJICUG_clean_sbu_0, # of connection points: 6
#     Node 6, Type 0, BuildingBlock: OJICUG_clean_sbu_0, # of connection points: 6
#     Node 7, Type 0, BuildingBlock: OJICUG_clean_sbu_0, # of connection points: 6
#     Node 8, Type 0, BuildingBlock: OJICUG_clean_sbu_0, # of connection points: 6
#     Node 9, Type 0, BuildingBlock: OJICUG_clean_sbu_0, # of connection points: 6
#     Node 10, Type 0, BuildingBlock: OJICUG_clean_sbu_0, # of connection points: 6
#     Node 11, Type 0, BuildingBlock: OJICUG_clean_sbu_0, # of connection points: 6
#     Edge 12, Type (0, 0), BuildingBlock: KIFKEQ_clean_linker_1, # of connection points: 2
#     Edge 13, Type (0, 0), BuildingBlock: KIFKEQ_clean_linker_1, # of connection points: 2
#     Edge 14, Type (0, 0), BuildingBlock: KIFKEQ_clean_linker_1, # of connection points: 2
#     Edge 15, Type (0, 0), BuildingBlock: KIFKEQ_clean_linker_1, # of connection points: 2
#     Edge 16, Type (0, 0), BuildingBlock: KIFKEQ_clean_linker_1, # of connection points: 2
#     Edge 17, Type (0, 0), BuildingBlock: KIFKEQ_clean_linker_1, # of connection points: 2
#     Edge 18, Type (0, 0), BuildingBlock: KIFKEQ_clean_linker_1, # of connection points: 2
#     Edge 19, Type (0, 0), BuildingBlock: KIFKEQ_clean_linker_1, # of connection points: 2
#     Edge 20, Type (0, 0), BuildingBlock: KIFKEQ_clean_linker_1, # of connection points: 2
#     Edge 21, Type (0, 0), BuildingBlock: KIFKEQ_clean_linker_1, # of connection points: 2
#     Edge 22, Type (0, 0), BuildingBlock: KIFKEQ_clean_linker_1, # of connection points: 2
#     Edge 23, Type (0, 0), BuildingBlock: KIFKEQ_clean_linker_1, # of connection points: 2
#     Edge 24, Type (0, 0), BuildingBlock: KIFKEQ_clean_linker_1, # of connection points: 2
#     Edge 25, Type (0, 0), BuildingBlock: KIFKEQ_clean_linker_1, # of connection points: 2
#     Edge 26, Type (0, 0), BuildingBlock: KIFKEQ_clean_linker_1, # of connection points: 2
#     Edge 27, Type (0, 0), BuildingBlock: KIFKEQ_clean_linker_1, # of connection points: 2
#     Edge 28, Type (0, 0), BuildingBlock: KIFKEQ_clean_linker_1, # of connection points: 2
#     Edge 29, Type (0, 0), BuildingBlock: KIFKEQ_clean_linker_1, # of connection points: 2
#     Edge 30, Type (0, 0), BuildingBlock: KIFKEQ_clean_linker_1, # of connection points: 2
#     Edge 31, Type (0, 0), BuildingBlock: KIFKEQ_clean_linker_1, # of connection points: 2
#     Edge 32, Type (0, 0), BuildingBlock: KIFKEQ_clean_linker_1, # of connection points: 2
#     Edge 33, Type (0, 0), BuildingBlock: KIFKEQ_clean_linker_1, # of connection points: 2
#     Edge 34, Type (0, 0), BuildingBlock: KIFKEQ_clean_linker_1, # of connection points: 2
#     Edge 35, Type (0, 0), BuildingBlock: KIFKEQ_clean_linker_1, # of connection points: 2
#     Edge 36, Type (0, 0), BuildingBlock: KIFKEQ_clean_linker_1, # of connection points: 2
#     Edge 37, Type (0, 0), BuildingBlock: KIFKEQ_clean_linker_1, # of connection points: 2
#     Edge 38, Type (0, 0), BuildingBlock: KIFKEQ_clean_linker_1, # of connection points: 2
#     Edge 39, Type (0, 0), BuildingBlock: KIFKEQ_clean_linker_1, # of connection points: 2
#     Edge 40, Type (0, 0), BuildingBlock: KIFKEQ_clean_linker_1, # of connection points: 2
#     Edge 41, Type (0, 0), BuildingBlock: KIFKEQ_clean_linker_1, # of connection points: 2
#     Edge 42, Type (0, 0), BuildingBlock: KIFKEQ_clean_linker_1, # of connection points: 2
#     Edge 43, Type (0, 0), BuildingBlock: KIFKEQ_clean_linker_1, # of connection points: 2
#     Edge 44, Type (0, 0), BuildingBlock: KIFKEQ_clean_linker_1, # of connection points: 2
#     Edge 45, Type (0, 0), BuildingBlock: KIFKEQ_clean_linker_1, # of connection points: 2
#     Edge 46, Type (0, 0), BuildingBlock: KIFKEQ_clean_linker_1, # of connection points: 2
#     Edge 47, Type (0, 0), BuildingBlock: KIFKEQ_clean_linker_1, # of connection points: 2
# Relax obj value: 0.345
# Max RMSD: 0.288
# Mean RMSD: 0.288
data_MOF--net-wkl--node1-OJICUG_clean_sbu_0--edge1-KIFKEQ_clean_linker_1
_symmetry_space_group_name_H-M    P1
_symmetry_Int_Tables_number       1
_symmetry_cell_setting            triclinic
loop_
_symmetry_equiv_pos_as_xyz
'x, y, z'
_cell_length_a     74.240664
_cell_length_b     74.050003
_cell_length_c     15.937576
_cell_angle_alpha  90.013352
_cell_angle_beta   89.954698
_cell_angle_gamma 119.89027
loop_
_atom_site_label
_atom_site_type_symbol
_atom_site_fract_x
_atom_site_fract_y
_atom_site_fract_z
_atom_type_partial_charge
Sc0 Sc 0.45006 0.0923 1.00061 0.0
Sc1 Sc 0.46186 0.1325 0.86003 0.0
Sc2 Sc 0.41129 0.1029 0.93761 0.0
O3 O 0.44103 0.1092 0.93295 0.0
C4 C 0.40597 0.0574 0.94539 0.0
C5 C 0.4738 0.09836 0.82535 0.0
C6 C 0.42094 0.1127 0.74661 0.0
C7 C 0.48974 0.13587 0.01905 0.0
C8 C 0.41941 0.09782 0.12728 0.0
C9 C 0.43768 0.1526 0.93881 0.0
O10 O 0.42525 0.06386 0.95267 0.0
O11 O 0.46963 0.11184 0.79607 0.0
O12 O 0.40881 0.10026 0.80235 0.0
O13 O 0.47568 0.1195 0.05424 0.0
O14 O 0.41205 0.10497 0.07282 0.0
O15 O 0.45504 0.15401 0.92149 0.0
O16 O 0.43168 0.09105 0.10841 0.0
O17 O 0.48762 0.14135 0.94572 0.0
O18 O 0.42045 0.13557 0.93434 0.0
O19 O 0.46952 0.09161 0.90049 0.0
O20 O 0.39843 0.06952 0.94589 0.0
O21 O 0.43942 0.12694 0.76275 0.0
Sc22 Sc 0.3639 0.47863 0.21312 0.0
Sc23 Sc 0.33771 0.49429 0.07545 0.0
Sc24 Sc 0.31337 0.4429 0.14961 0.0
O25 O 0.33832 0.47195 0.14638 0.0
C26 C 0.35073 0.43335 0.153 0.0
C27 C 0.38267 0.50217 0.03874 0.0
C28 C 0.31436 0.45387 0.95874 0.0
C29 C 0.36334 0.52047 0.23605 0.0
C30 C 0.32684 0.44991 0.33978 0.0
C31 C 0.29305 0.47224 0.15067 0.0
O32 O 0.36467 0.4521 0.16561 0.0
O33 O 0.36583 0.50075 0.01274 0.0
O34 O 0.31291 0.44083 0.0142 0.0
O35 O 0.36555 0.50591 0.26699 0.0
O36 O 0.31244 0.44315 0.28503 0.0
O37 O 0.30953 0.48913 0.13335 0.0
O38 O 0.34598 0.46138 0.32138 0.0
O39 O 0.35509 0.51909 0.16467 0.0
O40 O 0.29197 0.45454 0.14944 0.0
O41 O 0.38468 0.49654 0.11204 0.0
O42 O 0.33145 0.42738 0.15242 0.0
O43 O 0.32063 0.4729 0.97528 0.0
Sc44 Sc 0.88369 0.35955 0.46043 0.0
Sc45 Sc 0.84417 0.33924 0.31073 0.0
Sc46 Sc 0.86518 0.30889 0.38308 0.0
O47 O 0.86437 0.33582 0.3849 0.0
C48 C 0.91318 0.34352 0.39308 0.0
C49 C 0.8839 0.38297 0.29061 0.0
C50 C 0.85697 0.31261 0.19174 0.0
C51 C 0.84393 0.36351 0.47658 0.0
C52 C 0.87187 0.31998 0.57668 0.0
C53 C 0.81638 0.2937 0.3767 0.0
O54 O 0.91012 0.35816 0.41645 0.0
O55 O 0.86879 0.36712 0.25677 0.0
O56 O 0.86653 0.30848 0.24782 0.0
O57 O 0.85869 0.3626 0.51252 0.0
O58 O 0.86395 0.30645 0.51863 0.0
O59 O 0.8184 0.31138 0.35934 0.0
O60 O 0.88037 0.33943 0.56336 0.0
O61 O 0.83843 0.35756 0.40149 0.0
O62 O 0.83169 0.29047 0.38176 0.0
O63 O 0.88964 0.38299 0.36596 0.0
O64 O 0.89874 0.32481 0.38212 0.0
O65 O 0.84698 0.322 0.20766 0.0
Sc66 Sc 0.51798 0.8938 0.74406 0.0
Sc67 Sc 0.50456 0.85382 0.59972 0.0
Sc68 Sc 0.55608 0.88297 0.66871 0.0
O69 O 0.52625 0.8768 0.67117 0.0
C70 C 0.56076 0.9283 0.67039 0.0
C71 C 0.4914 0.88756 0.57747 0.0
C72 C 0.54424 0.87326 0.47791 0.0
C73 C 0.47901 0.84977 0.76849 0.0
C74 C 0.55052 0.88909 0.8609 0.0
C75 C 0.52995 0.83302 0.66064 0.0
O76 O 0.54206 0.92202 0.69146 0.0
O77 O 0.49537 0.8743 0.54479 0.0
O78 O 0.55734 0.88452 0.53341 0.0
O79 O 0.49309 0.86655 0.80123 0.0
O80 O 0.55733 0.88193 0.80417 0.0
O81 O 0.51252 0.8319 0.648 0.0
O82 O 0.5378 0.89547 0.84594 0.0
O83 O 0.48044 0.84417 0.69435 0.0
O84 O 0.547 0.85024 0.66516 0.0
O85 O 0.4968 0.89441 0.65184 0.0
O86 O 0.56854 0.91638 0.66779 0.0
O87 O 0.52534 0.86038 0.4949 0.0
Sc88 Sc 0.61187 0.5031 0.84748 0.0
Sc89 Sc 0.63936 0.48811 0.71172 0.0
Sc90 Sc 0.66227 0.53978 0.78272 0.0
O91 O 0.63783 0.5103 0.78092 0.0
C92 C 0.62393 0.54786 0.77958 0.0
C93 C 0.59344 0.47796 0.67584 0.0
C94 C 0.66154 0.52807 0.5917 0.0
C95 C 0.6143 0.46211 0.87399 0.0
C96 C 0.64837 0.53304 0.97339 0.0
C97 C 0.68433 0.51204 0.7866 0.0
O98 O 0.61041 0.52931 0.7988 0.0
O99 O 0.61048 0.47961 0.65111 0.0
O100 O 0.66356 0.5413 0.64722 0.0
O101 O 0.61067 0.47603 0.90223 0.0
O102 O 0.66269 0.54046 0.91825 0.0
O103 O 0.66843 0.49492 0.76642 0.0
O104 O 0.62937 0.52065 0.95564 0.0
O105 O 0.62345 0.4639 0.80441 0.0
O106 O 0.68448 0.52928 0.78843 0.0
O107 O 0.5913 0.48447 0.74709 0.0
O108 O 0.64325 0.55412 0.77709 0.0
O109 O 0.65493 0.50899 0.60837 0.0
Sc110 Sc 0.10383 0.63347 0.86476 0.0
Sc111 Sc 0.14299 0.65756 0.71838 0.0
Sc112 Sc 0.11758 0.68317 0.7942 0.0
O113 O 0.12136 0.65813 0.79245 0.0
C114 C 0.07106 0.64515 0.80156 0.0
C115 C 0.10685 0.61294 0.69204 0.0
C116 C 0.12703 0.68204 0.60384 0.0
C117 C 0.14466 0.63289 0.87994 0.0
C118 C 0.11156 0.67126 0.98545 0.0
C119 C 0.16676 0.7018 0.79703 0.0
O120 O 0.07628 0.63143 0.81426 0.0
O121 O 0.11963 0.63 0.6566 0.0
O122 O 0.11503 0.68279 0.65901 0.0
O123 O 0.13068 0.63448 0.91946 0.0
O124 O 0.11977 0.68534 0.9295 0.0
O125 O 0.16648 0.68487 0.78008 0.0
O126 O 0.10343 0.65196 0.96883 0.0
O127 O 0.14884 0.63811 0.8033 0.0
O128 O 0.15082 0.704 0.79036 0.0
O129 O 0.10208 0.61169 0.76952 0.0
O130 O 0.08398 0.66464 0.80099 0.0
O131 O 0.14013 0.67627 0.62087 0.0
Sc132 Sc 0.87183 0.55467 0.88088 0.0
Sc133 Sc 0.84869 0.50361 0.95727 0.0
Sc134 Sc 0.88842 0.52069 0.81108 0.0
O135 O 0.86963 0.52639 0.88287 0.0
C136 C 0.87834 0.54911 0.68998 0.0
C137 C 0.82273 0.5227 0.88728 0.0
C138 C 0.84782 0.47827 0.7932 0.0
C139 C 0.86356 0.54399 0.07236 0.0
C140 C 0.91923 0.56586 0.87333 0.0
C141 C 0.88654 0.4971 0.98235 0.0
O142 O 0.86949 0.55431 0.74568 0.0
O143 O 0.82399 0.50653 0.9029 0.0
O144 O 0.86265 0.49373 0.75636 0.0
O145 O 0.8744 0.55717 0.01613 0.0
O146 O 0.91507 0.54721 0.8613 0.0
O147 O 0.87245 0.49967 0.01592 0.0
O148 O 0.90548 0.57135 0.87338 0.0
O149 O 0.85184 0.52473 0.0568 0.0
O150 O 0.89208 0.50178 0.90611 0.0
O151 O 0.83845 0.54104 0.8864 0.0
O152 O 0.88736 0.53877 0.70685 0.0
O153 O 0.84274 0.47896 0.86889 0.0
Sc154 Sc 0.30581 0.86288 0.12688 0.0
Sc155 Sc 0.33034 0.83621 0.19711 0.0
Sc156 Sc 0.35631 0.87878 0.06422 0.0
O157 O 0.331 0.85944 0.12942 0.0
C158 C 0.31884 0.86896 0.93728 0.0
C159 C 0.28711 0.81452 0.1136 0.0
C160 C 0.35792 0.83778 0.04008 0.0
C161 C 0.30687 0.85279 0.31489 0.0
C162 C 0.34216 0.91015 0.11756 0.0
C163 C 0.37436 0.8734 0.24017 0.0
O164 O 0.30437 0.86025 0.99161 0.0
O165 O 0.30382 0.81416 0.12643 0.0
O166 O 0.35851 0.8537 0.00767 0.0
O167 O 0.30691 0.8657 0.2619 0.0
O168 O 0.35654 0.90566 0.11421 0.0
O169 O 0.35738 0.858 0.26606 0.0
O170 O 0.32306 0.89637 0.11536 0.0
O171 O 0.31103 0.83862 0.29422 0.0
O172 O 0.37658 0.88101 0.16647 0.0
O173 O 0.28487 0.82982 0.13504 0.0
O174 O 0.3381 0.87811 0.95649 0.0
O175 O 0.35003 0.83086 0.11195 0.0
Sc176 Sc 0.41941 0.30407 0.21063 0.0
Sc177 Sc 0.4698 0.32211 0.28574 0.0
Sc178 Sc 0.46007 0.35239 0.14653 0.0
O179 O 0.44972 0.3262 0.21409 0.0
C180 C 0.4279 0.31731 0.02032 0.0
C181 C 0.4433 0.2782 0.20549 0.0
C182 C 0.49832 0.34608 0.12713 0.0
C183 C 0.42919 0.30289 0.40103 0.0
C184 C 0.41703 0.34587 0.20711 0.0
C185 C 0.48412 0.36879 0.32201 0.0
O186 O 0.41953 0.30295 0.0752 0.0
O187 O 0.46118 0.29337 0.22319 0.0
O188 O 0.4848 0.34929 0.09235 0.0
O189 O 0.41737 0.304 0.34596 0.0
O190 O 0.43633 0.35772 0.19467 0.0
O191 O 0.47926 0.35086 0.35045 0.0
O192 O 0.40835 0.32611 0.20739 0.0
O193 O 0.44728 0.30607 0.38395 0.0
O194 O 0.48 0.37171 0.24725 0.0
O195 O 0.42673 0.27928 0.21059 0.0
O196 O 0.44133 0.33603 0.03861 0.0
O197 O 0.49575 0.33811 0.19992 0.0
Sc198 Sc 0.10888 0.43609 0.2655 0.0
Sc199 Sc 0.13254 0.48717 0.34098 0.0
Sc200 Sc 0.09341 0.47078 0.19111 0.0
O201 O 0.11155 0.46456 0.2658 0.0
C202 C 0.10242 0.44122 0.07311 0.0
C203 C 0.15806 0.46742 0.27 0.0
C204 C 0.13458 0.51279 0.17614 0.0
C205 C 0.11753 0.447 0.45719 0.0
C206 C 0.06169 0.42585 0.25692 0.0
C207 C 0.09559 0.49508 0.36091 0.0
O208 O 0.11046 0.43545 0.13006 0.0
O209 O 0.15723 0.4837 0.28858 0.0
O210 O 0.11991 0.49749 0.13794 0.0
O211 O 0.10696 0.43382 0.40078 0.0
O212 O 0.06579 0.44422 0.23788 0.0
O213 O 0.10876 0.49156 0.39726 0.0
O214 O 0.07546 0.42047 0.26359 0.0
O215 O 0.12895 0.4663 0.44188 0.0
O216 O 0.09036 0.49047 0.28439 0.0
O217 O 0.1421 0.44927 0.2673 0.0
O218 O 0.09435 0.45251 0.08801 0.0
O219 O 0.13917 0.51184 0.25224 0.0
Sc220 Sc 0.65742 0.11394 0.38378 0.0
Sc221 Sc 0.63159 0.14016 0.45242 0.0
Sc222 Sc 0.60672 0.09772 0.31498 0.0
O223 O 0.63195 0.11734 0.38341 0.0
C224 C 0.64435 0.10595 0.19249 0.0
C225 C 0.67721 0.16359 0.3829 0.0
C226 C 0.60708 0.14001 0.28633 0.0
C227 C 0.65508 0.12424 0.57467 0.0
C228 C 0.62045 0.0668 0.38875 0.0
C229 C 0.58622 0.10287 0.48359 0.0
O230 O 0.65847 0.11372 0.24823 0.0
O231 O 0.66063 0.16368 0.40173 0.0
O232 O 0.60462 0.12286 0.2582 0.0
O233 O 0.65839 0.11387 0.51924 0.0
O234 O 0.60648 0.07096 0.36682 0.0
O235 O 0.6027 0.11858 0.51022 0.0
O236 O 0.63963 0.08042 0.39079 0.0
O237 O 0.64717 0.1356 0.55768 0.0
O238 O 0.58499 0.09467 0.41211 0.0
O239 O 0.67833 0.14702 0.3791 0.0
O240 O 0.62516 0.09835 0.20916 0.0
O241 O 0.61544 0.14748 0.35707 0.0
Sc242 Sc 0.55875 0.67533 0.59714 0.0
Sc243 Sc 0.50755 0.65275 0.67068 0.0
Sc244 Sc 0.52005 0.62674 0.521 0.0
O245 O 0.52889 0.6517 0.59596 0.0
C246 C 0.55226 0.66421 0.4041 0.0
C247 C 0.53215 0.69875 0.60893 0.0
C248 C 0.48072 0.63136 0.50526 0.0
C249 C 0.54787 0.67349 0.78845 0.0
C250 C 0.56337 0.63461 0.58612 0.0
C251 C 0.49542 0.60618 0.69157 0.0
O252 O 0.55968 0.67795 0.46164 0.0
O253 O 0.51485 0.6823 0.62156 0.0
O254 O 0.4948 0.62925 0.4691 0.0
O255 O 0.56065 0.67485 0.73225 0.0
O256 O 0.54457 0.62245 0.56598 0.0
O257 O 0.49945 0.62334 0.72521 0.0
O258 O 0.57118 0.65425 0.59409 0.0
O259 O 0.52896 0.66758 0.77272 0.0
O260 O 0.49988 0.60478 0.6155 0.0
O261 O 0.54937 0.69885 0.60374 0.0
O262 O 0.53906 0.64521 0.41818 0.0
O263 O 0.48249 0.63781 0.58043 0.0
H264 H 0.43367 0.14249 0.62579 0.0
H265 H 0.39401 0.07645 0.66611 0.0
H266 H 0.42835 0.1373 0.47486 0.0
H267 H 0.38883 0.07122 0.51418 0.0
H268 H 0.40666 0.12256 0.20522 0.0
H269 H 0.40178 0.125 0.35601 0.0
H270 H 0.41556 0.07572 0.40239 0.0
H271 H 0.42057 0.07335 0.2525 0.0
C272 C 0.42345 0.12691 0.60241 0.0
C273 C 0.41436 0.10985 0.65768 0.0
C274 C 0.42032 0.12396 0.51597 0.0
C275 C 0.40828 0.10384 0.48275 0.0
C276 C 0.39828 0.08688 0.5382 0.0
C277 C 0.40113 0.08989 0.62506 0.0
C278 C 0.40832 0.11203 0.24753 0.0
C279 C 0.41421 0.0979 0.21703 0.0
C280 C 0.40557 0.11347 0.33375 0.0
C281 C 0.40827 0.10054 0.39086 0.0
C282 C 0.41314 0.08573 0.35986 0.0
C283 C 0.41621 0.08452 0.27403 0.0
H284 H 0.30063 0.46977 0.83688 0.0
H285 H 0.31967 0.4241 0.879 0.0
H286 H 0.29991 0.46394 0.686 0.0
H287 H 0.3192 0.41846 0.72723 0.0
H288 H 0.29021 0.44053 0.41717 0.0
H289 H 0.28287 0.43662 0.56809 0.0
H290 H 0.3436 0.44445 0.61529 0.0
H291 H 0.35106 0.44859 0.46527 0.0
C292 C 0.30426 0.45818 0.81391 0.0
C293 C 0.31033 0.44748 0.86966 0.0
C294 C 0.30374 0.45476 0.72756 0.0
C295 C 0.3096 0.44083 0.69497 0.0
C296 C 0.31469 0.42935 0.75084 0.0
C297 C 0.31484 0.43249 0.83757 0.0
C298 C 0.30184 0.44106 0.45971 0.0
C299 C 0.32128 0.44505 0.42945 0.0
C300 C 0.29765 0.43888 0.54596 0.0
C301 C 0.31266 0.44021 0.60325 0.0
C302 C 0.33166 0.44313 0.57254 0.0
C303 C 0.33599 0.44568 0.48668 0.0
H304 H 0.84052 0.28547 0.65321 0.0
H305 H 0.90048 0.33966 0.69861 0.0
H306 H 0.83643 0.27817 0.80448 0.0
H307 H 0.89656 0.33224 0.84852 0.0
H308 H 0.82842 0.30422 0.0692 0.0
H309 H 0.8322 0.30048 0.91931 0.0
H310 H 0.89201 0.30576 0.96325 0.0
H311 H 0.88814 0.30929 0.11422 0.0
C312 C 0.85302 0.29545 0.69522 0.0
C313 C 0.87071 0.31323 0.66459 0.0
C314 C 0.85067 0.29133 0.78155 0.0
C315 C 0.86618 0.30467 0.83805 0.0
C316 C 0.88446 0.32158 0.80645 0.0
C317 C 0.88662 0.32592 0.72073 0.0
C318 C 0.84221 0.30418 0.04712 0.0
C319 C 0.85809 0.30727 0.10324 0.0
C320 C 0.84427 0.30184 0.96138 0.0
C321 C 0.8624 0.30286 0.92976 0.0
C322 C 0.87788 0.30494 0.98619 0.0
C323 C 0.87565 0.30692 0.0724 0.0
H324 H 0.52751 0.84421 0.3541 0.0
H325 H 0.57526 0.90784 0.40038 0.0
H326 H 0.53474 0.84929 0.20409 0.0
H327 H 0.58232 0.91296 0.24938 0.0
H328 H 0.55923 0.86136 0.93882 0.0
H329 H 0.56274 0.85804 0.0903 0.0
H330 H 0.55824 0.91321 0.13343 0.0
H331 H 0.55446 0.91637 0.98309 0.0
C332 C 0.53977 0.8592 0.33227 0.0
C333 C 0.55069 0.87569 0.38887 0.0
C334 C 0.54403 0.86204 0.24644 0.0
C335 C 0.55907 0.88152 0.21518 0.0
C336 C 0.57062 0.89779 0.27198 0.0
C337 C 0.56662 0.89484 0.35824 0.0
C338 C 0.55949 0.87303 0.98063 0.0
C339 C 0.55638 0.88901 0.94942 0.0
C340 C 0.56141 0.87108 0.06714 0.0
C341 C 0.56071 0.88535 0.12346 0.0
C342 C 0.55902 0.90211 0.09151 0.0
C343 C 0.55671 0.90382 1.0055 0.0
H344 H 0.68519 0.54296 0.04962 0.0
H345 H 0.62397 0.53375 0.09972 0.0
H346 H 0.69251 0.54636 0.20054 0.0
H347 H 0.63146 0.53751 0.24985 0.0
H348 H 0.65639 0.55809 0.51374 0.0
H349 H 0.65652 0.56391 0.36225 0.0
H350 H 0.67484 0.51785 0.31705 0.0
H351 H 0.67437 0.51175 0.46777 0.0
C352 C 0.67349 0.54213 0.09263 0.0
C353 C 0.65395 0.53795 0.06294 0.0
C354 C 0.67767 0.54401 0.17885 0.0
C355 C 0.66256 0.54222 0.23667 0.0
C356 C 0.64346 0.53916 0.20661 0.0
C357 C 0.63913 0.53686 0.12074 0.0
C358 C 0.66092 0.54958 0.4715 0.0
C359 C 0.66525 0.53438 0.50246 0.0
C360 C 0.66088 0.55284 0.38495 0.0
C361 C 0.66564 0.54129 0.32812 0.0
C362 C 0.67128 0.52708 0.35946 0.0
C363 C 0.6709 0.52352 0.44568 0.0
H364 H 0.09269 0.67848 0.52419 0.0
H365 H 0.15664 0.69522 0.48198 0.0
H366 H 0.08794 0.68001 0.37274 0.0
H367 H 0.15192 0.69688 0.33146 0.0
H368 H 0.08465 0.64835 0.10952 0.0
H369 H 0.08794 0.65574 0.25941 0.0
H370 H 0.14337 0.71478 0.21393 0.0
H371 H 0.13998 0.70745 0.06291 0.0
C372 C 0.10585 0.68299 0.48289 0.0
C373 C 0.12498 0.68652 0.51489 0.0
C374 C 0.10311 0.68377 0.39626 0.0
C375 C 0.11954 0.68847 0.34033 0.0
C376 C 0.13902 0.69338 0.37296 0.0
C377 C 0.14167 0.69228 0.45918 0.0
C378 C 0.09735 0.66307 0.13125 0.0
C379 C 0.11216 0.67724 0.07451 0.0
C380 C 0.09913 0.66738 0.2171 0.0
C381 C 0.11593 0.68582 0.2484 0.0
C382 C 0.13029 0.70041 0.19144 0.0
C383 C 0.12832 0.69626 0.10511 0.0
H384 H 0.83401 0.52669 0.19356 0.0
H385 H 0.89714 0.57584 0.1516 0.0
H386 H 0.83838 0.53326 0.34398 0.0
H387 H 0.90157 0.58232 0.30315 0.0
H388 H 0.84912 0.55561 0.61209 0.0
H389 H 0.84578 0.5596 0.46111 0.0
H390 H 0.90256 0.55845 0.41665 0.0
H391 H 0.90583 0.55431 0.56651 0.0
C392 C 0.84871 0.53919 0.21646 0.0
C393 C 0.8653 0.55062 0.16095 0.0
C394 C 0.85115 0.54305 0.30258 0.0
C395 C 0.87034 0.55823 0.3353 0.0
C396 C 0.88664 0.57045 0.2795 0.0
C397 C 0.88407 0.56681 0.19289 0.0
C398 C 0.86107 0.55662 0.57013 0.0
C399 C 0.8776 0.55441 0.60097 0.0
C400 C 0.85913 0.55885 0.48385 0.0
C401 C 0.87391 0.55932 0.42721 0.0
C402 C 0.89106 0.55835 0.45877 0.0
C403 C 0.89281 0.55578 0.54457 0.0
H404 H 0.28326 0.83992 0.85819 0.0
H405 H 0.34231 0.89537 0.81237 0.0
H406 H 0.27637 0.83622 0.70694 0.0
H407 H 0.33536 0.89172 0.66212 0.0
H408 H 0.29428 0.82295 0.43649 0.0
H409 H 0.29368 0.82761 0.58768 0.0
H410 H 0.31132 0.89207 0.54976 0.0
H411 H 0.31183 0.88742 0.39785 0.0
C412 C 0.29458 0.85151 0.81607 0.0
C413 C 0.3134 0.86786 0.8472 0.0
C414 C 0.29068 0.84934 0.72956 0.0
C415 C 0.30533 0.86368 0.67271 0.0
C416 C 0.32367 0.88054 0.7043 0.0
C417 C 0.32772 0.88253 0.7904 0.0
C418 C 0.29766 0.83804 0.46018 0.0
C419 C 0.30326 0.85486 0.40508 0.0
C420 C 0.29719 0.84066 0.54686 0.0
C421 C 0.30257 0.86023 0.5806 0.0
C422 C 0.30724 0.87683 0.52546 0.0
C423 C 0.30741 0.87414 0.4385 0.0
H424 H 0.41354 0.27948 0.94326 0.0
H425 H 0.4306 0.34345 0.89444 0.0
H426 H 0.4088 0.27216 0.79243 0.0
H427 H 0.42564 0.33604 0.74451 0.0
H428 H 0.44125 0.2854 0.52286 0.0
H429 H 0.43601 0.28572 0.67382 0.0
H430 H 0.39822 0.31418 0.633 0.0
H431 H 0.40326 0.31365 0.48121 0.0
C432 C 0.41589 0.29186 0.90058 0.0
C433 C 0.42261 0.31209 0.93065 0.0
C434 C 0.41323 0.28767 0.81436 0.0
C435 C 0.41683 0.30353 0.75686 0.0
C436 C 0.42253 0.32346 0.78739 0.0
C437 C 0.42555 0.32774 0.87322 0.0
C438 C 0.43143 0.29129 0.54593 0.0
C439 C 0.42277 0.29962 0.49024 0.0
C440 C 0.42834 0.29137 0.63236 0.0
C441 C 0.41681 0.30008 0.66511 0.0
C442 C 0.40727 0.30746 0.60931 0.0
C443 C 0.41005 0.30704 0.52253 0.0
H444 H 0.07476 0.43536 0.95009 0.0
H445 H 0.13171 0.43462 0.99636 0.0
H446 H 0.07816 0.4312 0.80032 0.0
H447 H 0.13524 0.43068 0.84534 0.0
H448 H 0.14682 0.46462 0.57907 0.0
H449 H 0.14239 0.45751 0.72919 0.0
H450 H 0.07975 0.40753 0.68643 0.0
H451 H 0.08425 0.41452 0.53521 0.0
C452 C 0.08784 0.43395 0.92827 0.0
C453 C 0.10309 0.43552 0.98473 0.0
C454 C 0.08968 0.43139 0.84257 0.0
C455 C 0.10698 0.43065 0.81122 0.0
C456 C 0.12176 0.43124 0.86799 0.0
C457 C 0.11972 0.43343 0.95424 0.0
C458 C 0.13224 0.45182 0.60146 0.0
C459 C 0.1158 0.44026 0.54557 0.0
C460 C 0.12978 0.44765 0.68738 0.0
C461 C 0.11071 0.43202 0.71944 0.0
C462 C 0.0946 0.41971 0.66322 0.0
C463 C 0.09719 0.42366 0.57683 0.0
H464 H 0.66495 0.15278 0.69947 0.0
H465 H 0.65381 0.09061 0.65173 0.0
H466 H 0.66658 0.14751 0.84985 0.0
H467 H 0.6551 0.08525 0.8029 0.0
H468 H 0.68004 0.1352 0.11563 0.0
H469 H 0.68703 0.13959 0.96438 0.0
H470 H 0.62888 0.08336 0.91726 0.0
H471 H 0.62171 0.07915 0.06762 0.0
C472 C 0.66319 0.13811 0.72107 0.0
C473 C 0.65913 0.12206 0.66392 0.0
C474 C 0.66427 0.13516 0.80708 0.0
C475 C 0.66093 0.11597 0.83786 0.0
C476 C 0.6577 0.10018 0.78062 0.0
C477 C 0.65705 0.10329 0.69427 0.0
C478 C 0.66899 0.12356 0.073 0.0
C479 C 0.65027 0.10691 0.10328 0.0
C480 C 0.67295 0.12612 0.98662 0.0
C481 C 0.65848 0.11182 0.92933 0.0
C482 C 0.64038 0.09451 0.96006 0.0
C483 C 0.63623 0.09218 0.04605 0.0
H484 H 0.56234 0.70113 0.32665 0.0
H485 H 0.55581 0.64062 0.28243 0.0
H486 H 0.56695 0.70832 0.17538 0.0
H487 H 0.56064 0.64785 0.13256 0.0
H488 H 0.57839 0.66922 0.86682 0.0
H489 H 0.58542 0.67154 0.01796 0.0
H490 H 0.53953 0.69017 0.0599 0.0
H491 H 0.53238 0.68768 0.90993 0.0
C492 C 0.56242 0.68962 0.28492 0.0
C493 C 0.55848 0.67024 0.31594 0.0
C494 C 0.565 0.6937 0.19857 0.0
C495 C 0.56412 0.67862 0.14237 0.0
C496 C 0.5616 0.65984 0.17436 0.0
C497 C 0.55865 0.65563 0.26009 0.0
C498 C 0.57017 0.67425 0.90825 0.0
C499 C 0.55466 0.67801 0.87687 0.0
C500 C 0.57415 0.67553 0.99457 0.0
C501 C 0.56298 0.681 0.05052 0.0
C502 C 0.54851 0.68612 0.01827 0.0
C503 C 0.54428 0.68449 0.93246 0.0
H504 H 0.41408 0.02695 0.89871 0.0
H505 H 0.36657 0.03688 0.00968 0.0
H506 H 0.39572 0.99096 0.94627 0.0
H507 H 0.34822 0.00067 0.05805 0.0
H508 H 0.31799 0.92622 0.06362 0.0
H509 H 0.33051 0.96174 0.01342 0.0
H510 H 0.39231 0.97929 0.09842 0.0
H511 H 0.38001 0.944 0.14797 0.0
C512 C 0.39945 0.02128 0.93149 0.0
C513 C 0.39192 0.03477 0.95172 0.0
C514 C 0.38905 0.00077 0.95936 0.0
C515 C 0.37098 -0.00663 0.0081 0.0
C516 C 0.36227 0.00616 0.02125 0.0
C517 C 0.37269 0.02679 0.99307 0.0
C518 C 0.33412 0.93781 0.07369 0.0
C519 C 0.34813 0.93225 0.10833 0.0
C520 C 0.34126 0.95807 0.04452 0.0
C521 C 0.36244 0.97294 0.04977 0.0
C522 C 0.37599 0.96786 0.09136 0.0
C523 C 0.36892 0.94772 0.12037 0.0
H524 H 0.3764 0.32962 0.16051 0.0
H525 H 0.42885 0.38466 0.2639 0.0
H526 H 0.35793 0.34903 0.14173 0.0
H527 H 0.41035 0.40377 0.24691 0.0
H528 H 0.38814 0.43961 0.1006 0.0
H529 H 0.40185 0.41611 0.11752 0.0
H530 H 0.3426 0.36857 0.21416 0.0
H531 H 0.32863 0.39209 0.19547 0.0
C532 C 0.38372 0.34567 0.18125 0.0
C533 C 0.40415 0.35578 0.2124 0.0
C534 C 0.3732 0.35676 0.17024 0.0
C535 C 0.38299 0.37802 0.19068 0.0
C536 C 0.40273 0.38756 0.2281 0.0
C537 C 0.41324 0.37659 0.23847 0.0
C538 C 0.37793 0.42403 0.12419 0.0
C539 C 0.35744 0.41775 0.1479 0.0
C540 C 0.38581 0.41065 0.1345 0.0
C541 C 0.37343 0.39078 0.16949 0.0
C542 C 0.35248 0.38388 0.18756 0.0
C543 C 0.3445 0.39729 0.17663 0.0
H544 H 0.04714 0.39255 0.36239 0.0
H545 H 0.02731 0.42336 0.18544 0.0
H546 H 0.01073 0.36729 0.39351 0.0
H547 H -0.00897 0.39779 0.21518 0.0
H548 H 0.9285 0.33794 0.24701 0.0
H549 H 0.96542 0.35438 0.20839 0.0
H550 H 0.98257 0.37808 0.4606 0.0
H551 H 0.94581 0.36235 0.49812 0.0
C552 C 0.03501 0.39369 0.32926 0.0
C553 C 0.03993 0.40996 0.27212 0.0
C554 C 0.0143 0.37925 0.34688 0.0
C555 C -0.00169 0.3806 0.30589 0.0
C556 C 0.00321 0.39636 0.24647 0.0
C557 C 0.02388 0.41107 0.23029 0.0
C558 C 0.94024 0.34616 0.29447 0.0
C559 C 0.9346 0.34902 0.37526 0.0
C560 C 0.96121 0.35555 0.27245 0.0
C561 C 0.9766 0.36736 0.33182 0.0
C562 C 0.97089 0.36884 0.41428 0.0
C563 C 0.94998 0.35995 0.43559 0.0
H564 H 0.55218 0.95974 0.68977 0.0
H565 H 0.59711 0.94567 0.58 0.0
H566 H 0.56859 -0.00687 0.61832 0.0
H567 H 0.61355 0.97938 0.5081 0.0
H568 H 0.64454 0.05255 0.46174 0.0
H569 H 0.63235 0.01936 0.53434 0.0
H570 H 0.56933 0.00037 0.46233 0.0
H571 H 0.58125 0.03328 0.39027 0.0
C572 C 0.56572 0.96386 0.65126 0.0
C573 C 0.57314 0.9499 0.63957 0.0
C574 C 0.57504 0.98294 0.61004 0.0
C575 C 0.59199 0.98853 0.55636 0.0
C576 C 0.6004 0.97531 0.54896 0.0
C577 C 0.59101 0.95608 0.59024 0.0
C578 C 0.62812 0.04116 0.46023 0.0
C579 C 0.61382 0.0457 0.42113 0.0
C580 C 0.6212 0.0222 0.50181 0.0
C581 C 0.5999 0.00759 0.5052 0.0
C582 C 0.5858 0.01163 0.46217 0.0
C583 C 0.59267 0.03045 0.42048 0.0
H584 H 0.64769 0.58909 0.73629 0.0
H585 H 0.58396 0.53983 0.76768 0.0
H586 H 0.63545 0.61225 0.68535 0.0
H587 H 0.57198 0.56298 0.71758 0.0
H588 H 0.55734 0.59773 0.52734 0.0
H589 H 0.57394 0.57845 0.57482 0.0
H590 H 0.61449 0.62972 0.73546 0.0
H591 H 0.59782 0.64935 0.68728 0.0
C592 C 0.63112 0.58324 0.73303 0.0
C593 C 0.61679 0.56252 0.75527 0.0
C594 C 0.62417 0.59653 0.70416 0.0
C595 C 0.60283 0.58926 0.69652 0.0
C596 C 0.58855 0.56883 0.72143 0.0
C597 C 0.59544 0.5556 0.75055 0.0
C598 C 0.56995 0.60505 0.5721 0.0
C599 C 0.57606 0.6249 0.60476 0.0
C600 C 0.57938 0.59396 0.59942 0.0
C601 C 0.59511 0.60244 0.66012 0.0
C602 C 0.6023 0.62286 0.68876 0.0
C603 C 0.59281 0.63406 0.66116 0.0
H604 H 0.05047 0.66532 0.85287 0.0
H605 H 0.04123 0.60814 0.74102 0.0
H606 H 0.01284 0.64914 0.87605 0.0
H607 H 0.004 0.59224 0.76354 0.0
H608 H 0.95034 0.56098 0.93576 0.0
H609 H 0.98735 0.58382 0.9131 0.0
H610 H 0.97532 0.62937 0.79651 0.0
H611 H 0.93789 0.60639 0.81983 0.0
C612 C 0.04036 0.64957 0.83097 0.0
C613 C 0.04869 0.63779 0.79661 0.0
C614 C 0.01893 0.64035 0.84451 0.0
C615 C 0.0058 0.61936 0.82358 0.0
C616 C 0.01398 0.60832 0.7821 0.0
C617 C 0.03523 0.61743 0.76891 0.0
C618 C 0.95559 0.57605 0.90696 0.0
C619 C 0.94131 0.5818 0.87817 0.0
C620 C 0.97671 0.58905 0.89368 0.0
C621 C 0.98396 0.608 0.85101 0.0
C622 C 0.96996 0.61471 0.82896 0.0
C623 C 0.94865 0.60164 0.8426 0.0
H624 H 0.48038 0.10363 0.65618 0.0
H625 H 0.49469 0.07839 0.8744 0.0
H626 H 0.50494 0.0983 0.57365 0.0
H627 H 0.51921 0.07298 0.79121 0.0
H628 H 0.5841 0.10791 0.65187 0.0
H629 H 0.55344 0.10043 0.7334 0.0
H630 H 0.51487 0.07285 0.51515 0.0
H631 H 0.54567 0.0804 0.43291 0.0
C632 C 0.48845 0.09657 0.68617 0.0
C633 C 0.48584 0.09177 0.77223 0.0
C634 C 0.50239 0.09334 0.63862 0.0
C635 C 0.51408 0.08538 0.67628 0.0
C636 C 0.5105 0.07932 0.76091 0.0
C637 C 0.49642 0.08238 0.80838 0.0
C638 C 0.56905 0.0999 0.62157 0.0
C639 C 0.56732 0.09501 0.5357 0.0
C640 C 0.55146 0.09544 0.66851 0.0
C641 C 0.5318 0.08617 0.6304 0.0
C642 C 0.52988 0.08014 0.54579 0.0
C643 C 0.54749 0.08439 0.49894 0.0
H644 H 0.42338 0.51608 0.07933 0.0
H645 H 0.38355 0.51077 0.87172 0.0
H646 H 0.45386 0.53706 0.99213 0.0
H647 H 0.41393 0.53187 0.78556 0.0
H648 H 0.49215 0.60285 0.86154 0.0
H649 H 0.467 0.57312 0.94241 0.0
H650 H 0.44581 0.53633 0.71586 0.0
H651 H 0.47099 0.56632 0.63419 0.0
C652 C 0.4211 0.51905 0.01478 0.0
C653 C 0.40103 0.5121 0.98298 0.0
C654 C 0.43856 0.53108 0.96496 0.0
C655 C 0.43627 0.53623 0.88233 0.0
C656 C 0.41621 0.52802 0.84876 0.0
C657 C 0.39878 0.51611 0.89857 0.0
C658 C 0.48243 0.5883 0.82909 0.0
C659 C 0.48327 0.58702 0.74135 0.0
C660 C 0.46814 0.57119 0.8756 0.0
C661 C 0.4543 0.55246 0.83531 0.0
C662 C 0.45617 0.55067 0.74832 0.0
C663 C 0.47063 0.5678 0.7017 0.0
H664 H 0.90901 0.47949 0.92417 0.0
H665 H 0.88301 0.48934 0.15084 0.0
H666 H 0.91657 0.45535 0.99939 0.0
H667 H 0.89034 0.46511 0.22521 0.0
H668 H 0.88236 0.38805 0.12185 0.0
H669 H 0.89085 0.42009 0.04863 0.0
H670 H 0.91533 0.45486 0.27819 0.0
H671 H 0.90659 0.42264 0.35221 0.0
C672 C 0.90536 0.47692 0.99043 0.0
C673 C 0.895 0.48601 0.03113 0.0
C674 C 0.90965 0.46305 0.03336 0.0
C675 C 0.90383 0.45816 0.11784 0.0
C676 C 0.89515 0.46865 0.16028 0.0
C677 C 0.89075 0.4824 0.11735 0.0
C678 C 0.89 0.40258 0.1564 0.0
C679 C 0.89341 0.40275 0.24318 0.0
C680 C 0.89506 0.421 0.11419 0.0
C681 C 0.90354 0.43996 0.15794 0.0
C682 C 0.90858 0.44041 0.24319 0.0
C683 C 0.90365 0.42197 0.28541 0.0
H684 H 0.46529 0.90053 0.63862 0.0
H685 H 0.48698 0.88708 0.40806 0.0
H686 H 0.43828 0.90305 0.56041 0.0
H687 H 0.46011 0.88955 0.33048 0.0
H688 H 0.41464 0.90183 0.20076 0.0
H689 H 0.44544 0.91189 0.28596 0.0
H690 H 0.40667 0.87415 0.49005 0.0
H691 H 0.37581 0.86417 0.40555 0.0
C692 C 0.46465 0.89868 0.57107 0.0
C693 C 0.47806 0.89335 0.52947 0.0
C694 C 0.44913 0.9 0.5265 0.0
C695 C 0.44701 0.89633 0.43958 0.0
C696 C 0.46145 0.89261 0.39732 0.0
C697 C 0.47676 0.89104 0.44185 0.0
C698 C 0.41261 0.89596 0.26433 0.0
C699 C 0.39275 0.88187 0.29578 0.0
C700 C 0.43028 0.90173 0.313 0.0
C701 C 0.42845 0.89368 0.39427 0.0
C702 C 0.40855 0.88074 0.42781 0.0
C703 C 0.39088 0.87486 0.37901 0.0
H704 H 0.55249 0.45771 0.72229 0.0
H705 H 0.59285 0.47159 0.50735 0.0
H706 H 0.5228 0.43361 0.6368 0.0
H707 H 0.5633 0.44757 0.42256 0.0
H708 H 0.49091 0.3693 0.49085 0.0
H709 H 0.5148 0.39897 0.57591 0.0
H710 H 0.529 0.43953 0.36156 0.0
H711 H 0.50517 0.40985 0.27587 0.0
C712 C 0.55495 0.45599 0.65646 0.0
C713 C 0.57503 0.46634 0.62174 0.0
C714 C 0.53799 0.44212 0.60775 0.0
C715 C 0.54079 0.43863 0.52331 0.0
C716 C 0.56063 0.45006 0.48729 0.0
C717 C 0.57759 0.4637 0.53607 0.0
C718 C 0.49888 0.38458 0.46202 0.0
C719 C 0.49636 0.38714 0.37623 0.0
C720 C 0.51242 0.40161 0.51103 0.0
C721 C 0.52382 0.42152 0.47515 0.0
C722 C 0.52051 0.4243 0.39055 0.0
C723 C 0.50683 0.4073 0.34164 0.0
H724 H 0.08037 0.49084 0.51973 0.0
H725 H 0.09801 0.53019 0.30076 0.0
H726 H 0.07648 0.51683 0.59922 0.0
H727 H 0.09633 0.55708 0.38079 0.0
H728 H 0.09196 0.60468 0.53185 0.0
H729 H 0.082 0.57307 0.4512 0.0
H730 H 0.09732 0.547 0.6647 0.0
H731 H 0.10516 0.57763 0.74601 0.0
C732 C 0.08319 0.50503 0.48867 0.0
C733 C 0.08943 0.50861 0.40453 0.0
C734 C 0.0813 0.52013 0.53431 0.0
C735 C 0.08661 0.53952 0.49772 0.0
C736 C 0.09179 0.54243 0.41176 0.0
C737 C 0.09287 0.52701 0.36549 0.0
C738 C 0.09274 0.5919 0.56131 0.0
C739 C 0.09933 0.59348 0.64466 0.0
C740 C 0.08723 0.57382 0.51509 0.0
C741 C 0.08903 0.55731 0.55035 0.0
C742 C 0.09516 0.55892 0.635 0.0
C743 C 0.09992 0.57665 0.68183 0.0
H744 H 0.40613 0.15404 0.02049 0.0
H745 H 0.46922 0.19302 0.93345 0.0
H746 H 0.40726 0.18396 0.08839 0.0
H747 H 0.47009 0.22311 0.99936 0.0
H748 H 0.47308 0.26673 0.20552 0.0
H749 H 0.47116 0.23617 0.13924 0.0
H750 H 0.4084 0.21625 0.05871 0.0
H751 H 0.41004 0.24633 0.12693 0.0
C752 C 0.42011 0.16907 0.01452 0.0
C753 C 0.43761 0.17117 0.9717 0.0
C754 C 0.42075 0.18622 0.05345 0.0
C755 C 0.43882 0.20585 0.04975 0.0
C756 C 0.45609 0.20808 1.00477 0.0
C757 C 0.45553 0.19089 0.96639 0.0
C758 C 0.45881 0.25572 0.17434 0.0
C759 C 0.44171 0.25894 0.1716 0.0
C760 C 0.45778 0.23832 0.13575 0.0
C761 C 0.43969 0.22391 0.09317 0.0
C762 C 0.42247 0.22694 0.09183 0.0
C763 C 0.42344 0.24422 0.13092 0.0
H764 H 0.16532 0.43824 0.19914 0.0
H765 H 0.19674 0.50108 0.29733 0.0
H766 H 0.19858 0.44071 0.17171 0.0
H767 H 0.23023 0.50332 0.27125 0.0
H768 H 0.28516 0.50426 0.126 0.0
H769 H 0.25279 0.50414 0.15524 0.0
H770 H 0.22631 0.44189 0.25645 0.0
H771 H 0.25825 0.44177 0.22575 0.0
C772 C 0.17933 0.45256 0.21531 0.0
C773 C 0.17839 0.46941 0.25113 0.0
C774 C 0.19839 0.45393 0.19987 0.0
C775 C 0.21695 0.4721 0.2204 0.0
C776 C 0.21612 0.48916 0.25451 0.0
C777 C 0.19697 0.48784 0.26967 0.0
C778 C 0.27244 0.49061 0.15484 0.0
C779 C 0.27413 0.47292 0.17251 0.0
C780 C 0.25398 0.49058 0.17185 0.0
C781 C 0.237 0.47291 0.20709 0.0
C782 C 0.239 0.45555 0.22742 0.0
C783 C 0.25732 0.45551 0.21003 0.0
H784 H 0.68425 0.20247 0.42408 0.0
H785 H 0.714 0.1701 0.31861 0.0
H786 H 0.71758 0.23477 0.42535 0.0
H787 H 0.7471 0.20241 0.31846 0.0
H788 H 0.80534 0.25462 0.43135 0.0
H789 H 0.77094 0.22393 0.42915 0.0
H790 H 0.74516 0.26097 0.33522 0.0
H791 H 0.77955 0.29189 0.33888 0.0
C792 C 0.6978 0.20231 0.39975 0.0
C793 C 0.69655 0.18367 0.37221 0.0
C794 C 0.71687 0.22081 0.40052 0.0
C795 C 0.73495 0.22098 0.37348 0.0
C796 C 0.73348 0.20259 0.34177 0.0
C797 C 0.71449 0.18413 0.34129 0.0
C798 C 0.79234 0.2563 0.41089 0.0
C799 C 0.79522 0.27566 0.38458 0.0
C800 C 0.77266 0.23868 0.40902 0.0
C801 C 0.75547 0.24002 0.38052 0.0
C802 C 0.75815 0.25951 0.35755 0.0
C803 C 0.77785 0.27719 0.35966 0.0
H804 H 0.5622 0.82663 0.7038 0.0
H805 H 0.49904 0.79504 0.6112 0.0
H806 H 0.56336 0.79434 0.68891 0.0
H807 H 0.50055 0.76351 0.59286 0.0
H808 H 0.50033 0.70473 0.65529 0.0
H809 H 0.50072 0.7372 0.67334 0.0
H810 H 0.56413 0.77088 0.58412 0.0
H811 H 0.56412 0.73796 0.56955 0.0
C812 C 0.54858 0.81283 0.6807 0.0
C813 C 0.53047 0.81336 0.6596 0.0
C814 C 0.54933 0.79443 0.67122 0.0
C815 C 0.53204 0.77635 0.63977 0.0
C816 C 0.514 0.77699 0.61893 0.0
C817 C 0.51315 0.79516 0.62947 0.0
C818 C 0.51437 0.71897 0.63852 0.0
C819 C 0.53218 0.7187 0.61036 0.0
C820 C 0.51455 0.73766 0.64881 0.0
C821 C 0.5324 0.75665 0.62973 0.0
C822 C 0.55021 0.7565 0.60035 0.0
C823 C 0.55013 0.73766 0.59109 0.0
H824 H 0.78479 0.4878 0.90998 0.0
H825 H 0.81395 0.55196 0.82775 0.0
H826 H 0.7507 0.48434 0.8889 0.0
H827 H 0.77995 0.54829 0.80494 0.0
H828 H 0.71829 0.54277 0.86539 0.0
H829 H 0.75128 0.54439 0.89097 0.0
H830 H 0.72771 0.48372 0.77744 0.0
H831 H 0.69434 0.48183 0.75344 0.0
C832 C 0.78395 0.5011 0.88679 0.0
C833 C 0.80208 0.52021 0.87116 0.0
C834 C 0.76442 0.49908 0.87446 0.0
C835 C 0.7627 0.51609 0.846 0.0
C836 C 0.78082 0.53504 0.82865 0.0
C837 C 0.8003 0.5371 0.84133 0.0
C838 C 0.72008 0.52973 0.84607 0.0
C839 C 0.70379 0.51225 0.80669 0.0
C840 C 0.73902 0.53071 0.86039 0.0
C841 C 0.74213 0.51431 0.83514 0.0
C842 C 0.72568 0.49654 0.79795 0.0
C843 C 0.70662 0.49549 0.78404 0.0
H844 H 0.1703 0.73598 0.87545 0.0
H845 H 0.20584 0.70652 0.80495 0.0
H846 H 0.19989 0.76252 0.95054 0.0
H847 H 0.23607 0.73392 0.87811 0.0
H848 H 0.2768 0.77342 0.10197 0.0
H849 H 0.24848 0.74621 0.01888 0.0
H850 H 0.23282 0.79166 0.92737 0.0
H851 H 0.26007 0.8182 0.01268 0.0
C852 C 0.18459 0.73541 0.87431 0.0
C853 C 0.18572 0.71917 0.83376 0.0
C854 C 0.20164 0.75071 0.9174 0.0
C855 C 0.22039 0.75041 0.92001 0.0
C856 C 0.22174 0.73442 0.87805 0.0
C857 C 0.20451 0.71887 0.83551 0.0
C858 C 0.26711 0.7774 0.06449 0.0
C859 C 0.27022 0.79771 0.06534 0.0
C860 C 0.25108 0.76195 0.01633 0.0
C861 C 0.23824 0.76674 0.96732 0.0
C862 C 0.24199 0.78728 0.96626 0.0
C863 C 0.25762 0.8025 0.01529 0.0
H864 H 0.49836 0.13637 0.18557 0.0
H865 H 0.52765 0.15971 0.94492 0.0
H866 H 0.53204 0.14643 0.24711 0.0
H867 H 0.56146 0.16978 1.00685 0.0
H868 H 0.59689 0.13601 0.1203 0.0
H869 H 0.57217 0.14405 0.05445 0.0
H870 H 0.56879 0.17366 0.28267 0.0
H871 H 0.59363 0.16564 0.34893 0.0
C872 C 0.51208 0.14423 0.14641 0.0
C873 C 0.51031 0.14692 0.06015 0.0
C874 C 0.53142 0.15016 0.18182 0.0
C875 C 0.54936 0.15869 0.1315 0.0
C876 C 0.54785 0.16308 0.04687 0.0
C877 C 0.52849 0.15739 0.01159 0.0
C878 C 0.59139 0.14482 0.15563 0.0
C879 C 0.59692 0.14985 0.24024 0.0
C880 C 0.57733 0.14957 0.11767 0.0
C881 C 0.56836 0.15926 0.16383 0.0
C882 C 0.57534 0.16602 0.24595 0.0
C883 C 0.58964 0.16149 0.28368 0.0
H884 H 0.37815 0.55931 0.16855 0.0
H885 H 0.37219 0.5274 0.40268 0.0
H886 H 0.40308 0.5923 0.23391 0.0
H887 H 0.39701 0.56018 0.46753 0.0
H888 H 0.44273 0.61914 0.57596 0.0
H889 H 0.40894 0.59666 0.51161 0.0
H890 H 0.43905 0.60133 0.27418 0.0
H891 H 0.4727 0.62381 0.33795 0.0
C892 C 0.38158 0.55944 0.23466 0.0
C893 C 0.37354 0.54072 0.28015 0.0
C894 C 0.39592 0.57831 0.27191 0.0
C895 C 0.40221 0.57879 0.35545 0.0
C896 C 0.39243 0.56039 0.40319 0.0
C897 C 0.37831 0.54154 0.36581 0.0
C898 C 0.44209 0.61597 0.50936 0.0
C899 C 0.46042 0.62287 0.46241 0.0
C900 C 0.42272 0.60303 0.47265 0.0
C901 C 0.42137 0.59697 0.38824 0.0
C902 C 0.43953 0.60576 0.33928 0.0
C903 C 0.45887 0.61852 0.37605 0.0
H904 H 0.82781 0.35795 0.63437 0.0
H905 H 0.84245 0.39646 0.41397 0.0
H906 H 0.82037 0.38192 0.71156 0.0
H907 H 0.83735 0.42159 0.49168 0.0
H908 H 0.83093 0.46802 0.63664 0.0
H909 H 0.82148 0.43601 0.56004 0.0
H910 H 0.8382 0.41235 0.77756 0.0
H911 H 0.84533 0.44329 0.85493 0.0
C912 C 0.82919 0.37151 0.60249 0.0
C913 C 0.83564 0.37546 0.51865 0.0
C914 C 0.82527 0.38549 0.64684 0.0
C915 C 0.82876 0.40424 0.60936 0.0
C916 C 0.83411 0.40739 0.52351 0.0
C917 C 0.8372 0.393 0.4785 0.0
C918 C 0.83188 0.45556 0.66814 0.0
C919 C 0.8388 0.45796 0.75125 0.0
C920 C 0.82677 0.43728 0.62412 0.0
C921 C 0.8295 0.42148 0.66111 0.0
C922 C 0.83546 0.4237 0.74622 0.0
C923 C 0.83975 0.4416 0.79098 0.0
H924 H 0.37621 0.81728 0.11103 0.0
H925 H 0.36693 0.83956 0.87353 0.0
H926 H 0.40295 0.81163 0.04712 0.0
H927 H 0.39352 0.83392 0.81004 0.0
H928 H 0.44092 0.82208 0.70361 0.0
H929 H 0.40725 0.81037 0.77006 0.0
H930 H 0.4381 0.84001 1.00132 0.0
H931 H 0.47168 0.85165 0.93542 0.0
C932 C 0.37935 0.82028 0.04458 0.0
C933 C 0.36971 0.82917 0.99752 0.0
C934 C 0.39474 0.81715 0.00818 0.0
C935 C 0.40049 0.82254 0.92389 0.0
C936 C 0.38937 0.82947 0.87499 0.0
C937 C 0.37421 0.83285 0.91153 0.0
C938 C 0.44052 0.82552 0.76943 0.0
C939 C 0.459 0.83815 0.81382 0.0
C940 C 0.42122 0.81887 0.80729 0.0
C941 C 0.42005 0.8245 0.89047 0.0
C942 C 0.43846 0.83531 0.93724 0.0
C943 C 0.45774 0.84213 0.89923 0.0
H944 H 0.60297 0.45449 0.03871 0.0
H945 H 0.60312 0.42383 0.80821 0.0
H946 H 0.57903 0.4209 0.10077 0.0
H947 H 0.57901 0.39012 0.87059 0.0
H948 H 0.50768 0.35435 0.96113 0.0
H949 H 0.54152 0.37881 0.90277 0.0
H950 H 0.56978 0.3845 0.14525 0.0
H951 H 0.53583 0.35987 0.2039 0.0
C952 C 0.5984 0.44052 1.0022 0.0
C953 C 0.60465 0.44184 0.91815 0.0
C954 C 0.58479 0.42123 0.03799 0.0
C955 C 0.57698 0.4029 0.99013 0.0
C956 C 0.58469 0.40403 0.90862 0.0
C957 C 0.59856 0.42334 0.87312 0.0
C958 C 0.52122 0.36023 1.00132 0.0
C959 C 0.51905 0.35547 0.08735 0.0
C960 C 0.54065 0.37417 0.96777 0.0
C961 C 0.55824 0.38379 0.01982 0.0
C962 C 0.55642 0.37744 0.10397 0.0
C963 C 0.53699 0.36326 0.13736 0.0
H964 H 0.15099 0.52333 0.0185 0.0
H965 H 0.13881 0.5481 0.24247 0.0
H966 H 0.16209 0.55627 0.94637 0.0
H967 H 0.14759 0.58005 0.1697 0.0
H968 H 0.1611 0.63653 0.03622 0.0
H969 H 0.16693 0.61078 0.10766 0.0
H970 H 0.14795 0.57294 0.88229 0.0
H971 H 0.14451 0.59973 0.81023 0.0
C972 C 0.15083 0.53596 0.05213 0.0
C973 C 0.14407 0.53331 0.13559 0.0
C974 C 0.15691 0.5548 0.01074 0.0
C975 C 0.15539 0.571 0.05083 0.0
C976 C 0.14947 0.56842 0.13606 0.0
C977 C 0.1442 0.54993 0.17814 0.0
C978 C 0.15897 0.62298 1.0018 0.0
C979 C 0.15239 0.62002 0.91811 0.0
C980 C 0.16194 0.60798 0.04288 0.0
C981 C 0.15733 0.5892 1.00226 0.0
C982 C 0.15199 0.58707 0.91648 0.0
C983 C 0.14986 0.60245 0.8747 0.0
loop_
_geom_bond_atom_site_label_1
_geom_bond_atom_site_label_2
_geom_bond_distance
_geom_bond_site_symmetry_2
_ccdc_geom_bond_type
Sc0 O3 2.025 . S
Sc0 O10 2.105 . S
Sc0 O13 2.105 . S
Sc0 O16 2.105 . S
Sc0 O19 2.105 1_554 S
Sc1 O3 2.025 1_556 S
Sc1 O11 2.105 . S
Sc1 O15 2.105 1_556 S
Sc1 O17 2.105 1_556 S
Sc1 O21 2.105 . S
Sc2 O3 2.025 . S
Sc2 O12 2.105 1_554 S
Sc2 O14 2.105 . S
Sc2 O18 2.105 . S
Sc2 O20 2.104 1_554 S
O3 Sc0 2.025 . S
O3 Sc1 2.025 1_554 S
O3 Sc2 2.025 . S
C4 O10 1.268 . S
C4 O20 1.268 1_554 S
C5 O11 1.268 . S
C5 O19 1.268 . S
C6 O12 1.268 . S
C6 O21 1.268 . S
C7 O13 1.268 . S
C7 O17 1.268 . S
C8 O14 1.268 . S
C8 O16 1.268 . S
C9 O15 1.268 . S
C9 O18 1.268 . S
O10 Sc0 2.105 . S
O10 C4 1.268 . S
O11 Sc1 2.105 . S
O11 C5 1.268 . S
O12 Sc2 2.105 1_556 S
O12 C6 1.268 . S
O13 Sc0 2.105 . S
O13 C7 1.268 . S
O14 Sc2 2.105 . S
O14 C8 1.268 . S
O15 Sc1 2.105 1_554 S
O15 C9 1.268 . S
O16 Sc0 2.105 . S
O16 C8 1.268 . S
O17 Sc1 2.105 1_554 S
O17 C7 1.268 . S
O18 Sc2 2.105 . S
O18 C9 1.268 . S
O19 Sc0 2.105 1_556 S
O19 C5 1.268 . S
O20 Sc2 2.104 1_556 S
O20 C4 1.268 1_556 S
O21 Sc1 2.105 . S
O21 C6 1.268 . S
Sc22 O25 2.025 . S
Sc22 O32 2.105 . S
Sc22 O35 2.105 . S
Sc22 O38 2.105 . S
Sc22 O41 2.105 . S
Sc23 O25 2.025 . S
Sc23 O33 2.105 . S
Sc23 O37 2.105 . S
Sc23 O39 2.105 . S
Sc23 O43 2.105 . S
Sc24 O25 2.025 . S
Sc24 O34 2.105 . S
Sc24 O36 2.105 . S
Sc24 O40 2.105 . S
Sc24 O42 2.105 . S
O25 Sc22 2.025 . S
O25 Sc23 2.025 . S
O25 Sc24 2.025 . S
C26 O32 1.268 . S
C26 O42 1.268 . S
C27 O33 1.268 . S
C27 O41 1.268 . S
C28 O34 1.268 . S
C28 O43 1.268 . S
C29 O35 1.268 . S
C29 O39 1.268 . S
C30 O36 1.268 . S
C30 O38 1.268 . S
C31 O37 1.268 . S
C31 O40 1.268 . S
O32 Sc22 2.105 . S
O32 C26 1.268 . S
O33 Sc23 2.105 . S
O33 C27 1.268 . S
O34 Sc24 2.105 . S
O34 C28 1.268 . S
O35 Sc22 2.105 . S
O35 C29 1.268 . S
O36 Sc24 2.105 . S
O36 C30 1.268 . S
O37 Sc23 2.105 . S
O37 C31 1.268 . S
O38 Sc22 2.105 . S
O38 C30 1.268 . S
O39 Sc23 2.105 . S
O39 C29 1.268 . S
O40 Sc24 2.105 . S
O40 C31 1.268 . S
O41 Sc22 2.105 . S
O41 C27 1.268 . S
O42 Sc24 2.105 . S
O42 C26 1.268 . S
O43 Sc23 2.105 . S
O43 C28 1.268 . S
Sc44 O47 2.025 . S
Sc44 O54 2.105 . S
Sc44 O57 2.105 . S
Sc44 O60 2.105 . S
Sc44 O63 2.105 . S
Sc45 O47 2.025 . S
Sc45 O55 2.105 . S
Sc45 O59 2.105 . S
Sc45 O61 2.105 . S
Sc45 O65 2.105 . S
Sc46 O47 2.025 . S
Sc46 O56 2.105 . S
Sc46 O58 2.105 . S
Sc46 O62 2.105 . S
Sc46 O64 2.105 . S
O47 Sc44 2.025 . S
O47 Sc45 2.025 . S
O47 Sc46 2.025 . S
C48 O54 1.268 . S
C48 O64 1.268 . S
C49 O55 1.268 . S
C49 O63 1.268 . S
C50 O56 1.268 . S
C50 O65 1.268 . S
C51 O57 1.268 . S
C51 O61 1.268 . S
C52 O58 1.268 . S
C52 O60 1.268 . S
C53 O59 1.268 . S
C53 O62 1.268 . S
O54 Sc44 2.105 . S
O54 C48 1.268 . S
O55 Sc45 2.105 . S
O55 C49 1.268 . S
O56 Sc46 2.105 . S
O56 C50 1.268 . S
O57 Sc44 2.105 . S
O57 C51 1.268 . S
O58 Sc46 2.105 . S
O58 C52 1.268 . S
O59 Sc45 2.105 . S
O59 C53 1.268 . S
O60 Sc44 2.105 . S
O60 C52 1.268 . S
O61 Sc45 2.105 . S
O61 C51 1.268 . S
O62 Sc46 2.105 . S
O62 C53 1.268 . S
O63 Sc44 2.105 . S
O63 C49 1.268 . S
O64 Sc46 2.105 . S
O64 C48 1.268 . S
O65 Sc45 2.105 . S
O65 C50 1.268 . S
Sc66 O69 2.025 . S
Sc66 O76 2.105 . S
Sc66 O79 2.105 . S
Sc66 O82 2.105 . S
Sc66 O85 2.105 . S
Sc67 O69 2.025 . S
Sc67 O77 2.105 . S
Sc67 O81 2.105 . S
Sc67 O83 2.105 . S
Sc67 O87 2.105 . S
Sc68 O69 2.025 . S
Sc68 O78 2.105 . S
Sc68 O80 2.105 . S
Sc68 O84 2.105 . S
Sc68 O86 2.105 . S
O69 Sc66 2.025 . S
O69 Sc67 2.025 . S
O69 Sc68 2.025 . S
C70 O76 1.268 . S
C70 O86 1.268 . S
C71 O77 1.268 . S
C71 O85 1.268 . S
C72 O78 1.268 . S
C72 O87 1.268 . S
C73 O79 1.268 . S
C73 O83 1.268 . S
C74 O80 1.268 . S
C74 O82 1.268 . S
C75 O81 1.268 . S
C75 O84 1.268 . S
O76 Sc66 2.105 . S
O76 C70 1.268 . S
O77 Sc67 2.105 . S
O77 C71 1.268 . S
O78 Sc68 2.105 . S
O78 C72 1.268 . S
O79 Sc66 2.105 . S
O79 C73 1.268 . S
O80 Sc68 2.105 . S
O80 C74 1.268 . S
O81 Sc67 2.105 . S
O81 C75 1.268 . S
O82 Sc66 2.105 . S
O82 C74 1.268 . S
O83 Sc67 2.105 . S
O83 C73 1.268 . S
O84 Sc68 2.105 . S
O84 C75 1.268 . S
O85 Sc66 2.105 . S
O85 C71 1.268 . S
O86 Sc68 2.105 . S
O86 C70 1.268 . S
O87 Sc67 2.105 . S
O87 C72 1.268 . S
Sc88 O91 2.025 . S
Sc88 O98 2.105 . S
Sc88 O101 2.105 . S
Sc88 O104 2.105 . S
Sc88 O107 2.105 . S
Sc89 O91 2.025 . S
Sc89 O99 2.105 . S
Sc89 O103 2.105 . S
Sc89 O105 2.105 . S
Sc89 O109 2.105 . S
Sc90 O91 2.025 . S
Sc90 O100 2.105 . S
Sc90 O102 2.105 . S
Sc90 O106 2.105 . S
Sc90 O108 2.105 . S
O91 Sc88 2.025 . S
O91 Sc89 2.025 . S
O91 Sc90 2.025 . S
C92 O98 1.268 . S
C92 O108 1.268 . S
C93 O99 1.268 . S
C93 O107 1.268 . S
C94 O100 1.268 . S
C94 O109 1.268 . S
C95 O101 1.268 . S
C95 O105 1.268 . S
C96 O102 1.268 . S
C96 O104 1.268 . S
C97 O103 1.268 . S
C97 O106 1.268 . S
O98 Sc88 2.105 . S
O98 C92 1.268 . S
O99 Sc89 2.105 . S
O99 C93 1.268 . S
O100 Sc90 2.105 . S
O100 C94 1.268 . S
O101 Sc88 2.105 . S
O101 C95 1.268 . S
O102 Sc90 2.105 . S
O102 C96 1.268 . S
O103 Sc89 2.105 . S
O103 C97 1.268 . S
O104 Sc88 2.105 . S
O104 C96 1.268 . S
O105 Sc89 2.105 . S
O105 C95 1.268 . S
O106 Sc90 2.105 . S
O106 C97 1.268 . S
O107 Sc88 2.105 . S
O107 C93 1.268 . S
O108 Sc90 2.105 . S
O108 C92 1.268 . S
O109 Sc89 2.105 . S
O109 C94 1.268 . S
Sc110 O113 2.025 . S
Sc110 O120 2.105 . S
Sc110 O123 2.105 . S
Sc110 O126 2.105 1_556 S
Sc110 O129 2.105 . S
Sc111 O113 2.025 . S
Sc111 O121 2.105 . S
Sc111 O125 2.105 . S
Sc111 O127 2.105 . S
Sc111 O131 2.105 . S
Sc112 O113 2.025 . S
Sc112 O122 2.105 . S
Sc112 O124 2.105 . S
Sc112 O128 2.105 . S
Sc112 O130 2.105 . S
O113 Sc110 2.025 . S
O113 Sc111 2.025 . S
O113 Sc112 2.025 . S
C114 O120 1.268 . S
C114 O130 1.268 . S
C115 O121 1.268 . S
C115 O129 1.268 . S
C116 O122 1.268 . S
C116 O131 1.268 . S
C117 O123 1.268 . S
C117 O127 1.268 . S
C118 O124 1.268 1_554 S
C118 O126 1.268 . S
C119 O125 1.268 . S
C119 O128 1.268 . S
O120 Sc110 2.105 . S
O120 C114 1.268 . S
O121 Sc111 2.105 . S
O121 C115 1.268 . S
O122 Sc112 2.105 . S
O122 C116 1.268 . S
O123 Sc110 2.105 . S
O123 C117 1.268 . S
O124 Sc112 2.105 . S
O124 C118 1.268 1_556 S
O125 Sc111 2.105 . S
O125 C119 1.268 . S
O126 Sc110 2.105 1_554 S
O126 C118 1.268 . S
O127 Sc111 2.105 . S
O127 C117 1.268 . S
O128 Sc112 2.105 . S
O128 C119 1.268 . S
O129 Sc110 2.105 . S
O129 C115 1.268 . S
O130 Sc112 2.105 . S
O130 C114 1.268 . S
O131 Sc111 2.105 . S
O131 C116 1.268 . S
Sc132 O135 2.025 . S
Sc132 O142 2.105 . S
Sc132 O145 2.105 . S
Sc132 O148 2.105 . S
Sc132 O151 2.105 . S
Sc133 O135 2.025 . S
Sc133 O143 2.105 . S
Sc133 O147 2.105 . S
Sc133 O149 2.105 . S
Sc133 O153 2.105 . S
Sc134 O135 2.025 . S
Sc134 O144 2.105 . S
Sc134 O146 2.105 . S
Sc134 O150 2.105 . S
Sc134 O152 2.105 . S
O135 Sc132 2.025 . S
O135 Sc133 2.025 . S
O135 Sc134 2.025 . S
C136 O142 1.268 . S
C136 O152 1.268 . S
C137 O143 1.268 . S
C137 O151 1.268 . S
C138 O144 1.268 . S
C138 O153 1.268 . S
C139 O145 1.268 1_554 S
C139 O149 1.268 1_554 S
C140 O146 1.268 . S
C140 O148 1.268 . S
C141 O147 1.268 . S
C141 O150 1.268 . S
O142 Sc132 2.105 . S
O142 C136 1.268 . S
O143 Sc133 2.105 . S
O143 C137 1.268 . S
O144 Sc134 2.105 . S
O144 C138 1.268 . S
O145 Sc132 2.105 . S
O145 C139 1.268 1_556 S
O146 Sc134 2.105 . S
O146 C140 1.268 . S
O147 Sc133 2.105 . S
O147 C141 1.268 . S
O148 Sc132 2.105 . S
O148 C140 1.268 . S
O149 Sc133 2.105 . S
O149 C139 1.268 1_556 S
O150 Sc134 2.105 . S
O150 C141 1.268 . S
O151 Sc132 2.105 . S
O151 C137 1.268 . S
O152 Sc134 2.105 . S
O152 C136 1.268 . S
O153 Sc133 2.105 . S
O153 C138 1.268 . S
Sc154 O157 2.025 . S
Sc154 O164 2.105 . S
Sc154 O167 2.105 1_556 S
Sc154 O170 2.105 1_556 S
Sc154 O173 2.105 . S
Sc155 O157 2.025 1_554 S
Sc155 O165 2.105 . S
Sc155 O169 2.105 . S
Sc155 O171 2.105 . S
Sc155 O175 2.105 1_554 S
Sc156 O157 2.025 . S
Sc156 O166 2.105 . S
Sc156 O168 2.105 . S
Sc156 O172 2.105 1_556 S
Sc156 O174 2.105 . S
O157 Sc154 2.025 . S
O157 Sc155 2.025 1_556 S
O157 Sc156 2.025 . S
C158 O164 1.268 . S
C158 O174 1.268 . S
C159 O165 1.268 1_556 S
C159 O173 1.268 . S
C160 O166 1.268 . S
C160 O175 1.268 . S
C161 O167 1.268 . S
C161 O171 1.268 . S
C162 O168 1.268 1_554 S
C162 O170 1.268 . S
C163 O169 1.268 . S
C163 O172 1.268 . S
O164 Sc154 2.105 . S
O164 C158 1.268 . S
O165 Sc155 2.105 . S
O165 C159 1.268 1_554 S
O166 Sc156 2.105 . S
O166 C160 1.268 . S
O167 Sc154 2.105 1_554 S
O167 C161 1.268 . S
O168 Sc156 2.105 . S
O168 C162 1.268 1_556 S
O169 Sc155 2.105 . S
O169 C163 1.268 . S
O170 Sc154 2.105 1_554 S
O170 C162 1.268 . S
O171 Sc155 2.105 . S
O171 C161 1.268 . S
O172 Sc156 2.105 1_554 S
O172 C163 1.268 . S
O173 Sc154 2.105 . S
O173 C159 1.268 . S
O174 Sc156 2.105 . S
O174 C158 1.268 . S
O175 Sc155 2.105 1_556 S
O175 C160 1.268 . S
Sc176 O179 2.025 . S
Sc176 O186 2.105 . S
Sc176 O189 2.105 . S
Sc176 O192 2.105 . S
Sc176 O195 2.105 . S
Sc177 O179 2.025 . S
Sc177 O187 2.105 . S
Sc177 O191 2.105 . S
Sc177 O193 2.105 . S
Sc177 O197 2.105 . S
Sc178 O179 2.025 . S
Sc178 O188 2.105 . S
Sc178 O190 2.105 . S
Sc178 O194 2.105 . S
Sc178 O196 2.105 1_554 S
O179 Sc176 2.025 . S
O179 Sc177 2.025 . S
O179 Sc178 2.025 . S
C180 O186 1.268 1_556 S
C180 O196 1.268 . S
C181 O187 1.268 . S
C181 O195 1.268 . S
C182 O188 1.268 . S
C182 O197 1.268 . S
C183 O189 1.268 . S
C183 O193 1.268 . S
C184 O190 1.268 . S
C184 O192 1.268 . S
C185 O191 1.268 . S
C185 O194 1.268 . S
O186 Sc176 2.105 . S
O186 C180 1.268 1_554 S
O187 Sc177 2.105 . S
O187 C181 1.268 . S
O188 Sc178 2.105 . S
O188 C182 1.268 . S
O189 Sc176 2.105 . S
O189 C183 1.268 . S
O190 Sc178 2.105 . S
O190 C184 1.268 . S
O191 Sc177 2.105 . S
O191 C185 1.268 . S
O192 Sc176 2.105 . S
O192 C184 1.268 . S
O193 Sc177 2.105 . S
O193 C183 1.268 . S
O194 Sc178 2.105 . S
O194 C185 1.268 . S
O195 Sc176 2.105 . S
O195 C181 1.268 . S
O196 Sc178 2.105 1_556 S
O196 C180 1.268 . S
O197 Sc177 2.105 . S
O197 C182 1.268 . S
Sc198 O201 2.025 . S
Sc198 O208 2.105 . S
Sc198 O211 2.105 . S
Sc198 O214 2.105 . S
Sc198 O217 2.105 . S
Sc199 O201 2.025 . S
Sc199 O209 2.105 . S
Sc199 O213 2.105 . S
Sc199 O215 2.105 . S
Sc199 O219 2.105 . S
Sc200 O201 2.025 . S
Sc200 O210 2.105 . S
Sc200 O212 2.105 . S
Sc200 O216 2.105 . S
Sc200 O218 2.105 . S
O201 Sc198 2.025 . S
O201 Sc199 2.025 . S
O201 Sc200 2.025 . S
C202 O208 1.268 . S
C202 O218 1.268 . S
C203 O209 1.268 . S
C203 O217 1.268 . S
C204 O210 1.268 . S
C204 O219 1.268 . S
C205 O211 1.268 . S
C205 O215 1.268 . S
C206 O212 1.268 . S
C206 O214 1.268 . S
C207 O213 1.268 . S
C207 O216 1.268 . S
O208 Sc198 2.105 . S
O208 C202 1.268 . S
O209 Sc199 2.105 . S
O209 C203 1.268 . S
O210 Sc200 2.105 . S
O210 C204 1.268 . S
O211 Sc198 2.105 . S
O211 C205 1.268 . S
O212 Sc200 2.105 . S
O212 C206 1.268 . S
O213 Sc199 2.105 . S
O213 C207 1.268 . S
O214 Sc198 2.105 . S
O214 C206 1.268 . S
O215 Sc199 2.105 . S
O215 C205 1.268 . S
O216 Sc200 2.105 . S
O216 C207 1.268 . S
O217 Sc198 2.105 . S
O217 C203 1.268 . S
O218 Sc200 2.105 . S
O218 C202 1.268 . S
O219 Sc199 2.105 . S
O219 C204 1.268 . S
Sc220 O223 2.025 . S
Sc220 O230 2.105 . S
Sc220 O233 2.105 . S
Sc220 O236 2.105 . S
Sc220 O239 2.105 . S
Sc221 O223 2.025 . S
Sc221 O231 2.105 . S
Sc221 O235 2.105 . S
Sc221 O237 2.105 . S
Sc221 O241 2.105 . S
Sc222 O223 2.025 . S
Sc222 O232 2.105 . S
Sc222 O234 2.105 . S
Sc222 O238 2.105 . S
Sc222 O240 2.105 . S
O223 Sc220 2.025 . S
O223 Sc221 2.025 . S
O223 Sc222 2.025 . S
C224 O230 1.268 . S
C224 O240 1.268 . S
C225 O231 1.268 . S
C225 O239 1.268 . S
C226 O232 1.268 . S
C226 O241 1.268 . S
C227 O233 1.268 . S
C227 O237 1.268 . S
C228 O234 1.268 . S
C228 O236 1.268 . S
C229 O235 1.268 . S
C229 O238 1.268 . S
O230 Sc220 2.105 . S
O230 C224 1.268 . S
O231 Sc221 2.105 . S
O231 C225 1.268 . S
O232 Sc222 2.105 . S
O232 C226 1.268 . S
O233 Sc220 2.105 . S
O233 C227 1.268 . S
O234 Sc222 2.105 . S
O234 C228 1.268 . S
O235 Sc221 2.105 . S
O235 C229 1.268 . S
O236 Sc220 2.105 . S
O236 C228 1.268 . S
O237 Sc221 2.105 . S
O237 C227 1.268 . S
O238 Sc222 2.105 . S
O238 C229 1.268 . S
O239 Sc220 2.105 . S
O239 C225 1.268 . S
O240 Sc222 2.105 . S
O240 C224 1.268 . S
O241 Sc221 2.105 . S
O241 C226 1.268 . S
Sc242 O245 2.025 . S
Sc242 O252 2.105 . S
Sc242 O255 2.105 . S
Sc242 O258 2.105 . S
Sc242 O261 2.105 . S
Sc243 O245 2.025 . S
Sc243 O253 2.105 . S
Sc243 O257 2.105 . S
Sc243 O259 2.105 . S
Sc243 O263 2.105 . S
Sc244 O245 2.025 . S
Sc244 O254 2.105 . S
Sc244 O256 2.105 . S
Sc244 O260 2.105 . S
Sc244 O262 2.105 . S
O245 Sc242 2.025 . S
O245 Sc243 2.025 . S
O245 Sc244 2.025 . S
C246 O252 1.268 . S
C246 O262 1.268 . S
C247 O253 1.268 . S
C247 O261 1.268 . S
C248 O254 1.268 . S
C248 O263 1.268 . S
C249 O255 1.268 . S
C249 O259 1.268 . S
C250 O256 1.268 . S
C250 O258 1.268 . S
C251 O257 1.268 . S
C251 O260 1.268 . S
O252 Sc242 2.105 . S
O252 C246 1.268 . S
O253 Sc243 2.105 . S
O253 C247 1.268 . S
O254 Sc244 2.105 . S
O254 C248 1.268 . S
O255 Sc242 2.105 . S
O255 C249 1.268 . S
O256 Sc244 2.105 . S
O256 C250 1.268 . S
O257 Sc243 2.105 . S
O257 C251 1.268 . S
O258 Sc242 2.105 . S
O258 C250 1.268 . S
O259 Sc243 2.105 . S
O259 C249 1.268 . S
O260 Sc244 2.105 . S
O260 C251 1.268 . S
O261 Sc242 2.105 . S
O261 C247 1.268 . S
O262 Sc244 2.105 . S
O262 C246 1.268 . S
O263 Sc243 2.105 . S
O263 C248 1.268 . S
H264 C272 0.950 . S
H265 C277 0.950 . S
H266 C274 0.950 . S
H267 C276 0.950 . S
H268 C278 0.950 . S
H269 C280 0.950 . S
H270 C282 0.950 . S
H271 C283 0.950 . S
C272 H264 0.950 . S
C272 C273 1.386 . S
C272 C274 1.391 . S
C273 C272 1.386 . S
C273 C277 1.393 . S
C274 H266 0.950 . S
C274 C272 1.391 . S
C274 C275 1.400 . S
C275 C274 1.400 . S
C275 C276 1.398 . S
C275 C281 1.491 . S
C276 H267 0.950 . S
C276 C275 1.398 . S
C276 C277 1.391 . S
C277 H265 0.950 . S
C277 C273 1.393 . S
C277 C276 1.391 . S
C278 H268 0.950 . S
C278 C279 1.386 . S
C278 C280 1.391 . S
C279 C278 1.386 . S
C279 C283 1.393 . S
C280 H269 0.950 . S
C280 C278 1.391 . S
C280 C281 1.400 . S
C281 C275 1.491 . S
C281 C280 1.400 . S
C281 C282 1.398 . S
C282 H270 0.950 . S
C282 C281 1.398 . S
C282 C283 1.391 . S
C283 H271 0.950 . S
C283 C279 1.393 . S
C283 C282 1.391 . S
H284 C292 0.950 . S
H285 C297 0.950 . S
H286 C294 0.950 . S
H287 C296 0.950 . S
H288 C298 0.950 . S
H289 C300 0.950 . S
H290 C302 0.950 . S
H291 C303 0.950 . S
C292 H284 0.950 . S
C292 C293 1.386 . S
C292 C294 1.391 . S
C293 C292 1.386 . S
C293 C297 1.393 . S
C294 H286 0.950 . S
C294 C292 1.391 . S
C294 C295 1.400 . S
C295 C294 1.400 . S
C295 C296 1.398 . S
C295 C301 1.491 . S
C296 H287 0.950 . S
C296 C295 1.398 . S
C296 C297 1.391 . S
C297 H285 0.950 . S
C297 C293 1.393 . S
C297 C296 1.391 . S
C298 H288 0.950 . S
C298 C299 1.386 . S
C298 C300 1.391 . S
C299 C298 1.386 . S
C299 C303 1.393 . S
C300 H289 0.950 . S
C300 C298 1.391 . S
C300 C301 1.400 . S
C301 C295 1.491 . S
C301 C300 1.400 . S
C301 C302 1.398 . S
C302 H290 0.950 . S
C302 C301 1.398 . S
C302 C303 1.391 . S
C303 H291 0.950 . S
C303 C299 1.393 . S
C303 C302 1.391 . S
H304 C312 0.950 . S
H305 C317 0.950 . S
H306 C314 0.950 . S
H307 C316 0.950 . S
H308 C318 0.950 . S
H309 C320 0.950 . S
H310 C322 0.950 . S
H311 C323 0.950 . S
C312 H304 0.950 . S
C312 C313 1.386 . S
C312 C314 1.391 . S
C313 C312 1.386 . S
C313 C317 1.393 . S
C314 H306 0.950 . S
C314 C312 1.391 . S
C314 C315 1.400 . S
C315 C314 1.400 . S
C315 C316 1.398 . S
C315 C321 1.491 . S
C316 H307 0.950 . S
C316 C315 1.398 . S
C316 C317 1.391 . S
C317 H305 0.950 . S
C317 C313 1.393 . S
C317 C316 1.391 . S
C318 H308 0.950 . S
C318 C319 1.386 . S
C318 C320 1.391 1_554 S
C319 C318 1.386 . S
C319 C323 1.393 . S
C320 H309 0.950 . S
C320 C318 1.391 1_556 S
C320 C321 1.400 . S
C321 C315 1.491 . S
C321 C320 1.400 . S
C321 C322 1.398 . S
C322 H310 0.950 . S
C322 C321 1.398 . S
C322 C323 1.391 1_556 S
C323 H311 0.950 . S
C323 C319 1.393 . S
C323 C322 1.391 1_554 S
H324 C332 0.950 . S
H325 C337 0.950 . S
H326 C334 0.950 . S
H327 C336 0.950 . S
H328 C338 0.950 . S
H329 C340 0.950 . S
H330 C342 0.950 . S
H331 C343 0.950 . S
C332 H324 0.950 . S
C332 C333 1.386 . S
C332 C334 1.391 . S
C333 C332 1.386 . S
C333 C337 1.393 . S
C334 H326 0.950 . S
C334 C332 1.391 . S
C334 C335 1.400 . S
C335 C334 1.400 . S
C335 C336 1.398 . S
C335 C341 1.491 1_554 S
C336 H327 0.950 . S
C336 C335 1.398 . S
C336 C337 1.391 . S
C337 H325 0.950 . S
C337 C333 1.393 . S
C337 C336 1.391 . S
C338 H328 0.950 . S
C338 C339 1.386 . S
C338 C340 1.391 . S
C339 C338 1.386 . S
C339 C343 1.393 . S
C340 H329 0.950 . S
C340 C338 1.391 . S
C340 C341 1.400 . S
C341 C335 1.491 1_556 S
C341 C340 1.400 . S
C341 C342 1.398 . S
C342 H330 0.950 . S
C342 C341 1.398 . S
C342 C343 1.391 . S
C343 H331 0.950 . S
C343 C339 1.393 . S
C343 C342 1.391 . S
H344 C352 0.950 1_556 S
H345 C357 0.950 . S
H346 C354 0.950 . S
H347 C356 0.950 . S
H348 C358 0.950 . S
H349 C360 0.950 . S
H350 C362 0.950 . S
H351 C363 0.950 . S
C352 H344 0.950 1_554 S
C352 C353 1.386 1_554 S
C352 C354 1.391 . S
C353 C352 1.386 1_556 S
C353 C357 1.393 1_556 S
C354 H346 0.950 . S
C354 C352 1.391 . S
C354 C355 1.400 . S
C355 C354 1.400 . S
C355 C356 1.398 . S
C355 C361 1.491 . S
C356 H347 0.950 . S
C356 C355 1.398 . S
C356 C357 1.391 . S
C357 H345 0.950 . S
C357 C353 1.393 1_554 S
C357 C356 1.391 . S
C358 H348 0.950 . S
C358 C359 1.386 . S
C358 C360 1.391 . S
C359 C358 1.386 . S
C359 C363 1.393 . S
C360 H349 0.950 . S
C360 C358 1.391 . S
C360 C361 1.400 . S
C361 C355 1.491 . S
C361 C360 1.400 . S
C361 C362 1.398 . S
C362 H350 0.950 . S
C362 C361 1.398 . S
C362 C363 1.391 . S
C363 H351 0.950 . S
C363 C359 1.393 . S
C363 C362 1.391 . S
H364 C372 0.950 . S
H365 C377 0.950 . S
H366 C374 0.950 . S
H367 C376 0.950 . S
H368 C378 0.950 . S
H369 C380 0.950 . S
H370 C382 0.950 . S
H371 C383 0.950 . S
C372 H364 0.950 . S
C372 C373 1.386 . S
C372 C374 1.391 . S
C373 C372 1.386 . S
C373 C377 1.393 . S
C374 H366 0.950 . S
C374 C372 1.391 . S
C374 C375 1.400 . S
C375 C374 1.400 . S
C375 C376 1.398 . S
C375 C381 1.491 . S
C376 H367 0.950 . S
C376 C375 1.398 . S
C376 C377 1.391 . S
C377 H365 0.950 . S
C377 C373 1.393 . S
C377 C376 1.391 . S
C378 H368 0.950 . S
C378 C379 1.386 . S
C378 C380 1.391 . S
C379 C378 1.386 . S
C379 C383 1.393 . S
C380 H369 0.950 . S
C380 C378 1.391 . S
C380 C381 1.400 . S
C381 C375 1.491 . S
C381 C380 1.400 . S
C381 C382 1.398 . S
C382 H370 0.950 . S
C382 C381 1.398 . S
C382 C383 1.391 . S
C383 H371 0.950 . S
C383 C379 1.393 . S
C383 C382 1.391 . S
H384 C392 0.950 . S
H385 C397 0.950 . S
H386 C394 0.950 . S
H387 C396 0.950 . S
H388 C398 0.950 . S
H389 C400 0.950 . S
H390 C402 0.950 . S
H391 C403 0.950 . S
C392 H384 0.950 . S
C392 C393 1.386 . S
C392 C394 1.391 . S
C393 C392 1.386 . S
C393 C397 1.393 . S
C394 H386 0.950 . S
C394 C392 1.391 . S
C394 C395 1.400 . S
C395 C394 1.400 . S
C395 C396 1.398 . S
C395 C401 1.491 . S
C396 H387 0.950 . S
C396 C395 1.398 . S
C396 C397 1.391 . S
C397 H385 0.950 . S
C397 C393 1.393 . S
C397 C396 1.391 . S
C398 H388 0.950 . S
C398 C399 1.386 . S
C398 C400 1.391 . S
C399 C398 1.386 . S
C399 C403 1.393 . S
C400 H389 0.950 . S
C400 C398 1.391 . S
C400 C401 1.400 . S
C401 C395 1.491 . S
C401 C400 1.400 . S
C401 C402 1.398 . S
C402 H390 0.950 . S
C402 C401 1.398 . S
C402 C403 1.391 . S
C403 H391 0.950 . S
C403 C399 1.393 . S
C403 C402 1.391 . S
H404 C412 0.950 . S
H405 C417 0.950 . S
H406 C414 0.950 . S
H407 C416 0.950 . S
H408 C418 0.950 . S
H409 C420 0.950 . S
H410 C422 0.950 . S
H411 C423 0.950 . S
C412 H404 0.950 . S
C412 C413 1.386 . S
C412 C414 1.391 . S
C413 C412 1.386 . S
C413 C417 1.393 . S
C414 H406 0.950 . S
C414 C412 1.391 . S
C414 C415 1.400 . S
C415 C414 1.400 . S
C415 C416 1.398 . S
C415 C421 1.491 . S
C416 H407 0.950 . S
C416 C415 1.398 . S
C416 C417 1.391 . S
C417 H405 0.950 . S
C417 C413 1.393 . S
C417 C416 1.391 . S
C418 H408 0.950 . S
C418 C419 1.386 . S
C418 C420 1.391 . S
C419 C418 1.386 . S
C419 C423 1.393 . S
C420 H409 0.950 . S
C420 C418 1.391 . S
C420 C421 1.400 . S
C421 C415 1.491 . S
C421 C420 1.400 . S
C421 C422 1.398 . S
C422 H410 0.950 . S
C422 C421 1.398 . S
C422 C423 1.391 . S
C423 H411 0.950 . S
C423 C419 1.393 . S
C423 C422 1.391 . S
H424 C432 0.950 . S
H425 C437 0.950 . S
H426 C434 0.950 . S
H427 C436 0.950 . S
H428 C438 0.950 . S
H429 C440 0.950 . S
H430 C442 0.950 . S
H431 C443 0.950 . S
C432 H424 0.950 . S
C432 C433 1.386 . S
C432 C434 1.391 . S
C433 C432 1.386 . S
C433 C437 1.393 . S
C434 H426 0.950 . S
C434 C432 1.391 . S
C434 C435 1.400 . S
C435 C434 1.400 . S
C435 C436 1.398 . S
C435 C441 1.491 . S
C436 H427 0.950 . S
C436 C435 1.398 . S
C436 C437 1.391 . S
C437 H425 0.950 . S
C437 C433 1.393 . S
C437 C436 1.391 . S
C438 H428 0.950 . S
C438 C439 1.386 . S
C438 C440 1.391 . S
C439 C438 1.386 . S
C439 C443 1.393 . S
C440 H429 0.950 . S
C440 C438 1.391 . S
C440 C441 1.400 . S
C441 C435 1.491 . S
C441 C440 1.400 . S
C441 C442 1.398 . S
C442 H430 0.950 . S
C442 C441 1.398 . S
C442 C443 1.391 . S
C443 H431 0.950 . S
C443 C439 1.393 . S
C443 C442 1.391 . S
H444 C452 0.950 1_554 S
H445 C457 0.950 . S
H446 C454 0.950 . S
H447 C456 0.950 . S
H448 C458 0.950 . S
H449 C460 0.950 . S
H450 C462 0.950 . S
H451 C463 0.950 . S
C452 H444 0.950 1_556 S
C452 C453 1.386 1_556 S
C452 C454 1.391 . S
C453 C452 1.386 1_554 S
C453 C457 1.393 . S
C454 H446 0.950 . S
C454 C452 1.391 . S
C454 C455 1.400 . S
C455 C454 1.400 . S
C455 C456 1.398 . S
C455 C461 1.491 . S
C456 H447 0.950 . S
C456 C455 1.398 . S
C456 C457 1.391 1_556 S
C457 H445 0.950 . S
C457 C453 1.393 . S
C457 C456 1.391 1_554 S
C458 H448 0.950 . S
C458 C459 1.386 . S
C458 C460 1.391 . S
C459 C458 1.386 . S
C459 C463 1.393 . S
C460 H449 0.950 . S
C460 C458 1.391 . S
C460 C461 1.400 . S
C461 C455 1.491 . S
C461 C460 1.400 . S
C461 C462 1.398 . S
C462 H450 0.950 . S
C462 C461 1.398 . S
C462 C463 1.391 . S
C463 H451 0.950 . S
C463 C459 1.393 . S
C463 C462 1.391 . S
H464 C472 0.950 . S
H465 C477 0.950 . S
H466 C474 0.950 . S
H467 C476 0.950 . S
H468 C478 0.950 . S
H469 C480 0.950 . S
H470 C482 0.950 . S
H471 C483 0.950 . S
C472 H464 0.950 . S
C472 C473 1.386 . S
C472 C474 1.391 . S
C473 C472 1.386 . S
C473 C477 1.393 . S
C474 H466 0.950 . S
C474 C472 1.391 . S
C474 C475 1.400 . S
C475 C474 1.400 . S
C475 C476 1.398 . S
C475 C481 1.491 1_556 S
C476 H467 0.950 . S
C476 C475 1.398 . S
C476 C477 1.391 . S
C477 H465 0.950 . S
C477 C473 1.393 . S
C477 C476 1.391 . S
C478 H468 0.950 . S
C478 C479 1.386 . S
C478 C480 1.391 . S
C479 C478 1.386 . S
C479 C483 1.393 . S
C480 H469 0.950 . S
C480 C478 1.391 . S
C480 C481 1.400 . S
C481 C475 1.491 1_554 S
C481 C480 1.400 . S
C481 C482 1.398 . S
C482 H470 0.950 . S
C482 C481 1.398 . S
C482 C483 1.391 . S
C483 H471 0.950 . S
C483 C479 1.393 . S
C483 C482 1.391 . S
H484 C492 0.950 . S
H485 C497 0.950 . S
H486 C494 0.950 . S
H487 C496 0.950 . S
H488 C498 0.950 . S
H489 C500 0.950 . S
H490 C502 0.950 . S
H491 C503 0.950 . S
C492 H484 0.950 . S
C492 C493 1.386 . S
C492 C494 1.391 . S
C493 C492 1.386 . S
C493 C497 1.393 . S
C494 H486 0.950 . S
C494 C492 1.391 . S
C494 C495 1.400 . S
C495 C494 1.400 . S
C495 C496 1.398 . S
C495 C501 1.491 . S
C496 H487 0.950 . S
C496 C495 1.398 . S
C496 C497 1.391 . S
C497 H485 0.950 . S
C497 C493 1.393 . S
C497 C496 1.391 . S
C498 H488 0.950 . S
C498 C499 1.386 . S
C498 C500 1.391 1_556 S
C499 C498 1.386 . S
C499 C503 1.393 . S
C500 H489 0.950 . S
C500 C498 1.391 1_554 S
C500 C501 1.400 . S
C501 C495 1.491 . S
C501 C500 1.400 . S
C501 C502 1.398 . S
C502 H490 0.950 . S
C502 C501 1.398 . S
C502 C503 1.391 1_554 S
C503 H491 0.950 . S
C503 C499 1.393 . S
C503 C502 1.391 1_556 S
H504 C512 0.950 . S
H505 C517 0.950 . S
H506 C514 0.950 . S
H507 C516 0.950 . S
H508 C518 0.950 . S
H509 C520 0.950 . S
H510 C522 0.950 . S
H511 C523 0.950 . S
C512 H504 0.950 . S
C512 C513 1.386 1_554 S
C512 C514 1.391 . S
C513 C512 1.386 1_556 S
C513 C517 1.393 . S
C514 H506 0.950 . S
C514 C512 1.391 . S
C514 C515 1.400 . S
C515 C514 1.400 . S
C515 C516 1.398 1_554 S
C515 C521 1.491 1_545 S
C516 H507 0.950 . S
C516 C515 1.398 1_556 S
C516 C517 1.391 . S
C517 H505 0.950 . S
C517 C513 1.393 . S
C517 C516 1.391 . S
C518 H508 0.950 . S
C518 C519 1.386 1_556 S
C518 C520 1.391 . S
C519 C518 1.386 1_554 S
C519 C523 1.393 . S
C520 H509 0.950 . S
C520 C518 1.391 . S
C520 C521 1.400 1_556 S
C521 C515 1.491 1_565 S
C521 C520 1.400 1_554 S
C521 C522 1.398 . S
C522 H510 0.950 . S
C522 C521 1.398 . S
C522 C523 1.391 . S
C523 H511 0.950 . S
C523 C519 1.393 . S
C523 C522 1.391 . S
H524 C532 0.950 . S
H525 C537 0.950 . S
H526 C534 0.950 . S
H527 C536 0.950 . S
H528 C538 0.950 . S
H529 C540 0.950 . S
H530 C542 0.950 . S
H531 C543 0.950 . S
C532 H524 0.950 . S
C532 C533 1.386 . S
C532 C534 1.391 . S
C533 C532 1.386 . S
C533 C537 1.393 . S
C534 H526 0.950 . S
C534 C532 1.391 . S
C534 C535 1.400 . S
C535 C534 1.400 . S
C535 C536 1.398 . S
C535 C541 1.491 . S
C536 H527 0.950 . S
C536 C535 1.398 . S
C536 C537 1.391 . S
C537 H525 0.950 . S
C537 C533 1.393 . S
C537 C536 1.391 . S
C538 H528 0.950 . S
C538 C539 1.386 . S
C538 C540 1.391 . S
C539 C538 1.386 . S
C539 C543 1.393 . S
C540 H529 0.950 . S
C540 C538 1.391 . S
C540 C541 1.400 . S
C541 C535 1.491 . S
C541 C540 1.400 . S
C541 C542 1.398 . S
C542 H530 0.950 . S
C542 C541 1.398 . S
C542 C543 1.391 . S
C543 H531 0.950 . S
C543 C539 1.393 . S
C543 C542 1.391 . S
H544 C552 0.950 . S
H545 C557 0.950 . S
H546 C554 0.950 . S
H547 C556 0.950 . S
H548 C558 0.950 . S
H549 C560 0.950 . S
H550 C562 0.950 . S
H551 C563 0.950 . S
C552 H544 0.950 . S
C552 C553 1.386 . S
C552 C554 1.391 . S
C553 C552 1.386 . S
C553 C557 1.393 . S
C554 H546 0.950 . S
C554 C552 1.391 . S
C554 C555 1.400 . S
C555 C554 1.400 . S
C555 C556 1.398 . S
C555 C561 1.491 1_455 S
C556 H547 0.950 . S
C556 C555 1.398 . S
C556 C557 1.391 . S
C557 H545 0.950 . S
C557 C553 1.393 . S
C557 C556 1.391 . S
C558 H548 0.950 . S
C558 C559 1.386 . S
C558 C560 1.391 . S
C559 C558 1.386 . S
C559 C563 1.393 . S
C560 H549 0.950 . S
C560 C558 1.391 . S
C560 C561 1.400 . S
C561 C555 1.491 1_655 S
C561 C560 1.400 . S
C561 C562 1.398 . S
C562 H550 0.950 . S
C562 C561 1.398 . S
C562 C563 1.391 . S
C563 H551 0.950 . S
C563 C559 1.393 . S
C563 C562 1.391 . S
H564 C572 0.950 . S
H565 C577 0.950 . S
H566 C574 0.950 . S
H567 C576 0.950 . S
H568 C578 0.950 . S
H569 C580 0.950 . S
H570 C582 0.950 . S
H571 C583 0.950 . S
C572 H564 0.950 . S
C572 C573 1.386 . S
C572 C574 1.391 . S
C573 C572 1.386 . S
C573 C577 1.393 . S
C574 H566 0.950 . S
C574 C572 1.391 . S
C574 C575 1.400 . S
C575 C574 1.400 . S
C575 C576 1.398 . S
C575 C581 1.491 1_565 S
C576 H567 0.950 . S
C576 C575 1.398 . S
C576 C577 1.391 . S
C577 H565 0.950 . S
C577 C573 1.393 . S
C577 C576 1.391 . S
C578 H568 0.950 . S
C578 C579 1.386 . S
C578 C580 1.391 . S
C579 C578 1.386 . S
C579 C583 1.393 . S
C580 H569 0.950 . S
C580 C578 1.391 . S
C580 C581 1.400 . S
C581 C575 1.491 1_545 S
C581 C580 1.400 . S
C581 C582 1.398 . S
C582 H570 0.950 . S
C582 C581 1.398 . S
C582 C583 1.391 . S
C583 H571 0.950 . S
C583 C579 1.393 . S
C583 C582 1.391 . S
H584 C592 0.950 . S
H585 C597 0.950 . S
H586 C594 0.950 . S
H587 C596 0.950 . S
H588 C598 0.950 . S
H589 C600 0.950 . S
H590 C602 0.950 . S
H591 C603 0.950 . S
C592 H584 0.950 . S
C592 C593 1.386 . S
C592 C594 1.391 . S
C593 C592 1.386 . S
C593 C597 1.393 . S
C594 H586 0.950 . S
C594 C592 1.391 . S
C594 C595 1.400 . S
C595 C594 1.400 . S
C595 C596 1.398 . S
C595 C601 1.491 . S
C596 H587 0.950 . S
C596 C595 1.398 . S
C596 C597 1.391 . S
C597 H585 0.950 . S
C597 C593 1.393 . S
C597 C596 1.391 . S
C598 H588 0.950 . S
C598 C599 1.386 . S
C598 C600 1.391 . S
C599 C598 1.386 . S
C599 C603 1.393 . S
C600 H589 0.950 . S
C600 C598 1.391 . S
C600 C601 1.400 . S
C601 C595 1.491 . S
C601 C600 1.400 . S
C601 C602 1.398 . S
C602 H590 0.950 . S
C602 C601 1.398 . S
C602 C603 1.391 . S
C603 H591 0.950 . S
C603 C599 1.393 . S
C603 C602 1.391 . S
H604 C612 0.950 . S
H605 C617 0.950 . S
H606 C614 0.950 . S
H607 C616 0.950 . S
H608 C618 0.950 . S
H609 C620 0.950 . S
H610 C622 0.950 . S
H611 C623 0.950 . S
C612 H604 0.950 . S
C612 C613 1.386 . S
C612 C614 1.391 . S
C613 C612 1.386 . S
C613 C617 1.393 . S
C614 H606 0.950 . S
C614 C612 1.391 . S
C614 C615 1.400 . S
C615 C614 1.400 . S
C615 C616 1.398 . S
C615 C621 1.491 1_455 S
C616 H607 0.950 . S
C616 C615 1.398 . S
C616 C617 1.391 . S
C617 H605 0.950 . S
C617 C613 1.393 . S
C617 C616 1.391 . S
C618 H608 0.950 . S
C618 C619 1.386 . S
C618 C620 1.391 . S
C619 C618 1.386 . S
C619 C623 1.393 . S
C620 H609 0.950 . S
C620 C618 1.391 . S
C620 C621 1.400 . S
C621 C615 1.491 1_655 S
C621 C620 1.400 . S
C621 C622 1.398 . S
C622 H610 0.950 . S
C622 C621 1.398 . S
C622 C623 1.391 . S
C623 H611 0.950 . S
C623 C619 1.393 . S
C623 C622 1.391 . S
H624 C632 0.950 . S
H625 C637 0.950 . S
H626 C634 0.950 . S
H627 C636 0.950 . S
H628 C638 0.950 . S
H629 C640 0.950 . S
H630 C642 0.950 . S
H631 C643 0.950 . S
C632 H624 0.950 . S
C632 C633 1.386 . S
C632 C634 1.391 . S
C633 C632 1.386 . S
C633 C637 1.393 . S
C634 H626 0.950 . S
C634 C632 1.391 . S
C634 C635 1.400 . S
C635 C634 1.400 . S
C635 C636 1.398 . S
C635 C641 1.491 . S
C636 H627 0.950 . S
C636 C635 1.398 . S
C636 C637 1.391 . S
C637 H625 0.950 . S
C637 C633 1.393 . S
C637 C636 1.391 . S
C638 H628 0.950 . S
C638 C639 1.386 . S
C638 C640 1.391 . S
C639 C638 1.386 . S
C639 C643 1.393 . S
C640 H629 0.950 . S
C640 C638 1.391 . S
C640 C641 1.400 . S
C641 C635 1.491 . S
C641 C640 1.400 . S
C641 C642 1.398 . S
C642 H630 0.950 . S
C642 C641 1.398 . S
C642 C643 1.391 . S
C643 H631 0.950 . S
C643 C639 1.393 . S
C643 C642 1.391 . S
H644 C652 0.950 . S
H645 C657 0.950 . S
H646 C654 0.950 . S
H647 C656 0.950 . S
H648 C658 0.950 . S
H649 C660 0.950 . S
H650 C662 0.950 . S
H651 C663 0.950 . S
C652 H644 0.950 . S
C652 C653 1.386 . S
C652 C654 1.391 1_554 S
C653 C652 1.386 . S
C653 C657 1.393 . S
C654 H646 0.950 . S
C654 C652 1.391 1_556 S
C654 C655 1.400 . S
C655 C654 1.400 . S
C655 C656 1.398 . S
C655 C661 1.491 . S
C656 H647 0.950 . S
C656 C655 1.398 . S
C656 C657 1.391 1_556 S
C657 H645 0.950 . S
C657 C653 1.393 . S
C657 C656 1.391 1_554 S
C658 H648 0.950 . S
C658 C659 1.386 . S
C658 C660 1.391 . S
C659 C658 1.386 . S
C659 C663 1.393 . S
C660 H649 0.950 . S
C660 C658 1.391 . S
C660 C661 1.400 . S
C661 C655 1.491 . S
C661 C660 1.400 . S
C661 C662 1.398 . S
C662 H650 0.950 . S
C662 C661 1.398 . S
C662 C663 1.391 . S
C663 H651 0.950 . S
C663 C659 1.393 . S
C663 C662 1.391 . S
H664 C672 0.950 . S
H665 C677 0.950 1_556 S
H666 C674 0.950 . S
H667 C676 0.950 . S
H668 C678 0.950 . S
H669 C680 0.950 . S
H670 C682 0.950 . S
H671 C683 0.950 . S
C672 H664 0.950 . S
C672 C673 1.386 . S
C672 C674 1.391 1_556 S
C673 C672 1.386 . S
C673 C677 1.393 1_556 S
C674 H666 0.950 . S
C674 C672 1.391 1_554 S
C674 C675 1.400 . S
C675 C674 1.400 . S
C675 C676 1.398 . S
C675 C681 1.491 . S
C676 H667 0.950 . S
C676 C675 1.398 . S
C676 C677 1.391 . S
C677 H665 0.950 1_554 S
C677 C673 1.393 1_554 S
C677 C676 1.391 . S
C678 H668 0.950 . S
C678 C679 1.386 . S
C678 C680 1.391 . S
C679 C678 1.386 . S
C679 C683 1.393 . S
C680 H669 0.950 . S
C680 C678 1.391 . S
C680 C681 1.400 . S
C681 C675 1.491 . S
C681 C680 1.400 . S
C681 C682 1.398 . S
C682 H670 0.950 . S
C682 C681 1.398 . S
C682 C683 1.391 . S
C683 H671 0.950 . S
C683 C679 1.393 . S
C683 C682 1.391 . S
H684 C692 0.950 . S
H685 C697 0.950 . S
H686 C694 0.950 . S
H687 C696 0.950 . S
H688 C698 0.950 . S
H689 C700 0.950 . S
H690 C702 0.950 . S
H691 C703 0.950 . S
C692 H684 0.950 . S
C692 C693 1.386 . S
C692 C694 1.391 . S
C693 C692 1.386 . S
C693 C697 1.393 . S
C694 H686 0.950 . S
C694 C692 1.391 . S
C694 C695 1.400 . S
C695 C694 1.400 . S
C695 C696 1.398 . S
C695 C701 1.491 . S
C696 H687 0.950 . S
C696 C695 1.398 . S
C696 C697 1.391 . S
C697 H685 0.950 . S
C697 C693 1.393 . S
C697 C696 1.391 . S
C698 H688 0.950 . S
C698 C699 1.386 . S
C698 C700 1.391 . S
C699 C698 1.386 . S
C699 C703 1.393 . S
C700 H689 0.950 . S
C700 C698 1.391 . S
C700 C701 1.400 . S
C701 C695 1.491 . S
C701 C700 1.400 . S
C701 C702 1.398 . S
C702 H690 0.950 . S
C702 C701 1.398 . S
C702 C703 1.391 . S
C703 H691 0.950 . S
C703 C699 1.393 . S
C703 C702 1.391 . S
H704 C712 0.950 . S
H705 C717 0.950 . S
H706 C714 0.950 . S
H707 C716 0.950 . S
H708 C718 0.950 . S
H709 C720 0.950 . S
H710 C722 0.950 . S
H711 C723 0.950 . S
C712 H704 0.950 . S
C712 C713 1.386 . S
C712 C714 1.391 . S
C713 C712 1.386 . S
C713 C717 1.393 . S
C714 H706 0.950 . S
C714 C712 1.391 . S
C714 C715 1.400 . S
C715 C714 1.400 . S
C715 C716 1.398 . S
C715 C721 1.491 . S
C716 H707 0.950 . S
C716 C715 1.398 . S
C716 C717 1.391 . S
C717 H705 0.950 . S
C717 C713 1.393 . S
C717 C716 1.391 . S
C718 H708 0.950 . S
C718 C719 1.386 . S
C718 C720 1.391 . S
C719 C718 1.386 . S
C719 C723 1.393 . S
C720 H709 0.950 . S
C720 C718 1.391 . S
C720 C721 1.400 . S
C721 C715 1.491 . S
C721 C720 1.400 . S
C721 C722 1.398 . S
C722 H710 0.950 . S
C722 C721 1.398 . S
C722 C723 1.391 . S
C723 H711 0.950 . S
C723 C719 1.393 . S
C723 C722 1.391 . S
H724 C732 0.950 . S
H725 C737 0.950 . S
H726 C734 0.950 . S
H727 C736 0.950 . S
H728 C738 0.950 . S
H729 C740 0.950 . S
H730 C742 0.950 . S
H731 C743 0.950 . S
C732 H724 0.950 . S
C732 C733 1.386 . S
C732 C734 1.391 . S
C733 C732 1.386 . S
C733 C737 1.393 . S
C734 H726 0.950 . S
C734 C732 1.391 . S
C734 C735 1.400 . S
C735 C734 1.400 . S
C735 C736 1.398 . S
C735 C741 1.491 . S
C736 H727 0.950 . S
C736 C735 1.398 . S
C736 C737 1.391 . S
C737 H725 0.950 . S
C737 C733 1.393 . S
C737 C736 1.391 . S
C738 H728 0.950 . S
C738 C739 1.386 . S
C738 C740 1.391 . S
C739 C738 1.386 . S
C739 C743 1.393 . S
C740 H729 0.950 . S
C740 C738 1.391 . S
C740 C741 1.400 . S
C741 C735 1.491 . S
C741 C740 1.400 . S
C741 C742 1.398 . S
C742 H730 0.950 . S
C742 C741 1.398 . S
C742 C743 1.391 . S
C743 H731 0.950 . S
C743 C739 1.393 . S
C743 C742 1.391 . S
H744 C752 0.950 . S
H745 C757 0.950 1_556 S
H746 C754 0.950 . S
H747 C756 0.950 1_556 S
H748 C758 0.950 1_556 S
H749 C760 0.950 1_556 S
H750 C762 0.950 . S
H751 C763 0.950 . S
C752 H744 0.950 . S
C752 C753 1.386 . S
C752 C754 1.391 . S
C753 C752 1.386 . S
C753 C757 1.393 . S
C754 H746 0.950 . S
C754 C752 1.391 . S
C754 C755 1.400 . S
C755 C754 1.400 . S
C755 C756 1.398 . S
C755 C761 1.491 . S
C756 H747 0.950 1_554 S
C756 C755 1.398 . S
C756 C757 1.391 . S
C757 H745 0.950 1_554 S
C757 C753 1.393 . S
C757 C756 1.391 . S
C758 H748 0.950 1_554 S
C758 C759 1.386 . S
C758 C760 1.391 . S
C759 C758 1.386 . S
C759 C763 1.393 . S
C760 H749 0.950 1_554 S
C760 C758 1.391 . S
C760 C761 1.400 . S
C761 C755 1.491 . S
C761 C760 1.400 . S
C761 C762 1.398 . S
C762 H750 0.950 . S
C762 C761 1.398 . S
C762 C763 1.391 . S
C763 H751 0.950 . S
C763 C759 1.393 . S
C763 C762 1.391 . S
H764 C772 0.950 . S
H765 C777 0.950 . S
H766 C774 0.950 . S
H767 C776 0.950 . S
H768 C778 0.950 . S
H769 C780 0.950 . S
H770 C782 0.950 . S
H771 C783 0.950 . S
C772 H764 0.950 . S
C772 C773 1.386 . S
C772 C774 1.391 . S
C773 C772 1.386 . S
C773 C777 1.393 . S
C774 H766 0.950 . S
C774 C772 1.391 . S
C774 C775 1.400 . S
C775 C774 1.400 . S
C775 C776 1.398 . S
C775 C781 1.491 . S
C776 H767 0.950 . S
C776 C775 1.398 . S
C776 C777 1.391 . S
C777 H765 0.950 . S
C777 C773 1.393 . S
C777 C776 1.391 . S
C778 H768 0.950 . S
C778 C779 1.386 . S
C778 C780 1.391 . S
C779 C778 1.386 . S
C779 C783 1.393 . S
C780 H769 0.950 . S
C780 C778 1.391 . S
C780 C781 1.400 . S
C781 C775 1.491 . S
C781 C780 1.400 . S
C781 C782 1.398 . S
C782 H770 0.950 . S
C782 C781 1.398 . S
C782 C783 1.391 . S
C783 H771 0.950 . S
C783 C779 1.393 . S
C783 C782 1.391 . S
H784 C792 0.950 . S
H785 C797 0.950 . S
H786 C794 0.950 . S
H787 C796 0.950 . S
H788 C798 0.950 . S
H789 C800 0.950 . S
H790 C802 0.950 . S
H791 C803 0.950 . S
C792 H784 0.950 . S
C792 C793 1.386 . S
C792 C794 1.391 . S
C793 C792 1.386 . S
C793 C797 1.393 . S
C794 H786 0.950 . S
C794 C792 1.391 . S
C794 C795 1.400 . S
C795 C794 1.400 . S
C795 C796 1.398 . S
C795 C801 1.491 . S
C796 H787 0.950 . S
C796 C795 1.398 . S
C796 C797 1.391 . S
C797 H785 0.950 . S
C797 C793 1.393 . S
C797 C796 1.391 . S
C798 H788 0.950 . S
C798 C799 1.386 . S
C798 C800 1.391 . S
C799 C798 1.386 . S
C799 C803 1.393 . S
C800 H789 0.950 . S
C800 C798 1.391 . S
C800 C801 1.400 . S
C801 C795 1.491 . S
C801 C800 1.400 . S
C801 C802 1.398 . S
C802 H790 0.950 . S
C802 C801 1.398 . S
C802 C803 1.391 . S
C803 H791 0.950 . S
C803 C799 1.393 . S
C803 C802 1.391 . S
H804 C812 0.950 . S
H805 C817 0.950 . S
H806 C814 0.950 . S
H807 C816 0.950 . S
H808 C818 0.950 . S
H809 C820 0.950 . S
H810 C822 0.950 . S
H811 C823 0.950 . S
C812 H804 0.950 . S
C812 C813 1.386 . S
C812 C814 1.391 . S
C813 C812 1.386 . S
C813 C817 1.393 . S
C814 H806 0.950 . S
C814 C812 1.391 . S
C814 C815 1.400 . S
C815 C814 1.400 . S
C815 C816 1.398 . S
C815 C821 1.491 . S
C816 H807 0.950 . S
C816 C815 1.398 . S
C816 C817 1.391 . S
C817 H805 0.950 . S
C817 C813 1.393 . S
C817 C816 1.391 . S
C818 H808 0.950 . S
C818 C819 1.386 . S
C818 C820 1.391 . S
C819 C818 1.386 . S
C819 C823 1.393 . S
C820 H809 0.950 . S
C820 C818 1.391 . S
C820 C821 1.400 . S
C821 C815 1.491 . S
C821 C820 1.400 . S
C821 C822 1.398 . S
C822 H810 0.950 . S
C822 C821 1.398 . S
C822 C823 1.391 . S
C823 H811 0.950 . S
C823 C819 1.393 . S
C823 C822 1.391 . S
H824 C832 0.950 . S
H825 C837 0.950 . S
H826 C834 0.950 . S
H827 C836 0.950 . S
H828 C838 0.950 . S
H829 C840 0.950 . S
H830 C842 0.950 . S
H831 C843 0.950 . S
C832 H824 0.950 . S
C832 C833 1.386 . S
C832 C834 1.391 . S
C833 C832 1.386 . S
C833 C837 1.393 . S
C834 H826 0.950 . S
C834 C832 1.391 . S
C834 C835 1.400 . S
C835 C834 1.400 . S
C835 C836 1.398 . S
C835 C841 1.491 . S
C836 H827 0.950 . S
C836 C835 1.398 . S
C836 C837 1.391 . S
C837 H825 0.950 . S
C837 C833 1.393 . S
C837 C836 1.391 . S
C838 H828 0.950 . S
C838 C839 1.386 . S
C838 C840 1.391 . S
C839 C838 1.386 . S
C839 C843 1.393 . S
C840 H829 0.950 . S
C840 C838 1.391 . S
C840 C841 1.400 . S
C841 C835 1.491 . S
C841 C840 1.400 . S
C841 C842 1.398 . S
C842 H830 0.950 . S
C842 C841 1.398 . S
C842 C843 1.391 . S
C843 H831 0.950 . S
C843 C839 1.393 . S
C843 C842 1.391 . S
H844 C852 0.950 . S
H845 C857 0.950 1_554 S
H846 C854 0.950 . S
H847 C856 0.950 1_554 S
H848 C858 0.950 . S
H849 C860 0.950 . S
H850 C862 0.950 . S
H851 C863 0.950 . S
C852 H844 0.950 . S
C852 C853 1.386 . S
C852 C854 1.391 . S
C853 C852 1.386 . S
C853 C857 1.393 . S
C854 H846 0.950 . S
C854 C852 1.391 . S
C854 C855 1.400 . S
C855 C854 1.400 . S
C855 C856 1.398 . S
C855 C861 1.491 . S
C856 H847 0.950 1_556 S
C856 C855 1.398 . S
C856 C857 1.391 . S
C857 H845 0.950 1_556 S
C857 C853 1.393 . S
C857 C856 1.391 . S
C858 H848 0.950 . S
C858 C859 1.386 1_554 S
C858 C860 1.391 . S
C859 C858 1.386 1_556 S
C859 C863 1.393 . S
C860 H849 0.950 . S
C860 C858 1.391 . S
C860 C861 1.400 1_554 S
C861 C855 1.491 . S
C861 C860 1.400 1_556 S
C861 C862 1.398 . S
C862 H850 0.950 . S
C862 C861 1.398 . S
C862 C863 1.391 . S
C863 H851 0.950 . S
C863 C859 1.393 . S
C863 C862 1.391 . S
H864 C872 0.950 . S
H865 C877 0.950 . S
H866 C874 0.950 . S
H867 C876 0.950 . S
H868 C878 0.950 . S
H869 C880 0.950 . S
H870 C882 0.950 . S
H871 C883 0.950 . S
C872 H864 0.950 . S
C872 C873 1.386 . S
C872 C874 1.391 . S
C873 C872 1.386 . S
C873 C877 1.393 . S
C874 H866 0.950 . S
C874 C872 1.391 . S
C874 C875 1.400 . S
C875 C874 1.400 . S
C875 C876 1.398 . S
C875 C881 1.491 . S
C876 H867 0.950 . S
C876 C875 1.398 . S
C876 C877 1.391 . S
C877 H865 0.950 . S
C877 C873 1.393 . S
C877 C876 1.391 . S
C878 H868 0.950 . S
C878 C879 1.386 . S
C878 C880 1.391 . S
C879 C878 1.386 . S
C879 C883 1.393 . S
C880 H869 0.950 . S
C880 C878 1.391 . S
C880 C881 1.400 . S
C881 C875 1.491 . S
C881 C880 1.400 . S
C881 C882 1.398 . S
C882 H870 0.950 . S
C882 C881 1.398 . S
C882 C883 1.391 . S
C883 H871 0.950 . S
C883 C879 1.393 . S
C883 C882 1.391 . S
H884 C892 0.950 . S
H885 C897 0.950 . S
H886 C894 0.950 . S
H887 C896 0.950 . S
H888 C898 0.950 . S
H889 C900 0.950 . S
H890 C902 0.950 . S
H891 C903 0.950 . S
C892 H884 0.950 . S
C892 C893 1.386 . S
C892 C894 1.391 . S
C893 C892 1.386 . S
C893 C897 1.393 . S
C894 H886 0.950 . S
C894 C892 1.391 . S
C894 C895 1.400 . S
C895 C894 1.400 . S
C895 C896 1.398 . S
C895 C901 1.491 . S
C896 H887 0.950 . S
C896 C895 1.398 . S
C896 C897 1.391 . S
C897 H885 0.950 . S
C897 C893 1.393 . S
C897 C896 1.391 . S
C898 H888 0.950 . S
C898 C899 1.386 . S
C898 C900 1.391 . S
C899 C898 1.386 . S
C899 C903 1.393 . S
C900 H889 0.950 . S
C900 C898 1.391 . S
C900 C901 1.400 . S
C901 C895 1.491 . S
C901 C900 1.400 . S
C901 C902 1.398 . S
C902 H890 0.950 . S
C902 C901 1.398 . S
C902 C903 1.391 . S
C903 H891 0.950 . S
C903 C899 1.393 . S
C903 C902 1.391 . S
H904 C912 0.950 . S
H905 C917 0.950 . S
H906 C914 0.950 . S
H907 C916 0.950 . S
H908 C918 0.950 . S
H909 C920 0.950 . S
H910 C922 0.950 . S
H911 C923 0.950 . S
C912 H904 0.950 . S
C912 C913 1.386 . S
C912 C914 1.391 . S
C913 C912 1.386 . S
C913 C917 1.393 . S
C914 H906 0.950 . S
C914 C912 1.391 . S
C914 C915 1.400 . S
C915 C914 1.400 . S
C915 C916 1.398 . S
C915 C921 1.491 . S
C916 H907 0.950 . S
C916 C915 1.398 . S
C916 C917 1.391 . S
C917 H905 0.950 . S
C917 C913 1.393 . S
C917 C916 1.391 . S
C918 H908 0.950 . S
C918 C919 1.386 . S
C918 C920 1.391 . S
C919 C918 1.386 . S
C919 C923 1.393 . S
C920 H909 0.950 . S
C920 C918 1.391 . S
C920 C921 1.400 . S
C921 C915 1.491 . S
C921 C920 1.400 . S
C921 C922 1.398 . S
C922 H910 0.950 . S
C922 C921 1.398 . S
C922 C923 1.391 . S
C923 H911 0.950 . S
C923 C919 1.393 . S
C923 C922 1.391 . S
H924 C932 0.950 . S
H925 C937 0.950 . S
H926 C934 0.950 . S
H927 C936 0.950 . S
H928 C938 0.950 . S
H929 C940 0.950 . S
H930 C942 0.950 . S
H931 C943 0.950 . S
C932 H924 0.950 . S
C932 C933 1.386 . S
C932 C934 1.391 . S
C933 C932 1.386 . S
C933 C937 1.393 . S
C934 H926 0.950 . S
C934 C932 1.391 . S
C934 C935 1.400 . S
C935 C934 1.400 . S
C935 C936 1.398 . S
C935 C941 1.491 . S
C936 H927 0.950 . S
C936 C935 1.398 . S
C936 C937 1.391 . S
C937 H925 0.950 . S
C937 C933 1.393 . S
C937 C936 1.391 . S
C938 H928 0.950 . S
C938 C939 1.386 . S
C938 C940 1.391 . S
C939 C938 1.386 . S
C939 C943 1.393 . S
C940 H929 0.950 . S
C940 C938 1.391 . S
C940 C941 1.400 . S
C941 C935 1.491 . S
C941 C940 1.400 . S
C941 C942 1.398 . S
C942 H930 0.950 . S
C942 C941 1.398 . S
C942 C943 1.391 . S
C943 H931 0.950 . S
C943 C939 1.393 . S
C943 C942 1.391 . S
H944 C952 0.950 . S
H945 C957 0.950 . S
H946 C954 0.950 1_554 S
H947 C956 0.950 . S
H948 C958 0.950 . S
H949 C960 0.950 . S
H950 C962 0.950 . S
H951 C963 0.950 . S
C952 H944 0.950 . S
C952 C953 1.386 . S
C952 C954 1.391 . S
C953 C952 1.386 . S
C953 C957 1.393 . S
C954 H946 0.950 1_556 S
C954 C952 1.391 . S
C954 C955 1.400 . S
C955 C954 1.400 . S
C955 C956 1.398 . S
C955 C961 1.491 . S
C956 H947 0.950 . S
C956 C955 1.398 . S
C956 C957 1.391 . S
C957 H945 0.950 . S
C957 C953 1.393 . S
C957 C956 1.391 . S
C958 H948 0.950 . S
C958 C959 1.386 1_556 S
C958 C960 1.391 . S
C959 C958 1.386 1_554 S
C959 C963 1.393 . S
C960 H949 0.950 . S
C960 C958 1.391 . S
C960 C961 1.400 . S
C961 C955 1.491 . S
C961 C960 1.400 . S
C961 C962 1.398 1_556 S
C962 H950 0.950 . S
C962 C961 1.398 1_554 S
C962 C963 1.391 . S
C963 H951 0.950 . S
C963 C959 1.393 . S
C963 C962 1.391 . S
H964 C972 0.950 . S
H965 C977 0.950 . S
H966 C974 0.950 . S
H967 C976 0.950 . S
H968 C978 0.950 . S
H969 C980 0.950 . S
H970 C982 0.950 1_556 S
H971 C983 0.950 . S
C972 H964 0.950 . S
C972 C973 1.386 . S
C972 C974 1.391 . S
C973 C972 1.386 . S
C973 C977 1.393 . S
C974 H966 0.950 . S
C974 C972 1.391 . S
C974 C975 1.400 . S
C975 C974 1.400 . S
C975 C976 1.398 . S
C975 C981 1.491 . S
C976 H967 0.950 . S
C976 C975 1.398 . S
C976 C977 1.391 . S
C977 H965 0.950 . S
C977 C973 1.393 . S
C977 C976 1.391 . S
C978 H968 0.950 . S
C978 C979 1.386 . S
C978 C980 1.391 . S
C979 C978 1.386 . S
C979 C983 1.393 1_554 S
C980 H969 0.950 . S
C980 C978 1.391 . S
C980 C981 1.400 . S
C981 C975 1.491 . S
C981 C980 1.400 . S
C981 C982 1.398 . S
C982 H970 0.950 1_554 S
C982 C981 1.398 . S
C982 C983 1.391 1_554 S
C983 H971 0.950 . S
C983 C979 1.393 1_556 S
C983 C982 1.391 1_556 S
C273 C6 1.621 . S
C279 C8 1.631 . S
C293 C28 1.624 1_556 S
C299 C30 1.628 . S
C313 C52 1.631 . S
C319 C50 1.620 . S
C333 C72 1.626 . S
C339 C74 1.627 . S
C353 C96 1.633 . S
C359 C94 1.618 . S
C373 C116 1.627 . S
C379 C118 1.626 . S
C393 C139 1.624 . S
C399 C136 1.628 . S
C413 C158 1.627 . S
C419 C161 1.625 . S
C433 C180 1.629 . S
C439 C183 1.623 . S
C453 C202 1.624 . S
C459 C205 1.629 . S
C473 C227 1.622 . S
C479 C224 1.630 . S
C493 C246 1.634 . S
C499 C249 1.617 . S
C513 C4 1.453 1_556 S
C519 C162 1.450 . S
C533 C184 1.467 . S
C539 C26 1.472 . S
C553 C206 1.474 . S
C559 C48 1.476 . S
C573 C70 1.450 . S
C579 C228 1.453 . S
C593 C92 1.474 . S
C599 C250 1.469 . S
C613 C114 1.477 . S
C619 C140 1.475 . S
C633 C5 1.055 . S
C639 C229 1.057 . S
C653 C27 1.079 . S
C659 C251 1.077 . S
C673 C141 1.077 . S
C679 C49 1.080 . S
C693 C71 1.076 . S
C699 C163 1.049 . S
C713 C93 1.082 . S
C719 C185 1.074 . S
C733 C207 1.050 . S
C739 C115 1.065 . S
C753 C9 1.151 . S
C759 C181 1.145 . S
C773 C203 1.153 . S
C779 C31 1.157 . S
C793 C225 1.135 . S
C799 C53 1.139 . S
C813 C75 1.158 . S
C819 C247 1.155 . S
C833 C137 1.142 . S
C839 C97 1.137 . S
C853 C119 1.148 . S
C859 C159 1.153 . S
C873 C7 1.131 . S
C879 C226 1.164 . S
C893 C29 1.176 . S
C899 C248 1.144 . S
C913 C51 1.142 . S
C919 C138 1.176 . S
C933 C160 1.177 . S
C939 C73 1.149 . S
C953 C95 1.134 . S
C959 C182 1.170 . S
C973 C204 1.146 . S
C979 C117 1.177 1_554 S
