# Generated by pormake.
# Topology umg, (4)-cn, num edge types: 1
# Building blocks:
#     Node 0, Type 0, BuildingBlock: NAWXER_clean_sbu_0, # of connection points: 4
#     Node 1, Type 0, BuildingBlock: NAWXER_clean_sbu_0, # of connection points: 4
#     Node 2, Type 0, BuildingBlock: NAWXER_clean_sbu_0, # of connection points: 4
#     Node 3, Type 0, BuildingBlock: NAWXER_clean_sbu_0, # of connection points: 4
#     Node 4, Type 0, BuildingBlock: NAWXER_clean_sbu_0, # of connection points: 4
#     Node 5, Type 0, BuildingBlock: NAWXER_clean_sbu_0, # of connection points: 4
#     Node 6, Type 0, BuildingBlock: NAWXER_clean_sbu_0, # of connection points: 4
#     Node 7, Type 0, BuildingBlock: NAWXER_clean_sbu_0, # of connection points: 4
#     Node 8, Type 0, BuildingBlock: NAWXER_clean_sbu_0, # of connection points: 4
#     Node 9, Type 0, BuildingBlock: NAWXER_clean_sbu_0, # of connection points: 4
#     Node 10, Type 0, BuildingBlock: NAWXER_clean_sbu_0, # of connection points: 4
#     Node 11, Type 0, BuildingBlock: NAWXER_clean_sbu_0, # of connection points: 4
#     Edge 12, Type (0, 0), BuildingBlock: TEMPAE_clean_linker_10, # of connection points: 2
#     Edge 13, Type (0, 0), BuildingBlock: TEMPAE_clean_linker_10, # of connection points: 2
#     Edge 14, Type (0, 0), BuildingBlock: TEMPAE_clean_linker_10, # of connection points: 2
#     Edge 15, Type (0, 0), BuildingBlock: TEMPAE_clean_linker_10, # of connection points: 2
#     Edge 16, Type (0, 0), BuildingBlock: TEMPAE_clean_linker_10, # of connection points: 2
#     Edge 17, Type (0, 0), BuildingBlock: TEMPAE_clean_linker_10, # of connection points: 2
#     Edge 18, Type (0, 0), BuildingBlock: TEMPAE_clean_linker_10, # of connection points: 2
#     Edge 19, Type (0, 0), BuildingBlock: TEMPAE_clean_linker_10, # of connection points: 2
#     Edge 20, Type (0, 0), BuildingBlock: TEMPAE_clean_linker_10, # of connection points: 2
#     Edge 21, Type (0, 0), BuildingBlock: TEMPAE_clean_linker_10, # of connection points: 2
#     Edge 22, Type (0, 0), BuildingBlock: TEMPAE_clean_linker_10, # of connection points: 2
#     Edge 23, Type (0, 0), BuildingBlock: TEMPAE_clean_linker_10, # of connection points: 2
#     Edge 24, Type (0, 0), BuildingBlock: TEMPAE_clean_linker_10, # of connection points: 2
#     Edge 25, Type (0, 0), BuildingBlock: TEMPAE_clean_linker_10, # of connection points: 2
#     Edge 26, Type (0, 0), BuildingBlock: TEMPAE_clean_linker_10, # of connection points: 2
#     Edge 27, Type (0, 0), BuildingBlock: TEMPAE_clean_linker_10, # of connection points: 2
#     Edge 28, Type (0, 0), BuildingBlock: TEMPAE_clean_linker_10, # of connection points: 2
#     Edge 29, Type (0, 0), BuildingBlock: TEMPAE_clean_linker_10, # of connection points: 2
#     Edge 30, Type (0, 0), BuildingBlock: TEMPAE_clean_linker_10, # of connection points: 2
#     Edge 31, Type (0, 0), BuildingBlock: TEMPAE_clean_linker_10, # of connection points: 2
#     Edge 32, Type (0, 0), BuildingBlock: TEMPAE_clean_linker_10, # of connection points: 2
#     Edge 33, Type (0, 0), BuildingBlock: TEMPAE_clean_linker_10, # of connection points: 2
#     Edge 34, Type (0, 0), BuildingBlock: TEMPAE_clean_linker_10, # of connection points: 2
#     Edge 35, Type (0, 0), BuildingBlock: TEMPAE_clean_linker_10, # of connection points: 2
# Relax obj value: 0.016
# Max RMSD: 0.162
# Mean RMSD: 0.161
data_MOF--net-umg--node1-NAWXER_clean_sbu_0--edge1-TEMPAE_clean_linker_10
_symmetry_space_group_name_H-M    P1
_symmetry_Int_Tables_number       1
_symmetry_cell_setting            triclinic
loop_
_symmetry_equiv_pos_as_xyz
'x, y, z'
_cell_length_a     29.732918
_cell_length_b     29.724041
_cell_length_c     88.707907
_cell_angle_alpha  90.013284
_cell_angle_beta   89.975326
_cell_angle_gamma 120.00105
loop_
_atom_site_label
_atom_site_type_symbol
_atom_site_fract_x
_atom_site_fract_y
_atom_site_fract_z
_atom_type_partial_charge
C0 C 0.19121 0.53129 0.08718 0.0
C1 C 0.35616 0.53367 0.08907 0.0
O2 O 0.19899 0.49346 0.08928 0.0
Zn3 Zn 0.27379 0.53289 0.08858 0.0
O4 O 0.23005 0.57734 0.08561 0.0
Zn5 Zn 0.31376 0.61395 0.08563 0.0
O6 O 0.32972 0.64577 0.06616 0.0
O7 O 0.29021 0.55993 0.06535 0.0
O8 O 0.36269 0.57923 0.08682 0.0
O9 O 0.31067 0.49555 0.09105 0.0
O10 O 0.29134 0.57677 0.10907 0.0
O11 O 0.3344 0.65958 0.10289 0.0
C12 C 0.31134 0.60404 0.05857 0.0
C13 C 0.31457 0.6247 0.11297 0.0
C14 C 0.69964 0.31331 0.44611 0.0
C15 C 0.70802 0.31097 0.39141 0.0
O16 O 0.68284 0.33315 0.43655 0.0
Zn17 Zn 0.70569 0.3135 0.41877 0.0
O18 O 0.72337 0.28975 0.4415 0.0
Zn19 Zn 0.74499 0.27136 0.42006 0.0
O20 O 0.81996 0.30717 0.42042 0.0
O21 O 0.78885 0.36073 0.42044 0.0
O22 O 0.72811 0.28594 0.3975 0.0
O23 O 0.69134 0.33436 0.39968 0.0
O24 O 0.65664 0.22921 0.4185 0.0
O25 O 0.70904 0.19694 0.42092 0.0
C26 C 0.82765 0.35316 0.42079 0.0
C27 C 0.66344 0.18988 0.41955 0.0
C28 C 0.39161 0.6947 0.77967 0.0
C29 C 0.40888 0.7078 0.72511 0.0
O30 O 0.35599 0.67764 0.76978 0.0
Zn31 Zn 0.40041 0.7019 0.75225 0.0
O32 O 0.43922 0.71991 0.77549 0.0
Zn33 Zn 0.48169 0.74502 0.75475 0.0
O34 O 0.51749 0.81934 0.75676 0.0
O35 O 0.43321 0.78528 0.75303 0.0
O36 O 0.45325 0.73218 0.7317 0.0
O37 O 0.36763 0.68403 0.7329 0.0
O38 O 0.43883 0.6566 0.75243 0.0
O39 O 0.52262 0.7112 0.7555 0.0
C40 C 0.47837 0.82523 0.75496 0.0
C41 C 0.48538 0.66502 0.75378 0.0
C42 C 0.70576 0.38686 0.11252 0.0
C43 C 0.70949 0.40778 0.0581 0.0
O44 O 0.68607 0.35198 0.10244 0.0
Zn45 Zn 0.70684 0.3977 0.08517 0.0
O46 O 0.729 0.43479 0.10862 0.0
Zn47 Zn 0.74677 0.47875 0.08814 0.0
O48 O 0.70991 0.51608 0.09063 0.0
O49 O 0.65788 0.43239 0.08641 0.0
O50 O 0.73054 0.45184 0.06491 0.0
O51 O 0.69106 0.36602 0.06567 0.0
O52 O 0.79055 0.4343 0.08523 0.0
O53 O 0.82155 0.51818 0.08891 0.0
C54 C 0.66441 0.47796 0.08868 0.0
C55 C 0.82937 0.48036 0.08683 0.0
C56 C 0.31703 0.70378 0.44631 0.0
C57 C 0.30879 0.70556 0.39163 0.0
O58 O 0.33366 0.68367 0.43678 0.0
Zn59 Zn 0.31107 0.70339 0.41899 0.0
O60 O 0.29351 0.72751 0.44167 0.0
Zn61 Zn 0.27201 0.74576 0.42021 0.0
O62 O 0.19703 0.71016 0.42058 0.0
O63 O 0.2279 0.6564 0.42062 0.0
O64 O 0.28881 0.73079 0.39767 0.0
O65 O 0.32539 0.68223 0.39994 0.0
O66 O 0.36036 0.78766 0.41865 0.0
O67 O 0.30815 0.82019 0.42099 0.0
C68 C 0.18918 0.66412 0.42096 0.0
C69 C 0.35371 0.82708 0.41966 0.0
C70 C 0.52988 0.18728 0.75469 0.0
C71 C 0.53629 0.35417 0.75444 0.0
O72 O 0.49295 0.19643 0.75672 0.0
Zn73 Zn 0.53333 0.27118 0.75501 0.0
O74 O 0.57617 0.22518 0.75275 0.0
Zn75 Zn 0.61441 0.3085 0.75197 0.0
O76 O 0.66002 0.33016 0.7693 0.0
O77 O 0.57738 0.29368 0.77545 0.0
O78 O 0.58142 0.3593 0.75244 0.0
O79 O 0.4972 0.30935 0.7566 0.0
O80 O 0.56004 0.2849 0.73176 0.0
O81 O 0.64568 0.32184 0.73239 0.0
C82 C 0.6252 0.31578 0.77939 0.0
C83 C 0.60386 0.30425 0.72488 0.0
C84 C 0.48596 0.82478 0.58368 0.0
C85 C 0.47844 0.65751 0.58147 0.0
O86 O 0.52324 0.81588 0.58206 0.0
Zn87 Zn 0.48215 0.74109 0.58251 0.0
O88 O 0.43928 0.78669 0.58475 0.0
Zn89 Zn 0.40065 0.70297 0.58443 0.0
O90 O 0.36705 0.68593 0.60379 0.0
O91 O 0.45257 0.7244 0.60525 0.0
O92 O 0.43297 0.65218 0.58249 0.0
O93 O 0.5182 0.70264 0.58124 0.0
O94 O 0.44062 0.72462 0.56143 0.0
O95 O 0.35708 0.6851 0.5669 0.0
C96 C 0.408 0.70349 0.6117 0.0
C97 C 0.39311 0.70327 0.55712 0.0
C98 C 0.70502 0.39436 0.8899 0.0
C99 C 0.71171 0.40915 0.94462 0.0
O100 O 0.68801 0.35816 0.89963 0.0
Zn101 Zn 0.70812 0.40161 0.91728 0.0
O102 O 0.72809 0.44185 0.89431 0.0
Zn103 Zn 0.74988 0.48327 0.91545 0.0
O104 O 0.82434 0.52104 0.91406 0.0
O105 O 0.79173 0.43661 0.91725 0.0
O106 O 0.73628 0.45366 0.93817 0.0
O107 O 0.68828 0.36821 0.93669 0.0
O108 O 0.66092 0.43761 0.91561 0.0
O109 O 0.7142 0.52247 0.91517 0.0
C110 C 0.83112 0.48242 0.91578 0.0
C111 C 0.6683 0.48393 0.91507 0.0
C112 C 0.3091 0.7036 0.27839 0.0
C113 C 0.31358 0.70209 0.22361 0.0
O114 O 0.33219 0.68718 0.26991 0.0
Zn115 Zn 0.31266 0.70438 0.25089 0.0
O116 O 0.28483 0.7248 0.27257 0.0
Zn117 Zn 0.27042 0.74386 0.25049 0.0
O118 O 0.19596 0.70781 0.25034 0.0
O119 O 0.22862 0.65533 0.25001 0.0
O120 O 0.28912 0.72456 0.22857 0.0
O121 O 0.33378 0.68474 0.23289 0.0
O122 O 0.35966 0.7875 0.25 0.0
O123 O 0.30637 0.81888 0.25081 0.0
C124 C 0.1892 0.66212 0.24996 0.0
C125 C 0.35227 0.82643 0.25019 0.0
C126 C 0.60151 0.30529 0.61136 0.0
C127 C 0.6192 0.30972 0.55677 0.0
O128 O 0.6425 0.33022 0.60354 0.0
Zn129 Zn 0.61018 0.3091 0.58403 0.0
O130 O 0.55742 0.27911 0.60478 0.0
Zn131 Zn 0.52888 0.26431 0.58193 0.0
O132 O 0.49322 0.18992 0.5809 0.0
O133 O 0.57798 0.22536 0.58417 0.0
O134 O 0.57149 0.28459 0.56096 0.0
O135 O 0.65475 0.33061 0.56664 0.0
O136 O 0.57167 0.3536 0.58174 0.0
O137 O 0.48751 0.29779 0.58095 0.0
C138 C 0.53284 0.18486 0.58271 0.0
C139 C 0.52478 0.34435 0.58085 0.0
C140 C 0.31711 0.61723 0.89044 0.0
C141 C 0.31009 0.60275 0.94513 0.0
O142 O 0.33392 0.65351 0.90014 0.0
Zn143 Zn 0.31384 0.61013 0.91779 0.0
O144 O 0.29414 0.56977 0.89487 0.0
Zn145 Zn 0.27227 0.52844 0.91602 0.0
O146 O 0.19781 0.49054 0.91458 0.0
O147 O 0.23022 0.57496 0.9177 0.0
O148 O 0.28563 0.55818 0.93871 0.0
O149 O 0.33351 0.64363 0.93718 0.0
O150 O 0.36122 0.57433 0.91613 0.0
O151 O 0.30814 0.48942 0.91576 0.0
C152 C 0.19091 0.52911 0.91623 0.0
C153 C 0.35398 0.52807 0.91561 0.0
C154 C 0.70779 0.31016 0.27816 0.0
C155 C 0.70419 0.3105 0.22335 0.0
O156 O 0.6848 0.32638 0.26957 0.0
Zn157 Zn 0.70459 0.30874 0.25064 0.0
O158 O 0.7321 0.2888 0.27246 0.0
Zn159 Zn 0.74677 0.26918 0.25049 0.0
O160 O 0.82122 0.30513 0.25043 0.0
O161 O 0.78865 0.35769 0.24983 0.0
O162 O 0.72851 0.28809 0.22845 0.0
O163 O 0.68384 0.32805 0.23251 0.0
O164 O 0.65752 0.22562 0.24987 0.0
O165 O 0.71072 0.19416 0.25095 0.0
C166 C 0.82803 0.35084 0.24992 0.0
C167 C 0.66485 0.18666 0.2502 0.0
C168 C 0.35632 0.641 0.9693 0.0
C169 C 0.31087 0.60592 0.9617 0.0
C170 C 0.35822 0.64193 0.98513 0.0
C171 C 0.31299 0.60832 0.99345 0.0
C172 C 0.26655 0.57397 0.98576 0.0
C173 C 0.26636 0.5725 0.96996 0.0
C174 C 0.40888 0.67786 0.99292 0.0
C175 C 0.21706 0.53879 0.99421 0.0
C176 C 0.32205 0.57091 0.03381 0.0
C177 C 0.31327 0.6061 0.04197 0.0
C178 C 0.32368 0.57228 0.01799 0.0
C179 C 0.3143 0.60841 0.01021 0.0
C180 C 0.3049 0.64371 0.01845 0.0
C181 C 0.30546 0.64274 0.03427 0.0
C182 C 0.33545 0.53512 0.00962 0.0
C183 C 0.29297 0.68156 0.01057 0.0
H184 H 0.39086 0.66647 0.96287 0.0
H185 H 0.23111 0.54564 0.96402 0.0
H186 H 0.40408 0.70498 1.00044 0.0
H187 H 0.42063 0.65491 1.00011 0.0
H188 H 0.44066 0.70097 0.98481 0.0
H189 H 0.18353 0.51688 0.98652 0.0
H190 H 0.22226 0.51054 1.00108 0.0
H191 H 0.2077 0.56197 0.00209 0.0
H192 H 0.32849 0.54285 0.03981 0.0
H193 H 0.29818 0.66963 0.04062 0.0
H194 H 0.36842 0.55691 0.00176 0.0
H195 H 0.30142 0.50802 0.00275 0.0
H196 H 0.3453 0.51194 0.01736 0.0
H197 H 0.3256 0.70743 0.00307 0.0
H198 H 0.28591 0.70597 0.01864 0.0
H199 H 0.25805 0.66004 0.00336 0.0
C200 C 0.71219 0.35735 0.36753 0.0
C201 C 0.7044 0.31227 0.37487 0.0
C202 C 0.71189 0.35982 0.35172 0.0
C203 C 0.70173 0.31552 0.34313 0.0
C204 C 0.69188 0.26929 0.35056 0.0
C205 C 0.69429 0.26854 0.36634 0.0
C206 C 0.72423 0.41029 0.34421 0.0
C207 C 0.67939 0.22076 0.34184 0.0
C208 C 0.66146 0.30637 0.30203 0.0
C209 C 0.70686 0.3154 0.29465 0.0
C210 C 0.6592 0.30666 0.31786 0.0
C211 C 0.70398 0.31805 0.32638 0.0
C212 C 0.75056 0.32946 0.31888 0.0
C213 C 0.75113 0.32703 0.30311 0.0
C214 C 0.60842 0.29271 0.32546 0.0
C215 C 0.79959 0.34338 0.32752 0.0
H216 H 0.72037 0.39127 0.37416 0.0
H217 H 0.68774 0.23351 0.37205 0.0
H218 H 0.76007 0.42471 0.33735 0.0
H219 H 0.69248 0.4041 0.33641 0.0
H220 H 0.73005 0.44077 0.35249 0.0
H221 H 0.66823 0.18685 0.34935 0.0
H222 H 0.64714 0.21104 0.33383 0.0
H223 H 0.71364 0.22746 0.33511 0.0
H224 H 0.62713 0.29692 0.29545 0.0
H225 H 0.78637 0.33442 0.29735 0.0
H226 H 0.61377 0.32383 0.3334 0.0
H227 H 0.59488 0.25668 0.33216 0.0
H228 H 0.57766 0.28643 0.31723 0.0
H229 H 0.80831 0.37515 0.33563 0.0
H230 H 0.83362 0.35585 0.31997 0.0
H231 H 0.79416 0.30935 0.33414 0.0
C232 C 0.37017 0.66131 0.70104 0.0
C233 C 0.40608 0.70669 0.70853 0.0
C234 C 0.36884 0.65891 0.68523 0.0
C235 C 0.40296 0.70357 0.67678 0.0
C236 C 0.43827 0.74997 0.68435 0.0
C237 C 0.44007 0.75065 0.70016 0.0
C238 C 0.33191 0.60826 0.67757 0.0
C239 C 0.47411 0.79888 0.67576 0.0
C240 C 0.43927 0.69151 0.63656 0.0
C241 C 0.40486 0.70109 0.62827 0.0
C242 C 0.43794 0.69059 0.65237 0.0
C243 C 0.40268 0.70152 0.66003 0.0
C244 C 0.368 0.7115 0.65167 0.0
C245 C 0.36887 0.71021 0.63586 0.0
C246 C 0.47435 0.67809 0.66086 0.0
C247 C 0.33105 0.72497 0.65943 0.0
H248 H 0.34424 0.62718 0.70755 0.0
H249 H 0.46756 0.78585 0.706 0.0
H250 H 0.30525 0.6136 0.67002 0.0
H251 H 0.35411 0.59542 0.67045 0.0
H252 H 0.30834 0.57697 0.68578 0.0
H253 H 0.49668 0.83256 0.68335 0.0
H254 H 0.50177 0.79265 0.66892 0.0
H255 H 0.45138 0.80864 0.66784 0.0
H256 H 0.46688 0.68413 0.63065 0.0
H257 H 0.34266 0.71816 0.6294 0.0
H258 H 0.45209 0.64576 0.66888 0.0
H259 H 0.50214 0.71225 0.66757 0.0
H260 H 0.49676 0.66695 0.65321 0.0
H261 H 0.30492 0.69308 0.66711 0.0
H262 H 0.30691 0.7321 0.65129 0.0
H263 H 0.3533 0.76029 0.66644 0.0
C264 C 0.6988 0.4409 0.03333 0.0
C265 C 0.70771 0.40581 0.0415 0.0
C266 C 0.69731 0.4396 0.01752 0.0
C267 C 0.70697 0.40365 0.00973 0.0
C268 C 0.71652 0.36847 0.01797 0.0
C269 C 0.71581 0.36934 0.03379 0.0
C270 C 0.68536 0.47662 0.00915 0.0
C271 C 0.72876 0.33082 0.01009 0.0
C272 C 0.66532 0.37089 0.96879 0.0
C273 C 0.71077 0.40608 0.9612 0.0
C274 C 0.6633 0.37001 0.98462 0.0
C275 C 0.70839 0.40379 0.99296 0.0
C276 C 0.75483 0.43829 0.98528 0.0
C277 C 0.75515 0.4397 0.96948 0.0
C278 C 0.61264 0.33391 0.9924 0.0
C279 C 0.80419 0.47367 0.99375 0.0
H280 H 0.69215 0.46882 0.03934 0.0
H281 H 0.72319 0.34254 0.04014 0.0
H282 H 0.71938 0.50385 0.00229 0.0
H283 H 0.65247 0.45474 1.00127 0.0
H284 H 0.67531 0.49966 0.01689 0.0
H285 H 0.73596 0.30652 0.01815 0.0
H286 H 0.69622 0.30483 0.00258 0.0
H287 H 0.76368 0.3525 0.00289 0.0
H288 H 0.63089 0.34528 0.96235 0.0
H289 H 0.7904 0.46665 0.96355 0.0
H290 H 0.60072 0.35672 0.99959 0.0
H291 H 0.61752 0.30684 0.99991 0.0
H292 H 0.58093 0.31075 0.98427 0.0
H293 H 0.79874 0.50176 1.00062 0.0
H294 H 0.83773 0.49576 0.98608 0.0
H295 H 0.81369 0.45061 0.00163 0.0
C296 C 0.35525 0.70791 0.30232 0.0
C297 C 0.30994 0.69885 0.2949 0.0
C298 C 0.35746 0.70804 0.31815 0.0
C299 C 0.3127 0.69706 0.32663 0.0
C300 C 0.2662 0.68564 0.3191 0.0
C301 C 0.26569 0.68764 0.30331 0.0
C302 C 0.40815 0.72198 0.32579 0.0
C303 C 0.21719 0.67215 0.3277 0.0
C304 C 0.30429 0.65859 0.36786 0.0
C305 C 0.31231 0.7039 0.3751 0.0
C306 C 0.30454 0.65576 0.35205 0.0
C307 C 0.31488 0.69993 0.34338 0.0
C308 C 0.32493 0.74639 0.35071 0.0
C309 C 0.32257 0.74749 0.36649 0.0
C310 C 0.29198 0.60507 0.34464 0.0
C311 C 0.33762 0.79478 0.34189 0.0
H312 H 0.38957 0.71703 0.29577 0.0
H313 H 0.23052 0.68023 0.29752 0.0
H314 H 0.42176 0.75813 0.33244 0.0
H315 H 0.40266 0.69096 0.33379 0.0
H316 H 0.43894 0.72803 0.31759 0.0
H317 H 0.18322 0.65967 0.32013 0.0
H318 H 0.20828 0.64051 0.33588 0.0
H319 H 0.22276 0.70637 0.33424 0.0
H320 H 0.29599 0.62477 0.37455 0.0
H321 H 0.32928 0.7827 0.37213 0.0
H322 H 0.32373 0.61093 0.33689 0.0
H323 H 0.25622 0.59069 0.33775 0.0
H324 H 0.28592 0.57469 0.35299 0.0
H325 H 0.36989 0.80423 0.3339 0.0
H326 H 0.34886 0.82886 0.34933 0.0
H327 H 0.30345 0.78807 0.33513 0.0
C328 C 0.64154 0.2977 0.70041 0.0
C329 C 0.60545 0.30597 0.70827 0.0
C330 C 0.64219 0.29745 0.68458 0.0
C331 C 0.60713 0.30758 0.67649 0.0
C332 C 0.57153 0.31733 0.68443 0.0
C333 C 0.57049 0.31545 0.70025 0.0
C334 C 0.67953 0.2852 0.67653 0.0
C335 C 0.53462 0.32985 0.67624 0.0
C336 C 0.6395 0.3509 0.63566 0.0
C337 C 0.60417 0.30579 0.62795 0.0
C338 C 0.64059 0.35226 0.65149 0.0
C339 C 0.60683 0.30684 0.65972 0.0
C340 C 0.5721 0.26078 0.65193 0.0
C341 C 0.57055 0.2611 0.63613 0.0
C342 C 0.67698 0.40253 0.65941 0.0
C343 C 0.53666 0.21112 0.66027 0.0
H344 H 0.6683 0.28995 0.70665 0.0
H345 H 0.54289 0.32232 0.70636 0.0
H346 H 0.65764 0.25062 0.66921 0.0
H347 H 0.70562 0.31801 0.6691 0.0
H348 H 0.70371 0.27744 0.68448 0.0
H349 H 0.51168 0.33964 0.68409 0.0
H350 H 0.55658 0.36311 0.66848 0.0
H351 H 0.50732 0.29619 0.66927 0.0
H352 H 0.66519 0.38557 0.62931 0.0
H353 H 0.54355 0.22607 0.63013 0.0
H354 H 0.70407 0.39715 0.66676 0.0
H355 H 0.65443 0.41429 0.66677 0.0
H356 H 0.7001 0.43457 0.65136 0.0
H357 H 0.55972 0.20106 0.66797 0.0
H358 H 0.51424 0.17794 0.6525 0.0
H359 H 0.50887 0.2165 0.66731 0.0
C360 C 0.28522 0.70287 0.19711 0.0
C361 C 0.31714 0.69531 0.2072 0.0
C362 C 0.28626 0.69394 0.1816 0.0
C363 C 0.3205 0.67768 0.17605 0.0
C364 C 0.35388 0.67143 0.18612 0.0
C365 C 0.35157 0.67999 0.20159 0.0
C366 C 0.24966 0.70046 0.17123 0.0
C367 C 0.39134 0.6547 0.1806 0.0
C368 C 0.28555 0.60058 0.13963 0.0
C369 C 0.31683 0.63868 0.12908 0.0
C370 C 0.28621 0.61291 0.15491 0.0
C371 C 0.31943 0.66449 0.15983 0.0
C372 C 0.35142 0.70312 0.14929 0.0
C373 C 0.3495 0.68982 0.134 0.0
C374 C 0.25109 0.57073 0.16578 0.0
C375 C 0.38776 0.7584 0.15416 0.0
H376 H 0.25842 0.71458 0.20136 0.0
H377 H 0.37664 0.67444 0.20931 0.0
H378 H 0.27168 0.72766 0.16195 0.0
H379 H 0.22217 0.66256 0.166 0.0
H380 H 0.22692 0.71533 0.17723 0.0
H381 H 0.41694 0.65481 0.18974 0.0
H382 H 0.36944 0.61492 0.17583 0.0
H383 H 0.41598 0.68082 0.17144 0.0
H384 H 0.25994 0.56103 0.13592 0.0
H385 H 0.37388 0.71941 0.12592 0.0
H386 H 0.22486 0.58186 0.17149 0.0
H387 H 0.27461 0.56592 0.17466 0.0
H388 H 0.22702 0.53272 0.1601 0.0
H389 H 0.36534 0.77493 0.15943 0.0
H390 H 0.41055 0.78368 0.1446 0.0
H391 H 0.41513 0.75924 0.16281 0.0
C392 C 0.69912 0.28498 0.47268 0.0
C393 C 0.69087 0.31608 0.46244 0.0
C394 C 0.68894 0.28546 0.48811 0.0
C395 C 0.67065 0.3183 0.49346 0.0
C396 C 0.66334 0.35065 0.48323 0.0
C397 C 0.67322 0.34892 0.46783 0.0
C398 C 0.69667 0.24996 0.49864 0.0
C399 C 0.64445 0.38661 0.48855 0.0
C400 C 0.59438 0.28115 0.53008 0.0
C401 C 0.63238 0.31311 0.54055 0.0
C402 C 0.60633 0.28261 0.51473 0.0
C403 C 0.65738 0.31732 0.50967 0.0
C404 C 0.69577 0.35026 0.52013 0.0
C405 C 0.68289 0.34753 0.53547 0.0
C406 C 0.56446 0.24644 0.50395 0.0
C407 C 0.75047 0.38819 0.51512 0.0
H408 H 0.71259 0.25937 0.46861 0.0
H409 H 0.66704 0.3733 0.45999 0.0
H410 H 0.72387 0.27289 0.50782 0.0
H411 H 0.65914 0.22212 0.50399 0.0
H412 H 0.71219 0.22762 0.49274 0.0
H413 H 0.64319 0.41111 0.47929 0.0
H414 H 0.60491 0.3636 0.4934 0.0
H415 H 0.67014 0.41238 0.49761 0.0
H416 H 0.55531 0.25426 0.53391 0.0
H417 H 0.7124 0.37252 0.54348 0.0
H418 H 0.5764 0.22063 0.49837 0.0
H419 H 0.55891 0.26915 0.49496 0.0
H420 H 0.52665 0.22191 0.50968 0.0
H421 H 0.76847 0.36685 0.51004 0.0
H422 H 0.77532 0.41226 0.52458 0.0
H423 H 0.74986 0.41434 0.5063 0.0
C424 C 0.41782 0.69312 0.8063 0.0
C425 C 0.37889 0.68491 0.7959 0.0
C426 C 0.40661 0.68291 0.82169 0.0
C427 C 0.35533 0.66469 0.82686 0.0
C428 C 0.31597 0.65714 0.81648 0.0
C429 C 0.32814 0.66699 0.80109 0.0
C430 C 0.4495 0.69077 0.83237 0.0
C431 C 0.26099 0.63836 0.82162 0.0
C432 C 0.3178 0.59044 0.8638 0.0
C433 C 0.32493 0.6292 0.87413 0.0
C434 C 0.32688 0.60133 0.84836 0.0
C435 C 0.34281 0.65206 0.84308 0.0
C436 C 0.34894 0.6911 0.8534 0.0
C437 C 0.34029 0.6793 0.86883 0.0
C438 C 0.32062 0.55883 0.83774 0.0
C439 C 0.36527 0.74547 0.84815 0.0
H440 H 0.45709 0.70674 0.80238 0.0
H441 H 0.29794 0.66084 0.79312 0.0
H442 H 0.45394 0.71861 0.84137 0.0
H443 H 0.43938 0.65345 0.83794 0.0
H444 H 0.48743 0.70563 0.82656 0.0
H445 H 0.23543 0.63658 0.81223 0.0
H446 H 0.24443 0.59908 0.82666 0.0
H447 H 0.26068 0.66449 0.83051 0.0
H448 H 0.30614 0.55167 0.86781 0.0
H449 H 0.34556 0.70935 0.87674 0.0
H450 H 0.35835 0.57009 0.83225 0.0
H451 H 0.29268 0.55339 0.82867 0.0
H452 H 0.30675 0.52112 0.84359 0.0
H453 H 0.40483 0.76366 0.84322 0.0
H454 H 0.36543 0.77052 0.85747 0.0
H455 H 0.33872 0.74423 0.83917 0.0
C456 C 0.67049 0.32177 0.13357 0.0
C457 C 0.70326 0.37289 0.12865 0.0
C458 C 0.66822 0.30854 0.14887 0.0
C459 C 0.69995 0.34722 0.15944 0.0
C460 C 0.7333 0.39877 0.15451 0.0
C461 C 0.73431 0.41102 0.13921 0.0
C462 C 0.63176 0.25329 0.15375 0.0
C463 C 0.76816 0.44101 0.1654 0.0
C464 C 0.66671 0.33222 0.20113 0.0
C465 C 0.70099 0.31698 0.2069 0.0
C466 C 0.66477 0.34055 0.18563 0.0
C467 C 0.6984 0.33416 0.17569 0.0
C468 C 0.73249 0.31796 0.1814 0.0
C469 C 0.73315 0.30925 0.19693 0.0
C470 C 0.62747 0.35722 0.17994 0.0
C471 C 0.76935 0.31129 0.17117 0.0
H472 H 0.64628 0.29214 0.12548 0.0
H473 H 0.76 0.45056 0.1355 0.0
H474 H 0.65401 0.23682 0.15915 0.0
H475 H 0.60409 0.2525 0.16229 0.0
H476 H 0.60931 0.22792 0.14416 0.0
H477 H 0.79244 0.47897 0.15971 0.0
H478 H 0.7444 0.44595 0.17418 0.0
H479 H 0.79417 0.42987 0.17123 0.0
H480 H 0.64145 0.33789 0.20875 0.0
H481 H 0.75984 0.2976 0.2013 0.0
H482 H 0.6031 0.33102 0.17076 0.0
H483 H 0.64951 0.39696 0.17516 0.0
H484 H 0.60159 0.35716 0.18899 0.0
H485 H 0.74758 0.28405 0.16187 0.0
H486 H 0.79185 0.29641 0.17728 0.0
H487 H 0.79703 0.34915 0.16595 0.0
C488 C 0.32992 0.66868 0.53567 0.0
C489 C 0.38075 0.70091 0.54087 0.0
C490 C 0.31784 0.66676 0.52029 0.0
C491 C 0.35738 0.69838 0.50993 0.0
C492 C 0.40874 0.73097 0.51512 0.0
C493 C 0.41987 0.73156 0.53051 0.0
C494 C 0.26276 0.63102 0.51513 0.0
C495 C 0.45183 0.76576 0.50445 0.0
C496 C 0.34111 0.66654 0.46811 0.0
C497 C 0.32563 0.70099 0.46264 0.0
C498 C 0.3505 0.66446 0.48353 0.0
C499 C 0.34502 0.69819 0.49368 0.0
C500 C 0.32912 0.73283 0.48824 0.0
C501 C 0.31926 0.73355 0.4728 0.0
C502 C 0.36671 0.62651 0.48895 0.0
C503 C 0.3235 0.76987 0.49868 0.0
H504 H 0.29956 0.6447 0.5436 0.0
H505 H 0.45919 0.75677 0.53445 0.0
H506 H 0.24677 0.65404 0.50996 0.0
H507 H 0.26213 0.60411 0.50635 0.0
H508 H 0.23691 0.60772 0.52454 0.0
H509 H 0.48969 0.78879 0.51029 0.0
H510 H 0.45627 0.74213 0.49552 0.0
H511 H 0.44193 0.79296 0.49879 0.0
H512 H 0.3458 0.64104 0.46033 0.0
H513 H 0.30754 0.76045 0.46865 0.0
H514 H 0.33997 0.6014 0.49794 0.0
H515 H 0.40618 0.64794 0.49393 0.0
H516 H 0.36697 0.60137 0.47972 0.0
H517 H 0.29538 0.74794 0.50778 0.0
H518 H 0.31015 0.7939 0.49269 0.0
H519 H 0.36133 0.79615 0.50414 0.0
C520 C 0.70583 0.42129 0.86317 0.0
C521 C 0.69722 0.38225 0.87359 0.0
C522 C 0.69644 0.41024 0.84775 0.0
C523 C 0.67857 0.35901 0.84256 0.0
C524 C 0.67113 0.31969 0.85295 0.0
C525 C 0.68021 0.3317 0.86837 0.0
C526 C 0.70423 0.4531 0.83705 0.0
C527 C 0.65265 0.26475 0.84781 0.0
C528 C 0.60138 0.31933 0.80617 0.0
C529 C 0.63909 0.32546 0.79557 0.0
C530 C 0.6137 0.32974 0.82149 0.0
C531 C 0.66488 0.3461 0.8264 0.0
C532 C 0.70298 0.35152 0.81582 0.0
C533 C 0.68971 0.34146 0.80049 0.0
C534 C 0.57211 0.32411 0.83238 0.0
C535 C 0.7578 0.36833 0.82069 0.0
H536 H 0.71885 0.46043 0.86711 0.0
H537 H 0.67379 0.30141 0.87633 0.0
H538 H 0.73112 0.4568 0.82784 0.0
H539 H 0.66662 0.4434 0.83176 0.0
H540 H 0.7201 0.49126 0.8428 0.0
H541 H 0.65211 0.23955 0.85714 0.0
H542 H 0.61286 0.24761 0.84311 0.0
H543 H 0.67811 0.26461 0.83869 0.0
H544 H 0.56221 0.30721 0.80246 0.0
H545 H 0.71898 0.34604 0.79238 0.0
H546 H 0.58405 0.362 0.83787 0.0
H547 H 0.56702 0.29618 0.84143 0.0
H548 H 0.53407 0.31046 0.82676 0.0
H549 H 0.7761 0.40793 0.8256 0.0
H550 H 0.78224 0.36855 0.81118 0.0
H551 H 0.75741 0.34196 0.82961 0.0
C552 C 0.89441 0.45771 0.07723 0.0
C553 C 0.88271 0.48882 0.08643 0.0
C554 C 0.94472 0.46467 0.07685 0.0
C555 C 0.98372 0.50242 0.0863 0.0
C556 C 0.97188 0.5336 0.09574 0.0
C557 C 0.92168 0.52701 0.09549 0.0
C558 C 0.95618 0.43182 0.06628 0.0
C559 C 0.01195 0.57322 0.10629 0.0
C560 C 0.09869 0.48455 0.09568 0.0
C561 C 0.13788 0.52283 0.08669 0.0
C562 C 0.04848 0.47794 0.09582 0.0
C563 C 0.03686 0.50919 0.08636 0.0
C564 C 0.07609 0.54703 0.07698 0.0
C565 C 0.12639 0.55401 0.07746 0.0
C566 C 0.00814 0.43821 0.1063 0.0
C567 C 0.06489 0.57997 0.06638 0.0
H568 H 0.86434 0.4284 0.07014 0.0
H569 H 0.91248 0.55073 0.10272 0.0
H570 H 0.98922 0.45717 0.05881 0.0
H571 H 0.96781 0.40749 0.07282 0.0
H572 H 0.9222 0.40594 0.05917 0.0
H573 H 0.99612 0.59331 0.1132 0.0
H574 H 0.02665 0.55399 0.11397 0.0
H575 H 0.04564 0.60281 0.09977 0.0
H576 H 0.10771 0.46076 0.10293 0.0
H577 H 0.15664 0.58338 0.07042 0.0
H578 H 0.97462 0.40869 0.09972 0.0
H579 H 0.99325 0.45737 0.11394 0.0
H580 H 0.02381 0.41806 0.11324 0.0
H581 H 0.03204 0.55469 0.05884 0.0
H582 H 0.09904 0.60592 0.05932 0.0
H583 H 0.05309 0.60424 0.07289 0.0
C584 C 0.61792 0.09775 0.42829 0.0
C585 C 0.61832 0.13667 0.41929 0.0
C586 C 0.57469 0.04732 0.42848 0.0
C587 C 0.53168 0.03513 0.41903 0.0
C588 C 0.53248 0.07414 0.40966 0.0
C589 C 0.57544 0.12474 0.41012 0.0
C590 C 0.57467 0.00735 0.43899 0.0
C591 C 0.48819 0.06231 0.39906 0.0
C592 C 0.44179 0.89202 0.4102 0.0
C593 C 0.39892 0.88023 0.41938 0.0
C594 C 0.4848 0.94259 0.40971 0.0
C595 C 0.48567 0.9817 0.41905 0.0
C596 C 0.44269 0.96965 0.42852 0.0
C597 C 0.3994 0.91925 0.42835 0.0
C598 C 0.52906 0.95427 0.39911 0.0
C599 C 0.44279 0.00974 0.439 0.0
H600 H 0.65095 0.10714 0.43548 0.0
H601 H 0.57598 0.15479 0.40306 0.0
H602 H 0.54053 0.99202 0.44661 0.0
H603 H 0.57126 0.97402 0.43243 0.0
H604 H 0.61045 0.02351 0.44596 0.0
H605 H 0.49599 0.09629 0.39198 0.0
H606 H 0.481 0.0295 0.39155 0.0
H607 H 0.45207 0.05017 0.40557 0.0
H608 H 0.44118 0.86189 0.40316 0.0
H609 H 0.36639 0.90997 0.43555 0.0
H610 H 0.56521 0.96653 0.40561 0.0
H611 H 0.53621 0.98697 0.39156 0.0
H612 H 0.52124 0.92019 0.39207 0.0
H613 H 0.47698 0.02517 0.44659 0.0
H614 H 0.40706 0.99364 0.446 0.0
H615 H 0.44612 0.04297 0.43241 0.0
C616 C 0.49566 0.40411 0.76427 0.0
C617 C 0.53 0.40033 0.75424 0.0
C618 C 0.49005 0.44829 0.7644 0.0
C619 C 0.51802 0.48867 0.75386 0.0
C620 C 0.55217 0.48454 0.74354 0.0
C621 C 0.55848 0.44079 0.74405 0.0
C622 C 0.45449 0.45193 0.77589 0.0
C623 C 0.58132 0.52588 0.73181 0.0
C624 C 0.46173 0.57585 0.74532 0.0
C625 C 0.49507 0.62088 0.75343 0.0
C626 C 0.46957 0.53306 0.74505 0.0
C627 C 0.51082 0.53476 0.75349 0.0
C628 C 0.54453 0.58012 0.76175 0.0
C629 C 0.5367 0.62299 0.76143 0.0
C630 C 0.43368 0.48603 0.73576 0.0
C631 C 0.58809 0.58291 0.77119 0.0
H632 H 0.47402 0.37295 0.77224 0.0
H633 H 0.58475 0.43758 0.73622 0.0
H634 H 0.47611 0.4883 0.7825 0.0
H635 H 0.42223 0.45345 0.7701 0.0
H636 H 0.43767 0.41846 0.78379 0.0
H637 H 0.60538 0.5162 0.72438 0.0
H638 H 0.55347 0.53099 0.72471 0.0
H639 H 0.607 0.56369 0.73735 0.0
H640 H 0.42975 0.57431 0.73901 0.0
H641 H 0.56228 0.65763 0.7678 0.0
H642 H 0.41179 0.45192 0.74323 0.0
H643 H 0.4566 0.47643 0.72786 0.0
H644 H 0.4054 0.49209 0.72916 0.0
H645 H 0.57204 0.55147 0.77975 0.0
H646 H 0.61053 0.62081 0.77706 0.0
H647 H 0.61509 0.57676 0.76401 0.0
C648 C 0.48994 0.09274 0.57405 0.0
C649 C 0.52721 0.13264 0.58307 0.0
C650 C 0.48492 0.0432 0.57402 0.0
C651 C 0.5167 0.03291 0.58366 0.0
C652 C 0.55385 0.07295 0.59299 0.0
C653 C 0.55929 0.12266 0.59238 0.0
C654 C 0.44592 1.00201 0.56359 0.0
C655 C 0.58725 0.06308 0.60377 0.0
C656 C 0.4648 0.8908 0.59327 0.0
C657 C 0.49568 0.87854 0.58416 0.0
C658 C 0.47236 0.94133 0.59357 0.0
C659 C 0.51047 0.98 0.58412 0.0
C660 C 0.54168 0.96771 0.57485 0.0
C661 C 0.53449 0.91726 0.57518 0.0
C662 C 0.43944 0.95326 0.60397 0.0
C663 C 0.58162 0.00741 0.56428 0.0
H664 H 0.46546 0.10064 0.56674 0.0
H665 H 0.58785 0.15347 0.59945 0.0
H666 H 0.46555 0.98663 0.55632 0.0
H667 H 0.41609 0.96895 0.57025 0.0
H668 H 0.42606 0.01703 0.55627 0.0
H669 H 0.61331 0.09803 0.61053 0.0
H670 H 0.56224 0.03104 0.61158 0.0
H671 H 0.61138 0.05064 0.59746 0.0
H672 H 0.43503 0.86089 0.6003 0.0
H673 H 0.55804 0.9076 0.56803 0.0
H674 H 0.41454 0.96373 0.59726 0.0
H675 H 0.46464 0.98717 0.61119 0.0
H676 H 0.41408 0.91984 0.61134 0.0
H677 H 0.5624 0.02108 0.55625 0.0
H678 H 0.60251 0.99157 0.55776 0.0
H679 H 0.61048 0.04179 0.57071 0.0
C680 C 0.40076 0.48212 0.92369 0.0
C681 C 0.39913 0.52032 0.91488 0.0
C682 C 0.44503 0.47665 0.92375 0.0
C683 C 0.48765 0.50883 0.91431 0.0
C684 C 0.48535 0.54641 0.90504 0.0
C685 C 0.44149 0.55243 0.90568 0.0
C686 C 0.44669 0.43733 0.93417 0.0
C687 C 0.52909 0.58008 0.89441 0.0
C688 C 0.62183 0.52993 0.92339 0.0
C689 C 0.62325 0.49184 0.91446 0.0
C690 C 0.57759 0.53543 0.92361 0.0
C691 C 0.53478 0.50343 0.91422 0.0
C692 C 0.53688 0.46599 0.90482 0.0
C693 C 0.58072 0.45992 0.9053 0.0
C694 C 0.57615 0.57458 0.93416 0.0
C695 C 0.49294 0.43252 0.89423 0.0
H696 H 0.36808 0.4577 0.93092 0.0
H697 H 0.43991 0.58174 0.89879 0.0
H698 H 0.45142 0.40833 0.92754 0.0
H699 H 0.48072 0.45702 0.94179 0.0
H700 H 0.41098 0.41649 0.94113 0.0
H701 H 0.51986 0.60522 0.88731 0.0
H702 H 0.56493 0.60525 0.90089 0.0
H703 H 0.53762 0.55538 0.88691 0.0
H704 H 0.65464 0.55419 0.93059 0.0
H705 H 0.58214 0.43068 0.89832 0.0
H706 H 0.5423 0.55475 0.94185 0.0
H707 H 0.57123 0.60366 0.92764 0.0
H708 H 0.61201 0.59534 0.94105 0.0
H709 H 0.45723 0.4072 0.90076 0.0
H710 H 0.50204 0.40754 0.88701 0.0
H711 H 0.48423 0.45735 0.88685 0.0
C712 C 0.12504 0.57377 0.24062 0.0
C713 C 0.13623 0.61685 0.24962 0.0
C714 C 0.07467 0.53051 0.24011 0.0
C715 C 0.03522 0.52959 0.2493 0.0
C716 C 0.04669 0.57282 0.25859 0.0
C717 C 0.09688 0.6164 0.2584 0.0
C718 C 0.06357 0.48602 0.22966 0.0
C719 C 1.00623 0.57264 0.26892 0.0
C720 C 0.8926 0.43861 0.24031 0.0
C721 C 0.88103 0.39605 0.24959 0.0
C722 C 0.943 0.48183 0.23981 0.0
C723 C 0.98205 0.48327 0.24929 0.0
C724 C 0.97017 0.44058 0.25886 0.0
C725 C 0.91999 0.39699 0.25867 0.0
C726 C 0.95456 0.5257 0.22907 0.0
C727 C 0.01016 0.44134 0.26951 0.0
H728 H 0.1555 0.57441 0.23374 0.0
H729 H 0.10578 0.64963 0.26546 0.0
H730 H 0.0517 0.45016 0.23628 0.0
H731 H 0.03081 0.47822 0.22206 0.0
H732 H 0.09781 0.49401 0.22268 0.0
H733 H 0.02193 0.60857 0.27582 0.0
H734 H 0.97299 0.56881 0.26224 0.0
H735 H 0.99093 0.53868 0.27661 0.0
H736 H 0.86243 0.43758 0.23321 0.0
H737 H 0.91076 0.36416 0.26594 0.0
H738 H 0.98766 0.53308 0.22166 0.0
H739 H 0.96614 0.56193 0.23546 0.0
H740 H 0.92064 0.5173 0.22188 0.0
H741 H 0.0437 0.44481 0.26305 0.0
H742 H 0.99415 0.40581 0.27659 0.0
H743 H 0.02513 0.47574 0.27702 0.0
C744 C 0.5759 0.45539 0.07979 0.0
C745 C 0.61921 0.48598 0.08887 0.0
C746 C 0.53311 0.4633 0.07959 0.0
C747 C 0.53295 0.50155 0.08909 0.0
C748 C 0.57628 0.5319 0.09849 0.0
C749 C 0.61929 0.52434 0.09808 0.0
C750 C 0.4884 0.43123 0.06907 0.0
C751 C 0.57699 0.57198 0.1091 0.0
C752 C 0.44456 0.55628 0.08005 0.0
C753 C 0.40135 0.52561 0.08916 0.0
C754 C 0.48731 0.54832 0.07974 0.0
C755 C 0.48754 0.50993 0.08915 0.0
C756 C 0.44431 0.47949 0.09858 0.0
C757 C 0.40133 0.48711 0.09828 0.0
C758 C 0.53191 0.5805 0.06918 0.0
C759 C 0.44368 0.43925 0.1091 0.0
H760 H 0.576 0.42601 0.07256 0.0
H761 H 0.65262 0.54776 0.10519 0.0
H762 H 0.45221 0.40803 0.07563 0.0
H763 H 0.48187 0.45716 0.06151 0.0
H764 H 0.49533 0.40434 0.06204 0.0
H765 H 0.61276 0.59091 0.11609 0.0
H766 H 0.57431 0.60243 0.10261 0.0
H767 H 0.54276 0.55352 0.1167 0.0
H768 H 0.44441 0.58575 0.07288 0.0
H769 H 0.36807 0.46362 0.10542 0.0
H770 H 0.53837 0.55465 0.06156 0.0
H771 H 0.56817 0.60362 0.07572 0.0
H772 H 0.52492 0.60747 0.06222 0.0
H773 H 0.4463 0.40889 0.10254 0.0
H774 H 0.40797 0.42023 0.11612 0.0
H775 H 0.47797 0.4576 0.11667 0.0
C776 C 0.92017 0.39903 0.41245 0.0
C777 C 0.88088 0.39797 0.42142 0.0
C778 C 0.97031 0.44277 0.41234 0.0
C779 C 0.98181 0.48544 0.42189 0.0
C780 C 0.94247 0.48374 0.4313 0.0
C781 C 0.89214 0.44044 0.4307 0.0
C782 C 0.01061 0.44379 0.40176 0.0
C783 C 0.95361 0.5275 0.44205 0.0
C784 C 0.12467 0.57639 0.4306 0.0
C785 C 0.13587 0.61939 0.42157 0.0
C786 C 0.07431 0.53311 0.43114 0.0
C787 C 0.03486 0.53201 0.42193 0.0
C788 C 0.04628 0.57524 0.41265 0.0
C789 C 0.09646 0.6189 0.41281 0.0
C790 C 0.06329 0.48871 0.44162 0.0
C791 C 1.00583 0.57489 0.40228 0.0
H792 H 0.91118 0.36631 0.40516 0.0
H793 H 0.8617 0.43934 0.43771 0.0
H794 H 0.02542 0.4781 0.39422 0.0
H795 H 0.04418 0.4476 0.40826 0.0
H796 H 0.99493 0.40821 0.39471 0.0
H797 H 0.91958 0.51877 0.44923 0.0
H798 H 0.98679 0.53521 0.44945 0.0
H799 H 0.96485 0.56366 0.43565 0.0
H800 H 0.15519 0.57701 0.43745 0.0
H801 H 0.10538 0.65203 0.40571 0.0
H802 H 0.05202 0.45296 0.435 0.0
H803 H 0.03017 0.48052 0.44912 0.0
H804 H 0.09739 0.49702 0.4487 0.0
H805 H 0.99096 0.5411 0.39454 0.0
H806 H 0.0214 0.61093 0.39544 0.0
H807 H 0.97233 0.57061 0.40893 0.0
C808 C 0.54994 0.12039 0.7452 0.0
C809 C 0.52009 0.13345 0.7545 0.0
C810 C 0.54185 0.06967 0.74496 0.0
C811 C 0.50423 0.03158 0.75465 0.0
C812 C 0.47422 0.04472 0.76416 0.0
C813 C 0.48191 0.09537 0.76378 0.0
C814 C 0.57351 0.05684 0.73431 0.0
C815 C 0.43481 0.00562 0.77496 0.0
C816 C 0.45247 0.88865 0.74605 0.0
C817 C 0.48468 0.87776 0.755 0.0
C818 C 0.45868 0.93869 0.74572 0.0
C819 C 0.49686 0.97821 0.75495 0.0
C820 C 0.52875 0.96702 0.76425 0.0
C821 C 0.52285 0.91711 0.76397 0.0
C822 C 0.42505 0.94949 0.73529 0.0
C823 C 0.56891 0.00768 0.77456 0.0
H824 H 0.57919 0.14977 0.73792 0.0
H825 H 0.45913 0.10562 0.77107 0.0
H826 H 0.59807 0.04542 0.74082 0.0
H827 H 0.54738 0.0233 0.72711 0.0
H828 H 0.59909 0.09012 0.72692 0.0
H829 H 0.41525 0.02224 0.78177 0.0
H830 H 0.40482 0.97154 0.76867 0.0
H831 H 0.45413 0.99127 0.78273 0.0
H832 H 0.4232 0.85831 0.73901 0.0
H833 H 0.54748 0.90855 0.771 0.0
H834 H 0.44989 0.98124 0.72738 0.0
H835 H 0.40211 0.96274 0.74187 0.0
H836 H 0.39786 0.91474 0.72863 0.0
H837 H 0.59873 0.04046 0.76781 0.0
H838 H 0.58863 0.99195 0.78167 0.0
H839 H 0.55036 0.02365 0.78205 0.0
C840 C 0.52283 0.60918 0.58942 0.0
C841 C 0.48438 0.61121 0.58085 0.0
C842 C 0.52767 0.56455 0.58941 0.0
C843 C 0.49464 0.52189 0.58011 0.0
C844 C 0.45649 0.52437 0.57115 0.0
C845 C 0.45108 0.56865 0.57188 0.0
C846 C 0.56761 0.56277 0.59952 0.0
C847 C 0.42189 0.48059 0.56066 0.0
C848 C 0.54517 0.43043 0.57062 0.0
C849 C 0.51474 0.38804 0.58001 0.0
C850 C 0.53763 0.47341 0.57011 0.0
C851 C 0.50032 0.47488 0.57972 0.0
C852 C 0.46959 0.43207 0.58927 0.0
C853 C 0.47648 0.38862 0.58907 0.0
C854 C 0.5698 0.51733 0.55935 0.0
C855 C 0.43073 0.4329 0.60006 0.0
H856 H 0.54818 0.64201 0.59647 0.0
H857 H 0.42156 0.57052 0.56519 0.0
H858 H 0.54856 0.52824 0.60699 0.0
H859 H 0.59662 0.55891 0.59263 0.0
H860 H 0.58838 0.5981 0.60664 0.0
H861 H 0.3957 0.48953 0.55399 0.0
H862 H 0.44599 0.47255 0.55276 0.0
H863 H 0.39781 0.44454 0.56719 0.0
H864 H 0.57457 0.42969 0.56356 0.0
H865 H 0.45339 0.35594 0.59645 0.0
H866 H 0.5959 0.55302 0.56578 0.0
H867 H 0.54416 0.52608 0.55236 0.0
H868 H 0.59389 0.5082 0.55176 0.0
H869 H 0.45085 0.46631 0.60789 0.0
H870 H 0.41018 0.39665 0.60681 0.0
H871 H 0.4015 0.43826 0.59379 0.0
C872 C 0.09893 0.4835 0.90738 0.0
C873 C 0.13799 0.52158 0.91644 0.0
C874 C 0.04895 0.47739 0.90707 0.0
C875 C 0.03746 0.50892 0.91645 0.0
C876 C 0.07656 0.54663 0.92588 0.0
C877 C 0.12666 0.55313 0.92556 0.0
C878 C 0.00874 0.43781 0.89654 0.0
C879 C 0.0654 0.57984 0.93639 0.0
C880 C 0.92326 0.52781 0.90705 0.0
C881 C 0.88401 0.48987 0.9161 0.0
C882 C 0.97324 0.53391 0.90688 0.0
C883 C 0.98453 0.50252 0.91638 0.0
C884 C 0.9452 0.46494 0.92579 0.0
C885 C 0.89512 0.45845 0.92534 0.0
C886 C 0.01369 0.57334 0.89636 0.0
C887 C 0.95614 0.43191 0.93643 0.0
H888 H 0.10788 0.45942 0.90023 0.0
H889 H 0.15683 0.58231 0.93266 0.0
H890 H 0.97501 0.40837 0.90308 0.0
H891 H 0.99415 0.45712 0.88886 0.0
H892 H 0.02439 0.41754 0.88964 0.0
H893 H 0.09947 0.60573 0.94348 0.0
H894 H 0.05389 0.60418 0.92981 0.0
H895 H 0.03236 0.55473 0.9439 0.0
H896 H 0.91447 0.5518 0.89981 0.0
H897 H 0.86479 0.42939 0.93243 0.0
H898 H 0.02847 0.55392 0.88878 0.0
H899 H 0.04726 0.60289 0.90292 0.0
H900 H 0.99818 0.59348 0.88935 0.0
H901 H 0.96782 0.40748 0.92996 0.0
H902 H 0.9219 0.4061 0.94348 0.0
H903 H 0.98899 0.45713 0.94398 0.0
C904 C 0.39819 0.91889 0.25863 0.0
C905 C 0.39726 0.87955 0.24973 0.0
C906 C 0.44214 0.96888 0.25888 0.0
C907 C 0.4852 0.9801 0.24954 0.0
C908 C 0.48371 0.94071 0.2402 0.0
C909 C 0.44012 0.89059 0.24065 0.0
C910 C 0.44292 0.00933 0.26934 0.0
C911 C 0.52796 0.95157 0.22969 0.0
C912 C 0.5772 0.12242 0.24057 0.0
C913 C 0.61983 0.13355 0.24975 0.0
C914 C 0.53361 0.0723 0.24012 0.0
C915 C 0.53187 0.03301 0.24954 0.0
C916 C 0.5747 0.04434 0.25899 0.0
C917 C 0.61867 0.09431 0.25876 0.0
C918 C 0.48962 0.06132 0.22949 0.0
C919 C 0.57364 1.004 0.26956 0.0
H920 H 0.36516 0.91009 0.26577 0.0
H921 H 0.43914 0.86012 0.23368 0.0
H922 H 0.47683 0.02397 0.27702 0.0
H923 H 0.44729 0.043 0.26276 0.0
H924 H 0.40702 0.99386 0.27624 0.0
H925 H 0.51951 0.91741 0.2226 0.0
H926 H 0.53613 0.98468 0.22218 0.0
H927 H 0.56376 0.96283 0.23626 0.0
H928 H 0.57836 0.1528 0.23352 0.0
H929 H 0.65152 0.10319 0.26597 0.0
H930 H 0.45365 0.05011 0.23597 0.0
H931 H 0.48166 0.02814 0.22203 0.0
H932 H 0.49824 0.09541 0.22234 0.0
H933 H 0.53952 0.98943 0.27716 0.0
H934 H 0.60935 0.01956 0.27654 0.0
H935 H 0.56947 0.97027 0.26305 0.0
loop_
_geom_bond_atom_site_label_1
_geom_bond_atom_site_label_2
_geom_bond_distance
_geom_bond_site_symmetry_2
_ccdc_geom_bond_type
C0 O2 1.247 . S
C0 O4 1.258 . S
C1 O8 1.247 . S
C1 O9 1.258 . S
O2 C0 1.247 . S
O2 Zn3 2.028 . S
Zn3 O2 2.028 . S
Zn3 O7 2.035 . S
Zn3 O9 2.035 . S
Zn3 O10 2.028 . S
O4 C0 1.258 . S
O4 Zn5 2.035 . S
Zn5 O4 2.035 . S
Zn5 O6 2.028 . S
Zn5 O8 2.028 . S
Zn5 O11 2.035 . S
O6 Zn5 2.028 . S
O6 C12 1.247 . S
O7 Zn3 2.035 . S
O7 C12 1.258 . S
O8 C1 1.247 . S
O8 Zn5 2.028 . S
O9 C1 1.258 . S
O9 Zn3 2.035 . S
O10 Zn3 2.028 . S
O10 C13 1.247 . S
O11 Zn5 2.035 . S
O11 C13 1.258 . S
C12 O6 1.247 . S
C12 O7 1.258 . S
C13 O10 1.247 . S
C13 O11 1.258 . S
C14 O16 1.247 . S
C14 O18 1.258 . S
C15 O22 1.247 . S
C15 O23 1.258 . S
O16 C14 1.247 . S
O16 Zn17 2.028 . S
Zn17 O16 2.028 . S
Zn17 O21 2.035 . S
Zn17 O23 2.035 . S
Zn17 O24 2.028 . S
O18 C14 1.258 . S
O18 Zn19 2.035 . S
Zn19 O18 2.035 . S
Zn19 O20 2.028 . S
Zn19 O22 2.028 . S
Zn19 O25 2.035 . S
O20 Zn19 2.028 . S
O20 C26 1.247 . S
O21 Zn17 2.035 . S
O21 C26 1.258 . S
O22 C15 1.247 . S
O22 Zn19 2.028 . S
O23 C15 1.258 . S
O23 Zn17 2.035 . S
O24 Zn17 2.028 . S
O24 C27 1.247 . S
O25 Zn19 2.035 . S
O25 C27 1.258 . S
C26 O20 1.247 . S
C26 O21 1.258 . S
C27 O24 1.247 . S
C27 O25 1.258 . S
C28 O30 1.247 . S
C28 O32 1.258 . S
C29 O36 1.247 . S
C29 O37 1.258 . S
O30 C28 1.247 . S
O30 Zn31 2.028 . S
Zn31 O30 2.028 . S
Zn31 O35 2.035 . S
Zn31 O37 2.035 . S
Zn31 O38 2.028 . S
O32 C28 1.258 . S
O32 Zn33 2.035 . S
Zn33 O32 2.035 . S
Zn33 O34 2.028 . S
Zn33 O36 2.028 . S
Zn33 O39 2.035 . S
O34 Zn33 2.028 . S
O34 C40 1.247 . S
O35 Zn31 2.035 . S
O35 C40 1.258 . S
O36 C29 1.247 . S
O36 Zn33 2.028 . S
O37 C29 1.258 . S
O37 Zn31 2.035 . S
O38 Zn31 2.028 . S
O38 C41 1.247 . S
O39 Zn33 2.035 . S
O39 C41 1.258 . S
C40 O34 1.247 . S
C40 O35 1.258 . S
C41 O38 1.247 . S
C41 O39 1.258 . S
C42 O44 1.247 . S
C42 O46 1.258 . S
C43 O50 1.247 . S
C43 O51 1.258 . S
O44 C42 1.247 . S
O44 Zn45 2.028 . S
Zn45 O44 2.028 . S
Zn45 O49 2.035 . S
Zn45 O51 2.035 . S
Zn45 O52 2.028 . S
O46 C42 1.258 . S
O46 Zn47 2.035 . S
Zn47 O46 2.035 . S
Zn47 O48 2.028 . S
Zn47 O50 2.028 . S
Zn47 O53 2.035 . S
O48 Zn47 2.028 . S
O48 C54 1.247 . S
O49 Zn45 2.035 . S
O49 C54 1.258 . S
O50 C43 1.247 . S
O50 Zn47 2.028 . S
O51 C43 1.258 . S
O51 Zn45 2.035 . S
O52 Zn45 2.028 . S
O52 C55 1.247 . S
O53 Zn47 2.035 . S
O53 C55 1.258 . S
C54 O48 1.247 . S
C54 O49 1.258 . S
C55 O52 1.247 . S
C55 O53 1.258 . S
C56 O58 1.247 . S
C56 O60 1.258 . S
C57 O64 1.247 . S
C57 O65 1.258 . S
O58 C56 1.247 . S
O58 Zn59 2.028 . S
Zn59 O58 2.028 . S
Zn59 O63 2.035 . S
Zn59 O65 2.035 . S
Zn59 O66 2.028 . S
O60 C56 1.258 . S
O60 Zn61 2.035 . S
Zn61 O60 2.035 . S
Zn61 O62 2.028 . S
Zn61 O64 2.028 . S
Zn61 O67 2.035 . S
O62 Zn61 2.028 . S
O62 C68 1.247 . S
O63 Zn59 2.035 . S
O63 C68 1.258 . S
O64 C57 1.247 . S
O64 Zn61 2.028 . S
O65 C57 1.258 . S
O65 Zn59 2.035 . S
O66 Zn59 2.028 . S
O66 C69 1.247 . S
O67 Zn61 2.035 . S
O67 C69 1.258 . S
C68 O62 1.247 . S
C68 O63 1.258 . S
C69 O66 1.247 . S
C69 O67 1.258 . S
C70 O72 1.247 . S
C70 O74 1.258 . S
C71 O78 1.247 . S
C71 O79 1.258 . S
O72 C70 1.247 . S
O72 Zn73 2.028 . S
Zn73 O72 2.028 . S
Zn73 O77 2.035 . S
Zn73 O79 2.035 . S
Zn73 O80 2.028 . S
O74 C70 1.258 . S
O74 Zn75 2.035 . S
Zn75 O74 2.035 . S
Zn75 O76 2.028 . S
Zn75 O78 2.028 . S
Zn75 O81 2.035 . S
O76 Zn75 2.028 . S
O76 C82 1.247 . S
O77 Zn73 2.035 . S
O77 C82 1.258 . S
O78 C71 1.247 . S
O78 Zn75 2.028 . S
O79 C71 1.258 . S
O79 Zn73 2.035 . S
O80 Zn73 2.028 . S
O80 C83 1.247 . S
O81 Zn75 2.035 . S
O81 C83 1.258 . S
C82 O76 1.247 . S
C82 O77 1.258 . S
C83 O80 1.247 . S
C83 O81 1.258 . S
C84 O86 1.247 . S
C84 O88 1.258 . S
C85 O92 1.247 . S
C85 O93 1.258 . S
O86 C84 1.247 . S
O86 Zn87 2.028 . S
Zn87 O86 2.028 . S
Zn87 O91 2.035 . S
Zn87 O93 2.035 . S
Zn87 O94 2.028 . S
O88 C84 1.258 . S
O88 Zn89 2.035 . S
Zn89 O88 2.035 . S
Zn89 O90 2.028 . S
Zn89 O92 2.028 . S
Zn89 O95 2.035 . S
O90 Zn89 2.028 . S
O90 C96 1.247 . S
O91 Zn87 2.035 . S
O91 C96 1.258 . S
O92 C85 1.247 . S
O92 Zn89 2.028 . S
O93 C85 1.258 . S
O93 Zn87 2.035 . S
O94 Zn87 2.028 . S
O94 C97 1.247 . S
O95 Zn89 2.035 . S
O95 C97 1.258 . S
C96 O90 1.247 . S
C96 O91 1.258 . S
C97 O94 1.247 . S
C97 O95 1.258 . S
C98 O100 1.247 . S
C98 O102 1.258 . S
C99 O106 1.247 . S
C99 O107 1.258 . S
O100 C98 1.247 . S
O100 Zn101 2.028 . S
Zn101 O100 2.028 . S
Zn101 O105 2.035 . S
Zn101 O107 2.035 . S
Zn101 O108 2.028 . S
O102 C98 1.258 . S
O102 Zn103 2.035 . S
Zn103 O102 2.035 . S
Zn103 O104 2.028 . S
Zn103 O106 2.028 . S
Zn103 O109 2.035 . S
O104 Zn103 2.028 . S
O104 C110 1.247 . S
O105 Zn101 2.035 . S
O105 C110 1.258 . S
O106 C99 1.247 . S
O106 Zn103 2.028 . S
O107 C99 1.258 . S
O107 Zn101 2.035 . S
O108 Zn101 2.028 . S
O108 C111 1.247 . S
O109 Zn103 2.035 . S
O109 C111 1.258 . S
C110 O104 1.247 . S
C110 O105 1.258 . S
C111 O108 1.247 . S
C111 O109 1.258 . S
C112 O114 1.247 . S
C112 O116 1.258 . S
C113 O120 1.247 . S
C113 O121 1.258 . S
O114 C112 1.247 . S
O114 Zn115 2.028 . S
Zn115 O114 2.028 . S
Zn115 O119 2.035 . S
Zn115 O121 2.035 . S
Zn115 O122 2.028 . S
O116 C112 1.258 . S
O116 Zn117 2.035 . S
Zn117 O116 2.035 . S
Zn117 O118 2.028 . S
Zn117 O120 2.028 . S
Zn117 O123 2.035 . S
O118 Zn117 2.028 . S
O118 C124 1.247 . S
O119 Zn115 2.035 . S
O119 C124 1.258 . S
O120 C113 1.247 . S
O120 Zn117 2.028 . S
O121 C113 1.258 . S
O121 Zn115 2.035 . S
O122 Zn115 2.028 . S
O122 C125 1.247 . S
O123 Zn117 2.035 . S
O123 C125 1.258 . S
C124 O118 1.247 . S
C124 O119 1.258 . S
C125 O122 1.247 . S
C125 O123 1.258 . S
C126 O128 1.247 . S
C126 O130 1.258 . S
C127 O134 1.247 . S
C127 O135 1.258 . S
O128 C126 1.247 . S
O128 Zn129 2.028 . S
Zn129 O128 2.028 . S
Zn129 O133 2.035 . S
Zn129 O135 2.035 . S
Zn129 O136 2.028 . S
O130 C126 1.258 . S
O130 Zn131 2.035 . S
Zn131 O130 2.035 . S
Zn131 O132 2.028 . S
Zn131 O134 2.028 . S
Zn131 O137 2.035 . S
O132 Zn131 2.028 . S
O132 C138 1.247 . S
O133 Zn129 2.035 . S
O133 C138 1.258 . S
O134 C127 1.247 . S
O134 Zn131 2.028 . S
O135 C127 1.258 . S
O135 Zn129 2.035 . S
O136 Zn129 2.028 . S
O136 C139 1.247 . S
O137 Zn131 2.035 . S
O137 C139 1.258 . S
C138 O132 1.247 . S
C138 O133 1.258 . S
C139 O136 1.247 . S
C139 O137 1.258 . S
C140 O142 1.247 . S
C140 O144 1.258 . S
C141 O148 1.247 . S
C141 O149 1.258 . S
O142 C140 1.247 . S
O142 Zn143 2.028 . S
Zn143 O142 2.028 . S
Zn143 O147 2.035 . S
Zn143 O149 2.035 . S
Zn143 O150 2.028 . S
O144 C140 1.258 . S
O144 Zn145 2.035 . S
Zn145 O144 2.035 . S
Zn145 O146 2.028 . S
Zn145 O148 2.028 . S
Zn145 O151 2.035 . S
O146 Zn145 2.028 . S
O146 C152 1.247 . S
O147 Zn143 2.035 . S
O147 C152 1.258 . S
O148 C141 1.247 . S
O148 Zn145 2.028 . S
O149 C141 1.258 . S
O149 Zn143 2.035 . S
O150 Zn143 2.028 . S
O150 C153 1.247 . S
O151 Zn145 2.035 . S
O151 C153 1.258 . S
C152 O146 1.247 . S
C152 O147 1.258 . S
C153 O150 1.247 . S
C153 O151 1.258 . S
C154 O156 1.247 . S
C154 O158 1.258 . S
C155 O162 1.247 . S
C155 O163 1.258 . S
O156 C154 1.247 . S
O156 Zn157 2.028 . S
Zn157 O156 2.028 . S
Zn157 O161 2.035 . S
Zn157 O163 2.035 . S
Zn157 O164 2.028 . S
O158 C154 1.258 . S
O158 Zn159 2.035 . S
Zn159 O158 2.035 . S
Zn159 O160 2.028 . S
Zn159 O162 2.028 . S
Zn159 O165 2.035 . S
O160 Zn159 2.028 . S
O160 C166 1.247 . S
O161 Zn157 2.035 . S
O161 C166 1.258 . S
O162 C155 1.247 . S
O162 Zn159 2.028 . S
O163 C155 1.258 . S
O163 Zn157 2.035 . S
O164 Zn157 2.028 . S
O164 C167 1.247 . S
O165 Zn159 2.035 . S
O165 C167 1.258 . S
C166 O160 1.247 . S
C166 O161 1.258 . S
C167 O164 1.247 . S
C167 O165 1.258 . S
C168 C169 1.391 . S
C168 C170 1.394 . S
C168 H184 0.931 . S
C169 C168 1.391 . S
C169 C173 1.376 . S
C170 C168 1.394 . S
C170 C171 1.369 . S
C170 C174 1.531 . S
C171 C170 1.369 . S
C171 C172 1.410 . S
C171 C179 1.503 1_556 S
C172 C171 1.410 . S
C172 C173 1.392 . S
C172 C175 1.511 . S
C173 C169 1.376 . S
C173 C172 1.392 . S
C173 H185 0.929 . S
C174 C170 1.531 . S
C174 H186 0.941 1_556 S
C174 H187 0.962 . S
C174 H188 0.960 . S
C175 C172 1.511 . S
C175 H189 0.961 . S
C175 H190 0.961 1_556 S
C175 H191 0.961 . S
C176 C177 1.370 . S
C176 C178 1.363 . S
C176 H192 0.931 . S
C177 C176 1.370 . S
C177 C181 1.408 . S
C178 C176 1.363 . S
C178 C179 1.370 . S
C178 C182 1.524 . S
C179 C171 1.503 1_554 S
C179 C178 1.370 . S
C179 C180 1.403 . S
C180 C179 1.403 . S
C180 C181 1.404 . S
C180 C183 1.539 . S
C181 C177 1.408 . S
C181 C180 1.404 . S
C181 H193 0.930 . S
C182 C178 1.524 . S
C182 H194 0.958 . S
C182 H195 0.928 1_554 S
C182 H196 0.961 . S
C183 C180 1.539 . S
C183 H197 0.958 . S
C183 H198 0.961 . S
C183 H199 1.000 . S
H184 C168 0.931 . S
H185 C173 0.929 . S
H186 C174 0.941 1_554 S
H187 C174 0.962 . S
H188 C174 0.960 . S
H189 C175 0.961 . S
H190 C175 0.961 1_554 S
H191 C175 0.961 . S
H192 C176 0.931 . S
H193 C181 0.930 . S
H194 C182 0.958 . S
H195 C182 0.928 1_556 S
H196 C182 0.961 . S
H197 C183 0.958 . S
H198 C183 0.961 . S
H199 C183 1.000 . S
C200 C201 1.391 . S
C200 C202 1.394 . S
C200 H216 0.931 . S
C201 C200 1.391 . S
C201 C205 1.376 . S
C202 C200 1.394 . S
C202 C203 1.369 . S
C202 C206 1.531 . S
C203 C202 1.369 . S
C203 C204 1.410 . S
C203 C211 1.503 . S
C204 C203 1.410 . S
C204 C205 1.392 . S
C204 C207 1.511 . S
C205 C201 1.376 . S
C205 C204 1.392 . S
C205 H217 0.929 . S
C206 C202 1.531 . S
C206 H218 0.960 . S
C206 H219 0.962 . S
C206 H220 0.960 . S
C207 C204 1.511 . S
C207 H221 0.961 . S
C207 H222 0.961 . S
C207 H223 0.961 . S
C208 C209 1.370 . S
C208 C210 1.363 . S
C208 H224 0.931 . S
C209 C208 1.370 . S
C209 C213 1.408 . S
C210 C208 1.363 . S
C210 C211 1.370 . S
C210 C214 1.524 . S
C211 C203 1.503 . S
C211 C210 1.370 . S
C211 C212 1.403 . S
C212 C211 1.403 . S
C212 C213 1.404 . S
C212 C215 1.539 . S
C213 C209 1.408 . S
C213 C212 1.404 . S
C213 H225 0.930 . S
C214 C210 1.524 . S
C214 H226 0.956 . S
C214 H227 0.961 . S
C214 H228 0.961 . S
C215 C212 1.539 . S
C215 H229 0.958 . S
C215 H230 0.961 . S
C215 H231 0.960 . S
H216 C200 0.931 . S
H217 C205 0.929 . S
H218 C206 0.960 . S
H219 C206 0.962 . S
H220 C206 0.960 . S
H221 C207 0.961 . S
H222 C207 0.961 . S
H223 C207 0.961 . S
H224 C208 0.931 . S
H225 C213 0.930 . S
H226 C214 0.956 . S
H227 C214 0.961 . S
H228 C214 0.961 . S
H229 C215 0.958 . S
H230 C215 0.961 . S
H231 C215 0.960 . S
C232 C233 1.391 . S
C232 C234 1.394 . S
C232 H248 0.931 . S
C233 C232 1.391 . S
C233 C237 1.376 . S
C234 C232 1.394 . S
C234 C235 1.369 . S
C234 C238 1.531 . S
C235 C234 1.369 . S
C235 C236 1.410 . S
C235 C243 1.503 . S
C236 C235 1.410 . S
C236 C237 1.392 . S
C236 C239 1.511 . S
C237 C233 1.376 . S
C237 C236 1.392 . S
C237 H249 0.929 . S
C238 C234 1.531 . S
C238 H250 0.960 . S
C238 H251 0.962 . S
C238 H252 0.960 . S
C239 C236 1.511 . S
C239 H253 0.961 . S
C239 H254 0.961 . S
C239 H255 0.961 . S
C240 C241 1.370 . S
C240 C242 1.363 . S
C240 H256 0.931 . S
C241 C240 1.370 . S
C241 C245 1.408 . S
C242 C240 1.363 . S
C242 C243 1.370 . S
C242 C246 1.524 . S
C243 C235 1.503 . S
C243 C242 1.370 . S
C243 C244 1.403 . S
C244 C243 1.403 . S
C244 C245 1.404 . S
C244 C247 1.539 . S
C245 C241 1.408 . S
C245 C244 1.404 . S
C245 H257 0.930 . S
C246 C242 1.524 . S
C246 H258 0.956 . S
C246 H259 0.961 . S
C246 H260 0.961 . S
C247 C244 1.539 . S
C247 H261 0.958 . S
C247 H262 0.961 . S
C247 H263 0.960 . S
H248 C232 0.931 . S
H249 C237 0.929 . S
H250 C238 0.960 . S
H251 C238 0.962 . S
H252 C238 0.960 . S
H253 C239 0.961 . S
H254 C239 0.961 . S
H255 C239 0.961 . S
H256 C240 0.931 . S
H257 C245 0.930 . S
H258 C246 0.956 . S
H259 C246 0.961 . S
H260 C246 0.961 . S
H261 C247 0.958 . S
H262 C247 0.961 . S
H263 C247 0.960 . S
C264 C265 1.391 . S
C264 C266 1.394 . S
C264 H280 0.931 . S
C265 C264 1.391 . S
C265 C269 1.376 . S
C266 C264 1.394 . S
C266 C267 1.369 . S
C266 C270 1.531 . S
C267 C266 1.369 . S
C267 C268 1.410 . S
C267 C275 1.503 1_554 S
C268 C267 1.410 . S
C268 C269 1.392 . S
C268 C271 1.511 . S
C269 C265 1.376 . S
C269 C268 1.392 . S
C269 H281 0.929 . S
C270 C266 1.531 . S
C270 H282 0.960 1_554 S
C270 H283 0.962 . S
C270 H284 0.960 . S
C271 C268 1.511 . S
C271 H285 0.961 . S
C271 H286 0.915 1_554 S
C271 H287 0.961 . S
C272 C273 1.370 . S
C272 C274 1.363 . S
C272 H288 0.931 . S
C273 C272 1.370 . S
C273 C277 1.408 . S
C274 C272 1.363 . S
C274 C275 1.370 . S
C274 C278 1.524 . S
C275 C267 1.503 1_556 S
C275 C274 1.370 . S
C275 C276 1.403 . S
C276 C275 1.403 . S
C276 C277 1.404 . S
C276 C279 1.539 . S
C277 C273 1.408 . S
C277 C276 1.404 . S
C277 H289 0.930 . S
C278 C274 1.524 . S
C278 H290 0.956 . S
C278 H291 0.929 1_556 S
C278 H292 0.961 . S
C279 C276 1.539 . S
C279 H293 0.958 . S
C279 H294 0.961 . S
C279 H295 0.921 1_556 S
H280 C264 0.931 . S
H281 C269 0.929 . S
H282 C270 0.960 1_556 S
H283 C270 0.962 . S
H284 C270 0.960 . S
H285 C271 0.961 . S
H286 C271 0.915 1_556 S
H287 C271 0.961 . S
H288 C272 0.931 . S
H289 C277 0.930 . S
H290 C278 0.956 . S
H291 C278 0.929 1_554 S
H292 C278 0.961 . S
H293 C279 0.958 . S
H294 C279 0.961 . S
H295 C279 0.921 1_554 S
C296 C297 1.391 . S
C296 C298 1.394 . S
C296 H312 0.931 . S
C297 C296 1.391 . S
C297 C301 1.376 . S
C298 C296 1.394 . S
C298 C299 1.369 . S
C298 C302 1.531 . S
C299 C298 1.369 . S
C299 C300 1.410 . S
C299 C307 1.503 . S
C300 C299 1.410 . S
C300 C301 1.392 . S
C300 C303 1.511 . S
C301 C297 1.376 . S
C301 C300 1.392 . S
C301 H313 0.929 . S
C302 C298 1.531 . S
C302 H314 0.960 . S
C302 H315 0.962 . S
C302 H316 0.960 . S
C303 C300 1.511 . S
C303 H317 0.961 . S
C303 H318 0.961 . S
C303 H319 0.961 . S
C304 C305 1.370 . S
C304 C306 1.363 . S
C304 H320 0.931 . S
C305 C304 1.370 . S
C305 C309 1.408 . S
C306 C304 1.363 . S
C306 C307 1.370 . S
C306 C310 1.524 . S
C307 C299 1.503 . S
C307 C306 1.370 . S
C307 C308 1.403 . S
C308 C307 1.403 . S
C308 C309 1.404 . S
C308 C311 1.539 . S
C309 C305 1.408 . S
C309 C308 1.404 . S
C309 H321 0.930 . S
C310 C306 1.524 . S
C310 H322 0.956 . S
C310 H323 0.961 . S
C310 H324 0.961 . S
C311 C308 1.539 . S
C311 H325 0.958 . S
C311 H326 0.961 . S
C311 H327 0.960 . S
H312 C296 0.931 . S
H313 C301 0.929 . S
H314 C302 0.960 . S
H315 C302 0.962 . S
H316 C302 0.960 . S
H317 C303 0.961 . S
H318 C303 0.961 . S
H319 C303 0.961 . S
H320 C304 0.931 . S
H321 C309 0.930 . S
H322 C310 0.956 . S
H323 C310 0.961 . S
H324 C310 0.961 . S
H325 C311 0.958 . S
H326 C311 0.961 . S
H327 C311 0.960 . S
C328 C329 1.391 . S
C328 C330 1.394 . S
C328 H344 0.931 . S
C329 C328 1.391 . S
C329 C333 1.376 . S
C330 C328 1.394 . S
C330 C331 1.369 . S
C330 C334 1.531 . S
C331 C330 1.369 . S
C331 C332 1.410 . S
C331 C339 1.503 . S
C332 C331 1.410 . S
C332 C333 1.392 . S
C332 C335 1.511 . S
C333 C329 1.376 . S
C333 C332 1.392 . S
C333 H345 0.929 . S
C334 C330 1.531 . S
C334 H346 0.960 . S
C334 H347 0.962 . S
C334 H348 0.960 . S
C335 C332 1.511 . S
C335 H349 0.961 . S
C335 H350 0.961 . S
C335 H351 0.961 . S
C336 C337 1.370 . S
C336 C338 1.363 . S
C336 H352 0.931 . S
C337 C336 1.370 . S
C337 C341 1.408 . S
C338 C336 1.363 . S
C338 C339 1.370 . S
C338 C342 1.524 . S
C339 C331 1.503 . S
C339 C338 1.370 . S
C339 C340 1.403 . S
C340 C339 1.403 . S
C340 C341 1.404 . S
C340 C343 1.539 . S
C341 C337 1.408 . S
C341 C340 1.404 . S
C341 H353 0.930 . S
C342 C338 1.524 . S
C342 H354 0.956 . S
C342 H355 0.961 . S
C342 H356 0.961 . S
C343 C340 1.539 . S
C343 H357 0.958 . S
C343 H358 0.961 . S
C343 H359 0.960 . S
H344 C328 0.931 . S
H345 C333 0.929 . S
H346 C334 0.960 . S
H347 C334 0.962 . S
H348 C334 0.960 . S
H349 C335 0.961 . S
H350 C335 0.961 . S
H351 C335 0.961 . S
H352 C336 0.931 . S
H353 C341 0.930 . S
H354 C342 0.956 . S
H355 C342 0.961 . S
H356 C342 0.961 . S
H357 C343 0.958 . S
H358 C343 0.961 . S
H359 C343 0.960 . S
C360 C361 1.391 . S
C360 C362 1.394 . S
C360 H376 0.931 . S
C361 C360 1.391 . S
C361 C365 1.376 . S
C362 C360 1.394 . S
C362 C363 1.369 . S
C362 C366 1.531 . S
C363 C362 1.369 . S
C363 C364 1.410 . S
C363 C371 1.503 . S
C364 C363 1.410 . S
C364 C365 1.392 . S
C364 C367 1.511 . S
C365 C361 1.376 . S
C365 C364 1.392 . S
C365 H377 0.929 . S
C366 C362 1.531 . S
C366 H378 0.960 . S
C366 H379 0.962 . S
C366 H380 0.960 . S
C367 C364 1.511 . S
C367 H381 0.961 . S
C367 H382 0.961 . S
C367 H383 0.961 . S
C368 C369 1.370 . S
C368 C370 1.363 . S
C368 H384 0.931 . S
C369 C368 1.370 . S
C369 C373 1.408 . S
C370 C368 1.363 . S
C370 C371 1.370 . S
C370 C374 1.524 . S
C371 C363 1.503 . S
C371 C370 1.370 . S
C371 C372 1.403 . S
C372 C371 1.403 . S
C372 C373 1.404 . S
C372 C375 1.539 . S
C373 C369 1.408 . S
C373 C372 1.404 . S
C373 H385 0.930 . S
C374 C370 1.524 . S
C374 H386 0.956 . S
C374 H387 0.961 . S
C374 H388 0.961 . S
C375 C372 1.539 . S
C375 H389 0.958 . S
C375 H390 0.961 . S
C375 H391 0.960 . S
H376 C360 0.931 . S
H377 C365 0.929 . S
H378 C366 0.960 . S
H379 C366 0.962 . S
H380 C366 0.960 . S
H381 C367 0.961 . S
H382 C367 0.961 . S
H383 C367 0.961 . S
H384 C368 0.931 . S
H385 C373 0.930 . S
H386 C374 0.956 . S
H387 C374 0.961 . S
H388 C374 0.961 . S
H389 C375 0.958 . S
H390 C375 0.961 . S
H391 C375 0.960 . S
C392 C393 1.391 . S
C392 C394 1.394 . S
C392 H408 0.931 . S
C393 C392 1.391 . S
C393 C397 1.376 . S
C394 C392 1.394 . S
C394 C395 1.369 . S
C394 C398 1.531 . S
C395 C394 1.369 . S
C395 C396 1.410 . S
C395 C403 1.503 . S
C396 C395 1.410 . S
C396 C397 1.392 . S
C396 C399 1.511 . S
C397 C393 1.376 . S
C397 C396 1.392 . S
C397 H409 0.929 . S
C398 C394 1.531 . S
C398 H410 0.960 . S
C398 H411 0.962 . S
C398 H412 0.960 . S
C399 C396 1.511 . S
C399 H413 0.961 . S
C399 H414 0.961 . S
C399 H415 0.961 . S
C400 C401 1.370 . S
C400 C402 1.363 . S
C400 H416 0.931 . S
C401 C400 1.370 . S
C401 C405 1.408 . S
C402 C400 1.363 . S
C402 C403 1.370 . S
C402 C406 1.524 . S
C403 C395 1.503 . S
C403 C402 1.370 . S
C403 C404 1.403 . S
C404 C403 1.403 . S
C404 C405 1.404 . S
C404 C407 1.539 . S
C405 C401 1.408 . S
C405 C404 1.404 . S
C405 H417 0.930 . S
C406 C402 1.524 . S
C406 H418 0.956 . S
C406 H419 0.961 . S
C406 H420 0.961 . S
C407 C404 1.539 . S
C407 H421 0.958 . S
C407 H422 0.961 . S
C407 H423 0.960 . S
H408 C392 0.931 . S
H409 C397 0.929 . S
H410 C398 0.960 . S
H411 C398 0.962 . S
H412 C398 0.960 . S
H413 C399 0.961 . S
H414 C399 0.961 . S
H415 C399 0.961 . S
H416 C400 0.931 . S
H417 C405 0.930 . S
H418 C406 0.956 . S
H419 C406 0.961 . S
H420 C406 0.961 . S
H421 C407 0.958 . S
H422 C407 0.961 . S
H423 C407 0.960 . S
C424 C425 1.391 . S
C424 C426 1.394 . S
C424 H440 0.931 . S
C425 C424 1.391 . S
C425 C429 1.376 . S
C426 C424 1.394 . S
C426 C427 1.369 . S
C426 C430 1.531 . S
C427 C426 1.369 . S
C427 C428 1.410 . S
C427 C435 1.503 . S
C428 C427 1.410 . S
C428 C429 1.392 . S
C428 C431 1.511 . S
C429 C425 1.376 . S
C429 C428 1.392 . S
C429 H441 0.929 . S
C430 C426 1.531 . S
C430 H442 0.960 . S
C430 H443 0.962 . S
C430 H444 0.960 . S
C431 C428 1.511 . S
C431 H445 0.961 . S
C431 H446 0.961 . S
C431 H447 0.961 . S
C432 C433 1.370 . S
C432 C434 1.363 . S
C432 H448 0.931 . S
C433 C432 1.370 . S
C433 C437 1.408 . S
C434 C432 1.363 . S
C434 C435 1.370 . S
C434 C438 1.524 . S
C435 C427 1.503 . S
C435 C434 1.370 . S
C435 C436 1.403 . S
C436 C435 1.403 . S
C436 C437 1.404 . S
C436 C439 1.539 . S
C437 C433 1.408 . S
C437 C436 1.404 . S
C437 H449 0.930 . S
C438 C434 1.524 . S
C438 H450 0.956 . S
C438 H451 0.961 . S
C438 H452 0.961 . S
C439 C436 1.539 . S
C439 H453 0.958 . S
C439 H454 0.961 . S
C439 H455 0.960 . S
H440 C424 0.931 . S
H441 C429 0.929 . S
H442 C430 0.960 . S
H443 C430 0.962 . S
H444 C430 0.960 . S
H445 C431 0.961 . S
H446 C431 0.961 . S
H447 C431 0.961 . S
H448 C432 0.931 . S
H449 C437 0.930 . S
H450 C438 0.956 . S
H451 C438 0.961 . S
H452 C438 0.961 . S
H453 C439 0.958 . S
H454 C439 0.961 . S
H455 C439 0.960 . S
C456 C457 1.391 . S
C456 C458 1.394 . S
C456 H472 0.931 . S
C457 C456 1.391 . S
C457 C461 1.376 . S
C458 C456 1.394 . S
C458 C459 1.369 . S
C458 C462 1.531 . S
C459 C458 1.369 . S
C459 C460 1.410 . S
C459 C467 1.503 . S
C460 C459 1.410 . S
C460 C461 1.392 . S
C460 C463 1.511 . S
C461 C457 1.376 . S
C461 C460 1.392 . S
C461 H473 0.929 . S
C462 C458 1.531 . S
C462 H474 0.960 . S
C462 H475 0.962 . S
C462 H476 0.960 . S
C463 C460 1.511 . S
C463 H477 0.961 . S
C463 H478 0.961 . S
C463 H479 0.961 . S
C464 C465 1.370 . S
C464 C466 1.363 . S
C464 H480 0.931 . S
C465 C464 1.370 . S
C465 C469 1.408 . S
C466 C464 1.363 . S
C466 C467 1.370 . S
C466 C470 1.524 . S
C467 C459 1.503 . S
C467 C466 1.370 . S
C467 C468 1.403 . S
C468 C467 1.403 . S
C468 C469 1.404 . S
C468 C471 1.539 . S
C469 C465 1.408 . S
C469 C468 1.404 . S
C469 H481 0.930 . S
C470 C466 1.524 . S
C470 H482 0.956 . S
C470 H483 0.961 . S
C470 H484 0.961 . S
C471 C468 1.539 . S
C471 H485 0.958 . S
C471 H486 0.961 . S
C471 H487 0.960 . S
H472 C456 0.931 . S
H473 C461 0.929 . S
H474 C462 0.960 . S
H475 C462 0.962 . S
H476 C462 0.960 . S
H477 C463 0.961 . S
H478 C463 0.961 . S
H479 C463 0.961 . S
H480 C464 0.931 . S
H481 C469 0.930 . S
H482 C470 0.956 . S
H483 C470 0.961 . S
H484 C470 0.961 . S
H485 C471 0.958 . S
H486 C471 0.961 . S
H487 C471 0.960 . S
C488 C489 1.391 . S
C488 C490 1.394 . S
C488 H504 0.931 . S
C489 C488 1.391 . S
C489 C493 1.376 . S
C490 C488 1.394 . S
C490 C491 1.369 . S
C490 C494 1.531 . S
C491 C490 1.369 . S
C491 C492 1.410 . S
C491 C499 1.503 . S
C492 C491 1.410 . S
C492 C493 1.392 . S
C492 C495 1.511 . S
C493 C489 1.376 . S
C493 C492 1.392 . S
C493 H505 0.929 . S
C494 C490 1.531 . S
C494 H506 0.960 . S
C494 H507 0.962 . S
C494 H508 0.960 . S
C495 C492 1.511 . S
C495 H509 0.961 . S
C495 H510 0.961 . S
C495 H511 0.961 . S
C496 C497 1.370 . S
C496 C498 1.363 . S
C496 H512 0.931 . S
C497 C496 1.370 . S
C497 C501 1.408 . S
C498 C496 1.363 . S
C498 C499 1.370 . S
C498 C502 1.524 . S
C499 C491 1.503 . S
C499 C498 1.370 . S
C499 C500 1.403 . S
C500 C499 1.403 . S
C500 C501 1.404 . S
C500 C503 1.539 . S
C501 C497 1.408 . S
C501 C500 1.404 . S
C501 H513 0.930 . S
C502 C498 1.524 . S
C502 H514 0.956 . S
C502 H515 0.961 . S
C502 H516 0.961 . S
C503 C500 1.539 . S
C503 H517 0.958 . S
C503 H518 0.961 . S
C503 H519 0.960 . S
H504 C488 0.931 . S
H505 C493 0.929 . S
H506 C494 0.960 . S
H507 C494 0.962 . S
H508 C494 0.960 . S
H509 C495 0.961 . S
H510 C495 0.961 . S
H511 C495 0.961 . S
H512 C496 0.931 . S
H513 C501 0.930 . S
H514 C502 0.956 . S
H515 C502 0.961 . S
H516 C502 0.961 . S
H517 C503 0.958 . S
H518 C503 0.961 . S
H519 C503 0.960 . S
C520 C521 1.391 . S
C520 C522 1.394 . S
C520 H536 0.931 . S
C521 C520 1.391 . S
C521 C525 1.376 . S
C522 C520 1.394 . S
C522 C523 1.369 . S
C522 C526 1.531 . S
C523 C522 1.369 . S
C523 C524 1.410 . S
C523 C531 1.503 . S
C524 C523 1.410 . S
C524 C525 1.392 . S
C524 C527 1.511 . S
C525 C521 1.376 . S
C525 C524 1.392 . S
C525 H537 0.929 . S
C526 C522 1.531 . S
C526 H538 0.960 . S
C526 H539 0.962 . S
C526 H540 0.960 . S
C527 C524 1.511 . S
C527 H541 0.961 . S
C527 H542 0.961 . S
C527 H543 0.961 . S
C528 C529 1.370 . S
C528 C530 1.363 . S
C528 H544 0.931 . S
C529 C528 1.370 . S
C529 C533 1.408 . S
C530 C528 1.363 . S
C530 C531 1.370 . S
C530 C534 1.524 . S
C531 C523 1.503 . S
C531 C530 1.370 . S
C531 C532 1.403 . S
C532 C531 1.403 . S
C532 C533 1.404 . S
C532 C535 1.539 . S
C533 C529 1.408 . S
C533 C532 1.404 . S
C533 H545 0.930 . S
C534 C530 1.524 . S
C534 H546 0.956 . S
C534 H547 0.961 . S
C534 H548 0.961 . S
C535 C532 1.539 . S
C535 H549 0.958 . S
C535 H550 0.961 . S
C535 H551 0.960 . S
H536 C520 0.931 . S
H537 C525 0.929 . S
H538 C526 0.960 . S
H539 C526 0.962 . S
H540 C526 0.960 . S
H541 C527 0.961 . S
H542 C527 0.961 . S
H543 C527 0.961 . S
H544 C528 0.931 . S
H545 C533 0.930 . S
H546 C534 0.956 . S
H547 C534 0.961 . S
H548 C534 0.961 . S
H549 C535 0.958 . S
H550 C535 0.961 . S
H551 C535 0.960 . S
C552 C553 1.391 . S
C552 C554 1.394 . S
C552 H568 0.931 . S
C553 C552 1.391 . S
C553 C557 1.376 . S
C554 C552 1.394 . S
C554 C555 1.369 . S
C554 C558 1.531 . S
C555 C554 1.369 . S
C555 C556 1.410 . S
C555 C563 1.503 1_655 S
C556 C555 1.410 . S
C556 C557 1.392 . S
C556 C559 1.511 . S
C557 C553 1.376 . S
C557 C556 1.392 . S
C557 H569 0.929 . S
C558 C554 1.531 . S
C558 H570 0.960 . S
C558 H571 0.962 . S
C558 H572 0.960 . S
C559 C556 1.511 . S
C559 H573 0.961 . S
C559 H574 0.961 1_655 S
C559 H575 0.961 1_655 S
C560 C561 1.370 . S
C560 C562 1.363 . S
C560 H576 0.931 . S
C561 C560 1.370 . S
C561 C565 1.408 . S
C562 C560 1.363 . S
C562 C563 1.370 . S
C562 C566 1.524 . S
C563 C555 1.503 1_455 S
C563 C562 1.370 . S
C563 C564 1.403 . S
C564 C563 1.403 . S
C564 C565 1.404 . S
C564 C567 1.539 . S
C565 C561 1.408 . S
C565 C564 1.404 . S
C565 H577 0.930 . S
C566 C562 1.524 . S
C566 H578 0.956 1_455 S
C566 H579 0.961 1_455 S
C566 H580 0.961 . S
C567 C564 1.539 . S
C567 H581 0.958 . S
C567 H582 0.961 . S
C567 H583 0.960 . S
H568 C552 0.931 . S
H569 C557 0.929 . S
H570 C558 0.960 . S
H571 C558 0.962 . S
H572 C558 0.960 . S
H573 C559 0.961 . S
H574 C559 0.961 1_455 S
H575 C559 0.961 1_455 S
H576 C560 0.931 . S
H577 C565 0.930 . S
H578 C566 0.956 1_655 S
H579 C566 0.961 1_655 S
H580 C566 0.961 . S
H581 C567 0.958 . S
H582 C567 0.961 . S
H583 C567 0.960 . S
C584 C585 1.391 . S
C584 C586 1.394 . S
C584 H600 0.931 . S
C585 C584 1.391 . S
C585 C589 1.376 . S
C586 C584 1.394 . S
C586 C587 1.369 . S
C586 C590 1.531 . S
C587 C586 1.369 . S
C587 C588 1.410 . S
C587 C595 1.503 1_545 S
C588 C587 1.410 . S
C588 C589 1.392 . S
C588 C591 1.511 . S
C589 C585 1.376 . S
C589 C588 1.392 . S
C589 H601 0.929 . S
C590 C586 1.531 . S
C590 H602 0.960 1_545 S
C590 H603 0.962 1_545 S
C590 H604 0.960 . S
C591 C588 1.511 . S
C591 H605 0.961 . S
C591 H606 0.961 . S
C591 H607 0.961 . S
C592 C593 1.370 . S
C592 C594 1.363 . S
C592 H608 0.931 . S
C593 C592 1.370 . S
C593 C597 1.408 . S
C594 C592 1.363 . S
C594 C595 1.370 . S
C594 C598 1.524 . S
C595 C587 1.503 1_565 S
C595 C594 1.370 . S
C595 C596 1.403 . S
C596 C595 1.403 . S
C596 C597 1.404 . S
C596 C599 1.539 . S
C597 C593 1.408 . S
C597 C596 1.404 . S
C597 H609 0.930 . S
C598 C594 1.524 . S
C598 H610 0.956 . S
C598 H611 0.976 . S
C598 H612 0.961 . S
C599 C596 1.539 . S
C599 H613 0.958 . S
C599 H614 0.961 . S
C599 H615 0.960 1_565 S
H600 C584 0.931 . S
H601 C589 0.929 . S
H602 C590 0.960 1_565 S
H603 C590 0.962 1_565 S
H604 C590 0.960 . S
H605 C591 0.961 . S
H606 C591 0.961 . S
H607 C591 0.961 . S
H608 C592 0.931 . S
H609 C597 0.930 . S
H610 C598 0.956 . S
H611 C598 0.976 . S
H612 C598 0.961 . S
H613 C599 0.958 . S
H614 C599 0.961 . S
H615 C599 0.960 1_545 S
C616 C617 1.391 . S
C616 C618 1.394 . S
C616 H632 0.931 . S
C617 C616 1.391 . S
C617 C621 1.376 . S
C618 C616 1.394 . S
C618 C619 1.369 . S
C618 C622 1.531 . S
C619 C618 1.369 . S
C619 C620 1.410 . S
C619 C627 1.503 . S
C620 C619 1.410 . S
C620 C621 1.392 . S
C620 C623 1.511 . S
C621 C617 1.376 . S
C621 C620 1.392 . S
C621 H633 0.929 . S
C622 C618 1.531 . S
C622 H634 0.960 . S
C622 H635 0.962 . S
C622 H636 0.960 . S
C623 C620 1.511 . S
C623 H637 0.961 . S
C623 H638 0.961 . S
C623 H639 0.961 . S
C624 C625 1.370 . S
C624 C626 1.363 . S
C624 H640 0.931 . S
C625 C624 1.370 . S
C625 C629 1.408 . S
C626 C624 1.363 . S
C626 C627 1.370 . S
C626 C630 1.524 . S
C627 C619 1.503 . S
C627 C626 1.370 . S
C627 C628 1.403 . S
C628 C627 1.403 . S
C628 C629 1.404 . S
C628 C631 1.539 . S
C629 C625 1.408 . S
C629 C628 1.404 . S
C629 H641 0.930 . S
C630 C626 1.524 . S
C630 H642 0.956 . S
C630 H643 0.961 . S
C630 H644 0.961 . S
C631 C628 1.539 . S
C631 H645 0.958 . S
C631 H646 0.961 . S
C631 H647 0.960 . S
H632 C616 0.931 . S
H633 C621 0.929 . S
H634 C622 0.960 . S
H635 C622 0.962 . S
H636 C622 0.960 . S
H637 C623 0.961 . S
H638 C623 0.961 . S
H639 C623 0.961 . S
H640 C624 0.931 . S
H641 C629 0.930 . S
H642 C630 0.956 . S
H643 C630 0.961 . S
H644 C630 0.961 . S
H645 C631 0.958 . S
H646 C631 0.961 . S
H647 C631 0.960 . S
C648 C649 1.391 . S
C648 C650 1.394 . S
C648 H664 0.931 . S
C649 C648 1.391 . S
C649 C653 1.376 . S
C650 C648 1.394 . S
C650 C651 1.369 . S
C650 C654 1.531 . S
C651 C650 1.369 . S
C651 C652 1.410 . S
C651 C659 1.503 1_545 S
C652 C651 1.410 . S
C652 C653 1.392 . S
C652 C655 1.511 . S
C653 C649 1.376 . S
C653 C652 1.392 . S
C653 H665 0.929 . S
C654 C650 1.531 . S
C654 H666 0.960 1_545 S
C654 H667 0.962 1_545 S
C654 H668 0.960 . S
C655 C652 1.511 . S
C655 H669 0.961 . S
C655 H670 0.961 . S
C655 H671 0.961 . S
C656 C657 1.370 . S
C656 C658 1.363 . S
C656 H672 0.931 . S
C657 C656 1.370 . S
C657 C661 1.408 . S
C658 C656 1.363 . S
C658 C659 1.370 . S
C658 C662 1.524 . S
C659 C651 1.503 1_565 S
C659 C658 1.370 . S
C659 C660 1.403 . S
C660 C659 1.403 . S
C660 C661 1.404 . S
C660 C663 1.539 . S
C661 C657 1.408 . S
C661 C660 1.404 . S
C661 H673 0.930 . S
C662 C658 1.524 . S
C662 H674 0.956 . S
C662 H675 0.961 . S
C662 H676 0.961 . S
C663 C660 1.539 . S
C663 H677 0.958 . S
C663 H678 0.961 . S
C663 H679 0.960 1_565 S
H664 C648 0.931 . S
H665 C653 0.929 . S
H666 C654 0.960 1_565 S
H667 C654 0.962 1_565 S
H668 C654 0.960 . S
H669 C655 0.961 . S
H670 C655 0.961 . S
H671 C655 0.961 . S
H672 C656 0.931 . S
H673 C661 0.930 . S
H674 C662 0.956 . S
H675 C662 0.961 . S
H676 C662 0.961 . S
H677 C663 0.958 . S
H678 C663 0.961 . S
H679 C663 0.960 1_545 S
C680 C681 1.391 . S
C680 C682 1.394 . S
C680 H696 0.931 . S
C681 C680 1.391 . S
C681 C685 1.376 . S
C682 C680 1.394 . S
C682 C683 1.369 . S
C682 C686 1.531 . S
C683 C682 1.369 . S
C683 C684 1.410 . S
C683 C691 1.503 . S
C684 C683 1.410 . S
C684 C685 1.392 . S
C684 C687 1.511 . S
C685 C681 1.376 . S
C685 C684 1.392 . S
C685 H697 0.929 . S
C686 C682 1.531 . S
C686 H698 0.960 . S
C686 H699 0.962 . S
C686 H700 0.960 . S
C687 C684 1.511 . S
C687 H701 0.961 . S
C687 H702 0.961 . S
C687 H703 0.961 . S
C688 C689 1.370 . S
C688 C690 1.363 . S
C688 H704 0.931 . S
C689 C688 1.370 . S
C689 C693 1.408 . S
C690 C688 1.363 . S
C690 C691 1.370 . S
C690 C694 1.524 . S
C691 C683 1.503 . S
C691 C690 1.370 . S
C691 C692 1.403 . S
C692 C691 1.403 . S
C692 C693 1.404 . S
C692 C695 1.539 . S
C693 C689 1.408 . S
C693 C692 1.404 . S
C693 H705 0.930 . S
C694 C690 1.524 . S
C694 H706 0.956 . S
C694 H707 0.961 . S
C694 H708 0.961 . S
C695 C692 1.539 . S
C695 H709 0.958 . S
C695 H710 0.961 . S
C695 H711 0.960 . S
H696 C680 0.931 . S
H697 C685 0.929 . S
H698 C686 0.960 . S
H699 C686 0.962 . S
H700 C686 0.960 . S
H701 C687 0.961 . S
H702 C687 0.961 . S
H703 C687 0.961 . S
H704 C688 0.931 . S
H705 C693 0.930 . S
H706 C694 0.956 . S
H707 C694 0.961 . S
H708 C694 0.961 . S
H709 C695 0.958 . S
H710 C695 0.961 . S
H711 C695 0.960 . S
C712 C713 1.391 . S
C712 C714 1.394 . S
C712 H728 0.931 . S
C713 C712 1.391 . S
C713 C717 1.376 . S
C714 C712 1.394 . S
C714 C715 1.369 . S
C714 C718 1.531 . S
C715 C714 1.369 . S
C715 C716 1.410 . S
C715 C723 1.503 1_455 S
C716 C715 1.410 . S
C716 C717 1.392 . S
C716 C719 1.511 . S
C717 C713 1.376 . S
C717 C716 1.392 . S
C717 H729 0.929 . S
C718 C714 1.531 . S
C718 H730 0.960 . S
C718 H731 0.962 . S
C718 H732 0.960 . S
C719 C716 1.511 . S
C719 H733 0.961 . S
C719 H734 0.961 1_455 S
C719 H735 0.961 . S
C720 C721 1.370 . S
C720 C722 1.363 . S
C720 H736 0.931 . S
C721 C720 1.370 . S
C721 C725 1.408 . S
C722 C720 1.363 . S
C722 C723 1.370 . S
C722 C726 1.524 . S
C723 C715 1.503 1_655 S
C723 C722 1.370 . S
C723 C724 1.403 . S
C724 C723 1.403 . S
C724 C725 1.404 . S
C724 C727 1.539 . S
C725 C721 1.408 . S
C725 C724 1.404 . S
C725 H737 0.930 . S
C726 C722 1.524 . S
C726 H738 0.956 . S
C726 H739 0.961 . S
C726 H740 0.961 . S
C727 C724 1.539 . S
C727 H741 0.958 . S
C727 H742 0.961 . S
C727 H743 0.960 1_655 S
H728 C712 0.931 . S
H729 C717 0.929 . S
H730 C718 0.960 . S
H731 C718 0.962 . S
H732 C718 0.960 . S
H733 C719 0.961 . S
H734 C719 0.961 1_655 S
H735 C719 0.961 . S
H736 C720 0.931 . S
H737 C725 0.930 . S
H738 C726 0.956 . S
H739 C726 0.961 . S
H740 C726 0.961 . S
H741 C727 0.958 . S
H742 C727 0.961 . S
H743 C727 0.960 1_455 S
C744 C745 1.391 . S
C744 C746 1.394 . S
C744 H760 0.931 . S
C745 C744 1.391 . S
C745 C749 1.376 . S
C746 C744 1.394 . S
C746 C747 1.369 . S
C746 C750 1.531 . S
C747 C746 1.369 . S
C747 C748 1.410 . S
C747 C755 1.503 . S
C748 C747 1.410 . S
C748 C749 1.392 . S
C748 C751 1.511 . S
C749 C745 1.376 . S
C749 C748 1.392 . S
C749 H761 0.929 . S
C750 C746 1.531 . S
C750 H762 0.960 . S
C750 H763 0.962 . S
C750 H764 0.960 . S
C751 C748 1.511 . S
C751 H765 0.961 . S
C751 H766 0.961 . S
C751 H767 0.961 . S
C752 C753 1.370 . S
C752 C754 1.363 . S
C752 H768 0.931 . S
C753 C752 1.370 . S
C753 C757 1.408 . S
C754 C752 1.363 . S
C754 C755 1.370 . S
C754 C758 1.524 . S
C755 C747 1.503 . S
C755 C754 1.370 . S
C755 C756 1.403 . S
C756 C755 1.403 . S
C756 C757 1.404 . S
C756 C759 1.539 . S
C757 C753 1.408 . S
C757 C756 1.404 . S
C757 H769 0.930 . S
C758 C754 1.524 . S
C758 H770 0.956 . S
C758 H771 0.961 . S
C758 H772 0.961 . S
C759 C756 1.539 . S
C759 H773 0.958 . S
C759 H774 0.961 . S
C759 H775 0.960 . S
H760 C744 0.931 . S
H761 C749 0.929 . S
H762 C750 0.960 . S
H763 C750 0.962 . S
H764 C750 0.960 . S
H765 C751 0.961 . S
H766 C751 0.961 . S
H767 C751 0.961 . S
H768 C752 0.931 . S
H769 C757 0.930 . S
H770 C758 0.956 . S
H771 C758 0.961 . S
H772 C758 0.961 . S
H773 C759 0.958 . S
H774 C759 0.961 . S
H775 C759 0.960 . S
C776 C777 1.391 . S
C776 C778 1.394 . S
C776 H792 0.931 . S
C777 C776 1.391 . S
C777 C781 1.376 . S
C778 C776 1.394 . S
C778 C779 1.369 . S
C778 C782 1.531 . S
C779 C778 1.369 . S
C779 C780 1.410 . S
C779 C787 1.503 1_655 S
C780 C779 1.410 . S
C780 C781 1.392 . S
C780 C783 1.511 . S
C781 C777 1.376 . S
C781 C780 1.392 . S
C781 H793 0.929 . S
C782 C778 1.531 . S
C782 H794 0.960 1_655 S
C782 H795 0.962 . S
C782 H796 0.960 . S
C783 C780 1.511 . S
C783 H797 0.961 . S
C783 H798 0.961 . S
C783 H799 0.961 . S
C784 C785 1.370 . S
C784 C786 1.363 . S
C784 H800 0.931 . S
C785 C784 1.370 . S
C785 C789 1.408 . S
C786 C784 1.363 . S
C786 C787 1.370 . S
C786 C790 1.524 . S
C787 C779 1.503 1_455 S
C787 C786 1.370 . S
C787 C788 1.403 . S
C788 C787 1.403 . S
C788 C789 1.404 . S
C788 C791 1.539 . S
C789 C785 1.408 . S
C789 C788 1.404 . S
C789 H801 0.930 . S
C790 C786 1.524 . S
C790 H802 0.956 . S
C790 H803 0.961 . S
C790 H804 0.961 . S
C791 C788 1.539 . S
C791 H805 0.958 . S
C791 H806 0.961 . S
C791 H807 0.960 1_455 S
H792 C776 0.931 . S
H793 C781 0.929 . S
H794 C782 0.960 1_455 S
H795 C782 0.962 . S
H796 C782 0.960 . S
H797 C783 0.961 . S
H798 C783 0.961 . S
H799 C783 0.961 . S
H800 C784 0.931 . S
H801 C789 0.930 . S
H802 C790 0.956 . S
H803 C790 0.961 . S
H804 C790 0.961 . S
H805 C791 0.958 . S
H806 C791 0.961 . S
H807 C791 0.960 1_655 S
C808 C809 1.391 . S
C808 C810 1.394 . S
C808 H824 0.931 . S
C809 C808 1.391 . S
C809 C813 1.376 . S
C810 C808 1.394 . S
C810 C811 1.369 . S
C810 C814 1.531 . S
C811 C810 1.369 . S
C811 C812 1.410 . S
C811 C819 1.503 1_545 S
C812 C811 1.410 . S
C812 C813 1.392 . S
C812 C815 1.511 . S
C813 C809 1.376 . S
C813 C812 1.392 . S
C813 H825 0.929 . S
C814 C810 1.531 . S
C814 H826 0.960 . S
C814 H827 0.962 . S
C814 H828 0.960 . S
C815 C812 1.511 . S
C815 H829 0.961 . S
C815 H830 0.961 1_545 S
C815 H831 0.961 . S
C816 C817 1.370 . S
C816 C818 1.363 . S
C816 H832 0.931 . S
C817 C816 1.370 . S
C817 C821 1.408 . S
C818 C816 1.363 . S
C818 C819 1.370 . S
C818 C822 1.524 . S
C819 C811 1.503 1_565 S
C819 C818 1.370 . S
C819 C820 1.403 . S
C820 C819 1.403 . S
C820 C821 1.404 . S
C820 C823 1.539 . S
C821 C817 1.408 . S
C821 C820 1.404 . S
C821 H833 0.930 . S
C822 C818 1.524 . S
C822 H834 0.956 . S
C822 H835 0.961 . S
C822 H836 0.961 . S
C823 C820 1.539 . S
C823 H837 0.959 . S
C823 H838 0.961 . S
C823 H839 0.960 1_565 S
H824 C808 0.931 . S
H825 C813 0.929 . S
H826 C814 0.960 . S
H827 C814 0.962 . S
H828 C814 0.960 . S
H829 C815 0.961 . S
H830 C815 0.961 1_565 S
H831 C815 0.961 . S
H832 C816 0.931 . S
H833 C821 0.930 . S
H834 C822 0.956 . S
H835 C822 0.961 . S
H836 C822 0.961 . S
H837 C823 0.959 . S
H838 C823 0.961 . S
H839 C823 0.960 1_545 S
C840 C841 1.391 . S
C840 C842 1.394 . S
C840 H856 0.931 . S
C841 C840 1.391 . S
C841 C845 1.376 . S
C842 C840 1.394 . S
C842 C843 1.369 . S
C842 C846 1.531 . S
C843 C842 1.369 . S
C843 C844 1.410 . S
C843 C851 1.503 . S
C844 C843 1.410 . S
C844 C845 1.392 . S
C844 C847 1.511 . S
C845 C841 1.376 . S
C845 C844 1.392 . S
C845 H857 0.929 . S
C846 C842 1.531 . S
C846 H858 0.960 . S
C846 H859 0.962 . S
C846 H860 0.960 . S
C847 C844 1.511 . S
C847 H861 0.961 . S
C847 H862 0.961 . S
C847 H863 0.961 . S
C848 C849 1.370 . S
C848 C850 1.363 . S
C848 H864 0.931 . S
C849 C848 1.370 . S
C849 C853 1.408 . S
C850 C848 1.363 . S
C850 C851 1.370 . S
C850 C854 1.524 . S
C851 C843 1.503 . S
C851 C850 1.370 . S
C851 C852 1.403 . S
C852 C851 1.403 . S
C852 C853 1.404 . S
C852 C855 1.539 . S
C853 C849 1.408 . S
C853 C852 1.404 . S
C853 H865 0.930 . S
C854 C850 1.524 . S
C854 H866 0.956 . S
C854 H867 0.961 . S
C854 H868 0.961 . S
C855 C852 1.539 . S
C855 H869 0.958 . S
C855 H870 0.961 . S
C855 H871 0.960 . S
H856 C840 0.931 . S
H857 C845 0.929 . S
H858 C846 0.960 . S
H859 C846 0.962 . S
H860 C846 0.960 . S
H861 C847 0.961 . S
H862 C847 0.961 . S
H863 C847 0.961 . S
H864 C848 0.931 . S
H865 C853 0.930 . S
H866 C854 0.956 . S
H867 C854 0.961 . S
H868 C854 0.961 . S
H869 C855 0.958 . S
H870 C855 0.961 . S
H871 C855 0.960 . S
C872 C873 1.391 . S
C872 C874 1.394 . S
C872 H888 0.931 . S
C873 C872 1.391 . S
C873 C877 1.376 . S
C874 C872 1.394 . S
C874 C875 1.369 . S
C874 C878 1.531 . S
C875 C874 1.369 . S
C875 C876 1.410 . S
C875 C883 1.503 1_455 S
C876 C875 1.410 . S
C876 C877 1.392 . S
C876 C879 1.511 . S
C877 C873 1.376 . S
C877 C876 1.392 . S
C877 H889 0.929 . S
C878 C874 1.531 . S
C878 H890 0.960 1_455 S
C878 H891 0.962 1_455 S
C878 H892 0.960 . S
C879 C876 1.511 . S
C879 H893 0.961 . S
C879 H894 0.961 . S
C879 H895 0.961 . S
C880 C881 1.370 . S
C880 C882 1.363 . S
C880 H896 0.931 . S
C881 C880 1.370 . S
C881 C885 1.408 . S
C882 C880 1.363 . S
C882 C883 1.370 . S
C882 C886 1.524 . S
C883 C875 1.503 1_655 S
C883 C882 1.370 . S
C883 C884 1.403 . S
C884 C883 1.403 . S
C884 C885 1.404 . S
C884 C887 1.539 . S
C885 C881 1.408 . S
C885 C884 1.404 . S
C885 H897 0.930 . S
C886 C882 1.524 . S
C886 H898 0.956 . S
C886 H899 0.961 1_655 S
C886 H900 0.961 . S
C887 C884 1.539 . S
C887 H901 0.958 . S
C887 H902 0.961 . S
C887 H903 0.951 1_655 S
H888 C872 0.931 . S
H889 C877 0.929 . S
H890 C878 0.960 1_655 S
H891 C878 0.962 1_655 S
H892 C878 0.960 . S
H893 C879 0.961 . S
H894 C879 0.961 . S
H895 C879 0.961 . S
H896 C880 0.931 . S
H897 C885 0.930 . S
H898 C886 0.956 . S
H899 C886 0.961 1_455 S
H900 C886 0.961 . S
H901 C887 0.958 . S
H902 C887 0.961 . S
H903 C887 0.951 1_455 S
C904 C905 1.391 . S
C904 C906 1.394 . S
C904 H920 0.931 . S
C905 C904 1.391 . S
C905 C909 1.376 . S
C906 C904 1.394 . S
C906 C907 1.369 . S
C906 C910 1.531 . S
C907 C906 1.369 . S
C907 C908 1.410 . S
C907 C915 1.503 1_565 S
C908 C907 1.410 . S
C908 C909 1.392 . S
C908 C911 1.511 . S
C909 C905 1.376 . S
C909 C908 1.392 . S
C909 H921 0.929 . S
C910 C906 1.531 . S
C910 H922 0.960 1_565 S
C910 H923 0.941 1_565 S
C910 H924 0.960 . S
C911 C908 1.511 . S
C911 H925 0.961 . S
C911 H926 0.961 . S
C911 H927 0.961 . S
C912 C913 1.370 . S
C912 C914 1.363 . S
C912 H928 0.931 . S
C913 C912 1.370 . S
C913 C917 1.408 . S
C914 C912 1.363 . S
C914 C915 1.370 . S
C914 C918 1.524 . S
C915 C907 1.503 1_545 S
C915 C914 1.370 . S
C915 C916 1.403 . S
C916 C915 1.403 . S
C916 C917 1.404 . S
C916 C919 1.539 . S
C917 C913 1.408 . S
C917 C916 1.404 . S
C917 H929 0.930 . S
C918 C914 1.524 . S
C918 H930 0.956 . S
C918 H931 0.961 . S
C918 H932 0.961 . S
C919 C916 1.539 . S
C919 H933 0.958 . S
C919 H934 0.961 . S
C919 H935 0.960 1_545 S
H920 C904 0.931 . S
H921 C909 0.929 . S
H922 C910 0.960 1_545 S
H923 C910 0.941 1_545 S
H924 C910 0.960 . S
H925 C911 0.961 . S
H926 C911 0.961 . S
H927 C911 0.961 . S
H928 C912 0.931 . S
H929 C917 0.930 . S
H930 C918 0.956 . S
H931 C918 0.961 . S
H932 C918 0.961 . S
H933 C919 0.958 . S
H934 C919 0.961 . S
H935 C919 0.960 1_565 S
C169 C141 1.595 . S
C177 C12 1.598 . S
C201 C15 1.615 . S
C209 C154 1.601 . S
C233 C29 1.604 . S
C241 C96 1.597 . S
C265 C43 1.600 . S
C273 C99 1.611 . S
C297 C112 1.615 . S
C305 C57 1.602 . S
C329 C83 1.615 . S
C337 C126 1.603 . S
C361 C113 1.617 . S
C369 C13 1.630 . S
C393 C14 1.613 . S
C401 C127 1.632 . S
C425 C28 1.615 . S
C433 C140 1.629 . S
C457 C42 1.613 . S
C465 C155 1.636 . S
C489 C97 1.635 . S
C497 C56 1.628 . S
C521 C98 1.626 . S
C529 C82 1.625 . S
C553 C55 1.373 . S
C561 C0 1.398 . S
C585 C27 1.406 . S
C593 C69 1.392 . S
C617 C71 1.408 . S
C625 C41 1.386 . S
C649 C138 1.407 . S
C657 C84 1.389 . S
C681 C153 1.387 . S
C689 C111 1.399 . S
C713 C124 1.391 . S
C721 C166 1.388 . S
C745 C54 1.821 . S
C753 C1 1.809 . S
C777 C26 1.823 . S
C785 C68 1.808 . S
C809 C70 1.822 . S
C817 C40 1.807 . S
C841 C85 1.823 . S
C849 C139 1.811 . S
C873 C152 1.812 . S
C881 C110 1.815 . S
C905 C125 1.824 . S
C913 C167 1.811 . S
