# Generated by pormake.
# Topology svh, (7)-cn, num edge types: 1
# Building blocks:
#     Node 0, Type 0, BuildingBlock: HICVOG_clean_sbu_0, # of connection points: 7
#     Node 1, Type 0, BuildingBlock: HICVOG_clean_sbu_0, # of connection points: 7
#     Node 2, Type 0, BuildingBlock: HICVOG_clean_sbu_0, # of connection points: 7
#     Node 3, Type 0, BuildingBlock: HICVOG_clean_sbu_0, # of connection points: 7
#     Node 4, Type 0, BuildingBlock: HICVOG_clean_sbu_0, # of connection points: 7
#     Node 5, Type 0, BuildingBlock: HICVOG_clean_sbu_0, # of connection points: 7
#     Node 6, Type 0, BuildingBlock: HICVOG_clean_sbu_0, # of connection points: 7
#     Node 7, Type 0, BuildingBlock: HICVOG_clean_sbu_0, # of connection points: 7
#     Edge 8, Type (0, 0), BuildingBlock: OJICUG_clean_linker_0, # of connection points: 2
#     Edge 9, Type (0, 0), BuildingBlock: OJICUG_clean_linker_0, # of connection points: 2
#     Edge 10, Type (0, 0), BuildingBlock: OJICUG_clean_linker_0, # of connection points: 2
#     Edge 11, Type (0, 0), BuildingBlock: OJICUG_clean_linker_0, # of connection points: 2
#     Edge 12, Type (0, 0), BuildingBlock: OJICUG_clean_linker_0, # of connection points: 2
#     Edge 13, Type (0, 0), BuildingBlock: OJICUG_clean_linker_0, # of connection points: 2
#     Edge 14, Type (0, 0), BuildingBlock: OJICUG_clean_linker_0, # of connection points: 2
#     Edge 15, Type (0, 0), BuildingBlock: OJICUG_clean_linker_0, # of connection points: 2
#     Edge 16, Type (0, 0), BuildingBlock: OJICUG_clean_linker_0, # of connection points: 2
#     Edge 17, Type (0, 0), BuildingBlock: OJICUG_clean_linker_0, # of connection points: 2
#     Edge 18, Type (0, 0), BuildingBlock: OJICUG_clean_linker_0, # of connection points: 2
#     Edge 19, Type (0, 0), BuildingBlock: OJICUG_clean_linker_0, # of connection points: 2
#     Edge 20, Type (0, 0), BuildingBlock: OJICUG_clean_linker_0, # of connection points: 2
#     Edge 21, Type (0, 0), BuildingBlock: OJICUG_clean_linker_0, # of connection points: 2
#     Edge 22, Type (0, 0), BuildingBlock: OJICUG_clean_linker_0, # of connection points: 2
#     Edge 23, Type (0, 0), BuildingBlock: OJICUG_clean_linker_0, # of connection points: 2
#     Edge 24, Type (0, 0), BuildingBlock: OJICUG_clean_linker_0, # of connection points: 2
#     Edge 25, Type (0, 0), BuildingBlock: OJICUG_clean_linker_0, # of connection points: 2
#     Edge 26, Type (0, 0), BuildingBlock: OJICUG_clean_linker_0, # of connection points: 2
#     Edge 27, Type (0, 0), BuildingBlock: OJICUG_clean_linker_0, # of connection points: 2
#     Edge 28, Type (0, 0), BuildingBlock: OJICUG_clean_linker_0, # of connection points: 2
#     Edge 29, Type (0, 0), BuildingBlock: OJICUG_clean_linker_0, # of connection points: 2
#     Edge 30, Type (0, 0), BuildingBlock: OJICUG_clean_linker_0, # of connection points: 2
#     Edge 31, Type (0, 0), BuildingBlock: OJICUG_clean_linker_0, # of connection points: 2
#     Edge 32, Type (0, 0), BuildingBlock: OJICUG_clean_linker_0, # of connection points: 2
#     Edge 33, Type (0, 0), BuildingBlock: OJICUG_clean_linker_0, # of connection points: 2
#     Edge 34, Type (0, 0), BuildingBlock: OJICUG_clean_linker_0, # of connection points: 2
#     Edge 35, Type (0, 0), BuildingBlock: OJICUG_clean_linker_0, # of connection points: 2
# Relax obj value: 0.318
# Max RMSD: 0.264
# Mean RMSD: 0.264
data_MOF--net-svh--node1-HICVOG_clean_sbu_0--edge1-OJICUG_clean_linker_0
_symmetry_space_group_name_H-M    P1
_symmetry_Int_Tables_number       1
_symmetry_cell_setting            triclinic
loop_
_symmetry_equiv_pos_as_xyz
'x, y, z'
_cell_length_a     14.505536
_cell_length_b     14.439545
_cell_length_c     71.386015
_cell_angle_alpha  88.519982
_cell_angle_beta   87.081492
_cell_angle_gamma 91.104111
loop_
_atom_site_label
_atom_site_type_symbol
_atom_site_fract_x
_atom_site_fract_y
_atom_site_fract_z
_atom_type_partial_charge
Zn0 Zn 0.1014 0.9731 0.10363 0.0
C1 C 0.96074 0.80494 0.07209 0.0
N2 N 0.95597 0.87739 0.05997 0.0
C3 C 0.98891 0.94841 0.06973 0.0
N4 N 0.01356 0.92023 0.08701 0.0
N5 N 0.99294 0.8307 0.08855 0.0
C6 C 0.07123 0.56412 0.10699 0.0
O7 O 0.14853 0.60167 0.11231 0.0
O8 O 0.10571 0.11425 0.10265 0.0
Zn9 Zn 0.99742 0.75181 0.11112 0.0
N10 N 0.22195 0.92626 0.09482 0.0
C11 C 0.3095 0.86348 0.06912 0.0
C12 C 0.22644 0.89374 0.07704 0.0
C13 C 0.2982 0.92626 0.10527 0.0
N14 N 0.38547 0.86528 0.07932 0.0
C15 C 0.38265 0.89524 0.09724 0.0
O16 O 0.10018 0.78609 0.12807 0.0
C17 C 0.08648 0.85538 0.13843 0.0
O18 O 0.07136 0.93433 0.131 0.0
H19 H 0.1665 0.89233 0.06877 0.0
H20 H 0.29353 0.95131 0.11944 0.0
C21 C 0.80759 0.80342 0.11896 0.0
C22 C 0.72597 0.81166 0.13043 0.0
C23 C 0.80224 0.7423 0.15581 0.0
C24 C 0.8817 0.73316 0.14429 0.0
N25 N 0.8835 0.76535 0.12623 0.0
N26 N 0.72658 0.78075 0.14863 0.0
H27 H 0.81108 0.82402 0.1043 0.0
C28 C 0.03516 0.16513 0.1021 0.0
O29 O 0.95279 0.12583 0.10187 0.0
O30 O 1.00142 0.61496 0.10517 0.0
H31 H 0.94174 0.70056 0.14968 0.0
H32 H 0.31367 0.83871 0.05493 0.0
H33 H 0.80023 0.71795 0.17029 0.0
Zn34 Zn 0.37758 0.76306 0.3447 0.0
C35 C 0.5541 0.59966 0.3167 0.0
N36 N 0.48091 0.57605 0.30696 0.0
C37 C 0.41121 0.61654 0.31661 0.0
N38 N 0.44024 0.66368 0.3314 0.0
N39 N 0.53029 0.65084 0.33165 0.0
C40 C 0.78311 0.77071 0.35695 0.0
O41 O 0.74209 0.7942 0.37291 0.0
O42 O 0.23527 0.75554 0.343 0.0
Zn43 Zn 0.609 0.66506 0.35281 0.0
N44 N 0.42786 0.87717 0.33263 0.0
C45 C 0.49474 0.9497 0.30467 0.0
C46 C 0.45832 0.87156 0.31433 0.0
C47 C 0.43687 0.95784 0.34194 0.0
N48 N 0.50289 0.03002 0.31384 0.0
C49 C 0.47606 0.03673 0.33229 0.0
O50 O 0.54352 0.71436 0.37628 0.0
C51 C 0.46667 0.74392 0.383 0.0
O52 O 0.40015 0.76145 0.37256 0.0
H53 H 0.45525 0.80679 0.30718 0.0
H54 H 0.41412 0.96014 0.35658 0.0
C55 C 0.58632 0.46657 0.35617 0.0
C56 C 0.60834 0.37719 0.36259 0.0
C57 C 0.72677 0.44296 0.38015 0.0
C58 C 0.70621 0.531 0.37329 0.0
N59 N 0.63685 0.54102 0.36136 0.0
N60 N 0.67801 0.3683 0.37456 0.0
H61 H 0.52908 0.47722 0.34733 0.0
C62 C 0.18374 0.81392 0.35133 0.0
O63 O 0.22302 0.87923 0.36084 0.0
O64 O 0.73758 0.72306 0.34566 0.0
H65 H 0.7446 0.59108 0.37757 0.0
H66 H 0.51786 0.94641 0.29008 0.0
H67 H 0.78158 0.43386 0.38971 0.0
Zn68 Zn 0.60446 0.29628 0.59968 0.0
C69 C 0.455 0.12993 0.56858 0.0
N70 N 0.44071 0.20623 0.55812 0.0
C71 C 0.476 0.27416 0.56835 0.0
N72 N 0.51129 0.24043 0.58439 0.0
N73 N 0.49551 0.14966 0.58455 0.0
C74 C 0.60356 0.88908 0.6105 0.0
O75 O 0.62686 0.92908 0.62594 0.0
O76 O 0.59394 0.43867 0.59957 0.0
Zn77 Zn 0.49699 0.05869 0.60535 0.0
N78 N 0.72239 0.26012 0.58763 0.0
C79 C 0.80155 0.21762 0.55913 0.0
C80 C 0.72129 0.24229 0.56898 0.0
C81 C 0.80099 0.24864 0.59706 0.0
N82 N 0.87968 0.20723 0.56842 0.0
C83 C 0.88213 0.22079 0.58718 0.0
O84 O 0.53825 0.10865 0.62948 0.0
C85 C 0.57014 0.18018 0.63708 0.0
O86 O 0.59501 0.25292 0.62742 0.0
H87 H 0.65865 0.24691 0.5616 0.0
H88 H 0.79997 0.26045 0.61198 0.0
C89 C 0.30076 0.08387 0.60829 0.0
C90 C 0.20932 0.05954 0.61425 0.0
C91 C 0.26323 0.92186 0.62857 0.0
C92 C 0.35331 0.94563 0.62233 0.0
N93 N 0.37018 0.02581 0.61226 0.0
N94 N 0.19358 0.97891 0.62433 0.0
H95 H 0.31731 0.14865 0.60085 0.0
C96 C 0.65245 0.49086 0.60715 0.0
O97 O 0.7209 0.4524 0.61563 0.0
O98 O 0.55531 0.93384 0.59906 0.0
H99 H 0.40963 0.90126 0.62572 0.0
H100 H 0.80147 0.20498 0.54426 0.0
H101 H 0.24865 0.85844 0.63667 0.0
Zn102 Zn 0.90186 0.43263 0.85083 0.0
C103 C 0.0852 0.28293 0.82262 0.0
N104 N 0.01737 0.2683 0.8108 0.0
C105 C 0.94397 0.30516 0.81987 0.0
N106 N 0.96553 0.34062 0.8364 0.0
N107 N 0.05402 0.32479 0.8384 0.0
C108 C 0.31031 0.41256 0.85686 0.0
O109 O 0.2753 0.49531 0.85863 0.0
O110 O 0.76227 0.43632 0.84817 0.0
Zn111 Zn 0.11631 0.33605 0.86219 0.0
N112 N 0.95727 0.55075 0.84194 0.0
C113 C 0.03786 0.63452 0.81675 0.0
C114 C 1.00072 0.55206 0.82456 0.0
C115 C 0.95215 0.62917 0.85211 0.0
N116 N 0.03139 0.71281 0.8267 0.0
C117 C 0.99008 0.71277 0.84424 0.0
O118 O 0.0674 0.43445 0.88038 0.0
C119 C 0.98632 0.42427 0.88812 0.0
O120 O 0.91706 0.41082 0.87829 0.0
H121 H 0.00564 0.48993 0.81655 0.0
H122 H 0.91774 0.62666 0.86594 0.0
C123 C 0.06481 0.14342 0.86837 0.0
C124 C 0.04362 0.06277 0.87945 0.0
C125 C 0.07902 0.14558 0.90663 0.0
C126 C 0.10016 0.22464 0.89555 0.0
N127 N 0.09144 0.2224 0.8767 0.0
N128 N 0.05156 0.06684 0.89836 0.0
H129 H 0.0624 0.14401 0.8533 0.0
C130 C 0.70744 0.36663 0.85059 0.0
O131 O 0.74165 0.28477 0.85411 0.0
O132 O 0.25649 0.34175 0.85779 0.0
H133 H 0.1231 0.28757 0.90193 0.0
H134 H 0.07152 0.63643 0.80286 0.0
H135 H 0.08486 0.14655 0.92167 0.0
Zn136 Zn 0.90359 0.4898 1.00573 0.0
C137 C 0.04398 0.31134 1.03534 0.0
N138 N 0.05063 0.37976 1.04771 0.0
C139 C 0.01775 0.45309 1.03833 0.0
N140 N 0.99195 0.43064 1.02109 0.0
N141 N 0.01074 0.34217 1.01901 0.0
C142 C 0.9269 0.08209 0.99977 0.0
O143 O 0.84674 0.11737 0.99612 0.0
O144 O 0.89734 0.62995 1.00803 0.0
Zn145 Zn 0.0041 0.27504 0.9954 0.0
N146 N 0.7844 0.43301 1.01387 0.0
C147 C 0.6972 0.34839 1.03809 0.0
C148 C 0.78056 0.38576 1.03069 0.0
C149 C 0.70743 0.44165 1.00385 0.0
N150 N 0.62041 0.35847 1.02832 0.0
C151 C 0.62287 0.40363 1.01134 0.0
O152 O 0.90776 0.31946 0.97735 0.0
C153 C 0.92252 0.39791 0.96898 0.0
O154 O 0.9346 0.47019 0.97838 0.0
H155 H 0.84113 0.37842 1.03867 0.0
H156 H 0.71173 0.47894 0.99048 0.0
C157 C 0.19561 0.32984 0.98859 0.0
C158 C 0.2769 0.34758 0.97724 0.0
C159 C 0.19819 0.29729 0.95078 0.0
C160 C 0.11889 0.2788 0.96215 0.0
N161 N 0.11864 0.2969 0.98073 0.0
N162 N 0.275 0.33075 0.95856 0.0
H163 H 0.19286 0.33943 1.00354 0.0
C164 C 0.9676 0.68432 1.0072 0.0
O165 O 0.05042 0.64914 1.00562 0.0
O166 O 0.99739 0.1356 1.00023 0.0
H167 H 0.05762 0.25062 0.95621 0.0
H168 H 0.69339 0.31182 1.05154 0.0
H169 H 0.19909 0.28433 0.93591 0.0
Zn170 Zn 0.8853 0.66279 0.24335 0.0
C171 C 0.0595 0.6103 0.28396 0.0
N172 N 0.98498 0.56907 0.29281 0.0
C173 C 0.91706 0.59194 0.28153 0.0
N174 N 0.94891 0.64404 0.26653 0.0
N175 N 0.03827 0.65739 0.26827 0.0
C176 C 0.29536 0.69743 0.25545 0.0
O177 O 0.25822 0.61979 0.24988 0.0
O178 O 0.74508 0.66841 0.24861 0.0
Zn179 Zn 0.10276 0.76081 0.25556 0.0
N180 N 0.90367 0.55024 0.22933 0.0
C181 C 0.90763 0.47341 0.20023 0.0
C182 C 0.8951 0.55357 0.21047 0.0
C183 C 0.92436 0.46977 0.23837 0.0
N184 N 0.92699 0.3928 0.20931 0.0
C185 C 0.93533 0.38783 0.22824 0.0
O186 O 0.0875 0.76011 0.22773 0.0
C187 C 0.01825 0.77537 0.21793 0.0
O188 O 0.93551 0.76705 0.22494 0.0
H189 H 0.87875 0.61803 0.20345 0.0
H190 H 0.93286 0.47056 0.25325 0.0
C191 C 0.04186 0.95326 0.25623 0.0
C192 C 0.99354 0.02791 0.2643 0.0
C193 C 0.95528 0.93258 0.29138 0.0
C194 C 1.00183 0.85951 0.28328 0.0
N195 N 0.04473 0.8708 0.26594 0.0
N196 N 0.9521 0.01426 0.28174 0.0
H197 H 0.07668 0.95951 0.24251 0.0
C198 C 0.6958 0.73641 0.25365 0.0
O199 O 0.7361 0.81693 0.25631 0.0
O200 O 0.24293 0.76528 0.25905 0.0
H201 H 0.00266 0.79392 0.29083 0.0
H202 H 0.90137 0.47505 0.18519 0.0
H203 H 0.92106 0.92429 0.30517 0.0
Zn204 Zn 0.35315 0.80925 0.50149 0.0
C205 C 0.49943 0.63586 0.53253 0.0
N206 N 0.51518 0.70976 0.54298 0.0
C207 C 0.48072 0.77956 0.53279 0.0
N208 N 0.44492 0.74962 0.51677 0.0
N209 N 0.45878 0.65912 0.51658 0.0
C210 C 0.34569 0.40384 0.48935 0.0
O211 O 0.33223 0.444 0.47302 0.0
O212 O 0.36065 0.95211 0.50251 0.0
Zn213 Zn 0.45204 0.57532 0.49558 0.0
N214 N 0.23466 0.76302 0.51276 0.0
C215 C 0.15483 0.70427 0.54075 0.0
C216 C 0.23559 0.73495 0.53114 0.0
C217 C 0.15549 0.75667 0.50333 0.0
N218 N 0.0761 0.69918 0.53148 0.0
C219 C 0.07369 0.72352 0.51298 0.0
O220 O 0.41891 0.63722 0.47145 0.0
C221 C 0.39339 0.7122 0.46375 0.0
O222 O 0.36864 0.78122 0.47346 0.0
H223 H 0.2983 0.73672 0.53855 0.0
H224 H 0.15634 0.77706 0.48863 0.0
C225 C 0.64879 0.59868 0.49237 0.0
C226 C 0.73893 0.57539 0.48629 0.0
C227 C 0.67898 0.44033 0.47257 0.0
C228 C 0.59013 0.463 0.47892 0.0
N229 N 0.57687 0.54135 0.48877 0.0
N230 N 0.75111 0.49659 0.47646 0.0
H231 H 0.63518 0.66226 0.49958 0.0
C232 C 0.3061 1.00214 0.49336 0.0
O233 O 0.24549 0.96095 0.48314 0.0
O234 O 0.38688 0.44961 0.50157 0.0
H235 H 0.53203 0.41936 0.47572 0.0
H236 H 0.15484 0.68343 0.55542 0.0
H237 H 0.69067 0.37843 0.46464 0.0
Zn238 Zn 0.43041 0.16991 0.75584 0.0
C239 C 0.59532 0.32546 0.78615 0.0
N240 N 0.51956 0.34043 0.79711 0.0
C241 C 0.45168 0.3029 0.78735 0.0
N242 N 0.48524 0.26547 0.7711 0.0
N243 N 0.5756 0.28202 0.77042 0.0
C244 C 0.84079 0.17122 0.7449 0.0
O245 O 0.80315 0.14473 0.72952 0.0
O246 O 0.28852 0.18222 0.75581 0.0
Zn247 Zn 0.66898 0.27553 0.74971 0.0
N248 N 0.46406 0.05327 0.76812 0.0
C249 C 0.50473 0.97725 0.79649 0.0
C250 C 0.48025 0.05659 0.78674 0.0
C251 C 0.47701 0.97346 0.75862 0.0
N252 N 0.5167 0.89793 0.78712 0.0
C253 C 0.50481 0.89336 0.76839 0.0
O254 O 0.62315 0.22536 0.72617 0.0
C255 C 0.55332 0.1919 0.71852 0.0
O256 O 0.47824 0.17159 0.72802 0.0
H257 H 0.47484 0.1203 0.79416 0.0
H258 H 0.46666 0.97289 0.74372 0.0
C259 C 0.64303 0.47162 0.74622 0.0
C260 C 0.6668 0.56257 0.73998 0.0
C261 C 0.80234 0.5062 0.72444 0.0
C262 C 0.77934 0.41667 0.73103 0.0
N263 N 0.70051 0.40132 0.74186 0.0
N264 N 0.74605 0.57687 0.72913 0.0
H265 H 0.57923 0.45611 0.75425 0.0
C266 C 0.23692 0.12198 0.74853 0.0
O267 O 0.27563 0.05076 0.74044 0.0
O268 O 0.79402 0.22086 0.75626 0.0
H269 H 0.82332 0.35958 0.72738 0.0
H270 H 0.51617 0.97907 0.81134 0.0
H271 H 0.86469 0.5196 0.71575 0.0
C272 C 0.98448 0.86558 0.18846 0.0
C273 C 0.03583 0.79853 0.1977 0.0
H274 H 0.96278 0.93875 0.1625 0.0
C275 C 0.10606 0.75307 0.18745 0.0
H276 H 0.93017 0.90176 0.19603 0.0
C277 C 0.12324 0.77246 0.16827 0.0
C278 C 0.07272 0.84006 0.15902 0.0
H279 H 0.14643 0.7007 0.1942 0.0
H280 H 0.1761 0.73449 0.16064 0.0
C281 C 0.00389 0.88736 0.16935 0.0
C282 C 0.37821 0.79306 0.41256 0.0
C283 C 0.44985 0.7427 0.40376 0.0
H284 H 0.30446 0.82444 0.43856 0.0
C285 C 0.50154 0.68359 0.41491 0.0
H286 H 0.33678 0.83885 0.40435 0.0
C287 C 0.48113 0.67315 0.43416 0.0
C288 C 0.40969 0.72302 0.44305 0.0
H289 H 0.5565 0.6429 0.40867 0.0
H290 H 0.52258 0.62637 0.44216 0.0
C291 C 0.35932 0.78447 0.4321 0.0
C292 C 0.62632 0.24148 0.66726 0.0
C293 C 0.56894 0.18062 0.65794 0.0
H294 H 0.66731 0.29139 0.6936 0.0
C295 C 0.50692 0.12179 0.66876 0.0
H296 H 0.67461 0.28766 0.65939 0.0
C297 C 0.50117 0.12511 0.6884 0.0
C298 C 0.55887 0.18574 0.69772 0.0
H299 H 0.46102 0.07448 0.66201 0.0
H300 H 0.4519 0.08002 0.69629 0.0
C301 C 0.62212 0.24323 0.68689 0.0
C302 C 0.89028 0.34634 0.93656 0.0
C303 C 0.93857 0.4043 0.94828 0.0
H304 H 0.86658 0.30893 0.90832 0.0
C305 C 0.00473 0.46797 0.94009 0.0
H306 H 0.83958 0.29626 0.94246 0.0
C307 C 0.02227 0.47345 0.92058 0.0
C308 C 0.97183 0.41751 0.90884 0.0
H309 H 0.04418 0.51258 0.94882 0.0
H310 H 0.07382 0.52263 0.91467 0.0
C311 C 0.90569 0.35392 0.91704 0.0
C312 C 0.91275 0.58254 1.04747 0.0
C313 C 0.99977 0.54152 1.04749 0.0
H314 H 0.83176 0.70016 0.05522 0.0
C315 C 0.07031 0.58377 0.05712 0.0
H316 H 0.85646 0.55012 1.04062 0.0
C317 C 0.05565 0.66811 0.06575 0.0
C318 C 0.96949 0.71045 0.06529 0.0
H319 H 0.13756 0.55261 0.05758 0.0
H320 H 0.11243 0.70141 0.07245 0.0
C321 C 0.89812 0.66753 0.05602 0.0
C322 C 0.69905 0.67713 0.30473 0.0
C323 C 0.64856 0.59452 0.30854 0.0
H324 H 0.82313 0.74039 0.29245 0.0
C325 C 0.68397 0.5105 0.30216 0.0
H326 H 0.67148 0.74301 0.309 0.0
C327 C 0.77103 0.50897 0.29272 0.0
C328 C 0.82098 0.59199 0.28886 0.0
H329 H 0.64478 0.44636 0.30465 0.0
H330 H 0.7994 0.44341 0.2885 0.0
C331 C 0.78448 0.67589 0.29492 0.0
C332 C 0.40827 0.40448 0.55108 0.0
C333 C 0.48337 0.37011 0.56059 0.0
H334 H 0.35471 0.51622 0.53493 0.0
C335 C 0.56603 0.42275 0.56 0.0
H336 H 0.34387 0.36512 0.55109 0.0
C337 C 0.57284 0.50847 0.55034 0.0
C338 C 0.4978 0.54159 0.54073 0.0
H339 H 0.62606 0.39795 0.56664 0.0
H340 H 0.63657 0.54885 0.55037 0.0
C341 C 0.41507 0.48971 0.54144 0.0
C342 C 0.81507 0.23398 0.80386 0.0
C343 C 0.85489 0.31324 0.81124 0.0
H344 H 0.69997 0.17654 0.79027 0.0
C345 C 0.81156 0.39885 0.8093 0.0
H346 H 0.8481 0.16752 0.80499 0.0
C347 C 0.72702 0.40422 0.80078 0.0
C348 C 0.68713 0.32445 0.79362 0.0
H349 H 0.84218 0.46129 0.81446 0.0
H350 H 0.6929 0.47013 0.79981 0.0
C351 C 0.73123 0.23935 0.79531 0.0
C352 C 0.21572 0.20747 0.80532 0.0
C353 C 0.18242 0.28217 0.81567 0.0
H354 H 0.32623 0.15406 0.78832 0.0
C355 C 0.23601 0.36383 0.81587 0.0
H356 H 0.17411 0.14474 0.80446 0.0
C357 C 0.3224 0.36997 0.80628 0.0
C358 C 0.35611 0.29554 0.7958 0.0
H359 H 0.20967 0.4242 0.8229 0.0
H360 H 0.36259 0.43378 0.80688 0.0
C361 C 0.30217 0.21376 0.79565 0.0
C362 C 0.27649 0.53167 0.30532 0.0
C363 C 0.31778 0.61631 0.30979 0.0
H364 H 0.16047 0.46407 0.29367 0.0
C365 C 0.27407 0.69925 0.3055 0.0
H366 H 0.31007 0.46684 0.30824 0.0
C367 C 0.18989 0.69771 0.29696 0.0
C368 C 0.14911 0.61324 0.29237 0.0
H369 H 0.30482 0.76542 0.30845 0.0
H370 H 0.15743 0.76262 0.29389 0.0
C371 C 0.19182 0.53007 0.29692 0.0
C372 C 0.54083 0.99106 0.55944 0.0
C373 C 0.45732 0.03825 0.56033 0.0
H374 H 0.61312 0.87255 0.54968 0.0
C375 C 0.38182 1.00328 0.55109 0.0
H376 H 0.60113 0.01901 0.56587 0.0
C377 C 0.38915 0.92014 0.54155 0.0
C378 C 0.47279 0.87259 0.54066 0.0
H379 H 0.3174 0.04009 0.55129 0.0
H380 H 0.32891 0.89324 0.53519 0.0
C381 C 0.5482 0.90853 0.54987 0.0
C382 C 0.09158 0.0884 0.06162 0.0
C383 C 0.00657 0.04085 0.06075 0.0
H384 H 0.17066 0.2126 0.05409 0.0
C385 C 0.9382 0.07944 1.04993 0.0
H386 H 0.14649 0.05944 0.06939 0.0
C387 C 0.95275 0.16573 1.04088 0.0
C388 C 0.03698 0.21405 1.042 0.0
H389 H 0.87241 0.04369 1.0488 0.0
H390 H 0.89687 0.19609 1.03347 0.0
C391 C 0.10613 0.17518 0.05258 0.0
C392 C 0.46922 0.84851 0.12536 0.0
C393 C 0.46843 0.89086 0.10748 0.0
H394 H 0.55104 0.78943 0.14647 0.0
C395 C 0.55266 0.91646 0.09804 0.0
H396 H 0.40517 0.82721 0.13285 0.0
C397 C 0.63642 0.89577 0.10582 0.0
C398 C 0.63806 0.84649 0.12308 0.0
H399 H 0.55373 0.9501 0.08428 0.0
H400 H 0.69921 0.91692 0.09794 0.0
C401 C 0.55318 0.82634 0.13305 0.0
C402 C 0.49385 0.20845 0.3308 0.0
C403 C 0.49441 0.12543 0.3415 0.0
H404 H 0.52966 0.35209 0.32876 0.0
C405 C 0.52459 0.12762 0.35988 0.0
H406 H 0.47116 0.20894 0.31657 0.0
C407 C 0.55808 0.21048 0.36699 0.0
C408 C 0.56139 0.29277 0.35594 0.0
H409 H 0.52743 0.06466 0.36838 0.0
H410 H 0.58408 0.20946 0.38095 0.0
C411 C 0.52684 0.29105 0.3379 0.0
C412 C 0.96615 0.15047 0.61378 0.0
C413 C 0.96827 0.19808 0.59635 0.0
H414 H 0.04148 0.06969 0.63313 0.0
C415 C 0.05297 0.20975 0.58603 0.0
H416 H 0.90178 0.13907 0.62194 0.0
C417 C 0.13265 0.16922 0.59228 0.0
C418 C 0.12958 0.11609 0.60909 0.0
H419 H 0.05667 0.24612 0.57253 0.0
H420 H 0.19475 0.17489 0.58323 0.0
C421 C 0.04608 0.10967 0.62005 0.0
C422 C 0.02874 0.88922 0.88132 0.0
C423 C 0.01808 0.97292 0.87111 0.0
H424 H 0.02737 0.74069 0.8809 0.0
C425 C 0.98635 0.96867 0.85283 0.0
H426 H 0.05218 0.88934 0.89548 0.0
C427 C 0.97324 0.88346 0.8445 0.0
C428 C 0.98892 0.80046 0.85436 0.0
H429 H 0.97279 0.03059 0.84468 0.0
H430 H 0.95262 0.88249 0.83012 0.0
C431 C 0.01404 0.80379 0.87304 0.0
C432 C 0.44961 0.36587 0.9746 0.0
C433 C 0.36572 0.37716 0.98512 0.0
H434 H 0.59753 0.36671 0.97459 0.0
C435 C 0.36921 0.41165 1.00335 0.0
H436 H 0.45028 0.34065 0.96044 0.0
C437 C 0.45375 0.42542 1.01142 0.0
C438 C 0.53674 0.40785 1.00133 0.0
H439 H 0.30732 0.42605 1.01174 0.0
H440 H 0.45418 0.4471 1.02584 0.0
C441 C 0.53432 0.38135 0.98262 0.0
C442 C 0.00355 0.13595 0.23537 0.0
C443 C 0.98421 0.12046 0.25475 0.0
H444 H 0.00438 0.23193 0.21199 0.0
C445 C 0.95028 0.1947 0.26532 0.0
H446 H 0.02793 0.08112 0.22649 0.0
C447 C 0.93484 0.28079 0.25689 0.0
C448 C 0.95426 0.29669 0.23755 0.0
H449 H 0.93396 0.18645 0.28025 0.0
H450 H 0.90525 0.33342 0.2657 0.0
C451 C 0.989 0.22292 0.22694 0.0
C452 C 0.98575 0.66511 0.48624 0.0
C453 C 0.9864 0.70687 0.50377 0.0
H454 H 0.90589 0.59091 0.46692 0.0
C455 C 0.90267 0.71659 0.51423 0.0
H456 H 0.04942 0.65552 0.47799 0.0
C457 C 0.82087 0.67893 0.50805 0.0
C458 C 0.82099 0.6307 0.49119 0.0
H459 H 0.90134 0.74849 0.52781 0.0
H460 H 0.75936 0.68226 0.51722 0.0
C461 C 0.90367 0.62707 0.48004 0.0
C462 C 0.55921 0.64185 0.76286 0.0
C463 C 0.61112 0.64332 0.74567 0.0
H464 H 0.48274 0.7196 0.78314 0.0
C465 C 0.61675 0.72608 0.73476 0.0
H466 H 0.55432 0.58053 0.77192 0.0
C467 C 0.57591 0.80677 0.74138 0.0
C468 C 0.52897 0.80615 0.75908 0.0
H469 H 0.6559 0.7295 0.72142 0.0
H470 H 0.5865 0.87056 0.73317 0.0
C471 C 0.51852 0.72219 0.76943 0.0
C472 C 0.97908 0.421 0.09996 0.0
C473 C 0.06376 0.46273 0.10417 0.0
H474 H 0.90357 0.29456 0.09601 0.0
C475 C 0.14025 0.40598 0.10649 0.0
H476 H 0.91896 0.46265 0.09788 0.0
C477 C 0.13149 0.30963 0.10533 0.0
C478 C 0.04588 0.26762 0.10194 0.0
H479 H 0.20668 0.43575 0.10958 0.0
H480 H 0.19144 0.26794 0.10756 0.0
C481 C 0.97018 0.32454 0.09893 0.0
C482 C 0.93012 0.8528 0.36449 0.0
C483 C 0.88452 0.78812 0.35364 0.0
H484 H 0.05862 0.91215 0.37212 0.0
C485 C 0.93812 0.73497 0.34106 0.0
H486 H 0.89131 0.89509 0.37428 0.0
C487 C 0.03515 0.74356 0.34005 0.0
C488 C 0.08071 0.80671 0.35133 0.0
H489 H 0.90545 0.68411 0.33253 0.0
H490 H 0.07437 0.69951 0.33071 0.0
C491 C 0.0265 0.86243 0.36326 0.0
C492 C 0.69735 0.64816 0.61833 0.0
C493 C 0.64304 0.5936 0.60691 0.0
H494 H 0.72775 0.78335 0.62834 0.0
C495 C 0.57963 0.63835 0.59562 0.0
H496 H 0.74709 0.61644 0.62717 0.0
C497 C 0.56972 0.73496 0.59605 0.0
C498 C 0.62182 0.78882 0.60802 0.0
H499 H 0.53682 0.5987 0.58662 0.0
H500 H 0.51895 0.76694 0.58748 0.0
C501 C 0.6864 0.74418 0.61898 0.0
C502 C 0.54539 0.30107 0.85159 0.0
C503 C 0.6058 0.37857 0.85059 0.0
H504 H 0.40532 0.25082 0.85417 0.0
C505 C 0.56789 0.46755 0.85053 0.0
H506 H 0.57207 0.23154 0.85146 0.0
C507 C 0.47206 0.47869 0.85224 0.0
C508 C 0.41175 0.40113 0.85391 0.0
H509 H 0.6123 0.52883 0.84968 0.0
H510 H 0.4454 0.5482 0.85256 0.0
C511 C 0.44961 0.31219 0.85316 0.0
C512 C 0.85864 0.92064 1.00296 0.0
C513 C 0.93604 0.98069 1.00308 0.0
H514 H 0.8076 0.78027 1.00435 0.0
C515 C 0.02297 0.94257 1.00591 0.0
H516 H 0.79053 0.9476 1.00101 0.0
C517 C 0.03285 0.84655 1.00774 0.0
C518 C 0.95596 0.78631 1.00692 0.0
H519 H 0.08398 0.98676 1.00633 0.0
H520 H 0.10109 0.81952 1.00949 0.0
C521 C 0.86843 0.8246 1.00492 0.0
C522 C 0.45379 0.62925 0.25385 0.0
C523 C 0.39749 0.70646 0.25668 0.0
H524 H 0.59114 0.57769 0.25087 0.0
C525 C 0.44031 0.7926 0.25979 0.0
H526 H 0.42342 0.56155 0.25164 0.0
C527 C 0.53697 0.80198 0.25922 0.0
C528 C 0.59325 0.7254 0.25567 0.0
H529 H 0.39927 0.85346 0.26216 0.0
H530 H 0.56761 0.86985 0.26107 0.0
C531 C 0.55025 0.63852 0.25339 0.0
C532 C 0.27085 0.25523 0.47996 0.0
C533 C 0.32822 0.30219 0.49202 0.0
H534 H 0.21839 0.12502 0.47105 0.0
C535 C 0.37538 0.24969 0.50527 0.0
H536 H 0.23357 0.29328 0.46959 0.0
C537 C 0.36797 0.15239 0.5059 0.0
C538 C 0.31206 0.10544 0.4935 0.0
H539 H 0.42085 0.28348 0.51468 0.0
H540 H 0.40713 0.11402 0.5159 0.0
C541 C 0.26236 0.15842 0.48078 0.0
C542 C 0.99265 0.20821 0.75929 0.0
C543 C 0.94041 0.15365 0.74745 0.0
H544 H 0.12727 0.24256 0.7687 0.0
C545 C 0.98616 0.08669 0.73669 0.0
H546 H 0.95981 0.26087 0.7677 0.0
C547 C 0.08161 0.07564 0.7374 0.0
C548 C 0.13464 0.13215 0.74868 0.0
H549 H 0.9483 0.04339 0.72744 0.0
H550 H 0.11414 0.02392 0.7287 0.0
C551 C 0.08881 0.1981 0.75978 0.0
loop_
_geom_bond_atom_site_label_1
_geom_bond_atom_site_label_2
_geom_bond_distance
_geom_bond_site_symmetry_2
_ccdc_geom_bond_type
Zn0 N4 2.020 . S
Zn0 O8 2.019 . S
Zn0 N10 2.119 . S
Zn0 O18 1.975 . S
C1 N2 1.334 1_655 S
C1 N5 1.336 . S
N2 C1 1.334 1_455 S
N2 C3 1.334 . S
C3 N2 1.334 . S
C3 N4 1.336 . S
N4 Zn0 2.020 . S
N4 C3 1.336 . S
N4 N5 1.354 1_455 S
N5 C1 1.336 . S
N5 N4 1.354 1_655 S
N5 Zn9 2.020 . S
C6 O7 1.244 1_655 S
C6 O30 1.257 . S
O7 C6 1.244 1_455 S
O8 Zn0 2.019 . S
O8 C28 1.257 1_565 S
Zn9 N5 2.020 . S
Zn9 O16 1.975 . S
Zn9 N25 2.119 . S
Zn9 O30 2.019 . S
N10 Zn0 2.119 . S
N10 C12 1.334 . S
N10 C13 1.328 . S
C11 C12 1.391 . S
C11 N14 1.329 . S
C11 H32 0.930 . S
C12 N10 1.334 . S
C12 C11 1.391 . S
C12 H19 0.930 . S
C13 N10 1.328 . S
C13 C15 1.392 . S
C13 H20 0.930 . S
N14 C11 1.329 . S
N14 C15 1.331 . S
C15 C13 1.392 . S
C15 N14 1.331 . S
O16 Zn9 1.975 . S
O16 C17 1.252 1_655 S
C17 O16 1.252 1_455 S
C17 O18 1.252 . S
O18 Zn0 1.975 . S
O18 C17 1.252 . S
H19 C12 0.930 . S
H20 C13 0.930 . S
C21 C22 1.392 . S
C21 N25 1.328 . S
C21 H27 0.930 . S
C22 C21 1.392 . S
C22 N26 1.331 . S
C23 C24 1.391 . S
C23 N26 1.329 . S
C23 H33 0.930 . S
C24 C23 1.391 . S
C24 N25 1.334 . S
C24 H31 0.930 . S
N25 Zn9 2.119 . S
N25 C21 1.328 . S
N25 C24 1.334 . S
N26 C22 1.331 . S
N26 C23 1.329 . S
H27 C21 0.930 . S
C28 O8 1.257 1_545 S
C28 O29 1.244 1_445 S
O29 C28 1.244 1_665 S
O30 C6 1.257 . S
O30 Zn9 2.019 . S
H31 C24 0.930 . S
H32 C11 0.930 . S
H33 C23 0.930 . S
Zn34 N38 2.020 . S
Zn34 O42 2.019 . S
Zn34 N44 2.119 . S
Zn34 O52 1.975 . S
C35 N36 1.334 . S
C35 N39 1.336 . S
N36 C35 1.334 . S
N36 C37 1.334 . S
C37 N36 1.334 . S
C37 N38 1.336 . S
N38 Zn34 2.020 . S
N38 C37 1.336 . S
N38 N39 1.354 . S
N39 C35 1.336 . S
N39 N38 1.354 . S
N39 Zn43 2.020 . S
C40 O41 1.244 . S
C40 O64 1.257 . S
O41 C40 1.244 . S
O42 Zn34 2.019 . S
O42 C62 1.257 . S
Zn43 N39 2.020 . S
Zn43 O50 1.975 . S
Zn43 N59 2.119 . S
Zn43 O64 2.019 . S
N44 Zn34 2.119 . S
N44 C46 1.334 . S
N44 C47 1.328 1_565 S
C45 C46 1.391 1_545 S
C45 N48 1.329 . S
C45 H66 0.930 . S
C46 N44 1.334 . S
C46 C45 1.391 1_565 S
C46 H53 0.930 . S
C47 N44 1.328 1_545 S
C47 C49 1.392 . S
C47 H54 0.930 . S
N48 C45 1.329 . S
N48 C49 1.331 . S
C49 C47 1.392 . S
C49 N48 1.331 . S
O50 Zn43 1.975 . S
O50 C51 1.252 . S
C51 O50 1.252 . S
C51 O52 1.252 . S
O52 Zn34 1.975 . S
O52 C51 1.252 . S
H53 C46 0.930 . S
H54 C47 0.930 . S
C55 C56 1.392 . S
C55 N59 1.328 . S
C55 H61 0.930 . S
C56 C55 1.392 . S
C56 N60 1.331 . S
C57 C58 1.391 . S
C57 N60 1.329 . S
C57 H67 0.930 . S
C58 C57 1.391 . S
C58 N59 1.334 . S
C58 H65 0.930 . S
N59 Zn43 2.119 . S
N59 C55 1.328 . S
N59 C58 1.334 . S
N60 C56 1.331 . S
N60 C57 1.329 . S
H61 C55 0.930 . S
C62 O42 1.257 . S
C62 O63 1.244 . S
O63 C62 1.244 . S
O64 C40 1.257 . S
O64 Zn43 2.019 . S
H65 C58 0.930 . S
H66 C45 0.930 . S
H67 C57 0.930 . S
Zn68 N72 2.020 . S
Zn68 O76 2.019 . S
Zn68 N78 2.119 . S
Zn68 O86 1.975 . S
C69 N70 1.334 . S
C69 N73 1.336 . S
N70 C69 1.334 . S
N70 C71 1.334 . S
C71 N70 1.334 . S
C71 N72 1.336 . S
N72 Zn68 2.020 . S
N72 C71 1.336 . S
N72 N73 1.354 . S
N73 C69 1.336 . S
N73 N72 1.354 . S
N73 Zn77 2.020 . S
C74 O75 1.244 1_565 S
C74 O98 1.257 1_565 S
O75 C74 1.244 1_545 S
O76 Zn68 2.019 . S
O76 C96 1.257 . S
Zn77 N73 2.020 . S
Zn77 O84 1.975 . S
Zn77 N93 2.119 . S
Zn77 O98 2.019 . S
N78 Zn68 2.119 . S
N78 C80 1.334 . S
N78 C81 1.328 . S
C79 C80 1.391 . S
C79 N82 1.329 . S
C79 H100 0.930 . S
C80 N78 1.334 . S
C80 C79 1.391 . S
C80 H87 0.930 . S
C81 N78 1.328 . S
C81 C83 1.392 . S
C81 H88 0.930 . S
N82 C79 1.329 . S
N82 C83 1.331 . S
C83 C81 1.392 . S
C83 N82 1.331 . S
O84 Zn77 1.975 . S
O84 C85 1.252 . S
C85 O84 1.252 . S
C85 O86 1.252 . S
O86 Zn68 1.975 . S
O86 C85 1.252 . S
H87 C80 0.930 . S
H88 C81 0.930 . S
C89 C90 1.392 . S
C89 N93 1.328 . S
C89 H95 0.930 . S
C90 C89 1.392 . S
C90 N94 1.331 . S
C91 C92 1.391 . S
C91 N94 1.329 . S
C91 H101 0.930 . S
C92 C91 1.391 . S
C92 N93 1.334 . S
C92 H99 0.930 . S
N93 Zn77 2.119 . S
N93 C89 1.328 . S
N93 C92 1.334 . S
N94 C90 1.331 . S
N94 C91 1.329 . S
H95 C89 0.930 . S
C96 O76 1.257 . S
C96 O97 1.244 . S
O97 C96 1.244 . S
O98 C74 1.257 1_545 S
O98 Zn77 2.019 . S
H99 C92 0.930 . S
H100 C79 0.930 . S
H101 C91 0.930 . S
Zn102 N106 2.020 . S
Zn102 O110 2.019 . S
Zn102 N112 2.119 . S
Zn102 O120 1.975 . S
C103 N104 1.334 . S
C103 N107 1.336 . S
N104 C103 1.334 . S
N104 C105 1.334 1_455 S
C105 N104 1.334 1_655 S
C105 N106 1.336 . S
N106 Zn102 2.020 . S
N106 C105 1.336 . S
N106 N107 1.354 1_655 S
N107 C103 1.336 . S
N107 N106 1.354 1_455 S
N107 Zn111 2.020 . S
C108 O109 1.244 . S
C108 O132 1.257 . S
O109 C108 1.244 . S
O110 Zn102 2.019 . S
O110 C130 1.257 . S
Zn111 N107 2.020 . S
Zn111 O118 1.975 . S
Zn111 N127 2.119 . S
Zn111 O132 2.019 . S
N112 Zn102 2.119 . S
N112 C114 1.334 1_655 S
N112 C115 1.328 . S
C113 C114 1.391 . S
C113 N116 1.329 1_455 S
C113 H134 0.930 . S
C114 N112 1.334 1_455 S
C114 C113 1.391 . S
C114 H121 0.930 . S
C115 N112 1.328 . S
C115 C117 1.392 . S
C115 H122 0.930 . S
N116 C113 1.329 1_655 S
N116 C117 1.331 . S
C117 C115 1.392 . S
C117 N116 1.331 . S
O118 Zn111 1.975 . S
O118 C119 1.252 . S
C119 O118 1.252 . S
C119 O120 1.252 1_455 S
O120 Zn102 1.975 . S
O120 C119 1.252 1_655 S
H121 C114 0.930 . S
H122 C115 0.930 . S
C123 C124 1.392 . S
C123 N127 1.328 1_565 S
C123 H129 0.930 . S
C124 C123 1.392 . S
C124 N128 1.331 . S
C125 C126 1.391 1_565 S
C125 N128 1.329 1_655 S
C125 H135 0.930 . S
C126 C125 1.391 1_545 S
C126 N127 1.334 1_655 S
C126 H133 0.930 . S
N127 Zn111 2.119 . S
N127 C123 1.328 1_545 S
N127 C126 1.334 1_455 S
N128 C124 1.331 . S
N128 C125 1.329 1_455 S
H129 C123 0.930 . S
C130 O110 1.257 . S
C130 O131 1.244 . S
O131 C130 1.244 . S
O132 C108 1.257 . S
O132 Zn111 2.019 . S
H133 C126 0.930 . S
H134 C113 0.930 . S
H135 C125 0.930 . S
Zn136 N140 2.020 . S
Zn136 O144 2.019 . S
Zn136 N146 2.119 . S
Zn136 O154 1.975 . S
C137 N138 1.334 . S
C137 N141 1.336 . S
N138 C137 1.334 . S
N138 C139 1.334 1_455 S
C139 N138 1.334 1_655 S
C139 N140 1.336 . S
N140 Zn136 2.020 . S
N140 C139 1.336 . S
N140 N141 1.354 1_655 S
N141 C137 1.336 . S
N141 N140 1.354 1_455 S
N141 Zn145 2.020 . S
C142 O143 1.244 1_465 S
C142 O166 1.257 1_565 S
O143 C142 1.244 1_645 S
O144 Zn136 2.019 . S
O144 C164 1.257 . S
Zn145 N141 2.020 . S
Zn145 O152 1.975 . S
Zn145 N161 2.119 . S
Zn145 O166 2.019 . S
N146 Zn136 2.119 . S
N146 C148 1.334 . S
N146 C149 1.328 . S
C147 C148 1.391 . S
C147 N150 1.329 . S
C147 H168 0.930 . S
C148 N146 1.334 . S
C148 C147 1.391 . S
C148 H155 0.930 . S
C149 N146 1.328 . S
C149 C151 1.392 . S
C149 H156 0.930 . S
N150 C147 1.329 . S
N150 C151 1.331 . S
C151 C149 1.392 . S
C151 N150 1.331 . S
O152 Zn145 1.975 . S
O152 C153 1.252 . S
C153 O152 1.252 . S
C153 O154 1.252 1_455 S
O154 Zn136 1.975 . S
O154 C153 1.252 1_655 S
H155 C148 0.930 . S
H156 C149 0.930 . S
C157 C158 1.392 . S
C157 N161 1.328 . S
C157 H163 0.930 . S
C158 C157 1.392 . S
C158 N162 1.331 . S
C159 C160 1.391 . S
C159 N162 1.329 . S
C159 H169 0.930 . S
C160 C159 1.391 . S
C160 N161 1.334 . S
C160 H167 0.930 . S
N161 Zn145 2.119 . S
N161 C157 1.328 . S
N161 C160 1.334 . S
N162 C158 1.331 . S
N162 C159 1.329 . S
H163 C157 0.930 . S
C164 O144 1.257 . S
C164 O165 1.244 1_655 S
O165 C164 1.244 1_455 S
O166 C142 1.257 1_545 S
O166 Zn145 2.019 . S
H167 C160 0.930 . S
H168 C147 0.930 . S
H169 C159 0.930 . S
Zn170 N174 2.020 . S
Zn170 O178 2.019 . S
Zn170 N180 2.119 . S
Zn170 O188 1.975 . S
C171 N172 1.334 . S
C171 N175 1.336 . S
N172 C171 1.334 . S
N172 C173 1.334 1_455 S
C173 N172 1.334 1_655 S
C173 N174 1.336 . S
N174 Zn170 2.020 . S
N174 C173 1.336 . S
N174 N175 1.354 1_655 S
N175 C171 1.336 . S
N175 N174 1.354 1_455 S
N175 Zn179 2.020 . S
C176 O177 1.244 . S
C176 O200 1.257 . S
O177 C176 1.244 . S
O178 Zn170 2.019 . S
O178 C198 1.257 . S
Zn179 N175 2.020 . S
Zn179 O186 1.975 . S
Zn179 N195 2.119 . S
Zn179 O200 2.019 . S
N180 Zn170 2.119 . S
N180 C182 1.334 1_655 S
N180 C183 1.328 . S
C181 C182 1.391 . S
C181 N184 1.329 1_455 S
C181 H202 0.930 . S
C182 N180 1.334 1_455 S
C182 C181 1.391 . S
C182 H189 0.930 . S
C183 N180 1.328 . S
C183 C185 1.392 . S
C183 H190 0.930 . S
N184 C181 1.329 1_655 S
N184 C185 1.331 . S
C185 C183 1.392 . S
C185 N184 1.331 . S
O186 Zn179 1.975 . S
O186 C187 1.252 . S
C187 O186 1.252 . S
C187 O188 1.252 1_455 S
O188 Zn170 1.975 . S
O188 C187 1.252 1_655 S
H189 C182 0.930 . S
H190 C183 0.930 . S
C191 C192 1.392 . S
C191 N195 1.328 1_545 S
C191 H197 0.930 . S
C192 C191 1.392 . S
C192 N196 1.331 . S
C193 C194 1.391 1_545 S
C193 N196 1.329 1_655 S
C193 H203 0.930 . S
C194 C193 1.391 1_565 S
C194 N195 1.334 1_655 S
C194 H201 0.930 . S
N195 Zn179 2.119 . S
N195 C191 1.328 1_565 S
N195 C194 1.334 1_455 S
N196 C192 1.331 . S
N196 C193 1.329 1_455 S
H197 C191 0.930 . S
C198 O178 1.257 . S
C198 O199 1.244 . S
O199 C198 1.244 . S
O200 C176 1.257 . S
O200 Zn179 2.019 . S
H201 C194 0.930 . S
H202 C181 0.930 . S
H203 C193 0.930 . S
Zn204 N208 2.020 . S
Zn204 O212 2.019 . S
Zn204 N214 2.119 . S
Zn204 O222 1.975 . S
C205 N206 1.334 . S
C205 N209 1.336 . S
N206 C205 1.334 . S
N206 C207 1.334 . S
C207 N206 1.334 . S
C207 N208 1.336 . S
N208 Zn204 2.020 . S
N208 C207 1.336 . S
N208 N209 1.354 . S
N209 C205 1.336 . S
N209 N208 1.354 . S
N209 Zn213 2.020 . S
C210 O211 1.244 . S
C210 O234 1.257 . S
O211 C210 1.244 . S
O212 Zn204 2.019 . S
O212 C232 1.257 1_565 S
Zn213 N209 2.020 . S
Zn213 O220 1.975 . S
Zn213 N229 2.119 . S
Zn213 O234 2.019 . S
N214 Zn204 2.119 . S
N214 C216 1.334 . S
N214 C217 1.328 . S
C215 C216 1.391 . S
C215 N218 1.329 . S
C215 H236 0.930 . S
C216 N214 1.334 . S
C216 C215 1.391 . S
C216 H223 0.930 . S
C217 N214 1.328 . S
C217 C219 1.392 . S
C217 H224 0.930 . S
N218 C215 1.329 . S
N218 C219 1.331 . S
C219 C217 1.392 . S
C219 N218 1.331 . S
O220 Zn213 1.975 . S
O220 C221 1.252 . S
C221 O220 1.252 . S
C221 O222 1.252 . S
O222 Zn204 1.975 . S
O222 C221 1.252 . S
H223 C216 0.930 . S
H224 C217 0.930 . S
C225 C226 1.392 . S
C225 N229 1.328 . S
C225 H231 0.930 . S
C226 C225 1.392 . S
C226 N230 1.331 . S
C227 C228 1.391 . S
C227 N230 1.329 . S
C227 H237 0.930 . S
C228 C227 1.391 . S
C228 N229 1.334 . S
C228 H235 0.930 . S
N229 Zn213 2.119 . S
N229 C225 1.328 . S
N229 C228 1.334 . S
N230 C226 1.331 . S
N230 C227 1.329 . S
H231 C225 0.930 . S
C232 O212 1.257 1_545 S
C232 O233 1.244 1_545 S
O233 C232 1.244 1_565 S
O234 C210 1.257 . S
O234 Zn213 2.019 . S
H235 C228 0.930 . S
H236 C215 0.930 . S
H237 C227 0.930 . S
Zn238 N242 2.020 . S
Zn238 O246 2.019 . S
Zn238 N248 2.119 . S
Zn238 O256 1.975 . S
C239 N240 1.334 . S
C239 N243 1.336 . S
N240 C239 1.334 . S
N240 C241 1.334 . S
C241 N240 1.334 . S
C241 N242 1.336 . S
N242 Zn238 2.020 . S
N242 C241 1.336 . S
N242 N243 1.354 . S
N243 C239 1.336 . S
N243 N242 1.354 . S
N243 Zn247 2.020 . S
C244 O245 1.244 . S
C244 O268 1.257 . S
O245 C244 1.244 . S
O246 Zn238 2.019 . S
O246 C266 1.257 . S
Zn247 N243 2.020 . S
Zn247 O254 1.975 . S
Zn247 N263 2.119 . S
Zn247 O268 2.019 . S
N248 Zn238 2.119 . S
N248 C250 1.334 . S
N248 C251 1.328 1_545 S
C249 C250 1.391 1_565 S
C249 N252 1.329 . S
C249 H270 0.930 . S
C250 N248 1.334 . S
C250 C249 1.391 1_545 S
C250 H257 0.930 . S
C251 N248 1.328 1_565 S
C251 C253 1.392 . S
C251 H258 0.930 . S
N252 C249 1.329 . S
N252 C253 1.331 . S
C253 C251 1.392 . S
C253 N252 1.331 . S
O254 Zn247 1.975 . S
O254 C255 1.252 . S
C255 O254 1.252 . S
C255 O256 1.252 . S
O256 Zn238 1.975 . S
O256 C255 1.252 . S
H257 C250 0.930 . S
H258 C251 0.930 . S
C259 C260 1.392 . S
C259 N263 1.328 . S
C259 H265 0.930 . S
C260 C259 1.392 . S
C260 N264 1.331 . S
C261 C262 1.391 . S
C261 N264 1.329 . S
C261 H271 0.930 . S
C262 C261 1.391 . S
C262 N263 1.334 . S
C262 H269 0.930 . S
N263 Zn247 2.119 . S
N263 C259 1.328 . S
N263 C262 1.334 . S
N264 C260 1.331 . S
N264 C261 1.329 . S
H265 C259 0.930 . S
C266 O246 1.257 . S
C266 O267 1.244 . S
O267 C266 1.244 . S
O268 C244 1.257 . S
O268 Zn247 2.019 . S
H269 C262 0.930 . S
H270 C249 0.930 . S
H271 C261 0.930 . S
C272 C273 1.388 . S
C272 H276 0.950 . S
C272 C281 1.390 . S
C273 C272 1.388 . S
C273 C275 1.387 1_655 S
H274 C281 0.950 . S
C275 C273 1.387 1_455 S
C275 C277 1.390 . S
C275 H279 0.950 . S
H276 C272 0.950 . S
C277 C275 1.390 . S
C277 C278 1.389 . S
C277 H280 0.950 . S
C278 C277 1.389 . S
C278 C281 1.386 1_455 S
H279 C275 0.950 . S
H280 C277 0.950 . S
C281 C272 1.390 . S
C281 H274 0.950 . S
C281 C278 1.386 1_655 S
C282 C283 1.387 . S
C282 H286 0.950 . S
C282 C291 1.390 . S
C283 C282 1.387 . S
C283 C285 1.387 . S
H284 C291 0.950 . S
C285 C283 1.387 . S
C285 C287 1.390 . S
C285 H289 0.950 . S
H286 C282 0.950 . S
C287 C285 1.390 . S
C287 C288 1.387 . S
C287 H290 0.950 . S
C288 C287 1.387 . S
C288 C291 1.387 . S
H289 C285 0.950 . S
H290 C287 0.950 . S
C291 C282 1.390 . S
C291 H284 0.950 . S
C291 C288 1.387 . S
C292 C293 1.387 . S
C292 H296 0.950 . S
C292 C301 1.390 . S
C293 C292 1.387 . S
C293 C295 1.387 . S
H294 C301 0.950 . S
C295 C293 1.387 . S
C295 C297 1.390 . S
C295 H299 0.950 . S
H296 C292 0.950 . S
C297 C295 1.390 . S
C297 C298 1.387 . S
C297 H300 0.950 . S
C298 C297 1.387 . S
C298 C301 1.387 . S
H299 C295 0.950 . S
H300 C297 0.950 . S
C301 C292 1.390 . S
C301 H294 0.950 . S
C301 C298 1.387 . S
C302 C303 1.387 . S
C302 H306 0.950 . S
C302 C311 1.390 . S
C303 C302 1.387 . S
C303 C305 1.388 1_655 S
H304 C311 0.950 . S
C305 C303 1.388 1_455 S
C305 C307 1.390 . S
C305 H309 0.950 . S
H306 C302 0.950 . S
C307 C305 1.390 . S
C307 C308 1.390 . S
C307 H310 0.950 . S
C308 C307 1.390 . S
C308 C311 1.385 1_455 S
H309 C305 0.950 . S
H310 C307 0.950 . S
C311 C302 1.390 . S
C311 H304 0.950 . S
C311 C308 1.385 1_655 S
C312 C313 1.387 . S
C312 H316 0.950 . S
C312 C321 1.390 1_556 S
C313 C312 1.387 . S
C313 C315 1.387 1_655 S
H314 C321 0.950 . S
C315 C313 1.387 1_455 S
C315 C317 1.390 1_556 S
C315 H319 0.950 . S
H316 C312 0.950 . S
C317 C315 1.390 1_554 S
C317 C318 1.387 1_455 S
C317 H320 0.950 . S
C318 C317 1.387 1_655 S
C318 C321 1.387 . S
H319 C315 0.950 . S
H320 C317 0.950 . S
C321 C312 1.390 1_554 S
C321 H314 0.950 . S
C321 C318 1.387 . S
C322 C323 1.387 . S
C322 H326 0.950 . S
C322 C331 1.390 . S
C323 C322 1.387 . S
C323 C325 1.387 . S
H324 C331 0.950 . S
C325 C323 1.387 . S
C325 C327 1.390 . S
C325 H329 0.950 . S
H326 C322 0.950 . S
C327 C325 1.390 . S
C327 C328 1.387 . S
C327 H330 0.950 . S
C328 C327 1.387 . S
C328 C331 1.387 . S
H329 C325 0.950 . S
H330 C327 0.950 . S
C331 C322 1.390 . S
C331 H324 0.950 . S
C331 C328 1.387 . S
C332 C333 1.387 . S
C332 H336 0.950 . S
C332 C341 1.390 . S
C333 C332 1.387 . S
C333 C335 1.387 . S
H334 C341 0.950 . S
C335 C333 1.387 . S
C335 C337 1.390 . S
C335 H339 0.950 . S
H336 C332 0.950 . S
C337 C335 1.390 . S
C337 C338 1.387 . S
C337 H340 0.950 . S
C338 C337 1.387 . S
C338 C341 1.387 . S
H339 C335 0.950 . S
H340 C337 0.950 . S
C341 C332 1.390 . S
C341 H334 0.950 . S
C341 C338 1.387 . S
C342 C343 1.387 . S
C342 H346 0.950 . S
C342 C351 1.390 . S
C343 C342 1.387 . S
C343 C345 1.387 . S
H344 C351 0.950 . S
C345 C343 1.387 . S
C345 C347 1.390 . S
C345 H349 0.950 . S
H346 C342 0.950 . S
C347 C345 1.390 . S
C347 C348 1.387 . S
C347 H350 0.950 . S
C348 C347 1.387 . S
C348 C351 1.387 . S
H349 C345 0.950 . S
H350 C347 0.950 . S
C351 C342 1.390 . S
C351 H344 0.950 . S
C351 C348 1.387 . S
C352 C353 1.387 . S
C352 H356 0.950 . S
C352 C361 1.390 . S
C353 C352 1.387 . S
C353 C355 1.387 . S
H354 C361 0.950 . S
C355 C353 1.387 . S
C355 C357 1.390 . S
C355 H359 0.950 . S
H356 C352 0.950 . S
C357 C355 1.390 . S
C357 C358 1.387 . S
C357 H360 0.950 . S
C358 C357 1.387 . S
C358 C361 1.387 . S
H359 C355 0.950 . S
H360 C357 0.950 . S
C361 C352 1.390 . S
C361 H354 0.950 . S
C361 C358 1.387 . S
C362 C363 1.387 . S
C362 H366 0.950 . S
C362 C371 1.390 . S
C363 C362 1.387 . S
C363 C365 1.387 . S
H364 C371 0.950 . S
C365 C363 1.387 . S
C365 C367 1.390 . S
C365 H369 0.950 . S
H366 C362 0.950 . S
C367 C365 1.390 . S
C367 C368 1.387 . S
C367 H370 0.950 . S
C368 C367 1.387 . S
C368 C371 1.387 . S
H369 C365 0.950 . S
H370 C367 0.950 . S
C371 C362 1.390 . S
C371 H364 0.950 . S
C371 C368 1.387 . S
C372 C373 1.387 . S
C372 H376 0.950 . S
C372 C381 1.390 1_545 S
C373 C372 1.387 . S
C373 C375 1.387 . S
H374 C381 0.950 . S
C375 C373 1.387 . S
C375 C377 1.390 1_545 S
C375 H379 0.950 . S
H376 C372 0.950 . S
C377 C375 1.390 1_565 S
C377 C378 1.387 . S
C377 H380 0.950 . S
C378 C377 1.387 . S
C378 C381 1.387 . S
H379 C375 0.950 . S
H380 C377 0.950 . S
C381 C372 1.390 1_565 S
C381 H374 0.950 . S
C381 C378 1.387 . S
C382 C383 1.387 . S
C382 H386 0.950 . S
C382 C391 1.390 1_564 S
C383 C382 1.387 . S
C383 C385 1.387 1_455 S
H384 C391 0.950 . S
C385 C383 1.387 1_655 S
C385 C387 1.390 1_564 S
C385 H389 0.950 . S
H386 C382 0.950 . S
C387 C385 1.390 1_546 S
C387 C388 1.387 1_655 S
C387 H390 0.950 . S
C388 C387 1.387 1_455 S
C388 C391 1.387 . S
H389 C385 0.950 . S
H390 C387 0.950 . S
C391 C382 1.390 1_546 S
C391 H384 0.950 . S
C391 C388 1.387 . S
C392 C393 1.387 . S
C392 H396 0.950 . S
C392 C401 1.390 . S
C393 C392 1.387 . S
C393 C395 1.387 . S
H394 C401 0.950 . S
C395 C393 1.387 . S
C395 C397 1.390 . S
C395 H399 0.950 . S
H396 C392 0.950 . S
C397 C395 1.390 . S
C397 C398 1.387 . S
C397 H400 0.950 . S
C398 C397 1.387 . S
C398 C401 1.387 . S
H399 C395 0.950 . S
H400 C397 0.950 . S
C401 C392 1.390 . S
C401 H394 0.950 . S
C401 C398 1.387 . S
C402 C403 1.387 . S
C402 H406 0.950 . S
C402 C411 1.390 . S
C403 C402 1.387 . S
C403 C405 1.387 . S
H404 C411 0.950 . S
C405 C403 1.387 . S
C405 C407 1.390 . S
C405 H409 0.950 . S
H406 C402 0.950 . S
C407 C405 1.390 . S
C407 C408 1.387 . S
C407 H410 0.950 . S
C408 C407 1.387 . S
C408 C411 1.387 . S
H409 C405 0.950 . S
H410 C407 0.950 . S
C411 C402 1.390 . S
C411 H404 0.950 . S
C411 C408 1.387 . S
C412 C413 1.387 . S
C412 H416 0.950 . S
C412 C421 1.390 1_655 S
C413 C412 1.387 . S
C413 C415 1.387 . S
H414 C421 0.950 . S
C415 C413 1.387 . S
C415 C417 1.390 1_655 S
C415 H419 0.950 . S
H416 C412 0.950 . S
C417 C415 1.390 1_455 S
C417 C418 1.387 . S
C417 H420 0.950 . S
C418 C417 1.387 . S
C418 C421 1.387 . S
H419 C415 0.950 . S
H420 C417 0.950 . S
C421 C412 1.390 1_455 S
C421 H414 0.950 . S
C421 C418 1.387 . S
C422 C423 1.387 . S
C422 H426 0.950 . S
C422 C431 1.390 1_455 S
C423 C422 1.387 . S
C423 C425 1.387 . S
H424 C431 0.950 . S
C425 C423 1.387 . S
C425 C427 1.390 1_455 S
C425 H429 0.950 . S
H426 C422 0.950 . S
C427 C425 1.390 1_655 S
C427 C428 1.387 . S
C427 H430 0.950 . S
C428 C427 1.387 . S
C428 C431 1.387 . S
H429 C425 0.950 . S
H430 C427 0.950 . S
C431 C422 1.390 1_655 S
C431 H424 0.950 . S
C431 C428 1.387 . S
C432 C433 1.387 . S
C432 H436 0.950 . S
C432 C441 1.390 . S
C433 C432 1.387 . S
C433 C435 1.387 . S
H434 C441 0.950 . S
C435 C433 1.387 . S
C435 C437 1.390 . S
C435 H439 0.950 . S
H436 C432 0.950 . S
C437 C435 1.390 . S
C437 C438 1.387 . S
C437 H440 0.950 . S
C438 C437 1.387 . S
C438 C441 1.387 . S
H439 C435 0.950 . S
H440 C437 0.950 . S
C441 C432 1.390 . S
C441 H434 0.950 . S
C441 C438 1.387 . S
C442 C443 1.387 . S
C442 H446 0.950 . S
C442 C451 1.390 1_455 S
C443 C442 1.387 . S
C443 C445 1.387 . S
H444 C451 0.950 . S
C445 C443 1.387 . S
C445 C447 1.390 1_455 S
C445 H449 0.950 . S
H446 C442 0.950 . S
C447 C445 1.390 1_655 S
C447 C448 1.387 . S
C447 H450 0.950 . S
C448 C447 1.387 . S
C448 C451 1.387 . S
H449 C445 0.950 . S
H450 C447 0.950 . S
C451 C442 1.390 1_655 S
C451 H444 0.950 . S
C451 C448 1.387 . S
C452 C453 1.387 . S
C452 H456 0.950 . S
C452 C461 1.390 1_455 S
C453 C452 1.387 . S
C453 C455 1.387 . S
H454 C461 0.950 . S
C455 C453 1.387 . S
C455 C457 1.390 1_455 S
C455 H459 0.950 . S
H456 C452 0.950 . S
C457 C455 1.390 1_655 S
C457 C458 1.387 . S
C457 H460 0.950 . S
C458 C457 1.387 . S
C458 C461 1.387 . S
H459 C455 0.950 . S
H460 C457 0.950 . S
C461 C452 1.390 1_655 S
C461 H454 0.950 . S
C461 C458 1.387 . S
C462 C463 1.387 . S
C462 H466 0.950 . S
C462 C471 1.390 . S
C463 C462 1.387 . S
C463 C465 1.387 . S
H464 C471 0.950 . S
C465 C463 1.387 . S
C465 C467 1.390 . S
C465 H469 0.950 . S
H466 C462 0.950 . S
C467 C465 1.390 . S
C467 C468 1.387 . S
C467 H470 0.950 . S
C468 C467 1.387 . S
C468 C471 1.387 . S
H469 C465 0.950 . S
H470 C467 0.950 . S
C471 C462 1.390 . S
C471 H464 0.950 . S
C471 C468 1.387 . S
C472 C473 1.387 . S
C472 H476 0.950 . S
C472 C481 1.390 1_655 S
C473 C472 1.387 . S
C473 C475 1.387 . S
H474 C481 0.950 . S
C475 C473 1.387 . S
C475 C477 1.390 1_655 S
C475 H479 0.950 . S
H476 C472 0.950 . S
C477 C475 1.390 1_455 S
C477 C478 1.387 . S
C477 H480 0.950 . S
C478 C477 1.387 . S
C478 C481 1.387 . S
H479 C475 0.950 . S
H480 C477 0.950 . S
C481 C472 1.390 1_455 S
C481 H474 0.950 . S
C481 C478 1.387 . S
C482 C483 1.387 . S
C482 H486 0.950 . S
C482 C491 1.390 1_655 S
C483 C482 1.387 . S
C483 C485 1.387 . S
H484 C491 0.950 . S
C485 C483 1.387 . S
C485 C487 1.390 1_655 S
C485 H489 0.950 . S
H486 C482 0.950 . S
C487 C485 1.390 1_455 S
C487 C488 1.387 . S
C487 H490 0.950 . S
C488 C487 1.387 . S
C488 C491 1.387 . S
H489 C485 0.950 . S
H490 C487 0.950 . S
C491 C482 1.390 1_455 S
C491 H484 0.950 . S
C491 C488 1.387 . S
C492 C493 1.387 . S
C492 H496 0.950 . S
C492 C501 1.390 . S
C493 C492 1.387 . S
C493 C495 1.387 . S
H494 C501 0.950 . S
C495 C493 1.387 . S
C495 C497 1.390 . S
C495 H499 0.950 . S
H496 C492 0.950 . S
C497 C495 1.390 . S
C497 C498 1.387 . S
C497 H500 0.950 . S
C498 C497 1.387 . S
C498 C501 1.387 . S
H499 C495 0.950 . S
H500 C497 0.950 . S
C501 C492 1.390 . S
C501 H494 0.950 . S
C501 C498 1.387 . S
C502 C503 1.387 . S
C502 H506 0.950 . S
C502 C511 1.390 . S
C503 C502 1.387 . S
C503 C505 1.387 . S
H504 C511 0.950 . S
C505 C503 1.387 . S
C505 C507 1.390 . S
C505 H509 0.950 . S
H506 C502 0.950 . S
C507 C505 1.390 . S
C507 C508 1.387 . S
C507 H510 0.950 . S
C508 C507 1.387 . S
C508 C511 1.387 . S
H509 C505 0.950 . S
H510 C507 0.950 . S
C511 C502 1.390 . S
C511 H504 0.950 . S
C511 C508 1.387 . S
C512 C513 1.387 . S
C512 H516 0.950 . S
C512 C521 1.390 1_455 S
C513 C512 1.387 . S
C513 C515 1.387 . S
H514 C521 0.950 . S
C515 C513 1.387 . S
C515 C517 1.390 1_455 S
C515 H519 0.950 . S
H516 C512 0.950 . S
C517 C515 1.390 1_655 S
C517 C518 1.387 . S
C517 H520 0.950 . S
C518 C517 1.387 . S
C518 C521 1.387 . S
H519 C515 0.950 . S
H520 C517 0.950 . S
C521 C512 1.390 1_655 S
C521 H514 0.950 . S
C521 C518 1.387 . S
C522 C523 1.387 . S
C522 H526 0.950 . S
C522 C531 1.390 . S
C523 C522 1.387 . S
C523 C525 1.387 . S
H524 C531 0.950 . S
C525 C523 1.387 . S
C525 C527 1.390 . S
C525 H529 0.950 . S
H526 C522 0.950 . S
C527 C525 1.390 . S
C527 C528 1.387 . S
C527 H530 0.950 . S
C528 C527 1.387 . S
C528 C531 1.387 . S
H529 C525 0.950 . S
H530 C527 0.950 . S
C531 C522 1.390 . S
C531 H524 0.950 . S
C531 C528 1.387 . S
C532 C533 1.387 . S
C532 H536 0.950 . S
C532 C541 1.390 . S
C533 C532 1.387 . S
C533 C535 1.387 . S
H534 C541 0.950 . S
C535 C533 1.387 . S
C535 C537 1.390 . S
C535 H539 0.950 . S
H536 C532 0.950 . S
C537 C535 1.390 . S
C537 C538 1.387 . S
C537 H540 0.950 . S
C538 C537 1.387 . S
C538 C541 1.387 . S
H539 C535 0.950 . S
H540 C537 0.950 . S
C541 C532 1.390 . S
C541 H534 0.950 . S
C541 C538 1.387 . S
C542 C543 1.387 . S
C542 H546 0.950 . S
C542 C551 1.390 1_655 S
C543 C542 1.387 . S
C543 C545 1.387 . S
H544 C551 0.950 . S
C545 C543 1.387 . S
C545 C547 1.390 1_655 S
C545 H549 0.950 . S
H546 C542 0.950 . S
C547 C545 1.390 1_455 S
C547 C548 1.387 . S
C547 H550 0.950 . S
C548 C547 1.387 . S
C548 C551 1.387 . S
H549 C545 0.950 . S
H550 C547 0.950 . S
C551 C542 1.390 1_455 S
C551 H544 0.950 . S
C551 C548 1.387 . S
C273 C187 1.555 1_655 S
C278 C17 1.555 . S
C283 C51 1.555 . S
C288 C221 1.555 . S
C293 C85 1.555 . S
C298 C255 1.555 . S
C303 C153 1.555 1_655 S
C308 C119 1.555 . S
C313 C139 2.041 . S
C318 C1 2.041 . S
C323 C35 2.040 . S
C328 C173 2.041 . S
C333 C71 2.040 . S
C338 C205 2.040 . S
C343 C105 2.040 . S
C348 C239 2.041 . S
C353 C103 2.041 . S
C358 C241 2.040 . S
C363 C37 2.040 . S
C368 C171 2.038 . S
C373 C69 2.040 . S
C378 C207 2.040 . S
C383 C3 2.041 . S
C388 C137 2.041 . S
C393 C15 1.296 . S
C398 C22 1.296 . S
C403 C49 1.296 . S
C408 C56 1.296 . S
C413 C83 1.303 . S
C418 C90 1.303 . S
C423 C124 1.296 . S
C428 C117 1.296 . S
C433 C158 1.296 . S
C438 C151 1.296 . S
C443 C192 1.303 . S
C448 C185 1.303 . S
C453 C219 1.303 . S
C458 C226 1.303 . S
C463 C260 1.296 . S
C468 C253 1.296 . S
C473 C6 1.946 . S
C478 C28 1.946 . S
C483 C40 1.945 . S
C488 C62 1.945 . S
C493 C96 1.945 . S
C498 C74 1.945 . S
C503 C130 1.946 . S
C508 C108 1.946 . S
C513 C142 1.945 . S
C518 C164 1.945 . S
C523 C176 1.945 . S
C528 C198 1.945 . S
C533 C210 1.945 . S
C538 C232 1.945 . S
C543 C244 1.946 . S
C548 C266 1.946 . S
