# Generated by pormake.
# Topology afw, (4)-cn, num edge types: 1
# Building blocks:
#     Node 0, Type 0, BuildingBlock: AZAVOO_clean_sbu_0, # of connection points: 4
#     Node 1, Type 0, BuildingBlock: AZAVOO_clean_sbu_0, # of connection points: 4
#     Node 2, Type 0, BuildingBlock: AZAVOO_clean_sbu_0, # of connection points: 4
#     Node 3, Type 0, BuildingBlock: AZAVOO_clean_sbu_0, # of connection points: 4
#     Node 4, Type 0, BuildingBlock: AZAVOO_clean_sbu_0, # of connection points: 4
#     Node 5, Type 0, BuildingBlock: AZAVOO_clean_sbu_0, # of connection points: 4
#     Node 6, Type 0, BuildingBlock: AZAVOO_clean_sbu_0, # of connection points: 4
#     Node 7, Type 0, BuildingBlock: AZAVOO_clean_sbu_0, # of connection points: 4
#     Node 8, Type 0, BuildingBlock: AZAVOO_clean_sbu_0, # of connection points: 4
#     Edge 9, Type (0, 0), BuildingBlock: KIFKEQ_clean_linker_1, # of connection points: 2
#     Edge 10, Type (0, 0), BuildingBlock: KIFKEQ_clean_linker_1, # of connection points: 2
#     Edge 11, Type (0, 0), BuildingBlock: KIFKEQ_clean_linker_1, # of connection points: 2
#     Edge 12, Type (0, 0), BuildingBlock: KIFKEQ_clean_linker_1, # of connection points: 2
#     Edge 13, Type (0, 0), BuildingBlock: KIFKEQ_clean_linker_1, # of connection points: 2
#     Edge 14, Type (0, 0), BuildingBlock: KIFKEQ_clean_linker_1, # of connection points: 2
#     Edge 15, Type (0, 0), BuildingBlock: KIFKEQ_clean_linker_1, # of connection points: 2
#     Edge 16, Type (0, 0), BuildingBlock: KIFKEQ_clean_linker_1, # of connection points: 2
#     Edge 17, Type (0, 0), BuildingBlock: KIFKEQ_clean_linker_1, # of connection points: 2
#     Edge 18, Type (0, 0), BuildingBlock: KIFKEQ_clean_linker_1, # of connection points: 2
#     Edge 19, Type (0, 0), BuildingBlock: KIFKEQ_clean_linker_1, # of connection points: 2
#     Edge 20, Type (0, 0), BuildingBlock: KIFKEQ_clean_linker_1, # of connection points: 2
#     Edge 21, Type (0, 0), BuildingBlock: KIFKEQ_clean_linker_1, # of connection points: 2
#     Edge 22, Type (0, 0), BuildingBlock: KIFKEQ_clean_linker_1, # of connection points: 2
#     Edge 23, Type (0, 0), BuildingBlock: KIFKEQ_clean_linker_1, # of connection points: 2
#     Edge 24, Type (0, 0), BuildingBlock: KIFKEQ_clean_linker_1, # of connection points: 2
#     Edge 25, Type (0, 0), BuildingBlock: KIFKEQ_clean_linker_1, # of connection points: 2
#     Edge 26, Type (0, 0), BuildingBlock: KIFKEQ_clean_linker_1, # of connection points: 2
# Relax obj value: 0.306
# Max RMSD: 0.283
# Mean RMSD: 0.260
data_MOF--net-afw--node1-AZAVOO_clean_sbu_0--edge1-KIFKEQ_clean_linker_1
_symmetry_space_group_name_H-M    P1
_symmetry_Int_Tables_number       1
_symmetry_cell_setting            triclinic
loop_
_symmetry_equiv_pos_as_xyz
'x, y, z'
_cell_length_a     40.512265
_cell_length_b     38.290267
_cell_length_c     37.475706
_cell_angle_alpha  90.235635
_cell_angle_beta   90.572093
_cell_angle_gamma 119.95117
loop_
_atom_site_label
_atom_site_type_symbol
_atom_site_fract_x
_atom_site_fract_y
_atom_site_fract_z
_atom_type_partial_charge
Mg0 Mg 0.0292 0.26822 0.02391 0.0
O1 O 0.97804 0.20427 0.02287 0.0
O2 O 0.92487 0.20668 0.01275 0.0
Mg3 Mg 0.94199 0.27344 0.01045 0.0
C4 C 0.94204 0.18683 0.01812 0.0
C5 C 0.1022 0.25889 0.02888 0.0
O6 O 0.11649 0.29431 0.04464 0.0
O7 O 0.02553 0.27407 0.96369 0.0
O8 O 0.97392 0.28086 0.95836 0.0
O9 O 0.02249 0.27403 0.08273 0.0
O10 O 0.99525 0.29132 0.04048 0.0
C11 C 0.00243 0.28014 0.94485 0.0
C12 C 0.00048 0.28823 0.07389 0.0
O13 O 0.06784 0.24127 0.01777 0.0
Mg14 Mg 0.8068 0.80159 0.98134 0.0
O15 O 0.81748 0.86503 -0.00657 0.0
O16 O 0.76271 0.86531 -0.01156 0.0
Mg17 Mg 0.71715 0.80205 0.96997 0.0
C18 C 0.79844 0.88329 -0.00489 0.0
C19 C 0.88551 0.80778 -0.00808 0.0
O20 O 0.87236 0.78314 0.96427 0.0
O21 O 0.77604 0.77664 0.03357 0.0
O22 O 0.72029 0.77389 0.02293 0.0
O23 O 0.81797 0.81576 0.92345 0.0
O24 O 0.76139 0.7906 0.94827 0.0
C25 C 0.74222 0.76688 0.04262 0.0
C26 C 0.78194 0.80351 0.92021 0.0
O27 O 0.86447 0.8197 0.00609 0.0
Mg28 Mg 0.25124 0.02808 0.01935 0.0
O29 O 0.23767 0.079 0.01633 0.0
O30 O 0.29073 0.13642 0.00427 0.0
Mg31 Mg 0.33938 0.12208 0.00208 0.0
C32 C 0.25506 0.11675 0.01036 0.0
C33 C 0.16661 0.96961 0.04144 0.0
O34 O 0.18132 0.98229 0.07349 0.0
O35 O 0.25788 0.02774 0.95958 0.0
O36 O 0.31446 0.08295 0.95128 0.0
O37 O 0.26464 0.03952 0.07738 0.0
O38 O 0.30709 0.06784 0.0349 0.0
C39 C 0.28542 0.05074 0.9395 0.0
C40 C 0.29961 0.06364 0.06837 0.0
O41 O 0.18803 0.9828 0.01447 0.0
Mg42 Mg 0.5532 0.50986 0.26494 0.0
O43 O 0.61595 0.53021 0.27514 0.0
O44 O 0.65148 0.59679 0.26823 0.0
Mg45 Mg 0.60984 0.61987 0.25742 0.0
C46 C 0.64828 0.56251 0.27469 0.0
C47 C 0.51166 0.41659 0.26993 0.0
O48 O 0.49396 0.42124 0.24238 0.0
O49 O 0.55008 0.53232 0.32051 0.0
O50 O 0.58475 0.59898 0.31285 0.0
O51 O 0.56417 0.5077 0.20684 0.0
O52 O 0.56849 0.56096 0.23474 0.0
C53 C 0.56465 0.56844 0.33234 0.0
C54 C 0.57364 0.54537 0.20646 0.0
O55 O 0.53762 0.44773 0.28589 0.0
Mg56 Mg 0.5238 0.09108 0.3021 0.0
O57 O 0.50525 0.13801 0.31097 0.0
O58 O 0.44279 0.10944 0.29984 0.0
Mg59 Mg 0.42062 0.04271 0.28727 0.0
C60 C 0.47486 0.14014 0.30815 0.0
C61 C 0.61018 0.1346 0.3127 0.0
O62 O 0.60406 0.10676 0.28876 0.0
O63 O 0.49958 0.06208 0.35599 0.0
O64 O 0.43736 0.03241 0.34289 0.0
O65 O 0.52973 0.10771 0.24454 0.0
O66 O 0.47733 0.05856 0.26819 0.0
C67 C 0.46469 0.03989 0.36454 0.0
C68 C 0.49387 0.08129 0.2414 0.0
O69 O 0.58174 0.13526 0.32591 0.0
Mg70 Mg 0.9199 0.4767 0.29723 0.0
O71 O 0.87415 0.41192 0.31075 0.0
O72 O 0.90129 0.37371 0.31603 0.0
Mg73 Mg 0.96529 0.41525 0.31035 0.0
C74 C 0.87195 0.3779 0.31615 0.0
C75 C 0.87533 0.52202 0.28438 0.0
O76 O 0.90033 0.53674 0.25866 0.0
O77 O 0.9388 0.48855 0.35564 0.0
O78 O 0.96412 0.4484 0.36072 0.0
O79 O 0.91298 0.45807 0.2399 0.0
O80 O 0.95437 0.45547 0.27714 0.0
C81 C 0.95476 0.47294 0.37397 0.0
C82 C 0.93792 0.44706 0.24628 0.0
O83 O 0.87636 0.49686 0.3057 0.0
Mg84 Mg 0.39944 0.92131 0.69434 0.0
O85 O 0.34157 0.86401 0.69042 0.0
O86 O 0.29579 0.87862 0.67852 0.0
Mg87 Mg 0.32578 0.94767 0.67496 0.0
C88 C 0.30664 0.85314 0.68481 0.0
C89 C 0.46146 0.89424 0.69773 0.0
O90 O 0.48336 0.93157 0.70888 0.0
O91 O 0.40175 0.92904 0.63421 0.0
O92 O 0.35788 0.9473 0.62488 0.0
O93 O 0.38907 0.9258 0.75213 0.0
O94 O 0.37341 0.95412 0.70884 0.0
C95 C 0.38365 0.94024 0.61349 0.0
C96 C 0.37288 0.9461 0.74215 0.0
O97 O 0.42666 0.8819 0.69036 0.0
Mg98 Mg 0.11681 0.46927 0.64439 0.0
O99 O 0.1355 0.53244 0.6651 0.0
O100 O 0.08529 0.54005 0.67498 0.0
Mg101 Mg 0.03288 0.47849 0.66174 0.0
C102 C 0.12124 0.5541 0.67444 0.0
C103 C 0.19 0.459 0.64918 0.0
O104 O 0.16778 0.42374 0.63402 0.0
O105 O 0.09836 0.44251 0.69914 0.0
O106 O 0.04615 0.4471 0.70766 0.0
O107 O 0.11759 0.49133 0.5897 0.0
O108 O 0.06682 0.46479 0.62415 0.0
C109 C 0.06982 0.43616 0.71786 0.0
C110 C 0.08271 0.48257 0.59493 0.0
O111 O 0.17696 0.48235 0.65574 0.0
Mg112 Mg 0.55539 0.61484 0.67554 0.0
O113 O 0.54838 0.67076 0.67245 0.0
O114 O 0.60491 0.72417 0.66012 0.0
Mg115 Mg 0.64761 0.70213 0.65418 0.0
C116 C 0.56951 0.70847 0.66688 0.0
C117 C 0.47007 0.57484 0.69737 0.0
O118 O 0.48603 0.59738 0.72588 0.0
O119 O 0.55815 0.61282 0.61558 0.0
O120 O 0.61528 0.66556 0.604 0.0
O121 O 0.56975 0.62798 0.73286 0.0
O122 O 0.61243 0.65172 0.68993 0.0
C123 C 0.58396 0.63496 0.5937 0.0
C124 C 0.60453 0.6518 0.72316 0.0
O125 O 0.49109 0.57492 0.67243 0.0
H126 H 0.28099 0.19718 -0.00072 0.0
H127 H 0.17931 0.08513 0.02407 0.0
H128 H 0.24466 0.23226 0.00221 0.0
H129 H 0.14345 0.1203 0.02769 0.0
H130 H 0.08134 0.18668 -0.00364 0.0
H131 H 0.1189 0.1535 -0.00989 0.0
H132 H 0.21309 0.25277 0.04586 0.0
H133 H 0.17573 0.28649 0.05149 0.0
C134 C 0.25095 0.18001 0.00537 0.0
C135 C 0.23312 0.13828 0.01139 0.0
C136 C 0.23019 0.20019 0.00726 0.0
C137 C 0.19114 0.1791 0.01516 0.0
C138 C 0.17334 0.13738 0.02101 0.0
C139 C 0.19402 0.11724 0.01912 0.0
C140 C 0.1101 0.20155 0.00721 0.0
C141 C 0.12547 0.23921 0.02454 0.0
C142 C 0.13158 0.18239 0.00378 0.0
C143 C 0.16895 0.20037 0.01764 0.0
C144 C 0.18453 0.23829 0.03456 0.0
C145 C 0.16303 0.25751 0.03797 0.0
H146 H 0.76807 0.93098 0.01248 0.0
H147 H 0.87525 0.93521 -0.00514 0.0
H148 H 0.80183 0.00381 0.02172 0.0
H149 H 0.90878 0.00791 0.00254 0.0
H150 H 0.96401 0.13501 0.04442 0.0
H151 H 0.92847 0.06172 0.04309 0.0
H152 H 0.83472 0.06424 -0.01061 0.0
H153 H 0.86971 0.13758 -0.00781 0.0
C154 C 0.79883 0.94744 0.01057 0.0
C155 C 0.81892 0.92721 0.00289 0.0
C156 C 0.81821 0.98928 0.01561 0.0
C157 C 0.85811 0.01198 0.01271 0.0
C158 C 0.87816 0.99154 0.0056 0.0
C159 C 0.85885 0.94972 0.00099 0.0
C160 C 0.93572 0.11991 0.03248 0.0
C161 C 0.91977 0.14218 0.01827 0.0
C162 C 0.91537 0.0778 0.03154 0.0
C163 C 0.87874 0.05683 0.01589 0.0
C164 C 0.86259 0.07919 0.00214 0.0
C165 C 0.88277 0.12134 0.00352 0.0
H166 H 0.93924 0.7917 0.96549 0.0
H167 H 0.92283 0.86387 0.04467 0.0
H168 H 0.0071 0.82626 0.98023 0.0
H169 H 0.99069 0.89889 0.05882 0.0
H170 H 0.11196 0.93745 0.09276 0.0
H171 H 0.0435 0.89297 0.08395 0.0
H172 H 0.05966 0.89408 0.97008 0.0
H173 H 0.1279 0.93774 0.97884 0.0
C174 C 0.95002 0.81466 0.98625 0.0
C175 C 0.92569 0.8253 0.00366 0.0
C176 C 0.98893 0.8346 -0.00545 0.0
C177 C 0.00433 0.86559 0.02043 0.0
C178 C 0.9797 0.87494 0.03897 0.0
C179 C 0.9408 0.85499 0.03069 0.0
C180 C 0.10091 0.92793 0.06588 0.0
C181 C 0.12535 0.94128 0.03649 0.0
C182 C 0.06169 0.90258 0.06084 0.0
C183 C 0.04615 0.89 0.02632 0.0
C184 C 0.07075 0.9027 -0.00294 0.0
C185 C 0.10988 0.92804 0.00207 0.0
H186 H 0.81826 0.49547 0.33325 0.0
H187 H 0.86295 0.57171 0.241 0.0
H188 H 0.76525 0.50856 0.33461 0.0
H189 H 0.80954 0.58411 0.24197 0.0
H190 H 0.6524 0.49568 0.29259 0.0
H191 H 0.7089 0.48921 0.29786 0.0
H192 H 0.77976 0.61589 0.27526 0.0
H193 H 0.72298 0.62234 0.26925 0.0
C194 C 0.8169 0.51518 0.31337 0.0
C195 C 0.84471 0.53232 0.28686 0.0
C196 C 0.78641 0.52252 0.31405 0.0
C197 C 0.78302 0.54715 0.28825 0.0
C198 C 0.8115 0.56532 0.26245 0.0
C199 C 0.842 0.55799 0.26176 0.0
C200 C 0.67999 0.5223 0.28894 0.0
C201 C 0.68307 0.55952 0.28033 0.0
C202 C 0.71246 0.51862 0.29223 0.0
C203 C 0.74886 0.55203 0.28699 0.0
C204 C 0.75208 0.58947 0.27908 0.0
C205 C 0.71954 0.59321 0.27585 0.0
H206 H 0.53897 0.21337 0.32004 0.0
H207 H 0.41754 0.15816 0.30132 0.0
H208 H 0.54534 0.27972 0.31515 0.0
H209 H 0.42389 0.22473 0.29731 0.0
H210 H 0.54329 0.39616 0.32525 0.0
H211 H 0.53168 0.32911 0.34061 0.0
H212 H 0.44975 0.27785 0.25383 0.0
H213 H 0.46065 0.34454 0.23905 0.0
C214 C 0.51348 0.21531 0.31559 0.0
C215 C 0.47778 0.18029 0.31071 0.0
C216 C 0.51714 0.25348 0.31295 0.0
C217 C 0.48518 0.25761 0.30548 0.0
C218 C 0.4492 0.22262 0.30242 0.0
C219 C 0.44553 0.18442 0.30499 0.0
C220 C 0.52253 0.37052 0.30967 0.0
C221 C 0.50304 0.37575 0.28079 0.0
C222 C 0.516 0.3321 0.31839 0.0
C223 C 0.48985 0.29805 0.29842 0.0
C224 C 0.46967 0.30326 0.27014 0.0
C225 C 0.47615 0.34161 0.26147 0.0
H226 H 0.63248 0.20213 0.35403 0.0
H227 H 0.67656 0.14236 0.28793 0.0
H228 H 0.69649 0.26033 0.36026 0.0
H229 H 0.74019 0.20067 0.29363 0.0
H230 H 0.85561 0.30059 0.32913 0.0
H231 H 0.79309 0.24068 0.33443 0.0
H232 H 0.73985 0.31334 0.32012 0.0
H233 H 0.8023 0.37343 0.3155 0.0
C234 C 0.65586 0.20119 0.34117 0.0
C235 C 0.64939 0.16773 0.32026 0.0
C236 C 0.69247 0.23465 0.34455 0.0
C237 C 0.72336 0.23526 0.3272 0.0
C238 C 0.71711 0.20105 0.30761 0.0
C239 C 0.68054 0.16767 0.30418 0.0
C240 C 0.83062 0.30392 0.32739 0.0
C241 C 0.83404 0.34186 0.32159 0.0
C242 C 0.79477 0.2695 0.33032 0.0
C243 C 0.7615 0.2722 0.32752 0.0
C244 C 0.76493 0.31028 0.32281 0.0
C245 C 0.80078 0.34472 0.31989 0.0
H246 H 0.42469 0.81716 0.67126 0.0
H247 H 0.53353 0.90926 0.71356 0.0
H248 H 0.45045 0.77239 0.66255 0.0
H249 H 0.55904 0.86402 0.70569 0.0
H250 H 0.60373 0.78907 0.65246 0.0
H251 H 0.57737 0.83351 0.65929 0.0
H252 H 0.47169 0.73332 0.69572 0.0
H253 H 0.49768 0.68856 0.68806 0.0
C254 C 0.45408 0.8278 0.67891 0.0
C255 C 0.47707 0.86684 0.69309 0.0
C256 C 0.46879 0.802 0.67408 0.0
C257 C 0.50682 0.81456 0.68341 0.0
C258 C 0.52978 0.85358 0.69772 0.0
C259 C 0.51509 0.87944 0.70246 0.0
C260 C 0.5748 0.77641 0.66178 0.0
C261 C 0.55286 0.73518 0.66972 0.0
C262 C 0.55978 0.80201 0.66595 0.0
C263 C 0.52248 0.78708 0.67826 0.0
C264 C 0.50037 0.74576 0.6858 0.0
C265 C 0.51535 0.7201 0.68153 0.0
H266 H 0.23228 0.81436 0.66094 0.0
H267 H 0.31631 0.79343 0.71323 0.0
H268 H 0.18661 0.74214 0.66214 0.0
H269 H 0.27051 0.72188 0.71565 0.0
H270 H 0.1988 0.59469 0.67111 0.0
H271 H 0.24188 0.6666 0.6757 0.0
H272 H 0.14728 0.68495 0.69882 0.0
H273 H 0.10355 0.61244 0.69292 0.0
C274 C 0.24088 0.79443 0.67299 0.0
C275 C 0.27809 0.80963 0.68656 0.0
C276 C 0.21461 0.75305 0.67395 0.0
C277 C 0.22491 0.72606 0.68879 0.0
C278 C 0.26179 0.74157 0.7033 0.0
C279 C 0.28808 0.78272 0.702 0.0
C280 C 0.18703 0.61385 0.67751 0.0
C281 C 0.14757 0.59763 0.68152 0.0
C282 C 0.2119 0.65528 0.68035 0.0
C283 C 0.19814 0.68174 0.68763 0.0
C284 C 0.15879 0.66551 0.69268 0.0
C285 C 0.13376 0.62389 0.68962 0.0
H286 H 0.24074 0.52758 0.68463 0.0
H287 H 0.23012 0.42033 0.63479 0.0
H288 H 0.30727 0.55105 0.69835 0.0
H289 H 0.29707 0.44379 0.64915 0.0
H290 H 0.42841 0.52995 0.63968 0.0
H291 H 0.35978 0.49819 0.6302 0.0
H292 H 0.34813 0.53618 0.73577 0.0
H293 H 0.41687 0.56867 0.74504 0.0
C294 C 0.25252 0.50882 0.6768 0.0
C295 C 0.23013 0.47212 0.65846 0.0
C296 C 0.29065 0.52217 0.68496 0.0
C297 C 0.30741 0.49921 0.67498 0.0
C298 C 0.28499 0.46227 0.65696 0.0
C299 C 0.24665 0.44878 0.64886 0.0
C300 C 0.41118 0.53121 0.66102 0.0
C301 C 0.42814 0.55222 0.69298 0.0
C302 C 0.37181 0.51277 0.65565 0.0
C303 C 0.34857 0.51494 0.68213 0.0
C304 C 0.36538 0.53457 0.71463 0.0
C305 C 0.40474 0.55304 0.71999 0.0
H306 H 0.0723 0.31495 0.91358 0.0
H307 H 0.95384 0.27594 0.89211 0.0
H308 H 0.0896 0.35114 0.85731 0.0
H309 H 0.97091 0.31091 0.83538 0.0
H310 H 0.10412 0.39421 0.74148 0.0
H311 H 0.08711 0.35022 0.79306 0.0
H312 H 0.00133 0.38092 0.82081 0.0
H313 H 0.01747 0.42382 0.76885 0.0
C314 C 0.04983 0.31301 0.89631 0.0
C315 C 0.01177 0.29308 0.90747 0.0
C316 C 0.05975 0.33384 0.86406 0.0
C317 C 0.03172 0.33475 0.84226 0.0
C318 C 0.99333 0.31189 0.85209 0.0
C319 C 0.98348 0.29148 0.88442 0.0
C320 C 0.08177 0.39175 0.75872 0.0
C321 C 0.06205 0.41245 0.75094 0.0
C322 C 0.07203 0.3665 0.78828 0.0
C323 C 0.04249 0.36155 0.81079 0.0
C324 C 0.02353 0.38313 0.8035 0.0
C325 C 0.03307 0.40813 0.77388 0.0
H326 H 0.8024 0.78416 0.85769 0.0
H327 H 0.71897 0.80878 0.90405 0.0
H328 H 0.76103 0.75383 0.80566 0.0
H329 H 0.67812 0.77999 0.8515 0.0
H330 H 0.59372 0.66362 0.79269 0.0
H331 H 0.64031 0.71072 0.83525 0.0
H332 H 0.72638 0.75437 0.75383 0.0
H333 H 0.67995 0.70569 0.71155 0.0
C334 C 0.77589 0.7846 0.85604 0.0
C335 C 0.7634 0.79793 0.88511 0.0
C336 C 0.75211 0.76717 0.82623 0.0
C337 C 0.71574 0.7634 0.82492 0.0
C338 C 0.70539 0.78115 0.85228 0.0
C339 C 0.72886 0.79792 0.88226 0.0
C340 C 0.62254 0.68328 0.78379 0.0
C341 C 0.63307 0.68093 0.7487 0.0
C342 C 0.64921 0.71076 0.80809 0.0
C343 C 0.68705 0.73679 0.79785 0.0
C344 C 0.69752 0.73471 0.76261 0.0
C345 C 0.67082 0.70695 0.73831 0.0
H346 H 0.35026 1.00126 0.73135 0.0
H347 H 0.3512 0.9197 0.81021 0.0
H348 H 0.32085 0.02532 0.77412 0.0
H349 H 0.32149 0.94369 0.85289 0.0
H350 H 0.3325 0.09347 0.88497 0.0
H351 H 0.34727 0.0655 0.83297 0.0
H352 H 0.25911 0.94604 0.86153 0.0
H353 H 0.24392 0.9738 0.91338 0.0
C354 C 0.34376 0.98811 0.75767 0.0
C355 C 0.35317 0.95872 0.76756 0.0
C356 C 0.327 1.00196 0.78208 0.0
C357 C 0.31881 0.98623 0.81663 0.0
C358 C 0.32711 0.95593 0.8262 0.0
C359 C 0.34439 0.94247 0.80194 0.0
C360 C 0.3155 0.0614 0.87961 0.0
C361 C 0.28741 0.03583 0.90359 0.0
C362 C 0.32394 0.04541 0.84982 0.0
C363 C 0.30471 0.00358 0.84372 0.0
C364 C 0.27465 0.97836 0.86603 0.0
C365 C 0.26581 0.99438 0.89553 0.0
H366 H 0.50926 0.14426 0.1969 0.0
H367 H 0.42458 0.02131 0.22024 0.0
H368 H 0.46394 0.14898 0.15599 0.0
H369 H 0.37972 0.02606 0.17989 0.0
H370 H 0.29375 0.05455 0.14057 0.0
H371 H 0.34458 0.06465 0.18199 0.0
H372 H 0.42683 0.11755 0.09798 0.0
H373 H 0.37614 0.108 0.05651 0.0
C374 C 0.48131 0.11808 0.19275 0.0
C375 C 0.47022 0.08251 0.2119 0.0
C376 C 0.45535 0.12091 0.16966 0.0
C377 C 0.41805 0.08827 0.16566 0.0
C378 C 0.40789 0.05213 0.18338 0.0
C379 C 0.4337 0.04927 0.20617 0.0
C380 C 0.32278 0.0694 0.13115 0.0
C381 C 0.33082 0.07973 0.09513 0.0
C382 C 0.35183 0.07489 0.15478 0.0
C383 C 0.38938 0.09085 0.14284 0.0
C384 C 0.39808 0.10497 0.10779 0.0
C385 C 0.36898 0.09945 0.08408 0.0
H386 H 0.00481 0.28617 0.14692 0.0
H387 H 0.96002 0.32613 0.06109 0.0
H388 H 0.98521 0.32024 0.18996 0.0
H389 H 0.94174 0.36095 0.10353 0.0
H390 H 0.89236 0.40246 0.19018 0.0
H391 H 0.90161 0.35719 0.15077 0.0
H392 H 0.00715 0.38883 0.20624 0.0
H393 H 0.99721 0.43286 0.24608 0.0
C394 C 0.99038 0.30174 0.13729 0.0
C395 C 0.9841 0.30353 0.10061 0.0
C396 C 0.97944 0.32156 0.16187 0.0
C397 C 0.96226 0.34375 0.15018 0.0
C398 C 0.95444 0.34383 0.11361 0.0
C399 C 0.96512 0.32388 0.08917 0.0
C400 C 0.91753 0.39973 0.19381 0.0
C401 C 0.94409 0.4212 0.22113 0.0
C402 C 0.92285 0.37378 0.1713 0.0
C403 C 0.95504 0.36914 0.17544 0.0
C404 C 0.98159 0.39086 0.20277 0.0
C405 C 0.9761 0.41645 0.2254 0.0
H406 H 0.5568 0.59031 0.16287 0.0
H407 H 0.64536 0.56373 0.19038 0.0
H408 H 0.60084 0.64543 0.12534 0.0
H409 H 0.69077 0.62088 0.15532 0.0
H410 H 0.75363 0.70572 0.0627 0.0
H411 H 0.71282 0.64964 0.10072 0.0
H412 H 0.65067 0.71028 0.12919 0.0
H413 H 0.68985 0.76475 0.08883 0.0
C414 C 0.58572 0.5961 0.16029 0.0
C415 C 0.59768 0.57252 0.17859 0.0
C416 C 0.61131 0.62825 0.1395 0.0
C417 C 0.64985 0.63847 0.13773 0.0
C418 C 0.66138 0.61389 0.15553 0.0
C419 C 0.6354 0.58099 0.17552 0.0
C420 C 0.73179 0.70741 0.0778 0.0
C421 C 0.72476 0.73945 0.07282 0.0
C422 C 0.70821 0.67512 0.0996 0.0
C423 C 0.67762 0.67467 0.11754 0.0
C424 C 0.67285 0.7086 0.11477 0.0
C425 C 0.69575 0.74029 0.09219 0.0
H426 H 0.00756 0.4611 0.59551 0.0
H427 H 0.11017 0.52618 0.53407 0.0
H428 H 0.97082 0.46874 0.54737 0.0
H429 H 0.07327 0.53335 0.48584 0.0
H430 H 0.00147 0.54683 0.40361 0.0
H431 H 0.03004 0.55928 0.46378 0.0
H432 H 0.95744 0.43333 0.48827 0.0
H433 H 0.92968 0.42119 0.42848 0.0
C434 C 0.02243 0.47779 0.57209 0.0
C435 C 0.06166 0.49246 0.56829 0.0
C436 C 0.00136 0.48217 0.54458 0.0
C437 C 0.01915 0.50143 0.51284 0.0
C438 C 0.05884 0.51874 0.51016 0.0
C439 C 0.07991 0.5142 0.53761 0.0
C440 C 0.99075 0.52237 0.42252 0.0
C441 C 0.96355 0.48313 0.41184 0.0
C442 C 0.00719 0.52936 0.45671 0.0
C443 C 0.99609 0.49723 0.48056 0.0
C444 C 0.9663 0.45878 0.47068 0.0
C445 C 0.95046 0.45174 0.43647 0.0
H446 H 0.57975 0.63951 0.36301 0.0
H447 H 0.54019 0.51459 0.3875 0.0
H448 H 0.58048 0.65457 0.42609 0.0
H449 H 0.54156 0.53003 0.45107 0.0
H450 H 0.52279 0.57027 0.56149 0.0
H451 H 0.51333 0.55288 0.49804 0.0
H452 H 0.62176 0.65816 0.47576 0.0
H453 H 0.63107 0.67595 0.53878 0.0
C454 C 0.57099 0.61516 0.38184 0.0
C455 C 0.5604 0.57593 0.37027 0.0
C456 C 0.57157 0.62388 0.41801 0.0
C457 C 0.5617 0.59364 0.4435 0.0
C458 C 0.54921 0.55393 0.43195 0.0
C459 C 0.54852 0.54512 0.39559 0.0
C460 C 0.54455 0.58982 0.54303 0.0
C461 C 0.57771 0.62456 0.55524 0.0
C462 C 0.53916 0.5797 0.50674 0.0
C463 C 0.5667 0.60424 0.48197 0.0
C464 C 0.59972 0.639 0.49416 0.0
C465 C 0.60516 0.64906 0.53036 0.0
H466 H 0.34641 0.95539 0.56027 0.0
H467 H 0.4465 0.94534 0.58125 0.0
H468 H 0.36773 0.97683 0.49995 0.0
H469 H 0.46758 0.96635 0.52014 0.0
H470 H 0.51069 0.05777 0.42435 0.0
H471 H 0.49133 0.02918 0.48401 0.0
H472 H 0.37696 0.95061 0.44413 0.0
H473 H 0.39576 0.97932 0.38533 0.0
C474 C 0.37275 0.95723 0.55189 0.0
C475 C 0.39477 0.94871 0.57566 0.0
C476 C 0.38489 0.96938 0.51719 0.0
C477 C 0.41936 0.97329 0.50531 0.0
C478 C 0.44108 0.96394 0.52872 0.0
C479 C 0.4288 0.95157 0.56356 0.0
C480 C 0.48152 0.03423 0.42837 0.0
C481 C 0.45466 0.02136 0.40024 0.0
C482 C 0.4705 0.0177 0.46242 0.0
C483 C 0.43251 0.98799 0.46878 0.0
C484 C 0.40622 0.97404 0.44025 0.0
C485 C 0.4171 0.99056 0.40649 0.0
loop_
_geom_bond_atom_site_label_1
_geom_bond_atom_site_label_2
_geom_bond_distance
_geom_bond_site_symmetry_2
_ccdc_geom_bond_type
Mg0 O1 2.028 1_455 S
Mg0 O7 1.986 1_554 S
Mg0 O9 2.114 . S
Mg0 O10 2.251 1_455 S
Mg0 O13 2.010 . S
O1 Mg0 2.028 1_655 S
O1 C4 1.250 1_554 S
O2 Mg3 2.028 . S
O2 C4 1.248 . S
Mg3 O2 2.028 . S
Mg3 O8 2.032 . S
Mg3 O10 2.079 1_556 S
C4 O1 1.250 1_556 S
C4 O2 1.248 . S
C5 O6 1.264 . S
C5 O13 1.249 . S
O6 C5 1.264 . S
O7 Mg0 1.986 1_556 S
O7 C11 1.246 . S
O8 Mg3 2.032 . S
O8 C11 1.259 1_655 S
O9 Mg0 2.114 . S
O9 C12 1.252 1_455 S
O10 Mg0 2.251 1_655 S
O10 Mg3 2.079 1_554 S
O10 C12 1.273 . S
C11 O7 1.246 . S
C11 O8 1.259 1_455 S
C12 O9 1.252 1_655 S
C12 O10 1.273 . S
O13 Mg0 2.010 . S
O13 C5 1.249 . S
Mg14 O15 2.028 . S
Mg14 O21 1.986 . S
Mg14 O23 2.114 1_554 S
Mg14 O24 2.251 1_554 S
Mg14 O27 2.010 . S
O15 Mg14 2.028 . S
O15 C18 1.250 . S
O16 Mg17 2.028 . S
O16 C18 1.248 . S
Mg17 O16 2.028 . S
Mg17 O22 2.032 . S
Mg17 O24 2.079 1_554 S
C18 O15 1.250 . S
C18 O16 1.248 . S
C19 O20 1.264 . S
C19 O27 1.249 1_556 S
O20 C19 1.264 . S
O21 Mg14 1.986 . S
O21 C25 1.246 . S
O22 Mg17 2.032 . S
O22 C25 1.259 . S
O23 Mg14 2.114 1_556 S
O23 C26 1.252 . S
O24 Mg14 2.251 1_556 S
O24 Mg17 2.079 1_556 S
O24 C26 1.273 . S
C25 O21 1.246 . S
C25 O22 1.259 . S
C26 O23 1.252 . S
C26 O24 1.273 . S
O27 Mg14 2.010 . S
O27 C19 1.249 1_554 S
Mg28 O29 2.028 1_565 S
Mg28 O35 1.986 1_554 S
Mg28 O37 2.114 1_565 S
Mg28 O38 2.251 1_565 S
Mg28 O41 2.010 . S
O29 Mg28 2.028 1_545 S
O29 C32 1.250 1_554 S
O30 Mg31 2.028 . S
O30 C32 1.248 . S
Mg31 O30 2.028 . S
Mg31 O36 2.032 . S
Mg31 O38 2.079 1_556 S
C32 O29 1.250 1_556 S
C32 O30 1.248 . S
C33 O34 1.264 . S
C33 O41 1.249 . S
O34 C33 1.264 . S
O35 Mg28 1.986 1_556 S
O35 C39 1.246 1_565 S
O36 Mg31 2.032 . S
O36 C39 1.259 . S
O37 Mg28 2.114 1_545 S
O37 C40 1.252 . S
O38 Mg28 2.251 1_545 S
O38 Mg31 2.079 1_554 S
O38 C40 1.273 . S
C39 O35 1.246 1_545 S
C39 O36 1.259 . S
C40 O37 1.252 . S
C40 O38 1.273 . S
O41 Mg28 2.010 . S
O41 C33 1.249 . S
Mg42 O43 2.028 . S
Mg42 O49 1.986 . S
Mg42 O51 2.114 . S
Mg42 O52 2.251 . S
Mg42 O55 2.010 . S
O43 Mg42 2.028 . S
O43 C46 1.250 . S
O44 Mg45 2.028 . S
O44 C46 1.248 . S
Mg45 O44 2.028 . S
Mg45 O50 2.032 . S
Mg45 O52 2.079 . S
C46 O43 1.250 . S
C46 O44 1.248 . S
C47 O48 1.264 . S
C47 O55 1.249 . S
O48 C47 1.264 . S
O49 Mg42 1.986 . S
O49 C53 1.246 . S
O50 Mg45 2.032 . S
O50 C53 1.259 . S
O51 Mg42 2.114 . S
O51 C54 1.252 . S
O52 Mg42 2.251 . S
O52 Mg45 2.079 . S
O52 C54 1.273 . S
C53 O49 1.246 . S
C53 O50 1.259 . S
C54 O51 1.252 . S
C54 O52 1.273 . S
O55 Mg42 2.010 . S
O55 C47 1.249 . S
Mg56 O57 2.028 . S
Mg56 O63 1.986 . S
Mg56 O65 2.114 . S
Mg56 O66 2.251 . S
Mg56 O69 2.010 . S
O57 Mg56 2.028 . S
O57 C60 1.250 . S
O58 Mg59 2.028 . S
O58 C60 1.248 . S
Mg59 O58 2.028 . S
Mg59 O64 2.032 . S
Mg59 O66 2.079 . S
C60 O57 1.250 . S
C60 O58 1.248 . S
C61 O62 1.264 . S
C61 O69 1.249 . S
O62 C61 1.264 . S
O63 Mg56 1.986 . S
O63 C67 1.246 . S
O64 Mg59 2.032 . S
O64 C67 1.259 . S
O65 Mg56 2.114 . S
O65 C68 1.252 . S
O66 Mg56 2.251 . S
O66 Mg59 2.079 . S
O66 C68 1.273 . S
C67 O63 1.246 . S
C67 O64 1.259 . S
C68 O65 1.252 . S
C68 O66 1.273 . S
O69 Mg56 2.010 . S
O69 C61 1.249 . S
Mg70 O71 2.028 . S
Mg70 O77 1.986 . S
Mg70 O79 2.114 . S
Mg70 O80 2.251 . S
Mg70 O83 2.010 . S
O71 Mg70 2.028 . S
O71 C74 1.250 . S
O72 Mg73 2.028 . S
O72 C74 1.248 . S
Mg73 O72 2.028 . S
Mg73 O78 2.032 . S
Mg73 O80 2.079 . S
C74 O71 1.250 . S
C74 O72 1.248 . S
C75 O76 1.264 . S
C75 O83 1.249 . S
O76 C75 1.264 . S
O77 Mg70 1.986 . S
O77 C81 1.246 . S
O78 Mg73 2.032 . S
O78 C81 1.259 . S
O79 Mg70 2.114 . S
O79 C82 1.252 . S
O80 Mg70 2.251 . S
O80 Mg73 2.079 . S
O80 C82 1.273 . S
C81 O77 1.246 . S
C81 O78 1.259 . S
C82 O79 1.252 . S
C82 O80 1.273 . S
O83 Mg70 2.010 . S
O83 C75 1.249 . S
Mg84 O85 2.028 . S
Mg84 O91 1.986 . S
Mg84 O93 2.114 . S
Mg84 O94 2.251 . S
Mg84 O97 2.010 . S
O85 Mg84 2.028 . S
O85 C88 1.250 . S
O86 Mg87 2.028 . S
O86 C88 1.248 . S
Mg87 O86 2.028 . S
Mg87 O92 2.032 . S
Mg87 O94 2.079 . S
C88 O85 1.250 . S
C88 O86 1.248 . S
C89 O90 1.264 . S
C89 O97 1.249 . S
O90 C89 1.264 . S
O91 Mg84 1.986 . S
O91 C95 1.246 . S
O92 Mg87 2.032 . S
O92 C95 1.259 . S
O93 Mg84 2.114 . S
O93 C96 1.252 . S
O94 Mg84 2.251 . S
O94 Mg87 2.079 . S
O94 C96 1.273 . S
C95 O91 1.246 . S
C95 O92 1.259 . S
C96 O93 1.252 . S
C96 O94 1.273 . S
O97 Mg84 2.010 . S
O97 C89 1.249 . S
Mg98 O99 2.028 . S
Mg98 O105 1.986 . S
Mg98 O107 2.114 . S
Mg98 O108 2.251 . S
Mg98 O111 2.010 . S
O99 Mg98 2.028 . S
O99 C102 1.250 . S
O100 Mg101 2.028 . S
O100 C102 1.248 . S
Mg101 O100 2.028 . S
Mg101 O106 2.032 . S
Mg101 O108 2.079 . S
C102 O99 1.250 . S
C102 O100 1.248 . S
C103 O104 1.264 . S
C103 O111 1.249 . S
O104 C103 1.264 . S
O105 Mg98 1.986 . S
O105 C109 1.246 . S
O106 Mg101 2.032 . S
O106 C109 1.259 . S
O107 Mg98 2.114 . S
O107 C110 1.252 . S
O108 Mg98 2.251 . S
O108 Mg101 2.079 . S
O108 C110 1.273 . S
C109 O105 1.246 . S
C109 O106 1.259 . S
C110 O107 1.252 . S
C110 O108 1.273 . S
O111 Mg98 2.010 . S
O111 C103 1.249 . S
Mg112 O113 2.028 . S
Mg112 O119 1.986 . S
Mg112 O121 2.114 . S
Mg112 O122 2.251 . S
Mg112 O125 2.010 . S
O113 Mg112 2.028 . S
O113 C116 1.250 . S
O114 Mg115 2.028 . S
O114 C116 1.248 . S
Mg115 O114 2.028 . S
Mg115 O120 2.032 . S
Mg115 O122 2.079 . S
C116 O113 1.250 . S
C116 O114 1.248 . S
C117 O118 1.264 . S
C117 O125 1.249 . S
O118 C117 1.264 . S
O119 Mg112 1.986 . S
O119 C123 1.246 . S
O120 Mg115 2.032 . S
O120 C123 1.259 . S
O121 Mg112 2.114 . S
O121 C124 1.252 . S
O122 Mg112 2.251 . S
O122 Mg115 2.079 . S
O122 C124 1.273 . S
C123 O119 1.246 . S
C123 O120 1.259 . S
C124 O121 1.252 . S
C124 O122 1.273 . S
O125 Mg112 2.010 . S
O125 C117 1.249 . S
H126 C134 0.950 . S
H127 C139 0.950 . S
H128 C136 0.950 . S
H129 C138 0.950 . S
H130 C140 0.950 . S
H131 C142 0.940 1_556 S
H132 C144 0.950 . S
H133 C145 0.950 . S
C134 H126 0.950 . S
C134 C135 1.386 1_554 S
C134 C136 1.391 . S
C135 C134 1.386 1_556 S
C135 C139 1.393 . S
C136 H128 0.950 . S
C136 C134 1.391 . S
C136 C137 1.400 . S
C137 C136 1.400 . S
C137 C138 1.398 1_554 S
C137 C143 1.491 . S
C138 H129 0.950 . S
C138 C137 1.398 1_556 S
C138 C139 1.391 . S
C139 H127 0.950 . S
C139 C135 1.393 . S
C139 C138 1.391 . S
C140 H130 0.950 . S
C140 C141 1.386 . S
C140 C142 1.391 . S
C141 C140 1.386 . S
C141 C145 1.393 . S
C142 H131 0.940 1_554 S
C142 C140 1.391 . S
C142 C143 1.400 . S
C143 C137 1.491 . S
C143 C142 1.400 . S
C143 C144 1.398 . S
C144 H132 0.950 . S
C144 C143 1.398 . S
C144 C145 1.391 . S
C145 H133 0.950 . S
C145 C141 1.393 . S
C145 C144 1.391 . S
H146 C154 0.950 . S
H147 C159 0.950 1_556 S
H148 C156 0.950 1_545 S
H149 C158 0.950 . S
H150 C160 0.950 . S
H151 C162 0.950 . S
H152 C164 0.950 . S
H153 C165 0.950 . S
C154 H146 0.950 . S
C154 C155 1.386 . S
C154 C156 1.391 . S
C155 C154 1.386 . S
C155 C159 1.393 . S
C156 H148 0.950 1_565 S
C156 C154 1.391 . S
C156 C157 1.400 1_565 S
C157 C156 1.400 1_545 S
C157 C158 1.398 1_544 S
C157 C163 1.491 . S
C158 H149 0.950 . S
C158 C157 1.398 1_566 S
C158 C159 1.391 1_556 S
C159 H147 0.950 1_554 S
C159 C155 1.393 . S
C159 C158 1.391 1_554 S
C160 H150 0.950 . S
C160 C161 1.386 . S
C160 C162 1.391 . S
C161 C160 1.386 . S
C161 C165 1.393 1_556 S
C162 H151 0.950 . S
C162 C160 1.391 . S
C162 C163 1.400 1_556 S
C163 C157 1.491 . S
C163 C162 1.400 1_554 S
C163 C164 1.398 . S
C164 H152 0.950 . S
C164 C163 1.398 . S
C164 C165 1.391 . S
C165 H153 0.950 . S
C165 C161 1.393 1_554 S
C165 C164 1.391 . S
H166 C174 0.950 . S
H167 C179 0.950 . S
H168 C176 0.950 . S
H169 C178 0.950 . S
H170 C180 0.950 . S
H171 C182 0.950 . S
H172 C184 0.950 . S
H173 C185 0.950 . S
C174 H166 0.950 . S
C174 C175 1.386 . S
C174 C176 1.391 . S
C175 C174 1.386 . S
C175 C179 1.393 1_556 S
C176 H168 0.950 . S
C176 C174 1.391 . S
C176 C177 1.400 1_556 S
C177 C176 1.400 1_554 S
C177 C178 1.398 . S
C177 C183 1.491 1_655 S
C178 H169 0.950 . S
C178 C177 1.398 . S
C178 C179 1.391 . S
C179 H167 0.950 . S
C179 C175 1.393 1_554 S
C179 C178 1.391 . S
C180 H170 0.950 . S
C180 C181 1.386 . S
C180 C182 1.391 . S
C181 C180 1.386 . S
C181 C185 1.393 1_554 S
C182 H171 0.950 . S
C182 C180 1.391 . S
C182 C183 1.400 . S
C183 C177 1.491 1_455 S
C183 C182 1.400 . S
C183 C184 1.398 1_554 S
C184 H172 0.950 . S
C184 C183 1.398 1_556 S
C184 C185 1.391 . S
C185 H173 0.950 . S
C185 C181 1.393 1_556 S
C185 C184 1.391 . S
H186 C194 0.950 . S
H187 C199 0.950 . S
H188 C196 0.950 . S
H189 C198 0.950 . S
H190 C200 0.950 . S
H191 C202 0.950 . S
H192 C204 0.950 . S
H193 C205 0.950 . S
C194 H186 0.950 . S
C194 C195 1.386 . S
C194 C196 1.391 . S
C195 C194 1.386 . S
C195 C199 1.393 . S
C196 H188 0.950 . S
C196 C194 1.391 . S
C196 C197 1.400 . S
C197 C196 1.400 . S
C197 C198 1.398 . S
C197 C203 1.491 . S
C198 H189 0.950 . S
C198 C197 1.398 . S
C198 C199 1.391 . S
C199 H187 0.950 . S
C199 C195 1.393 . S
C199 C198 1.391 . S
C200 H190 0.950 . S
C200 C201 1.386 . S
C200 C202 1.391 . S
C201 C200 1.386 . S
C201 C205 1.393 . S
C202 H191 0.950 . S
C202 C200 1.391 . S
C202 C203 1.400 . S
C203 C197 1.491 . S
C203 C202 1.400 . S
C203 C204 1.398 . S
C204 H192 0.950 . S
C204 C203 1.398 . S
C204 C205 1.391 . S
C205 H193 0.950 . S
C205 C201 1.393 . S
C205 C204 1.391 . S
H206 C214 0.950 . S
H207 C219 0.950 . S
H208 C216 0.950 . S
H209 C218 0.950 . S
H210 C220 0.950 . S
H211 C222 0.950 . S
H212 C224 0.950 . S
H213 C225 0.950 . S
C214 H206 0.950 . S
C214 C215 1.386 . S
C214 C216 1.391 . S
C215 C214 1.386 . S
C215 C219 1.393 . S
C216 H208 0.950 . S
C216 C214 1.391 . S
C216 C217 1.400 . S
C217 C216 1.400 . S
C217 C218 1.398 . S
C217 C223 1.491 . S
C218 H209 0.950 . S
C218 C217 1.398 . S
C218 C219 1.391 . S
C219 H207 0.950 . S
C219 C215 1.393 . S
C219 C218 1.391 . S
C220 H210 0.950 . S
C220 C221 1.386 . S
C220 C222 1.391 . S
C221 C220 1.386 . S
C221 C225 1.393 . S
C222 H211 0.950 . S
C222 C220 1.391 . S
C222 C223 1.400 . S
C223 C217 1.491 . S
C223 C222 1.400 . S
C223 C224 1.398 . S
C224 H212 0.950 . S
C224 C223 1.398 . S
C224 C225 1.391 . S
C225 H213 0.950 . S
C225 C221 1.393 . S
C225 C224 1.391 . S
H226 C234 0.950 . S
H227 C239 0.950 . S
H228 C236 0.950 . S
H229 C238 0.950 . S
H230 C240 0.950 . S
H231 C242 0.950 . S
H232 C244 0.950 . S
H233 C245 0.950 . S
C234 H226 0.950 . S
C234 C235 1.386 . S
C234 C236 1.391 . S
C235 C234 1.386 . S
C235 C239 1.393 . S
C236 H228 0.950 . S
C236 C234 1.391 . S
C236 C237 1.400 . S
C237 C236 1.400 . S
C237 C238 1.398 . S
C237 C243 1.491 . S
C238 H229 0.950 . S
C238 C237 1.398 . S
C238 C239 1.391 . S
C239 H227 0.950 . S
C239 C235 1.393 . S
C239 C238 1.391 . S
C240 H230 0.950 . S
C240 C241 1.386 . S
C240 C242 1.391 . S
C241 C240 1.386 . S
C241 C245 1.393 . S
C242 H231 0.950 . S
C242 C240 1.391 . S
C242 C243 1.400 . S
C243 C237 1.491 . S
C243 C242 1.400 . S
C243 C244 1.398 . S
C244 H232 0.950 . S
C244 C243 1.398 . S
C244 C245 1.391 . S
C245 H233 0.950 . S
C245 C241 1.393 . S
C245 C244 1.391 . S
H246 C254 0.950 . S
H247 C259 0.950 . S
H248 C256 0.950 . S
H249 C258 0.950 . S
H250 C260 0.950 . S
H251 C262 0.950 . S
H252 C264 0.950 . S
H253 C265 0.950 . S
C254 H246 0.950 . S
C254 C255 1.386 . S
C254 C256 1.391 . S
C255 C254 1.386 . S
C255 C259 1.393 . S
C256 H248 0.950 . S
C256 C254 1.391 . S
C256 C257 1.400 . S
C257 C256 1.400 . S
C257 C258 1.398 . S
C257 C263 1.491 . S
C258 H249 0.950 . S
C258 C257 1.398 . S
C258 C259 1.391 . S
C259 H247 0.950 . S
C259 C255 1.393 . S
C259 C258 1.391 . S
C260 H250 0.950 . S
C260 C261 1.386 . S
C260 C262 1.391 . S
C261 C260 1.386 . S
C261 C265 1.393 . S
C262 H251 0.950 . S
C262 C260 1.391 . S
C262 C263 1.400 . S
C263 C257 1.491 . S
C263 C262 1.400 . S
C263 C264 1.398 . S
C264 H252 0.950 . S
C264 C263 1.398 . S
C264 C265 1.391 . S
C265 H253 0.950 . S
C265 C261 1.393 . S
C265 C264 1.391 . S
H266 C274 0.950 . S
H267 C279 0.950 . S
H268 C276 0.950 . S
H269 C278 0.950 . S
H270 C280 0.950 . S
H271 C282 0.950 . S
H272 C284 0.950 . S
H273 C285 0.950 . S
C274 H266 0.950 . S
C274 C275 1.386 . S
C274 C276 1.391 . S
C275 C274 1.386 . S
C275 C279 1.393 . S
C276 H268 0.950 . S
C276 C274 1.391 . S
C276 C277 1.400 . S
C277 C276 1.400 . S
C277 C278 1.398 . S
C277 C283 1.491 . S
C278 H269 0.950 . S
C278 C277 1.398 . S
C278 C279 1.391 . S
C279 H267 0.950 . S
C279 C275 1.393 . S
C279 C278 1.391 . S
C280 H270 0.950 . S
C280 C281 1.386 . S
C280 C282 1.391 . S
C281 C280 1.386 . S
C281 C285 1.393 . S
C282 H271 0.950 . S
C282 C280 1.391 . S
C282 C283 1.400 . S
C283 C277 1.491 . S
C283 C282 1.400 . S
C283 C284 1.398 . S
C284 H272 0.950 . S
C284 C283 1.398 . S
C284 C285 1.391 . S
C285 H273 0.950 . S
C285 C281 1.393 . S
C285 C284 1.391 . S
H286 C294 0.950 . S
H287 C299 0.950 . S
H288 C296 0.950 . S
H289 C298 0.950 . S
H290 C300 0.950 . S
H291 C302 0.950 . S
H292 C304 0.950 . S
H293 C305 0.950 . S
C294 H286 0.950 . S
C294 C295 1.386 . S
C294 C296 1.391 . S
C295 C294 1.386 . S
C295 C299 1.393 . S
C296 H288 0.950 . S
C296 C294 1.391 . S
C296 C297 1.400 . S
C297 C296 1.400 . S
C297 C298 1.398 . S
C297 C303 1.491 . S
C298 H289 0.950 . S
C298 C297 1.398 . S
C298 C299 1.391 . S
C299 H287 0.950 . S
C299 C295 1.393 . S
C299 C298 1.391 . S
C300 H290 0.950 . S
C300 C301 1.386 . S
C300 C302 1.391 . S
C301 C300 1.386 . S
C301 C305 1.393 . S
C302 H291 0.950 . S
C302 C300 1.391 . S
C302 C303 1.400 . S
C303 C297 1.491 . S
C303 C302 1.400 . S
C303 C304 1.398 . S
C304 H292 0.950 . S
C304 C303 1.398 . S
C304 C305 1.391 . S
C305 H293 0.950 . S
C305 C301 1.393 . S
C305 C304 1.391 . S
H306 C314 0.950 . S
H307 C319 0.950 . S
H308 C316 0.950 . S
H309 C318 0.950 . S
H310 C320 0.950 . S
H311 C322 0.950 . S
H312 C324 0.950 . S
H313 C325 0.950 . S
C314 H306 0.950 . S
C314 C315 1.386 . S
C314 C316 1.391 . S
C315 C314 1.386 . S
C315 C319 1.393 . S
C316 H308 0.950 . S
C316 C314 1.391 . S
C316 C317 1.400 . S
C317 C316 1.400 . S
C317 C318 1.398 . S
C317 C323 1.491 . S
C318 H309 0.950 . S
C318 C317 1.398 . S
C318 C319 1.391 . S
C319 H307 0.950 . S
C319 C315 1.393 . S
C319 C318 1.391 . S
C320 H310 0.950 . S
C320 C321 1.386 . S
C320 C322 1.391 . S
C321 C320 1.386 . S
C321 C325 1.393 . S
C322 H311 0.950 . S
C322 C320 1.391 . S
C322 C323 1.400 . S
C323 C317 1.491 . S
C323 C322 1.400 . S
C323 C324 1.398 . S
C324 H312 0.950 . S
C324 C323 1.398 . S
C324 C325 1.391 . S
C325 H313 0.950 . S
C325 C321 1.393 . S
C325 C324 1.391 . S
H326 C334 0.950 . S
H327 C339 0.950 . S
H328 C336 0.950 . S
H329 C338 0.950 . S
H330 C340 0.950 . S
H331 C342 0.950 . S
H332 C344 0.950 . S
H333 C345 0.950 . S
C334 H326 0.950 . S
C334 C335 1.386 . S
C334 C336 1.391 . S
C335 C334 1.386 . S
C335 C339 1.393 . S
C336 H328 0.950 . S
C336 C334 1.391 . S
C336 C337 1.400 . S
C337 C336 1.400 . S
C337 C338 1.398 . S
C337 C343 1.491 . S
C338 H329 0.950 . S
C338 C337 1.398 . S
C338 C339 1.391 . S
C339 H327 0.950 . S
C339 C335 1.393 . S
C339 C338 1.391 . S
C340 H330 0.950 . S
C340 C341 1.386 . S
C340 C342 1.391 . S
C341 C340 1.386 . S
C341 C345 1.393 . S
C342 H331 0.950 . S
C342 C340 1.391 . S
C342 C343 1.400 . S
C343 C337 1.491 . S
C343 C342 1.400 . S
C343 C344 1.398 . S
C344 H332 0.950 . S
C344 C343 1.398 . S
C344 C345 1.391 . S
C345 H333 0.950 . S
C345 C341 1.393 . S
C345 C344 1.391 . S
H346 C354 0.950 . S
H347 C359 0.950 . S
H348 C356 0.950 . S
H349 C358 0.950 . S
H350 C360 0.950 . S
H351 C362 0.950 1_545 S
H352 C364 0.950 . S
H353 C365 0.950 . S
C354 H346 0.950 . S
C354 C355 1.386 . S
C354 C356 1.391 . S
C355 C354 1.386 . S
C355 C359 1.393 . S
C356 H348 0.950 . S
C356 C354 1.391 . S
C356 C357 1.400 . S
C357 C356 1.400 . S
C357 C358 1.398 . S
C357 C363 1.491 . S
C358 H349 0.950 . S
C358 C357 1.398 . S
C358 C359 1.391 . S
C359 H347 0.950 . S
C359 C355 1.393 . S
C359 C358 1.391 . S
C360 H350 0.950 . S
C360 C361 1.386 1_545 S
C360 C362 1.391 1_545 S
C361 C360 1.386 1_565 S
C361 C365 1.393 . S
C362 H351 0.950 1_565 S
C362 C360 1.391 1_565 S
C362 C363 1.400 . S
C363 C357 1.491 . S
C363 C362 1.400 . S
C363 C364 1.398 . S
C364 H352 0.950 . S
C364 C363 1.398 . S
C364 C365 1.391 . S
C365 H353 0.950 . S
C365 C361 1.393 . S
C365 C364 1.391 . S
H366 C374 0.950 . S
H367 C379 0.950 . S
H368 C376 0.950 . S
H369 C378 0.950 . S
H370 C380 0.950 1_565 S
H371 C382 0.950 . S
H372 C384 0.950 . S
H373 C385 0.950 . S
C374 H366 0.950 . S
C374 C375 1.386 . S
C374 C376 1.391 . S
C375 C374 1.386 . S
C375 C379 1.393 . S
C376 H368 0.950 . S
C376 C374 1.391 . S
C376 C377 1.400 . S
C377 C376 1.400 . S
C377 C378 1.398 . S
C377 C383 1.491 . S
C378 H369 0.950 . S
C378 C377 1.398 . S
C378 C379 1.391 . S
C379 H367 0.950 . S
C379 C375 1.393 . S
C379 C378 1.391 . S
C380 H370 0.950 1_545 S
C380 C381 1.386 . S
C380 C382 1.391 . S
C381 C380 1.386 . S
C381 C385 1.393 . S
C382 H371 0.950 . S
C382 C380 1.391 . S
C382 C383 1.400 . S
C383 C377 1.491 . S
C383 C382 1.400 . S
C383 C384 1.398 . S
C384 H372 0.950 . S
C384 C383 1.398 . S
C384 C385 1.391 . S
C385 H373 0.950 . S
C385 C381 1.393 . S
C385 C384 1.391 . S
H386 C394 0.950 . S
H387 C399 0.950 . S
H388 C396 0.950 1_455 S
H389 C398 0.950 . S
H390 C400 0.950 . S
H391 C402 0.950 . S
H392 C404 0.968 . S
H393 C405 0.950 . S
C394 H386 0.950 . S
C394 C395 1.386 1_455 S
C394 C396 1.391 1_455 S
C395 C394 1.386 1_655 S
C395 C399 1.393 . S
C396 H388 0.950 1_655 S
C396 C394 1.391 1_655 S
C396 C397 1.400 . S
C397 C396 1.400 . S
C397 C398 1.398 . S
C397 C403 1.491 . S
C398 H389 0.950 . S
C398 C397 1.398 . S
C398 C399 1.391 . S
C399 H387 0.950 . S
C399 C395 1.393 . S
C399 C398 1.391 . S
C400 H390 0.950 . S
C400 C401 1.386 . S
C400 C402 1.391 . S
C401 C400 1.386 . S
C401 C405 1.393 . S
C402 H391 0.950 . S
C402 C400 1.391 . S
C402 C403 1.400 . S
C403 C397 1.491 . S
C403 C402 1.400 . S
C403 C404 1.398 . S
C404 H392 0.968 . S
C404 C403 1.398 . S
C404 C405 1.391 . S
C405 H393 0.950 . S
C405 C401 1.393 . S
C405 C404 1.391 . S
H406 C414 0.950 . S
H407 C419 0.950 . S
H408 C416 0.950 . S
H409 C418 0.950 . S
H410 C420 0.950 . S
H411 C422 0.950 . S
H412 C424 0.950 . S
H413 C425 0.950 . S
C414 H406 0.950 . S
C414 C415 1.386 . S
C414 C416 1.391 . S
C415 C414 1.386 . S
C415 C419 1.393 . S
C416 H408 0.950 . S
C416 C414 1.391 . S
C416 C417 1.400 . S
C417 C416 1.400 . S
C417 C418 1.398 . S
C417 C423 1.491 . S
C418 H409 0.950 . S
C418 C417 1.398 . S
C418 C419 1.391 . S
C419 H407 0.950 . S
C419 C415 1.393 . S
C419 C418 1.391 . S
C420 H410 0.950 . S
C420 C421 1.386 . S
C420 C422 1.391 . S
C421 C420 1.386 . S
C421 C425 1.393 . S
C422 H411 0.950 . S
C422 C420 1.391 . S
C422 C423 1.400 . S
C423 C417 1.491 . S
C423 C422 1.400 . S
C423 C424 1.398 . S
C424 H412 0.950 . S
C424 C423 1.398 . S
C424 C425 1.391 . S
C425 H413 0.950 . S
C425 C421 1.393 . S
C425 C424 1.391 . S
H426 C434 0.950 . S
H427 C439 0.950 . S
H428 C436 0.950 . S
H429 C438 0.950 . S
H430 C440 0.950 . S
H431 C442 0.950 . S
H432 C444 0.950 . S
H433 C445 0.950 . S
C434 H426 0.950 . S
C434 C435 1.386 . S
C434 C436 1.391 . S
C435 C434 1.386 . S
C435 C439 1.393 . S
C436 H428 0.950 . S
C436 C434 1.391 . S
C436 C437 1.400 . S
C437 C436 1.400 . S
C437 C438 1.398 . S
C437 C443 1.491 1_455 S
C438 H429 0.950 . S
C438 C437 1.398 . S
C438 C439 1.391 . S
C439 H427 0.950 . S
C439 C435 1.393 . S
C439 C438 1.391 . S
C440 H430 0.950 . S
C440 C441 1.386 . S
C440 C442 1.391 1_655 S
C441 C440 1.386 . S
C441 C445 1.393 . S
C442 H431 0.950 . S
C442 C440 1.391 1_455 S
C442 C443 1.400 1_455 S
C443 C437 1.491 1_655 S
C443 C442 1.400 1_655 S
C443 C444 1.398 . S
C444 H432 0.950 . S
C444 C443 1.398 . S
C444 C445 1.391 . S
C445 H433 0.950 . S
C445 C441 1.393 . S
C445 C444 1.391 . S
H446 C454 0.950 . S
H447 C459 0.950 . S
H448 C456 0.950 . S
H449 C458 0.950 . S
H450 C460 0.950 . S
H451 C462 0.950 . S
H452 C464 0.950 . S
H453 C465 0.950 . S
C454 H446 0.950 . S
C454 C455 1.386 . S
C454 C456 1.391 . S
C455 C454 1.386 . S
C455 C459 1.393 . S
C456 H448 0.950 . S
C456 C454 1.391 . S
C456 C457 1.400 . S
C457 C456 1.400 . S
C457 C458 1.398 . S
C457 C463 1.491 . S
C458 H449 0.950 . S
C458 C457 1.398 . S
C458 C459 1.391 . S
C459 H447 0.950 . S
C459 C455 1.393 . S
C459 C458 1.391 . S
C460 H450 0.950 . S
C460 C461 1.386 . S
C460 C462 1.391 . S
C461 C460 1.386 . S
C461 C465 1.393 . S
C462 H451 0.950 . S
C462 C460 1.391 . S
C462 C463 1.400 . S
C463 C457 1.491 . S
C463 C462 1.400 . S
C463 C464 1.398 . S
C464 H452 0.950 . S
C464 C463 1.398 . S
C464 C465 1.391 . S
C465 H453 0.950 . S
C465 C461 1.393 . S
C465 C464 1.391 . S
H466 C474 0.950 1_545 S
H467 C479 0.950 . S
H468 C476 0.950 . S
H469 C478 0.950 . S
H470 C480 0.950 . S
H471 C482 0.950 1_565 S
H472 C484 0.950 . S
H473 C485 0.950 . S
C474 H466 0.950 1_565 S
C474 C475 1.386 . S
C474 C476 1.391 1_565 S
C475 C474 1.386 . S
C475 C479 1.393 . S
C476 H468 0.950 . S
C476 C474 1.391 1_545 S
C476 C477 1.400 . S
C477 C476 1.400 . S
C477 C478 1.398 1_545 S
C477 C483 1.491 . S
C478 H469 0.950 . S
C478 C477 1.398 1_565 S
C478 C479 1.391 . S
C479 H467 0.950 . S
C479 C475 1.393 . S
C479 C478 1.391 . S
C480 H470 0.950 . S
C480 C481 1.386 . S
C480 C482 1.391 . S
C481 C480 1.386 . S
C481 C485 1.393 . S
C482 H471 0.950 1_545 S
C482 C480 1.391 . S
C482 C483 1.400 . S
C483 C477 1.491 . S
C483 C482 1.400 . S
C483 C484 1.398 . S
C484 H472 0.950 . S
C484 C483 1.398 . S
C484 C485 1.391 . S
C485 H473 0.950 . S
C485 C481 1.393 . S
C485 C484 1.391 . S
C135 C32 1.078 . S
C141 C5 1.008 . S
C155 C18 1.077 . S
C161 C4 1.075 . S
C175 C19 0.839 . S
C181 C33 0.810 . S
C195 C75 0.945 . S
C201 C46 1.008 . S
C215 C60 0.931 . S
C221 C47 0.933 . S
C235 C61 0.996 . S
C241 C74 1.050 . S
C255 C89 0.827 . S
C261 C116 0.882 . S
C275 C88 1.144 . S
C281 C102 1.142 . S
C295 C103 0.827 . S
C301 C117 0.890 . S
C315 C11 1.344 . S
C321 C109 1.341 . S
C335 C26 1.293 . S
C341 C124 1.291 . S
C355 C96 1.301 . S
C361 C39 1.297 1_565 S
C375 C68 1.308 . S
C381 C40 1.308 . S
C395 C12 1.427 . S
C401 C82 1.426 . S
C415 C54 1.313 . S
C421 C25 1.309 . S
C435 C110 1.328 . S
C441 C81 1.318 . S
C455 C53 1.207 . S
C461 C123 1.214 . S
C475 C95 1.329 . S
C481 C67 1.310 . S
