# Generated by pormake.
# Topology soe, (5)-cn, num edge types: 1
# Building blocks:
#     Node 0, Type 0, BuildingBlock: XOMCOT_clean_sbu_0, # of connection points: 5
#     Node 1, Type 0, BuildingBlock: XOMCOT_clean_sbu_0, # of connection points: 5
#     Node 2, Type 0, BuildingBlock: XOMCOT_clean_sbu_0, # of connection points: 5
#     Node 3, Type 0, BuildingBlock: XOMCOT_clean_sbu_0, # of connection points: 5
#     Node 4, Type 0, BuildingBlock: XOMCOT_clean_sbu_0, # of connection points: 5
#     Node 5, Type 0, BuildingBlock: XOMCOT_clean_sbu_0, # of connection points: 5
#     Node 6, Type 0, BuildingBlock: XOMCOT_clean_sbu_0, # of connection points: 5
#     Node 7, Type 0, BuildingBlock: XOMCOT_clean_sbu_0, # of connection points: 5
#     Edge 8, Type (0, 0), BuildingBlock: OJICUG_clean_linker_0, # of connection points: 2
#     Edge 9, Type (0, 0), BuildingBlock: OJICUG_clean_linker_0, # of connection points: 2
#     Edge 10, Type (0, 0), BuildingBlock: OJICUG_clean_linker_0, # of connection points: 2
#     Edge 11, Type (0, 0), BuildingBlock: OJICUG_clean_linker_0, # of connection points: 2
#     Edge 12, Type (0, 0), BuildingBlock: OJICUG_clean_linker_0, # of connection points: 2
#     Edge 13, Type (0, 0), BuildingBlock: OJICUG_clean_linker_0, # of connection points: 2
#     Edge 14, Type (0, 0), BuildingBlock: OJICUG_clean_linker_0, # of connection points: 2
#     Edge 15, Type (0, 0), BuildingBlock: OJICUG_clean_linker_0, # of connection points: 2
#     Edge 16, Type (0, 0), BuildingBlock: OJICUG_clean_linker_0, # of connection points: 2
#     Edge 17, Type (0, 0), BuildingBlock: OJICUG_clean_linker_0, # of connection points: 2
#     Edge 18, Type (0, 0), BuildingBlock: OJICUG_clean_linker_0, # of connection points: 2
#     Edge 19, Type (0, 0), BuildingBlock: OJICUG_clean_linker_0, # of connection points: 2
#     Edge 20, Type (0, 0), BuildingBlock: OJICUG_clean_linker_0, # of connection points: 2
#     Edge 21, Type (0, 0), BuildingBlock: OJICUG_clean_linker_0, # of connection points: 2
#     Edge 22, Type (0, 0), BuildingBlock: OJICUG_clean_linker_0, # of connection points: 2
#     Edge 23, Type (0, 0), BuildingBlock: OJICUG_clean_linker_0, # of connection points: 2
#     Edge 24, Type (0, 0), BuildingBlock: OJICUG_clean_linker_0, # of connection points: 2
#     Edge 25, Type (0, 0), BuildingBlock: OJICUG_clean_linker_0, # of connection points: 2
#     Edge 26, Type (0, 0), BuildingBlock: OJICUG_clean_linker_0, # of connection points: 2
#     Edge 27, Type (0, 0), BuildingBlock: OJICUG_clean_linker_0, # of connection points: 2
# Relax obj value: 0.039
# Max RMSD: 0.066
# Mean RMSD: 0.066
data_MOF--net-soe--node1-XOMCOT_clean_sbu_0--edge1-OJICUG_clean_linker_0
_symmetry_space_group_name_H-M    P1
_symmetry_Int_Tables_number       1
_symmetry_cell_setting            triclinic
loop_
_symmetry_equiv_pos_as_xyz
'x, y, z'
_cell_length_a     45.081799
_cell_length_b     31.688825
_cell_length_c     13.565854
_cell_angle_alpha  89.998613
_cell_angle_beta   89.990351
_cell_angle_gamma 90.002396
loop_
_atom_site_label
_atom_site_type_symbol
_atom_site_fract_x
_atom_site_fract_y
_atom_site_fract_z
_atom_type_partial_charge
Co0 Co 0.09619 0.12324 0.12911 0.0
C1 C 0.09823 0.12424 0.90941 0.0
C2 C 0.09076 0.18588 0.96836 0.0
C3 C 0.08905 0.18815 0.86724 0.0
N4 N 0.09746 0.14597 0.99531 0.0
N5 N 0.09366 0.14927 0.83026 0.0
H6 H 0.10032 0.09044 0.90445 0.0
H7 H 0.08541 0.21132 0.01823 0.0
C8 C 0.12398 0.20815 0.16757 0.0
O9 O 0.14489 0.19925 0.10341 0.0
N10 N 0.09395 0.1011 0.26154 0.0
C11 C 0.10037 0.06148 0.2904 0.0
C12 C 0.09909 0.05971 0.39179 0.0
C13 C 0.08872 0.12284 0.3452 0.0
N14 N 0.09196 0.0984 0.42608 0.0
C15 C 0.14751 0.08021 0.06034 0.0
C16 C 0.18604 0.10555 0.20698 0.0
C17 C 0.19595 0.07654 0.13592 0.0
C18 C 0.17602 0.06374 0.0627 0.0
C19 C 0.1569 0.12092 0.20261 0.0
N20 N 0.13828 0.10928 0.12772 0.0
H21 H 0.13241 0.06729 1.00738 0.0
H22 H 0.14914 0.14132 0.26096 0.0
H23 H 0.10674 1.03612 0.24143 0.0
H24 H 0.08324 0.15604 0.34709 0.0
O25 O 0.08167 0.07039 0.07894 0.0
O26 O 0.05323 0.12443 0.12169 0.0
O27 O 0.1032 0.1817 0.18501 0.0
C28 C 0.05524 0.08621 0.08642 0.0
H29 H 0.08312 0.2158 0.82477 0.0
H30 H 0.1044 1.03255 0.43682 0.0
H31 H 0.20046 0.116 0.26593 0.0
H32 H 0.1819 0.03978 1.00924 0.0
Co33 Co 0.41328 0.95507 0.12928 0.0
C34 C 0.41124 0.95407 0.90958 0.0
C35 C 0.4189 0.89248 0.96856 0.0
C36 C 0.42062 0.89021 0.86744 0.0
N37 N 0.41207 0.93236 0.99549 0.0
N38 N 0.41589 0.92906 0.83045 0.0
H39 H 0.40905 0.98786 0.9046 0.0
H40 H 0.42433 0.86709 0.01846 0.0
C41 C 0.38554 0.87012 0.16741 0.0
O42 O 0.36468 0.87902 0.10306 0.0
N43 N 0.41545 0.97721 0.26171 0.0
C44 C 0.40896 1.01681 0.29058 0.0
C45 C 0.41023 1.01858 0.39196 0.0
C46 C 0.42072 0.95549 0.34536 0.0
N47 N 0.41743 0.97992 0.42624 0.0
C48 C 0.36196 0.99811 0.06052 0.0
C49 C 0.32338 0.97258 0.20688 0.0
C50 C 0.31349 1.00164 0.13593 0.0
C51 C 0.33344 1.01454 0.06285 0.0
C52 C 0.35253 0.95725 0.20254 0.0
N53 N 0.37118 0.96899 0.12779 0.0
H54 H 0.37708 1.01112 1.00772 0.0
H55 H 0.36028 0.93683 0.26085 0.0
H56 H 0.40254 0.04215 0.24161 0.0
H57 H 0.42626 0.92231 0.34724 0.0
O58 O 0.42779 1.00795 0.07916 0.0
O59 O 0.45624 0.95393 0.122 0.0
O60 O 0.40627 0.8966 0.18513 0.0
C61 C 0.45422 0.99216 0.08674 0.0
H62 H 0.42664 0.86259 0.82498 0.0
H63 H 0.40487 0.04572 0.43699 0.0
H64 H 0.30894 0.96206 0.26572 0.0
H65 H 0.32757 1.03855 1.0095 0.0
Co66 Co 0.09621 0.45481 0.40332 0.0
C67 C 0.0988 0.45372 0.6229 0.0
C68 C 0.09041 0.39226 0.56444 0.0
C69 C 0.08908 0.39006 0.66571 0.0
N70 N 0.09741 0.43202 0.5371 0.0
N71 N 0.09439 0.42883 0.70235 0.0
H72 H 0.10043 0.48761 0.62778 0.0
H73 H 0.08488 0.36682 0.51477 0.0
C74 C 0.12386 0.36981 0.3656 0.0
O75 O 0.14462 0.37867 0.43033 0.0
N76 N 0.09414 0.4772 0.27096 0.0
C77 C 0.10014 0.51715 0.24365 0.0
C78 C 0.09953 0.51944 0.14235 0.0
C79 C 0.08978 0.45577 0.18623 0.0
N80 N 0.09319 0.48076 0.10626 0.0
C81 C 0.14746 0.49804 0.47209 0.0
C82 C 0.18614 0.47232 0.32624 0.0
C83 C 0.19597 0.50153 0.39694 0.0
C84 C 0.17597 0.5145 0.46981 0.0
C85 C 0.15701 0.45692 0.33058 0.0
N86 N 0.1383 0.46877 0.40508 0.0
H87 H 0.13231 0.51117 0.52462 0.0
H88 H 0.14932 0.43637 0.27243 0.0
H89 H 0.10565 0.54251 0.29375 0.0
H90 H 0.08558 0.42221 0.18287 0.0
O91 O 0.08164 0.5076 0.45373 0.0
O92 O 0.05323 0.45363 0.41034 0.0
O93 O 0.10323 0.39638 0.34735 0.0
C94 C 0.05522 0.49182 0.4458 0.0
H95 H 0.08378 0.36228 0.70864 0.0
H96 H 0.10395 0.54735 0.09881 0.0
H97 H 0.20062 0.46175 0.26756 0.0
H98 H 0.18181 0.53861 0.52296 0.0
Co99 Co 0.41318 0.6233 0.4024 0.0
C100 C 0.41061 0.62439 0.62198 0.0
C101 C 0.41908 0.68583 0.56349 0.0
C102 C 0.42042 0.68802 0.66476 0.0
N103 N 0.41203 0.64608 0.53617 0.0
N104 N 0.41505 0.64927 0.70142 0.0
H105 H 0.40893 0.59051 0.62687 0.0
H106 H 0.42464 0.71125 0.5138 0.0
C107 C 0.38556 0.70833 0.36489 0.0
O108 O 0.36482 0.69949 0.42972 0.0
N109 N 0.4152 0.60092 0.27002 0.0
C110 C 0.40914 0.56098 0.24273 0.0
C111 C 0.40975 0.55869 0.14143 0.0
C112 C 0.41958 0.62234 0.1853 0.0
N113 N 0.41613 0.59735 0.10534 0.0
C114 C 0.36193 0.58008 0.47135 0.0
C115 C 0.3232 0.60593 0.32582 0.0
C116 C 0.31338 0.57671 0.39655 0.0
C117 C 0.33341 0.56367 0.46923 0.0
C118 C 0.35234 0.62128 0.32999 0.0
N119 N 0.37108 0.60938 0.40435 0.0
H120 H 0.37711 0.5669 0.52372 0.0
H121 H 0.36002 0.64183 0.27183 0.0
H122 H 0.40361 0.53563 0.29284 0.0
H123 H 0.42383 0.65588 0.18193 0.0
O124 O 0.42774 0.5705 0.45274 0.0
O125 O 0.45615 0.62445 0.40921 0.0
O126 O 0.40617 0.68174 0.34647 0.0
C127 C 0.45417 0.58626 0.44469 0.0
H128 H 0.42575 0.71579 0.70768 0.0
H129 H 0.40529 0.53079 0.09789 0.0
H130 H 0.30869 0.61654 0.26726 0.0
H131 H 0.32758 0.53955 0.52238 0.0
Co132 Co 0.91325 0.95512 0.90172 0.0
C133 C 0.91063 0.95403 0.12131 0.0
C134 C 0.91902 0.89256 0.06284 0.0
C135 C 0.92035 0.89037 0.16411 0.0
N136 N 0.91202 0.93233 0.0355 0.0
N137 N 0.91503 0.92914 0.20075 0.0
H138 H 0.909 0.98792 0.12618 0.0
H139 H 0.92455 0.86713 1.01317 0.0
C140 C 0.8856 0.87013 0.86398 0.0
O141 O 0.86482 0.879 0.92866 0.0
N142 N 0.91535 0.97751 0.76936 0.0
C143 C 0.90937 1.01747 0.74207 0.0
C144 C 0.90998 1.01977 0.64077 0.0
C145 C 0.9197 0.95608 0.68462 0.0
N146 N 0.91629 0.98108 0.60466 0.0
C147 C 0.86199 0.99834 0.97048 0.0
C148 C 0.82331 0.97257 0.8247 0.0
C149 C 0.81347 1.00174 0.89547 0.0
C150 C 0.83346 1.01475 0.96827 0.0
C151 C 0.85245 0.95722 0.82896 0.0
N152 N 0.87116 0.96908 0.90344 0.0
H153 H 0.87714 1.01148 0.02299 0.0
H154 H 0.86016 0.93669 0.77078 0.0
H155 H 0.90387 0.04284 0.79217 0.0
H156 H 0.92388 0.92252 0.68125 0.0
O157 O 0.92782 1.00791 0.95217 0.0
O158 O 0.95622 0.95393 0.90881 0.0
O159 O 0.90624 0.89669 0.84575 0.0
C160 C 0.95424 0.99212 0.94432 0.0
H161 H 0.92564 0.8626 0.20703 0.0
H162 H 0.90557 0.04768 0.59723 0.0
H163 H 0.80883 0.96198 0.76605 0.0
H164 H 0.82762 1.03884 0.02146 0.0
Co165 Co 0.59621 0.12336 0.90225 0.0
C166 C 0.59885 0.12445 0.12183 0.0
C167 C 0.59046 0.18592 0.06337 0.0
C168 C 0.58913 0.18811 0.16464 0.0
N169 N 0.59745 0.14615 0.03602 0.0
N170 N 0.59445 0.14934 0.20128 0.0
H171 H 0.60048 0.09057 0.12671 0.0
H172 H 0.58492 0.21136 1.01369 0.0
C173 C 0.62387 0.20835 0.86442 0.0
O174 O 0.64464 0.1995 0.92911 0.0
N175 N 0.5941 0.10097 0.7699 0.0
C176 C 0.60008 0.06101 0.7426 0.0
C177 C 0.59947 0.05871 0.6413 0.0
C178 C 0.58976 0.1224 0.68516 0.0
N179 N 0.59316 0.0974 0.6052 0.0
C180 C 0.64748 0.08014 0.9709 0.0
C181 C 0.68614 0.1059 0.82499 0.0
C182 C 0.69599 0.07671 0.89572 0.0
C183 C 0.676 0.06371 0.96859 0.0
C184 C 0.657 0.12126 0.82935 0.0
N185 N 0.6383 0.1094 0.90389 0.0
H186 H 0.63234 0.06701 0.02346 0.0
H187 H 0.64929 0.1418 0.7712 0.0
H188 H 0.60558 1.03564 0.7927 0.0
H189 H 0.58559 0.15596 0.68179 0.0
O190 O 0.58165 0.07058 0.95274 0.0
O191 O 0.55324 0.12455 0.90942 0.0
O192 O 0.60322 0.18179 0.84624 0.0
C193 C 0.55523 0.08636 0.94493 0.0
H194 H 0.58384 0.21589 0.20756 0.0
H195 H 0.60388 1.0308 0.59776 0.0
H196 H 0.70061 0.11649 0.7663 0.0
H197 H 0.68185 0.03961 0.02175 0.0
Co198 Co 0.9132 0.62339 0.6284 0.0
C199 C 0.91124 0.6244 0.40869 0.0
C200 C 0.919 0.68595 0.4677 0.0
C201 C 0.92073 0.68823 0.36658 0.0
N202 N 0.91209 0.6461 0.4946 0.0
N203 N 0.91594 0.6494 0.32957 0.0
H204 H 0.90899 0.59062 0.4037 0.0
H205 H 0.92444 0.71133 0.51762 0.0
C206 C 0.88552 0.7084 0.66629 0.0
O207 O 0.86469 0.69955 0.60178 0.0
N208 N 0.91528 0.60126 0.76084 0.0
C209 C 0.90868 0.56169 0.78972 0.0
C210 C 0.90996 0.55992 0.8911 0.0
C211 C 0.9206 0.62295 0.84447 0.0
N212 N 0.91726 0.59855 0.92536 0.0
C213 C 0.8619 0.58037 0.55938 0.0
C214 C 0.82325 0.60598 0.70544 0.0
C215 C 0.81339 0.57688 0.63453 0.0
C216 C 0.83338 0.56395 0.56159 0.0
C217 C 0.8524 0.62131 0.70122 0.0
N218 N 0.87109 0.60952 0.62662 0.0
H219 H 0.87704 0.56731 0.50673 0.0
H220 H 0.86013 0.64175 0.75953 0.0
H221 H 0.90221 0.53638 0.74076 0.0
H222 H 0.92624 0.65611 0.84632 0.0
O223 O 0.9277 0.57049 0.5784 0.0
O224 O 0.95616 0.62447 0.62144 0.0
O225 O 0.9062 0.68187 0.68419 0.0
C226 C 0.95414 0.58624 0.5862 0.0
H227 H 0.9268 0.71583 0.32414 0.0
H228 H 0.90454 0.5328 0.93615 0.0
H229 H 0.80878 0.61652 0.76419 0.0
H230 H 0.82753 0.53991 0.50829 0.0
Co231 Co 0.5962 0.4549 0.6278 0.0
C232 C 0.59817 0.4539 0.40809 0.0
C233 C 0.59073 0.39226 0.46706 0.0
C234 C 0.58902 0.38998 0.36595 0.0
N235 N 0.59743 0.43218 0.494 0.0
N236 N 0.59361 0.42886 0.32895 0.0
H237 H 0.60026 0.4877 0.40312 0.0
H238 H 0.58541 0.36681 0.51695 0.0
C239 C 0.62399 0.36998 0.66623 0.0
O240 O 0.64491 0.37888 0.60204 0.0
N241 N 0.59401 0.47703 0.76023 0.0
C242 C 0.60046 0.51664 0.7891 0.0
C243 C 0.59917 0.51841 0.89049 0.0
C244 C 0.58876 0.4553 0.84388 0.0
N245 N 0.59201 0.47973 0.92476 0.0
C246 C 0.6475 0.49792 0.55882 0.0
C247 C 0.68606 0.47266 0.70545 0.0
C248 C 0.69594 0.50169 0.63438 0.0
C249 C 0.676 0.51444 0.56114 0.0
C250 C 0.65694 0.45724 0.70111 0.0
N251 N 0.63829 0.46886 0.62625 0.0
H252 H 0.63239 0.51083 0.50588 0.0
H253 H 0.64919 0.43684 0.75949 0.0
H254 H 0.60685 0.542 0.74013 0.0
H255 H 0.58324 0.42211 0.84576 0.0
O256 O 0.58167 0.50775 0.57769 0.0
O257 O 0.55324 0.45371 0.62056 0.0
O258 O 0.60323 0.39644 0.68368 0.0
C259 C 0.55525 0.49195 0.58533 0.0
H260 H 0.58309 0.36232 0.32349 0.0
H261 H 0.60449 0.54556 0.93553 0.0
H262 H 0.70049 0.46225 0.76441 0.0
H263 H 0.68186 0.5384 0.50766 0.0
C264 C 0.26855 1.02936 0.04909 0.0
C265 C 0.28305 1.01982 0.13805 0.0
H266 H 0.23097 0.05655 0.97869 0.0
C267 C 0.26875 1.02957 0.22744 0.0
H268 H 0.27852 1.02175 0.97868 0.0
C269 C 0.24064 0.04849 0.22744 0.0
C270 C 0.22638 0.05833 0.13805 0.0
H271 H 0.27938 1.02318 0.2974 0.0
H272 H 0.22998 0.05483 0.2974 0.0
C273 C 0.24091 0.04887 0.04909 0.0
C274 C 0.24061 0.52964 0.3053 0.0
C275 C 0.22637 0.5198 0.39474 0.0
H276 H 0.27931 0.55508 0.23522 0.0
C277 C 0.24088 0.52936 0.48366 0.0
H278 H 0.22995 0.52323 0.23538 0.0
C279 C 0.2685 0.54893 0.48357 0.0
C280 C 0.28297 0.55849 0.39455 0.0
H281 H 0.23093 0.5217 0.55408 0.0
H282 H 0.27849 0.55658 0.55392 0.0
C283 C 0.26868 0.54867 0.3052 0.0
C284 C 0.74092 0.04896 0.98248 0.0
C285 C 0.72641 0.0585 0.89354 0.0
H286 H 0.77853 1.0218 0.05279 0.0
C287 C 0.74067 0.04871 0.80412 0.0
H288 H 0.73095 0.05659 0.0529 0.0
C289 C 0.76876 1.02974 0.80406 0.0
C290 C 0.78304 1.01993 0.89342 0.0
H291 H 0.73001 0.0551 0.73419 0.0
H292 H 0.7794 1.02336 0.73409 0.0
C293 C 0.76855 1.02944 0.98242 0.0
C294 C 0.76866 0.54889 0.72598 0.0
C295 C 0.78296 0.55865 0.63661 0.0
H296 H 0.72991 0.52354 0.79589 0.0
C297 C 0.76849 0.54905 0.54763 0.0
H298 H 0.77927 0.55533 0.79595 0.0
C299 C 0.74088 0.52947 0.5476 0.0
C300 C 0.72635 0.51998 0.63655 0.0
H301 H 0.77848 0.55667 0.47723 0.0
H302 H 0.73096 0.52175 0.47719 0.0
C303 C 0.74058 0.52989 0.72595 0.0
C304 C 0.00882 0.99887 0.9749 0.0
C305 C 0.98025 1.01622 0.97906 0.0
H306 H 0.0549 1.0074 1.00615 0.0
C307 C 0.97642 0.05675 0.0197 0.0
H308 H 0.01243 0.96771 0.94435 0.0
C309 C 1.00069 0.07948 0.05552 0.0
C310 C 0.02926 0.06212 0.05144 0.0
H311 H 0.95462 0.07097 0.02425 0.0
H312 H 0.99707 0.11064 0.08607 0.0
C313 C 0.03309 1.02161 1.01071 0.0
C314 C 0.47637 0.0568 1.01116 0.0
C315 C 0.48021 1.01628 0.05187 0.0
H316 H 0.49703 0.11072 0.94489 0.0
C317 C 0.50878 0.99895 0.05602 0.0
H318 H 0.45456 0.07098 1.00655 0.0
C319 C 0.53305 1.02171 0.02029 0.0
C320 C 0.52922 0.06224 0.97965 0.0
H321 H 0.5124 0.96779 0.08656 0.0
H322 H 0.55486 1.00751 0.02488 0.0
C323 C 0.50065 0.07956 0.97544 0.0
C324 C 0.03302 0.55652 0.52083 0.0
C325 C 0.0292 0.51598 0.48022 0.0
H326 H 0.01235 0.6105 0.58671 0.0
C327 C 1.00061 0.49871 0.47568 0.0
H328 H 0.05484 0.57068 0.52567 0.0
C329 C 0.97632 0.52154 0.51103 0.0
C330 C 0.98014 0.56206 0.55169 0.0
H331 H 0.99699 0.46755 0.44514 0.0
H332 H 0.95449 0.50739 0.50617 0.0
C333 C 0.00873 0.57934 0.55619 0.0
C334 C 0.50877 0.5794 0.47456 0.0
C335 C 0.48019 0.5621 0.47907 0.0
H336 H 0.55488 0.57077 0.50515 0.0
C337 C 0.47638 0.52156 0.51967 0.0
H338 H 0.51238 0.61056 0.44402 0.0
C339 C 0.50067 0.49876 0.55509 0.0
C340 C 0.52925 0.51607 0.55067 0.0
H341 H 0.45456 0.50738 0.52447 0.0
H342 H 0.49706 0.4676 0.58563 0.0
C343 C 0.53307 0.5566 0.50997 0.0
C344 C 0.09863 0.16581 0.6528 0.0
C345 C 0.09223 0.1367 0.72807 0.0
H346 H 0.1039 0.17646 0.49819 0.0
C347 C 0.08478 0.09507 0.70177 0.0
H348 H 0.10479 0.19794 0.67037 0.0
C349 C 0.08428 0.08272 0.60285 0.0
C350 C 0.0911 0.11168 0.52776 0.0
H351 H 0.07908 0.07199 0.75737 0.0
H352 H 0.07839 0.0505 0.58513 0.0
C353 C 0.09806 0.15347 0.55389 0.0
C354 C 0.42508 0.99565 0.603 0.0
C355 C 0.41833 0.96664 0.52793 0.0
H356 H 0.43025 1.00642 0.7575 0.0
C357 C 0.4115 0.92481 0.55409 0.0
H358 H 0.43088 1.0279 0.58526 0.0
C359 C 0.41097 0.91248 0.65301 0.0
C360 C 0.41728 0.94163 0.72825 0.0
H361 H 0.40572 0.90179 0.49841 0.0
H362 H 0.4049 0.88032 0.6706 0.0
C363 C 0.42461 0.9833 0.70192 0.0
C364 C 0.10965 0.47781 0.83482 0.0
C365 C 0.0938 0.44192 0.80431 0.0
H366 H 0.12222 0.51795 0.95408 0.0
C367 C 0.07747 0.41919 0.87497 0.0
H368 H 0.12289 0.49563 0.7829 0.0
C369 C 0.07705 0.43208 0.97365 0.0
C370 C 0.09295 0.46798 1.00408 0.0
H371 H 0.06467 0.39175 0.85401 0.0
H372 H 0.064 0.41414 0.02585 0.0
C373 C 0.10922 0.49068 0.93328 0.0
C374 C 0.4001 0.58749 0.93237 0.0
C375 C 0.4164 0.61014 1.00315 0.0
H376 H 0.38644 0.58257 0.78199 0.0
C377 C 0.43236 0.64598 0.97271 0.0
H378 H 0.38706 0.56026 0.95318 0.0
C379 C 0.43197 0.65886 0.87403 0.0
C380 C 0.41561 0.63619 0.80337 0.0
H381 H 0.44544 0.66388 0.0249 0.0
H382 H 0.44482 0.68626 0.85304 0.0
C383 C 0.3997 0.60035 0.83391 0.0
C384 C 0.93197 0.9195 0.37334 0.0
C385 C 0.91564 0.94223 0.30271 0.0
H386 H 0.94546 0.91444 0.52419 0.0
C387 C 0.89981 0.97814 0.33325 0.0
H388 H 0.94476 0.89205 0.35235 0.0
C389 C 0.90025 0.99101 0.43171 0.0
C390 C 0.91652 0.96829 0.50248 0.0
H391 H 0.88658 0.99597 0.28136 0.0
H392 H 0.88727 1.01829 0.45254 0.0
C393 C 0.93241 0.93239 0.47202 0.0
C394 C 0.57707 0.1461 0.47256 0.0
C395 C 0.59294 0.11019 0.50301 0.0
H396 H 0.56472 0.18644 0.3529 0.0
C397 C 0.60921 0.08747 0.43224 0.0
H398 H 0.56402 0.16406 0.52474 0.0
C399 C 0.60966 0.10034 0.33378 0.0
C400 C 0.59383 0.13626 0.30324 0.0
H401 H 0.62219 0.06018 0.45305 0.0
H402 H 0.62289 0.08251 0.28187 0.0
C403 C 0.57751 0.15899 0.37388 0.0
C404 C 0.9245 0.59512 0.20101 0.0
C405 C 0.9173 0.63683 0.22737 0.0
H406 H 0.93061 0.55048 0.08434 0.0
C407 C 0.91105 0.66602 0.15214 0.0
H408 H 0.93009 0.57197 0.25657 0.0
C409 C 0.91152 0.65368 0.05322 0.0
C410 C 0.91823 0.61182 0.02704 0.0
H411 H 0.90507 0.69822 0.16974 0.0
H412 H 0.90579 0.67674 0.99755 0.0
C413 C 0.92491 0.58278 0.10209 0.0
C414 C 0.59859 0.41232 0.15151 0.0
C415 C 0.59219 0.44143 0.22676 0.0
H416 H 0.60389 0.40166 0.9969 0.0
C417 C 0.58476 0.48306 0.20043 0.0
H418 H 0.60473 0.38018 0.16909 0.0
C419 C 0.58429 0.49541 0.10151 0.0
C420 C 0.59112 0.46645 0.02644 0.0
H421 H 0.57906 0.50615 0.25601 0.0
H422 H 0.57842 0.52764 0.08376 0.0
C423 C 0.59804 0.42465 0.05259 0.0
C424 C 0.15084 0.26949 0.24243 0.0
C425 C 0.124 0.24947 0.21829 0.0
H426 H 0.17181 0.32294 0.31029 0.0
C427 C 0.09713 0.2693 0.24299 0.0
H428 H 0.17186 0.25478 0.22458 0.0
C429 C 0.0971 0.30875 0.28945 0.0
C430 C 0.12394 0.32847 0.31498 0.0
H431 H 0.07612 0.25462 0.22489 0.0
H432 H 0.07607 0.32353 0.30686 0.0
C433 C 0.15081 0.30833 0.29176 0.0
C434 C 0.35864 0.80873 0.24193 0.0
C435 C 0.3855 0.82877 0.21801 0.0
H436 H 0.33765 0.75522 0.30948 0.0
C437 C 0.41236 0.80893 0.24278 0.0
H438 H 0.33764 0.82345 0.22401 0.0
C439 C 0.41236 0.76945 0.28909 0.0
C440 C 0.38551 0.7497 0.3144 0.0
H441 H 0.43337 0.82363 0.22485 0.0
H442 H 0.43338 0.75466 0.30657 0.0
C443 C 0.35865 0.76986 0.29111 0.0
C444 C 0.85866 0.80872 0.78978 0.0
C445 C 0.88553 0.82878 0.81341 0.0
H446 H 0.83763 0.75522 0.72236 0.0
C447 C 0.91237 0.80896 0.78837 0.0
H448 H 0.83766 0.82342 0.80793 0.0
C449 C 0.91235 0.76949 0.74201 0.0
C450 C 0.88549 0.74974 0.71691 0.0
H451 H 0.9334 0.82368 0.80612 0.0
H452 H 0.93337 0.75473 0.72431 0.0
C453 C 0.85864 0.76986 0.74054 0.0
C454 C 0.65082 0.26981 0.79042 0.0
C455 C 0.62395 0.24968 0.81374 0.0
H456 H 0.67187 0.32333 0.72314 0.0
C457 C 0.59711 0.26941 0.78825 0.0
H458 H 0.67181 0.25518 0.80893 0.0
C459 C 0.59714 0.30885 0.74175 0.0
C460 C 0.62401 0.32867 0.71697 0.0
H461 H 0.57608 0.25465 0.80573 0.0
H462 H 0.57613 0.32354 0.72368 0.0
C463 C 0.65085 0.30864 0.74106 0.0
loop_
_geom_bond_atom_site_label_1
_geom_bond_atom_site_label_2
_geom_bond_distance
_geom_bond_site_symmetry_2
_ccdc_geom_bond_type
Co0 N4 2.148 1_554 S
Co0 N10 2.128 . S
Co0 N20 2.194 . S
Co0 O25 2.351 . S
Co0 O26 2.155 . S
Co0 O27 2.096 . S
C1 N4 1.301 . S
C1 N5 1.328 . S
C1 H6 0.930 . S
C2 C3 1.333 . S
C2 N4 1.317 . S
C2 H7 0.930 . S
C3 C2 1.333 . S
C3 N5 1.350 . S
C3 H29 0.931 . S
N4 Co0 2.148 1_556 S
N4 C1 1.301 . S
N4 C2 1.317 . S
N5 C1 1.328 . S
N5 C3 1.350 . S
H6 C1 0.930 . S
H7 C2 0.930 . S
C8 O9 1.224 . S
C8 O27 1.247 . S
O9 C8 1.224 . S
N10 Co0 2.128 . S
N10 C11 1.355 . S
N10 C13 1.311 . S
C11 N10 1.355 . S
C11 C12 1.363 . S
C11 H23 0.929 . S
C12 C11 1.363 . S
C12 N14 1.375 . S
C12 H30 0.931 . S
C13 N10 1.311 . S
C13 N14 1.347 . S
C13 H24 0.929 . S
N14 C12 1.375 . S
N14 C13 1.347 . S
C15 C18 1.365 . S
C15 N20 1.328 . S
C15 H21 0.929 . S
C16 C17 1.362 . S
C16 C19 1.378 . S
C16 H31 0.929 . S
C17 C16 1.362 . S
C17 C18 1.366 . S
C18 C15 1.365 . S
C18 C17 1.366 . S
C18 H32 0.930 1_545 S
C19 C16 1.378 . S
C19 N20 1.315 . S
C19 H22 0.930 . S
N20 Co0 2.194 . S
N20 C15 1.328 . S
N20 C19 1.315 . S
H21 C15 0.929 . S
H22 C19 0.930 . S
H23 C11 0.929 . S
H24 C13 0.929 . S
O25 Co0 2.351 . S
O25 C28 1.244 . S
O26 Co0 2.155 . S
O26 C28 1.240 . S
O27 Co0 2.096 . S
O27 C8 1.247 . S
C28 O25 1.244 . S
C28 O26 1.240 . S
H29 C3 0.931 . S
H30 C12 0.931 . S
H31 C16 0.929 . S
H32 C18 0.930 1_565 S
Co33 N37 2.148 1_554 S
Co33 N43 2.128 . S
Co33 N53 2.194 . S
Co33 O58 2.351 . S
Co33 O59 2.155 . S
Co33 O60 2.096 . S
C34 N37 1.301 . S
C34 N38 1.328 . S
C34 H39 0.930 . S
C35 C36 1.333 . S
C35 N37 1.317 . S
C35 H40 0.930 . S
C36 C35 1.333 . S
C36 N38 1.350 . S
C36 H62 0.931 . S
N37 Co33 2.148 1_556 S
N37 C34 1.301 . S
N37 C35 1.317 . S
N38 C34 1.328 . S
N38 C36 1.350 . S
H39 C34 0.930 . S
H40 C35 0.930 . S
C41 O42 1.224 . S
C41 O60 1.247 . S
O42 C41 1.224 . S
N43 Co33 2.128 . S
N43 C44 1.355 . S
N43 C46 1.311 . S
C44 N43 1.355 . S
C44 C45 1.363 . S
C44 H56 0.929 . S
C45 C44 1.363 . S
C45 N47 1.375 . S
C45 H63 0.931 . S
C46 N43 1.311 . S
C46 N47 1.347 . S
C46 H57 0.929 . S
N47 C45 1.375 . S
N47 C46 1.347 . S
C48 C51 1.365 . S
C48 N53 1.328 . S
C48 H54 0.929 . S
C49 C50 1.362 . S
C49 C52 1.378 . S
C49 H64 0.929 . S
C50 C49 1.362 . S
C50 C51 1.366 . S
C51 C48 1.365 . S
C51 C50 1.366 . S
C51 H65 0.930 1_565 S
C52 C49 1.378 . S
C52 N53 1.315 . S
C52 H55 0.930 . S
N53 Co33 2.194 . S
N53 C48 1.328 . S
N53 C52 1.315 . S
H54 C48 0.929 . S
H55 C52 0.930 . S
H56 C44 0.929 . S
H57 C46 0.929 . S
O58 Co33 2.351 . S
O58 C61 1.244 . S
O59 Co33 2.155 . S
O59 C61 1.240 . S
O60 Co33 2.096 . S
O60 C41 1.247 . S
C61 O58 1.244 . S
C61 O59 1.240 . S
H62 C36 0.931 . S
H63 C45 0.931 . S
H64 C49 0.929 . S
H65 C51 0.930 1_545 S
Co66 N70 2.148 . S
Co66 N76 2.128 . S
Co66 N86 2.194 . S
Co66 O91 2.351 . S
Co66 O92 2.155 . S
Co66 O93 2.096 . S
C67 N70 1.301 . S
C67 N71 1.328 . S
C67 H72 0.930 . S
C68 C69 1.333 . S
C68 N70 1.317 . S
C68 H73 0.930 . S
C69 C68 1.333 . S
C69 N71 1.350 . S
C69 H95 0.931 . S
N70 Co66 2.148 . S
N70 C67 1.301 . S
N70 C68 1.317 . S
N71 C67 1.328 . S
N71 C69 1.350 . S
H72 C67 0.930 . S
H73 C68 0.930 . S
C74 O75 1.224 . S
C74 O93 1.247 . S
O75 C74 1.224 . S
N76 Co66 2.128 . S
N76 C77 1.355 . S
N76 C79 1.311 . S
C77 N76 1.355 . S
C77 C78 1.363 . S
C77 H89 0.929 . S
C78 C77 1.363 . S
C78 N80 1.375 . S
C78 H96 0.931 . S
C79 N76 1.311 . S
C79 N80 1.347 . S
C79 H90 0.929 . S
N80 C78 1.375 . S
N80 C79 1.347 . S
C81 C84 1.365 . S
C81 N86 1.328 . S
C81 H87 0.929 . S
C82 C83 1.362 . S
C82 C85 1.378 . S
C82 H97 0.929 . S
C83 C82 1.362 . S
C83 C84 1.366 . S
C84 C81 1.365 . S
C84 C83 1.366 . S
C84 H98 0.930 . S
C85 C82 1.378 . S
C85 N86 1.315 . S
C85 H88 0.930 . S
N86 Co66 2.194 . S
N86 C81 1.328 . S
N86 C85 1.315 . S
H87 C81 0.929 . S
H88 C85 0.930 . S
H89 C77 0.929 . S
H90 C79 0.929 . S
O91 Co66 2.351 . S
O91 C94 1.244 . S
O92 Co66 2.155 . S
O92 C94 1.240 . S
O93 Co66 2.096 . S
O93 C74 1.247 . S
C94 O91 1.244 . S
C94 O92 1.240 . S
H95 C69 0.931 . S
H96 C78 0.931 . S
H97 C82 0.929 . S
H98 C84 0.930 . S
Co99 N103 2.148 . S
Co99 N109 2.128 . S
Co99 N119 2.194 . S
Co99 O124 2.351 . S
Co99 O125 2.155 . S
Co99 O126 2.096 . S
C100 N103 1.301 . S
C100 N104 1.328 . S
C100 H105 0.930 . S
C101 C102 1.333 . S
C101 N103 1.317 . S
C101 H106 0.930 . S
C102 C101 1.333 . S
C102 N104 1.350 . S
C102 H128 0.931 . S
N103 Co99 2.148 . S
N103 C100 1.301 . S
N103 C101 1.317 . S
N104 C100 1.328 . S
N104 C102 1.350 . S
H105 C100 0.930 . S
H106 C101 0.930 . S
C107 O108 1.224 . S
C107 O126 1.247 . S
O108 C107 1.224 . S
N109 Co99 2.128 . S
N109 C110 1.355 . S
N109 C112 1.311 . S
C110 N109 1.355 . S
C110 C111 1.363 . S
C110 H122 0.929 . S
C111 C110 1.363 . S
C111 N113 1.375 . S
C111 H129 0.931 . S
C112 N109 1.311 . S
C112 N113 1.347 . S
C112 H123 0.929 . S
N113 C111 1.375 . S
N113 C112 1.347 . S
C114 C117 1.365 . S
C114 N119 1.328 . S
C114 H120 0.929 . S
C115 C116 1.362 . S
C115 C118 1.378 . S
C115 H130 0.929 . S
C116 C115 1.362 . S
C116 C117 1.366 . S
C117 C114 1.365 . S
C117 C116 1.366 . S
C117 H131 0.930 . S
C118 C115 1.378 . S
C118 N119 1.315 . S
C118 H121 0.930 . S
N119 Co99 2.194 . S
N119 C114 1.328 . S
N119 C118 1.315 . S
H120 C114 0.929 . S
H121 C118 0.930 . S
H122 C110 0.929 . S
H123 C112 0.929 . S
O124 Co99 2.351 . S
O124 C127 1.244 . S
O125 Co99 2.155 . S
O125 C127 1.240 . S
O126 Co99 2.096 . S
O126 C107 1.247 . S
C127 O124 1.244 . S
C127 O125 1.240 . S
H128 C102 0.931 . S
H129 C111 0.931 . S
H130 C115 0.929 . S
H131 C117 0.930 . S
Co132 N136 2.148 1_556 S
Co132 N142 2.128 . S
Co132 N152 2.194 . S
Co132 O157 2.351 . S
Co132 O158 2.155 . S
Co132 O159 2.096 . S
C133 N136 1.301 . S
C133 N137 1.328 . S
C133 H138 0.930 . S
C134 C135 1.333 . S
C134 N136 1.317 . S
C134 H139 0.930 . S
C135 C134 1.333 . S
C135 N137 1.350 . S
C135 H161 0.931 . S
N136 Co132 2.148 1_554 S
N136 C133 1.301 . S
N136 C134 1.317 . S
N137 C133 1.328 . S
N137 C135 1.350 . S
H138 C133 0.930 . S
H139 C134 0.930 . S
C140 O141 1.224 . S
C140 O159 1.247 . S
O141 C140 1.224 . S
N142 Co132 2.128 . S
N142 C143 1.355 . S
N142 C145 1.311 . S
C143 N142 1.355 . S
C143 C144 1.363 . S
C143 H155 0.929 . S
C144 C143 1.363 . S
C144 N146 1.375 . S
C144 H162 0.931 . S
C145 N142 1.311 . S
C145 N146 1.347 . S
C145 H156 0.929 . S
N146 C144 1.375 . S
N146 C145 1.347 . S
C147 C150 1.365 . S
C147 N152 1.328 . S
C147 H153 0.929 . S
C148 C149 1.362 . S
C148 C151 1.378 . S
C148 H163 0.929 . S
C149 C148 1.362 . S
C149 C150 1.366 . S
C150 C147 1.365 . S
C150 C149 1.366 . S
C150 H164 0.930 1_565 S
C151 C148 1.378 . S
C151 N152 1.315 . S
C151 H154 0.930 . S
N152 Co132 2.194 . S
N152 C147 1.328 . S
N152 C151 1.315 . S
H153 C147 0.929 . S
H154 C151 0.930 . S
H155 C143 0.929 . S
H156 C145 0.929 . S
O157 Co132 2.351 . S
O157 C160 1.244 . S
O158 Co132 2.155 . S
O158 C160 1.240 . S
O159 Co132 2.096 . S
O159 C140 1.247 . S
C160 O157 1.244 . S
C160 O158 1.240 . S
H161 C135 0.931 . S
H162 C144 0.931 . S
H163 C148 0.929 . S
H164 C150 0.930 1_545 S
Co165 N169 2.148 1_556 S
Co165 N175 2.128 . S
Co165 N185 2.194 . S
Co165 O190 2.351 . S
Co165 O191 2.155 . S
Co165 O192 2.096 . S
C166 N169 1.301 . S
C166 N170 1.328 . S
C166 H171 0.930 . S
C167 C168 1.333 . S
C167 N169 1.317 . S
C167 H172 0.930 . S
C168 C167 1.333 . S
C168 N170 1.350 . S
C168 H194 0.931 . S
N169 Co165 2.148 1_554 S
N169 C166 1.301 . S
N169 C167 1.317 . S
N170 C166 1.328 . S
N170 C168 1.350 . S
H171 C166 0.930 . S
H172 C167 0.930 . S
C173 O174 1.224 . S
C173 O192 1.247 . S
O174 C173 1.224 . S
N175 Co165 2.128 . S
N175 C176 1.355 . S
N175 C178 1.311 . S
C176 N175 1.355 . S
C176 C177 1.363 . S
C176 H188 0.929 . S
C177 C176 1.363 . S
C177 N179 1.375 . S
C177 H195 0.931 . S
C178 N175 1.311 . S
C178 N179 1.347 . S
C178 H189 0.929 . S
N179 C177 1.375 . S
N179 C178 1.347 . S
C180 C183 1.365 . S
C180 N185 1.328 . S
C180 H186 0.929 . S
C181 C182 1.362 . S
C181 C184 1.378 . S
C181 H196 0.929 . S
C182 C181 1.362 . S
C182 C183 1.366 . S
C183 C180 1.365 . S
C183 C182 1.366 . S
C183 H197 0.930 1_545 S
C184 C181 1.378 . S
C184 N185 1.315 . S
C184 H187 0.930 . S
N185 Co165 2.194 . S
N185 C180 1.328 . S
N185 C184 1.315 . S
H186 C180 0.929 . S
H187 C184 0.930 . S
H188 C176 0.929 . S
H189 C178 0.929 . S
O190 Co165 2.351 . S
O190 C193 1.244 . S
O191 Co165 2.155 . S
O191 C193 1.240 . S
O192 Co165 2.096 . S
O192 C173 1.247 . S
C193 O190 1.244 . S
C193 O191 1.240 . S
H194 C168 0.931 . S
H195 C177 0.931 . S
H196 C181 0.929 . S
H197 C183 0.930 1_565 S
Co198 N202 2.148 . S
Co198 N208 2.128 . S
Co198 N218 2.194 . S
Co198 O223 2.351 . S
Co198 O224 2.155 . S
Co198 O225 2.096 . S
C199 N202 1.301 . S
C199 N203 1.328 . S
C199 H204 0.930 . S
C200 C201 1.333 . S
C200 N202 1.317 . S
C200 H205 0.930 . S
C201 C200 1.333 . S
C201 N203 1.350 . S
C201 H227 0.931 . S
N202 Co198 2.148 . S
N202 C199 1.301 . S
N202 C200 1.317 . S
N203 C199 1.328 . S
N203 C201 1.350 . S
H204 C199 0.930 . S
H205 C200 0.930 . S
C206 O207 1.224 . S
C206 O225 1.247 . S
O207 C206 1.224 . S
N208 Co198 2.128 . S
N208 C209 1.355 . S
N208 C211 1.311 . S
C209 N208 1.355 . S
C209 C210 1.363 . S
C209 H221 0.929 . S
C210 C209 1.363 . S
C210 N212 1.375 . S
C210 H228 0.931 . S
C211 N208 1.311 . S
C211 N212 1.347 . S
C211 H222 0.929 . S
N212 C210 1.375 . S
N212 C211 1.347 . S
C213 C216 1.365 . S
C213 N218 1.328 . S
C213 H219 0.929 . S
C214 C215 1.362 . S
C214 C217 1.378 . S
C214 H229 0.929 . S
C215 C214 1.362 . S
C215 C216 1.366 . S
C216 C213 1.365 . S
C216 C215 1.366 . S
C216 H230 0.930 . S
C217 C214 1.378 . S
C217 N218 1.315 . S
C217 H220 0.930 . S
N218 Co198 2.194 . S
N218 C213 1.328 . S
N218 C217 1.315 . S
H219 C213 0.929 . S
H220 C217 0.930 . S
H221 C209 0.929 . S
H222 C211 0.929 . S
O223 Co198 2.351 . S
O223 C226 1.244 . S
O224 Co198 2.155 . S
O224 C226 1.240 . S
O225 Co198 2.096 . S
O225 C206 1.247 . S
C226 O223 1.244 . S
C226 O224 1.240 . S
H227 C201 0.931 . S
H228 C210 0.931 . S
H229 C214 0.929 . S
H230 C216 0.930 . S
Co231 N235 2.148 . S
Co231 N241 2.128 . S
Co231 N251 2.194 . S
Co231 O256 2.351 . S
Co231 O257 2.155 . S
Co231 O258 2.096 . S
C232 N235 1.301 . S
C232 N236 1.328 . S
C232 H237 0.930 . S
C233 C234 1.333 . S
C233 N235 1.317 . S
C233 H238 0.930 . S
C234 C233 1.333 . S
C234 N236 1.350 . S
C234 H260 0.931 . S
N235 Co231 2.148 . S
N235 C232 1.301 . S
N235 C233 1.317 . S
N236 C232 1.328 . S
N236 C234 1.350 . S
H237 C232 0.930 . S
H238 C233 0.930 . S
C239 O240 1.224 . S
C239 O258 1.247 . S
O240 C239 1.224 . S
N241 Co231 2.128 . S
N241 C242 1.355 . S
N241 C244 1.311 . S
C242 N241 1.355 . S
C242 C243 1.363 . S
C242 H254 0.929 . S
C243 C242 1.363 . S
C243 N245 1.375 . S
C243 H261 0.931 . S
C244 N241 1.311 . S
C244 N245 1.347 . S
C244 H255 0.929 . S
N245 C243 1.375 . S
N245 C244 1.347 . S
C246 C249 1.365 . S
C246 N251 1.328 . S
C246 H252 0.929 . S
C247 C248 1.362 . S
C247 C250 1.378 . S
C247 H262 0.929 . S
C248 C247 1.362 . S
C248 C249 1.366 . S
C249 C246 1.365 . S
C249 C248 1.366 . S
C249 H263 0.930 . S
C250 C247 1.378 . S
C250 N251 1.315 . S
C250 H253 0.930 . S
N251 Co231 2.194 . S
N251 C246 1.328 . S
N251 C250 1.315 . S
H252 C246 0.929 . S
H253 C250 0.930 . S
H254 C242 0.929 . S
H255 C244 0.929 . S
O256 Co231 2.351 . S
O256 C259 1.244 . S
O257 Co231 2.155 . S
O257 C259 1.240 . S
O258 Co231 2.096 . S
O258 C239 1.247 . S
C259 O256 1.244 . S
C259 O257 1.240 . S
H260 C234 0.931 . S
H261 C243 0.931 . S
H262 C247 0.929 . S
H263 C249 0.930 . S
C264 C265 1.387 . S
C264 H268 0.950 1_554 S
C264 C273 1.390 1_565 S
C265 C264 1.387 . S
C265 C267 1.387 . S
H266 C273 0.950 1_556 S
C267 C265 1.387 . S
C267 C269 1.390 1_565 S
C267 H271 0.950 . S
H268 C264 0.950 1_556 S
C269 C267 1.390 1_545 S
C269 C270 1.387 . S
C269 H272 0.950 . S
C270 C269 1.387 . S
C270 C273 1.387 . S
H271 C267 0.950 . S
H272 C269 0.950 . S
C273 C264 1.390 1_545 S
C273 H266 0.950 1_554 S
C273 C270 1.387 . S
C274 C275 1.387 . S
C274 H278 0.950 . S
C274 C283 1.390 . S
C275 C274 1.387 . S
C275 C277 1.387 . S
H276 C283 0.950 . S
C277 C275 1.387 . S
C277 C279 1.390 . S
C277 H281 0.950 . S
H278 C274 0.950 . S
C279 C277 1.390 . S
C279 C280 1.387 . S
C279 H282 0.950 . S
C280 C279 1.387 . S
C280 C283 1.387 . S
H281 C277 0.950 . S
H282 C279 0.950 . S
C283 C274 1.390 . S
C283 H276 0.950 . S
C283 C280 1.387 . S
C284 C285 1.387 . S
C284 H288 0.950 1_556 S
C284 C293 1.390 1_545 S
C285 C284 1.387 . S
C285 C287 1.387 . S
H286 C293 0.950 1_554 S
C287 C285 1.387 . S
C287 C289 1.390 1_545 S
C287 H291 0.950 . S
H288 C284 0.950 1_554 S
C289 C287 1.390 1_565 S
C289 C290 1.387 . S
C289 H292 0.950 . S
C290 C289 1.387 . S
C290 C293 1.387 . S
H291 C287 0.950 . S
H292 C289 0.950 . S
C293 C284 1.390 1_565 S
C293 H286 0.950 1_556 S
C293 C290 1.387 . S
C294 C295 1.387 . S
C294 H298 0.950 . S
C294 C303 1.390 . S
C295 C294 1.387 . S
C295 C297 1.387 . S
H296 C303 0.950 . S
C297 C295 1.387 . S
C297 C299 1.390 . S
C297 H301 0.950 . S
H298 C294 0.950 . S
C299 C297 1.390 . S
C299 C300 1.387 . S
C299 H302 0.950 . S
C300 C299 1.387 . S
C300 C303 1.387 . S
H301 C297 0.950 . S
H302 C299 0.950 . S
C303 C294 1.390 . S
C303 H296 0.950 . S
C303 C300 1.387 . S
C304 C305 1.387 1_554 S
C304 H308 0.950 . S
C304 C313 1.390 1_655 S
C305 C304 1.387 1_556 S
C305 C307 1.387 1_565 S
H306 C313 0.950 . S
C307 C305 1.387 1_545 S
C307 C309 1.390 1_655 S
C307 H311 0.950 . S
H308 C304 0.950 . S
C309 C307 1.390 1_455 S
C309 C310 1.387 1_556 S
C309 H312 0.950 . S
C310 C309 1.387 1_554 S
C310 C313 1.387 1_545 S
H311 C307 0.950 . S
H312 C309 0.950 . S
C313 C304 1.390 1_455 S
C313 H306 0.950 . S
C313 C310 1.387 1_565 S
C314 C315 1.387 1_545 S
C314 H318 0.950 . S
C314 C323 1.390 . S
C315 C314 1.387 1_565 S
C315 C317 1.387 1_554 S
H316 C323 0.950 . S
C317 C315 1.387 1_556 S
C317 C319 1.390 . S
C317 H321 0.950 . S
H318 C314 0.950 . S
C319 C317 1.390 . S
C319 C320 1.387 1_565 S
C319 H322 0.950 . S
C320 C319 1.387 1_545 S
C320 C323 1.387 1_556 S
H321 C317 0.950 . S
H322 C319 0.950 . S
C323 C314 1.390 . S
C323 H316 0.950 . S
C323 C320 1.387 1_554 S
C324 C325 1.387 . S
C324 H328 0.950 . S
C324 C333 1.390 1_455 S
C325 C324 1.387 . S
C325 C327 1.387 . S
H326 C333 0.950 . S
C327 C325 1.387 . S
C327 C329 1.390 1_455 S
C327 H331 0.950 . S
H328 C324 0.950 . S
C329 C327 1.390 1_655 S
C329 C330 1.387 . S
C329 H332 0.950 . S
C330 C329 1.387 . S
C330 C333 1.387 . S
H331 C327 0.950 . S
H332 C329 0.950 . S
C333 C324 1.390 1_655 S
C333 H326 0.950 . S
C333 C330 1.387 . S
C334 C335 1.387 . S
C334 H338 0.950 . S
C334 C343 1.390 . S
C335 C334 1.387 . S
C335 C337 1.387 . S
H336 C343 0.950 . S
C337 C335 1.387 . S
C337 C339 1.390 . S
C337 H341 0.950 . S
H338 C334 0.950 . S
C339 C337 1.390 . S
C339 C340 1.387 . S
C339 H342 0.950 . S
C340 C339 1.387 . S
C340 C343 1.387 . S
H341 C337 0.950 . S
H342 C339 0.950 . S
C343 C334 1.390 . S
C343 H336 0.950 . S
C343 C340 1.387 . S
C344 C345 1.387 . S
C344 H348 0.950 . S
C344 C353 1.390 . S
C345 C344 1.387 . S
C345 C347 1.387 . S
H346 C353 0.950 . S
C347 C345 1.387 . S
C347 C349 1.390 . S
C347 H351 0.950 . S
H348 C344 0.950 . S
C349 C347 1.390 . S
C349 C350 1.387 . S
C349 H352 0.950 . S
C350 C349 1.387 . S
C350 C353 1.387 . S
H351 C347 0.950 . S
H352 C349 0.950 . S
C353 C344 1.390 . S
C353 H346 0.950 . S
C353 C350 1.387 . S
C354 C355 1.387 . S
C354 H358 0.950 . S
C354 C363 1.390 . S
C355 C354 1.387 . S
C355 C357 1.387 . S
H356 C363 0.950 . S
C357 C355 1.387 . S
C357 C359 1.390 . S
C357 H361 0.950 . S
H358 C354 0.950 . S
C359 C357 1.390 . S
C359 C360 1.387 . S
C359 H362 0.950 . S
C360 C359 1.387 . S
C360 C363 1.387 . S
H361 C357 0.950 . S
H362 C359 0.950 . S
C363 C354 1.390 . S
C363 H356 0.950 . S
C363 C360 1.387 . S
C364 C365 1.387 . S
C364 H368 0.950 . S
C364 C373 1.390 . S
C365 C364 1.387 . S
C365 C367 1.387 . S
H366 C373 0.950 . S
C367 C365 1.387 . S
C367 C369 1.390 . S
C367 H371 0.950 . S
H368 C364 0.950 . S
C369 C367 1.390 . S
C369 C370 1.387 . S
C369 H372 0.950 . S
C370 C369 1.387 . S
C370 C373 1.387 . S
H371 C367 0.950 . S
H372 C369 0.950 . S
C373 C364 1.390 . S
C373 H366 0.950 . S
C373 C370 1.387 . S
C374 C375 1.387 . S
C374 H378 0.950 . S
C374 C383 1.390 . S
C375 C374 1.387 . S
C375 C377 1.387 . S
H376 C383 0.950 . S
C377 C375 1.387 . S
C377 C379 1.390 . S
C377 H381 0.950 . S
H378 C374 0.950 . S
C379 C377 1.390 . S
C379 C380 1.387 . S
C379 H382 0.950 . S
C380 C379 1.387 . S
C380 C383 1.387 . S
H381 C377 0.950 . S
H382 C379 0.950 . S
C383 C374 1.390 . S
C383 H376 0.950 . S
C383 C380 1.387 . S
C384 C385 1.387 . S
C384 H388 0.950 . S
C384 C393 1.390 . S
C385 C384 1.387 . S
C385 C387 1.387 . S
H386 C393 0.950 . S
C387 C385 1.387 . S
C387 C389 1.390 . S
C387 H391 0.950 . S
H388 C384 0.950 . S
C389 C387 1.390 . S
C389 C390 1.387 . S
C389 H392 0.950 . S
C390 C389 1.387 . S
C390 C393 1.387 . S
H391 C387 0.950 . S
H392 C389 0.950 . S
C393 C384 1.390 . S
C393 H386 0.950 . S
C393 C390 1.387 . S
C394 C395 1.387 . S
C394 H398 0.950 . S
C394 C403 1.390 . S
C395 C394 1.387 . S
C395 C397 1.387 . S
H396 C403 0.950 . S
C397 C395 1.387 . S
C397 C399 1.390 . S
C397 H401 0.950 . S
H398 C394 0.950 . S
C399 C397 1.390 . S
C399 C400 1.387 . S
C399 H402 0.950 . S
C400 C399 1.387 . S
C400 C403 1.387 . S
H401 C397 0.950 . S
H402 C399 0.950 . S
C403 C394 1.390 . S
C403 H396 0.950 . S
C403 C400 1.387 . S
C404 C405 1.387 . S
C404 H408 0.950 . S
C404 C413 1.390 . S
C405 C404 1.387 . S
C405 C407 1.387 . S
H406 C413 0.950 . S
C407 C405 1.387 . S
C407 C409 1.390 . S
C407 H411 0.950 . S
H408 C404 0.950 . S
C409 C407 1.390 . S
C409 C410 1.387 . S
C409 H412 0.950 . S
C410 C409 1.387 . S
C410 C413 1.387 . S
H411 C407 0.950 . S
H412 C409 0.950 . S
C413 C404 1.390 . S
C413 H406 0.950 . S
C413 C410 1.387 . S
C414 C415 1.387 . S
C414 H418 0.950 . S
C414 C423 1.390 . S
C415 C414 1.387 . S
C415 C417 1.387 . S
H416 C423 0.950 . S
C417 C415 1.387 . S
C417 C419 1.390 . S
C417 H421 0.950 . S
H418 C414 0.950 . S
C419 C417 1.390 . S
C419 C420 1.387 . S
C419 H422 0.950 . S
C420 C419 1.387 . S
C420 C423 1.387 . S
H421 C417 0.950 . S
H422 C419 0.950 . S
C423 C414 1.390 . S
C423 H416 0.950 . S
C423 C420 1.387 . S
C424 C425 1.387 . S
C424 H428 0.950 . S
C424 C433 1.390 . S
C425 C424 1.387 . S
C425 C427 1.387 . S
H426 C433 0.950 . S
C427 C425 1.387 . S
C427 C429 1.390 . S
C427 H431 0.950 . S
H428 C424 0.950 . S
C429 C427 1.390 . S
C429 C430 1.387 . S
C429 H432 0.950 . S
C430 C429 1.387 . S
C430 C433 1.387 . S
H431 C427 0.950 . S
H432 C429 0.950 . S
C433 C424 1.390 . S
C433 H426 0.950 . S
C433 C430 1.387 . S
C434 C435 1.387 . S
C434 H438 0.950 . S
C434 C443 1.390 . S
C435 C434 1.387 . S
C435 C437 1.387 . S
H436 C443 0.950 . S
C437 C435 1.387 . S
C437 C439 1.390 . S
C437 H441 0.950 . S
H438 C434 0.950 . S
C439 C437 1.390 . S
C439 C440 1.387 . S
C439 H442 0.950 . S
C440 C439 1.387 . S
C440 C443 1.387 . S
H441 C437 0.950 . S
H442 C439 0.950 . S
C443 C434 1.390 . S
C443 H436 0.950 . S
C443 C440 1.387 . S
C444 C445 1.387 . S
C444 H448 0.950 . S
C444 C453 1.390 . S
C445 C444 1.387 . S
C445 C447 1.387 . S
H446 C453 0.950 . S
C447 C445 1.387 . S
C447 C449 1.390 . S
C447 H451 0.950 . S
H448 C444 0.950 . S
C449 C447 1.390 . S
C449 C450 1.387 . S
C449 H452 0.950 . S
C450 C449 1.387 . S
C450 C453 1.387 . S
H451 C447 0.950 . S
H452 C449 0.950 . S
C453 C444 1.390 . S
C453 H446 0.950 . S
C453 C450 1.387 . S
C454 C455 1.387 . S
C454 H458 0.950 . S
C454 C463 1.390 . S
C455 C454 1.387 . S
C455 C457 1.387 . S
H456 C463 0.950 . S
C457 C455 1.387 . S
C457 C459 1.390 . S
C457 H461 0.950 . S
H458 C454 0.950 . S
C459 C457 1.390 . S
C459 C460 1.387 . S
C459 H462 0.950 . S
C460 C459 1.387 . S
C460 C463 1.387 . S
H461 C457 0.950 . S
H462 C459 0.950 . S
C463 C454 1.390 . S
C463 H456 0.950 . S
C463 C460 1.387 . S
C265 C50 1.515 . S
C270 C17 1.515 . S
C275 C83 1.514 . S
C280 C116 1.514 . S
C285 C182 1.514 . S
C290 C149 1.514 . S
C295 C215 1.515 . S
C300 C248 1.515 . S
C305 C160 1.541 . S
C310 C28 1.541 . S
C315 C61 1.541 . S
C320 C193 1.541 . S
C325 C94 1.541 . S
C330 C226 1.541 . S
C335 C127 1.541 . S
C340 C259 1.541 . S
C345 N5 1.403 . S
C350 N14 1.398 . S
C355 N47 1.399 . S
C360 N38 1.404 . S
C365 N71 1.403 . S
C370 N80 1.398 1_556 S
C375 N113 1.398 1_556 S
C380 N104 1.403 . S
C385 N137 1.403 . S
C390 N146 1.398 . S
C395 N179 1.398 . S
C400 N170 1.403 . S
C405 N203 1.403 . S
C410 N212 1.398 1_554 S
C415 N236 1.404 . S
C420 N245 1.399 1_554 S
C425 C8 1.540 . S
C430 C74 1.540 . S
C435 C41 1.540 . S
C440 C107 1.540 . S
C445 C140 1.541 . S
C450 C206 1.541 . S
C455 C173 1.541 . S
C460 C239 1.541 . S
