# Generated by pormake.
# Topology uml, (4)-cn, num edge types: 1
# Building blocks:
#     Node 0, Type 0, BuildingBlock: GALJAG_clean_sbu_0, # of connection points: 4
#     Node 1, Type 0, BuildingBlock: GALJAG_clean_sbu_0, # of connection points: 4
#     Node 2, Type 0, BuildingBlock: GALJAG_clean_sbu_0, # of connection points: 4
#     Node 3, Type 0, BuildingBlock: GALJAG_clean_sbu_0, # of connection points: 4
#     Node 4, Type 0, BuildingBlock: GALJAG_clean_sbu_0, # of connection points: 4
#     Node 5, Type 0, BuildingBlock: GALJAG_clean_sbu_0, # of connection points: 4
#     Node 6, Type 0, BuildingBlock: GALJAG_clean_sbu_0, # of connection points: 4
#     Node 7, Type 0, BuildingBlock: GALJAG_clean_sbu_0, # of connection points: 4
#     Node 8, Type 0, BuildingBlock: GALJAG_clean_sbu_0, # of connection points: 4
#     Node 9, Type 0, BuildingBlock: GALJAG_clean_sbu_0, # of connection points: 4
#     Node 10, Type 0, BuildingBlock: GALJAG_clean_sbu_0, # of connection points: 4
#     Node 11, Type 0, BuildingBlock: GALJAG_clean_sbu_0, # of connection points: 4
#     Node 12, Type 0, BuildingBlock: GALJAG_clean_sbu_0, # of connection points: 4
#     Node 13, Type 0, BuildingBlock: GALJAG_clean_sbu_0, # of connection points: 4
#     Node 14, Type 0, BuildingBlock: GALJAG_clean_sbu_0, # of connection points: 4
#     Node 15, Type 0, BuildingBlock: GALJAG_clean_sbu_0, # of connection points: 4
#     Node 16, Type 0, BuildingBlock: GALJAG_clean_sbu_0, # of connection points: 4
#     Node 17, Type 0, BuildingBlock: GALJAG_clean_sbu_0, # of connection points: 4
#     Node 18, Type 0, BuildingBlock: GALJAG_clean_sbu_0, # of connection points: 4
#     Node 19, Type 0, BuildingBlock: GALJAG_clean_sbu_0, # of connection points: 4
#     Node 20, Type 0, BuildingBlock: GALJAG_clean_sbu_0, # of connection points: 4
#     Node 21, Type 0, BuildingBlock: GALJAG_clean_sbu_0, # of connection points: 4
#     Node 22, Type 0, BuildingBlock: GALJAG_clean_sbu_0, # of connection points: 4
#     Node 23, Type 0, BuildingBlock: GALJAG_clean_sbu_0, # of connection points: 4
#     Node 24, Type 0, BuildingBlock: GALJAG_clean_sbu_0, # of connection points: 4
#     Node 25, Type 0, BuildingBlock: GALJAG_clean_sbu_0, # of connection points: 4
#     Node 26, Type 0, BuildingBlock: GALJAG_clean_sbu_0, # of connection points: 4
#     Node 27, Type 0, BuildingBlock: GALJAG_clean_sbu_0, # of connection points: 4
#     Node 28, Type 0, BuildingBlock: GALJAG_clean_sbu_0, # of connection points: 4
#     Node 29, Type 0, BuildingBlock: GALJAG_clean_sbu_0, # of connection points: 4
#     Node 30, Type 0, BuildingBlock: GALJAG_clean_sbu_0, # of connection points: 4
#     Node 31, Type 0, BuildingBlock: GALJAG_clean_sbu_0, # of connection points: 4
#     Node 32, Type 0, BuildingBlock: GALJAG_clean_sbu_0, # of connection points: 4
#     Node 33, Type 0, BuildingBlock: GALJAG_clean_sbu_0, # of connection points: 4
#     Node 34, Type 0, BuildingBlock: GALJAG_clean_sbu_0, # of connection points: 4
#     Node 35, Type 0, BuildingBlock: GALJAG_clean_sbu_0, # of connection points: 4
#     Edge 36, Type (0, 0), BuildingBlock: ZUJKAS_clean_linker_0, # of connection points: 2
#     Edge 37, Type (0, 0), BuildingBlock: ZUJKAS_clean_linker_0, # of connection points: 2
#     Edge 38, Type (0, 0), BuildingBlock: ZUJKAS_clean_linker_0, # of connection points: 2
#     Edge 39, Type (0, 0), BuildingBlock: ZUJKAS_clean_linker_0, # of connection points: 2
#     Edge 40, Type (0, 0), BuildingBlock: ZUJKAS_clean_linker_0, # of connection points: 2
#     Edge 41, Type (0, 0), BuildingBlock: ZUJKAS_clean_linker_0, # of connection points: 2
#     Edge 42, Type (0, 0), BuildingBlock: ZUJKAS_clean_linker_0, # of connection points: 2
#     Edge 43, Type (0, 0), BuildingBlock: ZUJKAS_clean_linker_0, # of connection points: 2
#     Edge 44, Type (0, 0), BuildingBlock: ZUJKAS_clean_linker_0, # of connection points: 2
#     Edge 45, Type (0, 0), BuildingBlock: ZUJKAS_clean_linker_0, # of connection points: 2
#     Edge 46, Type (0, 0), BuildingBlock: ZUJKAS_clean_linker_0, # of connection points: 2
#     Edge 47, Type (0, 0), BuildingBlock: ZUJKAS_clean_linker_0, # of connection points: 2
#     Edge 48, Type (0, 0), BuildingBlock: ZUJKAS_clean_linker_0, # of connection points: 2
#     Edge 49, Type (0, 0), BuildingBlock: ZUJKAS_clean_linker_0, # of connection points: 2
#     Edge 50, Type (0, 0), BuildingBlock: ZUJKAS_clean_linker_0, # of connection points: 2
#     Edge 51, Type (0, 0), BuildingBlock: ZUJKAS_clean_linker_0, # of connection points: 2
#     Edge 52, Type (0, 0), BuildingBlock: ZUJKAS_clean_linker_0, # of connection points: 2
#     Edge 53, Type (0, 0), BuildingBlock: ZUJKAS_clean_linker_0, # of connection points: 2
#     Edge 54, Type (0, 0), BuildingBlock: ZUJKAS_clean_linker_0, # of connection points: 2
#     Edge 55, Type (0, 0), BuildingBlock: ZUJKAS_clean_linker_0, # of connection points: 2
#     Edge 56, Type (0, 0), BuildingBlock: ZUJKAS_clean_linker_0, # of connection points: 2
#     Edge 57, Type (0, 0), BuildingBlock: ZUJKAS_clean_linker_0, # of connection points: 2
#     Edge 58, Type (0, 0), BuildingBlock: ZUJKAS_clean_linker_0, # of connection points: 2
#     Edge 59, Type (0, 0), BuildingBlock: ZUJKAS_clean_linker_0, # of connection points: 2
#     Edge 60, Type (0, 0), BuildingBlock: ZUJKAS_clean_linker_0, # of connection points: 2
#     Edge 61, Type (0, 0), BuildingBlock: ZUJKAS_clean_linker_0, # of connection points: 2
#     Edge 62, Type (0, 0), BuildingBlock: ZUJKAS_clean_linker_0, # of connection points: 2
#     Edge 63, Type (0, 0), BuildingBlock: ZUJKAS_clean_linker_0, # of connection points: 2
#     Edge 64, Type (0, 0), BuildingBlock: ZUJKAS_clean_linker_0, # of connection points: 2
#     Edge 65, Type (0, 0), BuildingBlock: ZUJKAS_clean_linker_0, # of connection points: 2
#     Edge 66, Type (0, 0), BuildingBlock: ZUJKAS_clean_linker_0, # of connection points: 2
#     Edge 67, Type (0, 0), BuildingBlock: ZUJKAS_clean_linker_0, # of connection points: 2
#     Edge 68, Type (0, 0), BuildingBlock: ZUJKAS_clean_linker_0, # of connection points: 2
#     Edge 69, Type (0, 0), BuildingBlock: ZUJKAS_clean_linker_0, # of connection points: 2
#     Edge 70, Type (0, 0), BuildingBlock: ZUJKAS_clean_linker_0, # of connection points: 2
#     Edge 71, Type (0, 0), BuildingBlock: ZUJKAS_clean_linker_0, # of connection points: 2
#     Edge 72, Type (0, 0), BuildingBlock: ZUJKAS_clean_linker_0, # of connection points: 2
#     Edge 73, Type (0, 0), BuildingBlock: ZUJKAS_clean_linker_0, # of connection points: 2
#     Edge 74, Type (0, 0), BuildingBlock: ZUJKAS_clean_linker_0, # of connection points: 2
#     Edge 75, Type (0, 0), BuildingBlock: ZUJKAS_clean_linker_0, # of connection points: 2
#     Edge 76, Type (0, 0), BuildingBlock: ZUJKAS_clean_linker_0, # of connection points: 2
#     Edge 77, Type (0, 0), BuildingBlock: ZUJKAS_clean_linker_0, # of connection points: 2
#     Edge 78, Type (0, 0), BuildingBlock: ZUJKAS_clean_linker_0, # of connection points: 2
#     Edge 79, Type (0, 0), BuildingBlock: ZUJKAS_clean_linker_0, # of connection points: 2
#     Edge 80, Type (0, 0), BuildingBlock: ZUJKAS_clean_linker_0, # of connection points: 2
#     Edge 81, Type (0, 0), BuildingBlock: ZUJKAS_clean_linker_0, # of connection points: 2
#     Edge 82, Type (0, 0), BuildingBlock: ZUJKAS_clean_linker_0, # of connection points: 2
#     Edge 83, Type (0, 0), BuildingBlock: ZUJKAS_clean_linker_0, # of connection points: 2
#     Edge 84, Type (0, 0), BuildingBlock: ZUJKAS_clean_linker_0, # of connection points: 2
#     Edge 85, Type (0, 0), BuildingBlock: ZUJKAS_clean_linker_0, # of connection points: 2
#     Edge 86, Type (0, 0), BuildingBlock: ZUJKAS_clean_linker_0, # of connection points: 2
#     Edge 87, Type (0, 0), BuildingBlock: ZUJKAS_clean_linker_0, # of connection points: 2
#     Edge 88, Type (0, 0), BuildingBlock: ZUJKAS_clean_linker_0, # of connection points: 2
#     Edge 89, Type (0, 0), BuildingBlock: ZUJKAS_clean_linker_0, # of connection points: 2
#     Edge 90, Type (0, 0), BuildingBlock: ZUJKAS_clean_linker_0, # of connection points: 2
#     Edge 91, Type (0, 0), BuildingBlock: ZUJKAS_clean_linker_0, # of connection points: 2
#     Edge 92, Type (0, 0), BuildingBlock: ZUJKAS_clean_linker_0, # of connection points: 2
#     Edge 93, Type (0, 0), BuildingBlock: ZUJKAS_clean_linker_0, # of connection points: 2
#     Edge 94, Type (0, 0), BuildingBlock: ZUJKAS_clean_linker_0, # of connection points: 2
#     Edge 95, Type (0, 0), BuildingBlock: ZUJKAS_clean_linker_0, # of connection points: 2
#     Edge 96, Type (0, 0), BuildingBlock: ZUJKAS_clean_linker_0, # of connection points: 2
#     Edge 97, Type (0, 0), BuildingBlock: ZUJKAS_clean_linker_0, # of connection points: 2
#     Edge 98, Type (0, 0), BuildingBlock: ZUJKAS_clean_linker_0, # of connection points: 2
#     Edge 99, Type (0, 0), BuildingBlock: ZUJKAS_clean_linker_0, # of connection points: 2
#     Edge 100, Type (0, 0), BuildingBlock: ZUJKAS_clean_linker_0, # of connection points: 2
#     Edge 101, Type (0, 0), BuildingBlock: ZUJKAS_clean_linker_0, # of connection points: 2
#     Edge 102, Type (0, 0), BuildingBlock: ZUJKAS_clean_linker_0, # of connection points: 2
#     Edge 103, Type (0, 0), BuildingBlock: ZUJKAS_clean_linker_0, # of connection points: 2
#     Edge 104, Type (0, 0), BuildingBlock: ZUJKAS_clean_linker_0, # of connection points: 2
#     Edge 105, Type (0, 0), BuildingBlock: ZUJKAS_clean_linker_0, # of connection points: 2
#     Edge 106, Type (0, 0), BuildingBlock: ZUJKAS_clean_linker_0, # of connection points: 2
#     Edge 107, Type (0, 0), BuildingBlock: ZUJKAS_clean_linker_0, # of connection points: 2
# Relax obj value: 0.085
# Max RMSD: 0.314
# Mean RMSD: 0.220
data_MOF--net-uml--node1-GALJAG_clean_sbu_0--edge1-ZUJKAS_clean_linker_0
_symmetry_space_group_name_H-M    P1
_symmetry_Int_Tables_number       1
_symmetry_cell_setting            triclinic
loop_
_symmetry_equiv_pos_as_xyz
'x, y, z'
_cell_length_a     122.06506
_cell_length_b     121.83939
_cell_length_c     36.951362
_cell_angle_alpha  90.030104
_cell_angle_beta   90.069123
_cell_angle_gamma 116.31386
loop_
_atom_site_label
_atom_site_type_symbol
_atom_site_fract_x
_atom_site_fract_y
_atom_site_fract_z
_atom_type_partial_charge
In0 In 0.34353 0.08912 0.17528 0.0
O1 O 0.33155 0.07631 0.21977 0.0
O2 O 0.34889 0.09042 0.23459 0.0
C3 C 0.33029 0.07529 0.11911 0.0
C4 C 0.34003 0.10937 0.17937 0.0
C5 C 0.36551 0.09195 0.15172 0.0
O6 O 0.336 0.07163 0.14057 0.0
O7 O 0.33081 0.08555 0.12704 0.0
O8 O 0.36127 0.09938 0.14345 0.0
O9 O 0.35887 0.08347 0.17283 0.0
C10 C 0.33912 0.08158 0.24481 0.0
O11 O 0.35055 0.10988 0.17582 0.0
O12 O 0.33139 0.09869 0.18123 0.0
In13 In 0.89797 0.25495 0.16327 0.0
O14 O 0.87832 0.23979 0.16565 0.0
O15 O 0.89288 0.23468 0.16181 0.0
C16 C 0.89654 0.27634 0.15852 0.0
C17 C 0.9063 0.25611 0.23149 0.0
C18 C 0.90711 0.25603 0.09624 0.0
O19 O 0.88711 0.26615 0.15675 0.0
O20 O 0.9064 0.27559 0.16386 0.0
O21 O 0.91353 0.25715 0.12424 0.0
O22 O 0.89627 0.2542 0.10248 0.0
C23 C 0.8815 0.23122 0.16398 0.0
O24 O 0.91297 0.2571 0.20425 0.0
O25 O 0.89566 0.2547 0.22404 0.0
In26 In 0.74161 0.62759 0.15265 0.0
O27 O 0.75944 0.6254 0.15402 0.0
O28 O 0.76042 0.64317 0.16048 0.0
C29 C 0.72691 0.60465 0.12934 0.0
C30 C 0.73645 0.63064 0.22167 0.0
C31 C 0.73618 0.63891 0.09753 0.0
O32 O 0.73678 0.61142 0.11348 0.0
O33 O 0.72511 0.60908 0.15823 0.0
O34 O 0.72858 0.63347 0.12229 0.0
O35 O 0.74652 0.63918 0.10189 0.0
C36 C 0.76614 0.63674 0.15873 0.0
O37 O 0.73616 0.63753 0.19644 0.0
O38 O 0.73923 0.62226 0.21189 0.0
In39 In 0.09487 0.34477 0.32721 0.0
O40 O 0.11555 0.35279 0.32066 0.0
O41 O 0.10533 0.33339 0.32295 0.0
C42 C 0.09349 0.36576 0.3414 0.0
C43 C 0.08553 0.33749 0.26042 0.0
C44 C 0.08606 0.3344 0.39194 0.0
O45 O 0.10359 0.36523 0.34016 0.0
O46 O 0.08425 0.35584 0.33427 0.0
O47 O 0.07923 0.3322 0.36447 0.0
O48 O 0.09716 0.34144 0.38622 0.0
C49 C 0.11569 0.34248 0.3204 0.0
O50 O 0.08256 0.33022 0.28699 0.0
O51 O 0.093 0.34837 0.26778 0.0
In52 In 0.62346 0.74396 0.34935 0.0
O53 O 0.63644 0.74097 0.3102 0.0
O54 O 0.62296 0.74584 0.28874 0.0
C55 C 0.62925 0.73886 0.41522 0.0
C56 C 0.63114 0.76832 0.35511 0.0
C57 C 0.60176 0.72398 0.34839 0.0
O58 O 0.63586 0.73976 0.38787 0.0
O59 O 0.62 0.74067 0.40905 0.0
O60 O 0.60262 0.73441 0.35706 0.0
O61 O 0.61166 0.72393 0.33885 0.0
C62 C 0.63171 0.74326 0.28242 0.0
O63 O 0.62059 0.76132 0.34314 0.0
O64 O 0.63749 0.763 0.36447 0.0
In65 In 0.25225 0.88991 0.33218 0.0
O66 O 0.2536 0.90438 0.29055 0.0
O67 O 0.25319 0.88767 0.27161 0.0
C68 C 0.25231 0.89903 0.39856 0.0
C69 C 0.22864 0.87319 0.33098 0.0
C70 C 0.27418 0.88986 0.33884 0.0
O71 O 0.25332 0.90528 0.37025 0.0
O72 O 0.25127 0.8884 0.39299 0.0
O73 O 0.26434 0.88001 0.33962 0.0
O74 O 0.27281 0.89943 0.33381 0.0
C75 C 0.25368 0.89796 0.26367 0.0
O76 O 0.23724 0.87003 0.33068 0.0
O77 O 0.23205 0.88459 0.33166 0.0
In78 In 0.65532 0.91161 0.82052 0.0
O79 O 0.67021 0.92532 0.78398 0.0
O80 O 0.6528 0.91424 0.7608 0.0
C81 C 0.66589 0.9202 0.88545 0.0
C82 C 0.65779 0.89106 0.80881 0.0
C83 C 0.63345 0.911 0.83532 0.0
O84 O 0.66495 0.92719 0.86173 0.0
O85 O 0.66189 0.9092 0.87588 0.0
O86 O 0.63539 0.90171 0.83901 0.0
O87 O 0.64238 0.92035 0.82311 0.0
C88 C 0.66358 0.92239 0.75596 0.0
O89 O 0.64742 0.89101 0.81062 0.0
O90 O 0.66679 0.90147 0.81216 0.0
In91 In 0.10718 0.74663 0.82787 0.0
O92 O 0.12714 0.76114 0.83277 0.0
O93 O 0.11382 0.76664 0.8138 0.0
C94 C 0.1077 0.72496 0.83794 0.0
C95 C 0.09817 0.74404 0.76022 0.0
C96 C 0.09787 0.74821 0.89279 0.0
O97 O 0.11743 0.73476 0.83383 0.0
O98 O 0.09798 0.72619 0.83615 0.0
O99 O 0.0912 0.7446 0.86486 0.0
O100 O 0.10901 0.75114 0.8875 0.0
C101 C 0.12484 0.76977 0.82203 0.0
O102 O 0.09305 0.74639 0.78691 0.0
O103 O 0.10765 0.74281 0.7679 0.0
In104 In 0.25504 0.36842 0.85787 0.0
O105 O 0.23723 0.37052 0.8545 0.0
O106 O 0.23615 0.35261 0.85883 0.0
C107 C 0.2747 0.39027 0.86436 0.0
C108 C 0.25799 0.363 0.78937 0.0
C109 C 0.25851 0.36096 0.92333 0.0
O110 O 0.26401 0.38916 0.87012 0.0
O111 O 0.27517 0.38061 0.85421 0.0
O112 O 0.261 0.35686 0.89456 0.0
O113 O 0.25399 0.36837 0.91861 0.0
C114 C 0.23047 0.35907 0.85609 0.0
O115 O 0.25892 0.35687 0.81589 0.0
O116 O 0.25558 0.37176 0.79766 0.0
In117 In 0.90314 0.65257 0.67944 0.0
O118 O 0.8825 0.64553 0.68098 0.0
O119 O 0.89351 0.66477 0.67562 0.0
C120 C 0.90519 0.63152 0.67399 0.0
C121 C 0.91065 0.66054 0.7472 0.0
C122 C 0.91238 0.66157 0.61384 0.0
O123 O 0.89503 0.63184 0.67146 0.0
O124 O 0.91414 0.6417 0.68068 0.0
O125 O 0.91832 0.66611 0.64257 0.0
O126 O 0.90196 0.65279 0.61863 0.0
C127 C 0.88289 0.65602 0.67761 0.0
O128 O 0.91693 0.66592 0.71977 0.0
O129 O 0.90082 0.6512 0.74024 0.0
In130 In 0.3749 0.25644 0.64768 0.0
O131 O 0.37811 0.23922 0.65186 0.0
O132 O 0.35997 0.23714 0.64452 0.0
C133 C 0.3962 0.27679 0.64385 0.0
C134 C 0.36844 0.25893 0.71546 0.0
C135 C 0.3678 0.25909 0.58081 0.0
O136 O 0.3957 0.26626 0.63911 0.0
O137 O 0.38614 0.27682 0.65158 0.0
O138 O 0.36196 0.2596 0.60858 0.0
O139 O 0.37695 0.25714 0.5871 0.0
C140 C 0.36684 0.23198 0.64855 0.0
O141 O 0.36282 0.2602 0.68814 0.0
O142 O 0.37726 0.25651 0.70828 0.0
In143 In 0.74621 0.10775 0.68059 0.0
O144 O 0.74575 0.09349 0.72165 0.0
O145 O 0.74597 0.11007 0.74125 0.0
C146 C 0.74585 0.09869 0.61387 0.0
C147 C 0.7697 0.12475 0.6816 0.0
C148 C 0.72408 0.10757 0.67678 0.0
O149 O 0.74417 0.09214 0.64188 0.0
O150 O 0.74767 0.10955 0.6199 0.0
O151 O 0.73384 0.11735 0.67251 0.0
O152 O 0.72563 0.0982 0.68365 0.0
C153 C 0.74586 0.0999 0.7488 0.0
O154 O 0.76097 0.12772 0.68219 0.0
O155 O 0.76647 0.11337 0.68061 0.0
In156 In 0.01869 0.43106 0.50855 0.0
O157 O 0.00526 0.41737 0.54867 0.0
O158 O 0.01971 0.4337 0.56928 0.0
C159 C 0.01092 0.4206 0.44332 0.0
C160 C 0.01481 0.45105 0.50142 0.0
C161 C 0.03962 0.42889 0.50833 0.0
O162 O 0.00419 0.41696 0.47106 0.0
O163 O 0.0213 0.42936 0.44876 0.0
O164 O 0.03941 0.43906 0.50327 0.0
O165 O 0.02935 0.42004 0.51501 0.0
C166 C 0.01043 0.4238 0.57613 0.0
O167 O 0.02531 0.45182 0.50746 0.0
O168 O 0.00639 0.44029 0.49914 0.0
In169 In 0.55969 0.58874 0.48627 0.0
O170 O 0.57423 0.59003 0.52767 0.0
O171 O 0.5579 0.5903 0.54682 0.0
C172 C 0.56935 0.58931 0.42035 0.0
C173 C 0.54356 0.56491 0.48893 0.0
C174 C 0.55747 0.60965 0.47858 0.0
O175 O 0.57593 0.59229 0.4486 0.0
O176 O 0.55813 0.58601 0.42577 0.0
O177 O 0.54828 0.59927 0.47726 0.0
O178 O 0.56751 0.60935 0.48463 0.0
C179 C 0.56806 0.5905 0.55462 0.0
O180 O 0.54014 0.57332 0.48893 0.0
O181 O 0.55498 0.56859 0.48768 0.0
In182 In 0.411 0.96414 0.46972 0.0
O183 O 0.4061 0.97535 0.51048 0.0
O184 O 0.41192 0.96231 0.53035 0.0
C185 C 0.4085 0.97187 0.40356 0.0
C186 C 0.43546 0.97267 0.47127 0.0
C187 C 0.39092 0.94255 0.46524 0.0
O188 O 0.40759 0.97723 0.43198 0.0
O189 O 0.41076 0.96284 0.40886 0.0
O190 O 0.40148 0.94329 0.45988 0.0
O191 O 0.39075 0.95249 0.4739 0.0
C192 C 0.40842 0.97039 0.53768 0.0
O193 O 0.42839 0.9613 0.47348 0.0
O194 O 0.43013 0.97942 0.46785 0.0
In195 In 0.75039 0.66964 0.66104 0.0
O196 O 0.7386 0.6541 0.62244 0.0
O197 O 0.74755 0.6722 0.60154 0.0
C198 C 0.74235 0.66065 0.72776 0.0
C199 C 0.77172 0.66835 0.65418 0.0
C200 C 0.74836 0.69047 0.67164 0.0
O201 O 0.73533 0.65727 0.70053 0.0
O202 O 0.75323 0.66806 0.72079 0.0
O203 O 0.75861 0.69026 0.67029 0.0
O204 O 0.73925 0.68027 0.66636 0.0
C205 C 0.74081 0.66103 0.59521 0.0
O206 O 0.771 0.67836 0.65224 0.0
O207 O 0.76168 0.65903 0.65918 0.0
In208 In 0.30012 0.07619 0.68532 0.0
O209 O 0.29854 0.09423 0.68049 0.0
O210 O 0.3162 0.09493 0.68718 0.0
C211 C 0.27759 0.05751 0.69117 0.0
C212 C 0.30602 0.07311 0.61743 0.0
C213 C 0.30715 0.07253 0.75129 0.0
O214 O 0.2795 0.06847 0.69694 0.0
O215 O 0.28685 0.05625 0.68126 0.0
O216 O 0.31091 0.06948 0.72285 0.0
O217 O 0.30026 0.07762 0.74599 0.0
C218 C 0.30998 0.10081 0.68313 0.0
O219 O 0.31163 0.07172 0.64459 0.0
O220 O 0.29748 0.07592 0.62482 0.0
In221 In 0.92104 0.22656 0.67083 0.0
O222 O 0.90613 0.20669 0.67656 0.0
O223 O 0.90071 0.22084 0.66794 0.0
C224 C 0.93812 0.21887 0.68761 0.0
C225 C 0.92357 0.23487 0.60186 0.0
C226 C 0.92426 0.2424 0.72605 0.0
O227 O 0.92935 0.21729 0.70843 0.0
O228 O 0.93783 0.22364 0.65756 0.0
O229 O 0.93308 0.2427 0.70763 0.0
O230 O 0.91392 0.23474 0.71506 0.0
C231 C 0.89743 0.20957 0.67278 0.0
O232 O 0.92639 0.24205 0.62871 0.0
O233 O 0.91971 0.22373 0.60998 0.0
In234 In 0.31836 0.23791 0.14939 0.0
O235 O 0.33199 0.25106 0.10863 0.0
O236 O 0.31634 0.23569 0.08853 0.0
C237 C 0.32771 0.24729 0.21467 0.0
C238 C 0.32043 0.21683 0.15316 0.0
C239 C 0.2986 0.24217 0.15257 0.0
O240 O 0.33383 0.25117 0.18591 0.0
O241 O 0.31707 0.23884 0.2102 0.0
O242 O 0.29779 0.23147 0.15436 0.0
O243 O 0.3093 0.25056 0.14804 0.0
C244 C 0.32609 0.24509 0.08131 0.0
O245 O 0.31016 0.21698 0.1514 0.0
O246 O 0.32951 0.22723 0.15277 0.0
In247 In 0.77909 0.08016 0.18305 0.0
O248 O 0.76452 0.0796 0.1429 0.0
O249 O 0.78051 0.07894 0.12219 0.0
C250 C 0.76966 0.08002 0.24912 0.0
C251 C 0.79628 0.10357 0.17943 0.0
C252 C 0.77994 0.05851 0.18937 0.0
O253 O 0.7631 0.07738 0.22088 0.0
O254 O 0.78077 0.08278 0.24367 0.0
O255 O 0.78939 0.06857 0.19352 0.0
O256 O 0.77038 0.05951 0.18131 0.0
C257 C 0.77044 0.0791 0.11534 0.0
O258 O 0.79903 0.09469 0.17854 0.0
O259 O 0.78501 0.10055 0.18222 0.0
In260 In 0.92208 0.70543 0.18438 0.0
O261 O 0.9273 0.6947 0.14279 0.0
O262 O 0.9209 0.70744 0.12397 0.0
C263 C 0.92515 0.69782 0.25016 0.0
C264 C 0.89752 0.69552 0.18272 0.0
C265 C 0.94115 0.72777 0.1898 0.0
O266 O 0.92804 0.69395 0.22163 0.0
O267 O 0.92064 0.70522 0.24506 0.0
O268 O 0.93034 0.72615 0.19631 0.0
O269 O 0.94204 0.71835 0.17941 0.0
C270 C 0.92468 0.69961 0.11601 0.0
O271 O 0.90404 0.70703 0.18157 0.0
O272 O 0.90343 0.68927 0.18495 0.0
In273 In 0.57662 0.99062 0.01667 0.0
O274 O 0.5892 0.0049 0.05741 0.0
O275 O 0.57724 0.9871 0.07656 0.0
C276 C 0.58553 0.99911 0.9503 0.0
C277 C 0.55666 0.99464 0.01943 0.0
C278 C 0.57793 0.96934 0.00833 0.0
O279 O 0.59209 0.00303 0.97836 0.0
O280 O 0.57468 0.99134 0.95624 0.0
O281 O 0.56782 0.96989 0.0085 0.0
O282 O 0.58721 0.97943 0.01338 0.0
C283 C 0.5853 0.99771 0.08414 0.0
O284 O 0.55599 0.98399 0.02072 0.0
O285 O 0.56737 0.00318 0.0173 0.0
In286 In 0.03776 0.59199 0.99004 0.0
O287 O 0.04017 0.57434 0.9948 0.0
O288 O 0.02217 0.57301 0.99169 0.0
C289 C 0.05955 0.61148 0.98132 0.0
C290 C 0.0326 0.5958 0.05801 0.0
C291 C 0.02965 0.59437 0.92435 0.0
O292 O 0.05836 0.60067 0.97723 0.0
O293 O 0.04996 0.61219 0.99084 0.0
O294 O 0.0259 0.59741 0.95284 0.0
O295 O 0.03713 0.58997 0.92947 0.0
C296 C 0.02875 0.56746 0.99437 0.0
O297 O 0.02603 0.5958 0.03143 0.0
O298 O 0.0417 0.59392 0.05007 0.0
In299 In 0.41341 0.44297 0.00124 0.0
O300 O 0.41263 0.42848 0.0419 0.0
O301 O 0.41219 0.44469 0.06197 0.0
C302 C 0.41381 0.43415 0.93476 0.0
C303 C 0.43692 0.45993 0.00366 0.0
C304 C 0.39133 0.44275 0.99414 0.0
O305 O 0.4116 0.42747 0.96266 0.0
O306 O 0.41581 0.44508 0.94076 0.0
O307 O 0.40108 0.4527 0.9941 0.0
O308 O 0.39285 0.43326 0.99866 0.0
C309 C 0.41219 0.43456 0.06921 0.0
O310 O 0.42822 0.46294 0.00343 0.0
O311 O 0.43366 0.44854 0.00293 0.0
In312 In 0.67731 0.7616 0.84425 0.0
O313 O 0.66428 0.74923 0.88761 0.0
O314 O 0.68087 0.76418 0.90452 0.0
C315 C 0.66729 0.75139 0.78037 0.0
C316 C 0.67488 0.78247 0.84007 0.0
C317 C 0.6971 0.75756 0.8374 0.0
O318 O 0.66174 0.74733 0.80994 0.0
O319 O 0.67762 0.76044 0.78345 0.0
O320 O 0.69768 0.76815 0.83428 0.0
O321 O 0.68666 0.74922 0.8453 0.0
C322 C 0.67105 0.75517 0.91367 0.0
O323 O 0.68522 0.78245 0.8418 0.0
O324 O 0.66589 0.77201 0.84094 0.0
In325 In 0.22295 0.92211 0.83091 0.0
O326 O 0.20319 0.90731 0.83877 0.0
O327 O 0.21652 0.90203 0.81869 0.0
C328 C 0.22272 0.9441 0.8287 0.0
C329 C 0.23163 0.92173 0.89781 0.0
C330 C 0.23202 0.92376 0.7638 0.0
O331 O 0.21304 0.93422 0.82467 0.0
O332 O 0.23221 0.94274 0.83502 0.0
O333 O 0.23793 0.9232 0.79146 0.0
O334 O 0.22178 0.92353 0.77041 0.0
C335 C 0.20558 0.89875 0.82793 0.0
O336 O 0.23782 0.92241 0.8697 0.0
O337 O 0.22131 0.92141 0.89187 0.0
In338 In 0.07452 0.29251 0.82476 0.0
O339 O 0.09204 0.28991 0.83067 0.0
O340 O 0.09362 0.30791 0.82321 0.0
C341 C 0.05475 0.27067 0.81956 0.0
C342 C 0.07176 0.29919 0.89197 0.0
C343 C 0.07169 0.29974 0.7582 0.0
O344 O 0.06538 0.27179 0.81287 0.0
O345 O 0.05433 0.28033 0.83 0.0
O346 O 0.06918 0.30414 0.78629 0.0
O347 O 0.07575 0.29201 0.76411 0.0
C348 C 0.09904 0.30128 0.82781 0.0
O349 O 0.07101 0.30497 0.8643 0.0
O350 O 0.07378 0.29006 0.88546 0.0
In351 In 0.43028 0.01902 0.97185 0.0
O352 O 0.41624 0.00619 0.93118 0.0
O353 O 0.43348 0.01926 0.91143 0.0
C354 C 0.4203 0.01044 0.03703 0.0
C355 C 0.45087 0.01632 0.97964 0.0
C356 C 0.4269 0.03937 0.97184 0.0
O357 O 0.41725 0.00369 0.00917 0.0
O358 O 0.42821 0.02128 0.03169 0.0
O359 O 0.4374 0.03982 0.97537 0.0
O360 O 0.41835 0.02877 0.9669 0.0
C361 C 0.42313 0.01067 0.90414 0.0
O362 O 0.4511 0.0267 0.97497 0.0
O363 O 0.44033 0.00745 0.98007 0.0
In364 In 0.96471 0.41133 0.01267 0.0
O365 O 0.97616 0.40774 0.96978 0.0
O366 O 0.96112 0.41096 0.95257 0.0
C367 C 0.97302 0.40867 0.07771 0.0
C368 C 0.97298 0.43582 0.01234 0.0
C369 C 0.94355 0.39097 0.01949 0.0
O370 O 0.97801 0.40763 0.04868 0.0
O371 O 0.96413 0.41119 0.07353 0.0
O372 O 0.94406 0.4015 0.0243 0.0
O373 O 0.95349 0.39096 0.01011 0.0
C374 C 0.96993 0.40874 0.94364 0.0
O375 O 0.96163 0.42867 0.01125 0.0
O376 O 0.97984 0.43055 0.01377 0.0
In377 In 0.58896 0.55932 0.99016 0.0
O378 O 0.57359 0.53964 0.98855 0.0
O379 O 0.56883 0.55443 0.99325 0.0
C380 C 0.61035 0.55783 0.99145 0.0
C381 C 0.58897 0.56729 0.92227 0.0
C382 C 0.59086 0.5693 0.0564 0.0
O383 O 0.60038 0.54881 0.99987 0.0
O384 O 0.6094 0.56729 0.98173 0.0
O385 O 0.59235 0.57559 0.02792 0.0
O386 O 0.58848 0.55826 0.05105 0.0
C387 C 0.56517 0.543 0.99122 0.0
O388 O 0.58993 0.57393 0.94965 0.0
O389 O 0.58815 0.55681 0.9294 0.0
In390 In 0.98712 0.5759 0.49063 0.0
O391 O 0.9804 0.55543 0.48055 0.0
O392 O 0.99949 0.56653 0.48782 0.0
C393 C 0.9657 0.57663 0.50158 0.0
C394 C 0.99528 0.5862 0.42555 0.0
C395 C 0.99598 0.58392 0.55737 0.0
O396 O 0.96653 0.56666 0.50105 0.0
O397 O 0.97554 0.58605 0.49525 0.0
O398 O 0.999 0.59106 0.53044 0.0
O399 O 0.98885 0.57294 0.5502 0.0
C400 C 0.99098 0.55597 0.48226 0.0
O401 O 0.00194 0.58939 0.45352 0.0
O402 O 0.98452 0.57806 0.43072 0.0
In403 In 0.44423 0.41284 0.50196 0.0
O404 O 0.42938 0.41167 0.46206 0.0
O405 O 0.44563 0.41166 0.44109 0.0
C406 C 0.43529 0.41302 0.56845 0.0
C407 C 0.46084 0.43647 0.4985 0.0
C408 C 0.44552 0.39143 0.50911 0.0
O409 O 0.42849 0.41015 0.54069 0.0
O410 O 0.44636 0.41576 0.56231 0.0
O411 O 0.45497 0.4016 0.51063 0.0
O412 O 0.4357 0.39218 0.50305 0.0
C413 C 0.43539 0.41144 0.4344 0.0
O414 O 0.46397 0.42785 0.49798 0.0
O415 O 0.44948 0.43308 0.50061 0.0
In416 In 0.59051 0.03598 0.52413 0.0
O417 O 0.57306 0.0388 0.51953 0.0
O418 O 0.57149 0.02071 0.51707 0.0
C419 C 0.60619 0.05927 0.54214 0.0
C420 C 0.59543 0.03106 0.45674 0.0
C421 C 0.59489 0.02514 0.58242 0.0
O422 O 0.59659 0.05315 0.56005 0.0
O423 O 0.60729 0.05396 0.51412 0.0
O424 O 0.60249 0.02929 0.55683 0.0
O425 O 0.58511 0.02603 0.57766 0.0
C426 C 0.5661 0.02745 0.51629 0.0
O427 O 0.59562 0.02475 0.48374 0.0
O428 O 0.59291 0.03981 0.46402 0.0
In429 In 0.2467 0.32558 0.346 0.0
O430 O 0.25937 0.33777 0.39071 0.0
O431 O 0.2446 0.32094 0.40587 0.0
C432 C 0.26088 0.33896 0.29071 0.0
C433 C 0.22567 0.32766 0.3451 0.0
C434 C 0.2443 0.30355 0.32413 0.0
O435 O 0.26359 0.33185 0.30933 0.0
O436 O 0.25149 0.33981 0.30128 0.0
O437 O 0.23731 0.30798 0.31311 0.0
O438 O 0.25221 0.31006 0.34701 0.0
C439 C 0.25358 0.33061 0.41604 0.0
O440 O 0.2259 0.31741 0.34307 0.0
O441 O 0.23601 0.33676 0.34801 0.0
In442 In 0.70045 0.9237 0.32204 0.0
O443 O 0.68953 0.92878 0.36315 0.0
O444 O 0.70701 0.93042 0.37891 0.0
C445 C 0.68864 0.92209 0.25938 0.0
C446 C 0.69306 0.89971 0.33542 0.0
C447 C 0.72169 0.94213 0.30051 0.0
O448 O 0.68741 0.92788 0.28628 0.0
O449 O 0.6953 0.91676 0.26497 0.0
O450 O 0.72148 0.93267 0.31545 0.0
O451 O 0.71144 0.9422 0.29761 0.0
C452 C 0.69751 0.93145 0.3878 0.0
O453 O 0.70317 0.90619 0.32012 0.0
O454 O 0.68699 0.90539 0.34426 0.0
In455 In 0.07641 0.77447 0.32754 0.0
O456 O 0.09157 0.79419 0.33242 0.0
O457 O 0.09658 0.77957 0.32802 0.0
C458 C 0.05495 0.77568 0.32281 0.0
C459 C 0.07499 0.76474 0.39381 0.0
C460 C 0.07588 0.76617 0.2597 0.0
O461 O 0.06506 0.78525 0.32267 0.0
O462 O 0.05581 0.76579 0.32627 0.0
O463 O 0.07354 0.75915 0.28685 0.0
O464 O 0.07852 0.77716 0.2671 0.0
C465 C 0.1001 0.79095 0.33099 0.0
O466 O 0.0759 0.75939 0.36541 0.0
O467 O 0.07459 0.7748 0.38853 0.0
H468 H 0.32449 0.06796 0.5934 0.0
H469 H 0.33073 0.06765 0.53036 0.0
H470 H 0.3014 0.07545 0.49356 0.0
H471 H 0.29514 0.07584 0.55611 0.0
H472 H 0.31648 0.05332 0.46726 0.0
H473 H 0.33354 0.10362 0.45301 0.0
H474 H 0.33076 0.09611 0.49648 0.0
H475 H 0.31821 0.09565 0.47 0.0
C476 C 0.31933 0.06952 0.57182 0.0
C477 C 0.3094 0.07203 0.57967 0.0
C478 C 0.32289 0.06931 0.53591 0.0
C479 C 0.3166 0.07167 0.50748 0.0
C480 C 0.30645 0.07376 0.51522 0.0
H481 H 0.31773 0.06487 0.27489 0.0
H482 H 0.31286 0.06142 0.33946 0.0
C483 C 0.30288 0.07396 0.55097 0.0
C484 C 0.32089 0.07248 0.46973 0.0
H485 H 0.33219 0.09244 0.39933 0.0
C486 C 0.32 0.06186 0.45238 0.0
C487 C 0.32558 0.08368 0.45065 0.0
C488 C 0.3272 0.09546 0.46849 0.0
C489 C 0.3234 0.06212 0.41594 0.0
C490 C 0.32768 0.07325 0.3965 0.0
C491 C 0.32884 0.0839 0.41423 0.0
C492 C 0.33093 0.07417 0.35764 0.0
C493 C 0.32247 0.05052 0.39863 0.0
C494 C 0.34269 0.08247 0.34646 0.0
C495 C 0.34545 0.08452 0.30971 0.0
C496 C 0.33649 0.07834 0.2834 0.0
C497 C 0.32483 0.06972 0.29457 0.0
C498 C 0.32206 0.06769 0.33144 0.0
H499 H 0.3222 0.04377 0.41923 0.0
H500 H 0.31391 0.04627 0.38253 0.0
H501 H 0.33027 0.05248 0.38012 0.0
H502 H 0.34965 0.08759 0.36625 0.0
H503 H 0.35452 0.09121 0.30194 0.0
H504 H 0.91461 0.22052 0.54241 0.0
H505 H 0.91497 0.22689 0.47981 0.0
H506 H 0.93468 0.26474 0.51193 0.0
H507 H 0.93396 0.25837 0.57532 0.0
H508 H 0.91698 0.26208 0.4669 0.0
H509 H 0.94183 0.2382 0.40723 0.0
H510 H 0.92874 0.22755 0.43151 0.0
H511 H 0.94089 0.23984 0.4555 0.0
C512 C 0.91913 0.23021 0.53619 0.0
C513 C 0.92432 0.23895 0.5638 0.0
C514 C 0.91942 0.23384 0.50024 0.0
C515 C 0.92514 0.24629 0.49086 0.0
C516 C 0.93033 0.25507 0.51842 0.0
H517 H 0.92938 0.2617 0.25664 0.0
H518 H 0.9356 0.26139 0.31973 0.0
C519 C 0.92992 0.25143 0.5546 0.0
C520 C 0.92493 0.25003 0.4526 0.0
H521 H 0.92929 0.24317 0.36577 0.0
C522 C 0.91987 0.2581 0.44483 0.0
C523 C 0.92897 0.24511 0.42364 0.0
C524 C 0.93554 0.23731 0.42995 0.0
C525 C 0.91805 0.26079 0.409 0.0
C526 C 0.92102 0.25495 0.38008 0.0
C527 C 0.92678 0.24748 0.38783 0.0
C528 C 0.91751 0.25581 0.34196 0.0
C529 C 0.91291 0.26984 0.40263 0.0
C530 C 0.90527 0.25264 0.33333 0.0
C531 C 0.90174 0.25295 0.29754 0.0
C532 C 0.91033 0.25619 0.26935 0.0
C533 C 0.92257 0.25921 0.27781 0.0
C534 C 0.92613 0.25903 0.31383 0.0
H535 H 0.91545 0.27663 0.42497 0.0
H536 H 0.91619 0.27482 0.37671 0.0
H537 H 0.90278 0.26487 0.4018 0.0
H538 H 0.89835 0.24971 0.35424 0.0
H539 H 0.89221 0.25043 0.29191 0.0
H540 H 0.74143 0.67443 0.53574 0.0
H541 H 0.73739 0.6674 0.47295 0.0
H542 H 0.72761 0.63045 0.50764 0.0
H543 H 0.73153 0.63741 0.5708 0.0
H544 H 0.7472 0.64134 0.45274 0.0
H545 H 0.70488 0.64533 0.41692 0.0
H546 H 0.71639 0.6581 0.44091 0.0
H547 H 0.70879 0.64354 0.46303 0.0
C548 C 0.73818 0.66477 0.53009 0.0
C549 C 0.73681 0.65646 0.55813 0.0
C550 C 0.73583 0.66077 0.49424 0.0
C551 C 0.73211 0.64841 0.48577 0.0
C552 C 0.73037 0.64001 0.51377 0.0
H553 H 0.7327 0.61483 0.27753 0.0
H554 H 0.73049 0.61828 0.34169 0.0
C555 C 0.7326 0.64399 0.54976 0.0
C556 C 0.73133 0.64458 0.44747 0.0
H557 H 0.71603 0.64237 0.36834 0.0
C558 C 0.74031 0.64141 0.4343 0.0
C559 C 0.72242 0.64487 0.42357 0.0
C560 C 0.71249 0.64806 0.43672 0.0
C561 C 0.74085 0.63885 0.39752 0.0
C562 C 0.73193 0.63911 0.37345 0.0
C563 C 0.72284 0.64214 0.38679 0.0
C564 C 0.73209 0.63656 0.33423 0.0
C565 C 0.7513 0.6364 0.38462 0.0
C566 C 0.73309 0.64543 0.30847 0.0
C567 C 0.73414 0.64339 0.27163 0.0
C568 C 0.73426 0.63246 0.26003 0.0
C569 C 0.7328 0.62341 0.28573 0.0
C570 C 0.7316 0.6254 0.32243 0.0
H571 H 0.75906 0.63992 0.40403 0.0
H572 H 0.7481 0.62637 0.38198 0.0
H573 H 0.75469 0.64067 0.35782 0.0
H574 H 0.73341 0.65408 0.31696 0.0
H575 H 0.73522 0.6505 0.2524 0.0
H576 H 0.07092 0.32024 0.91413 0.0
H577 H 0.07089 0.32706 0.97666 0.0
H578 H 0.07039 0.29358 0.01638 0.0
H579 H 0.0705 0.28673 0.95418 0.0
H580 H 0.05287 0.30353 0.05039 0.0
H581 H 0.10263 0.33532 0.04469 0.0
H582 H 0.09304 0.33531 0.00757 0.0
H583 H 0.09572 0.32217 0.0152 0.0
C584 C 0.07068 0.31429 0.9362 0.0
C585 C 0.07079 0.30299 0.92932 0.0
C586 C 0.07066 0.31819 0.9718 0.0
C587 C 0.07067 0.31081 0.00093 0.0
C588 C 0.07036 0.29937 0.99415 0.0
H589 H 0.07391 0.31409 0.23442 0.0
H590 H 0.0691 0.30775 0.1712 0.0
C591 C 0.07047 0.2955 0.95864 0.0
C592 C 0.07174 0.31529 0.03852 0.0
H593 H 0.09253 0.33416 0.09951 0.0
C594 C 0.0615 0.31028 0.06122 0.0
C595 C 0.08301 0.32409 0.05229 0.0
C596 C 0.09429 0.32955 0.0289 0.0
C597 C 0.06224 0.3139 0.09763 0.0
C598 C 0.07362 0.3225 0.11174 0.0
C599 C 0.08381 0.32759 0.08871 0.0
C600 C 0.07537 0.32617 0.15042 0.0
C601 C 0.05081 0.3086 0.12039 0.0
C602 C 0.08062 0.33863 0.1598 0.0
C603 C 0.08357 0.34227 0.19576 0.0
C604 C 0.08128 0.33352 0.2231 0.0
C605 C 0.07567 0.32103 0.21393 0.0
C606 C 0.07284 0.31739 0.17783 0.0
H607 H 0.04246 0.30546 0.10336 0.0
H608 H 0.05041 0.30055 0.1354 0.0
H609 H 0.05073 0.31539 0.14031 0.0
H610 H 0.08268 0.34557 0.13912 0.0
H611 H 0.08787 0.35196 0.20205 0.0
H612 H 0.65076 0.73865 0.26039 0.0
H613 H 0.65826 0.73945 0.19825 0.0
H614 H 0.62987 0.74826 0.15861 0.0
H615 H 0.62242 0.74758 0.22019 0.0
H616 H 0.64555 0.72623 0.13354 0.0
H617 H 0.66212 0.7765 0.12205 0.0
H618 H 0.65853 0.76862 0.16498 0.0
H619 H 0.6465 0.76838 0.13638 0.0
C620 C 0.64612 0.74072 0.23837 0.0
C621 C 0.63608 0.74316 0.24517 0.0
C622 C 0.65038 0.74115 0.20296 0.0
C623 C 0.64471 0.74408 0.174 0.0
C624 C 0.63449 0.74618 0.18068 0.0
H625 H 0.64929 0.73821 0.94134 0.0
H626 H 0.64339 0.73468 0.00526 0.0
C627 C 0.63023 0.74575 0.2159 0.0
C628 C 0.64955 0.74528 0.13675 0.0
H629 H 0.66125 0.76574 0.06767 0.0
C630 C 0.64908 0.73487 0.11914 0.0
C631 C 0.65426 0.7566 0.11827 0.0
C632 C 0.65551 0.7682 0.13643 0.0
C633 C 0.65292 0.73543 0.08303 0.0
C634 C 0.65716 0.74666 0.06409 0.0
C635 C 0.6579 0.75711 0.08211 0.0
C636 C 0.66095 0.74791 0.0256 0.0
C637 C 0.65248 0.72405 0.06559 0.0
C638 C 0.67272 0.75658 0.0158 0.0
C639 C 0.67605 0.7587 0.97943 0.0
C640 C 0.66766 0.7522 0.95207 0.0
C641 C 0.65596 0.74331 0.96186 0.0
C642 C 0.65261 0.74123 0.99837 0.0
H643 H 0.65226 0.7173 0.08613 0.0
H644 H 0.64407 0.71965 0.04892 0.0
H645 H 0.66048 0.7263 0.04764 0.0
H646 H 0.67928 0.76186 0.03636 0.0
H647 H 0.68515 0.76559 0.97275 0.0
H648 H 0.25495 0.88596 0.20289 0.0
H649 H 0.25361 0.89137 0.13997 0.0
H650 H 0.25085 0.92381 0.17524 0.0
H651 H 0.25239 0.91853 0.23847 0.0
H652 H 0.23417 0.89336 0.10997 0.0
H653 H 0.27617 0.93706 0.09431 0.0
H654 H 0.274 0.92669 0.13151 0.0
H655 H 0.26688 0.93682 0.13224 0.0
C656 C 0.25422 0.89434 0.19729 0.0
C657 C 0.25377 0.90182 0.22565 0.0
C658 C 0.25346 0.89742 0.16129 0.0
C659 C 0.25226 0.90806 0.15284 0.0
C660 C 0.25203 0.91569 0.18107 0.0
H661 H 0.21973 0.92081 0.96071 0.0
H662 H 0.22552 0.91791 0.02189 0.0
C663 C 0.25283 0.91262 0.21719 0.0
C664 C 0.25027 0.91058 0.11469 0.0
H665 H 0.26134 0.93181 0.047 0.0
C666 C 0.24017 0.90174 0.09616 0.0
C667 C 0.25817 0.92146 0.09655 0.0
C668 C 0.26948 0.93101 0.1145 0.0
C669 C 0.23757 0.90358 0.06033 0.0
C670 C 0.24518 0.91465 0.04265 0.0
C671 C 0.25547 0.92338 0.06076 0.0
C672 C 0.2423 0.91736 0.00573 0.0
C673 C 0.22671 0.89362 0.0416 0.0
C674 C 0.25003 0.91842 0.97644 0.0
C675 C 0.24675 0.92011 0.94125 0.0
C676 C 0.23572 0.92083 0.93495 0.0
C677 C 0.22825 0.9202 0.96458 0.0
C678 C 0.23152 0.91851 0.99959 0.0
H679 H 0.22375 0.88463 0.05523 0.0
H680 H 0.21894 0.89602 0.04214 0.0
H681 H 0.22883 0.89268 0.01288 0.0
H682 H 0.25842 0.91761 0.9807 0.0
H683 H 0.2527 0.92061 0.91896 0.0
H684 H 0.68733 0.93601 0.73546 0.0
H685 H 0.69504 0.94183 0.67364 0.0
H686 H 0.65809 0.92546 0.63296 0.0
H687 H 0.65033 0.91958 0.69443 0.0
H688 H 0.68931 0.92333 0.61784 0.0
H689 H 0.67496 0.9591 0.57976 0.0
H690 H 0.67664 0.95549 0.62628 0.0
H691 H 0.66331 0.94573 0.60082 0.0
C692 C 0.68086 0.93388 0.7134 0.0
C693 C 0.66823 0.92731 0.71969 0.0
C694 C 0.68527 0.9372 0.67817 0.0
C695 C 0.67712 0.93419 0.64887 0.0
C696 C 0.66451 0.92806 0.6553 0.0
H697 H 0.67612 0.92884 0.41816 0.0
H698 H 0.67233 0.93109 0.48215 0.0
C699 C 0.6601 0.92464 0.69039 0.0
C700 C 0.68172 0.93612 0.61127 0.0
H701 H 0.68092 0.94987 0.53152 0.0
C702 C 0.68767 0.92928 0.59902 0.0
C703 C 0.67942 0.94379 0.58689 0.0
C704 C 0.67332 0.95154 0.59906 0.0
C705 C 0.69093 0.92947 0.56257 0.0
C706 C 0.68848 0.93702 0.53793 0.0
C707 C 0.68281 0.94412 0.55044 0.0
C708 C 0.69113 0.93708 0.49875 0.0
C709 C 0.69638 0.9211 0.55054 0.0
C710 C 0.70303 0.94014 0.48666 0.0
C711 C 0.70518 0.93871 0.45024 0.0
C712 C 0.6955 0.93443 0.42518 0.0
C713 C 0.68374 0.93213 0.4369 0.0
C714 C 0.68157 0.93342 0.47343 0.0
H715 H 0.69475 0.91375 0.57059 0.0
H716 H 0.69253 0.91677 0.52409 0.0
H717 H 0.70641 0.92652 0.54745 0.0
H718 H 0.71059 0.94329 0.50557 0.0
H719 H 0.71437 0.94068 0.44187 0.0
H720 H 0.0811 0.74654 0.41391 0.0
H721 H 0.08327 0.7404 0.4758 0.0
H722 H 0.07147 0.76633 0.51854 0.0
H723 H 0.06944 0.77263 0.457 0.0
H724 H 0.09929 0.76037 0.53207 0.0
H725 H 0.05094 0.73126 0.57145 0.0
H726 H 0.05602 0.7329 0.52493 0.0
H727 H 0.05435 0.74519 0.54695 0.0
C728 C 0.0788 0.7508 0.4365 0.0
C729 C 0.07513 0.76008 0.43066 0.0
C730 C 0.08005 0.74729 0.47176 0.0
C731 C 0.07744 0.75286 0.50158 0.0
C732 C 0.07341 0.76185 0.49579 0.0
H733 H 0.08167 0.75166 0.73449 0.0
H734 H 0.07642 0.75294 0.67113 0.0
C735 C 0.0723 0.76546 0.46065 0.0
C736 C 0.07987 0.75008 0.53883 0.0
H737 H 0.06587 0.73644 0.61758 0.0
C738 C 0.09202 0.75503 0.55075 0.0
C739 C 0.07032 0.74328 0.56305 0.0
C740 C 0.05714 0.73776 0.55113 0.0
C741 C 0.0949 0.75362 0.5867 0.0
C742 C 0.08535 0.74673 0.61107 0.0
C743 C 0.07318 0.74166 0.5989 0.0
C744 C 0.08782 0.74504 0.64954 0.0
C745 C 0.1081 0.75999 0.59851 0.0
C746 C 0.09568 0.73984 0.65858 0.0
C747 C 0.09882 0.73926 0.69467 0.0
C748 C 0.09395 0.74363 0.7225 0.0
C749 C 0.08558 0.74823 0.71361 0.0
C750 C 0.08257 0.74897 0.67743 0.0
H751 H 0.11368 0.76757 0.5799 0.0
H752 H 0.10896 0.76377 0.62628 0.0
H753 H 0.11199 0.75331 0.59842 0.0
H754 H 0.09957 0.73642 0.63765 0.0
H755 H 0.10518 0.73553 0.70075 0.0
H756 H 0.27091 0.35185 0.44575 0.0
H757 H 0.27371 0.35742 0.5101 0.0
H758 H 0.24527 0.32177 0.5377 0.0
H759 H 0.24235 0.31619 0.47372 0.0
H760 H 0.24184 0.34139 0.56574 0.0
H761 H 0.28845 0.34631 0.59557 0.0
H762 H 0.28719 0.35446 0.55644 0.0
H763 H 0.27971 0.33802 0.55666 0.0
C764 C 0.26541 0.34514 0.46562 0.0
C765 C 0.25638 0.33361 0.45473 0.0
C766 C 0.26706 0.34831 0.50234 0.0
C767 C 0.25975 0.33996 0.52862 0.0
C768 C 0.25102 0.32832 0.51782 0.0
H769 H 0.26179 0.34389 0.76352 0.0
H770 H 0.26286 0.33861 0.69993 0.0
C771 C 0.24937 0.32516 0.48125 0.0
C772 C 0.26036 0.34365 0.56703 0.0
H773 H 0.27882 0.35253 0.64162 0.0
C774 C 0.24992 0.34381 0.58235 0.0
C775 C 0.27089 0.34672 0.58861 0.0
C776 C 0.28219 0.3463 0.5737 0.0
C777 C 0.24972 0.34702 0.61867 0.0
C778 C 0.26032 0.35033 0.64012 0.0
C779 C 0.27075 0.35007 0.62496 0.0
C780 C 0.26063 0.35401 0.67841 0.0
C781 C 0.2381 0.34666 0.63395 0.0
C782 C 0.25929 0.36455 0.6872 0.0
C783 C 0.25862 0.36754 0.72332 0.0
C784 C 0.25936 0.36009 0.75133 0.0
C785 C 0.26113 0.34977 0.74249 0.0
C786 C 0.26178 0.34676 0.70626 0.0
H787 H 0.23005 0.34117 0.61672 0.0
H788 H 0.23637 0.34276 0.66169 0.0
H789 H 0.23901 0.35612 0.63548 0.0
H790 H 0.25858 0.37036 0.66607 0.0
H791 H 0.25737 0.37561 0.72927 0.0
H792 H 0.89621 0.65371 0.80669 0.0
H793 H 0.90156 0.66118 0.86847 0.0
H794 H 0.93857 0.68432 0.8348 0.0
H795 H 0.93306 0.67722 0.77221 0.0
H796 H 0.9171 0.65958 0.91482 0.0
H797 H 0.93072 0.70872 0.88694 0.0
H798 H 0.92334 0.69696 0.85344 0.0
H799 H 0.9394 0.70251 0.86257 0.0
C800 C 0.90549 0.66042 0.81238 0.0
C801 C 0.9142 0.66494 0.78462 0.0
C802 C 0.90855 0.66467 0.84775 0.0
C803 C 0.92043 0.67344 0.8563 0.0
C804 C 0.92927 0.67778 0.82874 0.0
H805 H 0.93695 0.68718 0.08956 0.0
H806 H 0.9379 0.6814 0.02646 0.0
C807 C 0.92614 0.67367 0.79307 0.0
C808 C 0.92335 0.67789 0.89418 0.0
H809 H 0.93258 0.70343 0.94714 0.0
C810 C 0.92055 0.66918 0.92191 0.0
C811 C 0.92778 0.69042 0.90339 0.0
C812 C 0.93039 0.70019 0.8751 0.0
C813 C 0.92157 0.67255 0.95854 0.0
C814 C 0.926 0.68508 0.96777 0.0
C815 C 0.92925 0.69384 0.94004 0.0
C816 C 0.92627 0.68919 0.00577 0.0
C817 C 0.91727 0.66257 0.98679 0.0
C818 C 0.91988 0.69594 0.01493 0.0
C819 C 0.91957 0.69949 0.05067 0.0
C820 C 0.92555 0.69624 0.07811 0.0
C821 C 0.93214 0.68967 0.06897 0.0
C822 C 0.93263 0.6863 0.03298 0.0
H823 H 0.91129 0.65347 0.97496 0.0
H824 H 0.9253 0.662 0.99902 0.0
H825 H 0.91214 0.66452 0.00866 0.0
H826 H 0.91491 0.69829 0.99447 0.0
H827 H 0.91442 0.70455 0.0569 0.0
H828 H 0.31436 0.23382 0.01951 0.0
H829 H 0.32205 0.23812 0.95757 0.0
H830 H 0.35531 0.26794 0.99585 0.0
H831 H 0.34761 0.26376 0.0582 0.0
H832 H 0.34512 0.27296 0.93039 0.0
H833 H 0.34968 0.22964 0.92311 0.0
H834 H 0.33481 0.22776 0.93655 0.0
H835 H 0.34777 0.23604 0.96534 0.0
C836 C 0.32328 0.24136 0.01479 0.0
C837 C 0.33044 0.24839 0.04374 0.0
C838 C 0.32766 0.24377 0.97939 0.0
C839 C 0.33931 0.25322 0.97227 0.0
C840 C 0.34631 0.26057 0.00089 0.0
H841 H 0.38014 0.2578 0.77698 0.0
H842 H 0.37363 0.25776 0.83945 0.0
C843 C 0.34192 0.25817 0.03643 0.0
C844 C 0.34432 0.25501 0.93511 0.0
H845 H 0.3523 0.24061 0.8683 0.0
C846 C 0.34676 0.26593 0.91678 0.0
C847 C 0.34658 0.24588 0.9177 0.0
C848 C 0.34469 0.23421 0.93673 0.0
C849 C 0.35115 0.26785 0.88104 0.0
C850 C 0.353 0.25852 0.86323 0.0
C851 C 0.35078 0.24771 0.88191 0.0
C852 C 0.3574 0.25974 0.82538 0.0
C853 C 0.35393 0.27987 0.86283 0.0
C854 C 0.35045 0.26096 0.79668 0.0
C855 C 0.35418 0.26102 0.76082 0.0
C856 C 0.36483 0.25975 0.75315 0.0
C857 C 0.37186 0.25876 0.78199 0.0
C858 C 0.36817 0.25875 0.81772 0.0
H859 H 0.35504 0.28711 0.88282 0.0
H860 H 0.36237 0.28304 0.84632 0.0
H861 H 0.34625 0.27865 0.84455 0.0
H862 H 0.34198 0.26149 0.80195 0.0
H863 H 0.34855 0.26174 0.73912 0.0
H864 H 0.74726 0.07928 0.77307 0.0
H865 H 0.74971 0.07418 0.83587 0.0
H866 H 0.74819 0.10709 0.87251 0.0
H867 H 0.74588 0.11229 0.81008 0.0
H868 H 0.76816 0.10447 0.89896 0.0
H869 H 0.72516 0.06204 0.92028 0.0
H870 H 0.73368 0.06198 0.88071 0.0
H871 H 0.72709 0.07252 0.88356 0.0
C872 C 0.7473 0.08534 0.79459 0.0
C873 C 0.74639 0.09619 0.78664 0.0
C874 C 0.74863 0.08238 0.83045 0.0
C875 C 0.74901 0.0902 0.85889 0.0
C876 C 0.74788 0.10091 0.851 0.0
H877 H 0.74989 0.08089 0.0926 0.0
H878 H 0.74423 0.08299 0.03009 0.0
C879 C 0.74656 0.10387 0.81528 0.0
C880 C 0.75144 0.08775 0.89665 0.0
H881 H 0.74022 0.06743 0.96655 0.0
C882 C 0.76204 0.09638 0.91375 0.0
C883 C 0.74338 0.07725 0.91599 0.0
C884 C 0.73162 0.06795 0.89941 0.0
C885 C 0.76488 0.09474 0.94951 0.0
C886 C 0.75699 0.08409 0.96857 0.0
C887 C 0.74629 0.07553 0.95173 0.0
C888 C 0.75981 0.08179 0.00602 0.0
C889 C 0.77623 0.10451 0.9668 0.0
C890 C 0.77026 0.08011 0.01302 0.0
C891 C 0.77351 0.07893 0.04853 0.0
C892 C 0.76634 0.07934 0.07777 0.0
C893 C 0.75561 0.08056 0.07064 0.0
C894 C 0.75236 0.08175 0.03499 0.0
H895 H 0.77966 0.11331 0.95185 0.0
H896 H 0.77445 0.10612 0.9953 0.0
H897 H 0.78355 0.10145 0.96679 0.0
H898 H 0.77603 0.07993 0.99099 0.0
H899 H 0.78178 0.07792 0.05309 0.0
H900 H 0.95675 0.40877 0.88425 0.0
H901 H 0.96221 0.40869 0.82072 0.0
H902 H 0.99544 0.40702 0.85275 0.0
H903 H 0.98989 0.40685 0.91652 0.0
H904 H 0.98203 0.42611 0.78827 0.0
H905 H 0.9827 0.38114 0.77374 0.0
H906 H 0.97569 0.38484 0.81183 0.0
H907 H 0.99198 0.39012 0.81051 0.0
C908 C 0.96514 0.40822 0.87778 0.0
C909 C 0.9729 0.40783 0.90534 0.0
C910 C 0.96824 0.40816 0.84146 0.0
C911 C 0.97916 0.4077 0.83196 0.0
C912 C 0.98684 0.4071 0.85943 0.0
H913 H 0.02083 0.43597 0.63815 0.0
H914 H 0.01275 0.43124 0.69956 0.0
C915 C 0.9837 0.40709 0.89584 0.0
C916 C 0.98296 0.40893 0.79349 0.0
H917 H 0.99202 0.39559 0.72602 0.0
C918 C 0.98411 0.41938 0.7746 0.0
C919 C 0.98553 0.40007 0.77554 0.0
C920 C 0.9838 0.38835 0.79381 0.0
C921 C 0.9881 0.42139 0.73859 0.0
C922 C 0.99124 0.41284 0.72121 0.0
C923 C 0.98973 0.4022 0.73962 0.0
C924 C 0.99645 0.41507 0.68427 0.0
C925 C 0.98888 0.43266 0.71944 0.0
C926 C 0.99016 0.40728 0.65551 0.0
C927 C 0.9948 0.40993 0.62026 0.0
C928 C 0.00581 0.42038 0.6134 0.0
C929 C 0.01227 0.42791 0.64251 0.0
C930 C 0.00765 0.42525 0.67761 0.0
H931 H 0.9831 0.4364 0.73274 0.0
H932 H 0.99848 0.43986 0.72009 0.0
H933 H 0.98603 0.43063 0.69069 0.0
H934 H 0.98153 0.39934 0.66021 0.0
H935 H 0.98966 0.40395 0.59835 0.0
H936 H 0.55668 0.59277 0.61543 0.0
H937 H 0.56185 0.59098 0.67829 0.0
H938 H 0.59303 0.58603 0.64291 0.0
H939 H 0.588 0.58801 0.57971 0.0
H940 H 0.56244 0.57069 0.70755 0.0
H941 H 0.60745 0.61104 0.72467 0.0
H942 H 0.5973 0.6096 0.68742 0.0
H943 H 0.60659 0.60156 0.68649 0.0
C944 C 0.56475 0.59148 0.62099 0.0
C945 C 0.57193 0.59052 0.5926 0.0
C946 C 0.56769 0.59045 0.65696 0.0
C947 C 0.57788 0.58848 0.66536 0.0
C948 C 0.58526 0.58779 0.63712 0.0
H949 H 0.58724 0.55448 0.86044 0.0
H950 H 0.58508 0.5602 0.79845 0.0
C951 C 0.58234 0.58886 0.60101 0.0
C952 C 0.58015 0.58617 0.70345 0.0
H953 H 0.60119 0.59619 0.77192 0.0
C954 C 0.5709 0.5763 0.72164 0.0
C955 C 0.59113 0.59357 0.72194 0.0
C956 C 0.60116 0.60461 0.70431 0.0
C957 C 0.57239 0.57351 0.75757 0.0
C958 C 0.58353 0.58065 0.77568 0.0
C959 C 0.59271 0.59067 0.75782 0.0
C960 C 0.58576 0.57768 0.81304 0.0
C961 C 0.56198 0.56299 0.77598 0.0
C962 C 0.58726 0.5858 0.8417 0.0
C963 C 0.58854 0.58257 0.87729 0.0
C964 C 0.5884 0.57119 0.88467 0.0
C965 C 0.5873 0.56327 0.8557 0.0
C966 C 0.58602 0.56651 0.82026 0.0
H967 H 0.55315 0.56048 0.76185 0.0
H968 H 0.56383 0.55486 0.77586 0.0
H969 H 0.56106 0.56528 0.80456 0.0
H970 H 0.58713 0.5945 0.83663 0.0
H971 H 0.58941 0.58887 0.89903 0.0
H972 H 0.43781 0.01623 0.84506 0.0
H973 H 0.43214 0.00904 0.78315 0.0
H974 H 0.39461 0.98822 0.81616 0.0
H975 H 0.40037 0.99509 0.87882 0.0
H976 H 0.40135 0.97502 0.77286 0.0
H977 H 0.41532 0.0202 0.70939 0.0
H978 H 0.42781 0.01994 0.73424 0.0
H979 H 0.41419 0.01814 0.75783 0.0
C980 C 0.42834 0.01017 0.83915 0.0
C981 C 0.41951 0.00628 0.86672 0.0
C982 C 0.42508 0.00615 0.80364 0.0
C983 C 0.41289 0.99835 0.79475 0.0
C984 C 0.40406 0.99434 0.82232 0.0
H985 H 0.39776 0.98461 0.56207 0.0
H986 H 0.39653 0.99054 0.62484 0.0
C987 C 0.40735 0.99826 0.85807 0.0
C988 C 0.4096 0.994 0.75693 0.0
H989 H 0.41397 0.00392 0.6694 0.0
C990 C 0.40393 0.98134 0.75025 0.0
C991 C 0.41265 0.00221 0.72737 0.0
C992 C 0.41769 0.01587 0.73262 0.0
C993 C 0.40191 0.9767 0.7148 0.0
C994 C 0.40603 0.98494 0.68528 0.0
C995 C 0.41101 0.99758 0.69196 0.0
C996 C 0.406 0.98073 0.64753 0.0
C997 C 0.39543 0.96301 0.70949 0.0
C998 C 0.41181 0.97334 0.63933 0.0
C999 C 0.41238 0.96984 0.6037 0.0
C1000 C 0.40739 0.97387 0.57536 0.0
C1001 C 0.40167 0.98136 0.58341 0.0
C1002 C 0.40096 0.98474 0.61923 0.0
H1003 H 0.38905 0.95848 0.73218 0.0
H1004 H 0.39019 0.96052 0.68373 0.0
H1005 H 0.40228 0.95933 0.70897 0.0
H1006 H 0.41614 0.97047 0.66042 0.0
H1007 H 0.41697 0.96417 0.5983 0.0
H1008 H 0.59565 0.01007 0.4312 0.0
H1009 H 0.59664 0.00463 0.36767 0.0
H1010 H 0.60038 0.04 0.33413 0.0
H1011 H 0.59926 0.04545 0.3973 0.0
H1012 H 0.57857 0.00655 0.31258 0.0
H1013 H 0.62778 0.03334 0.27811 0.0
H1014 H 0.62264 0.02837 0.32375 0.0
H1015 H 0.6206 0.04082 0.30433 0.0
C1016 C 0.59688 0.01675 0.41031 0.0
C1017 C 0.59733 0.02816 0.41914 0.0
C1018 C 0.59744 0.01363 0.37412 0.0
C1019 C 0.59869 0.02197 0.3464 0.0
C1020 C 0.59957 0.03352 0.35524 0.0
H1021 H 0.59682 0.02096 0.11173 0.0
H1022 H 0.60073 0.02678 0.17579 0.0
C1023 C 0.59886 0.03658 0.3913 0.0
C1024 C 0.59785 0.01823 0.30805 0.0
H1025 H 0.61424 0.02332 0.22984 0.0
C1026 C 0.58637 0.01011 0.29449 0.0
C1027 C 0.60802 0.0231 0.2846 0.0
C1028 C 0.62051 0.03186 0.29826 0.0
C1029 C 0.58472 0.00685 0.25778 0.0
C1030 C 0.59494 0.01154 0.23425 0.0
C1031 C 0.60644 0.01968 0.24792 0.0
C1032 C 0.59374 0.00815 0.19536 0.0
C1033 C 0.57195 0.99875 0.24441 0.0
C1034 C 0.58894 0.9958 0.18504 0.0
C1035 C 0.58655 0.99248 0.14869 0.0
C1036 C 0.58917 0.00145 0.12185 0.0
C1037 C 0.59469 0.01386 0.1319 0.0
C1038 C 0.59693 0.01718 0.16844 0.0
H1039 H 0.5649 0.99899 0.26295 0.0
H1040 H 0.57041 0.00154 0.21701 0.0
H1041 H 0.57063 0.98915 0.24302 0.0
H1042 H 0.58676 0.9887 0.20522 0.0
H1043 H 0.58244 0.98284 0.14167 0.0
H1044 H 0.01906 0.59898 0.40433 0.0
H1045 H 0.02668 0.60387 0.3421 0.0
H1046 H 0.98964 0.58841 0.30223 0.0
H1047 H 0.98195 0.58335 0.36415 0.0
H1048 H 0.01826 0.58319 0.28684 0.0
H1049 H 0.00938 0.62263 0.24783 0.0
H1050 H 0.01175 0.61952 0.29429 0.0
H1051 H 0.99751 0.61028 0.27218 0.0
C1052 C 0.01255 0.59685 0.38235 0.0
C1053 C 0.99992 0.59074 0.389 0.0
C1054 C 0.01691 0.59964 0.34691 0.0
C1055 C 0.0087 0.59657 0.31777 0.0
C1056 C 0.9961 0.59098 0.32448 0.0
H1057 H 0.01122 0.59464 0.08462 0.0
H1058 H 0.00605 0.59563 0.14825 0.0
C1059 C 0.99174 0.58805 0.35981 0.0
C1060 C 0.0132 0.59788 0.28019 0.0
H1061 H 0.01523 0.61303 0.20097 0.0
C1062 C 0.01774 0.5898 0.26808 0.0
C1063 C 0.01229 0.60638 0.25591 0.0
C1064 C 0.00754 0.61528 0.26806 0.0
C1065 C 0.02115 0.58976 0.23188 0.0
C1066 C 0.02034 0.59833 0.20745 0.0
C1067 C 0.0159 0.60651 0.21975 0.0
C1068 C 0.02379 0.59869 0.16885 0.0
C1069 C 0.0251 0.5802 0.21994 0.0
C1070 C 0.03556 0.60042 0.15929 0.0
C1071 C 0.03847 0.59967 0.12314 0.0
C1072 C 0.02972 0.59744 0.0958 0.0
C1073 C 0.01812 0.59633 0.10518 0.0
C1074 C 0.01517 0.59692 0.14146 0.0
H1075 H 0.02189 0.57233 0.23894 0.0
H1076 H 0.02157 0.57669 0.19249 0.0
H1077 H 0.03523 0.58434 0.21921 0.0
H1078 H 0.04246 0.60215 0.17987 0.0
H1079 H 0.04753 0.60073 0.11663 0.0
H1080 H 0.41394 0.41405 0.09268 0.0
H1081 H 0.4159 0.40853 0.15535 0.0
H1082 H 0.41283 0.44052 0.19336 0.0
H1083 H 0.41101 0.44616 0.131 0.0
H1084 H 0.43287 0.43848 0.22106 0.0
H1085 H 0.39076 0.39486 0.2375 0.0
H1086 H 0.39978 0.39542 0.19852 0.0
H1087 H 0.39265 0.40551 0.2013 0.0
C1088 C 0.41352 0.41981 0.11444 0.0
C1089 C 0.41234 0.43055 0.10692 0.0
C1090 C 0.41457 0.41661 0.15024 0.0
C1091 C 0.41438 0.42405 0.17904 0.0
C1092 C 0.41295 0.43463 0.17156 0.0
H1093 H 0.41446 0.41255 0.41212 0.0
H1094 H 0.4088 0.415 0.3499 0.0
C1095 C 0.41191 0.43783 0.13589 0.0
C1096 C 0.41661 0.42139 0.21679 0.0
H1097 H 0.40562 0.40015 0.28448 0.0
C1098 C 0.42688 0.43012 0.23495 0.0
C1099 C 0.40872 0.41052 0.23496 0.0
C1100 C 0.39729 0.40107 0.21726 0.0
C1101 C 0.4296 0.42821 0.27059 0.0
C1102 C 0.42194 0.4172 0.28841 0.0
C1103 C 0.41153 0.40854 0.27057 0.0
C1104 C 0.42472 0.41458 0.32554 0.0
C1105 C 0.44061 0.43807 0.28904 0.0
C1106 C 0.43536 0.41322 0.33223 0.0
C1107 C 0.4386 0.41182 0.36757 0.0
C1108 C 0.43124 0.41173 0.39693 0.0
C1109 C 0.42032 0.41261 0.39006 0.0
C1110 C 0.41707 0.414 0.35458 0.0
H1111 H 0.44382 0.44702 0.275 0.0
H1112 H 0.43853 0.43923 0.31763 0.0
H1113 H 0.4482 0.43539 0.28894 0.0
H1114 H 0.44128 0.41348 0.31012 0.0
H1115 H 0.44703 0.4111 0.37193 0.0
H1116 H 0.34169 0.21472 0.15501 0.0
H1117 H 0.34425 0.19602 0.16054 0.0
H1118 H 0.30512 0.17457 0.1643 0.0
H1119 H 0.30246 0.19329 0.15817 0.0
H1120 H 0.3365 0.17898 0.21635 0.0
H1121 H 0.31548 0.15756 0.08524 0.0
H1122 H 0.3199 0.17347 0.0952 0.0
H1123 H 0.306 0.16178 0.11354 0.0
C1124 C 0.33361 0.20602 0.1568 0.0
C1125 C 0.32186 0.20545 0.15599 0.0
C1126 C 0.3351 0.19535 0.16003 0.0
C1127 C 0.32488 0.18391 0.1624 0.0
C1128 C 0.31312 0.1833 0.16181 0.0
H1129 H 0.31812 0.11018 0.18376 0.0
H1130 H 0.31437 0.12829 0.18171 0.0
C1131 C 0.31161 0.19399 0.15848 0.0
C1132 C 0.32663 0.1727 0.16626 0.0
H1133 H 0.32116 0.1457 0.12488 0.0
C1134 C 0.33316 0.1717 0.19636 0.0
C1135 C 0.32225 0.16324 0.14011 0.0
C1136 C 0.31561 0.16406 0.10652 0.0
C1137 C 0.33537 0.16143 0.20114 0.0
C1138 C 0.33106 0.15202 0.17486 0.0
C1139 C 0.32443 0.15296 0.14496 0.0
C1140 C 0.33346 0.14117 0.17762 0.0
C1141 C 0.34214 0.16066 0.23447 0.0
C1142 C 0.34546 0.14245 0.1759 0.0
C1143 C 0.34764 0.13212 0.17704 0.0
C1144 C 0.33785 0.12036 0.17979 0.0
C1145 C 0.32586 0.11913 0.18174 0.0
C1146 C 0.32369 0.12945 0.18052 0.0
H1147 H 0.34216 0.16703 0.25601 0.0
H1148 H 0.33803 0.1512 0.24549 0.0
H1149 H 0.35177 0.16314 0.22722 0.0
H1150 H 0.35311 0.15142 0.17303 0.0
H1151 H 0.35697 0.13333 0.1753 0.0
H1152 H 0.79196 0.12362 0.18078 0.0
H1153 H 0.80683 0.14512 0.17733 0.0
H1154 H 0.83612 0.13453 0.17059 0.0
H1155 H 0.82121 0.11287 0.17361 0.0
H1156 H 0.82622 0.15817 0.22428 0.0
H1157 H 0.84262 0.15783 0.08424 0.0
H1158 H 0.82879 0.14562 0.10174 0.0
H1159 H 0.84342 0.14657 0.11407 0.0
C1160 C 0.80157 0.12584 0.17843 0.0
C1161 C 0.80542 0.11655 0.17735 0.0
C1162 C 0.81005 0.13814 0.1765 0.0
C1163 C 0.82255 0.14142 0.17326 0.0
C1164 C 0.82648 0.13218 0.17241 0.0
H1165 H 0.88661 0.21163 0.16096 0.0
H1166 H 0.87224 0.18992 0.16376 0.0
C1167 C 0.81797 0.11983 0.17434 0.0
C1168 C 0.83143 0.15454 0.17164 0.0
H1169 H 0.85281 0.17619 0.11765 0.0
C1170 C 0.83202 0.16212 0.20095 0.0
C1171 C 0.83898 0.15966 0.14116 0.0
C1172 C 0.8384 0.15205 0.10833 0.0
C1173 C 0.84007 0.17467 0.20082 0.0
C1174 C 0.84757 0.17981 0.17025 0.0
C1175 C 0.84703 0.17222 0.14101 0.0
C1176 C 0.85616 0.19302 0.16829 0.0
C1177 C 0.84065 0.18226 0.2337 0.0
C1178 C 0.85187 0.20198 0.16942 0.0
C1179 C 0.86008 0.21442 0.16788 0.0
C1180 C 0.8727 0.2181 0.16497 0.0
C1181 C 0.87694 0.20909 0.1633 0.0
C1182 C 0.86874 0.19668 0.16485 0.0
H1183 H 0.83669 0.17647 0.25795 0.0
H1184 H 0.85023 0.18891 0.23983 0.0
H1185 H 0.83535 0.1875 0.22835 0.0
H1186 H 0.84217 0.19934 0.17136 0.0
H1187 H 0.85655 0.22115 0.16903 0.0
H1188 H 0.88211 0.70647 0.17931 0.0
H1189 H 0.85967 0.69625 0.17634 0.0
H1190 H 0.8601 0.66106 0.17844 0.0
H1191 H 0.88235 0.67112 0.18202 0.0
H1192 H 0.8446 0.68012 0.12436 0.0
H1193 H 0.83596 0.65745 0.25848 0.0
H1194 H 0.85064 0.66957 0.24605 0.0
H1195 H 0.8462 0.65416 0.23072 0.0
C1196 C 0.87739 0.69655 0.17938 0.0
C1197 C 0.88399 0.6896 0.18115 0.0
C1198 C 0.86459 0.69073 0.17765 0.0
C1199 C 0.8582 0.67788 0.17784 0.0
C1200 C 0.8648 0.67096 0.17917 0.0
H1201 H 0.78116 0.6253 0.15804 0.0
H1202 H 0.80362 0.63508 0.16173 0.0
C1203 C 0.87754 0.67675 0.18099 0.0
C1204 C 0.84464 0.67166 0.17544 0.0
H1205 H 0.81896 0.65105 0.2184 0.0
C1206 C 0.83899 0.67383 0.14503 0.0
C1207 C 0.83733 0.66338 0.20234 0.0
C1208 C 0.84282 0.66107 0.23641 0.0
C1209 C 0.82624 0.66782 0.14053 0.0
C1210 C 0.81895 0.65954 0.16739 0.0
C1211 C 0.82459 0.65733 0.19775 0.0
C1212 C 0.80541 0.65354 0.16522 0.0
C1213 C 0.82068 0.67025 0.10681 0.0
C1214 C 0.79902 0.66065 0.16657 0.0
C1215 C 0.78628 0.65513 0.16461 0.0
C1216 C 0.77964 0.64233 0.16135 0.0
C1217 C 0.78604 0.63517 0.16042 0.0
C1218 C 0.79884 0.64074 0.16254 0.0
H1219 H 0.82756 0.67427 0.08493 0.0
H1220 H 0.81307 0.66169 0.09659 0.0
H1221 H 0.81696 0.67683 0.11325 0.0
H1222 H 0.80389 0.67052 0.16931 0.0
H1223 H 0.78164 0.66091 0.16557 0.0
H1224 H 0.11799 0.32124 0.3194 0.0
H1225 H 0.13687 0.31891 0.32241 0.0
H1226 H 0.158 0.35818 0.32231 0.0
H1227 H 0.13913 0.3606 0.31959 0.0
H1228 H 0.1575 0.328 0.27483 0.0
H1229 H 0.16942 0.34673 0.41432 0.0
H1230 H 0.15435 0.34184 0.39528 0.0
H1231 H 0.16655 0.35634 0.38262 0.0
C1232 C 0.12666 0.32938 0.31983 0.0
C1233 C 0.1271 0.34111 0.31949 0.0
C1234 C 0.13742 0.32803 0.32153 0.0
C1235 C 0.14878 0.33837 0.32314 0.0
C1236 C 0.14928 0.35009 0.32172 0.0
H1237 H 0.22332 0.34887 0.34585 0.0
H1238 H 0.20453 0.35124 0.33977 0.0
C1239 C 0.13852 0.35146 0.31996 0.0
C1240 C 0.16009 0.33685 0.32672 0.0
H1241 H 0.18395 0.34221 0.38374 0.0
C1242 C 0.16328 0.33108 0.29863 0.0
C1243 C 0.16757 0.34086 0.35788 0.0
C1244 C 0.16429 0.3467 0.38944 0.0
C1245 C 0.17392 0.3294 0.30059 0.0
C1246 C 0.18139 0.33339 0.3318 0.0
C1247 C 0.17819 0.33916 0.35988 0.0
C1248 C 0.19267 0.33182 0.3357 0.0
C1249 C 0.17722 0.32362 0.26892 0.0
C1250 C 0.19218 0.32009 0.33602 0.0
C1251 C 0.2029 0.3187 0.33942 0.0
C1252 C 0.21426 0.32902 0.34283 0.0
C1253 C 0.21469 0.34074 0.34321 0.0
C1254 C 0.20398 0.34212 0.33974 0.0
H1255 H 0.17234 0.32395 0.24385 0.0
H1256 H 0.18721 0.32826 0.2637 0.0
H1257 H 0.1746 0.31387 0.27514 0.0
H1258 H 0.1835 0.31201 0.33373 0.0
H1259 H 0.2023 0.30956 0.33923 0.0
H1260 H 0.64857 0.78375 0.40063 0.0
H1261 H 0.65862 0.8061 0.39934 0.0
H1262 H 0.63607 0.80565 0.30874 0.0
H1263 H 0.62548 0.78323 0.31145 0.0
H1264 H 0.67235 0.82047 0.3505 0.0
H1265 H 0.6332 0.83134 0.36763 0.0
H1266 H 0.63178 0.81611 0.37422 0.0
H1267 H 0.6312 0.82161 0.32932 0.0
C1268 C 0.64558 0.78845 0.38093 0.0
C1269 C 0.63619 0.78179 0.35633 0.0
C1270 C 0.65138 0.80122 0.38008 0.0
C1271 C 0.64806 0.80765 0.35418 0.0
C1272 C 0.63858 0.80098 0.32967 0.0
H1273 H 0.69755 0.88333 0.29502 0.0
H1274 H 0.68698 0.86094 0.29906 0.0
C1275 C 0.63256 0.78816 0.33111 0.0
C1276 C 0.65504 0.82123 0.35184 0.0
H1277 H 0.65196 0.84772 0.34864 0.0
C1278 C 0.66787 0.82642 0.35038 0.0
C1279 C 0.64927 0.82906 0.35205 0.0
C1280 C 0.63562 0.82425 0.35628 0.0
C1281 C 0.67507 0.83916 0.34926 0.0
C1282 C 0.66928 0.84697 0.34798 0.0
C1283 C 0.65644 0.84177 0.34934 0.0
C1284 C 0.67626 0.86056 0.34621 0.0
C1285 C 0.68879 0.84406 0.35066 0.0
C1286 C 0.67364 0.86787 0.37081 0.0
C1287 C 0.67941 0.88061 0.36785 0.0
C1288 C 0.68809 0.88636 0.34061 0.0
C1289 C 0.69104 0.87912 0.31664 0.0
C1290 C 0.68503 0.86632 0.31907 0.0
H1291 H 0.69153 0.83738 0.36335 0.0
H1292 H 0.69246 0.84575 0.32269 0.0
H1293 H 0.69309 0.85278 0.36608 0.0
H1294 H 0.66695 0.8637 0.39203 0.0
H1295 H 0.67696 0.88598 0.38665 0.0
H1296 H 0.20927 0.87852 0.33252 0.0
H1297 H 0.18757 0.86431 0.33336 0.0
H1298 H 0.19645 0.83379 0.32966 0.0
H1299 H 0.21833 0.84804 0.32932 0.0
H1300 H 0.17399 0.84684 0.28254 0.0
H1301 H 0.17309 0.82546 0.41597 0.0
H1302 H 0.18581 0.83945 0.40148 0.0
H1303 H 0.18405 0.82493 0.38445 0.0
C1304 C 0.20664 0.86878 0.33198 0.0
C1305 C 0.21552 0.86439 0.33099 0.0
C1306 C 0.19422 0.86068 0.33242 0.0
C1307 C 0.19039 0.848 0.33205 0.0
C1308 C 0.19922 0.84355 0.33067 0.0
H1309 H 0.11935 0.78542 0.3295 0.0
H1310 H 0.1411 0.79951 0.32967 0.0
C1311 C 0.2117 0.85168 0.33026 0.0
C1312 C 0.17713 0.83955 0.33244 0.0
H1313 H 0.15481 0.81696 0.38159 0.0
C1314 C 0.16978 0.84032 0.30424 0.0
C1315 C 0.17167 0.83109 0.36083 0.0
C1316 C 0.17902 0.83021 0.3926 0.0
C1317 C 0.15714 0.83273 0.30335 0.0
C1318 C 0.15168 0.82428 0.33174 0.0
C1319 C 0.15903 0.82349 0.35991 0.0
C1320 C 0.13841 0.81588 0.33213 0.0
C1321 C 0.14979 0.83362 0.27161 0.0
C1322 C 0.12965 0.82041 0.33393 0.0
C1323 C 0.11715 0.81235 0.33381 0.0
C1324 C 0.11324 0.79964 0.33204 0.0
C1325 C 0.12206 0.79516 0.33079 0.0
C1326 C 0.1345 0.8032 0.33093 0.0
H1327 H 0.1557 0.83844 0.2483 0.0
H1328 H 0.14303 0.82438 0.26261 0.0
H1329 H 0.1447 0.83883 0.27987 0.0
H1330 H 0.13248 0.83018 0.33552 0.0
H1331 H 0.11057 0.81606 0.33497 0.0
H1332 H 0.67921 0.88931 0.80453 0.0
H1333 H 0.68207 0.87069 0.80598 0.0
H1334 H 0.64301 0.84876 0.80954 0.0
H1335 H 0.64005 0.86737 0.80771 0.0
H1336 H 0.67408 0.85362 0.86249 0.0
H1337 H 0.65404 0.83194 0.73082 0.0
H1338 H 0.65844 0.84789 0.74028 0.0
H1339 H 0.64438 0.83626 0.75796 0.0
C1340 C 0.67121 0.88052 0.80506 0.0
C1341 C 0.6594 0.87978 0.806 0.0
C1342 C 0.67288 0.8699 0.80595 0.0
C1343 C 0.66276 0.85837 0.80757 0.0
C1344 C 0.65093 0.85757 0.80765 0.0
H1345 H 0.65352 0.78438 0.83658 0.0
H1346 H 0.65086 0.80299 0.82914 0.0
C1347 C 0.64925 0.86821 0.80674 0.0
C1348 C 0.66466 0.84726 0.81178 0.0
H1349 H 0.65902 0.81995 0.77228 0.0
C1350 C 0.67086 0.84628 0.84268 0.0
C1351 C 0.66038 0.83771 0.78595 0.0
C1352 C 0.65403 0.8385 0.7517 0.0
C1353 C 0.67273 0.83588 0.84879 0.0
C1354 C 0.66848 0.82633 0.82294 0.0
C1355 C 0.66228 0.82731 0.79201 0.0
C1356 C 0.67022 0.81516 0.82776 0.0
C1357 C 0.67898 0.83508 0.88327 0.0
C1358 C 0.682 0.81585 0.82923 0.0
C1359 C 0.68356 0.80523 0.83363 0.0
C1360 C 0.67335 0.79376 0.83636 0.0
C1361 C 0.66157 0.7931 0.83467 0.0
C1362 C 0.66002 0.80371 0.83033 0.0
H1363 H 0.67892 0.84164 0.90407 0.0
H1364 H 0.67451 0.82569 0.89473 0.0
H1365 H 0.68864 0.83729 0.87732 0.0
H1366 H 0.68999 0.82459 0.82663 0.0
H1367 H 0.69274 0.806 0.83457 0.0
H1368 H 0.18572 0.88694 0.87177 0.0
H1369 H 0.17226 0.86484 0.87373 0.0
H1370 H 0.19135 0.85946 0.78233 0.0
H1371 H 0.20521 0.88131 0.7819 0.0
H1372 H 0.15657 0.84913 0.83126 0.0
H1373 H 0.19338 0.83499 0.84812 0.0
H1374 H 0.19623 0.8508 0.85077 0.0
H1375 H 0.19573 0.84373 0.80747 0.0
C1376 C 0.18699 0.881 0.85214 0.0
C1377 C 0.19656 0.88576 0.82696 0.0
C1378 C 0.17933 0.86838 0.85329 0.0
C1379 C 0.18102 0.86038 0.82891 0.0
C1380 C 0.19017 0.86531 0.80245 0.0
H1381 H 0.12524 0.78762 0.77751 0.0
H1382 H 0.13915 0.80947 0.7798 0.0
C1383 C 0.198 0.87783 0.80192 0.0
C1384 C 0.17313 0.84693 0.8306 0.0
H1385 H 0.17397 0.81928 0.82861 0.0
C1386 C 0.16039 0.84262 0.83109 0.0
C1387 C 0.17806 0.83836 0.83137 0.0
C1388 C 0.1916 0.84223 0.83485 0.0
C1389 C 0.15247 0.83003 0.83113 0.0
C1390 C 0.1574 0.82148 0.82883 0.0
C1391 C 0.17014 0.82579 0.82958 0.0
C1392 C 0.14953 0.80805 0.82566 0.0
C1393 C 0.13891 0.82611 0.83445 0.0
C1394 C 0.15124 0.7998 0.84891 0.0
C1395 C 0.14359 0.78721 0.84662 0.0
C1396 C 0.13397 0.78271 0.82145 0.0
C1397 C 0.13251 0.7909 0.79745 0.0
C1398 C 0.14036 0.80341 0.79908 0.0
H1399 H 0.13708 0.83315 0.84872 0.0
H1400 H 0.13485 0.82495 0.807 0.0
H1401 H 0.13425 0.81733 0.84933 0.0
H1402 H 0.15832 0.80311 0.86943 0.0
H1403 H 0.14486 0.78108 0.86553 0.0
H1404 H 0.11508 0.32534 0.82243 0.0
H1405 H 0.1373 0.33468 0.8273 0.0
H1406 H 0.13597 0.2991 0.84422 0.0
H1407 H 0.11357 0.28959 0.83899 0.0
H1408 H 0.15143 0.33399 0.88578 0.0
H1409 H 0.16116 0.31368 0.76254 0.0
H1410 H 0.14651 0.31352 0.77056 0.0
H1411 H 0.15054 0.30286 0.79363 0.0
C1412 C 0.11949 0.31945 0.827 0.0
C1413 C 0.11255 0.3067 0.83019 0.0
C1414 C 0.13221 0.32483 0.82984 0.0
C1415 C 0.13832 0.3176 0.83575 0.0
C1416 C 0.13145 0.30484 0.83904 0.0
H1417 H 0.21481 0.33485 0.86071 0.0
H1418 H 0.19256 0.32515 0.85672 0.0
C1419 C 0.11866 0.29942 0.83621 0.0
C1420 C 0.15185 0.32355 0.83922 0.0
H1421 H 0.178 0.32551 0.80012 0.0
C1422 C 0.15725 0.33216 0.86703 0.0
C1423 C 0.15942 0.32116 0.81469 0.0
C1424 C 0.15416 0.31239 0.78345 0.0
C1425 C 0.17001 0.3383 0.87131 0.0
C1426 C 0.17759 0.33595 0.84668 0.0
C1427 C 0.17218 0.32732 0.81893 0.0
C1428 C 0.19114 0.34209 0.84973 0.0
C1429 C 0.17524 0.34705 0.90264 0.0
C1430 C 0.1978 0.35489 0.84695 0.0
C1431 C 0.2106 0.36051 0.84935 0.0
C1432 C 0.21694 0.3534 0.85432 0.0
C1433 C 0.21022 0.34061 0.85695 0.0
C1434 C 0.19748 0.33502 0.85461 0.0
H1435 H 0.16829 0.3455 0.92393 0.0
H1436 H 0.1831 0.34614 0.915 0.0
H1437 H 0.17855 0.35658 0.89271 0.0
H1438 H 0.19311 0.36052 0.84248 0.0
H1439 H 0.21552 0.37037 0.84698 0.0
H1440 H 0.79463 0.68717 0.64704 0.0
H1441 H 0.8141 0.68587 0.64737 0.0
H1442 H 0.79472 0.64663 0.65863 0.0
H1443 H 0.77526 0.64783 0.65794 0.0
H1444 H 0.82284 0.6763 0.70341 0.0
H1445 H 0.81836 0.65101 0.57509 0.0
H1446 H 0.80893 0.65856 0.58557 0.0
H1447 H 0.80548 0.64383 0.60474 0.0
C1448 C 0.79453 0.67826 0.64917 0.0
C1449 C 0.78344 0.6676 0.65237 0.0
C1450 C 0.80564 0.67754 0.6494 0.0
C1451 C 0.80582 0.66615 0.65254 0.0
C1452 C 0.79476 0.65549 0.65544 0.0
H1453 H 0.85918 0.63866 0.68048 0.0
H1454 H 0.84076 0.64175 0.6746 0.0
C1455 C 0.78366 0.6562 0.65524 0.0
C1456 C 0.81757 0.66541 0.65482 0.0
H1457 H 0.83416 0.6523 0.61542 0.0
C1458 C 0.8254 0.67117 0.68399 0.0
C1459 C 0.82083 0.65868 0.62946 0.0
C1460 C 0.81302 0.65276 0.59675 0.0
C1461 C 0.83624 0.67004 0.68915 0.0
C1462 C 0.83939 0.66313 0.66413 0.0
C1463 C 0.83167 0.65754 0.63463 0.0
C1464 C 0.85057 0.66141 0.66837 0.0
C1465 C 0.84404 0.67592 0.72193 0.0
C1466 C 0.86216 0.67144 0.66662 0.0
C1467 C 0.87269 0.66971 0.67007 0.0
C1468 C 0.87178 0.6579 0.67509 0.0
C1469 C 0.86015 0.64786 0.67675 0.0
C1470 C 0.84964 0.64961 0.67332 0.0
H1471 H 0.83895 0.67842 0.7427 0.0
H1472 H 0.84742 0.66971 0.73443 0.0
H1473 H 0.85208 0.68442 0.71355 0.0
H1474 H 0.86306 0.68059 0.66217 0.0
H1475 H 0.88153 0.67761 0.66845 0.0
H1476 H 0.37895 0.21795 0.66157 0.0
H1477 H 0.36992 0.1955 0.66611 0.0
H1478 H 0.33424 0.19325 0.64475 0.0
H1479 H 0.34313 0.21546 0.63981 0.0
H1480 H 0.35158 0.18026 0.7145 0.0
H1481 H 0.33624 0.16889 0.57225 0.0
H1482 H 0.34721 0.18402 0.58609 0.0
H1483 H 0.33114 0.17913 0.59306 0.0
C1484 C 0.36921 0.21264 0.65751 0.0
C1485 C 0.36177 0.21847 0.65016 0.0
C1486 C 0.36406 0.19984 0.66017 0.0
C1487 C 0.35143 0.1927 0.65519 0.0
C1488 C 0.34403 0.19854 0.6479 0.0
H1489 H 0.29917 0.11597 0.67021 0.0
H1490 H 0.30936 0.13839 0.66468 0.0
C1491 C 0.34914 0.21126 0.64529 0.0
C1492 C 0.3458 0.17918 0.65902 0.0
H1493 H 0.32801 0.15252 0.61477 0.0
C1494 C 0.34653 0.17418 0.69261 0.0
C1495 C 0.33914 0.17127 0.63048 0.0
C1496 C 0.33846 0.17608 0.59333 0.0
C1497 C 0.34053 0.16149 0.69872 0.0
C1498 C 0.33376 0.1536 0.67029 0.0
C1499 C 0.33312 0.15859 0.6366 0.0
C1500 C 0.32753 0.1401 0.67465 0.0
C1501 C 0.34121 0.15666 0.73582 0.0
C1502 C 0.33437 0.13366 0.68179 0.0
C1503 C 0.3286 0.12092 0.68494 0.0
C1504 C 0.31586 0.11434 0.68083 0.0
C1505 C 0.30899 0.12079 0.67367 0.0
C1506 C 0.3148 0.13358 0.67044 0.0
H1507 H 0.34398 0.16394 0.75678 0.0
H1508 H 0.33227 0.14908 0.74362 0.0
H1509 H 0.3481 0.15304 0.73554 0.0
H1510 H 0.34422 0.13847 0.68442 0.0
H1511 H 0.33417 0.11622 0.69027 0.0
H1512 H 0.7796 0.14987 0.6797 0.0
H1513 H 0.8014 0.1644 0.67799 0.0
H1514 H 0.81094 0.13433 0.6825 0.0
H1515 H 0.78934 0.11984 0.68363 0.0
H1516 H 0.82002 0.16795 0.72768 0.0
H1517 H 0.82996 0.15338 0.59451 0.0
H1518 H 0.81458 0.14907 0.61006 0.0
H1519 H 0.82293 0.14101 0.62603 0.0
C1520 C 0.78636 0.14638 0.68024 0.0
C1521 C 0.78275 0.13372 0.68153 0.0
C1522 C 0.79879 0.15468 0.67927 0.0
C1523 C 0.80778 0.15043 0.67941 0.0
C1524 C 0.80417 0.1378 0.68146 0.0
H1525 H 0.88749 0.18458 0.68008 0.0
H1526 H 0.86568 0.17011 0.68284 0.0
C1527 C 0.7918 0.12954 0.68234 0.0
C1528 C 0.82096 0.15914 0.67808 0.0
H1529 H 0.84712 0.16658 0.62959 0.0
C1530 C 0.82593 0.16772 0.70612 0.0
C1531 C 0.82867 0.15877 0.64998 0.0
C1532 C 0.82376 0.15014 0.61825 0.0
C1533 C 0.83846 0.17579 0.70718 0.0
C1534 C 0.84617 0.17537 0.67919 0.0
C1535 C 0.8412 0.16681 0.65114 0.0
C1536 C 0.85934 0.18405 0.67787 0.0
C1537 C 0.84339 0.18457 0.73856 0.0
C1538 C 0.86295 0.19661 0.67365 0.0
C1539 C 0.87533 0.20484 0.67195 0.0
C1540 C 0.88436 0.20067 0.67435 0.0
C1541 C 0.88074 0.18806 0.67828 0.0
C1542 C 0.86831 0.1798 0.67984 0.0
H1543 H 0.83705 0.18167 0.762 0.0
H1544 H 0.85241 0.18536 0.74747 0.0
H1545 H 0.84464 0.19377 0.72996 0.0
H1546 H 0.85618 0.20006 0.67138 0.0
H1547 H 0.87781 0.21449 0.66877 0.0
H1548 H 0.03123 0.47525 0.50537 0.0
H1549 H 0.02693 0.49302 0.49959 0.0
H1550 H 0.98876 0.46894 0.48214 0.0
H1551 H 0.99293 0.45118 0.4882 0.0
H1552 H 0.01589 0.49955 0.44014 0.0
H1553 H 0.98868 0.49109 0.56644 0.0
H1554 H 0.99847 0.48385 0.55728 0.0
H1555 H 0.98372 0.47826 0.53607 0.0
C1556 C 0.02192 0.47376 0.50037 0.0
C1557 C 0.0124 0.46184 0.49747 0.0
C1558 C 0.01949 0.4839 0.49702 0.0
C1559 C 0.00751 0.48225 0.49096 0.0
C1560 C 0.99803 0.47037 0.48748 0.0
H1561 H 0.97422 0.53209 0.47338 0.0
H1562 H 0.97815 0.51402 0.4724 0.0
C1563 C 0.00045 0.46025 0.49081 0.0
C1564 C 0.00488 0.49295 0.48804 0.0
H1565 H 0.98906 0.50679 0.52799 0.0
C1566 C 0.01006 0.50118 0.45936 0.0
C1567 C 0.99722 0.49497 0.51312 0.0
C1568 C 0.99177 0.48665 0.54516 0.0
C1569 C 0.00766 0.51134 0.45484 0.0
C1570 C 1.00005 0.5134 0.48006 0.0
C1571 C 0.99483 0.50514 0.50862 0.0
C1572 C 0.99775 0.52433 0.47822 0.0
C1573 C 0.01312 0.51967 0.42284 0.0
C1574 C 0.00747 0.53606 0.48189 0.0
C1575 C 0.00526 0.54636 0.48242 0.0
C1576 C 0.99327 0.54509 0.47956 0.0
C1577 C 0.98355 0.53333 0.47554 0.0
C1578 C 0.98578 0.52302 0.475 0.0
H1579 H 0.01575 0.51503 0.401 0.0
H1580 H 0.00662 0.52291 0.41158 0.0
H1581 H 0.02148 0.5278 0.43166 0.0
H1582 H 0.01675 0.53724 0.48519 0.0
H1583 H 0.01293 0.55529 0.48574 0.0
H1584 H 0.48588 0.44662 0.49503 0.0
H1585 H 0.50022 0.46851 0.49417 0.0
H1586 H 0.46993 0.47767 0.49777 0.0
H1587 H 0.45564 0.45597 0.49902 0.0
H1588 H 0.50177 0.48664 0.44373 0.0
H1589 H 0.49162 0.49757 0.58174 0.0
H1590 H 0.48718 0.48207 0.56667 0.0
H1591 H 0.47834 0.48995 0.55373 0.0
C1592 C 0.48231 0.45332 0.49573 0.0
C1593 C 0.46965 0.44958 0.49731 0.0
C1594 C 0.49049 0.46579 0.49523 0.0
C1595 C 0.48613 0.4747 0.49656 0.0
C1596 C 0.4735 0.47096 0.49755 0.0
H1597 H 0.51852 0.55426 0.4918 0.0
H1598 H 0.50455 0.53228 0.49279 0.0
C1599 C 0.46534 0.45854 0.49804 0.0
C1600 C 0.49472 0.48792 0.4961 0.0
H1601 H 0.5035 0.51449 0.54397 0.0
C1602 C 0.50223 0.49272 0.46573 0.0
C1603 C 0.49524 0.49583 0.5248 0.0
C1604 C 0.48775 0.4911 0.55874 0.0
C1605 C 0.51006 0.50529 0.46294 0.0
C1606 C 0.51053 0.51321 0.49157 0.0
C1607 C 0.50306 0.5084 0.52199 0.0
C1608 C 0.51893 0.52648 0.49082 0.0
C1609 C 0.51756 0.51003 0.42903 0.0
C1610 C 0.5316 0.53047 0.48995 0.0
C1611 C 0.53956 0.54295 0.48939 0.0
C1612 C 0.53499 0.55172 0.48992 0.0
C1613 C 0.52229 0.54772 0.49126 0.0
C1614 C 0.51432 0.53519 0.49184 0.0
H1615 H 0.51383 0.50348 0.40616 0.0
H1616 H 0.51795 0.51896 0.42079 0.0
H1617 H 0.52704 0.5114 0.43428 0.0
H1618 H 0.53536 0.52391 0.48992 0.0
H1619 H 0.5493 0.54574 0.48857 0.0
H1620 H 0.55177 0.03954 0.50918 0.0
H1621 H 0.52944 0.03028 0.50151 0.0
H1622 H 0.52793 0.99428 0.50557 0.0
H1623 H 0.55005 0.00336 0.5133 0.0
H1624 H 0.51509 0.01344 0.44507 0.0
H1625 H 0.50268 0.99295 0.58207 0.0
H1626 H 0.51764 0.00498 0.57155 0.0
H1627 H 0.51361 0.98944 0.55856 0.0
C1628 C 0.54665 0.02966 0.5086 0.0
C1629 C 0.55266 0.02218 0.51199 0.0
C1630 C 0.53392 0.02439 0.50418 0.0
C1631 C 0.52703 0.01159 0.50351 0.0
C1632 C 0.53304 0.00416 0.50669 0.0
H1633 H 0.44976 0.96069 0.48115 0.0
H1634 H 0.47213 0.96998 0.48714 0.0
C1635 C 0.54571 0.00938 0.51092 0.0
C1636 C 0.51358 0.0059 0.4985 0.0
H1637 H 0.48665 0.98682 0.53882 0.0
C1638 C 0.50885 0.00769 0.46563 0.0
C1639 C 0.5055 0.9983 0.52525 0.0
C1640 C 0.51007 0.99636 0.56149 0.0
C1641 C 0.49623 0.00191 0.45852 0.0
C1642 C 0.48812 0.99434 0.48534 0.0
C1643 C 0.49288 0.99256 0.51822 0.0
C1644 C 0.47465 0.98861 0.48043 0.0
C1645 C 0.49173 0.00374 0.42204 0.0
C1646 C 0.46867 0.99598 0.475 0.0
C1647 C 0.45597 0.99072 0.47148 0.0
C1648 C 0.44895 0.97795 0.47365 0.0
C1649 C 0.45493 0.97054 0.47918 0.0
C1650 C 0.46769 0.97584 0.48267 0.0
H1651 H 0.49906 0.00663 0.40131 0.0
H1652 H 0.48387 0.99524 0.41258 0.0
H1653 H 0.48867 0.01105 0.42421 0.0
H1654 H 0.4738 0.00586 0.47405 0.0
H1655 H 0.45165 0.99671 0.46751 0.0
H1656 H 0.45212 0.99478 0.98946 0.0
H1657 H 0.47038 0.99166 0.99814 0.0
H1658 H 0.49299 0.03057 0.9893 0.0
H1659 H 0.47469 0.0338 0.98091 0.0
H1660 H 0.49029 0.99819 0.95057 0.0
H1661 H 0.50469 0.02125 0.08408 0.0
H1662 H 0.48957 0.01668 0.06577 0.0
H1663 H 0.50224 0.03022 0.04927 0.0
C1664 C 0.46097 0.00269 0.98946 0.0
C1665 C 0.46199 0.01455 0.9846 0.0
C1666 C 0.47139 0.00088 0.99442 0.0
C1667 C 0.483 0.01089 0.99482 0.0
C1668 C 0.48408 0.02275 0.98972 0.0
H1669 H 0.55613 0.01673 0.01506 0.0
H1670 H 0.53816 0.02057 0.00953 0.0
C1671 C 0.47364 0.02457 0.98472 0.0
C1672 C 0.49397 0.0088 0.99959 0.0
H1673 H 0.51807 0.01451 0.05601 0.0
C1674 C 0.49635 0.00173 0.97365 0.0
C1675 C 0.50185 0.01345 0.02973 0.0
C1676 C 0.49945 0.02074 0.05902 0.0
C1677 C 0.50652 0.99929 0.97679 0.0
C1678 C 0.51435 0.00386 0.00706 0.0
C1679 C 0.51201 0.01099 0.03292 0.0
C1680 C 0.52513 0.00146 0.01205 0.0
C1681 C 0.50892 0.99205 0.94731 0.0
C1682 C 0.52372 0.98945 0.01611 0.0
C1683 C 0.53396 0.98721 0.01922 0.0
C1684 C 0.54578 0.99697 0.01853 0.0
C1685 C 0.54714 0.00901 0.01556 0.0
C1686 C 0.5369 0.01124 0.01243 0.0
H1687 H 0.50392 0.99188 0.92199 0.0
H1688 H 0.51883 0.99593 0.94116 0.0
H1689 H 0.5058 0.98247 0.95649 0.0
H1690 H 0.51469 0.9818 0.0166 0.0
H1691 H 0.53264 0.97785 0.02167 0.0
H1692 H 0.00458 0.55165 0.99398 0.0
H1693 H 0.99515 0.52937 0.99826 0.0
H1694 H 0.03082 0.53025 0.00399 0.0
H1695 H 0.04039 0.55271 0.00014 0.0
H1696 H 0.99772 0.51267 0.95207 0.0
H1697 H 0.01298 0.50916 0.09144 0.0
H1698 H 0.01375 0.52326 0.07342 0.0
H1699 H 0.02504 0.51826 0.06091 0.0
C1700 C 0.01045 0.54713 0.99627 0.0
C1701 C 0.02325 0.55395 0.99686 0.0
C1702 C 0.00503 0.53439 0.99867 0.0
C1703 C 0.01226 0.52815 0.00188 0.0
C1704 C 0.02506 0.5349 0.00219 0.0
H1705 H 0.99696 0.45212 0.01463 0.0
H1706 H 0.00589 0.47439 0.01198 0.0
C1707 C 0.03052 0.54771 0.9998 0.0
C1708 C 0.00631 0.51459 0.00416 0.0
H1709 H 0.00282 0.49064 0.05866 0.0
C1710 C 0.9988 0.50784 0.97541 0.0
C1711 C 0.00769 0.50832 0.03472 0.0
C1712 C 0.01521 0.51509 0.06706 0.0
C1713 C 0.99283 0.49498 0.97604 0.0
C1714 C 0.99425 0.48872 0.00654 0.0
C1715 C 0.00172 0.49547 0.03535 0.0
C1716 C 0.98855 0.47514 0.0084 0.0
C1717 C 0.98534 0.48821 0.94364 0.0
C1718 C 0.97579 0.46813 0.00765 0.0
C1719 C 0.97061 0.45531 0.00909 0.0
C1720 C 0.97814 0.44934 0.01149 0.0
C1721 C 0.9909 0.45642 0.01272 0.0
C1722 C 0.99603 0.46917 0.01126 0.0
H1723 H 0.98745 0.49419 0.9194 0.0
H1724 H 0.98696 0.48016 0.93699 0.0
H1725 H 0.9755 0.48487 0.94992 0.0
H1726 H 0.96984 0.47258 0.00611 0.0
H1727 H 0.96076 0.4501 0.00826 0.0
H1728 H 0.45649 0.45489 0.00404 0.0
H1729 H 0.47812 0.46929 0.00305 0.0
H1730 H 0.46879 0.49954 0.00309 0.0
H1731 H 0.44696 0.48508 0.0036 0.0
H1732 H 0.48646 0.50169 0.95144 0.0
H1733 H 0.49883 0.4904 0.08602 0.0
H1734 H 0.49111 0.47727 0.05748 0.0
H1735 H 0.48319 0.48585 0.07252 0.0
C1736 C 0.45901 0.46461 0.00407 0.0
C1737 C 0.45 0.46885 0.00407 0.0
C1738 C 0.4714 0.47283 0.00372 0.0
C1739 C 0.47508 0.48549 0.00365 0.0
C1740 C 0.46613 0.48979 0.00343 0.0
H1741 H 0.54605 0.54874 0.9946 0.0
H1742 H 0.52427 0.53478 0.9969 0.0
C1743 C 0.45368 0.48154 0.00377 0.0
C1744 C 0.48828 0.49414 0.00245 0.0
H1745 H 0.51536 0.50238 0.04698 0.0
C1746 C 0.49276 0.50193 0.97246 0.0
C1747 C 0.49651 0.49437 0.02983 0.0
C1748 C 0.49217 0.48661 0.06346 0.0
C1749 C 0.50529 0.50975 0.96871 0.0
C1750 C 0.51352 0.50991 0.99595 0.0
C1751 C 0.50904 0.50217 0.02603 0.0
C1752 C 0.52678 0.5183 0.99423 0.0
C1753 C 0.50965 0.51758 0.93523 0.0
C1754 C 0.53546 0.51367 0.99276 0.0
C1755 C 0.54797 0.52165 0.99154 0.0
C1756 C 0.55199 0.53439 0.99212 0.0
C1757 C 0.54326 0.53897 0.99392 0.0
C1758 C 0.53079 0.53101 0.99505 0.0
H1759 H 0.50282 0.51413 0.913 0.0
H1760 H 0.51121 0.52705 0.94179 0.0
H1761 H 0.51841 0.51795 0.92543 0.0
H1762 H 0.53253 0.50388 0.99235 0.0
H1763 H 0.55448 0.51786 0.99029 0.0
H1764 H 0.44324 0.06306 0.98777 0.0
H1765 H 0.4383 0.07926 0.01059 0.0
H1766 H 0.39988 0.05538 0.99638 0.0
H1767 H 0.40475 0.03951 0.97232 0.0
H1768 H 0.40474 0.07856 0.98196 0.0
H1769 H 0.42634 0.07632 0.11299 0.0
H1770 H 0.43617 0.08118 0.07419 0.0
H1771 H 0.42432 0.06572 0.07669 0.0
C1772 C 0.43377 0.06142 0.98871 0.0
C1773 C 0.42437 0.04996 0.97879 0.0
C1774 C 0.43096 0.07063 0.00204 0.0
C1775 C 0.41871 0.06841 0.00617 0.0
C1776 C 0.4094 0.05731 0.99366 0.0
H1777 H 0.3742 0.07509 0.15932 0.0
H1778 H 0.38995 0.07317 0.12342 0.0
C1779 C 0.4122 0.0482 0.97997 0.0
C1780 C 0.41522 0.07687 0.02659 0.0
H1781 H 0.41399 0.08638 0.11277 0.0
C1782 C 0.40694 0.08052 0.01041 0.0
C1783 C 0.41813 0.07941 0.06374 0.0
C1784 C 0.42665 0.07541 0.08313 0.0
C1785 C 0.40066 0.0856 0.03096 0.0
C1786 C 0.40307 0.08749 0.06854 0.0
C1787 C 0.41217 0.0849 0.08399 0.0
C1788 C 0.39481 0.08993 0.09322 0.0
C1789 C 0.39076 0.08787 0.01283 0.0
C1790 C 0.39258 0.10022 0.08917 0.0
C1791 C 0.38339 0.10125 0.10946 0.0
C1792 C 0.37647 0.09209 0.13446 0.0
C1793 C 0.37934 0.08228 0.1402 0.0
C1794 C 0.38837 0.08118 0.11971 0.0
H1795 H 0.38872 0.08401 0.98502 0.0
H1796 H 0.38219 0.08379 0.02886 0.0
H1797 H 0.39373 0.09788 0.0109 0.0
H1798 H 0.39765 0.10724 0.06955 0.0
H1799 H 0.38143 0.10897 0.1047 0.0
H1800 H 0.87715 0.28079 0.13847 0.0
H1801 H 0.87809 0.30044 0.11854 0.0
H1802 H 0.91681 0.31813 0.14063 0.0
H1803 H 0.91588 0.2988 0.16132 0.0
H1804 H 0.90582 0.33239 0.16033 0.0
H1805 H 0.89217 0.31446 0.02027 0.0
H1806 H 0.88156 0.30682 0.05606 0.0
H1807 H 0.89588 0.306 0.05417 0.0
C1808 C 0.8858 0.28894 0.13963 0.0
C1809 C 0.89646 0.28824 0.15113 0.0
C1810 C 0.88634 0.30013 0.12799 0.0
C1811 C 0.89757 0.31072 0.12743 0.0
C1812 C 0.90805 0.3101 0.14073 0.0
H1813 H 0.94015 0.36806 0.00278 0.0
H1814 H 0.92511 0.34892 0.02816 0.0
C1815 C 0.90751 0.299 0.15247 0.0
C1816 C 0.89892 0.32236 0.11087 0.0
H1817 H 0.90044 0.33559 0.0284 0.0
C1818 C 0.90438 0.33311 0.13163 0.0
C1819 C 0.897 0.32325 0.07341 0.0
C1820 C 0.8914 0.31206 0.04947 0.0
C1821 C 0.90899 0.34473 0.11548 0.0
C1822 C 0.90779 0.34562 0.0776 0.0
C1823 C 0.90132 0.33488 0.05741 0.0
C1824 C 0.9153 0.35712 0.05771 0.0
C1825 C 0.91606 0.35588 0.13865 0.0
C1826 C 0.91449 0.3681 0.06451 0.0
C1827 C 0.92323 0.37919 0.05008 0.0
C1828 C 0.93281 0.37938 0.02856 0.0
C1829 C 0.93295 0.36824 0.01954 0.0
C1830 C 0.92431 0.35726 0.03396 0.0
H1831 H 0.9175 0.35343 0.16661 0.0
H1832 H 0.92513 0.36164 0.12646 0.0
H1833 H 0.91096 0.36147 0.1404 0.0
H1834 H 0.90745 0.36818 0.08214 0.0
H1835 H 0.92288 0.38764 0.05737 0.0
H1836 H 0.72472 0.59842 0.05772 0.0
H1837 H 0.70555 0.58571 0.02628 0.0
H1838 H 0.68702 0.57491 0.12873 0.0
H1839 H 0.70609 0.58764 0.16037 0.0
H1840 H 0.67988 0.55617 0.05644 0.0
H1841 H 0.67972 0.60185 0.04896 0.0
H1842 H 0.69355 0.60057 0.03902 0.0
H1843 H 0.68785 0.59836 0.08443 0.0
C1844 C 0.7167 0.59291 0.07362 0.0
C1845 C 0.71687 0.59412 0.1115 0.0
C1846 C 0.70575 0.58567 0.05559 0.0
C1847 C 0.6949 0.57944 0.07525 0.0
C1848 C 0.69533 0.5796 0.11315 0.0
H1849 H 0.61695 0.54497 0.0402 0.0
H1850 H 0.63781 0.54877 0.05619 0.0
C1851 C 0.70623 0.5869 0.13117 0.0
C1852 C 0.68292 0.57496 0.05687 0.0
H1853 H 0.66238 0.58497 0.02815 0.0
C1854 C 0.67605 0.56243 0.04981 0.0
C1855 C 0.67802 0.58319 0.0483 0.0
C1856 C 0.68508 0.59676 0.05553 0.0
C1857 C 0.66428 0.55789 0.03442 0.0
C1858 C 0.65919 0.56609 0.02696 0.0
C1859 C 0.66624 0.57865 0.03363 0.0
C1860 C 0.64646 0.56203 0.01357 0.0
C1861 C 0.65752 0.54441 0.02599 0.0
C1862 C 0.64428 0.56813 0.98422 0.0
C1863 C 0.63241 0.56622 0.97579 0.0
C1864 C 0.62244 0.558 0.99609 0.0
C1865 C 0.62448 0.55124 0.02384 0.0
C1866 C 0.63642 0.55337 0.03284 0.0
H1867 H 0.66396 0.54037 0.02116 0.0
H1868 H 0.65173 0.53959 0.04946 0.0
H1869 H 0.65156 0.54269 0.00184 0.0
H1870 H 0.65183 0.57484 0.96887 0.0
H1871 H 0.63108 0.57153 0.95421 0.0
H1872 H 0.06176 0.4454 0.48171 0.0
H1873 H 0.07773 0.44061 0.45642 0.0
H1874 H 0.05763 0.40312 0.49112 0.0
H1875 H 0.04188 0.40786 0.51698 0.0
H1876 H 0.08291 0.41168 0.49618 0.0
H1877 H 0.0686 0.42137 0.36127 0.0
H1878 H 0.07435 0.43368 0.3936 0.0
H1879 H 0.06007 0.42051 0.40182 0.0
C1880 C 0.06095 0.43623 0.48483 0.0
C1881 C 0.05049 0.42694 0.50078 0.0
C1882 C 0.07002 0.4335 0.47018 0.0
C1883 C 0.0687 0.42145 0.47117 0.0
C1884 C 0.0588 0.41246 0.4899 0.0
H1885 H 0.07282 0.36886 0.34372 0.0
H1886 H 0.07006 0.38539 0.37292 0.0
C1887 C 0.04978 0.41518 0.5046 0.0
C1888 C 0.07656 0.41763 0.4493 0.0
H1889 H 0.08064 0.41093 0.36211 0.0
C1890 C 0.08272 0.41177 0.46684 0.0
C1891 C 0.07618 0.41773 0.41099 0.0
C1892 C 0.06941 0.42358 0.39063 0.0
C1893 C 0.08775 0.40524 0.4472 0.0
C1894 C 0.08674 0.40476 0.40902 0.0
C1895 C 0.08141 0.41139 0.39138 0.0
C1896 C 0.0891 0.39576 0.38766 0.0
C1897 C 0.0932 0.3981 0.46755 0.0
C1898 C 0.1008 0.39631 0.38529 0.0
C1899 C 0.10241 0.38681 0.36858 0.0
C1900 C 0.09232 0.37668 0.35405 0.0
C1901 C 0.08075 0.37652 0.3548 0.0
C1902 C 0.07917 0.38598 0.37142 0.0
H1903 H 0.09195 0.3983 0.49728 0.0
H1904 H 0.08898 0.38841 0.45844 0.0
H1905 H 0.10314 0.40205 0.4619 0.0
H1906 H 0.1086 0.40389 0.39722 0.0
H1907 H 0.11143 0.38717 0.36828 0.0
H1908 H 0.59742 0.70152 0.32346 0.0
H1909 H 0.58217 0.68192 0.34534 0.0
H1910 H 0.56585 0.70028 0.40993 0.0
H1911 H 0.58146 0.72014 0.38855 0.0
H1912 H 0.5713 0.68585 0.45059 0.0
H1913 H 0.5472 0.65858 0.33231 0.0
H1914 H 0.56325 0.66522 0.32321 0.0
H1915 H 0.55586 0.67503 0.32997 0.0
C1916 C 0.59036 0.7014 0.34144 0.0
C1917 C 0.59068 0.71237 0.35446 0.0
C1918 C 0.58153 0.69014 0.35371 0.0
C1919 C 0.57271 0.68955 0.37901 0.0
C1920 C 0.57249 0.70049 0.39021 0.0
H1921 H 0.53785 0.61305 0.45465 0.0
H1922 H 0.538 0.63246 0.43561 0.0
C1923 C 0.58138 0.71183 0.37787 0.0
C1924 C 0.56535 0.67777 0.39785 0.0
H1925 H 0.55127 0.64702 0.38157 0.0
C1926 C 0.56657 0.67738 0.43558 0.0
C1927 C 0.55887 0.66667 0.37871 0.0
C1928 C 0.55611 0.66644 0.33886 0.0
C1929 C 0.56272 0.66621 0.45391 0.0
C1930 C 0.55781 0.65516 0.43388 0.0
C1931 C 0.55531 0.65549 0.3969 0.0
C1932 C 0.55701 0.64358 0.44934 0.0
C1933 C 0.5645 0.6664 0.49435 0.0
C1934 C 0.56761 0.64338 0.46341 0.0
C1935 C 0.56754 0.6324 0.47424 0.0
C1936 C 0.5569 0.6213 0.47094 0.0
C1937 C 0.54617 0.62148 0.4577 0.0
C1938 C 0.54625 0.63254 0.44677 0.0
H1939 H 0.56348 0.6742 0.50685 0.0
H1940 H 0.55787 0.65776 0.50714 0.0
H1941 H 0.5739 0.66766 0.50029 0.0
H1942 H 0.57612 0.65168 0.46469 0.0
H1943 H 0.57597 0.63257 0.48415 0.0
H1944 H 0.28001 0.87132 0.35916 0.0
H1945 H 0.30023 0.87347 0.37776 0.0
H1946 H 0.31586 0.91216 0.35478 0.0
H1947 H 0.29597 0.91005 0.33557 0.0
H1948 H 0.33065 0.90181 0.33253 0.0
H1949 H 0.31525 0.8888 0.4748 0.0
H1950 H 0.30737 0.87784 0.43986 0.0
H1951 H 0.306 0.89189 0.44213 0.0
C1952 C 0.28782 0.88023 0.3576 0.0
C1953 C 0.28638 0.89054 0.3462 0.0
C1954 C 0.29933 0.88146 0.36846 0.0
C1955 C 0.30953 0.89302 0.36821 0.0
C1956 C 0.30814 0.90315 0.35525 0.0
H1957 H 0.36811 0.93866 0.48438 0.0
H1958 H 0.34886 0.9229 0.46174 0.0
C1959 C 0.29673 0.90193 0.34437 0.0
C1960 C 0.32157 0.89505 0.38329 0.0
H1961 H 0.33626 0.89797 0.46402 0.0
C1962 C 0.33191 0.9007 0.36113 0.0
C1963 C 0.32315 0.89357 0.42063 0.0
C1964 C 0.3124 0.88776 0.44594 0.0
C1965 C 0.34377 0.90589 0.37572 0.0
C1966 C 0.34533 0.90513 0.41347 0.0
C1967 C 0.33503 0.89851 0.43511 0.0
C1968 C 0.35703 0.91316 0.43171 0.0
C1969 C 0.35442 0.91308 0.35106 0.0
C1970 C 0.36806 0.91266 0.4237 0.0
C1971 C 0.37921 0.9218 0.43657 0.0
C1972 C 0.37941 0.9315 0.4577 0.0
C1973 C 0.36828 0.93138 0.46789 0.0
C1974 C 0.35723 0.92233 0.45504 0.0
H1975 H 0.35142 0.9141 0.32339 0.0
H1976 H 0.36005 0.92235 0.36233 0.0
H1977 H 0.36029 0.9083 0.34878 0.0
H1978 H 0.36811 0.90552 0.40633 0.0
H1979 H 0.38766 0.92165 0.42839 0.0
H1980 H 0.56001 0.94739 0.98461 0.0
H1981 H 0.56288 0.9301 0.9602 0.0
H1982 H 0.60135 0.94905 0.9853 0.0
H1983 H 0.59853 0.96611 0.01006 0.0
H1984 H 0.57662 0.93184 0.90214 0.0
H1985 H 0.59413 0.91486 0.01528 0.0
H1986 H 0.58629 0.92425 0.02239 0.0
H1987 H 0.60247 0.93119 0.01315 0.0
C1988 C 0.569 0.94768 0.9858 0.0
C1989 C 0.57906 0.9581 0.99911 0.0
C1990 C 0.57062 0.93782 0.97184 0.0
C1991 C 0.58229 0.93819 0.97141 0.0
C1992 C 0.5922 0.94838 0.98623 0.0
H1993 H 0.62709 0.92951 0.82603 0.0
H1994 H 0.61079 0.93219 0.85651 0.0
C1995 C 0.5906 0.9582 8e-05 0.0
C1996 C 0.58466 0.92898 0.95107 0.0
H1997 H 0.60236 0.91387 0.95511 0.0
C1998 C 0.58192 0.92758 0.91394 0.0
C1999 C 0.5913 0.92313 0.96645 0.0
C2000 C 0.59358 0.92333 0.00662 0.0
C2001 C 0.58682 0.92166 0.8912 0.0
C2002 C 0.59483 0.91728 0.90593 0.0
C2003 C 0.59642 0.91744 0.94361 0.0
C2004 C 0.60318 0.91447 0.88281 0.0
C2005 C 0.58386 0.92071 0.85135 0.0
C2006 C 0.60435 0.9036 0.88733 0.0
C2007 C 0.61378 0.90208 0.87001 0.0
C2008 C 0.62225 0.91149 0.84832 0.0
C2009 C 0.62069 0.92209 0.8425 0.0
C2010 C 0.61128 0.92358 0.85968 0.0
H2011 H 0.57445 0.9197 0.84683 0.0
H2012 H 0.59027 0.92925 0.83764 0.0
H2013 H 0.58465 0.91284 0.83863 0.0
H2014 H 0.59827 0.89651 0.90534 0.0
H2015 H 0.61481 0.89383 0.87508 0.0
H2016 H 0.08766 0.70317 0.84411 0.0
H2017 H 0.08658 0.68376 0.86453 0.0
H2018 H 0.12591 0.69992 0.8716 0.0
H2019 H 0.12706 0.71968 0.85161 0.0
H2020 H 0.09618 0.66864 0.8376 0.0
H2021 H 0.11504 0.6868 0.97412 0.0
H2022 H 0.1103 0.69534 0.94319 0.0
H2023 H 0.1242 0.69408 0.93517 0.0
C2024 C 0.09611 0.70262 0.84969 0.0
C2025 C 0.10744 0.71299 0.84656 0.0
C2026 C 0.09548 0.69149 0.86126 0.0
C2027 C 0.10615 0.69041 0.87 0.0
C2028 C 0.11756 0.7006 0.86553 0.0
H2029 H 0.0791 0.61341 0.94007 0.0
H2030 H 0.09487 0.63235 0.91355 0.0
C2031 C 0.1182 0.71184 0.85391 0.0
C2032 C 0.10489 0.67869 0.88565 0.0
H2033 H 0.10514 0.66556 0.96706 0.0
C2034 C 0.09842 0.66792 0.86565 0.0
C2035 C 0.10787 0.67782 0.92222 0.0
C2036 C 0.11469 0.68908 0.94517 0.0
C2037 C 0.09381 0.65634 0.88207 0.0
C2038 C 0.09601 0.65552 0.91939 0.0
C2039 C 0.10349 0.66623 0.93848 0.0
C2040 C 0.08854 0.64428 0.94041 0.0
C2041 C 0.08566 0.64524 0.86015 0.0
C2042 C 0.0803 0.64479 0.96603 0.0
C2043 C 0.07146 0.63409 0.98134 0.0
C2044 C 0.07064 0.62262 0.97142 0.0
C2045 C 0.07951 0.62214 0.9481 0.0
C2046 C 0.08844 0.63293 0.93271 0.0
H2047 H 0.08372 0.6477 0.83275 0.0
H2048 H 0.09017 0.63915 0.85687 0.0
H2049 H 0.07683 0.63999 0.87426 0.0
H2050 H 0.08021 0.65342 0.97254 0.0
H2051 H 0.06483 0.63478 0.9995 0.0
H2052 H 0.36979 0.42224 0.99487 0.0
H2053 H 0.34982 0.41995 0.97598 0.0
H2054 H 0.36475 0.45889 0.95804 0.0
H2055 H 0.38508 0.46123 0.97625 0.0
H2056 H 0.33457 0.42927 0.00036 0.0
H2057 H 0.35 0.44506 0.85977 0.0
H2058 H 0.35944 0.44178 0.89134 0.0
H2059 H 0.3576 0.45554 0.89602 0.0
C2060 C 0.36886 0.43037 0.98721 0.0
C2061 C 0.37905 0.44191 0.98672 0.0
C2062 C 0.35739 0.42904 0.97651 0.0
C2063 C 0.35578 0.43921 0.96508 0.0
C2064 C 0.36581 0.45087 0.9661 0.0
H2065 H 0.27752 0.41023 0.90557 0.0
H2066 H 0.29691 0.42614 0.92937 0.0
C2067 C 0.37739 0.45221 0.97675 0.0
C2068 C 0.34367 0.43713 0.95039 0.0
H2069 H 0.32898 0.43548 0.87036 0.0
C2070 C 0.33331 0.43087 0.97213 0.0
C2071 C 0.34207 0.43925 0.91354 0.0
C2072 C 0.35282 0.44571 0.8886 0.0
C2073 C 0.32147 0.42574 0.95742 0.0
C2074 C 0.31991 0.42721 0.92003 0.0
C2075 C 0.3302 0.43439 0.899 0.0
C2076 C 0.30826 0.41943 0.90108 0.0
C2077 C 0.31086 0.41791 0.98138 0.0
C2078 C 0.30825 0.41089 0.87557 0.0
C2079 C 0.2973 0.40198 0.86173 0.0
C2080 C 0.28606 0.40137 0.87305 0.0
C2081 C 0.28605 0.41048 0.89644 0.0
C2082 C 0.29711 0.41948 0.91032 0.0
H2083 H 0.31389 0.41635 0.00843 0.0
H2084 H 0.30487 0.42249 0.98539 0.0
H2085 H 0.30533 0.40887 0.96853 0.0
H2086 H 0.31671 0.41067 0.86786 0.0
H2087 H 0.29762 0.39516 0.84351 0.0
H2088 H 0.92624 0.62912 0.67738 0.0
H2089 H 0.9302 0.61306 0.6499 0.0
H2090 H 0.89209 0.59316 0.62137 0.0
H2091 H 0.88809 0.60944 0.64833 0.0
H2092 H 0.9213 0.58777 0.657 0.0
H2093 H 0.90941 0.60081 0.5232 0.0
H2094 H 0.91121 0.60991 0.56323 0.0
H2095 H 0.8978 0.59563 0.55758 0.0
C2096 C 0.91864 0.62122 0.66592 0.0
C2097 C 0.9069 0.62062 0.66448 0.0
C2098 C 0.92091 0.61202 0.6503 0.0
C2099 C 0.91148 0.60205 0.63299 0.0
C2100 C 0.89953 0.60091 0.63403 0.0
H2101 H 0.94455 0.55849 0.52892 0.0
H2102 H 0.92778 0.56116 0.55785 0.0
C2103 C 0.89725 0.61016 0.64962 0.0
C2104 C 0.9147 0.59378 0.6108 0.0
H2105 H 0.91982 0.58874 0.52295 0.0
C2106 C 0.92071 0.58766 0.62769 0.0
C2107 C 0.91392 0.59375 0.57256 0.0
C2108 C 0.90781 0.60041 0.55286 0.0
C2109 C 0.92682 0.58236 0.60737 0.0
C2110 C 0.9267 0.58301 0.56914 0.0
C2111 C 0.91984 0.58824 0.55226 0.0
C2112 C 0.93545 0.58059 0.54684 0.0
C2113 C 0.93424 0.57705 0.62696 0.0
C2114 C 0.94493 0.59049 0.52955 0.0
C2115 C 0.95441 0.58898 0.51291 0.0
C2116 C 0.95458 0.57754 0.51321 0.0
C2117 C 0.94466 0.56743 0.52842 0.0
C2118 C 0.93513 0.56895 0.54513 0.0
H2119 H 0.93449 0.57856 0.65666 0.0
H2120 H 0.9302 0.56704 0.62195 0.0
H2121 H 0.94377 0.58118 0.61668 0.0
H2122 H 0.94533 0.59955 0.53049 0.0
H2123 H 0.96189 0.59693 0.50124 0.0
H2124 H 0.46427 0.38712 0.53605 0.0
H2125 H 0.463 0.36736 0.55622 0.0
H2126 H 0.42537 0.34939 0.52135 0.0
H2127 H 0.42663 0.36886 0.50088 0.0
H2128 H 0.44829 0.35327 0.60897 0.0
H2129 H 0.43753 0.32578 0.48428 0.0
H2130 H 0.44379 0.34228 0.48342 0.0
H2131 H 0.42754 0.33294 0.48792 0.0
C2132 C 0.45584 0.37889 0.53192 0.0
C2133 C 0.44555 0.37953 0.51688 0.0
C2134 C 0.45512 0.36762 0.5435 0.0
C2135 C 0.44415 0.35684 0.53974 0.0
C2136 C 0.43404 0.35748 0.52364 0.0
H2137 H 0.39994 0.2996 0.66332 0.0
H2138 H 0.41562 0.31893 0.64109 0.0
C2139 C 0.43474 0.36868 0.51222 0.0
C2140 C 0.44258 0.34512 0.55623 0.0
H2141 H 0.42843 0.31438 0.54007 0.0
C2142 C 0.44429 0.34477 0.59373 0.0
C2143 C 0.43768 0.33402 0.53641 0.0
C2144 C 0.43667 0.3338 0.49571 0.0
C2145 C 0.43998 0.33359 0.61234 0.0
C2146 C 0.43358 0.32251 0.59305 0.0
C2147 C 0.43311 0.32285 0.55511 0.0
C2148 C 0.4256 0.31087 0.61162 0.0
C2149 C 0.44185 0.33381 0.65273 0.0
C2150 C 0.42594 0.2998 0.60269 0.0
C2151 C 0.41683 0.28862 0.61532 0.0
C2152 C 0.40719 0.28837 0.63661 0.0
C2153 C 0.40726 0.29949 0.64701 0.0
C2154 C 0.41632 0.3106 0.63456 0.0
H2155 H 0.45066 0.34159 0.66059 0.0
H2156 H 0.43445 0.33513 0.66648 0.0
H2157 H 0.44177 0.32515 0.66255 0.0
H2158 H 0.43293 0.29978 0.58473 0.0
H2159 H 0.41695 0.28018 0.60666 0.0
H2160 H 0.62579 0.07572 0.50491 0.0
H2161 H 0.64577 0.08908 0.53068 0.0
H2162 H 0.63074 0.0801 0.63816 0.0
H2163 H 0.61064 0.06688 0.61253 0.0
H2164 H 0.65146 0.10552 0.62769 0.0
H2165 H 0.66009 0.06686 0.57858 0.0
H2166 H 0.65483 0.07408 0.54497 0.0
H2167 H 0.64492 0.06583 0.58155 0.0
C2168 C 0.62662 0.07699 0.53398 0.0
C2169 C 0.61671 0.07014 0.55674 0.0
C2170 C 0.63805 0.08461 0.54867 0.0
C2171 C 0.63976 0.08538 0.5863 0.0
C2172 C 0.62959 0.07962 0.60903 0.0
H2173 H 0.70259 0.0891 0.69806 0.0
H2174 H 0.68206 0.08541 0.67955 0.0
C2175 C 0.6181 0.07208 0.59433 0.0
C2176 C 0.65228 0.09012 0.60147 0.0
H2177 H 0.67645 0.08323 0.60661 0.0
C2178 C 0.65698 0.10071 0.62305 0.0
C2179 C 0.65935 0.08369 0.59578 0.0
C2180 C 0.65455 0.07193 0.57423 0.0
C2181 C 0.66867 0.10508 0.63893 0.0
C2182 C 0.67575 0.09869 0.63284 0.0
C2183 C 0.67101 0.08813 0.61119 0.0
C2184 C 0.68794 0.10231 0.64951 0.0
C2185 C 0.67325 0.11628 0.66276 0.0
C2186 C 0.69807 0.11324 0.63972 0.0
C2187 C 0.70989 0.11542 0.65054 0.0
C2188 C 0.71171 0.10661 0.67087 0.0
C2189 C 0.70148 0.09602 0.68222 0.0
C2190 C 0.68974 0.09391 0.67171 0.0
H2191 H 0.6658 0.1187 0.67054 0.0
H2192 H 0.67753 0.11483 0.6877 0.0
H2193 H 0.68032 0.12415 0.64797 0.0
H2194 H 0.69692 0.11976 0.6221 0.0
H2195 H 0.71761 0.12363 0.64124 0.0
H2196 H 0.71901 0.77284 0.80672 0.0
H2197 H 0.73384 0.7668 0.77939 0.0
H2198 H 0.71264 0.72982 0.81698 0.0
H2199 H 0.69796 0.73578 0.84462 0.0
H2200 H 0.73828 0.73798 0.82102 0.0
H2201 H 0.72282 0.74611 0.6859 0.0
H2202 H 0.72897 0.75878 0.71699 0.0
H2203 H 0.7147 0.74584 0.7269 0.0
C2204 C 0.7177 0.7635 0.80989 0.0
C2205 C 0.70726 0.75473 0.82737 0.0
C2206 C 0.72613 0.76006 0.79411 0.0
C2207 C 0.72419 0.74783 0.79563 0.0
C2208 C 0.71427 0.7393 0.81541 0.0
H2209 H 0.72736 0.69299 0.67422 0.0
H2210 H 0.72443 0.70974 0.70135 0.0
C2211 C 0.70587 0.74272 0.83112 0.0
C2212 C 0.73156 0.74338 0.77381 0.0
H2213 H 0.73463 0.73539 0.68721 0.0
C2214 C 0.73778 0.73767 0.7917 0.0
C2215 C 0.73076 0.74293 0.73557 0.0
C2216 C 0.72391 0.74866 0.71502 0.0
C2217 C 0.74256 0.73083 0.77252 0.0
C2218 C 0.7412 0.72986 0.73446 0.0
C2219 C 0.73569 0.73624 0.71638 0.0
C2220 C 0.74356 0.72072 0.71388 0.0
C2221 C 0.74819 0.72394 0.79332 0.0
C2222 C 0.75536 0.72156 0.71088 0.0
C2223 C 0.75706 0.71195 0.69533 0.0
C2224 C 0.74698 0.70142 0.68265 0.0
C2225 C 0.73529 0.70096 0.6839 0.0
C2226 C 0.7336 0.71053 0.69933 0.0
H2227 H 0.74718 0.72449 0.82305 0.0
H2228 H 0.74391 0.71414 0.78522 0.0
H2229 H 0.75808 0.72782 0.78699 0.0
H2230 H 0.76316 0.72944 0.72154 0.0
H2231 H 0.76618 0.71256 0.69461 0.0
H2232 H 0.24246 0.96604 0.83781 0.0
H2233 H 0.24483 0.98602 0.81854 0.0
H2234 H 0.20698 0.97016 0.78575 0.0
H2235 H 0.20462 0.94987 0.80436 0.0
H2236 H 0.22108 0.98351 0.73302 0.0
H2237 H 0.23572 0.01147 0.85633 0.0
H2238 H 0.24496 0.00356 0.85113 0.0
H2239 H 0.2287 0.99494 0.8579 0.0
C2240 C 0.23454 0.96681 0.82726 0.0
C2241 C 0.22335 0.95637 0.82255 0.0
C2242 C 0.23588 0.9783 0.81655 0.0
C2243 C 0.22603 0.97969 0.80129 0.0
C2244 C 0.21468 0.96934 0.79779 0.0
H2245 H 0.2584 0.05645 0.73239 0.0
H2246 H 0.24156 0.03782 0.75656 0.0
C2247 C 0.21333 0.95777 0.8085 0.0
C2248 C 0.22825 0.99165 0.78493 0.0
H2249 H 0.24484 0.0223 0.79941 0.0
C2250 C 0.22595 0.992 0.74781 0.0
C2251 C 0.23427 0.0028 0.80417 0.0
C2252 C 0.23591 0.00314 0.84468 0.0
C2253 C 0.23071 0.00312 0.72878 0.0
C2254 C 0.23822 0.01411 0.74717 0.0
C2255 C 0.23932 0.01388 0.78498 0.0
C2256 C 0.24663 0.02533 0.72747 0.0
C2257 C 0.22807 0.00289 0.68884 0.0
C2258 C 0.25491 0.02453 0.70252 0.0
C2259 C 0.26443 0.03508 0.68872 0.0
C2260 C 0.266 0.04671 0.69981 0.0
C2261 C 0.25734 0.04759 0.72317 0.0
C2262 C 0.24776 0.03696 0.73709 0.0
H2263 H 0.21872 0.99572 0.6826 0.0
H2264 H 0.2289 0.01186 0.67918 0.0
H2265 H 0.2346 0.00058 0.6736 0.0
H2266 H 0.25451 0.01573 0.69538 0.0
H2267 H 0.27097 0.03409 0.67084 0.0
H2268 H 0.05138 0.25284 0.7695 0.0
H2269 H 0.03162 0.23781 0.74522 0.0
H2270 H 0.0128 0.24889 0.82509 0.0
H2271 H 0.03239 0.26396 0.84904 0.0
H2272 H 0.00261 0.22047 0.80179 0.0
H2273 H 0.01117 0.25582 0.69537 0.0
H2274 H 0.02306 0.25153 0.70737 0.0
H2275 H 0.01858 0.25994 0.73896 0.0
C2276 C 0.04303 0.25175 0.78264 0.0
C2277 C 0.04339 0.2596 0.811 0.0
C2278 C 0.03177 0.2432 0.7687 0.0
C2279 C 0.02079 0.2423 0.78335 0.0
C2280 C 0.02118 0.24942 0.81356 0.0
H2281 H 0.94485 0.21717 0.75689 0.0
H2282 H 0.96491 0.22002 0.77746 0.0
C2283 C 0.03237 0.25804 0.82715 0.0
C2284 C 0.00901 0.23552 0.76428 0.0
H2285 H 0.99157 0.23967 0.69866 0.0
C2286 C 0.00021 0.2245 0.77877 0.0
C2287 C 0.00596 0.2408 0.73423 0.0
C2288 C 0.01512 0.25269 0.71789 0.0
C2289 C 0.98828 0.21878 0.76454 0.0
C2290 C 0.98498 0.22449 0.73594 0.0
C2291 C 0.99401 0.23523 0.72051 0.0
C2292 C 0.97211 0.22032 0.72368 0.0
C2293 C 0.97935 0.20674 0.78053 0.0
C2294 C 0.96932 0.21946 0.68653 0.0
C2295 C 0.9579 0.21814 0.67469 0.0
C2296 C 0.949 0.21751 0.69977 0.0
C2297 C 0.95147 0.21748 0.73691 0.0
C2298 C 0.96296 0.21903 0.74874 0.0
H2299 H 0.98415 0.20142 0.79046 0.0
H2300 H 0.97474 0.20852 0.80409 0.0
H2301 H 0.9723 0.20109 0.76055 0.0
H2302 H 0.97619 0.22045 0.6666 0.0
H2303 H 0.95626 0.2182 0.64589 0.0
H2304 H 0.27508 0.22612 0.1699 0.0
H2305 H 0.25893 0.23132 0.19118 0.0
H2306 H 0.28285 0.26965 0.17463 0.0
H2307 H 0.29877 0.26452 0.15262 0.0
H2308 H 0.26038 0.24393 0.25038 0.0
H2309 H 0.25159 0.26828 0.13745 0.0
H2310 H 0.25949 0.25892 0.13108 0.0
H2311 H 0.26774 0.27471 0.14495 0.0
C2312 C 0.27673 0.23562 0.16986 0.0
C2313 C 0.28819 0.24492 0.15968 0.0
C2314 C 0.26752 0.23858 0.18206 0.0
C2315 C 0.2696 0.25086 0.18403 0.0
C2316 C 0.28087 0.26008 0.1724 0.0
H2317 H 0.26011 0.29393 0.33864 0.0
H2318 H 0.26249 0.27794 0.30513 0.0
C2319 C 0.29003 0.25714 0.16011 0.0
C2320 C 0.26085 0.25435 0.2027 0.0
H2321 H 0.24959 0.27538 0.19841 0.0
C2322 C 0.25771 0.25054 0.23867 0.0
C2323 C 0.25703 0.26271 0.18733 0.0
C2324 C 0.25904 0.26626 0.14792 0.0
C2325 C 0.25196 0.25583 0.26066 0.0
C2326 C 0.24962 0.26537 0.24655 0.0
C2327 C 0.25161 0.26825 0.20958 0.0
C2328 C 0.24681 0.2736 0.27029 0.0
C2329 C 0.24889 0.25143 0.29916 0.0
C2330 C 0.23723 0.27659 0.26186 0.0
C2331 C 0.23597 0.28592 0.28072 0.0
C2332 C 0.24429 0.29243 0.30822 0.0
C2333 C 0.2535 0.28903 0.31774 0.0
C2334 C 0.2548 0.27979 0.29878 0.0
H2335 H 0.24642 0.24151 0.30114 0.0
H2336 H 0.25704 0.25639 0.31653 0.0
H2337 H 0.24121 0.25301 0.30982 0.0
H2338 H 0.23101 0.27201 0.23981 0.0
H2339 H 0.22879 0.28837 0.27277 0.0
H2340 H 0.72273 0.95676 0.24494 0.0
H2341 H 0.74006 0.97534 0.22497 0.0
H2342 H 0.76304 0.96986 0.30455 0.0
H2343 H 0.74549 0.95087 0.32462 0.0
H2344 H 0.76253 0.99329 0.30658 0.0
H2345 H 0.77147 0.98257 0.16796 0.0
H2346 H 0.7554 0.97703 0.17593 0.0
H2347 H 0.76393 0.97086 0.20166 0.0
C2348 C 0.73152 0.95935 0.2578 0.0
C2349 C 0.73278 0.95241 0.28638 0.0
C2350 C 0.74145 0.96993 0.24612 0.0
C2351 C 0.75289 0.97389 0.26286 0.0
C2352 C 0.75432 0.96685 0.29096 0.0
H2353 H 0.7971 0.05331 0.22366 0.0
H2354 H 0.79477 0.03293 0.24177 0.0
C2355 C 0.74433 0.95604 0.30235 0.0
C2356 C 0.76261 0.98617 0.25336 0.0
H2357 H 0.77481 0.00369 0.17847 0.0
C2358 C 0.76568 0.99559 0.27892 0.0
C2359 C 0.76672 0.98912 0.21731 0.0
C2360 C 0.76431 0.97932 0.18924 0.0
C2361 C 0.77148 0.00795 0.26838 0.0
C2362 C 0.77439 0.01087 0.23146 0.0
C2363 C 0.77249 0.00144 0.20672 0.0
C2364 C 0.77695 0.02311 0.21706 0.0
C2365 C 0.77336 0.01774 0.29607 0.0
C2366 C 0.76792 0.02427 0.19619 0.0
C2367 C 0.76921 0.03578 0.18595 0.0
C2368 C 0.77961 0.04641 0.19615 0.0
C2369 C 0.78899 0.04525 0.21543 0.0
C2370 C 0.78765 0.03365 0.22593 0.0
H2371 H 0.76987 0.01386 0.32321 0.0
H2372 H 0.78326 0.02399 0.29853 0.0
H2373 H 0.76866 0.02328 0.28725 0.0
H2374 H 0.75959 0.01626 0.18907 0.0
H2375 H 0.76185 0.03637 0.17094 0.0
H2376 H 0.05028 0.79503 0.30363 0.0
H2377 H 0.03041 0.79408 0.28636 0.0
H2378 H 0.01304 0.75533 0.30896 0.0
H2379 H 0.0326 0.75627 0.32671 0.0
H2380 H 0.01634 0.78149 0.23099 0.0
H2381 H 0.98909 0.7652 0.35493 0.0
H2382 H 0.00557 0.77164 0.35543 0.0
H2383 H 0.9964 0.7556 0.34569 0.0
C2384 C 0.04215 0.78639 0.30569 0.0
C2385 C 0.04299 0.77573 0.31657 0.0
C2386 C 0.03082 0.78585 0.29578 0.0
C2387 C 0.02017 0.77468 0.29701 0.0
C2388 C 0.02102 0.76414 0.3088 0.0
H2389 H 0.96407 0.73417 0.16568 0.0
H2390 H 0.98296 0.74986 0.19029 0.0
C2391 C 0.03227 0.76466 0.31864 0.0
C2392 C 0.00835 0.77347 0.28222 0.0
H2393 H 0.97773 0.75785 0.29772 0.0
C2394 C 0.0079 0.77665 0.24591 0.0
C2395 C 0.9973 0.76751 0.30178 0.0
C2396 C 0.99715 0.76494 0.34175 0.0
C2397 C 0.99669 0.77279 0.22767 0.0
C2398 C 0.98571 0.7653 0.24595 0.0
C2399 C 0.98612 0.76336 0.2833 0.0
C2400 C 0.97421 0.75765 0.22612 0.0
C2401 C 0.9968 0.77631 0.18851 0.0
C2402 C 0.96287 0.75677 0.23767 0.0
C2403 C 0.95193 0.74763 0.22367 0.0
C2404 C 0.95221 0.73916 0.19828 0.0
C2405 C 0.96355 0.74058 0.18517 0.0
C2406 C 0.97441 0.74966 0.19902 0.0
H2407 H 0.00423 0.78564 0.18355 0.0
H2408 H 0.99865 0.76987 0.17121 0.0
H2409 H 0.98796 0.77608 0.18021 0.0
H2410 H 0.96247 0.76276 0.25878 0.0
H2411 H 0.94331 0.74669 0.23447 0.0
H2412 H 0.31434 0.07914 0.07594 0.0
H2413 H 0.30906 0.07245 0.0134 0.0
H2414 H 0.32968 0.05151 0.02042 0.0
H2415 H 0.33497 0.05816 0.08347 0.0
H2416 H 0.33689 0.06902 0.96402 0.0
H2417 H 0.28691 0.04031 0.96159 0.0
H2418 H 0.29112 0.05411 0.98726 0.0
H2419 H 0.29594 0.04288 0.00234 0.0
C2420 C 0.31745 0.07282 0.06454 0.0
C2421 C 0.32506 0.06917 0.0845 0.0
C2422 C 0.31438 0.06895 0.02884 0.0
C2423 C 0.31889 0.0614 0.01239 0.0
C2424 C 0.32602 0.05725 0.03278 0.0
H2425 H 0.31915 0.05903 0.77198 0.0
H2426 H 0.32235 0.05382 0.83419 0.0
C2427 C 0.32899 0.06101 0.06877 0.0
C2428 C 0.31748 0.05938 0.97281 0.0
H2429 H 0.29598 0.05109 0.90607 0.0
C2430 C 0.32798 0.0648 0.95116 0.0
C2431 C 0.30585 0.05384 0.95625 0.0
C2432 C 0.29432 0.04735 0.97808 0.0
C2433 C 0.32709 0.06578 0.91351 0.0
C2434 C 0.31539 0.06104 0.89727 0.0
C2435 C 0.30494 0.05479 0.91866 0.0
C2436 C 0.31368 0.06398 0.85945 0.0
C2437 C 0.33858 0.07267 0.8918 0.0
C2438 C 0.30773 0.07134 0.85318 0.0
C2439 C 0.30588 0.07427 0.81802 0.0
C2440 C 0.30994 0.0699 0.78827 0.0
C2441 C 0.31602 0.0626 0.79445 0.0
C2442 C 0.31785 0.05963 0.82988 0.0
H2443 H 0.34681 0.07711 0.90927 0.0
H2444 H 0.33997 0.06624 0.87324 0.0
H2445 H 0.33774 0.07983 0.87504 0.0
H2446 H 0.3045 0.07484 0.87563 0.0
H2447 H 0.30116 0.0799 0.8142 0.0
H2448 H 0.93011 0.26021 0.07338 0.0
H2449 H 0.93737 0.26213 0.01048 0.0
H2450 H 0.90169 0.2559 0.97218 0.0
H2451 H 0.89448 0.25411 0.03424 0.0
H2452 H 0.92841 0.24493 0.95466 0.0
H2453 H 0.924 0.28669 0.91725 0.0
H2454 H 0.924 0.2821 0.96373 0.0
H2455 H 0.91022 0.27537 0.93707 0.0
C2456 C 0.92386 0.25931 0.05147 0.0
C2457 C 0.91174 0.25706 0.05877 0.0
C2458 C 0.92802 0.26044 0.01563 0.0
C2459 C 0.92015 0.25945 0.98668 0.0
C2460 C 0.90803 0.25705 0.99405 0.0
H2461 H 0.90666 0.24448 0.7664 0.0
H2462 H 0.90822 0.25099 0.82951 0.0
C2463 C 0.90389 0.25591 0.02963 0.0
C2464 C 0.92418 0.26019 0.94849 0.0
H2465 H 0.92375 0.27359 0.86765 0.0
C2466 C 0.9277 0.25138 0.93572 0.0
C2467 C 0.92328 0.26865 0.92386 0.0
C2468 C 0.92029 0.27881 0.93625 0.0
C2469 C 0.92946 0.25023 0.89858 0.0
C2470 C 0.92781 0.25821 0.87374 0.0
C2471 C 0.92497 0.26746 0.88674 0.0
C2472 C 0.92755 0.25614 0.83414 0.0
C2473 C 0.93232 0.24 0.88597 0.0
C2474 C 0.93803 0.25737 0.81537 0.0
C2475 C 0.93718 0.25372 0.77909 0.0
C2476 C 0.92582 0.24874 0.7612 0.0
C2477 C 0.91553 0.24826 0.77946 0.0
C2478 C 0.9164 0.25197 0.81555 0.0
H2479 H 0.93166 0.23361 0.90823 0.0
H2480 H 0.92597 0.2347 0.86395 0.0
H2481 H 0.94174 0.24393 0.87499 0.0
H2482 H 0.94675 0.26072 0.82915 0.0
H2483 H 0.94526 0.25416 0.76574 0.0
H2484 H 0.71336 0.63173 0.06841 0.0
H2485 H 0.70867 0.63515 0.00588 0.0
H2486 H 0.74699 0.65803 0.98663 0.0
H2487 H 0.75169 0.65469 0.04864 0.0
H2488 H 0.73043 0.66671 0.95518 0.0
H2489 H 0.71838 0.61797 0.92244 0.0
H2490 H 0.71054 0.62117 0.95915 0.0
H2491 H 0.7265 0.62512 0.96336 0.0
C2492 C 0.72071 0.63776 0.05107 0.0
C2493 C 0.7329 0.64293 0.06325 0.0
C2494 C 0.71804 0.6396 0.01533 0.0
C2495 C 0.72751 0.64669 0.99156 0.0
C2496 C 0.73955 0.6525 0.00453 0.0
H2497 H 0.75635 0.66734 0.78822 0.0
H2498 H 0.74977 0.66329 0.85096 0.0
C2499 C 0.74223 0.6506 0.03997 0.0
C2500 C 0.72532 0.6474 0.9524 0.0
H2501 H 0.7216 0.63136 0.87375 0.0
C2502 C 0.7282 0.65892 0.93738 0.0
C2503 C 0.72236 0.63721 0.92926 0.0
C2504 C 0.7193 0.62465 0.94411 0.0
C2505 C 0.72894 0.66068 0.89979 0.0
C2506 C 0.72696 0.6507 0.87675 0.0
C2507 C 0.72315 0.63899 0.89158 0.0
C2508 C 0.73061 0.65266 0.83821 0.0
C2509 C 0.73242 0.67333 0.88505 0.0
C2510 C 0.72205 0.64762 0.81015 0.0
C2511 C 0.72582 0.64991 0.7739 0.0
C2512 C 0.7382 0.65715 0.76544 0.0
C2513 C 0.74674 0.66178 0.79375 0.0
C2514 C 0.74299 0.65955 0.82969 0.0
H2515 H 0.72994 0.6789 0.9042 0.0
H2516 H 0.74246 0.67808 0.88092 0.0
H2517 H 0.7279 0.6729 0.85862 0.0
H2518 H 0.71247 0.64215 0.81629 0.0
H2519 H 0.71904 0.64622 0.75262 0.0
H2520 H 0.06173 0.31494 0.73626 0.0
H2521 H 0.05904 0.32019 0.6737 0.0
H2522 H 0.07535 0.2975 0.63421 0.0
H2523 H 0.0778 0.29207 0.69594 0.0
H2524 H 0.07621 0.33187 0.6239 0.0
H2525 H 0.04569 0.28622 0.57026 0.0
H2526 H 0.04815 0.28922 0.6182 0.0
H2527 H 0.05866 0.2858 0.59175 0.0
C2528 C 0.06463 0.31101 0.71413 0.0
C2529 C 0.06995 0.30308 0.72096 0.0
C2530 C 0.06305 0.31397 0.67848 0.0
C2531 C 0.0667 0.30898 0.64924 0.0
C2532 C 0.07207 0.30114 0.6562 0.0
H2533 H 0.09976 0.33635 0.4515 0.0
H2534 H 0.09279 0.33041 0.5133 0.0
C2535 C 0.07361 0.29815 0.69161 0.0
C2536 C 0.06598 0.31269 0.61143 0.0
H2537 H 0.05895 0.30102 0.52588 0.0
C2538 C 0.07218 0.32515 0.60255 0.0
C2539 C 0.06047 0.30397 0.58355 0.0
C2540 C 0.05275 0.29058 0.59153 0.0
C2541 C 0.07393 0.329 0.56637 0.0
C2542 C 0.06962 0.32013 0.53843 0.0
C2543 C 0.06249 0.30779 0.54732 0.0
C2544 C 0.07355 0.32335 0.50041 0.0
C2545 C 0.08073 0.34252 0.55842 0.0
C2546 C 0.06502 0.32081 0.47227 0.0
C2547 C 0.069 0.32407 0.43656 0.0
C2548 C 0.08156 0.32987 0.42864 0.0
C2549 C 0.09002 0.33201 0.45677 0.0
C2550 C 0.08606 0.32872 0.49219 0.0
H2551 H 0.07954 0.34804 0.58062 0.0
H2552 H 0.09065 0.34511 0.55618 0.0
H2553 H 0.07761 0.34489 0.53265 0.0
H2554 H 0.05531 0.31651 0.47803 0.0
H2555 H 0.06229 0.32232 0.41537 0.0
H2556 H 0.67952 0.75605 0.71674 0.0
H2557 H 0.67109 0.74962 0.65622 0.0
H2558 H 0.63518 0.72913 0.70172 0.0
H2559 H 0.64361 0.73552 0.7629 0.0
H2560 H 0.65566 0.72452 0.62529 0.0
H2561 H 0.63362 0.75596 0.63124 0.0
H2562 H 0.64586 0.75756 0.66151 0.0
H2563 H 0.63084 0.74533 0.66789 0.0
C2564 C 0.66984 0.75006 0.71398 0.0
C2565 C 0.66219 0.74638 0.74449 0.0
C2566 C 0.66506 0.74635 0.67939 0.0
C2567 C 0.65253 0.73898 0.67459 0.0
C2568 C 0.64489 0.73487 0.70502 0.0
H2569 H 0.61357 0.73031 0.47162 0.0
H2570 H 0.61836 0.72799 0.53443 0.0
C2571 C 0.6497 0.73851 0.73984 0.0
C2572 C 0.64749 0.73653 0.63747 0.0
H2573 H 0.6326 0.74603 0.57628 0.0
C2574 C 0.65047 0.72907 0.61455 0.0
C2575 C 0.64078 0.74253 0.62371 0.0
C2576 C 0.6376 0.75086 0.64714 0.0
C2577 C 0.64699 0.72754 0.57792 0.0
C2578 C 0.64067 0.73392 0.56378 0.0
C2579 C 0.63744 0.74113 0.58708 0.0
C2580 C 0.63761 0.73368 0.5248 0.0
C2581 C 0.65007 0.71907 0.55488 0.0
C2582 C 0.64679 0.73745 0.49823 0.0
C2583 C 0.64403 0.73862 0.46206 0.0
C2584 C 0.6321 0.73631 0.45215 0.0
C2585 C 0.62288 0.73224 0.47857 0.0
C2586 C 0.62559 0.73089 0.51447 0.0
H2587 H 0.65108 0.712 0.57161 0.0
H2588 H 0.64295 0.71442 0.534 0.0
H2589 H 0.65891 0.72447 0.54102 0.0
H2590 H 0.65619 0.73996 0.50564 0.0
H2591 H 0.65131 0.74185 0.44224 0.0
H2592 H 0.25159 0.92033 0.73991 0.0
H2593 H 0.25693 0.91859 0.6768 0.0
H2594 H 0.22732 0.92601 0.64011 0.0
H2595 H 0.22185 0.92756 0.70269 0.0
H2596 H 0.22664 0.90507 0.61101 0.0
H2597 H 0.27292 0.94372 0.59575 0.0
H2598 H 0.27124 0.93397 0.63392 0.0
H2599 H 0.2628 0.94286 0.63245 0.0
C2600 C 0.24637 0.92178 0.71833 0.0
C2601 C 0.23627 0.92401 0.72622 0.0
C2602 C 0.24946 0.92086 0.68231 0.0
C2603 C 0.24258 0.92228 0.65375 0.0
C2604 C 0.23277 0.92491 0.66171 0.0
H2605 H 0.25306 0.92102 0.4194 0.0
H2606 H 0.25126 0.92748 0.48133 0.0
C2607 C 0.22965 0.92577 0.69752 0.0
C2608 C 0.24476 0.91988 0.61572 0.0
H2609 H 0.26595 0.92907 0.54784 0.0
C2610 C 0.23522 0.91037 0.59717 0.0
C2611 C 0.25592 0.92687 0.59761 0.0
C2612 C 0.26628 0.93751 0.61577 0.0
C2613 C 0.23658 0.90751 0.56125 0.0
C2614 C 0.24785 0.91422 0.54351 0.0
C2615 C 0.25734 0.92391 0.56167 0.0
C2616 C 0.24996 0.91092 0.5065 0.0
C2617 C 0.22592 0.89733 0.54249 0.0
C2618 C 0.25008 0.89962 0.50043 0.0
C2619 C 0.25106 0.89593 0.46537 0.0
C2620 C 0.252 0.90348 0.43561 0.0
C2621 C 0.25229 0.915 0.4418 0.0
C2622 C 0.2513 0.9187 0.47708 0.0
H2623 H 0.21715 0.89509 0.55658 0.0
H2624 H 0.22513 0.89981 0.51402 0.0
H2625 H 0.22738 0.88896 0.54217 0.0
H2626 H 0.24919 0.89356 0.52285 0.0
H2627 H 0.25091 0.88704 0.46157 0.0
H2628 H 0.68856 0.90872 0.20063 0.0
H2629 H 0.68493 0.91231 0.13781 0.0
H2630 H 0.6757 0.94106 0.17148 0.0
H2631 H 0.67927 0.93747 0.23495 0.0
H2632 H 0.6602 0.92456 0.11471 0.0
H2633 H 0.70965 0.94359 0.08434 0.0
H2634 H 0.70376 0.92902 0.1067 0.0
H2635 H 0.70381 0.94202 0.12994 0.0
C2636 C 0.68557 0.91569 0.19481 0.0
C2637 C 0.68429 0.92288 0.22265 0.0
C2638 C 0.68358 0.91778 0.15889 0.0
C2639 C 0.68035 0.92714 0.15005 0.0
C2640 C 0.67832 0.93388 0.17785 0.0
H2641 H 0.66797 0.94079 0.92115 0.0
H2642 H 0.6723 0.94534 0.98601 0.0
C2643 C 0.6803 0.93177 0.21401 0.0
C2644 C 0.67951 0.92998 0.11155 0.0
H2645 H 0.696 0.93676 0.03325 0.0
C2646 C 0.66805 0.92752 0.09692 0.0
C2647 C 0.68983 0.93397 0.08859 0.0
C2648 C 0.70248 0.93743 0.10322 0.0
C2649 C 0.66648 0.92804 0.05939 0.0
C2650 C 0.67665 0.93115 0.03627 0.0
C2651 C 0.68823 0.93436 0.05114 0.0
C2652 C 0.6751 0.92932 0.99676 0.0
C2653 C 0.65386 0.92447 0.04437 0.0
C2654 C 0.6756 0.91903 0.98149 0.0
C2655 C 0.67311 0.9164 0.94486 0.0
C2656 C 0.67019 0.9241 0.92271 0.0
C2657 C 0.67026 0.93475 0.93763 0.0
C2658 C 0.67264 0.93731 0.97459 0.0
H2659 H 0.64683 0.92185 0.06596 0.0
H2660 H 0.65381 0.93227 0.02894 0.0
H2661 H 0.65132 0.91667 0.02532 0.0
H2662 H 0.67752 0.91279 0.99824 0.0
H2663 H 0.67315 0.90815 0.93406 0.0
H2664 H 0.08281 0.78038 0.1996 0.0
H2665 H 0.08272 0.774 0.13715 0.0
H2666 H 0.06806 0.73629 0.1712 0.0
H2667 H 0.06842 0.74271 0.23444 0.0
H2668 H 0.08651 0.74178 0.12509 0.0
H2669 H 0.05501 0.75839 0.06686 0.0
H2670 H 0.06712 0.7705 0.09085 0.0
H2671 H 0.05659 0.75714 0.11508 0.0
C2672 C 0.07948 0.77071 0.19387 0.0
C2673 C 0.07558 0.76204 0.22193 0.0
C2674 C 0.07931 0.76706 0.15804 0.0
C2675 C 0.07507 0.75464 0.1493 0.0
C2676 C 0.07122 0.74592 0.17728 0.0
H2677 H 0.07397 0.73864 0.91544 0.0
H2678 H 0.06667 0.73812 0.97774 0.0
C2679 C 0.07146 0.74959 0.21335 0.0
C2680 C 0.07557 0.75102 0.1112 0.0
H2681 H 0.0693 0.75635 0.02468 0.0
C2682 C 0.08253 0.74475 0.10318 0.0
C2683 C 0.07016 0.75462 0.08253 0.0
C2684 C 0.06169 0.76041 0.08933 0.0
C2685 C 0.08497 0.74279 0.06728 0.0
C2686 C 0.08059 0.74752 0.03868 0.0
C2687 C 0.07287 0.75296 0.04661 0.0
C2688 C 0.08477 0.74781 0.00086 0.0
C2689 C 0.09241 0.73589 0.06041 0.0
C2690 C 0.09731 0.75374 0.99309 0.0
C2691 C 0.10146 0.75401 0.95785 0.0
C2692 C 0.09316 0.74851 0.92941 0.0
C2693 C 0.08057 0.74294 0.93686 0.0
C2694 C 0.0764 0.7426 0.97239 0.0
H2695 H 0.09128 0.72935 0.0827 0.0
H2696 H 0.08979 0.73074 0.0345 0.0
H2697 H 0.10223 0.74247 0.05911 0.0
H2698 H 0.10392 0.75817 0.01438 0.0
H2699 H 0.11122 0.75849 0.95293 0.0
H2700 H 0.27629 0.33281 0.25134 0.0
H2701 H 0.28189 0.3378 0.18763 0.0
H2702 H 0.26367 0.3611 0.18707 0.0
H2703 H 0.25809 0.35619 0.25041 0.0
H2704 H 0.26376 0.33158 0.13531 0.0
H2705 H 0.29446 0.38114 0.12872 0.0
H2706 H 0.29212 0.37237 0.16989 0.0
H2707 H 0.28134 0.37799 0.15638 0.0
C2708 C 0.27385 0.33932 0.23793 0.0
C2709 C 0.26673 0.3441 0.25574 0.0
C2710 C 0.27702 0.34212 0.20153 0.0
C2711 C 0.27328 0.34989 0.1827 0.0
C2712 C 0.26686 0.35528 0.20122 0.0
H2713 H 0.25239 0.36773 0.98709 0.0
H2714 H 0.25804 0.36441 0.04789 0.0
C2715 C 0.26362 0.35242 0.23741 0.0
C2716 C 0.27437 0.35101 0.14282 0.0
H2717 H 0.28218 0.37214 0.07515 0.0
C2718 C 0.26808 0.34041 0.12193 0.0
C2719 C 0.28002 0.36252 0.12552 0.0
C2720 C 0.28747 0.37413 0.1463 0.0
C2721 C 0.2664 0.34112 0.08456 0.0
C2722 C 0.2713 0.35273 0.06775 0.0
C2723 C 0.27835 0.36325 0.0882 0.0
C2724 C 0.26791 0.35436 0.03037 0.0
C2725 C 0.25866 0.32957 0.06387 0.0
C2726 C 0.2715 0.34969 0.0003 0.0
C2727 C 0.26819 0.3515 0.96527 0.0
C2728 C 0.26132 0.35807 0.95997 0.0
C2729 C 0.25768 0.36262 0.99024 0.0
C2730 C 0.26095 0.36078 0.02502 0.0
H2731 H 0.2542 0.32151 0.08195 0.0
H2732 H 0.25146 0.33072 0.04821 0.0
H2733 H 0.26448 0.32763 0.04436 0.0
H2734 H 0.27699 0.34481 0.00388 0.0
H2735 H 0.27121 0.34799 0.94238 0.0
H2736 H 0.89962 0.65488 0.55115 0.0
H2737 H 0.9069 0.66149 0.49008 0.0
H2738 H 0.94299 0.68437 0.53149 0.0
H2739 H 0.93559 0.67797 0.5935 0.0
H2740 H 0.93642 0.69629 0.48241 0.0
H2741 H 0.92695 0.65128 0.42517 0.0
H2742 H 0.91342 0.65038 0.44652 0.0
H2743 H 0.92691 0.65377 0.47333 0.0
C2744 C 0.90913 0.66127 0.54737 0.0
C2745 C 0.91706 0.66587 0.57711 0.0
C2746 C 0.91332 0.66494 0.51233 0.0
C2747 C 0.92558 0.67312 0.50604 0.0
C2748 C 0.93353 0.67789 0.5357 0.0
H2749 H 0.93834 0.68556 0.27119 0.0
H2750 H 0.94173 0.68056 0.33341 0.0
C2751 C 0.9293 0.67428 0.57105 0.0
C2752 C 0.92965 0.67721 0.4685 0.0
H2753 H 0.9262 0.66623 0.38216 0.0
C2754 C 0.93446 0.68974 0.46054 0.0
C2755 C 0.92749 0.66875 0.43992 0.0
C2756 C 0.92355 0.65532 0.44679 0.0
C2757 C 0.93608 0.69389 0.42463 0.0
C2758 C 0.93241 0.68524 0.39603 0.0
C2759 C 0.92872 0.67285 0.40401 0.0
C2760 C 0.931 0.68866 0.35839 0.0
C2761 C 0.94138 0.70749 0.41779 0.0
C2762 C 0.92363 0.69459 0.35173 0.0
C2763 C 0.92176 0.69749 0.31654 0.0
C2764 C 0.92702 0.69431 0.28704 0.0
C2765 C 0.93418 0.68812 0.29347 0.0
C2766 C 0.93616 0.68531 0.32894 0.0
H2767 H 0.94795 0.7127 0.43946 0.0
H2768 H 0.94612 0.71 0.39129 0.0
H2769 H 0.93391 0.71033 0.41801 0.0
H2770 H 0.91915 0.69685 0.37379 0.0
H2771 H 0.91609 0.70216 0.31246 0.0
H2772 H 0.34571 0.25693 0.55627 0.0
H2773 H 0.3397 0.25732 0.49295 0.0
H2774 H 0.37619 0.26521 0.4584 0.0
H2775 H 0.38208 0.2644 0.52108 0.0
H2776 H 0.34787 0.2745 0.43878 0.0
H2777 H 0.35596 0.23459 0.40165 0.0
H2778 H 0.35581 0.23916 0.44799 0.0
H2779 H 0.36923 0.24697 0.42053 0.0
C2780 C 0.35243 0.25879 0.5351 0.0
C2781 C 0.36429 0.26043 0.54345 0.0
C2782 C 0.34901 0.25903 0.49901 0.0
C2783 C 0.35743 0.26099 0.47091 0.0
C2784 C 0.36945 0.26331 0.47952 0.0
H2785 H 0.35164 0.26034 0.2351 0.0
H2786 H 0.35954 0.26543 0.29723 0.0
C2787 C 0.37281 0.2629 0.51538 0.0
C2788 C 0.3536 0.26023 0.43252 0.0
H2789 H 0.35196 0.2451 0.35333 0.0
C2790 C 0.34875 0.26806 0.4201 0.0
C2791 C 0.3547 0.25178 0.40821 0.0
C2792 C 0.35909 0.24256 0.4203 0.0
C2793 C 0.34506 0.26772 0.3839 0.0
C2794 C 0.3463 0.25937 0.3597 0.0
C2795 C 0.35122 0.25161 0.37198 0.0
C2796 C 0.34167 0.25779 0.32216 0.0
C2797 C 0.33988 0.27627 0.37164 0.0
C2798 C 0.32905 0.25189 0.31586 0.0
C2799 C 0.32455 0.24885 0.28069 0.0
C2800 C 0.3326 0.25172 0.25116 0.0
C2801 C 0.34524 0.25807 0.25737 0.0
C2802 C 0.34975 0.26097 0.29274 0.0
H2803 H 0.34161 0.28367 0.39163 0.0
H2804 H 0.34386 0.28045 0.34518 0.0
H2805 H 0.32985 0.27099 0.36793 0.0
H2806 H 0.32268 0.24922 0.3383 0.0
H2807 H 0.31475 0.24398 0.27669 0.0
H2808 H 0.75264 0.11236 0.55279 0.0
H2809 H 0.75307 0.10558 0.49115 0.0
H2810 H 0.73935 0.06825 0.52816 0.0
H2811 H 0.73927 0.07512 0.59072 0.0
H2812 H 0.75762 0.0735 0.48242 0.0
H2813 H 0.72586 0.08905 0.42063 0.0
H2814 H 0.73779 0.10155 0.44389 0.0
H2815 H 0.72741 0.08834 0.46904 0.0
C2816 C 0.74962 0.10269 0.54789 0.0
C2817 C 0.74586 0.09426 0.5766 0.0
C2818 C 0.74975 0.0988 0.51249 0.0
C2819 C 0.7459 0.08636 0.50476 0.0
C2820 C 0.74221 0.07789 0.53341 0.0
H2821 H 0.74573 0.07055 0.27132 0.0
H2822 H 0.73826 0.06971 0.33351 0.0
C2823 C 0.74219 0.08181 0.5691 0.0
C2824 C 0.7466 0.0825 0.467 0.0
H2825 H 0.74059 0.08724 0.37965 0.0
C2826 C 0.75369 0.07629 0.45999 0.0
C2827 C 0.74122 0.08582 0.43763 0.0
C2828 C 0.73253 0.09142 0.44326 0.0
C2829 C 0.75628 0.07413 0.42442 0.0
C2830 C 0.75198 0.07865 0.39509 0.0
C2831 C 0.74413 0.08402 0.40207 0.0
C2832 C 0.75631 0.07878 0.35745 0.0
C2833 C 0.76375 0.06718 0.41875 0.0
C2834 C 0.76889 0.08439 0.35011 0.0
C2835 C 0.77313 0.08478 0.3149 0.0
C2836 C 0.7649 0.07979 0.28602 0.0
C2837 C 0.75228 0.07445 0.29309 0.0
C2838 C 0.74802 0.07394 0.32857 0.0
H2839 H 0.76232 0.06062 0.44118 0.0
H2840 H 0.76141 0.06205 0.39279 0.0
H2841 H 0.77359 0.07373 0.41843 0.0
H2842 H 0.77546 0.08858 0.37164 0.0
H2843 H 0.78291 0.08908 0.31029 0.0
H2844 H 0.96119 0.40671 0.14123 0.0
H2845 H 0.96834 0.40552 0.20218 0.0
H2846 H 0.00126 0.40612 0.15797 0.0
H2847 H 0.99412 0.40724 0.09642 0.0
H2848 H 0.97758 0.38751 0.23264 0.0
H2849 H 0.01083 0.43695 0.22937 0.0
H2850 H 0.99772 0.43066 0.19963 0.0
H2851 H 0.01047 0.4274 0.19171 0.0
C2852 C 0.96992 0.4065 0.14438 0.0
C2853 C 0.97716 0.40718 0.11411 0.0
C2854 C 0.97394 0.40575 0.1792 0.0
C2855 C 0.98531 0.40576 0.18442 0.0
C2856 C 0.99245 0.40611 0.1543 0.0
H2857 H 0.02548 0.42187 0.38671 0.0
H2858 H 0.01942 0.41617 0.32391 0.0
C2859 C 0.98838 0.40676 0.11928 0.0
C2860 C 0.98994 0.40632 0.22163 0.0
H2861 H 0.00892 0.42645 0.28377 0.0
C2862 C 0.98453 0.39596 0.24387 0.0
C2863 C 0.99897 0.41737 0.23596 0.0
C2864 C 0.00485 0.42879 0.21316 0.0
C2865 C 0.98791 0.3964 0.28041 0.0
C2866 C 0.99666 0.40759 0.29514 0.0
C2867 C 0.00222 0.41787 0.27251 0.0
C2868 C 1.00003 0.40914 0.33407 0.0
C2869 C 0.98213 0.38487 0.30271 0.0
C2870 C 0.99112 0.40681 0.36095 0.0
C2871 C 0.99457 0.40989 0.39711 0.0
C2872 C 0.00699 0.41561 0.40668 0.0
C2873 C 0.01584 0.41754 0.38 0.0
C2874 C 0.01239 0.41428 0.34412 0.0
H2875 H 0.97896 0.37656 0.28539 0.0
H2876 H 0.9886 0.38449 0.32325 0.0
H2877 H 0.97403 0.38463 0.31695 0.0
H2878 H 0.98154 0.40314 0.35379 0.0
H2879 H 0.98758 0.40841 0.41715 0.0
H2880 H 0.59794 0.59316 0.07767 0.0
H2881 H 0.59876 0.60072 0.13984 0.0
H2882 H 0.58569 0.56384 0.18014 0.0
H2883 H 0.58521 0.55637 0.1189 0.0
H2884 H 0.58097 0.59585 0.18711 0.0
H2885 H 0.61355 0.58123 0.24793 0.0
H2886 H 0.61153 0.58145 0.19957 0.0
H2887 H 0.60152 0.56843 0.22608 0.0
C2888 C 0.59538 0.58672 0.09992 0.0
C2889 C 0.59159 0.57419 0.09344 0.0
C2890 C 0.59587 0.59104 0.13538 0.0
C2891 C 0.59259 0.58289 0.16482 0.0
C2892 C 0.58869 0.57038 0.15814 0.0
H2893 H 0.55622 0.58002 0.35916 0.0
H2894 H 0.56373 0.58078 0.29783 0.0
C2895 C 0.5883 0.5661 0.12296 0.0
C2896 C 0.59226 0.58712 0.20236 0.0
H2897 H 0.59886 0.58294 0.28961 0.0
C2898 C 0.58511 0.59326 0.20945 0.0
C2899 C 0.59791 0.58407 0.23162 0.0
C2900 C 0.60667 0.57856 0.22581 0.0
C2901 C 0.58267 0.59554 0.24505 0.0
C2902 C 0.58719 0.59123 0.27433 0.0
C2903 C 0.59515 0.586 0.26724 0.0
C2904 C 0.58285 0.59101 0.312 0.0
C2905 C 0.57506 0.60234 0.25083 0.0
C2906 C 0.59111 0.59602 0.34086 0.0
C2907 C 0.58681 0.59539 0.37636 0.0
C2908 C 0.57419 0.58973 0.38345 0.0
C2909 C 0.56599 0.58457 0.35457 0.0
C2910 C 0.57028 0.58511 0.31935 0.0
H2911 H 0.57634 0.60883 0.2283 0.0
H2912 H 0.56525 0.59569 0.25139 0.0
H2913 H 0.5774 0.60752 0.2767 0.0
H2914 H 0.60086 0.60047 0.33589 0.0
H2915 H 0.59333 0.59942 0.39813 0.0
H2916 H 0.40691 0.95966 0.34078 0.0
H2917 H 0.40604 0.96648 0.27915 0.0
H2918 H 0.40638 0.99969 0.32083 0.0
H2919 H 0.4072 0.99288 0.38297 0.0
H2920 H 0.38829 0.97506 0.24624 0.0
H2921 H 0.43719 0.00951 0.25128 0.0
H2922 H 0.43096 0.99667 0.28198 0.0
H2923 H 0.42743 0.00937 0.28796 0.0
C2924 C 0.40672 0.96838 0.33691 0.0
C2925 C 0.40723 0.9758 0.36666 0.0
C2926 C 0.40616 0.97222 0.3017 0.0
C2927 C 0.4062 0.98358 0.29558 0.0
C2928 C 0.40638 0.9909 0.32516 0.0
H2929 H 0.42083 0.02431 0.09493 0.0
H2930 H 0.4155 0.01765 0.15744 0.0
C2931 C 0.40685 0.98701 0.36054 0.0
C2932 C 0.40683 0.98801 0.25807 0.0
H2933 H 0.42669 0.00764 0.19677 0.0
C2934 C 0.39663 0.98225 0.23536 0.0
C2935 C 0.41774 0.99735 0.24416 0.0
C2936 C 0.42902 0.00359 0.26738 0.0
C2937 C 0.39707 0.98565 0.19884 0.0
C2938 C 0.4081 0.99481 0.18464 0.0
C2939 C 0.41822 0.00064 0.20765 0.0
C2940 C 0.40957 0.99843 0.14594 0.0
C2941 C 0.38568 0.97949 0.17604 0.0
C2942 C 0.40776 0.9898 0.11845 0.0
C2943 C 0.41065 0.99358 0.08247 0.0
C2944 C 0.41562 0.00607 0.07366 0.0
C2945 C 0.41707 0.01462 0.10101 0.0
C2946 C 0.41402 0.01083 0.13673 0.0
H2947 H 0.37731 0.97577 0.19302 0.0
H2948 H 0.38498 0.98594 0.156 0.0
H2949 H 0.38599 0.97172 0.16116 0.0
H2950 H 0.40462 0.98022 0.12497 0.0
H2951 H 0.40955 0.98683 0.06192 0.0
H2952 H 0.57238 0.99151 0.88848 0.0
H2953 H 0.57951 0.99619 0.82644 0.0
H2954 H 0.616 0.01927 0.86451 0.0
H2955 H 0.60883 0.01462 0.92755 0.0
H2956 H 0.60741 0.02966 0.80828 0.0
H2957 H 0.6005 0.98308 0.77156 0.0
H2958 H 0.58727 0.98287 0.79327 0.0
H2959 H 0.60143 0.98809 0.818 0.0
C2960 C 0.58194 0.99759 0.88385 0.0
C2961 C 0.59006 0.00265 0.91295 0.0
C2962 C 0.58602 1.00017 0.84829 0.0
C2963 C 0.59834 0.00782 0.84087 0.0
C2964 C 0.60648 0.0132 0.86975 0.0
H2965 H 0.61729 0.03018 0.61168 0.0
H2966 H 0.62139 0.02607 0.67426 0.0
C2967 C 0.60238 0.01057 0.90564 0.0
C2968 C 0.6023 0.01042 0.80265 0.0
H2969 H 0.59946 0.99572 0.72198 0.0
C2970 C 0.60608 0.02234 0.78945 0.0
C2971 C 0.60063 0.00086 0.77819 0.0
C2972 C 0.59736 0.98803 0.79105 0.0
C2973 C 0.60711 0.02471 0.75207 0.0
C2974 C 0.60435 0.01491 0.72757 0.0
C2975 C 0.60153 0.0032 0.74088 0.0
C2976 C 0.6023 0.01625 0.68872 0.0
C2977 C 0.6102 0.03746 0.73881 0.0
C2978 C 0.59025 0.01176 0.6761 0.0
C2979 C 0.58791 0.01412 0.64077 0.0
C2980 C 0.59758 0.02092 0.61724 0.0
C2981 C 0.60968 0.02484 0.62922 0.0
C2982 C 0.61203 0.02257 0.66491 0.0
H2983 H 0.61189 0.04403 0.76142 0.0
H2984 H 0.6185 0.0408 0.72159 0.0
H2985 H 0.60261 0.0373 0.72189 0.0
H2986 H 0.58263 0.00685 0.69412 0.0
H2987 H 0.5785 0.01099 0.63225 0.0
H2988 H 0.99177 0.56952 0.61657 0.0
H2989 H 0.99732 0.57583 0.67908 0.0
H2990 H 0.01439 0.61372 0.64624 0.0
H2991 H 0.009 0.6074 0.58287 0.0
H2992 H 0.0285 0.60835 0.69367 0.0
H2993 H 0.98167 0.59062 0.74762 0.0
H2994 H 0.98351 0.57893 0.72266 0.0
H2995 H 0.98489 0.59254 0.69972 0.0
C2996 C 0.99669 0.57921 0.62254 0.0
C2997 C 0.99991 0.58798 0.59485 0.0
C2998 C 0.99975 0.58281 0.65838 0.0
C2999 C 0.00595 0.59525 0.66745 0.0
C3000 C 0.00944 0.60407 0.63982 0.0
H3001 H 0.01553 0.60571 0.90393 0.0
H3002 H 0.01026 0.60891 0.84185 0.0
C3003 C 0.0064 0.60046 0.60371 0.0
C3004 C 0.00928 0.59879 0.70573 0.0
H3005 H 0.99737 0.59221 0.79091 0.0
C3006 C 0.02168 0.60507 0.71494 0.0
C3007 C 0.00038 0.59482 0.7335 0.0
C3008 C 0.98687 0.58898 0.72532 0.0
C3009 C 0.02547 0.60652 0.75122 0.0
C3010 C 0.01662 0.6013 0.77881 0.0
C3011 C 0.00417 0.596 0.76973 0.0
C3012 C 0.0201 0.59995 0.81637 0.0
C3013 C 0.03894 0.61332 0.75955 0.0
C3014 C 0.02711 0.59361 0.82258 0.0
C3015 C 0.0301 0.59179 0.8577 0.0
C3016 C 0.02601 0.59611 0.8875 0.0
C3017 C 0.0188 0.60228 0.88143 0.0
C3018 C 0.01584 0.60416 0.84606 0.0
H3019 H 0.04376 0.62039 0.73869 0.0
H3020 H 0.04059 0.61782 0.7865 0.0
H3021 H 0.043 0.60677 0.75938 0.0
H3022 H 0.03016 0.58992 0.80019 0.0
H3023 H 0.0356 0.58692 0.86146 0.0
H3024 H 0.41158 0.40368 0.59269 0.0
H3025 H 0.40476 0.40387 0.65513 0.0
H3026 H 0.44232 0.42334 0.68964 0.0
H3027 H 0.44914 0.42281 0.62807 0.0
H3028 H 0.42947 0.40512 0.73536 0.0
H3029 H 0.40425 0.43266 0.70765 0.0
H3030 H 0.39908 0.4186 0.68266 0.0
H3031 H 0.4141 0.43072 0.67457 0.0
C3032 C 0.41835 0.40801 0.61367 0.0
C3033 C 0.43089 0.41326 0.60552 0.0
C3034 C 0.41445 0.40816 0.64927 0.0
C3035 C 0.42303 0.41375 0.67703 0.0
C3036 C 0.43553 0.41895 0.66875 0.0
H3037 H 0.42222 0.44799 0.87444 0.0
H3038 H 0.4229 0.44117 0.81291 0.0
C3039 C 0.43941 0.41868 0.63347 0.0
C3040 C 0.41924 0.41434 0.71487 0.0
H3041 H 0.40496 0.42699 0.76799 0.0
C3042 C 0.42401 0.4098 0.74255 0.0
C3043 C 0.41215 0.42049 0.72414 0.0
C3044 C 0.40717 0.426 0.6958 0.0
C3045 C 0.42239 0.41174 0.7792 0.0
C3046 C 0.41548 0.41808 0.78847 0.0
C3047 C 0.41022 0.4221 0.76081 0.0
C3048 C 0.41475 0.42187 0.82624 0.0
C3049 C 0.42869 0.40761 0.80749 0.0
C3050 C 0.40991 0.41329 0.85437 0.0
C3051 C 0.40969 0.41722 0.88992 0.0
C3052 C 0.41411 0.42976 0.89768 0.0
C3053 C 0.41875 0.43827 0.86935 0.0
C3054 C 0.4191 0.43437 0.8341 0.0
H3055 H 0.43578 0.40534 0.7955 0.0
H3056 H 0.43308 0.41479 0.82839 0.0
H3057 H 0.42183 0.39927 0.82105 0.0
H3058 H 0.40627 0.40359 0.84884 0.0
H3059 H 0.40595 0.41046 0.9112 0.0
loop_
_geom_bond_atom_site_label_1
_geom_bond_atom_site_label_2
_geom_bond_distance
_geom_bond_site_symmetry_2
_ccdc_geom_bond_type
In0 O1 2.294 . S
In0 O2 2.326 . S
In0 O6 2.266 . S
In0 O7 2.326 . S
In0 O8 2.266 . S
In0 O9 2.326 . S
In0 O11 2.294 . S
In0 O12 2.326 . S
O1 In0 2.294 . S
O1 C10 1.240 . S
O2 In0 2.326 . S
O2 C10 1.252 . S
C3 O6 1.252 . S
C3 O7 1.260 . S
C4 O11 1.240 . S
C4 O12 1.252 . S
C5 O8 1.252 . S
C5 O9 1.260 . S
O6 In0 2.266 . S
O6 C3 1.252 . S
O7 In0 2.326 . S
O7 C3 1.260 . S
O8 In0 2.266 . S
O8 C5 1.252 . S
O9 In0 2.326 . S
O9 C5 1.260 . S
C10 O1 1.240 . S
C10 O2 1.252 . S
O11 In0 2.294 . S
O11 C4 1.240 . S
O12 In0 2.326 . S
O12 C4 1.252 . S
In13 O14 2.294 . S
In13 O15 2.326 . S
In13 O19 2.266 . S
In13 O20 2.326 . S
In13 O21 2.266 . S
In13 O22 2.326 . S
In13 O24 2.294 . S
In13 O25 2.326 . S
O14 In13 2.294 . S
O14 C23 1.240 . S
O15 In13 2.326 . S
O15 C23 1.252 . S
C16 O19 1.252 . S
C16 O20 1.260 . S
C17 O24 1.240 . S
C17 O25 1.252 . S
C18 O21 1.252 . S
C18 O22 1.260 . S
O19 In13 2.266 . S
O19 C16 1.252 . S
O20 In13 2.326 . S
O20 C16 1.260 . S
O21 In13 2.266 . S
O21 C18 1.252 . S
O22 In13 2.326 . S
O22 C18 1.260 . S
C23 O14 1.240 . S
C23 O15 1.252 . S
O24 In13 2.294 . S
O24 C17 1.240 . S
O25 In13 2.326 . S
O25 C17 1.252 . S
In26 O27 2.294 . S
In26 O28 2.326 . S
In26 O32 2.266 . S
In26 O33 2.326 . S
In26 O34 2.266 . S
In26 O35 2.326 . S
In26 O37 2.294 . S
In26 O38 2.326 . S
O27 In26 2.294 . S
O27 C36 1.240 . S
O28 In26 2.326 . S
O28 C36 1.252 . S
C29 O32 1.252 . S
C29 O33 1.260 . S
C30 O37 1.240 . S
C30 O38 1.252 . S
C31 O34 1.252 . S
C31 O35 1.260 . S
O32 In26 2.266 . S
O32 C29 1.252 . S
O33 In26 2.326 . S
O33 C29 1.260 . S
O34 In26 2.266 . S
O34 C31 1.252 . S
O35 In26 2.326 . S
O35 C31 1.260 . S
C36 O27 1.240 . S
C36 O28 1.252 . S
O37 In26 2.294 . S
O37 C30 1.240 . S
O38 In26 2.326 . S
O38 C30 1.252 . S
In39 O40 2.294 . S
In39 O41 2.326 . S
In39 O45 2.266 . S
In39 O46 2.326 . S
In39 O47 2.266 . S
In39 O48 2.326 . S
In39 O50 2.294 . S
In39 O51 2.326 . S
O40 In39 2.294 . S
O40 C49 1.240 . S
O41 In39 2.326 . S
O41 C49 1.252 . S
C42 O45 1.252 . S
C42 O46 1.260 . S
C43 O50 1.240 . S
C43 O51 1.252 . S
C44 O47 1.252 . S
C44 O48 1.260 . S
O45 In39 2.266 . S
O45 C42 1.252 . S
O46 In39 2.326 . S
O46 C42 1.260 . S
O47 In39 2.266 . S
O47 C44 1.252 . S
O48 In39 2.326 . S
O48 C44 1.260 . S
C49 O40 1.240 . S
C49 O41 1.252 . S
O50 In39 2.294 . S
O50 C43 1.240 . S
O51 In39 2.326 . S
O51 C43 1.252 . S
In52 O53 2.294 . S
In52 O54 2.326 . S
In52 O58 2.266 . S
In52 O59 2.326 . S
In52 O60 2.266 . S
In52 O61 2.326 . S
In52 O63 2.294 . S
In52 O64 2.326 . S
O53 In52 2.294 . S
O53 C62 1.240 . S
O54 In52 2.326 . S
O54 C62 1.252 . S
C55 O58 1.252 . S
C55 O59 1.260 . S
C56 O63 1.240 . S
C56 O64 1.252 . S
C57 O60 1.252 . S
C57 O61 1.260 . S
O58 In52 2.266 . S
O58 C55 1.252 . S
O59 In52 2.326 . S
O59 C55 1.260 . S
O60 In52 2.266 . S
O60 C57 1.252 . S
O61 In52 2.326 . S
O61 C57 1.260 . S
C62 O53 1.240 . S
C62 O54 1.252 . S
O63 In52 2.294 . S
O63 C56 1.240 . S
O64 In52 2.326 . S
O64 C56 1.252 . S
In65 O66 2.294 . S
In65 O67 2.326 . S
In65 O71 2.266 . S
In65 O72 2.326 . S
In65 O73 2.266 . S
In65 O74 2.326 . S
In65 O76 2.294 . S
In65 O77 2.326 . S
O66 In65 2.294 . S
O66 C75 1.240 . S
O67 In65 2.326 . S
O67 C75 1.252 . S
C68 O71 1.252 . S
C68 O72 1.260 . S
C69 O76 1.240 . S
C69 O77 1.252 . S
C70 O73 1.252 . S
C70 O74 1.260 . S
O71 In65 2.266 . S
O71 C68 1.252 . S
O72 In65 2.326 . S
O72 C68 1.260 . S
O73 In65 2.266 . S
O73 C70 1.252 . S
O74 In65 2.326 . S
O74 C70 1.260 . S
C75 O66 1.240 . S
C75 O67 1.252 . S
O76 In65 2.294 . S
O76 C69 1.240 . S
O77 In65 2.326 . S
O77 C69 1.252 . S
In78 O79 2.294 . S
In78 O80 2.326 . S
In78 O84 2.266 . S
In78 O85 2.326 . S
In78 O86 2.266 . S
In78 O87 2.326 . S
In78 O89 2.294 . S
In78 O90 2.326 . S
O79 In78 2.294 . S
O79 C88 1.240 . S
O80 In78 2.326 . S
O80 C88 1.252 . S
C81 O84 1.252 . S
C81 O85 1.260 . S
C82 O89 1.240 . S
C82 O90 1.252 . S
C83 O86 1.252 . S
C83 O87 1.260 . S
O84 In78 2.266 . S
O84 C81 1.252 . S
O85 In78 2.326 . S
O85 C81 1.260 . S
O86 In78 2.266 . S
O86 C83 1.252 . S
O87 In78 2.326 . S
O87 C83 1.260 . S
C88 O79 1.240 . S
C88 O80 1.252 . S
O89 In78 2.294 . S
O89 C82 1.240 . S
O90 In78 2.326 . S
O90 C82 1.252 . S
In91 O92 2.294 . S
In91 O93 2.326 . S
In91 O97 2.266 . S
In91 O98 2.326 . S
In91 O99 2.266 . S
In91 O100 2.326 . S
In91 O102 2.294 . S
In91 O103 2.326 . S
O92 In91 2.294 . S
O92 C101 1.240 . S
O93 In91 2.326 . S
O93 C101 1.252 . S
C94 O97 1.252 . S
C94 O98 1.260 . S
C95 O102 1.240 . S
C95 O103 1.252 . S
C96 O99 1.252 . S
C96 O100 1.260 . S
O97 In91 2.266 . S
O97 C94 1.252 . S
O98 In91 2.326 . S
O98 C94 1.260 . S
O99 In91 2.266 . S
O99 C96 1.252 . S
O100 In91 2.326 . S
O100 C96 1.260 . S
C101 O92 1.240 . S
C101 O93 1.252 . S
O102 In91 2.294 . S
O102 C95 1.240 . S
O103 In91 2.326 . S
O103 C95 1.252 . S
In104 O105 2.294 . S
In104 O106 2.326 . S
In104 O110 2.266 . S
In104 O111 2.326 . S
In104 O112 2.266 . S
In104 O113 2.326 . S
In104 O115 2.294 . S
In104 O116 2.326 . S
O105 In104 2.294 . S
O105 C114 1.240 . S
O106 In104 2.326 . S
O106 C114 1.252 . S
C107 O110 1.252 . S
C107 O111 1.260 . S
C108 O115 1.240 . S
C108 O116 1.252 . S
C109 O112 1.252 . S
C109 O113 1.260 . S
O110 In104 2.266 . S
O110 C107 1.252 . S
O111 In104 2.326 . S
O111 C107 1.260 . S
O112 In104 2.266 . S
O112 C109 1.252 . S
O113 In104 2.326 . S
O113 C109 1.260 . S
C114 O105 1.240 . S
C114 O106 1.252 . S
O115 In104 2.294 . S
O115 C108 1.240 . S
O116 In104 2.326 . S
O116 C108 1.252 . S
In117 O118 2.294 . S
In117 O119 2.326 . S
In117 O123 2.266 . S
In117 O124 2.326 . S
In117 O125 2.266 . S
In117 O126 2.326 . S
In117 O128 2.294 . S
In117 O129 2.326 . S
O118 In117 2.294 . S
O118 C127 1.240 . S
O119 In117 2.326 . S
O119 C127 1.252 . S
C120 O123 1.252 . S
C120 O124 1.260 . S
C121 O128 1.240 . S
C121 O129 1.252 . S
C122 O125 1.252 . S
C122 O126 1.260 . S
O123 In117 2.266 . S
O123 C120 1.252 . S
O124 In117 2.326 . S
O124 C120 1.260 . S
O125 In117 2.266 . S
O125 C122 1.252 . S
O126 In117 2.326 . S
O126 C122 1.260 . S
C127 O118 1.240 . S
C127 O119 1.252 . S
O128 In117 2.294 . S
O128 C121 1.240 . S
O129 In117 2.326 . S
O129 C121 1.252 . S
In130 O131 2.294 . S
In130 O132 2.326 . S
In130 O136 2.266 . S
In130 O137 2.326 . S
In130 O138 2.266 . S
In130 O139 2.326 . S
In130 O141 2.294 . S
In130 O142 2.326 . S
O131 In130 2.294 . S
O131 C140 1.240 . S
O132 In130 2.326 . S
O132 C140 1.252 . S
C133 O136 1.252 . S
C133 O137 1.260 . S
C134 O141 1.240 . S
C134 O142 1.252 . S
C135 O138 1.252 . S
C135 O139 1.260 . S
O136 In130 2.266 . S
O136 C133 1.252 . S
O137 In130 2.326 . S
O137 C133 1.260 . S
O138 In130 2.266 . S
O138 C135 1.252 . S
O139 In130 2.326 . S
O139 C135 1.260 . S
C140 O131 1.240 . S
C140 O132 1.252 . S
O141 In130 2.294 . S
O141 C134 1.240 . S
O142 In130 2.326 . S
O142 C134 1.252 . S
In143 O144 2.294 . S
In143 O145 2.326 . S
In143 O149 2.266 . S
In143 O150 2.326 . S
In143 O151 2.266 . S
In143 O152 2.326 . S
In143 O154 2.294 . S
In143 O155 2.326 . S
O144 In143 2.294 . S
O144 C153 1.240 . S
O145 In143 2.326 . S
O145 C153 1.252 . S
C146 O149 1.252 . S
C146 O150 1.260 . S
C147 O154 1.240 . S
C147 O155 1.252 . S
C148 O151 1.252 . S
C148 O152 1.260 . S
O149 In143 2.266 . S
O149 C146 1.252 . S
O150 In143 2.326 . S
O150 C146 1.260 . S
O151 In143 2.266 . S
O151 C148 1.252 . S
O152 In143 2.326 . S
O152 C148 1.260 . S
C153 O144 1.240 . S
C153 O145 1.252 . S
O154 In143 2.294 . S
O154 C147 1.240 . S
O155 In143 2.326 . S
O155 C147 1.252 . S
In156 O157 2.294 1_455 S
In156 O158 2.326 . S
In156 O162 2.267 1_455 S
In156 O163 2.326 . S
In156 O164 2.265 . S
In156 O165 2.325 . S
In156 O167 2.294 . S
In156 O168 2.327 1_455 S
O157 In156 2.294 1_655 S
O157 C166 1.240 . S
O158 In156 2.326 . S
O158 C166 1.252 1_455 S
C159 O162 1.252 . S
C159 O163 1.260 1_655 S
C160 O167 1.240 . S
C160 O168 1.252 1_455 S
C161 O164 1.252 . S
C161 O165 1.260 . S
O162 In156 2.267 1_655 S
O162 C159 1.252 . S
O163 In156 2.326 . S
O163 C159 1.260 1_455 S
O164 In156 2.265 . S
O164 C161 1.252 . S
O165 In156 2.325 . S
O165 C161 1.260 . S
C166 O157 1.240 . S
C166 O158 1.252 1_655 S
O167 In156 2.294 . S
O167 C160 1.240 . S
O168 In156 2.327 1_655 S
O168 C160 1.252 1_655 S
In169 O170 2.294 . S
In169 O171 2.326 . S
In169 O175 2.266 . S
In169 O176 2.326 . S
In169 O177 2.266 . S
In169 O178 2.326 . S
In169 O180 2.294 . S
In169 O181 2.326 . S
O170 In169 2.294 . S
O170 C179 1.240 . S
O171 In169 2.326 . S
O171 C179 1.252 . S
C172 O175 1.252 . S
C172 O176 1.260 . S
C173 O180 1.240 . S
C173 O181 1.252 . S
C174 O177 1.252 . S
C174 O178 1.260 . S
O175 In169 2.266 . S
O175 C172 1.252 . S
O176 In169 2.326 . S
O176 C172 1.260 . S
O177 In169 2.266 . S
O177 C174 1.252 . S
O178 In169 2.326 . S
O178 C174 1.260 . S
C179 O170 1.240 . S
C179 O171 1.252 . S
O180 In169 2.294 . S
O180 C173 1.240 . S
O181 In169 2.326 . S
O181 C173 1.252 . S
In182 O183 2.294 . S
In182 O184 2.326 . S
In182 O188 2.266 . S
In182 O189 2.326 . S
In182 O190 2.266 . S
In182 O191 2.326 . S
In182 O193 2.294 . S
In182 O194 2.326 . S
O183 In182 2.294 . S
O183 C192 1.240 . S
O184 In182 2.326 . S
O184 C192 1.252 . S
C185 O188 1.252 . S
C185 O189 1.260 . S
C186 O193 1.240 . S
C186 O194 1.252 . S
C187 O190 1.252 . S
C187 O191 1.260 . S
O188 In182 2.266 . S
O188 C185 1.252 . S
O189 In182 2.326 . S
O189 C185 1.260 . S
O190 In182 2.266 . S
O190 C187 1.252 . S
O191 In182 2.326 . S
O191 C187 1.260 . S
C192 O183 1.240 . S
C192 O184 1.252 . S
O193 In182 2.294 . S
O193 C186 1.240 . S
O194 In182 2.326 . S
O194 C186 1.252 . S
In195 O196 2.294 . S
In195 O197 2.326 . S
In195 O201 2.266 . S
In195 O202 2.326 . S
In195 O203 2.266 . S
In195 O204 2.326 . S
In195 O206 2.294 . S
In195 O207 2.326 . S
O196 In195 2.294 . S
O196 C205 1.240 . S
O197 In195 2.326 . S
O197 C205 1.252 . S
C198 O201 1.252 . S
C198 O202 1.260 . S
C199 O206 1.240 . S
C199 O207 1.252 . S
C200 O203 1.252 . S
C200 O204 1.260 . S
O201 In195 2.266 . S
O201 C198 1.252 . S
O202 In195 2.326 . S
O202 C198 1.260 . S
O203 In195 2.266 . S
O203 C200 1.252 . S
O204 In195 2.326 . S
O204 C200 1.260 . S
C205 O196 1.240 . S
C205 O197 1.252 . S
O206 In195 2.294 . S
O206 C199 1.240 . S
O207 In195 2.326 . S
O207 C199 1.252 . S
In208 O209 2.294 . S
In208 O210 2.326 . S
In208 O214 2.266 . S
In208 O215 2.326 . S
In208 O216 2.266 . S
In208 O217 2.326 . S
In208 O219 2.294 . S
In208 O220 2.326 . S
O209 In208 2.294 . S
O209 C218 1.240 . S
O210 In208 2.326 . S
O210 C218 1.252 . S
C211 O214 1.252 . S
C211 O215 1.260 . S
C212 O219 1.240 . S
C212 O220 1.252 . S
C213 O216 1.252 . S
C213 O217 1.260 . S
O214 In208 2.266 . S
O214 C211 1.252 . S
O215 In208 2.326 . S
O215 C211 1.260 . S
O216 In208 2.266 . S
O216 C213 1.252 . S
O217 In208 2.326 . S
O217 C213 1.260 . S
C218 O209 1.240 . S
C218 O210 1.252 . S
O219 In208 2.294 . S
O219 C212 1.240 . S
O220 In208 2.326 . S
O220 C212 1.252 . S
In221 O222 2.294 . S
In221 O223 2.326 . S
In221 O227 2.266 . S
In221 O228 2.326 . S
In221 O229 2.266 . S
In221 O230 2.326 . S
In221 O232 2.294 . S
In221 O233 2.326 . S
O222 In221 2.294 . S
O222 C231 1.240 . S
O223 In221 2.326 . S
O223 C231 1.252 . S
C224 O227 1.252 . S
C224 O228 1.260 . S
C225 O232 1.240 . S
C225 O233 1.252 . S
C226 O229 1.252 . S
C226 O230 1.260 . S
O227 In221 2.266 . S
O227 C224 1.252 . S
O228 In221 2.326 . S
O228 C224 1.260 . S
O229 In221 2.266 . S
O229 C226 1.252 . S
O230 In221 2.326 . S
O230 C226 1.260 . S
C231 O222 1.240 . S
C231 O223 1.252 . S
O232 In221 2.294 . S
O232 C225 1.240 . S
O233 In221 2.326 . S
O233 C225 1.252 . S
In234 O235 2.294 . S
In234 O236 2.326 . S
In234 O240 2.266 . S
In234 O241 2.326 . S
In234 O242 2.266 . S
In234 O243 2.326 . S
In234 O245 2.294 . S
In234 O246 2.326 . S
O235 In234 2.294 . S
O235 C244 1.240 . S
O236 In234 2.326 . S
O236 C244 1.252 . S
C237 O240 1.252 . S
C237 O241 1.260 . S
C238 O245 1.240 . S
C238 O246 1.252 . S
C239 O242 1.252 . S
C239 O243 1.260 . S
O240 In234 2.266 . S
O240 C237 1.252 . S
O241 In234 2.326 . S
O241 C237 1.260 . S
O242 In234 2.266 . S
O242 C239 1.252 . S
O243 In234 2.326 . S
O243 C239 1.260 . S
C244 O235 1.240 . S
C244 O236 1.252 . S
O245 In234 2.294 . S
O245 C238 1.240 . S
O246 In234 2.326 . S
O246 C238 1.252 . S
In247 O248 2.294 . S
In247 O249 2.326 . S
In247 O253 2.266 . S
In247 O254 2.326 . S
In247 O255 2.266 . S
In247 O256 2.326 . S
In247 O258 2.294 . S
In247 O259 2.326 . S
O248 In247 2.294 . S
O248 C257 1.240 . S
O249 In247 2.326 . S
O249 C257 1.252 . S
C250 O253 1.252 . S
C250 O254 1.260 . S
C251 O258 1.240 . S
C251 O259 1.252 . S
C252 O255 1.252 . S
C252 O256 1.260 . S
O253 In247 2.266 . S
O253 C250 1.252 . S
O254 In247 2.326 . S
O254 C250 1.260 . S
O255 In247 2.266 . S
O255 C252 1.252 . S
O256 In247 2.326 . S
O256 C252 1.260 . S
C257 O248 1.240 . S
C257 O249 1.252 . S
O258 In247 2.294 . S
O258 C251 1.240 . S
O259 In247 2.326 . S
O259 C251 1.252 . S
In260 O261 2.294 . S
In260 O262 2.326 . S
In260 O266 2.266 . S
In260 O267 2.326 . S
In260 O268 2.266 . S
In260 O269 2.326 . S
In260 O271 2.294 . S
In260 O272 2.326 . S
O261 In260 2.294 . S
O261 C270 1.240 . S
O262 In260 2.326 . S
O262 C270 1.252 . S
C263 O266 1.252 . S
C263 O267 1.260 . S
C264 O271 1.240 . S
C264 O272 1.252 . S
C265 O268 1.252 . S
C265 O269 1.260 . S
O266 In260 2.266 . S
O266 C263 1.252 . S
O267 In260 2.326 . S
O267 C263 1.260 . S
O268 In260 2.266 . S
O268 C265 1.252 . S
O269 In260 2.326 . S
O269 C265 1.260 . S
C270 O261 1.240 . S
C270 O262 1.252 . S
O271 In260 2.294 . S
O271 C264 1.240 . S
O272 In260 2.326 . S
O272 C264 1.252 . S
In273 O274 2.297 1_565 S
In273 O275 2.330 . S
In273 O279 2.264 1_564 S
In273 O280 2.322 1_554 S
In273 O281 2.265 1_554 S
In273 O282 2.325 1_554 S
In273 O284 2.294 . S
In273 O285 2.327 1_565 S
O274 In273 2.297 1_545 S
O274 C283 1.240 . S
O275 In273 2.330 . S
O275 C283 1.252 1_565 S
C276 O279 1.252 . S
C276 O280 1.260 1_545 S
C277 O284 1.240 . S
C277 O285 1.252 1_565 S
C278 O281 1.252 . S
C278 O282 1.260 . S
O279 In273 2.264 1_546 S
O279 C276 1.252 . S
O280 In273 2.322 1_556 S
O280 C276 1.260 1_565 S
O281 In273 2.265 1_556 S
O281 C278 1.252 . S
O282 In273 2.325 1_556 S
O282 C278 1.260 . S
C283 O274 1.240 . S
C283 O275 1.252 1_545 S
O284 In273 2.294 . S
O284 C277 1.240 . S
O285 In273 2.327 1_545 S
O285 C277 1.252 1_545 S
In286 O287 2.294 . S
In286 O288 2.327 . S
In286 O292 2.265 1_554 S
In286 O293 2.325 1_554 S
In286 O294 2.264 1_554 S
In286 O295 2.322 1_554 S
In286 O297 2.296 . S
In286 O298 2.330 . S
O287 In286 2.294 . S
O287 C296 1.240 . S
O288 In286 2.327 . S
O288 C296 1.252 . S
C289 O292 1.252 . S
C289 O293 1.260 . S
C290 O297 1.240 . S
C290 O298 1.252 . S
C291 O294 1.252 . S
C291 O295 1.260 . S
O292 In286 2.265 1_556 S
O292 C289 1.252 . S
O293 In286 2.325 1_556 S
O293 C289 1.260 . S
O294 In286 2.264 1_556 S
O294 C291 1.252 . S
O295 In286 2.322 1_556 S
O295 C291 1.260 . S
C296 O287 1.240 . S
C296 O288 1.252 . S
O297 In286 2.296 . S
O297 C290 1.240 . S
O298 In286 2.330 . S
O298 C290 1.252 . S
In299 O300 2.296 . S
In299 O301 2.330 . S
In299 O305 2.264 1_554 S
In299 O306 2.322 1_554 S
In299 O307 2.265 1_554 S
In299 O308 2.325 1_554 S
In299 O310 2.294 . S
In299 O311 2.327 . S
O300 In299 2.296 . S
O300 C309 1.240 . S
O301 In299 2.330 . S
O301 C309 1.252 . S
C302 O305 1.252 . S
C302 O306 1.260 . S
C303 O310 1.240 . S
C303 O311 1.252 . S
C304 O307 1.252 . S
C304 O308 1.260 . S
O305 In299 2.264 1_556 S
O305 C302 1.252 . S
O306 In299 2.322 1_556 S
O306 C302 1.260 . S
O307 In299 2.265 1_556 S
O307 C304 1.252 . S
O308 In299 2.325 1_556 S
O308 C304 1.260 . S
C309 O300 1.240 . S
C309 O301 1.252 . S
O310 In299 2.294 . S
O310 C303 1.240 . S
O311 In299 2.327 . S
O311 C303 1.252 . S
In312 O313 2.294 . S
In312 O314 2.326 . S
In312 O318 2.266 . S
In312 O319 2.326 . S
In312 O320 2.266 . S
In312 O321 2.326 . S
In312 O323 2.294 . S
In312 O324 2.326 . S
O313 In312 2.294 . S
O313 C322 1.240 . S
O314 In312 2.326 . S
O314 C322 1.252 . S
C315 O318 1.252 . S
C315 O319 1.260 . S
C316 O323 1.240 . S
C316 O324 1.252 . S
C317 O320 1.252 . S
C317 O321 1.260 . S
O318 In312 2.266 . S
O318 C315 1.252 . S
O319 In312 2.326 . S
O319 C315 1.260 . S
O320 In312 2.266 . S
O320 C317 1.252 . S
O321 In312 2.326 . S
O321 C317 1.260 . S
C322 O313 1.240 . S
C322 O314 1.252 . S
O323 In312 2.294 . S
O323 C316 1.240 . S
O324 In312 2.326 . S
O324 C316 1.252 . S
In325 O326 2.294 . S
In325 O327 2.326 . S
In325 O331 2.266 . S
In325 O332 2.326 . S
In325 O333 2.266 . S
In325 O334 2.326 . S
In325 O336 2.294 . S
In325 O337 2.326 . S
O326 In325 2.294 . S
O326 C335 1.240 . S
O327 In325 2.326 . S
O327 C335 1.252 . S
C328 O331 1.252 . S
C328 O332 1.260 . S
C329 O336 1.240 . S
C329 O337 1.252 . S
C330 O333 1.252 . S
C330 O334 1.260 . S
O331 In325 2.266 . S
O331 C328 1.252 . S
O332 In325 2.326 . S
O332 C328 1.260 . S
O333 In325 2.266 . S
O333 C330 1.252 . S
O334 In325 2.326 . S
O334 C330 1.260 . S
C335 O326 1.240 . S
C335 O327 1.252 . S
O336 In325 2.294 . S
O336 C329 1.240 . S
O337 In325 2.326 . S
O337 C329 1.252 . S
In338 O339 2.294 . S
In338 O340 2.326 . S
In338 O344 2.266 . S
In338 O345 2.326 . S
In338 O346 2.266 . S
In338 O347 2.326 . S
In338 O349 2.294 . S
In338 O350 2.326 . S
O339 In338 2.294 . S
O339 C348 1.240 . S
O340 In338 2.326 . S
O340 C348 1.252 . S
C341 O344 1.252 . S
C341 O345 1.260 . S
C342 O349 1.240 . S
C342 O350 1.252 . S
C343 O346 1.252 . S
C343 O347 1.260 . S
O344 In338 2.266 . S
O344 C341 1.252 . S
O345 In338 2.326 . S
O345 C341 1.260 . S
O346 In338 2.266 . S
O346 C343 1.252 . S
O347 In338 2.326 . S
O347 C343 1.260 . S
C348 O339 1.240 . S
C348 O340 1.252 . S
O349 In338 2.294 . S
O349 C342 1.240 . S
O350 In338 2.326 . S
O350 C342 1.252 . S
In351 O352 2.297 1_545 S
In351 O353 2.330 . S
In351 O357 2.264 1_546 S
In351 O358 2.322 1_556 S
In351 O359 2.265 1_556 S
In351 O360 2.325 1_556 S
In351 O362 2.294 . S
In351 O363 2.327 1_545 S
O352 In351 2.297 1_565 S
O352 C361 1.240 . S
O353 In351 2.330 . S
O353 C361 1.252 1_545 S
C354 O357 1.252 . S
C354 O358 1.260 1_565 S
C355 O362 1.240 . S
C355 O363 1.252 1_545 S
C356 O359 1.252 . S
C356 O360 1.260 . S
O357 In351 2.264 1_564 S
O357 C354 1.252 . S
O358 In351 2.322 1_554 S
O358 C354 1.260 1_545 S
O359 In351 2.265 1_554 S
O359 C356 1.252 . S
O360 In351 2.325 1_554 S
O360 C356 1.260 . S
C361 O352 1.240 . S
C361 O353 1.252 1_565 S
O362 In351 2.294 . S
O362 C355 1.240 . S
O363 In351 2.327 1_565 S
O363 C355 1.252 1_565 S
In364 O365 2.296 . S
In364 O366 2.330 . S
In364 O370 2.264 1_556 S
In364 O371 2.322 1_556 S
In364 O372 2.265 1_556 S
In364 O373 2.325 1_556 S
In364 O375 2.294 . S
In364 O376 2.327 . S
O365 In364 2.296 . S
O365 C374 1.240 . S
O366 In364 2.330 . S
O366 C374 1.252 . S
C367 O370 1.252 . S
C367 O371 1.260 . S
C368 O375 1.240 . S
C368 O376 1.252 . S
C369 O372 1.252 . S
C369 O373 1.260 . S
O370 In364 2.264 1_554 S
O370 C367 1.252 . S
O371 In364 2.322 1_554 S
O371 C367 1.260 . S
O372 In364 2.265 1_554 S
O372 C369 1.252 . S
O373 In364 2.325 1_554 S
O373 C369 1.260 . S
C374 O365 1.240 . S
C374 O366 1.252 . S
O375 In364 2.294 . S
O375 C368 1.240 . S
O376 In364 2.327 . S
O376 C368 1.252 . S
In377 O378 2.294 . S
In377 O379 2.327 . S
In377 O383 2.265 1_556 S
In377 O384 2.325 1_556 S
In377 O385 2.264 1_556 S
In377 O386 2.322 1_556 S
In377 O388 2.296 . S
In377 O389 2.330 . S
O378 In377 2.294 . S
O378 C387 1.240 . S
O379 In377 2.327 . S
O379 C387 1.252 . S
C380 O383 1.252 . S
C380 O384 1.260 . S
C381 O388 1.240 . S
C381 O389 1.252 . S
C382 O385 1.252 . S
C382 O386 1.260 . S
O383 In377 2.265 1_554 S
O383 C380 1.252 . S
O384 In377 2.325 1_554 S
O384 C380 1.260 . S
O385 In377 2.264 1_554 S
O385 C382 1.252 . S
O386 In377 2.322 1_554 S
O386 C382 1.260 . S
C387 O378 1.240 . S
C387 O379 1.252 . S
O388 In377 2.296 . S
O388 C381 1.240 . S
O389 In377 2.330 . S
O389 C381 1.252 . S
In390 O391 2.294 . S
In390 O392 2.327 1_655 S
In390 O396 2.265 . S
In390 O397 2.325 . S
In390 O398 2.267 1_655 S
In390 O399 2.326 . S
In390 O401 2.294 1_655 S
In390 O402 2.326 . S
O391 In390 2.294 . S
O391 C400 1.240 . S
O392 In390 2.327 1_455 S
O392 C400 1.252 1_455 S
C393 O396 1.252 . S
C393 O397 1.260 . S
C394 O401 1.240 . S
C394 O402 1.252 1_455 S
C395 O398 1.252 . S
C395 O399 1.260 1_455 S
O396 In390 2.265 . S
O396 C393 1.252 . S
O397 In390 2.325 . S
O397 C393 1.260 . S
O398 In390 2.267 1_455 S
O398 C395 1.252 . S
O399 In390 2.326 . S
O399 C395 1.260 1_655 S
C400 O391 1.240 . S
C400 O392 1.252 1_655 S
O401 In390 2.294 1_455 S
O401 C394 1.240 . S
O402 In390 2.326 . S
O402 C394 1.252 1_655 S
In403 O404 2.294 . S
In403 O405 2.326 . S
In403 O409 2.266 . S
In403 O410 2.326 . S
In403 O411 2.266 . S
In403 O412 2.326 . S
In403 O414 2.294 . S
In403 O415 2.326 . S
O404 In403 2.294 . S
O404 C413 1.240 . S
O405 In403 2.326 . S
O405 C413 1.252 . S
C406 O409 1.252 . S
C406 O410 1.260 . S
C407 O414 1.240 . S
C407 O415 1.252 . S
C408 O411 1.252 . S
C408 O412 1.260 . S
O409 In403 2.266 . S
O409 C406 1.252 . S
O410 In403 2.326 . S
O410 C406 1.260 . S
O411 In403 2.266 . S
O411 C408 1.252 . S
O412 In403 2.326 . S
O412 C408 1.260 . S
C413 O404 1.240 . S
C413 O405 1.252 . S
O414 In403 2.294 . S
O414 C407 1.240 . S
O415 In403 2.326 . S
O415 C407 1.252 . S
In416 O417 2.294 . S
In416 O418 2.326 . S
In416 O422 2.266 . S
In416 O423 2.326 . S
In416 O424 2.266 . S
In416 O425 2.326 . S
In416 O427 2.294 . S
In416 O428 2.326 . S
O417 In416 2.294 . S
O417 C426 1.240 . S
O418 In416 2.326 . S
O418 C426 1.252 . S
C419 O422 1.252 . S
C419 O423 1.260 . S
C420 O427 1.240 . S
C420 O428 1.252 . S
C421 O424 1.252 . S
C421 O425 1.260 . S
O422 In416 2.266 . S
O422 C419 1.252 . S
O423 In416 2.326 . S
O423 C419 1.260 . S
O424 In416 2.266 . S
O424 C421 1.252 . S
O425 In416 2.326 . S
O425 C421 1.260 . S
C426 O417 1.240 . S
C426 O418 1.252 . S
O427 In416 2.294 . S
O427 C420 1.240 . S
O428 In416 2.326 . S
O428 C420 1.252 . S
In429 O430 2.294 . S
In429 O431 2.326 . S
In429 O435 2.266 . S
In429 O436 2.326 . S
In429 O437 2.266 . S
In429 O438 2.326 . S
In429 O440 2.294 . S
In429 O441 2.326 . S
O430 In429 2.294 . S
O430 C439 1.240 . S
O431 In429 2.326 . S
O431 C439 1.252 . S
C432 O435 1.252 . S
C432 O436 1.260 . S
C433 O440 1.240 . S
C433 O441 1.252 . S
C434 O437 1.252 . S
C434 O438 1.260 . S
O435 In429 2.266 . S
O435 C432 1.252 . S
O436 In429 2.326 . S
O436 C432 1.260 . S
O437 In429 2.266 . S
O437 C434 1.252 . S
O438 In429 2.326 . S
O438 C434 1.260 . S
C439 O430 1.240 . S
C439 O431 1.252 . S
O440 In429 2.294 . S
O440 C433 1.240 . S
O441 In429 2.326 . S
O441 C433 1.252 . S
In442 O443 2.294 . S
In442 O444 2.326 . S
In442 O448 2.266 . S
In442 O449 2.326 . S
In442 O450 2.266 . S
In442 O451 2.326 . S
In442 O453 2.294 . S
In442 O454 2.326 . S
O443 In442 2.294 . S
O443 C452 1.240 . S
O444 In442 2.326 . S
O444 C452 1.252 . S
C445 O448 1.252 . S
C445 O449 1.260 . S
C446 O453 1.240 . S
C446 O454 1.252 . S
C447 O450 1.252 . S
C447 O451 1.260 . S
O448 In442 2.266 . S
O448 C445 1.252 . S
O449 In442 2.326 . S
O449 C445 1.260 . S
O450 In442 2.266 . S
O450 C447 1.252 . S
O451 In442 2.326 . S
O451 C447 1.260 . S
C452 O443 1.240 . S
C452 O444 1.252 . S
O453 In442 2.294 . S
O453 C446 1.240 . S
O454 In442 2.326 . S
O454 C446 1.252 . S
In455 O456 2.294 . S
In455 O457 2.326 . S
In455 O461 2.266 . S
In455 O462 2.326 . S
In455 O463 2.266 . S
In455 O464 2.326 . S
In455 O466 2.294 . S
In455 O467 2.326 . S
O456 In455 2.294 . S
O456 C465 1.240 . S
O457 In455 2.326 . S
O457 C465 1.252 . S
C458 O461 1.252 . S
C458 O462 1.260 . S
C459 O466 1.240 . S
C459 O467 1.252 . S
C460 O463 1.252 . S
C460 O464 1.260 . S
O461 In455 2.266 . S
O461 C458 1.252 . S
O462 In455 2.326 . S
O462 C458 1.260 . S
O463 In455 2.266 . S
O463 C460 1.252 . S
O464 In455 2.326 . S
O464 C460 1.260 . S
C465 O456 1.240 . S
C465 O457 1.252 . S
O466 In455 2.294 . S
O466 C459 1.240 . S
O467 In455 2.326 . S
O467 C459 1.252 . S
H468 C476 0.929 . S
H469 C478 0.930 . S
H470 C480 0.930 . S
H471 C483 0.929 . S
H472 C486 0.930 . S
H473 C488 0.960 . S
H474 C488 0.960 . S
H475 C488 0.960 . S
C476 H468 0.929 . S
C476 C477 1.377 . S
C476 C478 1.384 . S
C477 C476 1.377 . S
C477 C483 1.390 . S
C478 H469 0.930 . S
C478 C476 1.384 . S
C478 C479 1.372 . S
C479 C478 1.372 . S
C479 C480 1.400 . S
C479 C484 1.490 . S
C480 H470 0.930 . S
C480 C479 1.400 . S
C480 C483 1.386 . S
H481 C497 0.930 . S
H482 C498 0.931 . S
C483 H471 0.929 . S
C483 C477 1.390 . S
C483 C480 1.386 . S
C484 C479 1.490 . S
C484 C486 1.395 . S
C484 C487 1.403 . S
H485 C491 0.930 . S
C486 H472 0.930 . S
C486 C484 1.395 . S
C486 C489 1.403 . S
C487 C484 1.403 . S
C487 C488 1.524 . S
C487 C491 1.400 . S
C488 H473 0.960 . S
C488 H474 0.960 . S
C488 H475 0.960 . S
C488 C487 1.524 . S
C489 C486 1.403 . S
C489 C490 1.392 . S
C489 C493 1.495 . S
C490 C489 1.392 . S
C490 C491 1.385 . S
C490 C492 1.478 . S
C491 H485 0.930 . S
C491 C487 1.400 . S
C491 C490 1.385 . S
C492 C490 1.478 . S
C492 C494 1.381 . S
C492 C498 1.383 . S
C493 C489 1.495 . S
C493 H499 0.959 . S
C493 H500 0.961 . S
C493 H501 0.960 . S
C494 C492 1.381 . S
C494 C495 1.394 . S
C494 H502 0.930 . S
C495 C494 1.394 . S
C495 C496 1.383 . S
C495 H503 0.929 . S
C496 C495 1.383 . S
C496 C497 1.377 . S
C497 H481 0.930 . S
C497 C496 1.377 . S
C497 C498 1.379 . S
C498 H482 0.931 . S
C498 C492 1.383 . S
C498 C497 1.379 . S
H499 C493 0.959 . S
H500 C493 0.961 . S
H501 C493 0.960 . S
H502 C494 0.930 . S
H503 C495 0.929 . S
H504 C512 0.929 . S
H505 C514 0.930 . S
H506 C516 0.930 . S
H507 C519 0.929 . S
H508 C522 0.930 . S
H509 C524 0.960 . S
H510 C524 0.960 . S
H511 C524 0.960 . S
C512 H504 0.929 . S
C512 C513 1.377 . S
C512 C514 1.384 . S
C513 C512 1.377 . S
C513 C519 1.390 . S
C514 H505 0.930 . S
C514 C512 1.384 . S
C514 C515 1.372 . S
C515 C514 1.372 . S
C515 C516 1.400 . S
C515 C520 1.490 . S
C516 H506 0.930 . S
C516 C515 1.400 . S
C516 C519 1.386 . S
H517 C533 0.930 . S
H518 C534 0.931 . S
C519 H507 0.929 . S
C519 C513 1.390 . S
C519 C516 1.386 . S
C520 C515 1.490 . S
C520 C522 1.395 . S
C520 C523 1.403 . S
H521 C527 0.930 . S
C522 H508 0.930 . S
C522 C520 1.395 . S
C522 C525 1.403 . S
C523 C520 1.403 . S
C523 C524 1.524 . S
C523 C527 1.400 . S
C524 H509 0.960 . S
C524 H510 0.960 . S
C524 H511 0.960 . S
C524 C523 1.524 . S
C525 C522 1.403 . S
C525 C526 1.392 . S
C525 C529 1.495 . S
C526 C525 1.392 . S
C526 C527 1.385 . S
C526 C528 1.478 . S
C527 H521 0.930 . S
C527 C523 1.400 . S
C527 C526 1.385 . S
C528 C526 1.478 . S
C528 C530 1.381 . S
C528 C534 1.383 . S
C529 C525 1.495 . S
C529 H535 0.959 . S
C529 H536 0.961 . S
C529 H537 0.960 . S
C530 C528 1.381 . S
C530 C531 1.394 . S
C530 H538 0.930 . S
C531 C530 1.394 . S
C531 C532 1.383 . S
C531 H539 0.929 . S
C532 C531 1.383 . S
C532 C533 1.377 . S
C533 H517 0.930 . S
C533 C532 1.377 . S
C533 C534 1.379 . S
C534 H518 0.931 . S
C534 C528 1.383 . S
C534 C533 1.379 . S
H535 C529 0.959 . S
H536 C529 0.961 . S
H537 C529 0.960 . S
H538 C530 0.930 . S
H539 C531 0.929 . S
H540 C548 0.929 . S
H541 C550 0.930 . S
H542 C552 0.930 . S
H543 C555 0.929 . S
H544 C558 0.930 . S
H545 C560 0.960 . S
H546 C560 0.960 . S
H547 C560 0.960 . S
C548 H540 0.929 . S
C548 C549 1.377 . S
C548 C550 1.384 . S
C549 C548 1.377 . S
C549 C555 1.390 . S
C550 H541 0.930 . S
C550 C548 1.384 . S
C550 C551 1.372 . S
C551 C550 1.372 . S
C551 C552 1.400 . S
C551 C556 1.490 . S
C552 H542 0.930 . S
C552 C551 1.400 . S
C552 C555 1.386 . S
H553 C569 0.930 . S
H554 C570 0.931 . S
C555 H543 0.929 . S
C555 C549 1.390 . S
C555 C552 1.386 . S
C556 C551 1.490 . S
C556 C558 1.395 . S
C556 C559 1.403 . S
H557 C563 0.930 . S
C558 H544 0.930 . S
C558 C556 1.395 . S
C558 C561 1.403 . S
C559 C556 1.403 . S
C559 C560 1.524 . S
C559 C563 1.400 . S
C560 H545 0.960 . S
C560 H546 0.960 . S
C560 H547 0.960 . S
C560 C559 1.524 . S
C561 C558 1.403 . S
C561 C562 1.392 . S
C561 C565 1.495 . S
C562 C561 1.392 . S
C562 C563 1.385 . S
C562 C564 1.478 . S
C563 H557 0.930 . S
C563 C559 1.400 . S
C563 C562 1.385 . S
C564 C562 1.478 . S
C564 C566 1.381 . S
C564 C570 1.383 . S
C565 C561 1.495 . S
C565 H571 0.959 . S
C565 H572 0.961 . S
C565 H573 0.960 . S
C566 C564 1.381 . S
C566 C567 1.394 . S
C566 H574 0.930 . S
C567 C566 1.394 . S
C567 C568 1.383 . S
C567 H575 0.929 . S
C568 C567 1.383 . S
C568 C569 1.377 . S
C569 H553 0.930 . S
C569 C568 1.377 . S
C569 C570 1.379 . S
C570 H554 0.931 . S
C570 C564 1.383 . S
C570 C569 1.379 . S
H571 C565 0.959 . S
H572 C565 0.961 . S
H573 C565 0.960 . S
H574 C566 0.930 . S
H575 C567 0.929 . S
H576 C584 0.929 . S
H577 C586 0.930 . S
H578 C588 0.930 1_554 S
H579 C591 0.929 . S
H580 C594 0.930 . S
H581 C596 0.960 . S
H582 C596 0.960 . S
H583 C596 0.960 . S
C584 H576 0.929 . S
C584 C585 1.377 . S
C584 C586 1.384 . S
C585 C584 1.377 . S
C585 C591 1.390 . S
C586 H577 0.930 . S
C586 C584 1.384 . S
C586 C587 1.372 1_556 S
C587 C586 1.372 1_554 S
C587 C588 1.400 1_554 S
C587 C592 1.490 . S
C588 H578 0.930 1_556 S
C588 C587 1.400 1_556 S
C588 C591 1.386 . S
H589 C605 0.930 . S
H590 C606 0.931 . S
C591 H579 0.929 . S
C591 C585 1.390 . S
C591 C588 1.386 . S
C592 C587 1.490 . S
C592 C594 1.395 . S
C592 C595 1.403 . S
H593 C599 0.930 . S
C594 H580 0.930 . S
C594 C592 1.395 . S
C594 C597 1.403 . S
C595 C592 1.403 . S
C595 C596 1.524 . S
C595 C599 1.400 . S
C596 H581 0.960 . S
C596 H582 0.960 . S
C596 H583 0.960 . S
C596 C595 1.524 . S
C597 C594 1.403 . S
C597 C598 1.392 . S
C597 C601 1.495 . S
C598 C597 1.392 . S
C598 C599 1.385 . S
C598 C600 1.478 . S
C599 H593 0.930 . S
C599 C595 1.400 . S
C599 C598 1.385 . S
C600 C598 1.478 . S
C600 C602 1.381 . S
C600 C606 1.383 . S
C601 C597 1.495 . S
C601 H607 0.959 . S
C601 H608 0.961 . S
C601 H609 0.960 . S
C602 C600 1.381 . S
C602 C603 1.394 . S
C602 H610 0.930 . S
C603 C602 1.394 . S
C603 C604 1.383 . S
C603 H611 0.929 . S
C604 C603 1.383 . S
C604 C605 1.377 . S
C605 H589 0.930 . S
C605 C604 1.377 . S
C605 C606 1.379 . S
C606 H590 0.931 . S
C606 C600 1.383 . S
C606 C605 1.379 . S
H607 C601 0.959 . S
H608 C601 0.961 . S
H609 C601 0.960 . S
H610 C602 0.930 . S
H611 C603 0.929 . S
H612 C620 0.929 . S
H613 C622 0.930 . S
H614 C624 0.930 . S
H615 C627 0.929 . S
H616 C630 0.930 . S
H617 C632 0.960 . S
H618 C632 0.960 . S
H619 C632 0.960 . S
C620 H612 0.929 . S
C620 C621 1.377 . S
C620 C622 1.384 . S
C621 C620 1.377 . S
C621 C627 1.390 . S
C622 H613 0.930 . S
C622 C620 1.384 . S
C622 C623 1.372 . S
C623 C622 1.372 . S
C623 C624 1.400 . S
C623 C628 1.490 . S
C624 H614 0.930 . S
C624 C623 1.400 . S
C624 C627 1.386 . S
H625 C641 0.930 . S
H626 C642 0.931 . S
C627 H615 0.929 . S
C627 C621 1.390 . S
C627 C624 1.386 . S
C628 C623 1.490 . S
C628 C630 1.395 . S
C628 C631 1.403 . S
H629 C635 0.930 . S
C630 H616 0.930 . S
C630 C628 1.395 . S
C630 C633 1.403 . S
C631 C628 1.403 . S
C631 C632 1.524 . S
C631 C635 1.400 . S
C632 H617 0.960 . S
C632 H618 0.960 . S
C632 H619 0.960 . S
C632 C631 1.524 . S
C633 C630 1.403 . S
C633 C634 1.392 . S
C633 C637 1.495 . S
C634 C633 1.392 . S
C634 C635 1.385 . S
C634 C636 1.478 . S
C635 H629 0.930 . S
C635 C631 1.400 . S
C635 C634 1.385 . S
C636 C634 1.478 . S
C636 C638 1.381 1_554 S
C636 C642 1.383 1_554 S
C637 C633 1.495 . S
C637 H643 0.959 . S
C637 H644 0.961 . S
C637 H645 0.960 . S
C638 C636 1.381 1_556 S
C638 C639 1.394 . S
C638 H646 0.930 . S
C639 C638 1.394 . S
C639 C640 1.383 . S
C639 H647 0.929 . S
C640 C639 1.383 . S
C640 C641 1.377 . S
C641 H625 0.930 . S
C641 C640 1.377 . S
C641 C642 1.379 . S
C642 H626 0.931 . S
C642 C636 1.383 1_556 S
C642 C641 1.379 . S
H643 C637 0.959 . S
H644 C637 0.961 . S
H645 C637 0.960 . S
H646 C638 0.930 . S
H647 C639 0.929 . S
H648 C656 0.929 . S
H649 C658 0.930 . S
H650 C660 0.930 . S
H651 C663 0.929 . S
H652 C666 0.930 . S
H653 C668 0.960 . S
H654 C668 0.960 . S
H655 C668 0.960 . S
C656 H648 0.929 . S
C656 C657 1.377 . S
C656 C658 1.384 . S
C657 C656 1.377 . S
C657 C663 1.390 . S
C658 H649 0.930 . S
C658 C656 1.384 . S
C658 C659 1.372 . S
C659 C658 1.372 . S
C659 C660 1.400 . S
C659 C664 1.490 . S
C660 H650 0.930 . S
C660 C659 1.400 . S
C660 C663 1.386 . S
H661 C677 0.930 . S
H662 C678 0.931 . S
C663 H651 0.929 . S
C663 C657 1.390 . S
C663 C660 1.386 . S
C664 C659 1.490 . S
C664 C666 1.395 . S
C664 C667 1.403 . S
H665 C671 0.930 . S
C666 H652 0.930 . S
C666 C664 1.395 . S
C666 C669 1.403 . S
C667 C664 1.403 . S
C667 C668 1.524 . S
C667 C671 1.400 . S
C668 H653 0.960 . S
C668 H654 0.960 . S
C668 H655 0.960 . S
C668 C667 1.524 . S
C669 C666 1.403 . S
C669 C670 1.392 . S
C669 C673 1.495 . S
C670 C669 1.392 . S
C670 C671 1.385 . S
C670 C672 1.478 . S
C671 H665 0.930 . S
C671 C667 1.400 . S
C671 C670 1.385 . S
C672 C670 1.478 . S
C672 C674 1.381 1_554 S
C672 C678 1.383 1_554 S
C673 C669 1.495 . S
C673 H679 0.959 . S
C673 H680 0.961 . S
C673 H681 0.960 . S
C674 C672 1.381 1_556 S
C674 C675 1.394 . S
C674 H682 0.930 . S
C675 C674 1.394 . S
C675 C676 1.383 . S
C675 H683 0.929 . S
C676 C675 1.383 . S
C676 C677 1.377 . S
C677 H661 0.930 . S
C677 C676 1.377 . S
C677 C678 1.379 . S
C678 H662 0.931 . S
C678 C672 1.383 1_556 S
C678 C677 1.379 . S
H679 C673 0.959 . S
H680 C673 0.961 . S
H681 C673 0.960 . S
H682 C674 0.930 . S
H683 C675 0.929 . S
H684 C692 0.929 . S
H685 C694 0.930 . S
H686 C696 0.930 . S
H687 C699 0.929 . S
H688 C702 0.930 . S
H689 C704 0.960 . S
H690 C704 0.960 . S
H691 C704 0.960 . S
C692 H684 0.929 . S
C692 C693 1.377 . S
C692 C694 1.384 . S
C693 C692 1.377 . S
C693 C699 1.390 . S
C694 H685 0.930 . S
C694 C692 1.384 . S
C694 C695 1.372 . S
C695 C694 1.372 . S
C695 C696 1.400 . S
C695 C700 1.490 . S
C696 H686 0.930 . S
C696 C695 1.400 . S
C696 C699 1.386 . S
H697 C713 0.930 . S
H698 C714 0.931 . S
C699 H687 0.929 . S
C699 C693 1.390 . S
C699 C696 1.386 . S
C700 C695 1.490 . S
C700 C702 1.395 . S
C700 C703 1.403 . S
H701 C707 0.930 . S
C702 H688 0.930 . S
C702 C700 1.395 . S
C702 C705 1.403 . S
C703 C700 1.403 . S
C703 C704 1.524 . S
C703 C707 1.400 . S
C704 H689 0.960 . S
C704 H690 0.960 . S
C704 H691 0.960 . S
C704 C703 1.524 . S
C705 C702 1.403 . S
C705 C706 1.392 . S
C705 C709 1.495 . S
C706 C705 1.392 . S
C706 C707 1.385 . S
C706 C708 1.478 . S
C707 H701 0.930 . S
C707 C703 1.400 . S
C707 C706 1.385 . S
C708 C706 1.478 . S
C708 C710 1.381 . S
C708 C714 1.383 . S
C709 C705 1.495 . S
C709 H715 0.959 . S
C709 H716 0.961 . S
C709 H717 0.960 . S
C710 C708 1.381 . S
C710 C711 1.394 . S
C710 H718 0.930 . S
C711 C710 1.394 . S
C711 C712 1.383 . S
C711 H719 0.929 . S
C712 C711 1.383 . S
C712 C713 1.377 . S
C713 H697 0.930 . S
C713 C712 1.377 . S
C713 C714 1.379 . S
C714 H698 0.931 . S
C714 C708 1.383 . S
C714 C713 1.379 . S
H715 C709 0.959 . S
H716 C709 0.961 . S
H717 C709 0.960 . S
H718 C710 0.930 . S
H719 C711 0.929 . S
H720 C728 0.929 . S
H721 C730 0.930 . S
H722 C732 0.930 . S
H723 C735 0.929 . S
H724 C738 0.930 . S
H725 C740 0.960 . S
H726 C740 0.960 . S
H727 C740 0.960 . S
C728 H720 0.929 . S
C728 C729 1.377 . S
C728 C730 1.384 . S
C729 C728 1.377 . S
C729 C735 1.390 . S
C730 H721 0.930 . S
C730 C728 1.384 . S
C730 C731 1.372 . S
C731 C730 1.372 . S
C731 C732 1.400 . S
C731 C736 1.490 . S
C732 H722 0.930 . S
C732 C731 1.400 . S
C732 C735 1.386 . S
H733 C749 0.930 . S
H734 C750 0.931 . S
C735 H723 0.929 . S
C735 C729 1.390 . S
C735 C732 1.386 . S
C736 C731 1.490 . S
C736 C738 1.395 . S
C736 C739 1.403 . S
H737 C743 0.930 . S
C738 H724 0.930 . S
C738 C736 1.395 . S
C738 C741 1.403 . S
C739 C736 1.403 . S
C739 C740 1.524 . S
C739 C743 1.400 . S
C740 H725 0.960 . S
C740 H726 0.960 . S
C740 H727 0.960 . S
C740 C739 1.524 . S
C741 C738 1.403 . S
C741 C742 1.392 . S
C741 C745 1.495 . S
C742 C741 1.392 . S
C742 C743 1.385 . S
C742 C744 1.478 . S
C743 H737 0.930 . S
C743 C739 1.400 . S
C743 C742 1.385 . S
C744 C742 1.478 . S
C744 C746 1.381 . S
C744 C750 1.383 . S
C745 C741 1.495 . S
C745 H751 0.959 . S
C745 H752 0.961 . S
C745 H753 0.960 . S
C746 C744 1.381 . S
C746 C747 1.394 . S
C746 H754 0.930 . S
C747 C746 1.394 . S
C747 C748 1.383 . S
C747 H755 0.929 . S
C748 C747 1.383 . S
C748 C749 1.377 . S
C749 H733 0.930 . S
C749 C748 1.377 . S
C749 C750 1.379 . S
C750 H734 0.931 . S
C750 C744 1.383 . S
C750 C749 1.379 . S
H751 C745 0.959 . S
H752 C745 0.961 . S
H753 C745 0.960 . S
H754 C746 0.930 . S
H755 C747 0.929 . S
H756 C764 0.929 . S
H757 C766 0.930 . S
H758 C768 0.930 . S
H759 C771 0.929 . S
H760 C774 0.930 . S
H761 C776 0.960 . S
H762 C776 0.960 . S
H763 C776 0.960 . S
C764 H756 0.929 . S
C764 C765 1.377 . S
C764 C766 1.384 . S
C765 C764 1.377 . S
C765 C771 1.390 . S
C766 H757 0.930 . S
C766 C764 1.384 . S
C766 C767 1.372 . S
C767 C766 1.372 . S
C767 C768 1.400 . S
C767 C772 1.490 . S
C768 H758 0.930 . S
C768 C767 1.400 . S
C768 C771 1.386 . S
H769 C785 0.930 . S
H770 C786 0.931 . S
C771 H759 0.929 . S
C771 C765 1.390 . S
C771 C768 1.386 . S
C772 C767 1.490 . S
C772 C774 1.395 . S
C772 C775 1.403 . S
H773 C779 0.930 . S
C774 H760 0.930 . S
C774 C772 1.395 . S
C774 C777 1.403 . S
C775 C772 1.403 . S
C775 C776 1.524 . S
C775 C779 1.400 . S
C776 H761 0.960 . S
C776 H762 0.960 . S
C776 H763 0.960 . S
C776 C775 1.524 . S
C777 C774 1.403 . S
C777 C778 1.392 . S
C777 C781 1.495 . S
C778 C777 1.392 . S
C778 C779 1.385 . S
C778 C780 1.478 . S
C779 H773 0.930 . S
C779 C775 1.400 . S
C779 C778 1.385 . S
C780 C778 1.478 . S
C780 C782 1.381 . S
C780 C786 1.383 . S
C781 C777 1.495 . S
C781 H787 0.959 . S
C781 H788 0.961 . S
C781 H789 0.960 . S
C782 C780 1.381 . S
C782 C783 1.394 . S
C782 H790 0.930 . S
C783 C782 1.394 . S
C783 C784 1.383 . S
C783 H791 0.929 . S
C784 C783 1.383 . S
C784 C785 1.377 . S
C785 H769 0.930 . S
C785 C784 1.377 . S
C785 C786 1.379 . S
C786 H770 0.931 . S
C786 C780 1.383 . S
C786 C785 1.379 . S
H787 C781 0.959 . S
H788 C781 0.961 . S
H789 C781 0.960 . S
H790 C782 0.930 . S
H791 C783 0.929 . S
H792 C800 0.929 . S
H793 C802 0.930 . S
H794 C804 0.930 . S
H795 C807 0.929 . S
H796 C810 0.930 . S
H797 C812 0.960 . S
H798 C812 0.960 . S
H799 C812 0.960 . S
C800 H792 0.929 . S
C800 C801 1.377 . S
C800 C802 1.384 . S
C801 C800 1.377 . S
C801 C807 1.390 . S
C802 H793 0.930 . S
C802 C800 1.384 . S
C802 C803 1.372 . S
C803 C802 1.372 . S
C803 C804 1.400 . S
C803 C808 1.490 . S
C804 H794 0.930 . S
C804 C803 1.400 . S
C804 C807 1.386 . S
H805 C821 0.930 . S
H806 C822 0.931 1_556 S
C807 H795 0.929 . S
C807 C801 1.390 . S
C807 C804 1.386 . S
C808 C803 1.490 . S
C808 C810 1.395 . S
C808 C811 1.403 . S
H809 C815 0.930 . S
C810 H796 0.930 . S
C810 C808 1.395 . S
C810 C813 1.403 . S
C811 C808 1.403 . S
C811 C812 1.524 . S
C811 C815 1.400 . S
C812 H797 0.960 . S
C812 H798 0.960 . S
C812 H799 0.960 . S
C812 C811 1.524 . S
C813 C810 1.403 . S
C813 C814 1.392 . S
C813 C817 1.495 . S
C814 C813 1.392 . S
C814 C815 1.385 . S
C814 C816 1.478 . S
C815 H809 0.930 . S
C815 C811 1.400 . S
C815 C814 1.385 . S
C816 C814 1.478 . S
C816 C818 1.381 1_556 S
C816 C822 1.383 1_556 S
C817 C813 1.495 . S
C817 H823 0.959 . S
C817 H824 0.961 . S
C817 H825 0.960 . S
C818 C816 1.381 1_554 S
C818 C819 1.394 . S
C818 H826 0.930 1_554 S
C819 C818 1.394 . S
C819 C820 1.383 . S
C819 H827 0.929 . S
C820 C819 1.383 . S
C820 C821 1.377 . S
C821 H805 0.930 . S
C821 C820 1.377 . S
C821 C822 1.379 . S
C822 H806 0.931 1_554 S
C822 C816 1.383 1_554 S
C822 C821 1.379 . S
H823 C817 0.959 . S
H824 C817 0.961 . S
H825 C817 0.960 . S
H826 C818 0.930 1_556 S
H827 C819 0.929 . S
H828 C836 0.929 . S
H829 C838 0.930 . S
H830 C840 0.930 . S
H831 C843 0.929 . S
H832 C846 0.930 . S
H833 C848 0.960 . S
H834 C848 0.960 . S
H835 C848 0.960 . S
C836 H828 0.929 . S
C836 C837 1.377 . S
C836 C838 1.384 . S
C837 C836 1.377 . S
C837 C843 1.390 . S
C838 H829 0.930 . S
C838 C836 1.384 . S
C838 C839 1.372 1_554 S
C839 C838 1.372 1_556 S
C839 C840 1.400 1_556 S
C839 C844 1.490 . S
C840 H830 0.930 . S
C840 C839 1.400 1_554 S
C840 C843 1.386 . S
H841 C857 0.930 . S
H842 C858 0.931 . S
C843 H831 0.929 . S
C843 C837 1.390 . S
C843 C840 1.386 . S
C844 C839 1.490 . S
C844 C846 1.395 . S
C844 C847 1.403 . S
H845 C851 0.930 . S
C846 H832 0.930 . S
C846 C844 1.395 . S
C846 C849 1.403 . S
C847 C844 1.403 . S
C847 C848 1.524 . S
C847 C851 1.400 . S
C848 H833 0.960 . S
C848 H834 0.960 . S
C848 H835 0.960 . S
C848 C847 1.524 . S
C849 C846 1.403 . S
C849 C850 1.392 . S
C849 C853 1.495 . S
C850 C849 1.392 . S
C850 C851 1.385 . S
C850 C852 1.478 . S
C851 H845 0.930 . S
C851 C847 1.400 . S
C851 C850 1.385 . S
C852 C850 1.478 . S
C852 C854 1.381 . S
C852 C858 1.383 . S
C853 C849 1.495 . S
C853 H859 0.959 . S
C853 H860 0.961 . S
C853 H861 0.960 . S
C854 C852 1.381 . S
C854 C855 1.394 . S
C854 H862 0.930 . S
C855 C854 1.394 . S
C855 C856 1.383 . S
C855 H863 0.929 . S
C856 C855 1.383 . S
C856 C857 1.377 . S
C857 H841 0.930 . S
C857 C856 1.377 . S
C857 C858 1.379 . S
C858 H842 0.931 . S
C858 C852 1.383 . S
C858 C857 1.379 . S
H859 C853 0.959 . S
H860 C853 0.961 . S
H861 C853 0.960 . S
H862 C854 0.930 . S
H863 C855 0.929 . S
H864 C872 0.929 . S
H865 C874 0.930 . S
H866 C876 0.930 . S
H867 C879 0.929 . S
H868 C882 0.930 . S
H869 C884 0.960 . S
H870 C884 0.960 . S
H871 C884 0.960 . S
C872 H864 0.929 . S
C872 C873 1.377 . S
C872 C874 1.384 . S
C873 C872 1.377 . S
C873 C879 1.390 . S
C874 H865 0.930 . S
C874 C872 1.384 . S
C874 C875 1.372 . S
C875 C874 1.372 . S
C875 C876 1.400 . S
C875 C880 1.490 . S
C876 H866 0.930 . S
C876 C875 1.400 . S
C876 C879 1.386 . S
H877 C893 0.930 . S
H878 C894 0.931 . S
C879 H867 0.929 . S
C879 C873 1.390 . S
C879 C876 1.386 . S
C880 C875 1.490 . S
C880 C882 1.395 . S
C880 C883 1.403 . S
H881 C887 0.930 . S
C882 H868 0.930 . S
C882 C880 1.395 . S
C882 C885 1.403 . S
C883 C880 1.403 . S
C883 C884 1.524 . S
C883 C887 1.400 . S
C884 H869 0.960 . S
C884 H870 0.960 . S
C884 H871 0.960 . S
C884 C883 1.524 . S
C885 C882 1.403 . S
C885 C886 1.392 . S
C885 C889 1.495 . S
C886 C885 1.392 . S
C886 C887 1.385 . S
C886 C888 1.478 . S
C887 H881 0.930 . S
C887 C883 1.400 . S
C887 C886 1.385 . S
C888 C886 1.478 . S
C888 C890 1.381 1_556 S
C888 C894 1.383 1_556 S
C889 C885 1.495 . S
C889 H895 0.959 . S
C889 H896 0.961 . S
C889 H897 0.960 . S
C890 C888 1.381 1_554 S
C890 C891 1.394 . S
C890 H898 0.930 . S
C891 C890 1.394 . S
C891 C892 1.383 . S
C891 H899 0.929 . S
C892 C891 1.383 . S
C892 C893 1.377 . S
C893 H877 0.930 . S
C893 C892 1.377 . S
C893 C894 1.379 . S
C894 H878 0.931 . S
C894 C888 1.383 1_554 S
C894 C893 1.379 . S
H895 C889 0.959 . S
H896 C889 0.961 . S
H897 C889 0.960 . S
H898 C890 0.930 . S
H899 C891 0.929 . S
H900 C908 0.929 . S
H901 C910 0.930 . S
H902 C912 0.930 . S
H903 C915 0.929 . S
H904 C918 0.930 . S
H905 C920 0.960 . S
H906 C920 0.960 . S
H907 C920 0.960 . S
C908 H900 0.929 . S
C908 C909 1.377 . S
C908 C910 1.384 . S
C909 C908 1.377 . S
C909 C915 1.390 . S
C910 H901 0.930 . S
C910 C908 1.384 . S
C910 C911 1.372 . S
C911 C910 1.372 . S
C911 C912 1.400 . S
C911 C916 1.490 . S
C912 H902 0.930 . S
C912 C911 1.400 . S
C912 C915 1.386 . S
H913 C929 0.944 . S
H914 C930 0.931 . S
C915 H903 0.929 . S
C915 C909 1.390 . S
C915 C912 1.386 . S
C916 C911 1.490 . S
C916 C918 1.395 . S
C916 C919 1.403 . S
H917 C923 0.922 . S
C918 H904 0.930 . S
C918 C916 1.395 . S
C918 C921 1.403 . S
C919 C916 1.403 . S
C919 C920 1.524 1_655 S
C919 C923 1.400 . S
C920 H905 0.960 . S
C920 H906 0.960 . S
C920 H907 0.960 . S
C920 C919 1.524 1_455 S
C921 C918 1.403 . S
C921 C922 1.392 . S
C921 C925 1.495 . S
C922 C921 1.392 . S
C922 C923 1.385 . S
C922 C924 1.478 . S
C923 H917 0.922 . S
C923 C919 1.400 . S
C923 C922 1.385 . S
C924 C922 1.478 . S
C924 C926 1.381 . S
C924 C930 1.383 . S
C925 C921 1.495 . S
C925 H931 0.959 . S
C925 H932 0.961 . S
C925 H933 0.960 . S
C926 C924 1.381 . S
C926 C927 1.394 . S
C926 H934 0.930 . S
C927 C926 1.394 . S
C927 C928 1.383 . S
C927 H935 0.929 . S
C928 C927 1.383 . S
C928 C929 1.377 . S
C929 H913 0.944 . S
C929 C928 1.377 . S
C929 C930 1.379 . S
C930 H914 0.931 . S
C930 C924 1.383 . S
C930 C929 1.379 . S
H931 C925 0.959 . S
H932 C925 0.961 . S
H933 C925 0.960 . S
H934 C926 0.930 . S
H935 C927 0.929 . S
H936 C944 0.929 . S
H937 C946 0.930 . S
H938 C948 0.930 . S
H939 C951 0.929 . S
H940 C954 0.930 . S
H941 C956 0.960 . S
H942 C956 0.960 . S
H943 C956 0.960 . S
C944 H936 0.929 . S
C944 C945 1.377 . S
C944 C946 1.384 . S
C945 C944 1.377 . S
C945 C951 1.390 . S
C946 H937 0.930 . S
C946 C944 1.384 . S
C946 C947 1.372 . S
C947 C946 1.372 . S
C947 C948 1.400 . S
C947 C952 1.490 . S
C948 H938 0.930 . S
C948 C947 1.400 . S
C948 C951 1.386 . S
H949 C965 0.930 . S
H950 C966 0.931 . S
C951 H939 0.929 . S
C951 C945 1.390 . S
C951 C948 1.386 . S
C952 C947 1.490 . S
C952 C954 1.395 . S
C952 C955 1.403 . S
H953 C959 0.930 . S
C954 H940 0.930 . S
C954 C952 1.395 . S
C954 C957 1.403 . S
C955 C952 1.403 . S
C955 C956 1.524 . S
C955 C959 1.400 . S
C956 H941 0.960 . S
C956 H942 0.960 . S
C956 H943 0.960 . S
C956 C955 1.524 . S
C957 C954 1.403 . S
C957 C958 1.392 . S
C957 C961 1.495 . S
C958 C957 1.392 . S
C958 C959 1.385 . S
C958 C960 1.478 . S
C959 H953 0.930 . S
C959 C955 1.400 . S
C959 C958 1.385 . S
C960 C958 1.478 . S
C960 C962 1.381 . S
C960 C966 1.383 . S
C961 C957 1.495 . S
C961 H967 0.959 . S
C961 H968 0.961 . S
C961 H969 0.960 . S
C962 C960 1.381 . S
C962 C963 1.394 . S
C962 H970 0.930 . S
C963 C962 1.394 . S
C963 C964 1.383 . S
C963 H971 0.929 . S
C964 C963 1.383 . S
C964 C965 1.377 . S
C965 H949 0.930 . S
C965 C964 1.377 . S
C965 C966 1.379 . S
C966 H950 0.931 . S
C966 C960 1.383 . S
C966 C965 1.379 . S
H967 C961 0.959 . S
H968 C961 0.961 . S
H969 C961 0.960 . S
H970 C962 0.930 . S
H971 C963 0.929 . S
H972 C980 0.929 . S
H973 C982 0.930 . S
H974 C984 0.930 . S
H975 C987 0.929 . S
H976 C990 0.930 . S
H977 C992 0.960 . S
H978 C992 0.960 . S
H979 C992 0.960 . S
C980 H972 0.929 . S
C980 C981 1.377 . S
C980 C982 1.384 . S
C981 C980 1.377 . S
C981 C987 1.390 . S
C982 H973 0.930 . S
C982 C980 1.384 . S
C982 C983 1.372 . S
C983 C982 1.372 . S
C983 C984 1.400 . S
C983 C988 1.490 . S
C984 H974 0.930 . S
C984 C983 1.400 . S
C984 C987 1.386 . S
H985 C1001 0.930 . S
H986 C1002 0.931 . S
C987 H975 0.929 . S
C987 C981 1.390 . S
C987 C984 1.386 . S
C988 C983 1.490 . S
C988 C990 1.395 . S
C988 C991 1.403 . S
H989 C995 0.930 . S
C990 H976 0.930 . S
C990 C988 1.395 . S
C990 C993 1.403 . S
C991 C988 1.403 . S
C991 C992 1.524 1_565 S
C991 C995 1.400 . S
C992 H977 0.960 . S
C992 H978 0.960 . S
C992 H979 0.960 . S
C992 C991 1.524 1_545 S
C993 C990 1.403 . S
C993 C994 1.392 . S
C993 C997 1.495 . S
C994 C993 1.392 . S
C994 C995 1.385 . S
C994 C996 1.478 . S
C995 H989 0.930 . S
C995 C991 1.400 . S
C995 C994 1.385 . S
C996 C994 1.478 . S
C996 C998 1.381 . S
C996 C1002 1.383 . S
C997 C993 1.495 . S
C997 H1003 0.959 . S
C997 H1004 0.961 . S
C997 H1005 0.960 . S
C998 C996 1.381 . S
C998 C999 1.394 . S
C998 H1006 0.930 . S
C999 C998 1.394 . S
C999 C1000 1.383 . S
C999 H1007 0.929 . S
C1000 C999 1.383 . S
C1000 C1001 1.377 . S
C1001 H985 0.930 . S
C1001 C1000 1.377 . S
C1001 C1002 1.379 . S
C1002 H986 0.931 . S
C1002 C996 1.383 . S
C1002 C1001 1.379 . S
H1003 C997 0.959 . S
H1004 C997 0.961 . S
H1005 C997 0.960 . S
H1006 C998 0.930 . S
H1007 C999 0.929 . S
H1008 C1016 0.929 . S
H1009 C1018 0.930 . S
H1010 C1020 0.930 . S
H1011 C1023 0.929 . S
H1012 C1026 0.930 1_565 S
H1013 C1028 0.960 . S
H1014 C1028 0.960 . S
H1015 C1028 0.960 . S
C1016 H1008 0.929 . S
C1016 C1017 1.377 . S
C1016 C1018 1.384 . S
C1017 C1016 1.377 . S
C1017 C1023 1.390 . S
C1018 H1009 0.930 . S
C1018 C1016 1.384 . S
C1018 C1019 1.372 . S
C1019 C1018 1.372 . S
C1019 C1020 1.400 . S
C1019 C1024 1.490 . S
C1020 H1010 0.930 . S
C1020 C1019 1.400 . S
C1020 C1023 1.386 . S
H1021 C1037 0.930 . S
H1022 C1038 0.931 . S
C1023 H1011 0.929 . S
C1023 C1017 1.390 . S
C1023 C1020 1.386 . S
C1024 C1019 1.490 . S
C1024 C1026 1.395 . S
C1024 C1027 1.403 . S
H1025 C1031 0.930 . S
C1026 H1012 0.930 1_545 S
C1026 C1024 1.395 . S
C1026 C1029 1.403 . S
C1027 C1024 1.403 . S
C1027 C1028 1.524 . S
C1027 C1031 1.400 . S
C1028 H1013 0.960 . S
C1028 H1014 0.960 . S
C1028 H1015 0.960 . S
C1028 C1027 1.524 . S
C1029 C1026 1.403 . S
C1029 C1030 1.392 . S
C1029 C1033 1.495 1_545 S
C1030 C1029 1.392 . S
C1030 C1031 1.385 . S
C1030 C1032 1.478 . S
C1031 H1025 0.930 . S
C1031 C1027 1.400 . S
C1031 C1030 1.385 . S
C1032 C1030 1.478 . S
C1032 C1034 1.381 . S
C1032 C1038 1.383 . S
C1033 C1029 1.495 1_565 S
C1033 H1039 0.959 . S
C1033 H1040 0.961 . S
C1033 H1041 0.960 . S
C1034 C1032 1.381 . S
C1034 C1035 1.394 . S
C1034 H1042 0.930 . S
C1035 C1034 1.394 . S
C1035 C1036 1.383 . S
C1035 H1043 0.929 . S
C1036 C1035 1.383 . S
C1036 C1037 1.377 . S
C1037 H1021 0.930 . S
C1037 C1036 1.377 . S
C1037 C1038 1.379 . S
C1038 H1022 0.931 . S
C1038 C1032 1.383 . S
C1038 C1037 1.379 . S
H1039 C1033 0.959 . S
H1040 C1033 0.961 . S
H1041 C1033 0.960 . S
H1042 C1034 0.930 . S
H1043 C1035 0.929 . S
H1044 C1052 0.929 . S
H1045 C1054 0.930 . S
H1046 C1056 0.930 1_655 S
H1047 C1059 0.929 1_655 S
H1048 C1062 0.930 . S
H1049 C1064 0.909 1_655 S
H1050 C1064 0.982 . S
H1051 C1064 0.917 1_655 S
C1052 H1044 0.929 . S
C1052 C1053 1.377 . S
C1052 C1054 1.384 . S
C1053 C1052 1.377 . S
C1053 C1059 1.390 . S
C1054 H1045 0.930 . S
C1054 C1052 1.384 . S
C1054 C1055 1.372 . S
C1055 C1054 1.372 . S
C1055 C1056 1.400 . S
C1055 C1060 1.490 . S
C1056 H1046 0.930 1_455 S
C1056 C1055 1.400 . S
C1056 C1059 1.386 . S
H1057 C1073 0.930 . S
H1058 C1074 0.931 . S
C1059 H1047 0.929 1_455 S
C1059 C1053 1.390 . S
C1059 C1056 1.386 . S
C1060 C1055 1.490 . S
C1060 C1062 1.395 . S
C1060 C1063 1.403 . S
H1061 C1067 0.930 . S
C1062 H1048 0.930 . S
C1062 C1060 1.395 . S
C1062 C1065 1.403 . S
C1063 C1060 1.403 . S
C1063 C1064 1.608 . S
C1063 C1067 1.400 . S
C1064 H1049 0.909 1_455 S
C1064 H1050 0.982 . S
C1064 H1051 0.917 1_455 S
C1064 C1063 1.608 . S
C1065 C1062 1.403 . S
C1065 C1066 1.392 . S
C1065 C1069 1.495 . S
C1066 C1065 1.392 . S
C1066 C1067 1.385 . S
C1066 C1068 1.478 . S
C1067 H1061 0.930 . S
C1067 C1063 1.400 . S
C1067 C1066 1.385 . S
C1068 C1066 1.478 . S
C1068 C1070 1.381 . S
C1068 C1074 1.383 . S
C1069 C1065 1.495 . S
C1069 H1075 0.959 . S
C1069 H1076 0.961 . S
C1069 H1077 0.960 . S
C1070 C1068 1.381 . S
C1070 C1071 1.394 . S
C1070 H1078 0.930 . S
C1071 C1070 1.394 . S
C1071 C1072 1.383 . S
C1071 H1079 0.929 . S
C1072 C1071 1.383 . S
C1072 C1073 1.377 . S
C1073 H1057 0.930 . S
C1073 C1072 1.377 . S
C1073 C1074 1.379 . S
C1074 H1058 0.931 . S
C1074 C1068 1.383 . S
C1074 C1073 1.379 . S
H1075 C1069 0.959 . S
H1076 C1069 0.961 . S
H1077 C1069 0.960 . S
H1078 C1070 0.930 . S
H1079 C1071 0.929 . S
H1080 C1088 0.929 . S
H1081 C1090 0.930 . S
H1082 C1092 0.930 . S
H1083 C1095 0.929 . S
H1084 C1098 0.930 . S
H1085 C1100 0.960 . S
H1086 C1100 0.960 . S
H1087 C1100 0.960 . S
C1088 H1080 0.929 . S
C1088 C1089 1.377 . S
C1088 C1090 1.384 . S
C1089 C1088 1.377 . S
C1089 C1095 1.390 . S
C1090 H1081 0.930 . S
C1090 C1088 1.384 . S
C1090 C1091 1.372 . S
C1091 C1090 1.372 . S
C1091 C1092 1.400 . S
C1091 C1096 1.490 . S
C1092 H1082 0.930 . S
C1092 C1091 1.400 . S
C1092 C1095 1.386 . S
H1093 C1109 0.930 . S
H1094 C1110 0.931 . S
C1095 H1083 0.929 . S
C1095 C1089 1.390 . S
C1095 C1092 1.386 . S
C1096 C1091 1.490 . S
C1096 C1098 1.395 . S
C1096 C1099 1.403 . S
H1097 C1103 0.930 . S
C1098 H1084 0.930 . S
C1098 C1096 1.395 . S
C1098 C1101 1.403 . S
C1099 C1096 1.403 . S
C1099 C1100 1.524 . S
C1099 C1103 1.400 . S
C1100 H1085 0.960 . S
C1100 H1086 0.960 . S
C1100 H1087 0.960 . S
C1100 C1099 1.524 . S
C1101 C1098 1.403 . S
C1101 C1102 1.392 . S
C1101 C1105 1.495 . S
C1102 C1101 1.392 . S
C1102 C1103 1.385 . S
C1102 C1104 1.478 . S
C1103 H1097 0.930 . S
C1103 C1099 1.400 . S
C1103 C1102 1.385 . S
C1104 C1102 1.478 . S
C1104 C1106 1.381 . S
C1104 C1110 1.383 . S
C1105 C1101 1.495 . S
C1105 H1111 0.959 . S
C1105 H1112 0.961 . S
C1105 H1113 0.960 . S
C1106 C1104 1.381 . S
C1106 C1107 1.394 . S
C1106 H1114 0.930 . S
C1107 C1106 1.394 . S
C1107 C1108 1.383 . S
C1107 H1115 0.929 . S
C1108 C1107 1.383 . S
C1108 C1109 1.377 . S
C1109 H1093 0.930 . S
C1109 C1108 1.377 . S
C1109 C1110 1.379 . S
C1110 H1094 0.931 . S
C1110 C1104 1.383 . S
C1110 C1109 1.379 . S
H1111 C1105 0.959 . S
H1112 C1105 0.961 . S
H1113 C1105 0.960 . S
H1114 C1106 0.930 . S
H1115 C1107 0.929 . S
H1116 C1124 0.929 . S
H1117 C1126 0.930 . S
H1118 C1128 0.930 . S
H1119 C1131 0.929 . S
H1120 C1134 0.930 . S
H1121 C1136 0.960 . S
H1122 C1136 0.960 . S
H1123 C1136 0.960 . S
C1124 H1116 0.929 . S
C1124 C1125 1.377 . S
C1124 C1126 1.384 . S
C1125 C1124 1.377 . S
C1125 C1131 1.390 . S
C1126 H1117 0.930 . S
C1126 C1124 1.384 . S
C1126 C1127 1.372 . S
C1127 C1126 1.372 . S
C1127 C1128 1.400 . S
C1127 C1132 1.490 . S
C1128 H1118 0.930 . S
C1128 C1127 1.400 . S
C1128 C1131 1.386 . S
H1129 C1145 0.930 . S
H1130 C1146 0.931 . S
C1131 H1119 0.929 . S
C1131 C1125 1.390 . S
C1131 C1128 1.386 . S
C1132 C1127 1.490 . S
C1132 C1134 1.395 . S
C1132 C1135 1.403 . S
H1133 C1139 0.930 . S
C1134 H1120 0.930 . S
C1134 C1132 1.395 . S
C1134 C1137 1.403 . S
C1135 C1132 1.403 . S
C1135 C1136 1.524 . S
C1135 C1139 1.400 . S
C1136 H1121 0.960 . S
C1136 H1122 0.960 . S
C1136 H1123 0.960 . S
C1136 C1135 1.524 . S
C1137 C1134 1.403 . S
C1137 C1138 1.392 . S
C1137 C1141 1.495 . S
C1138 C1137 1.392 . S
C1138 C1139 1.385 . S
C1138 C1140 1.478 . S
C1139 H1133 0.930 . S
C1139 C1135 1.400 . S
C1139 C1138 1.385 . S
C1140 C1138 1.478 . S
C1140 C1142 1.381 . S
C1140 C1146 1.383 . S
C1141 C1137 1.495 . S
C1141 H1147 0.959 . S
C1141 H1148 0.961 . S
C1141 H1149 0.960 . S
C1142 C1140 1.381 . S
C1142 C1143 1.394 . S
C1142 H1150 0.930 . S
C1143 C1142 1.394 . S
C1143 C1144 1.383 . S
C1143 H1151 0.929 . S
C1144 C1143 1.383 . S
C1144 C1145 1.377 . S
C1145 H1129 0.930 . S
C1145 C1144 1.377 . S
C1145 C1146 1.379 . S
C1146 H1130 0.931 . S
C1146 C1140 1.383 . S
C1146 C1145 1.379 . S
H1147 C1141 0.959 . S
H1148 C1141 0.961 . S
H1149 C1141 0.960 . S
H1150 C1142 0.930 . S
H1151 C1143 0.929 . S
H1152 C1160 0.929 . S
H1153 C1162 0.930 . S
H1154 C1164 0.930 . S
H1155 C1167 0.929 . S
H1156 C1170 0.930 . S
H1157 C1172 0.960 . S
H1158 C1172 0.960 . S
H1159 C1172 0.960 . S
C1160 H1152 0.929 . S
C1160 C1161 1.377 . S
C1160 C1162 1.384 . S
C1161 C1160 1.377 . S
C1161 C1167 1.390 . S
C1162 H1153 0.930 . S
C1162 C1160 1.384 . S
C1162 C1163 1.372 . S
C1163 C1162 1.372 . S
C1163 C1164 1.400 . S
C1163 C1168 1.490 . S
C1164 H1154 0.930 . S
C1164 C1163 1.400 . S
C1164 C1167 1.386 . S
H1165 C1181 0.930 . S
H1166 C1182 0.931 . S
C1167 H1155 0.929 . S
C1167 C1161 1.390 . S
C1167 C1164 1.386 . S
C1168 C1163 1.490 . S
C1168 C1170 1.395 . S
C1168 C1171 1.403 . S
H1169 C1175 0.930 . S
C1170 H1156 0.930 . S
C1170 C1168 1.395 . S
C1170 C1173 1.403 . S
C1171 C1168 1.403 . S
C1171 C1172 1.524 . S
C1171 C1175 1.400 . S
C1172 H1157 0.960 . S
C1172 H1158 0.960 . S
C1172 H1159 0.960 . S
C1172 C1171 1.524 . S
C1173 C1170 1.403 . S
C1173 C1174 1.392 . S
C1173 C1177 1.495 . S
C1174 C1173 1.392 . S
C1174 C1175 1.385 . S
C1174 C1176 1.478 . S
C1175 H1169 0.930 . S
C1175 C1171 1.400 . S
C1175 C1174 1.385 . S
C1176 C1174 1.478 . S
C1176 C1178 1.381 . S
C1176 C1182 1.383 . S
C1177 C1173 1.495 . S
C1177 H1183 0.959 . S
C1177 H1184 0.961 . S
C1177 H1185 0.960 . S
C1178 C1176 1.381 . S
C1178 C1179 1.394 . S
C1178 H1186 0.930 . S
C1179 C1178 1.394 . S
C1179 C1180 1.383 . S
C1179 H1187 0.929 . S
C1180 C1179 1.383 . S
C1180 C1181 1.377 . S
C1181 H1165 0.930 . S
C1181 C1180 1.377 . S
C1181 C1182 1.379 . S
C1182 H1166 0.931 . S
C1182 C1176 1.383 . S
C1182 C1181 1.379 . S
H1183 C1177 0.959 . S
H1184 C1177 0.961 . S
H1185 C1177 0.960 . S
H1186 C1178 0.930 . S
H1187 C1179 0.929 . S
H1188 C1196 0.929 . S
H1189 C1198 0.930 . S
H1190 C1200 0.930 . S
H1191 C1203 0.929 . S
H1192 C1206 0.930 . S
H1193 C1208 0.960 . S
H1194 C1208 0.960 . S
H1195 C1208 0.960 . S
C1196 H1188 0.929 . S
C1196 C1197 1.377 . S
C1196 C1198 1.384 . S
C1197 C1196 1.377 . S
C1197 C1203 1.390 . S
C1198 H1189 0.930 . S
C1198 C1196 1.384 . S
C1198 C1199 1.372 . S
C1199 C1198 1.372 . S
C1199 C1200 1.400 . S
C1199 C1204 1.490 . S
C1200 H1190 0.930 . S
C1200 C1199 1.400 . S
C1200 C1203 1.386 . S
H1201 C1217 0.930 . S
H1202 C1218 0.931 . S
C1203 H1191 0.929 . S
C1203 C1197 1.390 . S
C1203 C1200 1.386 . S
C1204 C1199 1.490 . S
C1204 C1206 1.395 . S
C1204 C1207 1.403 . S
H1205 C1211 0.930 . S
C1206 H1192 0.930 . S
C1206 C1204 1.395 . S
C1206 C1209 1.403 . S
C1207 C1204 1.403 . S
C1207 C1208 1.524 . S
C1207 C1211 1.400 . S
C1208 H1193 0.960 . S
C1208 H1194 0.960 . S
C1208 H1195 0.960 . S
C1208 C1207 1.524 . S
C1209 C1206 1.403 . S
C1209 C1210 1.392 . S
C1209 C1213 1.495 . S
C1210 C1209 1.392 . S
C1210 C1211 1.385 . S
C1210 C1212 1.478 . S
C1211 H1205 0.930 . S
C1211 C1207 1.400 . S
C1211 C1210 1.385 . S
C1212 C1210 1.478 . S
C1212 C1214 1.381 . S
C1212 C1218 1.383 . S
C1213 C1209 1.495 . S
C1213 H1219 0.959 . S
C1213 H1220 0.961 . S
C1213 H1221 0.960 . S
C1214 C1212 1.381 . S
C1214 C1215 1.394 . S
C1214 H1222 0.930 . S
C1215 C1214 1.394 . S
C1215 C1216 1.383 . S
C1215 H1223 0.929 . S
C1216 C1215 1.383 . S
C1216 C1217 1.377 . S
C1217 H1201 0.930 . S
C1217 C1216 1.377 . S
C1217 C1218 1.379 . S
C1218 H1202 0.931 . S
C1218 C1212 1.383 . S
C1218 C1217 1.379 . S
H1219 C1213 0.959 . S
H1220 C1213 0.961 . S
H1221 C1213 0.960 . S
H1222 C1214 0.930 . S
H1223 C1215 0.929 . S
H1224 C1232 0.929 . S
H1225 C1234 0.930 . S
H1226 C1236 0.930 . S
H1227 C1239 0.929 . S
H1228 C1242 0.930 . S
H1229 C1244 0.960 . S
H1230 C1244 0.960 . S
H1231 C1244 0.960 . S
C1232 H1224 0.929 . S
C1232 C1233 1.377 . S
C1232 C1234 1.384 . S
C1233 C1232 1.377 . S
C1233 C1239 1.390 . S
C1234 H1225 0.930 . S
C1234 C1232 1.384 . S
C1234 C1235 1.372 . S
C1235 C1234 1.372 . S
C1235 C1236 1.400 . S
C1235 C1240 1.490 . S
C1236 H1226 0.930 . S
C1236 C1235 1.400 . S
C1236 C1239 1.386 . S
H1237 C1253 0.930 . S
H1238 C1254 0.931 . S
C1239 H1227 0.929 . S
C1239 C1233 1.390 . S
C1239 C1236 1.386 . S
C1240 C1235 1.490 . S
C1240 C1242 1.395 . S
C1240 C1243 1.403 . S
H1241 C1247 0.930 . S
C1242 H1228 0.930 . S
C1242 C1240 1.395 . S
C1242 C1245 1.403 . S
C1243 C1240 1.403 . S
C1243 C1244 1.524 . S
C1243 C1247 1.400 . S
C1244 H1229 0.960 . S
C1244 H1230 0.960 . S
C1244 H1231 0.960 . S
C1244 C1243 1.524 . S
C1245 C1242 1.403 . S
C1245 C1246 1.392 . S
C1245 C1249 1.495 . S
C1246 C1245 1.392 . S
C1246 C1247 1.385 . S
C1246 C1248 1.478 . S
C1247 H1241 0.930 . S
C1247 C1243 1.400 . S
C1247 C1246 1.385 . S
C1248 C1246 1.478 . S
C1248 C1250 1.381 . S
C1248 C1254 1.383 . S
C1249 C1245 1.495 . S
C1249 H1255 0.959 . S
C1249 H1256 0.961 . S
C1249 H1257 0.960 . S
C1250 C1248 1.381 . S
C1250 C1251 1.394 . S
C1250 H1258 0.930 . S
C1251 C1250 1.394 . S
C1251 C1252 1.383 . S
C1251 H1259 0.929 . S
C1252 C1251 1.383 . S
C1252 C1253 1.377 . S
C1253 H1237 0.930 . S
C1253 C1252 1.377 . S
C1253 C1254 1.379 . S
C1254 H1238 0.931 . S
C1254 C1248 1.383 . S
C1254 C1253 1.379 . S
H1255 C1249 0.959 . S
H1256 C1249 0.961 . S
H1257 C1249 0.960 . S
H1258 C1250 0.930 . S
H1259 C1251 0.929 . S
H1260 C1268 0.929 . S
H1261 C1270 0.930 . S
H1262 C1272 0.930 . S
H1263 C1275 0.929 . S
H1264 C1278 0.930 . S
H1265 C1280 0.960 . S
H1266 C1280 0.960 . S
H1267 C1280 0.960 . S
C1268 H1260 0.929 . S
C1268 C1269 1.377 . S
C1268 C1270 1.384 . S
C1269 C1268 1.377 . S
C1269 C1275 1.390 . S
C1270 H1261 0.930 . S
C1270 C1268 1.384 . S
C1270 C1271 1.372 . S
C1271 C1270 1.372 . S
C1271 C1272 1.400 . S
C1271 C1276 1.490 . S
C1272 H1262 0.930 . S
C1272 C1271 1.400 . S
C1272 C1275 1.386 . S
H1273 C1289 0.930 . S
H1274 C1290 0.931 . S
C1275 H1263 0.929 . S
C1275 C1269 1.390 . S
C1275 C1272 1.386 . S
C1276 C1271 1.490 . S
C1276 C1278 1.395 . S
C1276 C1279 1.403 . S
H1277 C1283 0.930 . S
C1278 H1264 0.930 . S
C1278 C1276 1.395 . S
C1278 C1281 1.403 . S
C1279 C1276 1.403 . S
C1279 C1280 1.524 . S
C1279 C1283 1.400 . S
C1280 H1265 0.960 . S
C1280 H1266 0.960 . S
C1280 H1267 0.960 . S
C1280 C1279 1.524 . S
C1281 C1278 1.403 . S
C1281 C1282 1.392 . S
C1281 C1285 1.495 . S
C1282 C1281 1.392 . S
C1282 C1283 1.385 . S
C1282 C1284 1.478 . S
C1283 H1277 0.930 . S
C1283 C1279 1.400 . S
C1283 C1282 1.385 . S
C1284 C1282 1.478 . S
C1284 C1286 1.381 . S
C1284 C1290 1.383 . S
C1285 C1281 1.495 . S
C1285 H1291 0.959 . S
C1285 H1292 0.961 . S
C1285 H1293 0.960 . S
C1286 C1284 1.381 . S
C1286 C1287 1.394 . S
C1286 H1294 0.930 . S
C1287 C1286 1.394 . S
C1287 C1288 1.383 . S
C1287 H1295 0.929 . S
C1288 C1287 1.383 . S
C1288 C1289 1.377 . S
C1289 H1273 0.930 . S
C1289 C1288 1.377 . S
C1289 C1290 1.379 . S
C1290 H1274 0.931 . S
C1290 C1284 1.383 . S
C1290 C1289 1.379 . S
H1291 C1285 0.959 . S
H1292 C1285 0.961 . S
H1293 C1285 0.960 . S
H1294 C1286 0.930 . S
H1295 C1287 0.929 . S
H1296 C1304 0.929 . S
H1297 C1306 0.930 . S
H1298 C1308 0.930 . S
H1299 C1311 0.929 . S
H1300 C1314 0.930 . S
H1301 C1316 0.960 . S
H1302 C1316 0.960 . S
H1303 C1316 0.960 . S
C1304 H1296 0.929 . S
C1304 C1305 1.377 . S
C1304 C1306 1.384 . S
C1305 C1304 1.377 . S
C1305 C1311 1.390 . S
C1306 H1297 0.930 . S
C1306 C1304 1.384 . S
C1306 C1307 1.372 . S
C1307 C1306 1.372 . S
C1307 C1308 1.400 . S
C1307 C1312 1.490 . S
C1308 H1298 0.930 . S
C1308 C1307 1.400 . S
C1308 C1311 1.386 . S
H1309 C1325 0.930 . S
H1310 C1326 0.931 . S
C1311 H1299 0.929 . S
C1311 C1305 1.390 . S
C1311 C1308 1.386 . S
C1312 C1307 1.490 . S
C1312 C1314 1.395 . S
C1312 C1315 1.403 . S
H1313 C1319 0.930 . S
C1314 H1300 0.930 . S
C1314 C1312 1.395 . S
C1314 C1317 1.403 . S
C1315 C1312 1.403 . S
C1315 C1316 1.524 . S
C1315 C1319 1.400 . S
C1316 H1301 0.960 . S
C1316 H1302 0.960 . S
C1316 H1303 0.960 . S
C1316 C1315 1.524 . S
C1317 C1314 1.403 . S
C1317 C1318 1.392 . S
C1317 C1321 1.495 . S
C1318 C1317 1.392 . S
C1318 C1319 1.385 . S
C1318 C1320 1.478 . S
C1319 H1313 0.930 . S
C1319 C1315 1.400 . S
C1319 C1318 1.385 . S
C1320 C1318 1.478 . S
C1320 C1322 1.381 . S
C1320 C1326 1.383 . S
C1321 C1317 1.495 . S
C1321 H1327 0.959 . S
C1321 H1328 0.961 . S
C1321 H1329 0.960 . S
C1322 C1320 1.381 . S
C1322 C1323 1.394 . S
C1322 H1330 0.930 . S
C1323 C1322 1.394 . S
C1323 C1324 1.383 . S
C1323 H1331 0.929 . S
C1324 C1323 1.383 . S
C1324 C1325 1.377 . S
C1325 H1309 0.930 . S
C1325 C1324 1.377 . S
C1325 C1326 1.379 . S
C1326 H1310 0.931 . S
C1326 C1320 1.383 . S
C1326 C1325 1.379 . S
H1327 C1321 0.959 . S
H1328 C1321 0.961 . S
H1329 C1321 0.960 . S
H1330 C1322 0.930 . S
H1331 C1323 0.929 . S
H1332 C1340 0.929 . S
H1333 C1342 0.930 . S
H1334 C1344 0.930 . S
H1335 C1347 0.929 . S
H1336 C1350 0.930 . S
H1337 C1352 0.960 . S
H1338 C1352 0.960 . S
H1339 C1352 0.960 . S
C1340 H1332 0.929 . S
C1340 C1341 1.377 . S
C1340 C1342 1.384 . S
C1341 C1340 1.377 . S
C1341 C1347 1.390 . S
C1342 H1333 0.930 . S
C1342 C1340 1.384 . S
C1342 C1343 1.372 . S
C1343 C1342 1.372 . S
C1343 C1344 1.400 . S
C1343 C1348 1.490 . S
C1344 H1334 0.930 . S
C1344 C1343 1.400 . S
C1344 C1347 1.386 . S
H1345 C1361 0.930 . S
H1346 C1362 0.931 . S
C1347 H1335 0.929 . S
C1347 C1341 1.390 . S
C1347 C1344 1.386 . S
C1348 C1343 1.490 . S
C1348 C1350 1.395 . S
C1348 C1351 1.403 . S
H1349 C1355 0.930 . S
C1350 H1336 0.930 . S
C1350 C1348 1.395 . S
C1350 C1353 1.403 . S
C1351 C1348 1.403 . S
C1351 C1352 1.524 . S
C1351 C1355 1.400 . S
C1352 H1337 0.960 . S
C1352 H1338 0.960 . S
C1352 H1339 0.960 . S
C1352 C1351 1.524 . S
C1353 C1350 1.403 . S
C1353 C1354 1.392 . S
C1353 C1357 1.495 . S
C1354 C1353 1.392 . S
C1354 C1355 1.385 . S
C1354 C1356 1.478 . S
C1355 H1349 0.930 . S
C1355 C1351 1.400 . S
C1355 C1354 1.385 . S
C1356 C1354 1.478 . S
C1356 C1358 1.381 . S
C1356 C1362 1.383 . S
C1357 C1353 1.495 . S
C1357 H1363 0.959 . S
C1357 H1364 0.961 . S
C1357 H1365 0.960 . S
C1358 C1356 1.381 . S
C1358 C1359 1.394 . S
C1358 H1366 0.930 . S
C1359 C1358 1.394 . S
C1359 C1360 1.383 . S
C1359 H1367 0.929 . S
C1360 C1359 1.383 . S
C1360 C1361 1.377 . S
C1361 H1345 0.930 . S
C1361 C1360 1.377 . S
C1361 C1362 1.379 . S
C1362 H1346 0.931 . S
C1362 C1356 1.383 . S
C1362 C1361 1.379 . S
H1363 C1357 0.959 . S
H1364 C1357 0.961 . S
H1365 C1357 0.960 . S
H1366 C1358 0.930 . S
H1367 C1359 0.929 . S
H1368 C1376 0.929 . S
H1369 C1378 0.930 . S
H1370 C1380 0.930 . S
H1371 C1383 0.929 . S
H1372 C1386 0.930 . S
H1373 C1388 0.960 . S
H1374 C1388 0.960 . S
H1375 C1388 0.960 . S
C1376 H1368 0.929 . S
C1376 C1377 1.377 . S
C1376 C1378 1.384 . S
C1377 C1376 1.377 . S
C1377 C1383 1.390 . S
C1378 H1369 0.930 . S
C1378 C1376 1.384 . S
C1378 C1379 1.372 . S
C1379 C1378 1.372 . S
C1379 C1380 1.400 . S
C1379 C1384 1.490 . S
C1380 H1370 0.930 . S
C1380 C1379 1.400 . S
C1380 C1383 1.386 . S
H1381 C1397 0.930 . S
H1382 C1398 0.931 . S
C1383 H1371 0.929 . S
C1383 C1377 1.390 . S
C1383 C1380 1.386 . S
C1384 C1379 1.490 . S
C1384 C1386 1.395 . S
C1384 C1387 1.403 . S
H1385 C1391 0.930 . S
C1386 H1372 0.930 . S
C1386 C1384 1.395 . S
C1386 C1389 1.403 . S
C1387 C1384 1.403 . S
C1387 C1388 1.524 . S
C1387 C1391 1.400 . S
C1388 H1373 0.960 . S
C1388 H1374 0.960 . S
C1388 H1375 0.960 . S
C1388 C1387 1.524 . S
C1389 C1386 1.403 . S
C1389 C1390 1.392 . S
C1389 C1393 1.495 . S
C1390 C1389 1.392 . S
C1390 C1391 1.385 . S
C1390 C1392 1.478 . S
C1391 H1385 0.930 . S
C1391 C1387 1.400 . S
C1391 C1390 1.385 . S
C1392 C1390 1.478 . S
C1392 C1394 1.381 . S
C1392 C1398 1.383 . S
C1393 C1389 1.495 . S
C1393 H1399 0.959 . S
C1393 H1400 0.961 . S
C1393 H1401 0.960 . S
C1394 C1392 1.381 . S
C1394 C1395 1.394 . S
C1394 H1402 0.930 . S
C1395 C1394 1.394 . S
C1395 C1396 1.383 . S
C1395 H1403 0.929 . S
C1396 C1395 1.383 . S
C1396 C1397 1.377 . S
C1397 H1381 0.930 . S
C1397 C1396 1.377 . S
C1397 C1398 1.379 . S
C1398 H1382 0.931 . S
C1398 C1392 1.383 . S
C1398 C1397 1.379 . S
H1399 C1393 0.959 . S
H1400 C1393 0.961 . S
H1401 C1393 0.960 . S
H1402 C1394 0.930 . S
H1403 C1395 0.929 . S
H1404 C1412 0.929 . S
H1405 C1414 0.930 . S
H1406 C1416 0.930 . S
H1407 C1419 0.929 . S
H1408 C1422 0.930 . S
H1409 C1424 0.960 . S
H1410 C1424 0.960 . S
H1411 C1424 0.960 . S
C1412 H1404 0.929 . S
C1412 C1413 1.377 . S
C1412 C1414 1.384 . S
C1413 C1412 1.377 . S
C1413 C1419 1.390 . S
C1414 H1405 0.930 . S
C1414 C1412 1.384 . S
C1414 C1415 1.372 . S
C1415 C1414 1.372 . S
C1415 C1416 1.400 . S
C1415 C1420 1.490 . S
C1416 H1406 0.930 . S
C1416 C1415 1.400 . S
C1416 C1419 1.386 . S
H1417 C1433 0.930 . S
H1418 C1434 0.931 . S
C1419 H1407 0.929 . S
C1419 C1413 1.390 . S
C1419 C1416 1.386 . S
C1420 C1415 1.490 . S
C1420 C1422 1.395 . S
C1420 C1423 1.403 . S
H1421 C1427 0.930 . S
C1422 H1408 0.930 . S
C1422 C1420 1.395 . S
C1422 C1425 1.403 . S
C1423 C1420 1.403 . S
C1423 C1424 1.524 . S
C1423 C1427 1.400 . S
C1424 H1409 0.960 . S
C1424 H1410 0.960 . S
C1424 H1411 0.960 . S
C1424 C1423 1.524 . S
C1425 C1422 1.403 . S
C1425 C1426 1.392 . S
C1425 C1429 1.495 . S
C1426 C1425 1.392 . S
C1426 C1427 1.385 . S
C1426 C1428 1.478 . S
C1427 H1421 0.930 . S
C1427 C1423 1.400 . S
C1427 C1426 1.385 . S
C1428 C1426 1.478 . S
C1428 C1430 1.381 . S
C1428 C1434 1.383 . S
C1429 C1425 1.495 . S
C1429 H1435 0.959 . S
C1429 H1436 0.961 . S
C1429 H1437 0.960 . S
C1430 C1428 1.381 . S
C1430 C1431 1.394 . S
C1430 H1438 0.930 . S
C1431 C1430 1.394 . S
C1431 C1432 1.383 . S
C1431 H1439 0.929 . S
C1432 C1431 1.383 . S
C1432 C1433 1.377 . S
C1433 H1417 0.930 . S
C1433 C1432 1.377 . S
C1433 C1434 1.379 . S
C1434 H1418 0.931 . S
C1434 C1428 1.383 . S
C1434 C1433 1.379 . S
H1435 C1429 0.959 . S
H1436 C1429 0.961 . S
H1437 C1429 0.960 . S
H1438 C1430 0.930 . S
H1439 C1431 0.929 . S
H1440 C1448 0.929 . S
H1441 C1450 0.930 . S
H1442 C1452 0.930 . S
H1443 C1455 0.929 . S
H1444 C1458 0.930 . S
H1445 C1460 0.960 . S
H1446 C1460 0.960 . S
H1447 C1460 0.960 . S
C1448 H1440 0.929 . S
C1448 C1449 1.377 . S
C1448 C1450 1.384 . S
C1449 C1448 1.377 . S
C1449 C1455 1.390 . S
C1450 H1441 0.930 . S
C1450 C1448 1.384 . S
C1450 C1451 1.372 . S
C1451 C1450 1.372 . S
C1451 C1452 1.400 . S
C1451 C1456 1.490 . S
C1452 H1442 0.930 . S
C1452 C1451 1.400 . S
C1452 C1455 1.386 . S
H1453 C1469 0.930 . S
H1454 C1470 0.931 . S
C1455 H1443 0.929 . S
C1455 C1449 1.390 . S
C1455 C1452 1.386 . S
C1456 C1451 1.490 . S
C1456 C1458 1.395 . S
C1456 C1459 1.403 . S
H1457 C1463 0.930 . S
C1458 H1444 0.930 . S
C1458 C1456 1.395 . S
C1458 C1461 1.403 . S
C1459 C1456 1.403 . S
C1459 C1460 1.524 . S
C1459 C1463 1.400 . S
C1460 H1445 0.960 . S
C1460 H1446 0.960 . S
C1460 H1447 0.960 . S
C1460 C1459 1.524 . S
C1461 C1458 1.403 . S
C1461 C1462 1.392 . S
C1461 C1465 1.495 . S
C1462 C1461 1.392 . S
C1462 C1463 1.385 . S
C1462 C1464 1.478 . S
C1463 H1457 0.930 . S
C1463 C1459 1.400 . S
C1463 C1462 1.385 . S
C1464 C1462 1.478 . S
C1464 C1466 1.381 . S
C1464 C1470 1.383 . S
C1465 C1461 1.495 . S
C1465 H1471 0.959 . S
C1465 H1472 0.961 . S
C1465 H1473 0.960 . S
C1466 C1464 1.381 . S
C1466 C1467 1.394 . S
C1466 H1474 0.930 . S
C1467 C1466 1.394 . S
C1467 C1468 1.383 . S
C1467 H1475 0.929 . S
C1468 C1467 1.383 . S
C1468 C1469 1.377 . S
C1469 H1453 0.930 . S
C1469 C1468 1.377 . S
C1469 C1470 1.379 . S
C1470 H1454 0.931 . S
C1470 C1464 1.383 . S
C1470 C1469 1.379 . S
H1471 C1465 0.959 . S
H1472 C1465 0.961 . S
H1473 C1465 0.960 . S
H1474 C1466 0.930 . S
H1475 C1467 0.929 . S
H1476 C1484 0.929 . S
H1477 C1486 0.930 . S
H1478 C1488 0.930 . S
H1479 C1491 0.929 . S
H1480 C1494 0.930 . S
H1481 C1496 0.960 . S
H1482 C1496 0.960 . S
H1483 C1496 0.960 . S
C1484 H1476 0.929 . S
C1484 C1485 1.377 . S
C1484 C1486 1.384 . S
C1485 C1484 1.377 . S
C1485 C1491 1.390 . S
C1486 H1477 0.930 . S
C1486 C1484 1.384 . S
C1486 C1487 1.372 . S
C1487 C1486 1.372 . S
C1487 C1488 1.400 . S
C1487 C1492 1.490 . S
C1488 H1478 0.930 . S
C1488 C1487 1.400 . S
C1488 C1491 1.386 . S
H1489 C1505 0.930 . S
H1490 C1506 0.931 . S
C1491 H1479 0.929 . S
C1491 C1485 1.390 . S
C1491 C1488 1.386 . S
C1492 C1487 1.490 . S
C1492 C1494 1.395 . S
C1492 C1495 1.403 . S
H1493 C1499 0.930 . S
C1494 H1480 0.930 . S
C1494 C1492 1.395 . S
C1494 C1497 1.403 . S
C1495 C1492 1.403 . S
C1495 C1496 1.524 . S
C1495 C1499 1.400 . S
C1496 H1481 0.960 . S
C1496 H1482 0.960 . S
C1496 H1483 0.960 . S
C1496 C1495 1.524 . S
C1497 C1494 1.403 . S
C1497 C1498 1.392 . S
C1497 C1501 1.495 . S
C1498 C1497 1.392 . S
C1498 C1499 1.385 . S
C1498 C1500 1.478 . S
C1499 H1493 0.930 . S
C1499 C1495 1.400 . S
C1499 C1498 1.385 . S
C1500 C1498 1.478 . S
C1500 C1502 1.381 . S
C1500 C1506 1.383 . S
C1501 C1497 1.495 . S
C1501 H1507 0.959 . S
C1501 H1508 0.961 . S
C1501 H1509 0.960 . S
C1502 C1500 1.381 . S
C1502 C1503 1.394 . S
C1502 H1510 0.930 . S
C1503 C1502 1.394 . S
C1503 C1504 1.383 . S
C1503 H1511 0.929 . S
C1504 C1503 1.383 . S
C1504 C1505 1.377 . S
C1505 H1489 0.930 . S
C1505 C1504 1.377 . S
C1505 C1506 1.379 . S
C1506 H1490 0.931 . S
C1506 C1500 1.383 . S
C1506 C1505 1.379 . S
H1507 C1501 0.959 . S
H1508 C1501 0.961 . S
H1509 C1501 0.960 . S
H1510 C1502 0.930 . S
H1511 C1503 0.929 . S
H1512 C1520 0.929 . S
H1513 C1522 0.930 . S
H1514 C1524 0.930 . S
H1515 C1527 0.929 . S
H1516 C1530 0.930 . S
H1517 C1532 0.960 . S
H1518 C1532 0.960 . S
H1519 C1532 0.960 . S
C1520 H1512 0.929 . S
C1520 C1521 1.377 . S
C1520 C1522 1.384 . S
C1521 C1520 1.377 . S
C1521 C1527 1.390 . S
C1522 H1513 0.930 . S
C1522 C1520 1.384 . S
C1522 C1523 1.372 . S
C1523 C1522 1.372 . S
C1523 C1524 1.400 . S
C1523 C1528 1.490 . S
C1524 H1514 0.930 . S
C1524 C1523 1.400 . S
C1524 C1527 1.386 . S
H1525 C1541 0.930 . S
H1526 C1542 0.931 . S
C1527 H1515 0.929 . S
C1527 C1521 1.390 . S
C1527 C1524 1.386 . S
C1528 C1523 1.490 . S
C1528 C1530 1.395 . S
C1528 C1531 1.403 . S
H1529 C1535 0.930 . S
C1530 H1516 0.930 . S
C1530 C1528 1.395 . S
C1530 C1533 1.403 . S
C1531 C1528 1.403 . S
C1531 C1532 1.524 . S
C1531 C1535 1.400 . S
C1532 H1517 0.960 . S
C1532 H1518 0.960 . S
C1532 H1519 0.960 . S
C1532 C1531 1.524 . S
C1533 C1530 1.403 . S
C1533 C1534 1.392 . S
C1533 C1537 1.495 . S
C1534 C1533 1.392 . S
C1534 C1535 1.385 . S
C1534 C1536 1.478 . S
C1535 H1529 0.930 . S
C1535 C1531 1.400 . S
C1535 C1534 1.385 . S
C1536 C1534 1.478 . S
C1536 C1538 1.381 . S
C1536 C1542 1.383 . S
C1537 C1533 1.495 . S
C1537 H1543 0.959 . S
C1537 H1544 0.961 . S
C1537 H1545 0.960 . S
C1538 C1536 1.381 . S
C1538 C1539 1.394 . S
C1538 H1546 0.930 . S
C1539 C1538 1.394 . S
C1539 C1540 1.383 . S
C1539 H1547 0.929 . S
C1540 C1539 1.383 . S
C1540 C1541 1.377 . S
C1541 H1525 0.930 . S
C1541 C1540 1.377 . S
C1541 C1542 1.379 . S
C1542 H1526 0.931 . S
C1542 C1536 1.383 . S
C1542 C1541 1.379 . S
H1543 C1537 0.959 . S
H1544 C1537 0.961 . S
H1545 C1537 0.960 . S
H1546 C1538 0.930 . S
H1547 C1539 0.929 . S
H1548 C1556 0.929 . S
H1549 C1558 0.930 . S
H1550 C1560 0.930 . S
H1551 C1563 0.929 . S
H1552 C1566 0.930 . S
H1553 C1568 0.960 . S
H1554 C1568 0.960 . S
H1555 C1568 0.960 . S
C1556 H1548 0.929 . S
C1556 C1557 1.377 . S
C1556 C1558 1.384 . S
C1557 C1556 1.377 . S
C1557 C1563 1.390 1_455 S
C1558 H1549 0.930 . S
C1558 C1556 1.384 . S
C1558 C1559 1.372 . S
C1559 C1558 1.372 . S
C1559 C1560 1.400 1_455 S
C1559 C1564 1.490 . S
C1560 H1550 0.930 . S
C1560 C1559 1.400 1_655 S
C1560 C1563 1.386 . S
H1561 C1577 0.930 . S
H1562 C1578 0.931 . S
C1563 H1551 0.929 . S
C1563 C1557 1.390 1_655 S
C1563 C1560 1.386 . S
C1564 C1559 1.490 . S
C1564 C1566 1.395 . S
C1564 C1567 1.403 1_455 S
H1565 C1571 0.930 . S
C1566 H1552 0.930 . S
C1566 C1564 1.395 . S
C1566 C1569 1.403 . S
C1567 C1564 1.403 1_655 S
C1567 C1568 1.524 . S
C1567 C1571 1.400 . S
C1568 H1553 0.960 . S
C1568 H1554 0.960 . S
C1568 H1555 0.960 . S
C1568 C1567 1.524 . S
C1569 C1566 1.403 . S
C1569 C1570 1.392 . S
C1569 C1573 1.495 . S
C1570 C1569 1.392 . S
C1570 C1571 1.385 1_455 S
C1570 C1572 1.508 . S
C1571 H1565 0.930 . S
C1571 C1567 1.400 . S
C1571 C1570 1.385 1_655 S
C1572 C1570 1.508 . S
C1572 C1574 1.385 . S
C1572 C1578 1.347 1_455 S
C1573 C1569 1.495 . S
C1573 H1579 0.959 . S
C1573 H1580 0.961 . S
C1573 H1581 0.960 . S
C1574 C1572 1.385 . S
C1574 C1575 1.394 . S
C1574 H1582 0.930 . S
C1575 C1574 1.394 . S
C1575 C1576 1.383 1_455 S
C1575 H1583 0.929 . S
C1576 C1575 1.383 1_655 S
C1576 C1577 1.377 . S
C1577 H1561 0.930 . S
C1577 C1576 1.377 . S
C1577 C1578 1.379 . S
C1578 H1562 0.931 . S
C1578 C1572 1.347 1_655 S
C1578 C1577 1.379 . S
H1579 C1573 0.959 . S
H1580 C1573 0.961 . S
H1581 C1573 0.960 . S
H1582 C1574 0.930 . S
H1583 C1575 0.929 . S
H1584 C1592 0.929 . S
H1585 C1594 0.930 . S
H1586 C1596 0.930 . S
H1587 C1599 0.929 . S
H1588 C1602 0.930 . S
H1589 C1604 0.960 . S
H1590 C1604 0.960 . S
H1591 C1604 0.960 . S
C1592 H1584 0.929 . S
C1592 C1593 1.377 . S
C1592 C1594 1.384 . S
C1593 C1592 1.377 . S
C1593 C1599 1.390 . S
C1594 H1585 0.930 . S
C1594 C1592 1.384 . S
C1594 C1595 1.372 . S
C1595 C1594 1.372 . S
C1595 C1596 1.400 . S
C1595 C1600 1.490 . S
C1596 H1586 0.930 . S
C1596 C1595 1.400 . S
C1596 C1599 1.386 . S
H1597 C1613 0.930 . S
H1598 C1614 0.931 . S
C1599 H1587 0.929 . S
C1599 C1593 1.390 . S
C1599 C1596 1.386 . S
C1600 C1595 1.490 . S
C1600 C1602 1.395 . S
C1600 C1603 1.403 . S
H1601 C1607 0.930 . S
C1602 H1588 0.930 . S
C1602 C1600 1.395 . S
C1602 C1605 1.403 . S
C1603 C1600 1.403 . S
C1603 C1604 1.524 . S
C1603 C1607 1.400 . S
C1604 H1589 0.960 . S
C1604 H1590 0.960 . S
C1604 H1591 0.960 . S
C1604 C1603 1.524 . S
C1605 C1602 1.403 . S
C1605 C1606 1.392 . S
C1605 C1609 1.495 . S
C1606 C1605 1.392 . S
C1606 C1607 1.385 . S
C1606 C1608 1.478 . S
C1607 H1601 0.930 . S
C1607 C1603 1.400 . S
C1607 C1606 1.385 . S
C1608 C1606 1.478 . S
C1608 C1610 1.381 . S
C1608 C1614 1.383 . S
C1609 C1605 1.495 . S
C1609 H1615 0.959 . S
C1609 H1616 0.961 . S
C1609 H1617 0.960 . S
C1610 C1608 1.381 . S
C1610 C1611 1.394 . S
C1610 H1618 0.930 . S
C1611 C1610 1.394 . S
C1611 C1612 1.383 . S
C1611 H1619 0.929 . S
C1612 C1611 1.383 . S
C1612 C1613 1.377 . S
C1613 H1597 0.930 . S
C1613 C1612 1.377 . S
C1613 C1614 1.379 . S
C1614 H1598 0.931 . S
C1614 C1608 1.383 . S
C1614 C1613 1.379 . S
H1615 C1609 0.959 . S
H1616 C1609 0.961 . S
H1617 C1609 0.960 . S
H1618 C1610 0.930 . S
H1619 C1611 0.929 . S
H1620 C1628 0.929 . S
H1621 C1630 0.930 . S
H1622 C1632 0.930 . S
H1623 C1635 0.929 . S
H1624 C1638 0.930 . S
H1625 C1640 0.960 . S
H1626 C1640 0.960 . S
H1627 C1640 0.960 . S
C1628 H1620 0.929 . S
C1628 C1629 1.377 . S
C1628 C1630 1.384 . S
C1629 C1628 1.377 . S
C1629 C1635 1.390 . S
C1630 H1621 0.930 . S
C1630 C1628 1.384 . S
C1630 C1631 1.372 . S
C1631 C1630 1.372 . S
C1631 C1632 1.400 . S
C1631 C1636 1.490 . S
C1632 H1622 0.930 . S
C1632 C1631 1.400 . S
C1632 C1635 1.386 . S
H1633 C1649 0.930 . S
H1634 C1650 0.931 . S
C1635 H1623 0.929 . S
C1635 C1629 1.390 . S
C1635 C1632 1.386 . S
C1636 C1631 1.490 . S
C1636 C1638 1.395 1_545 S
C1636 C1639 1.403 . S
H1637 C1643 0.930 . S
C1638 H1624 0.930 . S
C1638 C1636 1.395 1_565 S
C1638 C1641 1.403 . S
C1639 C1636 1.403 . S
C1639 C1640 1.524 . S
C1639 C1643 1.400 . S
C1640 H1625 0.960 . S
C1640 H1626 0.960 . S
C1640 H1627 0.960 . S
C1640 C1639 1.524 . S
C1641 C1638 1.403 . S
C1641 C1642 1.392 . S
C1641 C1645 1.495 . S
C1642 C1641 1.392 . S
C1642 C1643 1.385 1_565 S
C1642 C1644 1.478 . S
C1643 H1637 0.930 . S
C1643 C1639 1.400 . S
C1643 C1642 1.385 1_545 S
C1644 C1642 1.478 . S
C1644 C1646 1.381 . S
C1644 C1650 1.383 . S
C1645 C1641 1.495 . S
C1645 H1651 0.959 . S
C1645 H1652 0.961 . S
C1645 H1653 0.960 . S
C1646 C1644 1.381 . S
C1646 C1647 1.394 . S
C1646 H1654 0.930 . S
C1647 C1646 1.394 . S
C1647 C1648 1.383 . S
C1647 H1655 0.929 . S
C1648 C1647 1.383 . S
C1648 C1649 1.377 . S
C1649 H1633 0.930 . S
C1649 C1648 1.377 . S
C1649 C1650 1.379 . S
C1650 H1634 0.931 . S
C1650 C1644 1.383 . S
C1650 C1649 1.379 . S
H1651 C1645 0.959 . S
H1652 C1645 0.961 . S
H1653 C1645 0.960 . S
H1654 C1646 0.930 . S
H1655 C1647 0.929 . S
H1656 C1664 0.929 . S
H1657 C1666 0.930 . S
H1658 C1668 0.928 1_554 S
H1659 C1671 0.929 . S
H1660 C1674 0.930 . S
H1661 C1676 0.960 . S
H1662 C1676 0.960 . S
H1663 C1676 0.960 . S
C1664 H1656 0.929 . S
C1664 C1665 1.377 1_565 S
C1664 C1666 1.384 . S
C1665 C1664 1.377 1_545 S
C1665 C1671 1.390 . S
C1666 H1657 0.930 . S
C1666 C1664 1.384 . S
C1666 C1667 1.372 1_565 S
C1667 C1666 1.372 1_545 S
C1667 C1668 1.400 . S
C1667 C1672 1.497 . S
C1668 H1658 0.928 1_556 S
C1668 C1667 1.400 . S
C1668 C1671 1.386 . S
H1669 C1685 0.930 . S
H1670 C1686 0.930 1_556 S
C1671 H1659 0.929 . S
C1671 C1665 1.390 . S
C1671 C1668 1.386 . S
C1672 C1667 1.497 . S
C1672 C1674 1.387 1_545 S
C1672 C1675 1.403 1_556 S
H1673 C1679 0.930 . S
C1674 H1660 0.930 . S
C1674 C1672 1.387 1_565 S
C1674 C1677 1.403 . S
C1675 C1672 1.403 1_554 S
C1675 C1676 1.524 . S
C1675 C1679 1.400 . S
C1676 H1661 0.960 . S
C1676 H1662 0.960 . S
C1676 H1663 0.960 . S
C1676 C1675 1.524 . S
C1677 C1674 1.403 . S
C1677 C1678 1.392 . S
C1677 C1681 1.495 . S
C1678 C1677 1.392 . S
C1678 C1679 1.385 1_566 S
C1678 C1680 1.480 . S
C1679 H1673 0.930 . S
C1679 C1675 1.400 . S
C1679 C1678 1.385 1_544 S
C1680 C1678 1.480 . S
C1680 C1682 1.379 1_556 S
C1680 C1686 1.381 1_566 S
C1681 C1677 1.495 . S
C1681 H1687 0.959 . S
C1681 H1688 0.961 . S
C1681 H1689 0.960 . S
C1682 C1680 1.379 1_554 S
C1682 C1683 1.394 . S
C1682 H1690 0.930 1_554 S
C1683 C1682 1.394 . S
C1683 C1684 1.383 . S
C1683 H1691 0.929 . S
C1684 C1683 1.383 . S
C1684 C1685 1.377 1_565 S
C1685 H1669 0.930 . S
C1685 C1684 1.377 1_545 S
C1685 C1686 1.379 . S
C1686 H1670 0.930 1_554 S
C1686 C1680 1.381 1_544 S
C1686 C1685 1.379 . S
H1687 C1681 0.959 . S
H1688 C1681 0.961 . S
H1689 C1681 0.960 . S
H1690 C1682 0.930 1_556 S
H1691 C1683 0.929 . S
H1692 C1700 0.929 . S
H1693 C1702 0.930 . S
H1694 C1704 0.930 . S
H1695 C1707 0.929 . S
H1696 C1710 0.930 . S
H1697 C1712 0.960 . S
H1698 C1712 0.960 . S
H1699 C1712 0.960 . S
C1700 H1692 0.929 . S
C1700 C1701 1.377 . S
C1700 C1702 1.384 . S
C1701 C1700 1.377 . S
C1701 C1707 1.390 1_554 S
C1702 H1693 0.930 . S
C1702 C1700 1.384 . S
C1702 C1703 1.372 . S
C1703 C1702 1.372 . S
C1703 C1704 1.400 1_554 S
C1703 C1708 1.490 . S
C1704 H1694 0.930 . S
C1704 C1703 1.400 1_556 S
C1704 C1707 1.386 . S
H1705 C1721 0.930 . S
H1706 C1722 0.931 . S
C1707 H1695 0.929 . S
C1707 C1701 1.390 1_556 S
C1707 C1704 1.386 . S
C1708 C1703 1.490 . S
C1708 C1710 1.395 1_454 S
C1708 C1711 1.403 . S
H1709 C1715 0.930 . S
C1710 H1696 0.930 . S
C1710 C1708 1.395 1_656 S
C1710 C1713 1.403 . S
C1711 C1708 1.403 . S
C1711 C1712 1.524 . S
C1711 C1715 1.400 . S
C1712 H1697 0.960 . S
C1712 H1698 0.960 . S
C1712 H1699 0.960 . S
C1712 C1711 1.524 . S
C1713 C1710 1.403 . S
C1713 C1714 1.392 . S
C1713 C1717 1.495 . S
C1714 C1713 1.392 . S
C1714 C1715 1.385 1_656 S
C1714 C1716 1.478 . S
C1715 H1709 0.930 . S
C1715 C1711 1.400 . S
C1715 C1714 1.385 1_454 S
C1716 C1714 1.478 . S
C1716 C1718 1.381 1_556 S
C1716 C1722 1.383 . S
C1717 C1713 1.495 . S
C1717 H1723 0.959 . S
C1717 H1724 0.961 . S
C1717 H1725 0.960 . S
C1718 C1716 1.381 1_554 S
C1718 C1719 1.394 . S
C1718 H1726 0.930 . S
C1719 C1718 1.394 . S
C1719 C1720 1.383 1_554 S
C1719 H1727 0.929 . S
C1720 C1719 1.383 1_556 S
C1720 C1721 1.377 . S
C1721 H1705 0.930 . S
C1721 C1720 1.377 . S
C1721 C1722 1.379 . S
C1722 H1706 0.931 . S
C1722 C1716 1.383 . S
C1722 C1721 1.379 . S
H1723 C1717 0.959 . S
H1724 C1717 0.961 . S
H1725 C1717 0.960 . S
H1726 C1718 0.930 . S
H1727 C1719 0.929 . S
H1728 C1736 0.929 . S
H1729 C1738 0.930 . S
H1730 C1740 0.930 . S
H1731 C1743 0.929 . S
H1732 C1746 0.930 . S
H1733 C1748 0.960 . S
H1734 C1748 0.960 . S
H1735 C1748 0.960 . S
C1736 H1728 0.929 . S
C1736 C1737 1.377 1_556 S
C1736 C1738 1.384 . S
C1737 C1736 1.377 1_554 S
C1737 C1743 1.390 . S
C1738 H1729 0.930 . S
C1738 C1736 1.384 . S
C1738 C1739 1.372 1_556 S
C1739 C1738 1.372 1_554 S
C1739 C1740 1.400 . S
C1739 C1744 1.491 . S
C1740 H1730 0.930 . S
C1740 C1739 1.400 . S
C1740 C1743 1.386 . S
H1741 C1757 0.930 . S
H1742 C1758 0.931 . S
C1743 H1731 0.929 . S
C1743 C1737 1.390 . S
C1743 C1740 1.386 . S
C1744 C1739 1.491 . S
C1744 C1746 1.386 1_554 S
C1744 C1747 1.410 . S
H1745 C1751 0.930 . S
C1746 H1732 0.930 . S
C1746 C1744 1.386 1_556 S
C1746 C1749 1.403 . S
C1747 C1744 1.410 . S
C1747 C1748 1.524 . S
C1747 C1751 1.400 . S
C1748 H1733 0.960 . S
C1748 H1734 0.960 . S
C1748 H1735 0.960 . S
C1748 C1747 1.524 . S
C1749 C1746 1.403 . S
C1749 C1750 1.392 . S
C1749 C1753 1.495 . S
C1750 C1749 1.392 . S
C1750 C1751 1.385 1_556 S
C1750 C1752 1.478 . S
C1751 H1745 0.930 . S
C1751 C1747 1.400 . S
C1751 C1750 1.385 1_554 S
C1752 C1750 1.478 . S
C1752 C1754 1.381 . S
C1752 C1758 1.383 1_556 S
C1753 C1749 1.495 . S
C1753 H1759 0.959 . S
C1753 H1760 0.961 . S
C1753 H1761 0.960 . S
C1754 C1752 1.381 . S
C1754 C1755 1.394 . S
C1754 H1762 0.930 . S
C1755 C1754 1.394 . S
C1755 C1756 1.383 . S
C1755 H1763 0.929 . S
C1756 C1755 1.383 . S
C1756 C1757 1.377 1_556 S
C1757 H1741 0.930 . S
C1757 C1756 1.377 1_554 S
C1757 C1758 1.379 . S
C1758 H1742 0.931 . S
C1758 C1752 1.383 1_554 S
C1758 C1757 1.379 . S
H1759 C1753 0.959 . S
H1760 C1753 0.961 . S
H1761 C1753 0.960 . S
H1762 C1754 0.930 . S
H1763 C1755 0.929 . S
H1764 C1772 0.929 1_556 S
H1765 C1774 0.930 1_556 S
H1766 C1776 0.930 . S
H1767 C1779 0.929 . S
H1768 C1782 0.930 . S
H1769 C1784 0.960 . S
H1770 C1784 0.960 . S
H1771 C1784 0.960 . S
C1772 H1764 0.929 1_554 S
C1772 C1773 1.377 . S
C1772 C1774 1.384 . S
C1773 C1772 1.377 . S
C1773 C1779 1.390 . S
C1774 H1765 0.930 1_554 S
C1774 C1772 1.384 . S
C1774 C1775 1.372 . S
C1775 C1774 1.372 . S
C1775 C1776 1.400 . S
C1775 C1780 1.490 . S
C1776 H1766 0.930 . S
C1776 C1775 1.400 . S
C1776 C1779 1.386 . S
H1777 C1793 0.930 . S
H1778 C1794 0.931 . S
C1779 H1767 0.929 . S
C1779 C1773 1.390 . S
C1779 C1776 1.386 . S
C1780 C1775 1.490 . S
C1780 C1782 1.395 . S
C1780 C1783 1.403 . S
H1781 C1787 0.930 . S
C1782 H1768 0.930 . S
C1782 C1780 1.395 . S
C1782 C1785 1.403 . S
C1783 C1780 1.403 . S
C1783 C1784 1.524 . S
C1783 C1787 1.400 . S
C1784 H1769 0.960 . S
C1784 H1770 0.960 . S
C1784 H1771 0.960 . S
C1784 C1783 1.524 . S
C1785 C1782 1.403 . S
C1785 C1786 1.392 . S
C1785 C1789 1.495 . S
C1786 C1785 1.392 . S
C1786 C1787 1.385 . S
C1786 C1788 1.478 . S
C1787 H1781 0.930 . S
C1787 C1783 1.400 . S
C1787 C1786 1.385 . S
C1788 C1786 1.478 . S
C1788 C1790 1.381 . S
C1788 C1794 1.383 . S
C1789 C1785 1.495 . S
C1789 H1795 0.959 . S
C1789 H1796 0.961 . S
C1789 H1797 0.960 . S
C1790 C1788 1.381 . S
C1790 C1791 1.394 . S
C1790 H1798 0.930 . S
C1791 C1790 1.394 . S
C1791 C1792 1.383 . S
C1791 H1799 0.929 . S
C1792 C1791 1.383 . S
C1792 C1793 1.377 . S
C1793 H1777 0.930 . S
C1793 C1792 1.377 . S
C1793 C1794 1.379 . S
C1794 H1778 0.931 . S
C1794 C1788 1.383 . S
C1794 C1793 1.379 . S
H1795 C1789 0.959 . S
H1796 C1789 0.961 . S
H1797 C1789 0.960 . S
H1798 C1790 0.930 . S
H1799 C1791 0.929 . S
H1800 C1808 0.929 . S
H1801 C1810 0.930 . S
H1802 C1812 0.930 . S
H1803 C1815 0.929 . S
H1804 C1818 0.930 . S
H1805 C1820 0.960 . S
H1806 C1820 0.960 . S
H1807 C1820 0.960 . S
C1808 H1800 0.929 . S
C1808 C1809 1.377 . S
C1808 C1810 1.384 . S
C1809 C1808 1.377 . S
C1809 C1815 1.390 . S
C1810 H1801 0.930 . S
C1810 C1808 1.384 . S
C1810 C1811 1.372 . S
C1811 C1810 1.372 . S
C1811 C1812 1.400 . S
C1811 C1816 1.490 . S
C1812 H1802 0.930 . S
C1812 C1811 1.400 . S
C1812 C1815 1.386 . S
H1813 C1829 0.930 . S
H1814 C1830 0.931 . S
C1815 H1803 0.929 . S
C1815 C1809 1.390 . S
C1815 C1812 1.386 . S
C1816 C1811 1.490 . S
C1816 C1818 1.395 . S
C1816 C1819 1.403 . S
H1817 C1823 0.930 . S
C1818 H1804 0.930 . S
C1818 C1816 1.395 . S
C1818 C1821 1.403 . S
C1819 C1816 1.403 . S
C1819 C1820 1.524 . S
C1819 C1823 1.400 . S
C1820 H1805 0.960 . S
C1820 H1806 0.960 . S
C1820 H1807 0.960 . S
C1820 C1819 1.524 . S
C1821 C1818 1.403 . S
C1821 C1822 1.392 . S
C1821 C1825 1.495 . S
C1822 C1821 1.392 . S
C1822 C1823 1.385 . S
C1822 C1824 1.478 . S
C1823 H1817 0.930 . S
C1823 C1819 1.400 . S
C1823 C1822 1.385 . S
C1824 C1822 1.478 . S
C1824 C1826 1.381 . S
C1824 C1830 1.383 . S
C1825 C1821 1.495 . S
C1825 H1831 0.959 . S
C1825 H1832 0.961 . S
C1825 H1833 0.960 . S
C1826 C1824 1.381 . S
C1826 C1827 1.394 . S
C1826 H1834 0.930 . S
C1827 C1826 1.394 . S
C1827 C1828 1.383 . S
C1827 H1835 0.929 . S
C1828 C1827 1.383 . S
C1828 C1829 1.377 . S
C1829 H1813 0.930 . S
C1829 C1828 1.377 . S
C1829 C1830 1.379 . S
C1830 H1814 0.931 . S
C1830 C1824 1.383 . S
C1830 C1829 1.379 . S
H1831 C1825 0.959 . S
H1832 C1825 0.961 . S
H1833 C1825 0.960 . S
H1834 C1826 0.930 . S
H1835 C1827 0.929 . S
H1836 C1844 0.929 . S
H1837 C1846 0.930 . S
H1838 C1848 0.930 . S
H1839 C1851 0.929 . S
H1840 C1854 0.930 . S
H1841 C1856 0.960 . S
H1842 C1856 0.960 . S
H1843 C1856 0.960 . S
C1844 H1836 0.929 . S
C1844 C1845 1.377 . S
C1844 C1846 1.384 . S
C1845 C1844 1.377 . S
C1845 C1851 1.390 . S
C1846 H1837 0.930 . S
C1846 C1844 1.384 . S
C1846 C1847 1.372 . S
C1847 C1846 1.372 . S
C1847 C1848 1.400 . S
C1847 C1852 1.490 . S
C1848 H1838 0.930 . S
C1848 C1847 1.400 . S
C1848 C1851 1.386 . S
H1849 C1865 0.930 . S
H1850 C1866 0.931 . S
C1851 H1839 0.929 . S
C1851 C1845 1.390 . S
C1851 C1848 1.386 . S
C1852 C1847 1.490 . S
C1852 C1854 1.395 . S
C1852 C1855 1.403 . S
H1853 C1859 0.930 . S
C1854 H1840 0.930 . S
C1854 C1852 1.395 . S
C1854 C1857 1.403 . S
C1855 C1852 1.403 . S
C1855 C1856 1.524 . S
C1855 C1859 1.400 . S
C1856 H1841 0.960 . S
C1856 H1842 0.960 . S
C1856 H1843 0.960 . S
C1856 C1855 1.524 . S
C1857 C1854 1.403 . S
C1857 C1858 1.392 . S
C1857 C1861 1.495 . S
C1858 C1857 1.392 . S
C1858 C1859 1.385 . S
C1858 C1860 1.478 . S
C1859 H1853 0.930 . S
C1859 C1855 1.400 . S
C1859 C1858 1.385 . S
C1860 C1858 1.478 . S
C1860 C1862 1.381 . S
C1860 C1866 1.383 . S
C1861 C1857 1.495 . S
C1861 H1867 0.959 . S
C1861 H1868 0.961 . S
C1861 H1869 0.960 . S
C1862 C1860 1.381 . S
C1862 C1863 1.394 1_554 S
C1862 H1870 0.930 1_554 S
C1863 C1862 1.394 1_556 S
C1863 C1864 1.383 1_556 S
C1863 H1871 0.929 . S
C1864 C1863 1.383 1_554 S
C1864 C1865 1.377 . S
C1865 H1849 0.930 . S
C1865 C1864 1.377 . S
C1865 C1866 1.379 . S
C1866 H1850 0.931 . S
C1866 C1860 1.383 . S
C1866 C1865 1.379 . S
H1867 C1861 0.959 . S
H1868 C1861 0.961 . S
H1869 C1861 0.960 . S
H1870 C1862 0.930 1_556 S
H1871 C1863 0.929 . S
H1872 C1880 0.929 . S
H1873 C1882 0.930 . S
H1874 C1884 0.930 . S
H1875 C1887 0.929 . S
H1876 C1890 0.930 . S
H1877 C1892 0.960 . S
H1878 C1892 0.960 . S
H1879 C1892 0.960 . S
C1880 H1872 0.929 . S
C1880 C1881 1.377 . S
C1880 C1882 1.384 . S
C1881 C1880 1.377 . S
C1881 C1887 1.390 . S
C1882 H1873 0.930 . S
C1882 C1880 1.384 . S
C1882 C1883 1.372 . S
C1883 C1882 1.372 . S
C1883 C1884 1.400 . S
C1883 C1888 1.490 . S
C1884 H1874 0.930 . S
C1884 C1883 1.400 . S
C1884 C1887 1.386 . S
H1885 C1901 0.930 . S
H1886 C1902 0.931 . S
C1887 H1875 0.929 . S
C1887 C1881 1.390 . S
C1887 C1884 1.386 . S
C1888 C1883 1.490 . S
C1888 C1890 1.395 . S
C1888 C1891 1.403 . S
H1889 C1895 0.930 . S
C1890 H1876 0.930 . S
C1890 C1888 1.395 . S
C1890 C1893 1.403 . S
C1891 C1888 1.403 . S
C1891 C1892 1.524 . S
C1891 C1895 1.400 . S
C1892 H1877 0.960 . S
C1892 H1878 0.960 . S
C1892 H1879 0.960 . S
C1892 C1891 1.524 . S
C1893 C1890 1.403 . S
C1893 C1894 1.392 . S
C1893 C1897 1.495 . S
C1894 C1893 1.392 . S
C1894 C1895 1.385 . S
C1894 C1896 1.478 . S
C1895 H1889 0.930 . S
C1895 C1891 1.400 . S
C1895 C1894 1.385 . S
C1896 C1894 1.478 . S
C1896 C1898 1.381 . S
C1896 C1902 1.383 . S
C1897 C1893 1.495 . S
C1897 H1903 0.959 . S
C1897 H1904 0.961 . S
C1897 H1905 0.960 . S
C1898 C1896 1.381 . S
C1898 C1899 1.394 . S
C1898 H1906 0.930 . S
C1899 C1898 1.394 . S
C1899 C1900 1.383 . S
C1899 H1907 0.929 . S
C1900 C1899 1.383 . S
C1900 C1901 1.377 . S
C1901 H1885 0.930 . S
C1901 C1900 1.377 . S
C1901 C1902 1.379 . S
C1902 H1886 0.931 . S
C1902 C1896 1.383 . S
C1902 C1901 1.379 . S
H1903 C1897 0.959 . S
H1904 C1897 0.961 . S
H1905 C1897 0.960 . S
H1906 C1898 0.930 . S
H1907 C1899 0.929 . S
H1908 C1916 0.929 . S
H1909 C1918 0.930 . S
H1910 C1920 0.930 . S
H1911 C1923 0.929 . S
H1912 C1926 0.930 . S
H1913 C1928 0.960 . S
H1914 C1928 0.960 . S
H1915 C1928 0.960 . S
C1916 H1908 0.929 . S
C1916 C1917 1.377 . S
C1916 C1918 1.384 . S
C1917 C1916 1.377 . S
C1917 C1923 1.390 . S
C1918 H1909 0.930 . S
C1918 C1916 1.384 . S
C1918 C1919 1.372 . S
C1919 C1918 1.372 . S
C1919 C1920 1.400 . S
C1919 C1924 1.490 . S
C1920 H1910 0.930 . S
C1920 C1919 1.400 . S
C1920 C1923 1.386 . S
H1921 C1937 0.930 . S
H1922 C1938 0.931 . S
C1923 H1911 0.929 . S
C1923 C1917 1.390 . S
C1923 C1920 1.386 . S
C1924 C1919 1.490 . S
C1924 C1926 1.395 . S
C1924 C1927 1.403 . S
H1925 C1931 0.930 . S
C1926 H1912 0.930 . S
C1926 C1924 1.395 . S
C1926 C1929 1.403 . S
C1927 C1924 1.403 . S
C1927 C1928 1.524 . S
C1927 C1931 1.400 . S
C1928 H1913 0.960 . S
C1928 H1914 0.960 . S
C1928 H1915 0.960 . S
C1928 C1927 1.524 . S
C1929 C1926 1.403 . S
C1929 C1930 1.392 . S
C1929 C1933 1.495 . S
C1930 C1929 1.392 . S
C1930 C1931 1.385 . S
C1930 C1932 1.478 . S
C1931 H1925 0.930 . S
C1931 C1927 1.400 . S
C1931 C1930 1.385 . S
C1932 C1930 1.478 . S
C1932 C1934 1.381 . S
C1932 C1938 1.383 . S
C1933 C1929 1.495 . S
C1933 H1939 0.959 . S
C1933 H1940 0.961 . S
C1933 H1941 0.960 . S
C1934 C1932 1.381 . S
C1934 C1935 1.394 . S
C1934 H1942 0.930 . S
C1935 C1934 1.394 . S
C1935 C1936 1.383 . S
C1935 H1943 0.929 . S
C1936 C1935 1.383 . S
C1936 C1937 1.377 . S
C1937 H1921 0.930 . S
C1937 C1936 1.377 . S
C1937 C1938 1.379 . S
C1938 H1922 0.931 . S
C1938 C1932 1.383 . S
C1938 C1937 1.379 . S
H1939 C1933 0.959 . S
H1940 C1933 0.961 . S
H1941 C1933 0.960 . S
H1942 C1934 0.930 . S
H1943 C1935 0.929 . S
H1944 C1952 0.929 . S
H1945 C1954 0.930 . S
H1946 C1956 0.930 . S
H1947 C1959 0.929 . S
H1948 C1962 0.930 . S
H1949 C1964 0.960 . S
H1950 C1964 0.960 . S
H1951 C1964 0.960 . S
C1952 H1944 0.929 . S
C1952 C1953 1.377 . S
C1952 C1954 1.384 . S
C1953 C1952 1.377 . S
C1953 C1959 1.390 . S
C1954 H1945 0.930 . S
C1954 C1952 1.384 . S
C1954 C1955 1.372 . S
C1955 C1954 1.372 . S
C1955 C1956 1.400 . S
C1955 C1960 1.490 . S
C1956 H1946 0.930 . S
C1956 C1955 1.400 . S
C1956 C1959 1.386 . S
H1957 C1973 0.930 . S
H1958 C1974 0.931 . S
C1959 H1947 0.929 . S
C1959 C1953 1.390 . S
C1959 C1956 1.386 . S
C1960 C1955 1.490 . S
C1960 C1962 1.395 . S
C1960 C1963 1.403 . S
H1961 C1967 0.930 . S
C1962 H1948 0.930 . S
C1962 C1960 1.395 . S
C1962 C1965 1.403 . S
C1963 C1960 1.403 . S
C1963 C1964 1.524 . S
C1963 C1967 1.400 . S
C1964 H1949 0.960 . S
C1964 H1950 0.960 . S
C1964 H1951 0.960 . S
C1964 C1963 1.524 . S
C1965 C1962 1.403 . S
C1965 C1966 1.392 . S
C1965 C1969 1.495 . S
C1966 C1965 1.392 . S
C1966 C1967 1.385 . S
C1966 C1968 1.478 . S
C1967 H1961 0.930 . S
C1967 C1963 1.400 . S
C1967 C1966 1.385 . S
C1968 C1966 1.478 . S
C1968 C1970 1.381 . S
C1968 C1974 1.383 . S
C1969 C1965 1.495 . S
C1969 H1975 0.959 . S
C1969 H1976 0.961 . S
C1969 H1977 0.960 . S
C1970 C1968 1.381 . S
C1970 C1971 1.394 . S
C1970 H1978 0.930 . S
C1971 C1970 1.394 . S
C1971 C1972 1.383 . S
C1971 H1979 0.929 . S
C1972 C1971 1.383 . S
C1972 C1973 1.377 . S
C1973 H1957 0.930 . S
C1973 C1972 1.377 . S
C1973 C1974 1.379 . S
C1974 H1958 0.931 . S
C1974 C1968 1.383 . S
C1974 C1973 1.379 . S
H1975 C1969 0.959 . S
H1976 C1969 0.961 . S
H1977 C1969 0.960 . S
H1978 C1970 0.930 . S
H1979 C1971 0.929 . S
H1980 C1988 0.929 1_554 S
H1981 C1990 0.930 . S
H1982 C1992 0.930 . S
H1983 C1995 0.929 . S
H1984 C1998 0.930 . S
H1985 C2000 0.960 . S
H1986 C2000 0.960 . S
H1987 C2000 0.960 . S
C1988 H1980 0.929 1_556 S
C1988 C1989 1.377 . S
C1988 C1990 1.384 . S
C1989 C1988 1.377 . S
C1989 C1995 1.390 . S
C1990 H1981 0.930 . S
C1990 C1988 1.384 . S
C1990 C1991 1.372 . S
C1991 C1990 1.372 . S
C1991 C1992 1.400 . S
C1991 C1996 1.490 . S
C1992 H1982 0.930 . S
C1992 C1991 1.400 . S
C1992 C1995 1.386 . S
H1993 C2009 0.930 . S
H1994 C2010 0.931 . S
C1995 H1983 0.929 . S
C1995 C1989 1.390 . S
C1995 C1992 1.386 . S
C1996 C1991 1.490 . S
C1996 C1998 1.395 . S
C1996 C1999 1.403 . S
H1997 C2003 0.930 . S
C1998 H1984 0.930 . S
C1998 C1996 1.395 . S
C1998 C2001 1.403 . S
C1999 C1996 1.403 . S
C1999 C2000 1.524 . S
C1999 C2003 1.400 . S
C2000 H1985 0.960 . S
C2000 H1986 0.960 . S
C2000 H1987 0.960 . S
C2000 C1999 1.524 . S
C2001 C1998 1.403 . S
C2001 C2002 1.392 . S
C2001 C2005 1.495 . S
C2002 C2001 1.392 . S
C2002 C2003 1.385 . S
C2002 C2004 1.478 . S
C2003 H1997 0.930 . S
C2003 C1999 1.400 . S
C2003 C2002 1.385 . S
C2004 C2002 1.478 . S
C2004 C2006 1.381 . S
C2004 C2010 1.383 . S
C2005 C2001 1.495 . S
C2005 H2011 0.959 . S
C2005 H2012 0.961 . S
C2005 H2013 0.960 . S
C2006 C2004 1.381 . S
C2006 C2007 1.394 . S
C2006 H2014 0.930 . S
C2007 C2006 1.394 . S
C2007 C2008 1.383 . S
C2007 H2015 0.929 . S
C2008 C2007 1.383 . S
C2008 C2009 1.377 . S
C2009 H1993 0.930 . S
C2009 C2008 1.377 . S
C2009 C2010 1.379 . S
C2010 H1994 0.931 . S
C2010 C2004 1.383 . S
C2010 C2009 1.379 . S
H2011 C2005 0.959 . S
H2012 C2005 0.961 . S
H2013 C2005 0.960 . S
H2014 C2006 0.930 . S
H2015 C2007 0.929 . S
H2016 C2024 0.929 . S
H2017 C2026 0.930 . S
H2018 C2028 0.930 . S
H2019 C2031 0.929 . S
H2020 C2034 0.930 . S
H2021 C2036 0.960 . S
H2022 C2036 0.960 . S
H2023 C2036 0.960 . S
C2024 H2016 0.929 . S
C2024 C2025 1.377 . S
C2024 C2026 1.384 . S
C2025 C2024 1.377 . S
C2025 C2031 1.390 . S
C2026 H2017 0.930 . S
C2026 C2024 1.384 . S
C2026 C2027 1.372 . S
C2027 C2026 1.372 . S
C2027 C2028 1.400 . S
C2027 C2032 1.490 . S
C2028 H2018 0.930 . S
C2028 C2027 1.400 . S
C2028 C2031 1.386 . S
H2029 C2045 0.930 . S
H2030 C2046 0.931 . S
C2031 H2019 0.929 . S
C2031 C2025 1.390 . S
C2031 C2028 1.386 . S
C2032 C2027 1.490 . S
C2032 C2034 1.395 . S
C2032 C2035 1.403 . S
H2033 C2039 0.930 . S
C2034 H2020 0.930 . S
C2034 C2032 1.395 . S
C2034 C2037 1.403 . S
C2035 C2032 1.403 . S
C2035 C2036 1.524 . S
C2035 C2039 1.400 . S
C2036 H2021 0.960 . S
C2036 H2022 0.960 . S
C2036 H2023 0.960 . S
C2036 C2035 1.524 . S
C2037 C2034 1.403 . S
C2037 C2038 1.392 . S
C2037 C2041 1.495 . S
C2038 C2037 1.392 . S
C2038 C2039 1.385 . S
C2038 C2040 1.478 . S
C2039 H2033 0.930 . S
C2039 C2035 1.400 . S
C2039 C2038 1.385 . S
C2040 C2038 1.478 . S
C2040 C2042 1.381 . S
C2040 C2046 1.383 . S
C2041 C2037 1.495 . S
C2041 H2047 0.959 . S
C2041 H2048 0.961 . S
C2041 H2049 0.960 . S
C2042 C2040 1.381 . S
C2042 C2043 1.394 . S
C2042 H2050 0.930 . S
C2043 C2042 1.394 . S
C2043 C2044 1.383 . S
C2043 H2051 0.929 . S
C2044 C2043 1.383 . S
C2044 C2045 1.377 . S
C2045 H2029 0.930 . S
C2045 C2044 1.377 . S
C2045 C2046 1.379 . S
C2046 H2030 0.931 . S
C2046 C2040 1.383 . S
C2046 C2045 1.379 . S
H2047 C2041 0.959 . S
H2048 C2041 0.961 . S
H2049 C2041 0.960 . S
H2050 C2042 0.930 . S
H2051 C2043 0.929 . S
H2052 C2060 0.929 . S
H2053 C2062 0.930 . S
H2054 C2064 0.930 . S
H2055 C2067 0.929 . S
H2056 C2070 0.930 . S
H2057 C2072 0.960 . S
H2058 C2072 0.960 . S
H2059 C2072 0.960 . S
C2060 H2052 0.929 . S
C2060 C2061 1.377 . S
C2060 C2062 1.384 . S
C2061 C2060 1.377 . S
C2061 C2067 1.390 . S
C2062 H2053 0.930 . S
C2062 C2060 1.384 . S
C2062 C2063 1.372 . S
C2063 C2062 1.372 . S
C2063 C2064 1.400 . S
C2063 C2068 1.490 . S
C2064 H2054 0.930 . S
C2064 C2063 1.400 . S
C2064 C2067 1.386 . S
H2065 C2081 0.930 . S
H2066 C2082 0.931 . S
C2067 H2055 0.929 . S
C2067 C2061 1.390 . S
C2067 C2064 1.386 . S
C2068 C2063 1.490 . S
C2068 C2070 1.395 . S
C2068 C2071 1.403 . S
H2069 C2075 0.930 . S
C2070 H2056 0.930 . S
C2070 C2068 1.395 . S
C2070 C2073 1.403 . S
C2071 C2068 1.403 . S
C2071 C2072 1.524 . S
C2071 C2075 1.400 . S
C2072 H2057 0.960 . S
C2072 H2058 0.960 . S
C2072 H2059 0.960 . S
C2072 C2071 1.524 . S
C2073 C2070 1.403 . S
C2073 C2074 1.392 . S
C2073 C2077 1.495 . S
C2074 C2073 1.392 . S
C2074 C2075 1.385 . S
C2074 C2076 1.478 . S
C2075 H2069 0.930 . S
C2075 C2071 1.400 . S
C2075 C2074 1.385 . S
C2076 C2074 1.478 . S
C2076 C2078 1.381 . S
C2076 C2082 1.383 . S
C2077 C2073 1.495 . S
C2077 H2083 0.959 . S
C2077 H2084 0.961 . S
C2077 H2085 0.960 . S
C2078 C2076 1.381 . S
C2078 C2079 1.394 . S
C2078 H2086 0.930 . S
C2079 C2078 1.394 . S
C2079 C2080 1.383 . S
C2079 H2087 0.929 . S
C2080 C2079 1.383 . S
C2080 C2081 1.377 . S
C2081 H2065 0.930 . S
C2081 C2080 1.377 . S
C2081 C2082 1.379 . S
C2082 H2066 0.931 . S
C2082 C2076 1.383 . S
C2082 C2081 1.379 . S
H2083 C2077 0.959 . S
H2084 C2077 0.961 . S
H2085 C2077 0.960 . S
H2086 C2078 0.930 . S
H2087 C2079 0.929 . S
H2088 C2096 0.929 . S
H2089 C2098 0.930 . S
H2090 C2100 0.930 . S
H2091 C2103 0.929 . S
H2092 C2106 0.930 . S
H2093 C2108 0.960 . S
H2094 C2108 0.960 . S
H2095 C2108 0.960 . S
C2096 H2088 0.929 . S
C2096 C2097 1.377 . S
C2096 C2098 1.384 . S
C2097 C2096 1.377 . S
C2097 C2103 1.390 . S
C2098 H2089 0.930 . S
C2098 C2096 1.384 . S
C2098 C2099 1.372 . S
C2099 C2098 1.372 . S
C2099 C2100 1.400 . S
C2099 C2104 1.490 . S
C2100 H2090 0.930 . S
C2100 C2099 1.400 . S
C2100 C2103 1.386 . S
H2101 C2117 0.930 . S
H2102 C2118 0.931 . S
C2103 H2091 0.929 . S
C2103 C2097 1.390 . S
C2103 C2100 1.386 . S
C2104 C2099 1.490 . S
C2104 C2106 1.395 . S
C2104 C2107 1.403 . S
H2105 C2111 0.930 . S
C2106 H2092 0.930 . S
C2106 C2104 1.395 . S
C2106 C2109 1.403 . S
C2107 C2104 1.403 . S
C2107 C2108 1.524 . S
C2107 C2111 1.400 . S
C2108 H2093 0.960 . S
C2108 H2094 0.960 . S
C2108 H2095 0.960 . S
C2108 C2107 1.524 . S
C2109 C2106 1.403 . S
C2109 C2110 1.392 . S
C2109 C2113 1.495 . S
C2110 C2109 1.392 . S
C2110 C2111 1.385 . S
C2110 C2112 1.478 . S
C2111 H2105 0.930 . S
C2111 C2107 1.400 . S
C2111 C2110 1.385 . S
C2112 C2110 1.478 . S
C2112 C2114 1.381 . S
C2112 C2118 1.383 . S
C2113 C2109 1.495 . S
C2113 H2119 0.959 . S
C2113 H2120 0.961 . S
C2113 H2121 0.960 . S
C2114 C2112 1.381 . S
C2114 C2115 1.394 . S
C2114 H2122 0.930 . S
C2115 C2114 1.394 . S
C2115 C2116 1.383 . S
C2115 H2123 0.929 . S
C2116 C2115 1.383 . S
C2116 C2117 1.377 . S
C2117 H2101 0.930 . S
C2117 C2116 1.377 . S
C2117 C2118 1.379 . S
C2118 H2102 0.931 . S
C2118 C2112 1.383 . S
C2118 C2117 1.379 . S
H2119 C2113 0.959 . S
H2120 C2113 0.961 . S
H2121 C2113 0.960 . S
H2122 C2114 0.930 . S
H2123 C2115 0.929 . S
H2124 C2132 0.929 . S
H2125 C2134 0.930 . S
H2126 C2136 0.930 . S
H2127 C2139 0.929 . S
H2128 C2142 0.930 . S
H2129 C2144 0.960 . S
H2130 C2144 0.960 . S
H2131 C2144 0.960 . S
C2132 H2124 0.929 . S
C2132 C2133 1.377 . S
C2132 C2134 1.384 . S
C2133 C2132 1.377 . S
C2133 C2139 1.390 . S
C2134 H2125 0.930 . S
C2134 C2132 1.384 . S
C2134 C2135 1.372 . S
C2135 C2134 1.372 . S
C2135 C2136 1.400 . S
C2135 C2140 1.490 . S
C2136 H2126 0.930 . S
C2136 C2135 1.400 . S
C2136 C2139 1.386 . S
H2137 C2153 0.930 . S
H2138 C2154 0.931 . S
C2139 H2127 0.929 . S
C2139 C2133 1.390 . S
C2139 C2136 1.386 . S
C2140 C2135 1.490 . S
C2140 C2142 1.395 . S
C2140 C2143 1.403 . S
H2141 C2147 0.930 . S
C2142 H2128 0.930 . S
C2142 C2140 1.395 . S
C2142 C2145 1.403 . S
C2143 C2140 1.403 . S
C2143 C2144 1.524 . S
C2143 C2147 1.400 . S
C2144 H2129 0.960 . S
C2144 H2130 0.960 . S
C2144 H2131 0.960 . S
C2144 C2143 1.524 . S
C2145 C2142 1.403 . S
C2145 C2146 1.392 . S
C2145 C2149 1.495 . S
C2146 C2145 1.392 . S
C2146 C2147 1.385 . S
C2146 C2148 1.478 . S
C2147 H2141 0.930 . S
C2147 C2143 1.400 . S
C2147 C2146 1.385 . S
C2148 C2146 1.478 . S
C2148 C2150 1.381 . S
C2148 C2154 1.383 . S
C2149 C2145 1.495 . S
C2149 H2155 0.959 . S
C2149 H2156 0.961 . S
C2149 H2157 0.960 . S
C2150 C2148 1.381 . S
C2150 C2151 1.394 . S
C2150 H2158 0.930 . S
C2151 C2150 1.394 . S
C2151 C2152 1.383 . S
C2151 H2159 0.929 . S
C2152 C2151 1.383 . S
C2152 C2153 1.377 . S
C2153 H2137 0.930 . S
C2153 C2152 1.377 . S
C2153 C2154 1.379 . S
C2154 H2138 0.931 . S
C2154 C2148 1.383 . S
C2154 C2153 1.379 . S
H2155 C2149 0.959 . S
H2156 C2149 0.961 . S
H2157 C2149 0.960 . S
H2158 C2150 0.930 . S
H2159 C2151 0.929 . S
H2160 C2168 0.929 . S
H2161 C2170 0.930 . S
H2162 C2172 0.930 . S
H2163 C2175 0.929 . S
H2164 C2178 0.930 . S
H2165 C2180 0.960 . S
H2166 C2180 0.960 . S
H2167 C2180 0.960 . S
C2168 H2160 0.929 . S
C2168 C2169 1.377 . S
C2168 C2170 1.384 . S
C2169 C2168 1.377 . S
C2169 C2175 1.390 . S
C2170 H2161 0.930 . S
C2170 C2168 1.384 . S
C2170 C2171 1.372 . S
C2171 C2170 1.372 . S
C2171 C2172 1.400 . S
C2171 C2176 1.490 . S
C2172 H2162 0.930 . S
C2172 C2171 1.400 . S
C2172 C2175 1.386 . S
H2173 C2189 0.930 . S
H2174 C2190 0.931 . S
C2175 H2163 0.929 . S
C2175 C2169 1.390 . S
C2175 C2172 1.386 . S
C2176 C2171 1.490 . S
C2176 C2178 1.395 . S
C2176 C2179 1.403 . S
H2177 C2183 0.930 . S
C2178 H2164 0.930 . S
C2178 C2176 1.395 . S
C2178 C2181 1.403 . S
C2179 C2176 1.403 . S
C2179 C2180 1.524 . S
C2179 C2183 1.400 . S
C2180 H2165 0.960 . S
C2180 H2166 0.960 . S
C2180 H2167 0.960 . S
C2180 C2179 1.524 . S
C2181 C2178 1.403 . S
C2181 C2182 1.392 . S
C2181 C2185 1.495 . S
C2182 C2181 1.392 . S
C2182 C2183 1.385 . S
C2182 C2184 1.478 . S
C2183 H2177 0.930 . S
C2183 C2179 1.400 . S
C2183 C2182 1.385 . S
C2184 C2182 1.478 . S
C2184 C2186 1.381 . S
C2184 C2190 1.383 . S
C2185 C2181 1.495 . S
C2185 H2191 0.959 . S
C2185 H2192 0.961 . S
C2185 H2193 0.960 . S
C2186 C2184 1.381 . S
C2186 C2187 1.394 . S
C2186 H2194 0.930 . S
C2187 C2186 1.394 . S
C2187 C2188 1.383 . S
C2187 H2195 0.929 . S
C2188 C2187 1.383 . S
C2188 C2189 1.377 . S
C2189 H2173 0.930 . S
C2189 C2188 1.377 . S
C2189 C2190 1.379 . S
C2190 H2174 0.931 . S
C2190 C2184 1.383 . S
C2190 C2189 1.379 . S
H2191 C2185 0.959 . S
H2192 C2185 0.961 . S
H2193 C2185 0.960 . S
H2194 C2186 0.930 . S
H2195 C2187 0.929 . S
H2196 C2204 0.929 . S
H2197 C2206 0.930 . S
H2198 C2208 0.930 . S
H2199 C2211 0.929 . S
H2200 C2214 0.930 . S
H2201 C2216 0.960 . S
H2202 C2216 0.960 . S
H2203 C2216 0.960 . S
C2204 H2196 0.929 . S
C2204 C2205 1.377 . S
C2204 C2206 1.384 . S
C2205 C2204 1.377 . S
C2205 C2211 1.390 . S
C2206 H2197 0.930 . S
C2206 C2204 1.384 . S
C2206 C2207 1.372 . S
C2207 C2206 1.372 . S
C2207 C2208 1.400 . S
C2207 C2212 1.490 . S
C2208 H2198 0.930 . S
C2208 C2207 1.400 . S
C2208 C2211 1.386 . S
H2209 C2225 0.930 . S
H2210 C2226 0.931 . S
C2211 H2199 0.929 . S
C2211 C2205 1.390 . S
C2211 C2208 1.386 . S
C2212 C2207 1.490 . S
C2212 C2214 1.395 . S
C2212 C2215 1.403 . S
H2213 C2219 0.930 . S
C2214 H2200 0.930 . S
C2214 C2212 1.395 . S
C2214 C2217 1.403 . S
C2215 C2212 1.403 . S
C2215 C2216 1.524 . S
C2215 C2219 1.400 . S
C2216 H2201 0.960 . S
C2216 H2202 0.960 . S
C2216 H2203 0.960 . S
C2216 C2215 1.524 . S
C2217 C2214 1.403 . S
C2217 C2218 1.392 . S
C2217 C2221 1.495 . S
C2218 C2217 1.392 . S
C2218 C2219 1.385 . S
C2218 C2220 1.478 . S
C2219 H2213 0.930 . S
C2219 C2215 1.400 . S
C2219 C2218 1.385 . S
C2220 C2218 1.478 . S
C2220 C2222 1.381 . S
C2220 C2226 1.383 . S
C2221 C2217 1.495 . S
C2221 H2227 0.959 . S
C2221 H2228 0.961 . S
C2221 H2229 0.960 . S
C2222 C2220 1.381 . S
C2222 C2223 1.394 . S
C2222 H2230 0.930 . S
C2223 C2222 1.394 . S
C2223 C2224 1.383 . S
C2223 H2231 0.929 . S
C2224 C2223 1.383 . S
C2224 C2225 1.377 . S
C2225 H2209 0.930 . S
C2225 C2224 1.377 . S
C2225 C2226 1.379 . S
C2226 H2210 0.931 . S
C2226 C2220 1.383 . S
C2226 C2225 1.379 . S
H2227 C2221 0.959 . S
H2228 C2221 0.961 . S
H2229 C2221 0.960 . S
H2230 C2222 0.930 . S
H2231 C2223 0.929 . S
H2232 C2240 0.929 . S
H2233 C2242 0.930 . S
H2234 C2244 0.930 . S
H2235 C2247 0.929 . S
H2236 C2250 0.930 . S
H2237 C2252 0.960 1_545 S
H2238 C2252 0.960 . S
H2239 C2252 0.960 . S
C2240 H2232 0.929 . S
C2240 C2241 1.377 . S
C2240 C2242 1.384 . S
C2241 C2240 1.377 . S
C2241 C2247 1.390 . S
C2242 H2233 0.930 . S
C2242 C2240 1.384 . S
C2242 C2243 1.372 . S
C2243 C2242 1.372 . S
C2243 C2244 1.400 . S
C2243 C2248 1.490 . S
C2244 H2234 0.930 . S
C2244 C2243 1.400 . S
C2244 C2247 1.386 . S
H2245 C2261 0.930 . S
H2246 C2262 0.931 . S
C2247 H2235 0.929 . S
C2247 C2241 1.390 . S
C2247 C2244 1.386 . S
C2248 C2243 1.490 . S
C2248 C2250 1.395 . S
C2248 C2251 1.403 . S
H2249 C2255 0.930 . S
C2250 H2236 0.930 . S
C2250 C2248 1.395 . S
C2250 C2253 1.403 . S
C2251 C2248 1.403 . S
C2251 C2252 1.524 . S
C2251 C2255 1.400 1_565 S
C2252 H2237 0.960 1_565 S
C2252 H2238 0.960 . S
C2252 H2239 0.960 . S
C2252 C2251 1.524 . S
C2253 C2250 1.403 . S
C2253 C2254 1.392 1_565 S
C2253 C2257 1.518 . S
C2254 C2253 1.392 1_545 S
C2254 C2255 1.385 . S
C2254 C2256 1.478 . S
C2255 H2249 0.930 . S
C2255 C2251 1.400 1_545 S
C2255 C2254 1.385 . S
C2256 C2254 1.478 . S
C2256 C2258 1.381 . S
C2256 C2262 1.383 . S
C2257 C2253 1.518 . S
C2257 H2263 0.991 . S
C2257 H2264 0.919 1_565 S
C2257 H2265 0.951 1_565 S
C2258 C2256 1.381 . S
C2258 C2259 1.394 . S
C2258 H2266 0.930 . S
C2259 C2258 1.394 . S
C2259 C2260 1.383 . S
C2259 H2267 0.929 . S
C2260 C2259 1.383 . S
C2260 C2261 1.377 . S
C2261 H2245 0.930 . S
C2261 C2260 1.377 . S
C2261 C2262 1.379 . S
C2262 H2246 0.931 . S
C2262 C2256 1.383 . S
C2262 C2261 1.379 . S
H2263 C2257 0.991 . S
H2264 C2257 0.919 1_545 S
H2265 C2257 0.951 1_545 S
H2266 C2258 0.930 . S
H2267 C2259 0.929 . S
H2268 C2276 0.929 . S
H2269 C2278 0.930 . S
H2270 C2280 0.930 . S
H2271 C2283 0.929 . S
H2272 C2286 0.930 . S
H2273 C2288 0.960 . S
H2274 C2288 0.960 . S
H2275 C2288 0.960 . S
C2276 H2268 0.929 . S
C2276 C2277 1.377 . S
C2276 C2278 1.384 . S
C2277 C2276 1.377 . S
C2277 C2283 1.390 . S
C2278 H2269 0.930 . S
C2278 C2276 1.384 . S
C2278 C2279 1.372 . S
C2279 C2278 1.372 . S
C2279 C2280 1.400 . S
C2279 C2284 1.490 . S
C2280 H2270 0.930 . S
C2280 C2279 1.400 . S
C2280 C2283 1.386 . S
H2281 C2297 0.930 . S
H2282 C2298 0.931 . S
C2283 H2271 0.929 . S
C2283 C2277 1.390 . S
C2283 C2280 1.386 . S
C2284 C2279 1.490 . S
C2284 C2286 1.395 . S
C2284 C2287 1.403 . S
H2285 C2291 0.930 . S
C2286 H2272 0.930 . S
C2286 C2284 1.395 . S
C2286 C2289 1.403 1_455 S
C2287 C2284 1.403 . S
C2287 C2288 1.524 . S
C2287 C2291 1.400 1_455 S
C2288 H2273 0.960 . S
C2288 H2274 0.960 . S
C2288 H2275 0.960 . S
C2288 C2287 1.524 . S
C2289 C2286 1.403 1_655 S
C2289 C2290 1.392 . S
C2289 C2293 1.495 . S
C2290 C2289 1.392 . S
C2290 C2291 1.385 . S
C2290 C2292 1.478 . S
C2291 H2285 0.930 . S
C2291 C2287 1.400 1_655 S
C2291 C2290 1.385 . S
C2292 C2290 1.478 . S
C2292 C2294 1.381 . S
C2292 C2298 1.383 . S
C2293 C2289 1.495 . S
C2293 H2299 0.959 . S
C2293 H2300 0.961 . S
C2293 H2301 0.960 . S
C2294 C2292 1.381 . S
C2294 C2295 1.394 . S
C2294 H2302 0.930 . S
C2295 C2294 1.394 . S
C2295 C2296 1.383 . S
C2295 H2303 0.929 . S
C2296 C2295 1.383 . S
C2296 C2297 1.377 . S
C2297 H2281 0.930 . S
C2297 C2296 1.377 . S
C2297 C2298 1.379 . S
C2298 H2282 0.931 . S
C2298 C2292 1.383 . S
C2298 C2297 1.379 . S
H2299 C2293 0.959 . S
H2300 C2293 0.961 . S
H2301 C2293 0.960 . S
H2302 C2294 0.930 . S
H2303 C2295 0.929 . S
H2304 C2312 0.929 . S
H2305 C2314 0.930 . S
H2306 C2316 0.930 . S
H2307 C2319 0.929 . S
H2308 C2322 0.930 . S
H2309 C2324 0.960 . S
H2310 C2324 0.960 . S
H2311 C2324 0.960 . S
C2312 H2304 0.929 . S
C2312 C2313 1.377 . S
C2312 C2314 1.384 . S
C2313 C2312 1.377 . S
C2313 C2319 1.390 . S
C2314 H2305 0.930 . S
C2314 C2312 1.384 . S
C2314 C2315 1.372 . S
C2315 C2314 1.372 . S
C2315 C2316 1.400 . S
C2315 C2320 1.490 . S
C2316 H2306 0.930 . S
C2316 C2315 1.400 . S
C2316 C2319 1.386 . S
H2317 C2333 0.930 . S
H2318 C2334 0.931 . S
C2319 H2307 0.929 . S
C2319 C2313 1.390 . S
C2319 C2316 1.386 . S
C2320 C2315 1.490 . S
C2320 C2322 1.395 . S
C2320 C2323 1.403 . S
H2321 C2327 0.930 . S
C2322 H2308 0.930 . S
C2322 C2320 1.395 . S
C2322 C2325 1.403 . S
C2323 C2320 1.403 . S
C2323 C2324 1.524 . S
C2323 C2327 1.400 . S
C2324 H2309 0.960 . S
C2324 H2310 0.960 . S
C2324 H2311 0.960 . S
C2324 C2323 1.524 . S
C2325 C2322 1.403 . S
C2325 C2326 1.392 . S
C2325 C2329 1.495 . S
C2326 C2325 1.392 . S
C2326 C2327 1.385 . S
C2326 C2328 1.478 . S
C2327 H2321 0.930 . S
C2327 C2323 1.400 . S
C2327 C2326 1.385 . S
C2328 C2326 1.478 . S
C2328 C2330 1.381 . S
C2328 C2334 1.383 . S
C2329 C2325 1.495 . S
C2329 H2335 0.959 . S
C2329 H2336 0.961 . S
C2329 H2337 0.960 . S
C2330 C2328 1.381 . S
C2330 C2331 1.394 . S
C2330 H2338 0.930 . S
C2331 C2330 1.394 . S
C2331 C2332 1.383 . S
C2331 H2339 0.929 . S
C2332 C2331 1.383 . S
C2332 C2333 1.377 . S
C2333 H2317 0.930 . S
C2333 C2332 1.377 . S
C2333 C2334 1.379 . S
C2334 H2318 0.931 . S
C2334 C2328 1.383 . S
C2334 C2333 1.379 . S
H2335 C2329 0.959 . S
H2336 C2329 0.961 . S
H2337 C2329 0.960 . S
H2338 C2330 0.930 . S
H2339 C2331 0.929 . S
H2340 C2348 0.929 . S
H2341 C2350 0.930 . S
H2342 C2352 0.930 . S
H2343 C2355 0.929 . S
H2344 C2358 0.930 . S
H2345 C2360 0.960 . S
H2346 C2360 0.960 . S
H2347 C2360 0.960 . S
C2348 H2340 0.929 . S
C2348 C2349 1.377 . S
C2348 C2350 1.384 . S
C2349 C2348 1.377 . S
C2349 C2355 1.390 . S
C2350 H2341 0.930 . S
C2350 C2348 1.384 . S
C2350 C2351 1.372 . S
C2351 C2350 1.372 . S
C2351 C2352 1.400 . S
C2351 C2356 1.490 . S
C2352 H2342 0.930 . S
C2352 C2351 1.400 . S
C2352 C2355 1.386 . S
H2353 C2369 0.930 . S
H2354 C2370 0.931 . S
C2355 H2343 0.929 . S
C2355 C2349 1.390 . S
C2355 C2352 1.386 . S
C2356 C2351 1.490 . S
C2356 C2358 1.395 . S
C2356 C2359 1.403 . S
H2357 C2363 0.930 . S
C2358 H2344 0.930 . S
C2358 C2356 1.395 . S
C2358 C2361 1.403 1_565 S
C2359 C2356 1.403 . S
C2359 C2360 1.524 . S
C2359 C2363 1.400 1_565 S
C2360 H2345 0.960 . S
C2360 H2346 0.960 . S
C2360 H2347 0.960 . S
C2360 C2359 1.524 . S
C2361 C2358 1.403 1_545 S
C2361 C2362 1.392 . S
C2361 C2365 1.495 . S
C2362 C2361 1.392 . S
C2362 C2363 1.385 . S
C2362 C2364 1.478 . S
C2363 H2357 0.930 . S
C2363 C2359 1.400 1_545 S
C2363 C2362 1.385 . S
C2364 C2362 1.478 . S
C2364 C2366 1.381 . S
C2364 C2370 1.383 . S
C2365 C2361 1.495 . S
C2365 H2371 0.959 . S
C2365 H2372 0.961 . S
C2365 H2373 0.960 . S
C2366 C2364 1.381 . S
C2366 C2367 1.394 . S
C2366 H2374 0.930 . S
C2367 C2366 1.394 . S
C2367 C2368 1.383 . S
C2367 H2375 0.929 . S
C2368 C2367 1.383 . S
C2368 C2369 1.377 . S
C2369 H2353 0.930 . S
C2369 C2368 1.377 . S
C2369 C2370 1.379 . S
C2370 H2354 0.931 . S
C2370 C2364 1.383 . S
C2370 C2369 1.379 . S
H2371 C2365 0.959 . S
H2372 C2365 0.961 . S
H2373 C2365 0.960 . S
H2374 C2366 0.930 . S
H2375 C2367 0.929 . S
H2376 C2384 0.929 . S
H2377 C2386 0.930 . S
H2378 C2388 0.930 . S
H2379 C2391 0.929 . S
H2380 C2394 0.930 . S
H2381 C2396 0.960 . S
H2382 C2396 0.960 . S
H2383 C2396 0.960 . S
C2384 H2376 0.929 . S
C2384 C2385 1.377 . S
C2384 C2386 1.384 . S
C2385 C2384 1.377 . S
C2385 C2391 1.390 . S
C2386 H2377 0.930 . S
C2386 C2384 1.384 . S
C2386 C2387 1.372 . S
C2387 C2386 1.372 . S
C2387 C2388 1.400 . S
C2387 C2392 1.490 . S
C2388 H2378 0.930 . S
C2388 C2387 1.400 . S
C2388 C2391 1.386 . S
H2389 C2405 0.930 . S
H2390 C2406 0.931 . S
C2391 H2379 0.929 . S
C2391 C2385 1.390 . S
C2391 C2388 1.386 . S
C2392 C2387 1.490 . S
C2392 C2394 1.395 . S
C2392 C2395 1.403 . S
H2393 C2399 0.930 . S
C2394 H2380 0.930 . S
C2394 C2392 1.395 . S
C2394 C2397 1.356 1_455 S
C2395 C2392 1.403 . S
C2395 C2396 1.524 . S
C2395 C2399 1.400 1_455 S
C2396 H2381 0.960 . S
C2396 H2382 0.960 . S
C2396 H2383 0.960 . S
C2396 C2395 1.524 . S
C2397 C2394 1.356 1_655 S
C2397 C2398 1.406 . S
C2397 C2401 1.528 . S
C2398 C2397 1.406 . S
C2398 C2399 1.385 . S
C2398 C2400 1.478 . S
C2399 H2393 0.930 . S
C2399 C2395 1.400 1_655 S
C2399 C2398 1.385 . S
C2400 C2398 1.478 . S
C2400 C2402 1.381 . S
C2400 C2406 1.383 . S
C2401 C2397 1.528 . S
C2401 H2407 0.959 1_655 S
C2401 H2408 0.961 . S
C2401 H2409 0.960 . S
C2402 C2400 1.381 . S
C2402 C2403 1.394 . S
C2402 H2410 0.930 . S
C2403 C2402 1.394 . S
C2403 C2404 1.383 . S
C2403 H2411 0.929 . S
C2404 C2403 1.383 . S
C2404 C2405 1.377 . S
C2405 H2389 0.930 . S
C2405 C2404 1.377 . S
C2405 C2406 1.379 . S
C2406 H2390 0.931 . S
C2406 C2400 1.383 . S
C2406 C2405 1.379 . S
H2407 C2401 0.959 1_455 S
H2408 C2401 0.961 . S
H2409 C2401 0.960 . S
H2410 C2402 0.930 . S
H2411 C2403 0.929 . S
H2412 C2420 0.929 . S
H2413 C2422 0.930 1_556 S
H2414 C2424 0.930 1_556 S
H2415 C2427 0.929 . S
H2416 C2430 0.930 . S
H2417 C2432 0.960 . S
H2418 C2432 0.960 . S
H2419 C2432 0.960 . S
C2420 H2412 0.929 . S
C2420 C2421 1.377 . S
C2420 C2422 1.384 . S
C2421 C2420 1.377 . S
C2421 C2427 1.390 . S
C2422 H2413 0.930 1_554 S
C2422 C2420 1.384 . S
C2422 C2423 1.372 1_554 S
C2423 C2422 1.372 1_556 S
C2423 C2424 1.400 1_556 S
C2423 C2428 1.490 . S
C2424 H2414 0.930 1_554 S
C2424 C2423 1.400 1_554 S
C2424 C2427 1.386 . S
H2425 C2441 0.930 . S
H2426 C2442 0.931 . S
C2427 H2415 0.929 . S
C2427 C2421 1.390 . S
C2427 C2424 1.386 . S
C2428 C2423 1.490 . S
C2428 C2430 1.395 . S
C2428 C2431 1.403 . S
H2429 C2435 0.930 . S
C2430 H2416 0.930 . S
C2430 C2428 1.395 . S
C2430 C2433 1.403 . S
C2431 C2428 1.403 . S
C2431 C2432 1.524 . S
C2431 C2435 1.400 . S
C2432 H2417 0.960 . S
C2432 H2418 0.960 . S
C2432 H2419 0.960 . S
C2432 C2431 1.524 . S
C2433 C2430 1.403 . S
C2433 C2434 1.392 . S
C2433 C2437 1.495 . S
C2434 C2433 1.392 . S
C2434 C2435 1.385 . S
C2434 C2436 1.478 . S
C2435 H2429 0.930 . S
C2435 C2431 1.400 . S
C2435 C2434 1.385 . S
C2436 C2434 1.478 . S
C2436 C2438 1.381 . S
C2436 C2442 1.383 . S
C2437 C2433 1.495 . S
C2437 H2443 0.959 . S
C2437 H2444 0.961 . S
C2437 H2445 0.960 . S
C2438 C2436 1.381 . S
C2438 C2439 1.394 . S
C2438 H2446 0.930 . S
C2439 C2438 1.394 . S
C2439 C2440 1.383 . S
C2439 H2447 0.929 . S
C2440 C2439 1.383 . S
C2440 C2441 1.377 . S
C2441 H2425 0.930 . S
C2441 C2440 1.377 . S
C2441 C2442 1.379 . S
C2442 H2426 0.931 . S
C2442 C2436 1.383 . S
C2442 C2441 1.379 . S
H2443 C2437 0.959 . S
H2444 C2437 0.961 . S
H2445 C2437 0.960 . S
H2446 C2438 0.930 . S
H2447 C2439 0.929 . S
H2448 C2456 0.929 . S
H2449 C2458 0.930 . S
H2450 C2460 0.936 . S
H2451 C2463 0.929 . S
H2452 C2466 0.930 . S
H2453 C2468 0.960 . S
H2454 C2468 0.960 . S
H2455 C2468 0.960 . S
C2456 H2448 0.929 . S
C2456 C2457 1.377 . S
C2456 C2458 1.384 . S
C2457 C2456 1.377 . S
C2457 C2463 1.390 . S
C2458 H2449 0.930 . S
C2458 C2456 1.384 . S
C2458 C2459 1.372 1_554 S
C2459 C2458 1.372 1_556 S
C2459 C2460 1.400 1_556 S
C2459 C2464 1.490 . S
C2460 H2450 0.936 . S
C2460 C2459 1.400 1_554 S
C2460 C2463 1.386 . S
H2461 C2477 0.930 . S
H2462 C2478 0.931 . S
C2463 H2451 0.929 . S
C2463 C2457 1.390 . S
C2463 C2460 1.386 . S
C2464 C2459 1.490 . S
C2464 C2466 1.395 . S
C2464 C2467 1.403 . S
H2465 C2471 0.930 . S
C2466 H2452 0.930 . S
C2466 C2464 1.395 . S
C2466 C2469 1.403 . S
C2467 C2464 1.403 . S
C2467 C2468 1.524 . S
C2467 C2471 1.400 . S
C2468 H2453 0.960 . S
C2468 H2454 0.960 . S
C2468 H2455 0.960 . S
C2468 C2467 1.524 . S
C2469 C2466 1.403 . S
C2469 C2470 1.392 . S
C2469 C2473 1.495 . S
C2470 C2469 1.392 . S
C2470 C2471 1.385 . S
C2470 C2472 1.478 . S
C2471 H2465 0.930 . S
C2471 C2467 1.400 . S
C2471 C2470 1.385 . S
C2472 C2470 1.478 . S
C2472 C2474 1.381 . S
C2472 C2478 1.383 . S
C2473 C2469 1.495 . S
C2473 H2479 0.959 . S
C2473 H2480 0.961 . S
C2473 H2481 0.960 . S
C2474 C2472 1.381 . S
C2474 C2475 1.394 . S
C2474 H2482 0.930 . S
C2475 C2474 1.394 . S
C2475 C2476 1.383 . S
C2475 H2483 0.929 . S
C2476 C2475 1.383 . S
C2476 C2477 1.377 . S
C2477 H2461 0.930 . S
C2477 C2476 1.377 . S
C2477 C2478 1.379 . S
C2478 H2462 0.931 . S
C2478 C2472 1.383 . S
C2478 C2477 1.379 . S
H2479 C2473 0.959 . S
H2480 C2473 0.961 . S
H2481 C2473 0.960 . S
H2482 C2474 0.930 . S
H2483 C2475 0.929 . S
H2484 C2492 0.929 . S
H2485 C2494 0.930 . S
H2486 C2496 0.930 1_556 S
H2487 C2499 0.929 . S
H2488 C2502 0.930 . S
H2489 C2504 0.960 . S
H2490 C2504 0.960 . S
H2491 C2504 0.960 . S
C2492 H2484 0.929 . S
C2492 C2493 1.377 . S
C2492 C2494 1.384 . S
C2493 C2492 1.377 . S
C2493 C2499 1.390 . S
C2494 H2485 0.930 . S
C2494 C2492 1.384 . S
C2494 C2495 1.372 1_554 S
C2495 C2494 1.372 1_556 S
C2495 C2496 1.400 1_556 S
C2495 C2500 1.490 . S
C2496 H2486 0.930 1_554 S
C2496 C2495 1.400 1_554 S
C2496 C2499 1.386 . S
H2497 C2513 0.930 . S
H2498 C2514 0.931 . S
C2499 H2487 0.929 . S
C2499 C2493 1.390 . S
C2499 C2496 1.386 . S
C2500 C2495 1.490 . S
C2500 C2502 1.395 . S
C2500 C2503 1.403 . S
H2501 C2507 0.930 . S
C2502 H2488 0.930 . S
C2502 C2500 1.395 . S
C2502 C2505 1.403 . S
C2503 C2500 1.403 . S
C2503 C2504 1.524 . S
C2503 C2507 1.400 . S
C2504 H2489 0.960 . S
C2504 H2490 0.960 . S
C2504 H2491 0.960 . S
C2504 C2503 1.524 . S
C2505 C2502 1.403 . S
C2505 C2506 1.392 . S
C2505 C2509 1.495 . S
C2506 C2505 1.392 . S
C2506 C2507 1.385 . S
C2506 C2508 1.478 . S
C2507 H2501 0.930 . S
C2507 C2503 1.400 . S
C2507 C2506 1.385 . S
C2508 C2506 1.478 . S
C2508 C2510 1.381 . S
C2508 C2514 1.383 . S
C2509 C2505 1.495 . S
C2509 H2515 0.959 . S
C2509 H2516 0.961 . S
C2509 H2517 0.960 . S
C2510 C2508 1.381 . S
C2510 C2511 1.394 . S
C2510 H2518 0.930 . S
C2511 C2510 1.394 . S
C2511 C2512 1.383 . S
C2511 H2519 0.929 . S
C2512 C2511 1.383 . S
C2512 C2513 1.377 . S
C2513 H2497 0.930 . S
C2513 C2512 1.377 . S
C2513 C2514 1.379 . S
C2514 H2498 0.931 . S
C2514 C2508 1.383 . S
C2514 C2513 1.379 . S
H2515 C2509 0.959 . S
H2516 C2509 0.961 . S
H2517 C2509 0.960 . S
H2518 C2510 0.930 . S
H2519 C2511 0.929 . S
H2520 C2528 0.929 . S
H2521 C2530 0.930 . S
H2522 C2532 0.930 . S
H2523 C2535 0.929 . S
H2524 C2538 0.930 . S
H2525 C2540 0.960 . S
H2526 C2540 0.960 . S
H2527 C2540 0.960 . S
C2528 H2520 0.929 . S
C2528 C2529 1.377 . S
C2528 C2530 1.384 . S
C2529 C2528 1.377 . S
C2529 C2535 1.390 . S
C2530 H2521 0.930 . S
C2530 C2528 1.384 . S
C2530 C2531 1.372 . S
C2531 C2530 1.372 . S
C2531 C2532 1.400 . S
C2531 C2536 1.490 . S
C2532 H2522 0.930 . S
C2532 C2531 1.400 . S
C2532 C2535 1.386 . S
H2533 C2549 0.930 . S
H2534 C2550 0.931 . S
C2535 H2523 0.929 . S
C2535 C2529 1.390 . S
C2535 C2532 1.386 . S
C2536 C2531 1.490 . S
C2536 C2538 1.395 . S
C2536 C2539 1.403 . S
H2537 C2543 0.930 . S
C2538 H2524 0.930 . S
C2538 C2536 1.395 . S
C2538 C2541 1.403 . S
C2539 C2536 1.403 . S
C2539 C2540 1.524 . S
C2539 C2543 1.400 . S
C2540 H2525 0.960 . S
C2540 H2526 0.960 . S
C2540 H2527 0.960 . S
C2540 C2539 1.524 . S
C2541 C2538 1.403 . S
C2541 C2542 1.392 . S
C2541 C2545 1.495 . S
C2542 C2541 1.392 . S
C2542 C2543 1.385 . S
C2542 C2544 1.478 . S
C2543 H2537 0.930 . S
C2543 C2539 1.400 . S
C2543 C2542 1.385 . S
C2544 C2542 1.478 . S
C2544 C2546 1.381 . S
C2544 C2550 1.383 . S
C2545 C2541 1.495 . S
C2545 H2551 0.959 . S
C2545 H2552 0.961 . S
C2545 H2553 0.960 . S
C2546 C2544 1.381 . S
C2546 C2547 1.394 . S
C2546 H2554 0.930 . S
C2547 C2546 1.394 . S
C2547 C2548 1.383 . S
C2547 H2555 0.929 . S
C2548 C2547 1.383 . S
C2548 C2549 1.377 . S
C2549 H2533 0.930 . S
C2549 C2548 1.377 . S
C2549 C2550 1.379 . S
C2550 H2534 0.931 . S
C2550 C2544 1.383 . S
C2550 C2549 1.379 . S
H2551 C2545 0.959 . S
H2552 C2545 0.961 . S
H2553 C2545 0.960 . S
H2554 C2546 0.930 . S
H2555 C2547 0.929 . S
H2556 C2564 0.929 . S
H2557 C2566 0.930 . S
H2558 C2568 0.930 . S
H2559 C2571 0.929 . S
H2560 C2574 0.930 . S
H2561 C2576 0.960 . S
H2562 C2576 0.960 . S
H2563 C2576 0.960 . S
C2564 H2556 0.929 . S
C2564 C2565 1.377 . S
C2564 C2566 1.384 . S
C2565 C2564 1.377 . S
C2565 C2571 1.390 . S
C2566 H2557 0.930 . S
C2566 C2564 1.384 . S
C2566 C2567 1.372 . S
C2567 C2566 1.372 . S
C2567 C2568 1.400 . S
C2567 C2572 1.490 . S
C2568 H2558 0.930 . S
C2568 C2567 1.400 . S
C2568 C2571 1.386 . S
H2569 C2585 0.930 . S
H2570 C2586 0.931 . S
C2571 H2559 0.929 . S
C2571 C2565 1.390 . S
C2571 C2568 1.386 . S
C2572 C2567 1.490 . S
C2572 C2574 1.395 . S
C2572 C2575 1.403 . S
H2573 C2579 0.930 . S
C2574 H2560 0.930 . S
C2574 C2572 1.395 . S
C2574 C2577 1.403 . S
C2575 C2572 1.403 . S
C2575 C2576 1.524 . S
C2575 C2579 1.400 . S
C2576 H2561 0.960 . S
C2576 H2562 0.960 . S
C2576 H2563 0.960 . S
C2576 C2575 1.524 . S
C2577 C2574 1.403 . S
C2577 C2578 1.392 . S
C2577 C2581 1.495 . S
C2578 C2577 1.392 . S
C2578 C2579 1.385 . S
C2578 C2580 1.478 . S
C2579 H2573 0.930 . S
C2579 C2575 1.400 . S
C2579 C2578 1.385 . S
C2580 C2578 1.478 . S
C2580 C2582 1.381 . S
C2580 C2586 1.383 . S
C2581 C2577 1.495 . S
C2581 H2587 0.959 . S
C2581 H2588 0.961 . S
C2581 H2589 0.960 . S
C2582 C2580 1.381 . S
C2582 C2583 1.394 . S
C2582 H2590 0.930 . S
C2583 C2582 1.394 . S
C2583 C2584 1.383 . S
C2583 H2591 0.929 . S
C2584 C2583 1.383 . S
C2584 C2585 1.377 . S
C2585 H2569 0.930 . S
C2585 C2584 1.377 . S
C2585 C2586 1.379 . S
C2586 H2570 0.931 . S
C2586 C2580 1.383 . S
C2586 C2585 1.379 . S
H2587 C2581 0.959 . S
H2588 C2581 0.961 . S
H2589 C2581 0.960 . S
H2590 C2582 0.930 . S
H2591 C2583 0.929 . S
H2592 C2600 0.929 . S
H2593 C2602 0.930 . S
H2594 C2604 0.930 . S
H2595 C2607 0.929 . S
H2596 C2610 0.930 . S
H2597 C2612 0.960 . S
H2598 C2612 0.960 . S
H2599 C2612 0.960 . S
C2600 H2592 0.929 . S
C2600 C2601 1.377 . S
C2600 C2602 1.384 . S
C2601 C2600 1.377 . S
C2601 C2607 1.390 . S
C2602 H2593 0.930 . S
C2602 C2600 1.384 . S
C2602 C2603 1.372 . S
C2603 C2602 1.372 . S
C2603 C2604 1.400 . S
C2603 C2608 1.490 . S
C2604 H2594 0.930 . S
C2604 C2603 1.400 . S
C2604 C2607 1.386 . S
H2605 C2621 0.930 . S
H2606 C2622 0.931 . S
C2607 H2595 0.929 . S
C2607 C2601 1.390 . S
C2607 C2604 1.386 . S
C2608 C2603 1.490 . S
C2608 C2610 1.395 . S
C2608 C2611 1.403 . S
H2609 C2615 0.930 . S
C2610 H2596 0.930 . S
C2610 C2608 1.395 . S
C2610 C2613 1.403 . S
C2611 C2608 1.403 . S
C2611 C2612 1.524 . S
C2611 C2615 1.400 . S
C2612 H2597 0.960 . S
C2612 H2598 0.960 . S
C2612 H2599 0.960 . S
C2612 C2611 1.524 . S
C2613 C2610 1.403 . S
C2613 C2614 1.392 . S
C2613 C2617 1.495 . S
C2614 C2613 1.392 . S
C2614 C2615 1.385 . S
C2614 C2616 1.478 . S
C2615 H2609 0.930 . S
C2615 C2611 1.400 . S
C2615 C2614 1.385 . S
C2616 C2614 1.478 . S
C2616 C2618 1.381 . S
C2616 C2622 1.383 . S
C2617 C2613 1.495 . S
C2617 H2623 0.959 . S
C2617 H2624 0.961 . S
C2617 H2625 0.960 . S
C2618 C2616 1.381 . S
C2618 C2619 1.394 . S
C2618 H2626 0.930 . S
C2619 C2618 1.394 . S
C2619 C2620 1.383 . S
C2619 H2627 0.929 . S
C2620 C2619 1.383 . S
C2620 C2621 1.377 . S
C2621 H2605 0.930 . S
C2621 C2620 1.377 . S
C2621 C2622 1.379 . S
C2622 H2606 0.931 . S
C2622 C2616 1.383 . S
C2622 C2621 1.379 . S
H2623 C2617 0.959 . S
H2624 C2617 0.961 . S
H2625 C2617 0.960 . S
H2626 C2618 0.930 . S
H2627 C2619 0.929 . S
H2628 C2636 0.929 . S
H2629 C2638 0.930 . S
H2630 C2640 0.930 . S
H2631 C2643 0.929 . S
H2632 C2646 0.930 . S
H2633 C2648 0.960 . S
H2634 C2648 0.960 . S
H2635 C2648 0.960 . S
C2636 H2628 0.929 . S
C2636 C2637 1.377 . S
C2636 C2638 1.384 . S
C2637 C2636 1.377 . S
C2637 C2643 1.390 . S
C2638 H2629 0.930 . S
C2638 C2636 1.384 . S
C2638 C2639 1.372 . S
C2639 C2638 1.372 . S
C2639 C2640 1.400 . S
C2639 C2644 1.490 . S
C2640 H2630 0.930 . S
C2640 C2639 1.400 . S
C2640 C2643 1.386 . S
H2641 C2657 0.930 . S
H2642 C2658 0.931 1_554 S
C2643 H2631 0.929 . S
C2643 C2637 1.390 . S
C2643 C2640 1.386 . S
C2644 C2639 1.490 . S
C2644 C2646 1.395 . S
C2644 C2647 1.403 . S
H2645 C2651 0.930 . S
C2646 H2632 0.930 . S
C2646 C2644 1.395 . S
C2646 C2649 1.403 . S
C2647 C2644 1.403 . S
C2647 C2648 1.524 . S
C2647 C2651 1.400 . S
C2648 H2633 0.960 . S
C2648 H2634 0.960 . S
C2648 H2635 0.960 . S
C2648 C2647 1.524 . S
C2649 C2646 1.403 . S
C2649 C2650 1.392 . S
C2649 C2653 1.495 . S
C2650 C2649 1.392 . S
C2650 C2651 1.385 . S
C2650 C2652 1.478 . S
C2651 H2645 0.930 . S
C2651 C2647 1.400 . S
C2651 C2650 1.385 . S
C2652 C2650 1.478 . S
C2652 C2654 1.381 1_554 S
C2652 C2658 1.383 1_554 S
C2653 C2649 1.495 . S
C2653 H2659 0.959 . S
C2653 H2660 0.961 . S
C2653 H2661 0.960 . S
C2654 C2652 1.381 1_556 S
C2654 C2655 1.394 . S
C2654 H2662 0.930 1_556 S
C2655 C2654 1.394 . S
C2655 C2656 1.383 . S
C2655 H2663 0.929 . S
C2656 C2655 1.383 . S
C2656 C2657 1.377 . S
C2657 H2641 0.930 . S
C2657 C2656 1.377 . S
C2657 C2658 1.379 . S
C2658 H2642 0.931 1_556 S
C2658 C2652 1.383 1_556 S
C2658 C2657 1.379 . S
H2659 C2653 0.959 . S
H2660 C2653 0.961 . S
H2661 C2653 0.960 . S
H2662 C2654 0.930 1_554 S
H2663 C2655 0.929 . S
H2664 C2672 0.929 . S
H2665 C2674 0.930 . S
H2666 C2676 0.930 . S
H2667 C2679 0.929 . S
H2668 C2682 0.930 . S
H2669 C2684 0.960 . S
H2670 C2684 0.960 . S
H2671 C2684 0.960 . S
C2672 H2664 0.929 . S
C2672 C2673 1.377 . S
C2672 C2674 1.384 . S
C2673 C2672 1.377 . S
C2673 C2679 1.390 . S
C2674 H2665 0.930 . S
C2674 C2672 1.384 . S
C2674 C2675 1.372 . S
C2675 C2674 1.372 . S
C2675 C2676 1.400 . S
C2675 C2680 1.490 . S
C2676 H2666 0.930 . S
C2676 C2675 1.400 . S
C2676 C2679 1.386 . S
H2677 C2693 0.930 . S
H2678 C2694 0.944 . S
C2679 H2667 0.929 . S
C2679 C2673 1.390 . S
C2679 C2676 1.386 . S
C2680 C2675 1.490 . S
C2680 C2682 1.395 . S
C2680 C2683 1.403 . S
H2681 C2687 0.930 . S
C2682 H2668 0.930 . S
C2682 C2680 1.395 . S
C2682 C2685 1.403 . S
C2683 C2680 1.403 . S
C2683 C2684 1.524 . S
C2683 C2687 1.400 . S
C2684 H2669 0.960 . S
C2684 H2670 0.960 . S
C2684 H2671 0.960 . S
C2684 C2683 1.524 . S
C2685 C2682 1.403 . S
C2685 C2686 1.392 . S
C2685 C2689 1.495 . S
C2686 C2685 1.392 . S
C2686 C2687 1.385 . S
C2686 C2688 1.478 . S
C2687 H2681 0.930 . S
C2687 C2683 1.400 . S
C2687 C2686 1.385 . S
C2688 C2686 1.478 . S
C2688 C2690 1.381 1_554 S
C2688 C2694 1.383 1_554 S
C2689 C2685 1.495 . S
C2689 H2695 0.959 . S
C2689 H2696 0.961 . S
C2689 H2697 0.960 . S
C2690 C2688 1.381 1_556 S
C2690 C2691 1.394 . S
C2690 H2698 0.930 . S
C2691 C2690 1.394 . S
C2691 C2692 1.383 . S
C2691 H2699 0.929 . S
C2692 C2691 1.383 . S
C2692 C2693 1.377 . S
C2693 H2677 0.930 . S
C2693 C2692 1.377 . S
C2693 C2694 1.379 . S
C2694 H2678 0.944 . S
C2694 C2688 1.383 1_556 S
C2694 C2693 1.379 . S
H2695 C2689 0.959 . S
H2696 C2689 0.961 . S
H2697 C2689 0.960 . S
H2698 C2690 0.930 . S
H2699 C2691 0.929 . S
H2700 C2708 0.929 . S
H2701 C2710 0.930 . S
H2702 C2712 0.930 . S
H2703 C2715 0.929 . S
H2704 C2718 0.930 . S
H2705 C2720 0.960 . S
H2706 C2720 0.960 . S
H2707 C2720 0.960 . S
C2708 H2700 0.929 . S
C2708 C2709 1.377 . S
C2708 C2710 1.384 . S
C2709 C2708 1.377 . S
C2709 C2715 1.390 . S
C2710 H2701 0.930 . S
C2710 C2708 1.384 . S
C2710 C2711 1.372 . S
C2711 C2710 1.372 . S
C2711 C2712 1.400 . S
C2711 C2716 1.490 . S
C2712 H2702 0.930 . S
C2712 C2711 1.400 . S
C2712 C2715 1.386 . S
H2713 C2729 0.930 . S
H2714 C2730 0.940 . S
C2715 H2703 0.929 . S
C2715 C2709 1.390 . S
C2715 C2712 1.386 . S
C2716 C2711 1.490 . S
C2716 C2718 1.395 . S
C2716 C2719 1.403 . S
H2717 C2723 0.930 . S
C2718 H2704 0.930 . S
C2718 C2716 1.395 . S
C2718 C2721 1.403 . S
C2719 C2716 1.403 . S
C2719 C2720 1.524 . S
C2719 C2723 1.400 . S
C2720 H2705 0.960 . S
C2720 H2706 0.960 . S
C2720 H2707 0.960 . S
C2720 C2719 1.524 . S
C2721 C2718 1.403 . S
C2721 C2722 1.392 . S
C2721 C2725 1.495 . S
C2722 C2721 1.392 . S
C2722 C2723 1.385 . S
C2722 C2724 1.478 . S
C2723 H2717 0.930 . S
C2723 C2719 1.400 . S
C2723 C2722 1.385 . S
C2724 C2722 1.478 . S
C2724 C2726 1.381 1_554 S
C2724 C2730 1.383 1_554 S
C2725 C2721 1.495 . S
C2725 H2731 0.959 . S
C2725 H2732 0.961 . S
C2725 H2733 0.960 . S
C2726 C2724 1.381 1_556 S
C2726 C2727 1.394 . S
C2726 H2734 0.930 . S
C2727 C2726 1.394 . S
C2727 C2728 1.383 . S
C2727 H2735 0.929 . S
C2728 C2727 1.383 . S
C2728 C2729 1.377 . S
C2729 H2713 0.930 . S
C2729 C2728 1.377 . S
C2729 C2730 1.379 . S
C2730 H2714 0.940 . S
C2730 C2724 1.383 1_556 S
C2730 C2729 1.379 . S
H2731 C2725 0.959 . S
H2732 C2725 0.961 . S
H2733 C2725 0.960 . S
H2734 C2726 0.930 . S
H2735 C2727 0.929 . S
H2736 C2744 0.929 . S
H2737 C2746 0.930 . S
H2738 C2748 0.930 . S
H2739 C2751 0.929 . S
H2740 C2754 0.930 . S
H2741 C2756 0.960 . S
H2742 C2756 0.960 . S
H2743 C2756 0.960 . S
C2744 H2736 0.929 . S
C2744 C2745 1.377 . S
C2744 C2746 1.384 . S
C2745 C2744 1.377 . S
C2745 C2751 1.390 . S
C2746 H2737 0.930 . S
C2746 C2744 1.384 . S
C2746 C2747 1.372 . S
C2747 C2746 1.372 . S
C2747 C2748 1.400 . S
C2747 C2752 1.490 . S
C2748 H2738 0.930 . S
C2748 C2747 1.400 . S
C2748 C2751 1.386 . S
H2749 C2765 0.930 . S
H2750 C2766 0.931 . S
C2751 H2739 0.929 . S
C2751 C2745 1.390 . S
C2751 C2748 1.386 . S
C2752 C2747 1.490 . S
C2752 C2754 1.395 . S
C2752 C2755 1.403 . S
H2753 C2759 0.930 . S
C2754 H2740 0.930 . S
C2754 C2752 1.395 . S
C2754 C2757 1.403 . S
C2755 C2752 1.403 . S
C2755 C2756 1.524 . S
C2755 C2759 1.400 . S
C2756 H2741 0.960 . S
C2756 H2742 0.960 . S
C2756 H2743 0.960 . S
C2756 C2755 1.524 . S
C2757 C2754 1.403 . S
C2757 C2758 1.392 . S
C2757 C2761 1.495 . S
C2758 C2757 1.392 . S
C2758 C2759 1.385 . S
C2758 C2760 1.478 . S
C2759 H2753 0.930 . S
C2759 C2755 1.400 . S
C2759 C2758 1.385 . S
C2760 C2758 1.478 . S
C2760 C2762 1.381 . S
C2760 C2766 1.383 . S
C2761 C2757 1.495 . S
C2761 H2767 0.959 . S
C2761 H2768 0.961 . S
C2761 H2769 0.960 . S
C2762 C2760 1.381 . S
C2762 C2763 1.394 . S
C2762 H2770 0.930 . S
C2763 C2762 1.394 . S
C2763 C2764 1.383 . S
C2763 H2771 0.929 . S
C2764 C2763 1.383 . S
C2764 C2765 1.377 . S
C2765 H2749 0.930 . S
C2765 C2764 1.377 . S
C2765 C2766 1.379 . S
C2766 H2750 0.931 . S
C2766 C2760 1.383 . S
C2766 C2765 1.379 . S
H2767 C2761 0.959 . S
H2768 C2761 0.961 . S
H2769 C2761 0.960 . S
H2770 C2762 0.930 . S
H2771 C2763 0.929 . S
H2772 C2780 0.929 . S
H2773 C2782 0.930 . S
H2774 C2784 0.930 . S
H2775 C2787 0.929 . S
H2776 C2790 0.930 . S
H2777 C2792 0.960 . S
H2778 C2792 0.960 . S
H2779 C2792 0.960 . S
C2780 H2772 0.929 . S
C2780 C2781 1.377 . S
C2780 C2782 1.384 . S
C2781 C2780 1.377 . S
C2781 C2787 1.390 . S
C2782 H2773 0.930 . S
C2782 C2780 1.384 . S
C2782 C2783 1.372 . S
C2783 C2782 1.372 . S
C2783 C2784 1.400 . S
C2783 C2788 1.490 . S
C2784 H2774 0.930 . S
C2784 C2783 1.400 . S
C2784 C2787 1.386 . S
H2785 C2801 0.930 . S
H2786 C2802 0.931 . S
C2787 H2775 0.929 . S
C2787 C2781 1.390 . S
C2787 C2784 1.386 . S
C2788 C2783 1.490 . S
C2788 C2790 1.395 . S
C2788 C2791 1.403 . S
H2789 C2795 0.930 . S
C2790 H2776 0.930 . S
C2790 C2788 1.395 . S
C2790 C2793 1.403 . S
C2791 C2788 1.403 . S
C2791 C2792 1.524 . S
C2791 C2795 1.400 . S
C2792 H2777 0.960 . S
C2792 H2778 0.960 . S
C2792 H2779 0.960 . S
C2792 C2791 1.524 . S
C2793 C2790 1.403 . S
C2793 C2794 1.392 . S
C2793 C2797 1.495 . S
C2794 C2793 1.392 . S
C2794 C2795 1.385 . S
C2794 C2796 1.478 . S
C2795 H2789 0.930 . S
C2795 C2791 1.400 . S
C2795 C2794 1.385 . S
C2796 C2794 1.478 . S
C2796 C2798 1.381 . S
C2796 C2802 1.383 . S
C2797 C2793 1.495 . S
C2797 H2803 0.959 . S
C2797 H2804 0.961 . S
C2797 H2805 0.960 . S
C2798 C2796 1.381 . S
C2798 C2799 1.394 . S
C2798 H2806 0.930 . S
C2799 C2798 1.394 . S
C2799 C2800 1.383 . S
C2799 H2807 0.929 . S
C2800 C2799 1.383 . S
C2800 C2801 1.377 . S
C2801 H2785 0.930 . S
C2801 C2800 1.377 . S
C2801 C2802 1.379 . S
C2802 H2786 0.931 . S
C2802 C2796 1.383 . S
C2802 C2801 1.379 . S
H2803 C2797 0.959 . S
H2804 C2797 0.961 . S
H2805 C2797 0.960 . S
H2806 C2798 0.930 . S
H2807 C2799 0.929 . S
H2808 C2816 0.929 . S
H2809 C2818 0.930 . S
H2810 C2820 0.930 . S
H2811 C2823 0.929 . S
H2812 C2826 0.930 . S
H2813 C2828 0.960 . S
H2814 C2828 0.960 . S
H2815 C2828 0.960 . S
C2816 H2808 0.929 . S
C2816 C2817 1.377 . S
C2816 C2818 1.384 . S
C2817 C2816 1.377 . S
C2817 C2823 1.390 . S
C2818 H2809 0.930 . S
C2818 C2816 1.384 . S
C2818 C2819 1.372 . S
C2819 C2818 1.372 . S
C2819 C2820 1.400 . S
C2819 C2824 1.490 . S
C2820 H2810 0.930 . S
C2820 C2819 1.400 . S
C2820 C2823 1.386 . S
H2821 C2837 0.930 . S
H2822 C2838 0.931 . S
C2823 H2811 0.929 . S
C2823 C2817 1.390 . S
C2823 C2820 1.386 . S
C2824 C2819 1.490 . S
C2824 C2826 1.395 . S
C2824 C2827 1.403 . S
H2825 C2831 0.930 . S
C2826 H2812 0.930 . S
C2826 C2824 1.395 . S
C2826 C2829 1.403 . S
C2827 C2824 1.403 . S
C2827 C2828 1.524 . S
C2827 C2831 1.400 . S
C2828 H2813 0.960 . S
C2828 H2814 0.960 . S
C2828 H2815 0.960 . S
C2828 C2827 1.524 . S
C2829 C2826 1.403 . S
C2829 C2830 1.392 . S
C2829 C2833 1.495 . S
C2830 C2829 1.392 . S
C2830 C2831 1.385 . S
C2830 C2832 1.478 . S
C2831 H2825 0.930 . S
C2831 C2827 1.400 . S
C2831 C2830 1.385 . S
C2832 C2830 1.478 . S
C2832 C2834 1.381 . S
C2832 C2838 1.383 . S
C2833 C2829 1.495 . S
C2833 H2839 0.959 . S
C2833 H2840 0.961 . S
C2833 H2841 0.960 . S
C2834 C2832 1.381 . S
C2834 C2835 1.394 . S
C2834 H2842 0.930 . S
C2835 C2834 1.394 . S
C2835 C2836 1.383 . S
C2835 H2843 0.929 . S
C2836 C2835 1.383 . S
C2836 C2837 1.377 . S
C2837 H2821 0.930 . S
C2837 C2836 1.377 . S
C2837 C2838 1.379 . S
C2838 H2822 0.931 . S
C2838 C2832 1.383 . S
C2838 C2837 1.379 . S
H2839 C2833 0.959 . S
H2840 C2833 0.961 . S
H2841 C2833 0.960 . S
H2842 C2834 0.930 . S
H2843 C2835 0.929 . S
H2844 C2852 0.929 . S
H2845 C2854 0.930 . S
H2846 C2856 0.930 . S
H2847 C2859 0.929 . S
H2848 C2862 0.930 . S
H2849 C2864 1.000 . S
H2850 C2864 0.892 1_655 S
H2851 C2864 1.029 . S
C2852 H2844 0.929 . S
C2852 C2853 1.377 . S
C2852 C2854 1.384 . S
C2853 C2852 1.377 . S
C2853 C2859 1.390 . S
C2854 H2845 0.930 . S
C2854 C2852 1.384 . S
C2854 C2855 1.372 . S
C2855 C2854 1.372 . S
C2855 C2856 1.400 . S
C2855 C2860 1.490 . S
C2856 H2846 0.930 . S
C2856 C2855 1.400 . S
C2856 C2859 1.386 . S
H2857 C2873 0.930 1_455 S
H2858 C2874 0.925 . S
C2859 H2847 0.929 . S
C2859 C2853 1.390 . S
C2859 C2856 1.386 . S
C2860 C2855 1.490 . S
C2860 C2862 1.395 . S
C2860 C2863 1.403 . S
H2861 C2867 0.930 . S
C2862 H2848 0.930 . S
C2862 C2860 1.395 . S
C2862 C2865 1.403 . S
C2863 C2860 1.403 . S
C2863 C2864 1.494 1_655 S
C2863 C2867 1.400 . S
C2864 H2849 1.000 . S
C2864 H2850 0.892 1_455 S
C2864 H2851 1.029 . S
C2864 C2863 1.494 1_455 S
C2865 C2862 1.403 . S
C2865 C2866 1.392 . S
C2865 C2869 1.495 . S
C2866 C2865 1.392 . S
C2866 C2867 1.385 . S
C2866 C2868 1.478 . S
C2867 H2861 0.930 . S
C2867 C2863 1.400 . S
C2867 C2866 1.385 . S
C2868 C2866 1.478 . S
C2868 C2870 1.381 . S
C2868 C2874 1.383 . S
C2869 C2865 1.495 . S
C2869 H2875 0.959 . S
C2869 H2876 0.961 . S
C2869 H2877 0.960 . S
C2870 C2868 1.381 . S
C2870 C2871 1.394 . S
C2870 H2878 0.930 . S
C2871 C2870 1.394 . S
C2871 C2872 1.383 . S
C2871 H2879 0.929 . S
C2872 C2871 1.383 . S
C2872 C2873 1.377 . S
C2873 H2857 0.930 1_655 S
C2873 C2872 1.377 . S
C2873 C2874 1.379 . S
C2874 H2858 0.925 . S
C2874 C2868 1.383 . S
C2874 C2873 1.379 . S
H2875 C2869 0.959 . S
H2876 C2869 0.961 . S
H2877 C2869 0.960 . S
H2878 C2870 0.930 . S
H2879 C2871 0.929 . S
H2880 C2888 0.929 . S
H2881 C2890 0.930 . S
H2882 C2892 0.930 . S
H2883 C2895 0.929 . S
H2884 C2898 0.930 . S
H2885 C2900 0.960 . S
H2886 C2900 0.960 . S
H2887 C2900 0.960 . S
C2888 H2880 0.929 . S
C2888 C2889 1.377 . S
C2888 C2890 1.384 . S
C2889 C2888 1.377 . S
C2889 C2895 1.390 . S
C2890 H2881 0.930 . S
C2890 C2888 1.384 . S
C2890 C2891 1.372 . S
C2891 C2890 1.372 . S
C2891 C2892 1.400 . S
C2891 C2896 1.490 . S
C2892 H2882 0.930 . S
C2892 C2891 1.400 . S
C2892 C2895 1.386 . S
H2893 C2909 0.930 . S
H2894 C2910 0.931 . S
C2895 H2883 0.929 . S
C2895 C2889 1.390 . S
C2895 C2892 1.386 . S
C2896 C2891 1.490 . S
C2896 C2898 1.395 . S
C2896 C2899 1.403 . S
H2897 C2903 0.930 . S
C2898 H2884 0.930 . S
C2898 C2896 1.395 . S
C2898 C2901 1.403 . S
C2899 C2896 1.403 . S
C2899 C2900 1.524 . S
C2899 C2903 1.400 . S
C2900 H2885 0.960 . S
C2900 H2886 0.960 . S
C2900 H2887 0.960 . S
C2900 C2899 1.524 . S
C2901 C2898 1.403 . S
C2901 C2902 1.392 . S
C2901 C2905 1.495 . S
C2902 C2901 1.392 . S
C2902 C2903 1.385 . S
C2902 C2904 1.478 . S
C2903 H2897 0.930 . S
C2903 C2899 1.400 . S
C2903 C2902 1.385 . S
C2904 C2902 1.478 . S
C2904 C2906 1.381 . S
C2904 C2910 1.383 . S
C2905 C2901 1.495 . S
C2905 H2911 0.959 . S
C2905 H2912 0.961 . S
C2905 H2913 0.960 . S
C2906 C2904 1.381 . S
C2906 C2907 1.394 . S
C2906 H2914 0.930 . S
C2907 C2906 1.394 . S
C2907 C2908 1.383 . S
C2907 H2915 0.929 . S
C2908 C2907 1.383 . S
C2908 C2909 1.377 . S
C2909 H2893 0.930 . S
C2909 C2908 1.377 . S
C2909 C2910 1.379 . S
C2910 H2894 0.931 . S
C2910 C2904 1.383 . S
C2910 C2909 1.379 . S
H2911 C2905 0.959 . S
H2912 C2905 0.961 . S
H2913 C2905 0.960 . S
H2914 C2906 0.930 . S
H2915 C2907 0.929 . S
H2916 C2924 0.929 . S
H2917 C2926 0.930 . S
H2918 C2928 0.930 . S
H2919 C2931 0.929 . S
H2920 C2934 0.930 . S
H2921 C2936 0.960 . S
H2922 C2936 0.960 . S
H2923 C2936 0.960 . S
C2924 H2916 0.929 . S
C2924 C2925 1.377 . S
C2924 C2926 1.384 . S
C2925 C2924 1.377 . S
C2925 C2931 1.390 . S
C2926 H2917 0.930 . S
C2926 C2924 1.384 . S
C2926 C2927 1.372 . S
C2927 C2926 1.372 . S
C2927 C2928 1.400 . S
C2927 C2932 1.490 . S
C2928 H2918 0.930 . S
C2928 C2927 1.400 . S
C2928 C2931 1.386 . S
H2929 C2945 0.930 . S
H2930 C2946 0.931 . S
C2931 H2919 0.929 . S
C2931 C2925 1.390 . S
C2931 C2928 1.386 . S
C2932 C2927 1.490 . S
C2932 C2934 1.395 . S
C2932 C2935 1.403 . S
H2933 C2939 0.878 1_545 S
C2934 H2920 0.930 . S
C2934 C2932 1.395 . S
C2934 C2937 1.403 . S
C2935 C2932 1.403 . S
C2935 C2936 1.524 1_565 S
C2935 C2939 1.400 . S
C2936 H2921 0.960 . S
C2936 H2922 0.960 . S
C2936 H2923 0.960 . S
C2936 C2935 1.524 1_545 S
C2937 C2934 1.403 . S
C2937 C2938 1.392 . S
C2937 C2941 1.495 . S
C2938 C2937 1.392 . S
C2938 C2939 1.385 . S
C2938 C2940 1.478 . S
C2939 H2933 0.878 1_565 S
C2939 C2935 1.400 . S
C2939 C2938 1.385 . S
C2940 C2938 1.478 . S
C2940 C2942 1.381 . S
C2940 C2946 1.383 . S
C2941 C2937 1.495 . S
C2941 H2947 0.959 . S
C2941 H2948 0.961 . S
C2941 H2949 0.960 . S
C2942 C2940 1.381 . S
C2942 C2943 1.394 . S
C2942 H2950 0.930 . S
C2943 C2942 1.394 . S
C2943 C2944 1.383 . S
C2943 H2951 0.929 . S
C2944 C2943 1.383 . S
C2944 C2945 1.377 . S
C2945 H2929 0.930 . S
C2945 C2944 1.377 . S
C2945 C2946 1.379 . S
C2946 H2930 0.931 . S
C2946 C2940 1.383 . S
C2946 C2945 1.379 . S
H2947 C2941 0.959 . S
H2948 C2941 0.961 . S
H2949 C2941 0.960 . S
H2950 C2942 0.930 . S
H2951 C2943 0.929 . S
H2952 C2960 0.929 . S
H2953 C2962 0.930 . S
H2954 C2964 0.930 . S
H2955 C2967 0.929 . S
H2956 C2970 0.930 . S
H2957 C2972 0.960 . S
H2958 C2972 0.960 . S
H2959 C2972 0.960 . S
C2960 H2952 0.929 . S
C2960 C2961 1.377 . S
C2960 C2962 1.384 . S
C2961 C2960 1.377 . S
C2961 C2967 1.390 . S
C2962 H2953 0.930 . S
C2962 C2960 1.384 . S
C2962 C2963 1.372 . S
C2963 C2962 1.372 . S
C2963 C2964 1.400 . S
C2963 C2968 1.490 . S
C2964 H2954 0.930 . S
C2964 C2963 1.400 . S
C2964 C2967 1.386 . S
H2965 C2981 0.930 . S
H2966 C2982 0.931 . S
C2967 H2955 0.929 . S
C2967 C2961 1.390 . S
C2967 C2964 1.386 . S
C2968 C2963 1.490 . S
C2968 C2970 1.395 . S
C2968 C2971 1.403 . S
H2969 C2975 0.930 . S
C2970 H2956 0.930 . S
C2970 C2968 1.395 . S
C2970 C2973 1.403 . S
C2971 C2968 1.403 . S
C2971 C2972 1.524 1_545 S
C2971 C2975 1.400 . S
C2972 H2957 0.960 . S
C2972 H2958 0.960 . S
C2972 H2959 0.960 . S
C2972 C2971 1.524 1_565 S
C2973 C2970 1.403 . S
C2973 C2974 1.392 . S
C2973 C2977 1.495 . S
C2974 C2973 1.392 . S
C2974 C2975 1.385 . S
C2974 C2976 1.478 . S
C2975 H2969 0.930 . S
C2975 C2971 1.400 . S
C2975 C2974 1.385 . S
C2976 C2974 1.478 . S
C2976 C2978 1.381 . S
C2976 C2982 1.383 . S
C2977 C2973 1.495 . S
C2977 H2983 0.959 . S
C2977 H2984 0.961 . S
C2977 H2985 0.960 . S
C2978 C2976 1.381 . S
C2978 C2979 1.394 . S
C2978 H2986 0.930 . S
C2979 C2978 1.394 . S
C2979 C2980 1.383 . S
C2979 H2987 0.929 . S
C2980 C2979 1.383 . S
C2980 C2981 1.377 . S
C2981 H2965 0.930 . S
C2981 C2980 1.377 . S
C2981 C2982 1.379 . S
C2982 H2966 0.931 . S
C2982 C2976 1.383 . S
C2982 C2981 1.379 . S
H2983 C2977 0.959 . S
H2984 C2977 0.961 . S
H2985 C2977 0.960 . S
H2986 C2978 0.930 . S
H2987 C2979 0.929 . S
H2988 C2996 0.929 . S
H2989 C2998 0.930 . S
H2990 C3000 0.930 . S
H2991 C3003 0.929 . S
H2992 C3006 0.930 . S
H2993 C3008 0.960 . S
H2994 C3008 0.960 . S
H2995 C3008 0.960 1_455 S
C2996 H2988 0.929 . S
C2996 C2997 1.377 . S
C2996 C2998 1.384 . S
C2997 C2996 1.377 . S
C2997 C3003 1.390 . S
C2998 H2989 0.930 . S
C2998 C2996 1.384 . S
C2998 C2999 1.372 . S
C2999 C2998 1.372 . S
C2999 C3000 1.400 . S
C2999 C3004 1.490 . S
C3000 H2990 0.930 . S
C3000 C2999 1.400 . S
C3000 C3003 1.386 . S
H3001 C3017 0.930 . S
H3002 C3018 0.931 . S
C3003 H2991 0.929 . S
C3003 C2997 1.390 . S
C3003 C3000 1.386 . S
C3004 C2999 1.490 . S
C3004 C3006 1.395 . S
C3004 C3007 1.403 . S
H3005 C3011 0.930 . S
C3006 H2992 0.930 . S
C3006 C3004 1.395 . S
C3006 C3009 1.403 . S
C3007 C3004 1.403 . S
C3007 C3008 1.524 1_455 S
C3007 C3011 1.400 . S
C3008 H2993 0.960 . S
C3008 H2994 0.960 . S
C3008 H2995 0.960 1_655 S
C3008 C3007 1.524 1_655 S
C3009 C3006 1.403 . S
C3009 C3010 1.392 . S
C3009 C3013 1.495 . S
C3010 C3009 1.392 . S
C3010 C3011 1.385 . S
C3010 C3012 1.478 . S
C3011 H3005 0.930 . S
C3011 C3007 1.400 . S
C3011 C3010 1.385 . S
C3012 C3010 1.478 . S
C3012 C3014 1.381 . S
C3012 C3018 1.383 . S
C3013 C3009 1.495 . S
C3013 H3019 0.959 . S
C3013 H3020 0.961 . S
C3013 H3021 0.960 . S
C3014 C3012 1.381 . S
C3014 C3015 1.394 . S
C3014 H3022 0.930 . S
C3015 C3014 1.394 . S
C3015 C3016 1.383 . S
C3015 H3023 0.929 . S
C3016 C3015 1.383 . S
C3016 C3017 1.377 . S
C3017 H3001 0.930 . S
C3017 C3016 1.377 . S
C3017 C3018 1.379 . S
C3018 H3002 0.931 . S
C3018 C3012 1.383 . S
C3018 C3017 1.379 . S
H3019 C3013 0.959 . S
H3020 C3013 0.961 . S
H3021 C3013 0.960 . S
H3022 C3014 0.930 . S
H3023 C3015 0.929 . S
H3024 C3032 0.929 . S
H3025 C3034 0.930 . S
H3026 C3036 0.930 . S
H3027 C3039 0.929 . S
H3028 C3042 0.930 . S
H3029 C3044 0.960 . S
H3030 C3044 0.960 . S
H3031 C3044 0.960 . S
C3032 H3024 0.929 . S
C3032 C3033 1.377 . S
C3032 C3034 1.384 . S
C3033 C3032 1.377 . S
C3033 C3039 1.390 . S
C3034 H3025 0.930 . S
C3034 C3032 1.384 . S
C3034 C3035 1.372 . S
C3035 C3034 1.372 . S
C3035 C3036 1.400 . S
C3035 C3040 1.490 . S
C3036 H3026 0.930 . S
C3036 C3035 1.400 . S
C3036 C3039 1.386 . S
H3037 C3053 0.930 . S
H3038 C3054 0.931 . S
C3039 H3027 0.929 . S
C3039 C3033 1.390 . S
C3039 C3036 1.386 . S
C3040 C3035 1.490 . S
C3040 C3042 1.395 . S
C3040 C3043 1.403 . S
H3041 C3047 0.930 . S
C3042 H3028 0.930 . S
C3042 C3040 1.395 . S
C3042 C3045 1.403 . S
C3043 C3040 1.403 . S
C3043 C3044 1.524 . S
C3043 C3047 1.400 . S
C3044 H3029 0.960 . S
C3044 H3030 0.960 . S
C3044 H3031 0.960 . S
C3044 C3043 1.524 . S
C3045 C3042 1.403 . S
C3045 C3046 1.392 . S
C3045 C3049 1.495 . S
C3046 C3045 1.392 . S
C3046 C3047 1.385 . S
C3046 C3048 1.478 . S
C3047 H3041 0.930 . S
C3047 C3043 1.400 . S
C3047 C3046 1.385 . S
C3048 C3046 1.478 . S
C3048 C3050 1.381 . S
C3048 C3054 1.383 . S
C3049 C3045 1.495 . S
C3049 H3055 0.959 . S
C3049 H3056 0.961 . S
C3049 H3057 0.960 . S
C3050 C3048 1.381 . S
C3050 C3051 1.394 . S
C3050 H3058 0.930 . S
C3051 C3050 1.394 . S
C3051 C3052 1.383 . S
C3051 H3059 0.929 . S
C3052 C3051 1.383 . S
C3052 C3053 1.377 . S
C3053 H3037 0.930 . S
C3053 C3052 1.377 . S
C3053 C3054 1.379 . S
C3054 H3038 0.931 . S
C3054 C3048 1.383 . S
C3054 C3053 1.379 . S
H3055 C3049 0.959 . S
H3056 C3049 0.961 . S
H3057 C3049 0.960 . S
H3058 C3050 0.930 . S
H3059 C3051 0.929 . S
C477 C212 1.627 . S
C496 C10 1.616 . S
C513 C225 1.583 . S
C532 C17 1.567 . S
C549 C205 1.603 . S
C568 C30 1.600 . S
C585 C342 1.592 . S
C604 C43 1.595 . S
C621 C62 1.590 . S
C640 C322 1.592 . S
C657 C75 1.562 . S
C676 C329 1.564 . S
C693 C88 1.625 . S
C712 C452 1.615 . S
C729 C459 1.589 . S
C748 C95 1.579 . S
C765 C439 1.606 . S
C784 C108 1.594 . S
C801 C121 1.586 . S
C820 C270 1.595 . S
C837 C244 1.580 . S
C856 C134 1.576 . S
C873 C153 1.562 . S
C892 C257 1.541 . S
C909 C374 1.522 . S
C928 C166 1.520 . S
C945 C179 1.476 . S
C964 C381 1.469 . S
C981 C361 1.475 . S
C1000 C192 1.459 . S
C1017 C420 1.479 . S
C1036 C283 1.459 . S
C1053 C394 1.518 . S
C1072 C290 1.504 . S
C1089 C309 1.483 . S
C1108 C413 1.460 . S
C1125 C238 1.252 . S
C1144 C4 1.260 . S
C1161 C251 1.399 . S
C1180 C23 1.405 . S
C1197 C264 1.594 . S
C1216 C36 1.578 . S
C1233 C49 1.258 . S
C1252 C433 1.259 . S
C1269 C56 1.639 . S
C1288 C446 1.661 . S
C1305 C69 1.403 . S
C1324 C465 1.416 . S
C1341 C82 1.254 . S
C1360 C316 1.260 . S
C1377 C335 1.395 . S
C1396 C101 1.377 . S
C1413 C348 1.593 . S
C1432 C114 1.580 . S
C1449 C199 1.261 . S
C1468 C127 1.255 . S
C1485 C140 1.639 . S
C1504 C218 1.621 . S
C1521 C147 1.404 . S
C1540 C231 1.394 . S
C1557 C160 1.254 . S
C1576 C400 1.250 . S
C1593 C407 1.371 . S
C1612 C173 1.358 . S
C1629 C426 1.467 . S
C1648 C186 1.477 . S
C1665 C355 1.311 . S
C1684 C277 1.317 . S
C1701 C296 1.546 . S
C1720 C368 1.568 . S
C1737 C303 1.432 . S
C1756 C387 1.431 . S
C1773 C356 1.439 . S
C1792 C5 1.422 . S
C1809 C16 1.301 . S
C1828 C369 1.284 . S
C1845 C29 1.248 . S
C1864 C380 1.296 . S
C1881 C161 1.404 . S
C1900 C42 1.397 . S
C1917 C57 1.287 . S
C1936 C174 1.321 . S
C1953 C70 1.237 . S
C1972 C187 1.228 . S
C1989 C278 1.438 . S
C2008 C83 1.434 . S
C2025 C94 1.300 . S
C2044 C289 1.258 . S
C2061 C304 1.284 . S
C2080 C107 1.234 . S
C2097 C120 1.408 . S
C2116 C393 1.389 . S
C2133 C408 1.329 . S
C2152 C133 1.279 . S
C2169 C419 1.217 . S
C2188 C148 1.247 . S
C2205 C317 1.456 . S
C2224 C200 1.456 . S
C2241 C328 1.349 . S
C2260 C211 1.332 . S
C2277 C341 1.303 . S
C2296 C224 1.356 . S
C2313 C239 1.457 . S
C2332 C434 1.452 . S
C2349 C447 1.305 . S
C2368 C252 1.340 . S
C2385 C458 1.354 . S
C2404 C265 1.335 . S
C2421 C3 0.743 . S
C2440 C213 0.752 . S
C2457 C18 0.716 . S
C2476 C226 0.664 . S
C2493 C31 0.722 . S
C2512 C198 0.701 . S
C2529 C343 0.784 . S
C2548 C44 0.744 . S
C2565 C315 0.758 . S
C2584 C55 0.798 . S
C2601 C330 0.762 . S
C2620 C68 0.727 . S
C2637 C445 0.731 . S
C2656 C81 0.701 . S
C2673 C460 0.707 . S
C2692 C96 0.698 . S
C2709 C432 0.737 . S
C2728 C109 0.761 . S
C2745 C122 0.774 . S
C2764 C263 0.749 . S
C2781 C135 0.763 . S
C2800 C237 0.753 . S
C2817 C146 0.746 . S
C2836 C250 0.712 . S
C2853 C367 0.822 . S
C2872 C159 0.865 . S
C2889 C382 0.810 . S
C2908 C172 0.840 . S
C2925 C185 0.851 . S
C2944 C354 0.894 . S
C2961 C276 0.843 . S
C2980 C421 0.826 . S
C2997 C395 0.819 . S
C3016 C291 0.799 . S
C3033 C406 0.819 . S
C3052 C302 0.830 . S
