# Generated by pormake.
# Topology vby, (6)-cn, num edge types: 1
# Building blocks:
#     Node 0, Type 0, BuildingBlock: BETDIP_clean_sbu_0, # of connection points: 6
#     Node 1, Type 0, BuildingBlock: BETDIP_clean_sbu_0, # of connection points: 6
#     Node 2, Type 0, BuildingBlock: BETDIP_clean_sbu_0, # of connection points: 6
#     Node 3, Type 0, BuildingBlock: BETDIP_clean_sbu_0, # of connection points: 6
#     Node 4, Type 0, BuildingBlock: BETDIP_clean_sbu_0, # of connection points: 6
#     Node 5, Type 0, BuildingBlock: BETDIP_clean_sbu_0, # of connection points: 6
#     Node 6, Type 0, BuildingBlock: BETDIP_clean_sbu_0, # of connection points: 6
#     Node 7, Type 0, BuildingBlock: BETDIP_clean_sbu_0, # of connection points: 6
#     Edge 8, Type (0, 0), BuildingBlock: TEMPAE_clean_linker_10, # of connection points: 2
#     Edge 9, Type (0, 0), BuildingBlock: TEMPAE_clean_linker_10, # of connection points: 2
#     Edge 10, Type (0, 0), BuildingBlock: TEMPAE_clean_linker_10, # of connection points: 2
#     Edge 11, Type (0, 0), BuildingBlock: TEMPAE_clean_linker_10, # of connection points: 2
#     Edge 12, Type (0, 0), BuildingBlock: TEMPAE_clean_linker_10, # of connection points: 2
#     Edge 13, Type (0, 0), BuildingBlock: TEMPAE_clean_linker_10, # of connection points: 2
#     Edge 14, Type (0, 0), BuildingBlock: TEMPAE_clean_linker_10, # of connection points: 2
#     Edge 15, Type (0, 0), BuildingBlock: TEMPAE_clean_linker_10, # of connection points: 2
#     Edge 16, Type (0, 0), BuildingBlock: TEMPAE_clean_linker_10, # of connection points: 2
#     Edge 17, Type (0, 0), BuildingBlock: TEMPAE_clean_linker_10, # of connection points: 2
#     Edge 18, Type (0, 0), BuildingBlock: TEMPAE_clean_linker_10, # of connection points: 2
#     Edge 19, Type (0, 0), BuildingBlock: TEMPAE_clean_linker_10, # of connection points: 2
#     Edge 20, Type (0, 0), BuildingBlock: TEMPAE_clean_linker_10, # of connection points: 2
#     Edge 21, Type (0, 0), BuildingBlock: TEMPAE_clean_linker_10, # of connection points: 2
#     Edge 22, Type (0, 0), BuildingBlock: TEMPAE_clean_linker_10, # of connection points: 2
#     Edge 23, Type (0, 0), BuildingBlock: TEMPAE_clean_linker_10, # of connection points: 2
#     Edge 24, Type (0, 0), BuildingBlock: TEMPAE_clean_linker_10, # of connection points: 2
#     Edge 25, Type (0, 0), BuildingBlock: TEMPAE_clean_linker_10, # of connection points: 2
#     Edge 26, Type (0, 0), BuildingBlock: TEMPAE_clean_linker_10, # of connection points: 2
#     Edge 27, Type (0, 0), BuildingBlock: TEMPAE_clean_linker_10, # of connection points: 2
#     Edge 28, Type (0, 0), BuildingBlock: TEMPAE_clean_linker_10, # of connection points: 2
#     Edge 29, Type (0, 0), BuildingBlock: TEMPAE_clean_linker_10, # of connection points: 2
#     Edge 30, Type (0, 0), BuildingBlock: TEMPAE_clean_linker_10, # of connection points: 2
#     Edge 31, Type (0, 0), BuildingBlock: TEMPAE_clean_linker_10, # of connection points: 2
# Relax obj value: 0.634
# Max RMSD: 0.254
# Mean RMSD: 0.212
data_MOF--net-vby--node1-BETDIP_clean_sbu_0--edge1-TEMPAE_clean_linker_10
_symmetry_space_group_name_H-M    P1
_symmetry_Int_Tables_number       1
_symmetry_cell_setting            triclinic
loop_
_symmetry_equiv_pos_as_xyz
'x, y, z'
_cell_length_a     17.833934
_cell_length_b     71.240362
_cell_length_c     30.560883
_cell_angle_alpha  86.790258
_cell_angle_beta   91.889808
_cell_angle_gamma 77.044356
loop_
_atom_site_label
_atom_site_type_symbol
_atom_site_fract_x
_atom_site_fract_y
_atom_site_fract_z
_atom_type_partial_charge
Tb0 Tb 0.08978 0.476 0.96723 0.0
Tb1 Tb 0.22974 0.47785 0.96683 0.0
C2 C 0.95258 0.48076 -0.01118 0.0
C3 C 0.91449 0.49053 0.02582 0.0
C4 C 0.95757 0.49296 0.06364 0.0
C5 C 0.9207 0.49851 0.10212 0.0
C6 C 0.84007 0.50191 0.1031 0.0
C7 C 0.79745 0.50139 0.06339 0.0
C8 C 0.8344 0.49562 0.02534 0.0
C9 C 0.13262 0.47241 0.88402 0.0
C10 C 0.11993 0.52063 0.96425 0.0
C11 C 0.37271 0.47268 0.96051 0.0
C12 C 0.43146 0.46272 -0.0064 0.0
C13 C 0.50622 0.46552 -0.00804 0.0
C14 C 0.55744 0.4598 0.02817 0.0
C15 C 0.53473 0.45117 0.06681 0.0
C16 C 0.46082 0.44739 0.06728 0.0
C17 C 0.40953 0.45315 0.03091 0.0
C18 C 0.18592 0.47906 0.0506 0.0
C19 C 0.19927 0.43287 0.96743 0.0
O20 O 1.00568 0.46531 5e-05 0.0
O21 O 0.97456 0.49165 0.95842 0.0
O22 O 0.15082 0.48421 0.91008 0.0
O23 O 0.0877 0.46328 0.90402 0.0
O24 O 0.07569 0.5088 0.97901 0.0
O25 O 0.18649 0.51063 0.94991 0.0
O26 O 0.33182 0.46205 0.9419 0.0
O27 O 0.3297 0.48847 0.97331 0.0
O28 O 0.17097 0.46798 0.02226 0.0
O29 O 0.22589 0.48982 0.03182 0.0
O30 O 0.25047 0.44423 0.96669 0.0
O31 O 0.12625 0.44287 0.96842 0.0
H32 H 1.01983 0.48941 0.06418 0.0
H33 H 0.95543 0.49895 0.13163 0.0
H34 H 0.73534 0.5036 0.06228 0.0
H35 H 0.80034 0.49396 -0.00361 0.0
H36 H 0.5235 0.47319 0.96379 0.0
H37 H 0.61315 0.46343 0.02678 0.0
H38 H 0.44154 0.44077 0.09628 0.0
H39 H 0.35128 0.45113 0.0329 0.0
Tb40 Tb 0.83379 0.72578 0.97221 0.0
Tb41 Tb 0.98018 0.72909 0.96595 0.0
C42 C 0.70282 0.73096 0.00255 0.0
C43 C 0.65764 0.7489 0.0192 0.0
C44 C 0.63663 0.74924 0.06307 0.0
C45 C 0.59547 0.76633 0.07929 0.0
C46 C 0.57437 0.7834 0.05182 0.0
C47 C 0.60147 0.78329 0.00909 0.0
C48 C 0.64154 0.76623 -0.00719 0.0
C49 C 0.87115 0.7254 0.88841 0.0
C50 C 0.86206 0.77129 0.96831 0.0
C51 C 0.10834 0.73305 0.94255 0.0
C52 C 0.13407 0.75132 0.94331 0.0
C53 C 0.15895 0.75942 0.90509 0.0
C54 C 0.17679 0.77759 0.90495 0.0
C55 C 0.16998 0.78797 0.9431 0.0
C56 C 0.14171 0.78014 0.98062 0.0
C57 C 0.12405 0.76207 0.98073 0.0
C58 C 0.93778 0.73234 0.04874 0.0
C59 C 0.9514 0.68342 0.96807 0.0
O60 O 0.76571 0.72309 0.02588 0.0
O61 O 0.71394 0.73111 0.96045 0.0
O62 O 0.88804 0.7364 0.9168 0.0
O63 O 0.83152 0.71423 0.90719 0.0
O64 O 0.81291 0.75944 0.97254 0.0
O65 O 0.93524 0.76199 0.96392 0.0
O66 O 0.09879 0.72485 0.98075 0.0
O67 O 0.05099 0.73343 0.91452 0.0
O68 O 0.92422 0.72003 0.02263 0.0
O69 O 0.97704 0.74293 0.02822 0.0
O70 O 1.00105 0.69531 0.96356 0.0
O71 O 0.87804 0.69277 0.97321 0.0
H72 H 0.65072 0.73618 0.08453 0.0
H73 H 0.57649 0.76595 0.11256 0.0
H74 H 0.58645 0.79603 -0.01328 0.0
H75 H 0.65851 0.76663 0.95914 0.0
H76 H 0.16468 0.75168 0.87541 0.0
H77 H 0.19823 0.78326 0.87546 0.0
H78 H 0.13716 0.78745 0.01088 0.0
H79 H 0.10304 0.75651 0.01046 0.0
Tb80 Tb 0.87244 0.75949 0.46239 0.0
Tb81 Tb 0.90993 0.72268 0.46997 0.0
C82 C 0.87232 0.79427 0.47332 0.0
C83 C 0.93643 0.80426 0.47196 0.0
C84 C 0.94957 0.81535 0.50672 0.0
C85 C 1.01589 0.82273 0.50892 0.0
C86 C 0.07013 0.81922 0.47625 0.0
C87 C 0.05592 0.80852 0.44089 0.0
C88 C 0.98993 0.80105 0.43884 0.0
C89 C 0.87551 0.74593 0.38212 0.0
C90 C 0.06663 0.74015 0.46446 0.0
C91 C 0.91016 0.68776 0.46277 0.0
C92 C 0.85722 0.67659 0.48077 0.0
C93 C 0.85875 0.6582 0.46688 0.0
C94 C 0.81278 0.64696 0.48647 0.0
C95 C 0.76333 0.654 0.52008 0.0
C96 C 0.75891 0.67299 0.53196 0.0
C97 C 0.80623 0.68405 0.51292 0.0
C98 C 0.90928 0.73521 0.55072 0.0
C99 C 0.71472 0.74255 0.46642 0.0
O100 O 0.87803 0.78115 0.50554 0.0
O101 O 0.85081 0.78826 0.43642 0.0
O102 O 0.92575 0.74026 0.4134 0.0
O103 O 0.82112 0.75915 0.39616 0.0
O104 O 1.00844 0.75586 0.46839 0.0
O105 O 0.0386 0.72416 0.4604 0.0
O106 O 0.87989 0.70133 0.43272 0.0
O107 O 0.95286 0.69375 0.49191 0.0
O108 O 0.85818 0.74148 0.51986 0.0
O109 O 0.96295 0.72236 0.53528 0.0
O110 O 0.77341 0.72655 0.46803 0.0
O111 O 0.74204 0.75878 0.46515 0.0
H112 H 0.90955 0.81784 0.53284 0.0
H113 H 1.02504 0.83109 0.53633 0.0
H114 H 0.09714 0.80538 0.41554 0.0
H115 H 0.98214 0.79225 0.41201 0.0
H116 H 0.89777 0.65223 0.44216 0.0
H117 H 0.82012 0.63229 0.4769 0.0
H118 H 0.72141 0.67904 0.55722 0.0
H119 H 0.80486 0.6982 0.52452 0.0
Tb120 Tb 0.16109 0.48099 0.4719 0.0
Tb121 Tb 0.19987 0.44293 0.47034 0.0
C122 C 0.14745 0.51299 0.50399 0.0
C123 C 0.09381 0.52206 0.53623 0.0
C124 C 0.1222 0.52969 0.57292 0.0
C125 C 0.07152 0.5391 0.60276 0.0
C126 C 0.99159 0.5412 0.59597 0.0
C127 C 0.96413 0.53192 0.56153 0.0
C128 C 1.01484 0.5224 0.53193 0.0
C129 C 0.15877 0.47214 0.38847 0.0
C130 C 0.35568 0.46146 0.46936 0.0
C131 C 0.20804 0.40853 0.45133 0.0
C132 C 0.14999 0.3968 0.44751 0.0
C133 C 0.07688 0.40475 0.42742 0.0
C134 C 1.01943 0.39432 0.42834 0.0
C135 C 1.0341 0.37565 0.44891 0.0
C136 C 0.10822 0.36732 0.4672 0.0
C137 C 0.16566 0.37788 0.4667 0.0
C138 C 0.19551 0.45412 0.55264 0.0
C139 C 1.00551 0.46242 0.47106 0.0
O140 O 0.1179 0.51096 0.46519 0.0
O141 O 0.19734 0.4975 0.51945 0.0
O142 O 0.20948 0.46405 0.41832 0.0
O143 O 0.11038 0.4859 0.40532 0.0
O144 O 0.29712 0.47749 0.46993 0.0
O145 O 0.32895 0.44511 0.46863 0.0
O146 O 0.20191 0.42298 0.42217 0.0
O147 O 0.22177 0.41343 0.49075 0.0
O148 O 0.14622 0.46025 0.52134 0.0
O149 O 0.25035 0.44121 0.53785 0.0
O150 O 0.06348 0.44691 0.46434 0.0
O151 O 1.03325 0.47821 0.47847 0.0
H152 H 0.18329 0.52897 0.57764 0.0
H153 H 0.09422 0.54599 0.62929 0.0
H154 H 0.90289 0.53339 0.55519 0.0
H155 H 0.9917 0.51602 0.5047 0.0
H156 H 0.06332 0.4192 0.4118 0.0
H157 H 0.96303 0.40094 0.41345 0.0
H158 H 0.1208 0.35296 0.48333 0.0
H159 H 0.22167 0.37147 0.48234 0.0
Tb160 Tb 0.57643 0.97569 0.97046 0.0
Tb161 Tb 0.71619 0.97813 0.97015 0.0
C162 C 0.43765 0.98082 -0.01087 0.0
C163 C 0.39703 0.99232 0.02307 0.0
C164 C 0.438 0.9971 0.05937 0.0
C165 C 0.39886 1.00527 0.0951 0.0
C166 C 0.31807 1.00888 0.09489 0.0
C167 C 0.27769 1.00556 0.05644 0.0
C168 C 0.31686 0.9973 0.02108 0.0
C169 C 0.62322 0.97188 0.88805 0.0
C170 C 0.60541 1.02049 0.96679 0.0
C171 C 0.85948 0.97385 0.96695 0.0
C172 C 0.91575 0.96653 0.00329 0.0
C173 C 0.98956 0.96997 0.00186 0.0
C174 C 0.03798 0.96643 0.03957 0.0
C175 C 1.0132 0.95944 0.07948 0.0
C176 C 0.94017 0.95519 0.0802 0.0
C177 C 0.89188 0.95864 0.04226 0.0
C178 C 0.66985 0.97916 0.05378 0.0
C179 C 0.68821 0.93299 0.97054 0.0
O180 O 0.49074 0.96597 0.00412 0.0
O181 O 0.46104 0.99042 0.95682 0.0
O182 O 0.63715 0.98421 0.91377 0.0
O183 O 0.58123 0.96186 0.90796 0.0
O184 O 0.5627 1.00851 0.98285 0.0
O185 O 0.67132 1.01063 0.95156 0.0
O186 O 0.82246 0.96156 0.95212 0.0
O187 O 0.81304 0.99021 0.97345 0.0
O188 O 0.65724 0.968 0.02525 0.0
O189 O 0.7097 0.99006 0.03556 0.0
O190 O 0.73656 0.94481 0.96302 0.0
O191 O 0.61659 0.94259 0.97796 0.0
H192 H 0.50035 0.99357 0.06109 0.0
H193 H 0.43195 1.00773 0.12371 0.0
H194 H 0.2156 1.00771 0.05472 0.0
H195 H 0.28446 0.99382 -0.00675 0.0
H196 H 1.00827 0.97633 0.97231 0.0
H197 H 0.09317 0.97035 0.038 0.0
H198 H 0.91948 0.94985 0.11029 0.0
H199 H 0.83446 0.95603 0.0439 0.0
Tb200 Tb 0.32683 0.22728 0.96363 0.0
Tb201 Tb 0.47006 0.22684 0.97362 0.0
C202 C 0.1873 0.23139 0.97792 0.0
C203 C 0.14337 0.24328 0.01016 0.0
C204 C 0.18197 0.25119 0.04288 0.0
C205 C 0.14252 0.25949 0.07833 0.0
C206 C 0.06366 0.26016 0.08131 0.0
C207 C 1.02461 0.25331 0.04671 0.0
C208 C 0.0642 0.24493 0.01157 0.0
C209 C 0.38593 0.22285 0.88384 0.0
C210 C 0.35859 0.27106 0.96443 0.0
C211 C 0.60684 0.2297 -0.0136 0.0
C212 C 0.65917 0.22255 0.02493 0.0
C213 C 0.7386 0.21971 0.02144 0.0
C214 C 0.78722 0.21556 0.05916 0.0
C215 C 0.75733 0.21386 0.10124 0.0
C216 C 0.67785 0.21548 0.10401 0.0
C217 C 0.62936 0.22011 0.06641 0.0
C218 C 0.40929 0.22116 0.05234 0.0
C219 C 0.44097 0.18334 0.9668 0.0
O220 O 0.2408 0.21706 -0.00449 0.0
O221 O 0.21183 0.24071 0.94529 0.0
O222 O 0.4025 0.23391 0.91209 0.0
O223 O 0.3364 0.21417 0.90046 0.0
O224 O 0.30546 0.26041 0.96599 0.0
O225 O 0.431 0.26032 0.96328 0.0
O226 O 0.58809 0.2168 0.96212 0.0
O227 O 0.54715 0.24302 -0.00552 0.0
O228 O 0.38416 0.23368 0.02175 0.0
O229 O 0.4674 0.2099 0.03686 0.0
O230 O 0.49117 0.19455 0.95934 0.0
O231 O 0.37022 0.19378 0.97466 0.0
H232 H 0.24342 0.25002 0.04231 0.0
H233 H 0.1743 0.26455 0.10426 0.0
H234 H 0.96426 0.25306 0.04814 0.0
H235 H 1.03371 0.2388 -0.01317 0.0
H236 H 0.76273 0.22171 -0.0101 0.0
H237 H 0.84773 0.215 0.05518 0.0
H238 H 0.65232 0.21416 0.13535 0.0
H239 H 0.56818 0.22284 0.07038 0.0
Tb240 Tb 0.3772 0.25798 0.46355 0.0
Tb241 Tb 0.41667 0.22039 0.46325 0.0
C242 C 0.37577 0.29221 0.4796 0.0
C243 C 0.43644 0.30295 0.47259 0.0
C244 C 0.45923 0.3132 0.50655 0.0
C245 C 0.52533 0.32057 0.5033 0.0
C246 C 0.56955 0.31786 0.46594 0.0
C247 C 0.54507 0.30818 0.43133 0.0
C248 C 0.47941 0.3007 0.4347 0.0
C249 C 0.38104 0.24672 0.38147 0.0
C250 C 0.57222 0.23888 0.46325 0.0
C251 C 0.43925 0.18665 0.43881 0.0
C252 C 0.50798 0.17482 0.42092 0.0
C253 C 0.56383 0.18344 0.4018 0.0
C254 C 0.63489 0.17209 0.39139 0.0
C255 C 0.65044 0.15198 0.39948 0.0
C256 C 0.59245 0.14346 0.41663 0.0
C257 C 0.52202 0.15479 0.42726 0.0
C258 C 0.41836 0.23023 0.54618 0.0
C259 C 0.22178 0.23982 0.46492 0.0
O260 O 0.39432 0.27777 0.50912 0.0
O261 O 0.34237 0.28754 0.44444 0.0
O262 O 0.43127 0.24072 0.41236 0.0
O263 O 0.32527 0.25919 0.39666 0.0
O264 O 0.51342 0.25466 0.4657 0.0
O265 O 0.54548 0.22266 0.46036 0.0
O266 O 0.44746 0.19058 0.47964 0.0
O267 O 0.40422 0.20181 0.41406 0.0
O268 O 0.36652 0.23744 0.51633 0.0
O269 O 0.47019 0.21733 0.52923 0.0
O270 O 0.27994 0.22419 0.45893 0.0
O271 O 0.24933 0.25573 0.47122 0.0
H272 H 0.42751 0.31487 0.53626 0.0
H273 H 0.54249 0.32818 0.53026 0.0
H274 H 0.57848 0.30569 0.40239 0.0
H275 H 0.46416 0.29249 0.40837 0.0
H276 H 0.55362 0.19897 0.39642 0.0
H277 H 0.67826 0.17904 0.37832 0.0
H278 H 0.60297 0.12804 0.42441 0.0
H279 H 0.47991 0.14795 0.44231 0.0
Tb280 Tb 0.64813 0.98209 0.47029 0.0
Tb281 Tb 0.68013 0.94413 0.47591 0.0
C282 C 0.6373 1.01712 0.48314 0.0
C283 C 0.68907 1.02868 0.49976 0.0
C284 C 0.66242 1.04866 0.4983 0.0
C285 C 0.71311 1.06038 0.50704 0.0
C286 C 0.79201 1.05233 0.51706 0.0
C287 C 0.81795 1.03217 0.52075 0.0
C288 C 0.76639 1.0204 0.51275 0.0
C289 C 0.63088 0.96958 0.39037 0.0
C290 C 0.83954 0.96241 0.4722 0.0
C291 C 0.71021 0.90829 0.46901 0.0
C292 C 0.66255 0.89433 0.4793 0.0
C293 C 0.6536 0.8809 0.44882 0.0
C294 C 0.59664 0.87035 0.45359 0.0
C295 C 0.54751 0.87311 0.48892 0.0
C296 C 0.55966 0.88576 0.52072 0.0
C297 C 0.61636 0.89632 0.51588 0.0
C298 C 0.64725 0.95835 0.55451 0.0
C299 C 0.4898 0.96351 0.47226 0.0
O300 O 0.61709 1.00495 0.51145 0.0
O301 O 0.65522 1.00961 0.44586 0.0
O302 O 0.68553 0.96286 0.41865 0.0
O303 O 0.58227 0.98297 0.40805 0.0
O304 O 0.78245 0.97865 0.4668 0.0
O305 O 0.81082 0.94631 0.47758 0.0
O306 O 0.68205 0.92088 0.43651 0.0
O307 O 0.73541 0.91639 0.50215 0.0
O308 O 0.69141 0.96332 0.52691 0.0
O309 O 0.61706 0.94548 0.5373 0.0
O310 O 0.54596 0.94803 0.46384 0.0
O311 O 0.52016 0.9789 0.48081 0.0
H312 H 0.60307 1.05529 0.48831 0.0
H313 H 0.69112 1.07586 0.50285 0.0
H314 H 0.87819 1.02559 0.52834 0.0
H315 H 0.78763 1.00493 0.51518 0.0
H316 H 0.68792 0.87933 0.42008 0.0
H317 H 0.58839 0.86084 0.42833 0.0
H318 H 0.52364 0.88797 0.54867 0.0
H319 H 0.62159 0.90666 0.5398 0.0
C320 C 0.66462 0.44487 0.10388 0.0
C321 C 0.5849 0.44897 0.10745 0.0
C322 C 0.71153 0.45165 0.13382 0.0
C323 C 0.67713 0.46218 0.16922 0.0
C324 C 0.60154 0.46089 0.17957 0.0
C325 C 0.55471 0.45496 0.1476 0.0
C326 C 0.79497 0.44959 0.12314 0.0
C327 C 0.56764 0.46732 0.22225 0.0
C328 C 0.83266 0.48688 0.17835 0.0
C329 C 0.80084 0.50134 0.14538 0.0
C330 C 0.78494 0.47605 0.19869 0.0
C331 C 0.70764 0.4791 0.18256 0.0
C332 C 0.6733 0.4975 0.16145 0.0
C333 C 0.72142 0.50901 0.14493 0.0
C334 C 0.81944 0.45977 0.23206 0.0
C335 C 0.58837 0.50368 0.14896 0.0
H336 H 0.68904 0.43852 0.07461 0.0
H337 H 0.49364 0.45688 0.1525 0.0
H338 H 0.80479 0.46375 0.11116 0.0
H339 H 0.8332 0.44406 0.15245 0.0
H340 H 0.81231 0.43942 0.09709 0.0
H341 H 0.55873 0.45447 0.24188 0.0
H342 H 0.60552 0.47437 0.24201 0.0
H343 H 0.51003 0.47719 0.21615 0.0
H344 H 0.8945 0.48195 0.18331 0.0
H345 H 0.69673 0.52173 0.1236 0.0
H346 H 0.87682 0.45183 0.22236 0.0
H347 H 0.78129 0.44957 0.23743 0.0
H348 H 0.82864 0.46599 0.26375 0.0
H349 H 0.57279 0.4944 0.12379 0.0
H350 H 0.57174 0.51889 0.13521 0.0
H351 H 0.55417 0.50246 0.17811 0.0
C352 C 0.17904 0.81915 0.97544 0.0
C353 C 0.20786 0.80435 0.94775 0.0
C354 C 0.22944 0.8286 -0.00302 0.0
C355 C 0.30955 0.82238 -0.00818 0.0
C356 C 0.33493 0.811 0.95606 0.0
C357 C 0.28332 0.80215 0.93436 0.0
C358 C 0.19764 0.84336 0.02901 0.0
C359 C 0.41878 0.80493 0.94579 0.0
C360 C 0.50126 0.81801 0.04314 0.0
C361 C 0.50838 0.79917 0.06188 0.0
C362 C 0.42857 0.82906 0.02797 0.0
C363 C 0.36429 0.82056 0.0306 0.0
C364 C 0.36922 0.80433 0.06063 0.0
C365 C 0.44191 0.79383 0.07629 0.0
C366 C 0.42313 0.84832 0.00362 0.0
C367 C 0.30068 0.79574 0.06954 0.0
H368 H 0.11916 0.82186 -0.01609 0.0
H369 H 0.30558 0.79131 0.91167 0.0
H370 H 0.24302 0.8495 0.0447 0.0
H371 H 0.15435 0.85528 0.01147 0.0
H372 H 0.16691 0.83685 0.05468 0.0
H373 H 0.42651 0.79852 0.91347 0.0
H374 H 0.44652 0.81735 0.94527 0.0
H375 H 0.44883 0.79386 0.97123 0.0
H376 H 0.55251 0.823 0.03494 0.0
H377 H 0.44623 0.77984 0.09328 0.0
H378 H 0.3627 0.85567 -0.00617 0.0
H379 H 0.45787 0.84649 0.97405 0.0
H380 H 0.44824 0.85772 0.02485 0.0
H381 H 0.25096 0.80709 0.07809 0.0
H382 H 0.31321 0.78443 0.097 0.0
H383 H 0.28409 0.78907 0.03984 0.0
C384 C 0.55664 0.75621 0.44331 0.0
C385 C 0.61945 0.74219 0.46619 0.0
C386 C 0.47283 0.75573 0.44162 0.0
C387 C 0.43883 0.74153 0.46571 0.0
C388 C 0.50205 0.72751 0.48959 0.0
C389 C 0.58596 0.72775 0.48857 0.0
C390 C 0.42025 0.77068 0.4112 0.0
C391 C 0.48259 0.71157 0.51822 0.0
C392 C 0.19577 0.75621 0.47783 0.0
C393 C 0.16182 0.74057 0.46459 0.0
C394 C 0.27962 0.75663 0.47909 0.0
C395 C 0.34248 0.74126 0.46531 0.0
C396 C 0.30808 0.72558 0.45104 0.0
C397 C 0.22417 0.72534 0.45166 0.0
C398 C 0.29915 0.77424 0.49723 0.0
C399 C 0.35989 0.70827 0.43338 0.0
H400 H 0.57323 0.76785 0.42452 0.0
H401 H 0.62637 0.71623 0.50724 0.0
H402 H 0.3728 0.76493 0.39666 0.0
H403 H 0.3944 0.78319 0.42983 0.0
H404 H 0.45217 0.77595 0.38428 0.0
H405 H 0.51942 0.70887 0.54897 0.0
H406 H 0.42133 0.71482 0.52692 0.0
H407 H 0.49495 0.69806 0.50073 0.0
H408 H 0.15576 0.76871 0.48862 0.0
H409 H 0.20731 0.71262 0.44068 0.0
H410 H 0.2813 0.78663 0.47255 0.0
H411 H 0.36137 0.7722 0.50612 0.0
H412 H 0.26612 0.77816 0.52685 0.0
H413 H 0.41493 0.71131 0.42244 0.0
H414 H 0.33054 0.70317 0.40528 0.0
H415 H 0.3726 0.69633 0.45935 0.0
C416 C 0.8501 0.47587 0.49042 0.0
C417 C 0.91019 0.46213 0.47077 0.0
C418 C 0.76613 0.47572 0.49126 0.0
C419 C 0.729 0.4619 0.47009 0.0
C420 C 0.78952 0.44815 0.44937 0.0
C421 C 0.87373 0.44822 0.45079 0.0
C422 C 0.71762 0.49089 0.51712 0.0
C423 C 0.76666 0.4328 0.4235 0.0
C424 C 0.51461 0.44582 0.48421 0.0
C425 C 0.45105 0.46171 0.46939 0.0
C426 C 0.59882 0.4458 0.48555 0.0
C427 C 0.63235 0.46184 0.46977 0.0
C428 C 0.56818 0.47783 0.45372 0.0
C429 C 0.48413 0.4777 0.45473 0.0
C430 C 0.65185 0.42772 0.50562 0.0
C431 C 0.58664 0.49588 0.43336 0.0
H432 H 0.86903 0.48718 0.50695 0.0
H433 H 0.91183 0.43701 0.43448 0.0
H434 H 0.70441 0.50484 0.49722 0.0
H435 H 0.66289 0.48717 0.5265 0.0
H436 H 0.74992 0.49302 0.54746 0.0
H437 H 0.78082 0.4189 0.4436 0.0
H438 H 0.70441 0.43633 0.41368 0.0
H439 H 0.80016 0.43065 0.39346 0.0
H440 H 0.49855 0.43277 0.49641 0.0
H441 H 0.44317 0.49069 0.44234 0.0
H442 H 0.70926 0.42998 0.51583 0.0
H443 H 0.65888 0.41657 0.48126 0.0
H444 H 0.62612 0.42202 0.53467 0.0
H445 H 0.57696 0.50718 0.45743 0.0
H446 H 0.54733 0.5015 0.4043 0.0
H447 H 0.64689 0.4935 0.423 0.0
C448 C 0.1407 0.95434 0.11855 0.0
C449 C 0.0607 0.9592 0.12036 0.0
C450 C 0.1867 0.96239 0.14646 0.0
C451 C 0.15066 0.97545 0.17732 0.0
C452 C 0.07395 0.97525 0.18758 0.0
C453 C 1.0283 0.9677 0.15781 0.0
C454 C 0.27146 0.95873 0.13781 0.0
C455 C 0.03791 0.98453 0.22725 0.0
C456 C 0.30621 1.00005 0.17444 0.0
C457 C 0.27619 1.01168 0.13634 0.0
C458 C 0.25719 0.99129 0.19961 0.0
C459 C 0.18043 0.99326 0.18346 0.0
C460 C 0.1475 1.00991 0.15538 0.0
C461 C 0.19684 1.01953 0.13322 0.0
C462 C 0.28986 0.97786 0.23888 0.0
C463 C 0.06283 1.01559 0.14208 0.0
H464 H 0.16644 0.9462 0.09172 0.0
H465 H 0.9667 0.97028 0.16161 0.0
H466 H 0.28403 0.9715 0.11981 0.0
H467 H 0.30677 0.95557 0.16889 0.0
H468 H 0.28989 0.94623 0.11738 0.0
H469 H 1.0279 0.97303 0.25087 0.0
H470 H 0.07503 0.99276 0.24408 0.0
H471 H 0.98064 0.99409 0.21806 0.0
H472 H 0.36776 0.99535 0.18078 0.0
H473 H 0.17331 1.03042 0.10713 0.0
H474 H 0.34803 0.96915 0.23271 0.0
H475 H 0.2515 0.96819 0.24862 0.0
H476 H 0.29683 0.98668 0.2669 0.0
H477 H 0.04745 1.00482 0.12068 0.0
H478 H 0.0471 1.02991 0.1236 0.0
H479 H 1.02789 1.01639 0.17146 0.0
C480 C 0.94423 0.27167 0.12032 0.0
C481 C 1.02389 0.26444 0.12281 0.0
C482 C 0.8982 0.26423 0.14975 0.0
C483 C 0.93464 0.24999 0.18301 0.0
C484 C 1.0127 0.2491 0.19469 0.0
C485 C 0.0584 0.25562 0.16312 0.0
C486 C 0.8124 0.26922 0.13964 0.0
C487 C 0.0494 0.23892 0.23722 0.0
C488 C 0.77942 0.2248 0.1769 0.0
C489 C 0.80732 0.21396 0.14127 0.0
C490 C 0.82933 0.23318 0.20191 0.0
C491 C 0.90494 0.23194 0.18799 0.0
C492 C 0.93681 0.21643 0.16178 0.0
C493 C 0.88692 0.20732 0.13935 0.0
C494 C 0.79872 0.24513 0.23931 0.0
C495 C 1.02077 0.21118 0.15132 0.0
H496 H 0.91754 0.28032 0.0912 0.0
H497 H 0.12048 0.25141 0.16762 0.0
H498 H 0.79516 0.25725 0.1232 0.0
H499 H 0.78086 0.27182 0.17008 0.0
H500 H 0.79432 0.28245 0.11729 0.0
H501 H 0.06152 0.24989 0.25914 0.0
H502 H 1.01136 0.23083 0.25438 0.0
H503 H 0.10534 0.22901 0.23169 0.0
H504 H 0.71838 0.22869 0.18233 0.0
H505 H 0.90966 0.19698 0.11565 0.0
H506 H 0.74065 0.25432 0.23032 0.0
H507 H 0.83803 0.25422 0.25013 0.0
H508 H 0.79199 0.23524 0.26755 0.0
H509 H 1.03365 0.22222 0.12752 0.0
H510 H 0.0361 0.19706 0.13628 0.0
H511 H 0.058 0.21013 0.18141 0.0
C512 C 0.0877 0.2276 0.4395 0.0
C513 C 0.12636 0.23962 0.46472 0.0
C514 C 1.00325 0.22781 0.4379 0.0
C515 C 0.94498 0.23964 0.46399 0.0
C516 C 0.98434 0.25149 0.49039 0.0
C517 C 0.06827 0.25168 0.48942 0.0
C518 C 0.97744 0.21508 0.40564 0.0
C519 C 0.93858 0.26426 0.52229 0.0
C520 C 0.6998 0.256 0.45523 0.0
C521 C 0.66742 0.23925 0.46343 0.0
C522 C 0.78366 0.25633 0.45437 0.0
C523 C 0.84841 0.23955 0.46378 0.0
C524 C 0.81565 0.22263 0.47302 0.0
C525 C 0.73144 0.22268 0.4718 0.0
C526 C 0.80117 0.27558 0.44186 0.0
C527 C 0.8696 0.20351 0.48592 0.0
H528 H 0.12404 0.21787 0.41885 0.0
H529 H 0.08894 0.26148 0.51013 0.0
H530 H 0.99252 0.19992 0.41961 0.0
H531 H 0.91461 0.21932 0.39749 0.0
H532 H 1.00834 0.21554 0.37476 0.0
H533 H 0.92527 0.2794 0.50828 0.0
H534 H 0.88404 0.26005 0.53002 0.0
H535 H 0.9731 0.26384 0.5534 0.0
H536 H 0.65836 0.26957 0.44824 0.0
H537 H 0.71585 0.209 0.47868 0.0
H538 H 0.85985 0.27415 0.42952 0.0
H539 H 0.79588 0.28431 0.471 0.0
H540 H 0.75868 0.28371 0.41628 0.0
H541 H 0.87554 0.19444 0.45731 0.0
H542 H 0.84546 0.19568 0.51243 0.0
H543 H 0.92744 0.20506 0.49736 0.0
C544 C 0.99885 0.9469 0.48863 0.0
C545 C 0.93518 0.96246 0.47214 0.0
C546 C 0.08305 0.94699 0.48973 0.0
C547 C 0.11639 0.96281 0.47225 0.0
C548 C 0.05209 0.97846 0.45477 0.0
C549 C 0.96817 0.97822 0.45581 0.0
C550 C 0.13635 0.92933 0.51156 0.0
C551 C 0.07023 0.99627 0.43292 0.0
C552 C 0.33377 0.97742 0.49103 0.0
C553 C 0.39416 0.96342 0.47225 0.0
C554 C 0.24977 0.97722 0.49208 0.0
C555 C 0.21299 0.963 0.47229 0.0
C556 C 0.27384 0.94895 0.45263 0.0
C557 C 0.35792 0.94915 0.45363 0.0
C558 C 0.20074 0.99282 0.51662 0.0
C559 C 0.25148 0.93305 0.42847 0.0
H560 H 0.98294 0.93406 0.50229 0.0
H561 H 0.92712 0.99098 0.44227 0.0
H562 H 0.19324 0.93196 0.52163 0.0
H563 H 0.11025 0.92409 0.54101 0.0
H564 H 0.14475 0.91765 0.48845 0.0
H565 H 0.05971 1.00799 0.45594 0.0
H566 H 0.13064 0.99383 0.42282 0.0
H567 H 1.03128 1.00136 0.40345 0.0
H568 H 0.35239 0.989 0.50659 0.0
H569 H 0.39626 0.93765 0.43825 0.0
H570 H 0.14611 0.98918 0.52648 0.0
H571 H 0.18726 1.00644 0.49552 0.0
H572 H 0.23273 0.99552 0.54655 0.0
H573 H 0.26624 0.91947 0.44976 0.0
H574 H 0.28483 0.93045 0.39848 0.0
H575 H 0.18921 0.93629 0.41878 0.0
C576 C 0.05388 0.64787 0.97648 0.0
C577 C 0.97729 0.65951 0.96723 0.0
C578 C 0.0766 0.62649 0.97708 0.0
C579 C 1.02442 0.61413 0.96621 0.0
C580 C 0.94723 0.62595 0.9558 0.0
C581 C 0.92567 0.64724 0.95741 0.0
C582 C 0.15911 0.61734 -0.00921 0.0
C583 C 0.88417 0.61637 0.94158 0.0
C584 C 0.12815 0.55779 0.93816 0.0
C585 C 0.0956 0.54456 0.96469 0.0
C586 C 0.10578 0.57916 0.93757 0.0
C587 C 0.04932 0.58993 0.96573 0.0
C588 C 1.01753 0.57653 -0.00665 0.0
C589 C 0.0387 0.55523 -0.00823 0.0
C590 C 0.14394 0.59005 0.90476 0.0
C591 C 0.96028 0.58438 0.02662 0.0
H592 H 0.09795 0.65554 -0.01537 0.0
H593 H 0.86608 0.65443 0.94968 0.0
H594 H 0.16761 0.60189 0.00196 0.0
H595 H 0.19574 0.6186 0.96261 0.0
H596 H 0.17937 0.6251 0.0177 0.0
H597 H 0.84665 0.62538 0.91499 0.0
H598 H 0.90676 0.60183 0.92976 0.0
H599 H 0.84745 0.61505 0.96969 0.0
H600 H 0.17168 0.55138 0.91615 0.0
H601 H 1.01037 0.54675 0.01347 0.0
H602 H 0.20258 0.59017 0.91787 0.0
H603 H 0.11122 0.60514 0.89738 0.0
H604 H 0.15073 0.58266 0.87359 0.0
H605 H 0.96209 0.59928 0.03452 0.0
H606 H 0.97102 0.57498 0.05747 0.0
H607 H 0.90152 0.58428 0.01365 0.0
C608 C 0.86406 0.55514 0.62749 0.0
C609 C 0.93736 0.55704 0.61546 0.0
C610 C 0.80373 0.57154 0.62967 0.0
C611 C 0.81677 0.58997 0.61729 0.0
C612 C 0.89348 0.59193 0.61108 0.0
C613 C 0.95279 0.57542 0.61133 0.0
C614 C 0.72559 0.56874 0.64185 0.0
C615 C 0.91271 0.61105 0.59785 0.0
C616 C 0.7162 0.6236 0.52906 0.0
C617 C 0.72929 0.64027 0.54733 0.0
C618 C 0.72999 0.60615 0.55464 0.0
C619 C 0.75254 0.60601 0.59957 0.0
C620 C 0.73928 0.62367 0.61992 0.0
C621 C 0.73061 0.64083 0.59336 0.0
C622 C 0.73385 0.5877 0.53195 0.0
C623 C 0.74808 0.62415 0.669 0.0
H624 H 0.85249 0.54087 0.63212 0.0
H625 H 1.00958 0.57695 0.60246 0.0
H626 H 0.68274 0.58257 0.64396 0.0
H627 H 0.70401 0.55994 0.6176 0.0
H628 H 0.73101 0.56044 0.6741 0.0
H629 H 0.97549 0.60978 0.59458 0.0
H630 H 0.88338 0.61685 0.56578 0.0
H631 H 0.8935 0.62169 0.62251 0.0
H632 H 0.70712 0.62352 0.49383 0.0
H633 H 0.73525 0.65385 0.60883 0.0
H634 H 0.70019 0.57863 0.54967 0.0
H635 H 0.79452 0.57939 0.53197 0.0
H636 H 0.71074 0.59046 0.49741 0.0
H637 H 0.73881 0.61069 0.68588 0.0
H638 H 0.70642 0.63674 0.68048 0.0
H639 H 0.80676 0.62577 0.67844 0.0
C640 C 0.52603 1.05517 -0.00503 0.0
C641 C 0.58062 1.04441 0.96677 0.0
C642 C 0.50496 1.0765 -0.00392 0.0
C643 C 0.53433 1.0898 0.96684 0.0
C644 C 0.58828 1.07892 0.93754 0.0
C645 C 0.61078 1.05755 0.93861 0.0
C646 C 0.45063 1.08447 0.03063 0.0
C647 C 0.62341 1.08968 0.90296 0.0
C648 C 0.41144 0.14721 0.95949 0.0
C649 C 0.46439 0.1594 0.96685 0.0
C650 C 0.4322 0.12588 0.95839 0.0
C651 C 0.5099 0.114 0.9669 0.0
C652 C 0.56331 0.12631 0.97543 0.0
C653 C 0.54125 0.14768 0.97426 0.0
C654 C 0.36771 0.11631 0.9468 0.0
C655 C 0.6466 0.11713 -0.01288 0.0
H656 H 0.49964 1.04676 0.01792 0.0
H657 H 0.6524 1.05107 0.91566 0.0
H658 H 0.4532 1.09942 0.03778 0.0
H659 H 0.39098 1.08434 0.01935 0.0
H660 H 0.46376 1.07519 0.0616 0.0
H661 H 0.62709 1.08218 0.87193 0.0
H662 H 0.59036 1.10476 0.89592 0.0
H663 H 0.68313 1.0898 0.9141 0.0
H664 H 0.35152 0.15447 0.95326 0.0
H665 H 0.58626 0.15531 0.98047 0.0
H666 H 0.33366 0.11519 0.97618 0.0
H667 H 0.38877 1.10169 0.93505 0.0
H668 H 0.32804 0.12524 0.92096 0.0
H669 H 0.66921 0.12498 0.01308 0.0
H670 H 0.68085 0.11827 0.95784 0.0
H671 H 0.6557 1.10173 -0.00122 0.0
C672 C 0.73615 0.12081 0.38428 0.0
C673 C 0.72889 0.13972 0.39635 0.0
C674 C 0.79628 0.10608 0.40247 0.0
C675 C 0.85206 0.11082 0.43174 0.0
C676 C 0.85671 0.13039 0.43246 0.0
C677 C 0.79317 0.14484 0.41595 0.0
C678 C 0.79145 1.08554 0.39562 0.0
C679 C 0.92376 0.1362 0.45489 0.0
C680 C 0.82152 1.08367 0.53209 0.0
C681 C 0.84607 1.06541 0.51612 0.0
C682 C 0.83602 1.09989 0.509 0.0
C683 C 0.8801 1.09724 0.47093 0.0
C684 C 0.92571 1.07863 0.46512 0.0
C685 C 0.90618 1.06257 0.48691 0.0
C686 C 0.79229 0.1195 0.52098 0.0
C687 C 0.98703 1.07542 0.43185 0.0
H688 H 0.68884 0.11714 0.36597 0.0
H689 H 0.79065 0.15972 0.42292 0.0
H690 H 0.84753 1.07706 0.38585 0.0
H691 H 0.77569 1.07872 0.42643 0.0
H692 H 0.74748 1.08471 0.36962 0.0
H693 H 0.95391 0.14332 0.42998 0.0
H694 H 0.90308 0.14703 0.47911 0.0
H695 H 0.96586 0.1237 0.47126 0.0
H696 H 0.77963 1.08559 0.55736 0.0
H697 H 0.93031 1.04825 0.47656 0.0
H698 H 0.7459 0.12559 0.49563 0.0
H699 H 0.83156 0.12946 0.52312 0.0
H700 H 0.76516 0.11883 0.55307 0.0
H701 H 0.97762 1.0644 0.40926 0.0
H702 H 0.04373 1.06955 0.44933 0.0
H703 H 0.98986 1.08893 0.41268 0.0
C704 C 0.29528 0.39711 -0.01573 0.0
C705 C 0.22349 0.40911 0.96694 0.0
C706 C 0.31655 0.37579 -0.0149 0.0
C707 C 0.26853 0.36401 0.96598 0.0
C708 C 0.19664 0.37621 0.94732 0.0
C709 C 0.17543 0.39743 0.94908 0.0
C710 C 0.3923 0.36609 0.00821 0.0
C711 C 0.13965 0.36717 0.92373 0.0
C712 C 0.37994 0.30759 0.94544 0.0
C713 C 0.33627 0.29484 0.96462 0.0
C714 C 0.35886 0.32892 0.94461 0.0
C715 C 0.2923 0.33994 0.96557 0.0
C716 C 0.24924 0.32698 -0.01392 0.0
C717 C 0.26968 0.30576 -0.01565 0.0
C718 C 0.40978 0.33946 0.9195 0.0
C719 C 0.18014 0.33517 0.01171 0.0
H720 H 0.33598 0.40445 -0.00113 0.0
H721 H 0.11979 0.40505 0.93478 0.0
H722 H 0.39585 0.35067 0.01797 0.0
H723 H 0.4396 0.36716 -0.01381 0.0
H724 H 0.40189 0.37361 0.03807 0.0
H725 H 0.11367 0.37639 0.89413 0.0
H726 H 0.16595 0.35255 0.91347 0.0
H727 H 0.09207 0.3662 0.94562 0.0
H728 H 0.43147 0.30087 0.92938 0.0
H729 H 0.23275 0.29752 0.00017 0.0
H730 H 0.46275 0.33907 0.93994 0.0
H731 H 0.38108 0.35471 0.91014 0.0
H732 H 0.42807 0.33213 0.88921 0.0
H733 H 0.17861 0.32576 0.04176 0.0
H734 H 0.12707 0.33546 -0.00855 0.0
H735 H 0.17936 0.34996 0.02156 0.0
C736 C 0.67844 0.89605 -0.00509 0.0
C737 C 0.71375 0.90923 0.97019 0.0
C738 C 0.7016 0.87475 -0.00416 0.0
C739 C 0.76151 0.86413 0.96953 0.0
C740 C 0.79587 0.8775 0.94349 0.0
C741 C 0.77404 0.89873 0.94506 0.0
C742 C 0.66046 0.86382 0.02694 0.0
C743 C 0.85636 0.86973 0.91187 0.0
C744 C 0.88646 0.80726 0.97992 0.0
C745 C 0.83572 0.79501 0.96874 0.0
C746 C 0.86408 0.82847 0.98139 0.0
C747 C 0.78722 0.84008 0.9693 0.0
C748 C 0.73611 0.82769 0.95696 0.0
C749 C 0.75951 0.8064 0.95784 0.0
C750 C 0.92577 0.83816 -0.00264 0.0
C751 C 0.65433 0.83666 0.94128 0.0
H752 H 0.6322 0.90244 0.01531 0.0
H753 H 0.80429 0.90729 0.92479 0.0
H754 H 0.60293 0.86374 0.01206 0.0
H755 H 0.69261 0.84871 0.03485 0.0
H756 H 0.65075 0.87116 0.05806 0.0
H757 H 0.84758 0.87904 0.88089 0.0
H758 H 0.91384 0.87009 0.92637 0.0
H759 H 0.85626 0.85475 0.90376 0.0
H760 H 0.94569 0.80012 -0.0111 0.0
H761 H 0.71655 0.7986 0.94843 0.0
H762 H 0.90193 0.85273 0.00867 0.0
H763 H 0.96489 0.83938 0.97038 0.0
H764 H 0.96134 0.82923 0.0248 0.0
H765 H 0.61547 0.8351 0.96818 0.0
H766 H 0.63692 0.82891 0.91348 0.0
H767 H 0.64568 0.85216 0.93058 0.0
C768 C 0.16728 0.83544 0.44262 0.0
C769 C 0.14209 0.82636 0.47939 0.0
C770 C 0.23495 0.84235 0.44516 0.0
C771 C 0.27883 0.83999 0.48538 0.0
C772 C 0.25436 0.83055 0.52243 0.0
C773 C 0.18607 0.82392 0.51905 0.0
C774 C 0.2589 0.85243 0.40497 0.0
C775 C 0.30013 0.82754 0.56569 0.0
C776 C 0.4865 0.8449 0.48011 0.0
C777 C 0.48008 0.86408 0.49072 0.0
C778 C 0.42182 0.83671 0.47918 0.0
C779 C 0.34896 0.84799 0.48892 0.0
C780 C 0.34248 0.86722 0.50056 0.0
C781 C 0.40796 0.87504 0.50114 0.0
C782 C 0.43107 0.81622 0.46636 0.0
C783 C 0.26596 0.87974 0.5112 0.0
H784 H 0.13319 0.83745 0.41198 0.0
H785 H 0.16749 0.8166 0.54734 0.0
H786 H 0.25995 0.86752 0.41164 0.0
H787 H 0.31804 0.84513 0.39684 0.0
H788 H 0.21945 0.85268 0.37593 0.0
H789 H 0.274 0.81962 0.59116 0.0
H790 H 0.35973 0.81931 0.56123 0.0
H791 H 0.30419 0.8417 0.57775 0.0
H792 H 0.54211 0.83631 0.4723 0.0
H793 H 0.40213 0.88999 0.50854 0.0
H794 H 0.40251 0.81634 0.43352 0.0
H795 H 0.40275 0.80788 0.4898 0.0
H796 H 0.49252 0.80865 0.46492 0.0
H797 H 0.22688 0.88262 0.48139 0.0
H798 H 0.272 0.89377 0.52327 0.0
H799 H 0.23811 0.87221 0.5365 0.0
C800 C 0.90054 0.37512 0.46908 0.0
C801 C 0.97062 0.36549 0.45321 0.0
C802 C 0.83864 0.36612 0.47257 0.0
C803 C 0.84647 0.34713 0.45902 0.0
C804 C 0.91763 0.33715 0.44369 0.0
C805 C 0.97925 0.34644 0.44122 0.0
C806 C 0.76434 0.37716 0.48986 0.0
C807 C 0.928 0.31691 0.42883 0.0
C808 C 0.69569 0.32108 0.49932 0.0
C809 C 0.64215 0.32462 0.4635 0.0
C810 C 0.76416 0.32763 0.4977 0.0
C811 C 0.77888 0.33815 0.45951 0.0
C812 C 0.72586 0.34138 0.42288 0.0
C813 C 0.6582 0.33451 0.42527 0.0
C814 C 0.81968 0.32376 0.53726 0.0
C815 C 0.73951 0.35257 0.38162 0.0
H816 H 0.89427 0.38976 0.47897 0.0
H817 H 1.03348 0.33901 0.42886 0.0
H818 H 0.72053 0.3815 0.46237 0.0
H819 H 0.74146 0.36804 0.51427 0.0
H820 H 0.772 0.39034 0.50555 0.0
H821 H 0.98899 0.31039 0.42247 0.0
H822 H 0.90782 0.30751 0.4538 0.0
H823 H 0.89243 0.31717 0.39823 0.0
H824 H 0.68413 0.31308 0.52861 0.0
H825 H 0.61681 0.33732 0.39757 0.0
H826 H 0.8218 0.33759 0.55171 0.0
H827 H 0.87869 0.31721 0.52748 0.0
H828 H 0.80297 0.31399 0.56289 0.0
H829 H 0.73853 0.36771 0.38889 0.0
H830 H 0.69536 0.35269 0.35503 0.0
H831 H 0.79718 0.34629 0.36956 0.0
C832 C 0.14655 0.46273 0.12059 0.0
C833 C 0.18249 0.47636 0.10011 0.0
C834 C 0.14367 0.46057 0.16713 0.0
C835 C 0.17762 0.47224 0.19463 0.0
C836 C 0.2142 0.48592 0.17391 0.0
C837 C 0.21605 0.48779 0.12752 0.0
C838 C 0.10317 0.44591 0.18689 0.0
C839 C 0.25079 0.49889 0.20084 0.0
C840 C 0.10563 0.48255 0.31083 0.0
C841 C 0.16415 0.47097 0.33908 0.0
C842 C 0.10858 0.48273 0.2645 0.0
C843 C 0.17175 0.471 0.24461 0.0
C844 C 0.23051 0.45894 0.27287 0.0
C845 C 0.2261 0.45906 0.31942 0.0
C846 C 0.04439 0.49594 0.23675 0.0
C847 C 0.29884 0.44603 0.25386 0.0
H848 H 0.12003 0.45383 0.10019 0.0
H849 H 0.24398 0.49842 0.11259 0.0
H850 H 0.14122 0.43642 0.21252 0.0
H851 H 0.05099 0.45342 0.203 0.0
H852 H 0.08549 0.43682 0.16189 0.0
H853 H 0.27855 0.50849 0.18022 0.0
H854 H 0.20651 0.50798 0.22004 0.0
H855 H 0.29487 0.49007 0.22462 0.0
H856 H 0.05706 0.4918 0.32506 0.0
H857 H 0.27171 0.44997 0.34038 0.0
H858 H 1.02144 0.48779 0.21166 0.0
H859 H 0.06715 0.50735 0.21904 0.0
H860 H 0.99619 0.50297 0.25662 0.0
H861 H 0.27897 0.43674 0.23012 0.0
H862 H 0.33743 0.43669 0.27955 0.0
H863 H 0.33253 0.45496 0.23557 0.0
C864 C 0.89374 0.71953 0.12199 0.0
C865 C 0.92716 0.73273 0.09793 0.0
C866 C 0.88534 0.72037 0.16822 0.0
C867 C 0.91067 0.73475 0.19169 0.0
C868 C 0.94427 0.74806 0.16731 0.0
C869 C 0.95193 0.74689 0.12143 0.0
C870 C 0.84897 0.70583 0.19202 0.0
C871 C 0.972 0.76377 0.18974 0.0
C872 C 0.82608 0.75105 0.30233 0.0
C873 C 0.88458 0.74211 0.33384 0.0
C874 C 0.833 0.74841 0.25677 0.0
C875 C 0.90032 0.73644 0.24112 0.0
C876 C 0.95921 0.7271 0.27286 0.0
C877 C 0.95073 0.73 0.31841 0.0
C878 C 0.76832 0.75882 0.22515 0.0
C879 C 1.03213 0.7142 0.25859 0.0
H880 H 0.87415 0.70851 0.10473 0.0
H881 H 0.97764 0.75729 0.10375 0.0
H882 H 0.88897 0.69785 0.21884 0.0
H883 H 0.79599 0.71337 0.20737 0.0
H884 H 0.83373 0.69528 0.16984 0.0
H885 H 0.99803 0.77283 0.16668 0.0
H886 H 0.92318 0.77323 0.20508 0.0
H887 H 1.01544 0.75732 0.21637 0.0
H888 H 0.77443 0.76039 0.3133 0.0
H889 H 0.99651 0.72293 0.34195 0.0
H890 H 0.74879 0.74839 0.20439 0.0
H891 H 0.78919 0.76919 0.20289 0.0
H892 H 0.71817 0.76685 0.24222 0.0
H893 H 1.01798 0.70286 0.23848 0.0
H894 H 0.07087 0.70716 0.28689 0.0
H895 H 0.06361 0.72278 0.23767 0.0
C896 C 0.84954 0.71566 0.81095 0.0
C897 C 0.8753 0.72823 0.83888 0.0
C898 C 0.85186 0.71789 0.76454 0.0
C899 C 0.88029 0.73322 0.74433 0.0
C900 C 0.90592 0.74607 0.77239 0.0
C901 C 0.9034 0.74342 0.81887 0.0
C902 C 0.82466 0.70356 0.73702 0.0
C903 C 0.93665 0.76266 0.75323 0.0
C904 C 0.9612 0.72603 0.62894 0.0
C905 C 0.90042 0.73615 0.60001 0.0
C906 C 0.95566 0.72525 0.67515 0.0
C907 C 0.88751 0.73494 0.6944 0.0
C908 C 0.82616 0.74555 0.6655 0.0
C909 C 0.83315 0.74601 0.61901 0.0
C910 C 1.0229 0.71363 0.70348 0.0
C911 C 0.75239 0.75627 0.68376 0.0
H912 H 0.82772 0.70384 0.82548 0.0
H913 H 0.9234 0.75333 0.83961 0.0
H914 H 0.77877 0.71121 0.71278 0.0
H915 H 0.87298 0.69577 0.7183 0.0
H916 H 0.80198 0.69279 0.75717 0.0
H917 H 0.95099 0.77195 0.77879 0.0
H918 H 0.98926 0.75704 0.73531 0.0
H919 H 0.89358 0.77165 0.72915 0.0
H920 H 1.0138 0.71834 0.6153 0.0
H921 H 0.78551 0.75388 0.59758 0.0
H922 H 1.00494 0.70174 0.72234 0.0
H923 H 0.04204 0.72286 0.7276 0.0
H924 H 0.07268 0.7073 0.68393 0.0
H925 H 0.72405 0.74589 0.7013 0.0
H926 H 0.7115 0.76464 0.65773 0.0
H927 H 0.76507 0.7663 0.708 0.0
C928 C 0.24132 0.44851 0.63304 0.0
C929 C 0.18718 0.45861 0.60051 0.0
C930 C 0.23428 0.45201 0.67821 0.0
C931 C 0.17154 0.46613 0.69229 0.0
C932 C 0.1175 0.47671 0.65939 0.0
C933 C 0.12583 0.47284 0.61434 0.0
C934 C 0.2937 0.44022 0.71113 0.0
C935 C 0.05005 0.49206 0.67181 0.0
C936 C 0.11003 0.45888 0.81116 0.0
C937 C 0.14265 0.47177 0.83479 0.0
C938 C 0.11789 0.45724 0.76543 0.0
C939 C 0.15999 0.4687 0.74133 0.0
C940 C 0.19287 0.48189 0.76482 0.0
C941 C 0.18395 0.48326 0.81092 0.0
C942 C 0.08135 0.44297 0.74289 0.0
C943 C 0.23829 0.49447 0.74124 0.0
H944 H 0.28929 0.43755 0.62322 0.0
H945 H 0.08383 0.48095 0.58986 0.0
H946 H 0.31856 0.44989 0.73165 0.0
H947 H 0.26599 0.43127 0.73346 0.0
H948 H 0.34124 0.43055 0.69519 0.0
H949 H 1.01272 0.49895 0.64283 0.0
H950 H 1.01472 0.4857 0.69511 0.0
H951 H 0.07114 0.5034 0.68871 0.0
H952 H 0.07808 0.4498 0.82864 0.0
H953 H 0.20972 0.49327 0.82828 0.0
H954 H 0.12649 0.43197 0.72862 0.0
H955 H 0.04163 0.45047 0.71545 0.0
H956 H 0.04862 0.43546 0.76562 0.0
H957 H 0.28913 0.48531 0.72697 0.0
H958 H 0.2584 0.50439 0.76331 0.0
H959 H 0.20251 0.50317 0.71363 0.0
C960 C 0.63008 0.96205 0.12222 0.0
C961 C 0.66343 0.97645 0.10297 0.0
C962 C 0.6249 0.95961 0.16851 0.0
C963 C 0.65334 0.97187 0.19696 0.0
C964 C 0.68682 0.98644 0.17748 0.0
C965 C 0.69147 0.9885 0.13127 0.0
C966 C 0.58831 0.94393 0.187 0.0
C967 C 0.71736 1.00008 0.20555 0.0
C968 C 0.5755 0.97973 0.31285 0.0
C969 C 0.6356 0.96876 0.34097 0.0
C970 C 0.57979 0.98047 0.26653 0.0
C971 C 0.64601 0.97002 0.24671 0.0
C972 C 0.70623 0.95852 0.27487 0.0
C973 C 0.70042 0.95804 0.32129 0.0
C974 C 0.51389 0.993 0.2388 0.0
C975 C 0.77773 0.94692 0.25593 0.0
H976 H 0.60785 0.95265 0.10104 0.0
H977 H 0.71722 0.99973 0.11719 0.0
H978 H 0.62824 0.93447 0.21188 0.0
H979 H 0.53544 0.95047 0.2038 0.0
H980 H 0.57267 0.93492 0.1612 0.0
H981 H 0.7424 1.01053 0.18579 0.0
H982 H 0.67025 1.00826 0.2245 0.0
H983 H 0.76233 0.9918 0.22957 0.0
H984 H 0.52493 0.98811 0.32716 0.0
H985 H 0.74741 0.9495 0.34222 0.0
H986 H 0.49765 0.98504 0.21119 0.0
H987 H 0.5322 1.00581 0.22442 0.0
H988 H 0.46226 0.99804 0.25807 0.0
H989 H 0.76176 0.93745 0.2313 0.0
H990 H 0.81746 0.93785 0.28154 0.0
H991 H 0.80885 0.95678 0.23871 0.0
C992 C 0.40762 0.2095 0.13245 0.0
C993 C 0.40427 0.22473 0.1006 0.0
C994 C 0.40449 0.21263 0.17796 0.0
C995 C 0.40146 0.23135 0.1929 0.0
C996 C 0.39993 0.24669 0.16072 0.0
C997 C 0.39973 0.2433 0.11535 0.0
C998 C 0.40311 0.19588 0.21011 0.0
C999 C 0.39956 0.26675 0.17423 0.0
C1000 C 0.3213 0.24545 0.30563 0.0
C1001 C 0.38772 0.24228 0.33365 0.0
C1002 C 0.32504 0.2417 0.26055 0.0
C1003 C 0.39725 0.23502 0.24174 0.0
C1004 C 0.46485 0.23203 0.26983 0.0
C1005 C 0.45922 0.23533 0.31527 0.0
C1006 C 0.25104 0.24463 0.23312 0.0
C1007 C 0.54353 0.22575 0.25164 0.0
H1008 H 0.41131 0.1951 0.12165 0.0
H1009 H 0.39819 0.25517 0.09132 0.0
H1010 H 0.45392 0.19324 0.2334 0.0
H1011 H 0.35104 0.19936 0.2297 0.0
H1012 H 0.4031 0.18239 0.19355 0.0
H1013 H 0.40404 0.27681 0.14581 0.0
H1014 H 0.34574 0.27266 0.1908 0.0
H1015 H 0.44833 0.26626 0.19812 0.0
H1016 H 0.26562 0.25067 0.31921 0.0
H1017 H 0.51116 0.23292 0.33623 0.0
H1018 H 0.24491 0.2306 0.22118 0.0
H1019 H 0.25194 0.25447 0.20382 0.0
H1020 H 0.19992 0.25075 0.2518 0.0
H1021 H 0.54982 0.21136 0.23827 0.0
H1022 H 0.59062 0.22498 0.27687 0.0
H1023 H 0.55038 0.23599 0.22412 0.0
C1024 C 0.42454 0.23961 0.81409 0.0
C1025 C 0.39335 0.22505 0.8345 0.0
C1026 C 0.42735 0.24189 0.76754 0.0
C1027 C 0.39871 0.22932 0.73999 0.0
C1028 C 0.3676 0.21458 0.76064 0.0
C1029 C 0.36523 0.21269 0.80701 0.0
C1030 C 0.46107 0.25785 0.74775 0.0
C1031 C 0.33691 0.2006 0.73366 0.0
C1032 C 0.34781 0.24201 0.61526 0.0
C1033 C 0.41249 0.23126 0.59555 0.0
C1034 C 0.34311 0.24192 0.6618 0.0
C1035 C 0.40436 0.23082 0.69001 0.0
C1036 C 0.47011 0.22025 0.67005 0.0
C1037 C 0.47331 0.22063 0.62372 0.0
C1038 C 0.27176 0.25351 0.68086 0.0
C1039 C 0.5371 0.20812 0.69774 0.0
H1040 H 0.44615 0.24938 0.83448 0.0
H1041 H 0.34093 0.20136 0.82188 0.0
H1042 H 0.51194 0.25162 0.729 0.0
H1043 H 0.41828 0.26732 0.72428 0.0
H1044 H 0.47893 0.26679 0.77302 0.0
H1045 H 0.31314 0.19017 0.75423 0.0
H1046 H 0.29094 0.20861 0.70986 0.0
H1047 H 0.38358 0.19241 0.71444 0.0
H1048 H 0.30031 0.25033 0.59432 0.0
H1049 H 0.52396 0.21228 0.60944 0.0
H1050 H 0.28773 0.26337 0.70454 0.0
H1051 H 0.24194 0.24367 0.69921 0.0
H1052 H 0.23091 0.26218 0.65518 0.0
H1053 H 0.55888 0.21711 0.72144 0.0
H1054 H 0.58536 0.20131 0.67765 0.0
H1055 H 0.51781 0.19656 0.71707 0.0
C1056 C 0.58045 0.96109 0.62665 0.0
C1057 C 0.64539 0.96231 0.60268 0.0
C1058 C 0.57785 0.96406 0.67219 0.0
C1059 C 0.64298 0.9676 0.69568 0.0
C1060 C 0.70894 0.96879 0.67154 0.0
C1061 C 0.70878 0.96652 0.62556 0.0
C1062 C 0.50499 0.9633 0.69526 0.0
C1063 C 0.78102 0.97177 0.69461 0.0
C1064 C 0.6202 0.98821 0.81098 0.0
C1065 C 0.63484 0.97141 0.83928 0.0
C1066 C 0.62257 0.98727 0.76456 0.0
C1067 C 0.64299 0.96911 0.74547 0.0
C1068 C 0.66083 0.95219 0.77433 0.0
C1069 C 0.65483 0.95354 0.82027 0.0
C1070 C 0.60009 1.00573 0.73581 0.0
C1071 C 0.68576 0.93251 0.75667 0.0
H1072 H 0.53089 0.95795 0.60955 0.0
H1073 H 0.75961 0.96737 0.60775 0.0
H1074 H 0.51555 0.95051 0.71894 0.0
H1075 H 0.487 0.97628 0.71419 0.0
H1076 H 0.45689 0.96244 0.67197 0.0
H1077 H 0.82733 0.97251 0.67158 0.0
H1078 H 0.76813 0.98528 0.71204 0.0
H1079 H 0.80272 0.95973 0.71971 0.0
H1080 H 0.60348 1.0021 0.82497 0.0
H1081 H 0.66622 0.94044 0.84161 0.0
H1082 H 0.54873 1.00542 0.71456 0.0
H1083 H 0.64713 1.00707 0.71386 0.0
H1084 H 0.58663 1.01869 0.75523 0.0
H1085 H 0.63714 0.92907 0.73759 0.0
H1086 H 0.7054 0.92097 0.78323 0.0
H1087 H 0.7333 0.93236 0.73406 0.0
loop_
_geom_bond_atom_site_label_1
_geom_bond_atom_site_label_2
_geom_bond_distance
_geom_bond_site_symmetry_2
_ccdc_geom_bond_type
Tb0 C2 2.809 . S
Tb0 O20 2.484 . S
Tb0 O21 2.440 1_554 S
Tb0 O22 2.658 1_654 S
Tb0 O23 2.409 1_654 S
Tb0 O24 2.378 1_554 S
Tb0 O28 2.325 1_655 S
Tb0 O31 2.341 1_655 S
Tb1 C11 2.809 . S
Tb1 O22 2.325 1_554 S
Tb1 O25 2.341 . S
Tb1 O26 2.484 1_554 S
Tb1 O27 2.440 . S
Tb1 O28 2.658 . S
Tb1 O29 2.409 . S
Tb1 O30 2.378 . S
C2 Tb0 2.809 . S
C2 C3 1.514 . S
C2 O20 1.248 . S
C2 O21 1.266 1_554 S
C3 C2 1.514 . S
C3 C4 1.359 . S
C3 C8 1.348 1_554 S
C4 C3 1.359 . S
C4 C5 1.380 . S
C4 H32 0.929 . S
C5 C4 1.380 . S
C5 C6 1.347 . S
C5 H33 0.931 . S
C6 C5 1.347 . S
C6 C7 1.369 1_554 S
C7 C6 1.369 1_556 S
C7 C8 1.408 . S
C7 H34 0.930 . S
C8 C3 1.348 1_556 S
C8 C7 1.408 . S
C8 H35 0.930 . S
C9 O22 1.281 . S
C9 O23 1.254 . S
C10 O24 1.236 1_454 S
C10 O25 1.266 . S
C11 Tb1 2.809 . S
C11 C12 1.514 . S
C11 O26 1.248 1_554 S
C11 O27 1.266 . S
C12 C11 1.514 . S
C12 C13 1.359 1_554 S
C12 C17 1.348 . S
C13 C12 1.359 1_556 S
C13 C14 1.380 . S
C13 H36 0.929 . S
C14 C13 1.380 . S
C14 C15 1.347 1_556 S
C14 H37 0.931 . S
C15 C14 1.347 1_554 S
C15 C16 1.369 . S
C16 C15 1.369 . S
C16 C17 1.408 . S
C16 H38 0.930 . S
C17 C12 1.348 . S
C17 C16 1.408 . S
C17 H39 0.930 . S
C18 O28 1.281 . S
C18 O29 1.254 . S
C19 O30 1.236 . S
C19 O31 1.266 . S
O20 Tb0 2.484 . S
O20 C2 1.248 . S
O21 Tb0 2.440 1_556 S
O21 C2 1.266 1_556 S
O22 Tb0 2.658 1_456 S
O22 Tb1 2.325 1_556 S
O22 C9 1.281 . S
O23 Tb0 2.409 1_456 S
O23 C9 1.254 . S
O24 Tb0 2.378 1_556 S
O24 C10 1.236 1_656 S
O25 Tb1 2.341 . S
O25 C10 1.266 . S
O26 Tb1 2.484 1_556 S
O26 C11 1.248 1_556 S
O27 Tb1 2.440 . S
O27 C11 1.266 . S
O28 Tb0 2.325 1_455 S
O28 Tb1 2.658 . S
O28 C18 1.281 . S
O29 Tb1 2.409 . S
O29 C18 1.254 . S
O30 Tb1 2.378 . S
O30 C19 1.236 . S
O31 Tb0 2.341 1_455 S
O31 C19 1.266 . S
H32 C4 0.929 . S
H33 C5 0.931 . S
H34 C7 0.930 . S
H35 C8 0.930 . S
H36 C13 0.929 . S
H37 C14 0.931 . S
H38 C16 0.930 . S
H39 C17 0.930 . S
Tb40 C42 2.809 . S
Tb40 O60 2.484 . S
Tb40 O61 2.440 1_554 S
Tb40 O62 2.658 1_554 S
Tb40 O63 2.409 1_554 S
Tb40 O64 2.378 1_554 S
Tb40 O68 2.325 . S
Tb40 O71 2.341 . S
Tb41 C51 2.809 . S
Tb41 O62 2.325 1_454 S
Tb41 O65 2.341 1_455 S
Tb41 O66 2.484 1_554 S
Tb41 O67 2.440 . S
Tb41 O68 2.658 1_455 S
Tb41 O69 2.409 1_455 S
Tb41 O70 2.378 . S
C42 Tb40 2.809 . S
C42 C43 1.514 . S
C42 O60 1.248 . S
C42 O61 1.266 1_554 S
C43 C42 1.514 . S
C43 C44 1.359 . S
C43 C48 1.348 1_554 S
C44 C43 1.359 . S
C44 C45 1.380 . S
C44 H72 0.929 . S
C45 C44 1.380 . S
C45 C46 1.347 . S
C45 H73 0.931 . S
C46 C45 1.347 . S
C46 C47 1.369 1_554 S
C47 C46 1.369 1_556 S
C47 C48 1.408 . S
C47 H74 0.930 . S
C48 C43 1.348 1_556 S
C48 C47 1.408 . S
C48 H75 0.930 . S
C49 O62 1.281 . S
C49 O63 1.254 . S
C50 O64 1.228 1_554 S
C50 O65 1.269 . S
C51 Tb41 2.809 . S
C51 C52 1.514 . S
C51 O66 1.248 1_554 S
C51 O67 1.266 . S
C52 C51 1.514 . S
C52 C53 1.359 1_554 S
C52 C57 1.348 . S
C53 C52 1.359 1_556 S
C53 C54 1.380 . S
C53 H76 0.929 . S
C54 C53 1.380 . S
C54 C55 1.347 1_556 S
C54 H77 0.931 . S
C55 C54 1.347 1_554 S
C55 C56 1.369 . S
C56 C55 1.369 . S
C56 C57 1.408 . S
C56 H78 0.930 . S
C57 C52 1.348 . S
C57 C56 1.408 . S
C57 H79 0.930 . S
C58 O68 1.281 . S
C58 O69 1.254 . S
C59 O70 1.236 1_655 S
C59 O71 1.266 . S
O60 Tb40 2.484 . S
O60 C42 1.248 . S
O61 Tb40 2.440 1_556 S
O61 C42 1.266 1_556 S
O62 Tb40 2.658 1_556 S
O62 Tb41 2.325 1_656 S
O62 C49 1.281 . S
O63 Tb40 2.409 1_556 S
O63 C49 1.254 . S
O64 Tb40 2.378 1_556 S
O64 C50 1.228 1_556 S
O65 Tb41 2.341 1_655 S
O65 C50 1.269 . S
O66 Tb41 2.484 1_556 S
O66 C51 1.248 1_556 S
O67 Tb41 2.440 . S
O67 C51 1.266 . S
O68 Tb40 2.325 . S
O68 Tb41 2.658 1_655 S
O68 C58 1.281 . S
O69 Tb41 2.409 1_655 S
O69 C58 1.254 . S
O70 Tb41 2.378 . S
O70 C59 1.236 1_455 S
O71 Tb40 2.341 . S
O71 C59 1.266 . S
H72 C44 0.929 . S
H73 C45 0.931 . S
H74 C47 0.930 . S
H75 C48 0.930 . S
H76 C53 0.929 . S
H77 C54 0.931 . S
H78 C56 0.930 . S
H79 C57 0.930 . S
Tb80 C82 2.809 . S
Tb80 O100 2.484 . S
Tb80 O101 2.440 . S
Tb80 O102 2.658 . S
Tb80 O103 2.409 . S
Tb80 O104 2.378 . S
Tb80 O108 2.325 . S
Tb80 O111 2.341 1_455 S
Tb81 C91 2.809 . S
Tb81 O102 2.325 . S
Tb81 O105 2.341 . S
Tb81 O106 2.484 . S
Tb81 O107 2.440 . S
Tb81 O108 2.658 . S
Tb81 O109 2.409 . S
Tb81 O110 2.378 1_455 S
C82 Tb80 2.809 . S
C82 C83 1.514 . S
C82 O100 1.248 . S
C82 O101 1.266 . S
C83 C82 1.514 . S
C83 C84 1.359 . S
C83 C88 1.348 . S
C84 C83 1.359 . S
C84 C85 1.380 . S
C84 H112 0.929 . S
C85 C84 1.380 . S
C85 C86 1.347 . S
C85 H113 0.931 . S
C86 C85 1.347 . S
C86 C87 1.369 . S
C87 C86 1.369 . S
C87 C88 1.408 . S
C87 H114 0.930 . S
C88 C83 1.348 . S
C88 C87 1.408 . S
C88 H115 0.930 . S
C89 O102 1.281 . S
C89 O103 1.254 . S
C90 O104 1.236 . S
C90 O105 1.266 . S
C91 Tb81 2.809 . S
C91 C92 1.514 1_455 S
C91 O106 1.248 . S
C91 O107 1.266 . S
C92 C91 1.514 1_655 S
C92 C93 1.359 . S
C92 C97 1.348 . S
C93 C92 1.359 . S
C93 C94 1.380 . S
C93 H116 0.929 . S
C94 C93 1.380 . S
C94 C95 1.347 . S
C94 H117 0.931 . S
C95 C94 1.347 . S
C95 C96 1.369 . S
C96 C95 1.369 . S
C96 C97 1.408 . S
C96 H118 0.930 . S
C97 C92 1.348 . S
C97 C96 1.408 . S
C97 H119 0.930 . S
C98 O108 1.281 . S
C98 O109 1.254 . S
C99 O110 1.236 . S
C99 O111 1.266 . S
O100 Tb80 2.484 . S
O100 C82 1.248 . S
O101 Tb80 2.440 . S
O101 C82 1.266 . S
O102 Tb80 2.658 . S
O102 Tb81 2.325 . S
O102 C89 1.281 . S
O103 Tb80 2.409 . S
O103 C89 1.254 . S
O104 Tb80 2.378 . S
O104 C90 1.236 . S
O105 Tb81 2.341 . S
O105 C90 1.266 . S
O106 Tb81 2.484 . S
O106 C91 1.248 . S
O107 Tb81 2.440 . S
O107 C91 1.266 . S
O108 Tb80 2.325 . S
O108 Tb81 2.658 . S
O108 C98 1.281 . S
O109 Tb81 2.409 . S
O109 C98 1.254 . S
O110 Tb81 2.378 1_655 S
O110 C99 1.236 . S
O111 Tb80 2.341 1_655 S
O111 C99 1.266 . S
H112 C84 0.929 . S
H113 C85 0.931 . S
H114 C87 0.930 . S
H115 C88 0.930 . S
H116 C93 0.929 . S
H117 C94 0.931 . S
H118 C96 0.930 . S
H119 C97 0.930 . S
Tb120 C122 2.809 . S
Tb120 O140 2.484 . S
Tb120 O141 2.440 . S
Tb120 O142 2.658 . S
Tb120 O143 2.409 . S
Tb120 O144 2.378 1_655 S
Tb120 O148 2.325 . S
Tb120 O151 2.341 . S
Tb121 C131 2.809 . S
Tb121 O142 2.325 . S
Tb121 O145 2.341 1_655 S
Tb121 O146 2.484 . S
Tb121 O147 2.440 . S
Tb121 O148 2.658 . S
Tb121 O149 2.409 . S
Tb121 O150 2.378 . S
C122 Tb120 2.809 . S
C122 C123 1.514 1_655 S
C122 O140 1.248 . S
C122 O141 1.266 . S
C123 C122 1.514 1_455 S
C123 C124 1.359 . S
C123 C128 1.348 . S
C124 C123 1.359 . S
C124 C125 1.380 . S
C124 H152 0.929 . S
C125 C124 1.380 . S
C125 C126 1.347 . S
C125 H153 0.931 . S
C126 C125 1.347 . S
C126 C127 1.369 . S
C127 C126 1.369 . S
C127 C128 1.408 . S
C127 H154 0.930 . S
C128 C123 1.348 . S
C128 C127 1.408 . S
C128 H155 0.930 . S
C129 O142 1.281 . S
C129 O143 1.254 . S
C130 O144 1.236 . S
C130 O145 1.266 . S
C131 Tb121 2.809 . S
C131 C132 1.514 . S
C131 O146 1.248 . S
C131 O147 1.266 . S
C132 C131 1.514 . S
C132 C133 1.359 . S
C132 C137 1.348 . S
C133 C132 1.359 . S
C133 C134 1.380 . S
C133 H156 0.929 . S
C134 C133 1.380 . S
C134 C135 1.347 . S
C134 H157 0.931 . S
C135 C134 1.347 . S
C135 C136 1.369 . S
C136 C135 1.369 . S
C136 C137 1.408 . S
C136 H158 0.930 . S
C137 C132 1.348 . S
C137 C136 1.408 . S
C137 H159 0.930 . S
C138 O148 1.281 . S
C138 O149 1.254 . S
C139 O150 1.236 . S
C139 O151 1.266 . S
O140 Tb120 2.484 . S
O140 C122 1.248 . S
O141 Tb120 2.440 . S
O141 C122 1.266 . S
O142 Tb120 2.658 . S
O142 Tb121 2.325 . S
O142 C129 1.281 . S
O143 Tb120 2.409 . S
O143 C129 1.254 . S
O144 Tb120 2.378 1_455 S
O144 C130 1.236 . S
O145 Tb121 2.341 1_455 S
O145 C130 1.266 . S
O146 Tb121 2.484 . S
O146 C131 1.248 . S
O147 Tb121 2.440 . S
O147 C131 1.266 . S
O148 Tb120 2.325 . S
O148 Tb121 2.658 . S
O148 C138 1.281 . S
O149 Tb121 2.409 . S
O149 C138 1.254 . S
O150 Tb121 2.378 . S
O150 C139 1.236 . S
O151 Tb120 2.341 . S
O151 C139 1.266 . S
H152 C124 0.929 . S
H153 C125 0.931 . S
H154 C127 0.930 . S
H155 C128 0.930 . S
H156 C133 0.929 . S
H157 C134 0.931 . S
H158 C136 0.930 . S
H159 C137 0.930 . S
Tb160 C162 2.809 . S
Tb160 O180 2.484 . S
Tb160 O181 2.440 1_554 S
Tb160 O182 2.658 1_554 S
Tb160 O183 2.409 1_554 S
Tb160 O184 2.378 1_554 S
Tb160 O188 2.325 . S
Tb160 O191 2.341 . S
Tb161 C171 2.809 . S
Tb161 O182 2.325 1_554 S
Tb161 O185 2.341 . S
Tb161 O186 2.484 1_554 S
Tb161 O187 2.440 . S
Tb161 O188 2.658 . S
Tb161 O189 2.409 . S
Tb161 O190 2.378 . S
C162 Tb160 2.809 . S
C162 C163 1.514 . S
C162 O180 1.248 . S
C162 O181 1.266 1_554 S
C163 C162 1.514 . S
C163 C164 1.359 . S
C163 C168 1.348 1_554 S
C164 C163 1.359 . S
C164 C165 1.380 . S
C164 H192 0.929 . S
C165 C164 1.380 . S
C165 C166 1.347 . S
C165 H193 0.931 . S
C166 C165 1.347 . S
C166 C167 1.369 1_554 S
C167 C166 1.369 1_556 S
C167 C168 1.408 . S
C167 H194 0.930 . S
C168 C163 1.348 1_556 S
C168 C167 1.408 . S
C168 H195 0.930 . S
C169 O182 1.281 . S
C169 O183 1.254 . S
C170 O184 1.236 1_554 S
C170 O185 1.266 . S
C171 Tb161 2.809 . S
C171 C172 1.514 . S
C171 O186 1.248 1_554 S
C171 O187 1.266 . S
C172 C171 1.514 . S
C172 C173 1.359 1_554 S
C172 C177 1.348 . S
C173 C172 1.359 1_556 S
C173 C174 1.380 . S
C173 H196 0.929 . S
C174 C173 1.380 . S
C174 C175 1.347 1_556 S
C174 H197 0.931 . S
C175 C174 1.347 1_554 S
C175 C176 1.369 . S
C176 C175 1.369 . S
C176 C177 1.408 . S
C176 H198 0.930 . S
C177 C172 1.348 . S
C177 C176 1.408 . S
C177 H199 0.930 . S
C178 O188 1.281 . S
C178 O189 1.254 . S
C179 O190 1.236 . S
C179 O191 1.266 . S
O180 Tb160 2.484 . S
O180 C162 1.248 . S
O181 Tb160 2.440 1_556 S
O181 C162 1.266 1_556 S
O182 Tb160 2.658 1_556 S
O182 Tb161 2.325 1_556 S
O182 C169 1.281 . S
O183 Tb160 2.409 1_556 S
O183 C169 1.254 . S
O184 Tb160 2.378 1_556 S
O184 C170 1.236 1_556 S
O185 Tb161 2.341 . S
O185 C170 1.266 . S
O186 Tb161 2.484 1_556 S
O186 C171 1.248 1_556 S
O187 Tb161 2.440 . S
O187 C171 1.266 . S
O188 Tb160 2.325 . S
O188 Tb161 2.658 . S
O188 C178 1.281 . S
O189 Tb161 2.409 . S
O189 C178 1.254 . S
O190 Tb161 2.378 . S
O190 C179 1.236 . S
O191 Tb160 2.341 . S
O191 C179 1.266 . S
H192 C164 0.929 . S
H193 C165 0.931 . S
H194 C167 0.930 . S
H195 C168 0.930 . S
H196 C173 0.929 . S
H197 C174 0.931 . S
H198 C176 0.930 . S
H199 C177 0.930 . S
Tb200 C202 2.809 . S
Tb200 O220 2.484 . S
Tb200 O221 2.440 1_554 S
Tb200 O222 2.658 1_554 S
Tb200 O223 2.409 1_554 S
Tb200 O224 2.378 1_554 S
Tb200 O228 2.325 . S
Tb200 O231 2.341 . S
Tb201 C211 2.809 . S
Tb201 O222 2.325 1_554 S
Tb201 O225 2.341 . S
Tb201 O226 2.484 1_554 S
Tb201 O227 2.440 . S
Tb201 O228 2.658 . S
Tb201 O229 2.409 . S
Tb201 O230 2.378 . S
C202 Tb200 2.809 . S
C202 C203 1.514 . S
C202 O220 1.248 . S
C202 O221 1.266 1_554 S
C203 C202 1.514 . S
C203 C204 1.359 . S
C203 C208 1.348 1_554 S
C204 C203 1.359 . S
C204 C205 1.380 . S
C204 H232 0.929 . S
C205 C204 1.380 . S
C205 C206 1.347 . S
C205 H233 0.931 . S
C206 C205 1.347 . S
C206 C207 1.369 1_554 S
C207 C206 1.369 1_556 S
C207 C208 1.408 . S
C207 H234 0.930 . S
C208 C203 1.348 1_556 S
C208 C207 1.408 . S
C208 H235 0.930 . S
C209 O222 1.281 . S
C209 O223 1.254 . S
C210 O224 1.229 1_554 S
C210 O225 1.269 . S
C211 Tb201 2.809 . S
C211 C212 1.514 . S
C211 O226 1.248 1_554 S
C211 O227 1.266 . S
C212 C211 1.514 . S
C212 C213 1.359 1_554 S
C212 C217 1.348 . S
C213 C212 1.359 1_556 S
C213 C214 1.380 . S
C213 H236 0.929 . S
C214 C213 1.380 . S
C214 C215 1.347 1_556 S
C214 H237 0.931 . S
C215 C214 1.347 1_554 S
C215 C216 1.369 . S
C216 C215 1.369 . S
C216 C217 1.408 . S
C216 H238 0.930 . S
C217 C212 1.348 . S
C217 C216 1.408 . S
C217 H239 0.930 . S
C218 O228 1.281 . S
C218 O229 1.254 . S
C219 O230 1.236 . S
C219 O231 1.266 . S
O220 Tb200 2.484 . S
O220 C202 1.248 . S
O221 Tb200 2.440 1_556 S
O221 C202 1.266 1_556 S
O222 Tb200 2.658 1_556 S
O222 Tb201 2.325 1_556 S
O222 C209 1.281 . S
O223 Tb200 2.409 1_556 S
O223 C209 1.254 . S
O224 Tb200 2.378 1_556 S
O224 C210 1.229 1_556 S
O225 Tb201 2.341 . S
O225 C210 1.269 . S
O226 Tb201 2.484 1_556 S
O226 C211 1.248 1_556 S
O227 Tb201 2.440 . S
O227 C211 1.266 . S
O228 Tb200 2.325 . S
O228 Tb201 2.658 . S
O228 C218 1.281 . S
O229 Tb201 2.409 . S
O229 C218 1.254 . S
O230 Tb201 2.378 . S
O230 C219 1.236 . S
O231 Tb200 2.341 . S
O231 C219 1.266 . S
H232 C204 0.929 . S
H233 C205 0.931 . S
H234 C207 0.930 . S
H235 C208 0.930 . S
H236 C213 0.929 . S
H237 C214 0.931 . S
H238 C216 0.930 . S
H239 C217 0.930 . S
Tb240 C242 2.809 . S
Tb240 O260 2.484 . S
Tb240 O261 2.440 . S
Tb240 O262 2.658 . S
Tb240 O263 2.409 . S
Tb240 O264 2.378 . S
Tb240 O268 2.325 . S
Tb240 O271 2.341 . S
Tb241 C251 2.809 . S
Tb241 O262 2.325 . S
Tb241 O265 2.341 . S
Tb241 O266 2.484 . S
Tb241 O267 2.440 . S
Tb241 O268 2.658 . S
Tb241 O269 2.409 . S
Tb241 O270 2.378 . S
C242 Tb240 2.809 . S
C242 C243 1.514 . S
C242 O260 1.248 . S
C242 O261 1.266 . S
C243 C242 1.514 . S
C243 C244 1.359 . S
C243 C248 1.348 . S
C244 C243 1.359 . S
C244 C245 1.380 . S
C244 H272 0.929 . S
C245 C244 1.380 . S
C245 C246 1.347 . S
C245 H273 0.931 . S
C246 C245 1.347 . S
C246 C247 1.369 . S
C247 C246 1.369 . S
C247 C248 1.408 . S
C247 H274 0.930 . S
C248 C243 1.348 . S
C248 C247 1.408 . S
C248 H275 0.930 . S
C249 O262 1.281 . S
C249 O263 1.254 . S
C250 O264 1.236 . S
C250 O265 1.266 . S
C251 Tb241 2.809 . S
C251 C252 1.514 . S
C251 O266 1.248 . S
C251 O267 1.266 . S
C252 C251 1.514 . S
C252 C253 1.359 . S
C252 C257 1.348 . S
C253 C252 1.359 . S
C253 C254 1.380 . S
C253 H276 0.929 . S
C254 C253 1.380 . S
C254 C255 1.347 . S
C254 H277 0.931 . S
C255 C254 1.347 . S
C255 C256 1.369 . S
C256 C255 1.369 . S
C256 C257 1.408 . S
C256 H278 0.930 . S
C257 C252 1.348 . S
C257 C256 1.408 . S
C257 H279 0.930 . S
C258 O268 1.281 . S
C258 O269 1.254 . S
C259 O270 1.236 . S
C259 O271 1.266 . S
O260 Tb240 2.484 . S
O260 C242 1.248 . S
O261 Tb240 2.440 . S
O261 C242 1.266 . S
O262 Tb240 2.658 . S
O262 Tb241 2.325 . S
O262 C249 1.281 . S
O263 Tb240 2.409 . S
O263 C249 1.254 . S
O264 Tb240 2.378 . S
O264 C250 1.236 . S
O265 Tb241 2.341 . S
O265 C250 1.266 . S
O266 Tb241 2.484 . S
O266 C251 1.248 . S
O267 Tb241 2.440 . S
O267 C251 1.266 . S
O268 Tb240 2.325 . S
O268 Tb241 2.658 . S
O268 C258 1.281 . S
O269 Tb241 2.409 . S
O269 C258 1.254 . S
O270 Tb241 2.378 . S
O270 C259 1.236 . S
O271 Tb240 2.341 . S
O271 C259 1.266 . S
H272 C244 0.929 . S
H273 C245 0.931 . S
H274 C247 0.930 . S
H275 C248 0.930 . S
H276 C253 0.929 . S
H277 C254 0.931 . S
H278 C256 0.930 . S
H279 C257 0.930 . S
Tb280 C282 2.809 . S
Tb280 O300 2.484 . S
Tb280 O301 2.440 . S
Tb280 O302 2.658 . S
Tb280 O303 2.409 . S
Tb280 O304 2.378 . S
Tb280 O308 2.325 . S
Tb280 O311 2.341 . S
Tb281 C291 2.809 . S
Tb281 O302 2.325 . S
Tb281 O305 2.341 . S
Tb281 O306 2.484 . S
Tb281 O307 2.440 . S
Tb281 O308 2.658 . S
Tb281 O309 2.409 . S
Tb281 O310 2.378 . S
C282 Tb280 2.809 . S
C282 C283 1.514 . S
C282 O300 1.248 . S
C282 O301 1.266 . S
C283 C282 1.514 . S
C283 C284 1.359 . S
C283 C288 1.348 . S
C284 C283 1.359 . S
C284 C285 1.380 . S
C284 H312 0.929 . S
C285 C284 1.380 . S
C285 C286 1.347 . S
C285 H313 0.931 . S
C286 C285 1.347 . S
C286 C287 1.369 . S
C287 C286 1.369 . S
C287 C288 1.408 . S
C287 H314 0.930 . S
C288 C283 1.348 . S
C288 C287 1.408 . S
C288 H315 0.930 . S
C289 O302 1.281 . S
C289 O303 1.254 . S
C290 O304 1.236 . S
C290 O305 1.266 . S
C291 Tb281 2.809 . S
C291 C292 1.514 . S
C291 O306 1.248 . S
C291 O307 1.266 . S
C292 C291 1.514 . S
C292 C293 1.359 . S
C292 C297 1.348 . S
C293 C292 1.359 . S
C293 C294 1.380 . S
C293 H316 0.929 . S
C294 C293 1.380 . S
C294 C295 1.347 . S
C294 H317 0.931 . S
C295 C294 1.347 . S
C295 C296 1.369 . S
C296 C295 1.369 . S
C296 C297 1.408 . S
C296 H318 0.930 . S
C297 C292 1.348 . S
C297 C296 1.408 . S
C297 H319 0.930 . S
C298 O308 1.281 . S
C298 O309 1.254 . S
C299 O310 1.236 . S
C299 O311 1.266 . S
O300 Tb280 2.484 . S
O300 C282 1.248 . S
O301 Tb280 2.440 . S
O301 C282 1.266 . S
O302 Tb280 2.658 . S
O302 Tb281 2.325 . S
O302 C289 1.281 . S
O303 Tb280 2.409 . S
O303 C289 1.254 . S
O304 Tb280 2.378 . S
O304 C290 1.236 . S
O305 Tb281 2.341 . S
O305 C290 1.266 . S
O306 Tb281 2.484 . S
O306 C291 1.248 . S
O307 Tb281 2.440 . S
O307 C291 1.266 . S
O308 Tb280 2.325 . S
O308 Tb281 2.658 . S
O308 C298 1.281 . S
O309 Tb281 2.409 . S
O309 C298 1.254 . S
O310 Tb281 2.378 . S
O310 C299 1.236 . S
O311 Tb280 2.341 . S
O311 C299 1.266 . S
H312 C284 0.929 . S
H313 C285 0.931 . S
H314 C287 0.930 . S
H315 C288 0.930 . S
H316 C293 0.929 . S
H317 C294 0.931 . S
H318 C296 0.930 . S
H319 C297 0.930 . S
C320 C321 1.391 1_556 S
C320 C322 1.394 . S
C320 H336 0.931 . S
C321 C320 1.391 1_554 S
C321 C325 1.376 . S
C322 C320 1.394 . S
C322 C323 1.369 1_556 S
C322 C326 1.531 . S
C323 C322 1.369 1_554 S
C323 C324 1.410 . S
C323 C331 1.503 . S
C324 C323 1.410 . S
C324 C325 1.392 . S
C324 C327 1.511 . S
C325 C321 1.376 . S
C325 C324 1.392 . S
C325 H337 0.929 . S
C326 C322 1.531 . S
C326 H338 0.960 . S
C326 H339 0.962 . S
C326 H340 0.960 . S
C327 C324 1.511 . S
C327 H341 0.961 . S
C327 H342 0.961 . S
C327 H343 0.961 . S
C328 C329 1.370 . S
C328 C330 1.363 . S
C328 H344 0.931 . S
C329 C328 1.370 . S
C329 C333 1.408 . S
C330 C328 1.363 . S
C330 C331 1.370 . S
C330 C334 1.524 . S
C331 C323 1.503 . S
C331 C330 1.370 . S
C331 C332 1.403 . S
C332 C331 1.403 . S
C332 C333 1.404 . S
C332 C335 1.539 1_554 S
C333 C329 1.408 . S
C333 C332 1.404 . S
C333 H345 0.929 1_554 S
C334 C330 1.524 . S
C334 H346 0.956 . S
C334 H347 0.961 . S
C334 H348 0.961 . S
C335 C332 1.539 1_556 S
C335 H349 0.958 . S
C335 H350 0.961 . S
C335 H351 0.960 . S
H336 C320 0.931 . S
H337 C325 0.929 . S
H338 C326 0.960 . S
H339 C326 0.962 . S
H340 C326 0.960 . S
H341 C327 0.961 . S
H342 C327 0.961 . S
H343 C327 0.961 . S
H344 C328 0.931 . S
H345 C333 0.929 1_556 S
H346 C334 0.956 . S
H347 C334 0.961 . S
H348 C334 0.961 . S
H349 C335 0.958 . S
H350 C335 0.961 . S
H351 C335 0.960 . S
C352 C353 1.391 . S
C352 C354 1.394 . S
C352 H368 0.931 . S
C353 C352 1.391 . S
C353 C357 1.376 . S
C354 C352 1.394 . S
C354 C355 1.369 . S
C354 C358 1.531 . S
C355 C354 1.369 . S
C355 C356 1.410 . S
C355 C363 1.503 . S
C356 C355 1.410 . S
C356 C357 1.392 . S
C356 C359 1.511 . S
C357 C353 1.376 . S
C357 C356 1.392 . S
C357 H369 0.929 . S
C358 C354 1.531 . S
C358 H370 0.960 . S
C358 H371 0.962 1_554 S
C358 H372 0.960 . S
C359 C356 1.511 . S
C359 H373 0.961 . S
C359 H374 0.961 . S
C359 H375 0.961 . S
C360 C361 1.370 1_556 S
C360 C362 1.363 . S
C360 H376 0.931 . S
C361 C360 1.370 1_554 S
C361 C365 1.408 . S
C362 C360 1.363 . S
C362 C363 1.370 1_556 S
C362 C366 1.524 . S
C363 C355 1.503 . S
C363 C362 1.370 1_554 S
C363 C364 1.403 . S
C364 C363 1.403 . S
C364 C365 1.404 . S
C364 C367 1.539 . S
C365 C361 1.408 . S
C365 C364 1.404 . S
C365 H377 0.930 . S
C366 C362 1.524 . S
C366 H378 0.956 . S
C366 H379 0.961 . S
C366 H380 0.961 . S
C367 C364 1.539 . S
C367 H381 0.958 . S
C367 H382 0.961 . S
C367 H383 0.960 . S
H368 C352 0.931 . S
H369 C357 0.929 . S
H370 C358 0.960 . S
H371 C358 0.962 1_556 S
H372 C358 0.960 . S
H373 C359 0.961 . S
H374 C359 0.961 . S
H375 C359 0.961 . S
H376 C360 0.931 . S
H377 C365 0.930 . S
H378 C366 0.956 . S
H379 C366 0.961 . S
H380 C366 0.961 . S
H381 C367 0.958 . S
H382 C367 0.961 . S
H383 C367 0.960 . S
C384 C385 1.391 . S
C384 C386 1.394 . S
C384 H400 0.931 . S
C385 C384 1.391 . S
C385 C389 1.376 . S
C386 C384 1.394 . S
C386 C387 1.369 . S
C386 C390 1.531 . S
C387 C386 1.369 . S
C387 C388 1.410 . S
C387 C395 1.503 . S
C388 C387 1.410 . S
C388 C389 1.392 . S
C388 C391 1.511 . S
C389 C385 1.376 . S
C389 C388 1.392 . S
C389 H401 0.929 . S
C390 C386 1.531 . S
C390 H402 0.960 . S
C390 H403 0.962 . S
C390 H404 0.960 . S
C391 C388 1.511 . S
C391 H405 0.961 . S
C391 H406 0.961 . S
C391 H407 0.961 . S
C392 C393 1.370 . S
C392 C394 1.363 . S
C392 H408 0.931 . S
C393 C392 1.370 . S
C393 C397 1.408 . S
C394 C392 1.363 . S
C394 C395 1.370 . S
C394 C398 1.524 . S
C395 C387 1.503 . S
C395 C394 1.370 . S
C395 C396 1.403 . S
C396 C395 1.403 . S
C396 C397 1.404 . S
C396 C399 1.539 . S
C397 C393 1.408 . S
C397 C396 1.404 . S
C397 H409 0.930 . S
C398 C394 1.524 . S
C398 H410 0.956 . S
C398 H411 0.961 . S
C398 H412 0.961 . S
C399 C396 1.539 . S
C399 H413 0.958 . S
C399 H414 0.961 . S
C399 H415 0.960 . S
H400 C384 0.931 . S
H401 C389 0.929 . S
H402 C390 0.960 . S
H403 C390 0.962 . S
H404 C390 0.960 . S
H405 C391 0.961 . S
H406 C391 0.961 . S
H407 C391 0.961 . S
H408 C392 0.931 . S
H409 C397 0.930 . S
H410 C398 0.956 . S
H411 C398 0.961 . S
H412 C398 0.961 . S
H413 C399 0.958 . S
H414 C399 0.961 . S
H415 C399 0.960 . S
C416 C417 1.391 . S
C416 C418 1.394 . S
C416 H432 0.931 . S
C417 C416 1.391 . S
C417 C421 1.376 . S
C418 C416 1.394 . S
C418 C419 1.369 . S
C418 C422 1.531 . S
C419 C418 1.369 . S
C419 C420 1.410 . S
C419 C427 1.503 . S
C420 C419 1.410 . S
C420 C421 1.392 . S
C420 C423 1.511 . S
C421 C417 1.376 . S
C421 C420 1.392 . S
C421 H433 0.929 . S
C422 C418 1.531 . S
C422 H434 0.960 . S
C422 H435 0.962 . S
C422 H436 0.960 . S
C423 C420 1.511 . S
C423 H437 0.961 . S
C423 H438 0.961 . S
C423 H439 0.961 . S
C424 C425 1.370 . S
C424 C426 1.363 . S
C424 H440 0.931 . S
C425 C424 1.370 . S
C425 C429 1.408 . S
C426 C424 1.363 . S
C426 C427 1.370 . S
C426 C430 1.524 . S
C427 C419 1.503 . S
C427 C426 1.370 . S
C427 C428 1.403 . S
C428 C427 1.403 . S
C428 C429 1.404 . S
C428 C431 1.539 . S
C429 C425 1.408 . S
C429 C428 1.404 . S
C429 H441 0.930 . S
C430 C426 1.524 . S
C430 H442 0.956 . S
C430 H443 0.961 . S
C430 H444 0.961 . S
C431 C428 1.539 . S
C431 H445 0.958 . S
C431 H446 0.961 . S
C431 H447 0.960 . S
H432 C416 0.931 . S
H433 C421 0.929 . S
H434 C422 0.960 . S
H435 C422 0.962 . S
H436 C422 0.960 . S
H437 C423 0.961 . S
H438 C423 0.961 . S
H439 C423 0.961 . S
H440 C424 0.931 . S
H441 C429 0.930 . S
H442 C430 0.956 . S
H443 C430 0.961 . S
H444 C430 0.961 . S
H445 C431 0.958 . S
H446 C431 0.961 . S
H447 C431 0.960 . S
C448 C449 1.393 1_455 S
C448 C450 1.394 . S
C448 H464 0.931 . S
C449 C448 1.393 1_655 S
C449 C453 1.373 1_556 S
C450 C448 1.394 . S
C450 C451 1.369 1_556 S
C450 C454 1.531 . S
C451 C450 1.369 1_554 S
C451 C452 1.410 1_455 S
C451 C459 1.503 . S
C452 C451 1.410 1_655 S
C452 C453 1.392 . S
C452 C455 1.511 . S
C453 C449 1.373 1_554 S
C453 C452 1.392 . S
C453 H465 0.929 . S
C454 C450 1.531 . S
C454 H466 0.960 . S
C454 H467 0.962 . S
C454 H468 0.960 . S
C455 C452 1.511 . S
C455 H469 0.961 . S
C455 H470 0.974 . S
C455 H471 0.961 . S
C456 C457 1.370 . S
C456 C458 1.363 . S
C456 H472 0.931 . S
C457 C456 1.370 . S
C457 C461 1.408 1_554 S
C458 C456 1.363 . S
C458 C459 1.370 . S
C458 C462 1.524 . S
C459 C451 1.503 . S
C459 C458 1.370 . S
C459 C460 1.403 1_554 S
C460 C459 1.403 1_556 S
C460 C461 1.404 . S
C460 C463 1.539 . S
C461 C457 1.408 1_556 S
C461 C460 1.404 . S
C461 H473 0.930 . S
C462 C458 1.524 . S
C462 H474 0.956 . S
C462 H475 0.961 . S
C462 H476 0.961 . S
C463 C460 1.539 . S
C463 H477 0.958 . S
C463 H478 0.961 . S
C463 H479 0.958 1_455 S
H464 C448 0.931 . S
H465 C453 0.929 . S
H466 C454 0.960 . S
H467 C454 0.962 . S
H468 C454 0.960 . S
H469 C455 0.961 . S
H470 C455 0.974 . S
H471 C455 0.961 . S
H472 C456 0.931 . S
H473 C461 0.930 . S
H474 C462 0.956 . S
H475 C462 0.961 . S
H476 C462 0.961 . S
H477 C463 0.958 . S
H478 C463 0.961 . S
H479 C463 0.958 1_655 S
C480 C481 1.391 1_656 S
C480 C482 1.394 . S
C480 H496 0.931 . S
C481 C480 1.391 1_454 S
C481 C485 1.376 . S
C482 C480 1.394 . S
C482 C483 1.369 1_556 S
C482 C486 1.531 . S
C483 C482 1.369 1_554 S
C483 C484 1.410 1_655 S
C483 C491 1.503 . S
C484 C483 1.410 1_455 S
C484 C485 1.392 . S
C484 C487 1.511 . S
C485 C481 1.376 . S
C485 C484 1.392 . S
C485 H497 0.929 . S
C486 C482 1.531 . S
C486 H498 0.960 . S
C486 H499 0.962 . S
C486 H500 0.960 . S
C487 C484 1.511 . S
C487 H501 0.961 . S
C487 H502 0.961 1_455 S
C487 H503 0.961 . S
C488 C489 1.352 1_554 S
C488 C490 1.363 . S
C488 H504 0.931 . S
C489 C488 1.352 1_556 S
C489 C493 1.426 . S
C490 C488 1.363 . S
C490 C491 1.370 . S
C490 C494 1.524 . S
C491 C483 1.503 . S
C491 C490 1.370 . S
C491 C492 1.403 1_554 S
C492 C491 1.403 1_556 S
C492 C493 1.404 . S
C492 C495 1.539 . S
C493 C489 1.426 . S
C493 C492 1.404 . S
C493 H505 0.930 . S
C494 C490 1.524 . S
C494 H506 0.956 . S
C494 H507 0.961 . S
C494 H508 0.961 . S
C495 C492 1.539 . S
C495 H509 0.958 . S
C495 H510 0.961 . S
C495 H511 0.960 1_655 S
H496 C480 0.931 . S
H497 C485 0.929 . S
H498 C486 0.960 . S
H499 C486 0.962 . S
H500 C486 0.960 . S
H501 C487 0.961 . S
H502 C487 0.961 1_655 S
H503 C487 0.961 . S
H504 C488 0.931 . S
H505 C493 0.930 . S
H506 C494 0.956 . S
H507 C494 0.961 . S
H508 C494 0.961 . S
H509 C495 0.958 . S
H510 C495 0.961 . S
H511 C495 0.960 1_455 S
C512 C513 1.391 . S
C512 C514 1.394 . S
C512 H528 0.931 . S
C513 C512 1.391 . S
C513 C517 1.376 . S
C514 C512 1.394 . S
C514 C515 1.369 . S
C514 C518 1.531 . S
C515 C514 1.369 . S
C515 C516 1.410 . S
C515 C523 1.503 . S
C516 C515 1.410 . S
C516 C517 1.392 . S
C516 C519 1.511 . S
C517 C513 1.376 . S
C517 C516 1.392 . S
C517 H529 0.929 . S
C518 C514 1.531 . S
C518 H530 0.960 . S
C518 H531 0.962 . S
C518 H532 0.960 . S
C519 C516 1.511 . S
C519 H533 0.961 . S
C519 H534 0.961 . S
C519 H535 0.961 . S
C520 C521 1.370 . S
C520 C522 1.363 . S
C520 H536 0.931 . S
C521 C520 1.370 . S
C521 C525 1.408 . S
C522 C520 1.363 . S
C522 C523 1.370 1_655 S
C522 C526 1.524 1_655 S
C523 C515 1.503 . S
C523 C522 1.370 1_455 S
C523 C524 1.403 1_455 S
C524 C523 1.403 1_655 S
C524 C525 1.404 . S
C524 C527 1.539 1_655 S
C525 C521 1.408 . S
C525 C524 1.404 . S
C525 H537 0.930 . S
C526 C522 1.524 1_455 S
C526 H538 0.956 . S
C526 H539 0.961 . S
C526 H540 0.961 1_455 S
C527 C524 1.539 1_455 S
C527 H541 0.958 . S
C527 H542 0.961 1_455 S
C527 H543 0.960 . S
H528 C512 0.931 . S
H529 C517 0.929 . S
H530 C518 0.960 . S
H531 C518 0.962 . S
H532 C518 0.960 . S
H533 C519 0.961 . S
H534 C519 0.961 . S
H535 C519 0.961 . S
H536 C520 0.931 . S
H537 C525 0.930 . S
H538 C526 0.956 . S
H539 C526 0.961 . S
H540 C526 0.961 1_655 S
H541 C527 0.958 . S
H542 C527 0.961 1_655 S
H543 C527 0.960 . S
C544 C545 1.391 . S
C544 C546 1.394 . S
C544 H560 0.931 . S
C545 C544 1.391 . S
C545 C549 1.376 . S
C546 C544 1.394 . S
C546 C547 1.369 . S
C546 C550 1.531 . S
C547 C546 1.369 . S
C547 C548 1.410 . S
C547 C555 1.503 . S
C548 C547 1.410 . S
C548 C549 1.392 . S
C548 C551 1.511 . S
C549 C545 1.376 . S
C549 C548 1.392 . S
C549 H561 0.929 . S
C550 C546 1.531 . S
C550 H562 0.960 . S
C550 H563 0.962 . S
C550 H564 0.960 . S
C551 C548 1.511 . S
C551 H565 0.961 . S
C551 H566 0.961 . S
C551 H567 0.961 . S
C552 C553 1.370 . S
C552 C554 1.363 . S
C552 H568 0.931 . S
C553 C552 1.370 . S
C553 C557 1.408 . S
C554 C552 1.363 . S
C554 C555 1.370 1_455 S
C554 C558 1.524 1_455 S
C555 C547 1.503 . S
C555 C554 1.370 1_655 S
C555 C556 1.403 1_655 S
C556 C555 1.403 1_455 S
C556 C557 1.404 . S
C556 C559 1.539 1_455 S
C557 C553 1.408 . S
C557 C556 1.404 . S
C557 H569 0.930 . S
C558 C554 1.524 1_655 S
C558 H570 0.956 . S
C558 H571 0.961 . S
C558 H572 0.961 1_655 S
C559 C556 1.539 1_655 S
C559 H573 0.958 . S
C559 H574 0.961 1_655 S
C559 H575 0.960 . S
H560 C544 0.931 . S
H561 C549 0.929 . S
H562 C550 0.960 . S
H563 C550 0.962 . S
H564 C550 0.960 . S
H565 C551 0.961 . S
H566 C551 0.961 . S
H567 C551 0.961 . S
H568 C552 0.931 . S
H569 C557 0.930 . S
H570 C558 0.956 . S
H571 C558 0.961 . S
H572 C558 0.961 1_455 S
H573 C559 0.958 . S
H574 C559 0.961 1_455 S
H575 C559 0.960 . S
C576 C577 1.391 1_455 S
C576 C578 1.394 . S
C576 H592 0.931 . S
C577 C576 1.391 1_655 S
C577 C581 1.376 1_554 S
C578 C576 1.394 . S
C578 C579 1.369 1_455 S
C578 C582 1.531 . S
C579 C578 1.369 1_655 S
C579 C580 1.410 1_554 S
C579 C587 1.503 . S
C580 C579 1.410 1_556 S
C580 C581 1.392 . S
C580 C583 1.511 . S
C581 C577 1.376 1_556 S
C581 C580 1.392 . S
C581 H593 0.929 . S
C582 C578 1.531 . S
C582 H594 0.960 . S
C582 H595 0.962 . S
C582 H596 0.960 . S
C583 C580 1.511 . S
C583 H597 0.961 . S
C583 H598 0.961 . S
C583 H599 0.961 . S
C584 C585 1.370 1_456 S
C584 C586 1.363 . S
C584 H600 0.931 . S
C585 C584 1.370 1_654 S
C585 C589 1.408 . S
C586 C584 1.363 . S
C586 C587 1.371 1_456 S
C586 C590 1.524 . S
C587 C579 1.503 . S
C587 C586 1.371 1_654 S
C587 C588 1.403 . S
C588 C587 1.403 . S
C588 C589 1.404 . S
C588 C591 1.539 . S
C589 C585 1.408 . S
C589 C588 1.404 . S
C589 H601 0.930 . S
C590 C586 1.524 . S
C590 H602 0.956 1_556 S
C590 H603 0.961 . S
C590 H604 0.961 . S
C591 C588 1.539 . S
C591 H605 0.958 . S
C591 H606 0.961 . S
C591 H607 0.960 . S
H592 C576 0.931 . S
H593 C581 0.929 . S
H594 C582 0.960 . S
H595 C582 0.962 . S
H596 C582 0.960 . S
H597 C583 0.961 . S
H598 C583 0.961 . S
H599 C583 0.961 . S
H600 C584 0.931 . S
H601 C589 0.930 . S
H602 C590 0.956 1_554 S
H603 C590 0.961 . S
H604 C590 0.961 . S
H605 C591 0.958 . S
H606 C591 0.961 . S
H607 C591 0.960 . S
C608 C609 1.391 . S
C608 C610 1.394 . S
C608 H624 0.931 . S
C609 C608 1.391 . S
C609 C613 1.376 . S
C610 C608 1.394 . S
C610 C611 1.369 . S
C610 C614 1.531 1_455 S
C611 C610 1.369 . S
C611 C612 1.410 . S
C611 C619 1.503 1_455 S
C612 C611 1.410 . S
C612 C613 1.392 . S
C612 C615 1.511 . S
C613 C609 1.376 . S
C613 C612 1.392 . S
C613 H625 0.929 . S
C614 C610 1.531 1_655 S
C614 H626 0.960 . S
C614 H627 0.962 . S
C614 H628 0.960 . S
C615 C612 1.511 . S
C615 H629 0.961 . S
C615 H630 0.961 . S
C615 H631 0.961 . S
C616 C617 1.370 . S
C616 C618 1.363 . S
C616 H632 0.931 . S
C617 C616 1.370 . S
C617 C621 1.408 . S
C618 C616 1.363 . S
C618 C619 1.370 . S
C618 C622 1.524 . S
C619 C611 1.503 1_655 S
C619 C618 1.370 . S
C619 C620 1.403 . S
C620 C619 1.403 . S
C620 C621 1.404 . S
C620 C623 1.539 . S
C621 C617 1.408 . S
C621 C620 1.404 . S
C621 H633 0.930 . S
C622 C618 1.524 . S
C622 H634 0.956 . S
C622 H635 0.961 1_655 S
C622 H636 0.961 . S
C623 C620 1.539 . S
C623 H637 0.958 . S
C623 H638 0.961 1_655 S
C623 H639 0.960 1_655 S
H624 C608 0.931 . S
H625 C613 0.929 . S
H626 C614 0.960 . S
H627 C614 0.962 . S
H628 C614 0.960 . S
H629 C615 0.961 . S
H630 C615 0.961 . S
H631 C615 0.961 . S
H632 C616 0.931 . S
H633 C621 0.930 . S
H634 C622 0.956 . S
H635 C622 0.961 1_455 S
H636 C622 0.961 . S
H637 C623 0.958 . S
H638 C623 0.961 1_455 S
H639 C623 0.960 1_455 S
C640 C641 1.391 . S
C640 C642 1.394 . S
C640 H656 0.931 . S
C641 C640 1.391 . S
C641 C645 1.376 1_554 S
C642 C640 1.394 . S
C642 C643 1.369 . S
C642 C646 1.531 . S
C643 C642 1.369 . S
C643 C644 1.410 1_554 S
C643 C651 1.503 1_565 S
C644 C643 1.410 1_556 S
C644 C645 1.392 . S
C644 C647 1.511 . S
C645 C641 1.376 1_556 S
C645 C644 1.392 . S
C645 H657 0.929 . S
C646 C642 1.531 . S
C646 H658 0.918 1_565 S
C646 H659 0.962 . S
C646 H660 0.960 . S
C647 C644 1.511 . S
C647 H661 0.961 . S
C647 H662 0.933 1_565 S
C647 H663 0.961 . S
C648 C649 1.370 1_556 S
C648 C650 1.363 . S
C648 H664 0.931 . S
C649 C648 1.370 1_554 S
C649 C653 1.408 . S
C650 C648 1.363 . S
C650 C651 1.370 1_556 S
C650 C654 1.524 . S
C651 C643 1.503 1_545 S
C651 C650 1.370 1_554 S
C651 C652 1.403 . S
C652 C651 1.403 . S
C652 C653 1.404 . S
C652 C655 1.539 . S
C653 C649 1.408 . S
C653 C652 1.404 . S
C653 H665 0.930 . S
C654 C650 1.524 . S
C654 H666 0.956 . S
C654 H667 0.961 . S
C654 H668 0.961 . S
C655 C652 1.539 . S
C655 H669 0.958 . S
C655 H670 0.961 . S
C655 H671 0.960 1_545 S
H656 C640 0.931 . S
H657 C645 0.929 . S
H658 C646 0.918 1_545 S
H659 C646 0.962 . S
H660 C646 0.960 . S
H661 C647 0.961 . S
H662 C647 0.933 1_545 S
H663 C647 0.961 . S
H664 C648 0.931 . S
H665 C653 0.930 . S
H666 C654 0.956 . S
H667 C654 0.961 . S
H668 C654 0.961 . S
H669 C655 0.958 . S
H670 C655 0.961 . S
H671 C655 0.960 1_565 S
C672 C673 1.391 . S
C672 C674 1.394 . S
C672 H688 0.931 . S
C673 C672 1.391 . S
C673 C677 1.376 . S
C674 C672 1.394 . S
C674 C675 1.369 . S
C674 C678 1.531 1_545 S
C675 C674 1.369 . S
C675 C676 1.410 . S
C675 C683 1.503 1_545 S
C676 C675 1.410 . S
C676 C677 1.392 . S
C676 C679 1.511 . S
C677 C673 1.376 . S
C677 C676 1.392 . S
C677 H689 0.929 . S
C678 C674 1.531 1_565 S
C678 H690 0.960 . S
C678 H691 0.962 . S
C678 H692 0.960 . S
C679 C676 1.511 . S
C679 H693 0.961 . S
C679 H694 0.961 . S
C679 H695 0.961 . S
C680 C681 1.370 . S
C680 C682 1.363 . S
C680 H696 0.931 . S
C681 C680 1.370 . S
C681 C685 1.408 . S
C682 C680 1.363 . S
C682 C683 1.370 . S
C682 C686 1.524 . S
C683 C675 1.503 1_565 S
C683 C682 1.370 . S
C683 C684 1.403 . S
C684 C683 1.403 . S
C684 C685 1.404 . S
C684 C687 1.539 . S
C685 C681 1.408 . S
C685 C684 1.404 . S
C685 H697 0.930 . S
C686 C682 1.524 . S
C686 H698 0.956 . S
C686 H699 0.961 1_565 S
C686 H700 0.961 . S
C687 C684 1.539 . S
C687 H701 0.958 . S
C687 H702 0.961 . S
C687 H703 0.960 . S
H688 C672 0.931 . S
H689 C677 0.929 . S
H690 C678 0.960 . S
H691 C678 0.962 . S
H692 C678 0.960 . S
H693 C679 0.961 . S
H694 C679 0.961 . S
H695 C679 0.961 . S
H696 C680 0.931 . S
H697 C685 0.930 . S
H698 C686 0.956 . S
H699 C686 0.961 1_545 S
H700 C686 0.961 . S
H701 C687 0.958 . S
H702 C687 0.961 . S
H703 C687 0.960 . S
C704 C705 1.391 . S
C704 C706 1.394 . S
C704 H720 0.931 . S
C705 C704 1.391 . S
C705 C709 1.376 1_554 S
C706 C704 1.394 . S
C706 C707 1.369 . S
C706 C710 1.531 . S
C707 C706 1.369 . S
C707 C708 1.410 1_554 S
C707 C715 1.503 . S
C708 C707 1.410 1_556 S
C708 C709 1.392 . S
C708 C711 1.511 . S
C709 C705 1.376 1_556 S
C709 C708 1.392 . S
C709 H721 0.929 . S
C710 C706 1.531 . S
C710 H722 0.960 . S
C710 H723 0.962 . S
C710 H724 0.960 . S
C711 C708 1.511 . S
C711 H725 0.961 . S
C711 H726 0.961 . S
C711 H727 0.961 . S
C712 C713 1.370 1_556 S
C712 C714 1.363 . S
C712 H728 0.931 . S
C713 C712 1.370 1_554 S
C713 C717 1.408 . S
C714 C712 1.363 . S
C714 C715 1.370 1_556 S
C714 C718 1.524 . S
C715 C707 1.503 . S
C715 C714 1.370 1_554 S
C715 C716 1.403 . S
C716 C715 1.403 . S
C716 C717 1.404 . S
C716 C719 1.539 . S
C717 C713 1.408 . S
C717 C716 1.404 . S
C717 H729 0.930 . S
C718 C714 1.524 . S
C718 H730 0.956 . S
C718 H731 0.961 . S
C718 H732 0.961 . S
C719 C716 1.539 . S
C719 H733 0.958 . S
C719 H734 0.961 . S
C719 H735 0.960 . S
H720 C704 0.931 . S
H721 C709 0.929 . S
H722 C710 0.960 . S
H723 C710 0.962 . S
H724 C710 0.960 . S
H725 C711 0.961 . S
H726 C711 0.961 . S
H727 C711 0.961 . S
H728 C712 0.931 . S
H729 C717 0.930 . S
H730 C718 0.956 . S
H731 C718 0.961 . S
H732 C718 0.961 . S
H733 C719 0.958 . S
H734 C719 0.961 . S
H735 C719 0.960 . S
C736 C737 1.391 . S
C736 C738 1.394 . S
C736 H752 0.931 . S
C737 C736 1.391 . S
C737 C741 1.376 1_554 S
C738 C736 1.394 . S
C738 C739 1.369 . S
C738 C742 1.531 . S
C739 C738 1.369 . S
C739 C740 1.410 1_554 S
C739 C747 1.503 . S
C740 C739 1.410 1_556 S
C740 C741 1.392 . S
C740 C743 1.511 . S
C741 C737 1.376 1_556 S
C741 C740 1.392 . S
C741 H753 0.929 . S
C742 C738 1.531 . S
C742 H754 0.960 . S
C742 H755 0.962 . S
C742 H756 0.960 . S
C743 C740 1.511 . S
C743 H757 0.961 . S
C743 H758 0.961 . S
C743 H759 0.961 . S
C744 C745 1.370 . S
C744 C746 1.363 . S
C744 H760 0.931 . S
C745 C744 1.370 . S
C745 C749 1.408 . S
C746 C744 1.363 . S
C746 C747 1.370 . S
C746 C750 1.524 . S
C747 C739 1.503 . S
C747 C746 1.370 . S
C747 C748 1.403 . S
C748 C747 1.403 . S
C748 C749 1.404 . S
C748 C751 1.539 . S
C749 C745 1.408 . S
C749 C748 1.404 . S
C749 H761 0.930 . S
C750 C746 1.524 . S
C750 H762 0.956 . S
C750 H763 0.961 1_554 S
C750 H764 0.961 . S
C751 C748 1.539 . S
C751 H765 0.958 . S
C751 H766 0.961 1_554 S
C751 H767 0.960 1_554 S
H752 C736 0.931 . S
H753 C741 0.929 . S
H754 C742 0.960 . S
H755 C742 0.962 . S
H756 C742 0.960 . S
H757 C743 0.961 . S
H758 C743 0.961 . S
H759 C743 0.961 . S
H760 C744 0.931 . S
H761 C749 0.930 . S
H762 C750 0.956 . S
H763 C750 0.961 1_556 S
H764 C750 0.961 . S
H765 C751 0.958 . S
H766 C751 0.961 1_556 S
H767 C751 0.960 1_556 S
C768 C769 1.391 . S
C768 C770 1.394 . S
C768 H784 0.931 . S
C769 C768 1.391 . S
C769 C773 1.376 . S
C770 C768 1.394 . S
C770 C771 1.369 . S
C770 C774 1.531 . S
C771 C770 1.369 . S
C771 C772 1.410 . S
C771 C779 1.503 . S
C772 C771 1.410 . S
C772 C773 1.392 . S
C772 C775 1.511 . S
C773 C769 1.376 . S
C773 C772 1.392 . S
C773 H785 0.929 . S
C774 C770 1.531 . S
C774 H786 0.960 . S
C774 H787 0.962 . S
C774 H788 0.960 . S
C775 C772 1.511 . S
C775 H789 0.961 . S
C775 H790 0.961 . S
C775 H791 0.961 . S
C776 C777 1.370 . S
C776 C778 1.363 . S
C776 H792 0.931 . S
C777 C776 1.370 . S
C777 C781 1.408 . S
C778 C776 1.363 . S
C778 C779 1.370 . S
C778 C782 1.524 . S
C779 C771 1.503 . S
C779 C778 1.370 . S
C779 C780 1.403 . S
C780 C779 1.403 . S
C780 C781 1.404 . S
C780 C783 1.539 . S
C781 C777 1.408 . S
C781 C780 1.404 . S
C781 H793 0.930 . S
C782 C778 1.524 . S
C782 H794 0.956 . S
C782 H795 0.961 . S
C782 H796 0.961 . S
C783 C780 1.539 . S
C783 H797 0.958 . S
C783 H798 0.961 . S
C783 H799 0.960 . S
H784 C768 0.931 . S
H785 C773 0.929 . S
H786 C774 0.960 . S
H787 C774 0.962 . S
H788 C774 0.960 . S
H789 C775 0.961 . S
H790 C775 0.961 . S
H791 C775 0.961 . S
H792 C776 0.931 . S
H793 C781 0.930 . S
H794 C782 0.956 . S
H795 C782 0.961 . S
H796 C782 0.961 . S
H797 C783 0.958 . S
H798 C783 0.961 . S
H799 C783 0.960 . S
C800 C801 1.391 . S
C800 C802 1.394 . S
C800 H816 0.931 . S
C801 C800 1.391 . S
C801 C805 1.376 . S
C802 C800 1.394 . S
C802 C803 1.369 . S
C802 C806 1.531 . S
C803 C802 1.369 . S
C803 C804 1.410 . S
C803 C811 1.503 . S
C804 C803 1.410 . S
C804 C805 1.392 . S
C804 C807 1.511 . S
C805 C801 1.376 . S
C805 C804 1.392 . S
C805 H817 0.929 . S
C806 C802 1.531 . S
C806 H818 0.960 . S
C806 H819 0.962 . S
C806 H820 0.960 . S
C807 C804 1.511 . S
C807 H821 0.961 . S
C807 H822 0.961 . S
C807 H823 0.961 . S
C808 C809 1.370 . S
C808 C810 1.363 . S
C808 H824 0.931 . S
C809 C808 1.370 . S
C809 C813 1.408 . S
C810 C808 1.363 . S
C810 C811 1.370 . S
C810 C814 1.524 . S
C811 C803 1.503 . S
C811 C810 1.370 . S
C811 C812 1.403 . S
C812 C811 1.403 . S
C812 C813 1.404 . S
C812 C815 1.539 . S
C813 C809 1.408 . S
C813 C812 1.404 . S
C813 H825 0.930 . S
C814 C810 1.524 . S
C814 H826 0.956 . S
C814 H827 0.961 . S
C814 H828 0.961 . S
C815 C812 1.539 . S
C815 H829 0.958 . S
C815 H830 0.961 . S
C815 H831 0.960 . S
H816 C800 0.931 . S
H817 C805 0.929 . S
H818 C806 0.960 . S
H819 C806 0.962 . S
H820 C806 0.960 . S
H821 C807 0.961 . S
H822 C807 0.961 . S
H823 C807 0.961 . S
H824 C808 0.931 . S
H825 C813 0.930 . S
H826 C814 0.956 . S
H827 C814 0.961 . S
H828 C814 0.961 . S
H829 C815 0.958 . S
H830 C815 0.961 . S
H831 C815 0.960 . S
C832 C833 1.391 . S
C832 C834 1.394 . S
C832 H848 0.931 . S
C833 C832 1.391 . S
C833 C837 1.376 . S
C834 C832 1.394 . S
C834 C835 1.369 . S
C834 C838 1.531 . S
C835 C834 1.369 . S
C835 C836 1.410 . S
C835 C843 1.503 . S
C836 C835 1.410 . S
C836 C837 1.392 . S
C836 C839 1.511 . S
C837 C833 1.376 . S
C837 C836 1.392 . S
C837 H849 0.929 . S
C838 C834 1.531 . S
C838 H850 0.960 . S
C838 H851 0.962 . S
C838 H852 0.960 . S
C839 C836 1.511 . S
C839 H853 0.961 1_455 S
C839 H854 0.961 1_455 S
C839 H855 0.961 . S
C840 C841 1.370 . S
C840 C842 1.363 . S
C840 H856 0.931 . S
C841 C840 1.370 . S
C841 C845 1.408 1_655 S
C842 C840 1.363 . S
C842 C843 1.370 1_655 S
C842 C846 1.524 . S
C843 C835 1.503 . S
C843 C842 1.370 1_455 S
C843 C844 1.403 . S
C844 C843 1.403 . S
C844 C845 1.404 . S
C844 C847 1.539 . S
C845 C841 1.408 1_455 S
C845 C844 1.404 . S
C845 H857 0.930 . S
C846 C842 1.524 . S
C846 H858 0.956 . S
C846 H859 0.961 . S
C846 H860 0.961 . S
C847 C844 1.539 . S
C847 H861 0.958 . S
C847 H862 0.961 . S
C847 H863 0.960 . S
H848 C832 0.931 . S
H849 C837 0.929 . S
H850 C838 0.960 . S
H851 C838 0.962 . S
H852 C838 0.960 . S
H853 C839 0.961 1_655 S
H854 C839 0.961 1_655 S
H855 C839 0.961 . S
H856 C840 0.931 . S
H857 C845 0.930 . S
H858 C846 0.956 . S
H859 C846 0.961 . S
H860 C846 0.961 . S
H861 C847 0.958 . S
H862 C847 0.961 . S
H863 C847 0.960 . S
C864 C865 1.391 . S
C864 C866 1.394 . S
C864 H880 0.931 . S
C865 C864 1.391 . S
C865 C869 1.376 . S
C866 C864 1.394 . S
C866 C867 1.369 . S
C866 C870 1.531 . S
C867 C866 1.369 . S
C867 C868 1.410 1_655 S
C867 C875 1.503 . S
C868 C867 1.410 1_455 S
C868 C869 1.392 1_455 S
C868 C871 1.511 . S
C869 C865 1.376 . S
C869 C868 1.392 1_655 S
C869 H881 0.929 1_655 S
C870 C866 1.531 . S
C870 H882 0.960 . S
C870 H883 0.962 . S
C870 H884 0.960 . S
C871 C868 1.511 . S
C871 H885 0.961 . S
C871 H886 0.961 . S
C871 H887 0.961 . S
C872 C873 1.370 . S
C872 C874 1.363 1_455 S
C872 H888 0.931 . S
C873 C872 1.370 . S
C873 C877 1.408 . S
C874 C872 1.363 1_655 S
C874 C875 1.370 . S
C874 C878 1.524 . S
C875 C867 1.503 . S
C875 C874 1.370 . S
C875 C876 1.403 1_655 S
C876 C875 1.403 1_455 S
C876 C877 1.404 . S
C876 C879 1.539 . S
C877 C873 1.408 . S
C877 C876 1.404 . S
C877 H889 0.930 . S
C878 C874 1.524 . S
C878 H890 0.956 . S
C878 H891 0.961 . S
C878 H892 0.961 . S
C879 C876 1.539 . S
C879 H893 0.958 1_455 S
C879 H894 0.961 . S
C879 H895 0.960 . S
H880 C864 0.931 . S
H881 C869 0.929 1_455 S
H882 C870 0.960 . S
H883 C870 0.962 . S
H884 C870 0.960 . S
H885 C871 0.961 . S
H886 C871 0.961 . S
H887 C871 0.961 . S
H888 C872 0.931 . S
H889 C877 0.930 . S
H890 C878 0.956 . S
H891 C878 0.961 . S
H892 C878 0.961 . S
H893 C879 0.958 1_655 S
H894 C879 0.961 . S
H895 C879 0.960 . S
C896 C897 1.391 . S
C896 C898 1.394 . S
C896 H912 0.931 . S
C897 C896 1.391 . S
C897 C901 1.376 . S
C898 C896 1.394 . S
C898 C899 1.369 . S
C898 C902 1.531 . S
C899 C898 1.369 . S
C899 C900 1.410 . S
C899 C907 1.503 . S
C900 C899 1.410 . S
C900 C901 1.392 . S
C900 C903 1.511 . S
C901 C897 1.376 . S
C901 C900 1.392 . S
C901 H913 0.929 . S
C902 C898 1.531 . S
C902 H914 0.960 . S
C902 H915 0.962 . S
C902 H916 0.960 . S
C903 C900 1.511 . S
C903 H917 0.961 . S
C903 H918 0.961 1_655 S
C903 H919 0.961 . S
C904 C905 1.370 . S
C904 C906 1.363 . S
C904 H920 0.931 . S
C905 C904 1.370 . S
C905 C909 1.408 1_455 S
C906 C904 1.363 . S
C906 C907 1.370 1_455 S
C906 C910 1.524 . S
C907 C899 1.503 . S
C907 C906 1.370 1_655 S
C907 C908 1.403 . S
C908 C907 1.403 . S
C908 C909 1.404 . S
C908 C911 1.539 . S
C909 C905 1.408 1_655 S
C909 C908 1.404 . S
C909 H921 0.930 . S
C910 C906 1.524 . S
C910 H922 0.956 . S
C910 H923 0.961 . S
C910 H924 0.961 . S
C911 C908 1.539 . S
C911 H925 0.958 . S
C911 H926 0.961 . S
C911 H927 0.960 . S
H912 C896 0.931 . S
H913 C901 0.929 . S
H914 C902 0.960 . S
H915 C902 0.962 . S
H916 C902 0.960 . S
H917 C903 0.961 . S
H918 C903 0.961 1_455 S
H919 C903 0.961 . S
H920 C904 0.931 . S
H921 C909 0.930 . S
H922 C910 0.956 . S
H923 C910 0.961 . S
H924 C910 0.961 . S
H925 C911 0.958 . S
H926 C911 0.961 . S
H927 C911 0.960 . S
C928 C929 1.391 1_455 S
C928 C930 1.394 . S
C928 H944 0.931 . S
C929 C928 1.391 1_655 S
C929 C933 1.376 . S
C930 C928 1.394 . S
C930 C931 1.369 . S
C930 C934 1.531 . S
C931 C930 1.369 . S
C931 C932 1.410 1_455 S
C931 C939 1.503 . S
C932 C931 1.410 1_655 S
C932 C933 1.392 . S
C932 C935 1.511 . S
C933 C929 1.376 . S
C933 C932 1.392 . S
C933 H945 0.929 . S
C934 C930 1.531 . S
C934 H946 0.960 . S
C934 H947 0.962 . S
C934 H948 0.960 . S
C935 C932 1.511 . S
C935 H949 0.961 . S
C935 H950 0.961 . S
C935 H951 0.961 . S
C936 C937 1.370 . S
C936 C938 1.363 . S
C936 H952 0.931 1_455 S
C937 C936 1.370 . S
C937 C941 1.408 . S
C938 C936 1.363 . S
C938 C939 1.370 . S
C938 C942 1.524 1_455 S
C939 C931 1.503 . S
C939 C938 1.370 . S
C939 C940 1.403 . S
C940 C939 1.403 . S
C940 C941 1.404 . S
C940 C943 1.539 . S
C941 C937 1.408 . S
C941 C940 1.404 . S
C941 H953 0.930 . S
C942 C938 1.524 1_655 S
C942 H954 0.956 . S
C942 H955 0.961 . S
C942 H956 0.961 . S
C943 C940 1.539 . S
C943 H957 0.958 . S
C943 H958 0.961 . S
C943 H959 0.960 . S
H944 C928 0.931 . S
H945 C933 0.929 . S
H946 C934 0.960 . S
H947 C934 0.962 . S
H948 C934 0.960 . S
H949 C935 0.961 . S
H950 C935 0.961 . S
H951 C935 0.961 . S
H952 C936 0.931 1_655 S
H953 C941 0.930 . S
H954 C942 0.956 . S
H955 C942 0.961 . S
H956 C942 0.961 . S
H957 C943 0.958 . S
H958 C943 0.961 . S
H959 C943 0.960 . S
C960 C961 1.391 . S
C960 C962 1.394 . S
C960 H976 0.931 . S
C961 C960 1.391 . S
C961 C965 1.376 . S
C962 C960 1.394 . S
C962 C963 1.369 . S
C962 C966 1.531 . S
C963 C962 1.369 . S
C963 C964 1.410 . S
C963 C971 1.503 . S
C964 C963 1.410 . S
C964 C965 1.392 . S
C964 C967 1.511 . S
C965 C961 1.376 . S
C965 C964 1.392 . S
C965 H977 0.929 . S
C966 C962 1.531 . S
C966 H978 0.960 . S
C966 H979 0.962 . S
C966 H980 0.960 . S
C967 C964 1.511 . S
C967 H981 0.961 . S
C967 H982 0.961 . S
C967 H983 0.961 . S
C968 C969 1.370 . S
C968 C970 1.363 . S
C968 H984 0.931 . S
C969 C968 1.370 . S
C969 C973 1.408 . S
C970 C968 1.363 . S
C970 C971 1.370 . S
C970 C974 1.524 . S
C971 C963 1.503 . S
C971 C970 1.370 . S
C971 C972 1.403 . S
C972 C971 1.403 . S
C972 C973 1.404 . S
C972 C975 1.539 . S
C973 C969 1.408 . S
C973 C972 1.404 . S
C973 H985 0.930 . S
C974 C970 1.524 . S
C974 H986 0.956 . S
C974 H987 0.961 . S
C974 H988 0.961 . S
C975 C972 1.539 . S
C975 H989 0.958 . S
C975 H990 0.961 . S
C975 H991 0.960 . S
H976 C960 0.931 . S
H977 C965 0.929 . S
H978 C966 0.960 . S
H979 C966 0.962 . S
H980 C966 0.960 . S
H981 C967 0.961 . S
H982 C967 0.961 . S
H983 C967 0.961 . S
H984 C968 0.931 . S
H985 C973 0.930 . S
H986 C974 0.956 . S
H987 C974 0.961 . S
H988 C974 0.961 . S
H989 C975 0.958 . S
H990 C975 0.961 . S
H991 C975 0.960 . S
C992 C993 1.391 . S
C992 C994 1.394 . S
C992 H1008 0.931 . S
C993 C992 1.391 . S
C993 C997 1.376 . S
C994 C992 1.394 . S
C994 C995 1.369 . S
C994 C998 1.531 . S
C995 C994 1.369 . S
C995 C996 1.410 . S
C995 C1003 1.503 . S
C996 C995 1.410 . S
C996 C997 1.392 . S
C996 C999 1.511 . S
C997 C993 1.376 . S
C997 C996 1.392 . S
C997 H1009 0.929 . S
C998 C994 1.531 . S
C998 H1010 0.960 . S
C998 H1011 0.962 . S
C998 H1012 0.960 . S
C999 C996 1.511 . S
C999 H1013 0.961 . S
C999 H1014 0.961 . S
C999 H1015 0.961 . S
C1000 C1001 1.370 . S
C1000 C1002 1.363 . S
C1000 H1016 0.931 . S
C1001 C1000 1.370 . S
C1001 C1005 1.408 . S
C1002 C1000 1.363 . S
C1002 C1003 1.370 . S
C1002 C1006 1.524 . S
C1003 C995 1.503 . S
C1003 C1002 1.370 . S
C1003 C1004 1.403 . S
C1004 C1003 1.403 . S
C1004 C1005 1.404 . S
C1004 C1007 1.539 . S
C1005 C1001 1.408 . S
C1005 C1004 1.404 . S
C1005 H1017 0.930 . S
C1006 C1002 1.524 . S
C1006 H1018 0.956 . S
C1006 H1019 0.961 . S
C1006 H1020 0.961 . S
C1007 C1004 1.539 . S
C1007 H1021 0.958 . S
C1007 H1022 0.961 . S
C1007 H1023 0.960 . S
H1008 C992 0.931 . S
H1009 C997 0.929 . S
H1010 C998 0.960 . S
H1011 C998 0.962 . S
H1012 C998 0.960 . S
H1013 C999 0.961 . S
H1014 C999 0.961 . S
H1015 C999 0.961 . S
H1016 C1000 0.931 . S
H1017 C1005 0.930 . S
H1018 C1006 0.956 . S
H1019 C1006 0.961 . S
H1020 C1006 0.961 . S
H1021 C1007 0.958 . S
H1022 C1007 0.961 . S
H1023 C1007 0.960 . S
C1024 C1025 1.391 . S
C1024 C1026 1.394 . S
C1024 H1040 0.931 . S
C1025 C1024 1.391 . S
C1025 C1029 1.376 . S
C1026 C1024 1.394 . S
C1026 C1027 1.369 . S
C1026 C1030 1.531 . S
C1027 C1026 1.369 . S
C1027 C1028 1.410 . S
C1027 C1035 1.503 . S
C1028 C1027 1.410 . S
C1028 C1029 1.392 . S
C1028 C1031 1.511 . S
C1029 C1025 1.376 . S
C1029 C1028 1.392 . S
C1029 H1041 0.929 . S
C1030 C1026 1.531 . S
C1030 H1042 0.960 . S
C1030 H1043 0.962 . S
C1030 H1044 0.960 . S
C1031 C1028 1.511 . S
C1031 H1045 0.961 . S
C1031 H1046 0.961 . S
C1031 H1047 0.961 . S
C1032 C1033 1.370 . S
C1032 C1034 1.363 . S
C1032 H1048 0.931 . S
C1033 C1032 1.370 . S
C1033 C1037 1.408 . S
C1034 C1032 1.363 . S
C1034 C1035 1.370 . S
C1034 C1038 1.524 . S
C1035 C1027 1.503 . S
C1035 C1034 1.370 . S
C1035 C1036 1.403 . S
C1036 C1035 1.403 . S
C1036 C1037 1.404 . S
C1036 C1039 1.539 . S
C1037 C1033 1.408 . S
C1037 C1036 1.404 . S
C1037 H1049 0.930 . S
C1038 C1034 1.524 . S
C1038 H1050 0.956 . S
C1038 H1051 0.961 . S
C1038 H1052 0.961 . S
C1039 C1036 1.539 . S
C1039 H1053 0.958 . S
C1039 H1054 0.961 . S
C1039 H1055 0.960 . S
H1040 C1024 0.931 . S
H1041 C1029 0.929 . S
H1042 C1030 0.960 . S
H1043 C1030 0.962 . S
H1044 C1030 0.960 . S
H1045 C1031 0.961 . S
H1046 C1031 0.961 . S
H1047 C1031 0.961 . S
H1048 C1032 0.931 . S
H1049 C1037 0.930 . S
H1050 C1038 0.956 . S
H1051 C1038 0.961 . S
H1052 C1038 0.961 . S
H1053 C1039 0.958 . S
H1054 C1039 0.961 . S
H1055 C1039 0.960 . S
C1056 C1057 1.391 . S
C1056 C1058 1.394 . S
C1056 H1072 0.931 . S
C1057 C1056 1.391 . S
C1057 C1061 1.376 . S
C1058 C1056 1.394 . S
C1058 C1059 1.369 . S
C1058 C1062 1.531 . S
C1059 C1058 1.369 . S
C1059 C1060 1.410 . S
C1059 C1067 1.503 . S
C1060 C1059 1.410 . S
C1060 C1061 1.392 . S
C1060 C1063 1.511 . S
C1061 C1057 1.376 . S
C1061 C1060 1.392 . S
C1061 H1073 0.929 . S
C1062 C1058 1.531 . S
C1062 H1074 0.960 . S
C1062 H1075 0.962 . S
C1062 H1076 0.960 . S
C1063 C1060 1.511 . S
C1063 H1077 0.961 . S
C1063 H1078 0.961 . S
C1063 H1079 0.961 . S
C1064 C1065 1.370 . S
C1064 C1066 1.363 . S
C1064 H1080 0.931 . S
C1065 C1064 1.370 . S
C1065 C1069 1.408 . S
C1066 C1064 1.363 . S
C1066 C1067 1.370 . S
C1066 C1070 1.524 . S
C1067 C1059 1.503 . S
C1067 C1066 1.370 . S
C1067 C1068 1.403 . S
C1068 C1067 1.403 . S
C1068 C1069 1.404 . S
C1068 C1071 1.539 . S
C1069 C1065 1.408 . S
C1069 C1068 1.404 . S
C1069 H1081 0.930 . S
C1070 C1066 1.524 . S
C1070 H1082 0.956 . S
C1070 H1083 0.961 . S
C1070 H1084 0.961 . S
C1071 C1068 1.539 . S
C1071 H1085 0.958 . S
C1071 H1086 0.961 . S
C1071 H1087 0.960 . S
H1072 C1056 0.931 . S
H1073 C1061 0.929 . S
H1074 C1062 0.960 . S
H1075 C1062 0.962 . S
H1076 C1062 0.960 . S
H1077 C1063 0.961 . S
H1078 C1063 0.961 . S
H1079 C1063 0.961 . S
H1080 C1064 0.931 . S
H1081 C1069 0.930 . S
H1082 C1070 0.956 . S
H1083 C1070 0.961 . S
H1084 C1070 0.961 . S
H1085 C1071 0.958 . S
H1086 C1071 0.961 . S
H1087 C1071 0.960 . S
C321 C15 0.600 . S
C329 C6 0.752 . S
C353 C55 0.703 . S
C361 C46 0.703 . S
C385 C99 5.048 . S
C393 C90 5.048 . S
C417 C139 5.048 . S
C425 C130 5.048 . S
C449 C175 0.655 1_556 S
C457 C166 0.736 . S
C481 C206 0.632 . S
C489 C215 0.739 1_556 S
C513 C259 5.040 . S
C521 C250 5.052 . S
C545 C290 5.038 . S
C553 C299 5.052 . S
C577 C59 4.808 . S
C585 C10 4.830 1_655 S
C609 C126 0.800 . S
C617 C95 0.740 . S
C641 C170 4.813 . S
C649 C219 4.829 . S
C673 C255 0.803 . S
C681 C286 0.752 . S
C705 C19 4.311 . S
C713 C210 4.329 . S
C737 C179 4.312 . S
C745 C50 4.329 . S
C769 C86 0.457 . S
C777 C295 0.381 . S
C801 C135 0.442 . S
C809 C246 0.384 . S
C833 C18 1.678 . S
C841 C129 1.635 . S
C865 C58 1.494 . S
C873 C89 1.565 . S
C897 C49 1.685 . S
C905 C98 1.645 . S
C929 C138 1.545 . S
C937 C9 1.500 . S
C961 C178 1.689 . S
C969 C289 1.644 . S
C993 C218 1.469 . S
C1001 C249 1.565 . S
C1025 C209 1.676 . S
C1033 C258 1.630 . S
C1057 C298 1.515 . S
C1065 C169 1.487 . S
