# Generated by pormake.
# Topology wir, (6)-cn, num edge types: 1
# Building blocks:
#     Node 0, Type 0, BuildingBlock: BETFEN_clean_sbu_0, # of connection points: 6
#     Node 1, Type 0, BuildingBlock: BETFEN_clean_sbu_0, # of connection points: 6
#     Node 2, Type 0, BuildingBlock: BETFEN_clean_sbu_0, # of connection points: 6
#     Node 3, Type 0, BuildingBlock: BETFEN_clean_sbu_0, # of connection points: 6
#     Node 4, Type 0, BuildingBlock: BETFEN_clean_sbu_0, # of connection points: 6
#     Node 5, Type 0, BuildingBlock: BETFEN_clean_sbu_0, # of connection points: 6
#     Node 6, Type 0, BuildingBlock: BETFEN_clean_sbu_0, # of connection points: 6
#     Node 7, Type 0, BuildingBlock: BETFEN_clean_sbu_0, # of connection points: 6
#     Node 8, Type 0, BuildingBlock: BETFEN_clean_sbu_0, # of connection points: 6
#     Node 9, Type 0, BuildingBlock: BETFEN_clean_sbu_0, # of connection points: 6
#     Node 10, Type 0, BuildingBlock: BETFEN_clean_sbu_0, # of connection points: 6
#     Node 11, Type 0, BuildingBlock: BETFEN_clean_sbu_0, # of connection points: 6
#     Node 12, Type 0, BuildingBlock: BETFEN_clean_sbu_0, # of connection points: 6
#     Node 13, Type 0, BuildingBlock: BETFEN_clean_sbu_0, # of connection points: 6
#     Node 14, Type 0, BuildingBlock: BETFEN_clean_sbu_0, # of connection points: 6
#     Node 15, Type 0, BuildingBlock: BETFEN_clean_sbu_0, # of connection points: 6
#     Node 16, Type 0, BuildingBlock: BETFEN_clean_sbu_0, # of connection points: 6
#     Node 17, Type 0, BuildingBlock: BETFEN_clean_sbu_0, # of connection points: 6
#     Node 18, Type 0, BuildingBlock: BETFEN_clean_sbu_0, # of connection points: 6
#     Node 19, Type 0, BuildingBlock: BETFEN_clean_sbu_0, # of connection points: 6
#     Node 20, Type 0, BuildingBlock: BETFEN_clean_sbu_0, # of connection points: 6
#     Node 21, Type 0, BuildingBlock: BETFEN_clean_sbu_0, # of connection points: 6
#     Node 22, Type 0, BuildingBlock: BETFEN_clean_sbu_0, # of connection points: 6
#     Node 23, Type 0, BuildingBlock: BETFEN_clean_sbu_0, # of connection points: 6
#     Node 24, Type 0, BuildingBlock: BETFEN_clean_sbu_0, # of connection points: 6
#     Node 25, Type 0, BuildingBlock: BETFEN_clean_sbu_0, # of connection points: 6
#     Node 26, Type 0, BuildingBlock: BETFEN_clean_sbu_0, # of connection points: 6
#     Node 27, Type 0, BuildingBlock: BETFEN_clean_sbu_0, # of connection points: 6
#     Node 28, Type 0, BuildingBlock: BETFEN_clean_sbu_0, # of connection points: 6
#     Node 29, Type 0, BuildingBlock: BETFEN_clean_sbu_0, # of connection points: 6
#     Node 30, Type 0, BuildingBlock: BETFEN_clean_sbu_0, # of connection points: 6
#     Node 31, Type 0, BuildingBlock: BETFEN_clean_sbu_0, # of connection points: 6
#     Edge 32, Type (0, 0), BuildingBlock: UVAHIK_clean_linker_0, # of connection points: 2
#     Edge 33, Type (0, 0), BuildingBlock: UVAHIK_clean_linker_0, # of connection points: 2
#     Edge 34, Type (0, 0), BuildingBlock: UVAHIK_clean_linker_0, # of connection points: 2
#     Edge 35, Type (0, 0), BuildingBlock: UVAHIK_clean_linker_0, # of connection points: 2
#     Edge 36, Type (0, 0), BuildingBlock: UVAHIK_clean_linker_0, # of connection points: 2
#     Edge 37, Type (0, 0), BuildingBlock: UVAHIK_clean_linker_0, # of connection points: 2
#     Edge 38, Type (0, 0), BuildingBlock: UVAHIK_clean_linker_0, # of connection points: 2
#     Edge 39, Type (0, 0), BuildingBlock: UVAHIK_clean_linker_0, # of connection points: 2
#     Edge 40, Type (0, 0), BuildingBlock: UVAHIK_clean_linker_0, # of connection points: 2
#     Edge 41, Type (0, 0), BuildingBlock: UVAHIK_clean_linker_0, # of connection points: 2
#     Edge 42, Type (0, 0), BuildingBlock: UVAHIK_clean_linker_0, # of connection points: 2
#     Edge 43, Type (0, 0), BuildingBlock: UVAHIK_clean_linker_0, # of connection points: 2
#     Edge 44, Type (0, 0), BuildingBlock: UVAHIK_clean_linker_0, # of connection points: 2
#     Edge 45, Type (0, 0), BuildingBlock: UVAHIK_clean_linker_0, # of connection points: 2
#     Edge 46, Type (0, 0), BuildingBlock: UVAHIK_clean_linker_0, # of connection points: 2
#     Edge 47, Type (0, 0), BuildingBlock: UVAHIK_clean_linker_0, # of connection points: 2
#     Edge 48, Type (0, 0), BuildingBlock: UVAHIK_clean_linker_0, # of connection points: 2
#     Edge 49, Type (0, 0), BuildingBlock: UVAHIK_clean_linker_0, # of connection points: 2
#     Edge 50, Type (0, 0), BuildingBlock: UVAHIK_clean_linker_0, # of connection points: 2
#     Edge 51, Type (0, 0), BuildingBlock: UVAHIK_clean_linker_0, # of connection points: 2
#     Edge 52, Type (0, 0), BuildingBlock: UVAHIK_clean_linker_0, # of connection points: 2
#     Edge 53, Type (0, 0), BuildingBlock: UVAHIK_clean_linker_0, # of connection points: 2
#     Edge 54, Type (0, 0), BuildingBlock: UVAHIK_clean_linker_0, # of connection points: 2
#     Edge 55, Type (0, 0), BuildingBlock: UVAHIK_clean_linker_0, # of connection points: 2
#     Edge 56, Type (0, 0), BuildingBlock: UVAHIK_clean_linker_0, # of connection points: 2
#     Edge 57, Type (0, 0), BuildingBlock: UVAHIK_clean_linker_0, # of connection points: 2
#     Edge 58, Type (0, 0), BuildingBlock: UVAHIK_clean_linker_0, # of connection points: 2
#     Edge 59, Type (0, 0), BuildingBlock: UVAHIK_clean_linker_0, # of connection points: 2
#     Edge 60, Type (0, 0), BuildingBlock: UVAHIK_clean_linker_0, # of connection points: 2
#     Edge 61, Type (0, 0), BuildingBlock: UVAHIK_clean_linker_0, # of connection points: 2
#     Edge 62, Type (0, 0), BuildingBlock: UVAHIK_clean_linker_0, # of connection points: 2
#     Edge 63, Type (0, 0), BuildingBlock: UVAHIK_clean_linker_0, # of connection points: 2
#     Edge 64, Type (0, 0), BuildingBlock: UVAHIK_clean_linker_0, # of connection points: 2
#     Edge 65, Type (0, 0), BuildingBlock: UVAHIK_clean_linker_0, # of connection points: 2
#     Edge 66, Type (0, 0), BuildingBlock: UVAHIK_clean_linker_0, # of connection points: 2
#     Edge 67, Type (0, 0), BuildingBlock: UVAHIK_clean_linker_0, # of connection points: 2
#     Edge 68, Type (0, 0), BuildingBlock: UVAHIK_clean_linker_0, # of connection points: 2
#     Edge 69, Type (0, 0), BuildingBlock: UVAHIK_clean_linker_0, # of connection points: 2
#     Edge 70, Type (0, 0), BuildingBlock: UVAHIK_clean_linker_0, # of connection points: 2
#     Edge 71, Type (0, 0), BuildingBlock: UVAHIK_clean_linker_0, # of connection points: 2
#     Edge 72, Type (0, 0), BuildingBlock: UVAHIK_clean_linker_0, # of connection points: 2
#     Edge 73, Type (0, 0), BuildingBlock: UVAHIK_clean_linker_0, # of connection points: 2
#     Edge 74, Type (0, 0), BuildingBlock: UVAHIK_clean_linker_0, # of connection points: 2
#     Edge 75, Type (0, 0), BuildingBlock: UVAHIK_clean_linker_0, # of connection points: 2
#     Edge 76, Type (0, 0), BuildingBlock: UVAHIK_clean_linker_0, # of connection points: 2
#     Edge 77, Type (0, 0), BuildingBlock: UVAHIK_clean_linker_0, # of connection points: 2
#     Edge 78, Type (0, 0), BuildingBlock: UVAHIK_clean_linker_0, # of connection points: 2
#     Edge 79, Type (0, 0), BuildingBlock: UVAHIK_clean_linker_0, # of connection points: 2
#     Edge 80, Type (0, 0), BuildingBlock: UVAHIK_clean_linker_0, # of connection points: 2
#     Edge 81, Type (0, 0), BuildingBlock: UVAHIK_clean_linker_0, # of connection points: 2
#     Edge 82, Type (0, 0), BuildingBlock: UVAHIK_clean_linker_0, # of connection points: 2
#     Edge 83, Type (0, 0), BuildingBlock: UVAHIK_clean_linker_0, # of connection points: 2
#     Edge 84, Type (0, 0), BuildingBlock: UVAHIK_clean_linker_0, # of connection points: 2
#     Edge 85, Type (0, 0), BuildingBlock: UVAHIK_clean_linker_0, # of connection points: 2
#     Edge 86, Type (0, 0), BuildingBlock: UVAHIK_clean_linker_0, # of connection points: 2
#     Edge 87, Type (0, 0), BuildingBlock: UVAHIK_clean_linker_0, # of connection points: 2
#     Edge 88, Type (0, 0), BuildingBlock: UVAHIK_clean_linker_0, # of connection points: 2
#     Edge 89, Type (0, 0), BuildingBlock: UVAHIK_clean_linker_0, # of connection points: 2
#     Edge 90, Type (0, 0), BuildingBlock: UVAHIK_clean_linker_0, # of connection points: 2
#     Edge 91, Type (0, 0), BuildingBlock: UVAHIK_clean_linker_0, # of connection points: 2
#     Edge 92, Type (0, 0), BuildingBlock: UVAHIK_clean_linker_0, # of connection points: 2
#     Edge 93, Type (0, 0), BuildingBlock: UVAHIK_clean_linker_0, # of connection points: 2
#     Edge 94, Type (0, 0), BuildingBlock: UVAHIK_clean_linker_0, # of connection points: 2
#     Edge 95, Type (0, 0), BuildingBlock: UVAHIK_clean_linker_0, # of connection points: 2
#     Edge 96, Type (0, 0), BuildingBlock: UVAHIK_clean_linker_0, # of connection points: 2
#     Edge 97, Type (0, 0), BuildingBlock: UVAHIK_clean_linker_0, # of connection points: 2
#     Edge 98, Type (0, 0), BuildingBlock: UVAHIK_clean_linker_0, # of connection points: 2
#     Edge 99, Type (0, 0), BuildingBlock: UVAHIK_clean_linker_0, # of connection points: 2
#     Edge 100, Type (0, 0), BuildingBlock: UVAHIK_clean_linker_0, # of connection points: 2
#     Edge 101, Type (0, 0), BuildingBlock: UVAHIK_clean_linker_0, # of connection points: 2
#     Edge 102, Type (0, 0), BuildingBlock: UVAHIK_clean_linker_0, # of connection points: 2
#     Edge 103, Type (0, 0), BuildingBlock: UVAHIK_clean_linker_0, # of connection points: 2
#     Edge 104, Type (0, 0), BuildingBlock: UVAHIK_clean_linker_0, # of connection points: 2
#     Edge 105, Type (0, 0), BuildingBlock: UVAHIK_clean_linker_0, # of connection points: 2
#     Edge 106, Type (0, 0), BuildingBlock: UVAHIK_clean_linker_0, # of connection points: 2
#     Edge 107, Type (0, 0), BuildingBlock: UVAHIK_clean_linker_0, # of connection points: 2
#     Edge 108, Type (0, 0), BuildingBlock: UVAHIK_clean_linker_0, # of connection points: 2
#     Edge 109, Type (0, 0), BuildingBlock: UVAHIK_clean_linker_0, # of connection points: 2
#     Edge 110, Type (0, 0), BuildingBlock: UVAHIK_clean_linker_0, # of connection points: 2
#     Edge 111, Type (0, 0), BuildingBlock: UVAHIK_clean_linker_0, # of connection points: 2
#     Edge 112, Type (0, 0), BuildingBlock: UVAHIK_clean_linker_0, # of connection points: 2
#     Edge 113, Type (0, 0), BuildingBlock: UVAHIK_clean_linker_0, # of connection points: 2
#     Edge 114, Type (0, 0), BuildingBlock: UVAHIK_clean_linker_0, # of connection points: 2
#     Edge 115, Type (0, 0), BuildingBlock: UVAHIK_clean_linker_0, # of connection points: 2
#     Edge 116, Type (0, 0), BuildingBlock: UVAHIK_clean_linker_0, # of connection points: 2
#     Edge 117, Type (0, 0), BuildingBlock: UVAHIK_clean_linker_0, # of connection points: 2
#     Edge 118, Type (0, 0), BuildingBlock: UVAHIK_clean_linker_0, # of connection points: 2
#     Edge 119, Type (0, 0), BuildingBlock: UVAHIK_clean_linker_0, # of connection points: 2
#     Edge 120, Type (0, 0), BuildingBlock: UVAHIK_clean_linker_0, # of connection points: 2
#     Edge 121, Type (0, 0), BuildingBlock: UVAHIK_clean_linker_0, # of connection points: 2
#     Edge 122, Type (0, 0), BuildingBlock: UVAHIK_clean_linker_0, # of connection points: 2
#     Edge 123, Type (0, 0), BuildingBlock: UVAHIK_clean_linker_0, # of connection points: 2
#     Edge 124, Type (0, 0), BuildingBlock: UVAHIK_clean_linker_0, # of connection points: 2
#     Edge 125, Type (0, 0), BuildingBlock: UVAHIK_clean_linker_0, # of connection points: 2
#     Edge 126, Type (0, 0), BuildingBlock: UVAHIK_clean_linker_0, # of connection points: 2
#     Edge 127, Type (0, 0), BuildingBlock: UVAHIK_clean_linker_0, # of connection points: 2
# Relax obj value: 0.373
# Max RMSD: 0.201
# Mean RMSD: 0.201
data_MOF--net-wir--node1-BETFEN_clean_sbu_0--edge1-UVAHIK_clean_linker_0
_symmetry_space_group_name_H-M    P1
_symmetry_Int_Tables_number       1
_symmetry_cell_setting            triclinic
loop_
_symmetry_equiv_pos_as_xyz
'x, y, z'
_cell_length_a     49.97639
_cell_length_b     50.135407
_cell_length_c     137.91328
_cell_angle_alpha  89.916267
_cell_angle_beta   90.091161
_cell_angle_gamma 89.794163
loop_
_atom_site_label
_atom_site_type_symbol
_atom_site_fract_x
_atom_site_fract_y
_atom_site_fract_z
_atom_type_partial_charge
Pr0 Pr 0.23316 0.20881 0.37019 0.0
Pr1 Pr 0.21245 0.17798 0.36477 0.0
C2 C 0.25385 0.25785 0.37251 0.0
C3 C 0.24037 0.28355 0.37291 0.0
C4 C 0.25508 0.30714 0.3734 0.0
C5 C 0.24189 0.3313 0.37498 0.0
C6 C 0.21394 0.33192 0.37621 0.0
C7 C 0.19924 0.30828 0.37508 0.0
C8 C 0.21238 0.28429 0.37341 0.0
C9 C 0.26171 0.16991 0.38266 0.0
C10 C 0.19637 0.18777 0.38581 0.0
C11 C 0.20777 0.13216 0.35495 0.0
C12 C 0.20569 0.12555 0.34476 0.0
C13 C 0.219 0.10271 0.34152 0.0
C14 C 0.22432 0.09961 0.33172 0.0
C15 C 0.21631 0.11935 0.3251 0.0
C16 C 0.20147 0.14143 0.32826 0.0
C17 C 0.19627 0.14461 0.3381 0.0
C18 C 0.16363 0.20792 0.36662 0.0
C19 C 0.24005 0.21005 0.34684 0.0
O20 O 0.2529 0.2459 0.36415 0.0
O21 O 0.2484 0.24199 0.37972 0.0
O22 O 0.2526 0.16547 0.37393 0.0
O23 O 0.25618 0.19453 0.38461 0.0
O24 O 0.20377 0.16733 0.38068 0.0
O25 O 0.20052 0.21121 0.38204 0.0
O26 O 0.23066 0.14294 0.35718 0.0
O27 O 0.18733 0.14399 0.35898 0.0
O28 O 0.18708 0.21835 0.36484 0.0
O29 O 0.16635 0.18237 0.36803 0.0
O30 O 0.25576 0.21106 0.35447 0.0
O31 O 0.21682 0.19995 0.34911 0.0
H32 H 0.27671 0.30674 0.37294 0.0
H33 H 0.25366 0.34929 0.37569 0.0
H34 H 0.17777 0.30789 0.37616 0.0
H35 H 0.2008 0.2661 0.373 0.0
H36 H 0.22683 0.08819 0.34663 0.0
H37 H 0.23551 0.08226 0.32934 0.0
H38 H 0.19521 0.15682 0.32321 0.0
H39 H 0.18636 0.16261 0.34055 0.0
Pr40 Pr 0.07925 0.98325 0.61902 0.0
Pr41 Pr 0.11211 0.96355 0.61325 0.0
C42 C 0.03085 1.00449 0.62273 0.0
C43 C 1.00502 0.99107 0.62278 0.0
C44 C 0.98608 0.99801 0.62979 0.0
C45 C 0.96526 0.98056 0.63193 0.0
C46 C 0.96327 0.95596 0.62707 0.0
C47 C 0.9809 0.95027 0.61944 0.0
C48 C 1.00179 0.96761 0.61736 0.0
C49 C 0.12042 1.01077 0.63089 0.0
C50 C 0.09903 0.9431 0.6338 0.0
C51 C 0.16018 0.95515 0.60515 0.0
C52 C 0.17252 0.93609 0.5986 0.0
C53 C 0.19977 0.93056 0.59968 0.0
C54 C 0.21215 0.9123 0.59358 0.0
C55 C 0.19735 0.89935 0.58633 0.0
C56 C 0.1698 0.90442 0.58543 0.0
C57 C 0.15737 0.92264 0.59159 0.0
C58 C 0.08156 0.91442 0.61408 0.0
C59 C 0.07775 0.98974 0.59524 0.0
O60 O 0.04254 1.00671 0.61434 0.0
O61 O 0.04706 0.99621 0.62948 0.0
O62 O 0.12169 1.00546 0.62162 0.0
O63 O 0.09792 1.00098 0.63376 0.0
O64 O 0.12002 0.95178 0.62923 0.0
O65 O 0.07582 0.94861 0.63001 0.0
O66 O 0.1424 0.97143 0.60145 0.0
O67 O 0.15338 0.94551 0.61355 0.0
O68 O 0.07107 0.93812 0.6129 0.0
O69 O 0.10723 0.91689 0.61506 0.0
O70 O 0.07215 1.00347 0.6031 0.0
O71 O 0.09294 0.96896 0.59711 0.0
H72 H 0.98865 1.01578 0.63415 0.0
H73 H 0.95228 0.98532 0.63797 0.0
H74 H 0.97971 0.93154 0.61555 0.0
H75 H 1.01655 0.96167 0.61202 0.0
H76 H 0.21153 0.94062 0.60517 0.0
H77 H 0.23351 0.90909 0.59431 0.0
H78 H 0.15803 0.89456 0.5799 0.0
H79 H 0.1361 0.9264 0.59083 0.0
Pr80 Pr 0.31132 0.82504 0.87074 0.0
Pr81 Pr 0.3319 0.8571 0.8653 0.0
C82 C 0.2907 0.77621 0.87362 0.0
C83 C 0.30401 0.75037 0.87341 0.0
C84 C 0.28923 0.72682 0.87386 0.0
C85 C 0.30245 0.70242 0.8749 0.0
C86 C 0.33054 0.7015 0.87568 0.0
C87 C 0.34522 0.72519 0.87456 0.0
C88 C 0.33203 0.74939 0.87338 0.0
C89 C 0.28206 0.86474 0.88269 0.0
C90 C 0.34755 0.84576 0.8864 0.0
C91 C 0.34125 0.90399 0.85664 0.0
C92 C 0.35762 0.91382 0.84874 0.0
C93 C 0.3675 0.9398 0.84925 0.0
C94 C 0.38309 0.94974 0.84175 0.0
C95 C 0.38894 0.93371 0.83368 0.0
C96 C 0.37964 0.90735 0.83333 0.0
C97 C 0.36413 0.89738 0.84087 0.0
C98 C 0.38059 0.82602 0.86675 0.0
C99 C 0.30572 0.82385 0.84715 0.0
O100 O 0.28923 0.78854 0.86532 0.0
O101 O 0.29841 0.7917 0.88064 0.0
O102 O 0.29054 0.86831 0.87381 0.0
O103 O 0.28859 0.8406 0.88501 0.0
O104 O 0.33872 0.86612 0.8815 0.0
O105 O 0.34465 0.8225 0.88239 0.0
O106 O 0.32117 0.88864 0.85429 0.0
O107 O 0.35451 0.89572 0.86421 0.0
O108 O 0.35696 0.81616 0.86494 0.0
O109 O 0.37815 0.85143 0.86828 0.0
O110 O 0.29063 0.82011 0.85482 0.0
O111 O 0.32756 0.83699 0.8493 0.0
H112 H 0.26756 0.72739 0.87378 0.0
H113 H 0.29064 0.68445 0.87558 0.0
H114 H 0.3668 0.72542 0.87528 0.0
H115 H 0.34369 0.76754 0.87298 0.0
H116 H 0.36283 0.9525 0.85537 0.0
H117 H 0.38972 0.97027 0.8421 0.0
H118 H 0.38406 0.89466 0.82718 0.0
H119 H 0.35701 0.87703 0.8405 0.0
Pr120 Pr 0.47052 0.05946 0.11934 0.0
Pr121 Pr 0.43734 0.07926 0.11367 0.0
C122 C 0.51925 0.0386 0.12283 0.0
C123 C 0.54517 0.05174 0.12227 0.0
C124 C 0.56511 0.04492 0.12895 0.0
C125 C 0.58625 0.06237 0.13062 0.0
C126 C 0.58753 0.08687 0.12564 0.0
C127 C 0.5689 0.09232 0.11827 0.0
C128 C 0.54771 0.07495 0.11665 0.0
C129 C 0.42998 0.03079 0.13115 0.0
C130 C 0.44995 0.09719 0.13454 0.0
C131 C 0.38894 0.08856 0.10595 0.0
C132 C 0.37559 0.1069 0.0993 0.0
C133 C 0.35288 0.12054 0.10258 0.0
C134 C 0.33879 0.13719 0.09634 0.0
C135 C 0.34708 0.14018 0.08669 0.0
C136 C 0.37056 0.1274 0.08352 0.0
C137 C 0.38484 0.11089 0.08981 0.0
C138 C 0.4681 0.12823 0.11469 0.0
C139 C 0.47142 0.05352 0.09553 0.0
O140 O 0.50666 0.03526 0.11464 0.0
O141 O 0.50385 0.04804 0.12961 0.0
O142 O 0.42796 0.03717 0.12197 0.0
O143 O 0.45294 0.03977 0.13392 0.0
O144 O 0.42944 0.08782 0.12986 0.0
O145 O 0.47319 0.0938 0.1305 0.0
O146 O 0.40571 0.07116 0.10233 0.0
O147 O 0.39694 0.09899 0.11408 0.0
O148 O 0.47834 0.10462 0.11317 0.0
O149 O 0.44256 0.12572 0.11598 0.0
O150 O 0.47778 0.03996 0.10337 0.0
O151 O 0.45565 0.07384 0.09743 0.0
H152 H 0.56311 0.02731 0.13345 0.0
H153 H 0.60003 0.05778 0.13646 0.0
H154 H 0.56951 0.11096 0.11429 0.0
H155 H 0.53219 0.08075 0.11156 0.0
H156 H 0.34574 0.11791 0.10994 0.0
H157 H 0.32097 0.14716 0.09898 0.0
H158 H 0.37721 0.12921 0.07607 0.0
H159 H 0.40262 0.1008 0.08719 0.0
Pr160 Pr 0.23519 0.82603 0.21936 0.0
Pr161 Pr 0.21557 0.86054 0.22533 0.0
C162 C 0.25806 0.77901 0.21507 0.0
C163 C 0.2462 0.75262 0.21601 0.0
C164 C 0.26133 0.72962 0.21435 0.0
C165 C 0.24849 0.70508 0.21337 0.0
C166 C 0.22034 0.70353 0.21376 0.0
C167 C 0.20562 0.7265 0.21624 0.0
C168 C 0.21851 0.75075 0.21745 0.0
C169 C 0.26332 0.8682 0.20805 0.0
C170 C 0.1947 0.84443 0.20466 0.0
C171 C 0.2025 0.90922 0.23192 0.0
C172 C 0.21491 0.93379 0.23523 0.0
C173 C 0.23476 0.93364 0.24243 0.0
C174 C 0.24428 0.95765 0.24609 0.0
C175 C 0.2342 0.98197 0.24251 0.0
C176 C 0.21565 0.98192 0.23487 0.0
C177 C 0.20596 0.95795 0.23129 0.0
C178 C 0.16679 0.82916 0.22435 0.0
C179 C 0.24291 0.8256 0.24341 0.0
O180 O 0.2629 0.79153 0.22315 0.0
O181 O 0.24617 0.79401 0.20865 0.0
O182 O 0.25832 0.8686 0.21738 0.0
O183 O 0.25257 0.84648 0.20491 0.0
O184 O 0.20291 0.86573 0.20919 0.0
O185 O 0.20064 0.82148 0.20849 0.0
O186 O 0.20536 0.9038 0.22276 0.0
O187 O 0.20448 0.88834 0.23753 0.0
O188 O 0.1905 0.81918 0.22595 0.0
O189 O 0.16917 0.85449 0.22295 0.0
O190 O 0.24828 0.81184 0.23556 0.0
O191 O 0.23059 0.84832 0.24162 0.0
H192 H 0.28277 0.73083 0.21332 0.0
H193 H 0.26049 0.68764 0.21174 0.0
H194 H 0.18398 0.7264 0.21649 0.0
H195 H 0.20658 0.76846 0.21879 0.0
H196 H 0.24219 0.91508 0.24546 0.0
H197 H 0.25837 0.95714 0.25206 0.0
H198 H 0.20785 1.00043 0.23193 0.0
H199 H 0.19086 0.95828 0.22564 0.0
Pr200 Pr 0.46443 0.97861 0.47232 0.0
Pr201 Pr 0.43314 0.95856 0.47828 0.0
C202 C 0.51351 0.9981 0.46873 0.0
C203 C 0.53946 0.98485 0.46843 0.0
C204 C 0.55837 0.99333 0.46166 0.0
C205 C 0.58021 0.97712 0.45949 0.0
C206 C 0.58342 0.95224 0.46411 0.0
C207 C 0.56539 0.94477 0.47142 0.0
C208 C 0.54338 0.96086 0.4735 0.0
C209 C 0.42447 1.00839 0.46072 0.0
C210 C 0.43847 0.94349 0.45702 0.0
C211 C 0.38816 0.9503 0.48831 0.0
C212 C 0.38024 0.93504 0.49681 0.0
C213 C 0.3883 0.90837 0.49805 0.0
C214 C 0.38015 0.89422 0.50621 0.0
C215 C 0.36422 0.90673 0.51323 0.0
C216 C 0.35666 0.93354 0.51203 0.0
C217 C 0.36462 0.94758 0.50386 0.0
C218 C 0.46376 0.90979 0.4762 0.0
C219 C 0.46738 0.98493 0.49592 0.0
O220 O 0.50211 0.99978 0.47719 0.0
O221 O 0.49714 0.99048 0.46195 0.0
O222 O 0.42104 0.99955 0.46958 0.0
O223 O 0.44861 1.0021 0.45829 0.0
O224 O 0.4195 0.95201 0.46263 0.0
O225 O 0.46283 0.94625 0.46024 0.0
O226 O 0.40384 0.97062 0.48994 0.0
O227 O 0.39463 0.93657 0.48063 0.0
O228 O 0.47404 0.9332 0.47788 0.0
O229 O 0.4381 0.91244 0.47512 0.0
O230 O 0.46978 1.00003 0.48816 0.0
O231 O 0.45507 0.96261 0.49393 0.0
H232 H 0.55525 1.01154 0.45757 0.0
H233 H 0.59335 0.98327 0.45368 0.0
H234 H 0.56745 0.92585 0.47516 0.0
H235 H 0.52863 0.95381 0.47864 0.0
H236 H 0.40072 0.89844 0.49272 0.0
H237 H 0.38625 0.87358 0.50705 0.0
H238 H 0.34403 0.94347 0.5173 0.0
H239 H 0.35842 0.96819 0.50299 0.0
Pr240 Pr 0.31402 0.21403 0.71987 0.0
Pr241 Pr 0.33393 0.1819 0.72543 0.0
C242 C 0.29315 0.26278 0.71672 0.0
C243 C 0.30734 0.28807 0.71673 0.0
C244 C 0.29368 0.31221 0.71559 0.0
C245 C 0.3081 0.33578 0.7144 0.0
C246 C 0.33629 0.33524 0.71417 0.0
C247 C 0.34973 0.31105 0.71594 0.0
C248 C 0.33534 0.28771 0.71726 0.0
C249 C 0.28601 0.17389 0.70776 0.0
C250 C 0.35329 0.19409 0.70482 0.0
C251 C 0.341 0.13502 0.73442 0.0
C252 C 0.35641 0.12414 0.74252 0.0
C253 C 0.38454 0.12383 0.74243 0.0
C254 C 0.3986 0.11236 0.7501 0.0
C255 C 0.38468 0.10131 0.75795 0.0
C256 C 0.35661 0.10216 0.7581 0.0
C257 C 0.3426 0.11346 0.75042 0.0
C258 C 0.38315 0.2121 0.72451 0.0
C259 C 0.30834 0.21564 0.74348 0.0
O260 O 0.29186 0.25085 0.72508 0.0
O261 O 0.30016 0.24674 0.70976 0.0
O262 O 0.29204 0.17178 0.71696 0.0
O263 O 0.2952 0.19678 0.70508 0.0
O264 O 0.34475 0.17317 0.70946 0.0
O265 O 0.34819 0.2172 0.70867 0.0
O266 O 0.3217 0.15155 0.73666 0.0
O267 O 0.35432 0.14201 0.7267 0.0
O268 O 0.35945 0.22249 0.72588 0.0
O269 O 0.38066 0.18657 0.72329 0.0
O270 O 0.29323 0.21924 0.73577 0.0
O271 O 0.33024 0.20242 0.74137 0.0
H272 H 0.27203 0.31268 0.71526 0.0
H273 H 0.2972 0.3542 0.7132 0.0
H274 H 0.37135 0.30966 0.71564 0.0
H275 H 0.34614 0.26912 0.71816 0.0
H276 H 0.39569 0.13214 0.73642 0.0
H277 H 0.42026 0.11198 0.74989 0.0
H278 H 0.34543 0.09334 0.76401 0.0
H279 H 0.32091 0.11351 0.7506 0.0
Pr280 Pr 0.07964 0.05633 0.97212 0.0
Pr281 Pr 0.11225 0.07597 0.97824 0.0
C282 C 0.03033 0.03806 0.96813 0.0
C283 C 1.0048 0.05218 0.96815 0.0
C284 C 0.98547 0.04547 0.96126 0.0
C285 C 0.96446 0.063 0.95932 0.0
C286 C 0.96254 0.08746 0.96429 0.0
C287 C 0.98087 0.09309 0.97173 0.0
C288 C 1.00201 0.07566 0.97359 0.0
C289 C 0.11977 0.02637 0.96065 0.0
C290 C 0.10559 0.09188 0.957 0.0
C291 C 0.15884 0.08484 0.98731 0.0
C292 C 0.16871 0.10188 0.99499 0.0
C293 C 0.15101 0.11402 1.00152 0.0
C294 C 0.16088 0.13103 1.00865 0.0
C295 C 0.18843 0.13617 1.00919 0.0
C296 C 0.20593 0.12422 1.00251 0.0
C297 C 0.19607 0.10719 0.99543 0.0
C298 C 0.08117 0.1248 0.9765 0.0
C299 C 0.07742 0.04947 0.9959 0.0
O300 O 0.04182 0.0346 0.97653 0.0
O301 O 0.0468 0.04645 0.96151 0.0
O302 O 0.1228 0.03458 0.96961 0.0
O303 O 0.09591 0.03333 0.95808 0.0
O304 O 0.12461 0.08245 0.96243 0.0
O305 O 0.08133 0.08957 0.96033 0.0
O306 O 0.14249 0.0658 0.98986 0.0
O307 O 0.15152 0.09739 0.97947 0.0
O308 O 0.07114 0.10131 0.97819 0.0
O309 O 0.10676 0.12224 0.97527 0.0
O310 O 0.07258 0.03559 0.98799 0.0
O311 O 0.09211 0.07051 0.99413 0.0
H312 H 0.98773 0.02769 0.95687 0.0
H313 H 0.95103 0.05826 0.95341 0.0
H314 H 0.97977 0.11165 0.97573 0.0
H315 H 1.0171 0.08136 0.97884 0.0
H316 H 0.12968 0.11036 1.0011 0.0
H317 H 0.14706 0.14012 1.01372 0.0
H318 H 0.22732 0.1275 1.0029 0.0
H319 H 0.2098 0.09811 0.99032 0.0
Pr320 Pr 0.83359 0.85388 0.72758 0.0
Pr321 Pr 0.8116 0.82511 0.72257 0.0
C322 C 0.83373 0.89922 0.73761 0.0
C323 C 0.84461 0.90702 0.74695 0.0
C324 C 0.86822 0.89509 0.75045 0.0
C325 C 0.88009 0.90455 0.75887 0.0
C326 C 0.86819 0.92565 0.76394 0.0
C327 C 0.84392 0.93668 0.76068 0.0
C328 C 0.83222 0.92743 0.75218 0.0
C329 C 0.88186 0.8236 0.7273 0.0
C330 C 0.80809 0.82106 0.74596 0.0
C331 C 0.79265 0.7772 0.71726 0.0
C332 C 0.80625 0.75153 0.71693 0.0
C333 C 0.79611 0.73102 0.71118 0.0
C334 C 0.81132 0.70807 0.7097 0.0
C335 C 0.83686 0.70557 0.71393 0.0
C336 C 0.8463 0.72565 0.7201 0.0
C337 C 0.83107 0.74852 0.72159 0.0
C338 C 0.78089 0.86717 0.71208 0.0
C339 C 0.8538 0.84345 0.70716 0.0
O340 O 0.81328 0.88289 0.73778 0.0
O341 O 0.85173 0.89334 0.73109 0.0
O342 O 0.85785 0.81321 0.72794 0.0
O343 O 0.88007 0.84943 0.7268 0.0
O344 O 0.79174 0.81998 0.73856 0.0
O345 O 0.83091 0.83183 0.74344 0.0
O346 O 0.78939 0.78704 0.72591 0.0
O347 O 0.80143 0.7947 0.71107 0.0
O348 O 0.80615 0.86625 0.71375 0.0
O349 O 0.7708 0.84785 0.71715 0.0
O350 O 0.85102 0.86421 0.71269 0.0
O351 O 0.84234 0.82142 0.70994 0.0
H352 H 0.87787 0.87902 0.74651 0.0
H353 H 0.89872 0.89573 0.76135 0.0
H354 H 0.83459 0.95315 0.76448 0.0
H355 H 0.81397 0.93666 0.74954 0.0
H356 H 0.77708 0.73329 0.70749 0.0
H357 H 0.80384 0.69309 0.70474 0.0
H358 H 0.86592 0.72416 0.72342 0.0
H359 H 0.83916 0.76432 0.72604 0.0
Pr360 Pr 0.93648 0.08204 0.47496 0.0
Pr361 Pr 0.96837 0.06026 0.46984 0.0
C362 C 0.88662 0.08412 0.4816 0.0
C363 C 0.86535 0.08779 0.48868 0.0
C364 C 0.85064 0.11167 0.4886 0.0
C365 C 0.82672 0.11347 0.49366 0.0
C366 C 0.81722 0.09136 0.49882 0.0
C367 C 0.83263 0.06796 0.49933 0.0
C368 C 0.85657 0.06614 0.49427 0.0
C369 C 0.96758 0.12973 0.47495 0.0
C370 C 0.97024 0.05558 0.49364 0.0
C371 C 1.01521 0.04053 0.46352 0.0
C372 C 0.04182 0.05214 0.46406 0.0
C373 C 0.06057 0.04624 0.45688 0.0
C374 C 0.08386 0.06127 0.4562 0.0
C375 C 0.08864 0.08235 0.46272 0.0
C376 C 0.07051 0.08698 0.4703 0.0
C377 C 0.04712 0.07212 0.47091 0.0
C378 C 0.92495 0.02995 0.45969 0.0
C379 C 0.95103 0.10078 0.45429 0.0
O380 O 0.90081 0.06202 0.48166 0.0
O381 O 0.89915 0.10513 0.47831 0.0
O382 O 0.97767 0.10572 0.47616 0.0
O383 O 0.94187 0.12815 0.47376 0.0
O384 O 0.97973 0.04403 0.48588 0.0
O385 O 0.95182 0.07357 0.49162 0.0
O386 O 1.00469 0.03383 0.4718 0.0
O387 O 0.9986 0.0534 0.45792 0.0
O388 O 0.92741 0.05517 0.4608 0.0
O389 O 0.94319 1.01984 0.46535 0.0
O390 O 0.92953 0.09459 0.45908 0.0
O391 O 0.97368 0.0931 0.45804 0.0
H392 H 0.85682 0.12848 0.4842 0.0
H393 H 0.81502 0.13165 0.49312 0.0
H394 H 0.82579 0.05083 0.50342 0.0
H395 H 0.86745 0.04742 0.49436 0.0
H396 H 0.05646 0.03114 0.45147 0.0
H397 H 0.09709 0.05754 0.45014 0.0
H398 H 0.07372 0.10296 0.47545 0.0
H399 H 0.03254 0.07715 0.47643 0.0
Pr400 Pr 0.71316 0.17864 0.2276 0.0
Pr401 Pr 0.7327 0.21058 0.22218 0.0
C402 C 0.70623 0.13188 0.23662 0.0
C403 C 0.68919 0.1216 0.24433 0.0
C404 C 0.66128 0.12515 0.2441 0.0
C405 C 0.64553 0.1149 0.25153 0.0
C406 C 0.65758 0.10136 0.2593 0.0
C407 C 0.6855 0.09823 0.25957 0.0
C408 C 0.70119 0.10826 0.25212 0.0
C409 C 0.66343 0.20821 0.22668 0.0
C410 C 0.73877 0.2118 0.24569 0.0
C411 C 0.7536 0.25924 0.21908 0.0
C412 C 0.73965 0.28451 0.21787 0.0
C413 C 0.75381 0.30839 0.21716 0.0
C414 C 0.74019 0.33202 0.21504 0.0
C415 C 0.71235 0.33181 0.21346 0.0
C416 C 0.69817 0.30788 0.21467 0.0
C417 C 0.71173 0.28447 0.21693 0.0
C418 C 0.76076 0.17074 0.20997 0.0
C419 C 0.69331 0.19103 0.20705 0.0
O420 O 0.72449 0.14899 0.23927 0.0
O421 O 0.69441 0.13806 0.22848 0.0
O422 O 0.68694 0.21908 0.22779 0.0
O423 O 0.66635 0.18264 0.22568 0.0
O424 O 0.7541 0.21473 0.23803 0.0
O425 O 0.71653 0.19943 0.2435 0.0
O426 O 0.75176 0.24865 0.22766 0.0
O427 O 0.74931 0.24212 0.21219 0.0
O428 O 0.75505 0.16852 0.21918 0.0
O429 O 0.75112 0.19355 0.2073 0.0
O430 O 0.70188 0.17003 0.21166 0.0
O431 O 0.69854 0.21408 0.21091 0.0
H432 H 0.65161 0.13571 0.23819 0.0
H433 H 0.62402 0.11759 0.25123 0.0
H434 H 0.69518 0.08747 0.26543 0.0
H435 H 0.72269 0.10548 0.2524 0.0
H436 H 0.77538 0.30861 0.21797 0.0
H437 H 0.75156 0.35025 0.21428 0.0
H438 H 0.67684 0.30681 0.21334 0.0
H439 H 0.70053 0.26608 0.21753 0.0
Pr440 Pr 0.61395 0.96315 0.97583 0.0
Pr441 Pr 0.58186 0.98542 0.97026 0.0
C442 C 0.66203 0.95644 0.98397 0.0
C443 C 0.67357 0.94424 0.99251 0.0
C444 C 0.6574 0.93022 0.99905 0.0
C445 C 0.66921 0.91526 1.00642 0.0
C446 C 0.69719 0.91416 1.00721 0.0
C447 C 0.71316 0.92888 1.00078 0.0
C448 C 0.70136 0.94379 0.99344 0.0
C449 C 0.5819 0.91581 0.97485 0.0
C450 C 0.5795 0.9901 0.99409 0.0
C451 C 0.53418 1.00285 0.96387 0.0
C452 C 0.50845 0.98936 0.964 0.0
C453 C 0.48965 0.99481 0.95677 0.0
C454 C 0.46752 0.97829 0.95568 0.0
C455 C 0.46398 0.95615 0.96185 0.0
C456 C 0.48211 0.9518 0.96947 0.0
C457 C 0.50432 0.96819 0.9705 0.0
C458 C 0.62445 1.01751 0.96052 0.0
C459 C 0.60297 0.948 0.95456 0.0
O460 O 0.64778 0.97817 0.98524 0.0
O461 O 0.65143 0.93947 0.97793 0.0
O462 O 0.5723 0.93982 0.97637 0.0
O463 O 0.60759 0.91726 0.97372 0.0
O464 O 0.5714 1.00259 0.98627 0.0
O465 O 0.59688 0.97111 0.9922 0.0
O466 O 0.54383 1.0092 0.97233 0.0
O467 O 0.55188 0.99187 0.9582 0.0
O468 O 0.62502 0.99249 0.96254 0.0
O469 O 0.60338 0.0267 0.9649 0.0
O470 O 0.62339 0.95512 0.95978 0.0
O471 O 0.57948 0.95344 0.95808 0.0
H472 H 0.63583 0.93017 0.99824 0.0
H473 H 0.65659 0.90399 1.01131 0.0
H474 H 0.73477 0.92871 1.0014 0.0
H475 H 0.71393 0.95436 0.98833 0.0
H476 H 0.49289 1.01083 0.95163 0.0
H477 H 0.45424 0.98186 0.9496 0.0
H478 H 0.47981 0.93501 0.97435 0.0
H479 H 0.51895 0.96352 0.97606 0.0
Pr480 Pr 0.83367 0.18517 0.86409 0.0
Pr481 Pr 0.8138 0.2179 0.86957 0.0
C482 C 0.8421 0.13705 0.85622 0.0
C483 C 0.85982 0.12414 0.84937 0.0
C484 C 0.86429 0.09679 0.85035 0.0
C485 C 0.88118 0.08373 0.84394 0.0
C486 C 0.89387 0.09798 0.83648 0.0
C487 C 0.88988 0.12564 0.83568 0.0
C488 C 0.87297 0.13874 0.84215 0.0
C489 C 0.88299 0.21537 0.86517 0.0
C490 C 0.80748 0.21855 0.84589 0.0
C491 C 0.79359 0.2669 0.87272 0.0
C492 C 0.80751 0.29228 0.87322 0.0
C493 C 0.79325 0.3162 0.87388 0.0
C494 C 0.80691 0.33997 0.87556 0.0
C495 C 0.8349 0.33986 0.87677 0.0
C496 C 0.84913 0.31589 0.87548 0.0
C497 C 0.83552 0.29232 0.87366 0.0
C498 C 0.78445 0.17814 0.88144 0.0
C499 C 0.85086 0.19674 0.88504 0.0
O500 O 0.8247 0.15408 0.85273 0.0
O501 O 0.85346 0.14488 0.86422 0.0
O502 O 0.85937 0.22583 0.86373 0.0
O503 O 0.88033 0.1899 0.86645 0.0
O504 O 0.79311 0.22355 0.85366 0.0
O505 O 0.82876 0.2042 0.84792 0.0
O506 O 0.79338 0.25562 0.86423 0.0
O507 O 0.79966 0.25034 0.87966 0.0
O508 O 0.79157 0.17551 0.87236 0.0
O509 O 0.79275 0.20144 0.88405 0.0
O510 O 0.8414 0.17652 0.88027 0.0
O511 O 0.84789 0.22001 0.88099 0.0
H512 H 0.8544 0.08547 0.856 0.0
H513 H 0.88345 0.06231 0.8446 0.0
H514 H 0.8995 0.13697 0.82998 0.0
H515 H 0.86994 0.16008 0.84146 0.0
H516 H 0.7716 0.31636 0.87345 0.0
H517 H 0.79547 0.35822 0.87636 0.0
H518 H 0.8706 0.31488 0.87652 0.0
H519 H 0.84679 0.27388 0.8731 0.0
Pr520 Pr 0.6109 0.07386 0.61459 0.0
Pr521 Pr 0.58053 0.05524 0.62076 0.0
C522 C 0.6532 0.07553 0.60285 0.0
C523 C 0.65538 0.08232 0.59265 0.0
C524 C 0.64085 0.10388 0.58875 0.0
C525 C 0.63927 0.10723 0.57875 0.0
C526 C 0.65164 0.0887 0.57262 0.0
C527 C 0.66633 0.06735 0.57653 0.0
C528 C 0.66828 0.06426 0.5865 0.0
C529 C 0.58237 0.12369 0.6164 0.0
C530 C 0.57606 0.04858 0.59727 0.0
C531 C 0.53088 0.03687 0.62411 0.0
C532 C 0.5054 0.05084 0.62311 0.0
C533 C 0.48475 0.04527 0.62961 0.0
C534 C 0.46378 0.06339 0.63073 0.0
C535 C 0.46338 0.08732 0.62537 0.0
C536 C 0.48282 0.09153 0.6182 0.0
C537 C 0.50381 0.07347 0.61712 0.0
C538 C 0.6197 0.02612 0.63285 0.0
C539 C 0.60874 0.09177 0.63547 0.0
O540 O 0.6395 0.0538 0.60441 0.0
O541 O 0.64747 0.09493 0.60884 0.0
O542 O 0.57103 0.10053 0.61517 0.0
O543 O 0.60812 0.12038 0.61721 0.0
O544 O 0.57569 0.033 0.60496 0.0
O545 O 0.58667 0.07158 0.59939 0.0
O546 O 0.54379 0.03211 0.6161 0.0
O547 O 0.5462 0.04647 0.63088 0.0
O548 O 0.62312 0.03372 0.62386 0.0
O549 O 0.59583 0.03353 0.63523 0.0
O550 O 0.6273 0.08342 0.62964 0.0
O551 O 0.58405 0.08802 0.63269 0.0
H552 H 0.63009 0.11762 0.5934 0.0
H553 H 0.62803 0.12388 0.57579 0.0
H554 H 0.67641 0.05315 0.57186 0.0
H555 H 0.67905 0.04724 0.58942 0.0
H556 H 0.48598 0.02811 0.63438 0.0
H557 H 0.44935 0.05977 0.63643 0.0
H558 H 0.48289 0.10972 0.61395 0.0
H559 H 0.51984 0.07824 0.61214 0.0
Pr560 Pr 0.71653 0.86238 0.36273 0.0
Pr561 Pr 0.73643 0.82992 0.3684 0.0
C562 C 0.70717 0.90937 0.35406 0.0
C563 C 0.6889 0.91909 0.34665 0.0
C564 C 0.67955 0.94533 0.34723 0.0
C565 C 0.66153 0.95487 0.34036 0.0
C566 C 0.65268 0.93818 0.33284 0.0
C567 C 0.66161 0.91164 0.33242 0.0
C568 C 0.67952 0.90206 0.33935 0.0
C569 C 0.66728 0.83219 0.36399 0.0
C570 C 0.74274 0.82819 0.34476 0.0
C571 C 0.75685 0.78117 0.37196 0.0
C572 C 0.7434 0.75552 0.37227 0.0
C573 C 0.75416 0.73486 0.37786 0.0
C574 C 0.73856 0.71272 0.38006 0.0
C575 C 0.71199 0.71117 0.37671 0.0
C576 C 0.70192 0.73117 0.37058 0.0
C577 C 0.71752 0.75329 0.3684 0.0
C578 C 0.76555 0.86983 0.38024 0.0
C579 C 0.69924 0.85166 0.38367 0.0
O580 O 0.72601 0.893 0.35123 0.0
O581 O 0.69573 0.90222 0.36213 0.0
O582 O 0.69087 0.8217 0.36254 0.0
O583 O 0.66997 0.85765 0.36522 0.0
O584 O 0.75719 0.82361 0.35256 0.0
O585 O 0.72137 0.84243 0.34672 0.0
O586 O 0.75812 0.79256 0.36348 0.0
O587 O 0.74941 0.79749 0.37876 0.0
O588 O 0.75842 0.87249 0.37115 0.0
O589 O 0.75731 0.84653 0.38287 0.0
O590 O 0.70866 0.8718 0.37883 0.0
O591 O 0.70231 0.82827 0.37975 0.0
H592 H 0.68636 0.95847 0.35295 0.0
H593 H 0.65522 0.97554 0.34073 0.0
H594 H 0.65493 0.89846 0.3267 0.0
H595 H 0.68615 0.88149 0.33897 0.0
H596 H 0.77393 0.73664 0.38103 0.0
H597 H 0.74664 0.69784 0.38497 0.0
H598 H 0.68153 0.73041 0.36791 0.0
H599 H 0.70881 0.76937 0.36418 0.0
Pr600 Pr 0.93297 0.96105 0.11504 0.0
Pr601 Pr 0.96649 0.97987 0.12121 0.0
C602 C 0.88557 0.95205 0.10659 0.0
C603 C 0.87409 0.9341 0.09942 0.0
C604 C 0.85245 0.91816 0.10217 0.0
C605 C 0.84049 0.90136 0.09547 0.0
C606 C 0.8498 0.90056 0.08589 0.0
C607 C 0.8722 0.91577 0.08323 0.0
C608 C 0.8844 0.93238 0.08998 0.0
C609 C 0.96371 0.91182 0.11663 0.0
C610 C 0.96837 0.98616 0.09723 0.0
C611 C 1.01558 0.99878 0.12516 0.0
C612 C 0.0415 0.98612 0.12362 0.0
C613 C 0.06252 0.99176 0.12997 0.0
C614 C 0.08401 0.97412 0.13073 0.0
C615 C 0.08457 0.95059 0.12516 0.0
C616 C 0.06478 0.94654 0.11809 0.0
C617 C 0.04325 0.96412 0.11736 0.0
C618 C 0.9262 1.00983 0.13263 0.0
C619 C 0.94013 0.94466 0.13633 0.0
O620 O 0.90205 0.97045 0.10355 0.0
O621 O 0.89302 0.94073 0.11466 0.0
O622 O 0.97395 0.93517 0.11486 0.0
O623 O 0.93821 0.9147 0.11794 0.0
O624 O 0.97542 0.99882 0.10518 0.0
O625 O 0.95153 0.96673 0.09892 0.0
O626 O 1.00228 1.00549 0.11739 0.0
O627 O 1.00086 0.98653 0.13151 0.0
O628 O 0.92423 1.00324 0.12345 0.0
O629 O 0.94908 1.00076 0.1355 0.0
O630 O 0.92121 0.95428 0.13089 0.0
O631 O 0.96442 0.94649 0.13298 0.0
H632 H 0.84456 0.919 0.10948 0.0
H633 H 0.82348 0.88952 0.09771 0.0
H634 H 0.87957 0.91572 0.07585 0.0
H635 H 0.9014 0.94424 0.08776 0.0
H636 H 0.06116 1.00844 0.13494 0.0
H637 H 0.09871 0.97764 0.13636 0.0
H638 H 0.0648 0.92867 0.11368 0.0
H639 H 0.02691 0.9593 0.11251 0.0
Pr640 Pr 0.73639 0.71022 0.87066 0.0
Pr641 Pr 0.71611 0.67834 0.86513 0.0
C642 C 0.75988 0.75735 0.87432 0.0
C643 C 0.74844 0.78411 0.87477 0.0
C644 C 0.75501 0.80047 0.88261 0.0
C645 C 0.73949 0.82287 0.88463 0.0
C646 C 0.7173 0.8293 0.87877 0.0
C647 C 0.71196 0.81386 0.87051 0.0
C648 C 0.72726 0.79126 0.86857 0.0
C649 C 0.76301 0.66911 0.88285 0.0
C650 C 0.69562 0.69352 0.88551 0.0
C651 C 0.70773 0.63051 0.85705 0.0
C652 C 0.68992 0.6179 0.85007 0.0
C653 C 0.67624 0.59489 0.8529 0.0
C654 C 0.66012 0.58153 0.84632 0.0
C655 C 0.65773 0.59087 0.83676 0.0
C656 C 0.67056 0.61462 0.83403 0.0
C657 C 0.68651 0.62817 0.84068 0.0
C658 C 0.66711 0.70917 0.86576 0.0
C659 C 0.74233 0.71169 0.84701 0.0
O660 O 0.76056 0.74603 0.86583 0.0
O661 O 0.75136 0.74145 0.88108 0.0
O662 O 0.75775 0.66752 0.87359 0.0
O663 O 0.75345 0.69183 0.88558 0.0
O664 O 0.70382 0.67192 0.88117 0.0
O665 O 0.70172 0.7161 0.88145 0.0
O666 O 0.72544 0.64737 0.85375 0.0
O667 O 0.6966 0.63798 0.86514 0.0
O668 O 0.69093 0.71948 0.86467 0.0
O669 O 0.66943 0.68355 0.86677 0.0
O670 O 0.75684 0.71615 0.85478 0.0
O671 O 0.72083 0.69779 0.84901 0.0
H672 H 0.77091 0.79485 0.88757 0.0
H673 H 0.74381 0.83398 0.89118 0.0
H674 H 0.69514 0.81848 0.86583 0.0
H675 H 0.72152 0.77856 0.86257 0.0
H676 H 0.67842 0.58697 0.86018 0.0
H677 H 0.65008 0.56349 0.84862 0.0
H678 H 0.66921 0.62209 0.82667 0.0
H679 H 0.69663 0.64619 0.83839 0.0
Pr680 Pr 0.58216 0.4834 0.11843 0.0
Pr681 Pr 0.61323 0.46327 0.11277 0.0
C682 C 0.53272 0.50309 0.12142 0.0
C683 C 0.5075 0.48916 0.12259 0.0
C684 C 0.48366 0.5034 0.12375 0.0
C685 C 0.46028 0.48989 0.12618 0.0
C686 C 0.46074 0.46209 0.1276 0.0
C687 C 0.48446 0.4478 0.12582 0.0
C688 C 0.50766 0.46127 0.1233 0.0
C689 C 0.62153 0.51318 0.1302 0.0
C690 C 0.6068 0.44813 0.134 0.0
C691 C 0.65842 0.45457 0.10289 0.0
C692 C 0.66656 0.43794 0.09476 0.0
C693 C 0.65935 0.4109 0.09429 0.0
C694 C 0.66792 0.39531 0.08654 0.0
C695 C 0.6834 0.40672 0.07917 0.0
C696 C 0.69001 0.4339 0.07957 0.0
C697 C 0.68165 0.4494 0.08734 0.0
C698 C 0.58324 0.41425 0.1148 0.0
C699 C 0.57987 0.49003 0.09495 0.0
O700 O 0.54343 0.5014 0.11285 0.0
O701 O 0.54986 0.49888 0.12836 0.0
O702 O 0.62524 0.50433 0.12136 0.0
O703 O 0.59738 0.50676 0.13256 0.0
O704 O 0.62607 0.4566 0.12853 0.0
O705 O 0.58263 0.45113 0.1306 0.0
O706 O 0.64214 0.47425 0.10083 0.0
O707 O 0.65249 0.44207 0.1109 0.0
O708 O 0.5727 0.43767 0.11318 0.0
O709 O 0.60886 0.417 0.11587 0.0
O710 O 0.57829 0.50548 0.10263 0.0
O711 O 0.59113 0.46718 0.0971 0.0
H712 H 0.48338 0.52495 0.12316 0.0
H713 H 0.44216 0.50131 0.1274 0.0
H714 H 0.48565 0.42647 0.12701 0.0
H715 H 0.52606 0.45006 0.12242 0.0
H716 H 0.64734 0.40176 0.09991 0.0
H717 H 0.66254 0.3744 0.08632 0.0
H718 H 0.70228 0.44302 0.07402 0.0
H719 H 0.68719 0.47027 0.08762 0.0
Pr720 Pr 0.80788 0.32234 0.37082 0.0
Pr721 Pr 0.8277 0.35396 0.36483 0.0
C722 C 0.78976 0.27289 0.37432 0.0
C723 C 0.80426 0.24768 0.37366 0.0
C724 C 0.79941 0.22783 0.38054 0.0
C725 C 0.81785 0.20724 0.38184 0.0
C726 C 0.84137 0.20626 0.37623 0.0
C727 C 0.84503 0.22505 0.3688 0.0
C728 C 0.82669 0.24576 0.36757 0.0
C729 C 0.77795 0.36191 0.3825 0.0
C730 C 0.84314 0.34832 0.38609 0.0
C731 C 0.83477 0.39924 0.35492 0.0
C732 C 0.84875 0.40812 0.34627 0.0
C733 C 0.87571 0.4015 0.34465 0.0
C734 C 0.8887 0.41103 0.33644 0.0
C735 C 0.87474 0.42693 0.32975 0.0
C736 C 0.8476 0.43289 0.33128 0.0
C737 C 0.83472 0.42355 0.33951 0.0
C738 C 0.87678 0.32358 0.36675 0.0
C739 C 0.80148 0.31965 0.34716 0.0
O740 O 0.78528 0.28535 0.36617 0.0
O741 O 0.79868 0.28857 0.38109 0.0
O742 O 0.7868 0.36552 0.37366 0.0
O743 O 0.7841 0.33771 0.38485 0.0
O744 O 0.83441 0.3673 0.38051 0.0
O745 O 0.84059 0.3241 0.38282 0.0
O746 O 0.81431 0.38356 0.35347 0.0
O747 O 0.8496 0.39237 0.36232 0.0
O748 O 0.8533 0.31333 0.36505 0.0
O749 O 0.87407 0.34912 0.36792 0.0
O750 O 0.78659 0.31657 0.35494 0.0
O751 O 0.82354 0.33255 0.34913 0.0
H752 H 0.78249 0.2294 0.38541 0.0
H753 H 0.81463 0.19341 0.38775 0.0
H754 H 0.86281 0.22467 0.36432 0.0
H755 H 0.83099 0.26122 0.36231 0.0
H756 H 0.88679 0.38926 0.34976 0.0
H757 H 0.90961 0.40615 0.33534 0.0
H758 H 0.83657 0.44546 0.32627 0.0
H759 H 0.81387 0.42866 0.34066 0.0
Pr760 Pr 0.96768 0.55961 0.6187 0.0
Pr761 Pr 0.93567 0.57961 0.6128 0.0
C762 C 1.01709 0.5404 0.62218 0.0
C763 C 0.04293 0.5536 0.62193 0.0
C764 C 0.06428 0.54295 0.62722 0.0
C765 C 0.08686 0.55842 0.62894 0.0
C766 C 0.08817 0.58474 0.62541 0.0
C767 C 0.06748 0.5946 0.61952 0.0
C768 C 0.04492 0.57912 0.61781 0.0
C769 C 0.92828 0.52932 0.63033 0.0
C770 C 0.94192 0.59371 0.63415 0.0
C771 C 0.88981 0.58874 0.6033 0.0
C772 C 0.88051 0.60486 0.59516 0.0
C773 C 0.88406 0.63267 0.59499 0.0
C774 C 0.8739 0.64764 0.5873 0.0
C775 C 0.86039 0.63493 0.5797 0.0
C776 C 0.85751 0.60708 0.57979 0.0
C777 C 0.86748 0.59217 0.58748 0.0
C778 C 0.9662 0.62839 0.61477 0.0
C779 C 0.96982 0.55302 0.59504 0.0
O780 O 1.00503 0.53763 0.61387 0.0
O781 O 1.00128 0.54913 0.62896 0.0
O782 O 0.92452 0.5384 0.6215 0.0
O783 O 0.95246 0.53562 0.63269 0.0
O784 O 0.92297 0.58489 0.6286 0.0
O785 O 0.96616 0.59203 0.63076 0.0
O786 O 0.90565 0.56876 0.6012 0.0
O787 O 0.89673 0.60157 0.61113 0.0
O788 O 0.9764 0.60498 0.61293 0.0
O789 O 0.94067 0.62571 0.6161 0.0
O790 O 0.97354 0.53841 0.60286 0.0
O791 O 0.95641 0.57485 0.59696 0.0
H792 H 0.06273 0.52343 0.63056 0.0
H793 H 0.10227 0.55049 0.63368 0.0
H794 H 0.06804 0.6148 0.61672 0.0
H795 H 0.02835 0.58768 0.61378 0.0
H796 H 0.89434 0.64289 0.60081 0.0
H797 H 0.87639 0.6691 0.58734 0.0
H798 H 0.84676 0.59689 0.57407 0.0
H799 H 0.86464 0.57074 0.58752 0.0
Pr800 Pr 0.73835 0.32843 0.72068 0.0
Pr801 Pr 0.71755 0.36012 0.7262 0.0
C802 C 0.75919 0.27955 0.71781 0.0
C803 C 0.74601 0.25377 0.71753 0.0
C804 C 0.761 0.23027 0.71697 0.0
C805 C 0.74808 0.20604 0.71541 0.0
C806 C 0.72011 0.20527 0.71424 0.0
C807 C 0.70513 0.22882 0.71545 0.0
C808 C 0.71801 0.25286 0.71713 0.0
C809 C 0.76766 0.36807 0.70882 0.0
C810 C 0.7028 0.35083 0.7049 0.0
C811 C 0.70798 0.40686 0.73496 0.0
C812 C 0.69124 0.41701 0.74269 0.0
C813 C 0.67888 0.39958 0.74924 0.0
C814 C 0.66253 0.40979 0.75651 0.0
C815 C 0.65831 0.43743 0.75721 0.0
C816 C 0.67041 0.45465 0.75048 0.0
C817 C 0.68676 0.44444 0.74325 0.0
C818 C 0.66904 0.32911 0.7244 0.0
C819 C 0.74434 0.32709 0.7443 0.0
O820 O 0.75935 0.29126 0.72623 0.0
O821 O 0.75249 0.29557 0.71078 0.0
O822 O 0.75884 0.3717 0.71767 0.0
O823 O 0.76154 0.34388 0.70652 0.0
O824 O 0.71104 0.37063 0.71016 0.0
O825 O 0.70584 0.32714 0.70863 0.0
O826 O 0.72754 0.39096 0.73754 0.0
O827 O 0.69508 0.3989 0.72729 0.0
O828 O 0.69268 0.31917 0.72622 0.0
O829 O 0.67136 0.3546 0.72306 0.0
O830 O 0.75947 0.32385 0.7366 0.0
O831 O 0.72211 0.33976 0.74217 0.0
H832 H 0.78264 0.2308 0.71736 0.0
H833 H 0.76007 0.18813 0.71466 0.0
H834 H 0.68363 0.22912 0.71443 0.0
H835 H 0.7062 0.27098 0.7176 0.0
H836 H 0.68196 0.37823 0.74873 0.0
H837 H 0.6533 0.39619 0.76161 0.0
H838 H 0.66786 0.47607 0.75098 0.0
H839 H 0.69606 0.45796 0.73813 0.0
Pr840 Pr 0.96459 0.4781 0.97329 0.0
Pr841 Pr 0.93106 0.45794 0.97878 0.0
C842 C 1.01164 0.50199 0.96973 0.0
C843 C 0.02532 0.51015 0.96095 0.0
C844 C 0.0497 0.52356 0.96158 0.0
C845 C 0.06593 0.52559 0.95341 0.0
C846 C 0.05805 0.51363 0.94464 0.0
C847 C 0.03221 0.50276 0.94387 0.0
C848 C 1.01593 0.5011 0.95198 0.0
C849 C 0.92451 0.50534 0.96086 0.0
C850 C 0.94081 0.44207 0.9573 0.0
C851 C 0.8835 0.44863 0.98708 0.0
C852 C 0.87247 0.43043 0.9942 0.0
C853 C 0.84577 0.42276 0.99325 0.0
C854 C 0.83483 0.40473 0.99977 0.0
C855 C 0.85055 0.39416 1.00731 0.0
C856 C 0.87756 0.40146 1.00811 0.0
C857 C 0.88856 0.41943 1.00153 0.0
C858 C 0.96308 0.40984 0.97723 0.0
C859 C 0.96475 0.48326 0.99701 0.0
O860 O 1.00895 0.47627 0.97069 0.0
O861 O 0.99 0.51522 0.97188 0.0
O862 O 0.92188 0.49947 0.97007 0.0
O863 O 0.94768 0.4961 0.95829 0.0
O864 O 0.92084 0.44828 0.96291 0.0
O865 O 0.96471 0.44813 0.96039 0.0
O866 O 0.9 0.46684 0.99024 0.0
O867 O 0.8912 0.43739 0.97906 0.0
O868 O 0.97227 0.4332 0.97964 0.0
O869 O 0.93777 0.41219 0.97539 0.0
O870 O 0.97048 0.49732 0.98928 0.0
O871 O 0.94977 0.46255 0.99501 0.0
H872 H 0.05698 0.53077 0.9685 0.0
H873 H 0.08554 0.53449 0.95416 0.0
H874 H 0.02551 0.49304 0.93729 0.0
H875 H 0.99707 0.49064 0.95142 0.0
H876 H 0.83335 0.43087 0.9875 0.0
H877 H 0.81382 0.39977 0.9991 0.0
H878 H 0.89002 0.39347 1.01387 0.0
H879 H 0.90946 0.42482 1.00218 0.0
Pr880 Pr 0.81181 0.71621 0.21971 0.0
Pr881 Pr 0.83204 0.68344 0.2256 0.0
C882 C 0.79137 0.76498 0.21631 0.0
C883 C 0.80314 0.79108 0.21796 0.0
C884 C 0.79345 0.81312 0.21283 0.0
C885 C 0.80875 0.83624 0.21231 0.0
C886 C 0.83397 0.83737 0.21685 0.0
C887 C 0.84249 0.81596 0.22266 0.0
C888 C 0.82716 0.79289 0.2232 0.0
C889 C 0.78224 0.67621 0.20807 0.0
C890 C 0.84732 0.69227 0.20425 0.0
C891 C 0.84133 0.63602 0.23396 0.0
C892 C 0.85785 0.62395 0.24141 0.0
C893 C 0.86441 0.59699 0.24051 0.0
C894 C 0.88004 0.58466 0.24754 0.0
C895 C 0.88934 0.59926 0.25554 0.0
C896 C 0.88329 0.62656 0.25629 0.0
C897 C 0.86766 0.63894 0.24921 0.0
C898 C 0.88059 0.71459 0.22398 0.0
C899 C 0.80617 0.71804 0.24358 0.0
O900 O 0.78564 0.7512 0.22404 0.0
O901 O 0.80376 0.75098 0.20975 0.0
O902 O 0.79054 0.6731 0.21702 0.0
O903 O 0.78897 0.70008 0.20557 0.0
O904 O 0.83862 0.6728 0.20958 0.0
O905 O 0.84459 0.71616 0.2078 0.0
O906 O 0.82228 0.65213 0.23681 0.0
O907 O 0.85418 0.6444 0.22635 0.0
O908 O 0.85699 0.72443 0.22588 0.0
O909 O 0.87821 0.68918 0.22252 0.0
O910 O 0.79241 0.72389 0.23572 0.0
O911 O 0.82669 0.70248 0.24173 0.0
H912 H 0.77513 0.81176 0.20866 0.0
H913 H 0.80189 0.85223 0.20762 0.0
H914 H 0.86183 0.81636 0.22623 0.0
H915 H 0.83499 0.7758 0.22711 0.0
H916 H 0.85711 0.58539 0.23444 0.0
H917 H 0.88398 0.56348 0.24689 0.0
H918 H 0.89035 0.63816 0.26239 0.0
H919 H 0.863 0.65998 0.24986 0.0
Pr920 Pr 0.57768 0.55554 0.47194 0.0
Pr921 Pr 0.61089 0.57498 0.47779 0.0
C922 C 0.52746 0.53914 0.4684 0.0
C923 C 0.50337 0.55533 0.46742 0.0
C924 C 0.47833 0.54343 0.46634 0.0
C925 C 0.45601 0.55923 0.46424 0.0
C926 C 0.4587 0.58701 0.46307 0.0
C927 C 0.48371 0.59888 0.46473 0.0
C928 C 0.50583 0.58314 0.46693 0.0
C929 C 0.61692 0.52453 0.46044 0.0
C930 C 0.6036 0.58936 0.45647 0.0
C931 C 0.65779 0.58432 0.48658 0.0
C932 C 0.66804 0.60206 0.49401 0.0
C933 C 0.69415 0.61157 0.49309 0.0
C934 C 0.70432 0.62914 0.49993 0.0
C935 C 0.6884 0.63739 0.50776 0.0
C936 C 0.66197 0.62825 0.50855 0.0
C937 C 0.65175 0.61076 0.50165 0.0
C938 C 0.58031 0.62411 0.47591 0.0
C939 C 0.57697 0.54797 0.49557 0.0
O940 O 0.53806 0.53866 0.47703 0.0
O941 O 0.54506 0.54301 0.46161 0.0
O942 O 0.62049 0.53313 0.46933 0.0
O943 O 0.59298 0.53162 0.45796 0.0
O944 O 0.6226 0.57963 0.46183 0.0
O945 O 0.57952 0.58843 0.46002 0.0
O946 O 0.64145 0.56552 0.48939 0.0
O947 O 0.65041 0.59612 0.4786 0.0
O948 O 0.57021 0.60084 0.47787 0.0
O949 O 0.60577 0.6212 0.47448 0.0
O950 O 0.5723 0.53387 0.4877 0.0
O951 O 0.59097 0.56942 0.49371 0.0
H952 H 0.47622 0.52197 0.46677 0.0
H953 H 0.43689 0.54961 0.46313 0.0
H954 H 0.48668 0.62009 0.46374 0.0
H955 H 0.52515 0.59258 0.46776 0.0
H956 H 0.70672 0.60524 0.48712 0.0
H957 H 0.72491 0.63556 0.49926 0.0
H958 H 0.64939 0.63446 0.51453 0.0
H959 H 0.63127 0.60396 0.50231 0.0
Pr960 Pr 0.32622 0.34895 0.22717 0.0
Pr961 Pr 0.30659 0.32291 0.22186 0.0
C962 C 0.31397 0.38888 0.23899 0.0
C963 C 0.31307 0.39053 0.24949 0.0
C964 C 0.33148 0.37616 0.25517 0.0
C965 C 0.32875 0.37562 0.26518 0.0
C966 C 0.3076 0.38942 0.2696 0.0
C967 C 0.28902 0.40345 0.26386 0.0
C968 C 0.29174 0.40394 0.25385 0.0
C969 C 0.37589 0.32127 0.22715 0.0
C970 C 0.30281 0.31566 0.24507 0.0
C971 C 0.28971 0.2748 0.21585 0.0
C972 C 0.30471 0.24989 0.21521 0.0
C973 C 0.29969 0.23231 0.20758 0.0
C974 C 0.31734 0.21134 0.20579 0.0
C975 C 0.34021 0.20776 0.21163 0.0
C976 C 0.34431 0.22458 0.21961 0.0
C977 C 0.32675 0.24559 0.22136 0.0
C978 C 0.27583 0.36431 0.21117 0.0
C979 C 0.351 0.34772 0.20774 0.0
O980 O 0.2957 0.37317 0.23527 0.0
O981 O 0.33779 0.38628 0.23511 0.0
O982 O 0.35239 0.30974 0.22688 0.0
O983 O 0.37308 0.34718 0.22748 0.0
O984 O 0.28577 0.31832 0.2379 0.0
O985 O 0.32647 0.32329 0.24221 0.0
O986 O 0.28563 0.28371 0.22458 0.0
O987 O 0.29763 0.29332 0.20991 0.0
O988 O 0.30109 0.36314 0.21282 0.0
O989 O 0.26558 0.34543 0.21645 0.0
O990 O 0.34749 0.36641 0.21413 0.0
O991 O 0.33908 0.32492 0.20943 0.0
H992 H 0.34781 0.3652 0.25187 0.0
H993 H 0.34329 0.36474 0.2695 0.0
H994 H 0.27288 0.41476 0.26713 0.0
H995 H 0.27715 0.41467 0.2495 0.0
H996 H 0.28301 0.23569 0.20269 0.0
H997 H 0.31396 0.19903 0.19946 0.0
H998 H 0.36167 0.22217 0.22425 0.0
H999 H 0.3311 0.2592 0.22724 0.0
Pr1000 Pr 0.43678 0.58059 0.97569 0.0
Pr1001 Pr 0.46843 0.56081 0.96975 0.0
C1002 C 0.39142 0.58713 0.98567 0.0
C1003 C 0.38243 0.60049 0.99443 0.0
C1004 C 0.38898 0.62721 0.99631 0.0
C1005 C 0.37941 0.63956 1.00465 0.0
C1006 C 0.36357 0.62519 1.01119 0.0
C1007 C 0.35764 0.5983 1.00938 0.0
C1008 C 0.36701 0.58606 1.00103 0.0
C1009 C 0.4667 0.62966 0.97385 0.0
C1010 C 0.47125 0.55453 0.99342 0.0
C1011 C 0.51816 0.54231 0.96653 0.0
C1012 C 0.54353 0.55626 0.96758 0.0
C1013 C 0.56432 0.5507 0.96112 0.0
C1014 C 0.58513 0.56885 0.96001 0.0
C1015 C 0.58526 0.59281 0.96533 0.0
C1016 C 0.56568 0.59702 0.97245 0.0
C1017 C 0.54483 0.57893 0.97353 0.0
C1018 C 0.42898 0.53098 0.958 0.0
C1019 C 0.44176 0.59593 0.95442 0.0
O1020 O 0.40733 0.56667 0.98697 0.0
O1021 O 0.39816 0.60235 0.97839 0.0
O1022 O 0.47731 0.60623 0.97543 0.0
O1023 O 0.44108 0.62687 0.9727 0.0
O1024 O 0.47411 0.53958 0.98566 0.0
O1025 O 0.45848 0.57669 0.99141 0.0
O1026 O 0.50513 0.53752 0.97452 0.0
O1027 O 0.50293 0.55197 0.95971 0.0
O1028 O 0.42539 0.53977 0.96684 0.0
O1029 O 0.45323 0.53706 0.95567 0.0
O1030 O 0.4229 0.58749 0.96008 0.0
O1031 O 0.46618 0.59312 0.95761 0.0
H1032 H 0.40121 0.63858 0.99133 0.0
H1033 H 0.38425 0.66029 1.00597 0.0
H1034 H 0.3451 0.58697 1.01427 0.0
H1035 H 0.36195 0.5654 0.99967 0.0
H1036 H 0.56329 0.53353 0.95638 0.0
H1037 H 0.59966 0.56523 0.95434 0.0
H1038 H 0.5654 0.61522 0.97668 0.0
H1039 H 0.52869 0.58371 0.97847 0.0
Pr1040 Pr 0.21873 0.67861 0.72824 0.0
Pr1041 Pr 0.23783 0.71172 0.72221 0.0
C1042 C 0.21005 0.63193 0.73715 0.0
C1043 C 0.19233 0.62218 0.74469 0.0
C1044 C 0.18255 0.59619 0.74399 0.0
C1045 C 0.16496 0.58662 0.75095 0.0
C1046 C 0.157 0.60301 0.75868 0.0
C1047 C 0.16638 0.62931 0.75924 0.0
C1048 C 0.18387 0.63894 0.75222 0.0
C1049 C 0.1692 0.70878 0.72658 0.0
C1050 C 0.2446 0.71371 0.74594 0.0
C1051 C 0.25569 0.76114 0.71832 0.0
C1052 C 0.24091 0.78623 0.71838 0.0
C1053 C 0.24779 0.80626 0.7118 0.0
C1054 C 0.22961 0.82661 0.70972 0.0
C1055 C 0.2043 0.82699 0.71419 0.0
C1056 C 0.19849 0.80817 0.72142 0.0
C1057 C 0.21663 0.7878 0.72346 0.0
C1058 C 0.2683 0.67195 0.71075 0.0
C1059 C 0.20277 0.6859 0.70701 0.0
O1060 O 0.22892 0.64837 0.73982 0.0
O1061 O 0.19806 0.63892 0.72915 0.0
O1062 O 0.19257 0.7192 0.72828 0.0
O1063 O 0.17222 0.68335 0.72528 0.0
O1064 O 0.25844 0.71896 0.73806 0.0
O1065 O 0.22382 0.69863 0.74415 0.0
O1066 O 0.25913 0.74961 0.72671 0.0
O1067 O 0.24777 0.74464 0.71166 0.0
O1068 O 0.26089 0.66935 0.71982 0.0
O1069 O 0.26 0.69521 0.70802 0.0
O1070 O 0.21263 0.66692 0.71234 0.0
O1071 O 0.20424 0.70996 0.7105 0.0
H1072 H 0.18866 0.58327 0.7381 0.0
H1073 H 0.15829 0.56612 0.75047 0.0
H1074 H 0.16038 0.64227 0.76514 0.0
H1075 H 0.19084 0.65933 0.75271 0.0
H1076 H 0.26625 0.80498 0.70771 0.0
H1077 H 0.23447 0.84058 0.70399 0.0
H1078 H 0.1792 0.8081 0.72499 0.0
H1079 H 0.21083 0.77221 0.72847 0.0
Pr1080 Pr 0.10893 0.46559 0.4751 0.0
Pr1081 Pr 0.08299 0.48573 0.47033 0.0
C1082 C 0.15037 0.47673 0.48646 0.0
C1083 C 0.15304 0.47729 0.49693 0.0
C1084 C 0.138 0.45981 0.50269 0.0
C1085 C 0.13777 0.46283 0.5127 0.0
C1086 C 0.15258 0.48332 0.51701 0.0
C1087 C 0.16768 0.50071 0.51121 0.0
C1088 C 0.16782 0.49773 0.5012 0.0
C1089 C 0.08126 0.4162 0.47531 0.0
C1090 C 0.07671 0.48945 0.49341 0.0
C1091 C 0.03475 0.50428 0.46473 0.0
C1092 C 1.00996 0.48968 0.46325 0.0
C1093 C 0.98529 0.50288 0.46353 0.0
C1094 C 0.96171 0.48846 0.46229 0.0
C1095 C 0.96268 0.46074 0.46075 0.0
C1096 C 0.98754 0.44759 0.46077 0.0
C1097 C 1.01096 0.46193 0.46208 0.0
C1098 C 0.12468 0.51582 0.45951 0.0
C1099 C 0.10508 0.44142 0.45564 0.0
O1100 O 0.13442 0.4953 0.48301 0.0
O1101 O 0.14702 0.45314 0.48255 0.0
O1102 O 0.06973 0.43976 0.47518 0.0
O1103 O 0.10726 0.41885 0.47539 0.0
O1104 O 0.07963 0.50664 0.48634 0.0
O1105 O 0.08368 0.46577 0.49034 0.0
O1106 O 0.04296 0.50483 0.47367 0.0
O1107 O 0.05387 0.49878 0.45866 0.0
O1108 O 0.1216 0.49058 0.4605 0.0
O1109 O 0.10789 0.52618 0.46567 0.0
O1110 O 0.12469 0.44445 0.46172 0.0
O1111 O 0.08264 0.45369 0.45776 0.0
H1112 H 0.12606 0.44416 0.49947 0.0
H1113 H 0.126 0.44925 0.51706 0.0
H1114 H 0.17972 0.51631 0.51442 0.0
H1115 H 0.17911 0.51159 0.49678 0.0
H1116 H 0.9843 0.52424 0.46464 0.0
H1117 H 0.94278 0.49903 0.46239 0.0
H1118 H 0.98908 0.42636 0.45942 0.0
H1119 H 0.02989 0.45138 0.46202 0.0
Pr1120 Pr 0.33119 0.69084 0.36385 0.0
Pr1121 Pr 0.30983 0.71583 0.36782 0.0
C1122 C 0.32481 0.64487 0.35461 0.0
C1123 C 0.32512 0.62663 0.34641 0.0
C1124 C 0.34574 0.60768 0.34588 0.0
C1125 C 0.34309 0.58564 0.33991 0.0
C1126 C 0.31979 0.58234 0.33437 0.0
C1127 C 0.30012 0.60239 0.33431 0.0
C1128 C 0.30272 0.62443 0.34034 0.0
C1129 C 0.38018 0.71882 0.36358 0.0
C1130 C 0.30651 0.72014 0.3449 0.0
C1131 C 0.28819 0.76365 0.37213 0.0
C1132 C 0.3016 0.7888 0.37406 0.0
C1133 C 0.28709 0.81258 0.37477 0.0
C1134 C 0.30038 0.83633 0.37686 0.0
C1135 C 0.32826 0.83636 0.37832 0.0
C1136 C 0.34272 0.81247 0.37726 0.0
C1137 C 0.32949 0.78895 0.37509 0.0
C1138 C 0.28094 0.67392 0.37906 0.0
C1139 C 0.35309 0.70027 0.38374 0.0
O1140 O 0.30516 0.66214 0.35556 0.0
O1141 O 0.34767 0.65222 0.35837 0.0
O1142 O 0.35638 0.72996 0.36336 0.0
O1143 O 0.37791 0.69294 0.36392 0.0
O1144 O 0.28902 0.71544 0.35172 0.0
O1145 O 0.33047 0.71562 0.34839 0.0
O1146 O 0.29085 0.75499 0.36331 0.0
O1147 O 0.29229 0.74509 0.37857 0.0
O1148 O 0.30602 0.67879 0.37844 0.0
O1149 O 0.27033 0.68888 0.37233 0.0
O1150 O 0.3513 0.67958 0.37815 0.0
O1151 O 0.33989 0.72145 0.3809 0.0
H1152 H 0.36304 0.60878 0.35062 0.0
H1153 H 0.35839 0.5703 0.34019 0.0
H1154 H 0.28215 0.60036 0.32998 0.0
H1155 H 0.28648 0.63878 0.34067 0.0
H1156 H 0.26556 0.81271 0.37385 0.0
H1157 H 0.2888 0.85453 0.37756 0.0
H1158 H 0.3641 0.81161 0.37853 0.0
H1159 H 0.34102 0.77075 0.37444 0.0
Pr1160 Pr 0.10826 0.57573 0.11542 0.0
Pr1161 Pr 0.07511 0.55706 0.12153 0.0
C1162 C 0.15547 0.58322 0.10665 0.0
C1163 C 0.16747 0.60005 0.09931 0.0
C1164 C 0.1946 0.60615 0.10019 0.0
C1165 C 0.20676 0.62238 0.09335 0.0
C1166 C 0.19185 0.63274 0.08557 0.0
C1167 C 0.16442 0.62707 0.08483 0.0
C1168 C 0.1522 0.61086 0.09172 0.0
C1169 C 0.07819 0.62527 0.11703 0.0
C1170 C 0.07346 0.54941 0.09784 0.0
C1171 C 0.02528 0.53971 0.12513 0.0
C1172 C 1.00026 0.55462 0.12481 0.0
C1173 C 0.9757 0.54143 0.12475 0.0
C1174 C 0.952 0.55611 0.12542 0.0
C1175 C 0.95276 0.58408 0.12631 0.0
C1176 C 0.97753 0.59719 0.12574 0.0
C1177 C 1.00106 0.58256 0.12493 0.0
C1178 C 0.11477 0.52631 0.13291 0.0
C1179 C 0.10208 0.59211 0.13667 0.0
O1180 O 0.13818 0.56545 0.10374 0.0
O1181 O 0.14846 0.5955 0.11456 0.0
O1182 O 0.06767 0.60202 0.11536 0.0
O1183 O 0.10373 0.62218 0.11826 0.0
O1184 O 0.06843 0.53579 0.10579 0.0
O1185 O 0.08824 0.57042 0.09952 0.0
O1186 O 0.037 0.53636 0.1168 0.0
O1187 O 0.04174 0.5472 0.13191 0.0
O1188 O 0.11724 0.5336 0.12383 0.0
O1189 O 0.09165 0.53489 0.13571 0.0
O1190 O 0.12078 0.58237 0.1312 0.0
O1191 O 0.07766 0.59001 0.13343 0.0
H1192 H 0.20643 0.59811 0.10611 0.0
H1193 H 0.22805 0.62604 0.09398 0.0
H1194 H 0.15258 0.63494 0.07888 0.0
H1195 H 0.13103 0.6066 0.0911 0.0
H1196 H 0.97489 0.51985 0.12451 0.0
H1197 H 0.93318 0.54549 0.12567 0.0
H1198 H 0.97906 0.61861 0.12655 0.0
H1199 H 1.01999 0.59303 0.12487 0.0
Pr1200 Pr 0.21946 0.35977 0.86255 0.0
Pr1201 Pr 0.239 0.32738 0.86847 0.0
C1202 C 0.21136 0.40656 0.85355 0.0
C1203 C 0.1935 0.41707 0.84614 0.0
C1204 C 0.1849 0.44353 0.84688 0.0
C1205 C 0.16712 0.45392 0.84009 0.0
C1206 C 0.15776 0.43789 0.83248 0.0
C1207 C 0.16606 0.41117 0.83184 0.0
C1208 C 0.18375 0.40072 0.83869 0.0
C1209 C 0.16983 0.33013 0.86382 0.0
C1210 C 0.24588 0.3253 0.8448 0.0
C1211 C 0.25816 0.2783 0.87224 0.0
C1212 C 0.24335 0.25358 0.87341 0.0
C1213 C 0.25674 0.22919 0.87421 0.0
C1214 C 0.24235 0.20614 0.87635 0.0
C1215 C 0.21452 0.20746 0.87787 0.0
C1216 C 0.20111 0.23188 0.87653 0.0
C1217 C 0.21543 0.25471 0.87424 0.0
C1218 C 0.26814 0.36751 0.8802 0.0
C1219 C 0.20141 0.35008 0.88342 0.0
O1220 O 0.22954 0.38939 0.85076 0.0
O1221 O 0.19974 0.4001 0.86166 0.0
O1222 O 0.19339 0.31929 0.86269 0.0
O1223 O 0.17265 0.35571 0.86468 0.0
O1224 O 0.26031 0.32116 0.85266 0.0
O1225 O 0.22429 0.33924 0.84668 0.0
O1226 O 0.25771 0.28845 0.86355 0.0
O1227 O 0.25356 0.29594 0.87894 0.0
O1228 O 0.26106 0.36997 0.87109 0.0
O1229 O 0.26004 0.34419 0.88289 0.0
O1230 O 0.2113 0.36995 0.87858 0.0
O1231 O 0.20416 0.32651 0.87965 0.0
H1232 H 0.19205 0.45619 0.85269 0.0
H1233 H 0.16135 0.47471 0.84063 0.0
H1234 H 0.159 0.39849 0.82603 0.0
H1235 H 0.18985 0.38002 0.83816 0.0
H1236 H 0.27829 0.22813 0.87347 0.0
H1237 H 0.25314 0.18751 0.87718 0.0
H1238 H 0.17981 0.23381 0.87779 0.0
H1239 H 0.20482 0.2735 0.87357 0.0
Pr1240 Pr 0.44101 0.4589 0.6159 0.0
Pr1241 Pr 0.46929 0.48021 0.62085 0.0
C1242 C 0.39567 0.46303 0.60616 0.0
C1243 C 0.37075 0.46531 0.60081 0.0
C1244 C 0.34995 0.44724 0.60253 0.0
C1245 C 0.32551 0.4506 0.59787 0.0
C1246 C 0.32177 0.47198 0.59143 0.0
C1247 C 0.34287 0.48961 0.58955 0.0
C1248 C 0.36721 0.48634 0.59424 0.0
C1249 C 0.4702 0.41046 0.61611 0.0
C1250 C 0.47286 0.48422 0.59745 0.0
C1251 C 0.51755 0.49861 0.62623 0.0
C1252 C 0.5429 0.48438 0.62703 0.0
C1253 C 0.56711 0.49822 0.62688 0.0
C1254 C 0.59121 0.48424 0.62768 0.0
C1255 C 0.59122 0.4563 0.62872 0.0
C1256 C 0.56678 0.44254 0.62848 0.0
C1257 C 0.54285 0.45646 0.62757 0.0
C1258 C 0.42723 0.51068 0.63149 0.0
C1259 C 0.45038 0.4381 0.63628 0.0
O1260 O 0.41222 0.48322 0.60698 0.0
O1261 O 0.40293 0.44066 0.61034 0.0
O1262 O 0.48116 0.43417 0.61553 0.0
O1263 O 0.44428 0.4126 0.61665 0.0
O1264 O 0.47393 0.50049 0.60485 0.0
O1265 O 0.46263 0.46131 0.60004 0.0
O1266 O 0.50838 0.50076 0.61743 0.0
O1267 O 0.49925 0.49151 0.63242 0.0
O1268 O 0.4287 0.48544 0.62999 0.0
O1269 O 0.44591 0.52086 0.6261 0.0
O1270 O 0.42963 0.44168 0.63072 0.0
O1271 O 0.47274 0.44888 0.63341 0.0
H1272 H 0.35235 0.43096 0.60763 0.0
H1273 H 0.30939 0.43689 0.59945 0.0
H1274 H 0.34054 0.50593 0.58445 0.0
H1275 H 0.38318 0.50035 0.59279 0.0
H1276 H 0.56735 0.51975 0.62625 0.0
H1277 H 0.60976 0.49533 0.62772 0.0
H1278 H 0.56593 0.42111 0.62944 0.0
H1279 H 0.52427 0.44543 0.62751 0.0
C1280 C 0.17411 0.36203 0.37778 0.0
C1281 C 0.20066 0.35569 0.38029 0.0
C1282 C 0.15944 0.37988 0.38342 0.0
C1283 C 0.1645 0.42678 0.40408 0.0
H1284 H 0.10316 0.38779 0.41384 0.0
C1285 C 0.13664 0.42464 0.44345 0.0
C1286 C 0.11024 0.43107 0.44598 0.0
C1287 C 0.1433 0.4208 0.43382 0.0
C1288 C 0.11977 0.39927 0.41102 0.0
H1289 H 0.23322 0.36458 0.39022 0.0
H1290 H 0.20792 0.39569 0.39989 0.0
H1291 H 0.12365 0.37439 0.39859 0.0
H1292 H 0.06972 0.43687 0.44069 0.0
H1293 H 0.08144 0.4289 0.42367 0.0
H1294 H 0.16195 0.45006 0.41702 0.0
C1295 C 0.19843 0.38724 0.39354 0.0
C1296 C 0.13142 0.39176 0.40229 0.0
C1297 C 0.213 0.36934 0.38796 0.0
C1298 C 0.0902 0.43183 0.43885 0.0
C1299 C 0.09686 0.42758 0.42918 0.0
C1300 C 0.15298 0.43412 0.41284 0.0
C1301 C 0.17123 0.39175 0.39156 0.0
C1302 C 0.15463 0.40468 0.39899 0.0
C1303 C 0.12359 0.42294 0.42663 0.0
C1304 C 0.13134 0.41959 0.41652 0.0
H1305 H 0.16421 0.35203 0.37183 0.0
H1306 H 0.1385 0.38322 0.38175 0.0
H1307 H 0.18224 0.43714 0.40163 0.0
H1308 H 0.15248 0.42394 0.44882 0.0
H1309 H 0.16394 0.41654 0.43196 0.0
C1310 C 0.95765 0.90914 0.63264 0.0
C1311 C 0.94651 0.93465 0.63122 0.0
C1312 C 0.94513 0.89091 0.63871 0.0
C1313 C 0.93142 0.87515 0.659 0.0
H1314 H 0.85564 0.86492 0.66367 0.0
C1315 C 0.88508 0.8664 0.6963 0.0
C1316 C 0.86676 0.84578 0.69783 0.0
C1317 C 0.89518 0.87083 0.68709 0.0
C1318 C 0.87687 0.86717 0.66232 0.0
H1319 H 0.91233 0.96008 0.63418 0.0
H1320 H 0.8908 0.92842 0.64506 0.0
H1321 H 0.87046 0.88334 0.64813 0.0
H1322 H 0.84452 0.81346 0.69123 0.0
H1323 H 0.86209 0.82159 0.67493 0.0
H1324 H 0.93772 0.86039 0.67337 0.0
C1325 C 0.90899 0.92245 0.64137 0.0
C1326 C 0.88528 0.87778 0.65351 0.0
C1327 C 0.92143 0.94066 0.63524 0.0
C1328 C 0.85899 0.82922 0.69016 0.0
C1329 C 0.86879 0.83394 0.68089 0.0
C1330 C 0.92302 0.86474 0.66779 0.0
C1331 C 0.92146 0.89798 0.64349 0.0
C1332 C 0.91257 0.88239 0.65189 0.0
C1333 C 0.88677 0.85486 0.67934 0.0
C1334 C 0.89571 0.86135 0.66957 0.0
H1335 H 0.97712 0.90396 0.62975 0.0
H1336 H 0.95495 0.87204 0.64021 0.0
H1337 H 0.95256 0.87904 0.65801 0.0
H1338 H 0.89114 0.87943 0.70216 0.0
H1339 H 0.9088 0.88732 0.68596 0.0
C1340 C 0.33253 0.66244 0.88679 0.0
C1341 C 0.34425 0.67725 0.87927 0.0
C1342 C 0.34769 0.64414 0.89202 0.0
C1343 C 0.41409 0.64183 0.90085 0.0
H1344 H 0.38781 0.57911 0.91422 0.0
C1345 C 0.4561 0.60682 0.93765 0.0
C1346 C 0.43563 0.60285 0.94443 0.0
C1347 C 0.44978 0.6096 0.92786 0.0
C1348 C 0.39561 0.59639 0.91044 0.0
H1349 H 0.38017 0.68229 0.87062 0.0
H1350 H 0.40699 0.65077 0.88007 0.0
H1351 H 0.36697 0.59293 0.89899 0.0
H1352 H 0.39266 0.59936 0.94649 0.0
H1353 H 0.38173 0.60474 0.92953 0.0
H1354 H 0.44113 0.64664 0.91271 0.0
C1355 C 0.38603 0.65342 0.88184 0.0
C1356 C 0.38381 0.60417 0.90175 0.0
C1357 C 0.37074 0.67153 0.8765 0.0
C1358 C 0.40885 0.60239 0.94139 0.0
C1359 C 0.4026 0.60502 0.93167 0.0
C1360 C 0.42581 0.6341 0.90956 0.0
C1361 C 0.37488 0.64049 0.88988 0.0
C1362 C 0.39214 0.62765 0.89715 0.0
C1363 C 0.42301 0.60825 0.92482 0.0
C1364 C 0.41572 0.61212 0.91463 0.0
H1365 H 0.31237 0.66659 0.88925 0.0
H1366 H 0.33873 0.63476 0.89831 0.0
H1367 H 0.42058 0.66027 0.89751 0.0
H1368 H 0.4769 0.60705 0.93987 0.0
H1369 H 0.46576 0.61236 0.92266 0.0
C1370 C 0.68409 0.20922 0.19076 0.0
C1371 C 0.68104 0.18871 0.19758 0.0
C1372 C 0.67501 0.2056 0.18132 0.0
C1373 C 0.62651 0.17282 0.16708 0.0
H1374 H 0.6795 0.16103 0.14695 0.0
C1375 C 0.62985 0.10279 0.13334 0.0
C1376 C 0.60437 0.10845 0.12954 0.0
C1377 C 0.64218 0.12083 0.13957 0.0
C1378 C 0.66455 0.16481 0.15246 0.0
H1379 H 0.66582 0.14894 0.20027 0.0
H1380 H 0.64902 0.143 0.18377 0.0
H1381 H 0.69369 0.17698 0.16297 0.0
H1382 H 0.57308 0.13861 0.12847 0.0
H1383 H 0.59498 0.17018 0.13912 0.0
H1384 H 0.5975 0.15929 0.15693 0.0
C1385 C 0.65864 0.16159 0.1857 0.0
C1386 C 0.6726 0.17394 0.16154 0.0
C1387 C 0.66818 0.16496 0.19506 0.0
C1388 C 0.59284 0.13368 0.13119 0.0
C1389 C 0.60522 0.15173 0.13735 0.0
C1390 C 0.61843 0.16402 0.15802 0.0
C1391 C 0.66235 0.18177 0.1788 0.0
C1392 C 0.65362 0.1772 0.16891 0.0
C1393 C 0.62918 0.14476 0.14201 0.0
C1394 C 0.63747 0.15926 0.15073 0.0
H1395 H 0.69434 0.22752 0.19261 0.0
H1396 H 0.678 0.2212 0.17599 0.0
H1397 H 0.6118 0.17506 0.17279 0.0
H1398 H 0.63926 0.0836 0.1321 0.0
H1399 H 0.66061 0.11497 0.14314 0.0
C1400 C 0.21647 0.66628 0.20188 0.0
C1401 C 0.2061 0.67984 0.20998 0.0
C1402 C 0.20071 0.64834 0.19679 0.0
C1403 C 0.13357 0.64423 0.18928 0.0
H1404 H 0.1588 0.58028 0.17637 0.0
C1405 C 0.08844 0.60477 0.15341 0.0
C1406 C 0.10852 0.60037 0.14651 0.0
C1407 C 0.09541 0.60894 0.16309 0.0
C1408 C 0.15127 0.59789 0.18002 0.0
H1409 H 0.17179 0.68304 0.21959 0.0
H1410 H 0.14376 0.65254 0.21029 0.0
H1411 H 0.18144 0.59568 0.191 0.0
H1412 H 0.15143 0.59785 0.14407 0.0
H1413 H 0.16343 0.60544 0.16079 0.0
H1414 H 0.10502 0.64784 0.17778 0.0
C1415 C 0.16424 0.65582 0.20803 0.0
C1416 C 0.16411 0.60656 0.18838 0.0
C1417 C 0.18024 0.6734 0.21328 0.0
C1418 C 0.13551 0.60102 0.14927 0.0
C1419 C 0.1424 0.60499 0.15887 0.0
C1420 C 0.12084 0.63565 0.18087 0.0
C1421 C 0.17416 0.64385 0.1996 0.0
C1422 C 0.15611 0.63044 0.19279 0.0
C1423 C 0.12244 0.60848 0.16588 0.0
C1424 C 0.13054 0.61321 0.17594 0.0
H1425 H 0.23597 0.671 0.19896 0.0
H1426 H 0.20861 0.63968 0.19019 0.0
H1427 H 0.12734 0.66293 0.19251 0.0
H1428 H 0.06749 0.60422 0.15139 0.0
H1429 H 0.07978 0.61196 0.16841 0.0
C1430 C 0.67688 0.8341 0.39836 0.0
C1431 C 0.68988 0.85496 0.39354 0.0
C1432 C 0.66936 0.83719 0.408 0.0
C1433 C 0.6831 0.87638 0.4297 0.0
H1434 H 0.60713 0.87009 0.43473 0.0
C1435 C 0.62736 0.94147 0.45643 0.0
C1436 C 0.60284 0.93277 0.46021 0.0
C1437 C 0.64241 0.92474 0.45052 0.0
C1438 C 0.62855 0.87114 0.43363 0.0
H1439 H 0.70566 0.89515 0.39484 0.0
H1440 H 0.69235 0.90054 0.41163 0.0
H1441 H 0.62515 0.8537 0.41956 0.0
H1442 H 0.57629 0.89869 0.46161 0.0
H1443 H 0.60345 0.86908 0.45182 0.0
H1444 H 0.68642 0.8948 0.4436 0.0
C1445 C 0.68822 0.88179 0.40803 0.0
C1446 C 0.63877 0.86183 0.42491 0.0
C1447 C 0.69543 0.87884 0.39841 0.0
C1448 C 0.59516 0.90606 0.45887 0.0
C1449 C 0.61052 0.88916 0.45313 0.0
C1450 C 0.67294 0.88541 0.43849 0.0
C1451 C 0.6752 0.861 0.41288 0.0
C1452 C 0.66587 0.86535 0.42277 0.0
C1453 C 0.63346 0.89881 0.44847 0.0
C1454 C 0.64539 0.88383 0.44036 0.0
H1455 H 0.67253 0.81552 0.39468 0.0
H1456 H 0.65908 0.82107 0.41165 0.0
H1457 H 0.70417 0.87909 0.42814 0.0
H1458 H 0.63405 0.96178 0.45751 0.0
H1459 H 0.6599 0.93291 0.44698 0.0
C1460 C 0.46756 0.43099 0.65298 0.0
C1461 C 0.4471 0.42791 0.64608 0.0
C1462 C 0.46213 0.42691 0.66277 0.0
C1463 C 0.43882 0.39685 0.6814 0.0
H1464 H 0.3788 0.4396 0.69035 0.0
C1465 C 0.34154 0.37276 0.70254 0.0
C1466 C 0.35156 0.35831 0.71049 0.0
C1467 C 0.35809 0.38988 0.69741 0.0
C1468 C 0.39597 0.42795 0.68806 0.0
H1469 H 0.40574 0.41634 0.64376 0.0
H1470 H 0.39637 0.40931 0.66085 0.0
H1471 H 0.40091 0.45095 0.67512 0.0
H1472 H 0.38602 0.35257 0.7199 0.0
H1473 H 0.41529 0.38208 0.71066 0.0
H1474 H 0.43214 0.3721 0.69375 0.0
C1475 C 0.41635 0.41522 0.6587 0.0
C1476 C 0.40855 0.43445 0.67941 0.0
C1477 C 0.42179 0.419 0.64896 0.0
C1478 C 0.37786 0.36311 0.7137 0.0
C1479 C 0.39456 0.38005 0.70847 0.0
C1480 C 0.42608 0.3902 0.69004 0.0
C1481 C 0.43623 0.41999 0.66564 0.0
C1482 C 0.42907 0.4181 0.67584 0.0
C1483 C 0.38503 0.39277 0.70009 0.0
C1484 C 0.40362 0.40487 0.69313 0.0
H1485 H 0.48723 0.43792 0.65088 0.0
H1486 H 0.47765 0.43032 0.66812 0.0
H1487 H 0.45451 0.38399 0.67863 0.0
H1488 H 0.32163 0.36922 0.69973 0.0
H1489 H 0.35034 0.39901 0.69085 0.0
C1490 C 0.9535 0.13472 0.95959 0.0
C1491 C 0.94426 0.10841 0.96063 0.0
C1492 C 0.93904 0.15309 0.9541 0.0
C1493 C 0.87629 0.16217 0.93987 0.0
H1494 H 0.92498 0.19225 0.92091 0.0
C1495 C 0.85338 0.17012 0.89996 0.0
C1496 C 0.85988 0.1936 0.89498 0.0
C1497 C 0.86049 0.16713 0.9096 0.0
C1498 C 0.91114 0.18465 0.92628 0.0
H1499 H 0.91137 0.08156 0.95763 0.0
H1500 H 0.88692 0.11303 0.94759 0.0
H1501 H 0.94272 0.17386 0.93588 0.0
H1502 H 0.87876 0.23235 0.89594 0.0
H1503 H 0.89214 0.22667 0.91297 0.0
H1504 H 0.84502 0.17093 0.92973 0.0
C1505 C 0.90499 0.11976 0.95116 0.0
C1506 C 0.92122 0.17417 0.93488 0.0
C1507 C 0.9192 0.10155 0.9568 0.0
C1508 C 0.87366 0.21409 0.89971 0.0
C1509 C 0.88114 0.21093 0.90938 0.0
C1510 C 0.86626 0.1724 0.93122 0.0
C1511 C 0.91538 0.14534 0.94942 0.0
C1512 C 0.90399 0.1619 0.94159 0.0
C1513 C 0.8744 0.18749 0.91436 0.0
C1514 C 0.88379 0.18277 0.92425 0.0
H1515 H 0.97285 0.14067 0.96238 0.0
H1516 H 0.94727 0.17283 0.95301 0.0
H1517 H 0.86254 0.15317 0.94497 0.0
H1518 H 0.84253 0.15411 0.89645 0.0
H1519 H 0.85565 0.14864 0.91327 0.0
C1520 C 0.88062 0.69105 0.7073 0.0
C1521 C 0.85497 0.68431 0.71064 0.0
C1522 C 0.89509 0.67308 0.70171 0.0
C1523 C 0.87657 0.62682 0.68357 0.0
H1524 H 0.95307 0.61869 0.6798 0.0
C1525 C 0.91534 0.58458 0.64858 0.0
C1526 C 0.93648 0.59849 0.64428 0.0
C1527 C 0.90917 0.58872 0.65821 0.0
C1528 C 0.93168 0.62085 0.68079 0.0
H1529 H 0.82572 0.65271 0.71186 0.0
H1530 H 0.85115 0.62112 0.70203 0.0
H1531 H 0.93613 0.63566 0.69526 0.0
H1532 H 0.96855 0.6267 0.64648 0.0
H1533 H 0.95649 0.63567 0.6634 0.0
H1534 H 0.87187 0.61413 0.669 0.0
C1535 C 0.85985 0.64036 0.70367 0.0
C1536 C 0.92205 0.63026 0.68963 0.0
C1537 C 0.84531 0.65838 0.70924 0.0
C1538 C 0.95202 0.61607 0.64975 0.0
C1539 C 0.94531 0.62086 0.65939 0.0
C1540 C 0.88614 0.61775 0.67477 0.0
C1541 C 0.88405 0.64821 0.6994 0.0
C1542 C 0.89443 0.63362 0.69101 0.0
C1543 C 0.92348 0.60754 0.66361 0.0
C1544 C 0.91378 0.61499 0.67326 0.0
H1545 H 0.88842 0.71103 0.70821 0.0
H1546 H 0.91357 0.6797 0.6984 0.0
H1547 H 0.85522 0.63007 0.68432 0.0
H1548 H 0.90348 0.57041 0.64451 0.0
H1549 H 0.89271 0.57768 0.66135 0.0
C1550 C 0.10432 0.12927 0.46109 0.0
C1551 C 0.10993 0.1018 0.46058 0.0
C1552 C 0.121 0.14752 0.45653 0.0
C1553 C 0.13762 0.17092 0.4377 0.0
H1554 H 0.21092 0.15814 0.42978 0.0
C1555 C 0.19351 0.16012 0.40047 0.0
C1556 C 0.18863 0.18458 0.39586 0.0
C1557 C 0.18905 0.15753 0.41032 0.0
C1558 C 0.19059 0.16231 0.43206 0.0
H1559 H 0.13917 0.07227 0.45611 0.0
H1560 H 0.16728 0.10374 0.4476 0.0
H1561 H 0.19551 0.14118 0.44539 0.0
H1562 H 0.17504 0.22539 0.39767 0.0
H1563 H 0.16627 0.2205 0.41505 0.0
H1564 H 0.13234 0.19069 0.42412 0.0
C1565 C 0.15042 0.11144 0.45166 0.0
C1566 C 0.18177 0.1526 0.44094 0.0
C1567 C 0.13406 0.09326 0.45641 0.0
C1568 C 0.17881 0.20634 0.40114 0.0
C1569 C 0.17404 0.20365 0.41102 0.0
C1570 C 0.14654 0.18087 0.42889 0.0
C1571 C 0.14314 0.13853 0.4512 0.0
C1572 C 0.1548 0.15557 0.44359 0.0
C1573 C 0.17945 0.17931 0.41565 0.0
C1574 C 0.17264 0.17542 0.42584 0.0
H1575 H 0.08585 0.13659 0.46423 0.0
H1576 H 0.11524 0.16838 0.45645 0.0
H1577 H 0.11659 0.17321 0.43941 0.0
H1578 H 0.20133 0.14311 0.39652 0.0
H1579 H 0.19266 0.13837 0.41374 0.0
C1580 C 0.63899 0.43948 0.14708 0.0
C1581 C 0.61234 0.4399 0.1439 0.0
C1582 C 0.64479 0.43479 0.15674 0.0
C1583 C 0.62025 0.4017 0.17791 0.0
H1584 H 0.67895 0.44012 0.18988 0.0
C1585 C 0.6717 0.36066 0.21145 0.0
C1586 C 0.69862 0.3552 0.20922 0.0
C1587 C 0.65708 0.37865 0.20583 0.0
C1588 C 0.66218 0.4296 0.18671 0.0
H1589 H 0.57083 0.43525 0.1481 0.0
H1590 H 0.58117 0.42644 0.16519 0.0
H1591 H 0.65925 0.45686 0.17484 0.0
H1592 H 0.73175 0.36571 0.19978 0.0
H1593 H 0.70648 0.39743 0.19021 0.0
H1594 H 0.62432 0.3735 0.18941 0.0
C1595 C 0.59739 0.43006 0.16016 0.0
C1596 C 0.65102 0.43905 0.17814 0.0
C1597 C 0.59152 0.43488 0.15044 0.0
C1598 C 0.71123 0.36976 0.20183 0.0
C1599 C 0.69673 0.38795 0.19632 0.0
C1600 C 0.63132 0.39232 0.18652 0.0
C1601 C 0.62406 0.4304 0.16337 0.0
C1602 C 0.63089 0.42442 0.17346 0.0
C1603 C 0.66933 0.39172 0.19804 0.0
C1604 C 0.65314 0.40558 0.19072 0.0
H1605 H 0.65544 0.44324 0.14216 0.0
H1606 H 0.66558 0.43433 0.15899 0.0
H1607 H 0.60492 0.38999 0.17436 0.0
H1608 H 0.66156 0.35002 0.2172 0.0
H1609 H 0.63593 0.38137 0.20726 0.0
C1610 C 0.36809 0.82755 0.90139 0.0
C1611 C 0.35589 0.84873 0.89641 0.0
C1612 C 0.37473 0.83044 0.91113 0.0
C1613 C 0.40505 0.85506 0.92807 0.0
H1614 H 0.35834 0.89268 0.94592 0.0
C1615 C 0.41911 0.94341 0.95547 0.0
C1616 C 0.4439 0.93578 0.95938 0.0
C1617 C 0.40317 0.92473 0.95079 0.0
C1618 C 0.37151 0.88185 0.94108 0.0
H1619 H 0.34052 0.88922 0.89753 0.0
H1620 H 0.35238 0.8943 0.91447 0.0
H1621 H 0.33996 0.87417 0.93098 0.0
H1622 H 0.47013 0.90208 0.96243 0.0
H1623 H 0.44163 0.86932 0.95469 0.0
H1624 H 0.43706 0.86479 0.93756 0.0
C1625 C 0.35648 0.87542 0.91094 0.0
C1626 C 0.361 0.87124 0.93259 0.0
C1627 C 0.35015 0.87267 0.90122 0.0
C1628 C 0.45106 0.90863 0.95952 0.0
C1629 C 0.43489 0.88986 0.95499 0.0
C1630 C 0.41561 0.86586 0.93651 0.0
C1631 C 0.36881 0.85436 0.91594 0.0
C1632 C 0.37798 0.85887 0.92586 0.0
C1633 C 0.4116 0.89801 0.95011 0.0
C1634 C 0.39914 0.88043 0.94286 0.0
H1635 H 0.37257 0.80892 0.89775 0.0
H1636 H 0.38455 0.81414 0.91489 0.0
H1637 H 0.41851 0.84588 0.9229 0.0
H1638 H 0.4129 0.96414 0.95542 0.0
H1639 H 0.38545 0.93175 0.94704 0.0
C1640 C 0.87554 0.36865 0.87849 0.0
C1641 C 0.84875 0.36323 0.88089 0.0
C1642 C 0.89052 0.38617 0.88413 0.0
C1643 C 0.88637 0.43465 0.90425 0.0
H1644 H 0.94446 0.39286 0.91529 0.0
C1645 C 0.90915 0.4333 0.94404 0.0
C1646 C 0.93574 0.43503 0.94723 0.0
C1647 C 0.90357 0.43094 0.93425 0.0
C1648 C 0.92888 0.40518 0.91211 0.0
H1649 H 0.81619 0.37353 0.89064 0.0
H1650 H 0.84201 0.40429 0.90026 0.0
H1651 H 0.92479 0.37946 0.89991 0.0
H1652 H 0.97742 0.43475 0.94287 0.0
H1653 H 0.96748 0.42958 0.92556 0.0
H1654 H 0.88908 0.45903 0.91691 0.0
C1655 C 0.85144 0.39522 0.894 0.0
C1656 C 0.91767 0.39761 0.90331 0.0
C1657 C 0.83658 0.37754 0.88845 0.0
C1658 C 0.95677 0.43329 0.94054 0.0
C1659 C 0.95114 0.43062 0.93069 0.0
C1660 C 0.89755 0.44219 0.91306 0.0
C1661 C 0.87879 0.39878 0.89214 0.0
C1662 C 0.89546 0.41153 0.89957 0.0
C1663 C 0.92448 0.43002 0.92751 0.0
C1664 C 0.91794 0.42666 0.91725 0.0
H1665 H 0.88534 0.35822 0.87261 0.0
H1666 H 0.91159 0.38875 0.88257 0.0
H1667 H 0.86936 0.44573 0.90146 0.0
H1668 H 0.89253 0.43457 0.94906 0.0
H1669 H 0.88286 0.42972 0.93196 0.0
C1670 C 0.45812 0.13476 0.6302 0.0
C1671 C 0.44641 0.10963 0.62868 0.0
C1672 C 0.44537 0.15356 0.63599 0.0
C1673 C 0.43071 0.16713 0.6564 0.0
H1674 H 0.35516 0.1808 0.6606 0.0
C1675 C 0.37841 0.16772 0.69288 0.0
C1676 C 0.3657 0.19163 0.69539 0.0
C1677 C 0.38845 0.16446 0.6836 0.0
C1678 C 0.37635 0.17758 0.65937 0.0
H1679 H 0.41092 0.08574 0.63096 0.0
H1680 H 0.38893 0.11839 0.64134 0.0
H1681 H 0.37039 0.16473 0.64473 0.0
H1682 H 0.35309 0.23082 0.69046 0.0
H1683 H 0.3703 0.22469 0.67397 0.0
H1684 H 0.43634 0.17802 0.67125 0.0
C1685 C 0.40777 0.12363 0.63797 0.0
C1686 C 0.38499 0.16841 0.65038 0.0
C1687 C 0.42046 0.10484 0.63213 0.0
C1688 C 0.36321 0.21237 0.68862 0.0
C1689 C 0.37279 0.20887 0.67926 0.0
C1690 C 0.42203 0.17598 0.66538 0.0
C1691 C 0.4209 0.14743 0.64038 0.0
C1692 C 0.41215 0.1625 0.64892 0.0
C1693 C 0.38539 0.18492 0.67676 0.0
C1694 C 0.39481 0.18056 0.66694 0.0
H1695 H 0.47821 0.13903 0.62773 0.0
H1696 H 0.45572 0.17191 0.63773 0.0
H1697 H 0.45168 0.16212 0.65553 0.0
H1698 H 0.38037 0.15152 0.69805 0.0
H1699 H 0.39803 0.14577 0.68167 0.0
C1700 C 0.70289 0.66503 0.38254 0.0
C1701 C 0.69389 0.69118 0.38089 0.0
C1702 C 0.68852 0.64815 0.38859 0.0
C1703 C 0.62629 0.64001 0.40256 0.0
H1704 H 0.67536 0.61869 0.42299 0.0
C1705 C 0.59412 0.61591 0.44168 0.0
C1706 C 0.60904 0.59633 0.4465 0.0
C1707 C 0.60149 0.62357 0.43234 0.0
C1708 C 0.6614 0.62391 0.41726 0.0
H1709 H 0.66181 0.71956 0.38362 0.0
H1710 H 0.63677 0.69002 0.39417 0.0
H1711 H 0.69291 0.63714 0.40811 0.0
H1712 H 0.64156 0.56766 0.44538 0.0
H1713 H 0.65364 0.58014 0.42903 0.0
H1714 H 0.59471 0.62721 0.41192 0.0
C1715 C 0.65469 0.68248 0.3907 0.0
C1716 C 0.67148 0.63441 0.40874 0.0
C1717 C 0.66907 0.69937 0.38466 0.0
C1718 C 0.63018 0.5833 0.44181 0.0
C1719 C 0.63711 0.59044 0.43248 0.0
C1720 C 0.61616 0.62919 0.4111 0.0
C1721 C 0.665 0.65725 0.39305 0.0
C1722 C 0.65402 0.64277 0.40136 0.0
C1723 C 0.62344 0.61122 0.42778 0.0
C1724 C 0.63368 0.62129 0.41853 0.0
H1725 H 0.72182 0.65821 0.37962 0.0
H1726 H 0.69663 0.6286 0.39027 0.0
H1727 H 0.61253 0.64658 0.39697 0.0
H1728 H 0.57767 0.62599 0.44526 0.0
H1729 H 0.59078 0.63981 0.42888 0.0
C1730 C 0.16792 0.8697 0.19281 0.0
C1731 C 0.1819 0.84642 0.19527 0.0
C1732 C 0.15776 0.87274 0.18351 0.0
C1733 C 0.17157 0.8603 0.15925 0.0
H1734 H 0.09628 0.87518 0.15494 0.0
C1735 C 0.09041 0.90292 0.12967 0.0
C1736 C 0.10186 0.92824 0.12829 0.0
C1737 C 0.10321 0.88406 0.13545 0.0
C1738 C 0.11726 0.87035 0.15593 0.0
H1739 H 0.19649 0.80807 0.19024 0.0
H1740 H 0.17911 0.81384 0.17373 0.0
H1741 H 0.11112 0.85925 0.17074 0.0
H1742 H 0.13712 0.95234 0.13075 0.0
H1743 H 0.1592 0.91959 0.14112 0.0
H1744 H 0.17798 0.87335 0.14464 0.0
C1745 C 0.17571 0.82932 0.17906 0.0
C1746 C 0.12565 0.86148 0.16497 0.0
C1747 C 0.1854 0.82602 0.18844 0.0
C1748 C 0.12774 0.93312 0.13182 0.0
C1749 C 0.14048 0.91427 0.13766 0.0
C1750 C 0.1632 0.86951 0.1502 0.0
C1751 C 0.16197 0.85271 0.1766 0.0
C1752 C 0.15285 0.8571 0.16671 0.0
C1753 C 0.1275 0.89031 0.13998 0.0
C1754 C 0.13606 0.87521 0.14857 0.0
H1755 H 0.16517 0.88564 0.19802 0.0
H1756 H 0.14732 0.89101 0.18162 0.0
H1757 H 0.19273 0.85725 0.1606 0.0
H1758 H 0.07038 0.89853 0.12713 0.0
H1759 H 0.09299 0.86558 0.13711 0.0
C1760 C 0.63226 0.94199 0.94048 0.0
C1761 C 0.60679 0.93943 0.94462 0.0
C1762 C 0.63615 0.93578 0.93083 0.0
C1763 C 0.63515 0.93397 0.9091 0.0
H1764 H 0.62405 0.85921 0.90333 0.0
C1765 C 0.67035 0.84441 0.88158 0.0
C1766 C 0.69795 0.84964 0.88205 0.0
C1767 C 0.65224 0.86087 0.88637 0.0
C1768 C 0.62653 0.88036 0.90461 0.0
H1769 H 0.56549 0.92824 0.94215 0.0
H1770 H 0.57271 0.9162 0.92509 0.0
H1771 H 0.60349 0.87849 0.91763 0.0
H1772 H 0.728 0.87738 0.88718 0.0
H1773 H 0.69664 0.90523 0.89599 0.0
H1774 H 0.6595 0.93554 0.89641 0.0
C1775 C 0.5893 0.92364 0.92934 0.0
C1776 C 0.61475 0.89133 0.91281 0.0
C1777 C 0.58527 0.93028 0.93903 0.0
C1778 C 0.70689 0.87267 0.88681 0.0
C1779 C 0.68883 0.88887 0.89173 0.0
C1780 C 0.64673 0.9231 0.90084 0.0
C1781 C 0.61473 0.92664 0.9252 0.0
C1782 C 0.62014 0.91778 0.91533 0.0
C1783 C 0.66145 0.88256 0.89183 0.0
C1784 C 0.64363 0.89586 0.89881 0.0
H1785 H 0.64919 0.94908 0.94465 0.0
H1786 H 0.6561 0.93752 0.92782 0.0
H1787 H 0.63939 0.95452 0.91097 0.0
H1788 H 0.6628 0.82664 0.87808 0.0
H1789 H 0.6312 0.85574 0.88626 0.0
C1790 C 0.36876 0.38073 0.1963 0.0
C1791 C 0.36207 0.35415 0.1983 0.0
C1792 C 0.37363 0.38861 0.18685 0.0
C1793 C 0.39655 0.36741 0.16378 0.0
H1794 H 0.35959 0.43128 0.15498 0.0
C1795 C 0.43174 0.42209 0.13013 0.0
C1796 C 0.43824 0.4486 0.13242 0.0
C1797 C 0.41487 0.40755 0.13616 0.0
C1798 C 0.36975 0.41322 0.15728 0.0
H1799 H 0.35679 0.31457 0.19227 0.0
H1800 H 0.36639 0.32845 0.17559 0.0
H1801 H 0.34635 0.41023 0.17019 0.0
H1802 H 0.43101 0.48108 0.14251 0.0
H1803 H 0.40154 0.45594 0.15289 0.0
H1804 H 0.42138 0.3715 0.15132 0.0
C1805 C 0.36723 0.34306 0.18136 0.0
C1806 C 0.36223 0.40128 0.16594 0.0
C1807 C 0.36201 0.33516 0.19085 0.0
C1808 C 0.42598 0.4609 0.14041 0.0
C1809 C 0.40907 0.44645 0.14639 0.0
C1810 C 0.40421 0.37947 0.15515 0.0
C1811 C 0.37221 0.36996 0.17932 0.0
C1812 C 0.37633 0.37898 0.16939 0.0
C1813 C 0.40416 0.41941 0.14451 0.0
C1814 C 0.39156 0.40308 0.15205 0.0
H1815 H 0.36894 0.39577 0.20193 0.0
H1816 H 0.37809 0.40938 0.1854 0.0
H1817 H 0.40769 0.35028 0.16642 0.0
H1818 H 0.44074 0.41221 0.12396 0.0
H1819 H 0.41122 0.38672 0.13458 0.0
C1820 C 0.97146 0.12023 0.43949 0.0
C1821 C 0.94905 0.11016 0.44435 0.0
C1822 C 0.96948 0.12704 0.42971 0.0
C1823 C 0.93192 0.11316 0.40791 0.0
H1824 H 0.93299 0.18897 0.40247 0.0
C1825 C 0.85812 0.16315 0.38303 0.0
C1826 C 0.86356 0.18849 0.37921 0.0
C1827 C 0.87767 0.14941 0.38823 0.0
C1828 C 0.93352 0.16762 0.40365 0.0
H1829 H 0.90719 0.09906 0.44301 0.0
H1830 H 0.90396 0.11063 0.42597 0.0
H1831 H 0.95164 0.17251 0.41759 0.0
H1832 H 0.89469 0.21804 0.37692 0.0
H1833 H 0.92917 0.19331 0.3855 0.0
H1834 H 0.91262 0.10822 0.39422 0.0
C1835 C 0.92295 0.11318 0.42966 0.0
C1836 C 0.94415 0.1583 0.41234 0.0
C1837 C 0.92473 0.10696 0.43941 0.0
C1838 C 0.8898 0.19847 0.37973 0.0
C1839 C 0.90952 0.18448 0.38477 0.0
C1840 C 0.92169 0.12238 0.39914 0.0
C1841 C 0.94532 0.12309 0.42476 0.0
C1842 C 0.94212 0.13127 0.41469 0.0
C1843 C 0.90321 0.16056 0.38953 0.0
C1844 C 0.92101 0.14988 0.39717 0.0
H1845 H 0.99037 0.12275 0.44323 0.0
H1846 H 0.98673 0.13512 0.426 0.0
H1847 H 0.93023 0.09217 0.40969 0.0
H1848 H 0.83822 0.15475 0.38258 0.0
H1849 H 0.87196 0.13115 0.39186 0.0
C1850 C 0.10039 0.62763 0.63321 0.0
C1851 C 0.1085 0.60295 0.62935 0.0
C1852 C 0.11735 0.64164 0.63934 0.0
C1853 C 0.16381 0.62269 0.65756 0.0
H1854 H 0.17089 0.69871 0.66206 0.0
C1855 C 0.20978 0.65974 0.69231 0.0
C1856 C 0.1964 0.68071 0.69696 0.0
C1857 C 0.204 0.65375 0.68277 0.0
C1858 C 0.16894 0.67746 0.66088 0.0
H1859 H 0.14154 0.57514 0.6279 0.0
H1860 H 0.17124 0.59968 0.63872 0.0
H1861 H 0.15345 0.68283 0.64651 0.0
H1862 H 0.16743 0.7126 0.69546 0.0
H1863 H 0.15581 0.70104 0.67871 0.0
H1864 H 0.17739 0.61704 0.67202 0.0
C1865 C 0.15172 0.60797 0.63704 0.0
C1866 C 0.15927 0.66843 0.65199 0.0
C1867 C 0.13477 0.59395 0.63089 0.0
C1868 C 0.17769 0.69622 0.69193 0.0
C1869 C 0.17134 0.68977 0.68237 0.0
C1870 C 0.17312 0.63166 0.66642 0.0
C1871 C 0.14255 0.63111 0.6417 0.0
C1872 C 0.15649 0.64099 0.65032 0.0
C1873 C 0.18417 0.66815 0.67781 0.0
C1874 C 0.17562 0.6591 0.66818 0.0
H1875 H 0.08013 0.63491 0.63224 0.0
H1876 H 0.10975 0.65929 0.64295 0.0
H1877 H 0.16101 0.60145 0.65656 0.0
H1878 H 0.22484 0.64793 0.69604 0.0
H1879 H 0.2147 0.63748 0.67935 0.0
C1880 C 0.64274 0.10202 0.64775 0.0
C1881 C 0.61565 0.10057 0.64517 0.0
C1882 C 0.64993 0.1064 0.6573 0.0
C1883 C 0.62728 0.13636 0.67939 0.0
H1884 H 0.68839 0.09795 0.68991 0.0
C1885 C 0.68046 0.17516 0.71268 0.0
C1886 C 0.707 0.18141 0.7102 0.0
C1887 C 0.66596 0.15714 0.70709 0.0
C1888 C 0.67099 0.10846 0.68714 0.0
H1889 H 0.57475 0.10336 0.65029 0.0
H1890 H 0.58749 0.11165 0.66717 0.0
H1891 H 0.66782 0.08286 0.67483 0.0
H1892 H 0.7397 0.17211 0.70037 0.0
H1893 H 0.71467 0.14046 0.69084 0.0
H1894 H 0.63152 0.16301 0.69131 0.0
C1895 C 0.60301 0.10906 0.66177 0.0
C1896 C 0.65936 0.09996 0.67854 0.0
C1897 C 0.59577 0.10455 0.65217 0.0
C1898 C 0.71949 0.16745 0.70262 0.0
C1899 C 0.70511 0.14929 0.69712 0.0
C1900 C 0.63888 0.14483 0.68801 0.0
C1901 C 0.63013 0.10949 0.6644 0.0
C1902 C 0.63823 0.11461 0.67441 0.0
C1903 C 0.67794 0.14489 0.69906 0.0
C1904 C 0.66152 0.1316 0.69171 0.0
H1905 H 0.65847 0.09907 0.64245 0.0
H1906 H 0.671 0.10746 0.65912 0.0
H1907 H 0.61116 0.14806 0.67626 0.0
H1908 H 0.67044 0.18533 0.71857 0.0
H1909 H 0.64501 0.15391 0.70871 0.0
C1910 C 0.19796 0.36426 0.90021 0.0
C1911 C 0.18515 0.35561 0.89179 0.0
C1912 C 0.18419 0.38017 0.90678 0.0
C1913 C 0.11793 0.41036 0.9121 0.0
H1914 H 0.16159 0.47086 0.91963 0.0
C1915 C 0.07068 0.50385 0.92749 0.0
C1916 C 0.07819 0.50654 0.93726 0.0
C1917 C 0.08606 0.48829 0.92126 0.0
C1918 C 0.14928 0.45411 0.91749 0.0
H1919 H 0.14825 0.3551 0.88359 0.0
H1920 H 0.12416 0.38344 0.89489 0.0
H1921 H 0.18229 0.43315 0.91136 0.0
H1922 H 0.10942 0.49772 0.94783 0.0
H1923 H 0.13665 0.47178 0.93682 0.0
H1924 H 0.08483 0.4319 0.91802 0.0
C1925 C 0.14437 0.37739 0.89671 0.0
C1926 C 0.16108 0.43235 0.91293 0.0
C1927 C 0.15803 0.36104 0.89027 0.0
C1928 C 0.10311 0.49642 0.94034 0.0
C1929 C 0.11869 0.48133 0.93406 0.0
C1930 C 0.10609 0.43233 0.9165 0.0
C1931 C 0.15777 0.38815 0.90477 0.0
C1932 C 0.14552 0.41023 0.91023 0.0
C1933 C 0.10942 0.47596 0.92469 0.0
C1934 C 0.12172 0.45427 0.9192 0.0
H1935 H 0.21917 0.36072 0.90128 0.0
H1936 H 0.19481 0.38777 0.91304 0.0
H1937 H 0.10552 0.39349 0.91019 0.0
H1938 H 0.05182 0.51184 0.92488 0.0
H1939 H 0.07886 0.48446 0.91398 0.0
C1940 C 0.91357 0.95347 0.15082 0.0
C1941 C 0.93467 0.93948 0.14646 0.0
C1942 C 0.90757 0.9493 0.16046 0.0
C1943 C 0.93059 0.91712 0.18307 0.0
H1944 H 0.85412 0.91036 0.18713 0.0
C1945 C 0.87854 0.85028 0.21053 0.0
C1946 C 0.85309 0.85807 0.21385 0.0
C1947 C 0.89348 0.86745 0.20477 0.0
C1948 C 0.8755 0.91291 0.18622 0.0
H1949 H 0.96673 0.91098 0.1486 0.0
H1950 H 0.95488 0.9019 0.16554 0.0
H1951 H 0.87042 0.92488 0.17156 0.0
H1952 H 0.82495 0.89089 0.21492 0.0
H1953 H 0.85117 0.92101 0.2048 0.0
H1954 H 0.93535 0.90304 0.19765 0.0
C1955 C 0.94363 0.91682 0.16156 0.0
C1956 C 0.88487 0.92115 0.17727 0.0
C1957 C 0.95022 0.92168 0.15189 0.0
C1958 C 0.84435 0.88437 0.21233 0.0
C1959 C 0.85933 0.90156 0.20658 0.0
C1960 C 0.92114 0.9085 0.19204 0.0
C1961 C 0.92191 0.9303 0.16584 0.0
C1962 C 0.91249 0.92313 0.17558 0.0
C1963 C 0.88312 0.89255 0.20227 0.0
C1964 C 0.89351 0.90611 0.19363 0.0
H1965 H 0.90167 0.96782 0.14679 0.0
H1966 H 0.89126 0.96056 0.16364 0.0
H1967 H 0.95197 0.91868 0.18194 0.0
H1968 H 0.88571 0.83003 0.2115 0.0
H1969 H 0.91165 0.85996 0.20146 0.0
C1970 C 0.42227 0.59247 0.45093 0.0
C1971 C 0.43691 0.60302 0.45872 0.0
C1972 C 0.40577 0.60886 0.44541 0.0
C1973 C 0.40558 0.67636 0.437 0.0
H1974 H 0.34354 0.65106 0.42286 0.0
C1975 C 0.35964 0.71746 0.40047 0.0
C1976 C 0.36372 0.69744 0.39351 0.0
C1977 C 0.36452 0.71204 0.41023 0.0
C1978 C 0.36041 0.65874 0.42694 0.0
H1979 H 0.44406 0.63855 0.46732 0.0
H1980 H 0.41543 0.66744 0.45745 0.0
H1981 H 0.35641 0.62925 0.43802 0.0
H1982 H 0.37766 0.65686 0.39108 0.0
H1983 H 0.38586 0.64752 0.4081 0.0
H1984 H 0.41047 0.70465 0.42548 0.0
C1985 C 0.41686 0.64644 0.45568 0.0
C1986 C 0.36782 0.64626 0.43553 0.0
C1987 C 0.43326 0.62994 0.46128 0.0
C1988 C 0.37424 0.67262 0.39631 0.0
C1989 C 0.37873 0.66716 0.40601 0.0
C1990 C 0.39799 0.68899 0.42843 0.0
C1991 C 0.40367 0.63616 0.44753 0.0
C1992 C 0.39128 0.65407 0.44035 0.0
C1993 C 0.37317 0.68657 0.41301 0.0
C1994 C 0.37617 0.67933 0.42317 0.0
H1995 H 0.42503 0.57202 0.44862 0.0
H1996 H 0.39631 0.6005 0.43903 0.0
H1997 H 0.42397 0.68252 0.44049 0.0
H1998 H 0.35144 0.7367 0.39843 0.0
H1999 H 0.36048 0.7272 0.41563 0.0
C2000 C 0.38816 0.19711 0.20853 0.0
C2001 C 0.36128 0.18894 0.2086 0.0
C2002 C 0.40734 0.18203 0.20368 0.0
C2003 C 0.43103 0.16431 0.18488 0.0
H2004 H 0.42568 0.08876 0.17929 0.0
C2005 C 0.42388 0.09961 0.14958 0.0
C2006 C 0.44732 0.10587 0.14452 0.0
C2007 C 0.42169 0.10582 0.15932 0.0
C2008 C 0.42782 0.10979 0.18091 0.0
H2009 H 0.33387 0.15741 0.20459 0.0
H2010 H 0.36695 0.13177 0.19572 0.0
H2011 H 0.40743 0.10607 0.19444 0.0
H2012 H 0.48681 0.12344 0.14544 0.0
H2013 H 0.48254 0.13529 0.16262 0.0
H2014 H 0.44988 0.16822 0.17107 0.0
C2015 C 0.37346 0.14944 0.19955 0.0
C2016 C 0.41735 0.11968 0.18952 0.0
C2017 C 0.35438 0.16433 0.2045 0.0
C2018 C 0.46855 0.11858 0.14926 0.0
C2019 C 0.46621 0.12513 0.15903 0.0
C2020 C 0.44169 0.15437 0.17632 0.0
C2021 C 0.39985 0.1588 0.19873 0.0
C2022 C 0.41761 0.14722 0.19133 0.0
C2023 C 0.44283 0.11857 0.1641 0.0
C2024 C 0.43888 0.12732 0.17409 0.0
H2025 H 0.39409 0.2161 0.21157 0.0
H2026 H 0.42762 0.18949 0.20325 0.0
H2027 H 0.4312 0.1857 0.18597 0.0
H2028 H 0.40732 0.08956 0.14608 0.0
H2029 H 0.40321 0.10121 0.16305 0.0
C2030 C 0.62812 0.61032 0.95861 0.0
C2031 C 0.6021 0.61513 0.96202 0.0
C2032 C 0.64071 0.62906 0.95273 0.0
C2033 C 0.66321 0.6733 0.9401 0.0
H2034 H 0.61161 0.68246 0.91926 0.0
C2035 C 0.68617 0.71339 0.90147 0.0
C2036 C 0.68284 0.69237 0.8949 0.0
C2037 C 0.67633 0.71105 0.91085 0.0
C2038 C 0.626 0.68057 0.92511 0.0
H2039 H 0.57011 0.64456 0.9629 0.0
H2040 H 0.59245 0.67737 0.95285 0.0
H2041 H 0.59643 0.6676 0.93512 0.0
H2042 H 0.66635 0.65294 0.89259 0.0
H2043 H 0.64823 0.64923 0.90899 0.0
H2044 H 0.69296 0.68468 0.92972 0.0
C2045 C 0.60291 0.65903 0.95463 0.0
C2046 C 0.6174 0.67231 0.93418 0.0
C2047 C 0.59025 0.64027 0.96045 0.0
C2048 C 0.66895 0.66936 0.89761 0.0
C2049 C 0.65864 0.66727 0.9069 0.0
C2050 C 0.67177 0.68187 0.93102 0.0
C2051 C 0.62744 0.65285 0.95026 0.0
C2052 C 0.63606 0.66774 0.94165 0.0
C2053 C 0.66259 0.68798 0.91356 0.0
C2054 C 0.65324 0.68461 0.92345 0.0
H2055 H 0.63779 0.59122 0.95981 0.0
H2056 H 0.65959 0.62376 0.94939 0.0
H2057 H 0.67789 0.6697 0.94575 0.0
H2058 H 0.69721 0.73114 0.89948 0.0
H2059 H 0.67956 0.72703 0.91599 0.0
C2060 C 0.18796 0.86934 0.70663 0.0
C2061 C 0.1827 0.84343 0.70998 0.0
C2062 C 0.17004 0.88196 0.70038 0.0
C2063 C 0.1256 0.90532 0.68775 0.0
H2064 H 0.11756 0.85638 0.66614 0.0
C2065 C 0.08128 0.93175 0.64997 0.0
C2066 C 0.10164 0.92961 0.64304 0.0
C2067 C 0.08509 0.92102 0.65918 0.0
C2068 C 0.11921 0.87001 0.6722 0.0
H2069 H 0.15353 0.81135 0.71012 0.0
H2070 H 0.12213 0.8337 0.69936 0.0
H2071 H 0.13371 0.83968 0.68168 0.0
H2072 H 0.14135 0.91433 0.63991 0.0
H2073 H 0.14764 0.89473 0.65598 0.0
H2074 H 0.11243 0.93589 0.67795 0.0
C2075 C 0.14014 0.84409 0.70153 0.0
C2076 C 0.12822 0.86055 0.68108 0.0
C2077 C 0.15805 0.83145 0.70775 0.0
C2078 C 0.12544 0.91606 0.64521 0.0
C2079 C 0.129 0.90489 0.65432 0.0
C2080 C 0.11626 0.91475 0.67886 0.0
C2081 C 0.14666 0.86879 0.69743 0.0
C2082 C 0.13216 0.87825 0.68884 0.0
C2083 C 0.10897 0.90761 0.66134 0.0
C2084 C 0.1138 0.89719 0.67103 0.0
H2085 H 0.20673 0.87904 0.70831 0.0
H2086 H 0.17557 0.90095 0.69722 0.0
H2087 H 0.12872 0.91925 0.69364 0.0
H2088 H 0.06293 0.94248 0.64839 0.0
H2089 H 0.0696 0.92327 0.6646 0.0
C2090 C 0.93507 0.41925 0.46085 0.0
C2091 C 0.93847 0.44592 0.45795 0.0
C2092 C 0.91592 0.40339 0.45636 0.0
C2093 C 0.86013 0.40391 0.43877 0.0
H2094 H 0.90141 0.34839 0.42605 0.0
C2095 C 0.84908 0.38046 0.39931 0.0
C2096 C 0.85061 0.35404 0.39604 0.0
C2097 C 0.8532 0.38618 0.40899 0.0
C2098 C 0.88922 0.36314 0.42973 0.0
H2099 H 0.92305 0.47748 0.44867 0.0
H2100 H 0.88957 0.44997 0.44095 0.0
H2101 H 0.91888 0.36921 0.4406 0.0
H2102 H 0.85787 0.31287 0.40012 0.0
H2103 H 0.86577 0.3231 0.41725 0.0
H2104 H 0.83144 0.39915 0.4274 0.0
C2105 C 0.90146 0.44135 0.44675 0.0
C2106 C 0.89917 0.37504 0.43807 0.0
C2107 C 0.92071 0.45713 0.45117 0.0
C2108 C 0.85677 0.3334 0.40253 0.0
C2109 C 0.86104 0.33919 0.41228 0.0
C2110 C 0.85012 0.39192 0.43045 0.0
C2111 C 0.89978 0.41409 0.44899 0.0
C2112 C 0.88534 0.39643 0.44234 0.0
C2113 C 0.85898 0.3656 0.41557 0.0
C2114 C 0.86534 0.3725 0.42561 0.0
H2115 H 0.94823 0.41024 0.46619 0.0
H2116 H 0.91484 0.3824 0.4582 0.0
H2117 H 0.84913 0.42031 0.44199 0.0
H2118 H 0.8443 0.39676 0.39443 0.0
H2119 H 0.85233 0.40682 0.4113 0.0
C2120 C 0.40568 0.93654 0.44403 0.0
C2121 C 0.43247 0.93639 0.44705 0.0
C2122 C 0.39946 0.93366 0.43432 0.0
C2123 C 0.42301 0.90414 0.41239 0.0
H2124 H 0.36351 0.94454 0.40164 0.0
C2125 C 0.3685 0.86569 0.37947 0.0
C2126 C 0.34195 0.86012 0.38215 0.0
C2127 C 0.38355 0.88381 0.38481 0.0
C2128 C 0.38052 0.93352 0.40446 0.0
H2129 H 0.47381 0.93247 0.44251 0.0
H2130 H 0.46273 0.92672 0.42532 0.0
H2131 H 0.38431 0.95908 0.41676 0.0
H2132 H 0.30971 0.87075 0.39196 0.0
H2133 H 0.33577 0.90256 0.40112 0.0
H2134 H 0.41802 0.87748 0.40052 0.0
C2135 C 0.44672 0.92945 0.43052 0.0
C2136 C 0.3923 0.94172 0.41308 0.0
C2137 C 0.453 0.93248 0.44029 0.0
C2138 C 0.32996 0.87486 0.38962 0.0
C2139 C 0.34491 0.89312 0.39488 0.0
C2140 C 0.4113 0.896 0.40375 0.0
C2141 C 0.41993 0.9305 0.42748 0.0
C2142 C 0.41267 0.92627 0.41733 0.0
C2143 C 0.37211 0.89681 0.39278 0.0
C2144 C 0.38914 0.90992 0.39999 0.0
H2145 H 0.38944 0.93949 0.44912 0.0
H2146 H 0.37859 0.93368 0.43218 0.0
H2147 H 0.43852 0.89182 0.41561 0.0
H2148 H 0.3781 0.8549 0.37363 0.0
H2149 H 0.40451 0.88647 0.38308 0.0
C2150 C 0.85207 0.66146 0.19053 0.0
C2151 C 0.854 0.68751 0.19414 0.0
C2152 C 0.8547 0.65675 0.1807 0.0
C2153 C 0.88688 0.68115 0.15945 0.0
H2154 H 0.84287 0.62673 0.14743 0.0
C2155 C 0.9253 0.62603 0.12671 0.0
C2156 C 0.92883 0.59919 0.12944 0.0
C2157 C 0.90735 0.64224 0.13173 0.0
C2158 C 0.85492 0.64241 0.15059 0.0
H2159 H 0.86075 0.72902 0.19049 0.0
H2160 H 0.86618 0.72052 0.17309 0.0
H2161 H 0.82869 0.64684 0.1627 0.0
H2162 H 0.91439 0.56777 0.13895 0.0
H2163 H 0.88284 0.59571 0.14744 0.0
H2164 H 0.91419 0.67523 0.14779 0.0
C2165 C 0.86219 0.70397 0.17793 0.0
C2166 C 0.84692 0.6538 0.1593 0.0
C2167 C 0.85935 0.70876 0.18782 0.0
C2168 C 0.91199 0.5882 0.13653 0.0
C2169 C 0.89383 0.60427 0.14143 0.0
C2170 C 0.89485 0.66982 0.15072 0.0
C2171 C 0.85944 0.67797 0.17431 0.0
C2172 C 0.86363 0.67211 0.16403 0.0
C2173 C 0.89236 0.63166 0.1394 0.0
C2174 C 0.87962 0.64936 0.14651 0.0
H2175 H 0.84793 0.64469 0.19525 0.0
H2176 H 0.85332 0.6364 0.17811 0.0
H2177 H 0.90015 0.69507 0.16303 0.0
H2178 H 0.93763 0.63496 0.12114 0.0
H2179 H 0.90641 0.66333 0.13004 0.0
C2180 C 0.17295 0.18025 0.87994 0.0
C2181 C 0.20005 0.18471 0.88216 0.0
C2182 C 0.15785 0.16282 0.88557 0.0
C2183 C 0.16172 0.11129 0.90451 0.0
H2184 H 0.10552 0.15228 0.91701 0.0
C2185 C 0.13808 0.10018 0.94403 0.0
C2186 C 0.1114 0.10045 0.94716 0.0
C2187 C 0.14408 0.10526 0.93443 0.0
C2188 C 0.12055 0.14022 0.91342 0.0
H2189 H 0.23291 0.17306 0.89163 0.0
H2190 H 0.2068 0.14225 0.90119 0.0
H2191 H 0.12535 0.16872 0.90206 0.0
H2192 H 0.07007 0.10675 0.94293 0.0
H2193 H 0.08077 0.11621 0.92592 0.0
H2194 H 0.15806 0.08365 0.91622 0.0
C2195 C 0.19728 0.1521 0.89509 0.0
C2196 C 0.13186 0.14957 0.90487 0.0
C2197 C 0.21226 0.16975 0.88958 0.0
C2198 C 0.09079 0.10656 0.94063 0.0
C2199 C 0.09685 0.11177 0.93095 0.0
C2200 C 0.15032 0.10187 0.91302 0.0
C2201 C 0.16979 0.14928 0.89335 0.0
C2202 C 0.15331 0.13575 0.90061 0.0
C2203 C 0.12352 0.11072 0.92779 0.0
C2204 C 0.13058 0.11696 0.91775 0.0
H2205 H 0.16309 0.1912 0.87417 0.0
H2206 H 0.13663 0.16083 0.88413 0.0
H2207 H 0.1782 0.10034 0.9013 0.0
H2208 H 0.15439 0.09559 0.94896 0.0
H2209 H 0.16488 0.10514 0.93222 0.0
C2210 C 0.63339 0.45288 0.63825 0.0
C2211 C 0.61593 0.44177 0.63138 0.0
C2212 C 0.65274 0.43709 0.64269 0.0
C2213 C 0.6543 0.37108 0.65147 0.0
H2214 H 0.72065 0.39538 0.66301 0.0
C2215 C 0.69144 0.3335 0.68854 0.0
C2216 C 0.6963 0.35507 0.69474 0.0
C2217 C 0.68866 0.33788 0.67861 0.0
C2218 C 0.7024 0.38802 0.65972 0.0
H2219 H 0.60713 0.40634 0.62293 0.0
H2220 H 0.64053 0.37843 0.63101 0.0
H2221 H 0.70495 0.41554 0.6479 0.0
H2222 H 0.70166 0.39803 0.69563 0.0
H2223 H 0.69633 0.40561 0.67843 0.0
H2224 H 0.65037 0.34549 0.66377 0.0
C2225 C 0.63915 0.39937 0.63289 0.0
C2226 C 0.69354 0.39944 0.6511 0.0
C2227 C 0.61996 0.41528 0.62835 0.0
C2228 C 0.69789 0.38101 0.69099 0.0
C2229 C 0.69533 0.38532 0.68113 0.0
C2230 C 0.66312 0.35974 0.66011 0.0
C2231 C 0.65481 0.40989 0.6404 0.0
C2232 C 0.66869 0.39208 0.64722 0.0
C2233 C 0.691 0.3638 0.67485 0.0
C2234 C 0.6864 0.36929 0.66455 0.0
H2235 H 0.63065 0.47307 0.64085 0.0
H2236 H 0.66425 0.44559 0.64858 0.0
H2237 H 0.63487 0.36532 0.6487 0.0
H2238 H 0.69031 0.31332 0.69133 0.0
H2239 H 0.68495 0.3211 0.67387 0.0
C2240 C 0.12911 0.24883 0.36479 0.0
C2241 C 0.13485 0.22135 0.36644 0.0
C2242 C 0.10208 0.25953 0.36476 0.0
C2243 C 0.02533 0.23834 0.36669 0.0
H2244 H 1.01257 0.3142 0.36555 0.0
C2245 C 0.91112 0.28239 0.36525 0.0
C2246 C 0.90554 0.31006 0.36652 0.0
C2247 C 0.93813 0.2716 0.36521 0.0
C2248 C 1.01495 0.29281 0.36595 0.0
H2249 H 0.11398 0.1845 0.36946 0.0
H2250 H 0.06887 0.20226 0.36949 0.0
H2251 H 0.058 0.29715 0.36569 0.0
H2252 H 0.92668 0.34711 0.36886 0.0
H2253 H 0.97177 0.32919 0.36886 0.0
H2254 H 0.98226 0.23404 0.36707 0.0
C2255 C 0.0848 0.2162 0.36806 0.0
C2256 C 0.04205 0.28268 0.36596 0.0
C2257 C 0.11159 0.20564 0.36809 0.0
C2258 C 0.92895 0.32584 0.36778 0.0
C2259 C 0.9557 0.31519 0.36773 0.0
C2260 C 0.99823 0.24849 0.36671 0.0
C2261 C 0.07863 0.24362 0.36637 0.0
C2262 C 0.04858 0.25495 0.36633 0.0
C2263 C 0.9617 0.28761 0.36642 0.0
C2264 C 0.99171 0.27622 0.36635 0.0
H2265 H 0.1456 0.26234 0.36352 0.0
H2266 H 0.09982 0.28063 0.36339 0.0
H2267 H 0.02769 0.21694 0.36691 0.0
H2268 H 0.89454 0.26882 0.36429 0.0
H2269 H 0.94028 0.25036 0.36414 0.0
C2270 C 1.00713 0.6627 0.61278 0.0
C2271 C 0.97961 0.65707 0.6145 0.0
C2272 C 1.01778 0.68964 0.61268 0.0
C2273 C 0.9964 0.76635 0.61455 0.0
H2274 H 0.07239 0.77879 0.61312 0.0
C2275 C 0.04011 0.88029 0.61306 0.0
C2276 C 0.06799 0.88577 0.61387 0.0
C2277 C 0.02937 0.85337 0.6131 0.0
C2278 C 0.05096 0.77653 0.61359 0.0
H2279 H 0.94268 0.67811 0.61757 0.0
H2280 H 0.96037 0.72304 0.61748 0.0
H2281 H 0.05544 0.73357 0.61338 0.0
H2282 H 0.10547 0.86444 0.61556 0.0
H2283 H 0.08767 0.81958 0.61569 0.0
H2284 H 0.99194 0.80932 0.61486 0.0
C2285 C 0.97437 0.70707 0.61605 0.0
C2286 C 0.04087 0.74952 0.61367 0.0
C2287 C 0.96385 0.68039 0.61615 0.0
C2288 C 0.08401 0.8623 0.6148 0.0
C2289 C 0.07342 0.83565 0.61485 0.0
C2290 C 1.00648 0.79336 0.61448 0.0
C2291 C 1.00181 0.71313 0.61428 0.0
C2292 C 1.0131 0.74308 0.61416 0.0
C2293 C 0.04561 0.82975 0.61398 0.0
C2294 C 0.03427 0.7998 0.61401 0.0
H2295 H 1.0207 0.64621 0.6115 0.0
H2296 H 0.03891 0.69178 0.61125 0.0
H2297 H 0.97494 0.76409 0.61485 0.0
H2298 H 0.0263 0.89688 0.6124 0.0
H2299 H 1.00794 0.85134 0.61239 0.0
C2300 C 0.41485 0.78497 0.8645 0.0
C2301 C 0.40927 0.81235 0.86641 0.0
C2302 C 0.44185 0.77414 0.86435 0.0
C2303 C 0.51873 0.79489 0.86632 0.0
H2304 H 0.53127 0.71908 0.8648 0.0
C2305 C 0.63291 0.75069 0.86462 0.0
C2306 C 0.63842 0.7229 0.86556 0.0
C2307 C 0.60591 0.76155 0.86468 0.0
C2308 C 0.52896 0.74045 0.86531 0.0
H2309 H 0.43041 0.8488 0.8698 0.0
H2310 H 0.47541 0.8308 0.86965 0.0
H2311 H 0.48588 0.73623 0.86512 0.0
H2312 H 0.61713 0.68572 0.86745 0.0
H2313 H 0.57214 0.70373 0.86762 0.0
H2314 H 0.56182 0.79909 0.86662 0.0
C2315 C 0.45939 0.81708 0.86807 0.0
C2316 C 0.50188 0.75065 0.86541 0.0
C2317 C 0.43266 0.82777 0.86821 0.0
C2318 C 0.61495 0.70709 0.86661 0.0
C2319 C 0.58822 0.7178 0.86667 0.0
C2320 C 0.54582 0.78469 0.86623 0.0
C2321 C 0.46541 0.7898 0.86611 0.0
C2322 C 0.49543 0.77837 0.86594 0.0
C2323 C 0.58228 0.74551 0.86568 0.0
C2324 C 0.55227 0.75697 0.86573 0.0
H2325 H 0.39829 0.77166 0.8631 0.0
H2326 H 0.44401 0.75315 0.86277 0.0
H2327 H 0.51643 0.81629 0.86664 0.0
H2328 H 0.64953 0.76432 0.86386 0.0
H2329 H 0.60381 0.78289 0.86386 0.0
C2330 C 0.46577 0.18026 0.11578 0.0
C2331 C 0.48164 0.15687 0.11443 0.0
C2332 C 0.47635 0.20691 0.11578 0.0
C2333 C 0.5431 0.24925 0.11446 0.0
H2334 H 0.49401 0.30903 0.11436 0.0
C2335 C 0.58584 0.36219 0.11593 0.0
C2336 C 0.56987 0.38554 0.11461 0.0
C2337 C 0.57533 0.3355 0.11588 0.0
C2338 C 0.50861 0.29308 0.11436 0.0
H2339 H 0.52305 0.14585 0.11214 0.0
H2340 H 0.54138 0.19141 0.11204 0.0
H2341 H 0.47708 0.2638 0.11419 0.0
H2342 H 0.52843 0.39646 0.11228 0.0
H2343 H 0.51024 0.35089 0.11212 0.0
H2344 H 0.57464 0.27854 0.11445 0.0
C2345 C 0.52008 0.18932 0.11314 0.0
C2346 C 0.49855 0.26607 0.11434 0.0
C2347 C 0.50936 0.1624 0.11314 0.0
C2348 C 0.54216 0.37994 0.11329 0.0
C2349 C 0.53153 0.353 0.11324 0.0
C2350 C 0.55317 0.27627 0.11448 0.0
C2351 C 0.50398 0.21287 0.11442 0.0
C2352 C 0.51529 0.24281 0.1144 0.0
C2353 C 0.5477 0.32948 0.11451 0.0
C2354 C 0.53642 0.29952 0.11445 0.0
H2355 H 0.44445 0.17806 0.11691 0.0
H2356 H 0.46224 0.22293 0.11696 0.0
H2357 H 0.55769 0.23329 0.11455 0.0
H2358 H 0.60716 0.36445 0.11704 0.0
H2359 H 0.5895 0.3195 0.11704 0.0
C2360 C 0.93264 0.71254 0.22254 0.0
C2361 C 0.90924 0.72812 0.2243 0.0
C2362 C 0.95934 0.72309 0.22264 0.0
C2363 C 1.0017 0.78935 0.22481 0.0
H2364 H 0.06164 0.74038 0.22442 0.0
C2365 C 0.11479 0.83168 0.22317 0.0
C2366 C 0.13814 0.81578 0.22466 0.0
C2367 C 0.08805 0.82125 0.22319 0.0
C2368 C 0.04563 0.75491 0.22458 0.0
H2369 H 0.8982 0.76895 0.22748 0.0
H2370 H 0.94391 0.78724 0.22774 0.0
H2371 H 1.01626 0.72351 0.22452 0.0
H2372 H 0.14914 0.77463 0.22726 0.0
H2373 H 0.10338 0.75653 0.2274 0.0
H2374 H 0.03111 0.82075 0.22509 0.0
C2375 C 0.94175 0.76622 0.22622 0.0
C2376 C 1.01857 0.74491 0.22454 0.0
C2377 C 0.91478 0.75553 0.22612 0.0
C2378 C 0.13257 0.78826 0.22613 0.0
C2379 C 0.10556 0.77769 0.22616 0.0
C2380 C 0.02878 0.79936 0.22486 0.0
C2381 C 0.96531 0.75039 0.22451 0.0
C2382 C 0.99528 0.76164 0.22463 0.0
C2383 C 0.08204 0.7938 0.22471 0.0
C2384 C 0.05206 0.78262 0.22472 0.0
H2385 H 0.93042 0.69149 0.22101 0.0
H2386 H 0.97539 0.70927 0.2211 0.0
H2387 H 0.98568 0.80389 0.22486 0.0
H2388 H 0.11708 0.85287 0.2219 0.0
H2389 H 0.07203 0.8353 0.22186 0.0
C2390 C 0.5051 0.8756 0.47774 0.0
C2391 C 0.47737 0.88116 0.47637 0.0
C2392 C 0.51594 0.84869 0.47776 0.0
C2393 C 0.49479 0.77211 0.47661 0.0
H2394 H 0.57096 0.75957 0.47622 0.0
C2395 C 0.53926 0.65842 0.47786 0.0
C2396 C 0.56682 0.6528 0.47616 0.0
C2397 C 0.52845 0.68534 0.47792 0.0
C2398 C 0.54948 0.76189 0.47626 0.0
H2399 H 0.44027 0.86013 0.47381 0.0
H2400 H 0.45829 0.81521 0.47375 0.0
H2401 H 0.55373 0.80484 0.4761 0.0
H2402 H 0.60363 0.67373 0.47305 0.0
H2403 H 0.58565 0.71869 0.47308 0.0
H2404 H 0.49052 0.72917 0.47665 0.0
C2405 C 0.4723 0.83121 0.47499 0.0
C2406 C 0.53925 0.78889 0.47628 0.0
C2407 C 0.46159 0.85786 0.47497 0.0
C2408 C 0.58246 0.67606 0.47448 0.0
C2409 C 0.57178 0.70273 0.47454 0.0
C2410 C 0.50501 0.74512 0.47658 0.0
C2411 C 0.49994 0.82522 0.47641 0.0
C2412 C 0.51141 0.79532 0.47644 0.0
C2413 C 0.5443 0.70877 0.4763 0.0
C2414 C 0.53285 0.73868 0.47639 0.0
H2415 H 0.51867 0.89212 0.47882 0.0
H2416 H 0.53722 0.84654 0.47893 0.0
H2417 H 0.47331 0.77443 0.47685 0.0
H2418 H 0.52579 0.64194 0.47915 0.0
H2419 H 0.5073 0.68753 0.47935 0.0
C2420 C 0.6169 0.33092 0.72296 0.0
C2421 C 0.64043 0.31542 0.72463 0.0
C2422 C 0.59025 0.32019 0.72301 0.0
C2423 C 0.54827 0.25351 0.72511 0.0
H2424 H 0.48792 0.30195 0.72437 0.0
C2425 C 0.4354 0.20994 0.72358 0.0
C2426 C 0.41183 0.22569 0.72478 0.0
C2427 C 0.46208 0.22065 0.72361 0.0
C2428 C 0.50404 0.28754 0.72462 0.0
H2429 H 0.65173 0.27452 0.72762 0.0
H2430 H 0.60616 0.25593 0.7278 0.0
H2431 H 0.53317 0.31921 0.72449 0.0
H2432 H 0.40049 0.26697 0.72686 0.0
H2433 H 0.44607 0.28552 0.72699 0.0
H2434 H 0.51912 0.22186 0.72543 0.0
C2435 C 0.60814 0.27703 0.72638 0.0
C2436 C 0.53105 0.29779 0.72461 0.0
C2437 C 0.63505 0.2879 0.72632 0.0
C2438 C 0.41719 0.25339 0.72596 0.0
C2439 C 0.44412 0.26424 0.72599 0.0
C2440 C 0.52125 0.24327 0.72513 0.0
C2441 C 0.58444 0.29277 0.72476 0.0
C2442 C 0.5545 0.28128 0.72483 0.0
C2443 C 0.46786 0.24828 0.72484 0.0
C2444 C 0.4978 0.25978 0.72487 0.0
H2445 H 0.61898 0.35206 0.72154 0.0
H2446 H 0.5741 0.334 0.72155 0.0
H2447 H 0.56439 0.2391 0.72526 0.0
H2448 H 0.43333 0.18864 0.72256 0.0
H2449 H 0.47827 0.20665 0.72253 0.0
C2450 C 0.08314 0.17684 0.97555 0.0
C2451 C 0.06746 0.1534 0.97683 0.0
C2452 C 0.07232 0.20346 0.97569 0.0
C2453 C 1.00524 0.24545 0.97682 0.0
H2454 H 0.05364 0.30532 0.97835 0.0
C2455 C 0.96182 0.35813 0.97515 0.0
C2456 C 0.97693 0.38132 0.97749 0.0
C2457 C 0.97268 0.33155 0.97514 0.0
C2458 C 0.03925 0.28931 0.97795 0.0
H2459 H 0.0262 0.14219 0.97917 0.0
H2460 H 1.00746 0.18771 0.97948 0.0
H2461 H 0.07103 0.26005 0.97837 0.0
H2462 H 1.01727 0.39212 0.98158 0.0
H2463 H 0.03607 0.34659 0.98165 0.0
H2464 H 0.97343 0.27467 0.97662 0.0
C2465 C 0.02876 0.18567 0.97833 0.0
C2466 C 0.04958 0.26235 0.97787 0.0
C2467 C 0.03971 0.15881 0.9782 0.0
C2468 C 1.00419 0.3757 0.97976 0.0
C2469 C 1.0152 0.34884 0.97975 0.0
C2470 C 0.99491 0.27241 0.97691 0.0
C2471 C 0.04466 0.20927 0.97711 0.0
C2472 C 0.03307 0.23912 0.97728 0.0
C2473 C 0.99983 0.3255 0.97747 0.0
C2474 C 1.01142 0.29565 0.97745 0.0
H2475 H 0.10446 0.17471 0.97439 0.0
H2476 H 0.08623 0.21959 0.97454 0.0
H2477 H 0.99086 0.22946 0.97631 0.0
H2478 H 0.94092 0.36044 0.97324 0.0
H2479 H 0.95923 0.31566 0.97314 0.0
C2480 C 0.13443 0.74944 0.7285 0.0
C2481 C 0.14031 0.72201 0.72684 0.0
C2482 C 0.10733 0.75997 0.72859 0.0
C2483 C 0.03062 0.73844 0.72651 0.0
H2484 H 1.01755 0.81402 0.72867 0.0
C2485 C 0.916 0.78186 0.72781 0.0
C2486 C 0.91047 0.80975 0.7275 0.0
C2487 C 0.94306 0.77111 0.72776 0.0
C2488 C 1.01996 0.79271 0.728 0.0
H2489 H 0.1196 0.68508 0.72382 0.0
H2490 H 0.07437 0.70255 0.72391 0.0
H2491 H 0.06296 0.79725 0.7284 0.0
H2492 H 0.9318 0.84723 0.72674 0.0
H2493 H 0.97675 0.82945 0.72659 0.0
H2494 H 0.98757 0.73396 0.72601 0.0
C2495 C 0.09024 0.71658 0.7253 0.0
C2496 C 0.04711 0.78272 0.7279 0.0
C2497 C 0.1171 0.70618 0.72522 0.0
C2498 C 0.93397 0.82575 0.72708 0.0
C2499 C 0.9607 0.81516 0.72702 0.0
C2500 C 1.00345 0.74845 0.72658 0.0
C2501 C 0.08393 0.74394 0.72702 0.0
C2502 C 0.0538 0.7551 0.72714 0.0
C2503 C 0.9667 0.78736 0.72738 0.0
C2504 C 0.99678 0.77608 0.72732 0.0
H2505 H 0.15085 0.76303 0.72975 0.0
H2506 H 0.105 0.78105 0.72997 0.0
H2507 H 0.03306 0.71709 0.72598 0.0
H2508 H 0.89938 0.7681 0.72807 0.0
H2509 H 0.94517 0.74967 0.72806 0.0
C2510 C 1.00913 0.16376 0.47633 0.0
C2511 C 0.98131 0.15824 0.47535 0.0
C2512 C 1.01976 0.19074 0.47635 0.0
C2513 C 0.99771 0.26745 0.4756 0.0
H2514 H 0.07368 0.28037 0.47495 0.0
C2515 C 0.04022 0.38167 0.4749 0.0
C2516 C 0.06807 0.38743 0.47549 0.0
C2517 C 0.02981 0.35465 0.47486 0.0
C2518 C 0.05224 0.27798 0.47518 0.0
H2519 H 0.94384 0.17954 0.47349 0.0
H2520 H 0.96142 0.22432 0.47348 0.0
H2521 H 0.05702 0.23504 0.47499 0.0
H2522 H 0.10596 0.36651 0.4764 0.0
H2523 H 0.08873 0.32145 0.47643 0.0
H2524 H 0.99288 0.31034 0.47578 0.0
C2525 C 0.97573 0.20832 0.47438 0.0
C2526 C 0.04235 0.25091 0.4752 0.0
C2527 C 0.96526 0.18167 0.47436 0.0
C2528 C 0.08447 0.36414 0.47599 0.0
C2529 C 0.0742 0.33737 0.47596 0.0
C2530 C 1.00759 0.29451 0.47558 0.0
C2531 C 1.00345 0.2143 0.4754 0.0
C2532 C 1.01459 0.2443 0.47541 0.0
C2533 C 0.04639 0.33119 0.4754 0.0
C2534 C 0.03535 0.30114 0.47537 0.0
H2535 H 0.02295 0.1472 0.47703 0.0
H2536 H 0.04115 0.19285 0.47717 0.0
H2537 H 0.97627 0.26508 0.47586 0.0
H2538 H 0.0262 0.39813 0.4744 0.0
H2539 H 1.00837 0.35245 0.47435 0.0
C2540 C 0.61129 0.20529 0.22598 0.0
C2541 C 0.63457 0.22144 0.2269 0.0
C2542 C 0.58445 0.21567 0.226 0.0
C2543 C 0.54111 0.28126 0.22933 0.0
H2544 H 0.48253 0.23459 0.22262 0.0
C2545 C 0.42798 0.32431 0.22795 0.0
C2546 C 0.40472 0.30806 0.22727 0.0
C2547 C 0.45483 0.31396 0.22787 0.0
C2548 C 0.49814 0.24841 0.22462 0.0
H2549 H 0.64524 0.26299 0.22847 0.0
H2550 H 0.59934 0.28104 0.22846 0.0
H2551 H 0.52812 0.21795 0.22247 0.0
H2552 H 0.39405 0.26648 0.2258 0.0
H2553 H 0.43996 0.24849 0.22576 0.0
H2554 H 0.51111 0.31171 0.23148 0.0
C2555 C 0.60166 0.25968 0.22781 0.0
C2556 C 0.52532 0.23853 0.22454 0.0
C2557 C 0.62876 0.24916 0.2278 0.0
C2558 C 0.41053 0.28033 0.22644 0.0
C2559 C 0.43763 0.26986 0.22636 0.0
C2560 C 0.51393 0.29114 0.2294 0.0
C2561 C 0.57823 0.24334 0.2269 0.0
C2562 C 0.54813 0.25447 0.22691 0.0
C2563 C 0.46104 0.28627 0.2271 0.0
C2564 C 0.49113 0.27519 0.22705 0.0
H2565 H 0.61374 0.18393 0.22524 0.0
H2566 H 0.56847 0.20134 0.22536 0.0
H2567 H 0.55671 0.29509 0.23132 0.0
H2568 H 0.42552 0.34571 0.22851 0.0
H2569 H 0.47082 0.32834 0.22832 0.0
C2570 C 0.58372 0.86385 0.97397 0.0
C2571 C 0.56788 0.88737 0.9751 0.0
C2572 C 0.57307 0.83726 0.97391 0.0
C2573 C 0.50623 0.79491 0.97478 0.0
H2574 H 0.55546 0.73524 0.97472 0.0
C2575 C 0.46386 0.68177 0.97299 0.0
C2576 C 0.47994 0.65843 0.97417 0.0
C2577 C 0.47424 0.70851 0.97314 0.0
C2578 C 0.54082 0.75115 0.97477 0.0
H2579 H 0.52633 0.89859 0.97692 0.0
H2580 H 0.50782 0.85303 0.97689 0.0
H2581 H 0.57228 0.78043 0.97505 0.0
H2582 H 0.52146 0.64763 0.97636 0.0
H2583 H 0.53947 0.69326 0.97667 0.0
H2584 H 0.47476 0.76552 0.97467 0.0
C2585 C 0.52921 0.85504 0.97605 0.0
C2586 C 0.55081 0.77817 0.97489 0.0
C2587 C 0.54003 0.88197 0.97611 0.0
C2588 C 0.50764 0.66412 0.97546 0.0
C2589 C 0.51816 0.6911 0.9756 0.0
C2590 C 0.49623 0.76786 0.97467 0.0
C2591 C 0.54534 0.83139 0.97496 0.0
C2592 C 0.53403 0.80142 0.97489 0.0
C2593 C 0.50187 0.71461 0.97447 0.0
C2594 C 0.51303 0.74462 0.97464 0.0
H2595 H 0.60513 0.86587 0.97307 0.0
H2596 H 0.58726 0.82122 0.97292 0.0
H2597 H 0.49162 0.81084 0.97475 0.0
H2598 H 0.44253 0.67946 0.97191 0.0
H2599 H 0.45998 0.72449 0.9721 0.0
C2600 C 0.13545 0.28907 0.86286 0.0
C2601 C 0.14103 0.31681 0.86372 0.0
C2602 C 0.10845 0.27843 0.86295 0.0
C2603 C 0.03145 0.30003 0.86387 0.0
H2604 H 1.01905 0.22419 0.86461 0.0
C2605 C 0.91727 0.25633 0.86335 0.0
C2606 C 0.91174 0.22876 0.86482 0.0
C2607 C 0.94427 0.26699 0.86319 0.0
C2608 C 1.0213 0.24559 0.86446 0.0
H2609 H 0.11985 0.35421 0.8655 0.0
H2610 H 0.07478 0.33658 0.86574 0.0
H2611 H 0.06439 0.24112 0.86451 0.0
H2612 H 0.93302 0.19174 0.86742 0.0
H2613 H 0.97805 0.20942 0.86723 0.0
H2614 H 0.98836 0.3045 0.86391 0.0
C2615 C 0.09084 0.32235 0.86484 0.0
C2616 C 0.04837 0.25565 0.86433 0.0
C2617 C 0.1176 0.33285 0.86473 0.0
C2618 C 0.93522 0.21294 0.86618 0.0
C2619 C 0.96196 0.22347 0.86603 0.0
C2620 C 1.00437 0.28997 0.86401 0.0
C2621 C 0.08483 0.29466 0.86393 0.0
C2622 C 0.0548 0.28337 0.86404 0.0
C2623 C 0.96792 0.25096 0.8645 0.0
C2624 C 0.99795 0.26225 0.86432 0.0
H2625 H 0.15205 0.27528 0.86212 0.0
H2626 H 0.10636 0.2571 0.8622 0.0
H2627 H 0.0337 0.32142 0.86356 0.0
H2628 H 0.90065 0.26995 0.86231 0.0
H2629 H 0.94633 0.28817 0.86196 0.0
C2630 C 0.5115 0.37611 0.61577 0.0
C2631 C 0.4836 0.38186 0.61586 0.0
C2632 C 0.52196 0.34907 0.61581 0.0
C2633 C 0.49949 0.27279 0.61694 0.0
H2634 H 0.57509 0.25899 0.61432 0.0
C2635 C 0.54162 0.15852 0.61541 0.0
C2636 C 0.56942 0.15257 0.61623 0.0
C2637 C 0.53126 0.18558 0.61537 0.0
C2638 C 0.55377 0.2617 0.61515 0.0
H2639 H 0.44567 0.36111 0.61614 0.0
H2640 H 0.46294 0.31611 0.6161 0.0
H2641 H 0.5586 0.30448 0.61434 0.0
H2642 H 0.60725 0.17303 0.61777 0.0
H2643 H 0.59002 0.21829 0.61778 0.0
H2644 H 0.49469 0.22999 0.61778 0.0
C2645 C 0.4775 0.33195 0.61604 0.0
C2646 C 0.54397 0.28882 0.61513 0.0
C2647 C 0.4672 0.35869 0.61602 0.0
C2648 C 0.58583 0.17563 0.61705 0.0
C2649 C 0.57559 0.20245 0.61701 0.0
C2650 C 0.50929 0.24568 0.61696 0.0
C2651 C 0.50534 0.32572 0.61596 0.0
C2652 C 0.51635 0.29569 0.61602 0.0
C2653 C 0.54786 0.2088 0.61614 0.0
C2654 C 0.5369 0.23883 0.61607 0.0
H2655 H 0.52548 0.39255 0.61573 0.0
H2656 H 0.54345 0.34676 0.61579 0.0
H2657 H 0.47816 0.27538 0.61774 0.0
H2658 H 0.52761 0.14219 0.6148 0.0
H2659 H 0.50986 0.18804 0.61465 0.0
C2660 C 0.63278 0.79135 0.36231 0.0
C2661 C 0.63849 0.81888 0.36376 0.0
C2662 C 0.60572 0.78084 0.36226 0.0
C2663 C 0.5289 0.80263 0.36412 0.0
H2664 H 0.5161 0.72698 0.36252 0.0
C2665 C 0.41446 0.75999 0.36352 0.0
C2666 C 0.40888 0.73216 0.3634 0.0
C2667 C 0.44151 0.77047 0.36356 0.0
C2668 C 0.51843 0.74833 0.36301 0.0
H2669 H 0.6175 0.85599 0.36645 0.0
H2670 H 0.57242 0.83857 0.36644 0.0
H2671 H 0.56146 0.74363 0.36266 0.0
H2672 H 0.43004 0.6944 0.36336 0.0
H2673 H 0.4751 0.71173 0.36344 0.0
H2674 H 0.48588 0.80733 0.36453 0.0
C2675 C 0.58837 0.82443 0.36518 0.0
C2676 C 0.54555 0.75823 0.36305 0.0
C2677 C 0.61515 0.8348 0.36521 0.0
C2678 C 0.4323 0.71587 0.36338 0.0
C2679 C 0.45907 0.72621 0.36342 0.0
C2680 C 0.50178 0.79272 0.3641 0.0
C2681 C 0.58221 0.79698 0.36368 0.0
C2682 C 0.55213 0.78587 0.36361 0.0
C2683 C 0.46511 0.75399 0.3635 0.0
C2684 C 0.49519 0.76509 0.36354 0.0
H2685 H 0.64929 0.77766 0.3612 0.0
H2686 H 0.60352 0.75968 0.36105 0.0
H2687 H 0.53124 0.82399 0.36451 0.0
H2688 H 0.39786 0.77391 0.36362 0.0
H2689 H 0.44361 0.7919 0.36363 0.0
C2690 C 0.96124 0.85991 0.11796 0.0
C2691 C 0.97711 0.88309 0.11642 0.0
C2692 C 0.97177 0.83318 0.11797 0.0
C2693 C 0.03836 0.79036 0.11647 0.0
H2694 H 0.98918 0.731 0.11646 0.0
C2695 C 0.08085 0.67722 0.11823 0.0
C2696 C 0.06492 0.65405 0.11676 0.0
C2697 C 0.07037 0.70397 0.11816 0.0
C2698 C 1.00379 0.74683 0.11643 0.0
H2699 H 1.01838 0.89373 0.11377 0.0
H2700 H 0.03662 0.84802 0.11369 0.0
H2701 H 0.97229 0.77637 0.11624 0.0
H2702 H 0.02362 0.64346 0.11413 0.0
H2703 H 1.00547 0.68918 0.11391 0.0
H2704 H 0.06985 0.76082 0.11645 0.0
C2705 C 1.0154 0.85033 0.11494 0.0
C2706 C 0.99376 0.7739 0.11638 0.0
C2707 C 1.00474 0.87732 0.11494 0.0
C2708 C 0.0373 0.65986 0.11526 0.0
C2709 C 0.02669 0.68686 0.11518 0.0
C2710 C 0.04839 0.76329 0.1165 0.0
C2711 C 0.9993 0.82698 0.11643 0.0
C2712 C 1.01055 0.79699 0.11642 0.0
C2713 C 0.04283 0.7102 0.1166 0.0
C2714 C 0.03159 0.7402 0.1165 0.0
H2715 H 0.94 0.86234 0.11923 0.0
H2716 H 0.95771 0.8173 0.11932 0.0
H2717 H 0.05295 0.80621 0.11654 0.0
H2718 H 0.1021 0.67475 0.11951 0.0
H2719 H 0.08447 0.71984 0.11946 0.0
C2720 C 0.22934 0.21782 0.32845 0.0
C2721 C 0.24712 0.22062 0.33643 0.0
C2722 C 0.23517 0.22782 0.31892 0.0
C2723 C 0.2899 0.26607 0.30355 0.0
H2724 H 0.23842 0.257 0.28292 0.0
C2725 C 0.31541 0.30455 0.2631 0.0
C2726 C 0.29617 0.30507 0.25551 0.0
C2727 C 0.3096 0.29474 0.27266 0.0
C2728 C 0.25344 0.26022 0.28843 0.0
H2729 H 0.28572 0.23743 0.3399 0.0
H2730 H 0.29586 0.25459 0.32375 0.0
H2731 H 0.22864 0.24055 0.29895 0.0
H2732 H 0.2549 0.29472 0.25277 0.0
H2733 H 0.24474 0.27811 0.26899 0.0
H2734 H 0.31454 0.28606 0.29303 0.0
C2735 C 0.27704 0.2444 0.32465 0.0
C2736 C 0.24768 0.25029 0.29799 0.0
C2737 C 0.27118 0.23429 0.3342 0.0
C2738 C 0.27067 0.29504 0.25816 0.0
C2739 C 0.26483 0.28516 0.26772 0.0
C2740 C 0.29562 0.27608 0.294 0.0
C2741 C 0.25928 0.2416 0.31657 0.0
C2742 C 0.26565 0.25271 0.306 0.0
C2743 C 0.28405 0.28455 0.27541 0.0
C2744 C 0.27767 0.27358 0.28599 0.0
H2745 H 0.21047 0.20772 0.32956 0.0
H2746 H 0.22022 0.22448 0.3134 0.0
H2747 H 0.30504 0.26909 0.30903 0.0
H2748 H 0.33538 0.31184 0.26166 0.0
H2749 H 0.32575 0.2951 0.27787 0.0
C2750 C 1.0011 0.02968 0.50588 0.0
C2751 C 0.98063 0.04886 0.50415 0.0
C2752 C 1.0112 0.02362 0.51541 0.0
C2753 C 1.00484 0.0433 0.54313 0.0
H2754 H 0.05678 0.98683 0.54643 0.0
C2755 C 0.04896 1.01837 0.58304 0.0
C2756 C 0.06689 0.99686 0.58484 0.0
C2757 C 0.03868 0.02456 0.57354 0.0
C2758 C 0.04224 1.00276 0.54594 0.0
H2759 H 0.95546 0.07659 0.51196 0.0
H2760 H 0.97227 0.06633 0.52818 0.0
H2761 H 0.03956 0.99696 0.53052 0.0
H2762 H 0.0872 0.96509 0.5772 0.0
H2763 H 0.06995 0.97535 0.56109 0.0
H2764 H 1.00732 0.04888 0.55859 0.0
C2765 C 0.98107 0.05555 0.52221 0.0
C2766 C 0.03205 1.00889 0.53643 0.0
C2767 C 0.971 0.06162 0.51266 0.0
C2768 C 0.07373 0.98193 0.57644 0.0
C2769 C 0.06349 0.98809 0.56694 0.0
C2770 C 1.01498 0.03711 0.55265 0.0
C2771 C 1.00165 0.03625 0.52402 0.0
C2772 C 1.01289 0.02947 0.53457 0.0
C2773 C 0.04549 1.00972 0.56504 0.0
C2774 C 0.03418 1.01656 0.5545 0.0
H2775 H 1.00965 1.01913 0.49978 0.0
H2776 H 0.02688 1.00881 0.51586 0.0
H2777 H 0.99047 0.05938 0.54262 0.0
H2778 H 0.04259 0.03065 0.58907 0.0
H2779 H 0.02522 0.04139 0.57299 0.0
C2780 C 0.31579 0.81785 0.8286 0.0
C2781 C 0.29915 0.81294 0.83675 0.0
C2782 C 0.31019 0.80746 0.8191 0.0
C2783 C 0.2593 0.76252 0.8044 0.0
H2784 H 0.30488 0.781 0.78286 0.0
C2785 C 0.23611 0.7181 0.76462 0.0
C2786 C 0.25138 0.72478 0.75629 0.0
C2787 C 0.2418 0.72848 0.7741 0.0
C2788 C 0.29145 0.77522 0.78861 0.0
H2789 H 0.26296 0.79193 0.84057 0.0
H2790 H 0.25317 0.77431 0.8245 0.0
H2791 H 0.31422 0.79851 0.79877 0.0
H2792 H 0.28521 0.74895 0.75213 0.0
H2793 H 0.29503 0.7668 0.76818 0.0
H2794 H 0.2364 0.73942 0.79424 0.0
C2795 C 0.27092 0.78634 0.82523 0.0
C2796 C 0.29707 0.78561 0.79811 0.0
C2797 C 0.27655 0.79678 0.83473 0.0
C2798 C 0.27273 0.74271 0.75812 0.0
C2799 C 0.27842 0.75319 0.76761 0.0
C2800 C 0.25364 0.75218 0.7949 0.0
C2801 C 0.28748 0.79122 0.81697 0.0
C2802 C 0.28126 0.77973 0.80645 0.0
C2803 C 0.26322 0.74653 0.77604 0.0
C2804 C 0.26946 0.75803 0.78656 0.0
H2805 H 0.33354 0.8299 0.82955 0.0
H2806 H 0.32422 0.81237 0.81344 0.0
H2807 H 0.24595 0.75661 0.81015 0.0
H2808 H 0.21939 0.70459 0.76383 0.0
H2809 H 0.22895 0.72197 0.77992 0.0
C2810 C 0.47476 0.06145 0.07673 0.0
C2811 C 0.48218 0.04672 0.08512 0.0
C2812 C 0.48499 0.05557 0.06722 0.0
C2813 C 0.53391 1.00723 0.05293 0.0
H2814 H 0.50995 0.0484 1.03088 0.0
C2815 C 0.57743 0.98294 1.01299 0.0
C2816 C 0.56885 0.99676 1.00454 0.0
C2817 C 0.56726 0.98881 1.02252 0.0
C2818 C 0.51732 0.03622 1.03677 0.0
H2819 H 0.50751 1.01364 0.08937 0.0
H2820 H 0.52493 1.00342 0.07331 0.0
H2821 H 0.49278 0.05823 0.04679 0.0
H2822 H 0.54159 0.02819 1.00021 0.0
H2823 H 0.52421 0.03829 1.01627 0.0
H2824 H 0.55835 0.98513 1.0429 0.0
C2825 C 0.51096 1.01982 0.07384 0.0
C2826 C 0.5071 0.04213 0.04628 0.0
C2827 C 0.50068 0.02573 0.08333 0.0
C2828 C 0.5493 1.01682 1.00629 0.0
C2829 C 0.53909 0.0227 1.01579 0.0
C2830 C 0.5441 1.0013 1.04342 0.0
C2831 C 0.50357 0.03446 0.06533 0.0
C2832 C 0.51491 0.02791 0.0548 0.0
C2833 C 0.5476 1.00898 1.02436 0.0
C2834 C 0.53629 1.01552 1.03489 0.0
H2835 H 0.46082 0.0779 0.07748 0.0
H2836 H 0.47802 0.06807 0.06136 0.0
H2837 H 0.54134 0.99512 0.05883 0.0
H2838 H 0.59223 0.96724 1.01228 0.0
H2839 H 0.5752 0.97712 1.02844 0.0
C2840 C 0.31911 0.74425 0.32858 0.0
C2841 C 0.29995 0.73082 0.33442 0.0
C2842 C 0.31299 0.75468 0.31909 0.0
C2843 C 0.26371 0.74934 0.2975 0.0
H2844 H 0.29426 0.816 0.28875 0.0
C2845 C 0.25344 0.78755 0.25597 0.0
C2846 C 0.24977 0.81513 0.25389 0.0
C2847 C 0.25896 0.77761 0.26556 0.0
C2848 C 0.28533 0.7973 0.29094 0.0
H2849 H 0.25856 0.71835 0.33402 0.0
H2850 H 0.24838 0.73512 0.31762 0.0
H2851 H 0.30472 0.79874 0.30502 0.0
H2852 H 0.24979 0.8534 0.26112 0.0
H2853 H 0.26046 0.83654 0.27747 0.0
H2854 H 0.24491 0.74754 0.28332 0.0
C2855 C 0.26839 0.73803 0.32043 0.0
C2856 C 0.29158 0.7871 0.30044 0.0
C2857 C 0.27431 0.72827 0.33003 0.0
C2858 C 0.25237 0.83212 0.26209 0.0
C2859 C 0.25867 0.82223 0.27164 0.0
C2860 C 0.25804 0.75917 0.2879 0.0
C2861 C 0.28745 0.75178 0.31461 0.0
C2862 C 0.28087 0.76282 0.30412 0.0
C2863 C 0.262 0.79457 0.27376 0.0
C2864 C 0.26848 0.78363 0.28427 0.0
H2865 H 0.33911 0.74714 0.33141 0.0
H2866 H 0.32873 0.76476 0.31516 0.0
H2867 H 0.25479 0.73063 0.29968 0.0
H2868 H 0.25164 0.77327 0.25012 0.0
H2869 H 0.26129 0.75629 0.2665 0.0
C2870 C 0.56819 0.05892 0.57887 0.0
C2871 C 0.56515 0.04143 0.58691 0.0
C2872 C 0.55804 0.05303 0.56936 0.0
C2873 C 0.51692 0.99972 0.55438 0.0
H2874 H 0.53166 0.04758 0.53311 0.0
C2875 C 0.47444 0.97495 0.5144 0.0
C2876 C 0.47836 0.99195 0.50628 0.0
C2877 C 0.48472 0.9808 0.5239 0.0
C2878 C 0.5269 0.03354 0.53878 0.0
H2879 H 0.5479 1.00321 0.59051 0.0
H2880 H 0.53062 0.99289 0.57437 0.0
H2881 H 0.54886 0.05723 0.54905 0.0
H2882 H 0.49745 0.02916 0.50251 0.0
H2883 H 0.51496 0.03937 0.51861 0.0
H2884 H 0.49507 0.97597 0.54411 0.0
C2885 C 0.54092 1.01163 0.57523 0.0
C2886 C 0.53712 0.03931 0.54831 0.0
C2887 C 0.55116 1.01756 0.58476 0.0
C2888 C 0.49343 1.01524 0.50833 0.0
C2889 C 0.50377 0.02113 0.51784 0.0
C2890 C 0.50672 0.99393 0.54486 0.0
C2891 C 0.5439 0.02912 0.5671 0.0
C2892 C 0.5326 0.02268 0.55655 0.0
C2893 C 0.49986 1.00416 0.52607 0.0
C2894 C 0.51121 1.01057 0.53661 0.0
H2895 H 0.57863 0.07759 0.57991 0.0
H2896 H 0.56143 0.06781 0.56381 0.0
H2897 H 0.5121 0.98572 0.56006 0.0
H2898 H 0.46324 0.9567 0.51344 0.0
H2899 H 0.48054 0.96643 0.52953 0.0
C2900 C 0.27881 0.24256 0.75589 0.0
C2901 C 0.30165 0.22657 0.75388 0.0
C2902 C 0.27305 0.25294 0.76539 0.0
C2903 C 0.29957 0.25425 0.79251 0.0
H2904 H 0.23746 0.29884 0.79648 0.0
C2905 C 0.27505 0.29732 0.83253 0.0
C2906 C 0.25284 0.31428 0.83443 0.0
C2907 C 0.28087 0.28689 0.82303 0.0
C2908 C 0.2551 0.28651 0.7958 0.0
H2909 H 0.33632 0.20991 0.7611 0.0
H2910 H 0.32678 0.22731 0.77721 0.0
H2911 H 0.24715 0.2817 0.78056 0.0
H2912 H 0.21945 0.33272 0.82698 0.0
H2913 H 0.22918 0.3154 0.81089 0.0
H2914 H 0.30757 0.25916 0.80775 0.0
C2915 C 0.31266 0.23215 0.77154 0.0
C2916 C 0.26086 0.27623 0.78628 0.0
C2917 C 0.31839 0.22181 0.76204 0.0
C2918 C 0.23685 0.32001 0.82615 0.0
C2919 C 0.24266 0.30968 0.81665 0.0
C2920 C 0.29382 0.26455 0.80202 0.0
C2921 C 0.28971 0.24819 0.77366 0.0
C2922 C 0.28336 0.25961 0.78419 0.0
C2923 C 0.26494 0.29262 0.81464 0.0
C2924 C 0.27131 0.28117 0.80411 0.0
H2925 H 0.26512 0.24728 0.75004 0.0
H2926 H 0.25513 0.26485 0.76611 0.0
H2927 H 0.31715 0.24184 0.79183 0.0
H2928 H 0.28814 0.29181 0.83847 0.0
H2929 H 0.2982 0.2741 0.8224 0.0
C2930 C 0.07278 0.05784 1.01459 0.0
C2931 C 0.06645 0.04245 1.00626 0.0
C2932 C 0.06249 0.05198 1.02409 0.0
C2933 C 1.01497 1.00285 1.0385 0.0
H2934 H 0.0376 0.04492 0.06043 0.0
C2935 C 0.97096 0.97916 0.07838 0.0
C2936 C 0.97929 0.993 0.08684 0.0
C2937 C 0.98119 0.98499 0.06887 0.0
C2938 C 0.03063 0.03248 0.05458 0.0
H2939 H 0.04299 1.00814 1.00213 0.0
H2940 H 0.02548 0.99789 1.01821 0.0
H2941 H 0.05491 0.05455 1.04452 0.0
H2942 H 1.00624 0.02445 0.09119 0.0
H2943 H 0.02382 0.03447 0.07511 0.0
H2944 H 0.99087 0.98063 0.04858 0.0
C2945 C 0.0386 1.01487 1.01761 0.0
C2946 C 0.0409 0.03829 1.04507 0.0
C2947 C 0.04895 0.02077 1.00811 0.0
C2948 C 0.9987 1.01307 0.08511 0.0
C2949 C 1.00902 1.0189 0.0756 0.0
C2950 C 1.00475 0.99701 0.04802 0.0
C2951 C 0.04492 0.03021 1.02605 0.0
C2952 C 0.03354 0.02375 1.03658 0.0
C2953 C 1.00072 1.00513 0.06704 0.0
C2954 C 1.01208 1.01156 0.0565 0.0
H2955 H 0.08592 0.07483 1.0138 0.0
H2956 H 0.06858 0.06507 1.02989 0.0
H2957 H 1.00789 0.99052 1.03263 0.0
H2958 H 0.95625 0.96347 0.07908 0.0
H2959 H 0.97338 0.97329 0.06295 0.0
C2960 C 0.73315 0.71756 0.82835 0.0
C2961 C 0.74935 0.72251 0.83662 0.0
C2962 C 0.7393 0.72785 0.81888 0.0
C2963 C 0.79323 0.76907 0.80419 0.0
H2964 H 0.74279 0.76036 0.78322 0.0
C2965 C 0.81924 0.81216 0.76434 0.0
C2966 C 0.80139 0.81009 0.75635 0.0
C2967 C 0.81315 0.80181 0.77382 0.0
C2968 C 0.75762 0.76338 0.78881 0.0
H2969 H 0.78538 0.74349 0.84069 0.0
H2970 H 0.79591 0.76121 0.82468 0.0
H2971 H 0.73237 0.74334 0.79912 0.0
H2972 H 0.76239 0.79429 0.75281 0.0
H2973 H 0.75183 0.7767 0.76881 0.0
H2974 H 0.81836 0.78935 0.79391 0.0
C2975 C 0.77825 0.74898 0.82528 0.0
C2976 C 0.75144 0.75311 0.79829 0.0
C2977 C 0.7721 0.73862 0.83475 0.0
C2978 C 0.77704 0.79683 0.75852 0.0
C2979 C 0.77092 0.78643 0.76798 0.0
C2980 C 0.79938 0.7794 0.79472 0.0
C2981 C 0.76215 0.74405 0.8169 0.0
C2982 C 0.76896 0.75546 0.80642 0.0
C2983 C 0.78868 0.78847 0.77608 0.0
C2984 C 0.78187 0.77703 0.78658 0.0
H2985 H 0.71535 0.70553 0.82918 0.0
H2986 H 0.72575 0.72269 0.81308 0.0
H2987 H 0.80813 0.77187 0.80977 0.0
H2988 H 0.8383 0.82193 0.76328 0.0
H2989 H 0.82815 0.80448 0.77936 0.0
C2990 C 0.77142 0.29326 0.33474 0.0
C2991 C 0.79447 0.30877 0.33679 0.0
C2992 C 0.76555 0.28301 0.32523 0.0
C2993 C 0.79311 0.27994 0.29829 0.0
H2994 H 0.72812 0.24053 0.29376 0.0
C2995 C 0.76869 0.2378 0.2582 0.0
C2996 C 0.7455 0.22256 0.2561 0.0
C2997 C 0.77445 0.24805 0.26772 0.0
C2998 C 0.74659 0.25138 0.29461 0.0
H2999 H 0.82929 0.32485 0.32959 0.0
H3000 H 0.8195 0.30785 0.31348 0.0
H3001 H 0.73777 0.2575 0.30972 0.0
H3002 H 0.71024 0.20705 0.26317 0.0
H3003 H 0.71986 0.22408 0.27932 0.0
H3004 H 0.80193 0.27386 0.28319 0.0
C3005 C 0.80539 0.30312 0.31913 0.0
C3006 C 0.75235 0.26149 0.30414 0.0
C3007 C 0.81124 0.31327 0.32864 0.0
C3008 C 0.72844 0.21838 0.26418 0.0
C3009 C 0.73418 0.22853 0.2737 0.0
C3010 C 0.78735 0.26984 0.28876 0.0
C3011 C 0.78228 0.2875 0.31698 0.0
C3012 C 0.77588 0.27625 0.30643 0.0
C3013 C 0.75747 0.24384 0.27592 0.0
C3014 C 0.76382 0.25507 0.28647 0.0
H3015 H 0.75769 0.28878 0.34058 0.0
H3016 H 0.74756 0.27134 0.32448 0.0
H3017 H 0.8116 0.29075 0.29914 0.0
H3018 H 0.78263 0.24207 0.25241 0.0
H3019 H 0.79258 0.25947 0.26851 0.0
C3020 C 0.73445 0.3208 0.76286 0.0
C3021 C 0.75126 0.31628 0.75472 0.0
C3022 C 0.7403 0.31054 0.77238 0.0
C3023 C 0.79243 0.26684 0.78723 0.0
H3024 H 0.7459 0.28411 0.80865 0.0
C3025 C 0.81647 0.22319 0.8272 0.0
C3026 C 0.80067 0.22931 0.83546 0.0
C3027 C 0.81065 0.23341 0.81767 0.0
C3028 C 0.75961 0.27868 0.80294 0.0
H3029 H 0.78809 0.29608 0.75095 0.0
H3030 H 0.7983 0.27866 0.76707 0.0
H3031 H 0.73622 0.30134 0.79271 0.0
H3032 H 0.76575 0.25237 0.83945 0.0
H3033 H 0.75571 0.26989 0.82335 0.0
H3034 H 0.81592 0.24433 0.79748 0.0
C3035 C 0.78021 0.2903 0.76631 0.0
C3036 C 0.75379 0.28891 0.79341 0.0
C3037 C 0.77433 0.30062 0.75678 0.0
C3038 C 0.77868 0.24655 0.83352 0.0
C3039 C 0.77285 0.25686 0.824 0.0
C3040 C 0.79827 0.25665 0.79677 0.0
C3041 C 0.76347 0.29481 0.77455 0.0
C3042 C 0.76992 0.28347 0.7851 0.0
C3043 C 0.78856 0.25073 0.81562 0.0
C3044 C 0.78213 0.26207 0.80507 0.0
H3045 H 0.71635 0.33245 0.76189 0.0
H3046 H 0.72609 0.31516 0.77802 0.0
H3047 H 0.80607 0.2613 0.78151 0.0
H3048 H 0.83372 0.21027 0.82808 0.0
H3049 H 0.82395 0.22739 0.81192 0.0
C3050 C 0.73372 0.82302 0.32609 0.0
C3051 C 0.74959 0.8172 0.33438 0.0
C3052 C 0.73959 0.81263 0.3166 0.0
C3053 C 0.79007 0.76622 0.30218 0.0
H3054 H 0.74581 0.78616 0.28036 0.0
C3055 C 0.81439 0.72208 0.26236 0.0
C3056 C 0.79935 0.72901 0.25397 0.0
C3057 C 0.80852 0.73245 0.27184 0.0
C3058 C 0.75887 0.77994 0.28619 0.0
H3059 H 0.7847 0.79451 0.33848 0.0
H3060 H 0.79491 0.77681 0.32245 0.0
H3061 H 0.73604 0.8036 0.29624 0.0
H3062 H 0.7657 0.75365 0.24973 0.0
H3063 H 0.75558 0.77139 0.26576 0.0
H3064 H 0.81299 0.74266 0.29211 0.0
C3065 C 0.77759 0.78963 0.32304 0.0
C3066 C 0.753 0.79032 0.29568 0.0
C3067 C 0.7717 0.80009 0.33252 0.0
C3068 C 0.77805 0.74719 0.25575 0.0
C3069 C 0.77217 0.75763 0.26524 0.0
C3070 C 0.79596 0.75587 0.29269 0.0
C3071 C 0.76182 0.79545 0.31463 0.0
C3072 C 0.76832 0.78394 0.30412 0.0
C3073 C 0.78713 0.75072 0.27373 0.0
C3074 C 0.78063 0.76223 0.28424 0.0
H3075 H 0.71638 0.83583 0.3269 0.0
H3076 H 0.72617 0.81834 0.31082 0.0
H3077 H 0.80307 0.75993 0.30801 0.0
H3078 H 0.83107 0.70839 0.26161 0.0
H3079 H 0.82122 0.72577 0.27771 0.0
C3080 C 0.55481 0.52105 0.08239 0.0
C3081 C 0.56898 0.49716 0.08455 0.0
C3082 C 0.5445 0.52705 0.07287 0.0
C3083 C 0.53916 0.49863 0.04609 0.0
H3084 H 0.50179 0.56489 1.04139 0.0
C3085 C 0.49742 0.52416 1.00589 0.0
C3086 C 0.48219 0.54746 1.00382 0.0
C3087 C 0.50773 0.51818 1.01542 0.0
C3088 C 0.512 0.54604 1.04229 0.0
H3089 H 0.58249 0.46095 0.07758 0.0
H3090 H 0.56532 0.47091 0.06147 0.0
H3091 H 0.51875 0.55495 0.05736 0.0
H3092 H 0.4667 0.58261 1.01097 0.0
H3093 H 0.48379 0.57262 1.0271 0.0
H3094 H 0.53232 0.48968 1.03102 0.0
C3095 C 0.56179 0.48564 0.06702 0.0
C3096 C 0.52217 0.54013 0.05183 0.0
C3097 C 0.57202 0.47968 0.07653 0.0
C3098 C 0.47805 0.56436 1.01194 0.0
C3099 C 0.48826 0.55841 1.02146 0.0
C3100 C 0.52897 0.50453 1.03655 0.0
C3101 C 0.54755 0.50961 0.06473 0.0
C3102 C 0.53623 0.51615 0.05418 0.0
C3103 C 0.5036 0.53505 1.02365 0.0
C3104 C 0.51491 0.52851 1.0342 0.0
H3105 H 0.55146 0.53538 0.08813 0.0
H3106 H 0.53397 0.54574 0.07202 0.0
H3107 H 0.54945 0.47982 0.04697 0.0
H3108 H 0.50162 0.51029 1.00007 0.0
H3109 H 0.51918 0.50001 1.01618 0.0
C3110 C 0.97566 0.56236 0.57644 0.0
C3111 C 0.98065 0.54593 0.58465 0.0
C3112 C 0.98579 0.55641 0.56693 0.0
C3113 C 0.02668 0.50279 0.55191 0.0
H3114 H 1.01745 0.55389 0.53119 0.0
C3115 C 0.06527 0.47677 0.51144 0.0
C3116 C 0.06609 0.49601 0.50387 0.0
C3117 C 0.05536 0.48263 0.521 0.0
C3118 C 1.02072 0.53897 0.53672 0.0
H3119 H 1.00157 0.50965 0.58856 0.0
H3120 H 1.0191 0.49943 0.57246 0.0
H3121 H 1.001 0.56395 0.54722 0.0
H3122 H 0.05612 0.53737 0.5012 0.0
H3123 H 0.03939 0.5476 0.51739 0.0
H3124 H 0.0469 0.47804 0.54144 0.0
C3125 C 1.00692 0.51716 0.57316 0.0
C3126 C 1.01071 0.54486 0.54626 0.0
C3127 C 0.99667 0.52312 0.58267 0.0
C3128 C 0.05625 0.52157 0.50656 0.0
C3129 C 0.04626 0.52747 0.51611 0.0
C3130 C 0.0368 0.49694 0.54238 0.0
C3131 C 1.00192 0.53354 0.56484 0.0
C3132 C 1.01316 0.52703 0.5543 0.0
C3133 C 0.04535 0.50825 0.52377 0.0
C3134 C 0.03425 0.51474 0.53434 0.0
H3135 H 0.96367 0.58022 0.57733 0.0
H3136 H 0.98056 0.57016 0.5612 0.0
H3137 H 0.02959 0.48771 0.55741 0.0
H3138 H 0.07239 0.45675 0.50999 0.0
H3139 H 0.05547 0.46649 0.52619 0.0
C3140 C 0.06903 0.55709 0.07913 0.0
C3141 C 0.06252 0.54208 0.08753 0.0
C3142 C 0.05875 0.5509 0.06968 0.0
C3143 C 1.01238 0.50039 0.05549 0.0
H3144 H 0.03133 0.54461 1.03364 0.0
C3145 C 0.96866 0.47513 1.01576 0.0
C3146 C 0.97543 0.49013 1.00739 0.0
C3147 C 0.97889 0.48122 1.02524 0.0
C3148 C 0.02542 0.53154 1.03947 0.0
H3149 H 0.03881 0.50815 0.09189 0.0
H3150 H 1.02116 0.49744 0.07588 0.0
H3151 H 0.0485 0.55488 0.04948 0.0
H3152 H 0.99956 0.52385 1.0031 0.0
H3153 H 1.01712 0.53432 1.0191 0.0
H3154 H 0.98931 0.47704 0.04546 0.0
C3155 C 0.03451 0.51425 0.07637 0.0
C3156 C 0.03566 0.53768 0.04894 0.0
C3157 C 0.04488 0.52046 0.08583 0.0
C3158 C 0.99327 0.51157 1.00914 0.0
C3159 C 1.00359 0.51765 1.0186 0.0
C3160 C 1.00213 0.49424 0.04601 0.0
C3161 C 0.04101 0.52919 0.06786 0.0
C3162 C 0.02962 0.52239 0.05739 0.0
C3163 C 0.99683 0.50277 1.02709 0.0
C3164 C 1.00818 0.50954 1.03757 0.0
H3165 H 0.08231 0.574 0.07984 0.0
H3166 H 0.06508 0.56361 0.0638 0.0
H3167 H 1.00646 0.48736 0.06133 0.0
H3168 H 0.95523 0.45835 1.01501 0.0
H3169 H 0.97237 0.46859 1.03111 0.0
C3170 C 0.47881 0.47386 0.57891 0.0
C3171 C 0.4831 0.49094 0.58696 0.0
C3172 C 0.48845 0.47979 0.56932 0.0
C3173 C 0.53049 0.53225 0.55426 0.0
H3174 H 0.51276 0.48592 0.53288 0.0
C3175 C 0.57262 0.55655 0.51423 0.0
C3176 C 0.56641 0.54087 0.50597 0.0
C3177 C 0.56271 0.55063 0.52377 0.0
C3178 C 0.5183 0.49956 0.53858 0.0
H3179 H 0.50205 0.52836 0.59053 0.0
H3180 H 0.51855 0.53862 0.57433 0.0
H3181 H 0.49616 0.47618 0.54889 0.0
H3182 H 0.54355 0.50604 0.50197 0.0
H3183 H 0.52651 0.49581 0.51812 0.0
H3184 H 0.55242 0.55577 0.54395 0.0
C3185 C 0.50758 0.52027 0.57519 0.0
C3186 C 0.50847 0.4937 0.54814 0.0
C3187 C 0.4978 0.51436 0.58476 0.0
C3188 C 0.54941 0.51887 0.50791 0.0
C3189 C 0.53939 0.51294 0.51745 0.0
C3190 C 0.54027 0.53814 0.54469 0.0
C3191 C 0.50333 0.50325 0.56703 0.0
C3192 C 0.51414 0.50976 0.55643 0.0
C3193 C 0.54562 0.52855 0.52583 0.0
C3194 C 0.53467 0.52206 0.53641 0.0
H3195 H 0.46776 0.45556 0.57998 0.0
H3196 H 0.48408 0.4654 0.56373 0.0
H3197 H 0.53618 0.54581 0.55996 0.0
H3198 H 0.58539 0.57378 0.51336 0.0
H3199 H 0.5688 0.56386 0.52952 0.0
C3200 C 0.27716 0.12297 0.39102 0.0
C3201 C 0.27894 0.15138 0.39002 0.0
C3202 C 0.29136 0.10764 0.3985 0.0
C3203 C 0.3499 0.11139 0.41819 0.0
H3204 H 0.32309 0.04439 0.42803 0.0
C3205 C 0.41668 0.04378 0.44658 0.0
C3206 C 0.40552 0.02584 0.45358 0.0
C3207 C 0.40123 0.0583 0.43934 0.0
C3208 C 0.33143 0.06305 0.42553 0.0
H3209 H 0.29893 0.18417 0.39717 0.0
H3210 H 0.32362 0.15843 0.40938 0.0
H3211 H 0.29857 0.06877 0.41525 0.0
H3212 H 0.36662 1.00977 0.4572 0.0
H3213 H 0.34028 0.03392 0.44472 0.0
H3214 H 0.38299 0.10553 0.42827 0.0
C3215 C 0.31103 0.14745 0.40442 0.0
C3216 C 0.31696 0.07745 0.41791 0.0
C3217 C 0.29639 0.16273 0.39715 0.0
C3218 C 0.37711 0.02338 0.45245 0.0
C3219 C 0.36161 0.03748 0.44499 0.0
C3220 C 0.36464 0.09674 0.42563 0.0
C3221 C 0.30917 0.11912 0.40556 0.0
C3222 C 0.32535 0.1025 0.41388 0.0
C3223 C 0.37291 0.05581 0.43807 0.0
C3224 C 0.35616 0.07187 0.42975 0.0
H3225 H 0.26407 0.11231 0.38613 0.0
H3226 H 0.28834 0.08628 0.39865 0.0
H3227 H 0.35836 0.13001 0.41571 0.0
H3228 H 0.43813 0.04674 0.44664 0.0
H3229 H 0.41209 0.07129 0.43449 0.0
C3230 C 0.26722 0.16179 0.69028 0.0
C3231 C 0.26897 0.15529 0.7004 0.0
C3232 C 0.25249 0.14647 0.68312 0.0
C3233 C 0.20159 0.08582 0.67917 0.0
H3234 H 0.2128 0.09982 0.65191 0.0
C3235 C 0.13367 0.02833 0.64841 0.0
C3236 C 0.13934 0.02762 0.63822 0.0
C3237 C 0.14924 0.04284 0.65556 0.0
C3238 C 0.20887 0.09503 0.65942 0.0
H3239 H 0.25424 0.12464 0.71008 0.0
H3240 H 0.22889 0.09859 0.69795 0.0
H3241 H 0.23792 0.12443 0.66418 0.0
H3242 H 0.16877 0.04402 0.62838 0.0
H3243 H 0.19522 0.06902 0.6405 0.0
H3244 H 0.17257 0.05639 0.67441 0.0
C3245 C 0.23923 0.11618 0.69542 0.0
C3246 C 0.22375 0.10983 0.66677 0.0
C3247 C 0.2543 0.13155 0.70264 0.0
C3248 C 0.16251 0.04312 0.63589 0.0
C3249 C 0.17812 0.05798 0.6431 0.0
C3250 C 0.18655 0.07117 0.67183 0.0
C3251 C 0.23756 0.12284 0.68524 0.0
C3252 C 0.22096 0.10608 0.67706 0.0
C3253 C 0.1723 0.05859 0.65335 0.0
C3254 C 0.18933 0.07494 0.66153 0.0
H3255 H 0.27763 0.17936 0.68774 0.0
H3256 H 0.25278 0.15378 0.67575 0.0
H3257 H 0.19756 0.08112 0.68668 0.0
H3258 H 0.11659 1.01723 0.65102 0.0
H3259 H 0.14257 0.04171 0.663 0.0
C3260 C 0.16713 1.01095 0.95249 0.0
C3261 C 0.13866 1.0088 0.95354 0.0
C3262 C 0.18258 0.9969 0.94502 0.0
C3263 C 0.17927 0.93815 0.92551 0.0
H3264 H 0.2455 0.96592 0.91524 0.0
C3265 C 0.24734 0.87212 0.8971 0.0
C3266 C 0.26465 0.88343 0.88992 0.0
C3267 C 0.2328 0.88741 0.90435 0.0
C3268 C 0.22706 0.95729 0.91786 0.0
H3269 H 0.10593 0.98852 0.94642 0.0
H3270 H 0.13186 0.96402 0.93427 0.0
H3271 H 0.22111 0.9902 0.92803 0.0
H3272 H 0.27951 0.92249 0.88598 0.0
H3273 H 0.25537 0.94856 0.89848 0.0
H3274 H 0.18538 0.90501 0.91555 0.0
C3275 C 0.14281 0.97673 0.9392 0.0
C3276 C 0.21266 0.97163 0.9255 0.0
C3277 C 0.12741 0.99122 0.94644 0.0
C3278 C 0.26644 0.91185 0.89088 0.0
C3279 C 0.25234 0.92721 0.89836 0.0
C3280 C 0.19394 0.92354 0.91807 0.0
C3281 C 0.17118 0.97891 0.93801 0.0
C3282 C 0.18786 0.9629 0.92968 0.0
C3283 C 0.23463 0.91575 0.90546 0.0
C3284 C 0.21854 0.93235 0.91379 0.0
H3285 H 0.17771 0.02431 0.9573 0.0
H3286 H 0.20395 1.00023 0.94482 0.0
H3287 H 0.16086 0.92942 0.92811 0.0
H3288 H 0.24489 0.85067 0.89717 0.0
H3289 H 0.22031 0.87643 0.90935 0.0
C3290 C 0.28069 0.88186 0.19054 0.0
C3291 C 0.28077 0.88686 0.20079 0.0
C3292 C 0.2956 0.89708 0.18339 0.0
C3293 C 0.35012 0.95467 0.17954 0.0
H3294 H 0.33499 0.94459 0.1523 0.0
C3295 C 0.41745 1.01237 0.14863 0.0
C3296 C 0.41103 1.01407 0.13851 0.0
C3297 C 0.40188 0.99792 0.1558 0.0
C3298 C 0.34007 0.94826 0.1598 0.0
H3299 H 0.29934 0.91468 0.21072 0.0
H3300 H 0.32498 0.94056 0.19861 0.0
H3301 H 0.30986 0.92007 0.16458 0.0
H3302 H 0.38015 0.99964 0.12883 0.0
H3303 H 0.35368 0.97478 0.14097 0.0
H3304 H 0.38029 0.98291 0.17476 0.0
C3305 C 0.3129 0.92427 0.19596 0.0
C3306 C 0.32516 0.9335 0.16716 0.0
C3307 C 0.29764 0.909 0.20317 0.0
C3308 C 0.38705 0.9997 0.13627 0.0
C3309 C 0.37142 0.98492 0.1435 0.0
C3310 C 0.36516 0.9693 0.17218 0.0
C3311 C 0.31262 0.91914 0.18565 0.0
C3312 C 0.32932 0.93585 0.17746 0.0
C3313 C 0.37803 0.98326 0.15369 0.0
C3314 C 0.36101 0.96694 0.16189 0.0
H3315 H 0.26861 0.86556 0.18786 0.0
H3316 H 0.2937 0.89094 0.17592 0.0
H3317 H 0.35528 0.95825 0.18704 0.0
H3318 H 0.43514 0.02262 0.15118 0.0
H3319 H 0.40919 0.99825 0.16318 0.0
C3320 C 0.73719 0.88229 0.70214 0.0
C3321 C 0.76539 0.88414 0.70381 0.0
C3322 C 0.72288 0.89703 0.69463 0.0
C3323 C 0.73135 0.9459 0.67171 0.0
H3324 H 0.65414 0.94743 0.67207 0.0
C3325 C 0.66629 1.00331 0.63925 0.0
C3326 C 0.63828 1.00895 0.64018 0.0
C3327 C 0.68194 0.98884 0.64658 0.0
C3328 C 0.67571 0.94784 0.6716 0.0
H3329 H 0.79937 0.90495 0.69774 0.0
H3330 H 0.77531 0.92992 0.68503 0.0
H3331 H 0.67873 0.92342 0.68456 0.0
H3332 H 0.60668 1.00214 0.6506 0.0
H3333 H 0.6325 0.97781 0.66271 0.0
H3334 H 0.72813 0.97049 0.6587 0.0
C3335 C 0.76365 0.91684 0.68959 0.0
C3336 C 0.69043 0.93328 0.67904 0.0
C3337 C 0.77796 0.90214 0.69716 0.0
C3338 C 0.62766 0.99876 0.64908 0.0
C3339 C 0.64307 0.98422 0.6563 0.0
C3340 C 0.71657 0.96038 0.6642 0.0
C3341 C 0.73528 0.91512 0.68793 0.0
C3342 C 0.71906 0.93149 0.67954 0.0
C3343 C 0.67107 0.97844 0.65549 0.0
C3344 C 0.6879 0.96219 0.66375 0.0
H3345 H 0.72571 0.86906 0.70672 0.0
H3346 H 0.70158 0.89373 0.69409 0.0
H3347 H 0.75294 0.94602 0.67125 0.0
H3348 H 0.67653 1.01043 0.63285 0.0
H3349 H 0.70298 0.98577 0.64512 0.0
C3350 C 0.89213 0.02714 0.44407 0.0
C3351 C 0.90819 1.01436 0.45137 0.0
C3352 C 0.87751 1.01291 0.43649 0.0
C3353 C 0.85718 0.93986 0.42694 0.0
H3354 H 0.82515 0.97732 0.40532 0.0
C3355 C 0.79161 0.8781 0.39676 0.0
C3356 C 0.78289 0.88829 0.38756 0.0
C3357 C 0.80623 0.89332 0.40398 0.0
C3358 C 0.83374 0.96581 0.41119 0.0
H3359 H 0.91974 0.97421 0.45538 0.0
H3360 H 0.89514 0.95022 0.44274 0.0
H3361 H 0.84967 1.00182 0.41787 0.0
H3362 H 0.78425 0.92571 0.37971 0.0
H3363 H 0.80907 0.95181 0.39198 0.0
H3364 H 0.84143 0.90391 0.42034 0.0
C3365 C 0.89341 0.97171 0.44276 0.0
C3366 C 0.84828 0.98043 0.41871 0.0
C3367 C 0.90812 0.98594 0.45029 0.0
C3368 C 0.79014 0.91575 0.38635 0.0
C3369 C 0.80472 0.93121 0.39367 0.0
C3370 C 0.84256 0.9253 0.41948 0.0
C3371 C 0.87727 0.98435 0.43542 0.0
C3372 C 0.86087 0.96825 0.427 0.0
C3373 C 0.81365 0.92074 0.40289 0.0
C3374 C 0.83001 0.93739 0.41117 0.0
H3375 H 0.89082 0.04869 0.44415 0.0
H3376 H 0.86605 0.02483 0.43142 0.0
H3377 H 0.86556 0.92824 0.43282 0.0
H3378 H 0.78696 0.85759 0.39853 0.0
H3379 H 0.81141 0.88306 0.41061 0.0
C3380 C 0.9135 0.02777 0.15009 0.0
C3381 C 0.90714 0.02648 0.13995 0.0
C3382 C 0.89787 0.042 0.15729 0.0
C3383 C 0.83676 0.0925 0.16137 0.0
H3384 H 0.85028 0.07953 0.18859 0.0
C3385 C 0.77872 0.15871 0.19242 0.0
C3386 C 0.77773 0.15231 0.20255 0.0
C3387 C 0.79339 0.14354 0.1852 0.0
C3388 C 0.84562 0.08394 0.1811 0.0
H3389 H 0.87635 0.04139 0.13028 0.0
H3390 H 0.84977 0.06602 0.14249 0.0
H3391 H 0.8752 0.05508 0.17622 0.0
H3392 H 0.79373 0.12211 0.21221 0.0
H3393 H 0.81901 0.0963 0.19998 0.0
H3394 H 0.80713 0.1213 0.16626 0.0
C3395 C 0.86751 0.05567 0.14499 0.0
C3396 C 0.86062 0.06947 0.17369 0.0
C3397 C 0.88318 0.04105 0.13773 0.0
C3398 C 0.79308 0.12887 0.20476 0.0
C3399 C 0.8081 0.11367 0.19749 0.0
C3400 C 0.82192 0.10711 0.16878 0.0
C3401 C 0.87406 0.05687 0.15518 0.0
C3402 C 0.85704 0.07295 0.16341 0.0
C3403 C 0.809 0.12022 0.18729 0.0
C3404 C 0.82552 0.10367 0.17906 0.0
H3405 H 0.93117 1.01732 0.15262 0.0
H3406 H 0.9051 0.04137 0.16467 0.0
H3407 H 0.83221 0.097 0.15388 0.0
H3408 H 0.76774 0.17605 0.18992 0.0
H3409 H 0.79252 0.15073 0.17782 0.0
C3410 C 0.63884 0.06101 0.95034 0.0
C3411 C 0.64151 0.03304 0.95228 0.0
C3412 C 0.65367 0.07525 0.94286 0.0
C3413 C 0.70359 0.06693 0.92019 0.0
H3414 H 0.70516 0.14389 0.9206 0.0
C3415 C 0.76068 0.13191 0.88765 0.0
C3416 C 0.76704 0.15963 0.88872 0.0
C3417 C 0.74614 0.11634 0.89496 0.0
C3418 C 0.70554 0.12238 0.92011 0.0
H3419 H 0.66393 0.99946 0.94663 0.0
H3420 H 0.68886 0.02336 0.93393 0.0
H3421 H 0.68096 0.11941 0.93305 0.0
H3422 H 0.76139 0.1907 0.89942 0.0
H3423 H 0.73688 0.16504 0.91147 0.0
H3424 H 0.72823 0.07007 0.90719 0.0
C3425 C 0.67511 0.03489 0.9383 0.0
C3426 C 0.69088 0.10774 0.92753 0.0
C3427 C 0.66041 0.02067 0.94587 0.0
C3428 C 0.75744 0.16998 0.89777 0.0
C3429 C 0.7428 0.15467 0.90495 0.0
C3430 C 0.7181 0.08163 0.91269 0.0
C3431 C 0.67263 0.06303 0.9364 0.0
C3432 C 0.68908 0.07919 0.92802 0.0
C3433 C 0.73631 0.12697 0.90401 0.0
C3434 C 0.71996 0.11022 0.91226 0.0
H3435 H 0.62491 0.07237 0.95471 0.0
H3436 H 0.64973 0.09637 0.94212 0.0
H3437 H 0.70371 0.0454 0.91971 0.0
H3438 H 0.7673 0.12181 0.88115 0.0
H3439 H 0.74253 0.09554 0.89339 0.0
C3440 C 0.79465 0.62668 0.8881 0.0
C3441 C 0.77962 0.6503 0.89029 0.0
C3442 C 0.80933 0.61116 0.89542 0.0
C3443 C 0.82283 0.60432 0.92416 0.0
H3444 H 0.8748 0.55093 0.91689 0.0
C3445 C 0.88249 0.53744 0.95547 0.0
C3446 C 0.9059 0.52196 0.95333 0.0
C3447 C 0.86724 0.55231 0.94813 0.0
C3448 C 0.86058 0.56569 0.91937 0.0
H3449 H 0.76982 0.67404 0.90291 0.0
H3450 H 0.79405 0.64824 0.91505 0.0
H3451 H 0.85047 0.57588 0.90444 0.0
H3452 H 0.92948 0.51147 0.94073 0.0
H3453 H 0.90405 0.53598 0.92852 0.0
H3454 H 0.83289 0.59412 0.93909 0.0
C3455 C 0.79492 0.64111 0.90767 0.0
C3456 C 0.84594 0.58046 0.91192 0.0
C3457 C 0.78057 0.65656 0.90042 0.0
C3458 C 0.91218 0.5226 0.94319 0.0
C3459 C 0.89695 0.53712 0.9359 0.0
C3460 C 0.83733 0.58942 0.93161 0.0
C3461 C 0.81019 0.61758 0.90561 0.0
C3462 C 0.82633 0.60069 0.91389 0.0
C3463 C 0.8737 0.55292 0.93793 0.0
C3464 C 0.85711 0.56935 0.92964 0.0
H3465 H 0.7953 0.62 0.88065 0.0
H3466 H 0.82001 0.59366 0.89294 0.0
H3467 H 0.80839 0.61888 0.92664 0.0
H3468 H 0.8758 0.53837 0.96292 0.0
H3469 H 0.84992 0.56337 0.95058 0.0
C3470 C 0.62876 0.54857 0.14436 0.0
C3471 C 0.64019 0.53071 0.13738 0.0
C3472 C 0.64399 0.56321 0.1516 0.0
C3473 C 0.71363 0.56842 0.1655 0.0
H3474 H 0.68596 0.63539 0.17513 0.0
C3475 C 0.7668 0.62892 0.20004 0.0
C3476 C 0.76485 0.65737 0.20092 0.0
C3477 C 0.75283 0.61341 0.19258 0.0
C3478 C 0.69463 0.61676 0.17271 0.0
H3479 H 0.67935 0.51495 0.13381 0.0
H3480 H 0.70529 0.53926 0.14628 0.0
H3481 H 0.6617 0.61073 0.16259 0.0
H3482 H 0.74499 0.68999 0.19351 0.0
H3483 H 0.72064 0.664 0.18136 0.0
H3484 H 0.74632 0.5743 0.17583 0.0
C3485 C 0.68391 0.54267 0.146 0.0
C3486 C 0.6801 0.60201 0.16528 0.0
C3487 C 0.66864 0.52847 0.13854 0.0
C3488 C 0.74754 0.66854 0.19366 0.0
C3489 C 0.73313 0.65311 0.18642 0.0
C3490 C 0.72787 0.58291 0.17312 0.0
C3491 C 0.67234 0.56093 0.1529 0.0
C3492 C 0.68885 0.57712 0.16122 0.0
C3493 C 0.73513 0.62474 0.18541 0.0
C3494 C 0.7192 0.60798 0.17709 0.0
H3495 H 0.60728 0.5514 0.14428 0.0
H3496 H 0.63292 0.57613 0.15643 0.0
H3497 H 0.72219 0.54976 0.16305 0.0
H3498 H 0.7799 0.61837 0.205 0.0
H3499 H 0.75598 0.59205 0.19253 0.0
C3500 C 0.76444 0.40885 0.39119 0.0
C3501 C 0.76061 0.38083 0.38965 0.0
C3502 C 0.75047 0.42425 0.39868 0.0
C3503 C 0.6891 0.42265 0.41718 0.0
H3504 H 0.72 0.48538 0.42892 0.0
C3505 C 0.62406 0.49097 0.44572 0.0
C3506 C 0.63556 0.50698 0.45325 0.0
C3507 C 0.63932 0.4764 0.43848 0.0
C3508 C 0.71048 0.46795 0.42587 0.0
H3509 H 0.73739 0.34879 0.39589 0.0
H3510 H 0.71298 0.37478 0.40806 0.0
H3511 H 0.74427 0.46094 0.41614 0.0
H3512 H 0.67505 0.5195 0.45782 0.0
H3513 H 0.70114 0.49522 0.44535 0.0
H3514 H 0.65515 0.42981 0.4267 0.0
C3515 C 0.72702 0.38538 0.40352 0.0
C3516 C 0.72481 0.45353 0.41825 0.0
C3517 C 0.74144 0.36996 0.39627 0.0
C3518 C 0.66421 0.50745 0.45264 0.0
C3519 C 0.67959 0.49328 0.44519 0.0
C3520 C 0.67455 0.43736 0.42462 0.0
C3521 C 0.73089 0.41329 0.40521 0.0
C3522 C 0.71494 0.42998 0.41354 0.0
C3523 C 0.66789 0.47687 0.43774 0.0
C3524 C 0.68447 0.46071 0.42942 0.0
H3525 H 0.77908 0.41904 0.38677 0.0
H3526 H 0.75514 0.44523 0.39928 0.0
H3527 H 0.67948 0.40526 0.41414 0.0
H3528 H 0.60247 0.48961 0.44536 0.0
H3529 H 0.62815 0.46501 0.4332 0.0
C3530 C 0.80261 0.37554 0.69449 0.0
C3531 C 0.78492 0.38681 0.70157 0.0
C3532 C 0.81699 0.39082 0.6872 0.0
C3533 C 0.82172 0.46051 0.6734 0.0
H3534 H 0.88829 0.43284 0.66326 0.0
C3535 C 0.88111 0.51419 0.63867 0.0
C3536 C 0.90957 0.51195 0.63755 0.0
C3537 C 0.86583 0.5002 0.64619 0.0
C3538 C 0.86977 0.44152 0.66583 0.0
H3539 H 0.76917 0.42579 0.70527 0.0
H3540 H 0.79304 0.45182 0.69271 0.0
H3541 H 0.86405 0.4085 0.67589 0.0
H3542 H 0.94248 0.49153 0.64463 0.0
H3543 H 0.91685 0.46715 0.65686 0.0
H3544 H 0.82729 0.49331 0.66314 0.0
C3545 C 0.79652 0.43051 0.69294 0.0
C3546 C 0.85526 0.42694 0.67331 0.0
C3547 C 0.78257 0.41518 0.70046 0.0
C3548 C 0.92099 0.49433 0.64465 0.0
C3549 C 0.90577 0.4799 0.65195 0.0
C3550 C 0.83597 0.47483 0.66573 0.0
C3551 C 0.81461 0.4191 0.68594 0.0
C3552 C 0.83053 0.43567 0.67756 0.0
C3553 C 0.8774 0.48216 0.6532 0.0
C3554 C 0.86089 0.46617 0.66158 0.0
H3555 H 0.80551 0.35413 0.69453 0.0
H3556 H 0.8298 0.37985 0.68229 0.0
H3557 H 0.80317 0.46908 0.67599 0.0
H3558 H 0.87039 0.52756 0.63386 0.0
H3559 H 0.84446 0.5036 0.64642 0.0
C3560 C 0.273 0.39908 0.19623 0.0
C3561 C 0.26032 0.38151 0.20299 0.0
C3562 C 0.25868 0.41403 0.18874 0.0
C3563 C 0.18543 0.43243 0.17874 0.0
H3564 H 0.22303 0.46758 0.15788 0.0
C3565 C 0.12311 0.4993 0.14914 0.0
C3566 C 0.13334 0.50858 0.14005 0.0
C3567 C 0.13851 0.48447 0.15626 0.0
C3568 C 0.21151 0.45808 0.16354 0.0
H3569 H 0.22043 0.36749 0.20623 0.0
H3570 H 0.19626 0.39261 0.19372 0.0
H3571 H 0.24781 0.44266 0.17032 0.0
H3572 H 0.17093 0.5081 0.13226 0.0
H3573 H 0.19739 0.48286 0.14439 0.0
H3574 H 0.1492 0.44762 0.17202 0.0
C3575 C 0.21767 0.39536 0.1941 0.0
C3576 C 0.22627 0.44334 0.17098 0.0
C3577 C 0.23199 0.38036 0.20153 0.0
C3578 C 0.16098 0.50171 0.13882 0.0
C3579 C 0.17664 0.48692 0.14606 0.0
C3580 C 0.17074 0.44725 0.17136 0.0
C3581 C 0.2302 0.41301 0.18728 0.0
C3582 C 0.214 0.42965 0.17898 0.0
C3583 C 0.16611 0.47744 0.15517 0.0
C3584 C 0.18291 0.46088 0.16334 0.0
H3585 H 0.29451 0.40134 0.19665 0.0
H3586 H 0.27042 0.42674 0.18407 0.0
H3587 H 0.17378 0.42318 0.1844 0.0
H3588 H 0.10245 0.50369 0.15089 0.0
H3589 H 0.12825 0.47887 0.16285 0.0
C3590 C 0.38299 0.51954 0.94829 0.0
C3591 C 0.41012 0.51338 0.95091 0.0
C3592 C 0.36794 0.50533 0.94078 0.0
C3593 C 0.3672 0.43974 0.92438 0.0
H3594 H 0.31081 0.4738 0.90961 0.0
C3595 C 0.29896 0.37516 0.8957 0.0
C3596 C 0.28559 0.38621 0.8874 0.0
C3597 C 0.31344 0.39062 0.9029 0.0
C3598 C 0.32642 0.46334 0.91353 0.0
H3599 H 0.44109 0.48573 0.94649 0.0
H3600 H 0.41543 0.4609 0.93432 0.0
H3601 H 0.33483 0.49852 0.92236 0.0
H3602 H 0.27797 0.42534 0.88128 0.0
H3603 H 0.30209 0.45185 0.89365 0.0
H3604 H 0.35856 0.40446 0.91575 0.0
C3605 C 0.4053 0.47701 0.93803 0.0
C3606 C 0.34059 0.47798 0.92114 0.0
C3607 C 0.4205 0.49166 0.94529 0.0
C3608 C 0.28779 0.41473 0.88714 0.0
C3609 C 0.30188 0.43041 0.89453 0.0
C3610 C 0.35268 0.42497 0.91695 0.0
C3611 C 0.37829 0.48318 0.93528 0.0
C3612 C 0.36188 0.46699 0.92693 0.0
C3613 C 0.31559 0.41909 0.90279 0.0
C3614 C 0.33159 0.43595 0.91107 0.0
H3615 H 0.37335 0.53622 0.95185 0.0
H3616 H 0.34768 0.51191 0.93932 0.0
H3617 H 0.38277 0.4292 0.92829 0.0
H3618 H 0.29825 0.35376 0.89673 0.0
H3619 H 0.32264 0.37976 0.90882 0.0
C3620 C 0.41038 0.55465 0.64089 0.0
C3621 C 0.41037 0.52624 0.6398 0.0
C3622 C 0.39569 0.56897 0.64841 0.0
C3623 C 0.35092 0.56058 0.67246 0.0
H3624 H 0.34352 0.63707 0.67067 0.0
C3625 C 0.29298 0.62583 0.70475 0.0
C3626 C 0.28565 0.6533 0.70349 0.0
C3627 C 0.3075 0.61021 0.69744 0.0
C3628 C 0.34481 0.61569 0.67157 0.0
H3629 H 0.39299 0.49199 0.64696 0.0
H3630 H 0.36827 0.51603 0.65969 0.0
H3631 H 0.36751 0.61254 0.6582 0.0
H3632 H 0.28941 0.68381 0.69245 0.0
H3633 H 0.31373 0.65811 0.6804 0.0
H3634 H 0.32808 0.56391 0.68588 0.0
C3635 C 0.37973 0.52786 0.65463 0.0
C3636 C 0.35935 0.60102 0.66412 0.0
C3637 C 0.3943 0.51354 0.64705 0.0
C3638 C 0.29418 0.66332 0.69426 0.0
C3639 C 0.30872 0.64795 0.68706 0.0
C3640 C 0.33645 0.57532 0.67997 0.0
C3641 C 0.37955 0.55641 0.65572 0.0
C3642 C 0.36323 0.57263 0.66412 0.0
C3643 C 0.31625 0.62053 0.68819 0.0
C3644 C 0.33253 0.60374 0.67993 0.0
H3645 H 0.42203 0.56631 0.63583 0.0
H3646 H 0.39746 0.59044 0.64845 0.0
H3647 H 0.35249 0.5392 0.67334 0.0
H3648 H 0.2872 0.61598 0.71141 0.0
H3649 H 0.31194 0.58962 0.69917 0.0
C3650 C 0.15027 0.51997 0.44231 0.0
C3651 C 0.14154 0.53156 0.45127 0.0
C3652 C 0.16458 0.53458 0.43477 0.0
C3653 C 0.20738 0.59929 0.42913 0.0
H3654 H 0.19628 0.58342 0.402 0.0
C3655 C 0.27636 0.65047 0.39666 0.0
C3656 C 0.26537 0.65697 0.38733 0.0
C3657 C 0.26189 0.63599 0.4042 0.0
C3658 C 0.20014 0.5886 0.40949 0.0
H3659 H 0.14324 0.56989 0.45845 0.0
H3660 H 0.16857 0.5942 0.44593 0.0
H3661 H 0.17224 0.55827 0.41461 0.0
H3662 H 0.2283 0.651 0.3795 0.0
H3663 H 0.20436 0.62539 0.39204 0.0
H3664 H 0.236 0.62897 0.42402 0.0
C3665 C 0.16395 0.57347 0.44457 0.0
C3666 C 0.18596 0.57361 0.41697 0.0
C3667 C 0.14893 0.5591 0.45198 0.0
C3668 C 0.23861 0.64714 0.38627 0.0
C3669 C 0.22446 0.63196 0.3937 0.0
C3670 C 0.2222 0.6137 0.42166 0.0
C3671 C 0.17237 0.56207 0.43552 0.0
C3672 C 0.18862 0.57834 0.42719 0.0
C3673 C 0.23523 0.62577 0.40309 0.0
C3674 C 0.21918 0.60931 0.41144 0.0
H3675 H 0.14561 0.49921 0.44099 0.0
H3676 H 0.16995 0.52382 0.42825 0.0
H3677 H 0.21115 0.60456 0.43662 0.0
H3678 H 0.2965 0.65704 0.39827 0.0
H3679 H 0.27214 0.63244 0.411 0.0
C3680 C 0.20542 0.11836 0.30756 0.0
C3681 C 0.22453 0.11716 0.31497 0.0
C3682 C 0.21284 0.11257 0.29808 0.0
C3683 C 0.26129 0.07083 0.28601 0.0
H3684 H 0.22768 0.09917 0.2628 0.0
C3685 C 0.2659 1.01204 0.25117 0.0
C3686 C 0.24008 1.00691 0.24765 0.0
C3687 C 0.27011 0.03309 0.25756 0.0
C3688 C 0.2375 0.09132 0.26921 0.0
H3689 H 0.2665 0.11156 0.31842 0.0
H3690 H 0.27964 0.10177 0.30178 0.0
H3691 H 0.22346 0.12338 0.27809 0.0
H3692 H 0.19871 0.02031 0.24761 0.0
H3693 H 0.20601 0.05678 0.25875 0.0
H3694 H 0.27387 0.03797 0.27737 0.0
C3695 C 0.25891 0.10656 0.30329 0.0
C3696 C 0.23502 0.10507 0.27793 0.0
C3697 C 0.25143 0.11208 0.31276 0.0
C3698 C 0.21893 0.02413 0.25007 0.0
C3699 C 0.22313 0.04509 0.25644 0.0
C3700 C 0.26377 0.05713 0.27733 0.0
C3701 C 0.23951 0.10583 0.29594 0.0
C3702 C 0.2462 0.09446 0.28644 0.0
C3703 C 0.24853 0.04914 0.26051 0.0
C3704 C 0.25114 0.06681 0.26893 0.0
H3705 H 0.18456 0.12226 0.30919 0.0
H3706 H 0.19742 0.11176 0.29256 0.0
H3707 H 0.26965 0.06189 0.29251 0.0
H3708 H 0.28253 0.99912 0.24933 0.0
H3709 H 0.28991 0.03599 0.26058 0.0
C3710 C 0.20723 0.88774 0.56924 0.0
C3711 C 0.21145 0.88294 0.57913 0.0
C3712 C 0.22446 0.87679 0.56241 0.0
C3713 C 0.29447 0.85927 0.56121 0.0
H3714 H 0.27605 0.84941 0.53415 0.0
C3715 C 0.34174 0.86695 0.52022 0.0
C3716 C 0.35414 0.89173 0.52158 0.0
C3717 C 0.32814 0.85489 0.52785 0.0
C3718 C 0.28173 0.85127 0.5417 0.0
H3719 H 0.23516 0.86109 0.58967 0.0
H3720 H 0.26526 0.84158 0.57768 0.0
H3721 H 0.24146 0.84559 0.54642 0.0
H3722 H 0.36401 0.92246 0.532 0.0
H3723 H 0.33962 0.90202 0.54524 0.0
H3724 H 0.33458 0.86574 0.55647 0.0
C3725 C 0.24893 0.85415 0.57522 0.0
C3726 C 0.26183 0.84941 0.54871 0.0
C3727 C 0.23176 0.86526 0.58206 0.0
C3728 C 0.35434 0.90344 0.53079 0.0
C3729 C 0.34068 0.89151 0.53839 0.0
C3730 C 0.31443 0.86073 0.55422 0.0
C3731 C 0.2461 0.86072 0.56537 0.0
C3732 C 0.26777 0.85486 0.55845 0.0
C3733 C 0.32678 0.86753 0.53691 0.0
C3734 C 0.30792 0.85824 0.54437 0.0
H3735 H 0.19192 0.9016 0.56681 0.0
H3736 H 0.22201 0.88266 0.5549 0.0
H3737 H 0.29971 0.8638 0.56865 0.0
H3738 H 0.34123 0.85767 0.51313 0.0
H3739 H 0.31769 0.83635 0.52655 0.0
C3740 C 0.39116 0.09085 0.77538 0.0
C3741 C 0.39907 0.08733 0.76573 0.0
C3742 C 0.40156 0.07448 0.78259 0.0
C3743 C 0.43051 0.04162 0.79732 0.0
H3744 H 0.42554 0.96695 0.79025 0.0
C3745 C 0.42449 0.96232 0.82658 0.0
C3746 C 0.4024 0.94552 0.82527 0.0
C3747 C 0.43418 0.97723 0.81884 0.0
C3748 C 0.42727 0.98771 0.79231 0.0
H3749 H 0.42507 0.06523 0.75603 0.0
H3750 H 0.44397 0.037 0.76874 0.0
H3751 H 0.42397 1.00083 0.77765 0.0
H3752 H 0.37381 0.93001 0.81489 0.0
H3753 H 0.39034 0.95627 0.80142 0.0
H3754 H 0.4309 0.02869 0.81203 0.0
C3755 C 0.42945 0.05215 0.7707 0.0
C3756 C 0.42674 1.00711 0.7851 0.0
C3757 C 0.41885 0.06843 0.76346 0.0
C3758 C 0.39115 0.94255 0.81603 0.0
C3759 C 0.4007 0.95755 0.80831 0.0
C3760 C 0.43064 0.02226 0.80454 0.0
C3761 C 0.42028 0.05452 0.78027 0.0
C3762 C 0.42726 0.03427 0.78758 0.0
C3763 C 0.42177 0.97562 0.80972 0.0
C3764 C 0.42796 0.9952 0.8021 0.0
H3765 H 0.37608 0.1055 0.77729 0.0
H3766 H 0.39372 0.0765 0.78987 0.0
H3767 H 0.43132 0.06243 0.79941 0.0
H3768 H 0.43358 0.96468 0.83366 0.0
H3769 H 0.45062 0.99083 0.82008 0.0
C3770 C 0.19167 0.14705 1.0267 0.0
C3771 C 0.19948 0.15223 1.01712 0.0
C3772 C 0.20575 0.15829 1.03437 0.0
C3773 C 0.27371 0.17615 1.03929 0.0
H3774 H 0.24529 0.19316 0.06469 0.0
C3775 C 0.34065 0.17079 0.07257 0.0
C3776 C 0.32974 0.15417 0.07972 0.0
C3777 C 0.32431 0.18126 0.0653 0.0
C3778 C 0.25351 0.18878 0.0576 0.0
H3779 H 0.22624 0.17492 1.00794 0.0
H3780 H 0.25104 0.19456 1.0214 0.0
H3781 H 0.21539 0.19276 0.05067 0.0
H3782 H 0.29332 0.13587 0.08508 0.0
H3783 H 0.26497 0.15387 0.07241 0.0
H3784 H 0.31132 0.17014 0.04625 0.0
C3785 C 0.23424 0.18165 1.02296 0.0
C3786 C 0.23647 0.18857 0.04962 0.0
C3787 C 0.22016 0.1704 1.01529 0.0
C3788 C 0.30215 0.14909 0.07976 0.0
C3789 C 0.28588 0.15949 0.07251 0.0
C3790 C 0.2907 0.17626 0.04726 0.0
C3791 C 0.22777 0.17488 1.03254 0.0
C3792 C 0.24628 0.18129 1.04047 0.0
C3793 C 0.29691 0.17514 0.0651 0.0
C3794 C 0.28052 0.18154 0.05654 0.0
H3795 H 0.17597 0.13286 1.02828 0.0
H3796 H 0.20065 0.15239 1.04169 0.0
H3797 H 0.28171 0.16999 1.03234 0.0
H3798 H 0.36187 0.17511 0.07245 0.0
H3799 H 0.33321 0.19336 0.05966 0.0
C3800 C 0.90863 0.94555 0.7714 0.0
C3801 C 0.88188 0.9375 0.77225 0.0
C3802 C 0.92067 0.95987 0.77884 0.0
C3803 C 0.92781 1.00883 0.79153 0.0
H3804 H 0.91309 0.99499 0.81866 0.0
C3805 C 0.90258 0.08778 0.81919 0.0
C3806 C 0.90853 0.08318 0.82899 0.0
C3807 C 0.91082 0.06959 0.8122 0.0
C3808 C 0.91816 0.99886 0.81116 0.0
H3809 H 0.84696 0.93671 0.78152 0.0
H3810 H 0.86789 0.96197 0.79455 0.0
H3811 H 0.90514 0.96018 0.80676 0.0
H3812 H 0.93011 0.0579 0.83912 0.0
H3813 H 0.94443 0.02587 0.82685 0.0
H3814 H 0.93945 0.04805 0.79588 0.0
C3815 C 0.87968 0.95699 0.78822 0.0
C3816 C 0.91332 0.97905 0.80436 0.0
C3817 C 0.86763 0.94283 0.78076 0.0
C3818 C 0.92502 0.0616 0.8316 0.0
C3819 C 0.93323 0.04338 0.82461 0.0
C3820 C 0.9327 0.02868 0.79834 0.0
C3821 C 0.9061 0.96604 0.78722 0.0
C3822 C 0.91706 0.98431 0.79448 0.0
C3823 C 0.92511 0.04661 0.81494 0.0
C3824 C 0.92688 0.02416 0.80815 0.0
H3825 H 0.91981 0.94184 0.76481 0.0
H3826 H 0.94103 0.96678 0.77795 0.0
H3827 H 0.93058 1.01338 0.78392 0.0
H3828 H 0.88962 0.10411 0.81702 0.0
H3829 H 0.90394 0.07235 0.80481 0.0
C3830 C 0.66197 0.11571 0.55818 0.0
C3831 C 0.6512 0.0924 0.56213 0.0
C3832 C 0.66854 0.11657 0.5484 0.0
C3833 C 0.69351 0.0687 0.53139 0.0
H3834 H 0.70383 0.13196 0.51564 0.0
C3835 C 0.77307 0.07081 0.50212 0.0
C3836 C 0.7907 0.09229 0.50328 0.0
C3837 C 0.74832 0.07115 0.50667 0.0
C3838 C 0.70078 0.11407 0.51991 0.0
H3839 H 0.63575 0.053 0.55908 0.0
H3840 H 0.64665 0.05469 0.54183 0.0
H3841 H 0.67022 0.13234 0.52848 0.0
H3842 H 0.79631 0.13127 0.50973 0.0
H3843 H 0.75313 0.13169 0.51787 0.0
H3844 H 0.72516 0.051 0.52331 0.0
C3845 C 0.65055 0.07203 0.54628 0.0
C3846 C 0.6816 0.11426 0.52721 0.0
C3847 C 0.6443 0.07106 0.55609 0.0
C3848 C 0.78291 0.11455 0.50873 0.0
C3849 C 0.75817 0.11487 0.5133 0.0
C3850 C 0.71256 0.06849 0.52409 0.0
C3851 C 0.66414 0.09418 0.54249 0.0
C3852 C 0.6786 0.09194 0.53326 0.0
C3853 C 0.74093 0.09295 0.51244 0.0
C3854 C 0.71703 0.09151 0.51856 0.0
H3855 H 0.66758 0.13225 0.5628 0.0
H3856 H 0.67934 0.13377 0.54573 0.0
H3857 H 0.69213 0.05138 0.53607 0.0
H3858 H 0.77852 0.05368 0.49776 0.0
H3859 H 0.73522 0.05411 0.50588 0.0
C3860 C 0.64452 0.94575 0.31534 0.0
C3861 C 0.63642 0.94947 0.32496 0.0
C3862 C 0.63282 0.96068 0.30796 0.0
C3863 C 0.60425 0.02661 0.30536 0.0
H3864 H 0.60666 1.00617 0.27829 0.0
C3865 C 0.61937 0.07308 0.26451 0.0
C3866 C 0.64122 0.08926 0.26694 0.0
C3867 C 0.60669 0.05807 0.27164 0.0
C3868 C 0.60499 1.01227 0.2858 0.0
H3869 H 0.60832 0.96961 0.33442 0.0
H3870 H 0.58741 0.99555 0.32145 0.0
H3871 H 0.60434 0.97184 0.29069 0.0
H3872 H 0.66575 0.10427 0.27867 0.0
H3873 H 0.64438 0.07751 0.29107 0.0
H3874 H 0.60562 0.067 0.30048 0.0
C3875 C 0.60311 0.98149 0.31963 0.0
C3876 C 0.60403 0.99257 0.2929 0.0
C3877 C 0.61501 0.9667 0.32703 0.0
C3878 C 0.64909 0.09167 0.27665 0.0
C3879 C 0.63655 0.07662 0.28375 0.0
C3880 C 0.60474 0.0463 0.29826 0.0
C3881 C 0.61267 0.97942 0.31009 0.0
C3882 C 0.60528 0.99954 0.30274 0.0
C3883 C 0.61576 0.05907 0.28128 0.0
C3884 C 0.60678 0.03925 0.28845 0.0
H3885 H 0.66125 0.93282 0.31359 0.0
H3886 H 0.64106 0.95895 0.30073 0.0
H3887 H 0.60541 0.03272 0.31288 0.0
H3888 H 0.61311 0.07085 0.25703 0.0
H3889 H 0.59063 0.0448 0.26956 0.0
C3890 C 0.8473 0.87226 0.07104 0.0
C3891 C 0.83435 0.8864 0.07845 0.0
C3892 C 0.83259 0.8623 0.06327 0.0
C3893 C 0.7635 0.85228 0.05417 0.0
H3894 H 0.79253 0.88142 1.03037 0.0
C3895 C 0.70119 0.89985 1.02439 0.0
C3896 C 0.70999 0.89801 1.01478 0.0
C3897 C 0.71572 0.88752 1.03176 0.0
C3898 C 0.78439 0.8724 1.03686 0.0
H3899 H 0.796 0.90056 0.08379 0.0
H3900 H 0.77049 0.88342 0.07028 0.0
H3901 H 0.82079 0.8783 1.0446 0.0
H3902 H 0.73921 0.88026 1.0051 0.0
H3903 H 0.76479 0.85879 1.01803 0.0
H3904 H 0.72642 0.84841 0.04654 0.0
C3905 C 0.79178 0.87933 0.07053 0.0
C3906 C 0.80061 0.87056 1.04502 0.0
C3907 C 0.80642 0.88924 0.07827 0.0
C3908 C 0.73239 0.88227 1.01252 0.0
C3909 C 0.74689 0.86993 1.01987 0.0
C3910 C 0.74723 0.85421 0.046 0.0
C3911 C 0.80482 0.86645 0.06284 0.0
C3912 C 0.78997 0.86153 0.05383 0.0
C3913 C 0.73913 0.87317 1.02956 0.0
C3914 C 0.75731 0.86525 1.03742 0.0
H3915 H 0.86882 0.86967 0.07109 0.0
H3916 H 0.84302 0.85236 0.05741 0.0
H3917 H 0.75497 0.84505 0.06089 0.0
H3918 H 0.68405 0.91206 1.02628 0.0
H3919 H 0.7096 0.89071 1.0392 0.0
C3920 C 0.6493 0.5469 0.82918 0.0
C3921 C 0.64422 0.57444 0.82944 0.0
C3922 C 0.63916 0.5315 0.82169 0.0
C3923 C 0.62294 0.53849 0.79644 0.0
H3924 H 0.60452 0.46373 0.79915 0.0
C3925 C 0.62569 0.4703 0.76379 0.0
C3926 C 0.64318 0.44875 0.76534 0.0
C3927 C 0.61538 0.48434 0.77163 0.0
C3928 C 0.60928 0.48466 0.7983 0.0
H3929 H 0.62368 0.60736 0.82241 0.0
H3930 H 0.60595 0.58023 0.80917 0.0
H3931 H 0.6049 0.49242 0.81345 0.0
H3932 H 0.66235 0.4238 0.77619 0.0
H3933 H 0.64439 0.44835 0.78991 0.0
H3934 H 0.62894 0.53049 0.78143 0.0
C3935 C 0.61781 0.5707 0.81477 0.0
C3936 C 0.60951 0.50102 0.80644 0.0
C3937 C 0.62799 0.58618 0.82229 0.0
C3938 C 0.64864 0.44017 0.77482 0.0
C3939 C 0.63831 0.45419 0.78266 0.0
C3940 C 0.62262 0.52218 0.78831 0.0
C3941 C 0.6238 0.54335 0.81432 0.0
C3942 C 0.61735 0.52779 0.80561 0.0
C3943 C 0.62238 0.47693 0.78111 0.0
C3944 C 0.61674 0.49494 0.78924 0.0
H3945 H 0.66225 0.53745 0.83448 0.0
H3946 H 0.64469 0.5106 0.82138 0.0
H3947 H 0.62952 0.55894 0.79562 0.0
H3948 H 0.62097 0.47702 0.75651 0.0
H3949 H 0.60297 0.50172 0.77029 0.0
C3950 C 0.84131 0.38463 1.0246 0.0
C3951 C 0.83778 0.37788 1.01483 0.0
C3952 C 0.82484 0.37356 1.03164 0.0
C3953 C 0.75636 0.35171 1.03298 0.0
H3954 H 0.77431 0.3485 0.0603 0.0
C3955 C 0.70755 0.36626 0.07346 0.0
C3956 C 0.69416 0.3902 0.07132 0.0
C3957 C 0.72179 0.35301 0.06625 0.0
C3958 C 0.76881 0.34845 0.0527 0.0
H3959 H 0.81636 0.35253 1.00477 0.0
H3960 H 0.78758 0.33286 1.01713 0.0
H3961 H 0.80956 0.34409 0.0483 0.0
H3962 H 0.68318 0.4181 0.05997 0.0
H3963 H 0.70864 0.39558 0.04745 0.0
H3964 H 0.71575 0.357 1.03738 0.0
C3965 C 0.80276 0.34699 1.01933 0.0
C3966 C 0.78907 0.34625 0.04584 0.0
C3967 C 0.81917 0.3582 1.01228 0.0
C3968 C 0.69361 0.39976 0.06178 0.0
C3969 C 0.70789 0.38662 0.05459 0.0
C3970 C 0.73608 0.35352 1.03983 0.0
C3971 C 0.80468 0.35545 1.029 0.0
C3972 C 0.78318 0.34942 1.03595 0.0
C3973 C 0.7228 0.36359 0.05683 0.0
C3974 C 0.74235 0.35349 0.04975 0.0
H3975 H 0.85531 0.40002 1.02673 0.0
H3976 H 0.82653 0.38089 1.03899 0.0
H3977 H 0.75115 0.35445 1.02542 0.0
H3978 H 0.70835 0.35866 0.08082 0.0
H3979 H 0.73304 0.33523 0.06814 0.0
C3980 C 0.87637 0.43928 0.31236 0.0
C3981 C 0.88863 0.43892 0.3215 0.0
C3982 C 0.88726 0.45438 0.30492 0.0
C3983 C 0.91794 0.48233 0.28933 0.0
H3984 H 0.93012 0.55537 0.29746 0.0
C3985 C 0.92178 0.56516 0.26145 0.0
C3986 C 0.90285 0.58511 0.26348 0.0
C3987 C 0.93025 0.54788 0.26874 0.0
C3988 C 0.92714 0.53498 0.2951 0.0
H3989 H 0.92241 0.45266 0.33 0.0
H3990 H 0.94187 0.47877 0.31685 0.0
H3991 H 0.92545 0.52053 0.30964 0.0
H3992 H 0.87917 0.60391 0.27475 0.0
H3993 H 0.89387 0.57374 0.28747 0.0
H3994 H 0.91706 0.49715 0.27485 0.0
C3995 C 0.92377 0.46756 0.31549 0.0
C3996 C 0.92476 0.51502 0.30205 0.0
C3997 C 0.9128 0.45249 0.32296 0.0
C3998 C 0.89407 0.5889 0.27303 0.0
C3999 C 0.90252 0.57163 0.28032 0.0
C4000 C 0.92012 0.50231 0.2824 0.0
C4001 C 0.91066 0.46918 0.30651 0.0
C4002 C 0.91914 0.48873 0.29921 0.0
C4003 C 0.91991 0.5504 0.27814 0.0
C4004 C 0.92378 0.52893 0.28526 0.0
H4005 H 0.85777 0.42878 0.3111 0.0
H4006 H 0.87648 0.45565 0.29811 0.0
H4007 H 0.91381 0.46214 0.28699 0.0
H4008 H 0.92901 0.56211 0.25413 0.0
H4009 H 0.94384 0.53177 0.26692 0.0
C4010 C 0.71739 0.6747 0.51329 0.0
C4011 C 0.70049 0.65328 0.51553 0.0
C4012 C 0.73314 0.68616 0.52048 0.0
C4013 C 0.74726 0.68481 0.54696 0.0
H4014 H 0.82111 0.68298 0.53836 0.0
C4015 C 0.84913 0.64189 0.56236 0.0
C4016 C 0.84753 0.65057 0.57199 0.0
C4017 C 0.83308 0.65358 0.55531 0.0
C4018 C 0.80058 0.68392 0.54086 0.0
H4019 H 0.68537 0.62806 0.52705 0.0
H4020 H 0.71308 0.64763 0.53957 0.0
H4021 H 0.7854 0.68278 0.52644 0.0
H4022 H 0.82947 0.67926 0.58178 0.0
H4023 H 0.80176 0.70028 0.56932 0.0
H4024 H 0.76246 0.68283 0.56138 0.0
C4025 C 0.71386 0.65611 0.53235 0.0
C4026 C 0.78009 0.68416 0.53403 0.0
C4027 C 0.69802 0.64479 0.52517 0.0
C4028 C 0.83115 0.67239 0.57436 0.0
C4029 C 0.81517 0.68424 0.56727 0.0
C4030 C 0.76777 0.68417 0.55378 0.0
C4031 C 0.73228 0.67622 0.52999 0.0
C4032 C 0.75325 0.68334 0.53704 0.0
C4033 C 0.81534 0.67431 0.55776 0.0
C4034 C 0.79456 0.68242 0.55077 0.0
H4035 H 0.71935 0.6817 0.50589 0.0
H4036 H 0.74697 0.70184 0.5185 0.0
H4037 H 0.72672 0.68457 0.54945 0.0
H4038 H 0.86184 0.62521 0.56039 0.0
H4039 H 0.83336 0.64513 0.54808 0.0
C4040 C 0.28977 0.54435 0.3306 0.0
C4041 C 0.31483 0.55669 0.32963 0.0
C4042 C 0.28572 0.51892 0.32692 0.0
C4043 C 0.32136 0.45885 0.31932 0.0
H4044 H 0.26414 0.45148 0.30053 0.0
C4045 C 0.33001 0.40107 0.28495 0.0
C4046 C 0.30687 0.39253 0.28014 0.0
C4047 C 0.32813 0.41181 0.29419 0.0
C4048 C 0.27962 0.45267 0.30602 0.0
H4049 H 0.3551 0.55257 0.32398 0.0
H4050 H 0.34799 0.50795 0.31752 0.0
H4051 H 0.26612 0.49112 0.31053 0.0
H4052 H 0.26438 0.385 0.2815 0.0
H4053 H 0.26106 0.40372 0.2978 0.0
H4054 H 0.33575 0.42106 0.31441 0.0
C4055 C 0.3317 0.51783 0.32127 0.0
C4056 C 0.28083 0.47549 0.31168 0.0
C4057 C 0.33569 0.54334 0.32488 0.0
C4058 C 0.28239 0.39187 0.28509 0.0
C4059 C 0.28051 0.40251 0.29437 0.0
C4060 C 0.32003 0.43587 0.31372 0.0
C4061 C 0.30676 0.50545 0.32233 0.0
C4062 C 0.30238 0.4792 0.31803 0.0
C4063 C 0.30308 0.41401 0.29873 0.0
C4064 C 0.29991 0.43324 0.30668 0.0
H4065 H 0.27353 0.55403 0.33444 0.0
H4066 H 0.26632 0.50962 0.32775 0.0
H4067 H 0.33796 0.46134 0.3243 0.0
H4068 H 0.34907 0.402 0.28124 0.0
H4069 H 0.34583 0.42084 0.29729 0.0
C4070 C 0.35146 0.62542 1.0286 0.0
C4071 C 0.35162 0.63839 1.0196 0.0
C4072 C 0.33635 0.63565 1.03617 0.0
C4073 C 0.30832 0.66486 0.05211 0.0
H4074 H 0.23487 0.6778 1.04418 0.0
C4075 C 0.2257 0.66572 0.08009 0.0
C4076 C 0.20576 0.64711 0.07781 0.0
C4077 C 0.24281 0.67499 0.07291 0.0
C4078 C 0.25537 0.6746 0.04648 0.0
H4079 H 0.33754 0.67278 1.01149 0.0
H4080 H 0.3114 0.69111 1.02487 0.0
H4081 H 0.2697 0.67426 1.03193 0.0
H4082 H 0.18675 0.62488 0.06623 0.0
H4083 H 0.21666 0.64091 0.05368 0.0
H4084 H 0.29365 0.66262 0.06658 0.0
C4085 C 0.32278 0.67294 1.02602 0.0
C4086 C 0.27533 0.67286 1.0395 0.0
C4087 C 0.33785 0.66262 1.01843 0.0
C4088 C 0.20177 0.63949 0.06814 0.0
C4089 C 0.21889 0.64872 0.06096 0.0
C4090 C 0.28834 0.66638 0.05908 0.0
C4091 C 0.32134 0.65913 1.03486 0.0
C4092 C 0.30177 0.66697 1.04226 0.0
C4093 C 0.24015 0.66575 0.06336 0.0
C4094 C 0.26158 0.67031 0.05628 0.0
H4095 H 0.36211 0.60676 1.02965 0.0
H4096 H 0.33522 0.62434 1.04286 0.0
H4097 H 0.32863 0.66051 0.05439 0.0
H4098 H 0.2289 0.67205 0.08751 0.0
H4099 H 0.25892 0.6883 0.0749 0.0
C4100 C 0.11928 0.57505 0.76459 0.0
C4101 C 0.14116 0.59161 0.76661 0.0
C4102 C 0.10759 0.56019 0.77197 0.0
C4103 C 0.10812 0.51458 0.7861 0.0
H4104 H 0.11143 0.53458 0.8132 0.0
C4105 C 0.12056 0.4676 0.82706 0.0
C4106 C 0.14149 0.45001 0.82475 0.0
C4107 C 0.10868 0.48305 0.81983 0.0
C4108 C 0.10952 0.52863 0.80569 0.0
H4109 H 0.16712 0.60692 0.77789 0.0
H4110 H 0.14723 0.5807 0.79073 0.0
H4111 H 0.1104 0.5691 0.80087 0.0
H4112 H 0.16549 0.43346 0.81314 0.0
H4113 H 0.14528 0.46066 0.80056 0.0
H4114 H 0.10787 0.47409 0.79092 0.0
C4115 C 0.13851 0.57956 0.78355 0.0
C4116 C 0.1093 0.54844 0.79862 0.0
C4117 C 0.15002 0.59454 0.77619 0.0
C4118 C 0.14913 0.44666 0.81506 0.0
C4119 C 0.13743 0.46221 0.80785 0.0
C4120 C 0.10788 0.49478 0.79317 0.0
C4121 C 0.11779 0.56155 0.78145 0.0
C4122 C 0.11013 0.54155 0.78877 0.0
C4123 C 0.11775 0.48122 0.81022 0.0
C4124 C 0.11011 0.5016 0.803 0.0
H4125 H 0.11201 0.57275 0.75723 0.0
H4126 H 0.09145 0.54669 0.77019 0.0
H4127 H 0.10893 0.50856 0.77857 0.0
H4128 H 0.11421 0.47025 0.8345 0.0
H4129 H 0.09333 0.49731 0.82183 0.0
C4130 C 0.15408 0.51006 0.53215 0.0
C4131 C 0.15456 0.48511 0.52757 0.0
C4132 C 0.16202 0.51227 0.54178 0.0
C4133 C 0.18372 0.47343 0.56328 0.0
H4134 H 0.24338 0.52271 0.56295 0.0
C4135 C 0.28238 0.45441 0.58257 0.0
C4136 C 0.29588 0.47606 0.5867 0.0
C4137 C 0.25857 0.4586 0.57759 0.0
C4138 C 0.22639 0.50937 0.5633 0.0
H4139 H 0.16137 0.44269 0.52951 0.0
H4140 H 0.17551 0.4465 0.54625 0.0
H4141 H 0.20984 0.52526 0.55029 0.0
H4142 H 0.29487 0.51871 0.58933 0.0
H4143 H 0.25322 0.52607 0.58049 0.0
H4144 H 0.2016 0.45634 0.57594 0.0
C4145 C 0.1686 0.46431 0.54253 0.0
C4146 C 0.20711 0.5109 0.55608 0.0
C4147 C 0.16062 0.46211 0.53293 0.0
C4148 C 0.28492 0.5018 0.58606 0.0
C4149 C 0.26113 0.50599 0.58107 0.0
C4150 C 0.20308 0.47187 0.5705 0.0
C4151 C 0.17053 0.48953 0.54688 0.0
C4152 C 0.18619 0.49229 0.55582 0.0
C4153 C 0.24802 0.48447 0.5767 0.0
C4154 C 0.22501 0.48923 0.57034 0.0
H4155 H 0.14907 0.52799 0.52813 0.0
H4156 H 0.16318 0.53188 0.54504 0.0
H4157 H 0.16767 0.45896 0.56321 0.0
H4158 H 0.2907 0.43444 0.58289 0.0
H4159 H 0.24907 0.44178 0.57407 0.0
loop_
_geom_bond_atom_site_label_1
_geom_bond_atom_site_label_2
_geom_bond_distance
_geom_bond_site_symmetry_2
_ccdc_geom_bond_type
Pr0 C2 2.880 . S
Pr0 O20 2.562 . S
Pr0 O21 2.490 . S
Pr0 O22 2.695 . S
Pr0 O23 2.512 . S
Pr0 O25 2.437 . S
Pr0 O28 2.436 . S
Pr0 O30 2.438 . S
Pr1 C11 2.880 . S
Pr1 O22 2.436 . S
Pr1 O24 2.438 . S
Pr1 O26 2.562 . S
Pr1 O27 2.490 . S
Pr1 O28 2.695 . S
Pr1 O29 2.512 . S
Pr1 O31 2.437 . S
C2 Pr0 2.880 . S
C2 C3 1.491 . S
C2 O20 1.254 . S
C2 O21 1.225 . S
C3 C2 1.491 . S
C3 C4 1.392 . S
C3 C8 1.356 . S
C4 C3 1.392 . S
C4 C5 1.368 . S
C4 H32 0.929 . S
C5 C4 1.368 . S
C5 C6 1.386 . S
C5 H33 0.929 . S
C6 C5 1.386 . S
C6 C7 1.373 . S
C7 C6 1.373 . S
C7 C8 1.409 . S
C7 H34 0.931 . S
C8 C3 1.356 . S
C8 C7 1.409 . S
C8 H35 0.930 . S
C9 O22 1.270 . S
C9 O23 1.248 . S
C10 O24 1.267 . S
C10 O25 1.278 . S
C11 Pr1 2.880 . S
C11 C12 1.491 . S
C11 O26 1.254 . S
C11 O27 1.225 . S
C12 C11 1.491 . S
C12 C13 1.392 . S
C12 C17 1.356 . S
C13 C12 1.392 . S
C13 C14 1.368 . S
C13 H36 0.929 . S
C14 C13 1.368 . S
C14 C15 1.386 . S
C14 H37 0.929 . S
C15 C14 1.386 . S
C15 C16 1.373 . S
C16 C15 1.373 . S
C16 C17 1.409 . S
C16 H38 0.931 . S
C17 C12 1.356 . S
C17 C16 1.409 . S
C17 H39 0.930 . S
C18 O28 1.270 . S
C18 O29 1.248 . S
C19 O30 1.267 . S
C19 O31 1.278 . S
O20 Pr0 2.562 . S
O20 C2 1.254 . S
O21 Pr0 2.490 . S
O21 C2 1.225 . S
O22 Pr0 2.695 . S
O22 Pr1 2.436 . S
O22 C9 1.270 . S
O23 Pr0 2.512 . S
O23 C9 1.248 . S
O24 Pr1 2.438 . S
O24 C10 1.267 . S
O25 Pr0 2.437 . S
O25 C10 1.278 . S
O26 Pr1 2.562 . S
O26 C11 1.254 . S
O27 Pr1 2.490 . S
O27 C11 1.225 . S
O28 Pr0 2.436 . S
O28 Pr1 2.695 . S
O28 C18 1.270 . S
O29 Pr1 2.512 . S
O29 C18 1.248 . S
O30 Pr0 2.438 . S
O30 C19 1.267 . S
O31 Pr1 2.437 . S
O31 C19 1.278 . S
H32 C4 0.929 . S
H33 C5 0.929 . S
H34 C7 0.931 . S
H35 C8 0.930 . S
H36 C13 0.929 . S
H37 C14 0.929 . S
H38 C16 0.931 . S
H39 C17 0.930 . S
Pr40 C42 2.880 1_455 S
Pr40 O60 2.562 1_455 S
Pr40 O61 2.490 1_455 S
Pr40 O62 2.695 . S
Pr40 O63 2.512 . S
Pr40 O65 2.437 . S
Pr40 O68 2.436 . S
Pr40 O70 2.438 . S
Pr41 C51 2.880 . S
Pr41 O62 2.436 . S
Pr41 O64 2.438 . S
Pr41 O66 2.562 . S
Pr41 O67 2.490 . S
Pr41 O68 2.695 . S
Pr41 O69 2.512 . S
Pr41 O71 2.437 . S
C42 Pr40 2.880 1_655 S
C42 C43 1.491 . S
C42 O60 1.254 . S
C42 O61 1.225 . S
C43 C42 1.491 . S
C43 C44 1.392 . S
C43 C48 1.356 . S
C44 C43 1.392 . S
C44 C45 1.368 . S
C44 H72 0.929 . S
C45 C44 1.368 . S
C45 C46 1.386 . S
C45 H73 0.929 . S
C46 C45 1.386 . S
C46 C47 1.373 . S
C47 C46 1.373 . S
C47 C48 1.409 . S
C47 H74 0.931 . S
C48 C43 1.356 . S
C48 C47 1.409 . S
C48 H75 0.930 . S
C49 O62 1.270 . S
C49 O63 1.248 . S
C50 O64 1.267 . S
C50 O65 1.278 . S
C51 Pr41 2.880 . S
C51 C52 1.491 . S
C51 O66 1.254 . S
C51 O67 1.225 . S
C52 C51 1.491 . S
C52 C53 1.392 . S
C52 C57 1.356 . S
C53 C52 1.392 . S
C53 C54 1.368 . S
C53 H76 0.929 . S
C54 C53 1.368 . S
C54 C55 1.386 . S
C54 H77 0.929 . S
C55 C54 1.386 . S
C55 C56 1.373 . S
C56 C55 1.373 . S
C56 C57 1.409 . S
C56 H78 0.931 . S
C57 C52 1.356 . S
C57 C56 1.409 . S
C57 H79 0.930 . S
C58 O68 1.270 . S
C58 O69 1.248 . S
C59 O70 1.267 . S
C59 O71 1.278 . S
O60 Pr40 2.562 1_655 S
O60 C42 1.254 . S
O61 Pr40 2.490 1_655 S
O61 C42 1.225 . S
O62 Pr40 2.695 . S
O62 Pr41 2.436 . S
O62 C49 1.270 . S
O63 Pr40 2.512 . S
O63 C49 1.248 . S
O64 Pr41 2.438 . S
O64 C50 1.267 . S
O65 Pr40 2.437 . S
O65 C50 1.278 . S
O66 Pr41 2.562 . S
O66 C51 1.254 . S
O67 Pr41 2.490 . S
O67 C51 1.225 . S
O68 Pr40 2.436 . S
O68 Pr41 2.695 . S
O68 C58 1.270 . S
O69 Pr41 2.512 . S
O69 C58 1.248 . S
O70 Pr40 2.438 . S
O70 C59 1.267 . S
O71 Pr41 2.437 . S
O71 C59 1.278 . S
H72 C44 0.929 . S
H73 C45 0.929 . S
H74 C47 0.931 . S
H75 C48 0.930 . S
H76 C53 0.929 . S
H77 C54 0.929 . S
H78 C56 0.931 . S
H79 C57 0.930 . S
Pr80 C82 2.880 . S
Pr80 O100 2.562 . S
Pr80 O101 2.490 . S
Pr80 O102 2.695 . S
Pr80 O103 2.512 . S
Pr80 O105 2.437 . S
Pr80 O108 2.436 . S
Pr80 O110 2.438 . S
Pr81 C91 2.880 . S
Pr81 O102 2.436 . S
Pr81 O104 2.438 . S
Pr81 O106 2.562 . S
Pr81 O107 2.490 . S
Pr81 O108 2.695 . S
Pr81 O109 2.512 . S
Pr81 O111 2.437 . S
C82 Pr80 2.880 . S
C82 C83 1.491 . S
C82 O100 1.254 . S
C82 O101 1.225 . S
C83 C82 1.491 . S
C83 C84 1.392 . S
C83 C88 1.356 . S
C84 C83 1.392 . S
C84 C85 1.368 . S
C84 H112 0.929 . S
C85 C84 1.368 . S
C85 C86 1.386 . S
C85 H113 0.929 . S
C86 C85 1.386 . S
C86 C87 1.373 . S
C87 C86 1.373 . S
C87 C88 1.409 . S
C87 H114 0.931 . S
C88 C83 1.356 . S
C88 C87 1.409 . S
C88 H115 0.930 . S
C89 O102 1.270 . S
C89 O103 1.248 . S
C90 O104 1.267 . S
C90 O105 1.278 . S
C91 Pr81 2.880 . S
C91 C92 1.491 . S
C91 O106 1.254 . S
C91 O107 1.225 . S
C92 C91 1.491 . S
C92 C93 1.392 . S
C92 C97 1.356 . S
C93 C92 1.392 . S
C93 C94 1.368 . S
C93 H116 0.929 . S
C94 C93 1.368 . S
C94 C95 1.386 . S
C94 H117 0.929 . S
C95 C94 1.386 . S
C95 C96 1.373 . S
C96 C95 1.373 . S
C96 C97 1.409 . S
C96 H118 0.931 . S
C97 C92 1.356 . S
C97 C96 1.409 . S
C97 H119 0.930 . S
C98 O108 1.270 . S
C98 O109 1.248 . S
C99 O110 1.267 . S
C99 O111 1.278 . S
O100 Pr80 2.562 . S
O100 C82 1.254 . S
O101 Pr80 2.490 . S
O101 C82 1.225 . S
O102 Pr80 2.695 . S
O102 Pr81 2.436 . S
O102 C89 1.270 . S
O103 Pr80 2.512 . S
O103 C89 1.248 . S
O104 Pr81 2.438 . S
O104 C90 1.267 . S
O105 Pr80 2.437 . S
O105 C90 1.278 . S
O106 Pr81 2.562 . S
O106 C91 1.254 . S
O107 Pr81 2.490 . S
O107 C91 1.225 . S
O108 Pr80 2.436 . S
O108 Pr81 2.695 . S
O108 C98 1.270 . S
O109 Pr81 2.512 . S
O109 C98 1.248 . S
O110 Pr80 2.438 . S
O110 C99 1.267 . S
O111 Pr81 2.437 . S
O111 C99 1.278 . S
H112 C84 0.929 . S
H113 C85 0.929 . S
H114 C87 0.931 . S
H115 C88 0.930 . S
H116 C93 0.929 . S
H117 C94 0.929 . S
H118 C96 0.931 . S
H119 C97 0.930 . S
Pr120 C122 2.880 . S
Pr120 O140 2.562 . S
Pr120 O141 2.490 . S
Pr120 O142 2.695 . S
Pr120 O143 2.512 . S
Pr120 O145 2.437 . S
Pr120 O148 2.436 . S
Pr120 O150 2.438 . S
Pr121 C131 2.880 . S
Pr121 O142 2.436 . S
Pr121 O144 2.438 . S
Pr121 O146 2.562 . S
Pr121 O147 2.490 . S
Pr121 O148 2.695 . S
Pr121 O149 2.512 . S
Pr121 O151 2.437 . S
C122 Pr120 2.880 . S
C122 C123 1.491 . S
C122 O140 1.254 . S
C122 O141 1.225 . S
C123 C122 1.491 . S
C123 C124 1.392 . S
C123 C128 1.356 . S
C124 C123 1.392 . S
C124 C125 1.368 . S
C124 H152 0.929 . S
C125 C124 1.368 . S
C125 C126 1.386 . S
C125 H153 0.929 . S
C126 C125 1.386 . S
C126 C127 1.373 . S
C127 C126 1.373 . S
C127 C128 1.409 . S
C127 H154 0.931 . S
C128 C123 1.356 . S
C128 C127 1.409 . S
C128 H155 0.930 . S
C129 O142 1.270 . S
C129 O143 1.248 . S
C130 O144 1.267 . S
C130 O145 1.278 . S
C131 Pr121 2.880 . S
C131 C132 1.491 . S
C131 O146 1.254 . S
C131 O147 1.225 . S
C132 C131 1.491 . S
C132 C133 1.392 . S
C132 C137 1.356 . S
C133 C132 1.392 . S
C133 C134 1.368 . S
C133 H156 0.929 . S
C134 C133 1.368 . S
C134 C135 1.386 . S
C134 H157 0.929 . S
C135 C134 1.386 . S
C135 C136 1.373 . S
C136 C135 1.373 . S
C136 C137 1.409 . S
C136 H158 0.931 . S
C137 C132 1.356 . S
C137 C136 1.409 . S
C137 H159 0.930 . S
C138 O148 1.270 . S
C138 O149 1.248 . S
C139 O150 1.267 . S
C139 O151 1.278 . S
O140 Pr120 2.562 . S
O140 C122 1.254 . S
O141 Pr120 2.490 . S
O141 C122 1.225 . S
O142 Pr120 2.695 . S
O142 Pr121 2.436 . S
O142 C129 1.270 . S
O143 Pr120 2.512 . S
O143 C129 1.248 . S
O144 Pr121 2.438 . S
O144 C130 1.267 . S
O145 Pr120 2.437 . S
O145 C130 1.278 . S
O146 Pr121 2.562 . S
O146 C131 1.254 . S
O147 Pr121 2.490 . S
O147 C131 1.225 . S
O148 Pr120 2.436 . S
O148 Pr121 2.695 . S
O148 C138 1.270 . S
O149 Pr121 2.512 . S
O149 C138 1.248 . S
O150 Pr120 2.438 . S
O150 C139 1.267 . S
O151 Pr121 2.437 . S
O151 C139 1.278 . S
H152 C124 0.929 . S
H153 C125 0.929 . S
H154 C127 0.931 . S
H155 C128 0.930 . S
H156 C133 0.929 . S
H157 C134 0.929 . S
H158 C136 0.931 . S
H159 C137 0.930 . S
Pr160 C162 2.880 . S
Pr160 O180 2.562 . S
Pr160 O181 2.490 . S
Pr160 O182 2.695 . S
Pr160 O183 2.512 . S
Pr160 O185 2.437 . S
Pr160 O188 2.436 . S
Pr160 O190 2.438 . S
Pr161 C171 2.880 . S
Pr161 O182 2.436 . S
Pr161 O184 2.438 . S
Pr161 O186 2.562 . S
Pr161 O187 2.490 . S
Pr161 O188 2.695 . S
Pr161 O189 2.512 . S
Pr161 O191 2.437 . S
C162 Pr160 2.880 . S
C162 C163 1.491 . S
C162 O180 1.254 . S
C162 O181 1.225 . S
C163 C162 1.491 . S
C163 C164 1.392 . S
C163 C168 1.356 . S
C164 C163 1.392 . S
C164 C165 1.368 . S
C164 H192 0.929 . S
C165 C164 1.368 . S
C165 C166 1.386 . S
C165 H193 0.929 . S
C166 C165 1.386 . S
C166 C167 1.373 . S
C167 C166 1.373 . S
C167 C168 1.409 . S
C167 H194 0.931 . S
C168 C163 1.356 . S
C168 C167 1.409 . S
C168 H195 0.930 . S
C169 O182 1.270 . S
C169 O183 1.248 . S
C170 O184 1.267 . S
C170 O185 1.278 . S
C171 Pr161 2.880 . S
C171 C172 1.491 . S
C171 O186 1.254 . S
C171 O187 1.225 . S
C172 C171 1.491 . S
C172 C173 1.392 . S
C172 C177 1.356 . S
C173 C172 1.392 . S
C173 C174 1.368 . S
C173 H196 0.929 . S
C174 C173 1.368 . S
C174 C175 1.386 . S
C174 H197 0.929 . S
C175 C174 1.386 . S
C175 C176 1.373 . S
C176 C175 1.373 . S
C176 C177 1.409 . S
C176 H198 0.931 . S
C177 C172 1.356 . S
C177 C176 1.409 . S
C177 H199 0.930 . S
C178 O188 1.270 . S
C178 O189 1.248 . S
C179 O190 1.267 . S
C179 O191 1.278 . S
O180 Pr160 2.562 . S
O180 C162 1.254 . S
O181 Pr160 2.490 . S
O181 C162 1.225 . S
O182 Pr160 2.695 . S
O182 Pr161 2.436 . S
O182 C169 1.270 . S
O183 Pr160 2.512 . S
O183 C169 1.248 . S
O184 Pr161 2.438 . S
O184 C170 1.267 . S
O185 Pr160 2.437 . S
O185 C170 1.278 . S
O186 Pr161 2.562 . S
O186 C171 1.254 . S
O187 Pr161 2.490 . S
O187 C171 1.225 . S
O188 Pr160 2.436 . S
O188 Pr161 2.695 . S
O188 C178 1.270 . S
O189 Pr161 2.512 . S
O189 C178 1.248 . S
O190 Pr160 2.438 . S
O190 C179 1.267 . S
O191 Pr161 2.437 . S
O191 C179 1.278 . S
H192 C164 0.929 . S
H193 C165 0.929 . S
H194 C167 0.931 . S
H195 C168 0.930 . S
H196 C173 0.929 . S
H197 C174 0.929 . S
H198 C176 0.931 . S
H199 C177 0.930 . S
Pr200 C202 2.880 . S
Pr200 O220 2.562 . S
Pr200 O221 2.490 . S
Pr200 O222 2.695 . S
Pr200 O223 2.512 . S
Pr200 O225 2.437 . S
Pr200 O228 2.436 . S
Pr200 O230 2.438 . S
Pr201 C211 2.880 . S
Pr201 O222 2.436 . S
Pr201 O224 2.438 . S
Pr201 O226 2.562 . S
Pr201 O227 2.490 . S
Pr201 O228 2.695 . S
Pr201 O229 2.512 . S
Pr201 O231 2.437 . S
C202 Pr200 2.880 . S
C202 C203 1.491 . S
C202 O220 1.254 . S
C202 O221 1.225 . S
C203 C202 1.491 . S
C203 C204 1.392 . S
C203 C208 1.356 . S
C204 C203 1.392 . S
C204 C205 1.368 . S
C204 H232 0.929 . S
C205 C204 1.368 . S
C205 C206 1.386 . S
C205 H233 0.929 . S
C206 C205 1.386 . S
C206 C207 1.373 . S
C207 C206 1.373 . S
C207 C208 1.409 . S
C207 H234 0.931 . S
C208 C203 1.356 . S
C208 C207 1.409 . S
C208 H235 0.930 . S
C209 O222 1.270 . S
C209 O223 1.248 . S
C210 O224 1.267 . S
C210 O225 1.278 . S
C211 Pr201 2.880 . S
C211 C212 1.491 . S
C211 O226 1.254 . S
C211 O227 1.225 . S
C212 C211 1.491 . S
C212 C213 1.392 . S
C212 C217 1.356 . S
C213 C212 1.392 . S
C213 C214 1.368 . S
C213 H236 0.929 . S
C214 C213 1.368 . S
C214 C215 1.386 . S
C214 H237 0.929 . S
C215 C214 1.386 . S
C215 C216 1.373 . S
C216 C215 1.373 . S
C216 C217 1.409 . S
C216 H238 0.931 . S
C217 C212 1.356 . S
C217 C216 1.409 . S
C217 H239 0.930 . S
C218 O228 1.270 . S
C218 O229 1.248 . S
C219 O230 1.267 . S
C219 O231 1.278 . S
O220 Pr200 2.562 . S
O220 C202 1.254 . S
O221 Pr200 2.490 . S
O221 C202 1.225 . S
O222 Pr200 2.695 . S
O222 Pr201 2.436 . S
O222 C209 1.270 . S
O223 Pr200 2.512 . S
O223 C209 1.248 . S
O224 Pr201 2.438 . S
O224 C210 1.267 . S
O225 Pr200 2.437 . S
O225 C210 1.278 . S
O226 Pr201 2.562 . S
O226 C211 1.254 . S
O227 Pr201 2.490 . S
O227 C211 1.225 . S
O228 Pr200 2.436 . S
O228 Pr201 2.695 . S
O228 C218 1.270 . S
O229 Pr201 2.512 . S
O229 C218 1.248 . S
O230 Pr200 2.438 . S
O230 C219 1.267 . S
O231 Pr201 2.437 . S
O231 C219 1.278 . S
H232 C204 0.929 . S
H233 C205 0.929 . S
H234 C207 0.931 . S
H235 C208 0.930 . S
H236 C213 0.929 . S
H237 C214 0.929 . S
H238 C216 0.931 . S
H239 C217 0.930 . S
Pr240 C242 2.880 . S
Pr240 O260 2.562 . S
Pr240 O261 2.490 . S
Pr240 O262 2.695 . S
Pr240 O263 2.512 . S
Pr240 O265 2.437 . S
Pr240 O268 2.436 . S
Pr240 O270 2.438 . S
Pr241 C251 2.880 . S
Pr241 O262 2.436 . S
Pr241 O264 2.438 . S
Pr241 O266 2.562 . S
Pr241 O267 2.490 . S
Pr241 O268 2.695 . S
Pr241 O269 2.512 . S
Pr241 O271 2.437 . S
C242 Pr240 2.880 . S
C242 C243 1.491 . S
C242 O260 1.254 . S
C242 O261 1.225 . S
C243 C242 1.491 . S
C243 C244 1.392 . S
C243 C248 1.356 . S
C244 C243 1.392 . S
C244 C245 1.368 . S
C244 H272 0.929 . S
C245 C244 1.368 . S
C245 C246 1.386 . S
C245 H273 0.929 . S
C246 C245 1.386 . S
C246 C247 1.373 . S
C247 C246 1.373 . S
C247 C248 1.409 . S
C247 H274 0.931 . S
C248 C243 1.356 . S
C248 C247 1.409 . S
C248 H275 0.930 . S
C249 O262 1.270 . S
C249 O263 1.248 . S
C250 O264 1.267 . S
C250 O265 1.278 . S
C251 Pr241 2.880 . S
C251 C252 1.491 . S
C251 O266 1.254 . S
C251 O267 1.225 . S
C252 C251 1.491 . S
C252 C253 1.392 . S
C252 C257 1.356 . S
C253 C252 1.392 . S
C253 C254 1.368 . S
C253 H276 0.929 . S
C254 C253 1.368 . S
C254 C255 1.386 . S
C254 H277 0.929 . S
C255 C254 1.386 . S
C255 C256 1.373 . S
C256 C255 1.373 . S
C256 C257 1.409 . S
C256 H278 0.931 . S
C257 C252 1.356 . S
C257 C256 1.409 . S
C257 H279 0.930 . S
C258 O268 1.270 . S
C258 O269 1.248 . S
C259 O270 1.267 . S
C259 O271 1.278 . S
O260 Pr240 2.562 . S
O260 C242 1.254 . S
O261 Pr240 2.490 . S
O261 C242 1.225 . S
O262 Pr240 2.695 . S
O262 Pr241 2.436 . S
O262 C249 1.270 . S
O263 Pr240 2.512 . S
O263 C249 1.248 . S
O264 Pr241 2.438 . S
O264 C250 1.267 . S
O265 Pr240 2.437 . S
O265 C250 1.278 . S
O266 Pr241 2.562 . S
O266 C251 1.254 . S
O267 Pr241 2.490 . S
O267 C251 1.225 . S
O268 Pr240 2.436 . S
O268 Pr241 2.695 . S
O268 C258 1.270 . S
O269 Pr241 2.512 . S
O269 C258 1.248 . S
O270 Pr240 2.438 . S
O270 C259 1.267 . S
O271 Pr241 2.437 . S
O271 C259 1.278 . S
H272 C244 0.929 . S
H273 C245 0.929 . S
H274 C247 0.931 . S
H275 C248 0.930 . S
H276 C253 0.929 . S
H277 C254 0.929 . S
H278 C256 0.931 . S
H279 C257 0.930 . S
Pr280 C282 2.880 1_455 S
Pr280 O300 2.562 1_455 S
Pr280 O301 2.490 1_455 S
Pr280 O302 2.695 . S
Pr280 O303 2.512 . S
Pr280 O305 2.437 . S
Pr280 O308 2.436 . S
Pr280 O310 2.438 . S
Pr281 C291 2.880 . S
Pr281 O302 2.436 . S
Pr281 O304 2.438 . S
Pr281 O306 2.562 . S
Pr281 O307 2.490 . S
Pr281 O308 2.695 . S
Pr281 O309 2.512 . S
Pr281 O311 2.437 . S
C282 Pr280 2.880 1_655 S
C282 C283 1.491 . S
C282 O300 1.254 . S
C282 O301 1.225 . S
C283 C282 1.491 . S
C283 C284 1.392 . S
C283 C288 1.356 . S
C284 C283 1.392 . S
C284 C285 1.368 . S
C284 H312 0.929 . S
C285 C284 1.368 . S
C285 C286 1.386 . S
C285 H313 0.929 . S
C286 C285 1.386 . S
C286 C287 1.373 . S
C287 C286 1.373 . S
C287 C288 1.409 . S
C287 H314 0.931 . S
C288 C283 1.356 . S
C288 C287 1.409 . S
C288 H315 0.930 . S
C289 O302 1.270 . S
C289 O303 1.248 . S
C290 O304 1.267 . S
C290 O305 1.278 . S
C291 Pr281 2.880 . S
C291 C292 1.491 . S
C291 O306 1.254 . S
C291 O307 1.225 . S
C292 C291 1.491 . S
C292 C293 1.392 . S
C292 C297 1.356 . S
C293 C292 1.392 . S
C293 C294 1.368 . S
C293 H316 0.929 . S
C294 C293 1.368 . S
C294 C295 1.386 . S
C294 H317 0.929 . S
C295 C294 1.386 . S
C295 C296 1.373 . S
C296 C295 1.373 . S
C296 C297 1.409 . S
C296 H318 0.931 . S
C297 C292 1.356 . S
C297 C296 1.409 . S
C297 H319 0.930 . S
C298 O308 1.270 . S
C298 O309 1.248 . S
C299 O310 1.267 . S
C299 O311 1.278 . S
O300 Pr280 2.562 1_655 S
O300 C282 1.254 . S
O301 Pr280 2.490 1_655 S
O301 C282 1.225 . S
O302 Pr280 2.695 . S
O302 Pr281 2.436 . S
O302 C289 1.270 . S
O303 Pr280 2.512 . S
O303 C289 1.248 . S
O304 Pr281 2.438 . S
O304 C290 1.267 . S
O305 Pr280 2.437 . S
O305 C290 1.278 . S
O306 Pr281 2.562 . S
O306 C291 1.254 . S
O307 Pr281 2.490 . S
O307 C291 1.225 . S
O308 Pr280 2.436 . S
O308 Pr281 2.695 . S
O308 C298 1.270 . S
O309 Pr281 2.512 . S
O309 C298 1.248 . S
O310 Pr280 2.438 . S
O310 C299 1.267 . S
O311 Pr281 2.437 . S
O311 C299 1.278 . S
H312 C284 0.929 . S
H313 C285 0.929 . S
H314 C287 0.931 . S
H315 C288 0.930 . S
H316 C293 0.929 . S
H317 C294 0.929 . S
H318 C296 0.931 . S
H319 C297 0.930 . S
Pr320 C322 2.880 . S
Pr320 O340 2.562 . S
Pr320 O341 2.490 . S
Pr320 O342 2.695 . S
Pr320 O343 2.512 . S
Pr320 O345 2.437 . S
Pr320 O348 2.436 . S
Pr320 O350 2.438 . S
Pr321 C331 2.880 . S
Pr321 O342 2.436 . S
Pr321 O344 2.438 . S
Pr321 O346 2.562 . S
Pr321 O347 2.490 . S
Pr321 O348 2.695 . S
Pr321 O349 2.512 . S
Pr321 O351 2.437 . S
C322 Pr320 2.880 . S
C322 C323 1.491 . S
C322 O340 1.254 . S
C322 O341 1.225 . S
C323 C322 1.491 . S
C323 C324 1.392 . S
C323 C328 1.356 . S
C324 C323 1.392 . S
C324 C325 1.368 . S
C324 H352 0.929 . S
C325 C324 1.368 . S
C325 C326 1.386 . S
C325 H353 0.929 . S
C326 C325 1.386 . S
C326 C327 1.373 . S
C327 C326 1.373 . S
C327 C328 1.409 . S
C327 H354 0.931 . S
C328 C323 1.356 . S
C328 C327 1.409 . S
C328 H355 0.930 . S
C329 O342 1.270 . S
C329 O343 1.248 . S
C330 O344 1.267 . S
C330 O345 1.278 . S
C331 Pr321 2.880 . S
C331 C332 1.491 . S
C331 O346 1.254 . S
C331 O347 1.225 . S
C332 C331 1.491 . S
C332 C333 1.392 . S
C332 C337 1.356 . S
C333 C332 1.392 . S
C333 C334 1.368 . S
C333 H356 0.929 . S
C334 C333 1.368 . S
C334 C335 1.386 . S
C334 H357 0.929 . S
C335 C334 1.386 . S
C335 C336 1.373 . S
C336 C335 1.373 . S
C336 C337 1.409 . S
C336 H358 0.931 . S
C337 C332 1.356 . S
C337 C336 1.409 . S
C337 H359 0.930 . S
C338 O348 1.270 . S
C338 O349 1.248 . S
C339 O350 1.267 . S
C339 O351 1.278 . S
O340 Pr320 2.562 . S
O340 C322 1.254 . S
O341 Pr320 2.490 . S
O341 C322 1.225 . S
O342 Pr320 2.695 . S
O342 Pr321 2.436 . S
O342 C329 1.270 . S
O343 Pr320 2.512 . S
O343 C329 1.248 . S
O344 Pr321 2.438 . S
O344 C330 1.267 . S
O345 Pr320 2.437 . S
O345 C330 1.278 . S
O346 Pr321 2.562 . S
O346 C331 1.254 . S
O347 Pr321 2.490 . S
O347 C331 1.225 . S
O348 Pr320 2.436 . S
O348 Pr321 2.695 . S
O348 C338 1.270 . S
O349 Pr321 2.512 . S
O349 C338 1.248 . S
O350 Pr320 2.438 . S
O350 C339 1.267 . S
O351 Pr321 2.437 . S
O351 C339 1.278 . S
H352 C324 0.929 . S
H353 C325 0.929 . S
H354 C327 0.931 . S
H355 C328 0.930 . S
H356 C333 0.929 . S
H357 C334 0.929 . S
H358 C336 0.931 . S
H359 C337 0.930 . S
Pr360 C362 2.880 . S
Pr360 O380 2.562 . S
Pr360 O381 2.490 . S
Pr360 O382 2.695 . S
Pr360 O383 2.512 . S
Pr360 O385 2.437 . S
Pr360 O388 2.436 . S
Pr360 O390 2.438 . S
Pr361 C371 2.880 1_655 S
Pr361 O382 2.436 . S
Pr361 O384 2.438 . S
Pr361 O386 2.562 1_655 S
Pr361 O387 2.490 1_655 S
Pr361 O388 2.695 . S
Pr361 O389 2.512 . S
Pr361 O391 2.437 . S
C362 Pr360 2.880 . S
C362 C363 1.491 . S
C362 O380 1.254 . S
C362 O381 1.225 . S
C363 C362 1.491 . S
C363 C364 1.392 . S
C363 C368 1.356 . S
C364 C363 1.392 . S
C364 C365 1.368 . S
C364 H392 0.929 . S
C365 C364 1.368 . S
C365 C366 1.386 . S
C365 H393 0.929 . S
C366 C365 1.386 . S
C366 C367 1.373 . S
C367 C366 1.373 . S
C367 C368 1.409 . S
C367 H394 0.931 . S
C368 C363 1.356 . S
C368 C367 1.409 . S
C368 H395 0.930 . S
C369 O382 1.270 . S
C369 O383 1.248 . S
C370 O384 1.267 . S
C370 O385 1.278 . S
C371 Pr361 2.880 1_455 S
C371 C372 1.491 . S
C371 O386 1.254 . S
C371 O387 1.225 . S
C372 C371 1.491 . S
C372 C373 1.392 . S
C372 C377 1.356 . S
C373 C372 1.392 . S
C373 C374 1.368 . S
C373 H396 0.929 . S
C374 C373 1.368 . S
C374 C375 1.386 . S
C374 H397 0.929 . S
C375 C374 1.386 . S
C375 C376 1.373 . S
C376 C375 1.373 . S
C376 C377 1.409 . S
C376 H398 0.931 . S
C377 C372 1.356 . S
C377 C376 1.409 . S
C377 H399 0.930 . S
C378 O388 1.270 . S
C378 O389 1.248 . S
C379 O390 1.267 . S
C379 O391 1.278 . S
O380 Pr360 2.562 . S
O380 C362 1.254 . S
O381 Pr360 2.490 . S
O381 C362 1.225 . S
O382 Pr360 2.695 . S
O382 Pr361 2.436 . S
O382 C369 1.270 . S
O383 Pr360 2.512 . S
O383 C369 1.248 . S
O384 Pr361 2.438 . S
O384 C370 1.267 . S
O385 Pr360 2.437 . S
O385 C370 1.278 . S
O386 Pr361 2.562 1_455 S
O386 C371 1.254 . S
O387 Pr361 2.490 1_455 S
O387 C371 1.225 . S
O388 Pr360 2.436 . S
O388 Pr361 2.695 . S
O388 C378 1.270 . S
O389 Pr361 2.512 . S
O389 C378 1.248 . S
O390 Pr360 2.438 . S
O390 C379 1.267 . S
O391 Pr361 2.437 . S
O391 C379 1.278 . S
H392 C364 0.929 . S
H393 C365 0.929 . S
H394 C367 0.931 . S
H395 C368 0.930 . S
H396 C373 0.929 . S
H397 C374 0.929 . S
H398 C376 0.931 . S
H399 C377 0.930 . S
Pr400 C402 2.880 . S
Pr400 O420 2.562 . S
Pr400 O421 2.490 . S
Pr400 O422 2.695 . S
Pr400 O423 2.512 . S
Pr400 O425 2.437 . S
Pr400 O428 2.436 . S
Pr400 O430 2.438 . S
Pr401 C411 2.880 . S
Pr401 O422 2.436 . S
Pr401 O424 2.438 . S
Pr401 O426 2.562 . S
Pr401 O427 2.490 . S
Pr401 O428 2.695 . S
Pr401 O429 2.512 . S
Pr401 O431 2.437 . S
C402 Pr400 2.880 . S
C402 C403 1.491 . S
C402 O420 1.254 . S
C402 O421 1.225 . S
C403 C402 1.491 . S
C403 C404 1.392 . S
C403 C408 1.356 . S
C404 C403 1.392 . S
C404 C405 1.368 . S
C404 H432 0.929 . S
C405 C404 1.368 . S
C405 C406 1.386 . S
C405 H433 0.929 . S
C406 C405 1.386 . S
C406 C407 1.373 . S
C407 C406 1.373 . S
C407 C408 1.409 . S
C407 H434 0.931 . S
C408 C403 1.356 . S
C408 C407 1.409 . S
C408 H435 0.930 . S
C409 O422 1.270 . S
C409 O423 1.248 . S
C410 O424 1.267 . S
C410 O425 1.278 . S
C411 Pr401 2.880 . S
C411 C412 1.491 . S
C411 O426 1.254 . S
C411 O427 1.225 . S
C412 C411 1.491 . S
C412 C413 1.392 . S
C412 C417 1.356 . S
C413 C412 1.392 . S
C413 C414 1.368 . S
C413 H436 0.929 . S
C414 C413 1.368 . S
C414 C415 1.386 . S
C414 H437 0.929 . S
C415 C414 1.386 . S
C415 C416 1.373 . S
C416 C415 1.373 . S
C416 C417 1.409 . S
C416 H438 0.931 . S
C417 C412 1.356 . S
C417 C416 1.409 . S
C417 H439 0.930 . S
C418 O428 1.270 . S
C418 O429 1.248 . S
C419 O430 1.267 . S
C419 O431 1.278 . S
O420 Pr400 2.562 . S
O420 C402 1.254 . S
O421 Pr400 2.490 . S
O421 C402 1.225 . S
O422 Pr400 2.695 . S
O422 Pr401 2.436 . S
O422 C409 1.270 . S
O423 Pr400 2.512 . S
O423 C409 1.248 . S
O424 Pr401 2.438 . S
O424 C410 1.267 . S
O425 Pr400 2.437 . S
O425 C410 1.278 . S
O426 Pr401 2.562 . S
O426 C411 1.254 . S
O427 Pr401 2.490 . S
O427 C411 1.225 . S
O428 Pr400 2.436 . S
O428 Pr401 2.695 . S
O428 C418 1.270 . S
O429 Pr401 2.512 . S
O429 C418 1.248 . S
O430 Pr400 2.438 . S
O430 C419 1.267 . S
O431 Pr401 2.437 . S
O431 C419 1.278 . S
H432 C404 0.929 . S
H433 C405 0.929 . S
H434 C407 0.931 . S
H435 C408 0.930 . S
H436 C413 0.929 . S
H437 C414 0.929 . S
H438 C416 0.931 . S
H439 C417 0.930 . S
Pr440 C442 2.880 . S
Pr440 O460 2.562 . S
Pr440 O461 2.490 . S
Pr440 O462 2.695 . S
Pr440 O463 2.512 . S
Pr440 O465 2.437 . S
Pr440 O468 2.436 . S
Pr440 O470 2.438 . S
Pr441 C451 2.880 . S
Pr441 O462 2.436 . S
Pr441 O464 2.438 . S
Pr441 O466 2.562 . S
Pr441 O467 2.490 . S
Pr441 O468 2.695 . S
Pr441 O469 2.512 . S
Pr441 O471 2.437 . S
C442 Pr440 2.880 . S
C442 C443 1.491 . S
C442 O460 1.254 . S
C442 O461 1.225 . S
C443 C442 1.491 . S
C443 C444 1.392 . S
C443 C448 1.356 . S
C444 C443 1.392 . S
C444 C445 1.368 . S
C444 H472 0.929 . S
C445 C444 1.368 . S
C445 C446 1.386 . S
C445 H473 0.929 . S
C446 C445 1.386 . S
C446 C447 1.373 . S
C447 C446 1.373 . S
C447 C448 1.409 . S
C447 H474 0.931 . S
C448 C443 1.356 . S
C448 C447 1.409 . S
C448 H475 0.930 . S
C449 O462 1.270 . S
C449 O463 1.248 . S
C450 O464 1.267 . S
C450 O465 1.278 . S
C451 Pr441 2.880 . S
C451 C452 1.491 . S
C451 O466 1.254 . S
C451 O467 1.225 . S
C452 C451 1.491 . S
C452 C453 1.392 . S
C452 C457 1.356 . S
C453 C452 1.392 . S
C453 C454 1.368 . S
C453 H476 0.929 . S
C454 C453 1.368 . S
C454 C455 1.386 . S
C454 H477 0.929 . S
C455 C454 1.386 . S
C455 C456 1.373 . S
C456 C455 1.373 . S
C456 C457 1.409 . S
C456 H478 0.931 . S
C457 C452 1.356 . S
C457 C456 1.409 . S
C457 H479 0.930 . S
C458 O468 1.270 . S
C458 O469 1.248 . S
C459 O470 1.267 . S
C459 O471 1.278 . S
O460 Pr440 2.562 . S
O460 C442 1.254 . S
O461 Pr440 2.490 . S
O461 C442 1.225 . S
O462 Pr440 2.695 . S
O462 Pr441 2.436 . S
O462 C449 1.270 . S
O463 Pr440 2.512 . S
O463 C449 1.248 . S
O464 Pr441 2.438 . S
O464 C450 1.267 . S
O465 Pr440 2.437 . S
O465 C450 1.278 . S
O466 Pr441 2.562 . S
O466 C451 1.254 . S
O467 Pr441 2.490 . S
O467 C451 1.225 . S
O468 Pr440 2.436 . S
O468 Pr441 2.695 . S
O468 C458 1.270 . S
O469 Pr441 2.512 . S
O469 C458 1.248 . S
O470 Pr440 2.438 . S
O470 C459 1.267 . S
O471 Pr441 2.437 . S
O471 C459 1.278 . S
H472 C444 0.929 . S
H473 C445 0.929 . S
H474 C447 0.931 . S
H475 C448 0.930 . S
H476 C453 0.929 . S
H477 C454 0.929 . S
H478 C456 0.931 . S
H479 C457 0.930 . S
Pr480 C482 2.880 . S
Pr480 O500 2.562 . S
Pr480 O501 2.490 . S
Pr480 O502 2.695 . S
Pr480 O503 2.512 . S
Pr480 O505 2.437 . S
Pr480 O508 2.436 . S
Pr480 O510 2.438 . S
Pr481 C491 2.880 . S
Pr481 O502 2.436 . S
Pr481 O504 2.438 . S
Pr481 O506 2.562 . S
Pr481 O507 2.490 . S
Pr481 O508 2.695 . S
Pr481 O509 2.512 . S
Pr481 O511 2.437 . S
C482 Pr480 2.880 . S
C482 C483 1.491 . S
C482 O500 1.254 . S
C482 O501 1.225 . S
C483 C482 1.491 . S
C483 C484 1.392 . S
C483 C488 1.356 . S
C484 C483 1.392 . S
C484 C485 1.368 . S
C484 H512 0.929 . S
C485 C484 1.368 . S
C485 C486 1.386 . S
C485 H513 0.929 . S
C486 C485 1.386 . S
C486 C487 1.373 . S
C487 C486 1.373 . S
C487 C488 1.409 . S
C487 H514 0.931 . S
C488 C483 1.356 . S
C488 C487 1.409 . S
C488 H515 0.930 . S
C489 O502 1.270 . S
C489 O503 1.248 . S
C490 O504 1.267 . S
C490 O505 1.278 . S
C491 Pr481 2.880 . S
C491 C492 1.491 . S
C491 O506 1.254 . S
C491 O507 1.225 . S
C492 C491 1.491 . S
C492 C493 1.392 . S
C492 C497 1.356 . S
C493 C492 1.392 . S
C493 C494 1.368 . S
C493 H516 0.929 . S
C494 C493 1.368 . S
C494 C495 1.386 . S
C494 H517 0.929 . S
C495 C494 1.386 . S
C495 C496 1.373 . S
C496 C495 1.373 . S
C496 C497 1.409 . S
C496 H518 0.931 . S
C497 C492 1.356 . S
C497 C496 1.409 . S
C497 H519 0.930 . S
C498 O508 1.270 . S
C498 O509 1.248 . S
C499 O510 1.267 . S
C499 O511 1.278 . S
O500 Pr480 2.562 . S
O500 C482 1.254 . S
O501 Pr480 2.490 . S
O501 C482 1.225 . S
O502 Pr480 2.695 . S
O502 Pr481 2.436 . S
O502 C489 1.270 . S
O503 Pr480 2.512 . S
O503 C489 1.248 . S
O504 Pr481 2.438 . S
O504 C490 1.267 . S
O505 Pr480 2.437 . S
O505 C490 1.278 . S
O506 Pr481 2.562 . S
O506 C491 1.254 . S
O507 Pr481 2.490 . S
O507 C491 1.225 . S
O508 Pr480 2.436 . S
O508 Pr481 2.695 . S
O508 C498 1.270 . S
O509 Pr481 2.512 . S
O509 C498 1.248 . S
O510 Pr480 2.438 . S
O510 C499 1.267 . S
O511 Pr481 2.437 . S
O511 C499 1.278 . S
H512 C484 0.929 . S
H513 C485 0.929 . S
H514 C487 0.931 . S
H515 C488 0.930 . S
H516 C493 0.929 . S
H517 C494 0.929 . S
H518 C496 0.931 . S
H519 C497 0.930 . S
Pr520 C522 2.880 . S
Pr520 O540 2.562 . S
Pr520 O541 2.490 . S
Pr520 O542 2.695 . S
Pr520 O543 2.512 . S
Pr520 O545 2.437 . S
Pr520 O548 2.436 . S
Pr520 O550 2.438 . S
Pr521 C531 2.880 . S
Pr521 O542 2.436 . S
Pr521 O544 2.438 . S
Pr521 O546 2.562 . S
Pr521 O547 2.490 . S
Pr521 O548 2.695 . S
Pr521 O549 2.512 . S
Pr521 O551 2.437 . S
C522 Pr520 2.880 . S
C522 C523 1.491 . S
C522 O540 1.254 . S
C522 O541 1.225 . S
C523 C522 1.491 . S
C523 C524 1.392 . S
C523 C528 1.356 . S
C524 C523 1.392 . S
C524 C525 1.368 . S
C524 H552 0.929 . S
C525 C524 1.368 . S
C525 C526 1.386 . S
C525 H553 0.929 . S
C526 C525 1.386 . S
C526 C527 1.373 . S
C527 C526 1.373 . S
C527 C528 1.409 . S
C527 H554 0.931 . S
C528 C523 1.356 . S
C528 C527 1.409 . S
C528 H555 0.930 . S
C529 O542 1.270 . S
C529 O543 1.248 . S
C530 O544 1.267 . S
C530 O545 1.278 . S
C531 Pr521 2.880 . S
C531 C532 1.491 . S
C531 O546 1.254 . S
C531 O547 1.225 . S
C532 C531 1.491 . S
C532 C533 1.392 . S
C532 C537 1.356 . S
C533 C532 1.392 . S
C533 C534 1.368 . S
C533 H556 0.929 . S
C534 C533 1.368 . S
C534 C535 1.386 . S
C534 H557 0.929 . S
C535 C534 1.386 . S
C535 C536 1.373 . S
C536 C535 1.373 . S
C536 C537 1.409 . S
C536 H558 0.931 . S
C537 C532 1.356 . S
C537 C536 1.409 . S
C537 H559 0.930 . S
C538 O548 1.270 . S
C538 O549 1.248 . S
C539 O550 1.267 . S
C539 O551 1.278 . S
O540 Pr520 2.562 . S
O540 C522 1.254 . S
O541 Pr520 2.490 . S
O541 C522 1.225 . S
O542 Pr520 2.695 . S
O542 Pr521 2.436 . S
O542 C529 1.270 . S
O543 Pr520 2.512 . S
O543 C529 1.248 . S
O544 Pr521 2.438 . S
O544 C530 1.267 . S
O545 Pr520 2.437 . S
O545 C530 1.278 . S
O546 Pr521 2.562 . S
O546 C531 1.254 . S
O547 Pr521 2.490 . S
O547 C531 1.225 . S
O548 Pr520 2.436 . S
O548 Pr521 2.695 . S
O548 C538 1.270 . S
O549 Pr521 2.512 . S
O549 C538 1.248 . S
O550 Pr520 2.438 . S
O550 C539 1.267 . S
O551 Pr521 2.437 . S
O551 C539 1.278 . S
H552 C524 0.929 . S
H553 C525 0.929 . S
H554 C527 0.931 . S
H555 C528 0.930 . S
H556 C533 0.929 . S
H557 C534 0.929 . S
H558 C536 0.931 . S
H559 C537 0.930 . S
Pr560 C562 2.880 . S
Pr560 O580 2.562 . S
Pr560 O581 2.490 . S
Pr560 O582 2.695 . S
Pr560 O583 2.512 . S
Pr560 O585 2.437 . S
Pr560 O588 2.436 . S
Pr560 O590 2.438 . S
Pr561 C571 2.880 . S
Pr561 O582 2.436 . S
Pr561 O584 2.438 . S
Pr561 O586 2.562 . S
Pr561 O587 2.490 . S
Pr561 O588 2.695 . S
Pr561 O589 2.512 . S
Pr561 O591 2.437 . S
C562 Pr560 2.880 . S
C562 C563 1.491 . S
C562 O580 1.254 . S
C562 O581 1.225 . S
C563 C562 1.491 . S
C563 C564 1.392 . S
C563 C568 1.356 . S
C564 C563 1.392 . S
C564 C565 1.368 . S
C564 H592 0.929 . S
C565 C564 1.368 . S
C565 C566 1.386 . S
C565 H593 0.929 . S
C566 C565 1.386 . S
C566 C567 1.373 . S
C567 C566 1.373 . S
C567 C568 1.409 . S
C567 H594 0.931 . S
C568 C563 1.356 . S
C568 C567 1.409 . S
C568 H595 0.930 . S
C569 O582 1.270 . S
C569 O583 1.248 . S
C570 O584 1.267 . S
C570 O585 1.278 . S
C571 Pr561 2.880 . S
C571 C572 1.491 . S
C571 O586 1.254 . S
C571 O587 1.225 . S
C572 C571 1.491 . S
C572 C573 1.392 . S
C572 C577 1.356 . S
C573 C572 1.392 . S
C573 C574 1.368 . S
C573 H596 0.929 . S
C574 C573 1.368 . S
C574 C575 1.386 . S
C574 H597 0.929 . S
C575 C574 1.386 . S
C575 C576 1.373 . S
C576 C575 1.373 . S
C576 C577 1.409 . S
C576 H598 0.931 . S
C577 C572 1.356 . S
C577 C576 1.409 . S
C577 H599 0.930 . S
C578 O588 1.270 . S
C578 O589 1.248 . S
C579 O590 1.267 . S
C579 O591 1.278 . S
O580 Pr560 2.562 . S
O580 C562 1.254 . S
O581 Pr560 2.490 . S
O581 C562 1.225 . S
O582 Pr560 2.695 . S
O582 Pr561 2.436 . S
O582 C569 1.270 . S
O583 Pr560 2.512 . S
O583 C569 1.248 . S
O584 Pr561 2.438 . S
O584 C570 1.267 . S
O585 Pr560 2.437 . S
O585 C570 1.278 . S
O586 Pr561 2.562 . S
O586 C571 1.254 . S
O587 Pr561 2.490 . S
O587 C571 1.225 . S
O588 Pr560 2.436 . S
O588 Pr561 2.695 . S
O588 C578 1.270 . S
O589 Pr561 2.512 . S
O589 C578 1.248 . S
O590 Pr560 2.438 . S
O590 C579 1.267 . S
O591 Pr561 2.437 . S
O591 C579 1.278 . S
H592 C564 0.929 . S
H593 C565 0.929 . S
H594 C567 0.931 . S
H595 C568 0.930 . S
H596 C573 0.929 . S
H597 C574 0.929 . S
H598 C576 0.931 . S
H599 C577 0.930 . S
Pr600 C602 2.880 . S
Pr600 O620 2.562 . S
Pr600 O621 2.490 . S
Pr600 O622 2.695 . S
Pr600 O623 2.512 . S
Pr600 O625 2.437 . S
Pr600 O628 2.436 . S
Pr600 O630 2.438 . S
Pr601 C611 2.880 1_655 S
Pr601 O622 2.436 . S
Pr601 O624 2.438 . S
Pr601 O626 2.562 1_655 S
Pr601 O627 2.490 1_655 S
Pr601 O628 2.695 . S
Pr601 O629 2.512 . S
Pr601 O631 2.437 . S
C602 Pr600 2.880 . S
C602 C603 1.491 . S
C602 O620 1.254 . S
C602 O621 1.225 . S
C603 C602 1.491 . S
C603 C604 1.392 . S
C603 C608 1.356 . S
C604 C603 1.392 . S
C604 C605 1.368 . S
C604 H632 0.929 . S
C605 C604 1.368 . S
C605 C606 1.386 . S
C605 H633 0.929 . S
C606 C605 1.386 . S
C606 C607 1.373 . S
C607 C606 1.373 . S
C607 C608 1.409 . S
C607 H634 0.931 . S
C608 C603 1.356 . S
C608 C607 1.409 . S
C608 H635 0.930 . S
C609 O622 1.270 . S
C609 O623 1.248 . S
C610 O624 1.267 . S
C610 O625 1.278 . S
C611 Pr601 2.880 1_455 S
C611 C612 1.491 . S
C611 O626 1.254 . S
C611 O627 1.225 . S
C612 C611 1.491 . S
C612 C613 1.392 . S
C612 C617 1.356 . S
C613 C612 1.392 . S
C613 C614 1.368 . S
C613 H636 0.929 . S
C614 C613 1.368 . S
C614 C615 1.386 . S
C614 H637 0.929 . S
C615 C614 1.386 . S
C615 C616 1.373 . S
C616 C615 1.373 . S
C616 C617 1.409 . S
C616 H638 0.931 . S
C617 C612 1.356 . S
C617 C616 1.409 . S
C617 H639 0.930 . S
C618 O628 1.270 . S
C618 O629 1.248 . S
C619 O630 1.267 . S
C619 O631 1.278 . S
O620 Pr600 2.562 . S
O620 C602 1.254 . S
O621 Pr600 2.490 . S
O621 C602 1.225 . S
O622 Pr600 2.695 . S
O622 Pr601 2.436 . S
O622 C609 1.270 . S
O623 Pr600 2.512 . S
O623 C609 1.248 . S
O624 Pr601 2.438 . S
O624 C610 1.267 . S
O625 Pr600 2.437 . S
O625 C610 1.278 . S
O626 Pr601 2.562 1_455 S
O626 C611 1.254 . S
O627 Pr601 2.490 1_455 S
O627 C611 1.225 . S
O628 Pr600 2.436 . S
O628 Pr601 2.695 . S
O628 C618 1.270 . S
O629 Pr601 2.512 . S
O629 C618 1.248 . S
O630 Pr600 2.438 . S
O630 C619 1.267 . S
O631 Pr601 2.437 . S
O631 C619 1.278 . S
H632 C604 0.929 . S
H633 C605 0.929 . S
H634 C607 0.931 . S
H635 C608 0.930 . S
H636 C613 0.929 . S
H637 C614 0.929 . S
H638 C616 0.931 . S
H639 C617 0.930 . S
Pr640 C642 2.880 . S
Pr640 O660 2.562 . S
Pr640 O661 2.490 . S
Pr640 O662 2.695 . S
Pr640 O663 2.512 . S
Pr640 O665 2.437 . S
Pr640 O668 2.436 . S
Pr640 O670 2.438 . S
Pr641 C651 2.880 . S
Pr641 O662 2.436 . S
Pr641 O664 2.438 . S
Pr641 O666 2.562 . S
Pr641 O667 2.490 . S
Pr641 O668 2.695 . S
Pr641 O669 2.512 . S
Pr641 O671 2.437 . S
C642 Pr640 2.880 . S
C642 C643 1.491 . S
C642 O660 1.254 . S
C642 O661 1.225 . S
C643 C642 1.491 . S
C643 C644 1.392 . S
C643 C648 1.356 . S
C644 C643 1.392 . S
C644 C645 1.368 . S
C644 H672 0.929 . S
C645 C644 1.368 . S
C645 C646 1.386 . S
C645 H673 0.929 . S
C646 C645 1.386 . S
C646 C647 1.373 . S
C647 C646 1.373 . S
C647 C648 1.409 . S
C647 H674 0.931 . S
C648 C643 1.356 . S
C648 C647 1.409 . S
C648 H675 0.930 . S
C649 O662 1.270 . S
C649 O663 1.248 . S
C650 O664 1.267 . S
C650 O665 1.278 . S
C651 Pr641 2.880 . S
C651 C652 1.491 . S
C651 O666 1.254 . S
C651 O667 1.225 . S
C652 C651 1.491 . S
C652 C653 1.392 . S
C652 C657 1.356 . S
C653 C652 1.392 . S
C653 C654 1.368 . S
C653 H676 0.929 . S
C654 C653 1.368 . S
C654 C655 1.386 . S
C654 H677 0.929 . S
C655 C654 1.386 . S
C655 C656 1.373 . S
C656 C655 1.373 . S
C656 C657 1.409 . S
C656 H678 0.931 . S
C657 C652 1.356 . S
C657 C656 1.409 . S
C657 H679 0.930 . S
C658 O668 1.270 . S
C658 O669 1.248 . S
C659 O670 1.267 . S
C659 O671 1.278 . S
O660 Pr640 2.562 . S
O660 C642 1.254 . S
O661 Pr640 2.490 . S
O661 C642 1.225 . S
O662 Pr640 2.695 . S
O662 Pr641 2.436 . S
O662 C649 1.270 . S
O663 Pr640 2.512 . S
O663 C649 1.248 . S
O664 Pr641 2.438 . S
O664 C650 1.267 . S
O665 Pr640 2.437 . S
O665 C650 1.278 . S
O666 Pr641 2.562 . S
O666 C651 1.254 . S
O667 Pr641 2.490 . S
O667 C651 1.225 . S
O668 Pr640 2.436 . S
O668 Pr641 2.695 . S
O668 C658 1.270 . S
O669 Pr641 2.512 . S
O669 C658 1.248 . S
O670 Pr640 2.438 . S
O670 C659 1.267 . S
O671 Pr641 2.437 . S
O671 C659 1.278 . S
H672 C644 0.929 . S
H673 C645 0.929 . S
H674 C647 0.931 . S
H675 C648 0.930 . S
H676 C653 0.929 . S
H677 C654 0.929 . S
H678 C656 0.931 . S
H679 C657 0.930 . S
Pr680 C682 2.880 . S
Pr680 O700 2.562 . S
Pr680 O701 2.490 . S
Pr680 O702 2.695 . S
Pr680 O703 2.512 . S
Pr680 O705 2.437 . S
Pr680 O708 2.436 . S
Pr680 O710 2.438 . S
Pr681 C691 2.880 . S
Pr681 O702 2.436 . S
Pr681 O704 2.438 . S
Pr681 O706 2.562 . S
Pr681 O707 2.490 . S
Pr681 O708 2.695 . S
Pr681 O709 2.512 . S
Pr681 O711 2.437 . S
C682 Pr680 2.880 . S
C682 C683 1.491 . S
C682 O700 1.254 . S
C682 O701 1.225 . S
C683 C682 1.491 . S
C683 C684 1.392 . S
C683 C688 1.356 . S
C684 C683 1.392 . S
C684 C685 1.368 . S
C684 H712 0.929 . S
C685 C684 1.368 . S
C685 C686 1.386 . S
C685 H713 0.929 . S
C686 C685 1.386 . S
C686 C687 1.373 . S
C687 C686 1.373 . S
C687 C688 1.409 . S
C687 H714 0.931 . S
C688 C683 1.356 . S
C688 C687 1.409 . S
C688 H715 0.930 . S
C689 O702 1.270 . S
C689 O703 1.248 . S
C690 O704 1.267 . S
C690 O705 1.278 . S
C691 Pr681 2.880 . S
C691 C692 1.491 . S
C691 O706 1.254 . S
C691 O707 1.225 . S
C692 C691 1.491 . S
C692 C693 1.392 . S
C692 C697 1.356 . S
C693 C692 1.392 . S
C693 C694 1.368 . S
C693 H716 0.929 . S
C694 C693 1.368 . S
C694 C695 1.386 . S
C694 H717 0.929 . S
C695 C694 1.386 . S
C695 C696 1.373 . S
C696 C695 1.373 . S
C696 C697 1.409 . S
C696 H718 0.931 . S
C697 C692 1.356 . S
C697 C696 1.409 . S
C697 H719 0.930 . S
C698 O708 1.270 . S
C698 O709 1.248 . S
C699 O710 1.267 . S
C699 O711 1.278 . S
O700 Pr680 2.562 . S
O700 C682 1.254 . S
O701 Pr680 2.490 . S
O701 C682 1.225 . S
O702 Pr680 2.695 . S
O702 Pr681 2.436 . S
O702 C689 1.270 . S
O703 Pr680 2.512 . S
O703 C689 1.248 . S
O704 Pr681 2.438 . S
O704 C690 1.267 . S
O705 Pr680 2.437 . S
O705 C690 1.278 . S
O706 Pr681 2.562 . S
O706 C691 1.254 . S
O707 Pr681 2.490 . S
O707 C691 1.225 . S
O708 Pr680 2.436 . S
O708 Pr681 2.695 . S
O708 C698 1.270 . S
O709 Pr681 2.512 . S
O709 C698 1.248 . S
O710 Pr680 2.438 . S
O710 C699 1.267 . S
O711 Pr681 2.437 . S
O711 C699 1.278 . S
H712 C684 0.929 . S
H713 C685 0.929 . S
H714 C687 0.931 . S
H715 C688 0.930 . S
H716 C693 0.929 . S
H717 C694 0.929 . S
H718 C696 0.931 . S
H719 C697 0.930 . S
Pr720 C722 2.880 . S
Pr720 O740 2.562 . S
Pr720 O741 2.490 . S
Pr720 O742 2.695 . S
Pr720 O743 2.512 . S
Pr720 O745 2.437 . S
Pr720 O748 2.436 . S
Pr720 O750 2.438 . S
Pr721 C731 2.880 . S
Pr721 O742 2.436 . S
Pr721 O744 2.438 . S
Pr721 O746 2.562 . S
Pr721 O747 2.490 . S
Pr721 O748 2.695 . S
Pr721 O749 2.512 . S
Pr721 O751 2.437 . S
C722 Pr720 2.880 . S
C722 C723 1.491 . S
C722 O740 1.254 . S
C722 O741 1.225 . S
C723 C722 1.491 . S
C723 C724 1.392 . S
C723 C728 1.356 . S
C724 C723 1.392 . S
C724 C725 1.368 . S
C724 H752 0.929 . S
C725 C724 1.368 . S
C725 C726 1.386 . S
C725 H753 0.929 . S
C726 C725 1.386 . S
C726 C727 1.373 . S
C727 C726 1.373 . S
C727 C728 1.409 . S
C727 H754 0.931 . S
C728 C723 1.356 . S
C728 C727 1.409 . S
C728 H755 0.930 . S
C729 O742 1.270 . S
C729 O743 1.248 . S
C730 O744 1.267 . S
C730 O745 1.278 . S
C731 Pr721 2.880 . S
C731 C732 1.491 . S
C731 O746 1.254 . S
C731 O747 1.225 . S
C732 C731 1.491 . S
C732 C733 1.392 . S
C732 C737 1.356 . S
C733 C732 1.392 . S
C733 C734 1.368 . S
C733 H756 0.929 . S
C734 C733 1.368 . S
C734 C735 1.386 . S
C734 H757 0.929 . S
C735 C734 1.386 . S
C735 C736 1.373 . S
C736 C735 1.373 . S
C736 C737 1.409 . S
C736 H758 0.931 . S
C737 C732 1.356 . S
C737 C736 1.409 . S
C737 H759 0.930 . S
C738 O748 1.270 . S
C738 O749 1.248 . S
C739 O750 1.267 . S
C739 O751 1.278 . S
O740 Pr720 2.562 . S
O740 C722 1.254 . S
O741 Pr720 2.490 . S
O741 C722 1.225 . S
O742 Pr720 2.695 . S
O742 Pr721 2.436 . S
O742 C729 1.270 . S
O743 Pr720 2.512 . S
O743 C729 1.248 . S
O744 Pr721 2.438 . S
O744 C730 1.267 . S
O745 Pr720 2.437 . S
O745 C730 1.278 . S
O746 Pr721 2.562 . S
O746 C731 1.254 . S
O747 Pr721 2.490 . S
O747 C731 1.225 . S
O748 Pr720 2.436 . S
O748 Pr721 2.695 . S
O748 C738 1.270 . S
O749 Pr721 2.512 . S
O749 C738 1.248 . S
O750 Pr720 2.438 . S
O750 C739 1.267 . S
O751 Pr721 2.437 . S
O751 C739 1.278 . S
H752 C724 0.929 . S
H753 C725 0.929 . S
H754 C727 0.931 . S
H755 C728 0.930 . S
H756 C733 0.929 . S
H757 C734 0.929 . S
H758 C736 0.931 . S
H759 C737 0.930 . S
Pr760 C762 2.880 1_655 S
Pr760 O780 2.562 1_655 S
Pr760 O781 2.490 1_655 S
Pr760 O782 2.695 . S
Pr760 O783 2.512 . S
Pr760 O785 2.437 . S
Pr760 O788 2.436 . S
Pr760 O790 2.438 . S
Pr761 C771 2.880 . S
Pr761 O782 2.436 . S
Pr761 O784 2.438 . S
Pr761 O786 2.562 . S
Pr761 O787 2.490 . S
Pr761 O788 2.695 . S
Pr761 O789 2.512 . S
Pr761 O791 2.437 . S
C762 Pr760 2.880 1_455 S
C762 C763 1.491 . S
C762 O780 1.254 . S
C762 O781 1.225 . S
C763 C762 1.491 . S
C763 C764 1.392 . S
C763 C768 1.356 . S
C764 C763 1.392 . S
C764 C765 1.368 . S
C764 H792 0.929 . S
C765 C764 1.368 . S
C765 C766 1.386 . S
C765 H793 0.929 . S
C766 C765 1.386 . S
C766 C767 1.373 . S
C767 C766 1.373 . S
C767 C768 1.409 . S
C767 H794 0.931 . S
C768 C763 1.356 . S
C768 C767 1.409 . S
C768 H795 0.930 . S
C769 O782 1.270 . S
C769 O783 1.248 . S
C770 O784 1.267 . S
C770 O785 1.278 . S
C771 Pr761 2.880 . S
C771 C772 1.491 . S
C771 O786 1.254 . S
C771 O787 1.225 . S
C772 C771 1.491 . S
C772 C773 1.392 . S
C772 C777 1.356 . S
C773 C772 1.392 . S
C773 C774 1.368 . S
C773 H796 0.929 . S
C774 C773 1.368 . S
C774 C775 1.386 . S
C774 H797 0.929 . S
C775 C774 1.386 . S
C775 C776 1.373 . S
C776 C775 1.373 . S
C776 C777 1.409 . S
C776 H798 0.931 . S
C777 C772 1.356 . S
C777 C776 1.409 . S
C777 H799 0.930 . S
C778 O788 1.270 . S
C778 O789 1.248 . S
C779 O790 1.267 . S
C779 O791 1.278 . S
O780 Pr760 2.562 1_455 S
O780 C762 1.254 . S
O781 Pr760 2.490 1_455 S
O781 C762 1.225 . S
O782 Pr760 2.695 . S
O782 Pr761 2.436 . S
O782 C769 1.270 . S
O783 Pr760 2.512 . S
O783 C769 1.248 . S
O784 Pr761 2.438 . S
O784 C770 1.267 . S
O785 Pr760 2.437 . S
O785 C770 1.278 . S
O786 Pr761 2.562 . S
O786 C771 1.254 . S
O787 Pr761 2.490 . S
O787 C771 1.225 . S
O788 Pr760 2.436 . S
O788 Pr761 2.695 . S
O788 C778 1.270 . S
O789 Pr761 2.512 . S
O789 C778 1.248 . S
O790 Pr760 2.438 . S
O790 C779 1.267 . S
O791 Pr761 2.437 . S
O791 C779 1.278 . S
H792 C764 0.929 . S
H793 C765 0.929 . S
H794 C767 0.931 . S
H795 C768 0.930 . S
H796 C773 0.929 . S
H797 C774 0.929 . S
H798 C776 0.931 . S
H799 C777 0.930 . S
Pr800 C802 2.880 . S
Pr800 O820 2.562 . S
Pr800 O821 2.490 . S
Pr800 O822 2.695 . S
Pr800 O823 2.512 . S
Pr800 O825 2.437 . S
Pr800 O828 2.436 . S
Pr800 O830 2.438 . S
Pr801 C811 2.880 . S
Pr801 O822 2.436 . S
Pr801 O824 2.438 . S
Pr801 O826 2.562 . S
Pr801 O827 2.490 . S
Pr801 O828 2.695 . S
Pr801 O829 2.512 . S
Pr801 O831 2.437 . S
C802 Pr800 2.880 . S
C802 C803 1.491 . S
C802 O820 1.254 . S
C802 O821 1.225 . S
C803 C802 1.491 . S
C803 C804 1.392 . S
C803 C808 1.356 . S
C804 C803 1.392 . S
C804 C805 1.368 . S
C804 H832 0.929 . S
C805 C804 1.368 . S
C805 C806 1.386 . S
C805 H833 0.929 . S
C806 C805 1.386 . S
C806 C807 1.373 . S
C807 C806 1.373 . S
C807 C808 1.409 . S
C807 H834 0.931 . S
C808 C803 1.356 . S
C808 C807 1.409 . S
C808 H835 0.930 . S
C809 O822 1.270 . S
C809 O823 1.248 . S
C810 O824 1.267 . S
C810 O825 1.278 . S
C811 Pr801 2.880 . S
C811 C812 1.491 . S
C811 O826 1.254 . S
C811 O827 1.225 . S
C812 C811 1.491 . S
C812 C813 1.392 . S
C812 C817 1.356 . S
C813 C812 1.392 . S
C813 C814 1.368 . S
C813 H836 0.929 . S
C814 C813 1.368 . S
C814 C815 1.386 . S
C814 H837 0.929 . S
C815 C814 1.386 . S
C815 C816 1.373 . S
C816 C815 1.373 . S
C816 C817 1.409 . S
C816 H838 0.931 . S
C817 C812 1.356 . S
C817 C816 1.409 . S
C817 H839 0.930 . S
C818 O828 1.270 . S
C818 O829 1.248 . S
C819 O830 1.267 . S
C819 O831 1.278 . S
O820 Pr800 2.562 . S
O820 C802 1.254 . S
O821 Pr800 2.490 . S
O821 C802 1.225 . S
O822 Pr800 2.695 . S
O822 Pr801 2.436 . S
O822 C809 1.270 . S
O823 Pr800 2.512 . S
O823 C809 1.248 . S
O824 Pr801 2.438 . S
O824 C810 1.267 . S
O825 Pr800 2.437 . S
O825 C810 1.278 . S
O826 Pr801 2.562 . S
O826 C811 1.254 . S
O827 Pr801 2.490 . S
O827 C811 1.225 . S
O828 Pr800 2.436 . S
O828 Pr801 2.695 . S
O828 C818 1.270 . S
O829 Pr801 2.512 . S
O829 C818 1.248 . S
O830 Pr800 2.438 . S
O830 C819 1.267 . S
O831 Pr801 2.437 . S
O831 C819 1.278 . S
H832 C804 0.929 . S
H833 C805 0.929 . S
H834 C807 0.931 . S
H835 C808 0.930 . S
H836 C813 0.929 . S
H837 C814 0.929 . S
H838 C816 0.931 . S
H839 C817 0.930 . S
Pr840 C842 2.880 1_655 S
Pr840 O860 2.562 1_655 S
Pr840 O861 2.490 1_655 S
Pr840 O862 2.695 . S
Pr840 O863 2.512 . S
Pr840 O865 2.437 . S
Pr840 O868 2.436 . S
Pr840 O870 2.438 . S
Pr841 C851 2.880 . S
Pr841 O862 2.436 . S
Pr841 O864 2.438 . S
Pr841 O866 2.562 . S
Pr841 O867 2.490 . S
Pr841 O868 2.695 . S
Pr841 O869 2.512 . S
Pr841 O871 2.437 . S
C842 Pr840 2.880 1_455 S
C842 C843 1.491 . S
C842 O860 1.254 . S
C842 O861 1.225 . S
C843 C842 1.491 . S
C843 C844 1.392 . S
C843 C848 1.356 . S
C844 C843 1.392 . S
C844 C845 1.368 . S
C844 H872 0.929 . S
C845 C844 1.368 . S
C845 C846 1.386 . S
C845 H873 0.929 . S
C846 C845 1.386 . S
C846 C847 1.373 . S
C847 C846 1.373 . S
C847 C848 1.409 . S
C847 H874 0.931 . S
C848 C843 1.356 . S
C848 C847 1.409 . S
C848 H875 0.930 . S
C849 O862 1.270 . S
C849 O863 1.248 . S
C850 O864 1.267 . S
C850 O865 1.278 . S
C851 Pr841 2.880 . S
C851 C852 1.491 . S
C851 O866 1.254 . S
C851 O867 1.225 . S
C852 C851 1.491 . S
C852 C853 1.392 . S
C852 C857 1.356 . S
C853 C852 1.392 . S
C853 C854 1.368 . S
C853 H876 0.929 . S
C854 C853 1.368 . S
C854 C855 1.386 . S
C854 H877 0.929 . S
C855 C854 1.386 . S
C855 C856 1.373 . S
C856 C855 1.373 . S
C856 C857 1.409 . S
C856 H878 0.931 . S
C857 C852 1.356 . S
C857 C856 1.409 . S
C857 H879 0.930 . S
C858 O868 1.270 . S
C858 O869 1.248 . S
C859 O870 1.267 . S
C859 O871 1.278 . S
O860 Pr840 2.562 1_455 S
O860 C842 1.254 . S
O861 Pr840 2.490 1_455 S
O861 C842 1.225 . S
O862 Pr840 2.695 . S
O862 Pr841 2.436 . S
O862 C849 1.270 . S
O863 Pr840 2.512 . S
O863 C849 1.248 . S
O864 Pr841 2.438 . S
O864 C850 1.267 . S
O865 Pr840 2.437 . S
O865 C850 1.278 . S
O866 Pr841 2.562 . S
O866 C851 1.254 . S
O867 Pr841 2.490 . S
O867 C851 1.225 . S
O868 Pr840 2.436 . S
O868 Pr841 2.695 . S
O868 C858 1.270 . S
O869 Pr841 2.512 . S
O869 C858 1.248 . S
O870 Pr840 2.438 . S
O870 C859 1.267 . S
O871 Pr841 2.437 . S
O871 C859 1.278 . S
H872 C844 0.929 . S
H873 C845 0.929 . S
H874 C847 0.931 . S
H875 C848 0.930 . S
H876 C853 0.929 . S
H877 C854 0.929 . S
H878 C856 0.931 . S
H879 C857 0.930 . S
Pr880 C882 2.880 . S
Pr880 O900 2.562 . S
Pr880 O901 2.490 . S
Pr880 O902 2.695 . S
Pr880 O903 2.512 . S
Pr880 O905 2.437 . S
Pr880 O908 2.436 . S
Pr880 O910 2.438 . S
Pr881 C891 2.880 . S
Pr881 O902 2.436 . S
Pr881 O904 2.438 . S
Pr881 O906 2.562 . S
Pr881 O907 2.490 . S
Pr881 O908 2.695 . S
Pr881 O909 2.512 . S
Pr881 O911 2.437 . S
C882 Pr880 2.880 . S
C882 C883 1.491 . S
C882 O900 1.254 . S
C882 O901 1.225 . S
C883 C882 1.491 . S
C883 C884 1.392 . S
C883 C888 1.356 . S
C884 C883 1.392 . S
C884 C885 1.368 . S
C884 H912 0.929 . S
C885 C884 1.368 . S
C885 C886 1.386 . S
C885 H913 0.929 . S
C886 C885 1.386 . S
C886 C887 1.373 . S
C887 C886 1.373 . S
C887 C888 1.409 . S
C887 H914 0.931 . S
C888 C883 1.356 . S
C888 C887 1.409 . S
C888 H915 0.930 . S
C889 O902 1.270 . S
C889 O903 1.248 . S
C890 O904 1.267 . S
C890 O905 1.278 . S
C891 Pr881 2.880 . S
C891 C892 1.491 . S
C891 O906 1.254 . S
C891 O907 1.225 . S
C892 C891 1.491 . S
C892 C893 1.392 . S
C892 C897 1.356 . S
C893 C892 1.392 . S
C893 C894 1.368 . S
C893 H916 0.929 . S
C894 C893 1.368 . S
C894 C895 1.386 . S
C894 H917 0.929 . S
C895 C894 1.386 . S
C895 C896 1.373 . S
C896 C895 1.373 . S
C896 C897 1.409 . S
C896 H918 0.931 . S
C897 C892 1.356 . S
C897 C896 1.409 . S
C897 H919 0.930 . S
C898 O908 1.270 . S
C898 O909 1.248 . S
C899 O910 1.267 . S
C899 O911 1.278 . S
O900 Pr880 2.562 . S
O900 C882 1.254 . S
O901 Pr880 2.490 . S
O901 C882 1.225 . S
O902 Pr880 2.695 . S
O902 Pr881 2.436 . S
O902 C889 1.270 . S
O903 Pr880 2.512 . S
O903 C889 1.248 . S
O904 Pr881 2.438 . S
O904 C890 1.267 . S
O905 Pr880 2.437 . S
O905 C890 1.278 . S
O906 Pr881 2.562 . S
O906 C891 1.254 . S
O907 Pr881 2.490 . S
O907 C891 1.225 . S
O908 Pr880 2.436 . S
O908 Pr881 2.695 . S
O908 C898 1.270 . S
O909 Pr881 2.512 . S
O909 C898 1.248 . S
O910 Pr880 2.438 . S
O910 C899 1.267 . S
O911 Pr881 2.437 . S
O911 C899 1.278 . S
H912 C884 0.929 . S
H913 C885 0.929 . S
H914 C887 0.931 . S
H915 C888 0.930 . S
H916 C893 0.929 . S
H917 C894 0.929 . S
H918 C896 0.931 . S
H919 C897 0.930 . S
Pr920 C922 2.880 . S
Pr920 O940 2.562 . S
Pr920 O941 2.490 . S
Pr920 O942 2.695 . S
Pr920 O943 2.512 . S
Pr920 O945 2.437 . S
Pr920 O948 2.436 . S
Pr920 O950 2.438 . S
Pr921 C931 2.880 . S
Pr921 O942 2.436 . S
Pr921 O944 2.438 . S
Pr921 O946 2.562 . S
Pr921 O947 2.490 . S
Pr921 O948 2.695 . S
Pr921 O949 2.512 . S
Pr921 O951 2.437 . S
C922 Pr920 2.880 . S
C922 C923 1.491 . S
C922 O940 1.254 . S
C922 O941 1.225 . S
C923 C922 1.491 . S
C923 C924 1.392 . S
C923 C928 1.356 . S
C924 C923 1.392 . S
C924 C925 1.368 . S
C924 H952 0.929 . S
C925 C924 1.368 . S
C925 C926 1.386 . S
C925 H953 0.929 . S
C926 C925 1.386 . S
C926 C927 1.373 . S
C927 C926 1.373 . S
C927 C928 1.409 . S
C927 H954 0.931 . S
C928 C923 1.356 . S
C928 C927 1.409 . S
C928 H955 0.930 . S
C929 O942 1.270 . S
C929 O943 1.248 . S
C930 O944 1.267 . S
C930 O945 1.278 . S
C931 Pr921 2.880 . S
C931 C932 1.491 . S
C931 O946 1.254 . S
C931 O947 1.225 . S
C932 C931 1.491 . S
C932 C933 1.392 . S
C932 C937 1.356 . S
C933 C932 1.392 . S
C933 C934 1.368 . S
C933 H956 0.929 . S
C934 C933 1.368 . S
C934 C935 1.386 . S
C934 H957 0.929 . S
C935 C934 1.386 . S
C935 C936 1.373 . S
C936 C935 1.373 . S
C936 C937 1.409 . S
C936 H958 0.931 . S
C937 C932 1.356 . S
C937 C936 1.409 . S
C937 H959 0.930 . S
C938 O948 1.270 . S
C938 O949 1.248 . S
C939 O950 1.267 . S
C939 O951 1.278 . S
O940 Pr920 2.562 . S
O940 C922 1.254 . S
O941 Pr920 2.490 . S
O941 C922 1.225 . S
O942 Pr920 2.695 . S
O942 Pr921 2.436 . S
O942 C929 1.270 . S
O943 Pr920 2.512 . S
O943 C929 1.248 . S
O944 Pr921 2.438 . S
O944 C930 1.267 . S
O945 Pr920 2.437 . S
O945 C930 1.278 . S
O946 Pr921 2.562 . S
O946 C931 1.254 . S
O947 Pr921 2.490 . S
O947 C931 1.225 . S
O948 Pr920 2.436 . S
O948 Pr921 2.695 . S
O948 C938 1.270 . S
O949 Pr921 2.512 . S
O949 C938 1.248 . S
O950 Pr920 2.438 . S
O950 C939 1.267 . S
O951 Pr921 2.437 . S
O951 C939 1.278 . S
H952 C924 0.929 . S
H953 C925 0.929 . S
H954 C927 0.931 . S
H955 C928 0.930 . S
H956 C933 0.929 . S
H957 C934 0.929 . S
H958 C936 0.931 . S
H959 C937 0.930 . S
Pr960 C962 2.880 . S
Pr960 O980 2.562 . S
Pr960 O981 2.490 . S
Pr960 O982 2.695 . S
Pr960 O983 2.512 . S
Pr960 O985 2.437 . S
Pr960 O988 2.436 . S
Pr960 O990 2.438 . S
Pr961 C971 2.880 . S
Pr961 O982 2.436 . S
Pr961 O984 2.438 . S
Pr961 O986 2.562 . S
Pr961 O987 2.490 . S
Pr961 O988 2.695 . S
Pr961 O989 2.512 . S
Pr961 O991 2.437 . S
C962 Pr960 2.880 . S
C962 C963 1.491 . S
C962 O980 1.254 . S
C962 O981 1.225 . S
C963 C962 1.491 . S
C963 C964 1.392 . S
C963 C968 1.356 . S
C964 C963 1.392 . S
C964 C965 1.368 . S
C964 H992 0.929 . S
C965 C964 1.368 . S
C965 C966 1.386 . S
C965 H993 0.929 . S
C966 C965 1.386 . S
C966 C967 1.373 . S
C967 C966 1.373 . S
C967 C968 1.409 . S
C967 H994 0.931 . S
C968 C963 1.356 . S
C968 C967 1.409 . S
C968 H995 0.930 . S
C969 O982 1.270 . S
C969 O983 1.248 . S
C970 O984 1.267 . S
C970 O985 1.278 . S
C971 Pr961 2.880 . S
C971 C972 1.491 . S
C971 O986 1.254 . S
C971 O987 1.225 . S
C972 C971 1.491 . S
C972 C973 1.392 . S
C972 C977 1.356 . S
C973 C972 1.392 . S
C973 C974 1.368 . S
C973 H996 0.929 . S
C974 C973 1.368 . S
C974 C975 1.386 . S
C974 H997 0.929 . S
C975 C974 1.386 . S
C975 C976 1.373 . S
C976 C975 1.373 . S
C976 C977 1.409 . S
C976 H998 0.931 . S
C977 C972 1.356 . S
C977 C976 1.409 . S
C977 H999 0.930 . S
C978 O988 1.270 . S
C978 O989 1.248 . S
C979 O990 1.267 . S
C979 O991 1.278 . S
O980 Pr960 2.562 . S
O980 C962 1.254 . S
O981 Pr960 2.490 . S
O981 C962 1.225 . S
O982 Pr960 2.695 . S
O982 Pr961 2.436 . S
O982 C969 1.270 . S
O983 Pr960 2.512 . S
O983 C969 1.248 . S
O984 Pr961 2.438 . S
O984 C970 1.267 . S
O985 Pr960 2.437 . S
O985 C970 1.278 . S
O986 Pr961 2.562 . S
O986 C971 1.254 . S
O987 Pr961 2.490 . S
O987 C971 1.225 . S
O988 Pr960 2.436 . S
O988 Pr961 2.695 . S
O988 C978 1.270 . S
O989 Pr961 2.512 . S
O989 C978 1.248 . S
O990 Pr960 2.438 . S
O990 C979 1.267 . S
O991 Pr961 2.437 . S
O991 C979 1.278 . S
H992 C964 0.929 . S
H993 C965 0.929 . S
H994 C967 0.931 . S
H995 C968 0.930 . S
H996 C973 0.929 . S
H997 C974 0.929 . S
H998 C976 0.931 . S
H999 C977 0.930 . S
Pr1000 C1002 2.880 . S
Pr1000 O1020 2.562 . S
Pr1000 O1021 2.490 . S
Pr1000 O1022 2.695 . S
Pr1000 O1023 2.512 . S
Pr1000 O1025 2.437 . S
Pr1000 O1028 2.436 . S
Pr1000 O1030 2.438 . S
Pr1001 C1011 2.880 . S
Pr1001 O1022 2.436 . S
Pr1001 O1024 2.438 . S
Pr1001 O1026 2.562 . S
Pr1001 O1027 2.490 . S
Pr1001 O1028 2.695 . S
Pr1001 O1029 2.512 . S
Pr1001 O1031 2.437 . S
C1002 Pr1000 2.880 . S
C1002 C1003 1.491 . S
C1002 O1020 1.254 . S
C1002 O1021 1.225 . S
C1003 C1002 1.491 . S
C1003 C1004 1.392 . S
C1003 C1008 1.356 . S
C1004 C1003 1.392 . S
C1004 C1005 1.368 . S
C1004 H1032 0.929 . S
C1005 C1004 1.368 . S
C1005 C1006 1.386 . S
C1005 H1033 0.929 . S
C1006 C1005 1.386 . S
C1006 C1007 1.373 . S
C1007 C1006 1.373 . S
C1007 C1008 1.409 . S
C1007 H1034 0.931 . S
C1008 C1003 1.356 . S
C1008 C1007 1.409 . S
C1008 H1035 0.930 . S
C1009 O1022 1.270 . S
C1009 O1023 1.248 . S
C1010 O1024 1.267 . S
C1010 O1025 1.278 . S
C1011 Pr1001 2.880 . S
C1011 C1012 1.491 . S
C1011 O1026 1.254 . S
C1011 O1027 1.225 . S
C1012 C1011 1.491 . S
C1012 C1013 1.392 . S
C1012 C1017 1.356 . S
C1013 C1012 1.392 . S
C1013 C1014 1.368 . S
C1013 H1036 0.929 . S
C1014 C1013 1.368 . S
C1014 C1015 1.386 . S
C1014 H1037 0.929 . S
C1015 C1014 1.386 . S
C1015 C1016 1.373 . S
C1016 C1015 1.373 . S
C1016 C1017 1.409 . S
C1016 H1038 0.931 . S
C1017 C1012 1.356 . S
C1017 C1016 1.409 . S
C1017 H1039 0.930 . S
C1018 O1028 1.270 . S
C1018 O1029 1.248 . S
C1019 O1030 1.267 . S
C1019 O1031 1.278 . S
O1020 Pr1000 2.562 . S
O1020 C1002 1.254 . S
O1021 Pr1000 2.490 . S
O1021 C1002 1.225 . S
O1022 Pr1000 2.695 . S
O1022 Pr1001 2.436 . S
O1022 C1009 1.270 . S
O1023 Pr1000 2.512 . S
O1023 C1009 1.248 . S
O1024 Pr1001 2.438 . S
O1024 C1010 1.267 . S
O1025 Pr1000 2.437 . S
O1025 C1010 1.278 . S
O1026 Pr1001 2.562 . S
O1026 C1011 1.254 . S
O1027 Pr1001 2.490 . S
O1027 C1011 1.225 . S
O1028 Pr1000 2.436 . S
O1028 Pr1001 2.695 . S
O1028 C1018 1.270 . S
O1029 Pr1001 2.512 . S
O1029 C1018 1.248 . S
O1030 Pr1000 2.438 . S
O1030 C1019 1.267 . S
O1031 Pr1001 2.437 . S
O1031 C1019 1.278 . S
H1032 C1004 0.929 . S
H1033 C1005 0.929 . S
H1034 C1007 0.931 . S
H1035 C1008 0.930 . S
H1036 C1013 0.929 . S
H1037 C1014 0.929 . S
H1038 C1016 0.931 . S
H1039 C1017 0.930 . S
Pr1040 C1042 2.880 . S
Pr1040 O1060 2.562 . S
Pr1040 O1061 2.490 . S
Pr1040 O1062 2.695 . S
Pr1040 O1063 2.512 . S
Pr1040 O1065 2.437 . S
Pr1040 O1068 2.436 . S
Pr1040 O1070 2.438 . S
Pr1041 C1051 2.880 . S
Pr1041 O1062 2.436 . S
Pr1041 O1064 2.438 . S
Pr1041 O1066 2.562 . S
Pr1041 O1067 2.490 . S
Pr1041 O1068 2.695 . S
Pr1041 O1069 2.512 . S
Pr1041 O1071 2.437 . S
C1042 Pr1040 2.880 . S
C1042 C1043 1.491 . S
C1042 O1060 1.254 . S
C1042 O1061 1.225 . S
C1043 C1042 1.491 . S
C1043 C1044 1.392 . S
C1043 C1048 1.356 . S
C1044 C1043 1.392 . S
C1044 C1045 1.368 . S
C1044 H1072 0.929 . S
C1045 C1044 1.368 . S
C1045 C1046 1.386 . S
C1045 H1073 0.929 . S
C1046 C1045 1.386 . S
C1046 C1047 1.373 . S
C1047 C1046 1.373 . S
C1047 C1048 1.409 . S
C1047 H1074 0.931 . S
C1048 C1043 1.356 . S
C1048 C1047 1.409 . S
C1048 H1075 0.930 . S
C1049 O1062 1.270 . S
C1049 O1063 1.248 . S
C1050 O1064 1.267 . S
C1050 O1065 1.278 . S
C1051 Pr1041 2.880 . S
C1051 C1052 1.491 . S
C1051 O1066 1.254 . S
C1051 O1067 1.225 . S
C1052 C1051 1.491 . S
C1052 C1053 1.392 . S
C1052 C1057 1.356 . S
C1053 C1052 1.392 . S
C1053 C1054 1.368 . S
C1053 H1076 0.929 . S
C1054 C1053 1.368 . S
C1054 C1055 1.386 . S
C1054 H1077 0.929 . S
C1055 C1054 1.386 . S
C1055 C1056 1.373 . S
C1056 C1055 1.373 . S
C1056 C1057 1.409 . S
C1056 H1078 0.931 . S
C1057 C1052 1.356 . S
C1057 C1056 1.409 . S
C1057 H1079 0.930 . S
C1058 O1068 1.270 . S
C1058 O1069 1.248 . S
C1059 O1070 1.267 . S
C1059 O1071 1.278 . S
O1060 Pr1040 2.562 . S
O1060 C1042 1.254 . S
O1061 Pr1040 2.490 . S
O1061 C1042 1.225 . S
O1062 Pr1040 2.695 . S
O1062 Pr1041 2.436 . S
O1062 C1049 1.270 . S
O1063 Pr1040 2.512 . S
O1063 C1049 1.248 . S
O1064 Pr1041 2.438 . S
O1064 C1050 1.267 . S
O1065 Pr1040 2.437 . S
O1065 C1050 1.278 . S
O1066 Pr1041 2.562 . S
O1066 C1051 1.254 . S
O1067 Pr1041 2.490 . S
O1067 C1051 1.225 . S
O1068 Pr1040 2.436 . S
O1068 Pr1041 2.695 . S
O1068 C1058 1.270 . S
O1069 Pr1041 2.512 . S
O1069 C1058 1.248 . S
O1070 Pr1040 2.438 . S
O1070 C1059 1.267 . S
O1071 Pr1041 2.437 . S
O1071 C1059 1.278 . S
H1072 C1044 0.929 . S
H1073 C1045 0.929 . S
H1074 C1047 0.931 . S
H1075 C1048 0.930 . S
H1076 C1053 0.929 . S
H1077 C1054 0.929 . S
H1078 C1056 0.931 . S
H1079 C1057 0.930 . S
Pr1080 C1082 2.880 . S
Pr1080 O1100 2.562 . S
Pr1080 O1101 2.490 . S
Pr1080 O1102 2.695 . S
Pr1080 O1103 2.512 . S
Pr1080 O1105 2.437 . S
Pr1080 O1108 2.436 . S
Pr1080 O1110 2.438 . S
Pr1081 C1091 2.880 1_455 S
Pr1081 O1102 2.436 . S
Pr1081 O1104 2.438 . S
Pr1081 O1106 2.562 1_455 S
Pr1081 O1107 2.490 1_455 S
Pr1081 O1108 2.695 . S
Pr1081 O1109 2.512 . S
Pr1081 O1111 2.437 . S
C1082 Pr1080 2.880 . S
C1082 C1083 1.491 . S
C1082 O1100 1.254 . S
C1082 O1101 1.225 . S
C1083 C1082 1.491 . S
C1083 C1084 1.392 . S
C1083 C1088 1.356 . S
C1084 C1083 1.392 . S
C1084 C1085 1.368 . S
C1084 H1112 0.929 . S
C1085 C1084 1.368 . S
C1085 C1086 1.386 . S
C1085 H1113 0.929 . S
C1086 C1085 1.386 . S
C1086 C1087 1.373 . S
C1087 C1086 1.373 . S
C1087 C1088 1.409 . S
C1087 H1114 0.931 . S
C1088 C1083 1.356 . S
C1088 C1087 1.409 . S
C1088 H1115 0.930 . S
C1089 O1102 1.270 . S
C1089 O1103 1.248 . S
C1090 O1104 1.267 . S
C1090 O1105 1.278 . S
C1091 Pr1081 2.880 1_655 S
C1091 C1092 1.491 . S
C1091 O1106 1.254 . S
C1091 O1107 1.225 . S
C1092 C1091 1.491 . S
C1092 C1093 1.392 . S
C1092 C1097 1.356 . S
C1093 C1092 1.392 . S
C1093 C1094 1.368 . S
C1093 H1116 0.929 . S
C1094 C1093 1.368 . S
C1094 C1095 1.386 . S
C1094 H1117 0.929 . S
C1095 C1094 1.386 . S
C1095 C1096 1.373 . S
C1096 C1095 1.373 . S
C1096 C1097 1.409 . S
C1096 H1118 0.931 . S
C1097 C1092 1.356 . S
C1097 C1096 1.409 . S
C1097 H1119 0.930 . S
C1098 O1108 1.270 . S
C1098 O1109 1.248 . S
C1099 O1110 1.267 . S
C1099 O1111 1.278 . S
O1100 Pr1080 2.562 . S
O1100 C1082 1.254 . S
O1101 Pr1080 2.490 . S
O1101 C1082 1.225 . S
O1102 Pr1080 2.695 . S
O1102 Pr1081 2.436 . S
O1102 C1089 1.270 . S
O1103 Pr1080 2.512 . S
O1103 C1089 1.248 . S
O1104 Pr1081 2.438 . S
O1104 C1090 1.267 . S
O1105 Pr1080 2.437 . S
O1105 C1090 1.278 . S
O1106 Pr1081 2.562 1_655 S
O1106 C1091 1.254 . S
O1107 Pr1081 2.490 1_655 S
O1107 C1091 1.225 . S
O1108 Pr1080 2.436 . S
O1108 Pr1081 2.695 . S
O1108 C1098 1.270 . S
O1109 Pr1081 2.512 . S
O1109 C1098 1.248 . S
O1110 Pr1080 2.438 . S
O1110 C1099 1.267 . S
O1111 Pr1081 2.437 . S
O1111 C1099 1.278 . S
H1112 C1084 0.929 . S
H1113 C1085 0.929 . S
H1114 C1087 0.931 . S
H1115 C1088 0.930 . S
H1116 C1093 0.929 . S
H1117 C1094 0.929 . S
H1118 C1096 0.931 . S
H1119 C1097 0.930 . S
Pr1120 C1122 2.880 . S
Pr1120 O1140 2.562 . S
Pr1120 O1141 2.490 . S
Pr1120 O1142 2.695 . S
Pr1120 O1143 2.512 . S
Pr1120 O1145 2.437 . S
Pr1120 O1148 2.436 . S
Pr1120 O1150 2.438 . S
Pr1121 C1131 2.880 . S
Pr1121 O1142 2.436 . S
Pr1121 O1144 2.438 . S
Pr1121 O1146 2.562 . S
Pr1121 O1147 2.490 . S
Pr1121 O1148 2.695 . S
Pr1121 O1149 2.512 . S
Pr1121 O1151 2.437 . S
C1122 Pr1120 2.880 . S
C1122 C1123 1.491 . S
C1122 O1140 1.254 . S
C1122 O1141 1.225 . S
C1123 C1122 1.491 . S
C1123 C1124 1.392 . S
C1123 C1128 1.356 . S
C1124 C1123 1.392 . S
C1124 C1125 1.368 . S
C1124 H1152 0.929 . S
C1125 C1124 1.368 . S
C1125 C1126 1.386 . S
C1125 H1153 0.929 . S
C1126 C1125 1.386 . S
C1126 C1127 1.373 . S
C1127 C1126 1.373 . S
C1127 C1128 1.409 . S
C1127 H1154 0.931 . S
C1128 C1123 1.356 . S
C1128 C1127 1.409 . S
C1128 H1155 0.930 . S
C1129 O1142 1.270 . S
C1129 O1143 1.248 . S
C1130 O1144 1.267 . S
C1130 O1145 1.278 . S
C1131 Pr1121 2.880 . S
C1131 C1132 1.491 . S
C1131 O1146 1.254 . S
C1131 O1147 1.225 . S
C1132 C1131 1.491 . S
C1132 C1133 1.392 . S
C1132 C1137 1.356 . S
C1133 C1132 1.392 . S
C1133 C1134 1.368 . S
C1133 H1156 0.929 . S
C1134 C1133 1.368 . S
C1134 C1135 1.386 . S
C1134 H1157 0.929 . S
C1135 C1134 1.386 . S
C1135 C1136 1.373 . S
C1136 C1135 1.373 . S
C1136 C1137 1.409 . S
C1136 H1158 0.931 . S
C1137 C1132 1.356 . S
C1137 C1136 1.409 . S
C1137 H1159 0.930 . S
C1138 O1148 1.270 . S
C1138 O1149 1.248 . S
C1139 O1150 1.267 . S
C1139 O1151 1.278 . S
O1140 Pr1120 2.562 . S
O1140 C1122 1.254 . S
O1141 Pr1120 2.490 . S
O1141 C1122 1.225 . S
O1142 Pr1120 2.695 . S
O1142 Pr1121 2.436 . S
O1142 C1129 1.270 . S
O1143 Pr1120 2.512 . S
O1143 C1129 1.248 . S
O1144 Pr1121 2.438 . S
O1144 C1130 1.267 . S
O1145 Pr1120 2.437 . S
O1145 C1130 1.278 . S
O1146 Pr1121 2.562 . S
O1146 C1131 1.254 . S
O1147 Pr1121 2.490 . S
O1147 C1131 1.225 . S
O1148 Pr1120 2.436 . S
O1148 Pr1121 2.695 . S
O1148 C1138 1.270 . S
O1149 Pr1121 2.512 . S
O1149 C1138 1.248 . S
O1150 Pr1120 2.438 . S
O1150 C1139 1.267 . S
O1151 Pr1121 2.437 . S
O1151 C1139 1.278 . S
H1152 C1124 0.929 . S
H1153 C1125 0.929 . S
H1154 C1127 0.931 . S
H1155 C1128 0.930 . S
H1156 C1133 0.929 . S
H1157 C1134 0.929 . S
H1158 C1136 0.931 . S
H1159 C1137 0.930 . S
Pr1160 C1162 2.880 . S
Pr1160 O1180 2.562 . S
Pr1160 O1181 2.490 . S
Pr1160 O1182 2.695 . S
Pr1160 O1183 2.512 . S
Pr1160 O1185 2.437 . S
Pr1160 O1188 2.436 . S
Pr1160 O1190 2.438 . S
Pr1161 C1171 2.880 1_455 S
Pr1161 O1182 2.436 . S
Pr1161 O1184 2.438 . S
Pr1161 O1186 2.562 1_455 S
Pr1161 O1187 2.490 1_455 S
Pr1161 O1188 2.695 . S
Pr1161 O1189 2.512 . S
Pr1161 O1191 2.437 . S
C1162 Pr1160 2.880 . S
C1162 C1163 1.491 . S
C1162 O1180 1.254 . S
C1162 O1181 1.225 . S
C1163 C1162 1.491 . S
C1163 C1164 1.392 . S
C1163 C1168 1.356 . S
C1164 C1163 1.392 . S
C1164 C1165 1.368 . S
C1164 H1192 0.929 . S
C1165 C1164 1.368 . S
C1165 C1166 1.386 . S
C1165 H1193 0.929 . S
C1166 C1165 1.386 . S
C1166 C1167 1.373 . S
C1167 C1166 1.373 . S
C1167 C1168 1.409 . S
C1167 H1194 0.931 . S
C1168 C1163 1.356 . S
C1168 C1167 1.409 . S
C1168 H1195 0.930 . S
C1169 O1182 1.270 . S
C1169 O1183 1.248 . S
C1170 O1184 1.267 . S
C1170 O1185 1.278 . S
C1171 Pr1161 2.880 1_655 S
C1171 C1172 1.491 . S
C1171 O1186 1.254 . S
C1171 O1187 1.225 . S
C1172 C1171 1.491 . S
C1172 C1173 1.392 . S
C1172 C1177 1.356 . S
C1173 C1172 1.392 . S
C1173 C1174 1.368 . S
C1173 H1196 0.929 . S
C1174 C1173 1.368 . S
C1174 C1175 1.386 . S
C1174 H1197 0.929 . S
C1175 C1174 1.386 . S
C1175 C1176 1.373 . S
C1176 C1175 1.373 . S
C1176 C1177 1.409 . S
C1176 H1198 0.931 . S
C1177 C1172 1.356 . S
C1177 C1176 1.409 . S
C1177 H1199 0.930 . S
C1178 O1188 1.270 . S
C1178 O1189 1.248 . S
C1179 O1190 1.267 . S
C1179 O1191 1.278 . S
O1180 Pr1160 2.562 . S
O1180 C1162 1.254 . S
O1181 Pr1160 2.490 . S
O1181 C1162 1.225 . S
O1182 Pr1160 2.695 . S
O1182 Pr1161 2.436 . S
O1182 C1169 1.270 . S
O1183 Pr1160 2.512 . S
O1183 C1169 1.248 . S
O1184 Pr1161 2.438 . S
O1184 C1170 1.267 . S
O1185 Pr1160 2.437 . S
O1185 C1170 1.278 . S
O1186 Pr1161 2.562 1_655 S
O1186 C1171 1.254 . S
O1187 Pr1161 2.490 1_655 S
O1187 C1171 1.225 . S
O1188 Pr1160 2.436 . S
O1188 Pr1161 2.695 . S
O1188 C1178 1.270 . S
O1189 Pr1161 2.512 . S
O1189 C1178 1.248 . S
O1190 Pr1160 2.438 . S
O1190 C1179 1.267 . S
O1191 Pr1161 2.437 . S
O1191 C1179 1.278 . S
H1192 C1164 0.929 . S
H1193 C1165 0.929 . S
H1194 C1167 0.931 . S
H1195 C1168 0.930 . S
H1196 C1173 0.929 . S
H1197 C1174 0.929 . S
H1198 C1176 0.931 . S
H1199 C1177 0.930 . S
Pr1200 C1202 2.880 . S
Pr1200 O1220 2.562 . S
Pr1200 O1221 2.490 . S
Pr1200 O1222 2.695 . S
Pr1200 O1223 2.512 . S
Pr1200 O1225 2.437 . S
Pr1200 O1228 2.436 . S
Pr1200 O1230 2.438 . S
Pr1201 C1211 2.880 . S
Pr1201 O1222 2.436 . S
Pr1201 O1224 2.438 . S
Pr1201 O1226 2.562 . S
Pr1201 O1227 2.490 . S
Pr1201 O1228 2.695 . S
Pr1201 O1229 2.512 . S
Pr1201 O1231 2.437 . S
C1202 Pr1200 2.880 . S
C1202 C1203 1.491 . S
C1202 O1220 1.254 . S
C1202 O1221 1.225 . S
C1203 C1202 1.491 . S
C1203 C1204 1.392 . S
C1203 C1208 1.356 . S
C1204 C1203 1.392 . S
C1204 C1205 1.368 . S
C1204 H1232 0.929 . S
C1205 C1204 1.368 . S
C1205 C1206 1.386 . S
C1205 H1233 0.929 . S
C1206 C1205 1.386 . S
C1206 C1207 1.373 . S
C1207 C1206 1.373 . S
C1207 C1208 1.409 . S
C1207 H1234 0.931 . S
C1208 C1203 1.356 . S
C1208 C1207 1.409 . S
C1208 H1235 0.930 . S
C1209 O1222 1.270 . S
C1209 O1223 1.248 . S
C1210 O1224 1.267 . S
C1210 O1225 1.278 . S
C1211 Pr1201 2.880 . S
C1211 C1212 1.491 . S
C1211 O1226 1.254 . S
C1211 O1227 1.225 . S
C1212 C1211 1.491 . S
C1212 C1213 1.392 . S
C1212 C1217 1.356 . S
C1213 C1212 1.392 . S
C1213 C1214 1.368 . S
C1213 H1236 0.929 . S
C1214 C1213 1.368 . S
C1214 C1215 1.386 . S
C1214 H1237 0.929 . S
C1215 C1214 1.386 . S
C1215 C1216 1.373 . S
C1216 C1215 1.373 . S
C1216 C1217 1.409 . S
C1216 H1238 0.931 . S
C1217 C1212 1.356 . S
C1217 C1216 1.409 . S
C1217 H1239 0.930 . S
C1218 O1228 1.270 . S
C1218 O1229 1.248 . S
C1219 O1230 1.267 . S
C1219 O1231 1.278 . S
O1220 Pr1200 2.562 . S
O1220 C1202 1.254 . S
O1221 Pr1200 2.490 . S
O1221 C1202 1.225 . S
O1222 Pr1200 2.695 . S
O1222 Pr1201 2.436 . S
O1222 C1209 1.270 . S
O1223 Pr1200 2.512 . S
O1223 C1209 1.248 . S
O1224 Pr1201 2.438 . S
O1224 C1210 1.267 . S
O1225 Pr1200 2.437 . S
O1225 C1210 1.278 . S
O1226 Pr1201 2.562 . S
O1226 C1211 1.254 . S
O1227 Pr1201 2.490 . S
O1227 C1211 1.225 . S
O1228 Pr1200 2.436 . S
O1228 Pr1201 2.695 . S
O1228 C1218 1.270 . S
O1229 Pr1201 2.512 . S
O1229 C1218 1.248 . S
O1230 Pr1200 2.438 . S
O1230 C1219 1.267 . S
O1231 Pr1201 2.437 . S
O1231 C1219 1.278 . S
H1232 C1204 0.929 . S
H1233 C1205 0.929 . S
H1234 C1207 0.931 . S
H1235 C1208 0.930 . S
H1236 C1213 0.929 . S
H1237 C1214 0.929 . S
H1238 C1216 0.931 . S
H1239 C1217 0.930 . S
Pr1240 C1242 2.880 . S
Pr1240 O1260 2.562 . S
Pr1240 O1261 2.490 . S
Pr1240 O1262 2.695 . S
Pr1240 O1263 2.512 . S
Pr1240 O1265 2.437 . S
Pr1240 O1268 2.436 . S
Pr1240 O1270 2.438 . S
Pr1241 C1251 2.880 . S
Pr1241 O1262 2.436 . S
Pr1241 O1264 2.438 . S
Pr1241 O1266 2.562 . S
Pr1241 O1267 2.490 . S
Pr1241 O1268 2.695 . S
Pr1241 O1269 2.512 . S
Pr1241 O1271 2.437 . S
C1242 Pr1240 2.880 . S
C1242 C1243 1.491 . S
C1242 O1260 1.254 . S
C1242 O1261 1.225 . S
C1243 C1242 1.491 . S
C1243 C1244 1.392 . S
C1243 C1248 1.356 . S
C1244 C1243 1.392 . S
C1244 C1245 1.368 . S
C1244 H1272 0.929 . S
C1245 C1244 1.368 . S
C1245 C1246 1.386 . S
C1245 H1273 0.929 . S
C1246 C1245 1.386 . S
C1246 C1247 1.373 . S
C1247 C1246 1.373 . S
C1247 C1248 1.409 . S
C1247 H1274 0.931 . S
C1248 C1243 1.356 . S
C1248 C1247 1.409 . S
C1248 H1275 0.930 . S
C1249 O1262 1.270 . S
C1249 O1263 1.248 . S
C1250 O1264 1.267 . S
C1250 O1265 1.278 . S
C1251 Pr1241 2.880 . S
C1251 C1252 1.491 . S
C1251 O1266 1.254 . S
C1251 O1267 1.225 . S
C1252 C1251 1.491 . S
C1252 C1253 1.392 . S
C1252 C1257 1.356 . S
C1253 C1252 1.392 . S
C1253 C1254 1.368 . S
C1253 H1276 0.929 . S
C1254 C1253 1.368 . S
C1254 C1255 1.386 . S
C1254 H1277 0.929 . S
C1255 C1254 1.386 . S
C1255 C1256 1.373 . S
C1256 C1255 1.373 . S
C1256 C1257 1.409 . S
C1256 H1278 0.931 . S
C1257 C1252 1.356 . S
C1257 C1256 1.409 . S
C1257 H1279 0.930 . S
C1258 O1268 1.270 . S
C1258 O1269 1.248 . S
C1259 O1270 1.267 . S
C1259 O1271 1.278 . S
O1260 Pr1240 2.562 . S
O1260 C1242 1.254 . S
O1261 Pr1240 2.490 . S
O1261 C1242 1.225 . S
O1262 Pr1240 2.695 . S
O1262 Pr1241 2.436 . S
O1262 C1249 1.270 . S
O1263 Pr1240 2.512 . S
O1263 C1249 1.248 . S
O1264 Pr1241 2.438 . S
O1264 C1250 1.267 . S
O1265 Pr1240 2.437 . S
O1265 C1250 1.278 . S
O1266 Pr1241 2.562 . S
O1266 C1251 1.254 . S
O1267 Pr1241 2.490 . S
O1267 C1251 1.225 . S
O1268 Pr1240 2.436 . S
O1268 Pr1241 2.695 . S
O1268 C1258 1.270 . S
O1269 Pr1241 2.512 . S
O1269 C1258 1.248 . S
O1270 Pr1240 2.438 . S
O1270 C1259 1.267 . S
O1271 Pr1241 2.437 . S
O1271 C1259 1.278 . S
H1272 C1244 0.929 . S
H1273 C1245 0.929 . S
H1274 C1247 0.931 . S
H1275 C1248 0.930 . S
H1276 C1253 0.929 . S
H1277 C1254 0.929 . S
H1278 C1256 0.931 . S
H1279 C1257 0.930 . S
C1280 C1281 1.349 . S
C1280 C1282 1.327 . S
C1280 H1305 0.950 . S
C1281 C1280 1.349 . S
C1281 C1297 1.349 . S
C1282 C1280 1.327 . S
C1282 C1301 1.429 . S
C1282 H1306 0.950 . S
C1283 C1300 1.574 . S
C1283 C1302 1.368 . S
C1283 H1307 0.949 . S
H1284 C1288 0.949 . S
C1285 C1286 1.349 . S
C1285 C1287 1.327 . S
C1285 H1308 0.950 . S
C1286 C1285 1.349 . S
C1286 C1298 1.349 . S
C1287 C1285 1.327 . S
C1287 C1303 1.429 . S
C1287 H1309 0.950 . S
C1288 H1284 0.949 . S
C1288 C1296 1.574 . S
C1288 C1304 1.368 . S
H1289 C1297 0.950 . S
H1290 C1295 0.950 . S
H1291 C1296 0.949 . S
H1292 C1298 0.950 . S
H1293 C1299 0.950 . S
H1294 C1300 0.949 . S
C1295 H1290 0.950 . S
C1295 C1297 1.327 . S
C1295 C1301 1.429 . S
C1296 C1288 1.574 . S
C1296 H1291 0.949 . S
C1296 C1302 1.368 . S
C1297 C1281 1.349 . S
C1297 H1289 0.950 . S
C1297 C1295 1.327 . S
C1298 C1286 1.349 . S
C1298 H1292 0.950 . S
C1298 C1299 1.327 . S
C1299 H1293 0.950 . S
C1299 C1298 1.327 . S
C1299 C1303 1.429 . S
C1300 C1283 1.574 . S
C1300 H1294 0.949 . S
C1300 C1304 1.368 . S
C1301 C1282 1.429 . S
C1301 C1295 1.429 . S
C1301 C1302 1.523 . S
C1302 C1283 1.368 . S
C1302 C1296 1.368 . S
C1302 C1301 1.523 . S
C1303 C1287 1.429 . S
C1303 C1299 1.429 . S
C1303 C1304 1.523 . S
C1304 C1288 1.368 . S
C1304 C1300 1.368 . S
C1304 C1303 1.523 . S
H1305 C1280 0.950 . S
H1306 C1282 0.950 . S
H1307 C1283 0.949 . S
H1308 C1285 0.950 . S
H1309 C1287 0.950 . S
C1310 C1311 1.349 . S
C1310 C1312 1.327 . S
C1310 H1335 0.950 . S
C1311 C1310 1.349 . S
C1311 C1327 1.349 . S
C1312 C1310 1.327 . S
C1312 C1331 1.429 . S
C1312 H1336 0.950 . S
C1313 C1330 1.574 . S
C1313 C1332 1.368 . S
C1313 H1337 0.949 . S
H1314 C1318 0.949 . S
C1315 C1316 1.349 . S
C1315 C1317 1.327 . S
C1315 H1338 0.950 . S
C1316 C1315 1.349 . S
C1316 C1328 1.349 . S
C1317 C1315 1.327 . S
C1317 C1333 1.429 . S
C1317 H1339 0.950 . S
C1318 H1314 0.949 . S
C1318 C1326 1.574 . S
C1318 C1334 1.368 . S
H1319 C1327 0.950 . S
H1320 C1325 0.950 . S
H1321 C1326 0.949 . S
H1322 C1328 0.950 . S
H1323 C1329 0.950 . S
H1324 C1330 0.949 . S
C1325 H1320 0.950 . S
C1325 C1327 1.327 . S
C1325 C1331 1.429 . S
C1326 C1318 1.574 . S
C1326 H1321 0.949 . S
C1326 C1332 1.368 . S
C1327 C1311 1.349 . S
C1327 H1319 0.950 . S
C1327 C1325 1.327 . S
C1328 C1316 1.349 . S
C1328 H1322 0.950 . S
C1328 C1329 1.327 . S
C1329 H1323 0.950 . S
C1329 C1328 1.327 . S
C1329 C1333 1.429 . S
C1330 C1313 1.574 . S
C1330 H1324 0.949 . S
C1330 C1334 1.368 . S
C1331 C1312 1.429 . S
C1331 C1325 1.429 . S
C1331 C1332 1.523 . S
C1332 C1313 1.368 . S
C1332 C1326 1.368 . S
C1332 C1331 1.523 . S
C1333 C1317 1.429 . S
C1333 C1329 1.429 . S
C1333 C1334 1.523 . S
C1334 C1318 1.368 . S
C1334 C1330 1.368 . S
C1334 C1333 1.523 . S
H1335 C1310 0.950 . S
H1336 C1312 0.950 . S
H1337 C1313 0.949 . S
H1338 C1315 0.950 . S
H1339 C1317 0.950 . S
C1340 C1341 1.349 . S
C1340 C1342 1.327 . S
C1340 H1365 0.950 . S
C1341 C1340 1.349 . S
C1341 C1357 1.349 . S
C1342 C1340 1.327 . S
C1342 C1361 1.429 . S
C1342 H1366 0.950 . S
C1343 C1360 1.574 . S
C1343 C1362 1.368 . S
C1343 H1367 0.949 . S
H1344 C1348 0.949 . S
C1345 C1346 1.349 . S
C1345 C1347 1.327 . S
C1345 H1368 0.950 . S
C1346 C1345 1.349 . S
C1346 C1358 1.349 . S
C1347 C1345 1.327 . S
C1347 C1363 1.429 . S
C1347 H1369 0.950 . S
C1348 H1344 0.949 . S
C1348 C1356 1.574 . S
C1348 C1364 1.368 . S
H1349 C1357 0.950 . S
H1350 C1355 0.950 . S
H1351 C1356 0.949 . S
H1352 C1358 0.950 . S
H1353 C1359 0.950 . S
H1354 C1360 0.949 . S
C1355 H1350 0.950 . S
C1355 C1357 1.327 . S
C1355 C1361 1.429 . S
C1356 C1348 1.574 . S
C1356 H1351 0.949 . S
C1356 C1362 1.368 . S
C1357 C1341 1.349 . S
C1357 H1349 0.950 . S
C1357 C1355 1.327 . S
C1358 C1346 1.349 . S
C1358 H1352 0.950 . S
C1358 C1359 1.327 . S
C1359 H1353 0.950 . S
C1359 C1358 1.327 . S
C1359 C1363 1.429 . S
C1360 C1343 1.574 . S
C1360 H1354 0.949 . S
C1360 C1364 1.368 . S
C1361 C1342 1.429 . S
C1361 C1355 1.429 . S
C1361 C1362 1.523 . S
C1362 C1343 1.368 . S
C1362 C1356 1.368 . S
C1362 C1361 1.523 . S
C1363 C1347 1.429 . S
C1363 C1359 1.429 . S
C1363 C1364 1.523 . S
C1364 C1348 1.368 . S
C1364 C1360 1.368 . S
C1364 C1363 1.523 . S
H1365 C1340 0.950 . S
H1366 C1342 0.950 . S
H1367 C1343 0.949 . S
H1368 C1345 0.950 . S
H1369 C1347 0.950 . S
C1370 C1371 1.349 . S
C1370 C1372 1.327 . S
C1370 H1395 0.950 . S
C1371 C1370 1.349 . S
C1371 C1387 1.349 . S
C1372 C1370 1.327 . S
C1372 C1391 1.429 . S
C1372 H1396 0.950 . S
C1373 C1390 1.574 . S
C1373 C1392 1.368 . S
C1373 H1397 0.949 . S
H1374 C1378 0.949 . S
C1375 C1376 1.349 . S
C1375 C1377 1.327 . S
C1375 H1398 0.950 . S
C1376 C1375 1.349 . S
C1376 C1388 1.349 . S
C1377 C1375 1.327 . S
C1377 C1393 1.429 . S
C1377 H1399 0.950 . S
C1378 H1374 0.949 . S
C1378 C1386 1.574 . S
C1378 C1394 1.368 . S
H1379 C1387 0.950 . S
H1380 C1385 0.950 . S
H1381 C1386 0.949 . S
H1382 C1388 0.950 . S
H1383 C1389 0.950 . S
H1384 C1390 0.949 . S
C1385 H1380 0.950 . S
C1385 C1387 1.327 . S
C1385 C1391 1.429 . S
C1386 C1378 1.574 . S
C1386 H1381 0.949 . S
C1386 C1392 1.368 . S
C1387 C1371 1.349 . S
C1387 H1379 0.950 . S
C1387 C1385 1.327 . S
C1388 C1376 1.349 . S
C1388 H1382 0.950 . S
C1388 C1389 1.327 . S
C1389 H1383 0.950 . S
C1389 C1388 1.327 . S
C1389 C1393 1.429 . S
C1390 C1373 1.574 . S
C1390 H1384 0.949 . S
C1390 C1394 1.368 . S
C1391 C1372 1.429 . S
C1391 C1385 1.429 . S
C1391 C1392 1.523 . S
C1392 C1373 1.368 . S
C1392 C1386 1.368 . S
C1392 C1391 1.523 . S
C1393 C1377 1.429 . S
C1393 C1389 1.429 . S
C1393 C1394 1.523 . S
C1394 C1378 1.368 . S
C1394 C1390 1.368 . S
C1394 C1393 1.523 . S
H1395 C1370 0.950 . S
H1396 C1372 0.950 . S
H1397 C1373 0.949 . S
H1398 C1375 0.950 . S
H1399 C1377 0.950 . S
C1400 C1401 1.349 . S
C1400 C1402 1.327 . S
C1400 H1425 0.950 . S
C1401 C1400 1.349 . S
C1401 C1417 1.349 . S
C1402 C1400 1.327 . S
C1402 C1421 1.429 . S
C1402 H1426 0.950 . S
C1403 C1420 1.574 . S
C1403 C1422 1.368 . S
C1403 H1427 0.949 . S
H1404 C1408 0.949 . S
C1405 C1406 1.349 . S
C1405 C1407 1.327 . S
C1405 H1428 0.950 . S
C1406 C1405 1.349 . S
C1406 C1418 1.349 . S
C1407 C1405 1.327 . S
C1407 C1423 1.429 . S
C1407 H1429 0.950 . S
C1408 H1404 0.949 . S
C1408 C1416 1.574 . S
C1408 C1424 1.368 . S
H1409 C1417 0.950 . S
H1410 C1415 0.950 . S
H1411 C1416 0.949 . S
H1412 C1418 0.950 . S
H1413 C1419 0.950 . S
H1414 C1420 0.949 . S
C1415 H1410 0.950 . S
C1415 C1417 1.327 . S
C1415 C1421 1.429 . S
C1416 C1408 1.574 . S
C1416 H1411 0.949 . S
C1416 C1422 1.368 . S
C1417 C1401 1.349 . S
C1417 H1409 0.950 . S
C1417 C1415 1.327 . S
C1418 C1406 1.349 . S
C1418 H1412 0.950 . S
C1418 C1419 1.327 . S
C1419 H1413 0.950 . S
C1419 C1418 1.327 . S
C1419 C1423 1.429 . S
C1420 C1403 1.574 . S
C1420 H1414 0.949 . S
C1420 C1424 1.368 . S
C1421 C1402 1.429 . S
C1421 C1415 1.429 . S
C1421 C1422 1.523 . S
C1422 C1403 1.368 . S
C1422 C1416 1.368 . S
C1422 C1421 1.523 . S
C1423 C1407 1.429 . S
C1423 C1419 1.429 . S
C1423 C1424 1.523 . S
C1424 C1408 1.368 . S
C1424 C1420 1.368 . S
C1424 C1423 1.523 . S
H1425 C1400 0.950 . S
H1426 C1402 0.950 . S
H1427 C1403 0.949 . S
H1428 C1405 0.950 . S
H1429 C1407 0.950 . S
C1430 C1431 1.349 . S
C1430 C1432 1.327 . S
C1430 H1455 0.950 . S
C1431 C1430 1.349 . S
C1431 C1447 1.349 . S
C1432 C1430 1.327 . S
C1432 C1451 1.429 . S
C1432 H1456 0.950 . S
C1433 C1450 1.574 . S
C1433 C1452 1.368 . S
C1433 H1457 0.949 . S
H1434 C1438 0.949 . S
C1435 C1436 1.349 . S
C1435 C1437 1.327 . S
C1435 H1458 0.950 . S
C1436 C1435 1.349 . S
C1436 C1448 1.349 . S
C1437 C1435 1.327 . S
C1437 C1453 1.429 . S
C1437 H1459 0.950 . S
C1438 H1434 0.949 . S
C1438 C1446 1.574 . S
C1438 C1454 1.368 . S
H1439 C1447 0.950 . S
H1440 C1445 0.950 . S
H1441 C1446 0.949 . S
H1442 C1448 0.950 . S
H1443 C1449 0.950 . S
H1444 C1450 0.949 . S
C1445 H1440 0.950 . S
C1445 C1447 1.327 . S
C1445 C1451 1.429 . S
C1446 C1438 1.574 . S
C1446 H1441 0.949 . S
C1446 C1452 1.368 . S
C1447 C1431 1.349 . S
C1447 H1439 0.950 . S
C1447 C1445 1.327 . S
C1448 C1436 1.349 . S
C1448 H1442 0.950 . S
C1448 C1449 1.327 . S
C1449 H1443 0.950 . S
C1449 C1448 1.327 . S
C1449 C1453 1.429 . S
C1450 C1433 1.574 . S
C1450 H1444 0.949 . S
C1450 C1454 1.368 . S
C1451 C1432 1.429 . S
C1451 C1445 1.429 . S
C1451 C1452 1.523 . S
C1452 C1433 1.368 . S
C1452 C1446 1.368 . S
C1452 C1451 1.523 . S
C1453 C1437 1.429 . S
C1453 C1449 1.429 . S
C1453 C1454 1.523 . S
C1454 C1438 1.368 . S
C1454 C1450 1.368 . S
C1454 C1453 1.523 . S
H1455 C1430 0.950 . S
H1456 C1432 0.950 . S
H1457 C1433 0.949 . S
H1458 C1435 0.950 . S
H1459 C1437 0.950 . S
C1460 C1461 1.349 . S
C1460 C1462 1.327 . S
C1460 H1485 0.950 . S
C1461 C1460 1.349 . S
C1461 C1477 1.349 . S
C1462 C1460 1.327 . S
C1462 C1481 1.429 . S
C1462 H1486 0.950 . S
C1463 C1480 1.574 . S
C1463 C1482 1.368 . S
C1463 H1487 0.949 . S
H1464 C1468 0.949 . S
C1465 C1466 1.349 . S
C1465 C1467 1.327 . S
C1465 H1488 0.950 . S
C1466 C1465 1.349 . S
C1466 C1478 1.349 . S
C1467 C1465 1.327 . S
C1467 C1483 1.429 . S
C1467 H1489 0.950 . S
C1468 H1464 0.949 . S
C1468 C1476 1.574 . S
C1468 C1484 1.368 . S
H1469 C1477 0.950 . S
H1470 C1475 0.950 . S
H1471 C1476 0.949 . S
H1472 C1478 0.950 . S
H1473 C1479 0.950 . S
H1474 C1480 0.949 . S
C1475 H1470 0.950 . S
C1475 C1477 1.327 . S
C1475 C1481 1.429 . S
C1476 C1468 1.574 . S
C1476 H1471 0.949 . S
C1476 C1482 1.368 . S
C1477 C1461 1.349 . S
C1477 H1469 0.950 . S
C1477 C1475 1.327 . S
C1478 C1466 1.349 . S
C1478 H1472 0.950 . S
C1478 C1479 1.327 . S
C1479 H1473 0.950 . S
C1479 C1478 1.327 . S
C1479 C1483 1.429 . S
C1480 C1463 1.574 . S
C1480 H1474 0.949 . S
C1480 C1484 1.368 . S
C1481 C1462 1.429 . S
C1481 C1475 1.429 . S
C1481 C1482 1.523 . S
C1482 C1463 1.368 . S
C1482 C1476 1.368 . S
C1482 C1481 1.523 . S
C1483 C1467 1.429 . S
C1483 C1479 1.429 . S
C1483 C1484 1.523 . S
C1484 C1468 1.368 . S
C1484 C1480 1.368 . S
C1484 C1483 1.523 . S
H1485 C1460 0.950 . S
H1486 C1462 0.950 . S
H1487 C1463 0.949 . S
H1488 C1465 0.950 . S
H1489 C1467 0.950 . S
C1490 C1491 1.349 . S
C1490 C1492 1.327 . S
C1490 H1515 0.950 . S
C1491 C1490 1.349 . S
C1491 C1507 1.349 . S
C1492 C1490 1.327 . S
C1492 C1511 1.429 . S
C1492 H1516 0.950 . S
C1493 C1510 1.574 . S
C1493 C1512 1.368 . S
C1493 H1517 0.949 . S
H1494 C1498 0.949 . S
C1495 C1496 1.349 . S
C1495 C1497 1.327 . S
C1495 H1518 0.950 . S
C1496 C1495 1.349 . S
C1496 C1508 1.349 . S
C1497 C1495 1.327 . S
C1497 C1513 1.429 . S
C1497 H1519 0.950 . S
C1498 H1494 0.949 . S
C1498 C1506 1.574 . S
C1498 C1514 1.368 . S
H1499 C1507 0.950 . S
H1500 C1505 0.950 . S
H1501 C1506 0.949 . S
H1502 C1508 0.950 . S
H1503 C1509 0.950 . S
H1504 C1510 0.949 . S
C1505 H1500 0.950 . S
C1505 C1507 1.327 . S
C1505 C1511 1.429 . S
C1506 C1498 1.574 . S
C1506 H1501 0.949 . S
C1506 C1512 1.368 . S
C1507 C1491 1.349 . S
C1507 H1499 0.950 . S
C1507 C1505 1.327 . S
C1508 C1496 1.349 . S
C1508 H1502 0.950 . S
C1508 C1509 1.327 . S
C1509 H1503 0.950 . S
C1509 C1508 1.327 . S
C1509 C1513 1.429 . S
C1510 C1493 1.574 . S
C1510 H1504 0.949 . S
C1510 C1514 1.368 . S
C1511 C1492 1.429 . S
C1511 C1505 1.429 . S
C1511 C1512 1.523 . S
C1512 C1493 1.368 . S
C1512 C1506 1.368 . S
C1512 C1511 1.523 . S
C1513 C1497 1.429 . S
C1513 C1509 1.429 . S
C1513 C1514 1.523 . S
C1514 C1498 1.368 . S
C1514 C1510 1.368 . S
C1514 C1513 1.523 . S
H1515 C1490 0.950 . S
H1516 C1492 0.950 . S
H1517 C1493 0.949 . S
H1518 C1495 0.950 . S
H1519 C1497 0.950 . S
C1520 C1521 1.349 . S
C1520 C1522 1.327 . S
C1520 H1545 0.950 . S
C1521 C1520 1.349 . S
C1521 C1537 1.349 . S
C1522 C1520 1.327 . S
C1522 C1541 1.429 . S
C1522 H1546 0.950 . S
C1523 C1540 1.574 . S
C1523 C1542 1.368 . S
C1523 H1547 0.949 . S
H1524 C1528 0.949 . S
C1525 C1526 1.349 . S
C1525 C1527 1.327 . S
C1525 H1548 0.950 . S
C1526 C1525 1.349 . S
C1526 C1538 1.349 . S
C1527 C1525 1.327 . S
C1527 C1543 1.429 . S
C1527 H1549 0.950 . S
C1528 H1524 0.949 . S
C1528 C1536 1.574 . S
C1528 C1544 1.368 . S
H1529 C1537 0.950 . S
H1530 C1535 0.950 . S
H1531 C1536 0.949 . S
H1532 C1538 0.950 . S
H1533 C1539 0.950 . S
H1534 C1540 0.949 . S
C1535 H1530 0.950 . S
C1535 C1537 1.327 . S
C1535 C1541 1.429 . S
C1536 C1528 1.574 . S
C1536 H1531 0.949 . S
C1536 C1542 1.368 . S
C1537 C1521 1.349 . S
C1537 H1529 0.950 . S
C1537 C1535 1.327 . S
C1538 C1526 1.349 . S
C1538 H1532 0.950 . S
C1538 C1539 1.327 . S
C1539 H1533 0.950 . S
C1539 C1538 1.327 . S
C1539 C1543 1.429 . S
C1540 C1523 1.574 . S
C1540 H1534 0.949 . S
C1540 C1544 1.368 . S
C1541 C1522 1.429 . S
C1541 C1535 1.429 . S
C1541 C1542 1.523 . S
C1542 C1523 1.368 . S
C1542 C1536 1.368 . S
C1542 C1541 1.523 . S
C1543 C1527 1.429 . S
C1543 C1539 1.429 . S
C1543 C1544 1.523 . S
C1544 C1528 1.368 . S
C1544 C1540 1.368 . S
C1544 C1543 1.523 . S
H1545 C1520 0.950 . S
H1546 C1522 0.950 . S
H1547 C1523 0.949 . S
H1548 C1525 0.950 . S
H1549 C1527 0.950 . S
C1550 C1551 1.349 . S
C1550 C1552 1.327 . S
C1550 H1575 0.950 . S
C1551 C1550 1.349 . S
C1551 C1567 1.349 . S
C1552 C1550 1.327 . S
C1552 C1571 1.429 . S
C1552 H1576 0.950 . S
C1553 C1570 1.574 . S
C1553 C1572 1.368 . S
C1553 H1577 0.949 . S
H1554 C1558 0.949 . S
C1555 C1556 1.349 . S
C1555 C1557 1.327 . S
C1555 H1578 0.950 . S
C1556 C1555 1.349 . S
C1556 C1568 1.349 . S
C1557 C1555 1.327 . S
C1557 C1573 1.429 . S
C1557 H1579 0.950 . S
C1558 H1554 0.949 . S
C1558 C1566 1.574 . S
C1558 C1574 1.368 . S
H1559 C1567 0.950 . S
H1560 C1565 0.950 . S
H1561 C1566 0.949 . S
H1562 C1568 0.950 . S
H1563 C1569 0.950 . S
H1564 C1570 0.949 . S
C1565 H1560 0.950 . S
C1565 C1567 1.327 . S
C1565 C1571 1.429 . S
C1566 C1558 1.574 . S
C1566 H1561 0.949 . S
C1566 C1572 1.368 . S
C1567 C1551 1.349 . S
C1567 H1559 0.950 . S
C1567 C1565 1.327 . S
C1568 C1556 1.349 . S
C1568 H1562 0.950 . S
C1568 C1569 1.327 . S
C1569 H1563 0.950 . S
C1569 C1568 1.327 . S
C1569 C1573 1.429 . S
C1570 C1553 1.574 . S
C1570 H1564 0.949 . S
C1570 C1574 1.368 . S
C1571 C1552 1.429 . S
C1571 C1565 1.429 . S
C1571 C1572 1.523 . S
C1572 C1553 1.368 . S
C1572 C1566 1.368 . S
C1572 C1571 1.523 . S
C1573 C1557 1.429 . S
C1573 C1569 1.429 . S
C1573 C1574 1.523 . S
C1574 C1558 1.368 . S
C1574 C1570 1.368 . S
C1574 C1573 1.523 . S
H1575 C1550 0.950 . S
H1576 C1552 0.950 . S
H1577 C1553 0.949 . S
H1578 C1555 0.950 . S
H1579 C1557 0.950 . S
C1580 C1581 1.349 . S
C1580 C1582 1.327 . S
C1580 H1605 0.950 . S
C1581 C1580 1.349 . S
C1581 C1597 1.349 . S
C1582 C1580 1.327 . S
C1582 C1601 1.429 . S
C1582 H1606 0.950 . S
C1583 C1600 1.574 . S
C1583 C1602 1.368 . S
C1583 H1607 0.949 . S
H1584 C1588 0.949 . S
C1585 C1586 1.349 . S
C1585 C1587 1.327 . S
C1585 H1608 0.950 . S
C1586 C1585 1.349 . S
C1586 C1598 1.349 . S
C1587 C1585 1.327 . S
C1587 C1603 1.429 . S
C1587 H1609 0.950 . S
C1588 H1584 0.949 . S
C1588 C1596 1.574 . S
C1588 C1604 1.368 . S
H1589 C1597 0.950 . S
H1590 C1595 0.950 . S
H1591 C1596 0.949 . S
H1592 C1598 0.950 . S
H1593 C1599 0.950 . S
H1594 C1600 0.949 . S
C1595 H1590 0.950 . S
C1595 C1597 1.327 . S
C1595 C1601 1.429 . S
C1596 C1588 1.574 . S
C1596 H1591 0.949 . S
C1596 C1602 1.368 . S
C1597 C1581 1.349 . S
C1597 H1589 0.950 . S
C1597 C1595 1.327 . S
C1598 C1586 1.349 . S
C1598 H1592 0.950 . S
C1598 C1599 1.327 . S
C1599 H1593 0.950 . S
C1599 C1598 1.327 . S
C1599 C1603 1.429 . S
C1600 C1583 1.574 . S
C1600 H1594 0.949 . S
C1600 C1604 1.368 . S
C1601 C1582 1.429 . S
C1601 C1595 1.429 . S
C1601 C1602 1.523 . S
C1602 C1583 1.368 . S
C1602 C1596 1.368 . S
C1602 C1601 1.523 . S
C1603 C1587 1.429 . S
C1603 C1599 1.429 . S
C1603 C1604 1.523 . S
C1604 C1588 1.368 . S
C1604 C1600 1.368 . S
C1604 C1603 1.523 . S
H1605 C1580 0.950 . S
H1606 C1582 0.950 . S
H1607 C1583 0.949 . S
H1608 C1585 0.950 . S
H1609 C1587 0.950 . S
C1610 C1611 1.349 . S
C1610 C1612 1.327 . S
C1610 H1635 0.950 . S
C1611 C1610 1.349 . S
C1611 C1627 1.349 . S
C1612 C1610 1.327 . S
C1612 C1631 1.429 . S
C1612 H1636 0.950 . S
C1613 C1630 1.574 . S
C1613 C1632 1.368 . S
C1613 H1637 0.949 . S
H1614 C1618 0.949 . S
C1615 C1616 1.349 . S
C1615 C1617 1.327 . S
C1615 H1638 0.950 . S
C1616 C1615 1.349 . S
C1616 C1628 1.349 . S
C1617 C1615 1.327 . S
C1617 C1633 1.429 . S
C1617 H1639 0.950 . S
C1618 H1614 0.949 . S
C1618 C1626 1.574 . S
C1618 C1634 1.368 . S
H1619 C1627 0.950 . S
H1620 C1625 0.950 . S
H1621 C1626 0.949 . S
H1622 C1628 0.950 . S
H1623 C1629 0.950 . S
H1624 C1630 0.949 . S
C1625 H1620 0.950 . S
C1625 C1627 1.327 . S
C1625 C1631 1.429 . S
C1626 C1618 1.574 . S
C1626 H1621 0.949 . S
C1626 C1632 1.368 . S
C1627 C1611 1.349 . S
C1627 H1619 0.950 . S
C1627 C1625 1.327 . S
C1628 C1616 1.349 . S
C1628 H1622 0.950 . S
C1628 C1629 1.327 . S
C1629 H1623 0.950 . S
C1629 C1628 1.327 . S
C1629 C1633 1.429 . S
C1630 C1613 1.574 . S
C1630 H1624 0.949 . S
C1630 C1634 1.368 . S
C1631 C1612 1.429 . S
C1631 C1625 1.429 . S
C1631 C1632 1.523 . S
C1632 C1613 1.368 . S
C1632 C1626 1.368 . S
C1632 C1631 1.523 . S
C1633 C1617 1.429 . S
C1633 C1629 1.429 . S
C1633 C1634 1.523 . S
C1634 C1618 1.368 . S
C1634 C1630 1.368 . S
C1634 C1633 1.523 . S
H1635 C1610 0.950 . S
H1636 C1612 0.950 . S
H1637 C1613 0.949 . S
H1638 C1615 0.950 . S
H1639 C1617 0.950 . S
C1640 C1641 1.349 . S
C1640 C1642 1.327 . S
C1640 H1665 0.950 . S
C1641 C1640 1.349 . S
C1641 C1657 1.349 . S
C1642 C1640 1.327 . S
C1642 C1661 1.429 . S
C1642 H1666 0.950 . S
C1643 C1660 1.574 . S
C1643 C1662 1.368 . S
C1643 H1667 0.949 . S
H1644 C1648 0.949 . S
C1645 C1646 1.349 . S
C1645 C1647 1.327 . S
C1645 H1668 0.950 . S
C1646 C1645 1.349 . S
C1646 C1658 1.349 . S
C1647 C1645 1.327 . S
C1647 C1663 1.429 . S
C1647 H1669 0.950 . S
C1648 H1644 0.949 . S
C1648 C1656 1.574 . S
C1648 C1664 1.368 . S
H1649 C1657 0.950 . S
H1650 C1655 0.950 . S
H1651 C1656 0.949 . S
H1652 C1658 0.950 . S
H1653 C1659 0.950 . S
H1654 C1660 0.949 . S
C1655 H1650 0.950 . S
C1655 C1657 1.327 . S
C1655 C1661 1.429 . S
C1656 C1648 1.574 . S
C1656 H1651 0.949 . S
C1656 C1662 1.368 . S
C1657 C1641 1.349 . S
C1657 H1649 0.950 . S
C1657 C1655 1.327 . S
C1658 C1646 1.349 . S
C1658 H1652 0.950 . S
C1658 C1659 1.327 . S
C1659 H1653 0.950 . S
C1659 C1658 1.327 . S
C1659 C1663 1.429 . S
C1660 C1643 1.574 . S
C1660 H1654 0.949 . S
C1660 C1664 1.368 . S
C1661 C1642 1.429 . S
C1661 C1655 1.429 . S
C1661 C1662 1.523 . S
C1662 C1643 1.368 . S
C1662 C1656 1.368 . S
C1662 C1661 1.523 . S
C1663 C1647 1.429 . S
C1663 C1659 1.429 . S
C1663 C1664 1.523 . S
C1664 C1648 1.368 . S
C1664 C1660 1.368 . S
C1664 C1663 1.523 . S
H1665 C1640 0.950 . S
H1666 C1642 0.950 . S
H1667 C1643 0.949 . S
H1668 C1645 0.950 . S
H1669 C1647 0.950 . S
C1670 C1671 1.349 . S
C1670 C1672 1.327 . S
C1670 H1695 0.950 . S
C1671 C1670 1.349 . S
C1671 C1687 1.349 . S
C1672 C1670 1.327 . S
C1672 C1691 1.429 . S
C1672 H1696 0.950 . S
C1673 C1690 1.574 . S
C1673 C1692 1.368 . S
C1673 H1697 0.949 . S
H1674 C1678 0.949 . S
C1675 C1676 1.349 . S
C1675 C1677 1.327 . S
C1675 H1698 0.950 . S
C1676 C1675 1.349 . S
C1676 C1688 1.349 . S
C1677 C1675 1.327 . S
C1677 C1693 1.429 . S
C1677 H1699 0.950 . S
C1678 H1674 0.949 . S
C1678 C1686 1.574 . S
C1678 C1694 1.368 . S
H1679 C1687 0.950 . S
H1680 C1685 0.950 . S
H1681 C1686 0.949 . S
H1682 C1688 0.950 . S
H1683 C1689 0.950 . S
H1684 C1690 0.949 . S
C1685 H1680 0.950 . S
C1685 C1687 1.327 . S
C1685 C1691 1.429 . S
C1686 C1678 1.574 . S
C1686 H1681 0.949 . S
C1686 C1692 1.368 . S
C1687 C1671 1.349 . S
C1687 H1679 0.950 . S
C1687 C1685 1.327 . S
C1688 C1676 1.349 . S
C1688 H1682 0.950 . S
C1688 C1689 1.327 . S
C1689 H1683 0.950 . S
C1689 C1688 1.327 . S
C1689 C1693 1.429 . S
C1690 C1673 1.574 . S
C1690 H1684 0.949 . S
C1690 C1694 1.368 . S
C1691 C1672 1.429 . S
C1691 C1685 1.429 . S
C1691 C1692 1.523 . S
C1692 C1673 1.368 . S
C1692 C1686 1.368 . S
C1692 C1691 1.523 . S
C1693 C1677 1.429 . S
C1693 C1689 1.429 . S
C1693 C1694 1.523 . S
C1694 C1678 1.368 . S
C1694 C1690 1.368 . S
C1694 C1693 1.523 . S
H1695 C1670 0.950 . S
H1696 C1672 0.950 . S
H1697 C1673 0.949 . S
H1698 C1675 0.950 . S
H1699 C1677 0.950 . S
C1700 C1701 1.349 . S
C1700 C1702 1.327 . S
C1700 H1725 0.950 . S
C1701 C1700 1.349 . S
C1701 C1717 1.349 . S
C1702 C1700 1.327 . S
C1702 C1721 1.429 . S
C1702 H1726 0.950 . S
C1703 C1720 1.574 . S
C1703 C1722 1.368 . S
C1703 H1727 0.949 . S
H1704 C1708 0.949 . S
C1705 C1706 1.349 . S
C1705 C1707 1.327 . S
C1705 H1728 0.950 . S
C1706 C1705 1.349 . S
C1706 C1718 1.349 . S
C1707 C1705 1.327 . S
C1707 C1723 1.429 . S
C1707 H1729 0.950 . S
C1708 H1704 0.949 . S
C1708 C1716 1.574 . S
C1708 C1724 1.368 . S
H1709 C1717 0.950 . S
H1710 C1715 0.950 . S
H1711 C1716 0.949 . S
H1712 C1718 0.950 . S
H1713 C1719 0.950 . S
H1714 C1720 0.949 . S
C1715 H1710 0.950 . S
C1715 C1717 1.327 . S
C1715 C1721 1.429 . S
C1716 C1708 1.574 . S
C1716 H1711 0.949 . S
C1716 C1722 1.368 . S
C1717 C1701 1.349 . S
C1717 H1709 0.950 . S
C1717 C1715 1.327 . S
C1718 C1706 1.349 . S
C1718 H1712 0.950 . S
C1718 C1719 1.327 . S
C1719 H1713 0.950 . S
C1719 C1718 1.327 . S
C1719 C1723 1.429 . S
C1720 C1703 1.574 . S
C1720 H1714 0.949 . S
C1720 C1724 1.368 . S
C1721 C1702 1.429 . S
C1721 C1715 1.429 . S
C1721 C1722 1.523 . S
C1722 C1703 1.368 . S
C1722 C1716 1.368 . S
C1722 C1721 1.523 . S
C1723 C1707 1.429 . S
C1723 C1719 1.429 . S
C1723 C1724 1.523 . S
C1724 C1708 1.368 . S
C1724 C1720 1.368 . S
C1724 C1723 1.523 . S
H1725 C1700 0.950 . S
H1726 C1702 0.950 . S
H1727 C1703 0.949 . S
H1728 C1705 0.950 . S
H1729 C1707 0.950 . S
C1730 C1731 1.349 . S
C1730 C1732 1.327 . S
C1730 H1755 0.950 . S
C1731 C1730 1.349 . S
C1731 C1747 1.349 . S
C1732 C1730 1.327 . S
C1732 C1751 1.429 . S
C1732 H1756 0.950 . S
C1733 C1750 1.574 . S
C1733 C1752 1.368 . S
C1733 H1757 0.949 . S
H1734 C1738 0.949 . S
C1735 C1736 1.349 . S
C1735 C1737 1.327 . S
C1735 H1758 0.950 . S
C1736 C1735 1.349 . S
C1736 C1748 1.349 . S
C1737 C1735 1.327 . S
C1737 C1753 1.429 . S
C1737 H1759 0.950 . S
C1738 H1734 0.949 . S
C1738 C1746 1.574 . S
C1738 C1754 1.368 . S
H1739 C1747 0.950 . S
H1740 C1745 0.950 . S
H1741 C1746 0.949 . S
H1742 C1748 0.950 . S
H1743 C1749 0.950 . S
H1744 C1750 0.949 . S
C1745 H1740 0.950 . S
C1745 C1747 1.327 . S
C1745 C1751 1.429 . S
C1746 C1738 1.574 . S
C1746 H1741 0.949 . S
C1746 C1752 1.368 . S
C1747 C1731 1.349 . S
C1747 H1739 0.950 . S
C1747 C1745 1.327 . S
C1748 C1736 1.349 . S
C1748 H1742 0.950 . S
C1748 C1749 1.327 . S
C1749 H1743 0.950 . S
C1749 C1748 1.327 . S
C1749 C1753 1.429 . S
C1750 C1733 1.574 . S
C1750 H1744 0.949 . S
C1750 C1754 1.368 . S
C1751 C1732 1.429 . S
C1751 C1745 1.429 . S
C1751 C1752 1.523 . S
C1752 C1733 1.368 . S
C1752 C1746 1.368 . S
C1752 C1751 1.523 . S
C1753 C1737 1.429 . S
C1753 C1749 1.429 . S
C1753 C1754 1.523 . S
C1754 C1738 1.368 . S
C1754 C1750 1.368 . S
C1754 C1753 1.523 . S
H1755 C1730 0.950 . S
H1756 C1732 0.950 . S
H1757 C1733 0.949 . S
H1758 C1735 0.950 . S
H1759 C1737 0.950 . S
C1760 C1761 1.349 . S
C1760 C1762 1.327 . S
C1760 H1785 0.950 . S
C1761 C1760 1.349 . S
C1761 C1777 1.349 . S
C1762 C1760 1.327 . S
C1762 C1781 1.429 . S
C1762 H1786 0.950 . S
C1763 C1780 1.574 . S
C1763 C1782 1.368 . S
C1763 H1787 0.949 . S
H1764 C1768 0.949 . S
C1765 C1766 1.349 . S
C1765 C1767 1.327 . S
C1765 H1788 0.950 . S
C1766 C1765 1.349 . S
C1766 C1778 1.349 . S
C1767 C1765 1.327 . S
C1767 C1783 1.429 . S
C1767 H1789 0.950 . S
C1768 H1764 0.949 . S
C1768 C1776 1.574 . S
C1768 C1784 1.368 . S
H1769 C1777 0.950 . S
H1770 C1775 0.950 . S
H1771 C1776 0.949 . S
H1772 C1778 0.950 . S
H1773 C1779 0.950 . S
H1774 C1780 0.949 . S
C1775 H1770 0.950 . S
C1775 C1777 1.327 . S
C1775 C1781 1.429 . S
C1776 C1768 1.574 . S
C1776 H1771 0.949 . S
C1776 C1782 1.368 . S
C1777 C1761 1.349 . S
C1777 H1769 0.950 . S
C1777 C1775 1.327 . S
C1778 C1766 1.349 . S
C1778 H1772 0.950 . S
C1778 C1779 1.327 . S
C1779 H1773 0.950 . S
C1779 C1778 1.327 . S
C1779 C1783 1.429 . S
C1780 C1763 1.574 . S
C1780 H1774 0.949 . S
C1780 C1784 1.368 . S
C1781 C1762 1.429 . S
C1781 C1775 1.429 . S
C1781 C1782 1.523 . S
C1782 C1763 1.368 . S
C1782 C1776 1.368 . S
C1782 C1781 1.523 . S
C1783 C1767 1.429 . S
C1783 C1779 1.429 . S
C1783 C1784 1.523 . S
C1784 C1768 1.368 . S
C1784 C1780 1.368 . S
C1784 C1783 1.523 . S
H1785 C1760 0.950 . S
H1786 C1762 0.950 . S
H1787 C1763 0.949 . S
H1788 C1765 0.950 . S
H1789 C1767 0.950 . S
C1790 C1791 1.349 . S
C1790 C1792 1.327 . S
C1790 H1815 0.950 . S
C1791 C1790 1.349 . S
C1791 C1807 1.349 . S
C1792 C1790 1.327 . S
C1792 C1811 1.429 . S
C1792 H1816 0.950 . S
C1793 C1810 1.574 . S
C1793 C1812 1.368 . S
C1793 H1817 0.949 . S
H1794 C1798 0.949 . S
C1795 C1796 1.349 . S
C1795 C1797 1.327 . S
C1795 H1818 0.950 . S
C1796 C1795 1.349 . S
C1796 C1808 1.349 . S
C1797 C1795 1.327 . S
C1797 C1813 1.429 . S
C1797 H1819 0.950 . S
C1798 H1794 0.949 . S
C1798 C1806 1.574 . S
C1798 C1814 1.368 . S
H1799 C1807 0.950 . S
H1800 C1805 0.950 . S
H1801 C1806 0.949 . S
H1802 C1808 0.950 . S
H1803 C1809 0.950 . S
H1804 C1810 0.949 . S
C1805 H1800 0.950 . S
C1805 C1807 1.327 . S
C1805 C1811 1.429 . S
C1806 C1798 1.574 . S
C1806 H1801 0.949 . S
C1806 C1812 1.368 . S
C1807 C1791 1.349 . S
C1807 H1799 0.950 . S
C1807 C1805 1.327 . S
C1808 C1796 1.349 . S
C1808 H1802 0.950 . S
C1808 C1809 1.327 . S
C1809 H1803 0.950 . S
C1809 C1808 1.327 . S
C1809 C1813 1.429 . S
C1810 C1793 1.574 . S
C1810 H1804 0.949 . S
C1810 C1814 1.368 . S
C1811 C1792 1.429 . S
C1811 C1805 1.429 . S
C1811 C1812 1.523 . S
C1812 C1793 1.368 . S
C1812 C1806 1.368 . S
C1812 C1811 1.523 . S
C1813 C1797 1.429 . S
C1813 C1809 1.429 . S
C1813 C1814 1.523 . S
C1814 C1798 1.368 . S
C1814 C1810 1.368 . S
C1814 C1813 1.523 . S
H1815 C1790 0.950 . S
H1816 C1792 0.950 . S
H1817 C1793 0.949 . S
H1818 C1795 0.950 . S
H1819 C1797 0.950 . S
C1820 C1821 1.349 . S
C1820 C1822 1.327 . S
C1820 H1845 0.950 . S
C1821 C1820 1.349 . S
C1821 C1837 1.349 . S
C1822 C1820 1.327 . S
C1822 C1841 1.429 . S
C1822 H1846 0.950 . S
C1823 C1840 1.574 . S
C1823 C1842 1.368 . S
C1823 H1847 0.949 . S
H1824 C1828 0.949 . S
C1825 C1826 1.349 . S
C1825 C1827 1.327 . S
C1825 H1848 0.950 . S
C1826 C1825 1.349 . S
C1826 C1838 1.349 . S
C1827 C1825 1.327 . S
C1827 C1843 1.429 . S
C1827 H1849 0.950 . S
C1828 H1824 0.949 . S
C1828 C1836 1.574 . S
C1828 C1844 1.368 . S
H1829 C1837 0.950 . S
H1830 C1835 0.950 . S
H1831 C1836 0.949 . S
H1832 C1838 0.950 . S
H1833 C1839 0.950 . S
H1834 C1840 0.949 . S
C1835 H1830 0.950 . S
C1835 C1837 1.327 . S
C1835 C1841 1.429 . S
C1836 C1828 1.574 . S
C1836 H1831 0.949 . S
C1836 C1842 1.368 . S
C1837 C1821 1.349 . S
C1837 H1829 0.950 . S
C1837 C1835 1.327 . S
C1838 C1826 1.349 . S
C1838 H1832 0.950 . S
C1838 C1839 1.327 . S
C1839 H1833 0.950 . S
C1839 C1838 1.327 . S
C1839 C1843 1.429 . S
C1840 C1823 1.574 . S
C1840 H1834 0.949 . S
C1840 C1844 1.368 . S
C1841 C1822 1.429 . S
C1841 C1835 1.429 . S
C1841 C1842 1.523 . S
C1842 C1823 1.368 . S
C1842 C1836 1.368 . S
C1842 C1841 1.523 . S
C1843 C1827 1.429 . S
C1843 C1839 1.429 . S
C1843 C1844 1.523 . S
C1844 C1828 1.368 . S
C1844 C1840 1.368 . S
C1844 C1843 1.523 . S
H1845 C1820 0.950 . S
H1846 C1822 0.950 . S
H1847 C1823 0.949 . S
H1848 C1825 0.950 . S
H1849 C1827 0.950 . S
C1850 C1851 1.349 . S
C1850 C1852 1.327 . S
C1850 H1875 0.950 . S
C1851 C1850 1.349 . S
C1851 C1867 1.349 . S
C1852 C1850 1.327 . S
C1852 C1871 1.429 . S
C1852 H1876 0.950 . S
C1853 C1870 1.574 . S
C1853 C1872 1.368 . S
C1853 H1877 0.949 . S
H1854 C1858 0.949 . S
C1855 C1856 1.349 . S
C1855 C1857 1.327 . S
C1855 H1878 0.950 . S
C1856 C1855 1.349 . S
C1856 C1868 1.349 . S
C1857 C1855 1.327 . S
C1857 C1873 1.429 . S
C1857 H1879 0.950 . S
C1858 H1854 0.949 . S
C1858 C1866 1.574 . S
C1858 C1874 1.368 . S
H1859 C1867 0.950 . S
H1860 C1865 0.950 . S
H1861 C1866 0.949 . S
H1862 C1868 0.950 . S
H1863 C1869 0.950 . S
H1864 C1870 0.949 . S
C1865 H1860 0.950 . S
C1865 C1867 1.327 . S
C1865 C1871 1.429 . S
C1866 C1858 1.574 . S
C1866 H1861 0.949 . S
C1866 C1872 1.368 . S
C1867 C1851 1.349 . S
C1867 H1859 0.950 . S
C1867 C1865 1.327 . S
C1868 C1856 1.349 . S
C1868 H1862 0.950 . S
C1868 C1869 1.327 . S
C1869 H1863 0.950 . S
C1869 C1868 1.327 . S
C1869 C1873 1.429 . S
C1870 C1853 1.574 . S
C1870 H1864 0.949 . S
C1870 C1874 1.368 . S
C1871 C1852 1.429 . S
C1871 C1865 1.429 . S
C1871 C1872 1.523 . S
C1872 C1853 1.368 . S
C1872 C1866 1.368 . S
C1872 C1871 1.523 . S
C1873 C1857 1.429 . S
C1873 C1869 1.429 . S
C1873 C1874 1.523 . S
C1874 C1858 1.368 . S
C1874 C1870 1.368 . S
C1874 C1873 1.523 . S
H1875 C1850 0.950 . S
H1876 C1852 0.950 . S
H1877 C1853 0.949 . S
H1878 C1855 0.950 . S
H1879 C1857 0.950 . S
C1880 C1881 1.349 . S
C1880 C1882 1.327 . S
C1880 H1905 0.950 . S
C1881 C1880 1.349 . S
C1881 C1897 1.349 . S
C1882 C1880 1.327 . S
C1882 C1901 1.429 . S
C1882 H1906 0.950 . S
C1883 C1900 1.574 . S
C1883 C1902 1.368 . S
C1883 H1907 0.949 . S
H1884 C1888 0.949 . S
C1885 C1886 1.349 . S
C1885 C1887 1.327 . S
C1885 H1908 0.950 . S
C1886 C1885 1.349 . S
C1886 C1898 1.349 . S
C1887 C1885 1.327 . S
C1887 C1903 1.429 . S
C1887 H1909 0.950 . S
C1888 H1884 0.949 . S
C1888 C1896 1.574 . S
C1888 C1904 1.368 . S
H1889 C1897 0.950 . S
H1890 C1895 0.950 . S
H1891 C1896 0.949 . S
H1892 C1898 0.950 . S
H1893 C1899 0.950 . S
H1894 C1900 0.949 . S
C1895 H1890 0.950 . S
C1895 C1897 1.327 . S
C1895 C1901 1.429 . S
C1896 C1888 1.574 . S
C1896 H1891 0.949 . S
C1896 C1902 1.368 . S
C1897 C1881 1.349 . S
C1897 H1889 0.950 . S
C1897 C1895 1.327 . S
C1898 C1886 1.349 . S
C1898 H1892 0.950 . S
C1898 C1899 1.327 . S
C1899 H1893 0.950 . S
C1899 C1898 1.327 . S
C1899 C1903 1.429 . S
C1900 C1883 1.574 . S
C1900 H1894 0.949 . S
C1900 C1904 1.368 . S
C1901 C1882 1.429 . S
C1901 C1895 1.429 . S
C1901 C1902 1.523 . S
C1902 C1883 1.368 . S
C1902 C1896 1.368 . S
C1902 C1901 1.523 . S
C1903 C1887 1.429 . S
C1903 C1899 1.429 . S
C1903 C1904 1.523 . S
C1904 C1888 1.368 . S
C1904 C1900 1.368 . S
C1904 C1903 1.523 . S
H1905 C1880 0.950 . S
H1906 C1882 0.950 . S
H1907 C1883 0.949 . S
H1908 C1885 0.950 . S
H1909 C1887 0.950 . S
C1910 C1911 1.349 . S
C1910 C1912 1.327 . S
C1910 H1935 0.950 . S
C1911 C1910 1.349 . S
C1911 C1927 1.349 . S
C1912 C1910 1.327 . S
C1912 C1931 1.429 . S
C1912 H1936 0.950 . S
C1913 C1930 1.574 . S
C1913 C1932 1.368 . S
C1913 H1937 0.949 . S
H1914 C1918 0.949 . S
C1915 C1916 1.349 . S
C1915 C1917 1.327 . S
C1915 H1938 0.950 . S
C1916 C1915 1.349 . S
C1916 C1928 1.349 . S
C1917 C1915 1.327 . S
C1917 C1933 1.429 . S
C1917 H1939 0.950 . S
C1918 H1914 0.949 . S
C1918 C1926 1.574 . S
C1918 C1934 1.368 . S
H1919 C1927 0.950 . S
H1920 C1925 0.950 . S
H1921 C1926 0.949 . S
H1922 C1928 0.950 . S
H1923 C1929 0.950 . S
H1924 C1930 0.949 . S
C1925 H1920 0.950 . S
C1925 C1927 1.327 . S
C1925 C1931 1.429 . S
C1926 C1918 1.574 . S
C1926 H1921 0.949 . S
C1926 C1932 1.368 . S
C1927 C1911 1.349 . S
C1927 H1919 0.950 . S
C1927 C1925 1.327 . S
C1928 C1916 1.349 . S
C1928 H1922 0.950 . S
C1928 C1929 1.327 . S
C1929 H1923 0.950 . S
C1929 C1928 1.327 . S
C1929 C1933 1.429 . S
C1930 C1913 1.574 . S
C1930 H1924 0.949 . S
C1930 C1934 1.368 . S
C1931 C1912 1.429 . S
C1931 C1925 1.429 . S
C1931 C1932 1.523 . S
C1932 C1913 1.368 . S
C1932 C1926 1.368 . S
C1932 C1931 1.523 . S
C1933 C1917 1.429 . S
C1933 C1929 1.429 . S
C1933 C1934 1.523 . S
C1934 C1918 1.368 . S
C1934 C1930 1.368 . S
C1934 C1933 1.523 . S
H1935 C1910 0.950 . S
H1936 C1912 0.950 . S
H1937 C1913 0.949 . S
H1938 C1915 0.950 . S
H1939 C1917 0.950 . S
C1940 C1941 1.349 . S
C1940 C1942 1.327 . S
C1940 H1965 0.950 . S
C1941 C1940 1.349 . S
C1941 C1957 1.349 . S
C1942 C1940 1.327 . S
C1942 C1961 1.429 . S
C1942 H1966 0.950 . S
C1943 C1960 1.574 . S
C1943 C1962 1.368 . S
C1943 H1967 0.949 . S
H1944 C1948 0.949 . S
C1945 C1946 1.349 . S
C1945 C1947 1.327 . S
C1945 H1968 0.950 . S
C1946 C1945 1.349 . S
C1946 C1958 1.349 . S
C1947 C1945 1.327 . S
C1947 C1963 1.429 . S
C1947 H1969 0.950 . S
C1948 H1944 0.949 . S
C1948 C1956 1.574 . S
C1948 C1964 1.368 . S
H1949 C1957 0.950 . S
H1950 C1955 0.950 . S
H1951 C1956 0.949 . S
H1952 C1958 0.950 . S
H1953 C1959 0.950 . S
H1954 C1960 0.949 . S
C1955 H1950 0.950 . S
C1955 C1957 1.327 . S
C1955 C1961 1.429 . S
C1956 C1948 1.574 . S
C1956 H1951 0.949 . S
C1956 C1962 1.368 . S
C1957 C1941 1.349 . S
C1957 H1949 0.950 . S
C1957 C1955 1.327 . S
C1958 C1946 1.349 . S
C1958 H1952 0.950 . S
C1958 C1959 1.327 . S
C1959 H1953 0.950 . S
C1959 C1958 1.327 . S
C1959 C1963 1.429 . S
C1960 C1943 1.574 . S
C1960 H1954 0.949 . S
C1960 C1964 1.368 . S
C1961 C1942 1.429 . S
C1961 C1955 1.429 . S
C1961 C1962 1.523 . S
C1962 C1943 1.368 . S
C1962 C1956 1.368 . S
C1962 C1961 1.523 . S
C1963 C1947 1.429 . S
C1963 C1959 1.429 . S
C1963 C1964 1.523 . S
C1964 C1948 1.368 . S
C1964 C1960 1.368 . S
C1964 C1963 1.523 . S
H1965 C1940 0.950 . S
H1966 C1942 0.950 . S
H1967 C1943 0.949 . S
H1968 C1945 0.950 . S
H1969 C1947 0.950 . S
C1970 C1971 1.349 . S
C1970 C1972 1.327 . S
C1970 H1995 0.950 . S
C1971 C1970 1.349 . S
C1971 C1987 1.349 . S
C1972 C1970 1.327 . S
C1972 C1991 1.429 . S
C1972 H1996 0.950 . S
C1973 C1990 1.574 . S
C1973 C1992 1.368 . S
C1973 H1997 0.949 . S
H1974 C1978 0.949 . S
C1975 C1976 1.349 . S
C1975 C1977 1.327 . S
C1975 H1998 0.950 . S
C1976 C1975 1.349 . S
C1976 C1988 1.349 . S
C1977 C1975 1.327 . S
C1977 C1993 1.429 . S
C1977 H1999 0.950 . S
C1978 H1974 0.949 . S
C1978 C1986 1.574 . S
C1978 C1994 1.368 . S
H1979 C1987 0.950 . S
H1980 C1985 0.950 . S
H1981 C1986 0.949 . S
H1982 C1988 0.950 . S
H1983 C1989 0.950 . S
H1984 C1990 0.949 . S
C1985 H1980 0.950 . S
C1985 C1987 1.327 . S
C1985 C1991 1.429 . S
C1986 C1978 1.574 . S
C1986 H1981 0.949 . S
C1986 C1992 1.368 . S
C1987 C1971 1.349 . S
C1987 H1979 0.950 . S
C1987 C1985 1.327 . S
C1988 C1976 1.349 . S
C1988 H1982 0.950 . S
C1988 C1989 1.327 . S
C1989 H1983 0.950 . S
C1989 C1988 1.327 . S
C1989 C1993 1.429 . S
C1990 C1973 1.574 . S
C1990 H1984 0.949 . S
C1990 C1994 1.368 . S
C1991 C1972 1.429 . S
C1991 C1985 1.429 . S
C1991 C1992 1.523 . S
C1992 C1973 1.368 . S
C1992 C1986 1.368 . S
C1992 C1991 1.523 . S
C1993 C1977 1.429 . S
C1993 C1989 1.429 . S
C1993 C1994 1.523 . S
C1994 C1978 1.368 . S
C1994 C1990 1.368 . S
C1994 C1993 1.523 . S
H1995 C1970 0.950 . S
H1996 C1972 0.950 . S
H1997 C1973 0.949 . S
H1998 C1975 0.950 . S
H1999 C1977 0.950 . S
C2000 C2001 1.349 . S
C2000 C2002 1.327 . S
C2000 H2025 0.950 . S
C2001 C2000 1.349 . S
C2001 C2017 1.349 . S
C2002 C2000 1.327 . S
C2002 C2021 1.429 . S
C2002 H2026 0.950 . S
C2003 C2020 1.574 . S
C2003 C2022 1.368 . S
C2003 H2027 0.949 . S
H2004 C2008 0.949 . S
C2005 C2006 1.349 . S
C2005 C2007 1.327 . S
C2005 H2028 0.950 . S
C2006 C2005 1.349 . S
C2006 C2018 1.349 . S
C2007 C2005 1.327 . S
C2007 C2023 1.429 . S
C2007 H2029 0.950 . S
C2008 H2004 0.949 . S
C2008 C2016 1.574 . S
C2008 C2024 1.368 . S
H2009 C2017 0.950 . S
H2010 C2015 0.950 . S
H2011 C2016 0.949 . S
H2012 C2018 0.950 . S
H2013 C2019 0.950 . S
H2014 C2020 0.949 . S
C2015 H2010 0.950 . S
C2015 C2017 1.327 . S
C2015 C2021 1.429 . S
C2016 C2008 1.574 . S
C2016 H2011 0.949 . S
C2016 C2022 1.368 . S
C2017 C2001 1.349 . S
C2017 H2009 0.950 . S
C2017 C2015 1.327 . S
C2018 C2006 1.349 . S
C2018 H2012 0.950 . S
C2018 C2019 1.327 . S
C2019 H2013 0.950 . S
C2019 C2018 1.327 . S
C2019 C2023 1.429 . S
C2020 C2003 1.574 . S
C2020 H2014 0.949 . S
C2020 C2024 1.368 . S
C2021 C2002 1.429 . S
C2021 C2015 1.429 . S
C2021 C2022 1.523 . S
C2022 C2003 1.368 . S
C2022 C2016 1.368 . S
C2022 C2021 1.523 . S
C2023 C2007 1.429 . S
C2023 C2019 1.429 . S
C2023 C2024 1.523 . S
C2024 C2008 1.368 . S
C2024 C2020 1.368 . S
C2024 C2023 1.523 . S
H2025 C2000 0.950 . S
H2026 C2002 0.950 . S
H2027 C2003 0.949 . S
H2028 C2005 0.950 . S
H2029 C2007 0.950 . S
C2030 C2031 1.349 . S
C2030 C2032 1.327 . S
C2030 H2055 0.950 . S
C2031 C2030 1.349 . S
C2031 C2047 1.349 . S
C2032 C2030 1.327 . S
C2032 C2051 1.429 . S
C2032 H2056 0.950 . S
C2033 C2050 1.574 . S
C2033 C2052 1.368 . S
C2033 H2057 0.949 . S
H2034 C2038 0.949 . S
C2035 C2036 1.349 . S
C2035 C2037 1.327 . S
C2035 H2058 0.950 . S
C2036 C2035 1.349 . S
C2036 C2048 1.349 . S
C2037 C2035 1.327 . S
C2037 C2053 1.429 . S
C2037 H2059 0.950 . S
C2038 H2034 0.949 . S
C2038 C2046 1.574 . S
C2038 C2054 1.368 . S
H2039 C2047 0.950 . S
H2040 C2045 0.950 . S
H2041 C2046 0.949 . S
H2042 C2048 0.950 . S
H2043 C2049 0.950 . S
H2044 C2050 0.949 . S
C2045 H2040 0.950 . S
C2045 C2047 1.327 . S
C2045 C2051 1.429 . S
C2046 C2038 1.574 . S
C2046 H2041 0.949 . S
C2046 C2052 1.368 . S
C2047 C2031 1.349 . S
C2047 H2039 0.950 . S
C2047 C2045 1.327 . S
C2048 C2036 1.349 . S
C2048 H2042 0.950 . S
C2048 C2049 1.327 . S
C2049 H2043 0.950 . S
C2049 C2048 1.327 . S
C2049 C2053 1.429 . S
C2050 C2033 1.574 . S
C2050 H2044 0.949 . S
C2050 C2054 1.368 . S
C2051 C2032 1.429 . S
C2051 C2045 1.429 . S
C2051 C2052 1.523 . S
C2052 C2033 1.368 . S
C2052 C2046 1.368 . S
C2052 C2051 1.523 . S
C2053 C2037 1.429 . S
C2053 C2049 1.429 . S
C2053 C2054 1.523 . S
C2054 C2038 1.368 . S
C2054 C2050 1.368 . S
C2054 C2053 1.523 . S
H2055 C2030 0.950 . S
H2056 C2032 0.950 . S
H2057 C2033 0.949 . S
H2058 C2035 0.950 . S
H2059 C2037 0.950 . S
C2060 C2061 1.349 . S
C2060 C2062 1.327 . S
C2060 H2085 0.950 . S
C2061 C2060 1.349 . S
C2061 C2077 1.349 . S
C2062 C2060 1.327 . S
C2062 C2081 1.429 . S
C2062 H2086 0.950 . S
C2063 C2080 1.574 . S
C2063 C2082 1.368 . S
C2063 H2087 0.949 . S
H2064 C2068 0.949 . S
C2065 C2066 1.349 . S
C2065 C2067 1.327 . S
C2065 H2088 0.950 . S
C2066 C2065 1.349 . S
C2066 C2078 1.349 . S
C2067 C2065 1.327 . S
C2067 C2083 1.429 . S
C2067 H2089 0.950 . S
C2068 H2064 0.949 . S
C2068 C2076 1.574 . S
C2068 C2084 1.368 . S
H2069 C2077 0.950 . S
H2070 C2075 0.950 . S
H2071 C2076 0.949 . S
H2072 C2078 0.950 . S
H2073 C2079 0.950 . S
H2074 C2080 0.949 . S
C2075 H2070 0.950 . S
C2075 C2077 1.327 . S
C2075 C2081 1.429 . S
C2076 C2068 1.574 . S
C2076 H2071 0.949 . S
C2076 C2082 1.368 . S
C2077 C2061 1.349 . S
C2077 H2069 0.950 . S
C2077 C2075 1.327 . S
C2078 C2066 1.349 . S
C2078 H2072 0.950 . S
C2078 C2079 1.327 . S
C2079 H2073 0.950 . S
C2079 C2078 1.327 . S
C2079 C2083 1.429 . S
C2080 C2063 1.574 . S
C2080 H2074 0.949 . S
C2080 C2084 1.368 . S
C2081 C2062 1.429 . S
C2081 C2075 1.429 . S
C2081 C2082 1.523 . S
C2082 C2063 1.368 . S
C2082 C2076 1.368 . S
C2082 C2081 1.523 . S
C2083 C2067 1.429 . S
C2083 C2079 1.429 . S
C2083 C2084 1.523 . S
C2084 C2068 1.368 . S
C2084 C2080 1.368 . S
C2084 C2083 1.523 . S
H2085 C2060 0.950 . S
H2086 C2062 0.950 . S
H2087 C2063 0.949 . S
H2088 C2065 0.950 . S
H2089 C2067 0.950 . S
C2090 C2091 1.349 . S
C2090 C2092 1.327 . S
C2090 H2115 0.950 . S
C2091 C2090 1.349 . S
C2091 C2107 1.349 . S
C2092 C2090 1.327 . S
C2092 C2111 1.429 . S
C2092 H2116 0.950 . S
C2093 C2110 1.574 . S
C2093 C2112 1.368 . S
C2093 H2117 0.949 . S
H2094 C2098 0.949 . S
C2095 C2096 1.349 . S
C2095 C2097 1.327 . S
C2095 H2118 0.950 . S
C2096 C2095 1.349 . S
C2096 C2108 1.349 . S
C2097 C2095 1.327 . S
C2097 C2113 1.429 . S
C2097 H2119 0.950 . S
C2098 H2094 0.949 . S
C2098 C2106 1.574 . S
C2098 C2114 1.368 . S
H2099 C2107 0.950 . S
H2100 C2105 0.950 . S
H2101 C2106 0.949 . S
H2102 C2108 0.950 . S
H2103 C2109 0.950 . S
H2104 C2110 0.949 . S
C2105 H2100 0.950 . S
C2105 C2107 1.327 . S
C2105 C2111 1.429 . S
C2106 C2098 1.574 . S
C2106 H2101 0.949 . S
C2106 C2112 1.368 . S
C2107 C2091 1.349 . S
C2107 H2099 0.950 . S
C2107 C2105 1.327 . S
C2108 C2096 1.349 . S
C2108 H2102 0.950 . S
C2108 C2109 1.327 . S
C2109 H2103 0.950 . S
C2109 C2108 1.327 . S
C2109 C2113 1.429 . S
C2110 C2093 1.574 . S
C2110 H2104 0.949 . S
C2110 C2114 1.368 . S
C2111 C2092 1.429 . S
C2111 C2105 1.429 . S
C2111 C2112 1.523 . S
C2112 C2093 1.368 . S
C2112 C2106 1.368 . S
C2112 C2111 1.523 . S
C2113 C2097 1.429 . S
C2113 C2109 1.429 . S
C2113 C2114 1.523 . S
C2114 C2098 1.368 . S
C2114 C2110 1.368 . S
C2114 C2113 1.523 . S
H2115 C2090 0.950 . S
H2116 C2092 0.950 . S
H2117 C2093 0.949 . S
H2118 C2095 0.950 . S
H2119 C2097 0.950 . S
C2120 C2121 1.349 . S
C2120 C2122 1.327 . S
C2120 H2145 0.950 . S
C2121 C2120 1.349 . S
C2121 C2137 1.349 . S
C2122 C2120 1.327 . S
C2122 C2141 1.429 . S
C2122 H2146 0.950 . S
C2123 C2140 1.574 . S
C2123 C2142 1.368 . S
C2123 H2147 0.949 . S
H2124 C2128 0.949 . S
C2125 C2126 1.349 . S
C2125 C2127 1.327 . S
C2125 H2148 0.950 . S
C2126 C2125 1.349 . S
C2126 C2138 1.349 . S
C2127 C2125 1.327 . S
C2127 C2143 1.429 . S
C2127 H2149 0.950 . S
C2128 H2124 0.949 . S
C2128 C2136 1.574 . S
C2128 C2144 1.368 . S
H2129 C2137 0.950 . S
H2130 C2135 0.950 . S
H2131 C2136 0.949 . S
H2132 C2138 0.950 . S
H2133 C2139 0.950 . S
H2134 C2140 0.949 . S
C2135 H2130 0.950 . S
C2135 C2137 1.327 . S
C2135 C2141 1.429 . S
C2136 C2128 1.574 . S
C2136 H2131 0.949 . S
C2136 C2142 1.368 . S
C2137 C2121 1.349 . S
C2137 H2129 0.950 . S
C2137 C2135 1.327 . S
C2138 C2126 1.349 . S
C2138 H2132 0.950 . S
C2138 C2139 1.327 . S
C2139 H2133 0.950 . S
C2139 C2138 1.327 . S
C2139 C2143 1.429 . S
C2140 C2123 1.574 . S
C2140 H2134 0.949 . S
C2140 C2144 1.368 . S
C2141 C2122 1.429 . S
C2141 C2135 1.429 . S
C2141 C2142 1.523 . S
C2142 C2123 1.368 . S
C2142 C2136 1.368 . S
C2142 C2141 1.523 . S
C2143 C2127 1.429 . S
C2143 C2139 1.429 . S
C2143 C2144 1.523 . S
C2144 C2128 1.368 . S
C2144 C2140 1.368 . S
C2144 C2143 1.523 . S
H2145 C2120 0.950 . S
H2146 C2122 0.950 . S
H2147 C2123 0.949 . S
H2148 C2125 0.950 . S
H2149 C2127 0.950 . S
C2150 C2151 1.349 . S
C2150 C2152 1.327 . S
C2150 H2175 0.950 . S
C2151 C2150 1.349 . S
C2151 C2167 1.349 . S
C2152 C2150 1.327 . S
C2152 C2171 1.429 . S
C2152 H2176 0.950 . S
C2153 C2170 1.574 . S
C2153 C2172 1.368 . S
C2153 H2177 0.949 . S
H2154 C2158 0.949 . S
C2155 C2156 1.349 . S
C2155 C2157 1.327 . S
C2155 H2178 0.950 . S
C2156 C2155 1.349 . S
C2156 C2168 1.349 . S
C2157 C2155 1.327 . S
C2157 C2173 1.429 . S
C2157 H2179 0.950 . S
C2158 H2154 0.949 . S
C2158 C2166 1.574 . S
C2158 C2174 1.368 . S
H2159 C2167 0.950 . S
H2160 C2165 0.950 . S
H2161 C2166 0.949 . S
H2162 C2168 0.950 . S
H2163 C2169 0.950 . S
H2164 C2170 0.949 . S
C2165 H2160 0.950 . S
C2165 C2167 1.327 . S
C2165 C2171 1.429 . S
C2166 C2158 1.574 . S
C2166 H2161 0.949 . S
C2166 C2172 1.368 . S
C2167 C2151 1.349 . S
C2167 H2159 0.950 . S
C2167 C2165 1.327 . S
C2168 C2156 1.349 . S
C2168 H2162 0.950 . S
C2168 C2169 1.327 . S
C2169 H2163 0.950 . S
C2169 C2168 1.327 . S
C2169 C2173 1.429 . S
C2170 C2153 1.574 . S
C2170 H2164 0.949 . S
C2170 C2174 1.368 . S
C2171 C2152 1.429 . S
C2171 C2165 1.429 . S
C2171 C2172 1.523 . S
C2172 C2153 1.368 . S
C2172 C2166 1.368 . S
C2172 C2171 1.523 . S
C2173 C2157 1.429 . S
C2173 C2169 1.429 . S
C2173 C2174 1.523 . S
C2174 C2158 1.368 . S
C2174 C2170 1.368 . S
C2174 C2173 1.523 . S
H2175 C2150 0.950 . S
H2176 C2152 0.950 . S
H2177 C2153 0.949 . S
H2178 C2155 0.950 . S
H2179 C2157 0.950 . S
C2180 C2181 1.349 . S
C2180 C2182 1.327 . S
C2180 H2205 0.950 . S
C2181 C2180 1.349 . S
C2181 C2197 1.349 . S
C2182 C2180 1.327 . S
C2182 C2201 1.429 . S
C2182 H2206 0.950 . S
C2183 C2200 1.574 . S
C2183 C2202 1.368 . S
C2183 H2207 0.949 . S
H2184 C2188 0.949 . S
C2185 C2186 1.349 . S
C2185 C2187 1.327 . S
C2185 H2208 0.950 . S
C2186 C2185 1.349 . S
C2186 C2198 1.349 . S
C2187 C2185 1.327 . S
C2187 C2203 1.429 . S
C2187 H2209 0.950 . S
C2188 H2184 0.949 . S
C2188 C2196 1.574 . S
C2188 C2204 1.368 . S
H2189 C2197 0.950 . S
H2190 C2195 0.950 . S
H2191 C2196 0.949 . S
H2192 C2198 0.950 . S
H2193 C2199 0.950 . S
H2194 C2200 0.949 . S
C2195 H2190 0.950 . S
C2195 C2197 1.327 . S
C2195 C2201 1.429 . S
C2196 C2188 1.574 . S
C2196 H2191 0.949 . S
C2196 C2202 1.368 . S
C2197 C2181 1.349 . S
C2197 H2189 0.950 . S
C2197 C2195 1.327 . S
C2198 C2186 1.349 . S
C2198 H2192 0.950 . S
C2198 C2199 1.327 . S
C2199 H2193 0.950 . S
C2199 C2198 1.327 . S
C2199 C2203 1.429 . S
C2200 C2183 1.574 . S
C2200 H2194 0.949 . S
C2200 C2204 1.368 . S
C2201 C2182 1.429 . S
C2201 C2195 1.429 . S
C2201 C2202 1.523 . S
C2202 C2183 1.368 . S
C2202 C2196 1.368 . S
C2202 C2201 1.523 . S
C2203 C2187 1.429 . S
C2203 C2199 1.429 . S
C2203 C2204 1.523 . S
C2204 C2188 1.368 . S
C2204 C2200 1.368 . S
C2204 C2203 1.523 . S
H2205 C2180 0.950 . S
H2206 C2182 0.950 . S
H2207 C2183 0.949 . S
H2208 C2185 0.950 . S
H2209 C2187 0.950 . S
C2210 C2211 1.349 . S
C2210 C2212 1.327 . S
C2210 H2235 0.950 . S
C2211 C2210 1.349 . S
C2211 C2227 1.349 . S
C2212 C2210 1.327 . S
C2212 C2231 1.429 . S
C2212 H2236 0.950 . S
C2213 C2230 1.574 . S
C2213 C2232 1.368 . S
C2213 H2237 0.949 . S
H2214 C2218 0.949 . S
C2215 C2216 1.349 . S
C2215 C2217 1.327 . S
C2215 H2238 0.950 . S
C2216 C2215 1.349 . S
C2216 C2228 1.349 . S
C2217 C2215 1.327 . S
C2217 C2233 1.429 . S
C2217 H2239 0.950 . S
C2218 H2214 0.949 . S
C2218 C2226 1.574 . S
C2218 C2234 1.368 . S
H2219 C2227 0.950 . S
H2220 C2225 0.950 . S
H2221 C2226 0.949 . S
H2222 C2228 0.950 . S
H2223 C2229 0.950 . S
H2224 C2230 0.949 . S
C2225 H2220 0.950 . S
C2225 C2227 1.327 . S
C2225 C2231 1.429 . S
C2226 C2218 1.574 . S
C2226 H2221 0.949 . S
C2226 C2232 1.368 . S
C2227 C2211 1.349 . S
C2227 H2219 0.950 . S
C2227 C2225 1.327 . S
C2228 C2216 1.349 . S
C2228 H2222 0.950 . S
C2228 C2229 1.327 . S
C2229 H2223 0.950 . S
C2229 C2228 1.327 . S
C2229 C2233 1.429 . S
C2230 C2213 1.574 . S
C2230 H2224 0.949 . S
C2230 C2234 1.368 . S
C2231 C2212 1.429 . S
C2231 C2225 1.429 . S
C2231 C2232 1.523 . S
C2232 C2213 1.368 . S
C2232 C2226 1.368 . S
C2232 C2231 1.523 . S
C2233 C2217 1.429 . S
C2233 C2229 1.429 . S
C2233 C2234 1.523 . S
C2234 C2218 1.368 . S
C2234 C2230 1.368 . S
C2234 C2233 1.523 . S
H2235 C2210 0.950 . S
H2236 C2212 0.950 . S
H2237 C2213 0.949 . S
H2238 C2215 0.950 . S
H2239 C2217 0.950 . S
C2240 C2241 1.349 . S
C2240 C2242 1.327 . S
C2240 H2265 0.950 . S
C2241 C2240 1.349 . S
C2241 C2257 1.349 . S
C2242 C2240 1.327 . S
C2242 C2261 1.429 . S
C2242 H2266 0.950 . S
C2243 C2260 1.574 1_455 S
C2243 C2262 1.368 . S
C2243 H2267 0.949 . S
H2244 C2248 0.949 . S
C2245 C2246 1.349 . S
C2245 C2247 1.327 . S
C2245 H2268 0.950 . S
C2246 C2245 1.349 . S
C2246 C2258 1.349 . S
C2247 C2245 1.327 . S
C2247 C2263 1.429 . S
C2247 H2269 0.950 . S
C2248 H2244 0.949 . S
C2248 C2256 1.574 1_655 S
C2248 C2264 1.368 . S
H2249 C2257 0.950 . S
H2250 C2255 0.950 . S
H2251 C2256 0.949 . S
H2252 C2258 0.950 . S
H2253 C2259 0.950 . S
H2254 C2260 0.949 . S
C2255 H2250 0.950 . S
C2255 C2257 1.327 . S
C2255 C2261 1.429 . S
C2256 C2248 1.574 1_455 S
C2256 H2251 0.949 . S
C2256 C2262 1.368 . S
C2257 C2241 1.349 . S
C2257 H2249 0.950 . S
C2257 C2255 1.327 . S
C2258 C2246 1.349 . S
C2258 H2252 0.950 . S
C2258 C2259 1.327 . S
C2259 H2253 0.950 . S
C2259 C2258 1.327 . S
C2259 C2263 1.429 . S
C2260 C2243 1.574 1_655 S
C2260 H2254 0.949 . S
C2260 C2264 1.368 . S
C2261 C2242 1.429 . S
C2261 C2255 1.429 . S
C2261 C2262 1.523 . S
C2262 C2243 1.368 . S
C2262 C2256 1.368 . S
C2262 C2261 1.523 . S
C2263 C2247 1.429 . S
C2263 C2259 1.429 . S
C2263 C2264 1.523 . S
C2264 C2248 1.368 . S
C2264 C2260 1.368 . S
C2264 C2263 1.523 . S
H2265 C2240 0.950 . S
H2266 C2242 0.950 . S
H2267 C2243 0.949 . S
H2268 C2245 0.950 . S
H2269 C2247 0.950 . S
C2270 C2271 1.349 . S
C2270 C2272 1.321 1_655 S
C2270 H2295 0.950 1_655 S
C2271 C2270 1.349 . S
C2271 C2287 1.349 . S
C2272 C2270 1.321 1_455 S
C2272 C2291 1.416 1_455 S
C2272 H2296 0.970 . S
C2273 C2290 1.574 . S
C2273 C2292 1.368 . S
C2273 H2297 0.949 . S
H2274 C2278 0.949 . S
C2275 C2276 1.349 . S
C2275 C2277 1.321 1_455 S
C2275 H2298 0.950 1_455 S
C2276 C2275 1.349 . S
C2276 C2288 1.349 . S
C2277 C2275 1.321 1_655 S
C2277 C2293 1.416 1_655 S
C2277 H2299 0.970 . S
C2278 H2274 0.949 . S
C2278 C2286 1.574 . S
C2278 C2294 1.368 . S
H2279 C2287 0.950 . S
H2280 C2285 0.950 . S
H2281 C2286 0.949 . S
H2282 C2288 0.950 . S
H2283 C2289 0.950 . S
H2284 C2290 0.949 . S
C2285 H2280 0.950 . S
C2285 C2287 1.327 . S
C2285 C2291 1.429 . S
C2286 C2278 1.574 . S
C2286 H2281 0.949 . S
C2286 C2292 1.368 1_455 S
C2287 C2271 1.349 . S
C2287 H2279 0.950 . S
C2287 C2285 1.327 . S
C2288 C2276 1.349 . S
C2288 H2282 0.950 . S
C2288 C2289 1.327 . S
C2289 H2283 0.950 . S
C2289 C2288 1.327 . S
C2289 C2293 1.429 . S
C2290 C2273 1.574 . S
C2290 H2284 0.949 . S
C2290 C2294 1.368 1_655 S
C2291 C2272 1.416 1_655 S
C2291 C2285 1.429 . S
C2291 C2292 1.523 . S
C2292 C2273 1.368 . S
C2292 C2286 1.368 1_655 S
C2292 C2291 1.523 . S
C2293 C2277 1.416 1_455 S
C2293 C2289 1.429 . S
C2293 C2294 1.523 . S
C2294 C2278 1.368 . S
C2294 C2290 1.368 1_455 S
C2294 C2293 1.523 . S
H2295 C2270 0.950 1_455 S
H2296 C2272 0.970 . S
H2297 C2273 0.949 . S
H2298 C2275 0.950 1_655 S
H2299 C2277 0.970 . S
C2300 C2301 1.349 . S
C2300 C2302 1.327 . S
C2300 H2325 0.950 . S
C2301 C2300 1.349 . S
C2301 C2317 1.349 . S
C2302 C2300 1.327 . S
C2302 C2321 1.429 . S
C2302 H2326 0.950 . S
C2303 C2320 1.574 . S
C2303 C2322 1.368 . S
C2303 H2327 0.949 . S
H2304 C2308 0.949 . S
C2305 C2306 1.349 . S
C2305 C2307 1.327 . S
C2305 H2328 0.950 . S
C2306 C2305 1.349 . S
C2306 C2318 1.349 . S
C2307 C2305 1.327 . S
C2307 C2323 1.429 . S
C2307 H2329 0.950 . S
C2308 H2304 0.949 . S
C2308 C2316 1.574 . S
C2308 C2324 1.368 . S
H2309 C2317 0.950 . S
H2310 C2315 0.950 . S
H2311 C2316 0.949 . S
H2312 C2318 0.950 . S
H2313 C2319 0.950 . S
H2314 C2320 0.949 . S
C2315 H2310 0.950 . S
C2315 C2317 1.327 . S
C2315 C2321 1.429 . S
C2316 C2308 1.574 . S
C2316 H2311 0.949 . S
C2316 C2322 1.368 . S
C2317 C2301 1.349 . S
C2317 H2309 0.950 . S
C2317 C2315 1.327 . S
C2318 C2306 1.349 . S
C2318 H2312 0.950 . S
C2318 C2319 1.327 . S
C2319 H2313 0.950 . S
C2319 C2318 1.327 . S
C2319 C2323 1.429 . S
C2320 C2303 1.574 . S
C2320 H2314 0.949 . S
C2320 C2324 1.368 . S
C2321 C2302 1.429 . S
C2321 C2315 1.429 . S
C2321 C2322 1.523 . S
C2322 C2303 1.368 . S
C2322 C2316 1.368 . S
C2322 C2321 1.523 . S
C2323 C2307 1.429 . S
C2323 C2319 1.429 . S
C2323 C2324 1.523 . S
C2324 C2308 1.368 . S
C2324 C2320 1.368 . S
C2324 C2323 1.523 . S
H2325 C2300 0.950 . S
H2326 C2302 0.950 . S
H2327 C2303 0.949 . S
H2328 C2305 0.950 . S
H2329 C2307 0.950 . S
C2330 C2331 1.349 . S
C2330 C2332 1.327 . S
C2330 H2355 0.950 . S
C2331 C2330 1.349 . S
C2331 C2347 1.349 . S
C2332 C2330 1.327 . S
C2332 C2351 1.429 . S
C2332 H2356 0.950 . S
C2333 C2350 1.574 . S
C2333 C2352 1.368 . S
C2333 H2357 0.949 . S
H2334 C2338 0.949 . S
C2335 C2336 1.349 . S
C2335 C2337 1.327 . S
C2335 H2358 0.950 . S
C2336 C2335 1.349 . S
C2336 C2348 1.349 . S
C2337 C2335 1.327 . S
C2337 C2353 1.429 . S
C2337 H2359 0.950 . S
C2338 H2334 0.949 . S
C2338 C2346 1.574 . S
C2338 C2354 1.368 . S
H2339 C2347 0.950 . S
H2340 C2345 0.950 . S
H2341 C2346 0.949 . S
H2342 C2348 0.950 . S
H2343 C2349 0.950 . S
H2344 C2350 0.949 . S
C2345 H2340 0.950 . S
C2345 C2347 1.327 . S
C2345 C2351 1.429 . S
C2346 C2338 1.574 . S
C2346 H2341 0.949 . S
C2346 C2352 1.368 . S
C2347 C2331 1.349 . S
C2347 H2339 0.950 . S
C2347 C2345 1.327 . S
C2348 C2336 1.349 . S
C2348 H2342 0.950 . S
C2348 C2349 1.327 . S
C2349 H2343 0.950 . S
C2349 C2348 1.327 . S
C2349 C2353 1.429 . S
C2350 C2333 1.574 . S
C2350 H2344 0.949 . S
C2350 C2354 1.368 . S
C2351 C2332 1.429 . S
C2351 C2345 1.429 . S
C2351 C2352 1.523 . S
C2352 C2333 1.368 . S
C2352 C2346 1.368 . S
C2352 C2351 1.523 . S
C2353 C2337 1.429 . S
C2353 C2349 1.429 . S
C2353 C2354 1.523 . S
C2354 C2338 1.368 . S
C2354 C2350 1.368 . S
C2354 C2353 1.523 . S
H2355 C2330 0.950 . S
H2356 C2332 0.950 . S
H2357 C2333 0.949 . S
H2358 C2335 0.950 . S
H2359 C2337 0.950 . S
C2360 C2361 1.349 . S
C2360 C2362 1.327 . S
C2360 H2385 0.950 . S
C2361 C2360 1.349 . S
C2361 C2377 1.349 . S
C2362 C2360 1.327 . S
C2362 C2381 1.429 . S
C2362 H2386 0.950 . S
C2363 C2380 1.574 1_655 S
C2363 C2382 1.368 . S
C2363 H2387 0.949 . S
H2364 C2368 0.949 . S
C2365 C2366 1.349 . S
C2365 C2367 1.327 . S
C2365 H2388 0.950 . S
C2366 C2365 1.349 . S
C2366 C2378 1.349 . S
C2367 C2365 1.327 . S
C2367 C2383 1.429 . S
C2367 H2389 0.950 . S
C2368 H2364 0.949 . S
C2368 C2376 1.574 1_455 S
C2368 C2384 1.368 . S
H2369 C2377 0.950 . S
H2370 C2375 0.950 . S
H2371 C2376 0.949 . S
H2372 C2378 0.950 . S
H2373 C2379 0.950 . S
H2374 C2380 0.949 . S
C2375 H2370 0.950 . S
C2375 C2377 1.327 . S
C2375 C2381 1.429 . S
C2376 C2368 1.574 1_655 S
C2376 H2371 0.949 . S
C2376 C2382 1.368 . S
C2377 C2361 1.349 . S
C2377 H2369 0.950 . S
C2377 C2375 1.327 . S
C2378 C2366 1.349 . S
C2378 H2372 0.950 . S
C2378 C2379 1.327 . S
C2379 H2373 0.950 . S
C2379 C2378 1.327 . S
C2379 C2383 1.429 . S
C2380 C2363 1.574 1_455 S
C2380 H2374 0.949 . S
C2380 C2384 1.368 . S
C2381 C2362 1.429 . S
C2381 C2375 1.429 . S
C2381 C2382 1.523 . S
C2382 C2363 1.368 . S
C2382 C2376 1.368 . S
C2382 C2381 1.523 . S
C2383 C2367 1.429 . S
C2383 C2379 1.429 . S
C2383 C2384 1.523 . S
C2384 C2368 1.368 . S
C2384 C2380 1.368 . S
C2384 C2383 1.523 . S
H2385 C2360 0.950 . S
H2386 C2362 0.950 . S
H2387 C2363 0.949 . S
H2388 C2365 0.950 . S
H2389 C2367 0.950 . S
C2390 C2391 1.349 . S
C2390 C2392 1.327 . S
C2390 H2415 0.950 . S
C2391 C2390 1.349 . S
C2391 C2407 1.349 . S
C2392 C2390 1.327 . S
C2392 C2411 1.429 . S
C2392 H2416 0.950 . S
C2393 C2410 1.574 . S
C2393 C2412 1.368 . S
C2393 H2417 0.949 . S
H2394 C2398 0.949 . S
C2395 C2396 1.349 . S
C2395 C2397 1.327 . S
C2395 H2418 0.950 . S
C2396 C2395 1.349 . S
C2396 C2408 1.349 . S
C2397 C2395 1.327 . S
C2397 C2413 1.429 . S
C2397 H2419 0.950 . S
C2398 H2394 0.949 . S
C2398 C2406 1.574 . S
C2398 C2414 1.368 . S
H2399 C2407 0.950 . S
H2400 C2405 0.950 . S
H2401 C2406 0.949 . S
H2402 C2408 0.950 . S
H2403 C2409 0.950 . S
H2404 C2410 0.949 . S
C2405 H2400 0.950 . S
C2405 C2407 1.327 . S
C2405 C2411 1.429 . S
C2406 C2398 1.574 . S
C2406 H2401 0.949 . S
C2406 C2412 1.368 . S
C2407 C2391 1.349 . S
C2407 H2399 0.950 . S
C2407 C2405 1.327 . S
C2408 C2396 1.349 . S
C2408 H2402 0.950 . S
C2408 C2409 1.327 . S
C2409 H2403 0.950 . S
C2409 C2408 1.327 . S
C2409 C2413 1.429 . S
C2410 C2393 1.574 . S
C2410 H2404 0.949 . S
C2410 C2414 1.368 . S
C2411 C2392 1.429 . S
C2411 C2405 1.429 . S
C2411 C2412 1.523 . S
C2412 C2393 1.368 . S
C2412 C2406 1.368 . S
C2412 C2411 1.523 . S
C2413 C2397 1.429 . S
C2413 C2409 1.429 . S
C2413 C2414 1.523 . S
C2414 C2398 1.368 . S
C2414 C2410 1.368 . S
C2414 C2413 1.523 . S
H2415 C2390 0.950 . S
H2416 C2392 0.950 . S
H2417 C2393 0.949 . S
H2418 C2395 0.950 . S
H2419 C2397 0.950 . S
C2420 C2421 1.349 . S
C2420 C2422 1.327 . S
C2420 H2445 0.950 . S
C2421 C2420 1.349 . S
C2421 C2437 1.349 . S
C2422 C2420 1.327 . S
C2422 C2441 1.429 . S
C2422 H2446 0.950 . S
C2423 C2440 1.574 . S
C2423 C2442 1.368 . S
C2423 H2447 0.949 . S
H2424 C2428 0.949 . S
C2425 C2426 1.349 . S
C2425 C2427 1.327 . S
C2425 H2448 0.950 . S
C2426 C2425 1.349 . S
C2426 C2438 1.349 . S
C2427 C2425 1.327 . S
C2427 C2443 1.429 . S
C2427 H2449 0.950 . S
C2428 H2424 0.949 . S
C2428 C2436 1.574 . S
C2428 C2444 1.368 . S
H2429 C2437 0.950 . S
H2430 C2435 0.950 . S
H2431 C2436 0.949 . S
H2432 C2438 0.950 . S
H2433 C2439 0.950 . S
H2434 C2440 0.949 . S
C2435 H2430 0.950 . S
C2435 C2437 1.327 . S
C2435 C2441 1.429 . S
C2436 C2428 1.574 . S
C2436 H2431 0.949 . S
C2436 C2442 1.368 . S
C2437 C2421 1.349 . S
C2437 H2429 0.950 . S
C2437 C2435 1.327 . S
C2438 C2426 1.349 . S
C2438 H2432 0.950 . S
C2438 C2439 1.327 . S
C2439 H2433 0.950 . S
C2439 C2438 1.327 . S
C2439 C2443 1.429 . S
C2440 C2423 1.574 . S
C2440 H2434 0.949 . S
C2440 C2444 1.368 . S
C2441 C2422 1.429 . S
C2441 C2435 1.429 . S
C2441 C2442 1.523 . S
C2442 C2423 1.368 . S
C2442 C2436 1.368 . S
C2442 C2441 1.523 . S
C2443 C2427 1.429 . S
C2443 C2439 1.429 . S
C2443 C2444 1.523 . S
C2444 C2428 1.368 . S
C2444 C2440 1.368 . S
C2444 C2443 1.523 . S
H2445 C2420 0.950 . S
H2446 C2422 0.950 . S
H2447 C2423 0.949 . S
H2448 C2425 0.950 . S
H2449 C2427 0.950 . S
C2450 C2451 1.349 . S
C2450 C2452 1.327 . S
C2450 H2475 0.950 . S
C2451 C2450 1.349 . S
C2451 C2467 1.349 . S
C2452 C2450 1.327 . S
C2452 C2471 1.429 . S
C2452 H2476 0.950 . S
C2453 C2470 1.574 . S
C2453 C2472 1.368 1_655 S
C2453 H2477 0.949 . S
H2454 C2458 0.949 . S
C2455 C2456 1.349 . S
C2455 C2457 1.327 . S
C2455 H2478 0.950 . S
C2456 C2455 1.349 . S
C2456 C2468 1.349 . S
C2457 C2455 1.327 . S
C2457 C2473 1.429 . S
C2457 H2479 0.950 . S
C2458 H2454 0.949 . S
C2458 C2466 1.574 . S
C2458 C2474 1.368 1_455 S
H2459 C2467 0.950 1_655 S
H2460 C2465 0.970 . S
H2461 C2466 0.949 . S
H2462 C2468 0.950 1_455 S
H2463 C2469 0.970 . S
H2464 C2470 0.949 . S
C2465 H2460 0.970 . S
C2465 C2467 1.321 1_655 S
C2465 C2471 1.416 1_655 S
C2466 C2458 1.574 . S
C2466 H2461 0.949 . S
C2466 C2472 1.368 . S
C2467 C2451 1.349 . S
C2467 H2459 0.950 1_455 S
C2467 C2465 1.321 1_455 S
C2468 C2456 1.349 . S
C2468 H2462 0.950 1_655 S
C2468 C2469 1.321 1_655 S
C2469 H2463 0.970 . S
C2469 C2468 1.321 1_455 S
C2469 C2473 1.416 1_455 S
C2470 C2453 1.574 . S
C2470 H2464 0.949 . S
C2470 C2474 1.368 . S
C2471 C2452 1.429 . S
C2471 C2465 1.416 1_455 S
C2471 C2472 1.523 . S
C2472 C2453 1.368 1_455 S
C2472 C2466 1.368 . S
C2472 C2471 1.523 . S
C2473 C2457 1.429 . S
C2473 C2469 1.416 1_655 S
C2473 C2474 1.523 . S
C2474 C2458 1.368 1_655 S
C2474 C2470 1.368 . S
C2474 C2473 1.523 . S
H2475 C2450 0.950 . S
H2476 C2452 0.950 . S
H2477 C2453 0.949 . S
H2478 C2455 0.950 . S
H2479 C2457 0.950 . S
C2480 C2481 1.349 . S
C2480 C2482 1.327 . S
C2480 H2505 0.950 . S
C2481 C2480 1.349 . S
C2481 C2497 1.349 . S
C2482 C2480 1.327 . S
C2482 C2501 1.429 . S
C2482 H2506 0.950 . S
C2483 C2500 1.574 1_455 S
C2483 C2502 1.368 . S
C2483 H2507 0.949 . S
H2484 C2488 0.949 . S
C2485 C2486 1.349 . S
C2485 C2487 1.327 . S
C2485 H2508 0.950 . S
C2486 C2485 1.349 . S
C2486 C2498 1.349 . S
C2487 C2485 1.327 . S
C2487 C2503 1.429 . S
C2487 H2509 0.950 . S
C2488 H2484 0.949 . S
C2488 C2496 1.574 1_655 S
C2488 C2504 1.368 . S
H2489 C2497 0.950 . S
H2490 C2495 0.950 . S
H2491 C2496 0.949 . S
H2492 C2498 0.950 . S
H2493 C2499 0.950 . S
H2494 C2500 0.949 . S
C2495 H2490 0.950 . S
C2495 C2497 1.327 . S
C2495 C2501 1.429 . S
C2496 C2488 1.574 1_455 S
C2496 H2491 0.949 . S
C2496 C2502 1.368 . S
C2497 C2481 1.349 . S
C2497 H2489 0.950 . S
C2497 C2495 1.327 . S
C2498 C2486 1.349 . S
C2498 H2492 0.950 . S
C2498 C2499 1.327 . S
C2499 H2493 0.950 . S
C2499 C2498 1.327 . S
C2499 C2503 1.429 . S
C2500 C2483 1.574 1_655 S
C2500 H2494 0.949 . S
C2500 C2504 1.368 . S
C2501 C2482 1.429 . S
C2501 C2495 1.429 . S
C2501 C2502 1.523 . S
C2502 C2483 1.368 . S
C2502 C2496 1.368 . S
C2502 C2501 1.523 . S
C2503 C2487 1.429 . S
C2503 C2499 1.429 . S
C2503 C2504 1.523 . S
C2504 C2488 1.368 . S
C2504 C2500 1.368 . S
C2504 C2503 1.523 . S
H2505 C2480 0.950 . S
H2506 C2482 0.950 . S
H2507 C2483 0.949 . S
H2508 C2485 0.950 . S
H2509 C2487 0.950 . S
C2510 C2511 1.349 . S
C2510 C2512 1.321 1_655 S
C2510 H2535 0.950 1_655 S
C2511 C2510 1.349 . S
C2511 C2527 1.349 . S
C2512 C2510 1.321 1_455 S
C2512 C2531 1.416 1_455 S
C2512 H2536 0.970 . S
C2513 C2530 1.574 . S
C2513 C2532 1.368 . S
C2513 H2537 0.949 . S
H2514 C2518 0.949 . S
C2515 C2516 1.349 . S
C2515 C2517 1.321 1_455 S
C2515 H2538 0.950 1_455 S
C2516 C2515 1.349 . S
C2516 C2528 1.349 . S
C2517 C2515 1.321 1_655 S
C2517 C2533 1.416 1_655 S
C2517 H2539 0.970 . S
C2518 H2514 0.949 . S
C2518 C2526 1.574 . S
C2518 C2534 1.368 . S
H2519 C2527 0.950 . S
H2520 C2525 0.950 . S
H2521 C2526 0.949 . S
H2522 C2528 0.950 . S
H2523 C2529 0.950 . S
H2524 C2530 0.949 . S
C2525 H2520 0.950 . S
C2525 C2527 1.327 . S
C2525 C2531 1.429 . S
C2526 C2518 1.574 . S
C2526 H2521 0.949 . S
C2526 C2532 1.368 1_455 S
C2527 C2511 1.349 . S
C2527 H2519 0.950 . S
C2527 C2525 1.327 . S
C2528 C2516 1.349 . S
C2528 H2522 0.950 . S
C2528 C2529 1.327 . S
C2529 H2523 0.950 . S
C2529 C2528 1.327 . S
C2529 C2533 1.429 . S
C2530 C2513 1.574 . S
C2530 H2524 0.949 . S
C2530 C2534 1.368 1_655 S
C2531 C2512 1.416 1_655 S
C2531 C2525 1.429 . S
C2531 C2532 1.523 . S
C2532 C2513 1.368 . S
C2532 C2526 1.368 1_655 S
C2532 C2531 1.523 . S
C2533 C2517 1.416 1_455 S
C2533 C2529 1.429 . S
C2533 C2534 1.523 . S
C2534 C2518 1.368 . S
C2534 C2530 1.368 1_455 S
C2534 C2533 1.523 . S
H2535 C2510 0.950 1_455 S
H2536 C2512 0.970 . S
H2537 C2513 0.949 . S
H2538 C2515 0.950 1_655 S
H2539 C2517 0.970 . S
C2540 C2541 1.349 . S
C2540 C2542 1.327 . S
C2540 H2565 0.950 . S
C2541 C2540 1.349 . S
C2541 C2557 1.349 . S
C2542 C2540 1.327 . S
C2542 C2561 1.429 . S
C2542 H2566 0.950 . S
C2543 C2560 1.574 . S
C2543 C2562 1.368 . S
C2543 H2567 0.949 . S
H2544 C2548 0.949 . S
C2545 C2546 1.349 . S
C2545 C2547 1.327 . S
C2545 H2568 0.950 . S
C2546 C2545 1.349 . S
C2546 C2558 1.349 . S
C2547 C2545 1.327 . S
C2547 C2563 1.429 . S
C2547 H2569 0.950 . S
C2548 H2544 0.949 . S
C2548 C2556 1.574 . S
C2548 C2564 1.368 . S
H2549 C2557 0.950 . S
H2550 C2555 0.950 . S
H2551 C2556 0.949 . S
H2552 C2558 0.950 . S
H2553 C2559 0.950 . S
H2554 C2560 0.949 . S
C2555 H2550 0.950 . S
C2555 C2557 1.327 . S
C2555 C2561 1.429 . S
C2556 C2548 1.574 . S
C2556 H2551 0.949 . S
C2556 C2562 1.368 . S
C2557 C2541 1.349 . S
C2557 H2549 0.950 . S
C2557 C2555 1.327 . S
C2558 C2546 1.349 . S
C2558 H2552 0.950 . S
C2558 C2559 1.327 . S
C2559 H2553 0.950 . S
C2559 C2558 1.327 . S
C2559 C2563 1.429 . S
C2560 C2543 1.574 . S
C2560 H2554 0.949 . S
C2560 C2564 1.368 . S
C2561 C2542 1.429 . S
C2561 C2555 1.429 . S
C2561 C2562 1.523 . S
C2562 C2543 1.368 . S
C2562 C2556 1.368 . S
C2562 C2561 1.523 . S
C2563 C2547 1.429 . S
C2563 C2559 1.429 . S
C2563 C2564 1.523 . S
C2564 C2548 1.368 . S
C2564 C2560 1.368 . S
C2564 C2563 1.523 . S
H2565 C2540 0.950 . S
H2566 C2542 0.950 . S
H2567 C2543 0.949 . S
H2568 C2545 0.950 . S
H2569 C2547 0.950 . S
C2570 C2571 1.349 . S
C2570 C2572 1.327 . S
C2570 H2595 0.950 . S
C2571 C2570 1.349 . S
C2571 C2587 1.349 . S
C2572 C2570 1.327 . S
C2572 C2591 1.429 . S
C2572 H2596 0.950 . S
C2573 C2590 1.574 . S
C2573 C2592 1.368 . S
C2573 H2597 0.949 . S
H2574 C2578 0.949 . S
C2575 C2576 1.349 . S
C2575 C2577 1.327 . S
C2575 H2598 0.950 . S
C2576 C2575 1.349 . S
C2576 C2588 1.349 . S
C2577 C2575 1.327 . S
C2577 C2593 1.429 . S
C2577 H2599 0.950 . S
C2578 H2574 0.949 . S
C2578 C2586 1.574 . S
C2578 C2594 1.368 . S
H2579 C2587 0.950 . S
H2580 C2585 0.950 . S
H2581 C2586 0.949 . S
H2582 C2588 0.950 . S
H2583 C2589 0.950 . S
H2584 C2590 0.949 . S
C2585 H2580 0.950 . S
C2585 C2587 1.327 . S
C2585 C2591 1.429 . S
C2586 C2578 1.574 . S
C2586 H2581 0.949 . S
C2586 C2592 1.368 . S
C2587 C2571 1.349 . S
C2587 H2579 0.950 . S
C2587 C2585 1.327 . S
C2588 C2576 1.349 . S
C2588 H2582 0.950 . S
C2588 C2589 1.327 . S
C2589 H2583 0.950 . S
C2589 C2588 1.327 . S
C2589 C2593 1.429 . S
C2590 C2573 1.574 . S
C2590 H2584 0.949 . S
C2590 C2594 1.368 . S
C2591 C2572 1.429 . S
C2591 C2585 1.429 . S
C2591 C2592 1.523 . S
C2592 C2573 1.368 . S
C2592 C2586 1.368 . S
C2592 C2591 1.523 . S
C2593 C2577 1.429 . S
C2593 C2589 1.429 . S
C2593 C2594 1.523 . S
C2594 C2578 1.368 . S
C2594 C2590 1.368 . S
C2594 C2593 1.523 . S
H2595 C2570 0.950 . S
H2596 C2572 0.950 . S
H2597 C2573 0.949 . S
H2598 C2575 0.950 . S
H2599 C2577 0.950 . S
C2600 C2601 1.349 . S
C2600 C2602 1.327 . S
C2600 H2625 0.950 . S
C2601 C2600 1.349 . S
C2601 C2617 1.349 . S
C2602 C2600 1.327 . S
C2602 C2621 1.429 . S
C2602 H2626 0.950 . S
C2603 C2620 1.574 1_455 S
C2603 C2622 1.368 . S
C2603 H2627 0.949 . S
H2604 C2608 0.949 . S
C2605 C2606 1.349 . S
C2605 C2607 1.327 . S
C2605 H2628 0.950 . S
C2606 C2605 1.349 . S
C2606 C2618 1.349 . S
C2607 C2605 1.327 . S
C2607 C2623 1.429 . S
C2607 H2629 0.950 . S
C2608 H2604 0.949 . S
C2608 C2616 1.574 1_655 S
C2608 C2624 1.368 . S
H2609 C2617 0.950 . S
H2610 C2615 0.950 . S
H2611 C2616 0.949 . S
H2612 C2618 0.950 . S
H2613 C2619 0.950 . S
H2614 C2620 0.949 . S
C2615 H2610 0.950 . S
C2615 C2617 1.327 . S
C2615 C2621 1.429 . S
C2616 C2608 1.574 1_455 S
C2616 H2611 0.949 . S
C2616 C2622 1.368 . S
C2617 C2601 1.349 . S
C2617 H2609 0.950 . S
C2617 C2615 1.327 . S
C2618 C2606 1.349 . S
C2618 H2612 0.950 . S
C2618 C2619 1.327 . S
C2619 H2613 0.950 . S
C2619 C2618 1.327 . S
C2619 C2623 1.429 . S
C2620 C2603 1.574 1_655 S
C2620 H2614 0.949 . S
C2620 C2624 1.368 . S
C2621 C2602 1.429 . S
C2621 C2615 1.429 . S
C2621 C2622 1.523 . S
C2622 C2603 1.368 . S
C2622 C2616 1.368 . S
C2622 C2621 1.523 . S
C2623 C2607 1.429 . S
C2623 C2619 1.429 . S
C2623 C2624 1.523 . S
C2624 C2608 1.368 . S
C2624 C2620 1.368 . S
C2624 C2623 1.523 . S
H2625 C2600 0.950 . S
H2626 C2602 0.950 . S
H2627 C2603 0.949 . S
H2628 C2605 0.950 . S
H2629 C2607 0.950 . S
C2630 C2631 1.349 . S
C2630 C2632 1.327 . S
C2630 H2655 0.950 . S
C2631 C2630 1.349 . S
C2631 C2647 1.349 . S
C2632 C2630 1.327 . S
C2632 C2651 1.429 . S
C2632 H2656 0.950 . S
C2633 C2650 1.574 . S
C2633 C2652 1.368 . S
C2633 H2657 0.949 . S
H2634 C2638 0.949 . S
C2635 C2636 1.349 . S
C2635 C2637 1.327 . S
C2635 H2658 0.950 . S
C2636 C2635 1.349 . S
C2636 C2648 1.349 . S
C2637 C2635 1.327 . S
C2637 C2653 1.429 . S
C2637 H2659 0.950 . S
C2638 H2634 0.949 . S
C2638 C2646 1.574 . S
C2638 C2654 1.368 . S
H2639 C2647 0.950 . S
H2640 C2645 0.950 . S
H2641 C2646 0.949 . S
H2642 C2648 0.950 . S
H2643 C2649 0.950 . S
H2644 C2650 0.949 . S
C2645 H2640 0.950 . S
C2645 C2647 1.327 . S
C2645 C2651 1.429 . S
C2646 C2638 1.574 . S
C2646 H2641 0.949 . S
C2646 C2652 1.368 . S
C2647 C2631 1.349 . S
C2647 H2639 0.950 . S
C2647 C2645 1.327 . S
C2648 C2636 1.349 . S
C2648 H2642 0.950 . S
C2648 C2649 1.327 . S
C2649 H2643 0.950 . S
C2649 C2648 1.327 . S
C2649 C2653 1.429 . S
C2650 C2633 1.574 . S
C2650 H2644 0.949 . S
C2650 C2654 1.368 . S
C2651 C2632 1.429 . S
C2651 C2645 1.429 . S
C2651 C2652 1.523 . S
C2652 C2633 1.368 . S
C2652 C2646 1.368 . S
C2652 C2651 1.523 . S
C2653 C2637 1.429 . S
C2653 C2649 1.429 . S
C2653 C2654 1.523 . S
C2654 C2638 1.368 . S
C2654 C2650 1.368 . S
C2654 C2653 1.523 . S
H2655 C2630 0.950 . S
H2656 C2632 0.950 . S
H2657 C2633 0.949 . S
H2658 C2635 0.950 . S
H2659 C2637 0.950 . S
C2660 C2661 1.349 . S
C2660 C2662 1.327 . S
C2660 H2685 0.950 . S
C2661 C2660 1.349 . S
C2661 C2677 1.349 . S
C2662 C2660 1.327 . S
C2662 C2681 1.429 . S
C2662 H2686 0.950 . S
C2663 C2680 1.574 . S
C2663 C2682 1.368 . S
C2663 H2687 0.949 . S
H2664 C2668 0.949 . S
C2665 C2666 1.349 . S
C2665 C2667 1.327 . S
C2665 H2688 0.950 . S
C2666 C2665 1.349 . S
C2666 C2678 1.349 . S
C2667 C2665 1.327 . S
C2667 C2683 1.429 . S
C2667 H2689 0.950 . S
C2668 H2664 0.949 . S
C2668 C2676 1.574 . S
C2668 C2684 1.368 . S
H2669 C2677 0.950 . S
H2670 C2675 0.950 . S
H2671 C2676 0.949 . S
H2672 C2678 0.950 . S
H2673 C2679 0.950 . S
H2674 C2680 0.949 . S
C2675 H2670 0.950 . S
C2675 C2677 1.327 . S
C2675 C2681 1.429 . S
C2676 C2668 1.574 . S
C2676 H2671 0.949 . S
C2676 C2682 1.368 . S
C2677 C2661 1.349 . S
C2677 H2669 0.950 . S
C2677 C2675 1.327 . S
C2678 C2666 1.349 . S
C2678 H2672 0.950 . S
C2678 C2679 1.327 . S
C2679 H2673 0.950 . S
C2679 C2678 1.327 . S
C2679 C2683 1.429 . S
C2680 C2663 1.574 . S
C2680 H2674 0.949 . S
C2680 C2684 1.368 . S
C2681 C2662 1.429 . S
C2681 C2675 1.429 . S
C2681 C2682 1.523 . S
C2682 C2663 1.368 . S
C2682 C2676 1.368 . S
C2682 C2681 1.523 . S
C2683 C2667 1.429 . S
C2683 C2679 1.429 . S
C2683 C2684 1.523 . S
C2684 C2668 1.368 . S
C2684 C2680 1.368 . S
C2684 C2683 1.523 . S
H2685 C2660 0.950 . S
H2686 C2662 0.950 . S
H2687 C2663 0.949 . S
H2688 C2665 0.950 . S
H2689 C2667 0.950 . S
C2690 C2691 1.349 . S
C2690 C2692 1.327 . S
C2690 H2715 0.950 . S
C2691 C2690 1.349 . S
C2691 C2707 1.349 . S
C2692 C2690 1.327 . S
C2692 C2711 1.429 . S
C2692 H2716 0.950 . S
C2693 C2710 1.574 . S
C2693 C2712 1.368 1_455 S
C2693 H2717 0.949 . S
H2694 C2698 0.949 . S
C2695 C2696 1.349 . S
C2695 C2697 1.327 . S
C2695 H2718 0.950 . S
C2696 C2695 1.349 . S
C2696 C2708 1.349 . S
C2697 C2695 1.327 . S
C2697 C2713 1.429 . S
C2697 H2719 0.950 . S
C2698 H2694 0.949 . S
C2698 C2706 1.574 . S
C2698 C2714 1.368 1_655 S
H2699 C2707 0.950 1_455 S
H2700 C2705 0.970 . S
H2701 C2706 0.949 . S
H2702 C2708 0.950 1_655 S
H2703 C2709 0.970 . S
H2704 C2710 0.949 . S
C2705 H2700 0.970 . S
C2705 C2707 1.321 1_455 S
C2705 C2711 1.416 1_455 S
C2706 C2698 1.574 . S
C2706 H2701 0.949 . S
C2706 C2712 1.368 . S
C2707 C2691 1.349 . S
C2707 H2699 0.950 1_655 S
C2707 C2705 1.321 1_655 S
C2708 C2696 1.349 . S
C2708 H2702 0.950 1_455 S
C2708 C2709 1.321 1_455 S
C2709 H2703 0.970 . S
C2709 C2708 1.321 1_655 S
C2709 C2713 1.416 1_655 S
C2710 C2693 1.574 . S
C2710 H2704 0.949 . S
C2710 C2714 1.368 . S
C2711 C2692 1.429 . S
C2711 C2705 1.416 1_655 S
C2711 C2712 1.523 . S
C2712 C2693 1.368 1_655 S
C2712 C2706 1.368 . S
C2712 C2711 1.523 . S
C2713 C2697 1.429 . S
C2713 C2709 1.416 1_455 S
C2713 C2714 1.523 . S
C2714 C2698 1.368 1_455 S
C2714 C2710 1.368 . S
C2714 C2713 1.523 . S
H2715 C2690 0.950 . S
H2716 C2692 0.950 . S
H2717 C2693 0.949 . S
H2718 C2695 0.950 . S
H2719 C2697 0.950 . S
C2720 C2721 1.349 . S
C2720 C2722 1.327 . S
C2720 H2745 0.950 . S
C2721 C2720 1.349 . S
C2721 C2737 1.349 . S
C2722 C2720 1.327 . S
C2722 C2741 1.429 . S
C2722 H2746 0.950 . S
C2723 C2740 1.574 . S
C2723 C2742 1.368 . S
C2723 H2747 0.949 . S
H2724 C2728 0.949 . S
C2725 C2726 1.349 . S
C2725 C2727 1.327 . S
C2725 H2748 0.950 . S
C2726 C2725 1.349 . S
C2726 C2738 1.349 . S
C2727 C2725 1.327 . S
C2727 C2743 1.429 . S
C2727 H2749 0.950 . S
C2728 H2724 0.949 . S
C2728 C2736 1.574 . S
C2728 C2744 1.368 . S
H2729 C2737 0.950 . S
H2730 C2735 0.950 . S
H2731 C2736 0.949 . S
H2732 C2738 0.950 . S
H2733 C2739 0.950 . S
H2734 C2740 0.949 . S
C2735 H2730 0.950 . S
C2735 C2737 1.327 . S
C2735 C2741 1.429 . S
C2736 C2728 1.574 . S
C2736 H2731 0.949 . S
C2736 C2742 1.368 . S
C2737 C2721 1.349 . S
C2737 H2729 0.950 . S
C2737 C2735 1.327 . S
C2738 C2726 1.349 . S
C2738 H2732 0.950 . S
C2738 C2739 1.327 . S
C2739 H2733 0.950 . S
C2739 C2738 1.327 . S
C2739 C2743 1.429 . S
C2740 C2723 1.574 . S
C2740 H2734 0.949 . S
C2740 C2744 1.368 . S
C2741 C2722 1.429 . S
C2741 C2735 1.429 . S
C2741 C2742 1.523 . S
C2742 C2723 1.368 . S
C2742 C2736 1.368 . S
C2742 C2741 1.523 . S
C2743 C2727 1.429 . S
C2743 C2739 1.429 . S
C2743 C2744 1.523 . S
C2744 C2728 1.368 . S
C2744 C2740 1.368 . S
C2744 C2743 1.523 . S
H2745 C2720 0.950 . S
H2746 C2722 0.950 . S
H2747 C2723 0.949 . S
H2748 C2725 0.950 . S
H2749 C2727 0.950 . S
C2750 C2751 1.349 1_565 S
C2750 C2752 1.327 . S
C2750 H2775 0.950 . S
C2751 C2750 1.349 1_545 S
C2751 C2767 1.349 . S
C2752 C2750 1.327 . S
C2752 C2771 1.429 1_565 S
C2752 H2776 0.950 1_655 S
C2753 C2770 1.574 . S
C2753 C2772 1.368 . S
C2753 H2777 0.949 . S
H2754 C2758 0.949 . S
C2755 C2756 1.349 1_545 S
C2755 C2757 1.327 . S
C2755 H2778 0.950 . S
C2756 C2755 1.349 1_565 S
C2756 C2768 1.349 . S
C2757 C2755 1.327 . S
C2757 C2773 1.429 1_545 S
C2757 H2779 0.950 1_455 S
C2758 H2754 0.949 . S
C2758 C2766 1.574 . S
C2758 C2774 1.368 . S
H2759 C2767 0.950 . S
H2760 C2765 0.950 . S
H2761 C2766 0.949 . S
H2762 C2768 0.950 . S
H2763 C2769 0.950 . S
H2764 C2770 0.949 . S
C2765 H2760 0.950 . S
C2765 C2767 1.327 . S
C2765 C2771 1.429 . S
C2766 C2758 1.574 . S
C2766 H2761 0.949 . S
C2766 C2772 1.368 1_465 S
C2767 C2751 1.349 . S
C2767 H2759 0.950 . S
C2767 C2765 1.327 . S
C2768 C2756 1.349 . S
C2768 H2762 0.950 . S
C2768 C2769 1.327 . S
C2769 H2763 0.950 . S
C2769 C2768 1.327 . S
C2769 C2773 1.429 . S
C2770 C2753 1.574 . S
C2770 H2764 0.949 . S
C2770 C2774 1.368 1_645 S
C2771 C2752 1.429 1_545 S
C2771 C2765 1.429 . S
C2771 C2772 1.523 . S
C2772 C2753 1.368 . S
C2772 C2766 1.368 1_645 S
C2772 C2771 1.523 . S
C2773 C2757 1.429 1_565 S
C2773 C2769 1.429 . S
C2773 C2774 1.523 . S
C2774 C2758 1.368 . S
C2774 C2770 1.368 1_465 S
C2774 C2773 1.523 . S
H2775 C2750 0.950 . S
H2776 C2752 0.950 1_455 S
H2777 C2753 0.949 . S
H2778 C2755 0.950 . S
H2779 C2757 0.950 1_655 S
C2780 C2781 1.349 . S
C2780 C2782 1.327 . S
C2780 H2805 0.950 . S
C2781 C2780 1.349 . S
C2781 C2797 1.349 . S
C2782 C2780 1.327 . S
C2782 C2801 1.429 . S
C2782 H2806 0.950 . S
C2783 C2800 1.574 . S
C2783 C2802 1.368 . S
C2783 H2807 0.949 . S
H2784 C2788 0.949 . S
C2785 C2786 1.349 . S
C2785 C2787 1.327 . S
C2785 H2808 0.950 . S
C2786 C2785 1.349 . S
C2786 C2798 1.349 . S
C2787 C2785 1.327 . S
C2787 C2803 1.429 . S
C2787 H2809 0.950 . S
C2788 H2784 0.949 . S
C2788 C2796 1.574 . S
C2788 C2804 1.368 . S
H2789 C2797 0.950 . S
H2790 C2795 0.950 . S
H2791 C2796 0.949 . S
H2792 C2798 0.950 . S
H2793 C2799 0.950 . S
H2794 C2800 0.949 . S
C2795 H2790 0.950 . S
C2795 C2797 1.327 . S
C2795 C2801 1.429 . S
C2796 C2788 1.574 . S
C2796 H2791 0.949 . S
C2796 C2802 1.368 . S
C2797 C2781 1.349 . S
C2797 H2789 0.950 . S
C2797 C2795 1.327 . S
C2798 C2786 1.349 . S
C2798 H2792 0.950 . S
C2798 C2799 1.327 . S
C2799 H2793 0.950 . S
C2799 C2798 1.327 . S
C2799 C2803 1.429 . S
C2800 C2783 1.574 . S
C2800 H2794 0.949 . S
C2800 C2804 1.368 . S
C2801 C2782 1.429 . S
C2801 C2795 1.429 . S
C2801 C2802 1.523 . S
C2802 C2783 1.368 . S
C2802 C2796 1.368 . S
C2802 C2801 1.523 . S
C2803 C2787 1.429 . S
C2803 C2799 1.429 . S
C2803 C2804 1.523 . S
C2804 C2788 1.368 . S
C2804 C2800 1.368 . S
C2804 C2803 1.523 . S
H2805 C2780 0.950 . S
H2806 C2782 0.950 . S
H2807 C2783 0.949 . S
H2808 C2785 0.950 . S
H2809 C2787 0.950 . S
C2810 C2811 1.349 . S
C2810 C2812 1.327 . S
C2810 H2835 0.950 . S
C2811 C2810 1.349 . S
C2811 C2827 1.349 1_545 S
C2812 C2810 1.327 . S
C2812 C2831 1.429 . S
C2812 H2836 0.950 . S
C2813 C2830 1.574 1_554 S
C2813 C2832 1.368 1_565 S
C2813 H2837 0.949 . S
H2814 C2818 0.949 . S
C2815 C2816 1.349 . S
C2815 C2817 1.327 . S
C2815 H2838 0.950 . S
C2816 C2815 1.349 . S
C2816 C2828 1.349 1_565 S
C2817 C2815 1.327 . S
C2817 C2833 1.429 . S
C2817 H2839 0.950 . S
C2818 H2814 0.949 . S
C2818 C2826 1.574 1_556 S
C2818 C2834 1.368 1_545 S
H2819 C2827 0.950 . S
H2820 C2825 0.950 . S
H2821 C2826 0.949 . S
H2822 C2828 0.950 . S
H2823 C2829 0.950 . S
H2824 C2830 0.949 . S
C2825 H2820 0.950 . S
C2825 C2827 1.327 . S
C2825 C2831 1.429 1_565 S
C2826 C2818 1.574 1_554 S
C2826 H2821 0.949 . S
C2826 C2832 1.368 . S
C2827 C2811 1.349 1_565 S
C2827 H2819 0.950 . S
C2827 C2825 1.327 . S
C2828 C2816 1.349 1_545 S
C2828 H2822 0.950 . S
C2828 C2829 1.327 . S
C2829 H2823 0.950 . S
C2829 C2828 1.327 . S
C2829 C2833 1.429 1_545 S
C2830 C2813 1.574 1_556 S
C2830 H2824 0.949 . S
C2830 C2834 1.368 . S
C2831 C2812 1.429 . S
C2831 C2825 1.429 1_545 S
C2831 C2832 1.523 . S
C2832 C2813 1.368 1_545 S
C2832 C2826 1.368 . S
C2832 C2831 1.523 . S
C2833 C2817 1.429 . S
C2833 C2829 1.429 1_565 S
C2833 C2834 1.523 . S
C2834 C2818 1.368 1_565 S
C2834 C2830 1.368 . S
C2834 C2833 1.523 . S
H2835 C2810 0.950 . S
H2836 C2812 0.950 . S
H2837 C2813 0.949 . S
H2838 C2815 0.950 . S
H2839 C2817 0.950 . S
C2840 C2841 1.349 . S
C2840 C2842 1.327 . S
C2840 H2865 0.950 . S
C2841 C2840 1.349 . S
C2841 C2857 1.349 . S
C2842 C2840 1.327 . S
C2842 C2861 1.429 . S
C2842 H2866 0.950 . S
C2843 C2860 1.574 . S
C2843 C2862 1.368 . S
C2843 H2867 0.949 . S
H2844 C2848 0.949 . S
C2845 C2846 1.349 . S
C2845 C2847 1.327 . S
C2845 H2868 0.950 . S
C2846 C2845 1.349 . S
C2846 C2858 1.349 . S
C2847 C2845 1.327 . S
C2847 C2863 1.429 . S
C2847 H2869 0.950 . S
C2848 H2844 0.949 . S
C2848 C2856 1.574 . S
C2848 C2864 1.368 . S
H2849 C2857 0.950 . S
H2850 C2855 0.950 . S
H2851 C2856 0.949 . S
H2852 C2858 0.950 . S
H2853 C2859 0.950 . S
H2854 C2860 0.949 . S
C2855 H2850 0.950 . S
C2855 C2857 1.327 . S
C2855 C2861 1.429 . S
C2856 C2848 1.574 . S
C2856 H2851 0.949 . S
C2856 C2862 1.368 . S
C2857 C2841 1.349 . S
C2857 H2849 0.950 . S
C2857 C2855 1.327 . S
C2858 C2846 1.349 . S
C2858 H2852 0.950 . S
C2858 C2859 1.327 . S
C2859 H2853 0.950 . S
C2859 C2858 1.327 . S
C2859 C2863 1.429 . S
C2860 C2843 1.574 . S
C2860 H2854 0.949 . S
C2860 C2864 1.368 . S
C2861 C2842 1.429 . S
C2861 C2855 1.429 . S
C2861 C2862 1.523 . S
C2862 C2843 1.368 . S
C2862 C2856 1.368 . S
C2862 C2861 1.523 . S
C2863 C2847 1.429 . S
C2863 C2859 1.429 . S
C2863 C2864 1.523 . S
C2864 C2848 1.368 . S
C2864 C2860 1.368 . S
C2864 C2863 1.523 . S
H2865 C2840 0.950 . S
H2866 C2842 0.950 . S
H2867 C2843 0.949 . S
H2868 C2845 0.950 . S
H2869 C2847 0.950 . S
C2870 C2871 1.349 . S
C2870 C2872 1.327 . S
C2870 H2895 0.950 . S
C2871 C2870 1.349 . S
C2871 C2887 1.360 . S
C2872 C2870 1.327 . S
C2872 C2891 1.429 . S
C2872 H2896 0.950 . S
C2873 C2890 1.574 . S
C2873 C2892 1.368 1_565 S
C2873 H2897 0.949 . S
H2874 C2878 0.949 . S
C2875 C2876 1.349 . S
C2875 C2877 1.327 . S
C2875 H2898 0.950 . S
C2876 C2875 1.349 . S
C2876 C2888 1.360 . S
C2877 C2875 1.327 . S
C2877 C2893 1.429 . S
C2877 H2899 0.950 . S
C2878 H2874 0.949 . S
C2878 C2886 1.574 . S
C2878 C2894 1.368 1_545 S
H2879 C2887 0.942 1_565 S
H2880 C2885 0.950 . S
H2881 C2886 0.949 . S
H2882 C2888 0.942 1_545 S
H2883 C2889 0.950 . S
H2884 C2890 0.949 . S
C2885 H2880 0.950 . S
C2885 C2887 1.324 1_565 S
C2885 C2891 1.429 1_565 S
C2886 C2878 1.574 . S
C2886 H2881 0.949 . S
C2886 C2892 1.368 . S
C2887 C2871 1.360 . S
C2887 H2879 0.942 1_545 S
C2887 C2885 1.324 1_545 S
C2888 C2876 1.360 . S
C2888 H2882 0.942 1_565 S
C2888 C2889 1.324 1_565 S
C2889 H2883 0.950 . S
C2889 C2888 1.324 1_545 S
C2889 C2893 1.429 1_545 S
C2890 C2873 1.574 . S
C2890 H2884 0.949 . S
C2890 C2894 1.368 . S
C2891 C2872 1.429 . S
C2891 C2885 1.429 1_545 S
C2891 C2892 1.523 . S
C2892 C2873 1.368 1_545 S
C2892 C2886 1.368 . S
C2892 C2891 1.523 . S
C2893 C2877 1.429 . S
C2893 C2889 1.429 1_565 S
C2893 C2894 1.523 . S
C2894 C2878 1.368 1_565 S
C2894 C2890 1.368 . S
C2894 C2893 1.523 . S
H2895 C2870 0.950 . S
H2896 C2872 0.950 . S
H2897 C2873 0.949 . S
H2898 C2875 0.950 . S
H2899 C2877 0.950 . S
C2900 C2901 1.349 . S
C2900 C2902 1.327 . S
C2900 H2925 0.950 . S
C2901 C2900 1.349 . S
C2901 C2917 1.349 . S
C2902 C2900 1.327 . S
C2902 C2921 1.429 . S
C2902 H2926 0.950 . S
C2903 C2920 1.574 . S
C2903 C2922 1.368 . S
C2903 H2927 0.949 . S
H2904 C2908 0.949 . S
C2905 C2906 1.349 . S
C2905 C2907 1.327 . S
C2905 H2928 0.950 . S
C2906 C2905 1.349 . S
C2906 C2918 1.349 . S
C2907 C2905 1.327 . S
C2907 C2923 1.429 . S
C2907 H2929 0.950 . S
C2908 H2904 0.949 . S
C2908 C2916 1.574 . S
C2908 C2924 1.368 . S
H2909 C2917 0.950 . S
H2910 C2915 0.950 . S
H2911 C2916 0.949 . S
H2912 C2918 0.950 . S
H2913 C2919 0.950 . S
H2914 C2920 0.949 . S
C2915 H2910 0.950 . S
C2915 C2917 1.327 . S
C2915 C2921 1.429 . S
C2916 C2908 1.574 . S
C2916 H2911 0.949 . S
C2916 C2922 1.368 . S
C2917 C2901 1.349 . S
C2917 H2909 0.950 . S
C2917 C2915 1.327 . S
C2918 C2906 1.349 . S
C2918 H2912 0.950 . S
C2918 C2919 1.327 . S
C2919 H2913 0.950 . S
C2919 C2918 1.327 . S
C2919 C2923 1.429 . S
C2920 C2903 1.574 . S
C2920 H2914 0.949 . S
C2920 C2924 1.368 . S
C2921 C2902 1.429 . S
C2921 C2915 1.429 . S
C2921 C2922 1.523 . S
C2922 C2903 1.368 . S
C2922 C2916 1.368 . S
C2922 C2921 1.523 . S
C2923 C2907 1.429 . S
C2923 C2919 1.429 . S
C2923 C2924 1.523 . S
C2924 C2908 1.368 . S
C2924 C2920 1.368 . S
C2924 C2923 1.523 . S
H2925 C2900 0.950 . S
H2926 C2902 0.950 . S
H2927 C2903 0.949 . S
H2928 C2905 0.950 . S
H2929 C2907 0.950 . S
C2930 C2931 1.349 . S
C2930 C2932 1.327 . S
C2930 H2955 0.962 . S
C2931 C2930 1.349 . S
C2931 C2947 1.349 1_545 S
C2932 C2930 1.327 . S
C2932 C2951 1.429 . S
C2932 H2956 0.950 1_455 S
C2933 C2950 1.574 1_556 S
C2933 C2952 1.368 1_565 S
C2933 H2957 0.949 . S
H2934 C2938 0.949 . S
C2935 C2936 1.349 . S
C2935 C2937 1.327 . S
C2935 H2958 0.962 . S
C2936 C2935 1.349 . S
C2936 C2948 1.349 1_565 S
C2937 C2935 1.327 . S
C2937 C2953 1.429 . S
C2937 H2959 0.950 1_655 S
C2938 H2934 0.949 . S
C2938 C2946 1.574 1_554 S
C2938 C2954 1.368 1_545 S
H2939 C2947 0.950 . S
H2940 C2945 0.950 . S
H2941 C2946 0.949 . S
H2942 C2948 0.950 . S
H2943 C2949 0.950 . S
H2944 C2950 0.949 . S
C2945 H2940 0.950 . S
C2945 C2947 1.327 . S
C2945 C2951 1.429 1_565 S
C2946 C2938 1.574 1_556 S
C2946 H2941 0.949 . S
C2946 C2952 1.368 1_655 S
C2947 C2931 1.349 1_565 S
C2947 H2939 0.950 . S
C2947 C2945 1.327 . S
C2948 C2936 1.349 1_545 S
C2948 H2942 0.950 . S
C2948 C2949 1.327 . S
C2949 H2943 0.950 . S
C2949 C2948 1.327 . S
C2949 C2953 1.429 1_545 S
C2950 C2933 1.574 1_554 S
C2950 H2944 0.949 . S
C2950 C2954 1.368 1_455 S
C2951 C2932 1.429 . S
C2951 C2945 1.429 1_545 S
C2951 C2952 1.523 . S
C2952 C2933 1.368 1_545 S
C2952 C2946 1.368 1_455 S
C2952 C2951 1.523 . S
C2953 C2937 1.429 . S
C2953 C2949 1.429 1_565 S
C2953 C2954 1.523 . S
C2954 C2938 1.368 1_565 S
C2954 C2950 1.368 1_655 S
C2954 C2953 1.523 . S
H2955 C2930 0.962 . S
H2956 C2932 0.950 1_655 S
H2957 C2933 0.949 . S
H2958 C2935 0.962 . S
H2959 C2937 0.950 1_455 S
C2960 C2961 1.349 . S
C2960 C2962 1.327 . S
C2960 H2985 0.950 . S
C2961 C2960 1.349 . S
C2961 C2977 1.349 . S
C2962 C2960 1.327 . S
C2962 C2981 1.429 . S
C2962 H2986 0.950 . S
C2963 C2980 1.574 . S
C2963 C2982 1.368 . S
C2963 H2987 0.949 . S
H2964 C2968 0.949 . S
C2965 C2966 1.349 . S
C2965 C2967 1.327 . S
C2965 H2988 0.950 . S
C2966 C2965 1.349 . S
C2966 C2978 1.349 . S
C2967 C2965 1.327 . S
C2967 C2983 1.429 . S
C2967 H2989 0.950 . S
C2968 H2964 0.949 . S
C2968 C2976 1.574 . S
C2968 C2984 1.368 . S
H2969 C2977 0.950 . S
H2970 C2975 0.950 . S
H2971 C2976 0.949 . S
H2972 C2978 0.950 . S
H2973 C2979 0.950 . S
H2974 C2980 0.949 . S
C2975 H2970 0.950 . S
C2975 C2977 1.327 . S
C2975 C2981 1.429 . S
C2976 C2968 1.574 . S
C2976 H2971 0.949 . S
C2976 C2982 1.368 . S
C2977 C2961 1.349 . S
C2977 H2969 0.950 . S
C2977 C2975 1.327 . S
C2978 C2966 1.349 . S
C2978 H2972 0.950 . S
C2978 C2979 1.327 . S
C2979 H2973 0.950 . S
C2979 C2978 1.327 . S
C2979 C2983 1.429 . S
C2980 C2963 1.574 . S
C2980 H2974 0.949 . S
C2980 C2984 1.368 . S
C2981 C2962 1.429 . S
C2981 C2975 1.429 . S
C2981 C2982 1.523 . S
C2982 C2963 1.368 . S
C2982 C2976 1.368 . S
C2982 C2981 1.523 . S
C2983 C2967 1.429 . S
C2983 C2979 1.429 . S
C2983 C2984 1.523 . S
C2984 C2968 1.368 . S
C2984 C2980 1.368 . S
C2984 C2983 1.523 . S
H2985 C2960 0.950 . S
H2986 C2962 0.950 . S
H2987 C2963 0.949 . S
H2988 C2965 0.950 . S
H2989 C2967 0.950 . S
C2990 C2991 1.349 . S
C2990 C2992 1.327 . S
C2990 H3015 0.950 . S
C2991 C2990 1.349 . S
C2991 C3007 1.349 . S
C2992 C2990 1.327 . S
C2992 C3011 1.429 . S
C2992 H3016 0.950 . S
C2993 C3010 1.574 . S
C2993 C3012 1.368 . S
C2993 H3017 0.949 . S
H2994 C2998 0.949 . S
C2995 C2996 1.349 . S
C2995 C2997 1.327 . S
C2995 H3018 0.950 . S
C2996 C2995 1.349 . S
C2996 C3008 1.349 . S
C2997 C2995 1.327 . S
C2997 C3013 1.429 . S
C2997 H3019 0.950 . S
C2998 H2994 0.949 . S
C2998 C3006 1.574 . S
C2998 C3014 1.368 . S
H2999 C3007 0.950 . S
H3000 C3005 0.950 . S
H3001 C3006 0.949 . S
H3002 C3008 0.950 . S
H3003 C3009 0.950 . S
H3004 C3010 0.949 . S
C3005 H3000 0.950 . S
C3005 C3007 1.327 . S
C3005 C3011 1.429 . S
C3006 C2998 1.574 . S
C3006 H3001 0.949 . S
C3006 C3012 1.368 . S
C3007 C2991 1.349 . S
C3007 H2999 0.950 . S
C3007 C3005 1.327 . S
C3008 C2996 1.349 . S
C3008 H3002 0.950 . S
C3008 C3009 1.327 . S
C3009 H3003 0.950 . S
C3009 C3008 1.327 . S
C3009 C3013 1.429 . S
C3010 C2993 1.574 . S
C3010 H3004 0.949 . S
C3010 C3014 1.368 . S
C3011 C2992 1.429 . S
C3011 C3005 1.429 . S
C3011 C3012 1.523 . S
C3012 C2993 1.368 . S
C3012 C3006 1.368 . S
C3012 C3011 1.523 . S
C3013 C2997 1.429 . S
C3013 C3009 1.429 . S
C3013 C3014 1.523 . S
C3014 C2998 1.368 . S
C3014 C3010 1.368 . S
C3014 C3013 1.523 . S
H3015 C2990 0.950 . S
H3016 C2992 0.950 . S
H3017 C2993 0.949 . S
H3018 C2995 0.950 . S
H3019 C2997 0.950 . S
C3020 C3021 1.349 . S
C3020 C3022 1.327 . S
C3020 H3045 0.950 . S
C3021 C3020 1.349 . S
C3021 C3037 1.349 . S
C3022 C3020 1.327 . S
C3022 C3041 1.429 . S
C3022 H3046 0.950 . S
C3023 C3040 1.574 . S
C3023 C3042 1.368 . S
C3023 H3047 0.949 . S
H3024 C3028 0.949 . S
C3025 C3026 1.349 . S
C3025 C3027 1.327 . S
C3025 H3048 0.950 . S
C3026 C3025 1.349 . S
C3026 C3038 1.349 . S
C3027 C3025 1.327 . S
C3027 C3043 1.429 . S
C3027 H3049 0.950 . S
C3028 H3024 0.949 . S
C3028 C3036 1.574 . S
C3028 C3044 1.368 . S
H3029 C3037 0.950 . S
H3030 C3035 0.950 . S
H3031 C3036 0.949 . S
H3032 C3038 0.950 . S
H3033 C3039 0.950 . S
H3034 C3040 0.949 . S
C3035 H3030 0.950 . S
C3035 C3037 1.327 . S
C3035 C3041 1.429 . S
C3036 C3028 1.574 . S
C3036 H3031 0.949 . S
C3036 C3042 1.368 . S
C3037 C3021 1.349 . S
C3037 H3029 0.950 . S
C3037 C3035 1.327 . S
C3038 C3026 1.349 . S
C3038 H3032 0.950 . S
C3038 C3039 1.327 . S
C3039 H3033 0.950 . S
C3039 C3038 1.327 . S
C3039 C3043 1.429 . S
C3040 C3023 1.574 . S
C3040 H3034 0.949 . S
C3040 C3044 1.368 . S
C3041 C3022 1.429 . S
C3041 C3035 1.429 . S
C3041 C3042 1.523 . S
C3042 C3023 1.368 . S
C3042 C3036 1.368 . S
C3042 C3041 1.523 . S
C3043 C3027 1.429 . S
C3043 C3039 1.429 . S
C3043 C3044 1.523 . S
C3044 C3028 1.368 . S
C3044 C3040 1.368 . S
C3044 C3043 1.523 . S
H3045 C3020 0.950 . S
H3046 C3022 0.950 . S
H3047 C3023 0.949 . S
H3048 C3025 0.950 . S
H3049 C3027 0.950 . S
C3050 C3051 1.349 . S
C3050 C3052 1.327 . S
C3050 H3075 0.950 . S
C3051 C3050 1.349 . S
C3051 C3067 1.349 . S
C3052 C3050 1.327 . S
C3052 C3071 1.429 . S
C3052 H3076 0.950 . S
C3053 C3070 1.574 . S
C3053 C3072 1.368 . S
C3053 H3077 0.949 . S
H3054 C3058 0.949 . S
C3055 C3056 1.349 . S
C3055 C3057 1.327 . S
C3055 H3078 0.950 . S
C3056 C3055 1.349 . S
C3056 C3068 1.349 . S
C3057 C3055 1.327 . S
C3057 C3073 1.429 . S
C3057 H3079 0.950 . S
C3058 H3054 0.949 . S
C3058 C3066 1.574 . S
C3058 C3074 1.368 . S
H3059 C3067 0.950 . S
H3060 C3065 0.950 . S
H3061 C3066 0.949 . S
H3062 C3068 0.950 . S
H3063 C3069 0.950 . S
H3064 C3070 0.949 . S
C3065 H3060 0.950 . S
C3065 C3067 1.327 . S
C3065 C3071 1.429 . S
C3066 C3058 1.574 . S
C3066 H3061 0.949 . S
C3066 C3072 1.368 . S
C3067 C3051 1.349 . S
C3067 H3059 0.950 . S
C3067 C3065 1.327 . S
C3068 C3056 1.349 . S
C3068 H3062 0.950 . S
C3068 C3069 1.327 . S
C3069 H3063 0.950 . S
C3069 C3068 1.327 . S
C3069 C3073 1.429 . S
C3070 C3053 1.574 . S
C3070 H3064 0.949 . S
C3070 C3074 1.368 . S
C3071 C3052 1.429 . S
C3071 C3065 1.429 . S
C3071 C3072 1.523 . S
C3072 C3053 1.368 . S
C3072 C3066 1.368 . S
C3072 C3071 1.523 . S
C3073 C3057 1.429 . S
C3073 C3069 1.429 . S
C3073 C3074 1.523 . S
C3074 C3058 1.368 . S
C3074 C3070 1.368 . S
C3074 C3073 1.523 . S
H3075 C3050 0.950 . S
H3076 C3052 0.950 . S
H3077 C3053 0.949 . S
H3078 C3055 0.950 . S
H3079 C3057 0.950 . S
C3080 C3081 1.349 . S
C3080 C3082 1.327 . S
C3080 H3105 0.950 . S
C3081 C3080 1.349 . S
C3081 C3097 1.349 . S
C3082 C3080 1.327 . S
C3082 C3101 1.429 . S
C3082 H3106 0.950 . S
C3083 C3100 1.574 1_554 S
C3083 C3102 1.368 . S
C3083 H3107 0.949 . S
H3084 C3088 0.949 . S
C3085 C3086 1.349 . S
C3085 C3087 1.327 . S
C3085 H3108 0.950 . S
C3086 C3085 1.349 . S
C3086 C3098 1.349 . S
C3087 C3085 1.327 . S
C3087 C3103 1.429 . S
C3087 H3109 0.950 . S
C3088 H3084 0.949 . S
C3088 C3096 1.574 1_556 S
C3088 C3104 1.368 . S
H3089 C3097 0.950 . S
H3090 C3095 0.950 . S
H3091 C3096 0.949 . S
H3092 C3098 0.950 . S
H3093 C3099 0.950 . S
H3094 C3100 0.949 . S
C3095 H3090 0.950 . S
C3095 C3097 1.327 . S
C3095 C3101 1.429 . S
C3096 C3088 1.574 1_554 S
C3096 H3091 0.949 . S
C3096 C3102 1.368 . S
C3097 C3081 1.349 . S
C3097 H3089 0.950 . S
C3097 C3095 1.327 . S
C3098 C3086 1.349 . S
C3098 H3092 0.950 . S
C3098 C3099 1.327 . S
C3099 H3093 0.950 . S
C3099 C3098 1.327 . S
C3099 C3103 1.429 . S
C3100 C3083 1.574 1_556 S
C3100 H3094 0.949 . S
C3100 C3104 1.368 . S
C3101 C3082 1.429 . S
C3101 C3095 1.429 . S
C3101 C3102 1.523 . S
C3102 C3083 1.368 . S
C3102 C3096 1.368 . S
C3102 C3101 1.523 . S
C3103 C3087 1.429 . S
C3103 C3099 1.429 . S
C3103 C3104 1.523 . S
C3104 C3088 1.368 . S
C3104 C3100 1.368 . S
C3104 C3103 1.523 . S
H3105 C3080 0.950 . S
H3106 C3082 0.950 . S
H3107 C3083 0.949 . S
H3108 C3085 0.950 . S
H3109 C3087 0.950 . S
C3110 C3111 1.349 . S
C3110 C3112 1.327 . S
C3110 H3135 0.949 1_655 S
C3111 C3110 1.349 . S
C3111 C3127 1.349 . S
C3112 C3110 1.327 . S
C3112 C3131 1.429 . S
C3112 H3136 0.950 1_655 S
C3113 C3130 1.574 . S
C3113 C3132 1.368 . S
C3113 H3137 0.949 . S
H3114 C3118 0.949 . S
C3115 C3116 1.349 . S
C3115 C3117 1.327 . S
C3115 H3138 0.949 1_455 S
C3116 C3115 1.349 . S
C3116 C3128 1.349 . S
C3117 C3115 1.327 . S
C3117 C3133 1.429 . S
C3117 H3139 0.950 1_455 S
C3118 H3114 0.949 . S
C3118 C3126 1.574 . S
C3118 C3134 1.368 . S
H3119 C3127 0.950 . S
H3120 C3125 0.950 . S
H3121 C3126 0.949 . S
H3122 C3128 0.950 . S
H3123 C3129 0.950 . S
H3124 C3130 0.949 . S
C3125 H3120 0.950 . S
C3125 C3127 1.327 . S
C3125 C3131 1.429 . S
C3126 C3118 1.574 . S
C3126 H3121 0.949 . S
C3126 C3132 1.368 1_455 S
C3127 C3111 1.349 . S
C3127 H3119 0.950 . S
C3127 C3125 1.327 . S
C3128 C3116 1.349 . S
C3128 H3122 0.950 . S
C3128 C3129 1.327 . S
C3129 H3123 0.950 . S
C3129 C3128 1.327 . S
C3129 C3133 1.429 . S
C3130 C3113 1.574 . S
C3130 H3124 0.949 . S
C3130 C3134 1.368 1_655 S
C3131 C3112 1.429 . S
C3131 C3125 1.429 . S
C3131 C3132 1.523 . S
C3132 C3113 1.368 . S
C3132 C3126 1.368 1_655 S
C3132 C3131 1.523 . S
C3133 C3117 1.429 . S
C3133 C3129 1.429 . S
C3133 C3134 1.523 . S
C3134 C3118 1.368 . S
C3134 C3130 1.368 1_455 S
C3134 C3133 1.523 . S
H3135 C3110 0.949 1_455 S
H3136 C3112 0.950 1_455 S
H3137 C3113 0.949 . S
H3138 C3115 0.949 1_655 S
H3139 C3117 0.950 1_655 S
C3140 C3141 1.349 . S
C3140 C3142 1.327 . S
C3140 H3165 0.950 . S
C3141 C3140 1.349 . S
C3141 C3157 1.349 . S
C3142 C3140 1.327 . S
C3142 C3161 1.429 . S
C3142 H3166 0.950 . S
C3143 C3160 1.574 1_554 S
C3143 C3162 1.368 1_655 S
C3143 H3167 0.949 . S
H3144 C3148 0.949 . S
C3145 C3146 1.349 . S
C3145 C3147 1.327 . S
C3145 H3168 0.950 . S
C3146 C3145 1.349 . S
C3146 C3158 1.349 . S
C3147 C3145 1.327 . S
C3147 C3163 1.429 . S
C3147 H3169 0.950 . S
C3148 H3144 0.949 . S
C3148 C3156 1.574 1_556 S
C3148 C3164 1.368 1_455 S
H3149 C3157 0.950 . S
H3150 C3155 0.950 1_655 S
H3151 C3156 0.949 . S
H3152 C3158 0.950 . S
H3153 C3159 0.950 1_455 S
H3154 C3160 0.949 . S
C3155 H3150 0.950 1_455 S
C3155 C3157 1.327 . S
C3155 C3161 1.429 . S
C3156 C3148 1.574 1_554 S
C3156 H3151 0.949 . S
C3156 C3162 1.368 . S
C3157 C3141 1.349 . S
C3157 H3149 0.950 . S
C3157 C3155 1.327 . S
C3158 C3146 1.349 . S
C3158 H3152 0.950 . S
C3158 C3159 1.327 . S
C3159 H3153 0.950 1_655 S
C3159 C3158 1.327 . S
C3159 C3163 1.429 . S
C3160 C3143 1.574 1_556 S
C3160 H3154 0.949 . S
C3160 C3164 1.368 . S
C3161 C3142 1.429 . S
C3161 C3155 1.429 . S
C3161 C3162 1.523 . S
C3162 C3143 1.368 1_455 S
C3162 C3156 1.368 . S
C3162 C3161 1.523 . S
C3163 C3147 1.429 . S
C3163 C3159 1.429 . S
C3163 C3164 1.523 . S
C3164 C3148 1.368 1_655 S
C3164 C3160 1.368 . S
C3164 C3163 1.523 . S
H3165 C3140 0.950 . S
H3166 C3142 0.950 . S
H3167 C3143 0.949 . S
H3168 C3145 0.950 . S
H3169 C3147 0.950 . S
C3170 C3171 1.349 . S
C3170 C3172 1.327 . S
C3170 H3195 0.950 . S
C3171 C3170 1.349 . S
C3171 C3187 1.349 . S
C3172 C3170 1.327 . S
C3172 C3191 1.429 . S
C3172 H3196 0.950 . S
C3173 C3190 1.574 . S
C3173 C3192 1.368 . S
C3173 H3197 0.949 . S
H3174 C3178 0.949 . S
C3175 C3176 1.349 . S
C3175 C3177 1.327 . S
C3175 H3198 0.950 . S
C3176 C3175 1.349 . S
C3176 C3188 1.349 . S
C3177 C3175 1.327 . S
C3177 C3193 1.429 . S
C3177 H3199 0.950 . S
C3178 H3174 0.949 . S
C3178 C3186 1.574 . S
C3178 C3194 1.368 . S
H3179 C3187 0.950 . S
H3180 C3185 0.950 . S
H3181 C3186 0.949 . S
H3182 C3188 0.950 . S
H3183 C3189 0.950 . S
H3184 C3190 0.949 . S
C3185 H3180 0.950 . S
C3185 C3187 1.327 . S
C3185 C3191 1.429 . S
C3186 C3178 1.574 . S
C3186 H3181 0.949 . S
C3186 C3192 1.368 . S
C3187 C3171 1.349 . S
C3187 H3179 0.950 . S
C3187 C3185 1.327 . S
C3188 C3176 1.349 . S
C3188 H3182 0.950 . S
C3188 C3189 1.327 . S
C3189 H3183 0.950 . S
C3189 C3188 1.327 . S
C3189 C3193 1.429 . S
C3190 C3173 1.574 . S
C3190 H3184 0.949 . S
C3190 C3194 1.368 . S
C3191 C3172 1.429 . S
C3191 C3185 1.429 . S
C3191 C3192 1.523 . S
C3192 C3173 1.368 . S
C3192 C3186 1.368 . S
C3192 C3191 1.523 . S
C3193 C3177 1.429 . S
C3193 C3189 1.429 . S
C3193 C3194 1.523 . S
C3194 C3178 1.368 . S
C3194 C3190 1.368 . S
C3194 C3193 1.523 . S
H3195 C3170 0.950 . S
H3196 C3172 0.950 . S
H3197 C3173 0.949 . S
H3198 C3175 0.950 . S
H3199 C3177 0.950 . S
C3200 C3201 1.349 . S
C3200 C3202 1.327 . S
C3200 H3225 0.950 . S
C3201 C3200 1.349 . S
C3201 C3217 1.349 . S
C3202 C3200 1.327 . S
C3202 C3221 1.429 . S
C3202 H3226 0.950 . S
C3203 C3220 1.574 . S
C3203 C3222 1.368 . S
C3203 H3227 0.949 . S
H3204 C3208 0.949 . S
C3205 C3206 1.349 . S
C3205 C3207 1.327 . S
C3205 H3228 0.950 . S
C3206 C3205 1.349 . S
C3206 C3218 1.349 . S
C3207 C3205 1.327 . S
C3207 C3223 1.429 . S
C3207 H3229 0.950 . S
C3208 H3204 0.949 . S
C3208 C3216 1.574 . S
C3208 C3224 1.368 . S
H3209 C3217 0.950 . S
H3210 C3215 0.950 . S
H3211 C3216 0.949 . S
H3212 C3218 0.950 . S
H3213 C3219 0.950 . S
H3214 C3220 0.949 . S
C3215 H3210 0.950 . S
C3215 C3217 1.327 . S
C3215 C3221 1.429 . S
C3216 C3208 1.574 . S
C3216 H3211 0.949 . S
C3216 C3222 1.368 . S
C3217 C3201 1.349 . S
C3217 H3209 0.950 . S
C3217 C3215 1.327 . S
C3218 C3206 1.349 . S
C3218 H3212 0.950 . S
C3218 C3219 1.327 . S
C3219 H3213 0.950 . S
C3219 C3218 1.327 . S
C3219 C3223 1.429 . S
C3220 C3203 1.574 . S
C3220 H3214 0.949 . S
C3220 C3224 1.368 . S
C3221 C3202 1.429 . S
C3221 C3215 1.429 . S
C3221 C3222 1.523 . S
C3222 C3203 1.368 . S
C3222 C3216 1.368 . S
C3222 C3221 1.523 . S
C3223 C3207 1.429 . S
C3223 C3219 1.429 . S
C3223 C3224 1.523 . S
C3224 C3208 1.368 . S
C3224 C3220 1.368 . S
C3224 C3223 1.523 . S
H3225 C3200 0.950 . S
H3226 C3202 0.950 . S
H3227 C3203 0.949 . S
H3228 C3205 0.950 . S
H3229 C3207 0.950 . S
C3230 C3231 1.349 . S
C3230 C3232 1.327 . S
C3230 H3255 0.950 . S
C3231 C3230 1.349 . S
C3231 C3247 1.349 . S
C3232 C3230 1.327 . S
C3232 C3251 1.429 . S
C3232 H3256 0.950 . S
C3233 C3250 1.574 . S
C3233 C3252 1.368 . S
C3233 H3257 0.949 . S
H3234 C3238 0.949 . S
C3235 C3236 1.349 . S
C3235 C3237 1.327 . S
C3235 H3258 0.950 . S
C3236 C3235 1.349 . S
C3236 C3248 1.349 . S
C3237 C3235 1.327 . S
C3237 C3253 1.429 . S
C3237 H3259 0.950 . S
C3238 H3234 0.949 . S
C3238 C3246 1.574 . S
C3238 C3254 1.368 . S
H3239 C3247 0.950 . S
H3240 C3245 0.950 . S
H3241 C3246 0.949 . S
H3242 C3248 0.950 . S
H3243 C3249 0.950 . S
H3244 C3250 0.949 . S
C3245 H3240 0.950 . S
C3245 C3247 1.327 . S
C3245 C3251 1.429 . S
C3246 C3238 1.574 . S
C3246 H3241 0.949 . S
C3246 C3252 1.368 . S
C3247 C3231 1.349 . S
C3247 H3239 0.950 . S
C3247 C3245 1.327 . S
C3248 C3236 1.349 . S
C3248 H3242 0.950 . S
C3248 C3249 1.327 . S
C3249 H3243 0.950 . S
C3249 C3248 1.327 . S
C3249 C3253 1.429 . S
C3250 C3233 1.574 . S
C3250 H3244 0.949 . S
C3250 C3254 1.368 . S
C3251 C3232 1.429 . S
C3251 C3245 1.429 . S
C3251 C3252 1.523 . S
C3252 C3233 1.368 . S
C3252 C3246 1.368 . S
C3252 C3251 1.523 . S
C3253 C3237 1.429 . S
C3253 C3249 1.429 . S
C3253 C3254 1.523 . S
C3254 C3238 1.368 . S
C3254 C3250 1.368 . S
C3254 C3253 1.523 . S
H3255 C3230 0.950 . S
H3256 C3232 0.950 . S
H3257 C3233 0.949 . S
H3258 C3235 0.950 . S
H3259 C3237 0.950 . S
C3260 C3261 1.349 . S
C3260 C3262 1.327 . S
C3260 H3285 0.950 . S
C3261 C3260 1.349 . S
C3261 C3277 1.349 . S
C3262 C3260 1.327 . S
C3262 C3281 1.429 . S
C3262 H3286 0.950 . S
C3263 C3280 1.574 . S
C3263 C3282 1.368 . S
C3263 H3287 0.949 . S
H3264 C3268 0.949 . S
C3265 C3266 1.349 . S
C3265 C3267 1.327 . S
C3265 H3288 0.950 . S
C3266 C3265 1.349 . S
C3266 C3278 1.349 . S
C3267 C3265 1.327 . S
C3267 C3283 1.429 . S
C3267 H3289 0.950 . S
C3268 H3264 0.949 . S
C3268 C3276 1.574 . S
C3268 C3284 1.368 . S
H3269 C3277 0.950 . S
H3270 C3275 0.950 . S
H3271 C3276 0.949 . S
H3272 C3278 0.950 . S
H3273 C3279 0.950 . S
H3274 C3280 0.949 . S
C3275 H3270 0.950 . S
C3275 C3277 1.327 . S
C3275 C3281 1.429 . S
C3276 C3268 1.574 . S
C3276 H3271 0.949 . S
C3276 C3282 1.368 . S
C3277 C3261 1.349 . S
C3277 H3269 0.950 . S
C3277 C3275 1.327 . S
C3278 C3266 1.349 . S
C3278 H3272 0.950 . S
C3278 C3279 1.327 . S
C3279 H3273 0.950 . S
C3279 C3278 1.327 . S
C3279 C3283 1.429 . S
C3280 C3263 1.574 . S
C3280 H3274 0.949 . S
C3280 C3284 1.368 . S
C3281 C3262 1.429 . S
C3281 C3275 1.429 . S
C3281 C3282 1.523 . S
C3282 C3263 1.368 . S
C3282 C3276 1.368 . S
C3282 C3281 1.523 . S
C3283 C3267 1.429 . S
C3283 C3279 1.429 . S
C3283 C3284 1.523 . S
C3284 C3268 1.368 . S
C3284 C3280 1.368 . S
C3284 C3283 1.523 . S
H3285 C3260 0.950 . S
H3286 C3262 0.950 . S
H3287 C3263 0.949 . S
H3288 C3265 0.950 . S
H3289 C3267 0.950 . S
C3290 C3291 1.349 . S
C3290 C3292 1.327 . S
C3290 H3315 0.950 . S
C3291 C3290 1.349 . S
C3291 C3307 1.349 . S
C3292 C3290 1.327 . S
C3292 C3311 1.429 . S
C3292 H3316 0.950 . S
C3293 C3310 1.574 . S
C3293 C3312 1.368 . S
C3293 H3317 0.949 . S
H3294 C3298 0.949 . S
C3295 C3296 1.349 . S
C3295 C3297 1.327 . S
C3295 H3318 0.950 . S
C3296 C3295 1.349 . S
C3296 C3308 1.349 . S
C3297 C3295 1.327 . S
C3297 C3313 1.429 . S
C3297 H3319 0.950 . S
C3298 H3294 0.949 . S
C3298 C3306 1.574 . S
C3298 C3314 1.368 . S
H3299 C3307 0.950 . S
H3300 C3305 0.950 . S
H3301 C3306 0.949 . S
H3302 C3308 0.950 . S
H3303 C3309 0.950 . S
H3304 C3310 0.949 . S
C3305 H3300 0.950 . S
C3305 C3307 1.327 . S
C3305 C3311 1.429 . S
C3306 C3298 1.574 . S
C3306 H3301 0.949 . S
C3306 C3312 1.368 . S
C3307 C3291 1.349 . S
C3307 H3299 0.950 . S
C3307 C3305 1.327 . S
C3308 C3296 1.349 . S
C3308 H3302 0.950 . S
C3308 C3309 1.327 . S
C3309 H3303 0.950 . S
C3309 C3308 1.327 . S
C3309 C3313 1.429 . S
C3310 C3293 1.574 . S
C3310 H3304 0.949 . S
C3310 C3314 1.368 . S
C3311 C3292 1.429 . S
C3311 C3305 1.429 . S
C3311 C3312 1.523 . S
C3312 C3293 1.368 . S
C3312 C3306 1.368 . S
C3312 C3311 1.523 . S
C3313 C3297 1.429 . S
C3313 C3309 1.429 . S
C3313 C3314 1.523 . S
C3314 C3298 1.368 . S
C3314 C3310 1.368 . S
C3314 C3313 1.523 . S
H3315 C3290 0.950 . S
H3316 C3292 0.950 . S
H3317 C3293 0.949 . S
H3318 C3295 0.950 . S
H3319 C3297 0.950 . S
C3320 C3321 1.349 . S
C3320 C3322 1.327 . S
C3320 H3345 0.950 . S
C3321 C3320 1.349 . S
C3321 C3337 1.349 . S
C3322 C3320 1.327 . S
C3322 C3341 1.429 . S
C3322 H3346 0.950 . S
C3323 C3340 1.574 . S
C3323 C3342 1.368 . S
C3323 H3347 0.949 . S
H3324 C3328 0.949 . S
C3325 C3326 1.349 . S
C3325 C3327 1.327 . S
C3325 H3348 0.950 . S
C3326 C3325 1.349 . S
C3326 C3338 1.349 . S
C3327 C3325 1.327 . S
C3327 C3343 1.429 . S
C3327 H3349 0.950 . S
C3328 H3324 0.949 . S
C3328 C3336 1.574 . S
C3328 C3344 1.368 . S
H3329 C3337 0.950 . S
H3330 C3335 0.950 . S
H3331 C3336 0.949 . S
H3332 C3338 0.950 . S
H3333 C3339 0.950 . S
H3334 C3340 0.949 . S
C3335 H3330 0.950 . S
C3335 C3337 1.327 . S
C3335 C3341 1.429 . S
C3336 C3328 1.574 . S
C3336 H3331 0.949 . S
C3336 C3342 1.368 . S
C3337 C3321 1.349 . S
C3337 H3329 0.950 . S
C3337 C3335 1.327 . S
C3338 C3326 1.349 . S
C3338 H3332 0.950 . S
C3338 C3339 1.327 . S
C3339 H3333 0.950 . S
C3339 C3338 1.327 . S
C3339 C3343 1.429 . S
C3340 C3323 1.574 . S
C3340 H3334 0.949 . S
C3340 C3344 1.368 . S
C3341 C3322 1.429 . S
C3341 C3335 1.429 . S
C3341 C3342 1.523 . S
C3342 C3323 1.368 . S
C3342 C3336 1.368 . S
C3342 C3341 1.523 . S
C3343 C3327 1.429 . S
C3343 C3339 1.429 . S
C3343 C3344 1.523 . S
C3344 C3328 1.368 . S
C3344 C3340 1.368 . S
C3344 C3343 1.523 . S
H3345 C3320 0.950 . S
H3346 C3322 0.950 . S
H3347 C3323 0.949 . S
H3348 C3325 0.950 . S
H3349 C3327 0.950 . S
C3350 C3351 1.349 . S
C3350 C3352 1.327 . S
C3350 H3375 0.950 . S
C3351 C3350 1.349 . S
C3351 C3367 1.349 . S
C3352 C3350 1.327 . S
C3352 C3371 1.429 . S
C3352 H3376 0.950 . S
C3353 C3370 1.574 . S
C3353 C3372 1.368 . S
C3353 H3377 0.949 . S
H3354 C3358 0.949 . S
C3355 C3356 1.349 . S
C3355 C3357 1.327 . S
C3355 H3378 0.950 . S
C3356 C3355 1.349 . S
C3356 C3368 1.349 . S
C3357 C3355 1.327 . S
C3357 C3373 1.429 . S
C3357 H3379 0.950 . S
C3358 H3354 0.949 . S
C3358 C3366 1.574 . S
C3358 C3374 1.368 . S
H3359 C3367 0.950 . S
H3360 C3365 0.950 . S
H3361 C3366 0.949 . S
H3362 C3368 0.950 . S
H3363 C3369 0.950 . S
H3364 C3370 0.949 . S
C3365 H3360 0.950 . S
C3365 C3367 1.327 . S
C3365 C3371 1.429 . S
C3366 C3358 1.574 . S
C3366 H3361 0.949 . S
C3366 C3372 1.368 . S
C3367 C3351 1.349 . S
C3367 H3359 0.950 . S
C3367 C3365 1.327 . S
C3368 C3356 1.349 . S
C3368 H3362 0.950 . S
C3368 C3369 1.327 . S
C3369 H3363 0.950 . S
C3369 C3368 1.327 . S
C3369 C3373 1.429 . S
C3370 C3353 1.574 . S
C3370 H3364 0.949 . S
C3370 C3374 1.368 . S
C3371 C3352 1.429 . S
C3371 C3365 1.429 . S
C3371 C3372 1.523 . S
C3372 C3353 1.368 . S
C3372 C3366 1.368 . S
C3372 C3371 1.523 . S
C3373 C3357 1.429 . S
C3373 C3369 1.429 . S
C3373 C3374 1.523 . S
C3374 C3358 1.368 . S
C3374 C3370 1.368 . S
C3374 C3373 1.523 . S
H3375 C3350 0.950 . S
H3376 C3352 0.950 . S
H3377 C3353 0.949 . S
H3378 C3355 0.950 . S
H3379 C3357 0.950 . S
C3380 C3381 1.349 . S
C3380 C3382 1.327 . S
C3380 H3405 0.950 . S
C3381 C3380 1.349 . S
C3381 C3397 1.349 . S
C3382 C3380 1.327 . S
C3382 C3401 1.429 . S
C3382 H3406 0.950 . S
C3383 C3400 1.574 . S
C3383 C3402 1.368 . S
C3383 H3407 0.949 . S
H3384 C3388 0.949 . S
C3385 C3386 1.349 . S
C3385 C3387 1.327 . S
C3385 H3408 0.950 . S
C3386 C3385 1.349 . S
C3386 C3398 1.349 . S
C3387 C3385 1.327 . S
C3387 C3403 1.429 . S
C3387 H3409 0.950 . S
C3388 H3384 0.949 . S
C3388 C3396 1.574 . S
C3388 C3404 1.368 . S
H3389 C3397 0.950 . S
H3390 C3395 0.950 . S
H3391 C3396 0.949 . S
H3392 C3398 0.950 . S
H3393 C3399 0.950 . S
H3394 C3400 0.949 . S
C3395 H3390 0.950 . S
C3395 C3397 1.327 . S
C3395 C3401 1.429 . S
C3396 C3388 1.574 . S
C3396 H3391 0.949 . S
C3396 C3402 1.368 . S
C3397 C3381 1.349 . S
C3397 H3389 0.950 . S
C3397 C3395 1.327 . S
C3398 C3386 1.349 . S
C3398 H3392 0.950 . S
C3398 C3399 1.327 . S
C3399 H3393 0.950 . S
C3399 C3398 1.327 . S
C3399 C3403 1.429 . S
C3400 C3383 1.574 . S
C3400 H3394 0.949 . S
C3400 C3404 1.368 . S
C3401 C3382 1.429 . S
C3401 C3395 1.429 . S
C3401 C3402 1.523 . S
C3402 C3383 1.368 . S
C3402 C3396 1.368 . S
C3402 C3401 1.523 . S
C3403 C3387 1.429 . S
C3403 C3399 1.429 . S
C3403 C3404 1.523 . S
C3404 C3388 1.368 . S
C3404 C3400 1.368 . S
C3404 C3403 1.523 . S
H3405 C3380 0.950 . S
H3406 C3382 0.950 . S
H3407 C3383 0.949 . S
H3408 C3385 0.950 . S
H3409 C3387 0.950 . S
C3410 C3411 1.349 . S
C3410 C3412 1.327 . S
C3410 H3435 0.950 . S
C3411 C3410 1.349 . S
C3411 C3427 1.349 . S
C3412 C3410 1.327 . S
C3412 C3431 1.429 . S
C3412 H3436 0.950 . S
C3413 C3430 1.574 . S
C3413 C3432 1.368 . S
C3413 H3437 0.949 . S
H3414 C3418 0.949 . S
C3415 C3416 1.349 . S
C3415 C3417 1.327 . S
C3415 H3438 0.950 . S
C3416 C3415 1.349 . S
C3416 C3428 1.349 . S
C3417 C3415 1.327 . S
C3417 C3433 1.429 . S
C3417 H3439 0.950 . S
C3418 H3414 0.949 . S
C3418 C3426 1.574 . S
C3418 C3434 1.368 . S
H3419 C3427 0.950 . S
H3420 C3425 0.950 . S
H3421 C3426 0.949 . S
H3422 C3428 0.950 . S
H3423 C3429 0.950 . S
H3424 C3430 0.949 . S
C3425 H3420 0.950 . S
C3425 C3427 1.327 . S
C3425 C3431 1.429 . S
C3426 C3418 1.574 . S
C3426 H3421 0.949 . S
C3426 C3432 1.368 . S
C3427 C3411 1.349 . S
C3427 H3419 0.950 . S
C3427 C3425 1.327 . S
C3428 C3416 1.349 . S
C3428 H3422 0.950 . S
C3428 C3429 1.327 . S
C3429 H3423 0.950 . S
C3429 C3428 1.327 . S
C3429 C3433 1.429 . S
C3430 C3413 1.574 . S
C3430 H3424 0.949 . S
C3430 C3434 1.368 . S
C3431 C3412 1.429 . S
C3431 C3425 1.429 . S
C3431 C3432 1.523 . S
C3432 C3413 1.368 . S
C3432 C3426 1.368 . S
C3432 C3431 1.523 . S
C3433 C3417 1.429 . S
C3433 C3429 1.429 . S
C3433 C3434 1.523 . S
C3434 C3418 1.368 . S
C3434 C3430 1.368 . S
C3434 C3433 1.523 . S
H3435 C3410 0.950 . S
H3436 C3412 0.950 . S
H3437 C3413 0.949 . S
H3438 C3415 0.950 . S
H3439 C3417 0.950 . S
C3440 C3441 1.349 . S
C3440 C3442 1.327 . S
C3440 H3465 0.950 . S
C3441 C3440 1.349 . S
C3441 C3457 1.349 . S
C3442 C3440 1.327 . S
C3442 C3461 1.429 . S
C3442 H3466 0.950 . S
C3443 C3460 1.574 . S
C3443 C3462 1.368 . S
C3443 H3467 0.949 . S
H3444 C3448 0.949 . S
C3445 C3446 1.349 . S
C3445 C3447 1.327 . S
C3445 H3468 0.950 . S
C3446 C3445 1.349 . S
C3446 C3458 1.349 . S
C3447 C3445 1.327 . S
C3447 C3463 1.429 . S
C3447 H3469 0.950 . S
C3448 H3444 0.949 . S
C3448 C3456 1.574 . S
C3448 C3464 1.368 . S
H3449 C3457 0.950 . S
H3450 C3455 0.950 . S
H3451 C3456 0.949 . S
H3452 C3458 0.950 . S
H3453 C3459 0.950 . S
H3454 C3460 0.949 . S
C3455 H3450 0.950 . S
C3455 C3457 1.327 . S
C3455 C3461 1.429 . S
C3456 C3448 1.574 . S
C3456 H3451 0.949 . S
C3456 C3462 1.368 . S
C3457 C3441 1.349 . S
C3457 H3449 0.950 . S
C3457 C3455 1.327 . S
C3458 C3446 1.349 . S
C3458 H3452 0.950 . S
C3458 C3459 1.327 . S
C3459 H3453 0.950 . S
C3459 C3458 1.327 . S
C3459 C3463 1.429 . S
C3460 C3443 1.574 . S
C3460 H3454 0.949 . S
C3460 C3464 1.368 . S
C3461 C3442 1.429 . S
C3461 C3455 1.429 . S
C3461 C3462 1.523 . S
C3462 C3443 1.368 . S
C3462 C3456 1.368 . S
C3462 C3461 1.523 . S
C3463 C3447 1.429 . S
C3463 C3459 1.429 . S
C3463 C3464 1.523 . S
C3464 C3448 1.368 . S
C3464 C3460 1.368 . S
C3464 C3463 1.523 . S
H3465 C3440 0.950 . S
H3466 C3442 0.950 . S
H3467 C3443 0.949 . S
H3468 C3445 0.950 . S
H3469 C3447 0.950 . S
C3470 C3471 1.349 . S
C3470 C3472 1.327 . S
C3470 H3495 0.950 . S
C3471 C3470 1.349 . S
C3471 C3487 1.349 . S
C3472 C3470 1.327 . S
C3472 C3491 1.429 . S
C3472 H3496 0.950 . S
C3473 C3490 1.574 . S
C3473 C3492 1.368 . S
C3473 H3497 0.949 . S
H3474 C3478 0.949 . S
C3475 C3476 1.349 . S
C3475 C3477 1.327 . S
C3475 H3498 0.950 . S
C3476 C3475 1.349 . S
C3476 C3488 1.349 . S
C3477 C3475 1.327 . S
C3477 C3493 1.429 . S
C3477 H3499 0.950 . S
C3478 H3474 0.949 . S
C3478 C3486 1.574 . S
C3478 C3494 1.368 . S
H3479 C3487 0.950 . S
H3480 C3485 0.950 . S
H3481 C3486 0.949 . S
H3482 C3488 0.950 . S
H3483 C3489 0.950 . S
H3484 C3490 0.949 . S
C3485 H3480 0.950 . S
C3485 C3487 1.327 . S
C3485 C3491 1.429 . S
C3486 C3478 1.574 . S
C3486 H3481 0.949 . S
C3486 C3492 1.368 . S
C3487 C3471 1.349 . S
C3487 H3479 0.950 . S
C3487 C3485 1.327 . S
C3488 C3476 1.349 . S
C3488 H3482 0.950 . S
C3488 C3489 1.327 . S
C3489 H3483 0.950 . S
C3489 C3488 1.327 . S
C3489 C3493 1.429 . S
C3490 C3473 1.574 . S
C3490 H3484 0.949 . S
C3490 C3494 1.368 . S
C3491 C3472 1.429 . S
C3491 C3485 1.429 . S
C3491 C3492 1.523 . S
C3492 C3473 1.368 . S
C3492 C3486 1.368 . S
C3492 C3491 1.523 . S
C3493 C3477 1.429 . S
C3493 C3489 1.429 . S
C3493 C3494 1.523 . S
C3494 C3478 1.368 . S
C3494 C3490 1.368 . S
C3494 C3493 1.523 . S
H3495 C3470 0.950 . S
H3496 C3472 0.950 . S
H3497 C3473 0.949 . S
H3498 C3475 0.950 . S
H3499 C3477 0.950 . S
C3500 C3501 1.349 . S
C3500 C3502 1.327 . S
C3500 H3525 0.950 . S
C3501 C3500 1.349 . S
C3501 C3517 1.349 . S
C3502 C3500 1.327 . S
C3502 C3521 1.429 . S
C3502 H3526 0.950 . S
C3503 C3520 1.574 . S
C3503 C3522 1.368 . S
C3503 H3527 0.949 . S
H3504 C3508 0.949 . S
C3505 C3506 1.349 . S
C3505 C3507 1.327 . S
C3505 H3528 0.950 . S
C3506 C3505 1.349 . S
C3506 C3518 1.349 . S
C3507 C3505 1.327 . S
C3507 C3523 1.429 . S
C3507 H3529 0.950 . S
C3508 H3504 0.949 . S
C3508 C3516 1.574 . S
C3508 C3524 1.368 . S
H3509 C3517 0.950 . S
H3510 C3515 0.950 . S
H3511 C3516 0.949 . S
H3512 C3518 0.950 . S
H3513 C3519 0.950 . S
H3514 C3520 0.949 . S
C3515 H3510 0.950 . S
C3515 C3517 1.327 . S
C3515 C3521 1.429 . S
C3516 C3508 1.574 . S
C3516 H3511 0.949 . S
C3516 C3522 1.368 . S
C3517 C3501 1.349 . S
C3517 H3509 0.950 . S
C3517 C3515 1.327 . S
C3518 C3506 1.349 . S
C3518 H3512 0.950 . S
C3518 C3519 1.327 . S
C3519 H3513 0.950 . S
C3519 C3518 1.327 . S
C3519 C3523 1.429 . S
C3520 C3503 1.574 . S
C3520 H3514 0.949 . S
C3520 C3524 1.368 . S
C3521 C3502 1.429 . S
C3521 C3515 1.429 . S
C3521 C3522 1.523 . S
C3522 C3503 1.368 . S
C3522 C3516 1.368 . S
C3522 C3521 1.523 . S
C3523 C3507 1.429 . S
C3523 C3519 1.429 . S
C3523 C3524 1.523 . S
C3524 C3508 1.368 . S
C3524 C3520 1.368 . S
C3524 C3523 1.523 . S
H3525 C3500 0.950 . S
H3526 C3502 0.950 . S
H3527 C3503 0.949 . S
H3528 C3505 0.950 . S
H3529 C3507 0.950 . S
C3530 C3531 1.349 . S
C3530 C3532 1.327 . S
C3530 H3555 0.950 . S
C3531 C3530 1.349 . S
C3531 C3547 1.349 . S
C3532 C3530 1.327 . S
C3532 C3551 1.429 . S
C3532 H3556 0.950 . S
C3533 C3550 1.574 . S
C3533 C3552 1.368 . S
C3533 H3557 0.949 . S
H3534 C3538 0.949 . S
C3535 C3536 1.349 . S
C3535 C3537 1.327 . S
C3535 H3558 0.950 . S
C3536 C3535 1.349 . S
C3536 C3548 1.349 . S
C3537 C3535 1.327 . S
C3537 C3553 1.429 . S
C3537 H3559 0.950 . S
C3538 H3534 0.949 . S
C3538 C3546 1.574 . S
C3538 C3554 1.368 . S
H3539 C3547 0.950 . S
H3540 C3545 0.950 . S
H3541 C3546 0.949 . S
H3542 C3548 0.950 . S
H3543 C3549 0.950 . S
H3544 C3550 0.949 . S
C3545 H3540 0.950 . S
C3545 C3547 1.327 . S
C3545 C3551 1.429 . S
C3546 C3538 1.574 . S
C3546 H3541 0.949 . S
C3546 C3552 1.368 . S
C3547 C3531 1.349 . S
C3547 H3539 0.950 . S
C3547 C3545 1.327 . S
C3548 C3536 1.349 . S
C3548 H3542 0.950 . S
C3548 C3549 1.327 . S
C3549 H3543 0.950 . S
C3549 C3548 1.327 . S
C3549 C3553 1.429 . S
C3550 C3533 1.574 . S
C3550 H3544 0.949 . S
C3550 C3554 1.368 . S
C3551 C3532 1.429 . S
C3551 C3545 1.429 . S
C3551 C3552 1.523 . S
C3552 C3533 1.368 . S
C3552 C3546 1.368 . S
C3552 C3551 1.523 . S
C3553 C3537 1.429 . S
C3553 C3549 1.429 . S
C3553 C3554 1.523 . S
C3554 C3538 1.368 . S
C3554 C3550 1.368 . S
C3554 C3553 1.523 . S
H3555 C3530 0.950 . S
H3556 C3532 0.950 . S
H3557 C3533 0.949 . S
H3558 C3535 0.950 . S
H3559 C3537 0.950 . S
C3560 C3561 1.349 . S
C3560 C3562 1.327 . S
C3560 H3585 0.950 . S
C3561 C3560 1.349 . S
C3561 C3577 1.349 . S
C3562 C3560 1.327 . S
C3562 C3581 1.429 . S
C3562 H3586 0.950 . S
C3563 C3580 1.574 . S
C3563 C3582 1.368 . S
C3563 H3587 0.949 . S
H3564 C3568 0.949 . S
C3565 C3566 1.349 . S
C3565 C3567 1.327 . S
C3565 H3588 0.950 . S
C3566 C3565 1.349 . S
C3566 C3578 1.349 . S
C3567 C3565 1.327 . S
C3567 C3583 1.429 . S
C3567 H3589 0.950 . S
C3568 H3564 0.949 . S
C3568 C3576 1.574 . S
C3568 C3584 1.368 . S
H3569 C3577 0.950 . S
H3570 C3575 0.950 . S
H3571 C3576 0.949 . S
H3572 C3578 0.950 . S
H3573 C3579 0.950 . S
H3574 C3580 0.949 . S
C3575 H3570 0.950 . S
C3575 C3577 1.327 . S
C3575 C3581 1.429 . S
C3576 C3568 1.574 . S
C3576 H3571 0.949 . S
C3576 C3582 1.368 . S
C3577 C3561 1.349 . S
C3577 H3569 0.950 . S
C3577 C3575 1.327 . S
C3578 C3566 1.349 . S
C3578 H3572 0.950 . S
C3578 C3579 1.327 . S
C3579 H3573 0.950 . S
C3579 C3578 1.327 . S
C3579 C3583 1.429 . S
C3580 C3563 1.574 . S
C3580 H3574 0.949 . S
C3580 C3584 1.368 . S
C3581 C3562 1.429 . S
C3581 C3575 1.429 . S
C3581 C3582 1.523 . S
C3582 C3563 1.368 . S
C3582 C3576 1.368 . S
C3582 C3581 1.523 . S
C3583 C3567 1.429 . S
C3583 C3579 1.429 . S
C3583 C3584 1.523 . S
C3584 C3568 1.368 . S
C3584 C3580 1.368 . S
C3584 C3583 1.523 . S
H3585 C3560 0.950 . S
H3586 C3562 0.950 . S
H3587 C3563 0.949 . S
H3588 C3565 0.950 . S
H3589 C3567 0.950 . S
C3590 C3591 1.349 . S
C3590 C3592 1.327 . S
C3590 H3615 0.950 . S
C3591 C3590 1.349 . S
C3591 C3607 1.349 . S
C3592 C3590 1.327 . S
C3592 C3611 1.429 . S
C3592 H3616 0.950 . S
C3593 C3610 1.574 . S
C3593 C3612 1.368 . S
C3593 H3617 0.949 . S
H3594 C3598 0.949 . S
C3595 C3596 1.349 . S
C3595 C3597 1.327 . S
C3595 H3618 0.950 . S
C3596 C3595 1.349 . S
C3596 C3608 1.349 . S
C3597 C3595 1.327 . S
C3597 C3613 1.429 . S
C3597 H3619 0.950 . S
C3598 H3594 0.949 . S
C3598 C3606 1.574 . S
C3598 C3614 1.368 . S
H3599 C3607 0.950 . S
H3600 C3605 0.950 . S
H3601 C3606 0.949 . S
H3602 C3608 0.950 . S
H3603 C3609 0.950 . S
H3604 C3610 0.949 . S
C3605 H3600 0.950 . S
C3605 C3607 1.327 . S
C3605 C3611 1.429 . S
C3606 C3598 1.574 . S
C3606 H3601 0.949 . S
C3606 C3612 1.368 . S
C3607 C3591 1.349 . S
C3607 H3599 0.950 . S
C3607 C3605 1.327 . S
C3608 C3596 1.349 . S
C3608 H3602 0.950 . S
C3608 C3609 1.327 . S
C3609 H3603 0.950 . S
C3609 C3608 1.327 . S
C3609 C3613 1.429 . S
C3610 C3593 1.574 . S
C3610 H3604 0.949 . S
C3610 C3614 1.368 . S
C3611 C3592 1.429 . S
C3611 C3605 1.429 . S
C3611 C3612 1.523 . S
C3612 C3593 1.368 . S
C3612 C3606 1.368 . S
C3612 C3611 1.523 . S
C3613 C3597 1.429 . S
C3613 C3609 1.429 . S
C3613 C3614 1.523 . S
C3614 C3598 1.368 . S
C3614 C3610 1.368 . S
C3614 C3613 1.523 . S
H3615 C3590 0.950 . S
H3616 C3592 0.950 . S
H3617 C3593 0.949 . S
H3618 C3595 0.950 . S
H3619 C3597 0.950 . S
C3620 C3621 1.349 . S
C3620 C3622 1.327 . S
C3620 H3645 0.950 . S
C3621 C3620 1.349 . S
C3621 C3637 1.349 . S
C3622 C3620 1.327 . S
C3622 C3641 1.429 . S
C3622 H3646 0.950 . S
C3623 C3640 1.574 . S
C3623 C3642 1.368 . S
C3623 H3647 0.949 . S
H3624 C3628 0.949 . S
C3625 C3626 1.349 . S
C3625 C3627 1.327 . S
C3625 H3648 0.950 . S
C3626 C3625 1.349 . S
C3626 C3638 1.349 . S
C3627 C3625 1.327 . S
C3627 C3643 1.429 . S
C3627 H3649 0.950 . S
C3628 H3624 0.949 . S
C3628 C3636 1.574 . S
C3628 C3644 1.368 . S
H3629 C3637 0.950 . S
H3630 C3635 0.950 . S
H3631 C3636 0.949 . S
H3632 C3638 0.950 . S
H3633 C3639 0.950 . S
H3634 C3640 0.949 . S
C3635 H3630 0.950 . S
C3635 C3637 1.327 . S
C3635 C3641 1.429 . S
C3636 C3628 1.574 . S
C3636 H3631 0.949 . S
C3636 C3642 1.368 . S
C3637 C3621 1.349 . S
C3637 H3629 0.950 . S
C3637 C3635 1.327 . S
C3638 C3626 1.349 . S
C3638 H3632 0.950 . S
C3638 C3639 1.327 . S
C3639 H3633 0.950 . S
C3639 C3638 1.327 . S
C3639 C3643 1.429 . S
C3640 C3623 1.574 . S
C3640 H3634 0.949 . S
C3640 C3644 1.368 . S
C3641 C3622 1.429 . S
C3641 C3635 1.429 . S
C3641 C3642 1.523 . S
C3642 C3623 1.368 . S
C3642 C3636 1.368 . S
C3642 C3641 1.523 . S
C3643 C3627 1.429 . S
C3643 C3639 1.429 . S
C3643 C3644 1.523 . S
C3644 C3628 1.368 . S
C3644 C3640 1.368 . S
C3644 C3643 1.523 . S
H3645 C3620 0.950 . S
H3646 C3622 0.950 . S
H3647 C3623 0.949 . S
H3648 C3625 0.950 . S
H3649 C3627 0.950 . S
C3650 C3651 1.349 . S
C3650 C3652 1.327 . S
C3650 H3675 0.950 . S
C3651 C3650 1.349 . S
C3651 C3667 1.349 . S
C3652 C3650 1.327 . S
C3652 C3671 1.429 . S
C3652 H3676 0.950 . S
C3653 C3670 1.574 . S
C3653 C3672 1.368 . S
C3653 H3677 0.949 . S
H3654 C3658 0.949 . S
C3655 C3656 1.349 . S
C3655 C3657 1.327 . S
C3655 H3678 0.950 . S
C3656 C3655 1.349 . S
C3656 C3668 1.349 . S
C3657 C3655 1.327 . S
C3657 C3673 1.429 . S
C3657 H3679 0.950 . S
C3658 H3654 0.949 . S
C3658 C3666 1.574 . S
C3658 C3674 1.368 . S
H3659 C3667 0.950 . S
H3660 C3665 0.950 . S
H3661 C3666 0.949 . S
H3662 C3668 0.950 . S
H3663 C3669 0.950 . S
H3664 C3670 0.949 . S
C3665 H3660 0.950 . S
C3665 C3667 1.327 . S
C3665 C3671 1.429 . S
C3666 C3658 1.574 . S
C3666 H3661 0.949 . S
C3666 C3672 1.368 . S
C3667 C3651 1.349 . S
C3667 H3659 0.950 . S
C3667 C3665 1.327 . S
C3668 C3656 1.349 . S
C3668 H3662 0.950 . S
C3668 C3669 1.327 . S
C3669 H3663 0.950 . S
C3669 C3668 1.327 . S
C3669 C3673 1.429 . S
C3670 C3653 1.574 . S
C3670 H3664 0.949 . S
C3670 C3674 1.368 . S
C3671 C3652 1.429 . S
C3671 C3665 1.429 . S
C3671 C3672 1.523 . S
C3672 C3653 1.368 . S
C3672 C3666 1.368 . S
C3672 C3671 1.523 . S
C3673 C3657 1.429 . S
C3673 C3669 1.429 . S
C3673 C3674 1.523 . S
C3674 C3658 1.368 . S
C3674 C3670 1.368 . S
C3674 C3673 1.523 . S
H3675 C3650 0.950 . S
H3676 C3652 0.950 . S
H3677 C3653 0.949 . S
H3678 C3655 0.950 . S
H3679 C3657 0.950 . S
C3680 C3681 1.349 . S
C3680 C3682 1.327 . S
C3680 H3705 0.950 . S
C3681 C3680 1.349 . S
C3681 C3697 1.349 . S
C3682 C3680 1.327 . S
C3682 C3701 1.429 . S
C3682 H3706 0.950 . S
C3683 C3700 1.541 1_545 S
C3683 C3702 1.398 . S
C3683 H3707 0.952 . S
H3684 C3688 0.952 . S
C3685 C3686 1.349 . S
C3685 C3687 1.327 . S
C3685 H3708 0.950 . S
C3686 C3685 1.349 . S
C3686 C3698 1.349 . S
C3687 C3685 1.327 . S
C3687 C3703 1.429 . S
C3687 H3709 0.950 . S
C3688 H3684 0.952 . S
C3688 C3696 1.541 1_565 S
C3688 C3704 1.398 . S
H3689 C3697 0.950 . S
H3690 C3695 0.950 . S
H3691 C3696 0.949 . S
H3692 C3698 0.950 . S
H3693 C3699 0.950 . S
H3694 C3700 0.949 . S
C3695 H3690 0.950 . S
C3695 C3697 1.327 . S
C3695 C3701 1.429 . S
C3696 C3688 1.541 1_545 S
C3696 H3691 0.949 . S
C3696 C3702 1.368 . S
C3697 C3681 1.349 . S
C3697 H3689 0.950 . S
C3697 C3695 1.327 . S
C3698 C3686 1.349 . S
C3698 H3692 0.950 . S
C3698 C3699 1.327 . S
C3699 H3693 0.950 . S
C3699 C3698 1.327 . S
C3699 C3703 1.429 . S
C3700 C3683 1.541 1_565 S
C3700 H3694 0.949 . S
C3700 C3704 1.368 . S
C3701 C3682 1.429 . S
C3701 C3695 1.429 . S
C3701 C3702 1.523 . S
C3702 C3683 1.398 . S
C3702 C3696 1.368 . S
C3702 C3701 1.523 . S
C3703 C3687 1.429 . S
C3703 C3699 1.429 . S
C3703 C3704 1.523 . S
C3704 C3688 1.398 . S
C3704 C3700 1.368 . S
C3704 C3703 1.523 . S
H3705 C3680 0.950 . S
H3706 C3682 0.950 . S
H3707 C3683 0.952 . S
H3708 C3685 0.950 . S
H3709 C3687 0.950 . S
C3710 C3711 1.349 . S
C3710 C3712 1.327 . S
C3710 H3735 0.950 . S
C3711 C3710 1.349 . S
C3711 C3727 1.349 . S
C3712 C3710 1.327 . S
C3712 C3731 1.429 . S
C3712 H3736 0.950 . S
C3713 C3730 1.574 . S
C3713 C3732 1.368 . S
C3713 H3737 0.949 . S
H3714 C3718 0.949 . S
C3715 C3716 1.349 . S
C3715 C3717 1.327 . S
C3715 H3738 0.950 . S
C3716 C3715 1.349 . S
C3716 C3728 1.349 . S
C3717 C3715 1.327 . S
C3717 C3733 1.429 . S
C3717 H3739 0.950 . S
C3718 H3714 0.949 . S
C3718 C3726 1.574 . S
C3718 C3734 1.368 . S
H3719 C3727 0.950 . S
H3720 C3725 0.950 . S
H3721 C3726 0.949 . S
H3722 C3728 0.950 . S
H3723 C3729 0.950 . S
H3724 C3730 0.949 . S
C3725 H3720 0.950 . S
C3725 C3727 1.327 . S
C3725 C3731 1.429 . S
C3726 C3718 1.574 . S
C3726 H3721 0.949 . S
C3726 C3732 1.368 . S
C3727 C3711 1.349 . S
C3727 H3719 0.950 . S
C3727 C3725 1.327 . S
C3728 C3716 1.349 . S
C3728 H3722 0.950 . S
C3728 C3729 1.327 . S
C3729 H3723 0.950 . S
C3729 C3728 1.327 . S
C3729 C3733 1.429 . S
C3730 C3713 1.574 . S
C3730 H3724 0.949 . S
C3730 C3734 1.368 . S
C3731 C3712 1.429 . S
C3731 C3725 1.429 . S
C3731 C3732 1.523 . S
C3732 C3713 1.368 . S
C3732 C3726 1.368 . S
C3732 C3731 1.523 . S
C3733 C3717 1.429 . S
C3733 C3729 1.429 . S
C3733 C3734 1.523 . S
C3734 C3718 1.368 . S
C3734 C3730 1.368 . S
C3734 C3733 1.523 . S
H3735 C3710 0.950 . S
H3736 C3712 0.950 . S
H3737 C3713 0.949 . S
H3738 C3715 0.950 . S
H3739 C3717 0.950 . S
C3740 C3741 1.349 . S
C3740 C3742 1.327 . S
C3740 H3765 0.950 . S
C3741 C3740 1.349 . S
C3741 C3757 1.349 . S
C3742 C3740 1.327 . S
C3742 C3761 1.429 . S
C3742 H3766 0.950 . S
C3743 C3760 1.570 1_545 S
C3743 C3762 1.371 . S
C3743 H3767 0.949 . S
H3744 C3748 0.949 . S
C3745 C3746 1.349 . S
C3745 C3747 1.327 . S
C3745 H3768 0.950 . S
C3746 C3745 1.349 . S
C3746 C3758 1.349 . S
C3747 C3745 1.327 . S
C3747 C3763 1.429 . S
C3747 H3769 0.950 . S
C3748 H3744 0.949 . S
C3748 C3756 1.570 1_565 S
C3748 C3764 1.371 . S
H3749 C3757 0.950 . S
H3750 C3755 0.950 . S
H3751 C3756 0.949 . S
H3752 C3758 0.950 . S
H3753 C3759 0.950 . S
H3754 C3760 0.949 . S
C3755 H3750 0.950 . S
C3755 C3757 1.327 . S
C3755 C3761 1.429 . S
C3756 C3748 1.570 1_545 S
C3756 H3751 0.949 . S
C3756 C3762 1.368 . S
C3757 C3741 1.349 . S
C3757 H3749 0.950 . S
C3757 C3755 1.327 . S
C3758 C3746 1.349 . S
C3758 H3752 0.950 . S
C3758 C3759 1.327 . S
C3759 H3753 0.950 . S
C3759 C3758 1.327 . S
C3759 C3763 1.429 . S
C3760 C3743 1.570 1_565 S
C3760 H3754 0.949 . S
C3760 C3764 1.368 . S
C3761 C3742 1.429 . S
C3761 C3755 1.429 . S
C3761 C3762 1.523 . S
C3762 C3743 1.371 . S
C3762 C3756 1.368 . S
C3762 C3761 1.523 . S
C3763 C3747 1.429 . S
C3763 C3759 1.429 . S
C3763 C3764 1.523 . S
C3764 C3748 1.371 . S
C3764 C3760 1.368 . S
C3764 C3763 1.523 . S
H3765 C3740 0.950 . S
H3766 C3742 0.950 . S
H3767 C3743 0.949 . S
H3768 C3745 0.950 . S
H3769 C3747 0.950 . S
C3770 C3771 1.349 . S
C3770 C3772 1.327 . S
C3770 H3795 0.950 . S
C3771 C3770 1.349 . S
C3771 C3787 1.349 . S
C3772 C3770 1.327 . S
C3772 C3791 1.429 . S
C3772 H3796 0.950 . S
C3773 C3790 1.643 . S
C3773 C3792 1.368 . S
C3773 H3797 0.949 . S
H3774 C3778 0.949 . S
C3775 C3776 1.349 . S
C3775 C3777 1.327 . S
C3775 H3798 0.950 . S
C3776 C3775 1.349 . S
C3776 C3788 1.349 . S
C3777 C3775 1.327 . S
C3777 C3793 1.429 . S
C3777 H3799 0.950 . S
C3778 H3774 0.949 . S
C3778 C3786 1.643 . S
C3778 C3794 1.368 . S
H3779 C3787 0.950 . S
H3780 C3785 0.950 . S
H3781 C3786 0.963 . S
H3782 C3788 0.950 . S
H3783 C3789 0.950 . S
H3784 C3790 0.963 . S
C3785 H3780 0.950 . S
C3785 C3787 1.327 . S
C3785 C3791 1.429 . S
C3786 C3778 1.643 . S
C3786 H3781 0.963 . S
C3786 C3792 1.296 1_554 S
C3787 C3771 1.349 . S
C3787 H3779 0.950 . S
C3787 C3785 1.327 . S
C3788 C3776 1.349 . S
C3788 H3782 0.950 . S
C3788 C3789 1.327 . S
C3789 H3783 0.950 . S
C3789 C3788 1.327 . S
C3789 C3793 1.429 . S
C3790 C3773 1.643 . S
C3790 H3784 0.963 . S
C3790 C3794 1.297 1_556 S
C3791 C3772 1.429 . S
C3791 C3785 1.429 . S
C3791 C3792 1.523 . S
C3792 C3773 1.368 . S
C3792 C3786 1.296 1_556 S
C3792 C3791 1.523 . S
C3793 C3777 1.429 . S
C3793 C3789 1.429 . S
C3793 C3794 1.523 . S
C3794 C3778 1.368 . S
C3794 C3790 1.297 1_554 S
C3794 C3793 1.523 . S
H3795 C3770 0.950 . S
H3796 C3772 0.950 . S
H3797 C3773 0.949 . S
H3798 C3775 0.950 . S
H3799 C3777 0.950 . S
C3800 C3801 1.349 . S
C3800 C3802 1.327 . S
C3800 H3825 0.950 . S
C3801 C3800 1.349 . S
C3801 C3817 1.349 . S
C3802 C3800 1.327 . S
C3802 C3821 1.429 . S
C3802 H3826 0.950 . S
C3803 C3820 1.574 1_565 S
C3803 C3822 1.368 . S
C3803 H3827 0.949 . S
H3804 C3808 0.949 . S
C3805 C3806 1.349 . S
C3805 C3807 1.327 . S
C3805 H3828 0.950 . S
C3806 C3805 1.349 . S
C3806 C3818 1.349 . S
C3807 C3805 1.327 . S
C3807 C3823 1.429 . S
C3807 H3829 0.950 . S
C3808 H3804 0.949 . S
C3808 C3816 1.574 1_545 S
C3808 C3824 1.368 . S
H3809 C3817 0.950 . S
H3810 C3815 0.950 . S
H3811 C3816 0.949 . S
H3812 C3818 0.950 . S
H3813 C3819 0.950 . S
H3814 C3820 0.949 . S
C3815 H3810 0.950 . S
C3815 C3817 1.327 . S
C3815 C3821 1.429 . S
C3816 C3808 1.574 1_565 S
C3816 H3811 0.949 . S
C3816 C3822 1.368 . S
C3817 C3801 1.349 . S
C3817 H3809 0.950 . S
C3817 C3815 1.327 . S
C3818 C3806 1.349 . S
C3818 H3812 0.950 . S
C3818 C3819 1.327 . S
C3819 H3813 0.950 . S
C3819 C3818 1.327 . S
C3819 C3823 1.429 . S
C3820 C3803 1.574 1_545 S
C3820 H3814 0.949 . S
C3820 C3824 1.368 . S
C3821 C3802 1.429 . S
C3821 C3815 1.429 . S
C3821 C3822 1.523 . S
C3822 C3803 1.368 . S
C3822 C3816 1.368 . S
C3822 C3821 1.523 . S
C3823 C3807 1.429 . S
C3823 C3819 1.429 . S
C3823 C3824 1.523 . S
C3824 C3808 1.368 . S
C3824 C3820 1.368 . S
C3824 C3823 1.523 . S
H3825 C3800 0.950 . S
H3826 C3802 0.950 . S
H3827 C3803 0.949 . S
H3828 C3805 0.950 . S
H3829 C3807 0.950 . S
C3830 C3831 1.349 . S
C3830 C3832 1.327 . S
C3830 H3855 0.950 . S
C3831 C3830 1.349 . S
C3831 C3847 1.349 . S
C3832 C3830 1.327 . S
C3832 C3851 1.429 . S
C3832 H3856 0.950 . S
C3833 C3850 1.574 . S
C3833 C3852 1.368 . S
C3833 H3857 0.949 . S
H3834 C3838 0.949 . S
C3835 C3836 1.349 . S
C3835 C3837 1.327 . S
C3835 H3858 0.950 . S
C3836 C3835 1.349 . S
C3836 C3848 1.349 . S
C3837 C3835 1.327 . S
C3837 C3853 1.429 . S
C3837 H3859 0.950 . S
C3838 H3834 0.949 . S
C3838 C3846 1.574 . S
C3838 C3854 1.368 . S
H3839 C3847 0.950 . S
H3840 C3845 0.950 . S
H3841 C3846 0.949 . S
H3842 C3848 0.950 . S
H3843 C3849 0.950 . S
H3844 C3850 0.949 . S
C3845 H3840 0.950 . S
C3845 C3847 1.327 . S
C3845 C3851 1.429 . S
C3846 C3838 1.574 . S
C3846 H3841 0.949 . S
C3846 C3852 1.368 . S
C3847 C3831 1.349 . S
C3847 H3839 0.950 . S
C3847 C3845 1.327 . S
C3848 C3836 1.349 . S
C3848 H3842 0.950 . S
C3848 C3849 1.327 . S
C3849 H3843 0.950 . S
C3849 C3848 1.327 . S
C3849 C3853 1.429 . S
C3850 C3833 1.574 . S
C3850 H3844 0.949 . S
C3850 C3854 1.368 . S
C3851 C3832 1.429 . S
C3851 C3845 1.429 . S
C3851 C3852 1.523 . S
C3852 C3833 1.368 . S
C3852 C3846 1.368 . S
C3852 C3851 1.523 . S
C3853 C3837 1.429 . S
C3853 C3849 1.429 . S
C3853 C3854 1.523 . S
C3854 C3838 1.368 . S
C3854 C3850 1.368 . S
C3854 C3853 1.523 . S
H3855 C3830 0.950 . S
H3856 C3832 0.950 . S
H3857 C3833 0.949 . S
H3858 C3835 0.950 . S
H3859 C3837 0.950 . S
C3860 C3861 1.349 . S
C3860 C3862 1.327 . S
C3860 H3885 0.950 . S
C3861 C3860 1.349 . S
C3861 C3877 1.349 . S
C3862 C3860 1.327 . S
C3862 C3881 1.429 . S
C3862 H3886 0.950 . S
C3863 C3880 1.574 1_565 S
C3863 C3882 1.368 . S
C3863 H3887 0.949 . S
H3864 C3868 0.949 . S
C3865 C3866 1.349 . S
C3865 C3867 1.327 . S
C3865 H3888 0.950 . S
C3866 C3865 1.349 . S
C3866 C3878 1.349 . S
C3867 C3865 1.327 . S
C3867 C3883 1.429 . S
C3867 H3889 0.950 . S
C3868 H3864 0.949 . S
C3868 C3876 1.574 1_545 S
C3868 C3884 1.368 . S
H3869 C3877 0.950 . S
H3870 C3875 0.950 . S
H3871 C3876 0.949 . S
H3872 C3878 0.950 . S
H3873 C3879 0.950 . S
H3874 C3880 0.949 . S
C3875 H3870 0.950 . S
C3875 C3877 1.327 . S
C3875 C3881 1.429 . S
C3876 C3868 1.574 1_565 S
C3876 H3871 0.949 . S
C3876 C3882 1.368 . S
C3877 C3861 1.349 . S
C3877 H3869 0.950 . S
C3877 C3875 1.327 . S
C3878 C3866 1.349 . S
C3878 H3872 0.950 . S
C3878 C3879 1.327 . S
C3879 H3873 0.950 . S
C3879 C3878 1.327 . S
C3879 C3883 1.429 . S
C3880 C3863 1.574 1_545 S
C3880 H3874 0.949 . S
C3880 C3884 1.368 . S
C3881 C3862 1.429 . S
C3881 C3875 1.429 . S
C3881 C3882 1.523 . S
C3882 C3863 1.368 . S
C3882 C3876 1.368 . S
C3882 C3881 1.523 . S
C3883 C3867 1.429 . S
C3883 C3879 1.429 . S
C3883 C3884 1.523 . S
C3884 C3868 1.368 . S
C3884 C3880 1.368 . S
C3884 C3883 1.523 . S
H3885 C3860 0.950 . S
H3886 C3862 0.950 . S
H3887 C3863 0.949 . S
H3888 C3865 0.950 . S
H3889 C3867 0.950 . S
C3890 C3891 1.349 . S
C3890 C3892 1.327 . S
C3890 H3915 0.950 . S
C3891 C3890 1.349 . S
C3891 C3907 1.349 . S
C3892 C3890 1.327 . S
C3892 C3911 1.429 . S
C3892 H3916 0.950 . S
C3893 C3910 1.643 . S
C3893 C3912 1.368 . S
C3893 H3917 0.949 . S
H3894 C3898 0.949 . S
C3895 C3896 1.349 . S
C3895 C3897 1.327 . S
C3895 H3918 0.950 . S
C3896 C3895 1.349 . S
C3896 C3908 1.349 . S
C3897 C3895 1.327 . S
C3897 C3913 1.429 . S
C3897 H3919 0.950 . S
C3898 H3894 0.949 . S
C3898 C3906 1.643 . S
C3898 C3914 1.368 . S
H3899 C3907 0.950 . S
H3900 C3905 0.950 . S
H3901 C3906 0.963 . S
H3902 C3908 0.950 . S
H3903 C3909 0.950 . S
H3904 C3910 0.963 . S
C3905 H3900 0.950 . S
C3905 C3907 1.327 . S
C3905 C3911 1.429 . S
C3906 C3898 1.643 . S
C3906 H3901 0.963 . S
C3906 C3912 1.296 1_556 S
C3907 C3891 1.349 . S
C3907 H3899 0.950 . S
C3907 C3905 1.327 . S
C3908 C3896 1.349 . S
C3908 H3902 0.950 . S
C3908 C3909 1.327 . S
C3909 H3903 0.950 . S
C3909 C3908 1.327 . S
C3909 C3913 1.429 . S
C3910 C3893 1.643 . S
C3910 H3904 0.963 . S
C3910 C3914 1.297 1_554 S
C3911 C3892 1.429 . S
C3911 C3905 1.429 . S
C3911 C3912 1.523 . S
C3912 C3893 1.368 . S
C3912 C3906 1.296 1_554 S
C3912 C3911 1.523 . S
C3913 C3897 1.429 . S
C3913 C3909 1.429 . S
C3913 C3914 1.523 . S
C3914 C3898 1.368 . S
C3914 C3910 1.297 1_556 S
C3914 C3913 1.523 . S
H3915 C3890 0.950 . S
H3916 C3892 0.950 . S
H3917 C3893 0.949 . S
H3918 C3895 0.950 . S
H3919 C3897 0.950 . S
C3920 C3921 1.349 . S
C3920 C3922 1.327 . S
C3920 H3945 0.950 . S
C3921 C3920 1.349 . S
C3921 C3937 1.349 . S
C3922 C3920 1.327 . S
C3922 C3941 1.429 . S
C3922 H3946 0.950 . S
C3923 C3940 1.574 . S
C3923 C3942 1.368 . S
C3923 H3947 0.949 . S
H3924 C3928 0.949 . S
C3925 C3926 1.349 . S
C3925 C3927 1.327 . S
C3925 H3948 0.950 . S
C3926 C3925 1.349 . S
C3926 C3938 1.349 . S
C3927 C3925 1.327 . S
C3927 C3943 1.429 . S
C3927 H3949 0.950 . S
C3928 H3924 0.949 . S
C3928 C3936 1.574 . S
C3928 C3944 1.368 . S
H3929 C3937 0.950 . S
H3930 C3935 0.950 . S
H3931 C3936 0.949 . S
H3932 C3938 0.950 . S
H3933 C3939 0.950 . S
H3934 C3940 0.949 . S
C3935 H3930 0.950 . S
C3935 C3937 1.327 . S
C3935 C3941 1.429 . S
C3936 C3928 1.574 . S
C3936 H3931 0.949 . S
C3936 C3942 1.368 . S
C3937 C3921 1.349 . S
C3937 H3929 0.950 . S
C3937 C3935 1.327 . S
C3938 C3926 1.349 . S
C3938 H3932 0.950 . S
C3938 C3939 1.327 . S
C3939 H3933 0.950 . S
C3939 C3938 1.327 . S
C3939 C3943 1.429 . S
C3940 C3923 1.574 . S
C3940 H3934 0.949 . S
C3940 C3944 1.368 . S
C3941 C3922 1.429 . S
C3941 C3935 1.429 . S
C3941 C3942 1.523 . S
C3942 C3923 1.368 . S
C3942 C3936 1.368 . S
C3942 C3941 1.523 . S
C3943 C3927 1.429 . S
C3943 C3939 1.429 . S
C3943 C3944 1.523 . S
C3944 C3928 1.368 . S
C3944 C3940 1.368 . S
C3944 C3943 1.523 . S
H3945 C3920 0.950 . S
H3946 C3922 0.950 . S
H3947 C3923 0.949 . S
H3948 C3925 0.950 . S
H3949 C3927 0.950 . S
C3950 C3951 1.349 . S
C3950 C3952 1.327 . S
C3950 H3975 0.950 . S
C3951 C3950 1.349 . S
C3951 C3967 1.349 . S
C3952 C3950 1.327 . S
C3952 C3971 1.429 . S
C3952 H3976 0.950 . S
C3953 C3970 1.643 . S
C3953 C3972 1.296 1_554 S
C3953 H3977 0.963 . S
H3954 C3958 0.963 . S
C3955 C3956 1.349 . S
C3955 C3957 1.327 . S
C3955 H3978 0.950 . S
C3956 C3955 1.349 . S
C3956 C3968 1.349 . S
C3957 C3955 1.327 . S
C3957 C3973 1.429 . S
C3957 H3979 0.950 . S
C3958 H3954 0.963 . S
C3958 C3966 1.643 . S
C3958 C3974 1.296 1_556 S
H3959 C3967 0.950 . S
H3960 C3965 0.950 . S
H3961 C3966 0.949 . S
H3962 C3968 0.950 . S
H3963 C3969 0.950 . S
H3964 C3970 0.949 . S
C3965 H3960 0.950 . S
C3965 C3967 1.327 . S
C3965 C3971 1.429 . S
C3966 C3958 1.643 . S
C3966 H3961 0.949 . S
C3966 C3972 1.368 . S
C3967 C3951 1.349 . S
C3967 H3959 0.950 . S
C3967 C3965 1.327 . S
C3968 C3956 1.349 . S
C3968 H3962 0.950 . S
C3968 C3969 1.327 . S
C3969 H3963 0.950 . S
C3969 C3968 1.327 . S
C3969 C3973 1.429 . S
C3970 C3953 1.643 . S
C3970 H3964 0.949 . S
C3970 C3974 1.368 . S
C3971 C3952 1.429 . S
C3971 C3965 1.429 . S
C3971 C3972 1.523 . S
C3972 C3953 1.296 1_556 S
C3972 C3966 1.368 . S
C3972 C3971 1.523 . S
C3973 C3957 1.429 . S
C3973 C3969 1.429 . S
C3973 C3974 1.523 . S
C3974 C3958 1.296 1_554 S
C3974 C3970 1.368 . S
C3974 C3973 1.523 . S
H3975 C3950 0.950 . S
H3976 C3952 0.950 . S
H3977 C3953 0.963 . S
H3978 C3955 0.950 . S
H3979 C3957 0.950 . S
C3980 C3981 1.349 . S
C3980 C3982 1.327 . S
C3980 H4005 0.950 . S
C3981 C3980 1.349 . S
C3981 C3997 1.349 . S
C3982 C3980 1.327 . S
C3982 C4001 1.429 . S
C3982 H4006 0.950 . S
C3983 C4000 1.574 . S
C3983 C4002 1.368 . S
C3983 H4007 0.949 . S
H3984 C3988 0.949 . S
C3985 C3986 1.349 . S
C3985 C3987 1.327 . S
C3985 H4008 0.950 . S
C3986 C3985 1.349 . S
C3986 C3998 1.349 . S
C3987 C3985 1.327 . S
C3987 C4003 1.429 . S
C3987 H4009 0.950 . S
C3988 H3984 0.949 . S
C3988 C3996 1.574 . S
C3988 C4004 1.368 . S
H3989 C3997 0.950 . S
H3990 C3995 0.950 . S
H3991 C3996 0.949 . S
H3992 C3998 0.950 . S
H3993 C3999 0.950 . S
H3994 C4000 0.949 . S
C3995 H3990 0.950 . S
C3995 C3997 1.327 . S
C3995 C4001 1.429 . S
C3996 C3988 1.574 . S
C3996 H3991 0.949 . S
C3996 C4002 1.368 . S
C3997 C3981 1.349 . S
C3997 H3989 0.950 . S
C3997 C3995 1.327 . S
C3998 C3986 1.349 . S
C3998 H3992 0.950 . S
C3998 C3999 1.327 . S
C3999 H3993 0.950 . S
C3999 C3998 1.327 . S
C3999 C4003 1.429 . S
C4000 C3983 1.574 . S
C4000 H3994 0.949 . S
C4000 C4004 1.368 . S
C4001 C3982 1.429 . S
C4001 C3995 1.429 . S
C4001 C4002 1.523 . S
C4002 C3983 1.368 . S
C4002 C3996 1.368 . S
C4002 C4001 1.523 . S
C4003 C3987 1.429 . S
C4003 C3999 1.429 . S
C4003 C4004 1.523 . S
C4004 C3988 1.368 . S
C4004 C4000 1.368 . S
C4004 C4003 1.523 . S
H4005 C3980 0.950 . S
H4006 C3982 0.950 . S
H4007 C3983 0.949 . S
H4008 C3985 0.950 . S
H4009 C3987 0.950 . S
C4010 C4011 1.349 . S
C4010 C4012 1.327 . S
C4010 H4035 0.950 . S
C4011 C4010 1.349 . S
C4011 C4027 1.349 . S
C4012 C4010 1.327 . S
C4012 C4031 1.429 . S
C4012 H4036 0.950 . S
C4013 C4030 1.574 . S
C4013 C4032 1.368 . S
C4013 H4037 0.949 . S
H4014 C4018 0.949 . S
C4015 C4016 1.349 . S
C4015 C4017 1.327 . S
C4015 H4038 0.950 . S
C4016 C4015 1.349 . S
C4016 C4028 1.349 . S
C4017 C4015 1.327 . S
C4017 C4033 1.429 . S
C4017 H4039 0.950 . S
C4018 H4014 0.949 . S
C4018 C4026 1.574 . S
C4018 C4034 1.368 . S
H4019 C4027 0.950 . S
H4020 C4025 0.950 . S
H4021 C4026 0.949 . S
H4022 C4028 0.950 . S
H4023 C4029 0.950 . S
H4024 C4030 0.949 . S
C4025 H4020 0.950 . S
C4025 C4027 1.327 . S
C4025 C4031 1.429 . S
C4026 C4018 1.574 . S
C4026 H4021 0.949 . S
C4026 C4032 1.368 . S
C4027 C4011 1.349 . S
C4027 H4019 0.950 . S
C4027 C4025 1.327 . S
C4028 C4016 1.349 . S
C4028 H4022 0.950 . S
C4028 C4029 1.327 . S
C4029 H4023 0.950 . S
C4029 C4028 1.327 . S
C4029 C4033 1.429 . S
C4030 C4013 1.574 . S
C4030 H4024 0.949 . S
C4030 C4034 1.368 . S
C4031 C4012 1.429 . S
C4031 C4025 1.429 . S
C4031 C4032 1.523 . S
C4032 C4013 1.368 . S
C4032 C4026 1.368 . S
C4032 C4031 1.523 . S
C4033 C4017 1.429 . S
C4033 C4029 1.429 . S
C4033 C4034 1.523 . S
C4034 C4018 1.368 . S
C4034 C4030 1.368 . S
C4034 C4033 1.523 . S
H4035 C4010 0.950 . S
H4036 C4012 0.950 . S
H4037 C4013 0.949 . S
H4038 C4015 0.950 . S
H4039 C4017 0.950 . S
C4040 C4041 1.349 . S
C4040 C4042 1.327 . S
C4040 H4065 0.950 . S
C4041 C4040 1.349 . S
C4041 C4057 1.349 . S
C4042 C4040 1.327 . S
C4042 C4061 1.429 . S
C4042 H4066 0.950 . S
C4043 C4060 1.574 . S
C4043 C4062 1.368 . S
C4043 H4067 0.949 . S
H4044 C4048 0.949 . S
C4045 C4046 1.349 . S
C4045 C4047 1.327 . S
C4045 H4068 0.950 . S
C4046 C4045 1.349 . S
C4046 C4058 1.349 . S
C4047 C4045 1.327 . S
C4047 C4063 1.429 . S
C4047 H4069 0.950 . S
C4048 H4044 0.949 . S
C4048 C4056 1.574 . S
C4048 C4064 1.368 . S
H4049 C4057 0.950 . S
H4050 C4055 0.950 . S
H4051 C4056 0.949 . S
H4052 C4058 0.950 . S
H4053 C4059 0.950 . S
H4054 C4060 0.949 . S
C4055 H4050 0.950 . S
C4055 C4057 1.327 . S
C4055 C4061 1.429 . S
C4056 C4048 1.574 . S
C4056 H4051 0.949 . S
C4056 C4062 1.368 . S
C4057 C4041 1.349 . S
C4057 H4049 0.950 . S
C4057 C4055 1.327 . S
C4058 C4046 1.349 . S
C4058 H4052 0.950 . S
C4058 C4059 1.327 . S
C4059 H4053 0.950 . S
C4059 C4058 1.327 . S
C4059 C4063 1.429 . S
C4060 C4043 1.574 . S
C4060 H4054 0.949 . S
C4060 C4064 1.368 . S
C4061 C4042 1.429 . S
C4061 C4055 1.429 . S
C4061 C4062 1.523 . S
C4062 C4043 1.368 . S
C4062 C4056 1.368 . S
C4062 C4061 1.523 . S
C4063 C4047 1.429 . S
C4063 C4059 1.429 . S
C4063 C4064 1.523 . S
C4064 C4048 1.368 . S
C4064 C4060 1.368 . S
C4064 C4063 1.523 . S
H4065 C4040 0.950 . S
H4066 C4042 0.950 . S
H4067 C4043 0.949 . S
H4068 C4045 0.950 . S
H4069 C4047 0.950 . S
C4070 C4071 1.349 . S
C4070 C4072 1.327 . S
C4070 H4095 0.950 . S
C4071 C4070 1.349 . S
C4071 C4087 1.349 . S
C4072 C4070 1.327 . S
C4072 C4091 1.429 . S
C4072 H4096 0.950 . S
C4073 C4090 1.643 . S
C4073 C4092 1.368 . S
C4073 H4097 0.949 . S
H4074 C4078 0.949 . S
C4075 C4076 1.349 . S
C4075 C4077 1.327 . S
C4075 H4098 0.950 . S
C4076 C4075 1.349 . S
C4076 C4088 1.349 . S
C4077 C4075 1.327 . S
C4077 C4093 1.429 . S
C4077 H4099 0.950 . S
C4078 H4074 0.949 . S
C4078 C4086 1.643 . S
C4078 C4094 1.368 . S
H4079 C4087 0.950 . S
H4080 C4085 0.950 . S
H4081 C4086 0.963 . S
H4082 C4088 0.950 . S
H4083 C4089 0.950 . S
H4084 C4090 0.963 . S
C4085 H4080 0.950 . S
C4085 C4087 1.327 . S
C4085 C4091 1.429 . S
C4086 C4078 1.643 . S
C4086 H4081 0.963 . S
C4086 C4092 1.296 1_554 S
C4087 C4071 1.349 . S
C4087 H4079 0.950 . S
C4087 C4085 1.327 . S
C4088 C4076 1.349 . S
C4088 H4082 0.950 . S
C4088 C4089 1.327 . S
C4089 H4083 0.950 . S
C4089 C4088 1.327 . S
C4089 C4093 1.429 . S
C4090 C4073 1.643 . S
C4090 H4084 0.963 . S
C4090 C4094 1.296 1_556 S
C4091 C4072 1.429 . S
C4091 C4085 1.429 . S
C4091 C4092 1.523 . S
C4092 C4073 1.368 . S
C4092 C4086 1.296 1_556 S
C4092 C4091 1.523 . S
C4093 C4077 1.429 . S
C4093 C4089 1.429 . S
C4093 C4094 1.523 . S
C4094 C4078 1.368 . S
C4094 C4090 1.296 1_554 S
C4094 C4093 1.523 . S
H4095 C4070 0.950 . S
H4096 C4072 0.950 . S
H4097 C4073 0.949 . S
H4098 C4075 0.950 . S
H4099 C4077 0.950 . S
C4100 C4101 1.349 . S
C4100 C4102 1.327 . S
C4100 H4125 0.950 . S
C4101 C4100 1.349 . S
C4101 C4117 1.349 . S
C4102 C4100 1.327 . S
C4102 C4121 1.429 . S
C4102 H4126 0.950 . S
C4103 C4120 1.574 . S
C4103 C4122 1.368 . S
C4103 H4127 0.949 . S
H4104 C4108 0.949 . S
C4105 C4106 1.349 . S
C4105 C4107 1.327 . S
C4105 H4128 0.950 . S
C4106 C4105 1.349 . S
C4106 C4118 1.349 . S
C4107 C4105 1.327 . S
C4107 C4123 1.429 . S
C4107 H4129 0.950 . S
C4108 H4104 0.949 . S
C4108 C4116 1.574 . S
C4108 C4124 1.368 . S
H4109 C4117 0.950 . S
H4110 C4115 0.950 . S
H4111 C4116 0.949 . S
H4112 C4118 0.950 . S
H4113 C4119 0.950 . S
H4114 C4120 0.949 . S
C4115 H4110 0.950 . S
C4115 C4117 1.327 . S
C4115 C4121 1.429 . S
C4116 C4108 1.574 . S
C4116 H4111 0.949 . S
C4116 C4122 1.368 . S
C4117 C4101 1.349 . S
C4117 H4109 0.950 . S
C4117 C4115 1.327 . S
C4118 C4106 1.349 . S
C4118 H4112 0.950 . S
C4118 C4119 1.327 . S
C4119 H4113 0.950 . S
C4119 C4118 1.327 . S
C4119 C4123 1.429 . S
C4120 C4103 1.574 . S
C4120 H4114 0.949 . S
C4120 C4124 1.368 . S
C4121 C4102 1.429 . S
C4121 C4115 1.429 . S
C4121 C4122 1.523 . S
C4122 C4103 1.368 . S
C4122 C4116 1.368 . S
C4122 C4121 1.523 . S
C4123 C4107 1.429 . S
C4123 C4119 1.429 . S
C4123 C4124 1.523 . S
C4124 C4108 1.368 . S
C4124 C4120 1.368 . S
C4124 C4123 1.523 . S
H4125 C4100 0.950 . S
H4126 C4102 0.950 . S
H4127 C4103 0.949 . S
H4128 C4105 0.950 . S
H4129 C4107 0.950 . S
C4130 C4131 1.349 . S
C4130 C4132 1.327 . S
C4130 H4155 0.950 . S
C4131 C4130 1.349 . S
C4131 C4147 1.349 . S
C4132 C4130 1.327 . S
C4132 C4151 1.429 . S
C4132 H4156 0.950 . S
C4133 C4150 1.574 . S
C4133 C4152 1.368 . S
C4133 H4157 0.949 . S
H4134 C4138 0.949 . S
C4135 C4136 1.349 . S
C4135 C4137 1.327 . S
C4135 H4158 0.950 . S
C4136 C4135 1.349 . S
C4136 C4148 1.349 . S
C4137 C4135 1.327 . S
C4137 C4153 1.429 . S
C4137 H4159 0.950 . S
C4138 H4134 0.949 . S
C4138 C4146 1.574 . S
C4138 C4154 1.368 . S
H4139 C4147 0.950 . S
H4140 C4145 0.950 . S
H4141 C4146 0.949 . S
H4142 C4148 0.950 . S
H4143 C4149 0.950 . S
H4144 C4150 0.949 . S
C4145 H4140 0.950 . S
C4145 C4147 1.327 . S
C4145 C4151 1.429 . S
C4146 C4138 1.574 . S
C4146 H4141 0.949 . S
C4146 C4152 1.368 . S
C4147 C4131 1.349 . S
C4147 H4139 0.950 . S
C4147 C4145 1.327 . S
C4148 C4136 1.349 . S
C4148 H4142 0.950 . S
C4148 C4149 1.327 . S
C4149 H4143 0.950 . S
C4149 C4148 1.327 . S
C4149 C4153 1.429 . S
C4150 C4133 1.574 . S
C4150 H4144 0.949 . S
C4150 C4154 1.368 . S
C4151 C4132 1.429 . S
C4151 C4145 1.429 . S
C4151 C4152 1.523 . S
C4152 C4133 1.368 . S
C4152 C4146 1.368 . S
C4152 C4151 1.523 . S
C4153 C4137 1.429 . S
C4153 C4149 1.429 . S
C4153 C4154 1.523 . S
C4154 C4138 1.368 . S
C4154 C4150 1.368 . S
C4154 C4153 1.523 . S
H4155 C4130 0.950 . S
H4156 C4132 0.950 . S
H4157 C4133 0.949 . S
H4158 C4135 0.950 . S
H4159 C4137 0.950 . S
C1281 C6 0.384 . S
C1286 C1099 0.481 . S
C1311 C46 0.384 . S
C1316 C339 0.481 . S
C1341 C86 0.384 . S
C1346 C1019 0.481 . S
C1371 C419 0.481 . S
C1376 C126 0.384 . S
C1401 C166 0.384 . S
C1406 C1179 0.481 . S
C1431 C579 0.481 . S
C1436 C206 0.384 . S
C1461 C1259 0.481 . S
C1466 C246 0.384 . S
C1491 C286 0.384 . S
C1496 C499 0.481 . S
C1521 C335 0.384 . S
C1526 C770 0.481 . S
C1551 C375 0.384 . S
C1556 C10 0.481 . S
C1581 C690 0.481 . S
C1586 C415 0.384 . S
C1611 C90 0.481 . S
C1616 C455 0.384 . S
C1641 C495 0.384 . S
C1646 C850 0.481 . S
C1671 C535 0.384 . S
C1676 C250 0.481 . S
C1701 C575 0.384 . S
C1706 C930 0.481 . S
C1731 C170 0.481 . S
C1736 C615 0.384 . S
C1761 C459 0.481 . S
C1766 C646 0.384 . S
C1791 C979 0.481 . S
C1796 C686 0.384 . S
C1821 C379 0.481 . S
C1826 C726 0.384 . S
C1851 C766 0.384 . S
C1856 C1059 0.481 . S
C1881 C539 0.481 . S
C1886 C806 0.384 . S
C1911 C1219 0.481 . S
C1916 C846 0.384 . S
C1941 C619 0.481 . S
C1946 C886 0.384 . S
C1971 C926 0.384 . S
C1976 C1139 0.481 . S
C2001 C975 0.384 . S
C2006 C130 0.481 . S
C2031 C1015 0.384 . S
C2036 C650 0.481 . S
C2061 C1055 0.384 . S
C2066 C50 0.481 . S
C2091 C1095 0.384 . S
C2096 C730 0.481 . S
C2121 C210 0.481 . S
C2126 C1135 0.384 . S
C2151 C890 0.481 . S
C2156 C1175 0.384 . S
C2181 C1215 0.384 . S
C2186 C290 0.481 . S
C2211 C1255 0.384 . S
C2216 C810 0.481 . S
C2241 C18 2.327 . S
C2246 C738 2.327 . S
C2271 C778 2.327 . S
C2276 C58 2.327 . S
C2301 C98 2.327 . S
C2306 C658 2.327 . S
C2331 C138 2.327 . S
C2336 C698 2.327 . S
C2361 C898 2.327 . S
C2366 C178 2.327 . S
C2391 C218 2.327 . S
C2396 C938 2.327 . S
C2421 C818 2.327 . S
C2426 C258 2.327 . S
C2451 C298 2.327 . S
C2456 C858 2.327 . S
C2481 C1049 2.327 . S
C2486 C329 2.327 . S
C2511 C369 2.327 . S
C2516 C1089 2.327 . S
C2541 C409 2.327 . S
C2546 C969 2.327 . S
C2571 C449 2.327 . S
C2576 C1009 2.327 . S
C2601 C1209 2.327 . S
C2606 C489 2.327 . S
C2631 C1249 2.327 . S
C2636 C529 2.327 . S
C2661 C569 2.327 . S
C2666 C1129 2.327 . S
C2691 C609 2.327 . S
C2696 C1169 2.327 . S
C2721 C19 3.120 . S
C2726 C970 3.120 . S
C2751 C370 3.120 . S
C2756 C59 3.120 . S
C2781 C99 3.120 . S
C2786 C1050 3.120 . S
C2811 C139 3.120 . S
C2816 C450 3.120 . S
C2841 C1130 3.120 . S
C2846 C179 3.120 . S
C2871 C530 3.120 . S
C2876 C219 3.120 . S
C2901 C259 3.120 . S
C2906 C1210 3.120 . S
C2931 C299 3.120 . S
C2936 C610 3.120 . S
C2961 C659 3.120 . S
C2966 C330 3.120 . S
C2991 C739 3.120 . S
C2996 C410 3.120 . S
C3021 C819 3.120 . S
C3026 C490 3.120 . S
C3051 C570 3.120 . S
C3056 C899 3.120 . S
C3081 C699 3.120 . S
C3086 C1010 3.120 . S
C3111 C779 3.120 . S
C3116 C1090 3.120 . S
C3141 C1170 3.120 . S
C3146 C859 3.120 . S
C3171 C1250 3.120 . S
C3176 C939 3.120 . S
C3201 C9 4.644 . S
C3206 C209 4.644 1_545 S
C3231 C249 4.644 . S
C3236 C49 4.644 1_545 S
C3261 C289 4.644 1_565 S
C3266 C89 4.644 . S
C3291 C169 4.644 . S
C3296 C129 4.644 1_565 S
C3321 C338 4.644 . S
C3326 C538 4.644 1_565 S
C3351 C378 4.644 1_565 S
C3356 C578 4.644 . S
C3381 C618 4.644 1_545 S
C3386 C418 4.644 . S
C3411 C458 4.644 1_545 S
C3416 C498 4.644 . S
C3441 C649 4.644 . S
C3446 C849 4.644 . S
C3471 C689 4.644 . S
C3476 C889 4.644 . S
C3501 C729 4.644 . S
C3506 C929 4.644 . S
C3531 C809 4.644 . S
C3536 C769 4.644 . S
C3561 C978 4.644 . S
C3566 C1178 4.644 . S
C3591 C1018 4.644 . S
C3596 C1218 4.644 . S
C3621 C1258 4.644 . S
C3626 C1058 4.644 . S
C3651 C1098 4.644 . S
C3656 C1138 4.644 . S
C3681 C15 0.836 . S
C3686 C175 0.836 . S
C3711 C55 0.837 . S
C3716 C215 0.837 . S
C3741 C255 0.837 . S
C3746 C95 0.837 . S
C3771 C295 0.837 . S
C3776 C135 0.837 . S
C3801 C326 0.836 . S
C3806 C486 0.836 . S
C3831 C526 0.837 . S
C3836 C366 0.837 . S
C3861 C566 0.837 . S
C3866 C406 0.837 . S
C3891 C606 0.837 . S
C3896 C446 0.837 . S
C3921 C655 0.837 . S
C3926 C815 0.837 . S
C3951 C855 0.837 . S
C3956 C695 0.837 . S
C3981 C735 0.836 . S
C3986 C895 0.836 . S
C4011 C935 0.837 . S
C4016 C775 0.837 . S
C4041 C1126 0.837 . S
C4046 C966 0.837 . S
C4071 C1006 0.837 . S
C4076 C1166 0.837 . S
C4101 C1046 0.836 . S
C4106 C1206 0.836 . S
C4131 C1086 0.837 . S
C4136 C1246 0.837 . S
