# Generated by pormake.
# Topology umd, (4)-cn, num edge types: 1
# Building blocks:
#     Node 0, Type 0, BuildingBlock: KOZSID_clean_sbu_0, # of connection points: 4
#     Node 1, Type 0, BuildingBlock: KOZSID_clean_sbu_0, # of connection points: 4
#     Node 2, Type 0, BuildingBlock: KOZSID_clean_sbu_0, # of connection points: 4
#     Node 3, Type 0, BuildingBlock: KOZSID_clean_sbu_0, # of connection points: 4
#     Node 4, Type 0, BuildingBlock: KOZSID_clean_sbu_0, # of connection points: 4
#     Node 5, Type 0, BuildingBlock: KOZSID_clean_sbu_0, # of connection points: 4
#     Node 6, Type 0, BuildingBlock: KOZSID_clean_sbu_0, # of connection points: 4
#     Node 7, Type 0, BuildingBlock: KOZSID_clean_sbu_0, # of connection points: 4
#     Node 8, Type 0, BuildingBlock: KOZSID_clean_sbu_0, # of connection points: 4
#     Node 9, Type 0, BuildingBlock: KOZSID_clean_sbu_0, # of connection points: 4
#     Node 10, Type 0, BuildingBlock: KOZSID_clean_sbu_0, # of connection points: 4
#     Node 11, Type 0, BuildingBlock: KOZSID_clean_sbu_0, # of connection points: 4
#     Node 12, Type 0, BuildingBlock: KOZSID_clean_sbu_0, # of connection points: 4
#     Node 13, Type 0, BuildingBlock: KOZSID_clean_sbu_0, # of connection points: 4
#     Node 14, Type 0, BuildingBlock: KOZSID_clean_sbu_0, # of connection points: 4
#     Node 15, Type 0, BuildingBlock: KOZSID_clean_sbu_0, # of connection points: 4
#     Edge 16, Type (0, 0), BuildingBlock: TEMPAE_clean_linker_10, # of connection points: 2
#     Edge 17, Type (0, 0), BuildingBlock: TEMPAE_clean_linker_10, # of connection points: 2
#     Edge 18, Type (0, 0), BuildingBlock: TEMPAE_clean_linker_10, # of connection points: 2
#     Edge 19, Type (0, 0), BuildingBlock: TEMPAE_clean_linker_10, # of connection points: 2
#     Edge 20, Type (0, 0), BuildingBlock: TEMPAE_clean_linker_10, # of connection points: 2
#     Edge 21, Type (0, 0), BuildingBlock: TEMPAE_clean_linker_10, # of connection points: 2
#     Edge 22, Type (0, 0), BuildingBlock: TEMPAE_clean_linker_10, # of connection points: 2
#     Edge 23, Type (0, 0), BuildingBlock: TEMPAE_clean_linker_10, # of connection points: 2
#     Edge 24, Type (0, 0), BuildingBlock: TEMPAE_clean_linker_10, # of connection points: 2
#     Edge 25, Type (0, 0), BuildingBlock: TEMPAE_clean_linker_10, # of connection points: 2
#     Edge 26, Type (0, 0), BuildingBlock: TEMPAE_clean_linker_10, # of connection points: 2
#     Edge 27, Type (0, 0), BuildingBlock: TEMPAE_clean_linker_10, # of connection points: 2
#     Edge 28, Type (0, 0), BuildingBlock: TEMPAE_clean_linker_10, # of connection points: 2
#     Edge 29, Type (0, 0), BuildingBlock: TEMPAE_clean_linker_10, # of connection points: 2
#     Edge 30, Type (0, 0), BuildingBlock: TEMPAE_clean_linker_10, # of connection points: 2
#     Edge 31, Type (0, 0), BuildingBlock: TEMPAE_clean_linker_10, # of connection points: 2
#     Edge 32, Type (0, 0), BuildingBlock: TEMPAE_clean_linker_10, # of connection points: 2
#     Edge 33, Type (0, 0), BuildingBlock: TEMPAE_clean_linker_10, # of connection points: 2
#     Edge 34, Type (0, 0), BuildingBlock: TEMPAE_clean_linker_10, # of connection points: 2
#     Edge 35, Type (0, 0), BuildingBlock: TEMPAE_clean_linker_10, # of connection points: 2
#     Edge 36, Type (0, 0), BuildingBlock: TEMPAE_clean_linker_10, # of connection points: 2
#     Edge 37, Type (0, 0), BuildingBlock: TEMPAE_clean_linker_10, # of connection points: 2
#     Edge 38, Type (0, 0), BuildingBlock: TEMPAE_clean_linker_10, # of connection points: 2
#     Edge 39, Type (0, 0), BuildingBlock: TEMPAE_clean_linker_10, # of connection points: 2
#     Edge 40, Type (0, 0), BuildingBlock: TEMPAE_clean_linker_10, # of connection points: 2
#     Edge 41, Type (0, 0), BuildingBlock: TEMPAE_clean_linker_10, # of connection points: 2
#     Edge 42, Type (0, 0), BuildingBlock: TEMPAE_clean_linker_10, # of connection points: 2
#     Edge 43, Type (0, 0), BuildingBlock: TEMPAE_clean_linker_10, # of connection points: 2
#     Edge 44, Type (0, 0), BuildingBlock: TEMPAE_clean_linker_10, # of connection points: 2
#     Edge 45, Type (0, 0), BuildingBlock: TEMPAE_clean_linker_10, # of connection points: 2
#     Edge 46, Type (0, 0), BuildingBlock: TEMPAE_clean_linker_10, # of connection points: 2
#     Edge 47, Type (0, 0), BuildingBlock: TEMPAE_clean_linker_10, # of connection points: 2
# Relax obj value: 0.058
# Max RMSD: 0.214
# Mean RMSD: 0.214
data_MOF--net-umd--node1-KOZSID_clean_sbu_0--edge1-TEMPAE_clean_linker_10
_symmetry_space_group_name_H-M    P1
_symmetry_Int_Tables_number       1
_symmetry_cell_setting            triclinic
loop_
_symmetry_equiv_pos_as_xyz
'x, y, z'
_cell_length_a     54.46586
_cell_length_b     54.468791
_cell_length_c     63.317331
_cell_angle_alpha  90.030535
_cell_angle_beta   90.00952
_cell_angle_gamma 90.030652
loop_
_atom_site_label
_atom_site_type_symbol
_atom_site_fract_x
_atom_site_fract_y
_atom_site_fract_z
_atom_type_partial_charge
C0 C 0.16708 0.43091 0.18675 0.0
C1 C 0.15932 0.41515 0.20258 0.0
C2 C 0.156 0.39252 0.19329 0.0
C3 C 0.1619 0.39564 0.17234 0.0
N4 N 0.16865 0.41881 0.16795 0.0
Co5 Co 0.17802 0.4313 0.13959 0.0
N6 N 0.1626 0.40319 0.1246 0.0
C7 C 0.15614 0.38179 0.13369 0.0
C8 C 0.14497 0.36603 0.11974 0.0
C9 C 0.14472 0.37813 0.1007 0.0
C10 C 0.15612 0.40064 0.10391 0.0
N11 N 0.18757 0.44435 0.11151 0.0
C12 C 0.17998 0.43797 0.09184 0.0
C13 C 0.19368 0.45025 0.07657 0.0
C14 C 0.2101 0.46484 0.08706 0.0
C15 C 0.20582 0.46057 0.10806 0.0
N16 N 0.1937 0.45934 0.15443 0.0
C17 C 0.21117 0.47406 0.14638 0.0
C18 C 0.21876 0.49188 0.16027 0.0
C19 C 0.20524 0.48809 0.17823 0.0
C20 C 0.19011 0.4681 0.17424 0.0
N21 N 0.20931 0.41219 0.14091 0.0
C22 C 0.25002 0.37932 0.1433 0.0
C23 C 0.23749 0.38352 0.12425 0.0
C24 C 0.21736 0.39968 0.12342 0.0
C25 C 0.24196 0.3927 0.16105 0.0
C26 C 0.22191 0.40914 0.15949 0.0
N27 N 0.14633 0.44921 0.13831 0.0
C28 C 0.12152 0.48556 0.13235 0.0
C29 C 0.0997 0.47273 0.1373 0.0
C30 C 0.10216 0.4478 0.14244 0.0
C31 C 0.12526 0.43666 0.14306 0.0
C32 C 0.14456 0.47348 0.13288 0.0
H33 H 0.12588 0.41762 0.14744 0.0
H34 H 0.16093 0.48376 0.12903 0.0
H35 H 0.20786 0.40136 0.10858 0.0
H36 H 0.21623 0.41892 0.1735 0.0
C37 C 0.15694 0.3791 0.1558 0.0
C38 C 0.17394 0.4569 0.19008 0.0
C39 C 0.16202 0.41849 0.08696 0.0
C40 C 0.21663 0.4733 0.12484 0.0
H41 H 0.15627 0.41958 0.21903 0.0
H42 H 0.14899 0.37608 0.20077 0.0
H43 H 0.13696 0.34828 0.12317 0.0
H44 H 0.13692 0.37111 0.0862 0.0
H45 H 0.19259 0.44837 0.05959 0.0
H46 H 0.22343 0.47723 0.08018 0.0
H47 H 0.23181 0.5065 0.15741 0.0
H48 H 0.20648 0.49874 0.19264 0.0
H49 H 0.24261 0.37366 0.11006 0.0
H50 H 0.25108 0.39051 0.17613 0.0
H51 H 0.12095 0.50487 0.12836 0.0
H52 H 0.08625 0.43656 0.14581 0.0
C53 C 0.58577 0.1677 0.68746 0.0
C54 C 0.60227 0.16011 0.70278 0.0
C55 C 0.62461 0.15747 0.69288 0.0
C56 C 0.62056 0.16354 0.67208 0.0
N57 N 0.5971 0.16977 0.66835 0.0
Co58 Co 0.58326 0.17896 0.6404 0.0
N59 N 0.61122 0.16427 0.62461 0.0
C60 C 0.63328 0.159 0.63308 0.0
C61 C 0.64974 0.15045 0.6184 0.0
C62 C 0.63737 0.15067 0.59949 0.0
C63 C 0.61385 0.15924 0.60365 0.0
N64 N 0.56877 0.188 0.61267 0.0
C65 C 0.57373 0.17945 0.59298 0.0
C66 C 0.55706 0.18887 0.57844 0.0
C67 C 0.54229 0.20489 0.58915 0.0
C68 C 0.55018 0.20395 0.60967 0.0
N69 N 0.5555 0.19401 0.65614 0.0
C70 C 0.53964 0.2107 0.64849 0.0
C71 C 0.52233 0.21785 0.663 0.0
C72 C 0.52758 0.20479 0.68092 0.0
C73 C 0.54782 0.19029 0.67626 0.0
N74 N 0.6017 0.21058 0.64129 0.0
C75 C 0.63566 0.25024 0.64364 0.0
C76 C 0.63108 0.23787 0.62458 0.0
C77 C 0.61405 0.21849 0.62369 0.0
C78 C 0.62162 0.24307 0.66128 0.0
C79 C 0.60488 0.22328 0.6598 0.0
N80 N 0.56596 0.14702 0.63953 0.0
C81 C 0.52959 0.12194 0.63487 0.0
C82 C 0.54306 0.10017 0.6383 0.0
C83 C 0.56831 0.1028 0.64221 0.0
C84 C 0.57915 0.12605 0.64307 0.0
C85 C 0.54136 0.14506 0.6354 0.0
H86 H 0.59845 0.1269 0.64655 0.0
H87 H 0.53056 0.16133 0.63256 0.0
H88 H 0.61166 0.20931 0.60877 0.0
H89 H 0.59516 0.2177 0.67386 0.0
C90 C 0.63672 0.15953 0.65511 0.0
C91 C 0.55983 0.17405 0.69154 0.0
C92 C 0.59555 0.16484 0.58708 0.0
C93 C 0.53819 0.21478 0.62679 0.0
H94 H 0.59854 0.15679 0.71932 0.0
H95 H 0.64151 0.15086 0.69985 0.0
H96 H 0.66841 0.14442 0.62112 0.0
H97 H 0.64499 0.1456 0.58433 0.0
H98 H 0.55576 0.18492 0.56174 0.0
H99 H 0.52701 0.21527 0.58284 0.0
H100 H 0.50689 0.23001 0.66051 0.0
H101 H 0.51752 0.20566 0.69564 0.0
H102 H 0.64083 0.24294 0.61033 0.0
H103 H 0.62423 0.25202 0.67639 0.0
H104 H 0.51001 0.12131 0.63201 0.0
H105 H 0.58003 0.08698 0.64439 0.0
C106 C 0.8553 0.58666 0.18355 0.0
C107 C 0.86257 0.60296 0.19918 0.0
C108 C 0.86532 0.62547 0.1896 0.0
C109 C 0.85973 0.62173 0.16867 0.0
N110 N 0.85372 0.59828 0.16453 0.0
Co111 Co 0.84576 0.58476 0.13615 0.0
N112 N 0.86057 0.61321 0.12107 0.0
C113 C 0.8654 0.63516 0.12996 0.0
C114 C 0.87408 0.65204 0.11569 0.0
C115 C 0.87441 0.64008 0.0966 0.0
C116 C 0.866 0.61639 0.10023 0.0
N117 N 0.83791 0.57055 0.10801 0.0
C118 C 0.84694 0.57604 0.0886 0.0
C119 C 0.83837 0.5594 0.07363 0.0
C120 C 0.82234 0.5441 0.08374 0.0
C121 C 0.82246 0.55168 0.10437 0.0
N122 N 0.83055 0.55651 0.15111 0.0
C123 C 0.81428 0.54061 0.14281 0.0
C124 C 0.80639 0.52327 0.15699 0.0
C125 C 0.81851 0.52851 0.17538 0.0
C126 C 0.8333 0.54874 0.1713 0.0
N127 N 0.81378 0.6027 0.13643 0.0
C128 C 0.77331 0.6358 0.13828 0.0
C129 C 0.78658 0.63206 0.11954 0.0
C130 C 0.80631 0.6154 0.11887 0.0
C131 C 0.78007 0.6214 0.15582 0.0
C132 C 0.80029 0.60514 0.15461 0.0
N133 N 0.87811 0.56801 0.13595 0.0
C134 C 0.90417 0.53228 0.13129 0.0
C135 C 0.92552 0.54603 0.13588 0.0
C136 C 0.92218 0.57106 0.14033 0.0
C137 C 0.89869 0.58145 0.14051 0.0
C138 C 0.88077 0.54358 0.13134 0.0
H139 H 0.89733 0.60063 0.14433 0.0
H140 H 0.86484 0.53255 0.12772 0.0
H141 H 0.81608 0.61356 0.10418 0.0
H142 H 0.80551 0.59518 0.16865 0.0
C143 C 0.86416 0.63818 0.152 0.0
C144 C 0.84886 0.56062 0.1872 0.0
C145 C 0.86087 0.59844 0.08325 0.0
C146 C 0.81109 0.53934 0.12101 0.0
H147 H 0.86571 0.59903 0.2157 0.0
H148 H 0.87177 0.64226 0.19688 0.0
H149 H 0.87979 0.67072 0.11882 0.0
H150 H 0.8797 0.64808 0.08164 0.0
H151 H 0.84279 0.55859 0.05699 0.0
H152 H 0.81242 0.52877 0.07698 0.0
H153 H 0.79429 0.50787 0.15403 0.0
H154 H 0.81679 0.51847 0.19005 0.0
H155 H 0.78189 0.64215 0.10537 0.0
H156 H 0.77044 0.62337 0.17068 0.0
H157 H 0.90536 0.51284 0.12793 0.0
H158 H 0.93768 0.58295 0.14345 0.0
C159 C 0.42985 0.85786 0.68901 0.0
C160 C 0.41799 0.87238 0.70381 0.0
C161 C 0.40141 0.88638 0.69296 0.0
C162 C 0.40405 0.87965 0.6722 0.0
N163 N 0.42087 0.86188 0.66914 0.0
Co164 Co 0.43137 0.84861 0.6409 0.0
N165 N 0.40477 0.8666 0.62533 0.0
C166 C 0.39028 0.88416 0.63366 0.0
C167 C 0.37478 0.89476 0.61925 0.0
C168 C 0.37993 0.88349 0.60048 0.0
C169 C 0.39827 0.86643 0.60449 0.0
N170 N 0.44201 0.83514 0.61289 0.0
C171 C 0.43107 0.83608 0.59359 0.0
C172 C 0.44359 0.82177 0.57895 0.0
C173 C 0.46365 0.81252 0.58902 0.0
C174 C 0.46204 0.8212 0.60927 0.0
N175 N 0.45826 0.83079 0.65634 0.0
C176 C 0.47665 0.81792 0.64735 0.0
C177 C 0.4928 0.8079 0.66151 0.0
C178 C 0.4845 0.81514 0.68083 0.0
C179 C 0.46367 0.82925 0.67731 0.0
N180 N 0.40877 0.81992 0.64454 0.0
C181 C 0.37445 0.78022 0.64632 0.0
C182 C 0.39926 0.77644 0.64093 0.0
C183 C 0.41595 0.79632 0.64015 0.0
C184 C 0.36765 0.8044 0.65138 0.0
C185 C 0.38484 0.82369 0.65046 0.0
N186 N 0.45309 0.87779 0.63715 0.0
C187 C 0.47558 0.91129 0.65331 0.0
C188 C 0.47461 0.92508 0.63468 0.0
C189 C 0.46433 0.91386 0.6168 0.0
C190 C 0.45369 0.89035 0.61837 0.0
C191 C 0.46524 0.88772 0.65406 0.0
H192 H 0.44515 0.88292 0.60448 0.0
H193 H 0.4664 0.87809 0.66869 0.0
H194 H 0.43457 0.79245 0.63564 0.0
H195 H 0.37843 0.84177 0.65432 0.0
C196 C 0.39107 0.8895 0.6552 0.0
C197 C 0.45157 0.84301 0.69425 0.0
C198 C 0.41063 0.85232 0.58772 0.0
C199 C 0.47753 0.81445 0.62566 0.0
H200 H 0.42167 0.8734 0.72059 0.0
H201 H 0.38925 0.9002 0.69939 0.0
H202 H 0.36144 0.90913 0.62203 0.0
H203 H 0.37157 0.88791 0.58546 0.0
H204 H 0.43898 0.81872 0.56253 0.0
H205 H 0.47748 0.80043 0.58249 0.0
H206 H 0.50876 0.79671 0.65818 0.0
H207 H 0.4932 0.81108 0.6958 0.0
H208 H 0.40576 0.75829 0.63677 0.0
H209 H 0.34903 0.80858 0.65616 0.0
H210 H 0.484 0.91882 0.6674 0.0
H211 H 0.46348 0.92361 0.60191 0.0
C212 C 0.17269 0.58805 0.32698 0.0
C213 C 0.16539 0.60451 0.31153 0.0
C214 C 0.16287 0.62696 0.32133 0.0
C215 C 0.16872 0.623 0.34219 0.0
N216 N 0.17473 0.59951 0.34604 0.0
Co217 Co 0.18333 0.58571 0.37411 0.0
N218 N 0.16844 0.61371 0.38967 0.0
C219 C 0.16349 0.6358 0.38113 0.0
C220 C 0.15462 0.65227 0.39567 0.0
C221 C 0.15428 0.63985 0.41456 0.0
C222 C 0.16285 0.6163 0.41052 0.0
N223 N 0.19177 0.57121 0.40197 0.0
C224 C 0.18277 0.57616 0.42152 0.0
C225 C 0.19192 0.55949 0.43619 0.0
C226 C 0.20819 0.54474 0.42572 0.0
C227 C 0.20767 0.55264 0.40519 0.0
N228 N 0.19855 0.55789 0.35858 0.0
C229 C 0.21508 0.54201 0.36644 0.0
C230 C 0.22224 0.52455 0.35206 0.0
C231 C 0.20933 0.52971 0.33402 0.0
C232 C 0.19491 0.55005 0.33849 0.0
N233 N 0.21509 0.60404 0.37375 0.0
C234 C 0.25547 0.63735 0.37229 0.0
C235 C 0.24239 0.63305 0.39104 0.0
C236 C 0.22268 0.61634 0.3915 0.0
C237 C 0.24852 0.62343 0.35449 0.0
C238 C 0.22835 0.60705 0.35551 0.0
N239 N 0.1513 0.56851 0.37449 0.0
C240 C 0.12605 0.53216 0.37854 0.0
C241 C 0.10435 0.54571 0.37492 0.0
C242 C 0.10713 0.57099 0.37123 0.0
C243 C 0.13043 0.58177 0.37075 0.0
C244 C 0.1492 0.54389 0.37843 0.0
H245 H 0.13139 0.6011 0.36738 0.0
H246 H 0.16539 0.53302 0.38144 0.0
H247 H 0.21305 0.61413 0.40622 0.0
H248 H 0.223 0.59741 0.34133 0.0
C249 C 0.16449 0.63921 0.3591 0.0
C250 C 0.17873 0.56198 0.3231 0.0
C251 C 0.16788 0.5979 0.42716 0.0
C252 C 0.2188 0.54061 0.38821 0.0
H253 H 0.16214 0.60069 0.29499 0.0
H254 H 0.15641 0.64384 0.31425 0.0
H255 H 0.14871 0.67095 0.39286 0.0
H256 H 0.14883 0.64746 0.42963 0.0
H257 H 0.18759 0.55813 0.45281 0.0
H258 H 0.21842 0.52945 0.43217 0.0
H259 H 0.23424 0.50902 0.35472 0.0
H260 H 0.21018 0.51949 0.31937 0.0
H261 H 0.2472 0.64273 0.4054 0.0
H262 H 0.25798 0.62584 0.3396 0.0
H263 H 0.12535 0.51256 0.38122 0.0
H264 H 0.0914 0.5828 0.36894 0.0
C265 C 0.4292 0.16683 0.82768 0.0
C266 C 0.41362 0.15901 0.81173 0.0
C267 C 0.39092 0.15555 0.82085 0.0
C268 C 0.39384 0.16144 0.84184 0.0
N269 N 0.41693 0.16833 0.84638 0.0
Co270 Co 0.42922 0.1776 0.8748 0.0
N271 N 0.40126 0.16165 0.88958 0.0
C272 C 0.37998 0.155 0.88038 0.0
C273 C 0.36437 0.1434 0.89418 0.0
C274 C 0.37645 0.14309 0.91324 0.0
C275 C 0.39877 0.15489 0.91019 0.0
N276 N 0.44198 0.1872 0.90297 0.0
C277 C 0.43555 0.17945 0.92257 0.0
C278 C 0.44748 0.1933 0.93795 0.0
C279 C 0.46191 0.20998 0.92759 0.0
C280 C 0.45789 0.20568 0.90655 0.0
N281 N 0.45715 0.19367 0.86017 0.0
C282 C 0.47163 0.21128 0.86832 0.0
C283 C 0.48953 0.21896 0.85454 0.0
C284 C 0.48604 0.20532 0.83658 0.0
C285 C 0.46614 0.19004 0.84045 0.0
N286 N 0.4098 0.20863 0.87359 0.0
C287 C 0.37658 0.24896 0.87106 0.0
C288 C 0.37957 0.23545 0.88977 0.0
C289 C 0.39615 0.21571 0.89074 0.0
C290 C 0.39157 0.24228 0.85384 0.0
C291 C 0.40789 0.22214 0.85538 0.0
N292 N 0.44753 0.14621 0.87597 0.0
C293 C 0.48431 0.12201 0.88166 0.0
C294 C 0.47183 0.10005 0.87654 0.0
C295 C 0.44683 0.1021 0.8715 0.0
C296 C 0.43531 0.125 0.87106 0.0
C297 C 0.47184 0.14481 0.88136 0.0
H298 H 0.41626 0.12536 0.86667 0.0
H299 H 0.48185 0.16131 0.88534 0.0
H300 H 0.39732 0.20576 0.90539 0.0
H301 H 0.41849 0.21709 0.84164 0.0
C302 C 0.3773 0.15607 0.85827 0.0
C303 C 0.45521 0.17367 0.82462 0.0
C304 C 0.41641 0.16105 0.92726 0.0
C305 C 0.47063 0.2167 0.88987 0.0
H306 H 0.41822 0.15596 0.79531 0.0
H307 H 0.37461 0.14838 0.81327 0.0
H308 H 0.34675 0.13516 0.89064 0.0
H309 H 0.36951 0.135 0.92764 0.0
H310 H 0.4455 0.19211 0.95491 0.0
H311 H 0.47404 0.22346 0.9346 0.0
H312 H 0.50404 0.23211 0.8575 0.0
H313 H 0.49684 0.20654 0.82226 0.0
H314 H 0.36903 0.23999 0.90373 0.0
H315 H 0.39014 0.252 0.83898 0.0
H316 H 0.50365 0.12174 0.88557 0.0
H317 H 0.43585 0.08604 0.86803 0.0
C318 C 0.86023 0.43303 0.32496 0.0
C319 C 0.87452 0.42078 0.31024 0.0
C320 C 0.88819 0.40399 0.32119 0.0
C321 C 0.88154 0.40696 0.34194 0.0
N322 N 0.8641 0.42417 0.34488 0.0
Co323 Co 0.85149 0.43548 0.37311 0.0
N324 N 0.86826 0.4083 0.38878 0.0
C325 C 0.88422 0.39216 0.38034 0.0
C326 C 0.89226 0.37484 0.39445 0.0
C327 C 0.88093 0.38049 0.41311 0.0
C328 C 0.8668 0.40125 0.40945 0.0
N329 N 0.83964 0.44766 0.40123 0.0
C330 C 0.84198 0.43819 0.42102 0.0
C331 C 0.83327 0.4546 0.43614 0.0
C332 C 0.82468 0.47458 0.42559 0.0
C333 C 0.82895 0.46961 0.40475 0.0
N334 N 0.83419 0.46251 0.35749 0.0
C335 C 0.82232 0.4816 0.36635 0.0
C336 C 0.812 0.49743 0.35209 0.0
C337 C 0.818 0.48812 0.3328 0.0
C338 C 0.8318 0.46711 0.33643 0.0
N339 N 0.82184 0.41386 0.37025 0.0
C340 C 0.78144 0.37973 0.36909 0.0
C341 C 0.77958 0.40305 0.3789 0.0
C342 C 0.79957 0.41975 0.37899 0.0
C343 C 0.8042 0.37479 0.35934 0.0
C344 C 0.82386 0.39149 0.36048 0.0
N345 N 0.8816 0.45605 0.3761 0.0
C346 C 0.91452 0.47901 0.35952 0.0
C347 C 0.92911 0.47727 0.37768 0.0
C348 C 0.91875 0.46604 0.39549 0.0
C349 C 0.89519 0.45551 0.39435 0.0
C350 C 0.89084 0.46879 0.35921 0.0
H351 H 0.88851 0.44617 0.40814 0.0
H352 H 0.8805 0.47061 0.34495 0.0
H353 H 0.79695 0.43726 0.38656 0.0
H354 H 0.84086 0.38573 0.35356 0.0
C355 C 0.89006 0.39297 0.35889 0.0
C356 C 0.84515 0.45452 0.3195 0.0
C357 C 0.85389 0.41475 0.42637 0.0
C358 C 0.82134 0.48425 0.3881 0.0
H359 H 0.87542 0.42411 0.29341 0.0
H360 H 0.90147 0.39122 0.31479 0.0
H361 H 0.90469 0.35973 0.39148 0.0
H362 H 0.88317 0.37064 0.42782 0.0
H363 H 0.83351 0.45286 0.45313 0.0
H364 H 0.81625 0.49079 0.43231 0.0
H365 H 0.80178 0.51405 0.35534 0.0
H366 H 0.81364 0.49649 0.31776 0.0
H367 H 0.763 0.40862 0.38691 0.0
H368 H 0.80743 0.35802 0.35072 0.0
H369 H 0.92146 0.48805 0.34549 0.0
H370 H 0.9292 0.46444 0.40998 0.0
C371 C 0.58693 0.85676 0.82753 0.0
C372 C 0.60265 0.86371 0.81139 0.0
C373 C 0.62547 0.86674 0.82035 0.0
C374 C 0.62246 0.8616 0.84146 0.0
N375 N 0.59919 0.8556 0.84628 0.0
Co376 Co 0.58678 0.8478 0.87505 0.0
N377 N 0.61575 0.86283 0.88924 0.0
C378 C 0.63735 0.86761 0.87973 0.0
C379 C 0.65473 0.87648 0.89346 0.0
C380 C 0.64349 0.877 0.91287 0.0
C381 C 0.61969 0.8685 0.90993 0.0
N382 N 0.57371 0.84014 0.90362 0.0
C383 C 0.57987 0.84944 0.9228 0.0
C384 C 0.56381 0.84101 0.93827 0.0
C385 C 0.54821 0.8248 0.9287 0.0
C386 C 0.55503 0.82468 0.90788 0.0
N387 N 0.55802 0.83236 0.86096 0.0
C388 C 0.54244 0.81619 0.86982 0.0
C389 C 0.52452 0.80821 0.85621 0.0
C390 C 0.52904 0.82014 0.83759 0.0
C391 C 0.54947 0.83489 0.84098 0.0
N392 N 0.60479 0.81594 0.8744 0.0
C393 C 0.63809 0.77576 0.87176 0.0
C394 C 0.63474 0.7889 0.89064 0.0
C395 C 0.61803 0.80854 0.89168 0.0
C396 C 0.62315 0.78246 0.85454 0.0
C397 C 0.60674 0.80249 0.85616 0.0
N398 N 0.5699 0.88002 0.87558 0.0
C399 C 0.53417 0.90577 0.88109 0.0
C400 C 0.54762 0.92721 0.87621 0.0
C401 C 0.57252 0.92407 0.87114 0.0
C402 C 0.58306 0.90065 0.87067 0.0
C403 C 0.54563 0.88249 0.88078 0.0
H404 H 0.6021 0.89941 0.86635 0.0
H405 H 0.53484 0.8665 0.88469 0.0
H406 H 0.61659 0.81831 0.90642 0.0
H407 H 0.5963 0.80762 0.84236 0.0
C408 C 0.63953 0.8662 0.85762 0.0
C409 C 0.56083 0.85013 0.8246 0.0
C410 C 0.60237 0.86361 0.92742 0.0
C411 C 0.54204 0.81318 0.89166 0.0
H412 H 0.59813 0.86637 0.79491 0.0
H413 H 0.642 0.873 0.81255 0.0
H414 H 0.67328 0.88221 0.88979 0.0
H415 H 0.65205 0.88247 0.92755 0.0
H416 H 0.56354 0.84568 0.95487 0.0
H417 H 0.53313 0.81496 0.93594 0.0
H418 H 0.50922 0.79619 0.8597 0.0
H419 H 0.5184 0.81832 0.82323 0.0
H420 H 0.6452 0.78422 0.90461 0.0
H421 H 0.62478 0.77295 0.83959 0.0
H422 H 0.51483 0.90681 0.88489 0.0
H423 H 0.5842 0.93965 0.86775 0.0
C424 C 0.83186 0.55401 0.83701 0.0
C425 C 0.81645 0.53427 0.8329 0.0
C426 C 0.80254 0.53085 0.85071 0.0
C427 C 0.81019 0.54862 0.86463 0.0
N428 N 0.82805 0.56297 0.85671 0.0
Co429 Co 0.84415 0.59068 0.87162 0.0
N430 N 0.83419 0.57783 0.89965 0.0
C431 C 0.81562 0.56195 0.90301 0.0
C432 C 0.81118 0.55775 0.924 0.0
C433 C 0.82785 0.57203 0.93455 0.0
C434 C 0.84183 0.58407 0.91934 0.0
N435 N 0.86 0.61854 0.88663 0.0
C436 C 0.86645 0.62097 0.90731 0.0
C437 C 0.87833 0.64323 0.91054 0.0
C438 C 0.87838 0.65533 0.8915 0.0
C439 C 0.86692 0.63979 0.87754 0.0
N440 N 0.854 0.60295 0.84334 0.0
C441 C 0.86117 0.62598 0.83891 0.0
C442 C 0.86749 0.62884 0.81801 0.0
C443 C 0.86401 0.60618 0.80882 0.0
C444 C 0.85576 0.59067 0.82465 0.0
N445 N 0.81326 0.61029 0.8702 0.0
C446 C 0.77246 0.64292 0.86809 0.0
C447 C 0.78051 0.62976 0.85022 0.0
C448 C 0.80064 0.61342 0.85164 0.0
C449 C 0.78513 0.63879 0.88705 0.0
C450 C 0.80531 0.62274 0.88774 0.0
N451 N 0.87537 0.57216 0.87312 0.0
C452 C 0.91968 0.57262 0.87044 0.0
C453 C 0.92108 0.54774 0.87566 0.0
C454 C 0.89893 0.53511 0.87931 0.0
C455 C 0.87628 0.54773 0.87822 0.0
C456 C 0.89688 0.58428 0.86898 0.0
H457 H 0.85955 0.53781 0.88154 0.0
H458 H 0.89683 0.6033 0.86451 0.0
H459 H 0.8063 0.6037 0.8376 0.0
H460 H 0.81487 0.62105 0.90254 0.0
C461 C 0.80462 0.54946 0.88617 0.0
C462 C 0.8487 0.56474 0.82145 0.0
C463 C 0.86007 0.60329 0.92425 0.0
C464 C 0.86632 0.64247 0.85542 0.0
H465 H 0.81536 0.52351 0.81855 0.0
H466 H 0.78925 0.51642 0.85349 0.0
H467 H 0.7976 0.54562 0.93084 0.0
H468 H 0.8289 0.57388 0.95153 0.0
H469 H 0.88627 0.65009 0.92503 0.0
H470 H 0.8868 0.67289 0.88807 0.0
H471 H 0.87492 0.6451 0.81055 0.0
H472 H 0.86731 0.60155 0.79245 0.0
H473 H 0.77128 0.63199 0.83519 0.0
H474 H 0.78004 0.64856 0.90129 0.0
H475 H 0.93621 0.58305 0.86722 0.0
H476 H 0.89915 0.51581 0.88339 0.0
C477 C 0.47869 0.83556 0.34492 0.0
C478 C 0.50305 0.82791 0.34432 0.0
C479 C 0.50783 0.81657 0.36303 0.0
C480 C 0.48673 0.81893 0.37456 0.0
N481 N 0.46884 0.83126 0.36433 0.0
Co482 Co 0.43834 0.84475 0.37749 0.0
N483 N 0.45074 0.83866 0.40671 0.0
C484 C 0.47058 0.82521 0.41187 0.0
C485 C 0.47617 0.82582 0.43295 0.0
C486 C 0.45852 0.84025 0.44183 0.0
C487 C 0.44273 0.84722 0.42564 0.0
N488 N 0.40783 0.85802 0.39073 0.0
C489 C 0.40241 0.86325 0.41128 0.0
C490 C 0.37807 0.87036 0.41336 0.0
C491 C 0.36787 0.86927 0.39358 0.0
C492 C 0.38644 0.86153 0.38052 0.0
N493 N 0.42648 0.85105 0.34817 0.0
C494 C 0.4029 0.85504 0.34286 0.0
C495 C 0.39941 0.85696 0.32147 0.0
C496 C 0.42223 0.85391 0.31269 0.0
C497 C 0.43862 0.85058 0.32927 0.0
N498 N 0.42238 0.81167 0.37696 0.0
C499 C 0.3905 0.77018 0.37446 0.0
C500 C 0.40433 0.77807 0.35693 0.0
C501 C 0.42038 0.79842 0.3586 0.0
C502 C 0.39424 0.78284 0.39352 0.0
C503 C 0.40999 0.80332 0.39441 0.0
N504 N 0.45315 0.8781 0.378 0.0
C505 C 0.44851 0.922 0.37304 0.0
C506 C 0.473 0.92628 0.37878 0.0
C507 C 0.48739 0.90575 0.38403 0.0
C508 C 0.47709 0.88198 0.38381 0.0
C509 C 0.43912 0.89798 0.37249 0.0
H510 H 0.48856 0.8668 0.3884 0.0
H511 H 0.42036 0.89559 0.36756 0.0
H512 H 0.43045 0.80395 0.34472 0.0
H513 H 0.41114 0.81301 0.40918 0.0
C514 C 0.48594 0.81599 0.39632 0.0
C515 C 0.46508 0.84501 0.32634 0.0
C516 C 0.41887 0.85911 0.42943 0.0
C517 C 0.38517 0.85923 0.3585 0.0
H518 H 0.51644 0.8306 0.33194 0.0
H519 H 0.52536 0.80949 0.3683 0.0
H520 H 0.49178 0.81759 0.4408 0.0
H521 H 0.45725 0.84474 0.45844 0.0
H522 H 0.3685 0.87518 0.42775 0.0
H523 H 0.34916 0.87369 0.38924 0.0
H524 H 0.38236 0.86043 0.31321 0.0
H525 H 0.42612 0.85366 0.29595 0.0
H526 H 0.40265 0.7687 0.34192 0.0
H527 H 0.38417 0.77768 0.40758 0.0
H528 H 0.4367 0.93716 0.36863 0.0
H529 H 0.50638 0.90809 0.38867 0.0
C530 C 0.18398 0.47216 0.83787 0.0
C531 C 0.19807 0.49266 0.83309 0.0
C532 C 0.21116 0.49824 0.85092 0.0
C533 C 0.2044 0.48088 0.86552 0.0
N534 N 0.18794 0.46466 0.85801 0.0
Co535 Co 0.17342 0.43675 0.87397 0.0
N536 N 0.18254 0.45154 0.90162 0.0
C537 C 0.19809 0.47053 0.90443 0.0
C538 C 0.19913 0.47853 0.92492 0.0
C539 C 0.18362 0.46342 0.93582 0.0
C540 C 0.17441 0.44644 0.92142 0.0
N541 N 0.15942 0.40861 0.88998 0.0
C542 C 0.15498 0.40582 0.91103 0.0
C543 C 0.14691 0.38215 0.91529 0.0
C544 C 0.1464 0.36982 0.89637 0.0
C545 C 0.1543 0.38646 0.88157 0.0
N546 N 0.164 0.42271 0.84612 0.0
C547 C 0.15796 0.39917 0.8425 0.0
C548 C 0.15175 0.39495 0.82175 0.0
C549 C 0.15409 0.41727 0.81176 0.0
C550 C 0.16162 0.43393 0.82699 0.0
N551 N 0.20533 0.41878 0.87286 0.0
C552 C 0.24585 0.38574 0.8706 0.0
C553 C 0.23716 0.39822 0.8526 0.0
C554 C 0.21722 0.41475 0.85409 0.0
C555 C 0.2343 0.39125 0.88988 0.0
C556 C 0.21431 0.40759 0.89066 0.0
N557 N 0.14122 0.45358 0.87504 0.0
C558 C 0.09695 0.45068 0.87281 0.0
C559 C 0.09431 0.47586 0.87657 0.0
C560 C 0.11585 0.48979 0.87932 0.0
C561 C 0.13907 0.47827 0.87875 0.0
C562 C 0.12032 0.44007 0.87185 0.0
H563 H 0.15525 0.48932 0.88131 0.0
H564 H 0.12134 0.42075 0.86846 0.0
H565 H 0.21096 0.42367 0.83986 0.0
H566 H 0.20554 0.41033 0.90572 0.0
C567 C 0.20856 0.48259 0.88719 0.0
C568 C 0.16775 0.45987 0.82273 0.0
C569 C 0.1606 0.4242 0.92756 0.0
C570 C 0.15445 0.38301 0.85954 0.0
H571 H 0.19861 0.50272 0.81836 0.0
H572 H 0.22302 0.51394 0.85332 0.0
H573 H 0.20927 0.49405 0.93109 0.0
H574 H 0.17992 0.46464 0.95256 0.0
H575 H 0.14237 0.37438 0.93052 0.0
H576 H 0.14064 0.35105 0.89372 0.0
H577 H 0.14532 0.37793 0.81486 0.0
H578 H 0.15067 0.4209 0.79521 0.0
H579 H 0.24561 0.39516 0.83735 0.0
H580 H 0.23997 0.38222 0.9043 0.0
H581 H 0.08097 0.43921 0.87027 0.0
H582 H 0.11474 0.50933 0.8823 0.0
C583 C 0.55454 0.18854 0.33881 0.0
C584 C 0.53538 0.20437 0.33399 0.0
C585 C 0.53162 0.21862 0.35155 0.0
C586 C 0.54866 0.21076 0.36602 0.0
N587 N 0.56288 0.19248 0.35869 0.0
Co588 Co 0.58975 0.17613 0.37448 0.0
N589 N 0.57607 0.18675 0.40207 0.0
C590 C 0.56029 0.20553 0.40481 0.0
C591 C 0.55535 0.21034 0.42562 0.0
C592 C 0.56903 0.19372 0.43673 0.0
C593 C 0.58151 0.17939 0.42202 0.0
N594 N 0.61685 0.1602 0.39037 0.0
C595 C 0.61865 0.15434 0.41122 0.0
C596 C 0.64064 0.14225 0.41513 0.0
C597 C 0.65323 0.14146 0.39635 0.0
C598 C 0.63825 0.15272 0.38186 0.0
N599 N 0.6027 0.16547 0.34661 0.0
C600 C 0.62566 0.15762 0.34284 0.0
C601 C 0.629 0.15065 0.32215 0.0
C602 C 0.60672 0.1544 0.31239 0.0
C603 C 0.59095 0.1635 0.32768 0.0
N604 N 0.61007 0.20672 0.37314 0.0
C605 C 0.6444 0.24674 0.37154 0.0
C606 C 0.63245 0.23772 0.35323 0.0
C607 C 0.61526 0.21822 0.35441 0.0
C608 C 0.63753 0.23542 0.39069 0.0
C609 C 0.62106 0.21552 0.39108 0.0
N610 N 0.57056 0.14519 0.3759 0.0
C611 C 0.57026 0.10077 0.37394 0.0
C612 C 0.54508 0.0999 0.3781 0.0
C613 C 0.53274 0.12237 0.38092 0.0
C614 C 0.54586 0.14478 0.38003 0.0
C615 C 0.58246 0.12335 0.37262 0.0
H616 H 0.53609 0.16175 0.3827 0.0
H617 H 0.6017 0.12295 0.3689 0.0
H618 H 0.6067 0.21201 0.33998 0.0
H619 H 0.61777 0.20696 0.40612 0.0
C620 C 0.54873 0.21655 0.38752 0.0
C621 C 0.5653 0.17112 0.32376 0.0
C622 C 0.60059 0.1613 0.42769 0.0
C623 C 0.64155 0.15263 0.3598 0.0
H624 H 0.52519 0.20549 0.31934 0.0
H625 H 0.51741 0.23226 0.35379 0.0
H626 H 0.54318 0.22419 0.43197 0.0
H627 H 0.57029 0.19299 0.45377 0.0
H628 H 0.64699 0.13464 0.42992 0.0
H629 H 0.67075 0.13271 0.39345 0.0
H630 H 0.64528 0.14262 0.31521 0.0
H631 H 0.60252 0.1507 0.29599 0.0
H632 H 0.63655 0.24508 0.33779 0.0
H633 H 0.64478 0.24152 0.40567 0.0
H634 H 0.58052 0.08399 0.37142 0.0
H635 H 0.51322 0.12259 0.38417 0.0
C636 C 0.83326 0.46937 0.67379 0.0
C637 C 0.81826 0.48938 0.67803 0.0
C638 C 0.8043 0.49314 0.66032 0.0
C639 C 0.8115 0.47527 0.64633 0.0
N640 N 0.82912 0.46053 0.65409 0.0
Co641 Co 0.84433 0.43238 0.63903 0.0
N642 N 0.83402 0.44528 0.61104 0.0
C643 C 0.81587 0.4617 0.60795 0.0
C644 C 0.81076 0.46573 0.58707 0.0
C645 C 0.82646 0.45074 0.57625 0.0
C646 C 0.84062 0.43846 0.5912 0.0
N647 N 0.8592 0.40406 0.62387 0.0
C648 C 0.86471 0.40109 0.60303 0.0
C649 C 0.8761 0.37859 0.59977 0.0
C650 C 0.87671 0.36684 0.61895 0.0
C651 C 0.86608 0.38281 0.633 0.0
N652 N 0.85452 0.42008 0.66726 0.0
C653 C 0.8615 0.39698 0.67164 0.0
C654 C 0.8681 0.39404 0.69245 0.0
C655 C 0.86501 0.41671 0.70168 0.0
C656 C 0.85666 0.43231 0.68595 0.0
N657 N 0.81305 0.41341 0.64107 0.0
C658 C 0.77183 0.38137 0.64416 0.0
C659 C 0.78059 0.3945 0.6618 0.0
C660 C 0.8009 0.41056 0.65988 0.0
C661 C 0.78397 0.38527 0.62491 0.0
C662 C 0.80437 0.40101 0.62373 0.0
N663 N 0.87597 0.45027 0.63701 0.0
C664 C 0.92033 0.44898 0.63936 0.0
C665 C 0.92222 0.47394 0.63449 0.0
C666 C 0.90025 0.48699 0.63111 0.0
C667 C 0.87734 0.47476 0.63217 0.0
C668 C 0.89731 0.4377 0.6408 0.0
H669 H 0.86078 0.48505 0.6291 0.0
H670 H 0.89695 0.41863 0.64509 0.0
H671 H 0.8071 0.42026 0.67377 0.0
H672 H 0.81352 0.40248 0.60873 0.0
C673 C 0.80557 0.47451 0.6249 0.0
C674 C 0.84989 0.45829 0.6893 0.0
C675 C 0.85777 0.41837 0.58593 0.0
C676 C 0.86602 0.38035 0.65512 0.0
H677 H 0.81742 0.50008 0.69242 0.0
H678 H 0.79123 0.50778 0.65766 0.0
H679 H 0.79723 0.4781 0.58046 0.0
H680 H 0.82662 0.44853 0.55928 0.0
H681 H 0.88327 0.3713 0.58514 0.0
H682 H 0.88486 0.34916 0.62235 0.0
H683 H 0.87543 0.37769 0.69984 0.0
H684 H 0.86862 0.42128 0.71802 0.0
H685 H 0.77178 0.39244 0.67703 0.0
H686 H 0.7783 0.37551 0.61082 0.0
H687 H 0.93666 0.43819 0.6424 0.0
H688 H 0.90078 0.50636 0.62729 0.0
C689 C 0.54719 0.83121 0.16563 0.0
C690 C 0.52334 0.82205 0.16499 0.0
C691 C 0.52083 0.80971 0.14633 0.0
C692 C 0.54266 0.81296 0.13602 0.0
N693 N 0.55873 0.82686 0.14693 0.0
Co694 Co 0.5889 0.84225 0.13516 0.0
N695 N 0.57864 0.83537 0.10563 0.0
C696 C 0.56222 0.81819 0.0998 0.0
C697 C 0.56029 0.81545 0.07836 0.0
C698 C 0.57663 0.83187 0.07009 0.0
C699 C 0.58742 0.84406 0.08705 0.0
N700 N 0.61875 0.85805 0.12326 0.0
C701 C 0.62343 0.86629 0.10334 0.0
C702 C 0.64647 0.87714 0.10241 0.0
C703 C 0.6567 0.87484 0.12216 0.0
C704 C 0.63934 0.86303 0.13418 0.0
N705 N 0.59896 0.84847 0.16487 0.0
C706 C 0.62214 0.85303 0.17109 0.0
C707 C 0.62436 0.85468 0.19263 0.0
C708 C 0.60113 0.85085 0.20043 0.0
C709 C 0.58575 0.84745 0.18316 0.0
N710 N 0.60686 0.81026 0.13584 0.0
C711 C 0.63903 0.76905 0.13823 0.0
C712 C 0.62376 0.77566 0.15528 0.0
C713 C 0.60761 0.79594 0.15366 0.0
C714 C 0.637 0.78316 0.11978 0.0
C715 C 0.62117 0.80353 0.11897 0.0
N716 N 0.57216 0.87458 0.13446 0.0
C717 C 0.57284 0.91779 0.14344 0.0
C718 C 0.55059 0.92217 0.13284 0.0
C719 C 0.53923 0.90162 0.12332 0.0
C720 C 0.55014 0.87811 0.12447 0.0
C721 C 0.58334 0.89433 0.14375 0.0
H722 H 0.54089 0.86284 0.11704 0.0
H723 H 0.60078 0.89235 0.15153 0.0
H724 H 0.59628 0.80046 0.16709 0.0
H725 H 0.62132 0.81435 0.10475 0.0
C726 C 0.54612 0.80831 0.11458 0.0
C727 C 0.55909 0.84178 0.18473 0.0
C728 C 0.6072 0.86228 0.08487 0.0
C729 C 0.64015 0.85939 0.15615 0.0
H730 H 0.50882 0.82429 0.17643 0.0
H731 H 0.50432 0.80111 0.14031 0.0
H732 H 0.54796 0.8035 0.06974 0.0
H733 H 0.58034 0.83422 0.05343 0.0
H734 H 0.6551 0.88573 0.08893 0.0
H735 H 0.67438 0.88171 0.12729 0.0
H736 H 0.64075 0.85884 0.20162 0.0
H737 H 0.59627 0.85042 0.21698 0.0
H738 H 0.6243 0.76524 0.16983 0.0
H739 H 0.64835 0.7791 0.10618 0.0
H740 H 0.58235 0.93234 0.15172 0.0
H741 H 0.5222 0.90358 0.1147 0.0
C742 C 0.18426 0.5536 0.67444 0.0
C743 C 0.19975 0.53406 0.67895 0.0
C744 C 0.21398 0.53046 0.66136 0.0
C745 C 0.20643 0.54796 0.64717 0.0
N746 N 0.18836 0.5623 0.6547 0.0
Co747 Co 0.17245 0.58978 0.63932 0.0
N748 N 0.18308 0.57664 0.61154 0.0
C749 C 0.20178 0.5608 0.60863 0.0
C750 C 0.20687 0.55647 0.58778 0.0
C751 C 0.19053 0.57063 0.57681 0.0
C752 C 0.17607 0.58275 0.59166 0.0
N753 N 0.15678 0.61736 0.62382 0.0
C754 C 0.15098 0.61963 0.60297 0.0
C755 C 0.13921 0.64185 0.59936 0.0
C756 C 0.13854 0.65409 0.61834 0.0
C757 C 0.14957 0.63868 0.63263 0.0
N758 N 0.16207 0.60236 0.66738 0.0
C759 C 0.15467 0.62539 0.67148 0.0
C760 C 0.14795 0.62851 0.69226 0.0
C761 C 0.1514 0.60601 0.70172 0.0
C762 C 0.16006 0.59033 0.68617 0.0
N763 N 0.20324 0.60961 0.64104 0.0
C764 C 0.24345 0.64315 0.64375 0.0
C765 C 0.23575 0.62917 0.66132 0.0
C766 C 0.21583 0.61256 0.65963 0.0
C767 C 0.23071 0.6392 0.62474 0.0
C768 C 0.21102 0.62256 0.62371 0.0
N769 N 0.14125 0.57111 0.63757 0.0
C770 C 0.09687 0.57161 0.63984 0.0
C771 C 0.09545 0.54664 0.63493 0.0
C772 C 0.11765 0.53395 0.63162 0.0
C773 C 0.14034 0.54659 0.63276 0.0
C774 C 0.11967 0.58328 0.64135 0.0
H775 H 0.15711 0.53661 0.62972 0.0
H776 H 0.11966 0.60237 0.64561 0.0
H777 H 0.21028 0.60248 0.67352 0.0
H778 H 0.2016 0.62087 0.60884 0.0
C779 C 0.21245 0.54857 0.62574 0.0
C780 C 0.16719 0.56447 0.68972 0.0
C781 C 0.15802 0.60194 0.58621 0.0
C782 C 0.14973 0.64162 0.65474 0.0
H783 H 0.20073 0.52357 0.69344 0.0
H784 H 0.22744 0.51613 0.65891 0.0
H785 H 0.22071 0.54438 0.58129 0.0
H786 H 0.19006 0.57239 0.5598 0.0
H787 H 0.13185 0.64862 0.58462 0.0
H788 H 0.1301 0.6717 0.62147 0.0
H789 H 0.14026 0.64481 0.69945 0.0
H790 H 0.14777 0.60161 0.71809 0.0
H791 H 0.245 0.63101 0.67636 0.0
H792 H 0.23531 0.64952 0.61068 0.0
H793 H 0.08034 0.58211 0.64281 0.0
H794 H 0.11746 0.51458 0.62779 0.0
C795 C 0.47296 0.18631 0.1743 0.0
C796 C 0.49338 0.20083 0.17831 0.0
C797 C 0.49807 0.21361 0.16013 0.0
C798 C 0.48031 0.20623 0.14611 0.0
N799 N 0.46467 0.18966 0.1543 0.0
Co800 Co 0.43661 0.17409 0.13928 0.0
N801 N 0.45014 0.18302 0.11113 0.0
C802 C 0.4684 0.19923 0.1076 0.0
C803 C 0.47559 0.20017 0.08689 0.0
C804 C 0.46068 0.18389 0.07662 0.0
C805 C 0.44464 0.1743 0.09161 0.0
N806 N 0.40854 0.15853 0.12425 0.0
C807 C 0.40534 0.15326 0.10337 0.0
C808 C 0.38196 0.14396 0.09983 0.0
C809 C 0.37021 0.14358 0.11902 0.0
C810 C 0.38691 0.15272 0.13325 0.0
N811 N 0.42357 0.16539 0.16766 0.0
C812 C 0.40024 0.15906 0.17192 0.0
C813 C 0.3967 0.1536 0.19291 0.0
C814 C 0.41924 0.15677 0.20238 0.0
C815 C 0.43533 0.16397 0.18661 0.0
N816 N 0.41775 0.20553 0.14011 0.0
C817 C 0.38405 0.24553 0.14243 0.0
C818 C 0.39875 0.23883 0.15983 0.0
C819 C 0.41532 0.21887 0.15838 0.0
C820 C 0.38774 0.23237 0.12361 0.0
C821 C 0.40464 0.21286 0.12273 0.0
N822 N 0.45435 0.14231 0.13841 0.0
C823 C 0.45385 0.09838 0.14437 0.0
C824 C 0.47767 0.09588 0.13637 0.0
C825 C 0.48967 0.11728 0.12945 0.0
C826 C 0.47786 0.14032 0.13089 0.0
C827 C 0.44251 0.12145 0.14498 0.0
H828 H 0.48769 0.15645 0.12578 0.0
H829 H 0.42392 0.12227 0.15067 0.0
H830 H 0.42559 0.21376 0.17228 0.0
H831 H 0.40639 0.2032 0.10797 0.0
C832 C 0.48094 0.2102 0.12437 0.0
C833 C 0.46131 0.17048 0.19013 0.0
C834 C 0.42281 0.15944 0.08628 0.0
C835 C 0.3839 0.15399 0.1553 0.0
H836 H 0.50391 0.20192 0.19279 0.0
H837 H 0.51342 0.22576 0.15716 0.0
H838 H 0.49053 0.2107 0.08018 0.0
H839 H 0.46143 0.17987 0.05991 0.0
H840 H 0.37396 0.13862 0.08488 0.0
H841 H 0.35175 0.13722 0.1222 0.0
H842 H 0.38005 0.14698 0.2003 0.0
H843 H 0.42339 0.15399 0.21892 0.0
H844 H 0.39684 0.24834 0.17476 0.0
H845 H 0.37748 0.237 0.10952 0.0
H846 H 0.44376 0.08241 0.14974 0.0
H847 H 0.50817 0.11628 0.12324 0.0
C848 C 0.06832 0.50343 0.12292 0.0
C849 C 0.0745 0.48463 0.13723 0.0
C850 C 0.04438 0.51363 0.12228 0.0
C851 C 0.02578 0.50476 0.13604 0.0
C852 C 0.03193 0.48598 0.15059 0.0
C853 C 0.05603 0.47648 0.15119 0.0
C854 C 0.03897 0.53394 0.10677 0.0
C855 C 0.01293 0.47572 0.16555 0.0
C856 C 0.96947 0.5442 0.14957 0.0
C857 C 0.95107 0.53487 0.13608 0.0
C858 C 0.99372 0.53502 0.14935 0.0
C859 C 1.00009 0.5154 0.13569 0.0
C860 C 0.98163 0.50549 0.12232 0.0
C861 C 0.95756 0.51538 0.12255 0.0
C862 C 0.01258 0.5464 0.16383 0.0
C863 C 0.98728 0.48431 0.10776 0.0
H864 H 0.08205 0.50994 0.1119 0.0
H865 H 0.06035 0.46258 0.16283 0.0
H866 H 0.02433 0.52804 0.0957 0.0
H867 H 0.03206 0.55034 0.1153 0.0
H868 H 0.05541 0.53928 0.09747 0.0
H869 H 0.02025 0.46047 0.17534 0.0
H870 H 1.00622 0.4904 0.17622 0.0
H871 H 0.99687 0.46885 0.15651 0.0
H872 H 0.96496 0.5587 0.1606 0.0
H873 H 0.94393 0.50798 0.11184 0.0
H874 H 0.02875 0.55254 0.15457 0.0
H875 H 0.01916 0.53256 0.17536 0.0
H876 H 1.00518 0.56237 0.17269 0.0
H877 H 1.00213 0.48953 0.09664 0.0
H878 H 0.971 0.47842 0.09849 0.0
H879 H 0.99402 0.46842 0.11707 0.0
C880 C 0.50001 0.95943 0.61885 0.0
C881 C 0.48347 0.95118 0.6343 0.0
C882 C 0.50904 0.98377 0.619 0.0
C883 C 0.50087 1.00063 0.63461 0.0
C884 C 0.48359 0.99252 0.64985 0.0
C885 C 0.4754 0.96794 0.64968 0.0
C886 C 0.52788 0.99126 0.60276 0.0
C887 C 0.47378 1.00981 0.66647 0.0
C888 C 0.54122 0.05549 0.64988 0.0
C889 C 0.5314 0.07489 0.63779 0.0
C890 C 0.53178 0.03142 0.64868 0.0
C891 C 0.51124 0.02632 0.63567 0.0
C892 C 0.50061 0.04583 0.62396 0.0
C893 C 0.51093 0.06966 0.62494 0.0
C894 C 0.54402 0.01133 0.6613 0.0
C895 C 0.47832 0.0415 0.61031 0.0
H896 H 0.50642 0.94661 0.60697 0.0
H897 H 0.46239 0.96183 0.66152 0.0
H898 H 0.52123 1.00736 0.5937 0.0
H899 H 0.54511 0.99686 0.6108 0.0
H900 H 0.53214 0.9762 0.5915 0.0
H901 H 0.45916 1.00124 0.67622 0.0
H902 H 0.48889 0.01572 0.67706 0.0
H903 H 0.46626 0.02657 0.6589 0.0
H904 H 0.55642 0.05899 0.66047 0.0
H905 H 0.50309 0.08408 0.61531 0.0
H906 H 0.54952 0.99608 0.65067 0.0
H907 H 0.53093 1.00368 0.67298 0.0
H908 H 0.56056 0.01794 0.66985 0.0
H909 H 0.48282 0.0283 0.59755 0.0
H910 H 0.47142 0.05871 0.60301 0.0
H911 H 0.46337 0.03323 0.61986 0.0
C912 C 0.05969 0.54428 0.36306 0.0
C913 C 0.07901 0.53408 0.37502 0.0
C914 C 0.03558 0.53489 0.36396 0.0
C915 C 0.03036 0.51398 0.37647 0.0
C916 C 0.04979 0.50295 0.38799 0.0
C917 C 0.07365 0.51325 0.38738 0.0
C918 C 0.01556 0.54762 0.35161 0.0
C919 C 0.04536 0.48023 0.40109 0.0
C920 C 0.96359 0.50247 0.39346 0.0
C921 C 0.95512 0.48638 0.37773 0.0
C922 C 0.98792 0.51152 0.39328 0.0
C923 C 1.00458 0.50378 0.37736 0.0
C924 C 0.99623 0.48701 0.36177 0.0
C925 C 0.97162 0.47884 0.36197 0.0
C926 C 0.99563 0.52986 0.40988 0.0
C927 C 0.01333 0.47763 0.34483 0.0
H928 H 0.06327 0.55975 0.3528 0.0
H929 H 0.08797 0.50509 0.39692 0.0
H930 H 1.00782 0.53493 0.33963 0.0
H931 H 1.00035 0.5529 0.36235 0.0
H932 H 0.02227 0.56436 0.34343 0.0
H933 H 0.06256 0.47291 0.40809 0.0
H934 H 0.03233 0.48444 0.41405 0.0
H935 H 0.03683 0.4657 0.39122 0.0
H936 H 0.95095 0.50847 0.40564 0.0
H937 H 0.96534 0.46618 0.3499 0.0
H938 H 1.00149 0.5472 0.40218 0.0
H939 H 0.01161 0.52276 0.41885 0.0
H940 H 0.98061 0.53404 0.42119 0.0
H941 H 0.01934 0.49303 0.33462 0.0
H942 H 1.00455 0.46344 0.33473 0.0
H943 H 0.03004 0.46967 0.35214 0.0
C944 C 0.54507 0.97118 0.86276 0.0
C945 C 0.53624 0.95263 0.87633 0.0
C946 C 0.53562 0.9953 0.86324 0.0
C947 C 0.5162 1.00133 0.87719 0.0
C948 C 0.5068 0.98272 0.89065 0.0
C949 C 0.51699 0.95881 0.8902 0.0
C950 C 0.5465 0.01439 0.8487 0.0
C951 C 0.48579 0.98803 0.90549 0.0
C952 C 0.50326 0.06918 0.89045 0.0
C953 C 0.48417 0.0751 0.87635 0.0
C954 C 0.51393 0.04546 0.89084 0.0
C955 C 0.50517 0.02681 0.87705 0.0
C956 C 0.48609 0.03269 0.86272 0.0
C957 C 0.47619 0.05661 0.86232 0.0
C958 C 0.53459 0.04032 0.90607 0.0
C959 C 0.47592 0.01359 0.84779 0.0
H960 H 0.55936 0.9669 0.85147 0.0
H961 H 0.51001 0.94507 0.90099 0.0
H962 H 0.53241 0.02073 0.8373 0.0
H963 H 0.55246 0.03066 0.85794 0.0
H964 H 0.56249 1.00728 0.8397 0.0
H965 H 0.4803 0.97163 0.91479 0.0
H966 H 0.491 1.0029 0.9166 0.0
H967 H 0.46965 0.99457 0.8964 0.0
H968 H 0.50966 0.08293 0.90151 0.0
H969 H 0.46209 0.06077 0.85082 0.0
H970 H 0.55093 0.03364 0.89733 0.0
H971 H 0.52909 0.02559 0.91721 0.0
H972 H 0.53987 0.05683 0.91533 0.0
H973 H 0.49053 1.0072 0.83691 0.0
H974 H 0.46037 0.02068 0.83822 0.0
H975 H 0.4695 0.99736 0.85683 0.0
C976 C 0.95203 0.51579 0.86419 0.0
C977 C 0.94574 0.53564 0.87725 0.0
C978 C 0.97612 0.50608 0.86406 0.0
C979 C 0.99435 0.51602 0.87769 0.0
C980 C 0.98778 0.5356 0.89134 0.0
C981 C 0.96378 0.54534 0.89074 0.0
C982 C 0.98225 0.48559 0.84892 0.0
C983 C 1.00618 0.54643 0.90655 0.0
C984 C 0.05078 0.47641 0.8902 0.0
C985 C 0.06913 0.48705 0.87755 0.0
C986 C 0.02663 0.48579 0.89061 0.0
C987 C 0.02024 0.50605 0.87765 0.0
C988 C 0.03872 0.51686 0.86482 0.0
C989 C 0.06292 0.50745 0.86512 0.0
C990 C 1.00793 0.47401 0.90498 0.0
C991 C 0.0328 0.53813 0.85043 0.0
H992 H 0.9383 0.50842 0.85353 0.0
H993 H 0.95906 0.56069 0.90086 0.0
H994 H 0.99722 0.4915 0.83818 0.0
H995 H 0.98901 0.46936 0.85775 0.0
H996 H 0.96618 0.47996 0.83925 0.0
H997 H 0.99793 0.56073 0.91686 0.0
H998 H 0.01399 0.53176 0.91667 0.0
H999 H 0.02163 0.55476 0.89767 0.0
H1000 H 0.05541 0.46072 0.89995 0.0
H1001 H 0.07686 0.51562 0.85512 0.0
H1002 H 0.99256 0.46644 0.89551 0.0
H1003 H 1.00006 0.48799 0.91579 0.0
H1004 H 0.01593 0.45896 0.9146 0.0
H1005 H 0.01788 0.53286 0.83938 0.0
H1006 H 0.04897 0.54416 0.84109 0.0
H1007 H 0.02606 0.55392 0.85985 0.0
C1008 C 0.51407 0.06879 0.36494 0.0
C1009 C 0.53237 0.07547 0.37946 0.0
C1010 C 0.50404 0.04479 0.3647 0.0
C1011 C 0.51198 0.02705 0.37968 0.0
C1012 C 0.52993 0.03406 0.39479 0.0
C1013 C 0.54011 0.05792 0.39429 0.0
C1014 C 0.48545 0.0382 0.34796 0.0
C1015 C 0.5386 0.01625 0.41145 0.0
C1016 C 0.47087 0.97083 0.39004 0.0
C1017 C 0.48323 0.95197 0.37925 0.0
C1018 C 0.48007 0.99511 0.3905 0.0
C1019 C 0.5019 1.00112 0.37939 0.0
C1020 C 0.51429 0.98216 0.36824 0.0
C1021 C 0.50505 0.95787 0.36856 0.0
C1022 C 0.46654 0.01432 0.40313 0.0
C1023 C 0.53725 0.98758 0.35574 0.0
H1024 H 0.50825 0.0821 0.35325 0.0
H1025 H 0.55429 0.0629 0.40552 0.0
H1026 H 0.49258 0.02289 0.33816 0.0
H1027 H 0.46821 0.03173 0.35544 0.0
H1028 H 0.48111 0.05395 0.33747 0.0
H1029 H 0.55142 0.02491 0.42288 0.0
H1030 H 0.52265 1.00875 0.42025 0.0
H1031 H 0.54806 1.00053 0.40386 0.0
H1032 H 0.4541 0.96648 0.39847 0.0
H1033 H 0.51462 0.94354 0.36 0.0
H1034 H 0.46047 0.02942 0.39262 0.0
H1035 H 0.47901 0.02245 0.4151 0.0
H1036 H 0.45019 1.00668 0.41132 0.0
H1037 H 0.53353 1.0023 0.34406 0.0
H1038 H 0.5442 0.97116 0.34723 0.0
H1039 H 0.55189 0.99438 0.36642 0.0
C1040 C 0.95332 0.5061 0.64558 0.0
C1041 C 0.94715 0.4857 0.63309 0.0
C1042 C 0.97751 0.51566 0.64584 0.0
C1043 C 0.996 0.50503 0.63289 0.0
C1044 C 0.98959 0.48485 0.61982 0.0
C1045 C 0.96548 0.47529 0.6203 0.0
C1046 C 0.98341 0.53682 0.66036 0.0
C1047 C 1.00826 0.47325 0.6053 0.0
C1048 C 0.0526 0.54439 0.61997 0.0
C1049 C 0.07071 0.53454 0.63332 0.0
C1050 C 0.02854 0.53472 0.61939 0.0
C1051 C 0.02194 0.51502 0.63291 0.0
C1052 C 0.04023 0.50494 0.64639 0.0
C1053 C 0.06438 0.51459 0.64624 0.0
C1054 C 1.01011 0.54573 0.60432 0.0
C1055 C 0.0341 0.48432 0.66139 0.0
H1056 H 0.93941 0.51406 0.65573 0.0
H1057 H 0.9609 0.45956 0.61056 0.0
H1058 H 0.99826 0.53143 0.67144 0.0
H1059 H 0.99027 0.55265 0.65107 0.0
H1060 H 0.96721 0.54283 0.66968 0.0
H1061 H 1.0002 0.4584 0.59547 0.0
H1062 H 0.01623 0.48738 0.59471 0.0
H1063 H 0.02357 0.46545 0.6147 0.0
H1064 H 0.05731 0.55981 0.60994 0.0
H1065 H 0.07812 0.50709 0.65681 0.0
H1066 H 0.99469 0.55395 0.61331 0.0
H1067 H 1.00226 0.53117 0.59407 0.0
H1068 H 0.01836 0.56014 0.59413 0.0
H1069 H 0.01914 0.49014 0.67219 0.0
H1070 H 0.05018 0.47863 0.67102 0.0
H1071 H 0.02733 0.46816 0.65246 0.0
C1072 C 0.49126 0.05631 0.15347 0.0
C1073 C 0.48946 0.07098 0.13529 0.0
C1074 C 0.50125 0.03239 0.15267 0.0
C1075 C 0.50903 0.02233 0.13309 0.0
C1076 C 0.50704 0.03705 0.11464 0.0
C1077 C 0.49765 0.06122 0.11601 0.0
C1078 C 0.5036 0.01791 0.17289 0.0
C1079 C 0.51441 0.02707 0.09333 0.0
C1080 C 0.55494 0.96883 0.13322 0.0
C1081 C 0.53974 0.94789 0.13191 0.0
C1082 C 0.54526 0.99287 0.13373 0.0
C1083 C 0.51959 0.99665 0.13207 0.0
C1084 C 0.50412 0.97581 0.12992 0.0
C1085 C 0.51424 0.95186 0.13016 0.0
C1086 C 0.56259 0.01429 0.13643 0.0
C1087 C 0.47671 0.97879 0.12756 0.0
H1088 H 0.48501 0.0637 0.16843 0.0
H1089 H 0.49603 0.07228 0.10185 0.0
H1090 H 0.49244 1.00092 0.17188 0.0
H1091 H 0.52298 0.01226 0.17525 0.0
H1092 H 0.49753 0.02856 0.18691 0.0
H1093 H 0.51113 0.04046 0.08041 0.0
H1094 H 0.53415 0.0221 0.09339 0.0
H1095 H 0.50392 1.01006 0.0899 0.0
H1096 H 0.57467 0.96663 0.13383 0.0
H1097 H 0.50196 0.93626 0.12933 0.0
H1098 H 0.55741 0.02502 0.15065 0.0
H1099 H 0.56119 0.0268 0.12267 0.0
H1100 H 0.58201 1.00837 0.13808 0.0
H1101 H 0.46892 0.9868 0.1422 0.0
H1102 H 0.46733 0.96106 0.12436 0.0
H1103 H 0.47257 0.9917 0.11448 0.0
C1104 C 0.15739 0.52888 0.3022 0.0
C1105 C 0.17351 0.549 0.30257 0.0
C1106 C 0.1552 0.51368 0.28418 0.0
C1107 C 0.16986 0.51826 0.26606 0.0
C1108 C 0.18586 0.53889 0.26627 0.0
C1109 C 0.18747 0.55395 0.28444 0.0
C1110 C 0.13769 0.49222 0.2848 0.0
C1111 C 0.20206 0.54452 0.24756 0.0
C1112 C 0.18544 0.46525 0.22812 0.0
C1113 C 0.1702 0.4701 0.21075 0.0
C1114 C 0.18517 0.48041 0.24627 0.0
C1115 C 0.16922 0.50103 0.24726 0.0
C1116 C 0.15328 0.50552 0.22993 0.0
C1117 C 0.15417 0.49022 0.21188 0.0
C1118 C 0.20269 0.47488 0.26411 0.0
C1119 C 0.13574 0.52694 0.23019 0.0
H1120 H 0.14694 0.52465 0.31631 0.0
H1121 H 0.20044 0.56905 0.28481 0.0
H1122 H 0.12538 0.49263 0.27084 0.0
H1123 H 0.14818 0.47478 0.2841 0.0
H1124 H 0.12627 0.49215 0.29934 0.0
H1125 H 0.21273 0.56171 0.24976 0.0
H1126 H 0.21509 0.52915 0.24498 0.0
H1127 H 0.19079 0.54625 0.23304 0.0
H1128 H 0.19832 0.45013 0.22713 0.0
H1129 H 0.14272 0.49437 0.19833 0.0
H1130 H 0.19249 0.47307 0.27918 0.0
H1131 H 0.2158 0.49033 0.26601 0.0
H1132 H 0.21329 0.45776 0.26135 0.0
H1133 H 0.12441 0.5265 0.24474 0.0
H1134 H 0.12335 0.52698 0.21625 0.0
H1135 H 0.14624 0.5444 0.23036 0.0
C1136 C 0.52659 0.15369 0.71289 0.0
C1137 C 0.54714 0.16922 0.71224 0.0
C1138 C 0.51152 0.15217 0.73102 0.0
C1139 C 0.51674 0.16691 0.74897 0.0
C1140 C 0.53786 0.18224 0.74851 0.0
C1141 C 0.55274 0.18321 0.73022 0.0
C1142 C 0.48949 0.13538 0.73066 0.0
C1143 C 0.54417 0.19847 0.76706 0.0
C1144 C 0.46435 0.18478 0.78668 0.0
C1145 C 0.46866 0.16956 0.80416 0.0
C1146 C 0.47954 0.18382 0.76859 0.0
C1147 C 0.49959 0.16716 0.76778 0.0
C1148 C 0.50355 0.1513 0.78525 0.0
C1149 C 0.48825 0.15289 0.80325 0.0
C1150 C 0.47461 0.20129 0.75059 0.0
C1151 C 0.52437 0.13305 0.78517 0.0
H1152 H 0.52186 0.14325 0.69888 0.0
H1153 H 0.56819 0.19575 0.72963 0.0
H1154 H 0.48954 0.12332 0.74478 0.0
H1155 H 0.47242 0.14646 0.73125 0.0
H1156 H 0.48899 0.12371 0.71628 0.0
H1157 H 0.56178 0.20841 0.76473 0.0
H1158 H 0.52935 0.21215 0.7695 0.0
H1159 H 0.54549 0.18737 0.78169 0.0
H1160 H 0.4496 0.1981 0.78751 0.0
H1161 H 0.49194 0.14142 0.81688 0.0
H1162 H 0.47231 0.19093 0.73563 0.0
H1163 H 0.49056 0.21374 0.7485 0.0
H1164 H 0.45794 0.2126 0.75329 0.0
H1165 H 0.52344 0.12145 0.77078 0.0
H1166 H 0.52409 0.12094 0.79929 0.0
H1167 H 0.54217 0.14295 0.78477 0.0
C1168 C 0.84131 0.5544 0.22637 0.0
C1169 C 0.85326 0.54729 0.2077 0.0
C1170 C 0.84163 0.53933 0.24455 0.0
C1171 C 0.85378 0.51625 0.24408 0.0
C1172 C 0.86635 0.50931 0.22538 0.0
C1173 C 0.86594 0.52484 0.20753 0.0
C1174 C 0.82813 0.54772 0.26407 0.0
C1175 C 0.87941 0.48494 0.2239 0.0
C1176 C 0.86867 0.48431 0.29665 0.0
C1177 C 0.84891 0.46796 0.29895 0.0
C1178 C 0.87068 0.49982 0.27886 0.0
C1179 C 0.85253 0.49903 0.26278 0.0
C1180 C 0.83288 0.48201 0.26481 0.0
C1181 C 0.83124 0.46684 0.28288 0.0
C1182 C 0.89187 0.5176 0.27758 0.0
C1183 C 0.8132 0.48024 0.24811 0.0
H1184 H 0.83079 0.57128 0.22646 0.0
H1185 H 0.87475 0.51897 0.19303 0.0
H1186 H 0.81234 0.53535 0.26711 0.0
H1187 H 0.84038 0.54672 0.27805 0.0
H1188 H 0.82118 0.5668 0.26254 0.0
H1189 H 0.8895 0.4828 0.20876 0.0
H1190 H 0.8926 0.48291 0.23713 0.0
H1191 H 0.86586 0.4698 0.22527 0.0
H1192 H 0.88222 0.4855 0.30913 0.0
H1193 H 0.81577 0.4545 0.28473 0.0
H1194 H 0.88481 0.53671 0.27766 0.0
H1195 H 0.90201 0.51499 0.26256 0.0
H1196 H 0.90492 0.51541 0.29094 0.0
H1197 H 0.80308 0.49787 0.24712 0.0
H1198 H 0.79984 0.46531 0.25142 0.0
H1199 H 0.82164 0.4769 0.23242 0.0
C1200 C 0.52518 0.86733 0.80417 0.0
C1201 C 0.54708 0.85375 0.8042 0.0
C1202 C 0.50927 0.86731 0.78655 0.0
C1203 C 0.51518 0.8532 0.76841 0.0
C1204 C 0.53766 0.83997 0.76817 0.0
C1205 C 0.55322 0.84029 0.78605 0.0
C1206 C 0.48563 0.88169 0.7877 0.0
C1207 C 0.54488 0.82472 0.74927 0.0
C1208 C 0.46382 0.83088 0.73136 0.0
C1209 C 0.46565 0.84732 0.71441 0.0
C1210 C 0.47941 0.83287 0.74915 0.0
C1211 C 0.49755 0.85163 0.75001 0.0
C1212 C 0.49907 0.86855 0.73303 0.0
C1213 C 0.48317 0.8662 0.71552 0.0
C1214 C 0.47688 0.81449 0.76683 0.0
C1215 C 0.51801 0.88878 0.73305 0.0
H1216 H 0.52007 0.87731 0.81832 0.0
H1217 H 0.5697 0.82915 0.78619 0.0
H1218 H 0.48402 0.89408 0.77387 0.0
H1219 H 0.46979 0.86889 0.78717 0.0
H1220 H 0.48433 0.89285 0.80235 0.0
H1221 H 0.56354 0.81671 0.75096 0.0
H1222 H 0.53152 0.80954 0.74711 0.0
H1223 H 0.54439 0.83607 0.73473 0.0
H1224 H 0.45057 0.81606 0.73044 0.0
H1225 H 0.48493 0.87878 0.70238 0.0
H1226 H 0.47422 0.82415 0.78209 0.0
H1227 H 0.49399 0.80356 0.76819 0.0
H1228 H 0.46124 0.80172 0.76431 0.0
H1229 H 0.51625 0.90002 0.74759 0.0
H1230 H 0.51627 0.90103 0.7191 0.0
H1231 H 0.5367 0.88068 0.73309 0.0
C1232 C 0.83804 0.55539 0.78345 0.0
C1233 C 0.85309 0.55123 0.80107 0.0
C1234 C 0.83921 0.54008 0.76543 0.0
C1235 C 0.85592 0.52006 0.76484 0.0
C1236 C 0.87165 0.51628 0.78244 0.0
C1237 C 0.86985 0.53169 0.80035 0.0
C1238 C 0.82187 0.54482 0.7473 0.0
C1239 C 0.88996 0.49551 0.78259 0.0
C1240 C 0.84022 0.46632 0.72776 0.0
C1241 C 0.85431 0.47165 0.70979 0.0
C1242 C 0.84099 0.48152 0.74587 0.0
C1243 C 0.85628 0.50268 0.74616 0.0
C1244 C 0.87109 0.50766 0.72821 0.0
C1245 C 0.86973 0.49229 0.71024 0.0
C1246 C 0.82467 0.47545 0.7644 0.0
C1247 C 0.88785 0.52971 0.72771 0.0
H1248 H 0.82467 0.5701 0.78412 0.0
H1249 H 0.88119 0.52812 0.81409 0.0
H1250 H 0.83232 0.54694 0.73238 0.0
H1251 H 0.80941 0.52886 0.74526 0.0
H1252 H 0.81056 0.56154 0.7498 0.0
H1253 H 0.90204 0.49603 0.79672 0.0
H1254 H 0.8801 0.47768 0.78235 0.0
H1255 H 0.90158 0.49626 0.76821 0.0
H1256 H 0.82779 0.45077 0.7273 0.0
H1257 H 0.88027 0.49679 0.69625 0.0
H1258 H 0.81106 0.49037 0.76671 0.0
H1259 H 0.83572 0.47422 0.77907 0.0
H1260 H 0.81465 0.45788 0.76216 0.0
H1261 H 0.87675 0.54677 0.72812 0.0
H1262 H 0.89957 0.53004 0.71335 0.0
H1263 H 0.89987 0.52985 0.74186 0.0
C1264 C 0.49123 0.82432 0.2981 0.0
C1265 C 0.47689 0.84444 0.30449 0.0
C1266 C 0.5063 0.82527 0.28006 0.0
C1267 C 0.50366 0.84477 0.26527 0.0
C1268 C 0.48666 0.86384 0.27034 0.0
C1269 C 0.47477 0.86414 0.29028 0.0
C1270 C 0.52545 0.80538 0.27775 0.0
C1271 C 0.48049 0.88414 0.25504 0.0
C1272 C 0.54769 0.8626 0.21966 0.0
C1273 C 0.54575 0.84241 0.20591 0.0
C1274 C 0.53532 0.86316 0.23937 0.0
C1275 C 0.51794 0.84448 0.24459 0.0
C1276 C 0.51522 0.82462 0.23015 0.0
C1277 C 0.53074 0.82282 0.21242 0.0
C1278 C 0.54152 0.88382 0.25432 0.0
C1279 C 0.49572 0.8051 0.23262 0.0
H1280 H 0.49194 0.80806 0.30793 0.0
H1281 H 0.4635 0.87976 0.29455 0.0
H1282 H 0.51637 0.78791 0.27324 0.0
H1283 H 0.53995 0.80989 0.2661 0.0
H1284 H 0.5345 0.80203 0.29321 0.0
H1285 H 0.48983 0.90127 0.26011 0.0
H1286 H 0.48582 0.87982 0.23855 0.0
H1287 H 0.46045 0.88792 0.25537 0.0
H1288 H 0.55943 0.87786 0.2153 0.0
H1289 H 0.53026 0.80608 0.20322 0.0
H1290 H 0.53615 0.87991 0.27087 0.0
H1291 H 0.53223 0.90082 0.24894 0.0
H1292 H 0.56157 0.88757 0.25397 0.0
H1293 H 0.50446 0.78755 0.23734 0.0
H1294 H 0.4867 0.80167 0.21715 0.0
H1295 H 0.48125 0.81004 0.24417 0.0
C1296 C 0.14568 0.4913 0.80058 0.0
C1297 C 0.16292 0.47222 0.80187 0.0
C1298 C 0.14396 0.50636 0.78245 0.0
C1299 C 0.16026 0.50273 0.76522 0.0
C1300 C 0.17737 0.48308 0.76633 0.0
C1301 C 0.17846 0.4681 0.78456 0.0
C1302 C 0.12522 0.52673 0.78206 0.0
C1303 C 0.19531 0.4785 0.74861 0.0
C1304 C 0.14754 0.53006 0.71027 0.0
C1305 C 0.16252 0.55104 0.71012 0.0
C1306 C 0.14599 0.51469 0.72821 0.0
C1307 C 0.16017 0.52001 0.74648 0.0
C1308 C 0.17502 0.54148 0.74648 0.0
C1309 C 0.17599 0.55668 0.72838 0.0
C1310 C 0.1297 0.4923 0.72737 0.0
C1311 C 0.19067 0.54792 0.76535 0.0
H1312 H 0.134 0.49492 0.81409 0.0
H1313 H 0.19225 0.45382 0.78569 0.0
H1314 H 0.1347 0.54476 0.78212 0.0
H1315 H 0.11418 0.52575 0.76735 0.0
H1316 H 0.1126 0.52597 0.79583 0.0
H1317 H 0.20671 0.4619 0.75138 0.0
H1318 H 0.18537 0.47627 0.73344 0.0
H1319 H 0.20766 0.49459 0.74689 0.0
H1320 H 0.13749 0.52533 0.69605 0.0
H1321 H 0.1881 0.57248 0.72819 0.0
H1322 H 0.11724 0.49198 0.74123 0.0
H1323 H 0.14113 0.47547 0.72809 0.0
H1324 H 0.11846 0.49167 0.71273 0.0
H1325 H 0.17915 0.54905 0.77976 0.0
H1326 H 0.20047 0.56565 0.76328 0.0
H1327 H 0.20444 0.53324 0.76804 0.0
C1328 C 0.53047 0.1522 0.30322 0.0
C1329 C 0.55201 0.16636 0.3033 0.0
C1330 C 0.51533 0.15067 0.28513 0.0
C1331 C 0.52149 0.16401 0.26661 0.0
C1332 C 0.54352 0.17801 0.26654 0.0
C1333 C 0.55846 0.17901 0.28481 0.0
C1334 C 0.49229 0.13532 0.28608 0.0
C1335 C 0.55087 0.19274 0.24738 0.0
C1336 C 0.49257 0.14869 0.21272 0.0
C1337 C 0.47413 0.16653 0.21092 0.0
C1338 C 0.50756 0.14715 0.23092 0.0
C1339 C 0.50447 0.1642 0.24769 0.0
C1340 C 0.48551 0.18202 0.24601 0.0
C1341 C 0.4706 0.18292 0.22774 0.0
C1342 C 0.52718 0.12765 0.23193 0.0
C1343 C 0.48153 0.20076 0.26323 0.0
H1344 H 0.52513 0.1428 0.3176 0.0
H1345 H 0.5747 0.19051 0.28493 0.0
H1346 H 0.47594 0.1474 0.2849 0.0
H1347 H 0.49164 0.12245 0.2725 0.0
H1348 H 0.49099 0.12459 0.30095 0.0
H1349 H 0.56899 0.20181 0.24942 0.0
H1350 H 0.55167 0.18073 0.23325 0.0
H1351 H 0.53686 0.20706 0.24423 0.0
H1352 H 0.49567 0.13627 0.19959 0.0
H1353 H 0.45675 0.1971 0.22622 0.0
H1354 H 0.52548 0.11704 0.24681 0.0
H1355 H 0.54557 0.13643 0.23199 0.0
H1356 H 0.52618 0.11473 0.21838 0.0
H1357 H 0.47856 0.19144 0.27859 0.0
H1358 H 0.46556 0.21285 0.25996 0.0
H1359 H 0.49817 0.21237 0.2649 0.0
C1360 C 0.17909 0.41759 0.96373 0.0
C1361 C 0.15822 0.41784 0.9507 0.0
C1362 C 0.17713 0.41588 0.98585 0.0
C1363 C 0.15383 0.41213 0.99536 0.0
C1364 C 0.1329 0.40988 0.98205 0.0
C1365 C 0.13526 0.41342 0.96 0.0
C1366 C 0.20004 0.41915 0.99901 0.0
C1367 C 0.1078 0.40424 0.99085 0.0
C1368 C 0.16159 0.39303 0.05324 0.0
C1369 C 0.15509 0.41457 0.0641 0.0
C1370 C 0.15906 0.39115 0.0311 0.0
C1371 C 0.15161 0.41191 0.01914 0.0
C1372 C 0.14451 0.43352 0.03009 0.0
C1373 C 0.1456 0.43427 0.05235 0.0
C1374 C 0.16538 0.36705 0.02068 0.0
C1375 C 0.13726 0.45648 0.01831 0.0
H1376 H 0.19703 0.42011 0.95662 0.0
H1377 H 0.11904 0.41306 0.95008 0.0
H1378 H 0.19661 0.43189 0.01238 0.0
H1379 H 0.20565 0.40122 1.00569 0.0
H1380 H 0.21562 0.42642 0.98956 0.0
H1381 H 0.09727 0.3925 0.9797 0.0
H1382 H 0.10872 0.39481 1.00636 0.0
H1383 H 0.09739 0.42159 0.99277 0.0
H1384 H 0.16964 0.37787 0.06188 0.0
H1385 H 0.14072 0.45105 0.06056 0.0
H1386 H 0.18552 0.36592 0.01837 0.0
H1387 H 0.15622 0.36487 1.00513 0.0
H1388 H 0.15998 0.35143 0.03096 0.0
H1389 H 0.15146 0.46119 1.00639 0.0
H1390 H 0.13477 0.47246 0.02901 0.0
H1391 H 0.11978 0.45332 0.00978 0.0
C1392 C 0.58441 0.1466 0.46276 0.0
C1393 C 0.60423 0.15541 0.45077 0.0
C1394 C 0.58524 0.14615 0.48502 0.0
C1395 C 0.60704 0.15318 0.49575 0.0
C1396 C 0.62786 0.16001 0.48358 0.0
C1397 C 0.6259 0.16195 0.46142 0.0
C1398 C 0.56223 0.13951 0.49701 0.0
C1399 C 0.65215 0.16621 0.49373 0.0
C1400 C 0.60271 0.18221 0.55064 0.0
C1401 C 0.60176 0.16168 0.56401 0.0
C1402 C 0.60418 0.17964 0.52856 0.0
C1403 C 0.60702 0.15599 0.51946 0.0
C1404 C 0.6086 0.13532 0.53313 0.0
C1405 C 0.60531 0.13835 0.55513 0.0
C1406 C 0.60169 0.20235 0.51504 0.0
C1407 C 0.6133 0.1098 0.52481 0.0
H1408 H 0.56755 0.14168 0.45469 0.0
H1409 H 0.64118 0.16946 0.45257 0.0
H1410 H 0.56494 0.12179 0.50527 0.0
H1411 H 0.55815 0.15365 0.50915 0.0
H1412 H 0.54602 0.13769 0.48646 0.0
H1413 H 0.66754 0.15942 0.48381 0.0
H1414 H 0.6541 0.18644 0.4948 0.0
H1415 H 0.65401 0.15826 0.50978 0.0
H1416 H 0.60089 0.20039 0.55744 0.0
H1417 H 0.60516 0.12239 0.56535 0.0
H1418 H 0.58938 0.19892 0.50138 0.0
H1419 H 0.61995 0.20762 0.50881 0.0
H1420 H 0.59433 0.21817 0.52414 0.0
H1421 H 0.5957 0.0996 0.52404 0.0
H1422 H 0.62553 0.09957 0.53575 0.0
H1423 H 0.6218 0.10988 0.50888 0.0
C1424 C 0.84259 0.60632 0.04731 0.0
C1425 C 0.86345 0.60547 0.06032 0.0
C1426 C 0.84462 0.60793 0.02521 0.0
C1427 C 0.86804 0.61097 0.01573 0.0
C1428 C 0.88901 0.61278 0.02905 0.0
C1429 C 0.88653 0.60935 0.05109 0.0
C1430 C 0.82164 0.60519 0.01205 0.0
C1431 C 0.91426 0.61774 0.02028 0.0
C1432 C 0.87592 0.58769 0.9591 0.0
C1433 C 0.8668 0.60735 0.94711 0.0
C1434 C 0.87702 0.58881 0.98133 0.0
C1435 C 0.87032 0.61075 0.99199 0.0
C1436 C 0.86321 0.63142 0.97977 0.0
C1437 C 0.86062 0.62918 0.95768 0.0
C1438 C 0.88386 0.56593 0.99341 0.0
C1439 C 0.85731 0.65583 0.98984 0.0
H1440 H 0.8246 0.60412 0.05441 0.0
H1441 H 0.90274 0.60923 0.06104 0.0
H1442 H 0.81642 0.62326 1.00541 0.0
H1443 H 0.82478 0.59241 0.99865 0.0
H1444 H 0.80591 0.59824 0.02148 0.0
H1445 H 0.92486 0.62964 0.03124 0.0
H1446 H 0.92441 0.60017 0.01886 0.0
H1447 H 0.91365 0.6267 1.00455 0.0
H1448 H 0.88055 0.5707 0.9511 0.0
H1449 H 0.85284 0.64432 0.94885 0.0
H1450 H 0.86978 0.56184 1.00559 0.0
H1451 H 0.90158 0.56882 1.00164 0.0
H1452 H 0.88574 0.54966 0.98294 0.0
H1453 H 0.83713 0.65768 0.99151 0.0
H1454 H 0.86363 0.67111 0.97957 0.0
H1455 H 0.86592 0.65794 1.00562 0.0
C1456 C 0.42693 0.86628 0.55246 0.0
C1457 C 0.40691 0.85839 0.56468 0.0
C1458 C 0.42541 0.86792 0.53032 0.0
C1459 C 0.40279 0.86315 0.52 0.0
C1460 C 0.38188 0.85736 0.53246 0.0
C1461 C 0.38433 0.85439 0.55454 0.0
C1462 C 0.44848 0.87328 0.51791 0.0
C1463 C 0.35702 0.85352 0.52248 0.0
C1464 C 0.40464 0.88255 0.46183 0.0
C1465 C 0.40944 0.86012 0.45178 0.0
C1466 C 0.40032 0.88366 0.48384 0.0
C1467 C 0.40194 0.86197 0.49623 0.0
C1468 C 0.40539 0.83915 0.48586 0.0
C1469 C 0.40826 0.83847 0.46378 0.0
C1470 C 0.39504 0.90819 0.49389 0.0
C1471 C 0.40799 0.81557 0.49819 0.0
H1472 H 0.44434 0.86982 0.56021 0.0
H1473 H 0.36871 0.84841 0.56382 0.0
H1474 H 0.45229 0.85793 0.50684 0.0
H1475 H 0.44602 0.8901 0.50831 0.0
H1476 H 0.46475 0.87585 0.52827 0.0
H1477 H 0.34201 0.85614 0.53414 0.0
H1478 H 0.35415 0.86634 0.50908 0.0
H1479 H 0.35572 0.83452 0.51629 0.0
H1480 H 0.40516 0.89932 0.45263 0.0
H1481 H 0.41151 0.82103 0.456 0.0
H1482 H 0.412 0.91548 0.50126 0.0
H1483 H 0.38097 0.90635 0.50648 0.0
H1484 H 0.38854 0.92179 0.48207 0.0
H1485 H 0.4238 0.81703 0.50919 0.0
H1486 H 0.41089 0.7994 0.48778 0.0
H1487 H 0.39136 0.8123 0.50786 0.0
C1488 C 0.13992 0.60754 0.45821 0.0
C1489 C 0.16364 0.6039 0.45016 0.0
C1490 C 0.13584 0.61081 0.4801 0.0
C1491 C 0.15582 0.60912 0.49451 0.0
C1492 C 0.17988 0.60615 0.48626 0.0
C1493 C 0.1835 0.60472 0.46428 0.0
C1494 C 0.10996 0.61561 0.48747 0.0
C1495 C 0.20192 0.60352 0.50057 0.0
C1496 C 0.15946 0.62775 0.55279 0.0
C1497 C 0.15241 0.60605 0.56313 0.0
C1498 C 0.15839 0.62983 0.53058 0.0
C1499 C 0.15189 0.60913 0.51811 0.0
C1500 C 0.14415 0.58738 0.52854 0.0
C1501 C 0.14376 0.58643 0.5508 0.0
C1502 C 0.16522 0.65411 0.52074 0.0
C1503 C 0.13773 0.56449 0.51626 0.0
H1504 H 0.12446 0.60751 0.44742 0.0
H1505 H 0.202 0.60288 0.45814 0.0
H1506 H 0.0995 0.59813 0.4874 0.0
H1507 H 0.10923 0.62366 0.50355 0.0
H1508 H 0.10052 0.62828 0.47637 0.0
H1509 H 0.2071 0.62177 0.50688 0.0
H1510 H 0.19774 0.59134 0.51416 0.0
H1511 H 0.21806 0.59593 0.49206 0.0
H1512 H 0.16681 0.64288 0.56193 0.0
H1513 H 0.13843 0.56955 0.55863 0.0
H1514 H 0.15802 0.65607 0.50443 0.0
H1515 H 0.18549 0.65593 0.52038 0.0
H1516 H 0.15806 0.66951 0.53046 0.0
H1517 H 0.12037 0.56745 0.5075 0.0
H1518 H 0.13532 0.54826 0.52668 0.0
H1519 H 0.15229 0.56031 0.50453 0.0
C1520 C 0.43234 0.14477 0.96185 0.0
C1521 C 0.41251 0.15389 0.95005 0.0
C1522 C 0.43149 0.14353 0.98408 0.0
C1523 C 0.40963 0.15002 0.99497 0.0
C1524 C 0.38877 0.15706 0.98292 0.0
C1525 C 0.39076 0.15981 0.96081 0.0
C1526 C 0.45456 0.13669 0.9959 0.0
C1527 C 0.36439 0.16269 0.99314 0.0
C1528 C 0.41252 0.13357 0.05403 0.0
C1529 C 0.41566 0.15673 0.06335 0.0
C1530 C 0.40887 0.13108 0.032 0.0
C1531 C 0.40968 0.15217 0.01875 0.0
C1532 C 0.41201 0.17563 0.02833 0.0
C1533 C 0.41383 0.1776 0.05044 0.0
C1534 C 0.40469 0.10567 0.02325 0.0
C1535 C 0.41368 0.19881 0.01531 0.0
H1536 H 0.44928 0.14031 0.9537 0.0
H1537 H 0.37547 0.16757 0.95215 0.0
H1538 H 0.45829 0.15012 0.00871 0.0
H1539 H 0.45218 0.1184 1.00328 0.0
H1540 H 0.47087 0.1359 0.98539 0.0
H1541 H 0.34918 0.15526 0.98334 0.0
H1542 H 0.36282 0.15494 0.00928 0.0
H1543 H 0.36183 0.18287 0.99393 0.0
H1544 H 0.41337 0.11733 0.06389 0.0
H1545 H 0.4154 0.19562 0.0576 0.0
H1546 H 0.42239 0.0956 0.02291 0.0
H1547 H 0.39677 0.10587 0.0071 0.0
H1548 H 0.39215 0.09521 0.03376 0.0
H1549 H 0.42115 0.21443 0.0246 0.0
H1550 H 0.3951 0.204 0.00976 0.0
H1551 H 0.42551 0.19606 1.00123 0.0
C1552 C 0.8358 0.40622 0.46234 0.0
C1553 C 0.85664 0.408 0.44939 0.0
C1554 C 0.83776 0.40598 0.48454 0.0
C1555 C 0.86129 0.40528 0.49427 0.0
C1556 C 0.88241 0.40449 0.48108 0.0
C1557 C 0.87985 0.40676 0.45897 0.0
C1558 C 0.81443 0.40764 0.49735 0.0
C1559 C 0.90799 0.40194 0.48995 0.0
C1560 C 0.87149 0.43188 0.54972 0.0
C1561 C 0.86269 0.4131 0.56287 0.0
C1562 C 0.87113 0.42962 0.52753 0.0
C1563 C 0.86362 0.40719 0.518 0.0
C1564 C 0.85668 0.3874 0.53137 0.0
C1565 C 0.85534 0.39093 0.55344 0.0
C1566 C 0.87784 0.45184 0.51448 0.0
C1567 C 0.84995 0.36246 0.52275 0.0
H1568 H 0.81779 0.407 0.45507 0.0
H1569 H 0.89617 0.40825 0.44925 0.0
H1570 H 0.80854 0.3889 0.50191 0.0
H1571 H 0.81703 0.41862 0.51196 0.0
H1572 H 0.79927 0.41601 0.48808 0.0
H1573 H 0.91878 0.38885 0.4802 0.0
H1574 H 0.91751 0.41992 0.48903 0.0
H1575 H 0.90817 0.39545 0.50655 0.0
H1576 H 0.87709 0.44912 0.55682 0.0
H1577 H 0.84779 0.37643 0.56319 0.0
H1578 H 0.86647 0.45316 0.49997 0.0
H1579 H 0.89737 0.45053 0.50973 0.0
H1580 H 0.8756 0.46912 0.52362 0.0
H1581 H 0.82975 0.36002 0.52363 0.0
H1582 H 0.85826 0.34786 0.53269 0.0
H1583 H 0.85603 0.3597 0.5062 0.0
C1584 C 0.59405 0.88197 0.05092 0.0
C1585 C 0.61291 0.8713 0.06292 0.0
C1586 C 0.5955 0.88341 0.02874 0.0
C1587 C 0.61713 0.8756 0.01818 0.0
C1588 C 0.63739 0.86759 0.03053 0.0
C1589 C 0.63473 0.86467 0.05258 0.0
C1590 C 0.57307 0.89157 0.0166 0.0
C1591 C 0.66168 0.86084 0.02068 0.0
C1592 C 0.61138 0.84633 0.96353 0.0
C1593 C 0.61015 0.86681 0.95012 0.0
C1594 C 0.61363 0.84898 0.98554 0.0
C1595 C 0.61709 0.87265 0.99448 0.0
C1596 C 0.61863 0.89321 0.98068 0.0
C1597 C 0.61449 0.89011 0.95878 0.0
C1598 C 0.61106 0.82634 0.99916 0.0
C1599 C 0.62411 0.9187 0.98869 0.0
H1600 H 0.5771 0.88704 0.05879 0.0
H1601 H 0.64933 0.85594 0.06144 0.0
H1602 H 0.57671 0.90958 0.00912 0.0
H1603 H 0.56869 0.87825 1.00386 0.0
H1604 H 0.55669 0.89351 0.02691 0.0
H1605 H 0.66353 0.84056 0.02025 0.0
H1606 H 0.66377 0.86818 1.00443 0.0
H1607 H 0.67699 0.86793 0.03054 0.0
H1608 H 0.60893 0.82815 0.95685 0.0
H1609 H 0.61417 0.90603 0.94851 0.0
H1610 H 0.59944 0.83006 0.0132 0.0
H1611 H 0.62943 0.82055 1.00477 0.0
H1612 H 0.60287 0.81073 0.99031 0.0
H1613 H 0.60714 0.92994 0.98801 0.0
H1614 H 0.63776 0.92774 0.97823 0.0
H1615 H 0.63131 0.91885 1.00508 0.0
C1616 C 0.27276 0.34416 0.16144 0.0
C1617 C 0.27079 0.36076 0.14447 0.0
C1618 C 0.29117 0.32573 0.16198 0.0
C1619 C 0.3086 0.32379 0.14534 0.0
C1620 C 0.30706 0.34088 0.12845 0.0
C1621 C 0.28825 0.35884 0.12814 0.0
C1622 C 0.29156 0.30788 0.18018 0.0
C1623 C 0.32526 0.34007 0.11049 0.0
C1624 C 0.36903 0.28784 0.15436 0.0
C1625 C 0.36465 0.26552 0.14377 0.0
C1626 C 0.35115 0.3068 0.15501 0.0
C1627 C 0.32788 0.30351 0.1452 0.0
C1628 C 0.32321 0.28083 0.13487 0.0
C1629 C 0.34152 0.26238 0.13416 0.0
C1630 C 0.35736 0.33062 0.16595 0.0
C1631 C 0.29874 0.27598 0.12449 0.0
H1632 H 0.25938 0.34508 0.17407 0.0
H1633 H 0.2873 0.37159 0.11503 0.0
H1634 H 0.28865 0.28894 0.1742 0.0
H1635 H 0.30977 0.30824 0.18803 0.0
H1636 H 0.27721 0.31201 0.19213 0.0
H1637 H 0.32248 0.35529 0.09907 0.0
H1638 H 0.34426 0.34114 0.11675 0.0
H1639 H 0.32356 0.32238 0.10193 0.0
H1640 H 0.38674 0.29076 0.16174 0.0
H1641 H 0.33755 0.24521 0.1262 0.0
H1642 H 0.34387 0.33435 0.17867 0.0
H1643 H 0.35616 0.34602 0.15452 0.0
H1644 H 0.37607 0.33043 0.17293 0.0
H1645 H 0.28372 0.27839 0.13615 0.0
H1646 H 0.29752 0.25718 0.11776 0.0
H1647 H 0.29562 0.28944 0.11163 0.0
C1648 C 0.74904 0.34632 0.66228 0.0
C1649 C 0.7507 0.36332 0.64561 0.0
C1650 C 0.73033 0.32821 0.6629 0.0
C1651 C 0.71231 0.32708 0.64668 0.0
C1652 C 0.71354 0.34462 0.63012 0.0
C1653 C 0.73266 0.36224 0.6297 0.0
C1654 C 0.73024 0.30981 0.6807 0.0
C1655 C 0.69472 0.34465 0.61263 0.0
C1656 C 0.67812 0.26665 0.63479 0.0
C1657 C 0.65538 0.26985 0.645 0.0
C1658 C 0.69675 0.28476 0.63554 0.0
C1659 C 0.69276 0.30713 0.64654 0.0
C1660 C 0.66988 0.31048 0.65696 0.0
C1661 C 0.65168 0.29185 0.65623 0.0
C1662 C 0.72081 0.27989 0.62449 0.0
C1663 C 0.66444 0.33401 0.66862 0.0
H1664 H 0.7629 0.34665 0.67456 0.0
H1665 H 0.73343 0.37532 0.61683 0.0
H1666 H 0.71229 0.31013 0.68896 0.0
H1667 H 0.73272 0.29103 0.67423 0.0
H1668 H 0.74501 0.3134 0.69241 0.0
H1669 H 0.69731 0.36022 0.60152 0.0
H1670 H 0.69588 0.32725 0.60359 0.0
H1671 H 0.67595 0.34573 0.61939 0.0
H1672 H 0.68154 0.24969 0.62633 0.0
H1673 H 0.63425 0.29478 0.66409 0.0
H1674 H 0.73624 0.28173 0.63583 0.0
H1675 H 0.72373 0.2937 0.61186 0.0
H1676 H 0.72152 0.26129 0.6173 0.0
H1677 H 0.67842 0.33714 0.68107 0.0
H1678 H 0.64597 0.33386 0.67607 0.0
H1679 H 0.66548 0.34976 0.65754 0.0
C1680 C 0.75647 0.67835 0.13034 0.0
C1681 C 0.75316 0.655 0.13945 0.0
C1682 C 0.73791 0.69655 0.13101 0.0
C1683 C 0.71493 0.69147 0.14067 0.0
C1684 C 0.71145 0.66793 0.14991 0.0
C1685 C 0.73056 0.65021 0.14941 0.0
C1686 C 0.74299 0.72136 0.12133 0.0
C1687 C 0.68729 0.66126 0.16004 0.0
C1688 C 0.67321 0.74571 0.15705 0.0
C1689 C 0.65743 0.74822 0.13958 0.0
C1690 C 0.69176 0.72743 0.15769 0.0
C1691 C 0.69453 0.7106 0.14067 0.0
C1692 C 0.67817 0.71264 0.12328 0.0
C1693 C 0.66018 0.73142 0.12284 0.0
C1694 C 0.7089 0.72658 0.17639 0.0
C1695 C 0.67979 0.69502 0.10493 0.0
H1696 H 0.77386 0.68258 0.12285 0.0
H1697 H 0.72755 0.6323 0.1564 0.0
H1698 H 0.73007 0.72475 0.10811 0.0
H1699 H 0.73995 0.73601 0.13323 0.0
H1700 H 0.76205 0.72291 0.11525 0.0
H1701 H 0.68733 0.64232 0.16654 0.0
H1702 H 0.68304 0.67429 0.173 0.0
H1703 H 0.6723 0.66279 0.14825 0.0
H1704 H 0.6716 0.75864 0.16999 0.0
H1705 H 0.64809 0.7329 0.1093 0.0
H1706 H 0.72804 0.72977 0.17104 0.0
H1707 H 0.70836 0.70815 0.18381 0.0
H1708 H 0.70422 0.74055 0.18853 0.0
H1709 H 0.69772 0.69721 0.09684 0.0
H1710 H 0.66491 0.69797 0.09321 0.0
H1711 H 0.67878 0.67582 0.11071 0.0
C1712 C 0.26778 0.67636 0.66332 0.0
C1713 C 0.26402 0.66205 0.64505 0.0
C1714 C 0.28602 0.69496 0.66418 0.0
C1715 C 0.30115 0.69976 0.64637 0.0
C1716 C 0.29776 0.68513 0.62803 0.0
C1717 C 0.2795 0.66661 0.62762 0.0
C1718 C 0.28878 0.70985 0.68414 0.0
C1719 C 0.31328 0.68926 0.60861 0.0
C1720 C 0.33126 0.7635 0.64011 0.0
C1721 C 0.35575 0.75944 0.64642 0.0
C1722 C 0.31351 0.74448 0.64014 0.0
C1723 C 0.32001 0.7204 0.64664 0.0
C1724 C 0.34466 0.71611 0.65303 0.0
C1725 C 0.36208 0.73549 0.65281 0.0
C1726 C 0.28769 0.75017 0.633 0.0
C1727 C 0.35266 0.69094 0.66019 0.0
H1728 H 0.25601 0.67351 0.67688 0.0
H1729 H 0.27744 0.65559 0.61349 0.0
H1730 H 0.30804 0.70907 0.68979 0.0
H1731 H 0.28451 0.7294 0.68085 0.0
H1732 H 0.2765 0.7033 0.69696 0.0
H1733 H 0.3088 0.67618 0.5957 0.0
H1734 H 0.31054 0.70823 0.60269 0.0
H1735 H 0.33302 0.68732 0.61262 0.0
H1736 H 0.32592 0.78161 0.63474 0.0
H1737 H 0.38069 0.73187 0.65799 0.0
H1738 H 0.27445 0.74556 0.64571 0.0
H1739 H 0.28294 0.73872 0.61909 0.0
H1740 H 0.28531 0.7698 0.62871 0.0
H1741 H 0.34139 0.68499 0.67386 0.0
H1742 H 0.37233 0.69045 0.66482 0.0
H1743 H 0.34964 0.67741 0.64735 0.0
C1744 C 0.36953 0.7319 0.38905 0.0
C1745 C 0.37179 0.74957 0.37293 0.0
C1746 C 0.3514 0.71323 0.38835 0.0
C1747 C 0.33445 0.71214 0.3713 0.0
C1748 C 0.3367 0.72985 0.35493 0.0
C1749 C 0.35533 0.74804 0.35583 0.0
C1750 C 0.35029 0.6947 0.40602 0.0
C1751 C 0.31896 0.72999 0.33663 0.0
C1752 C 0.298 0.65228 0.36093 0.0
C1753 C 0.27565 0.65659 0.37146 0.0
C1754 C 0.31716 0.66998 0.36076 0.0
C1755 C 0.31401 0.69302 0.371 0.0
C1756 C 0.29129 0.69763 0.38127 0.0
C1757 C 0.27266 0.67947 0.38152 0.0
C1758 C 0.34101 0.66383 0.34989 0.0
C1759 C 0.28657 0.72189 0.39205 0.0
H1760 H 0.38214 0.73257 0.40228 0.0
H1761 H 0.35651 0.76163 0.34338 0.0
H1762 H 0.33256 0.69641 0.41452 0.0
H1763 H 0.35118 0.67582 0.39949 0.0
H1764 H 0.36546 0.69711 0.41757 0.0
H1765 H 0.32326 0.7446 0.32496 0.0
H1766 H 0.31924 0.71198 0.32846 0.0
H1767 H 0.3 0.73287 0.34256 0.0
H1768 H 0.30079 0.63475 0.3532 0.0
H1769 H 0.25547 0.68336 0.38945 0.0
H1770 H 0.35633 0.66473 0.36142 0.0
H1771 H 0.34493 0.67753 0.33738 0.0
H1772 H 0.34074 0.64526 0.34264 0.0
H1773 H 0.29993 0.72461 0.40506 0.0
H1774 H 0.26772 0.72311 0.39866 0.0
H1775 H 0.28923 0.73717 0.38068 0.0
C1776 C 0.36254 0.29156 0.85913 0.0
C1777 C 0.35764 0.26935 0.86969 0.0
C1778 C 0.34513 0.31093 0.85851 0.0
C1779 C 0.32186 0.30821 0.86843 0.0
C1780 C 0.31666 0.28566 0.87875 0.0
C1781 C 0.33447 0.26675 0.87934 0.0
C1782 C 0.35181 0.33454 0.84748 0.0
C1783 C 0.29217 0.28147 0.8893 0.0
C1784 C 0.28387 0.36461 0.88552 0.0
C1785 C 0.26617 0.3667 0.86939 0.0
C1786 C 0.30222 0.34618 0.88516 0.0
C1787 C 0.3031 0.32891 0.86836 0.0
C1788 C 0.28548 0.33105 0.8519 0.0
C1789 C 0.26746 0.34983 0.85255 0.0
C1790 C 0.32059 0.34506 0.90297 0.0
C1791 C 0.28527 0.31308 0.83376 0.0
H1792 H 0.3803 0.29407 0.85173 0.0
H1793 H 0.33008 0.24968 0.88725 0.0
H1794 H 0.33824 0.33859 0.83489 0.0
H1795 H 0.35118 0.35 0.85889 0.0
H1796 H 0.37041 0.33384 0.84032 0.0
H1797 H 0.29058 0.26277 0.89617 0.0
H1798 H 0.28946 0.29513 0.90209 0.0
H1799 H 0.27711 0.2841 0.87772 0.0
H1800 H 0.28349 0.37755 0.89852 0.0
H1801 H 0.25387 0.35084 0.84009 0.0
H1802 H 0.33954 0.34576 0.89656 0.0
H1803 H 0.31866 0.32741 0.91154 0.0
H1804 H 0.31823 0.36034 0.91442 0.0
H1805 H 0.30343 0.31291 0.82583 0.0
H1806 H 0.27095 0.31751 0.82187 0.0
H1807 H 0.28191 0.29426 0.83982 0.0
C1808 C 0.68036 0.271 0.38788 0.0
C1809 C 0.6639 0.26718 0.37088 0.0
C1810 C 0.69821 0.28994 0.3878 0.0
C1811 C 0.70106 0.30526 0.36987 0.0
C1812 C 0.68506 0.30141 0.35246 0.0
C1813 C 0.6666 0.28298 0.35331 0.0
C1814 C 0.71419 0.29343 0.40706 0.0
C1815 C 0.6877 0.31655 0.33264 0.0
C1816 C 0.73608 0.36696 0.37469 0.0
C1817 C 0.76045 0.36073 0.36908 0.0
C1818 C 0.71684 0.34931 0.3752 0.0
C1819 C 0.7213 0.3246 0.36916 0.0
C1820 C 0.74549 0.31817 0.36304 0.0
C1821 C 0.76457 0.33585 0.36357 0.0
C1822 C 0.69169 0.35712 0.38257 0.0
C1823 C 0.75138 0.29237 0.35591 0.0
H1824 H 0.67982 0.25904 0.40147 0.0
H1825 H 0.65432 0.28119 0.34 0.0
H1826 H 0.73343 0.28848 0.40326 0.0
H1827 H 0.71412 0.31298 0.412 0.0
H1828 H 0.70806 0.282 0.42059 0.0
H1829 H 0.67463 0.31083 0.3201 0.0
H1830 H 0.68456 0.33622 0.33626 0.0
H1831 H 0.70668 0.31489 0.32642 0.0
H1832 H 0.73165 0.38569 0.37878 0.0
H1833 H 0.78284 0.32961 0.3598 0.0
H1834 H 0.68577 0.34546 0.39601 0.0
H1835 H 0.67812 0.35449 0.36971 0.0
H1836 H 0.69121 0.37664 0.38763 0.0
H1837 H 0.74961 0.27952 0.3694 0.0
H1838 H 0.77026 0.29078 0.34944 0.0
H1839 H 0.73815 0.28636 0.34361 0.0
C1840 C 0.73413 0.66261 0.8836 0.0
C1841 C 0.75152 0.66122 0.86718 0.0
C1842 C 0.71524 0.68046 0.88367 0.0
C1843 C 0.71356 0.69791 0.86708 0.0
C1844 C 0.73087 0.69645 0.85032 0.0
C1845 C 0.74938 0.67814 0.85048 0.0
C1846 C 0.69717 0.68078 0.90173 0.0
C1847 C 0.73026 0.71471 0.83242 0.0
C1848 C 0.65298 0.73373 0.8592 0.0
C1849 C 0.65745 0.75583 0.87009 0.0
C1850 C 0.67091 0.71488 0.85805 0.0
C1851 C 0.69427 0.71808 0.86769 0.0
C1852 C 0.69901 0.74052 0.87837 0.0
C1853 C 0.68067 0.75888 0.87953 0.0
C1854 C 0.66468 0.6913 0.84674 0.0
C1855 C 0.72358 0.7452 0.88864 0.0
H1856 H 0.73524 0.64959 0.89649 0.0
H1857 H 0.76272 0.67758 0.8378 0.0
H1858 H 0.69889 0.69827 0.9106 0.0
H1859 H 0.67813 0.67982 0.89556 0.0
H1860 H 0.70007 0.66531 0.91287 0.0
H1861 H 0.74446 0.71084 0.82028 0.0
H1862 H 0.71196 0.71452 0.82473 0.0
H1863 H 0.73324 0.7335 0.83868 0.0
H1864 H 0.63519 0.73089 0.85194 0.0
H1865 H 0.6847 0.7759 0.88769 0.0
H1866 H 0.66601 0.67565 0.85788 0.0
H1867 H 0.67809 0.68791 0.83387 0.0
H1868 H 0.64592 0.6916 0.83987 0.0
H1869 H 0.7269 0.73143 0.90121 0.0
H1870 H 0.72479 0.76383 0.89572 0.0
H1871 H 0.73848 0.74316 0.87682 0.0
loop_
_geom_bond_atom_site_label_1
_geom_bond_atom_site_label_2
_geom_bond_distance
_geom_bond_site_symmetry_2
_ccdc_geom_bond_type
C0 C1 1.443 . S
C0 N4 1.376 . S
C0 C38 1.389 . S
C1 C0 1.443 . S
C1 C2 1.340 . S
C1 H41 0.951 . S
C2 C1 1.340 . S
C2 C3 1.439 . S
C2 H42 0.950 . S
C3 C2 1.439 . S
C3 N4 1.374 . S
C3 C37 1.395 . S
N4 C0 1.376 . S
N4 C3 1.374 . S
N4 Co5 2.008 . S
Co5 N4 2.008 . S
Co5 N6 1.995 . S
Co5 N11 2.008 . S
Co5 N16 1.995 . S
Co5 N21 2.282 . S
Co5 N27 2.282 . S
N6 Co5 1.995 . S
N6 C7 1.376 . S
N6 C10 1.383 . S
C7 N6 1.376 . S
C7 C8 1.446 . S
C7 C37 1.391 . S
C8 C7 1.446 . S
C8 C9 1.339 . S
C8 H43 0.949 . S
C9 C8 1.339 . S
C9 C10 1.439 . S
C9 H44 0.950 . S
C10 N6 1.383 . S
C10 C9 1.439 . S
C10 C39 1.392 . S
N11 Co5 2.008 . S
N11 C12 1.376 . S
N11 C15 1.374 . S
C12 N11 1.376 . S
C12 C13 1.443 . S
C12 C39 1.389 . S
C13 C12 1.443 . S
C13 C14 1.340 . S
C13 H45 0.951 . S
C14 C13 1.340 . S
C14 C15 1.439 . S
C14 H46 0.950 . S
C15 N11 1.374 . S
C15 C14 1.439 . S
C15 C40 1.395 . S
N16 Co5 1.995 . S
N16 C17 1.376 . S
N16 C20 1.383 . S
C17 N16 1.376 . S
C17 C18 1.446 . S
C17 C40 1.391 . S
C18 C17 1.446 . S
C18 C19 1.339 . S
C18 H47 0.949 . S
C19 C18 1.339 . S
C19 C20 1.439 . S
C19 H48 0.950 . S
C20 N16 1.383 . S
C20 C19 1.439 . S
C20 C38 1.392 . S
N21 Co5 2.282 . S
N21 C24 1.332 . S
N21 C26 1.332 . S
C22 C23 1.386 . S
C22 C25 1.388 . S
C23 C22 1.386 . S
C23 C24 1.382 . S
C23 H49 0.950 . S
C24 N21 1.332 . S
C24 C23 1.382 . S
C24 H35 0.952 . S
C25 C22 1.388 . S
C25 C26 1.382 . S
C25 H50 0.950 . S
C26 N21 1.332 . S
C26 C25 1.382 . S
C26 H36 0.948 . S
N27 Co5 2.282 . S
N27 C31 1.332 . S
N27 C32 1.332 . S
C28 C29 1.388 . S
C28 C32 1.382 . S
C28 H51 0.950 . S
C29 C28 1.388 . S
C29 C30 1.386 . S
C30 C29 1.386 . S
C30 C31 1.382 . S
C30 H52 0.950 . S
C31 N27 1.332 . S
C31 C30 1.382 . S
C31 H33 0.952 . S
C32 N27 1.332 . S
C32 C28 1.382 . S
C32 H34 0.948 . S
H33 C31 0.952 . S
H34 C32 0.948 . S
H35 C24 0.952 . S
H36 C26 0.948 . S
C37 C3 1.395 . S
C37 C7 1.391 . S
C38 C0 1.389 . S
C38 C20 1.392 . S
C39 C10 1.392 . S
C39 C12 1.389 . S
C40 C15 1.395 . S
C40 C17 1.391 . S
H41 C1 0.951 . S
H42 C2 0.950 . S
H43 C8 0.949 . S
H44 C9 0.950 . S
H45 C13 0.951 . S
H46 C14 0.950 . S
H47 C18 0.949 . S
H48 C19 0.950 . S
H49 C23 0.950 . S
H50 C25 0.950 . S
H51 C28 0.950 . S
H52 C30 0.950 . S
C53 C54 1.443 . S
C53 N57 1.376 . S
C53 C91 1.389 . S
C54 C53 1.443 . S
C54 C55 1.340 . S
C54 H94 0.951 . S
C55 C54 1.340 . S
C55 C56 1.439 . S
C55 H95 0.950 . S
C56 C55 1.439 . S
C56 N57 1.374 . S
C56 C90 1.395 . S
N57 C53 1.376 . S
N57 C56 1.374 . S
N57 Co58 2.008 . S
Co58 N57 2.008 . S
Co58 N59 1.995 . S
Co58 N64 2.008 . S
Co58 N69 1.995 . S
Co58 N74 2.282 . S
Co58 N80 2.282 . S
N59 Co58 1.995 . S
N59 C60 1.376 . S
N59 C63 1.383 . S
C60 N59 1.376 . S
C60 C61 1.446 . S
C60 C90 1.391 . S
C61 C60 1.446 . S
C61 C62 1.339 . S
C61 H96 0.949 . S
C62 C61 1.339 . S
C62 C63 1.439 . S
C62 H97 0.950 . S
C63 N59 1.383 . S
C63 C62 1.439 . S
C63 C92 1.392 . S
N64 Co58 2.008 . S
N64 C65 1.376 . S
N64 C68 1.374 . S
C65 N64 1.376 . S
C65 C66 1.443 . S
C65 C92 1.389 . S
C66 C65 1.443 . S
C66 C67 1.340 . S
C66 H98 0.951 . S
C67 C66 1.340 . S
C67 C68 1.439 . S
C67 H99 0.950 . S
C68 N64 1.374 . S
C68 C67 1.439 . S
C68 C93 1.395 . S
N69 Co58 1.995 . S
N69 C70 1.376 . S
N69 C73 1.383 . S
C70 N69 1.376 . S
C70 C71 1.446 . S
C70 C93 1.391 . S
C71 C70 1.446 . S
C71 C72 1.339 . S
C71 H100 0.949 . S
C72 C71 1.339 . S
C72 C73 1.439 . S
C72 H101 0.950 . S
C73 N69 1.383 . S
C73 C72 1.439 . S
C73 C91 1.392 . S
N74 Co58 2.282 . S
N74 C77 1.332 . S
N74 C79 1.332 . S
C75 C76 1.386 . S
C75 C78 1.388 . S
C76 C75 1.386 . S
C76 C77 1.382 . S
C76 H102 0.950 . S
C77 N74 1.332 . S
C77 C76 1.382 . S
C77 H88 0.952 . S
C78 C75 1.388 . S
C78 C79 1.382 . S
C78 H103 0.950 . S
C79 N74 1.332 . S
C79 C78 1.382 . S
C79 H89 0.948 . S
N80 Co58 2.282 . S
N80 C84 1.332 . S
N80 C85 1.332 . S
C81 C82 1.388 . S
C81 C85 1.382 . S
C81 H104 0.950 . S
C82 C81 1.388 . S
C82 C83 1.386 . S
C83 C82 1.386 . S
C83 C84 1.382 . S
C83 H105 0.950 . S
C84 N80 1.332 . S
C84 C83 1.382 . S
C84 H86 0.952 . S
C85 N80 1.332 . S
C85 C81 1.382 . S
C85 H87 0.948 . S
H86 C84 0.952 . S
H87 C85 0.948 . S
H88 C77 0.952 . S
H89 C79 0.948 . S
C90 C56 1.395 . S
C90 C60 1.391 . S
C91 C53 1.389 . S
C91 C73 1.392 . S
C92 C63 1.392 . S
C92 C65 1.389 . S
C93 C68 1.395 . S
C93 C70 1.391 . S
H94 C54 0.951 . S
H95 C55 0.950 . S
H96 C61 0.949 . S
H97 C62 0.950 . S
H98 C66 0.951 . S
H99 C67 0.950 . S
H100 C71 0.949 . S
H101 C72 0.950 . S
H102 C76 0.950 . S
H103 C78 0.950 . S
H104 C81 0.950 . S
H105 C83 0.950 . S
C106 C107 1.443 . S
C106 N110 1.376 . S
C106 C144 1.389 . S
C107 C106 1.443 . S
C107 C108 1.340 . S
C107 H147 0.951 . S
C108 C107 1.340 . S
C108 C109 1.439 . S
C108 H148 0.950 . S
C109 C108 1.439 . S
C109 N110 1.374 . S
C109 C143 1.395 . S
N110 C106 1.376 . S
N110 C109 1.374 . S
N110 Co111 2.008 . S
Co111 N110 2.008 . S
Co111 N112 1.995 . S
Co111 N117 2.008 . S
Co111 N122 1.995 . S
Co111 N127 2.282 . S
Co111 N133 2.282 . S
N112 Co111 1.995 . S
N112 C113 1.376 . S
N112 C116 1.383 . S
C113 N112 1.376 . S
C113 C114 1.446 . S
C113 C143 1.391 . S
C114 C113 1.446 . S
C114 C115 1.339 . S
C114 H149 0.949 . S
C115 C114 1.339 . S
C115 C116 1.439 . S
C115 H150 0.950 . S
C116 N112 1.383 . S
C116 C115 1.439 . S
C116 C145 1.392 . S
N117 Co111 2.008 . S
N117 C118 1.376 . S
N117 C121 1.374 . S
C118 N117 1.376 . S
C118 C119 1.443 . S
C118 C145 1.389 . S
C119 C118 1.443 . S
C119 C120 1.340 . S
C119 H151 0.951 . S
C120 C119 1.340 . S
C120 C121 1.439 . S
C120 H152 0.950 . S
C121 N117 1.374 . S
C121 C120 1.439 . S
C121 C146 1.395 . S
N122 Co111 1.995 . S
N122 C123 1.376 . S
N122 C126 1.383 . S
C123 N122 1.376 . S
C123 C124 1.446 . S
C123 C146 1.391 . S
C124 C123 1.446 . S
C124 C125 1.339 . S
C124 H153 0.949 . S
C125 C124 1.339 . S
C125 C126 1.439 . S
C125 H154 0.950 . S
C126 N122 1.383 . S
C126 C125 1.439 . S
C126 C144 1.392 . S
N127 Co111 2.282 . S
N127 C130 1.332 . S
N127 C132 1.332 . S
C128 C129 1.386 . S
C128 C131 1.388 . S
C129 C128 1.386 . S
C129 C130 1.382 . S
C129 H155 0.950 . S
C130 N127 1.332 . S
C130 C129 1.382 . S
C130 H141 0.952 . S
C131 C128 1.388 . S
C131 C132 1.382 . S
C131 H156 0.950 . S
C132 N127 1.332 . S
C132 C131 1.382 . S
C132 H142 0.948 . S
N133 Co111 2.282 . S
N133 C137 1.332 . S
N133 C138 1.332 . S
C134 C135 1.388 . S
C134 C138 1.382 . S
C134 H157 0.950 . S
C135 C134 1.388 . S
C135 C136 1.386 . S
C136 C135 1.386 . S
C136 C137 1.382 . S
C136 H158 0.950 . S
C137 N133 1.332 . S
C137 C136 1.382 . S
C137 H139 0.952 . S
C138 N133 1.332 . S
C138 C134 1.382 . S
C138 H140 0.948 . S
H139 C137 0.952 . S
H140 C138 0.948 . S
H141 C130 0.952 . S
H142 C132 0.948 . S
C143 C109 1.395 . S
C143 C113 1.391 . S
C144 C106 1.389 . S
C144 C126 1.392 . S
C145 C116 1.392 . S
C145 C118 1.389 . S
C146 C121 1.395 . S
C146 C123 1.391 . S
H147 C107 0.951 . S
H148 C108 0.950 . S
H149 C114 0.949 . S
H150 C115 0.950 . S
H151 C119 0.951 . S
H152 C120 0.950 . S
H153 C124 0.949 . S
H154 C125 0.950 . S
H155 C129 0.950 . S
H156 C131 0.950 . S
H157 C134 0.950 . S
H158 C136 0.950 . S
C159 C160 1.443 . S
C159 N163 1.376 . S
C159 C197 1.389 . S
C160 C159 1.443 . S
C160 C161 1.340 . S
C160 H200 0.951 . S
C161 C160 1.340 . S
C161 C162 1.439 . S
C161 H201 0.950 . S
C162 C161 1.439 . S
C162 N163 1.374 . S
C162 C196 1.395 . S
N163 C159 1.376 . S
N163 C162 1.374 . S
N163 Co164 2.008 . S
Co164 N163 2.008 . S
Co164 N165 1.995 . S
Co164 N170 2.008 . S
Co164 N175 1.995 . S
Co164 N180 2.282 . S
Co164 N186 2.282 . S
N165 Co164 1.995 . S
N165 C166 1.376 . S
N165 C169 1.383 . S
C166 N165 1.376 . S
C166 C167 1.446 . S
C166 C196 1.391 . S
C167 C166 1.446 . S
C167 C168 1.339 . S
C167 H202 0.949 . S
C168 C167 1.339 . S
C168 C169 1.439 . S
C168 H203 0.950 . S
C169 N165 1.383 . S
C169 C168 1.439 . S
C169 C198 1.392 . S
N170 Co164 2.008 . S
N170 C171 1.376 . S
N170 C174 1.374 . S
C171 N170 1.376 . S
C171 C172 1.443 . S
C171 C198 1.389 . S
C172 C171 1.443 . S
C172 C173 1.340 . S
C172 H204 0.951 . S
C173 C172 1.340 . S
C173 C174 1.439 . S
C173 H205 0.950 . S
C174 N170 1.374 . S
C174 C173 1.439 . S
C174 C199 1.395 . S
N175 Co164 1.995 . S
N175 C176 1.376 . S
N175 C179 1.383 . S
C176 N175 1.376 . S
C176 C177 1.446 . S
C176 C199 1.391 . S
C177 C176 1.446 . S
C177 C178 1.339 . S
C177 H206 0.949 . S
C178 C177 1.339 . S
C178 C179 1.439 . S
C178 H207 0.950 . S
C179 N175 1.383 . S
C179 C178 1.439 . S
C179 C197 1.392 . S
N180 Co164 2.282 . S
N180 C183 1.332 . S
N180 C185 1.332 . S
C181 C182 1.386 . S
C181 C184 1.388 . S
C182 C181 1.386 . S
C182 C183 1.382 . S
C182 H208 0.950 . S
C183 N180 1.332 . S
C183 C182 1.382 . S
C183 H194 0.952 . S
C184 C181 1.388 . S
C184 C185 1.382 . S
C184 H209 0.950 . S
C185 N180 1.332 . S
C185 C184 1.382 . S
C185 H195 0.948 . S
N186 Co164 2.282 . S
N186 C190 1.332 . S
N186 C191 1.332 . S
C187 C188 1.388 . S
C187 C191 1.382 . S
C187 H210 0.950 . S
C188 C187 1.388 . S
C188 C189 1.386 . S
C189 C188 1.386 . S
C189 C190 1.382 . S
C189 H211 0.950 . S
C190 N186 1.332 . S
C190 C189 1.382 . S
C190 H192 0.952 . S
C191 N186 1.332 . S
C191 C187 1.382 . S
C191 H193 0.948 . S
H192 C190 0.952 . S
H193 C191 0.948 . S
H194 C183 0.952 . S
H195 C185 0.948 . S
C196 C162 1.395 . S
C196 C166 1.391 . S
C197 C159 1.389 . S
C197 C179 1.392 . S
C198 C169 1.392 . S
C198 C171 1.389 . S
C199 C174 1.395 . S
C199 C176 1.391 . S
H200 C160 0.951 . S
H201 C161 0.950 . S
H202 C167 0.949 . S
H203 C168 0.950 . S
H204 C172 0.951 . S
H205 C173 0.950 . S
H206 C177 0.949 . S
H207 C178 0.950 . S
H208 C182 0.950 . S
H209 C184 0.950 . S
H210 C187 0.950 . S
H211 C189 0.950 . S
C212 C213 1.443 . S
C212 N216 1.376 . S
C212 C250 1.389 . S
C213 C212 1.443 . S
C213 C214 1.340 . S
C213 H253 0.951 . S
C214 C213 1.340 . S
C214 C215 1.439 . S
C214 H254 0.950 . S
C215 C214 1.439 . S
C215 N216 1.374 . S
C215 C249 1.395 . S
N216 C212 1.376 . S
N216 C215 1.374 . S
N216 Co217 2.008 . S
Co217 N216 2.008 . S
Co217 N218 1.995 . S
Co217 N223 2.008 . S
Co217 N228 1.995 . S
Co217 N233 2.282 . S
Co217 N239 2.282 . S
N218 Co217 1.995 . S
N218 C219 1.376 . S
N218 C222 1.383 . S
C219 N218 1.376 . S
C219 C220 1.446 . S
C219 C249 1.391 . S
C220 C219 1.446 . S
C220 C221 1.339 . S
C220 H255 0.949 . S
C221 C220 1.339 . S
C221 C222 1.439 . S
C221 H256 0.950 . S
C222 N218 1.383 . S
C222 C221 1.439 . S
C222 C251 1.392 . S
N223 Co217 2.008 . S
N223 C224 1.376 . S
N223 C227 1.374 . S
C224 N223 1.376 . S
C224 C225 1.443 . S
C224 C251 1.389 . S
C225 C224 1.443 . S
C225 C226 1.340 . S
C225 H257 0.951 . S
C226 C225 1.340 . S
C226 C227 1.439 . S
C226 H258 0.950 . S
C227 N223 1.374 . S
C227 C226 1.439 . S
C227 C252 1.395 . S
N228 Co217 1.995 . S
N228 C229 1.376 . S
N228 C232 1.383 . S
C229 N228 1.376 . S
C229 C230 1.446 . S
C229 C252 1.391 . S
C230 C229 1.446 . S
C230 C231 1.339 . S
C230 H259 0.949 . S
C231 C230 1.339 . S
C231 C232 1.439 . S
C231 H260 0.950 . S
C232 N228 1.383 . S
C232 C231 1.439 . S
C232 C250 1.392 . S
N233 Co217 2.282 . S
N233 C236 1.332 . S
N233 C238 1.332 . S
C234 C235 1.386 . S
C234 C237 1.388 . S
C235 C234 1.386 . S
C235 C236 1.382 . S
C235 H261 0.950 . S
C236 N233 1.332 . S
C236 C235 1.382 . S
C236 H247 0.952 . S
C237 C234 1.388 . S
C237 C238 1.382 . S
C237 H262 0.950 . S
C238 N233 1.332 . S
C238 C237 1.382 . S
C238 H248 0.948 . S
N239 Co217 2.282 . S
N239 C243 1.332 . S
N239 C244 1.332 . S
C240 C241 1.388 . S
C240 C244 1.382 . S
C240 H263 0.950 . S
C241 C240 1.388 . S
C241 C242 1.386 . S
C242 C241 1.386 . S
C242 C243 1.382 . S
C242 H264 0.950 . S
C243 N239 1.332 . S
C243 C242 1.382 . S
C243 H245 0.952 . S
C244 N239 1.332 . S
C244 C240 1.382 . S
C244 H246 0.948 . S
H245 C243 0.952 . S
H246 C244 0.948 . S
H247 C236 0.952 . S
H248 C238 0.948 . S
C249 C215 1.395 . S
C249 C219 1.391 . S
C250 C212 1.389 . S
C250 C232 1.392 . S
C251 C222 1.392 . S
C251 C224 1.389 . S
C252 C227 1.395 . S
C252 C229 1.391 . S
H253 C213 0.951 . S
H254 C214 0.950 . S
H255 C220 0.949 . S
H256 C221 0.950 . S
H257 C225 0.951 . S
H258 C226 0.950 . S
H259 C230 0.949 . S
H260 C231 0.950 . S
H261 C235 0.950 . S
H262 C237 0.950 . S
H263 C240 0.950 . S
H264 C242 0.950 . S
C265 C266 1.443 . S
C265 N269 1.376 . S
C265 C303 1.389 . S
C266 C265 1.443 . S
C266 C267 1.340 . S
C266 H306 0.951 . S
C267 C266 1.340 . S
C267 C268 1.439 . S
C267 H307 0.950 . S
C268 C267 1.439 . S
C268 N269 1.374 . S
C268 C302 1.395 . S
N269 C265 1.376 . S
N269 C268 1.374 . S
N269 Co270 2.008 . S
Co270 N269 2.008 . S
Co270 N271 1.995 . S
Co270 N276 2.008 . S
Co270 N281 1.995 . S
Co270 N286 2.282 . S
Co270 N292 2.282 . S
N271 Co270 1.995 . S
N271 C272 1.376 . S
N271 C275 1.383 . S
C272 N271 1.376 . S
C272 C273 1.446 . S
C272 C302 1.391 . S
C273 C272 1.446 . S
C273 C274 1.339 . S
C273 H308 0.949 . S
C274 C273 1.339 . S
C274 C275 1.439 . S
C274 H309 0.950 . S
C275 N271 1.383 . S
C275 C274 1.439 . S
C275 C304 1.392 . S
N276 Co270 2.008 . S
N276 C277 1.376 . S
N276 C280 1.374 . S
C277 N276 1.376 . S
C277 C278 1.443 . S
C277 C304 1.389 . S
C278 C277 1.443 . S
C278 C279 1.340 . S
C278 H310 0.951 . S
C279 C278 1.340 . S
C279 C280 1.439 . S
C279 H311 0.950 . S
C280 N276 1.374 . S
C280 C279 1.439 . S
C280 C305 1.395 . S
N281 Co270 1.995 . S
N281 C282 1.376 . S
N281 C285 1.383 . S
C282 N281 1.376 . S
C282 C283 1.446 . S
C282 C305 1.391 . S
C283 C282 1.446 . S
C283 C284 1.339 . S
C283 H312 0.949 . S
C284 C283 1.339 . S
C284 C285 1.439 . S
C284 H313 0.950 . S
C285 N281 1.383 . S
C285 C284 1.439 . S
C285 C303 1.392 . S
N286 Co270 2.282 . S
N286 C289 1.332 . S
N286 C291 1.332 . S
C287 C288 1.386 . S
C287 C290 1.388 . S
C288 C287 1.386 . S
C288 C289 1.382 . S
C288 H314 0.950 . S
C289 N286 1.332 . S
C289 C288 1.382 . S
C289 H300 0.952 . S
C290 C287 1.388 . S
C290 C291 1.382 . S
C290 H315 0.950 . S
C291 N286 1.332 . S
C291 C290 1.382 . S
C291 H301 0.948 . S
N292 Co270 2.282 . S
N292 C296 1.332 . S
N292 C297 1.332 . S
C293 C294 1.388 . S
C293 C297 1.382 . S
C293 H316 0.950 . S
C294 C293 1.388 . S
C294 C295 1.386 . S
C295 C294 1.386 . S
C295 C296 1.382 . S
C295 H317 0.950 . S
C296 N292 1.332 . S
C296 C295 1.382 . S
C296 H298 0.952 . S
C297 N292 1.332 . S
C297 C293 1.382 . S
C297 H299 0.948 . S
H298 C296 0.952 . S
H299 C297 0.948 . S
H300 C289 0.952 . S
H301 C291 0.948 . S
C302 C268 1.395 . S
C302 C272 1.391 . S
C303 C265 1.389 . S
C303 C285 1.392 . S
C304 C275 1.392 . S
C304 C277 1.389 . S
C305 C280 1.395 . S
C305 C282 1.391 . S
H306 C266 0.951 . S
H307 C267 0.950 . S
H308 C273 0.949 . S
H309 C274 0.950 . S
H310 C278 0.951 . S
H311 C279 0.950 . S
H312 C283 0.949 . S
H313 C284 0.950 . S
H314 C288 0.950 . S
H315 C290 0.950 . S
H316 C293 0.950 . S
H317 C295 0.950 . S
C318 C319 1.443 . S
C318 N322 1.376 . S
C318 C356 1.389 . S
C319 C318 1.443 . S
C319 C320 1.340 . S
C319 H359 0.951 . S
C320 C319 1.340 . S
C320 C321 1.439 . S
C320 H360 0.950 . S
C321 C320 1.439 . S
C321 N322 1.374 . S
C321 C355 1.395 . S
N322 C318 1.376 . S
N322 C321 1.374 . S
N322 Co323 2.008 . S
Co323 N322 2.008 . S
Co323 N324 1.995 . S
Co323 N329 2.008 . S
Co323 N334 1.995 . S
Co323 N339 2.282 . S
Co323 N345 2.282 . S
N324 Co323 1.995 . S
N324 C325 1.376 . S
N324 C328 1.383 . S
C325 N324 1.376 . S
C325 C326 1.446 . S
C325 C355 1.391 . S
C326 C325 1.446 . S
C326 C327 1.339 . S
C326 H361 0.949 . S
C327 C326 1.339 . S
C327 C328 1.439 . S
C327 H362 0.950 . S
C328 N324 1.383 . S
C328 C327 1.439 . S
C328 C357 1.392 . S
N329 Co323 2.008 . S
N329 C330 1.376 . S
N329 C333 1.374 . S
C330 N329 1.376 . S
C330 C331 1.443 . S
C330 C357 1.389 . S
C331 C330 1.443 . S
C331 C332 1.340 . S
C331 H363 0.951 . S
C332 C331 1.340 . S
C332 C333 1.439 . S
C332 H364 0.950 . S
C333 N329 1.374 . S
C333 C332 1.439 . S
C333 C358 1.395 . S
N334 Co323 1.995 . S
N334 C335 1.376 . S
N334 C338 1.383 . S
C335 N334 1.376 . S
C335 C336 1.446 . S
C335 C358 1.391 . S
C336 C335 1.446 . S
C336 C337 1.339 . S
C336 H365 0.949 . S
C337 C336 1.339 . S
C337 C338 1.439 . S
C337 H366 0.950 . S
C338 N334 1.383 . S
C338 C337 1.439 . S
C338 C356 1.392 . S
N339 Co323 2.282 . S
N339 C342 1.332 . S
N339 C344 1.332 . S
C340 C341 1.386 . S
C340 C343 1.388 . S
C341 C340 1.386 . S
C341 C342 1.382 . S
C341 H367 0.950 . S
C342 N339 1.332 . S
C342 C341 1.382 . S
C342 H353 0.952 . S
C343 C340 1.388 . S
C343 C344 1.382 . S
C343 H368 0.950 . S
C344 N339 1.332 . S
C344 C343 1.382 . S
C344 H354 0.948 . S
N345 Co323 2.282 . S
N345 C349 1.332 . S
N345 C350 1.332 . S
C346 C347 1.388 . S
C346 C350 1.382 . S
C346 H369 0.950 . S
C347 C346 1.388 . S
C347 C348 1.386 . S
C348 C347 1.386 . S
C348 C349 1.382 . S
C348 H370 0.950 . S
C349 N345 1.332 . S
C349 C348 1.382 . S
C349 H351 0.952 . S
C350 N345 1.332 . S
C350 C346 1.382 . S
C350 H352 0.948 . S
H351 C349 0.952 . S
H352 C350 0.948 . S
H353 C342 0.952 . S
H354 C344 0.948 . S
C355 C321 1.395 . S
C355 C325 1.391 . S
C356 C318 1.389 . S
C356 C338 1.392 . S
C357 C328 1.392 . S
C357 C330 1.389 . S
C358 C333 1.395 . S
C358 C335 1.391 . S
H359 C319 0.951 . S
H360 C320 0.950 . S
H361 C326 0.949 . S
H362 C327 0.950 . S
H363 C331 0.951 . S
H364 C332 0.950 . S
H365 C336 0.949 . S
H366 C337 0.950 . S
H367 C341 0.950 . S
H368 C343 0.950 . S
H369 C346 0.950 . S
H370 C348 0.950 . S
C371 C372 1.443 . S
C371 N375 1.376 . S
C371 C409 1.389 . S
C372 C371 1.443 . S
C372 C373 1.340 . S
C372 H412 0.951 . S
C373 C372 1.340 . S
C373 C374 1.439 . S
C373 H413 0.950 . S
C374 C373 1.439 . S
C374 N375 1.374 . S
C374 C408 1.395 . S
N375 C371 1.376 . S
N375 C374 1.374 . S
N375 Co376 2.008 . S
Co376 N375 2.008 . S
Co376 N377 1.995 . S
Co376 N382 2.008 . S
Co376 N387 1.995 . S
Co376 N392 2.282 . S
Co376 N398 2.282 . S
N377 Co376 1.995 . S
N377 C378 1.376 . S
N377 C381 1.383 . S
C378 N377 1.376 . S
C378 C379 1.446 . S
C378 C408 1.391 . S
C379 C378 1.446 . S
C379 C380 1.339 . S
C379 H414 0.949 . S
C380 C379 1.339 . S
C380 C381 1.439 . S
C380 H415 0.950 . S
C381 N377 1.383 . S
C381 C380 1.439 . S
C381 C410 1.392 . S
N382 Co376 2.008 . S
N382 C383 1.376 . S
N382 C386 1.374 . S
C383 N382 1.376 . S
C383 C384 1.443 . S
C383 C410 1.389 . S
C384 C383 1.443 . S
C384 C385 1.340 . S
C384 H416 0.951 . S
C385 C384 1.340 . S
C385 C386 1.439 . S
C385 H417 0.950 . S
C386 N382 1.374 . S
C386 C385 1.439 . S
C386 C411 1.395 . S
N387 Co376 1.995 . S
N387 C388 1.376 . S
N387 C391 1.383 . S
C388 N387 1.376 . S
C388 C389 1.446 . S
C388 C411 1.391 . S
C389 C388 1.446 . S
C389 C390 1.339 . S
C389 H418 0.949 . S
C390 C389 1.339 . S
C390 C391 1.439 . S
C390 H419 0.950 . S
C391 N387 1.383 . S
C391 C390 1.439 . S
C391 C409 1.392 . S
N392 Co376 2.282 . S
N392 C395 1.332 . S
N392 C397 1.332 . S
C393 C394 1.386 . S
C393 C396 1.388 . S
C394 C393 1.386 . S
C394 C395 1.382 . S
C394 H420 0.950 . S
C395 N392 1.332 . S
C395 C394 1.382 . S
C395 H406 0.952 . S
C396 C393 1.388 . S
C396 C397 1.382 . S
C396 H421 0.950 . S
C397 N392 1.332 . S
C397 C396 1.382 . S
C397 H407 0.948 . S
N398 Co376 2.282 . S
N398 C402 1.332 . S
N398 C403 1.332 . S
C399 C400 1.388 . S
C399 C403 1.382 . S
C399 H422 0.950 . S
C400 C399 1.388 . S
C400 C401 1.386 . S
C401 C400 1.386 . S
C401 C402 1.382 . S
C401 H423 0.950 . S
C402 N398 1.332 . S
C402 C401 1.382 . S
C402 H404 0.952 . S
C403 N398 1.332 . S
C403 C399 1.382 . S
C403 H405 0.948 . S
H404 C402 0.952 . S
H405 C403 0.948 . S
H406 C395 0.952 . S
H407 C397 0.948 . S
C408 C374 1.395 . S
C408 C378 1.391 . S
C409 C371 1.389 . S
C409 C391 1.392 . S
C410 C381 1.392 . S
C410 C383 1.389 . S
C411 C386 1.395 . S
C411 C388 1.391 . S
H412 C372 0.951 . S
H413 C373 0.950 . S
H414 C379 0.949 . S
H415 C380 0.950 . S
H416 C384 0.951 . S
H417 C385 0.950 . S
H418 C389 0.949 . S
H419 C390 0.950 . S
H420 C394 0.950 . S
H421 C396 0.950 . S
H422 C399 0.950 . S
H423 C401 0.950 . S
C424 C425 1.443 . S
C424 N428 1.376 . S
C424 C462 1.389 . S
C425 C424 1.443 . S
C425 C426 1.340 . S
C425 H465 0.951 . S
C426 C425 1.340 . S
C426 C427 1.439 . S
C426 H466 0.950 . S
C427 C426 1.439 . S
C427 N428 1.374 . S
C427 C461 1.395 . S
N428 C424 1.376 . S
N428 C427 1.374 . S
N428 Co429 2.008 . S
Co429 N428 2.008 . S
Co429 N430 1.995 . S
Co429 N435 2.008 . S
Co429 N440 1.995 . S
Co429 N445 2.282 . S
Co429 N451 2.282 . S
N430 Co429 1.995 . S
N430 C431 1.376 . S
N430 C434 1.383 . S
C431 N430 1.376 . S
C431 C432 1.446 . S
C431 C461 1.391 . S
C432 C431 1.446 . S
C432 C433 1.339 . S
C432 H467 0.949 . S
C433 C432 1.339 . S
C433 C434 1.439 . S
C433 H468 0.950 . S
C434 N430 1.383 . S
C434 C433 1.439 . S
C434 C463 1.392 . S
N435 Co429 2.008 . S
N435 C436 1.376 . S
N435 C439 1.374 . S
C436 N435 1.376 . S
C436 C437 1.443 . S
C436 C463 1.389 . S
C437 C436 1.443 . S
C437 C438 1.340 . S
C437 H469 0.951 . S
C438 C437 1.340 . S
C438 C439 1.439 . S
C438 H470 0.950 . S
C439 N435 1.374 . S
C439 C438 1.439 . S
C439 C464 1.395 . S
N440 Co429 1.995 . S
N440 C441 1.376 . S
N440 C444 1.383 . S
C441 N440 1.376 . S
C441 C442 1.446 . S
C441 C464 1.391 . S
C442 C441 1.446 . S
C442 C443 1.339 . S
C442 H471 0.949 . S
C443 C442 1.339 . S
C443 C444 1.439 . S
C443 H472 0.950 . S
C444 N440 1.383 . S
C444 C443 1.439 . S
C444 C462 1.392 . S
N445 Co429 2.282 . S
N445 C448 1.332 . S
N445 C450 1.332 . S
C446 C447 1.386 . S
C446 C449 1.388 . S
C447 C446 1.386 . S
C447 C448 1.382 . S
C447 H473 0.950 . S
C448 N445 1.332 . S
C448 C447 1.382 . S
C448 H459 0.952 . S
C449 C446 1.388 . S
C449 C450 1.382 . S
C449 H474 0.950 . S
C450 N445 1.332 . S
C450 C449 1.382 . S
C450 H460 0.948 . S
N451 Co429 2.282 . S
N451 C455 1.332 . S
N451 C456 1.332 . S
C452 C453 1.388 . S
C452 C456 1.382 . S
C452 H475 0.950 . S
C453 C452 1.388 . S
C453 C454 1.386 . S
C454 C453 1.386 . S
C454 C455 1.382 . S
C454 H476 0.950 . S
C455 N451 1.332 . S
C455 C454 1.382 . S
C455 H457 0.952 . S
C456 N451 1.332 . S
C456 C452 1.382 . S
C456 H458 0.948 . S
H457 C455 0.952 . S
H458 C456 0.948 . S
H459 C448 0.952 . S
H460 C450 0.948 . S
C461 C427 1.395 . S
C461 C431 1.391 . S
C462 C424 1.389 . S
C462 C444 1.392 . S
C463 C434 1.392 . S
C463 C436 1.389 . S
C464 C439 1.395 . S
C464 C441 1.391 . S
H465 C425 0.951 . S
H466 C426 0.950 . S
H467 C432 0.949 . S
H468 C433 0.950 . S
H469 C437 0.951 . S
H470 C438 0.950 . S
H471 C442 0.949 . S
H472 C443 0.950 . S
H473 C447 0.950 . S
H474 C449 0.950 . S
H475 C452 0.950 . S
H476 C454 0.950 . S
C477 C478 1.443 . S
C477 N481 1.376 . S
C477 C515 1.389 . S
C478 C477 1.443 . S
C478 C479 1.340 . S
C478 H518 0.951 . S
C479 C478 1.340 . S
C479 C480 1.439 . S
C479 H519 0.950 . S
C480 C479 1.439 . S
C480 N481 1.374 . S
C480 C514 1.395 . S
N481 C477 1.376 . S
N481 C480 1.374 . S
N481 Co482 2.008 . S
Co482 N481 2.008 . S
Co482 N483 1.995 . S
Co482 N488 2.008 . S
Co482 N493 1.995 . S
Co482 N498 2.282 . S
Co482 N504 2.282 . S
N483 Co482 1.995 . S
N483 C484 1.376 . S
N483 C487 1.383 . S
C484 N483 1.376 . S
C484 C485 1.446 . S
C484 C514 1.391 . S
C485 C484 1.446 . S
C485 C486 1.339 . S
C485 H520 0.949 . S
C486 C485 1.339 . S
C486 C487 1.439 . S
C486 H521 0.950 . S
C487 N483 1.383 . S
C487 C486 1.439 . S
C487 C516 1.392 . S
N488 Co482 2.008 . S
N488 C489 1.376 . S
N488 C492 1.374 . S
C489 N488 1.376 . S
C489 C490 1.443 . S
C489 C516 1.389 . S
C490 C489 1.443 . S
C490 C491 1.340 . S
C490 H522 0.951 . S
C491 C490 1.340 . S
C491 C492 1.439 . S
C491 H523 0.950 . S
C492 N488 1.374 . S
C492 C491 1.439 . S
C492 C517 1.395 . S
N493 Co482 1.995 . S
N493 C494 1.376 . S
N493 C497 1.383 . S
C494 N493 1.376 . S
C494 C495 1.446 . S
C494 C517 1.391 . S
C495 C494 1.446 . S
C495 C496 1.339 . S
C495 H524 0.949 . S
C496 C495 1.339 . S
C496 C497 1.439 . S
C496 H525 0.950 . S
C497 N493 1.383 . S
C497 C496 1.439 . S
C497 C515 1.392 . S
N498 Co482 2.282 . S
N498 C501 1.332 . S
N498 C503 1.332 . S
C499 C500 1.386 . S
C499 C502 1.388 . S
C500 C499 1.386 . S
C500 C501 1.382 . S
C500 H526 0.950 . S
C501 N498 1.332 . S
C501 C500 1.382 . S
C501 H512 0.952 . S
C502 C499 1.388 . S
C502 C503 1.382 . S
C502 H527 0.950 . S
C503 N498 1.332 . S
C503 C502 1.382 . S
C503 H513 0.948 . S
N504 Co482 2.282 . S
N504 C508 1.332 . S
N504 C509 1.332 . S
C505 C506 1.388 . S
C505 C509 1.382 . S
C505 H528 0.950 . S
C506 C505 1.388 . S
C506 C507 1.386 . S
C507 C506 1.386 . S
C507 C508 1.382 . S
C507 H529 0.950 . S
C508 N504 1.332 . S
C508 C507 1.382 . S
C508 H510 0.952 . S
C509 N504 1.332 . S
C509 C505 1.382 . S
C509 H511 0.948 . S
H510 C508 0.952 . S
H511 C509 0.948 . S
H512 C501 0.952 . S
H513 C503 0.948 . S
C514 C480 1.395 . S
C514 C484 1.391 . S
C515 C477 1.389 . S
C515 C497 1.392 . S
C516 C487 1.392 . S
C516 C489 1.389 . S
C517 C492 1.395 . S
C517 C494 1.391 . S
H518 C478 0.951 . S
H519 C479 0.950 . S
H520 C485 0.949 . S
H521 C486 0.950 . S
H522 C490 0.951 . S
H523 C491 0.950 . S
H524 C495 0.949 . S
H525 C496 0.950 . S
H526 C500 0.950 . S
H527 C502 0.950 . S
H528 C505 0.950 . S
H529 C507 0.950 . S
C530 C531 1.443 . S
C530 N534 1.376 . S
C530 C568 1.389 . S
C531 C530 1.443 . S
C531 C532 1.340 . S
C531 H571 0.951 . S
C532 C531 1.340 . S
C532 C533 1.439 . S
C532 H572 0.950 . S
C533 C532 1.439 . S
C533 N534 1.374 . S
C533 C567 1.395 . S
N534 C530 1.376 . S
N534 C533 1.374 . S
N534 Co535 2.008 . S
Co535 N534 2.008 . S
Co535 N536 1.995 . S
Co535 N541 2.008 . S
Co535 N546 1.995 . S
Co535 N551 2.282 . S
Co535 N557 2.282 . S
N536 Co535 1.995 . S
N536 C537 1.376 . S
N536 C540 1.383 . S
C537 N536 1.376 . S
C537 C538 1.446 . S
C537 C567 1.391 . S
C538 C537 1.446 . S
C538 C539 1.339 . S
C538 H573 0.949 . S
C539 C538 1.339 . S
C539 C540 1.439 . S
C539 H574 0.950 . S
C540 N536 1.383 . S
C540 C539 1.439 . S
C540 C569 1.392 . S
N541 Co535 2.008 . S
N541 C542 1.376 . S
N541 C545 1.374 . S
C542 N541 1.376 . S
C542 C543 1.443 . S
C542 C569 1.389 . S
C543 C542 1.443 . S
C543 C544 1.340 . S
C543 H575 0.951 . S
C544 C543 1.340 . S
C544 C545 1.439 . S
C544 H576 0.950 . S
C545 N541 1.374 . S
C545 C544 1.439 . S
C545 C570 1.395 . S
N546 Co535 1.995 . S
N546 C547 1.376 . S
N546 C550 1.383 . S
C547 N546 1.376 . S
C547 C548 1.446 . S
C547 C570 1.391 . S
C548 C547 1.446 . S
C548 C549 1.339 . S
C548 H577 0.949 . S
C549 C548 1.339 . S
C549 C550 1.439 . S
C549 H578 0.950 . S
C550 N546 1.383 . S
C550 C549 1.439 . S
C550 C568 1.392 . S
N551 Co535 2.282 . S
N551 C554 1.332 . S
N551 C556 1.332 . S
C552 C553 1.386 . S
C552 C555 1.388 . S
C553 C552 1.386 . S
C553 C554 1.382 . S
C553 H579 0.950 . S
C554 N551 1.332 . S
C554 C553 1.382 . S
C554 H565 0.952 . S
C555 C552 1.388 . S
C555 C556 1.382 . S
C555 H580 0.950 . S
C556 N551 1.332 . S
C556 C555 1.382 . S
C556 H566 0.948 . S
N557 Co535 2.282 . S
N557 C561 1.332 . S
N557 C562 1.332 . S
C558 C559 1.388 . S
C558 C562 1.382 . S
C558 H581 0.950 . S
C559 C558 1.388 . S
C559 C560 1.386 . S
C560 C559 1.386 . S
C560 C561 1.382 . S
C560 H582 0.950 . S
C561 N557 1.332 . S
C561 C560 1.382 . S
C561 H563 0.952 . S
C562 N557 1.332 . S
C562 C558 1.382 . S
C562 H564 0.948 . S
H563 C561 0.952 . S
H564 C562 0.948 . S
H565 C554 0.952 . S
H566 C556 0.948 . S
C567 C533 1.395 . S
C567 C537 1.391 . S
C568 C530 1.389 . S
C568 C550 1.392 . S
C569 C540 1.392 . S
C569 C542 1.389 . S
C570 C545 1.395 . S
C570 C547 1.391 . S
H571 C531 0.951 . S
H572 C532 0.950 . S
H573 C538 0.949 . S
H574 C539 0.950 . S
H575 C543 0.951 . S
H576 C544 0.950 . S
H577 C548 0.949 . S
H578 C549 0.950 . S
H579 C553 0.950 . S
H580 C555 0.950 . S
H581 C558 0.950 . S
H582 C560 0.950 . S
C583 C584 1.443 . S
C583 N587 1.376 . S
C583 C621 1.389 . S
C584 C583 1.443 . S
C584 C585 1.340 . S
C584 H624 0.951 . S
C585 C584 1.340 . S
C585 C586 1.439 . S
C585 H625 0.950 . S
C586 C585 1.439 . S
C586 N587 1.374 . S
C586 C620 1.395 . S
N587 C583 1.376 . S
N587 C586 1.374 . S
N587 Co588 2.008 . S
Co588 N587 2.008 . S
Co588 N589 1.995 . S
Co588 N594 2.008 . S
Co588 N599 1.995 . S
Co588 N604 2.282 . S
Co588 N610 2.282 . S
N589 Co588 1.995 . S
N589 C590 1.376 . S
N589 C593 1.383 . S
C590 N589 1.376 . S
C590 C591 1.446 . S
C590 C620 1.391 . S
C591 C590 1.446 . S
C591 C592 1.339 . S
C591 H626 0.949 . S
C592 C591 1.339 . S
C592 C593 1.439 . S
C592 H627 0.950 . S
C593 N589 1.383 . S
C593 C592 1.439 . S
C593 C622 1.392 . S
N594 Co588 2.008 . S
N594 C595 1.376 . S
N594 C598 1.374 . S
C595 N594 1.376 . S
C595 C596 1.443 . S
C595 C622 1.389 . S
C596 C595 1.443 . S
C596 C597 1.340 . S
C596 H628 0.951 . S
C597 C596 1.340 . S
C597 C598 1.439 . S
C597 H629 0.950 . S
C598 N594 1.374 . S
C598 C597 1.439 . S
C598 C623 1.395 . S
N599 Co588 1.995 . S
N599 C600 1.376 . S
N599 C603 1.383 . S
C600 N599 1.376 . S
C600 C601 1.446 . S
C600 C623 1.391 . S
C601 C600 1.446 . S
C601 C602 1.339 . S
C601 H630 0.949 . S
C602 C601 1.339 . S
C602 C603 1.439 . S
C602 H631 0.950 . S
C603 N599 1.383 . S
C603 C602 1.439 . S
C603 C621 1.392 . S
N604 Co588 2.282 . S
N604 C607 1.332 . S
N604 C609 1.332 . S
C605 C606 1.386 . S
C605 C608 1.388 . S
C606 C605 1.386 . S
C606 C607 1.382 . S
C606 H632 0.950 . S
C607 N604 1.332 . S
C607 C606 1.382 . S
C607 H618 0.952 . S
C608 C605 1.388 . S
C608 C609 1.382 . S
C608 H633 0.950 . S
C609 N604 1.332 . S
C609 C608 1.382 . S
C609 H619 0.948 . S
N610 Co588 2.282 . S
N610 C614 1.332 . S
N610 C615 1.332 . S
C611 C612 1.388 . S
C611 C615 1.382 . S
C611 H634 0.950 . S
C612 C611 1.388 . S
C612 C613 1.386 . S
C613 C612 1.386 . S
C613 C614 1.382 . S
C613 H635 0.950 . S
C614 N610 1.332 . S
C614 C613 1.382 . S
C614 H616 0.952 . S
C615 N610 1.332 . S
C615 C611 1.382 . S
C615 H617 0.948 . S
H616 C614 0.952 . S
H617 C615 0.948 . S
H618 C607 0.952 . S
H619 C609 0.948 . S
C620 C586 1.395 . S
C620 C590 1.391 . S
C621 C583 1.389 . S
C621 C603 1.392 . S
C622 C593 1.392 . S
C622 C595 1.389 . S
C623 C598 1.395 . S
C623 C600 1.391 . S
H624 C584 0.951 . S
H625 C585 0.950 . S
H626 C591 0.949 . S
H627 C592 0.950 . S
H628 C596 0.951 . S
H629 C597 0.950 . S
H630 C601 0.949 . S
H631 C602 0.950 . S
H632 C606 0.950 . S
H633 C608 0.950 . S
H634 C611 0.950 . S
H635 C613 0.950 . S
C636 C637 1.443 . S
C636 N640 1.376 . S
C636 C674 1.389 . S
C637 C636 1.443 . S
C637 C638 1.340 . S
C637 H677 0.951 . S
C638 C637 1.340 . S
C638 C639 1.439 . S
C638 H678 0.950 . S
C639 C638 1.439 . S
C639 N640 1.374 . S
C639 C673 1.395 . S
N640 C636 1.376 . S
N640 C639 1.374 . S
N640 Co641 2.008 . S
Co641 N640 2.008 . S
Co641 N642 1.995 . S
Co641 N647 2.008 . S
Co641 N652 1.995 . S
Co641 N657 2.282 . S
Co641 N663 2.282 . S
N642 Co641 1.995 . S
N642 C643 1.376 . S
N642 C646 1.383 . S
C643 N642 1.376 . S
C643 C644 1.446 . S
C643 C673 1.391 . S
C644 C643 1.446 . S
C644 C645 1.339 . S
C644 H679 0.949 . S
C645 C644 1.339 . S
C645 C646 1.439 . S
C645 H680 0.950 . S
C646 N642 1.383 . S
C646 C645 1.439 . S
C646 C675 1.392 . S
N647 Co641 2.008 . S
N647 C648 1.376 . S
N647 C651 1.374 . S
C648 N647 1.376 . S
C648 C649 1.443 . S
C648 C675 1.389 . S
C649 C648 1.443 . S
C649 C650 1.340 . S
C649 H681 0.951 . S
C650 C649 1.340 . S
C650 C651 1.439 . S
C650 H682 0.950 . S
C651 N647 1.374 . S
C651 C650 1.439 . S
C651 C676 1.395 . S
N652 Co641 1.995 . S
N652 C653 1.376 . S
N652 C656 1.383 . S
C653 N652 1.376 . S
C653 C654 1.446 . S
C653 C676 1.391 . S
C654 C653 1.446 . S
C654 C655 1.339 . S
C654 H683 0.949 . S
C655 C654 1.339 . S
C655 C656 1.439 . S
C655 H684 0.950 . S
C656 N652 1.383 . S
C656 C655 1.439 . S
C656 C674 1.392 . S
N657 Co641 2.282 . S
N657 C660 1.332 . S
N657 C662 1.332 . S
C658 C659 1.386 . S
C658 C661 1.388 . S
C659 C658 1.386 . S
C659 C660 1.382 . S
C659 H685 0.950 . S
C660 N657 1.332 . S
C660 C659 1.382 . S
C660 H671 0.952 . S
C661 C658 1.388 . S
C661 C662 1.382 . S
C661 H686 0.950 . S
C662 N657 1.332 . S
C662 C661 1.382 . S
C662 H672 0.948 . S
N663 Co641 2.282 . S
N663 C667 1.332 . S
N663 C668 1.332 . S
C664 C665 1.388 . S
C664 C668 1.382 . S
C664 H687 0.950 . S
C665 C664 1.388 . S
C665 C666 1.386 . S
C666 C665 1.386 . S
C666 C667 1.382 . S
C666 H688 0.950 . S
C667 N663 1.332 . S
C667 C666 1.382 . S
C667 H669 0.952 . S
C668 N663 1.332 . S
C668 C664 1.382 . S
C668 H670 0.948 . S
H669 C667 0.952 . S
H670 C668 0.948 . S
H671 C660 0.952 . S
H672 C662 0.948 . S
C673 C639 1.395 . S
C673 C643 1.391 . S
C674 C636 1.389 . S
C674 C656 1.392 . S
C675 C646 1.392 . S
C675 C648 1.389 . S
C676 C651 1.395 . S
C676 C653 1.391 . S
H677 C637 0.951 . S
H678 C638 0.950 . S
H679 C644 0.949 . S
H680 C645 0.950 . S
H681 C649 0.951 . S
H682 C650 0.950 . S
H683 C654 0.949 . S
H684 C655 0.950 . S
H685 C659 0.950 . S
H686 C661 0.950 . S
H687 C664 0.950 . S
H688 C666 0.950 . S
C689 C690 1.443 . S
C689 N693 1.376 . S
C689 C727 1.389 . S
C690 C689 1.443 . S
C690 C691 1.340 . S
C690 H730 0.951 . S
C691 C690 1.340 . S
C691 C692 1.439 . S
C691 H731 0.950 . S
C692 C691 1.439 . S
C692 N693 1.374 . S
C692 C726 1.395 . S
N693 C689 1.376 . S
N693 C692 1.374 . S
N693 Co694 2.008 . S
Co694 N693 2.008 . S
Co694 N695 1.995 . S
Co694 N700 2.008 . S
Co694 N705 1.995 . S
Co694 N710 2.282 . S
Co694 N716 2.282 . S
N695 Co694 1.995 . S
N695 C696 1.376 . S
N695 C699 1.383 . S
C696 N695 1.376 . S
C696 C697 1.446 . S
C696 C726 1.391 . S
C697 C696 1.446 . S
C697 C698 1.339 . S
C697 H732 0.949 . S
C698 C697 1.339 . S
C698 C699 1.439 . S
C698 H733 0.950 . S
C699 N695 1.383 . S
C699 C698 1.439 . S
C699 C728 1.392 . S
N700 Co694 2.008 . S
N700 C701 1.376 . S
N700 C704 1.374 . S
C701 N700 1.376 . S
C701 C702 1.443 . S
C701 C728 1.389 . S
C702 C701 1.443 . S
C702 C703 1.340 . S
C702 H734 0.951 . S
C703 C702 1.340 . S
C703 C704 1.439 . S
C703 H735 0.950 . S
C704 N700 1.374 . S
C704 C703 1.439 . S
C704 C729 1.395 . S
N705 Co694 1.995 . S
N705 C706 1.376 . S
N705 C709 1.383 . S
C706 N705 1.376 . S
C706 C707 1.446 . S
C706 C729 1.391 . S
C707 C706 1.446 . S
C707 C708 1.339 . S
C707 H736 0.949 . S
C708 C707 1.339 . S
C708 C709 1.439 . S
C708 H737 0.950 . S
C709 N705 1.383 . S
C709 C708 1.439 . S
C709 C727 1.392 . S
N710 Co694 2.282 . S
N710 C713 1.332 . S
N710 C715 1.332 . S
C711 C712 1.386 . S
C711 C714 1.388 . S
C712 C711 1.386 . S
C712 C713 1.382 . S
C712 H738 0.950 . S
C713 N710 1.332 . S
C713 C712 1.382 . S
C713 H724 0.952 . S
C714 C711 1.388 . S
C714 C715 1.382 . S
C714 H739 0.950 . S
C715 N710 1.332 . S
C715 C714 1.382 . S
C715 H725 0.948 . S
N716 Co694 2.282 . S
N716 C720 1.332 . S
N716 C721 1.332 . S
C717 C718 1.388 . S
C717 C721 1.382 . S
C717 H740 0.950 . S
C718 C717 1.388 . S
C718 C719 1.386 . S
C719 C718 1.386 . S
C719 C720 1.382 . S
C719 H741 0.950 . S
C720 N716 1.332 . S
C720 C719 1.382 . S
C720 H722 0.952 . S
C721 N716 1.332 . S
C721 C717 1.382 . S
C721 H723 0.948 . S
H722 C720 0.952 . S
H723 C721 0.948 . S
H724 C713 0.952 . S
H725 C715 0.948 . S
C726 C692 1.395 . S
C726 C696 1.391 . S
C727 C689 1.389 . S
C727 C709 1.392 . S
C728 C699 1.392 . S
C728 C701 1.389 . S
C729 C704 1.395 . S
C729 C706 1.391 . S
H730 C690 0.951 . S
H731 C691 0.950 . S
H732 C697 0.949 . S
H733 C698 0.950 . S
H734 C702 0.951 . S
H735 C703 0.950 . S
H736 C707 0.949 . S
H737 C708 0.950 . S
H738 C712 0.950 . S
H739 C714 0.950 . S
H740 C717 0.950 . S
H741 C719 0.950 . S
C742 C743 1.443 . S
C742 N746 1.376 . S
C742 C780 1.389 . S
C743 C742 1.443 . S
C743 C744 1.340 . S
C743 H783 0.951 . S
C744 C743 1.340 . S
C744 C745 1.439 . S
C744 H784 0.950 . S
C745 C744 1.439 . S
C745 N746 1.374 . S
C745 C779 1.395 . S
N746 C742 1.376 . S
N746 C745 1.374 . S
N746 Co747 2.008 . S
Co747 N746 2.008 . S
Co747 N748 1.995 . S
Co747 N753 2.008 . S
Co747 N758 1.995 . S
Co747 N763 2.282 . S
Co747 N769 2.282 . S
N748 Co747 1.995 . S
N748 C749 1.376 . S
N748 C752 1.383 . S
C749 N748 1.376 . S
C749 C750 1.446 . S
C749 C779 1.391 . S
C750 C749 1.446 . S
C750 C751 1.339 . S
C750 H785 0.949 . S
C751 C750 1.339 . S
C751 C752 1.439 . S
C751 H786 0.950 . S
C752 N748 1.383 . S
C752 C751 1.439 . S
C752 C781 1.392 . S
N753 Co747 2.008 . S
N753 C754 1.376 . S
N753 C757 1.374 . S
C754 N753 1.376 . S
C754 C755 1.443 . S
C754 C781 1.389 . S
C755 C754 1.443 . S
C755 C756 1.340 . S
C755 H787 0.951 . S
C756 C755 1.340 . S
C756 C757 1.439 . S
C756 H788 0.950 . S
C757 N753 1.374 . S
C757 C756 1.439 . S
C757 C782 1.395 . S
N758 Co747 1.995 . S
N758 C759 1.376 . S
N758 C762 1.383 . S
C759 N758 1.376 . S
C759 C760 1.446 . S
C759 C782 1.391 . S
C760 C759 1.446 . S
C760 C761 1.339 . S
C760 H789 0.949 . S
C761 C760 1.339 . S
C761 C762 1.439 . S
C761 H790 0.950 . S
C762 N758 1.383 . S
C762 C761 1.439 . S
C762 C780 1.392 . S
N763 Co747 2.282 . S
N763 C766 1.332 . S
N763 C768 1.332 . S
C764 C765 1.386 . S
C764 C767 1.388 . S
C765 C764 1.386 . S
C765 C766 1.382 . S
C765 H791 0.950 . S
C766 N763 1.332 . S
C766 C765 1.382 . S
C766 H777 0.952 . S
C767 C764 1.388 . S
C767 C768 1.382 . S
C767 H792 0.950 . S
C768 N763 1.332 . S
C768 C767 1.382 . S
C768 H778 0.948 . S
N769 Co747 2.282 . S
N769 C773 1.332 . S
N769 C774 1.332 . S
C770 C771 1.388 . S
C770 C774 1.382 . S
C770 H793 0.950 . S
C771 C770 1.388 . S
C771 C772 1.386 . S
C772 C771 1.386 . S
C772 C773 1.382 . S
C772 H794 0.950 . S
C773 N769 1.332 . S
C773 C772 1.382 . S
C773 H775 0.952 . S
C774 N769 1.332 . S
C774 C770 1.382 . S
C774 H776 0.948 . S
H775 C773 0.952 . S
H776 C774 0.948 . S
H777 C766 0.952 . S
H778 C768 0.948 . S
C779 C745 1.395 . S
C779 C749 1.391 . S
C780 C742 1.389 . S
C780 C762 1.392 . S
C781 C752 1.392 . S
C781 C754 1.389 . S
C782 C757 1.395 . S
C782 C759 1.391 . S
H783 C743 0.951 . S
H784 C744 0.950 . S
H785 C750 0.949 . S
H786 C751 0.950 . S
H787 C755 0.951 . S
H788 C756 0.950 . S
H789 C760 0.949 . S
H790 C761 0.950 . S
H791 C765 0.950 . S
H792 C767 0.950 . S
H793 C770 0.950 . S
H794 C772 0.950 . S
C795 C796 1.443 . S
C795 N799 1.376 . S
C795 C833 1.389 . S
C796 C795 1.443 . S
C796 C797 1.340 . S
C796 H836 0.951 . S
C797 C796 1.340 . S
C797 C798 1.439 . S
C797 H837 0.950 . S
C798 C797 1.439 . S
C798 N799 1.374 . S
C798 C832 1.395 . S
N799 C795 1.376 . S
N799 C798 1.374 . S
N799 Co800 2.008 . S
Co800 N799 2.008 . S
Co800 N801 1.995 . S
Co800 N806 2.008 . S
Co800 N811 1.995 . S
Co800 N816 2.282 . S
Co800 N822 2.282 . S
N801 Co800 1.995 . S
N801 C802 1.376 . S
N801 C805 1.383 . S
C802 N801 1.376 . S
C802 C803 1.446 . S
C802 C832 1.391 . S
C803 C802 1.446 . S
C803 C804 1.339 . S
C803 H838 0.949 . S
C804 C803 1.339 . S
C804 C805 1.439 . S
C804 H839 0.950 . S
C805 N801 1.383 . S
C805 C804 1.439 . S
C805 C834 1.392 . S
N806 Co800 2.008 . S
N806 C807 1.376 . S
N806 C810 1.374 . S
C807 N806 1.376 . S
C807 C808 1.443 . S
C807 C834 1.389 . S
C808 C807 1.443 . S
C808 C809 1.340 . S
C808 H840 0.951 . S
C809 C808 1.340 . S
C809 C810 1.439 . S
C809 H841 0.950 . S
C810 N806 1.374 . S
C810 C809 1.439 . S
C810 C835 1.395 . S
N811 Co800 1.995 . S
N811 C812 1.376 . S
N811 C815 1.383 . S
C812 N811 1.376 . S
C812 C813 1.446 . S
C812 C835 1.391 . S
C813 C812 1.446 . S
C813 C814 1.339 . S
C813 H842 0.949 . S
C814 C813 1.339 . S
C814 C815 1.439 . S
C814 H843 0.950 . S
C815 N811 1.383 . S
C815 C814 1.439 . S
C815 C833 1.392 . S
N816 Co800 2.282 . S
N816 C819 1.332 . S
N816 C821 1.332 . S
C817 C818 1.386 . S
C817 C820 1.388 . S
C818 C817 1.386 . S
C818 C819 1.382 . S
C818 H844 0.950 . S
C819 N816 1.332 . S
C819 C818 1.382 . S
C819 H830 0.952 . S
C820 C817 1.388 . S
C820 C821 1.382 . S
C820 H845 0.950 . S
C821 N816 1.332 . S
C821 C820 1.382 . S
C821 H831 0.948 . S
N822 Co800 2.282 . S
N822 C826 1.332 . S
N822 C827 1.332 . S
C823 C824 1.388 . S
C823 C827 1.382 . S
C823 H846 0.950 . S
C824 C823 1.388 . S
C824 C825 1.386 . S
C825 C824 1.386 . S
C825 C826 1.382 . S
C825 H847 0.950 . S
C826 N822 1.332 . S
C826 C825 1.382 . S
C826 H828 0.952 . S
C827 N822 1.332 . S
C827 C823 1.382 . S
C827 H829 0.948 . S
H828 C826 0.952 . S
H829 C827 0.948 . S
H830 C819 0.952 . S
H831 C821 0.948 . S
C832 C798 1.395 . S
C832 C802 1.391 . S
C833 C795 1.389 . S
C833 C815 1.392 . S
C834 C805 1.392 . S
C834 C807 1.389 . S
C835 C810 1.395 . S
C835 C812 1.391 . S
H836 C796 0.951 . S
H837 C797 0.950 . S
H838 C803 0.949 . S
H839 C804 0.950 . S
H840 C808 0.951 . S
H841 C809 0.950 . S
H842 C813 0.949 . S
H843 C814 0.950 . S
H844 C818 0.950 . S
H845 C820 0.950 . S
H846 C823 0.950 . S
H847 C825 0.950 . S
C848 C849 1.391 . S
C848 C850 1.394 . S
C848 H864 0.931 . S
C849 C848 1.391 . S
C849 C853 1.376 . S
C850 C848 1.394 . S
C850 C851 1.369 . S
C850 C854 1.531 . S
C851 C850 1.369 . S
C851 C852 1.410 . S
C851 C859 1.503 1_455 S
C852 C851 1.410 . S
C852 C853 1.392 . S
C852 C855 1.511 . S
C853 C849 1.376 . S
C853 C852 1.392 . S
C853 H865 0.929 . S
C854 C850 1.531 . S
C854 H866 0.967 . S
C854 H867 0.962 . S
C854 H868 0.960 . S
C855 C852 1.511 . S
C855 H869 0.961 . S
C855 H870 0.961 1_455 S
C855 H871 0.969 . S
C856 C857 1.370 . S
C856 C858 1.363 . S
C856 H872 0.931 . S
C857 C856 1.370 . S
C857 C861 1.408 . S
C858 C856 1.363 . S
C858 C859 1.370 . S
C858 C862 1.524 . S
C859 C851 1.503 1_655 S
C859 C858 1.370 . S
C859 C860 1.403 . S
C860 C859 1.403 . S
C860 C861 1.404 . S
C860 C863 1.539 . S
C861 C857 1.408 . S
C861 C860 1.404 . S
C861 H873 0.930 . S
C862 C858 1.524 . S
C862 H874 0.956 1_655 S
C862 H875 0.961 1_655 S
C862 H876 0.961 . S
C863 C860 1.539 . S
C863 H877 0.958 . S
C863 H878 0.961 . S
C863 H879 0.960 . S
H864 C848 0.931 . S
H865 C853 0.929 . S
H866 C854 0.967 . S
H867 C854 0.962 . S
H868 C854 0.960 . S
H869 C855 0.961 . S
H870 C855 0.961 1_655 S
H871 C855 0.969 . S
H872 C856 0.931 . S
H873 C861 0.930 . S
H874 C862 0.956 1_455 S
H875 C862 0.961 1_455 S
H876 C862 0.961 . S
H877 C863 0.958 . S
H878 C863 0.961 . S
H879 C863 0.960 . S
C880 C881 1.391 . S
C880 C882 1.394 . S
C880 H896 0.931 . S
C881 C880 1.391 . S
C881 C885 1.376 . S
C882 C880 1.394 . S
C882 C883 1.369 . S
C882 C886 1.531 . S
C883 C882 1.369 . S
C883 C884 1.410 . S
C883 C891 1.503 1_565 S
C884 C883 1.410 . S
C884 C885 1.392 . S
C884 C887 1.511 . S
C885 C881 1.376 . S
C885 C884 1.392 . S
C885 H897 0.929 . S
C886 C882 1.531 . S
C886 H898 0.960 . S
C886 H899 0.962 . S
C886 H900 0.960 . S
C887 C884 1.511 . S
C887 H901 0.961 . S
C887 H902 0.961 1_565 S
C887 H903 0.954 1_565 S
C888 C889 1.370 . S
C888 C890 1.363 . S
C888 H904 0.931 . S
C889 C888 1.370 . S
C889 C893 1.408 . S
C890 C888 1.363 . S
C890 C891 1.370 . S
C890 C894 1.524 . S
C891 C883 1.503 1_545 S
C891 C890 1.370 . S
C891 C892 1.403 . S
C892 C891 1.403 . S
C892 C893 1.404 . S
C892 C895 1.539 . S
C893 C889 1.408 . S
C893 C892 1.404 . S
C893 H905 0.930 . S
C894 C890 1.524 . S
C894 H906 0.956 1_545 S
C894 H907 0.959 . S
C894 H908 0.961 . S
C895 C892 1.539 . S
C895 H909 0.958 . S
C895 H910 0.961 . S
C895 H911 0.960 . S
H896 C880 0.931 . S
H897 C885 0.929 . S
H898 C886 0.960 . S
H899 C886 0.962 . S
H900 C886 0.960 . S
H901 C887 0.961 . S
H902 C887 0.961 1_545 S
H903 C887 0.954 1_545 S
H904 C888 0.931 . S
H905 C893 0.930 . S
H906 C894 0.956 1_565 S
H907 C894 0.959 . S
H908 C894 0.961 . S
H909 C895 0.958 . S
H910 C895 0.961 . S
H911 C895 0.960 . S
C912 C913 1.391 . S
C912 C914 1.394 . S
C912 H928 0.931 . S
C913 C912 1.391 . S
C913 C917 1.376 . S
C914 C912 1.394 . S
C914 C915 1.369 . S
C914 C918 1.531 . S
C915 C914 1.369 . S
C915 C916 1.410 . S
C915 C923 1.503 1_455 S
C916 C915 1.410 . S
C916 C917 1.392 . S
C916 C919 1.511 . S
C917 C913 1.376 . S
C917 C916 1.392 . S
C917 H929 0.929 . S
C918 C914 1.531 . S
C918 H930 0.960 1_455 S
C918 H931 0.962 . S
C918 H932 0.960 . S
C919 C916 1.511 . S
C919 H933 0.961 . S
C919 H934 0.984 . S
C919 H935 0.961 . S
C920 C921 1.370 . S
C920 C922 1.363 . S
C920 H936 0.931 . S
C921 C920 1.370 . S
C921 C925 1.408 . S
C922 C920 1.363 . S
C922 C923 1.370 . S
C922 C926 1.524 . S
C923 C915 1.503 1_655 S
C923 C922 1.370 . S
C923 C924 1.403 . S
C924 C923 1.403 . S
C924 C925 1.404 . S
C924 C927 1.539 . S
C925 C921 1.408 . S
C925 C924 1.404 . S
C925 H937 0.930 . S
C926 C922 1.524 . S
C926 H938 0.956 . S
C926 H939 0.961 . S
C926 H940 0.961 . S
C927 C924 1.539 . S
C927 H941 0.958 . S
C927 H942 0.961 . S
C927 H943 0.960 1_655 S
H928 C912 0.931 . S
H929 C917 0.929 . S
H930 C918 0.960 1_655 S
H931 C918 0.962 . S
H932 C918 0.960 . S
H933 C919 0.961 . S
H934 C919 0.984 . S
H935 C919 0.961 . S
H936 C920 0.931 . S
H937 C925 0.930 . S
H938 C926 0.956 . S
H939 C926 0.961 . S
H940 C926 0.961 . S
H941 C927 0.958 . S
H942 C927 0.961 . S
H943 C927 0.960 1_455 S
C944 C945 1.391 . S
C944 C946 1.394 . S
C944 H960 0.931 . S
C945 C944 1.391 . S
C945 C949 1.376 . S
C946 C944 1.394 . S
C946 C947 1.369 . S
C946 C950 1.531 . S
C947 C946 1.369 . S
C947 C948 1.410 . S
C947 C955 1.503 1_565 S
C948 C947 1.410 . S
C948 C949 1.392 . S
C948 C951 1.511 . S
C949 C945 1.376 . S
C949 C948 1.392 . S
C949 H961 0.929 . S
C950 C946 1.531 . S
C950 H962 0.960 1_565 S
C950 H963 0.962 1_565 S
C950 H964 0.960 . S
C951 C948 1.511 . S
C951 H965 0.961 . S
C951 H966 0.961 . S
C951 H967 0.961 . S
C952 C953 1.370 . S
C952 C954 1.363 . S
C952 H968 0.931 . S
C953 C952 1.370 . S
C953 C957 1.408 . S
C954 C952 1.363 . S
C954 C955 1.370 . S
C954 C958 1.524 . S
C955 C947 1.503 1_545 S
C955 C954 1.370 . S
C955 C956 1.403 . S
C956 C955 1.403 . S
C956 C957 1.404 . S
C956 C959 1.539 . S
C957 C953 1.408 . S
C957 C956 1.404 . S
C957 H969 0.930 . S
C958 C954 1.524 . S
C958 H970 0.956 . S
C958 H971 0.933 1_545 S
C958 H972 0.961 . S
C959 C956 1.539 . S
C959 H973 0.958 . S
C959 H974 0.961 . S
C959 H975 0.960 1_545 S
H960 C944 0.931 . S
H961 C949 0.929 . S
H962 C950 0.960 1_545 S
H963 C950 0.962 1_545 S
H964 C950 0.960 . S
H965 C951 0.961 . S
H966 C951 0.961 . S
H967 C951 0.961 . S
H968 C952 0.931 . S
H969 C957 0.930 . S
H970 C958 0.956 . S
H971 C958 0.933 1_565 S
H972 C958 0.961 . S
H973 C959 0.958 . S
H974 C959 0.961 . S
H975 C959 0.960 1_565 S
C976 C977 1.391 . S
C976 C978 1.394 . S
C976 H992 0.931 . S
C977 C976 1.391 . S
C977 C981 1.376 . S
C978 C976 1.394 . S
C978 C979 1.369 . S
C978 C982 1.531 . S
C979 C978 1.369 . S
C979 C980 1.410 . S
C979 C987 1.503 1_655 S
C980 C979 1.410 . S
C980 C981 1.392 . S
C980 C983 1.511 . S
C981 C977 1.376 . S
C981 C980 1.392 . S
C981 H993 0.929 . S
C982 C978 1.531 . S
C982 H994 0.960 1_655 S
C982 H995 0.962 . S
C982 H996 0.960 . S
C983 C980 1.511 . S
C983 H997 0.961 . S
C983 H998 0.961 1_655 S
C983 H999 0.961 . S
C984 C985 1.370 . S
C984 C986 1.363 . S
C984 H1000 0.931 . S
C985 C984 1.370 . S
C985 C989 1.408 . S
C986 C984 1.363 . S
C986 C987 1.370 . S
C986 C990 1.524 . S
C987 C979 1.503 1_455 S
C987 C986 1.370 . S
C987 C988 1.403 . S
C988 C987 1.403 . S
C988 C989 1.404 . S
C988 C991 1.539 . S
C989 C985 1.408 . S
C989 C988 1.404 . S
C989 H1001 0.930 . S
C990 C986 1.524 . S
C990 H1002 0.956 1_455 S
C990 H1003 0.961 1_455 S
C990 H1004 0.961 . S
C991 C988 1.539 . S
C991 H1005 0.958 . S
C991 H1006 0.961 . S
C991 H1007 0.960 . S
H992 C976 0.931 . S
H993 C981 0.929 . S
H994 C982 0.960 1_455 S
H995 C982 0.962 . S
H996 C982 0.960 . S
H997 C983 0.961 . S
H998 C983 0.961 1_455 S
H999 C983 0.961 . S
H1000 C984 0.931 . S
H1001 C989 0.930 . S
H1002 C990 0.956 1_655 S
H1003 C990 0.961 1_655 S
H1004 C990 0.961 . S
H1005 C991 0.958 . S
H1006 C991 0.961 . S
H1007 C991 0.960 . S
C1008 C1009 1.391 . S
C1008 C1010 1.394 . S
C1008 H1024 0.931 . S
C1009 C1008 1.391 . S
C1009 C1013 1.376 . S
C1010 C1008 1.394 . S
C1010 C1011 1.369 . S
C1010 C1014 1.531 . S
C1011 C1010 1.369 . S
C1011 C1012 1.410 . S
C1011 C1019 1.503 1_545 S
C1012 C1011 1.410 . S
C1012 C1013 1.392 . S
C1012 C1015 1.511 . S
C1013 C1009 1.376 . S
C1013 C1012 1.392 . S
C1013 H1025 0.929 . S
C1014 C1010 1.531 . S
C1014 H1026 0.960 . S
C1014 H1027 0.962 . S
C1014 H1028 0.960 . S
C1015 C1012 1.511 . S
C1015 H1029 0.961 . S
C1015 H1030 0.961 1_545 S
C1015 H1031 0.961 1_545 S
C1016 C1017 1.370 . S
C1016 C1018 1.363 . S
C1016 H1032 0.931 . S
C1017 C1016 1.370 . S
C1017 C1021 1.408 . S
C1018 C1016 1.363 . S
C1018 C1019 1.370 . S
C1018 C1022 1.524 . S
C1019 C1011 1.503 1_565 S
C1019 C1018 1.370 . S
C1019 C1020 1.403 . S
C1020 C1019 1.403 . S
C1020 C1021 1.404 . S
C1020 C1023 1.539 . S
C1021 C1017 1.408 . S
C1021 C1020 1.404 . S
C1021 H1033 0.930 . S
C1022 C1018 1.524 . S
C1022 H1034 0.956 1_565 S
C1022 H1035 0.961 1_565 S
C1022 H1036 0.961 . S
C1023 C1020 1.539 . S
C1023 H1037 0.958 . S
C1023 H1038 0.961 . S
C1023 H1039 0.960 . S
H1024 C1008 0.931 . S
H1025 C1013 0.929 . S
H1026 C1014 0.960 . S
H1027 C1014 0.962 . S
H1028 C1014 0.960 . S
H1029 C1015 0.961 . S
H1030 C1015 0.961 1_565 S
H1031 C1015 0.961 1_565 S
H1032 C1016 0.931 . S
H1033 C1021 0.930 . S
H1034 C1022 0.956 1_545 S
H1035 C1022 0.961 1_545 S
H1036 C1022 0.961 . S
H1037 C1023 0.958 . S
H1038 C1023 0.961 . S
H1039 C1023 0.960 . S
C1040 C1041 1.391 . S
C1040 C1042 1.394 . S
C1040 H1056 0.931 . S
C1041 C1040 1.391 . S
C1041 C1045 1.376 . S
C1042 C1040 1.394 . S
C1042 C1043 1.369 . S
C1042 C1046 1.531 . S
C1043 C1042 1.369 . S
C1043 C1044 1.410 . S
C1043 C1051 1.503 1_655 S
C1044 C1043 1.410 . S
C1044 C1045 1.392 . S
C1044 C1047 1.511 . S
C1045 C1041 1.376 . S
C1045 C1044 1.392 . S
C1045 H1057 0.929 . S
C1046 C1042 1.531 . S
C1046 H1058 0.960 . S
C1046 H1059 0.962 . S
C1046 H1060 0.960 . S
C1047 C1044 1.511 . S
C1047 H1061 0.961 . S
C1047 H1062 0.961 1_655 S
C1047 H1063 0.961 1_655 S
C1048 C1049 1.370 . S
C1048 C1050 1.363 . S
C1048 H1064 0.931 . S
C1049 C1048 1.370 . S
C1049 C1053 1.408 . S
C1050 C1048 1.363 . S
C1050 C1051 1.370 . S
C1050 C1054 1.524 . S
C1051 C1043 1.503 1_455 S
C1051 C1050 1.370 . S
C1051 C1052 1.403 . S
C1052 C1051 1.403 . S
C1052 C1053 1.404 . S
C1052 C1055 1.539 . S
C1053 C1049 1.408 . S
C1053 C1052 1.404 . S
C1053 H1065 0.930 . S
C1054 C1050 1.524 . S
C1054 H1066 0.956 1_455 S
C1054 H1067 0.961 1_455 S
C1054 H1068 0.961 . S
C1055 C1052 1.539 . S
C1055 H1069 0.958 . S
C1055 H1070 0.961 . S
C1055 H1071 0.960 . S
H1056 C1040 0.931 . S
H1057 C1045 0.929 . S
H1058 C1046 0.960 . S
H1059 C1046 0.962 . S
H1060 C1046 0.960 . S
H1061 C1047 0.961 . S
H1062 C1047 0.961 1_455 S
H1063 C1047 0.961 1_455 S
H1064 C1048 0.931 . S
H1065 C1053 0.930 . S
H1066 C1054 0.956 1_655 S
H1067 C1054 0.961 1_655 S
H1068 C1054 0.961 . S
H1069 C1055 0.958 . S
H1070 C1055 0.961 . S
H1071 C1055 0.960 . S
C1072 C1073 1.391 . S
C1072 C1074 1.394 . S
C1072 H1088 0.931 . S
C1073 C1072 1.391 . S
C1073 C1077 1.376 . S
C1074 C1072 1.394 . S
C1074 C1075 1.369 . S
C1074 C1078 1.531 . S
C1075 C1074 1.369 . S
C1075 C1076 1.410 . S
C1075 C1083 1.503 1_545 S
C1076 C1075 1.410 . S
C1076 C1077 1.392 . S
C1076 C1079 1.511 . S
C1077 C1073 1.376 . S
C1077 C1076 1.392 . S
C1077 H1089 0.929 . S
C1078 C1074 1.531 . S
C1078 H1090 0.960 1_545 S
C1078 H1091 0.962 . S
C1078 H1092 0.960 . S
C1079 C1076 1.511 . S
C1079 H1093 0.961 . S
C1079 H1094 0.961 1_545 S
C1079 H1095 0.961 . S
C1080 C1081 1.370 . S
C1080 C1082 1.363 . S
C1080 H1096 0.931 . S
C1081 C1080 1.370 . S
C1081 C1085 1.408 . S
C1082 C1080 1.363 . S
C1082 C1083 1.370 . S
C1082 C1086 1.524 . S
C1083 C1075 1.503 1_565 S
C1083 C1082 1.370 . S
C1083 C1084 1.403 . S
C1084 C1083 1.403 . S
C1084 C1085 1.404 . S
C1084 C1087 1.539 . S
C1085 C1081 1.408 . S
C1085 C1084 1.404 . S
C1085 H1097 0.930 . S
C1086 C1082 1.524 . S
C1086 H1098 0.956 1_565 S
C1086 H1099 0.961 1_565 S
C1086 H1100 0.961 . S
C1087 C1084 1.539 . S
C1087 H1101 0.958 . S
C1087 H1102 0.961 . S
C1087 H1103 0.960 . S
H1088 C1072 0.931 . S
H1089 C1077 0.929 . S
H1090 C1078 0.960 1_565 S
H1091 C1078 0.962 . S
H1092 C1078 0.960 . S
H1093 C1079 0.961 . S
H1094 C1079 0.961 1_565 S
H1095 C1079 0.961 . S
H1096 C1080 0.931 . S
H1097 C1085 0.930 . S
H1098 C1086 0.956 1_545 S
H1099 C1086 0.961 1_545 S
H1100 C1086 0.961 . S
H1101 C1087 0.958 . S
H1102 C1087 0.961 . S
H1103 C1087 0.960 . S
C1104 C1105 1.391 . S
C1104 C1106 1.394 . S
C1104 H1120 0.931 . S
C1105 C1104 1.391 . S
C1105 C1109 1.376 . S
C1106 C1104 1.394 . S
C1106 C1107 1.369 . S
C1106 C1110 1.531 . S
C1107 C1106 1.369 . S
C1107 C1108 1.410 . S
C1107 C1115 1.503 . S
C1108 C1107 1.410 . S
C1108 C1109 1.392 . S
C1108 C1111 1.511 . S
C1109 C1105 1.376 . S
C1109 C1108 1.392 . S
C1109 H1121 0.929 . S
C1110 C1106 1.531 . S
C1110 H1122 0.960 . S
C1110 H1123 0.962 . S
C1110 H1124 0.960 . S
C1111 C1108 1.511 . S
C1111 H1125 0.961 . S
C1111 H1126 0.961 . S
C1111 H1127 0.961 . S
C1112 C1113 1.370 . S
C1112 C1114 1.363 . S
C1112 H1128 0.931 . S
C1113 C1112 1.370 . S
C1113 C1117 1.408 . S
C1114 C1112 1.363 . S
C1114 C1115 1.370 . S
C1114 C1118 1.524 . S
C1115 C1107 1.503 . S
C1115 C1114 1.370 . S
C1115 C1116 1.403 . S
C1116 C1115 1.403 . S
C1116 C1117 1.404 . S
C1116 C1119 1.539 . S
C1117 C1113 1.408 . S
C1117 C1116 1.404 . S
C1117 H1129 0.930 . S
C1118 C1114 1.524 . S
C1118 H1130 0.956 . S
C1118 H1131 0.961 . S
C1118 H1132 0.961 . S
C1119 C1116 1.539 . S
C1119 H1133 0.958 . S
C1119 H1134 0.961 . S
C1119 H1135 0.960 . S
H1120 C1104 0.931 . S
H1121 C1109 0.929 . S
H1122 C1110 0.960 . S
H1123 C1110 0.962 . S
H1124 C1110 0.960 . S
H1125 C1111 0.961 . S
H1126 C1111 0.961 . S
H1127 C1111 0.961 . S
H1128 C1112 0.931 . S
H1129 C1117 0.930 . S
H1130 C1118 0.956 . S
H1131 C1118 0.961 . S
H1132 C1118 0.961 . S
H1133 C1119 0.958 . S
H1134 C1119 0.961 . S
H1135 C1119 0.960 . S
C1136 C1137 1.391 . S
C1136 C1138 1.394 . S
C1136 H1152 0.931 . S
C1137 C1136 1.391 . S
C1137 C1141 1.376 . S
C1138 C1136 1.394 . S
C1138 C1139 1.369 . S
C1138 C1142 1.531 . S
C1139 C1138 1.369 . S
C1139 C1140 1.410 . S
C1139 C1147 1.503 . S
C1140 C1139 1.410 . S
C1140 C1141 1.392 . S
C1140 C1143 1.511 . S
C1141 C1137 1.376 . S
C1141 C1140 1.392 . S
C1141 H1153 0.929 . S
C1142 C1138 1.531 . S
C1142 H1154 0.960 . S
C1142 H1155 0.962 . S
C1142 H1156 0.960 . S
C1143 C1140 1.511 . S
C1143 H1157 0.961 . S
C1143 H1158 0.961 . S
C1143 H1159 0.961 . S
C1144 C1145 1.370 . S
C1144 C1146 1.363 . S
C1144 H1160 0.931 . S
C1145 C1144 1.370 . S
C1145 C1149 1.408 . S
C1146 C1144 1.363 . S
C1146 C1147 1.370 . S
C1146 C1150 1.524 . S
C1147 C1139 1.503 . S
C1147 C1146 1.370 . S
C1147 C1148 1.403 . S
C1148 C1147 1.403 . S
C1148 C1149 1.404 . S
C1148 C1151 1.539 . S
C1149 C1145 1.408 . S
C1149 C1148 1.404 . S
C1149 H1161 0.930 . S
C1150 C1146 1.524 . S
C1150 H1162 0.956 . S
C1150 H1163 0.961 . S
C1150 H1164 0.961 . S
C1151 C1148 1.539 . S
C1151 H1165 0.958 . S
C1151 H1166 0.961 . S
C1151 H1167 0.960 . S
H1152 C1136 0.931 . S
H1153 C1141 0.929 . S
H1154 C1142 0.960 . S
H1155 C1142 0.962 . S
H1156 C1142 0.960 . S
H1157 C1143 0.961 . S
H1158 C1143 0.961 . S
H1159 C1143 0.961 . S
H1160 C1144 0.931 . S
H1161 C1149 0.930 . S
H1162 C1150 0.956 . S
H1163 C1150 0.961 . S
H1164 C1150 0.961 . S
H1165 C1151 0.958 . S
H1166 C1151 0.961 . S
H1167 C1151 0.960 . S
C1168 C1169 1.391 . S
C1168 C1170 1.394 . S
C1168 H1184 0.931 . S
C1169 C1168 1.391 . S
C1169 C1173 1.376 . S
C1170 C1168 1.394 . S
C1170 C1171 1.369 . S
C1170 C1174 1.531 . S
C1171 C1170 1.369 . S
C1171 C1172 1.410 . S
C1171 C1179 1.503 . S
C1172 C1171 1.410 . S
C1172 C1173 1.392 . S
C1172 C1175 1.511 . S
C1173 C1169 1.376 . S
C1173 C1172 1.392 . S
C1173 H1185 0.929 . S
C1174 C1170 1.531 . S
C1174 H1186 0.960 . S
C1174 H1187 0.962 . S
C1174 H1188 0.960 . S
C1175 C1172 1.511 . S
C1175 H1189 0.961 . S
C1175 H1190 0.961 . S
C1175 H1191 0.961 . S
C1176 C1177 1.370 . S
C1176 C1178 1.363 . S
C1176 H1192 0.931 . S
C1177 C1176 1.370 . S
C1177 C1181 1.408 . S
C1178 C1176 1.363 . S
C1178 C1179 1.370 . S
C1178 C1182 1.524 . S
C1179 C1171 1.503 . S
C1179 C1178 1.370 . S
C1179 C1180 1.403 . S
C1180 C1179 1.403 . S
C1180 C1181 1.404 . S
C1180 C1183 1.539 . S
C1181 C1177 1.408 . S
C1181 C1180 1.404 . S
C1181 H1193 0.930 . S
C1182 C1178 1.524 . S
C1182 H1194 0.956 . S
C1182 H1195 0.961 . S
C1182 H1196 0.961 . S
C1183 C1180 1.539 . S
C1183 H1197 0.958 . S
C1183 H1198 0.961 . S
C1183 H1199 0.960 . S
H1184 C1168 0.931 . S
H1185 C1173 0.929 . S
H1186 C1174 0.960 . S
H1187 C1174 0.962 . S
H1188 C1174 0.960 . S
H1189 C1175 0.961 . S
H1190 C1175 0.961 . S
H1191 C1175 0.961 . S
H1192 C1176 0.931 . S
H1193 C1181 0.930 . S
H1194 C1182 0.956 . S
H1195 C1182 0.961 . S
H1196 C1182 0.961 . S
H1197 C1183 0.958 . S
H1198 C1183 0.961 . S
H1199 C1183 0.960 . S
C1200 C1201 1.391 . S
C1200 C1202 1.394 . S
C1200 H1216 0.931 . S
C1201 C1200 1.391 . S
C1201 C1205 1.376 . S
C1202 C1200 1.394 . S
C1202 C1203 1.369 . S
C1202 C1206 1.531 . S
C1203 C1202 1.369 . S
C1203 C1204 1.410 . S
C1203 C1211 1.503 . S
C1204 C1203 1.410 . S
C1204 C1205 1.392 . S
C1204 C1207 1.511 . S
C1205 C1201 1.376 . S
C1205 C1204 1.392 . S
C1205 H1217 0.929 . S
C1206 C1202 1.531 . S
C1206 H1218 0.960 . S
C1206 H1219 0.962 . S
C1206 H1220 0.960 . S
C1207 C1204 1.511 . S
C1207 H1221 0.961 . S
C1207 H1222 0.961 . S
C1207 H1223 0.961 . S
C1208 C1209 1.370 . S
C1208 C1210 1.363 . S
C1208 H1224 0.931 . S
C1209 C1208 1.370 . S
C1209 C1213 1.408 . S
C1210 C1208 1.363 . S
C1210 C1211 1.370 . S
C1210 C1214 1.524 . S
C1211 C1203 1.503 . S
C1211 C1210 1.370 . S
C1211 C1212 1.403 . S
C1212 C1211 1.403 . S
C1212 C1213 1.404 . S
C1212 C1215 1.539 . S
C1213 C1209 1.408 . S
C1213 C1212 1.404 . S
C1213 H1225 0.930 . S
C1214 C1210 1.524 . S
C1214 H1226 0.956 . S
C1214 H1227 0.961 . S
C1214 H1228 0.961 . S
C1215 C1212 1.539 . S
C1215 H1229 0.958 . S
C1215 H1230 0.961 . S
C1215 H1231 0.960 . S
H1216 C1200 0.931 . S
H1217 C1205 0.929 . S
H1218 C1206 0.960 . S
H1219 C1206 0.962 . S
H1220 C1206 0.960 . S
H1221 C1207 0.961 . S
H1222 C1207 0.961 . S
H1223 C1207 0.961 . S
H1224 C1208 0.931 . S
H1225 C1213 0.930 . S
H1226 C1214 0.956 . S
H1227 C1214 0.961 . S
H1228 C1214 0.961 . S
H1229 C1215 0.958 . S
H1230 C1215 0.961 . S
H1231 C1215 0.960 . S
C1232 C1233 1.391 . S
C1232 C1234 1.394 . S
C1232 H1248 0.931 . S
C1233 C1232 1.391 . S
C1233 C1237 1.376 . S
C1234 C1232 1.394 . S
C1234 C1235 1.369 . S
C1234 C1238 1.531 . S
C1235 C1234 1.369 . S
C1235 C1236 1.410 . S
C1235 C1243 1.503 . S
C1236 C1235 1.410 . S
C1236 C1237 1.392 . S
C1236 C1239 1.511 . S
C1237 C1233 1.376 . S
C1237 C1236 1.392 . S
C1237 H1249 0.929 . S
C1238 C1234 1.531 . S
C1238 H1250 0.960 . S
C1238 H1251 0.962 . S
C1238 H1252 0.960 . S
C1239 C1236 1.511 . S
C1239 H1253 0.961 . S
C1239 H1254 0.961 . S
C1239 H1255 0.961 . S
C1240 C1241 1.370 . S
C1240 C1242 1.363 . S
C1240 H1256 0.931 . S
C1241 C1240 1.370 . S
C1241 C1245 1.408 . S
C1242 C1240 1.363 . S
C1242 C1243 1.370 . S
C1242 C1246 1.524 . S
C1243 C1235 1.503 . S
C1243 C1242 1.370 . S
C1243 C1244 1.403 . S
C1244 C1243 1.403 . S
C1244 C1245 1.404 . S
C1244 C1247 1.539 . S
C1245 C1241 1.408 . S
C1245 C1244 1.404 . S
C1245 H1257 0.930 . S
C1246 C1242 1.524 . S
C1246 H1258 0.956 . S
C1246 H1259 0.961 . S
C1246 H1260 0.961 . S
C1247 C1244 1.539 . S
C1247 H1261 0.958 . S
C1247 H1262 0.961 . S
C1247 H1263 0.960 . S
H1248 C1232 0.931 . S
H1249 C1237 0.929 . S
H1250 C1238 0.960 . S
H1251 C1238 0.962 . S
H1252 C1238 0.960 . S
H1253 C1239 0.961 . S
H1254 C1239 0.961 . S
H1255 C1239 0.961 . S
H1256 C1240 0.931 . S
H1257 C1245 0.930 . S
H1258 C1246 0.956 . S
H1259 C1246 0.961 . S
H1260 C1246 0.961 . S
H1261 C1247 0.958 . S
H1262 C1247 0.961 . S
H1263 C1247 0.960 . S
C1264 C1265 1.391 . S
C1264 C1266 1.394 . S
C1264 H1280 0.931 . S
C1265 C1264 1.391 . S
C1265 C1269 1.376 . S
C1266 C1264 1.394 . S
C1266 C1267 1.369 . S
C1266 C1270 1.531 . S
C1267 C1266 1.369 . S
C1267 C1268 1.410 . S
C1267 C1275 1.503 . S
C1268 C1267 1.410 . S
C1268 C1269 1.392 . S
C1268 C1271 1.511 . S
C1269 C1265 1.376 . S
C1269 C1268 1.392 . S
C1269 H1281 0.929 . S
C1270 C1266 1.531 . S
C1270 H1282 0.960 . S
C1270 H1283 0.962 . S
C1270 H1284 0.960 . S
C1271 C1268 1.511 . S
C1271 H1285 0.961 . S
C1271 H1286 0.961 . S
C1271 H1287 0.961 . S
C1272 C1273 1.370 . S
C1272 C1274 1.363 . S
C1272 H1288 0.931 . S
C1273 C1272 1.370 . S
C1273 C1277 1.408 . S
C1274 C1272 1.363 . S
C1274 C1275 1.370 . S
C1274 C1278 1.524 . S
C1275 C1267 1.503 . S
C1275 C1274 1.370 . S
C1275 C1276 1.403 . S
C1276 C1275 1.403 . S
C1276 C1277 1.404 . S
C1276 C1279 1.539 . S
C1277 C1273 1.408 . S
C1277 C1276 1.404 . S
C1277 H1289 0.930 . S
C1278 C1274 1.524 . S
C1278 H1290 0.956 . S
C1278 H1291 0.961 . S
C1278 H1292 0.961 . S
C1279 C1276 1.539 . S
C1279 H1293 0.958 . S
C1279 H1294 0.961 . S
C1279 H1295 0.960 . S
H1280 C1264 0.931 . S
H1281 C1269 0.929 . S
H1282 C1270 0.960 . S
H1283 C1270 0.962 . S
H1284 C1270 0.960 . S
H1285 C1271 0.961 . S
H1286 C1271 0.961 . S
H1287 C1271 0.961 . S
H1288 C1272 0.931 . S
H1289 C1277 0.930 . S
H1290 C1278 0.956 . S
H1291 C1278 0.961 . S
H1292 C1278 0.961 . S
H1293 C1279 0.958 . S
H1294 C1279 0.961 . S
H1295 C1279 0.960 . S
C1296 C1297 1.391 . S
C1296 C1298 1.394 . S
C1296 H1312 0.931 . S
C1297 C1296 1.391 . S
C1297 C1301 1.376 . S
C1298 C1296 1.394 . S
C1298 C1299 1.369 . S
C1298 C1302 1.531 . S
C1299 C1298 1.369 . S
C1299 C1300 1.410 . S
C1299 C1307 1.503 . S
C1300 C1299 1.410 . S
C1300 C1301 1.392 . S
C1300 C1303 1.511 . S
C1301 C1297 1.376 . S
C1301 C1300 1.392 . S
C1301 H1313 0.929 . S
C1302 C1298 1.531 . S
C1302 H1314 0.960 . S
C1302 H1315 0.962 . S
C1302 H1316 0.960 . S
C1303 C1300 1.511 . S
C1303 H1317 0.961 . S
C1303 H1318 0.961 . S
C1303 H1319 0.961 . S
C1304 C1305 1.370 . S
C1304 C1306 1.363 . S
C1304 H1320 0.931 . S
C1305 C1304 1.370 . S
C1305 C1309 1.408 . S
C1306 C1304 1.363 . S
C1306 C1307 1.370 . S
C1306 C1310 1.524 . S
C1307 C1299 1.503 . S
C1307 C1306 1.370 . S
C1307 C1308 1.403 . S
C1308 C1307 1.403 . S
C1308 C1309 1.404 . S
C1308 C1311 1.539 . S
C1309 C1305 1.408 . S
C1309 C1308 1.404 . S
C1309 H1321 0.930 . S
C1310 C1306 1.524 . S
C1310 H1322 0.956 . S
C1310 H1323 0.961 . S
C1310 H1324 0.961 . S
C1311 C1308 1.539 . S
C1311 H1325 0.958 . S
C1311 H1326 0.961 . S
C1311 H1327 0.960 . S
H1312 C1296 0.931 . S
H1313 C1301 0.929 . S
H1314 C1302 0.960 . S
H1315 C1302 0.962 . S
H1316 C1302 0.960 . S
H1317 C1303 0.961 . S
H1318 C1303 0.961 . S
H1319 C1303 0.961 . S
H1320 C1304 0.931 . S
H1321 C1309 0.930 . S
H1322 C1310 0.956 . S
H1323 C1310 0.961 . S
H1324 C1310 0.961 . S
H1325 C1311 0.958 . S
H1326 C1311 0.961 . S
H1327 C1311 0.960 . S
C1328 C1329 1.391 . S
C1328 C1330 1.394 . S
C1328 H1344 0.931 . S
C1329 C1328 1.391 . S
C1329 C1333 1.376 . S
C1330 C1328 1.394 . S
C1330 C1331 1.369 . S
C1330 C1334 1.531 . S
C1331 C1330 1.369 . S
C1331 C1332 1.410 . S
C1331 C1339 1.503 . S
C1332 C1331 1.410 . S
C1332 C1333 1.392 . S
C1332 C1335 1.511 . S
C1333 C1329 1.376 . S
C1333 C1332 1.392 . S
C1333 H1345 0.929 . S
C1334 C1330 1.531 . S
C1334 H1346 0.960 . S
C1334 H1347 0.962 . S
C1334 H1348 0.960 . S
C1335 C1332 1.511 . S
C1335 H1349 0.961 . S
C1335 H1350 0.961 . S
C1335 H1351 0.961 . S
C1336 C1337 1.370 . S
C1336 C1338 1.363 . S
C1336 H1352 0.931 . S
C1337 C1336 1.370 . S
C1337 C1341 1.408 . S
C1338 C1336 1.363 . S
C1338 C1339 1.370 . S
C1338 C1342 1.524 . S
C1339 C1331 1.503 . S
C1339 C1338 1.370 . S
C1339 C1340 1.403 . S
C1340 C1339 1.403 . S
C1340 C1341 1.404 . S
C1340 C1343 1.539 . S
C1341 C1337 1.408 . S
C1341 C1340 1.404 . S
C1341 H1353 0.930 . S
C1342 C1338 1.524 . S
C1342 H1354 0.956 . S
C1342 H1355 0.961 . S
C1342 H1356 0.961 . S
C1343 C1340 1.539 . S
C1343 H1357 0.958 . S
C1343 H1358 0.961 . S
C1343 H1359 0.960 . S
H1344 C1328 0.931 . S
H1345 C1333 0.929 . S
H1346 C1334 0.960 . S
H1347 C1334 0.962 . S
H1348 C1334 0.960 . S
H1349 C1335 0.961 . S
H1350 C1335 0.961 . S
H1351 C1335 0.961 . S
H1352 C1336 0.931 . S
H1353 C1341 0.930 . S
H1354 C1342 0.956 . S
H1355 C1342 0.961 . S
H1356 C1342 0.961 . S
H1357 C1343 0.958 . S
H1358 C1343 0.961 . S
H1359 C1343 0.960 . S
C1360 C1361 1.391 . S
C1360 C1362 1.394 . S
C1360 H1376 0.931 . S
C1361 C1360 1.391 . S
C1361 C1365 1.376 . S
C1362 C1360 1.394 . S
C1362 C1363 1.369 . S
C1362 C1366 1.531 . S
C1363 C1362 1.369 . S
C1363 C1364 1.410 . S
C1363 C1371 1.503 1_556 S
C1364 C1363 1.410 . S
C1364 C1365 1.392 . S
C1364 C1367 1.511 . S
C1365 C1361 1.376 . S
C1365 C1364 1.392 . S
C1365 H1377 0.929 . S
C1366 C1362 1.531 . S
C1366 H1378 0.960 1_556 S
C1366 H1379 0.962 . S
C1366 H1380 0.960 . S
C1367 C1364 1.511 . S
C1367 H1381 0.961 . S
C1367 H1382 0.961 1_556 S
C1367 H1383 0.961 . S
C1368 C1369 1.370 . S
C1368 C1370 1.363 . S
C1368 H1384 0.931 . S
C1369 C1368 1.370 . S
C1369 C1373 1.408 . S
C1370 C1368 1.363 . S
C1370 C1371 1.370 . S
C1370 C1374 1.524 . S
C1371 C1363 1.503 1_554 S
C1371 C1370 1.370 . S
C1371 C1372 1.403 . S
C1372 C1371 1.403 . S
C1372 C1373 1.404 . S
C1372 C1375 1.539 . S
C1373 C1369 1.408 . S
C1373 C1372 1.404 . S
C1373 H1385 0.930 . S
C1374 C1370 1.524 . S
C1374 H1386 0.984 . S
C1374 H1387 0.961 1_554 S
C1374 H1388 0.961 . S
C1375 C1372 1.539 . S
C1375 H1389 0.958 . S
C1375 H1390 0.961 . S
C1375 H1391 0.970 . S
H1376 C1360 0.931 . S
H1377 C1365 0.929 . S
H1378 C1366 0.960 1_554 S
H1379 C1366 0.962 . S
H1380 C1366 0.960 . S
H1381 C1367 0.961 . S
H1382 C1367 0.961 1_554 S
H1383 C1367 0.961 . S
H1384 C1368 0.931 . S
H1385 C1373 0.930 . S
H1386 C1374 0.984 . S
H1387 C1374 0.961 1_556 S
H1388 C1374 0.961 . S
H1389 C1375 0.958 . S
H1390 C1375 0.961 . S
H1391 C1375 0.970 . S
C1392 C1393 1.391 . S
C1392 C1394 1.394 . S
C1392 H1408 0.931 . S
C1393 C1392 1.391 . S
C1393 C1397 1.376 . S
C1394 C1392 1.394 . S
C1394 C1395 1.369 . S
C1394 C1398 1.531 . S
C1395 C1394 1.369 . S
C1395 C1396 1.410 . S
C1395 C1403 1.503 . S
C1396 C1395 1.410 . S
C1396 C1397 1.392 . S
C1396 C1399 1.511 . S
C1397 C1393 1.376 . S
C1397 C1396 1.392 . S
C1397 H1409 0.929 . S
C1398 C1394 1.531 . S
C1398 H1410 0.960 . S
C1398 H1411 0.962 . S
C1398 H1412 0.960 . S
C1399 C1396 1.511 . S
C1399 H1413 0.961 . S
C1399 H1414 0.961 . S
C1399 H1415 0.961 . S
C1400 C1401 1.370 . S
C1400 C1402 1.363 . S
C1400 H1416 0.931 . S
C1401 C1400 1.370 . S
C1401 C1405 1.408 . S
C1402 C1400 1.363 . S
C1402 C1403 1.370 . S
C1402 C1406 1.524 . S
C1403 C1395 1.503 . S
C1403 C1402 1.370 . S
C1403 C1404 1.403 . S
C1404 C1403 1.403 . S
C1404 C1405 1.404 . S
C1404 C1407 1.539 . S
C1405 C1401 1.408 . S
C1405 C1404 1.404 . S
C1405 H1417 0.930 . S
C1406 C1402 1.524 . S
C1406 H1418 0.956 . S
C1406 H1419 0.961 . S
C1406 H1420 0.961 . S
C1407 C1404 1.539 . S
C1407 H1421 0.958 . S
C1407 H1422 0.961 . S
C1407 H1423 0.960 . S
H1408 C1392 0.931 . S
H1409 C1397 0.929 . S
H1410 C1398 0.960 . S
H1411 C1398 0.962 . S
H1412 C1398 0.960 . S
H1413 C1399 0.961 . S
H1414 C1399 0.961 . S
H1415 C1399 0.961 . S
H1416 C1400 0.931 . S
H1417 C1405 0.930 . S
H1418 C1406 0.956 . S
H1419 C1406 0.961 . S
H1420 C1406 0.961 . S
H1421 C1407 0.958 . S
H1422 C1407 0.961 . S
H1423 C1407 0.960 . S
C1424 C1425 1.391 . S
C1424 C1426 1.394 . S
C1424 H1440 0.931 . S
C1425 C1424 1.391 . S
C1425 C1429 1.376 . S
C1426 C1424 1.394 . S
C1426 C1427 1.369 . S
C1426 C1430 1.531 . S
C1427 C1426 1.369 . S
C1427 C1428 1.410 . S
C1427 C1435 1.503 1_554 S
C1428 C1427 1.410 . S
C1428 C1429 1.392 . S
C1428 C1431 1.511 . S
C1429 C1425 1.376 . S
C1429 C1428 1.392 . S
C1429 H1441 0.929 . S
C1430 C1426 1.531 . S
C1430 H1442 0.960 1_554 S
C1430 H1443 0.962 . S
C1430 H1444 0.960 . S
C1431 C1428 1.511 . S
C1431 H1445 0.961 . S
C1431 H1446 0.961 1_554 S
C1431 H1447 0.961 . S
C1432 C1433 1.370 . S
C1432 C1434 1.363 . S
C1432 H1448 0.931 . S
C1433 C1432 1.370 . S
C1433 C1437 1.408 . S
C1434 C1432 1.363 . S
C1434 C1435 1.370 . S
C1434 C1438 1.524 . S
C1435 C1427 1.503 1_556 S
C1435 C1434 1.370 . S
C1435 C1436 1.403 . S
C1436 C1435 1.403 . S
C1436 C1437 1.404 . S
C1436 C1439 1.539 . S
C1437 C1433 1.408 . S
C1437 C1436 1.404 . S
C1437 H1449 0.930 . S
C1438 C1434 1.524 . S
C1438 H1450 0.984 . S
C1438 H1451 0.961 1_556 S
C1438 H1452 0.961 . S
C1439 C1436 1.539 . S
C1439 H1453 0.958 . S
C1439 H1454 0.961 . S
C1439 H1455 0.970 . S
H1440 C1424 0.931 . S
H1441 C1429 0.929 . S
H1442 C1430 0.960 1_556 S
H1443 C1430 0.962 . S
H1444 C1430 0.960 . S
H1445 C1431 0.961 . S
H1446 C1431 0.961 1_556 S
H1447 C1431 0.961 . S
H1448 C1432 0.931 . S
H1449 C1437 0.930 . S
H1450 C1438 0.984 . S
H1451 C1438 0.961 1_554 S
H1452 C1438 0.961 . S
H1453 C1439 0.958 . S
H1454 C1439 0.961 . S
H1455 C1439 0.970 . S
C1456 C1457 1.391 . S
C1456 C1458 1.394 . S
C1456 H1472 0.931 . S
C1457 C1456 1.391 . S
C1457 C1461 1.376 . S
C1458 C1456 1.394 . S
C1458 C1459 1.369 . S
C1458 C1462 1.531 . S
C1459 C1458 1.369 . S
C1459 C1460 1.410 . S
C1459 C1467 1.503 . S
C1460 C1459 1.410 . S
C1460 C1461 1.392 . S
C1460 C1463 1.511 . S
C1461 C1457 1.376 . S
C1461 C1460 1.392 . S
C1461 H1473 0.929 . S
C1462 C1458 1.531 . S
C1462 H1474 0.960 . S
C1462 H1475 0.962 . S
C1462 H1476 0.960 . S
C1463 C1460 1.511 . S
C1463 H1477 0.961 . S
C1463 H1478 0.961 . S
C1463 H1479 0.961 . S
C1464 C1465 1.370 . S
C1464 C1466 1.363 . S
C1464 H1480 0.931 . S
C1465 C1464 1.370 . S
C1465 C1469 1.408 . S
C1466 C1464 1.363 . S
C1466 C1467 1.370 . S
C1466 C1470 1.524 . S
C1467 C1459 1.503 . S
C1467 C1466 1.370 . S
C1467 C1468 1.403 . S
C1468 C1467 1.403 . S
C1468 C1469 1.404 . S
C1468 C1471 1.539 . S
C1469 C1465 1.408 . S
C1469 C1468 1.404 . S
C1469 H1481 0.930 . S
C1470 C1466 1.524 . S
C1470 H1482 0.956 . S
C1470 H1483 0.961 . S
C1470 H1484 0.961 . S
C1471 C1468 1.539 . S
C1471 H1485 0.958 . S
C1471 H1486 0.961 . S
C1471 H1487 0.960 . S
H1472 C1456 0.931 . S
H1473 C1461 0.929 . S
H1474 C1462 0.960 . S
H1475 C1462 0.962 . S
H1476 C1462 0.960 . S
H1477 C1463 0.961 . S
H1478 C1463 0.961 . S
H1479 C1463 0.961 . S
H1480 C1464 0.931 . S
H1481 C1469 0.930 . S
H1482 C1470 0.956 . S
H1483 C1470 0.961 . S
H1484 C1470 0.961 . S
H1485 C1471 0.958 . S
H1486 C1471 0.961 . S
H1487 C1471 0.960 . S
C1488 C1489 1.391 . S
C1488 C1490 1.394 . S
C1488 H1504 0.931 . S
C1489 C1488 1.391 . S
C1489 C1493 1.376 . S
C1490 C1488 1.394 . S
C1490 C1491 1.369 . S
C1490 C1494 1.531 . S
C1491 C1490 1.369 . S
C1491 C1492 1.410 . S
C1491 C1499 1.503 . S
C1492 C1491 1.410 . S
C1492 C1493 1.392 . S
C1492 C1495 1.511 . S
C1493 C1489 1.376 . S
C1493 C1492 1.392 . S
C1493 H1505 0.929 . S
C1494 C1490 1.531 . S
C1494 H1506 0.960 . S
C1494 H1507 0.962 . S
C1494 H1508 0.960 . S
C1495 C1492 1.511 . S
C1495 H1509 0.961 . S
C1495 H1510 0.961 . S
C1495 H1511 0.961 . S
C1496 C1497 1.370 . S
C1496 C1498 1.363 . S
C1496 H1512 0.931 . S
C1497 C1496 1.370 . S
C1497 C1501 1.408 . S
C1498 C1496 1.363 . S
C1498 C1499 1.370 . S
C1498 C1502 1.524 . S
C1499 C1491 1.503 . S
C1499 C1498 1.370 . S
C1499 C1500 1.403 . S
C1500 C1499 1.403 . S
C1500 C1501 1.404 . S
C1500 C1503 1.539 . S
C1501 C1497 1.408 . S
C1501 C1500 1.404 . S
C1501 H1513 0.930 . S
C1502 C1498 1.524 . S
C1502 H1514 0.956 . S
C1502 H1515 0.961 . S
C1502 H1516 0.961 . S
C1503 C1500 1.539 . S
C1503 H1517 0.958 . S
C1503 H1518 0.961 . S
C1503 H1519 0.960 . S
H1504 C1488 0.931 . S
H1505 C1493 0.929 . S
H1506 C1494 0.960 . S
H1507 C1494 0.962 . S
H1508 C1494 0.960 . S
H1509 C1495 0.961 . S
H1510 C1495 0.961 . S
H1511 C1495 0.961 . S
H1512 C1496 0.931 . S
H1513 C1501 0.930 . S
H1514 C1502 0.956 . S
H1515 C1502 0.961 . S
H1516 C1502 0.961 . S
H1517 C1503 0.958 . S
H1518 C1503 0.961 . S
H1519 C1503 0.960 . S
C1520 C1521 1.391 . S
C1520 C1522 1.394 . S
C1520 H1536 0.931 . S
C1521 C1520 1.391 . S
C1521 C1525 1.376 . S
C1522 C1520 1.394 . S
C1522 C1523 1.369 . S
C1522 C1526 1.531 . S
C1523 C1522 1.369 . S
C1523 C1524 1.410 . S
C1523 C1531 1.503 1_556 S
C1524 C1523 1.410 . S
C1524 C1525 1.392 . S
C1524 C1527 1.511 . S
C1525 C1521 1.376 . S
C1525 C1524 1.392 . S
C1525 H1537 0.929 . S
C1526 C1522 1.531 . S
C1526 H1538 0.960 1_556 S
C1526 H1539 0.962 . S
C1526 H1540 0.960 . S
C1527 C1524 1.511 . S
C1527 H1541 0.961 . S
C1527 H1542 0.961 1_556 S
C1527 H1543 0.961 . S
C1528 C1529 1.370 . S
C1528 C1530 1.363 . S
C1528 H1544 0.931 . S
C1529 C1528 1.370 . S
C1529 C1533 1.408 . S
C1530 C1528 1.363 . S
C1530 C1531 1.370 . S
C1530 C1534 1.524 . S
C1531 C1523 1.503 1_554 S
C1531 C1530 1.370 . S
C1531 C1532 1.403 . S
C1532 C1531 1.403 . S
C1532 C1533 1.404 . S
C1532 C1535 1.539 . S
C1533 C1529 1.408 . S
C1533 C1532 1.404 . S
C1533 H1545 0.930 . S
C1534 C1530 1.524 . S
C1534 H1546 0.984 . S
C1534 H1547 0.961 1_554 S
C1534 H1548 0.961 . S
C1535 C1532 1.539 . S
C1535 H1549 0.958 . S
C1535 H1550 0.961 . S
C1535 H1551 0.970 . S
H1536 C1520 0.931 . S
H1537 C1525 0.929 . S
H1538 C1526 0.960 1_554 S
H1539 C1526 0.962 . S
H1540 C1526 0.960 . S
H1541 C1527 0.961 . S
H1542 C1527 0.961 1_554 S
H1543 C1527 0.961 . S
H1544 C1528 0.931 . S
H1545 C1533 0.930 . S
H1546 C1534 0.984 . S
H1547 C1534 0.961 1_556 S
H1548 C1534 0.961 . S
H1549 C1535 0.958 . S
H1550 C1535 0.961 . S
H1551 C1535 0.970 . S
C1552 C1553 1.391 . S
C1552 C1554 1.394 . S
C1552 H1568 0.931 . S
C1553 C1552 1.391 . S
C1553 C1557 1.376 . S
C1554 C1552 1.394 . S
C1554 C1555 1.369 . S
C1554 C1558 1.531 . S
C1555 C1554 1.369 . S
C1555 C1556 1.410 . S
C1555 C1563 1.503 . S
C1556 C1555 1.410 . S
C1556 C1557 1.392 . S
C1556 C1559 1.511 . S
C1557 C1553 1.376 . S
C1557 C1556 1.392 . S
C1557 H1569 0.929 . S
C1558 C1554 1.531 . S
C1558 H1570 0.960 . S
C1558 H1571 0.962 . S
C1558 H1572 0.960 . S
C1559 C1556 1.511 . S
C1559 H1573 0.961 . S
C1559 H1574 0.961 . S
C1559 H1575 0.961 . S
C1560 C1561 1.370 . S
C1560 C1562 1.363 . S
C1560 H1576 0.931 . S
C1561 C1560 1.370 . S
C1561 C1565 1.408 . S
C1562 C1560 1.363 . S
C1562 C1563 1.370 . S
C1562 C1566 1.524 . S
C1563 C1555 1.503 . S
C1563 C1562 1.370 . S
C1563 C1564 1.403 . S
C1564 C1563 1.403 . S
C1564 C1565 1.404 . S
C1564 C1567 1.539 . S
C1565 C1561 1.408 . S
C1565 C1564 1.404 . S
C1565 H1577 0.930 . S
C1566 C1562 1.524 . S
C1566 H1578 0.956 . S
C1566 H1579 0.961 . S
C1566 H1580 0.961 . S
C1567 C1564 1.539 . S
C1567 H1581 0.958 . S
C1567 H1582 0.961 . S
C1567 H1583 0.960 . S
H1568 C1552 0.931 . S
H1569 C1557 0.929 . S
H1570 C1558 0.960 . S
H1571 C1558 0.962 . S
H1572 C1558 0.960 . S
H1573 C1559 0.961 . S
H1574 C1559 0.961 . S
H1575 C1559 0.961 . S
H1576 C1560 0.931 . S
H1577 C1565 0.930 . S
H1578 C1566 0.956 . S
H1579 C1566 0.961 . S
H1580 C1566 0.961 . S
H1581 C1567 0.958 . S
H1582 C1567 0.961 . S
H1583 C1567 0.960 . S
C1584 C1585 1.391 . S
C1584 C1586 1.394 . S
C1584 H1600 0.931 . S
C1585 C1584 1.391 . S
C1585 C1589 1.376 . S
C1586 C1584 1.394 . S
C1586 C1587 1.369 . S
C1586 C1590 1.531 . S
C1587 C1586 1.369 . S
C1587 C1588 1.410 . S
C1587 C1595 1.503 1_554 S
C1588 C1587 1.410 . S
C1588 C1589 1.392 . S
C1588 C1591 1.511 . S
C1589 C1585 1.376 . S
C1589 C1588 1.392 . S
C1589 H1601 0.929 . S
C1590 C1586 1.531 . S
C1590 H1602 0.960 1_554 S
C1590 H1603 0.962 . S
C1590 H1604 0.960 . S
C1591 C1588 1.511 . S
C1591 H1605 0.961 . S
C1591 H1606 0.961 1_554 S
C1591 H1607 0.961 . S
C1592 C1593 1.370 . S
C1592 C1594 1.363 . S
C1592 H1608 0.931 . S
C1593 C1592 1.370 . S
C1593 C1597 1.408 . S
C1594 C1592 1.363 . S
C1594 C1595 1.370 . S
C1594 C1598 1.524 . S
C1595 C1587 1.503 1_556 S
C1595 C1594 1.370 . S
C1595 C1596 1.403 . S
C1596 C1595 1.403 . S
C1596 C1597 1.404 . S
C1596 C1599 1.539 . S
C1597 C1593 1.408 . S
C1597 C1596 1.404 . S
C1597 H1609 0.930 . S
C1598 C1594 1.524 . S
C1598 H1610 0.984 . S
C1598 H1611 0.961 1_556 S
C1598 H1612 0.961 . S
C1599 C1596 1.539 . S
C1599 H1613 0.958 . S
C1599 H1614 0.961 . S
C1599 H1615 0.970 . S
H1600 C1584 0.931 . S
H1601 C1589 0.929 . S
H1602 C1590 0.960 1_556 S
H1603 C1590 0.962 . S
H1604 C1590 0.960 . S
H1605 C1591 0.961 . S
H1606 C1591 0.961 1_556 S
H1607 C1591 0.961 . S
H1608 C1592 0.931 . S
H1609 C1597 0.930 . S
H1610 C1598 0.984 . S
H1611 C1598 0.961 1_554 S
H1612 C1598 0.961 . S
H1613 C1599 0.958 . S
H1614 C1599 0.961 . S
H1615 C1599 0.970 . S
C1616 C1617 1.391 . S
C1616 C1618 1.394 . S
C1616 H1632 0.931 . S
C1617 C1616 1.391 . S
C1617 C1621 1.376 . S
C1618 C1616 1.394 . S
C1618 C1619 1.369 . S
C1618 C1622 1.531 . S
C1619 C1618 1.369 . S
C1619 C1620 1.410 . S
C1619 C1627 1.503 . S
C1620 C1619 1.410 . S
C1620 C1621 1.392 . S
C1620 C1623 1.511 . S
C1621 C1617 1.376 . S
C1621 C1620 1.392 . S
C1621 H1633 0.929 . S
C1622 C1618 1.531 . S
C1622 H1634 0.960 . S
C1622 H1635 0.962 . S
C1622 H1636 0.960 . S
C1623 C1620 1.511 . S
C1623 H1637 0.961 . S
C1623 H1638 0.961 . S
C1623 H1639 0.961 . S
C1624 C1625 1.370 . S
C1624 C1626 1.363 . S
C1624 H1640 0.931 . S
C1625 C1624 1.370 . S
C1625 C1629 1.408 . S
C1626 C1624 1.363 . S
C1626 C1627 1.370 . S
C1626 C1630 1.524 . S
C1627 C1619 1.503 . S
C1627 C1626 1.370 . S
C1627 C1628 1.403 . S
C1628 C1627 1.403 . S
C1628 C1629 1.404 . S
C1628 C1631 1.539 . S
C1629 C1625 1.408 . S
C1629 C1628 1.404 . S
C1629 H1641 0.930 . S
C1630 C1626 1.524 . S
C1630 H1642 0.956 . S
C1630 H1643 0.961 . S
C1630 H1644 0.961 . S
C1631 C1628 1.539 . S
C1631 H1645 0.958 . S
C1631 H1646 0.961 . S
C1631 H1647 0.960 . S
H1632 C1616 0.931 . S
H1633 C1621 0.929 . S
H1634 C1622 0.960 . S
H1635 C1622 0.962 . S
H1636 C1622 0.960 . S
H1637 C1623 0.961 . S
H1638 C1623 0.961 . S
H1639 C1623 0.961 . S
H1640 C1624 0.931 . S
H1641 C1629 0.930 . S
H1642 C1630 0.956 . S
H1643 C1630 0.961 . S
H1644 C1630 0.961 . S
H1645 C1631 0.958 . S
H1646 C1631 0.961 . S
H1647 C1631 0.960 . S
C1648 C1649 1.391 . S
C1648 C1650 1.394 . S
C1648 H1664 0.931 . S
C1649 C1648 1.391 . S
C1649 C1653 1.376 . S
C1650 C1648 1.394 . S
C1650 C1651 1.369 . S
C1650 C1654 1.531 . S
C1651 C1650 1.369 . S
C1651 C1652 1.410 . S
C1651 C1659 1.503 . S
C1652 C1651 1.410 . S
C1652 C1653 1.392 . S
C1652 C1655 1.511 . S
C1653 C1649 1.376 . S
C1653 C1652 1.392 . S
C1653 H1665 0.929 . S
C1654 C1650 1.531 . S
C1654 H1666 0.960 . S
C1654 H1667 0.962 . S
C1654 H1668 0.960 . S
C1655 C1652 1.511 . S
C1655 H1669 0.961 . S
C1655 H1670 0.961 . S
C1655 H1671 0.961 . S
C1656 C1657 1.370 . S
C1656 C1658 1.363 . S
C1656 H1672 0.931 . S
C1657 C1656 1.370 . S
C1657 C1661 1.408 . S
C1658 C1656 1.363 . S
C1658 C1659 1.370 . S
C1658 C1662 1.524 . S
C1659 C1651 1.503 . S
C1659 C1658 1.370 . S
C1659 C1660 1.403 . S
C1660 C1659 1.403 . S
C1660 C1661 1.404 . S
C1660 C1663 1.539 . S
C1661 C1657 1.408 . S
C1661 C1660 1.404 . S
C1661 H1673 0.930 . S
C1662 C1658 1.524 . S
C1662 H1674 0.956 . S
C1662 H1675 0.961 . S
C1662 H1676 0.961 . S
C1663 C1660 1.539 . S
C1663 H1677 0.958 . S
C1663 H1678 0.961 . S
C1663 H1679 0.960 . S
H1664 C1648 0.931 . S
H1665 C1653 0.929 . S
H1666 C1654 0.960 . S
H1667 C1654 0.962 . S
H1668 C1654 0.960 . S
H1669 C1655 0.961 . S
H1670 C1655 0.961 . S
H1671 C1655 0.961 . S
H1672 C1656 0.931 . S
H1673 C1661 0.930 . S
H1674 C1662 0.956 . S
H1675 C1662 0.961 . S
H1676 C1662 0.961 . S
H1677 C1663 0.958 . S
H1678 C1663 0.961 . S
H1679 C1663 0.960 . S
C1680 C1681 1.391 . S
C1680 C1682 1.394 . S
C1680 H1696 0.931 . S
C1681 C1680 1.391 . S
C1681 C1685 1.376 . S
C1682 C1680 1.394 . S
C1682 C1683 1.369 . S
C1682 C1686 1.531 . S
C1683 C1682 1.369 . S
C1683 C1684 1.410 . S
C1683 C1691 1.503 . S
C1684 C1683 1.410 . S
C1684 C1685 1.392 . S
C1684 C1687 1.511 . S
C1685 C1681 1.376 . S
C1685 C1684 1.392 . S
C1685 H1697 0.929 . S
C1686 C1682 1.531 . S
C1686 H1698 0.960 . S
C1686 H1699 0.962 . S
C1686 H1700 0.960 . S
C1687 C1684 1.511 . S
C1687 H1701 0.961 . S
C1687 H1702 0.961 . S
C1687 H1703 0.961 . S
C1688 C1689 1.370 . S
C1688 C1690 1.363 . S
C1688 H1704 0.931 . S
C1689 C1688 1.370 . S
C1689 C1693 1.408 . S
C1690 C1688 1.363 . S
C1690 C1691 1.370 . S
C1690 C1694 1.524 . S
C1691 C1683 1.503 . S
C1691 C1690 1.370 . S
C1691 C1692 1.403 . S
C1692 C1691 1.403 . S
C1692 C1693 1.404 . S
C1692 C1695 1.539 . S
C1693 C1689 1.408 . S
C1693 C1692 1.404 . S
C1693 H1705 0.930 . S
C1694 C1690 1.524 . S
C1694 H1706 0.956 . S
C1694 H1707 0.961 . S
C1694 H1708 0.961 . S
C1695 C1692 1.539 . S
C1695 H1709 0.958 . S
C1695 H1710 0.961 . S
C1695 H1711 0.960 . S
H1696 C1680 0.931 . S
H1697 C1685 0.929 . S
H1698 C1686 0.960 . S
H1699 C1686 0.962 . S
H1700 C1686 0.960 . S
H1701 C1687 0.961 . S
H1702 C1687 0.961 . S
H1703 C1687 0.961 . S
H1704 C1688 0.931 . S
H1705 C1693 0.930 . S
H1706 C1694 0.956 . S
H1707 C1694 0.961 . S
H1708 C1694 0.961 . S
H1709 C1695 0.958 . S
H1710 C1695 0.961 . S
H1711 C1695 0.960 . S
C1712 C1713 1.391 . S
C1712 C1714 1.394 . S
C1712 H1728 0.931 . S
C1713 C1712 1.391 . S
C1713 C1717 1.376 . S
C1714 C1712 1.394 . S
C1714 C1715 1.369 . S
C1714 C1718 1.531 . S
C1715 C1714 1.369 . S
C1715 C1716 1.410 . S
C1715 C1723 1.503 . S
C1716 C1715 1.410 . S
C1716 C1717 1.392 . S
C1716 C1719 1.511 . S
C1717 C1713 1.376 . S
C1717 C1716 1.392 . S
C1717 H1729 0.929 . S
C1718 C1714 1.531 . S
C1718 H1730 0.960 . S
C1718 H1731 0.962 . S
C1718 H1732 0.960 . S
C1719 C1716 1.511 . S
C1719 H1733 0.961 . S
C1719 H1734 0.961 . S
C1719 H1735 0.961 . S
C1720 C1721 1.370 . S
C1720 C1722 1.363 . S
C1720 H1736 0.931 . S
C1721 C1720 1.370 . S
C1721 C1725 1.408 . S
C1722 C1720 1.363 . S
C1722 C1723 1.370 . S
C1722 C1726 1.524 . S
C1723 C1715 1.503 . S
C1723 C1722 1.370 . S
C1723 C1724 1.403 . S
C1724 C1723 1.403 . S
C1724 C1725 1.404 . S
C1724 C1727 1.539 . S
C1725 C1721 1.408 . S
C1725 C1724 1.404 . S
C1725 H1737 0.930 . S
C1726 C1722 1.524 . S
C1726 H1738 0.956 . S
C1726 H1739 0.961 . S
C1726 H1740 0.961 . S
C1727 C1724 1.539 . S
C1727 H1741 0.958 . S
C1727 H1742 0.961 . S
C1727 H1743 0.960 . S
H1728 C1712 0.931 . S
H1729 C1717 0.929 . S
H1730 C1718 0.960 . S
H1731 C1718 0.962 . S
H1732 C1718 0.960 . S
H1733 C1719 0.961 . S
H1734 C1719 0.961 . S
H1735 C1719 0.961 . S
H1736 C1720 0.931 . S
H1737 C1725 0.930 . S
H1738 C1726 0.956 . S
H1739 C1726 0.961 . S
H1740 C1726 0.961 . S
H1741 C1727 0.958 . S
H1742 C1727 0.961 . S
H1743 C1727 0.960 . S
C1744 C1745 1.391 . S
C1744 C1746 1.394 . S
C1744 H1760 0.931 . S
C1745 C1744 1.391 . S
C1745 C1749 1.376 . S
C1746 C1744 1.394 . S
C1746 C1747 1.369 . S
C1746 C1750 1.531 . S
C1747 C1746 1.369 . S
C1747 C1748 1.410 . S
C1747 C1755 1.503 . S
C1748 C1747 1.410 . S
C1748 C1749 1.392 . S
C1748 C1751 1.511 . S
C1749 C1745 1.376 . S
C1749 C1748 1.392 . S
C1749 H1761 0.929 . S
C1750 C1746 1.531 . S
C1750 H1762 0.960 . S
C1750 H1763 0.962 . S
C1750 H1764 0.960 . S
C1751 C1748 1.511 . S
C1751 H1765 0.961 . S
C1751 H1766 0.961 . S
C1751 H1767 0.961 . S
C1752 C1753 1.370 . S
C1752 C1754 1.363 . S
C1752 H1768 0.931 . S
C1753 C1752 1.370 . S
C1753 C1757 1.408 . S
C1754 C1752 1.363 . S
C1754 C1755 1.370 . S
C1754 C1758 1.524 . S
C1755 C1747 1.503 . S
C1755 C1754 1.370 . S
C1755 C1756 1.403 . S
C1756 C1755 1.403 . S
C1756 C1757 1.404 . S
C1756 C1759 1.539 . S
C1757 C1753 1.408 . S
C1757 C1756 1.404 . S
C1757 H1769 0.930 . S
C1758 C1754 1.524 . S
C1758 H1770 0.956 . S
C1758 H1771 0.961 . S
C1758 H1772 0.961 . S
C1759 C1756 1.539 . S
C1759 H1773 0.958 . S
C1759 H1774 0.961 . S
C1759 H1775 0.960 . S
H1760 C1744 0.931 . S
H1761 C1749 0.929 . S
H1762 C1750 0.960 . S
H1763 C1750 0.962 . S
H1764 C1750 0.960 . S
H1765 C1751 0.961 . S
H1766 C1751 0.961 . S
H1767 C1751 0.961 . S
H1768 C1752 0.931 . S
H1769 C1757 0.930 . S
H1770 C1758 0.956 . S
H1771 C1758 0.961 . S
H1772 C1758 0.961 . S
H1773 C1759 0.958 . S
H1774 C1759 0.961 . S
H1775 C1759 0.960 . S
C1776 C1777 1.391 . S
C1776 C1778 1.394 . S
C1776 H1792 0.931 . S
C1777 C1776 1.391 . S
C1777 C1781 1.376 . S
C1778 C1776 1.394 . S
C1778 C1779 1.369 . S
C1778 C1782 1.531 . S
C1779 C1778 1.369 . S
C1779 C1780 1.410 . S
C1779 C1787 1.503 . S
C1780 C1779 1.410 . S
C1780 C1781 1.392 . S
C1780 C1783 1.511 . S
C1781 C1777 1.376 . S
C1781 C1780 1.392 . S
C1781 H1793 0.929 . S
C1782 C1778 1.531 . S
C1782 H1794 0.960 . S
C1782 H1795 0.962 . S
C1782 H1796 0.960 . S
C1783 C1780 1.511 . S
C1783 H1797 0.961 . S
C1783 H1798 0.961 . S
C1783 H1799 0.961 . S
C1784 C1785 1.370 . S
C1784 C1786 1.363 . S
C1784 H1800 0.931 . S
C1785 C1784 1.370 . S
C1785 C1789 1.408 . S
C1786 C1784 1.363 . S
C1786 C1787 1.370 . S
C1786 C1790 1.524 . S
C1787 C1779 1.503 . S
C1787 C1786 1.370 . S
C1787 C1788 1.403 . S
C1788 C1787 1.403 . S
C1788 C1789 1.404 . S
C1788 C1791 1.539 . S
C1789 C1785 1.408 . S
C1789 C1788 1.404 . S
C1789 H1801 0.930 . S
C1790 C1786 1.524 . S
C1790 H1802 0.956 . S
C1790 H1803 0.961 . S
C1790 H1804 0.961 . S
C1791 C1788 1.539 . S
C1791 H1805 0.958 . S
C1791 H1806 0.961 . S
C1791 H1807 0.960 . S
H1792 C1776 0.931 . S
H1793 C1781 0.929 . S
H1794 C1782 0.960 . S
H1795 C1782 0.962 . S
H1796 C1782 0.960 . S
H1797 C1783 0.961 . S
H1798 C1783 0.961 . S
H1799 C1783 0.961 . S
H1800 C1784 0.931 . S
H1801 C1789 0.930 . S
H1802 C1790 0.956 . S
H1803 C1790 0.961 . S
H1804 C1790 0.961 . S
H1805 C1791 0.958 . S
H1806 C1791 0.961 . S
H1807 C1791 0.960 . S
C1808 C1809 1.391 . S
C1808 C1810 1.394 . S
C1808 H1824 0.931 . S
C1809 C1808 1.391 . S
C1809 C1813 1.376 . S
C1810 C1808 1.394 . S
C1810 C1811 1.369 . S
C1810 C1814 1.531 . S
C1811 C1810 1.369 . S
C1811 C1812 1.410 . S
C1811 C1819 1.503 . S
C1812 C1811 1.410 . S
C1812 C1813 1.392 . S
C1812 C1815 1.511 . S
C1813 C1809 1.376 . S
C1813 C1812 1.392 . S
C1813 H1825 0.929 . S
C1814 C1810 1.531 . S
C1814 H1826 0.960 . S
C1814 H1827 0.962 . S
C1814 H1828 0.960 . S
C1815 C1812 1.511 . S
C1815 H1829 0.961 . S
C1815 H1830 0.961 . S
C1815 H1831 0.961 . S
C1816 C1817 1.370 . S
C1816 C1818 1.363 . S
C1816 H1832 0.931 . S
C1817 C1816 1.370 . S
C1817 C1821 1.408 . S
C1818 C1816 1.363 . S
C1818 C1819 1.370 . S
C1818 C1822 1.524 . S
C1819 C1811 1.503 . S
C1819 C1818 1.370 . S
C1819 C1820 1.403 . S
C1820 C1819 1.403 . S
C1820 C1821 1.404 . S
C1820 C1823 1.539 . S
C1821 C1817 1.408 . S
C1821 C1820 1.404 . S
C1821 H1833 0.930 . S
C1822 C1818 1.524 . S
C1822 H1834 0.956 . S
C1822 H1835 0.961 . S
C1822 H1836 0.961 . S
C1823 C1820 1.539 . S
C1823 H1837 0.958 . S
C1823 H1838 0.961 . S
C1823 H1839 0.960 . S
H1824 C1808 0.931 . S
H1825 C1813 0.929 . S
H1826 C1814 0.960 . S
H1827 C1814 0.962 . S
H1828 C1814 0.960 . S
H1829 C1815 0.961 . S
H1830 C1815 0.961 . S
H1831 C1815 0.961 . S
H1832 C1816 0.931 . S
H1833 C1821 0.930 . S
H1834 C1822 0.956 . S
H1835 C1822 0.961 . S
H1836 C1822 0.961 . S
H1837 C1823 0.958 . S
H1838 C1823 0.961 . S
H1839 C1823 0.960 . S
C1840 C1841 1.391 . S
C1840 C1842 1.394 . S
C1840 H1856 0.931 . S
C1841 C1840 1.391 . S
C1841 C1845 1.376 . S
C1842 C1840 1.394 . S
C1842 C1843 1.369 . S
C1842 C1846 1.531 . S
C1843 C1842 1.369 . S
C1843 C1844 1.410 . S
C1843 C1851 1.503 . S
C1844 C1843 1.410 . S
C1844 C1845 1.392 . S
C1844 C1847 1.511 . S
C1845 C1841 1.376 . S
C1845 C1844 1.392 . S
C1845 H1857 0.929 . S
C1846 C1842 1.531 . S
C1846 H1858 0.960 . S
C1846 H1859 0.962 . S
C1846 H1860 0.960 . S
C1847 C1844 1.511 . S
C1847 H1861 0.961 . S
C1847 H1862 0.961 . S
C1847 H1863 0.961 . S
C1848 C1849 1.370 . S
C1848 C1850 1.363 . S
C1848 H1864 0.931 . S
C1849 C1848 1.370 . S
C1849 C1853 1.408 . S
C1850 C1848 1.363 . S
C1850 C1851 1.370 . S
C1850 C1854 1.524 . S
C1851 C1843 1.503 . S
C1851 C1850 1.370 . S
C1851 C1852 1.403 . S
C1852 C1851 1.403 . S
C1852 C1853 1.404 . S
C1852 C1855 1.539 . S
C1853 C1849 1.408 . S
C1853 C1852 1.404 . S
C1853 H1865 0.930 . S
C1854 C1850 1.524 . S
C1854 H1866 0.956 . S
C1854 H1867 0.961 . S
C1854 H1868 0.961 . S
C1855 C1852 1.539 . S
C1855 H1869 0.958 . S
C1855 H1870 0.961 . S
C1855 H1871 0.960 . S
H1856 C1840 0.931 . S
H1857 C1845 0.929 . S
H1858 C1846 0.960 . S
H1859 C1846 0.962 . S
H1860 C1846 0.960 . S
H1861 C1847 0.961 . S
H1862 C1847 0.961 . S
H1863 C1847 0.961 . S
H1864 C1848 0.931 . S
H1865 C1853 0.930 . S
H1866 C1854 0.956 . S
H1867 C1854 0.961 . S
H1868 C1854 0.961 . S
H1869 C1855 0.958 . S
H1870 C1855 0.961 . S
H1871 C1855 0.960 . S
C849 C29 1.755 . S
C857 C135 1.785 . S
C881 C188 1.765 . S
C889 C82 1.779 . S
C913 C241 1.794 . S
C921 C347 1.771 . S
C945 C400 1.787 . S
C953 C294 1.776 . S
C977 C453 1.749 . S
C985 C559 1.782 . S
C1009 C612 1.762 . S
C1017 C506 1.780 . S
C1041 C665 1.763 . S
C1049 C771 1.780 . S
C1073 C824 1.748 . S
C1081 C718 1.781 . S
C1105 C250 1.889 . S
C1113 C38 1.887 . S
C1137 C91 1.894 . S
C1145 C303 1.884 . S
C1169 C144 1.868 . S
C1177 C356 1.891 . S
C1201 C409 1.894 . S
C1209 C197 1.880 . S
C1233 C462 1.894 . S
C1241 C674 1.873 . S
C1265 C515 1.887 . S
C1273 C727 1.871 . S
C1297 C568 1.858 . S
C1305 C780 1.887 . S
C1329 C621 1.869 . S
C1337 C833 1.876 . S
C1361 C569 1.815 . S
C1369 C39 1.824 . S
C1393 C622 1.828 . S
C1401 C92 1.832 . S
C1425 C145 1.842 . S
C1433 C463 1.840 . S
C1457 C198 1.838 . S
C1465 C516 1.841 . S
C1489 C251 1.812 . S
C1497 C781 1.831 . S
C1521 C304 1.838 . S
C1529 C834 1.841 . S
C1553 C357 1.839 . S
C1561 C675 1.839 . S
C1585 C728 1.836 . S
C1593 C410 1.835 . S
C1617 C22 1.647 . S
C1625 C817 1.656 . S
C1649 C658 1.660 . S
C1657 C75 1.658 . S
C1681 C128 1.660 . S
C1689 C711 1.660 . S
C1713 C764 1.649 . S
C1721 C181 1.653 . S
C1745 C499 1.646 . S
C1753 C234 1.650 . S
C1777 C287 1.640 . S
C1785 C552 1.652 . S
C1809 C605 1.643 . S
C1817 C340 1.649 . S
C1841 C446 1.655 . S
C1849 C393 1.654 . S
