# Generated by pormake.
# Topology wgw, (6)-cn, num edge types: 1
# Building blocks:
#     Node 0, Type 0, BuildingBlock: OJICUG_clean_sbu_0, # of connection points: 6
#     Node 1, Type 0, BuildingBlock: OJICUG_clean_sbu_0, # of connection points: 6
#     Node 2, Type 0, BuildingBlock: OJICUG_clean_sbu_0, # of connection points: 6
#     Node 3, Type 0, BuildingBlock: OJICUG_clean_sbu_0, # of connection points: 6
#     Node 4, Type 0, BuildingBlock: OJICUG_clean_sbu_0, # of connection points: 6
#     Node 5, Type 0, BuildingBlock: OJICUG_clean_sbu_0, # of connection points: 6
#     Node 6, Type 0, BuildingBlock: OJICUG_clean_sbu_0, # of connection points: 6
#     Node 7, Type 0, BuildingBlock: OJICUG_clean_sbu_0, # of connection points: 6
#     Edge 8, Type (0, 0), BuildingBlock: MIFKUJ_clean_linker_0, # of connection points: 2
#     Edge 9, Type (0, 0), BuildingBlock: MIFKUJ_clean_linker_0, # of connection points: 2
#     Edge 10, Type (0, 0), BuildingBlock: MIFKUJ_clean_linker_0, # of connection points: 2
#     Edge 11, Type (0, 0), BuildingBlock: MIFKUJ_clean_linker_0, # of connection points: 2
#     Edge 12, Type (0, 0), BuildingBlock: MIFKUJ_clean_linker_0, # of connection points: 2
#     Edge 13, Type (0, 0), BuildingBlock: MIFKUJ_clean_linker_0, # of connection points: 2
#     Edge 14, Type (0, 0), BuildingBlock: MIFKUJ_clean_linker_0, # of connection points: 2
#     Edge 15, Type (0, 0), BuildingBlock: MIFKUJ_clean_linker_0, # of connection points: 2
#     Edge 16, Type (0, 0), BuildingBlock: MIFKUJ_clean_linker_0, # of connection points: 2
#     Edge 17, Type (0, 0), BuildingBlock: MIFKUJ_clean_linker_0, # of connection points: 2
#     Edge 18, Type (0, 0), BuildingBlock: MIFKUJ_clean_linker_0, # of connection points: 2
#     Edge 19, Type (0, 0), BuildingBlock: MIFKUJ_clean_linker_0, # of connection points: 2
#     Edge 20, Type (0, 0), BuildingBlock: MIFKUJ_clean_linker_0, # of connection points: 2
#     Edge 21, Type (0, 0), BuildingBlock: MIFKUJ_clean_linker_0, # of connection points: 2
#     Edge 22, Type (0, 0), BuildingBlock: MIFKUJ_clean_linker_0, # of connection points: 2
#     Edge 23, Type (0, 0), BuildingBlock: MIFKUJ_clean_linker_0, # of connection points: 2
#     Edge 24, Type (0, 0), BuildingBlock: MIFKUJ_clean_linker_0, # of connection points: 2
#     Edge 25, Type (0, 0), BuildingBlock: MIFKUJ_clean_linker_0, # of connection points: 2
#     Edge 26, Type (0, 0), BuildingBlock: MIFKUJ_clean_linker_0, # of connection points: 2
#     Edge 27, Type (0, 0), BuildingBlock: MIFKUJ_clean_linker_0, # of connection points: 2
#     Edge 28, Type (0, 0), BuildingBlock: MIFKUJ_clean_linker_0, # of connection points: 2
#     Edge 29, Type (0, 0), BuildingBlock: MIFKUJ_clean_linker_0, # of connection points: 2
#     Edge 30, Type (0, 0), BuildingBlock: MIFKUJ_clean_linker_0, # of connection points: 2
#     Edge 31, Type (0, 0), BuildingBlock: MIFKUJ_clean_linker_0, # of connection points: 2
# Relax obj value: 0.221
# Max RMSD: 0.288
# Mean RMSD: 0.288
data_MOF--net-wgw--node1-OJICUG_clean_sbu_0--edge1-MIFKUJ_clean_linker_0
_symmetry_space_group_name_H-M    P1
_symmetry_Int_Tables_number       1
_symmetry_cell_setting            triclinic
loop_
_symmetry_equiv_pos_as_xyz
'x, y, z'
_cell_length_a     36.975985
_cell_length_b     36.957314
_cell_length_c     54.904016
_cell_angle_alpha  90.046836
_cell_angle_beta   89.970615
_cell_angle_gamma 89.929077
loop_
_atom_site_label
_atom_site_type_symbol
_atom_site_fract_x
_atom_site_fract_y
_atom_site_fract_z
_atom_type_partial_charge
Sc0 Sc 0.08546 0.46856 0.15778 0.0
Sc1 Sc 0.03681 0.45016 0.21159 0.0
Sc2 Sc 0.02848 0.39228 0.16107 0.0
O3 O 0.05029 0.43704 0.17679 0.0
C4 C 0.02975 0.44639 0.11604 0.0
C5 C 0.03495 0.52653 0.1845 0.0
C6 C 0.96118 0.42296 0.18992 0.0
C7 C 0.11979 0.47235 0.21097 0.0
C8 C 0.11133 0.38832 0.14476 0.0
C9 C 0.04424 0.3653 0.21562 0.0
O10 O 0.05393 0.4668 0.12498 0.0
O11 O 0.02557 0.50489 0.20135 0.0
O12 O 0.97418 0.40663 0.17154 0.0
O13 O 0.12194 0.47446 0.18795 0.0
O14 O 0.08068 0.37408 0.14906 0.0
O15 O 0.04692 0.39663 0.22494 0.0
O16 O 0.11728 0.42214 0.14684 0.0
O17 O 0.09087 0.46414 0.22204 0.0
O18 O 0.03627 0.36008 0.19336 0.0
O19 O 0.05664 0.51769 0.16744 0.0
O20 O 0.01801 0.41855 0.12696 0.0
O21 O 0.98068 0.43814 0.20598 0.0
Sc22 Sc 0.10055 0.02498 0.66737 0.0
Sc23 Sc 0.04037 0.02864 0.71663 0.0
Sc24 Sc 0.03 0.0887 0.6675 0.0
O25 O 0.057 0.04756 0.68381 0.0
C26 C 0.11294 0.10878 0.65763 0.0
C27 C 0.1242 0.02864 0.72379 0.0
C28 C 0.024 0.11311 0.72247 0.0
C29 C 0.06574 0.95567 0.68995 0.0
C30 C 0.04889 0.03943 0.62182 0.0
C31 C 0.96705 0.03744 0.68784 0.0
O32 O 0.12468 0.0769 0.66127 0.0
O33 O 0.093 0.03524 0.73249 0.0
O34 O 0.02849 0.12034 0.7001 0.0
O35 O 0.08058 0.97081 0.67181 0.0
O36 O 0.02868 0.06197 0.63279 0.0
O37 O 0.98718 0.02 0.70249 0.0
O38 O 0.07633 0.02496 0.63175 0.0
O39 O 0.05297 0.97324 0.7079 0.0
O40 O 0.97776 0.06463 0.67551 0.0
O41 O 0.12979 0.02221 0.70129 0.0
O42 O 0.07944 0.11683 0.65828 0.0
O43 O 0.02488 0.08109 0.73082 0.0
Sc44 Sc 0.46829 0.09579 0.17056 0.0
Sc45 Sc 0.45726 0.03841 0.22122 0.0
Sc46 Sc 0.39614 0.0334 0.17227 0.0
O47 O 0.44049 0.05601 0.18803 0.0
C48 C 0.38567 0.1178 0.16158 0.0
C49 C 0.47441 0.12259 0.22564 0.0
C50 C 0.37261 0.03864 0.22852 0.0
C51 C 0.53081 0.04522 0.19129 0.0
C52 C 0.44653 0.04516 0.12587 0.0
C53 C 0.43457 0.9645 0.19491 0.0
O54 O 0.41918 0.12555 0.16305 0.0
O55 O 0.46829 0.09182 0.23503 0.0
O56 O 0.36622 0.03405 0.20596 0.0
O57 O 0.51977 0.06942 0.17657 0.0
O58 O 0.42019 0.03007 0.13664 0.0
O59 O 0.44926 0.98285 0.21175 0.0
O60 O 0.46612 0.06899 0.13596 0.0
O61 O 0.51144 0.03196 0.20817 0.0
O62 O 0.41506 0.97877 0.17844 0.0
O63 O 0.47469 0.12784 0.20281 0.0
O64 O 0.37354 0.08585 0.16447 0.0
O65 O 0.40432 0.04214 0.23706 0.0
Sc66 Sc 0.4609 0.40543 0.66382 0.0
Sc67 Sc 0.44828 0.46125 0.71507 0.0
Sc68 Sc 0.39348 0.47303 0.66346 0.0
O69 O 0.43422 0.44653 0.68075 0.0
C70 C 0.44826 0.45919 0.61947 0.0
C71 C 0.5246 0.44943 0.68928 0.0
C72 C 0.43311 0.53767 0.68967 0.0
C73 C 0.45675 0.37575 0.71825 0.0
C74 C 0.37802 0.39037 0.65067 0.0
C75 C 0.3637 0.4684 0.71831 0.0
O76 O 0.46582 0.43426 0.63007 0.0
O77 O 0.50412 0.46393 0.70512 0.0
O78 O 0.41624 0.52553 0.67124 0.0
O79 O 0.45914 0.37108 0.6954 0.0
O80 O 0.36741 0.42271 0.65435 0.0
O81 O 0.39377 0.46039 0.72803 0.0
O82 O 0.41094 0.38064 0.6526 0.0
O83 O 0.45372 0.40677 0.72791 0.0
O84 O 0.36029 0.47513 0.69571 0.0
O85 O 0.51333 0.42675 0.67356 0.0
O86 O 0.42118 0.47475 0.6291 0.0
O87 O 0.44419 0.51774 0.70696 0.0
Sc88 Sc 0.52567 0.59815 0.32697 0.0
Sc89 Sc 0.53732 0.53677 0.27832 0.0
Sc90 Sc 0.59555 0.53335 0.32898 0.0
O91 O 0.55291 0.55621 0.31138 0.0
C92 C 0.60841 0.61799 0.33684 0.0
C93 C 0.52398 0.62102 0.27077 0.0
C94 C 0.62242 0.53187 0.27343 0.0
C95 C 0.46231 0.54908 0.30601 0.0
C96 C 0.54363 0.55055 0.3738 0.0
C97 C 0.55561 0.46434 0.30797 0.0
O98 O 0.57531 0.62684 0.33432 0.0
O99 O 0.52976 0.58955 0.2623 0.0
O100 O 0.62707 0.52988 0.29631 0.0
O101 O 0.47374 0.57287 0.32091 0.0
O102 O 0.5696 0.53355 0.36393 0.0
O103 O 0.54161 0.48166 0.29034 0.0
O104 O 0.52541 0.57445 0.36265 0.0
O105 O 0.48213 0.53489 0.28968 0.0
O106 O 0.57549 0.47918 0.32398 0.0
O107 O 0.52211 0.6277 0.29342 0.0
O108 O 0.6195 0.58543 0.33552 0.0
O109 O 0.59146 0.53586 0.26376 0.0
Sc110 Sc 0.88755 0.52842 0.82306 0.0
Sc111 Sc 0.95427 0.53296 0.77728 0.0
Sc112 Sc 0.96043 0.58926 0.82876 0.0
O113 O 0.934 0.55026 0.80967 0.0
C114 C 0.87828 0.61321 0.8341 0.0
C115 C 0.87024 0.53535 0.76617 0.0
C116 C 0.97318 0.61633 0.77406 0.0
C117 C 0.92733 0.45903 0.80125 0.0
C118 C 0.9327 0.53782 0.87169 0.0
C119 C 0.02454 0.53899 0.81107 0.0
O120 O 0.86593 0.58119 0.83193 0.0
O121 O 0.90288 0.53517 0.759 0.0
O122 O 0.9731 0.62063 0.797 0.0
O123 O 0.90417 0.47313 0.81556 0.0
O124 O 0.952 0.56316 0.86313 0.0
O125 O 0.00753 0.52801 0.79235 0.0
O126 O 0.90883 0.52156 0.8592 0.0
O127 O 0.94643 0.47759 0.78671 0.0
O128 O 0.01126 0.56113 0.82638 0.0
O129 O 0.86108 0.53312 0.78843 0.0
O130 O 0.91181 0.62059 0.83271 0.0
O131 O 0.96523 0.58649 0.76397 0.0
Sc132 Sc 0.90673 0.96982 0.33032 0.0
Sc133 Sc 0.9594 0.95368 0.27809 0.0
Sc134 Sc 0.96913 0.89747 0.32936 0.0
O135 O 0.94502 0.94024 0.31261 0.0
C136 C 0.96001 0.95134 0.37425 0.0
C137 C 0.95427 0.03029 0.30503 0.0
C138 C 0.03537 0.93576 0.30316 0.0
C139 C 0.87522 0.96869 0.27603 0.0
C140 C 0.88534 0.88815 0.34231 0.0
C141 C 0.96116 0.86831 0.27461 0.0
O142 O 0.935 0.96968 0.36439 0.0
O143 O 0.96378 0.00962 0.28766 0.0
O144 O 0.0228 0.9165 0.32041 0.0
O145 O 0.87269 0.97429 0.29878 0.0
O146 O 0.9173 0.87578 0.33967 0.0
O147 O 0.95741 0.89922 0.26495 0.0
O148 O 0.87734 0.92146 0.33965 0.0
O149 O 0.90465 0.95976 0.26579 0.0
O150 O 0.96636 0.86386 0.2973 0.0
O151 O 0.93363 0.02017 0.32226 0.0
O152 O 0.97504 0.9247 0.36373 0.0
O153 O 0.01563 0.94922 0.28654 0.0
Sc154 Sc 0.53056 0.90307 0.83476 0.0
Sc155 Sc 0.53849 0.95856 0.78311 0.0
Sc156 Sc 0.59185 0.9762 0.83468 0.0
O157 O 0.55364 0.94588 0.81755 0.0
C158 C 0.53847 0.95833 0.87881 0.0
C159 C 0.46339 0.94107 0.80906 0.0
C160 C 0.54614 0.03652 0.80805 0.0
C161 C 0.53669 0.87254 0.78063 0.0
C162 C 0.6145 0.89542 0.84796 0.0
C163 C 0.62238 0.97236 0.77998 0.0
O164 O 0.523 0.93207 0.86821 0.0
O165 O 0.4824 0.95727 0.79314 0.0
O166 O 0.56431 0.02638 0.8265 0.0
O167 O 0.5349 0.86826 0.80354 0.0
O168 O 0.62243 0.92844 0.84402 0.0
O169 O 0.59319 0.9615 0.77027 0.0
O170 O 0.58249 0.88305 0.84617 0.0
O171 O 0.53742 0.90351 0.77073 0.0
O172 O 0.6248 0.98047 0.80243 0.0
O173 O 0.47658 0.91946 0.82475 0.0
O174 O 0.56426 0.97593 0.86921 0.0
O175 O 0.53746 0.01521 0.79089 0.0
H176 H 0.43234 0.49096 0.28346 0.0
H177 H 0.36842 0.4793 0.27711 0.0
H178 H 0.34095 0.56919 0.32366 0.0
H179 H 0.40549 0.5818 0.32992 0.0
H180 H 0.29304 0.49081 0.31965 0.0
H181 H 0.34232 0.59842 0.27862 0.0
H182 H 0.39416 0.6257 0.25733 0.0
H183 H 0.38441 0.54738 0.19997 0.0
H184 H 0.33438 0.51771 0.22195 0.0
H185 H 0.12269 0.498 0.25755 0.0
H186 H 0.17673 0.51375 0.28092 0.0
H187 H 0.24391 0.4793 0.22083 0.0
H188 H 0.19004 0.46511 0.19707 0.0
H189 H 0.26826 0.53902 0.23692 0.0
H190 H 0.23039 0.42771 0.27438 0.0
H191 H 0.18822 0.38645 0.2953 0.0
H192 H 0.18048 0.46053 0.35537 0.0
H193 H 0.22229 0.50247 0.33465 0.0
C194 C 0.41287 0.50798 0.29277 0.0
C195 C 0.42396 0.53808 0.30657 0.0
C196 C 0.37635 0.50092 0.28935 0.0
C197 C 0.35029 0.52365 0.29972 0.0
C198 C 0.36094 0.5514 0.31559 0.0
C199 C 0.39774 0.55871 0.31895 0.0
C200 C 0.3134 0.52242 0.2898 0.0
C201 C 0.28699 0.50214 0.30188 0.0
C202 C 0.30652 0.53613 0.26622 0.0
C203 C 0.33484 0.55557 0.25213 0.0
C204 C 0.3515 0.58669 0.26164 0.0
C205 C 0.38063 0.60256 0.24946 0.0
C206 C 0.3924 0.58852 0.2272 0.0
C207 C 0.37525 0.5583 0.2172 0.0
C208 C 0.34669 0.54174 0.22963 0.0
C209 C 0.14904 0.49368 0.24941 0.0
C210 C 0.15226 0.48039 0.2255 0.0
C211 C 0.17987 0.50258 0.2628 0.0
C212 C 0.21439 0.49745 0.25272 0.0
C213 C 0.21755 0.48374 0.22894 0.0
C214 C 0.18678 0.47554 0.21539 0.0
C215 C 0.24745 0.50685 0.26656 0.0
C216 C 0.27344 0.52859 0.25506 0.0
C217 C 0.2542 0.49357 0.29036 0.0
C218 C 0.22908 0.46842 0.30283 0.0
C219 C 0.21945 0.43534 0.29196 0.0
C220 C 0.19567 0.4118 0.3038 0.0
C221 C 0.18158 0.42092 0.32661 0.0
C222 C 0.19135 0.45355 0.33767 0.0
C223 C 0.21509 0.4772 0.3259 0.0
H224 H 0.16317 0.40267 0.33575 0.0
H225 H 0.41481 0.60104 0.21773 0.0
H226 H 0.88344 0.40505 0.81986 0.0
H227 H 0.89175 0.33922 0.81471 0.0
H228 H 0.99189 0.35842 0.77664 0.0
H229 H 0.98435 0.42311 0.7818 0.0
H230 H 0.93307 0.31644 0.75134 0.0
H231 H 0.00129 0.32907 0.82821 0.0
H232 H 0.00452 0.34247 0.87217 0.0
H233 H 0.92494 0.26067 0.88652 0.0
H234 H 0.92089 0.24715 0.84256 0.0
H235 H 0.04827 0.18205 0.71962 0.0
H236 H 0.02481 0.23468 0.74131 0.0
H237 H 0.95375 0.16589 0.78295 0.0
H238 H 0.97819 0.11258 0.76169 0.0
H239 H 0.97927 0.2254 0.81007 0.0
H240 H 0.91933 0.20448 0.73472 0.0
H241 H 0.9152 0.19011 0.69095 0.0
H242 H 0.9741 0.2868 0.67364 0.0
H243 H 0.9791 0.30146 0.71733 0.0
C244 C 0.90745 0.3951 0.81074 0.0
C245 C 0.9329 0.41935 0.80088 0.0
C246 C 0.91213 0.35761 0.80784 0.0
C247 C 0.9423 0.34425 0.79516 0.0
C248 C 0.96833 0.36834 0.78635 0.0
C249 C 0.96382 0.40538 0.78924 0.0
C250 C 0.94622 0.30566 0.78881 0.0
C251 C 0.94285 0.29638 0.76418 0.0
C252 C 0.95775 0.27936 0.80577 0.0
C253 C 0.96041 0.28747 0.83211 0.0
C254 C 0.98419 0.31422 0.84071 0.0
C255 C 0.98625 0.32177 0.86563 0.0
C256 C 0.96484 0.30253 0.88212 0.0
C257 C 0.94144 0.27561 0.87373 0.0
C258 C 0.93926 0.26799 0.84882 0.0
C259 C 0.02822 0.17803 0.73377 0.0
C260 C 0.01468 0.1434 0.73879 0.0
C261 C 0.01479 0.20808 0.74611 0.0
C262 C 0.98688 0.2042 0.76325 0.0
C263 C 0.97512 0.1694 0.76966 0.0
C264 C 0.98909 0.13906 0.75753 0.0
C265 C 0.9681 0.23696 0.77232 0.0
C266 C 0.96844 0.24502 0.79732 0.0
C267 C 0.95331 0.26225 0.75572 0.0
C268 C 0.94964 0.25402 0.72934 0.0
C269 C 0.93151 0.22262 0.72159 0.0
C270 C 0.92903 0.21441 0.69679 0.0
C271 C 0.94438 0.23752 0.67952 0.0
C272 C 0.96218 0.26894 0.68703 0.0
C273 C 0.96479 0.27725 0.71181 0.0
H274 H 0.94247 0.2311 0.66033 0.0
H275 H 0.96647 0.3084 0.90141 0.0
H276 H 0.30189 0.05161 0.21803 0.0
H277 H 0.24994 0.04256 0.24454 0.0
H278 H 0.32092 0.01444 0.30396 0.0
H279 H 0.37345 0.02352 0.27737 0.0
H280 H 0.26991 0.96286 0.29536 0.0
H281 H 0.26941 0.08832 0.31013 0.0
H282 H 0.27343 0.15356 0.30129 0.0
H283 H 0.17892 0.14663 0.25614 0.0
H284 H 0.17463 0.08127 0.26434 0.0
H285 H 0.08643 0.92529 0.33913 0.0
H286 H 0.14868 0.94864 0.33959 0.0
H287 H 0.13318 0.99271 0.26762 0.0
H288 H 0.07188 0.9697 0.26685 0.0
H289 H 0.16213 0.0425 0.30037 0.0
H290 H 0.17841 0.9156 0.27503 0.0
H291 H 0.17455 0.84979 0.28207 0.0
H292 H 0.23945 0.86065 0.34651 0.0
H293 H 0.24331 0.92665 0.33996 0.0
C294 C 0.30656 0.04409 0.23684 0.0
C295 C 0.34172 0.03793 0.24555 0.0
C296 C 0.27683 0.03928 0.25206 0.0
C297 C 0.28163 0.02814 0.27628 0.0
C298 C 0.31674 0.0233 0.28537 0.0
C299 C 0.34665 0.02852 0.27016 0.0
C300 C 0.24961 0.01715 0.2906 0.0
C301 C 0.24666 0.98059 0.29726 0.0
C302 C 0.21933 0.04028 0.29301 0.0
C303 C 0.22175 0.07972 0.28787 0.0
C304 C 0.24961 0.10062 0.29818 0.0
C305 C 0.25191 0.13767 0.2933 0.0
C306 C 0.22645 0.15424 0.27817 0.0
C307 C 0.1986 0.13379 0.2679 0.0
C308 C 0.19618 0.09672 0.2727 0.0
C309 C 0.0965 0.93959 0.32332 0.0
C310 C 0.07409 0.94575 0.30301 0.0
C311 C 0.13191 0.95308 0.3237 0.0
C312 C 0.14518 0.97282 0.30378 0.0
C313 C 0.12319 0.97805 0.28333 0.0
C314 C 0.08815 0.96461 0.28289 0.0
C315 C 0.18209 0.98796 0.30336 0.0
C316 C 0.18588 0.02528 0.29946 0.0
C317 C 0.21306 0.96558 0.30333 0.0
C318 C 0.21071 0.92602 0.30721 0.0
C319 C 0.19158 0.90397 0.29081 0.0
C320 C 0.18945 0.86665 0.29468 0.0
C321 C 0.20663 0.85107 0.31478 0.0
C322 C 0.22607 0.87277 0.33099 0.0
C323 C 0.22823 0.91012 0.32721 0.0
H324 H 0.20497 0.82217 0.31774 0.0
H325 H 0.22833 0.18291 0.2744 0.0
H326 H 0.46734 0.37436 0.76761 0.0
H327 H 0.47375 0.32102 0.79362 0.0
H328 H 0.45558 0.25187 0.73149 0.0
H329 H 0.44893 0.30481 0.70541 0.0
H330 H 0.42104 0.22739 0.77292 0.0
H331 H 0.54037 0.27295 0.74894 0.0
H332 H 0.58783 0.31976 0.74742 0.0
H333 H 0.58921 0.32478 0.82556 0.0
H334 H 0.54139 0.27827 0.8275 0.0
H335 H 0.5139 0.06799 0.76901 0.0
H336 H 0.49108 0.12906 0.76533 0.0
H337 H 0.52588 0.15285 0.83859 0.0
H338 H 0.54958 0.0909 0.84251 0.0
H339 H 0.54408 0.20602 0.80607 0.0
H340 H 0.43814 0.14288 0.8273 0.0
H341 H 0.394 0.0931 0.82626 0.0
H342 H 0.36682 0.11959 0.75239 0.0
H343 H 0.41184 0.1686 0.75256 0.0
C344 C 0.46433 0.3478 0.75952 0.0
C345 C 0.45818 0.34378 0.73436 0.0
C346 C 0.46799 0.31741 0.77443 0.0
C347 C 0.46544 0.28262 0.76441 0.0
C348 C 0.45764 0.27856 0.73955 0.0
C349 C 0.45418 0.30884 0.72463 0.0
C350 C 0.47374 0.25016 0.77905 0.0
C351 C 0.44781 0.22261 0.78033 0.0
C352 C 0.50826 0.24474 0.78955 0.0
C353 C 0.53702 0.27256 0.78836 0.0
C354 C 0.55061 0.28426 0.76578 0.0
C355 C 0.57759 0.31069 0.76484 0.0
C356 C 0.59143 0.32533 0.78638 0.0
C357 C 0.57839 0.31349 0.80889 0.0
C358 C 0.55135 0.2871 0.80992 0.0
C359 C 0.51672 0.08593 0.78451 0.0
C360 C 0.53345 0.07438 0.80616 0.0
C361 C 0.50336 0.12088 0.78238 0.0
C362 C 0.50595 0.14516 0.8019 0.0
C363 C 0.52323 0.13424 0.82345 0.0
C364 C 0.53682 0.09896 0.82562 0.0
C365 C 0.49202 0.18234 0.79867 0.0
C366 C 0.5168 0.21097 0.79959 0.0
C367 C 0.45644 0.18861 0.79005 0.0
C368 C 0.42857 0.15955 0.78997 0.0
C369 C 0.42295 0.138 0.81076 0.0
C370 C 0.39775 0.10985 0.81031 0.0
C371 C 0.37749 0.10329 0.78931 0.0
C372 C 0.38248 0.12477 0.76867 0.0
C373 C 0.40791 0.15273 0.76892 0.0
H374 H 0.35793 0.08155 0.789 0.0
H375 H 0.61233 0.34578 0.78562 0.0
H376 H 0.62512 0.52335 0.22353 0.0
H377 H 0.67861 0.50859 0.19893 0.0
H378 H 0.74498 0.51326 0.26351 0.0
H379 H 0.69266 0.5289 0.28779 0.0
H380 H 0.77903 0.54297 0.2276 0.0
H381 H 0.70907 0.43229 0.23988 0.0
H382 H 0.65498 0.39386 0.23524 0.0
H383 H 0.66299 0.40234 0.15742 0.0
H384 H 0.71695 0.44117 0.16165 0.0
H385 H 0.92287 0.428 0.23182 0.0
H386 H 0.85993 0.44657 0.23624 0.0
H387 H 0.84746 0.447 0.15814 0.0
H388 H 0.9107 0.4275 0.15353 0.0
H389 H 0.78361 0.42287 0.18719 0.0
H390 H 0.87119 0.5203 0.18253 0.0
H391 H 0.92789 0.54972 0.19517 0.0
H392 H 0.88749 0.56009 0.26817 0.0
H393 H 0.83108 0.52962 0.25623 0.0
C394 C 0.65126 0.52181 0.23236 0.0
C395 C 0.65454 0.52698 0.25768 0.0
C396 C 0.68172 0.51318 0.2183 0.0
C397 C 0.71571 0.50945 0.22943 0.0
C398 C 0.71908 0.51608 0.25448 0.0
C399 C 0.68896 0.52485 0.26841 0.0
C400 C 0.74801 0.4969 0.21588 0.0
C401 C 0.77997 0.51685 0.21857 0.0
C402 C 0.74907 0.46317 0.20361 0.0
C403 C 0.71665 0.44001 0.20108 0.0
C404 C 0.69909 0.42618 0.2218 0.0
C405 C 0.66851 0.40429 0.21924 0.0
C406 C 0.65547 0.39578 0.19605 0.0
C407 C 0.67306 0.40905 0.17537 0.0
C408 C 0.70362 0.431 0.17783 0.0
C409 C 0.90653 0.43124 0.21559 0.0
C410 C 0.92172 0.42694 0.19233 0.0
C411 C 0.8706 0.44174 0.21814 0.0
C412 C 0.84948 0.44887 0.19749 0.0
C413 C 0.86354 0.44175 0.17424 0.0
C414 C 0.89957 0.43069 0.17166 0.0
C415 C 0.81467 0.46791 0.20056 0.0
C416 C 0.78243 0.44949 0.19551 0.0
C417 C 0.81344 0.50248 0.21166 0.0
C418 C 0.84685 0.52245 0.21846 0.0
C419 C 0.8745 0.52852 0.20133 0.0
C420 C 0.9067 0.54528 0.20842 0.0
C421 C 0.91133 0.55659 0.23251 0.0
C422 C 0.88383 0.55126 0.24953 0.0
C423 C 0.85176 0.53424 0.24261 0.0
H424 H 0.9361 0.56959 0.23809 0.0
H425 H 0.63182 0.37881 0.19411 0.0
H426 H 0.06892 0.91381 0.73021 0.0
H427 H 0.06227 0.84838 0.73283 0.0
H428 H 0.05112 0.84193 0.65473 0.0
H429 H 0.0585 0.90805 0.65191 0.0
H430 H 0.99468 0.80754 0.68247 0.0
H431 H 0.1219 0.80214 0.67522 0.0
H432 H 0.18571 0.81846 0.68208 0.0
H433 H 0.17456 0.79426 0.75818 0.0
H434 H 0.11062 0.77797 0.75184 0.0
H435 H 0.97051 0.62213 0.72414 0.0
H436 H 0.99293 0.67235 0.69914 0.0
H437 H 0.02552 0.72913 0.76418 0.0
H438 H 0.0034 0.67963 0.78916 0.0
H439 H 0.07871 0.72815 0.72839 0.0
H440 H 0.94868 0.75106 0.73649 0.0
H441 H 0.88444 0.73534 0.7307 0.0
H442 H 0.9011 0.72783 0.65344 0.0
H443 H 0.9656 0.74309 0.65885 0.0
C444 C 0.06537 0.89848 0.71355 0.0
C445 C 0.06392 0.91591 0.69088 0.0
C446 C 0.06191 0.86109 0.71505 0.0
C447 C 0.05655 0.84041 0.69394 0.0
C448 C 0.05556 0.85755 0.67116 0.0
C449 C 0.05975 0.89514 0.6696 0.0
C450 C 0.0487 0.80148 0.69662 0.0
C451 C 0.01341 0.78962 0.69175 0.0
C452 C 0.07309 0.7784 0.70891 0.0
C453 C 0.1114 0.78882 0.71302 0.0
C454 C 0.13297 0.80051 0.69345 0.0
C455 C 0.16921 0.80963 0.69724 0.0
C456 C 0.1842 0.80728 0.72054 0.0
C457 C 0.16295 0.79592 0.74012 0.0
C458 C 0.12673 0.78661 0.73642 0.0
C459 C 0.98237 0.64538 0.73309 0.0
C460 C 0.98504 0.64691 0.75867 0.0
C461 C 0.99519 0.67394 0.71878 0.0
C462 C 0.01099 0.70424 0.72987 0.0
C463 C 0.01365 0.70579 0.7553 0.0
C464 C 0.00069 0.67755 0.76956 0.0
C465 C 0.02422 0.73521 0.71544 0.0
C466 C 0.06049 0.74545 0.71817 0.0
C467 C 0.00069 0.75684 0.70131 0.0
C468 C 0.962 0.74767 0.6981 0.0
C469 C 0.9387 0.74572 0.7183 0.0
C470 C 0.90224 0.73697 0.71508 0.0
C471 C 0.88873 0.73045 0.69172 0.0
C472 C 0.91163 0.73278 0.67153 0.0
C473 C 0.94813 0.74148 0.67465 0.0
H474 H 0.86049 0.7237 0.68927 0.0
H475 H 0.21228 0.81432 0.72343 0.0
H476 H 0.59282 0.08422 0.1871 0.0
H477 H 0.65448 0.0612 0.19139 0.0
H478 H 0.61342 0.95184 0.19396 0.0
H479 H 0.55172 0.97519 0.1913 0.0
H480 H 0.6541 0.95763 0.22841 0.0
H481 H 0.67158 0.98531 0.14615 0.0
H482 H 0.66917 0.01969 0.10774 0.0
H483 H 0.73793 0.10137 0.13844 0.0
H484 H 0.74035 0.06779 0.17718 0.0
H485 H 0.86584 0.95001 0.22799 0.0
H486 H 0.80974 0.95305 0.2043 0.0
H487 H 0.75441 -0.00144 0.26638 0.0
H488 H 0.80968 0.99517 0.29019 0.0
H489 H 0.76534 0.00746 0.19072 0.0
H490 H 0.67372 0.96278 0.27268 0.0
H491 H 0.67792 0.92093 0.30754 0.0
H492 H 0.75852 0.85864 0.26984 0.0
H493 H 0.75441 0.8997 0.23463 0.0
C494 C 0.59722 0.05526 0.18801 0.0
C495 C 0.56785 0.03142 0.18907 0.0
C496 C 0.63246 0.04201 0.19027 0.0
C497 C 0.63883 0.00461 0.1928 0.0
C498 C 0.60933 0.98072 0.19213 0.0
C499 C 0.57414 0.99404 0.1906 0.0
C500 C 0.67536 0.99113 0.19952 0.0
C501 C 0.6783 0.96818 0.21984 0.0
C502 C 0.70724 0.0036 0.18793 0.0
C503 C 0.70602 0.02403 0.16465 0.0
C504 C 0.68601 0.01071 0.14478 0.0
C505 C 0.68467 0.03006 0.12293 0.0
C506 C 0.70336 0.06271 0.12066 0.0
C507 C 0.72349 0.07606 0.14022 0.0
C508 C 0.72491 0.05683 0.16212 0.0
C509 C 0.84172 0.96076 0.23656 0.0
C510 C 0.84216 0.97203 0.26107 0.0
C511 C 0.80977 0.9625 0.22298 0.0
C512 C 0.77788 0.97541 0.23374 0.0
C513 C 0.77859 0.98775 0.2579 0.0
C514 C 0.81029 0.98589 0.27147 0.0
C515 C 0.74337 0.97602 0.22019 0.0
C516 C 0.74092 -0.00365 0.1987 0.0
C517 C 0.71198 0.95984 0.23001 0.0
C518 C 0.71386 0.93451 0.25102 0.0
C519 C 0.69213 0.94 0.27173 0.0
C520 C 0.69456 0.91644 0.29159 0.0
C521 C 0.71853 0.88718 0.29094 0.0
C522 C 0.74004 0.88135 0.27038 0.0
C523 C 0.73768 0.90479 0.25047 0.0
H524 H 0.72041 0.86901 0.30634 0.0
H525 H 0.70228 0.07765 0.10372 0.0
H526 H 0.4496 0.58596 0.65336 0.0
H527 H 0.46791 0.6496 0.65879 0.0
H528 H 0.45048 0.63987 0.73622 0.0
H529 H 0.43292 0.57689 0.73102 0.0
H530 H 0.4231 0.70425 0.71624 0.0
H531 H 0.53157 0.62829 0.71582 0.0
H532 H 0.57458 0.58559 0.69687 0.0
H533 H 0.59317 0.66065 0.63854 0.0
H534 H 0.54985 0.70358 0.657 0.0
H535 H 0.52906 0.80206 0.79466 0.0
H536 H 0.51432 0.75066 0.76872 0.0
H537 H 0.52466 0.81762 0.70488 0.0
H538 H 0.53915 0.86973 0.73068 0.0
H539 H 0.55326 0.73373 0.70621 0.0
H540 H 0.44985 0.81446 0.71271 0.0
H541 H 0.41014 0.85574 0.73584 0.0
H542 H 0.38343 0.76979 0.78524 0.0
H543 H 0.4235 0.72818 0.76262 0.0
C544 C 0.44922 0.59776 0.67142 0.0
C545 C 0.44014 0.57667 0.69181 0.0
C546 C 0.45974 0.63389 0.67449 0.0
C547 C 0.46055 0.6492 0.6979 0.0
C548 C 0.44989 0.62851 0.71802 0.0
C549 C 0.44007 0.59253 0.71504 0.0
C550 C 0.47446 0.68598 0.70231 0.0
C551 C 0.45139 0.71099 0.71363 0.0
C552 C 0.51131 0.69476 0.69869 0.0
C553 C 0.53712 0.66888 0.68757 0.0
C554 C 0.54454 0.6355 0.69882 0.0
C555 C 0.56903 0.61131 0.68821 0.0
C556 C 0.58649 0.62038 0.66648 0.0
C557 C 0.57954 0.65365 0.65533 0.0
C558 C 0.55503 0.67791 0.66585 0.0
C559 C 0.52893 0.80589 0.7751 0.0
C560 C 0.53452 0.84024 0.76479 0.0
C561 C 0.52064 0.77642 0.76032 0.0
C562 C 0.51812 0.78068 0.73503 0.0
C563 C 0.52653 0.81404 0.72442 0.0
C564 C 0.53459 0.84373 0.73923 0.0
C565 C 0.50197 0.75139 0.72052 0.0
C566 C 0.52462 0.72774 0.70765 0.0
C567 C 0.46473 0.74365 0.72279 0.0
C568 C 0.43984 0.7683 0.73606 0.0
C569 C 0.43569 0.80444 0.7286 0.0
C570 C 0.4131 0.82789 0.74161 0.0
C571 C 0.39433 0.81542 0.76203 0.0
C572 C 0.398 0.77943 0.76942 0.0
C573 C 0.42061 0.75588 0.75649 0.0
H574 H 0.3769 0.83363 0.77209 0.0
H575 H 0.60553 0.60172 0.65834 0.0
H576 H 0.80544 0.56888 0.76971 0.0
H577 H 0.75187 0.55629 0.74525 0.0
H578 H 0.81497 0.48748 0.69802 0.0
H579 H 0.86925 0.50091 0.72217 0.0
H580 H 0.75096 0.5255 0.67503 0.0
H581 H 0.78329 0.44508 0.74029 0.0
H582 H 0.80511 0.43144 0.78172 0.0
H583 H 0.71385 0.48734 0.81227 0.0
H584 H 0.69187 0.50193 0.771 0.0
H585 H 0.58051 0.4206 0.66225 0.0
H586 H 0.64503 0.43583 0.66543 0.0
H587 H 0.61996 0.5166 0.7196 0.0
H588 H 0.55616 0.50203 0.71662 0.0
H589 H 0.67122 0.461 0.7334 0.0
H590 H 0.64133 0.5435 0.66687 0.0
H591 H 0.62086 0.55688 0.62506 0.0
H592 H 0.70811 0.49337 0.59602 0.0
H593 H 0.72867 0.47901 0.63767 0.0
C594 C 0.80815 0.55211 0.75361 0.0
C595 C 0.84111 0.53528 0.74801 0.0
C596 C 0.77765 0.54511 0.73959 0.0
C597 C 0.77953 0.52048 0.72018 0.0
C598 C 0.81316 0.50659 0.71294 0.0
C599 C 0.844 0.51414 0.72679 0.0
C600 C 0.74571 0.50407 0.71133 0.0
C601 C 0.73369 0.51079 0.68754 0.0
C602 C 0.7236 0.48449 0.72768 0.0
C603 C 0.73606 0.47476 0.75255 0.0
C604 C 0.76798 0.45461 0.75585 0.0
C605 C 0.78038 0.44672 0.7793 0.0
C606 C 0.76089 0.45855 0.79962 0.0
C607 C 0.72891 0.47819 0.79652 0.0
C608 C 0.71645 0.48625 0.7731 0.0
C609 C 0.58876 0.44183 0.67466 0.0
C610 C 0.56323 0.45964 0.68949 0.0
C611 C 0.62551 0.45055 0.67634 0.0
C612 C 0.63697 0.47715 0.69281 0.0
C613 C 0.61147 0.49584 0.70687 0.0
C614 C 0.575 0.4873 0.7052 0.0
C615 C 0.67558 0.48383 0.69744 0.0
C616 C 0.68869 0.47495 0.72059 0.0
C617 C 0.69856 0.50087 0.68035 0.0
C618 C 0.68624 0.50978 0.65538 0.0
C619 C 0.65591 0.53207 0.65158 0.0
C620 C 0.64435 0.5399 0.62791 0.0
C621 C 0.66311 0.52591 0.60791 0.0
C622 C 0.69355 0.50413 0.61153 0.0
C623 C 0.70516 0.49613 0.63516 0.0
H624 H 0.65413 0.53203 0.58961 0.0
H625 H 0.77055 0.45245 0.81776 0.0
H626 H -0.00271 0.55723 0.22164 0.0
H627 H 0.9748 0.61874 0.22476 0.0
H628 H 0.01711 0.64289 0.15346 0.0
H629 H 0.03997 0.5806 0.15 0.0
H630 H 0.03796 0.69151 0.18815 0.0
H631 H 0.92774 0.6447 0.16047 0.0
H632 H 0.87364 0.60658 0.15539 0.0
H633 H 0.84251 0.62774 0.22936 0.0
H634 H 0.89675 0.6654 0.23513 0.0
H635 H 0.973 0.86577 0.22552 0.0
H636 H 0.97677 0.81182 0.19974 0.0
H637 H 0.95156 0.74469 0.26169 0.0
H638 H 0.9479 0.79833 0.28761 0.0
H639 H 0.91565 0.72437 0.21817 0.0
H640 H 0.03661 0.75665 0.24692 0.0
H641 H 0.08833 0.79832 0.25095 0.0
H642 H 0.09698 0.80505 0.17309 0.0
H643 H 0.04495 0.76376 0.16862 0.0
C644 C 0.00132 0.57523 0.20633 0.0
C645 C 0.02027 0.56382 0.18549 0.0
C646 C 0.98809 0.61036 0.20809 0.0
C647 C 0.99339 0.63503 0.1891 0.0
C648 C 0.01221 0.62397 0.16815 0.0
C649 C 0.02542 0.5885 0.16628 0.0
C650 C 0.98309 0.67325 0.19308 0.0
C651 C 0.01091 0.699 0.19395 0.0
C652 C 0.94786 0.68286 0.20093 0.0
C653 C 0.91648 0.65801 0.19821 0.0
C654 C 0.90966 0.64089 0.17578 0.0
C655 C 0.87881 0.61952 0.17273 0.0
C656 C 0.85444 0.61511 0.19195 0.0
C657 C 0.86119 0.63154 0.2144 0.0
C658 C 0.89204 0.65286 0.21758 0.0
C659 C 0.96785 0.83954 0.23359 0.0
C660 C 0.9606 0.83619 0.25865 0.0
C661 C 0.97005 0.80883 0.21884 0.0
C662 C 0.96469 0.77442 0.2289 0.0
C663 C 0.95581 0.77112 0.25364 0.0
C664 C 0.954 0.80172 0.26845 0.0
C665 C 0.97085 0.74144 0.21432 0.0
C666 C 0.9423 0.71694 0.21157 0.0
C667 C 0.00531 0.73291 0.20473 0.0
C668 C 0.03663 0.75755 0.20744 0.0
C669 C 0.04936 0.76728 0.23067 0.0
C670 C 0.07875 0.79077 0.23303 0.0
C671 C 0.09585 0.80444 0.21229 0.0
C672 C 0.08365 0.79453 0.18914 0.0
C673 C 0.05422 0.77108 0.18668 0.0
H674 H 0.11861 0.82261 0.21416 0.0
H675 H 0.83053 0.59864 0.18953 0.0
H676 H 0.94118 0.96898 0.68606 0.0
H677 H 0.87828 0.94988 0.69051 0.0
H678 H 0.84496 0.06192 0.69323 0.0
H679 H 0.90761 0.08084 0.68718 0.0
H680 H 0.84146 0.95716 0.7276 0.0
H681 H 0.75803 0.07459 0.68258 0.0
H682 H 0.75961 0.11111 0.64504 0.0
H683 H 0.82112 0.02816 0.6091 0.0
H684 H 0.81949 0.99088 0.64629 0.0
H685 H 0.68886 -0.00301 0.79368 0.0
H686 H 0.74341 0.00057 0.76909 0.0
H687 H 0.68561 0.9582 0.70712 0.0
H688 H 0.63029 0.95484 0.7316 0.0
H689 H 0.73037 0.01403 0.69437 0.0
H690 H 0.74012 0.90285 0.73542 0.0
H691 H 0.7363 0.86071 0.77007 0.0
H692 H 0.81999 0.91936 0.80715 0.0
H693 H 0.82395 0.96225 0.77284 0.0
C694 C 0.92016 0.98941 0.68689 0.0
C695 C 0.929 0.02632 0.68636 0.0
C696 C 0.88428 0.97852 0.68949 0.0
C697 C 0.85669 0.00437 0.69222 0.0
C698 C 0.86546 0.04134 0.69058 0.0
C699 C 0.9013 0.05222 0.68729 0.0
C700 C 0.81998 0.99298 0.70008 0.0
C701 C 0.81724 0.96927 0.72001 0.0
C702 C 0.78806 0.00784 0.68987 0.0
C703 C 0.7888 0.03 0.66732 0.0
C704 C 0.7717 0.06401 0.66663 0.0
C705 C 0.77266 0.08488 0.64541 0.0
C706 C 0.79052 0.072 0.62471 0.0
C707 C 0.80739 0.03816 0.62517 0.0
C708 C 0.8065 0.01717 0.64633 0.0
C709 C 0.68753 0.98845 0.77483 0.0
C710 C 0.65519 0.97537 0.76469 0.0
C711 C 0.71882 0.99046 0.76081 0.0
C712 C 0.71859 0.97915 0.73642 0.0
C713 C 0.68627 0.96692 0.72596 0.0
C714 C 0.65478 0.96493 0.74001 0.0
C715 C 0.75261 0.9798 0.72231 0.0
C716 C 0.75473 0.00139 0.70137 0.0
C717 C 0.78387 0.96197 0.73097 0.0
C718 C 0.78221 0.9359 0.75156 0.0
C719 C 0.75759 0.9069 0.75101 0.0
C720 C 0.7554 0.88286 0.7706 0.0
C721 C 0.77785 0.88737 0.79083 0.0
C722 C 0.80262 0.91589 0.79146 0.0
C723 C 0.8049 0.94005 0.77192 0.0
H724 H 0.77608 0.86873 0.80598 0.0
H725 H 0.79124 0.08821 0.60831 0.0
H726 H 0.47848 0.92698 0.22555 0.0
H727 H 0.49406 0.86345 0.22431 0.0
H728 H 0.42543 0.84827 0.16165 0.0
H729 H 0.40919 0.91286 0.16272 0.0
H730 H 0.41618 0.79564 0.19752 0.0
H731 H 0.51343 0.84229 0.15216 0.0
H732 H 0.56182 0.88503 0.14109 0.0
H733 H 0.61772 0.8608 0.20762 0.0
H734 H 0.56943 0.81827 0.21931 0.0
H735 H 0.49306 0.61906 0.22539 0.0
H736 H 0.47786 0.67116 0.19942 0.0
H737 H 0.5257 0.74302 0.25229 0.0
H738 H 0.54041 0.69158 0.27825 0.0
H739 H 0.54502 0.75912 0.2038 0.0
H740 H 0.43592 0.73349 0.25318 0.0
H741 H 0.38369 0.69701 0.26657 0.0
H742 H 0.35045 0.6834 0.1922 0.0
H743 H 0.40241 0.72005 0.17842 0.0
C744 C 0.46652 0.91042 0.2114 0.0
C745 C 0.44253 0.9252 0.19419 0.0
C746 C 0.47581 0.87403 0.21061 0.0
C747 C 0.46157 0.85136 0.19255 0.0
C748 C 0.43704 0.86554 0.17554 0.0
C749 C 0.42775 0.90235 0.17623 0.0
C750 C 0.47146 0.81256 0.19292 0.0
C751 C 0.44431 0.78724 0.19798 0.0
C752 C 0.50818 0.80174 0.19359 0.0
C753 C 0.53774 0.82695 0.18659 0.0
C754 C 0.53596 0.84614 0.16449 0.0
C755 C 0.56339 0.87035 0.1581 0.0
C756 C 0.59286 0.87555 0.17362 0.0
C757 C 0.59493 0.85662 0.19558 0.0
C758 C 0.56757 0.83237 0.20207 0.0
C759 C 0.50078 0.64598 0.23121 0.0
C760 C 0.51791 0.65137 0.25381 0.0
C761 C 0.49193 0.67562 0.21646 0.0
C762 C 0.5007 0.71085 0.22398 0.0
C763 C 0.51887 0.71602 0.24612 0.0
C764 C 0.52713 0.68664 0.26098 0.0
C765 C 0.4898 0.74304 0.20976 0.0
C766 C 0.51687 0.76704 0.20211 0.0
C767 C 0.45306 0.75264 0.20665 0.0
C768 C 0.42319 0.72901 0.21479 0.0
C769 C 0.41766 0.72237 0.2397 0.0
C770 C 0.38798 0.70192 0.24736 0.0
C771 C 0.36374 0.68796 0.23024 0.0
C772 C 0.36922 0.69427 0.20542 0.0
C773 C 0.39872 0.71493 0.19769 0.0
H774 H 0.34073 0.6722 0.23621 0.0
H775 H 0.61411 0.89423 0.16859 0.0
H776 H 0.36052 0.46285 0.76809 0.0
H777 H 0.308 0.47364 0.79422 0.0
H778 H 0.24215 0.49279 0.73067 0.0
H779 H 0.29425 0.48247 0.70446 0.0
H780 H 0.23372 0.54534 0.76459 0.0
H781 H 0.2373 0.414 0.761 0.0
H782 H 0.26591 0.35431 0.76689 0.0
H783 H 0.27715 0.37584 0.84338 0.0
H784 H 0.24904 0.43591 0.83787 0.0
H785 H 0.05419 0.47711 0.79346 0.0
H786 H 0.11827 0.46252 0.79085 0.0
H787 H 0.14398 0.55765 0.833 0.0
H788 H 0.07949 0.57266 0.83562 0.0
H789 H 0.17975 0.45271 0.81895 0.0
H790 H 0.20899 0.60109 0.79959 0.0
H791 H 0.17672 0.65768 0.78945 0.0
H792 H 0.09472 0.59682 0.75224 0.0
H793 H 0.12681 0.54001 0.76185 0.0
C794 C 0.3348 0.46911 0.75965 0.0
C795 C 0.33162 0.47198 0.73416 0.0
C796 C 0.30489 0.47527 0.77463 0.0
C797 C 0.27139 0.48418 0.76433 0.0
C798 C 0.26796 0.48629 0.73894 0.0
C799 C 0.29774 0.4802 0.72398 0.0
C800 C 0.2396 0.49185 0.77972 0.0
C801 C 0.22227 0.52532 0.77681 0.0
C802 C 0.22481 0.46572 0.79566 0.0
C803 C 0.24152 0.42959 0.79898 0.0
C804 C 0.24616 0.40612 0.77904 0.0
C805 C 0.26223 0.37221 0.78231 0.0
C806 C 0.27345 0.36134 0.80548 0.0
C807 C 0.26852 0.38433 0.82544 0.0
C808 C 0.25252 0.4183 0.82225 0.0
C809 C 0.0734 0.49451 0.80266 0.0
C810 C 0.06206 0.52654 0.81416 0.0
C811 C 0.10997 0.48587 0.80143 0.0
C812 C 0.13574 0.50928 0.81147 0.0
C813 C 0.12434 0.53939 0.82507 0.0
C814 C 0.08758 0.54797 0.82646 0.0
C815 C 0.17356 0.5058 0.80331 0.0
C816 C 0.19205 0.47323 0.80753 0.0
C817 C 0.18913 0.53238 0.78805 0.0
C818 C 0.17002 0.56638 0.78174 0.0
C819 C 0.18412 0.59986 0.7892 0.0
C820 C 0.16588 0.63195 0.78353 0.0
C821 C 0.13361 0.63083 0.77029 0.0
C822 C 0.11964 0.59764 0.76256 0.0
C823 C 0.13784 0.56551 0.76811 0.0
H824 H 0.11949 0.65569 0.76597 0.0
H825 H 0.28588 0.33508 0.80798 0.0
H826 H 0.04748 0.36418 0.26553 0.0
H827 H 0.04163 0.31102 0.29186 0.0
H828 H 0.0426 0.24166 0.22874 0.0
H829 H 0.04832 0.29426 0.20223 0.0
H830 H 0.97413 0.25071 0.2672 0.0
H831 H 0.10493 0.2056 0.25351 0.0
H832 H 0.17041 0.21881 0.25544 0.0
H833 H 0.15708 0.26388 0.327 0.0
H834 H 0.09159 0.25066 0.32547 0.0
H835 H 0.01231 0.05454 0.27962 0.0
H836 H 0.03472 0.11604 0.27676 0.0
H837 H 0.95395 0.15153 0.3283 0.0
H838 H 0.93078 0.08943 0.33113 0.0
H839 H 0.06189 0.16772 0.30665 0.0
H840 H 0.92163 0.23239 0.30548 0.0
H841 H 0.85761 0.21592 0.29906 0.0
H842 H 0.88986 0.12989 0.25108 0.0
H843 H 0.95396 0.14617 0.257 0.0
C844 C 0.0473 0.33757 0.25725 0.0
C845 C 0.04756 0.33347 0.23174 0.0
C846 C 0.04411 0.30732 0.27235 0.0
C847 C 0.04159 0.27276 0.2621 0.0
C848 C 0.04456 0.26833 0.23684 0.0
C849 C 0.04759 0.29844 0.22175 0.0
C850 C 0.02986 0.24183 0.27686 0.0
C851 C 0.99307 0.23295 0.27645 0.0
C852 C 0.0547 0.21884 0.28856 0.0
C853 C 0.09363 0.22734 0.28933 0.0
C854 C 0.11607 0.21839 0.2696 0.0
C855 C 0.15311 0.22583 0.27063 0.0
C856 C 0.16786 0.24226 0.29129 0.0
C857 C 0.14561 0.25122 0.31099 0.0
C858 C 0.10857 0.24374 0.31007 0.0
C859 C -0.0007 0.07528 0.2905 0.0
C860 C 0.96918 0.06729 0.30518 0.0
C861 C 0.01255 0.11038 0.2891 0.0
C862 C -0.0041 0.13829 0.30222 0.0
C863 C 0.96705 0.13025 0.31797 0.0
C864 C 0.95377 0.09488 0.31947 0.0
C865 C 0.00604 0.17596 0.29657 0.0
C866 C 0.04253 0.18618 0.29851 0.0
C867 C 0.98088 0.20001 0.28584 0.0
C868 C 0.94249 0.19015 0.28199 0.0
C869 C 0.91499 0.20998 0.29356 0.0
C870 C 0.87872 0.2007 0.29 0.0
C871 C 0.86968 0.17177 0.27477 0.0
C872 C 0.89689 0.15218 0.26296 0.0
C873 C 0.93318 0.16141 0.26643 0.0
H874 H 0.8416 0.16461 0.27205 0.0
H875 H 0.19654 0.24798 0.29205 0.0
H876 H 0.42979 0.00276 0.79471 0.0
H877 H 0.36498 0.01465 0.79321 0.0
H878 H 0.34358 0.90872 0.82275 0.0
H879 H 0.40888 0.89662 0.82461 0.0
H880 H 0.30767 0.92348 0.77927 0.0
H881 H 0.32239 0.97657 0.85631 0.0
H882 H 0.34951 0.01411 0.88855 0.0
H883 H 0.3249 0.1102 0.8479 0.0
H884 H 0.2985 0.07329 0.81509 0.0
H885 H 0.1228 0.01832 0.7733 0.0
H886 H 0.17411 0.00124 0.79923 0.0
H887 H 0.24628 0.0133 0.73807 0.0
H888 H 0.19564 0.03012 0.71212 0.0
H889 H 0.24535 0.03366 0.80979 0.0
H890 H 0.29255 0.93684 0.7338 0.0
H891 H 0.26488 0.90349 0.69966 0.0
H892 H 0.16533 0.89496 0.73951 0.0
H893 H 0.19256 0.92783 0.77407 0.0
C894 C 0.41134 0.98208 0.8011 0.0
C895 C 0.42427 0.94862 0.80956 0.0
C896 C 0.37436 0.98911 0.80052 0.0
C897 C 0.34963 0.96275 0.80817 0.0
C898 C 0.36238 0.9295 0.81704 0.0
C899 C 0.39956 0.92263 0.81802 0.0
C900 C 0.3107 0.96882 0.80389 0.0
C901 C 0.29372 0.94709 0.78637 0.0
C902 C 0.29249 -0.00054 0.81341 0.0
C903 C 0.30859 0.02199 0.83308 0.0
C904 C 0.32309 0.00567 0.85407 0.0
C905 C 0.33831 0.02688 0.87249 0.0
C906 C 0.33896 0.06452 0.87026 0.0
C907 C 0.32432 0.08103 0.84963 0.0
C908 C 0.30924 0.05995 0.83109 0.0
C909 C 0.14973 0.01811 0.76553 0.0
C910 C 0.15514 0.02496 0.74057 0.0
C911 C 0.17891 0.00834 0.78037 0.0
C912 C 0.21364 0.0054 0.77034 0.0
C913 C 0.21945 0.01491 0.74596 0.0
C914 C 0.19048 0.02448 0.73117 0.0
C915 C 0.24373 0.98951 0.78432 0.0
C916 C 0.25891 0.00937 0.80347 0.0
C917 C 0.26038 0.95711 0.77641 0.0
C918 C 0.24459 0.93495 0.75649 0.0
C919 C 0.26491 0.92746 0.73542 0.0
C920 C 0.24925 0.90878 0.71595 0.0
C921 C 0.21331 0.89736 0.71736 0.0
C922 C 0.19311 0.90404 0.7384 0.0
C923 C 0.20865 0.92268 0.75794 0.0
H924 H 0.20113 0.88338 0.70213 0.0
H925 H 0.35076 0.08089 0.88455 0.0
H926 H 0.49934 0.42807 0.28769 0.0
H927 H 0.48877 0.36315 0.28749 0.0
H928 H 0.58377 0.34668 0.33172 0.0
H929 H 0.59467 0.41223 0.33204 0.0
H930 H 0.58369 0.30482 0.29091 0.0
H931 H 0.50423 0.32575 0.35622 0.0
H932 H 0.45683 0.35674 0.37997 0.0
H933 H 0.37889 0.33295 0.32429 0.0
H934 H 0.4259 0.30229 0.3 0.0
H935 H 0.47293 0.12512 0.27573 0.0
H936 H 0.49133 0.17572 0.3019 0.0
H937 H 0.51496 0.23969 0.23821 0.0
H938 H 0.49683 0.18986 0.21207 0.0
H939 H 0.46447 0.24655 0.30439 0.0
H940 H 0.59167 0.28494 0.24707 0.0
H941 H 0.63925 0.25376 0.22359 0.0
H942 H 0.62358 0.15758 0.26609 0.0
H943 H 0.57631 0.18833 0.29012 0.0
C944 C 0.51786 0.41076 0.2976 0.0
C945 C 0.54806 0.42521 0.30968 0.0
C946 C 0.51153 0.37366 0.2977 0.0
C947 C 0.53524 0.35018 0.30984 0.0
C948 C 0.56501 0.36447 0.32244 0.0
C949 C 0.57118 0.40183 0.32258 0.0
C950 C 0.53068 0.31073 0.30669 0.0
C951 C 0.5579 0.29178 0.29428 0.0
C952 C 0.49732 0.29353 0.31168 0.0
C953 C 0.4687 0.3117 0.32626 0.0
C954 C 0.47703 0.32727 0.34896 0.0
C955 C 0.45021 0.34478 0.36253 0.0
C956 C 0.41487 0.34681 0.35365 0.0
C957 C 0.40627 0.3313 0.33117 0.0
C958 C 0.43299 0.31377 0.31752 0.0
C959 C 0.48198 0.15001 0.26732 0.0
C960 C 0.48352 0.15336 0.24178 0.0
C961 C 0.49248 0.1788 0.2823 0.0
C962 C 0.50509 0.21107 0.27194 0.0
C963 C 0.50596 0.21469 0.24654 0.0
C964 C 0.49531 0.1862 0.23161 0.0
C965 C 0.51662 0.24184 0.28724 0.0
C966 C 0.4907 0.25911 0.30184 0.0
C967 C 0.5513 0.25741 0.28446 0.0
C968 C 0.58032 0.23897 0.27039 0.0
C969 C 0.59856 0.25724 0.25157 0.0
C970 C 0.62544 0.23961 0.23812 0.0
C971 C 0.6344 0.2037 0.24332 0.0
C972 C 0.61656 0.18537 0.26204 0.0
C973 C 0.58969 0.20289 0.27557 0.0
H974 H 0.65517 0.19009 0.23286 0.0
H975 H 0.39415 0.36039 0.36418 0.0
H976 H 0.10829 0.31598 0.13494 0.0
H977 H 0.15854 0.27342 0.13364 0.0
H978 H 0.23417 0.36133 0.14147 0.0
H979 H 0.18387 0.40454 0.14286 0.0
H980 H 0.25675 0.30211 0.10853 0.0
H981 H 0.21521 0.32323 0.19054 0.0
H982 H 0.16746 0.3301 0.22159 0.0
H983 H 0.13263 0.221 0.20866 0.0
H984 H 0.18002 0.21358 0.17733 0.0
H985 H 0.39945 0.19011 0.15466 0.0
H986 H 0.35546 0.23867 0.14844 0.0
H987 H 0.26852 0.16111 0.15163 0.0
H988 H 0.31204 0.11251 0.15812 0.0
H989 H 0.25422 0.21891 0.17949 0.0
H990 H 0.29552 0.19722 0.09771 0.0
H991 H 0.34088 0.19082 0.06504 0.0
H992 H 0.37496 0.30059 0.07636 0.0
H993 H 0.33012 0.30748 0.10935 0.0
C994 C 0.13557 0.32652 0.13595 0.0
C995 C 0.14198 0.36369 0.13942 0.0
C996 C 0.16426 0.30209 0.13515 0.0
C997 C 0.1999 0.31427 0.13781 0.0
C998 C 0.20675 0.35151 0.13942 0.0
C999 C 0.17795 0.3761 0.14026 0.0
C1000 C 0.22922 0.28768 0.14165 0.0
C1001 C 0.25667 0.28424 0.12419 0.0
C1002 C 0.22856 0.26416 0.16195 0.0
C1003 C 0.20099 0.26794 0.18147 0.0
C1004 C 0.1973 0.30074 0.19426 0.0
C1005 C 0.17031 0.30474 0.2119 0.0
C1006 C 0.14696 0.27606 0.21702 0.0
C1007 C 0.15071 0.24322 0.20462 0.0
C1008 C 0.1777 0.23905 0.18698 0.0
C1009 C 0.37099 0.1833 0.15393 0.0
C1010 C 0.35936 0.14731 0.15689 0.0
C1011 C 0.3459 0.21112 0.15029 0.0
C1012 C 0.30874 0.20346 0.14942 0.0
C1013 C 0.29707 0.16762 0.15227 0.0
C1014 C 0.32207 0.13983 0.1559 0.0
C1015 C 0.28179 0.23278 0.14616 0.0
C1016 C 0.25467 0.23684 0.16385 0.0
C1017 C 0.28283 0.25678 0.12605 0.0
C1018 C 0.30974 0.25273 0.10618 0.0
C1019 C 0.3129 0.2199 0.09338 0.0
C1020 C 0.33847 0.2162 0.07477 0.0
C1021 C 0.36086 0.24525 0.06868 0.0
C1022 C 0.35765 0.27809 0.08113 0.0
C1023 C 0.33214 0.28191 0.09977 0.0
H1024 H 0.38064 0.24234 0.05427 0.0
H1025 H 0.12611 0.27924 0.23068 0.0
H1026 H 0.10063 0.18175 0.65315 0.0
H1027 H 0.14567 0.22959 0.6485 0.0
H1028 H 0.23078 0.14966 0.64772 0.0
H1029 H 0.1862 0.10174 0.65268 0.0
H1030 H 0.2468 0.20382 0.67793 0.0
H1031 H 0.20515 0.19241 0.59568 0.0
H1032 H 0.15996 0.19005 0.56271 0.0
H1033 H 0.12619 0.29841 0.57962 0.0
H1034 H 0.17086 0.30123 0.61294 0.0
H1035 H 0.38934 0.31806 0.64287 0.0
H1036 H 0.34383 0.27053 0.6403 0.0
H1037 H 0.25912 0.35047 0.64562 0.0
H1038 H 0.30439 0.39843 0.64797 0.0
H1039 H 0.24323 0.29635 0.61251 0.0
H1040 H 0.28524 0.30682 0.69527 0.0
H1041 H 0.33162 0.30892 0.7275 0.0
H1042 H 0.36561 0.20118 0.7091 0.0
H1043 H 0.31981 0.19867 0.67644 0.0
C1044 C 0.12889 0.17428 0.65179 0.0
C1045 C 0.13974 0.13785 0.65332 0.0
C1046 C 0.1546 0.20167 0.64907 0.0
C1047 C 0.19155 0.19313 0.64762 0.0
C1048 C 0.20241 0.15683 0.64884 0.0
C1049 C 0.17681 0.12946 0.65162 0.0
C1050 C 0.21908 0.22206 0.64565 0.0
C1051 C 0.24631 0.22373 0.66342 0.0
C1052 C 0.21795 0.24847 0.62702 0.0
C1053 C 0.19111 0.24689 0.60696 0.0
C1054 C 0.18788 0.21563 0.5925 0.0
C1055 C 0.1624 0.21422 0.57373 0.0
C1056 C 0.14015 0.24402 0.56912 0.0
C1057 C 0.14341 0.27533 0.58323 0.0
C1058 C 0.16883 0.27685 0.60205 0.0
C1059 C 0.36105 0.32571 0.64316 0.0
C1060 C 0.35056 0.36211 0.64591 0.0
C1061 C 0.3351 0.29845 0.64176 0.0
C1062 C 0.29821 0.30701 0.64321 0.0
C1063 C 0.28752 0.34336 0.64458 0.0
C1064 C 0.31346 0.37071 0.64598 0.0
C1065 C 0.2709 0.27792 0.6447 0.0
C1066 C 0.2437 0.27631 0.62694 0.0
C1067 C 0.27211 0.25146 0.66331 0.0
C1068 C 0.29932 0.25271 0.68321 0.0
C1069 C 0.30278 0.28367 0.69796 0.0
C1070 C 0.32896 0.28493 0.71632 0.0
C1071 C 0.35164 0.25525 0.72028 0.0
C1072 C 0.34808 0.22418 0.70596 0.0
C1073 C 0.322 0.22283 0.68753 0.0
H1074 H 0.37192 0.25628 0.73449 0.0
H1075 H 0.12044 0.24289 0.55457 0.0
H1076 H 0.89106 0.81545 0.35086 0.0
H1077 H 0.84216 0.77137 0.35271 0.0
H1078 H 0.76367 0.85698 0.3449 0.0
H1079 H 0.81237 0.90153 0.34322 0.0
H1080 H 0.74229 0.80506 0.37804 0.0
H1081 H 0.78779 0.81061 0.29659 0.0
H1082 H 0.83465 0.8096 0.26463 0.0
H1083 H 0.86194 0.70025 0.28362 0.0
H1084 H 0.81565 0.70085 0.31604 0.0
H1085 H 0.59741 0.69144 0.33817 0.0
H1086 H 0.6432 0.73878 0.34177 0.0
H1087 H 0.7266 0.65749 0.34729 0.0
H1088 H 0.68128 0.61002 0.34347 0.0
H1089 H 0.74404 0.70915 0.31471 0.0
H1090 H 0.69944 0.70447 0.39704 0.0
H1091 H 0.65272 0.7061 0.4291 0.0
H1092 H 0.62333 0.81401 0.4079 0.0
H1093 H 0.66956 0.81284 0.37548 0.0
C1094 C 0.86342 0.82508 0.34984 0.0
C1095 C 0.8557 0.86205 0.34664 0.0
C1096 C 0.83552 0.79979 0.35084 0.0
C1097 C 0.79943 0.81093 0.34851 0.0
C1098 C 0.79142 0.84791 0.34662 0.0
C1099 C 0.81933 0.87329 0.34565 0.0
C1100 C 0.77028 0.78375 0.34675 0.0
C1101 C 0.74235 0.78433 0.36403 0.0
C1102 C 0.7708 0.75653 0.3286 0.0
C1103 C 0.79845 0.75591 0.30892 0.0
C1104 C 0.80396 0.78645 0.29409 0.0
C1105 C 0.83042 0.78594 0.27588 0.0
C1106 C 0.85134 0.75492 0.27215 0.0
C1107 C 0.84576 0.72429 0.28658 0.0
C1108 C 0.8194 0.7247 0.30487 0.0
C1109 C 0.62544 0.68358 0.34035 0.0
C1110 C 0.63561 0.64687 0.34052 0.0
C1111 C 0.65156 0.71069 0.34245 0.0
C1112 C 0.68824 0.70159 0.34491 0.0
C1113 C 0.69842 0.66505 0.34536 0.0
C1114 C 0.6724 0.63796 0.34325 0.0
C1115 C 0.71627 0.73005 0.34625 0.0
C1116 C 0.74394 0.72984 0.32875 0.0
C1117 C 0.71544 0.75762 0.36414 0.0
C1118 C 0.6877 0.75842 0.38367 0.0
C1119 C 0.68281 0.72844 0.39908 0.0
C1120 C 0.65646 0.7293 0.41734 0.0
C1121 C 0.635 0.7601 0.42049 0.0
C1122 C 0.63993 0.79015 0.40542 0.0
C1123 C 0.66622 0.78941 0.38711 0.0
H1124 H 0.61462 0.76072 0.43464 0.0
H1125 H 0.87179 0.75456 0.25803 0.0
H1126 H 0.68778 0.9071 0.84538 0.0
H1127 H 0.73552 0.86116 0.84625 0.0
H1128 H 0.65606 0.77885 0.86127 0.0
H1129 H 0.60826 0.82421 0.86048 0.0
H1130 H 0.75848 0.80676 0.88044 0.0
H1131 H 0.67259 0.71003 0.82136 0.0
H1132 H 0.62258 0.71397 0.79171 0.0
H1133 H 0.65673 0.82077 0.77137 0.0
H1134 H 0.70721 0.81721 0.8006 0.0
H1135 H 0.80498 0.60906 0.84098 0.0
H1136 H 0.76245 0.65902 0.84636 0.0
H1137 H 0.85005 0.7355 0.84044 0.0
H1138 H 0.89291 0.68582 0.8355 0.0
H1139 H 0.7453 0.71304 0.81622 0.0
H1140 H 0.83122 0.80976 0.87526 0.0
H1141 H 0.87996 0.80684 0.90588 0.0
H1142 H 0.84545 0.70042 0.92684 0.0
H1143 H 0.79623 0.7029 0.89659 0.0
C1144 C 0.68051 0.87936 0.84938 0.0
C1145 C 0.64409 0.86928 0.85252 0.0
C1146 C 0.70785 0.8532 0.84989 0.0
C1147 C 0.69911 0.81668 0.85343 0.0
C1148 C 0.66319 0.80691 0.85819 0.0
C1149 C 0.63592 0.83293 0.85772 0.0
C1150 C 0.72672 0.78822 0.85009 0.0
C1151 C 0.75599 0.78651 0.86623 0.0
C1152 C 0.72296 0.76166 0.8317 0.0
C1153 C 0.69349 0.76345 0.81335 0.0
C1154 C 0.66956 0.73424 0.81044 0.0
C1155 C 0.6411 0.73643 0.79373 0.0
C1156 C 0.63639 0.76765 0.77973 0.0
C1157 C 0.66031 0.79664 0.78228 0.0
C1158 C 0.68884 0.79456 0.79892 0.0
C1159 C 0.8153 0.63648 0.84096 0.0
C1160 C 0.85244 0.64336 0.8379 0.0
C1161 C 0.79091 0.665 0.84397 0.0
C1162 C 0.80313 0.70093 0.84403 0.0
C1163 C 0.84011 0.70795 0.84088 0.0
C1164 C 0.86456 0.67946 0.83798 0.0
C1165 C 0.777 0.73107 0.84685 0.0
C1166 C 0.74797 0.73324 0.83046 0.0
C1167 C 0.78108 0.75803 0.865 0.0
C1168 C 0.81029 0.75639 0.88347 0.0
C1169 C 0.83396 0.7858 0.88647 0.0
C1170 C 0.86168 0.78421 0.90375 0.0
C1171 C 0.86587 0.75342 0.91824 0.0
C1172 C 0.84226 0.7242 0.91554 0.0
C1173 C 0.81448 0.72566 0.8983 0.0
H1174 H 0.88737 0.75223 0.93159 0.0
H1175 H 0.61424 0.76935 0.76688 0.0
H1176 H 0.89607 0.48656 0.89823 0.0
H1177 H 0.90825 0.46763 0.94018 0.0
H1178 H 0.99543 0.5448 0.94462 0.0
H1179 H 0.98383 0.5637 0.90294 0.0
H1180 H 0.01528 0.47828 0.96082 0.0
H1181 H 0.91618 0.56204 0.97169 0.0
H1182 H 0.85456 0.58547 0.96481 0.0
H1183 H 0.80961 0.48643 0.99217 0.0
H1184 H 0.87103 0.4622 -0.0011 0.0
H1185 H 0.05325 0.49865 0.08464 0.0
H1186 H 0.03206 0.51031 0.04336 0.0
H1187 H 0.95297 0.4253 0.05044 0.0
H1188 H 0.97385 0.41336 0.09195 0.0
H1189 H 0.92592 0.48822 0.02799 0.0
H1190 H 0.02569 0.40657 0.0201 0.0
H1191 H 0.08755 0.38414 0.02745 0.0
H1192 H 0.13144 0.4798 0.99444 0.0
H1193 H 0.06981 0.50307 0.98723 0.0
C1194 C 0.91777 0.49957 0.90816 0.0
C1195 C 0.93899 0.52663 0.89719 0.0
C1196 C 0.92459 0.48879 0.93212 0.0
C1197 C 0.95265 0.50494 0.94543 0.0
C1198 C 0.97371 0.53197 0.93458 0.0
C1199 C 0.96692 0.54279 0.91075 0.0
C1200 C 0.96089 0.49344 0.97056 0.0
C1201 C -0.00417 0.48068 0.97554 0.0
C1202 C 0.93509 0.49561 0.98954 0.0
C1203 C 0.89819 0.51014 0.98551 0.0
C1204 C 0.89316 0.54512 0.97602 0.0
C1205 C 0.85827 0.55858 0.9722 0.0
C1206 C 0.82819 0.5374 0.97797 0.0
C1207 C 0.83294 0.50277 0.98766 0.0
C1208 C 0.86778 0.48917 0.99149 0.0
C1209 C 0.0312 0.48251 0.07756 0.0
C1210 C 0.01548 0.45482 0.09155 0.0
C1211 C 0.0192 0.48918 0.05393 0.0
C1212 C 0.99132 0.46832 0.04385 0.0
C1213 C 0.97464 0.44154 0.05796 0.0
C1214 C 0.98673 0.4347 0.08161 0.0
C1215 C 0.98056 0.47398 0.01827 0.0
C1216 C 0.9452 0.48545 0.0132 0.0
C1217 C 0.00597 0.4707 -0.00086 0.0
C1218 C 0.04311 0.45669 0.0033 0.0
C1219 C 0.04853 0.42296 0.01457 0.0
C1220 C 0.08355 0.41007 0.01869 0.0
C1221 C 0.11341 0.43057 0.01146 0.0
C1222 C 0.10829 0.46396 5e-05 0.0
C1223 C 0.07331 0.477 0.99592 0.0
H1224 H 0.14051 0.42054 0.01466 0.0
H1225 H 0.8012 0.54787 0.97501 0.0
H1226 H 0.07901 0.98578 0.59399 0.0
H1227 H 0.06507 0.97064 0.55175 0.0
H1228 H 0.98614 0.05665 0.54946 0.0
H1229 H -0.00072 0.07154 0.59184 0.0
H1230 H 0.96004 -0.00284 0.52923 0.0
H1231 H 0.06985 0.06571 0.5228 0.0
H1232 H 0.1333 0.08103 0.53191 0.0
H1233 H 0.16758 0.97742 0.50496 0.0
H1234 H 0.10424 0.96127 0.49598 0.0
H1235 H 0.93588 0.00772 0.40218 0.0
H1236 H 0.95268 0.02215 0.44399 0.0
H1237 H 0.02628 0.93153 0.44502 0.0
H1238 H 0.01003 0.91699 0.40298 0.0
H1239 H 0.05561 0.99198 0.46582 0.0
H1240 H 0.94494 0.92434 0.47177 0.0
H1241 H 0.88131 0.91022 0.46233 0.0
H1242 H 0.84852 0.0139 0.49001 0.0
H1243 H 0.91205 0.02885 0.4993 0.0
C1244 C 0.05871 0.00153 0.58452 0.0
C1245 C 0.04034 0.02996 0.59629 0.0
C1246 C 0.05089 0.99292 0.56034 0.0
C1247 C 0.02494 0.01285 0.54739 0.0
C1248 C 0.00631 0.04097 0.55914 0.0
C1249 C 0.01391 0.04945 0.58336 0.0
C1250 C 0.01679 0.00413 0.52167 0.0
C1251 C 0.98086 -0.00351 0.51531 0.0
C1252 C 0.04414 0.00244 0.50365 0.0
C1253 C 0.08226 0.01215 0.50894 0.0
C1254 C 0.09089 0.04608 0.51899 0.0
C1255 C 0.12684 0.05494 0.5241 0.0
C1256 C 0.15445 0.03018 0.51908 0.0
C1257 C 0.14617 -0.00345 0.50887 0.0
C1258 C 0.11025 0.98754 0.50375 0.0
C1259 C 0.95573 0.99084 0.41121 0.0
C1260 C 0.97138 0.96098 0.39926 0.0
C1261 C 0.96521 -0.00089 0.43514 0.0
C1262 C 0.99029 0.97757 0.44766 0.0
C1263 C 0.00675 0.94838 0.43564 0.0
C1264 C -0.00266 0.94008 0.41165 0.0
C1265 C -0.00113 0.98527 0.47343 0.0
C1266 C 0.03484 0.99263 0.47979 0.0
C1267 C 0.97155 0.98688 0.49145 0.0
C1268 C 0.9333 0.97783 0.48603 0.0
C1269 C 0.92419 0.94423 0.47568 0.0
C1270 C 0.88814 0.93606 0.47038 0.0
C1271 C 0.8609 0.96118 0.47551 0.0
C1272 C 0.86965 0.99448 0.48602 0.0
C1273 C 0.90567 0.0028 0.49133 0.0
H1274 H 0.833 0.9548 0.47139 0.0
H1275 H 0.18227 0.03708 0.52305 0.0
H1276 H 0.57222 0.00326 0.91121 0.0
H1277 H 0.55406 0.01668 0.95303 0.0
H1278 H 0.45988 0.94911 0.94463 0.0
H1279 H 0.4777 0.93547 0.90273 0.0
H1280 H 0.44529 0.01471 0.96809 0.0
H1281 H 0.52848 0.91569 0.97391 0.0
H1282 H 0.58552 0.88293 0.96633 0.0
H1283 H 0.6449 0.96686 0.00269 0.0
H1284 H 0.58824 0.00042 0.01016 0.0
H1285 H 0.40653 0.00226 0.09529 0.0
H1286 H 0.42013 0.9865 0.05298 0.0
H1287 H 0.51839 0.04907 0.05655 0.0
H1288 H 0.50528 0.0648 0.09877 0.0
H1289 H 0.52893 0.98301 0.03549 0.0
H1290 H 0.44612 0.08296 0.02854 0.0
H1291 H 0.38922 0.11605 0.03598 0.0
H1292 H 0.32916 0.03059 0.0018 0.0
H1293 H 0.38571 -0.00327 0.99448 0.0
C1294 C 0.54751 0.99141 0.91816 0.0
C1295 C 0.52655 0.96808 0.90368 0.0
C1296 C 0.53727 -0.00099 0.94208 0.0
C1297 C 0.50588 0.98353 0.95191 0.0
C1298 C 0.48426 0.96119 0.93733 0.0
C1299 C 0.4946 0.95333 0.91345 0.0
C1300 C 0.49616 0.99008 0.97763 0.0
C1301 C 0.46328 0.00734 0.98289 0.0
C1302 C 0.52 0.98089 0.99678 0.0
C1303 C 0.55414 0.96075 0.99238 0.0
C1304 C 0.55373 0.92733 0.9801 0.0
C1305 C 0.58599 0.90858 0.97586 0.0
C1306 C 0.61882 0.92285 0.98397 0.0
C1307 C 0.61945 0.95586 0.99639 0.0
C1308 C 0.58727 0.97475 0.00065 0.0
C1309 C 0.43108 0.01261 0.08711 0.0
C1310 C 0.45475 0.03491 0.10041 0.0
C1311 C 0.4387 0.0037 0.06291 0.0
C1312 C 0.47009 0.0169 0.05166 0.0
C1313 C 0.494 0.03866 0.06496 0.0
C1314 C 0.48636 0.04772 0.08906 0.0
C1315 C 0.47824 0.00806 0.02598 0.0
C1316 C 0.51084 0.99027 0.02072 0.0
C1317 C 0.45413 0.01679 0.00686 0.0
C1318 C 0.42011 0.03712 0.01122 0.0
C1319 C 0.42075 0.07107 0.02281 0.0
C1320 C 0.38857 0.08999 0.02697 0.0
C1321 C 0.35559 0.07538 0.01944 0.0
C1322 C 0.35473 0.04184 0.00767 0.0
C1323 C 0.38684 0.02278 0.0035 0.0
H1324 H 0.3307 0.09008 0.02266 0.0
H1325 H 0.64377 0.90829 0.98068 0.0
H1326 H 0.49078 0.58168 0.40181 0.0
H1327 H 0.47597 0.56829 0.44418 0.0
H1328 H 0.55996 0.48724 0.44605 0.0
H1329 H 0.57538 0.50066 0.40381 0.0
H1330 H 0.45262 0.50632 0.46455 0.0
H1331 H 0.59697 0.48549 0.50315 0.0
H1332 H 0.65907 0.50739 0.49596 0.0
H1333 H 0.61715 0.60601 0.46574 0.0
H1334 H 0.55484 0.58495 0.47307 0.0
H1335 H 0.50318 0.43117 0.59175 0.0
H1336 H 0.52001 0.44819 0.55031 0.0
H1337 H 0.43633 0.52962 0.54989 0.0
H1338 H 0.41891 0.51259 0.59116 0.0
H1339 H 0.54358 0.51151 0.5309 0.0
H1340 H 0.39931 0.53301 0.49313 0.0
H1341 H 0.3372 0.51113 0.50036 0.0
H1342 H 0.3791 0.41131 0.52877 0.0
H1343 H 0.4414 0.43238 0.52139 0.0
C1344 C 0.50621 0.56105 0.41121 0.0
C1345 C 0.53436 0.54233 0.3994 0.0
C1346 C 0.49764 0.55342 0.43541 0.0
C1347 C 0.51713 0.52709 0.44827 0.0
C1348 C 0.545 0.5081 0.43653 0.0
C1349 C 0.55364 0.51572 0.41234 0.0
C1350 C 0.50779 0.51891 0.47384 0.0
C1351 C 0.47235 0.50797 0.47913 0.0
C1352 C 0.53384 0.5203 0.49269 0.0
C1353 C 0.57123 0.53343 0.48842 0.0
C1354 C 0.60101 0.5119 0.49505 0.0
C1355 C 0.63624 0.52417 0.49094 0.0
C1356 C 0.64204 0.55802 0.48032 0.0
C1357 C 0.61262 0.57973 0.47387 0.0
C1358 C 0.57734 0.56761 0.47797 0.0
C1359 C 0.48834 0.45274 0.58289 0.0
C1360 C 0.45946 0.47029 0.59473 0.0
C1361 C 0.4981 0.46249 0.55924 0.0
C1362 C 0.47911 0.48981 0.547 0.0
C1363 C 0.45092 0.50803 0.55893 0.0
C1364 C 0.44108 0.49829 0.58255 0.0
C1365 C 0.48844 0.49891 0.52157 0.0
C1366 C 0.52386 0.50997 0.51631 0.0
C1367 C 0.46239 0.49765 0.50273 0.0
C1368 C 0.42501 0.48447 0.50695 0.0
C1369 C 0.39525 0.50634 0.50084 0.0
C1370 C 0.36002 0.49409 0.50497 0.0
C1371 C 0.35421 0.45991 0.5151 0.0
C1372 C 0.38363 0.43784 0.52102 0.0
C1373 C 0.41891 0.44995 0.5169 0.0
H1374 H 0.32692 0.45049 0.5183 0.0
H1375 H 0.66934 0.56745 0.47715 0.0
loop_
_geom_bond_atom_site_label_1
_geom_bond_atom_site_label_2
_geom_bond_distance
_geom_bond_site_symmetry_2
_ccdc_geom_bond_type
Sc0 O3 2.025 . S
Sc0 O10 2.105 . S
Sc0 O13 2.105 . S
Sc0 O16 2.105 . S
Sc0 O19 2.105 . S
Sc1 O3 2.025 . S
Sc1 O11 2.105 . S
Sc1 O15 2.105 . S
Sc1 O17 2.105 . S
Sc1 O21 2.105 1_455 S
Sc2 O3 2.025 . S
Sc2 O12 2.105 1_455 S
Sc2 O14 2.105 . S
Sc2 O18 2.105 . S
Sc2 O20 2.105 . S
O3 Sc0 2.025 . S
O3 Sc1 2.025 . S
O3 Sc2 2.025 . S
C4 O10 1.268 . S
C4 O20 1.268 . S
C5 O11 1.268 . S
C5 O19 1.268 . S
C6 O12 1.268 . S
C6 O21 1.268 . S
C7 O13 1.268 . S
C7 O17 1.268 . S
C8 O14 1.268 . S
C8 O16 1.268 . S
C9 O15 1.268 . S
C9 O18 1.268 . S
O10 Sc0 2.105 . S
O10 C4 1.268 . S
O11 Sc1 2.105 . S
O11 C5 1.268 . S
O12 Sc2 2.105 1_655 S
O12 C6 1.268 . S
O13 Sc0 2.105 . S
O13 C7 1.268 . S
O14 Sc2 2.105 . S
O14 C8 1.268 . S
O15 Sc1 2.105 . S
O15 C9 1.268 . S
O16 Sc0 2.105 . S
O16 C8 1.268 . S
O17 Sc1 2.105 . S
O17 C7 1.268 . S
O18 Sc2 2.105 . S
O18 C9 1.268 . S
O19 Sc0 2.105 . S
O19 C5 1.268 . S
O20 Sc2 2.105 . S
O20 C4 1.268 . S
O21 Sc1 2.105 1_655 S
O21 C6 1.268 . S
Sc22 O25 2.025 . S
Sc22 O32 2.105 . S
Sc22 O35 2.105 1_545 S
Sc22 O38 2.105 . S
Sc22 O41 2.105 . S
Sc23 O25 2.025 . S
Sc23 O33 2.105 . S
Sc23 O37 2.105 1_455 S
Sc23 O39 2.105 1_545 S
Sc23 O43 2.105 . S
Sc24 O25 2.025 . S
Sc24 O34 2.105 . S
Sc24 O36 2.105 . S
Sc24 O40 2.105 1_455 S
Sc24 O42 2.105 . S
O25 Sc22 2.025 . S
O25 Sc23 2.025 . S
O25 Sc24 2.025 . S
C26 O32 1.268 . S
C26 O42 1.268 . S
C27 O33 1.268 . S
C27 O41 1.268 . S
C28 O34 1.268 . S
C28 O43 1.268 . S
C29 O35 1.268 . S
C29 O39 1.268 . S
C30 O36 1.268 . S
C30 O38 1.268 . S
C31 O37 1.268 . S
C31 O40 1.268 . S
O32 Sc22 2.105 . S
O32 C26 1.268 . S
O33 Sc23 2.105 . S
O33 C27 1.268 . S
O34 Sc24 2.105 . S
O34 C28 1.268 . S
O35 Sc22 2.105 1_565 S
O35 C29 1.268 . S
O36 Sc24 2.105 . S
O36 C30 1.268 . S
O37 Sc23 2.105 1_655 S
O37 C31 1.268 . S
O38 Sc22 2.105 . S
O38 C30 1.268 . S
O39 Sc23 2.105 1_565 S
O39 C29 1.268 . S
O40 Sc24 2.105 1_655 S
O40 C31 1.268 . S
O41 Sc22 2.105 . S
O41 C27 1.268 . S
O42 Sc24 2.105 . S
O42 C26 1.268 . S
O43 Sc23 2.105 . S
O43 C28 1.268 . S
Sc44 O47 2.025 . S
Sc44 O54 2.105 . S
Sc44 O57 2.105 . S
Sc44 O60 2.105 . S
Sc44 O63 2.105 . S
Sc45 O47 2.025 . S
Sc45 O55 2.105 . S
Sc45 O59 2.105 1_545 S
Sc45 O61 2.105 . S
Sc45 O65 2.105 . S
Sc46 O47 2.025 . S
Sc46 O56 2.105 . S
Sc46 O58 2.105 . S
Sc46 O62 2.105 1_545 S
Sc46 O64 2.105 . S
O47 Sc44 2.025 . S
O47 Sc45 2.025 . S
O47 Sc46 2.025 . S
C48 O54 1.268 . S
C48 O64 1.268 . S
C49 O55 1.268 . S
C49 O63 1.268 . S
C50 O56 1.268 . S
C50 O65 1.268 . S
C51 O57 1.268 . S
C51 O61 1.268 . S
C52 O58 1.268 . S
C52 O60 1.268 . S
C53 O59 1.268 . S
C53 O62 1.268 . S
O54 Sc44 2.105 . S
O54 C48 1.268 . S
O55 Sc45 2.105 . S
O55 C49 1.268 . S
O56 Sc46 2.105 . S
O56 C50 1.268 . S
O57 Sc44 2.105 . S
O57 C51 1.268 . S
O58 Sc46 2.105 . S
O58 C52 1.268 . S
O59 Sc45 2.105 1_565 S
O59 C53 1.268 . S
O60 Sc44 2.105 . S
O60 C52 1.268 . S
O61 Sc45 2.105 . S
O61 C51 1.268 . S
O62 Sc46 2.105 1_565 S
O62 C53 1.268 . S
O63 Sc44 2.105 . S
O63 C49 1.268 . S
O64 Sc46 2.105 . S
O64 C48 1.268 . S
O65 Sc45 2.105 . S
O65 C50 1.268 . S
Sc66 O69 2.025 . S
Sc66 O76 2.105 . S
Sc66 O79 2.105 . S
Sc66 O82 2.105 . S
Sc66 O85 2.105 . S
Sc67 O69 2.025 . S
Sc67 O77 2.105 . S
Sc67 O81 2.105 . S
Sc67 O83 2.105 . S
Sc67 O87 2.105 . S
Sc68 O69 2.025 . S
Sc68 O78 2.105 . S
Sc68 O80 2.105 . S
Sc68 O84 2.105 . S
Sc68 O86 2.105 . S
O69 Sc66 2.025 . S
O69 Sc67 2.025 . S
O69 Sc68 2.025 . S
C70 O76 1.268 . S
C70 O86 1.268 . S
C71 O77 1.268 . S
C71 O85 1.268 . S
C72 O78 1.268 . S
C72 O87 1.268 . S
C73 O79 1.268 . S
C73 O83 1.268 . S
C74 O80 1.268 . S
C74 O82 1.268 . S
C75 O81 1.268 . S
C75 O84 1.268 . S
O76 Sc66 2.105 . S
O76 C70 1.268 . S
O77 Sc67 2.105 . S
O77 C71 1.268 . S
O78 Sc68 2.105 . S
O78 C72 1.268 . S
O79 Sc66 2.105 . S
O79 C73 1.268 . S
O80 Sc68 2.105 . S
O80 C74 1.268 . S
O81 Sc67 2.105 . S
O81 C75 1.268 . S
O82 Sc66 2.105 . S
O82 C74 1.268 . S
O83 Sc67 2.105 . S
O83 C73 1.268 . S
O84 Sc68 2.105 . S
O84 C75 1.268 . S
O85 Sc66 2.105 . S
O85 C71 1.268 . S
O86 Sc68 2.105 . S
O86 C70 1.268 . S
O87 Sc67 2.105 . S
O87 C72 1.268 . S
Sc88 O91 2.025 . S
Sc88 O98 2.105 . S
Sc88 O101 2.105 . S
Sc88 O104 2.105 . S
Sc88 O107 2.105 . S
Sc89 O91 2.025 . S
Sc89 O99 2.105 . S
Sc89 O103 2.105 . S
Sc89 O105 2.105 . S
Sc89 O109 2.105 . S
Sc90 O91 2.025 . S
Sc90 O100 2.105 . S
Sc90 O102 2.105 . S
Sc90 O106 2.105 . S
Sc90 O108 2.105 . S
O91 Sc88 2.025 . S
O91 Sc89 2.025 . S
O91 Sc90 2.025 . S
C92 O98 1.268 . S
C92 O108 1.268 . S
C93 O99 1.268 . S
C93 O107 1.268 . S
C94 O100 1.268 . S
C94 O109 1.268 . S
C95 O101 1.268 . S
C95 O105 1.268 . S
C96 O102 1.268 . S
C96 O104 1.268 . S
C97 O103 1.268 . S
C97 O106 1.268 . S
O98 Sc88 2.105 . S
O98 C92 1.268 . S
O99 Sc89 2.105 . S
O99 C93 1.268 . S
O100 Sc90 2.105 . S
O100 C94 1.268 . S
O101 Sc88 2.105 . S
O101 C95 1.268 . S
O102 Sc90 2.105 . S
O102 C96 1.268 . S
O103 Sc89 2.105 . S
O103 C97 1.268 . S
O104 Sc88 2.105 . S
O104 C96 1.268 . S
O105 Sc89 2.105 . S
O105 C95 1.268 . S
O106 Sc90 2.105 . S
O106 C97 1.268 . S
O107 Sc88 2.105 . S
O107 C93 1.268 . S
O108 Sc90 2.105 . S
O108 C92 1.268 . S
O109 Sc89 2.105 . S
O109 C94 1.268 . S
Sc110 O113 2.025 . S
Sc110 O120 2.105 . S
Sc110 O123 2.105 . S
Sc110 O126 2.105 . S
Sc110 O129 2.105 . S
Sc111 O113 2.025 . S
Sc111 O121 2.105 . S
Sc111 O125 2.105 1_655 S
Sc111 O127 2.105 . S
Sc111 O131 2.105 . S
Sc112 O113 2.025 . S
Sc112 O122 2.105 . S
Sc112 O124 2.105 . S
Sc112 O128 2.105 1_655 S
Sc112 O130 2.105 . S
O113 Sc110 2.025 . S
O113 Sc111 2.025 . S
O113 Sc112 2.025 . S
C114 O120 1.268 . S
C114 O130 1.268 . S
C115 O121 1.268 . S
C115 O129 1.268 . S
C116 O122 1.268 . S
C116 O131 1.268 . S
C117 O123 1.268 . S
C117 O127 1.268 . S
C118 O124 1.268 . S
C118 O126 1.268 . S
C119 O125 1.268 . S
C119 O128 1.268 . S
O120 Sc110 2.105 . S
O120 C114 1.268 . S
O121 Sc111 2.105 . S
O121 C115 1.268 . S
O122 Sc112 2.105 . S
O122 C116 1.268 . S
O123 Sc110 2.105 . S
O123 C117 1.268 . S
O124 Sc112 2.105 . S
O124 C118 1.268 . S
O125 Sc111 2.105 1_455 S
O125 C119 1.268 . S
O126 Sc110 2.105 . S
O126 C118 1.268 . S
O127 Sc111 2.105 . S
O127 C117 1.268 . S
O128 Sc112 2.105 1_455 S
O128 C119 1.268 . S
O129 Sc110 2.105 . S
O129 C115 1.268 . S
O130 Sc112 2.105 . S
O130 C114 1.268 . S
O131 Sc111 2.105 . S
O131 C116 1.268 . S
Sc132 O135 2.025 . S
Sc132 O142 2.105 . S
Sc132 O145 2.105 . S
Sc132 O148 2.105 . S
Sc132 O151 2.105 1_565 S
Sc133 O135 2.025 . S
Sc133 O143 2.105 1_565 S
Sc133 O147 2.105 . S
Sc133 O149 2.105 . S
Sc133 O153 2.105 1_655 S
Sc134 O135 2.025 . S
Sc134 O144 2.105 1_655 S
Sc134 O146 2.105 . S
Sc134 O150 2.105 . S
Sc134 O152 2.105 . S
O135 Sc132 2.025 . S
O135 Sc133 2.025 . S
O135 Sc134 2.025 . S
C136 O142 1.268 . S
C136 O152 1.268 . S
C137 O143 1.268 . S
C137 O151 1.268 . S
C138 O144 1.268 . S
C138 O153 1.268 . S
C139 O145 1.268 . S
C139 O149 1.268 . S
C140 O146 1.268 . S
C140 O148 1.268 . S
C141 O147 1.268 . S
C141 O150 1.268 . S
O142 Sc132 2.105 . S
O142 C136 1.268 . S
O143 Sc133 2.105 1_545 S
O143 C137 1.268 . S
O144 Sc134 2.105 1_455 S
O144 C138 1.268 . S
O145 Sc132 2.105 . S
O145 C139 1.268 . S
O146 Sc134 2.105 . S
O146 C140 1.268 . S
O147 Sc133 2.105 . S
O147 C141 1.268 . S
O148 Sc132 2.105 . S
O148 C140 1.268 . S
O149 Sc133 2.105 . S
O149 C139 1.268 . S
O150 Sc134 2.105 . S
O150 C141 1.268 . S
O151 Sc132 2.105 1_545 S
O151 C137 1.268 . S
O152 Sc134 2.105 . S
O152 C136 1.268 . S
O153 Sc133 2.105 1_455 S
O153 C138 1.268 . S
Sc154 O157 2.025 . S
Sc154 O164 2.105 . S
Sc154 O167 2.105 . S
Sc154 O170 2.105 . S
Sc154 O173 2.105 . S
Sc155 O157 2.025 . S
Sc155 O165 2.105 . S
Sc155 O169 2.105 . S
Sc155 O171 2.105 . S
Sc155 O175 2.105 1_565 S
Sc156 O157 2.025 . S
Sc156 O166 2.105 1_565 S
Sc156 O168 2.105 . S
Sc156 O172 2.105 . S
Sc156 O174 2.105 . S
O157 Sc154 2.025 . S
O157 Sc155 2.025 . S
O157 Sc156 2.025 . S
C158 O164 1.268 . S
C158 O174 1.268 . S
C159 O165 1.268 . S
C159 O173 1.268 . S
C160 O166 1.268 . S
C160 O175 1.268 . S
C161 O167 1.268 . S
C161 O171 1.268 . S
C162 O168 1.268 . S
C162 O170 1.268 . S
C163 O169 1.268 . S
C163 O172 1.268 . S
O164 Sc154 2.105 . S
O164 C158 1.268 . S
O165 Sc155 2.105 . S
O165 C159 1.268 . S
O166 Sc156 2.105 1_545 S
O166 C160 1.268 . S
O167 Sc154 2.105 . S
O167 C161 1.268 . S
O168 Sc156 2.105 . S
O168 C162 1.268 . S
O169 Sc155 2.105 . S
O169 C163 1.268 . S
O170 Sc154 2.105 . S
O170 C162 1.268 . S
O171 Sc155 2.105 . S
O171 C161 1.268 . S
O172 Sc156 2.105 . S
O172 C163 1.268 . S
O173 Sc154 2.105 . S
O173 C159 1.268 . S
O174 Sc156 2.105 . S
O174 C158 1.268 . S
O175 Sc155 2.105 1_545 S
O175 C160 1.268 . S
H176 C194 0.951 . S
H177 C196 0.951 . S
H178 C198 0.950 . S
H179 C199 0.950 . S
H180 C201 0.950 . S
H181 C204 0.950 . S
H182 C205 0.950 . S
H183 C207 0.950 . S
H184 C208 0.950 . S
H185 C209 0.951 . S
H186 C211 0.951 . S
H187 C213 0.950 . S
H188 C214 0.950 . S
H189 C216 0.950 . S
H190 C219 0.950 . S
H191 C220 0.950 . S
H192 C222 0.950 . S
H193 C223 0.950 . S
C194 H176 0.951 . S
C194 C195 1.366 . S
C194 C196 1.388 . S
C195 C194 1.366 . S
C195 C199 1.385 . S
C196 H177 0.951 . S
C196 C194 1.388 . S
C196 C197 1.366 . S
C197 C196 1.366 . S
C197 C198 1.414 . S
C197 C200 1.499 . S
C198 H178 0.950 . S
C198 C197 1.414 . S
C198 C199 1.374 . S
C199 H179 0.950 . S
C199 C195 1.385 . S
C199 C198 1.374 . S
C200 C197 1.499 . S
C200 C201 1.373 . S
C200 C202 1.389 . S
C201 H180 0.950 . S
C201 C200 1.373 . S
C201 C217 1.377 . S
C202 C200 1.389 . S
C202 C203 1.524 . S
C202 C216 1.377 . S
C203 C202 1.524 . S
C203 C204 1.397 . S
C203 C208 1.363 . S
C204 H181 0.950 . S
C204 C203 1.397 . S
C204 C205 1.334 . S
C205 H182 0.950 . S
C205 C204 1.334 . S
C205 C206 1.287 . S
C206 C205 1.287 . S
C206 C207 1.524 . S
C206 H225 0.913 . S
C207 H183 0.950 . S
C207 C206 1.524 . S
C207 C208 1.415 . S
C208 H184 0.950 . S
C208 C203 1.363 . S
C208 C207 1.415 . S
C209 H185 0.951 . S
C209 C210 1.366 . S
C209 C211 1.388 . S
C210 C209 1.366 . S
C210 C214 1.385 . S
C211 H186 0.951 . S
C211 C209 1.388 . S
C211 C212 1.366 . S
C212 C211 1.366 . S
C212 C213 1.414 . S
C212 C215 1.499 . S
C213 H187 0.950 . S
C213 C212 1.414 . S
C213 C214 1.374 . S
C214 H188 0.950 . S
C214 C210 1.385 . S
C214 C213 1.374 . S
C215 C212 1.499 . S
C215 C216 1.373 . S
C215 C217 1.389 . S
C216 H189 0.950 . S
C216 C202 1.377 . S
C216 C215 1.373 . S
C217 C201 1.377 . S
C217 C215 1.389 . S
C217 C218 1.524 . S
C218 C217 1.524 . S
C218 C219 1.397 . S
C218 C223 1.363 . S
C219 H190 0.950 . S
C219 C218 1.397 . S
C219 C220 1.334 . S
C220 H191 0.950 . S
C220 C219 1.334 . S
C220 C221 1.287 . S
C221 C220 1.287 . S
C221 C222 1.524 . S
C221 H224 0.999 . S
C222 H192 0.950 . S
C222 C221 1.524 . S
C222 C223 1.415 . S
C223 H193 0.950 . S
C223 C218 1.363 . S
C223 C222 1.415 . S
H224 C221 0.999 . S
H225 C206 0.913 . S
H226 C244 0.951 . S
H227 C246 0.951 . S
H228 C248 0.950 . S
H229 C249 0.950 1_455 S
H230 C251 0.950 . S
H231 C254 0.950 . S
H232 C255 0.950 . S
H233 C257 0.950 . S
H234 C258 0.950 . S
H235 C259 0.951 . S
H236 C261 0.951 . S
H237 C263 0.950 . S
H238 C264 0.950 1_655 S
H239 C266 0.950 . S
H240 C269 0.950 . S
H241 C270 0.950 . S
H242 C272 0.950 . S
H243 C273 0.950 . S
C244 H226 0.951 . S
C244 C245 1.366 . S
C244 C246 1.388 . S
C245 C244 1.366 . S
C245 C249 1.385 . S
C246 H227 0.951 . S
C246 C244 1.388 . S
C246 C247 1.366 . S
C247 C246 1.366 . S
C247 C248 1.414 1_655 S
C247 C250 1.499 . S
C248 H228 0.950 . S
C248 C247 1.414 1_455 S
C248 C249 1.374 1_455 S
C249 H229 0.950 1_655 S
C249 C245 1.385 . S
C249 C248 1.374 1_655 S
C250 C247 1.499 . S
C250 C251 1.373 1_655 S
C250 C252 1.389 . S
C251 H230 0.950 . S
C251 C250 1.373 1_455 S
C251 C267 1.377 . S
C252 C250 1.389 . S
C252 C253 1.524 . S
C252 C266 1.377 . S
C253 C252 1.524 . S
C253 C254 1.397 . S
C253 C258 1.363 . S
C254 H231 0.950 . S
C254 C253 1.397 . S
C254 C255 1.334 . S
C255 H232 0.950 . S
C255 C254 1.334 . S
C255 C256 1.287 . S
C256 C255 1.287 . S
C256 C257 1.524 . S
C256 H275 0.913 . S
C257 H233 0.950 . S
C257 C256 1.524 . S
C257 C258 1.415 . S
C258 H234 0.950 . S
C258 C253 1.363 . S
C258 C257 1.415 . S
C259 H235 0.951 . S
C259 C260 1.366 . S
C259 C261 1.388 . S
C260 C259 1.366 . S
C260 C264 1.385 . S
C261 H236 0.951 . S
C261 C259 1.388 . S
C261 C262 1.366 . S
C262 C261 1.366 . S
C262 C263 1.414 1_455 S
C262 C265 1.499 . S
C263 H237 0.950 . S
C263 C262 1.414 1_655 S
C263 C264 1.374 1_655 S
C264 H238 0.950 1_455 S
C264 C260 1.385 . S
C264 C263 1.374 1_455 S
C265 C262 1.499 . S
C265 C266 1.373 1_455 S
C265 C267 1.389 . S
C266 H239 0.950 . S
C266 C252 1.377 . S
C266 C265 1.373 1_655 S
C267 C251 1.377 . S
C267 C265 1.389 . S
C267 C268 1.524 . S
C268 C267 1.524 . S
C268 C269 1.397 . S
C268 C273 1.363 . S
C269 H240 0.950 . S
C269 C268 1.397 . S
C269 C270 1.334 . S
C270 H241 0.950 . S
C270 C269 1.334 . S
C270 C271 1.287 . S
C271 C270 1.287 . S
C271 C272 1.524 . S
C271 H274 0.999 . S
C272 H242 0.950 . S
C272 C271 1.524 . S
C272 C273 1.415 . S
C273 H243 0.950 . S
C273 C268 1.363 . S
C273 C272 1.415 . S
H274 C271 0.999 . S
H275 C256 0.913 . S
H276 C294 0.951 . S
H277 C296 0.951 . S
H278 C298 0.950 . S
H279 C299 0.950 . S
H280 C301 0.950 . S
H281 C304 0.950 . S
H282 C305 0.950 . S
H283 C307 0.950 . S
H284 C308 0.950 . S
H285 C309 0.951 . S
H286 C311 0.951 . S
H287 C313 0.950 . S
H288 C314 0.950 . S
H289 C316 0.950 . S
H290 C319 0.950 . S
H291 C320 0.950 . S
H292 C322 0.950 . S
H293 C323 0.950 . S
C294 H276 0.951 . S
C294 C295 1.366 . S
C294 C296 1.388 . S
C295 C294 1.366 . S
C295 C299 1.385 . S
C296 H277 0.951 . S
C296 C294 1.388 . S
C296 C297 1.366 . S
C297 C296 1.366 . S
C297 C298 1.414 . S
C297 C300 1.499 . S
C298 H278 0.950 . S
C298 C297 1.414 . S
C298 C299 1.374 . S
C299 H279 0.950 . S
C299 C295 1.385 . S
C299 C298 1.374 . S
C300 C297 1.499 . S
C300 C301 1.373 1_545 S
C300 C302 1.389 . S
C301 H280 0.950 . S
C301 C300 1.373 1_565 S
C301 C317 1.377 . S
C302 C300 1.389 . S
C302 C303 1.524 . S
C302 C316 1.377 . S
C303 C302 1.524 . S
C303 C304 1.397 . S
C303 C308 1.363 . S
C304 H281 0.950 . S
C304 C303 1.397 . S
C304 C305 1.334 . S
C305 H282 0.950 . S
C305 C304 1.334 . S
C305 C306 1.287 . S
C306 C305 1.287 . S
C306 C307 1.524 . S
C306 H325 0.913 . S
C307 H283 0.950 . S
C307 C306 1.524 . S
C307 C308 1.415 . S
C308 H284 0.950 . S
C308 C303 1.363 . S
C308 C307 1.415 . S
C309 H285 0.951 . S
C309 C310 1.366 . S
C309 C311 1.388 . S
C310 C309 1.366 . S
C310 C314 1.385 . S
C311 H286 0.951 . S
C311 C309 1.388 . S
C311 C312 1.366 . S
C312 C311 1.366 . S
C312 C313 1.414 . S
C312 C315 1.499 . S
C313 H287 0.950 . S
C313 C312 1.414 . S
C313 C314 1.374 . S
C314 H288 0.950 . S
C314 C310 1.385 . S
C314 C313 1.374 . S
C315 C312 1.499 . S
C315 C316 1.373 1_565 S
C315 C317 1.389 . S
C316 H289 0.950 . S
C316 C302 1.377 . S
C316 C315 1.373 1_545 S
C317 C301 1.377 . S
C317 C315 1.389 . S
C317 C318 1.524 . S
C318 C317 1.524 . S
C318 C319 1.397 . S
C318 C323 1.363 . S
C319 H290 0.950 . S
C319 C318 1.397 . S
C319 C320 1.334 . S
C320 H291 0.950 . S
C320 C319 1.334 . S
C320 C321 1.287 . S
C321 C320 1.287 . S
C321 C322 1.524 . S
C321 H324 0.999 . S
C322 H292 0.950 . S
C322 C321 1.524 . S
C322 C323 1.415 . S
C323 H293 0.950 . S
C323 C318 1.363 . S
C323 C322 1.415 . S
H324 C321 0.999 . S
H325 C306 0.913 . S
H326 C344 0.951 . S
H327 C346 0.951 . S
H328 C348 0.950 . S
H329 C349 0.950 . S
H330 C351 0.950 . S
H331 C354 0.950 . S
H332 C355 0.950 . S
H333 C357 0.950 . S
H334 C358 0.950 . S
H335 C359 0.951 . S
H336 C361 0.951 . S
H337 C363 0.950 . S
H338 C364 0.950 . S
H339 C366 0.950 . S
H340 C369 0.950 . S
H341 C370 0.950 . S
H342 C372 0.950 . S
H343 C373 0.950 . S
C344 H326 0.951 . S
C344 C345 1.366 . S
C344 C346 1.388 . S
C345 C344 1.366 . S
C345 C349 1.385 . S
C346 H327 0.951 . S
C346 C344 1.388 . S
C346 C347 1.366 . S
C347 C346 1.366 . S
C347 C348 1.414 . S
C347 C350 1.499 . S
C348 H328 0.950 . S
C348 C347 1.414 . S
C348 C349 1.374 . S
C349 H329 0.950 . S
C349 C345 1.385 . S
C349 C348 1.374 . S
C350 C347 1.499 . S
C350 C351 1.373 . S
C350 C352 1.389 . S
C351 H330 0.950 . S
C351 C350 1.373 . S
C351 C367 1.377 . S
C352 C350 1.389 . S
C352 C353 1.524 . S
C352 C366 1.377 . S
C353 C352 1.524 . S
C353 C354 1.397 . S
C353 C358 1.363 . S
C354 H331 0.950 . S
C354 C353 1.397 . S
C354 C355 1.334 . S
C355 H332 0.950 . S
C355 C354 1.334 . S
C355 C356 1.287 . S
C356 C355 1.287 . S
C356 C357 1.524 . S
C356 H375 0.913 . S
C357 H333 0.950 . S
C357 C356 1.524 . S
C357 C358 1.415 . S
C358 H334 0.950 . S
C358 C353 1.363 . S
C358 C357 1.415 . S
C359 H335 0.951 . S
C359 C360 1.366 . S
C359 C361 1.388 . S
C360 C359 1.366 . S
C360 C364 1.385 . S
C361 H336 0.951 . S
C361 C359 1.388 . S
C361 C362 1.366 . S
C362 C361 1.366 . S
C362 C363 1.414 . S
C362 C365 1.499 . S
C363 H337 0.950 . S
C363 C362 1.414 . S
C363 C364 1.374 . S
C364 H338 0.950 . S
C364 C360 1.385 . S
C364 C363 1.374 . S
C365 C362 1.499 . S
C365 C366 1.373 . S
C365 C367 1.389 . S
C366 H339 0.950 . S
C366 C352 1.377 . S
C366 C365 1.373 . S
C367 C351 1.377 . S
C367 C365 1.389 . S
C367 C368 1.524 . S
C368 C367 1.524 . S
C368 C369 1.397 . S
C368 C373 1.363 . S
C369 H340 0.950 . S
C369 C368 1.397 . S
C369 C370 1.334 . S
C370 H341 0.950 . S
C370 C369 1.334 . S
C370 C371 1.287 . S
C371 C370 1.287 . S
C371 C372 1.524 . S
C371 H374 0.999 . S
C372 H342 0.950 . S
C372 C371 1.524 . S
C372 C373 1.415 . S
C373 H343 0.950 . S
C373 C368 1.363 . S
C373 C372 1.415 . S
H374 C371 0.999 . S
H375 C356 0.913 . S
H376 C394 0.951 . S
H377 C396 0.951 . S
H378 C398 0.950 . S
H379 C399 0.950 . S
H380 C401 0.950 . S
H381 C404 0.950 . S
H382 C405 0.950 . S
H383 C407 0.950 . S
H384 C408 0.950 . S
H385 C409 0.951 . S
H386 C411 0.951 . S
H387 C413 0.950 . S
H388 C414 0.950 . S
H389 C416 0.950 . S
H390 C419 0.950 . S
H391 C420 0.950 . S
H392 C422 0.950 . S
H393 C423 0.950 . S
C394 H376 0.951 . S
C394 C395 1.366 . S
C394 C396 1.388 . S
C395 C394 1.366 . S
C395 C399 1.385 . S
C396 H377 0.951 . S
C396 C394 1.388 . S
C396 C397 1.366 . S
C397 C396 1.366 . S
C397 C398 1.414 . S
C397 C400 1.499 . S
C398 H378 0.950 . S
C398 C397 1.414 . S
C398 C399 1.374 . S
C399 H379 0.950 . S
C399 C395 1.385 . S
C399 C398 1.374 . S
C400 C397 1.499 . S
C400 C401 1.373 . S
C400 C402 1.389 . S
C401 H380 0.950 . S
C401 C400 1.373 . S
C401 C417 1.377 . S
C402 C400 1.389 . S
C402 C403 1.524 . S
C402 C416 1.377 . S
C403 C402 1.524 . S
C403 C404 1.397 . S
C403 C408 1.363 . S
C404 H381 0.950 . S
C404 C403 1.397 . S
C404 C405 1.334 . S
C405 H382 0.950 . S
C405 C404 1.334 . S
C405 C406 1.287 . S
C406 C405 1.287 . S
C406 C407 1.524 . S
C406 H425 0.913 . S
C407 H383 0.950 . S
C407 C406 1.524 . S
C407 C408 1.415 . S
C408 H384 0.950 . S
C408 C403 1.363 . S
C408 C407 1.415 . S
C409 H385 0.951 . S
C409 C410 1.366 . S
C409 C411 1.388 . S
C410 C409 1.366 . S
C410 C414 1.385 . S
C411 H386 0.951 . S
C411 C409 1.388 . S
C411 C412 1.366 . S
C412 C411 1.366 . S
C412 C413 1.414 . S
C412 C415 1.499 . S
C413 H387 0.950 . S
C413 C412 1.414 . S
C413 C414 1.374 . S
C414 H388 0.950 . S
C414 C410 1.385 . S
C414 C413 1.374 . S
C415 C412 1.499 . S
C415 C416 1.373 . S
C415 C417 1.389 . S
C416 H389 0.950 . S
C416 C402 1.377 . S
C416 C415 1.373 . S
C417 C401 1.377 . S
C417 C415 1.389 . S
C417 C418 1.524 . S
C418 C417 1.524 . S
C418 C419 1.397 . S
C418 C423 1.363 . S
C419 H390 0.950 . S
C419 C418 1.397 . S
C419 C420 1.334 . S
C420 H391 0.950 . S
C420 C419 1.334 . S
C420 C421 1.287 . S
C421 C420 1.287 . S
C421 C422 1.524 . S
C421 H424 0.999 . S
C422 H392 0.950 . S
C422 C421 1.524 . S
C422 C423 1.415 . S
C423 H393 0.950 . S
C423 C418 1.363 . S
C423 C422 1.415 . S
H424 C421 0.999 . S
H425 C406 0.913 . S
H426 C444 0.951 . S
H427 C446 0.951 . S
H428 C448 0.950 1_655 S
H429 C449 0.950 . S
H430 C451 0.950 . S
H431 C454 0.950 . S
H432 C455 0.950 . S
H433 C457 0.950 . S
H434 C458 0.950 . S
H435 C459 0.951 . S
H436 C461 0.951 . S
H437 C463 0.950 1_455 S
H438 C464 0.950 . S
H439 C466 0.950 . S
H440 C469 0.950 . S
H441 C470 0.950 . S
H442 C472 0.950 . S
H443 C473 0.950 . S
C444 H426 0.951 . S
C444 C445 1.366 . S
C444 C446 1.388 . S
C445 C444 1.366 . S
C445 C449 1.385 . S
C446 H427 0.951 . S
C446 C444 1.388 . S
C446 C447 1.366 . S
C447 C446 1.366 . S
C447 C448 1.414 . S
C447 C450 1.499 . S
C448 H428 0.950 1_455 S
C448 C447 1.414 . S
C448 C449 1.374 . S
C449 H429 0.950 . S
C449 C445 1.385 . S
C449 C448 1.374 . S
C450 C447 1.499 . S
C450 C451 1.373 1_455 S
C450 C452 1.389 . S
C451 H430 0.950 . S
C451 C450 1.373 1_655 S
C451 C467 1.377 . S
C452 C450 1.389 . S
C452 C453 1.524 . S
C452 C466 1.377 . S
C453 C452 1.524 . S
C453 C454 1.397 . S
C453 C458 1.363 . S
C454 H431 0.950 . S
C454 C453 1.397 . S
C454 C455 1.334 . S
C455 H432 0.950 . S
C455 C454 1.334 . S
C455 C456 1.287 . S
C456 C455 1.287 . S
C456 C457 1.524 . S
C456 H475 0.913 . S
C457 H433 0.950 . S
C457 C456 1.524 . S
C457 C458 1.415 . S
C458 H434 0.950 . S
C458 C453 1.363 . S
C458 C457 1.415 . S
C459 H435 0.951 . S
C459 C460 1.366 . S
C459 C461 1.388 . S
C460 C459 1.366 . S
C460 C464 1.385 . S
C461 H436 0.951 . S
C461 C459 1.388 . S
C461 C462 1.366 . S
C462 C461 1.366 . S
C462 C463 1.414 . S
C462 C465 1.499 . S
C463 H437 0.950 1_655 S
C463 C462 1.414 . S
C463 C464 1.374 . S
C464 H438 0.950 . S
C464 C460 1.385 . S
C464 C463 1.374 . S
C465 C462 1.499 . S
C465 C466 1.373 1_655 S
C465 C467 1.389 . S
C466 H439 0.950 . S
C466 C452 1.377 . S
C466 C465 1.373 1_455 S
C467 C451 1.377 . S
C467 C465 1.389 . S
C467 C468 1.524 . S
C468 C467 1.524 . S
C468 C469 1.397 . S
C468 C473 1.363 . S
C469 H440 0.950 . S
C469 C468 1.397 . S
C469 C470 1.334 . S
C470 H441 0.950 . S
C470 C469 1.334 . S
C470 C471 1.287 . S
C471 C470 1.287 . S
C471 C472 1.524 . S
C471 H474 0.999 . S
C472 H442 0.950 . S
C472 C471 1.524 . S
C472 C473 1.415 . S
C473 H443 0.950 . S
C473 C468 1.363 . S
C473 C472 1.415 . S
H474 C471 0.999 . S
H475 C456 0.913 . S
H476 C494 0.951 . S
H477 C496 0.951 . S
H478 C498 0.950 . S
H479 C499 0.950 1_565 S
H480 C501 0.950 . S
H481 C504 0.950 1_565 S
H482 C505 0.950 . S
H483 C507 0.950 . S
H484 C508 0.950 . S
H485 C509 0.951 . S
H486 C511 0.951 . S
H487 C513 0.950 . S
H488 C514 0.950 1_545 S
H489 C516 0.950 . S
H490 C519 0.950 1_545 S
H491 C520 0.950 . S
H492 C522 0.950 . S
H493 C523 0.950 . S
C494 H476 0.951 . S
C494 C495 1.366 . S
C494 C496 1.388 . S
C495 C494 1.366 . S
C495 C499 1.385 . S
C496 H477 0.951 . S
C496 C494 1.388 . S
C496 C497 1.366 . S
C497 C496 1.366 . S
C497 C498 1.414 1_545 S
C497 C500 1.499 . S
C498 H478 0.950 . S
C498 C497 1.414 1_565 S
C498 C499 1.374 1_565 S
C499 H479 0.950 1_545 S
C499 C495 1.385 . S
C499 C498 1.374 1_545 S
C500 C497 1.499 . S
C500 C501 1.373 1_545 S
C500 C502 1.389 . S
C501 H480 0.950 . S
C501 C500 1.373 1_565 S
C501 C517 1.377 . S
C502 C500 1.389 . S
C502 C503 1.524 . S
C502 C516 1.377 . S
C503 C502 1.524 . S
C503 C504 1.397 . S
C503 C508 1.363 . S
C504 H481 0.950 1_545 S
C504 C503 1.397 . S
C504 C505 1.334 . S
C505 H482 0.950 . S
C505 C504 1.334 . S
C505 C506 1.287 . S
C506 C505 1.287 . S
C506 C507 1.524 . S
C506 H525 0.913 . S
C507 H483 0.950 . S
C507 C506 1.524 . S
C507 C508 1.415 . S
C508 H484 0.950 . S
C508 C503 1.363 . S
C508 C507 1.415 . S
C509 H485 0.951 . S
C509 C510 1.366 . S
C509 C511 1.388 . S
C510 C509 1.366 . S
C510 C514 1.385 . S
C511 H486 0.951 . S
C511 C509 1.388 . S
C511 C512 1.366 . S
C512 C511 1.366 . S
C512 C513 1.414 1_565 S
C512 C515 1.499 . S
C513 H487 0.950 . S
C513 C512 1.414 1_545 S
C513 C514 1.374 1_545 S
C514 H488 0.950 1_565 S
C514 C510 1.385 . S
C514 C513 1.374 1_565 S
C515 C512 1.499 . S
C515 C516 1.373 1_565 S
C515 C517 1.389 . S
C516 H489 0.950 . S
C516 C502 1.377 . S
C516 C515 1.373 1_545 S
C517 C501 1.377 . S
C517 C515 1.389 . S
C517 C518 1.524 . S
C518 C517 1.524 . S
C518 C519 1.397 . S
C518 C523 1.363 . S
C519 H490 0.950 1_565 S
C519 C518 1.397 . S
C519 C520 1.334 . S
C520 H491 0.950 . S
C520 C519 1.334 . S
C520 C521 1.287 . S
C521 C520 1.287 . S
C521 C522 1.524 . S
C521 H524 0.999 . S
C522 H492 0.950 . S
C522 C521 1.524 . S
C522 C523 1.415 . S
C523 H493 0.950 . S
C523 C518 1.363 . S
C523 C522 1.415 . S
H524 C521 0.999 . S
H525 C506 0.913 . S
H526 C544 0.951 . S
H527 C546 0.951 . S
H528 C548 0.950 . S
H529 C549 0.950 . S
H530 C551 0.950 . S
H531 C554 0.950 . S
H532 C555 0.950 . S
H533 C557 0.950 . S
H534 C558 0.950 . S
H535 C559 0.951 . S
H536 C561 0.951 . S
H537 C563 0.950 . S
H538 C564 0.950 . S
H539 C566 0.950 . S
H540 C569 0.950 . S
H541 C570 0.950 . S
H542 C572 0.950 . S
H543 C573 0.950 . S
C544 H526 0.951 . S
C544 C545 1.366 . S
C544 C546 1.388 . S
C545 C544 1.366 . S
C545 C549 1.385 . S
C546 H527 0.951 . S
C546 C544 1.388 . S
C546 C547 1.366 . S
C547 C546 1.366 . S
C547 C548 1.414 . S
C547 C550 1.499 . S
C548 H528 0.950 . S
C548 C547 1.414 . S
C548 C549 1.374 . S
C549 H529 0.950 . S
C549 C545 1.385 . S
C549 C548 1.374 . S
C550 C547 1.499 . S
C550 C551 1.373 . S
C550 C552 1.389 . S
C551 H530 0.950 . S
C551 C550 1.373 . S
C551 C567 1.377 . S
C552 C550 1.389 . S
C552 C553 1.524 . S
C552 C566 1.377 . S
C553 C552 1.524 . S
C553 C554 1.397 . S
C553 C558 1.363 . S
C554 H531 0.950 . S
C554 C553 1.397 . S
C554 C555 1.334 . S
C555 H532 0.950 . S
C555 C554 1.334 . S
C555 C556 1.287 . S
C556 C555 1.287 . S
C556 C557 1.524 . S
C556 H575 0.913 . S
C557 H533 0.950 . S
C557 C556 1.524 . S
C557 C558 1.415 . S
C558 H534 0.950 . S
C558 C553 1.363 . S
C558 C557 1.415 . S
C559 H535 0.951 . S
C559 C560 1.366 . S
C559 C561 1.388 . S
C560 C559 1.366 . S
C560 C564 1.385 . S
C561 H536 0.951 . S
C561 C559 1.388 . S
C561 C562 1.366 . S
C562 C561 1.366 . S
C562 C563 1.414 . S
C562 C565 1.499 . S
C563 H537 0.950 . S
C563 C562 1.414 . S
C563 C564 1.374 . S
C564 H538 0.950 . S
C564 C560 1.385 . S
C564 C563 1.374 . S
C565 C562 1.499 . S
C565 C566 1.373 . S
C565 C567 1.389 . S
C566 H539 0.950 . S
C566 C552 1.377 . S
C566 C565 1.373 . S
C567 C551 1.377 . S
C567 C565 1.389 . S
C567 C568 1.524 . S
C568 C567 1.524 . S
C568 C569 1.397 . S
C568 C573 1.363 . S
C569 H540 0.950 . S
C569 C568 1.397 . S
C569 C570 1.334 . S
C570 H541 0.950 . S
C570 C569 1.334 . S
C570 C571 1.287 . S
C571 C570 1.287 . S
C571 C572 1.524 . S
C571 H574 0.999 . S
C572 H542 0.950 . S
C572 C571 1.524 . S
C572 C573 1.415 . S
C573 H543 0.950 . S
C573 C568 1.363 . S
C573 C572 1.415 . S
H574 C571 0.999 . S
H575 C556 0.913 . S
H576 C594 0.951 . S
H577 C596 0.951 . S
H578 C598 0.950 . S
H579 C599 0.950 . S
H580 C601 0.950 . S
H581 C604 0.950 . S
H582 C605 0.950 . S
H583 C607 0.950 . S
H584 C608 0.950 . S
H585 C609 0.951 . S
H586 C611 0.951 . S
H587 C613 0.950 . S
H588 C614 0.950 . S
H589 C616 0.950 . S
H590 C619 0.950 . S
H591 C620 0.950 . S
H592 C622 0.950 . S
H593 C623 0.950 . S
C594 H576 0.951 . S
C594 C595 1.366 . S
C594 C596 1.388 . S
C595 C594 1.366 . S
C595 C599 1.385 . S
C596 H577 0.951 . S
C596 C594 1.388 . S
C596 C597 1.366 . S
C597 C596 1.366 . S
C597 C598 1.414 . S
C597 C600 1.499 . S
C598 H578 0.950 . S
C598 C597 1.414 . S
C598 C599 1.374 . S
C599 H579 0.950 . S
C599 C595 1.385 . S
C599 C598 1.374 . S
C600 C597 1.499 . S
C600 C601 1.373 . S
C600 C602 1.389 . S
C601 H580 0.950 . S
C601 C600 1.373 . S
C601 C617 1.377 . S
C602 C600 1.389 . S
C602 C603 1.524 . S
C602 C616 1.377 . S
C603 C602 1.524 . S
C603 C604 1.397 . S
C603 C608 1.363 . S
C604 H581 0.950 . S
C604 C603 1.397 . S
C604 C605 1.334 . S
C605 H582 0.950 . S
C605 C604 1.334 . S
C605 C606 1.287 . S
C606 C605 1.287 . S
C606 C607 1.524 . S
C606 H625 0.913 . S
C607 H583 0.950 . S
C607 C606 1.524 . S
C607 C608 1.415 . S
C608 H584 0.950 . S
C608 C603 1.363 . S
C608 C607 1.415 . S
C609 H585 0.951 . S
C609 C610 1.366 . S
C609 C611 1.388 . S
C610 C609 1.366 . S
C610 C614 1.385 . S
C611 H586 0.951 . S
C611 C609 1.388 . S
C611 C612 1.366 . S
C612 C611 1.366 . S
C612 C613 1.414 . S
C612 C615 1.499 . S
C613 H587 0.950 . S
C613 C612 1.414 . S
C613 C614 1.374 . S
C614 H588 0.950 . S
C614 C610 1.385 . S
C614 C613 1.374 . S
C615 C612 1.499 . S
C615 C616 1.373 . S
C615 C617 1.389 . S
C616 H589 0.950 . S
C616 C602 1.377 . S
C616 C615 1.373 . S
C617 C601 1.377 . S
C617 C615 1.389 . S
C617 C618 1.524 . S
C618 C617 1.524 . S
C618 C619 1.397 . S
C618 C623 1.363 . S
C619 H590 0.950 . S
C619 C618 1.397 . S
C619 C620 1.334 . S
C620 H591 0.950 . S
C620 C619 1.334 . S
C620 C621 1.287 . S
C621 C620 1.287 . S
C621 C622 1.524 . S
C621 H624 0.999 . S
C622 H592 0.950 . S
C622 C621 1.524 . S
C622 C623 1.415 . S
C623 H593 0.950 . S
C623 C618 1.363 . S
C623 C622 1.415 . S
H624 C621 0.999 . S
H625 C606 0.913 . S
H626 C644 0.951 . S
H627 C646 0.951 1_655 S
H628 C648 0.950 . S
H629 C649 0.950 . S
H630 C651 0.950 . S
H631 C654 0.950 . S
H632 C655 0.950 . S
H633 C657 0.950 . S
H634 C658 0.950 . S
H635 C659 0.951 . S
H636 C661 0.951 1_455 S
H637 C663 0.950 . S
H638 C664 0.950 . S
H639 C666 0.950 . S
H640 C669 0.950 . S
H641 C670 0.950 . S
H642 C672 0.950 . S
H643 C673 0.950 . S
C644 H626 0.951 . S
C644 C645 1.366 . S
C644 C646 1.388 . S
C645 C644 1.366 . S
C645 C649 1.385 . S
C646 H627 0.951 1_455 S
C646 C644 1.388 . S
C646 C647 1.366 . S
C647 C646 1.366 . S
C647 C648 1.414 . S
C647 C650 1.499 . S
C648 H628 0.950 . S
C648 C647 1.414 . S
C648 C649 1.374 . S
C649 H629 0.950 . S
C649 C645 1.385 . S
C649 C648 1.374 . S
C650 C647 1.499 . S
C650 C651 1.373 . S
C650 C652 1.389 1_455 S
C651 H630 0.950 . S
C651 C650 1.373 . S
C651 C667 1.377 . S
C652 C650 1.389 1_655 S
C652 C653 1.524 . S
C652 C666 1.377 . S
C653 C652 1.524 . S
C653 C654 1.397 . S
C653 C658 1.363 . S
C654 H631 0.950 . S
C654 C653 1.397 . S
C654 C655 1.334 . S
C655 H632 0.950 . S
C655 C654 1.334 . S
C655 C656 1.287 . S
C656 C655 1.287 . S
C656 C657 1.524 . S
C656 H675 0.913 . S
C657 H633 0.950 . S
C657 C656 1.524 . S
C657 C658 1.415 . S
C658 H634 0.950 . S
C658 C653 1.363 . S
C658 C657 1.415 . S
C659 H635 0.951 . S
C659 C660 1.366 . S
C659 C661 1.388 . S
C660 C659 1.366 . S
C660 C664 1.385 . S
C661 H636 0.951 1_655 S
C661 C659 1.388 . S
C661 C662 1.366 . S
C662 C661 1.366 . S
C662 C663 1.414 . S
C662 C665 1.499 . S
C663 H637 0.950 . S
C663 C662 1.414 . S
C663 C664 1.374 . S
C664 H638 0.950 . S
C664 C660 1.385 . S
C664 C663 1.374 . S
C665 C662 1.499 . S
C665 C666 1.373 . S
C665 C667 1.389 1_655 S
C666 H639 0.950 . S
C666 C652 1.377 . S
C666 C665 1.373 . S
C667 C651 1.377 . S
C667 C665 1.389 1_455 S
C667 C668 1.524 . S
C668 C667 1.524 . S
C668 C669 1.397 . S
C668 C673 1.363 . S
C669 H640 0.950 . S
C669 C668 1.397 . S
C669 C670 1.334 . S
C670 H641 0.950 . S
C670 C669 1.334 . S
C670 C671 1.287 . S
C671 C670 1.287 . S
C671 C672 1.524 . S
C671 H674 0.999 . S
C672 H642 0.950 . S
C672 C671 1.524 . S
C672 C673 1.415 . S
C673 H643 0.950 . S
C673 C668 1.363 . S
C673 C672 1.415 . S
H674 C671 0.999 . S
H675 C656 0.913 . S
H676 C694 0.951 . S
H677 C696 0.951 1_565 S
H678 C698 0.950 . S
H679 C699 0.950 . S
H680 C701 0.950 . S
H681 C704 0.950 . S
H682 C705 0.950 . S
H683 C707 0.950 . S
H684 C708 0.950 . S
H685 C709 0.951 1_545 S
H686 C711 0.951 1_545 S
H687 C713 0.950 . S
H688 C714 0.950 . S
H689 C716 0.950 . S
H690 C719 0.950 . S
H691 C720 0.950 . S
H692 C722 0.950 . S
H693 C723 0.950 . S
C694 H676 0.951 . S
C694 C695 1.366 . S
C694 C696 1.388 . S
C695 C694 1.366 . S
C695 C699 1.385 . S
C696 H677 0.951 1_545 S
C696 C694 1.388 . S
C696 C697 1.366 . S
C697 C696 1.366 . S
C697 C698 1.414 . S
C697 C700 1.499 . S
C698 H678 0.950 . S
C698 C697 1.414 . S
C698 C699 1.374 . S
C699 H679 0.950 . S
C699 C695 1.385 . S
C699 C698 1.374 . S
C700 C697 1.499 . S
C700 C701 1.373 . S
C700 C702 1.389 . S
C701 H680 0.950 . S
C701 C700 1.373 . S
C701 C717 1.377 1_545 S
C702 C700 1.389 . S
C702 C703 1.524 . S
C702 C716 1.377 1_545 S
C703 C702 1.524 . S
C703 C704 1.397 . S
C703 C708 1.363 1_545 S
C704 H681 0.950 . S
C704 C703 1.397 . S
C704 C705 1.334 . S
C705 H682 0.950 . S
C705 C704 1.334 . S
C705 C706 1.287 . S
C706 C705 1.287 . S
C706 C707 1.524 1_545 S
C706 H725 0.913 . S
C707 H683 0.950 . S
C707 C706 1.524 1_565 S
C707 C708 1.415 . S
C708 H684 0.950 . S
C708 C703 1.363 1_565 S
C708 C707 1.415 . S
C709 H685 0.951 1_565 S
C709 C710 1.366 . S
C709 C711 1.388 . S
C710 C709 1.366 . S
C710 C714 1.385 . S
C711 H686 0.951 1_565 S
C711 C709 1.388 . S
C711 C712 1.366 . S
C712 C711 1.366 . S
C712 C713 1.414 . S
C712 C715 1.499 . S
C713 H687 0.950 . S
C713 C712 1.414 . S
C713 C714 1.374 . S
C714 H688 0.950 . S
C714 C710 1.385 . S
C714 C713 1.374 . S
C715 C712 1.499 . S
C715 C716 1.373 . S
C715 C717 1.389 . S
C716 H689 0.950 . S
C716 C702 1.377 1_565 S
C716 C715 1.373 . S
C717 C701 1.377 1_565 S
C717 C715 1.389 . S
C717 C718 1.524 . S
C718 C717 1.524 . S
C718 C719 1.397 . S
C718 C723 1.363 1_565 S
C719 H690 0.950 . S
C719 C718 1.397 . S
C719 C720 1.334 . S
C720 H691 0.950 . S
C720 C719 1.334 . S
C720 C721 1.287 . S
C721 C720 1.287 . S
C721 C722 1.524 1_565 S
C721 H724 0.999 . S
C722 H692 0.950 . S
C722 C721 1.524 1_545 S
C722 C723 1.415 . S
C723 H693 0.950 . S
C723 C718 1.363 1_545 S
C723 C722 1.415 . S
H724 C721 0.999 . S
H725 C706 0.913 . S
H726 C744 0.951 . S
H727 C746 0.951 . S
H728 C748 0.950 . S
H729 C749 0.950 . S
H730 C751 0.950 . S
H731 C754 0.950 . S
H732 C755 0.950 . S
H733 C757 0.950 . S
H734 C758 0.950 . S
H735 C759 0.951 . S
H736 C761 0.951 . S
H737 C763 0.950 . S
H738 C764 0.950 . S
H739 C766 0.950 . S
H740 C769 0.950 . S
H741 C770 0.950 . S
H742 C772 0.950 . S
H743 C773 0.950 . S
C744 H726 0.951 . S
C744 C745 1.366 . S
C744 C746 1.388 . S
C745 C744 1.366 . S
C745 C749 1.385 . S
C746 H727 0.951 . S
C746 C744 1.388 . S
C746 C747 1.366 . S
C747 C746 1.366 . S
C747 C748 1.414 . S
C747 C750 1.499 . S
C748 H728 0.950 . S
C748 C747 1.414 . S
C748 C749 1.374 . S
C749 H729 0.950 . S
C749 C745 1.385 . S
C749 C748 1.374 . S
C750 C747 1.499 . S
C750 C751 1.373 . S
C750 C752 1.389 . S
C751 H730 0.950 . S
C751 C750 1.373 . S
C751 C767 1.377 . S
C752 C750 1.389 . S
C752 C753 1.524 . S
C752 C766 1.377 . S
C753 C752 1.524 . S
C753 C754 1.397 . S
C753 C758 1.363 . S
C754 H731 0.950 . S
C754 C753 1.397 . S
C754 C755 1.334 . S
C755 H732 0.950 . S
C755 C754 1.334 . S
C755 C756 1.287 . S
C756 C755 1.287 . S
C756 C757 1.524 . S
C756 H775 0.913 . S
C757 H733 0.950 . S
C757 C756 1.524 . S
C757 C758 1.415 . S
C758 H734 0.950 . S
C758 C753 1.363 . S
C758 C757 1.415 . S
C759 H735 0.951 . S
C759 C760 1.366 . S
C759 C761 1.388 . S
C760 C759 1.366 . S
C760 C764 1.385 . S
C761 H736 0.951 . S
C761 C759 1.388 . S
C761 C762 1.366 . S
C762 C761 1.366 . S
C762 C763 1.414 . S
C762 C765 1.499 . S
C763 H737 0.950 . S
C763 C762 1.414 . S
C763 C764 1.374 . S
C764 H738 0.950 . S
C764 C760 1.385 . S
C764 C763 1.374 . S
C765 C762 1.499 . S
C765 C766 1.373 . S
C765 C767 1.389 . S
C766 H739 0.950 . S
C766 C752 1.377 . S
C766 C765 1.373 . S
C767 C751 1.377 . S
C767 C765 1.389 . S
C767 C768 1.524 . S
C768 C767 1.524 . S
C768 C769 1.397 . S
C768 C773 1.363 . S
C769 H740 0.950 . S
C769 C768 1.397 . S
C769 C770 1.334 . S
C770 H741 0.950 . S
C770 C769 1.334 . S
C770 C771 1.287 . S
C771 C770 1.287 . S
C771 C772 1.524 . S
C771 H774 0.999 . S
C772 H742 0.950 . S
C772 C771 1.524 . S
C772 C773 1.415 . S
C773 H743 0.950 . S
C773 C768 1.363 . S
C773 C772 1.415 . S
H774 C771 0.999 . S
H775 C756 0.913 . S
H776 C794 0.951 . S
H777 C796 0.951 . S
H778 C798 0.950 . S
H779 C799 0.950 . S
H780 C801 0.950 . S
H781 C804 0.950 . S
H782 C805 0.950 . S
H783 C807 0.950 . S
H784 C808 0.950 . S
H785 C809 0.951 . S
H786 C811 0.951 . S
H787 C813 0.950 . S
H788 C814 0.950 . S
H789 C816 0.950 . S
H790 C819 0.950 . S
H791 C820 0.950 . S
H792 C822 0.950 . S
H793 C823 0.950 . S
C794 H776 0.951 . S
C794 C795 1.366 . S
C794 C796 1.388 . S
C795 C794 1.366 . S
C795 C799 1.385 . S
C796 H777 0.951 . S
C796 C794 1.388 . S
C796 C797 1.366 . S
C797 C796 1.366 . S
C797 C798 1.414 . S
C797 C800 1.499 . S
C798 H778 0.950 . S
C798 C797 1.414 . S
C798 C799 1.374 . S
C799 H779 0.950 . S
C799 C795 1.385 . S
C799 C798 1.374 . S
C800 C797 1.499 . S
C800 C801 1.373 . S
C800 C802 1.389 . S
C801 H780 0.950 . S
C801 C800 1.373 . S
C801 C817 1.377 . S
C802 C800 1.389 . S
C802 C803 1.524 . S
C802 C816 1.377 . S
C803 C802 1.524 . S
C803 C804 1.397 . S
C803 C808 1.363 . S
C804 H781 0.950 . S
C804 C803 1.397 . S
C804 C805 1.334 . S
C805 H782 0.950 . S
C805 C804 1.334 . S
C805 C806 1.287 . S
C806 C805 1.287 . S
C806 C807 1.524 . S
C806 H825 0.913 . S
C807 H783 0.950 . S
C807 C806 1.524 . S
C807 C808 1.415 . S
C808 H784 0.950 . S
C808 C803 1.363 . S
C808 C807 1.415 . S
C809 H785 0.951 . S
C809 C810 1.366 . S
C809 C811 1.388 . S
C810 C809 1.366 . S
C810 C814 1.385 . S
C811 H786 0.951 . S
C811 C809 1.388 . S
C811 C812 1.366 . S
C812 C811 1.366 . S
C812 C813 1.414 . S
C812 C815 1.499 . S
C813 H787 0.950 . S
C813 C812 1.414 . S
C813 C814 1.374 . S
C814 H788 0.950 . S
C814 C810 1.385 . S
C814 C813 1.374 . S
C815 C812 1.499 . S
C815 C816 1.373 . S
C815 C817 1.389 . S
C816 H789 0.950 . S
C816 C802 1.377 . S
C816 C815 1.373 . S
C817 C801 1.377 . S
C817 C815 1.389 . S
C817 C818 1.524 . S
C818 C817 1.524 . S
C818 C819 1.397 . S
C818 C823 1.363 . S
C819 H790 0.950 . S
C819 C818 1.397 . S
C819 C820 1.334 . S
C820 H791 0.950 . S
C820 C819 1.334 . S
C820 C821 1.287 . S
C821 C820 1.287 . S
C821 C822 1.524 . S
C821 H824 0.999 . S
C822 H792 0.950 . S
C822 C821 1.524 . S
C822 C823 1.415 . S
C823 H793 0.950 . S
C823 C818 1.363 . S
C823 C822 1.415 . S
H824 C821 0.999 . S
H825 C806 0.913 . S
H826 C844 0.951 . S
H827 C846 0.951 . S
H828 C848 0.950 . S
H829 C849 0.950 . S
H830 C851 0.950 . S
H831 C854 0.950 . S
H832 C855 0.950 . S
H833 C857 0.950 . S
H834 C858 0.950 . S
H835 C859 0.951 . S
H836 C861 0.951 . S
H837 C863 0.950 . S
H838 C864 0.950 . S
H839 C866 0.950 . S
H840 C869 0.950 . S
H841 C870 0.950 . S
H842 C872 0.950 . S
H843 C873 0.950 . S
C844 H826 0.951 . S
C844 C845 1.366 . S
C844 C846 1.388 . S
C845 C844 1.366 . S
C845 C849 1.385 . S
C846 H827 0.951 . S
C846 C844 1.388 . S
C846 C847 1.366 . S
C847 C846 1.366 . S
C847 C848 1.414 . S
C847 C850 1.499 . S
C848 H828 0.950 . S
C848 C847 1.414 . S
C848 C849 1.374 . S
C849 H829 0.950 . S
C849 C845 1.385 . S
C849 C848 1.374 . S
C850 C847 1.499 . S
C850 C851 1.373 1_455 S
C850 C852 1.389 . S
C851 H830 0.950 . S
C851 C850 1.373 1_655 S
C851 C867 1.377 . S
C852 C850 1.389 . S
C852 C853 1.524 . S
C852 C866 1.377 . S
C853 C852 1.524 . S
C853 C854 1.397 . S
C853 C858 1.363 . S
C854 H831 0.950 . S
C854 C853 1.397 . S
C854 C855 1.334 . S
C855 H832 0.950 . S
C855 C854 1.334 . S
C855 C856 1.287 . S
C856 C855 1.287 . S
C856 C857 1.524 . S
C856 H875 0.913 . S
C857 H833 0.950 . S
C857 C856 1.524 . S
C857 C858 1.415 . S
C858 H834 0.950 . S
C858 C853 1.363 . S
C858 C857 1.415 . S
C859 H835 0.951 . S
C859 C860 1.366 . S
C859 C861 1.388 . S
C860 C859 1.366 . S
C860 C864 1.385 . S
C861 H836 0.951 . S
C861 C859 1.388 . S
C861 C862 1.366 . S
C862 C861 1.366 . S
C862 C863 1.414 . S
C862 C865 1.499 . S
C863 H837 0.950 . S
C863 C862 1.414 . S
C863 C864 1.374 . S
C864 H838 0.950 . S
C864 C860 1.385 . S
C864 C863 1.374 . S
C865 C862 1.499 . S
C865 C866 1.373 1_655 S
C865 C867 1.389 . S
C866 H839 0.950 . S
C866 C852 1.377 . S
C866 C865 1.373 1_455 S
C867 C851 1.377 . S
C867 C865 1.389 . S
C867 C868 1.524 . S
C868 C867 1.524 . S
C868 C869 1.397 . S
C868 C873 1.363 . S
C869 H840 0.950 . S
C869 C868 1.397 . S
C869 C870 1.334 . S
C870 H841 0.950 . S
C870 C869 1.334 . S
C870 C871 1.287 . S
C871 C870 1.287 . S
C871 C872 1.524 . S
C871 H874 0.999 . S
C872 H842 0.950 . S
C872 C871 1.524 . S
C872 C873 1.415 . S
C873 H843 0.950 . S
C873 C868 1.363 . S
C873 C872 1.415 . S
H874 C871 0.999 . S
H875 C856 0.913 . S
H876 C894 0.951 1_545 S
H877 C896 0.951 . S
H878 C898 0.950 . S
H879 C899 0.950 . S
H880 C901 0.950 . S
H881 C904 0.950 . S
H882 C905 0.950 . S
H883 C907 0.950 . S
H884 C908 0.950 . S
H885 C909 0.951 1_565 S
H886 C911 0.951 . S
H887 C913 0.950 . S
H888 C914 0.950 . S
H889 C916 0.950 . S
H890 C919 0.950 . S
H891 C920 0.931 1_545 S
H892 C922 0.950 . S
H893 C923 0.950 . S
C894 H876 0.951 1_565 S
C894 C895 1.366 . S
C894 C896 1.388 1_565 S
C895 C894 1.366 . S
C895 C899 1.385 . S
C896 H877 0.951 . S
C896 C894 1.388 1_545 S
C896 C897 1.366 1_545 S
C897 C896 1.366 1_565 S
C897 C898 1.414 . S
C897 C900 1.499 . S
C898 H878 0.950 . S
C898 C897 1.414 . S
C898 C899 1.374 . S
C899 H879 0.950 . S
C899 C895 1.385 . S
C899 C898 1.374 . S
C900 C897 1.499 . S
C900 C901 1.373 . S
C900 C902 1.389 1_565 S
C901 H880 0.950 . S
C901 C900 1.373 . S
C901 C917 1.377 . S
C902 C900 1.389 1_545 S
C902 C903 1.524 . S
C902 C916 1.377 . S
C903 C902 1.524 . S
C903 C904 1.397 1_545 S
C903 C908 1.363 . S
C904 H881 0.950 . S
C904 C903 1.397 1_565 S
C904 C905 1.334 . S
C905 H882 0.950 . S
C905 C904 1.334 . S
C905 C906 1.287 1_565 S
C906 C905 1.287 1_545 S
C906 C907 1.524 . S
C906 H925 0.913 . S
C907 H883 0.950 . S
C907 C906 1.524 . S
C907 C908 1.415 . S
C908 H884 0.950 . S
C908 C903 1.363 . S
C908 C907 1.415 . S
C909 H885 0.951 1_545 S
C909 C910 1.366 . S
C909 C911 1.388 1_545 S
C910 C909 1.366 . S
C910 C914 1.385 . S
C911 H886 0.951 . S
C911 C909 1.388 1_565 S
C911 C912 1.366 1_565 S
C912 C911 1.366 1_545 S
C912 C913 1.414 . S
C912 C915 1.499 . S
C913 H887 0.950 . S
C913 C912 1.414 . S
C913 C914 1.374 . S
C914 H888 0.950 . S
C914 C910 1.385 . S
C914 C913 1.374 . S
C915 C912 1.499 . S
C915 C916 1.373 . S
C915 C917 1.389 1_545 S
C916 H889 0.950 . S
C916 C902 1.377 . S
C916 C915 1.373 . S
C917 C901 1.377 . S
C917 C915 1.389 1_565 S
C917 C918 1.524 . S
C918 C917 1.524 . S
C918 C919 1.397 1_565 S
C918 C923 1.363 . S
C919 H890 0.950 . S
C919 C918 1.397 1_545 S
C919 C920 1.330 1_545 S
C920 H891 0.931 1_565 S
C920 C919 1.330 1_565 S
C920 C921 1.312 . S
C921 C920 1.312 . S
C921 C922 1.524 . S
C921 H924 0.999 . S
C922 H892 0.950 . S
C922 C921 1.524 . S
C922 C923 1.415 . S
C923 H893 0.950 . S
C923 C918 1.363 . S
C923 C922 1.415 . S
H924 C921 0.999 . S
H925 C906 0.913 . S
H926 C944 0.951 . S
H927 C946 0.951 . S
H928 C948 0.950 . S
H929 C949 0.950 . S
H930 C951 0.950 . S
H931 C954 0.950 . S
H932 C955 0.950 . S
H933 C957 0.950 . S
H934 C958 0.950 . S
H935 C959 0.951 . S
H936 C961 0.951 . S
H937 C963 0.950 . S
H938 C964 0.950 . S
H939 C966 0.950 . S
H940 C969 0.950 . S
H941 C970 0.950 . S
H942 C972 0.950 . S
H943 C973 0.950 . S
C944 H926 0.951 . S
C944 C945 1.366 . S
C944 C946 1.388 . S
C945 C944 1.366 . S
C945 C949 1.385 . S
C946 H927 0.951 . S
C946 C944 1.388 . S
C946 C947 1.366 . S
C947 C946 1.366 . S
C947 C948 1.414 . S
C947 C950 1.499 . S
C948 H928 0.950 . S
C948 C947 1.414 . S
C948 C949 1.374 . S
C949 H929 0.950 . S
C949 C945 1.385 . S
C949 C948 1.374 . S
C950 C947 1.499 . S
C950 C951 1.373 . S
C950 C952 1.389 . S
C951 H930 0.950 . S
C951 C950 1.373 . S
C951 C967 1.377 . S
C952 C950 1.389 . S
C952 C953 1.524 . S
C952 C966 1.377 . S
C953 C952 1.524 . S
C953 C954 1.397 . S
C953 C958 1.363 . S
C954 H931 0.950 . S
C954 C953 1.397 . S
C954 C955 1.334 . S
C955 H932 0.950 . S
C955 C954 1.334 . S
C955 C956 1.287 . S
C956 C955 1.287 . S
C956 C957 1.524 . S
C956 H975 0.913 . S
C957 H933 0.950 . S
C957 C956 1.524 . S
C957 C958 1.415 . S
C958 H934 0.950 . S
C958 C953 1.363 . S
C958 C957 1.415 . S
C959 H935 0.951 . S
C959 C960 1.366 . S
C959 C961 1.388 . S
C960 C959 1.366 . S
C960 C964 1.385 . S
C961 H936 0.951 . S
C961 C959 1.388 . S
C961 C962 1.366 . S
C962 C961 1.366 . S
C962 C963 1.414 . S
C962 C965 1.499 . S
C963 H937 0.950 . S
C963 C962 1.414 . S
C963 C964 1.374 . S
C964 H938 0.950 . S
C964 C960 1.385 . S
C964 C963 1.374 . S
C965 C962 1.499 . S
C965 C966 1.373 . S
C965 C967 1.389 . S
C966 H939 0.950 . S
C966 C952 1.377 . S
C966 C965 1.373 . S
C967 C951 1.377 . S
C967 C965 1.389 . S
C967 C968 1.524 . S
C968 C967 1.524 . S
C968 C969 1.397 . S
C968 C973 1.363 . S
C969 H940 0.950 . S
C969 C968 1.397 . S
C969 C970 1.334 . S
C970 H941 0.950 . S
C970 C969 1.334 . S
C970 C971 1.287 . S
C971 C970 1.287 . S
C971 C972 1.524 . S
C971 H974 0.999 . S
C972 H942 0.950 . S
C972 C971 1.524 . S
C972 C973 1.415 . S
C973 H943 0.950 . S
C973 C968 1.363 . S
C973 C972 1.415 . S
H974 C971 0.999 . S
H975 C956 0.913 . S
H976 C994 0.951 . S
H977 C996 0.951 . S
H978 C998 0.950 . S
H979 C999 0.950 . S
H980 C1001 0.950 . S
H981 C1004 0.950 . S
H982 C1005 0.950 . S
H983 C1007 0.950 . S
H984 C1008 0.950 . S
H985 C1009 0.951 . S
H986 C1011 0.951 . S
H987 C1013 0.950 . S
H988 C1014 0.950 . S
H989 C1016 0.950 . S
H990 C1019 0.950 . S
H991 C1020 0.950 . S
H992 C1022 0.950 . S
H993 C1023 0.950 . S
C994 H976 0.951 . S
C994 C995 1.366 . S
C994 C996 1.388 . S
C995 C994 1.366 . S
C995 C999 1.385 . S
C996 H977 0.951 . S
C996 C994 1.388 . S
C996 C997 1.366 . S
C997 C996 1.366 . S
C997 C998 1.414 . S
C997 C1000 1.499 . S
C998 H978 0.950 . S
C998 C997 1.414 . S
C998 C999 1.374 . S
C999 H979 0.950 . S
C999 C995 1.385 . S
C999 C998 1.374 . S
C1000 C997 1.499 . S
C1000 C1001 1.373 . S
C1000 C1002 1.389 . S
C1001 H980 0.950 . S
C1001 C1000 1.373 . S
C1001 C1017 1.377 . S
C1002 C1000 1.389 . S
C1002 C1003 1.524 . S
C1002 C1016 1.377 . S
C1003 C1002 1.524 . S
C1003 C1004 1.397 . S
C1003 C1008 1.363 . S
C1004 H981 0.950 . S
C1004 C1003 1.397 . S
C1004 C1005 1.334 . S
C1005 H982 0.950 . S
C1005 C1004 1.334 . S
C1005 C1006 1.287 . S
C1006 C1005 1.287 . S
C1006 C1007 1.524 . S
C1006 H1025 0.913 . S
C1007 H983 0.950 . S
C1007 C1006 1.524 . S
C1007 C1008 1.415 . S
C1008 H984 0.950 . S
C1008 C1003 1.363 . S
C1008 C1007 1.415 . S
C1009 H985 0.951 . S
C1009 C1010 1.366 . S
C1009 C1011 1.388 . S
C1010 C1009 1.366 . S
C1010 C1014 1.385 . S
C1011 H986 0.951 . S
C1011 C1009 1.388 . S
C1011 C1012 1.366 . S
C1012 C1011 1.366 . S
C1012 C1013 1.414 . S
C1012 C1015 1.499 . S
C1013 H987 0.950 . S
C1013 C1012 1.414 . S
C1013 C1014 1.374 . S
C1014 H988 0.950 . S
C1014 C1010 1.385 . S
C1014 C1013 1.374 . S
C1015 C1012 1.499 . S
C1015 C1016 1.373 . S
C1015 C1017 1.389 . S
C1016 H989 0.950 . S
C1016 C1002 1.377 . S
C1016 C1015 1.373 . S
C1017 C1001 1.377 . S
C1017 C1015 1.389 . S
C1017 C1018 1.524 . S
C1018 C1017 1.524 . S
C1018 C1019 1.397 . S
C1018 C1023 1.363 . S
C1019 H990 0.950 . S
C1019 C1018 1.397 . S
C1019 C1020 1.334 . S
C1020 H991 0.950 . S
C1020 C1019 1.334 . S
C1020 C1021 1.287 . S
C1021 C1020 1.287 . S
C1021 C1022 1.524 . S
C1021 H1024 0.999 . S
C1022 H992 0.950 . S
C1022 C1021 1.524 . S
C1022 C1023 1.415 . S
C1023 H993 0.950 . S
C1023 C1018 1.363 . S
C1023 C1022 1.415 . S
H1024 C1021 0.999 . S
H1025 C1006 0.913 . S
H1026 C1044 0.951 . S
H1027 C1046 0.951 . S
H1028 C1048 0.950 . S
H1029 C1049 0.950 . S
H1030 C1051 0.950 . S
H1031 C1054 0.950 . S
H1032 C1055 0.950 . S
H1033 C1057 0.950 . S
H1034 C1058 0.950 . S
H1035 C1059 0.951 . S
H1036 C1061 0.951 . S
H1037 C1063 0.950 . S
H1038 C1064 0.950 . S
H1039 C1066 0.950 . S
H1040 C1069 0.950 . S
H1041 C1070 0.950 . S
H1042 C1072 0.950 . S
H1043 C1073 0.950 . S
C1044 H1026 0.951 . S
C1044 C1045 1.366 . S
C1044 C1046 1.388 . S
C1045 C1044 1.366 . S
C1045 C1049 1.385 . S
C1046 H1027 0.951 . S
C1046 C1044 1.388 . S
C1046 C1047 1.366 . S
C1047 C1046 1.366 . S
C1047 C1048 1.414 . S
C1047 C1050 1.499 . S
C1048 H1028 0.950 . S
C1048 C1047 1.414 . S
C1048 C1049 1.374 . S
C1049 H1029 0.950 . S
C1049 C1045 1.385 . S
C1049 C1048 1.374 . S
C1050 C1047 1.499 . S
C1050 C1051 1.373 . S
C1050 C1052 1.389 . S
C1051 H1030 0.950 . S
C1051 C1050 1.373 . S
C1051 C1067 1.377 . S
C1052 C1050 1.389 . S
C1052 C1053 1.524 . S
C1052 C1066 1.377 . S
C1053 C1052 1.524 . S
C1053 C1054 1.397 . S
C1053 C1058 1.363 . S
C1054 H1031 0.950 . S
C1054 C1053 1.397 . S
C1054 C1055 1.334 . S
C1055 H1032 0.950 . S
C1055 C1054 1.334 . S
C1055 C1056 1.287 . S
C1056 C1055 1.287 . S
C1056 C1057 1.524 . S
C1056 H1075 0.913 . S
C1057 H1033 0.950 . S
C1057 C1056 1.524 . S
C1057 C1058 1.415 . S
C1058 H1034 0.950 . S
C1058 C1053 1.363 . S
C1058 C1057 1.415 . S
C1059 H1035 0.951 . S
C1059 C1060 1.366 . S
C1059 C1061 1.388 . S
C1060 C1059 1.366 . S
C1060 C1064 1.385 . S
C1061 H1036 0.951 . S
C1061 C1059 1.388 . S
C1061 C1062 1.366 . S
C1062 C1061 1.366 . S
C1062 C1063 1.414 . S
C1062 C1065 1.499 . S
C1063 H1037 0.950 . S
C1063 C1062 1.414 . S
C1063 C1064 1.374 . S
C1064 H1038 0.950 . S
C1064 C1060 1.385 . S
C1064 C1063 1.374 . S
C1065 C1062 1.499 . S
C1065 C1066 1.373 . S
C1065 C1067 1.389 . S
C1066 H1039 0.950 . S
C1066 C1052 1.377 . S
C1066 C1065 1.373 . S
C1067 C1051 1.377 . S
C1067 C1065 1.389 . S
C1067 C1068 1.524 . S
C1068 C1067 1.524 . S
C1068 C1069 1.397 . S
C1068 C1073 1.363 . S
C1069 H1040 0.950 . S
C1069 C1068 1.397 . S
C1069 C1070 1.334 . S
C1070 H1041 0.950 . S
C1070 C1069 1.334 . S
C1070 C1071 1.287 . S
C1071 C1070 1.287 . S
C1071 C1072 1.524 . S
C1071 H1074 0.999 . S
C1072 H1042 0.950 . S
C1072 C1071 1.524 . S
C1072 C1073 1.415 . S
C1073 H1043 0.950 . S
C1073 C1068 1.363 . S
C1073 C1072 1.415 . S
H1074 C1071 0.999 . S
H1075 C1056 0.913 . S
H1076 C1094 0.951 . S
H1077 C1096 0.951 . S
H1078 C1098 0.950 . S
H1079 C1099 0.950 . S
H1080 C1101 0.950 . S
H1081 C1104 0.950 . S
H1082 C1105 0.950 . S
H1083 C1107 0.950 . S
H1084 C1108 0.950 . S
H1085 C1109 0.951 . S
H1086 C1111 0.951 . S
H1087 C1113 0.950 . S
H1088 C1114 0.950 . S
H1089 C1116 0.950 . S
H1090 C1119 0.950 . S
H1091 C1120 0.950 . S
H1092 C1122 0.950 . S
H1093 C1123 0.950 . S
C1094 H1076 0.951 . S
C1094 C1095 1.366 . S
C1094 C1096 1.388 . S
C1095 C1094 1.366 . S
C1095 C1099 1.385 . S
C1096 H1077 0.951 . S
C1096 C1094 1.388 . S
C1096 C1097 1.366 . S
C1097 C1096 1.366 . S
C1097 C1098 1.414 . S
C1097 C1100 1.499 . S
C1098 H1078 0.950 . S
C1098 C1097 1.414 . S
C1098 C1099 1.374 . S
C1099 H1079 0.950 . S
C1099 C1095 1.385 . S
C1099 C1098 1.374 . S
C1100 C1097 1.499 . S
C1100 C1101 1.373 . S
C1100 C1102 1.389 . S
C1101 H1080 0.950 . S
C1101 C1100 1.373 . S
C1101 C1117 1.377 . S
C1102 C1100 1.389 . S
C1102 C1103 1.524 . S
C1102 C1116 1.377 . S
C1103 C1102 1.524 . S
C1103 C1104 1.397 . S
C1103 C1108 1.363 . S
C1104 H1081 0.950 . S
C1104 C1103 1.397 . S
C1104 C1105 1.334 . S
C1105 H1082 0.950 . S
C1105 C1104 1.334 . S
C1105 C1106 1.287 . S
C1106 C1105 1.287 . S
C1106 C1107 1.524 . S
C1106 H1125 0.913 . S
C1107 H1083 0.950 . S
C1107 C1106 1.524 . S
C1107 C1108 1.415 . S
C1108 H1084 0.950 . S
C1108 C1103 1.363 . S
C1108 C1107 1.415 . S
C1109 H1085 0.951 . S
C1109 C1110 1.366 . S
C1109 C1111 1.388 . S
C1110 C1109 1.366 . S
C1110 C1114 1.385 . S
C1111 H1086 0.951 . S
C1111 C1109 1.388 . S
C1111 C1112 1.366 . S
C1112 C1111 1.366 . S
C1112 C1113 1.414 . S
C1112 C1115 1.499 . S
C1113 H1087 0.950 . S
C1113 C1112 1.414 . S
C1113 C1114 1.374 . S
C1114 H1088 0.950 . S
C1114 C1110 1.385 . S
C1114 C1113 1.374 . S
C1115 C1112 1.499 . S
C1115 C1116 1.373 . S
C1115 C1117 1.389 . S
C1116 H1089 0.950 . S
C1116 C1102 1.377 . S
C1116 C1115 1.373 . S
C1117 C1101 1.377 . S
C1117 C1115 1.389 . S
C1117 C1118 1.524 . S
C1118 C1117 1.524 . S
C1118 C1119 1.397 . S
C1118 C1123 1.363 . S
C1119 H1090 0.950 . S
C1119 C1118 1.397 . S
C1119 C1120 1.334 . S
C1120 H1091 0.950 . S
C1120 C1119 1.334 . S
C1120 C1121 1.287 . S
C1121 C1120 1.287 . S
C1121 C1122 1.524 . S
C1121 H1124 0.999 . S
C1122 H1092 0.950 . S
C1122 C1121 1.524 . S
C1122 C1123 1.415 . S
C1123 H1093 0.950 . S
C1123 C1118 1.363 . S
C1123 C1122 1.415 . S
H1124 C1121 0.999 . S
H1125 C1106 0.913 . S
H1126 C1144 0.951 . S
H1127 C1146 0.951 . S
H1128 C1148 0.950 . S
H1129 C1149 0.950 . S
H1130 C1151 0.950 . S
H1131 C1154 0.950 . S
H1132 C1155 0.950 . S
H1133 C1157 0.950 . S
H1134 C1158 0.950 . S
H1135 C1159 0.951 . S
H1136 C1161 0.951 . S
H1137 C1163 0.950 . S
H1138 C1164 0.950 . S
H1139 C1166 0.950 . S
H1140 C1169 0.950 . S
H1141 C1170 0.950 . S
H1142 C1172 0.950 . S
H1143 C1173 0.950 . S
C1144 H1126 0.951 . S
C1144 C1145 1.366 . S
C1144 C1146 1.388 . S
C1145 C1144 1.366 . S
C1145 C1149 1.385 . S
C1146 H1127 0.951 . S
C1146 C1144 1.388 . S
C1146 C1147 1.366 . S
C1147 C1146 1.366 . S
C1147 C1148 1.414 . S
C1147 C1150 1.499 . S
C1148 H1128 0.950 . S
C1148 C1147 1.414 . S
C1148 C1149 1.374 . S
C1149 H1129 0.950 . S
C1149 C1145 1.385 . S
C1149 C1148 1.374 . S
C1150 C1147 1.499 . S
C1150 C1151 1.373 . S
C1150 C1152 1.389 . S
C1151 H1130 0.950 . S
C1151 C1150 1.373 . S
C1151 C1167 1.377 . S
C1152 C1150 1.389 . S
C1152 C1153 1.524 . S
C1152 C1166 1.377 . S
C1153 C1152 1.524 . S
C1153 C1154 1.397 . S
C1153 C1158 1.363 . S
C1154 H1131 0.950 . S
C1154 C1153 1.397 . S
C1154 C1155 1.334 . S
C1155 H1132 0.950 . S
C1155 C1154 1.334 . S
C1155 C1156 1.287 . S
C1156 C1155 1.287 . S
C1156 C1157 1.524 . S
C1156 H1175 0.913 . S
C1157 H1133 0.950 . S
C1157 C1156 1.524 . S
C1157 C1158 1.415 . S
C1158 H1134 0.950 . S
C1158 C1153 1.363 . S
C1158 C1157 1.415 . S
C1159 H1135 0.951 . S
C1159 C1160 1.366 . S
C1159 C1161 1.388 . S
C1160 C1159 1.366 . S
C1160 C1164 1.385 . S
C1161 H1136 0.951 . S
C1161 C1159 1.388 . S
C1161 C1162 1.366 . S
C1162 C1161 1.366 . S
C1162 C1163 1.414 . S
C1162 C1165 1.499 . S
C1163 H1137 0.950 . S
C1163 C1162 1.414 . S
C1163 C1164 1.374 . S
C1164 H1138 0.950 . S
C1164 C1160 1.385 . S
C1164 C1163 1.374 . S
C1165 C1162 1.499 . S
C1165 C1166 1.373 . S
C1165 C1167 1.389 . S
C1166 H1139 0.950 . S
C1166 C1152 1.377 . S
C1166 C1165 1.373 . S
C1167 C1151 1.377 . S
C1167 C1165 1.389 . S
C1167 C1168 1.524 . S
C1168 C1167 1.524 . S
C1168 C1169 1.397 . S
C1168 C1173 1.363 . S
C1169 H1140 0.950 . S
C1169 C1168 1.397 . S
C1169 C1170 1.334 . S
C1170 H1141 0.950 . S
C1170 C1169 1.334 . S
C1170 C1171 1.287 . S
C1171 C1170 1.287 . S
C1171 C1172 1.524 . S
C1171 H1174 0.999 . S
C1172 H1142 0.950 . S
C1172 C1171 1.524 . S
C1172 C1173 1.415 . S
C1173 H1143 0.950 . S
C1173 C1168 1.363 . S
C1173 C1172 1.415 . S
H1174 C1171 0.999 . S
H1175 C1156 0.913 . S
H1176 C1194 0.951 . S
H1177 C1196 0.951 . S
H1178 C1198 0.950 . S
H1179 C1199 0.950 . S
H1180 C1201 0.950 . S
H1181 C1204 0.950 . S
H1182 C1205 0.950 . S
H1183 C1207 0.963 . S
H1184 C1208 0.950 1_554 S
H1185 C1209 0.951 . S
H1186 C1211 0.951 . S
H1187 C1213 0.950 . S
H1188 C1214 0.950 . S
H1189 C1216 0.950 . S
H1190 C1219 0.950 . S
H1191 C1220 0.950 . S
H1192 C1222 0.963 . S
H1193 C1223 0.950 1_556 S
C1194 H1176 0.951 . S
C1194 C1195 1.366 . S
C1194 C1196 1.388 . S
C1195 C1194 1.366 . S
C1195 C1199 1.385 1_655 S
C1196 H1177 0.951 . S
C1196 C1194 1.388 . S
C1196 C1197 1.366 . S
C1197 C1196 1.366 . S
C1197 C1198 1.414 1_655 S
C1197 C1200 1.499 . S
C1198 H1178 0.950 . S
C1198 C1197 1.414 1_455 S
C1198 C1199 1.374 . S
C1199 H1179 0.950 . S
C1199 C1195 1.385 1_455 S
C1199 C1198 1.374 . S
C1200 C1197 1.499 . S
C1200 C1201 1.373 1_655 S
C1200 C1202 1.389 . S
C1201 H1180 0.950 . S
C1201 C1200 1.373 1_455 S
C1201 C1217 1.377 1_556 S
C1202 C1200 1.389 . S
C1202 C1203 1.524 . S
C1202 C1216 1.377 1_556 S
C1203 C1202 1.524 . S
C1203 C1204 1.397 . S
C1203 C1208 1.363 . S
C1204 H1181 0.950 . S
C1204 C1203 1.397 . S
C1204 C1205 1.334 . S
C1205 H1182 0.950 . S
C1205 C1204 1.334 . S
C1205 C1206 1.287 . S
C1206 C1205 1.287 . S
C1206 C1207 1.524 . S
C1206 H1225 0.913 . S
C1207 H1183 0.963 . S
C1207 C1206 1.524 . S
C1207 C1208 1.415 . S
C1208 H1184 0.950 1_556 S
C1208 C1203 1.363 . S
C1208 C1207 1.415 . S
C1209 H1185 0.951 . S
C1209 C1210 1.366 . S
C1209 C1211 1.388 . S
C1210 C1209 1.366 . S
C1210 C1214 1.385 1_455 S
C1211 H1186 0.951 . S
C1211 C1209 1.388 . S
C1211 C1212 1.366 . S
C1212 C1211 1.366 . S
C1212 C1213 1.414 1_455 S
C1212 C1215 1.499 . S
C1213 H1187 0.950 . S
C1213 C1212 1.414 1_655 S
C1213 C1214 1.374 . S
C1214 H1188 0.950 . S
C1214 C1210 1.385 1_655 S
C1214 C1213 1.374 . S
C1215 C1212 1.499 . S
C1215 C1216 1.373 1_455 S
C1215 C1217 1.389 . S
C1216 H1189 0.950 . S
C1216 C1202 1.377 1_554 S
C1216 C1215 1.373 1_655 S
C1217 C1201 1.377 1_554 S
C1217 C1215 1.389 . S
C1217 C1218 1.524 . S
C1218 C1217 1.524 . S
C1218 C1219 1.397 . S
C1218 C1223 1.363 . S
C1219 H1190 0.950 . S
C1219 C1218 1.397 . S
C1219 C1220 1.334 . S
C1220 H1191 0.950 . S
C1220 C1219 1.334 . S
C1220 C1221 1.287 . S
C1221 C1220 1.287 . S
C1221 C1222 1.524 . S
C1221 H1224 0.999 . S
C1222 H1192 0.963 . S
C1222 C1221 1.524 . S
C1222 C1223 1.415 . S
C1223 H1193 0.950 1_554 S
C1223 C1218 1.363 . S
C1223 C1222 1.415 . S
H1224 C1221 0.999 . S
H1225 C1206 0.913 . S
H1226 C1244 0.951 . S
H1227 C1246 0.951 1_655 S
H1228 C1248 0.950 . S
H1229 C1249 0.950 . S
H1230 C1251 0.950 . S
H1231 C1254 0.950 . S
H1232 C1255 0.950 . S
H1233 C1257 0.950 . S
H1234 C1258 0.950 . S
H1235 C1259 0.951 . S
H1236 C1261 0.951 1_455 S
H1237 C1263 0.950 . S
H1238 C1264 0.950 . S
H1239 C1266 0.950 . S
H1240 C1269 0.950 . S
H1241 C1270 0.950 . S
H1242 C1272 0.950 . S
H1243 C1273 0.950 . S
C1244 H1226 0.951 . S
C1244 C1245 1.366 1_565 S
C1244 C1246 1.388 . S
C1245 C1244 1.366 1_545 S
C1245 C1249 1.385 . S
C1246 H1227 0.951 1_455 S
C1246 C1244 1.388 . S
C1246 C1247 1.366 1_565 S
C1247 C1246 1.366 1_545 S
C1247 C1248 1.414 . S
C1247 C1250 1.499 . S
C1248 H1228 0.950 . S
C1248 C1247 1.414 . S
C1248 C1249 1.374 . S
C1249 H1229 0.950 . S
C1249 C1245 1.385 . S
C1249 C1248 1.374 . S
C1250 C1247 1.499 . S
C1250 C1251 1.373 1_455 S
C1250 C1252 1.389 1_545 S
C1251 H1230 0.950 . S
C1251 C1250 1.373 1_655 S
C1251 C1267 1.377 . S
C1252 C1250 1.389 1_565 S
C1252 C1253 1.524 . S
C1252 C1266 1.377 . S
C1253 C1252 1.524 . S
C1253 C1254 1.397 . S
C1253 C1258 1.363 . S
C1254 H1231 0.950 . S
C1254 C1253 1.397 . S
C1254 C1255 1.334 . S
C1255 H1232 0.950 . S
C1255 C1254 1.334 . S
C1255 C1256 1.287 . S
C1256 C1255 1.287 . S
C1256 C1257 1.524 . S
C1256 H1275 0.913 . S
C1257 H1233 0.950 . S
C1257 C1256 1.524 . S
C1257 C1258 1.415 . S
C1258 H1234 0.950 . S
C1258 C1253 1.363 . S
C1258 C1257 1.415 . S
C1259 H1235 0.951 . S
C1259 C1260 1.366 1_545 S
C1259 C1261 1.388 . S
C1260 C1259 1.366 1_565 S
C1260 C1264 1.385 . S
C1261 H1236 0.951 1_655 S
C1261 C1259 1.388 . S
C1261 C1262 1.366 1_545 S
C1262 C1261 1.366 1_565 S
C1262 C1263 1.414 . S
C1262 C1265 1.499 . S
C1263 H1237 0.950 . S
C1263 C1262 1.414 . S
C1263 C1264 1.374 . S
C1264 H1238 0.950 . S
C1264 C1260 1.385 . S
C1264 C1263 1.374 . S
C1265 C1262 1.499 . S
C1265 C1266 1.373 1_655 S
C1265 C1267 1.389 1_565 S
C1266 H1239 0.950 . S
C1266 C1252 1.377 . S
C1266 C1265 1.373 1_455 S
C1267 C1251 1.377 . S
C1267 C1265 1.389 1_545 S
C1267 C1268 1.524 . S
C1268 C1267 1.524 . S
C1268 C1269 1.397 . S
C1268 C1273 1.363 . S
C1269 H1240 0.950 . S
C1269 C1268 1.397 . S
C1269 C1270 1.334 . S
C1270 H1241 0.950 . S
C1270 C1269 1.334 . S
C1270 C1271 1.287 . S
C1271 C1270 1.287 . S
C1271 C1272 1.524 . S
C1271 H1274 0.999 . S
C1272 H1242 0.950 . S
C1272 C1271 1.524 . S
C1272 C1273 1.415 . S
C1273 H1243 0.950 . S
C1273 C1268 1.363 . S
C1273 C1272 1.415 . S
H1274 C1271 0.999 . S
H1275 C1256 0.913 . S
H1276 C1294 0.951 . S
H1277 C1296 0.951 . S
H1278 C1298 0.950 1_545 S
H1279 C1299 0.950 . S
H1280 C1301 0.950 . S
H1281 C1304 0.950 . S
H1282 C1305 0.950 . S
H1283 C1307 0.954 . S
H1284 C1308 0.950 1_554 S
H1285 C1309 0.951 . S
H1286 C1311 0.951 . S
H1287 C1313 0.950 1_565 S
H1288 C1314 0.950 . S
H1289 C1316 0.950 . S
H1290 C1319 0.950 . S
H1291 C1320 0.950 . S
H1292 C1322 0.954 . S
H1293 C1323 0.950 1_556 S
C1294 H1276 0.951 . S
C1294 C1295 1.366 . S
C1294 C1296 1.388 . S
C1295 C1294 1.366 . S
C1295 C1299 1.385 . S
C1296 H1277 0.951 . S
C1296 C1294 1.388 . S
C1296 C1297 1.366 . S
C1297 C1296 1.366 . S
C1297 C1298 1.414 . S
C1297 C1300 1.499 . S
C1298 H1278 0.950 1_565 S
C1298 C1297 1.414 . S
C1298 C1299 1.374 . S
C1299 H1279 0.950 . S
C1299 C1295 1.385 . S
C1299 C1298 1.374 . S
C1300 C1297 1.499 . S
C1300 C1301 1.373 1_565 S
C1300 C1302 1.389 . S
C1301 H1280 0.950 . S
C1301 C1300 1.373 1_545 S
C1301 C1317 1.377 1_556 S
C1302 C1300 1.389 . S
C1302 C1303 1.524 . S
C1302 C1316 1.377 1_556 S
C1303 C1302 1.524 . S
C1303 C1304 1.397 . S
C1303 C1308 1.363 . S
C1304 H1281 0.950 . S
C1304 C1303 1.397 . S
C1304 C1305 1.334 . S
C1305 H1282 0.950 . S
C1305 C1304 1.334 . S
C1305 C1306 1.287 . S
C1306 C1305 1.287 . S
C1306 C1307 1.524 . S
C1306 H1325 0.913 . S
C1307 H1283 0.954 . S
C1307 C1306 1.524 . S
C1307 C1308 1.415 . S
C1308 H1284 0.950 1_556 S
C1308 C1303 1.363 . S
C1308 C1307 1.415 . S
C1309 H1285 0.951 . S
C1309 C1310 1.366 . S
C1309 C1311 1.388 . S
C1310 C1309 1.366 . S
C1310 C1314 1.385 . S
C1311 H1286 0.951 . S
C1311 C1309 1.388 . S
C1311 C1312 1.366 . S
C1312 C1311 1.366 . S
C1312 C1313 1.414 . S
C1312 C1315 1.499 . S
C1313 H1287 0.950 1_545 S
C1313 C1312 1.414 . S
C1313 C1314 1.374 . S
C1314 H1288 0.950 . S
C1314 C1310 1.385 . S
C1314 C1313 1.374 . S
C1315 C1312 1.499 . S
C1315 C1316 1.373 1_545 S
C1315 C1317 1.389 . S
C1316 H1289 0.950 . S
C1316 C1302 1.377 1_554 S
C1316 C1315 1.373 1_565 S
C1317 C1301 1.377 1_554 S
C1317 C1315 1.389 . S
C1317 C1318 1.524 . S
C1318 C1317 1.524 . S
C1318 C1319 1.397 . S
C1318 C1323 1.363 . S
C1319 H1290 0.950 . S
C1319 C1318 1.397 . S
C1319 C1320 1.334 . S
C1320 H1291 0.950 . S
C1320 C1319 1.334 . S
C1320 C1321 1.287 . S
C1321 C1320 1.287 . S
C1321 C1322 1.524 . S
C1321 H1324 0.999 . S
C1322 H1292 0.954 . S
C1322 C1321 1.524 . S
C1322 C1323 1.415 . S
C1323 H1293 0.950 1_554 S
C1323 C1318 1.363 . S
C1323 C1322 1.415 . S
H1324 C1321 0.999 . S
H1325 C1306 0.913 . S
H1326 C1344 0.951 . S
H1327 C1346 0.951 . S
H1328 C1348 0.950 . S
H1329 C1349 0.950 . S
H1330 C1351 0.950 . S
H1331 C1354 0.950 . S
H1332 C1355 0.950 . S
H1333 C1357 0.950 . S
H1334 C1358 0.950 . S
H1335 C1359 0.951 . S
H1336 C1361 0.951 . S
H1337 C1363 0.950 . S
H1338 C1364 0.950 . S
H1339 C1366 0.950 . S
H1340 C1369 0.950 . S
H1341 C1370 0.950 . S
H1342 C1372 0.950 . S
H1343 C1373 0.950 . S
C1344 H1326 0.951 . S
C1344 C1345 1.366 . S
C1344 C1346 1.388 . S
C1345 C1344 1.366 . S
C1345 C1349 1.385 . S
C1346 H1327 0.951 . S
C1346 C1344 1.388 . S
C1346 C1347 1.366 . S
C1347 C1346 1.366 . S
C1347 C1348 1.414 . S
C1347 C1350 1.499 . S
C1348 H1328 0.950 . S
C1348 C1347 1.414 . S
C1348 C1349 1.374 . S
C1349 H1329 0.950 . S
C1349 C1345 1.385 . S
C1349 C1348 1.374 . S
C1350 C1347 1.499 . S
C1350 C1351 1.373 . S
C1350 C1352 1.389 . S
C1351 H1330 0.950 . S
C1351 C1350 1.373 . S
C1351 C1367 1.377 . S
C1352 C1350 1.389 . S
C1352 C1353 1.524 . S
C1352 C1366 1.377 . S
C1353 C1352 1.524 . S
C1353 C1354 1.397 . S
C1353 C1358 1.363 . S
C1354 H1331 0.950 . S
C1354 C1353 1.397 . S
C1354 C1355 1.334 . S
C1355 H1332 0.950 . S
C1355 C1354 1.334 . S
C1355 C1356 1.287 . S
C1356 C1355 1.287 . S
C1356 C1357 1.524 . S
C1356 H1375 0.913 . S
C1357 H1333 0.950 . S
C1357 C1356 1.524 . S
C1357 C1358 1.415 . S
C1358 H1334 0.950 . S
C1358 C1353 1.363 . S
C1358 C1357 1.415 . S
C1359 H1335 0.951 . S
C1359 C1360 1.366 . S
C1359 C1361 1.388 . S
C1360 C1359 1.366 . S
C1360 C1364 1.385 . S
C1361 H1336 0.951 . S
C1361 C1359 1.388 . S
C1361 C1362 1.366 . S
C1362 C1361 1.366 . S
C1362 C1363 1.414 . S
C1362 C1365 1.499 . S
C1363 H1337 0.950 . S
C1363 C1362 1.414 . S
C1363 C1364 1.374 . S
C1364 H1338 0.950 . S
C1364 C1360 1.385 . S
C1364 C1363 1.374 . S
C1365 C1362 1.499 . S
C1365 C1366 1.373 . S
C1365 C1367 1.389 . S
C1366 H1339 0.950 . S
C1366 C1352 1.377 . S
C1366 C1365 1.373 . S
C1367 C1351 1.377 . S
C1367 C1365 1.389 . S
C1367 C1368 1.524 . S
C1368 C1367 1.524 . S
C1368 C1369 1.397 . S
C1368 C1373 1.363 . S
C1369 H1340 0.950 . S
C1369 C1368 1.397 . S
C1369 C1370 1.334 . S
C1370 H1341 0.950 . S
C1370 C1369 1.334 . S
C1370 C1371 1.287 . S
C1371 C1370 1.287 . S
C1371 C1372 1.524 . S
C1371 H1374 0.999 . S
C1372 H1342 0.950 . S
C1372 C1371 1.524 . S
C1372 C1373 1.415 . S
C1373 H1343 0.950 . S
C1373 C1368 1.363 . S
C1373 C1372 1.415 . S
H1374 C1371 0.999 . S
H1375 C1356 0.913 . S
C195 C95 1.280 . S
C210 C7 1.266 . S
C245 C117 1.279 . S
C260 C28 1.267 . S
C295 C50 1.266 . S
C310 C138 1.280 . S
C345 C73 1.267 . S
C360 C160 1.280 . S
C395 C94 1.267 . S
C410 C6 1.280 . S
C445 C29 1.280 . S
C460 C116 1.266 . S
C495 C51 1.279 . S
C510 C139 1.267 . S
C545 C72 1.280 . S
C560 C161 1.267 . S
C595 C115 1.267 . S
C610 C71 1.279 . S
C645 C5 1.280 . S
C660 C141 1.267 . S
C695 C31 1.279 . S
C710 C163 1.266 . S
C745 C53 1.279 . S
C760 C93 1.267 . S
C795 C75 1.266 . S
C810 C119 1.280 . S
C845 C9 1.266 . S
C860 C137 1.280 . S
C895 C159 1.279 . S
C910 C27 1.267 . S
C945 C97 1.279 . S
C960 C49 1.267 . S
C995 C8 1.569 . S
C1010 C48 1.568 . S
C1045 C26 1.568 . S
C1060 C74 1.569 . S
C1095 C140 1.569 . S
C1110 C92 1.568 . S
C1145 C162 1.569 . S
C1160 C114 1.569 . S
C1195 C118 1.419 . S
C1210 C4 1.419 . S
C1245 C30 1.418 . S
C1260 C136 1.418 . S
C1295 C158 1.418 . S
C1310 C52 1.418 . S
C1345 C96 1.418 . S
C1360 C70 1.418 . S
