# Generated by pormake.
# Topology smk, (6)-cn, num edge types: 1
# Building blocks:
#     Node 0, Type 0, BuildingBlock: JUFBIX_clean_sbu_0, # of connection points: 6
#     Node 1, Type 0, BuildingBlock: JUFBIX_clean_sbu_0, # of connection points: 6
#     Node 2, Type 0, BuildingBlock: JUFBIX_clean_sbu_0, # of connection points: 6
#     Node 3, Type 0, BuildingBlock: JUFBIX_clean_sbu_0, # of connection points: 6
#     Node 4, Type 0, BuildingBlock: JUFBIX_clean_sbu_0, # of connection points: 6
#     Node 5, Type 0, BuildingBlock: JUFBIX_clean_sbu_0, # of connection points: 6
#     Edge 6, Type (0, 0), BuildingBlock: AJUNOK_clean_linker_0, # of connection points: 2
#     Edge 7, Type (0, 0), BuildingBlock: AJUNOK_clean_linker_0, # of connection points: 2
#     Edge 8, Type (0, 0), BuildingBlock: AJUNOK_clean_linker_0, # of connection points: 2
#     Edge 9, Type (0, 0), BuildingBlock: AJUNOK_clean_linker_0, # of connection points: 2
#     Edge 10, Type (0, 0), BuildingBlock: AJUNOK_clean_linker_0, # of connection points: 2
#     Edge 11, Type (0, 0), BuildingBlock: AJUNOK_clean_linker_0, # of connection points: 2
#     Edge 12, Type (0, 0), BuildingBlock: AJUNOK_clean_linker_0, # of connection points: 2
#     Edge 13, Type (0, 0), BuildingBlock: AJUNOK_clean_linker_0, # of connection points: 2
#     Edge 14, Type (0, 0), BuildingBlock: AJUNOK_clean_linker_0, # of connection points: 2
#     Edge 15, Type (0, 0), BuildingBlock: AJUNOK_clean_linker_0, # of connection points: 2
#     Edge 16, Type (0, 0), BuildingBlock: AJUNOK_clean_linker_0, # of connection points: 2
#     Edge 17, Type (0, 0), BuildingBlock: AJUNOK_clean_linker_0, # of connection points: 2
#     Edge 18, Type (0, 0), BuildingBlock: AJUNOK_clean_linker_0, # of connection points: 2
#     Edge 19, Type (0, 0), BuildingBlock: AJUNOK_clean_linker_0, # of connection points: 2
#     Edge 20, Type (0, 0), BuildingBlock: AJUNOK_clean_linker_0, # of connection points: 2
#     Edge 21, Type (0, 0), BuildingBlock: AJUNOK_clean_linker_0, # of connection points: 2
#     Edge 22, Type (0, 0), BuildingBlock: AJUNOK_clean_linker_0, # of connection points: 2
#     Edge 23, Type (0, 0), BuildingBlock: AJUNOK_clean_linker_0, # of connection points: 2
# Relax obj value: 0.390
# Max RMSD: 0.252
# Mean RMSD: 0.252
data_MOF--net-smk--node1-JUFBIX_clean_sbu_0--edge1-AJUNOK_clean_linker_0
_symmetry_space_group_name_H-M    P1
_symmetry_Int_Tables_number       1
_symmetry_cell_setting            triclinic
loop_
_symmetry_equiv_pos_as_xyz
'x, y, z'
_cell_length_a     34.769792
_cell_length_b     34.752987
_cell_length_c     10.903826
_cell_angle_alpha  89.978966
_cell_angle_beta   89.988335
_cell_angle_gamma 120.05011
loop_
_atom_site_label
_atom_site_type_symbol
_atom_site_fract_x
_atom_site_fract_y
_atom_site_fract_z
_atom_type_partial_charge
Co0 Co 0.44024 0.20483 0.49732 0.0
C1 C 0.41744 0.11584 0.50108 0.0
Co2 Co 0.49805 0.19464 0.49835 0.0
C3 C 0.38443 0.24198 0.56159 0.0
C4 C 0.35716 0.19485 0.41503 0.0
N5 N 0.39203 0.21415 0.49247 0.0
N6 N 0.34652 0.24117 0.52912 0.0
C7 C 0.32919 0.2114 0.43724 0.0
H8 H 0.40653 0.26286 0.6334 0.0
H9 H 0.35235 0.17025 0.34676 0.0
C10 C 0.52252 0.28311 0.48382 0.0
N11 N 0.54644 0.18576 0.50646 0.0
C12 C 0.57947 0.20384 0.59012 0.0
C13 C 0.5555 0.15896 0.43818 0.0
N14 N 0.60892 0.18953 0.57743 0.0
C15 C 0.59384 0.16119 0.48161 0.0
C16 C 0.46958 0.19771 0.26511 0.0
O17 O 0.48073 0.26813 0.48801 0.0
O18 O 0.53674 0.25603 0.49307 0.0
O19 O 0.49854 0.19338 0.32513 0.0
O20 O 0.44064 0.20264 0.3232 0.0
O21 O 0.45941 0.13335 0.5012 0.0
H22 H 0.53524 0.13868 0.36292 0.0
H23 H 0.5809 0.22608 0.6614 0.0
O24 O 0.4006 0.14108 0.50247 0.0
O25 O 0.44043 0.20695 0.67294 0.0
O26 O 0.49691 0.1958 0.67025 0.0
C27 C 0.46907 0.20144 0.73079 0.0
H28 H 0.29807 0.20165 0.39108 0.0
H29 H 0.60948 0.14344 0.44494 0.0
Co30 Co 0.22414 0.42031 0.79752 0.0
C31 C 0.13529 0.39731 0.79565 0.0
Co32 Co 0.21393 0.47814 0.79622 0.0
C33 C 0.26089 0.36499 0.72744 0.0
C34 C 0.21592 0.33754 0.87877 0.0
N35 N 0.23389 0.37236 0.80082 0.0
N36 N 0.26041 0.32694 0.75646 0.0
C37 C 0.23236 0.30973 0.85217 0.0
H38 H 0.28104 0.38749 0.65534 0.0
H39 H 0.19237 0.33267 0.95039 0.0
C40 C 0.30229 0.50282 0.80986 0.0
N41 N 0.20467 0.52634 0.78908 0.0
C42 C 0.22199 0.55922 0.70475 0.0
C43 C 0.17818 0.53533 0.85902 0.0
N44 N 0.20753 0.58852 0.71859 0.0
C45 C 0.17986 0.57348 0.81595 0.0
C46 C 0.21738 0.4496 0.0296 0.0
O47 O 0.28733 0.46102 0.80573 0.0
O48 O 0.27522 0.51705 0.80065 0.0
O49 O 0.21296 0.4785 0.96943 0.0
O50 O 0.2223 0.42062 0.97167 0.0
O51 O 0.15279 0.43929 0.79442 0.0
H52 H 0.15847 0.51514 0.93521 0.0
H53 H 0.24381 0.56063 0.63219 0.0
O54 O 0.16047 0.38042 0.79368 0.0
O55 O 0.22589 0.42058 0.6219 0.0
O56 O 0.21482 0.47711 0.62425 0.0
C57 C 0.2204 0.4492 0.56387 0.0
H58 H 0.22384 0.27887 0.89833 0.0
H59 H 0.16223 0.58903 0.85391 0.0
Co60 Co 0.85328 0.23586 0.83518 0.0
C61 C 0.94216 0.30101 0.84105 0.0
Co62 Co 0.86383 0.30409 0.83627 0.0
C63 C 0.81522 0.14269 0.90152 0.0
C64 C 0.86235 0.16205 0.75499 0.0
N65 N 0.84311 0.17794 0.8316 0.0
N66 N 0.81591 0.10545 0.87 0.0
C67 C 0.8456 0.11753 0.77805 0.0
H68 H 0.79445 0.14415 -0.02676 0.0
H69 H 0.88717 0.18166 0.68695 0.0
C70 C 0.77544 0.24094 0.81952 0.0
N71 N 0.87453 0.36212 0.84295 0.0
C72 C 0.8587 0.37934 0.92677 0.0
C73 C 0.90265 0.39705 0.77327 0.0
N74 N 0.87622 0.42365 0.91363 0.0
C75 C 0.9036 0.43485 0.81597 0.0
C76 C 0.86102 0.27164 0.60282 0.0
O77 O 0.79025 0.21399 0.82477 0.0
O78 O 0.80257 0.28231 0.82936 0.0
O79 O 0.86558 0.30552 0.66066 0.0
O80 O 0.85585 0.23817 0.6632 0.0
O81 O 0.92493 0.32569 0.84075 0.0
H82 H 0.92174 0.39526 0.69733 0.0
H83 H 0.83538 0.35976 -0.00181 0.0
O84 O 0.9167 0.25896 0.84148 0.0
O85 O 0.85076 0.23401 0.00824 0.0
O86 O 0.86201 0.30178 0.01054 0.0
C87 C 0.85607 0.26756 0.06852 0.0
H88 H 0.85509 0.09587 0.73241 0.0
H89 H 0.92239 0.46774 0.77668 0.0
Co90 Co 0.63745 0.8029 0.13347 0.0
C91 C 0.65813 0.73553 0.12585 0.0
Co92 Co 0.57831 0.73568 0.13187 0.0
C93 C 0.69243 0.89538 0.06645 0.0
C94 C 0.72214 0.87659 0.20887 0.0
N95 N 0.686 0.86042 0.13605 0.0
N96 N 0.73111 0.93268 0.09295 0.0
C97 C 0.74976 0.92103 0.18313 0.0
H98 H 0.66884 0.89361 -0.00126 0.0
H99 H 0.72809 0.85728 0.27608 0.0
C100 C 0.55538 0.80022 0.14817 0.0
N101 N 0.52963 0.67854 0.125 0.0
C102 C 0.49734 0.66296 0.03908 0.0
C103 C 0.51984 0.64318 0.19662 0.0
N104 N 0.4676 0.61933 0.05386 0.0
C105 C 0.48176 0.60676 0.15308 0.0
C106 C 0.60875 0.76734 0.36564 0.0
O107 O 0.59736 0.8264 0.14511 0.0
O108 O 0.54032 0.75881 0.13735 0.0
O109 O 0.57832 0.73433 0.30741 0.0
O110 O 0.63802 0.80045 0.30582 0.0
O111 O 0.61611 0.71245 0.12843 0.0
H112 H 0.53948 0.64369 0.27417 0.0
H113 H 0.49664 0.68313 0.96469 0.0
O114 O 0.67646 0.77784 0.1257 0.0
O115 O 0.63671 0.80494 0.95978 0.0
O116 O 0.57915 0.73783 0.95758 0.0
C117 C 0.60805 0.77163 0.89958 0.0
H118 H 0.78149 0.94291 0.22579 0.0
H119 H 0.46565 0.57363 0.19193 0.0
Co120 Co 0.82346 0.61959 0.16106 0.0
C121 C 0.7549 0.63848 0.16404 0.0
Co122 Co 0.75696 0.55944 0.16279 0.0
C123 C 0.91644 0.67612 0.22203 0.0
C124 C 0.89382 0.70647 0.09158 0.0
N125 N 0.8802 0.66909 0.15786 0.0
N126 N 0.95211 0.71646 0.19845 0.0
C127 C 0.93787 0.73567 0.11674 0.0
H128 H 0.91623 0.65259 0.28748 0.0
H129 H 0.87291 0.71227 0.02977 0.0
C130 C 0.8232 0.53873 0.14699 0.0
N131 N 0.70017 0.50995 0.16915 0.0
C132 C 0.68396 0.47834 0.25723 0.0
C133 C 0.66551 0.49905 0.09366 0.0
N134 N 0.64062 0.44806 0.24009 0.0
C135 C 0.62891 0.46111 0.13704 0.0
C136 C 0.78882 0.59015 0.92907 0.0
O137 O 0.84829 0.58087 0.15093 0.0
O138 O 0.78156 0.52234 0.15789 0.0
O139 O 0.75593 0.55943 -0.01294 0.0
O140 O 0.82135 0.61988 -0.01071 0.0
O141 O 0.7324 0.59638 0.16512 0.0
H142 H 0.66658 0.51783 0.01333 0.0
H143 H 0.7034 0.47847 0.33468 0.0
O144 O 0.79717 0.65738 0.16677 0.0
O145 O 0.8254 0.61915 0.33423 0.0
O146 O 0.75902 0.5605 0.33704 0.0
C147 C 0.79255 0.58994 0.39478 0.0
H148 H 0.95791 0.76859 0.07818 0.0
H149 H 0.59626 0.44428 0.09542 0.0
Co150 Co 0.25359 0.83335 0.46421 0.0
C151 C 0.32032 0.92234 0.46004 0.0
Co152 Co 0.32156 0.84339 0.46302 0.0
C153 C 0.16057 0.79667 0.39963 0.0
C154 C 0.18201 0.84685 0.53831 0.0
N155 N 0.19628 0.82465 0.46777 0.0
N156 N 0.12464 0.80067 0.42484 0.0
C157 C 0.13816 0.83233 0.51191 0.0
H158 H 0.16142 0.77488 0.33015 0.0
H159 H 0.20241 0.87244 0.60365 0.0
C160 C 0.25712 0.75492 0.47797 0.0
N161 N 0.37885 0.85217 0.45632 0.0
C162 C 0.39506 0.83641 0.36944 0.0
C163 C 0.41358 0.87662 0.53098 0.0
N164 N 0.43844 0.84972 0.38673 0.0
C165 C 0.45021 0.87518 0.48848 0.0
C166 C 0.28885 0.83992 0.69647 0.0
O167 O 0.23039 0.77003 0.47446 0.0
O168 O 0.29846 0.7819 0.46767 0.0
O169 O 0.32263 0.84425 0.63862 0.0
O170 O 0.25578 0.83576 0.63617 0.0
O171 O 0.34462 0.90469 0.46081 0.0
H172 H 0.41247 0.89465 0.61046 0.0
H173 H 0.37548 0.81647 0.293 0.0
O174 O 0.27822 0.89722 0.45798 0.0
O175 O 0.25162 0.83081 0.29098 0.0
O176 O 0.31946 0.84244 0.28872 0.0
C177 C 0.28518 0.83618 0.23071 0.0
H178 H 0.11779 0.8443 0.5532 0.0
H179 H 0.48286 0.89127 0.53012 0.0
C180 C 0.43985 0.20646 0.06417 0.0
C181 C 0.46992 0.19804 0.12912 0.0
C182 C 0.43985 0.2077 0.93565 0.0
C183 C 0.46989 0.20051 0.86683 0.0
H184 H 0.41612 0.21237 0.1128 0.0
H185 H 0.41611 0.21437 0.89012 0.0
S186 S 0.55517 0.17641 -0.00751 0.0
N187 N 0.53037 0.18203 0.11449 0.0
N188 N 0.53034 0.18409 0.87391 0.0
C189 C 0.50006 0.19186 0.93074 0.0
C190 C 0.50008 0.19068 0.06148 0.0
C191 C 0.22692 0.4199 0.35947 0.0
C192 C 0.21962 0.44997 0.42785 0.0
C193 C 0.22591 0.4199 0.23093 0.0
C194 C 0.21763 0.45001 0.16557 0.0
H195 H 0.23349 0.39613 0.40534 0.0
H196 H 0.23186 0.39614 0.18264 0.0
S197 S 0.19596 0.53543 0.301 0.0
N198 N 0.20335 0.51053 0.41994 0.0
N199 N 0.20176 0.5106 0.17934 0.0
C200 C 0.21022 0.48024 0.23278 0.0
C201 C 0.21115 0.4802 0.36352 0.0
C202 C 0.86127 0.30449 0.27008 0.0
C203 C 0.85675 0.2675 0.20452 0.0
C204 C 0.86299 0.30576 0.39857 0.0
C205 C 0.86027 0.27012 0.46676 0.0
H206 H 0.86354 0.33283 0.22196 0.0
H207 H 0.86629 0.33489 0.44457 0.0
S208 S 0.84862 0.16547 0.33924 0.0
N209 N 0.84987 0.19439 0.21784 0.0
N210 N 0.85307 0.19666 0.45839 0.0
C211 C 0.85583 0.23291 0.40223 0.0
C212 C 0.85404 0.23162 0.27152 0.0
C213 C 0.57231 0.73761 0.56925 0.0
C214 C 0.60968 0.76826 0.50164 0.0
C215 C 0.57199 0.7391 0.69778 0.0
C216 C 0.609 0.77135 0.76371 0.0
H217 H 0.54283 0.71255 0.52268 0.0
H218 H 0.54234 0.71492 0.74567 0.0
S219 S 0.71648 0.85699 0.63073 0.0
N220 N 0.6856 0.83038 0.51098 0.0
N221 N 0.68486 0.83322 0.75177 0.0
C222 C 0.64681 0.80178 0.69735 0.0
C223 C 0.6472 0.80019 0.56665 0.0
C224 C 0.75704 0.55642 0.59654 0.0
C225 C 0.79264 0.59065 0.53077 0.0
C226 C 0.75586 0.55662 0.72505 0.0
C227 C 0.7902 0.59107 0.79304 0.0
H228 H 0.72975 0.5291 0.5486 0.0
H229 H 0.72784 0.52941 0.77123 0.0
S230 S 0.89078 0.68909 0.66492 0.0
N231 N 0.86297 0.66023 0.54364 0.0
N232 N 0.86083 0.66077 0.78431 0.0
C233 C 0.82598 0.62565 0.72831 0.0
C234 C 0.8272 0.62538 0.59756 0.0
C235 C 0.3241 0.84701 0.02945 0.0
C236 C 0.28495 0.83614 0.0947 0.0
C237 C 0.32514 0.84818 0.90092 0.0
C238 C 0.2871 0.83857 0.83243 0.0
H239 H 0.35441 0.85499 0.07786 0.0
H240 H 0.35612 0.85693 0.85514 0.0
S241 S 0.17549 0.80616 0.9588 0.0
N242 N 0.20675 0.81426 0.08063 0.0
N243 N 0.20856 0.81637 0.83987 0.0
C244 C 0.24753 0.82714 0.89654 0.0
C245 C 0.24649 0.82594 0.02732 0.0
C246 C 0.41217 0.04207 0.48633 0.0
C247 C 0.39002 0.06657 0.4929 0.0
C248 C 0.38906 0.99602 0.47387 0.0
C249 C 0.34237 0.97163 0.46788 0.0
H250 H 0.4481 0.05848 0.49016 0.0
H251 H 0.40846 0.97951 0.46961 0.0
S252 S 0.26778 1.01925 0.48106 0.0
N253 N 0.31827 0.06293 0.49197 0.0
N254 N 0.27438 0.97549 0.46974 0.0
C255 C 0.31937 0.99538 0.47443 0.0
C256 C 0.34324 0.04293 0.48675 0.0
C257 C 0.32528 0.26779 0.7129 0.0
C258 C 0.32725 0.26528 0.58454 0.0
C259 C 0.3037 0.28831 0.76842 0.0
C260 C 0.28418 0.30789 0.6976 0.0
H261 H 0.33937 0.25261 0.77056 0.0
H262 H 0.3022 0.28886 0.86755 0.0
S263 S 0.28226 0.31214 0.35795 0.0
N264 N 0.30925 0.28538 0.3882 0.0
N265 N 0.26907 0.32421 0.4924 0.0
C266 C 0.28701 0.30664 0.56921 0.0
C267 C 0.30838 0.2852 0.51275 0.0
C268 C 1.01625 0.36936 0.83921 0.0
C269 C 0.99139 0.32266 0.83459 0.0
C270 C 0.06221 0.39235 0.82553 0.0
C271 C 0.08614 0.37004 0.80712 0.0
H272 H 1.00016 0.38888 0.85248 0.0
H273 H 0.079 0.42831 0.82994 0.0
S274 S 1.03751 0.24765 0.79067 0.0
N275 N 0.99421 0.25444 0.81183 0.0
N276 N 0.08156 0.2981 0.78741 0.0
C277 C 0.06209 0.32321 0.80405 0.0
C278 C 1.0146 0.29947 0.81757 0.0
C279 C 0.77106 1.01475 0.10764 0.0
C280 C 0.74961 0.97586 0.03596 0.0
C281 C 0.79127 0.05714 0.05335 0.0
C282 C 0.79159 0.06206 0.92533 0.0
H283 H 0.7723 1.0123 0.2064 0.0
H284 H 0.80802 0.08626 0.11131 0.0
S285 S 0.73917 0.97124 0.69705 0.0
N286 N 0.729 0.94533 0.83037 0.0
N287 N 0.76747 1.02489 0.72875 0.0
C288 C 0.76974 1.02358 0.85292 0.0
C289 C 0.74857 0.98051 0.9081 0.0
C290 C 0.75298 0.71052 0.16545 0.0
C291 C 0.73101 0.66392 0.15188 0.0
C292 C 0.72982 0.73408 0.15407 0.0
C293 C 0.68395 0.71187 0.12793 0.0
H294 H 0.78814 0.72886 0.18651 0.0
H295 H 0.74777 0.76972 0.16806 0.0
S296 S 0.6116 0.59038 0.07362 0.0
N297 N 0.66089 0.59695 0.10445 0.0
N298 N 0.6182 0.64066 0.08126 0.0
C299 C 0.66207 0.66543 0.11046 0.0
C300 C 0.68533 0.64164 0.12297 0.0
C301 C 1.01745 0.78192 0.2866 0.0
C302 C 0.9955 0.73664 0.25463 0.0
C303 C 0.05949 0.80242 0.34186 0.0
C304 C 0.08164 0.77867 0.36605 0.0
H305 H 1.00168 0.80154 0.27032 0.0
H306 H 0.07501 0.83735 0.36484 0.0
S307 S 1.03898 0.65947 0.29762 0.0
N308 N 0.99933 0.66874 0.2491 0.0
N309 N 0.07839 0.70726 0.35355 0.0
C310 C 0.06029 0.73343 0.3335 0.0
C311 C 1.01718 0.7124 0.27807 0.0
C312 C 0.53795 0.35518 0.3883 0.0
C313 C 0.55399 0.32951 0.44459 0.0
C314 C 0.56662 0.39449 0.32487 0.0
C315 C 0.61248 0.40981 0.31532 0.0
H316 H 0.50268 0.34371 0.38757 0.0
H317 H 0.55257 0.41253 0.28055 0.0
S318 S 0.67188 0.35681 0.4555 0.0
N319 N 0.61951 0.32444 0.49563 0.0
N320 N 0.67278 0.39708 0.37315 0.0
C321 C 0.62928 0.38568 0.3766 0.0
C322 C 0.60021 0.34592 0.44207 0.0
C323 C 0.18813 0.6425 0.63115 0.0
C324 C 0.21876 0.62745 0.64496 0.0
C325 C 0.1995 0.68217 0.56864 0.0
C326 C 0.24201 0.70845 0.51716 0.0
H327 H 0.15531 0.62393 0.67117 0.0
H328 H 0.17544 0.69328 0.56591 0.0
S329 S 0.33342 0.68223 0.51823 0.0
N330 N 0.29299 0.64135 0.5964 0.0
N331 N 0.31363 0.71444 0.47499 0.0
C332 C 0.27205 0.69239 0.52382 0.0
C333 C 0.26067 0.65234 0.58871 0.0
C334 C 0.70267 0.18279 0.73067 0.0
C335 C 0.7291 0.22579 0.77914 0.0
C336 C 0.66297 0.1709 0.66791 0.0
C337 C 0.64798 0.20143 0.65096 0.0
H338 H 0.71365 0.15866 0.73613 0.0
H339 H 0.64428 0.13769 0.63033 0.0
S340 S 0.70317 0.31736 0.76845 0.0
N341 N 0.73542 0.29796 0.81436 0.0
N342 N 0.66206 0.27616 0.69308 0.0
C343 C 0.67303 0.24389 0.70401 0.0
C344 C 0.71319 0.25587 0.76892 0.0
C345 C 0.41408 0.54608 0.96516 0.0
C346 C 0.42902 0.59173 -0.02072 0.0
C347 C 0.37471 0.51787 0.90154 0.0
C348 C 0.34863 0.53421 0.84947 0.0
H349 H 0.4325 0.5318 0.00582 0.0
H350 H 0.3636 0.48268 0.89858 0.0
S351 S 0.37474 0.65187 0.85172 0.0
N352 N 0.41537 0.65222 0.9307 0.0
N353 N 0.34271 0.59991 0.80749 0.0
C354 C 0.36462 0.58031 0.85664 0.0
C355 C 0.40439 0.60888 0.9225 0.0
C356 C 0.81001 0.46336 0.09081 0.0
C357 C 0.84033 0.50905 0.10778 0.0
C358 C 0.82238 0.43561 0.03071 0.0
C359 C 0.86566 0.45217 -0.01489 0.0
H360 H 0.77567 0.44907 0.11905 0.0
H361 H 0.79721 0.40131 0.01507 0.0
S362 S 0.95986 0.56732 0.02359 0.0
N363 N 0.91711 0.56838 0.08594 0.0
N364 N 0.94054 0.51585 -0.02498 0.0
C365 C 0.89719 0.49702 0.00852 0.0
C366 C 0.88454 0.52546 0.06972 0.0
C367 C 0.54087 0.8577 0.24234 0.0
C368 C 0.52439 0.81579 0.18683 0.0
C369 C 0.51244 0.86898 0.30432 0.0
C370 C 0.46642 0.83887 0.31337 0.0
H371 H 0.57623 0.8812 0.2433 0.0
H372 H 0.5268 0.90125 0.34778 0.0
S373 S 0.40601 0.72597 0.17565 0.0
N374 N 0.45834 0.7454 0.13622 0.0
N375 N 0.40562 0.76583 0.25667 0.0
C376 C 0.44927 0.79765 0.25328 0.0
C377 C 0.47806 0.78637 0.18899 0.0
loop_
_geom_bond_atom_site_label_1
_geom_bond_atom_site_label_2
_geom_bond_distance
_geom_bond_site_symmetry_2
_ccdc_geom_bond_type
Co0 N5 2.057 . S
Co0 O17 2.021 . S
Co0 O20 2.062 . S
Co0 O24 2.117 . S
Co0 O25 2.020 . S
C1 O21 1.259 . S
C1 O24 1.258 . S
Co2 N11 2.057 . S
Co2 O18 2.117 . S
Co2 O19 2.020 . S
Co2 O21 2.021 . S
Co2 O26 2.062 . S
C3 N5 1.316 . S
C3 N6 1.347 . S
C3 H8 0.931 . S
C4 N5 1.375 . S
C4 C7 1.350 . S
C4 H9 0.930 . S
N5 Co0 2.057 . S
N5 C3 1.316 . S
N5 C4 1.375 . S
N6 C3 1.347 . S
N6 C7 1.373 . S
C7 C4 1.350 . S
C7 N6 1.373 . S
C7 H28 0.931 . S
H8 C3 0.931 . S
H9 C4 0.930 . S
C10 O17 1.259 . S
C10 O18 1.258 . S
N11 Co2 2.057 . S
N11 C12 1.316 . S
N11 C13 1.375 . S
C12 N11 1.316 . S
C12 N14 1.347 . S
C12 H23 0.931 . S
C13 N11 1.375 . S
C13 C15 1.350 . S
C13 H22 0.930 . S
N14 C12 1.347 . S
N14 C15 1.373 . S
C15 C13 1.350 . S
C15 N14 1.373 . S
C15 H29 0.931 . S
C16 O19 1.256 . S
C16 O20 1.255 . S
O17 Co0 2.021 . S
O17 C10 1.259 . S
O18 Co2 2.117 . S
O18 C10 1.258 . S
O19 Co2 2.020 . S
O19 C16 1.256 . S
O20 Co0 2.062 . S
O20 C16 1.255 . S
O21 C1 1.259 . S
O21 Co2 2.021 . S
H22 C13 0.930 . S
H23 C12 0.931 . S
O24 Co0 2.117 . S
O24 C1 1.258 . S
O25 Co0 2.020 . S
O25 C27 1.256 . S
O26 Co2 2.062 . S
O26 C27 1.255 . S
C27 O25 1.256 . S
C27 O26 1.255 . S
H28 C7 0.931 . S
H29 C15 0.931 . S
Co30 N35 2.057 . S
Co30 O47 2.021 . S
Co30 O50 2.062 . S
Co30 O54 2.117 . S
Co30 O55 2.020 . S
C31 O51 1.259 . S
C31 O54 1.258 . S
Co32 N41 2.057 . S
Co32 O48 2.117 . S
Co32 O49 2.020 . S
Co32 O51 2.021 . S
Co32 O56 2.062 . S
C33 N35 1.316 . S
C33 N36 1.347 . S
C33 H38 0.931 . S
C34 N35 1.375 . S
C34 C37 1.350 . S
C34 H39 0.930 . S
N35 Co30 2.057 . S
N35 C33 1.316 . S
N35 C34 1.375 . S
N36 C33 1.347 . S
N36 C37 1.373 . S
C37 C34 1.350 . S
C37 N36 1.373 . S
C37 H58 0.931 . S
H38 C33 0.931 . S
H39 C34 0.930 . S
C40 O47 1.259 . S
C40 O48 1.258 . S
N41 Co32 2.057 . S
N41 C42 1.316 . S
N41 C43 1.375 . S
C42 N41 1.316 . S
C42 N44 1.347 . S
C42 H53 0.931 . S
C43 N41 1.375 . S
C43 C45 1.350 . S
C43 H52 0.930 . S
N44 C42 1.347 . S
N44 C45 1.373 . S
C45 C43 1.350 . S
C45 N44 1.373 . S
C45 H59 0.931 . S
C46 O49 1.256 . S
C46 O50 1.255 . S
O47 Co30 2.021 . S
O47 C40 1.259 . S
O48 Co32 2.117 . S
O48 C40 1.258 . S
O49 Co32 2.020 . S
O49 C46 1.256 . S
O50 Co30 2.062 . S
O50 C46 1.255 . S
O51 C31 1.259 . S
O51 Co32 2.021 . S
H52 C43 0.930 . S
H53 C42 0.931 . S
O54 Co30 2.117 . S
O54 C31 1.258 . S
O55 Co30 2.020 . S
O55 C57 1.256 . S
O56 Co32 2.062 . S
O56 C57 1.255 . S
C57 O55 1.256 . S
C57 O56 1.255 . S
H58 C37 0.931 . S
H59 C45 0.931 . S
Co60 N65 2.057 . S
Co60 O77 2.021 . S
Co60 O80 2.062 . S
Co60 O84 2.117 . S
Co60 O85 2.020 1_556 S
C61 O81 1.259 . S
C61 O84 1.258 . S
Co62 N71 2.057 . S
Co62 O78 2.117 . S
Co62 O79 2.020 . S
Co62 O81 2.021 . S
Co62 O86 2.062 1_556 S
C63 N65 1.316 . S
C63 N66 1.347 . S
C63 H68 0.931 . S
C64 N65 1.375 . S
C64 C67 1.350 . S
C64 H69 0.930 . S
N65 Co60 2.057 . S
N65 C63 1.316 . S
N65 C64 1.375 . S
N66 C63 1.347 . S
N66 C67 1.373 . S
C67 C64 1.350 . S
C67 N66 1.373 . S
C67 H88 0.931 . S
H68 C63 0.931 . S
H69 C64 0.930 . S
C70 O77 1.259 . S
C70 O78 1.258 . S
N71 Co62 2.057 . S
N71 C72 1.316 1_556 S
N71 C73 1.375 . S
C72 N71 1.316 1_554 S
C72 N74 1.347 . S
C72 H83 0.931 . S
C73 N71 1.375 . S
C73 C75 1.350 1_556 S
C73 H82 0.930 . S
N74 C72 1.347 . S
N74 C75 1.373 . S
C75 C73 1.350 1_554 S
C75 N74 1.373 . S
C75 H89 0.931 . S
C76 O79 1.256 . S
C76 O80 1.255 . S
O77 Co60 2.021 . S
O77 C70 1.259 . S
O78 Co62 2.117 . S
O78 C70 1.258 . S
O79 Co62 2.020 . S
O79 C76 1.256 . S
O80 Co60 2.062 . S
O80 C76 1.255 . S
O81 C61 1.259 . S
O81 Co62 2.021 . S
H82 C73 0.930 . S
H83 C72 0.931 . S
O84 Co60 2.117 . S
O84 C61 1.258 . S
O85 Co60 2.020 1_554 S
O85 C87 1.256 . S
O86 Co62 2.062 1_554 S
O86 C87 1.255 . S
C87 O85 1.256 . S
C87 O86 1.255 . S
H88 C67 0.931 . S
H89 C75 0.931 . S
Co90 N95 2.057 . S
Co90 O107 2.021 . S
Co90 O110 2.062 . S
Co90 O114 2.117 . S
Co90 O115 2.020 1_554 S
C91 O111 1.259 . S
C91 O114 1.258 . S
Co92 N101 2.057 . S
Co92 O108 2.117 . S
Co92 O109 2.020 . S
Co92 O111 2.021 . S
Co92 O116 2.062 1_554 S
C93 N95 1.316 . S
C93 N96 1.347 . S
C93 H98 0.931 . S
C94 N95 1.375 . S
C94 C97 1.350 . S
C94 H99 0.930 . S
N95 Co90 2.057 . S
N95 C93 1.316 . S
N95 C94 1.375 . S
N96 C93 1.347 . S
N96 C97 1.373 . S
C97 C94 1.350 . S
C97 N96 1.373 . S
C97 H118 0.931 . S
H98 C93 0.931 . S
H99 C94 0.930 . S
C100 O107 1.259 . S
C100 O108 1.258 . S
N101 Co92 2.057 . S
N101 C102 1.316 1_554 S
N101 C103 1.375 . S
C102 N101 1.316 1_556 S
C102 N104 1.347 . S
C102 H113 0.931 . S
C103 N101 1.375 . S
C103 C105 1.350 . S
C103 H112 0.930 . S
N104 C102 1.347 . S
N104 C105 1.373 1_556 S
C105 C103 1.350 . S
C105 N104 1.373 1_554 S
C105 H119 0.931 . S
C106 O109 1.256 . S
C106 O110 1.255 . S
O107 Co90 2.021 . S
O107 C100 1.259 . S
O108 Co92 2.117 . S
O108 C100 1.258 . S
O109 Co92 2.020 . S
O109 C106 1.256 . S
O110 Co90 2.062 . S
O110 C106 1.255 . S
O111 C91 1.259 . S
O111 Co92 2.021 . S
H112 C103 0.930 . S
H113 C102 0.931 . S
O114 Co90 2.117 . S
O114 C91 1.258 . S
O115 Co90 2.020 1_556 S
O115 C117 1.256 . S
O116 Co92 2.062 1_556 S
O116 C117 1.255 . S
C117 O115 1.256 . S
C117 O116 1.255 . S
H118 C97 0.931 . S
H119 C105 0.931 . S
Co120 N125 2.057 . S
Co120 O137 2.021 . S
Co120 O140 2.062 . S
Co120 O144 2.117 . S
Co120 O145 2.020 . S
C121 O141 1.259 . S
C121 O144 1.258 . S
Co122 N131 2.057 . S
Co122 O138 2.117 . S
Co122 O139 2.020 . S
Co122 O141 2.021 . S
Co122 O146 2.062 . S
C123 N125 1.316 . S
C123 N126 1.347 . S
C123 H128 0.931 . S
C124 N125 1.375 . S
C124 C127 1.350 . S
C124 H129 0.930 . S
N125 Co120 2.057 . S
N125 C123 1.316 . S
N125 C124 1.375 . S
N126 C123 1.347 . S
N126 C127 1.373 . S
C127 C124 1.350 . S
C127 N126 1.373 . S
C127 H148 0.931 . S
H128 C123 0.931 . S
H129 C124 0.930 . S
C130 O137 1.259 . S
C130 O138 1.258 . S
N131 Co122 2.057 . S
N131 C132 1.316 . S
N131 C133 1.375 . S
C132 N131 1.316 . S
C132 N134 1.347 . S
C132 H143 0.931 . S
C133 N131 1.375 . S
C133 C135 1.350 . S
C133 H142 0.930 . S
N134 C132 1.347 . S
N134 C135 1.373 . S
C135 C133 1.350 . S
C135 N134 1.373 . S
C135 H149 0.931 . S
C136 O139 1.256 . S
C136 O140 1.255 . S
O137 Co120 2.021 . S
O137 C130 1.259 . S
O138 Co122 2.117 . S
O138 C130 1.258 . S
O139 Co122 2.020 . S
O139 C136 1.256 . S
O140 Co120 2.062 . S
O140 C136 1.255 . S
O141 C121 1.259 . S
O141 Co122 2.021 . S
H142 C133 0.930 . S
H143 C132 0.931 . S
O144 Co120 2.117 . S
O144 C121 1.258 . S
O145 Co120 2.020 . S
O145 C147 1.256 . S
O146 Co122 2.062 . S
O146 C147 1.255 . S
C147 O145 1.256 . S
C147 O146 1.255 . S
H148 C127 0.931 . S
H149 C135 0.931 . S
Co150 N155 2.057 . S
Co150 O167 2.021 . S
Co150 O170 2.062 . S
Co150 O174 2.117 . S
Co150 O175 2.020 . S
C151 O171 1.259 . S
C151 O174 1.258 . S
Co152 N161 2.057 . S
Co152 O168 2.117 . S
Co152 O169 2.020 . S
Co152 O171 2.021 . S
Co152 O176 2.062 . S
C153 N155 1.316 . S
C153 N156 1.347 . S
C153 H158 0.931 . S
C154 N155 1.375 . S
C154 C157 1.350 . S
C154 H159 0.930 . S
N155 Co150 2.057 . S
N155 C153 1.316 . S
N155 C154 1.375 . S
N156 C153 1.347 . S
N156 C157 1.373 . S
C157 C154 1.350 . S
C157 N156 1.373 . S
C157 H178 0.931 . S
H158 C153 0.931 . S
H159 C154 0.930 . S
C160 O167 1.259 . S
C160 O168 1.258 . S
N161 Co152 2.057 . S
N161 C162 1.316 . S
N161 C163 1.375 . S
C162 N161 1.316 . S
C162 N164 1.347 . S
C162 H173 0.931 . S
C163 N161 1.375 . S
C163 C165 1.350 . S
C163 H172 0.930 . S
N164 C162 1.347 . S
N164 C165 1.373 . S
C165 C163 1.350 . S
C165 N164 1.373 . S
C165 H179 0.931 . S
C166 O169 1.256 . S
C166 O170 1.255 . S
O167 Co150 2.021 . S
O167 C160 1.259 . S
O168 Co152 2.117 . S
O168 C160 1.258 . S
O169 Co152 2.020 . S
O169 C166 1.256 . S
O170 Co150 2.062 . S
O170 C166 1.255 . S
O171 C151 1.259 . S
O171 Co152 2.021 . S
H172 C163 0.930 . S
H173 C162 0.931 . S
O174 Co150 2.117 . S
O174 C151 1.258 . S
O175 Co150 2.020 . S
O175 C177 1.256 . S
O176 Co152 2.062 . S
O176 C177 1.255 . S
C177 O175 1.256 . S
C177 O176 1.255 . S
H178 C157 0.931 . S
H179 C165 0.931 . S
C180 C181 1.369 . S
C180 C182 1.419 . S
C180 H184 0.930 . S
C181 C180 1.369 . S
C181 C190 1.429 . S
C182 C180 1.419 . S
C182 C183 1.363 . S
C182 H185 0.929 . S
C183 C182 1.363 . S
C183 C189 1.428 . S
H184 C180 0.930 . S
H185 C182 0.929 . S
S186 N187 1.613 . S
S186 N188 1.610 . S
N187 S186 1.613 . S
N187 C190 1.350 . S
N188 S186 1.610 . S
N188 C189 1.351 . S
C189 C183 1.428 . S
C189 N188 1.351 . S
C189 C190 1.434 . S
C190 C181 1.429 . S
C190 N187 1.350 . S
C190 C189 1.434 . S
C191 C192 1.369 . S
C191 C193 1.419 . S
C191 H195 0.930 . S
C192 C191 1.369 . S
C192 C201 1.429 . S
C193 C191 1.419 . S
C193 C194 1.363 . S
C193 H196 0.929 . S
C194 C193 1.363 . S
C194 C200 1.428 . S
H195 C191 0.930 . S
H196 C193 0.929 . S
S197 N198 1.613 . S
S197 N199 1.610 . S
N198 S197 1.613 . S
N198 C201 1.350 . S
N199 S197 1.610 . S
N199 C200 1.351 . S
C200 C194 1.428 . S
C200 N199 1.351 . S
C200 C201 1.434 . S
C201 C192 1.429 . S
C201 N198 1.350 . S
C201 C200 1.434 . S
C202 C203 1.369 . S
C202 C204 1.419 . S
C202 H206 0.930 . S
C203 C202 1.369 . S
C203 C212 1.429 . S
C204 C202 1.419 . S
C204 C205 1.363 . S
C204 H207 0.929 . S
C205 C204 1.363 . S
C205 C211 1.428 . S
H206 C202 0.930 . S
H207 C204 0.929 . S
S208 N209 1.613 . S
S208 N210 1.610 . S
N209 S208 1.613 . S
N209 C212 1.350 . S
N210 S208 1.610 . S
N210 C211 1.351 . S
C211 C205 1.428 . S
C211 N210 1.351 . S
C211 C212 1.434 . S
C212 C203 1.429 . S
C212 N209 1.350 . S
C212 C211 1.434 . S
C213 C214 1.369 . S
C213 C215 1.419 . S
C213 H217 0.930 . S
C214 C213 1.369 . S
C214 C223 1.429 . S
C215 C213 1.419 . S
C215 C216 1.363 . S
C215 H218 0.929 . S
C216 C215 1.363 . S
C216 C222 1.428 . S
H217 C213 0.930 . S
H218 C215 0.929 . S
S219 N220 1.613 . S
S219 N221 1.610 . S
N220 S219 1.613 . S
N220 C223 1.350 . S
N221 S219 1.610 . S
N221 C222 1.351 . S
C222 C216 1.428 . S
C222 N221 1.351 . S
C222 C223 1.434 . S
C223 C214 1.429 . S
C223 N220 1.350 . S
C223 C222 1.434 . S
C224 C225 1.369 . S
C224 C226 1.419 . S
C224 H228 0.930 . S
C225 C224 1.369 . S
C225 C234 1.429 . S
C226 C224 1.419 . S
C226 C227 1.363 . S
C226 H229 0.929 . S
C227 C226 1.363 . S
C227 C233 1.428 . S
H228 C224 0.930 . S
H229 C226 0.929 . S
S230 N231 1.613 . S
S230 N232 1.610 . S
N231 S230 1.613 . S
N231 C234 1.350 . S
N232 S230 1.610 . S
N232 C233 1.351 . S
C233 C227 1.428 . S
C233 N232 1.351 . S
C233 C234 1.434 . S
C234 C225 1.429 . S
C234 N231 1.350 . S
C234 C233 1.434 . S
C235 C236 1.369 1_556 S
C235 C237 1.419 . S
C235 H239 0.930 . S
C236 C235 1.369 1_554 S
C236 C245 1.429 1_554 S
C237 C235 1.419 . S
C237 C238 1.363 . S
C237 H240 0.929 . S
C238 C237 1.363 . S
C238 C244 1.428 . S
H239 C235 0.930 . S
H240 C237 0.929 . S
S241 N242 1.613 . S
S241 N243 1.610 . S
N242 S241 1.613 . S
N242 C245 1.350 . S
N243 S241 1.610 . S
N243 C244 1.351 . S
C244 C238 1.428 . S
C244 N243 1.351 . S
C244 C245 1.434 . S
C245 C236 1.429 1_556 S
C245 N242 1.350 . S
C245 C244 1.434 . S
C246 C247 1.369 1_565 S
C246 C248 1.419 . S
C246 H250 0.930 . S
C247 C246 1.369 1_545 S
C247 C256 1.429 . S
C248 C246 1.419 . S
C248 C249 1.363 . S
C248 H251 0.929 . S
C249 C248 1.363 . S
C249 C255 1.428 . S
H250 C246 0.930 . S
H251 C248 0.929 . S
S252 N253 1.613 . S
S252 N254 1.610 1_545 S
N253 S252 1.613 . S
N253 C256 1.350 . S
N254 S252 1.610 1_565 S
N254 C255 1.351 . S
C255 C249 1.428 . S
C255 N254 1.351 . S
C255 C256 1.434 1_565 S
C256 C247 1.429 . S
C256 N253 1.350 . S
C256 C255 1.434 1_545 S
C257 C258 1.369 . S
C257 C259 1.419 . S
C257 H261 0.930 . S
C258 C257 1.369 . S
C258 C267 1.429 . S
C259 C257 1.419 . S
C259 C260 1.363 . S
C259 H262 0.929 . S
C260 C259 1.363 . S
C260 C266 1.428 . S
H261 C257 0.930 . S
H262 C259 0.929 . S
S263 N264 1.613 . S
S263 N265 1.610 . S
N264 S263 1.613 . S
N264 C267 1.350 . S
N265 S263 1.610 . S
N265 C266 1.351 . S
C266 C260 1.428 . S
C266 N265 1.351 . S
C266 C267 1.434 . S
C267 C258 1.429 . S
C267 N264 1.350 . S
C267 C266 1.434 . S
C268 C269 1.369 . S
C268 C270 1.419 . S
C268 H272 0.930 . S
C269 C268 1.369 . S
C269 C278 1.429 . S
C270 C268 1.419 . S
C270 C271 1.363 1_655 S
C270 H273 0.929 . S
C271 C270 1.363 1_455 S
C271 C277 1.428 . S
H272 C268 0.930 . S
H273 C270 0.929 . S
S274 N275 1.613 1_455 S
S274 N276 1.610 1_554 S
N275 S274 1.613 1_655 S
N275 C278 1.350 1_554 S
N276 S274 1.610 1_556 S
N276 C277 1.351 . S
C277 C271 1.428 . S
C277 N276 1.351 . S
C277 C278 1.434 1_455 S
C278 C269 1.429 . S
C278 N275 1.350 1_556 S
C278 C277 1.434 1_655 S
C279 C280 1.369 . S
C279 C281 1.419 1_565 S
C279 H283 0.930 . S
C280 C279 1.369 . S
C280 C289 1.429 1_554 S
C281 C279 1.419 1_545 S
C281 C282 1.363 1_554 S
C281 H284 0.929 . S
C282 C281 1.363 1_556 S
C282 C288 1.428 1_545 S
H283 C279 0.930 . S
H284 C281 0.929 . S
S285 N286 1.613 . S
S285 N287 1.610 . S
N286 S285 1.613 . S
N286 C289 1.350 . S
N287 S285 1.610 . S
N287 C288 1.351 . S
C288 C282 1.428 1_565 S
C288 N287 1.351 . S
C288 C289 1.434 . S
C289 C280 1.429 1_556 S
C289 N286 1.350 . S
C289 C288 1.434 . S
C290 C291 1.369 . S
C290 C292 1.419 . S
C290 H294 0.930 . S
C291 C290 1.369 . S
C291 C300 1.429 . S
C292 C290 1.419 . S
C292 C293 1.363 . S
C292 H295 0.929 . S
C293 C292 1.363 . S
C293 C299 1.428 . S
H294 C290 0.930 . S
H295 C292 0.929 . S
S296 N297 1.613 . S
S296 N298 1.610 . S
N297 S296 1.613 . S
N297 C300 1.350 . S
N298 S296 1.610 . S
N298 C299 1.351 . S
C299 C293 1.428 . S
C299 N298 1.351 . S
C299 C300 1.434 . S
C300 C291 1.429 . S
C300 N297 1.350 . S
C300 C299 1.434 . S
C301 C302 1.369 . S
C301 C303 1.405 1_655 S
C301 H305 0.930 . S
C302 C301 1.369 . S
C302 C311 1.429 . S
C303 C301 1.405 1_455 S
C303 C304 1.379 . S
C303 H306 0.927 . S
C304 C303 1.379 . S
C304 C310 1.428 . S
H305 C301 0.930 . S
H306 C303 0.927 . S
S307 N308 1.613 . S
S307 N309 1.610 1_655 S
N308 S307 1.613 . S
N308 C311 1.350 . S
N309 S307 1.610 1_455 S
N309 C310 1.351 . S
C310 C304 1.428 . S
C310 N309 1.351 . S
C310 C311 1.434 1_455 S
C311 C302 1.429 . S
C311 N308 1.350 . S
C311 C310 1.434 1_655 S
C312 C313 1.369 . S
C312 C314 1.419 . S
C312 H316 0.930 . S
C313 C312 1.369 . S
C313 C322 1.429 . S
C314 C312 1.419 . S
C314 C315 1.363 . S
C314 H317 0.929 . S
C315 C314 1.363 . S
C315 C321 1.428 . S
H316 C312 0.930 . S
H317 C314 0.929 . S
S318 N319 1.613 . S
S318 N320 1.610 . S
N319 S318 1.613 . S
N319 C322 1.350 . S
N320 S318 1.610 . S
N320 C321 1.351 . S
C321 C315 1.428 . S
C321 N320 1.351 . S
C321 C322 1.434 . S
C322 C313 1.429 . S
C322 N319 1.350 . S
C322 C321 1.434 . S
C323 C324 1.369 . S
C323 C325 1.419 . S
C323 H327 0.930 . S
C324 C323 1.369 . S
C324 C333 1.429 . S
C325 C323 1.419 . S
C325 C326 1.363 . S
C325 H328 0.929 . S
C326 C325 1.363 . S
C326 C332 1.428 . S
H327 C323 0.930 . S
H328 C325 0.929 . S
S329 N330 1.613 . S
S329 N331 1.610 . S
N330 S329 1.613 . S
N330 C333 1.350 . S
N331 S329 1.610 . S
N331 C332 1.351 . S
C332 C326 1.428 . S
C332 N331 1.351 . S
C332 C333 1.434 . S
C333 C324 1.429 . S
C333 N330 1.350 . S
C333 C332 1.434 . S
C334 C335 1.369 . S
C334 C336 1.419 . S
C334 H338 0.930 . S
C335 C334 1.369 . S
C335 C344 1.429 . S
C336 C334 1.419 . S
C336 C337 1.363 . S
C336 H339 0.929 . S
C337 C336 1.363 . S
C337 C343 1.428 . S
H338 C334 0.930 . S
H339 C336 0.929 . S
S340 N341 1.613 . S
S340 N342 1.610 . S
N341 S340 1.613 . S
N341 C344 1.350 . S
N342 S340 1.610 . S
N342 C343 1.351 . S
C343 C337 1.428 . S
C343 N342 1.351 . S
C343 C344 1.434 . S
C344 C335 1.429 . S
C344 N341 1.350 . S
C344 C343 1.434 . S
C345 C346 1.369 . S
C345 C347 1.419 . S
C345 H349 0.930 1_556 S
C346 C345 1.369 . S
C346 C355 1.429 . S
C347 C345 1.419 . S
C347 C348 1.363 . S
C347 H350 0.929 . S
C348 C347 1.363 . S
C348 C354 1.428 . S
H349 C345 0.930 1_554 S
H350 C347 0.929 . S
S351 N352 1.613 . S
S351 N353 1.610 . S
N352 S351 1.613 . S
N352 C355 1.350 . S
N353 S351 1.610 . S
N353 C354 1.351 . S
C354 C348 1.428 . S
C354 N353 1.351 . S
C354 C355 1.434 . S
C355 C346 1.429 . S
C355 N352 1.350 . S
C355 C354 1.434 . S
C356 C357 1.369 . S
C356 C358 1.419 . S
C356 H360 0.930 . S
C357 C356 1.369 . S
C357 C366 1.429 . S
C358 C356 1.419 . S
C358 C359 1.363 . S
C358 H361 0.929 . S
C359 C358 1.363 . S
C359 C365 1.428 . S
H360 C356 0.930 . S
H361 C358 0.929 . S
S362 N363 1.613 1_556 S
S362 N364 1.610 . S
N363 S362 1.613 1_554 S
N363 C366 1.350 . S
N364 S362 1.610 . S
N364 C365 1.351 1_556 S
C365 C359 1.428 . S
C365 N364 1.351 1_554 S
C365 C366 1.434 . S
C366 C357 1.429 . S
C366 N363 1.350 . S
C366 C365 1.434 . S
C367 C368 1.369 . S
C367 C369 1.419 . S
C367 H371 0.930 . S
C368 C367 1.369 . S
C368 C377 1.429 . S
C369 C367 1.419 . S
C369 C370 1.363 . S
C369 H372 0.929 . S
C370 C369 1.363 . S
C370 C376 1.428 . S
H371 C367 0.930 . S
H372 C369 0.929 . S
S373 N374 1.613 . S
S373 N375 1.610 1_556 S
N374 S373 1.613 . S
N374 C377 1.350 1_556 S
N375 S373 1.610 1_554 S
N375 C376 1.351 . S
C376 C370 1.428 . S
C376 N375 1.351 . S
C376 C377 1.434 . S
C377 C368 1.429 . S
C377 N374 1.350 1_554 S
C377 C376 1.434 . S
C181 C16 1.118 . S
C183 C27 1.119 1_554 S
C192 C57 1.119 . S
C194 C46 1.119 1_554 S
C203 C87 1.118 . S
C205 C76 1.119 . S
C214 C106 1.119 . S
C216 C117 1.119 . S
C225 C147 1.118 . S
C227 C136 1.119 1_556 S
C236 C177 1.119 . S
C238 C166 1.119 . S
C247 C1 2.000 . S
C249 C151 2.004 . S
C258 N6 1.690 . S
C260 N36 1.680 . S
C269 C61 2.005 . S
C271 C31 1.999 . S
C280 N96 1.683 . S
C282 N66 1.686 . S
C291 C121 1.997 . S
C293 C91 2.001 . S
C302 N126 1.683 . S
C304 N156 1.686 . S
C313 C10 1.990 . S
C315 N134 1.777 . S
C324 N44 1.775 . S
C326 C160 1.988 . S
C335 C70 1.990 . S
C337 N14 1.777 . S
C346 N104 1.782 . S
C348 C40 1.988 . S
C357 C130 1.985 . S
C359 N74 1.780 . S
C368 C100 1.989 . S
C370 N164 1.781 . S
