# Generated by pormake.
# Topology snk, (6)-cn, num edge types: 1
# Building blocks:
#     Node 0, Type 0, BuildingBlock: BETDAH_clean_sbu_0, # of connection points: 6
#     Node 1, Type 0, BuildingBlock: BETDAH_clean_sbu_0, # of connection points: 6
#     Node 2, Type 0, BuildingBlock: BETDAH_clean_sbu_0, # of connection points: 6
#     Node 3, Type 0, BuildingBlock: BETDAH_clean_sbu_0, # of connection points: 6
#     Node 4, Type 0, BuildingBlock: BETDAH_clean_sbu_0, # of connection points: 6
#     Node 5, Type 0, BuildingBlock: BETDAH_clean_sbu_0, # of connection points: 6
#     Node 6, Type 0, BuildingBlock: BETDAH_clean_sbu_0, # of connection points: 6
#     Node 7, Type 0, BuildingBlock: BETDAH_clean_sbu_0, # of connection points: 6
#     Edge 8, Type (0, 0), BuildingBlock: MIFKUJ_clean_linker_0, # of connection points: 2
#     Edge 9, Type (0, 0), BuildingBlock: MIFKUJ_clean_linker_0, # of connection points: 2
#     Edge 10, Type (0, 0), BuildingBlock: MIFKUJ_clean_linker_0, # of connection points: 2
#     Edge 11, Type (0, 0), BuildingBlock: MIFKUJ_clean_linker_0, # of connection points: 2
#     Edge 12, Type (0, 0), BuildingBlock: MIFKUJ_clean_linker_0, # of connection points: 2
#     Edge 13, Type (0, 0), BuildingBlock: MIFKUJ_clean_linker_0, # of connection points: 2
#     Edge 14, Type (0, 0), BuildingBlock: MIFKUJ_clean_linker_0, # of connection points: 2
#     Edge 15, Type (0, 0), BuildingBlock: MIFKUJ_clean_linker_0, # of connection points: 2
#     Edge 16, Type (0, 0), BuildingBlock: MIFKUJ_clean_linker_0, # of connection points: 2
#     Edge 17, Type (0, 0), BuildingBlock: MIFKUJ_clean_linker_0, # of connection points: 2
#     Edge 18, Type (0, 0), BuildingBlock: MIFKUJ_clean_linker_0, # of connection points: 2
#     Edge 19, Type (0, 0), BuildingBlock: MIFKUJ_clean_linker_0, # of connection points: 2
#     Edge 20, Type (0, 0), BuildingBlock: MIFKUJ_clean_linker_0, # of connection points: 2
#     Edge 21, Type (0, 0), BuildingBlock: MIFKUJ_clean_linker_0, # of connection points: 2
#     Edge 22, Type (0, 0), BuildingBlock: MIFKUJ_clean_linker_0, # of connection points: 2
#     Edge 23, Type (0, 0), BuildingBlock: MIFKUJ_clean_linker_0, # of connection points: 2
#     Edge 24, Type (0, 0), BuildingBlock: MIFKUJ_clean_linker_0, # of connection points: 2
#     Edge 25, Type (0, 0), BuildingBlock: MIFKUJ_clean_linker_0, # of connection points: 2
#     Edge 26, Type (0, 0), BuildingBlock: MIFKUJ_clean_linker_0, # of connection points: 2
#     Edge 27, Type (0, 0), BuildingBlock: MIFKUJ_clean_linker_0, # of connection points: 2
#     Edge 28, Type (0, 0), BuildingBlock: MIFKUJ_clean_linker_0, # of connection points: 2
#     Edge 29, Type (0, 0), BuildingBlock: MIFKUJ_clean_linker_0, # of connection points: 2
#     Edge 30, Type (0, 0), BuildingBlock: MIFKUJ_clean_linker_0, # of connection points: 2
#     Edge 31, Type (0, 0), BuildingBlock: MIFKUJ_clean_linker_0, # of connection points: 2
# Relax obj value: 0.075
# Max RMSD: 0.131
# Mean RMSD: 0.116
data_MOF--net-snk--node1-BETDAH_clean_sbu_0--edge1-MIFKUJ_clean_linker_0
_symmetry_space_group_name_H-M    P1
_symmetry_Int_Tables_number       1
_symmetry_cell_setting            triclinic
loop_
_symmetry_equiv_pos_as_xyz
'x, y, z'
_cell_length_a     49.883531
_cell_length_b     49.864858
_cell_length_c     30.047722
_cell_angle_alpha  83.346407
_cell_angle_beta   96.665686
_cell_angle_gamma 89.103779
loop_
_atom_site_label
_atom_site_type_symbol
_atom_site_fract_x
_atom_site_fract_y
_atom_site_fract_z
_atom_type_partial_charge
Ho0 Ho 0.98947 0.01331 0.49058 0.0
Ho1 Ho 0.01689 0.01975 0.58883 0.0
C2 C 0.0407 0.05038 0.50489 0.0
C3 C 0.96029 0.01521 0.4133 0.0
C4 C 0.96518 0.01667 0.36552 0.0
C5 C 0.94622 0.02997 0.33171 0.0
C6 C 0.95019 0.0309 0.28616 0.0
C7 C 0.97326 0.01852 0.27345 0.0
C8 C 0.99241 0.00555 0.30763 0.0
C9 C 0.98845 1.0047 0.35315 0.0
C10 C 0.03673 0.98563 0.5158 0.0
C11 C 0.96508 0.98135 0.57683 0.0
C12 C 0.03932 0.0141 0.67202 0.0
C13 C 0.03137 0.01299 0.71799 0.0
C14 C 0.04874 1.00003 0.75439 0.0
C15 C 0.04257 1.00002 0.79863 0.0
C16 C 0.01886 0.01308 0.80752 0.0
C17 C 1.00113 0.02553 0.77072 0.0
C18 C 0.00732 0.02547 0.72637 0.0
C19 C 0.97939 0.05785 0.5507 0.0
O20 O 0.01642 0.04884 0.48224 0.0
O21 O 0.04773 0.03601 0.54464 0.0
O22 O 0.96791 0.99262 0.43886 0.0
O23 O 0.96611 0.03673 0.43344 0.0
O24 O 0.0277 0.99358 0.47411 0.0
O25 O 0.01899 0.99012 0.54065 0.0
O26 O 0.98322 0.99213 0.60484 0.0
O27 O 0.96307 0.9871 0.53231 0.0
O28 O 0.03564 0.03729 0.64676 0.0
O29 O 0.03269 0.99379 0.64965 0.0
O30 O 1.00026 0.06289 0.57794 0.0
O31 O 0.97895 0.03306 0.54765 0.0
H32 H 0.92824 0.03955 0.34054 0.0
H33 H 0.93524 0.04148 0.26092 0.0
H34 H 0.01026 0.99554 0.29924 0.0
H35 H 1.00346 0.99442 0.37864 0.0
H36 H 0.06732 0.99015 0.74862 0.0
H37 H 0.05643 0.98976 0.82592 0.0
H38 H 0.9828 0.03594 0.77621 0.0
H39 H 0.99358 0.03556 0.69871 0.0
Ho40 Ho 0.24698 0.74625 0.80966 0.0
Ho41 Ho 0.26381 0.77216 0.7194 0.0
C42 C 0.2867 0.79779 0.80748 0.0
C43 C 0.24326 0.72457 0.89111 0.0
C44 C 0.24349 0.73245 0.93711 0.0
C45 C 0.26729 0.73995 0.9618 0.0
C46 C 0.26728 0.74516 1.00658 0.0
C47 C 0.24344 0.74316 0.02755 0.0
C48 C 0.21948 0.73657 1.00207 0.0
C49 C 0.21958 0.73105 0.95761 0.0
C50 C 0.21339 0.78501 0.76246 0.0
C51 C 0.2257 0.71917 0.7225 0.0
C52 C 0.26423 0.7947 0.63772 0.0
C53 C 0.26115 0.78675 0.59157 0.0
C54 C 0.23628 0.77867 0.571 0.0
C55 C 0.23342 0.7738 0.52575 0.0
C56 C 0.25548 0.77648 0.50038 0.0
C57 C 0.2806 0.7833 0.52194 0.0
C58 C 0.28329 0.78868 0.56673 0.0
C59 C 0.29844 0.73439 0.76559 0.0
O60 O 0.27865 0.77589 0.83119 0.0
O61 O 0.27938 0.80315 0.76352 0.0
O62 O 0.22242 0.73312 0.8622 0.0
O63 O 0.26594 0.72546 0.87303 0.0
O64 O 0.20503 0.76376 0.78513 0.0
O65 O 0.23862 0.78511 0.76782 0.0
O66 O 0.23404 0.74064 0.69805 0.0
O67 O 0.23206 0.71469 0.76671 0.0
O68 O 0.28608 0.78565 0.66386 0.0
O69 O 0.24274 0.7943 0.65904 0.0
O70 O 0.3059 0.75513 0.74029 0.0
O71 O 0.27311 0.73345 0.76192 0.0
H72 H 0.28605 0.74127 0.94692 0.0
H73 H 0.28619 0.74994 0.02509 0.0
H74 H 0.20057 0.73551 0.01648 0.0
H75 H 0.20092 0.72534 0.93936 0.0
H76 H 0.21877 0.77702 0.58925 0.0
H77 H 0.21369 0.76883 0.5104 0.0
H78 H 0.29829 0.78475 0.50415 0.0
H79 H 0.30272 0.79472 0.58183 0.0
Ho80 Ho 0.52063 0.99604 0.05941 0.0
Ho81 Ho 0.49652 0.01758 0.96263 0.0
C82 C 0.47156 0.04187 0.04261 0.0
C83 C 0.54233 0.99214 0.14254 0.0
C84 C 0.53515 0.99818 0.18678 0.0
C85 C 0.55308 0.01271 0.21369 0.0
C86 C 0.54787 0.01706 0.25706 0.0
C87 C 0.52462 0.00684 0.27464 0.0
C88 C 0.50616 0.99311 0.24692 0.0
C89 C 0.51136 0.98885 0.20343 0.0
C90 C 0.48004 0.96722 0.02339 0.0
C91 C 0.54571 0.97155 0.97942 0.0
C92 C 0.47426 0.02294 0.87966 0.0
C93 C 0.48057 0.01974 0.83368 0.0
C94 C 0.46206 0.00682 0.80514 0.0
C95 C 0.46634 1.00507 0.76039 0.0
C96 C 0.4892 0.01636 0.74302 0.0
C97 C 0.50812 0.02871 0.77211 0.0
C98 C 0.50386 0.03037 0.81702 0.0
C99 C 0.53722 0.04604 0.99952 0.0
O100 O 0.49266 0.03058 0.06955 0.0
O101 O 0.46628 0.03644 1.00042 0.0
O102 O 0.52991 0.97238 0.12449 0.0
O103 O 0.54535 0.0129 0.11291 0.0
O104 O 0.50011 0.95668 0.05166 0.0
O105 O 0.48135 0.99259 0.01857 0.0
O106 O 0.52527 0.98377 0.95186 0.0
O107 O 0.55032 0.97591 0.02228 0.0
O108 O 0.48555 0.0427 0.89934 0.0
O109 O 0.47338 1.0008 0.90736 0.0
O110 O 0.51701 0.05697 0.972 0.0
O111 O 0.53567 0.02076 1.00332 0.0
H112 H 0.57142 0.02035 0.20141 0.0
H113 H 0.56221 0.02826 0.27698 0.0
H114 H 0.48812 0.98485 0.25933 0.0
H115 H 0.49703 0.97775 0.18327 0.0
H116 H 0.44401 0.99837 0.81732 0.0
H117 H 0.45162 0.99492 0.73934 0.0
H118 H 0.52586 0.03779 0.75988 0.0
H119 H 0.51852 0.04039 0.83838 0.0
Ho120 Ho 0.24198 0.26208 0.21508 0.0
Ho121 Ho 0.26867 0.24294 0.3109 0.0
C122 C 0.28782 0.2129 0.2316 0.0
C123 C 0.23151 0.27937 0.13008 0.0
C124 C 0.23603 0.27154 0.08555 0.0
C125 C 0.26197 0.26548 0.07475 0.0
C126 C 0.26556 0.25999 0.03109 0.0
C127 C 0.2433 0.26026 0.99771 0.0
C128 C 0.21736 0.26555 1.00906 0.0
C129 C 0.2138 0.27125 0.05244 0.0
C130 C 0.21403 0.22619 0.26388 0.0
C131 C 0.2234 0.29266 0.29385 0.0
C132 C 0.27868 0.22553 0.39593 0.0
C133 C 0.27225 0.23235 0.44023 0.0
C134 C 0.24579 0.23151 0.45216 0.0
C135 C 0.24078 0.23606 0.49565 0.0
C136 C 0.26208 0.24168 0.52792 0.0
C137 C 0.28839 0.24304 0.51549 0.0
C138 C 0.2934 0.23833 0.47225 0.0
C139 C 0.29679 0.27859 0.26209 0.0
O140 O 0.27351 0.23144 0.20295 0.0
O141 O 0.28713 0.21126 0.27574 0.0
O142 O 0.21515 0.26447 0.15265 0.0
O143 O 0.25241 0.28675 0.15587 0.0
O144 O 0.20291 0.24571 0.23509 0.0
O145 O 0.23928 0.22558 0.26329 0.0
O146 O 0.23717 0.27383 0.3227 0.0
O147 O 0.22433 0.29432 0.24983 0.0
O148 O 0.29422 0.24206 0.37446 0.0
O149 O 0.25921 0.21659 0.36897 0.0
O150 O 0.30779 0.259 0.29093 0.0
O151 O 0.27152 0.27941 0.26271 0.0
H152 H 0.27948 0.26538 0.09974 0.0
H153 H 0.28574 0.25576 0.02328 0.0
H154 H 0.19986 0.26612 0.98393 0.0
H155 H 0.19364 0.27594 0.05995 0.0
H156 H 0.22901 0.22694 0.42824 0.0
H157 H 0.22026 0.23507 0.50408 0.0
H158 H 0.30531 0.24691 0.53969 0.0
H159 H 0.314 0.23884 0.46408 0.0
Ho160 Ho 0.76306 0.23749 0.30048 0.0
Ho161 Ho 0.7649 0.26779 0.20495 0.0
C162 C 0.79792 0.29199 0.28632 0.0
C163 C 0.77262 0.21374 0.38253 0.0
C164 C 0.77326 0.22117 0.42902 0.0
C165 C 0.79242 0.20869 0.46334 0.0
C166 C 0.79211 0.21388 0.50816 0.0
C167 C 0.7725 0.23165 0.51982 0.0
C168 C 0.7537 0.24461 0.48502 0.0
C169 C 0.75412 0.23949 0.44018 0.0
C170 C 0.72354 0.27532 0.27234 0.0
C171 C 0.72977 0.21349 0.21938 0.0
C172 C 0.75535 0.29147 0.12287 0.0
C173 C 0.75443 0.28395 0.07641 0.0
C174 C 0.73528 0.29659 0.04223 0.0
C175 C 0.73529 0.29126 0.99743 0.0
C176 C 0.75458 0.27321 0.98565 0.0
C177 C 0.77338 0.2601 0.02032 0.0
C178 C 0.77325 0.26535 0.06514 0.0
C179 C 0.80443 0.22992 0.23317 0.0
O180 O 0.79588 0.26806 0.30984 0.0
O181 O 0.78294 0.29885 0.24714 0.0
O182 O 0.74898 0.21482 0.35845 0.0
O183 O 0.79169 0.22297 0.35895 0.0
O184 O 0.72031 0.25353 0.29873 0.0
O185 O 0.74776 0.27697 0.26544 0.0
O186 O 0.73188 0.23741 0.19584 0.0
O187 O 0.7449 0.20651 0.25835 0.0
O188 O 0.77906 0.29016 0.14677 0.0
O189 O 0.73627 0.2825 0.14662 0.0
O190 O 0.80771 0.25181 0.20706 0.0
O191 O 0.78017 0.22833 0.23989 0.0
H192 H 0.80744 0.19456 0.45557 0.0
H193 H 0.80725 0.2039 0.53369 0.0
H194 H 0.73812 0.25817 0.4925 0.0
H195 H 0.73911 0.24947 0.41439 0.0
H196 H 0.7205 0.31093 0.0501 0.0
H197 H 0.72016 0.30136 0.97201 0.0
H198 H 0.78874 0.24632 1.01273 0.0
H199 H 0.78825 0.25525 0.09084 0.0
Ho200 Ho 0.74537 0.76541 0.71482 0.0
Ho201 Ho 0.76707 0.74034 0.81104 0.0
C202 C 0.78884 0.71403 0.72999 0.0
C203 C 0.74025 0.78706 0.63151 0.0
C204 C 0.74316 0.77958 0.58595 0.0
C205 C 0.76362 0.79103 0.56213 0.0
C206 C 0.76566 0.78578 0.5179 0.0
C207 C 0.74713 0.76911 0.49628 0.0
C208 C 0.72686 0.75735 0.52034 0.0
C209 C 0.72489 0.76249 0.56468 0.0
C210 C 0.7152 0.72663 0.75235 0.0
C211 C 0.72394 0.792 0.79591 0.0
C212 C 0.7712 0.71832 0.89401 0.0
C213 C 0.76764 0.72593 0.93925 0.0
C214 C 0.74678 0.71464 0.96229 0.0
C215 C 0.74409 0.72012 1.00621 0.0
C216 C 0.76237 0.73685 0.02827 0.0
C217 C 0.78299 0.74849 1.00493 0.0
C218 C 0.7856 0.74312 0.96092 0.0
C219 C 0.79733 0.77931 0.7741 0.0
O220 O 0.77752 0.73512 0.70297 0.0
O221 O 0.78464 0.70954 0.7729 0.0
O222 O 0.72019 0.77693 0.65176 0.0
O223 O 0.76245 0.78775 0.65917 0.0
O224 O 0.70514 0.74726 0.72497 0.0
O225 O 0.74058 0.72657 0.75564 0.0
O226 O 0.73533 0.77098 0.82304 0.0
O227 O 0.72792 0.79634 0.75287 0.0
O228 O 0.79159 0.72839 0.87458 0.0
O229 O 0.74931 0.71764 0.86559 0.0
O230 O 0.80728 0.75888 0.80216 0.0
O231 O 0.77193 0.77921 0.77025 0.0
H232 H 0.77779 0.80451 0.57747 0.0
H233 H 0.7813 0.79544 0.50017 0.0
H234 H 0.71244 0.74418 0.50483 0.0
H235 H 0.70883 0.75336 0.58199 0.0
H236 H 0.7328 0.70113 0.94661 0.0
H237 H 0.72817 0.71058 0.02338 0.0
H238 H 0.79719 0.76173 0.02076 0.0
H239 H 0.80191 0.75217 0.9442 0.0
Ho240 Ho 0.49479 0.493 0.95701 0.0
Ho241 Ho 0.52458 0.50097 0.05176 0.0
C242 C 0.54796 0.5304 0.96546 0.0
C243 C 0.46999 0.49771 0.87558 0.0
C244 C 0.47604 0.49856 0.82835 0.0
C245 C 0.49638 0.51461 0.81155 0.0
C246 C 0.50112 0.51519 0.7663 0.0
C247 C 0.48573 0.49962 0.73696 0.0
C248 C 0.46561 0.48339 0.7543 0.0
C249 C 0.46079 0.48298 0.7993 0.0
C250 C 0.53362 0.45583 0.99231 0.0
C251 C 0.47098 0.46444 0.04306 0.0
C252 C 0.54934 0.4954 0.1332 0.0
C253 C 0.54292 0.49449 0.18025 0.0
C254 C 0.52271 0.47813 0.1968 0.0
C255 C 0.51747 0.47775 0.24178 0.0
C256 C 0.53227 0.49376 0.27111 0.0
C257 C 0.55229 0.51025 0.25406 0.0
C258 C 0.55757 0.51052 0.20932 0.0
C259 C 0.48551 0.53806 0.01766 0.0
O260 O 0.52509 0.52505 0.94132 0.0
O261 O 0.55446 0.51923 1.00763 0.0
O262 O 0.47475 0.47459 0.90087 0.0
O263 O 0.47674 0.51839 0.89727 0.0
O264 O 0.51215 0.45033 0.96686 0.0
O265 O 0.5343 0.48072 0.99469 0.0
O266 O 0.49442 0.46853 0.06663 0.0
O267 O 0.46428 0.47657 1.00155 0.0
O268 O 0.5451 0.51868 0.10824 0.0
O269 O 0.5424 0.47498 0.11099 0.0
O270 O 0.50633 0.5432 0.04489 0.0
O271 O 0.48514 0.51331 0.01406 0.0
H272 H 0.50844 0.52687 0.8332 0.0
H273 H 0.51658 0.52818 0.7542 0.0
H274 H 0.45369 0.47069 0.73324 0.0
H275 H 0.44507 0.47035 0.81152 0.0
H276 H 0.51101 0.46559 0.1751 0.0
H277 H 0.50211 0.4646 0.25372 0.0
H278 H 0.56375 0.52326 0.27514 0.0
H279 H 0.57316 0.5234 0.19731 0.0
Ho280 Ho 0.01932 0.493 0.55914 0.0
Ho281 Ho 0.99706 0.51755 0.46379 0.0
C282 C 0.96857 0.53723 0.54409 0.0
C283 C 0.03948 0.48449 0.64321 0.0
C284 C 0.03236 0.48744 0.68897 0.0
C285 C 0.02831 0.51295 0.70318 0.0
C286 C 0.02421 0.51521 0.74798 0.0
C287 C 0.02361 0.492 0.77923 0.0
C288 C 0.02684 0.46651 0.76461 0.0
C289 C 0.03138 0.46428 0.72009 0.0
C290 C 0.98168 0.46391 0.51579 0.0
C291 C 0.04617 0.47214 0.47899 0.0
C292 C 0.97916 0.52667 0.37875 0.0
C293 C 0.98657 0.52005 0.3348 0.0
C294 C 0.98571 0.49356 0.3229 0.0
C295 C 0.99134 0.48834 0.28 0.0
C296 C 0.99804 0.50944 0.24823 0.0
C297 C 0.99929 0.53578 0.26059 0.0
C298 C 0.99353 0.54101 0.30323 0.0
C299 C 0.0344 0.54667 0.50778 0.0
O300 O 0.98862 0.52448 0.57184 0.0
O301 O 0.96548 0.53509 0.50027 0.0
O302 O 0.02677 0.46622 0.62166 0.0
O303 O 0.04323 0.50651 0.61666 0.0
O304 O 1.00204 0.45328 0.54328 0.0
O305 O 0.98136 0.48924 0.51488 0.0
O306 O 0.02495 0.48333 0.45233 0.0
O307 O 0.05107 0.47676 0.52157 0.0
O308 O 0.9951 0.54285 0.39986 0.0
O309 O 0.97067 0.50719 0.4062 0.0
O310 O 0.01361 0.55716 0.48125 0.0
O311 O 0.03514 0.52136 0.50795 0.0
H312 H 0.02875 0.53119 0.67994 0.0
H313 H 0.02153 0.53511 0.75822 0.0
H314 H 0.0267 0.44828 0.788 0.0
H315 H 0.03463 0.44438 0.71018 0.0
H316 H 0.98039 0.47693 0.34645 0.0
H317 H 0.99041 0.4678 0.27164 0.0
H318 H 1.00396 0.55258 0.23679 0.0
H319 H 0.9941 0.56164 0.31129 0.0
H320 H 0.09575 0.04965 0.52606 0.0
H321 H 0.12822 0.07767 0.48818 0.0
H322 H 0.06266 0.11969 0.39971 0.0
H323 H 0.03033 0.09135 0.43642 0.0
H324 H 0.10001 0.1075 0.35225 0.0
H325 H 0.09918 0.14764 0.49016 0.0
H326 H 0.10384 0.14861 0.57256 0.0
H327 H 0.18657 0.12112 0.58264 0.0
H328 H 0.18229 0.11962 0.50033 0.0
H329 H 0.16003 0.22696 0.26773 0.0
H330 H 0.13398 0.19477 0.31155 0.0
H331 H 0.20711 0.14943 0.36597 0.0
H332 H 0.23336 0.18131 0.32097 0.0
H333 H 0.17027 0.15998 0.43162 0.0
H334 H 0.17057 0.12351 0.29075 0.0
H335 H 0.16487 0.12521 0.20785 0.0
H336 H 0.0813 0.14856 0.20345 0.0
H337 H 0.0866 0.14742 0.28632 0.0
C338 C 0.08828 0.06501 0.49876 0.0
C339 C 0.06047 0.06823 0.48419 0.0
C340 C 0.10686 0.08108 0.47719 0.0
C341 C 0.09794 0.10098 0.4412 0.0
C342 C 0.07012 0.10442 0.42719 0.0
C343 C 0.05162 0.0882 0.44831 0.0
C344 C 0.11737 0.11777 0.41698 0.0
C345 C 0.11517 0.11914 0.36972 0.0
C346 C 0.13774 0.13244 0.43966 0.0
C347 C 0.14031 0.13319 0.48916 0.0
C348 C 0.11829 0.14156 0.51 0.0
C349 C 0.12088 0.14225 0.55668 0.0
C350 C 0.14546 0.13484 0.58284 0.0
C351 C 0.16752 0.12679 0.56235 0.0
C352 C 0.16503 0.12602 0.51569 0.0
C353 C 0.1706 0.21013 0.28897 0.0
C354 C 0.19874 0.2067 0.29116 0.0
C355 C 0.15569 0.19178 0.314 0.0
C356 C 0.16862 0.16972 0.34188 0.0
C357 C 0.1968 0.16641 0.34475 0.0
C358 C 0.21174 0.18463 0.31916 0.0
C359 C 0.15236 0.15 0.36719 0.0
C360 C 0.15522 0.14808 0.41445 0.0
C361 C 0.13236 0.13504 0.34458 0.0
C362 C 0.12905 0.1356 0.29473 0.0
C363 C 0.15103 0.12923 0.27208 0.0
C364 C 0.14786 0.13005 0.2251 0.0
C365 C 0.12275 0.13705 0.20039 0.0
C366 C 0.10074 0.14317 0.22263 0.0
C367 C 0.10382 0.14242 0.26962 0.0
H368 H 0.12033 0.13767 0.16402 0.0
H369 H 0.14742 0.13541 0.61897 0.0
H370 H 0.06237 0.95305 0.46592 0.0
H371 H 0.09578 0.91667 0.49574 0.0
H372 H 0.09703 0.94146 0.62883 0.0
H373 H 0.06404 0.97762 0.59916 0.0
H374 H 0.14845 0.91304 0.55027 0.0
H375 H 0.08502 0.88521 0.69755 0.0
H376 H 0.03772 0.89055 0.71239 0.0
H377 H 0.01075 0.89063 0.5714 0.0
H378 H 0.05777 0.88454 0.55588 0.0
H379 H 0.22404 0.8367 0.73438 0.0
H380 H 0.19624 0.86845 0.6795 0.0
H381 H 0.13848 0.80627 0.65718 0.0
H382 H 0.16555 0.77503 0.71472 0.0
H383 H 0.11271 0.84812 0.66543 0.0
H384 H 0.18133 0.83513 0.56664 0.0
H385 H 0.22717 0.83286 0.54354 0.0
H386 H 0.24258 0.91194 0.58157 0.0
H387 H 0.19646 0.91528 0.60298 0.0
C388 C 0.07032 0.95102 0.5013 0.0
C389 C 0.06022 0.96749 0.53078 0.0
C390 C 0.08933 0.93034 0.51819 0.0
C391 C 0.09827 0.92618 0.56454 0.0
C392 C 0.0899 0.94414 0.59308 0.0
C393 C 0.07095 0.96461 0.57628 0.0
C394 C 0.1141 0.90167 0.58451 0.0
C395 C 0.14069 0.89858 0.5751 0.0
C396 C 0.10353 0.88266 0.61604 0.0
C397 C 0.075 0.88463 0.62553 0.0
C398 C 0.06898 0.88605 0.66979 0.0
C399 C 0.0422 0.88924 0.67831 0.0
C400 C 0.02124 0.89101 0.64286 0.0
C401 C 0.027 0.88931 0.59885 0.0
C402 C 0.0537 0.88594 0.59018 0.0
C403 C 0.20539 0.82991 0.71764 0.0
C404 C 0.19664 0.80369 0.7289 0.0
C405 C 0.18973 0.84789 0.68566 0.0
C406 C 0.16551 0.83965 0.66319 0.0
C407 C 0.1571 0.81312 0.67391 0.0
C408 C 0.17243 0.79534 0.70688 0.0
C409 C 0.14771 0.85951 0.63225 0.0
C410 C 0.12054 0.86195 0.63979 0.0
C411 C 0.15766 0.87761 0.59844 0.0
C412 C 0.18557 0.87534 0.58674 0.0
C413 C 0.19457 0.85195 0.57032 0.0
C414 C 0.22056 0.85049 0.55744 0.0
C415 C 0.23791 0.87199 0.56179 0.0
C416 C 0.22917 0.89524 0.57838 0.0
C417 C 0.20303 0.89705 0.59045 0.0
H418 H 0.25805 0.8707 0.55199 0.0
H419 H 1.00055 0.89367 0.64948 0.0
H420 H 0.29456 0.85096 0.77949 0.0
H421 H 0.32472 0.88183 0.8168 0.0
H422 H 0.34965 0.8182 0.92441 0.0
H423 H 0.31853 0.78766 0.88828 0.0
H424 H 0.34546 0.86181 0.95967 0.0
H425 H 0.38844 0.83911 0.83391 0.0
H426 H 0.39263 0.83436 0.7542 0.0
H427 H 0.37955 0.91992 0.7195 0.0
H428 H 0.37489 0.92513 0.79893 0.0
H429 H 0.47372 0.91293 0.03667 0.0
H430 H 0.43808 0.88661 1.00086 0.0
H431 H 0.40156 0.95958 0.92576 0.0
H432 H 0.43668 0.98622 0.96284 0.0
H433 H 0.41045 0.91396 0.87359 0.0
H434 H 0.37059 0.93512 1.00414 0.0
H435 H 0.36966 0.93767 0.0854 0.0
H436 H 0.38097 0.85153 0.11242 0.0
H437 H 0.38241 0.8485 0.03135 0.0
C438 C 0.3064 0.84359 0.8112 0.0
C439 C 0.30425 0.81682 0.83081 0.0
C440 C 0.3238 0.86122 0.83241 0.0
C441 C 0.34002 0.85228 0.87305 0.0
C442 C 0.33746 0.82567 0.89308 0.0
C443 C 0.31967 0.80818 0.87234 0.0
C444 C 0.35973 0.87051 0.89463 0.0
C445 C 0.35982 0.87294 0.9408 0.0
C446 C 0.3783 0.88555 0.8701 0.0
C447 C 0.38101 0.88246 0.82229 0.0
C448 C 0.38623 0.85688 0.80922 0.0
C449 C 0.38873 0.85411 0.7641 0.0
C450 C 0.38627 0.87681 0.73178 0.0
C451 C 0.38139 0.90235 0.74455 0.0
C452 C 0.37883 0.90522 0.78961 0.0
C453 C 0.45802 0.9234 1.01272 0.0
C454 C 0.45811 0.9516 1.0022 0.0
C455 C 0.43769 0.90834 0.99233 0.0
C456 C 0.41723 0.92116 0.96067 0.0
C457 C 0.41725 0.94933 0.95002 0.0
C458 C 0.43733 0.96448 0.97109 0.0
C459 C 0.39614 0.90493 0.9383 0.0
C460 C 0.39589 0.90289 0.89212 0.0
C461 C 0.37781 0.88986 0.96294 0.0
C462 C 0.37688 0.89162 1.0117 0.0
C463 C 0.37314 0.91674 0.02744 0.0
C464 C 0.37247 0.91827 0.07347 0.0
C465 C 0.37532 0.89478 0.10407 0.0
C466 C 0.37879 0.86971 0.08868 0.0
C467 C 0.37952 0.86808 0.04269 0.0
H468 H 0.37478 0.896 0.13968 0.0
H469 H 0.38823 0.87463 0.69687 0.0
H470 H 0.47955 0.0635 0.12272 0.0
H471 H 0.44881 0.09288 0.15396 0.0
H472 H 0.3906 0.09116 0.03646 0.0
H473 H 0.42158 0.06223 1.00438 0.0
H474 H 0.39338 0.14121 0.06095 0.0
H475 H 0.38471 0.05164 0.1389 0.0
H476 H 0.40294 0.00935 0.18377 0.0
H477 H 0.43516 0.05396 0.29077 0.0
H478 H 0.41739 0.09656 0.24629 0.0
H479 H 0.28176 0.19589 0.14786 0.0
H480 H 0.31214 0.16629 0.11628 0.0
H481 H 0.36573 0.15891 0.24095 0.0
H482 H 0.33441 0.18714 0.27356 0.0
H483 H 0.36584 0.11347 0.21257 0.0
H484 H 0.37649 0.20244 0.13832 0.0
H485 H 0.3612 0.2461 0.09485 0.0
H486 H 0.32879 0.20517 0.98335 0.0
H487 H 0.34368 0.16121 0.02632 0.0
C488 C 0.4602 0.06932 0.10343 0.0
C489 C 0.45297 0.06023 0.06112 0.0
C490 C 0.44257 0.08612 0.12146 0.0
C491 C 0.41708 0.09391 0.09802 0.0
C492 C 0.41007 0.08538 0.05533 0.0
C493 C 0.4278 0.06874 0.03706 0.0
C494 C 0.39762 0.11061 0.11825 0.0
C495 C 0.38709 0.13499 0.09386 0.0
C496 C 0.38995 0.10299 0.16181 0.0
C497 C 0.39988 0.07729 0.18913 0.0
C498 C 0.39575 0.05243 0.17194 0.0
C499 C 0.40601 0.02841 0.1973 0.0
C500 C 0.42026 0.02898 0.24005 0.0
C501 C 0.42414 0.05356 0.25764 0.0
C502 C 0.41394 0.07763 0.2324 0.0
C503 C 0.29994 0.18779 0.16865 0.0
C504 C 0.3057 0.19391 0.21321 0.0
C505 C 0.3175 0.17103 0.15039 0.0
C506 C 0.34179 0.1608 0.17561 0.0
C507 C 0.34726 0.16651 0.22052 0.0
C508 C 0.32932 0.1827 0.23921 0.0
C509 C 0.36148 0.14424 0.15532 0.0
C510 C 0.37207 0.11983 0.17967 0.0
C511 C 0.36955 0.15208 0.112 0.0
C512 C 0.36103 0.17851 0.08569 0.0
C513 C 0.36602 0.20274 0.10459 0.0
C514 C 0.35743 0.22754 0.08003 0.0
C515 C 0.344 0.22839 0.03638 0.0
C516 C 0.3392 0.20445 0.01716 0.0
C517 C 0.34776 0.1796 0.04157 0.0
H518 H 0.33738 0.2476 0.01742 0.0
H519 H 0.42825 0.01037 0.25956 0.0
H520 H 0.97424 0.94841 0.65621 0.0
H521 H 0.94446 0.91431 0.68715 0.0
H522 H 0.88427 0.93577 0.57299 0.0
H523 H 0.91427 0.96954 0.5411 0.0
H524 H 0.8664 0.9311 0.66674 0.0
H525 H 0.91449 0.88323 0.56758 0.0
H526 H 0.95524 0.86706 0.53835 0.0
H527 H 0.98369 0.82598 0.66927 0.0
H528 H 0.94329 0.84226 0.69948 0.0
H529 H 0.77945 0.82303 0.71385 0.0
H530 H 0.80675 0.85734 0.67725 0.0
H531 H 0.87885 0.81965 0.75412 0.0
H532 H 0.85176 0.78417 0.7879 0.0
H533 H 0.89017 0.83347 0.67583 0.0
H534 H 0.84611 0.88077 0.77814 0.0
H535 H 0.80772 0.89738 0.81319 0.0
H536 H 0.77488 0.9405 0.68603 0.0
H537 H 0.81292 0.92386 0.65008 0.0
C538 C 0.95459 0.94601 0.63782 0.0
C539 C 0.94651 0.96169 0.5963 0.0
C540 C 0.93768 0.92647 0.65545 0.0
C541 C 0.91224 0.92259 0.63228 0.0
C542 C 0.90385 0.93855 0.5913 0.0
C543 C 0.92101 0.95773 0.57312 0.0
C544 C 0.89458 0.9016 0.65081 0.0
C545 C 0.87128 0.9097 0.66823 0.0
C546 C 0.90159 0.87384 0.65396 0.0
C547 C 0.92596 0.86416 0.63587 0.0
C548 C 0.92955 0.87097 0.59025 0.0
C549 C 0.95255 0.86171 0.57347 0.0
C550 C 0.972 0.84544 0.60191 0.0
C551 C 0.96856 0.8385 0.64725 0.0
C552 C 0.94562 0.84774 0.66421 0.0
C553 C 0.80116 0.82192 0.72243 0.0
C554 C 0.81353 0.80079 0.7533 0.0
C555 C 0.81676 0.84177 0.70198 0.0
C556 C 0.84494 0.84146 0.71334 0.0
C557 C 0.85721 0.8204 0.74457 0.0
C558 C 0.84169 0.80019 0.76409 0.0
C559 C 0.86177 0.86278 0.69244 0.0
C560 C 0.88504 0.8548 0.67446 0.0
C561 C 0.85505 0.89072 0.68979 0.0
C562 C 0.83221 0.90084 0.71133 0.0
C563 C 0.8306 0.89364 0.75759 0.0
C564 C 0.80892 0.90308 0.77762 0.0
C565 C 0.78883 0.91992 0.75182 0.0
C566 C 0.79043 0.92742 0.70595 0.0
C567 C 0.81206 0.91801 0.68574 0.0
H568 H 0.77206 0.9272 0.76739 0.0
H569 H 0.98977 0.83827 0.58885 0.0
H570 H 0.99056 0.11066 0.52776 0.0
H571 H 0.96496 0.14254 0.46916 0.0
H572 H 0.90587 0.0819 0.44512 0.0
H573 H 0.93155 0.05002 0.50295 0.0
H574 H 0.92144 0.10467 0.36791 0.0
H575 H 0.8928 0.13505 0.50235 0.0
H576 H 0.89925 0.15191 0.57673 0.0
H577 H 0.93816 0.22175 0.5196 0.0
H578 H 0.93222 0.20512 0.44495 0.0
H579 H 0.80053 0.17898 0.2738 0.0
H580 H 0.83636 0.1512 0.32109 0.0
H581 H 0.8929 0.21444 0.29802 0.0
H582 H 0.8573 0.24202 0.24946 0.0
H583 H 0.88508 0.19409 0.39329 0.0
H584 H 0.90648 0.16572 0.25545 0.0
H585 H 0.89915 0.14801 0.1819 0.0
H586 H 0.87244 0.07334 0.24593 0.0
H587 H 0.87905 0.09079 0.31979 0.0
C588 C 0.97189 0.10439 0.51033 0.0
C589 C 0.96291 0.07803 0.51955 0.0
C590 C 0.95736 0.12252 0.4769 0.0
C591 C 0.93356 0.11452 0.45288 0.0
C592 C 0.92429 0.08838 0.4631 0.0
C593 C 0.93884 0.07028 0.49622 0.0
C594 C 0.91844 0.13298 0.41626 0.0
C595 C 0.91329 0.12415 0.37347 0.0
C596 C 0.90869 0.15873 0.42334 0.0
C597 C 0.91239 0.16867 0.46823 0.0
C598 C 0.90296 0.15388 0.50575 0.0
C599 C 0.90647 0.16342 0.54793 0.0
C600 C 0.9192 0.18784 0.55293 0.0
C601 C 0.92837 0.20281 0.51571 0.0
C602 C 0.92492 0.19334 0.47346 0.0
C603 C 0.82074 0.18669 0.27822 0.0
C604 C 0.82634 0.21247 0.25814 0.0
C605 C 0.84111 0.17084 0.30498 0.0
C606 C 0.86715 0.18083 0.31256 0.0
C607 C 0.8729 0.20644 0.29205 0.0
C608 C 0.85265 0.22206 0.26442 0.0
C609 C 0.88744 0.16539 0.34546 0.0
C610 C 0.89357 0.17479 0.38755 0.0
C611 C 0.89782 0.14004 0.33785 0.0
C612 C 0.89295 0.12975 0.2932 0.0
C613 C 0.89862 0.14569 0.25382 0.0
C614 C 0.89469 0.13565 0.21205 0.0
C615 C 0.88525 0.1096 0.20922 0.0
C616 C 0.87969 0.09355 0.24815 0.0
C617 C 0.88352 0.10351 0.28998 0.0
H618 H 0.88233 0.10183 0.17687 0.0
H619 H 0.92188 0.1952 0.58561 0.0
H620 H 0.73061 0.15829 0.23802 0.0
H621 H 0.69849 0.1268 0.20584 0.0
H622 H 0.65242 0.19384 0.12843 0.0
H623 H 0.68467 0.22531 0.15949 0.0
H624 H 0.62117 0.15162 0.17741 0.0
H625 H 0.68993 0.16346 0.07433 0.0
H626 H 0.73694 0.16245 0.05651 0.0
H627 H 0.74504 0.07823 0.10721 0.0
H628 H 0.69815 0.07887 0.12594 0.0
H629 H 0.53756 0.10005 1.00512 0.0
H630 H 0.57125 0.12508 0.04806 0.0
H631 H 0.61757 0.05119 0.09345 0.0
H632 H 0.58392 0.02604 0.04999 0.0
H633 H 0.64999 0.09241 0.06868 0.0
H634 H 0.58205 0.07713 0.1649 0.0
H635 H 0.53556 0.07542 0.18506 0.0
H636 H 0.52659 0.16159 0.15447 0.0
H637 H 0.57292 0.1638 0.13331 0.0
C638 C 0.7136 0.16629 0.21423 0.0
C639 C 0.71027 0.19426 0.20105 0.0
C640 C 0.69528 0.1483 0.19593 0.0
C641 C 0.67308 0.15803 0.16483 0.0
C642 C 0.66938 0.18595 0.15248 0.0
C643 C 0.68793 0.20387 0.17003 0.0
C644 C 0.65422 0.13915 0.14364 0.0
C645 C 0.62737 0.13879 0.15341 0.0
C646 C 0.66261 0.12172 0.11364 0.0
C647 C 0.69067 0.12129 0.10202 0.0
C648 C 0.70182 0.14479 0.08205 0.0
C649 C 0.72842 0.14427 0.07171 0.0
C650 C 0.744 0.12031 0.08086 0.0
C651 C 0.73297 0.09679 0.10023 0.0
C652 C 0.70638 0.09721 0.11069 0.0
C653 C 0.55497 0.08916 0.02412 0.0
C654 C 0.55807 0.0611 0.02449 0.0
C655 C 0.57414 0.10345 0.04884 0.0
C656 C 0.59678 0.08997 0.07446 0.0
C657 C 0.60023 0.06199 0.07406 0.0
C658 C 0.58097 0.04765 0.0494 0.0
C659 C 0.61668 0.10529 0.10155 0.0
C660 C 0.64376 0.10497 0.09302 0.0
C661 C 0.60861 0.12167 0.13342 0.0
C662 C 0.58093 0.12062 0.14715 0.0
C663 C 0.57013 0.09572 0.1622 0.0
C664 C 0.5438 0.09465 0.17382 0.0
C665 C 0.52811 0.11838 0.17095 0.0
C666 C 0.53877 0.14323 0.15664 0.0
C667 C 0.56509 0.14441 0.14486 0.0
H668 H 0.5077 0.11751 0.17986 0.0
H669 H 0.76459 0.11995 0.07283 0.0
H670 H 0.72144 0.79802 0.8848 0.0
H671 H 0.69229 0.82894 0.91606 0.0
H672 H 0.65719 0.86002 0.78156 0.0
H673 H 0.68721 0.82987 0.75002 0.0
H674 H 0.66338 0.89993 0.82833 0.0
H675 H 0.6247 0.81299 0.85581 0.0
H676 H 0.62483 0.76448 0.88375 0.0
H677 H 0.64815 0.78232 0.01902 0.0
H678 H 0.64846 0.83094 0.9918 0.0
H679 H 0.54614 0.96174 0.89151 0.0
H680 H 0.57677 0.93169 0.8613 0.0
H681 H 0.6183 0.90952 0.99484 0.0
H682 H 0.58764 0.93948 0.02551 0.0
H683 H 0.60876 0.86528 0.94931 0.0
H684 H 0.64625 0.95303 0.91964 0.0
H685 H 0.64485 1.00131 0.88989 0.0
H686 H 0.62162 0.98124 0.75591 0.0
H687 H 0.62255 0.93283 0.78497 0.0
C688 C 0.70756 0.81146 0.8618 0.0
C689 C 0.70661 0.81133 0.81483 0.0
C690 C 0.69072 0.82908 0.87978 0.0
C691 C 0.67197 0.84654 0.85135 0.0
C692 C 0.67135 0.84676 0.80438 0.0
C693 C 0.68852 0.82945 0.78632 0.0
C694 C 0.65308 0.86453 0.87049 0.0
C695 C 0.65119 0.89219 0.85433 0.0
C696 C 0.63741 0.85476 0.90513 0.0
C697 C 0.63683 0.82558 0.9217 0.0
C698 C 0.62998 0.80656 0.89148 0.0
C699 C 0.62996 0.77904 0.90719 0.0
C700 C 0.63655 0.77032 0.95311 0.0
C701 C 0.64307 0.78911 0.98345 0.0
C702 C 0.64314 0.81665 0.96791 0.0
C703 C 0.56177 0.95052 0.91459 0.0
C704 C 0.56442 0.9532 0.96104 0.0
C705 C 0.57937 0.93337 0.89716 0.0
C706 C 0.60007 0.91848 0.92567 0.0
C707 C 0.60254 0.9208 0.97212 0.0
C708 C 0.58502 0.93806 0.98959 0.0
C709 C 0.61909 0.90052 0.90701 0.0
C710 C 0.62098 0.87291 0.92328 0.0
C711 C 0.63453 0.91026 0.87215 0.0
C712 C 0.63424 0.93933 0.85455 0.0
C713 C 0.64067 0.95893 0.88388 0.0
C714 C 0.63999 0.98631 0.86713 0.0
C715 C 0.63309 0.99434 0.82105 0.0
C716 C 0.62694 0.97499 0.7916 0.0
C717 C 0.62757 0.94758 0.80818 0.0
H718 H 0.63256 0.01555 0.80815 0.0
H719 H 0.63655 0.74901 0.9652 0.0
H720 H 0.59219 0.55358 1.00654 0.0
H721 H 0.62194 0.58622 0.97156 0.0
H722 H 0.57634 0.5822 0.84162 0.0
H723 H 0.54641 0.54978 0.8762 0.0
H724 H 0.63243 0.58049 0.83916 0.0
H725 H 0.56463 0.63311 0.89498 0.0
H726 H 0.53787 0.64701 0.95288 0.0
H727 H 0.61027 0.66887 0.03061 0.0
H728 H 0.63752 0.65465 0.97349 0.0
H729 H 0.66121 0.72868 0.75743 0.0
H730 H 0.63418 0.6946 0.79553 0.0
H731 H 0.70583 0.64441 0.83859 0.0
H732 H 0.733 0.67851 0.80045 0.0
H733 H 0.63689 0.67303 0.88472 0.0
H734 H 0.68663 0.57818 0.83295 0.0
H735 H 0.71139 0.56504 0.77196 0.0
H736 H 0.67111 0.62948 0.68006 0.0
H737 H 0.64587 0.64275 0.74031 0.0
C738 C 0.58859 0.55948 0.97047 0.0
C739 C 0.56687 0.54908 0.94419 0.0
C740 C 0.60557 0.57819 0.95059 0.0
C741 C 0.60126 0.58668 0.90406 0.0
C742 C 0.58004 0.57585 0.87758 0.0
C743 C 0.56289 0.55739 0.89747 0.0
C744 C 0.61834 0.60746 0.88306 0.0
C745 C 0.63353 0.60068 0.84929 0.0
C746 C 0.61951 0.63387 0.89593 0.0
C747 C 0.60314 0.64251 0.93022 0.0
C748 C 0.57487 0.64063 0.92463 0.0
C749 C 0.55961 0.64862 0.95727 0.0
C750 C 0.57237 0.65874 0.99547 0.0
C751 C 0.60042 0.66097 1.00104 0.0
C752 C 0.61578 0.65296 0.96855 0.0
C753 C 0.67118 0.71038 0.77504 0.0
C754 C 0.69914 0.70613 0.77587 0.0
C755 C 0.65576 0.69101 0.79697 0.0
C756 C 0.66797 0.66692 0.81965 0.0
C757 C 0.69598 0.66276 0.82095 0.0
C758 C 0.71146 0.68224 0.79925 0.0
C759 C 0.6512 0.646 0.8411 0.0
C760 C 0.63604 0.65275 0.87495 0.0
C761 C 0.64985 0.61965 0.82797 0.0
C762 C 0.6646 0.61162 0.79129 0.0
C763 C 0.683 0.58948 0.79968 0.0
C764 C 0.69712 0.58202 0.76525 0.0
C765 C 0.6929 0.59648 0.72221 0.0
C766 C 0.67445 0.61836 0.71346 0.0
C767 C 0.66026 0.62588 0.74776 0.0
H768 H 0.70387 0.59069 0.69561 0.0
H769 H 0.56052 0.66493 0.02069 0.0
H770 H 0.72832 0.32545 0.22899 0.0
H771 H 0.69215 0.35488 0.18628 0.0
H772 H 0.63374 0.29495 0.2184 0.0
H773 H 0.66983 0.26561 0.26216 0.0
H774 H 0.6343 0.3166 0.12166 0.0
H775 H 0.62955 0.34452 0.26849 0.0
H776 H 0.64826 0.36005 0.34037 0.0
H777 H 0.67645 0.43156 0.26847 0.0
H778 H 0.65827 0.41626 0.19607 0.0
H779 H 0.52424 0.40281 0.01618 0.0
H780 H 0.55348 0.37042 0.06825 0.0
H781 H 0.61306 0.43161 0.0841 0.0
H782 H 0.58329 0.46426 0.03386 0.0
H783 H 0.60829 0.40639 0.1618 0.0
H784 H 0.61883 0.37842 0.01661 0.0
H785 H 0.6038 0.36355 0.9425 0.0
H786 H 0.56897 0.2935 1.00757 0.0
H787 H 0.58352 0.30814 0.08208 0.0
C788 C 0.70772 0.31872 0.2273 0.0
C789 C 0.70169 0.29343 0.24883 0.0
C790 C 0.68716 0.33549 0.20304 0.0
C791 C 0.66042 0.327 0.19955 0.0
C792 C 0.65432 0.30176 0.22104 0.0
C793 C 0.67485 0.28515 0.24603 0.0
C794 C 0.63913 0.34424 0.17175 0.0
C795 C 0.62812 0.33604 0.13065 0.0
C796 C 0.6319 0.36979 0.1833 0.0
C797 C 0.64275 0.37911 0.22682 0.0
C798 C 0.63996 0.36344 0.26797 0.0
C799 C 0.65042 0.37223 0.30882 0.0
C800 C 0.6636 0.39675 0.30899 0.0
C801 C 0.66627 0.41256 0.26829 0.0
C802 C 0.65586 0.40385 0.22734 0.0
C803 C 0.54369 0.40918 0.03061 0.0
C804 C 0.55173 0.43584 0.02099 0.0
C805 C 0.56038 0.3907 0.06024 0.0
C806 C 0.58563 0.39849 0.07965 0.0
C807 C 0.59366 0.42516 0.06963 0.0
C808 C 0.57677 0.44373 0.04076 0.0
C809 C 0.60367 0.37911 0.11088 0.0
C810 C 0.61412 0.38687 0.15277 0.0
C811 C 0.61079 0.35333 0.09963 0.0
C812 C 0.60198 0.34454 0.05487 0.0
C813 C 0.60777 0.35996 0.01509 0.0
C814 C 0.59938 0.35155 0.97302 0.0
C815 C 0.58536 0.32764 0.97032 0.0
C816 C 0.57978 0.31204 1.00971 0.0
C817 C 0.58811 0.32038 0.05186 0.0
H818 H 0.57889 0.32116 0.93772 0.0
H819 H 0.67169 0.40352 0.34065 0.0
H820 H 0.98321 0.40991 0.51065 0.0
H821 H 0.9515 0.38385 0.46605 0.0
H822 H 0.90451 0.45662 0.41507 0.0
H823 H 0.93586 0.48271 0.46109 0.0
H824 H 0.87204 0.41679 0.43549 0.0
H825 H 0.94591 0.4275 0.34969 0.0
H826 H 0.99376 0.42689 0.33638 0.0
H827 H 0.99906 0.34103 0.37311 0.0
H828 H 0.95138 0.34112 0.38756 0.0
H829 H 0.79712 0.34711 0.26595 0.0
H830 H 0.82809 0.37914 0.29935 0.0
H831 H 0.87277 0.31301 0.3819 0.0
H832 H 0.84173 0.28099 0.34942 0.0
H833 H 0.90557 0.35346 0.33719 0.0
H834 H 0.83175 0.34572 0.42993 0.0
H835 H 0.78374 0.34798 0.44196 0.0
H836 H 0.77832 0.43144 0.38627 0.0
H837 H 0.82625 0.42956 0.37332 0.0
C838 C 0.9661 0.42036 0.49 0.0
C839 C 0.96214 0.44837 0.48897 0.0
C840 C 0.94807 0.40547 0.46425 0.0
C841 C 0.92585 0.41831 0.43644 0.0
C842 C 0.92159 0.44628 0.43599 0.0
C843 C 0.93958 0.46119 0.46205 0.0
C844 C 0.90701 0.4023 0.40852 0.0
C845 C 0.87936 0.40335 0.41335 0.0
C846 C 0.91648 0.38461 0.37968 0.0
C847 C 0.94505 0.38434 0.37004 0.0
C848 C 0.95729 0.40849 0.35519 0.0
C849 C 0.98439 0.40825 0.34744 0.0
C850 C 0.99944 0.38396 0.35396 0.0
C851 C 0.98738 0.35984 0.3681 0.0
C852 C 0.9603 0.35996 0.37605 0.0
C853 C 0.8136 0.33941 0.2911 0.0
C854 C 0.81688 0.31153 0.30524 0.0
C855 C 0.83125 0.35772 0.31014 0.0
C856 C 0.85272 0.34843 0.3431 0.0
C857 C 0.85639 0.32059 0.35645 0.0
C858 C 0.83851 0.30234 0.33805 0.0
C859 C 0.87086 0.36767 0.36499 0.0
C860 C 0.89834 0.36721 0.35892 0.0
C861 C 0.8612 0.38622 0.39207 0.0
C862 C 0.83247 0.38741 0.40016 0.0
C863 C 0.82025 0.36449 0.41988 0.0
C864 C 0.79307 0.36571 0.42694 0.0
C865 C 0.77796 0.38981 0.41475 0.0
C866 C 0.79003 0.41277 0.39561 0.0
C867 C 0.8172 0.41164 0.38843 0.0
H868 H 0.75692 0.39072 0.42024 0.0
H869 H 0.02042 0.38383 0.34798 0.0
H870 H 0.81748 0.66936 0.77452 0.0
H871 H 0.84695 0.63844 0.74352 0.0
H872 H 0.82961 0.68399 0.61199 0.0
H873 H 0.79994 0.71485 0.64253 0.0
H874 H 0.82829 0.63005 0.60659 0.0
H875 H 0.88912 0.69076 0.67847 0.0
H876 H 0.90899 0.714 0.74203 0.0
H877 H 0.93253 0.63752 0.81885 0.0
H878 H 0.91247 0.61381 0.75595 0.0
H879 H 0.93281 0.57621 0.49884 0.0
H880 H 0.90192 0.60521 0.53062 0.0
H881 H 0.92851 0.56538 0.66409 0.0
H882 H 0.96027 0.53716 0.63266 0.0
H883 H 0.92446 0.61571 0.6698 0.0
H884 H 0.8647 0.55434 0.60068 0.0
H885 H 0.84409 0.52966 0.53946 0.0
H886 H 0.8174 0.60471 0.46069 0.0
H887 H 0.83817 0.62986 0.52122 0.0
C888 C 0.81985 0.67281 0.73896 0.0
C889 C 0.80633 0.69473 0.71114 0.0
C890 C 0.83684 0.65513 0.7213 0.0
C891 C 0.8408 0.659 0.67545 0.0
C892 C 0.82695 0.68056 0.64745 0.0
C893 C 0.81002 0.69827 0.66508 0.0
C894 C 0.85946 0.64073 0.65662 0.0
C895 C 0.8494 0.62715 0.62006 0.0
C896 C 0.88684 0.63626 0.67496 0.0
C897 C 0.89906 0.65051 0.71266 0.0
C898 C 0.89836 0.6789 0.70904 0.0
C899 C 0.90968 0.69215 0.74493 0.0
C900 C 0.92196 0.67725 0.78449 0.0
C901 C 0.92299 0.64904 0.7882 0.0
C902 C 0.91167 0.63569 0.75243 0.0
C903 C 0.93199 0.57351 0.53494 0.0
C904 C 0.94897 0.55423 0.56311 0.0
C905 C 0.91416 0.59006 0.55314 0.0
C906 C 0.91237 0.58731 0.59985 0.0
C907 C 0.92936 0.56801 0.62799 0.0
C908 C 0.94751 0.55178 0.6099 0.0
C909 C 0.89336 0.60491 0.61955 0.0
C910 C 0.90334 0.61844 0.6563 0.0
C911 C 0.8658 0.60906 0.60173 0.0
C912 C 0.85321 0.59399 0.56533 0.0
C913 C 0.8546 0.56559 0.57018 0.0
C914 C 0.84286 0.55151 0.53562 0.0
C915 C 0.8295 0.56561 0.49616 0.0
C916 C 0.82778 0.59381 0.49124 0.0
C917 C 0.83951 0.60799 0.52569 0.0
H918 H 0.82043 0.55467 0.46944 0.0
H919 H 0.93071 0.68755 0.81224 0.0
H920 H 0.27791 0.32374 0.20518 0.0
H921 H 0.30494 0.35745 0.16545 0.0
H922 H 0.37786 0.3132 0.22465 0.0
H923 H 0.35111 0.27939 0.2635 0.0
H924 H 0.37909 0.36883 0.23271 0.0
H925 H 0.35566 0.30885 0.11837 0.0
H926 H 0.32397 0.28541 0.06784 0.0
H927 H 0.28816 0.36158 1.00628 0.0
H928 H 0.31943 0.38549 0.05685 0.0
H929 H 0.48169 0.42454 0.11314 0.0
H930 H 0.44967 0.39505 0.14853 0.0
H931 H 0.38393 0.43571 0.05851 0.0
H932 H 0.41617 0.46439 0.02144 0.0
H933 H 0.37515 0.38537 0.06607 0.0
H934 H 0.39878 0.44634 0.17421 0.0
H935 H 0.4286 0.47164 0.2247 0.0
H936 H 0.46092 0.3972 0.29912 0.0
H937 H 0.43163 0.37142 0.24865 0.0
C938 C 0.29968 0.32112 0.20926 0.0
C939 C 0.31243 0.29891 0.23722 0.0
C940 C 0.31507 0.34037 0.18667 0.0
C941 C 0.34339 0.33776 0.19212 0.0
C942 C 0.35605 0.31562 0.22011 0.0
C943 C 0.34073 0.2963 0.2422 0.0
C944 C 0.36014 0.35816 0.1694 0.0
C945 C 0.37842 0.37237 0.19628 0.0
C946 C 0.35851 0.36338 0.12191 0.0
C947 C 0.33968 0.34894 0.09171 0.0
C948 C 0.34086 0.32059 0.09435 0.0
C949 C 0.32302 0.30722 0.06562 0.0
C950 C 0.30404 0.32201 0.03394 0.0
C951 C 0.30286 0.35017 0.03088 0.0
C952 C 0.32064 0.36364 0.05953 0.0
C953 C 0.4604 0.42724 0.10097 0.0
C954 C 0.45141 0.44686 0.06468 0.0
C955 C 0.44205 0.41047 0.12143 0.0
C956 C 0.41422 0.41349 0.10697 0.0
C957 C 0.40525 0.43299 0.07045 0.0
C958 C 0.42369 0.44942 0.04932 0.0
C959 C 0.39464 0.39589 0.12937 0.0
C960 C 0.37575 0.38219 0.10251 0.0
C961 C 0.3954 0.39146 0.17698 0.0
C962 C 0.41311 0.40693 0.20741 0.0
C963 C 0.41238 0.43535 0.20113 0.0
C964 C 0.42918 0.44978 0.22977 0.0
C965 C 0.44664 0.43603 0.26507 0.0
C966 C 0.44738 0.40782 0.27176 0.0
C967 C 0.43067 0.39329 0.24317 0.0
H968 H 0.45954 0.44721 0.28734 0.0
H969 H 0.29029 0.31169 1.01162 0.0
H970 H 0.44196 0.52926 0.9586 0.0
H971 H 0.40955 0.56316 0.9169 0.0
H972 H 0.45058 0.62552 0.98397 0.0
H973 H 0.48345 0.59178 0.02512 0.0
H974 H 0.39252 0.62751 0.97959 0.0
H975 H 0.46385 0.6212 0.88551 0.0
H976 H 0.49469 0.59678 0.84467 0.0
H977 H 0.42692 0.56809 0.76376 0.0
H978 H 0.39563 0.592 0.80467 0.0
H979 H 0.35309 0.73391 0.77326 0.0
H980 H 0.38447 0.70044 0.81846 0.0
H981 H 0.31733 0.65602 0.86434 0.0
H982 H 0.28575 0.68939 0.81874 0.0
H983 H 0.38934 0.64568 0.81307 0.0
H984 H 0.33847 0.62992 0.97676 0.0
H985 H 0.31044 0.65471 0.02176 0.0
H986 H 0.34032 0.72994 0.96557 0.0
H987 H 0.36881 0.70558 0.92069 0.0
C988 C 0.44405 0.55021 0.96438 0.0
C989 C 0.46525 0.55808 0.99459 0.0
C990 C 0.42555 0.56945 0.9407 0.0
C991 C 0.4279 0.5967 0.94739 0.0
C992 C 0.44856 0.6045 0.97858 0.0
C993 C 0.46728 0.5853 1.00185 0.0
C994 C 0.40927 0.61723 0.92072 0.0
C995 C 0.39169 0.6315 0.94317 0.0
C996 C 0.40861 0.62239 0.87338 0.0
C997 C 0.42739 0.60824 0.84839 0.0
C998 C 0.45551 0.60952 0.85926 0.0
C999 C 0.47307 0.59579 0.83606 0.0
C1000 C 0.46276 0.58092 0.80163 0.0
C1001 C 0.43486 0.57966 0.79042 0.0
C1002 C 0.41721 0.59331 0.81357 0.0
C1003 C 0.34504 0.71698 0.79295 0.0
C1004 C 0.31708 0.71417 0.79274 0.0
C1005 C 0.36294 0.69792 0.81862 0.0
C1006 C 0.35314 0.67594 0.84477 0.0
C1007 C 0.3252 0.67304 0.84461 0.0
C1008 C 0.30725 0.69203 0.81862 0.0
C1009 C 0.3723 0.65595 0.87187 0.0
C1010 C 0.39 0.64166 0.84946 0.0
C1011 C 0.37318 0.65091 0.91932 0.0
C1012 C 0.35557 0.66591 0.94505 0.0
C1013 C 0.33904 0.65175 0.97397 0.0
C1014 C 0.3231 0.66572 0.99949 0.0
C1015 C 0.32363 0.69385 0.99654 0.0
C1016 C 0.33991 0.70813 0.96776 0.0
C1017 C 0.35591 0.69425 0.94217 0.0
H1018 H 0.31153 0.70455 0.01678 0.0
H1019 H 0.47637 0.5705 0.78347 0.0
H1020 H 0.22794 0.70305 0.63891 0.0
H1021 H 0.19892 0.67075 0.6024 0.0
H1022 H 0.15444 0.66085 0.71803 0.0
H1023 H 0.18478 0.69129 0.75573 0.0
H1024 H 0.15683 0.61586 0.69221 0.0
H1025 H 0.13297 0.70375 0.6109 0.0
H1026 H 0.14273 0.74699 0.56791 0.0
H1027 H 0.17055 0.70441 0.46492 0.0
H1028 H 0.1612 0.66088 0.50757 0.0
H1029 H 0.03193 0.60032 0.51497 0.0
H1030 H 0.06623 0.62763 0.55135 0.0
H1031 H 0.11872 0.55692 0.58748 0.0
H1032 H 0.08391 0.52931 0.55216 0.0
H1033 H 0.11386 0.64099 0.5353 0.0
H1034 H 0.15805 0.56044 0.67953 0.0
H1035 H 0.14286 0.52214 0.72934 0.0
H1036 H 0.0636 0.55919 0.71627 0.0
H1037 H 0.07815 0.59723 0.66564 0.0
C1038 C 0.21205 0.69376 0.65649 0.0
C1039 C 0.20853 0.69964 0.70005 0.0
C1040 C 0.19531 0.67544 0.63552 0.0
C1041 C 0.17394 0.66364 0.65688 0.0
C1042 C 0.17072 0.66946 0.70067 0.0
C1043 C 0.18801 0.68698 0.72219 0.0
C1044 C 0.15451 0.64573 0.63374 0.0
C1045 C 0.14758 0.62143 0.65782 0.0
C1046 C 0.14187 0.65292 0.58906 0.0
C1047 C 0.1466 0.67908 0.5626 0.0
C1048 C 0.1412 0.70362 0.57911 0.0
C1049 C 0.14667 0.72817 0.55483 0.0
C1050 C 0.15732 0.72844 0.51376 0.0
C1051 C 0.16233 0.70416 0.49675 0.0
C1052 C 0.15691 0.67955 0.52093 0.0
C1053 C 0.05075 0.59057 0.53087 0.0
C1054 C 0.05526 0.5627 0.53081 0.0
C1055 C 0.07041 0.60624 0.5515 0.0
C1056 C 0.09512 0.59443 0.57243 0.0
C1057 C 0.0997 0.5665 0.57227 0.0
C1058 C 0.07986 0.55074 0.55193 0.0
C1059 C 0.11596 0.61149 0.59411 0.0
C1060 C 0.12328 0.63546 0.5696 0.0
C1061 C 0.12806 0.60466 0.63905 0.0
C1062 C 0.11911 0.58146 0.66852 0.0
C1063 C 0.13735 0.56026 0.68713 0.0
C1064 C 0.1288 0.53855 0.71532 0.0
C1065 C 0.10218 0.53806 0.7256 0.0
C1066 C 0.08406 0.5593 0.70772 0.0
C1067 C 0.09241 0.58087 0.67911 0.0
H1068 H 0.09561 0.52132 0.7476 0.0
H1069 H 0.16164 0.74746 0.49509 0.0
H1070 H 0.23494 0.31806 0.3691 0.0
H1071 H 0.20603 0.34983 0.39932 0.0
H1072 H 0.1429 0.34127 0.29109 0.0
H1073 H 0.17287 0.31141 0.25878 0.0
H1074 H 0.14061 0.38921 0.3048 0.0
H1075 H 0.14622 0.30771 0.41074 0.0
H1076 H 0.1705 0.27082 0.46246 0.0
H1077 H 0.2085 0.32869 0.54251 0.0
H1078 H 0.18439 0.36589 0.49143 0.0
H1079 H 0.03453 0.4438 0.40701 0.0
H1080 H 0.06425 0.41297 0.37677 0.0
H1081 H 0.12928 0.4283 0.47765 0.0
H1082 H 0.09907 0.45818 0.50955 0.0
H1083 H 0.13034 0.37719 0.46808 0.0
H1084 H 0.125 0.45842 0.35963 0.0
H1085 H 0.09917 0.49473 0.30886 0.0
H1086 H 0.05825 0.43571 0.23485 0.0
H1087 H 0.08417 0.39906 0.28473 0.0
C1088 C 0.21493 0.32316 0.35171 0.0
C1089 C 0.20609 0.31226 0.31171 0.0
C1090 C 0.19822 0.3411 0.36927 0.0
C1091 C 0.17172 0.34749 0.34853 0.0
C1092 C 0.1631 0.33677 0.30809 0.0
C1093 C 0.18021 0.31962 0.28961 0.0
C1094 C 0.15303 0.36528 0.36867 0.0
C1095 C 0.13819 0.38622 0.34043 0.0
C1096 C 0.14994 0.36203 0.41539 0.0
C1097 C 0.16361 0.33958 0.44712 0.0
C1098 C 0.15971 0.31254 0.43945 0.0
C1099 C 0.17342 0.29158 0.46869 0.0
C1100 C 0.19097 0.2974 0.50584 0.0
C1101 C 0.19477 0.3242 0.51392 0.0
C1102 C 0.18103 0.34522 0.48492 0.0
C1103 C 0.05519 0.4407 0.42269 0.0
C1104 C 0.06452 0.45368 0.46044 0.0
C1105 C 0.07227 0.42312 0.40518 0.0
C1106 C 0.09935 0.4187 0.42407 0.0
C1107 C 0.10857 0.43139 0.46222 0.0
C1108 C 0.0913 0.44855 0.48037 0.0
C1109 C 0.11804 0.4009 0.40419 0.0
C1110 C 0.13283 0.38003 0.43247 0.0
C1111 C 0.12089 0.40401 0.3575 0.0
C1112 C 0.10649 0.42604 0.3259 0.0
C1113 C 0.11063 0.45322 0.33231 0.0
C1114 C 0.09601 0.47385 0.30365 0.0
C1115 C 0.07718 0.46752 0.26851 0.0
C1116 C 0.07305 0.44057 0.26178 0.0
C1117 C 0.0878 0.41987 0.29006 0.0
H1118 H 0.06574 0.4835 0.24657 0.0
H1119 H 0.20164 0.28118 0.52837 0.0
H1120 H 0.05459 0.02059 0.8812 0.0
H1121 H 0.04555 0.02146 0.9591 0.0
H1122 H 0.96107 0.00952 0.9199 0.0
H1123 H 0.96999 0.00833 0.84165 0.0
H1124 H 0.96792 0.04768 0.97755 0.0
H1125 H 1.00126 0.95761 0.97383 0.0
H1126 H 0.03295 0.92244 0.95805 0.0
H1127 H 0.09584 0.95253 0.04747 0.0
H1128 H 0.06462 0.98815 0.0633 0.0
H1129 H 0.93514 0.01266 0.20177 0.0
H1130 H 0.94183 0.01233 0.12253 0.0
H1131 H 0.02695 0.02413 0.1555 0.0
H1132 H 0.02041 0.02479 0.23474 0.0
H1133 H 0.01845 0.98524 0.1005 0.0
H1134 H 0.98478 0.0757 0.10357 0.0
H1135 H 0.95254 0.11006 0.12038 0.0
H1136 H 0.8897 0.07863 0.03258 0.0
H1137 H 0.92147 0.04377 0.01581 0.0
C1138 C 0.0341 0.01784 0.88908 0.0
C1139 C 0.01308 0.01412 0.85502 0.0
C1140 C 0.02895 0.01845 0.93374 0.0
C1141 C 1.00268 0.01522 0.9456 0.0
C1142 C 0.98152 0.01205 0.91162 0.0
C1143 C 0.98666 0.01144 0.86684 0.0
C1144 C 0.99746 0.01498 0.99352 0.0
C1145 C 0.97869 0.03377 1.00435 0.0
C1146 C 0.01184 0.99718 0.02872 0.0
C1147 C 0.03066 0.97571 0.01942 0.0
C1148 C 0.0219 0.95687 0.98986 0.0
C1149 C 0.03977 0.93683 0.98095 0.0
C1150 C 0.06641 0.93529 1.00166 0.0
C1151 C 0.07521 0.95376 0.03141 0.0
C1152 C 0.05743 0.97387 0.04039 0.0
C1153 C 0.95525 0.01555 0.19217 0.0
C1154 C 0.97722 0.01881 0.22484 0.0
C1155 C 0.95905 0.01527 0.14677 0.0
C1156 C 0.98488 0.01841 0.13287 0.0
C1157 C 1.00685 0.02158 0.16536 0.0
C1158 C 1.00307 0.02187 0.21075 0.0
C1159 C 0.98908 0.01807 0.08461 0.0
C1160 C 0.00766 0.99914 0.0737 0.0
C1161 C 0.97447 0.0357 0.0494 0.0
C1162 C 0.95545 0.05695 0.05879 0.0
C1163 C 0.96404 0.07599 0.08808 0.0
C1164 C 0.94585 0.09557 0.09759 0.0
C1165 C 0.91906 0.09648 0.07768 0.0
C1166 C 0.91044 0.07787 0.04805 0.0
C1167 C 0.92854 0.05821 0.03851 0.0
H1168 H 0.90501 0.11162 0.08514 0.0
H1169 H 0.08021 0.91976 0.99472 0.0
H1170 H 0.22283 0.74153 0.45554 0.0
H1171 H 0.21793 0.73666 0.37514 0.0
H1172 H 0.27714 0.79758 0.35414 0.0
H1173 H 0.28047 0.80422 0.43334 0.0
H1174 H 0.23914 0.80519 0.28892 0.0
H1175 H 0.29111 0.72597 0.36171 0.0
H1176 H 0.29944 0.68457 0.41545 0.0
H1177 H 0.22808 0.65017 0.3538 0.0
H1178 H 0.21918 0.6915 0.30001 0.0
H1179 H 0.27318 0.77858 0.07575 0.0
H1180 H 0.27404 0.78378 0.1556 0.0
H1181 H 0.21386 0.72308 0.16877 0.0
H1182 H 0.21437 0.71626 0.09 0.0
H1183 H 0.2501 0.71508 0.2376 0.0
H1184 H 0.19929 0.79381 0.16259 0.0
H1185 H 0.19125 0.83524 0.10888 0.0
H1186 H 0.26069 0.87068 0.17466 0.0
H1187 H 0.26933 0.82933 0.22844 0.0
C1188 C 0.23454 0.7542 0.43379 0.0
C1189 C 0.25233 0.77306 0.45138 0.0
C1190 C 0.23199 0.7511 0.3878 0.0
C1191 C 0.2476 0.76633 0.35859 0.0
C1192 C 0.26499 0.78543 0.37593 0.0
C1193 C 0.26718 0.78891 0.42158 0.0
C1194 C 0.24601 0.76259 0.30996 0.0
C1195 C 0.24183 0.7855 0.27777 0.0
C1196 C 0.24883 0.73685 0.29513 0.0
C1197 C 0.25436 0.7119 0.32713 0.0
C1198 C 0.27714 0.70963 0.35979 0.0
C1199 C 0.28196 0.68617 0.39023 0.0
C1200 C 0.26427 0.66478 0.38811 0.0
C1201 C 0.24176 0.66676 0.35544 0.0
C1202 C 0.23683 0.69018 0.32494 0.0
C1203 C 0.26034 0.76607 0.09565 0.0
C1204 C 0.24357 0.7471 0.07604 0.0
C1205 C 0.26057 0.76937 0.14128 0.0
C1206 C 0.24361 0.7542 0.16813 0.0
C1207 C 0.227 0.73516 0.14876 0.0
C1208 C 0.22707 0.73154 0.10339 0.0
C1209 C 0.2435 0.75772 0.21659 0.0
C1210 C 0.24732 0.73477 0.24873 0.0
C1211 C 0.24041 0.78342 0.23138 0.0
C1212 C 0.23507 0.80839 0.19931 0.0
C1213 C 0.21293 0.81038 0.16544 0.0
C1214 C 0.20825 0.83386 0.13501 0.0
C1215 C 0.22548 0.85555 0.1383 0.0
C1216 C 0.24737 0.85385 0.17213 0.0
C1217 C 0.25214 0.83042 0.20262 0.0
H1218 H 0.22184 0.8737 0.11469 0.0
H1219 H 0.26802 0.64665 0.41174 0.0
H1220 H 0.45048 0.02389 0.66979 0.0
H1221 H 0.45615 0.02272 0.59045 0.0
H1222 H 0.54168 0.00729 0.62626 0.0
H1223 H 0.53615 0.00801 0.70603 0.0
H1224 H 0.53108 0.04566 0.55353 0.0
H1225 H 0.50107 0.95683 0.59896 0.0
H1226 H 0.47098 0.92346 0.63251 0.0
H1227 H 0.40499 0.95472 0.53469 0.0
H1228 H 0.43461 0.98856 0.50094 0.0
H1229 H 0.56244 1.00191 0.34902 0.0
H1230 H 0.55559 1.00511 0.42729 0.0
H1231 H 0.47029 0.01992 0.38742 0.0
H1232 H 0.47704 0.01711 0.3086 0.0
H1233 H 0.4799 0.98267 0.46166 0.0
H1234 H 0.51001 0.07095 0.41524 0.0
H1235 H 0.54002 0.10439 0.38168 0.0
H1236 H 0.60564 0.07438 0.48122 0.0
H1237 H 0.57611 0.04046 0.515 0.0
C1238 C 0.47048 0.01989 0.66099 0.0
C1239 C 0.49283 0.01582 0.69452 0.0
C1240 C 0.47369 0.01933 0.6155 0.0
C1241 C 0.49929 0.01463 0.60239 0.0
C1242 C 0.52172 0.01097 0.63558 0.0
C1243 C 0.51853 0.01146 0.68118 0.0
C1244 C 0.50261 0.01365 0.55402 0.0
C1245 C 0.52017 0.03164 0.5336 0.0
C1246 C 0.48783 0.99585 0.52766 0.0
C1247 C 0.47 0.97541 0.54771 0.0
C1248 C 0.48009 0.95673 0.58482 0.0
C1249 C 0.46313 0.93771 0.60384 0.0
C1250 C 0.43607 0.93702 0.58583 0.0
C1251 C 0.42594 0.95531 0.54866 0.0
C1252 C 0.44282 0.9744 0.52954 0.0
C1253 C 0.54226 0.0063 0.35664 0.0
C1254 C 0.52032 0.00945 0.32229 0.0
C1255 C 0.53836 0.00801 0.40155 0.0
C1256 C 0.51247 0.01302 0.41326 0.0
C1257 C 0.49046 0.01602 0.3792 0.0
C1258 C 0.49435 0.01435 0.33416 0.0
C1259 C 0.50845 0.01463 0.46119 0.0
C1260 C 0.49076 0.99675 0.48155 0.0
C1261 C 0.5231 0.03254 0.48749 0.0
C1262 C 0.5409 0.05299 0.46739 0.0
C1263 C 0.5309 0.07133 0.42976 0.0
C1264 C 0.54781 0.0904 0.41073 0.0
C1265 C 0.57474 0.09147 0.42924 0.0
C1266 C 0.58479 0.07351 0.46689 0.0
C1267 C 0.56796 0.05437 0.48601 0.0
H1268 H 0.58781 0.10625 0.41446 0.0
H1269 H 0.42297 0.92228 0.60061 0.0
H1270 H 0.21549 0.22702 0.94389 0.0
H1271 H 0.21887 0.22338 0.86403 0.0
H1272 H 0.28196 0.28151 0.86484 0.0
H1273 H 0.27891 0.28498 0.94491 0.0
H1274 H 0.23802 0.2924 0.79232 0.0
H1275 H 0.30028 0.22075 0.86145 0.0
H1276 H 0.31434 0.17942 0.91269 0.0
H1277 H 0.25212 0.13557 0.84407 0.0
H1278 H 0.23742 0.17676 0.79278 0.0
H1279 H 0.28332 0.27917 0.58065 0.0
H1280 H 0.27899 0.28187 0.66019 0.0
H1281 H 0.22575 0.21452 0.66142 0.0
H1282 H 0.23051 0.21131 0.58195 0.0
H1283 H 0.26384 0.20796 0.7333 0.0
H1284 H 0.20036 0.27744 0.66594 0.0
H1285 H 0.1834 0.3181 0.61532 0.0
H1286 H 0.24442 0.36509 0.68001 0.0
H1287 H 0.2618 0.32464 0.73104 0.0
C1288 C 0.23022 0.23884 0.92709 0.0
C1289 C 0.24694 0.25628 0.95056 0.0
C1290 C 0.23216 0.23672 0.88157 0.0
C1291 C 0.25063 0.25222 0.85858 0.0
C1292 C 0.26756 0.26942 0.88202 0.0
C1293 C 0.26594 0.27122 0.92777 0.0
C1294 C 0.2517 0.25095 0.80974 0.0
C1295 C 0.24405 0.27407 0.77939 0.0
C1296 C 0.25866 0.22676 0.79293 0.0
C1297 C 0.26757 0.20192 0.82356 0.0
C1298 C 0.28943 0.20236 0.85754 0.0
C1299 C 0.29755 0.17895 0.88655 0.0
C1300 C 0.28408 0.15491 0.88174 0.0
C1301 C 0.26251 0.15422 0.8478 0.0
C1302 C 0.2543 0.17759 0.81872 0.0
C1303 C 0.27063 0.26497 0.59781 0.0
C1304 C 0.25734 0.24497 0.575 0.0
C1305 C 0.26801 0.26666 0.64321 0.0
C1306 C 0.25195 0.24846 0.6668 0.0
C1307 C 0.23826 0.22876 0.64392 0.0
C1308 C 0.2408 0.22712 0.5984 0.0
C1309 C 0.2503 0.24949 0.71568 0.0
C1310 C 0.2578 0.22632 0.74611 0.0
C1311 C 0.24287 0.27355 0.73256 0.0
C1312 C 0.23254 0.29796 0.70202 0.0
C1313 C 0.21029 0.29641 0.66917 0.0
C1314 C 0.20055 0.31943 0.64048 0.0
C1315 C 0.2129 0.34415 0.64429 0.0
C1316 C 0.2349 0.34592 0.67704 0.0
C1317 C 0.24466 0.32297 0.70596 0.0
H1318 H 0.20537 0.36193 0.62194 0.0
H1319 H 0.2904 0.1368 0.90423 0.0
H1320 H 0.76635 0.22589 0.95175 0.0
H1321 H 0.76956 0.21904 0.87328 0.0
H1322 H 0.74786 0.30292 0.83122 0.0
H1323 H 0.74515 0.31014 0.90963 0.0
H1324 H 0.72093 0.27049 0.7755 0.0
H1325 H 0.81266 0.28089 0.8372 0.0
H1326 H 0.85356 0.27108 0.89155 0.0
H1327 H 0.85625 0.18941 0.85964 0.0
H1328 H 0.8151 0.19864 0.80553 0.0
H1329 H 0.76 0.27874 0.55379 0.0
H1330 H 0.75646 0.2854 0.63224 0.0
H1331 H 0.77892 0.20167 0.67415 0.0
H1332 H 0.782 0.19465 0.59575 0.0
H1333 H 0.80539 0.23391 0.73003 0.0
H1334 H 0.71378 0.22346 0.66822 0.0
H1335 H 0.67272 0.23311 0.61419 0.0
H1336 H 0.66965 0.31468 0.64646 0.0
H1337 H 0.71095 0.30562 0.70026 0.0
C1338 C 0.76249 0.243 0.92597 0.0
C1339 C 0.75558 0.26863 0.93741 0.0
C1340 C 0.76425 0.239 0.88097 0.0
C1341 C 0.7592 0.26051 0.84622 0.0
C1342 C 0.7518 0.28597 0.85733 0.0
C1343 C 0.75013 0.29002 0.90233 0.0
C1344 C 0.76181 0.25654 0.79837 0.0
C1345 C 0.73952 0.26283 0.76549 0.0
C1346 C 0.78585 0.24598 0.78526 0.0
C1347 C 0.81064 0.24038 0.81766 0.0
C1348 C 0.82184 0.26078 0.84204 0.0
C1349 C 0.84509 0.25534 0.87276 0.0
C1350 C 0.85745 0.22962 0.87914 0.0
C1351 C 0.84662 0.20931 0.85472 0.0
C1352 C 0.82335 0.21464 0.824 0.0
C1353 C 0.76395 0.26162 0.57953 0.0
C1354 C 0.77121 0.23609 0.56805 0.0
C1355 C 0.76198 0.2655 0.62453 0.0
C1356 C 0.76716 0.24398 0.65924 0.0
C1357 C 0.77487 0.21862 0.64808 0.0
C1358 C 0.77675 0.21468 0.60309 0.0
C1359 C 0.7645 0.24788 0.70712 0.0
C1360 C 0.78679 0.24157 0.74002 0.0
C1361 C 0.74045 0.25841 0.72024 0.0
C1362 C 0.71563 0.26394 0.68791 0.0
C1363 C 0.70449 0.24352 0.66351 0.0
C1364 C 0.68115 0.24887 0.63298 0.0
C1365 C 0.66863 0.27451 0.6268 0.0
C1366 C 0.6794 0.29484 0.65123 0.0
C1367 C 0.70276 0.28961 0.68176 0.0
H1368 H 0.65055 0.27861 0.60317 0.0
H1369 H 0.87545 0.22545 0.90292 0.0
H1370 H 0.792 0.75921 0.45531 0.0
H1371 H 0.79417 0.75387 0.3759 0.0
H1372 H 0.70754 0.76407 0.34932 0.0
H1373 H 0.70522 0.76927 0.42874 0.0
H1374 H 0.72451 0.72425 0.30695 0.0
H1375 H 0.74989 0.81569 0.32051 0.0
H1376 H 0.77618 0.8518 0.35271 0.0
H1377 H 0.84907 0.81752 0.31689 0.0
H1378 H 0.82325 0.78098 0.28502 0.0
H1379 H 0.71693 0.74694 0.06777 0.0
H1380 H 0.71397 0.75263 0.14689 0.0
H1381 H 0.80051 0.74233 0.17581 0.0
H1382 H 0.80361 0.73677 0.0968 0.0
H1383 H 0.78307 0.78259 0.21674 0.0
H1384 H 0.75764 0.69092 0.20378 0.0
H1385 H 0.73126 0.65491 0.1714 0.0
H1386 H 0.65833 0.68983 0.20589 0.0
H1387 H 0.68424 0.72627 0.23795 0.0
C1388 C 0.77342 0.76042 0.43252 0.0
C1389 C 0.74844 0.76478 0.44836 0.0
C1390 C 0.77468 0.75737 0.3871 0.0
C1391 C 0.75105 0.75896 0.3564 0.0
C1392 C 0.72605 0.76277 0.37231 0.0
C1393 C 0.72475 0.76566 0.41778 0.0
C1394 C 0.75237 0.75681 0.30769 0.0
C1395 C 0.73704 0.73726 0.28709 0.0
C1396 C 0.76912 0.7734 0.28188 0.0
C1397 C 0.78467 0.79546 0.30076 0.0
C1398 C 0.77155 0.81574 0.31979 0.0
C1399 C 0.78636 0.8363 0.33794 0.0
C1400 C 0.81428 0.83692 0.33695 0.0
C1401 C 0.82744 0.817 0.31769 0.0
C1402 C 0.81273 0.79638 0.29954 0.0
C1403 C 0.73531 0.74578 0.09104 0.0
C1404 C 0.7605 0.74132 0.07598 0.0
C1405 C 0.7336 0.74903 0.13627 0.0
C1406 C 0.75699 0.74755 0.16752 0.0
C1407 C 0.78218 0.74358 0.15238 0.0
C1408 C 0.78393 0.74048 0.10714 0.0
C1409 C 0.75527 0.74998 0.21603 0.0
C1410 C 0.77052 0.7696 0.23659 0.0
C1411 C 0.73843 0.73347 0.24179 0.0
C1412 C 0.72285 0.71146 0.22287 0.0
C1413 C 0.73595 0.69102 0.20418 0.0
C1414 C 0.72109 0.67052 0.18593 0.0
C1415 C 0.69313 0.67012 0.18648 0.0
C1416 C 0.67998 0.69018 0.20543 0.0
C1417 C 0.69475 0.71075 0.22368 0.0
H1418 H 0.68166 0.65424 0.17232 0.0
H1419 H 0.82572 0.85285 0.35102 0.0
H1420 H 0.44822 0.49779 0.66279 0.0
H1421 H 0.45613 0.49642 0.58443 0.0
H1422 H 0.54173 0.50199 0.62204 0.0
H1423 H 0.53412 0.5027 0.70092 0.0
H1424 H 0.524 0.53537 0.54454 0.0
H1425 H 0.51604 0.44247 0.60161 0.0
H1426 H 0.49466 0.40326 0.63933 0.0
H1427 H 0.42555 0.41494 0.53896 0.0
H1428 H 0.44635 0.4545 0.50098 0.0
H1429 H 0.56918 0.49595 0.34581 0.0
H1430 H 0.56064 0.49758 0.42379 0.0
H1431 H 0.47523 0.49171 0.38449 0.0
H1432 H 0.48351 0.49075 0.30592 0.0
H1433 H 0.49244 0.4587 0.46259 0.0
H1434 H 0.50051 0.55139 0.40516 0.0
H1435 H 0.52186 0.59063 0.36744 0.0
H1436 H 0.59068 0.57942 0.46844 0.0
H1437 H 0.56991 0.53984 0.50642 0.0
C1438 C 0.4688 0.49842 0.65468 0.0
C1439 C 0.49054 0.50009 0.68859 0.0
C1440 C 0.47327 0.49775 0.60968 0.0
C1441 C 0.49956 0.49878 0.59731 0.0
C1442 C 0.52126 0.50115 0.63073 0.0
C1443 C 0.51683 0.50168 0.67587 0.0
C1444 C 0.50435 0.4972 0.54959 0.0
C1445 C 0.51743 0.51843 0.52683 0.0
C1446 C 0.4952 0.47542 0.52601 0.0
C1447 C 0.48263 0.45163 0.54873 0.0
C1448 C 0.49618 0.43683 0.5878 0.0
C1449 C 0.48418 0.41451 0.60919 0.0
C1450 C 0.45873 0.40666 0.59163 0.0
C1451 C 0.44524 0.42107 0.55257 0.0
C1452 C 0.45714 0.44344 0.53108 0.0
C1453 C 0.54851 0.49529 0.35348 0.0
C1454 C 0.52703 0.49344 0.31922 0.0
C1455 C 0.54368 0.49613 0.39826 0.0
C1456 C 0.51726 0.49511 0.41003 0.0
C1457 C 0.49579 0.49255 0.37626 0.0
C1458 C 0.5006 0.49186 0.33132 0.0
C1459 C 0.51213 0.49685 0.45756 0.0
C1460 C 0.49899 0.47566 0.48028 0.0
C1461 C 0.52121 0.51867 0.48111 0.0
C1462 C 0.53377 0.54247 0.45837 0.0
C1463 C 0.52031 0.55714 0.41911 0.0
C1464 C 0.53228 0.57947 0.39772 0.0
C1465 C 0.55764 0.58747 0.41546 0.0
C1466 C 0.57105 0.57318 0.45469 0.0
C1467 C 0.55918 0.5508 0.47619 0.0
H1468 H 0.56687 0.60477 0.39886 0.0
H1469 H 0.44948 0.38936 0.60823 0.0
H1470 H 0.98952 0.46432 0.83174 0.0
H1471 H 0.98563 0.46674 0.9118 0.0
H1472 H 0.04703 0.52661 0.91558 0.0
H1473 H 0.05086 0.52443 0.83535 0.0
H1474 H 0.05509 0.48415 0.98807 0.0
H1475 H 0.98567 0.54737 0.91588 0.0
H1476 H 0.94545 0.56295 0.86299 0.0
H1477 H 0.89859 0.50191 0.92788 0.0
H1478 H 0.93866 0.4857 0.9808 0.0
H1479 H 0.03711 0.53025 0.1983 0.0
H1480 H 0.04191 0.52558 0.11952 0.0
H1481 H 0.9743 0.47271 0.11381 0.0
H1482 H 0.969 0.4778 0.19246 0.0
H1483 H 0.96942 0.51099 0.0421 0.0
H1484 H 0.03846 0.44665 0.11249 0.0
H1485 H 0.07865 0.42997 0.16466 0.0
H1486 H 0.12561 0.49255 0.1042 0.0
H1487 H 0.08575 0.50942 0.05125 0.0
C1488 C 1.00214 0.47804 0.84964 0.0
C1489 C 0.02044 0.49424 0.82728 0.0
C1490 C 0.99984 0.47946 0.8953 0.0
C1491 C 0.01601 0.49689 0.91962 0.0
C1492 C 0.03437 0.51303 0.89744 0.0
C1493 C 0.03639 0.51191 0.85158 0.0
C1494 C 0.01387 0.49805 0.96831 0.0
C1495 C 0.03647 0.49036 0.99987 0.0
C1496 C 0.98938 0.50547 0.98378 0.0
C1497 C 0.96525 0.51512 0.95198 0.0
C1498 C 0.96686 0.53709 0.9186 0.0
C1499 C 0.94408 0.54607 0.88867 0.0
C1500 C 0.9195 0.53337 0.89198 0.0
C1501 C 0.91765 0.51169 0.92531 0.0
C1502 C 0.94039 0.50261 0.9553 0.0
C1503 C 0.02329 0.51756 0.18033 0.0
C1504 C 1.0026 0.50448 0.20168 0.0
C1505 C 0.02621 0.51472 0.13536 0.0
C1506 C 0.00855 0.49867 0.11069 0.0
C1507 C 0.98818 0.48518 0.13213 0.0
C1508 C 0.98532 0.48792 0.17723 0.0
C1509 C 0.01064 0.49702 0.06201 0.0
C1510 C 0.98803 0.50468 0.03039 0.0
C1511 C 0.03508 0.48947 0.04649 0.0
C1512 C 0.05908 0.47944 0.07822 0.0
C1513 C 0.05732 0.45695 0.11052 0.0
C1514 C 0.08004 0.44744 0.14017 0.0
C1515 C 0.1046 0.46034 0.13805 0.0
C1516 C 0.10655 0.48263 0.10591 0.0
C1517 C 0.08394 0.49209 0.07592 0.0
H1518 H 0.12213 0.453 0.16116 0.0
H1519 H 0.90188 0.54036 0.86881 0.0
loop_
_geom_bond_atom_site_label_1
_geom_bond_atom_site_label_2
_geom_bond_distance
_geom_bond_site_symmetry_2
_ccdc_geom_bond_type
Ho0 C3 2.811 1_655 S
Ho0 O20 2.322 1_665 S
Ho0 O22 2.378 1_655 S
Ho0 O23 2.524 1_565 S
Ho0 O24 2.381 1_655 S
Ho0 O25 2.669 1_655 S
Ho0 O27 2.346 . S
Ho0 O31 2.305 1_565 S
Ho1 C12 2.811 1_455 S
Ho1 O21 2.346 . S
Ho1 O25 2.305 1_545 S
Ho1 O26 2.322 1_445 S
Ho1 O28 2.378 1_455 S
Ho1 O29 2.524 1_545 S
Ho1 O30 2.381 1_455 S
Ho1 O31 2.669 1_455 S
C2 O20 1.259 . S
C2 O21 1.268 . S
C3 Ho0 2.811 1_455 S
C3 C4 1.488 . S
C3 O22 1.215 . S
C3 O23 1.289 1_465 S
C4 C3 1.488 . S
C4 C5 1.348 1_565 S
C4 C9 1.413 . S
C5 C4 1.348 1_545 S
C5 C6 1.442 . S
C5 H32 0.930 1_455 S
C6 C5 1.442 . S
C6 C7 1.381 . S
C6 H33 0.931 . S
C7 C6 1.381 . S
C7 C8 1.321 1_545 S
C8 C7 1.321 1_565 S
C8 C9 1.403 . S
C8 H34 0.934 . S
C9 C4 1.413 . S
C9 C8 1.403 . S
C9 H35 0.930 . S
C10 O24 1.275 . S
C10 O25 1.256 . S
C11 O26 1.259 . S
C11 O27 1.268 . S
C12 Ho1 2.811 1_655 S
C12 C13 1.488 . S
C12 O28 1.215 . S
C12 O29 1.289 1_645 S
C13 C12 1.488 . S
C13 C14 1.348 1_545 S
C13 C18 1.413 . S
C14 C13 1.348 1_565 S
C14 C15 1.442 . S
C14 H36 0.930 1_655 S
C15 C14 1.442 . S
C15 C16 1.381 . S
C15 H37 0.931 . S
C16 C15 1.381 . S
C16 C17 1.321 1_565 S
C17 C16 1.321 1_545 S
C17 C18 1.403 . S
C17 H38 0.934 . S
C18 C13 1.413 . S
C18 C17 1.403 . S
C18 H39 0.930 . S
C19 O30 1.275 . S
C19 O31 1.256 . S
O20 Ho0 2.322 1_445 S
O20 C2 1.259 . S
O21 Ho1 2.346 . S
O21 C2 1.268 . S
O22 Ho0 2.378 1_455 S
O22 C3 1.215 . S
O23 Ho0 2.524 1_545 S
O23 C3 1.289 1_645 S
O24 Ho0 2.381 1_455 S
O24 C10 1.275 . S
O25 Ho0 2.669 1_455 S
O25 Ho1 2.305 1_565 S
O25 C10 1.256 . S
O26 Ho1 2.322 1_665 S
O26 C11 1.259 . S
O27 Ho0 2.346 . S
O27 C11 1.268 . S
O28 Ho1 2.378 1_655 S
O28 C12 1.215 . S
O29 Ho1 2.524 1_565 S
O29 C12 1.289 1_465 S
O30 Ho1 2.381 1_655 S
O30 C19 1.275 . S
O31 Ho0 2.305 1_545 S
O31 Ho1 2.669 1_655 S
O31 C19 1.256 . S
H32 C5 0.930 1_655 S
H33 C6 0.931 . S
H34 C8 0.934 . S
H35 C9 0.930 . S
H36 C14 0.930 1_455 S
H37 C15 0.931 . S
H38 C17 0.934 . S
H39 C18 0.930 . S
Ho40 C43 2.811 . S
Ho40 O60 2.322 . S
Ho40 O62 2.378 . S
Ho40 O63 2.524 . S
Ho40 O64 2.381 . S
Ho40 O65 2.669 . S
Ho40 O67 2.346 . S
Ho40 O71 2.305 . S
Ho41 C52 2.811 . S
Ho41 O61 2.346 . S
Ho41 O65 2.305 . S
Ho41 O66 2.322 . S
Ho41 O68 2.378 . S
Ho41 O69 2.524 . S
Ho41 O70 2.381 . S
Ho41 O71 2.669 . S
C42 O60 1.259 . S
C42 O61 1.268 . S
C43 Ho40 2.811 . S
C43 C44 1.488 . S
C43 O62 1.215 . S
C43 O63 1.289 . S
C44 C43 1.488 . S
C44 C45 1.348 . S
C44 C49 1.413 . S
C45 C44 1.348 . S
C45 C46 1.442 1_556 S
C45 H72 0.930 . S
C46 C45 1.442 1_554 S
C46 C47 1.381 . S
C46 H73 0.931 . S
C47 C46 1.381 . S
C47 C48 1.321 1_554 S
C48 C47 1.321 1_556 S
C48 C49 1.403 . S
C48 H74 0.934 1_556 S
C49 C44 1.413 . S
C49 C48 1.403 . S
C49 H75 0.930 . S
C50 O64 1.275 . S
C50 O65 1.256 . S
C51 O66 1.259 . S
C51 O67 1.268 . S
C52 Ho41 2.811 . S
C52 C53 1.488 . S
C52 O68 1.215 . S
C52 O69 1.289 . S
C53 C52 1.488 . S
C53 C54 1.348 . S
C53 C58 1.413 . S
C54 C53 1.348 . S
C54 C55 1.442 . S
C54 H76 0.930 . S
C55 C54 1.442 . S
C55 C56 1.381 . S
C55 H77 0.931 . S
C56 C55 1.381 . S
C56 C57 1.321 . S
C57 C56 1.321 . S
C57 C58 1.403 . S
C57 H78 0.934 . S
C58 C53 1.413 . S
C58 C57 1.403 . S
C58 H79 0.930 . S
C59 O70 1.275 . S
C59 O71 1.256 . S
O60 Ho40 2.322 . S
O60 C42 1.259 . S
O61 Ho41 2.346 . S
O61 C42 1.268 . S
O62 Ho40 2.378 . S
O62 C43 1.215 . S
O63 Ho40 2.524 . S
O63 C43 1.289 . S
O64 Ho40 2.381 . S
O64 C50 1.275 . S
O65 Ho40 2.669 . S
O65 Ho41 2.305 . S
O65 C50 1.256 . S
O66 Ho41 2.322 . S
O66 C51 1.259 . S
O67 Ho40 2.346 . S
O67 C51 1.268 . S
O68 Ho41 2.378 . S
O68 C52 1.215 . S
O69 Ho41 2.524 . S
O69 C52 1.289 . S
O70 Ho41 2.381 . S
O70 C59 1.275 . S
O71 Ho40 2.305 . S
O71 Ho41 2.669 . S
O71 C59 1.256 . S
H72 C45 0.930 . S
H73 C46 0.931 . S
H74 C48 0.934 1_554 S
H75 C49 0.930 . S
H76 C54 0.930 . S
H77 C55 0.931 . S
H78 C57 0.934 . S
H79 C58 0.930 . S
Ho80 C83 2.811 . S
Ho80 O100 2.322 1_565 S
Ho80 O102 2.378 . S
Ho80 O103 2.497 1_565 S
Ho80 O104 2.381 . S
Ho80 O105 2.669 1_554 S
Ho80 O107 2.346 . S
Ho80 O111 2.305 1_565 S
Ho81 C92 2.811 . S
Ho81 O101 2.346 . S
Ho81 O105 2.305 1_545 S
Ho81 O106 2.322 1_545 S
Ho81 O108 2.378 . S
Ho81 O109 2.503 1_545 S
Ho81 O110 2.381 . S
Ho81 O111 2.669 1_556 S
C82 O100 1.259 . S
C82 O101 1.268 1_554 S
C83 Ho80 2.811 . S
C83 C84 1.488 . S
C83 O102 1.215 . S
C83 O103 1.259 1_565 S
C84 C83 1.488 . S
C84 C85 1.348 1_565 S
C84 C89 1.413 . S
C85 C84 1.348 1_545 S
C85 C86 1.442 . S
C85 H112 0.930 . S
C86 C85 1.442 . S
C86 C87 1.381 1_545 S
C86 H113 0.931 . S
C87 C86 1.381 1_565 S
C87 C88 1.321 . S
C88 C87 1.321 . S
C88 C89 1.403 . S
C88 H114 0.934 . S
C89 C84 1.413 . S
C89 C88 1.403 . S
C89 H115 0.930 . S
C90 O104 1.275 1_556 S
C90 O105 1.256 . S
C91 O106 1.259 . S
C91 O107 1.268 1_556 S
C92 Ho81 2.811 . S
C92 C93 1.488 . S
C92 O108 1.215 . S
C92 O109 1.266 1_545 S
C93 C92 1.488 . S
C93 C94 1.348 1_545 S
C93 C98 1.413 . S
C94 C93 1.348 1_565 S
C94 C95 1.442 . S
C94 H116 0.930 . S
C95 C94 1.442 . S
C95 C96 1.381 1_565 S
C95 H117 0.931 . S
C96 C95 1.381 1_545 S
C96 C97 1.321 . S
C97 C96 1.321 . S
C97 C98 1.403 . S
C97 H118 0.934 . S
C98 C93 1.413 . S
C98 C97 1.403 . S
C98 H119 0.930 . S
C99 O110 1.275 1_554 S
C99 O111 1.256 . S
O100 Ho80 2.322 1_545 S
O100 C82 1.259 . S
O101 Ho81 2.346 . S
O101 C82 1.268 1_556 S
O102 Ho80 2.378 . S
O102 C83 1.215 . S
O103 Ho80 2.497 1_545 S
O103 C83 1.259 1_545 S
O104 Ho80 2.381 . S
O104 C90 1.275 1_554 S
O105 Ho80 2.669 1_556 S
O105 Ho81 2.305 1_565 S
O105 C90 1.256 . S
O106 Ho81 2.322 1_565 S
O106 C91 1.259 . S
O107 Ho80 2.346 . S
O107 C91 1.268 1_554 S
O108 Ho81 2.378 . S
O108 C92 1.215 . S
O109 Ho81 2.503 1_565 S
O109 C92 1.266 1_565 S
O110 Ho81 2.381 . S
O110 C99 1.275 1_556 S
O111 Ho80 2.305 1_545 S
O111 Ho81 2.669 1_554 S
O111 C99 1.256 . S
H112 C85 0.930 . S
H113 C86 0.931 . S
H114 C88 0.934 . S
H115 C89 0.930 . S
H116 C94 0.930 . S
H117 C95 0.931 . S
H118 C97 0.934 . S
H119 C98 0.930 . S
Ho120 C123 2.811 . S
Ho120 O140 2.322 . S
Ho120 O142 2.378 . S
Ho120 O143 2.524 . S
Ho120 O144 2.381 . S
Ho120 O145 2.669 . S
Ho120 O147 2.346 . S
Ho120 O151 2.305 . S
Ho121 C132 2.811 . S
Ho121 O141 2.346 . S
Ho121 O145 2.305 . S
Ho121 O146 2.322 . S
Ho121 O148 2.378 . S
Ho121 O149 2.524 . S
Ho121 O150 2.381 . S
Ho121 O151 2.669 . S
C122 O140 1.259 . S
C122 O141 1.268 . S
C123 Ho120 2.811 . S
C123 C124 1.488 . S
C123 O142 1.215 . S
C123 O143 1.289 . S
C124 C123 1.488 . S
C124 C125 1.348 . S
C124 C129 1.413 . S
C125 C124 1.348 . S
C125 C126 1.439 1_554 S
C125 H152 0.930 . S
C126 C125 1.439 1_556 S
C126 C127 1.382 . S
C126 H153 0.932 . S
C127 C126 1.382 . S
C127 C128 1.321 . S
C128 C127 1.321 . S
C128 C129 1.403 1_556 S
C128 H154 0.934 . S
C129 C124 1.413 . S
C129 C128 1.403 1_554 S
C129 H155 0.930 . S
C130 O144 1.275 . S
C130 O145 1.256 . S
C131 O146 1.259 . S
C131 O147 1.268 . S
C132 Ho121 2.811 . S
C132 C133 1.488 . S
C132 O148 1.215 . S
C132 O149 1.289 . S
C133 C132 1.488 . S
C133 C134 1.348 . S
C133 C138 1.413 . S
C134 C133 1.348 . S
C134 C135 1.442 . S
C134 H156 0.930 . S
C135 C134 1.442 . S
C135 C136 1.381 . S
C135 H157 0.931 . S
C136 C135 1.381 . S
C136 C137 1.321 . S
C137 C136 1.321 . S
C137 C138 1.403 . S
C137 H158 0.934 . S
C138 C133 1.413 . S
C138 C137 1.403 . S
C138 H159 0.930 . S
C139 O150 1.275 . S
C139 O151 1.256 . S
O140 Ho120 2.322 . S
O140 C122 1.259 . S
O141 Ho121 2.346 . S
O141 C122 1.268 . S
O142 Ho120 2.378 . S
O142 C123 1.215 . S
O143 Ho120 2.524 . S
O143 C123 1.289 . S
O144 Ho120 2.381 . S
O144 C130 1.275 . S
O145 Ho120 2.669 . S
O145 Ho121 2.305 . S
O145 C130 1.256 . S
O146 Ho121 2.322 . S
O146 C131 1.259 . S
O147 Ho120 2.346 . S
O147 C131 1.268 . S
O148 Ho121 2.378 . S
O148 C132 1.215 . S
O149 Ho121 2.524 . S
O149 C132 1.289 . S
O150 Ho121 2.381 . S
O150 C139 1.275 . S
O151 Ho120 2.305 . S
O151 Ho121 2.669 . S
O151 C139 1.256 . S
H152 C125 0.930 . S
H153 C126 0.932 . S
H154 C128 0.934 . S
H155 C129 0.930 . S
H156 C134 0.930 . S
H157 C135 0.931 . S
H158 C137 0.934 . S
H159 C138 0.930 . S
Ho160 C163 2.811 . S
Ho160 O180 2.322 . S
Ho160 O182 2.378 . S
Ho160 O183 2.524 . S
Ho160 O184 2.381 . S
Ho160 O185 2.669 . S
Ho160 O187 2.346 . S
Ho160 O191 2.305 . S
Ho161 C172 2.811 . S
Ho161 O181 2.346 . S
Ho161 O185 2.305 . S
Ho161 O186 2.322 . S
Ho161 O188 2.378 . S
Ho161 O189 2.524 . S
Ho161 O190 2.381 . S
Ho161 O191 2.669 . S
C162 O180 1.259 . S
C162 O181 1.268 . S
C163 Ho160 2.811 . S
C163 C164 1.488 . S
C163 O182 1.215 . S
C163 O183 1.289 . S
C164 C163 1.488 . S
C164 C165 1.348 . S
C164 C169 1.413 . S
C165 C164 1.348 . S
C165 C166 1.442 . S
C165 H192 0.930 . S
C166 C165 1.442 . S
C166 C167 1.381 . S
C166 H193 0.931 . S
C167 C166 1.381 . S
C167 C168 1.321 . S
C168 C167 1.321 . S
C168 C169 1.403 . S
C168 H194 0.934 . S
C169 C164 1.413 . S
C169 C168 1.403 . S
C169 H195 0.930 . S
C170 O184 1.275 . S
C170 O185 1.256 . S
C171 O186 1.259 . S
C171 O187 1.268 . S
C172 Ho161 2.811 . S
C172 C173 1.488 . S
C172 O188 1.215 . S
C172 O189 1.289 . S
C173 C172 1.488 . S
C173 C174 1.348 . S
C173 C178 1.413 . S
C174 C173 1.348 . S
C174 C175 1.442 1_554 S
C174 H196 0.930 . S
C175 C174 1.442 1_556 S
C175 C176 1.381 . S
C175 H197 0.931 . S
C176 C175 1.381 . S
C176 C177 1.321 1_556 S
C177 C176 1.321 1_554 S
C177 C178 1.403 . S
C177 H198 0.934 1_554 S
C178 C173 1.413 . S
C178 C177 1.403 . S
C178 H199 0.930 . S
C179 O190 1.275 . S
C179 O191 1.256 . S
O180 Ho160 2.322 . S
O180 C162 1.259 . S
O181 Ho161 2.346 . S
O181 C162 1.268 . S
O182 Ho160 2.378 . S
O182 C163 1.215 . S
O183 Ho160 2.524 . S
O183 C163 1.289 . S
O184 Ho160 2.381 . S
O184 C170 1.275 . S
O185 Ho160 2.669 . S
O185 Ho161 2.305 . S
O185 C170 1.256 . S
O186 Ho161 2.322 . S
O186 C171 1.259 . S
O187 Ho160 2.346 . S
O187 C171 1.268 . S
O188 Ho161 2.378 . S
O188 C172 1.215 . S
O189 Ho161 2.524 . S
O189 C172 1.289 . S
O190 Ho161 2.381 . S
O190 C179 1.275 . S
O191 Ho160 2.305 . S
O191 Ho161 2.669 . S
O191 C179 1.256 . S
H192 C165 0.930 . S
H193 C166 0.931 . S
H194 C168 0.934 . S
H195 C169 0.930 . S
H196 C174 0.930 . S
H197 C175 0.931 . S
H198 C177 0.934 1_556 S
H199 C178 0.930 . S
Ho200 C203 2.811 . S
Ho200 O220 2.322 . S
Ho200 O222 2.378 . S
Ho200 O223 2.524 . S
Ho200 O224 2.381 . S
Ho200 O225 2.669 . S
Ho200 O227 2.346 . S
Ho200 O231 2.305 . S
Ho201 C212 2.811 . S
Ho201 O221 2.346 . S
Ho201 O225 2.305 . S
Ho201 O226 2.322 . S
Ho201 O228 2.378 . S
Ho201 O229 2.524 . S
Ho201 O230 2.381 . S
Ho201 O231 2.669 . S
C202 O220 1.259 . S
C202 O221 1.268 . S
C203 Ho200 2.811 . S
C203 C204 1.488 . S
C203 O222 1.215 . S
C203 O223 1.289 . S
C204 C203 1.488 . S
C204 C205 1.348 . S
C204 C209 1.413 . S
C205 C204 1.348 . S
C205 C206 1.442 . S
C205 H232 0.930 . S
C206 C205 1.442 . S
C206 C207 1.381 . S
C206 H233 0.931 . S
C207 C206 1.381 . S
C207 C208 1.321 . S
C208 C207 1.321 . S
C208 C209 1.403 . S
C208 H234 0.934 . S
C209 C204 1.413 . S
C209 C208 1.403 . S
C209 H235 0.930 . S
C210 O224 1.275 . S
C210 O225 1.256 . S
C211 O226 1.259 . S
C211 O227 1.268 . S
C212 Ho201 2.811 . S
C212 C213 1.488 . S
C212 O228 1.215 . S
C212 O229 1.289 . S
C213 C212 1.488 . S
C213 C214 1.348 . S
C213 C218 1.413 . S
C214 C213 1.348 . S
C214 C215 1.438 1_556 S
C214 H236 0.930 . S
C215 C214 1.438 1_554 S
C215 C216 1.382 . S
C215 H237 0.933 . S
C216 C215 1.382 . S
C216 C217 1.321 . S
C217 C216 1.321 . S
C217 C218 1.403 1_554 S
C217 H238 0.934 . S
C218 C213 1.413 . S
C218 C217 1.403 1_556 S
C218 H239 0.930 . S
C219 O230 1.275 . S
C219 O231 1.256 . S
O220 Ho200 2.322 . S
O220 C202 1.259 . S
O221 Ho201 2.346 . S
O221 C202 1.268 . S
O222 Ho200 2.378 . S
O222 C203 1.215 . S
O223 Ho200 2.524 . S
O223 C203 1.289 . S
O224 Ho200 2.381 . S
O224 C210 1.275 . S
O225 Ho200 2.669 . S
O225 Ho201 2.305 . S
O225 C210 1.256 . S
O226 Ho201 2.322 . S
O226 C211 1.259 . S
O227 Ho200 2.346 . S
O227 C211 1.268 . S
O228 Ho201 2.378 . S
O228 C212 1.215 . S
O229 Ho201 2.524 . S
O229 C212 1.289 . S
O230 Ho201 2.381 . S
O230 C219 1.275 . S
O231 Ho200 2.305 . S
O231 Ho201 2.669 . S
O231 C219 1.256 . S
H232 C205 0.930 . S
H233 C206 0.931 . S
H234 C208 0.934 . S
H235 C209 0.930 . S
H236 C214 0.930 . S
H237 C215 0.933 . S
H238 C217 0.934 . S
H239 C218 0.930 . S
Ho240 C243 2.811 . S
Ho240 O260 2.322 . S
Ho240 O262 2.378 . S
Ho240 O263 2.524 . S
Ho240 O264 2.381 . S
Ho240 O265 2.669 1_556 S
Ho240 O267 2.346 1_556 S
Ho240 O271 2.305 . S
Ho241 C252 2.811 . S
Ho241 O261 2.346 1_554 S
Ho241 O265 2.305 . S
Ho241 O266 2.322 . S
Ho241 O268 2.378 . S
Ho241 O269 2.524 . S
Ho241 O270 2.381 . S
Ho241 O271 2.669 1_554 S
C242 O260 1.259 . S
C242 O261 1.268 . S
C243 Ho240 2.811 . S
C243 C244 1.488 . S
C243 O262 1.215 . S
C243 O263 1.289 . S
C244 C243 1.488 . S
C244 C245 1.348 . S
C244 C249 1.413 . S
C245 C244 1.348 . S
C245 C246 1.442 . S
C245 H272 0.930 . S
C246 C245 1.442 . S
C246 C247 1.381 . S
C246 H273 0.931 . S
C247 C246 1.381 . S
C247 C248 1.321 . S
C248 C247 1.321 . S
C248 C249 1.403 . S
C248 H274 0.934 . S
C249 C244 1.413 . S
C249 C248 1.403 . S
C249 H275 0.930 . S
C250 O264 1.275 1_554 S
C250 O265 1.256 . S
C251 O266 1.259 . S
C251 O267 1.268 . S
C252 Ho241 2.811 . S
C252 C253 1.488 . S
C252 O268 1.215 . S
C252 O269 1.289 . S
C253 C252 1.488 . S
C253 C254 1.348 . S
C253 C258 1.413 . S
C254 C253 1.348 . S
C254 C255 1.442 . S
C254 H276 0.930 . S
C255 C254 1.442 . S
C255 C256 1.381 . S
C255 H277 0.931 . S
C256 C255 1.381 . S
C256 C257 1.321 . S
C257 C256 1.321 . S
C257 C258 1.403 . S
C257 H278 0.934 . S
C258 C253 1.413 . S
C258 C257 1.403 . S
C258 H279 0.930 . S
C259 O270 1.275 1_556 S
C259 O271 1.256 . S
O260 Ho240 2.322 . S
O260 C242 1.259 . S
O261 Ho241 2.346 1_556 S
O261 C242 1.268 . S
O262 Ho240 2.378 . S
O262 C243 1.215 . S
O263 Ho240 2.524 . S
O263 C243 1.289 . S
O264 Ho240 2.381 . S
O264 C250 1.275 1_556 S
O265 Ho240 2.669 1_554 S
O265 Ho241 2.305 . S
O265 C250 1.256 . S
O266 Ho241 2.322 . S
O266 C251 1.259 . S
O267 Ho240 2.346 1_554 S
O267 C251 1.268 . S
O268 Ho241 2.378 . S
O268 C252 1.215 . S
O269 Ho241 2.524 . S
O269 C252 1.289 . S
O270 Ho241 2.381 . S
O270 C259 1.275 1_554 S
O271 Ho240 2.305 . S
O271 Ho241 2.669 1_556 S
O271 C259 1.256 . S
H272 C245 0.930 . S
H273 C246 0.931 . S
H274 C248 0.934 . S
H275 C249 0.930 . S
H276 C254 0.930 . S
H277 C255 0.931 . S
H278 C257 0.934 . S
H279 C258 0.930 . S
Ho280 C283 2.811 1_455 S
Ho280 O300 2.322 1_455 S
Ho280 O302 2.378 1_455 S
Ho280 O303 2.524 . S
Ho280 O304 2.381 1_455 S
Ho280 O305 2.669 1_455 S
Ho280 O307 2.346 . S
Ho280 O311 2.305 . S
Ho281 C292 2.811 1_655 S
Ho281 O301 2.346 . S
Ho281 O305 2.305 . S
Ho281 O306 2.322 1_655 S
Ho281 O308 2.378 1_655 S
Ho281 O309 2.524 . S
Ho281 O310 2.381 1_655 S
Ho281 O311 2.669 1_655 S
C282 O300 1.259 . S
C282 O301 1.268 . S
C283 Ho280 2.811 1_655 S
C283 C284 1.488 . S
C283 O302 1.215 . S
C283 O303 1.289 1_655 S
C284 C283 1.488 . S
C284 C285 1.348 . S
C284 C289 1.413 . S
C285 C284 1.348 . S
C285 C286 1.442 . S
C285 H312 0.930 1_655 S
C286 C285 1.442 . S
C286 C287 1.381 . S
C286 H313 0.931 . S
C287 C286 1.381 . S
C287 C288 1.321 . S
C288 C287 1.321 . S
C288 C289 1.403 . S
C288 H314 0.934 . S
C289 C284 1.413 . S
C289 C288 1.403 . S
C289 H315 0.930 . S
C290 O304 1.275 . S
C290 O305 1.256 . S
C291 O306 1.259 . S
C291 O307 1.268 . S
C292 Ho281 2.811 1_455 S
C292 C293 1.488 . S
C292 O308 1.215 . S
C292 O309 1.289 1_455 S
C293 C292 1.488 . S
C293 C294 1.348 . S
C293 C298 1.413 . S
C294 C293 1.348 . S
C294 C295 1.442 . S
C294 H316 0.930 1_455 S
C295 C294 1.442 . S
C295 C296 1.381 . S
C295 H317 0.931 . S
C296 C295 1.381 . S
C296 C297 1.321 . S
C297 C296 1.321 . S
C297 C298 1.403 . S
C297 H318 0.934 . S
C298 C293 1.413 . S
C298 C297 1.403 . S
C298 H319 0.930 . S
C299 O310 1.275 . S
C299 O311 1.256 . S
O300 Ho280 2.322 1_655 S
O300 C282 1.259 . S
O301 Ho281 2.346 . S
O301 C282 1.268 . S
O302 Ho280 2.378 1_655 S
O302 C283 1.215 . S
O303 Ho280 2.524 . S
O303 C283 1.289 1_455 S
O304 Ho280 2.381 1_655 S
O304 C290 1.275 . S
O305 Ho280 2.669 1_655 S
O305 Ho281 2.305 . S
O305 C290 1.256 . S
O306 Ho281 2.322 1_455 S
O306 C291 1.259 . S
O307 Ho280 2.346 . S
O307 C291 1.268 . S
O308 Ho281 2.378 1_455 S
O308 C292 1.215 . S
O309 Ho281 2.524 . S
O309 C292 1.289 1_655 S
O310 Ho281 2.381 1_455 S
O310 C299 1.275 . S
O311 Ho280 2.305 . S
O311 Ho281 2.669 1_455 S
O311 C299 1.256 . S
H312 C285 0.930 1_455 S
H313 C286 0.931 . S
H314 C288 0.934 . S
H315 C289 0.930 . S
H316 C294 0.930 1_655 S
H317 C295 0.931 . S
H318 C297 0.934 . S
H319 C298 0.930 . S
H320 C338 0.951 . S
H321 C340 0.951 . S
H322 C342 0.950 . S
H323 C343 0.950 . S
H324 C345 0.950 . S
H325 C348 0.950 . S
H326 C349 0.950 . S
H327 C351 0.950 . S
H328 C352 0.950 . S
H329 C353 0.951 . S
H330 C355 0.951 . S
H331 C357 0.950 . S
H332 C358 0.950 . S
H333 C360 0.950 . S
H334 C363 0.950 . S
H335 C364 0.950 . S
H336 C366 0.950 . S
H337 C367 0.950 . S
C338 H320 0.951 . S
C338 C339 1.366 . S
C338 C340 1.388 . S
C339 C338 1.366 . S
C339 C343 1.385 . S
C340 H321 0.951 . S
C340 C338 1.388 . S
C340 C341 1.366 . S
C341 C340 1.366 . S
C341 C342 1.414 . S
C341 C344 1.499 . S
C342 H322 0.950 . S
C342 C341 1.414 . S
C342 C343 1.374 . S
C343 H323 0.950 . S
C343 C339 1.385 . S
C343 C342 1.374 . S
C344 C341 1.499 . S
C344 C345 1.373 . S
C344 C346 1.389 . S
C345 H324 0.950 . S
C345 C344 1.373 . S
C345 C361 1.377 . S
C346 C344 1.389 . S
C346 C347 1.524 . S
C346 C360 1.377 . S
C347 C346 1.524 . S
C347 C348 1.397 . S
C347 C352 1.363 . S
C348 H325 0.950 . S
C348 C347 1.397 . S
C348 C349 1.334 . S
C349 H326 0.950 . S
C349 C348 1.334 . S
C349 C350 1.287 . S
C350 C349 1.287 . S
C350 C351 1.524 . S
C350 H369 0.913 . S
C351 H327 0.950 . S
C351 C350 1.524 . S
C351 C352 1.415 . S
C352 H328 0.950 . S
C352 C347 1.363 . S
C352 C351 1.415 . S
C353 H329 0.951 . S
C353 C354 1.366 . S
C353 C355 1.388 . S
C354 C353 1.366 . S
C354 C358 1.385 . S
C355 H330 0.951 . S
C355 C353 1.388 . S
C355 C356 1.366 . S
C356 C355 1.366 . S
C356 C357 1.414 . S
C356 C359 1.499 . S
C357 H331 0.950 . S
C357 C356 1.414 . S
C357 C358 1.374 . S
C358 H332 0.950 . S
C358 C354 1.385 . S
C358 C357 1.374 . S
C359 C356 1.499 . S
C359 C360 1.373 . S
C359 C361 1.389 . S
C360 H333 0.950 . S
C360 C346 1.377 . S
C360 C359 1.373 . S
C361 C345 1.377 . S
C361 C359 1.389 . S
C361 C362 1.524 . S
C362 C361 1.524 . S
C362 C363 1.397 . S
C362 C367 1.363 . S
C363 H334 0.950 . S
C363 C362 1.397 . S
C363 C364 1.334 . S
C364 H335 0.950 . S
C364 C363 1.334 . S
C364 C365 1.287 . S
C365 C364 1.287 . S
C365 C366 1.524 . S
C365 H368 0.999 . S
C366 H336 0.950 . S
C366 C365 1.524 . S
C366 C367 1.415 . S
C367 H337 0.950 . S
C367 C362 1.363 . S
C367 C366 1.415 . S
H368 C365 0.999 . S
H369 C350 0.913 . S
H370 C388 0.951 . S
H371 C390 0.951 . S
H372 C392 0.950 . S
H373 C393 0.950 . S
H374 C395 0.950 . S
H375 C398 0.950 . S
H376 C399 0.950 . S
H377 C401 0.950 . S
H378 C402 0.950 . S
H379 C403 0.951 . S
H380 C405 0.951 . S
H381 C407 0.950 . S
H382 C408 0.950 . S
H383 C410 0.950 . S
H384 C413 0.950 . S
H385 C414 0.950 . S
H386 C416 0.950 . S
H387 C417 0.950 . S
C388 H370 0.951 . S
C388 C389 1.366 . S
C388 C390 1.388 . S
C389 C388 1.366 . S
C389 C393 1.385 . S
C390 H371 0.951 . S
C390 C388 1.388 . S
C390 C391 1.366 . S
C391 C390 1.366 . S
C391 C392 1.414 . S
C391 C394 1.499 . S
C392 H372 0.950 . S
C392 C391 1.414 . S
C392 C393 1.374 . S
C393 H373 0.950 . S
C393 C389 1.385 . S
C393 C392 1.374 . S
C394 C391 1.499 . S
C394 C395 1.373 . S
C394 C396 1.389 . S
C395 H374 0.950 . S
C395 C394 1.373 . S
C395 C411 1.377 . S
C396 C394 1.389 . S
C396 C397 1.524 . S
C396 C410 1.377 . S
C397 C396 1.524 . S
C397 C398 1.397 . S
C397 C402 1.363 . S
C398 H375 0.950 . S
C398 C397 1.397 . S
C398 C399 1.334 . S
C399 H376 0.950 . S
C399 C398 1.334 . S
C399 C400 1.287 . S
C400 C399 1.287 . S
C400 C401 1.524 . S
C400 H419 0.913 . S
C401 H377 0.950 . S
C401 C400 1.524 . S
C401 C402 1.415 . S
C402 H378 0.950 . S
C402 C397 1.363 . S
C402 C401 1.415 . S
C403 H379 0.951 . S
C403 C404 1.366 . S
C403 C405 1.388 . S
C404 C403 1.366 . S
C404 C408 1.385 . S
C405 H380 0.951 . S
C405 C403 1.388 . S
C405 C406 1.366 . S
C406 C405 1.366 . S
C406 C407 1.414 . S
C406 C409 1.499 . S
C407 H381 0.950 . S
C407 C406 1.414 . S
C407 C408 1.374 . S
C408 H382 0.950 . S
C408 C404 1.385 . S
C408 C407 1.374 . S
C409 C406 1.499 . S
C409 C410 1.373 . S
C409 C411 1.389 . S
C410 H383 0.950 . S
C410 C396 1.377 . S
C410 C409 1.373 . S
C411 C395 1.377 . S
C411 C409 1.389 . S
C411 C412 1.524 . S
C412 C411 1.524 . S
C412 C413 1.397 . S
C412 C417 1.363 . S
C413 H384 0.950 . S
C413 C412 1.397 . S
C413 C414 1.334 . S
C414 H385 0.950 . S
C414 C413 1.334 . S
C414 C415 1.287 . S
C415 C414 1.287 . S
C415 C416 1.524 . S
C415 H418 0.999 . S
C416 H386 0.950 . S
C416 C415 1.524 . S
C416 C417 1.415 . S
C417 H387 0.950 . S
C417 C412 1.363 . S
C417 C416 1.415 . S
H418 C415 0.999 . S
H419 C400 0.913 . S
H420 C438 0.951 . S
H421 C440 0.951 . S
H422 C442 0.950 . S
H423 C443 0.950 . S
H424 C445 0.950 . S
H425 C448 0.950 . S
H426 C449 0.950 . S
H427 C451 0.950 . S
H428 C452 0.950 . S
H429 C453 0.951 . S
H430 C455 0.951 . S
H431 C457 0.950 . S
H432 C458 0.950 . S
H433 C460 0.950 . S
H434 C463 0.950 . S
H435 C464 0.950 . S
H436 C466 0.950 . S
H437 C467 0.950 . S
C438 H420 0.951 . S
C438 C439 1.366 . S
C438 C440 1.388 . S
C439 C438 1.366 . S
C439 C443 1.385 . S
C440 H421 0.951 . S
C440 C438 1.388 . S
C440 C441 1.366 . S
C441 C440 1.366 . S
C441 C442 1.414 . S
C441 C444 1.499 . S
C442 H422 0.950 . S
C442 C441 1.414 . S
C442 C443 1.374 . S
C443 H423 0.950 . S
C443 C439 1.385 . S
C443 C442 1.374 . S
C444 C441 1.499 . S
C444 C445 1.373 . S
C444 C446 1.389 . S
C445 H424 0.950 . S
C445 C444 1.373 . S
C445 C461 1.377 . S
C446 C444 1.389 . S
C446 C447 1.524 . S
C446 C460 1.377 . S
C447 C446 1.524 . S
C447 C448 1.397 . S
C447 C452 1.363 . S
C448 H425 0.950 . S
C448 C447 1.397 . S
C448 C449 1.334 . S
C449 H426 0.950 . S
C449 C448 1.334 . S
C449 C450 1.287 . S
C450 C449 1.287 . S
C450 C451 1.524 . S
C450 H469 0.913 . S
C451 H427 0.950 . S
C451 C450 1.524 . S
C451 C452 1.415 . S
C452 H428 0.950 . S
C452 C447 1.363 . S
C452 C451 1.415 . S
C453 H429 0.951 . S
C453 C454 1.366 . S
C453 C455 1.388 . S
C454 C453 1.366 . S
C454 C458 1.385 . S
C455 H430 0.951 . S
C455 C453 1.388 . S
C455 C456 1.366 . S
C456 C455 1.366 . S
C456 C457 1.414 . S
C456 C459 1.499 . S
C457 H431 0.950 . S
C457 C456 1.414 . S
C457 C458 1.374 . S
C458 H432 0.950 . S
C458 C454 1.385 . S
C458 C457 1.374 . S
C459 C456 1.499 . S
C459 C460 1.373 . S
C459 C461 1.389 . S
C460 H433 0.950 . S
C460 C446 1.377 . S
C460 C459 1.373 . S
C461 C445 1.377 . S
C461 C459 1.389 . S
C461 C462 1.524 . S
C462 C461 1.524 . S
C462 C463 1.397 1_556 S
C462 C467 1.363 . S
C463 H434 0.950 . S
C463 C462 1.397 1_554 S
C463 C464 1.334 . S
C464 H435 0.950 . S
C464 C463 1.334 . S
C464 C465 1.287 . S
C465 C464 1.287 . S
C465 C466 1.524 . S
C465 H468 0.999 . S
C466 H436 0.950 . S
C466 C465 1.524 . S
C466 C467 1.415 1_554 S
C467 H437 0.950 . S
C467 C462 1.363 . S
C467 C466 1.415 1_556 S
H468 C465 0.999 . S
H469 C450 0.913 . S
H470 C488 0.951 . S
H471 C490 0.951 . S
H472 C492 0.950 . S
H473 C493 0.950 . S
H474 C495 0.950 . S
H475 C498 0.950 . S
H476 C499 0.950 . S
H477 C501 0.950 . S
H478 C502 0.950 . S
H479 C503 0.951 . S
H480 C505 0.951 . S
H481 C507 0.950 . S
H482 C508 0.950 . S
H483 C510 0.950 . S
H484 C513 0.950 . S
H485 C514 0.950 . S
H486 C516 0.950 . S
H487 C517 0.950 . S
C488 H470 0.951 . S
C488 C489 1.366 . S
C488 C490 1.388 . S
C489 C488 1.366 . S
C489 C493 1.385 . S
C490 H471 0.951 . S
C490 C488 1.388 . S
C490 C491 1.366 . S
C491 C490 1.366 . S
C491 C492 1.414 . S
C491 C494 1.499 . S
C492 H472 0.950 . S
C492 C491 1.414 . S
C492 C493 1.374 . S
C493 H473 0.950 . S
C493 C489 1.385 . S
C493 C492 1.374 . S
C494 C491 1.499 . S
C494 C495 1.373 . S
C494 C496 1.389 . S
C495 H474 0.950 . S
C495 C494 1.373 . S
C495 C511 1.377 . S
C496 C494 1.389 . S
C496 C497 1.524 . S
C496 C510 1.377 . S
C497 C496 1.524 . S
C497 C498 1.397 . S
C497 C502 1.363 . S
C498 H475 0.950 . S
C498 C497 1.397 . S
C498 C499 1.334 . S
C499 H476 0.950 . S
C499 C498 1.334 . S
C499 C500 1.287 . S
C500 C499 1.287 . S
C500 C501 1.524 . S
C500 H519 0.913 . S
C501 H477 0.950 . S
C501 C500 1.524 . S
C501 C502 1.415 . S
C502 H478 0.950 . S
C502 C497 1.363 . S
C502 C501 1.415 . S
C503 H479 0.951 . S
C503 C504 1.366 . S
C503 C505 1.388 . S
C504 C503 1.366 . S
C504 C508 1.385 . S
C505 H480 0.951 . S
C505 C503 1.388 . S
C505 C506 1.366 . S
C506 C505 1.366 . S
C506 C507 1.414 . S
C506 C509 1.499 . S
C507 H481 0.950 . S
C507 C506 1.414 . S
C507 C508 1.374 . S
C508 H482 0.950 . S
C508 C504 1.385 . S
C508 C507 1.374 . S
C509 C506 1.499 . S
C509 C510 1.373 . S
C509 C511 1.389 . S
C510 H483 0.950 . S
C510 C496 1.377 . S
C510 C509 1.373 . S
C511 C495 1.377 . S
C511 C509 1.389 . S
C511 C512 1.524 . S
C512 C511 1.524 . S
C512 C513 1.397 . S
C512 C517 1.363 . S
C513 H484 0.950 . S
C513 C512 1.397 . S
C513 C514 1.334 . S
C514 H485 0.950 . S
C514 C513 1.334 . S
C514 C515 1.287 . S
C515 C514 1.287 . S
C515 C516 1.524 1_554 S
C515 H518 0.999 . S
C516 H486 0.950 . S
C516 C515 1.524 1_556 S
C516 C517 1.415 1_556 S
C517 H487 0.950 . S
C517 C512 1.363 . S
C517 C516 1.415 1_554 S
H518 C515 0.999 . S
H519 C500 0.913 . S
H520 C538 0.951 . S
H521 C540 0.951 . S
H522 C542 0.950 . S
H523 C543 0.950 . S
H524 C545 0.950 . S
H525 C548 0.950 . S
H526 C549 0.950 . S
H527 C551 0.950 . S
H528 C552 0.950 . S
H529 C553 0.951 . S
H530 C555 0.951 . S
H531 C557 0.950 . S
H532 C558 0.950 . S
H533 C560 0.950 . S
H534 C563 0.950 . S
H535 C564 0.950 . S
H536 C566 0.950 . S
H537 C567 0.950 . S
C538 H520 0.951 . S
C538 C539 1.366 . S
C538 C540 1.388 . S
C539 C538 1.366 . S
C539 C543 1.385 . S
C540 H521 0.951 . S
C540 C538 1.388 . S
C540 C541 1.366 . S
C541 C540 1.366 . S
C541 C542 1.414 . S
C541 C544 1.499 . S
C542 H522 0.950 . S
C542 C541 1.414 . S
C542 C543 1.374 . S
C543 H523 0.950 . S
C543 C539 1.385 . S
C543 C542 1.374 . S
C544 C541 1.499 . S
C544 C545 1.373 . S
C544 C546 1.389 . S
C545 H524 0.950 . S
C545 C544 1.373 . S
C545 C561 1.377 . S
C546 C544 1.389 . S
C546 C547 1.524 . S
C546 C560 1.377 . S
C547 C546 1.524 . S
C547 C548 1.397 . S
C547 C552 1.363 . S
C548 H525 0.950 . S
C548 C547 1.397 . S
C548 C549 1.334 . S
C549 H526 0.950 . S
C549 C548 1.334 . S
C549 C550 1.287 . S
C550 C549 1.287 . S
C550 C551 1.524 . S
C550 H569 0.913 . S
C551 H527 0.950 . S
C551 C550 1.524 . S
C551 C552 1.415 . S
C552 H528 0.950 . S
C552 C547 1.363 . S
C552 C551 1.415 . S
C553 H529 0.951 . S
C553 C554 1.366 . S
C553 C555 1.388 . S
C554 C553 1.366 . S
C554 C558 1.385 . S
C555 H530 0.951 . S
C555 C553 1.388 . S
C555 C556 1.366 . S
C556 C555 1.366 . S
C556 C557 1.414 . S
C556 C559 1.499 . S
C557 H531 0.950 . S
C557 C556 1.414 . S
C557 C558 1.374 . S
C558 H532 0.950 . S
C558 C554 1.385 . S
C558 C557 1.374 . S
C559 C556 1.499 . S
C559 C560 1.373 . S
C559 C561 1.389 . S
C560 H533 0.950 . S
C560 C546 1.377 . S
C560 C559 1.373 . S
C561 C545 1.377 . S
C561 C559 1.389 . S
C561 C562 1.524 . S
C562 C561 1.524 . S
C562 C563 1.397 . S
C562 C567 1.363 . S
C563 H534 0.950 . S
C563 C562 1.397 . S
C563 C564 1.334 . S
C564 H535 0.950 . S
C564 C563 1.334 . S
C564 C565 1.287 . S
C565 C564 1.287 . S
C565 C566 1.524 . S
C565 H568 0.999 . S
C566 H536 0.950 . S
C566 C565 1.524 . S
C566 C567 1.415 . S
C567 H537 0.950 . S
C567 C562 1.363 . S
C567 C566 1.415 . S
H568 C565 0.999 . S
H569 C550 0.913 . S
H570 C588 0.951 . S
H571 C590 0.951 . S
H572 C592 0.950 . S
H573 C593 0.950 . S
H574 C595 0.950 . S
H575 C598 0.950 . S
H576 C599 0.950 . S
H577 C601 0.950 . S
H578 C602 0.950 . S
H579 C603 0.951 . S
H580 C605 0.951 . S
H581 C607 0.950 . S
H582 C608 0.950 . S
H583 C610 0.950 . S
H584 C613 0.950 . S
H585 C614 0.950 . S
H586 C616 0.950 . S
H587 C617 0.950 . S
C588 H570 0.951 . S
C588 C589 1.366 . S
C588 C590 1.388 . S
C589 C588 1.366 . S
C589 C593 1.385 . S
C590 H571 0.951 . S
C590 C588 1.388 . S
C590 C591 1.366 . S
C591 C590 1.366 . S
C591 C592 1.414 . S
C591 C594 1.499 . S
C592 H572 0.950 . S
C592 C591 1.414 . S
C592 C593 1.374 . S
C593 H573 0.950 . S
C593 C589 1.385 . S
C593 C592 1.374 . S
C594 C591 1.499 . S
C594 C595 1.373 . S
C594 C596 1.389 . S
C595 H574 0.950 . S
C595 C594 1.373 . S
C595 C611 1.377 . S
C596 C594 1.389 . S
C596 C597 1.524 . S
C596 C610 1.377 . S
C597 C596 1.524 . S
C597 C598 1.397 . S
C597 C602 1.363 . S
C598 H575 0.950 . S
C598 C597 1.397 . S
C598 C599 1.334 . S
C599 H576 0.950 . S
C599 C598 1.334 . S
C599 C600 1.287 . S
C600 C599 1.287 . S
C600 C601 1.524 . S
C600 H619 0.913 . S
C601 H577 0.950 . S
C601 C600 1.524 . S
C601 C602 1.415 . S
C602 H578 0.950 . S
C602 C597 1.363 . S
C602 C601 1.415 . S
C603 H579 0.951 . S
C603 C604 1.366 . S
C603 C605 1.388 . S
C604 C603 1.366 . S
C604 C608 1.385 . S
C605 H580 0.951 . S
C605 C603 1.388 . S
C605 C606 1.366 . S
C606 C605 1.366 . S
C606 C607 1.414 . S
C606 C609 1.499 . S
C607 H581 0.950 . S
C607 C606 1.414 . S
C607 C608 1.374 . S
C608 H582 0.950 . S
C608 C604 1.385 . S
C608 C607 1.374 . S
C609 C606 1.499 . S
C609 C610 1.373 . S
C609 C611 1.389 . S
C610 H583 0.950 . S
C610 C596 1.377 . S
C610 C609 1.373 . S
C611 C595 1.377 . S
C611 C609 1.389 . S
C611 C612 1.524 . S
C612 C611 1.524 . S
C612 C613 1.397 . S
C612 C617 1.363 . S
C613 H584 0.950 . S
C613 C612 1.397 . S
C613 C614 1.334 . S
C614 H585 0.950 . S
C614 C613 1.334 . S
C614 C615 1.287 . S
C615 C614 1.287 . S
C615 C616 1.524 . S
C615 H618 0.999 . S
C616 H586 0.950 . S
C616 C615 1.524 . S
C616 C617 1.415 . S
C617 H587 0.950 . S
C617 C612 1.363 . S
C617 C616 1.415 . S
H618 C615 0.999 . S
H619 C600 0.913 . S
H620 C638 0.951 . S
H621 C640 0.951 . S
H622 C642 0.950 . S
H623 C643 0.950 . S
H624 C645 0.950 . S
H625 C648 0.950 . S
H626 C649 0.950 . S
H627 C651 0.950 . S
H628 C652 0.950 . S
H629 C653 0.951 1_556 S
H630 C655 0.951 . S
H631 C657 0.950 . S
H632 C658 0.950 . S
H633 C660 0.950 . S
H634 C663 0.950 . S
H635 C664 0.950 . S
H636 C666 0.950 . S
H637 C667 0.950 . S
C638 H620 0.951 . S
C638 C639 1.366 . S
C638 C640 1.388 . S
C639 C638 1.366 . S
C639 C643 1.385 . S
C640 H621 0.951 . S
C640 C638 1.388 . S
C640 C641 1.366 . S
C641 C640 1.366 . S
C641 C642 1.414 . S
C641 C644 1.499 . S
C642 H622 0.950 . S
C642 C641 1.414 . S
C642 C643 1.374 . S
C643 H623 0.950 . S
C643 C639 1.385 . S
C643 C642 1.374 . S
C644 C641 1.499 . S
C644 C645 1.373 . S
C644 C646 1.389 . S
C645 H624 0.950 . S
C645 C644 1.373 . S
C645 C661 1.377 . S
C646 C644 1.389 . S
C646 C647 1.524 . S
C646 C660 1.377 . S
C647 C646 1.524 . S
C647 C648 1.397 . S
C647 C652 1.363 . S
C648 H625 0.950 . S
C648 C647 1.397 . S
C648 C649 1.334 . S
C649 H626 0.950 . S
C649 C648 1.334 . S
C649 C650 1.287 . S
C650 C649 1.287 . S
C650 C651 1.524 . S
C650 H669 0.913 . S
C651 H627 0.950 . S
C651 C650 1.524 . S
C651 C652 1.415 . S
C652 H628 0.950 . S
C652 C647 1.363 . S
C652 C651 1.415 . S
C653 H629 0.951 1_554 S
C653 C654 1.366 . S
C653 C655 1.388 . S
C654 C653 1.366 . S
C654 C658 1.385 . S
C655 H630 0.951 . S
C655 C653 1.388 . S
C655 C656 1.366 . S
C656 C655 1.366 . S
C656 C657 1.414 . S
C656 C659 1.499 . S
C657 H631 0.950 . S
C657 C656 1.414 . S
C657 C658 1.374 . S
C658 H632 0.950 . S
C658 C654 1.385 . S
C658 C657 1.374 . S
C659 C656 1.499 . S
C659 C660 1.373 . S
C659 C661 1.389 . S
C660 H633 0.950 . S
C660 C646 1.377 . S
C660 C659 1.373 . S
C661 C645 1.377 . S
C661 C659 1.389 . S
C661 C662 1.524 . S
C662 C661 1.524 . S
C662 C663 1.397 . S
C662 C667 1.363 . S
C663 H634 0.950 . S
C663 C662 1.397 . S
C663 C664 1.334 . S
C664 H635 0.950 . S
C664 C663 1.334 . S
C664 C665 1.287 . S
C665 C664 1.287 . S
C665 C666 1.524 . S
C665 H668 0.999 . S
C666 H636 0.950 . S
C666 C665 1.524 . S
C666 C667 1.415 . S
C667 H637 0.950 . S
C667 C662 1.363 . S
C667 C666 1.415 . S
H668 C665 0.999 . S
H669 C650 0.913 . S
H670 C688 0.951 . S
H671 C690 0.951 . S
H672 C692 0.950 . S
H673 C693 0.950 . S
H674 C695 0.950 . S
H675 C698 0.950 . S
H676 C699 0.950 . S
H677 C701 0.950 . S
H678 C702 0.950 . S
H679 C703 0.951 . S
H680 C705 0.951 . S
H681 C707 0.950 . S
H682 C708 0.950 . S
H683 C710 0.950 . S
H684 C713 0.950 . S
H685 C714 0.950 . S
H686 C716 0.950 . S
H687 C717 0.950 . S
C688 H670 0.951 . S
C688 C689 1.366 . S
C688 C690 1.388 . S
C689 C688 1.366 . S
C689 C693 1.385 . S
C690 H671 0.951 . S
C690 C688 1.388 . S
C690 C691 1.366 . S
C691 C690 1.366 . S
C691 C692 1.414 . S
C691 C694 1.499 . S
C692 H672 0.950 . S
C692 C691 1.414 . S
C692 C693 1.374 . S
C693 H673 0.950 . S
C693 C689 1.385 . S
C693 C692 1.374 . S
C694 C691 1.499 . S
C694 C695 1.373 . S
C694 C696 1.389 . S
C695 H674 0.950 . S
C695 C694 1.373 . S
C695 C711 1.377 . S
C696 C694 1.389 . S
C696 C697 1.524 . S
C696 C710 1.377 . S
C697 C696 1.524 . S
C697 C698 1.397 . S
C697 C702 1.363 . S
C698 H675 0.950 . S
C698 C697 1.397 . S
C698 C699 1.334 . S
C699 H676 0.950 . S
C699 C698 1.334 . S
C699 C700 1.287 . S
C700 C699 1.287 . S
C700 C701 1.524 . S
C700 H719 0.913 . S
C701 H677 0.950 . S
C701 C700 1.524 . S
C701 C702 1.415 . S
C702 H678 0.950 . S
C702 C697 1.363 . S
C702 C701 1.415 . S
C703 H679 0.951 . S
C703 C704 1.366 . S
C703 C705 1.388 . S
C704 C703 1.366 . S
C704 C708 1.385 . S
C705 H680 0.951 . S
C705 C703 1.388 . S
C705 C706 1.366 . S
C706 C705 1.366 . S
C706 C707 1.414 . S
C706 C709 1.499 . S
C707 H681 0.950 . S
C707 C706 1.414 . S
C707 C708 1.374 . S
C708 H682 0.950 . S
C708 C704 1.385 . S
C708 C707 1.374 . S
C709 C706 1.499 . S
C709 C710 1.373 . S
C709 C711 1.389 . S
C710 H683 0.950 . S
C710 C696 1.377 . S
C710 C709 1.373 . S
C711 C695 1.377 . S
C711 C709 1.389 . S
C711 C712 1.524 . S
C712 C711 1.524 . S
C712 C713 1.397 . S
C712 C717 1.363 . S
C713 H684 0.950 . S
C713 C712 1.397 . S
C713 C714 1.334 . S
C714 H685 0.950 . S
C714 C713 1.334 . S
C714 C715 1.287 . S
C715 C714 1.287 . S
C715 C716 1.524 . S
C715 H718 0.999 . S
C716 H686 0.950 . S
C716 C715 1.524 . S
C716 C717 1.415 . S
C717 H687 0.950 . S
C717 C712 1.363 . S
C717 C716 1.415 . S
H718 C715 0.999 . S
H719 C700 0.913 . S
H720 C738 0.951 . S
H721 C740 0.951 . S
H722 C742 0.950 . S
H723 C743 0.950 . S
H724 C745 0.950 . S
H725 C748 0.950 . S
H726 C749 0.950 . S
H727 C751 0.950 1_554 S
H728 C752 0.950 . S
H729 C753 0.951 . S
H730 C755 0.951 . S
H731 C757 0.950 . S
H732 C758 0.950 . S
H733 C760 0.950 . S
H734 C763 0.950 . S
H735 C764 0.950 . S
H736 C766 0.950 . S
H737 C767 0.950 . S
C738 H720 0.951 . S
C738 C739 1.366 . S
C738 C740 1.388 . S
C739 C738 1.366 . S
C739 C743 1.385 . S
C740 H721 0.951 . S
C740 C738 1.388 . S
C740 C741 1.366 . S
C741 C740 1.366 . S
C741 C742 1.414 . S
C741 C744 1.499 . S
C742 H722 0.950 . S
C742 C741 1.414 . S
C742 C743 1.374 . S
C743 H723 0.950 . S
C743 C739 1.385 . S
C743 C742 1.374 . S
C744 C741 1.499 . S
C744 C745 1.373 . S
C744 C746 1.389 . S
C745 H724 0.950 . S
C745 C744 1.373 . S
C745 C761 1.377 . S
C746 C744 1.389 . S
C746 C747 1.524 . S
C746 C760 1.377 . S
C747 C746 1.524 . S
C747 C748 1.397 . S
C747 C752 1.363 . S
C748 H725 0.950 . S
C748 C747 1.397 . S
C748 C749 1.334 . S
C749 H726 0.950 . S
C749 C748 1.334 . S
C749 C750 1.287 . S
C750 C749 1.287 . S
C750 C751 1.524 . S
C750 H769 0.913 . S
C751 H727 0.950 1_556 S
C751 C750 1.524 . S
C751 C752 1.415 . S
C752 H728 0.950 . S
C752 C747 1.363 . S
C752 C751 1.415 . S
C753 H729 0.951 . S
C753 C754 1.366 . S
C753 C755 1.388 . S
C754 C753 1.366 . S
C754 C758 1.385 . S
C755 H730 0.951 . S
C755 C753 1.388 . S
C755 C756 1.366 . S
C756 C755 1.366 . S
C756 C757 1.414 . S
C756 C759 1.499 . S
C757 H731 0.950 . S
C757 C756 1.414 . S
C757 C758 1.374 . S
C758 H732 0.950 . S
C758 C754 1.385 . S
C758 C757 1.374 . S
C759 C756 1.499 . S
C759 C760 1.373 . S
C759 C761 1.389 . S
C760 H733 0.950 . S
C760 C746 1.377 . S
C760 C759 1.373 . S
C761 C745 1.377 . S
C761 C759 1.389 . S
C761 C762 1.524 . S
C762 C761 1.524 . S
C762 C763 1.397 . S
C762 C767 1.363 . S
C763 H734 0.950 . S
C763 C762 1.397 . S
C763 C764 1.334 . S
C764 H735 0.950 . S
C764 C763 1.334 . S
C764 C765 1.287 . S
C765 C764 1.287 . S
C765 C766 1.524 . S
C765 H768 0.999 . S
C766 H736 0.950 . S
C766 C765 1.524 . S
C766 C767 1.415 . S
C767 H737 0.950 . S
C767 C762 1.363 . S
C767 C766 1.415 . S
H768 C765 0.999 . S
H769 C750 0.913 . S
H770 C788 0.951 . S
H771 C790 0.951 . S
H772 C792 0.950 . S
H773 C793 0.950 . S
H774 C795 0.950 . S
H775 C798 0.950 . S
H776 C799 0.950 . S
H777 C801 0.950 . S
H778 C802 0.950 . S
H779 C803 0.951 . S
H780 C805 0.951 . S
H781 C807 0.950 . S
H782 C808 0.950 . S
H783 C810 0.950 . S
H784 C813 0.950 . S
H785 C814 0.950 . S
H786 C816 0.950 . S
H787 C817 0.950 . S
C788 H770 0.951 . S
C788 C789 1.366 . S
C788 C790 1.388 . S
C789 C788 1.366 . S
C789 C793 1.385 . S
C790 H771 0.951 . S
C790 C788 1.388 . S
C790 C791 1.366 . S
C791 C790 1.366 . S
C791 C792 1.414 . S
C791 C794 1.499 . S
C792 H772 0.950 . S
C792 C791 1.414 . S
C792 C793 1.374 . S
C793 H773 0.950 . S
C793 C789 1.385 . S
C793 C792 1.374 . S
C794 C791 1.499 . S
C794 C795 1.373 . S
C794 C796 1.389 . S
C795 H774 0.950 . S
C795 C794 1.373 . S
C795 C811 1.377 . S
C796 C794 1.389 . S
C796 C797 1.524 . S
C796 C810 1.377 . S
C797 C796 1.524 . S
C797 C798 1.397 . S
C797 C802 1.363 . S
C798 H775 0.950 . S
C798 C797 1.397 . S
C798 C799 1.334 . S
C799 H776 0.950 . S
C799 C798 1.334 . S
C799 C800 1.287 . S
C800 C799 1.287 . S
C800 C801 1.524 . S
C800 H819 0.913 . S
C801 H777 0.950 . S
C801 C800 1.524 . S
C801 C802 1.415 . S
C802 H778 0.950 . S
C802 C797 1.363 . S
C802 C801 1.415 . S
C803 H779 0.951 . S
C803 C804 1.366 . S
C803 C805 1.388 . S
C804 C803 1.366 . S
C804 C808 1.385 . S
C805 H780 0.951 . S
C805 C803 1.388 . S
C805 C806 1.366 . S
C806 C805 1.366 . S
C806 C807 1.414 . S
C806 C809 1.499 . S
C807 H781 0.950 . S
C807 C806 1.414 . S
C807 C808 1.374 . S
C808 H782 0.950 . S
C808 C804 1.385 . S
C808 C807 1.374 . S
C809 C806 1.499 . S
C809 C810 1.373 . S
C809 C811 1.389 . S
C810 H783 0.950 . S
C810 C796 1.377 . S
C810 C809 1.373 . S
C811 C795 1.377 . S
C811 C809 1.389 . S
C811 C812 1.524 . S
C812 C811 1.524 . S
C812 C813 1.397 . S
C812 C817 1.363 . S
C813 H784 0.950 . S
C813 C812 1.397 . S
C813 C814 1.334 1_554 S
C814 H785 0.950 . S
C814 C813 1.334 1_556 S
C814 C815 1.287 . S
C815 C814 1.287 . S
C815 C816 1.524 1_556 S
C815 H818 0.999 . S
C816 H786 0.950 . S
C816 C815 1.524 1_554 S
C816 C817 1.415 . S
C817 H787 0.950 . S
C817 C812 1.363 . S
C817 C816 1.415 . S
H818 C815 0.999 . S
H819 C800 0.913 . S
H820 C838 0.951 . S
H821 C840 0.951 . S
H822 C842 0.950 . S
H823 C843 0.950 . S
H824 C845 0.950 . S
H825 C848 0.950 . S
H826 C849 0.950 . S
H827 C851 0.950 . S
H828 C852 0.950 . S
H829 C853 0.951 . S
H830 C855 0.951 . S
H831 C857 0.950 . S
H832 C858 0.950 . S
H833 C860 0.950 . S
H834 C863 0.950 . S
H835 C864 0.950 . S
H836 C866 0.950 . S
H837 C867 0.950 . S
C838 H820 0.951 . S
C838 C839 1.366 . S
C838 C840 1.388 . S
C839 C838 1.366 . S
C839 C843 1.385 . S
C840 H821 0.951 . S
C840 C838 1.388 . S
C840 C841 1.366 . S
C841 C840 1.366 . S
C841 C842 1.414 . S
C841 C844 1.499 . S
C842 H822 0.950 . S
C842 C841 1.414 . S
C842 C843 1.374 . S
C843 H823 0.950 . S
C843 C839 1.385 . S
C843 C842 1.374 . S
C844 C841 1.499 . S
C844 C845 1.373 . S
C844 C846 1.389 . S
C845 H824 0.950 . S
C845 C844 1.373 . S
C845 C861 1.377 . S
C846 C844 1.389 . S
C846 C847 1.524 . S
C846 C860 1.377 . S
C847 C846 1.524 . S
C847 C848 1.397 . S
C847 C852 1.363 . S
C848 H825 0.950 . S
C848 C847 1.397 . S
C848 C849 1.334 . S
C849 H826 0.950 . S
C849 C848 1.334 . S
C849 C850 1.287 . S
C850 C849 1.287 . S
C850 C851 1.524 . S
C850 H869 0.913 . S
C851 H827 0.950 . S
C851 C850 1.524 . S
C851 C852 1.415 . S
C852 H828 0.950 . S
C852 C847 1.363 . S
C852 C851 1.415 . S
C853 H829 0.951 . S
C853 C854 1.366 . S
C853 C855 1.388 . S
C854 C853 1.366 . S
C854 C858 1.385 . S
C855 H830 0.951 . S
C855 C853 1.388 . S
C855 C856 1.366 . S
C856 C855 1.366 . S
C856 C857 1.414 . S
C856 C859 1.499 . S
C857 H831 0.950 . S
C857 C856 1.414 . S
C857 C858 1.374 . S
C858 H832 0.950 . S
C858 C854 1.385 . S
C858 C857 1.374 . S
C859 C856 1.499 . S
C859 C860 1.373 . S
C859 C861 1.389 . S
C860 H833 0.950 . S
C860 C846 1.377 . S
C860 C859 1.373 . S
C861 C845 1.377 . S
C861 C859 1.389 . S
C861 C862 1.524 . S
C862 C861 1.524 . S
C862 C863 1.397 . S
C862 C867 1.363 . S
C863 H834 0.950 . S
C863 C862 1.397 . S
C863 C864 1.334 . S
C864 H835 0.950 . S
C864 C863 1.334 . S
C864 C865 1.287 . S
C865 C864 1.287 . S
C865 C866 1.524 . S
C865 H868 0.999 . S
C866 H836 0.950 . S
C866 C865 1.524 . S
C866 C867 1.415 . S
C867 H837 0.950 . S
C867 C862 1.363 . S
C867 C866 1.415 . S
H868 C865 0.999 . S
H869 C850 0.913 . S
H870 C888 0.951 . S
H871 C890 0.951 . S
H872 C892 0.950 . S
H873 C893 0.950 . S
H874 C895 0.950 . S
H875 C898 0.950 . S
H876 C899 0.950 . S
H877 C901 0.950 . S
H878 C902 0.950 . S
H879 C903 0.951 . S
H880 C905 0.951 . S
H881 C907 0.950 . S
H882 C908 0.950 . S
H883 C910 0.950 . S
H884 C913 0.950 . S
H885 C914 0.950 . S
H886 C916 0.950 . S
H887 C917 0.950 . S
C888 H870 0.951 . S
C888 C889 1.366 . S
C888 C890 1.388 . S
C889 C888 1.366 . S
C889 C893 1.385 . S
C890 H871 0.951 . S
C890 C888 1.388 . S
C890 C891 1.366 . S
C891 C890 1.366 . S
C891 C892 1.414 . S
C891 C894 1.499 . S
C892 H872 0.950 . S
C892 C891 1.414 . S
C892 C893 1.374 . S
C893 H873 0.950 . S
C893 C889 1.385 . S
C893 C892 1.374 . S
C894 C891 1.499 . S
C894 C895 1.373 . S
C894 C896 1.389 . S
C895 H874 0.950 . S
C895 C894 1.373 . S
C895 C911 1.377 . S
C896 C894 1.389 . S
C896 C897 1.524 . S
C896 C910 1.377 . S
C897 C896 1.524 . S
C897 C898 1.397 . S
C897 C902 1.363 . S
C898 H875 0.950 . S
C898 C897 1.397 . S
C898 C899 1.334 . S
C899 H876 0.950 . S
C899 C898 1.334 . S
C899 C900 1.287 . S
C900 C899 1.287 . S
C900 C901 1.524 . S
C900 H919 0.913 . S
C901 H877 0.950 . S
C901 C900 1.524 . S
C901 C902 1.415 . S
C902 H878 0.950 . S
C902 C897 1.363 . S
C902 C901 1.415 . S
C903 H879 0.951 . S
C903 C904 1.366 . S
C903 C905 1.388 . S
C904 C903 1.366 . S
C904 C908 1.385 . S
C905 H880 0.951 . S
C905 C903 1.388 . S
C905 C906 1.366 . S
C906 C905 1.366 . S
C906 C907 1.414 . S
C906 C909 1.499 . S
C907 H881 0.950 . S
C907 C906 1.414 . S
C907 C908 1.374 . S
C908 H882 0.950 . S
C908 C904 1.385 . S
C908 C907 1.374 . S
C909 C906 1.499 . S
C909 C910 1.373 . S
C909 C911 1.389 . S
C910 H883 0.950 . S
C910 C896 1.377 . S
C910 C909 1.373 . S
C911 C895 1.377 . S
C911 C909 1.389 . S
C911 C912 1.524 . S
C912 C911 1.524 . S
C912 C913 1.397 . S
C912 C917 1.363 . S
C913 H884 0.950 . S
C913 C912 1.397 . S
C913 C914 1.334 . S
C914 H885 0.950 . S
C914 C913 1.334 . S
C914 C915 1.287 . S
C915 C914 1.287 . S
C915 C916 1.524 . S
C915 H918 0.999 . S
C916 H886 0.950 . S
C916 C915 1.524 . S
C916 C917 1.415 . S
C917 H887 0.950 . S
C917 C912 1.363 . S
C917 C916 1.415 . S
H918 C915 0.999 . S
H919 C900 0.913 . S
H920 C938 0.951 . S
H921 C940 0.951 . S
H922 C942 0.950 . S
H923 C943 0.950 . S
H924 C945 0.950 . S
H925 C948 0.950 . S
H926 C949 0.950 . S
H927 C951 0.950 . S
H928 C952 0.950 . S
H929 C953 0.951 . S
H930 C955 0.951 . S
H931 C957 0.950 . S
H932 C958 0.950 . S
H933 C960 0.950 . S
H934 C963 0.950 . S
H935 C964 0.950 . S
H936 C966 0.950 . S
H937 C967 0.950 . S
C938 H920 0.951 . S
C938 C939 1.366 . S
C938 C940 1.388 . S
C939 C938 1.366 . S
C939 C943 1.385 . S
C940 H921 0.951 . S
C940 C938 1.388 . S
C940 C941 1.366 . S
C941 C940 1.366 . S
C941 C942 1.414 . S
C941 C944 1.499 . S
C942 H922 0.950 . S
C942 C941 1.414 . S
C942 C943 1.374 . S
C943 H923 0.950 . S
C943 C939 1.385 . S
C943 C942 1.374 . S
C944 C941 1.499 . S
C944 C945 1.373 . S
C944 C946 1.389 . S
C945 H924 0.950 . S
C945 C944 1.373 . S
C945 C961 1.377 . S
C946 C944 1.389 . S
C946 C947 1.524 . S
C946 C960 1.377 . S
C947 C946 1.524 . S
C947 C948 1.397 . S
C947 C952 1.363 . S
C948 H925 0.950 . S
C948 C947 1.397 . S
C948 C949 1.334 . S
C949 H926 0.950 . S
C949 C948 1.334 . S
C949 C950 1.287 . S
C950 C949 1.287 . S
C950 C951 1.524 . S
C950 H969 0.913 . S
C951 H927 0.950 . S
C951 C950 1.524 . S
C951 C952 1.415 . S
C952 H928 0.950 . S
C952 C947 1.363 . S
C952 C951 1.415 . S
C953 H929 0.951 . S
C953 C954 1.366 . S
C953 C955 1.388 . S
C954 C953 1.366 . S
C954 C958 1.385 . S
C955 H930 0.951 . S
C955 C953 1.388 . S
C955 C956 1.366 . S
C956 C955 1.366 . S
C956 C957 1.414 . S
C956 C959 1.499 . S
C957 H931 0.950 . S
C957 C956 1.414 . S
C957 C958 1.374 . S
C958 H932 0.950 . S
C958 C954 1.385 . S
C958 C957 1.374 . S
C959 C956 1.499 . S
C959 C960 1.373 . S
C959 C961 1.389 . S
C960 H933 0.950 . S
C960 C946 1.377 . S
C960 C959 1.373 . S
C961 C945 1.377 . S
C961 C959 1.389 . S
C961 C962 1.524 . S
C962 C961 1.524 . S
C962 C963 1.397 . S
C962 C967 1.363 . S
C963 H934 0.950 . S
C963 C962 1.397 . S
C963 C964 1.334 . S
C964 H935 0.950 . S
C964 C963 1.334 . S
C964 C965 1.287 . S
C965 C964 1.287 . S
C965 C966 1.524 . S
C965 H968 0.999 . S
C966 H936 0.950 . S
C966 C965 1.524 . S
C966 C967 1.415 . S
C967 H937 0.950 . S
C967 C962 1.363 . S
C967 C966 1.415 . S
H968 C965 0.999 . S
H969 C950 0.913 . S
H970 C988 0.951 . S
H971 C990 0.951 . S
H972 C992 0.950 . S
H973 C993 0.950 1_554 S
H974 C995 0.950 . S
H975 C998 0.950 . S
H976 C999 0.950 . S
H977 C1001 0.950 . S
H978 C1002 0.950 . S
H979 C1003 0.951 . S
H980 C1005 0.951 . S
H981 C1007 0.950 . S
H982 C1008 0.950 . S
H983 C1010 0.950 . S
H984 C1013 0.950 . S
H985 C1014 0.950 . S
H986 C1016 0.950 1_554 S
H987 C1017 0.950 . S
C988 H970 0.951 . S
C988 C989 1.366 . S
C988 C990 1.388 . S
C989 C988 1.366 . S
C989 C993 1.385 . S
C990 H971 0.951 . S
C990 C988 1.388 . S
C990 C991 1.366 . S
C991 C990 1.366 . S
C991 C992 1.414 . S
C991 C994 1.499 . S
C992 H972 0.950 . S
C992 C991 1.414 . S
C992 C993 1.374 . S
C993 H973 0.950 1_556 S
C993 C989 1.385 . S
C993 C992 1.374 . S
C994 C991 1.499 . S
C994 C995 1.373 . S
C994 C996 1.389 . S
C995 H974 0.950 . S
C995 C994 1.373 . S
C995 C1011 1.377 . S
C996 C994 1.389 . S
C996 C997 1.524 . S
C996 C1010 1.377 . S
C997 C996 1.524 . S
C997 C998 1.397 . S
C997 C1002 1.363 . S
C998 H975 0.950 . S
C998 C997 1.397 . S
C998 C999 1.334 . S
C999 H976 0.950 . S
C999 C998 1.334 . S
C999 C1000 1.287 . S
C1000 C999 1.287 . S
C1000 C1001 1.524 . S
C1000 H1019 0.913 . S
C1001 H977 0.950 . S
C1001 C1000 1.524 . S
C1001 C1002 1.415 . S
C1002 H978 0.950 . S
C1002 C997 1.363 . S
C1002 C1001 1.415 . S
C1003 H979 0.951 . S
C1003 C1004 1.366 . S
C1003 C1005 1.388 . S
C1004 C1003 1.366 . S
C1004 C1008 1.385 . S
C1005 H980 0.951 . S
C1005 C1003 1.388 . S
C1005 C1006 1.366 . S
C1006 C1005 1.366 . S
C1006 C1007 1.414 . S
C1006 C1009 1.499 . S
C1007 H981 0.950 . S
C1007 C1006 1.414 . S
C1007 C1008 1.374 . S
C1008 H982 0.950 . S
C1008 C1004 1.385 . S
C1008 C1007 1.374 . S
C1009 C1006 1.499 . S
C1009 C1010 1.373 . S
C1009 C1011 1.389 . S
C1010 H983 0.950 . S
C1010 C996 1.377 . S
C1010 C1009 1.373 . S
C1011 C995 1.377 . S
C1011 C1009 1.389 . S
C1011 C1012 1.524 . S
C1012 C1011 1.524 . S
C1012 C1013 1.397 . S
C1012 C1017 1.363 . S
C1013 H984 0.950 . S
C1013 C1012 1.397 . S
C1013 C1014 1.334 . S
C1014 H985 0.950 . S
C1014 C1013 1.334 . S
C1014 C1015 1.287 . S
C1015 C1014 1.287 . S
C1015 C1016 1.524 . S
C1015 H1018 0.999 . S
C1016 H986 0.950 1_556 S
C1016 C1015 1.524 . S
C1016 C1017 1.415 . S
C1017 H987 0.950 . S
C1017 C1012 1.363 . S
C1017 C1016 1.415 . S
H1018 C1015 0.999 . S
H1019 C1000 0.913 . S
H1020 C1038 0.951 . S
H1021 C1040 0.951 . S
H1022 C1042 0.950 . S
H1023 C1043 0.950 . S
H1024 C1045 0.950 . S
H1025 C1048 0.950 . S
H1026 C1049 0.950 . S
H1027 C1051 0.950 . S
H1028 C1052 0.950 . S
H1029 C1053 0.951 . S
H1030 C1055 0.951 . S
H1031 C1057 0.950 . S
H1032 C1058 0.950 . S
H1033 C1060 0.950 . S
H1034 C1063 0.950 . S
H1035 C1064 0.950 . S
H1036 C1066 0.950 . S
H1037 C1067 0.950 . S
C1038 H1020 0.951 . S
C1038 C1039 1.366 . S
C1038 C1040 1.388 . S
C1039 C1038 1.366 . S
C1039 C1043 1.385 . S
C1040 H1021 0.951 . S
C1040 C1038 1.388 . S
C1040 C1041 1.366 . S
C1041 C1040 1.366 . S
C1041 C1042 1.414 . S
C1041 C1044 1.499 . S
C1042 H1022 0.950 . S
C1042 C1041 1.414 . S
C1042 C1043 1.374 . S
C1043 H1023 0.950 . S
C1043 C1039 1.385 . S
C1043 C1042 1.374 . S
C1044 C1041 1.499 . S
C1044 C1045 1.373 . S
C1044 C1046 1.389 . S
C1045 H1024 0.950 . S
C1045 C1044 1.373 . S
C1045 C1061 1.377 . S
C1046 C1044 1.389 . S
C1046 C1047 1.524 . S
C1046 C1060 1.377 . S
C1047 C1046 1.524 . S
C1047 C1048 1.397 . S
C1047 C1052 1.363 . S
C1048 H1025 0.950 . S
C1048 C1047 1.397 . S
C1048 C1049 1.334 . S
C1049 H1026 0.950 . S
C1049 C1048 1.334 . S
C1049 C1050 1.287 . S
C1050 C1049 1.287 . S
C1050 C1051 1.524 . S
C1050 H1069 0.913 . S
C1051 H1027 0.950 . S
C1051 C1050 1.524 . S
C1051 C1052 1.415 . S
C1052 H1028 0.950 . S
C1052 C1047 1.363 . S
C1052 C1051 1.415 . S
C1053 H1029 0.951 . S
C1053 C1054 1.366 . S
C1053 C1055 1.388 . S
C1054 C1053 1.366 . S
C1054 C1058 1.385 . S
C1055 H1030 0.951 . S
C1055 C1053 1.388 . S
C1055 C1056 1.366 . S
C1056 C1055 1.366 . S
C1056 C1057 1.414 . S
C1056 C1059 1.499 . S
C1057 H1031 0.950 . S
C1057 C1056 1.414 . S
C1057 C1058 1.374 . S
C1058 H1032 0.950 . S
C1058 C1054 1.385 . S
C1058 C1057 1.374 . S
C1059 C1056 1.499 . S
C1059 C1060 1.373 . S
C1059 C1061 1.389 . S
C1060 H1033 0.950 . S
C1060 C1046 1.377 . S
C1060 C1059 1.373 . S
C1061 C1045 1.377 . S
C1061 C1059 1.389 . S
C1061 C1062 1.524 . S
C1062 C1061 1.524 . S
C1062 C1063 1.397 . S
C1062 C1067 1.363 . S
C1063 H1034 0.950 . S
C1063 C1062 1.397 . S
C1063 C1064 1.334 . S
C1064 H1035 0.950 . S
C1064 C1063 1.334 . S
C1064 C1065 1.287 . S
C1065 C1064 1.287 . S
C1065 C1066 1.524 . S
C1065 H1068 0.999 . S
C1066 H1036 0.950 . S
C1066 C1065 1.524 . S
C1066 C1067 1.415 . S
C1067 H1037 0.950 . S
C1067 C1062 1.363 . S
C1067 C1066 1.415 . S
H1068 C1065 0.999 . S
H1069 C1050 0.913 . S
H1070 C1088 0.951 . S
H1071 C1090 0.951 . S
H1072 C1092 0.950 . S
H1073 C1093 0.950 . S
H1074 C1095 0.950 . S
H1075 C1098 0.950 . S
H1076 C1099 0.950 . S
H1077 C1101 0.950 . S
H1078 C1102 0.950 . S
H1079 C1103 0.951 . S
H1080 C1105 0.951 . S
H1081 C1107 0.950 . S
H1082 C1108 0.950 . S
H1083 C1110 0.950 . S
H1084 C1113 0.950 . S
H1085 C1114 0.950 . S
H1086 C1116 0.950 . S
H1087 C1117 0.950 . S
C1088 H1070 0.951 . S
C1088 C1089 1.366 . S
C1088 C1090 1.388 . S
C1089 C1088 1.366 . S
C1089 C1093 1.385 . S
C1090 H1071 0.951 . S
C1090 C1088 1.388 . S
C1090 C1091 1.366 . S
C1091 C1090 1.366 . S
C1091 C1092 1.414 . S
C1091 C1094 1.499 . S
C1092 H1072 0.950 . S
C1092 C1091 1.414 . S
C1092 C1093 1.374 . S
C1093 H1073 0.950 . S
C1093 C1089 1.385 . S
C1093 C1092 1.374 . S
C1094 C1091 1.499 . S
C1094 C1095 1.373 . S
C1094 C1096 1.389 . S
C1095 H1074 0.950 . S
C1095 C1094 1.373 . S
C1095 C1111 1.377 . S
C1096 C1094 1.389 . S
C1096 C1097 1.524 . S
C1096 C1110 1.377 . S
C1097 C1096 1.524 . S
C1097 C1098 1.397 . S
C1097 C1102 1.363 . S
C1098 H1075 0.950 . S
C1098 C1097 1.397 . S
C1098 C1099 1.334 . S
C1099 H1076 0.950 . S
C1099 C1098 1.334 . S
C1099 C1100 1.287 . S
C1100 C1099 1.287 . S
C1100 C1101 1.524 . S
C1100 H1119 0.913 . S
C1101 H1077 0.950 . S
C1101 C1100 1.524 . S
C1101 C1102 1.415 . S
C1102 H1078 0.950 . S
C1102 C1097 1.363 . S
C1102 C1101 1.415 . S
C1103 H1079 0.951 . S
C1103 C1104 1.366 . S
C1103 C1105 1.388 . S
C1104 C1103 1.366 . S
C1104 C1108 1.385 . S
C1105 H1080 0.951 . S
C1105 C1103 1.388 . S
C1105 C1106 1.366 . S
C1106 C1105 1.366 . S
C1106 C1107 1.414 . S
C1106 C1109 1.499 . S
C1107 H1081 0.950 . S
C1107 C1106 1.414 . S
C1107 C1108 1.374 . S
C1108 H1082 0.950 . S
C1108 C1104 1.385 . S
C1108 C1107 1.374 . S
C1109 C1106 1.499 . S
C1109 C1110 1.373 . S
C1109 C1111 1.389 . S
C1110 H1083 0.950 . S
C1110 C1096 1.377 . S
C1110 C1109 1.373 . S
C1111 C1095 1.377 . S
C1111 C1109 1.389 . S
C1111 C1112 1.524 . S
C1112 C1111 1.524 . S
C1112 C1113 1.397 . S
C1112 C1117 1.363 . S
C1113 H1084 0.950 . S
C1113 C1112 1.397 . S
C1113 C1114 1.334 . S
C1114 H1085 0.950 . S
C1114 C1113 1.334 . S
C1114 C1115 1.287 . S
C1115 C1114 1.287 . S
C1115 C1116 1.524 . S
C1115 H1118 0.999 . S
C1116 H1086 0.950 . S
C1116 C1115 1.524 . S
C1116 C1117 1.415 . S
C1117 H1087 0.950 . S
C1117 C1112 1.363 . S
C1117 C1116 1.415 . S
H1118 C1115 0.999 . S
H1119 C1100 0.913 . S
H1120 C1138 0.951 . S
H1121 C1140 0.951 1_545 S
H1122 C1142 0.950 . S
H1123 C1143 0.950 . S
H1124 C1145 0.950 . S
H1125 C1148 0.950 1_655 S
H1126 C1149 0.950 . S
H1127 C1151 0.950 . S
H1128 C1152 0.950 . S
H1129 C1153 0.951 . S
H1130 C1155 0.951 . S
H1131 C1157 0.950 . S
H1132 C1158 0.950 . S
H1133 C1160 0.950 . S
H1134 C1163 0.950 1_455 S
H1135 C1164 0.950 . S
H1136 C1166 0.950 . S
H1137 C1167 0.950 . S
C1138 H1120 0.951 . S
C1138 C1139 1.366 1_455 S
C1138 C1140 1.388 . S
C1139 C1138 1.366 1_655 S
C1139 C1143 1.385 . S
C1140 H1121 0.951 1_565 S
C1140 C1138 1.388 . S
C1140 C1141 1.366 1_455 S
C1141 C1140 1.366 1_655 S
C1141 C1142 1.414 . S
C1141 C1144 1.499 . S
C1142 H1122 0.950 . S
C1142 C1141 1.414 . S
C1142 C1143 1.374 . S
C1143 H1123 0.950 . S
C1143 C1139 1.385 . S
C1143 C1142 1.374 . S
C1144 C1141 1.499 . S
C1144 C1145 1.373 1_565 S
C1144 C1146 1.389 1_655 S
C1145 H1124 0.950 . S
C1145 C1144 1.373 1_545 S
C1145 C1161 1.377 1_556 S
C1146 C1144 1.389 1_455 S
C1146 C1147 1.524 . S
C1146 C1160 1.377 1_556 S
C1147 C1146 1.524 . S
C1147 C1148 1.397 . S
C1147 C1152 1.363 . S
C1148 H1125 0.950 1_455 S
C1148 C1147 1.397 . S
C1148 C1149 1.334 . S
C1149 H1126 0.950 . S
C1149 C1148 1.334 . S
C1149 C1150 1.287 . S
C1150 C1149 1.287 . S
C1150 C1151 1.524 . S
C1150 H1169 0.913 . S
C1151 H1127 0.950 . S
C1151 C1150 1.524 . S
C1151 C1152 1.415 . S
C1152 H1128 0.950 . S
C1152 C1147 1.363 . S
C1152 C1151 1.415 . S
C1153 H1129 0.951 . S
C1153 C1154 1.366 1_655 S
C1153 C1155 1.388 . S
C1154 C1153 1.366 1_455 S
C1154 C1158 1.385 . S
C1155 H1130 0.951 . S
C1155 C1153 1.388 . S
C1155 C1156 1.366 1_655 S
C1156 C1155 1.366 1_455 S
C1156 C1157 1.414 . S
C1156 C1159 1.499 . S
C1157 H1131 0.950 . S
C1157 C1156 1.414 . S
C1157 C1158 1.374 . S
C1158 H1132 0.950 . S
C1158 C1154 1.385 . S
C1158 C1157 1.374 . S
C1159 C1156 1.499 . S
C1159 C1160 1.373 1_545 S
C1159 C1161 1.389 1_455 S
C1160 H1133 0.950 . S
C1160 C1146 1.377 1_554 S
C1160 C1159 1.373 1_565 S
C1161 C1145 1.377 1_554 S
C1161 C1159 1.389 1_655 S
C1161 C1162 1.524 . S
C1162 C1161 1.524 . S
C1162 C1163 1.397 . S
C1162 C1167 1.363 . S
C1163 H1134 0.950 1_655 S
C1163 C1162 1.397 . S
C1163 C1164 1.334 . S
C1164 H1135 0.950 . S
C1164 C1163 1.334 . S
C1164 C1165 1.287 . S
C1165 C1164 1.287 . S
C1165 C1166 1.524 . S
C1165 H1168 0.999 . S
C1166 H1136 0.950 . S
C1166 C1165 1.524 . S
C1166 C1167 1.415 . S
C1167 H1137 0.950 . S
C1167 C1162 1.363 . S
C1167 C1166 1.415 . S
H1168 C1165 0.999 . S
H1169 C1150 0.913 . S
H1170 C1188 0.951 . S
H1171 C1190 0.951 . S
H1172 C1192 0.950 . S
H1173 C1193 0.950 . S
H1174 C1195 0.950 . S
H1175 C1198 0.950 . S
H1176 C1199 0.950 . S
H1177 C1201 0.950 . S
H1178 C1202 0.950 . S
H1179 C1203 0.951 . S
H1180 C1205 0.951 . S
H1181 C1207 0.950 . S
H1182 C1208 0.950 . S
H1183 C1210 0.950 . S
H1184 C1213 0.950 . S
H1185 C1214 0.950 . S
H1186 C1216 0.950 . S
H1187 C1217 0.950 . S
C1188 H1170 0.951 . S
C1188 C1189 1.366 . S
C1188 C1190 1.388 . S
C1189 C1188 1.366 . S
C1189 C1193 1.385 . S
C1190 H1171 0.951 . S
C1190 C1188 1.388 . S
C1190 C1191 1.366 . S
C1191 C1190 1.366 . S
C1191 C1192 1.414 . S
C1191 C1194 1.499 . S
C1192 H1172 0.950 . S
C1192 C1191 1.414 . S
C1192 C1193 1.374 . S
C1193 H1173 0.950 . S
C1193 C1189 1.385 . S
C1193 C1192 1.374 . S
C1194 C1191 1.499 . S
C1194 C1195 1.373 . S
C1194 C1196 1.389 . S
C1195 H1174 0.950 . S
C1195 C1194 1.373 . S
C1195 C1211 1.377 . S
C1196 C1194 1.389 . S
C1196 C1197 1.524 . S
C1196 C1210 1.377 . S
C1197 C1196 1.524 . S
C1197 C1198 1.397 . S
C1197 C1202 1.363 . S
C1198 H1175 0.950 . S
C1198 C1197 1.397 . S
C1198 C1199 1.334 . S
C1199 H1176 0.950 . S
C1199 C1198 1.334 . S
C1199 C1200 1.287 . S
C1200 C1199 1.287 . S
C1200 C1201 1.524 . S
C1200 H1219 0.913 . S
C1201 H1177 0.950 . S
C1201 C1200 1.524 . S
C1201 C1202 1.415 . S
C1202 H1178 0.950 . S
C1202 C1197 1.363 . S
C1202 C1201 1.415 . S
C1203 H1179 0.951 . S
C1203 C1204 1.366 . S
C1203 C1205 1.388 . S
C1204 C1203 1.366 . S
C1204 C1208 1.385 . S
C1205 H1180 0.951 . S
C1205 C1203 1.388 . S
C1205 C1206 1.366 . S
C1206 C1205 1.366 . S
C1206 C1207 1.414 . S
C1206 C1209 1.499 . S
C1207 H1181 0.950 . S
C1207 C1206 1.414 . S
C1207 C1208 1.374 . S
C1208 H1182 0.950 . S
C1208 C1204 1.385 . S
C1208 C1207 1.374 . S
C1209 C1206 1.499 . S
C1209 C1210 1.373 . S
C1209 C1211 1.389 . S
C1210 H1183 0.950 . S
C1210 C1196 1.377 . S
C1210 C1209 1.373 . S
C1211 C1195 1.377 . S
C1211 C1209 1.389 . S
C1211 C1212 1.524 . S
C1212 C1211 1.524 . S
C1212 C1213 1.397 . S
C1212 C1217 1.363 . S
C1213 H1184 0.950 . S
C1213 C1212 1.397 . S
C1213 C1214 1.334 . S
C1214 H1185 0.950 . S
C1214 C1213 1.334 . S
C1214 C1215 1.287 . S
C1215 C1214 1.287 . S
C1215 C1216 1.524 . S
C1215 H1218 0.999 . S
C1216 H1186 0.950 . S
C1216 C1215 1.524 . S
C1216 C1217 1.415 . S
C1217 H1187 0.950 . S
C1217 C1212 1.363 . S
C1217 C1216 1.415 . S
H1218 C1215 0.999 . S
H1219 C1200 0.913 . S
H1220 C1238 0.951 . S
H1221 C1240 0.951 . S
H1222 C1242 0.950 . S
H1223 C1243 0.950 . S
H1224 C1245 0.950 . S
H1225 C1248 0.950 . S
H1226 C1249 0.950 . S
H1227 C1251 0.950 . S
H1228 C1252 0.950 . S
H1229 C1253 0.951 . S
H1230 C1255 0.951 . S
H1231 C1257 0.950 . S
H1232 C1258 0.950 . S
H1233 C1260 0.950 . S
H1234 C1263 0.950 . S
H1235 C1264 0.950 . S
H1236 C1266 0.950 . S
H1237 C1267 0.950 . S
C1238 H1220 0.951 . S
C1238 C1239 1.366 . S
C1238 C1240 1.388 . S
C1239 C1238 1.366 . S
C1239 C1243 1.385 . S
C1240 H1221 0.951 . S
C1240 C1238 1.388 . S
C1240 C1241 1.366 . S
C1241 C1240 1.366 . S
C1241 C1242 1.414 . S
C1241 C1244 1.499 . S
C1242 H1222 0.950 . S
C1242 C1241 1.414 . S
C1242 C1243 1.374 . S
C1243 H1223 0.950 . S
C1243 C1239 1.385 . S
C1243 C1242 1.374 . S
C1244 C1241 1.499 . S
C1244 C1245 1.373 . S
C1244 C1246 1.389 1_545 S
C1245 H1224 0.950 . S
C1245 C1244 1.373 . S
C1245 C1261 1.377 . S
C1246 C1244 1.389 1_565 S
C1246 C1247 1.524 . S
C1246 C1260 1.377 . S
C1247 C1246 1.524 . S
C1247 C1248 1.397 . S
C1247 C1252 1.363 . S
C1248 H1225 0.950 . S
C1248 C1247 1.397 . S
C1248 C1249 1.334 . S
C1249 H1226 0.950 . S
C1249 C1248 1.334 . S
C1249 C1250 1.287 . S
C1250 C1249 1.287 . S
C1250 C1251 1.524 . S
C1250 H1269 0.913 . S
C1251 H1227 0.950 . S
C1251 C1250 1.524 . S
C1251 C1252 1.415 . S
C1252 H1228 0.950 . S
C1252 C1247 1.363 . S
C1252 C1251 1.415 . S
C1253 H1229 0.951 . S
C1253 C1254 1.366 . S
C1253 C1255 1.388 . S
C1254 C1253 1.366 . S
C1254 C1258 1.385 . S
C1255 H1230 0.951 . S
C1255 C1253 1.388 . S
C1255 C1256 1.366 . S
C1256 C1255 1.366 . S
C1256 C1257 1.414 . S
C1256 C1259 1.499 . S
C1257 H1231 0.950 . S
C1257 C1256 1.414 . S
C1257 C1258 1.374 . S
C1258 H1232 0.950 . S
C1258 C1254 1.385 . S
C1258 C1257 1.374 . S
C1259 C1256 1.499 . S
C1259 C1260 1.373 . S
C1259 C1261 1.389 1_565 S
C1260 H1233 0.950 . S
C1260 C1246 1.377 . S
C1260 C1259 1.373 . S
C1261 C1245 1.377 . S
C1261 C1259 1.389 1_545 S
C1261 C1262 1.524 . S
C1262 C1261 1.524 . S
C1262 C1263 1.397 . S
C1262 C1267 1.363 . S
C1263 H1234 0.950 . S
C1263 C1262 1.397 . S
C1263 C1264 1.334 . S
C1264 H1235 0.950 . S
C1264 C1263 1.334 . S
C1264 C1265 1.287 . S
C1265 C1264 1.287 . S
C1265 C1266 1.524 . S
C1265 H1268 0.999 . S
C1266 H1236 0.950 . S
C1266 C1265 1.524 . S
C1266 C1267 1.415 . S
C1267 H1237 0.950 . S
C1267 C1262 1.363 . S
C1267 C1266 1.415 . S
H1268 C1265 0.999 . S
H1269 C1250 0.913 . S
H1270 C1288 0.951 . S
H1271 C1290 0.951 . S
H1272 C1292 0.950 . S
H1273 C1293 0.950 . S
H1274 C1295 0.950 . S
H1275 C1298 0.950 . S
H1276 C1299 0.950 . S
H1277 C1301 0.950 . S
H1278 C1302 0.950 . S
H1279 C1303 0.951 . S
H1280 C1305 0.951 . S
H1281 C1307 0.950 . S
H1282 C1308 0.950 . S
H1283 C1310 0.950 . S
H1284 C1313 0.950 . S
H1285 C1314 0.950 . S
H1286 C1316 0.950 . S
H1287 C1317 0.950 . S
C1288 H1270 0.951 . S
C1288 C1289 1.366 . S
C1288 C1290 1.388 . S
C1289 C1288 1.366 . S
C1289 C1293 1.385 . S
C1290 H1271 0.951 . S
C1290 C1288 1.388 . S
C1290 C1291 1.366 . S
C1291 C1290 1.366 . S
C1291 C1292 1.414 . S
C1291 C1294 1.499 . S
C1292 H1272 0.950 . S
C1292 C1291 1.414 . S
C1292 C1293 1.374 . S
C1293 H1273 0.950 . S
C1293 C1289 1.385 . S
C1293 C1292 1.374 . S
C1294 C1291 1.499 . S
C1294 C1295 1.373 . S
C1294 C1296 1.389 . S
C1295 H1274 0.950 . S
C1295 C1294 1.373 . S
C1295 C1311 1.377 . S
C1296 C1294 1.389 . S
C1296 C1297 1.524 . S
C1296 C1310 1.377 . S
C1297 C1296 1.524 . S
C1297 C1298 1.397 . S
C1297 C1302 1.363 . S
C1298 H1275 0.950 . S
C1298 C1297 1.397 . S
C1298 C1299 1.334 . S
C1299 H1276 0.950 . S
C1299 C1298 1.334 . S
C1299 C1300 1.287 . S
C1300 C1299 1.287 . S
C1300 C1301 1.524 . S
C1300 H1319 0.913 . S
C1301 H1277 0.950 . S
C1301 C1300 1.524 . S
C1301 C1302 1.415 . S
C1302 H1278 0.950 . S
C1302 C1297 1.363 . S
C1302 C1301 1.415 . S
C1303 H1279 0.951 . S
C1303 C1304 1.366 . S
C1303 C1305 1.388 . S
C1304 C1303 1.366 . S
C1304 C1308 1.385 . S
C1305 H1280 0.951 . S
C1305 C1303 1.388 . S
C1305 C1306 1.366 . S
C1306 C1305 1.366 . S
C1306 C1307 1.414 . S
C1306 C1309 1.499 . S
C1307 H1281 0.950 . S
C1307 C1306 1.414 . S
C1307 C1308 1.374 . S
C1308 H1282 0.950 . S
C1308 C1304 1.385 . S
C1308 C1307 1.374 . S
C1309 C1306 1.499 . S
C1309 C1310 1.373 . S
C1309 C1311 1.389 . S
C1310 H1283 0.950 . S
C1310 C1296 1.377 . S
C1310 C1309 1.373 . S
C1311 C1295 1.377 . S
C1311 C1309 1.389 . S
C1311 C1312 1.524 . S
C1312 C1311 1.524 . S
C1312 C1313 1.397 . S
C1312 C1317 1.363 . S
C1313 H1284 0.950 . S
C1313 C1312 1.397 . S
C1313 C1314 1.334 . S
C1314 H1285 0.950 . S
C1314 C1313 1.334 . S
C1314 C1315 1.287 . S
C1315 C1314 1.287 . S
C1315 C1316 1.524 . S
C1315 H1318 0.999 . S
C1316 H1286 0.950 . S
C1316 C1315 1.524 . S
C1316 C1317 1.415 . S
C1317 H1287 0.950 . S
C1317 C1312 1.363 . S
C1317 C1316 1.415 . S
H1318 C1315 0.999 . S
H1319 C1300 0.913 . S
H1320 C1338 0.951 . S
H1321 C1340 0.951 . S
H1322 C1342 0.950 . S
H1323 C1343 0.950 . S
H1324 C1345 0.950 . S
H1325 C1348 0.950 . S
H1326 C1349 0.950 . S
H1327 C1351 0.950 . S
H1328 C1352 0.950 . S
H1329 C1353 0.951 . S
H1330 C1355 0.951 . S
H1331 C1357 0.950 . S
H1332 C1358 0.950 . S
H1333 C1360 0.950 . S
H1334 C1363 0.950 . S
H1335 C1364 0.950 . S
H1336 C1366 0.950 . S
H1337 C1367 0.950 . S
C1338 H1320 0.951 . S
C1338 C1339 1.366 . S
C1338 C1340 1.388 . S
C1339 C1338 1.366 . S
C1339 C1343 1.385 . S
C1340 H1321 0.951 . S
C1340 C1338 1.388 . S
C1340 C1341 1.366 . S
C1341 C1340 1.366 . S
C1341 C1342 1.414 . S
C1341 C1344 1.499 . S
C1342 H1322 0.950 . S
C1342 C1341 1.414 . S
C1342 C1343 1.374 . S
C1343 H1323 0.950 . S
C1343 C1339 1.385 . S
C1343 C1342 1.374 . S
C1344 C1341 1.499 . S
C1344 C1345 1.373 . S
C1344 C1346 1.389 . S
C1345 H1324 0.950 . S
C1345 C1344 1.373 . S
C1345 C1361 1.377 . S
C1346 C1344 1.389 . S
C1346 C1347 1.524 . S
C1346 C1360 1.377 . S
C1347 C1346 1.524 . S
C1347 C1348 1.397 . S
C1347 C1352 1.363 . S
C1348 H1325 0.950 . S
C1348 C1347 1.397 . S
C1348 C1349 1.334 . S
C1349 H1326 0.950 . S
C1349 C1348 1.334 . S
C1349 C1350 1.287 . S
C1350 C1349 1.287 . S
C1350 C1351 1.524 . S
C1350 H1369 0.913 . S
C1351 H1327 0.950 . S
C1351 C1350 1.524 . S
C1351 C1352 1.415 . S
C1352 H1328 0.950 . S
C1352 C1347 1.363 . S
C1352 C1351 1.415 . S
C1353 H1329 0.951 . S
C1353 C1354 1.366 . S
C1353 C1355 1.388 . S
C1354 C1353 1.366 . S
C1354 C1358 1.385 . S
C1355 H1330 0.951 . S
C1355 C1353 1.388 . S
C1355 C1356 1.366 . S
C1356 C1355 1.366 . S
C1356 C1357 1.414 . S
C1356 C1359 1.499 . S
C1357 H1331 0.950 . S
C1357 C1356 1.414 . S
C1357 C1358 1.374 . S
C1358 H1332 0.950 . S
C1358 C1354 1.385 . S
C1358 C1357 1.374 . S
C1359 C1356 1.499 . S
C1359 C1360 1.373 . S
C1359 C1361 1.389 . S
C1360 H1333 0.950 . S
C1360 C1346 1.377 . S
C1360 C1359 1.373 . S
C1361 C1345 1.377 . S
C1361 C1359 1.389 . S
C1361 C1362 1.524 . S
C1362 C1361 1.524 . S
C1362 C1363 1.397 . S
C1362 C1367 1.363 . S
C1363 H1334 0.950 . S
C1363 C1362 1.397 . S
C1363 C1364 1.334 . S
C1364 H1335 0.950 . S
C1364 C1363 1.334 . S
C1364 C1365 1.287 . S
C1365 C1364 1.287 . S
C1365 C1366 1.524 . S
C1365 H1368 0.999 . S
C1366 H1336 0.950 . S
C1366 C1365 1.524 . S
C1366 C1367 1.415 . S
C1367 H1337 0.950 . S
C1367 C1362 1.363 . S
C1367 C1366 1.415 . S
H1368 C1365 0.999 . S
H1369 C1350 0.913 . S
H1370 C1388 0.951 . S
H1371 C1390 0.951 . S
H1372 C1392 0.950 . S
H1373 C1393 0.950 . S
H1374 C1395 0.950 . S
H1375 C1398 0.950 . S
H1376 C1399 0.950 . S
H1377 C1401 0.950 . S
H1378 C1402 0.950 . S
H1379 C1403 0.951 . S
H1380 C1405 0.951 . S
H1381 C1407 0.950 . S
H1382 C1408 0.950 . S
H1383 C1410 0.950 . S
H1384 C1413 0.950 . S
H1385 C1414 0.950 . S
H1386 C1416 0.950 . S
H1387 C1417 0.950 . S
C1388 H1370 0.951 . S
C1388 C1389 1.366 . S
C1388 C1390 1.388 . S
C1389 C1388 1.366 . S
C1389 C1393 1.385 . S
C1390 H1371 0.951 . S
C1390 C1388 1.388 . S
C1390 C1391 1.366 . S
C1391 C1390 1.366 . S
C1391 C1392 1.414 . S
C1391 C1394 1.499 . S
C1392 H1372 0.950 . S
C1392 C1391 1.414 . S
C1392 C1393 1.374 . S
C1393 H1373 0.950 . S
C1393 C1389 1.385 . S
C1393 C1392 1.374 . S
C1394 C1391 1.499 . S
C1394 C1395 1.373 . S
C1394 C1396 1.389 . S
C1395 H1374 0.950 . S
C1395 C1394 1.373 . S
C1395 C1411 1.377 . S
C1396 C1394 1.389 . S
C1396 C1397 1.524 . S
C1396 C1410 1.377 . S
C1397 C1396 1.524 . S
C1397 C1398 1.397 . S
C1397 C1402 1.363 . S
C1398 H1375 0.950 . S
C1398 C1397 1.397 . S
C1398 C1399 1.334 . S
C1399 H1376 0.950 . S
C1399 C1398 1.334 . S
C1399 C1400 1.287 . S
C1400 C1399 1.287 . S
C1400 C1401 1.524 . S
C1400 H1419 0.913 . S
C1401 H1377 0.950 . S
C1401 C1400 1.524 . S
C1401 C1402 1.415 . S
C1402 H1378 0.950 . S
C1402 C1397 1.363 . S
C1402 C1401 1.415 . S
C1403 H1379 0.951 . S
C1403 C1404 1.366 . S
C1403 C1405 1.388 . S
C1404 C1403 1.366 . S
C1404 C1408 1.385 . S
C1405 H1380 0.951 . S
C1405 C1403 1.388 . S
C1405 C1406 1.366 . S
C1406 C1405 1.366 . S
C1406 C1407 1.414 . S
C1406 C1409 1.499 . S
C1407 H1381 0.950 . S
C1407 C1406 1.414 . S
C1407 C1408 1.374 . S
C1408 H1382 0.950 . S
C1408 C1404 1.385 . S
C1408 C1407 1.374 . S
C1409 C1406 1.499 . S
C1409 C1410 1.373 . S
C1409 C1411 1.389 . S
C1410 H1383 0.950 . S
C1410 C1396 1.377 . S
C1410 C1409 1.373 . S
C1411 C1395 1.377 . S
C1411 C1409 1.389 . S
C1411 C1412 1.524 . S
C1412 C1411 1.524 . S
C1412 C1413 1.397 . S
C1412 C1417 1.363 . S
C1413 H1384 0.950 . S
C1413 C1412 1.397 . S
C1413 C1414 1.334 . S
C1414 H1385 0.950 . S
C1414 C1413 1.334 . S
C1414 C1415 1.287 . S
C1415 C1414 1.287 . S
C1415 C1416 1.524 . S
C1415 H1418 0.999 . S
C1416 H1386 0.950 . S
C1416 C1415 1.524 . S
C1416 C1417 1.415 . S
C1417 H1387 0.950 . S
C1417 C1412 1.363 . S
C1417 C1416 1.415 . S
H1418 C1415 0.999 . S
H1419 C1400 0.913 . S
H1420 C1438 0.951 . S
H1421 C1440 0.951 . S
H1422 C1442 0.950 . S
H1423 C1443 0.950 . S
H1424 C1445 0.950 . S
H1425 C1448 0.950 . S
H1426 C1449 0.950 . S
H1427 C1451 0.950 . S
H1428 C1452 0.950 . S
H1429 C1453 0.951 . S
H1430 C1455 0.951 . S
H1431 C1457 0.950 . S
H1432 C1458 0.950 . S
H1433 C1460 0.950 . S
H1434 C1463 0.950 . S
H1435 C1464 0.950 . S
H1436 C1466 0.950 . S
H1437 C1467 0.950 . S
C1438 H1420 0.951 . S
C1438 C1439 1.366 . S
C1438 C1440 1.388 . S
C1439 C1438 1.366 . S
C1439 C1443 1.385 . S
C1440 H1421 0.951 . S
C1440 C1438 1.388 . S
C1440 C1441 1.366 . S
C1441 C1440 1.366 . S
C1441 C1442 1.414 . S
C1441 C1444 1.499 . S
C1442 H1422 0.950 . S
C1442 C1441 1.414 . S
C1442 C1443 1.374 . S
C1443 H1423 0.950 . S
C1443 C1439 1.385 . S
C1443 C1442 1.374 . S
C1444 C1441 1.499 . S
C1444 C1445 1.373 . S
C1444 C1446 1.389 . S
C1445 H1424 0.950 . S
C1445 C1444 1.373 . S
C1445 C1461 1.377 . S
C1446 C1444 1.389 . S
C1446 C1447 1.524 . S
C1446 C1460 1.377 . S
C1447 C1446 1.524 . S
C1447 C1448 1.397 . S
C1447 C1452 1.363 . S
C1448 H1425 0.950 . S
C1448 C1447 1.397 . S
C1448 C1449 1.334 . S
C1449 H1426 0.950 . S
C1449 C1448 1.334 . S
C1449 C1450 1.287 . S
C1450 C1449 1.287 . S
C1450 C1451 1.524 . S
C1450 H1469 0.913 . S
C1451 H1427 0.950 . S
C1451 C1450 1.524 . S
C1451 C1452 1.415 . S
C1452 H1428 0.950 . S
C1452 C1447 1.363 . S
C1452 C1451 1.415 . S
C1453 H1429 0.951 . S
C1453 C1454 1.366 . S
C1453 C1455 1.388 . S
C1454 C1453 1.366 . S
C1454 C1458 1.385 . S
C1455 H1430 0.951 . S
C1455 C1453 1.388 . S
C1455 C1456 1.366 . S
C1456 C1455 1.366 . S
C1456 C1457 1.414 . S
C1456 C1459 1.499 . S
C1457 H1431 0.950 . S
C1457 C1456 1.414 . S
C1457 C1458 1.374 . S
C1458 H1432 0.950 . S
C1458 C1454 1.385 . S
C1458 C1457 1.374 . S
C1459 C1456 1.499 . S
C1459 C1460 1.373 . S
C1459 C1461 1.389 . S
C1460 H1433 0.950 . S
C1460 C1446 1.377 . S
C1460 C1459 1.373 . S
C1461 C1445 1.377 . S
C1461 C1459 1.389 . S
C1461 C1462 1.524 . S
C1462 C1461 1.524 . S
C1462 C1463 1.397 . S
C1462 C1467 1.363 . S
C1463 H1434 0.950 . S
C1463 C1462 1.397 . S
C1463 C1464 1.334 . S
C1464 H1435 0.950 . S
C1464 C1463 1.334 . S
C1464 C1465 1.287 . S
C1465 C1464 1.287 . S
C1465 C1466 1.524 . S
C1465 H1468 0.999 . S
C1466 H1436 0.950 . S
C1466 C1465 1.524 . S
C1466 C1467 1.415 . S
C1467 H1437 0.950 . S
C1467 C1462 1.363 . S
C1467 C1466 1.415 . S
H1468 C1465 0.999 . S
H1469 C1450 0.913 . S
H1470 C1488 0.951 . S
H1471 C1490 0.951 . S
H1472 C1492 0.950 . S
H1473 C1493 0.950 1_455 S
H1474 C1495 0.950 . S
H1475 C1498 0.950 . S
H1476 C1499 0.950 . S
H1477 C1501 0.950 . S
H1478 C1502 0.950 1_554 S
H1479 C1503 0.951 . S
H1480 C1505 0.951 . S
H1481 C1507 0.950 . S
H1482 C1508 0.950 1_655 S
H1483 C1510 0.950 . S
H1484 C1513 0.950 . S
H1485 C1514 0.950 . S
H1486 C1516 0.950 . S
H1487 C1517 0.950 1_556 S
C1488 H1470 0.951 . S
C1488 C1489 1.366 . S
C1488 C1490 1.388 . S
C1489 C1488 1.366 . S
C1489 C1493 1.385 . S
C1490 H1471 0.951 . S
C1490 C1488 1.388 . S
C1490 C1491 1.366 . S
C1491 C1490 1.366 . S
C1491 C1492 1.414 1_655 S
C1491 C1494 1.499 . S
C1492 H1472 0.950 . S
C1492 C1491 1.414 1_455 S
C1492 C1493 1.374 1_455 S
C1493 H1473 0.950 1_655 S
C1493 C1489 1.385 . S
C1493 C1492 1.374 1_655 S
C1494 C1491 1.499 . S
C1494 C1495 1.373 1_655 S
C1494 C1496 1.389 . S
C1495 H1474 0.950 . S
C1495 C1494 1.373 1_455 S
C1495 C1511 1.377 1_556 S
C1496 C1494 1.389 . S
C1496 C1497 1.524 . S
C1496 C1510 1.377 1_556 S
C1497 C1496 1.524 . S
C1497 C1498 1.397 . S
C1497 C1502 1.363 . S
C1498 H1475 0.950 . S
C1498 C1497 1.397 . S
C1498 C1499 1.334 . S
C1499 H1476 0.950 . S
C1499 C1498 1.334 . S
C1499 C1500 1.287 . S
C1500 C1499 1.287 . S
C1500 C1501 1.524 . S
C1500 H1519 0.913 . S
C1501 H1477 0.950 . S
C1501 C1500 1.524 . S
C1501 C1502 1.415 . S
C1502 H1478 0.950 1_556 S
C1502 C1497 1.363 . S
C1502 C1501 1.415 . S
C1503 H1479 0.951 . S
C1503 C1504 1.366 . S
C1503 C1505 1.388 . S
C1504 C1503 1.366 . S
C1504 C1508 1.385 . S
C1505 H1480 0.951 . S
C1505 C1503 1.388 . S
C1505 C1506 1.366 . S
C1506 C1505 1.366 . S
C1506 C1507 1.414 1_455 S
C1506 C1509 1.499 . S
C1507 H1481 0.950 . S
C1507 C1506 1.414 1_655 S
C1507 C1508 1.374 1_655 S
C1508 H1482 0.950 1_455 S
C1508 C1504 1.385 . S
C1508 C1507 1.374 1_455 S
C1509 C1506 1.499 . S
C1509 C1510 1.373 1_455 S
C1509 C1511 1.389 . S
C1510 H1483 0.950 . S
C1510 C1496 1.377 1_554 S
C1510 C1509 1.373 1_655 S
C1511 C1495 1.377 1_554 S
C1511 C1509 1.389 . S
C1511 C1512 1.524 . S
C1512 C1511 1.524 . S
C1512 C1513 1.397 . S
C1512 C1517 1.363 . S
C1513 H1484 0.950 . S
C1513 C1512 1.397 . S
C1513 C1514 1.334 . S
C1514 H1485 0.950 . S
C1514 C1513 1.334 . S
C1514 C1515 1.287 . S
C1515 C1514 1.287 . S
C1515 C1516 1.524 . S
C1515 H1518 0.999 . S
C1516 H1486 0.950 . S
C1516 C1515 1.524 . S
C1516 C1517 1.415 . S
C1517 H1487 0.950 1_554 S
C1517 C1512 1.363 . S
C1517 C1516 1.415 . S
H1518 C1515 0.999 . S
H1519 C1500 0.913 . S
C339 C2 1.519 . S
C354 C130 1.506 . S
C389 C10 0.771 . S
C404 C50 0.772 . S
C439 C42 1.519 . S
C454 C90 1.516 . S
C489 C82 2.161 . S
C504 C122 2.156 . S
C539 C11 1.519 . S
C554 C219 1.517 . S
C589 C19 0.772 . S
C604 C179 0.770 . S
C639 C171 1.519 . S
C654 C99 1.507 . S
C689 C211 2.160 . S
C704 C91 2.165 . S
C739 C242 1.519 . S
C754 C210 1.512 . S
C789 C170 0.771 . S
C804 C250 0.770 . S
C839 C290 1.511 . S
C854 C162 1.522 . S
C889 C202 2.161 . S
C904 C282 2.163 . S
C939 C139 1.511 . S
C954 C251 1.517 . S
C989 C259 0.771 . S
C1004 C59 0.772 . S
C1039 C51 1.519 . S
C1054 C299 1.508 . S
C1089 C131 2.160 . S
C1104 C291 2.158 . S
C1139 C16 1.484 . S
C1154 C7 1.484 . S
C1189 C56 1.483 . S
C1204 C47 1.483 . S
C1239 C96 1.547 . S
C1254 C87 1.547 . S
C1289 C127 1.547 . S
C1304 C136 1.547 . S
C1339 C176 1.484 . S
C1354 C167 1.484 . S
C1389 C207 1.548 . S
C1404 C216 1.548 . S
C1439 C247 1.484 . S
C1454 C256 1.484 . S
C1489 C287 1.547 . S
C1504 C296 1.547 . S
