# Generated by pormake.
# Topology dft, (4)-cn, num edge types: 1
# Building blocks:
#     Node 0, Type 0, BuildingBlock: ICAMEG_clean_sbu_1, # of connection points: 4
#     Node 1, Type 0, BuildingBlock: ICAMEG_clean_sbu_1, # of connection points: 4
#     Node 2, Type 0, BuildingBlock: ICAMEG_clean_sbu_1, # of connection points: 4
#     Node 3, Type 0, BuildingBlock: ICAMEG_clean_sbu_1, # of connection points: 4
#     Node 4, Type 0, BuildingBlock: ICAMEG_clean_sbu_1, # of connection points: 4
#     Node 5, Type 0, BuildingBlock: ICAMEG_clean_sbu_1, # of connection points: 4
#     Node 6, Type 0, BuildingBlock: ICAMEG_clean_sbu_1, # of connection points: 4
#     Node 7, Type 0, BuildingBlock: ICAMEG_clean_sbu_1, # of connection points: 4
#     Edge 8, Type (0, 0), BuildingBlock: CIFDUS_clean_linker_0, # of connection points: 2
#     Edge 9, Type (0, 0), BuildingBlock: CIFDUS_clean_linker_0, # of connection points: 2
#     Edge 10, Type (0, 0), BuildingBlock: CIFDUS_clean_linker_0, # of connection points: 2
#     Edge 11, Type (0, 0), BuildingBlock: CIFDUS_clean_linker_0, # of connection points: 2
#     Edge 12, Type (0, 0), BuildingBlock: CIFDUS_clean_linker_0, # of connection points: 2
#     Edge 13, Type (0, 0), BuildingBlock: CIFDUS_clean_linker_0, # of connection points: 2
#     Edge 14, Type (0, 0), BuildingBlock: CIFDUS_clean_linker_0, # of connection points: 2
#     Edge 15, Type (0, 0), BuildingBlock: CIFDUS_clean_linker_0, # of connection points: 2
#     Edge 16, Type (0, 0), BuildingBlock: CIFDUS_clean_linker_0, # of connection points: 2
#     Edge 17, Type (0, 0), BuildingBlock: CIFDUS_clean_linker_0, # of connection points: 2
#     Edge 18, Type (0, 0), BuildingBlock: CIFDUS_clean_linker_0, # of connection points: 2
#     Edge 19, Type (0, 0), BuildingBlock: CIFDUS_clean_linker_0, # of connection points: 2
#     Edge 20, Type (0, 0), BuildingBlock: CIFDUS_clean_linker_0, # of connection points: 2
#     Edge 21, Type (0, 0), BuildingBlock: CIFDUS_clean_linker_0, # of connection points: 2
#     Edge 22, Type (0, 0), BuildingBlock: CIFDUS_clean_linker_0, # of connection points: 2
#     Edge 23, Type (0, 0), BuildingBlock: CIFDUS_clean_linker_0, # of connection points: 2
# Relax obj value: 0.222
# Max RMSD: 0.219
# Mean RMSD: 0.219
data_MOF--net-dft--node1-ICAMEG_clean_sbu_1--edge1-CIFDUS_clean_linker_0
_symmetry_space_group_name_H-M    P1
_symmetry_Int_Tables_number       1
_symmetry_cell_setting            triclinic
loop_
_symmetry_equiv_pos_as_xyz
'x, y, z'
_cell_length_a     30.36911
_cell_length_b     30.407808
_cell_length_c     42.10874
_cell_angle_alpha  90.098969
_cell_angle_beta   90.039152
_cell_angle_gamma 89.987892
loop_
_atom_site_label
_atom_site_type_symbol
_atom_site_fract_x
_atom_site_fract_y
_atom_site_fract_z
_atom_type_partial_charge
Co0 Co 0.27031 0.09808 0.14606 0.0
Co1 Co 0.33455 0.06423 0.2082 0.0
O2 O 0.3259 0.07357 0.16221 0.0
C3 C 0.30423 0.04022 0.09273 0.0
O4 O 0.34033 0.02981 0.10811 0.0
C5 C 0.42544 0.08311 0.18104 0.0
O6 O 0.40973 0.0872 0.15221 0.0
O7 O 0.32332 0.12794 0.21586 0.0
O8 O 0.26391 0.13555 0.18479 0.0
H9 H 0.29471 0.08151 0.32344 0.0
H10 H 0.35523 0.1077 0.10943 0.0
O11 O 0.274 0.0627 0.10593 0.0
H12 H 0.29286 0.25665 0.11525 0.0
H13 H 0.1645 0.155 0.06334 0.0
H14 H 0.18406 0.11647 0.17618 0.0
H15 H 0.25401 0.19429 0.13937 0.0
H16 H 0.23595 0.12766 0.08284 0.0
O17 O 0.39989 0.07621 0.20456 0.0
H18 H 0.28455 0.09054 0.26577 0.0
H19 H 0.40339 0.02091 0.24819 0.0
H20 H 0.11225 0.14433 0.15772 0.0
H21 H 0.39464 0.1686 0.08444 0.0
H22 H 0.10209 0.16375 0.10092 0.0
H23 H 0.3637 0.2441 0.08724 0.0
O24 O 0.23802 0.04892 0.16687 0.0
H25 H 0.39695 0.93154 0.15145 0.0
H26 H 0.30257 0.98247 0.23924 0.0
H27 H 0.31267 0.90312 0.23053 0.0
H28 H 0.3604 0.87705 0.18648 0.0
H29 H 0.38549 0.01034 0.16067 0.0
H30 H 0.41503 0.01153 0.30572 0.0
H31 H 0.36037 0.04178 0.34379 0.0
O32 O 0.27022 0.05125 0.21457 0.0
C33 C 0.28905 0.149 0.20704 0.0
C34 C 0.31876 0.06815 0.30709 0.0
C35 C 0.38632 0.02895 0.29715 0.0
N36 N 0.34332 0.05633 0.25356 0.0
C37 C 0.31316 0.07312 0.27438 0.0
C38 C 0.37964 0.03456 0.26458 0.0
C39 C 0.35562 0.04589 0.31849 0.0
C40 C 0.34098 0.13984 0.11067 0.0
N41 N 0.30188 0.14672 0.12593 0.0
C42 C 0.36373 0.17455 0.09649 0.0
C43 C 0.34642 0.21688 0.09811 0.0
C44 C 0.30675 0.22393 0.11384 0.0
C45 C 0.28496 0.18837 0.12768 0.0
C46 C 0.16853 0.14668 0.08816 0.0
C47 C 0.18004 0.12514 0.15147 0.0
C48 C 0.20888 0.13097 0.09933 0.0
N49 N 0.21433 0.12069 0.13071 0.0
C50 C 0.13924 0.14078 0.14114 0.0
C51 C 0.13354 0.15162 0.10926 0.0
C52 C 0.23893 0.03921 0.19632 0.0
C53 C 0.37637 0.94247 0.1709 0.0
C54 C 0.32347 0.97162 0.22001 0.0
C55 C 0.32904 0.92651 0.21521 0.0
C56 C 0.3558 0.91192 0.19051 0.0
N57 N 0.34415 1.00158 0.2009 0.0
C58 C 0.36999 0.98734 0.17641 0.0
Co59 Co 0.04016 0.27743 0.6552 0.0
Co60 Co 0.08494 0.33965 0.71534 0.0
O61 O 0.06869 0.33195 0.67016 0.0
C62 C 0.09567 0.30768 0.59966 0.0
O63 O 0.11293 0.34017 0.616 0.0
C64 C 0.05904 0.43155 0.693 0.0
O65 O 0.04232 0.41691 0.6663 0.0
O66 O 0.02242 0.33028 0.72795 0.0
O67 O 0.00584 0.27362 0.6957 0.0
H68 H 0.08541 0.29873 0.83104 0.0
H69 H 0.03319 0.36247 0.61933 0.0
O70 O 0.07143 0.27923 0.61323 0.0
H71 H 0.88093 0.30925 0.62998 0.0
H72 H 0.96951 0.17453 0.57593 0.0
H73 H 0.0201 0.19265 0.68648 0.0
H74 H 0.94263 0.2663 0.65154 0.0
H75 H 1.00211 0.24454 0.59375 0.0
O76 O 0.07497 0.405 0.71336 0.0
H77 H 0.06649 0.28984 0.7745 0.0
H78 H 0.1377 0.40575 0.75174 0.0
H79 H 0.98689 0.12233 0.66977 0.0
H80 H 0.97283 0.40586 0.59671 0.0
H81 H 0.96143 0.11288 0.61412 0.0
H82 H 0.89579 0.37957 0.60206 0.0
O83 O 0.08956 0.24193 0.67353 0.0
H84 H 0.20776 0.40387 0.64993 0.0
H85 H 0.1708 0.3029 0.73741 0.0
H86 H 0.24829 0.31202 0.72152 0.0
H87 H 0.26727 0.36296 0.67757 0.0
H88 H 0.13071 0.39335 0.6663 0.0
H89 H 0.15703 0.41614 0.80809 0.0
H90 H 0.13096 0.36233 0.8482 0.0
O91 O 0.09629 0.27534 0.72051 0.0
C92 C 0.99751 0.2985 0.71944 0.0
C93 C 0.09687 0.32249 0.81381 0.0
C94 C 0.13701 0.38839 0.80093 0.0
N95 N 0.10052 0.34742 0.75979 0.0
C96 C 0.08619 0.31765 0.78173 0.0
C97 C 0.12571 0.38246 0.76906 0.0
C98 C 0.12242 0.35817 0.82342 0.0
C99 C 1.00014 0.35033 0.62168 0.0
N100 N 0.99187 0.31173 0.63715 0.0
C101 C 0.96587 0.37529 0.60885 0.0
C102 C 0.92267 0.36059 0.61189 0.0
C103 C 0.91432 0.32122 0.62761 0.0
C104 C 0.94946 0.29719 0.6401 0.0
C105 C 0.98051 0.17823 0.60024 0.0
C106 C 0.00884 0.18893 0.66227 0.0
C107 C 0.99931 0.21772 0.61043 0.0
N108 N 0.01304 0.22278 0.64117 0.0
C109 C 0.99017 0.14897 0.65293 0.0
C110 C 0.97594 0.14367 0.62169 0.0
C111 C 0.1032 0.24283 0.70217 0.0
C112 C 0.19994 0.38169 0.66919 0.0
C113 C 0.17865 0.32497 0.71814 0.0
C114 C 0.22267 0.33008 0.70931 0.0
C115 C 0.2333 0.35868 0.68467 0.0
N116 N 0.14606 0.34778 0.70292 0.0
C117 C 0.15628 0.37574 0.67868 0.0
Co118 Co 0.8324 0.02721 0.1497 0.0
Co119 Co 0.76642 0.06555 0.2097 0.0
O120 O 0.77686 0.05326 0.16432 0.0
C121 C 0.80137 0.08401 0.09522 0.0
O122 O 0.76819 0.09967 0.11167 0.0
C123 C 0.68214 0.0263 0.18664 0.0
O124 O 0.70471 0.99594 0.17162 0.0
O125 O 0.77679 0.00238 0.22012 0.0
O126 O 0.83564 0.99034 0.18894 0.0
H127 H 0.8 0.05935 0.32659 0.0
H128 H 0.74704 0.02003 0.11377 0.0
O129 O 0.83108 0.0611 0.10874 0.0
H130 H 0.80642 0.86953 0.11709 0.0
H131 H 0.94041 0.96396 0.07076 0.0
H132 H 0.91666 0.00799 0.1822 0.0
H133 H 0.84691 0.93053 0.14188 0.0
H134 H 0.8687 0.9934 0.088 0.0
O135 O 0.70184 0.05483 0.20356 0.0
H136 H 0.81332 0.04493 0.26982 0.0
H137 H 0.69557 0.11234 0.24551 0.0
H138 H 0.98863 0.97775 0.16613 0.0
H139 H 0.70633 0.96045 0.08784 0.0
H140 H 1.00092 0.95562 0.11003 0.0
H141 H 0.73568 0.88427 0.08946 0.0
O142 O 0.86544 0.07626 0.17084 0.0
H143 H 0.70134 0.19104 0.14783 0.0
H144 H 0.80018 0.15043 0.23598 0.0
H145 H 0.78978 0.22862 0.22269 0.0
H146 H 0.73996 0.24941 0.17837 0.0
H147 H 0.71305 0.11317 0.16171 0.0
H148 H 0.68077 0.12718 0.30205 0.0
H149 H 0.73325 0.10073 0.34306 0.0
O150 O 0.83032 0.07786 0.21751 0.0
C151 C 0.80989 0.97926 0.21152 0.0
C152 C 0.7768 0.07094 0.30896 0.0
C153 C 0.70988 0.10896 0.29519 0.0
N154 N 0.75511 0.07735 0.25431 0.0
C155 C 0.78416 0.06281 0.27675 0.0
C156 C 0.71833 0.10022 0.26319 0.0
C157 C 0.73936 0.09416 0.31818 0.0
C158 C 0.76093 0.98751 0.11413 0.0
N159 N 0.79999 0.97937 0.12921 0.0
C160 C 0.73729 0.9536 0.09959 0.0
C161 C 0.75367 0.91087 0.1006 0.0
C162 C 0.79327 0.90259 0.11613 0.0
C163 C 0.81597 0.93735 0.13039 0.0
C164 C 0.93551 0.9736 0.09526 0.0
C165 C 0.92164 0.99824 0.15777 0.0
C166 C 0.89507 0.99071 0.1051 0.0
N167 N 0.88845 0.00262 0.13607 0.0
C168 C 0.96252 0.98123 0.1488 0.0
C169 C 0.96942 0.96886 0.11731 0.0
C170 C 0.86308 0.0876 0.20002 0.0
C171 C 0.72315 0.18241 0.16718 0.0
C172 C 0.77873 0.15911 0.21648 0.0
C173 C 0.77283 0.2035 0.20916 0.0
C174 C 0.74485 0.21513 0.18431 0.0
N175 N 0.7574 0.12716 0.19952 0.0
C176 C 0.72986 0.13835 0.17518 0.0
Co177 Co 0.09929 0.85869 0.64199 0.0
Co178 Co 0.05373 0.78266 0.69265 0.0
O179 O 0.07235 0.80117 0.65006 0.0
C180 C 0.04246 0.83936 0.5849 0.0
O181 O 0.02113 0.80852 0.6002 0.0
C182 C 0.09039 0.6928 0.6977 0.0
O183 O 0.10884 0.70566 0.72438 0.0
O184 O 0.11457 0.79308 0.70916 0.0
O185 O 0.13214 0.85508 0.68298 0.0
H186 H 0.04286 0.79461 0.8115 0.0
H187 H 0.10847 0.78144 0.59866 0.0
O188 O 0.06978 0.86392 0.59947 0.0
H189 H 0.25966 0.8353 0.61567 0.0
H190 H 0.17008 0.97843 0.57663 0.0
H191 H 0.11493 0.93675 0.68248 0.0
H192 H 0.19679 0.87277 0.64072 0.0
H193 H 0.13921 0.90462 0.58588 0.0
O194 O 0.06921 0.72042 0.68081 0.0
H195 H 0.06573 0.81753 0.75786 0.0
H196 H 1.00054 0.70727 0.71756 0.0
H197 H 0.14635 0.01066 0.67443 0.0
H198 H 0.17022 0.74357 0.57267 0.0
H199 H 0.17409 0.03197 0.62116 0.0
H200 H 0.2466 0.77028 0.58114 0.0
O201 O 0.04833 0.88851 0.66328 0.0
H202 H 0.94109 0.72134 0.6169 0.0
H203 H 0.96388 0.81148 0.71294 0.0
H204 H 0.88871 0.80048 0.69247 0.0
H205 H 0.87686 0.75495 0.64419 0.0
H206 H 0.01585 0.73388 0.63777 0.0
H207 H 0.9769 0.68311 0.77074 0.0
H208 H 0.99813 0.72687 0.8182 0.0
O209 O 0.03769 0.84416 0.70505 0.0
C210 C 0.13944 0.8263 0.70437 0.0
C211 C 0.03359 0.77512 0.79103 0.0
C212 C 0.99654 0.71259 0.76815 0.0
N213 N 0.0351 0.76351 0.73462 0.0
C214 C 0.04662 0.78787 0.7606 0.0
C215 C 0.0101 0.7264 0.73809 0.0
C216 C 0.00846 0.73715 0.79476 0.0
C217 C 0.14141 0.79365 0.60242 0.0
N218 N 0.14876 0.82947 0.62137 0.0
C219 C 0.17636 0.77187 0.58765 0.0
C220 C 0.2192 0.78683 0.59243 0.0
C221 C 0.22655 0.82325 0.61182 0.0
C222 C 0.19077 0.84419 0.62617 0.0
C223 C 0.158 0.96958 0.59993 0.0
C224 C 0.12714 0.94566 0.65926 0.0
C225 C 0.14012 0.92792 0.60524 0.0
N226 N 0.12511 0.91633 0.63468 0.0
C227 C 0.1448 0.98762 0.65483 0.0
C228 C 0.16031 0.99957 0.62494 0.0
C229 C 0.03228 0.88067 0.69075 0.0
C230 C 0.94582 0.74124 0.63797 0.0
C231 C 0.9592 0.79215 0.69165 0.0
C232 C 0.91645 0.78578 0.6803 0.0
C233 C 0.90981 0.76016 0.65325 0.0
N234 N 0.99443 0.77359 0.67647 0.0
C235 C 0.98811 0.74832 0.65 0.0
Co236 Co 0.28841 0.02416 0.85405 0.0
Co237 Co 0.35321 0.05863 0.79268 0.0
O238 O 0.34393 0.04871 0.83839 0.0
C239 C 0.32165 0.0827 0.90714 0.0
O240 O 0.35465 0.09735 0.89007 0.0
C241 C 0.43698 0.01895 0.81583 0.0
O242 O 0.41381 0.98946 0.83119 0.0
O243 O 0.34149 0.99516 0.78397 0.0
O244 O 0.2823 0.98714 0.81515 0.0
H245 H 0.31689 0.04454 0.67664 0.0
H246 H 0.37316 0.01615 0.89041 0.0
O247 O 0.29199 0.05869 0.8946 0.0
H248 H 0.31371 0.8658 0.8846 0.0
H249 H 0.18291 0.96382 0.93558 0.0
H250 H 0.20204 0.00717 0.82365 0.0
H251 H 0.27381 0.92737 0.86013 0.0
H252 H 0.25442 0.99145 0.91651 0.0
O253 O 0.41779 0.04704 0.79827 0.0
H254 H 0.3051 0.03367 0.73399 0.0
H255 H 0.42313 0.10305 0.7546 0.0
H256 H 0.13018 0.97894 0.84161 0.0
H257 H 0.41336 0.95596 0.91599 0.0
H258 H 0.12021 0.95714 0.89797 0.0
H259 H 0.38392 0.87988 0.91313 0.0
O260 O 0.25611 0.07349 0.83312 0.0
H261 H 0.42204 0.1859 0.8507 0.0
H262 H 0.32051 0.14278 0.7647 0.0
H263 H 0.33269 0.22139 0.77596 0.0
H264 H 0.38388 0.24343 0.81918 0.0
H265 H 0.40855 0.10763 0.83887 0.0
H266 H 0.43639 0.11434 0.69743 0.0
H267 H 0.38296 0.08513 0.658 0.0
O268 O 0.28914 0.07204 0.78562 0.0
C269 C 0.30722 0.97403 0.7927 0.0
C270 C 0.3404 0.05746 0.69358 0.0
C271 C 0.40749 0.09658 0.70525 0.0
N272 N 0.36334 0.06773 0.74766 0.0
C273 C 0.33387 0.05146 0.72611 0.0
C274 C 0.39988 0.08993 0.7376 0.0
C275 C 0.37748 0.08021 0.68314 0.0
C276 C 0.35923 0.98366 0.8896 0.0
N277 N 0.32041 0.97587 0.87411 0.0
C278 C 0.38258 0.94942 0.9039 0.0
C279 C 0.36616 0.90674 0.90218 0.0
C280 C 0.32684 0.89883 0.88615 0.0
C281 C 0.30443 0.9339 0.87213 0.0
C282 C 0.18681 0.97327 0.91098 0.0
C283 C 0.19807 0.99756 0.84818 0.0
C284 C 0.22717 0.98925 0.90008 0.0
N285 N 0.23246 1.00104 0.86898 0.0
C286 C 0.15725 0.98167 0.85823 0.0
C287 C 0.15167 0.96949 0.88985 0.0
C288 C 0.25752 0.08369 0.80371 0.0
C289 C 0.39965 0.17672 0.83182 0.0
C290 C 0.34255 0.15203 0.78374 0.0
C291 C 0.34946 0.19664 0.78991 0.0
C292 C 0.37821 0.20898 0.81414 0.0
N293 N 0.36364 0.12055 0.80123 0.0
C294 C 0.39192 0.13243 0.82498 0.0
Co295 Co 0.08052 0.26681 0.35706 0.0
Co296 Co 0.03419 0.33896 0.30422 0.0
O297 O 0.05289 0.32333 0.34735 0.0
C298 C 0.03202 0.29279 0.41663 0.0
O299 O 0.01893 0.33009 0.40422 0.0
C300 C 0.06854 0.42967 0.29803 0.0
O301 O 0.08906 0.4161 0.27236 0.0
O302 O 0.09565 0.32985 0.28877 0.0
O303 O 0.11321 0.26859 0.31593 0.0
H304 H 0.02596 0.32139 0.18561 0.0
H305 H 0.09359 0.3518 0.39345 0.0
O306 O 0.05051 0.26348 0.39959 0.0
H307 H 0.24128 0.2868 0.38398 0.0
H308 H 0.14801 0.14939 0.42645 0.0
H309 H 0.09862 0.18746 0.31837 0.0
H310 H 0.17745 0.24974 0.36036 0.0
H311 H 0.11709 0.22262 0.4152 0.0
O312 O 0.04695 0.40226 0.31479 0.0
H313 H 0.04848 0.30152 0.23997 0.0
H314 H 0.97934 0.41155 0.27704 0.0
H315 H 0.13018 0.11413 0.32853 0.0
H316 H 0.15622 0.38913 0.41793 0.0
H317 H 0.15508 0.09465 0.3829 0.0
H318 H 0.23103 0.35687 0.41341 0.0
O319 O 0.02967 0.23563 0.33674 0.0
H320 H 0.91846 0.39632 0.37895 0.0
H321 H 0.94573 0.30723 0.28302 0.0
H322 H 0.86993 0.31549 0.30293 0.0
H323 H 0.85584 0.36042 0.35118 0.0
H324 H 0.99387 0.3868 0.35844 0.0
H325 H 0.95603 0.43267 0.22307 0.0
H326 H 0.97941 0.38746 0.17687 0.0
O327 O 0.02059 0.27635 0.293 0.0
C328 C 0.12076 0.29699 0.29428 0.0
C329 C 0.01573 0.34148 0.20552 0.0
C330 C 0.97647 0.40391 0.22655 0.0
N331 N 0.01579 0.35561 0.26164 0.0
C332 C 0.02853 0.33046 0.23635 0.0
C333 C 0.98986 0.39183 0.25704 0.0
C334 C 0.98958 0.37853 0.20064 0.0
C335 C 0.1253 0.33638 0.39191 0.0
N336 N 0.13076 0.29712 0.37647 0.0
C337 C 0.16106 0.35824 0.40561 0.0
C338 C 0.20302 0.34022 0.403 0.0
C339 C 0.20875 0.30093 0.38653 0.0
C340 C 0.17221 0.27997 0.37323 0.0
C341 C 0.13731 0.1575 0.40265 0.0
C342 C 0.10975 0.17944 0.34204 0.0
C343 C 0.11947 0.19887 0.39615 0.0
N344 N 0.10628 0.20955 0.36605 0.0
C345 C 0.12742 0.13776 0.34768 0.0
C346 C 0.14132 0.12682 0.3782 0.0
C347 C 0.01475 0.24101 0.30864 0.0
C348 C 0.92417 0.37665 0.35791 0.0
C349 C 0.94002 0.3265 0.30421 0.0
C350 C 0.89694 0.33123 0.31528 0.0
C351 C 0.88906 0.35647 0.34233 0.0
N352 N 0.97434 0.34638 0.31963 0.0
C353 C 0.96682 0.37119 0.34615 0.0
Co354 Co 0.85229 0.08236 0.85736 0.0
Co355 Co 0.78435 0.05495 0.79566 0.0
O356 O 0.79486 0.06136 0.84178 0.0
C357 C 0.81668 0.02683 0.91105 0.0
O358 O 0.77936 0.01889 0.89641 0.0
C359 C 0.69422 0.07314 0.82481 0.0
O360 O 0.7102 0.07406 0.85371 0.0
O361 O 0.79701 0.11873 0.79019 0.0
O362 O 0.8585 0.12195 0.81964 0.0
H363 H 0.82042 0.07834 0.68036 0.0
H364 H 0.76708 0.09604 0.89331 0.0
O365 O 0.84861 0.04513 0.89663 0.0
H366 H 0.84182 0.23923 0.89601 0.0
H367 H 0.96561 0.1274 0.93897 0.0
H368 H 0.9376 0.09882 0.82544 0.0
H369 H 0.87603 0.17633 0.86915 0.0
H370 H 0.89173 0.10553 0.92066 0.0
O371 O 0.71948 0.06821 0.80087 0.0
H372 H 0.83298 0.08339 0.73804 0.0
H373 H 0.71287 0.01608 0.75555 0.0
H374 H 0.01179 0.12141 0.84273 0.0
H375 H 0.73223 0.15744 0.92103 0.0
H376 H 0.02622 0.13578 0.89987 0.0
H377 H 0.76943 0.23011 0.92258 0.0
O378 O 0.8812 0.0327 0.83432 0.0
H379 H 0.72219 0.92009 0.84949 0.0
H380 H 0.81244 0.97462 0.76072 0.0
H381 H 0.80072 0.89506 0.76675 0.0
H382 H 0.75502 0.86719 0.81127 0.0
H383 H 0.73522 0.99907 0.84287 0.0
H384 H 0.69881 0.01074 0.69803 0.0
H385 H 0.75288 0.04184 0.65997 0.0
O386 O 0.84801 0.04095 0.78742 0.0
C387 C 0.83235 0.13807 0.79893 0.0
C388 C 0.7966 0.06465 0.69669 0.0
C389 C 0.72832 0.02679 0.70662 0.0
N390 N 0.7737 0.05017 0.75024 0.0
C391 C 0.80356 0.06738 0.72942 0.0
C392 C 0.73637 0.03013 0.7392 0.0
C393 C 0.75869 0.0442 0.68528 0.0
C394 C 0.78412 0.12675 0.894 0.0
N395 N 0.82421 0.13157 0.8797 0.0
C396 C 0.76391 0.16185 0.9097 0.0
C397 C 0.78472 0.20259 0.91053 0.0
C398 C 0.82525 0.20771 0.89562 0.0
C399 C 0.84444 0.1718 0.88023 0.0
C400 C 0.95972 0.12124 0.914 0.0
C401 C 0.94346 0.10536 0.85032 0.0
C402 C 0.91798 0.10857 0.90348 0.0
N403 N 0.91017 0.10108 0.87192 0.0
C404 C 0.98561 0.11799 0.85998 0.0
C405 C 0.9937 0.12599 0.89205 0.0
C406 C 0.87904 0.02564 0.80449 0.0
C407 C 0.74177 0.93183 0.82978 0.0
C408 C 0.79231 0.963 0.78012 0.0
C409 C 0.78587 0.91777 0.78341 0.0
C410 C 0.76028 0.90216 0.80839 0.0
N411 N 0.77353 0.99212 0.80093 0.0
C412 C 0.74898 0.97684 0.82574 0.0
Co413 Co 0.03144 0.8358 0.34594 0.0
Co414 Co 0.06851 0.78407 0.27916 0.0
O415 O 0.06198 0.78642 0.32563 0.0
C416 C 0.08849 0.86166 0.39921 0.0
O417 O 0.09333 0.89985 0.38511 0.0
C418 C 0.04299 0.69182 0.29695 0.0
O419 O 0.01488 0.7069 0.31796 0.0
O420 O 0.00334 0.78859 0.27381 0.0
O421 O 0.99061 0.84221 0.30914 0.0
H422 H 0.0393 0.8331 0.16715 0.0
H423 H 0.04208 0.75215 0.38087 0.0
O424 O 0.07031 0.83 0.38426 0.0
H425 H 0.88181 0.77716 0.37654 0.0
H426 H 0.9565 0.9173 0.43559 0.0
H427 H 0.00382 0.92382 0.32372 0.0
H428 H 0.93317 0.83042 0.35283 0.0
H429 H 0.99362 0.85405 0.41068 0.0
O430 O 0.06523 0.71826 0.27993 0.0
H431 H 0.03244 0.83589 0.22541 0.0
H432 H 0.11802 0.72609 0.23428 0.0
H433 H 0.96641 0.98774 0.34762 0.0
H434 H 0.992 0.69844 0.4056 0.0
H435 H 0.94258 0.9848 0.40399 0.0
H436 H 0.91118 0.71065 0.4034 0.0
O437 O 0.07431 0.87716 0.32551 0.0
H438 H 0.20792 0.72673 0.32839 0.0
H439 H 0.14568 0.82939 0.24973 0.0
H440 H 0.22609 0.82605 0.25724 0.0
H441 H 0.25775 0.77429 0.29672 0.0
H442 H 0.12758 0.73155 0.3204 0.0
H443 H 0.12546 0.72184 0.17606 0.0
H444 H 0.08606 0.77572 0.14207 0.0
O445 O 0.07341 0.84957 0.27626 0.0
C446 C 0.97893 0.81879 0.28547 0.0
C447 C 0.05662 0.80941 0.18169 0.0
C448 C 0.10491 0.74693 0.1867 0.0
N449 N 0.07465 0.7811 0.23329 0.0
C450 C 0.05288 0.81084 0.21473 0.0
C451 C 0.10038 0.74937 0.21966 0.0
C452 C 0.08283 0.7772 0.16764 0.0
C453 C 0.00699 0.75793 0.38002 0.0
N454 N 0.99062 0.7944 0.3652 0.0
C455 C 0.97877 0.72729 0.39398 0.0
C456 C 0.93345 0.73411 0.39268 0.0
C457 C 0.91695 0.77136 0.37756 0.0
C458 C 0.94618 0.80127 0.36387 0.0
C459 C 0.96684 0.91905 0.41103 0.0
C460 C 0.99365 0.92227 0.34828 0.0
C461 C 0.98804 0.88335 0.39681 0.0
N462 N 1.00139 0.8853 0.36583 0.0
C463 C 0.97241 0.95857 0.36167 0.0
C464 C 0.95903 0.9569 0.39329 0.0
C465 C 0.08334 0.87983 0.29595 0.0
C466 C 0.19453 0.74935 0.31107 0.0
C467 C 0.15913 0.80695 0.26709 0.0
C468 C 0.20473 0.80512 0.27116 0.0
C469 C 0.22247 0.77607 0.29331 0.0
N470 N 0.13192 0.78056 0.28455 0.0
C471 C 0.14907 0.75213 0.30638 0.0
H472 H 0.36956 0.0636 0.05246 0.0
H473 H 0.23499 0.01876 0.05549 0.0
H474 H 0.22738 0.03193 0.99846 0.0
H475 H 0.25787 0.05881 0.94861 0.0
H476 H 0.39236 0.10436 0.94479 0.0
H477 H 0.40049 0.09041 0.00173 0.0
C478 C 0.33905 0.05555 0.04036 0.0
C479 C 0.3032 0.03906 0.05781 0.0
C480 C 0.33443 0.06487 0.00781 0.0
C481 C 0.26324 0.03046 0.04226 0.0
C482 C 0.25872 0.03859 0.00983 0.0
C483 C 0.28904 0.06577 0.96014 0.0
C484 C 0.32452 0.08238 0.9423 0.0
C485 C 0.29386 0.05644 0.99252 0.0
C486 C 0.36435 0.09191 0.9579 0.0
C487 C 0.36923 0.08335 0.99039 0.0
H488 H 0.07052 0.24311 0.55891 0.0
H489 H 0.11211 0.37881 0.56159 0.0
H490 H 0.09247 0.38705 0.5056 0.0
H491 H 0.06047 0.35652 0.45645 0.0
H492 H 0.02128 0.22034 0.45348 0.0
H493 H 0.04144 0.21185 0.50949 0.0
C494 C 0.07568 0.27444 0.54722 0.0
C495 C 0.0926 0.31034 0.56456 0.0
C496 C 0.0635 0.27918 0.51525 0.0
C497 C 0.09952 0.3505 0.54884 0.0
C498 C 0.08772 0.35542 0.51691 0.0
C499 C 0.05549 0.32527 0.46832 0.0
C500 C 0.03817 0.28939 0.45127 0.0
C501 C 0.06881 0.32025 0.50009 0.0
C502 C 0.03359 0.24859 0.46644 0.0
C503 C 0.04558 0.24365 0.49828 0.0
H504 H 0.75212 0.05426 0.95093 0.0
H505 H 0.88629 0.00797 0.94889 0.0
H506 H 0.89464 0.02563 0.00526 0.0
H507 H 0.86488 0.05671 0.05428 0.0
H508 H 0.73066 0.10323 0.05699 0.0
H509 H 0.72197 0.08514 0.00071 0.0
C510 C 0.78274 0.04693 0.96311 0.0
C511 C 0.81823 0.02876 0.94605 0.0
C512 C 0.78778 0.05869 0.99525 0.0
C513 C 0.85828 0.02103 0.96176 0.0
C514 C 0.86324 0.03169 0.99383 0.0
C515 C 0.83363 0.06289 0.04267 0.0
C516 C 0.7984 0.081 0.06006 0.0
C517 C 0.82844 0.05113 0.01065 0.0
C518 C 0.7585 0.08962 0.04426 0.0
C519 C 0.75329 0.0787 0.01215 0.0
H520 H 0.0496 0.80114 0.43775 0.0
H521 H 0.1278 0.91971 0.43984 0.0
H522 H 0.11784 0.92476 0.49731 0.0
H523 H 0.08406 0.89765 0.54623 0.0
H524 H 0.00478 0.77983 0.54415 0.0
H525 H 0.01627 0.77369 0.48688 0.0
C526 C 0.06512 0.82776 0.45075 0.0
C527 C 0.08958 0.85999 0.4344 0.0
C528 C 0.05789 0.83137 0.48359 0.0
C529 C 0.10899 0.89439 0.45177 0.0
C530 C 0.10291 0.89755 0.48459 0.0
C531 C 0.06924 0.87055 0.53337 0.0
C532 C 0.04374 0.83914 0.54966 0.0
C533 C 0.07675 0.8667 0.50061 0.0
C534 C 0.02432 0.80467 0.53232 0.0
C535 C 0.03129 0.80085 0.49959 0.0
H536 H 0.48388 0.04269 0.14207 0.0
H537 H 0.47375 0.1107 0.23168 0.0
H538 H 0.55234 0.09869 0.24149 0.0
H539 H 0.62364 0.06834 0.22474 0.0
H540 H 0.63284 0.99546 0.13699 0.0
H541 H 0.55475 0.00922 0.12648 0.0
C542 C 0.49911 0.05534 0.16353 0.0
C543 C 0.47341 0.07834 0.18586 0.0
C544 C 0.5439 0.04686 0.16951 0.0
C545 C 0.49309 0.09339 0.21402 0.0
C546 C 0.53791 0.08635 0.21967 0.0
C547 C 0.60851 0.05529 0.20337 0.0
C548 C 0.63405 0.03097 0.18164 0.0
C549 C 0.56357 0.06295 0.19766 0.0
C550 C 0.61387 0.01398 0.15421 0.0
C551 C 0.56929 0.02212 0.14807 0.0
H552 H 0.04888 0.4993 0.65063 0.0
H553 H 0.08295 0.47164 0.74818 0.0
H554 H 0.09852 0.54902 0.7574 0.0
H555 H 0.10248 0.6247 0.73827 0.0
H556 H 0.06639 0.65415 0.64152 0.0
H557 H 0.05216 0.57612 0.63148 0.0
C558 C 0.05937 0.51026 0.67395 0.0
C559 C 0.0648 0.47945 0.6986 0.0
C560 C 0.06845 0.55517 0.67921 0.0
C561 C 0.07867 0.49437 0.72865 0.0
C562 C 0.0877 0.53873 0.73401 0.0
C563 C 0.09207 0.61406 0.71484 0.0
C564 C 0.08596 0.64522 0.69061 0.0
C565 C 0.083 0.56937 0.70945 0.0
C566 C 0.07163 0.63082 0.66056 0.0
C567 C 0.06326 0.58621 0.65485 0.0
H568 H 0.6347 0.03194 0.8625 0.0
H569 H 0.6466 0.10444 0.77503 0.0
H570 H 0.56806 0.09374 0.76437 0.0
H571 H 0.49638 0.06283 0.77952 0.0
H572 H 0.48534 0.98586 0.86515 0.0
H573 H 0.56327 0.99863 0.8767 0.0
C574 C 0.61987 0.04591 0.84135 0.0
C575 C 0.64613 0.06968 0.81985 0.0
C576 C 0.57506 0.03822 0.83483 0.0
C577 C 0.62688 0.08648 0.79207 0.0
C578 C 0.58208 0.08017 0.78591 0.0
C579 C 0.51104 0.04866 0.80066 0.0
C580 C 0.48501 0.0234 0.82144 0.0
C581 C 0.55592 0.05584 0.80701 0.0
C582 C 0.50465 0.0051 0.84861 0.0
C583 C 0.54916 0.01268 0.85536 0.0
H584 H 0.0971 0.49741 0.26137 0.0
H585 H 0.02733 0.46964 0.34831 0.0
H586 H 0.01248 0.54801 0.35561 0.0
H587 H 0.01755 0.62472 0.33641 0.0
H588 H 0.08714 0.65103 0.24908 0.0
H589 H 0.10335 0.57324 0.24287 0.0
C590 C 0.07903 0.50842 0.28212 0.0
C591 C 0.06348 0.47752 0.30424 0.0
C592 C 0.07008 0.55346 0.28598 0.0
C593 C 0.03985 0.49261 0.33088 0.0
C594 C 0.03113 0.53748 0.33502 0.0
C595 C 0.03607 0.61337 0.31597 0.0
C596 C 0.05095 0.64388 0.29326 0.0
C597 C 0.04565 0.56823 0.31252 0.0
C598 C 0.07528 0.62852 0.26703 0.0
C599 C 0.08467 0.5839 0.26341 0.0
H600 H 0.20075 0.26542 0.31051 0.0
H601 H 0.12425 0.30658 0.22968 0.0
H602 H 0.17539 0.26855 0.19423 0.0
H603 H 0.23199 0.21217 0.18807 0.0
H604 H 0.30919 0.17082 0.26876 0.0
H605 H 0.26733 0.22079 0.30286 0.0
C606 C 0.1957 0.26673 0.28515 0.0
C607 C 0.15784 0.2872 0.27281 0.0
C608 C 0.22488 0.24433 0.26512 0.0
C609 C 0.15259 0.29024 0.2398 0.0
C610 C 0.18172 0.2683 0.21956 0.0
C611 C 0.24077 0.21486 0.21285 0.0
C612 C 0.27299 0.18685 0.22592 0.0
C613 C 0.21653 0.24338 0.2322 0.0
C614 C 0.2841 0.19139 0.25814 0.0
C615 C 0.26007 0.21987 0.27767 0.0
H616 H 0.91973 0.26318 0.70089 0.0
H617 H 0.9913 0.30369 0.78432 0.0
H618 H 0.94131 0.26081 0.81752 0.0
H619 H 0.88696 0.20163 0.82082 0.0
H620 H 0.81339 0.16291 0.73774 0.0
H621 H 0.85468 0.21596 0.70593 0.0
C622 C 0.92402 0.26337 0.7263 0.0
C623 C 0.9604 0.28501 0.73992 0.0
C624 C 0.89523 0.23863 0.74508 0.0
C625 C 0.96436 0.28634 0.77311 0.0
C626 C 0.93582 0.26171 0.79209 0.0
C627 C 0.87896 0.20544 0.79602 0.0
C628 C 0.84803 0.17731 0.78156 0.0
C629 C 0.90263 0.23602 0.77806 0.0
C630 C 0.83763 0.18346 0.74938 0.0
C631 C 0.8613 0.21375 0.73118 0.0
H632 H 0.91189 0.86774 0.30928 0.0
H633 H 0.9549 0.80233 0.22363 0.0
H634 H 0.89877 0.84185 0.19336 0.0
H635 H 0.84755 0.90402 0.1905 0.0
H636 H 0.80422 0.9685 0.2761 0.0
H637 H 0.84956 0.91859 0.30769 0.0
C638 C 0.9083 0.86084 0.28421 0.0
C639 C 0.9384 0.83276 0.26867 0.0
C640 C 0.87617 0.88371 0.26704 0.0
C641 C 0.93272 0.8242 0.23614 0.0
C642 C 0.90069 0.84691 0.21881 0.0
C643 C 0.84728 0.90669 0.21603 0.0
C644 C 0.82405 0.94119 0.23079 0.0
C645 C 0.87377 0.87823 0.23385 0.0
C646 C 0.82265 0.94304 0.26406 0.0
C647 C 0.84876 0.91458 0.28212 0.0
H648 H 0.22062 0.85586 0.6891 0.0
H649 H 0.14098 0.81819 0.76911 0.0
H650 H 0.19161 0.85634 0.80489 0.0
H651 H 0.24883 0.91197 0.81132 0.0
H652 H 0.32809 0.95143 0.73123 0.0
H653 H 0.28685 0.90087 0.69711 0.0
C654 C 0.21465 0.85551 0.71434 0.0
C655 C 0.17615 0.83583 0.7263 0.0
C656 C 0.24337 0.87832 0.73452 0.0
C657 C 0.16985 0.83381 0.75925 0.0
C658 C 0.19869 0.85589 0.77967 0.0
C659 C 0.25818 0.90877 0.78667 0.0
C660 C 0.29099 0.93626 0.77377 0.0
C661 C 0.23412 0.88012 0.76728 0.0
C662 C 0.30269 0.93115 0.74172 0.0
C663 C 0.27899 0.90235 0.72219 0.0
H664 H 0.89996 0.02511 0.74158 0.0
H665 H 0.93539 0.96581 0.8311 0.0
H666 H 0.98702 0.91696 0.80374 0.0
H667 H 0.01897 0.88854 0.75425 0.0
H668 H 0.98565 0.94918 0.66483 0.0
H669 H 0.93646 1.00046 0.69242 0.0
C670 C 0.91914 1.00168 0.75519 0.0
C671 C 0.91344 0.99889 0.78841 0.0
C672 C 0.949 0.97392 0.73931 0.0
C673 C 0.93907 0.96871 0.8056 0.0
C674 C 0.96847 0.94065 0.78993 0.0
C675 C 1.0011 0.91307 0.74073 0.0
C676 C 0.00563 0.91463 0.70739 0.0
C677 C 0.97321 0.94255 0.75677 0.0
C678 C 0.98279 0.94718 0.69042 0.0
C679 C 0.95452 0.97638 0.7062 0.0
H680 H 0.22154 0.02575 0.25917 0.0
H681 H 0.17476 0.99273 0.16522 0.0
H682 H 0.1197 0.94371 0.18825 0.0
H683 H 0.08882 0.9061 0.23452 0.0
H684 H 0.13537 0.93845 0.32858 0.0
H685 H 0.18606 0.99263 0.30596 0.0
C686 C 0.19915 0.0081 0.24366 0.0
C687 C 0.20277 0.01263 0.21038 0.0
C688 C 0.16751 0.97991 0.25708 0.0
C689 C 0.17296 0.98985 0.19082 0.0
C690 C 0.14148 0.96171 0.20399 0.0
C691 C 0.10966 0.92532 0.25021 0.0
C692 C 0.10852 0.91784 0.28326 0.0
C693 C 0.13903 0.9559 0.23702 0.0
C694 C 0.13543 0.94351 0.30313 0.0
C695 C 0.16468 0.97426 0.29015 0.0
H696 H 0.11169 0.22085 0.76419 0.0
H697 H 0.15308 0.18148 0.67035 0.0
H698 H 0.20297 0.1269 0.69367 0.0
H699 H 0.23871 0.09469 0.74083 0.0
H700 H 0.1961 0.13399 0.83451 0.0
H701 H 0.14258 0.18439 0.81099 0.0
C702 C 0.13138 0.20017 0.74874 0.0
C703 C 0.12903 0.20568 0.71551 0.0
C704 C 0.15995 0.16911 0.7623 0.0
C705 C 0.15423 0.17799 0.69594 0.0
C706 C 0.18294 0.14697 0.70929 0.0
C707 C 0.21753 0.11403 0.75617 0.0
C708 C 0.22187 0.11083 0.7895 0.0
C709 C 0.18671 0.14291 0.74247 0.0
C710 C 0.19364 0.13576 0.80888 0.0
C711 C 0.1631 0.16472 0.79543 0.0
H712 H 0.00336 0.22762 0.24527 0.0
H713 H 0.96806 0.17452 0.33676 0.0
H714 H 0.91998 0.12066 0.31087 0.0
H715 H 0.88444 0.09205 0.26259 0.0
H716 H 0.92124 0.14355 0.17096 0.0
H717 H 0.97281 0.19443 0.19661 0.0
C718 C 0.98533 0.20412 0.25959 0.0
C719 C 0.98891 0.20552 0.29302 0.0
C720 C 0.95806 0.17304 0.24451 0.0
C721 C 0.96589 0.17429 0.31108 0.0
C722 C 0.93828 0.14358 0.29627 0.0
C723 C 0.90399 0.11415 0.24815 0.0
C724 C 0.89861 0.11428 0.21484 0.0
C725 C 0.93358 0.14316 0.26306 0.0
C726 C 0.92473 0.14268 0.19655 0.0
C727 C 0.95402 0.17196 0.21125 0.0
loop_
_geom_bond_atom_site_label_1
_geom_bond_atom_site_label_2
_geom_bond_distance
_geom_bond_site_symmetry_2
_ccdc_geom_bond_type
Co0 O2 2.143 . S
Co0 O8 2.074 . S
Co0 O11 2.093 . S
Co0 O24 2.097 . S
Co0 N41 2.151 . S
Co0 N49 2.214 . S
Co1 O2 2.160 . S
Co1 O7 2.058 . S
Co1 O17 2.057 . S
Co1 O32 2.037 . S
Co1 N36 2.145 . S
Co1 N57 2.257 1_545 S
O2 Co0 2.143 . S
O2 Co1 2.160 . S
C3 O4 1.278 . S
C3 O11 1.224 . S
O4 C3 1.278 . S
C5 O6 1.245 . S
C5 O17 1.232 . S
O6 C5 1.245 . S
O7 Co1 2.058 . S
O7 C33 1.269 . S
O8 Co0 2.074 . S
O8 C33 1.257 . S
H9 C34 0.930 . S
H10 C40 0.930 . S
O11 Co0 2.093 . S
O11 C3 1.224 . S
H12 C44 0.929 . S
H13 C46 0.930 . S
H14 C47 0.930 . S
H15 C45 0.929 . S
H16 C48 0.928 . S
O17 Co1 2.057 . S
O17 C5 1.232 . S
H18 C37 0.929 . S
H19 C38 0.929 . S
H20 C50 0.931 . S
H21 C42 0.929 . S
H22 C51 0.930 . S
H23 C43 0.931 . S
O24 Co0 2.097 . S
O24 C52 1.214 . S
H25 C53 0.929 . S
H26 C54 0.929 . S
H27 C55 0.930 . S
H28 C56 0.929 . S
H29 C58 0.930 1_545 S
H30 C35 0.930 . S
H31 C39 0.930 1_565 S
O32 Co1 2.037 . S
O32 C52 1.234 . S
C33 O7 1.269 . S
C33 O8 1.257 . S
C34 H9 0.930 . S
C34 C37 1.388 . S
C34 C39 1.418 . S
C35 H30 0.930 . S
C35 C38 1.404 . S
C35 C39 1.353 . S
N36 Co1 2.145 . S
N36 C37 1.397 . S
N36 C38 1.334 . S
C37 H18 0.929 . S
C37 C34 1.388 . S
C37 N36 1.397 . S
C38 H19 0.929 . S
C38 C35 1.404 . S
C38 N36 1.334 . S
C39 H31 0.930 1_545 S
C39 C34 1.418 . S
C39 C35 1.353 . S
C40 H10 0.930 . S
C40 N41 1.330 . S
C40 C42 1.446 . S
N41 Co0 2.151 . S
N41 C40 1.330 . S
N41 C45 1.418 . S
C42 H21 0.929 . S
C42 C40 1.446 . S
C42 C43 1.332 . S
C43 H23 0.931 . S
C43 C42 1.332 . S
C43 C44 1.267 . S
C44 H12 0.929 . S
C44 C43 1.267 . S
C44 C45 1.251 . S
C45 H15 0.929 . S
C45 N41 1.418 . S
C45 C44 1.251 . S
C46 H13 0.930 . S
C46 C48 1.406 . S
C46 C51 1.261 . S
C47 H14 0.930 . S
C47 N49 1.325 . S
C47 C50 1.357 . S
C48 H16 0.928 . S
C48 C46 1.406 . S
C48 N49 1.261 . S
N49 Co0 2.214 . S
N49 C47 1.325 . S
N49 C48 1.261 . S
C50 H20 0.931 . S
C50 C47 1.357 . S
C50 C51 1.312 . S
C51 H22 0.930 . S
C51 C46 1.261 . S
C51 C50 1.312 . S
C52 O24 1.214 . S
C52 O32 1.234 . S
C53 H25 0.929 . S
C53 C56 1.391 . S
C53 C58 1.391 . S
C54 H26 0.929 . S
C54 C55 1.390 . S
C54 N57 1.391 . S
C55 H27 0.930 . S
C55 C54 1.390 . S
C55 C56 1.392 . S
C56 H28 0.929 . S
C56 C53 1.391 . S
C56 C55 1.392 . S
N57 Co1 2.257 1_565 S
N57 C54 1.391 . S
N57 C58 1.388 . S
C58 H29 0.930 1_565 S
C58 C53 1.391 . S
C58 N57 1.388 . S
Co59 O61 2.143 . S
Co59 O67 2.074 1_455 S
Co59 O70 2.093 . S
Co59 O83 2.097 . S
Co59 N100 2.151 1_455 S
Co59 N108 2.214 1_455 S
Co60 O61 2.160 . S
Co60 O66 2.058 1_455 S
Co60 O76 2.057 . S
Co60 O91 2.037 . S
Co60 N95 2.145 . S
Co60 N116 2.257 . S
O61 Co59 2.143 . S
O61 Co60 2.160 . S
C62 O63 1.278 . S
C62 O70 1.224 . S
O63 C62 1.278 . S
C64 O65 1.245 1_455 S
C64 O76 1.232 . S
O65 C64 1.245 1_655 S
O66 Co60 2.058 1_655 S
O66 C92 1.269 . S
O67 Co59 2.074 1_655 S
O67 C92 1.257 . S
H68 C93 0.930 . S
H69 C99 0.930 . S
O70 Co59 2.093 . S
O70 C62 1.224 . S
H71 C103 0.929 . S
H72 C105 0.930 . S
H73 C106 0.930 . S
H74 C104 0.929 . S
H75 C107 0.928 . S
O76 Co60 2.057 . S
O76 C64 1.232 . S
H77 C96 0.929 . S
H78 C97 0.929 . S
H79 C109 0.931 . S
H80 C101 0.929 . S
H81 C110 0.930 . S
H82 C102 0.931 . S
O83 Co59 2.097 . S
O83 C111 1.214 . S
H84 C112 0.929 . S
H85 C113 0.929 . S
H86 C114 0.930 . S
H87 C115 0.929 . S
H88 C117 0.930 . S
H89 C94 0.930 . S
H90 C98 0.930 . S
O91 Co60 2.037 . S
O91 C111 1.234 . S
C92 O66 1.269 . S
C92 O67 1.257 . S
C93 H68 0.930 . S
C93 C96 1.388 . S
C93 C98 1.418 . S
C94 H89 0.930 . S
C94 C97 1.404 . S
C94 C98 1.353 . S
N95 Co60 2.145 . S
N95 C96 1.397 . S
N95 C97 1.334 . S
C96 H77 0.929 . S
C96 C93 1.388 . S
C96 N95 1.397 . S
C97 H78 0.929 . S
C97 C94 1.404 . S
C97 N95 1.334 . S
C98 H90 0.930 . S
C98 C93 1.418 . S
C98 C94 1.353 . S
C99 H69 0.930 . S
C99 N100 1.330 . S
C99 C101 1.446 . S
N100 Co59 2.151 1_655 S
N100 C99 1.330 . S
N100 C104 1.418 . S
C101 H80 0.929 . S
C101 C99 1.446 . S
C101 C102 1.332 . S
C102 H82 0.931 . S
C102 C101 1.332 . S
C102 C103 1.267 . S
C103 H71 0.929 . S
C103 C102 1.267 . S
C103 C104 1.251 . S
C104 H74 0.929 . S
C104 N100 1.418 . S
C104 C103 1.251 . S
C105 H72 0.930 . S
C105 C107 1.406 . S
C105 C110 1.261 . S
C106 H73 0.930 . S
C106 N108 1.325 1_455 S
C106 C109 1.357 1_455 S
C107 H75 0.928 . S
C107 C105 1.406 . S
C107 N108 1.261 . S
N108 Co59 2.214 1_655 S
N108 C106 1.325 1_655 S
N108 C107 1.261 . S
C109 H79 0.931 . S
C109 C106 1.357 1_655 S
C109 C110 1.312 . S
C110 H81 0.930 . S
C110 C105 1.261 . S
C110 C109 1.312 . S
C111 O83 1.214 . S
C111 O91 1.234 . S
C112 H84 0.929 . S
C112 C115 1.391 . S
C112 C117 1.391 . S
C113 H85 0.929 . S
C113 C114 1.390 . S
C113 N116 1.391 . S
C114 H86 0.930 . S
C114 C113 1.390 . S
C114 C115 1.392 . S
C115 H87 0.929 . S
C115 C112 1.391 . S
C115 C114 1.392 . S
N116 Co60 2.257 . S
N116 C113 1.391 . S
N116 C117 1.388 . S
C117 H88 0.930 . S
C117 C112 1.391 . S
C117 N116 1.388 . S
Co118 O120 2.143 . S
Co118 O126 2.074 1_545 S
Co118 O129 2.093 . S
Co118 O142 2.097 . S
Co118 N159 2.151 1_545 S
Co118 N167 2.214 1_545 S
Co119 O120 2.160 . S
Co119 O125 2.058 1_545 S
Co119 O135 2.057 . S
Co119 O150 2.037 . S
Co119 N154 2.145 . S
Co119 N175 2.257 . S
O120 Co118 2.143 . S
O120 Co119 2.160 . S
C121 O122 1.278 . S
C121 O129 1.224 . S
O122 C121 1.278 . S
C123 O124 1.245 1_545 S
C123 O135 1.232 . S
O124 C123 1.245 1_565 S
O125 Co119 2.058 1_565 S
O125 C151 1.269 . S
O126 Co118 2.074 1_565 S
O126 C151 1.257 . S
H127 C152 0.930 . S
H128 C158 0.930 . S
O129 Co118 2.093 . S
O129 C121 1.224 . S
H130 C162 0.929 . S
H131 C164 0.930 . S
H132 C165 0.930 . S
H133 C163 0.929 . S
H134 C166 0.928 . S
O135 Co119 2.057 . S
O135 C123 1.232 . S
H136 C155 0.929 . S
H137 C156 0.929 . S
H138 C168 0.931 1_455 S
H139 C160 0.929 . S
H140 C169 0.922 1_455 S
H141 C161 0.931 . S
O142 Co118 2.097 . S
O142 C170 1.214 . S
H143 C171 0.929 . S
H144 C172 0.929 . S
H145 C173 0.930 . S
H146 C174 0.929 . S
H147 C176 0.930 . S
H148 C153 0.930 . S
H149 C157 0.930 . S
O150 Co119 2.037 . S
O150 C170 1.234 . S
C151 O125 1.269 . S
C151 O126 1.257 . S
C152 H127 0.930 . S
C152 C155 1.388 . S
C152 C157 1.418 . S
C153 H148 0.930 . S
C153 C156 1.404 . S
C153 C157 1.353 . S
N154 Co119 2.145 . S
N154 C155 1.397 . S
N154 C156 1.334 . S
C155 H136 0.929 . S
C155 C152 1.388 . S
C155 N154 1.397 . S
C156 H137 0.929 . S
C156 C153 1.404 . S
C156 N154 1.334 . S
C157 H149 0.930 . S
C157 C152 1.418 . S
C157 C153 1.353 . S
C158 H128 0.930 . S
C158 N159 1.330 . S
C158 C160 1.446 . S
N159 Co118 2.151 1_565 S
N159 C158 1.330 . S
N159 C163 1.418 . S
C160 H139 0.929 . S
C160 C158 1.446 . S
C160 C161 1.332 . S
C161 H141 0.931 . S
C161 C160 1.332 . S
C161 C162 1.267 . S
C162 H130 0.929 . S
C162 C161 1.267 . S
C162 C163 1.251 . S
C163 H133 0.929 . S
C163 N159 1.418 . S
C163 C162 1.251 . S
C164 H131 0.930 . S
C164 C166 1.406 . S
C164 C169 1.266 . S
C165 H132 0.930 . S
C165 N167 1.325 1_545 S
C165 C168 1.357 1_545 S
C166 H134 0.928 . S
C166 C164 1.406 . S
C166 N167 1.261 . S
N167 Co118 2.214 1_565 S
N167 C165 1.325 1_565 S
N167 C166 1.261 . S
C168 H138 0.931 1_655 S
C168 C165 1.357 1_565 S
C168 C169 1.315 . S
C169 H140 0.922 1_655 S
C169 C164 1.266 . S
C169 C168 1.315 . S
C170 O142 1.214 . S
C170 O150 1.234 . S
C171 H143 0.929 . S
C171 C174 1.391 . S
C171 C176 1.391 . S
C172 H144 0.929 . S
C172 C173 1.390 . S
C172 N175 1.391 . S
C173 H145 0.930 . S
C173 C172 1.390 . S
C173 C174 1.392 . S
C174 H146 0.929 . S
C174 C171 1.391 . S
C174 C173 1.392 . S
N175 Co119 2.257 . S
N175 C172 1.391 . S
N175 C176 1.388 . S
C176 H147 0.930 . S
C176 C171 1.391 . S
C176 N175 1.388 . S
Co177 O179 2.143 . S
Co177 O185 2.074 . S
Co177 O188 2.093 . S
Co177 O201 2.097 . S
Co177 N218 2.151 . S
Co177 N226 2.214 . S
Co178 O179 2.160 . S
Co178 O184 2.058 . S
Co178 O194 2.057 . S
Co178 O209 2.037 . S
Co178 N213 2.145 . S
Co178 N234 2.257 1_455 S
O179 Co177 2.143 . S
O179 Co178 2.160 . S
C180 O181 1.278 . S
C180 O188 1.224 . S
O181 C180 1.278 . S
C182 O183 1.245 . S
C182 O194 1.232 . S
O183 C182 1.245 . S
O184 Co178 2.058 . S
O184 C210 1.269 . S
O185 Co177 2.074 . S
O185 C210 1.257 . S
H186 C211 0.930 . S
H187 C217 0.930 . S
O188 Co177 2.093 . S
O188 C180 1.224 . S
H189 C221 0.929 . S
H190 C223 0.930 . S
H191 C224 0.930 . S
H192 C222 0.929 . S
H193 C225 0.928 . S
O194 Co178 2.057 . S
O194 C182 1.232 . S
H195 C214 0.929 . S
H196 C215 0.929 . S
H197 C227 0.931 1_545 S
H198 C219 0.929 . S
H199 C228 0.922 1_545 S
H200 C220 0.931 . S
O201 Co177 2.097 . S
O201 C229 1.214 . S
H202 C230 0.929 . S
H203 C231 0.929 . S
H204 C232 0.930 . S
H205 C233 0.929 . S
H206 C235 0.930 1_455 S
H207 C212 0.930 . S
H208 C216 0.930 1_655 S
O209 Co178 2.037 . S
O209 C229 1.234 . S
C210 O184 1.269 . S
C210 O185 1.257 . S
C211 H186 0.930 . S
C211 C214 1.388 . S
C211 C216 1.418 . S
C212 H207 0.930 . S
C212 C215 1.404 . S
C212 C216 1.353 . S
N213 Co178 2.145 . S
N213 C214 1.397 . S
N213 C215 1.334 . S
C214 H195 0.929 . S
C214 C211 1.388 . S
C214 N213 1.397 . S
C215 H196 0.929 . S
C215 C212 1.404 . S
C215 N213 1.334 . S
C216 H208 0.930 1_455 S
C216 C211 1.418 . S
C216 C212 1.353 . S
C217 H187 0.930 . S
C217 N218 1.330 . S
C217 C219 1.446 . S
N218 Co177 2.151 . S
N218 C217 1.330 . S
N218 C222 1.418 . S
C219 H198 0.929 . S
C219 C217 1.446 . S
C219 C220 1.332 . S
C220 H200 0.931 . S
C220 C219 1.332 . S
C220 C221 1.267 . S
C221 H189 0.929 . S
C221 C220 1.267 . S
C221 C222 1.251 . S
C222 H192 0.929 . S
C222 N218 1.418 . S
C222 C221 1.251 . S
C223 H190 0.930 . S
C223 C225 1.406 . S
C223 C228 1.266 . S
C224 H191 0.930 . S
C224 N226 1.325 . S
C224 C227 1.357 . S
C225 H193 0.928 . S
C225 C223 1.406 . S
C225 N226 1.261 . S
N226 Co177 2.214 . S
N226 C224 1.325 . S
N226 C225 1.261 . S
C227 H197 0.931 1_565 S
C227 C224 1.357 . S
C227 C228 1.315 . S
C228 H199 0.922 1_565 S
C228 C223 1.266 . S
C228 C227 1.315 . S
C229 O201 1.214 . S
C229 O209 1.234 . S
C230 H202 0.929 . S
C230 C233 1.391 . S
C230 C235 1.391 . S
C231 H203 0.929 . S
C231 C232 1.390 . S
C231 N234 1.391 . S
C232 H204 0.930 . S
C232 C231 1.390 . S
C232 C233 1.392 . S
C233 H205 0.929 . S
C233 C230 1.391 . S
C233 C232 1.392 . S
N234 Co178 2.257 1_655 S
N234 C231 1.391 . S
N234 C235 1.388 . S
C235 H206 0.930 1_655 S
C235 C230 1.391 . S
C235 N234 1.388 . S
Co236 O238 2.143 . S
Co236 O244 2.074 1_545 S
Co236 O247 2.093 . S
Co236 O260 2.097 . S
Co236 N277 2.151 1_545 S
Co236 N285 2.214 1_545 S
Co237 O238 2.160 . S
Co237 O243 2.058 1_545 S
Co237 O253 2.057 . S
Co237 O268 2.037 . S
Co237 N272 2.145 . S
Co237 N293 2.257 . S
O238 Co236 2.143 . S
O238 Co237 2.160 . S
C239 O240 1.278 . S
C239 O247 1.224 . S
O240 C239 1.278 . S
C241 O242 1.245 1_545 S
C241 O253 1.232 . S
O242 C241 1.245 1_565 S
O243 Co237 2.058 1_565 S
O243 C269 1.269 . S
O244 Co236 2.074 1_565 S
O244 C269 1.257 . S
H245 C270 0.930 . S
H246 C276 0.930 . S
O247 Co236 2.093 . S
O247 C239 1.224 . S
H248 C280 0.929 . S
H249 C282 0.930 . S
H250 C283 0.930 . S
H251 C281 0.929 . S
H252 C284 0.928 . S
O253 Co237 2.057 . S
O253 C241 1.232 . S
H254 C273 0.929 . S
H255 C274 0.929 . S
H256 C286 0.931 . S
H257 C278 0.929 . S
H258 C287 0.930 . S
H259 C279 0.931 . S
O260 Co236 2.097 . S
O260 C288 1.214 . S
H261 C289 0.929 . S
H262 C290 0.929 . S
H263 C291 0.930 . S
H264 C292 0.929 . S
H265 C294 0.930 . S
H266 C271 0.930 . S
H267 C275 0.930 . S
O268 Co237 2.037 . S
O268 C288 1.234 . S
C269 O243 1.269 . S
C269 O244 1.257 . S
C270 H245 0.930 . S
C270 C273 1.388 . S
C270 C275 1.418 . S
C271 H266 0.930 . S
C271 C274 1.404 . S
C271 C275 1.353 . S
N272 Co237 2.145 . S
N272 C273 1.397 . S
N272 C274 1.334 . S
C273 H254 0.929 . S
C273 C270 1.388 . S
C273 N272 1.397 . S
C274 H255 0.929 . S
C274 C271 1.404 . S
C274 N272 1.334 . S
C275 H267 0.930 . S
C275 C270 1.418 . S
C275 C271 1.353 . S
C276 H246 0.930 . S
C276 N277 1.330 . S
C276 C278 1.446 . S
N277 Co236 2.151 1_565 S
N277 C276 1.330 . S
N277 C281 1.418 . S
C278 H257 0.929 . S
C278 C276 1.446 . S
C278 C279 1.332 . S
C279 H259 0.931 . S
C279 C278 1.332 . S
C279 C280 1.267 . S
C280 H248 0.929 . S
C280 C279 1.267 . S
C280 C281 1.251 . S
C281 H251 0.929 . S
C281 N277 1.418 . S
C281 C280 1.251 . S
C282 H249 0.930 . S
C282 C284 1.406 . S
C282 C287 1.261 . S
C283 H250 0.930 . S
C283 N285 1.325 1_545 S
C283 C286 1.357 1_545 S
C284 H252 0.928 . S
C284 C282 1.406 . S
C284 N285 1.261 . S
N285 Co236 2.214 1_565 S
N285 C283 1.325 1_565 S
N285 C284 1.261 . S
C286 H256 0.931 . S
C286 C283 1.357 1_565 S
C286 C287 1.312 . S
C287 H258 0.930 . S
C287 C282 1.261 . S
C287 C286 1.312 . S
C288 O260 1.214 . S
C288 O268 1.234 . S
C289 H261 0.929 . S
C289 C292 1.391 . S
C289 C294 1.391 . S
C290 H262 0.929 . S
C290 C291 1.390 . S
C290 N293 1.391 . S
C291 H263 0.930 . S
C291 C290 1.390 . S
C291 C292 1.392 . S
C292 H264 0.929 . S
C292 C289 1.391 . S
C292 C291 1.392 . S
N293 Co237 2.257 . S
N293 C290 1.391 . S
N293 C294 1.388 . S
C294 H265 0.930 . S
C294 C289 1.391 . S
C294 N293 1.388 . S
Co295 O297 2.143 . S
Co295 O303 2.074 . S
Co295 O306 2.093 . S
Co295 O319 2.097 . S
Co295 N336 2.151 . S
Co295 N344 2.214 . S
Co296 O297 2.160 . S
Co296 O302 2.058 . S
Co296 O312 2.057 . S
Co296 O327 2.037 . S
Co296 N331 2.145 . S
Co296 N352 2.257 1_455 S
O297 Co295 2.143 . S
O297 Co296 2.160 . S
C298 O299 1.278 . S
C298 O306 1.224 . S
O299 C298 1.278 . S
C300 O301 1.245 . S
C300 O312 1.232 . S
O301 C300 1.245 . S
O302 Co296 2.058 . S
O302 C328 1.269 . S
O303 Co295 2.074 . S
O303 C328 1.257 . S
H304 C329 0.930 . S
H305 C335 0.930 . S
O306 Co295 2.093 . S
O306 C298 1.224 . S
H307 C339 0.929 . S
H308 C341 0.930 . S
H309 C342 0.930 . S
H310 C340 0.929 . S
H311 C343 0.928 . S
O312 Co296 2.057 . S
O312 C300 1.232 . S
H313 C332 0.929 . S
H314 C333 0.929 . S
H315 C345 0.931 . S
H316 C337 0.929 . S
H317 C346 0.930 . S
H318 C338 0.931 . S
O319 Co295 2.097 . S
O319 C347 1.214 . S
H320 C348 0.929 . S
H321 C349 0.929 . S
H322 C350 0.930 . S
H323 C351 0.929 . S
H324 C353 0.930 1_455 S
H325 C330 0.930 . S
H326 C334 0.930 1_655 S
O327 Co296 2.037 . S
O327 C347 1.234 . S
C328 O302 1.269 . S
C328 O303 1.257 . S
C329 H304 0.930 . S
C329 C332 1.388 . S
C329 C334 1.418 . S
C330 H325 0.930 . S
C330 C333 1.404 . S
C330 C334 1.353 . S
N331 Co296 2.145 . S
N331 C332 1.397 . S
N331 C333 1.334 . S
C332 H313 0.929 . S
C332 C329 1.388 . S
C332 N331 1.397 . S
C333 H314 0.929 . S
C333 C330 1.404 . S
C333 N331 1.334 . S
C334 H326 0.930 1_455 S
C334 C329 1.418 . S
C334 C330 1.353 . S
C335 H305 0.930 . S
C335 N336 1.330 . S
C335 C337 1.446 . S
N336 Co295 2.151 . S
N336 C335 1.330 . S
N336 C340 1.418 . S
C337 H316 0.929 . S
C337 C335 1.446 . S
C337 C338 1.332 . S
C338 H318 0.931 . S
C338 C337 1.332 . S
C338 C339 1.267 . S
C339 H307 0.929 . S
C339 C338 1.267 . S
C339 C340 1.251 . S
C340 H310 0.929 . S
C340 N336 1.418 . S
C340 C339 1.251 . S
C341 H308 0.930 . S
C341 C343 1.406 . S
C341 C346 1.261 . S
C342 H309 0.930 . S
C342 N344 1.325 . S
C342 C345 1.357 . S
C343 H311 0.928 . S
C343 C341 1.406 . S
C343 N344 1.261 . S
N344 Co295 2.214 . S
N344 C342 1.325 . S
N344 C343 1.261 . S
C345 H315 0.931 . S
C345 C342 1.357 . S
C345 C346 1.312 . S
C346 H317 0.930 . S
C346 C341 1.261 . S
C346 C345 1.312 . S
C347 O319 1.214 . S
C347 O327 1.234 . S
C348 H320 0.929 . S
C348 C351 1.391 . S
C348 C353 1.391 . S
C349 H321 0.929 . S
C349 C350 1.390 . S
C349 N352 1.391 . S
C350 H322 0.930 . S
C350 C349 1.390 . S
C350 C351 1.392 . S
C351 H323 0.929 . S
C351 C348 1.391 . S
C351 C350 1.392 . S
N352 Co296 2.257 1_655 S
N352 C349 1.391 . S
N352 C353 1.388 . S
C353 H324 0.930 1_655 S
C353 C348 1.391 . S
C353 N352 1.388 . S
Co354 O356 2.143 . S
Co354 O362 2.074 . S
Co354 O365 2.093 . S
Co354 O378 2.097 . S
Co354 N395 2.151 . S
Co354 N403 2.214 . S
Co355 O356 2.160 . S
Co355 O361 2.058 . S
Co355 O371 2.057 . S
Co355 O386 2.037 . S
Co355 N390 2.145 . S
Co355 N411 2.257 1_545 S
O356 Co354 2.143 . S
O356 Co355 2.160 . S
C357 O358 1.278 . S
C357 O365 1.224 . S
O358 C357 1.278 . S
C359 O360 1.245 . S
C359 O371 1.232 . S
O360 C359 1.245 . S
O361 Co355 2.058 . S
O361 C387 1.269 . S
O362 Co354 2.074 . S
O362 C387 1.257 . S
H363 C388 0.930 . S
H364 C394 0.930 . S
O365 Co354 2.093 . S
O365 C357 1.224 . S
H366 C398 0.929 . S
H367 C400 0.930 . S
H368 C401 0.930 . S
H369 C399 0.929 . S
H370 C402 0.928 . S
O371 Co355 2.057 . S
O371 C359 1.232 . S
H372 C391 0.929 . S
H373 C392 0.929 . S
H374 C404 0.931 1_455 S
H375 C396 0.929 . S
H376 C405 0.922 1_455 S
H377 C397 0.931 . S
O378 Co354 2.097 . S
O378 C406 1.214 . S
H379 C407 0.929 . S
H380 C408 0.929 . S
H381 C409 0.930 . S
H382 C410 0.929 . S
H383 C412 0.930 1_545 S
H384 C389 0.930 . S
H385 C393 0.930 1_565 S
O386 Co355 2.037 . S
O386 C406 1.234 . S
C387 O361 1.269 . S
C387 O362 1.257 . S
C388 H363 0.930 . S
C388 C391 1.388 . S
C388 C393 1.418 . S
C389 H384 0.930 . S
C389 C392 1.404 . S
C389 C393 1.353 . S
N390 Co355 2.145 . S
N390 C391 1.397 . S
N390 C392 1.334 . S
C391 H372 0.929 . S
C391 C388 1.388 . S
C391 N390 1.397 . S
C392 H373 0.929 . S
C392 C389 1.404 . S
C392 N390 1.334 . S
C393 H385 0.930 1_545 S
C393 C388 1.418 . S
C393 C389 1.353 . S
C394 H364 0.930 . S
C394 N395 1.330 . S
C394 C396 1.446 . S
N395 Co354 2.151 . S
N395 C394 1.330 . S
N395 C399 1.418 . S
C396 H375 0.929 . S
C396 C394 1.446 . S
C396 C397 1.332 . S
C397 H377 0.931 . S
C397 C396 1.332 . S
C397 C398 1.267 . S
C398 H366 0.929 . S
C398 C397 1.267 . S
C398 C399 1.251 . S
C399 H369 0.929 . S
C399 N395 1.418 . S
C399 C398 1.251 . S
C400 H367 0.930 . S
C400 C402 1.406 . S
C400 C405 1.266 . S
C401 H368 0.930 . S
C401 N403 1.325 . S
C401 C404 1.357 . S
C402 H370 0.928 . S
C402 C400 1.406 . S
C402 N403 1.261 . S
N403 Co354 2.214 . S
N403 C401 1.325 . S
N403 C402 1.261 . S
C404 H374 0.931 1_655 S
C404 C401 1.357 . S
C404 C405 1.315 . S
C405 H376 0.922 1_655 S
C405 C400 1.266 . S
C405 C404 1.315 . S
C406 O378 1.214 . S
C406 O386 1.234 . S
C407 H379 0.929 . S
C407 C410 1.391 . S
C407 C412 1.391 . S
C408 H380 0.929 . S
C408 C409 1.390 . S
C408 N411 1.391 . S
C409 H381 0.930 . S
C409 C408 1.390 . S
C409 C410 1.392 . S
C410 H382 0.929 . S
C410 C407 1.391 . S
C410 C409 1.392 . S
N411 Co355 2.257 1_565 S
N411 C408 1.391 . S
N411 C412 1.388 . S
C412 H383 0.930 1_565 S
C412 C407 1.391 . S
C412 N411 1.388 . S
Co413 O415 2.143 . S
Co413 O421 2.074 1_455 S
Co413 O424 2.093 . S
Co413 O437 2.097 . S
Co413 N454 2.151 1_455 S
Co413 N462 2.214 1_455 S
Co414 O415 2.160 . S
Co414 O420 2.058 1_455 S
Co414 O430 2.057 . S
Co414 O445 2.037 . S
Co414 N449 2.145 . S
Co414 N470 2.257 . S
O415 Co413 2.143 . S
O415 Co414 2.160 . S
C416 O417 1.278 . S
C416 O424 1.224 . S
O417 C416 1.278 . S
C418 O419 1.245 1_455 S
C418 O430 1.232 . S
O419 C418 1.245 1_655 S
O420 Co414 2.058 1_655 S
O420 C446 1.269 . S
O421 Co413 2.074 1_655 S
O421 C446 1.257 . S
H422 C447 0.930 . S
H423 C453 0.930 . S
O424 Co413 2.093 . S
O424 C416 1.224 . S
H425 C457 0.929 . S
H426 C459 0.930 . S
H427 C460 0.930 . S
H428 C458 0.929 . S
H429 C461 0.928 . S
O430 Co414 2.057 . S
O430 C418 1.232 . S
H431 C450 0.929 . S
H432 C451 0.929 . S
H433 C463 0.931 1_545 S
H434 C455 0.929 . S
H435 C464 0.922 1_545 S
H436 C456 0.931 . S
O437 Co413 2.097 . S
O437 C465 1.214 . S
H438 C466 0.929 . S
H439 C467 0.929 . S
H440 C468 0.930 . S
H441 C469 0.929 . S
H442 C471 0.930 . S
H443 C448 0.930 . S
H444 C452 0.930 . S
O445 Co414 2.037 . S
O445 C465 1.234 . S
C446 O420 1.269 . S
C446 O421 1.257 . S
C447 H422 0.930 . S
C447 C450 1.388 . S
C447 C452 1.418 . S
C448 H443 0.930 . S
C448 C451 1.404 . S
C448 C452 1.353 . S
N449 Co414 2.145 . S
N449 C450 1.397 . S
N449 C451 1.334 . S
C450 H431 0.929 . S
C450 C447 1.388 . S
C450 N449 1.397 . S
C451 H432 0.929 . S
C451 C448 1.404 . S
C451 N449 1.334 . S
C452 H444 0.930 . S
C452 C447 1.418 . S
C452 C448 1.353 . S
C453 H423 0.930 . S
C453 N454 1.330 . S
C453 C455 1.446 . S
N454 Co413 2.151 1_655 S
N454 C453 1.330 . S
N454 C458 1.418 . S
C455 H434 0.929 . S
C455 C453 1.446 . S
C455 C456 1.332 . S
C456 H436 0.931 . S
C456 C455 1.332 . S
C456 C457 1.267 . S
C457 H425 0.929 . S
C457 C456 1.267 . S
C457 C458 1.251 . S
C458 H428 0.929 . S
C458 N454 1.418 . S
C458 C457 1.251 . S
C459 H426 0.930 . S
C459 C461 1.406 . S
C459 C464 1.266 . S
C460 H427 0.930 . S
C460 N462 1.325 1_455 S
C460 C463 1.357 1_455 S
C461 H429 0.928 . S
C461 C459 1.406 . S
C461 N462 1.261 . S
N462 Co413 2.214 1_655 S
N462 C460 1.325 1_655 S
N462 C461 1.261 . S
C463 H433 0.931 1_565 S
C463 C460 1.357 1_655 S
C463 C464 1.315 . S
C464 H435 0.922 1_565 S
C464 C459 1.266 . S
C464 C463 1.315 . S
C465 O437 1.214 . S
C465 O445 1.234 . S
C466 H438 0.929 . S
C466 C469 1.391 . S
C466 C471 1.391 . S
C467 H439 0.929 . S
C467 C468 1.390 . S
C467 N470 1.391 . S
C468 H440 0.930 . S
C468 C467 1.390 . S
C468 C469 1.392 . S
C469 H441 0.929 . S
C469 C466 1.391 . S
C469 C468 1.392 . S
N470 Co414 2.257 . S
N470 C467 1.391 . S
N470 C471 1.388 . S
C471 H442 0.930 . S
C471 C466 1.391 . S
C471 N470 1.388 . S
H472 C478 0.930 . S
H473 C481 0.930 . S
H474 C482 0.930 . S
H475 C483 0.930 . S
H476 C486 0.930 . S
H477 C487 0.930 . S
C478 H472 0.930 . S
C478 C479 1.355 . S
C478 C480 1.415 . S
C479 C478 1.355 . S
C479 C481 1.419 . S
C480 C478 1.415 . S
C480 C485 1.425 1_554 S
C480 C487 1.409 1_554 S
C481 H473 0.930 . S
C481 C479 1.419 . S
C481 C482 1.362 . S
C482 H474 0.930 . S
C482 C481 1.362 . S
C482 C485 1.409 1_554 S
C483 H475 0.930 . S
C483 C484 1.355 . S
C483 C485 1.415 . S
C484 C483 1.355 . S
C484 C486 1.419 . S
C485 C480 1.425 1_556 S
C485 C482 1.409 1_556 S
C485 C483 1.415 . S
C486 H476 0.930 . S
C486 C484 1.419 . S
C486 C487 1.362 . S
C487 H477 0.930 . S
C487 C480 1.409 1_556 S
C487 C486 1.362 . S
H488 C494 0.930 . S
H489 C497 0.930 . S
H490 C498 0.930 . S
H491 C499 0.930 . S
H492 C502 0.930 . S
H493 C503 0.930 . S
C494 H488 0.930 . S
C494 C495 1.355 . S
C494 C496 1.415 . S
C495 C494 1.355 . S
C495 C497 1.419 . S
C496 C494 1.415 . S
C496 C501 1.425 . S
C496 C503 1.409 . S
C497 H489 0.930 . S
C497 C495 1.419 . S
C497 C498 1.362 . S
C498 H490 0.930 . S
C498 C497 1.362 . S
C498 C501 1.409 . S
C499 H491 0.930 . S
C499 C500 1.355 . S
C499 C501 1.415 . S
C500 C499 1.355 . S
C500 C502 1.419 . S
C501 C496 1.425 . S
C501 C498 1.409 . S
C501 C499 1.415 . S
C502 H492 0.930 . S
C502 C500 1.419 . S
C502 C503 1.362 . S
C503 H493 0.930 . S
C503 C496 1.409 . S
C503 C502 1.362 . S
H504 C510 0.930 . S
H505 C513 0.930 . S
H506 C514 0.930 . S
H507 C515 0.930 . S
H508 C518 0.930 . S
H509 C519 0.930 1_565 S
C510 H504 0.930 . S
C510 C511 1.355 . S
C510 C512 1.415 . S
C511 C510 1.355 . S
C511 C513 1.419 . S
C512 C510 1.415 . S
C512 C517 1.425 1_556 S
C512 C519 1.409 1_556 S
C513 H505 0.930 . S
C513 C511 1.419 . S
C513 C514 1.362 . S
C514 H506 0.930 . S
C514 C513 1.362 . S
C514 C517 1.409 1_556 S
C515 H507 0.930 . S
C515 C516 1.355 . S
C515 C517 1.415 . S
C516 C515 1.355 . S
C516 C518 1.419 . S
C517 C512 1.425 1_554 S
C517 C514 1.409 1_554 S
C517 C515 1.415 . S
C518 H508 0.930 . S
C518 C516 1.419 . S
C518 C519 1.362 . S
C519 H509 0.930 1_545 S
C519 C512 1.409 1_554 S
C519 C518 1.362 . S
H520 C526 0.930 . S
H521 C529 0.930 . S
H522 C530 0.930 . S
H523 C531 0.930 . S
H524 C534 0.930 1_655 S
H525 C535 0.930 1_655 S
C526 H520 0.930 . S
C526 C527 1.355 . S
C526 C528 1.415 . S
C527 C526 1.355 . S
C527 C529 1.419 . S
C528 C526 1.415 . S
C528 C533 1.425 . S
C528 C535 1.409 . S
C529 H521 0.930 . S
C529 C527 1.419 . S
C529 C530 1.362 . S
C530 H522 0.930 . S
C530 C529 1.362 . S
C530 C533 1.409 . S
C531 H523 0.930 . S
C531 C532 1.355 . S
C531 C533 1.415 . S
C532 C531 1.355 . S
C532 C534 1.419 . S
C533 C528 1.425 . S
C533 C530 1.409 . S
C533 C531 1.415 . S
C534 H524 0.930 1_455 S
C534 C532 1.419 . S
C534 C535 1.362 . S
C535 H525 0.930 1_455 S
C535 C528 1.409 . S
C535 C534 1.362 . S
H536 C542 0.930 . S
H537 C545 0.930 . S
H538 C546 0.930 . S
H539 C547 0.930 . S
H540 C550 0.930 1_565 S
H541 C551 0.930 . S
C542 H536 0.930 . S
C542 C543 1.355 . S
C542 C544 1.415 . S
C543 C542 1.355 . S
C543 C545 1.419 . S
C544 C542 1.415 . S
C544 C549 1.425 . S
C544 C551 1.409 . S
C545 H537 0.930 . S
C545 C543 1.419 . S
C545 C546 1.362 . S
C546 H538 0.930 . S
C546 C545 1.362 . S
C546 C549 1.409 . S
C547 H539 0.930 . S
C547 C548 1.355 . S
C547 C549 1.415 . S
C548 C547 1.355 . S
C548 C550 1.419 . S
C549 C544 1.425 . S
C549 C546 1.409 . S
C549 C547 1.415 . S
C550 H540 0.930 1_545 S
C550 C548 1.419 . S
C550 C551 1.362 . S
C551 H541 0.930 . S
C551 C544 1.409 . S
C551 C550 1.362 . S
H552 C558 0.930 1_655 S
H553 C561 0.930 . S
H554 C562 0.930 . S
H555 C563 0.930 . S
H556 C566 0.930 . S
H557 C567 0.930 1_655 S
C558 H552 0.930 1_455 S
C558 C559 1.355 . S
C558 C560 1.415 . S
C559 C558 1.355 . S
C559 C561 1.419 . S
C560 C558 1.415 . S
C560 C565 1.425 . S
C560 C567 1.409 . S
C561 H553 0.930 . S
C561 C559 1.419 . S
C561 C562 1.362 . S
C562 H554 0.930 . S
C562 C561 1.362 . S
C562 C565 1.409 . S
C563 H555 0.930 . S
C563 C564 1.355 . S
C563 C565 1.415 . S
C564 C563 1.355 . S
C564 C566 1.419 . S
C565 C560 1.425 . S
C565 C562 1.409 . S
C565 C563 1.415 . S
C566 H556 0.930 . S
C566 C564 1.419 . S
C566 C567 1.362 . S
C567 H557 0.930 1_455 S
C567 C560 1.409 . S
C567 C566 1.362 . S
H568 C574 0.930 . S
H569 C577 0.930 . S
H570 C578 0.930 . S
H571 C579 0.930 1_565 S
H572 C582 0.930 . S
H573 C583 0.930 . S
C574 H568 0.930 . S
C574 C575 1.355 . S
C574 C576 1.415 . S
C575 C574 1.355 . S
C575 C577 1.419 . S
C576 C574 1.415 . S
C576 C581 1.425 . S
C576 C583 1.409 . S
C577 H569 0.930 . S
C577 C575 1.419 . S
C577 C578 1.362 . S
C578 H570 0.930 . S
C578 C577 1.362 . S
C578 C581 1.409 . S
C579 H571 0.930 1_545 S
C579 C580 1.355 . S
C579 C581 1.415 . S
C580 C579 1.355 . S
C580 C582 1.419 . S
C581 C576 1.425 . S
C581 C578 1.409 . S
C581 C579 1.415 . S
C582 H572 0.930 . S
C582 C580 1.419 . S
C582 C583 1.362 . S
C583 H573 0.930 . S
C583 C576 1.409 . S
C583 C582 1.362 . S
H584 C590 0.930 . S
H585 C593 0.930 . S
H586 C594 0.930 1_655 S
H587 C595 0.930 1_655 S
H588 C598 0.930 . S
H589 C599 0.930 . S
C590 H584 0.930 . S
C590 C591 1.355 . S
C590 C592 1.415 . S
C591 C590 1.355 . S
C591 C593 1.419 . S
C592 C590 1.415 . S
C592 C597 1.425 . S
C592 C599 1.409 . S
C593 H585 0.930 . S
C593 C591 1.419 . S
C593 C594 1.362 . S
C594 H586 0.930 1_455 S
C594 C593 1.362 . S
C594 C597 1.409 . S
C595 H587 0.930 1_455 S
C595 C596 1.355 . S
C595 C597 1.415 . S
C596 C595 1.355 . S
C596 C598 1.419 . S
C597 C592 1.425 . S
C597 C594 1.409 . S
C597 C595 1.415 . S
C598 H588 0.930 . S
C598 C596 1.419 . S
C598 C599 1.362 . S
C599 H589 0.930 . S
C599 C592 1.409 . S
C599 C598 1.362 . S
H600 C606 0.930 . S
H601 C609 0.930 . S
H602 C610 0.930 . S
H603 C611 0.930 . S
H604 C614 0.930 . S
H605 C615 0.930 . S
C606 H600 0.930 . S
C606 C607 1.355 . S
C606 C608 1.415 . S
C607 C606 1.355 . S
C607 C609 1.419 . S
C608 C606 1.415 . S
C608 C613 1.425 . S
C608 C615 1.409 . S
C609 H601 0.930 . S
C609 C607 1.419 . S
C609 C610 1.362 . S
C610 H602 0.930 . S
C610 C609 1.362 . S
C610 C613 1.409 . S
C611 H603 0.930 . S
C611 C612 1.355 . S
C611 C613 1.415 . S
C612 C611 1.355 . S
C612 C614 1.419 . S
C613 C608 1.425 . S
C613 C610 1.409 . S
C613 C611 1.415 . S
C614 H604 0.930 . S
C614 C612 1.419 . S
C614 C615 1.362 . S
C615 H605 0.930 . S
C615 C608 1.409 . S
C615 C614 1.362 . S
H616 C622 0.930 . S
H617 C625 0.930 . S
H618 C626 0.930 . S
H619 C627 0.930 . S
H620 C630 0.930 . S
H621 C631 0.930 . S
C622 H616 0.930 . S
C622 C623 1.355 . S
C622 C624 1.415 . S
C623 C622 1.355 . S
C623 C625 1.419 . S
C624 C622 1.415 . S
C624 C629 1.425 . S
C624 C631 1.409 . S
C625 H617 0.930 . S
C625 C623 1.419 . S
C625 C626 1.362 . S
C626 H618 0.930 . S
C626 C625 1.362 . S
C626 C629 1.409 . S
C627 H619 0.930 . S
C627 C628 1.355 . S
C627 C629 1.415 . S
C628 C627 1.355 . S
C628 C630 1.419 . S
C629 C624 1.425 . S
C629 C626 1.409 . S
C629 C627 1.415 . S
C630 H620 0.930 . S
C630 C628 1.419 . S
C630 C631 1.362 . S
C631 H621 0.930 . S
C631 C624 1.409 . S
C631 C630 1.362 . S
H632 C638 0.930 . S
H633 C641 0.930 . S
H634 C642 0.930 . S
H635 C643 0.930 . S
H636 C646 0.930 . S
H637 C647 0.930 . S
C638 H632 0.930 . S
C638 C639 1.355 . S
C638 C640 1.415 . S
C639 C638 1.355 . S
C639 C641 1.419 . S
C640 C638 1.415 . S
C640 C645 1.425 . S
C640 C647 1.409 . S
C641 H633 0.930 . S
C641 C639 1.419 . S
C641 C642 1.362 . S
C642 H634 0.930 . S
C642 C641 1.362 . S
C642 C645 1.409 . S
C643 H635 0.930 . S
C643 C644 1.355 . S
C643 C645 1.415 . S
C644 C643 1.355 . S
C644 C646 1.419 . S
C645 C640 1.425 . S
C645 C642 1.409 . S
C645 C643 1.415 . S
C646 H636 0.930 . S
C646 C644 1.419 . S
C646 C647 1.362 . S
C647 H637 0.930 . S
C647 C640 1.409 . S
C647 C646 1.362 . S
H648 C654 0.930 . S
H649 C657 0.930 . S
H650 C658 0.930 . S
H651 C659 0.930 . S
H652 C662 0.930 . S
H653 C663 0.930 . S
C654 H648 0.930 . S
C654 C655 1.355 . S
C654 C656 1.415 . S
C655 C654 1.355 . S
C655 C657 1.419 . S
C656 C654 1.415 . S
C656 C661 1.425 . S
C656 C663 1.409 . S
C657 H649 0.930 . S
C657 C655 1.419 . S
C657 C658 1.362 . S
C658 H650 0.930 . S
C658 C657 1.362 . S
C658 C661 1.409 . S
C659 H651 0.930 . S
C659 C660 1.355 . S
C659 C661 1.415 . S
C660 C659 1.355 . S
C660 C662 1.419 . S
C661 C656 1.425 . S
C661 C658 1.409 . S
C661 C659 1.415 . S
C662 H652 0.930 . S
C662 C660 1.419 . S
C662 C663 1.362 . S
C663 H653 0.930 . S
C663 C656 1.409 . S
C663 C662 1.362 . S
H664 C670 0.930 . S
H665 C673 0.930 . S
H666 C674 0.930 . S
H667 C675 0.930 . S
H668 C678 0.930 . S
H669 C679 0.930 1_545 S
C670 H664 0.930 . S
C670 C671 1.355 1_545 S
C670 C672 1.415 1_545 S
C671 C670 1.355 1_565 S
C671 C673 1.419 . S
C672 C670 1.415 1_565 S
C672 C677 1.425 . S
C672 C679 1.409 . S
C673 H665 0.930 . S
C673 C671 1.419 . S
C673 C674 1.362 . S
C674 H666 0.930 . S
C674 C673 1.362 . S
C674 C677 1.409 . S
C675 H667 0.930 . S
C675 C676 1.355 . S
C675 C677 1.415 . S
C676 C675 1.355 . S
C676 C678 1.419 1_655 S
C677 C672 1.425 . S
C677 C674 1.409 . S
C677 C675 1.415 . S
C678 H668 0.930 . S
C678 C676 1.419 1_455 S
C678 C679 1.362 1_455 S
C679 H669 0.930 1_565 S
C679 C672 1.409 . S
C679 C678 1.362 1_655 S
H680 C686 0.922 1_545 S
H681 C689 0.930 . S
H682 C690 0.930 . S
H683 C691 0.930 . S
H684 C694 0.930 . S
H685 C695 0.930 1_545 S
C686 H680 0.922 1_565 S
C686 C687 1.356 . S
C686 C688 1.421 . S
C687 C686 1.356 . S
C687 C689 1.419 . S
C688 C686 1.421 . S
C688 C693 1.425 . S
C688 C695 1.409 . S
C689 H681 0.930 . S
C689 C687 1.419 . S
C689 C690 1.362 . S
C690 H682 0.930 . S
C690 C689 1.362 . S
C690 C693 1.409 . S
C691 H683 0.930 . S
C691 C692 1.355 . S
C691 C693 1.415 . S
C692 C691 1.355 . S
C692 C694 1.419 . S
C693 C688 1.425 . S
C693 C690 1.409 . S
C693 C691 1.415 . S
C694 H684 0.930 . S
C694 C692 1.419 . S
C694 C695 1.362 . S
C695 H685 0.930 1_565 S
C695 C688 1.409 . S
C695 C694 1.362 . S
H696 C702 0.930 . S
H697 C705 0.930 . S
H698 C706 0.930 . S
H699 C707 0.930 . S
H700 C710 0.930 . S
H701 C711 0.930 . S
C702 H696 0.930 . S
C702 C703 1.355 . S
C702 C704 1.415 . S
C703 C702 1.355 . S
C703 C705 1.419 . S
C704 C702 1.415 . S
C704 C709 1.425 . S
C704 C711 1.409 . S
C705 H697 0.930 . S
C705 C703 1.419 . S
C705 C706 1.362 . S
C706 H698 0.930 . S
C706 C705 1.362 . S
C706 C709 1.409 . S
C707 H699 0.930 . S
C707 C708 1.355 . S
C707 C709 1.415 . S
C708 C707 1.355 . S
C708 C710 1.419 . S
C709 C704 1.425 . S
C709 C706 1.409 . S
C709 C707 1.415 . S
C710 H700 0.930 . S
C710 C708 1.419 . S
C710 C711 1.362 . S
C711 H701 0.930 . S
C711 C704 1.409 . S
C711 C710 1.362 . S
H712 C718 0.915 1_455 S
H713 C721 0.930 . S
H714 C722 0.930 . S
H715 C723 0.930 . S
H716 C726 0.930 . S
H717 C727 0.930 1_455 S
C718 H712 0.915 1_655 S
C718 C719 1.358 . S
C718 C720 1.426 . S
C719 C718 1.358 . S
C719 C721 1.419 . S
C720 C718 1.426 . S
C720 C725 1.425 . S
C720 C727 1.409 . S
C721 H713 0.930 . S
C721 C719 1.419 . S
C721 C722 1.362 . S
C722 H714 0.930 . S
C722 C721 1.362 . S
C722 C725 1.409 . S
C723 H715 0.930 . S
C723 C724 1.355 . S
C723 C725 1.415 . S
C724 C723 1.355 . S
C724 C726 1.419 . S
C725 C720 1.425 . S
C725 C722 1.409 . S
C725 C723 1.415 . S
C726 H716 0.930 . S
C726 C724 1.419 . S
C726 C727 1.362 . S
C727 H717 0.930 1_655 S
C727 C720 1.409 . S
C727 C726 1.362 . S
C479 C3 1.549 . S
C484 C239 1.564 . S
C495 C62 1.573 . S
C500 C298 1.556 . S
C511 C357 1.550 . S
C516 C121 1.554 . S
C527 C416 1.564 . S
C532 C180 1.575 . S
C543 C5 1.639 . S
C548 C123 1.630 . S
C559 C64 1.593 . S
C564 C182 1.594 . S
C575 C359 1.598 . S
C580 C241 1.594 . S
C591 C300 1.592 . S
C596 C418 1.595 . S
C607 C328 1.021 . S
C612 C33 1.070 . S
C623 C92 0.992 . S
C628 C387 1.038 . S
C639 C446 1.026 . S
C644 C151 0.989 . S
C655 C210 1.023 . S
C660 C269 0.988 . S
C671 C406 1.722 1_565 S
C676 C229 1.735 1_655 S
C687 C52 1.718 1_565 S
C692 C465 1.731 . S
C703 C111 1.732 . S
C708 C288 1.719 . S
C719 C347 1.727 1_655 S
C724 C170 1.739 . S
