# Generated by pormake.
# Topology lcx, (8)-cn, num edge types: 1
# Building blocks:
#     Node 0, Type 0, BuildingBlock: OLANAS_clean_sbu_2, # of connection points: 8
#     Node 1, Type 0, BuildingBlock: OLANAS_clean_sbu_2, # of connection points: 8
#     Node 2, Type 0, BuildingBlock: OLANAS_clean_sbu_2, # of connection points: 8
#     Node 3, Type 0, BuildingBlock: OLANAS_clean_sbu_2, # of connection points: 8
#     Node 4, Type 0, BuildingBlock: OLANAS_clean_sbu_2, # of connection points: 8
#     Node 5, Type 0, BuildingBlock: OLANAS_clean_sbu_2, # of connection points: 8
#     Edge 6, Type (0, 0), BuildingBlock: OJICUG_clean_linker_0, # of connection points: 2
#     Edge 7, Type (0, 0), BuildingBlock: OJICUG_clean_linker_0, # of connection points: 2
#     Edge 8, Type (0, 0), BuildingBlock: OJICUG_clean_linker_0, # of connection points: 2
#     Edge 9, Type (0, 0), BuildingBlock: OJICUG_clean_linker_0, # of connection points: 2
#     Edge 10, Type (0, 0), BuildingBlock: OJICUG_clean_linker_0, # of connection points: 2
#     Edge 11, Type (0, 0), BuildingBlock: OJICUG_clean_linker_0, # of connection points: 2
#     Edge 12, Type (0, 0), BuildingBlock: OJICUG_clean_linker_0, # of connection points: 2
#     Edge 13, Type (0, 0), BuildingBlock: OJICUG_clean_linker_0, # of connection points: 2
#     Edge 14, Type (0, 0), BuildingBlock: OJICUG_clean_linker_0, # of connection points: 2
#     Edge 15, Type (0, 0), BuildingBlock: OJICUG_clean_linker_0, # of connection points: 2
#     Edge 16, Type (0, 0), BuildingBlock: OJICUG_clean_linker_0, # of connection points: 2
#     Edge 17, Type (0, 0), BuildingBlock: OJICUG_clean_linker_0, # of connection points: 2
#     Edge 18, Type (0, 0), BuildingBlock: OJICUG_clean_linker_0, # of connection points: 2
#     Edge 19, Type (0, 0), BuildingBlock: OJICUG_clean_linker_0, # of connection points: 2
#     Edge 20, Type (0, 0), BuildingBlock: OJICUG_clean_linker_0, # of connection points: 2
#     Edge 21, Type (0, 0), BuildingBlock: OJICUG_clean_linker_0, # of connection points: 2
#     Edge 22, Type (0, 0), BuildingBlock: OJICUG_clean_linker_0, # of connection points: 2
#     Edge 23, Type (0, 0), BuildingBlock: OJICUG_clean_linker_0, # of connection points: 2
#     Edge 24, Type (0, 0), BuildingBlock: OJICUG_clean_linker_0, # of connection points: 2
#     Edge 25, Type (0, 0), BuildingBlock: OJICUG_clean_linker_0, # of connection points: 2
#     Edge 26, Type (0, 0), BuildingBlock: OJICUG_clean_linker_0, # of connection points: 2
#     Edge 27, Type (0, 0), BuildingBlock: OJICUG_clean_linker_0, # of connection points: 2
#     Edge 28, Type (0, 0), BuildingBlock: OJICUG_clean_linker_0, # of connection points: 2
#     Edge 29, Type (0, 0), BuildingBlock: OJICUG_clean_linker_0, # of connection points: 2
# Relax obj value: 0.048
# Max RMSD: 0.138
# Mean RMSD: 0.138
data_MOF--net-lcx--node1-OLANAS_clean_sbu_2--edge1-OJICUG_clean_linker_0
_symmetry_space_group_name_H-M    P1
_symmetry_Int_Tables_number       1
_symmetry_cell_setting            triclinic
loop_
_symmetry_equiv_pos_as_xyz
'x, y, z'
_cell_length_a     24.862492
_cell_length_b     24.833682
_cell_length_c     24.823916
_cell_angle_alpha  90.718538
_cell_angle_beta   89.598619
_cell_angle_gamma 90.416908
loop_
_atom_site_label
_atom_site_type_symbol
_atom_site_fract_x
_atom_site_fract_y
_atom_site_fract_z
_atom_type_partial_charge
C0 C 0.93235 0.30672 0.51538 0.0
O1 O 0.8826 0.32302 0.52286 0.0
C2 C 0.97821 0.34413 0.51714 0.0
C3 C 0.97869 0.39942 0.52882 0.0
C4 C 0.02907 0.42626 0.53028 0.0
C5 C 0.07727 0.39774 0.52036 0.0
C6 C 0.07339 0.3425 0.50903 0.0
N7 N 0.02484 0.31965 0.5076 0.0
N8 N 0.01487 0.24993 0.41924 0.0
Co9 Co 0.0224 0.24628 0.49711 0.0
N10 N 0.01996 0.1729 0.48709 0.0
C11 C 0.0157 0.09938 0.42691 0.0
C12 C 0.02235 0.06522 0.47152 0.0
C13 C 0.02731 0.08684 0.52428 0.0
C14 C 0.02601 0.14288 0.53067 0.0
C15 C 0.01459 0.15495 0.43668 0.0
N16 N 0.02975 0.23006 0.5735 0.0
N17 N 0.94465 0.25378 0.50549 0.0
N18 N 0.10061 0.25132 0.49047 0.0
C19 C 0.01066 0.19882 0.39799 0.0
O20 O 0.00643 0.18957 0.34589 0.0
C21 C 0.1166 0.30372 0.49893 0.0
O22 O 0.16732 0.31887 0.49559 0.0
C23 C 0.13936 0.21165 0.47407 0.0
C24 C 0.20136 0.18854 0.40117 0.0
C25 C 0.15001 0.20368 0.41886 0.0
C26 C 0.17728 0.19426 0.51185 0.0
C27 C 0.22711 0.17349 0.49444 0.0
C28 C 0.23982 0.17508 0.43952 0.0
C29 C 0.03129 0.17542 0.58011 0.0
O30 O 0.03575 0.1535 0.62782 0.0
C31 C 0.03092 0.266 0.61919 0.0
C32 C 0.08053 0.28068 0.6424 0.0
C33 C 0.08193 0.30531 0.69375 0.0
C34 C 0.03341 0.3151 0.72103 0.0
C35 C 0.9838 0.30051 0.69886 0.0
C36 C 0.98285 0.27673 0.64732 0.0
C37 C 0.90269 0.21397 0.5016 0.0
C38 C 0.87927 0.19491 0.5495 0.0
C39 C 0.82799 0.17122 0.54914 0.0
C40 C 0.80173 0.1638 0.5001 0.0
C41 C 0.82445 0.18129 0.4517 0.0
C42 C 0.87546 0.20617 0.45233 0.0
C43 C 0.01731 0.29539 0.3843 0.0
C44 C 0.017 0.34812 0.28555 0.0
C45 C 0.96877 0.34193 0.31426 0.0
C46 C 0.96894 0.31536 0.36377 0.0
C47 C 0.0658 0.30574 0.35659 0.0
C48 C 0.06549 0.32841 0.30523 0.0
H49 H 0.94181 0.42098 0.53709 0.0
H50 H 0.03079 0.46892 0.5396 0.0
H51 H 0.1159 0.41804 0.52204 0.0
H52 H 0.01231 0.08293 0.38649 0.0
H53 H 0.02425 0.02218 0.46514 0.0
H54 H 0.03252 0.06076 0.55843 0.0
H55 H 0.11961 0.21139 0.38952 0.0
H56 H 0.168 0.19821 0.55438 0.0
H57 H 0.27928 0.16215 0.42614 0.0
H58 H 0.11767 0.2716 0.6212 0.0
H59 H 0.03409 0.33717 0.75898 0.0
H60 H 0.9449 0.26504 0.62988 0.0
H61 H 0.89949 0.2013 0.58736 0.0
H62 H 0.7635 0.14245 0.4993 0.0
H63 H 0.89256 0.22168 0.4154 0.0
H64 H 0.01678 0.36939 0.24766 0.0
H65 H 0.93129 0.30675 0.38421 0.0
H66 H 0.10326 0.29254 0.37293 0.0
C67 C 0.3253 0.53145 0.90758 0.0
O68 O 0.34489 0.53567 0.85843 0.0
C69 C 0.35948 0.53595 0.95524 0.0
C70 C 0.41498 0.5454 0.95806 0.0
C71 C 0.43879 0.54784 0.00964 0.0
C72 C 0.40714 0.54085 0.05666 0.0
C73 C 0.35192 0.53153 0.05037 0.0
N74 N 0.33185 0.52962 0.00087 0.0
N75 N 0.26498 0.43937 0.99067 0.0
Co76 Co 0.25897 0.51729 0.99495 0.0
N77 N 0.1861 0.50518 0.9886 0.0
C78 C 0.11567 0.44338 0.97341 0.0
C79 C 0.08045 0.48761 0.96971 0.0
C80 C 0.10005 0.541 0.97545 0.0
C81 C 0.1551 0.5484 0.98482 0.0
C82 C 0.17008 0.45419 0.98307 0.0
N83 N 0.23997 0.59353 -0.00239 0.0
N84 N 0.27186 0.52165 0.91748 0.0
N85 N 0.25929 0.51446 0.07352 0.0
C86 C 0.21491 0.41651 0.98514 0.0
O87 O 0.20768 0.36416 0.98006 0.0
C88 C 0.31074 0.5227 0.09178 0.0
O89 O 0.32273 0.52158 0.14331 0.0
C90 C 0.21778 0.50022 0.1112 0.0
C91 C 0.20087 0.43732 0.18397 0.0
C92 C 0.21625 0.44711 0.13051 0.0
C93 C 0.19485 0.54171 0.14275 0.0
C94 C 0.1784 0.53214 0.19614 0.0
C95 C 0.18539 0.48066 0.21684 0.0
C96 C 0.18565 0.5988 0.99031 0.0
O97 O 0.16186 0.64595 0.9915 0.0
C98 C 0.27154 0.63977 0.01271 0.0
C99 C 0.27493 0.65494 0.0673 0.0
C100 C 0.28775 0.70817 0.08212 0.0
C101 C 0.29568 0.74601 0.04137 0.0
C102 C 0.30041 0.7303 0.98715 0.0
C103 C 0.28658 0.67683 0.97293 0.0
C104 C 0.23499 0.51581 0.87374 0.0
C105 C 0.21902 0.56216 0.84655 0.0
C106 C 0.1957 0.55786 0.79545 0.0
C107 C 0.18844 0.50679 0.77197 0.0
C108 C 0.20425 0.45997 0.79816 0.0
C109 C 0.22641 0.46475 0.84992 0.0
C110 C 0.31163 0.40616 0.98914 0.0
C111 C 0.36461 0.30753 0.98454 0.0
C112 C 0.35177 0.33324 0.9367 0.0
C113 C 0.32736 0.38377 0.93912 0.0
C114 C 0.32638 0.38051 0.03687 0.0
C115 C 0.35132 0.33021 0.03457 0.0
H116 H 0.43907 0.55069 0.922 0.0
H117 H 0.48161 0.55507 0.01317 0.0
H118 H 0.4252 0.54265 0.09618 0.0
H119 H 0.10099 0.40254 0.96805 0.0
H120 H 0.03827 0.4805 0.96169 0.0
H121 H 0.07332 0.57496 0.97197 0.0
H122 H 0.23041 0.41421 0.10551 0.0
H123 H 0.1926 0.58172 0.12645 0.0
H124 H 0.17553 0.47332 0.25863 0.0
H125 H 0.26623 0.62601 0.09821 0.0
H126 H 0.30299 0.78758 0.05243 0.0
H127 H 0.28637 0.66356 0.93127 0.0
H128 H 0.2266 0.60147 0.86448 0.0
H129 H 0.16742 0.50326 0.73398 0.0
H130 H 0.23871 0.42906 0.8706 0.0
H131 H 0.3853 0.26921 0.98277 0.0
H132 H 0.31618 0.40302 0.90219 0.0
H133 H 0.314 0.39706 0.07541 0.0
C134 C 0.08999 0.70225 0.50777 0.0
O135 O 0.14186 0.69319 0.51198 0.0
C136 C 0.05172 0.65946 0.49368 0.0
C137 C 0.06179 0.60527 0.48143 0.0
C138 C 0.01785 0.57237 0.46566 0.0
C139 C 0.96553 0.59399 0.4623 0.0
C140 C 0.95885 0.64861 0.47503 0.0
N141 N 0.00159 0.67746 0.49021 0.0
N142 N 0.00338 0.76949 0.42597 0.0
Co143 Co 0.99154 0.75034 0.50141 0.0
N144 N 0.9817 0.82328 0.51227 0.0
C145 C 0.97923 0.91012 0.47593 0.0
C146 C 0.9673 0.93017 0.52821 0.0
C147 C 0.96355 0.89487 0.57235 0.0
C148 C 0.97133 0.83988 0.56237 0.0
C149 C 0.98692 0.85466 0.46949 0.0
N150 N 0.97849 0.74515 0.57865 0.0
N151 N 0.06858 0.75265 0.51433 0.0
N152 N 0.91589 0.73424 0.48659 0.0
C153 C -0.0004 0.82418 0.42037 0.0
O154 O 0.00437 0.84765 0.37332 0.0
C155 C 0.90989 0.68082 0.47324 0.0
O156 O 0.86263 0.65898 0.463 0.0
C157 C 0.86935 0.76694 0.4947 0.0
C158 C 0.78739 0.80327 0.45669 0.0
C159 C 0.83839 0.7806 0.45002 0.0
C160 C 0.84806 0.77442 0.54667 0.0
C161 C 0.79675 0.79627 0.55411 0.0
C162 C 0.76714 0.81106 0.50889 0.0
C163 C 0.97028 0.79555 0.6004 0.0
O164 O 0.96358 0.80384 0.65248 0.0
C165 C 0.98478 0.70076 0.61391 0.0
C166 C 0.93866 0.68161 0.64065 0.0
C167 C 0.94274 0.65836 0.69143 0.0
C168 C 0.99363 0.65064 0.71348 0.0
C169 C 0.04018 0.66817 0.68686 0.0
C170 C 0.03563 0.69223 0.63643 0.0
C171 C 0.1032 0.79814 0.52159 0.0
C172 C 0.12201 0.81095 0.57358 0.0
C173 C 0.16916 0.84141 0.57963 0.0
C174 C 0.19559 0.86131 0.53409 0.0
C175 C 0.17806 0.84802 0.48222 0.0
C176 C 0.13106 0.81714 0.47627 0.0
C177 C 0.00311 0.73549 0.37904 0.0
C178 C 0.00772 0.68793 0.27663 0.0
C179 C 0.05262 0.68666 0.31011 0.0
C180 C 0.05044 0.7102 0.36164 0.0
C181 C 0.95801 0.73585 0.34515 0.0
C182 C 0.95953 0.71118 0.29415 0.0
H183 H 0.10203 0.58908 0.48322 0.0
H184 H 0.0244 0.53041 0.4555 0.0
H185 H 0.93191 0.56907 0.44967 0.0
H186 H 0.9821 0.93686 0.44194 0.0
H187 H 0.96104 0.97285 0.53455 0.0
H188 H 0.95477 0.91003 0.6125 0.0
H189 H 0.85338 0.77235 0.41 0.0
H190 H 0.87031 0.76187 0.58122 0.0
H191 H 0.72948 0.83214 0.51457 0.0
H192 H 0.89933 0.68933 0.62433 0.0
H193 H -0.0029 0.62992 0.75147 0.0
H194 H 0.07116 0.70843 0.61726 0.0
H195 H 0.10247 0.79426 0.60871 0.0
H196 H 0.23109 0.88642 0.53947 0.0
H197 H 0.11858 0.80363 0.43658 0.0
H198 H 0.00925 0.66608 0.23852 0.0
H199 H 0.0853 0.70953 0.38752 0.0
H200 H 0.92208 0.75624 0.35818 0.0
C201 C 0.69919 0.45523 0.91805 0.0
O202 O 0.68497 0.44482 0.86801 0.0
C203 C 0.65965 0.45833 0.96194 0.0
C204 C 0.60395 0.44999 0.96003 0.0
C205 C 0.574 0.45749 0.00818 0.0
C206 C 0.59989 0.47331 0.05649 0.0
C207 C 0.65573 0.48088 0.05503 0.0
N208 N 0.68181 0.47247 0.0087 0.0
N209 N 0.74744 0.56206 0.99023 0.0
Co210 Co 0.75474 0.48622 0.00821 0.0
N211 N 0.82763 0.50021 0.008 0.0
C212 C 0.8974 0.56432 0.00298 0.0
C213 C 0.93359 0.52334 0.01734 0.0
C214 C 0.91486 0.47042 0.02716 0.0
C215 C 0.85966 0.46015 0.02226 0.0
C216 C 0.84286 0.55077 -0.00128 0.0
N217 N 0.7752 0.41286 0.02694 0.0
N218 N 0.75148 0.46622 0.93195 0.0
N219 N 0.74479 0.50424 0.08418 0.0
C220 C 0.79728 0.58598 0.98815 0.0
O221 O 0.80371 0.63787 0.97988 0.0
C222 C 0.69172 0.49847 0.09837 0.0
O223 O 0.67444 0.50663 0.14799 0.0
C224 C 0.78464 0.51349 0.12448 0.0
C225 C 0.82419 0.57551 0.1896 0.0
C226 C 0.79695 0.56639 0.14109 0.0
C227 C 0.80127 0.46999 0.15557 0.0
C228 C 0.82969 0.47859 0.20346 0.0
C229 C 0.84096 0.53154 0.21992 0.0
C230 C 0.82992 0.41013 0.03245 0.0
O231 O 0.85455 0.36481 0.04311 0.0
C232 C 0.74344 0.36453 0.02661 0.0
C233 C 0.73366 0.33737 0.07504 0.0
C234 C 0.71184 0.28509 0.07439 0.0
C235 C 0.69937 0.26078 0.0247 0.0
C236 C 0.70956 0.28686 0.976 0.0
C237 C 0.73213 0.3387 0.9775 0.0
C238 C 0.79159 0.47094 0.89063 0.0
C239 C 0.81247 0.42375 0.86642 0.0
C240 C 0.83615 0.42547 0.81497 0.0
C241 C 0.84073 0.47497 0.78924 0.0
C242 C 0.82087 0.52218 0.8129 0.0
C243 C 0.79694 0.52021 0.86396 0.0
C244 C 0.70028 0.59472 0.98901 0.0
C245 C 0.635 0.68557 0.98319 0.0
C246 C 0.64982 0.65826 0.93595 0.0
C247 C 0.68166 0.61218 0.93877 0.0
C248 C 0.68508 0.6229 0.03629 0.0
C249 C 0.6535 0.66932 0.03336 0.0
H250 H 0.58421 0.43849 0.92285 0.0
H251 H 0.53084 0.45149 0.00796 0.0
H252 H 0.57703 0.47972 0.09325 0.0
H253 H 0.91148 0.60506 0.99638 0.0
H254 H 0.97588 0.53282 0.02163 0.0
H255 H 0.94236 0.43916 0.0389 0.0
H256 H 0.78346 0.60015 0.11776 0.0
H257 H 0.79007 0.42959 0.14348 0.0
H258 H 0.86485 0.53886 0.25569 0.0
H259 H 0.74367 0.35656 0.11299 0.0
H260 H 0.67801 0.22263 0.02415 0.0
H261 H 0.74206 0.35836 0.94041 0.0
H262 H 0.80776 0.38545 0.88607 0.0
H263 H 0.86192 0.47717 0.75097 0.0
H264 H 0.77967 0.55631 0.88125 0.0
H265 H 0.6097 0.72087 0.98049 0.0
H266 H 0.69535 0.59265 0.90202 0.0
H267 H 0.70163 0.61152 0.07458 0.0
C268 C 0.46822 0.08973 0.30303 0.0
O269 O 0.45923 0.14055 0.31549 0.0
C270 C 0.47136 0.04868 0.34455 0.0
C271 C 0.4602 0.05366 0.39973 0.0
C272 C 0.46506 0.00729 0.43172 0.0
C273 C 0.48088 0.95763 0.40829 0.0
C274 C 0.49161 0.95607 0.35284 0.0
N275 N 0.48659 0.00108 0.32484 0.0
N276 N 0.57275 0.00901 0.2516 0.0
Co277 Co 0.49498 0.99546 0.25117 0.0
N278 N 0.50312 0.98934 0.17745 0.0
C279 C 0.56178 0.98365 0.10297 0.0
C280 C 0.51716 0.96856 0.07104 0.0
C281 C 0.46532 0.96372 0.09432 0.0
C282 C 0.45983 0.97435 0.14959 0.0
C283 C 0.55287 0.99385 0.15789 0.0
N284 N 0.41893 0.98062 0.23731 0.0
N285 N 0.48083 0.07313 0.25152 0.0
N286 N 0.50689 0.91873 0.26425 0.0
C287 C 0.59241 0.00549 0.19984 0.0
O288 O 0.64418 0.00872 0.18879 0.0
C289 C 0.50409 0.9094 0.31859 0.0
O290 O 0.50675 0.86057 0.33835 0.0
C291 C 0.49955 0.87401 0.22785 0.0
C292 C 0.53905 0.79606 0.18272 0.0
C293 C 0.54466 0.84777 0.20578 0.0
C294 C 0.44888 0.84839 0.22607 0.0
C295 C 0.44261 0.79704 0.2028 0.0
C296 C 0.48802 0.77191 0.18058 0.0
C297 C 0.41171 0.96991 0.18351 0.0
O298 O 0.36391 0.96032 0.16295 0.0
C299 C 0.37319 0.99323 0.27031 0.0
C300 C 0.34961 0.95308 0.30206 0.0
C301 C 0.29726 0.95972 0.32227 0.0
C302 C 0.27026 0.00789 0.31319 0.0
C303 C 0.29314 0.0487 0.28196 0.0
C304 C 0.34468 0.04078 0.26037 0.0
C305 C 0.49351 0.11343 0.21241 0.0
C306 C 0.45162 0.14589 0.19365 0.0
C307 C 0.46228 0.1972 0.17322 0.0
C308 C 0.51548 0.21521 0.16988 0.0
C309 C 0.55784 0.18388 0.18833 0.0
C310 C 0.54673 0.13252 0.20832 0.0
C311 C 0.61021 0.00787 0.29519 0.0
C312 C 0.70948 0.00148 0.34703 0.0
C313 C 0.69033 0.05197 0.33253 0.0
C314 C 0.63951 0.05519 0.30841 0.0
C315 C 0.63104 0.95768 0.3094 0.0
C316 C 0.68078 0.95434 0.33488 0.0
H317 H 0.44758 0.09162 0.41741 0.0
H318 H 0.45593 0.00971 0.47436 0.0
H319 H 0.48365 0.92181 0.43248 0.0
H320 H 0.60172 0.9862 0.08552 0.0
H321 H 0.5229 0.95976 0.0286 0.0
H322 H 0.43122 0.95129 0.07019 0.0
H323 H 0.58406 0.86643 0.20887 0.0
H324 H 0.41488 0.86756 0.24521 0.0
H325 H 0.4836 0.73381 0.15926 0.0
H326 H 0.37074 0.91591 0.30881 0.0
H327 H 0.23176 0.0144 0.33287 0.0
H328 H 0.36183 0.07052 0.23417 0.0
H329 H 0.41042 0.13311 0.19857 0.0
H330 H 0.52424 0.25354 0.15118 0.0
H331 H 0.57918 0.10955 0.2241 0.0
H332 H 0.74726 -0.00122 0.3684 0.0
H333 H 0.62501 0.09405 0.29644 0.0
H334 H 0.61128 0.92102 0.29603 0.0
C335 C 0.51091 0.90794 0.69451 0.0
O336 O 0.50679 0.85677 0.68062 0.0
C337 C 0.51923 0.94979 0.65441 0.0
C338 C 0.52707 0.94404 0.59874 0.0
C339 C 0.53611 0.99117 0.56851 0.0
C340 C 0.53693 0.04236 0.59409 0.0
C341 C 0.52879 0.04464 0.64991 0.0
N342 N 0.52046 -0.00107 0.67628 0.0
N343 N 0.58966 -0.00093 0.76468 0.0
Co344 Co 0.51297 0.00398 0.75023 0.0
N345 N 0.5057 0.00976 0.82419 0.0
C346 C 0.54776 0.02086 0.9082 0.0
C347 C 0.49654 0.03132 0.93097 0.0
C348 C 0.4502 0.03146 0.89831 0.0
C349 C 0.45672 0.0207 0.8432 0.0
C350 C 0.55086 0.01022 0.85275 0.0
N351 N 0.43495 0.01075 0.74961 0.0
N352 N 0.50708 0.92534 0.74712 0.0
N353 N 0.52045 0.08118 0.7393 0.0
C354 C 0.59875 0.003 0.81894 0.0
O355 O 0.64748 0.00256 0.83923 0.0
C356 C 0.52861 0.09172 0.68584 0.0
O357 O 0.5358 0.1409 0.66791 0.0
C358 C 0.51904 0.12417 0.77786 0.0
C359 C 0.57038 0.19393 0.82436 0.0
C360 C 0.56767 0.14313 0.79946 0.0
C361 C 0.47239 0.1556 0.7824 0.0
C362 C 0.47469 0.20638 0.80761 0.0
C363 C 0.52356 0.22458 0.82894 0.0
C364 C 0.41626 0.02114 0.80075 0.0
O365 O 0.36494 0.02874 0.81142 0.0
C366 C 0.39802 0.00195 0.70654 0.0
C367 C 0.3877 0.04417 0.67106 0.0
C368 C 0.34173 0.04219 0.63894 0.0
C369 C 0.30579 -0.00096 0.64325 0.0
C370 C 0.31471 0.95745 0.67932 0.0
C371 C 0.36195 0.95789 0.70957 0.0
C372 C 0.50182 0.88687 0.78941 0.0
C373 C 0.4523 0.88076 0.81612 0.0
C374 C 0.44127 0.83345 0.84418 0.0
C375 C 0.47979 0.79296 0.84669 0.0
C376 C 0.52989 0.7987 0.82155 0.0
C377 C 0.54091 0.84619 0.7935 0.0
C378 C 0.6337 0.99417 0.72784 0.0
C379 C 0.73485 0.98493 0.67949 0.0
C380 C 0.70714 0.9383 0.69515 0.0
C381 C 0.6563 0.94332 0.71911 0.0
C382 C 0.6621 0.04054 0.71223 0.0
C383 C 0.71328 0.03622 0.68842 0.0
H384 H 0.52679 0.90476 0.57935 0.0
H385 H 0.54283 0.98798 0.52549 0.0
H386 H 0.54404 0.07852 0.57113 0.0
H387 H 0.5835 0.02217 0.93285 0.0
H388 H 0.49287 0.04032 0.97359 0.0
H389 H 0.41108 0.04053 0.9154 0.0
H390 H 0.60378 0.11959 0.7944 0.0
H391 H 0.43523 0.14148 0.76435 0.0
H392 H 0.52463 0.26228 0.85144 0.0
H393 H 0.41362 0.07939 0.67052 0.0
H394 H 0.26997 -0.00179 0.61845 0.0
H395 H 0.36859 0.92628 0.73828 0.0
H396 H 0.42164 0.91106 0.81305 0.0
H397 H 0.4711 0.75755 0.87051 0.0
H398 H 0.57857 0.84997 0.77193 0.0
H399 H 0.77245 0.98114 0.65749 0.0
H400 H 0.63511 0.90796 0.73278 0.0
H401 H 0.64527 0.07981 0.72051 0.0
C402 C 0.16388 0.34998 0.29319 0.0
C403 C 0.1148 0.33259 0.27115 0.0
H404 H 0.2366 0.39389 0.2785 0.0
C405 C 0.11061 0.32836 0.21464 0.0
H406 H 0.1695 0.35199 0.33638 0.0
C407 C 0.14861 0.3535 0.18165 0.0
C408 C 0.19088 0.3827 0.20523 0.0
H409 H 0.07466 0.31176 0.19619 0.0
H410 H 0.13945 0.35811 0.13934 0.0
C411 C 0.20284 0.37335 0.25975 0.0
C412 C 0.17436 0.60724 0.71134 0.0
C413 C 0.17261 0.60478 0.76801 0.0
H414 H 0.1321 0.62946 0.64025 0.0
C415 C 0.13709 0.63838 0.79649 0.0
H416 H 0.20269 0.58294 0.68849 0.0
C417 C 0.09758 0.66606 0.76878 0.0
C418 C 0.0928 0.65956 0.71259 0.0
H419 H 0.13537 0.63808 0.84011 0.0
H420 H 0.06711 0.68741 0.79182 0.0
C421 C 0.13417 0.63408 0.68365 0.0
C422 C 0.87731 0.65964 0.17952 0.0
C423 C 0.83937 0.62989 0.2089 0.0
H424 H 0.94522 0.71277 0.18427 0.0
C425 C 0.82978 0.64348 0.26324 0.0
H426 H 0.88492 0.65026 0.13741 0.0
C427 C 0.86497 0.67813 0.29041 0.0
C428 C 0.90976 0.69968 0.26319 0.0
H429 H 0.79997 0.62145 0.28639 0.0
H430 H 0.86129 0.68153 0.33383 0.0
C431 C 0.91211 0.69498 0.20658 0.0
C432 C 0.85463 0.37137 0.73135 0.0
C433 C 0.8595 0.3775 0.78764 0.0
H434 H 0.8911 0.34239 0.65842 0.0
C435 C 0.89612 0.34518 0.81484 0.0
H436 H 0.82548 0.39469 0.7095 0.0
C437 C 0.93276 0.31383 0.78554 0.0
C438 C 0.93395 0.31536 0.72875 0.0
H439 H 0.90027 0.34838 0.85818 0.0
H440 H 0.96353 0.29263 0.80733 0.0
C441 C 0.89196 0.341 0.702 0.0
C442 C 0.20853 0.10213 0.28234 0.0
C443 C 0.26518 0.10129 0.27957 0.0
H444 H 0.14134 0.1332 0.3266 0.0
C445 C 0.29355 0.14808 0.29466 0.0
H446 H 0.18519 0.06796 0.26782 0.0
C447 C 0.26754 0.18745 0.32569 0.0
C448 C 0.21444 0.17805 0.34363 0.0
H449 H 0.33696 0.1501 0.29099 0.0
H450 H 0.29185 0.21867 0.34459 0.0
C451 C 0.18308 0.14001 0.31561 0.0
C452 C 0.3518 0.79058 0.85606 0.0
C453 C 0.39197 0.82549 0.87565 0.0
H454 H 0.28903 0.73469 0.87569 0.0
C455 C 0.39518 0.83619 0.93077 0.0
H456 H 0.34955 0.78123 0.81338 0.0
C457 C 0.36355 0.8072 0.96656 0.0
C458 C 0.32588 0.76832 0.94799 0.0
H459 H 0.427 0.86185 0.94659 0.0
H460 H 0.37299 0.81239 0.00873 0.0
C461 C 0.31829 0.76281 0.89198 0.0
C462 C 0.75947 0.89378 0.34152 0.0
C463 C 0.70417 0.90226 0.34957 0.0
H464 H 0.82988 0.85538 0.36994 0.0
C465 C 0.67453 0.86626 0.38128 0.0
H466 H 0.78281 0.9202 0.3158 0.0
C467 C 0.70137 0.82787 0.41136 0.0
C468 C 0.75801 0.82607 0.41068 0.0
H469 H 0.63165 0.87141 0.38725 0.0
H470 H 0.67828 0.8035 0.43921 0.0
C471 C 0.78638 0.85619 0.37221 0.0
C472 C 0.66503 0.29414 0.88643 0.0
C473 C 0.68993 0.262 0.92497 0.0
H474 H 0.60942 0.29686 0.82154 0.0
C475 C 0.68673 0.20552 0.91906 0.0
H476 H 0.66697 0.33761 0.88892 0.0
C477 C 0.65147 0.18217 0.88187 0.0
C478 C 0.6204 0.21507 0.849 0.0
H479 H 0.70755 0.17943 0.94651 0.0
H480 H 0.64487 0.13901 0.88265 0.0
C481 C 0.63128 0.27072 0.84815 0.0
C482 C 0.24732 0.83092 0.63852 0.0
C483 C 0.19516 0.85142 0.63192 0.0
H484 H 0.32854 0.85032 0.66013 0.0
C485 C 0.17997 0.89746 0.66113 0.0
H486 H 0.25967 0.79518 0.61633 0.0
C487 C 0.21928 0.92864 0.68688 0.0
C488 C 0.27382 0.91413 0.68262 0.0
H489 H 0.14 0.91388 0.6567 0.0
H490 H 0.2083 0.96805 0.70244 0.0
C491 C 0.28689 0.86257 0.66344 0.0
C492 C 0.61375 0.79125 0.11552 0.0
C493 C 0.58435 0.76686 0.15699 0.0
H494 H 0.66051 0.77876 0.0439 0.0
C495 C 0.58948 0.71099 0.16477 0.0
H496 H 0.61073 0.83415 0.10876 0.0
C497 C 0.61695 0.67905 0.12706 0.0
C498 C 0.63999 0.70275 0.08141 0.0
H499 H 0.56773 0.69138 0.19712 0.0
H500 H 0.61566 0.63565 0.13097 0.0
C501 C 0.6416 0.75938 0.07808 0.0
C502 C 0.79995 0.08461 0.66869 0.0
C503 C 0.74323 0.08376 0.66802 0.0
H504 H 0.87199 0.11326 0.63053 0.0
C505 C 0.71624 0.12311 0.63881 0.0
H506 H 0.82193 0.05601 0.69252 0.0
C507 C 0.74513 0.15712 0.60478 0.0
C508 C 0.80118 0.15141 0.5986 0.0
H509 H 0.67271 0.12417 0.63793 0.0
H510 H 0.72305 0.18417 0.57928 0.0
C511 C 0.82878 0.11784 0.63373 0.0
C512 C 0.42296 0.28832 0.1585 0.0
C513 C 0.41922 0.23189 0.15234 0.0
H514 H 0.40368 0.36479 0.12483 0.0
C515 C 0.38048 0.20993 0.11757 0.0
H516 H 0.45119 0.30632 0.1866 0.0
C517 C 0.35229 0.24352 0.08347 0.0
C518 C 0.36321 0.2992 0.08324 0.0
H519 H 0.37604 0.16674 0.1125 0.0
H520 H 0.32626 0.22541 0.05334 0.0
C521 C 0.39539 0.32189 0.1237 0.0
C522 C 0.89362 0.64704 0.77859 0.0
C523 C 0.89485 0.64061 0.72214 0.0
H524 H 0.86708 0.61338 0.85314 0.0
C525 C 0.85606 0.60783 0.69715 0.0
H526 H 0.92186 0.67385 0.79867 0.0
C527 C 0.82343 0.57458 0.72845 0.0
C528 C 0.83046 0.57317 0.78462 0.0
H529 H 0.85535 0.60295 0.65373 0.0
H530 H 0.79835 0.54474 0.70837 0.0
C531 C 0.8617 0.6131 0.80985 0.0
C532 C 0.88957 0.40261 0.31904 0.0
C533 C 0.91933 0.3638 0.29061 0.0
H534 H 0.83571 0.46903 0.31351 0.0
C535 C 0.90915 0.35504 0.23552 0.0
H536 H 0.89645 0.40979 0.36159 0.0
C537 C 0.87569 0.38964 0.20768 0.0
C538 C 0.85138 0.43315 0.23472 0.0
H539 H 0.93116 0.32462 0.21296 0.0
H540 H 0.87309 0.38519 0.16431 0.0
C541 C 0.85552 0.43694 0.29127 0.0
C542 C 0.13834 0.32558 0.77457 0.0
C543 C 0.13195 0.32725 0.7182 0.0
H544 H 0.16574 0.36777 0.84497 0.0
C545 C 0.16448 0.36252 0.6885 0.0
H546 H 0.11488 0.29752 0.79836 0.0
C547 C 0.19515 0.40176 0.71527 0.0
C548 C 0.19247 0.407 0.77191 0.0
H549 H 0.16125 0.36422 0.64505 0.0
H550 H 0.21599 0.43173 0.69143 0.0
C551 C 0.16774 0.36574 0.80139 0.0
C552 C 0.08684 0.59573 0.30111 0.0
C553 C 0.09598 0.65058 0.29338 0.0
H554 H 0.10081 0.51647 0.27335 0.0
C555 C 0.13533 0.66741 0.2563 0.0
H556 H 0.05506 0.58219 0.32799 0.0
C557 C 0.16412 0.62923 0.22588 0.0
C558 C 0.15229 0.57394 0.23092 0.0
H559 H 0.14154 0.70988 0.24875 0.0
H560 H 0.19414 0.64318 0.1974 0.0
C561 C 0.11341 0.55802 0.26937 0.0
C562 C 0.69702 0.84709 0.65358 0.0
C563 C 0.7297 0.88516 0.68008 0.0
H564 H 0.69412 0.78506 0.59331 0.0
C565 C 0.78584 0.87808 0.67933 0.0
H566 H 0.65361 0.8505 0.65439 0.0
C567 C 0.80905 0.84188 0.64284 0.0
C568 C 0.77604 0.81162 0.60811 0.0
H569 H 0.81193 0.90547 0.70146 0.0
H570 H 0.85224 0.84325 0.63697 0.0
C571 C 0.72029 0.80981 0.61824 0.0
C572 C 0.66228 0.28716 0.16171 0.0
C573 C 0.69338 0.25807 0.12423 0.0
H574 H 0.59467 0.2845 0.21509 0.0
C575 C 0.69256 0.20134 0.12617 0.0
H576 H 0.66284 0.33078 0.16246 0.0
C577 C 0.65185 0.17489 0.15466 0.0
C578 C 0.61326 0.20523 0.18275 0.0
H579 H 0.71802 0.1778 0.09939 0.0
H580 H 0.64643 0.13193 0.14851 0.0
C581 C 0.62278 0.26058 0.19154 0.0
C582 C 0.30188 0.13158 0.62052 0.0
C583 C 0.32759 0.08487 0.60145 0.0
H584 H 0.25016 0.19739 0.60142 0.0
C585 C 0.32499 0.07113 0.54681 0.0
H586 H 0.3025 0.14192 0.66305 0.0
C587 C 0.29347 0.10086 0.51239 0.0
C588 C 0.26492 0.14627 0.53136 0.0
H589 H 0.3433 0.03434 0.53177 0.0
H590 H 0.28894 0.08571 0.47157 0.0
C591 C 0.27092 0.16239 0.58556 0.0
C592 C 0.34349 0.69047 0.16226 0.0
C593 C 0.30528 0.72317 0.13755 0.0
H594 H 0.417 0.68879 0.20601 0.0
C595 C 0.30111 0.77717 0.1552 0.0
H596 H 0.34674 0.64815 0.15171 0.0
C597 C 0.34371 0.80141 0.18305 0.0
C598 C 0.38883 0.77075 0.19654 0.0
H599 H 0.26996 0.80276 0.13946 0.0
H600 H 0.34397 0.84482 0.18757 0.0
C601 C 0.38473 0.7142 0.19236 0.0
C602 C 0.73847 0.17865 0.40102 0.0
C603 C 0.79422 0.16854 0.40188 0.0
H604 H 0.66076 0.14828 0.37849 0.0
C605 C 0.81553 0.13059 0.36562 0.0
H606 H 0.72119 0.20828 0.42834 0.0
C607 C 0.7809 0.0967 0.33651 0.0
C608 C 0.72469 0.09999 0.34399 0.0
H609 H 0.85825 0.1222 0.36517 0.0
H610 H 0.79814 0.06398 0.31301 0.0
C611 C 0.70376 0.14414 0.37266 0.0
C612 C 0.39981 0.32879 0.84862 0.0
C613 C 0.36415 0.30515 0.88537 0.0
H614 H 0.46262 0.31426 0.79114 0.0
C615 C 0.35217 0.2498 0.88035 0.0
H616 H 0.40905 0.37145 0.85116 0.0
C617 C 0.38349 0.2169 0.84695 0.0
C618 C 0.42641 0.23944 0.81796 0.0
H619 H 0.32359 0.231 0.90755 0.0
H620 H 0.37893 0.17359 0.84982 0.0
C621 C 0.43049 0.29595 0.81444 0.0
C622 C 0.18476 0.88329 0.38849 0.0
C623 C 0.21029 0.86539 0.43506 0.0
H624 H 0.1934 0.92529 0.31443 0.0
C625 C 0.26686 0.86864 0.43813 0.0
H626 H 0.14146 0.88082 0.38446 0.0
C627 C 0.29646 0.8955 0.39871 0.0
C628 C 0.26999 0.91849 0.35517 0.0
H629 H 0.28804 0.85304 0.4725 0.0
H630 H 0.33924 0.90169 0.40447 0.0
C631 C 0.21451 0.90906 0.34858 0.0
C632 C 0.65444 0.73447 0.87355 0.0
C633 C 0.63415 0.6828 0.88483 0.0
H634 H 0.63643 0.81282 0.84419 0.0
C635 C 0.58656 0.66532 0.86025 0.0
H636 H 0.69113 0.74867 0.89249 0.0
C637 C 0.55535 0.70191 0.83207 0.0
C638 C 0.57103 0.7565 0.82935 0.0
H639 H 0.57018 0.62571 0.86861 0.0
H640 H 0.51618 0.68897 0.81787 0.0
C641 C 0.62291 0.77132 0.84611 0.0
loop_
_geom_bond_atom_site_label_1
_geom_bond_atom_site_label_2
_geom_bond_distance
_geom_bond_site_symmetry_2
_ccdc_geom_bond_type
C0 O1 1.201 . S
C0 C2 1.493 . S
C0 N17 1.318 . S
O1 C0 1.201 . S
C2 C0 1.493 . S
C2 C3 1.381 . S
C2 N7 1.335 1_655 S
C3 C2 1.381 . S
C3 C4 1.411 1_655 S
C3 H49 0.931 . S
C4 C3 1.411 1_455 S
C4 C5 1.384 . S
C4 H50 0.930 . S
C5 C4 1.384 . S
C5 C6 1.376 . S
C5 H51 0.929 . S
C6 C5 1.376 . S
C6 N7 1.330 . S
C6 C21 1.484 . S
N7 C2 1.335 1_455 S
N7 C6 1.330 . S
N7 Co9 1.859 . S
N8 Co9 1.962 . S
N8 C19 1.318 . S
N8 C43 1.421 . S
Co9 N7 1.859 . S
Co9 N8 1.962 . S
Co9 N10 1.859 . S
Co9 N16 1.958 . S
Co9 N17 1.962 1_455 S
Co9 N18 1.958 . S
N10 Co9 1.859 . S
N10 C14 1.330 . S
N10 C15 1.335 . S
C11 C12 1.411 . S
C11 C15 1.381 . S
C11 H52 0.931 . S
C12 C11 1.411 . S
C12 C13 1.384 . S
C12 H53 0.930 . S
C13 C12 1.384 . S
C13 C14 1.376 . S
C13 H54 0.929 . S
C14 N10 1.330 . S
C14 C13 1.376 . S
C14 C29 1.484 . S
C15 N10 1.335 . S
C15 C11 1.381 . S
C15 C19 1.493 . S
N16 Co9 1.958 . S
N16 C29 1.344 . S
N16 C31 1.425 . S
N17 C0 1.318 . S
N17 Co9 1.962 1_655 S
N17 C37 1.421 . S
N18 Co9 1.958 . S
N18 C21 1.344 . S
N18 C23 1.425 . S
C19 N8 1.318 . S
C19 C15 1.493 . S
C19 O20 1.201 . S
O20 C19 1.201 . S
C21 C6 1.484 . S
C21 N18 1.344 . S
C21 O22 1.268 . S
O22 C21 1.268 . S
C23 N18 1.425 . S
C23 C25 1.392 . S
C23 C26 1.368 . S
C24 C25 1.382 . S
C24 C28 1.386 . S
C25 C23 1.392 . S
C25 C24 1.382 . S
C25 H55 0.928 . S
C26 C23 1.368 . S
C26 C27 1.367 . S
C26 H56 0.930 . S
C27 C26 1.367 . S
C27 C28 1.369 . S
C28 C24 1.386 . S
C28 C27 1.369 . S
C28 H57 0.930 . S
C29 C14 1.484 . S
C29 N16 1.344 . S
C29 O30 1.268 . S
O30 C29 1.268 . S
C31 N16 1.425 . S
C31 C32 1.368 . S
C31 C36 1.392 1_455 S
C32 C31 1.368 . S
C32 C33 1.367 . S
C32 H58 0.930 . S
C33 C32 1.367 . S
C33 C34 1.369 . S
C34 C33 1.369 . S
C34 C35 1.386 1_455 S
C34 H59 0.930 . S
C35 C34 1.386 1_655 S
C35 C36 1.382 . S
C36 C31 1.392 1_655 S
C36 C35 1.382 . S
C36 H60 0.928 . S
C37 N17 1.421 . S
C37 C38 1.371 . S
C37 C42 1.385 . S
C38 C37 1.371 . S
C38 C39 1.367 . S
C38 H61 0.931 . S
C39 C38 1.367 . S
C39 C40 1.401 . S
C40 C39 1.401 . S
C40 C41 1.385 . S
C40 H62 0.930 . S
C41 C40 1.385 . S
C41 C42 1.402 . S
C42 C37 1.385 . S
C42 C41 1.402 . S
C42 H63 0.929 . S
C43 N8 1.421 . S
C43 C46 1.385 1_455 S
C43 C47 1.371 . S
C44 C45 1.385 1_455 S
C44 C48 1.401 . S
C44 H64 0.930 . S
C45 C44 1.385 1_655 S
C45 C46 1.402 . S
C46 C43 1.385 1_655 S
C46 C45 1.402 . S
C46 H65 0.929 . S
C47 C43 1.371 . S
C47 C48 1.367 . S
C47 H66 0.931 . S
C48 C44 1.401 . S
C48 C47 1.367 . S
H49 C3 0.931 . S
H50 C4 0.930 . S
H51 C5 0.929 . S
H52 C11 0.931 . S
H53 C12 0.930 . S
H54 C13 0.929 . S
H55 C25 0.928 . S
H56 C26 0.930 . S
H57 C28 0.930 . S
H58 C32 0.930 . S
H59 C34 0.930 . S
H60 C36 0.928 . S
H61 C38 0.931 . S
H62 C40 0.930 . S
H63 C42 0.929 . S
H64 C44 0.930 . S
H65 C46 0.929 . S
H66 C47 0.931 . S
C67 O68 1.201 . S
C67 C69 1.493 . S
C67 N84 1.318 . S
O68 C67 1.201 . S
C69 C67 1.493 . S
C69 C70 1.381 . S
C69 N74 1.335 1_556 S
C70 C69 1.381 . S
C70 C71 1.411 1_556 S
C70 H116 0.931 . S
C71 C70 1.411 1_554 S
C71 C72 1.384 . S
C71 H117 0.930 . S
C72 C71 1.384 . S
C72 C73 1.376 . S
C72 H118 0.929 . S
C73 C72 1.376 . S
C73 N74 1.330 . S
C73 C88 1.484 . S
N74 C69 1.335 1_554 S
N74 C73 1.330 . S
N74 Co76 1.859 . S
N75 Co76 1.962 . S
N75 C86 1.318 . S
N75 C110 1.421 . S
Co76 N74 1.859 . S
Co76 N75 1.962 . S
Co76 N77 1.859 . S
Co76 N83 1.958 . S
Co76 N84 1.962 1_554 S
Co76 N85 1.958 . S
N77 Co76 1.859 . S
N77 C81 1.330 . S
N77 C82 1.335 . S
C78 C79 1.411 . S
C78 C82 1.381 . S
C78 H119 0.931 . S
C79 C78 1.411 . S
C79 C80 1.384 . S
C79 H120 0.930 . S
C80 C79 1.384 . S
C80 C81 1.376 . S
C80 H121 0.929 . S
C81 N77 1.330 . S
C81 C80 1.376 . S
C81 C96 1.484 . S
C82 N77 1.335 . S
C82 C78 1.381 . S
C82 C86 1.493 . S
N83 Co76 1.958 . S
N83 C96 1.344 . S
N83 C98 1.425 . S
N84 C67 1.318 . S
N84 Co76 1.962 1_556 S
N84 C104 1.421 . S
N85 Co76 1.958 . S
N85 C88 1.344 . S
N85 C90 1.425 . S
C86 N75 1.318 . S
C86 C82 1.493 . S
C86 O87 1.201 . S
O87 C86 1.201 . S
C88 C73 1.484 . S
C88 N85 1.344 . S
C88 O89 1.268 . S
O89 C88 1.268 . S
C90 N85 1.425 . S
C90 C92 1.392 . S
C90 C93 1.368 . S
C91 C92 1.382 . S
C91 C95 1.386 . S
C92 C90 1.392 . S
C92 C91 1.382 . S
C92 H122 0.928 . S
C93 C90 1.368 . S
C93 C94 1.367 . S
C93 H123 0.930 . S
C94 C93 1.367 . S
C94 C95 1.369 . S
C95 C91 1.386 . S
C95 C94 1.369 . S
C95 H124 0.930 . S
C96 C81 1.484 . S
C96 N83 1.344 . S
C96 O97 1.268 . S
O97 C96 1.268 . S
C98 N83 1.425 . S
C98 C99 1.368 . S
C98 C103 1.392 1_554 S
C99 C98 1.368 . S
C99 C100 1.367 . S
C99 H125 0.930 . S
C100 C99 1.367 . S
C100 C101 1.369 1_554 S
C101 C100 1.369 1_556 S
C101 C102 1.386 . S
C101 H126 0.930 . S
C102 C101 1.386 . S
C102 C103 1.382 . S
C103 C98 1.392 1_556 S
C103 C102 1.382 . S
C103 H127 0.928 . S
C104 N84 1.421 . S
C104 C105 1.371 . S
C104 C109 1.385 . S
C105 C104 1.371 . S
C105 C106 1.367 . S
C105 H128 0.931 . S
C106 C105 1.367 . S
C106 C107 1.401 . S
C107 C106 1.401 . S
C107 C108 1.385 . S
C107 H129 0.930 . S
C108 C107 1.385 . S
C108 C109 1.402 . S
C109 C104 1.385 . S
C109 C108 1.402 . S
C109 H130 0.929 . S
C110 N75 1.421 . S
C110 C113 1.385 1_554 S
C110 C114 1.371 . S
C111 C112 1.385 1_554 S
C111 C115 1.401 . S
C111 H131 0.930 . S
C112 C111 1.385 1_556 S
C112 C113 1.402 . S
C113 C110 1.385 1_556 S
C113 C112 1.402 . S
C113 H132 0.929 . S
C114 C110 1.371 . S
C114 C115 1.367 . S
C114 H133 0.931 . S
C115 C111 1.401 . S
C115 C114 1.367 . S
H116 C70 0.931 . S
H117 C71 0.930 . S
H118 C72 0.929 . S
H119 C78 0.931 . S
H120 C79 0.930 . S
H121 C80 0.929 . S
H122 C92 0.928 . S
H123 C93 0.930 . S
H124 C95 0.930 . S
H125 C99 0.930 . S
H126 C101 0.930 . S
H127 C103 0.928 . S
H128 C105 0.931 . S
H129 C107 0.930 . S
H130 C109 0.929 . S
H131 C111 0.930 . S
H132 C113 0.929 . S
H133 C114 0.931 . S
C134 O135 1.201 . S
C134 C136 1.493 . S
C134 N151 1.318 . S
O135 C134 1.201 . S
C136 C134 1.493 . S
C136 C137 1.381 . S
C136 N141 1.335 1_455 S
C137 C136 1.381 . S
C137 C138 1.411 1_455 S
C137 H183 0.931 . S
C138 C137 1.411 1_655 S
C138 C139 1.384 . S
C138 H184 0.930 . S
C139 C138 1.384 . S
C139 C140 1.376 . S
C139 H185 0.929 . S
C140 C139 1.376 . S
C140 N141 1.330 . S
C140 C155 1.484 . S
N141 C136 1.335 1_655 S
N141 C140 1.330 . S
N141 Co143 1.859 . S
N142 Co143 1.962 . S
N142 C153 1.318 . S
N142 C177 1.421 1_655 S
Co143 N141 1.859 . S
Co143 N142 1.962 . S
Co143 N144 1.859 . S
Co143 N150 1.959 . S
Co143 N151 1.962 1_655 S
Co143 N152 1.958 . S
N144 Co143 1.859 . S
N144 C148 1.330 . S
N144 C149 1.335 . S
C145 C146 1.411 . S
C145 C149 1.381 . S
C145 H186 0.931 . S
C146 C145 1.411 . S
C146 C147 1.384 . S
C146 H187 0.930 . S
C147 C146 1.384 . S
C147 C148 1.376 . S
C147 H188 0.929 . S
C148 N144 1.330 . S
C148 C147 1.376 . S
C148 C163 1.484 . S
C149 N144 1.335 . S
C149 C145 1.381 . S
C149 C153 1.493 . S
N150 Co143 1.959 . S
N150 C163 1.345 . S
N150 C165 1.424 1_655 S
N151 C134 1.318 . S
N151 Co143 1.962 1_455 S
N151 C171 1.421 . S
N152 Co143 1.958 . S
N152 C155 1.344 . S
N152 C157 1.425 . S
C153 N142 1.318 . S
C153 C149 1.493 . S
C153 O154 1.201 . S
O154 C153 1.201 . S
C155 C140 1.484 . S
C155 N152 1.344 . S
C155 O156 1.268 . S
O156 C155 1.268 . S
C157 N152 1.425 . S
C157 C159 1.392 . S
C157 C160 1.368 . S
C158 C159 1.382 . S
C158 C162 1.386 . S
C159 C157 1.392 . S
C159 C158 1.382 . S
C159 H189 0.928 . S
C160 C157 1.368 . S
C160 C161 1.367 . S
C160 H190 0.930 . S
C161 C160 1.367 . S
C161 C162 1.369 . S
C162 C158 1.386 . S
C162 C161 1.369 . S
C162 H191 0.930 . S
C163 C148 1.484 . S
C163 N150 1.345 . S
C163 O164 1.268 . S
O164 C163 1.268 . S
C165 N150 1.424 1_455 S
C165 C166 1.368 1_455 S
C165 C170 1.392 . S
C166 C165 1.368 1_655 S
C166 C167 1.367 . S
C166 H192 0.930 . S
C167 C166 1.367 . S
C167 C168 1.369 1_655 S
C168 C167 1.369 1_455 S
C168 C169 1.386 . S
C168 H193 0.930 . S
C169 C168 1.386 . S
C169 C170 1.382 . S
C170 C165 1.392 . S
C170 C169 1.382 . S
C170 H194 0.928 . S
C171 N151 1.421 . S
C171 C172 1.371 . S
C171 C176 1.385 . S
C172 C171 1.371 . S
C172 C173 1.367 . S
C172 H195 0.931 . S
C173 C172 1.367 . S
C173 C174 1.401 . S
C174 C173 1.401 . S
C174 C175 1.385 . S
C174 H196 0.930 . S
C175 C174 1.385 . S
C175 C176 1.402 . S
C176 C171 1.385 . S
C176 C175 1.402 . S
C176 H197 0.929 . S
C177 N142 1.421 1_455 S
C177 C180 1.395 . S
C177 C181 1.361 1_455 S
C178 C179 1.385 . S
C178 C182 1.401 1_455 S
C178 H198 0.930 . S
C179 C178 1.385 . S
C179 C180 1.402 . S
C180 C177 1.395 . S
C180 C179 1.402 . S
C180 H199 0.929 . S
C181 C177 1.361 1_655 S
C181 C182 1.367 . S
C181 H200 0.931 . S
C182 C178 1.401 1_655 S
C182 C181 1.367 . S
H183 C137 0.931 . S
H184 C138 0.930 . S
H185 C139 0.929 . S
H186 C145 0.931 . S
H187 C146 0.930 . S
H188 C147 0.929 . S
H189 C159 0.928 . S
H190 C160 0.930 . S
H191 C162 0.930 . S
H192 C166 0.930 . S
H193 C168 0.930 . S
H194 C170 0.928 . S
H195 C172 0.931 . S
H196 C174 0.930 . S
H197 C176 0.929 . S
H198 C178 0.930 . S
H199 C180 0.929 . S
H200 C181 0.931 . S
C201 O202 1.201 . S
C201 C203 1.493 . S
C201 N218 1.318 . S
O202 C201 1.201 . S
C203 C201 1.493 . S
C203 C204 1.381 . S
C203 N208 1.335 1_556 S
C204 C203 1.381 . S
C204 C205 1.411 1_556 S
C204 H250 0.931 . S
C205 C204 1.411 1_554 S
C205 C206 1.384 . S
C205 H251 0.930 . S
C206 C205 1.384 . S
C206 C207 1.376 . S
C206 H252 0.929 . S
C207 C206 1.376 . S
C207 N208 1.330 . S
C207 C222 1.484 . S
N208 C203 1.335 1_554 S
N208 C207 1.330 . S
N208 Co210 1.859 . S
N209 Co210 1.962 . S
N209 C220 1.318 . S
N209 C244 1.421 . S
Co210 N208 1.859 . S
Co210 N209 1.962 . S
Co210 N211 1.859 . S
Co210 N217 1.958 . S
Co210 N218 1.962 1_554 S
Co210 N219 1.958 . S
N211 Co210 1.859 . S
N211 C215 1.330 . S
N211 C216 1.335 . S
C212 C213 1.411 . S
C212 C216 1.381 . S
C212 H253 0.931 . S
C213 C212 1.411 . S
C213 C214 1.384 . S
C213 H254 0.930 . S
C214 C213 1.384 . S
C214 C215 1.376 . S
C214 H255 0.929 . S
C215 N211 1.330 . S
C215 C214 1.376 . S
C215 C230 1.484 . S
C216 N211 1.335 . S
C216 C212 1.381 . S
C216 C220 1.493 . S
N217 Co210 1.958 . S
N217 C230 1.344 . S
N217 C232 1.425 . S
N218 C201 1.318 . S
N218 Co210 1.962 1_556 S
N218 C238 1.421 . S
N219 Co210 1.958 . S
N219 C222 1.344 . S
N219 C224 1.425 . S
C220 N209 1.318 . S
C220 C216 1.493 . S
C220 O221 1.201 . S
O221 C220 1.201 . S
C222 C207 1.484 . S
C222 N219 1.344 . S
C222 O223 1.268 . S
O223 C222 1.268 . S
C224 N219 1.425 . S
C224 C226 1.392 . S
C224 C227 1.368 . S
C225 C226 1.382 . S
C225 C229 1.386 . S
C226 C224 1.392 . S
C226 C225 1.382 . S
C226 H256 0.928 . S
C227 C224 1.368 . S
C227 C228 1.367 . S
C227 H257 0.930 . S
C228 C227 1.367 . S
C228 C229 1.369 . S
C229 C225 1.386 . S
C229 C228 1.369 . S
C229 H258 0.930 . S
C230 C215 1.484 . S
C230 N217 1.344 . S
C230 O231 1.268 . S
O231 C230 1.268 . S
C232 N217 1.425 . S
C232 C233 1.368 . S
C232 C237 1.392 1_554 S
C233 C232 1.368 . S
C233 C234 1.367 . S
C233 H259 0.930 . S
C234 C233 1.367 . S
C234 C235 1.369 1_554 S
C235 C234 1.369 1_556 S
C235 C236 1.386 . S
C235 H260 0.930 . S
C236 C235 1.386 . S
C236 C237 1.382 . S
C237 C232 1.392 1_556 S
C237 C236 1.382 . S
C237 H261 0.928 . S
C238 N218 1.421 . S
C238 C239 1.371 . S
C238 C243 1.385 . S
C239 C238 1.371 . S
C239 C240 1.367 . S
C239 H262 0.931 . S
C240 C239 1.367 . S
C240 C241 1.401 . S
C241 C240 1.401 . S
C241 C242 1.385 . S
C241 H263 0.930 . S
C242 C241 1.385 . S
C242 C243 1.402 . S
C243 C238 1.385 . S
C243 C242 1.402 . S
C243 H264 0.929 . S
C244 N209 1.421 . S
C244 C247 1.385 1_554 S
C244 C248 1.371 . S
C245 C246 1.385 1_554 S
C245 C249 1.401 . S
C245 H265 0.930 . S
C246 C245 1.385 1_556 S
C246 C247 1.402 . S
C247 C244 1.385 1_556 S
C247 C246 1.402 . S
C247 H266 0.929 . S
C248 C244 1.371 . S
C248 C249 1.367 . S
C248 H267 0.931 . S
C249 C245 1.401 . S
C249 C248 1.367 . S
H250 C204 0.931 . S
H251 C205 0.930 . S
H252 C206 0.929 . S
H253 C212 0.931 . S
H254 C213 0.930 . S
H255 C214 0.929 . S
H256 C226 0.928 . S
H257 C227 0.930 . S
H258 C229 0.930 . S
H259 C233 0.930 . S
H260 C235 0.930 . S
H261 C237 0.928 . S
H262 C239 0.931 . S
H263 C241 0.930 . S
H264 C243 0.929 . S
H265 C245 0.930 . S
H266 C247 0.929 . S
H267 C248 0.931 . S
C268 O269 1.201 . S
C268 C270 1.493 . S
C268 N285 1.318 . S
O269 C268 1.201 . S
C270 C268 1.493 . S
C270 C271 1.381 . S
C270 N275 1.335 1_545 S
C271 C270 1.381 . S
C271 C272 1.411 1_545 S
C271 H317 0.931 . S
C272 C271 1.411 1_565 S
C272 C273 1.384 . S
C272 H318 0.930 . S
C273 C272 1.384 . S
C273 C274 1.376 . S
C273 H319 0.929 . S
C274 C273 1.376 . S
C274 N275 1.330 . S
C274 C289 1.484 . S
N275 C270 1.335 1_565 S
N275 C274 1.330 . S
N275 Co277 1.859 . S
N276 Co277 1.962 . S
N276 C287 1.318 . S
N276 C311 1.421 . S
Co277 N275 1.859 . S
Co277 N276 1.962 . S
Co277 N278 1.859 . S
Co277 N284 1.958 . S
Co277 N285 1.962 1_565 S
Co277 N286 1.958 . S
N278 Co277 1.859 . S
N278 C282 1.330 . S
N278 C283 1.335 . S
C279 C280 1.411 . S
C279 C283 1.381 . S
C279 H320 0.931 . S
C280 C279 1.411 . S
C280 C281 1.384 . S
C280 H321 0.930 . S
C281 C280 1.384 . S
C281 C282 1.376 . S
C281 H322 0.929 . S
C282 N278 1.330 . S
C282 C281 1.376 . S
C282 C297 1.484 . S
C283 N278 1.335 . S
C283 C279 1.381 . S
C283 C287 1.493 . S
N284 Co277 1.958 . S
N284 C297 1.344 . S
N284 C299 1.425 . S
N285 C268 1.318 . S
N285 Co277 1.962 1_545 S
N285 C305 1.421 . S
N286 Co277 1.958 . S
N286 C289 1.344 . S
N286 C291 1.425 . S
C287 N276 1.318 . S
C287 C283 1.493 . S
C287 O288 1.201 . S
O288 C287 1.201 . S
C289 C274 1.484 . S
C289 N286 1.344 . S
C289 O290 1.268 . S
O290 C289 1.268 . S
C291 N286 1.425 . S
C291 C293 1.392 . S
C291 C294 1.368 . S
C292 C293 1.382 . S
C292 C296 1.386 . S
C293 C291 1.392 . S
C293 C292 1.382 . S
C293 H323 0.928 . S
C294 C291 1.368 . S
C294 C295 1.367 . S
C294 H324 0.930 . S
C295 C294 1.367 . S
C295 C296 1.369 . S
C296 C292 1.386 . S
C296 C295 1.369 . S
C296 H325 0.930 . S
C297 C282 1.484 . S
C297 N284 1.344 . S
C297 O298 1.268 . S
O298 C297 1.268 . S
C299 N284 1.425 . S
C299 C300 1.369 . S
C299 C304 1.391 1_565 S
C300 C299 1.369 . S
C300 C301 1.367 . S
C300 H326 0.930 . S
C301 C300 1.367 . S
C301 C302 1.369 1_565 S
C302 C301 1.369 1_545 S
C302 C303 1.386 . S
C302 H327 0.930 . S
C303 C302 1.386 . S
C303 C304 1.382 . S
C304 C299 1.391 1_545 S
C304 C303 1.382 . S
C304 H328 0.928 . S
C305 N285 1.421 . S
C305 C306 1.371 . S
C305 C310 1.385 . S
C306 C305 1.371 . S
C306 C307 1.367 . S
C306 H329 0.931 . S
C307 C306 1.367 . S
C307 C308 1.401 . S
C308 C307 1.401 . S
C308 C309 1.385 . S
C308 H330 0.930 . S
C309 C308 1.385 . S
C309 C310 1.402 . S
C310 C305 1.385 . S
C310 C309 1.402 . S
C310 H331 0.929 . S
C311 N276 1.421 . S
C311 C314 1.385 1_565 S
C311 C315 1.371 . S
C312 C313 1.373 1_565 S
C312 C316 1.414 . S
C312 H332 0.930 . S
C313 C312 1.373 1_545 S
C313 C314 1.402 . S
C314 C311 1.385 1_545 S
C314 C313 1.402 . S
C314 H333 0.929 . S
C315 C311 1.371 . S
C315 C316 1.367 . S
C315 H334 0.931 . S
C316 C312 1.414 . S
C316 C315 1.367 . S
H317 C271 0.931 . S
H318 C272 0.930 . S
H319 C273 0.929 . S
H320 C279 0.931 . S
H321 C280 0.930 . S
H322 C281 0.929 . S
H323 C293 0.928 . S
H324 C294 0.930 . S
H325 C296 0.930 . S
H326 C300 0.930 . S
H327 C302 0.930 . S
H328 C304 0.928 . S
H329 C306 0.931 . S
H330 C308 0.930 . S
H331 C310 0.929 . S
H332 C312 0.930 . S
H333 C314 0.929 . S
H334 C315 0.931 . S
C335 O336 1.201 . S
C335 C337 1.493 . S
C335 N352 1.318 . S
O336 C335 1.201 . S
C337 C335 1.493 . S
C337 C338 1.381 . S
C337 N342 1.335 1_565 S
C338 C337 1.381 . S
C338 C339 1.411 1_565 S
C338 H384 0.931 . S
C339 C338 1.411 1_545 S
C339 C340 1.384 . S
C339 H385 0.930 . S
C340 C339 1.384 . S
C340 C341 1.376 . S
C340 H386 0.929 . S
C341 C340 1.376 . S
C341 N342 1.330 . S
C341 C356 1.484 . S
N342 C337 1.335 1_545 S
N342 C341 1.330 . S
N342 Co344 1.859 . S
N343 Co344 1.962 . S
N343 C354 1.318 . S
N343 C378 1.421 . S
Co344 N342 1.859 . S
Co344 N343 1.962 . S
Co344 N345 1.859 . S
Co344 N351 1.958 . S
Co344 N352 1.962 1_545 S
Co344 N353 1.958 . S
N345 Co344 1.859 . S
N345 C349 1.330 . S
N345 C350 1.335 . S
C346 C347 1.411 . S
C346 C350 1.381 . S
C346 H387 0.931 . S
C347 C346 1.411 . S
C347 C348 1.384 . S
C347 H388 0.930 . S
C348 C347 1.384 . S
C348 C349 1.376 . S
C348 H389 0.929 . S
C349 N345 1.330 . S
C349 C348 1.376 . S
C349 C364 1.484 . S
C350 N345 1.335 . S
C350 C346 1.381 . S
C350 C354 1.493 . S
N351 Co344 1.958 . S
N351 C364 1.344 . S
N351 C366 1.425 . S
N352 C335 1.318 . S
N352 Co344 1.962 1_565 S
N352 C372 1.421 . S
N353 Co344 1.958 . S
N353 C356 1.344 . S
N353 C358 1.425 . S
C354 N343 1.318 . S
C354 C350 1.493 . S
C354 O355 1.201 . S
O355 C354 1.201 . S
C356 C341 1.484 . S
C356 N353 1.344 . S
C356 O357 1.268 . S
O357 C356 1.268 . S
C358 N353 1.425 . S
C358 C360 1.392 . S
C358 C361 1.368 . S
C359 C360 1.382 . S
C359 C363 1.386 . S
C360 C358 1.392 . S
C360 C359 1.382 . S
C360 H390 0.928 . S
C361 C358 1.368 . S
C361 C362 1.367 . S
C361 H391 0.930 . S
C362 C361 1.367 . S
C362 C363 1.369 . S
C363 C359 1.386 . S
C363 C362 1.369 . S
C363 H392 0.930 . S
C364 C349 1.484 . S
C364 N351 1.344 . S
C364 O365 1.268 . S
O365 C364 1.268 . S
C366 N351 1.425 . S
C366 C367 1.368 . S
C366 C371 1.392 1_545 S
C367 C366 1.368 . S
C367 C368 1.367 . S
C367 H393 0.930 . S
C368 C367 1.367 . S
C368 C369 1.351 1_545 S
C369 C368 1.351 1_565 S
C369 C370 1.403 . S
C369 H394 0.932 . S
C370 C369 1.403 . S
C370 C371 1.382 . S
C371 C366 1.392 1_565 S
C371 C370 1.382 . S
C371 H395 0.928 . S
C372 N352 1.421 . S
C372 C373 1.371 . S
C372 C377 1.385 . S
C373 C372 1.371 . S
C373 C374 1.367 . S
C373 H396 0.931 . S
C374 C373 1.367 . S
C374 C375 1.401 . S
C375 C374 1.401 . S
C375 C376 1.385 . S
C375 H397 0.930 . S
C376 C375 1.385 . S
C376 C377 1.402 . S
C377 C372 1.385 . S
C377 C376 1.402 . S
C377 H398 0.929 . S
C378 N343 1.421 . S
C378 C381 1.385 1_545 S
C378 C382 1.371 . S
C379 C380 1.385 1_545 S
C379 C383 1.401 . S
C379 H399 0.930 . S
C380 C379 1.385 1_565 S
C380 C381 1.402 . S
C381 C378 1.385 1_565 S
C381 C380 1.402 . S
C381 H400 0.929 . S
C382 C378 1.371 . S
C382 C383 1.367 . S
C382 H401 0.931 . S
C383 C379 1.401 . S
C383 C382 1.367 . S
H384 C338 0.931 . S
H385 C339 0.930 . S
H386 C340 0.929 . S
H387 C346 0.931 . S
H388 C347 0.930 . S
H389 C348 0.929 . S
H390 C360 0.928 . S
H391 C361 0.930 . S
H392 C363 0.930 . S
H393 C367 0.930 . S
H394 C369 0.932 . S
H395 C371 0.928 . S
H396 C373 0.931 . S
H397 C375 0.930 . S
H398 C377 0.929 . S
H399 C379 0.930 . S
H400 C381 0.929 . S
H401 C382 0.931 . S
C402 C403 1.387 . S
C402 H406 0.950 . S
C402 C411 1.390 . S
C403 C402 1.387 . S
C403 C405 1.387 . S
H404 C411 0.950 . S
C405 C403 1.387 . S
C405 C407 1.390 . S
C405 H409 0.950 . S
H406 C402 0.950 . S
C407 C405 1.390 . S
C407 C408 1.387 . S
C407 H410 0.950 . S
C408 C407 1.387 . S
C408 C411 1.387 . S
H409 C405 0.950 . S
H410 C407 0.950 . S
C411 C402 1.390 . S
C411 H404 0.950 . S
C411 C408 1.387 . S
C412 C413 1.387 . S
C412 H416 0.950 . S
C412 C421 1.390 . S
C413 C412 1.387 . S
C413 C415 1.387 . S
H414 C421 0.950 . S
C415 C413 1.387 . S
C415 C417 1.390 . S
C415 H419 0.950 . S
H416 C412 0.950 . S
C417 C415 1.390 . S
C417 C418 1.387 . S
C417 H420 0.950 . S
C418 C417 1.387 . S
C418 C421 1.387 . S
H419 C415 0.950 . S
H420 C417 0.950 . S
C421 C412 1.390 . S
C421 H414 0.950 . S
C421 C418 1.387 . S
C422 C423 1.387 . S
C422 H426 0.950 . S
C422 C431 1.390 . S
C423 C422 1.387 . S
C423 C425 1.387 . S
H424 C431 0.950 . S
C425 C423 1.387 . S
C425 C427 1.390 . S
C425 H429 0.950 . S
H426 C422 0.950 . S
C427 C425 1.390 . S
C427 C428 1.387 . S
C427 H430 0.950 . S
C428 C427 1.387 . S
C428 C431 1.387 . S
H429 C425 0.950 . S
H430 C427 0.950 . S
C431 C422 1.390 . S
C431 H424 0.950 . S
C431 C428 1.387 . S
C432 C433 1.387 . S
C432 H436 0.950 . S
C432 C441 1.390 . S
C433 C432 1.387 . S
C433 C435 1.387 . S
H434 C441 0.950 . S
C435 C433 1.387 . S
C435 C437 1.390 . S
C435 H439 0.950 . S
H436 C432 0.950 . S
C437 C435 1.390 . S
C437 C438 1.387 . S
C437 H440 0.950 . S
C438 C437 1.387 . S
C438 C441 1.387 . S
H439 C435 0.950 . S
H440 C437 0.950 . S
C441 C432 1.390 . S
C441 H434 0.950 . S
C441 C438 1.387 . S
C442 C443 1.387 . S
C442 H446 0.950 . S
C442 C451 1.390 . S
C443 C442 1.387 . S
C443 C445 1.387 . S
H444 C451 0.950 . S
C445 C443 1.387 . S
C445 C447 1.390 . S
C445 H449 0.950 . S
H446 C442 0.950 . S
C447 C445 1.390 . S
C447 C448 1.387 . S
C447 H450 0.950 . S
C448 C447 1.387 . S
C448 C451 1.387 . S
H449 C445 0.950 . S
H450 C447 0.950 . S
C451 C442 1.390 . S
C451 H444 0.950 . S
C451 C448 1.387 . S
C452 C453 1.387 . S
C452 H456 0.950 . S
C452 C461 1.390 . S
C453 C452 1.387 . S
C453 C455 1.387 . S
H454 C461 0.950 . S
C455 C453 1.387 . S
C455 C457 1.390 . S
C455 H459 0.950 . S
H456 C452 0.950 . S
C457 C455 1.390 . S
C457 C458 1.387 . S
C457 H460 0.950 . S
C458 C457 1.387 . S
C458 C461 1.387 . S
H459 C455 0.950 . S
H460 C457 0.950 . S
C461 C452 1.390 . S
C461 H454 0.950 . S
C461 C458 1.387 . S
C462 C463 1.387 . S
C462 H466 0.950 . S
C462 C471 1.390 . S
C463 C462 1.387 . S
C463 C465 1.387 . S
H464 C471 0.950 . S
C465 C463 1.387 . S
C465 C467 1.390 . S
C465 H469 0.950 . S
H466 C462 0.950 . S
C467 C465 1.390 . S
C467 C468 1.387 . S
C467 H470 0.950 . S
C468 C467 1.387 . S
C468 C471 1.387 . S
H469 C465 0.950 . S
H470 C467 0.950 . S
C471 C462 1.390 . S
C471 H464 0.950 . S
C471 C468 1.387 . S
C472 C473 1.387 . S
C472 H476 0.950 . S
C472 C481 1.390 . S
C473 C472 1.387 . S
C473 C475 1.387 . S
H474 C481 0.950 . S
C475 C473 1.387 . S
C475 C477 1.390 . S
C475 H479 0.950 . S
H476 C472 0.950 . S
C477 C475 1.390 . S
C477 C478 1.387 . S
C477 H480 0.950 . S
C478 C477 1.387 . S
C478 C481 1.387 . S
H479 C475 0.950 . S
H480 C477 0.950 . S
C481 C472 1.390 . S
C481 H474 0.950 . S
C481 C478 1.387 . S
C482 C483 1.387 . S
C482 H486 0.950 . S
C482 C491 1.390 . S
C483 C482 1.387 . S
C483 C485 1.387 . S
H484 C491 0.950 . S
C485 C483 1.387 . S
C485 C487 1.390 . S
C485 H489 0.950 . S
H486 C482 0.950 . S
C487 C485 1.390 . S
C487 C488 1.387 . S
C487 H490 0.950 . S
C488 C487 1.387 . S
C488 C491 1.387 . S
H489 C485 0.950 . S
H490 C487 0.950 . S
C491 C482 1.390 . S
C491 H484 0.950 . S
C491 C488 1.387 . S
C492 C493 1.387 . S
C492 H496 0.950 . S
C492 C501 1.390 . S
C493 C492 1.387 . S
C493 C495 1.387 . S
H494 C501 0.950 . S
C495 C493 1.387 . S
C495 C497 1.390 . S
C495 H499 0.950 . S
H496 C492 0.950 . S
C497 C495 1.390 . S
C497 C498 1.387 . S
C497 H500 0.950 . S
C498 C497 1.387 . S
C498 C501 1.387 . S
H499 C495 0.950 . S
H500 C497 0.950 . S
C501 C492 1.390 . S
C501 H494 0.950 . S
C501 C498 1.387 . S
C502 C503 1.387 . S
C502 H506 0.950 . S
C502 C511 1.390 . S
C503 C502 1.387 . S
C503 C505 1.387 . S
H504 C511 0.950 . S
C505 C503 1.387 . S
C505 C507 1.390 . S
C505 H509 0.950 . S
H506 C502 0.950 . S
C507 C505 1.390 . S
C507 C508 1.387 . S
C507 H510 0.950 . S
C508 C507 1.387 . S
C508 C511 1.387 . S
H509 C505 0.950 . S
H510 C507 0.950 . S
C511 C502 1.390 . S
C511 H504 0.950 . S
C511 C508 1.387 . S
C512 C513 1.387 . S
C512 H516 0.950 . S
C512 C521 1.390 . S
C513 C512 1.387 . S
C513 C515 1.387 . S
H514 C521 0.950 . S
C515 C513 1.387 . S
C515 C517 1.390 . S
C515 H519 0.950 . S
H516 C512 0.950 . S
C517 C515 1.390 . S
C517 C518 1.387 . S
C517 H520 0.950 . S
C518 C517 1.387 . S
C518 C521 1.387 . S
H519 C515 0.950 . S
H520 C517 0.950 . S
C521 C512 1.390 . S
C521 H514 0.950 . S
C521 C518 1.387 . S
C522 C523 1.387 . S
C522 H526 0.950 . S
C522 C531 1.390 . S
C523 C522 1.387 . S
C523 C525 1.387 . S
H524 C531 0.950 . S
C525 C523 1.387 . S
C525 C527 1.390 . S
C525 H529 0.950 . S
H526 C522 0.950 . S
C527 C525 1.390 . S
C527 C528 1.387 . S
C527 H530 0.950 . S
C528 C527 1.387 . S
C528 C531 1.387 . S
H529 C525 0.950 . S
H530 C527 0.950 . S
C531 C522 1.390 . S
C531 H524 0.950 . S
C531 C528 1.387 . S
C532 C533 1.387 . S
C532 H536 0.950 . S
C532 C541 1.390 . S
C533 C532 1.387 . S
C533 C535 1.387 . S
H534 C541 0.950 . S
C535 C533 1.387 . S
C535 C537 1.390 . S
C535 H539 0.950 . S
H536 C532 0.950 . S
C537 C535 1.390 . S
C537 C538 1.387 . S
C537 H540 0.950 . S
C538 C537 1.387 . S
C538 C541 1.387 . S
H539 C535 0.950 . S
H540 C537 0.950 . S
C541 C532 1.390 . S
C541 H534 0.950 . S
C541 C538 1.387 . S
C542 C543 1.387 . S
C542 H546 0.950 . S
C542 C551 1.390 . S
C543 C542 1.387 . S
C543 C545 1.387 . S
H544 C551 0.950 . S
C545 C543 1.387 . S
C545 C547 1.390 . S
C545 H549 0.950 . S
H546 C542 0.950 . S
C547 C545 1.390 . S
C547 C548 1.387 . S
C547 H550 0.950 . S
C548 C547 1.387 . S
C548 C551 1.387 . S
H549 C545 0.950 . S
H550 C547 0.950 . S
C551 C542 1.390 . S
C551 H544 0.950 . S
C551 C548 1.387 . S
C552 C553 1.387 . S
C552 H556 0.950 . S
C552 C561 1.390 . S
C553 C552 1.387 . S
C553 C555 1.387 . S
H554 C561 0.950 . S
C555 C553 1.387 . S
C555 C557 1.390 . S
C555 H559 0.950 . S
H556 C552 0.950 . S
C557 C555 1.390 . S
C557 C558 1.387 . S
C557 H560 0.950 . S
C558 C557 1.387 . S
C558 C561 1.387 . S
H559 C555 0.950 . S
H560 C557 0.950 . S
C561 C552 1.390 . S
C561 H554 0.950 . S
C561 C558 1.387 . S
C562 C563 1.387 . S
C562 H566 0.950 . S
C562 C571 1.390 . S
C563 C562 1.387 . S
C563 C565 1.387 . S
H564 C571 0.950 . S
C565 C563 1.387 . S
C565 C567 1.390 . S
C565 H569 0.957 . S
H566 C562 0.950 . S
C567 C565 1.390 . S
C567 C568 1.387 . S
C567 H570 0.950 . S
C568 C567 1.387 . S
C568 C571 1.387 . S
H569 C565 0.957 . S
H570 C567 0.950 . S
C571 C562 1.390 . S
C571 H564 0.950 . S
C571 C568 1.387 . S
C572 C573 1.387 . S
C572 H576 0.950 . S
C572 C581 1.390 . S
C573 C572 1.387 . S
C573 C575 1.387 . S
H574 C581 0.950 . S
C575 C573 1.387 . S
C575 C577 1.390 . S
C575 H579 0.950 . S
H576 C572 0.950 . S
C577 C575 1.390 . S
C577 C578 1.387 . S
C577 H580 0.950 . S
C578 C577 1.387 . S
C578 C581 1.387 . S
H579 C575 0.950 . S
H580 C577 0.950 . S
C581 C572 1.390 . S
C581 H574 0.950 . S
C581 C578 1.387 . S
C582 C583 1.387 . S
C582 H586 0.950 . S
C582 C591 1.390 . S
C583 C582 1.387 . S
C583 C585 1.387 . S
H584 C591 0.950 . S
C585 C583 1.387 . S
C585 C587 1.390 . S
C585 H589 0.950 . S
H586 C582 0.950 . S
C587 C585 1.390 . S
C587 C588 1.387 . S
C587 H590 0.950 . S
C588 C587 1.387 . S
C588 C591 1.387 . S
H589 C585 0.950 . S
H590 C587 0.950 . S
C591 C582 1.390 . S
C591 H584 0.950 . S
C591 C588 1.387 . S
C592 C593 1.387 . S
C592 H596 0.950 . S
C592 C601 1.390 . S
C593 C592 1.387 . S
C593 C595 1.387 . S
H594 C601 0.950 . S
C595 C593 1.387 . S
C595 C597 1.390 . S
C595 H599 0.950 . S
H596 C592 0.950 . S
C597 C595 1.390 . S
C597 C598 1.387 . S
C597 H600 0.950 . S
C598 C597 1.387 . S
C598 C601 1.387 . S
H599 C595 0.950 . S
H600 C597 0.950 . S
C601 C592 1.390 . S
C601 H594 0.950 . S
C601 C598 1.387 . S
C602 C603 1.387 . S
C602 H606 0.950 . S
C602 C611 1.390 . S
C603 C602 1.387 . S
C603 C605 1.387 . S
H604 C611 0.950 . S
C605 C603 1.387 . S
C605 C607 1.390 . S
C605 H609 0.950 . S
H606 C602 0.950 . S
C607 C605 1.390 . S
C607 C608 1.387 . S
C607 H610 0.950 . S
C608 C607 1.387 . S
C608 C611 1.387 . S
H609 C605 0.950 . S
H610 C607 0.950 . S
C611 C602 1.390 . S
C611 H604 0.950 . S
C611 C608 1.387 . S
C612 C613 1.387 . S
C612 H616 0.950 . S
C612 C621 1.390 . S
C613 C612 1.387 . S
C613 C615 1.387 . S
H614 C621 0.950 . S
C615 C613 1.387 . S
C615 C617 1.390 . S
C615 H619 0.950 . S
H616 C612 0.950 . S
C617 C615 1.390 . S
C617 C618 1.387 . S
C617 H620 0.950 . S
C618 C617 1.387 . S
C618 C621 1.387 . S
H619 C615 0.950 . S
H620 C617 0.950 . S
C621 C612 1.390 . S
C621 H614 0.950 . S
C621 C618 1.387 . S
C622 C623 1.387 . S
C622 H626 0.950 . S
C622 C631 1.390 . S
C623 C622 1.387 . S
C623 C625 1.387 . S
H624 C631 0.950 . S
C625 C623 1.387 . S
C625 C627 1.390 . S
C625 H629 0.950 . S
H626 C622 0.950 . S
C627 C625 1.390 . S
C627 C628 1.387 . S
C627 H630 0.950 . S
C628 C627 1.387 . S
C628 C631 1.387 . S
H629 C625 0.950 . S
H630 C627 0.950 . S
C631 C622 1.390 . S
C631 H624 0.950 . S
C631 C628 1.387 . S
C632 C633 1.387 . S
C632 H636 0.950 . S
C632 C641 1.390 . S
C633 C632 1.387 . S
C633 C635 1.387 . S
H634 C641 0.950 . S
C635 C633 1.387 . S
C635 C637 1.390 . S
C635 H639 0.950 . S
H636 C632 0.950 . S
C637 C635 1.390 . S
C637 C638 1.387 . S
C637 H640 0.950 . S
C638 C637 1.387 . S
C638 C641 1.387 . S
H639 C635 0.950 . S
H640 C637 0.950 . S
C641 C632 1.390 . S
C641 H634 0.950 . S
C641 C638 1.387 . S
C403 C48 1.267 . S
C408 C91 1.287 . S
C413 C106 1.263 . S
C418 C169 1.283 . S
C423 C225 1.368 . S
C428 C182 1.342 . S
C433 C240 1.341 . S
C438 C35 1.364 . S
C443 C303 1.140 . S
C448 C24 1.135 . S
C453 C374 1.271 . S
C458 C102 1.285 . S
C463 C316 1.288 . S
C468 C158 1.303 . S
C473 C236 1.159 . S
C478 C359 1.161 . S
C483 C173 1.326 . S
C488 C370 1.348 . S
C493 C292 1.362 . S
C498 C249 1.346 . S
C503 C383 1.497 . S
C508 C39 1.497 . S
C513 C307 1.486 . S
C518 C115 1.484 . S
C523 C167 1.369 . S
C528 C242 1.349 . S
C533 C45 1.351 . S
C538 C228 1.370 . S
C543 C33 1.446 . S
C548 C108 1.434 . S
C553 C179 1.432 . S
C558 C94 1.448 . S
C563 C380 1.322 . S
C568 C161 1.344 . S
C573 C234 1.380 . S
C578 C309 1.350 . S
C583 C368 1.266 . S
C588 C27 1.269 . S
C593 C100 1.244 . S
C598 C295 1.243 . S
C603 C41 1.535 . S
C608 C313 1.541 . S
C613 C112 1.436 . S
C618 C362 1.459 . S
C623 C175 1.462 . S
C628 C301 1.484 . S
C633 C246 1.568 . S
C638 C376 1.570 . S
